# Generated by pormake.
# Topology pyr, (3,6)-cn, num edge types: 1
# Building blocks:
#     Node 0, Type 0, BuildingBlock: BELTOD_clean_linker_0, # of connection points: 3
#     Node 1, Type 0, BuildingBlock: BELTOD_clean_linker_0, # of connection points: 3
#     Node 2, Type 0, BuildingBlock: BELTOD_clean_linker_0, # of connection points: 3
#     Node 3, Type 0, BuildingBlock: BELTOD_clean_linker_0, # of connection points: 3
#     Node 4, Type 0, BuildingBlock: BELTOD_clean_linker_0, # of connection points: 3
#     Node 5, Type 0, BuildingBlock: BELTOD_clean_linker_0, # of connection points: 3
#     Node 6, Type 0, BuildingBlock: BELTOD_clean_linker_0, # of connection points: 3
#     Node 7, Type 0, BuildingBlock: BELTOD_clean_linker_0, # of connection points: 3
#     Node 8, Type 1, BuildingBlock: BETDAH_clean_sbu_0, # of connection points: 6
#     Node 9, Type 1, BuildingBlock: BETDAH_clean_sbu_0, # of connection points: 6
#     Node 10, Type 1, BuildingBlock: BETDAH_clean_sbu_0, # of connection points: 6
#     Node 11, Type 1, BuildingBlock: BETDAH_clean_sbu_0, # of connection points: 6
#     Edge 12, Type (0, 1), BuildingBlock: UVAHIK_clean_linker_0, # of connection points: 2
#     Edge 13, Type (0, 1), BuildingBlock: UVAHIK_clean_linker_0, # of connection points: 2
#     Edge 14, Type (0, 1), BuildingBlock: UVAHIK_clean_linker_0, # of connection points: 2
#     Edge 15, Type (0, 1), BuildingBlock: UVAHIK_clean_linker_0, # of connection points: 2
#     Edge 16, Type (0, 1), BuildingBlock: UVAHIK_clean_linker_0, # of connection points: 2
#     Edge 17, Type (0, 1), BuildingBlock: UVAHIK_clean_linker_0, # of connection points: 2
#     Edge 18, Type (0, 1), BuildingBlock: UVAHIK_clean_linker_0, # of connection points: 2
#     Edge 19, Type (0, 1), BuildingBlock: UVAHIK_clean_linker_0, # of connection points: 2
#     Edge 20, Type (0, 1), BuildingBlock: UVAHIK_clean_linker_0, # of connection points: 2
#     Edge 21, Type (0, 1), BuildingBlock: UVAHIK_clean_linker_0, # of connection points: 2
#     Edge 22, Type (0, 1), BuildingBlock: UVAHIK_clean_linker_0, # of connection points: 2
#     Edge 23, Type (0, 1), BuildingBlock: UVAHIK_clean_linker_0, # of connection points: 2
#     Edge 24, Type (0, 1), BuildingBlock: UVAHIK_clean_linker_0, # of connection points: 2
#     Edge 25, Type (0, 1), BuildingBlock: UVAHIK_clean_linker_0, # of connection points: 2
#     Edge 26, Type (0, 1), BuildingBlock: UVAHIK_clean_linker_0, # of connection points: 2
#     Edge 27, Type (0, 1), BuildingBlock: UVAHIK_clean_linker_0, # of connection points: 2
#     Edge 28, Type (0, 1), BuildingBlock: UVAHIK_clean_linker_0, # of connection points: 2
#     Edge 29, Type (0, 1), BuildingBlock: UVAHIK_clean_linker_0, # of connection points: 2
#     Edge 30, Type (0, 1), BuildingBlock: UVAHIK_clean_linker_0, # of connection points: 2
#     Edge 31, Type (0, 1), BuildingBlock: UVAHIK_clean_linker_0, # of connection points: 2
#     Edge 32, Type (0, 1), BuildingBlock: UVAHIK_clean_linker_0, # of connection points: 2
#     Edge 33, Type (0, 1), BuildingBlock: UVAHIK_clean_linker_0, # of connection points: 2
#     Edge 34, Type (0, 1), BuildingBlock: UVAHIK_clean_linker_0, # of connection points: 2
#     Edge 35, Type (0, 1), BuildingBlock: UVAHIK_clean_linker_0, # of connection points: 2
# Relax obj value: 0.078
# Max RMSD: 0.122
# Mean RMSD: 0.056
data_MOF--net-pyr--node1-BETDAH_clean_sbu_0--node2-BELTOD_clean_linker_0--edge1-UVAHIK_clean_linker_0
_symmetry_space_group_name_H-M    P1
_symmetry_Int_Tables_number       1
_symmetry_cell_setting            triclinic
loop_
_symmetry_equiv_pos_as_xyz
'x, y, z'
_cell_length_a     54.967137
_cell_length_b     57.45523
_cell_length_c     51.049122
_cell_angle_alpha  90.854719
_cell_angle_beta   88.769291
_cell_angle_gamma 99.401513
loop_
_atom_site_label
_atom_site_type_symbol
_atom_site_fract_x
_atom_site_fract_y
_atom_site_fract_z
_atom_type_partial_charge
P0 P 0.32245 0.29108 0.23971 0.0
H1 H 0.37003 0.29116 0.21319 0.0
H2 H 0.38899 0.2601 0.19145 0.0
H3 H 0.32409 0.20934 0.21027 0.0
H4 H 0.30514 0.24041 0.23114 0.0
H5 H 0.30987 0.33829 0.24212 0.0
H6 H 0.28631 0.35936 0.21318 0.0
H7 H 0.28262 0.3023 0.15654 0.0
H8 H 0.30585 0.2812 0.18576 0.0
H9 H 0.32128 0.27667 0.29455 0.0
H10 H 0.26955 0.2761 0.23212 0.0
O11 O 0.34373 0.30861 0.25687 0.0
H12 H 0.28813 0.25682 0.32315 0.0
H13 H 0.23668 0.256 0.26013 0.0
C14 C 0.33639 0.26805 0.22417 0.0
C15 C 0.35998 0.27331 0.21267 0.0
C16 C 0.37081 0.25552 0.20035 0.0
C17 C 0.35811 0.23219 0.19921 0.0
C18 C 0.33431 0.22714 0.21053 0.0
C19 C 0.32351 0.24492 0.22275 0.0
C20 C 0.30994 0.30839 0.21591 0.0
C21 C 0.30454 0.33062 0.22316 0.0
C22 C 0.29108 0.34265 0.20658 0.0
C23 C 0.28255 0.33247 0.18257 0.0
C24 C 0.28876 0.31051 0.175 0.0
C25 C 0.30227 0.29853 0.19158 0.0
C26 C 0.29778 0.27836 0.26145 0.0
C27 C 0.30275 0.27255 0.28712 0.0
C28 C 0.28384 0.26103 0.30334 0.0
C29 C 0.25969 0.25497 0.29399 0.0
C30 C 0.2549 0.26088 0.26819 0.0
C31 C 0.27376 0.27238 0.25208 0.0
P32 P 0.33929 0.92004 0.56668 0.0
H33 H 0.36721 0.8938 0.60149 0.0
H34 H 0.37863 0.89965 0.64735 0.0
H35 H 0.34617 0.96329 0.65046 0.0
H36 H 0.33503 0.95747 0.60449 0.0
H37 H 0.36979 0.90234 0.52561 0.0
H38 H 0.37598 0.86255 0.51285 0.0
H39 H 0.32151 0.83357 0.57101 0.0
H40 H 0.31508 0.87334 0.58322 0.0
H41 H 0.31129 0.94257 0.52921 0.0
H42 H 0.2975 0.90615 0.60267 0.0
O43 O 0.35626 0.93999 0.54753 0.0
H44 H 0.26888 0.95053 0.52996 0.0
H45 H 0.25512 0.91403 0.60353 0.0
C46 C 0.34981 0.92497 0.59974 0.0
C47 C 0.36253 0.90901 0.61198 0.0
C48 C 0.36902 0.91234 0.63825 0.0
C49 C 0.3631 0.93181 0.65262 0.0
C50 C 0.35115 0.9482 0.63992 0.0
C51 C 0.34466 0.94483 0.61369 0.0
C52 C 0.3419 0.89077 0.55529 0.0
C53 C 0.35891 0.88741 0.53533 0.0
C54 C 0.36253 0.86465 0.52815 0.0
C55 C 0.3493 0.84488 0.54097 0.0
C56 C 0.33172 0.84836 0.56045 0.0
C57 C 0.32808 0.87112 0.56754 0.0
C58 C 0.30758 0.92406 0.56604 0.0
C59 C 0.29911 0.93618 0.54542 0.0
C60 C 0.27492 0.94077 0.54591 0.0
C61 C 0.25878 0.93307 0.56693 0.0
C62 C 0.26708 0.92005 0.58702 0.0
C63 C 0.29131 0.91561 0.58657 0.0
P64 P 0.66016 0.33223 0.84697 0.0
H65 H 0.70475 0.31932 0.868 0.0
H66 H 0.73912 0.34073 0.89235 0.0
H67 H 0.70269 0.40198 0.89604 0.0
H68 H 0.66853 0.38039 0.87073 0.0
H69 H 0.6225 0.2935 0.83013 0.0
H70 H 0.60049 0.25861 0.8523 0.0
H71 H 0.63232 0.28505 0.9257 0.0
H72 H 0.65403 0.32009 0.90338 0.0
H73 H 0.67873 0.36742 0.80813 0.0
H74 H 0.60781 0.33909 0.84201 0.0
O75 O 0.67485 0.31744 0.82504 0.0
H76 H 0.65889 0.38972 0.77687 0.0
H77 H 0.58769 0.3614 0.81059 0.0
C78 C 0.68418 0.34829 0.86722 0.0
C79 C 0.7041 0.33735 0.87409 0.0
C80 C 0.72374 0.34964 0.88828 0.0
C81 C 0.72392 0.37324 0.8963 0.0
C82 C 0.70351 0.384 0.88991 0.0
C83 C 0.68382 0.37162 0.87557 0.0
C84 C 0.6399 0.30955 0.86499 0.0
C85 C 0.62434 0.29206 0.8511 0.0
C86 C 0.61197 0.27193 0.8638 0.0
C87 C 0.61485 0.26873 0.8908 0.0
C88 C 0.62954 0.28688 0.90494 0.0
C89 C 0.64201 0.30701 0.89215 0.0
C90 C 0.64484 0.35153 0.82747 0.0
C91 C 0.65886 0.36624 0.80909 0.0
C92 C 0.64744 0.37885 0.79101 0.0
C93 C 0.62161 0.37718 0.79089 0.0
C94 C 0.60761 0.36318 0.81011 0.0
C95 C 0.61911 0.35037 0.82813 0.0
P96 P 0.81319 0.68903 0.34302 0.0
H97 H 0.83409 0.73557 0.32347 0.0
H98 H 0.85606 0.77119 0.34429 0.0
H99 H 0.85744 0.73339 0.41661 0.0
H100 H 0.83557 0.69756 0.3954 0.0
H101 H 0.79711 0.65427 0.30244 0.0
H102 H 0.81878 0.63191 0.27132 0.0
H103 H 0.88822 0.66233 0.30535 0.0
H104 H 0.86622 0.68478 0.33663 0.0
H105 H 0.78363 0.70329 0.38664 0.0
H106 H 0.79604 0.63776 0.35068 0.0
O107 O 0.79458 0.70048 0.32321 0.0
H108 H 0.75066 0.68187 0.41407 0.0
H109 H 0.76288 0.61629 0.37782 0.0
C110 C 0.83271 0.71399 0.35799 0.0
C111 C 0.83926 0.73484 0.34376 0.0
C112 C 0.85171 0.7553 0.35577 0.0
C113 C 0.85814 0.75537 0.38232 0.0
C114 C 0.85276 0.73403 0.39616 0.0
C115 C 0.84018 0.71352 0.38408 0.0
C116 C 0.82996 0.67112 0.32202 0.0
C117 C 0.81699 0.65594 0.30346 0.0
C118 C 0.82944 0.64308 0.28566 0.0
C119 C 0.85531 0.64523 0.28576 0.0
C120 C 0.86832 0.66038 0.30455 0.0
C121 C 0.85574 0.67312 0.32259 0.0
C122 C 0.79267 0.67223 0.36676 0.0
C123 C 0.7797 0.68423 0.38507 0.0
C124 C 0.76075 0.67194 0.40073 0.0
C125 C 0.75399 0.64733 0.39811 0.0
C126 C 0.76741 0.63526 0.38016 0.0
C127 C 0.78656 0.64757 0.36469 0.0
P128 P 0.73107 0.81959 0.84531 0.0
H129 H 0.70673 0.81759 0.89634 0.0
H130 H 0.66865 0.83028 0.91164 0.0
H131 H 0.6493 0.84045 0.83144 0.0
H132 H 0.68785 0.82836 0.81638 0.0
H133 H 0.78021 0.81465 0.86099 0.0
H134 H 0.7979 0.78157 0.87714 0.0
H135 H 0.72574 0.73832 0.8774 0.0
H136 H 0.70798 0.772 0.86177 0.0
H137 H 0.74327 0.85408 0.804 0.0
H138 H 0.72682 0.77831 0.80977 0.0
O139 O 0.74851 0.84476 0.85469 0.0
H140 H 0.75508 0.8504 0.75809 0.0
H141 H 0.7384 0.77442 0.76355 0.0
C142 C 0.70001 0.82182 0.85526 0.0
C143 C 0.69391 0.82183 0.88202 0.0
C144 C 0.67205 0.82907 0.89073 0.0
C145 C 0.65594 0.83658 0.87277 0.0
C146 C 0.66145 0.83511 0.84581 0.0
C147 C 0.68341 0.82796 0.83714 0.0
C148 C 0.74276 0.79586 0.86068 0.0
C149 C 0.76809 0.7982 0.86501 0.0
C150 C 0.77823 0.77916 0.87393 0.0
C151 C 0.76327 0.75722 0.87829 0.0
C152 C 0.73771 0.75504 0.87443 0.0
C153 C 0.72754 0.77424 0.86555 0.0
C154 C 0.73487 0.81649 0.81043 0.0
C155 C 0.7418 0.83664 0.79524 0.0
C156 C 0.74832 0.83448 0.76887 0.0
C157 C 0.7479 0.81207 0.75719 0.0
C158 C 0.73928 0.7919 0.77209 0.0
C159 C 0.73266 0.79412 0.79851 0.0
P160 P 0.77497 0.26501 0.40086 0.0
H161 H 0.77062 0.30441 0.43678 0.0
H162 H 0.74091 0.30957 0.47181 0.0
H163 H 0.70534 0.2374 0.46077 0.0
H164 H 0.73527 0.23231 0.42572 0.0
H165 H 0.82354 0.27177 0.4245 0.0
H166 H 0.84973 0.24402 0.43906 0.0
H167 H 0.79505 0.18572 0.41372 0.0
H168 H 0.76909 0.21353 0.39915 0.0
H169 H 0.7232 0.26388 0.38612 0.0
H170 H 0.78916 0.24344 0.35209 0.0
O171 O 0.79199 0.29098 0.39363 0.0
H172 H 0.69961 0.24656 0.34878 0.0
H173 H 0.76592 0.22698 0.314 0.0
C174 C 0.75476 0.26814 0.42836 0.0
C175 C 0.75662 0.28962 0.44208 0.0
C176 C 0.73978 0.29247 0.46227 0.0
C177 C 0.72078 0.27389 0.46894 0.0
C178 C 0.7197 0.25204 0.4559 0.0
C179 C 0.73674 0.24914 0.43591 0.0
C180 C 0.79473 0.24468 0.41016 0.0
C181 C 0.81737 0.25302 0.42181 0.0
C182 C 0.83221 0.23716 0.43029 0.0
C183 C 0.82451 0.21271 0.42733 0.0
C184 C 0.80168 0.20446 0.41579 0.0
C185 C 0.78682 0.22033 0.40749 0.0
C186 C 0.75777 0.25415 0.37233 0.0
C187 C 0.73265 0.25565 0.37062 0.0
C188 C 0.7192 0.24599 0.34902 0.0
C189 C 0.73077 0.23505 0.3285 0.0
C190 C 0.75626 0.23469 0.32976 0.0
C191 C 0.76962 0.24421 0.35145 0.0
P192 P 0.34988 0.67624 0.19856 0.0
H193 H 0.324 0.68329 0.15099 0.0
H194 H 0.28277 0.66775 0.13526 0.0
H195 H 0.26375 0.63514 0.21021 0.0
H196 H 0.30495 0.65098 0.22593 0.0
H197 H 0.39789 0.7011 0.18105 0.0
H198 H 0.4127 0.74138 0.16739 0.0
H199 H 0.34213 0.76058 0.18936 0.0
H200 H 0.32715 0.71964 0.20208 0.0
H201 H 0.34312 0.62972 0.22206 0.0
H202 H 0.37367 0.70063 0.24552 0.0
O203 O 0.36517 0.66108 0.17758 0.0
H204 H 0.35636 0.61472 0.26295 0.0
H205 H 0.38714 0.68571 0.2867 0.0
C206 C 0.31776 0.66832 0.18963 0.0
C207 C 0.31081 0.6732 0.16425 0.0
C208 C 0.28717 0.66427 0.15525 0.0
C209 C 0.26992 0.64998 0.17136 0.0
C210 C 0.27667 0.64575 0.19712 0.0
C211 C 0.3003 0.65491 0.20619 0.0
C212 C 0.3613 0.70719 0.19231 0.0
C213 C 0.38561 0.71398 0.1831 0.0
C214 C 0.39414 0.73723 0.17541 0.0
C215 C 0.37868 0.75454 0.17706 0.0
C216 C 0.35451 0.7478 0.18726 0.0
C217 C 0.34594 0.72438 0.19483 0.0
C218 C 0.3569 0.66637 0.23082 0.0
C219 C 0.35223 0.64216 0.2363 0.0
C220 C 0.35987 0.63358 0.25978 0.0
C221 C 0.37281 0.64895 0.27833 0.0
C222 C 0.37737 0.6733 0.27286 0.0
C223 C 0.36946 0.68191 0.24937 0.0
P224 P 0.16299 0.34088 0.73231 0.0
H225 H 0.17532 0.31813 0.6832 0.0
H226 H 0.15374 0.28514 0.65763 0.0
H227 H 0.08976 0.28312 0.7086 0.0
H228 H 0.11135 0.31632 0.73395 0.0
H229 H 0.21432 0.35856 0.74487 0.0
H230 H 0.24837 0.38177 0.72083 0.0
H231 H 0.19914 0.39049 0.6581 0.0
H232 H 0.16512 0.3665 0.68225 0.0
H233 H 0.13247 0.32664 0.7785 0.0
H234 H 0.15397 0.39046 0.73466 0.0
O235 O 0.17699 0.3241 0.75151 0.0
H236 H 0.11094 0.34802 0.8107 0.0
H237 H 0.13313 0.41231 0.76737 0.0
C238 C 0.14484 0.32027 0.71021 0.0
C239 C 0.15636 0.31116 0.68842 0.0
C240 C 0.14401 0.29214 0.67383 0.0
C241 C 0.12 0.28138 0.68105 0.0
C242 C 0.10831 0.29084 0.70259 0.0
C243 C 0.1206 0.31005 0.717 0.0
C244 C 0.18725 0.36036 0.71515 0.0
C245 C 0.21077 0.36549 0.72597 0.0
C246 C 0.23028 0.37901 0.71222 0.0
C247 C 0.2267 0.38799 0.68733 0.0
C248 C 0.20277 0.38353 0.67696 0.0
C249 C 0.18322 0.36994 0.6908 0.0
C250 C 0.14492 0.35688 0.75414 0.0
C251 C 0.13246 0.34529 0.77572 0.0
C252 C 0.12034 0.35765 0.79435 0.0
C253 C 0.12049 0.38207 0.79201 0.0
C254 C 0.13242 0.39353 0.76985 0.0
C255 C 0.14447 0.38104 0.7511 0.0
Ho256 Ho -0.00084 0.03044 0.50053 0.0
Ho257 Ho 0.98315 1.01066 0.55462 0.0
C258 C 0.01405 0.06241 0.55184 0.0
C259 C 0.005 0.0485 0.45446 0.0
C260 C 0.02406 0.06665 0.44321 0.0
C261 C 0.02256 0.07373 0.41725 0.0
C262 C 0.04116 0.09059 0.40641 0.0
C263 C 0.06158 0.10046 0.42139 0.0
C264 C 0.06278 0.09344 0.44753 0.0
C265 C 0.04414 0.07674 0.45836 0.0
C266 C 0.03501 1.01565 0.5278 0.0
C267 C 0.96732 0.97769 0.50355 0.0
C268 C 0.97277 0.98586 0.59633 0.0
C269 C 0.95916 0.96216 0.60163 0.0
C270 C 0.9593 0.94341 0.58363 0.0
C271 C 0.9427 0.92234 0.58686 0.0
C272 C 0.92561 0.92006 0.60787 0.0
C273 C 0.92631 0.93845 0.6264 0.0
C274 C 0.943 0.95928 0.62334 0.0
C275 C 0.95549 0.0405 0.5346 0.0
O276 O 0.0073 0.06254 0.52704 0.0
O277 O 0.01042 0.04274 0.56565 0.0
O278 O 0.01256 0.02884 0.46061 0.0
O279 O 0.99094 0.05595 0.47276 0.0
O280 O 0.03864 0.03361 0.51238 0.0
O281 O 0.01291 1.00561 0.52684 0.0
O282 O 0.96571 0.98025 0.52931 0.0
O283 O 0.97913 0.99458 0.48841 0.0
O284 O 0.95909 1.00057 0.58777 0.0
O285 O 0.99401 0.98744 0.58375 0.0
O286 O 0.96114 0.04038 0.55911 0.0
O287 O 0.9642 0.02454 0.52227 0.0
H288 H 0.00715 0.06608 0.40532 0.0
H289 H 0.03985 0.09554 0.38616 0.0
H290 H 0.07809 0.10097 0.45965 0.0
H291 H 0.04546 0.07158 0.47854 0.0
H292 H 0.97147 0.94537 0.56655 0.0
H293 H 0.94238 0.90836 0.57234 0.0
H294 H 0.9134 0.93693 0.64287 0.0
H295 H 0.9425 0.97361 0.6373 0.0
Ho296 Ho 0.51512 0.02328 0.05719 0.0
Ho297 Ho 0.46527 1.00937 0.02707 0.0
C298 C 0.46707 0.04646 0.07417 0.0
C299 C 0.55436 0.04193 0.08146 0.0
C300 C 0.56586 0.0633 0.09553 0.0
C301 C 0.55278 0.07467 0.11439 0.0
C302 C 0.56528 0.09261 0.13029 0.0
C303 C 0.59098 0.09933 0.12759 0.0
C304 C 0.60365 0.08881 0.10764 0.0
C305 C 0.5912 0.07094 0.09181 0.0
C306 C 0.48823 0.98043 0.06842 0.0
C307 C 0.51533 0.99142 1.00579 0.0
C308 C 0.42526 0.98629 1.00818 0.0
C309 C 0.41889 0.9801 0.98093 0.0
C310 C 0.39527 0.96858 0.97455 0.0
C311 C 0.38958 0.96271 0.94842 0.0
C312 C 0.40751 0.96825 0.92837 0.0
C313 C 0.43114 0.97988 0.935 0.0
C314 C 0.43676 0.98573 0.96102 0.0
C315 C 0.4932 0.04846 1.00506 0.0
O316 O 0.49146 0.04888 0.07316 0.0
O317 O 0.45276 0.02973 0.061 0.0
O318 O 0.5354 0.02897 0.09294 0.0
O319 O 0.55208 0.0434 0.05607 0.0
O320 O 0.51209 0.98501 0.06741 0.0
O321 O 0.47963 0.99919 0.06456 0.0
O322 O 0.49091 0.98776 1.00683 0.0
O323 O 0.5289 1.00697 1.02106 0.0
O324 O 0.42808 1.00888 1.01389 0.0
O325 O 0.44285 0.97604 1.0174 0.0
O326 O 0.47186 0.03858 0.99664 0.0
O327 O 0.49799 0.03645 0.02405 0.0
H328 H 0.53316 0.06908 0.11754 0.0
H329 H 0.55503 0.10035 0.14553 0.0
H330 H 0.62337 0.09393 0.10475 0.0
H331 H 0.60158 0.06243 0.07732 0.0
H332 H 0.38129 0.96408 0.98975 0.0
H333 H 0.37128 0.95359 0.94394 0.0
H334 H 0.44524 0.98476 0.92003 0.0
H335 H 0.4551 0.99472 0.96564 0.0
Ho336 Ho 0.49456 0.49723 0.52352 0.0
Ho337 Ho 0.4856 0.53557 0.56011 0.0
C338 C 0.51155 0.49591 0.58455 0.0
C339 C 0.51307 0.46494 0.49804 0.0
C340 C 0.52481 0.44494 0.50628 0.0
C341 C 0.54773 0.44871 0.5187 0.0
C342 C 0.55844 0.42963 0.52666 0.0
C343 C 0.54646 0.40633 0.52255 0.0
C344 C 0.52336 0.40262 0.51045 0.0
C345 C 0.51274 0.42172 0.50229 0.0
C346 C 0.44924 0.49042 0.54668 0.0
C347 C 0.46977 0.53732 0.49852 0.0
C348 C 0.46597 0.56666 0.58654 0.0
C349 C 0.4536 0.58647 0.57932 0.0
C350 C 0.43531 0.58375 0.56018 0.0
C351 C 0.42464 0.60303 0.55269 0.0
C352 C 0.43217 0.62538 0.5641 0.0
C353 C 0.45029 0.62797 0.58343 0.0
C354 C 0.46088 0.60867 0.59099 0.0
C355 C 0.53106 0.54254 0.5371 0.0
O356 O 0.51498 0.48946 0.5599 0.0
O357 O 0.49775 0.51214 0.59034 0.0
O358 O 0.48955 0.46332 0.50359 0.0
O359 O 0.52523 0.48615 0.50236 0.0
O360 O 0.45348 0.48533 0.52236 0.0
O361 O 0.46931 0.49822 0.55769 0.0
O362 O 0.46616 0.54393 0.52313 0.0
O363 O 0.48325 0.52077 0.49305 0.0
O364 O 0.48952 0.56913 0.58076 0.0
O365 O 0.45433 0.54545 0.58123 0.0
O366 O 0.52661 0.54794 0.56131 0.0
O367 O 0.51103 0.53462 0.52604 0.0
H368 H 0.55753 0.46638 0.52218 0.0
H369 H 0.57645 0.4332 0.53543 0.0
H370 H 0.51346 0.38495 0.50725 0.0
H371 H 0.495 0.41833 0.49289 0.0
H372 H 0.42942 0.56682 0.55075 0.0
H373 H 0.41089 0.60056 0.53757 0.0
H374 H 0.45622 0.64493 0.59281 0.0
H375 H 0.47494 0.61113 0.60578 0.0
Ho376 Ho 0.99594 0.49035 0.05334 0.0
Ho377 Ho 0.98757 0.53978 0.03042 0.0
C378 C 0.03888 0.53712 0.05887 0.0
C379 C 0.01266 0.45271 0.06601 0.0
C380 C 0.03705 0.44589 0.06999 0.0
C381 C 0.04298 0.42575 0.05717 0.0
C382 C 0.06551 0.41833 0.06152 0.0
C383 C 0.08255 0.43084 0.07894 0.0
C384 C 0.07675 0.45134 0.09132 0.0
C385 C 0.05426 0.45883 0.08685 0.0
C386 C 0.96857 0.51625 0.08297 0.0
C387 C 0.94726 0.49194 1.01992 0.0
C388 C 0.9707 0.57879 0.02646 0.0
C389 C 0.95285 0.58786 1.0099 0.0
C390 C 0.93093 0.57337 1.00236 0.0
C391 C 0.91334 0.58269 0.98824 0.0
C392 C 0.91748 0.60658 0.98121 0.0
C393 C 0.93977 0.62084 0.9881 0.0
C394 C 0.95727 0.61156 1.00241 0.0
C395 C 0.00809 0.5137 0.99335 0.0
O396 O 0.03289 0.51374 0.05942 0.0
O397 O 0.02368 0.55096 0.05042 0.0
O398 O 0.00538 0.46741 0.0832 0.0
O399 O 0.00745 0.4573 0.0419 0.0
O400 O 0.96442 0.49334 0.08165 0.0
O401 O 0.98756 0.52399 0.06942 0.0
O402 O 0.952 0.51539 1.02103 0.0
O403 O 0.9626 0.47846 0.02891 0.0
O404 O 0.99137 0.57517 1.015 0.0
O405 O 0.9614 0.56197 0.04263 0.0
O406 O 0.00234 0.53435 0.98896 0.0
O407 O 0.00219 0.50888 1.01679 0.0
H408 H 0.03003 0.4156 0.04396 0.0
H409 H 0.06953 0.40271 0.05129 0.0
H410 H 0.08927 0.46128 0.10508 0.0
H411 H 0.05023 0.4745 0.09696 0.0
H412 H 0.92719 0.55496 1.00776 0.0
H413 H 0.89646 0.57124 0.98294 0.0
H414 H 0.94334 0.63937 0.98313 0.0
H415 H 0.97405 0.623 1.00807 0.0
C416 C 0.21555 0.24682 0.30968 0.0
C417 C 0.23967 0.24169 0.31051 0.0
C418 C 0.19627 0.23305 0.32338 0.0
C419 C 0.182 0.1904 0.37698 0.0
H420 H 0.12232 0.16922 0.3383 0.0
C421 C 0.10652 0.11573 0.41398 0.0
C422 C 0.08177 0.11772 0.40974 0.0
C423 C 0.12561 0.13182 0.40288 0.0
C424 C 0.13867 0.17525 0.34956 0.0
H425 H 0.2625 0.21834 0.32696 0.0
H426 H 0.22884 0.19447 0.35114 0.0
H427 H 0.15599 0.19608 0.31786 0.0
H428 H 0.0576 0.13837 0.39097 0.0
H429 H 0.09092 0.16671 0.37184 0.0
H430 H 0.16469 0.16961 0.40872 0.0
C431 C 0.22492 0.20925 0.33996 0.0
C432 C 0.15799 0.19062 0.33781 0.0
C433 C 0.24421 0.22296 0.32614 0.0
C434 C 0.07651 0.13623 0.39429 0.0
C435 C 0.09561 0.15243 0.38331 0.0
C436 C 0.16261 0.17512 0.38881 0.0
C437 C 0.20068 0.21391 0.33835 0.0
C438 C 0.1799 0.19827 0.35134 0.0
C439 C 0.1204 0.15037 0.38739 0.0
C440 C 0.14076 0.16723 0.37518 0.0
H441 H 0.21151 0.2614 0.29824 0.0
H442 H 0.17785 0.23731 0.32214 0.0
H443 H 0.19857 0.19621 0.38798 0.0
H444 H 0.11114 0.10144 0.4255 0.0
H445 H 0.14446 0.12943 0.40603 0.0
C446 C 0.36415 0.9151 0.69762 0.0
C447 C 0.36859 0.93465 0.68094 0.0
C448 C 0.36818 0.91791 0.72449 0.0
C449 C 0.37328 0.96287 0.77732 0.0
H450 H 0.40265 0.91698 0.8155 0.0
C451 C 0.37922 0.96584 0.89007 0.0
C452 C 0.40172 0.96223 0.90056 0.0
C453 C 0.37445 0.96141 0.86351 0.0
C454 C 0.39453 0.93001 0.8051 0.0
H455 H 0.38145 0.97235 0.67926 0.0
H456 H 0.3886 0.97725 0.72615 0.0
H457 H 0.39686 0.91191 0.76841 0.0
H458 H 0.43648 0.95034 0.89161 0.0
H459 H 0.42837 0.94305 0.84525 0.0
H460 H 0.37148 0.98127 0.81386 0.0
C461 C 0.38155 0.95981 0.71853 0.0
C462 C 0.39099 0.92698 0.77816 0.0
C463 C 0.3775 0.95701 0.69166 0.0
C464 C 0.41909 0.95359 0.88405 0.0
C465 C 0.41433 0.94915 0.85754 0.0
C466 C 0.37681 0.96589 0.80425 0.0
C467 C 0.37676 0.94033 0.73528 0.0
C468 C 0.38041 0.94343 0.76394 0.0
C469 C 0.39206 0.95322 0.8469 0.0
C470 C 0.38756 0.94954 0.81843 0.0
H471 H 0.35692 0.8977 0.69002 0.0
H472 H 0.364 0.90259 0.7369 0.0
H473 H 0.36479 0.9757 0.767 0.0
H474 H 0.36553 0.97264 0.90223 0.0
H475 H 0.35699 0.96445 0.85597 0.0
C476 C 0.58967 0.40127 0.77614 0.0
C477 C 0.60951 0.38929 0.77011 0.0
C478 C 0.57875 0.41281 0.75651 0.0
C479 C 0.57085 0.41389 0.6844 0.0
H480 H 0.55547 0.47655 0.69729 0.0
C481 C 0.5399 0.46883 0.60032 0.0
C482 C 0.52283 0.48408 0.60604 0.0
C483 C 0.55024 0.45743 0.62043 0.0
C484 C 0.55924 0.45891 0.69334 0.0
H485 H 0.6329 0.37969 0.73834 0.0
H486 H 0.61392 0.39964 0.70433 0.0
H487 H 0.57307 0.45624 0.73202 0.0
H488 H 0.50321 0.49902 0.6377 0.0
H489 H 0.52063 0.4788 0.67257 0.0
H490 H 0.55671 0.41624 0.64596 0.0
C491 C 0.60679 0.40021 0.72423 0.0
C492 C 0.56944 0.44726 0.71337 0.0
C493 C 0.61787 0.38894 0.74385 0.0
C494 C 0.5164 0.48756 0.63248 0.0
C495 C 0.52658 0.476 0.65259 0.0
C496 C 0.56044 0.42543 0.66447 0.0
C497 C 0.58712 0.4124 0.73024 0.0
C498 C 0.57555 0.42462 0.70915 0.0
C499 C 0.5437 0.46071 0.64694 0.0
C500 C 0.55456 0.44822 0.6685 0.0
H501 H 0.58279 0.40201 0.79612 0.0
H502 H 0.56352 0.42185 0.76188 0.0
H503 H 0.57494 0.39634 0.68049 0.0
H504 H 0.54543 0.46574 0.58024 0.0
H505 H 0.56364 0.44623 0.61508 0.0
C506 C 0.85877 0.60857 0.25899 0.0
C507 C 0.86842 0.63202 0.26592 0.0
C508 C 0.87022 0.59649 0.23949 0.0
C509 C 0.9125 0.60617 0.18161 0.0
H510 H 0.91679 0.54005 0.19006 0.0
C511 C 0.96593 0.55433 0.10712 0.0
C512 C 0.95643 0.53046 0.1023 0.0
C513 C 0.95541 0.56717 0.12673 0.0
C514 C 0.91547 0.55843 0.18712 0.0
H515 H 0.89793 0.66103 0.25761 0.0
H516 H 0.91804 0.6399 0.2237 0.0
H517 H 0.89871 0.5613 0.22506 0.0
H518 H 0.92801 0.50153 0.11376 0.0
H519 H 0.90933 0.52388 0.14745 0.0
H520 H 0.92906 0.60325 0.14355 0.0
C521 C 0.90146 0.6309 0.23329 0.0
C522 C 0.90512 0.57066 0.20732 0.0
C523 C 0.89007 0.64294 0.25298 0.0
C524 C 0.93585 0.51987 0.11709 0.0
C525 C 0.92527 0.53268 0.1366 0.0
C526 C 0.92278 0.5939 0.16133 0.0
C527 C 0.89163 0.60752 0.22618 0.0
C528 C 0.90337 0.59469 0.20485 0.0
C529 C 0.93506 0.55646 0.142 0.0
C530 C 0.92432 0.56978 0.1637 0.0
H531 H 0.84227 0.59948 0.26867 0.0
H532 H 0.86196 0.57861 0.23445 0.0
H533 H 0.9112 0.62457 0.17882 0.0
H534 H 0.98187 0.56298 0.09614 0.0
H535 H 0.96368 0.58532 0.13037 0.0
C536 C 0.39465 0.21196 0.1897 0.0
C537 C 0.36955 0.21312 0.18638 0.0
C538 C 0.40521 0.19366 0.17814 0.0
C539 C 0.3955 0.14823 0.12549 0.0
H540 H 0.44225 0.11918 0.16435 0.0
C541 C 0.42992 0.06395 0.08838 0.0
C542 C 0.45546 0.06395 0.08952 0.0
C543 C 0.41927 0.08158 0.10117 0.0
C544 C 0.42936 0.12724 0.15319 0.0
H545 H 0.33601 0.19617 0.16781 0.0
H546 H 0.35422 0.164 0.14825 0.0
H547 H 0.42418 0.15142 0.18433 0.0
H548 H 0.4897 0.08215 0.10571 0.0
H549 H 0.47105 0.11284 0.12801 0.0
H550 H 0.40059 0.12399 0.09441 0.0
C551 C 0.36585 0.17736 0.15956 0.0
C552 C 0.41905 0.14575 0.16459 0.0
C553 C 0.35532 0.19566 0.17105 0.0
C554 C 0.46997 0.0816 0.10439 0.0
C555 C 0.45928 0.09915 0.11728 0.0
C556 C 0.40571 0.12968 0.11415 0.0
C557 C 0.3909 0.17609 0.163 0.0
C558 C 0.402 0.15648 0.15087 0.0
C559 C 0.43387 0.09953 0.1155 0.0
C560 C 0.42276 0.11897 0.12786 0.0
H561 H 0.40609 0.22498 0.20159 0.0
H562 H 0.42463 0.19339 0.18094 0.0
H563 H 0.38276 0.15635 0.11418 0.0
H564 H 0.41817 0.05063 0.07716 0.0
H565 H 0.39958 0.08121 0.09975 0.0
C566 C 0.23066 0.96284 0.5633 0.0
C567 C 0.23382 0.93961 0.56853 0.0
C568 C 0.20732 0.96933 0.5651 0.0
C569 C 0.14192 0.94562 0.5603 0.0
H570 H 0.13424 1.00694 0.58905 0.0
C571 C 0.05124 0.98321 0.55057 0.0
C572 C 0.05502 1.00613 0.54042 0.0
C573 C 0.07112 0.97366 0.56011 0.0
C574 C 0.13607 0.98974 0.58102 0.0
H575 H 0.21506 0.90494 0.57978 0.0
H576 H 0.17401 0.91632 0.58278 0.0
H577 H 0.17321 0.99249 0.59393 0.0
H578 H 0.082 0.03745 0.53337 0.0
H579 H 0.11659 0.02089 0.54984 0.0
H580 H 0.10511 0.9433 0.54643 0.0
C581 C 0.18968 0.92946 0.57732 0.0
C582 C 0.15837 0.98149 0.58378 0.0
C583 C 0.21314 0.92299 0.57572 0.0
C584 C 0.07864 1.01969 0.541 0.0
C585 C 0.0984 1.01026 0.55066 0.0
C586 C 0.11959 0.95391 0.55747 0.0
C587 C 0.18658 0.95272 0.57208 0.0
C588 C 0.16179 0.9597 0.5727 0.0
C589 C 0.09499 0.987 0.55987 0.0
C590 C 0.11674 0.9764 0.56705 0.0
H591 H 0.2463 0.9761 0.55804 0.0
H592 H 0.20546 0.98731 0.56056 0.0
H593 H 0.14407 0.92881 0.55146 0.0
H594 H 0.03313 0.97243 0.55035 0.0
H595 H 0.06793 0.95574 0.56725 0.0
C596 C 0.75856 0.37485 0.92853 0.0
C597 C 0.74558 0.38648 0.91068 0.0
C598 C 0.77975 0.38669 0.9407 0.0
C599 C 0.81352 0.44604 0.95802 0.0
H600 H 0.86977 0.41348 0.96183 0.0
C601 C 0.90906 0.49338 0.99372 0.0
C602 C 0.92374 0.48029 1.00792 0.0
C603 C 0.8872 0.48233 0.98207 0.0
C604 C 0.85418 0.4228 0.96137 0.0
H605 H 0.74496 0.42015 0.89221 0.0
H606 H 0.78161 0.44085 0.91384 0.0
H607 H 0.83196 0.39381 0.94188 0.0
H608 H 0.92645 0.44515 1.02122 0.0
H609 H 0.88824 0.42606 1.00162 0.0
H610 H 0.83557 0.47491 0.97785 0.0
C611 C 0.77528 0.42248 0.9184 0.0
C612 C 0.83243 0.41147 0.94981 0.0
C613 C 0.75414 0.41058 0.90602 0.0
C614 C 0.91579 0.45585 1.0103 0.0
C615 C 0.89385 0.44482 0.99885 0.0
C616 C 0.83523 0.45732 0.96982 0.0
C617 C 0.78857 0.41061 0.93565 0.0
C618 C 0.81176 0.42289 0.94797 0.0
C619 C 0.87922 0.45784 0.98439 0.0
C620 C 0.85594 0.44588 0.97172 0.0
H621 H 0.75235 0.3565 0.9332 0.0
H622 H 0.78918 0.37707 0.95425 0.0
H623 H 0.79791 0.45531 0.95722 0.0
H624 H 0.91461 0.5122 0.99125 0.0
H625 H 0.8768 0.493 0.97082 0.0
C626 C 0.72819 0.64002 0.43959 0.0
C627 C 0.73226 0.63458 0.41307 0.0
C628 C 0.70715 0.6289 0.45323 0.0
C629 C 0.65548 0.5775 0.44986 0.0
H630 H 0.62474 0.61447 0.50109 0.0
C631 C 0.55772 0.54653 0.49614 0.0
C632 C 0.55477 0.55094 0.52309 0.0
C633 C 0.57978 0.55564 0.48283 0.0
C634 C 0.63321 0.6038 0.48703 0.0
H635 H 0.71719 0.61314 0.38013 0.0
H636 H 0.6804 0.59411 0.40363 0.0
H637 H 0.66212 0.63234 0.47789 0.0
H638 H 0.57283 0.56795 0.55729 0.0
H639 H 0.61111 0.5839 0.53415 0.0
H640 H 0.62607 0.54911 0.45876 0.0
C641 C 0.6937 0.60655 0.4142 0.0
C642 C 0.65478 0.61404 0.47373 0.0
C643 C 0.71486 0.61752 0.40064 0.0
C644 C 0.57447 0.56431 0.5365 0.0
C645 C 0.59638 0.57358 0.52319 0.0
C646 C 0.63375 0.56732 0.46303 0.0
C647 C 0.6894 0.61217 0.44068 0.0
C648 C 0.66635 0.60106 0.45497 0.0
C649 C 0.59929 0.56955 0.49613 0.0
C650 C 0.62236 0.58031 0.48187 0.0
H651 H 0.74135 0.65284 0.44989 0.0
H652 H 0.70491 0.6334 0.47371 0.0
H653 H 0.66393 0.56674 0.43591 0.0
H654 H 0.54287 0.5363 0.48526 0.0
H655 H 0.58131 0.5523 0.46197 0.0
C656 C 0.24436 0.33015 0.15612 0.0
C657 C 0.26554 0.3438 0.16663 0.0
C658 C 0.22712 0.34085 0.14307 0.0
C659 C 0.20487 0.39775 0.13882 0.0
H660 H 0.16824 0.36695 0.08032 0.0
C661 C 0.12786 0.43775 0.089 0.0
C662 C 0.10577 0.42201 0.08501 0.0
C663 C 0.14928 0.4294 0.09608 0.0
C664 C 0.17828 0.37572 0.09669 0.0
H665 H 0.28571 0.37933 0.1708 0.0
H666 H 0.25567 0.39806 0.14775 0.0
H667 H 0.20274 0.35036 0.09739 0.0
H668 H 0.08903 0.38507 0.08536 0.0
H669 H 0.1264 0.37056 0.09732 0.0
H670 H 0.18018 0.42295 0.13828 0.0
C671 C 0.25219 0.37908 0.15002 0.0
C672 C 0.19801 0.36621 0.1065 0.0
C673 C 0.26942 0.36837 0.16317 0.0
C674 C 0.10578 0.39769 0.08778 0.0
C675 C 0.12722 0.38935 0.09468 0.0
C676 C 0.1852 0.40732 0.12891 0.0
C677 C 0.23065 0.36547 0.14013 0.0
C678 C 0.21126 0.37685 0.12801 0.0
C679 C 0.14914 0.40511 0.09915 0.0
C680 C 0.17141 0.39617 0.10805 0.0
H681 H 0.24057 0.31124 0.15886 0.0
H682 H 0.21056 0.32984 0.13615 0.0
H683 H 0.21442 0.40623 0.15563 0.0
H684 H 0.12862 0.45656 0.08664 0.0
H685 H 0.16599 0.44194 0.09912 0.0
C686 C 0.59287 0.24582 0.92903 0.0
C687 C 0.60357 0.24607 0.90369 0.0
C688 C 0.58225 0.22446 0.94078 0.0
C689 C 0.55768 0.16149 0.92391 0.0
H690 H 0.56015 0.15232 0.99882 0.0
C691 C 0.49814 0.08173 0.97355 0.0
C692 C 0.5076 0.07071 0.99457 0.0
C693 C 0.51075 0.10286 0.9633 0.0
C694 C 0.55947 0.15444 0.97782 0.0
H695 H 0.61227 0.22366 0.87145 0.0
H696 H 0.59421 0.18673 0.89183 0.0
H697 H 0.58062 0.1893 0.97963 0.0
H698 H 0.53781 0.0735 1.0215 0.0
H699 H 0.56031 0.1104 1.00329 0.0
H700 H 0.53712 0.12658 0.92187 0.0
C701 C 0.59328 0.20301 0.90246 0.0
C702 C 0.57097 0.17586 0.96681 0.0
C703 C 0.60371 0.22431 0.8907 0.0
C704 C 0.5301 0.08147 1.00522 0.0
C705 C 0.54287 0.10274 0.99487 0.0
C706 C 0.5463 0.14014 0.93486 0.0
C707 C 0.58216 0.20268 0.92762 0.0
C708 C 0.57018 0.17977 0.93965 0.0
C709 C 0.5334 0.11372 0.97362 0.0
C710 C 0.54678 0.13629 0.96203 0.0
H711 H 0.59225 0.2622 0.93961 0.0
H712 H 0.57365 0.2251 0.96 0.0
H713 H 0.55627 0.16374 0.90301 0.0
H714 H 0.48074 0.07406 0.96499 0.0
H715 H 0.50244 0.11086 0.94742 0.0
C716 C 0.86085 0.79908 0.39046 0.0
C717 C 0.86949 0.77787 0.39553 0.0
C718 C 0.87138 0.8203 0.40249 0.0
C719 C 0.91081 0.84506 0.45828 0.0
H720 H 0.91656 0.90266 0.41843 0.0
C721 C 0.94101 0.93741 0.50626 0.0
C722 C 0.95575 0.95492 0.49128 0.0
C723 C 0.93062 0.91579 0.49485 0.0
C724 C 0.91538 0.88678 0.42985 0.0
H725 H 0.89612 0.76256 0.41749 0.0
H726 H 0.91479 0.79964 0.43823 0.0
H727 H 0.89928 0.86527 0.39814 0.0
H728 H 0.97118 0.96308 0.45241 0.0
H729 H 0.95354 0.92544 0.43269 0.0
H730 H 0.92765 0.86655 0.48974 0.0
C731 C 0.89953 0.79981 0.42521 0.0
C732 C 0.90507 0.86524 0.41828 0.0
C733 C 0.88886 0.77849 0.41325 0.0
C734 C 0.95979 0.95017 0.46457 0.0
C735 C 0.94952 0.92852 0.45319 0.0
C736 C 0.92125 0.86661 0.46984 0.0
C737 C 0.89101 0.82109 0.41992 0.0
C738 C 0.9025 0.84403 0.43231 0.0
C739 C 0.93474 0.91096 0.46812 0.0
C740 C 0.92366 0.88785 0.45582 0.0
H741 H 0.84562 0.79925 0.37739 0.0
H742 H 0.86382 0.83608 0.39832 0.0
H743 H 0.90898 0.82923 0.46989 0.0
H744 H 0.93736 0.94039 0.52686 0.0
H745 H 0.91908 0.90298 0.50698 0.0
C746 C 0.3363 0.80109 0.53507 0.0
C747 C 0.35508 0.82089 0.53554 0.0
C748 C 0.34213 0.77835 0.53256 0.0
C749 C 0.39313 0.74537 0.5151 0.0
H750 H 0.36074 0.70016 0.56554 0.0
C751 C 0.4366 0.66775 0.55128 0.0
C752 C 0.42136 0.64602 0.55576 0.0
C753 C 0.42647 0.68746 0.5443 0.0
C754 C 0.36965 0.7124 0.551 0.0
H755 H 0.39469 0.83232 0.53324 0.0
H756 H 0.40481 0.79284 0.52886 0.0
H757 H 0.34637 0.73777 0.56077 0.0
H758 H 0.38358 0.62776 0.55606 0.0
H759 H 0.36581 0.66232 0.54381 0.0
H760 H 0.41698 0.72028 0.50604 0.0
C761 C 0.38555 0.79483 0.52999 0.0
C762 C 0.3614 0.73395 0.54823 0.0
C763 C 0.37974 0.8175 0.53251 0.0
C764 C 0.39578 0.64428 0.55262 0.0
C765 C 0.38561 0.66406 0.54579 0.0
C766 C 0.40142 0.72385 0.51792 0.0
C767 C 0.36686 0.77496 0.53045 0.0
C768 C 0.37343 0.75092 0.53071 0.0
C769 C 0.40085 0.6859 0.54175 0.0
C770 C 0.39015 0.70738 0.53635 0.0
H771 H 0.3171 0.80314 0.53698 0.0
H772 H 0.3273 0.76341 0.53263 0.0
H773 H 0.40249 0.7579 0.50109 0.0
H774 H 0.45641 0.66954 0.55324 0.0
H775 H 0.43867 0.7041 0.54162 0.0
C776 C 0.75631 0.82628 0.71115 0.0
C777 C 0.7592 0.81008 0.73073 0.0
C778 C 0.7714 0.82814 0.68869 0.0
C779 C 0.83443 0.82074 0.67242 0.0
H780 H 0.81967 0.84918 0.6075 0.0
C781 C 0.91133 0.8766 0.61289 0.0
C782 C 0.90585 0.89942 0.60994 0.0
C783 C 0.89246 0.85787 0.61904 0.0
C784 C 0.82408 0.84096 0.62537 0.0
H785 H 0.77851 0.78148 0.74081 0.0
H786 H 0.80439 0.78433 0.70129 0.0
H787 H 0.78604 0.82852 0.63464 0.0
H788 H 0.87661 0.92042 0.60887 0.0
H789 H 0.84378 0.88796 0.61948 0.0
H790 H 0.87227 0.83434 0.66401 0.0
C791 C 0.79083 0.79597 0.70358 0.0
C792 C 0.80483 0.8292 0.64094 0.0
C793 C 0.77579 0.79418 0.72613 0.0
C794 C 0.88121 0.90295 0.61128 0.0
C795 C 0.86241 0.88429 0.61707 0.0
C796 C 0.85364 0.83239 0.65681 0.0
C797 C 0.78966 0.81375 0.68525 0.0
C798 C 0.80972 0.82007 0.66534 0.0
C799 C 0.86789 0.86171 0.62191 0.0
C800 C 0.84856 0.84372 0.63385 0.0
H801 H 0.74336 0.83847 0.7139 0.0
H802 H 0.76998 0.84212 0.6751 0.0
H803 H 0.83896 0.81411 0.69114 0.0
H804 H 0.93026 0.87354 0.61187 0.0
H805 H 0.89719 0.84063 0.62259 0.0
C806 C 0.72138 0.20194 0.2958 0.0
C807 C 0.71623 0.22342 0.30628 0.0
C808 C 0.70764 0.19072 0.2752 0.0
C809 C 0.64779 0.1853 0.24368 0.0
H810 H 0.68185 0.15854 0.18625 0.0
C811 C 0.59643 0.13642 0.15531 0.0
C812 C 0.60496 0.11578 0.1467 0.0
C813 C 0.60976 0.15152 0.17364 0.0
C814 C 0.67202 0.16574 0.20224 0.0
H815 H 0.69255 0.24997 0.3031 0.0
H816 H 0.66825 0.23005 0.26731 0.0
H817 H 0.7056 0.18117 0.22051 0.0
H818 H 0.63361 0.09438 0.15126 0.0
H819 H 0.65661 0.12042 0.18315 0.0
H820 H 0.61417 0.16932 0.22574 0.0
C821 C 0.68295 0.22196 0.27519 0.0
C822 C 0.68565 0.17874 0.22182 0.0
C823 C 0.69684 0.23331 0.29571 0.0
C824 C 0.62687 0.11044 0.15698 0.0
C825 C 0.64008 0.12541 0.17528 0.0
C826 C 0.63411 0.17214 0.22412 0.0
C827 C 0.68829 0.20059 0.26468 0.0
C828 C 0.67369 0.18834 0.24296 0.0
C829 C 0.6318 0.14619 0.18377 0.0
C830 C 0.64609 0.16186 0.20341 0.0
H831 H 0.73577 0.19351 0.30382 0.0
H832 H 0.71189 0.17404 0.26782 0.0
H833 H 0.63809 0.19238 0.25986 0.0
H834 H 0.57964 0.14102 0.14766 0.0
H835 H 0.60296 0.16748 0.17965 0.0
C836 C 0.36774 0.62075 0.31643 0.0
C837 C 0.38217 0.63934 0.30268 0.0
C838 C 0.37696 0.61083 0.33835 0.0
C839 C 0.43571 0.60354 0.36939 0.0
H840 H 0.39372 0.58414 0.42979 0.0
C841 C 0.46489 0.54419 0.45032 0.0
C842 C 0.45931 0.54935 0.47661 0.0
C843 C 0.45553 0.55576 0.42969 0.0
C844 C 0.40579 0.58957 0.41318 0.0
H845 H 0.41776 0.66207 0.30165 0.0
H846 H 0.43375 0.64493 0.33992 0.0
H847 H 0.37747 0.60374 0.39346 0.0
H848 H 0.43927 0.57088 0.50154 0.0
H849 H 0.42293 0.59094 0.46565 0.0
H850 H 0.46405 0.58947 0.38912 0.0
C851 C 0.41529 0.6379 0.33362 0.0
C852 C 0.39637 0.60064 0.39217 0.0
C853 C 0.40599 0.64794 0.3118 0.0
C854 C 0.44395 0.56634 0.48162 0.0
C855 C 0.43446 0.57781 0.46096 0.0
C856 C 0.44506 0.59233 0.3903 0.0
C857 C 0.40097 0.61908 0.34714 0.0
C858 C 0.41117 0.60776 0.36991 0.0
C859 C 0.44018 0.57276 0.43466 0.0
C860 C 0.43024 0.5851 0.41251 0.0
H861 H 0.34924 0.61377 0.31021 0.0
H862 H 0.36541 0.59628 0.34805 0.0
H863 H 0.44764 0.60853 0.35255 0.0
H864 H 0.47662 0.53124 0.44557 0.0
H865 H 0.46012 0.55112 0.40976 0.0
C866 C 0.09623 0.41407 0.8067 0.0
C867 C 0.10878 0.39545 0.81296 0.0
C868 C 0.08521 0.42637 0.82642 0.0
C869 C 0.08558 0.43831 0.89869 0.0
H870 H 0.02321 0.45879 0.88572 0.0
C871 C 0.0298 0.47954 0.98064 0.0
C872 C 0.0189 0.49894 0.97353 0.0
C873 C 0.04047 0.46631 0.96148 0.0
C874 C 0.04074 0.4534 0.88964 0.0
H875 H 0.1199 0.37574 0.84533 0.0
H876 H 0.10022 0.39661 0.87937 0.0
H877 H 0.0424 0.4374 0.85162 0.0
H878 H 0.01084 0.5198 0.94079 0.0
H879 H 0.02934 0.49694 0.90754 0.0
H880 H 0.0838 0.45427 0.93679 0.0
C881 C 0.09906 0.40193 0.85924 0.0
C882 C 0.05182 0.44114 0.86999 0.0
C883 C 0.1101 0.38967 0.83956 0.0
C884 C 0.01894 0.50484 0.94691 0.0
C885 C 0.02943 0.49161 0.92779 0.0
C886 C 0.07444 0.45051 0.91839 0.0
C887 C 0.0864 0.42047 0.85301 0.0
C888 C 0.07448 0.43348 0.87413 0.0
C889 C 0.04039 0.47215 0.93474 0.0
C890 C 0.05191 0.45835 0.91411 0.0
H891 H 0.09461 0.41899 0.7865 0.0
H892 H 0.07594 0.44072 0.82077 0.0
H893 H 0.10319 0.43307 0.90259 0.0
H894 H 0.0305 0.47486 1.001 0.0
H895 H 0.04865 0.45141 0.9676 0.0
C896 C 0.62176 0.84084 0.9052 0.0
C897 C 0.63531 0.84848 0.88236 0.0
C898 C 0.60522 0.85431 0.91651 0.0
C899 C 0.57124 0.90386 0.90548 0.0
H900 H 0.58155 0.91605 0.97968 0.0
C901 C 0.51436 0.96037 0.97055 0.0
C902 C 0.52789 0.97612 0.98833 0.0
C903 C 0.52585 0.94429 0.95597 0.0
C904 C 0.57852 0.91286 0.95895 0.0
H905 H 0.64116 0.87583 0.85291 0.0
H906 H 0.61213 0.89904 0.87244 0.0
H907 H 0.60284 0.8874 0.95702 0.0
H908 H 0.56432 0.98785 1.00398 0.0
H909 H 0.58425 0.95984 0.97858 0.0
H910 H 0.54722 0.92978 0.90746 0.0
C911 C 0.61419 0.88257 0.88151 0.0
C912 C 0.59045 0.89622 0.94604 0.0
C913 C 0.63081 0.86918 0.87027 0.0
C914 C 0.5533 0.97595 0.99055 0.0
C915 C 0.56471 0.95978 0.97614 0.0
C916 C 0.55911 0.92041 0.91848 0.0
C917 C 0.60178 0.87565 0.90517 0.0
C918 C 0.58718 0.89173 0.91911 0.0
C919 C 0.55103 0.94351 0.95905 0.0
C920 C 0.56294 0.92532 0.94527 0.0
H921 H 0.62446 0.82477 0.91476 0.0
H922 H 0.59559 0.84835 0.93454 0.0
H923 H 0.5683 0.90067 0.88473 0.0
H924 H 0.49476 0.96008 0.96827 0.0
H925 H 0.51485 0.93193 0.94297 0.0
C926 C 0.85091 0.19905 0.46145 0.0
C927 C 0.83992 0.1958 0.43679 0.0
C928 C 0.86462 0.18262 0.47082 0.0
C929 C 0.87312 0.12053 0.46199 0.0
H930 H 0.93197 0.14064 0.50236 0.0
C931 C 0.93559 0.05569 0.49636 0.0
C932 C 0.94303 0.0583 0.52251 0.0
C933 C 0.92389 0.0727 0.48489 0.0
C934 C 0.91548 0.13478 0.49126 0.0
H935 H 0.83529 0.17322 0.40226 0.0
H936 H 0.8595 0.14464 0.41846 0.0
H937 H 0.91029 0.17016 0.48378 0.0
H938 H 0.94428 0.0806 0.55721 0.0
H939 H 0.92375 0.11035 0.53722 0.0
H940 H 0.87838 0.08515 0.46947 0.0
C941 C 0.85709 0.15962 0.43081 0.0
C942 C 0.90303 0.15166 0.48065 0.0
C943 C 0.84327 0.17599 0.4215 0.0
C944 C 0.93867 0.07819 0.53701 0.0
C945 C 0.92711 0.09527 0.52551 0.0
C946 C 0.88564 0.10366 0.47248 0.0
C947 C 0.86776 0.16263 0.45567 0.0
C948 C 0.88159 0.14474 0.46607 0.0
C949 C 0.91955 0.09268 0.49936 0.0
C950 C 0.90683 0.11061 0.48739 0.0
H951 H 0.84836 0.21398 0.47381 0.0
H952 H 0.87225 0.18529 0.49022 0.0
H953 H 0.85645 0.11457 0.45122 0.0
H954 H 0.93877 0.04047 0.48479 0.0
H955 H 0.91844 0.07035 0.46463 0.0
C956 C 0.23601 0.61495 0.16605 0.0
C957 C 0.2455 0.63872 0.16085 0.0
C958 C 0.2138 0.60398 0.15508 0.0
C959 C 0.17034 0.61054 0.10117 0.0
H960 H 0.12642 0.56275 0.13969 0.0
C961 C 0.0714 0.57279 0.0668 0.0
C962 C 0.06326 0.54836 0.06928 0.0
C963 C 0.0938 0.58356 0.0775 0.0
C964 C 0.13859 0.57589 0.12853 0.0
H965 H 0.23849 0.66973 0.14053 0.0
H966 H 0.19961 0.65087 0.1219 0.0
H967 H 0.16436 0.58224 0.15972 0.0
H968 H 0.07276 0.51618 0.08494 0.0
H969 H 0.11169 0.53499 0.10366 0.0
H970 H 0.14426 0.60438 0.07016 0.0
C971 C 0.20962 0.64041 0.1339 0.0
C972 C 0.16045 0.58709 0.14002 0.0
C973 C 0.23193 0.65132 0.14471 0.0
C974 C 0.07832 0.535 0.0826 0.0
C975 C 0.10062 0.54583 0.09352 0.0
C976 C 0.14838 0.59947 0.08978 0.0
C977 C 0.20027 0.61649 0.13871 0.0
C978 C 0.17673 0.6046 0.12653 0.0
C979 C 0.10864 0.57028 0.09121 0.0
C980 C 0.1322 0.58196 0.10328 0.0
H981 H 0.24611 0.60457 0.17804 0.0
H982 H 0.20758 0.58547 0.15898 0.0
H983 H 0.1825 0.62353 0.08983 0.0
H984 H 0.06039 0.58371 0.05671 0.0
H985 H 0.09924 0.60245 0.07551 0.0
C986 C 0.26703 0.41636 0.68481 0.0
C987 C 0.24808 0.40117 0.67208 0.0
C988 C 0.28789 0.42738 0.67085 0.0
C989 C 0.32334 0.42198 0.60867 0.0
H990 H 0.35614 0.4848 0.62737 0.0
C991 C 0.40513 0.47054 0.54701 0.0
C992 C 0.42544 0.48252 0.56068 0.0
C993 C 0.38304 0.46177 0.56026 0.0
C994 C 0.34733 0.46717 0.62203 0.0
H995 H 0.23632 0.38619 0.63427 0.0
H996 H 0.27218 0.40593 0.60988 0.0
H997 H 0.31831 0.46773 0.65061 0.0
H998 H 0.4383 0.4952 0.59893 0.0
H999 H 0.39966 0.47994 0.62214 0.0
H1000 H 0.35231 0.42146 0.58006 0.0
C1001 C 0.27117 0.40897 0.63082 0.0
C1002 C 0.3256 0.45732 0.6354 0.0
C1003 C 0.25034 0.39787 0.64481 0.0
C1004 C 0.42296 0.48605 0.58785 0.0
C1005 C 0.40078 0.47738 0.60112 0.0
C1006 C 0.34497 0.43186 0.59524 0.0
C1007 C 0.29043 0.42367 0.64368 0.0
C1008 C 0.31329 0.43454 0.62898 0.0
C1009 C 0.3806 0.46486 0.58754 0.0
C1010 C 0.35732 0.45457 0.60176 0.0
H1011 H 0.26587 0.41966 0.7057 0.0
H1012 H 0.30232 0.43838 0.68157 0.0
H1013 H 0.31478 0.40424 0.60345 0.0
H1014 H 0.40641 0.46763 0.52605 0.0
H1015 H 0.36781 0.45257 0.54909 0.0
C1016 C 0.76372 0.72115 0.90556 0.0
C1017 C 0.77467 0.73672 0.88609 0.0
C1018 C 0.77555 0.70285 0.91394 0.0
C1019 C 0.82665 0.66967 0.8964 0.0
H1020 H 0.8295 0.66185 0.97152 0.0
C1021 C 0.90449 0.6322 0.94655 0.0
C1022 C 0.89821 0.6169 0.96771 0.0
C1023 C 0.88657 0.6431 0.93495 0.0
C1024 C 0.82856 0.66353 0.95047 0.0
H1025 H 0.8059 0.74448 0.85913 0.0
H1026 H 0.82679 0.71325 0.87421 0.0
H1027 H 0.80272 0.68751 0.9541 0.0
H1028 H 0.86823 0.60072 0.99309 0.0
H1029 H 0.8369 0.61987 0.97282 0.0
H1030 H 0.85336 0.64643 0.89295 0.0
C1031 C 0.809 0.7149 0.88291 0.0
C1032 C 0.81316 0.67819 0.94046 0.0
C1033 C 0.79719 0.73307 0.87453 0.0
C1034 C 0.87356 0.61231 0.97668 0.0
C1035 C 0.85568 0.62339 0.96523 0.0
C1036 C 0.8422 0.65516 0.90643 0.0
C1037 C 0.79853 0.69974 0.90296 0.0
C1038 C 0.81243 0.68185 0.91333 0.0
C1039 C 0.86206 0.63907 0.94443 0.0
C1040 C 0.84367 0.65233 0.93359 0.0
H1041 H 0.74638 0.72351 0.91486 0.0
H1042 H 0.76683 0.69131 0.92921 0.0
H1043 H 0.82615 0.6717 0.87537 0.0
H1044 H 0.92332 0.63591 0.93913 0.0
H1045 H 0.89208 0.65528 0.9191 0.0
C1046 C 0.41264 0.78956 0.17016 0.0
C1047 C 0.38773 0.7792 0.1676 0.0
C1048 C 0.42153 0.81197 0.16009 0.0
C1049 C 0.40642 0.85681 0.11292 0.0
H1050 H 0.4608 0.89635 0.14706 0.0
C1051 C 0.44841 0.95342 0.0806 0.0
C1052 C 0.47434 0.9579 0.07878 0.0
C1053 C 0.43603 0.93219 0.09141 0.0
C1054 C 0.44565 0.88551 0.13721 0.0
H1055 H 0.35267 0.78503 0.15241 0.0
H1056 H 0.36791 0.82441 0.13589 0.0
H1057 H 0.44251 0.85909 0.16667 0.0
H1058 H 0.50746 0.9434 0.08658 0.0
H1059 H 0.48608 0.90698 0.10567 0.0
H1060 H 0.40954 0.88378 0.08367 0.0
C1061 C 0.38078 0.81492 0.14519 0.0
C1062 C 0.43519 0.86396 0.14839 0.0
C1063 C 0.3719 0.79234 0.1551 0.0
C1064 C 0.48749 0.94064 0.08776 0.0
C1065 C 0.47523 0.91975 0.09885 0.0
C1066 C 0.41672 0.8786 0.1019 0.0
C1067 C 0.40581 0.82507 0.14736 0.0
C1068 C 0.41571 0.84896 0.13621 0.0
C1069 C 0.44937 0.91525 0.10103 0.0
C1070 C 0.43678 0.89302 0.11367 0.0
H1071 H 0.42545 0.78035 0.17998 0.0
H1072 H 0.44098 0.81878 0.16192 0.0
H1073 H 0.39166 0.84582 0.10267 0.0
H1074 H 0.43775 0.96635 0.07385 0.0
H1075 H 0.41608 0.92928 0.09282 0.0
C1076 C 0.10926 0.25753 0.63967 0.0
C1077 C 0.10785 0.25959 0.66713 0.0
C1078 C 0.09867 0.23668 0.6268 0.0
C1079 C 0.05421 0.18048 0.63717 0.0
H1080 H 0.08676 0.15977 0.57499 0.0
C1081 C 0.02753 0.08669 0.59203 0.0
C1082 C 0.0253 0.08499 0.56463 0.0
C1083 C 0.03739 0.10812 0.60416 0.0
C1084 C 0.07732 0.1654 0.59221 0.0
H1085 H 0.09443 0.24103 0.70256 0.0
H1086 H 0.07651 0.20468 0.68037 0.0
H1087 H 0.10408 0.19665 0.59674 0.0
H1088 H 0.03215 0.10462 0.52851 0.0
H1089 H 0.04962 0.14188 0.54967 0.0
H1090 H 0.02778 0.14886 0.63286 0.0
C1091 C 0.08515 0.21934 0.66855 0.0
C1092 C 0.0872 0.18666 0.60469 0.0
C1093 C 0.09551 0.24026 0.68137 0.0
C1094 C 0.03352 0.10524 0.54966 0.0
C1095 C 0.04367 0.12661 0.56177 0.0
C1096 C 0.0445 0.15911 0.62485 0.0
C1097 C 0.08659 0.21716 0.64104 0.0
C1098 C 0.07583 0.19457 0.62741 0.0
C1099 C 0.04558 0.12838 0.5892 0.0
C1100 C 0.05592 0.15125 0.60222 0.0
H1101 H 0.11841 0.27215 0.62806 0.0
H1102 H 0.09983 0.236 0.60562 0.0
H1103 H 0.04453 0.18605 0.65423 0.0
H1104 H 0.02138 0.07151 0.60422 0.0
H1105 H 0.03882 0.10877 0.62529 0.0
C1106 C 0.70599 0.29108 0.51065 0.0
C1107 C 0.70072 0.27827 0.48724 0.0
C1108 C 0.68708 0.29887 0.52538 0.0
C1109 C 0.61837 0.29681 0.52874 0.0
H1110 H 0.63699 0.36341 0.5448 0.0
C1111 C 0.55744 0.36643 0.51237 0.0
C1112 C 0.55883 0.38611 0.52931 0.0
C1113 C 0.57167 0.3489 0.51666 0.0
C1114 C 0.63147 0.3447 0.54109 0.0
H1115 H 0.67148 0.26235 0.4617 0.0
H1116 H 0.63872 0.27639 0.48674 0.0
H1117 H 0.66879 0.33967 0.53557 0.0
H1118 H 0.57477 0.40171 0.56533 0.0
H1119 H 0.6003 0.37137 0.57227 0.0
H1120 H 0.58087 0.30261 0.53222 0.0
C1121 C 0.65722 0.28003 0.4943 0.0
C1122 C 0.64976 0.33098 0.53583 0.0
C1123 C 0.67607 0.27202 0.47979 0.0
C1124 C 0.57371 0.38709 0.55153 0.0
C1125 C 0.58817 0.36965 0.55566 0.0
C1126 C 0.60005 0.31064 0.53369 0.0
C1127 C 0.66259 0.29431 0.51675 0.0
C1128 C 0.64344 0.30709 0.52846 0.0
C1129 C 0.58778 0.35074 0.53785 0.0
C1130 C 0.60647 0.33492 0.53886 0.0
H1131 H 0.72484 0.29583 0.51702 0.0
H1132 H 0.69182 0.30936 0.54289 0.0
H1133 H 0.61284 0.27834 0.52379 0.0
H1134 H 0.54645 0.36517 0.4949 0.0
H1135 H 0.57126 0.33471 0.50238 0.0
loop_
_geom_bond_atom_site_label_1
_geom_bond_atom_site_label_2
_geom_bond_distance
_geom_bond_site_symmetry_2
_ccdc_geom_bond_type
P0 O11 1.490 . S
P0 C14 1.812 . S
P0 C20 1.803 . S
P0 C26 1.819 . S
H1 C15 0.941 . S
H2 C16 0.939 . S
H3 C18 0.940 . S
H4 C19 0.940 . S
H5 C21 0.939 . S
H6 C22 0.942 . S
H7 C24 0.940 . S
H8 C25 0.939 . S
H9 C27 0.941 . S
H10 C31 0.939 . S
O11 P0 1.490 . S
H12 C28 0.939 . S
H13 C30 0.940 . S
C14 P0 1.812 . S
C14 C15 1.389 . S
C14 C19 1.391 . S
C15 H1 0.941 . S
C15 C14 1.389 . S
C15 C16 1.397 . S
C16 H2 0.939 . S
C16 C15 1.397 . S
C16 C17 1.378 . S
C17 C16 1.378 . S
C17 C18 1.378 . S
C18 H3 0.940 . S
C18 C17 1.378 . S
C18 C19 1.396 . S
C19 H4 0.940 . S
C19 C14 1.391 . S
C19 C18 1.396 . S
C20 P0 1.803 . S
C20 C21 1.378 . S
C20 C25 1.400 . S
C21 H5 0.939 . S
C21 C20 1.378 . S
C21 C22 1.361 . S
C22 H6 0.942 . S
C22 C21 1.361 . S
C22 C23 1.369 . S
C23 C22 1.369 . S
C23 C24 1.404 . S
C24 H7 0.940 . S
C24 C23 1.404 . S
C24 C25 1.389 . S
C25 H8 0.939 . S
C25 C20 1.400 . S
C25 C24 1.389 . S
C26 P0 1.819 . S
C26 C27 1.391 . S
C26 C31 1.391 . S
C27 H9 0.941 . S
C27 C26 1.391 . S
C27 C28 1.396 . S
C28 H12 0.939 . S
C28 C27 1.396 . S
C28 C29 1.397 . S
C29 C28 1.397 . S
C29 C30 1.385 . S
C30 H13 0.940 . S
C30 C29 1.385 . S
C30 C31 1.388 . S
C31 H10 0.939 . S
C31 C26 1.391 . S
C31 C30 1.388 . S
P32 O43 1.490 . S
P32 C46 1.812 . S
P32 C52 1.803 . S
P32 C58 1.819 . S
H33 C47 0.941 . S
H34 C48 0.939 . S
H35 C50 0.940 . S
H36 C51 0.940 . S
H37 C53 0.939 . S
H38 C54 0.942 . S
H39 C56 0.940 . S
H40 C57 0.939 . S
H41 C59 0.941 . S
H42 C63 0.939 . S
O43 P32 1.490 . S
H44 C60 0.939 . S
H45 C62 0.940 . S
C46 P32 1.812 . S
C46 C47 1.389 . S
C46 C51 1.391 . S
C47 H33 0.941 . S
C47 C46 1.389 . S
C47 C48 1.397 . S
C48 H34 0.939 . S
C48 C47 1.397 . S
C48 C49 1.378 . S
C49 C48 1.378 . S
C49 C50 1.378 . S
C50 H35 0.940 . S
C50 C49 1.378 . S
C50 C51 1.396 . S
C51 H36 0.940 . S
C51 C46 1.391 . S
C51 C50 1.396 . S
C52 P32 1.803 . S
C52 C53 1.378 . S
C52 C57 1.400 . S
C53 H37 0.939 . S
C53 C52 1.378 . S
C53 C54 1.361 . S
C54 H38 0.942 . S
C54 C53 1.361 . S
C54 C55 1.369 . S
C55 C54 1.369 . S
C55 C56 1.404 . S
C56 H39 0.940 . S
C56 C55 1.404 . S
C56 C57 1.389 . S
C57 H40 0.939 . S
C57 C52 1.400 . S
C57 C56 1.389 . S
C58 P32 1.819 . S
C58 C59 1.391 . S
C58 C63 1.391 . S
C59 H41 0.941 . S
C59 C58 1.391 . S
C59 C60 1.396 . S
C60 H44 0.939 . S
C60 C59 1.396 . S
C60 C61 1.397 . S
C61 C60 1.397 . S
C61 C62 1.385 . S
C62 H45 0.940 . S
C62 C61 1.385 . S
C62 C63 1.388 . S
C63 H42 0.939 . S
C63 C58 1.391 . S
C63 C62 1.388 . S
P64 O75 1.490 . S
P64 C78 1.812 . S
P64 C84 1.803 . S
P64 C90 1.819 . S
H65 C79 0.941 . S
H66 C80 0.939 . S
H67 C82 0.940 . S
H68 C83 0.940 . S
H69 C85 0.939 . S
H70 C86 0.942 . S
H71 C88 0.940 . S
H72 C89 0.939 . S
H73 C91 0.941 . S
H74 C95 0.939 . S
O75 P64 1.490 . S
H76 C92 0.939 . S
H77 C94 0.940 . S
C78 P64 1.812 . S
C78 C79 1.389 . S
C78 C83 1.391 . S
C79 H65 0.941 . S
C79 C78 1.389 . S
C79 C80 1.397 . S
C80 H66 0.939 . S
C80 C79 1.397 . S
C80 C81 1.378 . S
C81 C80 1.378 . S
C81 C82 1.378 . S
C82 H67 0.940 . S
C82 C81 1.378 . S
C82 C83 1.396 . S
C83 H68 0.940 . S
C83 C78 1.391 . S
C83 C82 1.396 . S
C84 P64 1.803 . S
C84 C85 1.378 . S
C84 C89 1.400 . S
C85 H69 0.939 . S
C85 C84 1.378 . S
C85 C86 1.361 . S
C86 H70 0.942 . S
C86 C85 1.361 . S
C86 C87 1.369 . S
C87 C86 1.369 . S
C87 C88 1.404 . S
C88 H71 0.940 . S
C88 C87 1.404 . S
C88 C89 1.389 . S
C89 H72 0.939 . S
C89 C84 1.400 . S
C89 C88 1.389 . S
C90 P64 1.819 . S
C90 C91 1.391 . S
C90 C95 1.391 . S
C91 H73 0.941 . S
C91 C90 1.391 . S
C91 C92 1.396 . S
C92 H76 0.939 . S
C92 C91 1.396 . S
C92 C93 1.397 . S
C93 C92 1.397 . S
C93 C94 1.385 . S
C94 H77 0.940 . S
C94 C93 1.385 . S
C94 C95 1.388 . S
C95 H74 0.939 . S
C95 C90 1.391 . S
C95 C94 1.388 . S
P96 O107 1.490 . S
P96 C110 1.812 . S
P96 C116 1.803 . S
P96 C122 1.819 . S
H97 C111 0.941 . S
H98 C112 0.939 . S
H99 C114 0.940 . S
H100 C115 0.940 . S
H101 C117 0.939 . S
H102 C118 0.942 . S
H103 C120 0.940 . S
H104 C121 0.939 . S
H105 C123 0.941 . S
H106 C127 0.939 . S
O107 P96 1.490 . S
H108 C124 0.939 . S
H109 C126 0.940 . S
C110 P96 1.812 . S
C110 C111 1.389 . S
C110 C115 1.391 . S
C111 H97 0.941 . S
C111 C110 1.389 . S
C111 C112 1.397 . S
C112 H98 0.939 . S
C112 C111 1.397 . S
C112 C113 1.378 . S
C113 C112 1.378 . S
C113 C114 1.378 . S
C114 H99 0.940 . S
C114 C113 1.378 . S
C114 C115 1.396 . S
C115 H100 0.940 . S
C115 C110 1.391 . S
C115 C114 1.396 . S
C116 P96 1.803 . S
C116 C117 1.378 . S
C116 C121 1.400 . S
C117 H101 0.939 . S
C117 C116 1.378 . S
C117 C118 1.361 . S
C118 H102 0.942 . S
C118 C117 1.361 . S
C118 C119 1.369 . S
C119 C118 1.369 . S
C119 C120 1.404 . S
C120 H103 0.940 . S
C120 C119 1.404 . S
C120 C121 1.389 . S
C121 H104 0.939 . S
C121 C116 1.400 . S
C121 C120 1.389 . S
C122 P96 1.819 . S
C122 C123 1.391 . S
C122 C127 1.391 . S
C123 H105 0.941 . S
C123 C122 1.391 . S
C123 C124 1.396 . S
C124 H108 0.939 . S
C124 C123 1.396 . S
C124 C125 1.397 . S
C125 C124 1.397 . S
C125 C126 1.385 . S
C126 H109 0.940 . S
C126 C125 1.385 . S
C126 C127 1.388 . S
C127 H106 0.939 . S
C127 C122 1.391 . S
C127 C126 1.388 . S
P128 O139 1.490 . S
P128 C142 1.812 . S
P128 C148 1.803 . S
P128 C154 1.819 . S
H129 C143 0.941 . S
H130 C144 0.939 . S
H131 C146 0.940 . S
H132 C147 0.940 . S
H133 C149 0.939 . S
H134 C150 0.942 . S
H135 C152 0.940 . S
H136 C153 0.939 . S
H137 C155 0.941 . S
H138 C159 0.939 . S
O139 P128 1.490 . S
H140 C156 0.939 . S
H141 C158 0.940 . S
C142 P128 1.812 . S
C142 C143 1.389 . S
C142 C147 1.391 . S
C143 H129 0.941 . S
C143 C142 1.389 . S
C143 C144 1.397 . S
C144 H130 0.939 . S
C144 C143 1.397 . S
C144 C145 1.378 . S
C145 C144 1.378 . S
C145 C146 1.378 . S
C146 H131 0.940 . S
C146 C145 1.378 . S
C146 C147 1.396 . S
C147 H132 0.940 . S
C147 C142 1.391 . S
C147 C146 1.396 . S
C148 P128 1.803 . S
C148 C149 1.378 . S
C148 C153 1.400 . S
C149 H133 0.939 . S
C149 C148 1.378 . S
C149 C150 1.361 . S
C150 H134 0.942 . S
C150 C149 1.361 . S
C150 C151 1.369 . S
C151 C150 1.369 . S
C151 C152 1.404 . S
C152 H135 0.940 . S
C152 C151 1.404 . S
C152 C153 1.389 . S
C153 H136 0.939 . S
C153 C148 1.400 . S
C153 C152 1.389 . S
C154 P128 1.819 . S
C154 C155 1.391 . S
C154 C159 1.391 . S
C155 H137 0.941 . S
C155 C154 1.391 . S
C155 C156 1.396 . S
C156 H140 0.939 . S
C156 C155 1.396 . S
C156 C157 1.397 . S
C157 C156 1.397 . S
C157 C158 1.385 . S
C158 H141 0.940 . S
C158 C157 1.385 . S
C158 C159 1.388 . S
C159 H138 0.939 . S
C159 C154 1.391 . S
C159 C158 1.388 . S
P160 O171 1.490 . S
P160 C174 1.812 . S
P160 C180 1.803 . S
P160 C186 1.819 . S
H161 C175 0.941 . S
H162 C176 0.939 . S
H163 C178 0.940 . S
H164 C179 0.940 . S
H165 C181 0.939 . S
H166 C182 0.942 . S
H167 C184 0.940 . S
H168 C185 0.939 . S
H169 C187 0.941 . S
H170 C191 0.939 . S
O171 P160 1.490 . S
H172 C188 0.939 . S
H173 C190 0.940 . S
C174 P160 1.812 . S
C174 C175 1.389 . S
C174 C179 1.391 . S
C175 H161 0.941 . S
C175 C174 1.389 . S
C175 C176 1.397 . S
C176 H162 0.939 . S
C176 C175 1.397 . S
C176 C177 1.378 . S
C177 C176 1.378 . S
C177 C178 1.378 . S
C178 H163 0.940 . S
C178 C177 1.378 . S
C178 C179 1.396 . S
C179 H164 0.940 . S
C179 C174 1.391 . S
C179 C178 1.396 . S
C180 P160 1.803 . S
C180 C181 1.378 . S
C180 C185 1.400 . S
C181 H165 0.939 . S
C181 C180 1.378 . S
C181 C182 1.361 . S
C182 H166 0.942 . S
C182 C181 1.361 . S
C182 C183 1.369 . S
C183 C182 1.369 . S
C183 C184 1.404 . S
C184 H167 0.940 . S
C184 C183 1.404 . S
C184 C185 1.389 . S
C185 H168 0.939 . S
C185 C180 1.400 . S
C185 C184 1.389 . S
C186 P160 1.819 . S
C186 C187 1.391 . S
C186 C191 1.391 . S
C187 H169 0.941 . S
C187 C186 1.391 . S
C187 C188 1.396 . S
C188 H172 0.939 . S
C188 C187 1.396 . S
C188 C189 1.397 . S
C189 C188 1.397 . S
C189 C190 1.385 . S
C190 H173 0.940 . S
C190 C189 1.385 . S
C190 C191 1.388 . S
C191 H170 0.939 . S
C191 C186 1.391 . S
C191 C190 1.388 . S
P192 O203 1.490 . S
P192 C206 1.812 . S
P192 C212 1.803 . S
P192 C218 1.819 . S
H193 C207 0.941 . S
H194 C208 0.939 . S
H195 C210 0.940 . S
H196 C211 0.940 . S
H197 C213 0.939 . S
H198 C214 0.942 . S
H199 C216 0.940 . S
H200 C217 0.939 . S
H201 C219 0.941 . S
H202 C223 0.939 . S
O203 P192 1.490 . S
H204 C220 0.939 . S
H205 C222 0.940 . S
C206 P192 1.812 . S
C206 C207 1.389 . S
C206 C211 1.391 . S
C207 H193 0.941 . S
C207 C206 1.389 . S
C207 C208 1.397 . S
C208 H194 0.939 . S
C208 C207 1.397 . S
C208 C209 1.378 . S
C209 C208 1.378 . S
C209 C210 1.378 . S
C210 H195 0.940 . S
C210 C209 1.378 . S
C210 C211 1.396 . S
C211 H196 0.940 . S
C211 C206 1.391 . S
C211 C210 1.396 . S
C212 P192 1.803 . S
C212 C213 1.378 . S
C212 C217 1.400 . S
C213 H197 0.939 . S
C213 C212 1.378 . S
C213 C214 1.361 . S
C214 H198 0.942 . S
C214 C213 1.361 . S
C214 C215 1.369 . S
C215 C214 1.369 . S
C215 C216 1.404 . S
C216 H199 0.940 . S
C216 C215 1.404 . S
C216 C217 1.389 . S
C217 H200 0.939 . S
C217 C212 1.400 . S
C217 C216 1.389 . S
C218 P192 1.819 . S
C218 C219 1.391 . S
C218 C223 1.391 . S
C219 H201 0.941 . S
C219 C218 1.391 . S
C219 C220 1.396 . S
C220 H204 0.939 . S
C220 C219 1.396 . S
C220 C221 1.397 . S
C221 C220 1.397 . S
C221 C222 1.385 . S
C222 H205 0.940 . S
C222 C221 1.385 . S
C222 C223 1.388 . S
C223 H202 0.939 . S
C223 C218 1.391 . S
C223 C222 1.388 . S
P224 O235 1.490 . S
P224 C238 1.812 . S
P224 C244 1.803 . S
P224 C250 1.819 . S
H225 C239 0.941 . S
H226 C240 0.939 . S
H227 C242 0.940 . S
H228 C243 0.940 . S
H229 C245 0.939 . S
H230 C246 0.942 . S
H231 C248 0.940 . S
H232 C249 0.939 . S
H233 C251 0.941 . S
H234 C255 0.939 . S
O235 P224 1.490 . S
H236 C252 0.939 . S
H237 C254 0.940 . S
C238 P224 1.812 . S
C238 C239 1.389 . S
C238 C243 1.391 . S
C239 H225 0.941 . S
C239 C238 1.389 . S
C239 C240 1.397 . S
C240 H226 0.939 . S
C240 C239 1.397 . S
C240 C241 1.378 . S
C241 C240 1.378 . S
C241 C242 1.378 . S
C242 H227 0.940 . S
C242 C241 1.378 . S
C242 C243 1.396 . S
C243 H228 0.940 . S
C243 C238 1.391 . S
C243 C242 1.396 . S
C244 P224 1.803 . S
C244 C245 1.378 . S
C244 C249 1.400 . S
C245 H229 0.939 . S
C245 C244 1.378 . S
C245 C246 1.361 . S
C246 H230 0.942 . S
C246 C245 1.361 . S
C246 C247 1.369 . S
C247 C246 1.369 . S
C247 C248 1.404 . S
C248 H231 0.940 . S
C248 C247 1.404 . S
C248 C249 1.389 . S
C249 H232 0.939 . S
C249 C244 1.400 . S
C249 C248 1.389 . S
C250 P224 1.819 . S
C250 C251 1.391 . S
C250 C255 1.391 . S
C251 H233 0.941 . S
C251 C250 1.391 . S
C251 C252 1.396 . S
C252 H236 0.939 . S
C252 C251 1.396 . S
C252 C253 1.397 . S
C253 C252 1.397 . S
C253 C254 1.385 . S
C254 H237 0.940 . S
C254 C253 1.385 . S
C254 C255 1.388 . S
C255 H234 0.939 . S
C255 C250 1.391 . S
C255 C254 1.388 . S
Ho256 C259 2.811 . S
Ho256 O276 2.322 . S
Ho256 O278 2.378 . S
Ho256 O279 2.524 . S
Ho256 O280 2.381 1_545 S
Ho256 O281 2.669 1_545 S
Ho256 O283 2.346 1_445 S
Ho256 O287 2.305 1_455 S
Ho257 C268 2.793 1_545 S
Ho257 O277 2.366 1_655 S
Ho257 O281 2.295 1_645 S
Ho257 O282 2.307 1_545 S
Ho257 O284 2.368 1_545 S
Ho257 O285 2.501 1_545 S
Ho257 O286 2.395 . S
Ho257 O287 2.681 . S
C258 O276 1.259 . S
C258 O277 1.268 . S
C259 Ho256 2.811 . S
C259 C260 1.488 . S
C259 O278 1.215 . S
C259 O279 1.289 . S
C260 C259 1.488 . S
C260 C261 1.348 . S
C260 C265 1.413 . S
C261 C260 1.348 . S
C261 C262 1.442 . S
C261 H288 0.930 . S
C262 C261 1.442 . S
C262 C263 1.381 . S
C262 H289 0.931 . S
C263 C262 1.381 . S
C263 C264 1.321 . S
C264 C263 1.321 . S
C264 C265 1.403 . S
C264 H290 0.934 . S
C265 C260 1.413 . S
C265 C264 1.403 . S
C265 H291 0.930 . S
C266 O280 1.275 . S
C266 O281 1.256 . S
C267 O282 1.259 . S
C267 O283 1.268 . S
C268 Ho257 2.793 1_565 S
C268 C269 1.488 . S
C268 O284 1.215 . S
C268 O285 1.289 . S
C269 C268 1.488 . S
C269 C270 1.348 . S
C269 C274 1.413 . S
C270 C269 1.348 . S
C270 C271 1.442 . S
C270 H292 0.930 . S
C271 C270 1.442 . S
C271 C272 1.381 . S
C271 H293 0.931 . S
C272 C271 1.381 . S
C272 C273 1.321 . S
C273 C272 1.321 . S
C273 C274 1.403 . S
C273 H294 0.934 . S
C274 C269 1.413 . S
C274 C273 1.403 . S
C274 H295 0.930 . S
C275 O286 1.275 . S
C275 O287 1.256 . S
O276 Ho256 2.322 . S
O276 C258 1.259 . S
O277 Ho257 2.366 1_455 S
O277 C258 1.268 . S
O278 Ho256 2.378 . S
O278 C259 1.215 . S
O279 Ho256 2.524 . S
O279 C259 1.289 . S
O280 Ho256 2.381 1_565 S
O280 C266 1.275 . S
O281 Ho256 2.669 1_565 S
O281 Ho257 2.295 1_465 S
O281 C266 1.256 . S
O282 Ho257 2.307 1_565 S
O282 C267 1.259 . S
O283 Ho256 2.346 1_665 S
O283 C267 1.268 . S
O284 Ho257 2.368 1_565 S
O284 C268 1.215 . S
O285 Ho257 2.501 1_565 S
O285 C268 1.289 . S
O286 Ho257 2.395 . S
O286 C275 1.275 . S
O287 Ho256 2.305 1_655 S
O287 Ho257 2.681 . S
O287 C275 1.256 . S
H288 C261 0.930 . S
H289 C262 0.931 . S
H290 C264 0.934 . S
H291 C265 0.930 . S
H292 C270 0.930 . S
H293 C271 0.931 . S
H294 C273 0.934 . S
H295 C274 0.930 . S
Ho296 C299 2.811 . S
Ho296 O316 2.322 . S
Ho296 O318 2.378 . S
Ho296 O319 2.524 . S
Ho296 O320 2.381 1_545 S
Ho296 O321 2.669 1_545 S
Ho296 O323 2.346 1_544 S
Ho296 O327 2.305 . S
Ho297 C308 2.811 1_545 S
Ho297 O317 2.346 1_556 S
Ho297 O321 2.305 1_546 S
Ho297 O322 2.322 1_545 S
Ho297 O324 2.378 . S
Ho297 O325 2.524 1_545 S
Ho297 O326 2.381 . S
Ho297 O327 2.669 1_556 S
C298 O316 1.259 . S
C298 O317 1.268 . S
C299 Ho296 2.811 . S
C299 C300 1.488 . S
C299 O318 1.215 . S
C299 O319 1.289 . S
C300 C299 1.488 . S
C300 C301 1.348 . S
C300 C305 1.413 . S
C301 C300 1.348 . S
C301 C302 1.442 . S
C301 H328 0.930 . S
C302 C301 1.442 . S
C302 C303 1.381 . S
C302 H329 0.931 . S
C303 C302 1.381 . S
C303 C304 1.321 . S
C304 C303 1.321 . S
C304 C305 1.403 . S
C304 H330 0.934 . S
C305 C300 1.413 . S
C305 C304 1.403 . S
C305 H331 0.930 . S
C306 O320 1.275 . S
C306 O321 1.256 . S
C307 O322 1.259 . S
C307 O323 1.268 . S
C308 Ho297 2.811 1_565 S
C308 C309 1.488 . S
C308 O324 1.215 1_565 S
C308 O325 1.289 . S
C309 C308 1.488 . S
C309 C310 1.348 . S
C309 C314 1.413 . S
C310 C309 1.348 . S
C310 C311 1.442 . S
C310 H332 0.930 . S
C311 C310 1.442 . S
C311 C312 1.381 . S
C311 H333 0.931 . S
C312 C311 1.381 . S
C312 C313 1.321 . S
C313 C312 1.321 . S
C313 C314 1.403 . S
C313 H334 0.934 . S
C314 C309 1.413 . S
C314 C313 1.403 . S
C314 H335 0.930 . S
C315 O326 1.275 . S
C315 O327 1.256 1_556 S
O316 Ho296 2.322 . S
O316 C298 1.259 . S
O317 Ho297 2.346 1_554 S
O317 C298 1.268 . S
O318 Ho296 2.378 . S
O318 C299 1.215 . S
O319 Ho296 2.524 . S
O319 C299 1.289 . S
O320 Ho296 2.381 1_565 S
O320 C306 1.275 . S
O321 Ho296 2.669 1_565 S
O321 Ho297 2.305 1_564 S
O321 C306 1.256 . S
O322 Ho297 2.322 1_565 S
O322 C307 1.259 . S
O323 Ho296 2.346 1_566 S
O323 C307 1.268 . S
O324 Ho297 2.378 . S
O324 C308 1.215 1_545 S
O325 Ho297 2.524 1_565 S
O325 C308 1.289 . S
O326 Ho297 2.381 . S
O326 C315 1.275 . S
O327 Ho296 2.305 . S
O327 Ho297 2.669 1_554 S
O327 C315 1.256 1_554 S
H328 C301 0.930 . S
H329 C302 0.931 . S
H330 C304 0.934 . S
H331 C305 0.930 . S
H332 C310 0.930 . S
H333 C311 0.931 . S
H334 C313 0.934 . S
H335 C314 0.930 . S
Ho336 C339 2.811 . S
Ho336 O356 2.322 . S
Ho336 O358 2.378 . S
Ho336 O359 2.524 . S
Ho336 O360 2.381 . S
Ho336 O361 2.669 . S
Ho336 O363 2.346 . S
Ho336 O367 2.305 . S
Ho337 C348 2.811 . S
Ho337 O357 2.346 . S
Ho337 O361 2.305 . S
Ho337 O362 2.322 . S
Ho337 O364 2.378 . S
Ho337 O365 2.524 . S
Ho337 O366 2.381 . S
Ho337 O367 2.669 . S
C338 O356 1.259 . S
C338 O357 1.268 . S
C339 Ho336 2.811 . S
C339 C340 1.488 . S
C339 O358 1.215 . S
C339 O359 1.289 . S
C340 C339 1.488 . S
C340 C341 1.348 . S
C340 C345 1.413 . S
C341 C340 1.348 . S
C341 C342 1.442 . S
C341 H368 0.930 . S
C342 C341 1.442 . S
C342 C343 1.381 . S
C342 H369 0.931 . S
C343 C342 1.381 . S
C343 C344 1.321 . S
C344 C343 1.321 . S
C344 C345 1.403 . S
C344 H370 0.934 . S
C345 C340 1.413 . S
C345 C344 1.403 . S
C345 H371 0.930 . S
C346 O360 1.275 . S
C346 O361 1.256 . S
C347 O362 1.259 . S
C347 O363 1.268 . S
C348 Ho337 2.811 . S
C348 C349 1.488 . S
C348 O364 1.215 . S
C348 O365 1.289 . S
C349 C348 1.488 . S
C349 C350 1.348 . S
C349 C354 1.413 . S
C350 C349 1.348 . S
C350 C351 1.442 . S
C350 H372 0.930 . S
C351 C350 1.442 . S
C351 C352 1.381 . S
C351 H373 0.931 . S
C352 C351 1.381 . S
C352 C353 1.321 . S
C353 C352 1.321 . S
C353 C354 1.403 . S
C353 H374 0.934 . S
C354 C349 1.413 . S
C354 C353 1.403 . S
C354 H375 0.930 . S
C355 O366 1.275 . S
C355 O367 1.256 . S
O356 Ho336 2.322 . S
O356 C338 1.259 . S
O357 Ho337 2.346 . S
O357 C338 1.268 . S
O358 Ho336 2.378 . S
O358 C339 1.215 . S
O359 Ho336 2.524 . S
O359 C339 1.289 . S
O360 Ho336 2.381 . S
O360 C346 1.275 . S
O361 Ho336 2.669 . S
O361 Ho337 2.305 . S
O361 C346 1.256 . S
O362 Ho337 2.322 . S
O362 C347 1.259 . S
O363 Ho336 2.346 . S
O363 C347 1.268 . S
O364 Ho337 2.378 . S
O364 C348 1.215 . S
O365 Ho337 2.524 . S
O365 C348 1.289 . S
O366 Ho337 2.381 . S
O366 C355 1.275 . S
O367 Ho336 2.305 . S
O367 Ho337 2.669 . S
O367 C355 1.256 . S
H368 C341 0.930 . S
H369 C342 0.931 . S
H370 C344 0.934 . S
H371 C345 0.930 . S
H372 C350 0.930 . S
H373 C351 0.931 . S
H374 C353 0.934 . S
H375 C354 0.930 . S
Ho376 C379 2.811 . S
Ho376 O396 2.322 . S
Ho376 O398 2.378 . S
Ho376 O399 2.524 . S
Ho376 O400 2.381 1_455 S
Ho376 O401 2.669 1_455 S
Ho376 O403 2.346 1_455 S
Ho376 O407 2.305 1_554 S
Ho377 C388 2.811 . S
Ho377 O397 2.346 1_656 S
Ho377 O401 2.305 1_556 S
Ho377 O402 2.322 . S
Ho377 O404 2.378 . S
Ho377 O405 2.524 . S
Ho377 O406 2.381 1_655 S
Ho377 O407 2.669 1_655 S
C378 O396 1.259 . S
C378 O397 1.268 . S
C379 Ho376 2.811 . S
C379 C380 1.488 . S
C379 O398 1.215 . S
C379 O399 1.289 . S
C380 C379 1.488 . S
C380 C381 1.348 . S
C380 C385 1.413 . S
C381 C380 1.348 . S
C381 C382 1.442 . S
C381 H408 0.930 . S
C382 C381 1.442 . S
C382 C383 1.381 . S
C382 H409 0.931 . S
C383 C382 1.381 . S
C383 C384 1.321 . S
C384 C383 1.321 . S
C384 C385 1.403 . S
C384 H410 0.934 . S
C385 C380 1.413 . S
C385 C384 1.403 . S
C385 H411 0.930 . S
C386 O400 1.275 . S
C386 O401 1.256 . S
C387 O402 1.259 . S
C387 O403 1.268 1_556 S
C388 Ho377 2.811 . S
C388 C389 1.488 . S
C388 O404 1.215 . S
C388 O405 1.289 . S
C389 C388 1.488 . S
C389 C390 1.348 . S
C389 C394 1.413 . S
C390 C389 1.348 . S
C390 C391 1.442 . S
C390 H412 0.930 . S
C391 C390 1.442 . S
C391 C392 1.381 . S
C391 H413 0.931 . S
C392 C391 1.381 . S
C392 C393 1.321 . S
C393 C392 1.321 . S
C393 C394 1.403 . S
C393 H414 0.934 . S
C394 C389 1.413 . S
C394 C393 1.403 . S
C394 H415 0.930 . S
C395 O406 1.275 . S
C395 O407 1.256 . S
O396 Ho376 2.322 . S
O396 C378 1.259 . S
O397 Ho377 2.346 1_454 S
O397 C378 1.268 . S
O398 Ho376 2.378 . S
O398 C379 1.215 . S
O399 Ho376 2.524 . S
O399 C379 1.289 . S
O400 Ho376 2.381 1_655 S
O400 C386 1.275 . S
O401 Ho376 2.669 1_655 S
O401 Ho377 2.305 1_554 S
O401 C386 1.256 . S
O402 Ho377 2.322 . S
O402 C387 1.259 . S
O403 Ho376 2.346 1_655 S
O403 C387 1.268 1_554 S
O404 Ho377 2.378 . S
O404 C388 1.215 . S
O405 Ho377 2.524 . S
O405 C388 1.289 . S
O406 Ho377 2.381 1_455 S
O406 C395 1.275 . S
O407 Ho376 2.305 1_556 S
O407 Ho377 2.669 1_455 S
O407 C395 1.256 . S
H408 C381 0.930 . S
H409 C382 0.931 . S
H410 C384 0.934 . S
H411 C385 0.930 . S
H412 C390 0.930 . S
H413 C391 0.931 . S
H414 C393 0.934 . S
H415 C394 0.930 . S
C416 C417 1.349 . S
C416 C418 1.327 . S
C416 H441 0.950 . S
C417 C416 1.349 . S
C417 C433 1.349 . S
C418 C416 1.327 . S
C418 C437 1.429 . S
C418 H442 0.950 . S
C419 C436 1.574 . S
C419 C438 1.368 . S
C419 H443 0.949 . S
H420 C424 0.949 . S
C421 C422 1.349 . S
C421 C423 1.327 . S
C421 H444 0.950 . S
C422 C421 1.349 . S
C422 C434 1.349 . S
C423 C421 1.327 . S
C423 C439 1.429 . S
C423 H445 0.950 . S
C424 H420 0.949 . S
C424 C432 1.574 . S
C424 C440 1.368 . S
H425 C433 0.950 . S
H426 C431 0.950 . S
H427 C432 0.949 . S
H428 C434 0.950 . S
H429 C435 0.950 . S
H430 C436 0.949 . S
C431 H426 0.950 . S
C431 C433 1.327 . S
C431 C437 1.429 . S
C432 C424 1.574 . S
C432 H427 0.949 . S
C432 C438 1.368 . S
C433 C417 1.349 . S
C433 H425 0.950 . S
C433 C431 1.327 . S
C434 C422 1.349 . S
C434 H428 0.950 . S
C434 C435 1.327 . S
C435 H429 0.950 . S
C435 C434 1.327 . S
C435 C439 1.429 . S
C436 C419 1.574 . S
C436 H430 0.949 . S
C436 C440 1.368 . S
C437 C418 1.429 . S
C437 C431 1.429 . S
C437 C438 1.523 . S
C438 C419 1.368 . S
C438 C432 1.368 . S
C438 C437 1.523 . S
C439 C423 1.429 . S
C439 C435 1.429 . S
C439 C440 1.523 . S
C440 C424 1.368 . S
C440 C436 1.368 . S
C440 C439 1.523 . S
H441 C416 0.950 . S
H442 C418 0.950 . S
H443 C419 0.949 . S
H444 C421 0.950 . S
H445 C423 0.950 . S
C446 C447 1.349 . S
C446 C448 1.327 . S
C446 H471 0.950 . S
C447 C446 1.349 . S
C447 C463 1.349 . S
C448 C446 1.327 . S
C448 C467 1.429 . S
C448 H472 0.950 . S
C449 C466 1.574 . S
C449 C468 1.368 . S
C449 H473 0.949 . S
H450 C454 0.949 . S
C451 C452 1.349 . S
C451 C453 1.327 . S
C451 H474 0.950 . S
C452 C451 1.349 . S
C452 C464 1.349 . S
C453 C451 1.327 . S
C453 C469 1.429 . S
C453 H475 0.950 . S
C454 H450 0.949 . S
C454 C462 1.574 . S
C454 C470 1.368 . S
H455 C463 0.950 . S
H456 C461 0.950 . S
H457 C462 0.949 . S
H458 C464 0.950 . S
H459 C465 0.950 . S
H460 C466 0.949 . S
C461 H456 0.950 . S
C461 C463 1.327 . S
C461 C467 1.429 . S
C462 C454 1.574 . S
C462 H457 0.949 . S
C462 C468 1.368 . S
C463 C447 1.349 . S
C463 H455 0.950 . S
C463 C461 1.327 . S
C464 C452 1.349 . S
C464 H458 0.950 . S
C464 C465 1.327 . S
C465 H459 0.950 . S
C465 C464 1.327 . S
C465 C469 1.429 . S
C466 C449 1.574 . S
C466 H460 0.949 . S
C466 C470 1.368 . S
C467 C448 1.429 . S
C467 C461 1.429 . S
C467 C468 1.523 . S
C468 C449 1.368 . S
C468 C462 1.368 . S
C468 C467 1.523 . S
C469 C453 1.429 . S
C469 C465 1.429 . S
C469 C470 1.523 . S
C470 C454 1.368 . S
C470 C466 1.368 . S
C470 C469 1.523 . S
H471 C446 0.950 . S
H472 C448 0.950 . S
H473 C449 0.949 . S
H474 C451 0.950 . S
H475 C453 0.950 . S
C476 C477 1.349 . S
C476 C478 1.327 . S
C476 H501 0.950 . S
C477 C476 1.349 . S
C477 C493 1.349 . S
C478 C476 1.327 . S
C478 C497 1.429 . S
C478 H502 0.950 . S
C479 C496 1.574 . S
C479 C498 1.368 . S
C479 H503 0.949 . S
H480 C484 0.949 . S
C481 C482 1.349 . S
C481 C483 1.327 . S
C481 H504 0.950 . S
C482 C481 1.349 . S
C482 C494 1.349 . S
C483 C481 1.327 . S
C483 C499 1.429 . S
C483 H505 0.950 . S
C484 H480 0.949 . S
C484 C492 1.574 . S
C484 C500 1.368 . S
H485 C493 0.950 . S
H486 C491 0.950 . S
H487 C492 0.949 . S
H488 C494 0.950 . S
H489 C495 0.950 . S
H490 C496 0.949 . S
C491 H486 0.950 . S
C491 C493 1.327 . S
C491 C497 1.429 . S
C492 C484 1.574 . S
C492 H487 0.949 . S
C492 C498 1.368 . S
C493 C477 1.349 . S
C493 H485 0.950 . S
C493 C491 1.327 . S
C494 C482 1.349 . S
C494 H488 0.950 . S
C494 C495 1.327 . S
C495 H489 0.950 . S
C495 C494 1.327 . S
C495 C499 1.429 . S
C496 C479 1.574 . S
C496 H490 0.949 . S
C496 C500 1.368 . S
C497 C478 1.429 . S
C497 C491 1.429 . S
C497 C498 1.523 . S
C498 C479 1.368 . S
C498 C492 1.368 . S
C498 C497 1.523 . S
C499 C483 1.429 . S
C499 C495 1.429 . S
C499 C500 1.523 . S
C500 C484 1.368 . S
C500 C496 1.368 . S
C500 C499 1.523 . S
H501 C476 0.950 . S
H502 C478 0.950 . S
H503 C479 0.949 . S
H504 C481 0.950 . S
H505 C483 0.950 . S
C506 C507 1.349 . S
C506 C508 1.327 . S
C506 H531 0.950 . S
C507 C506 1.349 . S
C507 C523 1.349 . S
C508 C506 1.327 . S
C508 C527 1.429 . S
C508 H532 0.950 . S
C509 C526 1.574 . S
C509 C528 1.368 . S
C509 H533 0.949 . S
H510 C514 0.949 . S
C511 C512 1.349 . S
C511 C513 1.327 . S
C511 H534 0.950 . S
C512 C511 1.349 . S
C512 C524 1.349 . S
C513 C511 1.327 . S
C513 C529 1.429 . S
C513 H535 0.950 . S
C514 H510 0.949 . S
C514 C522 1.574 . S
C514 C530 1.368 . S
H515 C523 0.950 . S
H516 C521 0.950 . S
H517 C522 0.949 . S
H518 C524 0.950 . S
H519 C525 0.950 . S
H520 C526 0.949 . S
C521 H516 0.950 . S
C521 C523 1.327 . S
C521 C527 1.429 . S
C522 C514 1.574 . S
C522 H517 0.949 . S
C522 C528 1.368 . S
C523 C507 1.349 . S
C523 H515 0.950 . S
C523 C521 1.327 . S
C524 C512 1.349 . S
C524 H518 0.950 . S
C524 C525 1.327 . S
C525 H519 0.950 . S
C525 C524 1.327 . S
C525 C529 1.429 . S
C526 C509 1.574 . S
C526 H520 0.949 . S
C526 C530 1.368 . S
C527 C508 1.429 . S
C527 C521 1.429 . S
C527 C528 1.523 . S
C528 C509 1.368 . S
C528 C522 1.368 . S
C528 C527 1.523 . S
C529 C513 1.429 . S
C529 C525 1.429 . S
C529 C530 1.523 . S
C530 C514 1.368 . S
C530 C526 1.368 . S
C530 C529 1.523 . S
H531 C506 0.950 . S
H532 C508 0.950 . S
H533 C509 0.949 . S
H534 C511 0.950 . S
H535 C513 0.950 . S
C536 C537 1.349 . S
C536 C538 1.327 . S
C536 H561 0.950 . S
C537 C536 1.349 . S
C537 C553 1.349 . S
C538 C536 1.327 . S
C538 C557 1.429 . S
C538 H562 0.950 . S
C539 C556 1.574 . S
C539 C558 1.368 . S
C539 H563 0.949 . S
H540 C544 0.949 . S
C541 C542 1.349 . S
C541 C543 1.327 . S
C541 H564 0.950 . S
C542 C541 1.349 . S
C542 C554 1.349 . S
C543 C541 1.327 . S
C543 C559 1.429 . S
C543 H565 0.950 . S
C544 H540 0.949 . S
C544 C552 1.574 . S
C544 C560 1.368 . S
H545 C553 0.950 . S
H546 C551 0.950 . S
H547 C552 0.949 . S
H548 C554 0.950 . S
H549 C555 0.950 . S
H550 C556 0.949 . S
C551 H546 0.950 . S
C551 C553 1.327 . S
C551 C557 1.429 . S
C552 C544 1.574 . S
C552 H547 0.949 . S
C552 C558 1.368 . S
C553 C537 1.349 . S
C553 H545 0.950 . S
C553 C551 1.327 . S
C554 C542 1.349 . S
C554 H548 0.950 . S
C554 C555 1.327 . S
C555 H549 0.950 . S
C555 C554 1.327 . S
C555 C559 1.429 . S
C556 C539 1.574 . S
C556 H550 0.949 . S
C556 C560 1.368 . S
C557 C538 1.429 . S
C557 C551 1.429 . S
C557 C558 1.523 . S
C558 C539 1.368 . S
C558 C552 1.368 . S
C558 C557 1.523 . S
C559 C543 1.429 . S
C559 C555 1.429 . S
C559 C560 1.523 . S
C560 C544 1.368 . S
C560 C556 1.368 . S
C560 C559 1.523 . S
H561 C536 0.950 . S
H562 C538 0.950 . S
H563 C539 0.949 . S
H564 C541 0.950 . S
H565 C543 0.950 . S
C566 C567 1.349 . S
C566 C568 1.327 . S
C566 H591 0.950 . S
C567 C566 1.349 . S
C567 C583 1.349 . S
C568 C566 1.327 . S
C568 C587 1.429 . S
C568 H592 0.950 . S
C569 C586 1.574 . S
C569 C588 1.368 . S
C569 H593 0.949 . S
H570 C574 0.949 . S
C571 C572 1.349 . S
C571 C573 1.327 . S
C571 H594 0.950 . S
C572 C571 1.349 . S
C572 C584 1.349 . S
C573 C571 1.327 . S
C573 C589 1.429 . S
C573 H595 0.950 . S
C574 H570 0.949 . S
C574 C582 1.574 . S
C574 C590 1.368 . S
H575 C583 0.950 . S
H576 C581 0.950 . S
H577 C582 0.949 . S
H578 C584 0.950 . S
H579 C585 0.950 . S
H580 C586 0.949 . S
C581 H576 0.950 . S
C581 C583 1.327 . S
C581 C587 1.429 . S
C582 C574 1.574 . S
C582 H577 0.949 . S
C582 C588 1.368 . S
C583 C567 1.349 . S
C583 H575 0.950 . S
C583 C581 1.327 . S
C584 C572 1.349 . S
C584 H578 0.950 . S
C584 C585 1.327 . S
C585 H579 0.950 . S
C585 C584 1.327 . S
C585 C589 1.429 . S
C586 C569 1.574 . S
C586 H580 0.949 . S
C586 C590 1.368 . S
C587 C568 1.429 . S
C587 C581 1.429 . S
C587 C588 1.523 . S
C588 C569 1.368 . S
C588 C582 1.368 . S
C588 C587 1.523 . S
C589 C573 1.429 . S
C589 C585 1.429 . S
C589 C590 1.523 . S
C590 C574 1.368 . S
C590 C586 1.368 . S
C590 C589 1.523 . S
H591 C566 0.950 . S
H592 C568 0.950 . S
H593 C569 0.949 . S
H594 C571 0.950 . S
H595 C573 0.950 . S
C596 C597 1.349 . S
C596 C598 1.327 . S
C596 H621 0.950 . S
C597 C596 1.349 . S
C597 C613 1.349 . S
C598 C596 1.327 . S
C598 C617 1.429 . S
C598 H622 0.950 . S
C599 C616 1.574 . S
C599 C618 1.368 . S
C599 H623 0.949 . S
H600 C604 0.949 . S
C601 C602 1.349 . S
C601 C603 1.327 . S
C601 H624 0.950 . S
C602 C601 1.349 . S
C602 C614 1.349 . S
C603 C601 1.327 . S
C603 C619 1.429 . S
C603 H625 0.950 . S
C604 H600 0.949 . S
C604 C612 1.574 . S
C604 C620 1.368 . S
H605 C613 0.950 . S
H606 C611 0.950 . S
H607 C612 0.949 . S
H608 C614 0.950 . S
H609 C615 0.950 . S
H610 C616 0.949 . S
C611 H606 0.950 . S
C611 C613 1.327 . S
C611 C617 1.429 . S
C612 C604 1.574 . S
C612 H607 0.949 . S
C612 C618 1.368 . S
C613 C597 1.349 . S
C613 H605 0.950 . S
C613 C611 1.327 . S
C614 C602 1.349 . S
C614 H608 0.950 . S
C614 C615 1.327 . S
C615 H609 0.950 . S
C615 C614 1.327 . S
C615 C619 1.429 . S
C616 C599 1.574 . S
C616 H610 0.949 . S
C616 C620 1.368 . S
C617 C598 1.429 . S
C617 C611 1.429 . S
C617 C618 1.523 . S
C618 C599 1.368 . S
C618 C612 1.368 . S
C618 C617 1.523 . S
C619 C603 1.429 . S
C619 C615 1.429 . S
C619 C620 1.523 . S
C620 C604 1.368 . S
C620 C616 1.368 . S
C620 C619 1.523 . S
H621 C596 0.950 . S
H622 C598 0.950 . S
H623 C599 0.949 . S
H624 C601 0.950 . S
H625 C603 0.950 . S
C626 C627 1.349 . S
C626 C628 1.327 . S
C626 H651 0.950 . S
C627 C626 1.349 . S
C627 C643 1.349 . S
C628 C626 1.327 . S
C628 C647 1.429 . S
C628 H652 0.950 . S
C629 C646 1.574 . S
C629 C648 1.368 . S
C629 H653 0.949 . S
H630 C634 0.949 . S
C631 C632 1.349 . S
C631 C633 1.327 . S
C631 H654 0.950 . S
C632 C631 1.349 . S
C632 C644 1.349 . S
C633 C631 1.327 . S
C633 C649 1.429 . S
C633 H655 0.950 . S
C634 H630 0.949 . S
C634 C642 1.574 . S
C634 C650 1.368 . S
H635 C643 0.950 . S
H636 C641 0.950 . S
H637 C642 0.949 . S
H638 C644 0.950 . S
H639 C645 0.950 . S
H640 C646 0.949 . S
C641 H636 0.950 . S
C641 C643 1.327 . S
C641 C647 1.429 . S
C642 C634 1.574 . S
C642 H637 0.949 . S
C642 C648 1.368 . S
C643 C627 1.349 . S
C643 H635 0.950 . S
C643 C641 1.327 . S
C644 C632 1.349 . S
C644 H638 0.950 . S
C644 C645 1.327 . S
C645 H639 0.950 . S
C645 C644 1.327 . S
C645 C649 1.429 . S
C646 C629 1.574 . S
C646 H640 0.949 . S
C646 C650 1.368 . S
C647 C628 1.429 . S
C647 C641 1.429 . S
C647 C648 1.523 . S
C648 C629 1.368 . S
C648 C642 1.368 . S
C648 C647 1.523 . S
C649 C633 1.429 . S
C649 C645 1.429 . S
C649 C650 1.523 . S
C650 C634 1.368 . S
C650 C646 1.368 . S
C650 C649 1.523 . S
H651 C626 0.950 . S
H652 C628 0.950 . S
H653 C629 0.949 . S
H654 C631 0.950 . S
H655 C633 0.950 . S
C656 C657 1.349 . S
C656 C658 1.327 . S
C656 H681 0.950 . S
C657 C656 1.349 . S
C657 C673 1.349 . S
C658 C656 1.327 . S
C658 C677 1.429 . S
C658 H682 0.950 . S
C659 C676 1.574 . S
C659 C678 1.368 . S
C659 H683 0.949 . S
H660 C664 0.949 . S
C661 C662 1.349 . S
C661 C663 1.327 . S
C661 H684 0.950 . S
C662 C661 1.349 . S
C662 C674 1.349 . S
C663 C661 1.327 . S
C663 C679 1.429 . S
C663 H685 0.950 . S
C664 H660 0.949 . S
C664 C672 1.574 . S
C664 C680 1.368 . S
H665 C673 0.950 . S
H666 C671 0.950 . S
H667 C672 0.949 . S
H668 C674 0.950 . S
H669 C675 0.950 . S
H670 C676 0.949 . S
C671 H666 0.950 . S
C671 C673 1.327 . S
C671 C677 1.429 . S
C672 C664 1.574 . S
C672 H667 0.949 . S
C672 C678 1.368 . S
C673 C657 1.349 . S
C673 H665 0.950 . S
C673 C671 1.327 . S
C674 C662 1.349 . S
C674 H668 0.950 . S
C674 C675 1.327 . S
C675 H669 0.950 . S
C675 C674 1.327 . S
C675 C679 1.429 . S
C676 C659 1.574 . S
C676 H670 0.949 . S
C676 C680 1.368 . S
C677 C658 1.429 . S
C677 C671 1.429 . S
C677 C678 1.523 . S
C678 C659 1.368 . S
C678 C672 1.368 . S
C678 C677 1.523 . S
C679 C663 1.429 . S
C679 C675 1.429 . S
C679 C680 1.523 . S
C680 C664 1.368 . S
C680 C676 1.368 . S
C680 C679 1.523 . S
H681 C656 0.950 . S
H682 C658 0.950 . S
H683 C659 0.949 . S
H684 C661 0.950 . S
H685 C663 0.950 . S
C686 C687 1.349 . S
C686 C688 1.327 . S
C686 H711 0.950 . S
C687 C686 1.349 . S
C687 C703 1.349 . S
C688 C686 1.327 . S
C688 C707 1.429 . S
C688 H712 0.950 . S
C689 C706 1.574 . S
C689 C708 1.368 . S
C689 H713 0.949 . S
H690 C694 0.949 . S
C691 C692 1.349 . S
C691 C693 1.327 . S
C691 H714 0.950 . S
C692 C691 1.349 . S
C692 C704 1.349 . S
C693 C691 1.327 . S
C693 C709 1.429 . S
C693 H715 0.950 . S
C694 H690 0.949 . S
C694 C702 1.574 . S
C694 C710 1.368 . S
H695 C703 0.950 . S
H696 C701 0.950 . S
H697 C702 0.949 . S
H698 C704 0.950 . S
H699 C705 0.950 . S
H700 C706 0.949 . S
C701 H696 0.950 . S
C701 C703 1.327 . S
C701 C707 1.429 . S
C702 C694 1.574 . S
C702 H697 0.949 . S
C702 C708 1.368 . S
C703 C687 1.349 . S
C703 H695 0.950 . S
C703 C701 1.327 . S
C704 C692 1.349 . S
C704 H698 0.950 . S
C704 C705 1.327 . S
C705 H699 0.950 . S
C705 C704 1.327 . S
C705 C709 1.429 . S
C706 C689 1.574 . S
C706 H700 0.949 . S
C706 C710 1.368 . S
C707 C688 1.429 . S
C707 C701 1.429 . S
C707 C708 1.523 . S
C708 C689 1.368 . S
C708 C702 1.368 . S
C708 C707 1.523 . S
C709 C693 1.429 . S
C709 C705 1.429 . S
C709 C710 1.523 . S
C710 C694 1.368 . S
C710 C706 1.368 . S
C710 C709 1.523 . S
H711 C686 0.950 . S
H712 C688 0.950 . S
H713 C689 0.949 . S
H714 C691 0.950 . S
H715 C693 0.950 . S
C716 C717 1.349 . S
C716 C718 1.327 . S
C716 H741 0.950 . S
C717 C716 1.349 . S
C717 C733 1.349 . S
C718 C716 1.327 . S
C718 C737 1.429 . S
C718 H742 0.950 . S
C719 C736 1.574 . S
C719 C738 1.368 . S
C719 H743 0.949 . S
H720 C724 0.949 . S
C721 C722 1.349 . S
C721 C723 1.327 . S
C721 H744 0.950 . S
C722 C721 1.349 . S
C722 C734 1.349 . S
C723 C721 1.327 . S
C723 C739 1.429 . S
C723 H745 0.950 . S
C724 H720 0.949 . S
C724 C732 1.574 . S
C724 C740 1.368 . S
H725 C733 0.950 . S
H726 C731 0.950 . S
H727 C732 0.949 . S
H728 C734 0.950 . S
H729 C735 0.950 . S
H730 C736 0.949 . S
C731 H726 0.950 . S
C731 C733 1.327 . S
C731 C737 1.429 . S
C732 C724 1.574 . S
C732 H727 0.949 . S
C732 C738 1.368 . S
C733 C717 1.349 . S
C733 H725 0.950 . S
C733 C731 1.327 . S
C734 C722 1.349 . S
C734 H728 0.950 . S
C734 C735 1.327 . S
C735 H729 0.950 . S
C735 C734 1.327 . S
C735 C739 1.429 . S
C736 C719 1.574 . S
C736 H730 0.949 . S
C736 C740 1.368 . S
C737 C718 1.429 . S
C737 C731 1.429 . S
C737 C738 1.523 . S
C738 C719 1.368 . S
C738 C732 1.368 . S
C738 C737 1.523 . S
C739 C723 1.429 . S
C739 C735 1.429 . S
C739 C740 1.523 . S
C740 C724 1.368 . S
C740 C736 1.368 . S
C740 C739 1.523 . S
H741 C716 0.950 . S
H742 C718 0.950 . S
H743 C719 0.949 . S
H744 C721 0.950 . S
H745 C723 0.950 . S
C746 C747 1.349 . S
C746 C748 1.327 . S
C746 H771 0.950 . S
C747 C746 1.349 . S
C747 C763 1.349 . S
C748 C746 1.327 . S
C748 C767 1.429 . S
C748 H772 0.950 . S
C749 C766 1.574 . S
C749 C768 1.368 . S
C749 H773 0.949 . S
H750 C754 0.949 . S
C751 C752 1.349 . S
C751 C753 1.327 . S
C751 H774 0.950 . S
C752 C751 1.349 . S
C752 C764 1.349 . S
C753 C751 1.327 . S
C753 C769 1.429 . S
C753 H775 0.950 . S
C754 H750 0.949 . S
C754 C762 1.574 . S
C754 C770 1.368 . S
H755 C763 0.950 . S
H756 C761 0.950 . S
H757 C762 0.949 . S
H758 C764 0.950 . S
H759 C765 0.950 . S
H760 C766 0.949 . S
C761 H756 0.950 . S
C761 C763 1.327 . S
C761 C767 1.429 . S
C762 C754 1.574 . S
C762 H757 0.949 . S
C762 C768 1.368 . S
C763 C747 1.349 . S
C763 H755 0.950 . S
C763 C761 1.327 . S
C764 C752 1.349 . S
C764 H758 0.950 . S
C764 C765 1.327 . S
C765 H759 0.950 . S
C765 C764 1.327 . S
C765 C769 1.429 . S
C766 C749 1.574 . S
C766 H760 0.949 . S
C766 C770 1.368 . S
C767 C748 1.429 . S
C767 C761 1.429 . S
C767 C768 1.523 . S
C768 C749 1.368 . S
C768 C762 1.368 . S
C768 C767 1.523 . S
C769 C753 1.429 . S
C769 C765 1.429 . S
C769 C770 1.523 . S
C770 C754 1.368 . S
C770 C766 1.368 . S
C770 C769 1.523 . S
H771 C746 0.950 . S
H772 C748 0.950 . S
H773 C749 0.949 . S
H774 C751 0.950 . S
H775 C753 0.950 . S
C776 C777 1.349 . S
C776 C778 1.327 . S
C776 H801 0.950 . S
C777 C776 1.349 . S
C777 C793 1.349 . S
C778 C776 1.327 . S
C778 C797 1.429 . S
C778 H802 0.950 . S
C779 C796 1.574 . S
C779 C798 1.368 . S
C779 H803 0.949 . S
H780 C784 0.949 . S
C781 C782 1.349 . S
C781 C783 1.327 . S
C781 H804 0.950 . S
C782 C781 1.349 . S
C782 C794 1.349 . S
C783 C781 1.327 . S
C783 C799 1.429 . S
C783 H805 0.950 . S
C784 H780 0.949 . S
C784 C792 1.574 . S
C784 C800 1.368 . S
H785 C793 0.950 . S
H786 C791 0.950 . S
H787 C792 0.949 . S
H788 C794 0.950 . S
H789 C795 0.950 . S
H790 C796 0.949 . S
C791 H786 0.950 . S
C791 C793 1.327 . S
C791 C797 1.429 . S
C792 C784 1.574 . S
C792 H787 0.949 . S
C792 C798 1.368 . S
C793 C777 1.349 . S
C793 H785 0.950 . S
C793 C791 1.327 . S
C794 C782 1.349 . S
C794 H788 0.950 . S
C794 C795 1.327 . S
C795 H789 0.950 . S
C795 C794 1.327 . S
C795 C799 1.429 . S
C796 C779 1.574 . S
C796 H790 0.949 . S
C796 C800 1.368 . S
C797 C778 1.429 . S
C797 C791 1.429 . S
C797 C798 1.523 . S
C798 C779 1.368 . S
C798 C792 1.368 . S
C798 C797 1.523 . S
C799 C783 1.429 . S
C799 C795 1.429 . S
C799 C800 1.523 . S
C800 C784 1.368 . S
C800 C796 1.368 . S
C800 C799 1.523 . S
H801 C776 0.950 . S
H802 C778 0.950 . S
H803 C779 0.949 . S
H804 C781 0.950 . S
H805 C783 0.950 . S
C806 C807 1.349 . S
C806 C808 1.327 . S
C806 H831 0.950 . S
C807 C806 1.349 . S
C807 C823 1.349 . S
C808 C806 1.327 . S
C808 C827 1.429 . S
C808 H832 0.950 . S
C809 C826 1.574 . S
C809 C828 1.368 . S
C809 H833 0.949 . S
H810 C814 0.949 . S
C811 C812 1.349 . S
C811 C813 1.327 . S
C811 H834 0.950 . S
C812 C811 1.349 . S
C812 C824 1.349 . S
C813 C811 1.327 . S
C813 C829 1.429 . S
C813 H835 0.950 . S
C814 H810 0.949 . S
C814 C822 1.574 . S
C814 C830 1.368 . S
H815 C823 0.950 . S
H816 C821 0.950 . S
H817 C822 0.949 . S
H818 C824 0.950 . S
H819 C825 0.950 . S
H820 C826 0.949 . S
C821 H816 0.950 . S
C821 C823 1.327 . S
C821 C827 1.429 . S
C822 C814 1.574 . S
C822 H817 0.949 . S
C822 C828 1.368 . S
C823 C807 1.349 . S
C823 H815 0.950 . S
C823 C821 1.327 . S
C824 C812 1.349 . S
C824 H818 0.950 . S
C824 C825 1.327 . S
C825 H819 0.950 . S
C825 C824 1.327 . S
C825 C829 1.429 . S
C826 C809 1.574 . S
C826 H820 0.949 . S
C826 C830 1.368 . S
C827 C808 1.429 . S
C827 C821 1.429 . S
C827 C828 1.523 . S
C828 C809 1.368 . S
C828 C822 1.368 . S
C828 C827 1.523 . S
C829 C813 1.429 . S
C829 C825 1.429 . S
C829 C830 1.523 . S
C830 C814 1.368 . S
C830 C826 1.368 . S
C830 C829 1.523 . S
H831 C806 0.950 . S
H832 C808 0.950 . S
H833 C809 0.949 . S
H834 C811 0.950 . S
H835 C813 0.950 . S
C836 C837 1.349 . S
C836 C838 1.327 . S
C836 H861 0.950 . S
C837 C836 1.349 . S
C837 C853 1.349 . S
C838 C836 1.327 . S
C838 C857 1.429 . S
C838 H862 0.950 . S
C839 C856 1.574 . S
C839 C858 1.368 . S
C839 H863 0.949 . S
H840 C844 0.949 . S
C841 C842 1.349 . S
C841 C843 1.327 . S
C841 H864 0.950 . S
C842 C841 1.349 . S
C842 C854 1.349 . S
C843 C841 1.327 . S
C843 C859 1.429 . S
C843 H865 0.950 . S
C844 H840 0.949 . S
C844 C852 1.574 . S
C844 C860 1.368 . S
H845 C853 0.950 . S
H846 C851 0.950 . S
H847 C852 0.949 . S
H848 C854 0.950 . S
H849 C855 0.950 . S
H850 C856 0.949 . S
C851 H846 0.950 . S
C851 C853 1.327 . S
C851 C857 1.429 . S
C852 C844 1.574 . S
C852 H847 0.949 . S
C852 C858 1.368 . S
C853 C837 1.349 . S
C853 H845 0.950 . S
C853 C851 1.327 . S
C854 C842 1.349 . S
C854 H848 0.950 . S
C854 C855 1.327 . S
C855 H849 0.950 . S
C855 C854 1.327 . S
C855 C859 1.429 . S
C856 C839 1.574 . S
C856 H850 0.949 . S
C856 C860 1.368 . S
C857 C838 1.429 . S
C857 C851 1.429 . S
C857 C858 1.523 . S
C858 C839 1.368 . S
C858 C852 1.368 . S
C858 C857 1.523 . S
C859 C843 1.429 . S
C859 C855 1.429 . S
C859 C860 1.523 . S
C860 C844 1.368 . S
C860 C856 1.368 . S
C860 C859 1.523 . S
H861 C836 0.950 . S
H862 C838 0.950 . S
H863 C839 0.949 . S
H864 C841 0.950 . S
H865 C843 0.950 . S
C866 C867 1.349 . S
C866 C868 1.327 . S
C866 H891 0.950 . S
C867 C866 1.349 . S
C867 C883 1.349 . S
C868 C866 1.327 . S
C868 C887 1.429 . S
C868 H892 0.950 . S
C869 C886 1.574 . S
C869 C888 1.368 . S
C869 H893 0.949 . S
H870 C874 0.949 . S
C871 C872 1.349 . S
C871 C873 1.327 . S
C871 H894 0.950 . S
C872 C871 1.349 . S
C872 C884 1.349 . S
C873 C871 1.327 . S
C873 C889 1.429 . S
C873 H895 0.950 . S
C874 H870 0.949 . S
C874 C882 1.574 . S
C874 C890 1.368 . S
H875 C883 0.950 . S
H876 C881 0.950 . S
H877 C882 0.949 . S
H878 C884 0.950 . S
H879 C885 0.950 . S
H880 C886 0.949 . S
C881 H876 0.950 . S
C881 C883 1.327 . S
C881 C887 1.429 . S
C882 C874 1.574 . S
C882 H877 0.949 . S
C882 C888 1.368 . S
C883 C867 1.349 . S
C883 H875 0.950 . S
C883 C881 1.327 . S
C884 C872 1.349 . S
C884 H878 0.950 . S
C884 C885 1.327 . S
C885 H879 0.950 . S
C885 C884 1.327 . S
C885 C889 1.429 . S
C886 C869 1.574 . S
C886 H880 0.949 . S
C886 C890 1.368 . S
C887 C868 1.429 . S
C887 C881 1.429 . S
C887 C888 1.523 . S
C888 C869 1.368 . S
C888 C882 1.368 . S
C888 C887 1.523 . S
C889 C873 1.429 . S
C889 C885 1.429 . S
C889 C890 1.523 . S
C890 C874 1.368 . S
C890 C886 1.368 . S
C890 C889 1.523 . S
H891 C866 0.950 . S
H892 C868 0.950 . S
H893 C869 0.949 . S
H894 C871 0.950 . S
H895 C873 0.950 . S
C896 C897 1.349 . S
C896 C898 1.327 . S
C896 H921 0.950 . S
C897 C896 1.349 . S
C897 C913 1.349 . S
C898 C896 1.327 . S
C898 C917 1.429 . S
C898 H922 0.950 . S
C899 C916 1.574 . S
C899 C918 1.368 . S
C899 H923 0.949 . S
H900 C904 0.949 . S
C901 C902 1.349 . S
C901 C903 1.327 . S
C901 H924 0.950 . S
C902 C901 1.349 . S
C902 C914 1.349 . S
C903 C901 1.327 . S
C903 C919 1.429 . S
C903 H925 0.950 . S
C904 H900 0.949 . S
C904 C912 1.574 . S
C904 C920 1.368 . S
H905 C913 0.950 . S
H906 C911 0.950 . S
H907 C912 0.949 . S
H908 C914 0.950 . S
H909 C915 0.950 . S
H910 C916 0.949 . S
C911 H906 0.950 . S
C911 C913 1.327 . S
C911 C917 1.429 . S
C912 C904 1.574 . S
C912 H907 0.949 . S
C912 C918 1.368 . S
C913 C897 1.349 . S
C913 H905 0.950 . S
C913 C911 1.327 . S
C914 C902 1.349 . S
C914 H908 0.950 . S
C914 C915 1.327 . S
C915 H909 0.950 . S
C915 C914 1.327 . S
C915 C919 1.429 . S
C916 C899 1.574 . S
C916 H910 0.949 . S
C916 C920 1.368 . S
C917 C898 1.429 . S
C917 C911 1.429 . S
C917 C918 1.523 . S
C918 C899 1.368 . S
C918 C912 1.368 . S
C918 C917 1.523 . S
C919 C903 1.429 . S
C919 C915 1.429 . S
C919 C920 1.523 . S
C920 C904 1.368 . S
C920 C916 1.368 . S
C920 C919 1.523 . S
H921 C896 0.950 . S
H922 C898 0.950 . S
H923 C899 0.949 . S
H924 C901 0.950 . S
H925 C903 0.950 . S
C926 C927 1.349 . S
C926 C928 1.327 . S
C926 H951 0.950 . S
C927 C926 1.349 . S
C927 C943 1.349 . S
C928 C926 1.327 . S
C928 C947 1.429 . S
C928 H952 0.950 . S
C929 C946 1.574 . S
C929 C948 1.368 . S
C929 H953 0.949 . S
H930 C934 0.949 . S
C931 C932 1.349 . S
C931 C933 1.327 . S
C931 H954 0.950 . S
C932 C931 1.349 . S
C932 C944 1.349 . S
C933 C931 1.327 . S
C933 C949 1.429 . S
C933 H955 0.950 . S
C934 H930 0.949 . S
C934 C942 1.574 . S
C934 C950 1.368 . S
H935 C943 0.950 . S
H936 C941 0.950 . S
H937 C942 0.949 . S
H938 C944 0.950 . S
H939 C945 0.950 . S
H940 C946 0.949 . S
C941 H936 0.950 . S
C941 C943 1.327 . S
C941 C947 1.429 . S
C942 C934 1.574 . S
C942 H937 0.949 . S
C942 C948 1.368 . S
C943 C927 1.349 . S
C943 H935 0.950 . S
C943 C941 1.327 . S
C944 C932 1.349 . S
C944 H938 0.950 . S
C944 C945 1.327 . S
C945 H939 0.950 . S
C945 C944 1.327 . S
C945 C949 1.429 . S
C946 C929 1.574 . S
C946 H940 0.949 . S
C946 C950 1.368 . S
C947 C928 1.429 . S
C947 C941 1.429 . S
C947 C948 1.523 . S
C948 C929 1.368 . S
C948 C942 1.368 . S
C948 C947 1.523 . S
C949 C933 1.429 . S
C949 C945 1.429 . S
C949 C950 1.523 . S
C950 C934 1.368 . S
C950 C946 1.368 . S
C950 C949 1.523 . S
H951 C926 0.950 . S
H952 C928 0.950 . S
H953 C929 0.949 . S
H954 C931 0.950 . S
H955 C933 0.950 . S
C956 C957 1.349 . S
C956 C958 1.327 . S
C956 H981 0.950 . S
C957 C956 1.349 . S
C957 C973 1.349 . S
C958 C956 1.327 . S
C958 C977 1.429 . S
C958 H982 0.950 . S
C959 C976 1.574 . S
C959 C978 1.368 . S
C959 H983 0.949 . S
H960 C964 0.949 . S
C961 C962 1.349 . S
C961 C963 1.327 . S
C961 H984 0.950 . S
C962 C961 1.349 . S
C962 C974 1.349 . S
C963 C961 1.327 . S
C963 C979 1.429 . S
C963 H985 0.950 . S
C964 H960 0.949 . S
C964 C972 1.574 . S
C964 C980 1.368 . S
H965 C973 0.950 . S
H966 C971 0.950 . S
H967 C972 0.949 . S
H968 C974 0.950 . S
H969 C975 0.950 . S
H970 C976 0.949 . S
C971 H966 0.950 . S
C971 C973 1.327 . S
C971 C977 1.429 . S
C972 C964 1.574 . S
C972 H967 0.949 . S
C972 C978 1.368 . S
C973 C957 1.349 . S
C973 H965 0.950 . S
C973 C971 1.327 . S
C974 C962 1.349 . S
C974 H968 0.950 . S
C974 C975 1.327 . S
C975 H969 0.950 . S
C975 C974 1.327 . S
C975 C979 1.429 . S
C976 C959 1.574 . S
C976 H970 0.949 . S
C976 C980 1.368 . S
C977 C958 1.429 . S
C977 C971 1.429 . S
C977 C978 1.523 . S
C978 C959 1.368 . S
C978 C972 1.368 . S
C978 C977 1.523 . S
C979 C963 1.429 . S
C979 C975 1.429 . S
C979 C980 1.523 . S
C980 C964 1.368 . S
C980 C976 1.368 . S
C980 C979 1.523 . S
H981 C956 0.950 . S
H982 C958 0.950 . S
H983 C959 0.949 . S
H984 C961 0.950 . S
H985 C963 0.950 . S
C986 C987 1.349 . S
C986 C988 1.327 . S
C986 H1011 0.950 . S
C987 C986 1.349 . S
C987 C1003 1.349 . S
C988 C986 1.327 . S
C988 C1007 1.429 . S
C988 H1012 0.950 . S
C989 C1006 1.574 . S
C989 C1008 1.368 . S
C989 H1013 0.949 . S
H990 C994 0.949 . S
C991 C992 1.349 . S
C991 C993 1.327 . S
C991 H1014 0.950 . S
C992 C991 1.349 . S
C992 C1004 1.349 . S
C993 C991 1.327 . S
C993 C1009 1.429 . S
C993 H1015 0.950 . S
C994 H990 0.949 . S
C994 C1002 1.574 . S
C994 C1010 1.368 . S
H995 C1003 0.950 . S
H996 C1001 0.950 . S
H997 C1002 0.949 . S
H998 C1004 0.950 . S
H999 C1005 0.950 . S
H1000 C1006 0.949 . S
C1001 H996 0.950 . S
C1001 C1003 1.327 . S
C1001 C1007 1.429 . S
C1002 C994 1.574 . S
C1002 H997 0.949 . S
C1002 C1008 1.368 . S
C1003 C987 1.349 . S
C1003 H995 0.950 . S
C1003 C1001 1.327 . S
C1004 C992 1.349 . S
C1004 H998 0.950 . S
C1004 C1005 1.327 . S
C1005 H999 0.950 . S
C1005 C1004 1.327 . S
C1005 C1009 1.429 . S
C1006 C989 1.574 . S
C1006 H1000 0.949 . S
C1006 C1010 1.368 . S
C1007 C988 1.429 . S
C1007 C1001 1.429 . S
C1007 C1008 1.523 . S
C1008 C989 1.368 . S
C1008 C1002 1.368 . S
C1008 C1007 1.523 . S
C1009 C993 1.429 . S
C1009 C1005 1.429 . S
C1009 C1010 1.523 . S
C1010 C994 1.368 . S
C1010 C1006 1.368 . S
C1010 C1009 1.523 . S
H1011 C986 0.950 . S
H1012 C988 0.950 . S
H1013 C989 0.949 . S
H1014 C991 0.950 . S
H1015 C993 0.950 . S
C1016 C1017 1.349 . S
C1016 C1018 1.327 . S
C1016 H1041 0.950 . S
C1017 C1016 1.349 . S
C1017 C1033 1.349 . S
C1018 C1016 1.327 . S
C1018 C1037 1.429 . S
C1018 H1042 0.950 . S
C1019 C1036 1.574 . S
C1019 C1038 1.368 . S
C1019 H1043 0.949 . S
H1020 C1024 0.949 . S
C1021 C1022 1.349 . S
C1021 C1023 1.327 . S
C1021 H1044 0.950 . S
C1022 C1021 1.349 . S
C1022 C1034 1.349 . S
C1023 C1021 1.327 . S
C1023 C1039 1.429 . S
C1023 H1045 0.950 . S
C1024 H1020 0.949 . S
C1024 C1032 1.574 . S
C1024 C1040 1.368 . S
H1025 C1033 0.950 . S
H1026 C1031 0.950 . S
H1027 C1032 0.949 . S
H1028 C1034 0.950 . S
H1029 C1035 0.950 . S
H1030 C1036 0.949 . S
C1031 H1026 0.950 . S
C1031 C1033 1.327 . S
C1031 C1037 1.429 . S
C1032 C1024 1.574 . S
C1032 H1027 0.949 . S
C1032 C1038 1.368 . S
C1033 C1017 1.349 . S
C1033 H1025 0.950 . S
C1033 C1031 1.327 . S
C1034 C1022 1.349 . S
C1034 H1028 0.950 . S
C1034 C1035 1.327 . S
C1035 H1029 0.950 . S
C1035 C1034 1.327 . S
C1035 C1039 1.429 . S
C1036 C1019 1.574 . S
C1036 H1030 0.949 . S
C1036 C1040 1.368 . S
C1037 C1018 1.429 . S
C1037 C1031 1.429 . S
C1037 C1038 1.523 . S
C1038 C1019 1.368 . S
C1038 C1032 1.368 . S
C1038 C1037 1.523 . S
C1039 C1023 1.429 . S
C1039 C1035 1.429 . S
C1039 C1040 1.523 . S
C1040 C1024 1.368 . S
C1040 C1036 1.368 . S
C1040 C1039 1.523 . S
H1041 C1016 0.950 . S
H1042 C1018 0.950 . S
H1043 C1019 0.949 . S
H1044 C1021 0.950 . S
H1045 C1023 0.950 . S
C1046 C1047 1.349 . S
C1046 C1048 1.327 . S
C1046 H1071 0.950 . S
C1047 C1046 1.349 . S
C1047 C1063 1.349 . S
C1048 C1046 1.327 . S
C1048 C1067 1.429 . S
C1048 H1072 0.950 . S
C1049 C1066 1.574 . S
C1049 C1068 1.368 . S
C1049 H1073 0.949 . S
H1050 C1054 0.949 . S
C1051 C1052 1.349 . S
C1051 C1053 1.327 . S
C1051 H1074 0.950 . S
C1052 C1051 1.349 . S
C1052 C1064 1.349 . S
C1053 C1051 1.327 . S
C1053 C1069 1.429 . S
C1053 H1075 0.950 . S
C1054 H1050 0.949 . S
C1054 C1062 1.574 . S
C1054 C1070 1.368 . S
H1055 C1063 0.950 . S
H1056 C1061 0.950 . S
H1057 C1062 0.949 . S
H1058 C1064 0.950 . S
H1059 C1065 0.950 . S
H1060 C1066 0.949 . S
C1061 H1056 0.950 . S
C1061 C1063 1.327 . S
C1061 C1067 1.429 . S
C1062 C1054 1.574 . S
C1062 H1057 0.949 . S
C1062 C1068 1.368 . S
C1063 C1047 1.349 . S
C1063 H1055 0.950 . S
C1063 C1061 1.327 . S
C1064 C1052 1.349 . S
C1064 H1058 0.950 . S
C1064 C1065 1.327 . S
C1065 H1059 0.950 . S
C1065 C1064 1.327 . S
C1065 C1069 1.429 . S
C1066 C1049 1.574 . S
C1066 H1060 0.949 . S
C1066 C1070 1.368 . S
C1067 C1048 1.429 . S
C1067 C1061 1.429 . S
C1067 C1068 1.523 . S
C1068 C1049 1.368 . S
C1068 C1062 1.368 . S
C1068 C1067 1.523 . S
C1069 C1053 1.429 . S
C1069 C1065 1.429 . S
C1069 C1070 1.523 . S
C1070 C1054 1.368 . S
C1070 C1066 1.368 . S
C1070 C1069 1.523 . S
H1071 C1046 0.950 . S
H1072 C1048 0.950 . S
H1073 C1049 0.949 . S
H1074 C1051 0.950 . S
H1075 C1053 0.950 . S
C1076 C1077 1.349 . S
C1076 C1078 1.327 . S
C1076 H1101 0.950 . S
C1077 C1076 1.349 . S
C1077 C1093 1.349 . S
C1078 C1076 1.327 . S
C1078 C1097 1.429 . S
C1078 H1102 0.950 . S
C1079 C1096 1.574 . S
C1079 C1098 1.368 . S
C1079 H1103 0.949 . S
H1080 C1084 0.949 . S
C1081 C1082 1.349 . S
C1081 C1083 1.327 . S
C1081 H1104 0.950 . S
C1082 C1081 1.349 . S
C1082 C1094 1.349 . S
C1083 C1081 1.327 . S
C1083 C1099 1.429 . S
C1083 H1105 0.950 . S
C1084 H1080 0.949 . S
C1084 C1092 1.574 . S
C1084 C1100 1.368 . S
H1085 C1093 0.950 . S
H1086 C1091 0.950 . S
H1087 C1092 0.949 . S
H1088 C1094 0.950 . S
H1089 C1095 0.950 . S
H1090 C1096 0.949 . S
C1091 H1086 0.950 . S
C1091 C1093 1.327 . S
C1091 C1097 1.429 . S
C1092 C1084 1.574 . S
C1092 H1087 0.949 . S
C1092 C1098 1.368 . S
C1093 C1077 1.349 . S
C1093 H1085 0.950 . S
C1093 C1091 1.327 . S
C1094 C1082 1.349 . S
C1094 H1088 0.950 . S
C1094 C1095 1.327 . S
C1095 H1089 0.950 . S
C1095 C1094 1.327 . S
C1095 C1099 1.429 . S
C1096 C1079 1.574 . S
C1096 H1090 0.949 . S
C1096 C1100 1.368 . S
C1097 C1078 1.429 . S
C1097 C1091 1.429 . S
C1097 C1098 1.523 . S
C1098 C1079 1.368 . S
C1098 C1092 1.368 . S
C1098 C1097 1.523 . S
C1099 C1083 1.429 . S
C1099 C1095 1.429 . S
C1099 C1100 1.523 . S
C1100 C1084 1.368 . S
C1100 C1096 1.368 . S
C1100 C1099 1.523 . S
H1101 C1076 0.950 . S
H1102 C1078 0.950 . S
H1103 C1079 0.949 . S
H1104 C1081 0.950 . S
H1105 C1083 0.950 . S
C1106 C1107 1.349 . S
C1106 C1108 1.327 . S
C1106 H1131 0.950 . S
C1107 C1106 1.349 . S
C1107 C1123 1.349 . S
C1108 C1106 1.327 . S
C1108 C1127 1.429 . S
C1108 H1132 0.950 . S
C1109 C1126 1.574 . S
C1109 C1128 1.368 . S
C1109 H1133 0.949 . S
H1110 C1114 0.949 . S
C1111 C1112 1.349 . S
C1111 C1113 1.327 . S
C1111 H1134 0.950 . S
C1112 C1111 1.349 . S
C1112 C1124 1.349 . S
C1113 C1111 1.327 . S
C1113 C1129 1.429 . S
C1113 H1135 0.950 . S
C1114 H1110 0.949 . S
C1114 C1122 1.574 . S
C1114 C1130 1.368 . S
H1115 C1123 0.950 . S
H1116 C1121 0.950 . S
H1117 C1122 0.949 . S
H1118 C1124 0.950 . S
H1119 C1125 0.950 . S
H1120 C1126 0.949 . S
C1121 H1116 0.950 . S
C1121 C1123 1.327 . S
C1121 C1127 1.429 . S
C1122 C1114 1.574 . S
C1122 H1117 0.949 . S
C1122 C1128 1.368 . S
C1123 C1107 1.349 . S
C1123 H1115 0.950 . S
C1123 C1121 1.327 . S
C1124 C1112 1.349 . S
C1124 H1118 0.950 . S
C1124 C1125 1.327 . S
C1125 H1119 0.950 . S
C1125 C1124 1.327 . S
C1125 C1129 1.429 . S
C1126 C1109 1.574 . S
C1126 H1120 0.949 . S
C1126 C1130 1.368 . S
C1127 C1108 1.429 . S
C1127 C1121 1.429 . S
C1127 C1128 1.523 . S
C1128 C1109 1.368 . S
C1128 C1122 1.368 . S
C1128 C1127 1.523 . S
C1129 C1113 1.429 . S
C1129 C1125 1.429 . S
C1129 C1130 1.523 . S
C1130 C1114 1.368 . S
C1130 C1126 1.368 . S
C1130 C1129 1.523 . S
H1131 C1106 0.950 . S
H1132 C1108 0.950 . S
H1133 C1109 0.949 . S
H1134 C1111 0.950 . S
H1135 C1113 0.950 . S
C417 C29 1.217 . S
C422 C263 1.216 . S
C447 C49 0.885 . S
C452 C312 0.892 . S
C482 C338 2.479 . S
C477 C93 2.474 . S
C507 C119 2.225 . S
C512 C386 2.224 . S
C542 C298 2.349 . S
C537 C17 2.341 . S
C572 C266 0.912 . S
C567 C61 0.929 . S
C602 C387 1.856 . S
C597 C81 1.871 . S
C632 C355 1.572 . S
C627 C125 1.556 . S
C657 C23 1.647 . S
C662 C383 1.650 . S
C692 C315 2.288 . S
C687 C87 2.317 . S
C717 C113 2.326 . S
C722 C267 2.362 . S
C747 C55 0.733 . S
C752 C352 0.730 . S
C782 C272 1.179 . S
C777 C157 1.074 . S
C807 C189 0.944 . S
C812 C303 0.955 . S
C837 C221 2.426 . S
C842 C347 2.432 . S
C867 C253 2.304 . S
C872 C395 2.316 . S
C897 C145 2.245 . S
C902 C307 2.438 . S
C932 C275 0.852 . S
C927 C183 0.859 . S
C962 C378 1.902 . S
C957 C209 1.899 . S
C992 C346 1.518 . S
C987 C247 1.505 . S
C1017 C151 1.536 . S
C1022 C392 1.664 . S
C1052 C306 2.285 . S
C1047 C215 2.309 . S
C1082 C258 2.312 . S
C1077 C241 2.270 . S
C1107 C177 0.725 . S
C1112 C343 0.724 . S
