# Generated by pormake.
# Topology eea, (3,6)-cn, num edge types: 1
# Building blocks:
#     Node 0, Type 0, BuildingBlock: PAMTOO_clean_linker_0, # of connection points: 3
#     Node 1, Type 0, BuildingBlock: PAMTOO_clean_linker_0, # of connection points: 3
#     Node 2, Type 0, BuildingBlock: PAMTOO_clean_linker_0, # of connection points: 3
#     Node 3, Type 0, BuildingBlock: PAMTOO_clean_linker_0, # of connection points: 3
#     Node 4, Type 0, BuildingBlock: PAMTOO_clean_linker_0, # of connection points: 3
#     Node 5, Type 0, BuildingBlock: PAMTOO_clean_linker_0, # of connection points: 3
#     Node 6, Type 0, BuildingBlock: PAMTOO_clean_linker_0, # of connection points: 3
#     Node 7, Type 0, BuildingBlock: PAMTOO_clean_linker_0, # of connection points: 3
#     Node 8, Type 0, BuildingBlock: PAMTOO_clean_linker_0, # of connection points: 3
#     Node 9, Type 0, BuildingBlock: PAMTOO_clean_linker_0, # of connection points: 3
#     Node 10, Type 0, BuildingBlock: PAMTOO_clean_linker_0, # of connection points: 3
#     Node 11, Type 0, BuildingBlock: PAMTOO_clean_linker_0, # of connection points: 3
#     Node 12, Type 0, BuildingBlock: PAMTOO_clean_linker_0, # of connection points: 3
#     Node 13, Type 0, BuildingBlock: PAMTOO_clean_linker_0, # of connection points: 3
#     Node 14, Type 0, BuildingBlock: PAMTOO_clean_linker_0, # of connection points: 3
#     Node 15, Type 0, BuildingBlock: PAMTOO_clean_linker_0, # of connection points: 3
#     Node 16, Type 0, BuildingBlock: PAMTOO_clean_linker_0, # of connection points: 3
#     Node 17, Type 0, BuildingBlock: PAMTOO_clean_linker_0, # of connection points: 3
#     Node 18, Type 1, BuildingBlock: HISSIN_clean_sbu_0, # of connection points: 6
#     Node 19, Type 1, BuildingBlock: HISSIN_clean_sbu_0, # of connection points: 6
#     Node 20, Type 1, BuildingBlock: HISSIN_clean_sbu_0, # of connection points: 6
#     Node 21, Type 1, BuildingBlock: HISSIN_clean_sbu_0, # of connection points: 6
#     Node 22, Type 1, BuildingBlock: HISSIN_clean_sbu_0, # of connection points: 6
#     Node 23, Type 1, BuildingBlock: HISSIN_clean_sbu_0, # of connection points: 6
#     Node 24, Type 1, BuildingBlock: HISSIN_clean_sbu_0, # of connection points: 6
#     Node 25, Type 1, BuildingBlock: HISSIN_clean_sbu_0, # of connection points: 6
#     Node 26, Type 1, BuildingBlock: HISSIN_clean_sbu_0, # of connection points: 6
#     Edge 27, Type (0, 1), BuildingBlock: AJUNOK_clean_linker_0, # of connection points: 2
#     Edge 28, Type (0, 1), BuildingBlock: AJUNOK_clean_linker_0, # of connection points: 2
#     Edge 29, Type (0, 1), BuildingBlock: AJUNOK_clean_linker_0, # of connection points: 2
#     Edge 30, Type (0, 1), BuildingBlock: AJUNOK_clean_linker_0, # of connection points: 2
#     Edge 31, Type (0, 1), BuildingBlock: AJUNOK_clean_linker_0, # of connection points: 2
#     Edge 32, Type (0, 1), BuildingBlock: AJUNOK_clean_linker_0, # of connection points: 2
#     Edge 33, Type (0, 1), BuildingBlock: AJUNOK_clean_linker_0, # of connection points: 2
#     Edge 34, Type (0, 1), BuildingBlock: AJUNOK_clean_linker_0, # of connection points: 2
#     Edge 35, Type (0, 1), BuildingBlock: AJUNOK_clean_linker_0, # of connection points: 2
#     Edge 36, Type (0, 1), BuildingBlock: AJUNOK_clean_linker_0, # of connection points: 2
#     Edge 37, Type (0, 1), BuildingBlock: AJUNOK_clean_linker_0, # of connection points: 2
#     Edge 38, Type (0, 1), BuildingBlock: AJUNOK_clean_linker_0, # of connection points: 2
#     Edge 39, Type (0, 1), BuildingBlock: AJUNOK_clean_linker_0, # of connection points: 2
#     Edge 40, Type (0, 1), BuildingBlock: AJUNOK_clean_linker_0, # of connection points: 2
#     Edge 41, Type (0, 1), BuildingBlock: AJUNOK_clean_linker_0, # of connection points: 2
#     Edge 42, Type (0, 1), BuildingBlock: AJUNOK_clean_linker_0, # of connection points: 2
#     Edge 43, Type (0, 1), BuildingBlock: AJUNOK_clean_linker_0, # of connection points: 2
#     Edge 44, Type (0, 1), BuildingBlock: AJUNOK_clean_linker_0, # of connection points: 2
#     Edge 45, Type (0, 1), BuildingBlock: AJUNOK_clean_linker_0, # of connection points: 2
#     Edge 46, Type (0, 1), BuildingBlock: AJUNOK_clean_linker_0, # of connection points: 2
#     Edge 47, Type (0, 1), BuildingBlock: AJUNOK_clean_linker_0, # of connection points: 2
#     Edge 48, Type (0, 1), BuildingBlock: AJUNOK_clean_linker_0, # of connection points: 2
#     Edge 49, Type (0, 1), BuildingBlock: AJUNOK_clean_linker_0, # of connection points: 2
#     Edge 50, Type (0, 1), BuildingBlock: AJUNOK_clean_linker_0, # of connection points: 2
#     Edge 51, Type (0, 1), BuildingBlock: AJUNOK_clean_linker_0, # of connection points: 2
#     Edge 52, Type (0, 1), BuildingBlock: AJUNOK_clean_linker_0, # of connection points: 2
#     Edge 53, Type (0, 1), BuildingBlock: AJUNOK_clean_linker_0, # of connection points: 2
#     Edge 54, Type (0, 1), BuildingBlock: AJUNOK_clean_linker_0, # of connection points: 2
#     Edge 55, Type (0, 1), BuildingBlock: AJUNOK_clean_linker_0, # of connection points: 2
#     Edge 56, Type (0, 1), BuildingBlock: AJUNOK_clean_linker_0, # of connection points: 2
#     Edge 57, Type (0, 1), BuildingBlock: AJUNOK_clean_linker_0, # of connection points: 2
#     Edge 58, Type (0, 1), BuildingBlock: AJUNOK_clean_linker_0, # of connection points: 2
#     Edge 59, Type (0, 1), BuildingBlock: AJUNOK_clean_linker_0, # of connection points: 2
#     Edge 60, Type (0, 1), BuildingBlock: AJUNOK_clean_linker_0, # of connection points: 2
#     Edge 61, Type (0, 1), BuildingBlock: AJUNOK_clean_linker_0, # of connection points: 2
#     Edge 62, Type (0, 1), BuildingBlock: AJUNOK_clean_linker_0, # of connection points: 2
#     Edge 63, Type (0, 1), BuildingBlock: AJUNOK_clean_linker_0, # of connection points: 2
#     Edge 64, Type (0, 1), BuildingBlock: AJUNOK_clean_linker_0, # of connection points: 2
#     Edge 65, Type (0, 1), BuildingBlock: AJUNOK_clean_linker_0, # of connection points: 2
#     Edge 66, Type (0, 1), BuildingBlock: AJUNOK_clean_linker_0, # of connection points: 2
#     Edge 67, Type (0, 1), BuildingBlock: AJUNOK_clean_linker_0, # of connection points: 2
#     Edge 68, Type (0, 1), BuildingBlock: AJUNOK_clean_linker_0, # of connection points: 2
#     Edge 69, Type (0, 1), BuildingBlock: AJUNOK_clean_linker_0, # of connection points: 2
#     Edge 70, Type (0, 1), BuildingBlock: AJUNOK_clean_linker_0, # of connection points: 2
#     Edge 71, Type (0, 1), BuildingBlock: AJUNOK_clean_linker_0, # of connection points: 2
#     Edge 72, Type (0, 1), BuildingBlock: AJUNOK_clean_linker_0, # of connection points: 2
#     Edge 73, Type (0, 1), BuildingBlock: AJUNOK_clean_linker_0, # of connection points: 2
#     Edge 74, Type (0, 1), BuildingBlock: AJUNOK_clean_linker_0, # of connection points: 2
#     Edge 75, Type (0, 1), BuildingBlock: AJUNOK_clean_linker_0, # of connection points: 2
#     Edge 76, Type (0, 1), BuildingBlock: AJUNOK_clean_linker_0, # of connection points: 2
#     Edge 77, Type (0, 1), BuildingBlock: AJUNOK_clean_linker_0, # of connection points: 2
#     Edge 78, Type (0, 1), BuildingBlock: AJUNOK_clean_linker_0, # of connection points: 2
#     Edge 79, Type (0, 1), BuildingBlock: AJUNOK_clean_linker_0, # of connection points: 2
#     Edge 80, Type (0, 1), BuildingBlock: AJUNOK_clean_linker_0, # of connection points: 2
# Relax obj value: 0.059
# Max RMSD: 0.225
# Mean RMSD: 0.161
data_MOF--net-eea--node1-HISSIN_clean_sbu_0--node2-PAMTOO_clean_linker_0--edge1-AJUNOK_clean_linker_0
_symmetry_space_group_name_H-M    P1
_symmetry_Int_Tables_number       1
_symmetry_cell_setting            triclinic
loop_
_symmetry_equiv_pos_as_xyz
'x, y, z'
_cell_length_a     39.642313
_cell_length_b     40.238173
_cell_length_c     54.855803
_cell_angle_alpha  93.022443
_cell_angle_beta   92.769445
_cell_angle_gamma 120.08119
loop_
_atom_site_label
_atom_site_type_symbol
_atom_site_fract_x
_atom_site_fract_y
_atom_site_fract_z
_atom_type_partial_charge
H0 H 0.26198 0.06427 0.42885 0.0
H1 H 0.25299 0.16645 0.43721 0.0
H2 H 0.21992 0.10004 0.36752 0.0
H3 H 0.26855 0.18653 0.36724 0.0
C4 C 0.25612 0.19445 0.38274 0.0
O5 O 0.22745 0.16157 0.39168 0.0
H6 H 0.28042 0.2115 0.39727 0.0
C7 C 0.25419 0.08409 0.42124 0.0
C8 C 0.23966 0.07778 0.39656 0.0
C9 C 0.2589 0.11581 0.43612 0.0
C10 C 0.24936 0.14166 0.42603 0.0
C11 C 0.23553 0.13596 0.40134 0.0
C12 C 0.23048 0.10402 0.38664 0.0
H13 H 0.97798 0.21338 0.4375 0.0
H14 H 0.87987 0.09849 0.43851 0.0
H15 H 0.94383 0.12977 0.37496 0.0
H16 H 0.85484 0.08051 0.3653 0.0
C17 C 0.84946 0.06651 0.38277 0.0
O18 O 0.88462 0.07479 0.39466 0.0
H19 H 0.83477 0.07847 0.3941 0.0
C20 C 0.95914 0.18466 0.42857 0.0
C21 C 0.96538 0.17516 0.40465 0.0
C22 C 0.92792 0.15733 0.44079 0.0
C23 C 0.904 0.11997 0.42938 0.0
C24 C 0.90975 0.11024 0.40579 0.0
C25 C 0.9403 0.13763 0.39346 0.0
H26 H 0.8236 0.75637 0.43969 0.0
H27 H 0.93972 0.77258 0.44537 0.0
H28 H 0.90355 0.81463 0.38537 0.0
H29 H 0.94395 0.76797 0.37385 0.0
C30 C 0.96621 0.78028 0.3899 0.0
O31 O 0.95961 0.80528 0.40442 0.0
H32 H 0.96284 0.75616 0.40053 0.0
C33 C 0.85205 0.76744 0.43269 0.0
C34 C 0.85963 0.78629 0.41095 0.0
C35 C 0.88054 0.7622 0.44536 0.0
C36 C 0.91705 0.77569 0.4358 0.0
C37 C 0.92473 0.79349 0.41382 0.0
C38 C 0.89637 0.79929 0.4017 0.0
H39 H 0.06036 0.25043 0.58146 0.0
H40 H 0.1594 0.23478 0.57522 0.0
H41 H 0.0917 0.19573 0.63683 0.0
H42 H 0.18047 0.24111 0.64718 0.0
C43 C 0.1878 0.23008 0.63041 0.0
O44 O 0.15359 0.20396 0.61654 0.0
H45 H 0.20557 0.2552 0.61988 0.0
C46 C 0.079 0.24005 0.58866 0.0
C47 C 0.07175 0.22277 0.61107 0.0
C48 C 0.10997 0.24378 0.57527 0.0
C49 C 0.13467 0.23111 0.58484 0.0
C50 C 0.12854 0.21471 0.60724 0.0
C51 C 0.09683 0.20994 0.62006 0.0
H52 H 0.76278 0.8054 0.59465 0.0
H53 H 0.77214 0.91691 0.59672 0.0
H54 H 0.81301 0.88435 0.65971 0.0
H55 H 0.7711 0.93044 0.67101 0.0
C56 C 0.77689 0.94457 0.65361 0.0
O57 O 0.80319 0.93816 0.64169 0.0
H58 H 0.74846 0.93165 0.64222 0.0
C59 C 0.7716 0.83312 0.60429 0.0
C60 C 0.78891 0.84157 0.6285 0.0
C61 C 0.7654 0.86005 0.59256 0.0
C62 C 0.77625 0.8955 0.60545 0.0
C63 C 0.79266 0.90379 0.62969 0.0
C64 C 0.79908 0.87699 0.6412 0.0
H65 H 0.19939 0.94769 0.58506 0.0
H66 H 0.09209 0.83888 0.58262 0.0
H67 H 0.13082 0.91761 0.64745 0.0
H68 H 0.09502 0.83898 0.65813 0.0
C69 C 0.07416 0.8242 0.6416 0.0
O70 O 0.07506 0.85119 0.62672 0.0
H71 H 0.08366 0.80585 0.63166 0.0
C72 C 0.17392 0.92764 0.59388 0.0
C73 C 0.16881 0.93723 0.61791 0.0
C74 C 0.14657 0.89229 0.58108 0.0
C75 C 0.11348 0.86623 0.59236 0.0
C76 C 0.10764 0.87572 0.61617 0.0
C77 C 0.13528 0.91106 0.62888 0.0
H78 H 0.92824 0.39363 0.76641 0.0
H79 H 0.92144 0.4973 0.76939 0.0
H80 H 0.88094 0.42145 0.70344 0.0
H81 H 0.92208 0.50217 0.69425 0.0
C82 C 0.9175 0.51488 0.71139 0.0
O83 O 0.89104 0.48591 0.72436 0.0
H84 H 0.94636 0.53156 0.72235 0.0
C85 C 0.92016 0.41255 0.75775 0.0
C86 C 0.90312 0.40287 0.73344 0.0
C87 C 0.92733 0.44675 0.77086 0.0
C88 C 0.91669 0.47104 0.75953 0.0
C89 C 0.90003 0.46177 0.73531 0.0
C90 C 0.89318 0.42781 0.72233 0.0
H91 H 0.63741 0.55048 0.76565 0.0
H92 H 0.53865 0.43598 0.76765 0.0
H93 H 0.60903 0.46262 0.70685 0.0
H94 H 0.52159 0.41749 0.69468 0.0
C95 C 0.51294 0.40173 0.71141 0.0
O96 O 0.54644 0.40962 0.72538 0.0
H97 H 0.4961 0.41221 0.72177 0.0
C98 C 0.61903 0.52118 0.75743 0.0
C99 C 0.62745 0.50974 0.73488 0.0
C100 C 0.58674 0.49479 0.7693 0.0
C101 C 0.56346 0.4568 0.75868 0.0
C102 C 0.57115 0.44546 0.73614 0.0
C103 C 0.6033 0.47171 0.72436 0.0
H104 H 0.49303 0.09641 0.77354 0.0
H105 H 0.60403 0.10114 0.77793 0.0
H106 H 0.56935 0.14063 0.71554 0.0
H107 H 0.60998 0.09833 0.70484 0.0
C108 C 0.63087 0.10784 0.72149 0.0
O109 O 0.62564 0.13311 0.73671 0.0
H110 H 0.62429 0.08176 0.731 0.0
C111 C 0.51975 0.10268 0.76542 0.0
C112 C 0.52691 0.11812 0.74253 0.0
C113 C 0.54674 0.09542 0.77813 0.0
C114 C 0.58268 0.10622 0.76839 0.0
C115 C 0.59089 0.12277 0.74594 0.0
C116 C 0.563 0.12855 0.73307 0.0
H117 H 0.73226 0.58944 0.91692 0.0
H118 H 0.83496 0.57865 0.91618 0.0
H119 H 0.76379 0.54099 0.97629 0.0
H120 H 0.85013 0.58119 0.98989 0.0
C121 C 0.85915 0.57355 0.97256 0.0
O122 O 0.8262 0.5478 0.95755 0.0
H123 H 0.87631 0.60069 0.96362 0.0
C124 C 0.75145 0.58067 0.92545 0.0
C125 C 0.74268 0.56328 0.94781 0.0
C126 C 0.78526 0.5873 0.91414 0.0
C127 C 0.80948 0.57492 0.9249 0.0
C128 C 0.80165 0.55832 0.94718 0.0
C129 C 0.76866 0.55288 0.95869 0.0
H130 H 0.44507 0.1466 0.92348 0.0
H131 H 0.45598 0.25848 0.92312 0.0
H132 H 0.48901 0.22514 0.9889 0.0
H133 H 0.44897 0.27191 0.99655 0.0
C134 C 0.45568 0.28564 0.97899 0.0
O135 O 0.48365 0.27999 0.96869 0.0
H136 H 0.42808 0.27197 0.96669 0.0
C137 C 0.45261 0.17403 0.93301 0.0
C138 C 0.46703 0.18218 0.95783 0.0
C139 C 0.44793 0.2011 0.92037 0.0
C140 C 0.45967 0.23729 0.93245 0.0
C141 C 0.47442 0.24579 0.95704 0.0
C142 C 0.47816 0.21839 0.96972 0.0
H143 H 0.87073 0.27897 0.92014 0.0
H144 H 0.76024 0.17272 0.91651 0.0
H145 H 0.79802 0.25373 0.98012 0.0
H146 H 0.75921 0.17137 0.99081 0.0
C147 C 0.73847 0.15813 0.97407 0.0
O148 O 0.74236 0.18681 0.95973 0.0
H149 H 0.74577 0.13827 0.96382 0.0
C150 C 0.8441 0.25975 0.92829 0.0
C151 C 0.83757 0.2708 0.95148 0.0
C152 C 0.8166 0.22446 0.91542 0.0
C153 C 0.78238 0.19965 0.92632 0.0
C154 C 0.77602 0.21004 0.94976 0.0
C155 C 0.80365 0.24549 0.96232 0.0
H156 H 0.59221 0.72862 0.09887 0.0
H157 H 0.58879 0.83396 0.10416 0.0
H158 H 0.54753 0.76077 0.03692 0.0
H159 H 0.59132 0.84372 0.03074 0.0
C160 C 0.58473 0.85487 0.04777 0.0
O161 O 0.55761 0.82433 0.05942 0.0
H162 H 0.61247 0.87178 0.05979 0.0
C163 C 0.58555 0.74876 0.09057 0.0
C164 C 0.5691 0.74052 0.06624 0.0
C165 C 0.59338 0.78262 0.10432 0.0
C166 C 0.58299 0.80765 0.09385 0.0
C167 C 0.56638 0.79954 0.06962 0.0
C168 C 0.55954 0.76616 0.05582 0.0
H169 H 0.31326 0.87822 0.10458 0.0
H170 H 0.21136 0.76542 0.10432 0.0
H171 H 0.27461 0.79709 0.04042 0.0
H172 H 0.18715 0.74818 0.02974 0.0
C173 C 0.18065 0.73519 0.04756 0.0
O174 O 0.21503 0.74231 0.05998 0.0
H175 H 0.16677 0.74885 0.05811 0.0
C176 C 0.29277 0.85034 0.09509 0.0
C177 C 0.29787 0.84142 0.07081 0.0
C178 C 0.26141 0.82328 0.1073 0.0
C179 C 0.23597 0.78658 0.09537 0.0
C180 C 0.24081 0.77731 0.0714 0.0
C181 C 0.27165 0.80455 0.05916 0.0
H182 H 0.15804 0.42097 0.10437 0.0
H183 H 0.27145 0.43066 0.1075 0.0
H184 H 0.23476 0.47295 0.04757 0.0
H185 H 0.27478 0.42761 0.03496 0.0
C186 C 0.29691 0.43873 0.05103 0.0
O187 O 0.29112 0.46334 0.06647 0.0
H188 H 0.29247 0.41345 0.06077 0.0
C189 C 0.18571 0.43005 0.09665 0.0
C190 C 0.19311 0.44839 0.07477 0.0
C191 C 0.21353 0.42325 0.10868 0.0
C192 C 0.24912 0.43466 0.09828 0.0
C193 C 0.25647 0.45197 0.07609 0.0
C194 C 0.22844 0.45871 0.06437 0.0
H195 H 0.39713 0.92401 0.2496 0.0
H196 H 0.49629 0.90782 0.24615 0.0
H197 H 0.42433 0.8683 0.30604 0.0
H198 H 0.51267 0.91205 0.31881 0.0
C199 C 0.52108 0.90199 0.30211 0.0
O200 O 0.48761 0.87636 0.28744 0.0
H201 H 0.53947 0.92772 0.29221 0.0
C202 C 0.41479 0.91268 0.25696 0.0
C203 C 0.40557 0.89427 0.27889 0.0
C204 C 0.4472 0.91744 0.24478 0.0
C205 C 0.47117 0.90449 0.25517 0.0
C206 C 0.46334 0.8875 0.27739 0.0
C207 C 0.43052 0.88222 0.28913 0.0
H208 H 0.09852 0.48029 0.25941 0.0
H209 H 0.11227 0.59345 0.26195 0.0
H210 H 0.15939 0.562 0.32245 0.0
H211 H 0.12431 0.60993 0.33861 0.0
C212 C 0.1239 0.62134 0.32063 0.0
O213 O 0.14811 0.6155 0.30598 0.0
H214 H 0.09318 0.60564 0.31218 0.0
C215 C 0.10921 0.50841 0.26907 0.0
C216 C 0.12928 0.51723 0.29254 0.0
C217 C 0.10326 0.53581 0.25777 0.0
C218 C 0.11705 0.57216 0.27026 0.0
C219 C 0.1363 0.58096 0.29375 0.0
C220 C 0.14304 0.55395 0.30466 0.0
H221 H 0.53751 0.61714 0.25461 0.0
H222 H 0.4277 0.51001 0.24665 0.0
H223 H 0.46001 0.58583 0.31238 0.0
H224 H 0.42483 0.50463 0.31908 0.0
C225 C 0.40207 0.49189 0.30334 0.0
O226 O 0.40559 0.5208 0.2893 0.0
H227 H 0.40716 0.47117 0.29217 0.0
C228 C 0.51053 0.59685 0.26199 0.0
C229 C 0.50233 0.60587 0.28526 0.0
C230 C 0.48423 0.56218 0.24799 0.0
C231 C 0.44847 0.53683 0.25718 0.0
C232 C 0.43979 0.54554 0.28034 0.0
C233 C 0.4667 0.57991 0.29431 0.0
Eu234 Eu 0.49291 0.99139 0.98422 0.0
Eu235 Eu 0.51639 0.02887 0.0421 0.0
C236 C 0.487 0.06506 1.00232 0.0
C237 C 0.4877 0.9862 0.91439 0.0
C238 C 0.50377 0.02623 0.9142 0.0
C239 C 0.49197 0.98153 0.87039 0.0
C240 C 0.51362 0.04374 0.89217 0.0
C241 C 0.48209 0.96407 0.89238 0.0
C242 C 0.50748 0.02153 0.86995 0.0
C243 C 0.47825 0.96744 0.93749 0.0
O244 O 0.45093 0.99041 0.03636 0.0
O245 O 0.44652 0.94698 1.00587 0.0
C246 C 0.43199 0.956 0.02447 0.0
O247 O 0.5275 0.96737 1.00198 0.0
O248 O 0.50379 0.05371 0.07435 0.0
O249 O 0.55209 0.04297 0.07678 0.0
O250 O 0.51265 0.97126 0.04137 0.0
C251 C 0.52583 0.95752 0.0245 0.0
O252 O 0.5486 0.04839 0.98458 0.0
O253 O 0.57339 0.05421 0.02418 0.0
O254 O 0.51367 0.07362 0.02046 0.0
O255 O 0.50791 0.97099 0.95111 0.0
O256 O 0.45402 0.97229 0.95043 0.0
O257 O 0.46855 0.03077 0.99027 0.0
C258 C 0.51577 0.03223 0.11123 0.0
C259 C 0.49196 0.99192 0.1099 0.0
C260 C 0.5137 0.03481 0.15547 0.0
C261 C 0.47925 0.97316 0.13124 0.0
C262 C 0.52643 0.05352 0.13412 0.0
C263 C 0.48995 0.9944 0.1543 0.0
C264 C 0.52986 0.05203 0.08887 0.0
C265 C 0.57834 0.06273 1.00129 0.0
H266 H 0.50877 0.04391 0.93107 0.0
H267 H 0.48783 0.96372 0.85374 0.0
H268 H 0.5256 0.0746 0.89246 0.0
H269 H 0.47031 0.93325 0.89221 0.0
H270 H 0.48352 0.97494 0.09236 0.0
H271 H 0.52237 0.05196 0.17294 0.0
H272 H 0.46174 0.94199 0.12973 0.0
H273 H 0.54475 0.08464 0.13551 0.0
Eu274 Eu 0.03532 0.49946 0.98637 0.0
Eu275 Eu 0.99986 0.48728 0.0403 0.0
C276 C 0.95766 0.42229 0.99526 0.0
C277 C 0.03997 0.49827 0.91767 0.0
C278 C 0.99961 0.48435 0.9142 0.0
C279 C 0.04346 0.49768 0.87365 0.0
C280 C 0.98124 0.477 0.89053 0.0
C281 C 0.06178 0.50491 0.89731 0.0
C282 C 1.00303 0.48376 0.87003 0.0
C283 C 0.05926 0.50531 0.94245 0.0
O284 O 0.05945 0.49449 0.04622 0.0
O285 O 0.06319 0.47146 1.00825 0.0
C286 C 0.0749 0.47987 0.03177 0.0
O287 O 0.07977 0.55162 0.01021 0.0
O288 O 0.98111 0.45113 0.07067 0.0
O289 O 0.9787 0.50382 0.07216 0.0
O290 O 0.04036 0.55169 0.03953 0.0
C291 C 0.07242 0.56942 0.02806 0.0
O292 O 0.99551 0.52497 0.98603 0.0
O293 O 0.95643 0.49418 0.0166 0.0
O294 O 0.96992 0.4286 0.01862 0.0
O295 O 0.06185 0.53421 0.95609 0.0
O296 O 0.04838 0.4748 0.95439 0.0
O297 O 0.97446 0.44932 0.98047 0.0
C298 C 0.99421 0.48498 0.10976 0.0
C299 C 1.00922 0.52192 0.12192 0.0
C300 C 1.01359 0.46466 0.14627 0.0
C301 C 0.02618 0.53006 0.14605 0.0
C302 C 0.99646 0.45645 0.12225 0.0
C303 C 0.02831 0.50142 0.15851 0.0
C304 C 0.976 0.47558 0.08426 0.0
C305 C 0.96384 0.51475 0.99767 0.0
H306 H 0.98236 0.47908 0.92979 0.0
H307 H 0.06078 0.50241 0.85815 0.0
H308 H 0.95007 0.4663 0.88825 0.0
H309 H 0.0929 0.51543 0.8997 0.0
H310 H 1.00787 0.54456 0.11287 0.0
H311 H 0.01564 0.44227 0.15517 0.0
H312 H 0.03726 0.55865 0.15507 0.0
H313 H 0.98511 0.42771 0.11339 0.0
Eu314 Eu 0.54436 0.52223 0.03575 0.0
Eu315 Eu 0.51759 0.52784 0.97892 0.0
C316 C 0.54583 0.59731 0.01938 0.0
C317 C 0.5513 0.52451 0.10569 0.0
C318 C 0.5339 0.54721 0.1092 0.0
C319 C 0.544 0.51017 0.14825 0.0
C320 C 0.52211 0.55177 0.13221 0.0
C321 C 0.55593 0.50579 0.1253 0.0
C322 C 0.52745 0.53364 0.15208 0.0
C323 C 0.56368 0.51907 0.08161 0.0
O324 O 0.58336 0.55507 0.9823 0.0
O325 O 0.58966 0.521 0.01252 0.0
C326 C 0.60293 0.54112 0.99352 0.0
O327 O 0.50748 0.46179 0.01845 0.0
O328 O 0.52573 0.56358 0.94868 0.0
O329 O 0.48266 0.50255 0.94396 0.0
O330 O 0.52008 0.47303 0.97862 0.0
C331 C 0.50851 0.44953 0.99606 0.0
O332 O 0.4861 0.5193 0.03788 0.0
O333 O 0.46141 0.4991 0.99765 0.0
O334 O 0.51822 0.57596 1.00203 0.0
O335 O 0.53787 0.48923 0.06735 0.0
O336 O 0.58213 0.54956 0.06967 0.0
O337 O 0.567 0.58454 0.02986 0.0
C338 C 0.51591 0.53157 0.9096 0.0
C339 C 0.5371 0.51247 0.9066 0.0
C340 C 0.52242 0.54595 0.86708 0.0
C341 C 0.55038 0.50964 0.88382 0.0
C342 C 0.50906 0.54865 0.88981 0.0
C343 C 0.54266 0.52588 0.86373 0.0
C344 C 0.50134 0.53445 0.93331 0.0
C345 C 0.4565 0.504 0.02088 0.0
H346 H 0.52956 0.56151 0.09418 0.0
H347 H 0.54756 0.495 0.16298 0.0
H348 H 0.50941 0.56997 0.13459 0.0
H349 H 0.56872 0.48766 0.12285 0.0
H350 H 0.54305 0.49946 0.92179 0.0
H351 H 0.5168 0.55945 0.85208 0.0
H352 H 0.56587 0.49399 0.88176 0.0
H353 H 0.49323 0.56396 0.89191 0.0
Eu354 Eu 0.15825 0.32394 0.31533 0.0
Eu355 Eu 0.17977 0.36085 0.37364 0.0
C356 C 0.15507 0.40019 0.33261 0.0
C357 C 0.15328 0.3169 0.24569 0.0
C358 C 0.17623 0.35716 0.24582 0.0
C359 C 0.15146 0.31138 0.20122 0.0
C360 C 0.18686 0.37439 0.22379 0.0
C361 C 0.14086 0.29418 0.22326 0.0
C362 C 0.17491 0.35168 0.20122 0.0
C363 C 0.14343 0.29843 0.26886 0.0
O364 O 0.1145 0.32404 0.36654 0.0
O365 O 0.11151 0.27998 0.3373 0.0
C366 C 0.09623 0.28922 0.35536 0.0
O367 O 0.19472 0.30238 0.33327 0.0
O368 O 0.1658 0.3842 0.40595 0.0
O369 O 0.21395 0.37333 0.40884 0.0
O370 O 0.17746 0.30363 0.37227 0.0
C371 C 0.19189 0.29117 0.35543 0.0
O372 O 0.21499 0.3802 0.31576 0.0
O373 O 0.23741 0.38906 0.3564 0.0
O374 O 0.17728 0.40655 0.35289 0.0
O375 O 0.17292 0.30209 0.28273 0.0
O376 O 0.11928 0.30386 0.28152 0.0
O377 O 0.13869 0.36742 0.3188 0.0
C378 C 0.17623 0.36133 0.44273 0.0
C379 C 0.14464 0.32323 0.44062 0.0
C380 C 0.18096 0.35962 0.48697 0.0
C381 C 0.13144 0.30342 0.46156 0.0
C382 C 0.19411 0.37942 0.46604 0.0
C383 C 0.14976 0.32124 0.48498 0.0
C384 C 0.19123 0.38193 0.42072 0.0
C385 C 0.2435 0.39664 0.33341 0.0
H386 H 0.18622 0.37521 0.26298 0.0
H387 H 0.14098 0.29314 0.18414 0.0
H388 H 0.2049 0.40547 0.22442 0.0
H389 H 0.12308 0.26308 0.22279 0.0
H390 H 0.13035 0.30876 0.42277 0.0
H391 H 0.19576 0.37408 0.50472 0.0
H392 H 0.10686 0.27418 0.45942 0.0
H393 H 0.21855 0.40876 0.46803 0.0
Eu394 Eu 0.69671 0.83018 0.32111 0.0
Eu395 Eu 0.66504 0.8232 0.37615 0.0
C396 C 0.6234 0.75273 0.33451 0.0
C397 C 0.70135 0.82822 0.25183 0.0
C398 C 0.66086 0.80357 0.24682 0.0
C399 C 0.7072 0.84009 0.20898 0.0
C400 C 0.64368 0.79686 0.22288 0.0
C401 C 0.72435 0.8466 0.23286 0.0
C402 C 0.66678 0.81479 0.20369 0.0
C403 C 0.71977 0.83655 0.27688 0.0
O404 O 0.7075 0.80142 0.37792 0.0
O405 O 0.74355 0.82911 0.34558 0.0
C406 C 0.73876 0.81206 0.36595 0.0
O407 O 0.72558 0.89031 0.33922 0.0
O408 O 0.63813 0.78714 0.40582 0.0
O409 O 0.65219 0.84674 0.40876 0.0
O410 O 0.72314 0.879 0.37977 0.0
C411 C 0.73817 0.902 0.36229 0.0
O412 O 0.63965 0.83019 0.31608 0.0
O413 O 0.63883 0.85265 0.35519 0.0
O414 O 0.61739 0.77299 0.35146 0.0
O415 O 0.71887 0.86401 0.28993 0.0
O416 O 0.71172 0.807 0.28924 0.0
O417 O 0.65702 0.76714 0.32493 0.0
C418 C 0.65909 0.82083 0.44485 0.0
C419 C 0.69997 0.83995 0.44922 0.0
C420 C 0.65302 0.81114 0.48804 0.0
C421 C 0.7173 0.8449 0.47294 0.0
C422 C 0.63573 0.80634 0.46433 0.0
C423 C 0.69398 0.83045 0.49259 0.0
C424 C 0.64069 0.8155 0.42001 0.0
C425 C 0.62664 0.84607 0.33179 0.0
H426 H 0.64261 0.78962 0.2614 0.0
H427 H 0.72551 0.8551 0.19467 0.0
H428 H 0.61245 0.77733 0.2193 0.0
H429 H 0.75555 0.86624 0.23656 0.0
H430 H 0.71844 0.85125 0.43432 0.0
H431 H 0.63437 0.79963 0.50283 0.0
H432 H 0.74892 0.86063 0.47596 0.0
H433 H 0.60411 0.79134 0.46121 0.0
Eu434 Eu 0.2136 0.86226 0.37 0.0
Eu435 Eu 0.1806 0.85984 0.31297 0.0
C436 C 0.21515 0.93435 0.34949 0.0
C437 C 0.22006 0.86484 0.43983 0.0
C438 C 0.18153 0.85733 0.44052 0.0
C439 C 0.22808 0.87332 0.48435 0.0
C440 C 0.1666 0.85852 0.46296 0.0
C441 C 0.24306 0.87237 0.46189 0.0
C442 C 0.18996 0.86713 0.48509 0.0
C443 C 0.23714 0.86708 0.41628 0.0
O444 O 0.24567 0.88494 0.31295 0.0
O445 O 0.2593 0.86136 0.347 0.0
C446 C 0.26793 0.87517 0.32549 0.0
O447 O 0.17521 0.79979 0.35623 0.0
O448 O 0.18314 0.89167 0.28156 0.0
O449 O 0.14506 0.8296 0.27872 0.0
O450 O 0.18478 0.8065 0.31565 0.0
C451 C 0.17435 0.78508 0.33414 0.0
O452 O 0.15459 0.85785 0.37265 0.0
O453 O 0.12629 0.83295 0.33345 0.0
O454 O 0.18458 0.91089 0.33451 0.0
O455 O 0.22169 0.83541 0.40175 0.0
O456 O 0.24366 0.89667 0.40445 0.0
O457 O 0.23793 0.92249 0.35873 0.0
C458 C 0.17831 0.85731 0.24371 0.0
C459 C 0.16065 0.82219 0.22897 0.0
C460 C 0.22829 0.88543 0.2149 0.0
C461 C 0.17676 0.81866 0.20754 0.0
C462 C 0.21224 0.88897 0.23635 0.0
C463 C 0.21071 0.85024 0.20026 0.0
C464 C 0.16178 0.86047 0.26685 0.0
C465 C 0.12356 0.84064 0.35668 0.0
H466 H 0.16328 0.85115 0.42367 0.0
H467 H 0.24672 0.8801 0.50113 0.0
H468 H 0.13692 0.85298 0.46306 0.0
H469 H 0.27289 0.87829 0.46172 0.0
H470 H 0.13444 0.79733 0.23406 0.0
H471 H 0.25485 0.91006 0.20998 0.0
H472 H 0.16241 0.79125 0.19651 0.0
H473 H 0.22673 0.91647 0.24727 0.0
Eu474 Eu 0.82717 0.65509 0.65087 0.0
Eu475 Eu 0.85057 0.69183 0.70887 0.0
C476 C 0.82632 0.73085 0.66734 0.0
C477 C 0.82093 0.65101 0.58084 0.0
C478 C 0.79346 0.6543 0.56555 0.0
C479 C 0.86965 0.68366 0.55186 0.0
C480 C 0.80399 0.67231 0.54379 0.0
C481 C 0.8592 0.66589 0.57374 0.0
C482 C 0.84214 0.68705 0.53664 0.0
C483 C 0.80919 0.63249 0.6041 0.0
O484 O 0.79802 0.63278 0.70826 0.0
O485 O 0.77098 0.63051 0.67005 0.0
C486 C 0.76771 0.61895 0.69222 0.0
O487 O 0.83485 0.61157 0.67069 0.0
O488 O 0.83197 0.71087 0.74084 0.0
O489 O 0.88716 0.712 0.74367 0.0
O490 O 0.87433 0.6515 0.70416 0.0
C491 C 0.85993 0.61935 0.68971 0.0
O492 O 0.89303 0.69243 0.65534 0.0
O493 O 0.9022 0.73327 0.68924 0.0
O494 O 0.81995 0.71922 0.68945 0.0
O495 O 0.83514 0.62876 0.61741 0.0
O496 O 0.78908 0.64287 0.61746 0.0
O497 O 0.83966 0.71569 0.65168 0.0
C498 C 0.85082 0.6972 0.77861 0.0
C499 C 0.83111 0.65687 0.77869 0.0
C500 C 0.84803 0.7027 0.82274 0.0
C501 C 0.82007 0.63959 0.80071 0.0
C502 C 0.85905 0.71993 0.80075 0.0
C503 C 0.82867 0.66233 0.82303 0.0
C504 C 0.86129 0.71575 0.75549 0.0
C505 C 0.91513 0.72438 0.66968 0.0
H506 H 0.76376 0.64304 0.57048 0.0
H507 H 0.89943 0.69527 0.54701 0.0
H508 H 0.78214 0.67438 0.53239 0.0
H509 H 0.88121 0.66406 0.58513 0.0
H510 H 0.82416 0.63879 0.76173 0.0
H511 H 0.85431 0.721 0.83951 0.0
H512 H 0.80522 0.60846 0.80033 0.0
H513 H 0.87374 0.75106 0.80102 0.0
Eu514 Eu 0.36697 0.16254 0.65067 0.0
Eu515 Eu 0.33602 0.15634 0.70505 0.0
C516 C 0.29237 0.08557 0.66422 0.0
C517 C 0.37024 0.15784 0.58209 0.0
C518 C 0.32951 0.14177 0.57918 0.0
C519 C 0.37259 0.15955 0.53812 0.0
C520 C 0.3104 0.13468 0.55584 0.0
C521 C 0.3917 0.16672 0.5615 0.0
C522 C 0.33177 0.14338 0.53509 0.0
C523 C 0.39041 0.16677 0.60663 0.0
O524 O 0.37433 0.12972 0.70479 0.0
O525 O 0.4148 0.1654 0.67657 0.0
C526 C 0.40775 0.14376 0.6949 0.0
O527 O 0.38887 0.22273 0.66678 0.0
O528 O 0.31002 0.12196 0.73549 0.0
O529 O 0.32647 0.18222 0.738 0.0
O530 O 0.39367 0.21281 0.70688 0.0
C531 C 0.40386 0.23611 0.68929 0.0
O532 O 0.30977 0.16211 0.64452 0.0
O533 O 0.30608 0.18211 0.68378 0.0
O534 O 0.28698 0.10607 0.68133 0.0
O535 O 0.39163 0.19553 0.61949 0.0
O536 O 0.38123 0.13743 0.6194 0.0
O537 O 0.32591 0.0996 0.65452 0.0
C538 C 0.3346 0.15723 0.77458 0.0
C539 C 0.34617 0.1913 0.7895 0.0
C540 C 0.3605 0.13512 0.80704 0.0
C541 C 0.36505 0.19738 0.81283 0.0
C542 C 0.34181 0.12909 0.78364 0.0
C543 C 0.37226 0.16931 0.82181 0.0
C544 C 0.31524 0.15147 0.74974 0.0
C545 C 0.29497 0.1762 0.6602 0.0
H546 H 0.31261 0.13507 0.595 0.0
H547 H 0.38964 0.16642 0.52237 0.0
H548 H 0.27903 0.12292 0.55403 0.0
H549 H 0.4232 0.17935 0.56353 0.0
H550 H 0.3407 0.21333 0.7831 0.0
H551 H 0.36613 0.11323 0.81352 0.0
H552 H 0.37362 0.22386 0.82399 0.0
H553 H 0.3332 0.10245 0.77266 0.0
Eu554 Eu 0.88025 0.18847 0.70395 0.0
Eu555 Eu 0.84682 0.1866 0.64715 0.0
C556 C 0.88042 0.26035 0.68473 0.0
C557 C 0.88709 0.19358 0.77346 0.0
C558 C 0.85979 0.20594 0.77513 0.0
C559 C 0.88414 0.18387 0.81684 0.0
C560 C 0.84505 0.20758 0.79752 0.0
C561 C 0.89889 0.18223 0.7944 0.0
C562 C 0.85717 0.19674 0.81867 0.0
C563 C 0.90383 0.19321 0.75011 0.0
O564 O 0.91176 0.21068 0.64681 0.0
O565 O 0.92534 0.18687 0.68074 0.0
C566 C 0.93427 0.20128 0.65941 0.0
O567 O 0.84144 0.12622 0.69051 0.0
O568 O 0.85099 0.21997 0.6162 0.0
O569 O 0.81124 0.15818 0.61268 0.0
O570 O 0.84726 0.13096 0.64936 0.0
C571 C 0.83872 0.11057 0.66842 0.0
O572 O 0.82092 0.18327 0.70715 0.0
O573 O 0.7925 0.16064 0.66767 0.0
O574 O 0.85018 0.23705 0.66944 0.0
O575 O 0.88602 0.16099 0.73609 0.0
O576 O 0.91345 0.22297 0.7377 0.0
O577 O 0.90377 0.24878 0.69329 0.0
C578 C 0.84458 0.18682 0.57819 0.0
C579 C 0.86819 0.17004 0.57682 0.0
C580 C 0.85441 0.20132 0.53581 0.0
C581 C 0.88471 0.16879 0.55505 0.0
C582 C 0.83801 0.20265 0.5576 0.0
C583 C 0.87793 0.18436 0.53427 0.0
C584 C 0.82826 0.18951 0.60128 0.0
C585 C 0.78985 0.16679 0.69117 0.0
H586 H 0.85028 0.21485 0.75917 0.0
H587 H 0.89476 0.17618 0.83291 0.0
H588 H 0.82433 0.21762 0.79834 0.0
H589 H 0.92002 0.17272 0.79349 0.0
H590 H 0.87365 0.15772 0.59257 0.0
H591 H 0.84869 0.21355 0.5201 0.0
H592 H 0.90199 0.15482 0.5543 0.0
H593 H 0.82019 0.21605 0.55838 0.0
C594 C 0.3535 0.86016 0.04407 0.0
C595 C 0.33031 0.87058 0.05756 0.0
C596 C 0.38531 0.88757 0.03238 0.0
C597 C 0.39529 0.9265 0.0339 0.0
H598 H 0.34774 0.83079 0.04311 0.0
H599 H 0.40312 0.87849 0.02295 0.0
S600 S 0.34106 0.9678 0.06421 0.0
N601 N 0.31729 0.92188 0.06951 0.0
N602 N 0.37752 0.97345 0.0482 0.0
C603 C 0.37149 0.93701 0.04653 0.0
C604 C 0.33895 0.90908 0.0582 0.0
C605 C 0.15061 0.44764 0.03865 0.0
C606 C 0.16437 0.45804 0.06359 0.0
C607 C 0.12196 0.45498 0.02836 0.0
C608 C 0.10613 0.47319 0.04261 0.0
H609 H 0.16144 0.43298 0.02712 0.0
H610 H 0.11187 0.44589 0.00918 0.0
S611 S 0.13528 0.5092 0.10855 0.0
N612 N 0.16207 0.48971 0.10186 0.0
N613 N 0.10849 0.5033 0.08297 0.0
C614 C 0.12063 0.48463 0.0675 0.0
C615 C 0.14963 0.47712 0.07786 0.0
C616 C 0.59363 0.69705 0.05247 0.0
C617 C 0.56326 0.70554 0.05186 0.0
C618 C 0.58804 0.66251 0.04117 0.0
C619 C 0.55195 0.63523 0.02863 0.0
H620 H 0.62182 0.71702 0.06216 0.0
H621 H 0.61206 0.6569 0.04263 0.0
S622 S 0.46321 0.64396 0.02127 0.0
N623 N 0.49595 0.68422 0.03746 0.0
N624 N 0.48554 0.61936 0.01575 0.0
C625 C 0.52169 0.64391 0.0271 0.0
C626 C 0.52734 0.67908 0.03881 0.0
C627 C 0.88343 0.31449 0.98722 0.0
C628 C 0.8656 0.30974 0.9635 0.0
C629 C 0.91259 0.35112 0.99775 0.0
C630 C 0.92476 0.38416 0.9849 0.0
H631 H 0.87568 0.28961 0.99736 0.0
H632 H 0.92637 0.35335 0.01577 0.0
S633 S 0.88298 0.38721 0.92339 0.0
N634 N 0.85934 0.34119 0.92842 0.0
N635 N 0.91365 0.40976 0.94794 0.0
C636 C 0.90564 0.37976 0.96157 0.0
C637 C 0.8762 0.34263 0.95094 0.0
C638 C 0.6966 0.58575 0.96089 0.0
C639 C 0.70717 0.55709 0.96012 0.0
C640 C 0.66334 0.5806 0.97209 0.0
C641 C 0.6395 0.54687 0.98343 0.0
H642 H 0.71428 0.61259 0.95285 0.0
H643 H 0.65629 0.60336 0.97191 0.0
S644 S 0.65216 0.46174 0.98522 0.0
N645 N 0.68917 0.49249 0.97058 0.0
N646 N 0.62776 0.48368 0.99239 0.0
C647 C 0.64964 0.51802 0.98294 0.0
C648 C 0.68313 0.52291 0.97114 0.0
C649 C 0.50519 0.16229 0.98507 0.0
C650 C 0.4702 0.15266 0.97122 0.0
C651 C 0.50983 0.13402 0.99612 0.0
C652 C 0.47969 0.09518 0.99359 0.0
H653 H 0.52966 0.1916 0.98662 0.0
H654 H 0.5378 0.14241 1.0058 0.0
S655 S 0.38039 0.05618 0.96231 0.0
N656 N 0.40342 0.1025 0.95799 0.0
N657 N 0.41234 0.04926 0.97833 0.0
C658 C 0.44391 0.08557 0.98082 0.0
C659 C 0.43912 0.11433 0.96974 0.0
C660 C 0.68874 0.13057 1.00547 0.0
C661 C 0.69681 0.13513 0.98079 0.0
C662 C 0.65036 0.10769 0.01194 0.0
C663 C 0.61848 0.08848 0.99397 0.0
H664 H 0.71233 0.14445 0.01992 0.0
H665 H 0.64579 0.10483 0.0312 0.0
S666 S 0.62448 0.09139 0.92654 0.0
N667 N 0.67022 0.11874 0.9383 0.0
N668 N 0.59807 0.07608 0.95017 0.0
C669 C 0.62627 0.09326 0.96915 0.0
C670 C 0.6654 0.1164 0.96264 0.0
C671 C 0.88464 0.54163 1.00058 0.0
C672 C 0.88469 0.55634 0.97791 0.0
C673 C 0.90983 0.52769 1.00654 0.0
C674 C 0.93615 0.52787 0.99006 0.0
H675 H 0.86548 0.54155 0.01403 0.0
H676 H 0.90918 0.51748 0.02448 0.0
S677 S 0.94444 0.55958 0.92716 0.0
N678 N 0.91083 0.56759 0.93814 0.0
N679 N 0.95832 0.54147 0.94922 0.0
C680 C 0.93541 0.54124 0.96692 0.0
C681 C 0.90957 0.55531 0.96085 0.0
C682 C 0.47494 0.34548 1.0066 0.0
C683 C 0.47032 0.32811 0.98289 0.0
C684 C 0.48757 0.38474 0.01054 0.0
C685 C 0.49617 0.40827 0.99092 0.0
H686 H 0.46851 0.32856 0.02224 0.0
H687 H 0.49045 0.39659 0.02922 0.0
S688 S 0.48924 0.37621 0.92521 0.0
N689 N 0.47546 0.33684 0.9395 0.0
N690 N 0.4996 0.41096 0.94678 0.0
C691 C 0.49207 0.39121 0.96707 0.0
C692 C 0.47901 0.35107 0.9631 0.0
C693 C 0.15277 0.67211 0.02171 0.0
C694 C 0.15293 0.69233 0.04338 0.0
C695 C 0.12701 0.63235 0.01719 0.0
C696 C 0.10042 0.61117 0.03422 0.0
H697 H 0.17246 0.68724 1.008 0.0
H698 H 0.12758 0.61831 0.99994 0.0
S699 S 0.09228 0.65039 0.09502 0.0
N700 N 0.12663 0.68823 0.08291 0.0
N701 N 0.07784 0.61335 0.07444 0.0
C702 C 0.10116 0.63096 0.05636 0.0
C703 C 0.12762 0.67152 0.06098 0.0
C704 C 0.37008 0.46889 0.06021 0.0
C705 C 0.33819 0.45894 0.04309 0.0
C706 C 0.40832 0.48449 0.053 0.0
C707 C 0.41621 0.49053 0.02832 0.0
H708 H 0.36524 0.46369 0.07925 0.0
H709 H 0.43165 0.49076 0.06684 0.0
S710 S 0.34318 0.47256 0.97671 0.0
N711 N 0.31731 0.45875 1.00068 0.0
N712 N 0.38882 0.48774 0.98705 0.0
C713 C 0.38465 0.48197 0.01118 0.0
C714 C 0.34579 0.46632 0.01857 0.0
C715 C 0.56212 0.88659 0.01773 0.0
C716 C 0.56887 0.88086 0.04211 0.0
C717 C 0.54786 0.91113 0.01225 0.0
C718 C 0.53956 0.93069 0.03095 0.0
H719 H 0.56813 0.87216 1.00278 0.0
H720 H 0.54337 0.91478 0.99317 0.0
S721 S 0.55205 0.92472 0.09789 0.0
N722 N 0.56621 0.89617 0.08509 0.0
N723 N 0.53906 0.94216 0.075 0.0
C724 C 0.54584 0.92477 0.05546 0.0
C725 C 0.56061 0.89993 0.06098 0.0
C726 C 0.02108 0.19415 0.37787 0.0
C727 C 0.99734 0.2043 0.391 0.0
C728 C 0.05185 0.22123 0.3653 0.0
C729 C 0.06027 0.25962 0.36552 0.0
H730 H 0.01651 0.16525 0.3778 0.0
H731 H 0.07009 0.21239 0.35619 0.0
S732 S 1.00429 0.29996 0.39459 0.0
N733 N 0.98228 0.25469 0.40132 0.0
N734 N 0.04061 0.3057 0.37842 0.0
C735 C 0.03602 0.26983 0.37788 0.0
C736 C 1.00452 0.24222 0.39045 0.0
C737 C 0.80731 0.80411 0.41292 0.0
C738 C 0.82937 0.79316 0.39863 0.0
C739 C 0.77806 0.8099 0.40216 0.0
C740 C 0.77007 0.80583 0.37659 0.0
H741 H 0.8128 0.80854 0.43269 0.0
H742 H 0.76193 0.81821 0.41401 0.0
S743 S 0.81765 0.77604 0.33069 0.0
N744 N 0.83943 0.77667 0.35729 0.0
N745 N 0.78574 0.78949 0.33714 0.0
C746 C 0.79193 0.79529 0.36196 0.0
C747 C 0.82125 0.78855 0.37294 0.0
C748 C 0.2644 0.03491 0.38173 0.0
C749 C 0.23407 0.04344 0.38156 0.0
C750 C 0.25844 1.00023 0.37036 0.0
C751 C 0.22194 0.97277 0.35831 0.0
H752 H 0.29272 0.05483 0.39128 0.0
H753 H 0.2824 0.99453 0.37157 0.0
S754 S 0.13328 0.98189 0.35212 0.0
N755 N 0.16657 0.02228 0.36794 0.0
N756 N 0.15529 0.9571 0.34624 0.0
C757 C 0.19178 0.98165 0.35714 0.0
C758 C 0.19787 0.017 0.36884 0.0
C759 C 0.57155 0.6524 0.30148 0.0
C760 C 0.53187 0.64205 0.29999 0.0
C761 C 0.60067 0.68769 0.31336 0.0
C762 C 0.59137 0.71403 0.3245 0.0
H763 H 0.5803 0.63323 0.29308 0.0
H764 H 0.63084 0.69458 0.31351 0.0
S765 S 0.49195 0.70094 0.326 0.0
N766 N 0.48478 0.66109 0.31077 0.0
N767 N 0.53953 0.72719 0.3336 0.0
C768 C 0.55172 0.70365 0.32387 0.0
C769 C 0.52199 0.66773 0.31152 0.0
C770 C 0.37137 0.8956 0.31644 0.0
C771 C 0.36984 0.88766 0.2909 0.0
C772 C 0.33821 0.89078 0.32779 0.0
C773 C 0.30247 0.87831 0.31395 0.0
H774 H 0.3986 0.90638 0.3277 0.0
H775 H 0.34086 0.89783 0.34737 0.0
S776 S 0.28129 0.84834 0.2472 0.0
N777 N 0.32807 0.86252 0.25272 0.0
N778 N 0.26654 0.85471 0.27376 0.0
C779 C 0.30023 0.86911 0.28858 0.0
C780 C 0.33366 0.87348 0.27713 0.0
C781 C 0.14813 0.46649 0.28915 0.0
C782 C 0.13678 0.4884 0.3038 0.0
C783 C 0.1542 0.43826 0.29882 0.0
C784 C 0.15006 0.43139 0.32363 0.0
H785 H 0.15244 0.47116 0.27001 0.0
H786 H 0.16248 0.42181 0.28677 0.0
S787 S 0.12001 0.4796 0.36982 0.0
N788 N 0.12031 0.5 0.34441 0.0
N789 N 0.13383 0.44806 0.36273 0.0
C790 C 0.13952 0.45334 0.33869 0.0
C791 C 0.13241 0.4816 0.32874 0.0
C792 C 0.32875 0.45152 0.29462 0.0
C793 C 0.36138 0.47018 0.31195 0.0
C794 C 0.29083 0.42875 0.30181 0.0
C795 C 0.2839 0.42338 0.32669 0.0
H796 H 0.3327 0.45403 0.27526 0.0
H797 H 0.26691 0.41463 0.28758 0.0
S798 S 0.35974 0.46726 0.37941 0.0
N799 N 0.38447 0.48279 0.35514 0.0
N800 N 0.31342 0.43999 0.36877 0.0
C801 C 0.31638 0.44259 0.34428 0.0
C802 C 0.35501 0.4659 0.33689 0.0
C803 C 0.55404 0.88169 0.33378 0.0
C804 C 0.54515 0.8837 0.30898 0.0
C805 C 0.57969 0.86876 0.34079 0.0
C806 C 0.59763 0.85722 0.32332 0.0
H807 H 0.54177 0.89104 0.34797 0.0
H808 H 0.58584 0.86837 0.36019 0.0
S809 S 0.58266 0.85573 0.25577 0.0
N810 N 0.55525 0.8722 0.26681 0.0
N811 N 0.60328 0.84753 0.27982 0.0
C812 C 0.58806 0.85806 0.29834 0.0
C813 C 0.56195 0.87142 0.29124 0.0
C814 C 0.14807 0.68351 0.34718 0.0
C815 C 0.13732 0.66365 0.32373 0.0
C816 C 0.15995 0.72275 0.35035 0.0
C817 C 0.16175 0.74363 0.33015 0.0
H818 H 0.14718 0.66861 0.36323 0.0
H819 H 0.16799 0.73681 0.3688 0.0
S820 S 0.13563 0.7042 0.26487 0.0
N821 N 0.12835 0.66712 0.28005 0.0
N822 N 0.1511 0.74099 0.28578 0.0
C823 C 0.15103 0.72395 0.30655 0.0
C824 C 0.13866 0.68394 0.3034 0.0
C825 C 0.79777 1.00227 0.39558 0.0
C826 C 0.82301 0.0235 0.37801 0.0
C827 C 0.77124 0.96253 0.39084 0.0
C828 C 0.7691 0.9428 0.36835 0.0
H829 H 0.79793 0.01671 0.41286 0.0
H830 H 0.75142 0.94752 0.40451 0.0
S831 S 0.83314 0.98441 0.31791 0.0
N832 N 0.84728 0.02128 0.33856 0.0
N833 N 0.79753 0.94685 0.32944 0.0
C834 C 0.79575 0.96344 0.35122 0.0
C835 C 0.82278 0.00371 0.35614 0.0
C836 C 1.01268 0.78794 0.35794 0.0
C837 C 1.00705 0.79997 0.38118 0.0
C838 C 0.05024 0.802 0.35003 0.0
C839 C 0.08405 0.82846 0.36513 0.0
H840 H 0.98776 0.76674 0.34588 0.0
H841 H 0.05269 0.79113 0.33211 0.0
S842 S 0.08536 0.87022 0.42751 0.0
N843 N 0.03851 0.84025 0.41923 0.0
N844 N 0.10905 0.86759 0.40422 0.0
C845 C 0.07883 0.84136 0.38831 0.0
C846 C 0.04044 0.82679 0.3964 0.0
C847 C 0.23017 0.2386 0.39301 0.0
C848 C 0.23898 0.21858 0.37504 0.0
C849 C 0.21423 0.26141 0.38652 0.0
C850 C 0.20657 0.26505 0.36177 0.0
H851 H 0.23596 0.23678 0.41226 0.0
H852 H 0.20855 0.27679 0.40104 0.0
S853 S 0.22163 0.21571 0.30776 0.0
N854 N 0.23682 0.20179 0.33159 0.0
N855 N 0.20713 0.24479 0.31919 0.0
C856 C 0.21438 0.24429 0.34361 0.0
C857 C 0.23042 0.22094 0.35028 0.0
C858 C 0.6911 0.52842 0.71746 0.0
C859 C 0.66176 0.53715 0.72237 0.0
C860 C 0.72478 0.5546 0.70674 0.0
C861 C 0.72967 0.58981 0.69989 0.0
H862 H 0.68855 0.5017 0.72265 0.0
H863 H 0.7475 0.54757 0.70417 0.0
S864 S 0.66099 0.62579 0.70799 0.0
N865 N 0.63952 0.58325 0.71918 0.0
N866 N 0.70249 0.63198 0.6984 0.0
C867 C 0.70015 0.59845 0.70402 0.0
C868 C 0.66624 0.5722 0.71544 0.0
C869 C 0.50671 0.15736 0.71758 0.0
C870 C 0.49645 0.12311 0.72872 0.0
C871 C 0.47803 0.16343 0.70595 0.0
C872 C 0.43798 0.13568 0.70526 0.0
H873 H 0.53703 0.18016 0.71846 0.0
H874 H 0.48722 0.1906 0.6982 0.0
S875 S 0.39588 0.03905 0.7286 0.0
N876 N 0.44343 0.05932 0.73569 0.0
N877 N 0.3898 0.0714 0.71481 0.0
C878 C 0.42743 0.10083 0.71552 0.0
C879 C 0.45655 0.09438 0.72698 0.0
C880 C 0.92753 0.35909 0.71965 0.0
C881 C 0.89701 0.36734 0.71953 0.0
C882 C 0.92221 0.32506 0.70759 0.0
C883 C 0.88618 0.29791 0.69483 0.0
H884 H 0.95576 0.37904 0.72929 0.0
H885 H 0.94649 0.31981 0.70859 0.0
S886 S 0.79675 0.30573 0.68916 0.0
N887 N 0.82939 0.34562 0.70573 0.0
N888 N 0.81941 0.28175 0.68276 0.0
C889 C 0.8556 0.30617 0.69411 0.0
C890 C 0.86101 0.34084 0.70653 0.0
C891 C 0.23902 0.98528 0.63096 0.0
C892 C 0.1993 0.97418 0.63146 0.0
C893 C 0.2687 0.02086 0.64217 0.0
C894 C 0.25998 0.0468 0.65454 0.0
H895 H 0.24732 0.96638 0.62164 0.0
H896 H 0.29881 0.02818 0.64092 0.0
S897 S 0.16064 0.03183 0.66104 0.0
N898 N 0.15276 0.99216 0.64522 0.0
N899 N 0.20858 0.05885 0.66671 0.0
C900 C 0.22035 0.03577 0.6557 0.0
C901 C 0.19003 0.99953 0.64409 0.0
C902 C 1.00136 0.2057 0.61092 0.0
C903 C 0.03722 0.21706 0.62436 0.0
C904 C 0.96859 0.20071 0.62254 0.0
C905 C 0.96971 0.20604 0.6482 0.0
H906 H 0.99832 0.20031 0.59116 0.0
H907 H 0.94191 0.19219 0.61123 0.0
S908 S 0.05634 0.23723 0.69211 0.0
N909 N 0.07207 0.23518 0.66504 0.0
N910 N 1.00971 0.22389 0.68679 0.0
C911 C 1.00503 0.21692 0.66201 0.0
C912 C 0.03887 0.22285 0.65013 0.0
C913 C 0.8191 0.80033 0.62636 0.0
C914 C 0.79874 0.81435 0.63962 0.0
C915 C 0.82841 0.7741 0.63583 0.0
C916 C 0.81766 0.76054 0.65901 0.0
H917 H 0.82805 0.8098 0.60844 0.0
H918 H 0.844 0.76424 0.62464 0.0
S919 S 0.76377 0.78854 0.70111 0.0
N920 N 0.76806 0.81312 0.67713 0.0
N921 N 0.78559 0.76357 0.69512 0.0
C922 C 0.79767 0.77474 0.67268 0.0
C923 C 0.78824 0.80171 0.66296 0.0
C924 C 1.00748 0.76399 0.63578 0.0
C925 C 0.03325 0.79941 0.64915 0.0
C926 C 0.96957 0.74017 0.64261 0.0
C927 C 0.95564 0.75087 0.66304 0.0
H928 H 0.01682 0.75445 0.61998 0.0
H929 H 0.95115 0.71303 0.63171 0.0
S930 S 1.01133 0.84254 0.70308 0.0
N931 N 0.04203 0.84523 0.68292 0.0
N932 N 0.97082 0.80067 0.69594 0.0
C933 C 0.98102 0.78682 0.67624 0.0
C934 C 0.0197 0.81106 0.6692 0.0
C935 C 0.21959 0.20832 0.66189 0.0
C936 C 0.21205 0.21193 0.63717 0.0
C937 C 0.2456 0.19584 0.66893 0.0
C938 C 0.26522 0.18632 0.65156 0.0
H939 H 0.20607 0.2162 0.67602 0.0
H940 H 0.25079 0.19433 0.6883 0.0
S941 S 0.25348 0.18866 0.58417 0.0
N942 N 0.22462 0.2034 0.59511 0.0
N943 N 0.27345 0.17969 0.60819 0.0
C944 C 0.25674 0.18843 0.62662 0.0
C945 C 0.23022 0.20129 0.61949 0.0
C946 C 0.79328 0.00843 0.63835 0.0
C947 C 0.79317 0.98734 0.65801 0.0
C948 C 0.80864 0.04839 0.64175 0.0
C949 C 0.82438 0.06866 0.66497 0.0
H950 H 0.78122 0.99381 0.62022 0.0
H951 H 0.80757 0.06333 0.62613 0.0
S952 S 0.83385 0.02688 0.72198 0.0
N953 N 0.81219 0.98969 0.70109 0.0
N954 N 0.84083 0.06465 0.7077 0.0
C955 C 0.82524 0.04789 0.68468 0.0
C956 C 0.80979 0.00728 0.68113 0.0
C957 C 0.4768 0.3333 0.72357 0.0
C958 C 0.48679 0.35886 0.70509 0.0
C959 C 0.45025 0.29363 0.71836 0.0
C960 C 0.43233 0.27811 0.69452 0.0
H961 H 0.48935 0.34416 0.74224 0.0
H962 H 0.44353 0.27513 0.73319 0.0
S963 S 0.44762 0.33361 0.63986 0.0
N964 N 0.47606 0.36625 0.66228 0.0
N965 N 0.42632 0.29221 0.6523 0.0
C966 C 0.44202 0.30365 0.67592 0.0
C967 C 0.46907 0.34388 0.68127 0.0
C968 C 0.68058 0.13149 0.68976 0.0
C969 C 0.67265 0.12643 0.71444 0.0
C970 C 0.71855 0.14518 0.68255 0.0
C971 C 0.75035 0.15457 0.69973 0.0
H972 H 0.65706 0.12402 0.67577 0.0
H973 H 0.72283 0.148 0.66325 0.0
S974 S 0.7449 0.14707 0.76686 0.0
N975 N 0.69952 0.13245 0.75615 0.0
N976 N 0.77089 0.15825 0.74285 0.0
C977 C 0.74285 0.15047 0.72461 0.0
C978 C 0.70408 0.13639 0.73189 0.0
C979 C 0.9138 0.57489 0.72069 0.0
C980 C 0.90214 0.54118 0.70541 0.0
C981 C 0.89972 0.59971 0.71554 0.0
C982 C 0.87309 0.59157 0.69502 0.0
H983 H 0.93419 0.58227 0.73667 0.0
H984 H 0.91004 0.62555 0.72777 0.0
S985 S 0.83142 0.50487 0.65037 0.0
N986 N 0.8611 0.49952 0.66982 0.0
N987 N 0.83438 0.54593 0.65991 0.0
C988 C 0.86042 0.55721 0.67995 0.0
C989 C 0.8749 0.53203 0.68525 0.0
C990 C 0.49558 0.96577 0.21881 0.0
C991 C 0.45687 0.93685 0.22156 0.0
C992 C 0.5058 0.9843 0.19715 0.0
C993 C 0.47781 0.97458 0.17722 0.0
H994 H 0.51823 0.97437 0.23361 0.0
H995 H 0.53607 0.00611 0.19589 0.0
S996 S 0.37219 0.90106 0.17502 0.0
N997 N 0.39031 0.8993 0.20236 0.0
N998 N 0.40939 0.9346 0.16185 0.0
C999 C 0.43891 0.94584 0.17973 0.0
C1000 C 0.42846 0.92698 0.20184 0.0
C1001 C 0.10084 0.55182 0.21448 0.0
C1002 C 0.08318 0.52676 0.23276 0.0
C1003 C 0.08279 0.54357 0.19059 0.0
C1004 C 0.04635 0.51002 0.18412 0.0
H1005 H 0.12915 0.5777 0.21859 0.0
H1006 H 0.09781 0.56329 0.17697 0.0
S1007 S 0.98633 0.43701 0.22591 0.0
N1008 N 0.0263 0.46829 0.24323 0.0
N1009 N 0.9921 0.4529 0.1984 0.0
C1010 C 0.02801 0.48516 0.20239 0.0
C1011 C 0.04648 0.4935 0.22668 0.0
C1012 C 0.46879 0.54228 0.20271 0.0
C1013 C 0.4947 0.55281 0.22389 0.0
C1014 C 0.47948 0.53603 0.17958 0.0
C1015 C 0.51632 0.53967 0.17681 0.0
H1016 H 0.44041 0.53973 0.20394 0.0
H1017 H 0.45873 0.52822 0.16374 0.0
S1018 S 0.59426 0.56547 0.2267 0.0
N1019 N 0.55824 0.56524 0.24072 0.0
N1020 N 0.5786 0.55435 0.19736 0.0
C1021 C 0.5422 0.5496 0.19793 0.0
C1022 C 0.53135 0.55597 0.2214 0.0
C1023 C 0.93209 0.43026 0.81384 0.0
C1024 C 0.94645 0.45723 0.79622 0.0
C1025 C 0.95014 0.43929 0.83778 0.0
C1026 C 0.98349 0.47547 0.84489 0.0
H1027 H 0.90661 0.40198 0.80908 0.0
H1028 H 0.93834 0.41755 0.85071 0.0
S1029 S 0.03235 0.55632 0.80578 0.0
N1030 N 0.99591 0.52163 0.78756 0.0
N1031 N 0.02957 0.53873 0.83262 0.0
C1032 C 0.99796 0.50278 0.82752 0.0
C1033 C 0.97948 0.49366 0.80319 0.0
C1034 C 0.60366 0.52149 0.81339 0.0
C1035 C 0.57646 0.50632 0.79266 0.0
C1036 C 0.59274 0.52827 0.8363 0.0
C1037 C 0.5544 0.52056 0.83915 0.0
H1038 H 0.63315 0.52692 0.81207 0.0
H1039 H 0.61434 0.53933 0.85193 0.0
S1040 S 0.4729 0.48224 0.79015 0.0
N1041 N 0.51019 0.48535 0.77614 0.0
N1042 N 0.48953 0.49759 0.8191 0.0
C1043 C 0.52733 0.50639 0.81836 0.0
C1044 C 0.53839 0.49939 0.79515 0.0
C1045 C 0.56324 0.09088 0.82241 0.0
C1046 C 0.53671 0.07584 0.80129 0.0
C1047 C 0.55354 0.0734 0.84455 0.0
C1048 C 0.51712 0.03994 0.84637 0.0
H1049 H 0.59147 0.11671 0.82192 0.0
H1050 H 0.57489 0.08598 0.86031 0.0
S1051 S 0.43755 0.98877 0.79632 0.0
N1052 N 0.47278 0.02493 0.78355 0.0
N1053 N 0.45432 0.99276 0.8251 0.0
C1054 C 0.49047 0.02454 0.82535 0.0
C1055 C 0.5003 0.04231 0.80287 0.0
C1056 C 0.1209 0.2982 0.55001 0.0
C1057 C 0.11735 0.26179 0.55156 0.0
C1058 C 0.13084 0.31697 0.52836 0.0
C1059 C 0.13714 0.29986 0.50731 0.0
H1060 H 0.11705 0.31279 0.56586 0.0
H1061 H 0.13382 0.34522 0.52814 0.0
S1062 S 0.12946 0.20392 0.50151 0.0
N1063 N 0.1192 0.20859 0.52986 0.0
N1064 N 0.13824 0.24389 0.48935 0.0
C1065 C 0.13266 0.263 0.50846 0.0
C1066 C 0.12275 0.24402 0.53052 0.0
C1067 C 0.71666 0.85843 0.56109 0.0
C1068 C 0.7473 0.85133 0.56697 0.0
C1069 C 0.69941 0.8512 0.53708 0.0
C1070 C 0.7122 0.83672 0.51796 0.0
H1071 H 0.70581 0.86956 0.5752 0.0
H1072 H 0.67625 0.85758 0.53339 0.0
S1073 S 0.79106 0.81268 0.52368 0.0
N1074 N 0.7898 0.82904 0.55167 0.0
N1075 N 0.75665 0.81452 0.50661 0.0
C1076 C 0.74257 0.82914 0.52359 0.0
C1077 C 0.7602 0.83656 0.54807 0.0
C1078 C 0.16639 0.85677 0.55174 0.0
C1079 C 0.15332 0.88304 0.55596 0.0
C1080 C 0.17753 0.85119 0.52863 0.0
C1081 C 0.17541 0.8713 0.5089 0.0
H1082 H 0.16922 0.8414 0.56661 0.0
H1083 H 0.18827 0.83132 0.52622 0.0
S1084 S 0.14189 0.94244 0.5106 0.0
N1085 N 0.13816 0.92876 0.53869 0.0
N1086 N 0.15844 0.91798 0.49517 0.0
C1087 C 0.16131 0.89685 0.51282 0.0
C1088 C 0.15049 0.90284 0.53639 0.0
C1089 C 0.59746 0.80203 0.14901 0.0
C1090 C 0.61312 0.79193 0.12942 0.0
C1091 C 0.61491 0.8093 0.17302 0.0
C1092 C 0.64878 0.80703 0.1782 0.0
H1093 H 0.57118 0.80368 0.14582 0.0
H1094 H 0.60194 0.81698 0.18762 0.0
S1095 S 0.70164 0.78253 0.13322 0.0
N1096 N 0.66505 0.7812 0.11663 0.0
N1097 N 0.69717 0.79381 0.16178 0.0
C1098 C 0.66487 0.79727 0.15872 0.0
C1099 C 0.64719 0.78995 0.13433 0.0
C1100 C 0.24507 0.80794 0.15035 0.0
C1101 C 0.25339 0.83341 0.13194 0.0
C1102 C 0.2324 0.81422 0.17264 0.0
C1103 C 0.22746 0.84617 0.17737 0.0
H1104 H 0.24764 0.78251 0.14729 0.0
H1105 H 0.22586 0.79358 0.18615 0.0
S1106 S 0.24542 0.9215 0.13524 0.0
N1107 N 0.25625 0.89203 0.12004 0.0
N1108 N 0.23232 0.90381 0.1619 0.0
C1109 C 0.23677 0.87248 0.15942 0.0
C1110 C 0.24976 0.86611 0.13672 0.0
C1111 C 0.19049 0.41864 0.15093 0.0
C1112 C 0.20537 0.40526 0.13243 0.0
C1113 C 0.18127 0.40154 0.17314 0.0
C1114 C 0.18623 0.3701 0.17776 0.0
H1115 H 0.18595 0.44265 0.14823 0.0
H1116 H 0.16946 0.4126 0.18664 0.0
S1117 S 0.22519 0.32466 0.1357 0.0
N1118 N 0.22502 0.35885 0.1204 0.0
N1119 N 0.20835 0.32715 0.16228 0.0
C1120 C 0.20157 0.35673 0.15957 0.0
C1121 C 0.21107 0.37424 0.13695 0.0
C1122 C 0.76892 0.59557 0.87068 0.0
C1123 C 0.7961 0.60773 0.89136 0.0
C1124 C 0.77962 0.61323 0.84865 0.0
C1125 C 0.81775 0.64403 0.84656 0.0
H1126 H 0.73941 0.57173 0.87137 0.0
H1127 H 0.7578 0.60281 0.83316 0.0
S1128 S 0.89953 0.6873 0.89558 0.0
N1129 N 0.8625 0.6532 0.9085 0.0
N1130 N 0.88266 0.68578 0.86718 0.0
C1131 C 0.84499 0.6567 0.86722 0.0
C1132 C 0.83417 0.63871 0.88955 0.0
C1133 C 0.44597 0.21762 0.87717 0.0
C1134 C 0.4293 0.19128 0.89494 0.0
C1135 C 0.42756 0.21007 0.85346 0.0
C1136 C 0.39194 0.17584 0.84665 0.0
H1137 H 0.47338 0.24438 0.88167 0.0
H1138 H 0.44127 0.23119 0.84034 0.0
S1139 S 0.33525 0.09832 0.88655 0.0
N1140 N 0.37442 0.13016 0.90428 0.0
N1141 N 0.34016 0.1158 0.85955 0.0
C1142 C 0.37508 0.14911 0.86412 0.0
C1143 C 0.39369 0.15687 0.8883 0.0
C1144 C 0.83581 0.24313 0.8733 0.0
C1145 C 0.82361 0.21502 0.89024 0.0
C1146 C 0.84567 0.23653 0.85009 0.0
C1147 C 0.84384 0.20157 0.84282 0.0
H1148 H 0.83822 0.27074 0.87814 0.0
H1149 H 0.85585 0.25948 0.83798 0.0
S1150 S 0.81148 0.11766 0.87972 0.0
N1151 N 0.80893 0.15032 0.89783 0.0
N1152 N 0.82678 0.1376 0.85393 0.0
C1153 C 0.83061 0.17274 0.85929 0.0
C1154 C 0.82051 0.17948 0.883 0.0
C1155 C 0.3076 0.15889 0.47049 0.0
C1156 C 0.27542 0.12271 0.46189 0.0
C1157 C 0.32552 0.16538 0.49425 0.0
C1158 C 0.3117 0.13601 0.51029 0.0
H1159 H 0.31961 0.18207 0.45857 0.0
H1160 H 0.35042 0.19359 0.50012 0.0
S1161 S 0.22762 0.03654 0.49686 0.0
N1162 N 0.22963 0.05753 0.47147 0.0
N1163 N 0.2638 0.06957 0.51604 0.0
C1164 C 0.27915 0.09991 0.50206 0.0
C1165 C 0.26094 0.09328 0.47787 0.0
C1166 C 0.87886 0.15914 0.46678 0.0
C1167 C 0.91758 0.16769 0.46458 0.0
C1168 C 0.86676 0.16547 0.48923 0.0
C1169 C 0.8928 0.18046 0.51051 0.0
H1170 H 0.85752 0.14695 0.451 0.0
H1171 H 0.83641 0.15755 0.49004 0.0
S1172 S 0.99801 0.20968 0.51438 0.0
N1173 N 0.9824 0.1933 0.48539 0.0
N1174 N 0.95973 0.20551 0.52774 0.0
C1175 C 0.93192 0.19007 0.5085 0.0
C1176 C 0.94433 0.18379 0.48549 0.0
C1177 C 0.8539 0.75349 0.48671 0.0
C1178 C 0.87196 0.74309 0.46872 0.0
C1179 C 0.84457 0.7354 0.50858 0.0
C1180 C 0.85311 0.70629 0.51348 0.0
H1181 H 0.84706 0.776 0.48393 0.0
H1182 H 0.83078 0.74449 0.52187 0.0
S1183 S 0.89807 0.66669 0.47196 0.0
N1184 N 0.89647 0.70047 0.45697 0.0
N1185 N 0.87942 0.66692 0.4982 0.0
C1186 C 0.87114 0.69556 0.49571 0.0
C1187 C 0.88045 0.71383 0.47335 0.0
loop_
_geom_bond_atom_site_label_1
_geom_bond_atom_site_label_2
_geom_bond_distance
_geom_bond_site_symmetry_2
_ccdc_geom_bond_type
H0 C7 0.929 . S
H1 C10 0.930 . S
H2 C12 0.929 . S
H3 C4 0.969 . S
C4 H3 0.969 . S
C4 O5 1.550 . S
C4 H6 0.973 . S
O5 C4 1.550 . S
O5 C11 1.412 . S
H6 C4 0.973 . S
C7 H0 0.929 . S
C7 C8 1.400 . S
C7 C9 1.364 . S
C8 C7 1.400 . S
C8 C12 1.377 . S
C9 C7 1.364 . S
C9 C10 1.374 . S
C10 H1 0.930 . S
C10 C9 1.374 . S
C10 C11 1.383 . S
C11 O5 1.412 . S
C11 C10 1.383 . S
C11 C12 1.394 . S
C12 H2 0.929 . S
C12 C8 1.377 . S
C12 C11 1.394 . S
H13 C20 0.929 . S
H14 C23 0.930 . S
H15 C25 0.929 . S
H16 C17 0.969 . S
C17 H16 0.969 . S
C17 O18 1.550 . S
C17 H19 0.973 . S
O18 C17 1.550 . S
O18 C24 1.412 . S
H19 C17 0.973 . S
C20 H13 0.929 . S
C20 C21 1.400 . S
C20 C22 1.364 . S
C21 C20 1.400 . S
C21 C25 1.377 . S
C22 C20 1.364 . S
C22 C23 1.374 . S
C23 H14 0.930 . S
C23 C22 1.374 . S
C23 C24 1.383 . S
C24 O18 1.412 . S
C24 C23 1.383 . S
C24 C25 1.394 . S
C25 H15 0.929 . S
C25 C21 1.377 . S
C25 C24 1.394 . S
H26 C33 0.929 . S
H27 C36 0.930 . S
H28 C38 0.929 . S
H29 C30 0.969 . S
C30 H29 0.969 . S
C30 O31 1.550 . S
C30 H32 0.973 . S
O31 C30 1.550 . S
O31 C37 1.412 . S
H32 C30 0.973 . S
C33 H26 0.929 . S
C33 C34 1.400 . S
C33 C35 1.364 . S
C34 C33 1.400 . S
C34 C38 1.377 . S
C35 C33 1.364 . S
C35 C36 1.374 . S
C36 H27 0.930 . S
C36 C35 1.374 . S
C36 C37 1.383 . S
C37 O31 1.412 . S
C37 C36 1.383 . S
C37 C38 1.394 . S
C38 H28 0.929 . S
C38 C34 1.377 . S
C38 C37 1.394 . S
H39 C46 0.929 . S
H40 C49 0.930 . S
H41 C51 0.929 . S
H42 C43 0.969 . S
C43 H42 0.969 . S
C43 O44 1.550 . S
C43 H45 0.973 . S
O44 C43 1.550 . S
O44 C50 1.412 . S
H45 C43 0.973 . S
C46 H39 0.929 . S
C46 C47 1.400 . S
C46 C48 1.364 . S
C47 C46 1.400 . S
C47 C51 1.377 . S
C48 C46 1.364 . S
C48 C49 1.374 . S
C49 H40 0.930 . S
C49 C48 1.374 . S
C49 C50 1.383 . S
C50 O44 1.412 . S
C50 C49 1.383 . S
C50 C51 1.394 . S
C51 H41 0.929 . S
C51 C47 1.377 . S
C51 C50 1.394 . S
H52 C59 0.929 . S
H53 C62 0.930 . S
H54 C64 0.929 . S
H55 C56 0.969 . S
C56 H55 0.969 . S
C56 O57 1.550 . S
C56 H58 0.973 . S
O57 C56 1.550 . S
O57 C63 1.412 . S
H58 C56 0.973 . S
C59 H52 0.929 . S
C59 C60 1.400 . S
C59 C61 1.364 . S
C60 C59 1.400 . S
C60 C64 1.377 . S
C61 C59 1.364 . S
C61 C62 1.374 . S
C62 H53 0.930 . S
C62 C61 1.374 . S
C62 C63 1.383 . S
C63 O57 1.412 . S
C63 C62 1.383 . S
C63 C64 1.394 . S
C64 H54 0.929 . S
C64 C60 1.377 . S
C64 C63 1.394 . S
H65 C72 0.929 . S
H66 C75 0.930 . S
H67 C77 0.929 . S
H68 C69 0.969 . S
C69 H68 0.969 . S
C69 O70 1.550 . S
C69 H71 0.973 . S
O70 C69 1.550 . S
O70 C76 1.412 . S
H71 C69 0.973 . S
C72 H65 0.929 . S
C72 C73 1.400 . S
C72 C74 1.364 . S
C73 C72 1.400 . S
C73 C77 1.377 . S
C74 C72 1.364 . S
C74 C75 1.374 . S
C75 H66 0.930 . S
C75 C74 1.374 . S
C75 C76 1.383 . S
C76 O70 1.412 . S
C76 C75 1.383 . S
C76 C77 1.394 . S
C77 H67 0.929 . S
C77 C73 1.377 . S
C77 C76 1.394 . S
H78 C85 0.929 . S
H79 C88 0.930 . S
H80 C90 0.929 . S
H81 C82 0.969 . S
C82 H81 0.969 . S
C82 O83 1.550 . S
C82 H84 0.973 . S
O83 C82 1.550 . S
O83 C89 1.412 . S
H84 C82 0.973 . S
C85 H78 0.929 . S
C85 C86 1.400 . S
C85 C87 1.364 . S
C86 C85 1.400 . S
C86 C90 1.377 . S
C87 C85 1.364 . S
C87 C88 1.374 . S
C88 H79 0.930 . S
C88 C87 1.374 . S
C88 C89 1.383 . S
C89 O83 1.412 . S
C89 C88 1.383 . S
C89 C90 1.394 . S
C90 H80 0.929 . S
C90 C86 1.377 . S
C90 C89 1.394 . S
H91 C98 0.929 . S
H92 C101 0.930 . S
H93 C103 0.929 . S
H94 C95 0.969 . S
C95 H94 0.969 . S
C95 O96 1.550 . S
C95 H97 0.973 . S
O96 C95 1.550 . S
O96 C102 1.412 . S
H97 C95 0.973 . S
C98 H91 0.929 . S
C98 C99 1.400 . S
C98 C100 1.364 . S
C99 C98 1.400 . S
C99 C103 1.377 . S
C100 C98 1.364 . S
C100 C101 1.374 . S
C101 H92 0.930 . S
C101 C100 1.374 . S
C101 C102 1.383 . S
C102 O96 1.412 . S
C102 C101 1.383 . S
C102 C103 1.394 . S
C103 H93 0.929 . S
C103 C99 1.377 . S
C103 C102 1.394 . S
H104 C111 0.929 . S
H105 C114 0.930 . S
H106 C116 0.929 . S
H107 C108 0.969 . S
C108 H107 0.969 . S
C108 O109 1.550 . S
C108 H110 0.973 . S
O109 C108 1.550 . S
O109 C115 1.412 . S
H110 C108 0.973 . S
C111 H104 0.929 . S
C111 C112 1.400 . S
C111 C113 1.364 . S
C112 C111 1.400 . S
C112 C116 1.377 . S
C113 C111 1.364 . S
C113 C114 1.374 . S
C114 H105 0.930 . S
C114 C113 1.374 . S
C114 C115 1.383 . S
C115 O109 1.412 . S
C115 C114 1.383 . S
C115 C116 1.394 . S
C116 H106 0.929 . S
C116 C112 1.377 . S
C116 C115 1.394 . S
H117 C124 0.929 . S
H118 C127 0.930 . S
H119 C129 0.929 . S
H120 C121 0.969 . S
C121 H120 0.969 . S
C121 O122 1.550 . S
C121 H123 0.973 . S
O122 C121 1.550 . S
O122 C128 1.412 . S
H123 C121 0.973 . S
C124 H117 0.929 . S
C124 C125 1.400 . S
C124 C126 1.364 . S
C125 C124 1.400 . S
C125 C129 1.377 . S
C126 C124 1.364 . S
C126 C127 1.374 . S
C127 H118 0.930 . S
C127 C126 1.374 . S
C127 C128 1.383 . S
C128 O122 1.412 . S
C128 C127 1.383 . S
C128 C129 1.394 . S
C129 H119 0.929 . S
C129 C125 1.377 . S
C129 C128 1.394 . S
H130 C137 0.929 . S
H131 C140 0.930 . S
H132 C142 0.929 1_554 S
H133 C134 0.969 . S
C134 H133 0.969 . S
C134 O135 1.550 . S
C134 H136 0.973 . S
O135 C134 1.550 . S
O135 C141 1.412 . S
H136 C134 0.973 . S
C137 H130 0.929 . S
C137 C138 1.400 . S
C137 C139 1.364 . S
C138 C137 1.400 . S
C138 C142 1.377 . S
C139 C137 1.364 . S
C139 C140 1.374 . S
C140 H131 0.930 . S
C140 C139 1.374 . S
C140 C141 1.383 . S
C141 O135 1.412 . S
C141 C140 1.383 . S
C141 C142 1.394 . S
C142 H132 0.929 1_556 S
C142 C138 1.377 . S
C142 C141 1.394 . S
H143 C150 0.929 . S
H144 C153 0.930 . S
H145 C155 0.929 . S
H146 C147 0.969 . S
C147 H146 0.969 . S
C147 O148 1.550 . S
C147 H149 0.973 . S
O148 C147 1.550 . S
O148 C154 1.412 . S
H149 C147 0.973 . S
C150 H143 0.929 . S
C150 C151 1.400 . S
C150 C152 1.364 . S
C151 C150 1.400 . S
C151 C155 1.377 . S
C152 C150 1.364 . S
C152 C153 1.374 . S
C153 H144 0.930 . S
C153 C152 1.374 . S
C153 C154 1.383 . S
C154 O148 1.412 . S
C154 C153 1.383 . S
C154 C155 1.394 . S
C155 H145 0.929 . S
C155 C151 1.377 . S
C155 C154 1.394 . S
H156 C163 0.929 . S
H157 C166 0.930 . S
H158 C168 0.929 . S
H159 C160 0.969 . S
C160 H159 0.969 . S
C160 O161 1.550 . S
C160 H162 0.973 . S
O161 C160 1.550 . S
O161 C167 1.412 . S
H162 C160 0.973 . S
C163 H156 0.929 . S
C163 C164 1.400 . S
C163 C165 1.364 . S
C164 C163 1.400 . S
C164 C168 1.377 . S
C165 C163 1.364 . S
C165 C166 1.374 . S
C166 H157 0.930 . S
C166 C165 1.374 . S
C166 C167 1.383 . S
C167 O161 1.412 . S
C167 C166 1.383 . S
C167 C168 1.394 . S
C168 H158 0.929 . S
C168 C164 1.377 . S
C168 C167 1.394 . S
H169 C176 0.929 . S
H170 C179 0.930 . S
H171 C181 0.929 . S
H172 C173 0.969 . S
C173 H172 0.969 . S
C173 O174 1.550 . S
C173 H175 0.973 . S
O174 C173 1.550 . S
O174 C180 1.412 . S
H175 C173 0.973 . S
C176 H169 0.929 . S
C176 C177 1.400 . S
C176 C178 1.364 . S
C177 C176 1.400 . S
C177 C181 1.377 . S
C178 C176 1.364 . S
C178 C179 1.374 . S
C179 H170 0.930 . S
C179 C178 1.374 . S
C179 C180 1.383 . S
C180 O174 1.412 . S
C180 C179 1.383 . S
C180 C181 1.394 . S
C181 H171 0.929 . S
C181 C177 1.377 . S
C181 C180 1.394 . S
H182 C189 0.929 . S
H183 C192 0.930 . S
H184 C194 0.929 . S
H185 C186 0.969 . S
C186 H185 0.969 . S
C186 O187 1.550 . S
C186 H188 0.973 . S
O187 C186 1.550 . S
O187 C193 1.412 . S
H188 C186 0.973 . S
C189 H182 0.929 . S
C189 C190 1.400 . S
C189 C191 1.364 . S
C190 C189 1.400 . S
C190 C194 1.377 . S
C191 C189 1.364 . S
C191 C192 1.374 . S
C192 H183 0.930 . S
C192 C191 1.374 . S
C192 C193 1.383 . S
C193 O187 1.412 . S
C193 C192 1.383 . S
C193 C194 1.394 . S
C194 H184 0.929 . S
C194 C190 1.377 . S
C194 C193 1.394 . S
H195 C202 0.929 . S
H196 C205 0.930 . S
H197 C207 0.929 . S
H198 C199 0.969 . S
C199 H198 0.969 . S
C199 O200 1.550 . S
C199 H201 0.973 . S
O200 C199 1.550 . S
O200 C206 1.412 . S
H201 C199 0.973 . S
C202 H195 0.929 . S
C202 C203 1.400 . S
C202 C204 1.364 . S
C203 C202 1.400 . S
C203 C207 1.377 . S
C204 C202 1.364 . S
C204 C205 1.374 . S
C205 H196 0.930 . S
C205 C204 1.374 . S
C205 C206 1.383 . S
C206 O200 1.412 . S
C206 C205 1.383 . S
C206 C207 1.394 . S
C207 H197 0.929 . S
C207 C203 1.377 . S
C207 C206 1.394 . S
H208 C215 0.929 . S
H209 C218 0.930 . S
H210 C220 0.929 . S
H211 C212 0.969 . S
C212 H211 0.969 . S
C212 O213 1.550 . S
C212 H214 0.973 . S
O213 C212 1.550 . S
O213 C219 1.412 . S
H214 C212 0.973 . S
C215 H208 0.929 . S
C215 C216 1.400 . S
C215 C217 1.364 . S
C216 C215 1.400 . S
C216 C220 1.377 . S
C217 C215 1.364 . S
C217 C218 1.374 . S
C218 H209 0.930 . S
C218 C217 1.374 . S
C218 C219 1.383 . S
C219 O213 1.412 . S
C219 C218 1.383 . S
C219 C220 1.394 . S
C220 H210 0.929 . S
C220 C216 1.377 . S
C220 C219 1.394 . S
H221 C228 0.929 . S
H222 C231 0.930 . S
H223 C233 0.929 . S
H224 C225 0.969 . S
C225 H224 0.969 . S
C225 O226 1.550 . S
C225 H227 0.973 . S
O226 C225 1.550 . S
O226 C232 1.412 . S
H227 C225 0.973 . S
C228 H221 0.929 . S
C228 C229 1.400 . S
C228 C230 1.364 . S
C229 C228 1.400 . S
C229 C233 1.377 . S
C230 C228 1.364 . S
C230 C231 1.374 . S
C231 H222 0.930 . S
C231 C230 1.374 . S
C231 C232 1.383 . S
C232 O226 1.412 . S
C232 C231 1.383 . S
C232 C233 1.394 . S
C233 H223 0.929 . S
C233 C229 1.377 . S
C233 C232 1.394 . S
Eu234 C243 2.828 1_565 S
Eu234 O245 2.392 . S
Eu234 O247 2.418 . S
Eu234 O252 2.373 1_565 S
Eu234 O255 2.488 . S
Eu234 O256 2.471 1_565 S
Eu234 O257 2.349 1_565 S
Eu235 O244 2.373 1_545 S
Eu235 O248 2.488 . S
Eu235 O249 2.471 1_545 S
Eu235 O250 2.349 1_545 S
Eu235 O253 2.392 . S
Eu235 O254 2.418 . S
Eu235 C264 2.828 . S
C236 O254 1.244 . S
C236 O257 1.265 1_554 S
C237 C238 1.379 . S
C237 C241 1.373 1_545 S
C237 C243 1.505 . S
C238 C237 1.379 . S
C238 C240 1.369 . S
C238 H266 0.930 . S
C239 C241 1.383 1_545 S
C239 C242 1.382 . S
C239 H267 0.930 1_545 S
C240 C238 1.369 . S
C240 C242 1.392 . S
C240 H268 0.930 . S
C241 C237 1.373 1_565 S
C241 C239 1.383 1_565 S
C241 H269 0.931 . S
C242 C239 1.382 . S
C242 C240 1.392 . S
C243 Eu234 2.828 1_545 S
C243 C237 1.505 . S
C243 O255 1.249 1_545 S
C243 O256 1.244 . S
O244 Eu235 2.373 1_565 S
O244 C246 1.258 . S
O245 Eu234 2.392 . S
O245 C246 1.242 1_556 S
C246 O244 1.258 . S
C246 O245 1.242 1_554 S
O247 Eu234 2.418 . S
O247 C251 1.244 1_556 S
O248 Eu235 2.488 . S
O248 C264 1.249 . S
O249 Eu235 2.471 1_565 S
O249 C264 1.244 1_565 S
O250 Eu235 2.349 1_565 S
O250 C251 1.265 . S
C251 O247 1.244 1_554 S
C251 O250 1.265 . S
O252 Eu234 2.373 1_545 S
O252 C265 1.258 . S
O253 Eu235 2.392 . S
O253 C265 1.242 1_554 S
O254 Eu235 2.418 . S
O254 C236 1.244 . S
O255 Eu234 2.488 . S
O255 C243 1.249 1_565 S
O256 Eu234 2.471 1_545 S
O256 C243 1.244 . S
O257 Eu234 2.349 1_545 S
O257 C236 1.265 1_556 S
C258 C259 1.379 . S
C258 C262 1.373 1_565 S
C258 C264 1.505 1_565 S
C259 C258 1.379 . S
C259 C261 1.369 . S
C259 H270 0.930 . S
C260 C262 1.383 . S
C260 C263 1.382 1_545 S
C260 H271 0.930 . S
C261 C259 1.369 . S
C261 C263 1.392 . S
C261 H272 0.930 . S
C262 C258 1.373 1_545 S
C262 C260 1.383 . S
C262 H273 0.931 . S
C263 C260 1.382 1_565 S
C263 C261 1.392 . S
C264 Eu235 2.828 . S
C264 O248 1.249 . S
C264 O249 1.244 1_545 S
C264 C258 1.505 1_545 S
C265 O252 1.258 . S
C265 O253 1.242 1_556 S
H266 C238 0.930 . S
H267 C239 0.930 1_565 S
H268 C240 0.930 . S
H269 C241 0.931 . S
H270 C259 0.930 . S
H271 C260 0.930 . S
H272 C261 0.930 . S
H273 C262 0.931 . S
Eu274 C283 2.827 1_455 S
Eu274 O285 2.358 1_556 S
Eu274 O287 2.418 . S
Eu274 O292 2.373 1_455 S
Eu274 O295 2.488 . S
Eu274 O296 2.471 1_455 S
Eu274 O297 2.349 1_455 S
Eu275 O284 2.373 1_655 S
Eu275 O288 2.488 . S
Eu275 O289 2.471 1_655 S
Eu275 O290 2.349 1_655 S
Eu275 O293 2.392 . S
Eu275 O294 2.418 . S
Eu275 C304 2.828 1_655 S
C276 O294 1.244 1_556 S
C276 O297 1.265 . S
C277 C278 1.379 . S
C277 C281 1.373 1_655 S
C277 C283 1.506 . S
C278 C277 1.379 . S
C278 C280 1.369 . S
C278 H306 0.930 . S
C279 C281 1.383 1_655 S
C279 C282 1.382 . S
C279 H307 0.930 1_655 S
C280 C278 1.369 . S
C280 C282 1.392 . S
C280 H308 0.930 . S
C281 C277 1.373 1_455 S
C281 C279 1.383 1_455 S
C281 H309 0.931 . S
C282 C279 1.382 . S
C282 C280 1.392 . S
C283 Eu274 2.827 1_655 S
C283 C277 1.506 . S
C283 O295 1.248 1_655 S
C283 O296 1.245 . S
O284 Eu275 2.373 1_455 S
O284 C286 1.258 . S
O285 Eu274 2.358 1_554 S
O285 C286 1.289 . S
C286 O284 1.258 . S
C286 O285 1.289 . S
O287 Eu274 2.418 . S
O287 C291 1.244 1_556 S
O288 Eu275 2.488 . S
O288 C304 1.249 1_655 S
O289 Eu275 2.471 1_455 S
O289 C304 1.244 . S
O290 Eu275 2.349 1_455 S
O290 C291 1.265 . S
C291 O287 1.244 1_554 S
C291 O290 1.265 . S
O292 Eu274 2.373 1_655 S
O292 C305 1.258 . S
O293 Eu275 2.392 . S
O293 C305 1.242 1_554 S
O294 Eu275 2.418 . S
O294 C276 1.244 1_554 S
O295 Eu274 2.488 . S
O295 C283 1.248 1_455 S
O296 Eu274 2.471 1_655 S
O296 C283 1.245 . S
O297 Eu274 2.349 1_655 S
O297 C276 1.265 . S
C298 C299 1.379 . S
C298 C302 1.373 1_455 S
C298 C304 1.505 . S
C299 C298 1.379 . S
C299 C301 1.369 . S
C299 H310 0.930 . S
C300 C302 1.383 1_455 S
C300 C303 1.382 . S
C300 H311 0.930 1_455 S
C301 C299 1.369 . S
C301 C303 1.392 . S
C301 H312 0.930 . S
C302 C298 1.373 1_655 S
C302 C300 1.383 1_655 S
C302 H313 0.931 . S
C303 C300 1.382 . S
C303 C301 1.392 . S
C304 Eu275 2.828 1_455 S
C304 O288 1.249 1_455 S
C304 O289 1.244 . S
C304 C298 1.505 . S
C305 O292 1.258 . S
C305 O293 1.242 1_556 S
H306 C278 0.930 . S
H307 C279 0.930 1_455 S
H308 C280 0.930 . S
H309 C281 0.931 . S
H310 C299 0.930 . S
H311 C300 0.930 1_655 S
H312 C301 0.930 . S
H313 C302 0.931 . S
Eu314 C323 2.828 . S
Eu314 O325 2.392 . S
Eu314 O327 2.418 . S
Eu314 O332 2.373 . S
Eu314 O335 2.488 . S
Eu314 O336 2.471 . S
Eu314 O337 2.349 . S
Eu315 O324 2.373 . S
Eu315 O328 2.488 . S
Eu315 O329 2.471 . S
Eu315 O330 2.349 . S
Eu315 O333 2.392 1_556 S
Eu315 O334 2.418 . S
Eu315 C344 2.828 . S
C316 O334 1.244 1_554 S
C316 O337 1.265 . S
C317 C318 1.379 . S
C317 C321 1.373 . S
C317 C323 1.505 . S
C318 C317 1.379 . S
C318 C320 1.369 . S
C318 H346 0.930 . S
C319 C321 1.383 . S
C319 C322 1.382 . S
C319 H347 0.930 . S
C320 C318 1.369 . S
C320 C322 1.392 . S
C320 H348 0.930 . S
C321 C317 1.373 . S
C321 C319 1.383 . S
C321 H349 0.931 . S
C322 C319 1.382 . S
C322 C320 1.392 . S
C323 Eu314 2.828 . S
C323 C317 1.505 . S
C323 O335 1.249 . S
C323 O336 1.244 . S
O324 Eu315 2.373 . S
O324 C326 1.258 . S
O325 Eu314 2.392 . S
O325 C326 1.242 1_554 S
C326 O324 1.258 . S
C326 O325 1.242 1_556 S
O327 Eu314 2.418 . S
O327 C331 1.244 . S
O328 Eu315 2.488 . S
O328 C344 1.249 . S
O329 Eu315 2.471 . S
O329 C344 1.244 . S
O330 Eu315 2.349 . S
O330 C331 1.265 1_556 S
C331 O327 1.244 . S
C331 O330 1.265 1_554 S
O332 Eu314 2.373 . S
O332 C345 1.258 . S
O333 Eu315 2.392 1_554 S
O333 C345 1.242 . S
O334 Eu315 2.418 . S
O334 C316 1.244 1_556 S
O335 Eu314 2.488 . S
O335 C323 1.249 . S
O336 Eu314 2.471 . S
O336 C323 1.244 . S
O337 Eu314 2.349 . S
O337 C316 1.265 . S
C338 C339 1.379 . S
C338 C342 1.373 . S
C338 C344 1.505 . S
C339 C338 1.379 . S
C339 C341 1.369 . S
C339 H350 0.930 . S
C340 C342 1.383 . S
C340 C343 1.382 . S
C340 H351 0.930 . S
C341 C339 1.369 . S
C341 C343 1.392 . S
C341 H352 0.930 . S
C342 C338 1.373 . S
C342 C340 1.383 . S
C342 H353 0.931 . S
C343 C340 1.382 . S
C343 C341 1.392 . S
C344 Eu315 2.828 . S
C344 O328 1.249 . S
C344 O329 1.244 . S
C344 C338 1.505 . S
C345 O332 1.258 . S
C345 O333 1.242 . S
H346 C318 0.930 . S
H347 C319 0.930 . S
H348 C320 0.930 . S
H349 C321 0.931 . S
H350 C339 0.930 . S
H351 C340 0.930 . S
H352 C341 0.930 . S
H353 C342 0.931 . S
Eu354 C363 2.828 . S
Eu354 O365 2.392 . S
Eu354 O367 2.418 . S
Eu354 O372 2.373 . S
Eu354 O375 2.488 . S
Eu354 O376 2.471 . S
Eu354 O377 2.349 . S
Eu355 O364 2.373 . S
Eu355 O368 2.488 . S
Eu355 O369 2.471 . S
Eu355 O370 2.349 . S
Eu355 O373 2.392 . S
Eu355 O374 2.418 . S
Eu355 C384 2.828 . S
C356 O374 1.244 . S
C356 O377 1.265 . S
C357 C358 1.379 . S
C357 C361 1.373 . S
C357 C363 1.505 . S
C358 C357 1.379 . S
C358 C360 1.369 . S
C358 H386 0.930 . S
C359 C361 1.383 . S
C359 C362 1.382 . S
C359 H387 0.930 . S
C360 C358 1.369 . S
C360 C362 1.392 . S
C360 H388 0.930 . S
C361 C357 1.373 . S
C361 C359 1.383 . S
C361 H389 0.931 . S
C362 C359 1.382 . S
C362 C360 1.392 . S
C363 Eu354 2.828 . S
C363 C357 1.505 . S
C363 O375 1.249 . S
C363 O376 1.244 . S
O364 Eu355 2.373 . S
O364 C366 1.258 . S
O365 Eu354 2.392 . S
O365 C366 1.242 . S
C366 O364 1.258 . S
C366 O365 1.242 . S
O367 Eu354 2.418 . S
O367 C371 1.244 . S
O368 Eu355 2.488 . S
O368 C384 1.249 . S
O369 Eu355 2.471 . S
O369 C384 1.244 . S
O370 Eu355 2.349 . S
O370 C371 1.265 . S
C371 O367 1.244 . S
C371 O370 1.265 . S
O372 Eu354 2.373 . S
O372 C385 1.258 . S
O373 Eu355 2.392 . S
O373 C385 1.242 . S
O374 Eu355 2.418 . S
O374 C356 1.244 . S
O375 Eu354 2.488 . S
O375 C363 1.249 . S
O376 Eu354 2.471 . S
O376 C363 1.244 . S
O377 Eu354 2.349 . S
O377 C356 1.265 . S
C378 C379 1.379 . S
C378 C382 1.373 . S
C378 C384 1.505 . S
C379 C378 1.379 . S
C379 C381 1.369 . S
C379 H390 0.930 . S
C380 C382 1.383 . S
C380 C383 1.382 . S
C380 H391 0.930 . S
C381 C379 1.369 . S
C381 C383 1.392 . S
C381 H392 0.930 . S
C382 C378 1.373 . S
C382 C380 1.383 . S
C382 H393 0.931 . S
C383 C380 1.382 . S
C383 C381 1.392 . S
C384 Eu355 2.828 . S
C384 O368 1.249 . S
C384 O369 1.244 . S
C384 C378 1.505 . S
C385 O372 1.258 . S
C385 O373 1.242 . S
H386 C358 0.930 . S
H387 C359 0.930 . S
H388 C360 0.930 . S
H389 C361 0.931 . S
H390 C379 0.930 . S
H391 C380 0.930 . S
H392 C381 0.930 . S
H393 C382 0.931 . S
Eu394 C403 2.828 . S
Eu394 O405 2.392 . S
Eu394 O407 2.418 . S
Eu394 O412 2.373 . S
Eu394 O415 2.488 . S
Eu394 O416 2.471 . S
Eu394 O417 2.349 . S
Eu395 O404 2.373 . S
Eu395 O408 2.488 . S
Eu395 O409 2.471 . S
Eu395 O410 2.349 . S
Eu395 O413 2.392 . S
Eu395 O414 2.418 . S
Eu395 C424 2.828 . S
C396 O414 1.244 . S
C396 O417 1.265 . S
C397 C398 1.379 . S
C397 C401 1.373 . S
C397 C403 1.505 . S
C398 C397 1.379 . S
C398 C400 1.369 . S
C398 H426 0.930 . S
C399 C401 1.383 . S
C399 C402 1.382 . S
C399 H427 0.930 . S
C400 C398 1.369 . S
C400 C402 1.392 . S
C400 H428 0.930 . S
C401 C397 1.373 . S
C401 C399 1.383 . S
C401 H429 0.931 . S
C402 C399 1.382 . S
C402 C400 1.392 . S
C403 Eu394 2.828 . S
C403 C397 1.505 . S
C403 O415 1.249 . S
C403 O416 1.244 . S
O404 Eu395 2.373 . S
O404 C406 1.258 . S
O405 Eu394 2.392 . S
O405 C406 1.242 . S
C406 O404 1.258 . S
C406 O405 1.242 . S
O407 Eu394 2.418 . S
O407 C411 1.244 . S
O408 Eu395 2.488 . S
O408 C424 1.249 . S
O409 Eu395 2.471 . S
O409 C424 1.244 . S
O410 Eu395 2.349 . S
O410 C411 1.265 . S
C411 O407 1.244 . S
C411 O410 1.265 . S
O412 Eu394 2.373 . S
O412 C425 1.258 . S
O413 Eu395 2.392 . S
O413 C425 1.242 . S
O414 Eu395 2.418 . S
O414 C396 1.244 . S
O415 Eu394 2.488 . S
O415 C403 1.249 . S
O416 Eu394 2.471 . S
O416 C403 1.244 . S
O417 Eu394 2.349 . S
O417 C396 1.265 . S
C418 C419 1.379 . S
C418 C422 1.373 . S
C418 C424 1.505 . S
C419 C418 1.379 . S
C419 C421 1.369 . S
C419 H430 0.930 . S
C420 C422 1.383 . S
C420 C423 1.382 . S
C420 H431 0.930 . S
C421 C419 1.369 . S
C421 C423 1.392 . S
C421 H432 0.930 . S
C422 C418 1.373 . S
C422 C420 1.383 . S
C422 H433 0.931 . S
C423 C420 1.382 . S
C423 C421 1.392 . S
C424 Eu395 2.828 . S
C424 O408 1.249 . S
C424 O409 1.244 . S
C424 C418 1.505 . S
C425 O412 1.258 . S
C425 O413 1.242 . S
H426 C398 0.930 . S
H427 C399 0.930 . S
H428 C400 0.930 . S
H429 C401 0.931 . S
H430 C419 0.930 . S
H431 C420 0.930 . S
H432 C421 0.930 . S
H433 C422 0.931 . S
Eu434 C443 2.828 . S
Eu434 O445 2.392 . S
Eu434 O447 2.418 . S
Eu434 O452 2.373 . S
Eu434 O455 2.488 . S
Eu434 O456 2.471 . S
Eu434 O457 2.349 . S
Eu435 O444 2.373 . S
Eu435 O448 2.488 . S
Eu435 O449 2.471 . S
Eu435 O450 2.349 . S
Eu435 O453 2.392 . S
Eu435 O454 2.418 . S
Eu435 C464 2.828 . S
C436 O454 1.244 . S
C436 O457 1.265 . S
C437 C438 1.379 . S
C437 C441 1.373 . S
C437 C443 1.505 . S
C438 C437 1.379 . S
C438 C440 1.369 . S
C438 H466 0.930 . S
C439 C441 1.383 . S
C439 C442 1.382 . S
C439 H467 0.930 . S
C440 C438 1.369 . S
C440 C442 1.392 . S
C440 H468 0.930 . S
C441 C437 1.373 . S
C441 C439 1.383 . S
C441 H469 0.931 . S
C442 C439 1.382 . S
C442 C440 1.392 . S
C443 Eu434 2.828 . S
C443 C437 1.505 . S
C443 O455 1.249 . S
C443 O456 1.244 . S
O444 Eu435 2.373 . S
O444 C446 1.258 . S
O445 Eu434 2.392 . S
O445 C446 1.242 . S
C446 O444 1.258 . S
C446 O445 1.242 . S
O447 Eu434 2.418 . S
O447 C451 1.244 . S
O448 Eu435 2.488 . S
O448 C464 1.249 . S
O449 Eu435 2.471 . S
O449 C464 1.244 . S
O450 Eu435 2.349 . S
O450 C451 1.265 . S
C451 O447 1.244 . S
C451 O450 1.265 . S
O452 Eu434 2.373 . S
O452 C465 1.258 . S
O453 Eu435 2.392 . S
O453 C465 1.242 . S
O454 Eu435 2.418 . S
O454 C436 1.244 . S
O455 Eu434 2.488 . S
O455 C443 1.249 . S
O456 Eu434 2.471 . S
O456 C443 1.244 . S
O457 Eu434 2.349 . S
O457 C436 1.265 . S
C458 C459 1.379 . S
C458 C462 1.373 . S
C458 C464 1.505 . S
C459 C458 1.379 . S
C459 C461 1.369 . S
C459 H470 0.930 . S
C460 C462 1.383 . S
C460 C463 1.382 . S
C460 H471 0.930 . S
C461 C459 1.369 . S
C461 C463 1.392 . S
C461 H472 0.930 . S
C462 C458 1.373 . S
C462 C460 1.383 . S
C462 H473 0.931 . S
C463 C460 1.382 . S
C463 C461 1.392 . S
C464 Eu435 2.828 . S
C464 O448 1.249 . S
C464 O449 1.244 . S
C464 C458 1.505 . S
C465 O452 1.258 . S
C465 O453 1.242 . S
H466 C438 0.930 . S
H467 C439 0.930 . S
H468 C440 0.930 . S
H469 C441 0.931 . S
H470 C459 0.930 . S
H471 C460 0.930 . S
H472 C461 0.930 . S
H473 C462 0.931 . S
Eu474 C483 2.828 . S
Eu474 O485 2.392 . S
Eu474 O487 2.418 . S
Eu474 O492 2.373 . S
Eu474 O495 2.488 . S
Eu474 O496 2.471 . S
Eu474 O497 2.349 . S
Eu475 O484 2.373 . S
Eu475 O488 2.488 . S
Eu475 O489 2.471 . S
Eu475 O490 2.349 . S
Eu475 O493 2.392 . S
Eu475 O494 2.418 . S
Eu475 C504 2.828 . S
C476 O494 1.244 . S
C476 O497 1.265 . S
C477 C478 1.379 . S
C477 C481 1.373 . S
C477 C483 1.505 . S
C478 C477 1.379 . S
C478 C480 1.369 . S
C478 H506 0.930 . S
C479 C481 1.383 . S
C479 C482 1.382 . S
C479 H507 0.930 . S
C480 C478 1.369 . S
C480 C482 1.392 . S
C480 H508 0.930 . S
C481 C477 1.373 . S
C481 C479 1.383 . S
C481 H509 0.931 . S
C482 C479 1.382 . S
C482 C480 1.392 . S
C483 Eu474 2.828 . S
C483 C477 1.505 . S
C483 O495 1.249 . S
C483 O496 1.244 . S
O484 Eu475 2.373 . S
O484 C486 1.258 . S
O485 Eu474 2.392 . S
O485 C486 1.242 . S
C486 O484 1.258 . S
C486 O485 1.242 . S
O487 Eu474 2.418 . S
O487 C491 1.244 . S
O488 Eu475 2.488 . S
O488 C504 1.249 . S
O489 Eu475 2.471 . S
O489 C504 1.244 . S
O490 Eu475 2.349 . S
O490 C491 1.265 . S
C491 O487 1.244 . S
C491 O490 1.265 . S
O492 Eu474 2.373 . S
O492 C505 1.258 . S
O493 Eu475 2.392 . S
O493 C505 1.242 . S
O494 Eu475 2.418 . S
O494 C476 1.244 . S
O495 Eu474 2.488 . S
O495 C483 1.249 . S
O496 Eu474 2.471 . S
O496 C483 1.244 . S
O497 Eu474 2.349 . S
O497 C476 1.265 . S
C498 C499 1.379 . S
C498 C502 1.373 . S
C498 C504 1.505 . S
C499 C498 1.379 . S
C499 C501 1.369 . S
C499 H510 0.930 . S
C500 C502 1.383 . S
C500 C503 1.382 . S
C500 H511 0.930 . S
C501 C499 1.369 . S
C501 C503 1.392 . S
C501 H512 0.930 . S
C502 C498 1.373 . S
C502 C500 1.383 . S
C502 H513 0.931 . S
C503 C500 1.382 . S
C503 C501 1.392 . S
C504 Eu475 2.828 . S
C504 O488 1.249 . S
C504 O489 1.244 . S
C504 C498 1.505 . S
C505 O492 1.258 . S
C505 O493 1.242 . S
H506 C478 0.930 . S
H507 C479 0.930 . S
H508 C480 0.930 . S
H509 C481 0.931 . S
H510 C499 0.930 . S
H511 C500 0.930 . S
H512 C501 0.930 . S
H513 C502 0.931 . S
Eu514 C523 2.828 . S
Eu514 O525 2.392 . S
Eu514 O527 2.418 . S
Eu514 O532 2.373 . S
Eu514 O535 2.488 . S
Eu514 O536 2.471 . S
Eu514 O537 2.349 . S
Eu515 O524 2.373 . S
Eu515 O528 2.488 . S
Eu515 O529 2.471 . S
Eu515 O530 2.349 . S
Eu515 O533 2.392 . S
Eu515 O534 2.418 . S
Eu515 C544 2.828 . S
C516 O534 1.244 . S
C516 O537 1.265 . S
C517 C518 1.379 . S
C517 C521 1.373 . S
C517 C523 1.505 . S
C518 C517 1.379 . S
C518 C520 1.369 . S
C518 H546 0.930 . S
C519 C521 1.383 . S
C519 C522 1.382 . S
C519 H547 0.930 . S
C520 C518 1.369 . S
C520 C522 1.392 . S
C520 H548 0.930 . S
C521 C517 1.373 . S
C521 C519 1.383 . S
C521 H549 0.931 . S
C522 C519 1.382 . S
C522 C520 1.392 . S
C523 Eu514 2.828 . S
C523 C517 1.505 . S
C523 O535 1.249 . S
C523 O536 1.244 . S
O524 Eu515 2.373 . S
O524 C526 1.258 . S
O525 Eu514 2.392 . S
O525 C526 1.242 . S
C526 O524 1.258 . S
C526 O525 1.242 . S
O527 Eu514 2.418 . S
O527 C531 1.244 . S
O528 Eu515 2.488 . S
O528 C544 1.249 . S
O529 Eu515 2.471 . S
O529 C544 1.244 . S
O530 Eu515 2.349 . S
O530 C531 1.265 . S
C531 O527 1.244 . S
C531 O530 1.265 . S
O532 Eu514 2.373 . S
O532 C545 1.258 . S
O533 Eu515 2.392 . S
O533 C545 1.242 . S
O534 Eu515 2.418 . S
O534 C516 1.244 . S
O535 Eu514 2.488 . S
O535 C523 1.249 . S
O536 Eu514 2.471 . S
O536 C523 1.244 . S
O537 Eu514 2.349 . S
O537 C516 1.265 . S
C538 C539 1.379 . S
C538 C542 1.373 . S
C538 C544 1.505 . S
C539 C538 1.379 . S
C539 C541 1.369 . S
C539 H550 0.930 . S
C540 C542 1.383 . S
C540 C543 1.382 . S
C540 H551 0.930 . S
C541 C539 1.369 . S
C541 C543 1.392 . S
C541 H552 0.930 . S
C542 C538 1.373 . S
C542 C540 1.383 . S
C542 H553 0.931 . S
C543 C540 1.382 . S
C543 C541 1.392 . S
C544 Eu515 2.828 . S
C544 O528 1.249 . S
C544 O529 1.244 . S
C544 C538 1.505 . S
C545 O532 1.258 . S
C545 O533 1.242 . S
H546 C518 0.930 . S
H547 C519 0.930 . S
H548 C520 0.930 . S
H549 C521 0.931 . S
H550 C539 0.930 . S
H551 C540 0.930 . S
H552 C541 0.930 . S
H553 C542 0.931 . S
Eu554 C563 2.828 . S
Eu554 O565 2.392 . S
Eu554 O567 2.418 . S
Eu554 O572 2.373 . S
Eu554 O575 2.488 . S
Eu554 O576 2.471 . S
Eu554 O577 2.349 . S
Eu555 O564 2.373 . S
Eu555 O568 2.488 . S
Eu555 O569 2.471 . S
Eu555 O570 2.349 . S
Eu555 O573 2.392 . S
Eu555 O574 2.418 . S
Eu555 C584 2.828 . S
C556 O574 1.244 . S
C556 O577 1.265 . S
C557 C558 1.379 . S
C557 C561 1.373 . S
C557 C563 1.505 . S
C558 C557 1.379 . S
C558 C560 1.369 . S
C558 H586 0.930 . S
C559 C561 1.383 . S
C559 C562 1.382 . S
C559 H587 0.930 . S
C560 C558 1.369 . S
C560 C562 1.392 . S
C560 H588 0.930 . S
C561 C557 1.373 . S
C561 C559 1.383 . S
C561 H589 0.931 . S
C562 C559 1.382 . S
C562 C560 1.392 . S
C563 Eu554 2.828 . S
C563 C557 1.505 . S
C563 O575 1.249 . S
C563 O576 1.244 . S
O564 Eu555 2.373 . S
O564 C566 1.258 . S
O565 Eu554 2.392 . S
O565 C566 1.242 . S
C566 O564 1.258 . S
C566 O565 1.242 . S
O567 Eu554 2.418 . S
O567 C571 1.244 . S
O568 Eu555 2.488 . S
O568 C584 1.249 . S
O569 Eu555 2.471 . S
O569 C584 1.244 . S
O570 Eu555 2.349 . S
O570 C571 1.265 . S
C571 O567 1.244 . S
C571 O570 1.265 . S
O572 Eu554 2.373 . S
O572 C585 1.258 . S
O573 Eu555 2.392 . S
O573 C585 1.242 . S
O574 Eu555 2.418 . S
O574 C556 1.244 . S
O575 Eu554 2.488 . S
O575 C563 1.249 . S
O576 Eu554 2.471 . S
O576 C563 1.244 . S
O577 Eu554 2.349 . S
O577 C556 1.265 . S
C578 C579 1.379 . S
C578 C582 1.373 . S
C578 C584 1.505 . S
C579 C578 1.379 . S
C579 C581 1.369 . S
C579 H590 0.930 . S
C580 C582 1.383 . S
C580 C583 1.382 . S
C580 H591 0.930 . S
C581 C579 1.369 . S
C581 C583 1.392 . S
C581 H592 0.930 . S
C582 C578 1.373 . S
C582 C580 1.383 . S
C582 H593 0.931 . S
C583 C580 1.382 . S
C583 C581 1.392 . S
C584 Eu555 2.828 . S
C584 O568 1.249 . S
C584 O569 1.244 . S
C584 C578 1.505 . S
C585 O572 1.258 . S
C585 O573 1.242 . S
H586 C558 0.930 . S
H587 C559 0.930 . S
H588 C560 0.930 . S
H589 C561 0.931 . S
H590 C579 0.930 . S
H591 C580 0.930 . S
H592 C581 0.930 . S
H593 C582 0.931 . S
C594 C595 1.369 . S
C594 C596 1.419 . S
C594 H598 0.930 . S
C595 C594 1.369 . S
C595 C604 1.429 . S
C596 C594 1.419 . S
C596 C597 1.363 . S
C596 H599 0.929 1_554 S
C597 C596 1.363 . S
C597 C603 1.428 . S
H598 C594 0.930 . S
H599 C596 0.929 1_556 S
S600 N601 1.613 . S
S600 N602 1.610 . S
N601 S600 1.613 . S
N601 C604 1.350 . S
N602 S600 1.610 . S
N602 C603 1.351 . S
C603 C597 1.428 . S
C603 N602 1.351 . S
C603 C604 1.434 . S
C604 C595 1.429 . S
C604 N601 1.350 . S
C604 C603 1.434 . S
C605 C606 1.369 . S
C605 C607 1.419 . S
C605 H609 0.930 . S
C606 C605 1.369 . S
C606 C615 1.429 . S
C607 C605 1.419 . S
C607 C608 1.363 . S
C607 H610 0.929 . S
C608 C607 1.363 . S
C608 C614 1.428 . S
H609 C605 0.930 . S
H610 C607 0.929 . S
S611 N612 1.613 . S
S611 N613 1.610 . S
N612 S611 1.613 . S
N612 C615 1.350 . S
N613 S611 1.610 . S
N613 C614 1.351 . S
C614 C608 1.428 . S
C614 N613 1.351 . S
C614 C615 1.434 . S
C615 C606 1.429 . S
C615 N612 1.350 . S
C615 C614 1.434 . S
C616 C617 1.369 . S
C616 C618 1.419 . S
C616 H620 0.930 . S
C617 C616 1.369 . S
C617 C626 1.429 . S
C618 C616 1.419 . S
C618 C619 1.363 . S
C618 H621 0.929 . S
C619 C618 1.363 . S
C619 C625 1.428 . S
H620 C616 0.930 . S
H621 C618 0.929 . S
S622 N623 1.613 . S
S622 N624 1.610 . S
N623 S622 1.613 . S
N623 C626 1.350 . S
N624 S622 1.610 . S
N624 C625 1.351 . S
C625 C619 1.428 . S
C625 N624 1.351 . S
C625 C626 1.434 . S
C626 C617 1.429 . S
C626 N623 1.350 . S
C626 C625 1.434 . S
C627 C628 1.369 . S
C627 C629 1.419 . S
C627 H631 0.912 1_556 S
C628 C627 1.369 . S
C628 C637 1.429 . S
C629 C627 1.419 . S
C629 C630 1.363 . S
C629 H632 0.929 1_556 S
C630 C629 1.363 . S
C630 C636 1.428 . S
H631 C627 0.912 1_554 S
H632 C629 0.929 1_554 S
S633 N634 1.613 . S
S633 N635 1.610 . S
N634 S633 1.613 . S
N634 C637 1.350 . S
N635 S633 1.610 . S
N635 C636 1.351 . S
C636 C630 1.428 . S
C636 N635 1.351 . S
C636 C637 1.434 . S
C637 C628 1.429 . S
C637 N634 1.350 . S
C637 C636 1.434 . S
C638 C639 1.369 . S
C638 C640 1.419 . S
C638 H642 0.930 . S
C639 C638 1.369 . S
C639 C648 1.429 . S
C640 C638 1.419 . S
C640 C641 1.363 . S
C640 H643 0.929 . S
C641 C640 1.363 . S
C641 C647 1.428 . S
H642 C638 0.930 . S
H643 C640 0.929 . S
S644 N645 1.613 . S
S644 N646 1.610 . S
N645 S644 1.613 . S
N645 C648 1.350 . S
N646 S644 1.610 . S
N646 C647 1.351 . S
C647 C641 1.428 . S
C647 N646 1.351 . S
C647 C648 1.434 . S
C648 C639 1.429 . S
C648 N645 1.350 . S
C648 C647 1.434 . S
C649 C650 1.389 . S
C649 C651 1.412 1_556 S
C649 H653 0.917 1_556 S
C650 C649 1.389 . S
C650 C659 1.429 . S
C651 C649 1.412 1_554 S
C651 C652 1.363 1_554 S
C651 H654 0.929 . S
C652 C651 1.363 1_556 S
C652 C658 1.428 . S
H653 C649 0.917 1_554 S
H654 C651 0.929 . S
S655 N656 1.613 . S
S655 N657 1.610 . S
N656 S655 1.613 . S
N656 C659 1.350 . S
N657 S655 1.610 . S
N657 C658 1.351 . S
C658 C652 1.428 . S
C658 N657 1.351 . S
C658 C659 1.434 . S
C659 C650 1.429 . S
C659 N656 1.350 . S
C659 C658 1.434 . S
C660 C661 1.369 . S
C660 C662 1.419 . S
C660 H664 0.930 . S
C661 C660 1.369 . S
C661 C670 1.429 . S
C662 C660 1.419 . S
C662 C663 1.363 . S
C662 H665 0.929 1_556 S
C663 C662 1.363 . S
C663 C669 1.428 . S
H664 C660 0.930 . S
H665 C662 0.929 1_554 S
S666 N667 1.613 . S
S666 N668 1.610 . S
N667 S666 1.613 . S
N667 C670 1.350 . S
N668 S666 1.610 . S
N668 C669 1.351 . S
C669 C663 1.428 . S
C669 N668 1.351 . S
C669 C670 1.434 . S
C670 C661 1.429 . S
C670 N667 1.350 . S
C670 C669 1.434 . S
C671 C672 1.369 . S
C671 C673 1.419 . S
C671 H675 0.930 . S
C672 C671 1.369 . S
C672 C681 1.429 . S
C673 C671 1.419 . S
C673 C674 1.363 . S
C673 H676 0.929 1_556 S
C674 C673 1.363 . S
C674 C680 1.428 . S
H675 C671 0.930 . S
H676 C673 0.929 1_554 S
S677 N678 1.613 . S
S677 N679 1.610 . S
N678 S677 1.613 . S
N678 C681 1.350 . S
N679 S677 1.610 . S
N679 C680 1.351 . S
C680 C674 1.428 . S
C680 N679 1.351 . S
C680 C681 1.434 . S
C681 C672 1.429 . S
C681 N678 1.350 . S
C681 C680 1.434 . S
C682 C683 1.369 . S
C682 C684 1.419 . S
C682 H686 0.930 . S
C683 C682 1.369 . S
C683 C692 1.429 . S
C684 C682 1.419 . S
C684 C685 1.363 . S
C684 H687 0.929 . S
C685 C684 1.363 . S
C685 C691 1.428 . S
H686 C682 0.930 . S
H687 C684 0.929 . S
S688 N689 1.613 . S
S688 N690 1.610 . S
N689 S688 1.613 . S
N689 C692 1.350 . S
N690 S688 1.610 . S
N690 C691 1.351 . S
C691 C685 1.428 . S
C691 N690 1.351 . S
C691 C692 1.434 . S
C692 C683 1.429 . S
C692 N689 1.350 . S
C692 C691 1.434 . S
C693 C694 1.369 . S
C693 C695 1.419 . S
C693 H697 0.930 1_554 S
C694 C693 1.369 . S
C694 C703 1.429 . S
C695 C693 1.419 . S
C695 C696 1.370 . S
C695 H698 0.922 1_554 S
C696 C695 1.370 . S
C696 C702 1.428 . S
H697 C693 0.930 1_556 S
H698 C695 0.922 1_556 S
S699 N700 1.613 . S
S699 N701 1.610 . S
N700 S699 1.613 . S
N700 C703 1.350 . S
N701 S699 1.610 . S
N701 C702 1.351 . S
C702 C696 1.428 . S
C702 N701 1.351 . S
C702 C703 1.434 . S
C703 C694 1.429 . S
C703 N700 1.350 . S
C703 C702 1.434 . S
C704 C705 1.369 . S
C704 C706 1.419 . S
C704 H708 0.930 . S
C705 C704 1.369 . S
C705 C714 1.429 . S
C706 C704 1.419 . S
C706 C707 1.363 . S
C706 H709 0.929 . S
C707 C706 1.363 . S
C707 C713 1.428 . S
H708 C704 0.930 . S
H709 C706 0.929 . S
S710 N711 1.613 . S
S710 N712 1.610 . S
N711 S710 1.613 . S
N711 C714 1.350 . S
N712 S710 1.610 . S
N712 C713 1.351 . S
C713 C707 1.428 . S
C713 N712 1.351 . S
C713 C714 1.434 . S
C714 C705 1.429 . S
C714 N711 1.350 . S
C714 C713 1.434 . S
C715 C716 1.369 1_556 S
C715 C717 1.419 . S
C715 H719 0.930 . S
C716 C715 1.369 1_554 S
C716 C725 1.429 . S
C717 C715 1.419 . S
C717 C718 1.363 1_556 S
C717 H720 0.929 . S
C718 C717 1.363 1_554 S
C718 C724 1.428 . S
H719 C715 0.930 . S
H720 C717 0.929 . S
S721 N722 1.613 . S
S721 N723 1.610 . S
N722 S721 1.613 . S
N722 C725 1.350 . S
N723 S721 1.610 . S
N723 C724 1.351 . S
C724 C718 1.428 . S
C724 N723 1.351 . S
C724 C725 1.434 . S
C725 C716 1.429 . S
C725 N722 1.350 . S
C725 C724 1.434 . S
C726 C727 1.369 . S
C726 C728 1.419 1_655 S
C726 H730 0.930 . S
C727 C726 1.369 . S
C727 C736 1.429 . S
C728 C726 1.419 1_455 S
C728 C729 1.363 . S
C728 H731 0.929 . S
C729 C728 1.363 . S
C729 C735 1.428 1_455 S
H730 C726 0.930 . S
H731 C728 0.929 . S
S732 N733 1.613 . S
S732 N734 1.610 . S
N733 S732 1.613 . S
N733 C736 1.350 . S
N734 S732 1.610 . S
N734 C735 1.351 . S
C735 C729 1.428 1_655 S
C735 N734 1.351 . S
C735 C736 1.434 . S
C736 C727 1.429 . S
C736 N733 1.350 . S
C736 C735 1.434 . S
C737 C738 1.369 . S
C737 C739 1.419 . S
C737 H741 0.930 . S
C738 C737 1.369 . S
C738 C747 1.429 . S
C739 C737 1.419 . S
C739 C740 1.363 . S
C739 H742 0.929 . S
C740 C739 1.363 . S
C740 C746 1.428 . S
H741 C737 0.930 . S
H742 C739 0.929 . S
S743 N744 1.613 . S
S743 N745 1.610 . S
N744 S743 1.613 . S
N744 C747 1.350 . S
N745 S743 1.610 . S
N745 C746 1.351 . S
C746 C740 1.428 . S
C746 N745 1.351 . S
C746 C747 1.434 . S
C747 C738 1.429 . S
C747 N744 1.350 . S
C747 C746 1.434 . S
C748 C749 1.369 . S
C748 C750 1.419 . S
C748 H752 0.930 . S
C749 C748 1.369 . S
C749 C758 1.429 . S
C750 C748 1.419 . S
C750 C751 1.363 1_545 S
C750 H753 0.929 . S
C751 C750 1.363 1_565 S
C751 C757 1.428 1_565 S
H752 C748 0.930 . S
H753 C750 0.929 . S
S754 N755 1.613 . S
S754 N756 1.610 1_545 S
N755 S754 1.613 . S
N755 C758 1.350 . S
N756 S754 1.610 1_565 S
N756 C757 1.351 1_565 S
C757 C751 1.428 1_545 S
C757 N756 1.351 1_545 S
C757 C758 1.434 . S
C758 C749 1.429 . S
C758 N755 1.350 . S
C758 C757 1.434 . S
C759 C760 1.369 . S
C759 C761 1.419 . S
C759 H763 0.930 . S
C760 C759 1.369 . S
C760 C769 1.429 . S
C761 C759 1.419 . S
C761 C762 1.363 . S
C761 H764 0.929 . S
C762 C761 1.363 . S
C762 C768 1.428 . S
H763 C759 0.930 . S
H764 C761 0.929 . S
S765 N766 1.613 . S
S765 N767 1.610 . S
N766 S765 1.613 . S
N766 C769 1.350 . S
N767 S765 1.610 . S
N767 C768 1.351 . S
C768 C762 1.428 . S
C768 N767 1.351 . S
C768 C769 1.434 . S
C769 C760 1.429 . S
C769 N766 1.350 . S
C769 C768 1.434 . S
C770 C771 1.369 . S
C770 C772 1.419 . S
C770 H774 0.930 . S
C771 C770 1.369 . S
C771 C780 1.429 . S
C772 C770 1.419 . S
C772 C773 1.363 . S
C772 H775 0.929 . S
C773 C772 1.363 . S
C773 C779 1.428 . S
H774 C770 0.930 . S
H775 C772 0.929 . S
S776 N777 1.613 . S
S776 N778 1.610 . S
N777 S776 1.613 . S
N777 C780 1.350 . S
N778 S776 1.610 . S
N778 C779 1.351 . S
C779 C773 1.428 . S
C779 N778 1.351 . S
C779 C780 1.434 . S
C780 C771 1.429 . S
C780 N777 1.350 . S
C780 C779 1.434 . S
C781 C782 1.369 . S
C781 C783 1.419 . S
C781 H785 0.930 . S
C782 C781 1.369 . S
C782 C791 1.429 . S
C783 C781 1.419 . S
C783 C784 1.363 . S
C783 H786 0.929 . S
C784 C783 1.363 . S
C784 C790 1.428 . S
H785 C781 0.930 . S
H786 C783 0.929 . S
S787 N788 1.613 . S
S787 N789 1.610 . S
N788 S787 1.613 . S
N788 C791 1.350 . S
N789 S787 1.610 . S
N789 C790 1.351 . S
C790 C784 1.428 . S
C790 N789 1.351 . S
C790 C791 1.434 . S
C791 C782 1.429 . S
C791 N788 1.350 . S
C791 C790 1.434 . S
C792 C793 1.369 . S
C792 C794 1.419 . S
C792 H796 0.930 . S
C793 C792 1.369 . S
C793 C802 1.429 . S
C794 C792 1.419 . S
C794 C795 1.363 . S
C794 H797 0.929 . S
C795 C794 1.363 . S
C795 C801 1.428 . S
H796 C792 0.930 . S
H797 C794 0.929 . S
S798 N799 1.613 . S
S798 N800 1.610 . S
N799 S798 1.613 . S
N799 C802 1.350 . S
N800 S798 1.610 . S
N800 C801 1.351 . S
C801 C795 1.428 . S
C801 N800 1.351 . S
C801 C802 1.434 . S
C802 C793 1.429 . S
C802 N799 1.350 . S
C802 C801 1.434 . S
C803 C804 1.369 . S
C803 C805 1.419 . S
C803 H807 0.930 . S
C804 C803 1.369 . S
C804 C813 1.429 . S
C805 C803 1.419 . S
C805 C806 1.363 . S
C805 H808 0.929 . S
C806 C805 1.363 . S
C806 C812 1.428 . S
H807 C803 0.930 . S
H808 C805 0.929 . S
S809 N810 1.613 . S
S809 N811 1.610 . S
N810 S809 1.613 . S
N810 C813 1.350 . S
N811 S809 1.610 . S
N811 C812 1.351 . S
C812 C806 1.428 . S
C812 N811 1.351 . S
C812 C813 1.434 . S
C813 C804 1.429 . S
C813 N810 1.350 . S
C813 C812 1.434 . S
C814 C815 1.369 . S
C814 C816 1.419 . S
C814 H818 0.930 . S
C815 C814 1.369 . S
C815 C824 1.429 . S
C816 C814 1.419 . S
C816 C817 1.363 . S
C816 H819 0.929 . S
C817 C816 1.363 . S
C817 C823 1.428 . S
H818 C814 0.930 . S
H819 C816 0.929 . S
S820 N821 1.613 . S
S820 N822 1.610 . S
N821 S820 1.613 . S
N821 C824 1.350 . S
N822 S820 1.610 . S
N822 C823 1.351 . S
C823 C817 1.428 . S
C823 N822 1.351 . S
C823 C824 1.434 . S
C824 C815 1.429 . S
C824 N821 1.350 . S
C824 C823 1.434 . S
C825 C826 1.369 1_565 S
C825 C827 1.419 . S
C825 H829 0.930 . S
C826 C825 1.369 1_545 S
C826 C835 1.429 1_545 S
C827 C825 1.419 . S
C827 C828 1.363 . S
C827 H830 0.929 . S
C828 C827 1.363 . S
C828 C834 1.428 . S
H829 C825 0.930 . S
H830 C827 0.929 . S
S831 N832 1.632 . S
S831 N833 1.610 . S
N832 S831 1.632 . S
N832 C835 1.362 . S
N833 S831 1.610 . S
N833 C834 1.351 . S
C834 C828 1.428 . S
C834 N833 1.351 . S
C834 C835 1.434 . S
C835 C826 1.429 1_565 S
C835 N832 1.362 . S
C835 C834 1.434 . S
C836 C837 1.369 . S
C836 C838 1.419 . S
C836 H840 0.930 . S
C837 C836 1.369 . S
C837 C846 1.429 . S
C838 C836 1.419 . S
C838 C839 1.363 . S
C838 H841 0.929 . S
C839 C838 1.363 . S
C839 C845 1.428 . S
H840 C836 0.930 . S
H841 C838 0.929 . S
S842 N843 1.613 . S
S842 N844 1.610 . S
N843 S842 1.613 . S
N843 C846 1.350 . S
N844 S842 1.610 . S
N844 C845 1.351 . S
C845 C839 1.428 . S
C845 N844 1.351 . S
C845 C846 1.434 . S
C846 C837 1.429 . S
C846 N843 1.350 . S
C846 C845 1.434 . S
C847 C848 1.369 . S
C847 C849 1.419 . S
C847 H851 0.930 . S
C848 C847 1.369 . S
C848 C857 1.429 . S
C849 C847 1.419 . S
C849 C850 1.363 . S
C849 H852 0.929 . S
C850 C849 1.363 . S
C850 C856 1.428 . S
H851 C847 0.930 . S
H852 C849 0.929 . S
S853 N854 1.613 . S
S853 N855 1.610 . S
N854 S853 1.613 . S
N854 C857 1.350 . S
N855 S853 1.610 . S
N855 C856 1.351 . S
C856 C850 1.428 . S
C856 N855 1.351 . S
C856 C857 1.434 . S
C857 C848 1.429 . S
C857 N854 1.350 . S
C857 C856 1.434 . S
C858 C859 1.369 . S
C858 C860 1.419 . S
C858 H862 0.930 . S
C859 C858 1.369 . S
C859 C868 1.429 . S
C860 C858 1.419 . S
C860 C861 1.363 . S
C860 H863 0.929 . S
C861 C860 1.363 . S
C861 C867 1.428 . S
H862 C858 0.930 . S
H863 C860 0.929 . S
S864 N865 1.613 . S
S864 N866 1.610 . S
N865 S864 1.613 . S
N865 C868 1.350 . S
N866 S864 1.610 . S
N866 C867 1.351 . S
C867 C861 1.428 . S
C867 N866 1.351 . S
C867 C868 1.434 . S
C868 C859 1.429 . S
C868 N865 1.350 . S
C868 C867 1.434 . S
C869 C870 1.369 . S
C869 C871 1.419 . S
C869 H873 0.930 . S
C870 C869 1.369 . S
C870 C879 1.429 . S
C871 C869 1.419 . S
C871 C872 1.363 . S
C871 H874 0.929 . S
C872 C871 1.363 . S
C872 C878 1.428 . S
H873 C869 0.930 . S
H874 C871 0.929 . S
S875 N876 1.613 . S
S875 N877 1.610 . S
N876 S875 1.613 . S
N876 C879 1.350 . S
N877 S875 1.610 . S
N877 C878 1.351 . S
C878 C872 1.428 . S
C878 N877 1.351 . S
C878 C879 1.434 . S
C879 C870 1.429 . S
C879 N876 1.350 . S
C879 C878 1.434 . S
C880 C881 1.369 . S
C880 C882 1.419 . S
C880 H884 0.930 . S
C881 C880 1.369 . S
C881 C890 1.429 . S
C882 C880 1.419 . S
C882 C883 1.363 . S
C882 H885 0.929 . S
C883 C882 1.363 . S
C883 C889 1.428 . S
H884 C880 0.930 . S
H885 C882 0.929 . S
S886 N887 1.613 . S
S886 N888 1.610 . S
N887 S886 1.613 . S
N887 C890 1.350 . S
N888 S886 1.610 . S
N888 C889 1.351 . S
C889 C883 1.428 . S
C889 N888 1.351 . S
C889 C890 1.434 . S
C890 C881 1.429 . S
C890 N887 1.350 . S
C890 C889 1.434 . S
C891 C892 1.369 . S
C891 C893 1.419 . S
C891 H895 0.930 . S
C892 C891 1.369 . S
C892 C901 1.429 . S
C893 C891 1.419 . S
C893 C894 1.363 1_565 S
C893 H896 0.929 1_565 S
C894 C893 1.363 1_545 S
C894 C900 1.428 . S
H895 C891 0.930 . S
H896 C893 0.929 1_545 S
S897 N898 1.613 1_545 S
S897 N899 1.610 . S
N898 S897 1.613 1_565 S
N898 C901 1.350 . S
N899 S897 1.610 . S
N899 C900 1.351 . S
C900 C894 1.428 . S
C900 N899 1.351 . S
C900 C901 1.434 1_545 S
C901 C892 1.429 . S
C901 N898 1.350 . S
C901 C900 1.434 1_565 S
C902 C903 1.369 . S
C902 C904 1.419 1_455 S
C902 H906 0.930 . S
C903 C902 1.369 . S
C903 C912 1.429 . S
C904 C902 1.419 1_655 S
C904 C905 1.363 . S
C904 H907 0.929 . S
C905 C904 1.363 . S
C905 C911 1.428 1_655 S
H906 C902 0.930 . S
H907 C904 0.929 . S
S908 N909 1.613 . S
S908 N910 1.610 . S
N909 S908 1.613 . S
N909 C912 1.350 . S
N910 S908 1.610 . S
N910 C911 1.351 . S
C911 C905 1.428 1_455 S
C911 N910 1.351 . S
C911 C912 1.434 . S
C912 C903 1.429 . S
C912 N909 1.350 . S
C912 C911 1.434 . S
C913 C914 1.369 . S
C913 C915 1.419 . S
C913 H917 0.930 . S
C914 C913 1.369 . S
C914 C923 1.429 . S
C915 C913 1.419 . S
C915 C916 1.363 . S
C915 H918 0.929 . S
C916 C915 1.363 . S
C916 C922 1.428 . S
H917 C913 0.930 . S
H918 C915 0.929 . S
S919 N920 1.613 . S
S919 N921 1.610 . S
N920 S919 1.613 . S
N920 C923 1.350 . S
N921 S919 1.610 . S
N921 C922 1.351 . S
C922 C916 1.428 . S
C922 N921 1.351 . S
C922 C923 1.434 . S
C923 C914 1.429 . S
C923 N920 1.350 . S
C923 C922 1.434 . S
C924 C925 1.363 1_655 S
C924 C926 1.419 . S
C924 H928 0.930 . S
C925 C924 1.363 1_455 S
C925 C934 1.414 1_455 S
C926 C924 1.419 . S
C926 C927 1.363 . S
C926 H929 0.929 . S
C927 C926 1.363 . S
C927 C933 1.428 . S
H928 C924 0.930 . S
H929 C926 0.929 . S
S930 N931 1.613 1_655 S
S930 N932 1.610 . S
N931 S930 1.613 1_455 S
N931 C934 1.350 1_455 S
N932 S930 1.610 . S
N932 C933 1.351 . S
C933 C927 1.428 . S
C933 N932 1.351 . S
C933 C934 1.434 . S
C934 C925 1.414 1_655 S
C934 N931 1.350 1_655 S
C934 C933 1.434 . S
C935 C936 1.369 . S
C935 C937 1.419 . S
C935 H939 0.930 . S
C936 C935 1.369 . S
C936 C945 1.429 . S
C937 C935 1.419 . S
C937 C938 1.363 . S
C937 H940 0.929 . S
C938 C937 1.363 . S
C938 C944 1.428 . S
H939 C935 0.930 . S
H940 C937 0.929 . S
S941 N942 1.613 . S
S941 N943 1.610 . S
N942 S941 1.613 . S
N942 C945 1.350 . S
N943 S941 1.610 . S
N943 C944 1.351 . S
C944 C938 1.428 . S
C944 N943 1.351 . S
C944 C945 1.434 . S
C945 C936 1.429 . S
C945 N942 1.350 . S
C945 C944 1.434 . S
C946 C947 1.385 . S
C946 C948 1.419 . S
C946 H950 0.930 . S
C947 C946 1.385 . S
C947 C956 1.440 . S
C948 C946 1.419 . S
C948 C949 1.363 . S
C948 H951 0.929 . S
C949 C948 1.363 . S
C949 C955 1.428 . S
H950 C946 0.930 . S
H951 C948 0.929 . S
S952 N953 1.613 . S
S952 N954 1.610 . S
N953 S952 1.613 . S
N953 C956 1.350 . S
N954 S952 1.610 . S
N954 C955 1.351 . S
C955 C949 1.428 . S
C955 N954 1.351 . S
C955 C956 1.434 . S
C956 C947 1.440 . S
C956 N953 1.350 . S
C956 C955 1.434 . S
C957 C958 1.369 . S
C957 C959 1.419 . S
C957 H961 0.930 . S
C958 C957 1.369 . S
C958 C967 1.429 . S
C959 C957 1.419 . S
C959 C960 1.363 . S
C959 H962 0.929 . S
C960 C959 1.363 . S
C960 C966 1.428 . S
H961 C957 0.930 . S
H962 C959 0.929 . S
S963 N964 1.613 . S
S963 N965 1.610 . S
N964 S963 1.613 . S
N964 C967 1.350 . S
N965 S963 1.610 . S
N965 C966 1.351 . S
C966 C960 1.428 . S
C966 N965 1.351 . S
C966 C967 1.434 . S
C967 C958 1.429 . S
C967 N964 1.350 . S
C967 C966 1.434 . S
C968 C969 1.369 . S
C968 C970 1.419 . S
C968 H972 0.930 . S
C969 C968 1.369 . S
C969 C978 1.429 . S
C970 C968 1.419 . S
C970 C971 1.363 . S
C970 H973 0.929 . S
C971 C970 1.363 . S
C971 C977 1.428 . S
H972 C968 0.930 . S
H973 C970 0.929 . S
S974 N975 1.613 . S
S974 N976 1.610 . S
N975 S974 1.613 . S
N975 C978 1.350 . S
N976 S974 1.610 . S
N976 C977 1.351 . S
C977 C971 1.428 . S
C977 N976 1.351 . S
C977 C978 1.434 . S
C978 C969 1.429 . S
C978 N975 1.350 . S
C978 C977 1.434 . S
C979 C980 1.369 . S
C979 C981 1.419 . S
C979 H983 0.930 . S
C980 C979 1.369 . S
C980 C989 1.429 . S
C981 C979 1.419 . S
C981 C982 1.363 . S
C981 H984 0.929 . S
C982 C981 1.363 . S
C982 C988 1.428 . S
H983 C979 0.930 . S
H984 C981 0.929 . S
S985 N986 1.613 . S
S985 N987 1.610 . S
N986 S985 1.613 . S
N986 C989 1.350 . S
N987 S985 1.610 . S
N987 C988 1.351 . S
C988 C982 1.428 . S
C988 N987 1.351 . S
C988 C989 1.434 . S
C989 C980 1.429 . S
C989 N986 1.350 . S
C989 C988 1.434 . S
C990 C991 1.369 . S
C990 C992 1.419 . S
C990 H994 0.930 . S
C991 C990 1.369 . S
C991 C1000 1.429 . S
C992 C990 1.419 . S
C992 C993 1.363 . S
C992 H995 0.929 . S
C993 C992 1.363 . S
C993 C999 1.428 . S
H994 C990 0.930 . S
H995 C992 0.929 . S
S996 N997 1.613 . S
S996 N998 1.610 . S
N997 S996 1.613 . S
N997 C1000 1.350 . S
N998 S996 1.610 . S
N998 C999 1.351 . S
C999 C993 1.428 . S
C999 N998 1.351 . S
C999 C1000 1.434 . S
C1000 C991 1.429 . S
C1000 N997 1.350 . S
C1000 C999 1.434 . S
C1001 C1002 1.369 . S
C1001 C1003 1.419 . S
C1001 H1005 0.930 . S
C1002 C1001 1.369 . S
C1002 C1011 1.429 . S
C1003 C1001 1.419 . S
C1003 C1004 1.363 . S
C1003 H1006 0.929 . S
C1004 C1003 1.363 . S
C1004 C1010 1.428 . S
H1005 C1001 0.930 . S
H1006 C1003 0.929 . S
S1007 N1008 1.613 . S
S1007 N1009 1.610 . S
N1008 S1007 1.613 . S
N1008 C1011 1.350 1_655 S
N1009 S1007 1.610 . S
N1009 C1010 1.351 1_655 S
C1010 C1004 1.428 . S
C1010 N1009 1.351 1_455 S
C1010 C1011 1.434 . S
C1011 C1002 1.429 . S
C1011 N1008 1.350 1_455 S
C1011 C1010 1.434 . S
C1012 C1013 1.369 . S
C1012 C1014 1.419 . S
C1012 H1016 0.930 . S
C1013 C1012 1.369 . S
C1013 C1022 1.429 . S
C1014 C1012 1.419 . S
C1014 C1015 1.363 . S
C1014 H1017 0.929 . S
C1015 C1014 1.363 . S
C1015 C1021 1.428 . S
H1016 C1012 0.930 . S
H1017 C1014 0.929 . S
S1018 N1019 1.613 . S
S1018 N1020 1.610 . S
N1019 S1018 1.613 . S
N1019 C1022 1.350 . S
N1020 S1018 1.610 . S
N1020 C1021 1.351 . S
C1021 C1015 1.428 . S
C1021 N1020 1.351 . S
C1021 C1022 1.434 . S
C1022 C1013 1.429 . S
C1022 N1019 1.350 . S
C1022 C1021 1.434 . S
C1023 C1024 1.369 . S
C1023 C1025 1.419 . S
C1023 H1027 0.930 . S
C1024 C1023 1.369 . S
C1024 C1033 1.429 . S
C1025 C1023 1.419 . S
C1025 C1026 1.363 . S
C1025 H1028 0.929 . S
C1026 C1025 1.363 . S
C1026 C1032 1.428 . S
H1027 C1023 0.930 . S
H1028 C1025 0.929 . S
S1029 N1030 1.613 . S
S1029 N1031 1.610 . S
N1030 S1029 1.613 . S
N1030 C1033 1.350 . S
N1031 S1029 1.610 . S
N1031 C1032 1.351 . S
C1032 C1026 1.428 . S
C1032 N1031 1.351 . S
C1032 C1033 1.434 . S
C1033 C1024 1.429 . S
C1033 N1030 1.350 . S
C1033 C1032 1.434 . S
C1034 C1035 1.369 . S
C1034 C1036 1.419 . S
C1034 H1038 0.930 . S
C1035 C1034 1.369 . S
C1035 C1044 1.429 . S
C1036 C1034 1.419 . S
C1036 C1037 1.363 . S
C1036 H1039 0.929 . S
C1037 C1036 1.363 . S
C1037 C1043 1.428 . S
H1038 C1034 0.930 . S
H1039 C1036 0.929 . S
S1040 N1041 1.613 . S
S1040 N1042 1.610 . S
N1041 S1040 1.613 . S
N1041 C1044 1.350 . S
N1042 S1040 1.610 . S
N1042 C1043 1.351 . S
C1043 C1037 1.428 . S
C1043 N1042 1.351 . S
C1043 C1044 1.434 . S
C1044 C1035 1.429 . S
C1044 N1041 1.350 . S
C1044 C1043 1.434 . S
C1045 C1046 1.369 . S
C1045 C1047 1.419 . S
C1045 H1049 0.930 . S
C1046 C1045 1.369 . S
C1046 C1055 1.429 . S
C1047 C1045 1.419 . S
C1047 C1048 1.363 . S
C1047 H1050 0.929 . S
C1048 C1047 1.363 . S
C1048 C1054 1.428 . S
H1049 C1045 0.930 . S
H1050 C1047 0.929 . S
S1051 N1052 1.613 . S
S1051 N1053 1.610 . S
N1052 S1051 1.613 . S
N1052 C1055 1.350 . S
N1053 S1051 1.610 . S
N1053 C1054 1.351 . S
C1054 C1048 1.428 . S
C1054 N1053 1.351 . S
C1054 C1055 1.434 . S
C1055 C1046 1.429 . S
C1055 N1052 1.350 . S
C1055 C1054 1.434 . S
C1056 C1057 1.369 . S
C1056 C1058 1.419 . S
C1056 H1060 0.930 . S
C1057 C1056 1.369 . S
C1057 C1066 1.429 . S
C1058 C1056 1.419 . S
C1058 C1059 1.363 . S
C1058 H1061 0.929 . S
C1059 C1058 1.363 . S
C1059 C1065 1.428 . S
H1060 C1056 0.930 . S
H1061 C1058 0.929 . S
S1062 N1063 1.613 . S
S1062 N1064 1.610 . S
N1063 S1062 1.613 . S
N1063 C1066 1.350 . S
N1064 S1062 1.610 . S
N1064 C1065 1.351 . S
C1065 C1059 1.428 . S
C1065 N1064 1.351 . S
C1065 C1066 1.434 . S
C1066 C1057 1.429 . S
C1066 N1063 1.350 . S
C1066 C1065 1.434 . S
C1067 C1068 1.369 . S
C1067 C1069 1.419 . S
C1067 H1071 0.930 . S
C1068 C1067 1.369 . S
C1068 C1077 1.429 . S
C1069 C1067 1.419 . S
C1069 C1070 1.363 . S
C1069 H1072 0.929 . S
C1070 C1069 1.363 . S
C1070 C1076 1.428 . S
H1071 C1067 0.930 . S
H1072 C1069 0.929 . S
S1073 N1074 1.613 . S
S1073 N1075 1.610 . S
N1074 S1073 1.613 . S
N1074 C1077 1.350 . S
N1075 S1073 1.610 . S
N1075 C1076 1.351 . S
C1076 C1070 1.428 . S
C1076 N1075 1.351 . S
C1076 C1077 1.434 . S
C1077 C1068 1.429 . S
C1077 N1074 1.350 . S
C1077 C1076 1.434 . S
C1078 C1079 1.369 . S
C1078 C1080 1.419 . S
C1078 H1082 0.930 . S
C1079 C1078 1.369 . S
C1079 C1088 1.429 . S
C1080 C1078 1.419 . S
C1080 C1081 1.363 . S
C1080 H1083 0.929 . S
C1081 C1080 1.363 . S
C1081 C1087 1.428 . S
H1082 C1078 0.930 . S
H1083 C1080 0.929 . S
S1084 N1085 1.613 . S
S1084 N1086 1.610 . S
N1085 S1084 1.613 . S
N1085 C1088 1.350 . S
N1086 S1084 1.610 . S
N1086 C1087 1.351 . S
C1087 C1081 1.428 . S
C1087 N1086 1.351 . S
C1087 C1088 1.434 . S
C1088 C1079 1.429 . S
C1088 N1085 1.350 . S
C1088 C1087 1.434 . S
C1089 C1090 1.369 . S
C1089 C1091 1.419 . S
C1089 H1093 0.930 . S
C1090 C1089 1.369 . S
C1090 C1099 1.429 . S
C1091 C1089 1.419 . S
C1091 C1092 1.363 . S
C1091 H1094 0.929 . S
C1092 C1091 1.363 . S
C1092 C1098 1.428 . S
H1093 C1089 0.930 . S
H1094 C1091 0.929 . S
S1095 N1096 1.613 . S
S1095 N1097 1.610 . S
N1096 S1095 1.613 . S
N1096 C1099 1.350 . S
N1097 S1095 1.610 . S
N1097 C1098 1.351 . S
C1098 C1092 1.428 . S
C1098 N1097 1.351 . S
C1098 C1099 1.434 . S
C1099 C1090 1.429 . S
C1099 N1096 1.350 . S
C1099 C1098 1.434 . S
C1100 C1101 1.369 . S
C1100 C1102 1.419 . S
C1100 H1104 0.930 . S
C1101 C1100 1.369 . S
C1101 C1110 1.429 . S
C1102 C1100 1.419 . S
C1102 C1103 1.363 . S
C1102 H1105 0.929 . S
C1103 C1102 1.363 . S
C1103 C1109 1.428 . S
H1104 C1100 0.930 . S
H1105 C1102 0.929 . S
S1106 N1107 1.613 . S
S1106 N1108 1.610 . S
N1107 S1106 1.613 . S
N1107 C1110 1.350 . S
N1108 S1106 1.610 . S
N1108 C1109 1.351 . S
C1109 C1103 1.428 . S
C1109 N1108 1.351 . S
C1109 C1110 1.434 . S
C1110 C1101 1.429 . S
C1110 N1107 1.350 . S
C1110 C1109 1.434 . S
C1111 C1112 1.369 . S
C1111 C1113 1.419 . S
C1111 H1115 0.930 . S
C1112 C1111 1.369 . S
C1112 C1121 1.429 . S
C1113 C1111 1.419 . S
C1113 C1114 1.363 . S
C1113 H1116 0.929 . S
C1114 C1113 1.363 . S
C1114 C1120 1.428 . S
H1115 C1111 0.930 . S
H1116 C1113 0.929 . S
S1117 N1118 1.613 . S
S1117 N1119 1.610 . S
N1118 S1117 1.613 . S
N1118 C1121 1.350 . S
N1119 S1117 1.610 . S
N1119 C1120 1.351 . S
C1120 C1114 1.428 . S
C1120 N1119 1.351 . S
C1120 C1121 1.434 . S
C1121 C1112 1.429 . S
C1121 N1118 1.350 . S
C1121 C1120 1.434 . S
C1122 C1123 1.369 . S
C1122 C1124 1.419 . S
C1122 H1126 0.930 . S
C1123 C1122 1.369 . S
C1123 C1132 1.429 . S
C1124 C1122 1.419 . S
C1124 C1125 1.363 . S
C1124 H1127 0.929 . S
C1125 C1124 1.363 . S
C1125 C1131 1.428 . S
H1126 C1122 0.930 . S
H1127 C1124 0.929 . S
S1128 N1129 1.613 . S
S1128 N1130 1.610 . S
N1129 S1128 1.613 . S
N1129 C1132 1.350 . S
N1130 S1128 1.610 . S
N1130 C1131 1.351 . S
C1131 C1125 1.428 . S
C1131 N1130 1.351 . S
C1131 C1132 1.434 . S
C1132 C1123 1.429 . S
C1132 N1129 1.350 . S
C1132 C1131 1.434 . S
C1133 C1134 1.369 . S
C1133 C1135 1.419 . S
C1133 H1137 0.930 . S
C1134 C1133 1.369 . S
C1134 C1143 1.429 . S
C1135 C1133 1.419 . S
C1135 C1136 1.363 . S
C1135 H1138 0.929 . S
C1136 C1135 1.363 . S
C1136 C1142 1.428 . S
H1137 C1133 0.930 . S
H1138 C1135 0.929 . S
S1139 N1140 1.613 . S
S1139 N1141 1.610 . S
N1140 S1139 1.613 . S
N1140 C1143 1.350 . S
N1141 S1139 1.610 . S
N1141 C1142 1.351 . S
C1142 C1136 1.428 . S
C1142 N1141 1.351 . S
C1142 C1143 1.434 . S
C1143 C1134 1.429 . S
C1143 N1140 1.350 . S
C1143 C1142 1.434 . S
C1144 C1145 1.369 . S
C1144 C1146 1.419 . S
C1144 H1148 0.930 . S
C1145 C1144 1.369 . S
C1145 C1154 1.429 . S
C1146 C1144 1.419 . S
C1146 C1147 1.363 . S
C1146 H1149 0.929 . S
C1147 C1146 1.363 . S
C1147 C1153 1.428 . S
H1148 C1144 0.930 . S
H1149 C1146 0.929 . S
S1150 N1151 1.613 . S
S1150 N1152 1.610 . S
N1151 S1150 1.613 . S
N1151 C1154 1.350 . S
N1152 S1150 1.610 . S
N1152 C1153 1.351 . S
C1153 C1147 1.428 . S
C1153 N1152 1.351 . S
C1153 C1154 1.434 . S
C1154 C1145 1.429 . S
C1154 N1151 1.350 . S
C1154 C1153 1.434 . S
C1155 C1156 1.369 . S
C1155 C1157 1.419 . S
C1155 H1159 0.930 . S
C1156 C1155 1.369 . S
C1156 C1165 1.429 . S
C1157 C1155 1.419 . S
C1157 C1158 1.363 . S
C1157 H1160 0.929 . S
C1158 C1157 1.363 . S
C1158 C1164 1.428 . S
H1159 C1155 0.930 . S
H1160 C1157 0.929 . S
S1161 N1162 1.613 . S
S1161 N1163 1.610 . S
N1162 S1161 1.613 . S
N1162 C1165 1.350 . S
N1163 S1161 1.610 . S
N1163 C1164 1.351 . S
C1164 C1158 1.428 . S
C1164 N1163 1.351 . S
C1164 C1165 1.434 . S
C1165 C1156 1.429 . S
C1165 N1162 1.350 . S
C1165 C1164 1.434 . S
C1166 C1167 1.369 . S
C1166 C1168 1.419 . S
C1166 H1170 0.930 . S
C1167 C1166 1.369 . S
C1167 C1176 1.429 . S
C1168 C1166 1.419 . S
C1168 C1169 1.363 . S
C1168 H1171 0.929 . S
C1169 C1168 1.363 . S
C1169 C1175 1.428 . S
H1170 C1166 0.930 . S
H1171 C1168 0.929 . S
S1172 N1173 1.613 . S
S1172 N1174 1.610 . S
N1173 S1172 1.613 . S
N1173 C1176 1.350 . S
N1174 S1172 1.610 . S
N1174 C1175 1.351 . S
C1175 C1169 1.428 . S
C1175 N1174 1.351 . S
C1175 C1176 1.434 . S
C1176 C1167 1.429 . S
C1176 N1173 1.350 . S
C1176 C1175 1.434 . S
C1177 C1178 1.369 . S
C1177 C1179 1.419 . S
C1177 H1181 0.930 . S
C1178 C1177 1.369 . S
C1178 C1187 1.429 . S
C1179 C1177 1.419 . S
C1179 C1180 1.363 . S
C1179 H1182 0.929 . S
C1180 C1179 1.363 . S
C1180 C1186 1.428 . S
H1181 C1177 0.930 . S
H1182 C1179 0.929 . S
S1183 N1184 1.613 . S
S1183 N1185 1.610 . S
N1184 S1183 1.613 . S
N1184 C1187 1.350 . S
N1185 S1183 1.610 . S
N1185 C1186 1.351 . S
C1186 C1180 1.428 . S
C1186 N1185 1.351 . S
C1186 C1187 1.434 . S
C1187 C1178 1.429 . S
C1187 N1184 1.350 . S
C1187 C1186 1.434 . S
C595 C177 1.651 . S
C597 C246 1.664 . S
C606 C190 1.745 . S
C608 C286 1.744 . S
C617 C164 1.585 . S
C619 C316 1.576 . S
C628 C151 1.490 . S
C630 C276 1.472 . S
C641 C326 1.517 . S
C639 C125 1.520 . S
C650 C138 1.403 . S
C652 C236 1.403 1_556 S
C663 C265 1.673 . S
C661 C147 1.649 . S
C674 C305 1.648 . S
C672 C121 1.587 . S
C683 C134 1.614 . S
C685 C331 1.667 1_556 S
C694 C173 1.486 . S
C696 C291 1.531 . S
C705 C186 1.478 . S
C707 C345 1.489 . S
C718 C251 1.526 . S
C716 C160 1.492 . S
C729 C366 1.664 . S
C727 C21 1.653 . S
C738 C34 1.748 . S
C740 C406 1.743 . S
C749 C8 1.587 . S
C751 C436 1.574 . S
C760 C229 1.490 . S
C762 C396 1.471 . S
C771 C203 1.520 . S
C773 C446 1.518 . S
C782 C216 1.403 . S
C784 C356 1.399 . S
C793 C225 1.652 . S
C795 C385 1.669 . S
C804 C199 1.595 . S
C806 C425 1.647 . S
C817 C451 1.671 . S
C815 C212 1.606 . S
C826 C17 1.496 . S
C828 C411 1.525 . S
C839 C465 1.490 . S
C837 C30 1.475 1_455 S
C848 C4 1.496 . S
C850 C371 1.522 . S
C861 C486 1.664 . S
C859 C99 1.653 . S
C870 C112 1.746 . S
C872 C526 1.745 . S
C883 C556 1.578 . S
C881 C86 1.584 . S
C894 C516 1.469 . S
C892 C73 1.491 . S
C905 C566 1.518 . S
C903 C47 1.520 . S
C914 C60 1.405 . S
C916 C476 1.401 . S
C925 C69 1.672 . S
C927 C505 1.671 . S
C936 C43 1.586 . S
C938 C545 1.647 . S
C949 C571 1.665 . S
C947 C56 1.593 1_545 S
C958 C95 1.488 . S
C960 C531 1.529 . S
C969 C108 1.472 . S
C971 C585 1.488 . S
C980 C82 1.498 . S
C982 C491 1.521 . S
C991 C204 1.593 . S
C993 C263 1.557 . S
C1004 C303 1.861 . S
C1002 C217 1.909 . S
C1013 C230 1.551 . S
C1015 C322 1.570 . S
C1024 C87 1.729 . S
C1026 C282 1.720 . S
C1035 C100 1.678 . S
C1037 C343 1.649 . S
C1048 C242 1.370 . S
C1046 C113 1.361 . S
C1057 C48 1.597 . S
C1059 C383 1.551 . S
C1068 C61 1.907 . S
C1070 C423 1.863 . S
C1079 C74 1.550 . S
C1081 C442 1.572 . S
C1090 C165 1.725 . S
C1092 C402 1.721 . S
C1103 C463 1.651 . S
C1101 C178 1.676 . S
C1112 C191 1.363 . S
C1114 C362 1.370 . S
C1123 C126 1.594 . S
C1125 C503 1.554 . S
C1134 C139 1.910 . S
C1136 C543 1.860 . S
C1147 C562 1.569 . S
C1145 C152 1.556 . S
C1156 C9 1.724 . S
C1158 C522 1.721 . S
C1167 C22 1.674 . S
C1169 C583 1.653 . S
C1178 C35 1.363 . S
C1180 C482 1.370 . S
