# Generated by pormake.
# Topology zzz, (3,6)-cn, num edge types: 1
# Building blocks:
#     Node 0, Type 0, BuildingBlock: MIDCAF_clean_linker_0, # of connection points: 3
#     Node 1, Type 0, BuildingBlock: MIDCAF_clean_linker_0, # of connection points: 3
#     Node 2, Type 0, BuildingBlock: MIDCAF_clean_linker_0, # of connection points: 3
#     Node 3, Type 0, BuildingBlock: MIDCAF_clean_linker_0, # of connection points: 3
#     Node 4, Type 0, BuildingBlock: MIDCAF_clean_linker_0, # of connection points: 3
#     Node 5, Type 0, BuildingBlock: MIDCAF_clean_linker_0, # of connection points: 3
#     Node 6, Type 0, BuildingBlock: MIDCAF_clean_linker_0, # of connection points: 3
#     Node 7, Type 0, BuildingBlock: MIDCAF_clean_linker_0, # of connection points: 3
#     Node 8, Type 1, BuildingBlock: BETDIP_clean_sbu_0, # of connection points: 6
#     Node 9, Type 1, BuildingBlock: BETDIP_clean_sbu_0, # of connection points: 6
#     Node 10, Type 1, BuildingBlock: BETDIP_clean_sbu_0, # of connection points: 6
#     Node 11, Type 1, BuildingBlock: BETDIP_clean_sbu_0, # of connection points: 6
#     Edge 12, Type (0, 1), BuildingBlock: ZUJKAS_clean_linker_0, # of connection points: 2
#     Edge 13, Type (0, 1), BuildingBlock: ZUJKAS_clean_linker_0, # of connection points: 2
#     Edge 14, Type (0, 1), BuildingBlock: ZUJKAS_clean_linker_0, # of connection points: 2
#     Edge 15, Type (0, 1), BuildingBlock: ZUJKAS_clean_linker_0, # of connection points: 2
#     Edge 16, Type (0, 1), BuildingBlock: ZUJKAS_clean_linker_0, # of connection points: 2
#     Edge 17, Type (0, 1), BuildingBlock: ZUJKAS_clean_linker_0, # of connection points: 2
#     Edge 18, Type (0, 1), BuildingBlock: ZUJKAS_clean_linker_0, # of connection points: 2
#     Edge 19, Type (0, 1), BuildingBlock: ZUJKAS_clean_linker_0, # of connection points: 2
#     Edge 20, Type (0, 1), BuildingBlock: ZUJKAS_clean_linker_0, # of connection points: 2
#     Edge 21, Type (0, 1), BuildingBlock: ZUJKAS_clean_linker_0, # of connection points: 2
#     Edge 22, Type (0, 1), BuildingBlock: ZUJKAS_clean_linker_0, # of connection points: 2
#     Edge 23, Type (0, 1), BuildingBlock: ZUJKAS_clean_linker_0, # of connection points: 2
#     Edge 24, Type (0, 1), BuildingBlock: ZUJKAS_clean_linker_0, # of connection points: 2
#     Edge 25, Type (0, 1), BuildingBlock: ZUJKAS_clean_linker_0, # of connection points: 2
#     Edge 26, Type (0, 1), BuildingBlock: ZUJKAS_clean_linker_0, # of connection points: 2
#     Edge 27, Type (0, 1), BuildingBlock: ZUJKAS_clean_linker_0, # of connection points: 2
#     Edge 28, Type (0, 1), BuildingBlock: ZUJKAS_clean_linker_0, # of connection points: 2
#     Edge 29, Type (0, 1), BuildingBlock: ZUJKAS_clean_linker_0, # of connection points: 2
#     Edge 30, Type (0, 1), BuildingBlock: ZUJKAS_clean_linker_0, # of connection points: 2
#     Edge 31, Type (0, 1), BuildingBlock: ZUJKAS_clean_linker_0, # of connection points: 2
#     Edge 32, Type (0, 1), BuildingBlock: ZUJKAS_clean_linker_0, # of connection points: 2
#     Edge 33, Type (0, 1), BuildingBlock: ZUJKAS_clean_linker_0, # of connection points: 2
#     Edge 34, Type (0, 1), BuildingBlock: ZUJKAS_clean_linker_0, # of connection points: 2
#     Edge 35, Type (0, 1), BuildingBlock: ZUJKAS_clean_linker_0, # of connection points: 2
# Relax obj value: 0.410
# Max RMSD: 0.268
# Mean RMSD: 0.241
data_MOF--net-zzz--node1-BETDIP_clean_sbu_0--node2-MIDCAF_clean_linker_0--edge1-ZUJKAS_clean_linker_0
_symmetry_space_group_name_H-M    P1
_symmetry_Int_Tables_number       1
_symmetry_cell_setting            triclinic
loop_
_symmetry_equiv_pos_as_xyz
'x, y, z'
_cell_length_a     74.180273
_cell_length_b     74.166708
_cell_length_c     23.000938
_cell_angle_alpha  89.756588
_cell_angle_beta   89.960197
_cell_angle_gamma 89.998353
loop_
_atom_site_label
_atom_site_type_symbol
_atom_site_fract_x
_atom_site_fract_y
_atom_site_fract_z
_atom_type_partial_charge
C0 C 0.79684 0.52347 0.34338 0.0
C1 C 0.7952 0.51386 0.39589 0.0
C2 C 0.77897 0.50456 0.40707 0.0
C3 C 0.765 0.50441 0.36567 0.0
H4 H 0.70367 0.53585 0.23962 0.0
H5 H 0.67268 0.53838 0.20346 0.0
H6 H 0.67226 0.48119 0.1686 0.0
H7 H 0.703 0.47884 0.20488 0.0
H8 H 0.73334 0.49593 0.0616 0.0
H9 H 0.74656 0.49051 0.9661 0.0
H10 H 0.7995 0.50113 0.03618 0.0
H11 H 0.78642 0.50681 0.13104 0.0
H12 H 0.78521 0.53 0.26092 0.0
H13 H 0.80917 0.53061 0.33289 0.0
H14 H 0.77724 0.49709 0.44725 0.0
H15 H 0.75296 0.49658 0.37433 0.0
N16 N 0.73621 0.50995 0.27015 0.0
N17 N 0.73289 0.50415 0.1701 0.0
N18 N 0.76164 0.50787 0.20912 0.0
C19 C 0.7254 0.50682 0.22311 0.0
C20 C 0.75094 0.50468 0.16256 0.0
C21 C 0.75452 0.5104 0.26293 0.0
C22 C 0.70557 0.5071 0.22588 0.0
C23 C 0.69654 0.52372 0.22719 0.0
C24 C 0.67892 0.52518 0.20547 0.0
C25 C 0.67005 0.51003 0.18222 0.0
C26 C 0.67854 0.49312 0.1865 0.0
C27 C 0.69615 0.49172 0.20768 0.0
C28 C 0.75883 0.50178 0.10418 0.0
C29 C 0.7478 0.49723 0.0566 0.0
C30 C 0.75534 0.49408 1.00185 0.0
C31 C 0.77403 0.49552 0.9935 0.0
C32 C 0.785 0.50025 0.04089 0.0
C33 C 0.7775 0.50335 0.09553 0.0
C34 C 0.76718 0.51327 0.31198 0.0
C35 C 0.7831 0.52307 0.30194 0.0
C36 C 0.9833 0.79475 0.34404 0.0
C37 C 0.99338 0.79215 0.39509 0.0
C38 C 1.00237 0.77556 0.40304 0.0
C39 C 1.00172 0.76215 0.3599 0.0
H40 H 0.01761 0.69896 0.24957 0.0
H41 H 0.01776 0.66731 0.2188 0.0
H42 H 0.9661 0.67529 0.13569 0.0
H43 H 0.96598 0.70648 0.16748 0.0
H44 H 1.00262 0.73484 0.04876 0.0
H45 H 0.00894 0.7495 0.95568 0.0
H46 H 0.00694 0.80149 0.03943 0.0
H47 H 1.00033 0.78705 0.13164 0.0
H48 H 0.97558 0.78441 0.26118 0.0
H49 H 0.9764 0.80738 0.33592 0.0
H50 H 0.01018 0.7731 0.44203 0.0
H51 H 0.00929 0.7498 0.366 0.0
N52 N 0.99303 0.73487 0.26101 0.0
N53 N 0.99639 0.73287 0.15928 0.0
N54 N 0.99653 0.76105 0.20382 0.0
C55 C 0.994 0.72472 0.21161 0.0
C56 C 0.99783 0.751 0.15499 0.0
C57 C 0.99415 0.75324 0.25678 0.0
C58 C 0.99165 0.70499 0.21166 0.0
C59 C 0.00596 0.6936 0.22714 0.0
C60 C 0.00615 0.67557 0.20859 0.0
C61 C 0.99204 0.6687 0.17403 0.0
C62 C 0.97711 0.67989 0.16272 0.0
C63 C 0.97698 0.69781 0.18107 0.0
C64 C 1.00097 0.75976 0.09786 0.0
C65 C 1.00338 0.74941 0.04722 0.0
C66 C 0.00707 0.75778 0.99389 0.0
C67 C 0.00832 0.77664 0.99008 0.0
C68 C 0.00571 0.78694 0.04057 0.0
C69 C 1.00206 0.77862 0.0937 0.0
C70 C 0.99237 0.7653 0.30774 0.0
C71 C 0.9829 0.78158 0.30096 0.0
C72 C 0.71908 0.9823 0.34322 0.0
C73 C 0.72081 0.99245 0.39437 0.0
C74 C 0.73693 1.00213 0.40341 0.0
C75 C 0.75067 1.00216 0.36114 0.0
H76 H 0.81224 0.97204 0.24011 0.0
H77 H 0.84361 0.97004 0.20678 0.0
H78 H 0.84166 0.02597 0.15402 0.0
H79 H 0.81055 0.02781 0.1873 0.0
H80 H 0.77983 0.00646 0.052 0.0
H81 H 0.76561 0.01159 0.95778 0.0
H82 H 0.71315 0.0071 0.0383 0.0
H83 H 0.7272 1.00157 0.13173 0.0
H84 H 0.73038 0.97526 0.26085 0.0
H85 H 0.70683 0.97486 0.33435 0.0
H86 H 0.73874 0.01 0.44252 0.0
H87 H 0.76258 0.01032 0.36803 0.0
N88 N 0.77891 0.99655 0.26384 0.0
N89 N 0.78127 1.00197 0.1631 0.0
N90 N 0.75295 0.99777 0.20504 0.0
C91 C 0.78925 0.99971 0.21563 0.0
C92 C 0.76317 1.00099 0.15729 0.0
C93 C 0.76056 0.99562 0.25832 0.0
C94 C 0.80912 1.00015 0.21701 0.0
C95 C 0.81888 0.98408 0.22403 0.0
C96 C 0.83673 0.98289 0.20405 0.0
C97 C 0.84512 0.99779 0.17702 0.0
C98 C 0.83577 0.01427 0.17502 0.0
C99 C 0.81793 0.01538 0.19435 0.0
C100 C 0.75466 1.00361 0.09962 0.0
C101 C 0.76525 0.00644 0.04956 0.0
C102 C 0.75713 0.00944 0.99552 0.0
C103 C 0.73827 0.00964 0.99041 0.0
C104 C 0.72773 0.00665 0.04038 0.0
C105 C 0.73581 1.00362 0.09423 0.0
C106 C 0.74835 0.9928 0.30869 0.0
C107 C 0.73258 0.98258 0.3009 0.0
C108 C 0.44947 0.72867 0.13049 0.0
C109 C 0.44604 0.73744 0.07727 0.0
C110 C 0.45039 0.75583 0.07187 0.0
C111 C 0.45913 0.76485 0.11713 0.0
H112 H 0.47388 0.81662 0.21688 0.0
H113 H 0.48324 0.84529 0.17544 0.0
H114 H 0.53906 0.82971 0.19438 0.0
H115 H 0.52946 0.80066 0.23631 0.0
H116 H 0.47235 0.74553 0.37487 0.0
H117 H 0.47892 0.71937 0.43561 0.0
H118 H 0.53474 0.72166 0.38273 0.0
H119 H 0.52806 0.7483 0.32228 0.0
H120 H 0.46119 0.73016 0.21487 0.0
H121 H 0.44659 0.71446 0.13627 0.0
H122 H 0.44767 0.76307 0.03186 0.0
H123 H 0.46303 0.77878 0.11053 0.0
N124 N 0.48215 0.78087 0.20471 0.0
N125 N 0.50102 0.77764 0.28659 0.0
N126 N 0.48163 0.75414 0.25829 0.0
C127 C 0.49466 0.78786 0.24137 0.0
C128 C 0.49415 0.76075 0.29546 0.0
C129 C 0.47567 0.76398 0.21253 0.0
C130 C 0.50095 0.80645 0.22983 0.0
C131 C 0.48817 0.81952 0.21375 0.0
C132 C 0.49356 0.83601 0.19014 0.0
C133 C 0.51191 0.83983 0.18124 0.0
C134 C 0.5248 0.82713 0.2003 0.0
C135 C 0.51936 0.8106 0.22486 0.0
C136 C 0.49971 0.74896 0.34419 0.0
C137 C 0.48616 0.74083 0.37787 0.0
C138 C 0.48989 0.72571 0.41207 0.0
C139 C 0.50726 0.71815 0.41295 0.0
C140 C 0.52121 0.72716 0.38298 0.0
C141 C 0.51745 0.74247 0.34871 0.0
C142 C 0.46367 0.75565 0.16873 0.0
C143 C 0.45809 0.73767 0.17565 0.0
C144 C 0.23581 0.50463 0.96002 0.0
C145 C 0.22471 0.48926 0.95548 0.0
C146 C 0.23024 0.47334 0.984 0.0
C147 C 0.24546 0.47324 0.01995 0.0
H148 H 0.32114 0.46656 0.09989 0.0
H149 H 0.35216 0.4662 0.13664 0.0
H150 H 0.34621 0.52163 0.19071 0.0
H151 H 0.31564 0.5219 0.15287 0.0
H152 H 0.28551 0.48371 0.2859 0.0
H153 H 0.27141 0.4857 0.382 0.0
H154 H 0.22156 0.50255 0.30184 0.0
H155 H 0.23542 0.5004 0.20604 0.0
H156 H 0.25868 0.51683 1.00191 0.0
H157 H 0.23199 0.51718 0.93921 0.0
H158 H 0.22235 0.46111 0.98064 0.0
H159 H 0.24856 0.46116 0.04467 0.0
N160 N 0.28619 0.49148 0.07357 0.0
N161 N 0.28823 0.49267 0.1757 0.0
N162 N 0.26002 0.4901 0.13171 0.0
C163 C 0.29637 0.49272 0.12297 0.0
C164 C 0.27013 0.49136 0.18053 0.0
C165 C 0.26784 0.49013 0.07833 0.0
C166 C 0.31617 0.49437 0.12255 0.0
C167 C 0.32689 0.47889 0.11684 0.0
C168 C 0.34453 0.47862 0.13903 0.0
C169 C 0.3517 0.4938 0.16765 0.0
C170 C 0.34137 0.50972 0.16858 0.0
C171 C 0.32382 0.50995 0.14653 0.0
C172 C 0.26156 0.49194 0.23842 0.0
C173 C 0.27154 0.48783 0.28883 0.0
C174 C 0.26352 0.48892 0.34373 0.0
C175 C 0.24554 0.49449 0.34905 0.0
C176 C 0.23556 0.49849 0.29875 0.0
C177 C 0.24344 0.49711 0.24395 0.0
C178 C 0.25581 0.48889 0.02734 0.0
C179 C 0.2512 0.50444 0.99568 0.0
C180 C 0.00667 0.23114 0.96629 0.0
C181 C 0.02077 0.2188 0.95629 0.0
C182 C 0.03718 0.22125 0.98569 0.0
C183 C 0.03909 0.23498 0.02672 0.0
H184 H 0.99195 0.30369 0.15279 0.0
H185 H 0.98837 0.33386 0.19396 0.0
H186 H 0.04588 0.34214 0.18127 0.0
H187 H 0.04924 0.31208 0.13959 0.0
H188 H 0.03224 0.27459 0.30122 0.0
H189 H 0.03032 0.25914 0.39476 0.0
H190 H 0.02712 0.20798 0.30589 0.0
H191 H 0.02962 0.22323 0.2132 0.0
H192 H 0.99743 0.25397 0.01562 0.0
H193 H 0.99388 0.2296 0.9442 0.0
H194 H 0.04822 0.21189 0.9795 0.0
H195 H 0.05152 0.23584 0.05133 0.0
N196 N 0.02279 0.2765 0.08916 0.0
N197 N 0.02682 0.27758 0.19067 0.0
N198 N 0.02891 0.25002 0.14255 0.0
C199 C 0.02366 0.28616 0.13956 0.0
C200 C 0.02938 0.25953 0.19272 0.0
C201 C 0.02569 0.2583 0.09082 0.0
C202 C 0.02081 0.30578 0.14185 0.0
C203 C 1.00365 0.31237 0.15611 0.0
C204 C 1.00168 0.32951 0.18064 0.0
C205 C 0.01687 0.34035 0.19181 0.0
C206 C 0.03386 0.33428 0.17291 0.0
C207 C 0.03581 0.3171 0.14858 0.0
C208 C 0.03087 0.25017 0.24952 0.0
C209 C 0.03146 0.26 0.30172 0.0
C210 C 0.03028 0.25117 0.35542 0.0
C211 C 0.02845 0.23233 0.35805 0.0
C212 C 0.02881 0.22248 0.30587 0.0
C213 C 0.0301 0.23128 0.25236 0.0
C214 C 0.02483 0.24689 0.03831 0.0
C215 C 0.00875 0.24519 0.00658 0.0
C216 C 0.27891 0.01079 0.95365 0.0
C217 C 0.29138 0.02502 0.94702 0.0
C218 C 0.28675 0.04206 0.96897 0.0
C219 C 0.27096 0.04446 1.00114 0.0
H220 H 0.18754 0.03953 0.06622 0.0
H221 H 0.15751 0.0339 0.10673 0.0
H222 H 0.17883 0.98887 0.2047 0.0
H223 H 0.20853 0.99443 0.16327 0.0
H224 H 0.23395 0.02723 0.26577 0.0
H225 H 0.25264 0.03037 0.35134 0.0
H226 H 0.28489 0.07049 0.26215 0.0
H227 H 0.26679 0.06629 0.17485 0.0
H228 H 0.25431 1.00174 0.99422 0.0
H229 H 0.28204 0.99748 0.93729 0.0
H230 H 0.29576 0.05344 0.96348 0.0
H231 H 0.26845 0.05751 0.02056 0.0
N232 N 0.22925 0.0239 0.05912 0.0
N233 N 0.22489 0.03265 0.15656 0.0
N234 N 0.25186 0.03968 0.10962 0.0
C235 C 0.21855 0.02482 0.10755 0.0
C236 C 0.24144 0.04021 0.15784 0.0
C237 C 0.24605 0.03156 0.06028 0.0
C238 C 0.20024 0.01717 0.11065 0.0
C239 C 0.1855 0.02784 0.09387 0.0
C240 C 0.16839 0.02482 0.11811 0.0
C241 C 0.16573 0.01111 0.15992 0.0
C242 C 0.18021 0.99945 0.1724 0.0
C243 C 0.19727 1.00252 0.14826 0.0
C244 C 0.24927 0.04616 0.21331 0.0
C245 C 0.24473 0.03709 0.26496 0.0
C246 C 0.25543 0.03901 0.31437 0.0
C247 C 0.27067 0.05031 0.31329 0.0
C248 C 0.27368 0.06115 0.26382 0.0
C249 C 0.26326 0.05886 0.2139 0.0
C250 C 0.25922 0.02995 0.01195 0.0
C251 C 0.26295 0.01324 0.9859 0.0
C252 C 0.4361 0.27558 0.24874 0.0
C253 C 0.44312 0.27294 0.30497 0.0
C254 C 0.45392 0.25769 0.31565 0.0
C255 C 0.45905 0.24642 0.27 0.0
H256 H 0.51422 0.20724 0.15568 0.0
H257 H 0.52228 0.17841 0.20158 0.0
H258 H 0.46838 0.15871 0.16947 0.0
H259 H 0.46065 0.1873 0.12335 0.0
H260 H 0.45217 0.2651 0.0145 0.0
H261 H 0.45819 0.29044 0.94996 0.0
H262 H 0.51488 0.27728 0.95089 0.0
H263 H 0.50869 0.25145 0.01546 0.0
H264 H 0.43693 0.26769 0.15937 0.0
H265 H 0.42731 0.28688 0.23932 0.0
H266 H 0.45966 0.25523 0.35822 0.0
H267 H 0.46842 0.23555 0.27887 0.0
N268 N 0.46994 0.22494 0.16901 0.0
N269 N 0.48386 0.22767 0.07712 0.0
N270 N 0.46596 0.25117 0.1142 0.0
C271 C 0.48022 0.21778 0.12611 0.0
C272 C 0.47643 0.24446 0.071 0.0
C273 C 0.46278 0.24162 0.16337 0.0
C274 C 0.48695 0.19929 0.13502 0.0
C275 C 0.50444 0.19639 0.15618 0.0
C276 C 0.50891 0.17999 0.18332 0.0
C277 C 0.49592 0.16625 0.18991 0.0
C278 C 0.47882 0.16881 0.16474 0.0
C279 C 0.47437 0.18518 0.13801 0.0
C280 C 0.47997 0.25634 0.02025 0.0
C281 C 0.46587 0.26729 0.99969 0.0
C282 C 0.46935 0.28194 0.96311 0.0
C283 C 0.48707 0.28619 0.9464 0.0
C284 C 0.50107 0.27439 0.96305 0.0
C285 C 0.49754 0.25954 0.99975 0.0
C286 C 0.45369 0.25038 0.2128 0.0
C287 C 0.44153 0.26455 0.20296 0.0
Tb288 Tb 0.02134 1.00001 0.72341 0.0
Tb289 Tb 0.99516 0.00855 0.63442 0.0
C290 C 0.03854 0.98422 0.80202 0.0
C291 C 0.04662 0.96613 0.80032 0.0
C292 C 0.04335 0.95403 0.84595 0.0
C293 C 0.04773 0.93583 0.83993 0.0
C294 C 0.05558 0.92939 0.78818 0.0
C295 C 0.05967 0.94177 0.74368 0.0
C296 C 0.05512 0.95993 0.74951 0.0
C297 C 0.03594 0.01018 0.62341 0.0
C298 C 0.00611 0.96858 0.64078 0.0
C299 C 0.97813 0.02419 0.55501 0.0
C300 C 0.97209 0.04309 0.55215 0.0
C301 C 0.97829 0.05414 0.5069 0.0
C302 C 0.97608 0.07279 0.50974 0.0
C303 C 0.9674 0.08077 0.55769 0.0
C304 C 0.96017 0.06954 0.60118 0.0
C305 C 0.96259 0.05089 0.59866 0.0
C306 C 0.98072 0.99773 0.73365 0.0
C307 C 0.01022 0.03984 0.7178 0.0
O308 O 0.02092 0.98437 0.79958 0.0
O309 O 0.04577 0.99634 0.76775 0.0
O310 O 0.02249 1.00002 0.63001 0.0
O311 O 0.04207 0.01444 0.67415 0.0
O312 O 0.01361 0.97308 0.69091 0.0
O313 O 0.99969 0.98111 0.60551 0.0
O314 O 0.99565 0.02205 0.55415 0.0
O315 O 0.97038 0.01397 0.59413 0.0
O316 O 0.99389 0.00832 0.72779 0.0
O317 O 0.97483 0.99335 0.68268 0.0
O318 O 1.00333 0.03548 0.66659 0.0
O319 O 0.01608 0.02717 0.75349 0.0
H320 H 0.03652 0.95847 0.885 0.0
H321 H 0.04403 0.92668 0.87474 0.0
H322 H 0.06589 0.93734 0.70359 0.0
H323 H 0.05755 0.96895 0.71315 0.0
H324 H 0.98583 0.04844 0.47101 0.0
H325 H 0.98214 0.08095 0.47585 0.0
H326 H 0.95316 0.07517 0.6382 0.0
H327 H 0.95775 0.04272 0.63456 0.0
Tb328 Tb 0.51426 0.01672 0.73956 0.0
Tb329 Tb 0.50386 0.99197 0.64638 0.0
C330 C 0.53128 0.03199 0.81908 0.0
C331 C 0.54914 0.04046 0.81532 0.0
C332 C 0.5619 0.03715 0.8588 0.0
C333 C 0.57987 0.04212 0.85039 0.0
C334 C 0.58538 0.05057 0.7983 0.0
C335 C 0.57234 0.05462 0.75597 0.0
C336 C 0.55442 0.04952 0.76423 0.0
C337 C 0.50298 0.03299 0.64366 0.0
C338 C 0.5445 1.00143 0.65112 0.0
C339 C 0.4869 0.97843 0.56319 0.0
C340 C 0.46803 0.9816 0.54677 0.0
C341 C 0.46029 0.9986 0.55664 0.0
C342 C 0.44183 1.00111 0.55034 0.0
C343 C 0.43073 0.98675 0.53357 0.0
C344 C 0.4385 0.96993 0.52098 0.0
C345 C 0.45708 0.96733 0.52809 0.0
C346 C 0.51618 0.97575 0.74035 0.0
C347 C 0.47425 0.00733 0.73533 0.0
O348 O 0.53135 0.01449 0.81186 0.0
O349 O 0.5184 0.0399 0.78967 0.0
O350 O 0.51276 0.01918 0.64692 0.0
O351 O 0.5 0.03879 0.69575 0.0
O352 O 0.54054 0.00995 0.70007 0.0
O353 O 0.53177 0.99407 0.61883 0.0
O354 O 0.49766 0.99233 0.55753 0.0
O355 O 0.48908 0.97019 0.61306 0.0
O356 O 0.50584 0.98926 0.739 0.0
O357 O 0.5191 0.97029 0.68766 0.0
O358 O 0.47798 1.00213 0.68155 0.0
O359 O 0.48737 0.01134 0.77168 0.0
H360 H 0.55816 0.02988 0.89797 0.0
H361 H 0.58958 0.03845 0.88351 0.0
H362 H 0.57607 0.06126 0.7157 0.0
H363 H 0.54486 0.05196 0.72948 0.0
H364 H 0.46841 0.00985 0.57118 0.0
H365 H 0.43616 0.01428 0.55938 0.0
H366 H 0.43013 0.95871 0.50774 0.0
H367 H 0.4628 0.95409 0.5208 0.0
Tb368 Tb 0.49891 0.50626 0.72334 0.0
Tb369 Tb 0.52293 0.49531 0.62747 0.0
C370 C 0.48499 0.52239 0.80776 0.0
C371 C 0.47815 0.54098 0.81398 0.0
C372 C 0.4897 0.55589 0.8078 0.0
C373 C 0.48282 0.57339 0.80875 0.0
C374 C 0.46424 0.5764 0.81611 0.0
C375 C 0.45274 0.56149 0.82336 0.0
C376 C 0.45964 0.54396 0.82235 0.0
C377 C 0.48186 0.49648 0.62762 0.0
C378 C 0.51594 0.53629 0.63684 0.0
C379 C 0.53429 0.47755 0.54328 0.0
C380 C 0.52717 0.45978 0.52553 0.0
C381 C 0.50884 0.45799 0.51081 0.0
C382 C 0.50073 0.44108 0.50963 0.0
C383 C 0.51075 0.42554 0.52269 0.0
C384 C 0.52936 0.42711 0.53287 0.0
C385 C 0.5375 0.44413 0.53448 0.0
C386 C 0.5399 0.5054 0.72244 0.0
C387 C 0.50554 0.46576 0.7121 0.0
O388 O 0.50243 0.52049 0.80105 0.0
O389 O 0.47582 0.51212 0.7724 0.0
O390 O 0.49618 0.50553 0.63068 0.0
O391 O 0.47598 0.49352 0.67979 0.0
O392 O 0.50753 0.53242 0.68631 0.0
O393 O 0.52226 0.52351 0.60256 0.0
O394 O 0.52324 0.49121 0.53735 0.0
O395 O 0.54246 0.4777 0.59372 0.0
O396 O 0.52569 0.4961 0.71999 0.0
O397 O 0.5458 0.50831 0.67008 0.0
O398 O 0.51046 0.46995 0.65838 0.0
O399 O 0.50271 0.47854 0.75074 0.0
H400 H 0.50406 0.55408 0.80158 0.0
H401 H 0.49211 0.58458 0.80434 0.0
H402 H 0.43836 0.56335 0.82891 0.0
H403 H 0.45045 0.53269 0.82708 0.0
H404 H 0.50042 0.4697 0.50343 0.0
H405 H 0.48646 0.44021 0.50011 0.0
H406 H 0.53739 0.4153 0.54279 0.0
H407 H 0.5516 0.44513 0.54629 0.0
Tb408 Tb 1.002 0.48931 0.74011 0.0
Tb409 Tb 0.01249 0.51435 0.64733 0.0
C410 C 0.98444 0.47438 0.81946 0.0
C411 C 0.96573 0.46786 0.81611 0.0
C412 C 0.95306 0.474 0.85659 0.0
C413 C 0.93466 0.47183 0.84604 0.0
C414 C 0.92866 0.46341 0.79488 0.0
C415 C 0.94137 0.45608 0.7565 0.0
C416 C 0.95976 0.4584 0.76678 0.0
C417 C 0.01318 0.4733 0.64432 0.0
C418 C 0.97192 0.50531 0.65149 0.0
C419 C 0.0304 0.52802 0.56651 0.0
C420 C 0.04987 0.52539 0.55602 0.0
C421 C 0.0567 0.50805 0.54476 0.0
C422 C 0.07513 0.50464 0.54869 0.0
C423 C 0.08715 0.51844 0.56395 0.0
C424 C 0.08049 0.53603 0.57154 0.0
C425 C 0.062 0.53947 0.56754 0.0
C426 C 1.00072 0.53023 0.74227 0.0
C427 C 0.0422 0.49829 0.735 0.0
O428 O 0.9861 0.4919 0.81501 0.0
O429 O 0.99629 0.4658 0.7877 0.0
O430 O 1.00344 0.48717 0.64746 0.0
O431 O 0.01617 0.46734 0.69642 0.0
O432 O 0.97582 0.49673 0.70064 0.0
O433 O 0.98471 0.51254 0.61894 0.0
O434 O 0.02016 0.5138 0.55963 0.0
O435 O 0.02646 0.53676 0.61416 0.0
O436 O 0.01088 0.5166 0.74 0.0
O437 O 0.99752 0.53591 0.68985 0.0
O438 O 0.03837 0.50406 0.68182 0.0
O439 O 0.02917 0.49378 0.77135 0.0
H440 H 0.95735 0.48145 0.89458 0.0
H441 H 0.9251 0.47733 0.87685 0.0
H442 H 0.9371 0.44962 0.71665 0.0
H443 H 0.96922 0.45376 0.73421 0.0
H444 H 0.04778 0.49684 0.53577 0.0
H445 H 0.07992 0.49105 0.54113 0.0
H446 H 0.08944 0.54695 0.58333 0.0
H447 H 0.05709 0.55292 0.57674 0.0
H448 H 0.14748 0.98118 0.20044 0.0
H449 H 0.12269 0.98035 0.27078 0.0
H450 H 0.12143 0.03844 0.27302 0.0
H451 H 0.14623 0.03942 0.20341 0.0
H452 H 0.1239 0.99387 0.38118 0.0
H453 H 0.0681 0.02638 0.26002 0.0
H454 H 0.08812 0.01797 0.22455 0.0
H455 H 0.0884 0.03954 0.26002 0.0
C456 C 0.1418 0.9938 0.21533 0.0
C457 C 0.14891 0.01037 0.19588 0.0
C458 C 0.12757 0.99329 0.25549 0.0
C459 C 0.12001 0.00932 0.27687 0.0
C460 C 0.12669 0.02587 0.25626 0.0
H461 H 0.06837 0.02682 0.60887 0.0
H462 H 0.08791 0.02635 0.52308 0.0
C463 C 0.14091 0.0264 0.21617 0.0
C464 C 0.10628 0.0088 0.3243 0.0
H465 H 0.06436 0.02385 0.36323 0.0
C466 C 0.11083 1.0003 0.37697 0.0
C467 C 0.08912 0.01704 0.31889 0.0
C468 C 0.08304 0.0256 0.26263 0.0
C469 C 0.09898 1.00027 0.42472 0.0
C470 C 0.08217 0.0092 0.42018 0.0
C471 C 0.07733 0.0172 0.36697 0.0
C472 C 0.06964 0.01053 0.47066 0.0
C473 C 0.10456 0.9906 0.47971 0.0
C474 C 0.05255 1.00237 0.46912 0.0
C475 C 0.0413 1.00266 0.51822 0.0
C476 C 0.04692 0.01123 0.56956 0.0
C477 C 0.06372 0.02 0.57013 0.0
C478 C 0.07494 0.01967 0.5212 0.0
H479 H 0.11545 0.98066 0.47147 0.0
H480 H 0.10969 1.0006 0.51141 0.0
H481 H 0.09293 0.98349 0.49979 0.0
H482 H 0.04812 0.99534 0.43049 0.0
H483 H 0.02841 0.99584 0.51642 0.0
H484 H 0.5136 0.16531 0.29446 0.0
H485 H 0.51576 0.14021 0.36303 0.0
H486 H 0.48741 0.10596 0.24285 0.0
H487 H 0.48529 0.13104 0.17357 0.0
H488 H 0.47279 0.10479 0.35235 0.0
H489 H 0.54666 0.09496 0.36574 0.0
H490 H 0.54 0.11788 0.3782 0.0
H491 H 0.53617 0.10784 0.30821 0.0
C492 C 0.50826 0.15233 0.28173 0.0
C493 C 0.49932 0.15025 0.22818 0.0
C494 C 0.50948 0.13795 0.3212 0.0
C495 C 0.50191 0.1211 0.30801 0.0
C496 C 0.49337 0.11882 0.25405 0.0
H497 H 0.51641 0.02656 0.53484 0.0
H498 H 0.51529 0.04664 0.44982 0.0
C499 C 0.49214 0.1332 0.2145 0.0
C500 C 0.50179 0.10632 0.35218 0.0
H501 H 0.52904 0.0814 0.44145 0.0
C502 C 0.48511 0.09956 0.3714 0.0
C503 C 0.51784 0.09929 0.37667 0.0
C504 C 0.53619 0.10522 0.35578 0.0
C505 C 0.48402 0.08647 0.41571 0.0
C506 C 0.50004 0.08012 0.44224 0.0
C507 C 0.51674 0.08639 0.4216 0.0
C508 C 0.49975 0.06742 0.49261 0.0
C509 C 0.46572 0.07953 0.43363 0.0
C510 C 0.49134 0.07235 0.54493 0.0
C511 C 0.49195 0.0609 0.59345 0.0
C512 C 0.50105 0.04431 0.59077 0.0
C513 C 0.50921 0.03922 0.53813 0.0
C514 C 0.50865 0.05071 0.48961 0.0
H515 H 0.45556 0.0816 0.39875 0.0
H516 H 0.46626 0.06495 0.4447 0.0
H517 H 0.46109 0.08697 0.47264 0.0
H518 H 0.48469 0.08529 0.54875 0.0
H519 H 0.4856 0.06522 0.63348 0.0
H520 H 0.37797 0.51966 0.18311 0.0
H521 H 0.40281 0.51917 0.25306 0.0
H522 H 0.38875 0.46486 0.30251 0.0
H523 H 0.36366 0.46533 0.23394 0.0
H524 H 0.39771 0.51394 0.37423 0.0
H525 H 0.44419 0.46263 0.28312 0.0
H526 H 0.42709 0.47371 0.23991 0.0
H527 H 0.42105 0.45561 0.28829 0.0
C528 C 0.38022 0.50752 0.20841 0.0
C529 C 0.36867 0.49255 0.2027 0.0
C530 C 0.39451 0.50726 0.24826 0.0
C531 C 0.39775 0.49194 0.2828 0.0
C532 C 0.38675 0.47672 0.27561 0.0
H533 H 0.44874 0.4809 0.61864 0.0
H534 H 0.4292 0.47963 0.53282 0.0
C535 C 0.3724 0.477 0.23604 0.0
C536 C 0.41151 0.49246 0.32992 0.0
H537 H 0.44976 0.47193 0.38066 0.0
C538 C 0.40916 0.50484 0.37533 0.0
C539 C 0.42648 0.48062 0.33137 0.0
C540 C 0.43001 0.46747 0.28287 0.0
C541 C 0.42109 0.50539 0.42275 0.0
C542 C 0.43576 0.49325 0.42498 0.0
C543 C 0.43842 0.48115 0.37898 0.0
C544 C 0.44822 0.49285 0.47554 0.0
C545 C 0.41792 0.5189 0.47053 0.0
C546 C 0.46552 0.50044 0.4715 0.0
C547 C 0.47667 0.50132 0.52065 0.0
C548 C 0.47075 0.49445 0.57448 0.0
C549 C 0.45365 0.48634 0.57783 0.0
C550 C 0.44248 0.4856 0.52887 0.0
H551 H 0.40764 0.52912 0.45827 0.0
H552 H 0.41318 0.51173 0.51015 0.0
H553 H 0.43068 0.52592 0.48162 0.0
H554 H 0.47019 0.50612 0.43072 0.0
H555 H 0.48975 0.50768 0.51676 0.0
H556 H 0.0339 0.3732 0.17945 0.0
H557 H 0.0336 0.39854 0.24762 0.0
H558 H 0.99677 0.3694 0.35861 0.0
H559 H 0.99685 0.34424 0.29073 0.0
H560 H 0.98743 0.40439 0.35069 0.0
H561 H 0.06047 0.39897 0.40027 0.0
H562 H 0.05549 0.40277 0.32485 0.0
H563 H 0.04857 0.38207 0.35923 0.0
C564 C 0.02567 0.37224 0.21825 0.0
C565 C 0.0154 0.35665 0.22948 0.0
C566 C 0.02558 0.38671 0.25737 0.0
C567 C 0.01544 0.38578 0.30898 0.0
C568 C 0.00473 0.37048 0.31923 0.0
H569 H 0.02832 0.43996 0.63624 0.0
H570 H 0.02912 0.42016 0.5515 0.0
C571 C 0.00471 0.35611 0.28006 0.0
C572 C 0.01615 0.40042 0.35322 0.0
H573 H 0.04456 0.42258 0.44569 0.0
C574 C 0.99994 0.40845 0.37123 0.0
C575 C 0.03245 0.40556 0.38067 0.0
C576 C 0.05022 0.39681 0.36578 0.0
C577 C 0.99951 0.42123 0.41623 0.0
C578 C 0.01583 0.42653 0.44322 0.0
C579 C 0.03207 0.41868 0.42469 0.0
C580 C 0.0162 0.43921 0.49339 0.0
C581 C 0.98147 0.42836 0.43602 0.0
C582 C 0.0091 0.45674 0.48882 0.0
C583 C 0.0085 0.46805 0.5375 0.0
C584 C 0.01519 0.46212 0.59147 0.0
C585 C 0.02298 0.44489 0.59532 0.0
C586 C 0.02347 0.43356 0.54684 0.0
H587 H 0.97017 0.41967 0.42126 0.0
H588 H 0.98089 0.42937 0.48413 0.0
H589 H 0.97937 0.44203 0.41745 0.0
H590 H 1.00383 0.46162 0.44779 0.0
H591 H 1.00248 0.48129 0.53315 0.0
H592 H 0.87391 0.02119 0.17089 0.0
H593 H 0.8995 0.0199 0.1033 0.0
H594 H 0.88062 0.96876 0.03935 0.0
H595 H 0.85497 0.96998 0.10604 0.0
H596 H 0.92745 0.98883 0.07944 0.0
H597 H 0.88115 0.00727 0.89836 0.0
H598 H 0.87594 0.01207 0.97346 0.0
H599 H 0.87396 0.98949 0.9466 0.0
C600 C 0.87534 0.00954 0.14304 0.0
C601 C 0.86232 0.99571 0.1439 0.0
C602 C 0.89001 0.0088 0.10462 0.0
C603 C 0.89187 0.9943 0.06608 0.0
C604 C 0.87942 0.98008 0.06872 0.0
H605 H 0.9522 0.9754 0.75064 0.0
H606 H 0.93205 0.97396 0.83469 0.0
C607 C 0.86482 0.98075 0.10727 0.0
C608 C 0.90587 0.99467 0.01988 0.0
H609 H 0.91114 1.00047 0.87352 0.0
C610 C 0.92396 0.99141 0.03439 0.0
C611 C 0.90124 0.99805 0.96124 0.0
C612 C 0.88205 1.00204 0.94361 0.0
C613 C 0.93751 0.99101 0.99138 0.0
C614 C 0.93286 0.99437 0.93253 0.0
C615 C 0.91475 0.99782 0.91845 0.0
C616 C 0.94635 0.99414 0.88435 0.0
C617 C 0.95654 0.98646 0.00919 0.0
C618 C 0.96132 0.00579 0.88427 0.0
C619 C 0.97301 0.00648 0.83629 0.0
C620 C 0.96976 0.99575 0.78716 0.0
C621 C 0.95503 0.98386 0.78783 0.0
C622 C 0.94348 0.98305 0.83585 0.0
H623 H 0.95692 0.97931 0.05173 0.0
H624 H 0.96325 0.97791 0.9761 0.0
H625 H 0.96439 0.99911 0.01363 0.0
H626 H 0.96365 0.01479 0.92043 0.0
H627 H 0.98419 0.01588 0.8368 0.0
H628 H 0.49822 0.87416 0.18853 0.0
H629 H 0.50252 0.89894 0.11919 0.0
H630 H 0.54157 0.86719 0.02591 0.0
H631 H 0.53704 0.84218 0.09413 0.0
H632 H 0.5333 0.91908 0.07748 0.0
H633 H 0.50134 0.87745 0.90563 0.0
H634 H 0.5002 0.87154 0.98173 0.0
H635 H 0.52041 0.86727 0.94095 0.0
C636 C 0.50788 0.87251 0.15362 0.0
C637 C 0.51712 0.85607 0.14655 0.0
C638 C 0.51038 0.88673 0.11419 0.0
C639 C 0.5221 0.88479 0.06675 0.0
C640 C 0.53225 0.86888 0.06172 0.0
H641 H 0.53676 0.94552 0.74679 0.0
H642 H 0.53975 0.92464 0.82877 0.0
C643 C 0.52978 0.85465 0.10119 0.0
C644 C 0.52266 0.89881 0.0203 0.0
H645 H 0.51234 0.90594 0.87734 0.0
C646 C 0.52875 0.91624 0.03366 0.0
C647 C 0.5166 0.89511 0.96325 0.0
C648 C 0.50911 0.87689 0.94688 0.0
C649 C 0.52927 0.92996 0.99114 0.0
C650 C 0.52319 0.92624 0.93407 0.0
C651 C 0.51709 0.9088 0.92093 0.0
C652 C 0.52288 0.9401 0.88697 0.0
C653 C 0.53664 0.9482 0.00744 0.0
C654 C 0.51258 0.95593 0.89243 0.0
C655 C 0.51094 0.96798 0.84555 0.0
C656 C 0.51938 0.96428 0.79217 0.0
C657 C 0.53005 0.94871 0.78733 0.0
C658 C 0.53176 0.93675 0.83417 0.0
H659 H 0.54531 0.94742 0.04675 0.0
H660 H 0.54461 0.95415 0.97125 0.0
H661 H 0.52526 0.95742 0.01714 0.0
H662 H 0.50528 0.95866 0.93221 0.0
H663 H 0.50256 0.97984 0.85043 0.0
H664 H 0.64017 0.48798 0.17836 0.0
H665 H 0.61565 0.48879 0.10672 0.0
H666 H 0.63809 0.53711 0.0314 0.0
H667 H 0.66267 0.53635 0.10207 0.0
H668 H 0.59025 0.52262 0.0681 0.0
H669 H 0.63692 0.49299 0.90445 0.0
H670 H 0.64006 0.48968 0.98166 0.0
H671 H 0.64516 0.51109 0.94917 0.0
C672 C 0.63974 0.49893 0.14711 0.0
C673 C 0.65344 0.51208 0.14607 0.0
C674 C 0.62568 0.49941 0.10638 0.0
C675 C 0.62513 0.51296 0.06369 0.0
C676 C 0.63827 0.52655 0.06412 0.0
H677 H 0.57087 0.52473 0.73265 0.0
H678 H 0.59035 0.52743 0.81799 0.0
C679 C 0.65225 0.52615 0.10492 0.0
C680 C 0.6118 0.51213 0.01565 0.0
H681 H 0.60793 0.50098 0.87235 0.0
C682 C 0.59403 0.51785 0.02528 0.0
C683 C 0.61684 0.50596 0.95992 0.0
C684 C 0.63574 0.49947 0.94775 0.0
C685 C 0.5812 0.51788 0.98009 0.0
C686 C 0.58623 0.51163 0.92418 0.0
C687 C 0.60403 0.5058 0.915 0.0
C688 C 0.57344 0.51113 0.87416 0.0
C689 C 0.56257 0.5251 0.99226 0.0
C690 C 0.55732 0.50118 0.87714 0.0
C691 C 0.54606 0.49977 0.82839 0.0
C692 C 0.55087 0.50804 0.77549 0.0
C693 C 0.56684 0.51818 0.77279 0.0
C694 C 0.57799 0.51971 0.82156 0.0
H695 H 0.56247 0.53404 0.03091 0.0
H696 H 0.55725 0.53275 0.95441 0.0
H697 H 0.55334 0.51366 1.00124 0.0
H698 H 0.55368 0.49407 0.91662 0.0
H699 H 0.53388 0.49178 0.83164 0.0
H700 H 0.02233 0.65369 0.12555 0.0
H701 H 0.02409 0.62742 0.06226 0.0
H702 H 0.96726 0.61783 0.0862 0.0
H703 H 0.9655 0.64364 0.15188 0.0
H704 H 0.98687 0.58599 0.08093 0.0
H705 H 0.00468 0.63143 0.89739 0.0
H706 H 0.01999 0.63268 0.95763 0.0
H707 H 0.99697 0.6398 0.96657 0.0
C708 C 0.01027 0.64574 0.11888 0.0
C709 C 0.99371 0.651 0.14354 0.0
C710 C 0.01127 0.63083 0.08189 0.0
C711 C 0.99572 0.62093 0.06815 0.0
C712 C 0.97941 0.62538 0.09558 0.0
H713 H 0.98006 0.56031 0.75151 0.0
H714 H 0.97804 0.58102 0.83372 0.0
C715 C 0.97841 0.64024 0.13288 0.0
C716 C 0.99618 0.60674 0.02247 0.0
H717 H 0.00515 0.60017 0.87838 0.0
C718 C 0.99088 0.58906 0.03663 0.0
C719 C 1.00109 0.61081 0.96437 0.0
C720 C 0.00584 0.62973 0.94526 0.0
C721 C 0.99056 0.57534 0.99444 0.0
C722 C 0.99594 0.57934 0.9367 0.0
C723 C 1.00113 0.59704 0.92264 0.0
C724 C 0.99589 0.56563 0.88942 0.0
C725 C 0.984 0.55683 0.01177 0.0
C726 C 0.0064 0.54988 0.89339 0.0
C727 C 0.00743 0.53791 0.84644 0.0
C728 C 0.99818 0.54162 0.79438 0.0
C729 C 0.98737 0.55713 0.79101 0.0
C730 C 0.98623 0.56899 0.83797 0.0
H731 H 0.97581 0.55724 0.05221 0.0
H732 H 0.97579 0.5507 0.9767 0.0
H733 H 0.99579 0.54798 0.01997 0.0
H734 H 0.01428 0.54714 0.93202 0.0
H735 H 0.01595 0.5261 0.85015 0.0
H736 H 0.04033 0.19924 0.39461 0.0
H737 H 0.027 0.18069 0.47051 0.0
H738 H 0.99488 0.22582 0.5274 0.0
H739 H 0.00706 0.2441 0.448 0.0
H740 H 0.02191 0.17909 0.58457 0.0
H741 H 0.95581 0.19269 0.47707 0.0
H742 H 0.97659 0.20085 0.44636 0.0
H743 H 0.96722 0.21138 0.50992 0.0
C744 C 0.03049 0.20529 0.42336 0.0
C745 C 0.02427 0.22294 0.41369 0.0
C746 C 0.02303 0.19473 0.46739 0.0
C747 C 0.00943 0.20167 0.50342 0.0
C748 C 0.00488 0.21998 0.49879 0.0
H749 H 0.97121 0.10039 0.65834 0.0
H750 H 0.97675 0.1327 0.66627 0.0
C751 C 0.01207 0.2305 0.45376 0.0
C752 C 0.9986 0.18883 0.53869 0.0
H753 H 0.95811 0.16705 0.53402 0.0
C754 C 0.00782 0.17664 0.57482 0.0
C755 C 0.98009 0.18587 0.52662 0.0
C756 C 0.9693 0.19829 0.48775 0.0
C757 C 0.99985 0.16035 0.59252 0.0
C758 C 0.98192 0.15656 0.57516 0.0
C759 C 0.97193 0.16992 0.54629 0.0
C760 C 0.97484 0.13786 0.57396 0.0
C761 C 0.01132 0.14668 0.62435 0.0
C762 C 0.97045 0.13027 0.51994 0.0
C763 C 0.96668 0.11195 0.51534 0.0
C764 C 0.96756 0.10069 0.56451 0.0
C765 C 0.97052 0.10858 0.61935 0.0
C766 C 0.97397 0.12705 0.62402 0.0
H767 H 0.02563 0.15097 0.62763 0.0
H768 H 0.00607 0.14485 0.66913 0.0
H769 H 0.01087 0.13344 0.6021 0.0
H770 H 0.97082 0.13835 0.4806 0.0
H771 H 0.96385 0.10648 0.47272 0.0
H772 H 0.30706 0.05126 0.29645 0.0
H773 H 0.33033 0.04141 0.36295 0.0
H774 H 0.29063 0.03278 0.49707 0.0
H775 H 0.26692 0.04351 0.43111 0.0
H776 H 0.33996 0.05208 0.4851 0.0
H777 H 0.3148 0.98186 0.45466 0.0
H778 H 0.30875 0.99967 0.40462 0.0
H779 H 0.2994 0.99938 0.47648 0.0
C780 C 0.30316 0.04806 0.34066 0.0
C781 C 0.28496 0.04812 0.35807 0.0
C782 C 0.31656 0.04223 0.37853 0.0
C783 C 0.3121 0.03617 0.43437 0.0
C784 C 0.29422 0.03727 0.45371 0.0
H785 H 0.40911 1.00029 0.61738 0.0
H786 H 0.37758 0.00976 0.60765 0.0
C787 C 0.28073 0.04333 0.41588 0.0
C788 C 0.32618 0.02713 0.46891 0.0
H789 H 0.344 0.98531 0.49214 0.0
C790 C 0.34071 0.03751 0.48839 0.0
C791 C 0.32703 0.00812 0.47212 0.0
C792 C 0.31173 0.99648 0.45085 0.0
C793 C 0.35666 0.02933 0.50765 0.0
C794 C 0.35789 0.01027 0.50797 0.0
C795 C 0.34293 0.99989 0.4918 0.0
C796 C 0.37525 1.0011 0.51847 0.0
C797 C 0.37247 0.04118 0.52342 0.0
C798 C 0.38383 0.99197 0.47274 0.0
C799 C 0.40166 0.98617 0.47872 0.0
C800 C 0.4111 0.98963 0.53028 0.0
C801 C 0.40206 0.99763 0.57722 0.0
C802 C 0.38418 1.00312 0.57162 0.0
H803 H 0.37025 0.05548 0.51079 0.0
H804 H 0.3746 0.04067 0.57114 0.0
H805 H 0.38498 0.03635 0.502 0.0
H806 H 0.37709 0.99025 0.43136 0.0
H807 H 0.40839 0.98003 0.44198 0.0
H808 H 0.43974 0.26991 0.42437 0.0
H809 H 0.4439 0.29409 0.49568 0.0
H810 H 0.44863 0.33276 0.35592 0.0
H811 H 0.4448 0.30908 0.28539 0.0
H812 H 0.47407 0.31353 0.50533 0.0
H813 H 0.41848 0.3609 0.46747 0.0
H814 H 0.41751 0.33781 0.44295 0.0
H815 H 0.42787 0.35503 0.3984 0.0
C816 C 0.44128 0.28365 0.409 0.0
C817 C 0.44186 0.28751 0.349 0.0
C818 C 0.44356 0.29743 0.44981 0.0
C819 C 0.44624 0.31529 0.43121 0.0
C820 C 0.44596 0.31922 0.37154 0.0
H821 H 0.52118 0.39342 0.47607 0.0
H822 H 0.50413 0.36527 0.47488 0.0
C823 C 0.44375 0.30555 0.331 0.0
C824 C 0.45207 0.32955 0.47197 0.0
H825 H 0.44811 0.37494 0.48878 0.0
C826 C 0.46807 0.32686 0.50341 0.0
C827 C 0.44403 0.34682 0.4713 0.0
C828 C 0.4259 0.3502 0.4437 0.0
C829 C 0.47735 0.34145 0.52795 0.0
C830 C 0.47068 0.35911 0.51913 0.0
C831 C 0.45357 0.36147 0.49413 0.0
C832 C 0.48209 0.37529 0.52766 0.0
C833 C 0.49456 0.33785 0.56084 0.0
C834 C 0.47533 0.39038 0.55703 0.0
C835 C 0.48499 0.40653 0.55715 0.0
C836 C 0.5015 0.40793 0.52732 0.0
C837 C 0.50858 0.39265 0.49977 0.0
C838 C 0.49889 0.37652 0.49954 0.0
H839 H 0.49382 0.32473 0.5842 0.0
H840 H 0.50595 0.33703 0.52965 0.0
H841 H 0.49745 0.34865 0.59281 0.0
H842 H 0.46239 0.38978 0.57883 0.0
H843 H 0.47939 0.41804 0.5797 0.0
H844 H 0.22753 0.5232 0.39233 0.0
H845 H 0.20738 0.52337 0.47588 0.0
H846 H 0.22328 0.46891 0.51839 0.0
H847 H 0.24351 0.4687 0.43382 0.0
H848 H 0.18815 0.47173 0.49478 0.0
H849 H 0.20467 0.52494 0.65094 0.0
H850 H 0.20706 0.53382 0.57879 0.0
H851 H 0.22136 0.51551 0.60239 0.0
C852 C 0.22715 0.51148 0.42063 0.0
C853 C 0.2368 0.49586 0.40648 0.0
C854 C 0.21584 0.51167 0.46894 0.0
C855 C 0.21397 0.49622 0.50392 0.0
C856 C 0.22471 0.48104 0.49242 0.0
H857 H 0.10166 0.48947 0.62111 0.0
H858 H 0.13354 0.48142 0.62929 0.0
C859 C 0.23619 0.48091 0.44413 0.0
C860 C 0.19791 0.49479 0.5418 0.0
H861 H 0.17198 0.52145 0.62844 0.0
C862 C 0.18476 0.48214 0.52591 0.0
C863 C 0.1936 0.50824 0.58282 0.0
C864 C 0.20755 0.52125 0.6051 0.0
C865 C 0.16678 0.48418 0.54322 0.0
C866 C 0.16204 0.49903 0.5785 0.0
C867 C 0.17562 0.51027 0.6005 0.0
C868 C 0.1431 0.50501 0.58316 0.0
C869 C 0.15279 0.47158 0.51837 0.0
C870 C 0.138 0.52126 0.5563 0.0
C871 C 0.11984 0.52589 0.55141 0.0
C872 C 0.10647 0.51431 0.5732 0.0
C873 C 0.11167 0.49846 0.60263 0.0
C874 C 0.12985 0.4939 0.60783 0.0
H875 H 0.15857 0.46216 0.4859 0.0
H876 H 0.14678 0.46342 0.55397 0.0
H877 H 0.1418 0.47936 0.49718 0.0
H878 H 0.14804 0.52997 0.53661 0.0
H879 H 0.11626 0.53814 0.52836 0.0
H880 H 0.99388 0.80747 0.94532 0.0
H881 H 0.00586 0.8258 0.86686 0.0
H882 H 0.04529 0.78466 0.82873 0.0
H883 H 0.0339 0.76661 0.91022 0.0
H884 H 0.06186 0.81397 0.84026 0.0
H885 H 0.0061 0.83055 0.69687 0.0
H886 H 0.99753 0.8351 0.76795 0.0
H887 H 0.00411 0.81237 0.74885 0.0
C888 C 0.00493 0.80217 0.91973 0.0
C889 C 0.01315 0.78576 0.93468 0.0
C890 C 0.01158 0.81253 0.87389 0.0
C891 C 0.02637 0.80656 0.84098 0.0
C892 C 0.03379 0.78953 0.85315 0.0
H893 H 0.05014 0.91006 0.68801 0.0
H894 H 0.04884 0.87734 0.67824 0.0
C895 C 0.02723 0.77919 0.89962 0.0
C896 C 0.03579 0.81962 0.80241 0.0
H897 H 0.02579 0.85737 0.72436 0.0
C898 C 0.05412 0.82309 0.81307 0.0
C899 C 0.02621 0.83118 0.76435 0.0
C900 C 0.00745 0.82687 0.7435 0.0
C901 C 0.06214 0.83921 0.79437 0.0
C902 C 0.05135 0.85242 0.76668 0.0
C903 C 0.03397 0.84766 0.74789 0.0
C904 C 0.05622 0.87184 0.76765 0.0
C905 C 0.0818 0.84231 0.80763 0.0
C906 C 0.06132 0.87974 0.82062 0.0
C907 C 0.06239 0.8984 0.82605 0.0
C908 C 0.05789 0.90969 0.77912 0.0
C909 C 0.05377 0.9018 0.72511 0.0
C910 C 0.05294 0.88305 0.71945 0.0
H911 H 0.0896 0.82971 0.80057 0.0
H912 H 0.08767 0.85318 0.7802 0.0
H913 H 0.08334 0.84593 0.85413 0.0
H914 H 0.06338 0.87156 0.85913 0.0
H915 H 0.06594 0.90398 0.86794 0.0
H916 H 0.70831 0.99381 0.94487 0.0
H917 H 0.69005 0.00481 0.86507 0.0
H918 H 0.73007 0.0454 0.82608 0.0
H919 H 0.74795 0.03508 0.90911 0.0
H920 H 0.70058 0.06119 0.8361 0.0
H921 H 0.68502 0.00463 0.69577 0.0
H922 H 0.68086 0.99607 0.76725 0.0
H923 H 0.70337 1.00321 0.74711 0.0
C924 C 0.71338 0.00491 0.91886 0.0
C925 C 0.72938 0.01381 0.93414 0.0
C926 C 0.70308 0.01099 0.87216 0.0
C927 C 0.70872 0.02584 0.83865 0.0
C928 C 0.72544 0.03386 0.85098 0.0
H929 H 0.60364 0.04608 0.69544 0.0
H930 H 0.63625 0.04603 0.68105 0.0
C931 C 0.7357 0.0279 0.89838 0.0
C932 C 0.69547 0.03484 0.79977 0.0
H933 H 0.65763 0.02357 0.72482 0.0
C934 C 0.69156 0.05311 0.80981 0.0
C935 C 0.68403 0.02485 0.76271 0.0
C936 C 0.68877 0.00616 0.74222 0.0
C937 C 0.67511 0.0606 0.79209 0.0
C938 C 0.66206 0.04933 0.76605 0.0
C939 C 0.66724 0.03209 0.74724 0.0
C940 C 0.64252 0.05346 0.76971 0.0
C941 C 0.67147 0.08018 0.80507 0.0
C942 C 0.63508 0.05813 0.82384 0.0
C943 C 0.61649 0.05842 0.83195 0.0
C944 C 0.60484 0.05362 0.78655 0.0
C945 C 0.61221 0.04993 0.73139 0.0
C946 C 0.63088 0.04983 0.72307 0.0
H947 H 0.68372 0.08838 0.79645 0.0
H948 H 0.66017 0.08561 0.77861 0.0
H949 H 0.66819 0.0817 0.85188 0.0
H950 H 0.64363 0.06043 0.86119 0.0
H951 H 0.61127 0.06163 0.87467 0.0
H952 H 0.42203 0.70927 0.07401 0.0
H953 H 0.4203 0.68631 0.99871 0.0
H954 H 0.4544 0.71854 0.88752 0.0
H955 H 0.45733 0.74095 0.96412 0.0
H956 H 0.41212 0.68151 0.8834 0.0
H957 H 0.48612 0.67555 0.92115 0.0
H958 H 0.47199 0.68969 0.96538 0.0
H959 H 0.47857 0.69693 0.89371 0.0
C960 C 0.42901 0.7116 0.03331 0.0
C961 C 0.44035 0.72665 0.02607 0.0
C962 C 0.42784 0.69854 0.98998 0.0
C963 C 0.43774 0.70045 0.93836 0.0
C964 C 0.44708 0.71658 0.92781 0.0
H965 H 0.47374 0.60521 0.74777 0.0
H966 H 0.46502 0.63677 0.76085 0.0
C967 C 0.44855 0.72951 0.97156 0.0
C968 C 0.44049 0.68448 0.90093 0.0
H969 H 0.47258 0.65355 0.86445 0.0
C970 C 0.42538 0.67554 0.87827 0.0
C971 C 0.45782 0.67667 0.89449 0.0
C972 C 0.47455 0.68507 0.92026 0.0
C973 C 0.42704 0.65862 0.85158 0.0
C974 C 0.44422 0.65048 0.8479 0.0
C975 C 0.45943 0.65991 0.86717 0.0
C976 C 0.44668 0.63133 0.83198 0.0
C977 C 0.41036 0.64937 0.82912 0.0
C978 C 0.43909 0.61783 0.8672 0.0
C979 C 0.44422 0.59985 0.86036 0.0
C980 C 0.45711 0.59507 0.81835 0.0
C981 C 0.46401 0.60853 0.78118 0.0
C982 C 0.4589 0.62652 0.78814 0.0
H983 H 0.39976 0.65931 0.81733 0.0
H984 H 0.41345 0.64097 0.79052 0.0
H985 H 0.40484 0.64046 0.86368 0.0
H986 H 0.43002 0.6213 0.90234 0.0
H987 H 0.43882 0.58987 0.89015 0.0
H988 H 0.76609 0.46749 0.92036 0.0
H989 H 0.78422 0.45715 0.83785 0.0
H990 H 0.81939 0.50302 0.85813 0.0
H991 H 0.80094 0.51382 0.9383 0.0
H992 H 0.8164 0.49185 0.74186 0.0
H993 H 0.83097 0.43408 0.8915 0.0
H994 H 0.80826 0.43745 0.86673 0.0
H995 H 0.81824 0.45326 0.91617 0.0
C996 C 0.77732 0.47568 0.90585 0.0
C997 C 0.78242 0.49121 0.93673 0.0
C998 C 0.78772 0.46969 0.85894 0.0
C999 C 0.8034 0.47906 0.84291 0.0
C1000 C 0.8074 0.4955 0.86998 0.0
H1001 H 0.90585 0.4919 0.80046 0.0
H1002 H 0.87346 0.49205 0.78442 0.0
C1003 C 0.79698 0.50155 0.91634 0.0
C1004 C 0.8175 0.4707 0.80635 0.0
H1005 H 0.85271 0.4417 0.82364 0.0
C1006 C 0.82406 0.48046 0.75833 0.0
C1007 C 0.82733 0.45561 0.82708 0.0
C1008 C 0.82096 0.44446 0.87823 0.0
C1009 C 0.84123 0.47695 0.73541 0.0
C1010 C 0.85205 0.46356 0.76187 0.0
C1011 C 0.84445 0.45214 0.80398 0.0
C1012 C 0.87196 0.46405 0.75819 0.0
C1013 C 0.84813 0.48852 0.68617 0.0
C1014 C 0.88198 0.44824 0.74906 0.0
C1015 C 0.90058 0.44807 0.75923 0.0
C1016 C 0.9093 0.46363 0.7796 0.0
C1017 C 0.89938 0.4796 0.7861 0.0
C1018 C 0.88091 0.47981 0.77555 0.0
H1019 H 0.83711 0.49164 0.65503 0.0
H1020 H 0.85303 0.50153 0.70384 0.0
H1021 H 0.85934 0.4819 0.66238 0.0
H1022 H 0.87528 0.43587 0.73656 0.0
H1023 H 0.90797 0.4356 0.7537 0.0
H1024 H 0.04295 0.20552 0.87123 0.0
H1025 H 0.04014 0.17691 0.81915 0.0
H1026 H 0.99044 0.16588 0.91016 0.0
H1027 H 0.99288 0.19476 0.96036 0.0
H1028 H 0.04139 0.14467 0.86028 0.0
H1029 H 0.97521 0.15121 0.75248 0.0
H1030 H 0.9866 0.17019 0.78449 0.0
H1031 H 0.97337 0.1551 0.82897 0.0
C1032 C 0.03124 0.19713 0.87917 0.0
C1033 C 0.01806 0.20248 0.91957 0.0
C1034 C 0.02965 0.18075 0.84946 0.0
C1035 C 0.01493 0.1692 0.8598 0.0
C1036 C 1.00163 0.17468 0.89967 0.0
H1037 H 0.01761 0.05311 0.82595 0.0
H1038 H 0.01868 0.08454 0.85669 0.0
C1039 C 1.00307 0.19121 0.92866 0.0
C1040 C 0.01431 0.15086 0.83284 0.0
H1041 H 0.98678 0.12096 0.76277 0.0
C1042 C 0.0295 0.13964 0.83829 0.0
C1043 C 0.99895 0.14419 0.80322 0.0
C1044 C 0.98271 0.15588 0.79135 0.0
C1045 C 0.02957 0.12191 0.81682 0.0
C1046 C 0.0138 0.11486 0.79068 0.0
C1047 C 0.9988 0.12622 0.78345 0.0
C1048 C 0.01256 0.09564 0.77178 0.0
C1049 C 0.04666 0.11099 0.82202 0.0
C1050 C 0.00807 0.09123 0.71418 0.0
C1051 C 0.00711 0.07315 0.6966 0.0
C1052 C 0.01076 0.05907 0.73621 0.0
C1053 C 0.01497 0.06355 0.79401 0.0
C1054 C 0.01569 0.08158 0.81165 0.0
H1055 H 0.05872 0.11982 0.8251 0.0
H1056 H 0.04607 0.10268 0.86222 0.0
H1057 H 0.0484 0.10185 0.78431 0.0
H1058 H 0.00558 0.10181 0.68259 0.0
H1059 H 1.00373 0.07022 0.6518 0.0
H1060 H 0.30124 0.00545 0.84995 0.0
H1061 H 0.33185 1.0008 0.81126 0.0
H1062 H 0.35367 0.03305 0.94983 0.0
H1063 H 0.32343 0.03756 0.98884 0.0
H1064 H 0.35827 0.02889 0.77694 0.0
H1065 H 0.383 0.98521 0.95651 0.0
H1066 H 0.35929 0.98875 0.94257 0.0
H1067 H 0.37223 0.00571 0.97931 0.0
C1068 C 0.31258 0.01146 0.87228 0.0
C1069 C 0.30981 0.02198 0.92232 0.0
C1070 C 0.33006 0.00885 0.85002 0.0
C1071 C 0.3451 0.01644 0.87796 0.0
C1072 C 0.34234 0.0269 0.92784 0.0
H1073 H 0.46099 0.02355 0.83337 0.0
H1074 H 0.42957 0.02539 0.86571 0.0
C1075 C 0.32496 0.02961 0.94975 0.0
C1076 C 0.36372 0.0138 0.85503 0.0
H1077 H 0.40508 0.99666 0.89111 0.0
C1078 C 0.36845 0.02164 0.80146 0.0
C1079 C 0.37707 0.00453 0.8874 0.0
C1080 C 0.37268 0.99542 0.94445 0.0
C1081 C 0.38627 0.02089 0.78029 0.0
C1082 C 0.39966 0.01171 0.81288 0.0
C1083 C 0.39485 1.00369 0.86609 0.0
C1084 C 0.41877 0.01055 0.79289 0.0
C1085 C 0.39089 0.03066 0.7246 0.0
C1086 C 0.42327 1.00134 0.74166 0.0
C1087 C 0.44121 1.00046 0.72255 0.0
C1088 C 0.45514 0.00845 0.75505 0.0
C1089 C 0.45064 0.0173 0.80712 0.0
C1090 C 0.43266 0.01835 0.82574 0.0
H1091 H 0.37962 0.03923 0.70881 0.0
H1092 H 0.403 0.03924 0.73092 0.0
H1093 H 0.39414 0.02071 0.69043 0.0
H1094 H 0.41287 0.99463 0.71687 0.0
H1095 H 0.44417 0.99327 0.6828 0.0
H1096 H 0.5097 0.29331 0.85342 0.0
H1097 H 0.51526 0.3227 0.8062 0.0
H1098 H 0.47851 0.34802 0.92589 0.0
H1099 H 0.47303 0.31905 0.97314 0.0
H1100 H 0.48743 0.34803 0.75573 0.0
H1101 H 0.52678 0.37737 0.93716 0.0
H1102 H 0.52394 0.35335 0.92793 0.0
H1103 H 0.50609 0.36663 0.95869 0.0
C1104 C 0.50289 0.30517 0.8697 0.0
C1105 C 0.49082 0.30377 0.9168 0.0
C1106 C 0.50601 0.32192 0.84256 0.0
C1107 C 0.49737 0.33757 0.86278 0.0
C1108 C 0.48541 0.33617 0.90978 0.0
H1109 H 0.49092 0.45191 0.81208 0.0
H1110 H 0.48941 0.42037 0.84263 0.0
C1111 C 0.48218 0.31953 0.93645 0.0
C1112 C 0.50058 0.3555 0.83533 0.0
H1113 H 0.51572 0.39788 0.86604 0.0
C1114 C 0.49381 0.35892 0.77939 0.0
C1115 C 0.50891 0.36966 0.86629 0.0
C1116 C 0.51701 0.36661 0.92567 0.0
C1117 C 0.49431 0.37636 0.75479 0.0
C1118 C 0.50214 0.39072 0.78662 0.0
C1119 C 0.50953 0.38703 0.8417 0.0
C1120 C 0.50225 0.40982 0.76531 0.0
C1121 C 0.48576 0.37931 0.69605 0.0
C1122 C 0.50987 0.41458 0.71138 0.0
C1123 C 0.51052 0.43267 0.69344 0.0
C1124 C 0.50386 0.44647 0.72945 0.0
C1125 C 0.4962 0.44168 0.78326 0.0
C1126 C 0.49537 0.4236 0.80084 0.0
H1127 H 0.47612 0.36838 0.68504 0.0
H1128 H 0.47853 0.3924 0.69415 0.0
H1129 H 0.49646 0.37939 0.66234 0.0
H1130 H 0.51572 0.40438 0.6836 0.0
H1131 H 0.51667 0.43588 0.652 0.0
H1132 H 0.19312 0.47345 0.99048 0.0
H1133 H 0.1634 0.47569 0.94631 0.0
H1134 H 0.18485 0.51037 0.81227 0.0
H1135 H 0.21501 0.50765 0.85517 0.0
H1136 H 0.14325 0.5062 0.93169 0.0
H1137 H 0.15585 0.47449 0.71691 0.0
H1138 H 0.17172 0.47279 0.77615 0.0
H1139 H 0.17021 0.49321 0.73403 0.0
C1140 C 0.19173 0.48122 0.95078 0.0
C1141 C 0.20667 0.49018 0.92617 0.0
C1142 C 0.17459 0.48263 0.92583 0.0
C1143 C 0.17182 0.49302 0.87549 0.0
C1144 C 0.18665 0.50199 0.85048 0.0
H1145 H 0.07161 0.51393 0.68332 0.0
H1146 H 0.10291 0.51374 0.71708 0.0
C1147 C 0.20389 0.50057 0.87549 0.0
C1148 C 0.15319 0.49502 0.8516 0.0
H1149 H 0.12668 0.48624 0.73343 0.0
C1150 C 0.13966 0.50186 0.88823 0.0
C1151 C 0.14847 0.48959 0.79461 0.0
C1152 C 0.16226 0.48198 0.75317 0.0
C1153 C 0.12163 0.50328 0.86985 0.0
C1154 C 0.11677 0.49724 0.81367 0.0
C1155 C 0.13036 0.49081 0.77648 0.0
C1156 C 0.09767 0.49727 0.79307 0.0
C1157 C 0.10803 0.51152 0.91069 0.0
C1158 C 0.08421 0.48797 0.82414 0.0
C1159 C 0.06624 0.48826 0.80532 0.0
C1160 C 0.06134 0.49757 0.75433 0.0
C1161 C 0.0749 0.50653 0.72255 0.0
C1162 C 0.09283 0.50643 0.7418 0.0
H1163 H 0.11461 0.52037 0.94321 0.0
H1164 H 0.09781 0.51954 0.88661 0.0
H1165 H 0.10098 0.5006 0.93474 0.0
H1166 H 0.0876 0.48042 0.86301 0.0
H1167 H 0.05619 0.48109 0.83062 0.0
H1168 H 0.02416 0.80405 0.44889 0.0
H1169 H 0.02809 0.83178 0.50517 0.0
H1170 H 0.97127 0.84299 0.4892 0.0
H1171 H 0.96719 0.81515 0.43443 0.0
H1172 H 0.02196 0.8655 0.46382 0.0
H1173 H 0.97999 0.8543 0.65888 0.0
H1174 H 0.98582 0.83625 0.60985 0.0
H1175 H 0.96719 0.851 0.59367 0.0
C1176 C 0.01242 0.81214 0.45885 0.0
C1177 C 0.99536 0.80737 0.43698 0.0
C1178 C 0.0147 0.82808 0.49068 0.0
C1179 C 0.99996 0.83947 0.50191 0.0
C1180 C 0.98282 0.83434 0.48211 0.0
H1181 H 0.99524 0.95452 0.53657 0.0
H1182 H 0.99507 0.92291 0.50689 0.0
C1183 C 0.98053 0.81847 0.45025 0.0
C1184 C 1.00268 0.85751 0.52908 0.0
H1185 H 0.98686 0.88545 0.63556 0.0
C1186 C 0.01445 0.86976 0.50184 0.0
C1187 C 0.99307 0.86309 0.57913 0.0
C1188 C 0.98096 0.85039 0.6124 0.0
C1189 C 0.01623 0.88759 0.52153 0.0
C1190 C 0.00577 0.89349 0.56928 0.0
C1191 C 0.99467 0.88103 0.59838 0.0
C1192 C 0.00571 0.91269 0.58814 0.0
C1193 C 0.02924 0.90002 0.49075 0.0
C1194 C 0.01133 0.91747 0.64427 0.0
C1195 C 0.01152 0.9356 0.6614 0.0
C1196 C 0.00578 0.9493 0.62301 0.0
C1197 C 0.99982 0.94439 0.56723 0.0
C1198 C 0.9998 0.9263 0.55003 0.0
H1199 H 0.03968 0.89237 0.46653 0.0
H1200 H 0.02172 0.90845 0.45899 0.0
H1201 H 0.03604 0.90914 0.52202 0.0
H1202 H 0.01576 0.90718 0.67463 0.0
H1203 H 0.01615 0.93885 0.70477 0.0
H1204 H 0.70722 0.02279 0.44631 0.0
H1205 H 0.67916 0.02563 0.50191 0.0
H1206 H 0.67047 0.96835 0.48782 0.0
H1207 H 0.6986 0.96537 0.43319 0.0
H1208 H 0.64536 0.01721 0.45987 0.0
H1209 H 0.6595 0.9779 0.65934 0.0
H1210 H 0.67704 0.98469 0.60936 0.0
H1211 H 0.66361 0.96503 0.59474 0.0
C1212 C 0.69959 0.01073 0.45638 0.0
C1213 C 0.70519 0.99385 0.4352 0.0
C1214 C 0.68347 0.01239 0.48783 0.0
C1215 C 0.67271 0.99719 0.49949 0.0
C1216 C 0.67862 0.98024 0.48023 0.0
H1217 H 0.55769 0.98896 0.54736 0.0
H1218 H 0.58897 0.98886 0.51369 0.0
C1219 C 0.69466 0.97859 0.44854 0.0
C1220 C 0.65462 0.99919 0.52715 0.0
H1221 H 0.62814 0.9836 0.63837 0.0
C1222 C 0.64167 0.00999 0.49923 0.0
C1223 C 0.64979 0.98997 0.57893 0.0
C1224 C 0.66328 0.9789 0.61267 0.0
C1225 C 0.62391 0.01126 0.52026 0.0
C1226 C 0.61881 1.00125 0.57019 0.0
C1227 C 0.63194 0.99106 0.5996 0.0
C1228 C 0.59984 1.00095 0.59161 0.0
C1229 C 0.61072 0.02332 0.48878 0.0
C1230 C 0.59553 0.00733 0.6473 0.0
C1231 C 0.5776 0.00746 0.66671 0.0
C1232 C 0.5636 1.00093 0.63113 0.0
C1233 C 0.56805 0.99415 0.57589 0.0
C1234 C 0.58595 0.99418 0.55639 0.0
H1235 H 0.61774 0.03361 0.4618 0.0
H1236 H 0.60227 0.01501 0.45949 0.0
H1237 H 0.60168 0.0303 0.51992 0.0
H1238 H 0.60604 0.01243 0.67548 0.0
H1239 H 0.57474 0.01272 0.70961 0.0
H1240 H 0.53519 0.70649 0.48315 0.0
H1241 H 0.53893 0.6765 0.52755 0.0
H1242 H 0.48966 0.65885 0.44621 0.0
H1243 H 0.48574 0.68861 0.4029 0.0
H1244 H 0.49047 0.64874 0.55743 0.0
H1245 H 0.55523 0.63017 0.45246 0.0
H1246 H 0.55602 0.65063 0.49378 0.0
H1247 H 0.5422 0.64948 0.42972 0.0
C1248 C 0.52523 0.69616 0.47462 0.0
C1249 C 0.51008 0.70002 0.43994 0.0
C1250 C 0.52741 0.67899 0.49979 0.0
C1251 C 0.51466 0.66528 0.48986 0.0
C1252 C 0.49965 0.66915 0.45488 0.0
H1253 H 0.52282 0.54959 0.52769 0.0
H1254 H 0.5231 0.58113 0.4962 0.0
C1255 C 0.49739 0.68625 0.43027 0.0
C1256 C 0.51648 0.64695 0.51632 0.0
H1257 H 0.54332 0.60948 0.5208 0.0
C1258 C 0.50206 0.64018 0.54956 0.0
C1259 C 0.53151 0.63567 0.50564 0.0
C1260 C 0.54706 0.64174 0.46804 0.0
C1261 C 0.50208 0.62244 0.57146 0.0
C1262 C 0.51721 0.6112 0.56139 0.0
C1263 C 0.53176 0.61806 0.52887 0.0
C1264 C 0.51783 0.59205 0.58171 0.0
C1265 C 0.48552 0.61579 0.60316 0.0
C1266 C 0.51517 0.58756 0.64053 0.0
C1267 C 0.51473 0.56949 0.65848 0.0
C1268 C 0.51735 0.55548 0.61828 0.0
C1269 C 0.52075 0.56001 0.55985 0.0
C1270 C 0.52093 0.57808 0.54177 0.0
H1271 H 0.47345 0.62402 0.59242 0.0
H1272 H 0.48257 0.6015 0.59249 0.0
H1273 H 0.48779 0.61681 0.6507 0.0
H1274 H 0.5133 0.59802 0.67265 0.0
H1275 H 0.51237 0.56651 0.70393 0.0
H1276 H 0.81775 0.54105 0.43063 0.0
H1277 H 0.84622 0.53825 0.48376 0.0
H1278 H 0.83714 0.48121 0.50481 0.0
H1279 H 0.80869 0.48385 0.45099 0.0
H1280 H 0.8552 0.52302 0.59926 0.0
H1281 H 0.88609 0.48624 0.41378 0.0
H1282 H 0.86555 0.49909 0.40631 0.0
H1283 H 0.86517 0.47749 0.44172 0.0
C1284 C 0.82171 0.52792 0.44703 0.0
C1285 C 0.81099 0.51264 0.43605 0.0
C1286 C 0.83796 0.52637 0.47763 0.0
C1287 C 0.84394 0.50949 0.49756 0.0
C1288 C 0.83288 0.49434 0.48928 0.0
H1289 H 0.94181 0.49255 0.70768 0.0
H1290 H 0.91062 0.49269 0.67309 0.0
C1291 C 0.81654 0.4959 0.45894 0.0
C1292 C 0.86226 0.50769 0.52344 0.0
H1293 H 0.90453 0.49158 0.495 0.0
C1294 C 0.86598 0.51605 0.57676 0.0
C1295 C 0.87634 0.49872 0.49373 0.0
C1296 C 0.87325 0.48995 0.43551 0.0
C1297 C 0.88341 0.51571 0.60109 0.0
C1298 C 0.89753 0.50683 0.57114 0.0
C1299 C 0.89374 0.49838 0.51799 0.0
C1300 C 0.9165 0.50673 0.59275 0.0
C1301 C 0.88665 0.52531 0.65782 0.0
C1302 C 0.93036 0.51417 0.55854 0.0
C1303 C 0.94828 0.51388 0.57776 0.0
C1304 C 0.9528 0.50607 0.63167 0.0
C1305 C 0.93888 0.49864 0.66591 0.0
C1306 C 0.92097 0.49886 0.64648 0.0
H1307 H 0.87558 0.53485 0.66832 0.0
H1308 H 0.88746 0.51521 0.69347 0.0
H1309 H 0.89957 0.53287 0.65663 0.0
H1310 H 0.92729 0.52026 0.5168 0.0
H1311 H 0.95859 0.5197 0.55011 0.0
loop_
_geom_bond_atom_site_label_1
_geom_bond_atom_site_label_2
_geom_bond_distance
_geom_bond_site_symmetry_2
_ccdc_geom_bond_type
C0 C1 1.384 . S
C0 H13 0.947 . S
C0 C35 1.382 . S
C1 C0 1.384 . S
C1 C2 1.378 . S
C2 C1 1.378 . S
C2 C3 1.378 . S
C2 H14 0.952 . S
C3 C2 1.378 . S
C3 H15 0.950 . S
C3 C34 1.383 . S
H4 C23 0.947 . S
H5 C24 0.946 . S
H6 C26 0.953 . S
H7 C27 0.945 . S
H8 C29 0.952 . S
H9 C30 0.949 . S
H10 C32 0.950 . S
H11 C33 0.948 . S
H12 C35 0.951 . S
H13 C0 0.947 . S
H14 C2 0.952 . S
H15 C3 0.950 . S
N16 C19 1.382 . S
N16 C21 1.363 . S
N17 C19 1.371 . S
N17 C20 1.372 . S
N18 C20 1.361 . S
N18 C21 1.377 . S
C19 N16 1.382 . S
C19 N17 1.371 . S
C19 C22 1.480 . S
C20 N17 1.372 . S
C20 N18 1.361 . S
C20 C28 1.457 . S
C21 N16 1.363 . S
C21 N18 1.377 . S
C21 C34 1.479 . S
C22 C19 1.480 . S
C22 C23 1.383 . S
C22 C27 1.385 . S
C23 H4 0.947 . S
C23 C22 1.383 . S
C23 C24 1.388 . S
C24 H5 0.946 . S
C24 C23 1.388 . S
C24 C25 1.384 . S
C25 C24 1.384 . S
C25 C26 1.377 . S
C26 H6 0.953 . S
C26 C25 1.377 . S
C26 C27 1.369 . S
C27 H7 0.945 . S
C27 C22 1.385 . S
C27 C26 1.369 . S
C28 C20 1.457 . S
C28 C29 1.372 . S
C28 C33 1.364 . S
C29 H8 0.952 . S
C29 C28 1.372 . S
C29 C30 1.389 . S
C30 H9 0.949 . S
C30 C29 1.389 . S
C30 C31 1.387 . S
C31 C30 1.387 . S
C31 C32 1.372 . S
C32 H10 0.950 . S
C32 C31 1.372 . S
C32 C33 1.379 . S
C33 H11 0.948 . S
C33 C28 1.364 . S
C33 C32 1.379 . S
C34 C3 1.383 . S
C34 C21 1.479 . S
C34 C35 1.398 . S
C35 C0 1.382 . S
C35 H12 0.951 . S
C35 C34 1.398 . S
C36 C37 1.381 1_655 S
C36 H49 0.948 . S
C36 C71 1.382 1_655 S
C37 C36 1.381 1_455 S
C37 C38 1.387 . S
C38 C37 1.387 . S
C38 C39 1.378 . S
C38 H50 0.952 . S
C39 C38 1.378 . S
C39 H51 0.950 . S
C39 C70 1.383 . S
H40 C59 0.947 . S
H41 C60 0.952 . S
H42 C62 0.953 . S
H43 C63 0.945 . S
H44 C65 0.949 1_655 S
H45 C66 0.956 . S
H46 C68 0.950 . S
H47 C69 0.948 . S
H48 C71 0.952 1_655 S
H49 C36 0.948 . S
H50 C38 0.952 . S
H51 C39 0.950 . S
N52 C55 1.382 . S
N52 C57 1.363 . S
N53 C55 1.371 . S
N53 C56 1.372 . S
N54 C56 1.361 . S
N54 C57 1.377 . S
C55 N52 1.382 . S
C55 N53 1.371 . S
C55 C58 1.480 . S
C56 N53 1.372 . S
C56 N54 1.361 . S
C56 C64 1.457 . S
C57 N52 1.363 . S
C57 N54 1.377 . S
C57 C70 1.479 . S
C58 C55 1.480 . S
C58 C59 1.383 . S
C58 C63 1.385 . S
C59 H40 0.947 . S
C59 C58 1.383 . S
C59 C60 1.386 1_455 S
C60 H41 0.952 . S
C60 C59 1.386 1_655 S
C60 C61 1.381 1_655 S
C61 C60 1.381 1_455 S
C61 C62 1.377 . S
C62 H42 0.953 . S
C62 C61 1.377 . S
C62 C63 1.369 . S
C63 H43 0.945 . S
C63 C58 1.385 . S
C63 C62 1.369 . S
C64 C56 1.457 . S
C64 C65 1.375 . S
C64 C69 1.364 . S
C65 H44 0.949 1_455 S
C65 C64 1.375 . S
C65 C66 1.387 1_455 S
C66 H45 0.956 . S
C66 C65 1.387 1_655 S
C66 C67 1.383 1_655 S
C67 C66 1.383 1_455 S
C67 C68 1.372 . S
C68 H46 0.950 . S
C68 C67 1.372 . S
C68 C69 1.379 . S
C69 H47 0.948 . S
C69 C64 1.364 . S
C69 C68 1.379 . S
C70 C39 1.383 . S
C70 C57 1.479 . S
C70 C71 1.397 . S
C71 C36 1.382 1_455 S
C71 H48 0.952 1_455 S
C71 C70 1.397 . S
C72 C73 1.381 1_565 S
C72 H85 0.948 . S
C72 C107 1.382 1_565 S
C73 C72 1.381 1_545 S
C73 C74 1.387 . S
C74 C73 1.387 . S
C74 C75 1.378 . S
C74 H86 0.952 . S
C75 C74 1.378 . S
C75 H87 0.950 . S
C75 C106 1.383 . S
H76 C95 0.947 . S
H77 C96 0.952 . S
H78 C98 0.953 . S
H79 C99 0.945 . S
H80 C101 0.949 1_565 S
H81 C102 0.957 . S
H82 C104 0.950 . S
H83 C105 0.948 . S
H84 C107 0.952 1_565 S
H85 C72 0.948 . S
H86 C74 0.952 . S
H87 C75 0.950 . S
N88 C91 1.382 . S
N88 C93 1.363 . S
N89 C91 1.371 . S
N89 C92 1.372 . S
N90 C92 1.361 . S
N90 C93 1.377 . S
C91 N88 1.382 . S
C91 N89 1.371 . S
C91 C94 1.480 . S
C92 N89 1.372 . S
C92 N90 1.361 . S
C92 C100 1.457 . S
C93 N88 1.363 . S
C93 N90 1.377 . S
C93 C106 1.479 . S
C94 C91 1.480 . S
C94 C95 1.383 . S
C94 C99 1.385 . S
C95 H76 0.947 . S
C95 C94 1.383 . S
C95 C96 1.386 1_545 S
C96 H77 0.952 . S
C96 C95 1.386 1_565 S
C96 C97 1.381 1_565 S
C97 C96 1.381 1_545 S
C97 C98 1.377 . S
C98 H78 0.953 . S
C98 C97 1.377 . S
C98 C99 1.369 . S
C99 H79 0.945 . S
C99 C94 1.385 . S
C99 C98 1.369 . S
C100 C92 1.457 . S
C100 C101 1.376 . S
C100 C105 1.364 . S
C101 H80 0.949 1_545 S
C101 C100 1.376 . S
C101 C102 1.386 1_545 S
C102 H81 0.957 . S
C102 C101 1.386 1_565 S
C102 C103 1.383 1_565 S
C103 C102 1.383 1_545 S
C103 C104 1.372 . S
C104 H82 0.950 . S
C104 C103 1.372 . S
C104 C105 1.379 . S
C105 H83 0.948 . S
C105 C100 1.364 . S
C105 C104 1.379 . S
C106 C75 1.383 . S
C106 C93 1.479 . S
C106 C107 1.397 . S
C107 C72 1.382 1_545 S
C107 H84 0.952 1_545 S
C107 C106 1.397 . S
C108 C109 1.384 . S
C108 H121 0.947 . S
C108 C143 1.382 . S
C109 C108 1.384 . S
C109 C110 1.378 . S
C110 C109 1.378 . S
C110 C111 1.378 . S
C110 H122 0.952 . S
C111 C110 1.378 . S
C111 H123 0.950 . S
C111 C142 1.383 . S
H112 C131 0.947 . S
H113 C132 0.946 . S
H114 C134 0.953 . S
H115 C135 0.945 . S
H116 C137 0.952 . S
H117 C138 0.949 . S
H118 C140 0.950 . S
H119 C141 0.948 . S
H120 C143 0.951 . S
H121 C108 0.947 . S
H122 C110 0.952 . S
H123 C111 0.950 . S
N124 C127 1.382 . S
N124 C129 1.363 . S
N125 C127 1.371 . S
N125 C128 1.372 . S
N126 C128 1.361 . S
N126 C129 1.377 . S
C127 N124 1.382 . S
C127 N125 1.371 . S
C127 C130 1.480 . S
C128 N125 1.372 . S
C128 N126 1.361 . S
C128 C136 1.457 . S
C129 N124 1.363 . S
C129 N126 1.377 . S
C129 C142 1.479 . S
C130 C127 1.480 . S
C130 C131 1.383 . S
C130 C135 1.385 . S
C131 H112 0.947 . S
C131 C130 1.383 . S
C131 C132 1.388 . S
C132 H113 0.946 . S
C132 C131 1.388 . S
C132 C133 1.384 . S
C133 C132 1.384 . S
C133 C134 1.377 . S
C134 H114 0.953 . S
C134 C133 1.377 . S
C134 C135 1.369 . S
C135 H115 0.945 . S
C135 C130 1.385 . S
C135 C134 1.369 . S
C136 C128 1.457 . S
C136 C137 1.372 . S
C136 C141 1.364 . S
C137 H116 0.952 . S
C137 C136 1.372 . S
C137 C138 1.389 . S
C138 H117 0.949 . S
C138 C137 1.389 . S
C138 C139 1.387 . S
C139 C138 1.387 . S
C139 C140 1.372 . S
C140 H118 0.950 . S
C140 C139 1.372 . S
C140 C141 1.379 . S
C141 H119 0.948 . S
C141 C136 1.364 . S
C141 C140 1.379 . S
C142 C111 1.383 . S
C142 C129 1.479 . S
C142 C143 1.398 . S
C143 C108 1.382 . S
C143 H120 0.951 . S
C143 C142 1.398 . S
C144 C145 1.384 . S
C144 H157 0.947 . S
C144 C179 1.382 . S
C145 C144 1.384 . S
C145 C146 1.378 . S
C146 C145 1.378 . S
C146 C147 1.378 . S
C146 H158 0.952 . S
C147 C146 1.378 . S
C147 H159 0.950 . S
C147 C178 1.383 . S
H148 C167 0.947 1_556 S
H149 C168 0.946 . S
H150 C170 0.953 . S
H151 C171 0.945 . S
H152 C173 0.952 . S
H153 C174 0.949 . S
H154 C176 0.950 . S
H155 C177 0.948 . S
H156 C179 0.951 . S
H157 C144 0.947 . S
H158 C146 0.952 . S
H159 C147 0.950 . S
N160 C163 1.382 . S
N160 C165 1.363 1_554 S
N161 C163 1.371 . S
N161 C164 1.372 . S
N162 C164 1.361 . S
N162 C165 1.377 1_554 S
C163 N160 1.382 . S
C163 N161 1.371 . S
C163 C166 1.480 . S
C164 N161 1.372 . S
C164 N162 1.361 . S
C164 C172 1.457 . S
C165 N160 1.363 1_556 S
C165 N162 1.377 1_556 S
C165 C178 1.479 . S
C166 C163 1.480 . S
C166 C167 1.383 . S
C166 C171 1.385 . S
C167 H148 0.947 1_554 S
C167 C166 1.383 . S
C167 C168 1.388 . S
C168 H149 0.946 . S
C168 C167 1.388 . S
C168 C169 1.384 . S
C169 C168 1.384 . S
C169 C170 1.377 . S
C170 H150 0.953 . S
C170 C169 1.377 . S
C170 C171 1.369 . S
C171 H151 0.945 . S
C171 C166 1.385 . S
C171 C170 1.369 . S
C172 C164 1.457 . S
C172 C173 1.372 . S
C172 C177 1.364 . S
C173 H152 0.952 . S
C173 C172 1.372 . S
C173 C174 1.389 . S
C174 H153 0.949 . S
C174 C173 1.389 . S
C174 C175 1.387 . S
C175 C174 1.387 . S
C175 C176 1.372 . S
C176 H154 0.950 . S
C176 C175 1.372 . S
C176 C177 1.379 . S
C177 H155 0.948 . S
C177 C172 1.364 . S
C177 C176 1.379 . S
C178 C147 1.383 . S
C178 C165 1.479 . S
C178 C179 1.398 . S
C179 C144 1.382 . S
C179 H156 0.951 . S
C179 C178 1.398 . S
C180 C181 1.384 . S
C180 H193 0.948 1_455 S
C180 C215 1.382 . S
C181 C180 1.384 . S
C181 C182 1.378 . S
C182 C181 1.378 . S
C182 C183 1.378 . S
C182 H194 0.952 . S
C183 C182 1.378 . S
C183 H195 0.950 . S
C183 C214 1.383 . S
H184 C203 0.947 1_556 S
H185 C204 0.948 . S
H186 C206 0.953 . S
H187 C207 0.945 . S
H188 C209 0.947 1_655 S
H189 C210 0.953 . S
H190 C212 0.950 . S
H191 C213 0.948 . S
H192 C215 0.950 1_655 S
H193 C180 0.948 1_655 S
H194 C182 0.952 . S
H195 C183 0.950 . S
N196 C199 1.382 . S
N196 C201 1.363 1_554 S
N197 C199 1.371 . S
N197 C200 1.372 . S
N198 C200 1.361 . S
N198 C201 1.377 1_554 S
C199 N196 1.382 . S
C199 N197 1.371 . S
C199 C202 1.480 . S
C200 N197 1.372 . S
C200 N198 1.361 . S
C200 C208 1.457 . S
C201 N196 1.363 1_556 S
C201 N198 1.377 1_556 S
C201 C214 1.479 . S
C202 C199 1.480 . S
C202 C203 1.383 . S
C202 C207 1.385 . S
C203 H184 0.947 1_554 S
C203 C202 1.383 . S
C203 C204 1.387 1_455 S
C204 H185 0.948 . S
C204 C203 1.387 1_655 S
C204 C205 1.383 1_655 S
C205 C204 1.383 1_455 S
C205 C206 1.377 . S
C206 H186 0.953 . S
C206 C205 1.377 . S
C206 C207 1.369 . S
C207 H187 0.945 . S
C207 C202 1.385 . S
C207 C206 1.369 . S
C208 C200 1.457 . S
C208 C209 1.379 . S
C208 C213 1.364 . S
C209 H188 0.947 1_455 S
C209 C208 1.379 . S
C209 C210 1.387 1_455 S
C210 H189 0.953 . S
C210 C209 1.387 1_655 S
C210 C211 1.384 1_655 S
C211 C210 1.384 1_455 S
C211 C212 1.372 . S
C212 H190 0.950 . S
C212 C211 1.372 . S
C212 C213 1.379 . S
C213 H191 0.948 . S
C213 C208 1.364 . S
C213 C212 1.379 . S
C214 C183 1.383 . S
C214 C201 1.479 . S
C214 C215 1.399 . S
C215 C180 1.382 . S
C215 H192 0.950 1_455 S
C215 C214 1.399 . S
C216 C217 1.384 . S
C216 H229 0.948 1_545 S
C216 C251 1.382 . S
C217 C216 1.384 . S
C217 C218 1.378 . S
C218 C217 1.378 . S
C218 C219 1.378 . S
C218 H230 0.952 . S
C219 C218 1.378 . S
C219 H231 0.950 . S
C219 C250 1.383 . S
H220 C239 0.947 1_556 S
H221 C240 0.948 . S
H222 C242 0.953 . S
H223 C243 0.945 . S
H224 C245 0.947 1_565 S
H225 C246 0.953 . S
H226 C248 0.950 . S
H227 C249 0.948 . S
H228 C251 0.950 1_565 S
H229 C216 0.948 1_565 S
H230 C218 0.952 . S
H231 C219 0.950 . S
N232 C235 1.382 . S
N232 C237 1.363 1_554 S
N233 C235 1.371 . S
N233 C236 1.372 . S
N234 C236 1.361 . S
N234 C237 1.377 1_554 S
C235 N232 1.382 . S
C235 N233 1.371 . S
C235 C238 1.480 . S
C236 N233 1.372 . S
C236 N234 1.361 . S
C236 C244 1.457 . S
C237 N232 1.363 1_556 S
C237 N234 1.377 1_556 S
C237 C250 1.479 . S
C238 C235 1.480 . S
C238 C239 1.383 . S
C238 C243 1.385 . S
C239 H220 0.947 1_554 S
C239 C238 1.383 . S
C239 C240 1.387 1_545 S
C240 H221 0.948 . S
C240 C239 1.387 1_565 S
C240 C241 1.383 1_565 S
C241 C240 1.383 1_545 S
C241 C242 1.377 . S
C242 H222 0.953 . S
C242 C241 1.377 . S
C242 C243 1.369 . S
C243 H223 0.945 . S
C243 C238 1.385 . S
C243 C242 1.369 . S
C244 C236 1.457 . S
C244 C245 1.379 . S
C244 C249 1.364 . S
C245 H224 0.947 1_545 S
C245 C244 1.379 . S
C245 C246 1.387 1_545 S
C246 H225 0.953 . S
C246 C245 1.387 1_565 S
C246 C247 1.384 1_565 S
C247 C246 1.384 1_545 S
C247 C248 1.372 . S
C248 H226 0.950 . S
C248 C247 1.372 . S
C248 C249 1.379 . S
C249 H227 0.948 . S
C249 C244 1.364 . S
C249 C248 1.379 . S
C250 C219 1.383 . S
C250 C237 1.479 . S
C250 C251 1.399 . S
C251 C216 1.382 . S
C251 H228 0.950 1_545 S
C251 C250 1.399 . S
C252 C253 1.384 . S
C252 H265 0.947 . S
C252 C287 1.382 . S
C253 C252 1.384 . S
C253 C254 1.378 . S
C254 C253 1.378 . S
C254 C255 1.378 . S
C254 H266 0.952 . S
C255 C254 1.378 . S
C255 H267 0.950 . S
C255 C286 1.383 . S
H256 C275 0.947 . S
H257 C276 0.946 . S
H258 C278 0.953 . S
H259 C279 0.945 1_556 S
H260 C281 0.952 . S
H261 C282 0.949 . S
H262 C284 0.950 . S
H263 C285 0.948 . S
H264 C287 0.951 . S
H265 C252 0.947 . S
H266 C254 0.952 . S
H267 C255 0.950 . S
N268 C271 1.382 . S
N268 C273 1.363 . S
N269 C271 1.389 . S
N269 C272 1.368 1_554 S
N270 C272 1.361 1_554 S
N270 C273 1.377 . S
C271 N268 1.382 . S
C271 N269 1.389 . S
C271 C274 1.480 . S
C272 N269 1.368 1_556 S
C272 N270 1.361 1_556 S
C272 C280 1.457 . S
C273 N268 1.363 . S
C273 N270 1.377 . S
C273 C286 1.479 . S
C274 C271 1.480 . S
C274 C275 1.383 . S
C274 C279 1.385 . S
C275 H256 0.947 . S
C275 C274 1.383 . S
C275 C276 1.388 . S
C276 H257 0.946 . S
C276 C275 1.388 . S
C276 C277 1.384 . S
C277 C276 1.384 . S
C277 C278 1.377 . S
C278 H258 0.953 . S
C278 C277 1.377 . S
C278 C279 1.369 . S
C279 H259 0.945 1_554 S
C279 C274 1.385 . S
C279 C278 1.369 . S
C280 C272 1.457 . S
C280 C281 1.372 . S
C280 C285 1.364 . S
C281 H260 0.952 . S
C281 C280 1.372 . S
C281 C282 1.389 . S
C282 H261 0.949 . S
C282 C281 1.389 . S
C282 C283 1.387 . S
C283 C282 1.387 . S
C283 C284 1.372 . S
C284 H262 0.950 . S
C284 C283 1.372 . S
C284 C285 1.379 . S
C285 H263 0.948 . S
C285 C280 1.364 . S
C285 C284 1.379 . S
C286 C255 1.383 . S
C286 C273 1.479 . S
C286 C287 1.398 . S
C287 C252 1.382 . S
C287 H264 0.951 . S
C287 C286 1.398 . S
Tb288 C290 2.809 . S
Tb288 O308 2.484 . S
Tb288 O309 2.440 . S
Tb288 O310 2.658 1_565 S
Tb288 O311 2.409 . S
Tb288 O312 2.378 . S
Tb288 O316 2.325 1_455 S
Tb288 O319 2.341 1_565 S
Tb289 C299 2.809 . S
Tb289 O310 2.325 1_655 S
Tb289 O313 2.341 1_545 S
Tb289 O314 2.484 . S
Tb289 O315 2.440 . S
Tb289 O316 2.658 1_545 S
Tb289 O317 2.409 . S
Tb289 O318 2.378 . S
C290 Tb288 2.809 . S
C290 C291 1.514 . S
C290 O308 1.248 . S
C290 O309 1.266 . S
C291 C290 1.514 . S
C291 C292 1.359 . S
C291 C296 1.348 . S
C292 C291 1.359 . S
C292 C293 1.380 . S
C292 H320 0.929 1_455 S
C293 C292 1.380 . S
C293 C294 1.347 . S
C293 H321 0.931 1_455 S
C294 C293 1.347 . S
C294 C295 1.369 . S
C295 C294 1.369 . S
C295 C296 1.408 . S
C295 H322 0.930 . S
C296 C291 1.348 . S
C296 C295 1.408 . S
C296 H323 0.930 . S
C297 O310 1.263 1_565 S
C297 O311 1.280 . S
C298 O312 1.236 1_655 S
C298 O313 1.266 . S
C299 Tb289 2.809 . S
C299 C300 1.514 . S
C299 O314 1.248 . S
C299 O315 1.266 . S
C300 C299 1.514 . S
C300 C301 1.359 . S
C300 C305 1.348 . S
C301 C300 1.359 . S
C301 C302 1.380 . S
C301 H324 0.929 1_655 S
C302 C301 1.380 . S
C302 C303 1.347 . S
C302 H325 0.931 1_655 S
C303 C302 1.347 . S
C303 C304 1.369 . S
C304 C303 1.369 . S
C304 C305 1.408 . S
C304 H326 0.930 . S
C305 C300 1.348 . S
C305 C304 1.408 . S
C305 H327 0.930 . S
C306 O316 1.281 1_545 S
C306 O317 1.254 . S
C307 O318 1.236 1_455 S
C307 O319 1.266 . S
O308 Tb288 2.484 . S
O308 C290 1.248 . S
O309 Tb288 2.440 . S
O309 C290 1.266 . S
O310 Tb288 2.658 1_545 S
O310 Tb289 2.325 1_455 S
O310 C297 1.263 1_545 S
O311 Tb288 2.409 . S
O311 C297 1.280 . S
O312 Tb288 2.378 . S
O312 C298 1.236 1_455 S
O313 Tb289 2.341 1_565 S
O313 C298 1.266 . S
O314 Tb289 2.484 . S
O314 C299 1.248 . S
O315 Tb289 2.440 . S
O315 C299 1.266 . S
O316 Tb288 2.325 1_655 S
O316 Tb289 2.658 1_565 S
O316 C306 1.281 1_565 S
O317 Tb289 2.409 . S
O317 C306 1.254 . S
O318 Tb289 2.378 . S
O318 C307 1.236 1_655 S
O319 Tb288 2.341 1_545 S
O319 C307 1.266 . S
H320 C292 0.929 1_655 S
H321 C293 0.931 1_655 S
H322 C295 0.930 . S
H323 C296 0.930 . S
H324 C301 0.929 1_455 S
H325 C302 0.931 1_455 S
H326 C304 0.930 . S
H327 C305 0.930 . S
Tb328 C330 2.809 . S
Tb328 O348 2.484 . S
Tb328 O349 2.440 . S
Tb328 O350 2.658 . S
Tb328 O351 2.409 . S
Tb328 O352 2.378 . S
Tb328 O356 2.325 1_545 S
Tb328 O359 2.341 . S
Tb329 C339 2.809 . S
Tb329 O350 2.325 1_565 S
Tb329 O353 2.341 . S
Tb329 O354 2.508 . S
Tb329 O355 2.440 . S
Tb329 O356 2.658 . S
Tb329 O357 2.409 . S
Tb329 O358 2.378 . S
C330 Tb328 2.809 . S
C330 C331 1.514 . S
C330 O348 1.248 . S
C330 O349 1.266 . S
C331 C330 1.514 . S
C331 C332 1.359 . S
C331 C336 1.348 . S
C332 C331 1.359 . S
C332 C333 1.380 . S
C332 H360 0.929 1_545 S
C333 C332 1.380 . S
C333 C334 1.347 . S
C333 H361 0.931 1_545 S
C334 C333 1.347 . S
C334 C335 1.369 . S
C335 C334 1.369 . S
C335 C336 1.408 . S
C335 H362 0.930 . S
C336 C331 1.348 . S
C336 C335 1.408 . S
C336 H363 0.930 . S
C337 O350 1.281 . S
C337 O351 1.254 . S
C338 O352 1.236 1_565 S
C338 O353 1.266 . S
C339 Tb329 2.809 . S
C339 C340 1.514 . S
C339 O354 1.303 . S
C339 O355 1.266 . S
C340 C339 1.514 . S
C340 C341 1.359 . S
C340 C345 1.348 . S
C341 C340 1.359 . S
C341 C342 1.380 . S
C341 H364 0.929 1_565 S
C342 C341 1.380 . S
C342 C343 1.347 . S
C342 H365 0.931 1_565 S
C343 C342 1.347 . S
C343 C344 1.369 . S
C344 C343 1.369 . S
C344 C345 1.408 . S
C344 H366 0.930 . S
C345 C340 1.348 . S
C345 C344 1.408 . S
C345 H367 0.930 . S
C346 O356 1.281 . S
C346 O357 1.254 . S
C347 O358 1.236 1_545 S
C347 O359 1.266 . S
O348 Tb328 2.484 . S
O348 C330 1.248 . S
O349 Tb328 2.440 . S
O349 C330 1.266 . S
O350 Tb328 2.658 . S
O350 Tb329 2.325 1_545 S
O350 C337 1.281 . S
O351 Tb328 2.409 . S
O351 C337 1.254 . S
O352 Tb328 2.378 . S
O352 C338 1.236 1_545 S
O353 Tb329 2.341 . S
O353 C338 1.266 . S
O354 Tb329 2.508 . S
O354 C339 1.303 . S
O355 Tb329 2.440 . S
O355 C339 1.266 . S
O356 Tb328 2.325 1_565 S
O356 Tb329 2.658 . S
O356 C346 1.281 . S
O357 Tb329 2.409 . S
O357 C346 1.254 . S
O358 Tb329 2.378 . S
O358 C347 1.236 1_565 S
O359 Tb328 2.341 . S
O359 C347 1.266 . S
H360 C332 0.929 1_565 S
H361 C333 0.931 1_565 S
H362 C335 0.930 . S
H363 C336 0.930 . S
H364 C341 0.929 1_545 S
H365 C342 0.931 1_545 S
H366 C344 0.930 . S
H367 C345 0.930 . S
Tb368 C370 2.809 . S
Tb368 O388 2.484 . S
Tb368 O389 2.440 . S
Tb368 O390 2.658 . S
Tb368 O391 2.409 . S
Tb368 O392 2.378 . S
Tb368 O396 2.325 . S
Tb368 O399 2.341 . S
Tb369 C379 2.809 . S
Tb369 O390 2.325 . S
Tb369 O393 2.341 . S
Tb369 O394 2.484 . S
Tb369 O395 2.440 . S
Tb369 O396 2.658 . S
Tb369 O397 2.409 . S
Tb369 O398 2.378 . S
C370 Tb368 2.809 . S
C370 C371 1.514 . S
C370 O388 1.248 . S
C370 O389 1.266 . S
C371 C370 1.514 . S
C371 C372 1.359 . S
C371 C376 1.348 . S
C372 C371 1.359 . S
C372 C373 1.380 . S
C372 H400 0.929 . S
C373 C372 1.380 . S
C373 C374 1.347 . S
C373 H401 0.931 . S
C374 C373 1.347 . S
C374 C375 1.369 . S
C375 C374 1.369 . S
C375 C376 1.408 . S
C375 H402 0.930 . S
C376 C371 1.348 . S
C376 C375 1.408 . S
C376 H403 0.930 . S
C377 O390 1.281 . S
C377 O391 1.254 . S
C378 O392 1.236 . S
C378 O393 1.266 . S
C379 Tb369 2.809 . S
C379 C380 1.514 . S
C379 O394 1.248 . S
C379 O395 1.266 . S
C380 C379 1.514 . S
C380 C381 1.359 . S
C380 C385 1.348 . S
C381 C380 1.359 . S
C381 C382 1.380 . S
C381 H404 0.929 . S
C382 C381 1.380 . S
C382 C383 1.347 . S
C382 H405 0.931 . S
C383 C382 1.347 . S
C383 C384 1.369 . S
C384 C383 1.369 . S
C384 C385 1.408 . S
C384 H406 0.930 . S
C385 C380 1.348 . S
C385 C384 1.408 . S
C385 H407 0.930 . S
C386 O396 1.281 . S
C386 O397 1.254 . S
C387 O398 1.236 . S
C387 O399 1.266 . S
O388 Tb368 2.484 . S
O388 C370 1.248 . S
O389 Tb368 2.440 . S
O389 C370 1.266 . S
O390 Tb368 2.658 . S
O390 Tb369 2.325 . S
O390 C377 1.281 . S
O391 Tb368 2.409 . S
O391 C377 1.254 . S
O392 Tb368 2.378 . S
O392 C378 1.236 . S
O393 Tb369 2.341 . S
O393 C378 1.266 . S
O394 Tb369 2.484 . S
O394 C379 1.248 . S
O395 Tb369 2.440 . S
O395 C379 1.266 . S
O396 Tb368 2.325 . S
O396 Tb369 2.658 . S
O396 C386 1.281 . S
O397 Tb369 2.409 . S
O397 C386 1.254 . S
O398 Tb369 2.378 . S
O398 C387 1.236 . S
O399 Tb368 2.341 . S
O399 C387 1.266 . S
H400 C372 0.929 . S
H401 C373 0.931 . S
H402 C375 0.930 . S
H403 C376 0.930 . S
H404 C381 0.929 . S
H405 C382 0.931 . S
H406 C384 0.930 . S
H407 C385 0.930 . S
Tb408 C410 2.809 . S
Tb408 O428 2.484 . S
Tb408 O429 2.440 . S
Tb408 O430 2.658 1_655 S
Tb408 O431 2.409 . S
Tb408 O432 2.378 . S
Tb408 O436 2.325 . S
Tb408 O439 2.341 1_655 S
Tb409 C419 2.809 . S
Tb409 O430 2.325 . S
Tb409 O433 2.341 1_455 S
Tb409 O434 2.484 . S
Tb409 O435 2.440 . S
Tb409 O436 2.658 1_455 S
Tb409 O437 2.409 . S
Tb409 O438 2.378 . S
C410 Tb408 2.809 . S
C410 C411 1.514 . S
C410 O428 1.248 . S
C410 O429 1.266 . S
C411 C410 1.514 . S
C411 C412 1.359 . S
C411 C416 1.348 . S
C412 C411 1.359 . S
C412 C413 1.380 . S
C412 H440 0.929 . S
C413 C412 1.380 . S
C413 C414 1.347 . S
C413 H441 0.931 . S
C414 C413 1.347 . S
C414 C415 1.369 . S
C415 C414 1.369 . S
C415 C416 1.408 . S
C415 H442 0.930 . S
C416 C411 1.348 . S
C416 C415 1.408 . S
C416 H443 0.930 . S
C417 O430 1.271 1_655 S
C417 O431 1.268 . S
C418 O432 1.236 . S
C418 O433 1.266 . S
C419 Tb409 2.809 . S
C419 C420 1.514 . S
C419 O434 1.248 . S
C419 O435 1.266 . S
C420 C419 1.514 . S
C420 C421 1.359 . S
C420 C425 1.348 . S
C421 C420 1.359 . S
C421 C422 1.380 . S
C421 H444 0.929 . S
C422 C421 1.380 . S
C422 C423 1.347 . S
C422 H445 0.931 . S
C423 C422 1.347 . S
C423 C424 1.369 . S
C424 C423 1.369 . S
C424 C425 1.408 . S
C424 H446 0.930 . S
C425 C420 1.348 . S
C425 C424 1.408 . S
C425 H447 0.930 . S
C426 O436 1.266 1_455 S
C426 O437 1.276 . S
C427 O438 1.236 . S
C427 O439 1.266 . S
O428 Tb408 2.484 . S
O428 C410 1.248 . S
O429 Tb408 2.440 . S
O429 C410 1.266 . S
O430 Tb408 2.658 1_455 S
O430 Tb409 2.325 . S
O430 C417 1.271 1_455 S
O431 Tb408 2.409 . S
O431 C417 1.268 . S
O432 Tb408 2.378 . S
O432 C418 1.236 . S
O433 Tb409 2.341 1_655 S
O433 C418 1.266 . S
O434 Tb409 2.484 . S
O434 C419 1.248 . S
O435 Tb409 2.440 . S
O435 C419 1.266 . S
O436 Tb408 2.325 . S
O436 Tb409 2.658 1_655 S
O436 C426 1.266 1_655 S
O437 Tb409 2.409 . S
O437 C426 1.276 . S
O438 Tb409 2.378 . S
O438 C427 1.236 . S
O439 Tb408 2.341 1_455 S
O439 C427 1.266 . S
H440 C412 0.929 . S
H441 C413 0.931 . S
H442 C415 0.930 . S
H443 C416 0.930 . S
H444 C421 0.929 . S
H445 C422 0.931 . S
H446 C424 0.930 . S
H447 C425 0.930 . S
H448 C456 0.929 . S
H449 C458 0.930 . S
H450 C460 0.930 . S
H451 C463 0.929 . S
H452 C466 0.930 . S
H453 C468 0.960 . S
H454 C468 0.960 1_565 S
H455 C468 0.960 . S
C456 H448 0.929 . S
C456 C457 1.376 . S
C456 C458 1.384 . S
C457 C456 1.376 . S
C457 C463 1.391 1_565 S
C458 H449 0.930 . S
C458 C456 1.384 . S
C458 C459 1.412 . S
C459 C458 1.412 . S
C459 C460 1.360 1_565 S
C459 C464 1.490 . S
C460 H450 0.930 . S
C460 C459 1.360 1_545 S
C460 C463 1.386 . S
H461 C477 0.930 . S
H462 C478 0.931 . S
C463 H451 0.929 . S
C463 C457 1.391 1_545 S
C463 C460 1.386 . S
C464 C459 1.490 . S
C464 C466 1.406 . S
C464 C467 1.394 1_565 S
H465 C471 0.930 . S
C466 H452 0.930 . S
C466 C464 1.406 . S
C466 C469 1.403 . S
C467 C464 1.394 1_545 S
C467 C468 1.524 . S
C467 C471 1.400 . S
C468 H453 0.960 . S
C468 H454 0.960 1_545 S
C468 H455 0.960 . S
C468 C467 1.524 . S
C469 C466 1.403 . S
C469 C470 1.405 . S
C469 C473 1.495 . S
C470 C469 1.405 . S
C470 C471 1.376 1_565 S
C470 C472 1.477 . S
C471 H465 0.930 . S
C471 C467 1.400 . S
C471 C470 1.376 1_545 S
C472 C470 1.477 . S
C472 C474 1.399 . S
C472 C478 1.365 1_565 S
C473 C469 1.495 . S
C473 H479 0.959 . S
C473 H480 0.961 1_565 S
C473 H481 0.960 . S
C474 C472 1.399 . S
C474 C475 1.394 . S
C474 H482 0.930 . S
C475 C474 1.394 . S
C475 C476 1.365 1_565 S
C475 H483 0.929 . S
C476 C475 1.365 1_545 S
C476 C477 1.395 . S
C477 H461 0.930 . S
C477 C476 1.395 . S
C477 C478 1.379 . S
C478 H462 0.931 . S
C478 C472 1.365 1_545 S
C478 C477 1.379 . S
H479 C473 0.959 . S
H480 C473 0.961 1_545 S
H481 C473 0.960 . S
H482 C474 0.930 . S
H483 C475 0.929 . S
H484 C492 0.929 . S
H485 C494 0.930 . S
H486 C496 0.930 . S
H487 C499 0.929 . S
H488 C502 0.930 . S
H489 C504 0.960 . S
H490 C504 0.960 . S
H491 C504 0.960 . S
C492 H484 0.929 . S
C492 C493 1.377 . S
C492 C494 1.384 . S
C493 C492 1.377 . S
C493 C499 1.390 . S
C494 H485 0.930 . S
C494 C492 1.384 . S
C494 C495 1.372 . S
C495 C494 1.372 . S
C495 C496 1.400 . S
C495 C500 1.490 . S
C496 H486 0.930 . S
C496 C495 1.400 . S
C496 C499 1.386 . S
H497 C513 0.930 . S
H498 C514 0.931 . S
C499 H487 0.929 . S
C499 C493 1.390 . S
C499 C496 1.386 . S
C500 C495 1.490 . S
C500 C502 1.395 . S
C500 C503 1.403 . S
H501 C507 0.930 . S
C502 H488 0.930 . S
C502 C500 1.395 . S
C502 C505 1.403 . S
C503 C500 1.403 . S
C503 C504 1.524 . S
C503 C507 1.400 . S
C504 H489 0.960 . S
C504 H490 0.960 . S
C504 H491 0.960 . S
C504 C503 1.524 . S
C505 C502 1.403 . S
C505 C506 1.392 . S
C505 C509 1.495 . S
C506 C505 1.392 . S
C506 C507 1.385 . S
C506 C508 1.478 . S
C507 H501 0.930 . S
C507 C503 1.400 . S
C507 C506 1.385 . S
C508 C506 1.478 . S
C508 C510 1.381 . S
C508 C514 1.383 . S
C509 C505 1.495 . S
C509 H515 0.959 . S
C509 H516 0.961 . S
C509 H517 0.960 . S
C510 C508 1.381 . S
C510 C511 1.394 . S
C510 H518 0.930 . S
C511 C510 1.394 . S
C511 C512 1.383 . S
C511 H519 0.929 . S
C512 C511 1.383 . S
C512 C513 1.377 . S
C513 H497 0.930 . S
C513 C512 1.377 . S
C513 C514 1.379 . S
C514 H498 0.931 . S
C514 C508 1.383 . S
C514 C513 1.379 . S
H515 C509 0.959 . S
H516 C509 0.961 . S
H517 C509 0.960 . S
H518 C510 0.930 . S
H519 C511 0.929 . S
H520 C528 0.929 . S
H521 C530 0.930 . S
H522 C532 0.930 . S
H523 C535 0.929 . S
H524 C538 0.930 . S
H525 C540 0.960 . S
H526 C540 0.960 . S
H527 C540 0.960 . S
C528 H520 0.929 . S
C528 C529 1.377 . S
C528 C530 1.384 . S
C529 C528 1.377 . S
C529 C535 1.390 . S
C530 H521 0.930 . S
C530 C528 1.384 . S
C530 C531 1.372 . S
C531 C530 1.372 . S
C531 C532 1.400 . S
C531 C536 1.490 . S
C532 H522 0.930 . S
C532 C531 1.400 . S
C532 C535 1.386 . S
H533 C549 0.930 . S
H534 C550 0.931 . S
C535 H523 0.929 . S
C535 C529 1.390 . S
C535 C532 1.386 . S
C536 C531 1.490 . S
C536 C538 1.395 . S
C536 C539 1.403 . S
H537 C543 0.930 . S
C538 H524 0.930 . S
C538 C536 1.395 . S
C538 C541 1.403 . S
C539 C536 1.403 . S
C539 C540 1.524 . S
C539 C543 1.400 . S
C540 H525 0.960 . S
C540 H526 0.960 . S
C540 H527 0.960 . S
C540 C539 1.524 . S
C541 C538 1.403 . S
C541 C542 1.392 . S
C541 C545 1.495 . S
C542 C541 1.392 . S
C542 C543 1.385 . S
C542 C544 1.478 . S
C543 H537 0.930 . S
C543 C539 1.400 . S
C543 C542 1.385 . S
C544 C542 1.478 . S
C544 C546 1.381 . S
C544 C550 1.383 . S
C545 C541 1.495 . S
C545 H551 0.959 . S
C545 H552 0.961 . S
C545 H553 0.960 . S
C546 C544 1.381 . S
C546 C547 1.394 . S
C546 H554 0.930 . S
C547 C546 1.394 . S
C547 C548 1.383 . S
C547 H555 0.929 . S
C548 C547 1.383 . S
C548 C549 1.377 . S
C549 H533 0.930 . S
C549 C548 1.377 . S
C549 C550 1.379 . S
C550 H534 0.931 . S
C550 C544 1.383 . S
C550 C549 1.379 . S
H551 C545 0.959 . S
H552 C545 0.961 . S
H553 C545 0.960 . S
H554 C546 0.930 . S
H555 C547 0.929 . S
H556 C564 0.929 . S
H557 C566 0.930 . S
H558 C568 0.930 . S
H559 C571 0.929 . S
H560 C574 0.930 . S
H561 C576 0.960 . S
H562 C576 0.960 . S
H563 C576 0.960 . S
C564 H556 0.929 . S
C564 C565 1.389 . S
C564 C566 1.384 . S
C565 C564 1.389 . S
C565 C571 1.379 1_455 S
C566 H557 0.930 . S
C566 C564 1.384 . S
C566 C567 1.399 . S
C567 C566 1.399 . S
C567 C568 1.374 1_455 S
C567 C572 1.490 . S
C568 H558 0.930 . S
C568 C567 1.374 1_655 S
C568 C571 1.386 . S
H569 C585 0.930 . S
H570 C586 0.931 . S
C571 H559 0.929 . S
C571 C565 1.379 1_655 S
C571 C568 1.386 . S
C572 C567 1.490 . S
C572 C574 1.374 1_455 S
C572 C575 1.424 . S
H573 C579 0.930 . S
C574 H560 0.930 . S
C574 C572 1.374 1_655 S
C574 C577 1.403 . S
C575 C572 1.424 . S
C575 C576 1.524 . S
C575 C579 1.400 . S
C576 H561 0.960 . S
C576 H562 0.960 . S
C576 H563 0.960 . S
C576 C575 1.524 . S
C577 C574 1.403 . S
C577 C578 1.418 . S
C577 C581 1.495 . S
C578 C577 1.418 . S
C578 C579 1.359 1_655 S
C578 C580 1.480 . S
C579 H573 0.930 . S
C579 C575 1.400 . S
C579 C578 1.359 1_455 S
C580 C578 1.480 . S
C580 C582 1.381 1_655 S
C580 C586 1.383 . S
C581 C577 1.495 . S
C581 H587 0.959 . S
C581 H588 0.961 . S
C581 H589 0.960 . S
C582 C580 1.381 1_455 S
C582 C583 1.394 . S
C582 H590 0.930 . S
C583 C582 1.394 . S
C583 C584 1.381 . S
C583 H591 0.929 . S
C584 C583 1.381 . S
C584 C585 1.380 1_455 S
C585 H569 0.930 . S
C585 C584 1.380 1_655 S
C585 C586 1.379 . S
C586 H570 0.931 . S
C586 C580 1.383 . S
C586 C585 1.379 . S
H587 C581 0.959 . S
H588 C581 0.961 . S
H589 C581 0.960 . S
H590 C582 0.930 . S
H591 C583 0.929 . S
H592 C600 0.929 . S
H593 C602 0.930 . S
H594 C604 0.930 . S
H595 C607 0.929 . S
H596 C610 0.931 . S
H597 C612 0.960 . S
H598 C612 0.960 . S
H599 C612 0.960 1_565 S
C600 H592 0.929 . S
C600 C601 1.389 . S
C600 C602 1.384 . S
C601 C600 1.389 . S
C601 C607 1.378 1_545 S
C602 H593 0.930 . S
C602 C600 1.384 . S
C602 C603 1.413 . S
C603 C602 1.413 . S
C603 C604 1.359 1_545 S
C603 C608 1.490 . S
C604 H594 0.930 . S
C604 C603 1.359 1_565 S
C604 C607 1.386 . S
H605 C621 0.930 . S
H606 C622 0.931 . S
C607 H595 0.929 . S
C607 C601 1.378 1_565 S
C607 C604 1.386 . S
C608 C603 1.490 . S
C608 C610 1.392 1_545 S
C608 C611 1.407 1_554 S
H609 C615 0.930 . S
C610 H596 0.931 . S
C610 C608 1.392 1_565 S
C610 C613 1.403 . S
C611 C608 1.407 1_556 S
C611 C612 1.524 . S
C611 C615 1.400 . S
C612 H597 0.960 . S
C612 H598 0.960 . S
C612 H599 0.960 1_545 S
C612 C611 1.524 . S
C613 C610 1.403 . S
C613 C614 1.391 1_564 S
C613 C617 1.501 . S
C614 C613 1.391 1_546 S
C614 C615 1.385 . S
C614 C616 1.477 1_545 S
C615 H609 0.930 . S
C615 C611 1.400 . S
C615 C614 1.385 . S
C616 C614 1.477 1_565 S
C616 C618 1.360 1_565 S
C616 C622 1.404 . S
C617 C613 1.501 . S
C617 H623 0.959 . S
C617 H624 0.961 1_554 S
C617 H625 0.960 1_564 S
C618 C616 1.360 1_545 S
C618 C619 1.394 . S
C618 H626 0.930 . S
C619 C618 1.394 . S
C619 C620 1.356 1_545 S
C619 H627 0.929 . S
C620 C619 1.356 1_565 S
C620 C621 1.404 . S
C621 H605 0.930 . S
C621 C620 1.404 . S
C621 C622 1.379 . S
C622 H606 0.931 . S
C622 C616 1.404 . S
C622 C621 1.379 . S
H623 C617 0.959 . S
H624 C617 0.961 1_556 S
H625 C617 0.960 1_546 S
H626 C618 0.930 . S
H627 C619 0.929 . S
H628 C636 0.929 . S
H629 C638 0.930 . S
H630 C640 0.930 . S
H631 C643 0.929 . S
H632 C646 0.930 . S
H633 C648 0.960 . S
H634 C648 0.960 . S
H635 C648 0.960 . S
C636 H628 0.929 . S
C636 C637 1.377 . S
C636 C638 1.384 . S
C637 C636 1.377 . S
C637 C643 1.390 . S
C638 H629 0.930 . S
C638 C636 1.384 . S
C638 C639 1.372 . S
C639 C638 1.372 . S
C639 C640 1.400 . S
C639 C644 1.490 . S
C640 H630 0.930 . S
C640 C639 1.400 . S
C640 C643 1.386 . S
H641 C657 0.930 . S
H642 C658 0.931 . S
C643 H631 0.929 . S
C643 C637 1.390 . S
C643 C640 1.386 . S
C644 C639 1.490 . S
C644 C646 1.395 . S
C644 C647 1.403 1_554 S
H645 C651 0.930 . S
C646 H632 0.930 . S
C646 C644 1.395 . S
C646 C649 1.403 . S
C647 C644 1.403 1_556 S
C647 C648 1.524 . S
C647 C651 1.400 . S
C648 H633 0.960 . S
C648 H634 0.960 . S
C648 H635 0.960 . S
C648 C647 1.524 . S
C649 C646 1.403 . S
C649 C650 1.392 1_554 S
C649 C653 1.495 . S
C650 C649 1.392 1_556 S
C650 C651 1.385 . S
C650 C652 1.478 . S
C651 H645 0.930 . S
C651 C647 1.400 . S
C651 C650 1.385 . S
C652 C650 1.478 . S
C652 C654 1.381 . S
C652 C658 1.383 . S
C653 C649 1.495 . S
C653 H659 0.959 . S
C653 H660 0.961 . S
C653 H661 0.960 1_554 S
C654 C652 1.381 . S
C654 C655 1.394 . S
C654 H662 0.930 . S
C655 C654 1.394 . S
C655 C656 1.383 . S
C655 H663 0.929 . S
C656 C655 1.383 . S
C656 C657 1.377 . S
C657 H641 0.930 . S
C657 C656 1.377 . S
C657 C658 1.379 . S
C658 H642 0.931 . S
C658 C652 1.383 . S
C658 C657 1.379 . S
H659 C653 0.959 . S
H660 C653 0.961 . S
H661 C653 0.960 1_556 S
H662 C654 0.930 . S
H663 C655 0.929 . S
H664 C672 0.929 . S
H665 C674 0.930 . S
H666 C676 0.930 . S
H667 C679 0.929 . S
H668 C682 0.930 . S
H669 C684 0.960 . S
H670 C684 0.960 . S
H671 C684 0.960 . S
C672 H664 0.929 . S
C672 C673 1.377 . S
C672 C674 1.384 . S
C673 C672 1.377 . S
C673 C679 1.390 . S
C674 H665 0.930 . S
C674 C672 1.384 . S
C674 C675 1.372 . S
C675 C674 1.372 . S
C675 C676 1.400 . S
C675 C680 1.490 . S
C676 H666 0.930 . S
C676 C675 1.400 . S
C676 C679 1.386 . S
H677 C693 0.930 . S
H678 C694 0.931 . S
C679 H667 0.929 . S
C679 C673 1.390 . S
C679 C676 1.386 . S
C680 C675 1.490 . S
C680 C682 1.395 . S
C680 C683 1.403 1_554 S
H681 C687 0.930 . S
C682 H668 0.930 . S
C682 C680 1.395 . S
C682 C685 1.403 . S
C683 C680 1.403 1_556 S
C683 C684 1.524 . S
C683 C687 1.400 . S
C684 H669 0.960 . S
C684 H670 0.960 . S
C684 H671 0.960 . S
C684 C683 1.524 . S
C685 C682 1.403 . S
C685 C686 1.392 1_554 S
C685 C689 1.495 . S
C686 C685 1.392 1_556 S
C686 C687 1.385 . S
C686 C688 1.478 . S
C687 H681 0.930 . S
C687 C683 1.400 . S
C687 C686 1.385 . S
C688 C686 1.478 . S
C688 C690 1.381 . S
C688 C694 1.383 . S
C689 C685 1.495 . S
C689 H695 0.959 . S
C689 H696 0.961 1_554 S
C689 H697 0.956 1_554 S
C690 C688 1.381 . S
C690 C691 1.394 . S
C690 H698 0.930 . S
C691 C690 1.394 . S
C691 C692 1.383 . S
C691 H699 0.929 . S
C692 C691 1.383 . S
C692 C693 1.377 . S
C693 H677 0.930 . S
C693 C692 1.377 . S
C693 C694 1.379 . S
C694 H678 0.931 . S
C694 C688 1.383 . S
C694 C693 1.379 . S
H695 C689 0.959 . S
H696 C689 0.961 1_556 S
H697 C689 0.956 1_556 S
H698 C690 0.930 . S
H699 C691 0.929 . S
H700 C708 0.929 . S
H701 C710 0.930 . S
H702 C712 0.930 . S
H703 C715 0.929 . S
H704 C718 0.930 . S
H705 C720 0.960 . S
H706 C720 1.011 . S
H707 C720 0.954 1_554 S
C708 H700 0.929 . S
C708 C709 1.373 . S
C708 C710 1.384 . S
C709 C708 1.373 . S
C709 C715 1.394 1_455 S
C710 H701 0.930 . S
C710 C708 1.384 . S
C710 C711 1.408 . S
C711 C710 1.408 . S
C711 C712 1.364 1_455 S
C711 C716 1.490 . S
C712 H702 0.930 . S
C712 C711 1.364 1_655 S
C712 C715 1.386 . S
H713 C729 0.930 . S
H714 C730 0.931 . S
C715 H703 0.929 . S
C715 C709 1.394 1_655 S
C715 C712 1.386 . S
C716 C711 1.490 . S
C716 C718 1.413 . S
C716 C719 1.387 1_454 S
H717 C723 0.930 . S
C718 H704 0.930 . S
C718 C716 1.413 . S
C718 C721 1.403 1_554 S
C719 C716 1.387 1_656 S
C719 C720 1.524 . S
C719 C723 1.400 . S
C720 H705 0.960 . S
C720 H706 1.011 . S
C720 H707 0.954 1_556 S
C720 C719 1.524 . S
C721 C718 1.403 1_556 S
C721 C722 1.392 . S
C721 C725 1.495 1_556 S
C722 C721 1.392 . S
C722 C723 1.385 1_455 S
C722 C724 1.479 . S
C723 H717 0.930 . S
C723 C719 1.400 . S
C723 C722 1.385 1_655 S
C724 C722 1.479 . S
C724 C726 1.420 . S
C724 C730 1.343 1_455 S
C725 C721 1.495 1_554 S
C725 H731 0.959 . S
C725 H732 0.962 1_554 S
C725 H733 0.960 1_554 S
C726 C724 1.420 . S
C726 C727 1.394 . S
C726 H734 0.930 . S
C727 C726 1.394 . S
C727 C728 1.360 1_455 S
C727 H735 0.929 . S
C728 C727 1.360 1_655 S
C728 C729 1.400 . S
C729 H713 0.930 . S
C729 C728 1.400 . S
C729 C730 1.379 . S
C730 H714 0.931 . S
C730 C724 1.343 1_655 S
C730 C729 1.379 . S
H731 C725 0.959 . S
H732 C725 0.962 1_556 S
H733 C725 0.960 1_556 S
H734 C726 0.930 . S
H735 C727 0.929 . S
H736 C744 0.929 . S
H737 C746 0.930 . S
H738 C748 0.930 . S
H739 C751 0.929 . S
H740 C754 0.930 . S
H741 C756 0.960 . S
H742 C756 0.960 . S
H743 C756 0.960 . S
C744 H736 0.929 . S
C744 C745 1.377 . S
C744 C746 1.384 . S
C745 C744 1.377 . S
C745 C751 1.390 1_455 S
C746 H737 0.930 . S
C746 C744 1.384 . S
C746 C747 1.372 1_455 S
C747 C746 1.372 1_655 S
C747 C748 1.400 . S
C747 C752 1.490 . S
C748 H738 0.930 . S
C748 C747 1.400 . S
C748 C751 1.386 . S
H749 C765 0.930 . S
H750 C766 0.931 . S
C751 H739 0.929 . S
C751 C745 1.390 1_655 S
C751 C748 1.386 . S
C752 C747 1.490 . S
C752 C754 1.395 1_655 S
C752 C755 1.403 . S
H753 C759 0.930 . S
C754 H740 0.930 . S
C754 C752 1.395 1_455 S
C754 C757 1.403 . S
C755 C752 1.403 . S
C755 C756 1.524 . S
C755 C759 1.400 . S
C756 H741 0.960 . S
C756 H742 0.960 . S
C756 H743 0.960 . S
C756 C755 1.524 . S
C757 C754 1.403 . S
C757 C758 1.392 1_455 S
C757 C761 1.495 . S
C758 C757 1.392 1_655 S
C758 C759 1.385 . S
C758 C760 1.478 . S
C759 H753 0.930 . S
C759 C755 1.400 . S
C759 C758 1.385 . S
C760 C758 1.478 . S
C760 C762 1.381 . S
C760 C766 1.383 . S
C761 C757 1.495 . S
C761 H767 0.959 . S
C761 H768 0.961 . S
C761 H769 0.960 . S
C762 C760 1.381 . S
C762 C763 1.394 . S
C762 H770 0.930 . S
C763 C762 1.394 . S
C763 C764 1.383 . S
C763 H771 0.929 . S
C764 C763 1.383 . S
C764 C765 1.377 . S
C765 H749 0.930 . S
C765 C764 1.377 . S
C765 C766 1.379 . S
C766 H750 0.931 . S
C766 C760 1.383 . S
C766 C765 1.379 . S
H767 C761 0.959 . S
H768 C761 0.961 . S
H769 C761 0.960 . S
H770 C762 0.930 . S
H771 C763 0.929 . S
H772 C780 0.929 . S
H773 C782 0.930 . S
H774 C784 0.930 . S
H775 C787 0.929 . S
H776 C790 0.930 1_545 S
H777 C792 0.960 . S
H778 C792 0.960 . S
H779 C792 0.960 . S
C780 H772 0.929 . S
C780 C781 1.377 1_565 S
C780 C782 1.384 . S
C781 C780 1.377 1_545 S
C781 C787 1.390 . S
C782 H773 0.930 . S
C782 C780 1.384 . S
C782 C783 1.372 . S
C783 C782 1.372 . S
C783 C784 1.400 1_565 S
C783 C788 1.490 . S
C784 H774 0.930 . S
C784 C783 1.400 1_545 S
C784 C787 1.386 . S
H785 C801 0.930 . S
H786 C802 0.931 1_545 S
C787 H775 0.929 . S
C787 C781 1.390 . S
C787 C784 1.386 . S
C788 C783 1.490 . S
C788 C790 1.395 . S
C788 C791 1.403 . S
H789 C795 0.930 . S
C790 H776 0.930 1_565 S
C790 C788 1.395 . S
C790 C793 1.403 . S
C791 C788 1.403 . S
C791 C792 1.524 . S
C791 C795 1.400 . S
C792 H777 0.960 . S
C792 H778 0.960 . S
C792 H779 0.960 . S
C792 C791 1.524 . S
C793 C790 1.403 . S
C793 C794 1.392 . S
C793 C797 1.480 1_565 S
C794 C793 1.392 . S
C794 C795 1.385 . S
C794 C796 1.478 . S
C795 H789 0.930 . S
C795 C791 1.400 . S
C795 C794 1.385 . S
C796 C794 1.478 . S
C796 C798 1.381 . S
C796 C802 1.383 . S
C797 C793 1.480 1_545 S
C797 H803 0.980 . S
C797 H804 0.998 . S
C797 H805 0.921 1_545 S
C798 C796 1.381 . S
C798 C799 1.394 . S
C798 H806 0.930 . S
C799 C798 1.394 . S
C799 C800 1.383 . S
C799 H807 0.929 . S
C800 C799 1.383 . S
C800 C801 1.377 . S
C801 H785 0.930 . S
C801 C800 1.377 . S
C801 C802 1.379 . S
C802 H786 0.931 1_565 S
C802 C796 1.383 . S
C802 C801 1.379 . S
H803 C797 0.980 . S
H804 C797 0.998 . S
H805 C797 0.921 1_565 S
H806 C798 0.930 . S
H807 C799 0.929 . S
H808 C816 0.929 . S
H809 C818 0.930 . S
H810 C820 0.930 . S
H811 C823 0.929 . S
H812 C826 0.930 . S
H813 C828 0.960 . S
H814 C828 0.960 . S
H815 C828 0.960 . S
C816 H808 0.929 . S
C816 C817 1.377 . S
C816 C818 1.384 . S
C817 C816 1.377 . S
C817 C823 1.390 . S
C818 H809 0.930 . S
C818 C816 1.384 . S
C818 C819 1.372 . S
C819 C818 1.372 . S
C819 C820 1.400 . S
C819 C824 1.490 . S
C820 H810 0.930 . S
C820 C819 1.400 . S
C820 C823 1.386 . S
H821 C837 0.930 . S
H822 C838 0.931 . S
C823 H811 0.929 . S
C823 C817 1.390 . S
C823 C820 1.386 . S
C824 C819 1.490 . S
C824 C826 1.395 . S
C824 C827 1.403 . S
H825 C831 0.930 . S
C826 H812 0.930 . S
C826 C824 1.395 . S
C826 C829 1.403 . S
C827 C824 1.403 . S
C827 C828 1.524 . S
C827 C831 1.400 . S
C828 H813 0.960 . S
C828 H814 0.960 . S
C828 H815 0.960 . S
C828 C827 1.524 . S
C829 C826 1.403 . S
C829 C830 1.392 . S
C829 C833 1.495 . S
C830 C829 1.392 . S
C830 C831 1.385 . S
C830 C832 1.478 . S
C831 H825 0.930 . S
C831 C827 1.400 . S
C831 C830 1.385 . S
C832 C830 1.478 . S
C832 C834 1.381 . S
C832 C838 1.383 . S
C833 C829 1.495 . S
C833 H839 0.959 . S
C833 H840 0.961 . S
C833 H841 0.960 . S
C834 C832 1.381 . S
C834 C835 1.394 . S
C834 H842 0.930 . S
C835 C834 1.394 . S
C835 C836 1.383 . S
C835 H843 0.929 . S
C836 C835 1.383 . S
C836 C837 1.377 . S
C837 H821 0.930 . S
C837 C836 1.377 . S
C837 C838 1.379 . S
C838 H822 0.931 . S
C838 C832 1.383 . S
C838 C837 1.379 . S
H839 C833 0.959 . S
H840 C833 0.961 . S
H841 C833 0.960 . S
H842 C834 0.930 . S
H843 C835 0.929 . S
H844 C852 0.929 . S
H845 C854 0.930 . S
H846 C856 0.930 . S
H847 C859 0.929 . S
H848 C862 0.930 . S
H849 C864 0.960 . S
H850 C864 0.960 . S
H851 C864 0.960 . S
C852 H844 0.929 . S
C852 C853 1.377 . S
C852 C854 1.384 . S
C853 C852 1.377 . S
C853 C859 1.390 . S
C854 H845 0.930 . S
C854 C852 1.384 . S
C854 C855 1.372 . S
C855 C854 1.372 . S
C855 C856 1.400 . S
C855 C860 1.490 . S
C856 H846 0.930 . S
C856 C855 1.400 . S
C856 C859 1.386 . S
H857 C873 0.930 . S
H858 C874 0.931 . S
C859 H847 0.929 . S
C859 C853 1.390 . S
C859 C856 1.386 . S
C860 C855 1.490 . S
C860 C862 1.395 . S
C860 C863 1.403 . S
H861 C867 0.930 . S
C862 H848 0.930 . S
C862 C860 1.395 . S
C862 C865 1.403 . S
C863 C860 1.403 . S
C863 C864 1.524 . S
C863 C867 1.400 . S
C864 H849 0.960 . S
C864 H850 0.960 . S
C864 H851 0.960 . S
C864 C863 1.524 . S
C865 C862 1.403 . S
C865 C866 1.392 . S
C865 C869 1.495 . S
C866 C865 1.392 . S
C866 C867 1.385 . S
C866 C868 1.478 . S
C867 H861 0.930 . S
C867 C863 1.400 . S
C867 C866 1.385 . S
C868 C866 1.478 . S
C868 C870 1.381 . S
C868 C874 1.383 . S
C869 C865 1.495 . S
C869 H875 0.959 . S
C869 H876 0.961 . S
C869 H877 0.960 . S
C870 C868 1.381 . S
C870 C871 1.394 . S
C870 H878 0.930 . S
C871 C870 1.394 . S
C871 C872 1.383 . S
C871 H879 0.929 . S
C872 C871 1.383 . S
C872 C873 1.377 . S
C873 H857 0.930 . S
C873 C872 1.377 . S
C873 C874 1.379 . S
C874 H858 0.931 . S
C874 C868 1.383 . S
C874 C873 1.379 . S
H875 C869 0.959 . S
H876 C869 0.961 . S
H877 C869 0.960 . S
H878 C870 0.930 . S
H879 C871 0.929 . S
H880 C888 0.929 . S
H881 C890 0.939 . S
H882 C892 0.930 1_556 S
H883 C895 0.929 . S
H884 C898 0.930 . S
H885 C900 0.960 . S
H886 C900 0.960 . S
H887 C900 0.960 . S
C888 H880 0.929 . S
C888 C889 1.377 . S
C888 C890 1.395 . S
C889 C888 1.377 . S
C889 C895 1.390 1_655 S
C890 H881 0.939 . S
C890 C888 1.395 . S
C890 C891 1.356 1_655 S
C891 C890 1.356 1_455 S
C891 C892 1.400 . S
C891 C896 1.490 . S
C892 H882 0.930 1_554 S
C892 C891 1.400 . S
C892 C895 1.386 . S
H893 C909 0.930 . S
H894 C910 0.931 . S
C895 H883 0.929 . S
C895 C889 1.390 1_455 S
C895 C892 1.386 . S
C896 C891 1.490 . S
C896 C898 1.395 . S
C896 C899 1.403 1_454 S
H897 C903 0.930 1_655 S
C898 H884 0.930 . S
C898 C896 1.395 . S
C898 C901 1.403 . S
C899 C896 1.403 1_656 S
C899 C900 1.524 . S
C899 C903 1.400 1_655 S
C900 H885 0.960 . S
C900 H886 0.960 . S
C900 H887 0.960 . S
C900 C899 1.524 . S
C901 C898 1.403 . S
C901 C902 1.392 1_554 S
C901 C905 1.495 . S
C902 C901 1.392 1_556 S
C902 C903 1.385 . S
C902 C904 1.478 . S
C903 H897 0.930 1_455 S
C903 C899 1.400 1_455 S
C903 C902 1.385 . S
C904 C902 1.478 . S
C904 C906 1.381 . S
C904 C910 1.383 . S
C905 C901 1.495 . S
C905 H911 0.959 . S
C905 H912 0.961 . S
C905 H913 0.960 . S
C906 C904 1.381 . S
C906 C907 1.394 . S
C906 H914 0.930 . S
C907 C906 1.394 . S
C907 C908 1.383 . S
C907 H915 0.929 . S
C908 C907 1.383 . S
C908 C909 1.377 . S
C909 H893 0.930 . S
C909 C908 1.377 . S
C909 C910 1.379 . S
C910 H894 0.931 . S
C910 C904 1.383 . S
C910 C909 1.379 . S
H911 C905 0.959 . S
H912 C905 0.961 . S
H913 C905 0.960 . S
H914 C906 0.930 . S
H915 C907 0.929 . S
H916 C924 0.929 . S
H917 C926 0.930 . S
H918 C928 0.930 . S
H919 C931 0.929 . S
H920 C934 0.930 . S
H921 C936 0.960 . S
H922 C936 0.960 1_565 S
H923 C936 0.960 . S
C924 H916 0.929 . S
C924 C925 1.377 . S
C924 C926 1.384 . S
C925 C924 1.377 . S
C925 C931 1.390 1_565 S
C926 H917 0.930 . S
C926 C924 1.384 . S
C926 C927 1.372 1_565 S
C927 C926 1.372 1_545 S
C927 C928 1.400 . S
C927 C932 1.490 . S
C928 H918 0.930 . S
C928 C927 1.400 . S
C928 C931 1.386 . S
H929 C945 0.930 . S
H930 C946 0.931 . S
C931 H919 0.929 . S
C931 C925 1.390 1_545 S
C931 C928 1.386 . S
C932 C927 1.490 . S
C932 C934 1.395 . S
C932 C935 1.403 1_554 S
H933 C939 0.930 . S
C934 H920 0.930 . S
C934 C932 1.395 . S
C934 C937 1.403 . S
C935 C932 1.403 1_556 S
C935 C936 1.524 . S
C935 C939 1.400 . S
C936 H921 0.960 . S
C936 H922 0.960 1_545 S
C936 H923 0.960 . S
C936 C935 1.524 . S
C937 C934 1.403 . S
C937 C938 1.392 1_554 S
C937 C941 1.495 . S
C938 C937 1.392 1_556 S
C938 C939 1.385 . S
C938 C940 1.478 . S
C939 H933 0.930 . S
C939 C935 1.400 . S
C939 C938 1.385 . S
C940 C938 1.478 . S
C940 C942 1.381 . S
C940 C946 1.383 . S
C941 C937 1.495 . S
C941 H947 0.959 . S
C941 H948 0.961 . S
C941 H949 0.960 . S
C942 C940 1.381 . S
C942 C943 1.394 . S
C942 H950 0.930 1_545 S
C943 C942 1.394 . S
C943 C944 1.383 . S
C943 H951 0.964 . S
C944 C943 1.383 . S
C944 C945 1.377 . S
C945 H929 0.930 . S
C945 C944 1.377 . S
C945 C946 1.379 . S
C946 H930 0.931 . S
C946 C940 1.383 . S
C946 C945 1.379 . S
H947 C941 0.959 . S
H948 C941 0.961 . S
H949 C941 0.960 . S
H950 C942 0.930 1_565 S
H951 C943 0.964 . S
H952 C960 0.929 . S
H953 C962 0.930 . S
H954 C964 0.930 1_556 S
H955 C967 0.929 . S
H956 C970 0.930 . S
H957 C972 0.960 1_556 S
H958 C972 0.960 . S
H959 C972 0.960 1_556 S
C960 H952 0.929 . S
C960 C961 1.377 . S
C960 C962 1.384 . S
C961 C960 1.377 . S
C961 C967 1.390 . S
C962 H953 0.930 . S
C962 C960 1.384 . S
C962 C963 1.372 . S
C963 C962 1.372 . S
C963 C964 1.400 . S
C963 C968 1.490 . S
C964 H954 0.930 1_554 S
C964 C963 1.400 . S
C964 C967 1.386 . S
H965 C981 0.930 . S
H966 C982 0.931 . S
C967 H955 0.929 . S
C967 C961 1.390 . S
C967 C964 1.386 . S
C968 C963 1.490 . S
C968 C970 1.395 . S
C968 C971 1.403 1_554 S
H969 C975 0.930 . S
C970 H956 0.930 . S
C970 C968 1.395 . S
C970 C973 1.403 1_554 S
C971 C968 1.403 1_556 S
C971 C972 1.524 1_556 S
C971 C975 1.400 . S
C972 H957 0.960 1_554 S
C972 H958 0.960 . S
C972 H959 0.960 1_554 S
C972 C971 1.524 1_554 S
C973 C970 1.403 1_556 S
C973 C974 1.392 . S
C973 C977 1.495 . S
C974 C973 1.392 . S
C974 C975 1.385 . S
C974 C976 1.478 . S
C975 H969 0.930 . S
C975 C971 1.400 . S
C975 C974 1.385 . S
C976 C974 1.478 . S
C976 C978 1.381 . S
C976 C982 1.383 . S
C977 C973 1.495 . S
C977 H983 0.959 1_556 S
C977 H984 0.961 . S
C977 H985 0.960 1_556 S
C978 C976 1.381 . S
C978 C979 1.394 . S
C978 H986 0.930 . S
C979 C978 1.394 . S
C979 C980 1.383 . S
C979 H987 0.929 . S
C980 C979 1.383 . S
C980 C981 1.377 . S
C981 H965 0.930 . S
C981 C980 1.377 . S
C981 C982 1.379 . S
C982 H966 0.931 . S
C982 C976 1.383 . S
C982 C981 1.379 . S
H983 C977 0.959 1_554 S
H984 C977 0.961 . S
H985 C977 0.960 1_554 S
H986 C978 0.930 . S
H987 C979 0.929 . S
H988 C996 0.929 . S
H989 C998 0.930 . S
H990 C1000 0.930 . S
H991 C1003 0.929 . S
H992 C1006 0.930 . S
H993 C1008 0.960 . S
H994 C1008 0.960 . S
H995 C1008 0.960 . S
C996 H988 0.929 . S
C996 C997 1.377 . S
C996 C998 1.384 . S
C997 C996 1.377 . S
C997 C1003 1.390 . S
C998 H989 0.930 . S
C998 C996 1.384 . S
C998 C999 1.372 . S
C999 C998 1.372 . S
C999 C1000 1.400 . S
C999 C1004 1.490 . S
C1000 H990 0.930 . S
C1000 C999 1.400 . S
C1000 C1003 1.386 . S
H1001 C1017 0.930 . S
H1002 C1018 0.931 . S
C1003 H991 0.929 . S
C1003 C997 1.390 . S
C1003 C1000 1.386 . S
C1004 C999 1.490 . S
C1004 C1006 1.395 1_554 S
C1004 C1007 1.403 . S
H1005 C1011 0.930 . S
C1006 H992 0.930 . S
C1006 C1004 1.395 1_556 S
C1006 C1009 1.403 . S
C1007 C1004 1.403 . S
C1007 C1008 1.524 . S
C1007 C1011 1.400 . S
C1008 H993 0.960 . S
C1008 H994 0.960 . S
C1008 H995 0.960 . S
C1008 C1007 1.524 . S
C1009 C1006 1.403 . S
C1009 C1010 1.392 . S
C1009 C1013 1.495 . S
C1010 C1009 1.392 . S
C1010 C1011 1.385 1_556 S
C1010 C1012 1.478 . S
C1011 H1005 0.930 . S
C1011 C1007 1.400 . S
C1011 C1010 1.385 1_554 S
C1012 C1010 1.478 . S
C1012 C1014 1.381 . S
C1012 C1018 1.383 . S
C1013 C1009 1.495 . S
C1013 H1019 0.959 . S
C1013 H1020 0.961 . S
C1013 H1021 0.960 . S
C1014 C1012 1.381 . S
C1014 C1015 1.394 . S
C1014 H1022 0.930 . S
C1015 C1014 1.394 . S
C1015 C1016 1.383 . S
C1015 H1023 0.929 . S
C1016 C1015 1.383 . S
C1016 C1017 1.377 . S
C1017 H1001 0.930 . S
C1017 C1016 1.377 . S
C1017 C1018 1.379 . S
C1018 H1002 0.931 . S
C1018 C1012 1.383 . S
C1018 C1017 1.379 . S
H1019 C1013 0.959 . S
H1020 C1013 0.961 . S
H1021 C1013 0.960 . S
H1022 C1014 0.930 . S
H1023 C1015 0.929 . S
H1024 C1032 0.929 . S
H1025 C1034 0.930 . S
H1026 C1036 0.934 . S
H1027 C1039 0.929 . S
H1028 C1042 0.930 . S
H1029 C1044 0.960 . S
H1030 C1044 0.960 . S
H1031 C1044 0.960 . S
C1032 H1024 0.929 . S
C1032 C1033 1.389 . S
C1032 C1034 1.384 . S
C1033 C1032 1.389 . S
C1033 C1039 1.384 1_455 S
C1034 H1025 0.930 . S
C1034 C1032 1.384 . S
C1034 C1035 1.372 . S
C1035 C1034 1.372 . S
C1035 C1036 1.395 1_455 S
C1035 C1040 1.490 . S
C1036 H1026 0.934 . S
C1036 C1035 1.395 1_655 S
C1036 C1039 1.387 . S
H1037 C1053 0.930 . S
H1038 C1054 0.931 . S
C1039 H1027 0.929 . S
C1039 C1033 1.384 1_655 S
C1039 C1036 1.387 . S
C1040 C1035 1.490 . S
C1040 C1042 1.395 . S
C1040 C1043 1.403 1_455 S
H1041 C1047 0.930 . S
C1042 H1028 0.930 . S
C1042 C1040 1.395 . S
C1042 C1045 1.403 . S
C1043 C1040 1.403 1_655 S
C1043 C1044 1.524 . S
C1043 C1047 1.400 . S
C1044 H1029 0.960 . S
C1044 H1030 0.960 . S
C1044 H1031 0.960 . S
C1044 C1043 1.524 . S
C1045 C1042 1.403 . S
C1045 C1046 1.392 . S
C1045 C1049 1.495 . S
C1046 C1045 1.392 . S
C1046 C1047 1.385 1_455 S
C1046 C1048 1.478 . S
C1047 H1041 0.930 . S
C1047 C1043 1.400 . S
C1047 C1046 1.385 1_655 S
C1048 C1046 1.478 . S
C1048 C1050 1.381 . S
C1048 C1054 1.383 . S
C1049 C1045 1.495 . S
C1049 H1055 0.959 . S
C1049 H1056 0.961 . S
C1049 H1057 0.960 . S
C1050 C1048 1.381 . S
C1050 C1051 1.394 . S
C1050 H1058 0.930 . S
C1051 C1050 1.394 . S
C1051 C1052 1.383 . S
C1051 H1059 0.929 . S
C1052 C1051 1.383 . S
C1052 C1053 1.377 . S
C1053 H1037 0.930 . S
C1053 C1052 1.377 . S
C1053 C1054 1.379 . S
C1054 H1038 0.931 . S
C1054 C1048 1.383 . S
C1054 C1053 1.379 . S
H1055 C1049 0.959 . S
H1056 C1049 0.961 . S
H1057 C1049 0.960 . S
H1058 C1050 0.930 . S
H1059 C1051 0.929 . S
H1060 C1068 0.929 . S
H1061 C1070 0.930 . S
H1062 C1072 0.930 . S
H1063 C1075 0.929 . S
H1064 C1078 0.930 . S
H1065 C1080 0.960 . S
H1066 C1080 0.960 . S
H1067 C1080 0.960 . S
C1068 H1060 0.929 . S
C1068 C1069 1.349 1_565 S
C1068 C1070 1.384 . S
C1069 C1068 1.349 1_545 S
C1069 C1075 1.421 . S
C1070 H1061 0.930 . S
C1070 C1068 1.384 . S
C1070 C1071 1.372 1_565 S
C1071 C1070 1.372 1_545 S
C1071 C1072 1.400 . S
C1071 C1076 1.490 . S
C1072 H1062 0.930 . S
C1072 C1071 1.400 . S
C1072 C1075 1.386 . S
H1073 C1089 0.930 . S
H1074 C1090 0.931 . S
C1075 H1063 0.929 . S
C1075 C1069 1.421 . S
C1075 C1072 1.386 . S
C1076 C1071 1.490 . S
C1076 C1078 1.395 . S
C1076 C1079 1.403 1_545 S
H1077 C1083 0.930 . S
C1078 H1064 0.930 . S
C1078 C1076 1.395 . S
C1078 C1081 1.403 . S
C1079 C1076 1.403 1_565 S
C1079 C1080 1.524 . S
C1079 C1083 1.400 . S
C1080 H1065 0.960 . S
C1080 H1066 0.960 . S
C1080 H1067 0.960 . S
C1080 C1079 1.524 . S
C1081 C1078 1.403 . S
C1081 C1082 1.392 . S
C1081 C1085 1.495 . S
C1082 C1081 1.392 . S
C1082 C1083 1.385 1_545 S
C1082 C1084 1.478 . S
C1083 H1077 0.930 . S
C1083 C1079 1.400 . S
C1083 C1082 1.385 1_565 S
C1084 C1082 1.478 . S
C1084 C1086 1.381 1_545 S
C1084 C1090 1.383 . S
C1085 C1081 1.495 . S
C1085 H1091 0.959 . S
C1085 H1092 0.961 . S
C1085 H1093 0.960 . S
C1086 C1084 1.381 1_565 S
C1086 C1087 1.394 . S
C1086 H1094 0.930 . S
C1087 C1086 1.394 . S
C1087 C1088 1.383 1_565 S
C1087 H1095 0.929 . S
C1088 C1087 1.383 1_545 S
C1088 C1089 1.377 . S
C1089 H1073 0.930 . S
C1089 C1088 1.377 . S
C1089 C1090 1.379 . S
C1090 H1074 0.931 . S
C1090 C1084 1.383 . S
C1090 C1089 1.379 . S
H1091 C1085 0.959 . S
H1092 C1085 0.961 . S
H1093 C1085 0.960 . S
H1094 C1086 0.930 . S
H1095 C1087 0.929 . S
H1096 C1104 0.929 . S
H1097 C1106 0.930 . S
H1098 C1108 0.930 . S
H1099 C1111 0.929 . S
H1100 C1114 0.930 . S
H1101 C1116 0.960 . S
H1102 C1116 0.960 . S
H1103 C1116 0.960 . S
C1104 H1096 0.929 . S
C1104 C1105 1.377 . S
C1104 C1106 1.384 . S
C1105 C1104 1.377 . S
C1105 C1111 1.390 . S
C1106 H1097 0.930 . S
C1106 C1104 1.384 . S
C1106 C1107 1.372 . S
C1107 C1106 1.372 . S
C1107 C1108 1.400 . S
C1107 C1112 1.490 . S
C1108 H1098 0.930 . S
C1108 C1107 1.400 . S
C1108 C1111 1.386 . S
H1109 C1125 0.930 . S
H1110 C1126 0.931 . S
C1111 H1099 0.929 . S
C1111 C1105 1.390 . S
C1111 C1108 1.386 . S
C1112 C1107 1.490 . S
C1112 C1114 1.395 . S
C1112 C1115 1.403 . S
H1113 C1119 0.930 . S
C1114 H1100 0.930 . S
C1114 C1112 1.395 . S
C1114 C1117 1.403 . S
C1115 C1112 1.403 . S
C1115 C1116 1.524 . S
C1115 C1119 1.400 . S
C1116 H1101 0.960 . S
C1116 H1102 0.960 . S
C1116 H1103 0.960 . S
C1116 C1115 1.524 . S
C1117 C1114 1.403 . S
C1117 C1118 1.392 . S
C1117 C1121 1.495 . S
C1118 C1117 1.392 . S
C1118 C1119 1.385 . S
C1118 C1120 1.478 . S
C1119 H1113 0.930 . S
C1119 C1115 1.400 . S
C1119 C1118 1.385 . S
C1120 C1118 1.478 . S
C1120 C1122 1.381 . S
C1120 C1126 1.383 . S
C1121 C1117 1.495 . S
C1121 H1127 0.959 . S
C1121 H1128 0.961 . S
C1121 H1129 0.960 . S
C1122 C1120 1.381 . S
C1122 C1123 1.394 . S
C1122 H1130 0.930 . S
C1123 C1122 1.394 . S
C1123 C1124 1.383 . S
C1123 H1131 0.929 . S
C1124 C1123 1.383 . S
C1124 C1125 1.377 . S
C1125 H1109 0.930 . S
C1125 C1124 1.377 . S
C1125 C1126 1.379 . S
C1126 H1110 0.931 . S
C1126 C1120 1.383 . S
C1126 C1125 1.379 . S
H1127 C1121 0.959 . S
H1128 C1121 0.961 . S
H1129 C1121 0.960 . S
H1130 C1122 0.930 . S
H1131 C1123 0.929 . S
H1132 C1140 0.929 . S
H1133 C1142 0.930 . S
H1134 C1144 0.930 . S
H1135 C1147 0.929 . S
H1136 C1150 0.930 . S
H1137 C1152 0.960 . S
H1138 C1152 0.960 . S
H1139 C1152 0.960 . S
C1140 H1132 0.929 . S
C1140 C1141 1.377 . S
C1140 C1142 1.384 . S
C1141 C1140 1.377 . S
C1141 C1147 1.390 . S
C1142 H1133 0.930 . S
C1142 C1140 1.384 . S
C1142 C1143 1.372 . S
C1143 C1142 1.372 . S
C1143 C1144 1.400 . S
C1143 C1148 1.490 . S
C1144 H1134 0.930 . S
C1144 C1143 1.400 . S
C1144 C1147 1.386 . S
H1145 C1161 0.930 . S
H1146 C1162 0.931 . S
C1147 H1135 0.929 . S
C1147 C1141 1.390 . S
C1147 C1144 1.386 . S
C1148 C1143 1.490 . S
C1148 C1150 1.395 . S
C1148 C1151 1.403 . S
H1149 C1155 0.930 . S
C1150 H1136 0.930 . S
C1150 C1148 1.395 . S
C1150 C1153 1.403 . S
C1151 C1148 1.403 . S
C1151 C1152 1.524 . S
C1151 C1155 1.400 . S
C1152 H1137 0.960 . S
C1152 H1138 0.960 . S
C1152 H1139 0.960 . S
C1152 C1151 1.524 . S
C1153 C1150 1.403 . S
C1153 C1154 1.392 . S
C1153 C1157 1.495 . S
C1154 C1153 1.392 . S
C1154 C1155 1.385 . S
C1154 C1156 1.478 . S
C1155 H1149 0.930 . S
C1155 C1151 1.400 . S
C1155 C1154 1.385 . S
C1156 C1154 1.478 . S
C1156 C1158 1.381 . S
C1156 C1162 1.383 . S
C1157 C1153 1.495 . S
C1157 H1163 0.959 . S
C1157 H1164 0.961 . S
C1157 H1165 0.960 . S
C1158 C1156 1.381 . S
C1158 C1159 1.394 . S
C1158 H1166 0.930 . S
C1159 C1158 1.394 . S
C1159 C1160 1.383 . S
C1159 H1167 0.929 . S
C1160 C1159 1.383 . S
C1160 C1161 1.377 . S
C1161 H1145 0.930 . S
C1161 C1160 1.377 . S
C1161 C1162 1.379 . S
C1162 H1146 0.931 . S
C1162 C1156 1.383 . S
C1162 C1161 1.379 . S
H1163 C1157 0.959 . S
H1164 C1157 0.961 . S
H1165 C1157 0.960 . S
H1166 C1158 0.930 . S
H1167 C1159 0.929 . S
H1168 C1176 0.929 . S
H1169 C1178 0.930 . S
H1170 C1180 0.930 . S
H1171 C1183 0.929 . S
H1172 C1186 0.941 . S
H1173 C1188 0.960 . S
H1174 C1188 0.960 1_455 S
H1175 C1188 0.960 . S
C1176 H1168 0.929 . S
C1176 C1177 1.326 1_455 S
C1176 C1178 1.384 . S
C1177 C1176 1.326 1_655 S
C1177 C1183 1.443 . S
C1178 H1169 0.930 . S
C1178 C1176 1.384 . S
C1178 C1179 1.372 1_455 S
C1179 C1178 1.372 1_655 S
C1179 C1180 1.400 . S
C1179 C1184 1.490 . S
C1180 H1170 0.930 . S
C1180 C1179 1.400 . S
C1180 C1183 1.386 . S
H1181 C1197 0.930 . S
H1182 C1198 0.931 . S
C1183 H1171 0.929 . S
C1183 C1177 1.443 . S
C1183 C1180 1.386 . S
C1184 C1179 1.490 . S
C1184 C1186 1.388 1_655 S
C1184 C1187 1.403 . S
H1185 C1191 0.930 . S
C1186 H1172 0.941 . S
C1186 C1184 1.388 1_455 S
C1186 C1189 1.403 . S
C1187 C1184 1.403 . S
C1187 C1188 1.524 . S
C1187 C1191 1.400 . S
C1188 H1173 0.960 . S
C1188 H1174 0.960 1_655 S
C1188 H1175 0.960 . S
C1188 C1187 1.524 . S
C1189 C1186 1.403 . S
C1189 C1190 1.392 1_455 S
C1189 C1193 1.495 . S
C1190 C1189 1.392 1_655 S
C1190 C1191 1.385 . S
C1190 C1192 1.478 . S
C1191 H1185 0.930 . S
C1191 C1187 1.400 . S
C1191 C1190 1.385 . S
C1192 C1190 1.478 . S
C1192 C1194 1.381 1_655 S
C1192 C1198 1.383 . S
C1193 C1189 1.495 . S
C1193 H1199 0.959 . S
C1193 H1200 0.961 1_455 S
C1193 H1201 0.960 . S
C1194 C1192 1.381 1_455 S
C1194 C1195 1.394 . S
C1194 H1202 0.930 . S
C1195 C1194 1.394 . S
C1195 C1196 1.383 1_455 S
C1195 H1203 0.929 . S
C1196 C1195 1.383 1_655 S
C1196 C1197 1.377 . S
C1197 H1181 0.930 . S
C1197 C1196 1.377 . S
C1197 C1198 1.379 . S
C1198 H1182 0.931 . S
C1198 C1192 1.383 . S
C1198 C1197 1.379 . S
H1199 C1193 0.959 . S
H1200 C1193 0.961 1_655 S
H1201 C1193 0.960 . S
H1202 C1194 0.930 . S
H1203 C1195 0.929 . S
H1204 C1212 0.929 . S
H1205 C1214 0.930 . S
H1206 C1216 0.930 . S
H1207 C1219 0.929 . S
H1208 C1222 0.930 . S
H1209 C1224 0.960 . S
H1210 C1224 0.960 . S
H1211 C1224 0.960 . S
C1212 H1204 0.929 . S
C1212 C1213 1.331 1_545 S
C1212 C1214 1.384 . S
C1213 C1212 1.331 1_565 S
C1213 C1219 1.438 . S
C1214 H1205 0.930 . S
C1214 C1212 1.384 . S
C1214 C1215 1.372 1_545 S
C1215 C1214 1.372 1_565 S
C1215 C1216 1.400 . S
C1215 C1220 1.490 . S
C1216 H1206 0.930 . S
C1216 C1215 1.400 . S
C1216 C1219 1.386 . S
H1217 C1233 0.930 . S
H1218 C1234 0.931 . S
C1219 H1207 0.929 . S
C1219 C1213 1.438 . S
C1219 C1216 1.386 . S
C1220 C1215 1.490 . S
C1220 C1222 1.395 1_565 S
C1220 C1223 1.403 . S
H1221 C1227 0.930 . S
C1222 H1208 0.930 . S
C1222 C1220 1.395 1_545 S
C1222 C1225 1.403 . S
C1223 C1220 1.403 . S
C1223 C1224 1.524 . S
C1223 C1227 1.400 . S
C1224 H1209 0.960 . S
C1224 H1210 0.960 . S
C1224 H1211 0.960 . S
C1224 C1223 1.524 . S
C1225 C1222 1.403 . S
C1225 C1226 1.392 1_545 S
C1225 C1229 1.495 . S
C1226 C1225 1.392 1_565 S
C1226 C1227 1.385 . S
C1226 C1228 1.478 . S
C1227 H1221 0.930 . S
C1227 C1223 1.400 . S
C1227 C1226 1.385 . S
C1228 C1226 1.478 . S
C1228 C1230 1.381 1_565 S
C1228 C1234 1.383 . S
C1229 C1225 1.495 . S
C1229 H1235 0.959 . S
C1229 H1236 0.961 . S
C1229 H1237 0.960 . S
C1230 C1228 1.381 1_545 S
C1230 C1231 1.394 . S
C1230 H1238 0.930 . S
C1231 C1230 1.394 . S
C1231 C1232 1.383 1_545 S
C1231 H1239 0.929 . S
C1232 C1231 1.383 1_565 S
C1232 C1233 1.377 . S
C1233 H1217 0.930 . S
C1233 C1232 1.377 . S
C1233 C1234 1.379 . S
C1234 H1218 0.931 . S
C1234 C1228 1.383 . S
C1234 C1233 1.379 . S
H1235 C1229 0.959 . S
H1236 C1229 0.961 . S
H1237 C1229 0.960 . S
H1238 C1230 0.930 . S
H1239 C1231 0.929 . S
H1240 C1248 0.929 . S
H1241 C1250 0.930 . S
H1242 C1252 0.930 . S
H1243 C1255 0.929 . S
H1244 C1258 0.930 . S
H1245 C1260 0.960 . S
H1246 C1260 0.960 . S
H1247 C1260 0.960 . S
C1248 H1240 0.929 . S
C1248 C1249 1.377 . S
C1248 C1250 1.384 . S
C1249 C1248 1.377 . S
C1249 C1255 1.390 . S
C1250 H1241 0.930 . S
C1250 C1248 1.384 . S
C1250 C1251 1.372 . S
C1251 C1250 1.372 . S
C1251 C1252 1.400 . S
C1251 C1256 1.490 . S
C1252 H1242 0.930 . S
C1252 C1251 1.400 . S
C1252 C1255 1.386 . S
H1253 C1269 0.930 . S
H1254 C1270 0.931 . S
C1255 H1243 0.929 . S
C1255 C1249 1.390 . S
C1255 C1252 1.386 . S
C1256 C1251 1.490 . S
C1256 C1258 1.395 . S
C1256 C1259 1.403 . S
H1257 C1263 0.930 . S
C1258 H1244 0.930 . S
C1258 C1256 1.395 . S
C1258 C1261 1.403 . S
C1259 C1256 1.403 . S
C1259 C1260 1.524 . S
C1259 C1263 1.400 . S
C1260 H1245 0.960 . S
C1260 H1246 0.960 . S
C1260 H1247 0.960 . S
C1260 C1259 1.524 . S
C1261 C1258 1.403 . S
C1261 C1262 1.392 . S
C1261 C1265 1.495 . S
C1262 C1261 1.392 . S
C1262 C1263 1.385 . S
C1262 C1264 1.478 . S
C1263 H1257 0.930 . S
C1263 C1259 1.400 . S
C1263 C1262 1.385 . S
C1264 C1262 1.478 . S
C1264 C1266 1.381 . S
C1264 C1270 1.383 . S
C1265 C1261 1.495 . S
C1265 H1271 0.959 . S
C1265 H1272 0.961 . S
C1265 H1273 0.960 . S
C1266 C1264 1.381 . S
C1266 C1267 1.394 . S
C1266 H1274 0.930 . S
C1267 C1266 1.394 . S
C1267 C1268 1.383 . S
C1267 H1275 0.929 . S
C1268 C1267 1.383 . S
C1268 C1269 1.377 . S
C1269 H1253 0.930 . S
C1269 C1268 1.377 . S
C1269 C1270 1.379 . S
C1270 H1254 0.931 . S
C1270 C1264 1.383 . S
C1270 C1269 1.379 . S
H1271 C1265 0.959 . S
H1272 C1265 0.961 . S
H1273 C1265 0.960 . S
H1274 C1266 0.930 . S
H1275 C1267 0.929 . S
H1276 C1284 0.929 . S
H1277 C1286 0.930 . S
H1278 C1288 0.930 . S
H1279 C1291 0.929 . S
H1280 C1294 0.930 . S
H1281 C1296 0.960 . S
H1282 C1296 0.960 . S
H1283 C1296 0.960 . S
C1284 H1276 0.929 . S
C1284 C1285 1.377 . S
C1284 C1286 1.384 . S
C1285 C1284 1.377 . S
C1285 C1291 1.390 . S
C1286 H1277 0.930 . S
C1286 C1284 1.384 . S
C1286 C1287 1.372 . S
C1287 C1286 1.372 . S
C1287 C1288 1.400 . S
C1287 C1292 1.490 . S
C1288 H1278 0.930 . S
C1288 C1287 1.400 . S
C1288 C1291 1.386 . S
H1289 C1305 0.930 . S
H1290 C1306 0.931 . S
C1291 H1279 0.929 . S
C1291 C1285 1.390 . S
C1291 C1288 1.386 . S
C1292 C1287 1.490 . S
C1292 C1294 1.395 . S
C1292 C1295 1.403 . S
H1293 C1299 0.930 . S
C1294 H1280 0.930 . S
C1294 C1292 1.395 . S
C1294 C1297 1.403 . S
C1295 C1292 1.403 . S
C1295 C1296 1.524 . S
C1295 C1299 1.400 . S
C1296 H1281 0.960 . S
C1296 H1282 0.960 . S
C1296 H1283 0.960 . S
C1296 C1295 1.524 . S
C1297 C1294 1.403 . S
C1297 C1298 1.392 . S
C1297 C1301 1.495 . S
C1298 C1297 1.392 . S
C1298 C1299 1.385 . S
C1298 C1300 1.478 . S
C1299 H1293 0.930 . S
C1299 C1295 1.400 . S
C1299 C1298 1.385 . S
C1300 C1298 1.478 . S
C1300 C1302 1.381 . S
C1300 C1306 1.383 . S
C1301 C1297 1.495 . S
C1301 H1307 0.959 . S
C1301 H1308 0.961 . S
C1301 H1309 0.960 . S
C1302 C1300 1.381 . S
C1302 C1303 1.394 . S
C1302 H1310 0.930 . S
C1303 C1302 1.394 . S
C1303 C1304 1.383 . S
C1303 H1311 0.929 . S
C1304 C1303 1.383 . S
C1304 C1305 1.377 . S
C1305 H1289 0.930 . S
C1305 C1304 1.377 . S
C1305 C1306 1.379 . S
C1306 H1290 0.931 . S
C1306 C1300 1.383 . S
C1306 C1305 1.379 . S
H1307 C1301 0.959 . S
H1308 C1301 0.961 . S
H1309 C1301 0.960 . S
H1310 C1302 0.930 . S
H1311 C1303 0.929 . S
C457 C241 1.873 1_565 S
C476 C297 2.010 1_545 S
C512 C337 2.046 . S
C493 C277 1.925 . S
C548 C377 2.026 . S
C529 C169 1.883 . S
C584 C417 2.031 1_455 S
C565 C205 1.882 . S
C620 C306 2.021 1_565 S
C601 C97 1.872 . S
C637 C133 1.932 . S
C656 C346 2.046 . S
C673 C25 1.879 . S
C692 C386 2.034 . S
C709 C61 1.876 . S
C728 C426 2.032 1_655 S
C764 C303 0.151 . S
C745 C211 0.239 . S
C800 C343 0.202 . S
C781 C247 0.259 . S
C836 C383 0.321 . S
C817 C253 0.275 . S
C853 C175 0.250 . S
C872 C423 0.161 . S
C889 C67 0.340 1_655 S
C908 C294 0.309 . S
C944 C334 0.268 . S
C925 C103 0.341 1_565 S
C980 C374 0.333 . S
C961 C109 0.176 . S
C997 C31 0.305 . S
C1016 C414 0.292 . S
C1033 C181 2.564 . S
C1052 C307 2.829 . S
C1069 C217 2.530 . S
C1088 C347 2.800 . S
C1124 C387 2.792 . S
C1105 C283 2.461 . S
C1160 C427 2.802 . S
C1141 C145 2.529 . S
C1177 C37 2.562 1_655 S
C1196 C298 2.834 . S
C1232 C338 2.792 . S
C1213 C73 2.533 1_565 S
C1268 C378 2.790 . S
C1249 C139 2.454 . S
C1285 C1 2.539 . S
C1304 C418 2.813 . S
