# Generated by pormake.
# Topology eea, (3,6)-cn, num edge types: 1
# Building blocks:
#     Node 0, Type 0, BuildingBlock: VETTIZ_charged_linker_0, # of connection points: 3
#     Node 1, Type 0, BuildingBlock: VETTIZ_charged_linker_0, # of connection points: 3
#     Node 2, Type 0, BuildingBlock: VETTIZ_charged_linker_0, # of connection points: 3
#     Node 3, Type 0, BuildingBlock: VETTIZ_charged_linker_0, # of connection points: 3
#     Node 4, Type 0, BuildingBlock: VETTIZ_charged_linker_0, # of connection points: 3
#     Node 5, Type 0, BuildingBlock: VETTIZ_charged_linker_0, # of connection points: 3
#     Node 6, Type 0, BuildingBlock: VETTIZ_charged_linker_0, # of connection points: 3
#     Node 7, Type 0, BuildingBlock: VETTIZ_charged_linker_0, # of connection points: 3
#     Node 8, Type 0, BuildingBlock: VETTIZ_charged_linker_0, # of connection points: 3
#     Node 9, Type 0, BuildingBlock: VETTIZ_charged_linker_0, # of connection points: 3
#     Node 10, Type 0, BuildingBlock: VETTIZ_charged_linker_0, # of connection points: 3
#     Node 11, Type 0, BuildingBlock: VETTIZ_charged_linker_0, # of connection points: 3
#     Node 12, Type 0, BuildingBlock: VETTIZ_charged_linker_0, # of connection points: 3
#     Node 13, Type 0, BuildingBlock: VETTIZ_charged_linker_0, # of connection points: 3
#     Node 14, Type 0, BuildingBlock: VETTIZ_charged_linker_0, # of connection points: 3
#     Node 15, Type 0, BuildingBlock: VETTIZ_charged_linker_0, # of connection points: 3
#     Node 16, Type 0, BuildingBlock: VETTIZ_charged_linker_0, # of connection points: 3
#     Node 17, Type 0, BuildingBlock: VETTIZ_charged_linker_0, # of connection points: 3
#     Node 18, Type 1, BuildingBlock: CUKXOW_clean_sbu_0, # of connection points: 6
#     Node 19, Type 1, BuildingBlock: CUKXOW_clean_sbu_0, # of connection points: 6
#     Node 20, Type 1, BuildingBlock: CUKXOW_clean_sbu_0, # of connection points: 6
#     Node 21, Type 1, BuildingBlock: CUKXOW_clean_sbu_0, # of connection points: 6
#     Node 22, Type 1, BuildingBlock: CUKXOW_clean_sbu_0, # of connection points: 6
#     Node 23, Type 1, BuildingBlock: CUKXOW_clean_sbu_0, # of connection points: 6
#     Node 24, Type 1, BuildingBlock: CUKXOW_clean_sbu_0, # of connection points: 6
#     Node 25, Type 1, BuildingBlock: CUKXOW_clean_sbu_0, # of connection points: 6
#     Node 26, Type 1, BuildingBlock: CUKXOW_clean_sbu_0, # of connection points: 6
#     Edge 27, Type (0, 1), BuildingBlock: KIFKEQ_clean_linker_1, # of connection points: 2
#     Edge 28, Type (0, 1), BuildingBlock: KIFKEQ_clean_linker_1, # of connection points: 2
#     Edge 29, Type (0, 1), BuildingBlock: KIFKEQ_clean_linker_1, # of connection points: 2
#     Edge 30, Type (0, 1), BuildingBlock: KIFKEQ_clean_linker_1, # of connection points: 2
#     Edge 31, Type (0, 1), BuildingBlock: KIFKEQ_clean_linker_1, # of connection points: 2
#     Edge 32, Type (0, 1), BuildingBlock: KIFKEQ_clean_linker_1, # of connection points: 2
#     Edge 33, Type (0, 1), BuildingBlock: KIFKEQ_clean_linker_1, # of connection points: 2
#     Edge 34, Type (0, 1), BuildingBlock: KIFKEQ_clean_linker_1, # of connection points: 2
#     Edge 35, Type (0, 1), BuildingBlock: KIFKEQ_clean_linker_1, # of connection points: 2
#     Edge 36, Type (0, 1), BuildingBlock: KIFKEQ_clean_linker_1, # of connection points: 2
#     Edge 37, Type (0, 1), BuildingBlock: KIFKEQ_clean_linker_1, # of connection points: 2
#     Edge 38, Type (0, 1), BuildingBlock: KIFKEQ_clean_linker_1, # of connection points: 2
#     Edge 39, Type (0, 1), BuildingBlock: KIFKEQ_clean_linker_1, # of connection points: 2
#     Edge 40, Type (0, 1), BuildingBlock: KIFKEQ_clean_linker_1, # of connection points: 2
#     Edge 41, Type (0, 1), BuildingBlock: KIFKEQ_clean_linker_1, # of connection points: 2
#     Edge 42, Type (0, 1), BuildingBlock: KIFKEQ_clean_linker_1, # of connection points: 2
#     Edge 43, Type (0, 1), BuildingBlock: KIFKEQ_clean_linker_1, # of connection points: 2
#     Edge 44, Type (0, 1), BuildingBlock: KIFKEQ_clean_linker_1, # of connection points: 2
#     Edge 45, Type (0, 1), BuildingBlock: KIFKEQ_clean_linker_1, # of connection points: 2
#     Edge 46, Type (0, 1), BuildingBlock: KIFKEQ_clean_linker_1, # of connection points: 2
#     Edge 47, Type (0, 1), BuildingBlock: KIFKEQ_clean_linker_1, # of connection points: 2
#     Edge 48, Type (0, 1), BuildingBlock: KIFKEQ_clean_linker_1, # of connection points: 2
#     Edge 49, Type (0, 1), BuildingBlock: KIFKEQ_clean_linker_1, # of connection points: 2
#     Edge 50, Type (0, 1), BuildingBlock: KIFKEQ_clean_linker_1, # of connection points: 2
#     Edge 51, Type (0, 1), BuildingBlock: KIFKEQ_clean_linker_1, # of connection points: 2
#     Edge 52, Type (0, 1), BuildingBlock: KIFKEQ_clean_linker_1, # of connection points: 2
#     Edge 53, Type (0, 1), BuildingBlock: KIFKEQ_clean_linker_1, # of connection points: 2
#     Edge 54, Type (0, 1), BuildingBlock: KIFKEQ_clean_linker_1, # of connection points: 2
#     Edge 55, Type (0, 1), BuildingBlock: KIFKEQ_clean_linker_1, # of connection points: 2
#     Edge 56, Type (0, 1), BuildingBlock: KIFKEQ_clean_linker_1, # of connection points: 2
#     Edge 57, Type (0, 1), BuildingBlock: KIFKEQ_clean_linker_1, # of connection points: 2
#     Edge 58, Type (0, 1), BuildingBlock: KIFKEQ_clean_linker_1, # of connection points: 2
#     Edge 59, Type (0, 1), BuildingBlock: KIFKEQ_clean_linker_1, # of connection points: 2
#     Edge 60, Type (0, 1), BuildingBlock: KIFKEQ_clean_linker_1, # of connection points: 2
#     Edge 61, Type (0, 1), BuildingBlock: KIFKEQ_clean_linker_1, # of connection points: 2
#     Edge 62, Type (0, 1), BuildingBlock: KIFKEQ_clean_linker_1, # of connection points: 2
#     Edge 63, Type (0, 1), BuildingBlock: KIFKEQ_clean_linker_1, # of connection points: 2
#     Edge 64, Type (0, 1), BuildingBlock: KIFKEQ_clean_linker_1, # of connection points: 2
#     Edge 65, Type (0, 1), BuildingBlock: KIFKEQ_clean_linker_1, # of connection points: 2
#     Edge 66, Type (0, 1), BuildingBlock: KIFKEQ_clean_linker_1, # of connection points: 2
#     Edge 67, Type (0, 1), BuildingBlock: KIFKEQ_clean_linker_1, # of connection points: 2
#     Edge 68, Type (0, 1), BuildingBlock: KIFKEQ_clean_linker_1, # of connection points: 2
#     Edge 69, Type (0, 1), BuildingBlock: KIFKEQ_clean_linker_1, # of connection points: 2
#     Edge 70, Type (0, 1), BuildingBlock: KIFKEQ_clean_linker_1, # of connection points: 2
#     Edge 71, Type (0, 1), BuildingBlock: KIFKEQ_clean_linker_1, # of connection points: 2
#     Edge 72, Type (0, 1), BuildingBlock: KIFKEQ_clean_linker_1, # of connection points: 2
#     Edge 73, Type (0, 1), BuildingBlock: KIFKEQ_clean_linker_1, # of connection points: 2
#     Edge 74, Type (0, 1), BuildingBlock: KIFKEQ_clean_linker_1, # of connection points: 2
#     Edge 75, Type (0, 1), BuildingBlock: KIFKEQ_clean_linker_1, # of connection points: 2
#     Edge 76, Type (0, 1), BuildingBlock: KIFKEQ_clean_linker_1, # of connection points: 2
#     Edge 77, Type (0, 1), BuildingBlock: KIFKEQ_clean_linker_1, # of connection points: 2
#     Edge 78, Type (0, 1), BuildingBlock: KIFKEQ_clean_linker_1, # of connection points: 2
#     Edge 79, Type (0, 1), BuildingBlock: KIFKEQ_clean_linker_1, # of connection points: 2
#     Edge 80, Type (0, 1), BuildingBlock: KIFKEQ_clean_linker_1, # of connection points: 2
# Relax obj value: 0.018
# Max RMSD: 0.128
# Mean RMSD: 0.056
data_MOF--net-eea--node1-CUKXOW_clean_sbu_0--node2-VETTIZ_charged_linker_0--edge1-KIFKEQ_clean_linker_1
_symmetry_space_group_name_H-M    P1
_symmetry_Int_Tables_number       1
_symmetry_cell_setting            triclinic
loop_
_symmetry_equiv_pos_as_xyz
'x, y, z'
_cell_length_a     67.602396
_cell_length_b     64.649631
_cell_length_c     74.49728
_cell_angle_alpha  93.065223
_cell_angle_beta   92.938895
_cell_angle_gamma 119.94733
loop_
_atom_site_label
_atom_site_type_symbol
_atom_site_fract_x
_atom_site_fract_y
_atom_site_fract_z
_atom_type_partial_charge
C0 C 0.23156 0.18162 0.40163 0.0
C1 C 0.2361 0.20386 0.40978 0.0
C2 C 0.24773 0.21176 0.42722 0.0
C3 C 0.24965 0.17535 0.42817 0.0
C4 C 0.23841 0.16773 0.41103 0.0
C5 C 0.23431 0.14341 0.40443 0.0
H6 H 0.2432 0.04608 0.41989 0.0
C7 C 0.25391 0.15642 0.43431 0.0
C8 C 0.24493 0.13766 0.42043 0.0
H9 H 0.21231 0.05801 0.37225 0.0
H10 H 0.2221 0.09713 0.38567 0.0
H11 H 0.28801 0.09977 0.42562 0.0
H12 H 0.22273 0.06609 0.44779 0.0
H13 H 0.2429 0.08523 0.46542 0.0
H14 H 0.24534 0.06075 0.45517 0.0
H15 H 0.2805 0.07773 0.44157 0.0
H16 H 0.29312 0.10917 0.4488 0.0
C17 C 0.24745 0.14611 0.38746 0.0
C18 C 0.20807 0.12603 0.40125 0.0
C19 C 0.29317 0.16635 0.49696 0.0
C20 C 0.2985 0.15128 0.50654 0.0
C21 C 0.29319 0.1289 0.49794 0.0
C22 C 0.28277 0.12162 0.48027 0.0
C23 C 0.27734 0.13672 0.47099 0.0
C24 C 0.28256 0.15869 0.47931 0.0
C25 C 0.27502 0.17208 0.46743 0.0
C26 C 0.26444 0.1545 0.45066 0.0
C27 C 0.2659 0.13385 0.45286 0.0
C28 C 0.29658 0.19563 0.46359 0.0
C29 C 0.25697 0.17572 0.47694 0.0
C30 C 0.23881 0.05725 0.41226 0.0
C31 C 0.22698 0.04895 0.39497 0.0
C32 C 0.22121 0.06389 0.38565 0.0
C33 C 0.227 0.08665 0.39345 0.0
C34 C 0.23861 0.09458 0.41082 0.0
C35 C 0.24437 0.07997 0.41989 0.0
C36 C 0.25633 0.09114 0.43833 0.0
C37 C 0.25685 0.11491 0.43883 0.0
C38 C 0.24646 0.11682 0.4227 0.0
C39 C 0.28074 0.09456 0.4388 0.0
C40 C 0.24127 0.07502 0.45252 0.0
H41 H 0.26333 0.20467 0.44964 0.0
H42 H 0.22238 0.17486 0.38836 0.0
H43 H 0.19885 0.13062 0.41124 0.0
H44 H 0.20303 0.10725 0.40308 0.0
H45 H 0.20133 0.12691 0.38757 0.0
H46 H 0.26409 0.1633 0.38885 0.0
H47 H 0.23738 0.14604 0.37517 0.0
H48 H 0.25206 0.13208 0.38525 0.0
H49 H 0.29711 0.18373 0.50304 0.0
H50 H 0.29659 0.11664 0.50502 0.0
H51 H 0.27908 0.10433 0.47462 0.0
H52 H 0.31124 0.19266 0.46177 0.0
H53 H 0.30188 0.20971 0.47495 0.0
H54 H 0.2942 0.20263 0.45097 0.0
H55 H 0.24605 0.16 0.48438 0.0
H56 H 0.24482 0.17725 0.46741 0.0
H57 H 0.26535 0.19181 0.48685 0.0
H58 H 0.25167 0.22894 0.43371 0.0
C59 C 0.25457 0.19767 0.43642 0.0
C60 C 0.94701 0.17399 0.41436 0.0
C61 C 0.96416 0.19587 0.42341 0.0
C62 C 0.96044 0.20286 0.44064 0.0
C63 C 0.92262 0.16729 0.43877 0.0
C64 C 0.92644 0.16033 0.42206 0.0
C65 C 0.90609 0.13763 0.41341 0.0
H66 H 0.79615 0.04909 0.41506 0.0
C67 C 0.89887 0.14974 0.44233 0.0
C68 C 0.88902 0.1326 0.42732 0.0
H69 H 0.84378 0.05606 0.37615 0.0
H70 H 0.87293 0.0935 0.39213 0.0
H71 H 0.83428 0.06486 0.45008 0.0
H72 H 0.80801 0.10248 0.4202 0.0
H73 H 0.81495 0.11606 0.44242 0.0
H74 H 0.79306 0.08485 0.43793 0.0
H75 H 0.80499 0.05803 0.44895 0.0
H76 H 0.82622 0.0806 0.46527 0.0
C77 C 0.91294 0.11805 0.41157 0.0
C78 C 0.89816 0.14315 0.3953 0.0
C79 C 0.86834 0.15412 0.50279 0.0
C80 C 0.84627 0.14145 0.509 0.0
C81 C 0.82773 0.12549 0.49639 0.0
C82 C 0.83125 0.12067 0.47869 0.0
C83 C 0.85348 0.13217 0.47319 0.0
C84 C 0.87142 0.14951 0.48479 0.0
C85 C 0.89321 0.16223 0.4755 0.0
C86 C 0.88569 0.14803 0.45704 0.0
C87 C 0.86246 0.13016 0.45596 0.0
C88 C 0.91207 0.15951 0.48583 0.0
C89 C 0.89936 0.18864 0.47431 0.0
C90 C 0.81281 0.05899 0.40994 0.0
C91 C 0.81779 0.04999 0.39431 0.0
C92 C 0.8397 0.06288 0.38815 0.0
C93 C 0.85656 0.08452 0.39749 0.0
C94 C 0.85157 0.09315 0.41334 0.0
C95 C 0.83003 0.08037 0.41938 0.0
C96 C 0.82837 0.09137 0.43716 0.0
C97 C 0.85248 0.11289 0.44075 0.0
C98 C 0.86584 0.11392 0.42666 0.0
C99 C 0.82309 0.07285 0.45119 0.0
C100 C 0.81008 0.09899 0.43444 0.0
H101 H 0.93794 0.19491 0.46146 0.0
H102 H 0.94935 0.1676 0.40135 0.0
H103 H 0.89894 0.16077 0.39683 0.0
H104 H 0.8802 0.13005 0.39047 0.0
H105 H 0.90931 0.14395 0.3846 0.0
H106 H 0.92693 0.12154 0.42197 0.0
H107 H 0.91908 0.11726 0.39814 0.0
H108 H 0.89875 0.10005 0.41381 0.0
H109 H 0.88304 0.167 0.51169 0.0
H110 H 0.8103 0.11651 0.5001 0.0
H111 H 0.81648 0.10803 0.46997 0.0
H112 H 0.90547 0.14048 0.48847 0.0
H113 H 0.91785 0.1705 0.49904 0.0
H114 H 0.92721 0.16479 0.47821 0.0
H115 H 0.88402 0.1907 0.47499 0.0
H116 H 0.906 0.19534 0.46129 0.0
H117 H 0.91211 0.20064 0.48554 0.0
H118 H 0.97319 0.21964 0.44795 0.0
C119 C 0.93983 0.18864 0.44838 0.0
C120 C 0.94887 0.77156 0.42051 0.0
C121 C 0.96582 0.76695 0.4276 0.0
C122 C 0.96213 0.75485 0.44339 0.0
C123 C 0.92509 0.75209 0.44457 0.0
C124 C 0.92879 0.76401 0.42914 0.0
C125 C 0.90914 0.76744 0.42317 0.0
H126 H 0.8046 0.75225 0.43595 0.0
C127 C 0.90223 0.74636 0.44993 0.0
C128 C 0.89282 0.75527 0.43738 0.0
H129 H 0.84905 0.78918 0.39478 0.0
H130 H 0.87692 0.77954 0.4067 0.0
H131 H 0.81183 0.70729 0.43373 0.0
H132 H 0.84514 0.77279 0.46881 0.0
H133 H 0.83846 0.74878 0.48206 0.0
H134 H 0.81569 0.75008 0.46954 0.0
H135 H 0.79854 0.7118 0.45261 0.0
H136 H 0.81754 0.69982 0.45493 0.0
C137 C 0.89915 0.75412 0.40411 0.0
C138 C 0.91802 0.79477 0.42424 0.0
C139 C 0.87252 0.70332 0.50624 0.0
C140 C 0.85156 0.6947 0.51394 0.0
C141 C 0.83403 0.69729 0.50525 0.0
C142 C 0.83748 0.70882 0.48934 0.0
C143 C 0.85865 0.71776 0.48196 0.0
C144 C 0.8756 0.71453 0.49019 0.0
C145 C 0.89651 0.72408 0.47983 0.0
C146 C 0.88957 0.73419 0.46436 0.0
C147 C 0.86747 0.73066 0.46581 0.0
C148 C 0.89951 0.70276 0.47319 0.0
C149 C 0.91715 0.74399 0.49217 0.0
C150 C 0.82028 0.75807 0.42945 0.0
C151 C 0.8247 0.77162 0.41447 0.0
C152 C 0.8454 0.77904 0.40649 0.0
C153 C 0.86154 0.77334 0.4134 0.0
C154 C 0.85707 0.76011 0.42853 0.0
C155 C 0.83671 0.75265 0.43629 0.0
C156 C 0.83516 0.73908 0.45246 0.0
C157 C 0.85803 0.73984 0.45319 0.0
C158 C 0.87071 0.75213 0.43911 0.0
C159 C 0.81465 0.71317 0.44841 0.0
C160 C 0.83337 0.75319 0.46917 0.0
H161 H 0.94014 0.73839 0.46391 0.0
H162 H 0.95097 0.78051 0.40828 0.0
H163 H 0.93217 0.80467 0.43515 0.0
H164 H 0.90483 0.79926 0.42773 0.0
H165 H 0.92472 0.80228 0.41138 0.0
H166 H 0.89941 0.73703 0.40291 0.0
H167 H 0.90929 0.76518 0.39349 0.0
H168 H 0.88099 0.74879 0.40105 0.0
H169 H 0.88616 0.70123 0.51251 0.0
H170 H 0.81779 0.69087 0.51101 0.0
H171 H 0.82357 0.71049 0.48349 0.0
H172 H 0.88262 0.686 0.4703 0.0
H173 H 0.90974 0.69935 0.48351 0.0
H174 H 0.90753 0.70536 0.46032 0.0
H175 H 0.912 0.75548 0.49991 0.0
H176 H 0.93135 0.75634 0.48459 0.0
H177 H 0.9238 0.73615 0.50205 0.0
H178 H 0.97501 0.7513 0.44926 0.0
C179 C 0.9419 0.74744 0.45192 0.0
C180 C 0.16072 0.22925 0.585 0.0
C181 C 0.18171 0.23396 0.57871 0.0
C182 C 0.18806 0.24491 0.56248 0.0
C183 C 0.15279 0.24609 0.5591 0.0
C184 C 0.14664 0.23549 0.57506 0.0
C185 C 0.12395 0.23201 0.57999 0.0
H186 H 0.03104 0.24332 0.56079 0.0
C187 C 0.13427 0.25015 0.55205 0.0
C188 C 0.11734 0.24197 0.56423 0.0
H189 H 0.04723 0.21545 0.60733 0.0
H190 H 0.08226 0.22243 0.5956 0.0
H191 H 0.08275 0.28819 0.55915 0.0
H192 H 0.04754 0.21722 0.53116 0.0
H193 H 0.06307 0.23782 0.51571 0.0
H194 H 0.04035 0.23963 0.52603 0.0
H195 H 0.05924 0.27869 0.54225 0.0
H196 H 0.08818 0.29052 0.53628 0.0
C197 C 0.12809 0.2472 0.59809 0.0
C198 C 0.10726 0.20475 0.58041 0.0
C199 C 0.14126 0.28799 0.49312 0.0
C200 C 0.127 0.29374 0.48278 0.0
C201 C 0.10565 0.28836 0.48884 0.0
C202 C 0.09883 0.27777 0.50509 0.0
C203 C 0.11347 0.27237 0.51536 0.0
C204 C 0.13421 0.27737 0.5092 0.0
C205 C 0.14745 0.27005 0.52153 0.0
C206 C 0.13139 0.26001 0.53623 0.0
C207 C 0.11151 0.26145 0.53265 0.0
C208 C 0.17033 0.29286 0.52868 0.0
C209 C 0.15026 0.25047 0.51096 0.0
C210 C 0.04211 0.23861 0.56835 0.0
C211 C 0.03643 0.229 0.5851 0.0
C212 C 0.05138 0.22326 0.59457 0.0
C213 C 0.0717 0.2272 0.58768 0.0
C214 C 0.07732 0.23706 0.57108 0.0
C215 C 0.06268 0.2426 0.56166 0.0
C216 C 0.07183 0.25326 0.54433 0.0
C217 C 0.09437 0.25326 0.54504 0.0
C218 C 0.09737 0.24365 0.56073 0.0
C219 C 0.07563 0.27898 0.54537 0.0
C220 C 0.05484 0.23631 0.52838 0.0
H221 H 0.17953 0.25916 0.54039 0.0
H222 H 0.15548 0.22116 0.59755 0.0
H223 H 0.11012 0.19432 0.56952 0.0
H224 H 0.08907 0.1996 0.57791 0.0
H225 H 0.10978 0.19852 0.59348 0.0
H226 H 0.14539 0.26357 0.59952 0.0
H227 H 0.12695 0.23685 0.60981 0.0
H228 H 0.11612 0.25409 0.59913 0.0
H229 H 0.15756 0.29141 0.48868 0.0
H230 H 0.09436 0.29267 0.48114 0.0
H231 H 0.08248 0.27426 0.50905 0.0
H232 H 0.1679 0.3086 0.53078 0.0
H233 H 0.18353 0.29729 0.51899 0.0
H234 H 0.1772 0.29137 0.54201 0.0
H235 H 0.13495 0.2389 0.50133 0.0
H236 H 0.15164 0.23795 0.51975 0.0
H237 H 0.16543 0.2586 0.50304 0.0
H238 H 0.20403 0.24852 0.55724 0.0
C239 C 0.17373 0.25096 0.55265 0.0
C240 C 0.76508 0.81446 0.6049 0.0
C241 C 0.76063 0.79203 0.59724 0.0
C242 C 0.74915 0.78366 0.57977 0.0
C243 C 0.74743 0.82007 0.57778 0.0
C244 C 0.75841 0.8281 0.59498 0.0
C245 C 0.76238 0.85252 0.60108 0.0
H246 H 0.75466 0.94975 0.5829 0.0
C247 C 0.74328 0.83883 0.57106 0.0
C248 C 0.75197 0.85786 0.58471 0.0
H249 H 0.7847 0.93869 0.63149 0.0
H250 H 0.77408 0.89896 0.61906 0.0
H251 H 0.77506 0.92657 0.55529 0.0
H252 H 0.7102 0.89832 0.57792 0.0
H253 H 0.70422 0.88515 0.55564 0.0
H254 H 0.71727 0.91729 0.55977 0.0
H255 H 0.75432 0.93512 0.54906 0.0
H256 H 0.75353 0.90931 0.53782 0.0
C257 C 0.78861 0.86993 0.60439 0.0
C258 C 0.74899 0.85026 0.61784 0.0
C259 C 0.7059 0.82789 0.50747 0.0
C260 C 0.69998 0.84235 0.49768 0.0
C261 C 0.70416 0.86439 0.50612 0.0
C262 C 0.71428 0.87206 0.52386 0.0
C263 C 0.7204 0.85762 0.53337 0.0
C264 C 0.71596 0.83581 0.52526 0.0
C265 C 0.7233 0.82272 0.53765 0.0
C266 C 0.73309 0.84041 0.5544 0.0
C267 C 0.73148 0.86088 0.55173 0.0
C268 C 0.74194 0.81941 0.52888 0.0
C269 C 0.70171 0.799 0.54119 0.0
C270 C 0.75911 0.93884 0.59081 0.0
C271 C 0.77062 0.94746 0.6082 0.0
C272 C 0.77565 0.93244 0.61815 0.0
C273 C 0.76961 0.9094 0.61084 0.0
C274 C 0.75843 0.90121 0.59335 0.0
C275 C 0.75323 0.9158 0.5837 0.0
C276 C 0.74128 0.9041 0.56533 0.0
C277 C 0.74036 0.88016 0.56549 0.0
C278 C 0.75049 0.8786 0.5819 0.0
C279 C 0.75662 0.91952 0.55101 0.0
C280 C 0.71702 0.90113 0.56443 0.0
H281 H 0.73405 0.79026 0.55674 0.0
H282 H 0.77358 0.82133 0.61837 0.0
H283 H 0.73252 0.8329 0.61666 0.0
H284 H 0.74401 0.86409 0.61941 0.0
H285 H 0.75905 0.85105 0.63038 0.0
H286 H 0.79794 0.86523 0.59459 0.0
H287 H 0.7952 0.86921 0.61817 0.0
H288 H 0.79368 0.88868 0.60239 0.0
H289 H 0.7027 0.81075 0.50144 0.0
H290 H 0.70007 0.87603 0.49884 0.0
H291 H 0.71716 0.88909 0.5294 0.0
H292 H 0.75361 0.83562 0.5222 0.0
H293 H 0.73411 0.80389 0.51845 0.0
H294 H 0.75323 0.81706 0.53876 0.0
H295 H 0.68655 0.80139 0.54174 0.0
H296 H 0.7034 0.79269 0.55436 0.0
H297 H 0.69754 0.78462 0.53032 0.0
H298 H 0.74572 0.76658 0.57344 0.0
C299 C 0.74252 0.79753 0.57002 0.0
C300 C 0.05974 0.82202 0.59683 0.0
C301 C 0.04059 0.8015 0.58789 0.0
C302 C 0.0416 0.79513 0.56964 0.0
C303 C 0.07973 0.82983 0.56961 0.0
C304 C 0.07875 0.83598 0.58746 0.0
C305 C 0.09938 0.85934 0.59478 0.0
H306 H 0.19894 0.95786 0.58069 0.0
C307 C 0.10167 0.84875 0.56374 0.0
C308 C 0.11308 0.86617 0.57847 0.0
H309 H 0.16349 0.94247 0.62924 0.0
H310 H 0.13477 0.90359 0.61518 0.0
H311 H 0.19285 0.90582 0.57266 0.0
H312 H 0.15521 0.93882 0.55358 0.0
H313 H 0.15636 0.92193 0.53486 0.0
H314 H 0.18265 0.94606 0.54629 0.0
H315 H 0.20277 0.92676 0.55583 0.0
H316 H 0.18408 0.89501 0.54988 0.0
C317 C 0.11192 0.85439 0.6105 0.0
C318 C 0.09123 0.87723 0.60013 0.0
C319 C 0.12411 0.84296 0.49992 0.0
C320 C 0.14317 0.85863 0.49098 0.0
C321 C 0.1605 0.8801 0.50045 0.0
C322 C 0.15892 0.88609 0.51839 0.0
C323 C 0.13971 0.87057 0.5271 0.0
C324 C 0.12267 0.84938 0.51795 0.0
C325 C 0.1033 0.83556 0.5295 0.0
C326 C 0.11188 0.85175 0.54711 0.0
C327 C 0.13318 0.87223 0.54549 0.0
C328 C 0.10143 0.81104 0.53179 0.0
C329 C 0.08126 0.8338 0.52053 0.0
C330 C 0.18493 0.94617 0.58828 0.0
C331 C 0.18341 0.95338 0.60606 0.0
C332 C 0.16517 0.93734 0.61557 0.0
C333 C 0.14838 0.91483 0.60731 0.0
C334 C 0.14975 0.90824 0.58932 0.0
C335 C 0.168 0.92369 0.58023 0.0
C336 C 0.16676 0.91375 0.56124 0.0
C337 C 0.14443 0.89 0.56026 0.0
C338 C 0.13453 0.88688 0.57671 0.0
C339 C 0.18771 0.91025 0.55963 0.0
C340 C 0.16533 0.93098 0.54819 0.0
H341 H 0.0607 0.80335 0.54665 0.0
H342 H 0.06 0.82743 0.61089 0.0
H343 H 0.07589 0.87365 0.59127 0.0
H344 H 0.10407 0.89602 0.59846 0.0
H345 H 0.08653 0.87586 0.61426 0.0
H346 H 0.11155 0.83716 0.60742 0.0
H347 H 0.10364 0.85314 0.62321 0.0
H348 H 0.13028 0.86807 0.61289 0.0
H349 H 0.11047 0.8264 0.49293 0.0
H350 H 0.17547 0.89227 0.49394 0.0
H351 H 0.17273 0.90271 0.52474 0.0
H352 H 0.11874 0.8133 0.53473 0.0
H353 H 0.09332 0.79875 0.51928 0.0
H354 H 0.09166 0.80218 0.54318 0.0
H355 H 0.08535 0.85016 0.51365 0.0
H356 H 0.0692 0.8327 0.5304 0.0
H357 H 0.07232 0.81815 0.51026 0.0
H358 H 0.02713 0.77969 0.56219 0.0
C359 C 0.06107 0.80907 0.56052 0.0
C360 C 0.90303 0.51448 0.7328 0.0
C361 C 0.90773 0.53672 0.74105 0.0
C362 C 0.9185 0.54399 0.75879 0.0
C363 C 0.91869 0.50667 0.76 0.0
C364 C 0.90852 0.49978 0.74249 0.0
C365 C 0.90349 0.47508 0.73599 0.0
H366 H 0.90282 0.37314 0.75333 0.0
C367 C 0.92102 0.48671 0.76655 0.0
C368 C 0.91208 0.46815 0.75252 0.0
H369 H 0.87871 0.38886 0.70385 0.0
H370 H 0.89057 0.42865 0.71704 0.0
H371 H 0.94953 0.425 0.7612 0.0
H372 H 0.882 0.3948 0.77919 0.0
H373 H 0.90087 0.41335 0.79764 0.0
H374 H 0.90276 0.38796 0.78865 0.0
H375 H 0.9387 0.40213 0.77658 0.0
H376 H 0.95281 0.4335 0.78445 0.0
C377 C 0.91775 0.47728 0.71982 0.0
C378 C 0.87721 0.45897 0.73159 0.0
C379 C 0.95415 0.49285 0.83095 0.0
C380 C 0.95636 0.47621 0.84102 0.0
C381 C 0.94972 0.45336 0.83268 0.0
C382 C 0.94089 0.44704 0.81459 0.0
C383 C 0.93837 0.46362 0.80471 0.0
C384 C 0.94489 0.48608 0.81289 0.0
C385 C 0.93978 0.50081 0.80047 0.0
C386 C 0.9295 0.4836 0.78346 0.0
C387 C 0.92883 0.46192 0.78606 0.0
C388 C 0.96271 0.52341 0.79749 0.0
C389 C 0.92212 0.50616 0.80887 0.0
C390 C 0.89994 0.38508 0.74535 0.0
C391 C 0.88972 0.37775 0.72752 0.0
C392 C 0.88673 0.39408 0.71755 0.0
C393 C 0.89351 0.41716 0.72528 0.0
C394 C 0.90335 0.42405 0.74322 0.0
C395 C 0.90657 0.40815 0.75288 0.0
C396 C 0.9172 0.41846 0.77177 0.0
C397 C 0.91981 0.44318 0.77188 0.0
C398 C 0.91163 0.44634 0.75517 0.0
C399 C 0.94075 0.41977 0.7738 0.0
C400 C 0.90003 0.40287 0.78512 0.0
H401 H 0.93213 0.53562 0.78174 0.0
H402 H 0.89449 0.50821 0.71929 0.0
H403 H 0.86781 0.46384 0.74121 0.0
H404 H 0.87099 0.43982 0.73295 0.0
H405 H 0.87181 0.46097 0.71776 0.0
H406 H 0.93471 0.49409 0.72174 0.0
H407 H 0.90881 0.47765 0.70701 0.0
H408 H 0.92183 0.46277 0.71826 0.0
H409 H 0.95885 0.51042 0.83717 0.0
H410 H 0.9514 0.44036 0.84023 0.0
H411 H 0.93614 0.42935 0.80906 0.0
H412 H 0.97638 0.51882 0.79588 0.0
H413 H 0.9685 0.53713 0.80917 0.0
H414 H 0.96177 0.53154 0.78506 0.0
H415 H 0.91015 0.49106 0.81639 0.0
H416 H 0.91089 0.50813 0.79865 0.0
H417 H 0.93077 0.52253 0.81848 0.0
H418 H 0.92251 0.56115 0.76537 0.0
C419 C 0.92409 0.52915 0.76826 0.0
C420 C 0.60717 0.5131 0.74188 0.0
C421 C 0.62578 0.53342 0.75135 0.0
C422 C 0.62432 0.5394 0.76951 0.0
C423 C 0.58591 0.50489 0.76846 0.0
C424 C 0.58764 0.49898 0.75071 0.0
C425 C 0.56716 0.47578 0.74292 0.0
H426 H 0.46556 0.37804 0.75433 0.0
C427 C 0.56353 0.48604 0.7737 0.0
C428 C 0.55265 0.46882 0.75879 0.0
H429 H 0.50324 0.39347 0.70697 0.0
H430 H 0.53214 0.43185 0.72174 0.0
H431 H 0.50762 0.39551 0.78261 0.0
H432 H 0.47285 0.43086 0.76222 0.0
H433 H 0.48002 0.44042 0.7853 0.0
H434 H 0.46118 0.40899 0.77827 0.0
H435 H 0.48028 0.38938 0.78942 0.0
H436 H 0.50676 0.41292 0.8011 0.0
C437 C 0.57532 0.45779 0.738 0.0
C438 C 0.55548 0.48109 0.7268 0.0
C439 C 0.53718 0.49264 0.8358 0.0
C440 C 0.51725 0.47741 0.84413 0.0
C441 C 0.50074 0.45548 0.83459 0.0
C442 C 0.50359 0.44906 0.81712 0.0
C443 C 0.52331 0.46451 0.80893 0.0
C444 C 0.53986 0.4858 0.81825 0.0
C445 C 0.56007 0.49939 0.80741 0.0
C446 C 0.55243 0.48307 0.7899 0.0
C447 C 0.53089 0.46268 0.79098 0.0
C448 C 0.5815 0.50102 0.81748 0.0
C449 C 0.5624 0.52398 0.80447 0.0
C450 C 0.48009 0.38964 0.74716 0.0
C451 C 0.48221 0.38261 0.72951 0.0
C452 C 0.50113 0.3985 0.72053 0.0
C453 C 0.518 0.42071 0.7292 0.0
C454 C 0.51596 0.42714 0.74706 0.0
C455 C 0.49706 0.41182 0.75562 0.0
C456 C 0.49756 0.42159 0.77449 0.0
C457 C 0.52017 0.44509 0.77605 0.0
C458 C 0.5309 0.44824 0.75999 0.0
C459 C 0.49791 0.40399 0.7877 0.0
C460 C 0.47681 0.42558 0.77531 0.0
H461 H 0.60418 0.53082 0.79189 0.0
H462 H 0.60808 0.50787 0.72802 0.0
H463 H 0.55593 0.49839 0.72974 0.0
H464 H 0.53713 0.46758 0.72392 0.0
H465 H 0.56435 0.48242 0.7144 0.0
H466 H 0.59002 0.46093 0.74747 0.0
H467 H 0.58099 0.45955 0.72415 0.0
H468 H 0.56211 0.43897 0.73914 0.0
H469 H 0.55031 0.50957 0.84267 0.0
H470 H 0.4856 0.44294 0.84072 0.0
H471 H 0.49029 0.43216 0.81072 0.0
H472 H 0.57675 0.48502 0.82503 0.0
H473 H 0.59035 0.51711 0.82737 0.0
H474 H 0.59384 0.50124 0.80822 0.0
H475 H 0.54535 0.52181 0.80043 0.0
H476 H 0.57326 0.53283 0.79358 0.0
H477 H 0.56958 0.53625 0.81706 0.0
H478 H 0.63859 0.555 0.77702 0.0
C479 C 0.60439 0.52535 0.77808 0.0
C480 C 0.61177 0.10062 0.75163 0.0
C481 C 0.62813 0.09498 0.75839 0.0
C482 C 0.62477 0.08385 0.77463 0.0
C483 C 0.58923 0.08417 0.77694 0.0
C484 C 0.59262 0.09513 0.76105 0.0
C485 C 0.57386 0.1002 0.75564 0.0
H486 H 0.47312 0.09286 0.77152 0.0
C487 C 0.56767 0.08119 0.78339 0.0
C488 C 0.55869 0.09066 0.77096 0.0
H489 H 0.51424 0.12289 0.72703 0.0
H490 H 0.5424 0.1139 0.73941 0.0
H491 H 0.48063 0.04695 0.77332 0.0
H492 H 0.5134 0.11733 0.80145 0.0
H493 H 0.51532 0.0988 0.81697 0.0
H494 H 0.48746 0.09325 0.80832 0.0
H495 H 0.46707 0.05696 0.78889 0.0
H496 H 0.48389 0.04408 0.7965 0.0
C497 C 0.56168 0.08561 0.73731 0.0
C498 C 0.58457 0.1277 0.75542 0.0
C499 C 0.53839 0.04113 0.84107 0.0
C500 C 0.51955 0.0372 0.85071 0.0
C501 C 0.50492 0.04529 0.84397 0.0
C502 C 0.50853 0.05636 0.82789 0.0
C503 C 0.52716 0.05985 0.81838 0.0
C504 C 0.54198 0.05267 0.82511 0.0
C505 C 0.56168 0.05932 0.81363 0.0
C506 C 0.55589 0.07119 0.79877 0.0
C507 C 0.5355 0.07117 0.80158 0.0
C508 C 0.56075 0.03599 0.80626 0.0
C509 C 0.58419 0.07724 0.82522 0.0
C510 C 0.48827 0.0977 0.7645 0.0
C511 C 0.49128 0.10845 0.74816 0.0
C512 C 0.51122 0.1142 0.73945 0.0
C513 C 0.52766 0.10909 0.74672 0.0
C514 C 0.52426 0.09811 0.76295 0.0
C515 C 0.5049 0.09277 0.77161 0.0
C516 C 0.50431 0.08147 0.78886 0.0
C517 C 0.52634 0.08057 0.78894 0.0
C518 C 0.5379 0.09028 0.77373 0.0
C519 C 0.48282 0.05606 0.78698 0.0
C520 C 0.50499 0.09838 0.80479 0.0
H521 H 0.60375 0.06979 0.79613 0.0
H522 H 0.61397 0.1095 0.73934 0.0
H523 H 0.59897 0.13746 0.76616 0.0
H524 H 0.57242 0.13389 0.75831 0.0
H525 H 0.59146 0.13372 0.74227 0.0
H526 H 0.56086 0.06795 0.73651 0.0
H527 H 0.57099 0.0953 0.72586 0.0
H528 H 0.54365 0.08116 0.73524 0.0
H529 H 0.5501 0.0353 0.84572 0.0
H530 H 0.49077 0.04346 0.85126 0.0
H531 H 0.49668 0.06192 0.82357 0.0
H532 H 0.54277 0.02177 0.80198 0.0
H533 H 0.56767 0.02912 0.81675 0.0
H534 H 0.57013 0.0382 0.79416 0.0
H535 H 0.58136 0.08904 0.83488 0.0
H536 H 0.59767 0.08969 0.8171 0.0
H537 H 0.59092 0.06769 0.83319 0.0
H538 H 0.63701 0.07912 0.78006 0.0
C539 C 0.60541 0.07837 0.78391 0.0
C540 C 0.83575 0.56912 0.91909 0.0
C541 C 0.85666 0.5745 0.91234 0.0
C542 C 0.86316 0.58737 0.89696 0.0
C543 C 0.82803 0.58901 0.89527 0.0
C544 C 0.82184 0.57657 0.91044 0.0
C545 C 0.79932 0.57262 0.91616 0.0
H546 H 0.70704 0.58632 0.903 0.0
C547 C 0.80969 0.5941 0.88962 0.0
C548 C 0.79291 0.58463 0.90188 0.0
H549 H 0.72256 0.55178 0.9452 0.0
H550 H 0.75779 0.56087 0.93279 0.0
H551 H 0.75797 0.63145 0.90338 0.0
H552 H 0.72347 0.56398 0.8705 0.0
H553 H 0.73867 0.58675 0.85641 0.0
H554 H 0.71605 0.58683 0.86817 0.0
H555 H 0.7356 0.62455 0.88602 0.0
H556 H 0.7651 0.63724 0.88113 0.0
C557 C 0.8037 0.58571 0.93527 0.0
C558 C 0.78237 0.54521 0.91488 0.0
C559 C 0.81479 0.63634 0.83302 0.0
C560 C 0.80019 0.64289 0.82405 0.0
C561 C 0.77996 0.63852 0.83175 0.0
C562 C 0.77419 0.62745 0.84788 0.0
C563 C 0.78874 0.62057 0.85645 0.0
C564 C 0.80877 0.62527 0.84908 0.0
C565 C 0.82216 0.61667 0.85996 0.0
C566 C 0.80677 0.6058 0.87497 0.0
C567 C 0.78717 0.60807 0.87285 0.0
C568 C 0.84554 0.63876 0.86717 0.0
C569 C 0.82398 0.59751 0.84791 0.0
C570 C 0.71799 0.5806 0.90947 0.0
C571 C 0.71205 0.56847 0.92521 0.0
C572 C 0.72689 0.56152 0.93328 0.0
C573 C 0.74733 0.56669 0.92597 0.0
C574 C 0.75313 0.57892 0.91034 0.0
C575 C 0.73859 0.58567 0.90231 0.0
C576 C 0.74775 0.59857 0.88576 0.0
C577 C 0.77019 0.59852 0.88531 0.0
C578 C 0.77313 0.58691 0.89972 0.0
C579 C 0.75173 0.62428 0.88905 0.0
C580 C 0.73064 0.58348 0.86927 0.0
H581 H 0.85478 0.60423 0.87666 0.0
H582 H 0.83044 0.55961 0.93107 0.0
H583 H 0.78537 0.5359 0.90324 0.0
H584 H 0.76427 0.54041 0.91241 0.0
H585 H 0.78443 0.5374 0.92728 0.0
H586 H 0.82097 0.60211 0.93719 0.0
H587 H 0.80281 0.57399 0.94594 0.0
H588 H 0.7917 0.59228 0.93767 0.0
H589 H 0.83029 0.63907 0.82739 0.0
H590 H 0.76853 0.64362 0.82527 0.0
H591 H 0.75851 0.6245 0.85297 0.0
H592 H 0.84381 0.65481 0.87012 0.0
H593 H 0.85836 0.64324 0.85713 0.0
H594 H 0.85252 0.63632 0.8801 0.0
H595 H 0.8077 0.58591 0.83929 0.0
H596 H 0.82684 0.58506 0.85572 0.0
H597 H 0.83792 0.60602 0.83884 0.0
H598 H 0.87914 0.5916 0.89144 0.0
C599 C 0.84895 0.59461 0.88836 0.0
C600 C 0.438 0.15122 0.93274 0.0
C601 C 0.43423 0.12969 0.92375 0.0
C602 C 0.42455 0.12358 0.90568 0.0
C603 C 0.42313 0.16034 0.9058 0.0
C604 C 0.43235 0.16616 0.92357 0.0
C605 C 0.43572 0.18986 0.93111 0.0
H606 H 0.4293 0.28928 0.91844 0.0
C607 C 0.4197 0.18 0.90014 0.0
C608 C 0.42698 0.1973 0.91496 0.0
H609 H 0.45479 0.27259 0.9667 0.0
H610 H 0.44595 0.23446 0.95182 0.0
H611 H 0.45278 0.27154 0.89148 0.0
H612 H 0.38479 0.23655 0.90887 0.0
H613 H 0.38194 0.22817 0.88565 0.0
H614 H 0.39399 0.25939 0.89348 0.0
H615 H 0.4314 0.27847 0.88366 0.0
H616 H 0.4342 0.25482 0.87235 0.0
C617 C 0.4617 0.20703 0.9363 0.0
C618 C 0.42054 0.1853 0.947 0.0
C619 C 0.38976 0.17775 0.83543 0.0
C620 C 0.38562 0.19394 0.82633 0.0
C621 C 0.38881 0.21483 0.83612 0.0
C622 C 0.3965 0.21985 0.85446 0.0
C623 C 0.40115 0.20387 0.86326 0.0
C624 C 0.39754 0.1831 0.85384 0.0
C625 C 0.40337 0.16826 0.86557 0.0
C626 C 0.41131 0.18375 0.88346 0.0
C627 C 0.41 0.20459 0.88195 0.0
C628 C 0.42302 0.1661 0.85755 0.0
C629 C 0.3812 0.14397 0.86678 0.0
C630 C 0.43268 0.27727 0.92589 0.0
C631 C 0.44273 0.28395 0.94378 0.0
C632 C 0.44725 0.26796 0.95286 0.0
C633 C 0.44203 0.24579 0.94421 0.0
C634 C 0.4323 0.23953 0.92622 0.0
C635 C 0.42771 0.25515 0.91742 0.0
C636 C 0.41786 0.24584 0.89823 0.0
C637 C 0.41729 0.22204 0.89694 0.0
C638 C 0.42573 0.21841 0.91336 0.0
C639 C 0.43471 0.26353 0.88566 0.0
C640 C 0.39343 0.2424 0.89627 0.0
H641 H 0.41171 0.13312 0.88295 0.0
H642 H 0.4457 0.15665 0.94652 0.0
H643 H 0.4039 0.16827 0.94405 0.0
H644 H 0.41586 0.19924 0.94948 0.0
H645 H 0.4291 0.18389 0.95962 0.0
H646 H 0.47213 0.20352 0.92684 0.0
H647 H 0.46683 0.20472 0.95012 0.0
H648 H 0.467 0.22607 0.9354 0.0
H649 H 0.38751 0.16156 0.8283 0.0
H650 H 0.38525 0.22733 0.82958 0.0
H651 H 0.39868 0.2361 0.86104 0.0
H652 H 0.43554 0.18326 0.85235 0.0
H653 H 0.4163 0.15189 0.84614 0.0
H654 H 0.43321 0.16247 0.8676 0.0
H655 H 0.36598 0.14633 0.86685 0.0
H656 H 0.38132 0.13582 0.87941 0.0
H657 H 0.37817 0.13103 0.85509 0.0
H658 H 0.42117 0.10697 0.8985 0.0
C659 C 0.41896 0.13875 0.89669 0.0
C660 C 0.72458 0.15828 0.92618 0.0
C661 C 0.70608 0.13735 0.91721 0.0
C662 C 0.70745 0.13065 0.8992 0.0
C663 C 0.74559 0.16542 0.89952 0.0
C664 C 0.74393 0.1721 0.91708 0.0
C665 C 0.76442 0.19558 0.92442 0.0
H666 H 0.86657 0.29176 0.91167 0.0
C667 C 0.76794 0.18395 0.89399 0.0
C668 C 0.77888 0.20176 0.90852 0.0
H669 H 0.8285 0.27912 0.9587 0.0
H670 H 0.79934 0.24044 0.9446 0.0
H671 H 0.85902 0.23918 0.90556 0.0
H672 H 0.82415 0.27317 0.8828 0.0
H673 H 0.82585 0.25538 0.86499 0.0
H674 H 0.85187 0.27937 0.87689 0.0
H675 H 0.87043 0.25939 0.88838 0.0
H676 H 0.85126 0.22764 0.88287 0.0
C677 C 0.77616 0.19104 0.94093 0.0
C678 C 0.75624 0.21374 0.92861 0.0
C679 C 0.79396 0.17445 0.83237 0.0
C680 C 0.81414 0.18888 0.82407 0.0
C681 C 0.83102 0.21084 0.83333 0.0
C682 C 0.82821 0.21812 0.85053 0.0
C683 C 0.80821 0.20346 0.85874 0.0
C684 C 0.7914 0.18207 0.84971 0.0
C685 C 0.77121 0.16912 0.86069 0.0
C686 C 0.77902 0.18609 0.87787 0.0
C687 C 0.80068 0.20617 0.87652 0.0
C688 C 0.7687 0.14461 0.86427 0.0
C689 C 0.74986 0.16735 0.85038 0.0
C690 C 0.85189 0.28073 0.9189 0.0
C691 C 0.84979 0.28863 0.93628 0.0
C692 C 0.83063 0.27343 0.94535 0.0
C693 C 0.81361 0.25104 0.93707 0.0
C694 C 0.8157 0.24369 0.9195 0.0
C695 C 0.83474 0.25838 0.91082 0.0
C696 C 0.83424 0.24768 0.89228 0.0
C697 C 0.81148 0.22436 0.89106 0.0
C698 C 0.80069 0.22211 0.90701 0.0
C699 C 0.85482 0.24333 0.89207 0.0
C700 C 0.83418 0.26472 0.87841 0.0
H701 H 0.72731 0.13842 0.87668 0.0
H702 H 0.72378 0.16409 0.9399 0.0
H703 H 0.74135 0.21003 0.91912 0.0
H704 H 0.76936 0.2324 0.92684 0.0
H705 H 0.75085 0.21283 0.94252 0.0
H706 H 0.7759 0.17377 0.9385 0.0
H707 H 0.7672 0.19008 0.95322 0.0
H708 H 0.79445 0.20475 0.94377 0.0
H709 H 0.78062 0.1575 0.82566 0.0
H710 H 0.84644 0.22266 0.82716 0.0
H711 H 0.84177 0.235 0.85674 0.0
H712 H 0.78575 0.14667 0.86812 0.0
H713 H 0.76101 0.13176 0.852 0.0
H714 H 0.75827 0.13649 0.87553 0.0
H715 H 0.75468 0.18334 0.84281 0.0
H716 H 0.73733 0.16704 0.85947 0.0
H717 H 0.74121 0.15126 0.84049 0.0
H718 H 0.69333 0.11457 0.89205 0.0
C719 C 0.72718 0.14449 0.89034 0.0
C720 C 0.56463 0.84746 0.06874 0.0
C721 C 0.56935 0.86956 0.07732 0.0
C722 C 0.58068 0.87673 0.09487 0.0
C723 C 0.58151 0.83969 0.09523 0.0
C724 C 0.57087 0.83292 0.07788 0.0
C725 C 0.56687 0.80882 0.07072 0.0
H726 H 0.57383 0.70993 0.0846 0.0
C727 C 0.58505 0.82018 0.10108 0.0
C728 C 0.57661 0.8021 0.08671 0.0
H729 H 0.54635 0.72471 0.03643 0.0
H730 H 0.5556 0.7633 0.05072 0.0
H731 H 0.61869 0.76328 0.09283 0.0
H732 H 0.55147 0.72811 0.11161 0.0
H733 H 0.57009 0.74663 0.13018 0.0
H734 H 0.57365 0.72277 0.12016 0.0
H735 H 0.60963 0.74002 0.10785 0.0
H736 H 0.62206 0.77108 0.1162 0.0
C737 C 0.58082 0.8123 0.05414 0.0
C738 C 0.54069 0.7917 0.06669 0.0
C739 C 0.61819 0.82515 0.16517 0.0
C740 C 0.62185 0.80892 0.17463 0.0
C741 C 0.61737 0.78719 0.16544 0.0
C742 C 0.60898 0.78146 0.14723 0.0
C743 C 0.60483 0.79753 0.13806 0.0
C744 C 0.60956 0.81903 0.14696 0.0
C745 C 0.60351 0.83355 0.13507 0.0
C746 C 0.59425 0.81711 0.11764 0.0
C747 C 0.59513 0.79609 0.11952 0.0
C748 C 0.6258 0.85726 0.13275 0.0
C749 C 0.58477 0.83688 0.14365 0.0
C750 C 0.57009 0.72162 0.07703 0.0
C751 C 0.55943 0.71431 0.05934 0.0
C752 C 0.5544 0.72986 0.05012 0.0
C753 C 0.55987 0.7523 0.05843 0.0
C754 C 0.57035 0.75924 0.07619 0.0
C755 C 0.57532 0.74398 0.08515 0.0
C756 C 0.58599 0.754 0.10406 0.0
C757 C 0.58682 0.77792 0.10496 0.0
C758 C 0.57764 0.78091 0.08863 0.0
C759 C 0.61032 0.75718 0.1055 0.0
C760 C 0.56968 0.73705 0.1173 0.0
H761 H 0.59514 0.8683 0.11725 0.0
H762 H 0.55628 0.84158 0.05516 0.0
H763 H 0.53113 0.79538 0.07691 0.0
H764 H 0.53547 0.77266 0.06741 0.0
H765 H 0.53455 0.79395 0.05322 0.0
H766 H 0.59738 0.82957 0.05607 0.0
H767 H 0.57123 0.81258 0.04168 0.0
H768 H 0.58567 0.79846 0.05192 0.0
H769 H 0.62132 0.84191 0.17193 0.0
H770 H 0.62036 0.77456 0.17239 0.0
H771 H 0.60582 0.76459 0.14108 0.0
H772 H 0.64066 0.85434 0.1323 0.0
H773 H 0.62981 0.87095 0.14415 0.0
H774 H 0.6251 0.86476 0.1199 0.0
H775 H 0.57247 0.82034 0.14967 0.0
H776 H 0.57413 0.84013 0.13377 0.0
H777 H 0.59244 0.85181 0.15455 0.0
H778 H 0.58437 0.89358 0.10184 0.0
C779 C 0.58678 0.86194 0.10386 0.0
C780 C 0.27919 0.84289 0.08091 0.0
C781 C 0.29657 0.86503 0.08938 0.0
C782 C 0.2931 0.87347 0.10611 0.0
C783 C 0.25568 0.83767 0.10578 0.0
C784 C 0.259 0.82965 0.08926 0.0
C785 C 0.23888 0.80591 0.08186 0.0
H786 H 0.13447 0.71157 0.09234 0.0
C787 C 0.23289 0.81942 0.11079 0.0
C788 C 0.22298 0.80084 0.09672 0.0
H789 H 0.17537 0.72208 0.04728 0.0
H790 H 0.2044 0.7608 0.06147 0.0
H791 H 0.17526 0.73012 0.12268 0.0
H792 H 0.14267 0.76445 0.09673 0.0
H793 H 0.1488 0.77596 0.11946 0.0
H794 H 0.12978 0.74423 0.11369 0.0
H795 H 0.14758 0.72498 0.12771 0.0
H796 H 0.17361 0.74896 0.13962 0.0
C797 C 0.24712 0.78748 0.08002 0.0
C798 C 0.22874 0.80948 0.06394 0.0
C799 C 0.20463 0.82956 0.17118 0.0
C800 C 0.18422 0.81508 0.17919 0.0
C801 C 0.16735 0.79335 0.16967 0.0
C802 C 0.17055 0.78614 0.15259 0.0
C803 C 0.19092 0.80067 0.14477 0.0
C804 C 0.20756 0.82203 0.15395 0.0
C805 C 0.22804 0.83504 0.14326 0.0
C806 C 0.22089 0.81783 0.1263 0.0
C807 C 0.19914 0.79775 0.12737 0.0
C808 C 0.24925 0.83733 0.15418 0.0
C809 C 0.23027 0.85931 0.13916 0.0
C810 C 0.14974 0.72213 0.08557 0.0
C811 C 0.15266 0.71366 0.06871 0.0
C812 C 0.17261 0.72825 0.06021 0.0
C813 C 0.18953 0.75067 0.06854 0.0
C814 C 0.18651 0.75867 0.08557 0.0
C815 C 0.16676 0.74451 0.09368 0.0
C816 C 0.16632 0.7558 0.1117 0.0
C817 C 0.18915 0.77905 0.11315 0.0
C818 C 0.20094 0.78062 0.09787 0.0
C819 C 0.16549 0.73917 0.12628 0.0
C820 C 0.14579 0.76027 0.11053 0.0
H821 H 0.27124 0.8672 0.12714 0.0
H822 H 0.28112 0.83609 0.06791 0.0
H823 H 0.2304 0.82752 0.06445 0.0
H824 H 0.21016 0.79677 0.06111 0.0
H825 H 0.23775 0.80791 0.05234 0.0
H826 H 0.25981 0.7906 0.09148 0.0
H827 H 0.25551 0.78891 0.06734 0.0
H828 H 0.23321 0.76881 0.08046 0.0
H829 H 0.21789 0.84642 0.17807 0.0
H830 H 0.15171 0.78157 0.1756 0.0
H831 H 0.15702 0.76937 0.1462 0.0
H832 H 0.2447 0.82051 0.16053 0.0
H833 H 0.25603 0.85217 0.16513 0.0
H834 H 0.26319 0.84021 0.14575 0.0
H835 H 0.21308 0.85746 0.13657 0.0
H836 H 0.23892 0.86607 0.12683 0.0
H837 H 0.23957 0.87312 0.1507 0.0
H838 H 0.30627 0.89043 0.11295 0.0
C839 C 0.2728 0.8599 0.11437 0.0
C840 C 0.28221 0.43565 0.08508 0.0
C841 C 0.29949 0.43186 0.09263 0.0
C842 C 0.29644 0.42134 0.10913 0.0
C843 C 0.25969 0.4193 0.11042 0.0
C844 C 0.26264 0.42932 0.09414 0.0
C845 C 0.24292 0.43247 0.08786 0.0
H846 H 0.14443 0.42933 0.10469 0.0
C847 C 0.2376 0.41536 0.11642 0.0
C848 C 0.22779 0.42313 0.10323 0.0
H849 H 0.18025 0.44835 0.05628 0.0
H850 H 0.20837 0.4398 0.0691 0.0
H851 H 0.14606 0.38226 0.10638 0.0
H852 H 0.18869 0.45228 0.13412 0.0
H853 H 0.18243 0.43108 0.15 0.0
H854 H 0.15936 0.43264 0.13818 0.0
H855 H 0.13779 0.39176 0.12625 0.0
H856 H 0.15479 0.37735 0.12751 0.0
C857 C 0.23136 0.41661 0.06985 0.0
C858 C 0.25224 0.4596 0.08659 0.0
C859 C 0.20973 0.37856 0.17545 0.0
C860 C 0.18977 0.3728 0.18408 0.0
C861 C 0.17397 0.37877 0.1764 0.0
C862 C 0.17765 0.38978 0.16029 0.0
C863 C 0.19734 0.39496 0.15162 0.0
C864 C 0.21309 0.38951 0.15922 0.0
C865 C 0.23296 0.39636 0.14789 0.0
C866 C 0.22619 0.40625 0.13213 0.0
C867 C 0.20535 0.40547 0.1345 0.0
C868 C 0.23351 0.37337 0.14187 0.0
C869 C 0.25503 0.41591 0.1591 0.0
C870 C 0.15816 0.43151 0.0967 0.0
C871 C 0.16014 0.44008 0.07949 0.0
C872 C 0.17851 0.44258 0.06977 0.0
C873 C 0.1948 0.43735 0.07717 0.0
C874 C 0.19272 0.42921 0.09445 0.0
C875 C 0.17438 0.42594 0.10375 0.0
C876 C 0.17408 0.41549 0.12138 0.0
C877 C 0.19564 0.41366 0.12129 0.0
C878 C 0.20662 0.42206 0.10561 0.0
C879 C 0.15204 0.3905 0.12052 0.0
C880 C 0.17609 0.43363 0.13683 0.0
H881 H 0.2754 0.40728 0.13062 0.0
H882 H 0.28378 0.44324 0.07225 0.0
H883 H 0.26471 0.47035 0.09838 0.0
H884 H 0.23883 0.46456 0.08681 0.0
H885 H 0.26121 0.46557 0.07418 0.0
H886 H 0.23396 0.40091 0.06882 0.0
H887 H 0.23848 0.42688 0.05804 0.0
H888 H 0.21252 0.40867 0.06862 0.0
H889 H 0.22217 0.37419 0.181 0.0
H890 H 0.15873 0.37502 0.18294 0.0
H891 H 0.16493 0.39379 0.15521 0.0
H892 H 0.21582 0.35802 0.13835 0.0
H893 H 0.24168 0.36839 0.15282 0.0
H894 H 0.24247 0.37501 0.1296 0.0
H895 H 0.25147 0.42829 0.16744 0.0
H896 H 0.26849 0.42757 0.15064 0.0
H897 H 0.26207 0.40781 0.16838 0.0
H898 H 0.30955 0.41833 0.11529 0.0
C899 C 0.27666 0.41507 0.11807 0.0
C900 C 0.50254 0.90665 0.25846 0.0
C901 C 0.52422 0.91286 0.25278 0.0
C902 C 0.5309 0.9249 0.237 0.0
C903 C 0.49447 0.92357 0.23268 0.0
C904 C 0.48814 0.91229 0.24834 0.0
C905 C 0.46479 0.90728 0.25276 0.0
H906 H 0.3695 0.91372 0.23246 0.0
C907 C 0.47534 0.92642 0.22523 0.0
C908 C 0.458 0.91709 0.23701 0.0
H909 H 0.38645 0.8862 0.27887 0.0
H910 H 0.42215 0.89498 0.26753 0.0
H911 H 0.42002 0.95997 0.23126 0.0
H912 H 0.38836 0.88932 0.20297 0.0
H913 H 0.40327 0.91053 0.18771 0.0
H914 H 0.37962 0.91056 0.19783 0.0
H915 H 0.39684 0.94961 0.21391 0.0
H916 H 0.42617 0.96289 0.20856 0.0
C917 C 0.4676 0.92163 0.27102 0.0
C918 C 0.44908 0.87975 0.2526 0.0
C919 C 0.48092 0.96242 0.16556 0.0
C920 C 0.4661 0.96718 0.15493 0.0
C921 C 0.44463 0.96136 0.16101 0.0
C922 C 0.43816 0.95111 0.17742 0.0
C923 C 0.45326 0.94657 0.18789 0.0
C924 C 0.47423 0.95223 0.18185 0.0
C925 C 0.48817 0.94619 0.19459 0.0
C926 C 0.47212 0.93584 0.20927 0.0
C927 C 0.45166 0.93607 0.20533 0.0
C928 C 0.51045 0.96976 0.2016 0.0
C929 C 0.49213 0.92714 0.18451 0.0
C930 C 0.38089 0.90948 0.24008 0.0
C931 C 0.37524 0.89951 0.25672 0.0
C932 C 0.39057 0.89433 0.26623 0.0
C933 C 0.41131 0.89934 0.25957 0.0
C934 C 0.41695 0.90969 0.24316 0.0
C935 C 0.40186 0.9145 0.2336 0.0
C936 C 0.41104 0.92561 0.21641 0.0
C937 C 0.4342 0.92694 0.21745 0.0
C938 C 0.43743 0.9175 0.23315 0.0
C939 C 0.41358 0.95081 0.2174 0.0
C940 C 0.39475 0.90831 0.20029 0.0
H941 H 0.52224 0.93926 0.21501 0.0
H942 H 0.49663 0.8972 0.27038 0.0
H943 H 0.45296 0.87021 0.2417 0.0
H944 H 0.43072 0.87372 0.24972 0.0
H945 H 0.45156 0.87336 0.26561 0.0
H946 H 0.48465 0.93832 0.27312 0.0
H947 H 0.4661 0.9109 0.28256 0.0
H948 H 0.45516 0.92795 0.27172 0.0
H949 H 0.49735 0.96624 0.1612 0.0
H950 H 0.43294 0.96499 0.15318 0.0
H951 H 0.42167 0.94719 0.18135 0.0
H952 H 0.50756 0.98527 0.2023 0.0
H953 H 0.52431 0.9738 0.1926 0.0
H954 H 0.51668 0.96943 0.21554 0.0
H955 H 0.47643 0.91386 0.17588 0.0
H956 H 0.49589 0.91645 0.19367 0.0
H957 H 0.50628 0.93561 0.17563 0.0
H958 H 0.54763 0.93039 0.23244 0.0
C959 C 0.51616 0.93021 0.22692 0.0
C960 C 0.10357 0.48623 0.26811 0.0
C961 C 0.0996 0.46437 0.25966 0.0
C962 C 0.08893 0.45712 0.24189 0.0
C963 C 0.0874 0.49378 0.24109 0.0
C964 C 0.09731 0.50051 0.25867 0.0
C965 C 0.10058 0.52431 0.26575 0.0
H966 H 0.09297 0.62254 0.25129 0.0
C967 C 0.08362 0.51306 0.23501 0.0
C968 C 0.09116 0.53089 0.2495 0.0
H969 H 0.11926 0.60751 0.29997 0.0
H970 H 0.11042 0.56906 0.28575 0.0
H971 H 0.11626 0.60419 0.22469 0.0
H972 H 0.04857 0.56967 0.2426 0.0
H973 H 0.04541 0.5605 0.21951 0.0
H974 H 0.05747 0.5919 0.22671 0.0
H975 H 0.09466 0.61063 0.21656 0.0
H976 H 0.0976 0.58677 0.2058 0.0
C977 C 0.12661 0.54184 0.27036 0.0
C978 C 0.08589 0.52027 0.28192 0.0
C979 C 0.05356 0.50917 0.16996 0.0
C980 C 0.04947 0.52519 0.16055 0.0
C981 C 0.05239 0.54611 0.17008 0.0
C982 C 0.05989 0.55142 0.18845 0.0
C983 C 0.06462 0.53572 0.19754 0.0
C984 C 0.06117 0.51483 0.18841 0.0
C985 C 0.06704 0.50032 0.2005 0.0
C986 C 0.07496 0.51621 0.2182 0.0
C987 C 0.07354 0.53693 0.2163 0.0
C988 C 0.08671 0.49799 0.19271 0.0
C989 C 0.04492 0.47608 0.20195 0.0
C990 C 0.09653 0.61082 0.25898 0.0
C991 C 0.10681 0.61806 0.27678 0.0
C992 C 0.11155 0.60244 0.28618 0.0
C993 C 0.10633 0.58008 0.27791 0.0
C994 C 0.09638 0.57327 0.25999 0.0
C995 C 0.09155 0.58852 0.25088 0.0
C996 C 0.08148 0.5786 0.23182 0.0
C997 C 0.08097 0.55483 0.23098 0.0
C998 C 0.08972 0.55181 0.24749 0.0
C999 C 0.09814 0.59588 0.21893 0.0
C1000 C 0.05701 0.57507 0.22987 0.0
H1001 H 0.07504 0.46537 0.21901 0.0
H1002 H 0.11139 0.49212 0.28185 0.0
H1003 H 0.0696 0.50275 0.27971 0.0
H1004 H 0.08047 0.53371 0.28384 0.0
H1005 H 0.09518 0.52021 0.29463 0.0
H1006 H 0.13678 0.53835 0.26062 0.0
H1007 H 0.13232 0.53986 0.28408 0.0
H1008 H 0.1316 0.56078 0.26937 0.0
H1009 H 0.05145 0.49294 0.16304 0.0
H1010 H 0.04882 0.55846 0.16329 0.0
H1011 H 0.0619 0.56772 0.1948 0.0
H1012 H 0.09959 0.51525 0.18788 0.0
H1013 H 0.08007 0.48408 0.18108 0.0
H1014 H 0.09638 0.49374 0.20277 0.0
H1015 H 0.02961 0.4783 0.20157 0.0
H1016 H 0.04497 0.46847 0.21487 0.0
H1017 H 0.04212 0.46276 0.19061 0.0
H1018 H 0.08578 0.4404 0.23506 0.0
C1019 C 0.08284 0.47171 0.23256 0.0
C1020 C 0.39228 0.49096 0.26116 0.0
C1021 C 0.37442 0.46976 0.25183 0.0
C1022 C 0.37728 0.46316 0.2342 0.0
C1023 C 0.41496 0.49877 0.23547 0.0
C1024 C 0.41225 0.50502 0.25282 0.0
C1025 C 0.43266 0.52806 0.26099 0.0
H1026 H 0.53573 0.62517 0.25205 0.0
C1027 C 0.43756 0.51766 0.23065 0.0
C1028 C 0.448 0.53481 0.24562 0.0
H1029 H 0.4972 0.60762 0.29901 0.0
H1030 H 0.4679 0.5705 0.28308 0.0
H1031 H 0.52735 0.57131 0.24254 0.0
H1032 H 0.49423 0.60904 0.22344 0.0
H1033 H 0.49493 0.59201 0.20461 0.0
H1034 H 0.5215 0.61497 0.21657 0.0
H1035 H 0.54028 0.59504 0.22803 0.0
H1036 H 0.52149 0.56432 0.21907 0.0
C1037 C 0.44331 0.52251 0.27767 0.0
C1038 C 0.42466 0.54634 0.26516 0.0
C1039 C 0.46295 0.51365 0.16789 0.0
C1040 C 0.48235 0.52953 0.15941 0.0
C1041 C 0.49947 0.55077 0.16931 0.0
C1042 C 0.49732 0.55627 0.18727 0.0
C1043 C 0.47775 0.54045 0.19551 0.0
C1044 C 0.46094 0.51956 0.18586 0.0
C1045 C 0.44107 0.50532 0.19679 0.0
C1046 C 0.44887 0.52104 0.21456 0.0
C1047 C 0.47041 0.54155 0.2137 0.0
C1048 C 0.43921 0.48075 0.19895 0.0
C1049 C 0.41938 0.50373 0.18725 0.0
C1050 C 0.52116 0.61318 0.25901 0.0
C1051 C 0.51878 0.61951 0.27682 0.0
C1052 C 0.49932 0.60344 0.28522 0.0
C1053 C 0.48234 0.58179 0.27596 0.0
C1054 C 0.48473 0.57601 0.25805 0.0
C1055 C 0.50403 0.59145 0.24996 0.0
C1056 C 0.5037 0.58228 0.23088 0.0
C1057 C 0.48096 0.55883 0.22886 0.0
C1058 C 0.46989 0.55535 0.24477 0.0
C1059 C 0.52431 0.57811 0.22989 0.0
C1060 C 0.50375 0.60047 0.2181 0.0
H1061 H 0.39853 0.47151 0.21257 0.0
H1062 H 0.39065 0.49682 0.27462 0.0
H1063 H 0.41183 0.54461 0.25432 0.0
H1064 H 0.43863 0.56516 0.26573 0.0
H1065 H 0.41652 0.54336 0.27808 0.0
H1066 H 0.44079 0.50412 0.27584 0.0
H1067 H 0.43534 0.52366 0.29008 0.0
H1068 H 0.46209 0.53442 0.27996 0.0
H1069 H 0.44943 0.49729 0.16057 0.0
H1070 H 0.51469 0.56313 0.16316 0.0
H1071 H 0.51096 0.57272 0.19399 0.0
H1072 H 0.45653 0.48275 0.2009 0.0
H1073 H 0.43 0.46808 0.18678 0.0
H1074 H 0.43063 0.47246 0.21096 0.0
H1075 H 0.42367 0.52075 0.18131 0.0
H1076 H 0.40629 0.50111 0.19655 0.0
H1077 H 0.41154 0.48907 0.17614 0.0
H1078 H 0.36399 0.44676 0.22676 0.0
C1079 C 0.39742 0.47751 0.22599 0.0
Tb1080 Tb 0.52753 0.01997 1.00012 0.0
C1081 C 0.51689 0.97321 0.01831 0.0
Tb1082 Tb 0.47716 0.9846 0.00839 0.0
O1083 O 0.53877 0.03049 0.02897 0.0
O1084 O 0.505 0.01808 0.01941 0.0
O1085 O 0.53067 0.98976 0.00803 0.0
C1086 C 0.43927 0.95931 0.02511 0.0
O1087 O 0.49643 0.96991 0.02166 0.0
C1088 C 0.48605 0.98092 0.97481 0.0
C1089 C 0.48691 0.02978 0.9886 0.0
O1090 O 0.44571 0.95087 0.01184 0.0
O1091 O 0.45403 0.9819 0.02879 0.0
O1092 O 0.46552 0.97366 0.9796 0.0
O1093 O 0.49962 0.98691 0.98886 0.0
O1094 O 0.47308 0.01369 0.99916 0.0
O1095 O 0.50751 0.03308 0.98562 0.0
C1096 C 0.56652 0.04583 0.98471 0.0
O1097 O 0.55407 0.05404 0.99127 0.0
O1098 O 0.55705 0.02318 0.98688 0.0
C1099 C 0.51826 0.02369 0.03353 0.0
Tb1100 Tb 0.98418 0.5111 0.99638 0.0
C1101 C 0.0334 0.54792 0.01398 0.0
Tb1102 Tb 0.01781 0.49282 0.00602 0.0
O1103 O 0.98321 0.52067 0.0248 0.0
O1104 O 0.99004 0.49346 0.0174 0.0
O1105 O 0.01582 0.54507 0.00315 0.0
C1106 C 0.04683 0.48179 0.02255 0.0
O1107 O 0.03562 0.52961 0.0187 0.0
C1108 C 0.0129 0.49827 0.97173 0.0
C1109 C 0.96794 0.45543 0.98988 0.0
O1110 O 0.05262 0.50026 0.01347 0.0
O1111 O 0.02467 0.46941 0.02225 0.0
O1112 O 0.0206 0.48478 0.97747 0.0
O1113 O 0.0117 0.51018 0.9851 0.0
O1114 O 0.98621 0.45869 0.99999 0.0
O1115 O 0.96502 0.47346 0.98544 0.0
C1116 C 0.95754 0.52474 0.97928 0.0
O1117 O 0.95128 0.50979 0.99164 0.0
O1118 O 0.97876 0.53206 0.97664 0.0
C1119 C 0.98954 0.50609 0.03065 0.0
Tb1120 Tb 0.4765 0.48999 0.00734 0.0
C1121 C 0.48927 0.45173 0.99384 0.0
Tb1122 Tb 0.527 0.50765 0.99914 0.0
O1123 O 0.46394 0.47948 0.9786 0.0
O1124 O 0.49769 0.50606 0.98653 0.0
O1125 O 0.47447 0.45557 0.00238 0.0
C1126 C 0.56526 0.52002 0.98311 0.0
O1127 O 0.50955 0.46933 0.99001 0.0
C1128 C 0.5194 0.50525 0.03327 0.0
C1129 C 0.51381 0.54579 0.01228 0.0
O1130 O 0.5591 0.50745 0.99693 0.0
O1131 O 0.54993 0.52565 0.97839 0.0
O1132 O 0.53916 0.51975 0.02761 0.0
O1133 O 0.50598 0.49154 0.02006 0.0
O1134 O 0.52839 0.54189 0.00344 0.0
O1135 O 0.49385 0.52819 0.01663 0.0
C1136 C 0.4391 0.47803 0.02461 0.0
O1137 O 0.44404 0.48948 0.01018 0.0
O1138 O 0.45508 0.4733 0.02912 0.0
C1139 C 0.48414 0.49301 0.9732 0.0
Tb1140 Tb 0.19127 0.34966 0.32946 0.0
C1141 C 0.18031 0.30224 0.34669 0.0
Tb1142 Tb 0.14159 0.31644 0.3391 0.0
O1143 O 0.20292 0.35809 0.35832 0.0
O1144 O 0.16987 0.34968 0.34929 0.0
O1145 O 0.19478 0.31967 0.33731 0.0
C1146 C 0.10509 0.29237 0.35765 0.0
O1147 O 0.15953 0.29853 0.34952 0.0
C1148 C 0.14872 0.31048 0.30539 0.0
C1149 C 0.15308 0.36363 0.32179 0.0
O1150 O 0.126 0.29861 0.36304 0.0
O1151 O 0.10466 0.2994 0.34172 0.0
O1152 O 0.12862 0.30404 0.31073 0.0
O1153 O 0.16263 0.31646 0.31916 0.0
O1154 O 0.14069 0.34879 0.33366 0.0
O1155 O 0.1722 0.36493 0.31673 0.0
C1156 C 0.22913 0.37534 0.31283 0.0
O1157 O 0.22383 0.3828 0.32735 0.0
O1158 O 0.21318 0.3535 0.30778 0.0
C1159 C 0.18312 0.35386 0.36318 0.0
Tb1160 Tb 0.64745 0.84207 0.33408 0.0
C1161 C 0.69987 0.8829 0.34298 0.0
Tb1162 Tb 0.68644 0.82817 0.34015 0.0
O1163 O 0.63394 0.82782 0.35959 0.0
O1164 O 0.66831 0.84065 0.35552 0.0
O1165 O 0.67884 0.8772 0.33648 0.0
C1166 C 0.71455 0.81606 0.35655 0.0
O1167 O 0.70593 0.86685 0.34688 0.0
C1168 C 0.67718 0.83142 0.30587 0.0
C1169 C 0.6344 0.78762 0.32908 0.0
O1170 O 0.71987 0.83081 0.34406 0.0
O1171 O 0.69333 0.80804 0.35978 0.0
O1172 O 0.69245 0.82588 0.3112 0.0
O1173 O 0.66919 0.83482 0.31975 0.0
O1174 O 0.65502 0.79302 0.33644 0.0
O1175 O 0.62853 0.80393 0.32568 0.0
C1176 C 0.62088 0.85725 0.31914 0.0
O1177 O 0.62652 0.84286 0.31121 0.0
O1178 O 0.63018 0.8632 0.3357 0.0
C1179 C 0.6532 0.82988 0.3661 0.0
Tb1180 Tb 0.14173 0.82447 0.34122 0.0
C1181 C 0.15344 0.7862 0.32595 0.0
Tb1182 Tb 0.19135 0.84197 0.33166 0.0
O1183 O 0.12873 0.81389 0.31274 0.0
O1184 O 0.16209 0.84198 0.32024 0.0
O1185 O 0.13922 0.78995 0.3354 0.0
C1186 C 0.22899 0.85311 0.31493 0.0
O1187 O 0.17342 0.8039 0.32171 0.0
C1188 C 0.18455 0.83772 0.36593 0.0
C1189 C 0.1796 0.88023 0.34669 0.0
O1190 O 0.21237 0.85626 0.30913 0.0
O1191 O 0.22447 0.84369 0.33022 0.0
O1192 O 0.20397 0.85305 0.36021 0.0
O1193 O 0.171 0.82461 0.35261 0.0
O1194 O 0.19357 0.87644 0.33691 0.0
O1195 O 0.15986 0.86252 0.35129 0.0
C1196 C 0.10484 0.81309 0.35901 0.0
O1197 O 0.10937 0.82402 0.34435 0.0
O1198 O 0.12093 0.80852 0.36348 0.0
C1199 C 0.14826 0.82896 0.30701 0.0
Tb1200 Tb 0.85753 0.68183 0.66632 0.0
C1201 C 0.84714 0.63131 0.6787 0.0
Tb1202 Tb 0.80712 0.64258 0.67062 0.0
O1203 O 0.86048 0.70064 0.69299 0.0
O1204 O 0.83746 0.66462 0.68723 0.0
O1205 O 0.86144 0.65073 0.67088 0.0
C1206 C 0.76699 0.61957 0.68491 0.0
O1207 O 0.82624 0.62664 0.68218 0.0
C1208 C 0.82111 0.64142 0.63839 0.0
C1209 C 0.8176 0.69281 0.65745 0.0
O1210 O 0.77606 0.60937 0.6756 0.0
O1211 O 0.78036 0.64265 0.68593 0.0
O1212 O 0.80304 0.62359 0.64403 0.0
O1213 O 0.82724 0.65928 0.64946 0.0
O1214 O 0.80329 0.67359 0.66543 0.0
O1215 O 0.83842 0.69726 0.65398 0.0
C1216 C 0.89837 0.7072 0.65342 0.0
O1217 O 0.88769 0.71615 0.66197 0.0
O1218 O 0.88625 0.684 0.65245 0.0
C1219 C 0.84303 0.68205 0.69849 0.0
Tb1220 Tb 0.31435 0.17745 0.66312 0.0
C1221 C 0.36585 0.21524 0.67636 0.0
Tb1222 Tb 0.34973 0.15953 0.67257 0.0
O1223 O 0.31554 0.18826 0.69164 0.0
O1224 O 0.32222 0.16092 0.68403 0.0
O1225 O 0.34672 0.21135 0.66713 0.0
C1226 C 0.37581 0.14606 0.69061 0.0
O1227 O 0.36943 0.19777 0.68123 0.0
C1228 C 0.34864 0.16968 0.63862 0.0
C1229 C 0.29864 0.12191 0.65812 0.0
O1230 O 0.37368 0.16439 0.69549 0.0
O1231 O 0.3632 0.13528 0.6756 0.0
O1232 O 0.36196 0.16216 0.64502 0.0
O1233 O 0.33856 0.17164 0.65156 0.0
O1234 O 0.3173 0.12575 0.66809 0.0
O1235 O 0.29521 0.13948 0.65323 0.0
C1236 C 0.28623 0.18907 0.64605 0.0
O1237 O 0.28126 0.17587 0.65955 0.0
O1238 O 0.30701 0.19576 0.64225 0.0
C1239 C 0.32253 0.17407 0.69727 0.0
Tb1240 Tb 0.80472 0.153 0.67251 0.0
C1241 C 0.81814 0.11596 0.65778 0.0
Tb1242 Tb 0.85421 0.17232 0.66212 0.0
O1243 O 0.79159 0.14043 0.6442 0.0
O1244 O 0.82397 0.17042 0.65102 0.0
O1245 O 0.80394 0.11919 0.66766 0.0
C1246 C 0.89144 0.18432 0.64464 0.0
O1247 O 0.83738 0.13407 0.65285 0.0
C1248 C 0.84879 0.16897 0.69663 0.0
C1249 C 0.84092 0.20934 0.67701 0.0
O1250 O 0.87413 0.18646 0.63894 0.0
O1251 O 0.88777 0.17547 0.66016 0.0
O1252 O 0.86769 0.18459 0.6904 0.0
O1253 O 0.83502 0.15502 0.68369 0.0
O1254 O 0.855 0.20612 0.66697 0.0
O1255 O 0.82176 0.19121 0.68205 0.0
C1256 C 0.76751 0.14083 0.69011 0.0
O1257 O 0.77161 0.15105 0.67512 0.0
O1258 O 0.78424 0.13743 0.69504 0.0
C1259 C 0.81039 0.15641 0.63806 0.0
H1260 H 0.3223 0.8487 0.07346 0.0
H1261 H 0.31957 0.91321 0.08565 0.0
H1262 H 0.35706 0.87142 0.05842 0.0
H1263 H 0.35411 0.93597 0.07027 0.0
H1264 H 0.42819 0.97392 0.05597 0.0
H1265 H 0.3944 0.95124 0.07218 0.0
H1266 H 0.36988 0.89113 0.03181 0.0
H1267 H 0.40416 0.91364 0.01604 0.0
C1268 C 0.32907 0.86774 0.07281 0.0
C1269 C 0.31816 0.87915 0.0807 0.0
C1270 C 0.34897 0.88078 0.06413 0.0
C1271 C 0.3584 0.90556 0.06301 0.0
C1272 C 0.34757 0.917 0.07108 0.0
C1273 C 0.32773 0.90396 0.07988 0.0
C1274 C 0.41554 0.95584 0.0506 0.0
C1275 C 0.41871 0.94551 0.03475 0.0
C1276 C 0.3961 0.94287 0.05983 0.0
C1277 C 0.3793 0.91932 0.05332 0.0
C1278 C 0.38258 0.90906 0.0374 0.0
C1279 C 0.40214 0.92198 0.02828 0.0
H1280 H 0.16774 0.47535 0.05715 0.0
H1281 H 0.11402 0.41922 0.08397 0.0
H1282 H 0.14022 0.48449 0.04336 0.0
H1283 H 0.08697 0.43019 0.07175 0.0
H1284 H 0.03796 0.43834 0.03259 0.0
H1285 H 0.06513 0.42812 0.04629 0.0
H1286 H 0.11885 0.50241 0.04786 0.0
H1287 H 0.0919 0.51194 0.03295 0.0
C1288 C 0.15008 0.46493 0.06019 0.0
C1289 C 0.14324 0.44636 0.07165 0.0
C1290 C 0.13427 0.47056 0.05253 0.0
C1291 C 0.11121 0.45823 0.05643 0.0
C1292 C 0.10443 0.4399 0.06812 0.0
C1293 C 0.12014 0.43388 0.07546 0.0
C1294 C 0.05563 0.45238 0.03587 0.0
C1295 C 0.06296 0.47585 0.03163 0.0
C1296 C 0.07122 0.44662 0.04387 0.0
C1297 C 0.09438 0.46438 0.04821 0.0
C1298 C 0.1014 0.48805 0.04433 0.0
C1299 C 0.08593 0.49363 0.03592 0.0
H1300 H 0.51928 0.68167 0.03983 0.0
H1301 H 0.5853 0.69266 0.0597 0.0
H1302 H 0.50824 0.64133 0.02715 0.0
H1303 H 0.57407 0.65219 0.04742 0.0
H1304 H 0.55423 0.58672 0.00835 0.0
H1305 H 0.56524 0.62786 0.01835 0.0
H1306 H 0.49932 0.60289 0.03911 0.0
H1307 H 0.48811 0.56174 0.02896 0.0
C1308 C 0.5315 0.67554 0.04134 0.0
C1309 C 0.55314 0.69031 0.05079 0.0
C1310 C 0.52509 0.65237 0.03425 0.0
C1311 C 0.54025 0.64356 0.03635 0.0
C1312 C 0.56208 0.65853 0.04545 0.0
C1313 C 0.56843 0.68162 0.05263 0.0
C1314 C 0.542 0.58996 0.01495 0.0
C1315 C 0.52027 0.57087 0.01785 0.0
C1316 C 0.54838 0.61355 0.02077 0.0
C1317 C 0.53316 0.61861 0.02953 0.0
C1318 C 0.51133 0.59959 0.0322 0.0
C1319 C 0.50497 0.57598 0.02647 0.0
H1320 H 0.86875 0.30185 0.97137 0.0
H1321 H 0.86999 0.33035 0.92003 0.0
H1322 H 0.89685 0.34203 0.98497 0.0
H1323 H 0.89852 0.37022 0.93342 0.0
H1324 H 0.92954 0.44164 0.96717 0.0
H1325 H 0.90089 0.40129 0.95492 0.0
H1326 H 0.93748 0.37276 0.98403 0.0
H1327 H 0.96608 0.4132 0.99661 0.0
C1328 C 0.87501 0.31668 0.963 0.0
C1329 C 0.86715 0.3129 0.94462 0.0
C1330 C 0.89126 0.33964 0.97074 0.0
C1331 C 0.89989 0.35932 0.96028 0.0
C1332 C 0.89203 0.3555 0.94191 0.0
C1333 C 0.87587 0.33258 0.93417 0.0
C1334 C 0.93148 0.42681 0.97107 0.0
C1335 C 0.95017 0.43072 0.98288 0.0
C1336 C 0.9151 0.40366 0.96393 0.0
C1337 C 0.91696 0.38382 0.96842 0.0
C1338 C 0.93545 0.38765 0.98044 0.0
C1339 C 0.9519 0.41086 0.98756 0.0
H1340 H 0.66935 0.55171 0.90787 0.0
H1341 H 0.70602 0.5725 0.96091 0.0
H1342 H 0.63356 0.5401 0.92155 0.0
H1343 H 0.67037 0.56087 0.97453 0.0
H1344 H 0.59964 0.51146 0.99296 0.0
H1345 H 0.635 0.52369 0.97851 0.0
H1346 H 0.6139 0.55689 0.93885 0.0
H1347 H 0.57837 0.54431 0.95321 0.0
C1348 C 0.66981 0.55407 0.92242 0.0
C1349 C 0.69048 0.56283 0.93331 0.0
C1350 C 0.64932 0.54739 0.93026 0.0
C1351 C 0.6491 0.54933 0.94914 0.0
C1352 C 0.66988 0.55866 0.95997 0.0
C1353 C 0.69031 0.56535 0.95216 0.0
C1354 C 0.60258 0.52133 0.98114 0.0
C1355 C 0.5864 0.52704 0.97423 0.0
C1356 C 0.62286 0.52846 0.97293 0.0
C1357 C 0.62731 0.54139 0.9576 0.0
C1358 C 0.6109 0.54681 0.95055 0.0
C1359 C 0.59064 0.53973 0.95882 0.0
H1360 H 0.42858 0.11793 0.95865 0.0
H1361 H 0.45504 0.10605 0.90999 0.0
H1362 H 0.44124 0.09386 0.97436 0.0
H1363 H 0.46689 0.08122 0.9255 0.0
H1364 H 0.50896 0.06272 0.96452 0.0
H1365 H 0.49565 0.08622 0.94892 0.0
H1366 H 0.43303 0.05277 0.97539 0.0
H1367 H 0.4465 0.02955 0.99134 0.0
C1368 C 0.43704 0.11013 0.95129 0.0
C1369 C 0.44086 0.11399 0.93307 0.0
C1370 C 0.44408 0.09612 0.96024 0.0
C1371 C 0.45513 0.08565 0.9512 0.0
C1372 C 0.45868 0.08926 0.93292 0.0
C1373 C 0.45163 0.10325 0.92397 0.0
C1374 C 0.49238 0.06039 0.9671 0.0
C1375 C 0.47885 0.04426 0.97926 0.0
C1376 C 0.48467 0.07376 0.95802 0.0
C1377 C 0.46324 0.07134 0.96086 0.0
C1378 C 0.44973 0.05526 0.97305 0.0
C1379 C 0.45743 0.04186 0.98213 0.0
H1380 H 0.66163 0.12286 0.90596 0.0
H1381 H 0.70397 0.11968 0.94984 0.0
H1382 H 0.62765 0.10081 0.92247 0.0
H1383 H 0.67001 0.09729 0.96618 0.0
H1384 H 0.59811 0.03324 0.9769 0.0
H1385 H 0.63191 0.05508 0.9603 0.0
H1386 H 0.61475 0.11035 0.95368 0.0
H1387 H 0.58117 0.08875 0.97067 0.0
C1388 C 0.66359 0.11721 0.91904 0.0
C1389 C 0.68535 0.1229 0.92665 0.0
C1390 C 0.64424 0.1048 0.92852 0.0
C1391 C 0.64628 0.09743 0.94559 0.0
C1392 C 0.66798 0.1027 0.95301 0.0
C1393 C 0.68737 0.11553 0.94371 0.0
C1394 C 0.60165 0.05012 0.97198 0.0
C1395 C 0.58716 0.05941 0.97512 0.0
C1396 C 0.62097 0.0626 0.96252 0.0
C1397 C 0.62586 0.08433 0.9557 0.0
C1398 C 0.61125 0.09354 0.95872 0.0
C1399 C 0.59218 0.0813 0.96852 0.0
H1400 H 0.8441 0.53099 0.9247 0.0
H1401 H 0.90302 0.60081 0.92073 0.0
H1402 H 0.86845 0.51873 0.94057 0.0
H1403 H 0.9274 0.58877 0.93689 0.0
H1404 H 0.96778 0.55162 0.95071 0.0
H1405 H 0.94339 0.56314 0.93393 0.0
H1406 H 0.88989 0.52589 0.9691 0.0
H1407 H 0.91414 0.51379 0.98548 0.0
C1408 C 0.86226 0.54376 0.92733 0.0
C1409 C 0.87166 0.56687 0.92149 0.0
C1410 C 0.87622 0.53677 0.93648 0.0
C1411 C 0.89989 0.55278 0.94009 0.0
C1412 C 0.9093 0.57585 0.93411 0.0
C1413 C 0.89535 0.58278 0.92486 0.0
C1414 C 0.9508 0.54593 0.95482 0.0
C1415 C 0.94281 0.53187 0.96938 0.0
C1416 C 0.93686 0.55263 0.94528 0.0
C1417 C 0.91467 0.5455 0.95017 0.0
C1418 C 0.90675 0.53141 0.96479 0.0
C1419 C 0.92066 0.5246 0.97426 0.0
H1420 H 0.48242 0.31558 0.96426 0.0
H1421 H 0.41747 0.30632 0.94325 0.0
H1422 H 0.49361 0.35564 0.97766 0.0
H1423 H 0.42887 0.34657 0.95627 0.0
H1424 H 0.44828 0.41088 0.99657 0.0
H1425 H 0.43695 0.36989 0.98576 0.0
H1426 H 0.50368 0.3948 0.96655 0.0
H1427 H 0.51519 0.43578 0.9775 0.0
C1428 C 0.47046 0.32202 0.96264 0.0
C1429 C 0.44907 0.30781 0.95268 0.0
C1430 C 0.47696 0.34505 0.97016 0.0
C1431 C 0.46216 0.3543 0.96797 0.0
C1432 C 0.44059 0.33989 0.95832 0.0
C1433 C 0.43414 0.31693 0.95072 0.0
C1434 C 0.46062 0.40765 0.99015 0.0
C1435 C 0.48266 0.42668 0.98791 0.0
C1436 C 0.45405 0.38415 0.98386 0.0
C1437 C 0.4694 0.37912 0.97528 0.0
C1438 C 0.49155 0.39807 0.97329 0.0
C1439 C 0.49809 0.42159 0.97949 0.0
H1440 H 0.13035 0.67235 0.08525 0.0
H1441 H 0.13555 0.70026 0.03321 0.0
H1442 H 0.10133 0.63271 0.07179 0.0
H1443 H 0.10694 0.66028 0.01958 0.0
H1444 H 0.03686 0.5907 0.00661 0.0
H1445 H 0.06569 0.63086 0.01958 0.0
H1446 H 0.09879 0.60071 0.05119 0.0
H1447 H 0.06991 0.56065 0.03853 0.0
C1448 C 0.12524 0.67003 0.07093 0.0
C1449 C 0.1352 0.68948 0.06031 0.0
C1450 C 0.10879 0.64724 0.06318 0.0
C1451 C 0.10188 0.64332 0.0446 0.0
C1452 C 0.11178 0.66277 0.03396 0.0
C1453 C 0.12833 0.6856 0.04172 0.0
C1454 C 0.05029 0.59262 0.01632 0.0
C1455 C 0.05103 0.57241 0.02153 0.0
C1456 C 0.06688 0.61566 0.02367 0.0
C1457 C 0.0845 0.61896 0.03644 0.0
C1458 C 0.08527 0.59876 0.04156 0.0
C1459 C 0.06876 0.57578 0.0342 0.0
H1460 H 0.3246 0.47301 0.07642 0.0
H1461 H 0.32198 0.40687 0.08761 0.0
H1462 H 0.35835 0.48429 0.0601 0.0
H1463 H 0.35571 0.41806 0.07115 0.0
H1464 H 0.42969 0.45703 0.05604 0.0
H1465 H 0.39639 0.44627 0.0729 0.0
H1466 H 0.36926 0.47319 0.03238 0.0
H1467 H 0.40295 0.48446 0.01575 0.0
C1468 C 0.33116 0.4608 0.07528 0.0
C1469 C 0.32056 0.439 0.08326 0.0
C1470 C 0.35049 0.46725 0.06589 0.0
C1471 C 0.3597 0.45204 0.06422 0.0
C1472 C 0.34924 0.43034 0.07237 0.0
C1473 C 0.32992 0.42392 0.08181 0.0
C1474 C 0.41657 0.46062 0.05075 0.0
C1475 C 0.41882 0.47153 0.03459 0.0
C1476 C 0.39744 0.45434 0.06035 0.0
C1477 C 0.3801 0.4588 0.05399 0.0
C1478 C 0.38243 0.46977 0.03779 0.0
C1479 C 0.40163 0.47611 0.0282 0.0
H1480 H 0.5936 0.91823 0.07596 0.0
H1481 H 0.52844 0.85528 0.0581 0.0
H1482 H 0.58097 0.94326 0.06155 0.0
H1483 H 0.51606 0.8802 0.04332 0.0
H1484 H 0.49284 0.93553 0.03835 0.0
H1485 H 0.50583 0.9107 0.05234 0.0
H1486 H 0.5715 0.95105 0.03097 0.0
H1487 H 0.55866 0.97614 0.01708 0.0
C1488 C 0.57659 0.90975 0.06896 0.0
C1489 C 0.56201 0.88479 0.06818 0.0
C1490 C 0.56945 0.92405 0.06056 0.0
C1491 C 0.54751 0.9137 0.05131 0.0
C1492 C 0.53297 0.88873 0.05049 0.0
C1493 C 0.54016 0.87443 0.05879 0.0
C1494 C 0.51004 0.93913 0.03657 0.0
C1495 C 0.52468 0.95783 0.02653 0.0
C1496 C 0.51744 0.9248 0.04453 0.0
C1497 C 0.53967 0.92889 0.04273 0.0
C1498 C 0.55434 0.9476 0.03274 0.0
C1499 C 0.54691 0.96187 0.02469 0.0
H1500 H 0.96786 0.20278 0.38753 0.0
H1501 H 0.00846 0.22472 0.43898 0.0
H1502 H 0.00203 0.22606 0.37251 0.0
H1503 H 0.04268 0.24987 0.424 0.0
H1504 H 0.10284 0.27121 0.38877 0.0
H1505 H 0.06922 0.24891 0.40529 0.0
H1506 H 0.02909 0.26447 0.36704 0.0
H1507 H 0.06239 0.28548 0.35014 0.0
C1508 C 0.98409 0.21259 0.3957 0.0
C1509 C 0.9853 0.21149 0.41451 0.0
C1510 C 0.00376 0.22642 0.38706 0.0
C1511 C 0.02528 0.24007 0.39697 0.0
C1512 C 0.0265 0.23938 0.41584 0.0
C1513 C 0.00678 0.22519 0.4245 0.0
C1514 C 0.08675 0.26972 0.38393 0.0
C1515 C 0.08507 0.27973 0.36807 0.0
C1516 C 0.0675 0.25713 0.39347 0.0
C1517 C 0.04622 0.25458 0.38747 0.0
C1518 C 0.04492 0.26539 0.37186 0.0
C1519 C 0.06405 0.27761 0.3622 0.0
H1520 H 0.7781 0.74321 0.40808 0.0
H1521 H 0.83372 0.81524 0.4045 0.0
H1522 H 0.7511 0.75395 0.39462 0.0
H1523 H 0.80682 0.8261 0.39134 0.0
H1524 H 0.75782 0.82914 0.34881 0.0
H1525 H 0.78396 0.81823 0.36343 0.0
H1526 H 0.73307 0.77783 0.3997 0.0
H1527 H 0.70667 0.78831 0.38464 0.0
C1528 C 0.78449 0.76141 0.40461 0.0
C1529 C 0.80804 0.77832 0.40718 0.0
C1530 C 0.76904 0.76758 0.39694 0.0
C1531 C 0.77681 0.79084 0.39176 0.0
C1532 C 0.80031 0.80788 0.39479 0.0
C1533 C 0.81573 0.80168 0.40236 0.0
C1534 C 0.75225 0.81793 0.35991 0.0
C1535 C 0.73027 0.80953 0.3656 0.0
C1536 C 0.76726 0.81179 0.36837 0.0
C1537 C 0.76067 0.79724 0.38281 0.0
C1538 C 0.7386 0.78884 0.3885 0.0
C1539 C 0.72353 0.79492 0.37995 0.0
H1540 H 0.25287 0.02729 0.39475 0.0
H1541 H 0.18592 0.0156 0.37708 0.0
H1542 H 0.24129 0.98662 0.38262 0.0
H1543 H 0.17452 0.97513 0.36455 0.0
H1544 H 0.15491 0.89585 0.36527 0.0
H1545 H 0.16654 0.93684 0.37626 0.0
H1546 H 0.23125 0.96226 0.35332 0.0
H1547 H 0.21981 0.92125 0.34245 0.0
C1548 C 0.2357 0.01604 0.38824 0.0
C1549 C 0.22029 0.02462 0.3869 0.0
C1550 C 0.22915 0.99284 0.38114 0.0
C1551 C 0.20699 0.97767 0.37265 0.0
C1552 C 0.19164 0.98632 0.37117 0.0
C1553 C 0.19824 0.00957 0.37817 0.0
C1554 C 0.1716 0.91015 0.3625 0.0
C1555 C 0.18641 0.90522 0.35296 0.0
C1556 C 0.1782 0.93367 0.36873 0.0
C1557 C 0.1998 0.95277 0.36564 0.0
C1558 C 0.21458 0.94788 0.35606 0.0
C1559 C 0.20795 0.92437 0.34974 0.0
H1560 H 0.5109 0.64974 0.2984 0.0
H1561 H 0.56564 0.64287 0.27673 0.0
H1562 H 0.53877 0.68912 0.313 0.0
H1563 H 0.59349 0.68281 0.29075 0.0
H1564 H 0.63944 0.74806 0.33077 0.0
H1565 H 0.61158 0.70661 0.31973 0.0
H1566 H 0.56301 0.72833 0.30312 0.0
H1567 H 0.59042 0.7694 0.31437 0.0
C1568 C 0.52891 0.65652 0.29688 0.0
C1569 C 0.53601 0.64312 0.28635 0.0
C1570 C 0.54487 0.67924 0.30509 0.0
C1571 C 0.56835 0.68921 0.30295 0.0
C1572 C 0.57555 0.6756 0.29279 0.0
C1573 C 0.55956 0.65283 0.28456 0.0
C1574 C 0.62274 0.74395 0.32493 0.0
C1575 C 0.61723 0.76214 0.32349 0.0
C1576 C 0.60683 0.72021 0.31849 0.0
C1577 C 0.58506 0.71414 0.31054 0.0
C1578 C 0.57948 0.73228 0.3094 0.0
C1579 C 0.59532 0.75593 0.31579 0.0
H1580 H 0.36967 0.90895 0.29158 0.0
H1581 H 0.33197 0.87879 0.23935 0.0
H1582 H 0.33408 0.8979 0.30507 0.0
H1583 H 0.29613 0.86761 0.25291 0.0
H1584 H 0.23933 0.87185 0.28252 0.0
H1585 H 0.27459 0.88407 0.2678 0.0
H1586 H 0.30066 0.86097 0.31188 0.0
H1587 H 0.26563 0.84918 0.32666 0.0
C1588 C 0.35373 0.89988 0.28298 0.0
C1589 C 0.3536 0.89448 0.26443 0.0
C1590 C 0.33332 0.8935 0.29073 0.0
C1591 C 0.31223 0.88157 0.28012 0.0
C1592 C 0.31212 0.87689 0.26144 0.0
C1593 C 0.33262 0.88331 0.25366 0.0
C1594 C 0.25264 0.8694 0.28902 0.0
C1595 C 0.24989 0.85972 0.30576 0.0
C1596 C 0.27275 0.87627 0.28055 0.0
C1597 C 0.2905 0.87366 0.28872 0.0
C1598 C 0.28749 0.86362 0.30537 0.0
C1599 C 0.26739 0.85672 0.3138 0.0
H1600 H 0.14044 0.47962 0.2792 0.0
H1601 H 0.07581 0.41579 0.26171 0.0
H1602 H 0.15307 0.45559 0.29504 0.0
H1603 H 0.08863 0.39163 0.27737 0.0
H1604 H 0.17671 0.40049 0.30108 0.0
H1605 H 0.1634 0.42464 0.28642 0.0
H1606 H 0.09849 0.38586 0.30915 0.0
H1607 H 0.11173 0.36148 0.32384 0.0
C1608 C 0.12889 0.46045 0.27881 0.0
C1609 C 0.10712 0.44958 0.26923 0.0
C1610 C 0.1362 0.44668 0.28776 0.0
C1611 C 0.12185 0.42174 0.28743 0.0
C1612 C 0.09998 0.41085 0.27798 0.0
C1613 C 0.09274 0.42463 0.26888 0.0
C1614 C 0.15964 0.39714 0.30306 0.0
C1615 C 0.14531 0.37908 0.31369 0.0
C1616 C 0.15205 0.41107 0.2947 0.0
C1617 C 0.12991 0.40714 0.29664 0.0
C1618 C 0.11558 0.38914 0.3073 0.0
C1619 C 0.12324 0.37533 0.31582 0.0
H1620 H 0.33018 0.44622 0.23607 0.0
H1621 H 0.36977 0.45963 0.28716 0.0
H1622 H 0.29489 0.42323 0.25055 0.0
H1623 H 0.33449 0.43707 0.30161 0.0
H1624 H 0.26623 0.41889 0.32437 0.0
H1625 H 0.30124 0.44136 0.3093 0.0
H1626 H 0.27405 0.38532 0.26541 0.0
H1627 H 0.23904 0.36294 0.28047 0.0
C1628 C 0.33141 0.44408 0.25033 0.0
C1629 C 0.35287 0.45489 0.26044 0.0
C1630 C 0.31117 0.43097 0.25863 0.0
C1631 C 0.31191 0.42849 0.27724 0.0
C1632 C 0.33334 0.43903 0.28731 0.0
C1633 C 0.35356 0.45198 0.279 0.0
C1634 C 0.26776 0.41144 0.31149 0.0
C1635 C 0.25003 0.38919 0.3036 0.0
C1636 C 0.28782 0.42421 0.30291 0.0
C1637 C 0.29044 0.41506 0.2862 0.0
C1638 C 0.27249 0.39292 0.27821 0.0
C1639 C 0.25252 0.38006 0.28687 0.0
H1640 H 0.53051 0.9125 0.28952 0.0
H1641 H 0.55258 0.89814 0.23926 0.0
H1642 H 0.55339 0.89898 0.30591 0.0
H1643 H 0.57674 0.88641 0.25573 0.0
H1644 H 0.59629 0.84031 0.28665 0.0
H1645 H 0.57321 0.85425 0.27119 0.0
H1646 H 0.59107 0.90808 0.31568 0.0
H1647 H 0.61342 0.89319 0.33151 0.0
C1648 C 0.5403 0.90658 0.28194 0.0
C1649 C 0.53949 0.90626 0.263 0.0
C1650 C 0.55372 0.89915 0.2914 0.0
C1651 C 0.56686 0.89143 0.28217 0.0
C1652 C 0.56652 0.89176 0.26329 0.0
C1653 C 0.55291 0.89891 0.25383 0.0
C1654 C 0.59518 0.85506 0.29315 0.0
C1655 C 0.6066 0.8657 0.31025 0.0
C1656 C 0.58212 0.86323 0.28422 0.0
C1657 C 0.58043 0.88251 0.29205 0.0
C1658 C 0.59177 0.89304 0.3093 0.0
C1659 C 0.60466 0.88462 0.31835 0.0
H1660 H 0.14674 0.65032 0.29665 0.0
H1661 H 0.08135 0.6402 0.27594 0.0
H1662 H 0.15789 0.69058 0.30953 0.0
H1663 H 0.0927 0.68066 0.28845 0.0
H1664 H 0.11249 0.74537 0.32877 0.0
H1665 H 0.10111 0.70438 0.31791 0.0
H1666 H 0.16743 0.7294 0.29787 0.0
H1667 H 0.17898 0.77038 0.30885 0.0
C1668 C 0.13468 0.65663 0.29498 0.0
C1669 C 0.11317 0.64211 0.28528 0.0
C1670 C 0.14116 0.67976 0.30219 0.0
C1671 C 0.12621 0.68881 0.29994 0.0
C1672 C 0.10453 0.67412 0.29052 0.0
C1673 C 0.09811 0.65105 0.28322 0.0
C1674 C 0.12471 0.74217 0.32212 0.0
C1675 C 0.14667 0.76122 0.31969 0.0
C1676 C 0.11812 0.71867 0.31582 0.0
C1677 C 0.13337 0.71367 0.30704 0.0
C1678 C 0.15539 0.73266 0.30477 0.0
C1679 C 0.16194 0.75617 0.31097 0.0
H1680 H 0.77638 0.03713 0.37677 0.0
H1681 H 0.82098 0.00995 0.39158 0.0
H1682 H 0.74819 0.99784 0.36178 0.0
H1683 H 0.79247 0.97027 0.37789 0.0
H1684 H 0.74607 0.90456 0.34173 0.0
H1685 H 0.77471 0.94585 0.3519 0.0
H1686 H 0.72079 0.95944 0.3665 0.0
H1687 H 0.69228 0.91863 0.35507 0.0
C1688 C 0.77998 0.02258 0.37686 0.0
C1689 C 0.80075 0.02639 0.38516 0.0
C1690 C 0.76381 1.0 0.36842 0.0
C1691 C 0.76789 0.98063 0.36852 0.0
C1692 C 0.78879 0.98469 0.37702 0.0
C1693 C 0.80512 0.00737 0.38505 0.0
C1694 C 0.74042 0.91656 0.34689 0.0
C1695 C 0.71701 0.90844 0.34763 0.0
C1696 C 0.75684 0.94021 0.35292 0.0
C1697 C 0.75026 0.95613 0.36037 0.0
C1698 C 0.72668 0.94801 0.36066 0.0
C1699 C 0.71025 0.92452 0.35417 0.0
H1700 H 0.98776 0.74165 0.4215 0.0
H1701 H 0.99171 0.80905 0.41259 0.0
H1702 H 0.02156 0.75319 0.40513 0.0
H1703 H 0.02549 0.82058 0.3962 0.0
H1704 H 0.06909 0.82035 0.35075 0.0
H1705 H 0.03573 0.80948 0.36774 0.0
H1706 H 0.06263 0.78152 0.40757 0.0
H1707 H 0.09565 0.792 0.39041 0.0
C1708 C 0.99601 0.75906 0.41625 0.0
C1709 C 0.98701 0.7744 0.41832 0.0
C1710 C 0.01537 0.76567 0.40684 0.0
C1711 C 0.02618 0.78778 0.3993 0.0
C1712 C 0.01734 0.80325 0.40157 0.0
C1713 C 0.998 0.79665 0.41098 0.0
C1714 C 0.0678 0.81188 0.36313 0.0
C1715 C 0.08482 0.8069 0.36925 0.0
C1716 C 0.0488 0.80578 0.37292 0.0
C1717 C 0.04651 0.79459 0.389 0.0
C1718 C 0.0637 0.78979 0.39512 0.0
C1719 C 0.08266 0.79589 0.38534 0.0
H1720 H 0.21581 0.22786 0.42377 0.0
H1721 H 0.23863 0.21278 0.37422 0.0
H1722 H 0.20232 0.25125 0.40803 0.0
H1723 H 0.22455 0.23564 0.35835 0.0
H1724 H 0.21971 0.30108 0.34201 0.0
H1725 H 0.2333 0.27735 0.3571 0.0
H1726 H 0.17181 0.24448 0.38499 0.0
H1727 H 0.15831 0.26838 0.37016 0.0
C1728 C 0.21804 0.22964 0.40954 0.0
C1729 C 0.22831 0.21849 0.40025 0.0
C1730 C 0.21007 0.2428 0.40047 0.0
C1731 C 0.21227 0.2452 0.38192 0.0
C1732 C 0.22274 0.23426 0.37266 0.0
C1733 C 0.23062 0.22099 0.38172 0.0
C1734 C 0.209 0.2887 0.35128 0.0
C1735 C 0.1879 0.28666 0.35485 0.0
C1736 C 0.21677 0.27503 0.35987 0.0
C1737 C 0.20368 0.25912 0.3723 0.0
C1738 C 0.18244 0.25682 0.37567 0.0
C1739 C 0.17462 0.2704 0.36703 0.0
H1740 H 0.62988 0.55603 0.72082 0.0
H1741 H 0.66886 0.54241 0.76133 0.0
H1742 H 0.66433 0.57762 0.70471 0.0
H1743 H 0.70317 0.56337 0.74491 0.0
H1744 H 0.74517 0.5732 0.69323 0.0
H1745 H 0.71125 0.55324 0.71014 0.0
H1746 H 0.70722 0.61783 0.71413 0.0
H1747 H 0.74156 0.63806 0.69774 0.0
C1748 C 0.64588 0.5578 0.72628 0.0
C1749 C 0.64686 0.54774 0.74232 0.0
C1750 C 0.6655 0.5701 0.7171 0.0
C1751 C 0.68627 0.57201 0.72358 0.0
C1752 C 0.68728 0.56202 0.73965 0.0
C1753 C 0.66778 0.55021 0.74906 0.0
C1754 C 0.73697 0.58307 0.69768 0.0
C1755 C 0.74587 0.6071 0.69417 0.0
C1756 C 0.71772 0.57173 0.70742 0.0
C1757 C 0.70675 0.58408 0.71342 0.0
C1758 C 0.71539 0.60797 0.7096 0.0
C1759 C 0.73497 0.61948 0.70025 0.0
H1760 H 0.46643 0.12499 0.76564 0.0
H1761 H 0.47615 0.10319 0.71251 0.0
H1762 H 0.43717 0.13257 0.75247 0.0
H1763 H 0.44787 0.11202 0.69927 0.0
H1764 H 0.38068 0.10754 0.682 0.0
H1765 H 0.4076 0.09754 0.69655 0.0
H1766 H 0.43328 0.16025 0.73453 0.0
H1767 H 0.40577 0.1697 0.72027 0.0
C1768 C 0.46232 0.12178 0.75116 0.0
C1769 C 0.47367 0.11347 0.74015 0.0
C1770 C 0.44573 0.12641 0.74358 0.0
C1771 C 0.44014 0.12292 0.7248 0.0
C1772 C 0.4515 0.11461 0.71381 0.0
C1773 C 0.46799 0.10988 0.72139 0.0
C1774 C 0.39199 0.11905 0.69354 0.0
C1775 C 0.39126 0.13942 0.69999 0.0
C1776 C 0.40753 0.11344 0.7018 0.0
C1777 C 0.42277 0.1282 0.71663 0.0
C1778 C 0.42165 0.14835 0.72327 0.0
C1779 C 0.406 0.15386 0.71506 0.0
H1780 H 0.89371 0.36361 0.69319 0.0
H1781 H 0.86795 0.33599 0.74371 0.0
H1782 H 0.8808 0.32298 0.68015 0.0
H1783 H 0.85595 0.29559 0.73094 0.0
H1784 H 0.81681 0.22375 0.69759 0.0
H1785 H 0.82785 0.26441 0.70899 0.0
H1786 H 0.89051 0.29175 0.68266 0.0
H1787 H 0.87929 0.25118 0.6709 0.0
C1788 C 0.88525 0.34887 0.7015 0.0
C1789 C 0.8819 0.35305 0.7195 0.0
C1790 C 0.87807 0.32562 0.69409 0.0
C1791 C 0.86736 0.30603 0.7045 0.0
C1792 C 0.8639 0.31022 0.72247 0.0
C1793 C 0.87106 0.33344 0.72987 0.0
C1794 C 0.83288 0.23842 0.69412 0.0
C1795 C 0.84716 0.23415 0.68333 0.0
C1796 C 0.83927 0.26174 0.70077 0.0
C1797 C 0.86011 0.28134 0.69681 0.0
C1798 C 0.87422 0.2771 0.68579 0.0
C1799 C 0.86782 0.25378 0.67912 0.0
H1800 H 0.20398 0.96689 0.64071 0.0
H1801 H 0.20081 0.99532 0.59014 0.0
H1802 H 0.23107 0.00743 0.65426 0.0
H1803 H 0.22838 0.03556 0.60345 0.0
H1804 H 0.2584 0.10645 0.63734 0.0
H1805 H 0.23031 0.06563 0.62565 0.0
H1806 H 0.27077 0.03971 0.65246 0.0
H1807 H 0.2988 0.08057 0.66448 0.0
C1808 C 0.20906 0.98177 0.6325 0.0
C1809 C 0.20027 0.97787 0.61434 0.0
C1810 C 0.22473 0.00496 0.6402 0.0
C1811 C 0.23183 0.02473 0.62994 0.0
C1812 C 0.22305 0.02077 0.61179 0.0
C1813 C 0.20746 0.99765 0.6041 0.0
C1814 C 0.26131 0.09209 0.64087 0.0
C1815 C 0.28096 0.09687 0.65182 0.0
C1816 C 0.24523 0.06867 0.63406 0.0
C1817 C 0.24838 0.04944 0.63801 0.0
C1818 C 0.26775 0.05411 0.64929 0.0
C1819 C 0.28387 0.07757 0.65611 0.0
H1820 H 0.03169 0.23982 0.61988 0.0
H1821 H 0.99306 0.20886 0.56807 0.0
H1822 H 0.99648 0.22986 0.63364 0.0
H1823 H 0.95759 0.19867 0.58191 0.0
H1824 H 0.90097 0.20269 0.61193 0.0
H1825 H 0.93607 0.21509 0.59684 0.0
H1826 H 0.96341 0.19335 0.641 0.0
H1827 H 0.92866 0.18146 0.65611 0.0
C1828 C 0.01563 0.23084 0.61143 0.0
C1829 C 0.01511 0.22485 0.59293 0.0
C1830 C 0.99544 0.22508 0.61932 0.0
C1831 C 0.97417 0.21313 0.60893 0.0
C1832 C 0.97371 0.20797 0.59027 0.0
C1833 C 0.994 0.21381 0.58234 0.0
C1834 C 0.91455 0.20062 0.61836 0.0
C1835 C 0.91222 0.19126 0.63521 0.0
C1836 C 0.93457 0.2076 0.6097 0.0
C1837 C 0.95262 0.2054 0.61778 0.0
C1838 C 0.95004 0.19573 0.63456 0.0
C1839 C 0.93007 0.18875 0.64317 0.0
H1840 H 0.80134 0.80834 0.61755 0.0
H1841 H 0.7378 0.74343 0.59955 0.0
H1842 H 0.81459 0.7851 0.63365 0.0
H1843 H 0.75147 0.72003 0.6151 0.0
H1844 H 0.77487 0.68773 0.65865 0.0
H1845 H 0.76081 0.71211 0.64521 0.0
H1846 H 0.8272 0.75689 0.62615 0.0
H1847 H 0.84139 0.73295 0.63981 0.0
C1848 C 0.79012 0.78911 0.61711 0.0
C1849 C 0.76849 0.77775 0.60725 0.0
C1850 C 0.79784 0.77575 0.62618 0.0
C1851 C 0.78413 0.75069 0.62562 0.0
C1852 C 0.76237 0.73933 0.61596 0.0
C1853 C 0.75465 0.75271 0.60686 0.0
C1854 C 0.78653 0.70289 0.65172 0.0
C1855 C 0.80926 0.70832 0.65029 0.0
C1856 C 0.77841 0.71676 0.64391 0.0
C1857 C 0.79285 0.73641 0.63456 0.0
C1858 C 0.81568 0.74207 0.63344 0.0
C1859 C 0.82379 0.72822 0.64121 0.0
H1860 H 0.02319 0.8181 0.6139 0.0
H1861 H 0.0099 0.75277 0.58368 0.0
H1862 H 0.99041 0.79541 0.63049 0.0
H1863 H 0.97553 0.73029 0.59905 0.0
H1864 H 0.92652 0.69187 0.64102 0.0
H1865 H 0.96108 0.71446 0.62564 0.0
H1866 H 0.95128 0.77575 0.62919 0.0
H1867 H 0.91776 0.75354 0.64559 0.0
C1868 C 0.01333 0.79887 0.61073 0.0
C1869 C 0.01959 0.78737 0.59748 0.0
C1870 C 0.99408 0.78581 0.62007 0.0
C1871 C 0.98002 0.76087 0.61618 0.0
C1872 C 0.98604 0.74937 0.60273 0.0
C1873 C 0.00563 0.7624 0.59362 0.0
C1874 C 0.932 0.71028 0.63864 0.0
C1875 C 0.91965 0.72106 0.6446 0.0
C1876 C 0.95169 0.7232 0.62963 0.0
C1877 C 0.95918 0.74707 0.62604 0.0
C1878 C 0.94654 0.75768 0.632 0.0
C1879 C 0.92718 0.74491 0.64134 0.0
H1880 H 0.16958 0.19242 0.59433 0.0
H1881 H 0.22816 0.26082 0.58624 0.0
H1882 H 0.19466 0.18142 0.61069 0.0
H1883 H 0.25324 0.25004 0.60281 0.0
H1884 H 0.29381 0.21298 0.61596 0.0
H1885 H 0.26834 0.22357 0.59975 0.0
H1886 H 0.21848 0.19063 0.63845 0.0
H1887 H 0.24381 0.17946 0.65433 0.0
C1888 C 0.1878 0.2052 0.59622 0.0
C1889 C 0.19691 0.22745 0.58896 0.0
C1890 C 0.20218 0.19892 0.60562 0.0
C1891 C 0.22599 0.21481 0.60805 0.0
C1892 C 0.23504 0.23718 0.60091 0.0
C1893 C 0.22068 0.24339 0.59144 0.0
C1894 C 0.2774 0.20803 0.62098 0.0
C1895 C 0.27075 0.19546 0.63639 0.0
C1896 C 0.26285 0.21421 0.61176 0.0
C1897 C 0.24138 0.20805 0.61783 0.0
C1898 C 0.23476 0.1954 0.63327 0.0
C1899 C 0.24929 0.18911 0.64244 0.0
H1900 H 0.76835 0.96234 0.64278 0.0
H1901 H 0.78899 0.98844 0.59084 0.0
H1902 H 0.78068 0.00301 0.65533 0.0
H1903 H 0.80047 0.0289 0.6032 0.0
H1904 H 0.84099 0.10171 0.63556 0.0
H1905 H 0.82986 0.06105 0.62409 0.0
H1906 H 0.76956 0.03337 0.65348 0.0
H1907 H 0.78089 0.07398 0.66529 0.0
C1908 C 0.77554 0.97676 0.63405 0.0
C1909 C 0.7777 0.97214 0.61581 0.0
C1910 C 0.78238 1.00002 0.64119 0.0
C1911 C 0.79157 0.01921 0.63027 0.0
C1912 C 0.79371 0.01458 0.61204 0.0
C1913 C 0.78686 0.99133 0.60489 0.0
C1914 C 0.82544 0.08697 0.63971 0.0
C1915 C 0.81187 0.09116 0.65139 0.0
C1916 C 0.81897 0.06365 0.633 0.0
C1917 C 0.79878 0.04396 0.63781 0.0
C1918 C 0.78535 0.04812 0.64967 0.0
C1919 C 0.79181 0.07144 0.65637 0.0
H1920 H 0.46368 0.34032 0.7449 0.0
H1921 H 0.4625 0.37013 0.69459 0.0
H1922 H 0.43586 0.30046 0.73104 0.0
H1923 H 0.43499 0.32993 0.68051 0.0
H1924 H 0.36604 0.25685 0.67006 0.0
H1925 H 0.39447 0.29766 0.68214 0.0
H1926 H 0.43471 0.27103 0.70828 0.0
H1927 H 0.40638 0.2304 0.69652 0.0
C1928 C 0.4574 0.33836 0.73088 0.0
C1929 C 0.46523 0.3584 0.72086 0.0
C1930 C 0.44166 0.31548 0.72288 0.0
C1931 C 0.43333 0.31203 0.70465 0.0
C1932 C 0.44101 0.33205 0.69461 0.0
C1933 C 0.4569 0.35501 0.70262 0.0
C1934 C 0.38103 0.25971 0.67828 0.0
C1935 C 0.3838 0.24027 0.68239 0.0
C1936 C 0.39736 0.28311 0.68513 0.0
C1937 C 0.41672 0.28752 0.69629 0.0
C1938 C 0.41978 0.26817 0.69997 0.0
C1939 C 0.40355 0.24486 0.69311 0.0
H1940 H 0.67268 0.11436 0.77244 0.0
H1941 H 0.6299 0.08906 0.72202 0.0
H1942 H 0.70646 0.12561 0.75604 0.0
H1943 H 0.66358 0.10012 0.70564 0.0
H1944 H 0.75843 0.12021 0.72176 0.0
H1945 H 0.72473 0.10857 0.73833 0.0
H1946 H 0.69747 0.13544 0.69787 0.0
H1947 H 0.73101 0.14656 0.68112 0.0
C1948 C 0.67046 0.11094 0.75787 0.0
C1949 C 0.64862 0.10089 0.74853 0.0
C1950 C 0.68982 0.1174 0.74847 0.0
C1951 C 0.68776 0.11388 0.7295 0.0
C1952 C 0.66586 0.10352 0.7202 0.0
C1953 C 0.64654 0.09712 0.7296 0.0
C1954 C 0.74519 0.12357 0.71642 0.0
C1955 C 0.74722 0.13417 0.70014 0.0
C1956 C 0.72596 0.11705 0.72596 0.0
C1957 C 0.70835 0.12102 0.71943 0.0
C1958 C 0.71053 0.13179 0.70315 0.0
C1959 C 0.72978 0.13829 0.6936 0.0
H1960 H 0.88623 0.55949 0.75468 0.0
H1961 H 0.9121 0.54727 0.70582 0.0
H1962 H 0.87196 0.58206 0.73871 0.0
H1963 H 0.89742 0.56957 0.68972 0.0
H1964 H 0.88843 0.63393 0.67443 0.0
H1965 H 0.90384 0.61139 0.68913 0.0
H1966 H 0.84098 0.57217 0.71451 0.0
H1967 H 0.82559 0.5946 0.7 0.0
C1968 C 0.88907 0.56184 0.74057 0.0
C1969 C 0.9003 0.55162 0.73151 0.0
C1970 C 0.88066 0.57452 0.73137 0.0
C1971 C 0.88341 0.57741 0.71293 0.0
C1972 C 0.89512 0.5677 0.70394 0.0
C1973 C 0.90337 0.55482 0.71312 0.0
C1974 C 0.87782 0.62036 0.68303 0.0
C1975 C 0.85581 0.6162 0.6861 0.0
C1976 C 0.88664 0.60742 0.6914 0.0
C1977 C 0.87371 0.59021 0.70313 0.0
C1978 C 0.8515 0.58561 0.70579 0.0
C1979 C 0.84263 0.59837 0.69734 0.0
H1980 H 0.50839 0.00287 0.1478 0.0
H1981 H 0.43979 0.95595 0.12265 0.0
H1982 H 0.52095 0.01822 0.11886 0.0
H1983 H 0.45238 0.97164 0.09366 0.0
H1984 H 0.48093 0.0215 0.04775 0.0
H1985 H 0.46744 0.00886 0.07736 0.0
H1986 H 0.52662 0.00164 0.09024 0.0
H1987 H 0.53966 0.01371 0.06061 0.0
C1988 C 0.49597 0.9958 0.13609 0.0
C1989 C 0.47313 0.97795 0.13753 0.0
C1990 C 0.50318 0.00464 0.11951 0.0
C1991 C 0.48772 0.99599 0.10395 0.0
C1992 C 0.46467 0.97879 0.10545 0.0
C1993 C 0.45746 0.96983 0.12207 0.0
C1994 C 0.4908 0.01688 0.05689 0.0
C1995 C 0.51102 0.01806 0.05183 0.0
C1996 C 0.48318 0.00978 0.07382 0.0
C1997 C 0.49592 0.00417 0.08611 0.0
C1998 C 0.51653 0.00607 0.08116 0.0
C1999 C 0.52401 0.01298 0.06421 0.0
H2000 H 0.06554 0.55732 0.13528 0.0
H2001 H 0.01773 0.48286 0.14124 0.0
H2002 H 0.05166 0.55145 0.10359 0.0
H2003 H 0.00383 0.47693 0.10929 0.0
H2004 H 0.99911 0.47424 0.04621 0.0
H2005 H 0.0151 0.47767 0.07731 0.0
H2006 H 0.01509 0.54396 0.08833 0.0
H2007 H 0.99962 0.54069 0.05742 0.0
C2008 C 0.05204 0.53967 0.12981 0.0
C2009 C 0.04244 0.52066 0.14085 0.0
C2010 C 0.04411 0.53631 0.11165 0.0
C2011 C 0.02641 0.51382 0.10402 0.0
C2012 C 0.01754 0.49445 0.11479 0.0
C2013 C 0.02549 0.49784 0.13307 0.0
C2014 C 0.00271 0.48956 0.05531 0.0
C2015 C 0.99834 0.50729 0.04943 0.0
C2016 C 0.01166 0.49144 0.0731 0.0
C2017 C 0.01654 0.51119 0.0852 0.0
C2018 C 0.01189 0.52873 0.07926 0.0
C2019 C 0.00285 0.52677 0.06159 0.0
H2020 H 0.49432 0.55987 0.13288 0.0
H2021 H 0.47626 0.48763 0.14283 0.0
H2022 H 0.50165 0.5529 0.10214 0.0
H2023 H 0.48421 0.48071 0.11209 0.0
H2024 H 0.4845 0.47117 0.0505 0.0
H2025 H 0.47295 0.47616 0.08033 0.0
H2026 H 0.53013 0.54886 0.08769 0.0
H2027 H 0.54057 0.54418 0.05759 0.0
C2028 C 0.49199 0.54249 0.12847 0.0
C2029 C 0.48496 0.52438 0.1403 0.0
C2030 C 0.49628 0.5385 0.11086 0.0
C2031 C 0.4939 0.51636 0.10467 0.0
C2032 C 0.48608 0.49793 0.11634 0.0
C2033 C 0.48157 0.50188 0.13396 0.0
C2034 C 0.49418 0.48833 0.05841 0.0
C2035 C 0.513 0.50748 0.0516 0.0
C2036 C 0.48785 0.4911 0.0756 0.0
C2037 C 0.50044 0.51302 0.08639 0.0
C2038 C 0.51967 0.53191 0.07964 0.0
C2039 C 0.52584 0.52917 0.06246 0.0
H2040 H 0.99713 0.5135 0.85636 0.0
H2041 H 0.93467 0.45183 0.86902 0.0
H2042 H 0.01197 0.52125 0.88833 0.0
H2043 H 0.9492 0.4598 0.90087 0.0
H2044 H 0.97408 0.49701 0.95812 0.0
H2045 H 0.96111 0.49451 0.92654 0.0
H2046 H 0.02204 0.49557 0.91053 0.0
H2047 H 0.03505 0.49817 0.94241 0.0
C2048 C 0.98653 0.50183 0.86604 0.0
C2049 C 0.96483 0.48207 0.86034 0.0
C2050 C 0.99502 0.50617 0.88422 0.0
C2051 C 0.98168 0.49111 0.89698 0.0
C2052 C 0.95974 0.47175 0.8913 0.0
C2053 C 0.95148 0.46714 0.87312 0.0
C2054 C 0.98505 0.49751 0.94796 0.0
C2055 C 0.00581 0.4984 0.95272 0.0
C2056 C 0.97747 0.49572 0.92986 0.0
C2057 C 0.99066 0.495 0.91615 0.0
C2058 C 0.0117 0.49639 0.92088 0.0
C2059 C 0.01907 0.49776 0.93905 0.0
H2060 H 0.47676 0.46829 0.8572 0.0
H2061 H 0.54917 0.50093 0.87338 0.0
H2062 H 0.46956 0.47347 0.88809 0.0
H2063 H 0.54222 0.50815 0.9042 0.0
H2064 H 0.51878 0.48829 0.96035 0.0
H2065 H 0.52778 0.48759 0.92931 0.0
H2066 H 0.47146 0.4981 0.91235 0.0
H2067 H 0.46206 0.49767 0.94361 0.0
C2068 C 0.49124 0.47678 0.86733 0.0
C2069 C 0.51352 0.48369 0.86275 0.0
C2070 C 0.48713 0.48018 0.88512 0.0
C2071 C 0.50524 0.4911 0.89887 0.0
C2072 C 0.52771 0.49916 0.89413 0.0
C2073 C 0.53178 0.49538 0.87633 0.0
C2074 C 0.50864 0.4909 0.95004 0.0
C2075 C 0.48998 0.49342 0.95439 0.0
C2076 C 0.51378 0.49052 0.93214 0.0
C2077 C 0.50048 0.49291 0.91812 0.0
C2078 C 0.48192 0.49578 0.92263 0.0
C2079 C 0.47656 0.49569 0.94054 0.0
H2080 H 0.55106 0.03911 0.87684 0.0
H2081 H 0.47813 0.00802 0.86378 0.0
H2082 H 0.54383 0.02161 0.90545 0.0
H2083 H 0.47108 0.99299 0.89309 0.0
H2084 H 0.45989 0.9569 0.94368 0.0
H2085 H 0.46881 0.96663 0.91288 0.0
H2086 H 0.53466 0.02711 0.9336 0.0
H2087 H 0.52602 0.0159 0.96388 0.0
C2088 C 0.53346 0.02852 0.87997 0.0
C2089 C 0.51524 0.02537 0.86792 0.0
C2090 C 0.5293 0.01879 0.89664 0.0
C2091 C 0.50684 0.00607 0.90194 0.0
C2092 C 0.48862 0.00235 0.88963 0.0
C2093 C 0.49274 0.01153 0.87282 0.0
C2094 C 0.47643 0.97197 0.94149 0.0
C2095 C 0.4924 0.98562 0.95617 0.0
C2096 C 0.48151 0.97779 0.92384 0.0
C2097 C 0.50244 0.99794 0.9205 0.0
C2098 C 0.51857 0.01118 0.93533 0.0
C2099 C 0.51366 0.00485 0.95286 0.0
H2100 H 0.16928 0.33031 0.47699 0.0
H2101 H 0.10185 0.28295 0.45006 0.0
H2102 H 0.18289 0.34699 0.44861 0.0
H2103 H 0.11551 0.29955 0.42153 0.0
H2104 H 0.14381 0.34827 0.37584 0.0
H2105 H 0.12967 0.33542 0.40515 0.0
H2106 H 0.19117 0.33343 0.42059 0.0
H2107 H 0.20524 0.34642 0.39141 0.0
C2108 C 0.15737 0.32345 0.46498 0.0
C2109 C 0.13455 0.30515 0.46573 0.0
C2110 C 0.16517 0.33298 0.44871 0.0
C2111 C 0.15037 0.32444 0.43275 0.0
C2112 C 0.12732 0.30669 0.4336 0.0
C2113 C 0.11948 0.29716 0.44994 0.0
C2114 C 0.15434 0.34527 0.38562 0.0
C2115 C 0.17556 0.34825 0.3814 0.0
C2116 C 0.1462 0.33778 0.40234 0.0
C2117 C 0.15926 0.33335 0.41522 0.0
C2118 C 0.1808 0.33698 0.41109 0.0
C2119 C 0.18887 0.3444 0.39437 0.0
H2120 H 0.66465 0.84568 0.48136 0.0
H2121 H 0.71347 0.82299 0.47071 0.0
H2122 H 0.65178 0.83853 0.44932 0.0
H2123 H 0.7001 0.81513 0.43865 0.0
H2124 H 0.69482 0.84262 0.38298 0.0
H2125 H 0.70401 0.841 0.4147 0.0
H2126 H 0.63227 0.80843 0.42357 0.0
H2127 H 0.62309 0.81013 0.39165 0.0
C2128 C 0.67245 0.8389 0.47218 0.0
C2129 C 0.69025 0.83516 0.47854 0.0
C2130 C 0.66489 0.83453 0.45384 0.0
C2131 C 0.67499 0.82636 0.4414 0.0
C2132 C 0.69215 0.82167 0.44786 0.0
C2133 C 0.69966 0.82596 0.46625 0.0
C2134 C 0.68095 0.83464 0.39161 0.0
C2135 C 0.65823 0.82647 0.38486 0.0
C2136 C 0.68621 0.83366 0.4098 0.0
C2137 C 0.66888 0.82464 0.4217 0.0
C2138 C 0.64603 0.81572 0.41479 0.0
C2139 C 0.64076 0.8166 0.39653 0.0
H2140 H 0.15318 0.88805 0.46401 0.0
H2141 H 0.13863 0.81715 0.4749 0.0
H2142 H 0.1619 0.88163 0.43363 0.0
H2143 H 0.14793 0.81077 0.44447 0.0
H2144 H 0.15038 0.80227 0.38267 0.0
H2145 H 0.13758 0.80591 0.41225 0.0
H2146 H 0.19257 0.87966 0.42065 0.0
H2147 H 0.20441 0.87622 0.39082 0.0
C2148 C 0.15179 0.87102 0.45983 0.0
C2149 C 0.14547 0.85319 0.47186 0.0
C2150 C 0.15694 0.86739 0.44247 0.0
C2151 C 0.1561 0.84588 0.43669 0.0
C2152 C 0.1487 0.82754 0.44844 0.0
C2153 C 0.14336 0.83115 0.46586 0.0
C2154 C 0.15946 0.8193 0.39082 0.0
C2155 C 0.178 0.83912 0.38435 0.0
C2156 C 0.15233 0.82132 0.40784 0.0
C2157 C 0.16382 0.84318 0.41877 0.0
C2158 C 0.18293 0.86272 0.41244 0.0
C2159 C 0.18993 0.8607 0.39544 0.0
H2160 H 0.65708 0.85038 0.19219 0.0
H2161 H 0.60406 0.77896 0.20103 0.0
H2162 H 0.67053 0.85793 0.22437 0.0
H2163 H 0.61754 0.78637 0.23298 0.0
H2164 H 0.63343 0.81472 0.2918 0.0
H2165 H 0.61988 0.81186 0.26028 0.0
H2166 H 0.68932 0.84182 0.24558 0.0
H2167 H 0.70285 0.84527 0.27738 0.0
C2168 C 0.64824 0.8364 0.20104 0.0
C2169 C 0.62962 0.81405 0.19414 0.0
C2170 C 0.65601 0.84065 0.21938 0.0
C2171 C 0.64506 0.82274 0.23115 0.0
C2172 C 0.62618 0.80059 0.22426 0.0
C2173 C 0.6186 0.79627 0.20596 0.0
C2174 C 0.64584 0.8215 0.28194 0.0
C2175 C 0.66921 0.83087 0.28702 0.0
C2176 C 0.63807 0.81945 0.26385 0.0
C2177 C 0.65356 0.8267 0.25048 0.0
C2178 C 0.67704 0.8364 0.25563 0.0
C2179 C 0.68476 0.83825 0.27375 0.0
H2180 H 0.21482 0.83449 0.20943 0.0
H2181 H 0.14468 0.81087 0.19048 0.0
H2182 H 0.20655 0.84036 0.24031 0.0
H2183 H 0.1364 0.8163 0.22124 0.0
H2184 H 0.1245 0.79438 0.27954 0.0
H2185 H 0.13407 0.79408 0.2484 0.0
H2186 H 0.19402 0.86424 0.26058 0.0
H2187 H 0.18394 0.8648 0.2917 0.0
C2188 C 0.19778 0.83097 0.21179 0.0
C2189 C 0.18032 0.82184 0.19753 0.0
C2190 C 0.19304 0.83427 0.22947 0.0
C2191 C 0.17073 0.82841 0.2332 0.0
C2192 C 0.15362 0.82048 0.21882 0.0
C2193 C 0.15838 0.81734 0.2012 0.0
C2194 C 0.13961 0.80981 0.27552 0.0
C2195 C 0.15375 0.82942 0.28807 0.0
C2196 C 0.14508 0.80967 0.2577 0.0
C2197 C 0.16485 0.82912 0.25207 0.0
C2198 C 0.17886 0.84888 0.2646 0.0
C2199 C 0.17319 0.84913 0.2824 0.0
H2200 H 0.21941 0.38238 0.21411 0.0
H2201 H 0.14931 0.33544 0.1922 0.0
H2202 H 0.20993 0.36495 0.24304 0.0
H2203 H 0.13989 0.3181 0.22092 0.0
H2204 H 0.12551 0.3208 0.28021 0.0
H2205 H 0.13636 0.33385 0.25044 0.0
H2206 H 0.19676 0.32753 0.25905 0.0
H2207 H 0.18545 0.31393 0.28898 0.0
C2208 C 0.2021 0.36808 0.21538 0.0
C2209 C 0.18501 0.36056 0.20098 0.0
C2210 C 0.19668 0.35809 0.23192 0.0
C2211 C 0.17407 0.34041 0.23434 0.0
C2212 C 0.15733 0.33208 0.21962 0.0
C2213 C 0.16273 0.34202 0.20317 0.0
C2214 C 0.14095 0.32191 0.27567 0.0
C2215 C 0.15487 0.31675 0.28696 0.0
C2216 C 0.14718 0.32937 0.2586 0.0
C2217 C 0.16744 0.33174 0.25237 0.0
C2218 C 0.18121 0.32617 0.26357 0.0
C2219 C 0.17484 0.31852 0.28068 0.0
H2220 H 0.77037 0.63235 0.79419 0.0
H2221 H 0.84196 0.67593 0.81351 0.0
H2222 H 0.77943 0.64535 0.76412 0.0
H2223 H 0.85114 0.68819 0.7832 0.0
H2224 H 0.85862 0.71624 0.72737 0.0
H2225 H 0.8471 0.71008 0.75828 0.0
H2226 H 0.79877 0.63555 0.74149 0.0
H2227 H 0.8102 0.64169 0.71105 0.0
C2228 C 0.788 0.64501 0.79211 0.0
C2229 C 0.80546 0.65292 0.80625 0.0
C2230 C 0.79323 0.65227 0.77482 0.0
C2231 C 0.81605 0.66759 0.77121 0.0
C2232 C 0.83338 0.67648 0.78553 0.0
C2233 C 0.82814 0.66921 0.80285 0.0
C2234 C 0.84535 0.69868 0.73033 0.0
C2235 C 0.83522 0.67949 0.71681 0.0
C2236 C 0.83882 0.69511 0.748 0.0
C2237 C 0.82193 0.67234 0.75233 0.0
C2238 C 0.8115 0.65341 0.7386 0.0
C2239 C 0.81811 0.65693 0.72111 0.0
H2240 H 0.4009 0.22623 0.80109 0.0
H2241 H 0.35364 0.15165 0.80716 0.0
H2242 H 0.38644 0.22032 0.76954 0.0
H2243 H 0.33918 0.14569 0.77538 0.0
H2244 H 0.33295 0.14262 0.71246 0.0
H2245 H 0.34978 0.1464 0.74332 0.0
H2246 H 0.3497 0.21261 0.75463 0.0
H2247 H 0.3334 0.20902 0.72394 0.0
C2248 C 0.38739 0.20855 0.79568 0.0
C2249 C 0.37815 0.1895 0.80671 0.0
C2250 C 0.37914 0.20516 0.7776 0.0
C2251 C 0.36145 0.18262 0.77005 0.0
C2252 C 0.35289 0.16325 0.78081 0.0
C2253 C 0.36116 0.16666 0.799 0.0
C2254 C 0.33666 0.15798 0.72159 0.0
C2255 C 0.33206 0.17562 0.71585 0.0
C2256 C 0.34614 0.16007 0.73923 0.0
C2257 C 0.35123 0.1799 0.75134 0.0
C2258 C 0.34635 0.19734 0.74554 0.0
C2259 C 0.33684 0.1952 0.72801 0.0
H2260 H 0.85392 0.1939 0.8126 0.0
H2261 H 0.78304 0.16754 0.79414 0.0
H2262 H 0.86179 0.18729 0.78196 0.0
H2263 H 0.79092 0.1603 0.7634 0.0
H2264 H 0.81467 0.1333 0.71337 0.0
H2265 H 0.80472 0.13561 0.74436 0.0
H2266 H 0.86212 0.20787 0.75373 0.0
H2267 H 0.8714 0.20586 0.72267 0.0
C2268 C 0.83997 0.18662 0.80202 0.0
C2269 C 0.81793 0.18171 0.8058 0.0
C2270 C 0.8445 0.18277 0.78448 0.0
C2271 C 0.82705 0.1736 0.77028 0.0
C2272 C 0.80469 0.16736 0.77413 0.0
C2273 C 0.80018 0.17145 0.79173 0.0
C2274 C 0.82481 0.1498 0.72199 0.0
C2275 C 0.84345 0.16959 0.71555 0.0
C2276 C 0.81925 0.15106 0.73972 0.0
C2277 C 0.83263 0.17193 0.75143 0.0
C2278 C 0.85161 0.19148 0.74505 0.0
C2279 C 0.85692 0.19034 0.72729 0.0
H2280 H 0.33085 0.14306 0.52296 0.0
H2281 H 0.28935 0.17523 0.53342 0.0
H2282 H 0.3442 0.15012 0.55476 0.0
H2283 H 0.30398 0.18385 0.56508 0.0
H2284 H 0.30875 0.16316 0.62259 0.0
H2285 H 0.29874 0.16224 0.59064 0.0
H2286 H 0.36678 0.17797 0.57933 0.0
H2287 H 0.37639 0.17822 0.61147 0.0
C2288 C 0.32472 0.15185 0.53201 0.0
C2289 C 0.30874 0.15823 0.52561 0.0
C2290 C 0.33269 0.15627 0.55026 0.0
C2291 C 0.3251 0.16746 0.5626 0.0
C2292 C 0.3099 0.17481 0.55605 0.0
C2293 C 0.30174 0.17017 0.53781 0.0
C2294 C 0.32172 0.16706 0.61332 0.0
C2295 C 0.34343 0.17116 0.61947 0.0
C2296 C 0.316 0.16648 0.59495 0.0
C2297 C 0.33195 0.17009 0.5823 0.0
C2298 C 0.35393 0.17476 0.58861 0.0
C2299 C 0.35953 0.17507 0.60701 0.0
H2300 H 0.81306 0.10816 0.5283 0.0
H2301 H 0.87062 0.18075 0.53441 0.0
H2302 H 0.80473 0.11278 0.55857 0.0
H2303 H 0.86428 0.18409 0.56586 0.0
H2304 H 0.8347 0.19289 0.61748 0.0
H2305 H 0.84402 0.18988 0.58662 0.0
H2306 H 0.81245 0.11289 0.58784 0.0
H2307 H 0.80119 0.11613 0.61777 0.0
C2308 C 0.82408 0.12522 0.53601 0.0
C2309 C 0.84231 0.14422 0.5284 0.0
C2310 C 0.81964 0.12764 0.55383 0.0
C2311 C 0.83385 0.14878 0.56511 0.0
C2312 C 0.85254 0.16762 0.55771 0.0
C2313 C 0.85651 0.1655 0.53959 0.0
C2314 C 0.82963 0.17539 0.61091 0.0
C2315 C 0.8169 0.15471 0.61973 0.0
C2316 C 0.8352 0.17358 0.59326 0.0
C2317 C 0.82884 0.15106 0.58429 0.0
C2318 C 0.81694 0.13051 0.59371 0.0
C2319 C 0.81062 0.1323 0.61103 0.0
H2320 H 0.87946 0.71292 0.54518 0.0
H2321 H 0.81579 0.65214 0.52188 0.0
H2322 H 0.87226 0.69711 0.57456 0.0
H2323 H 0.80893 0.63546 0.55106 0.0
H2324 H 0.79003 0.63045 0.6098 0.0
H2325 H 0.79793 0.64126 0.57906 0.0
H2326 H 0.87016 0.66865 0.59329 0.0
H2327 H 0.862 0.65871 0.62418 0.0
C2328 C 0.86414 0.69587 0.54632 0.0
C2329 C 0.84812 0.6838 0.53133 0.0
C2330 C 0.86002 0.68667 0.56315 0.0
C2331 C 0.83993 0.66494 0.56533 0.0
C2332 C 0.82433 0.65246 0.55007 0.0
C2333 C 0.82829 0.66191 0.53331 0.0
C2334 C 0.8075 0.63839 0.60617 0.0
C2335 C 0.82547 0.64395 0.61928 0.0
C2336 C 0.8121 0.64457 0.58854 0.0
C2337 C 0.83478 0.65612 0.58359 0.0
C2338 C 0.85257 0.66041 0.59663 0.0
C2339 C 0.84795 0.65461 0.61433 0.0
loop_
_geom_bond_atom_site_label_1
_geom_bond_atom_site_label_2
_geom_bond_distance
_geom_bond_site_symmetry_2
_ccdc_geom_bond_type
C0 C1 1.391 . S
C0 C4 1.391 . S
C0 H42 0.948 . S
C1 C0 1.391 . S
C1 C2 1.391 . S
C2 C1 1.391 . S
C2 H58 0.947 . S
C2 C59 1.392 . S
C3 C4 1.391 . S
C3 C7 1.397 . S
C3 C59 1.419 . S
C4 C0 1.391 . S
C4 C3 1.391 . S
C4 C5 1.399 . S
C5 C4 1.399 . S
C5 C8 1.396 . S
C5 C17 1.453 . S
C5 C18 1.684 . S
H6 C30 0.948 . S
C7 C3 1.397 . S
C7 C8 1.394 . S
C7 C26 1.723 . S
C8 C5 1.396 . S
C8 C7 1.394 . S
C8 C38 1.723 . S
H9 C32 0.947 . S
H10 C33 0.948 . S
H11 C39 0.982 . S
H12 C40 0.979 . S
H13 C40 0.980 . S
H14 C40 0.983 . S
H15 C39 0.979 . S
H16 C39 0.977 . S
C17 C5 1.453 . S
C17 H46 0.982 . S
C17 H47 0.979 . S
C17 H48 0.977 . S
C18 C5 1.684 . S
C18 H43 0.979 . S
C18 H44 0.980 . S
C18 H45 0.983 . S
C19 C20 1.391 . S
C19 C24 1.391 . S
C19 H49 0.948 . S
C20 C19 1.391 . S
C20 C21 1.391 . S
C21 C20 1.391 . S
C21 C22 1.392 . S
C21 H50 0.947 . S
C22 C21 1.392 . S
C22 C23 1.419 . S
C22 H51 0.948 . S
C23 C22 1.419 . S
C23 C24 1.391 . S
C23 C27 1.397 . S
C24 C19 1.391 . S
C24 C23 1.391 . S
C24 C25 1.399 . S
C25 C24 1.399 . S
C25 C26 1.396 . S
C25 C28 1.453 . S
C25 C29 1.684 . S
C26 C7 1.723 . S
C26 C25 1.396 . S
C26 C27 1.394 . S
C27 C23 1.397 . S
C27 C26 1.394 . S
C27 C37 1.723 . S
C28 C25 1.453 . S
C28 H52 0.982 . S
C28 H53 0.979 . S
C28 H54 0.977 . S
C29 C25 1.684 . S
C29 H55 0.979 . S
C29 H56 0.980 . S
C29 H57 0.983 . S
C30 H6 0.948 . S
C30 C31 1.391 . S
C30 C35 1.391 . S
C31 C30 1.391 . S
C31 C32 1.391 . S
C32 H9 0.947 . S
C32 C31 1.391 . S
C32 C33 1.392 . S
C33 H10 0.948 . S
C33 C32 1.392 . S
C33 C34 1.419 . S
C34 C33 1.419 . S
C34 C35 1.391 . S
C34 C38 1.397 . S
C35 C30 1.391 . S
C35 C34 1.391 . S
C35 C36 1.399 . S
C36 C35 1.399 . S
C36 C37 1.396 . S
C36 C39 1.453 . S
C36 C40 1.684 . S
C37 C27 1.723 . S
C37 C36 1.396 . S
C37 C38 1.394 . S
C38 C8 1.723 . S
C38 C34 1.397 . S
C38 C37 1.394 . S
C39 H11 0.982 . S
C39 H15 0.979 . S
C39 H16 0.977 . S
C39 C36 1.453 . S
C40 H12 0.979 . S
C40 H13 0.980 . S
C40 H14 0.983 . S
C40 C36 1.684 . S
H41 C59 0.948 . S
H42 C0 0.948 . S
H43 C18 0.979 . S
H44 C18 0.980 . S
H45 C18 0.983 . S
H46 C17 0.982 . S
H47 C17 0.979 . S
H48 C17 0.977 . S
H49 C19 0.948 . S
H50 C21 0.947 . S
H51 C22 0.948 . S
H52 C28 0.982 . S
H53 C28 0.979 . S
H54 C28 0.977 . S
H55 C29 0.979 . S
H56 C29 0.980 . S
H57 C29 0.983 . S
H58 C2 0.947 . S
C59 C2 1.392 . S
C59 C3 1.419 . S
C59 H41 0.948 . S
C60 C61 1.391 . S
C60 C64 1.391 . S
C60 H102 0.948 . S
C61 C60 1.391 . S
C61 C62 1.391 . S
C62 C61 1.391 . S
C62 H118 0.947 . S
C62 C119 1.392 . S
C63 C64 1.391 . S
C63 C67 1.397 . S
C63 C119 1.419 . S
C64 C60 1.391 . S
C64 C63 1.391 . S
C64 C65 1.399 . S
C65 C64 1.399 . S
C65 C68 1.396 . S
C65 C77 1.453 . S
C65 C78 1.684 . S
H66 C90 0.948 . S
C67 C63 1.397 . S
C67 C68 1.394 . S
C67 C86 1.723 . S
C68 C65 1.396 . S
C68 C67 1.394 . S
C68 C98 1.723 . S
H69 C92 0.947 . S
H70 C93 0.948 . S
H71 C99 0.982 . S
H72 C100 0.979 . S
H73 C100 0.980 . S
H74 C100 0.983 . S
H75 C99 0.979 . S
H76 C99 0.977 . S
C77 C65 1.453 . S
C77 H106 0.982 . S
C77 H107 0.979 . S
C77 H108 0.977 . S
C78 C65 1.684 . S
C78 H103 0.979 . S
C78 H104 0.980 . S
C78 H105 0.983 . S
C79 C80 1.391 . S
C79 C84 1.391 . S
C79 H109 0.948 . S
C80 C79 1.391 . S
C80 C81 1.391 . S
C81 C80 1.391 . S
C81 C82 1.392 . S
C81 H110 0.947 . S
C82 C81 1.392 . S
C82 C83 1.419 . S
C82 H111 0.948 . S
C83 C82 1.419 . S
C83 C84 1.391 . S
C83 C87 1.397 . S
C84 C79 1.391 . S
C84 C83 1.391 . S
C84 C85 1.399 . S
C85 C84 1.399 . S
C85 C86 1.396 . S
C85 C88 1.453 . S
C85 C89 1.684 . S
C86 C67 1.723 . S
C86 C85 1.396 . S
C86 C87 1.394 . S
C87 C83 1.397 . S
C87 C86 1.394 . S
C87 C97 1.723 . S
C88 C85 1.453 . S
C88 H112 0.982 . S
C88 H113 0.979 . S
C88 H114 0.977 . S
C89 C85 1.684 . S
C89 H115 0.979 . S
C89 H116 0.980 . S
C89 H117 0.983 . S
C90 H66 0.948 . S
C90 C91 1.391 . S
C90 C95 1.391 . S
C91 C90 1.391 . S
C91 C92 1.391 . S
C92 H69 0.947 . S
C92 C91 1.391 . S
C92 C93 1.392 . S
C93 H70 0.948 . S
C93 C92 1.392 . S
C93 C94 1.419 . S
C94 C93 1.419 . S
C94 C95 1.391 . S
C94 C98 1.397 . S
C95 C90 1.391 . S
C95 C94 1.391 . S
C95 C96 1.399 . S
C96 C95 1.399 . S
C96 C97 1.396 . S
C96 C99 1.453 . S
C96 C100 1.684 . S
C97 C87 1.723 . S
C97 C96 1.396 . S
C97 C98 1.394 . S
C98 C68 1.723 . S
C98 C94 1.397 . S
C98 C97 1.394 . S
C99 H71 0.982 . S
C99 H75 0.979 . S
C99 H76 0.977 . S
C99 C96 1.453 . S
C100 H72 0.979 . S
C100 H73 0.980 . S
C100 H74 0.983 . S
C100 C96 1.684 . S
H101 C119 0.948 . S
H102 C60 0.948 . S
H103 C78 0.979 . S
H104 C78 0.980 . S
H105 C78 0.983 . S
H106 C77 0.982 . S
H107 C77 0.979 . S
H108 C77 0.977 . S
H109 C79 0.948 . S
H110 C81 0.947 . S
H111 C82 0.948 . S
H112 C88 0.982 . S
H113 C88 0.979 . S
H114 C88 0.977 . S
H115 C89 0.979 . S
H116 C89 0.980 . S
H117 C89 0.983 . S
H118 C62 0.947 . S
C119 C62 1.392 . S
C119 C63 1.419 . S
C119 H101 0.948 . S
C120 C121 1.391 . S
C120 C124 1.391 . S
C120 H162 0.948 . S
C121 C120 1.391 . S
C121 C122 1.391 . S
C122 C121 1.391 . S
C122 H178 0.947 . S
C122 C179 1.392 . S
C123 C124 1.391 . S
C123 C127 1.397 . S
C123 C179 1.419 . S
C124 C120 1.391 . S
C124 C123 1.391 . S
C124 C125 1.399 . S
C125 C124 1.399 . S
C125 C128 1.396 . S
C125 C137 1.453 . S
C125 C138 1.684 . S
H126 C150 0.948 . S
C127 C123 1.397 . S
C127 C128 1.394 . S
C127 C146 1.723 . S
C128 C125 1.396 . S
C128 C127 1.394 . S
C128 C158 1.723 . S
H129 C152 0.947 . S
H130 C153 0.948 . S
H131 C159 0.982 . S
H132 C160 0.979 . S
H133 C160 0.980 . S
H134 C160 0.983 . S
H135 C159 0.979 . S
H136 C159 0.977 . S
C137 C125 1.453 . S
C137 H166 0.982 . S
C137 H167 0.979 . S
C137 H168 0.977 . S
C138 C125 1.684 . S
C138 H163 0.979 . S
C138 H164 0.980 . S
C138 H165 0.983 . S
C139 C140 1.391 . S
C139 C144 1.391 . S
C139 H169 0.948 . S
C140 C139 1.391 . S
C140 C141 1.391 . S
C141 C140 1.391 . S
C141 C142 1.392 . S
C141 H170 0.947 . S
C142 C141 1.392 . S
C142 C143 1.419 . S
C142 H171 0.948 . S
C143 C142 1.419 . S
C143 C144 1.391 . S
C143 C147 1.397 . S
C144 C139 1.391 . S
C144 C143 1.391 . S
C144 C145 1.399 . S
C145 C144 1.399 . S
C145 C146 1.396 . S
C145 C148 1.453 . S
C145 C149 1.684 . S
C146 C127 1.723 . S
C146 C145 1.396 . S
C146 C147 1.394 . S
C147 C143 1.397 . S
C147 C146 1.394 . S
C147 C157 1.723 . S
C148 C145 1.453 . S
C148 H172 0.982 . S
C148 H173 0.979 . S
C148 H174 0.977 . S
C149 C145 1.684 . S
C149 H175 0.979 . S
C149 H176 0.980 . S
C149 H177 0.983 . S
C150 H126 0.948 . S
C150 C151 1.391 . S
C150 C155 1.391 . S
C151 C150 1.391 . S
C151 C152 1.391 . S
C152 H129 0.947 . S
C152 C151 1.391 . S
C152 C153 1.392 . S
C153 H130 0.948 . S
C153 C152 1.392 . S
C153 C154 1.419 . S
C154 C153 1.419 . S
C154 C155 1.391 . S
C154 C158 1.397 . S
C155 C150 1.391 . S
C155 C154 1.391 . S
C155 C156 1.399 . S
C156 C155 1.399 . S
C156 C157 1.396 . S
C156 C159 1.453 . S
C156 C160 1.684 . S
C157 C147 1.723 . S
C157 C156 1.396 . S
C157 C158 1.394 . S
C158 C128 1.723 . S
C158 C154 1.397 . S
C158 C157 1.394 . S
C159 H131 0.982 . S
C159 H135 0.979 . S
C159 H136 0.977 . S
C159 C156 1.453 . S
C160 H132 0.979 . S
C160 H133 0.980 . S
C160 H134 0.983 . S
C160 C156 1.684 . S
H161 C179 0.948 . S
H162 C120 0.948 . S
H163 C138 0.979 . S
H164 C138 0.980 . S
H165 C138 0.983 . S
H166 C137 0.982 . S
H167 C137 0.979 . S
H168 C137 0.977 . S
H169 C139 0.948 . S
H170 C141 0.947 . S
H171 C142 0.948 . S
H172 C148 0.982 . S
H173 C148 0.979 . S
H174 C148 0.977 . S
H175 C149 0.979 . S
H176 C149 0.980 . S
H177 C149 0.983 . S
H178 C122 0.947 . S
C179 C122 1.392 . S
C179 C123 1.419 . S
C179 H161 0.948 . S
C180 C181 1.391 . S
C180 C184 1.391 . S
C180 H222 0.948 . S
C181 C180 1.391 . S
C181 C182 1.391 . S
C182 C181 1.391 . S
C182 H238 0.947 . S
C182 C239 1.392 . S
C183 C184 1.391 . S
C183 C187 1.397 . S
C183 C239 1.419 . S
C184 C180 1.391 . S
C184 C183 1.391 . S
C184 C185 1.399 . S
C185 C184 1.399 . S
C185 C188 1.396 . S
C185 C197 1.453 . S
C185 C198 1.684 . S
H186 C210 0.948 . S
C187 C183 1.397 . S
C187 C188 1.394 . S
C187 C206 1.723 . S
C188 C185 1.396 . S
C188 C187 1.394 . S
C188 C218 1.723 . S
H189 C212 0.947 . S
H190 C213 0.948 . S
H191 C219 0.982 . S
H192 C220 0.979 . S
H193 C220 0.980 . S
H194 C220 0.983 . S
H195 C219 0.979 . S
H196 C219 0.977 . S
C197 C185 1.453 . S
C197 H226 0.982 . S
C197 H227 0.979 . S
C197 H228 0.977 . S
C198 C185 1.684 . S
C198 H223 0.979 . S
C198 H224 0.980 . S
C198 H225 0.983 . S
C199 C200 1.391 . S
C199 C204 1.391 . S
C199 H229 0.948 . S
C200 C199 1.391 . S
C200 C201 1.391 . S
C201 C200 1.391 . S
C201 C202 1.392 . S
C201 H230 0.947 . S
C202 C201 1.392 . S
C202 C203 1.419 . S
C202 H231 0.948 . S
C203 C202 1.419 . S
C203 C204 1.391 . S
C203 C207 1.397 . S
C204 C199 1.391 . S
C204 C203 1.391 . S
C204 C205 1.399 . S
C205 C204 1.399 . S
C205 C206 1.396 . S
C205 C208 1.453 . S
C205 C209 1.684 . S
C206 C187 1.723 . S
C206 C205 1.396 . S
C206 C207 1.394 . S
C207 C203 1.397 . S
C207 C206 1.394 . S
C207 C217 1.723 . S
C208 C205 1.453 . S
C208 H232 0.982 . S
C208 H233 0.979 . S
C208 H234 0.977 . S
C209 C205 1.684 . S
C209 H235 0.979 . S
C209 H236 0.980 . S
C209 H237 0.983 . S
C210 H186 0.948 . S
C210 C211 1.391 . S
C210 C215 1.391 . S
C211 C210 1.391 . S
C211 C212 1.391 . S
C212 H189 0.947 . S
C212 C211 1.391 . S
C212 C213 1.392 . S
C213 H190 0.948 . S
C213 C212 1.392 . S
C213 C214 1.419 . S
C214 C213 1.419 . S
C214 C215 1.391 . S
C214 C218 1.397 . S
C215 C210 1.391 . S
C215 C214 1.391 . S
C215 C216 1.399 . S
C216 C215 1.399 . S
C216 C217 1.396 . S
C216 C219 1.453 . S
C216 C220 1.684 . S
C217 C207 1.723 . S
C217 C216 1.396 . S
C217 C218 1.394 . S
C218 C188 1.723 . S
C218 C214 1.397 . S
C218 C217 1.394 . S
C219 H191 0.982 . S
C219 H195 0.979 . S
C219 H196 0.977 . S
C219 C216 1.453 . S
C220 H192 0.979 . S
C220 H193 0.980 . S
C220 H194 0.983 . S
C220 C216 1.684 . S
H221 C239 0.948 . S
H222 C180 0.948 . S
H223 C198 0.979 . S
H224 C198 0.980 . S
H225 C198 0.983 . S
H226 C197 0.982 . S
H227 C197 0.979 . S
H228 C197 0.977 . S
H229 C199 0.948 . S
H230 C201 0.947 . S
H231 C202 0.948 . S
H232 C208 0.982 . S
H233 C208 0.979 . S
H234 C208 0.977 . S
H235 C209 0.979 . S
H236 C209 0.980 . S
H237 C209 0.983 . S
H238 C182 0.947 . S
C239 C182 1.392 . S
C239 C183 1.419 . S
C239 H221 0.948 . S
C240 C241 1.391 . S
C240 C244 1.391 . S
C240 H282 0.948 . S
C241 C240 1.391 . S
C241 C242 1.391 . S
C242 C241 1.391 . S
C242 H298 0.947 . S
C242 C299 1.392 . S
C243 C244 1.391 . S
C243 C247 1.397 . S
C243 C299 1.419 . S
C244 C240 1.391 . S
C244 C243 1.391 . S
C244 C245 1.399 . S
C245 C244 1.399 . S
C245 C248 1.396 . S
C245 C257 1.453 . S
C245 C258 1.684 . S
H246 C270 0.948 . S
C247 C243 1.397 . S
C247 C248 1.394 . S
C247 C266 1.723 . S
C248 C245 1.396 . S
C248 C247 1.394 . S
C248 C278 1.723 . S
H249 C272 0.947 . S
H250 C273 0.948 . S
H251 C279 0.982 . S
H252 C280 0.979 . S
H253 C280 0.980 . S
H254 C280 0.983 . S
H255 C279 0.979 . S
H256 C279 0.977 . S
C257 C245 1.453 . S
C257 H286 0.982 . S
C257 H287 0.979 . S
C257 H288 0.977 . S
C258 C245 1.684 . S
C258 H283 0.979 . S
C258 H284 0.980 . S
C258 H285 0.983 . S
C259 C260 1.391 . S
C259 C264 1.391 . S
C259 H289 0.948 . S
C260 C259 1.391 . S
C260 C261 1.391 . S
C261 C260 1.391 . S
C261 C262 1.392 . S
C261 H290 0.947 . S
C262 C261 1.392 . S
C262 C263 1.419 . S
C262 H291 0.948 . S
C263 C262 1.419 . S
C263 C264 1.391 . S
C263 C267 1.397 . S
C264 C259 1.391 . S
C264 C263 1.391 . S
C264 C265 1.399 . S
C265 C264 1.399 . S
C265 C266 1.396 . S
C265 C268 1.453 . S
C265 C269 1.684 . S
C266 C247 1.723 . S
C266 C265 1.396 . S
C266 C267 1.394 . S
C267 C263 1.397 . S
C267 C266 1.394 . S
C267 C277 1.723 . S
C268 C265 1.453 . S
C268 H292 0.982 . S
C268 H293 0.979 . S
C268 H294 0.977 . S
C269 C265 1.684 . S
C269 H295 0.979 . S
C269 H296 0.980 . S
C269 H297 0.983 . S
C270 H246 0.948 . S
C270 C271 1.391 . S
C270 C275 1.391 . S
C271 C270 1.391 . S
C271 C272 1.391 . S
C272 H249 0.947 . S
C272 C271 1.391 . S
C272 C273 1.392 . S
C273 H250 0.948 . S
C273 C272 1.392 . S
C273 C274 1.419 . S
C274 C273 1.419 . S
C274 C275 1.391 . S
C274 C278 1.397 . S
C275 C270 1.391 . S
C275 C274 1.391 . S
C275 C276 1.399 . S
C276 C275 1.399 . S
C276 C277 1.396 . S
C276 C279 1.453 . S
C276 C280 1.684 . S
C277 C267 1.723 . S
C277 C276 1.396 . S
C277 C278 1.394 . S
C278 C248 1.723 . S
C278 C274 1.397 . S
C278 C277 1.394 . S
C279 H251 0.982 . S
C279 H255 0.979 . S
C279 H256 0.977 . S
C279 C276 1.453 . S
C280 H252 0.979 . S
C280 H253 0.980 . S
C280 H254 0.983 . S
C280 C276 1.684 . S
H281 C299 0.948 . S
H282 C240 0.948 . S
H283 C258 0.979 . S
H284 C258 0.980 . S
H285 C258 0.983 . S
H286 C257 0.982 . S
H287 C257 0.979 . S
H288 C257 0.977 . S
H289 C259 0.948 . S
H290 C261 0.947 . S
H291 C262 0.948 . S
H292 C268 0.982 . S
H293 C268 0.979 . S
H294 C268 0.977 . S
H295 C269 0.979 . S
H296 C269 0.980 . S
H297 C269 0.983 . S
H298 C242 0.947 . S
C299 C242 1.392 . S
C299 C243 1.419 . S
C299 H281 0.948 . S
C300 C301 1.391 . S
C300 C304 1.391 . S
C300 H342 0.948 . S
C301 C300 1.391 . S
C301 C302 1.391 . S
C302 C301 1.391 . S
C302 H358 0.947 . S
C302 C359 1.392 . S
C303 C304 1.391 . S
C303 C307 1.397 . S
C303 C359 1.419 . S
C304 C300 1.391 . S
C304 C303 1.391 . S
C304 C305 1.399 . S
C305 C304 1.399 . S
C305 C308 1.396 . S
C305 C317 1.453 . S
C305 C318 1.684 . S
H306 C330 0.948 . S
C307 C303 1.397 . S
C307 C308 1.394 . S
C307 C326 1.723 . S
C308 C305 1.396 . S
C308 C307 1.394 . S
C308 C338 1.723 . S
H309 C332 0.947 . S
H310 C333 0.948 . S
H311 C339 0.982 . S
H312 C340 0.979 . S
H313 C340 0.980 . S
H314 C340 0.983 . S
H315 C339 0.979 . S
H316 C339 0.977 . S
C317 C305 1.453 . S
C317 H346 0.982 . S
C317 H347 0.979 . S
C317 H348 0.977 . S
C318 C305 1.684 . S
C318 H343 0.979 . S
C318 H344 0.980 . S
C318 H345 0.983 . S
C319 C320 1.391 . S
C319 C324 1.391 . S
C319 H349 0.948 . S
C320 C319 1.391 . S
C320 C321 1.391 . S
C321 C320 1.391 . S
C321 C322 1.392 . S
C321 H350 0.947 . S
C322 C321 1.392 . S
C322 C323 1.419 . S
C322 H351 0.948 . S
C323 C322 1.419 . S
C323 C324 1.391 . S
C323 C327 1.397 . S
C324 C319 1.391 . S
C324 C323 1.391 . S
C324 C325 1.399 . S
C325 C324 1.399 . S
C325 C326 1.396 . S
C325 C328 1.453 . S
C325 C329 1.684 . S
C326 C307 1.723 . S
C326 C325 1.396 . S
C326 C327 1.394 . S
C327 C323 1.397 . S
C327 C326 1.394 . S
C327 C337 1.723 . S
C328 C325 1.453 . S
C328 H352 0.982 . S
C328 H353 0.979 . S
C328 H354 0.977 . S
C329 C325 1.684 . S
C329 H355 0.979 . S
C329 H356 0.980 . S
C329 H357 0.983 . S
C330 H306 0.948 . S
C330 C331 1.391 . S
C330 C335 1.391 . S
C331 C330 1.391 . S
C331 C332 1.391 . S
C332 H309 0.947 . S
C332 C331 1.391 . S
C332 C333 1.392 . S
C333 H310 0.948 . S
C333 C332 1.392 . S
C333 C334 1.419 . S
C334 C333 1.419 . S
C334 C335 1.391 . S
C334 C338 1.397 . S
C335 C330 1.391 . S
C335 C334 1.391 . S
C335 C336 1.399 . S
C336 C335 1.399 . S
C336 C337 1.396 . S
C336 C339 1.453 . S
C336 C340 1.684 . S
C337 C327 1.723 . S
C337 C336 1.396 . S
C337 C338 1.394 . S
C338 C308 1.723 . S
C338 C334 1.397 . S
C338 C337 1.394 . S
C339 H311 0.982 . S
C339 H315 0.979 . S
C339 H316 0.977 . S
C339 C336 1.453 . S
C340 H312 0.979 . S
C340 H313 0.980 . S
C340 H314 0.983 . S
C340 C336 1.684 . S
H341 C359 0.948 . S
H342 C300 0.948 . S
H343 C318 0.979 . S
H344 C318 0.980 . S
H345 C318 0.983 . S
H346 C317 0.982 . S
H347 C317 0.979 . S
H348 C317 0.977 . S
H349 C319 0.948 . S
H350 C321 0.947 . S
H351 C322 0.948 . S
H352 C328 0.982 . S
H353 C328 0.979 . S
H354 C328 0.977 . S
H355 C329 0.979 . S
H356 C329 0.980 . S
H357 C329 0.983 . S
H358 C302 0.947 . S
C359 C302 1.392 . S
C359 C303 1.419 . S
C359 H341 0.948 . S
C360 C361 1.391 . S
C360 C364 1.391 . S
C360 H402 0.948 . S
C361 C360 1.391 . S
C361 C362 1.391 . S
C362 C361 1.391 . S
C362 H418 0.947 . S
C362 C419 1.392 . S
C363 C364 1.391 . S
C363 C367 1.397 . S
C363 C419 1.419 . S
C364 C360 1.391 . S
C364 C363 1.391 . S
C364 C365 1.399 . S
C365 C364 1.399 . S
C365 C368 1.396 . S
C365 C377 1.453 . S
C365 C378 1.684 . S
H366 C390 0.948 . S
C367 C363 1.397 . S
C367 C368 1.394 . S
C367 C386 1.723 . S
C368 C365 1.396 . S
C368 C367 1.394 . S
C368 C398 1.723 . S
H369 C392 0.947 . S
H370 C393 0.948 . S
H371 C399 0.982 . S
H372 C400 0.979 . S
H373 C400 0.980 . S
H374 C400 0.983 . S
H375 C399 0.979 . S
H376 C399 0.977 . S
C377 C365 1.453 . S
C377 H406 0.982 . S
C377 H407 0.979 . S
C377 H408 0.977 . S
C378 C365 1.684 . S
C378 H403 0.979 . S
C378 H404 0.980 . S
C378 H405 0.983 . S
C379 C380 1.391 . S
C379 C384 1.391 . S
C379 H409 0.948 . S
C380 C379 1.391 . S
C380 C381 1.391 . S
C381 C380 1.391 . S
C381 C382 1.392 . S
C381 H410 0.947 . S
C382 C381 1.392 . S
C382 C383 1.419 . S
C382 H411 0.948 . S
C383 C382 1.419 . S
C383 C384 1.391 . S
C383 C387 1.397 . S
C384 C379 1.391 . S
C384 C383 1.391 . S
C384 C385 1.399 . S
C385 C384 1.399 . S
C385 C386 1.396 . S
C385 C388 1.453 . S
C385 C389 1.684 . S
C386 C367 1.723 . S
C386 C385 1.396 . S
C386 C387 1.394 . S
C387 C383 1.397 . S
C387 C386 1.394 . S
C387 C397 1.723 . S
C388 C385 1.453 . S
C388 H412 0.982 . S
C388 H413 0.979 . S
C388 H414 0.977 . S
C389 C385 1.684 . S
C389 H415 0.979 . S
C389 H416 0.980 . S
C389 H417 0.983 . S
C390 H366 0.948 . S
C390 C391 1.391 . S
C390 C395 1.391 . S
C391 C390 1.391 . S
C391 C392 1.391 . S
C392 H369 0.947 . S
C392 C391 1.391 . S
C392 C393 1.392 . S
C393 H370 0.948 . S
C393 C392 1.392 . S
C393 C394 1.419 . S
C394 C393 1.419 . S
C394 C395 1.391 . S
C394 C398 1.397 . S
C395 C390 1.391 . S
C395 C394 1.391 . S
C395 C396 1.399 . S
C396 C395 1.399 . S
C396 C397 1.396 . S
C396 C399 1.453 . S
C396 C400 1.684 . S
C397 C387 1.723 . S
C397 C396 1.396 . S
C397 C398 1.394 . S
C398 C368 1.723 . S
C398 C394 1.397 . S
C398 C397 1.394 . S
C399 H371 0.982 . S
C399 H375 0.979 . S
C399 H376 0.977 . S
C399 C396 1.453 . S
C400 H372 0.979 . S
C400 H373 0.980 . S
C400 H374 0.983 . S
C400 C396 1.684 . S
H401 C419 0.948 . S
H402 C360 0.948 . S
H403 C378 0.979 . S
H404 C378 0.980 . S
H405 C378 0.983 . S
H406 C377 0.982 . S
H407 C377 0.979 . S
H408 C377 0.977 . S
H409 C379 0.948 . S
H410 C381 0.947 . S
H411 C382 0.948 . S
H412 C388 0.982 . S
H413 C388 0.979 . S
H414 C388 0.977 . S
H415 C389 0.979 . S
H416 C389 0.980 . S
H417 C389 0.983 . S
H418 C362 0.947 . S
C419 C362 1.392 . S
C419 C363 1.419 . S
C419 H401 0.948 . S
C420 C421 1.391 . S
C420 C424 1.391 . S
C420 H462 0.948 . S
C421 C420 1.391 . S
C421 C422 1.391 . S
C422 C421 1.391 . S
C422 H478 0.947 . S
C422 C479 1.392 . S
C423 C424 1.391 . S
C423 C427 1.397 . S
C423 C479 1.419 . S
C424 C420 1.391 . S
C424 C423 1.391 . S
C424 C425 1.399 . S
C425 C424 1.399 . S
C425 C428 1.396 . S
C425 C437 1.453 . S
C425 C438 1.684 . S
H426 C450 0.948 . S
C427 C423 1.397 . S
C427 C428 1.394 . S
C427 C446 1.723 . S
C428 C425 1.396 . S
C428 C427 1.394 . S
C428 C458 1.723 . S
H429 C452 0.947 . S
H430 C453 0.948 . S
H431 C459 0.982 . S
H432 C460 0.979 . S
H433 C460 0.980 . S
H434 C460 0.983 . S
H435 C459 0.979 . S
H436 C459 0.977 . S
C437 C425 1.453 . S
C437 H466 0.982 . S
C437 H467 0.979 . S
C437 H468 0.977 . S
C438 C425 1.684 . S
C438 H463 0.979 . S
C438 H464 0.980 . S
C438 H465 0.983 . S
C439 C440 1.391 . S
C439 C444 1.391 . S
C439 H469 0.948 . S
C440 C439 1.391 . S
C440 C441 1.391 . S
C441 C440 1.391 . S
C441 C442 1.392 . S
C441 H470 0.947 . S
C442 C441 1.392 . S
C442 C443 1.419 . S
C442 H471 0.948 . S
C443 C442 1.419 . S
C443 C444 1.391 . S
C443 C447 1.397 . S
C444 C439 1.391 . S
C444 C443 1.391 . S
C444 C445 1.399 . S
C445 C444 1.399 . S
C445 C446 1.396 . S
C445 C448 1.453 . S
C445 C449 1.684 . S
C446 C427 1.723 . S
C446 C445 1.396 . S
C446 C447 1.394 . S
C447 C443 1.397 . S
C447 C446 1.394 . S
C447 C457 1.723 . S
C448 C445 1.453 . S
C448 H472 0.982 . S
C448 H473 0.979 . S
C448 H474 0.977 . S
C449 C445 1.684 . S
C449 H475 0.979 . S
C449 H476 0.980 . S
C449 H477 0.983 . S
C450 H426 0.948 . S
C450 C451 1.391 . S
C450 C455 1.391 . S
C451 C450 1.391 . S
C451 C452 1.391 . S
C452 H429 0.947 . S
C452 C451 1.391 . S
C452 C453 1.392 . S
C453 H430 0.948 . S
C453 C452 1.392 . S
C453 C454 1.419 . S
C454 C453 1.419 . S
C454 C455 1.391 . S
C454 C458 1.397 . S
C455 C450 1.391 . S
C455 C454 1.391 . S
C455 C456 1.399 . S
C456 C455 1.399 . S
C456 C457 1.396 . S
C456 C459 1.453 . S
C456 C460 1.684 . S
C457 C447 1.723 . S
C457 C456 1.396 . S
C457 C458 1.394 . S
C458 C428 1.723 . S
C458 C454 1.397 . S
C458 C457 1.394 . S
C459 H431 0.982 . S
C459 H435 0.979 . S
C459 H436 0.977 . S
C459 C456 1.453 . S
C460 H432 0.979 . S
C460 H433 0.980 . S
C460 H434 0.983 . S
C460 C456 1.684 . S
H461 C479 0.948 . S
H462 C420 0.948 . S
H463 C438 0.979 . S
H464 C438 0.980 . S
H465 C438 0.983 . S
H466 C437 0.982 . S
H467 C437 0.979 . S
H468 C437 0.977 . S
H469 C439 0.948 . S
H470 C441 0.947 . S
H471 C442 0.948 . S
H472 C448 0.982 . S
H473 C448 0.979 . S
H474 C448 0.977 . S
H475 C449 0.979 . S
H476 C449 0.980 . S
H477 C449 0.983 . S
H478 C422 0.947 . S
C479 C422 1.392 . S
C479 C423 1.419 . S
C479 H461 0.948 . S
C480 C481 1.391 . S
C480 C484 1.391 . S
C480 H522 0.948 . S
C481 C480 1.391 . S
C481 C482 1.391 . S
C482 C481 1.391 . S
C482 H538 0.947 . S
C482 C539 1.392 . S
C483 C484 1.391 . S
C483 C487 1.397 . S
C483 C539 1.419 . S
C484 C480 1.391 . S
C484 C483 1.391 . S
C484 C485 1.399 . S
C485 C484 1.399 . S
C485 C488 1.396 . S
C485 C497 1.453 . S
C485 C498 1.684 . S
H486 C510 0.948 . S
C487 C483 1.397 . S
C487 C488 1.394 . S
C487 C506 1.723 . S
C488 C485 1.396 . S
C488 C487 1.394 . S
C488 C518 1.723 . S
H489 C512 0.947 . S
H490 C513 0.948 . S
H491 C519 0.982 . S
H492 C520 0.979 . S
H493 C520 0.980 . S
H494 C520 0.983 . S
H495 C519 0.979 . S
H496 C519 0.977 . S
C497 C485 1.453 . S
C497 H526 0.982 . S
C497 H527 0.979 . S
C497 H528 0.977 . S
C498 C485 1.684 . S
C498 H523 0.979 . S
C498 H524 0.980 . S
C498 H525 0.983 . S
C499 C500 1.391 . S
C499 C504 1.391 . S
C499 H529 0.948 . S
C500 C499 1.391 . S
C500 C501 1.391 . S
C501 C500 1.391 . S
C501 C502 1.392 . S
C501 H530 0.947 . S
C502 C501 1.392 . S
C502 C503 1.419 . S
C502 H531 0.948 . S
C503 C502 1.419 . S
C503 C504 1.391 . S
C503 C507 1.397 . S
C504 C499 1.391 . S
C504 C503 1.391 . S
C504 C505 1.399 . S
C505 C504 1.399 . S
C505 C506 1.396 . S
C505 C508 1.453 . S
C505 C509 1.684 . S
C506 C487 1.723 . S
C506 C505 1.396 . S
C506 C507 1.394 . S
C507 C503 1.397 . S
C507 C506 1.394 . S
C507 C517 1.723 . S
C508 C505 1.453 . S
C508 H532 0.982 . S
C508 H533 0.979 . S
C508 H534 0.977 . S
C509 C505 1.684 . S
C509 H535 0.979 . S
C509 H536 0.980 . S
C509 H537 0.983 . S
C510 H486 0.948 . S
C510 C511 1.391 . S
C510 C515 1.391 . S
C511 C510 1.391 . S
C511 C512 1.391 . S
C512 H489 0.947 . S
C512 C511 1.391 . S
C512 C513 1.392 . S
C513 H490 0.948 . S
C513 C512 1.392 . S
C513 C514 1.419 . S
C514 C513 1.419 . S
C514 C515 1.391 . S
C514 C518 1.397 . S
C515 C510 1.391 . S
C515 C514 1.391 . S
C515 C516 1.399 . S
C516 C515 1.399 . S
C516 C517 1.396 . S
C516 C519 1.453 . S
C516 C520 1.684 . S
C517 C507 1.723 . S
C517 C516 1.396 . S
C517 C518 1.394 . S
C518 C488 1.723 . S
C518 C514 1.397 . S
C518 C517 1.394 . S
C519 H491 0.982 . S
C519 H495 0.979 . S
C519 H496 0.977 . S
C519 C516 1.453 . S
C520 H492 0.979 . S
C520 H493 0.980 . S
C520 H494 0.983 . S
C520 C516 1.684 . S
H521 C539 0.948 . S
H522 C480 0.948 . S
H523 C498 0.979 . S
H524 C498 0.980 . S
H525 C498 0.983 . S
H526 C497 0.982 . S
H527 C497 0.979 . S
H528 C497 0.977 . S
H529 C499 0.948 . S
H530 C501 0.947 . S
H531 C502 0.948 . S
H532 C508 0.982 . S
H533 C508 0.979 . S
H534 C508 0.977 . S
H535 C509 0.979 . S
H536 C509 0.980 . S
H537 C509 0.983 . S
H538 C482 0.947 . S
C539 C482 1.392 . S
C539 C483 1.419 . S
C539 H521 0.948 . S
C540 C541 1.391 . S
C540 C544 1.391 . S
C540 H582 0.948 . S
C541 C540 1.391 . S
C541 C542 1.391 . S
C542 C541 1.391 . S
C542 H598 0.947 . S
C542 C599 1.392 . S
C543 C544 1.391 . S
C543 C547 1.397 . S
C543 C599 1.419 . S
C544 C540 1.391 . S
C544 C543 1.391 . S
C544 C545 1.399 . S
C545 C544 1.399 . S
C545 C548 1.396 . S
C545 C557 1.453 . S
C545 C558 1.684 . S
H546 C570 0.948 . S
C547 C543 1.397 . S
C547 C548 1.394 . S
C547 C566 1.723 . S
C548 C545 1.396 . S
C548 C547 1.394 . S
C548 C578 1.723 . S
H549 C572 0.947 . S
H550 C573 0.948 . S
H551 C579 0.982 . S
H552 C580 0.979 . S
H553 C580 0.980 . S
H554 C580 0.983 . S
H555 C579 0.979 . S
H556 C579 0.977 . S
C557 C545 1.453 . S
C557 H586 0.982 . S
C557 H587 0.979 . S
C557 H588 0.977 . S
C558 C545 1.684 . S
C558 H583 0.979 . S
C558 H584 0.980 . S
C558 H585 0.983 . S
C559 C560 1.391 . S
C559 C564 1.391 . S
C559 H589 0.948 . S
C560 C559 1.391 . S
C560 C561 1.391 . S
C561 C560 1.391 . S
C561 C562 1.392 . S
C561 H590 0.947 . S
C562 C561 1.392 . S
C562 C563 1.419 . S
C562 H591 0.948 . S
C563 C562 1.419 . S
C563 C564 1.391 . S
C563 C567 1.397 . S
C564 C559 1.391 . S
C564 C563 1.391 . S
C564 C565 1.399 . S
C565 C564 1.399 . S
C565 C566 1.396 . S
C565 C568 1.453 . S
C565 C569 1.684 . S
C566 C547 1.723 . S
C566 C565 1.396 . S
C566 C567 1.394 . S
C567 C563 1.397 . S
C567 C566 1.394 . S
C567 C577 1.723 . S
C568 C565 1.453 . S
C568 H592 0.982 . S
C568 H593 0.979 . S
C568 H594 0.977 . S
C569 C565 1.684 . S
C569 H595 0.979 . S
C569 H596 0.980 . S
C569 H597 0.983 . S
C570 H546 0.948 . S
C570 C571 1.391 . S
C570 C575 1.391 . S
C571 C570 1.391 . S
C571 C572 1.391 . S
C572 H549 0.947 . S
C572 C571 1.391 . S
C572 C573 1.392 . S
C573 H550 0.948 . S
C573 C572 1.392 . S
C573 C574 1.419 . S
C574 C573 1.419 . S
C574 C575 1.391 . S
C574 C578 1.397 . S
C575 C570 1.391 . S
C575 C574 1.391 . S
C575 C576 1.399 . S
C576 C575 1.399 . S
C576 C577 1.396 . S
C576 C579 1.453 . S
C576 C580 1.684 . S
C577 C567 1.723 . S
C577 C576 1.396 . S
C577 C578 1.394 . S
C578 C548 1.723 . S
C578 C574 1.397 . S
C578 C577 1.394 . S
C579 H551 0.982 . S
C579 H555 0.979 . S
C579 H556 0.977 . S
C579 C576 1.453 . S
C580 H552 0.979 . S
C580 H553 0.980 . S
C580 H554 0.983 . S
C580 C576 1.684 . S
H581 C599 0.948 . S
H582 C540 0.948 . S
H583 C558 0.979 . S
H584 C558 0.980 . S
H585 C558 0.983 . S
H586 C557 0.982 . S
H587 C557 0.979 . S
H588 C557 0.977 . S
H589 C559 0.948 . S
H590 C561 0.947 . S
H591 C562 0.948 . S
H592 C568 0.982 . S
H593 C568 0.979 . S
H594 C568 0.977 . S
H595 C569 0.979 . S
H596 C569 0.980 . S
H597 C569 0.983 . S
H598 C542 0.947 . S
C599 C542 1.392 . S
C599 C543 1.419 . S
C599 H581 0.948 . S
C600 C601 1.391 . S
C600 C604 1.391 . S
C600 H642 0.948 . S
C601 C600 1.391 . S
C601 C602 1.391 . S
C602 C601 1.391 . S
C602 H658 0.947 . S
C602 C659 1.392 . S
C603 C604 1.391 . S
C603 C607 1.397 . S
C603 C659 1.419 . S
C604 C600 1.391 . S
C604 C603 1.391 . S
C604 C605 1.399 . S
C605 C604 1.399 . S
C605 C608 1.396 . S
C605 C617 1.453 . S
C605 C618 1.684 . S
H606 C630 0.948 . S
C607 C603 1.397 . S
C607 C608 1.394 . S
C607 C626 1.723 . S
C608 C605 1.396 . S
C608 C607 1.394 . S
C608 C638 1.723 . S
H609 C632 0.947 . S
H610 C633 0.948 . S
H611 C639 0.982 . S
H612 C640 0.979 . S
H613 C640 0.980 . S
H614 C640 0.983 . S
H615 C639 0.979 . S
H616 C639 0.977 . S
C617 C605 1.453 . S
C617 H646 0.982 . S
C617 H647 0.979 . S
C617 H648 0.977 . S
C618 C605 1.684 . S
C618 H643 0.979 . S
C618 H644 0.980 . S
C618 H645 0.983 . S
C619 C620 1.391 . S
C619 C624 1.391 . S
C619 H649 0.948 . S
C620 C619 1.391 . S
C620 C621 1.391 . S
C621 C620 1.391 . S
C621 C622 1.392 . S
C621 H650 0.947 . S
C622 C621 1.392 . S
C622 C623 1.419 . S
C622 H651 0.948 . S
C623 C622 1.419 . S
C623 C624 1.391 . S
C623 C627 1.397 . S
C624 C619 1.391 . S
C624 C623 1.391 . S
C624 C625 1.399 . S
C625 C624 1.399 . S
C625 C626 1.396 . S
C625 C628 1.453 . S
C625 C629 1.684 . S
C626 C607 1.723 . S
C626 C625 1.396 . S
C626 C627 1.394 . S
C627 C623 1.397 . S
C627 C626 1.394 . S
C627 C637 1.723 . S
C628 C625 1.453 . S
C628 H652 0.982 . S
C628 H653 0.979 . S
C628 H654 0.977 . S
C629 C625 1.684 . S
C629 H655 0.979 . S
C629 H656 0.980 . S
C629 H657 0.983 . S
C630 H606 0.948 . S
C630 C631 1.391 . S
C630 C635 1.391 . S
C631 C630 1.391 . S
C631 C632 1.391 . S
C632 H609 0.947 . S
C632 C631 1.391 . S
C632 C633 1.392 . S
C633 H610 0.948 . S
C633 C632 1.392 . S
C633 C634 1.419 . S
C634 C633 1.419 . S
C634 C635 1.391 . S
C634 C638 1.397 . S
C635 C630 1.391 . S
C635 C634 1.391 . S
C635 C636 1.399 . S
C636 C635 1.399 . S
C636 C637 1.396 . S
C636 C639 1.453 . S
C636 C640 1.684 . S
C637 C627 1.723 . S
C637 C636 1.396 . S
C637 C638 1.394 . S
C638 C608 1.723 . S
C638 C634 1.397 . S
C638 C637 1.394 . S
C639 H611 0.982 . S
C639 H615 0.979 . S
C639 H616 0.977 . S
C639 C636 1.453 . S
C640 H612 0.979 . S
C640 H613 0.980 . S
C640 H614 0.983 . S
C640 C636 1.684 . S
H641 C659 0.948 . S
H642 C600 0.948 . S
H643 C618 0.979 . S
H644 C618 0.980 . S
H645 C618 0.983 . S
H646 C617 0.982 . S
H647 C617 0.979 . S
H648 C617 0.977 . S
H649 C619 0.948 . S
H650 C621 0.947 . S
H651 C622 0.948 . S
H652 C628 0.982 . S
H653 C628 0.979 . S
H654 C628 0.977 . S
H655 C629 0.979 . S
H656 C629 0.980 . S
H657 C629 0.983 . S
H658 C602 0.947 . S
C659 C602 1.392 . S
C659 C603 1.419 . S
C659 H641 0.948 . S
C660 C661 1.391 . S
C660 C664 1.391 . S
C660 H702 0.948 . S
C661 C660 1.391 . S
C661 C662 1.391 . S
C662 C661 1.391 . S
C662 H718 0.947 . S
C662 C719 1.392 . S
C663 C664 1.391 . S
C663 C667 1.397 . S
C663 C719 1.419 . S
C664 C660 1.391 . S
C664 C663 1.391 . S
C664 C665 1.399 . S
C665 C664 1.399 . S
C665 C668 1.396 . S
C665 C677 1.453 . S
C665 C678 1.684 . S
H666 C690 0.948 . S
C667 C663 1.397 . S
C667 C668 1.394 . S
C667 C686 1.723 . S
C668 C665 1.396 . S
C668 C667 1.394 . S
C668 C698 1.723 . S
H669 C692 0.947 . S
H670 C693 0.948 . S
H671 C699 0.982 . S
H672 C700 0.979 . S
H673 C700 0.980 . S
H674 C700 0.983 . S
H675 C699 0.979 . S
H676 C699 0.977 . S
C677 C665 1.453 . S
C677 H706 0.982 . S
C677 H707 0.979 . S
C677 H708 0.977 . S
C678 C665 1.684 . S
C678 H703 0.979 . S
C678 H704 0.980 . S
C678 H705 0.983 . S
C679 C680 1.391 . S
C679 C684 1.391 . S
C679 H709 0.948 . S
C680 C679 1.391 . S
C680 C681 1.391 . S
C681 C680 1.391 . S
C681 C682 1.392 . S
C681 H710 0.947 . S
C682 C681 1.392 . S
C682 C683 1.419 . S
C682 H711 0.948 . S
C683 C682 1.419 . S
C683 C684 1.391 . S
C683 C687 1.397 . S
C684 C679 1.391 . S
C684 C683 1.391 . S
C684 C685 1.399 . S
C685 C684 1.399 . S
C685 C686 1.396 . S
C685 C688 1.453 . S
C685 C689 1.684 . S
C686 C667 1.723 . S
C686 C685 1.396 . S
C686 C687 1.394 . S
C687 C683 1.397 . S
C687 C686 1.394 . S
C687 C697 1.723 . S
C688 C685 1.453 . S
C688 H712 0.982 . S
C688 H713 0.979 . S
C688 H714 0.977 . S
C689 C685 1.684 . S
C689 H715 0.979 . S
C689 H716 0.980 . S
C689 H717 0.983 . S
C690 H666 0.948 . S
C690 C691 1.391 . S
C690 C695 1.391 . S
C691 C690 1.391 . S
C691 C692 1.391 . S
C692 H669 0.947 . S
C692 C691 1.391 . S
C692 C693 1.392 . S
C693 H670 0.948 . S
C693 C692 1.392 . S
C693 C694 1.419 . S
C694 C693 1.419 . S
C694 C695 1.391 . S
C694 C698 1.397 . S
C695 C690 1.391 . S
C695 C694 1.391 . S
C695 C696 1.399 . S
C696 C695 1.399 . S
C696 C697 1.396 . S
C696 C699 1.453 . S
C696 C700 1.684 . S
C697 C687 1.723 . S
C697 C696 1.396 . S
C697 C698 1.394 . S
C698 C668 1.723 . S
C698 C694 1.397 . S
C698 C697 1.394 . S
C699 H671 0.982 . S
C699 H675 0.979 . S
C699 H676 0.977 . S
C699 C696 1.453 . S
C700 H672 0.979 . S
C700 H673 0.980 . S
C700 H674 0.983 . S
C700 C696 1.684 . S
H701 C719 0.948 . S
H702 C660 0.948 . S
H703 C678 0.979 . S
H704 C678 0.980 . S
H705 C678 0.983 . S
H706 C677 0.982 . S
H707 C677 0.979 . S
H708 C677 0.977 . S
H709 C679 0.948 . S
H710 C681 0.947 . S
H711 C682 0.948 . S
H712 C688 0.982 . S
H713 C688 0.979 . S
H714 C688 0.977 . S
H715 C689 0.979 . S
H716 C689 0.980 . S
H717 C689 0.983 . S
H718 C662 0.947 . S
C719 C662 1.392 . S
C719 C663 1.419 . S
C719 H701 0.948 . S
C720 C721 1.391 . S
C720 C724 1.391 . S
C720 H762 0.948 . S
C721 C720 1.391 . S
C721 C722 1.391 . S
C722 C721 1.391 . S
C722 H778 0.947 . S
C722 C779 1.392 . S
C723 C724 1.391 . S
C723 C727 1.397 . S
C723 C779 1.419 . S
C724 C720 1.391 . S
C724 C723 1.391 . S
C724 C725 1.399 . S
C725 C724 1.399 . S
C725 C728 1.396 . S
C725 C737 1.453 . S
C725 C738 1.684 . S
H726 C750 0.948 . S
C727 C723 1.397 . S
C727 C728 1.394 . S
C727 C746 1.723 . S
C728 C725 1.396 . S
C728 C727 1.394 . S
C728 C758 1.723 . S
H729 C752 0.947 . S
H730 C753 0.948 . S
H731 C759 0.982 . S
H732 C760 0.979 . S
H733 C760 0.980 . S
H734 C760 0.983 . S
H735 C759 0.979 . S
H736 C759 0.977 . S
C737 C725 1.453 . S
C737 H766 0.982 . S
C737 H767 0.979 . S
C737 H768 0.977 . S
C738 C725 1.684 . S
C738 H763 0.979 . S
C738 H764 0.980 . S
C738 H765 0.983 . S
C739 C740 1.391 . S
C739 C744 1.391 . S
C739 H769 0.948 . S
C740 C739 1.391 . S
C740 C741 1.391 . S
C741 C740 1.391 . S
C741 C742 1.392 . S
C741 H770 0.947 . S
C742 C741 1.392 . S
C742 C743 1.419 . S
C742 H771 0.948 . S
C743 C742 1.419 . S
C743 C744 1.391 . S
C743 C747 1.397 . S
C744 C739 1.391 . S
C744 C743 1.391 . S
C744 C745 1.399 . S
C745 C744 1.399 . S
C745 C746 1.396 . S
C745 C748 1.453 . S
C745 C749 1.684 . S
C746 C727 1.723 . S
C746 C745 1.396 . S
C746 C747 1.394 . S
C747 C743 1.397 . S
C747 C746 1.394 . S
C747 C757 1.723 . S
C748 C745 1.453 . S
C748 H772 0.982 . S
C748 H773 0.979 . S
C748 H774 0.977 . S
C749 C745 1.684 . S
C749 H775 0.979 . S
C749 H776 0.980 . S
C749 H777 0.983 . S
C750 H726 0.948 . S
C750 C751 1.391 . S
C750 C755 1.391 . S
C751 C750 1.391 . S
C751 C752 1.391 . S
C752 H729 0.947 . S
C752 C751 1.391 . S
C752 C753 1.392 . S
C753 H730 0.948 . S
C753 C752 1.392 . S
C753 C754 1.419 . S
C754 C753 1.419 . S
C754 C755 1.391 . S
C754 C758 1.397 . S
C755 C750 1.391 . S
C755 C754 1.391 . S
C755 C756 1.399 . S
C756 C755 1.399 . S
C756 C757 1.396 . S
C756 C759 1.453 . S
C756 C760 1.684 . S
C757 C747 1.723 . S
C757 C756 1.396 . S
C757 C758 1.394 . S
C758 C728 1.723 . S
C758 C754 1.397 . S
C758 C757 1.394 . S
C759 H731 0.982 . S
C759 H735 0.979 . S
C759 H736 0.977 . S
C759 C756 1.453 . S
C760 H732 0.979 . S
C760 H733 0.980 . S
C760 H734 0.983 . S
C760 C756 1.684 . S
H761 C779 0.948 . S
H762 C720 0.948 . S
H763 C738 0.979 . S
H764 C738 0.980 . S
H765 C738 0.983 . S
H766 C737 0.982 . S
H767 C737 0.979 . S
H768 C737 0.977 . S
H769 C739 0.948 . S
H770 C741 0.947 . S
H771 C742 0.948 . S
H772 C748 0.982 . S
H773 C748 0.979 . S
H774 C748 0.977 . S
H775 C749 0.979 . S
H776 C749 0.980 . S
H777 C749 0.983 . S
H778 C722 0.947 . S
C779 C722 1.392 . S
C779 C723 1.419 . S
C779 H761 0.948 . S
C780 C781 1.391 . S
C780 C784 1.391 . S
C780 H822 0.948 . S
C781 C780 1.391 . S
C781 C782 1.391 . S
C782 C781 1.391 . S
C782 H838 0.947 . S
C782 C839 1.392 . S
C783 C784 1.391 . S
C783 C787 1.397 . S
C783 C839 1.419 . S
C784 C780 1.391 . S
C784 C783 1.391 . S
C784 C785 1.399 . S
C785 C784 1.399 . S
C785 C788 1.396 . S
C785 C797 1.453 . S
C785 C798 1.684 . S
H786 C810 0.948 . S
C787 C783 1.397 . S
C787 C788 1.394 . S
C787 C806 1.723 . S
C788 C785 1.396 . S
C788 C787 1.394 . S
C788 C818 1.723 . S
H789 C812 0.947 . S
H790 C813 0.948 . S
H791 C819 0.982 . S
H792 C820 0.979 . S
H793 C820 0.980 . S
H794 C820 0.983 . S
H795 C819 0.979 . S
H796 C819 0.977 . S
C797 C785 1.453 . S
C797 H826 0.982 . S
C797 H827 0.979 . S
C797 H828 0.977 . S
C798 C785 1.684 . S
C798 H823 0.979 . S
C798 H824 0.980 . S
C798 H825 0.983 . S
C799 C800 1.391 . S
C799 C804 1.391 . S
C799 H829 0.948 . S
C800 C799 1.391 . S
C800 C801 1.391 . S
C801 C800 1.391 . S
C801 C802 1.392 . S
C801 H830 0.947 . S
C802 C801 1.392 . S
C802 C803 1.419 . S
C802 H831 0.948 . S
C803 C802 1.419 . S
C803 C804 1.391 . S
C803 C807 1.397 . S
C804 C799 1.391 . S
C804 C803 1.391 . S
C804 C805 1.399 . S
C805 C804 1.399 . S
C805 C806 1.396 . S
C805 C808 1.453 . S
C805 C809 1.684 . S
C806 C787 1.723 . S
C806 C805 1.396 . S
C806 C807 1.394 . S
C807 C803 1.397 . S
C807 C806 1.394 . S
C807 C817 1.723 . S
C808 C805 1.453 . S
C808 H832 0.982 . S
C808 H833 0.979 . S
C808 H834 0.977 . S
C809 C805 1.684 . S
C809 H835 0.979 . S
C809 H836 0.980 . S
C809 H837 0.983 . S
C810 H786 0.948 . S
C810 C811 1.391 . S
C810 C815 1.391 . S
C811 C810 1.391 . S
C811 C812 1.391 . S
C812 H789 0.947 . S
C812 C811 1.391 . S
C812 C813 1.392 . S
C813 H790 0.948 . S
C813 C812 1.392 . S
C813 C814 1.419 . S
C814 C813 1.419 . S
C814 C815 1.391 . S
C814 C818 1.397 . S
C815 C810 1.391 . S
C815 C814 1.391 . S
C815 C816 1.399 . S
C816 C815 1.399 . S
C816 C817 1.396 . S
C816 C819 1.453 . S
C816 C820 1.684 . S
C817 C807 1.723 . S
C817 C816 1.396 . S
C817 C818 1.394 . S
C818 C788 1.723 . S
C818 C814 1.397 . S
C818 C817 1.394 . S
C819 H791 0.982 . S
C819 H795 0.979 . S
C819 H796 0.977 . S
C819 C816 1.453 . S
C820 H792 0.979 . S
C820 H793 0.980 . S
C820 H794 0.983 . S
C820 C816 1.684 . S
H821 C839 0.948 . S
H822 C780 0.948 . S
H823 C798 0.979 . S
H824 C798 0.980 . S
H825 C798 0.983 . S
H826 C797 0.982 . S
H827 C797 0.979 . S
H828 C797 0.977 . S
H829 C799 0.948 . S
H830 C801 0.947 . S
H831 C802 0.948 . S
H832 C808 0.982 . S
H833 C808 0.979 . S
H834 C808 0.977 . S
H835 C809 0.979 . S
H836 C809 0.980 . S
H837 C809 0.983 . S
H838 C782 0.947 . S
C839 C782 1.392 . S
C839 C783 1.419 . S
C839 H821 0.948 . S
C840 C841 1.391 . S
C840 C844 1.391 . S
C840 H882 0.948 . S
C841 C840 1.391 . S
C841 C842 1.391 . S
C842 C841 1.391 . S
C842 H898 0.947 . S
C842 C899 1.392 . S
C843 C844 1.391 . S
C843 C847 1.397 . S
C843 C899 1.419 . S
C844 C840 1.391 . S
C844 C843 1.391 . S
C844 C845 1.399 . S
C845 C844 1.399 . S
C845 C848 1.396 . S
C845 C857 1.453 . S
C845 C858 1.684 . S
H846 C870 0.948 . S
C847 C843 1.397 . S
C847 C848 1.394 . S
C847 C866 1.723 . S
C848 C845 1.396 . S
C848 C847 1.394 . S
C848 C878 1.723 . S
H849 C872 0.947 . S
H850 C873 0.948 . S
H851 C879 0.982 . S
H852 C880 0.979 . S
H853 C880 0.980 . S
H854 C880 0.983 . S
H855 C879 0.979 . S
H856 C879 0.977 . S
C857 C845 1.453 . S
C857 H886 0.982 . S
C857 H887 0.979 . S
C857 H888 0.977 . S
C858 C845 1.684 . S
C858 H883 0.979 . S
C858 H884 0.980 . S
C858 H885 0.983 . S
C859 C860 1.391 . S
C859 C864 1.391 . S
C859 H889 0.948 . S
C860 C859 1.391 . S
C860 C861 1.391 . S
C861 C860 1.391 . S
C861 C862 1.392 . S
C861 H890 0.947 . S
C862 C861 1.392 . S
C862 C863 1.419 . S
C862 H891 0.948 . S
C863 C862 1.419 . S
C863 C864 1.391 . S
C863 C867 1.397 . S
C864 C859 1.391 . S
C864 C863 1.391 . S
C864 C865 1.399 . S
C865 C864 1.399 . S
C865 C866 1.396 . S
C865 C868 1.453 . S
C865 C869 1.684 . S
C866 C847 1.723 . S
C866 C865 1.396 . S
C866 C867 1.394 . S
C867 C863 1.397 . S
C867 C866 1.394 . S
C867 C877 1.723 . S
C868 C865 1.453 . S
C868 H892 0.982 . S
C868 H893 0.979 . S
C868 H894 0.977 . S
C869 C865 1.684 . S
C869 H895 0.979 . S
C869 H896 0.980 . S
C869 H897 0.983 . S
C870 H846 0.948 . S
C870 C871 1.391 . S
C870 C875 1.391 . S
C871 C870 1.391 . S
C871 C872 1.391 . S
C872 H849 0.947 . S
C872 C871 1.391 . S
C872 C873 1.392 . S
C873 H850 0.948 . S
C873 C872 1.392 . S
C873 C874 1.419 . S
C874 C873 1.419 . S
C874 C875 1.391 . S
C874 C878 1.397 . S
C875 C870 1.391 . S
C875 C874 1.391 . S
C875 C876 1.399 . S
C876 C875 1.399 . S
C876 C877 1.396 . S
C876 C879 1.453 . S
C876 C880 1.684 . S
C877 C867 1.723 . S
C877 C876 1.396 . S
C877 C878 1.394 . S
C878 C848 1.723 . S
C878 C874 1.397 . S
C878 C877 1.394 . S
C879 H851 0.982 . S
C879 H855 0.979 . S
C879 H856 0.977 . S
C879 C876 1.453 . S
C880 H852 0.979 . S
C880 H853 0.980 . S
C880 H854 0.983 . S
C880 C876 1.684 . S
H881 C899 0.948 . S
H882 C840 0.948 . S
H883 C858 0.979 . S
H884 C858 0.980 . S
H885 C858 0.983 . S
H886 C857 0.982 . S
H887 C857 0.979 . S
H888 C857 0.977 . S
H889 C859 0.948 . S
H890 C861 0.947 . S
H891 C862 0.948 . S
H892 C868 0.982 . S
H893 C868 0.979 . S
H894 C868 0.977 . S
H895 C869 0.979 . S
H896 C869 0.980 . S
H897 C869 0.983 . S
H898 C842 0.947 . S
C899 C842 1.392 . S
C899 C843 1.419 . S
C899 H881 0.948 . S
C900 C901 1.391 . S
C900 C904 1.391 . S
C900 H942 0.948 . S
C901 C900 1.391 . S
C901 C902 1.391 . S
C902 C901 1.391 . S
C902 H958 0.947 . S
C902 C959 1.392 . S
C903 C904 1.391 . S
C903 C907 1.397 . S
C903 C959 1.419 . S
C904 C900 1.391 . S
C904 C903 1.391 . S
C904 C905 1.399 . S
C905 C904 1.399 . S
C905 C908 1.396 . S
C905 C917 1.453 . S
C905 C918 1.684 . S
H906 C930 0.948 . S
C907 C903 1.397 . S
C907 C908 1.394 . S
C907 C926 1.723 . S
C908 C905 1.396 . S
C908 C907 1.394 . S
C908 C938 1.723 . S
H909 C932 0.947 . S
H910 C933 0.948 . S
H911 C939 0.982 . S
H912 C940 0.979 . S
H913 C940 0.980 . S
H914 C940 0.983 . S
H915 C939 0.979 . S
H916 C939 0.977 . S
C917 C905 1.453 . S
C917 H946 0.982 . S
C917 H947 0.979 . S
C917 H948 0.977 . S
C918 C905 1.684 . S
C918 H943 0.979 . S
C918 H944 0.980 . S
C918 H945 0.983 . S
C919 C920 1.391 . S
C919 C924 1.391 . S
C919 H949 0.948 . S
C920 C919 1.391 . S
C920 C921 1.391 . S
C921 C920 1.391 . S
C921 C922 1.392 . S
C921 H950 0.947 . S
C922 C921 1.392 . S
C922 C923 1.419 . S
C922 H951 0.948 . S
C923 C922 1.419 . S
C923 C924 1.391 . S
C923 C927 1.397 . S
C924 C919 1.391 . S
C924 C923 1.391 . S
C924 C925 1.399 . S
C925 C924 1.399 . S
C925 C926 1.396 . S
C925 C928 1.453 . S
C925 C929 1.684 . S
C926 C907 1.723 . S
C926 C925 1.396 . S
C926 C927 1.394 . S
C927 C923 1.397 . S
C927 C926 1.394 . S
C927 C937 1.723 . S
C928 C925 1.453 . S
C928 H952 0.982 . S
C928 H953 0.979 . S
C928 H954 0.977 . S
C929 C925 1.684 . S
C929 H955 0.979 . S
C929 H956 0.980 . S
C929 H957 0.983 . S
C930 H906 0.948 . S
C930 C931 1.391 . S
C930 C935 1.391 . S
C931 C930 1.391 . S
C931 C932 1.391 . S
C932 H909 0.947 . S
C932 C931 1.391 . S
C932 C933 1.392 . S
C933 H910 0.948 . S
C933 C932 1.392 . S
C933 C934 1.419 . S
C934 C933 1.419 . S
C934 C935 1.391 . S
C934 C938 1.397 . S
C935 C930 1.391 . S
C935 C934 1.391 . S
C935 C936 1.399 . S
C936 C935 1.399 . S
C936 C937 1.396 . S
C936 C939 1.453 . S
C936 C940 1.684 . S
C937 C927 1.723 . S
C937 C936 1.396 . S
C937 C938 1.394 . S
C938 C908 1.723 . S
C938 C934 1.397 . S
C938 C937 1.394 . S
C939 H911 0.982 . S
C939 H915 0.979 . S
C939 H916 0.977 . S
C939 C936 1.453 . S
C940 H912 0.979 . S
C940 H913 0.980 . S
C940 H914 0.983 . S
C940 C936 1.684 . S
H941 C959 0.948 . S
H942 C900 0.948 . S
H943 C918 0.979 . S
H944 C918 0.980 . S
H945 C918 0.983 . S
H946 C917 0.982 . S
H947 C917 0.979 . S
H948 C917 0.977 . S
H949 C919 0.948 . S
H950 C921 0.947 . S
H951 C922 0.948 . S
H952 C928 0.982 . S
H953 C928 0.979 . S
H954 C928 0.977 . S
H955 C929 0.979 . S
H956 C929 0.980 . S
H957 C929 0.983 . S
H958 C902 0.947 . S
C959 C902 1.392 . S
C959 C903 1.419 . S
C959 H941 0.948 . S
C960 C961 1.391 . S
C960 C964 1.391 . S
C960 H1002 0.948 . S
C961 C960 1.391 . S
C961 C962 1.391 . S
C962 C961 1.391 . S
C962 H1018 0.947 . S
C962 C1019 1.392 . S
C963 C964 1.391 . S
C963 C967 1.397 . S
C963 C1019 1.419 . S
C964 C960 1.391 . S
C964 C963 1.391 . S
C964 C965 1.399 . S
C965 C964 1.399 . S
C965 C968 1.396 . S
C965 C977 1.453 . S
C965 C978 1.684 . S
H966 C990 0.948 . S
C967 C963 1.397 . S
C967 C968 1.394 . S
C967 C986 1.723 . S
C968 C965 1.396 . S
C968 C967 1.394 . S
C968 C998 1.723 . S
H969 C992 0.947 . S
H970 C993 0.948 . S
H971 C999 0.982 . S
H972 C1000 0.979 . S
H973 C1000 0.980 . S
H974 C1000 0.983 . S
H975 C999 0.979 . S
H976 C999 0.977 . S
C977 C965 1.453 . S
C977 H1006 0.982 . S
C977 H1007 0.979 . S
C977 H1008 0.977 . S
C978 C965 1.684 . S
C978 H1003 0.979 . S
C978 H1004 0.980 . S
C978 H1005 0.983 . S
C979 C980 1.391 . S
C979 C984 1.391 . S
C979 H1009 0.948 . S
C980 C979 1.391 . S
C980 C981 1.391 . S
C981 C980 1.391 . S
C981 C982 1.392 . S
C981 H1010 0.947 . S
C982 C981 1.392 . S
C982 C983 1.419 . S
C982 H1011 0.948 . S
C983 C982 1.419 . S
C983 C984 1.391 . S
C983 C987 1.397 . S
C984 C979 1.391 . S
C984 C983 1.391 . S
C984 C985 1.399 . S
C985 C984 1.399 . S
C985 C986 1.396 . S
C985 C988 1.453 . S
C985 C989 1.684 . S
C986 C967 1.723 . S
C986 C985 1.396 . S
C986 C987 1.394 . S
C987 C983 1.397 . S
C987 C986 1.394 . S
C987 C997 1.723 . S
C988 C985 1.453 . S
C988 H1012 0.982 . S
C988 H1013 0.979 . S
C988 H1014 0.977 . S
C989 C985 1.684 . S
C989 H1015 0.979 . S
C989 H1016 0.980 . S
C989 H1017 0.983 . S
C990 H966 0.948 . S
C990 C991 1.391 . S
C990 C995 1.391 . S
C991 C990 1.391 . S
C991 C992 1.391 . S
C992 H969 0.947 . S
C992 C991 1.391 . S
C992 C993 1.392 . S
C993 H970 0.948 . S
C993 C992 1.392 . S
C993 C994 1.419 . S
C994 C993 1.419 . S
C994 C995 1.391 . S
C994 C998 1.397 . S
C995 C990 1.391 . S
C995 C994 1.391 . S
C995 C996 1.399 . S
C996 C995 1.399 . S
C996 C997 1.396 . S
C996 C999 1.453 . S
C996 C1000 1.684 . S
C997 C987 1.723 . S
C997 C996 1.396 . S
C997 C998 1.394 . S
C998 C968 1.723 . S
C998 C994 1.397 . S
C998 C997 1.394 . S
C999 H971 0.982 . S
C999 H975 0.979 . S
C999 H976 0.977 . S
C999 C996 1.453 . S
C1000 H972 0.979 . S
C1000 H973 0.980 . S
C1000 H974 0.983 . S
C1000 C996 1.684 . S
H1001 C1019 0.948 . S
H1002 C960 0.948 . S
H1003 C978 0.979 . S
H1004 C978 0.980 . S
H1005 C978 0.983 . S
H1006 C977 0.982 . S
H1007 C977 0.979 . S
H1008 C977 0.977 . S
H1009 C979 0.948 . S
H1010 C981 0.947 . S
H1011 C982 0.948 . S
H1012 C988 0.982 . S
H1013 C988 0.979 . S
H1014 C988 0.977 . S
H1015 C989 0.979 . S
H1016 C989 0.980 . S
H1017 C989 0.983 . S
H1018 C962 0.947 . S
C1019 C962 1.392 . S
C1019 C963 1.419 . S
C1019 H1001 0.948 . S
C1020 C1021 1.391 . S
C1020 C1024 1.391 . S
C1020 H1062 0.948 . S
C1021 C1020 1.391 . S
C1021 C1022 1.391 . S
C1022 C1021 1.391 . S
C1022 H1078 0.947 . S
C1022 C1079 1.392 . S
C1023 C1024 1.391 . S
C1023 C1027 1.397 . S
C1023 C1079 1.419 . S
C1024 C1020 1.391 . S
C1024 C1023 1.391 . S
C1024 C1025 1.399 . S
C1025 C1024 1.399 . S
C1025 C1028 1.396 . S
C1025 C1037 1.453 . S
C1025 C1038 1.684 . S
H1026 C1050 0.948 . S
C1027 C1023 1.397 . S
C1027 C1028 1.394 . S
C1027 C1046 1.723 . S
C1028 C1025 1.396 . S
C1028 C1027 1.394 . S
C1028 C1058 1.723 . S
H1029 C1052 0.947 . S
H1030 C1053 0.948 . S
H1031 C1059 0.982 . S
H1032 C1060 0.979 . S
H1033 C1060 0.980 . S
H1034 C1060 0.983 . S
H1035 C1059 0.979 . S
H1036 C1059 0.977 . S
C1037 C1025 1.453 . S
C1037 H1066 0.982 . S
C1037 H1067 0.979 . S
C1037 H1068 0.977 . S
C1038 C1025 1.684 . S
C1038 H1063 0.979 . S
C1038 H1064 0.980 . S
C1038 H1065 0.983 . S
C1039 C1040 1.391 . S
C1039 C1044 1.391 . S
C1039 H1069 0.948 . S
C1040 C1039 1.391 . S
C1040 C1041 1.391 . S
C1041 C1040 1.391 . S
C1041 C1042 1.392 . S
C1041 H1070 0.947 . S
C1042 C1041 1.392 . S
C1042 C1043 1.419 . S
C1042 H1071 0.948 . S
C1043 C1042 1.419 . S
C1043 C1044 1.391 . S
C1043 C1047 1.397 . S
C1044 C1039 1.391 . S
C1044 C1043 1.391 . S
C1044 C1045 1.399 . S
C1045 C1044 1.399 . S
C1045 C1046 1.396 . S
C1045 C1048 1.453 . S
C1045 C1049 1.684 . S
C1046 C1027 1.723 . S
C1046 C1045 1.396 . S
C1046 C1047 1.394 . S
C1047 C1043 1.397 . S
C1047 C1046 1.394 . S
C1047 C1057 1.723 . S
C1048 C1045 1.453 . S
C1048 H1072 0.982 . S
C1048 H1073 0.979 . S
C1048 H1074 0.977 . S
C1049 C1045 1.684 . S
C1049 H1075 0.979 . S
C1049 H1076 0.980 . S
C1049 H1077 0.983 . S
C1050 H1026 0.948 . S
C1050 C1051 1.391 . S
C1050 C1055 1.391 . S
C1051 C1050 1.391 . S
C1051 C1052 1.391 . S
C1052 H1029 0.947 . S
C1052 C1051 1.391 . S
C1052 C1053 1.392 . S
C1053 H1030 0.948 . S
C1053 C1052 1.392 . S
C1053 C1054 1.419 . S
C1054 C1053 1.419 . S
C1054 C1055 1.391 . S
C1054 C1058 1.397 . S
C1055 C1050 1.391 . S
C1055 C1054 1.391 . S
C1055 C1056 1.399 . S
C1056 C1055 1.399 . S
C1056 C1057 1.396 . S
C1056 C1059 1.453 . S
C1056 C1060 1.684 . S
C1057 C1047 1.723 . S
C1057 C1056 1.396 . S
C1057 C1058 1.394 . S
C1058 C1028 1.723 . S
C1058 C1054 1.397 . S
C1058 C1057 1.394 . S
C1059 H1031 0.982 . S
C1059 H1035 0.979 . S
C1059 H1036 0.977 . S
C1059 C1056 1.453 . S
C1060 H1032 0.979 . S
C1060 H1033 0.980 . S
C1060 H1034 0.983 . S
C1060 C1056 1.684 . S
H1061 C1079 0.948 . S
H1062 C1020 0.948 . S
H1063 C1038 0.979 . S
H1064 C1038 0.980 . S
H1065 C1038 0.983 . S
H1066 C1037 0.982 . S
H1067 C1037 0.979 . S
H1068 C1037 0.977 . S
H1069 C1039 0.948 . S
H1070 C1041 0.947 . S
H1071 C1042 0.948 . S
H1072 C1048 0.982 . S
H1073 C1048 0.979 . S
H1074 C1048 0.977 . S
H1075 C1049 0.979 . S
H1076 C1049 0.980 . S
H1077 C1049 0.983 . S
H1078 C1022 0.947 . S
C1079 C1022 1.392 . S
C1079 C1023 1.419 . S
C1079 H1061 0.948 . S
Tb1080 O1083 2.453 . S
Tb1080 O1084 2.596 1_545 S
Tb1080 O1085 2.374 1_545 S
Tb1080 O1093 2.343 1_554 S
Tb1080 O1095 2.353 . S
Tb1080 O1097 2.427 1_554 S
Tb1080 O1098 2.513 1_554 S
C1081 O1085 1.251 . S
C1081 O1087 1.263 1_554 S
Tb1082 O1084 2.343 1_556 S
Tb1082 O1087 2.353 . S
Tb1082 O1090 2.427 1_556 S
Tb1082 O1091 2.513 1_556 S
Tb1082 O1092 2.453 . S
Tb1082 O1093 2.596 1_565 S
Tb1082 O1094 2.374 1_565 S
O1083 Tb1080 2.453 . S
O1083 C1099 1.245 . S
O1084 Tb1080 2.596 1_565 S
O1084 Tb1082 2.343 1_554 S
O1084 C1099 1.259 1_565 S
O1085 Tb1080 2.374 1_565 S
O1085 C1081 1.251 . S
C1086 O1090 1.275 . S
C1086 O1091 1.246 . S
O1087 C1081 1.263 1_556 S
O1087 Tb1082 2.353 . S
C1088 O1092 1.245 . S
C1088 O1093 1.259 1_565 S
C1089 O1094 1.250 . S
C1089 O1095 1.263 1_556 S
O1090 Tb1082 2.427 1_554 S
O1090 C1086 1.275 . S
O1091 Tb1082 2.513 1_554 S
O1091 C1086 1.246 . S
O1092 Tb1082 2.453 . S
O1092 C1088 1.245 . S
O1093 Tb1080 2.343 1_556 S
O1093 Tb1082 2.596 1_545 S
O1093 C1088 1.259 1_545 S
O1094 Tb1082 2.374 1_545 S
O1094 C1089 1.250 . S
O1095 Tb1080 2.353 . S
O1095 C1089 1.263 1_554 S
C1096 O1097 1.275 . S
C1096 O1098 1.246 . S
O1097 Tb1080 2.427 1_556 S
O1097 C1096 1.275 . S
O1098 Tb1080 2.513 1_556 S
O1098 C1096 1.246 . S
C1099 O1083 1.245 . S
C1099 O1084 1.259 1_545 S
Tb1100 O1103 2.453 . S
Tb1100 O1104 2.596 1_655 S
Tb1100 O1105 2.374 1_655 S
Tb1100 O1113 2.343 1_554 S
Tb1100 O1115 2.344 1_554 S
Tb1100 O1117 2.427 1_554 S
Tb1100 O1118 2.513 1_554 S
C1101 O1105 1.251 . S
C1101 O1107 1.263 . S
Tb1102 O1104 2.343 1_556 S
Tb1102 O1107 2.353 1_556 S
Tb1102 O1110 2.427 1_556 S
Tb1102 O1111 2.513 1_556 S
Tb1102 O1112 2.453 . S
Tb1102 O1113 2.596 1_455 S
Tb1102 O1114 2.374 1_455 S
O1103 Tb1100 2.453 . S
O1103 C1119 1.188 1_655 S
O1104 Tb1100 2.596 1_455 S
O1104 Tb1102 2.343 1_554 S
O1104 C1119 1.283 . S
O1105 Tb1100 2.374 1_455 S
O1105 C1101 1.251 . S
C1106 O1110 1.275 . S
C1106 O1111 1.246 . S
O1107 C1101 1.263 . S
O1107 Tb1102 2.353 1_554 S
C1108 O1112 1.209 1_655 S
C1108 O1113 1.274 . S
C1109 O1114 1.250 . S
C1109 O1115 1.294 . S
O1110 Tb1102 2.427 1_554 S
O1110 C1106 1.275 . S
O1111 Tb1102 2.513 1_554 S
O1111 C1106 1.246 . S
O1112 Tb1102 2.453 . S
O1112 C1108 1.209 1_455 S
O1113 Tb1100 2.343 1_556 S
O1113 Tb1102 2.596 1_655 S
O1113 C1108 1.274 . S
O1114 Tb1102 2.374 1_655 S
O1114 C1109 1.250 . S
O1115 Tb1100 2.344 1_556 S
O1115 C1109 1.294 . S
C1116 O1117 1.275 . S
C1116 O1118 1.246 . S
O1117 Tb1100 2.427 1_556 S
O1117 C1116 1.275 . S
O1118 Tb1100 2.513 1_556 S
O1118 C1116 1.246 . S
C1119 O1103 1.188 1_455 S
C1119 O1104 1.283 . S
Tb1120 O1123 2.453 . S
Tb1120 O1124 2.596 . S
Tb1120 O1125 2.374 . S
Tb1120 O1133 2.343 1_556 S
Tb1120 O1135 2.348 1_556 S
Tb1120 O1137 2.427 1_556 S
Tb1120 O1138 2.513 1_556 S
C1121 O1125 1.251 . S
C1121 O1127 1.239 1_556 S
Tb1122 O1124 2.343 1_554 S
Tb1122 O1127 2.361 . S
Tb1122 O1130 2.427 1_554 S
Tb1122 O1131 2.513 1_554 S
Tb1122 O1132 2.453 . S
Tb1122 O1133 2.596 . S
Tb1122 O1134 2.374 . S
O1123 Tb1120 2.453 . S
O1123 C1139 1.245 . S
O1124 Tb1120 2.596 . S
O1124 Tb1122 2.343 1_556 S
O1124 C1139 1.259 . S
O1125 Tb1120 2.374 . S
O1125 C1121 1.251 . S
C1126 O1130 1.275 . S
C1126 O1131 1.246 . S
O1127 C1121 1.239 1_554 S
O1127 Tb1122 2.361 . S
C1128 O1132 1.245 . S
C1128 O1133 1.259 . S
C1129 O1134 1.250 . S
C1129 O1135 1.285 . S
O1130 Tb1122 2.427 1_556 S
O1130 C1126 1.275 . S
O1131 Tb1122 2.513 1_556 S
O1131 C1126 1.246 . S
O1132 Tb1122 2.453 . S
O1132 C1128 1.245 . S
O1133 Tb1120 2.343 1_554 S
O1133 Tb1122 2.596 . S
O1133 C1128 1.259 . S
O1134 Tb1122 2.374 . S
O1134 C1129 1.250 . S
O1135 Tb1120 2.348 1_554 S
O1135 C1129 1.285 . S
C1136 O1137 1.275 . S
C1136 O1138 1.246 . S
O1137 Tb1120 2.427 1_554 S
O1137 C1136 1.275 . S
O1138 Tb1120 2.513 1_554 S
O1138 C1136 1.246 . S
C1139 O1123 1.245 . S
C1139 O1124 1.259 . S
Tb1140 O1143 2.453 . S
Tb1140 O1144 2.596 . S
Tb1140 O1145 2.374 . S
Tb1140 O1153 2.343 . S
Tb1140 O1155 2.353 . S
Tb1140 O1157 2.427 . S
Tb1140 O1158 2.513 . S
C1141 O1145 1.251 . S
C1141 O1147 1.263 . S
Tb1142 O1144 2.343 . S
Tb1142 O1147 2.353 . S
Tb1142 O1150 2.427 . S
Tb1142 O1151 2.513 . S
Tb1142 O1152 2.453 . S
Tb1142 O1153 2.596 . S
Tb1142 O1154 2.374 . S
O1143 Tb1140 2.453 . S
O1143 C1159 1.245 . S
O1144 Tb1140 2.596 . S
O1144 Tb1142 2.343 . S
O1144 C1159 1.259 . S
O1145 Tb1140 2.374 . S
O1145 C1141 1.251 . S
C1146 O1150 1.275 . S
C1146 O1151 1.246 . S
O1147 C1141 1.263 . S
O1147 Tb1142 2.353 . S
C1148 O1152 1.245 . S
C1148 O1153 1.259 . S
C1149 O1154 1.250 . S
C1149 O1155 1.263 . S
O1150 Tb1142 2.427 . S
O1150 C1146 1.275 . S
O1151 Tb1142 2.513 . S
O1151 C1146 1.246 . S
O1152 Tb1142 2.453 . S
O1152 C1148 1.245 . S
O1153 Tb1140 2.343 . S
O1153 Tb1142 2.596 . S
O1153 C1148 1.259 . S
O1154 Tb1142 2.374 . S
O1154 C1149 1.250 . S
O1155 Tb1140 2.353 . S
O1155 C1149 1.263 . S
C1156 O1157 1.275 . S
C1156 O1158 1.246 . S
O1157 Tb1140 2.427 . S
O1157 C1156 1.275 . S
O1158 Tb1140 2.513 . S
O1158 C1156 1.246 . S
C1159 O1143 1.245 . S
C1159 O1144 1.259 . S
Tb1160 O1163 2.453 . S
Tb1160 O1164 2.596 . S
Tb1160 O1165 2.374 . S
Tb1160 O1173 2.343 . S
Tb1160 O1175 2.353 . S
Tb1160 O1177 2.427 . S
Tb1160 O1178 2.513 . S
C1161 O1165 1.251 . S
C1161 O1167 1.263 . S
Tb1162 O1164 2.343 . S
Tb1162 O1167 2.353 . S
Tb1162 O1170 2.427 . S
Tb1162 O1171 2.513 . S
Tb1162 O1172 2.453 . S
Tb1162 O1173 2.596 . S
Tb1162 O1174 2.374 . S
O1163 Tb1160 2.453 . S
O1163 C1179 1.245 . S
O1164 Tb1160 2.596 . S
O1164 Tb1162 2.343 . S
O1164 C1179 1.259 . S
O1165 Tb1160 2.374 . S
O1165 C1161 1.251 . S
C1166 O1170 1.275 . S
C1166 O1171 1.246 . S
O1167 C1161 1.263 . S
O1167 Tb1162 2.353 . S
C1168 O1172 1.245 . S
C1168 O1173 1.259 . S
C1169 O1174 1.250 . S
C1169 O1175 1.263 . S
O1170 Tb1162 2.427 . S
O1170 C1166 1.275 . S
O1171 Tb1162 2.513 . S
O1171 C1166 1.246 . S
O1172 Tb1162 2.453 . S
O1172 C1168 1.245 . S
O1173 Tb1160 2.343 . S
O1173 Tb1162 2.596 . S
O1173 C1168 1.259 . S
O1174 Tb1162 2.374 . S
O1174 C1169 1.250 . S
O1175 Tb1160 2.353 . S
O1175 C1169 1.263 . S
C1176 O1177 1.275 . S
C1176 O1178 1.246 . S
O1177 Tb1160 2.427 . S
O1177 C1176 1.275 . S
O1178 Tb1160 2.513 . S
O1178 C1176 1.246 . S
C1179 O1163 1.245 . S
C1179 O1164 1.259 . S
Tb1180 O1183 2.453 . S
Tb1180 O1184 2.596 . S
Tb1180 O1185 2.374 . S
Tb1180 O1193 2.343 . S
Tb1180 O1195 2.353 . S
Tb1180 O1197 2.427 . S
Tb1180 O1198 2.513 . S
C1181 O1185 1.251 . S
C1181 O1187 1.263 . S
Tb1182 O1184 2.343 . S
Tb1182 O1187 2.353 . S
Tb1182 O1190 2.427 . S
Tb1182 O1191 2.513 . S
Tb1182 O1192 2.453 . S
Tb1182 O1193 2.596 . S
Tb1182 O1194 2.374 . S
O1183 Tb1180 2.453 . S
O1183 C1199 1.245 . S
O1184 Tb1180 2.596 . S
O1184 Tb1182 2.343 . S
O1184 C1199 1.259 . S
O1185 Tb1180 2.374 . S
O1185 C1181 1.251 . S
C1186 O1190 1.275 . S
C1186 O1191 1.246 . S
O1187 C1181 1.263 . S
O1187 Tb1182 2.353 . S
C1188 O1192 1.245 . S
C1188 O1193 1.259 . S
C1189 O1194 1.250 . S
C1189 O1195 1.263 . S
O1190 Tb1182 2.427 . S
O1190 C1186 1.275 . S
O1191 Tb1182 2.513 . S
O1191 C1186 1.246 . S
O1192 Tb1182 2.453 . S
O1192 C1188 1.245 . S
O1193 Tb1180 2.343 . S
O1193 Tb1182 2.596 . S
O1193 C1188 1.259 . S
O1194 Tb1182 2.374 . S
O1194 C1189 1.250 . S
O1195 Tb1180 2.353 . S
O1195 C1189 1.263 . S
C1196 O1197 1.275 . S
C1196 O1198 1.246 . S
O1197 Tb1180 2.427 . S
O1197 C1196 1.275 . S
O1198 Tb1180 2.513 . S
O1198 C1196 1.246 . S
C1199 O1183 1.245 . S
C1199 O1184 1.259 . S
Tb1200 O1203 2.453 . S
Tb1200 O1204 2.596 . S
Tb1200 O1205 2.374 . S
Tb1200 O1213 2.343 . S
Tb1200 O1215 2.353 . S
Tb1200 O1217 2.427 . S
Tb1200 O1218 2.513 . S
C1201 O1205 1.251 . S
C1201 O1207 1.263 . S
Tb1202 O1204 2.343 . S
Tb1202 O1207 2.353 . S
Tb1202 O1210 2.427 . S
Tb1202 O1211 2.513 . S
Tb1202 O1212 2.453 . S
Tb1202 O1213 2.596 . S
Tb1202 O1214 2.374 . S
O1203 Tb1200 2.453 . S
O1203 C1219 1.245 . S
O1204 Tb1200 2.596 . S
O1204 Tb1202 2.343 . S
O1204 C1219 1.259 . S
O1205 Tb1200 2.374 . S
O1205 C1201 1.251 . S
C1206 O1210 1.275 . S
C1206 O1211 1.246 . S
O1207 C1201 1.263 . S
O1207 Tb1202 2.353 . S
C1208 O1212 1.245 . S
C1208 O1213 1.259 . S
C1209 O1214 1.250 . S
C1209 O1215 1.263 . S
O1210 Tb1202 2.427 . S
O1210 C1206 1.275 . S
O1211 Tb1202 2.513 . S
O1211 C1206 1.246 . S
O1212 Tb1202 2.453 . S
O1212 C1208 1.245 . S
O1213 Tb1200 2.343 . S
O1213 Tb1202 2.596 . S
O1213 C1208 1.259 . S
O1214 Tb1202 2.374 . S
O1214 C1209 1.250 . S
O1215 Tb1200 2.353 . S
O1215 C1209 1.263 . S
C1216 O1217 1.275 . S
C1216 O1218 1.246 . S
O1217 Tb1200 2.427 . S
O1217 C1216 1.275 . S
O1218 Tb1200 2.513 . S
O1218 C1216 1.246 . S
C1219 O1203 1.245 . S
C1219 O1204 1.259 . S
Tb1220 O1223 2.453 . S
Tb1220 O1224 2.596 . S
Tb1220 O1225 2.374 . S
Tb1220 O1233 2.343 . S
Tb1220 O1235 2.353 . S
Tb1220 O1237 2.427 . S
Tb1220 O1238 2.513 . S
C1221 O1225 1.251 . S
C1221 O1227 1.263 . S
Tb1222 O1224 2.343 . S
Tb1222 O1227 2.353 . S
Tb1222 O1230 2.427 . S
Tb1222 O1231 2.513 . S
Tb1222 O1232 2.453 . S
Tb1222 O1233 2.596 . S
Tb1222 O1234 2.374 . S
O1223 Tb1220 2.453 . S
O1223 C1239 1.245 . S
O1224 Tb1220 2.596 . S
O1224 Tb1222 2.343 . S
O1224 C1239 1.259 . S
O1225 Tb1220 2.374 . S
O1225 C1221 1.251 . S
C1226 O1230 1.275 . S
C1226 O1231 1.246 . S
O1227 C1221 1.263 . S
O1227 Tb1222 2.353 . S
C1228 O1232 1.245 . S
C1228 O1233 1.259 . S
C1229 O1234 1.250 . S
C1229 O1235 1.263 . S
O1230 Tb1222 2.427 . S
O1230 C1226 1.275 . S
O1231 Tb1222 2.513 . S
O1231 C1226 1.246 . S
O1232 Tb1222 2.453 . S
O1232 C1228 1.245 . S
O1233 Tb1220 2.343 . S
O1233 Tb1222 2.596 . S
O1233 C1228 1.259 . S
O1234 Tb1222 2.374 . S
O1234 C1229 1.250 . S
O1235 Tb1220 2.353 . S
O1235 C1229 1.263 . S
C1236 O1237 1.275 . S
C1236 O1238 1.246 . S
O1237 Tb1220 2.427 . S
O1237 C1236 1.275 . S
O1238 Tb1220 2.513 . S
O1238 C1236 1.246 . S
C1239 O1223 1.245 . S
C1239 O1224 1.259 . S
Tb1240 O1243 2.453 . S
Tb1240 O1244 2.596 . S
Tb1240 O1245 2.374 . S
Tb1240 O1253 2.343 . S
Tb1240 O1255 2.353 . S
Tb1240 O1257 2.427 . S
Tb1240 O1258 2.513 . S
C1241 O1245 1.251 . S
C1241 O1247 1.263 . S
Tb1242 O1244 2.343 . S
Tb1242 O1247 2.353 . S
Tb1242 O1250 2.427 . S
Tb1242 O1251 2.513 . S
Tb1242 O1252 2.453 . S
Tb1242 O1253 2.596 . S
Tb1242 O1254 2.374 . S
O1243 Tb1240 2.453 . S
O1243 C1259 1.245 . S
O1244 Tb1240 2.596 . S
O1244 Tb1242 2.343 . S
O1244 C1259 1.259 . S
O1245 Tb1240 2.374 . S
O1245 C1241 1.251 . S
C1246 O1250 1.275 . S
C1246 O1251 1.246 . S
O1247 C1241 1.263 . S
O1247 Tb1242 2.353 . S
C1248 O1252 1.245 . S
C1248 O1253 1.259 . S
C1249 O1254 1.250 . S
C1249 O1255 1.263 . S
O1250 Tb1242 2.427 . S
O1250 C1246 1.275 . S
O1251 Tb1242 2.513 . S
O1251 C1246 1.246 . S
O1252 Tb1242 2.453 . S
O1252 C1248 1.245 . S
O1253 Tb1240 2.343 . S
O1253 Tb1242 2.596 . S
O1253 C1248 1.259 . S
O1254 Tb1242 2.374 . S
O1254 C1249 1.250 . S
O1255 Tb1240 2.353 . S
O1255 C1249 1.263 . S
C1256 O1257 1.275 . S
C1256 O1258 1.246 . S
O1257 Tb1240 2.427 . S
O1257 C1256 1.275 . S
O1258 Tb1240 2.513 . S
O1258 C1256 1.246 . S
C1259 O1243 1.245 . S
C1259 O1244 1.259 . S
H1260 C1268 0.950 . S
H1261 C1273 0.950 . S
H1262 C1270 0.950 . S
H1263 C1272 0.950 . S
H1264 C1274 0.950 . S
H1265 C1276 0.950 . S
H1266 C1278 0.950 . S
H1267 C1279 0.950 . S
C1268 H1260 0.950 . S
C1268 C1269 1.386 . S
C1268 C1270 1.391 . S
C1269 C1268 1.386 . S
C1269 C1273 1.393 . S
C1270 H1262 0.950 . S
C1270 C1268 1.391 . S
C1270 C1271 1.400 . S
C1271 C1270 1.400 . S
C1271 C1272 1.398 . S
C1271 C1277 1.491 . S
C1272 H1263 0.950 . S
C1272 C1271 1.398 . S
C1272 C1273 1.391 . S
C1273 H1261 0.950 . S
C1273 C1269 1.393 . S
C1273 C1272 1.391 . S
C1274 H1264 0.950 . S
C1274 C1275 1.386 . S
C1274 C1276 1.391 . S
C1275 C1274 1.386 . S
C1275 C1279 1.393 . S
C1276 H1265 0.950 . S
C1276 C1274 1.391 . S
C1276 C1277 1.400 . S
C1277 C1271 1.491 . S
C1277 C1276 1.400 . S
C1277 C1278 1.398 . S
C1278 H1266 0.950 . S
C1278 C1277 1.398 . S
C1278 C1279 1.391 . S
C1279 H1267 0.950 . S
C1279 C1275 1.393 . S
C1279 C1278 1.391 . S
H1280 C1288 0.950 . S
H1281 C1293 0.950 . S
H1282 C1290 0.950 . S
H1283 C1292 0.950 . S
H1284 C1294 0.950 . S
H1285 C1296 0.950 . S
H1286 C1298 0.950 . S
H1287 C1299 0.950 . S
C1288 H1280 0.950 . S
C1288 C1289 1.386 . S
C1288 C1290 1.391 . S
C1289 C1288 1.386 . S
C1289 C1293 1.393 . S
C1290 H1282 0.950 . S
C1290 C1288 1.391 . S
C1290 C1291 1.400 . S
C1291 C1290 1.400 . S
C1291 C1292 1.398 . S
C1291 C1297 1.491 . S
C1292 H1283 0.950 . S
C1292 C1291 1.398 . S
C1292 C1293 1.391 . S
C1293 H1281 0.950 . S
C1293 C1289 1.393 . S
C1293 C1292 1.391 . S
C1294 H1284 0.950 . S
C1294 C1295 1.386 . S
C1294 C1296 1.391 . S
C1295 C1294 1.386 . S
C1295 C1299 1.393 . S
C1296 H1285 0.950 . S
C1296 C1294 1.391 . S
C1296 C1297 1.400 . S
C1297 C1291 1.491 . S
C1297 C1296 1.400 . S
C1297 C1298 1.398 . S
C1298 H1286 0.950 . S
C1298 C1297 1.398 . S
C1298 C1299 1.391 . S
C1299 H1287 0.950 . S
C1299 C1295 1.393 . S
C1299 C1298 1.391 . S
H1300 C1308 0.950 . S
H1301 C1313 0.950 . S
H1302 C1310 0.950 . S
H1303 C1312 0.950 . S
H1304 C1314 0.950 . S
H1305 C1316 0.950 . S
H1306 C1318 0.950 . S
H1307 C1319 0.950 . S
C1308 H1300 0.950 . S
C1308 C1309 1.386 . S
C1308 C1310 1.391 . S
C1309 C1308 1.386 . S
C1309 C1313 1.393 . S
C1310 H1302 0.950 . S
C1310 C1308 1.391 . S
C1310 C1311 1.400 . S
C1311 C1310 1.400 . S
C1311 C1312 1.398 . S
C1311 C1317 1.491 . S
C1312 H1303 0.950 . S
C1312 C1311 1.398 . S
C1312 C1313 1.391 . S
C1313 H1301 0.950 . S
C1313 C1309 1.393 . S
C1313 C1312 1.391 . S
C1314 H1304 0.950 . S
C1314 C1315 1.386 . S
C1314 C1316 1.391 . S
C1315 C1314 1.386 . S
C1315 C1319 1.393 . S
C1316 H1305 0.950 . S
C1316 C1314 1.391 . S
C1316 C1317 1.400 . S
C1317 C1311 1.491 . S
C1317 C1316 1.400 . S
C1317 C1318 1.398 . S
C1318 H1306 0.950 . S
C1318 C1317 1.398 . S
C1318 C1319 1.391 . S
C1319 H1307 0.950 . S
C1319 C1315 1.393 . S
C1319 C1318 1.391 . S
H1320 C1328 0.950 . S
H1321 C1333 0.950 . S
H1322 C1330 0.950 . S
H1323 C1332 0.950 . S
H1324 C1334 0.950 . S
H1325 C1336 0.950 . S
H1326 C1338 0.950 . S
H1327 C1339 0.950 . S
C1328 H1320 0.950 . S
C1328 C1329 1.386 . S
C1328 C1330 1.391 . S
C1329 C1328 1.386 . S
C1329 C1333 1.393 . S
C1330 H1322 0.950 . S
C1330 C1328 1.391 . S
C1330 C1331 1.400 . S
C1331 C1330 1.400 . S
C1331 C1332 1.398 . S
C1331 C1337 1.491 . S
C1332 H1323 0.950 . S
C1332 C1331 1.398 . S
C1332 C1333 1.391 . S
C1333 H1321 0.950 . S
C1333 C1329 1.393 . S
C1333 C1332 1.391 . S
C1334 H1324 0.950 . S
C1334 C1335 1.386 . S
C1334 C1336 1.391 . S
C1335 C1334 1.386 . S
C1335 C1339 1.393 . S
C1336 H1325 0.950 . S
C1336 C1334 1.391 . S
C1336 C1337 1.400 . S
C1337 C1331 1.491 . S
C1337 C1336 1.400 . S
C1337 C1338 1.398 . S
C1338 H1326 0.950 . S
C1338 C1337 1.398 . S
C1338 C1339 1.391 . S
C1339 H1327 0.950 . S
C1339 C1335 1.393 . S
C1339 C1338 1.391 . S
H1340 C1348 0.950 . S
H1341 C1353 0.950 . S
H1342 C1350 0.950 . S
H1343 C1352 0.950 . S
H1344 C1354 0.950 . S
H1345 C1356 0.950 . S
H1346 C1358 0.950 . S
H1347 C1359 0.950 . S
C1348 H1340 0.950 . S
C1348 C1349 1.386 . S
C1348 C1350 1.391 . S
C1349 C1348 1.386 . S
C1349 C1353 1.393 . S
C1350 H1342 0.950 . S
C1350 C1348 1.391 . S
C1350 C1351 1.400 . S
C1351 C1350 1.400 . S
C1351 C1352 1.398 . S
C1351 C1357 1.491 . S
C1352 H1343 0.950 . S
C1352 C1351 1.398 . S
C1352 C1353 1.391 . S
C1353 H1341 0.950 . S
C1353 C1349 1.393 . S
C1353 C1352 1.391 . S
C1354 H1344 0.950 . S
C1354 C1355 1.386 . S
C1354 C1356 1.391 . S
C1355 C1354 1.386 . S
C1355 C1359 1.393 . S
C1356 H1345 0.950 . S
C1356 C1354 1.391 . S
C1356 C1357 1.400 . S
C1357 C1351 1.491 . S
C1357 C1356 1.400 . S
C1357 C1358 1.398 . S
C1358 H1346 0.950 . S
C1358 C1357 1.398 . S
C1358 C1359 1.391 . S
C1359 H1347 0.950 . S
C1359 C1355 1.393 . S
C1359 C1358 1.391 . S
H1360 C1368 0.950 . S
H1361 C1373 0.950 . S
H1362 C1370 0.950 . S
H1363 C1372 0.950 . S
H1364 C1374 0.950 . S
H1365 C1376 0.950 . S
H1366 C1378 0.967 . S
H1367 C1379 0.950 1_554 S
C1368 H1360 0.950 . S
C1368 C1369 1.386 . S
C1368 C1370 1.391 . S
C1369 C1368 1.386 . S
C1369 C1373 1.393 . S
C1370 H1362 0.950 . S
C1370 C1368 1.391 . S
C1370 C1371 1.400 . S
C1371 C1370 1.400 . S
C1371 C1372 1.398 . S
C1371 C1377 1.491 . S
C1372 H1363 0.950 . S
C1372 C1371 1.398 . S
C1372 C1373 1.391 . S
C1373 H1361 0.950 . S
C1373 C1369 1.393 . S
C1373 C1372 1.391 . S
C1374 H1364 0.950 . S
C1374 C1375 1.386 . S
C1374 C1376 1.391 . S
C1375 C1374 1.386 . S
C1375 C1379 1.393 . S
C1376 H1365 0.950 . S
C1376 C1374 1.391 . S
C1376 C1377 1.400 . S
C1377 C1371 1.491 . S
C1377 C1376 1.400 . S
C1377 C1378 1.398 . S
C1378 H1366 0.967 . S
C1378 C1377 1.398 . S
C1378 C1379 1.391 . S
C1379 H1367 0.950 1_556 S
C1379 C1375 1.393 . S
C1379 C1378 1.391 . S
H1380 C1388 0.950 . S
H1381 C1393 0.950 . S
H1382 C1390 0.950 . S
H1383 C1392 0.950 . S
H1384 C1394 0.950 . S
H1385 C1396 0.950 . S
H1386 C1398 0.950 . S
H1387 C1399 0.950 . S
C1388 H1380 0.950 . S
C1388 C1389 1.386 . S
C1388 C1390 1.391 . S
C1389 C1388 1.386 . S
C1389 C1393 1.393 . S
C1390 H1382 0.950 . S
C1390 C1388 1.391 . S
C1390 C1391 1.400 . S
C1391 C1390 1.400 . S
C1391 C1392 1.398 . S
C1391 C1397 1.491 . S
C1392 H1383 0.950 . S
C1392 C1391 1.398 . S
C1392 C1393 1.391 . S
C1393 H1381 0.950 . S
C1393 C1389 1.393 . S
C1393 C1392 1.391 . S
C1394 H1384 0.950 . S
C1394 C1395 1.386 . S
C1394 C1396 1.391 . S
C1395 C1394 1.386 . S
C1395 C1399 1.393 . S
C1396 H1385 0.950 . S
C1396 C1394 1.391 . S
C1396 C1397 1.400 . S
C1397 C1391 1.491 . S
C1397 C1396 1.400 . S
C1397 C1398 1.398 . S
C1398 H1386 0.950 . S
C1398 C1397 1.398 . S
C1398 C1399 1.391 . S
C1399 H1387 0.950 . S
C1399 C1395 1.393 . S
C1399 C1398 1.391 . S
H1400 C1408 0.950 . S
H1401 C1413 0.950 . S
H1402 C1410 0.950 . S
H1403 C1412 0.950 . S
H1404 C1414 0.950 . S
H1405 C1416 0.950 . S
H1406 C1418 0.950 . S
H1407 C1419 0.950 . S
C1408 H1400 0.950 . S
C1408 C1409 1.386 . S
C1408 C1410 1.391 . S
C1409 C1408 1.386 . S
C1409 C1413 1.393 . S
C1410 H1402 0.950 . S
C1410 C1408 1.391 . S
C1410 C1411 1.400 . S
C1411 C1410 1.400 . S
C1411 C1412 1.398 . S
C1411 C1417 1.491 . S
C1412 H1403 0.950 . S
C1412 C1411 1.398 . S
C1412 C1413 1.391 . S
C1413 H1401 0.950 . S
C1413 C1409 1.393 . S
C1413 C1412 1.391 . S
C1414 H1404 0.950 . S
C1414 C1415 1.386 . S
C1414 C1416 1.391 . S
C1415 C1414 1.386 . S
C1415 C1419 1.393 . S
C1416 H1405 0.950 . S
C1416 C1414 1.391 . S
C1416 C1417 1.400 . S
C1417 C1411 1.491 . S
C1417 C1416 1.400 . S
C1417 C1418 1.398 . S
C1418 H1406 0.950 . S
C1418 C1417 1.398 . S
C1418 C1419 1.391 . S
C1419 H1407 0.950 . S
C1419 C1415 1.393 . S
C1419 C1418 1.391 . S
H1420 C1428 0.950 . S
H1421 C1433 0.950 . S
H1422 C1430 0.950 . S
H1423 C1432 0.950 . S
H1424 C1434 0.950 . S
H1425 C1436 0.950 . S
H1426 C1438 0.950 . S
H1427 C1439 0.950 . S
C1428 H1420 0.950 . S
C1428 C1429 1.386 . S
C1428 C1430 1.391 . S
C1429 C1428 1.386 . S
C1429 C1433 1.393 . S
C1430 H1422 0.950 . S
C1430 C1428 1.391 . S
C1430 C1431 1.400 . S
C1431 C1430 1.400 . S
C1431 C1432 1.398 . S
C1431 C1437 1.491 . S
C1432 H1423 0.950 . S
C1432 C1431 1.398 . S
C1432 C1433 1.391 . S
C1433 H1421 0.950 . S
C1433 C1429 1.393 . S
C1433 C1432 1.391 . S
C1434 H1424 0.950 . S
C1434 C1435 1.386 . S
C1434 C1436 1.391 . S
C1435 C1434 1.386 . S
C1435 C1439 1.393 . S
C1436 H1425 0.950 . S
C1436 C1434 1.391 . S
C1436 C1437 1.400 . S
C1437 C1431 1.491 . S
C1437 C1436 1.400 . S
C1437 C1438 1.398 . S
C1438 H1426 0.950 . S
C1438 C1437 1.398 . S
C1438 C1439 1.391 . S
C1439 H1427 0.950 . S
C1439 C1435 1.393 . S
C1439 C1438 1.391 . S
H1440 C1448 0.950 . S
H1441 C1453 0.950 . S
H1442 C1450 0.950 . S
H1443 C1452 0.950 . S
H1444 C1454 0.950 . S
H1445 C1456 0.950 . S
H1446 C1458 0.950 . S
H1447 C1459 0.950 . S
C1448 H1440 0.950 . S
C1448 C1449 1.386 . S
C1448 C1450 1.391 . S
C1449 C1448 1.386 . S
C1449 C1453 1.393 . S
C1450 H1442 0.950 . S
C1450 C1448 1.391 . S
C1450 C1451 1.400 . S
C1451 C1450 1.400 . S
C1451 C1452 1.398 . S
C1451 C1457 1.491 . S
C1452 H1443 0.950 . S
C1452 C1451 1.398 . S
C1452 C1453 1.391 . S
C1453 H1441 0.950 . S
C1453 C1449 1.393 . S
C1453 C1452 1.391 . S
C1454 H1444 0.950 . S
C1454 C1455 1.386 . S
C1454 C1456 1.391 . S
C1455 C1454 1.386 . S
C1455 C1459 1.393 . S
C1456 H1445 0.950 . S
C1456 C1454 1.391 . S
C1456 C1457 1.400 . S
C1457 C1451 1.491 . S
C1457 C1456 1.400 . S
C1457 C1458 1.398 . S
C1458 H1446 0.950 . S
C1458 C1457 1.398 . S
C1458 C1459 1.391 . S
C1459 H1447 0.950 . S
C1459 C1455 1.393 . S
C1459 C1458 1.391 . S
H1460 C1468 0.950 . S
H1461 C1473 0.950 . S
H1462 C1470 0.950 . S
H1463 C1472 0.950 . S
H1464 C1474 0.950 . S
H1465 C1476 0.950 . S
H1466 C1478 0.950 . S
H1467 C1479 0.950 . S
C1468 H1460 0.950 . S
C1468 C1469 1.386 . S
C1468 C1470 1.391 . S
C1469 C1468 1.386 . S
C1469 C1473 1.393 . S
C1470 H1462 0.950 . S
C1470 C1468 1.391 . S
C1470 C1471 1.400 . S
C1471 C1470 1.400 . S
C1471 C1472 1.398 . S
C1471 C1477 1.491 . S
C1472 H1463 0.950 . S
C1472 C1471 1.398 . S
C1472 C1473 1.391 . S
C1473 H1461 0.950 . S
C1473 C1469 1.393 . S
C1473 C1472 1.391 . S
C1474 H1464 0.950 . S
C1474 C1475 1.386 . S
C1474 C1476 1.391 . S
C1475 C1474 1.386 . S
C1475 C1479 1.393 . S
C1476 H1465 0.950 . S
C1476 C1474 1.391 . S
C1476 C1477 1.400 . S
C1477 C1471 1.491 . S
C1477 C1476 1.400 . S
C1477 C1478 1.398 . S
C1478 H1466 0.950 . S
C1478 C1477 1.398 . S
C1478 C1479 1.391 . S
C1479 H1467 0.950 . S
C1479 C1475 1.393 . S
C1479 C1478 1.391 . S
H1480 C1488 0.950 . S
H1481 C1493 0.950 . S
H1482 C1490 0.950 . S
H1483 C1492 0.950 . S
H1484 C1494 0.950 . S
H1485 C1496 0.950 . S
H1486 C1498 0.950 . S
H1487 C1499 0.950 1_556 S
C1488 H1480 0.950 . S
C1488 C1489 1.386 . S
C1488 C1490 1.391 . S
C1489 C1488 1.386 . S
C1489 C1493 1.393 . S
C1490 H1482 0.950 . S
C1490 C1488 1.391 . S
C1490 C1491 1.400 . S
C1491 C1490 1.400 . S
C1491 C1492 1.398 . S
C1491 C1497 1.491 . S
C1492 H1483 0.950 . S
C1492 C1491 1.398 . S
C1492 C1493 1.391 . S
C1493 H1481 0.950 . S
C1493 C1489 1.393 . S
C1493 C1492 1.391 . S
C1494 H1484 0.950 . S
C1494 C1495 1.386 . S
C1494 C1496 1.391 . S
C1495 C1494 1.386 . S
C1495 C1499 1.393 . S
C1496 H1485 0.950 . S
C1496 C1494 1.391 . S
C1496 C1497 1.400 . S
C1497 C1491 1.491 . S
C1497 C1496 1.400 . S
C1497 C1498 1.398 . S
C1498 H1486 0.950 . S
C1498 C1497 1.398 . S
C1498 C1499 1.391 . S
C1499 H1487 0.950 1_554 S
C1499 C1495 1.393 . S
C1499 C1498 1.391 . S
H1500 C1508 0.950 . S
H1501 C1513 0.950 . S
H1502 C1510 0.955 1_455 S
H1503 C1512 0.950 . S
H1504 C1514 0.950 . S
H1505 C1516 0.950 . S
H1506 C1518 0.950 . S
H1507 C1519 0.950 . S
C1508 H1500 0.950 . S
C1508 C1509 1.386 . S
C1508 C1510 1.422 . S
C1509 C1508 1.386 . S
C1509 C1513 1.393 . S
C1510 H1502 0.955 1_655 S
C1510 C1508 1.422 . S
C1510 C1511 1.366 1_655 S
C1511 C1510 1.366 1_455 S
C1511 C1512 1.398 . S
C1511 C1517 1.491 . S
C1512 H1503 0.950 . S
C1512 C1511 1.398 . S
C1512 C1513 1.391 1_455 S
C1513 H1501 0.950 . S
C1513 C1509 1.393 . S
C1513 C1512 1.391 1_655 S
C1514 H1504 0.950 . S
C1514 C1515 1.386 . S
C1514 C1516 1.391 . S
C1515 C1514 1.386 . S
C1515 C1519 1.393 . S
C1516 H1505 0.950 . S
C1516 C1514 1.391 . S
C1516 C1517 1.400 . S
C1517 C1511 1.491 . S
C1517 C1516 1.400 . S
C1517 C1518 1.398 . S
C1518 H1506 0.950 . S
C1518 C1517 1.398 . S
C1518 C1519 1.391 . S
C1519 H1507 0.950 . S
C1519 C1515 1.393 . S
C1519 C1518 1.391 . S
H1520 C1528 0.950 . S
H1521 C1533 0.950 . S
H1522 C1530 0.950 . S
H1523 C1532 0.950 . S
H1524 C1534 0.950 . S
H1525 C1536 0.950 . S
H1526 C1538 0.950 . S
H1527 C1539 0.950 . S
C1528 H1520 0.950 . S
C1528 C1529 1.386 . S
C1528 C1530 1.391 . S
C1529 C1528 1.386 . S
C1529 C1533 1.393 . S
C1530 H1522 0.950 . S
C1530 C1528 1.391 . S
C1530 C1531 1.400 . S
C1531 C1530 1.400 . S
C1531 C1532 1.398 . S
C1531 C1537 1.491 . S
C1532 H1523 0.950 . S
C1532 C1531 1.398 . S
C1532 C1533 1.391 . S
C1533 H1521 0.950 . S
C1533 C1529 1.393 . S
C1533 C1532 1.391 . S
C1534 H1524 0.950 . S
C1534 C1535 1.386 . S
C1534 C1536 1.391 . S
C1535 C1534 1.386 . S
C1535 C1539 1.393 . S
C1536 H1525 0.950 . S
C1536 C1534 1.391 . S
C1536 C1537 1.400 . S
C1537 C1531 1.491 . S
C1537 C1536 1.400 . S
C1537 C1538 1.398 . S
C1538 H1526 0.950 . S
C1538 C1537 1.398 . S
C1538 C1539 1.391 . S
C1539 H1527 0.950 . S
C1539 C1535 1.393 . S
C1539 C1538 1.391 . S
H1540 C1548 0.950 . S
H1541 C1553 0.950 . S
H1542 C1550 0.950 . S
H1543 C1552 0.950 . S
H1544 C1554 0.950 . S
H1545 C1556 0.950 . S
H1546 C1558 0.950 . S
H1547 C1559 0.950 . S
C1548 H1540 0.950 . S
C1548 C1549 1.386 . S
C1548 C1550 1.391 1_545 S
C1549 C1548 1.386 . S
C1549 C1553 1.393 . S
C1550 H1542 0.950 . S
C1550 C1548 1.391 1_565 S
C1550 C1551 1.400 . S
C1551 C1550 1.400 . S
C1551 C1552 1.398 . S
C1551 C1557 1.491 . S
C1552 H1543 0.950 . S
C1552 C1551 1.398 . S
C1552 C1553 1.391 1_565 S
C1553 H1541 0.950 . S
C1553 C1549 1.393 . S
C1553 C1552 1.391 1_545 S
C1554 H1544 0.950 . S
C1554 C1555 1.386 . S
C1554 C1556 1.391 . S
C1555 C1554 1.386 . S
C1555 C1559 1.393 . S
C1556 H1545 0.950 . S
C1556 C1554 1.391 . S
C1556 C1557 1.400 . S
C1557 C1551 1.491 . S
C1557 C1556 1.400 . S
C1557 C1558 1.398 . S
C1558 H1546 0.950 . S
C1558 C1557 1.398 . S
C1558 C1559 1.391 . S
C1559 H1547 0.950 . S
C1559 C1555 1.393 . S
C1559 C1558 1.391 . S
H1560 C1568 0.950 . S
H1561 C1573 0.950 . S
H1562 C1570 0.950 . S
H1563 C1572 0.950 . S
H1564 C1574 0.950 . S
H1565 C1576 0.950 . S
H1566 C1578 0.950 . S
H1567 C1579 0.950 . S
C1568 H1560 0.950 . S
C1568 C1569 1.386 . S
C1568 C1570 1.391 . S
C1569 C1568 1.386 . S
C1569 C1573 1.393 . S
C1570 H1562 0.950 . S
C1570 C1568 1.391 . S
C1570 C1571 1.400 . S
C1571 C1570 1.400 . S
C1571 C1572 1.398 . S
C1571 C1577 1.491 . S
C1572 H1563 0.950 . S
C1572 C1571 1.398 . S
C1572 C1573 1.391 . S
C1573 H1561 0.950 . S
C1573 C1569 1.393 . S
C1573 C1572 1.391 . S
C1574 H1564 0.950 . S
C1574 C1575 1.386 . S
C1574 C1576 1.391 . S
C1575 C1574 1.386 . S
C1575 C1579 1.393 . S
C1576 H1565 0.950 . S
C1576 C1574 1.391 . S
C1576 C1577 1.400 . S
C1577 C1571 1.491 . S
C1577 C1576 1.400 . S
C1577 C1578 1.398 . S
C1578 H1566 0.950 . S
C1578 C1577 1.398 . S
C1578 C1579 1.391 . S
C1579 H1567 0.950 . S
C1579 C1575 1.393 . S
C1579 C1578 1.391 . S
H1580 C1588 0.950 . S
H1581 C1593 0.950 . S
H1582 C1590 0.950 . S
H1583 C1592 0.950 . S
H1584 C1594 0.950 . S
H1585 C1596 0.950 . S
H1586 C1598 0.950 . S
H1587 C1599 0.950 . S
C1588 H1580 0.950 . S
C1588 C1589 1.386 . S
C1588 C1590 1.391 . S
C1589 C1588 1.386 . S
C1589 C1593 1.393 . S
C1590 H1582 0.950 . S
C1590 C1588 1.391 . S
C1590 C1591 1.400 . S
C1591 C1590 1.400 . S
C1591 C1592 1.398 . S
C1591 C1597 1.491 . S
C1592 H1583 0.950 . S
C1592 C1591 1.398 . S
C1592 C1593 1.391 . S
C1593 H1581 0.950 . S
C1593 C1589 1.393 . S
C1593 C1592 1.391 . S
C1594 H1584 0.950 . S
C1594 C1595 1.386 . S
C1594 C1596 1.391 . S
C1595 C1594 1.386 . S
C1595 C1599 1.393 . S
C1596 H1585 0.950 . S
C1596 C1594 1.391 . S
C1596 C1597 1.400 . S
C1597 C1591 1.491 . S
C1597 C1596 1.400 . S
C1597 C1598 1.398 . S
C1598 H1586 0.950 . S
C1598 C1597 1.398 . S
C1598 C1599 1.391 . S
C1599 H1587 0.950 . S
C1599 C1595 1.393 . S
C1599 C1598 1.391 . S
H1600 C1608 0.950 . S
H1601 C1613 0.950 . S
H1602 C1610 0.950 . S
H1603 C1612 0.950 . S
H1604 C1614 0.950 . S
H1605 C1616 0.950 . S
H1606 C1618 0.950 . S
H1607 C1619 0.950 . S
C1608 H1600 0.950 . S
C1608 C1609 1.386 . S
C1608 C1610 1.391 . S
C1609 C1608 1.386 . S
C1609 C1613 1.393 . S
C1610 H1602 0.950 . S
C1610 C1608 1.391 . S
C1610 C1611 1.400 . S
C1611 C1610 1.400 . S
C1611 C1612 1.398 . S
C1611 C1617 1.491 . S
C1612 H1603 0.950 . S
C1612 C1611 1.398 . S
C1612 C1613 1.391 . S
C1613 H1601 0.950 . S
C1613 C1609 1.393 . S
C1613 C1612 1.391 . S
C1614 H1604 0.950 . S
C1614 C1615 1.386 . S
C1614 C1616 1.391 . S
C1615 C1614 1.386 . S
C1615 C1619 1.393 . S
C1616 H1605 0.950 . S
C1616 C1614 1.391 . S
C1616 C1617 1.400 . S
C1617 C1611 1.491 . S
C1617 C1616 1.400 . S
C1617 C1618 1.398 . S
C1618 H1606 0.950 . S
C1618 C1617 1.398 . S
C1618 C1619 1.391 . S
C1619 H1607 0.950 . S
C1619 C1615 1.393 . S
C1619 C1618 1.391 . S
H1620 C1628 0.950 . S
H1621 C1633 0.950 . S
H1622 C1630 0.950 . S
H1623 C1632 0.950 . S
H1624 C1634 0.950 . S
H1625 C1636 0.950 . S
H1626 C1638 0.950 . S
H1627 C1639 0.950 . S
C1628 H1620 0.950 . S
C1628 C1629 1.386 . S
C1628 C1630 1.391 . S
C1629 C1628 1.386 . S
C1629 C1633 1.393 . S
C1630 H1622 0.950 . S
C1630 C1628 1.391 . S
C1630 C1631 1.400 . S
C1631 C1630 1.400 . S
C1631 C1632 1.398 . S
C1631 C1637 1.491 . S
C1632 H1623 0.950 . S
C1632 C1631 1.398 . S
C1632 C1633 1.391 . S
C1633 H1621 0.950 . S
C1633 C1629 1.393 . S
C1633 C1632 1.391 . S
C1634 H1624 0.950 . S
C1634 C1635 1.386 . S
C1634 C1636 1.391 . S
C1635 C1634 1.386 . S
C1635 C1639 1.393 . S
C1636 H1625 0.950 . S
C1636 C1634 1.391 . S
C1636 C1637 1.400 . S
C1637 C1631 1.491 . S
C1637 C1636 1.400 . S
C1637 C1638 1.398 . S
C1638 H1626 0.950 . S
C1638 C1637 1.398 . S
C1638 C1639 1.391 . S
C1639 H1627 0.950 . S
C1639 C1635 1.393 . S
C1639 C1638 1.391 . S
H1640 C1648 0.950 . S
H1641 C1653 0.950 . S
H1642 C1650 0.950 . S
H1643 C1652 0.950 . S
H1644 C1654 0.950 . S
H1645 C1656 0.950 . S
H1646 C1658 0.950 . S
H1647 C1659 0.950 . S
C1648 H1640 0.950 . S
C1648 C1649 1.386 . S
C1648 C1650 1.391 . S
C1649 C1648 1.386 . S
C1649 C1653 1.393 . S
C1650 H1642 0.950 . S
C1650 C1648 1.391 . S
C1650 C1651 1.400 . S
C1651 C1650 1.400 . S
C1651 C1652 1.398 . S
C1651 C1657 1.491 . S
C1652 H1643 0.950 . S
C1652 C1651 1.398 . S
C1652 C1653 1.391 . S
C1653 H1641 0.950 . S
C1653 C1649 1.393 . S
C1653 C1652 1.391 . S
C1654 H1644 0.950 . S
C1654 C1655 1.386 . S
C1654 C1656 1.391 . S
C1655 C1654 1.386 . S
C1655 C1659 1.393 . S
C1656 H1645 0.950 . S
C1656 C1654 1.391 . S
C1656 C1657 1.400 . S
C1657 C1651 1.491 . S
C1657 C1656 1.400 . S
C1657 C1658 1.398 . S
C1658 H1646 0.950 . S
C1658 C1657 1.398 . S
C1658 C1659 1.391 . S
C1659 H1647 0.950 . S
C1659 C1655 1.393 . S
C1659 C1658 1.391 . S
H1660 C1668 0.950 . S
H1661 C1673 0.950 . S
H1662 C1670 0.950 . S
H1663 C1672 0.950 . S
H1664 C1674 0.950 . S
H1665 C1676 0.950 . S
H1666 C1678 0.950 . S
H1667 C1679 0.950 . S
C1668 H1660 0.950 . S
C1668 C1669 1.386 . S
C1668 C1670 1.391 . S
C1669 C1668 1.386 . S
C1669 C1673 1.393 . S
C1670 H1662 0.950 . S
C1670 C1668 1.391 . S
C1670 C1671 1.400 . S
C1671 C1670 1.400 . S
C1671 C1672 1.398 . S
C1671 C1677 1.491 . S
C1672 H1663 0.950 . S
C1672 C1671 1.398 . S
C1672 C1673 1.391 . S
C1673 H1661 0.950 . S
C1673 C1669 1.393 . S
C1673 C1672 1.391 . S
C1674 H1664 0.950 . S
C1674 C1675 1.386 . S
C1674 C1676 1.391 . S
C1675 C1674 1.386 . S
C1675 C1679 1.393 . S
C1676 H1665 0.950 . S
C1676 C1674 1.391 . S
C1676 C1677 1.400 . S
C1677 C1671 1.491 . S
C1677 C1676 1.400 . S
C1677 C1678 1.398 . S
C1678 H1666 0.950 . S
C1678 C1677 1.398 . S
C1678 C1679 1.391 . S
C1679 H1667 0.950 . S
C1679 C1675 1.393 . S
C1679 C1678 1.391 . S
H1680 C1688 0.950 . S
H1681 C1693 0.950 . S
H1682 C1690 0.950 . S
H1683 C1692 0.950 . S
H1684 C1694 0.950 . S
H1685 C1696 0.950 . S
H1686 C1698 0.950 . S
H1687 C1699 0.950 . S
C1688 H1680 0.950 . S
C1688 C1689 1.386 . S
C1688 C1690 1.391 1_545 S
C1689 C1688 1.386 . S
C1689 C1693 1.393 . S
C1690 H1682 0.950 . S
C1690 C1688 1.391 1_565 S
C1690 C1691 1.400 . S
C1691 C1690 1.400 . S
C1691 C1692 1.398 . S
C1691 C1697 1.491 . S
C1692 H1683 0.950 . S
C1692 C1691 1.398 . S
C1692 C1693 1.391 1_565 S
C1693 H1681 0.950 . S
C1693 C1689 1.393 . S
C1693 C1692 1.391 1_545 S
C1694 H1684 0.950 . S
C1694 C1695 1.386 . S
C1694 C1696 1.391 . S
C1695 C1694 1.386 . S
C1695 C1699 1.393 . S
C1696 H1685 0.950 . S
C1696 C1694 1.391 . S
C1696 C1697 1.400 . S
C1697 C1691 1.491 . S
C1697 C1696 1.400 . S
C1697 C1698 1.398 . S
C1698 H1686 0.950 . S
C1698 C1697 1.398 . S
C1698 C1699 1.391 . S
C1699 H1687 0.950 . S
C1699 C1695 1.393 . S
C1699 C1698 1.391 . S
H1700 C1708 0.950 . S
H1701 C1713 0.950 . S
H1702 C1710 0.950 . S
H1703 C1712 0.950 . S
H1704 C1714 0.950 . S
H1705 C1716 0.950 . S
H1706 C1718 0.950 . S
H1707 C1719 0.950 . S
C1708 H1700 0.950 . S
C1708 C1709 1.386 . S
C1708 C1710 1.391 1_655 S
C1709 C1708 1.386 . S
C1709 C1713 1.393 . S
C1710 H1702 0.950 . S
C1710 C1708 1.391 1_455 S
C1710 C1711 1.400 . S
C1711 C1710 1.400 . S
C1711 C1712 1.398 . S
C1711 C1717 1.491 . S
C1712 H1703 0.950 . S
C1712 C1711 1.398 . S
C1712 C1713 1.391 1_455 S
C1713 H1701 0.950 . S
C1713 C1709 1.393 . S
C1713 C1712 1.391 1_655 S
C1714 H1704 0.950 . S
C1714 C1715 1.386 . S
C1714 C1716 1.391 . S
C1715 C1714 1.386 . S
C1715 C1719 1.393 . S
C1716 H1705 0.950 . S
C1716 C1714 1.391 . S
C1716 C1717 1.400 . S
C1717 C1711 1.491 . S
C1717 C1716 1.400 . S
C1717 C1718 1.398 . S
C1718 H1706 0.950 . S
C1718 C1717 1.398 . S
C1718 C1719 1.391 . S
C1719 H1707 0.950 . S
C1719 C1715 1.393 . S
C1719 C1718 1.391 . S
H1720 C1728 0.950 . S
H1721 C1733 0.950 . S
H1722 C1730 0.950 . S
H1723 C1732 0.950 . S
H1724 C1734 0.950 . S
H1725 C1736 0.950 . S
H1726 C1738 0.950 . S
H1727 C1739 0.950 . S
C1728 H1720 0.950 . S
C1728 C1729 1.386 . S
C1728 C1730 1.391 . S
C1729 C1728 1.386 . S
C1729 C1733 1.393 . S
C1730 H1722 0.950 . S
C1730 C1728 1.391 . S
C1730 C1731 1.400 . S
C1731 C1730 1.400 . S
C1731 C1732 1.398 . S
C1731 C1737 1.491 . S
C1732 H1723 0.950 . S
C1732 C1731 1.398 . S
C1732 C1733 1.391 . S
C1733 H1721 0.950 . S
C1733 C1729 1.393 . S
C1733 C1732 1.391 . S
C1734 H1724 0.950 . S
C1734 C1735 1.386 . S
C1734 C1736 1.391 . S
C1735 C1734 1.386 . S
C1735 C1739 1.393 . S
C1736 H1725 0.950 . S
C1736 C1734 1.391 . S
C1736 C1737 1.400 . S
C1737 C1731 1.491 . S
C1737 C1736 1.400 . S
C1737 C1738 1.398 . S
C1738 H1726 0.950 . S
C1738 C1737 1.398 . S
C1738 C1739 1.391 . S
C1739 H1727 0.950 . S
C1739 C1735 1.393 . S
C1739 C1738 1.391 . S
H1740 C1748 0.950 . S
H1741 C1753 0.950 . S
H1742 C1750 0.950 . S
H1743 C1752 0.950 . S
H1744 C1754 0.950 . S
H1745 C1756 0.950 . S
H1746 C1758 0.950 . S
H1747 C1759 0.950 . S
C1748 H1740 0.950 . S
C1748 C1749 1.386 . S
C1748 C1750 1.391 . S
C1749 C1748 1.386 . S
C1749 C1753 1.393 . S
C1750 H1742 0.950 . S
C1750 C1748 1.391 . S
C1750 C1751 1.400 . S
C1751 C1750 1.400 . S
C1751 C1752 1.398 . S
C1751 C1757 1.491 . S
C1752 H1743 0.950 . S
C1752 C1751 1.398 . S
C1752 C1753 1.391 . S
C1753 H1741 0.950 . S
C1753 C1749 1.393 . S
C1753 C1752 1.391 . S
C1754 H1744 0.950 . S
C1754 C1755 1.386 . S
C1754 C1756 1.391 . S
C1755 C1754 1.386 . S
C1755 C1759 1.393 . S
C1756 H1745 0.950 . S
C1756 C1754 1.391 . S
C1756 C1757 1.400 . S
C1757 C1751 1.491 . S
C1757 C1756 1.400 . S
C1757 C1758 1.398 . S
C1758 H1746 0.950 . S
C1758 C1757 1.398 . S
C1758 C1759 1.391 . S
C1759 H1747 0.950 . S
C1759 C1755 1.393 . S
C1759 C1758 1.391 . S
H1760 C1768 0.950 . S
H1761 C1773 0.950 . S
H1762 C1770 0.950 . S
H1763 C1772 0.950 . S
H1764 C1774 0.950 . S
H1765 C1776 0.950 . S
H1766 C1778 0.950 . S
H1767 C1779 0.950 . S
C1768 H1760 0.950 . S
C1768 C1769 1.386 . S
C1768 C1770 1.391 . S
C1769 C1768 1.386 . S
C1769 C1773 1.393 . S
C1770 H1762 0.950 . S
C1770 C1768 1.391 . S
C1770 C1771 1.400 . S
C1771 C1770 1.400 . S
C1771 C1772 1.398 . S
C1771 C1777 1.491 . S
C1772 H1763 0.950 . S
C1772 C1771 1.398 . S
C1772 C1773 1.391 . S
C1773 H1761 0.950 . S
C1773 C1769 1.393 . S
C1773 C1772 1.391 . S
C1774 H1764 0.950 . S
C1774 C1775 1.386 . S
C1774 C1776 1.391 . S
C1775 C1774 1.386 . S
C1775 C1779 1.393 . S
C1776 H1765 0.950 . S
C1776 C1774 1.391 . S
C1776 C1777 1.400 . S
C1777 C1771 1.491 . S
C1777 C1776 1.400 . S
C1777 C1778 1.398 . S
C1778 H1766 0.950 . S
C1778 C1777 1.398 . S
C1778 C1779 1.391 . S
C1779 H1767 0.950 . S
C1779 C1775 1.393 . S
C1779 C1778 1.391 . S
H1780 C1788 0.950 . S
H1781 C1793 0.950 . S
H1782 C1790 0.950 . S
H1783 C1792 0.950 . S
H1784 C1794 0.950 . S
H1785 C1796 0.950 . S
H1786 C1798 0.950 . S
H1787 C1799 0.950 . S
C1788 H1780 0.950 . S
C1788 C1789 1.386 . S
C1788 C1790 1.391 . S
C1789 C1788 1.386 . S
C1789 C1793 1.393 . S
C1790 H1782 0.950 . S
C1790 C1788 1.391 . S
C1790 C1791 1.400 . S
C1791 C1790 1.400 . S
C1791 C1792 1.398 . S
C1791 C1797 1.491 . S
C1792 H1783 0.950 . S
C1792 C1791 1.398 . S
C1792 C1793 1.391 . S
C1793 H1781 0.950 . S
C1793 C1789 1.393 . S
C1793 C1792 1.391 . S
C1794 H1784 0.950 . S
C1794 C1795 1.386 . S
C1794 C1796 1.391 . S
C1795 C1794 1.386 . S
C1795 C1799 1.393 . S
C1796 H1785 0.950 . S
C1796 C1794 1.391 . S
C1796 C1797 1.400 . S
C1797 C1791 1.491 . S
C1797 C1796 1.400 . S
C1797 C1798 1.398 . S
C1798 H1786 0.950 . S
C1798 C1797 1.398 . S
C1798 C1799 1.391 . S
C1799 H1787 0.950 . S
C1799 C1795 1.393 . S
C1799 C1798 1.391 . S
H1800 C1808 0.950 . S
H1801 C1813 0.950 . S
H1802 C1810 0.950 . S
H1803 C1812 0.950 . S
H1804 C1814 0.950 . S
H1805 C1816 0.950 . S
H1806 C1818 0.950 . S
H1807 C1819 0.950 . S
C1808 H1800 0.950 . S
C1808 C1809 1.386 . S
C1808 C1810 1.391 1_565 S
C1809 C1808 1.386 . S
C1809 C1813 1.393 . S
C1810 H1802 0.950 . S
C1810 C1808 1.391 1_545 S
C1810 C1811 1.400 . S
C1811 C1810 1.400 . S
C1811 C1812 1.398 . S
C1811 C1817 1.491 . S
C1812 H1803 0.950 . S
C1812 C1811 1.398 . S
C1812 C1813 1.391 1_545 S
C1813 H1801 0.950 . S
C1813 C1809 1.393 . S
C1813 C1812 1.391 1_565 S
C1814 H1804 0.950 . S
C1814 C1815 1.386 . S
C1814 C1816 1.391 . S
C1815 C1814 1.386 . S
C1815 C1819 1.393 . S
C1816 H1805 0.950 . S
C1816 C1814 1.391 . S
C1816 C1817 1.400 . S
C1817 C1811 1.491 . S
C1817 C1816 1.400 . S
C1817 C1818 1.398 . S
C1818 H1806 0.950 . S
C1818 C1817 1.398 . S
C1818 C1819 1.391 . S
C1819 H1807 0.950 . S
C1819 C1815 1.393 . S
C1819 C1818 1.391 . S
H1820 C1828 0.950 . S
H1821 C1833 0.950 . S
H1822 C1830 0.953 . S
H1823 C1832 0.950 . S
H1824 C1834 0.950 . S
H1825 C1836 0.950 . S
H1826 C1838 0.950 . S
H1827 C1839 0.950 . S
C1828 H1820 0.950 . S
C1828 C1829 1.386 . S
C1828 C1830 1.353 1_455 S
C1829 C1828 1.386 . S
C1829 C1833 1.393 1_455 S
C1830 H1822 0.953 . S
C1830 C1828 1.353 1_655 S
C1830 C1831 1.433 . S
C1831 C1830 1.433 . S
C1831 C1832 1.398 . S
C1831 C1837 1.491 . S
C1832 H1823 0.950 . S
C1832 C1831 1.398 . S
C1832 C1833 1.391 . S
C1833 H1821 0.950 . S
C1833 C1829 1.393 1_655 S
C1833 C1832 1.391 . S
C1834 H1824 0.950 . S
C1834 C1835 1.386 . S
C1834 C1836 1.391 . S
C1835 C1834 1.386 . S
C1835 C1839 1.393 . S
C1836 H1825 0.950 . S
C1836 C1834 1.391 . S
C1836 C1837 1.400 . S
C1837 C1831 1.491 . S
C1837 C1836 1.400 . S
C1837 C1838 1.398 . S
C1838 H1826 0.950 . S
C1838 C1837 1.398 . S
C1838 C1839 1.391 . S
C1839 H1827 0.950 . S
C1839 C1835 1.393 . S
C1839 C1838 1.391 . S
H1840 C1848 0.950 . S
H1841 C1853 0.950 . S
H1842 C1850 0.950 . S
H1843 C1852 0.950 . S
H1844 C1854 0.950 . S
H1845 C1856 0.950 . S
H1846 C1858 0.950 . S
H1847 C1859 0.950 . S
C1848 H1840 0.950 . S
C1848 C1849 1.386 . S
C1848 C1850 1.391 . S
C1849 C1848 1.386 . S
C1849 C1853 1.393 . S
C1850 H1842 0.950 . S
C1850 C1848 1.391 . S
C1850 C1851 1.400 . S
C1851 C1850 1.400 . S
C1851 C1852 1.398 . S
C1851 C1857 1.491 . S
C1852 H1843 0.950 . S
C1852 C1851 1.398 . S
C1852 C1853 1.391 . S
C1853 H1841 0.950 . S
C1853 C1849 1.393 . S
C1853 C1852 1.391 . S
C1854 H1844 0.950 . S
C1854 C1855 1.386 . S
C1854 C1856 1.391 . S
C1855 C1854 1.386 . S
C1855 C1859 1.393 . S
C1856 H1845 0.950 . S
C1856 C1854 1.391 . S
C1856 C1857 1.400 . S
C1857 C1851 1.491 . S
C1857 C1856 1.400 . S
C1857 C1858 1.398 . S
C1858 H1846 0.950 . S
C1858 C1857 1.398 . S
C1858 C1859 1.391 . S
C1859 H1847 0.950 . S
C1859 C1855 1.393 . S
C1859 C1858 1.391 . S
H1860 C1868 0.950 . S
H1861 C1873 0.950 . S
H1862 C1870 0.950 . S
H1863 C1872 0.950 . S
H1864 C1874 0.950 . S
H1865 C1876 0.950 . S
H1866 C1878 0.950 . S
H1867 C1879 0.950 . S
C1868 H1860 0.950 . S
C1868 C1869 1.386 . S
C1868 C1870 1.391 . S
C1869 C1868 1.386 . S
C1869 C1873 1.393 . S
C1870 H1862 0.950 . S
C1870 C1868 1.391 . S
C1870 C1871 1.400 1_455 S
C1871 C1870 1.400 1_655 S
C1871 C1872 1.398 . S
C1871 C1877 1.491 . S
C1872 H1863 0.950 . S
C1872 C1871 1.398 . S
C1872 C1873 1.391 1_655 S
C1873 H1861 0.950 . S
C1873 C1869 1.393 . S
C1873 C1872 1.391 1_455 S
C1874 H1864 0.950 . S
C1874 C1875 1.386 . S
C1874 C1876 1.391 . S
C1875 C1874 1.386 . S
C1875 C1879 1.393 . S
C1876 H1865 0.950 . S
C1876 C1874 1.391 . S
C1876 C1877 1.400 . S
C1877 C1871 1.491 . S
C1877 C1876 1.400 . S
C1877 C1878 1.398 . S
C1878 H1866 0.950 . S
C1878 C1877 1.398 . S
C1878 C1879 1.391 . S
C1879 H1867 0.950 . S
C1879 C1875 1.393 . S
C1879 C1878 1.391 . S
H1880 C1888 0.950 . S
H1881 C1893 0.950 . S
H1882 C1890 0.950 . S
H1883 C1892 0.950 . S
H1884 C1894 0.950 . S
H1885 C1896 0.950 . S
H1886 C1898 0.950 . S
H1887 C1899 0.950 . S
C1888 H1880 0.950 . S
C1888 C1889 1.386 . S
C1888 C1890 1.391 . S
C1889 C1888 1.386 . S
C1889 C1893 1.393 . S
C1890 H1882 0.950 . S
C1890 C1888 1.391 . S
C1890 C1891 1.400 . S
C1891 C1890 1.400 . S
C1891 C1892 1.398 . S
C1891 C1897 1.491 . S
C1892 H1883 0.950 . S
C1892 C1891 1.398 . S
C1892 C1893 1.391 . S
C1893 H1881 0.950 . S
C1893 C1889 1.393 . S
C1893 C1892 1.391 . S
C1894 H1884 0.950 . S
C1894 C1895 1.386 . S
C1894 C1896 1.391 . S
C1895 C1894 1.386 . S
C1895 C1899 1.393 . S
C1896 H1885 0.950 . S
C1896 C1894 1.391 . S
C1896 C1897 1.400 . S
C1897 C1891 1.491 . S
C1897 C1896 1.400 . S
C1897 C1898 1.398 . S
C1898 H1886 0.950 . S
C1898 C1897 1.398 . S
C1898 C1899 1.391 . S
C1899 H1887 0.950 . S
C1899 C1895 1.393 . S
C1899 C1898 1.391 . S
H1900 C1908 0.950 . S
H1901 C1913 0.950 . S
H1902 C1910 0.950 . S
H1903 C1912 0.950 . S
H1904 C1914 0.950 . S
H1905 C1916 0.950 . S
H1906 C1918 0.950 . S
H1907 C1919 0.950 . S
C1908 H1900 0.950 . S
C1908 C1909 1.386 . S
C1908 C1910 1.391 1_565 S
C1909 C1908 1.386 . S
C1909 C1913 1.393 . S
C1910 H1902 0.950 . S
C1910 C1908 1.391 1_545 S
C1910 C1911 1.400 . S
C1911 C1910 1.400 . S
C1911 C1912 1.398 . S
C1911 C1917 1.491 . S
C1912 H1903 0.950 . S
C1912 C1911 1.398 . S
C1912 C1913 1.391 1_545 S
C1913 H1901 0.950 . S
C1913 C1909 1.393 . S
C1913 C1912 1.391 1_565 S
C1914 H1904 0.950 . S
C1914 C1915 1.386 . S
C1914 C1916 1.391 . S
C1915 C1914 1.386 . S
C1915 C1919 1.393 . S
C1916 H1905 0.950 . S
C1916 C1914 1.391 . S
C1916 C1917 1.400 . S
C1917 C1911 1.491 . S
C1917 C1916 1.400 . S
C1917 C1918 1.398 . S
C1918 H1906 0.950 . S
C1918 C1917 1.398 . S
C1918 C1919 1.391 . S
C1919 H1907 0.950 . S
C1919 C1915 1.393 . S
C1919 C1918 1.391 . S
H1920 C1928 0.950 . S
H1921 C1933 0.950 . S
H1922 C1930 0.950 . S
H1923 C1932 0.950 . S
H1924 C1934 0.950 . S
H1925 C1936 0.950 . S
H1926 C1938 0.950 . S
H1927 C1939 0.950 . S
C1928 H1920 0.950 . S
C1928 C1929 1.386 . S
C1928 C1930 1.391 . S
C1929 C1928 1.386 . S
C1929 C1933 1.393 . S
C1930 H1922 0.950 . S
C1930 C1928 1.391 . S
C1930 C1931 1.400 . S
C1931 C1930 1.400 . S
C1931 C1932 1.398 . S
C1931 C1937 1.491 . S
C1932 H1923 0.950 . S
C1932 C1931 1.398 . S
C1932 C1933 1.391 . S
C1933 H1921 0.950 . S
C1933 C1929 1.393 . S
C1933 C1932 1.391 . S
C1934 H1924 0.950 . S
C1934 C1935 1.386 . S
C1934 C1936 1.391 . S
C1935 C1934 1.386 . S
C1935 C1939 1.393 . S
C1936 H1925 0.950 . S
C1936 C1934 1.391 . S
C1936 C1937 1.400 . S
C1937 C1931 1.491 . S
C1937 C1936 1.400 . S
C1937 C1938 1.398 . S
C1938 H1926 0.950 . S
C1938 C1937 1.398 . S
C1938 C1939 1.391 . S
C1939 H1927 0.950 . S
C1939 C1935 1.393 . S
C1939 C1938 1.391 . S
H1940 C1948 0.950 . S
H1941 C1953 0.950 . S
H1942 C1950 0.950 . S
H1943 C1952 0.950 . S
H1944 C1954 0.950 . S
H1945 C1956 0.950 . S
H1946 C1958 0.950 . S
H1947 C1959 0.950 . S
C1948 H1940 0.950 . S
C1948 C1949 1.386 . S
C1948 C1950 1.391 . S
C1949 C1948 1.386 . S
C1949 C1953 1.393 . S
C1950 H1942 0.950 . S
C1950 C1948 1.391 . S
C1950 C1951 1.400 . S
C1951 C1950 1.400 . S
C1951 C1952 1.398 . S
C1951 C1957 1.491 . S
C1952 H1943 0.950 . S
C1952 C1951 1.398 . S
C1952 C1953 1.391 . S
C1953 H1941 0.950 . S
C1953 C1949 1.393 . S
C1953 C1952 1.391 . S
C1954 H1944 0.950 . S
C1954 C1955 1.386 . S
C1954 C1956 1.391 . S
C1955 C1954 1.386 . S
C1955 C1959 1.393 . S
C1956 H1945 0.950 . S
C1956 C1954 1.391 . S
C1956 C1957 1.400 . S
C1957 C1951 1.491 . S
C1957 C1956 1.400 . S
C1957 C1958 1.398 . S
C1958 H1946 0.950 . S
C1958 C1957 1.398 . S
C1958 C1959 1.391 . S
C1959 H1947 0.950 . S
C1959 C1955 1.393 . S
C1959 C1958 1.391 . S
H1960 C1968 0.950 . S
H1961 C1973 0.950 . S
H1962 C1970 0.950 . S
H1963 C1972 0.950 . S
H1964 C1974 0.950 . S
H1965 C1976 0.950 . S
H1966 C1978 0.950 . S
H1967 C1979 0.950 . S
C1968 H1960 0.950 . S
C1968 C1969 1.386 . S
C1968 C1970 1.391 . S
C1969 C1968 1.386 . S
C1969 C1973 1.393 . S
C1970 H1962 0.950 . S
C1970 C1968 1.391 . S
C1970 C1971 1.400 . S
C1971 C1970 1.400 . S
C1971 C1972 1.398 . S
C1971 C1977 1.491 . S
C1972 H1963 0.950 . S
C1972 C1971 1.398 . S
C1972 C1973 1.391 . S
C1973 H1961 0.950 . S
C1973 C1969 1.393 . S
C1973 C1972 1.391 . S
C1974 H1964 0.950 . S
C1974 C1975 1.386 . S
C1974 C1976 1.391 . S
C1975 C1974 1.386 . S
C1975 C1979 1.393 . S
C1976 H1965 0.950 . S
C1976 C1974 1.391 . S
C1976 C1977 1.400 . S
C1977 C1971 1.491 . S
C1977 C1976 1.400 . S
C1977 C1978 1.398 . S
C1978 H1966 0.950 . S
C1978 C1977 1.398 . S
C1978 C1979 1.391 . S
C1979 H1967 0.950 . S
C1979 C1975 1.393 . S
C1979 C1978 1.391 . S
H1980 C1988 0.950 . S
H1981 C1993 0.950 . S
H1982 C1990 0.950 . S
H1983 C1992 0.950 . S
H1984 C1994 0.950 . S
H1985 C1996 0.950 . S
H1986 C1998 0.950 . S
H1987 C1999 0.950 . S
C1988 H1980 0.950 . S
C1988 C1989 1.386 . S
C1988 C1990 1.391 . S
C1989 C1988 1.386 . S
C1989 C1993 1.393 . S
C1990 H1982 0.950 . S
C1990 C1988 1.391 . S
C1990 C1991 1.400 . S
C1991 C1990 1.400 . S
C1991 C1992 1.398 . S
C1991 C1997 1.491 . S
C1992 H1983 0.950 . S
C1992 C1991 1.398 . S
C1992 C1993 1.391 . S
C1993 H1981 0.950 . S
C1993 C1989 1.393 . S
C1993 C1992 1.391 . S
C1994 H1984 0.950 . S
C1994 C1995 1.386 . S
C1994 C1996 1.391 . S
C1995 C1994 1.386 . S
C1995 C1999 1.393 . S
C1996 H1985 0.950 . S
C1996 C1994 1.391 . S
C1996 C1997 1.400 . S
C1997 C1991 1.491 . S
C1997 C1996 1.400 . S
C1997 C1998 1.398 . S
C1998 H1986 0.950 . S
C1998 C1997 1.398 . S
C1998 C1999 1.391 . S
C1999 H1987 0.950 . S
C1999 C1995 1.393 . S
C1999 C1998 1.391 . S
H2000 C2008 0.950 . S
H2001 C2013 0.950 . S
H2002 C2010 0.950 . S
H2003 C2012 0.950 . S
H2004 C2014 0.950 1_655 S
H2005 C2016 0.950 . S
H2006 C2018 0.950 . S
H2007 C2019 0.950 . S
C2008 H2000 0.950 . S
C2008 C2009 1.386 . S
C2008 C2010 1.391 . S
C2009 C2008 1.386 . S
C2009 C2013 1.393 . S
C2010 H2002 0.950 . S
C2010 C2008 1.391 . S
C2010 C2011 1.400 . S
C2011 C2010 1.400 . S
C2011 C2012 1.398 . S
C2011 C2017 1.491 . S
C2012 H2003 0.950 . S
C2012 C2011 1.398 . S
C2012 C2013 1.391 . S
C2013 H2001 0.950 . S
C2013 C2009 1.393 . S
C2013 C2012 1.391 . S
C2014 H2004 0.950 1_455 S
C2014 C2015 1.386 . S
C2014 C2016 1.391 . S
C2015 C2014 1.386 . S
C2015 C2019 1.393 . S
C2016 H2005 0.950 . S
C2016 C2014 1.391 . S
C2016 C2017 1.400 . S
C2017 C2011 1.491 . S
C2017 C2016 1.400 . S
C2017 C2018 1.398 . S
C2018 H2006 0.950 . S
C2018 C2017 1.398 . S
C2018 C2019 1.391 . S
C2019 H2007 0.950 . S
C2019 C2015 1.393 . S
C2019 C2018 1.391 . S
H2020 C2028 0.950 . S
H2021 C2033 0.950 . S
H2022 C2030 0.950 . S
H2023 C2032 0.950 . S
H2024 C2034 0.950 . S
H2025 C2036 0.950 . S
H2026 C2038 0.950 . S
H2027 C2039 0.950 . S
C2028 H2020 0.950 . S
C2028 C2029 1.386 . S
C2028 C2030 1.391 . S
C2029 C2028 1.386 . S
C2029 C2033 1.393 . S
C2030 H2022 0.950 . S
C2030 C2028 1.391 . S
C2030 C2031 1.400 . S
C2031 C2030 1.400 . S
C2031 C2032 1.398 . S
C2031 C2037 1.491 . S
C2032 H2023 0.950 . S
C2032 C2031 1.398 . S
C2032 C2033 1.391 . S
C2033 H2021 0.950 . S
C2033 C2029 1.393 . S
C2033 C2032 1.391 . S
C2034 H2024 0.950 . S
C2034 C2035 1.386 . S
C2034 C2036 1.391 . S
C2035 C2034 1.386 . S
C2035 C2039 1.393 . S
C2036 H2025 0.950 . S
C2036 C2034 1.391 . S
C2036 C2037 1.400 . S
C2037 C2031 1.491 . S
C2037 C2036 1.400 . S
C2037 C2038 1.398 . S
C2038 H2026 0.950 . S
C2038 C2037 1.398 . S
C2038 C2039 1.391 . S
C2039 H2027 0.950 . S
C2039 C2035 1.393 . S
C2039 C2038 1.391 . S
H2040 C2048 0.950 1_455 S
H2041 C2053 0.950 . S
H2042 C2050 0.950 . S
H2043 C2052 0.950 . S
H2044 C2054 0.950 . S
H2045 C2056 0.950 . S
H2046 C2058 0.950 . S
H2047 C2059 0.950 . S
C2048 H2040 0.950 1_655 S
C2048 C2049 1.386 . S
C2048 C2050 1.391 1_655 S
C2049 C2048 1.386 . S
C2049 C2053 1.393 . S
C2050 H2042 0.950 . S
C2050 C2048 1.391 1_455 S
C2050 C2051 1.400 1_455 S
C2051 C2050 1.400 1_655 S
C2051 C2052 1.398 . S
C2051 C2057 1.491 . S
C2052 H2043 0.950 . S
C2052 C2051 1.398 . S
C2052 C2053 1.391 . S
C2053 H2041 0.950 . S
C2053 C2049 1.393 . S
C2053 C2052 1.391 . S
C2054 H2044 0.950 . S
C2054 C2055 1.386 . S
C2054 C2056 1.391 . S
C2055 C2054 1.386 . S
C2055 C2059 1.393 1_655 S
C2056 H2045 0.950 . S
C2056 C2054 1.391 . S
C2056 C2057 1.400 . S
C2057 C2051 1.491 . S
C2057 C2056 1.400 . S
C2057 C2058 1.398 1_655 S
C2058 H2046 0.950 . S
C2058 C2057 1.398 1_455 S
C2058 C2059 1.391 . S
C2059 H2047 0.950 . S
C2059 C2055 1.393 1_455 S
C2059 C2058 1.391 . S
H2060 C2068 0.950 . S
H2061 C2073 0.950 . S
H2062 C2070 0.950 . S
H2063 C2072 0.950 . S
H2064 C2074 0.950 . S
H2065 C2076 0.950 . S
H2066 C2078 0.950 . S
H2067 C2079 0.950 . S
C2068 H2060 0.950 . S
C2068 C2069 1.386 . S
C2068 C2070 1.391 . S
C2069 C2068 1.386 . S
C2069 C2073 1.393 . S
C2070 H2062 0.950 . S
C2070 C2068 1.391 . S
C2070 C2071 1.400 . S
C2071 C2070 1.400 . S
C2071 C2072 1.398 . S
C2071 C2077 1.491 . S
C2072 H2063 0.950 . S
C2072 C2071 1.398 . S
C2072 C2073 1.391 . S
C2073 H2061 0.950 . S
C2073 C2069 1.393 . S
C2073 C2072 1.391 . S
C2074 H2064 0.950 . S
C2074 C2075 1.386 . S
C2074 C2076 1.391 . S
C2075 C2074 1.386 . S
C2075 C2079 1.393 . S
C2076 H2065 0.950 . S
C2076 C2074 1.391 . S
C2076 C2077 1.400 . S
C2077 C2071 1.491 . S
C2077 C2076 1.400 . S
C2077 C2078 1.398 . S
C2078 H2066 0.950 . S
C2078 C2077 1.398 . S
C2078 C2079 1.391 . S
C2079 H2067 0.950 . S
C2079 C2075 1.393 . S
C2079 C2078 1.391 . S
H2080 C2088 0.950 . S
H2081 C2093 0.950 . S
H2082 C2090 0.950 . S
H2083 C2092 0.950 1_565 S
H2084 C2094 0.950 . S
H2085 C2096 0.950 . S
H2086 C2098 0.950 . S
H2087 C2099 0.950 . S
C2088 H2080 0.950 . S
C2088 C2089 1.386 . S
C2088 C2090 1.391 . S
C2089 C2088 1.386 . S
C2089 C2093 1.393 . S
C2090 H2082 0.950 . S
C2090 C2088 1.391 . S
C2090 C2091 1.400 . S
C2091 C2090 1.400 . S
C2091 C2092 1.398 . S
C2091 C2097 1.491 . S
C2092 H2083 0.950 1_545 S
C2092 C2091 1.398 . S
C2092 C2093 1.391 . S
C2093 H2081 0.950 . S
C2093 C2089 1.393 . S
C2093 C2092 1.391 . S
C2094 H2084 0.950 . S
C2094 C2095 1.386 1_565 S
C2094 C2096 1.391 . S
C2095 C2094 1.386 1_545 S
C2095 C2099 1.393 . S
C2096 H2085 0.950 . S
C2096 C2094 1.391 . S
C2096 C2097 1.400 1_565 S
C2097 C2091 1.491 . S
C2097 C2096 1.400 1_545 S
C2097 C2098 1.398 . S
C2098 H2086 0.950 . S
C2098 C2097 1.398 . S
C2098 C2099 1.391 . S
C2099 H2087 0.950 . S
C2099 C2095 1.393 . S
C2099 C2098 1.391 . S
H2100 C2108 0.950 . S
H2101 C2113 0.950 . S
H2102 C2110 0.950 . S
H2103 C2112 0.950 . S
H2104 C2114 0.950 . S
H2105 C2116 0.950 . S
H2106 C2118 0.950 . S
H2107 C2119 0.950 . S
C2108 H2100 0.950 . S
C2108 C2109 1.386 . S
C2108 C2110 1.391 . S
C2109 C2108 1.386 . S
C2109 C2113 1.393 . S
C2110 H2102 0.950 . S
C2110 C2108 1.391 . S
C2110 C2111 1.400 . S
C2111 C2110 1.400 . S
C2111 C2112 1.398 . S
C2111 C2117 1.491 . S
C2112 H2103 0.950 . S
C2112 C2111 1.398 . S
C2112 C2113 1.391 . S
C2113 H2101 0.950 . S
C2113 C2109 1.393 . S
C2113 C2112 1.391 . S
C2114 H2104 0.950 . S
C2114 C2115 1.386 . S
C2114 C2116 1.391 . S
C2115 C2114 1.386 . S
C2115 C2119 1.393 . S
C2116 H2105 0.950 . S
C2116 C2114 1.391 . S
C2116 C2117 1.400 . S
C2117 C2111 1.491 . S
C2117 C2116 1.400 . S
C2117 C2118 1.398 . S
C2118 H2106 0.950 . S
C2118 C2117 1.398 . S
C2118 C2119 1.391 . S
C2119 H2107 0.950 . S
C2119 C2115 1.393 . S
C2119 C2118 1.391 . S
H2120 C2128 0.950 . S
H2121 C2133 0.950 . S
H2122 C2130 0.950 . S
H2123 C2132 0.950 . S
H2124 C2134 0.950 . S
H2125 C2136 0.950 . S
H2126 C2138 0.950 . S
H2127 C2139 0.950 . S
C2128 H2120 0.950 . S
C2128 C2129 1.386 . S
C2128 C2130 1.391 . S
C2129 C2128 1.386 . S
C2129 C2133 1.393 . S
C2130 H2122 0.950 . S
C2130 C2128 1.391 . S
C2130 C2131 1.400 . S
C2131 C2130 1.400 . S
C2131 C2132 1.398 . S
C2131 C2137 1.491 . S
C2132 H2123 0.950 . S
C2132 C2131 1.398 . S
C2132 C2133 1.391 . S
C2133 H2121 0.950 . S
C2133 C2129 1.393 . S
C2133 C2132 1.391 . S
C2134 H2124 0.950 . S
C2134 C2135 1.386 . S
C2134 C2136 1.391 . S
C2135 C2134 1.386 . S
C2135 C2139 1.393 . S
C2136 H2125 0.950 . S
C2136 C2134 1.391 . S
C2136 C2137 1.400 . S
C2137 C2131 1.491 . S
C2137 C2136 1.400 . S
C2137 C2138 1.398 . S
C2138 H2126 0.950 . S
C2138 C2137 1.398 . S
C2138 C2139 1.391 . S
C2139 H2127 0.950 . S
C2139 C2135 1.393 . S
C2139 C2138 1.391 . S
H2140 C2148 0.950 . S
H2141 C2153 0.950 . S
H2142 C2150 0.950 . S
H2143 C2152 0.950 . S
H2144 C2154 0.950 . S
H2145 C2156 0.950 . S
H2146 C2158 0.950 . S
H2147 C2159 0.950 . S
C2148 H2140 0.950 . S
C2148 C2149 1.386 . S
C2148 C2150 1.391 . S
C2149 C2148 1.386 . S
C2149 C2153 1.393 . S
C2150 H2142 0.950 . S
C2150 C2148 1.391 . S
C2150 C2151 1.400 . S
C2151 C2150 1.400 . S
C2151 C2152 1.398 . S
C2151 C2157 1.491 . S
C2152 H2143 0.950 . S
C2152 C2151 1.398 . S
C2152 C2153 1.391 . S
C2153 H2141 0.950 . S
C2153 C2149 1.393 . S
C2153 C2152 1.391 . S
C2154 H2144 0.950 . S
C2154 C2155 1.386 . S
C2154 C2156 1.391 . S
C2155 C2154 1.386 . S
C2155 C2159 1.393 . S
C2156 H2145 0.950 . S
C2156 C2154 1.391 . S
C2156 C2157 1.400 . S
C2157 C2151 1.491 . S
C2157 C2156 1.400 . S
C2157 C2158 1.398 . S
C2158 H2146 0.950 . S
C2158 C2157 1.398 . S
C2158 C2159 1.391 . S
C2159 H2147 0.950 . S
C2159 C2155 1.393 . S
C2159 C2158 1.391 . S
H2160 C2168 0.950 . S
H2161 C2173 0.950 . S
H2162 C2170 0.950 . S
H2163 C2172 0.950 . S
H2164 C2174 0.950 . S
H2165 C2176 0.950 . S
H2166 C2178 0.950 . S
H2167 C2179 0.950 . S
C2168 H2160 0.950 . S
C2168 C2169 1.386 . S
C2168 C2170 1.391 . S
C2169 C2168 1.386 . S
C2169 C2173 1.393 . S
C2170 H2162 0.950 . S
C2170 C2168 1.391 . S
C2170 C2171 1.400 . S
C2171 C2170 1.400 . S
C2171 C2172 1.398 . S
C2171 C2177 1.491 . S
C2172 H2163 0.950 . S
C2172 C2171 1.398 . S
C2172 C2173 1.391 . S
C2173 H2161 0.950 . S
C2173 C2169 1.393 . S
C2173 C2172 1.391 . S
C2174 H2164 0.950 . S
C2174 C2175 1.386 . S
C2174 C2176 1.391 . S
C2175 C2174 1.386 . S
C2175 C2179 1.393 . S
C2176 H2165 0.950 . S
C2176 C2174 1.391 . S
C2176 C2177 1.400 . S
C2177 C2171 1.491 . S
C2177 C2176 1.400 . S
C2177 C2178 1.398 . S
C2178 H2166 0.950 . S
C2178 C2177 1.398 . S
C2178 C2179 1.391 . S
C2179 H2167 0.950 . S
C2179 C2175 1.393 . S
C2179 C2178 1.391 . S
H2180 C2188 0.950 . S
H2181 C2193 0.950 . S
H2182 C2190 0.950 . S
H2183 C2192 0.950 . S
H2184 C2194 0.950 . S
H2185 C2196 0.950 . S
H2186 C2198 0.950 . S
H2187 C2199 0.950 . S
C2188 H2180 0.950 . S
C2188 C2189 1.386 . S
C2188 C2190 1.391 . S
C2189 C2188 1.386 . S
C2189 C2193 1.393 . S
C2190 H2182 0.950 . S
C2190 C2188 1.391 . S
C2190 C2191 1.400 . S
C2191 C2190 1.400 . S
C2191 C2192 1.398 . S
C2191 C2197 1.491 . S
C2192 H2183 0.950 . S
C2192 C2191 1.398 . S
C2192 C2193 1.391 . S
C2193 H2181 0.950 . S
C2193 C2189 1.393 . S
C2193 C2192 1.391 . S
C2194 H2184 0.950 . S
C2194 C2195 1.386 . S
C2194 C2196 1.391 . S
C2195 C2194 1.386 . S
C2195 C2199 1.393 . S
C2196 H2185 0.950 . S
C2196 C2194 1.391 . S
C2196 C2197 1.400 . S
C2197 C2191 1.491 . S
C2197 C2196 1.400 . S
C2197 C2198 1.398 . S
C2198 H2186 0.950 . S
C2198 C2197 1.398 . S
C2198 C2199 1.391 . S
C2199 H2187 0.950 . S
C2199 C2195 1.393 . S
C2199 C2198 1.391 . S
H2200 C2208 0.950 . S
H2201 C2213 0.950 . S
H2202 C2210 0.950 . S
H2203 C2212 0.950 . S
H2204 C2214 0.950 . S
H2205 C2216 0.950 . S
H2206 C2218 0.950 . S
H2207 C2219 0.950 . S
C2208 H2200 0.950 . S
C2208 C2209 1.386 . S
C2208 C2210 1.391 . S
C2209 C2208 1.386 . S
C2209 C2213 1.393 . S
C2210 H2202 0.950 . S
C2210 C2208 1.391 . S
C2210 C2211 1.400 . S
C2211 C2210 1.400 . S
C2211 C2212 1.398 . S
C2211 C2217 1.491 . S
C2212 H2203 0.950 . S
C2212 C2211 1.398 . S
C2212 C2213 1.391 . S
C2213 H2201 0.950 . S
C2213 C2209 1.393 . S
C2213 C2212 1.391 . S
C2214 H2204 0.950 . S
C2214 C2215 1.386 . S
C2214 C2216 1.391 . S
C2215 C2214 1.386 . S
C2215 C2219 1.393 . S
C2216 H2205 0.950 . S
C2216 C2214 1.391 . S
C2216 C2217 1.400 . S
C2217 C2211 1.491 . S
C2217 C2216 1.400 . S
C2217 C2218 1.398 . S
C2218 H2206 0.950 . S
C2218 C2217 1.398 . S
C2218 C2219 1.391 . S
C2219 H2207 0.950 . S
C2219 C2215 1.393 . S
C2219 C2218 1.391 . S
H2220 C2228 0.950 . S
H2221 C2233 0.950 . S
H2222 C2230 0.950 . S
H2223 C2232 0.950 . S
H2224 C2234 0.950 . S
H2225 C2236 0.950 . S
H2226 C2238 0.950 . S
H2227 C2239 0.950 . S
C2228 H2220 0.950 . S
C2228 C2229 1.386 . S
C2228 C2230 1.391 . S
C2229 C2228 1.386 . S
C2229 C2233 1.393 . S
C2230 H2222 0.950 . S
C2230 C2228 1.391 . S
C2230 C2231 1.400 . S
C2231 C2230 1.400 . S
C2231 C2232 1.398 . S
C2231 C2237 1.491 . S
C2232 H2223 0.950 . S
C2232 C2231 1.398 . S
C2232 C2233 1.391 . S
C2233 H2221 0.950 . S
C2233 C2229 1.393 . S
C2233 C2232 1.391 . S
C2234 H2224 0.950 . S
C2234 C2235 1.386 . S
C2234 C2236 1.391 . S
C2235 C2234 1.386 . S
C2235 C2239 1.393 . S
C2236 H2225 0.950 . S
C2236 C2234 1.391 . S
C2236 C2237 1.400 . S
C2237 C2231 1.491 . S
C2237 C2236 1.400 . S
C2237 C2238 1.398 . S
C2238 H2226 0.950 . S
C2238 C2237 1.398 . S
C2238 C2239 1.391 . S
C2239 H2227 0.950 . S
C2239 C2235 1.393 . S
C2239 C2238 1.391 . S
H2240 C2248 0.950 . S
H2241 C2253 0.950 . S
H2242 C2250 0.950 . S
H2243 C2252 0.950 . S
H2244 C2254 0.950 . S
H2245 C2256 0.950 . S
H2246 C2258 0.950 . S
H2247 C2259 0.950 . S
C2248 H2240 0.950 . S
C2248 C2249 1.386 . S
C2248 C2250 1.391 . S
C2249 C2248 1.386 . S
C2249 C2253 1.393 . S
C2250 H2242 0.950 . S
C2250 C2248 1.391 . S
C2250 C2251 1.400 . S
C2251 C2250 1.400 . S
C2251 C2252 1.398 . S
C2251 C2257 1.491 . S
C2252 H2243 0.950 . S
C2252 C2251 1.398 . S
C2252 C2253 1.391 . S
C2253 H2241 0.950 . S
C2253 C2249 1.393 . S
C2253 C2252 1.391 . S
C2254 H2244 0.950 . S
C2254 C2255 1.386 . S
C2254 C2256 1.391 . S
C2255 C2254 1.386 . S
C2255 C2259 1.393 . S
C2256 H2245 0.950 . S
C2256 C2254 1.391 . S
C2256 C2257 1.400 . S
C2257 C2251 1.491 . S
C2257 C2256 1.400 . S
C2257 C2258 1.398 . S
C2258 H2246 0.950 . S
C2258 C2257 1.398 . S
C2258 C2259 1.391 . S
C2259 H2247 0.950 . S
C2259 C2255 1.393 . S
C2259 C2258 1.391 . S
H2260 C2268 0.950 . S
H2261 C2273 0.950 . S
H2262 C2270 0.950 . S
H2263 C2272 0.950 . S
H2264 C2274 0.950 . S
H2265 C2276 0.950 . S
H2266 C2278 0.950 . S
H2267 C2279 0.950 . S
C2268 H2260 0.950 . S
C2268 C2269 1.386 . S
C2268 C2270 1.391 . S
C2269 C2268 1.386 . S
C2269 C2273 1.393 . S
C2270 H2262 0.950 . S
C2270 C2268 1.391 . S
C2270 C2271 1.400 . S
C2271 C2270 1.400 . S
C2271 C2272 1.398 . S
C2271 C2277 1.491 . S
C2272 H2263 0.950 . S
C2272 C2271 1.398 . S
C2272 C2273 1.391 . S
C2273 H2261 0.950 . S
C2273 C2269 1.393 . S
C2273 C2272 1.391 . S
C2274 H2264 0.950 . S
C2274 C2275 1.386 . S
C2274 C2276 1.391 . S
C2275 C2274 1.386 . S
C2275 C2279 1.393 . S
C2276 H2265 0.950 . S
C2276 C2274 1.391 . S
C2276 C2277 1.400 . S
C2277 C2271 1.491 . S
C2277 C2276 1.400 . S
C2277 C2278 1.398 . S
C2278 H2266 0.950 . S
C2278 C2277 1.398 . S
C2278 C2279 1.391 . S
C2279 H2267 0.950 . S
C2279 C2275 1.393 . S
C2279 C2278 1.391 . S
H2280 C2288 0.950 . S
H2281 C2293 0.950 . S
H2282 C2290 0.950 . S
H2283 C2292 0.950 . S
H2284 C2294 0.950 . S
H2285 C2296 0.950 . S
H2286 C2298 0.950 . S
H2287 C2299 0.950 . S
C2288 H2280 0.950 . S
C2288 C2289 1.386 . S
C2288 C2290 1.391 . S
C2289 C2288 1.386 . S
C2289 C2293 1.393 . S
C2290 H2282 0.950 . S
C2290 C2288 1.391 . S
C2290 C2291 1.400 . S
C2291 C2290 1.400 . S
C2291 C2292 1.398 . S
C2291 C2297 1.491 . S
C2292 H2283 0.950 . S
C2292 C2291 1.398 . S
C2292 C2293 1.391 . S
C2293 H2281 0.950 . S
C2293 C2289 1.393 . S
C2293 C2292 1.391 . S
C2294 H2284 0.950 . S
C2294 C2295 1.386 . S
C2294 C2296 1.391 . S
C2295 C2294 1.386 . S
C2295 C2299 1.393 . S
C2296 H2285 0.950 . S
C2296 C2294 1.391 . S
C2296 C2297 1.400 . S
C2297 C2291 1.491 . S
C2297 C2296 1.400 . S
C2297 C2298 1.398 . S
C2298 H2286 0.950 . S
C2298 C2297 1.398 . S
C2298 C2299 1.391 . S
C2299 H2287 0.950 . S
C2299 C2295 1.393 . S
C2299 C2298 1.391 . S
H2300 C2308 0.950 . S
H2301 C2313 0.950 . S
H2302 C2310 0.950 . S
H2303 C2312 0.950 . S
H2304 C2314 0.950 . S
H2305 C2316 0.950 . S
H2306 C2318 0.950 . S
H2307 C2319 0.950 . S
C2308 H2300 0.950 . S
C2308 C2309 1.386 . S
C2308 C2310 1.391 . S
C2309 C2308 1.386 . S
C2309 C2313 1.393 . S
C2310 H2302 0.950 . S
C2310 C2308 1.391 . S
C2310 C2311 1.400 . S
C2311 C2310 1.400 . S
C2311 C2312 1.398 . S
C2311 C2317 1.491 . S
C2312 H2303 0.950 . S
C2312 C2311 1.398 . S
C2312 C2313 1.391 . S
C2313 H2301 0.950 . S
C2313 C2309 1.393 . S
C2313 C2312 1.391 . S
C2314 H2304 0.950 . S
C2314 C2315 1.386 . S
C2314 C2316 1.391 . S
C2315 C2314 1.386 . S
C2315 C2319 1.393 . S
C2316 H2305 0.950 . S
C2316 C2314 1.391 . S
C2316 C2317 1.400 . S
C2317 C2311 1.491 . S
C2317 C2316 1.400 . S
C2317 C2318 1.398 . S
C2318 H2306 0.950 . S
C2318 C2317 1.398 . S
C2318 C2319 1.391 . S
C2319 H2307 0.950 . S
C2319 C2315 1.393 . S
C2319 C2318 1.391 . S
H2320 C2328 0.950 . S
H2321 C2333 0.950 . S
H2322 C2330 0.950 . S
H2323 C2332 0.950 . S
H2324 C2334 0.950 . S
H2325 C2336 0.950 . S
H2326 C2338 0.950 . S
H2327 C2339 0.950 . S
C2328 H2320 0.950 . S
C2328 C2329 1.386 . S
C2328 C2330 1.391 . S
C2329 C2328 1.386 . S
C2329 C2333 1.393 . S
C2330 H2322 0.950 . S
C2330 C2328 1.391 . S
C2330 C2331 1.400 . S
C2331 C2330 1.400 . S
C2331 C2332 1.398 . S
C2331 C2337 1.491 . S
C2332 H2323 0.950 . S
C2332 C2331 1.398 . S
C2332 C2333 1.391 . S
C2333 H2321 0.950 . S
C2333 C2329 1.393 . S
C2333 C2332 1.391 . S
C2334 H2324 0.950 . S
C2334 C2335 1.386 . S
C2334 C2336 1.391 . S
C2335 C2334 1.386 . S
C2335 C2339 1.393 . S
C2336 H2325 0.950 . S
C2336 C2334 1.391 . S
C2336 C2337 1.400 . S
C2337 C2331 1.491 . S
C2337 C2336 1.400 . S
C2337 C2338 1.398 . S
C2338 H2326 0.950 . S
C2338 C2337 1.398 . S
C2338 C2339 1.391 . S
C2339 H2327 0.950 . S
C2339 C2335 1.393 . S
C2339 C2338 1.391 . S
C1269 C781 1.570 . S
C1275 C1086 1.555 . S
C1289 C871 1.494 . S
C1295 C1106 1.503 . S
C1309 C751 1.538 . S
C1315 C1129 1.570 . S
C1329 C691 1.443 . S
C1335 C1109 1.461 . S
C1355 C1126 1.423 . S
C1349 C571 1.379 . S
C1369 C601 1.464 . S
C1375 C1089 1.474 . S
C1395 C1096 1.544 . S
C1389 C661 1.523 . S
C1415 C1116 1.482 . S
C1409 C541 1.469 . S
C1429 C631 1.581 . S
C1435 C1121 1.556 . S
C1449 C811 1.474 . S
C1455 C1101 1.456 . S
C1469 C841 1.404 . S
C1475 C1136 1.414 . S
C1495 C1081 1.461 . S
C1489 C721 1.417 . S
C1515 C1146 1.538 . S
C1509 C61 1.558 . S
C1529 C151 1.492 . S
C1535 C1166 1.483 . S
C1549 C31 1.529 . S
C1555 C1189 1.555 . S
C1569 C1051 1.439 . S
C1575 C1169 1.470 . S
C1589 C931 1.406 . S
C1595 C1186 1.423 . S
C1609 C961 1.469 . S
C1615 C1149 1.476 . S
C1629 C1021 1.534 . S
C1635 C1156 1.553 . S
C1649 C901 1.482 . S
C1655 C1176 1.495 . S
C1675 C1181 1.559 . S
C1669 C991 1.584 . S
C1689 C91 1.471 . S
C1695 C1161 1.471 . S
C1715 C1196 1.432 . S
C1709 C121 1.425 . S
C1729 C1 1.435 . S
C1735 C1141 1.476 . S
C1755 C1206 1.540 . S
C1749 C421 1.559 . S
C1769 C511 1.480 . S
C1775 C1226 1.495 . S
C1795 C1249 1.562 . S
C1789 C391 1.544 . S
C1815 C1229 1.460 . S
C1809 C331 1.441 . S
C1835 C1246 1.423 . S
C1829 C211 1.406 . S
C1849 C241 1.475 . S
C1855 C1209 1.475 . S
C1869 C301 1.512 . S
C1875 C1216 1.536 . S
C1889 C181 1.473 . S
C1895 C1236 1.485 . S
C1915 C1241 1.571 . S
C1909 C271 1.581 . S
C1929 C451 1.478 . S
C1935 C1221 1.462 . S
C1949 C481 1.415 . S
C1955 C1256 1.423 . S
C1969 C361 1.411 . S
C1975 C1201 1.461 . S
C1989 C920 1.244 . S
C1995 C1099 1.230 1_565 S
C2015 C1119 1.624 . S
C2009 C980 1.667 . S
C2029 C1040 1.454 . S
C2035 C1128 1.470 . S
C2049 C380 1.627 . S
C2055 C1108 1.624 . S
C2069 C440 1.470 . S
C2075 C1139 1.456 . S
C2095 C1088 1.246 1_545 S
C2089 C500 1.222 . S
C2109 C200 1.244 . S
C2115 C1159 1.230 . S
C2129 C260 1.656 . S
C2135 C1179 1.619 . S
C2149 C320 1.449 . S
C2155 C1188 1.470 . S
C2169 C740 1.619 . S
C2175 C1168 1.607 . S
C2195 C1199 1.468 . S
C2189 C800 1.483 . S
C2209 C860 1.220 . S
C2215 C1148 1.237 . S
C2229 C560 1.252 . S
C2235 C1219 1.243 . S
C2249 C620 1.666 . S
C2255 C1239 1.606 . S
C2275 C1248 1.455 . S
C2269 C680 1.458 . S
C2289 C20 1.630 . S
C2295 C1228 1.615 . S
C2309 C80 1.480 . S
C2315 C1259 1.445 . S
C2329 C140 1.220 . S
C2335 C1208 1.238 . S
