# Generated by pormake.
# Topology zzz, (3,6)-cn, num edge types: 1
# Building blocks:
#     Node 0, Type 0, BuildingBlock: BETDIP_clean_linker_0, # of connection points: 3
#     Node 1, Type 0, BuildingBlock: BETDIP_clean_linker_0, # of connection points: 3
#     Node 2, Type 0, BuildingBlock: BETDIP_clean_linker_0, # of connection points: 3
#     Node 3, Type 0, BuildingBlock: BETDIP_clean_linker_0, # of connection points: 3
#     Node 4, Type 0, BuildingBlock: BETDIP_clean_linker_0, # of connection points: 3
#     Node 5, Type 0, BuildingBlock: BETDIP_clean_linker_0, # of connection points: 3
#     Node 6, Type 0, BuildingBlock: BETDIP_clean_linker_0, # of connection points: 3
#     Node 7, Type 0, BuildingBlock: BETDIP_clean_linker_0, # of connection points: 3
#     Node 8, Type 1, BuildingBlock: BETDAH_clean_sbu_0, # of connection points: 6
#     Node 9, Type 1, BuildingBlock: BETDAH_clean_sbu_0, # of connection points: 6
#     Node 10, Type 1, BuildingBlock: BETDAH_clean_sbu_0, # of connection points: 6
#     Node 11, Type 1, BuildingBlock: BETDAH_clean_sbu_0, # of connection points: 6
#     Edge 12, Type (0, 1), BuildingBlock: XUDNAN_clean_linker_2, # of connection points: 2
#     Edge 13, Type (0, 1), BuildingBlock: XUDNAN_clean_linker_2, # of connection points: 2
#     Edge 14, Type (0, 1), BuildingBlock: XUDNAN_clean_linker_2, # of connection points: 2
#     Edge 15, Type (0, 1), BuildingBlock: XUDNAN_clean_linker_2, # of connection points: 2
#     Edge 16, Type (0, 1), BuildingBlock: XUDNAN_clean_linker_2, # of connection points: 2
#     Edge 17, Type (0, 1), BuildingBlock: XUDNAN_clean_linker_2, # of connection points: 2
#     Edge 18, Type (0, 1), BuildingBlock: XUDNAN_clean_linker_2, # of connection points: 2
#     Edge 19, Type (0, 1), BuildingBlock: XUDNAN_clean_linker_2, # of connection points: 2
#     Edge 20, Type (0, 1), BuildingBlock: XUDNAN_clean_linker_2, # of connection points: 2
#     Edge 21, Type (0, 1), BuildingBlock: XUDNAN_clean_linker_2, # of connection points: 2
#     Edge 22, Type (0, 1), BuildingBlock: XUDNAN_clean_linker_2, # of connection points: 2
#     Edge 23, Type (0, 1), BuildingBlock: XUDNAN_clean_linker_2, # of connection points: 2
#     Edge 24, Type (0, 1), BuildingBlock: XUDNAN_clean_linker_2, # of connection points: 2
#     Edge 25, Type (0, 1), BuildingBlock: XUDNAN_clean_linker_2, # of connection points: 2
#     Edge 26, Type (0, 1), BuildingBlock: XUDNAN_clean_linker_2, # of connection points: 2
#     Edge 27, Type (0, 1), BuildingBlock: XUDNAN_clean_linker_2, # of connection points: 2
#     Edge 28, Type (0, 1), BuildingBlock: XUDNAN_clean_linker_2, # of connection points: 2
#     Edge 29, Type (0, 1), BuildingBlock: XUDNAN_clean_linker_2, # of connection points: 2
#     Edge 30, Type (0, 1), BuildingBlock: XUDNAN_clean_linker_2, # of connection points: 2
#     Edge 31, Type (0, 1), BuildingBlock: XUDNAN_clean_linker_2, # of connection points: 2
#     Edge 32, Type (0, 1), BuildingBlock: XUDNAN_clean_linker_2, # of connection points: 2
#     Edge 33, Type (0, 1), BuildingBlock: XUDNAN_clean_linker_2, # of connection points: 2
#     Edge 34, Type (0, 1), BuildingBlock: XUDNAN_clean_linker_2, # of connection points: 2
#     Edge 35, Type (0, 1), BuildingBlock: XUDNAN_clean_linker_2, # of connection points: 2
# Relax obj value: 0.273
# Max RMSD: 0.190
# Mean RMSD: 0.163
data_MOF--net-zzz--node1-BETDAH_clean_sbu_0--node2-BETDIP_clean_linker_0--edge1-XUDNAN_clean_linker_2
_symmetry_space_group_name_H-M    P1
_symmetry_Int_Tables_number       1
_symmetry_cell_setting            triclinic
loop_
_symmetry_equiv_pos_as_xyz
'x, y, z'
_cell_length_a     52.563927
_cell_length_b     52.758404
_cell_length_c     13.192172
_cell_angle_alpha  90.050496
_cell_angle_beta   89.945485
_cell_angle_gamma 90.058914
loop_
_atom_site_label
_atom_site_type_symbol
_atom_site_fract_x
_atom_site_fract_y
_atom_site_fract_z
_atom_type_partial_charge
H0 H 0.76254 0.50652 0.49603 0.0
H1 H 0.74627 0.54251 0.20828 0.0
H2 H 0.82129 0.54525 0.32692 0.0
H3 H 0.70874 0.55155 0.30766 0.0
C4 C 0.70492 0.53136 0.31465 0.0
C5 C 0.76876 0.51752 0.43138 0.0
C6 C 0.79457 0.52612 0.42537 0.0
C7 C 0.7508 0.52391 0.35384 0.0
C8 C 0.75913 0.53818 0.27002 0.0
C9 C 0.78414 0.5465 0.2636 0.0
C10 C 0.80158 0.54 0.33895 0.0
N11 N 0.72465 0.51587 0.35744 0.0
H12 H 0.01802 0.75787 0.42119 0.0
H13 H 0.95885 0.74702 0.19698 0.0
H14 H 0.96297 0.81632 0.36291 0.0
H15 H 0.96219 0.70654 0.24044 0.0
C16 C 0.98263 0.70384 0.24486 0.0
C17 C 1.00108 0.7644 0.38259 0.0
C18 C 0.99203 0.78939 0.39996 0.0
C19 C 0.98848 0.74816 0.31232 0.0
C20 C 0.96741 0.75776 0.25797 0.0
C21 C 0.95788 0.78194 0.27828 0.0
C22 C 0.96993 0.79719 0.35038 0.0
N23 N 0.99791 0.72309 0.29189 0.0
H24 H 0.77432 0.98469 0.43676 0.0
H25 H 0.79524 0.04356 0.22603 0.0
H26 H 0.72119 0.04367 0.36423 0.0
H27 H 0.80701 0.99228 0.15394 0.0
C28 C 0.82091 0.99624 0.21284 0.0
C29 C 0.76978 1.00213 0.39759 0.0
C30 C 0.7457 1.01365 0.41195 0.0
C31 C 0.7877 1.01293 0.32975 0.0
C32 C 0.78152 0.03533 0.27778 0.0
C33 C 0.75782 0.04701 0.29175 0.0
C34 C 0.74022 0.0359 0.35856 0.0
N35 N 0.81194 1.00147 0.31295 0.0
H36 H 0.53092 0.75061 0.41343 0.0
H37 H 0.47097 0.77211 0.20799 0.0
H38 H 0.4701 0.69873 0.34855 0.0
H39 H 0.5168 0.7823 0.12412 0.0
C40 C 0.51744 0.79634 0.18449 0.0
C41 C 0.513 0.74641 0.37653 0.0
C42 C 0.50089 0.72276 0.39337 0.0
C43 C 0.50226 0.76426 0.30864 0.0
C44 C 0.47923 0.75844 0.25959 0.0
C45 C 0.46715 0.73505 0.27485 0.0
C46 C 0.47821 0.71755 0.34175 0.0
N47 N 0.51476 0.78771 0.28667 0.0
H48 H 0.2805 0.50287 0.96692 0.0
H49 H 0.30679 0.51861 0.27063 0.0
H50 H 0.22749 0.52343 0.20339 0.0
H51 H 0.34189 0.54152 0.12606 0.0
C52 C 0.3436 0.521 0.12807 0.0
C53 C 0.27651 0.50865 0.04408 0.0
C54 C 0.25081 0.51282 0.07541 0.0
C55 C 0.29705 0.51164 0.11412 0.0
C56 C 0.29165 0.51796 0.21493 0.0
C57 C 0.26676 0.52198 0.24617 0.0
C58 C 0.24671 0.52011 0.17655 0.0
N59 N 0.32292 0.5064 0.08733 0.0
H60 H 0.0458 0.25477 0.12474 0.0
H61 H 0.98185 0.27454 0.31545 0.0
H62 H 0.98349 0.20262 0.16459 0.0
H63 H 0.99302 0.31382 0.19307 0.0
C64 C 1.0102 0.31457 0.23887 0.0
C65 C 0.02749 0.25013 0.15753 0.0
C66 C 0.01605 0.22629 0.13677 0.0
C67 C 1.01488 0.26801 0.22082 0.0
C68 C 0.99123 0.26155 0.26387 0.0
C69 C 0.97987 0.23821 0.24245 0.0
C70 C 0.99226 0.22092 0.17904 0.0
N71 N 0.0257 0.29234 0.24256 0.0
H72 H 0.27068 1.00046 0.05653 0.0
H73 H 0.24848 0.05588 0.28078 0.0
H74 H 0.32119 0.06142 0.13588 0.0
H75 H 0.20648 0.04674 0.18246 0.0
C76 C 0.20935 0.02748 0.20939 0.0
C77 C 0.27445 0.01786 0.09749 0.0
C78 C 0.29835 0.03006 0.08693 0.0
C79 C 0.25571 0.02783 0.16433 0.0
C80 C 0.26154 0.04946 0.22259 0.0
C81 C 0.2851 0.06152 0.21258 0.0
C82 C 0.30272 0.05232 0.14184 0.0
N83 N 0.23232 0.01465 0.18177 0.0
H84 H 0.50968 0.25146 0.08561 0.0
H85 H 0.57346 0.22861 0.26944 0.0
H86 H 0.57407 0.30116 0.12439 0.0
H87 H 0.56068 0.19048 0.13657 0.0
C88 C 0.54395 0.18979 0.18512 0.0
C89 C 0.52848 0.25518 0.11569 0.0
C90 C 0.54089 0.27846 0.09358 0.0
C91 C 0.54081 0.2365 0.17531 0.0
C92 C 0.56468 0.242 0.21796 0.0
C93 C 0.57667 0.26517 0.199 0.0
C94 C 0.56508 0.28281 0.13481 0.0
N95 N 0.5293 0.21243 0.19525 0.0
Ho96 Ho 0.03946 0.99983 0.87185 0.0
Ho97 Ho 1.01315 1.01236 0.67035 0.0
C98 C 0.02472 0.95538 0.71346 0.0
C99 C 0.04163 0.98436 0.0566 0.0
C100 C 0.02379 0.96664 0.10662 0.0
C101 C 0.99851 0.97392 0.12648 0.0
C102 C 0.97939 0.95564 0.13582 0.0
C103 C 0.98552 0.92984 0.12844 0.0
C104 C 1.01128 0.92267 0.12438 0.0
C105 C 0.03024 0.94091 0.11323 0.0
C106 C 0.07603 1.002 0.72518 0.0
C107 C 0.03222 0.05882 0.82123 0.0
C108 C 0.99585 0.03036 0.50247 0.0
C109 C 0.97645 0.0499 0.48818 0.0
C110 C 0.97086 0.05923 0.39153 0.0
C111 C 0.95422 0.07971 0.38072 0.0
C112 C 0.94311 0.09111 0.46665 0.0
C113 C 0.94769 0.08067 0.56274 0.0
C114 C 0.96423 0.06021 0.57339 0.0
C115 C 0.98122 1.00125 0.8276 0.0
O116 O 0.02389 0.96254 0.80995 0.0
O117 O 0.02616 0.97259 0.64102 0.0
O118 O 0.05516 0.97436 0.98354 0.0
O119 O 0.03248 1.00655 0.03155 0.0
O120 O 0.08053 0.99814 0.82061 0.0
O121 O 0.05245 1.00558 0.71431 0.0
O122 O 0.02025 0.05173 0.73682 0.0
O123 O 0.04216 0.04219 0.88508 0.0
O124 O 0.9875 1.0094 0.54308 0.0
O125 O 0.01701 0.03826 0.54412 0.0
O126 O 0.9771 0.99489 0.73445 0.0
O127 O 1.00143 0.01401 0.83058 0.0
H128 H 0.99325 0.9937 0.12735 0.0
H129 H 0.95976 0.9617 0.14202 0.0
H130 H 0.01667 0.90285 0.12387 0.0
H131 H 0.04967 0.93473 0.1012 0.0
H132 H 0.98009 0.05136 0.32511 0.0
H133 H 0.95137 0.08763 0.30586 0.0
H134 H 0.9394 0.08909 0.63001 0.0
H135 H 0.96825 0.05303 0.64864 0.0
Ho136 Ho 0.52773 0.01622 0.82016 0.0
Ho137 Ho 0.51361 0.987 0.6411 0.0
C138 C 0.57301 0.99254 0.67465 0.0
C139 C 0.54849 0.03565 0.979 0.0
C140 C 0.57254 0.04979 0.9898 0.0
C141 C 0.59542 0.03948 0.95353 0.0
C142 C 0.61777 0.05356 0.95676 0.0
C143 C 0.61786 0.07838 0.99544 0.0
C144 C 0.59505 0.08873 0.03255 0.0
C145 C 0.57251 0.07455 0.02912 0.0
C146 C 0.5195 0.04536 0.6524 0.0
C147 C 0.46943 1.00853 0.78901 0.0
C148 C 0.49121 0.97763 0.4728 0.0
C149 C 0.47139 0.99425 0.42971 0.0
C150 C 0.47615 0.02039 0.41956 0.0
C151 C 0.45617 0.03754 0.40995 0.0
C152 C 0.43094 0.0289 0.40881 0.0
C153 C 0.4263 1.00257 0.40928 0.0
C154 C 0.44635 0.98541 0.42034 0.0
C155 C 0.52349 0.95638 0.8007 0.0
O156 O 0.56686 1.0048 0.75911 0.0
O157 O 0.55539 0.98401 0.61217 0.0
O158 O 0.53086 0.04722 0.92699 0.0
O159 O 0.55036 1.01158 0.95555 0.0
O160 O 0.51224 0.05152 0.74283 0.0
O161 O 0.531 0.02449 0.65695 0.0
O162 O 0.4767 1.00548 0.69378 0.0
O163 O 0.4868 1.00936 0.86084 0.0
O164 O 0.48485 0.96625 0.55719 0.0
O165 O 0.51407 0.98736 0.47715 0.0
O166 O 0.52832 0.95087 0.70671 0.0
O167 O 0.51179 0.97742 0.80554 0.0
H168 H 0.59617 0.0205 0.92234 0.0
H169 H 0.6352 0.04467 0.93149 0.0
H170 H 0.59468 0.1077 0.06391 0.0
H171 H 0.55498 0.08298 0.05612 0.0
H172 H 0.49519 0.0279 0.42604 0.0
H173 H 0.4605 0.05761 0.40943 0.0
H174 H 0.40708 0.99524 0.40493 0.0
H175 H 0.44213 0.96539 0.42799 0.0
Ho176 Ho 0.49944 0.50662 0.81337 0.0
Ho177 Ho 0.53733 0.49426 0.6729 0.0
C178 C 0.52205 0.55174 0.671 0.0
C179 C 0.4698 0.52627 0.94934 0.0
C180 C 0.45601 0.55043 0.95656 0.0
C181 C 0.46723 0.57285 0.92113 0.0
C182 C 0.45404 0.59563 0.92601 0.0
C183 C 0.42924 0.59658 0.96562 0.0
C184 C 0.41791 0.57412 1.00108 0.0
C185 C 0.43118 0.55113 0.99589 0.0
C186 C 0.47911 0.49128 0.63306 0.0
C187 C 0.51481 0.44911 0.81669 0.0
C188 C 0.56639 0.47504 0.53398 0.0
C189 C 0.58316 0.45297 0.52643 0.0
C190 C 0.58751 0.43737 0.61068 0.0
C191 C 0.60184 0.41521 0.60025 0.0
C192 C 0.61193 0.4083 0.50525 0.0
C193 C 0.60844 0.42477 0.42239 0.0
C194 C 0.59419 0.44692 0.43305 0.0
C195 C 0.55805 0.50879 0.8538 0.0
O196 O 0.51071 0.5461 0.75757 0.0
O197 O 0.53131 0.53351 0.61397 0.0
O198 O 0.46187 0.51095 0.87865 0.0
O199 O 0.49463 0.52754 0.95316 0.0
O200 O 0.47211 0.48327 0.72128 0.0
O201 O 0.49756 0.50653 0.6437 0.0
O202 O 0.52685 0.45471 0.73136 0.0
O203 O 0.50482 0.46732 0.8719 0.0
O204 O 0.5737 0.49268 0.59671 0.0
O205 O 0.5421 0.47011 0.54156 0.0
O206 O 0.56538 0.51656 0.76571 0.0
O207 O 0.53918 0.49409 0.84229 0.0
H208 H 0.48638 0.57294 0.89103 0.0
H209 H 0.46372 0.61273 0.90243 0.0
H210 H 0.39896 0.5744 0.03349 0.0
H211 H 0.42219 0.53397 0.02341 0.0
H212 H 0.57925 0.44197 0.68369 0.0
H213 H 0.60429 0.40307 0.66569 0.0
H214 H 0.61545 0.41991 0.34766 0.0
H215 H 0.59105 0.45886 0.36743 0.0
Ho216 Ho 0.01625 0.49185 0.86209 0.0
Ho217 Ho 0.02282 0.52039 0.66991 0.0
C218 C 0.96559 0.50988 0.72937 0.0
C219 C 0.99879 0.483 0.03915 0.0
C220 C 0.97727 0.4979 0.07917 0.0
C221 C 0.97888 0.52457 0.07911 0.0
C222 C 0.95695 0.53931 0.07544 0.0
C223 C 0.93292 0.52775 0.07406 0.0
C224 C 0.93131 0.50126 0.0864 0.0
C225 C 0.95331 0.48645 0.08846 0.0
C226 C 0.02563 0.46128 0.70069 0.0
C227 C 0.07364 0.50412 0.80647 0.0
C228 C 0.03949 0.53166 0.49298 0.0
C229 C 0.06447 0.52343 0.45669 0.0
C230 C 0.07454 0.50086 0.49611 0.0
C231 C 0.10068 0.49729 0.50053 0.0
C232 C 0.11729 0.51587 0.46251 0.0
C233 C 0.10684 0.53651 0.4085 0.0
C234 C 0.08058 0.54056 0.40764 0.0
C235 C 1.01148 0.5506 0.82973 0.0
O236 O 0.97519 0.50214 0.81735 0.0
O237 O 0.98059 0.51694 0.65437 0.0
O238 O 0.99318 0.46855 0.96163 0.0
O239 O 0.01989 0.49565 0.02484 0.0
O240 O 0.03321 0.45628 0.79241 0.0
O241 O 1.01209 0.48105 0.70242 0.0
O242 O 0.06399 0.51194 0.71865 0.0
O243 O 0.05854 0.49599 0.87952 0.0
O244 O 0.04051 0.54757 0.56904 0.0
O245 O 0.02314 0.5134 0.50834 0.0
O246 O 1.00327 0.55437 0.73806 0.0
O247 O 0.02633 0.53171 0.83003 0.0
H248 H 0.99703 0.53413 0.07267 0.0
H249 H 0.95897 0.55963 0.06711 0.0
H250 H 0.91303 0.49182 0.09002 0.0
H251 H 0.9515 0.46599 0.08876 0.0
H252 H 0.06246 0.4872 0.53421 0.0
H253 H 0.10753 0.48106 0.54236 0.0
H254 H 0.11886 0.55046 0.37214 0.0
H255 H 0.07312 0.55797 0.37592 0.0
H256 H 0.16191 0.04587 0.25203 0.0
H257 H 0.21405 0.98558 0.33298 0.0
H258 H 0.18399 0.97112 0.4654 0.0
H259 H 0.14137 0.06115 0.49807 0.0
H260 H 0.1086 0.06682 0.46512 0.0
H261 H 0.13319 0.07137 0.37185 0.0
H262 H 0.11036 0.04017 0.25068 0.0
H263 H 0.08559 0.0356 0.34352 0.0
H264 H 0.10269 1.00868 0.2941 0.0
H265 H 0.15073 0.96633 0.6012 0.0
H266 H 0.1152 0.9692 0.72294 0.0
H267 H 0.08224 0.0306 0.54912 0.0
C268 C 0.16675 0.02933 0.29653 0.0
C269 C 0.19033 0.01677 0.2818 0.0
C270 C 0.1961 0.99537 0.34205 0.0
C271 C 0.17912 0.98707 0.4177 0.0
C272 C 0.15622 1.0001 0.4313 0.0
C273 C 0.1498 0.02055 0.37136 0.0
C274 C 0.12422 0.03155 0.40333 0.0
C275 C 0.12703 0.05937 0.43657 0.0
C276 C 0.10455 0.02883 0.31781 0.0
C277 C 0.11757 0.01457 0.49267 0.0
C278 C 0.13639 0.9966 0.50727 0.0
C279 C 0.13569 0.97998 0.58918 0.0
C280 C 0.11543 0.98181 0.65816 0.0
C281 C 0.09577 0.99983 0.64476 0.0
C282 C 0.09669 0.01623 0.55991 0.0
H283 H 0.51396 0.17968 0.35758 0.0
H284 H 0.56302 0.14458 0.13326 0.0
H285 H 0.55974 0.10386 0.22318 0.0
H286 H 0.54011 0.14759 0.56912 0.0
H287 H 0.51058 0.14334 0.63659 0.0
H288 H 0.51427 0.16955 0.55045 0.0
H289 H 0.4743 0.15499 0.45138 0.0
H290 H 0.47043 0.12882 0.53786 0.0
H291 H 0.47268 0.123 0.40353 0.0
H292 H 0.55348 0.0675 0.33793 0.0
H293 H 0.54562 0.03754 0.4775 0.0
H294 H 0.50091 0.09456 0.63413 0.0
C295 C 0.52338 0.16322 0.32611 0.0
C296 C 0.53846 0.16525 0.23712 0.0
C297 C 0.55114 0.14344 0.2003 0.0
C298 C 0.54935 0.12015 0.25065 0.0
C299 C 0.5347 0.1187 0.33831 0.0
C300 C 0.52187 0.13953 0.37623 0.0
C301 C 0.5089 0.13276 0.47615 0.0
C302 C 0.51908 0.1493 0.56322 0.0
C303 C 0.47985 0.13503 0.46663 0.0
C304 C 0.51692 0.10516 0.48874 0.0
C305 C 0.53157 0.0975 0.40736 0.0
C306 C 0.54188 0.07321 0.4018 0.0
C307 C 0.53732 0.05629 0.48169 0.0
C308 C 0.52254 0.06355 0.56673 0.0
C309 C 0.5121 0.08835 0.56982 0.0
H310 H 0.38464 0.54616 0.20677 0.0
H311 H 0.34998 0.47163 0.19508 0.0
H312 H 0.38304 0.45548 0.31223 0.0
H313 H 0.45095 0.52462 0.21892 0.0
H314 H 0.46083 0.54894 0.30663 0.0
H315 H 0.43543 0.55509 0.21858 0.0
H316 H 0.40506 0.56716 0.36335 0.0
H317 H 0.43025 0.56199 0.45331 0.0
H318 H 0.40038 0.54555 0.46753 0.0
H319 H 0.41755 0.44851 0.44414 0.0
H320 H 0.45129 0.45072 0.57429 0.0
H321 H 0.46542 0.52925 0.49663 0.0
C322 C 0.38426 0.52631 0.22765 0.0
C323 C 0.3647 0.51011 0.19098 0.0
C324 C 0.36477 0.48436 0.22103 0.0
C325 C 0.38351 0.47505 0.28789 0.0
C326 C 0.40231 0.49161 0.32362 0.0
C327 C 0.40296 0.51669 0.29377 0.0
C328 C 0.42469 0.53075 0.34593 0.0
C329 C 0.44413 0.5404 0.26781 0.0
C330 C 0.41448 0.55265 0.41142 0.0
C331 C 0.43595 0.50981 0.41136 0.0
C332 C 0.42269 0.48739 0.39721 0.0
C333 C 0.42829 0.46584 0.4542 0.0
C334 C 0.44755 0.46726 0.52802 0.0
C335 C 0.46145 0.48991 0.54433 0.0
C336 C 0.45572 0.51141 0.48392 0.0
H337 H 0.03548 0.3247 0.42232 0.0
H338 H 0.99685 0.36031 0.16965 0.0
H339 H 0.99978 0.40172 0.25501 0.0
H340 H 1.00403 0.35976 0.6128 0.0
H341 H 0.03094 0.36307 0.69641 0.0
H342 H 0.02907 0.33642 0.61134 0.0
H343 H 0.07293 0.34818 0.53548 0.0
H344 H 0.07501 0.37479 0.62094 0.0
H345 H 0.07805 0.37964 0.48623 0.0
H346 H 1.00232 0.43821 0.37197 0.0
H347 H 1.00555 0.4684 0.51327 0.0
H348 H 0.04321 0.41133 0.6957 0.0
C349 C 0.02843 0.3414 0.38393 0.0
C350 C 0.01636 0.33934 0.28799 0.0
C351 C 1.00647 0.36148 0.24213 0.0
C352 C 1.008 0.38512 0.2902 0.0
C353 C 0.01938 0.38655 0.3853 0.0
C354 C 0.02958 0.36541 0.43197 0.0
C355 C 0.03908 0.37232 0.53782 0.0
C356 C 0.02493 0.35698 0.6194 0.0
C357 C 0.06799 0.36851 0.54555 0.0
C358 C 0.03217 0.40039 0.54343 0.0
C359 C 0.02094 0.40807 0.45398 0.0
C360 C 1.01155 0.43256 0.44166 0.0
C361 C 1.01359 0.44971 0.52255 0.0
C362 C 0.02516 0.44263 0.61519 0.0
C363 C 0.03469 0.41755 0.62533 0.0
H364 H 0.84303 0.97225 0.05305 0.0
H365 H 0.86035 0.02255 0.30332 0.0
H366 H 0.90433 0.02777 0.23757 0.0
H367 H 0.90713 0.94166 0.04613 0.0
H368 H 0.90631 0.9385 0.91018 0.0
H369 H 0.87714 0.93744 0.98203 0.0
H370 H 0.85901 0.97404 0.87266 0.0
H371 H 0.88816 0.97537 0.80133 0.0
H372 H 0.87641 1.00343 0.86378 0.0
H373 H 0.94517 0.03116 0.13054 0.0
H374 H 0.97975 0.02935 1.00288 0.0
H375 H 0.93644 0.97455 0.82931 0.0
C376 C 0.85628 0.98396 0.09512 0.0
C377 C 0.84832 0.99692 0.18355 0.0
C378 C 0.8661 1.01221 0.23618 0.0
C379 C 0.8911 0.01535 0.199 0.0
C380 C 0.8982 1.00263 0.11026 0.0
C381 C 0.88139 0.98679 0.06037 0.0
C382 C 0.89347 0.97545 0.96609 0.0
C383 C 0.89617 0.94655 0.97677 0.0
C384 C 0.87836 0.98251 0.87034 0.0
C385 C 0.91929 0.98828 0.96762 0.0
C386 C 0.92178 1.0038 0.05159 0.0
C387 C 0.9435 0.01867 0.06576 0.0
C388 C 0.96309 0.01752 0.99279 0.0
C389 C 0.96105 1.00146 0.90705 0.0
C390 C 0.93879 0.98669 0.89488 0.0
H391 H 0.53208 0.81412 1.00135 0.0
H392 H 0.50772 0.83983 0.29773 0.0
H393 H 0.50808 0.88435 0.23568 0.0
H394 H 0.57456 0.86767 0.9476 0.0
H395 H 0.56668 0.8677 0.81465 0.0
H396 H 0.56564 0.83854 0.8855 0.0
H397 H 0.51884 0.83174 0.83017 0.0
H398 H 0.51968 0.86092 0.75975 0.0
H399 H 0.49568 0.85613 0.85553 0.0
H400 H 0.50805 0.92652 0.1318 0.0
H401 H 0.50995 0.96087 1.00294 0.0
H402 H 0.53609 0.90651 0.77956 0.0
C403 C 0.52718 0.82916 0.05377 0.0
C404 C 0.51998 0.82351 0.15449 0.0
C405 C 0.51354 0.84371 0.22052 0.0
C406 C 0.5136 0.86905 0.18563 0.0
C407 C 0.52047 0.87392 0.08489 0.0
C408 C 0.52747 0.85441 0.0206 0.0
C409 C 0.53375 0.86419 0.91557 0.0
C410 C 0.56183 0.85923 0.88932 0.0
C411 C 0.51592 0.85256 0.83558 0.0
C412 C 0.52871 0.89224 0.92937 0.0
C413 C 0.52104 0.89767 0.0273 0.0
C414 C 0.51432 0.92237 0.05542 0.0
C415 C 0.51543 0.94181 0.98175 0.0
C416 C 0.52328 0.93649 0.88115 0.0
C417 C 0.53019 0.91135 0.85581 0.0
H418 H 0.68055 0.55508 0.16176 0.0
H419 H 0.67742 0.48629 0.34001 0.0
H420 H 0.63787 0.47356 0.24878 0.0
H421 H 0.61389 0.56743 0.1462 0.0
H422 H 0.61525 0.57844 0.01699 0.0
H423 H 0.64255 0.58191 0.09823 0.0
H424 H 0.67035 0.55749 0.96864 0.0
H425 H 0.64322 0.5542 0.88651 0.0
H426 H 0.66048 0.52648 0.92671 0.0
H427 H 0.59658 0.46979 0.13611 0.0
H428 H 0.56257 0.47281 0.00574 0.0
H429 H 0.59551 0.543 0.89712 0.0
C430 C 0.67159 0.53726 0.18166 0.0
C431 C 0.68206 0.52173 0.25848 0.0
C432 C 0.66985 0.49847 0.28135 0.0
C433 C 0.64728 0.4912 0.23007 0.0
C434 C 0.63735 0.5072 0.15493 0.0
C435 C 0.64953 0.52959 0.13008 0.0
C436 C 0.63607 0.54315 0.0441 0.0
C437 C 0.62637 0.56928 0.07848 0.0
C438 C 0.65357 0.54546 0.95099 0.0
C439 C 0.61417 0.52513 0.02399 0.0
C440 C 0.61488 0.5046 0.08921 0.0
C441 C 0.59612 0.48577 0.08471 0.0
C442 C 0.5767 0.48771 0.01078 0.0
C443 C 0.57627 0.50817 0.94106 0.0
C444 C 0.59522 0.52713 0.94917 0.0
H445 H 0.95953 0.67628 0.09866 0.0
H446 H 0.02861 0.67889 0.27707 0.0
H447 H 0.04294 0.63869 0.19626 0.0
H448 H 0.95017 0.60974 0.10283 0.0
H449 H 0.93918 0.60718 0.97372 0.0
H450 H 0.93406 0.63601 0.0441 0.0
H451 H 0.95739 0.66249 0.90834 0.0
H452 H 0.96183 0.63419 0.83404 0.0
H453 H 0.98889 0.65335 0.86849 0.0
H454 H 0.04831 0.59631 0.0978 0.0
H455 H 0.04692 0.55989 0.97868 0.0
H456 H 0.97556 0.58746 0.85751 0.0
C457 C 0.97775 0.66843 0.12058 0.0
C458 C 0.99293 0.68065 0.19453 0.0
C459 C 0.01671 0.66991 0.22052 0.0
C460 C 0.02489 0.647 0.17525 0.0
C461 C 1.00926 0.63531 0.103 0.0
C462 C 0.98637 0.64603 0.07474 0.0
C463 C 0.97336 0.6305 0.99288 0.0
C464 C 0.94765 0.62025 0.03057 0.0
C465 C 0.97019 0.64606 0.89515 0.0
C466 C 0.99244 0.60927 0.97877 0.0
C467 C 1.01285 0.61205 0.04401 0.0
C468 C 0.0325 0.59421 0.04599 0.0
C469 C 0.03151 0.5735 0.97833 0.0
C470 C 1.01124 0.57093 0.90825 0.0
C471 C 0.99141 0.58901 0.9096 0.0
H472 H 0.97601 0.22766 0.44005 0.0
H473 H 0.93413 0.22635 0.15921 0.0
H474 H 0.90609 0.19313 0.22666 0.0
H475 H 0.98649 0.17166 0.45695 0.0
H476 H 0.98285 0.16524 0.59051 0.0
H477 H 0.98956 0.1967 0.54957 0.0
H478 H 0.94935 0.21337 0.64042 0.0
H479 H 0.9426 0.18164 0.68378 0.0
H480 H 0.91882 0.19916 0.61491 0.0
H481 H 0.8976 0.15062 0.28309 0.0
H482 H 0.90706 0.10638 0.32916 0.0
H483 H 0.95372 0.13263 0.57785 0.0
C484 C 0.95956 0.22165 0.39692 0.0
C485 C 0.95686 0.22949 0.29567 0.0
C486 C 0.93605 0.22078 0.23786 0.0
C487 C 0.92008 0.2018 0.27584 0.0
C488 C 0.92519 0.19188 0.37178 0.0
C489 C 0.94395 0.20216 0.43357 0.0
C490 C 0.95006 0.18457 0.52106 0.0
C491 C 0.9789 0.17921 0.52965 0.0
C492 C 0.93956 0.19532 0.62094 0.0
C493 C 0.9352 0.1613 0.48911 0.0
C494 C 0.91987 0.16628 0.40613 0.0
C495 C 0.9086 0.1467 0.35054 0.0
C496 C 0.91422 0.12157 0.37656 0.0
C497 C 0.93094 0.11626 0.45749 0.0
C498 C 0.94022 0.13631 0.51776 0.0
H499 H 0.28961 0.05019 0.40883 0.0
H500 H 0.30555 0.10902 0.1916 0.0
H501 H 0.34671 0.11701 0.2722 0.0
H502 H 0.34018 0.07639 0.62441 0.0
H503 H 0.34759 0.04381 0.65209 0.0
H504 H 0.31516 0.05302 0.62688 0.0
H505 H 0.31249 0.01907 0.48727 0.0
H506 H 0.34464 1.00987 0.50869 0.0
H507 H 0.33497 0.01971 0.38358 0.0
H508 H 0.38957 0.1023 0.30061 0.0
H509 H 0.42697 0.07449 0.30907 0.0
H510 H 0.38647 0.02451 0.51382 0.0
C511 C 0.3009 0.06629 0.38498 0.0
C512 C 0.29517 0.07837 0.29262 0.0
C513 C 0.3099 0.09941 0.26201 0.0
C514 C 0.33359 0.10379 0.30697 0.0
C515 C 0.34148 0.08764 0.38463 0.0
C516 C 0.32495 0.07015 0.42811 0.0
C517 C 0.33941 0.05108 0.49221 0.0
C518 C 0.33534 0.05641 0.60561 0.0
C519 C 0.33248 0.02335 0.46605 0.0
C520 C 0.36637 0.05746 0.46156 0.0
C521 C 0.36734 0.0793 0.40368 0.0
C522 C 0.3893 0.08599 0.35026 0.0
C523 C 0.41047 0.06992 0.35476 0.0
C524 C 0.40956 0.04723 0.41178 0.0
C525 C 0.38758 0.04163 0.46892 0.0
H526 H 0.5754 0.27248 0.39882 0.0
H527 H 0.62374 0.28072 0.13642 0.0
H528 H 0.64979 0.31216 0.22755 0.0
H529 H 0.56498 0.32926 0.42213 0.0
H530 H 0.56359 0.33335 0.55736 0.0
H531 H 0.55765 0.30287 0.50417 0.0
H532 H 0.59313 0.28263 0.61028 0.0
H533 H 0.59972 0.31284 0.66893 0.0
H534 H 0.62488 0.29554 0.60733 0.0
H535 H 0.65979 0.35168 0.31448 0.0
H536 H 0.65203 0.39444 0.3825 0.0
H537 H 0.59455 0.36391 0.58372 0.0
C538 C 0.5927 0.27956 0.36426 0.0
C539 C 0.59803 0.27398 0.26219 0.0
C540 C 0.61985 0.28441 0.21574 0.0
C541 C 0.63469 0.30235 0.26723 0.0
C542 C 0.62727 0.30975 0.3646 0.0
C543 C 0.60691 0.29828 0.4136 0.0
C544 C 0.5981 0.31393 0.50335 0.0
C545 C 0.56944 0.32022 0.49613 0.0
C546 C 0.60433 0.30042 0.6034 0.0
C547 C 0.61452 0.33725 0.49012 0.0
C548 C 0.63218 0.33395 0.41334 0.0
C549 C 0.64658 0.35421 0.37659 0.0
C550 C 0.64186 0.37853 0.41501 0.0
C551 C 0.6225 0.38253 0.48797 0.0
C552 C 0.60985 0.36138 0.52984 0.0
H553 H 0.24707 0.56183 0.34662 0.0
H554 H 0.27011 0.48399 0.38076 0.0
H555 H 0.23756 0.47763 0.51085 0.0
H556 H 0.21389 0.56457 0.63859 0.0
H557 H 0.19057 0.58567 0.58508 0.0
H558 H 0.22367 0.58891 0.55102 0.0
H559 H 0.21106 0.58584 0.36243 0.0
H560 H 0.17841 0.58182 0.39492 0.0
H561 H 0.19401 0.55823 0.31783 0.0
H562 H 0.19294 0.47277 0.53319 0.0
H563 H 0.14744 0.47374 0.4997 0.0
H564 H 0.15033 0.55591 0.48234 0.0
C565 C 0.24647 0.54431 0.38914 0.0
C566 C 0.26042 0.52335 0.35429 0.0
C567 C 0.25946 0.50025 0.40756 0.0
C568 C 0.24087 0.49651 0.48155 0.0
C569 C 0.22406 0.51629 0.50239 0.0
C570 C 0.22784 0.54053 0.46361 0.0
C571 C 0.20438 0.5568 0.47939 0.0
C572 C 0.20837 0.57505 0.56887 0.0
C573 C 0.19652 0.57144 0.38282 0.0
C574 C 0.1854 0.53646 0.50724 0.0
C575 C 0.19724 0.5135 0.52515 0.0
C576 C 0.18347 0.49088 0.52599 0.0
C577 C 0.15738 0.49162 0.50582 0.0
C578 C 0.14491 0.51496 0.48739 0.0
C579 C 0.15913 0.53763 0.49342 0.0
H580 H 0.96417 0.792 0.0817 0.0
H581 H 0.91195 0.80224 0.33007 0.0
H582 H 0.90052 0.84423 0.2659 0.0
H583 H 0.99421 0.83773 0.10439 0.0
H584 H 0.99993 0.84955 0.97811 0.0
H585 H 0.99208 0.81703 0.99547 0.0
H586 H 0.95368 0.82088 0.87494 0.0
H587 H 0.96199 0.85363 0.85368 0.0
H588 H 0.93033 0.84538 0.89484 0.0
H589 H 0.9131 0.88774 0.24277 0.0
H590 H 0.94122 0.92512 0.2381 0.0
H591 H 0.98511 0.89036 0.99786 0.0
C592 C 0.94865 0.80234 0.1163 0.0
C593 C 0.93931 0.79448 0.21116 0.0
C594 C 0.91928 0.80813 0.25699 0.0
C595 C 0.9129 0.83224 0.2212 0.0
C596 C 0.92625 0.8419 0.13821 0.0
C597 C 0.94281 0.82681 0.08217 0.0
C598 C 0.95947 0.8429 0.01357 0.0
C599 C 0.98806 0.83643 0.0239 0.0
C600 C 0.95083 0.84057 0.90271 0.0
C601 C 0.95339 0.86896 0.05476 0.0
C602 C 0.93328 0.86825 0.12256 0.0
C603 C 0.92802 0.88881 0.18637 0.0
C604 C 0.94421 0.90996 0.18401 0.0
C605 C 0.96548 0.91028 0.11866 0.0
C606 C 0.96904 0.89028 0.04924 0.0
H607 H 0.72789 0.08683 0.34731 0.0
H608 H 0.76739 0.05485 0.08936 0.0
H609 H 0.73995 0.07885 0.97476 0.0
H610 H 0.6749 0.06924 0.27734 0.0
H611 H 0.65499 0.09514 0.31832 0.0
H612 H 0.68487 0.09003 0.3785 0.0
H613 H 0.69875 0.13586 0.33579 0.0
H614 H 0.66845 0.14123 0.27541 0.0
H615 H 0.69754 0.14697 0.20673 0.0
H616 H 0.70074 0.08978 0.89164 0.0
H617 H 0.65549 0.08311 0.85367 0.0
H618 H 0.63598 0.10218 0.1629 0.0
C619 C 0.73136 0.08587 0.26652 0.0
C620 C 0.74935 0.06858 0.22739 0.0
C621 C 0.75385 0.06802 0.12177 0.0
C622 C 0.73816 0.08168 0.05571 0.0
C623 C 0.71791 0.09555 0.0962 0.0
C624 C 0.71466 0.09803 0.20009 0.0
C625 C 0.68791 0.10676 0.22577 0.0
C626 C 0.67494 0.08922 0.30431 0.0
C627 C 0.68819 0.13435 0.26308 0.0
C628 C 0.67562 0.10493 0.12225 0.0
C629 C 0.69365 0.10043 0.04755 0.0
C630 C 0.6866 0.09395 0.94893 0.0
C631 C 0.66083 0.08996 0.9281 0.0
C632 C 0.64247 0.0918 0.00616 0.0
C633 C 0.64973 0.10115 0.10193 0.0
H634 H 0.42717 0.7049 0.32988 0.0
H635 H 0.45888 0.74511 0.07307 0.0
H636 H 0.43396 0.71863 0.95788 0.0
H637 H 0.44333 0.65171 0.25133 0.0
H638 H 0.41703 0.6324 0.29358 0.0
H639 H 0.42363 0.66165 0.35613 0.0
H640 H 0.37776 0.67709 0.32083 0.0
H641 H 0.37091 0.64746 0.25802 0.0
H642 H 0.36559 0.67704 0.19314 0.0
H643 H 0.42152 0.68028 0.87198 0.0
H644 H 0.42591 0.63521 0.82862 0.0
H645 H 0.40736 0.61465 0.13728 0.0
C646 C 0.42797 0.70872 0.24936 0.0
C647 C 0.44536 0.72672 0.21073 0.0
C648 C 0.44563 0.73162 0.10533 0.0
C649 C 0.43145 0.71648 0.03884 0.0
C650 C 0.4173 0.69637 0.07855 0.0
C651 C 0.41519 0.69263 0.18223 0.0
C652 C 0.40572 0.66612 0.20609 0.0
C653 C 0.42352 0.65219 0.28091 0.0
C654 C 0.37836 0.66699 0.24689 0.0
C655 C 0.40639 0.65447 0.10114 0.0
C656 C 0.41128 0.67269 0.02792 0.0
C657 C 0.41695 0.66603 0.92806 0.0
C658 C 0.41958 0.64034 0.90408 0.0
C659 C 0.41713 0.62163 0.98018 0.0
C660 C 0.40873 0.62867 0.07767 0.0
H661 H 0.79266 0.52695 0.0793 0.0
H662 H 0.79988 0.59525 0.25609 0.0
H663 H 0.838 0.6071 0.16076 0.0
H664 H 0.84219 0.50524 0.09791 0.0
H665 H 0.85189 0.494 0.97458 0.0
H666 H 0.81895 0.49853 1.00055 0.0
H667 H 0.81477 0.52867 0.84818 0.0
H668 H 0.84803 0.52405 0.82022 0.0
H669 H 0.83567 0.55561 0.83637 0.0
H670 H 0.88186 0.59809 0.13661 0.0
H671 H 0.92223 0.57524 0.14716 0.0
H672 H 0.89082 0.51449 0.96519 0.0
C673 C 0.80116 0.54544 0.09027 0.0
C674 C 0.79387 0.56012 0.17441 0.0
C675 C 0.8053 0.58393 0.19095 0.0
C676 C 0.82714 0.59069 0.13715 0.0
C677 C 0.83683 0.57361 0.0661 0.0
C678 C 0.82331 0.55211 0.03712 0.0
C679 C 0.8402 0.53408 0.97772 0.0
C680 C 0.8382 0.50639 0.01528 0.0
C681 C 0.8343 0.53574 0.86386 0.0
C682 C 0.86595 0.54564 0.99988 0.0
C683 C 0.86357 0.56913 0.04586 0.0
C684 C 0.88412 0.5805 0.09536 0.0
C685 C 0.90712 0.5673 0.10148 0.0
C686 C 0.9097 0.54309 0.05678 0.0
C687 C 0.88925 0.5329 1.00078 0.0
H688 H 0.03103 0.17888 0.19425 0.0
H689 H 0.02338 0.22711 0.93098 0.0
H690 H 0.02927 0.1897 0.81915 0.0
H691 H 0.07878 0.13371 0.0831 0.0
H692 H 0.0645 0.10707 0.14705 0.0
H693 H 0.06338 0.13812 0.20399 0.0
H694 H 1.01434 0.13463 0.21639 0.0
H695 H 1.01522 0.10384 0.15782 0.0
H696 H 0.99608 0.12864 0.10325 0.0
H697 H 0.02915 0.14543 0.73731 0.0
H698 H 0.02838 0.0998 0.69295 0.0
H699 H 0.03782 0.08062 0.01024 0.0
C700 C 0.03182 0.18172 0.113 0.0
C701 C 0.02749 0.20611 0.0713 0.0
C702 C 0.02751 0.20885 0.96458 0.0
C703 C 0.03053 0.18759 0.90058 0.0
C704 C 0.03375 0.16364 0.9443 0.0
C705 C 0.03499 0.16073 0.04832 0.0
C706 C 0.0371 0.1329 0.07696 0.0
C707 C 0.06245 0.12764 0.13096 0.0
C708 C 1.01433 0.12452 0.14245 0.0
C709 C 0.03638 0.12045 0.97312 0.0
C710 C 0.03429 0.13845 0.89743 0.0
C711 C 0.03137 0.13129 0.79605 0.0
C712 C 0.03085 0.10526 0.7715 0.0
C713 C 0.03347 0.08646 0.84759 0.0
C714 C 0.03637 0.09439 0.9497 0.0
H715 H 0.34722 0.02232 0.15087 0.0
H716 H 0.29945 0.01637 0.88441 0.0
H717 H 0.33791 1.00872 0.77898 0.0
H718 H 0.39593 0.0574 0.03779 0.0
H719 H 0.42141 0.04252 0.10708 0.0
H720 H 0.39004 0.04411 0.16145 0.0
H721 H 0.38975 0.99547 0.18413 0.0
H722 H 0.4212 0.99374 0.13028 0.0
H723 H 0.39569 0.97528 0.07629 0.0
H724 H 0.3828 1.00654 0.70053 0.0
H725 H 0.42864 1.00593 0.65866 0.0
H726 H 0.44692 0.01423 0.97777 0.0
C727 C 0.34476 0.01882 0.07052 0.0
C728 C 0.32018 0.01982 0.02595 0.0
C729 C 0.3179 0.01532 0.92055 0.0
C730 C 0.33974 1.01126 0.86003 0.0
C731 C 0.36376 1.01165 0.90601 0.0
C732 C 0.36628 0.01495 0.00939 0.0
C733 C 0.39411 0.01584 0.04049 0.0
C734 C 0.40076 0.04149 0.08953 0.0
C735 C 0.40056 0.99376 0.11198 0.0
C736 C 0.40707 1.01279 0.93824 0.0
C737 C 0.38928 1.0104 0.86152 0.0
C738 C 0.39679 1.00812 0.76036 0.0
C739 C 0.42299 1.00788 0.73725 0.0
C740 C 0.44164 1.00994 0.81468 0.0
C741 C 0.43333 1.01253 0.9165 0.0
H742 H 0.56168 0.30799 0.94288 0.0
H743 H 0.49336 0.29885 0.12334 0.0
H744 H 0.47776 0.34037 0.06163 0.0
H745 H 0.57118 0.37166 0.99163 0.0
H746 H 0.58232 0.38012 0.86684 0.0
H747 H 0.58642 0.34827 0.91256 0.0
H748 H 0.56245 0.33064 0.75638 0.0
H749 H 0.55874 0.36254 0.70948 0.0
H750 H 0.53125 0.34254 0.72628 0.0
H751 H 0.4729 0.38582 1.00071 0.0
H752 H 0.47678 0.4292 0.93217 0.0
H753 H 0.54779 0.40872 0.78616 0.0
C754 C 0.54305 0.31436 0.96698 0.0
C755 C 0.52862 0.29994 0.03751 0.0
C756 C 0.50452 0.30918 0.06805 0.0
C757 C 0.49565 0.33292 0.03404 0.0
C758 C 0.51092 0.34713 0.96831 0.0
C759 C 0.53391 0.33795 0.93349 0.0
C760 C 0.54735 0.35746 0.86747 0.0
C761 C 0.57335 0.3648 0.91236 0.0
C762 C 0.55011 0.34771 0.75839 0.0
C763 C 0.52874 0.37941 0.87271 0.0
C764 C 0.50784 0.37304 0.93134 0.0
C765 C 0.48894 0.39075 0.95316 0.0
C766 C 0.49139 0.41544 0.91416 0.0
C767 C 0.51244 0.42239 0.85279 0.0
C768 C 0.53123 0.40392 0.83112 0.0
H769 H 0.20423 0.49129 0.12396 0.0
H770 H 0.24395 0.52735 0.8744 0.0
H771 H 0.20372 0.52752 0.77551 0.0
H772 H 0.16099 0.45223 0.97317 0.0
H773 H 0.13485 0.45651 0.06002 0.0
H774 H 0.1671 0.45739 0.10606 0.0
H775 H 0.15891 0.50165 0.18426 0.0
H776 H 0.1267 0.50099 0.13807 0.0
H777 H 0.14743 0.5269 0.10462 0.0
H778 H 0.15698 0.52765 0.71135 0.0
H779 H 0.11062 0.52449 0.68212 0.0
H780 H 0.10157 0.48805 0.9743 0.0
C781 C 0.20468 0.49916 0.04823 0.0
C782 C 0.22764 0.50951 0.00784 0.0
C783 C 0.22699 0.51912 0.90747 0.0
C784 C 0.20404 0.51949 0.85098 0.0
C785 C 0.18167 0.51004 0.89514 0.0
C786 C 0.18199 0.49979 0.99135 0.0
C787 C 0.1554 0.49145 0.02354 0.0
C788 C 0.15454 0.46268 0.04175 0.0
C789 C 0.1466 0.50612 0.1182 0.0
C790 C 0.13982 0.49875 0.93086 0.0
C791 C 0.15529 0.50949 0.85757 0.0
C792 C 0.14494 0.5187 0.76734 0.0
C793 C 0.11842 0.51668 0.75114 0.0
C794 C 0.10209 0.50539 0.82416 0.0
C795 C 0.11326 0.49641 0.91556 0.0
H796 H 1.008 0.83625 0.34077 0.0
H797 H 1.00275 0.78787 0.6049 0.0
H798 H 1.01287 0.82479 0.71501 0.0
H799 H 0.05899 0.87934 0.43348 0.0
H800 H 0.04429 0.90657 0.3755 0.0
H801 H 0.04057 0.87568 0.31911 0.0
H802 H 0.99173 0.88099 0.32558 0.0
H803 H 0.99524 0.91166 0.3835 0.0
H804 H 0.97644 0.88757 0.44512 0.0
H805 H 0.01851 0.86886 0.79705 0.0
H806 H 0.02214 0.91425 0.84201 0.0
H807 H 0.02267 0.93372 0.52244 0.0
C808 C 1.00996 0.83321 0.4216 0.0
C809 C 1.00508 0.80896 0.46409 0.0
C810 C 1.00707 0.80599 0.57039 0.0
C811 C 1.01252 0.827 0.63347 0.0
C812 C 0.01603 0.85088 0.58913 0.0
C813 C 1.01515 0.85394 0.48517 0.0
C814 C 0.01771 0.8817 0.4559 0.0
C815 C 0.04183 0.88607 0.39228 0.0
C816 C 0.99386 0.89101 0.39925 0.0
C817 C 0.01995 0.89399 0.5597 0.0
C818 C 0.01897 0.87595 0.63571 0.0
C819 C 0.01967 0.883 0.73781 0.0
C820 C 0.02168 0.90894 0.7627 0.0
C821 C 0.02293 0.9278 0.6861 0.0
C822 C 0.02203 0.91996 0.58323 0.0
H823 H 0.7153 0.03712 0.55285 0.0
H824 H 0.72671 0.96517 0.40116 0.0
H825 H 0.68493 0.95034 0.46539 0.0
H826 H 0.6795 1.01219 0.77784 0.0
H827 H 0.65889 0.03944 0.77974 0.0
H828 H 0.69117 0.04258 0.73572 0.0
H829 H 0.67453 0.06153 0.56752 0.0
H830 H 0.64224 0.05812 0.6107 0.0
H831 H 0.65199 0.0438 0.49279 0.0
H832 H 0.63866 0.94649 0.52096 0.0
H833 H 0.59424 0.95183 0.5793 0.0
H834 H 0.61323 0.0257 0.70174 0.0
C835 C 0.70943 0.01788 0.53633 0.0
C836 C 0.72453 1.00216 0.47285 0.0
C837 C 0.71586 0.97733 0.45128 0.0
C838 C 0.69198 0.96888 0.48668 0.0
C839 C 0.67705 0.98535 0.54482 0.0
C840 C 0.68572 1.00917 0.57125 0.0
C841 C 0.66543 0.0239 0.62862 0.0
C842 C 0.6743 0.02986 0.73695 0.0
C843 C 0.65812 0.04827 0.57147 0.0
C844 C 0.64367 1.0049 0.62868 0.0
C845 C 0.65074 0.98281 0.57949 0.0
C846 C 0.63319 0.96345 0.56167 0.0
C847 C 0.60793 0.96669 0.59476 0.0
C848 C 0.6003 0.98896 0.64662 0.0
C849 C 0.61861 1.00817 0.66471 0.0
H850 H 0.4771 0.69294 0.53534 0.0
H851 H 0.54934 0.70329 0.38234 0.0
H852 H 0.56383 0.66175 0.44802 0.0
H853 H 0.50169 0.65786 0.76138 0.0
H854 H 0.47393 0.63783 0.76389 0.0
H855 H 0.47148 0.66979 0.71767 0.0
H856 H 0.45223 0.65222 0.55084 0.0
H857 H 0.45548 0.62024 0.59633 0.0
H858 H 0.46993 0.62934 0.47784 0.0
H859 H 0.56742 0.61597 0.50646 0.0
H860 H 0.5622 0.57222 0.57001 0.0
H861 H 0.48814 0.59177 0.69173 0.0
C862 C 0.49633 0.68686 0.51856 0.0
C863 C 0.51222 0.70163 0.45442 0.0
C864 C 0.53703 0.69272 0.43285 0.0
C865 C 0.54529 0.66895 0.46903 0.0
C866 C 0.52863 0.65436 0.52779 0.0
C867 C 0.50482 0.66324 0.55406 0.0
C868 C 0.48992 0.64334 0.61282 0.0
C869 C 0.48393 0.65279 0.72038 0.0
C870 C 0.46545 0.63585 0.55605 0.0
C871 C 0.50887 0.6216 0.61444 0.0
C872 C 0.53102 0.62833 0.56421 0.0
C873 C 0.55041 0.61076 0.54781 0.0
C874 C 0.54721 0.58587 0.58378 0.0
C875 C 0.52495 0.57859 0.63712 0.0
C876 C 0.50563 0.59688 0.65334 0.0
H877 H 0.8354 0.55671 0.47847 0.0
H878 H 0.802 0.48356 0.54928 0.0
H879 H 0.84033 0.47312 0.65128 0.0
H880 H 0.89584 0.53212 0.42427 0.0
H881 H 0.91279 0.55952 0.47034 0.0
H882 H 0.88101 0.5629 0.42175 0.0
H883 H 0.86672 0.58368 0.59093 0.0
H884 H 0.89859 0.58047 0.6394 0.0
H885 H 0.87218 0.56725 0.70868 0.0
H886 H 0.88523 0.47051 0.74114 0.0
H887 H 0.93086 0.47371 0.78859 0.0
H888 H 0.93626 0.54525 0.62959 0.0
C889 C 0.83586 0.5383 0.51447 0.0
C890 C 0.81532 0.52083 0.50311 0.0
C891 C 0.81703 0.4975 0.55622 0.0
C892 C 0.83897 0.49132 0.61391 0.0
C893 C 0.8594 0.50847 0.61735 0.0
C894 C 0.85788 0.53146 0.56804 0.0
C895 C 0.883 0.54573 0.57302 0.0
C896 C 0.89379 0.55033 0.46603 0.0
C897 C 0.87993 0.57076 0.63148 0.0
C898 C 0.89929 0.52715 0.63191 0.0
C899 C 0.88521 0.50609 0.66003 0.0
C900 C 0.89627 0.48685 0.71811 0.0
C901 C 0.92225 0.48887 0.74526 0.0
C902 C 0.93733 0.50959 0.7121 0.0
C903 C 0.92541 0.52904 0.65545 0.0
loop_
_geom_bond_atom_site_label_1
_geom_bond_atom_site_label_2
_geom_bond_distance
_geom_bond_site_symmetry_2
_ccdc_geom_bond_type
H0 C5 0.930 . S
H1 C8 0.930 . S
H2 C10 0.930 . S
H3 C4 1.016 . S
C4 H3 1.016 . S
C4 N11 1.286 . S
C5 H0 0.930 . S
C5 C6 1.397 . S
C5 C7 1.361 . S
C6 C5 1.397 . S
C6 C10 1.390 . S
C7 C5 1.361 . S
C7 C8 1.393 . S
C7 N11 1.413 . S
C8 H1 0.930 . S
C8 C7 1.393 . S
C8 C9 1.399 . S
C9 C8 1.399 . S
C9 C10 1.381 . S
C10 H2 0.930 . S
C10 C6 1.390 . S
C10 C9 1.381 . S
N11 C4 1.286 . S
N11 C7 1.413 . S
H12 C17 0.930 . S
H13 C20 0.930 . S
H14 C22 0.930 . S
H15 C16 1.029 . S
C16 H15 1.029 . S
C16 N23 1.268 1_655 S
C17 H12 0.930 . S
C17 C18 1.397 . S
C17 C19 1.361 . S
C18 C17 1.397 . S
C18 C22 1.390 1_455 S
C19 C17 1.361 . S
C19 C20 1.393 . S
C19 N23 1.413 . S
C20 H13 0.930 . S
C20 C19 1.393 . S
C20 C21 1.402 . S
C21 C20 1.402 . S
C21 C22 1.379 1_455 S
C22 H14 0.930 . S
C22 C18 1.390 1_655 S
C22 C21 1.379 1_655 S
N23 C16 1.268 1_455 S
N23 C19 1.413 . S
H24 C29 0.930 . S
H25 C32 0.930 . S
H26 C34 0.930 . S
H27 C28 1.029 . S
C28 H27 1.029 . S
C28 N35 1.268 1_565 S
C29 H24 0.930 . S
C29 C30 1.397 . S
C29 C31 1.361 . S
C30 C29 1.397 . S
C30 C34 1.390 1_545 S
C31 C29 1.361 . S
C31 C32 1.393 . S
C31 N35 1.413 . S
C32 H25 0.930 . S
C32 C31 1.393 . S
C32 C33 1.402 . S
C33 C32 1.402 . S
C33 C34 1.379 1_545 S
C34 H26 0.930 . S
C34 C30 1.390 1_565 S
C34 C33 1.379 1_565 S
N35 C28 1.268 1_545 S
N35 C31 1.413 . S
H36 C41 0.930 . S
H37 C44 0.930 . S
H38 C46 0.930 . S
H39 C40 1.016 . S
C40 H39 1.016 . S
C40 N47 1.286 . S
C41 H36 0.930 . S
C41 C42 1.397 . S
C41 C43 1.361 . S
C42 C41 1.397 . S
C42 C46 1.390 . S
C43 C41 1.361 . S
C43 C44 1.393 . S
C43 N47 1.413 . S
C44 H37 0.930 . S
C44 C43 1.393 . S
C44 C45 1.399 . S
C45 C44 1.399 . S
C45 C46 1.381 . S
C46 H38 0.930 . S
C46 C42 1.390 . S
C46 C45 1.381 . S
N47 C40 1.286 . S
N47 C43 1.413 . S
H48 C53 0.930 . S
H49 C56 0.930 . S
H50 C58 0.930 1_556 S
H51 C52 1.016 . S
C52 H51 1.016 . S
C52 N59 1.286 . S
C53 H48 0.930 . S
C53 C54 1.397 . S
C53 C55 1.361 1_556 S
C54 C53 1.397 . S
C54 C58 1.390 1_556 S
C55 C53 1.361 1_554 S
C55 C56 1.393 . S
C55 N59 1.413 . S
C56 H49 0.930 . S
C56 C55 1.393 . S
C56 C57 1.399 . S
C57 C56 1.399 . S
C57 C58 1.381 . S
C58 H50 0.930 1_554 S
C58 C54 1.390 1_554 S
C58 C57 1.381 . S
N59 C52 1.286 . S
N59 C55 1.413 . S
H60 C65 0.930 . S
H61 C68 0.930 . S
H62 C70 0.930 1_556 S
H63 C64 1.026 . S
C64 H63 1.026 . S
C64 N71 1.273 1_655 S
C65 H60 0.930 . S
C65 C66 1.397 . S
C65 C67 1.361 1_556 S
C66 C65 1.397 . S
C66 C70 1.390 1_456 S
C67 C65 1.361 1_554 S
C67 C68 1.393 . S
C67 N71 1.413 . S
C68 H61 0.930 . S
C68 C67 1.393 . S
C68 C69 1.404 . S
C69 C68 1.404 . S
C69 C70 1.378 1_455 S
C70 H62 0.930 1_554 S
C70 C66 1.390 1_654 S
C70 C69 1.378 1_655 S
N71 C64 1.273 1_455 S
N71 C67 1.413 . S
H72 C77 0.930 . S
H73 C80 0.930 . S
H74 C82 0.930 1_556 S
H75 C76 1.026 . S
C76 H75 1.026 . S
C76 N83 1.273 1_565 S
C77 H72 0.930 . S
C77 C78 1.397 . S
C77 C79 1.361 1_556 S
C78 C77 1.397 . S
C78 C82 1.390 1_546 S
C79 C77 1.361 1_554 S
C79 C80 1.393 . S
C79 N83 1.413 . S
C80 H73 0.930 . S
C80 C79 1.393 . S
C80 C81 1.404 . S
C81 C80 1.404 . S
C81 C82 1.378 1_545 S
C82 H74 0.930 1_554 S
C82 C78 1.390 1_564 S
C82 C81 1.378 1_565 S
N83 C76 1.273 1_545 S
N83 C79 1.413 . S
H84 C89 0.930 . S
H85 C92 0.930 . S
H86 C94 0.929 1_556 S
H87 C88 1.016 . S
C88 H87 1.016 . S
C88 N95 1.286 . S
C89 H84 0.930 . S
C89 C90 1.397 . S
C89 C91 1.361 1_556 S
C90 C89 1.397 . S
C90 C94 1.381 1_556 S
C91 C89 1.361 1_554 S
C91 C92 1.393 . S
C91 N95 1.413 . S
C92 H85 0.930 . S
C92 C91 1.393 . S
C92 C93 1.399 . S
C93 C92 1.399 . S
C93 C94 1.391 . S
C94 H86 0.929 1_554 S
C94 C90 1.381 1_554 S
C94 C93 1.391 . S
N95 C88 1.286 . S
N95 C91 1.413 . S
Ho96 C99 2.811 . S
Ho96 O116 2.322 . S
Ho96 O118 2.378 . S
Ho96 O119 2.531 . S
Ho96 O120 2.381 . S
Ho96 O121 2.669 1_565 S
Ho96 O123 2.346 1_565 S
Ho96 O127 2.305 1_455 S
Ho97 C108 2.811 . S
Ho97 O117 2.346 1_545 S
Ho97 O121 2.305 1_655 S
Ho97 O122 2.322 . S
Ho97 O124 2.378 . S
Ho97 O125 2.526 . S
Ho97 O126 2.381 . S
Ho97 O127 2.669 1_545 S
C98 O116 1.259 1_655 S
C98 O117 1.268 . S
C99 Ho96 2.811 . S
C99 C100 1.488 1_556 S
C99 O118 1.215 . S
C99 O119 1.306 . S
C100 C99 1.488 1_554 S
C100 C101 1.348 . S
C100 C105 1.413 . S
C101 C100 1.348 . S
C101 C102 1.442 . S
C101 H128 0.930 1_455 S
C102 C101 1.442 . S
C102 C103 1.381 . S
C102 H129 0.931 1_455 S
C103 C102 1.381 . S
C103 C104 1.321 . S
C104 C103 1.321 . S
C104 C105 1.403 . S
C104 H130 0.934 . S
C105 C100 1.413 . S
C105 C104 1.403 . S
C105 H131 0.930 1_554 S
C106 O120 1.275 . S
C106 O121 1.256 1_565 S
C107 O122 1.259 1_455 S
C107 O123 1.268 . S
C108 Ho97 2.811 . S
C108 C109 1.488 . S
C108 O124 1.215 . S
C108 O125 1.296 . S
C109 C108 1.488 . S
C109 C110 1.348 . S
C109 C114 1.413 . S
C110 C109 1.348 . S
C110 C111 1.442 . S
C110 H132 0.930 1_655 S
C111 C110 1.442 . S
C111 C112 1.381 . S
C111 H133 0.931 1_655 S
C112 C111 1.381 . S
C112 C113 1.321 . S
C113 C112 1.321 . S
C113 C114 1.403 . S
C113 H134 0.934 . S
C114 C109 1.413 . S
C114 C113 1.403 . S
C114 H135 0.930 . S
C115 O126 1.275 . S
C115 O127 1.256 1_545 S
O116 Ho96 2.322 . S
O116 C98 1.259 1_455 S
O117 Ho97 2.346 1_565 S
O117 C98 1.268 . S
O118 Ho96 2.378 . S
O118 C99 1.215 . S
O119 Ho96 2.531 . S
O119 C99 1.306 . S
O120 Ho96 2.381 . S
O120 C106 1.275 . S
O121 Ho96 2.669 1_545 S
O121 Ho97 2.305 1_455 S
O121 C106 1.256 1_545 S
O122 Ho97 2.322 . S
O122 C107 1.259 1_655 S
O123 Ho96 2.346 1_545 S
O123 C107 1.268 . S
O124 Ho97 2.378 . S
O124 C108 1.215 . S
O125 Ho97 2.526 . S
O125 C108 1.296 . S
O126 Ho97 2.381 . S
O126 C115 1.275 . S
O127 Ho96 2.305 1_655 S
O127 Ho97 2.669 1_565 S
O127 C115 1.256 1_565 S
H128 C101 0.930 1_655 S
H129 C102 0.931 1_655 S
H130 C104 0.934 . S
H131 C105 0.930 1_556 S
H132 C110 0.930 1_455 S
H133 C111 0.931 1_455 S
H134 C113 0.934 . S
H135 C114 0.930 . S
Ho136 C139 2.811 . S
Ho136 O156 2.322 . S
Ho136 O158 2.378 . S
Ho136 O159 2.528 . S
Ho136 O160 2.381 . S
Ho136 O161 2.669 . S
Ho136 O163 2.346 . S
Ho136 O167 2.305 1_545 S
Ho137 C148 2.811 . S
Ho137 O157 2.346 . S
Ho137 O161 2.305 1_565 S
Ho137 O162 2.322 . S
Ho137 O164 2.378 . S
Ho137 O165 2.524 . S
Ho137 O166 2.381 . S
Ho137 O167 2.669 . S
C138 O156 1.259 1_565 S
C138 O157 1.268 . S
C139 Ho136 2.811 . S
C139 C140 1.488 1_556 S
C139 O158 1.215 . S
C139 O159 1.300 . S
C140 C139 1.488 1_554 S
C140 C141 1.348 . S
C140 C145 1.413 . S
C141 C140 1.348 . S
C141 C142 1.442 . S
C141 H168 0.930 1_545 S
C142 C141 1.442 . S
C142 C143 1.381 . S
C142 H169 0.931 1_545 S
C143 C142 1.381 . S
C143 C144 1.321 . S
C144 C143 1.321 . S
C144 C145 1.403 . S
C144 H170 0.934 . S
C145 C140 1.413 . S
C145 C144 1.403 . S
C145 H171 0.930 1_554 S
C146 O160 1.275 . S
C146 O161 1.256 . S
C147 O162 1.259 1_545 S
C147 O163 1.268 . S
C148 Ho137 2.811 . S
C148 C149 1.488 . S
C148 O164 1.215 . S
C148 O165 1.290 . S
C149 C148 1.488 . S
C149 C150 1.348 . S
C149 C154 1.413 . S
C150 C149 1.348 . S
C150 C151 1.442 . S
C150 H172 0.930 1_565 S
C151 C150 1.442 . S
C151 C152 1.381 . S
C151 H173 0.931 1_565 S
C152 C151 1.381 . S
C152 C153 1.321 . S
C153 C152 1.321 . S
C153 C154 1.403 . S
C153 H174 0.934 . S
C154 C149 1.413 . S
C154 C153 1.403 . S
C154 H175 0.930 . S
C155 O166 1.275 . S
C155 O167 1.256 . S
O156 Ho136 2.322 . S
O156 C138 1.259 1_545 S
O157 Ho137 2.346 . S
O157 C138 1.268 . S
O158 Ho136 2.378 . S
O158 C139 1.215 . S
O159 Ho136 2.528 . S
O159 C139 1.300 . S
O160 Ho136 2.381 . S
O160 C146 1.275 . S
O161 Ho136 2.669 . S
O161 Ho137 2.305 1_545 S
O161 C146 1.256 . S
O162 Ho137 2.322 . S
O162 C147 1.259 1_565 S
O163 Ho136 2.346 . S
O163 C147 1.268 . S
O164 Ho137 2.378 . S
O164 C148 1.215 . S
O165 Ho137 2.524 . S
O165 C148 1.290 . S
O166 Ho137 2.381 . S
O166 C155 1.275 . S
O167 Ho136 2.305 1_565 S
O167 Ho137 2.669 . S
O167 C155 1.256 . S
H168 C141 0.930 1_565 S
H169 C142 0.931 1_565 S
H170 C144 0.934 . S
H171 C145 0.930 1_556 S
H172 C150 0.930 1_545 S
H173 C151 0.931 1_545 S
H174 C153 0.934 . S
H175 C154 0.930 . S
Ho176 C179 2.811 . S
Ho176 O196 2.322 . S
Ho176 O198 2.378 . S
Ho176 O199 2.524 . S
Ho176 O200 2.381 . S
Ho176 O201 2.669 . S
Ho176 O203 2.346 . S
Ho176 O207 2.305 . S
Ho177 C188 2.811 . S
Ho177 O197 2.346 . S
Ho177 O201 2.305 . S
Ho177 O202 2.322 . S
Ho177 O204 2.378 . S
Ho177 O205 2.524 . S
Ho177 O206 2.381 . S
Ho177 O207 2.669 . S
C178 O196 1.259 . S
C178 O197 1.268 . S
C179 Ho176 2.811 . S
C179 C180 1.488 1_556 S
C179 O198 1.215 . S
C179 O199 1.289 . S
C180 C179 1.488 1_554 S
C180 C181 1.348 . S
C180 C185 1.413 . S
C181 C180 1.348 . S
C181 C182 1.442 . S
C181 H208 0.930 . S
C182 C181 1.442 . S
C182 C183 1.381 . S
C182 H209 0.931 . S
C183 C182 1.381 . S
C183 C184 1.321 . S
C184 C183 1.321 . S
C184 C185 1.403 . S
C184 H210 0.934 . S
C185 C180 1.413 . S
C185 C184 1.403 . S
C185 H211 0.930 1_554 S
C186 O200 1.275 . S
C186 O201 1.256 . S
C187 O202 1.259 . S
C187 O203 1.268 . S
C188 Ho177 2.811 . S
C188 C189 1.488 . S
C188 O204 1.215 . S
C188 O205 1.289 . S
C189 C188 1.488 . S
C189 C190 1.348 . S
C189 C194 1.413 . S
C190 C189 1.348 . S
C190 C191 1.442 . S
C190 H212 0.930 . S
C191 C190 1.442 . S
C191 C192 1.381 . S
C191 H213 0.931 . S
C192 C191 1.381 . S
C192 C193 1.321 . S
C193 C192 1.321 . S
C193 C194 1.403 . S
C193 H214 0.934 . S
C194 C189 1.413 . S
C194 C193 1.403 . S
C194 H215 0.930 . S
C195 O206 1.275 . S
C195 O207 1.256 . S
O196 Ho176 2.322 . S
O196 C178 1.259 . S
O197 Ho177 2.346 . S
O197 C178 1.268 . S
O198 Ho176 2.378 . S
O198 C179 1.215 . S
O199 Ho176 2.524 . S
O199 C179 1.289 . S
O200 Ho176 2.381 . S
O200 C186 1.275 . S
O201 Ho176 2.669 . S
O201 Ho177 2.305 . S
O201 C186 1.256 . S
O202 Ho177 2.322 . S
O202 C187 1.259 . S
O203 Ho176 2.346 . S
O203 C187 1.268 . S
O204 Ho177 2.378 . S
O204 C188 1.215 . S
O205 Ho177 2.524 . S
O205 C188 1.289 . S
O206 Ho177 2.381 . S
O206 C195 1.275 . S
O207 Ho176 2.305 . S
O207 Ho177 2.669 . S
O207 C195 1.256 . S
H208 C181 0.930 . S
H209 C182 0.931 . S
H210 C184 0.934 . S
H211 C185 0.930 1_556 S
H212 C190 0.930 . S
H213 C191 0.931 . S
H214 C193 0.934 . S
H215 C194 0.930 . S
Ho216 C219 2.811 . S
Ho216 O236 2.322 . S
Ho216 O238 2.378 . S
Ho216 O239 2.524 . S
Ho216 O240 2.381 . S
Ho216 O241 2.669 1_655 S
Ho216 O243 2.346 1_655 S
Ho216 O247 2.305 . S
Ho217 C228 2.811 . S
Ho217 O237 2.346 1_455 S
Ho217 O241 2.305 . S
Ho217 O242 2.322 . S
Ho217 O244 2.378 . S
Ho217 O245 2.524 . S
Ho217 O246 2.381 . S
Ho217 O247 2.669 1_455 S
C218 O236 1.259 . S
C218 O237 1.268 . S
C219 Ho216 2.811 . S
C219 C220 1.488 1_556 S
C219 O238 1.215 . S
C219 O239 1.289 . S
C220 C219 1.488 1_554 S
C220 C221 1.348 . S
C220 C225 1.413 . S
C221 C220 1.348 . S
C221 C222 1.442 . S
C221 H248 0.930 . S
C222 C221 1.442 . S
C222 C223 1.381 . S
C222 H249 0.931 . S
C223 C222 1.381 . S
C223 C224 1.321 . S
C224 C223 1.321 . S
C224 C225 1.403 . S
C224 H250 0.934 . S
C225 C220 1.413 . S
C225 C224 1.403 . S
C225 H251 0.930 1_554 S
C226 O240 1.291 . S
C226 O241 1.247 1_655 S
C227 O242 1.259 . S
C227 O243 1.268 . S
C228 Ho217 2.811 . S
C228 C229 1.488 . S
C228 O244 1.215 . S
C228 O245 1.289 . S
C229 C228 1.488 . S
C229 C230 1.348 . S
C229 C234 1.413 . S
C230 C229 1.348 . S
C230 C231 1.442 . S
C230 H252 0.930 . S
C231 C230 1.442 . S
C231 C232 1.381 . S
C231 H253 0.931 . S
C232 C231 1.381 . S
C232 C233 1.321 . S
C233 C232 1.321 . S
C233 C234 1.403 . S
C233 H254 0.934 . S
C234 C229 1.413 . S
C234 C233 1.403 . S
C234 H255 0.930 . S
C235 O246 1.296 . S
C235 O247 1.244 1_455 S
O236 Ho216 2.322 . S
O236 C218 1.259 . S
O237 Ho217 2.346 1_655 S
O237 C218 1.268 . S
O238 Ho216 2.378 . S
O238 C219 1.215 . S
O239 Ho216 2.524 . S
O239 C219 1.289 . S
O240 Ho216 2.381 . S
O240 C226 1.291 . S
O241 Ho216 2.669 1_455 S
O241 Ho217 2.305 . S
O241 C226 1.247 1_455 S
O242 Ho217 2.322 . S
O242 C227 1.259 . S
O243 Ho216 2.346 1_455 S
O243 C227 1.268 . S
O244 Ho217 2.378 . S
O244 C228 1.215 . S
O245 Ho217 2.524 . S
O245 C228 1.289 . S
O246 Ho217 2.381 . S
O246 C235 1.296 . S
O247 Ho216 2.305 . S
O247 Ho217 2.669 1_655 S
O247 C235 1.244 1_655 S
H248 C221 0.930 . S
H249 C222 0.931 . S
H250 C224 0.934 . S
H251 C225 0.930 1_556 S
H252 C230 0.930 . S
H253 C231 0.931 . S
H254 C233 0.934 . S
H255 C234 0.930 . S
H256 C268 0.930 . S
H257 C270 0.930 . S
H258 C271 0.930 . S
H259 C275 0.959 . S
H260 C275 0.959 . S
H261 C275 0.961 . S
H262 C276 0.960 . S
H263 C276 0.961 . S
H264 C276 0.959 . S
H265 C279 0.929 . S
H266 C280 0.931 . S
H267 C282 0.930 . S
C268 H256 0.930 . S
C268 C269 1.399 1_545 S
C268 C273 1.399 . S
C269 C268 1.399 1_565 S
C269 C270 1.376 . S
C270 H257 0.930 . S
C270 C269 1.376 . S
C270 C271 1.388 . S
C271 H258 0.930 . S
C271 C270 1.388 . S
C271 C272 1.390 . S
C272 C271 1.390 . S
C272 C273 1.394 1_565 S
C272 C278 1.465 . S
C273 C268 1.399 . S
C273 C272 1.394 1_545 S
C273 C274 1.516 . S
C274 C273 1.516 . S
C274 C275 1.502 . S
C274 C276 1.561 . S
C274 C277 1.526 . S
C275 H259 0.959 . S
C275 H260 0.959 . S
C275 H261 0.961 . S
C275 C274 1.502 . S
C276 H262 0.960 . S
C276 H263 0.961 . S
C276 H264 0.959 . S
C276 C274 1.561 . S
C277 C274 1.526 . S
C277 C278 1.396 1_545 S
C277 C282 1.390 . S
C278 C272 1.465 . S
C278 C277 1.396 1_565 S
C278 C279 1.399 . S
C279 H265 0.929 . S
C279 C278 1.399 . S
C279 C280 1.385 . S
C280 H266 0.931 . S
C280 C279 1.385 . S
C280 C281 1.389 . S
C281 C280 1.389 . S
C281 C282 1.387 1_565 S
C282 H267 0.930 . S
C282 C277 1.390 . S
C282 C281 1.387 1_545 S
H283 C295 0.930 . S
H284 C297 0.930 . S
H285 C298 0.930 . S
H286 C302 0.959 . S
H287 C302 0.959 . S
H288 C302 0.961 . S
H289 C303 0.960 . S
H290 C303 0.961 . S
H291 C303 0.959 . S
H292 C306 0.929 . S
H293 C307 0.931 . S
H294 C309 0.930 . S
C295 H283 0.930 . S
C295 C296 1.399 . S
C295 C300 1.399 . S
C296 C295 1.399 . S
C296 C297 1.376 . S
C297 H284 0.930 . S
C297 C296 1.376 . S
C297 C298 1.388 . S
C298 H285 0.930 . S
C298 C297 1.388 . S
C298 C299 1.390 . S
C299 C298 1.390 . S
C299 C300 1.394 . S
C299 C305 1.465 . S
C300 C295 1.399 . S
C300 C299 1.394 . S
C300 C301 1.516 . S
C301 C300 1.516 . S
C301 C302 1.502 . S
C301 C303 1.561 . S
C301 C304 1.526 . S
C302 H286 0.959 . S
C302 H287 0.959 . S
C302 H288 0.961 . S
C302 C301 1.502 . S
C303 H289 0.960 . S
C303 H290 0.961 . S
C303 H291 0.959 . S
C303 C301 1.561 . S
C304 C301 1.526 . S
C304 C305 1.396 . S
C304 C309 1.390 . S
C305 C299 1.465 . S
C305 C304 1.396 . S
C305 C306 1.399 . S
C306 H292 0.929 . S
C306 C305 1.399 . S
C306 C307 1.385 . S
C307 H293 0.931 . S
C307 C306 1.385 . S
C307 C308 1.389 . S
C308 C307 1.389 . S
C308 C309 1.387 . S
C309 H294 0.930 . S
C309 C304 1.390 . S
C309 C308 1.387 . S
H310 C322 0.930 . S
H311 C324 0.930 . S
H312 C325 0.930 . S
H313 C329 0.959 . S
H314 C329 0.959 . S
H315 C329 0.961 . S
H316 C330 0.960 . S
H317 C330 0.961 . S
H318 C330 0.959 . S
H319 C333 0.929 . S
H320 C334 0.931 . S
H321 C336 0.930 . S
C322 H310 0.930 . S
C322 C323 1.399 . S
C322 C327 1.399 . S
C323 C322 1.399 . S
C323 C324 1.376 . S
C324 H311 0.930 . S
C324 C323 1.376 . S
C324 C325 1.388 . S
C325 H312 0.930 . S
C325 C324 1.388 . S
C325 C326 1.390 . S
C326 C325 1.390 . S
C326 C327 1.394 . S
C326 C332 1.465 . S
C327 C322 1.399 . S
C327 C326 1.394 . S
C327 C328 1.516 . S
C328 C327 1.516 . S
C328 C329 1.502 . S
C328 C330 1.561 . S
C328 C331 1.526 . S
C329 H313 0.959 . S
C329 H314 0.959 . S
C329 H315 0.961 . S
C329 C328 1.502 . S
C330 H316 0.960 . S
C330 H317 0.961 . S
C330 H318 0.959 . S
C330 C328 1.561 . S
C331 C328 1.526 . S
C331 C332 1.396 . S
C331 C336 1.390 . S
C332 C326 1.465 . S
C332 C331 1.396 . S
C332 C333 1.399 . S
C333 H319 0.929 . S
C333 C332 1.399 . S
C333 C334 1.385 . S
C334 H320 0.931 . S
C334 C333 1.385 . S
C334 C335 1.389 . S
C335 C334 1.389 . S
C335 C336 1.387 . S
C336 H321 0.930 . S
C336 C331 1.390 . S
C336 C335 1.387 . S
H337 C349 0.930 . S
H338 C351 0.930 . S
H339 C352 0.930 . S
H340 C356 0.959 . S
H341 C356 0.959 . S
H342 C356 0.961 . S
H343 C357 0.960 . S
H344 C357 0.961 . S
H345 C357 0.959 . S
H346 C360 0.929 . S
H347 C361 0.931 . S
H348 C363 0.930 . S
C349 H337 0.930 . S
C349 C350 1.399 1_655 S
C349 C354 1.400 . S
C350 C349 1.399 1_455 S
C350 C351 1.376 . S
C351 H338 0.930 . S
C351 C350 1.376 . S
C351 C352 1.388 . S
C352 H339 0.930 . S
C352 C351 1.388 . S
C352 C353 1.390 . S
C353 C352 1.390 . S
C353 C354 1.391 1_455 S
C353 C359 1.465 . S
C354 C349 1.400 . S
C354 C353 1.391 1_655 S
C354 C355 1.517 . S
C355 C354 1.517 . S
C355 C356 1.502 . S
C355 C357 1.561 1_655 S
C355 C358 1.525 1_655 S
C356 H340 0.959 . S
C356 H341 0.959 . S
C356 H342 0.961 . S
C356 C355 1.502 . S
C357 H343 0.960 . S
C357 H344 0.961 . S
C357 H345 0.959 . S
C357 C355 1.561 1_455 S
C358 C355 1.525 1_455 S
C358 C359 1.397 . S
C358 C363 1.389 1_455 S
C359 C353 1.465 . S
C359 C358 1.397 . S
C359 C360 1.399 . S
C360 H346 0.929 . S
C360 C359 1.399 . S
C360 C361 1.385 . S
C361 H347 0.931 . S
C361 C360 1.385 . S
C361 C362 1.389 . S
C362 C361 1.389 . S
C362 C363 1.387 1_455 S
C363 H348 0.930 . S
C363 C358 1.389 1_655 S
C363 C362 1.387 1_655 S
H364 C376 0.930 . S
H365 C378 0.930 . S
H366 C379 0.930 . S
H367 C383 0.959 . S
H368 C383 0.959 1_556 S
H369 C383 0.961 . S
H370 C384 0.960 . S
H371 C384 0.961 1_556 S
H372 C384 0.959 . S
H373 C387 0.929 . S
H374 C388 0.931 . S
H375 C390 0.930 . S
C376 H364 0.930 . S
C376 C377 1.399 1_565 S
C376 C381 1.399 . S
C377 C376 1.399 1_545 S
C377 C378 1.376 . S
C378 H365 0.930 . S
C378 C377 1.376 . S
C378 C379 1.388 . S
C379 H366 0.930 . S
C379 C378 1.388 . S
C379 C380 1.390 . S
C380 C379 1.390 . S
C380 C381 1.394 1_545 S
C380 C386 1.465 . S
C381 C376 1.399 . S
C381 C380 1.394 1_565 S
C381 C382 1.516 . S
C382 C381 1.516 . S
C382 C383 1.502 . S
C382 C384 1.561 1_565 S
C382 C385 1.527 . S
C383 H367 0.959 . S
C383 H368 0.959 1_554 S
C383 H369 0.961 . S
C383 C382 1.502 . S
C384 H370 0.960 . S
C384 H371 0.961 1_554 S
C384 H372 0.959 . S
C384 C382 1.561 1_545 S
C385 C382 1.527 . S
C385 C386 1.393 1_565 S
C385 C390 1.391 1_554 S
C386 C380 1.465 . S
C386 C385 1.393 1_545 S
C386 C387 1.399 . S
C387 H373 0.929 . S
C387 C386 1.399 . S
C387 C388 1.385 . S
C388 H374 0.931 . S
C388 C387 1.385 . S
C388 C389 1.386 1_544 S
C389 C388 1.386 1_566 S
C389 C390 1.388 . S
C390 H375 0.930 . S
C390 C385 1.391 1_556 S
C390 C389 1.388 . S
H391 C403 0.930 . S
H392 C405 0.930 . S
H393 C406 0.930 . S
H394 C410 0.959 . S
H395 C410 0.959 1_556 S
H396 C410 0.961 . S
H397 C411 0.958 1_554 S
H398 C411 0.967 . S
H399 C411 0.958 1_554 S
H400 C414 0.929 . S
H401 C415 0.931 . S
H402 C417 0.930 . S
C403 H391 0.930 . S
C403 C404 1.399 . S
C403 C408 1.399 . S
C404 C403 1.399 . S
C404 C405 1.376 . S
C405 H392 0.930 . S
C405 C404 1.376 . S
C405 C406 1.388 . S
C406 H393 0.930 . S
C406 C405 1.388 . S
C406 C407 1.390 . S
C407 C406 1.390 . S
C407 C408 1.394 . S
C407 C413 1.465 . S
C408 C403 1.399 . S
C408 C407 1.394 . S
C408 C409 1.516 . S
C409 C408 1.516 . S
C409 C410 1.502 . S
C409 C411 1.558 1_554 S
C409 C412 1.526 . S
C410 H394 0.959 . S
C410 H395 0.959 1_554 S
C410 H396 0.961 . S
C410 C409 1.502 . S
C411 H397 0.958 1_556 S
C411 H398 0.967 . S
C411 H399 0.958 1_556 S
C411 C409 1.558 1_556 S
C412 C409 1.526 . S
C412 C413 1.396 . S
C412 C417 1.390 1_554 S
C413 C407 1.465 . S
C413 C412 1.396 . S
C413 C414 1.399 . S
C414 H400 0.929 . S
C414 C413 1.399 . S
C414 C415 1.385 . S
C415 H401 0.931 . S
C415 C414 1.385 . S
C415 C416 1.389 1_554 S
C416 C415 1.389 1_556 S
C416 C417 1.387 . S
C417 H402 0.930 . S
C417 C412 1.390 1_556 S
C417 C416 1.387 . S
H418 C430 0.930 . S
H419 C432 0.930 . S
H420 C433 0.930 . S
H421 C437 0.959 . S
H422 C437 0.959 . S
H423 C437 0.961 . S
H424 C438 0.960 . S
H425 C438 0.961 . S
H426 C438 0.959 . S
H427 C441 0.929 . S
H428 C442 0.931 . S
H429 C444 0.930 . S
C430 H418 0.930 . S
C430 C431 1.399 . S
C430 C435 1.399 . S
C431 C430 1.399 . S
C431 C432 1.376 . S
C432 H419 0.930 . S
C432 C431 1.376 . S
C432 C433 1.388 . S
C433 H420 0.930 . S
C433 C432 1.388 . S
C433 C434 1.390 . S
C434 C433 1.390 . S
C434 C435 1.394 . S
C434 C440 1.465 . S
C435 C430 1.399 . S
C435 C434 1.394 . S
C435 C436 1.516 . S
C436 C435 1.516 . S
C436 C437 1.502 . S
C436 C438 1.561 . S
C436 C439 1.526 . S
C437 H421 0.959 . S
C437 H422 0.959 . S
C437 H423 0.961 . S
C437 C436 1.502 . S
C438 H424 0.960 . S
C438 H425 0.961 . S
C438 H426 0.959 . S
C438 C436 1.561 . S
C439 C436 1.526 . S
C439 C440 1.396 . S
C439 C444 1.390 . S
C440 C434 1.465 . S
C440 C439 1.396 . S
C440 C441 1.399 1_554 S
C441 H427 0.929 . S
C441 C440 1.399 1_556 S
C441 C442 1.385 . S
C442 H428 0.931 . S
C442 C441 1.385 . S
C442 C443 1.389 . S
C443 C442 1.389 . S
C443 C444 1.387 1_556 S
C444 H429 0.930 . S
C444 C439 1.390 . S
C444 C443 1.387 1_554 S
H445 C457 0.930 . S
H446 C459 0.932 . S
H447 C460 0.931 . S
H448 C464 0.959 . S
H449 C464 0.959 . S
H450 C464 0.961 . S
H451 C465 0.960 . S
H452 C465 0.961 . S
H453 C465 0.959 . S
H454 C468 0.932 . S
H455 C469 0.936 . S
H456 C471 0.930 . S
C457 H445 0.930 . S
C457 C458 1.399 . S
C457 C462 1.399 . S
C458 C457 1.399 . S
C458 C459 1.375 1_655 S
C459 H446 0.932 . S
C459 C458 1.375 1_455 S
C459 C460 1.388 . S
C460 H447 0.931 . S
C460 C459 1.388 . S
C460 C461 1.389 1_455 S
C461 C460 1.389 1_655 S
C461 C462 1.394 . S
C461 C467 1.465 . S
C462 C457 1.399 . S
C462 C461 1.394 . S
C462 C463 1.516 . S
C463 C462 1.516 . S
C463 C464 1.502 1_655 S
C463 C465 1.561 . S
C463 C466 1.526 . S
C464 H448 0.959 . S
C464 H449 0.959 . S
C464 H450 0.961 . S
C464 C463 1.502 1_455 S
C465 H451 0.960 . S
C465 H452 0.961 . S
C465 H453 0.959 . S
C465 C463 1.561 . S
C466 C463 1.526 . S
C466 C467 1.396 . S
C466 C471 1.390 . S
C467 C461 1.465 . S
C467 C466 1.396 . S
C467 C468 1.396 1_654 S
C468 H454 0.932 . S
C468 C467 1.396 1_456 S
C468 C469 1.385 . S
C469 H455 0.936 . S
C469 C468 1.385 . S
C469 C470 1.386 1_455 S
C470 C469 1.386 1_655 S
C470 C471 1.387 1_556 S
C471 H456 0.930 . S
C471 C466 1.390 . S
C471 C470 1.387 1_554 S
H472 C484 0.930 . S
H473 C486 0.930 . S
H474 C487 0.930 . S
H475 C491 0.959 . S
H476 C491 0.959 . S
H477 C491 0.961 . S
H478 C492 0.960 . S
H479 C492 0.961 . S
H480 C492 0.959 1_655 S
H481 C495 0.929 . S
H482 C496 0.931 . S
H483 C498 0.930 . S
C484 H472 0.930 . S
C484 C485 1.383 1_455 S
C484 C489 1.399 1_455 S
C485 C484 1.383 1_655 S
C485 C486 1.410 . S
C486 H473 0.930 . S
C486 C485 1.410 . S
C486 C487 1.388 . S
C487 H474 0.930 . S
C487 C486 1.388 . S
C487 C488 1.390 . S
C488 C487 1.390 . S
C488 C489 1.394 . S
C488 C494 1.465 . S
C489 C484 1.399 1_655 S
C489 C488 1.394 . S
C489 C490 1.516 1_655 S
C490 C489 1.516 1_455 S
C490 C491 1.502 . S
C490 C492 1.561 . S
C490 C493 1.526 1_455 S
C491 H475 0.959 . S
C491 H476 0.959 . S
C491 H477 0.961 . S
C491 C490 1.502 . S
C492 H478 0.960 . S
C492 H479 0.961 . S
C492 H480 0.959 1_455 S
C492 C490 1.561 . S
C493 C490 1.526 1_655 S
C493 C494 1.396 . S
C493 C498 1.390 . S
C494 C488 1.465 . S
C494 C493 1.396 . S
C494 C495 1.399 . S
C495 H481 0.929 . S
C495 C494 1.399 . S
C495 C496 1.385 . S
C496 H482 0.931 . S
C496 C495 1.385 . S
C496 C497 1.389 . S
C497 C496 1.389 . S
C497 C498 1.387 . S
C498 H483 0.930 . S
C498 C493 1.390 . S
C498 C497 1.387 . S
H499 C511 0.930 . S
H500 C513 0.930 . S
H501 C514 0.930 . S
H502 C518 0.959 . S
H503 C518 0.959 . S
H504 C518 0.961 . S
H505 C519 0.960 . S
H506 C519 0.961 . S
H507 C519 0.959 . S
H508 C522 0.929 . S
H509 C523 0.934 . S
H510 C525 0.930 . S
C511 H499 0.930 . S
C511 C512 1.399 1_565 S
C511 C516 1.399 . S
C512 C511 1.399 1_545 S
C512 C513 1.376 . S
C513 H500 0.930 . S
C513 C512 1.376 . S
C513 C514 1.388 . S
C514 H501 0.930 . S
C514 C513 1.388 . S
C514 C515 1.390 1_545 S
C515 C514 1.390 1_565 S
C515 C516 1.394 . S
C515 C521 1.465 . S
C516 C511 1.399 . S
C516 C515 1.394 . S
C516 C517 1.516 . S
C517 C516 1.516 . S
C517 C518 1.502 . S
C517 C519 1.561 . S
C517 C520 1.526 . S
C518 H502 0.959 . S
C518 H503 0.959 . S
C518 H504 0.961 . S
C518 C517 1.502 . S
C519 H505 0.960 . S
C519 H506 0.961 . S
C519 H507 0.959 . S
C519 C517 1.561 . S
C520 C517 1.526 . S
C520 C521 1.396 . S
C520 C525 1.390 . S
C521 C515 1.465 . S
C521 C520 1.396 . S
C521 C522 1.399 1_565 S
C522 H508 0.929 . S
C522 C521 1.399 1_545 S
C522 C523 1.385 1_545 S
C523 H509 0.934 . S
C523 C522 1.385 1_565 S
C523 C524 1.389 . S
C524 C523 1.389 . S
C524 C525 1.387 . S
C525 H510 0.930 . S
C525 C520 1.390 . S
C525 C524 1.387 . S
H526 C538 0.930 . S
H527 C540 0.930 . S
H528 C541 0.930 . S
H529 C545 0.959 . S
H530 C545 0.959 . S
H531 C545 0.961 . S
H532 C546 0.960 . S
H533 C546 0.961 . S
H534 C546 0.959 . S
H535 C549 0.929 . S
H536 C550 0.931 . S
H537 C552 0.930 . S
C538 H526 0.930 . S
C538 C539 1.399 . S
C538 C543 1.399 . S
C539 C538 1.399 . S
C539 C540 1.376 . S
C540 H527 0.930 . S
C540 C539 1.376 . S
C540 C541 1.388 . S
C541 H528 0.930 . S
C541 C540 1.388 . S
C541 C542 1.390 . S
C542 C541 1.390 . S
C542 C543 1.394 . S
C542 C548 1.465 . S
C543 C538 1.399 . S
C543 C542 1.394 . S
C543 C544 1.516 . S
C544 C543 1.516 . S
C544 C545 1.502 . S
C544 C546 1.561 . S
C544 C547 1.526 . S
C545 H529 0.959 . S
C545 H530 0.959 . S
C545 H531 0.961 . S
C545 C544 1.502 . S
C546 H532 0.960 . S
C546 H533 0.961 . S
C546 H534 0.959 . S
C546 C544 1.561 . S
C547 C544 1.526 . S
C547 C548 1.396 . S
C547 C552 1.390 . S
C548 C542 1.465 . S
C548 C547 1.396 . S
C548 C549 1.399 . S
C549 H535 0.929 . S
C549 C548 1.399 . S
C549 C550 1.385 . S
C550 H536 0.931 . S
C550 C549 1.385 . S
C550 C551 1.389 . S
C551 C550 1.389 . S
C551 C552 1.387 . S
C552 H537 0.930 . S
C552 C547 1.390 . S
C552 C551 1.387 . S
H553 C565 0.930 . S
H554 C567 0.930 1_556 S
H555 C568 0.930 . S
H556 C572 0.959 . S
H557 C572 0.959 . S
H558 C572 0.961 . S
H559 C573 0.960 . S
H560 C573 0.961 . S
H561 C573 0.959 . S
H562 C576 0.929 . S
H563 C577 0.931 . S
H564 C579 0.930 . S
C565 H553 0.930 . S
C565 C566 1.399 . S
C565 C570 1.399 . S
C566 C565 1.399 . S
C566 C567 1.376 . S
C567 H554 0.930 1_554 S
C567 C566 1.376 . S
C567 C568 1.388 . S
C568 H555 0.930 . S
C568 C567 1.388 . S
C568 C569 1.390 . S
C569 C568 1.390 . S
C569 C570 1.394 . S
C569 C575 1.465 . S
C570 C565 1.399 . S
C570 C569 1.394 . S
C570 C571 1.516 . S
C571 C570 1.516 . S
C571 C572 1.502 . S
C571 C573 1.561 . S
C571 C574 1.526 . S
C572 H556 0.959 . S
C572 H557 0.959 . S
C572 H558 0.961 . S
C572 C571 1.502 . S
C573 H559 0.960 . S
C573 H560 0.961 . S
C573 H561 0.959 . S
C573 C571 1.561 . S
C574 C571 1.526 . S
C574 C575 1.396 . S
C574 C579 1.390 . S
C575 C569 1.465 . S
C575 C574 1.396 . S
C575 C576 1.399 . S
C576 H562 0.929 . S
C576 C575 1.399 . S
C576 C577 1.385 . S
C577 H563 0.931 . S
C577 C576 1.385 . S
C577 C578 1.389 . S
C578 C577 1.389 . S
C578 C579 1.387 . S
C579 H564 0.930 . S
C579 C574 1.390 . S
C579 C578 1.387 . S
H580 C592 0.930 . S
H581 C594 0.930 . S
H582 C595 0.930 . S
H583 C599 0.959 . S
H584 C599 0.959 . S
H585 C599 0.961 . S
H586 C600 0.960 . S
H587 C600 0.961 1_556 S
H588 C600 0.959 1_655 S
H589 C603 0.929 . S
H590 C604 0.931 . S
H591 C606 0.930 . S
C592 H580 0.930 . S
C592 C593 1.399 1_455 S
C592 C597 1.399 . S
C593 C592 1.399 1_655 S
C593 C594 1.376 . S
C594 H581 0.930 . S
C594 C593 1.376 . S
C594 C595 1.388 . S
C595 H582 0.930 . S
C595 C594 1.388 . S
C595 C596 1.390 1_655 S
C596 C595 1.390 1_455 S
C596 C597 1.394 . S
C596 C602 1.465 . S
C597 C592 1.399 . S
C597 C596 1.394 . S
C597 C598 1.516 . S
C598 C597 1.516 . S
C598 C599 1.502 . S
C598 C600 1.561 . S
C598 C601 1.526 . S
C599 H583 0.959 . S
C599 H584 0.959 . S
C599 H585 0.961 . S
C599 C598 1.502 . S
C600 H586 0.960 . S
C600 H587 0.961 1_554 S
C600 H588 0.959 1_455 S
C600 C598 1.561 . S
C601 C598 1.526 . S
C601 C602 1.396 . S
C601 C606 1.390 . S
C602 C596 1.465 . S
C602 C601 1.396 . S
C602 C603 1.399 . S
C603 H589 0.929 . S
C603 C602 1.399 . S
C603 C604 1.385 . S
C604 H590 0.931 . S
C604 C603 1.385 . S
C604 C605 1.389 . S
C605 C604 1.389 . S
C605 C606 1.387 . S
C606 H591 0.930 . S
C606 C601 1.390 . S
C606 C605 1.387 . S
H607 C619 0.930 . S
H608 C621 0.930 . S
H609 C622 0.930 1_565 S
H610 C626 0.959 . S
H611 C626 0.959 . S
H612 C626 0.961 . S
H613 C627 0.960 . S
H614 C627 0.961 . S
H615 C627 0.959 . S
H616 C630 0.929 . S
H617 C631 0.931 1_556 S
H618 C633 0.930 . S
C619 H607 0.930 . S
C619 C620 1.399 1_545 S
C619 C624 1.399 . S
C620 C619 1.399 1_565 S
C620 C621 1.376 . S
C621 H608 0.930 . S
C621 C620 1.376 . S
C621 C622 1.388 1_565 S
C622 H609 0.930 1_545 S
C622 C621 1.388 1_545 S
C622 C623 1.390 . S
C623 C622 1.390 . S
C623 C624 1.394 . S
C623 C629 1.465 . S
C624 C619 1.399 . S
C624 C623 1.394 . S
C624 C625 1.516 . S
C625 C624 1.516 . S
C625 C626 1.502 . S
C625 C627 1.561 . S
C625 C628 1.526 . S
C626 H610 0.959 . S
C626 H611 0.959 . S
C626 H612 0.961 . S
C626 C625 1.502 . S
C627 H613 0.960 . S
C627 H614 0.961 . S
C627 H615 0.959 . S
C627 C625 1.561 . S
C628 C625 1.526 . S
C628 C629 1.396 . S
C628 C633 1.390 . S
C629 C623 1.465 . S
C629 C628 1.396 . S
C629 C630 1.399 . S
C630 H616 0.929 . S
C630 C629 1.399 . S
C630 C631 1.385 . S
C631 H617 0.931 1_554 S
C631 C630 1.385 . S
C631 C632 1.389 . S
C632 C631 1.389 . S
C632 C633 1.387 . S
C633 H618 0.930 . S
C633 C628 1.390 . S
C633 C632 1.387 . S
H634 C646 0.930 . S
H635 C648 0.930 . S
H636 C649 0.930 . S
H637 C653 0.959 . S
H638 C653 0.959 . S
H639 C653 0.961 . S
H640 C654 0.960 . S
H641 C654 0.961 . S
H642 C654 0.959 . S
H643 C657 0.929 . S
H644 C658 0.931 1_556 S
H645 C660 0.930 . S
C646 H634 0.930 . S
C646 C647 1.399 . S
C646 C651 1.399 . S
C647 C646 1.399 . S
C647 C648 1.376 . S
C648 H635 0.930 . S
C648 C647 1.376 . S
C648 C649 1.388 . S
C649 H636 0.930 . S
C649 C648 1.388 . S
C649 C650 1.390 . S
C650 C649 1.390 . S
C650 C651 1.394 . S
C650 C656 1.465 . S
C651 C646 1.399 . S
C651 C650 1.394 . S
C651 C652 1.516 . S
C652 C651 1.516 . S
C652 C653 1.502 . S
C652 C654 1.561 . S
C652 C655 1.526 . S
C653 H637 0.959 . S
C653 H638 0.959 . S
C653 H639 0.961 . S
C653 C652 1.502 . S
C654 H640 0.960 . S
C654 H641 0.961 . S
C654 H642 0.959 . S
C654 C652 1.561 . S
C655 C652 1.526 . S
C655 C656 1.396 . S
C655 C660 1.390 . S
C656 C650 1.465 . S
C656 C655 1.396 . S
C656 C657 1.399 . S
C657 H643 0.929 . S
C657 C656 1.399 . S
C657 C658 1.385 . S
C658 H644 0.931 1_554 S
C658 C657 1.385 . S
C658 C659 1.389 . S
C659 C658 1.389 . S
C659 C660 1.387 . S
C660 H645 0.930 . S
C660 C655 1.390 . S
C660 C659 1.387 . S
H661 C673 0.930 . S
H662 C675 0.930 . S
H663 C676 0.930 . S
H664 C680 0.959 . S
H665 C680 0.959 . S
H666 C680 0.961 . S
H667 C681 0.960 . S
H668 C681 0.961 . S
H669 C681 0.959 . S
H670 C684 0.929 . S
H671 C685 0.931 . S
H672 C687 0.930 . S
C673 H661 0.930 . S
C673 C674 1.399 . S
C673 C678 1.399 . S
C674 C673 1.399 . S
C674 C675 1.376 . S
C675 H662 0.930 . S
C675 C674 1.376 . S
C675 C676 1.388 . S
C676 H663 0.930 . S
C676 C675 1.388 . S
C676 C677 1.390 . S
C677 C676 1.390 . S
C677 C678 1.394 . S
C677 C683 1.465 . S
C678 C673 1.399 . S
C678 C677 1.394 . S
C678 C679 1.516 . S
C679 C678 1.516 . S
C679 C680 1.502 . S
C679 C681 1.561 . S
C679 C682 1.526 . S
C680 H664 0.959 . S
C680 H665 0.959 . S
C680 H666 0.961 . S
C680 C679 1.502 . S
C681 H667 0.960 . S
C681 H668 0.961 . S
C681 H669 0.959 . S
C681 C679 1.561 . S
C682 C679 1.526 . S
C682 C683 1.396 . S
C682 C687 1.390 . S
C683 C677 1.465 . S
C683 C682 1.396 . S
C683 C684 1.399 . S
C684 H670 0.929 . S
C684 C683 1.399 . S
C684 C685 1.385 . S
C685 H671 0.931 . S
C685 C684 1.385 . S
C685 C686 1.389 . S
C686 C685 1.389 . S
C686 C687 1.387 . S
C687 H672 0.930 . S
C687 C682 1.390 . S
C687 C686 1.387 . S
H688 C700 0.930 . S
H689 C702 0.930 . S
H690 C703 0.930 . S
H691 C707 0.959 . S
H692 C707 0.959 1_554 S
H693 C707 0.961 1_554 S
H694 C708 0.964 . S
H695 C708 0.961 1_455 S
H696 C708 0.959 . S
H697 C711 0.929 . S
H698 C712 0.931 . S
H699 C714 0.930 . S
C700 H688 0.930 . S
C700 C701 1.401 1_455 S
C700 C705 1.399 . S
C701 C700 1.401 1_655 S
C701 C702 1.375 . S
C702 H689 0.930 . S
C702 C701 1.375 . S
C702 C703 1.388 . S
C703 H690 0.930 . S
C703 C702 1.388 . S
C703 C704 1.390 . S
C704 C703 1.390 . S
C704 C705 1.394 1_655 S
C704 C710 1.466 . S
C705 C700 1.399 . S
C705 C704 1.394 1_455 S
C705 C706 1.516 . S
C706 C705 1.516 . S
C706 C707 1.502 . S
C706 C708 1.561 1_456 S
C706 C709 1.526 . S
C707 H691 0.959 . S
C707 H692 0.959 1_556 S
C707 H693 0.961 1_556 S
C707 C706 1.502 . S
C708 H694 0.964 . S
C708 H695 0.961 1_655 S
C708 H696 0.959 . S
C708 C706 1.561 1_654 S
C709 C706 1.526 . S
C709 C710 1.393 1_455 S
C709 C714 1.390 . S
C710 C704 1.466 . S
C710 C709 1.393 1_655 S
C710 C711 1.401 . S
C711 H697 0.929 . S
C711 C710 1.401 . S
C711 C712 1.385 . S
C712 H698 0.931 . S
C712 C711 1.385 . S
C712 C713 1.389 1_655 S
C713 C712 1.389 1_455 S
C713 C714 1.387 . S
C714 H699 0.930 . S
C714 C709 1.390 . S
C714 C713 1.387 . S
H715 C727 0.930 . S
H716 C729 0.930 . S
H717 C730 0.930 . S
H718 C734 0.959 . S
H719 C734 0.959 . S
H720 C734 0.961 . S
H721 C735 0.960 . S
H722 C735 0.961 . S
H723 C735 0.959 . S
H724 C738 0.929 . S
H725 C739 0.931 . S
H726 C741 0.930 . S
C727 H715 0.930 . S
C727 C728 1.399 1_565 S
C727 C732 1.399 . S
C728 C727 1.399 1_545 S
C728 C729 1.376 . S
C729 H716 0.930 . S
C729 C728 1.376 . S
C729 C730 1.388 . S
C730 H717 0.930 . S
C730 C729 1.388 . S
C730 C731 1.390 . S
C731 C730 1.390 . S
C731 C732 1.394 1_545 S
C731 C737 1.465 . S
C732 C727 1.399 . S
C732 C731 1.394 1_565 S
C732 C733 1.516 . S
C733 C732 1.516 . S
C733 C734 1.502 . S
C733 C735 1.561 . S
C733 C736 1.526 . S
C734 H718 0.959 . S
C734 H719 0.959 . S
C734 H720 0.961 . S
C734 C733 1.502 . S
C735 H721 0.960 . S
C735 H722 0.961 . S
C735 H723 0.959 . S
C735 C733 1.561 . S
C736 C733 1.526 . S
C736 C737 1.396 1_565 S
C736 C741 1.390 . S
C737 C731 1.465 . S
C737 C736 1.396 1_545 S
C737 C738 1.399 . S
C738 H724 0.929 . S
C738 C737 1.399 . S
C738 C739 1.385 . S
C739 H725 0.931 . S
C739 C738 1.385 . S
C739 C740 1.389 . S
C740 C739 1.389 . S
C740 C741 1.387 1_545 S
C741 H726 0.930 . S
C741 C736 1.390 . S
C741 C740 1.387 1_565 S
H742 C754 0.930 . S
H743 C756 0.930 1_554 S
H744 C757 0.930 1_554 S
H745 C761 0.959 . S
H746 C761 0.959 . S
H747 C761 0.961 . S
H748 C762 0.960 . S
H749 C762 0.961 . S
H750 C762 0.959 . S
H751 C765 0.929 1_554 S
H752 C766 0.931 . S
H753 C768 0.930 . S
C754 H742 0.930 . S
C754 C755 1.399 . S
C754 C759 1.399 . S
C755 C754 1.399 . S
C755 C756 1.376 . S
C756 H743 0.930 1_556 S
C756 C755 1.376 . S
C756 C757 1.388 . S
C757 H744 0.930 1_556 S
C757 C756 1.388 . S
C757 C758 1.390 . S
C758 C757 1.390 . S
C758 C759 1.394 . S
C758 C764 1.465 . S
C759 C754 1.399 . S
C759 C758 1.394 . S
C759 C760 1.516 . S
C760 C759 1.516 . S
C760 C761 1.502 . S
C760 C762 1.561 . S
C760 C763 1.526 . S
C761 H745 0.959 . S
C761 H746 0.959 . S
C761 H747 0.961 . S
C761 C760 1.502 . S
C762 H748 0.960 . S
C762 H749 0.961 . S
C762 H750 0.959 . S
C762 C760 1.561 . S
C763 C760 1.526 . S
C763 C764 1.396 . S
C763 C768 1.390 . S
C764 C758 1.465 . S
C764 C763 1.396 . S
C764 C765 1.399 . S
C765 H751 0.929 1_556 S
C765 C764 1.399 . S
C765 C766 1.385 . S
C766 H752 0.931 . S
C766 C765 1.385 . S
C766 C767 1.389 . S
C767 C766 1.389 . S
C767 C768 1.387 . S
C768 H753 0.930 . S
C768 C763 1.390 . S
C768 C767 1.387 . S
H769 C781 0.930 . S
H770 C783 0.930 . S
H771 C784 0.930 . S
H772 C788 0.959 . S
H773 C788 0.959 . S
H774 C788 0.961 . S
H775 C789 0.960 . S
H776 C789 0.961 . S
H777 C789 0.959 . S
H778 C792 0.929 . S
H779 C793 0.931 . S
H780 C795 0.930 . S
C781 H769 0.930 . S
C781 C782 1.399 . S
C781 C786 1.399 . S
C782 C781 1.399 . S
C782 C783 1.376 . S
C783 H770 0.930 . S
C783 C782 1.376 . S
C783 C784 1.388 . S
C784 H771 0.930 . S
C784 C783 1.388 . S
C784 C785 1.390 . S
C785 C784 1.390 . S
C785 C786 1.394 . S
C785 C791 1.465 . S
C786 C781 1.399 . S
C786 C785 1.394 . S
C786 C787 1.516 . S
C787 C786 1.516 . S
C787 C788 1.502 . S
C787 C789 1.561 1_556 S
C787 C790 1.526 . S
C788 H772 0.959 . S
C788 H773 0.959 . S
C788 H774 0.961 . S
C788 C787 1.502 . S
C789 H775 0.960 . S
C789 H776 0.961 . S
C789 H777 0.959 . S
C789 C787 1.561 1_554 S
C790 C787 1.526 . S
C790 C791 1.396 . S
C790 C795 1.390 . S
C791 C785 1.465 . S
C791 C790 1.396 . S
C791 C792 1.399 . S
C792 H778 0.929 . S
C792 C791 1.399 . S
C792 C793 1.385 . S
C793 H779 0.931 . S
C793 C792 1.385 . S
C793 C794 1.389 . S
C794 C793 1.389 . S
C794 C795 1.387 . S
C795 H780 0.930 . S
C795 C790 1.390 . S
C795 C794 1.387 . S
H796 C808 0.930 . S
H797 C810 0.930 . S
H798 C811 0.930 . S
H799 C815 0.959 . S
H800 C815 0.959 . S
H801 C815 0.961 . S
H802 C816 0.960 . S
H803 C816 0.961 . S
H804 C816 0.959 . S
H805 C819 0.929 . S
H806 C820 0.931 . S
H807 C822 0.930 1_455 S
C808 H796 0.930 . S
C808 C809 1.399 1_455 S
C808 C813 1.399 1_455 S
C809 C808 1.399 1_655 S
C809 C810 1.376 . S
C810 H797 0.930 . S
C810 C809 1.376 . S
C810 C811 1.388 . S
C811 H798 0.930 . S
C811 C810 1.388 . S
C811 C812 1.390 . S
C812 C811 1.390 . S
C812 C813 1.394 . S
C812 C818 1.465 . S
C813 C808 1.399 1_655 S
C813 C812 1.394 . S
C813 C814 1.516 1_655 S
C814 C813 1.516 1_455 S
C814 C815 1.502 . S
C814 C816 1.561 1_455 S
C814 C817 1.526 1_455 S
C815 H799 0.959 . S
C815 H800 0.959 . S
C815 H801 0.961 . S
C815 C814 1.502 . S
C816 H802 0.960 . S
C816 H803 0.961 . S
C816 H804 0.959 . S
C816 C814 1.561 1_655 S
C817 C814 1.526 1_655 S
C817 C818 1.396 . S
C817 C822 1.390 . S
C818 C812 1.465 . S
C818 C817 1.396 . S
C818 C819 1.399 . S
C819 H805 0.929 . S
C819 C818 1.399 . S
C819 C820 1.385 . S
C820 H806 0.931 . S
C820 C819 1.385 . S
C820 C821 1.389 . S
C821 C820 1.389 . S
C821 C822 1.387 . S
C822 H807 0.930 1_655 S
C822 C817 1.390 . S
C822 C821 1.387 . S
H823 C835 0.930 . S
H824 C837 0.930 . S
H825 C838 0.930 . S
H826 C842 0.959 . S
H827 C842 0.959 . S
H828 C842 0.961 . S
H829 C843 0.960 1_545 S
H830 C843 0.961 1_545 S
H831 C843 0.959 . S
H832 C846 0.929 . S
H833 C847 0.931 . S
H834 C849 0.930 1_545 S
C835 H823 0.930 . S
C835 C836 1.399 1_545 S
C835 C840 1.408 . S
C836 C835 1.399 1_565 S
C836 C837 1.376 . S
C837 H824 0.930 . S
C837 C836 1.376 . S
C837 C838 1.388 . S
C838 H825 0.930 . S
C838 C837 1.388 . S
C838 C839 1.390 . S
C839 C838 1.390 . S
C839 C840 1.371 1_565 S
C839 C845 1.465 . S
C840 C835 1.408 . S
C840 C839 1.371 1_545 S
C840 C841 1.528 . S
C841 C840 1.528 . S
C841 C842 1.502 . S
C841 C843 1.561 1_545 S
C841 C844 1.526 1_545 S
C842 H826 0.959 . S
C842 H827 0.959 . S
C842 H828 0.961 . S
C842 C841 1.502 . S
C843 H829 0.960 1_565 S
C843 H830 0.961 1_565 S
C843 H831 0.959 . S
C843 C841 1.561 1_565 S
C844 C841 1.526 1_565 S
C844 C845 1.396 . S
C844 C849 1.389 . S
C845 C839 1.465 . S
C845 C844 1.396 . S
C845 C846 1.399 . S
C846 H832 0.929 . S
C846 C845 1.399 . S
C846 C847 1.385 . S
C847 H833 0.931 . S
C847 C846 1.385 . S
C847 C848 1.389 . S
C848 C847 1.389 . S
C848 C849 1.386 . S
C849 H834 0.930 1_565 S
C849 C844 1.389 . S
C849 C848 1.386 . S
H850 C862 0.930 . S
H851 C864 0.930 . S
H852 C865 0.930 . S
H853 C869 0.959 . S
H854 C869 0.959 . S
H855 C869 0.961 . S
H856 C870 0.960 . S
H857 C870 0.961 . S
H858 C870 0.959 . S
H859 C873 0.929 . S
H860 C874 0.931 . S
H861 C876 0.930 . S
C862 H850 0.930 . S
C862 C863 1.399 . S
C862 C867 1.399 . S
C863 C862 1.399 . S
C863 C864 1.376 . S
C864 H851 0.930 . S
C864 C863 1.376 . S
C864 C865 1.388 . S
C865 H852 0.930 . S
C865 C864 1.388 . S
C865 C866 1.390 . S
C866 C865 1.390 . S
C866 C867 1.394 . S
C866 C872 1.465 . S
C867 C862 1.399 . S
C867 C866 1.394 . S
C867 C868 1.516 . S
C868 C867 1.516 . S
C868 C869 1.502 . S
C868 C870 1.561 . S
C868 C871 1.526 . S
C869 H853 0.959 . S
C869 H854 0.959 . S
C869 H855 0.961 . S
C869 C868 1.502 . S
C870 H856 0.960 . S
C870 H857 0.961 . S
C870 H858 0.959 . S
C870 C868 1.561 . S
C871 C868 1.526 . S
C871 C872 1.396 . S
C871 C876 1.390 . S
C872 C866 1.465 . S
C872 C871 1.396 . S
C872 C873 1.399 . S
C873 H859 0.929 . S
C873 C872 1.399 . S
C873 C874 1.385 . S
C874 H860 0.931 . S
C874 C873 1.385 . S
C874 C875 1.389 . S
C875 C874 1.389 . S
C875 C876 1.387 . S
C876 H861 0.930 . S
C876 C871 1.390 . S
C876 C875 1.387 . S
H877 C889 0.930 . S
H878 C891 0.930 . S
H879 C892 0.930 . S
H880 C896 0.959 . S
H881 C896 0.959 . S
H882 C896 0.961 . S
H883 C897 0.960 . S
H884 C897 0.961 . S
H885 C897 0.959 . S
H886 C900 0.929 . S
H887 C901 0.931 . S
H888 C903 0.930 . S
C889 H877 0.930 . S
C889 C890 1.399 . S
C889 C894 1.399 . S
C890 C889 1.399 . S
C890 C891 1.376 . S
C891 H878 0.930 . S
C891 C890 1.376 . S
C891 C892 1.388 . S
C892 H879 0.930 . S
C892 C891 1.388 . S
C892 C893 1.390 . S
C893 C892 1.390 . S
C893 C894 1.394 . S
C893 C899 1.465 . S
C894 C889 1.399 . S
C894 C893 1.394 . S
C894 C895 1.516 . S
C895 C894 1.516 . S
C895 C896 1.502 . S
C895 C897 1.561 . S
C895 C898 1.526 . S
C896 H880 0.959 . S
C896 H881 0.959 . S
C896 H882 0.961 . S
C896 C895 1.502 . S
C897 H883 0.960 . S
C897 H884 0.961 . S
C897 H885 0.959 . S
C897 C895 1.561 . S
C898 C895 1.526 . S
C898 C899 1.396 . S
C898 C903 1.390 . S
C899 C893 1.465 . S
C899 C898 1.396 . S
C899 C900 1.399 . S
C900 H886 0.929 . S
C900 C899 1.399 . S
C900 C901 1.385 . S
C901 H887 0.931 . S
C901 C900 1.385 . S
C901 C902 1.389 . S
C902 C901 1.389 . S
C902 C903 1.387 . S
C903 H888 0.930 . S
C903 C898 1.390 . S
C903 C902 1.387 . S
C269 C76 1.801 . S
C281 C106 1.947 . S
C308 C146 1.975 . S
C296 C88 1.843 . S
C335 C186 1.979 . S
C323 C52 1.788 . S
C362 C226 1.969 1_455 S
C350 C64 1.845 1_455 S
C389 C115 1.962 1_565 S
C377 C28 1.850 1_545 S
C404 C40 1.845 . S
C416 C155 1.967 . S
C431 C4 1.779 . S
C443 C195 1.959 . S
C458 C16 1.766 . S
C470 C235 1.960 1_655 S
C497 C112 0.600 . S
C485 C69 0.458 1_655 S
C524 C152 0.432 . S
C512 C81 0.522 . S
C551 C192 0.520 . S
C539 C93 0.618 . S
C566 C57 0.427 . S
C578 C232 0.504 . S
C593 C21 0.522 1_655 S
C605 C103 0.474 . S
C632 C143 0.494 . S
C620 C33 0.608 1_565 S
C659 C183 0.531 . S
C647 C45 0.584 . S
C674 C9 0.543 . S
C686 C223 0.468 . S
C701 C66 2.076 1_655 S
C713 C107 2.269 . S
C728 C78 2.048 . S
C740 C147 2.290 . S
C767 C187 2.275 . S
C755 C90 1.983 . S
C794 C227 2.265 . S
C782 C54 2.056 . S
C809 C18 2.078 1_655 S
C821 C98 2.301 . S
C848 C138 2.285 . S
C836 C30 2.059 1_565 S
C875 C178 2.275 . S
C863 C42 2.065 . S
C890 C6 1.997 . S
C902 C218 2.284 . S
