# Generated by pormake.
# Topology pyr, (3,6)-cn, num edge types: 1
# Building blocks:
#     Node 0, Type 0, BuildingBlock: MIDCAF_clean_linker_0, # of connection points: 3
#     Node 1, Type 0, BuildingBlock: MIDCAF_clean_linker_0, # of connection points: 3
#     Node 2, Type 0, BuildingBlock: MIDCAF_clean_linker_0, # of connection points: 3
#     Node 3, Type 0, BuildingBlock: MIDCAF_clean_linker_0, # of connection points: 3
#     Node 4, Type 0, BuildingBlock: MIDCAF_clean_linker_0, # of connection points: 3
#     Node 5, Type 0, BuildingBlock: MIDCAF_clean_linker_0, # of connection points: 3
#     Node 6, Type 0, BuildingBlock: MIDCAF_clean_linker_0, # of connection points: 3
#     Node 7, Type 0, BuildingBlock: MIDCAF_clean_linker_0, # of connection points: 3
#     Node 8, Type 1, BuildingBlock: MIFKUJ_clean_sbu_0, # of connection points: 6
#     Node 9, Type 1, BuildingBlock: MIFKUJ_clean_sbu_0, # of connection points: 6
#     Node 10, Type 1, BuildingBlock: MIFKUJ_clean_sbu_0, # of connection points: 6
#     Node 11, Type 1, BuildingBlock: MIFKUJ_clean_sbu_0, # of connection points: 6
#     Edge 12, Type (0, 1), BuildingBlock: UVAHIK_clean_linker_0, # of connection points: 2
#     Edge 13, Type (0, 1), BuildingBlock: UVAHIK_clean_linker_0, # of connection points: 2
#     Edge 14, Type (0, 1), BuildingBlock: UVAHIK_clean_linker_0, # of connection points: 2
#     Edge 15, Type (0, 1), BuildingBlock: UVAHIK_clean_linker_0, # of connection points: 2
#     Edge 16, Type (0, 1), BuildingBlock: UVAHIK_clean_linker_0, # of connection points: 2
#     Edge 17, Type (0, 1), BuildingBlock: UVAHIK_clean_linker_0, # of connection points: 2
#     Edge 18, Type (0, 1), BuildingBlock: UVAHIK_clean_linker_0, # of connection points: 2
#     Edge 19, Type (0, 1), BuildingBlock: UVAHIK_clean_linker_0, # of connection points: 2
#     Edge 20, Type (0, 1), BuildingBlock: UVAHIK_clean_linker_0, # of connection points: 2
#     Edge 21, Type (0, 1), BuildingBlock: UVAHIK_clean_linker_0, # of connection points: 2
#     Edge 22, Type (0, 1), BuildingBlock: UVAHIK_clean_linker_0, # of connection points: 2
#     Edge 23, Type (0, 1), BuildingBlock: UVAHIK_clean_linker_0, # of connection points: 2
#     Edge 24, Type (0, 1), BuildingBlock: UVAHIK_clean_linker_0, # of connection points: 2
#     Edge 25, Type (0, 1), BuildingBlock: UVAHIK_clean_linker_0, # of connection points: 2
#     Edge 26, Type (0, 1), BuildingBlock: UVAHIK_clean_linker_0, # of connection points: 2
#     Edge 27, Type (0, 1), BuildingBlock: UVAHIK_clean_linker_0, # of connection points: 2
#     Edge 28, Type (0, 1), BuildingBlock: UVAHIK_clean_linker_0, # of connection points: 2
#     Edge 29, Type (0, 1), BuildingBlock: UVAHIK_clean_linker_0, # of connection points: 2
#     Edge 30, Type (0, 1), BuildingBlock: UVAHIK_clean_linker_0, # of connection points: 2
#     Edge 31, Type (0, 1), BuildingBlock: UVAHIK_clean_linker_0, # of connection points: 2
#     Edge 32, Type (0, 1), BuildingBlock: UVAHIK_clean_linker_0, # of connection points: 2
#     Edge 33, Type (0, 1), BuildingBlock: UVAHIK_clean_linker_0, # of connection points: 2
#     Edge 34, Type (0, 1), BuildingBlock: UVAHIK_clean_linker_0, # of connection points: 2
#     Edge 35, Type (0, 1), BuildingBlock: UVAHIK_clean_linker_0, # of connection points: 2
# Relax obj value: 0.025
# Max RMSD: 0.078
# Mean RMSD: 0.046
data_MOF--net-pyr--node1-MIFKUJ_clean_sbu_0--node2-MIDCAF_clean_linker_0--edge1-UVAHIK_clean_linker_0
_symmetry_space_group_name_H-M    P1
_symmetry_Int_Tables_number       1
_symmetry_cell_setting            triclinic
loop_
_symmetry_equiv_pos_as_xyz
'x, y, z'
_cell_length_a     58.978822
_cell_length_b     52.983632
_cell_length_c     57.661295
_cell_angle_alpha  86.669989
_cell_angle_beta   88.691876
_cell_angle_gamma 95.519668
loop_
_atom_site_label
_atom_site_type_symbol
_atom_site_fract_x
_atom_site_fract_y
_atom_site_fract_z
_atom_type_partial_charge
C0 C 0.17318 0.17838 0.29132 0.0
C1 C 0.18326 0.15805 0.3023 0.0
C2 C 0.20312 0.15017 0.2922 0.0
C3 C 0.21223 0.1618 0.27118 0.0
H4 H 0.26342 0.15894 0.22089 0.0
H5 H 0.29286 0.1396 0.19983 0.0
H6 H 0.27544 0.17952 0.1362 0.0
H7 H 0.24654 0.19941 0.15726 0.0
H8 H 0.2072 0.234 0.15691 0.0
H9 H 0.184 0.26274 0.13608 0.0
H10 H 0.14938 0.27601 0.20047 0.0
H11 H 0.17212 0.24661 0.22128 0.0
H12 H 0.17364 0.20519 0.26223 0.0
H13 H 0.15768 0.18472 0.29839 0.0
H14 H 0.21148 0.13479 0.30039 0.0
H15 H 0.22726 0.15488 0.26363 0.0
N16 N 0.22748 0.18303 0.22534 0.0
N17 N 0.22236 0.20965 0.19234 0.0
N18 N 0.1985 0.21037 0.22525 0.0
C19 C 0.23392 0.19168 0.20329 0.0
C20 C 0.2047 0.21918 0.20323 0.0
C21 C 0.20978 0.19231 0.23645 0.0
C22 C 0.25252 0.1807 0.19079 0.0
C23 C 0.26594 0.16372 0.20243 0.0
C24 C 0.28275 0.15251 0.19033 0.0
C25 C 0.28646 0.15791 0.16629 0.0
C26 C 0.27328 0.17519 0.15476 0.0
C27 C 0.25658 0.1865 0.16686 0.0
C28 C 0.1915 0.23788 0.19079 0.0
C29 C 0.19475 0.24313 0.1667 0.0
C30 C 0.18149 0.25974 0.15474 0.0
C31 C 0.16478 0.27169 0.16658 0.0
C32 C 0.16183 0.26681 0.19074 0.0
C33 C 0.17498 0.25005 0.2027 0.0
C34 C 0.20164 0.18156 0.25981 0.0
C35 C 0.18228 0.19002 0.2704 0.0
C36 C 0.2595 0.88351 0.66476 0.0
C37 C 0.25084 0.87219 0.64492 0.0
C38 C 0.26267 0.8535 0.63505 0.0
C39 C 0.28256 0.84606 0.6449 0.0
H40 H 0.34416 0.81218 0.63001 0.0
H41 H 0.36349 0.77891 0.61228 0.0
H42 H 0.38489 0.75281 0.67983 0.0
H43 H 0.36606 0.78636 0.69761 0.0
H44 H 0.36915 0.82939 0.73493 0.0
H45 H 0.38283 0.84499 0.7713 0.0
H46 H 0.33686 0.90367 0.76679 0.0
H47 H 0.32315 0.88822 0.72998 0.0
H48 H 0.28542 0.88489 0.69015 0.0
H49 H 0.25066 0.89785 0.67286 0.0
H50 H 0.25661 0.84469 0.61956 0.0
H51 H 0.2911 0.83148 0.63683 0.0
N52 N 0.32322 0.8306 0.66576 0.0
N53 N 0.34827 0.83025 0.69668 0.0
N54 N 0.31885 0.85705 0.69649 0.0
C55 C 0.34149 0.82151 0.67605 0.0
C56 C 0.33717 0.84813 0.70696 0.0
C57 C 0.31171 0.84827 0.6759 0.0
C58 C 0.35357 0.80184 0.66519 0.0
C59 C 0.35308 0.79942 0.64106 0.0
C60 C 0.36422 0.78053 0.6309 0.0
C61 C 0.37561 0.76342 0.64475 0.0
C62 C 0.37615 0.76581 0.66885 0.0
C63 C 0.36545 0.78503 0.67895 0.0
C64 C 0.34503 0.85754 0.72943 0.0
C65 C 0.36186 0.84561 0.74159 0.0
C66 C 0.36961 0.85443 0.76259 0.0
C67 C 0.36083 0.87546 0.77198 0.0
C68 C 0.34402 0.88749 0.7599 0.0
C69 C 0.33611 0.87854 0.73888 0.0
C70 C 0.2911 0.85706 0.66497 0.0
C71 C 0.27938 0.87599 0.67472 0.0
C72 C 0.65571 0.26775 0.861 0.0
C73 C 0.6354 0.25674 0.85196 0.0
C74 C 0.62682 0.26832 0.83189 0.0
C75 C 0.63813 0.29056 0.82127 0.0
H76 H 0.64513 0.33716 0.75937 0.0
H77 H 0.62808 0.35639 0.72575 0.0
H78 H 0.65658 0.43065 0.74404 0.0
H79 H 0.67473 0.411 0.77726 0.0
H80 H 0.71562 0.40969 0.82066 0.0
H81 H 0.75007 0.42742 0.83945 0.0
H82 H 0.76524 0.35169 0.8611 0.0
H83 H 0.73083 0.334 0.8429 0.0
H84 H 0.68247 0.29802 0.85807 0.0
H85 H 0.66263 0.25951 0.87661 0.0
H86 H 0.61137 0.26013 0.82431 0.0
H87 H 0.63093 0.29902 0.80592 0.0
N88 N 0.66103 0.33779 0.80112 0.0
N89 N 0.69012 0.37134 0.80148 0.0
N90 N 0.68908 0.33682 0.82908 0.0
C91 C 0.67103 0.36041 0.7918 0.0
C92 C 0.69933 0.35942 0.82005 0.0
C93 C 0.66983 0.32595 0.81986 0.0
C94 C 0.66117 0.37257 0.77109 0.0
C95 C 0.64779 0.35761 0.75625 0.0
C96 C 0.63784 0.36872 0.73699 0.0
C97 C 0.64057 0.3952 0.73224 0.0
C98 C 0.65423 0.41019 0.74696 0.0
C99 C 0.66456 0.39896 0.76608 0.0
C100 C 0.72049 0.37047 0.83037 0.0
C101 C 0.72639 0.39687 0.82935 0.0
C102 C 0.74598 0.40701 0.84017 0.0
C103 C 0.76024 0.39087 0.85165 0.0
C104 C 0.75458 0.36451 0.85224 0.0
C105 C 0.73482 0.35443 0.84191 0.0
C106 C 0.6583 0.30177 0.8305 0.0
C107 C 0.66702 0.28997 0.85041 0.0
C108 C 0.75942 0.64866 0.35211 0.0
C109 C 0.75249 0.6227 0.35078 0.0
C110 C 0.76681 0.60742 0.33931 0.0
C111 C 0.78768 0.61797 0.32926 0.0
H112 H 0.83249 0.61207 0.27271 0.0
H113 H 0.84976 0.59359 0.23984 0.0
H114 H 0.90589 0.65242 0.23824 0.0
H115 H 0.88844 0.67131 0.27093 0.0
H116 H 0.88689 0.71711 0.30594 0.0
H117 H 0.90449 0.75489 0.32342 0.0
H118 H 0.85297 0.74495 0.37854 0.0
H119 H 0.83514 0.70801 0.36094 0.0
H120 H 0.78539 0.67914 0.34402 0.0
H121 H 0.74873 0.6608 0.36097 0.0
H122 H 0.76177 0.58736 0.33798 0.0
H123 H 0.7984 0.60575 0.32055 0.0
N124 N 0.82759 0.64439 0.30341 0.0
N125 N 0.85838 0.67603 0.30347 0.0
N126 N 0.82769 0.67615 0.33002 0.0
C127 C 0.84811 0.65483 0.29435 0.0
C128 C 0.84828 0.68673 0.32142 0.0
C129 C 0.81724 0.65504 0.32118 0.0
C130 C 0.85901 0.64327 0.27456 0.0
C131 C 0.84853 0.62113 0.26543 0.0
C132 C 0.85852 0.61039 0.24662 0.0
C133 C 0.87924 0.62148 0.23639 0.0
C134 C 0.88978 0.64355 0.24553 0.0
C135 C 0.87981 0.6543 0.26439 0.0
C136 C 0.85947 0.70953 0.33189 0.0
C137 C 0.87931 0.72304 0.32177 0.0
C138 C 0.88947 0.74464 0.33185 0.0
C139 C 0.88005 0.75314 0.3523 0.0
C140 C 0.86042 0.73938 0.36251 0.0
C141 C 0.85024 0.71799 0.35243 0.0
C142 C 0.79481 0.64388 0.33096 0.0
C143 C 0.78045 0.65909 0.3425 0.0
C144 C 0.72904 0.85822 0.81756 0.0
C145 C 0.71856 0.84587 0.83785 0.0
C146 C 0.7252 0.82208 0.84553 0.0
C147 C 0.74228 0.8112 0.83355 0.0
H148 H 0.79561 0.76799 0.84805 0.0
H149 H 0.81774 0.73845 0.8693 0.0
H150 H 0.85485 0.7266 0.80597 0.0
H151 H 0.83321 0.75683 0.7848 0.0
H152 H 0.83737 0.80378 0.74739 0.0
H153 H 0.85479 0.82507 0.71218 0.0
H154 H 0.79782 0.87027 0.70526 0.0
H155 H 0.7806 0.84946 0.7411 0.0
H156 H 0.75396 0.85751 0.79015 0.0
H157 H 0.7246 0.87672 0.81131 0.0
H158 H 0.71719 0.8118 0.86082 0.0
H159 H 0.74711 0.79296 0.84012 0.0
N160 N 0.78241 0.79387 0.81244 0.0
N161 N 0.80824 0.79439 0.78093 0.0
N162 N 0.78 0.82264 0.78031 0.0
C163 C 0.80052 0.78449 0.8022 0.0
C164 C 0.79808 0.81341 0.76982 0.0
C165 C 0.772 0.81287 0.80159 0.0
C166 C 0.8127 0.76493 0.81472 0.0
C167 C 0.80836 0.75896 0.83858 0.0
C168 C 0.82101 0.7419 0.85077 0.0
C169 C 0.83816 0.7302 0.83937 0.0
C170 C 0.84207 0.73563 0.81538 0.0
C171 C 0.82954 0.75286 0.80321 0.0
C172 C 0.80762 0.825 0.74725 0.0
C173 C 0.82839 0.8181 0.73834 0.0
C174 C 0.83835 0.83022 0.71797 0.0
C175 C 0.82773 0.84943 0.70585 0.0
C176 C 0.80662 0.85583 0.71435 0.0
C177 C 0.7967 0.84379 0.73485 0.0
C178 C 0.75301 0.82375 0.81349 0.0
C179 C 0.74598 0.84723 0.80546 0.0
C180 C 0.66327 0.11912 0.24569 0.0
C181 C 0.63966 0.11705 0.24243 0.0
C182 C 0.6252 0.12491 0.25971 0.0
C183 C 0.63421 0.13513 0.27971 0.0
H184 H 0.62008 0.18638 0.32884 0.0
H185 H 0.5993 0.2161 0.3496 0.0
H186 H 0.65861 0.23506 0.39013 0.0
H187 H 0.67915 0.20496 0.36993 0.0
H188 H 0.72047 0.17334 0.36701 0.0
H189 H 0.75666 0.16211 0.38178 0.0
H190 H 0.7611 0.10896 0.3282 0.0
H191 H 0.72505 0.12051 0.31303 0.0
H192 H 0.69056 0.1304 0.26789 0.0
H193 H 0.67474 0.1131 0.23262 0.0
H194 H 0.60694 0.12366 0.2575 0.0
H195 H 0.62264 0.1413 0.2926 0.0
N196 N 0.6554 0.1645 0.31595 0.0
N197 N 0.68506 0.16998 0.34207 0.0
N198 N 0.6883 0.14346 0.31127 0.0
C199 C 0.66417 0.17538 0.33497 0.0
C200 C 0.69721 0.15399 0.33041 0.0
C201 C 0.66739 0.14861 0.30397 0.0
C202 C 0.65132 0.19321 0.34769 0.0
C203 C 0.62868 0.19683 0.34223 0.0
C204 C 0.61678 0.21397 0.35406 0.0
C205 C 0.62725 0.22796 0.37157 0.0
C206 C 0.64986 0.22429 0.37704 0.0
C207 C 0.6617 0.20709 0.36532 0.0
C208 C 0.71971 0.14777 0.33885 0.0
C209 C 0.72914 0.15931 0.35826 0.0
C210 C 0.74987 0.15278 0.36685 0.0
C211 C 0.76171 0.13452 0.35627 0.0
C212 C 0.75252 0.12328 0.33661 0.0
C213 C 0.73176 0.12983 0.32799 0.0
C214 C 0.65785 0.13728 0.28301 0.0
C215 C 0.67227 0.12891 0.2659 0.0
C216 C 0.25427 0.60012 0.1648 0.0
C217 C 0.24076 0.61721 0.15352 0.0
C218 C 0.24751 0.64337 0.15322 0.0
C219 C 0.26783 0.65223 0.16335 0.0
H220 H 0.31841 0.71371 0.15786 0.0
H221 H 0.33867 0.7521 0.13959 0.0
H222 H 0.4027 0.72593 0.16085 0.0
H223 H 0.38223 0.68809 0.18013 0.0
H224 H 0.3795 0.63758 0.21734 0.0
H225 H 0.39628 0.61649 0.25071 0.0
H226 H 0.32908 0.58897 0.27778 0.0
H227 H 0.31217 0.60958 0.24413 0.0
H228 H 0.28463 0.59538 0.18366 0.0
H229 H 0.24932 0.57986 0.16533 0.0
H230 H 0.2374 0.6569 0.14455 0.0
H231 H 0.27287 0.67248 0.16238 0.0
N232 N 0.31525 0.66619 0.17404 0.0
N233 N 0.34579 0.66071 0.19854 0.0
N234 N 0.3134 0.63108 0.201 0.0
C235 C 0.33627 0.67437 0.18133 0.0
C236 C 0.33436 0.6392 0.20862 0.0
C237 C 0.3038 0.64448 0.18362 0.0
C238 C 0.3487 0.69783 0.17041 0.0
C239 C 0.33681 0.71618 0.15867 0.0
C240 C 0.34849 0.73816 0.14804 0.0
C241 C 0.37241 0.74217 0.14853 0.0
C242 C 0.38428 0.72378 0.16039 0.0
C243 C 0.37255 0.70197 0.17135 0.0
C244 C 0.34451 0.62525 0.22813 0.0
C245 C 0.3683 0.62687 0.23031 0.0
C246 C 0.37791 0.61473 0.24931 0.0
C247 C 0.36393 0.6012 0.26675 0.0
C248 C 0.34018 0.59939 0.26455 0.0
C249 C 0.33055 0.61106 0.24526 0.0
C250 C 0.28154 0.63515 0.1744 0.0
C251 C 0.27436 0.60902 0.17538 0.0
C252 C 0.14869 0.25667 0.65819 0.0
C253 C 0.12491 0.2511 0.6604 0.0
C254 C 0.11257 0.26547 0.67511 0.0
C255 C 0.12369 0.28536 0.68677 0.0
H256 H 0.11764 0.33172 0.74254 0.0
H257 H 0.09966 0.35131 0.77443 0.0
H258 H 0.15728 0.4081 0.775 0.0
H259 H 0.17515 0.38886 0.74286 0.0
H260 H 0.20987 0.39344 0.6941 0.0
H261 H 0.24652 0.41084 0.67605 0.0
H262 H 0.26035 0.33565 0.65853 0.0
H263 H 0.22357 0.31825 0.67603 0.0
H264 H 0.17804 0.2805 0.66723 0.0
H265 H 0.15884 0.24564 0.6475 0.0
H266 H 0.09423 0.26185 0.6771 0.0
H267 H 0.11361 0.29641 0.69753 0.0
N268 N 0.14863 0.3254 0.71169 0.0
N269 N 0.18035 0.35569 0.71272 0.0
N270 N 0.18034 0.32309 0.68693 0.0
C271 C 0.1592 0.34633 0.72095 0.0
C272 C 0.19103 0.34409 0.69577 0.0
C273 C 0.15911 0.31369 0.69465 0.0
C274 C 0.14792 0.35863 0.74005 0.0
C275 C 0.12649 0.34844 0.74935 0.0
C276 C 0.11621 0.35959 0.76777 0.0
C277 C 0.12704 0.38124 0.77734 0.0
C278 C 0.14833 0.39161 0.76788 0.0
C279 C 0.15865 0.38045 0.7495 0.0
C280 C 0.21382 0.35449 0.6864 0.0
C281 C 0.22081 0.38061 0.68656 0.0
C282 C 0.24169 0.39058 0.67615 0.0
C283 C 0.25616 0.37454 0.66592 0.0
C284 C 0.24951 0.34836 0.6664 0.0
C285 C 0.22844 0.33847 0.67632 0.0
C286 C 0.14737 0.29144 0.68386 0.0
C287 C 0.15974 0.27663 0.66966 0.0
Zn288 Zn 0.02482 0.99331 0.51564 0.0
Zn289 Zn 0.98491 0.01504 0.49155 0.0
C290 C 0.04499 0.04097 0.52884 0.0
O291 O 0.0616 0.03376 0.51599 0.0
C292 C 0.96067 0.97132 0.47574 0.0
O293 O 0.94477 0.98162 0.4872 0.0
O294 O 0.05054 0.97608 0.52975 0.0
O295 O 0.9954 0.97243 0.52518 0.0
O296 O 0.97733 0.00676 0.52552 0.0
C297 C 0.0514 0.95234 0.53351 0.0
O298 O 0.03435 0.93649 0.52747 0.0
O299 O 0.02635 0.02673 0.53122 0.0
C300 C 0.96045 0.04057 0.4571 0.0
O301 O 0.97655 0.03276 0.44394 0.0
O302 O 0.96061 0.03574 0.47894 0.0
O303 O 0.01476 0.0347 0.48186 0.0
O304 O 0.03281 0.00041 0.48153 0.0
O305 O 0.9809 0.98215 0.47511 0.0
C306 C 0.9792 0.98402 0.53292 0.0
C307 C 0.0308 0.02304 0.47393 0.0
Zn308 Zn 0.52007 0.98571 0.99357 0.0
Zn309 Zn 0.48595 0.0175 0.01304 0.0
C310 C 0.48876 0.95614 0.96737 0.0
O311 O 0.49768 0.93831 0.97994 0.0
C312 C 0.51882 0.04555 0.03988 0.0
O313 O 0.51364 0.06429 0.02567 0.0
O314 O 0.54582 0.967 0.98218 0.0
O315 O 0.53212 0.02251 0.99053 0.0
O316 O 0.49851 0.0347 0.98258 0.0
C317 C 0.55161 0.97239 0.96096 0.0
O318 O 0.54102 0.98941 0.9491 0.0
O319 O 0.49543 0.97926 0.97021 0.0
C320 C 0.44953 0.0271 0.0425 0.0
O321 O 0.45603 0.00648 0.05307 0.0
O322 O 0.4598 0.03594 0.02372 0.0
O323 O 0.47453 0.9803 0.01496 0.0
O324 O 0.50821 0.96954 0.02464 0.0
O325 O 0.5094 0.02326 0.03761 0.0
C326 C 0.52009 0.03805 0.98018 0.0
C327 C 0.48663 0.96525 0.02592 0.0
Zn328 Zn 0.51067 0.47654 0.4871 0.0
Zn329 Zn 0.49 0.51912 0.51685 0.0
C330 C 0.53987 0.51088 0.45615 0.0
O331 O 0.52308 0.50635 0.44193 0.0
C332 C 0.46422 0.48418 0.55029 0.0
O333 O 0.47992 0.49311 0.56428 0.0
O334 O 0.51711 0.4436 0.47377 0.0
O335 O 0.51062 0.47029 0.52196 0.0
O336 O 0.52082 0.51027 0.52777 0.0
C337 C 0.5321 0.43101 0.48322 0.0
O338 O 0.54225 0.43949 0.50168 0.0
O339 O 0.53813 0.50089 0.47679 0.0
C340 C 0.46161 0.55338 0.53598 0.0
O341 O 0.44607 0.53633 0.52887 0.0
O342 O 0.48257 0.55056 0.53256 0.0
O343 O 0.48512 0.5269 0.48285 0.0
O344 O 0.48264 0.48762 0.47159 0.0
O345 O 0.46561 0.49152 0.52885 0.0
C346 C 0.52189 0.48686 0.53328 0.0
C347 C 0.47806 0.51054 0.46875 0.0
Zn348 Zn 0.99146 0.52191 0.98857 0.0
Zn349 Zn 0.00897 0.48113 0.02156 0.0
C350 C 0.9631 0.48973 0.96145 0.0
O351 O 0.97878 0.4988 0.9458 0.0
C352 C 0.03728 0.51437 0.04788 0.0
O353 O 0.02203 0.50522 0.06392 0.0
O354 O 0.98323 0.55294 0.97024 0.0
O355 O 0.99004 0.53101 0.02204 0.0
O356 O 0.98006 0.49197 0.03587 0.0
C357 C 0.9636 0.55905 0.97586 0.0
O358 O 0.952 0.54586 0.99297 0.0
O359 O 0.96517 0.49592 0.98234 0.0
C360 C 0.0374 0.4444 0.03416 0.0
O361 O 0.04879 0.45765 0.01694 0.0
O362 O 0.01777 0.45038 0.03995 0.0
O363 O 0.01007 0.47181 0.98813 0.0
O364 O 0.0204 0.51084 0.97452 0.0
O365 O 0.03501 0.50767 0.02716 0.0
C366 C 0.97953 0.51575 0.03736 0.0
C367 C 0.02083 0.48705 0.97296 0.0
C368 C 0.17036 0.11753 0.32569 0.0
C369 C 0.17209 0.14423 0.32333 0.0
C370 C 0.15735 0.10439 0.34392 0.0
C371 C 0.10762 0.11152 0.38038 0.0
H372 H 0.12529 0.05335 0.41713 0.0
C373 C 0.0496 0.06317 0.45447 0.0
C374 C 0.0481 0.03658 0.45758 0.0
C375 C 0.06599 0.07621 0.43925 0.0
C376 C 0.12 0.06936 0.40681 0.0
H377 H 0.16282 0.17807 0.33923 0.0
H378 H 0.13981 0.15507 0.37078 0.0
H379 H 0.15252 0.07639 0.38895 0.0
H380 H 0.06265 0.00275 0.44726 0.0
H381 H 0.09085 0.02548 0.42001 0.0
H382 H 0.07498 0.10425 0.39746 0.0
C383 C 0.14831 0.14436 0.35834 0.0
C384 C 0.13563 0.08261 0.39079 0.0
C385 C 0.16144 0.1575 0.34025 0.0
C386 C 0.06342 0.02327 0.44522 0.0
C387 C 0.07969 0.03632 0.42974 0.0
C388 C 0.09195 0.09817 0.39616 0.0
C389 C 0.14571 0.11769 0.36003 0.0
C390 C 0.12959 0.10387 0.37751 0.0
C391 C 0.08111 0.06297 0.42652 0.0
C392 C 0.09794 0.07698 0.40965 0.0
H393 H 0.17813 0.1067 0.31284 0.0
H394 H 0.15551 0.08382 0.34474 0.0
H395 H 0.10235 0.12753 0.37002 0.0
H396 H 0.03825 0.07402 0.464 0.0
H397 H 0.06689 0.09675 0.43763 0.0
C398 C 0.37551 0.91099 0.79635 0.0
C399 C 0.36969 0.88491 0.79408 0.0
C400 C 0.38597 0.91951 0.8164 0.0
C401 C 0.42124 0.89655 0.86336 0.0
H402 H 0.40826 0.9578 0.89271 0.0
C403 C 0.46357 0.92365 0.94797 0.0
C404 C 0.47217 0.94915 0.94944 0.0
C405 C 0.4492 0.91651 0.93011 0.0
C406 C 0.41218 0.94077 0.88457 0.0
H407 H 0.3689 0.8475 0.8116 0.0
H408 H 0.38699 0.86231 0.84653 0.0
H409 H 0.38615 0.94406 0.85949 0.0
H410 H 0.47181 0.98732 0.93376 0.0
H411 H 0.44689 0.97475 0.90228 0.0
H412 H 0.44739 0.89331 0.88805 0.0
C413 C 0.384 0.87615 0.83264 0.0
C414 C 0.39952 0.9329 0.86557 0.0
C415 C 0.37361 0.86766 0.81265 0.0
C416 C 0.46547 0.9675 0.93308 0.0
C417 C 0.45111 0.96032 0.91511 0.0
C418 C 0.43386 0.9044 0.88224 0.0
C419 C 0.39077 0.90209 0.83454 0.0
C420 C 0.40387 0.91063 0.85483 0.0
C421 C 0.44314 0.93466 0.91321 0.0
C422 C 0.42945 0.92653 0.89315 0.0
H423 H 0.37284 0.92472 0.78226 0.0
H424 H 0.39112 0.9396 0.81727 0.0
H425 H 0.42539 0.87964 0.85515 0.0
H426 H 0.46818 0.90907 0.96046 0.0
H427 H 0.44297 0.89666 0.92944 0.0
C428 C 0.63936 0.42832 0.69896 0.0
C429 C 0.62897 0.40688 0.71212 0.0
C430 C 0.62863 0.43848 0.67961 0.0
C431 C 0.58923 0.42006 0.6348 0.0
H432 H 0.57742 0.49078 0.6278 0.0
C433 C 0.53025 0.45433 0.56421 0.0
C434 C 0.53493 0.47886 0.5536 0.0
C435 C 0.54247 0.44654 0.58336 0.0
C436 C 0.58092 0.47108 0.62921 0.0
H437 H 0.5985 0.38022 0.7156 0.0
H438 H 0.58047 0.39729 0.6814 0.0
H439 H 0.59796 0.47576 0.66144 0.0
H440 H 0.55618 0.51446 0.55463 0.0
H441 H 0.57818 0.50058 0.58754 0.0
H442 H 0.57292 0.41521 0.6025 0.0
C443 C 0.59695 0.40609 0.68608 0.0
C444 C 0.5926 0.46251 0.64856 0.0
C445 C 0.60742 0.39623 0.7056 0.0
C446 C 0.55212 0.49546 0.56254 0.0
C447 C 0.56464 0.48752 0.58151 0.0
C448 C 0.57794 0.42867 0.6153 0.0
C449 C 0.60751 0.42717 0.67281 0.0
C450 C 0.59652 0.43683 0.65168 0.0
C451 C 0.56 0.46291 0.59218 0.0
C452 C 0.57324 0.45421 0.6124 0.0
H453 H 0.65602 0.43692 0.70323 0.0
H454 H 0.63714 0.45473 0.66956 0.0
H455 H 0.59234 0.40023 0.63667 0.0
H456 H 0.51691 0.44118 0.5579 0.0
H457 H 0.53792 0.4277 0.59138 0.0
C458 C 0.89955 0.62577 0.19728 0.0
C459 C 0.88964 0.61018 0.21612 0.0
C460 C 0.90887 0.61513 0.17803 0.0
C461 C 0.93119 0.55638 0.15923 0.0
H462 H 0.92086 0.58508 0.09742 0.0
C463 C 0.95825 0.50947 0.07591 0.0
C464 C 0.96819 0.52584 0.05761 0.0
C465 C 0.94812 0.51926 0.09522 0.0
C466 C 0.92411 0.57698 0.11456 0.0
H467 H 0.88218 0.5711 0.22959 0.0
H468 H 0.89812 0.55254 0.19587 0.0
H469 H 0.90461 0.6032 0.13118 0.0
H470 H 0.97511 0.56537 0.04524 0.0
H471 H 0.95769 0.58235 0.07887 0.0
H472 H 0.95077 0.53021 0.14259 0.0
C473 C 0.89882 0.57303 0.19606 0.0
C474 C 0.9148 0.58739 0.13393 0.0
C475 C 0.88945 0.58367 0.21529 0.0
C476 C 0.96759 0.55218 0.05899 0.0
C477 C 0.95746 0.56194 0.07824 0.0
C478 C 0.94052 0.54596 0.13984 0.0
C479 C 0.90857 0.58862 0.17714 0.0
C480 C 0.9183 0.5773 0.15652 0.0
C481 C 0.94764 0.54563 0.09664 0.0
C482 C 0.93718 0.55621 0.11727 0.0
H483 H 0.89979 0.64624 0.19723 0.0
H484 H 0.91648 0.62772 0.1639 0.0
H485 H 0.93448 0.54834 0.17638 0.0
H486 H 0.95839 0.48908 0.07541 0.0
H487 H 0.94049 0.50614 0.10896 0.0
C488 C 0.31697 0.15827 0.13507 0.0
C489 C 0.3035 0.14503 0.15313 0.0
C490 C 0.33232 0.14586 0.1221 0.0
C491 C 0.34478 0.08152 0.10696 0.0
H492 H 0.40413 0.11545 0.08827 0.0
C493 C 0.41831 0.02886 0.07218 0.0
C494 C 0.43137 0.04042 0.05308 0.0
C495 C 0.40191 0.04178 0.08304 0.0
C496 C 0.38751 0.10586 0.09312 0.0
H497 H 0.29572 0.10832 0.17173 0.0
H498 H 0.32302 0.08693 0.14971 0.0
H499 H 0.3775 0.13782 0.11045 0.0
H500 H 0.43728 0.07449 0.03017 0.0
H501 H 0.40861 0.09716 0.0493 0.0
H502 H 0.35504 0.04938 0.09003 0.0
C503 C 0.32142 0.10681 0.14525 0.0
C504 C 0.37223 0.11866 0.10582 0.0
C505 C 0.30599 0.11918 0.15813 0.0
C506 C 0.42747 0.06507 0.04484 0.0
C507 C 0.41117 0.0781 0.05586 0.0
C508 C 0.3601 0.06868 0.09441 0.0
C509 C 0.33465 0.11994 0.12697 0.0
C510 C 0.35073 0.10658 0.11301 0.0
C511 C 0.39833 0.06663 0.07515 0.0
C512 C 0.38167 0.08067 0.08748 0.0
H513 H 0.31568 0.17827 0.13093 0.0
H514 H 0.3421 0.1565 0.10803 0.0
H515 H 0.32819 0.07183 0.11179 0.0
H516 H 0.42089 0.00987 0.07893 0.0
H517 H 0.39241 0.03256 0.09801 0.0
C518 C 0.22548 0.9054 0.63186 0.0
C519 C 0.22949 0.8797 0.63456 0.0
C520 C 0.20558 0.91243 0.62164 0.0
C521 C 0.15964 0.88908 0.58338 0.0
H522 H 0.12901 0.94425 0.60703 0.0
C523 C 0.0731 0.91681 0.54921 0.0
C524 C 0.07132 0.94297 0.54523 0.0
C525 C 0.09188 0.90825 0.56061 0.0
C526 C 0.13747 0.92892 0.60012 0.0
H527 H 0.21548 0.84117 0.62925 0.0
H528 H 0.18068 0.85341 0.6116 0.0
H529 H 0.16265 0.93093 0.62624 0.0
H530 H 0.08795 0.98062 0.55001 0.0
H531 H 0.12058 0.96568 0.56971 0.0
H532 H 0.13439 0.88713 0.55725 0.0
C533 C 0.19312 0.86819 0.61693 0.0
C534 C 0.15677 0.92132 0.6111 0.0
C535 C 0.21305 0.86117 0.62706 0.0
C536 C 0.08873 0.96033 0.55283 0.0
C537 C 0.10738 0.95178 0.56428 0.0
C538 C 0.14027 0.89664 0.57244 0.0
C539 C 0.18919 0.89391 0.61399 0.0
C540 C 0.16821 0.90145 0.60275 0.0
C541 C 0.10916 0.92567 0.56836 0.0
C542 C 0.1291 0.9168 0.58057 0.0
H543 H 0.23796 0.92013 0.6372 0.0
H544 H 0.20327 0.93244 0.61932 0.0
H545 H 0.1682 0.87393 0.5763 0.0
H546 H 0.05998 0.90295 0.5436 0.0
H547 H 0.09271 0.888 0.56366 0.0
C548 C 0.77932 0.41929 0.88011 0.0
C549 C 0.78085 0.40126 0.8634 0.0
C550 C 0.79852 0.4277 0.8924 0.0
C551 C 0.85701 0.41067 0.90644 0.0
H552 H 0.86519 0.47994 0.92532 0.0
C553 C 0.94256 0.46197 0.93365 0.0
C554 C 0.94212 0.47536 0.95396 0.0
C555 C 0.92236 0.45091 0.9248 0.0
C556 C 0.86296 0.46046 0.92037 0.0
H557 H 0.8036 0.37849 0.84578 0.0
H558 H 0.83735 0.39398 0.86626 0.0
H559 H 0.83127 0.46573 0.90445 0.0
H560 H 0.92032 0.48731 0.98119 0.0
H561 H 0.88482 0.46843 0.96529 0.0
H562 H 0.8894 0.40601 0.92146 0.0
C563 C 0.82126 0.40099 0.87069 0.0
C564 C 0.84349 0.45224 0.90845 0.0
C565 C 0.80198 0.39226 0.85875 0.0
C566 C 0.92116 0.47691 0.96561 0.0
C567 C 0.90088 0.4663 0.95646 0.0
C568 C 0.87667 0.41907 0.91796 0.0
C569 C 0.81977 0.41858 0.88794 0.0
C570 C 0.84027 0.42725 0.90118 0.0
C571 C 0.9013 0.45348 0.93582 0.0
C572 C 0.87985 0.44405 0.92495 0.0
H573 H 0.76312 0.42629 0.88417 0.0
H574 H 0.79651 0.44092 0.90575 0.0
H575 H 0.85497 0.39113 0.90171 0.0
H576 H 0.95849 0.4605 0.92434 0.0
H577 H 0.92312 0.44122 0.9088 0.0
C578 C 0.7103 0.62274 0.35671 0.0
C579 C 0.73048 0.61164 0.36162 0.0
C580 C 0.68957 0.6126 0.36726 0.0
C581 C 0.66486 0.57703 0.41897 0.0
H582 H 0.61299 0.55925 0.38104 0.0
C583 C 0.58212 0.52135 0.45777 0.0
C584 C 0.56135 0.52532 0.44737 0.0
C585 C 0.60268 0.53301 0.44793 0.0
C586 C 0.62709 0.56456 0.39203 0.0
H587 H 0.74496 0.58153 0.38156 0.0
H588 H 0.70869 0.5641 0.4005 0.0
H589 H 0.64886 0.57748 0.36257 0.0
H590 H 0.54568 0.5456 0.41928 0.0
H591 H 0.58128 0.56698 0.40282 0.0
H592 H 0.64312 0.56498 0.44851 0.0
C593 C 0.70893 0.58048 0.3883 0.0
C594 C 0.64771 0.57483 0.38135 0.0
C595 C 0.72959 0.59031 0.37738 0.0
C596 C 0.56146 0.54198 0.42753 0.0
C597 C 0.58196 0.55405 0.41797 0.0
C598 C 0.64411 0.5672 0.42972 0.0
C599 C 0.68874 0.5915 0.38329 0.0
C600 C 0.66681 0.58099 0.3947 0.0
C601 C 0.60294 0.54932 0.42771 0.0
C602 C 0.62493 0.56065 0.4164 0.0
H603 H 0.71055 0.63916 0.34456 0.0
H604 H 0.67423 0.62148 0.36318 0.0
H605 H 0.67932 0.58189 0.42966 0.0
H606 H 0.58257 0.50842 0.47298 0.0
H607 H 0.61839 0.52852 0.45582 0.0
C608 C 0.15956 0.30522 0.1351 0.0
C609 C 0.15027 0.28879 0.15365 0.0
C610 C 0.14578 0.32056 0.12234 0.0
C611 C 0.0924 0.35039 0.12493 0.0
H612 H 0.09875 0.35392 0.0577 0.0
C613 C 0.03656 0.40987 0.06604 0.0
C614 C 0.04809 0.4241 0.04727 0.0
C615 C 0.04738 0.39154 0.07892 0.0
C616 C 0.09689 0.35332 0.07646 0.0
H617 H 0.11912 0.27574 0.17338 0.0
H618 H 0.09516 0.30298 0.15131 0.0
H619 H 0.1212 0.32605 0.08079 0.0
H620 H 0.07994 0.43011 0.02719 0.0
H621 H 0.09881 0.39868 0.04975 0.0
H622 H 0.06853 0.37818 0.12064 0.0
C623 C 0.11316 0.30395 0.14674 0.0
C624 C 0.10974 0.33734 0.08966 0.0
C625 C 0.12692 0.28843 0.15941 0.0
C626 C 0.0705 0.41941 0.04148 0.0
C627 C 0.0813 0.40123 0.05434 0.0
C628 C 0.07965 0.36656 0.11171 0.0
C629 C 0.12242 0.31996 0.12794 0.0
C630 C 0.10785 0.33597 0.11403 0.0
C631 C 0.06994 0.38712 0.07327 0.0
C632 C 0.082 0.36847 0.08732 0.0
H633 H 0.17755 0.30637 0.13048 0.0
H634 H 0.15345 0.33307 0.10818 0.0
H635 H 0.09073 0.3498 0.14371 0.0
H636 H 0.01925 0.41303 0.07091 0.0
H637 H 0.03807 0.3808 0.09325 0.0
C638 C 0.63508 0.21381 0.87294 0.0
C639 C 0.62304 0.23357 0.86375 0.0
C640 C 0.62355 0.1925 0.88486 0.0
C641 C 0.56694 0.15639 0.89362 0.0
H642 H 0.59265 0.13087 0.95063 0.0
C643 C 0.51849 0.07897 0.95626 0.0
C644 C 0.5313 0.0603 0.96622 0.0
C645 C 0.52931 0.10011 0.94338 0.0
C646 C 0.58536 0.13756 0.9346 0.0
H647 H 0.58939 0.24632 0.85984 0.0
H648 H 0.56927 0.20904 0.88059 0.0
H649 H 0.61227 0.16745 0.92857 0.0
H650 H 0.56549 0.04902 0.97014 0.0
H651 H 0.58424 0.08563 0.94754 0.0
H652 H 0.54004 0.12641 0.89968 0.0
C653 C 0.58762 0.20994 0.87834 0.0
C654 C 0.59662 0.15853 0.92196 0.0
C655 C 0.59915 0.23129 0.86643 0.0
C656 C 0.55511 0.06313 0.96285 0.0
C657 C 0.56589 0.0842 0.94999 0.0
C658 C 0.55568 0.13535 0.90627 0.0
C659 C 0.59971 0.19041 0.88787 0.0
C660 C 0.58759 0.16814 0.90128 0.0
C661 C 0.55315 0.10302 0.94019 0.0
C662 C 0.56482 0.12564 0.92687 0.0
H663 H 0.65344 0.21476 0.87083 0.0
H664 H 0.63333 0.17756 0.89164 0.0
H665 H 0.55968 0.16317 0.87762 0.0
H666 H 0.50012 0.07738 0.95857 0.0
H667 H 0.51902 0.1144 0.93627 0.0
C668 C 0.91425 0.78135 0.36433 0.0
C669 C 0.89044 0.77619 0.36319 0.0
C670 C 0.92372 0.80214 0.37604 0.0
C671 C 0.90961 0.84259 0.42272 0.0
H672 H 0.95886 0.8905 0.39697 0.0
C673 C 0.93173 0.93808 0.46254 0.0
C674 C 0.95464 0.94804 0.46325 0.0
C675 C 0.92558 0.91647 0.45053 0.0
C676 C 0.94535 0.87707 0.40459 0.0
H677 H 0.85805 0.78984 0.37233 0.0
H678 H 0.87453 0.82558 0.393 0.0
H679 H 0.94516 0.8541 0.37508 0.0
H680 H 0.98913 0.94298 0.45192 0.0
H681 H 0.97839 0.90478 0.43118 0.0
H682 H 0.90974 0.86515 0.45223 0.0
C683 C 0.88585 0.81333 0.38519 0.0
C684 C 0.93748 0.85628 0.392 0.0
C685 C 0.87642 0.79278 0.37337 0.0
C686 C 0.97132 0.93578 0.45168 0.0
C687 C 0.96515 0.91398 0.43969 0.0
C688 C 0.91757 0.86316 0.43535 0.0
C689 C 0.90957 0.81804 0.38697 0.0
C690 C 0.91922 0.83912 0.40077 0.0
C691 C 0.94217 0.90404 0.43901 0.0
C692 C 0.93522 0.88098 0.42627 0.0
H693 H 0.92556 0.7689 0.35683 0.0
H694 H 0.94207 0.80529 0.37719 0.0
H695 H 0.89583 0.82937 0.43015 0.0
H696 H 0.91839 0.94711 0.47109 0.0
H697 H 0.90768 0.90975 0.45 0.0
C698 C 0.40234 0.74761 0.61583 0.0
C699 C 0.38619 0.74252 0.6342 0.0
C700 C 0.41192 0.72766 0.60559 0.0
C701 C 0.39903 0.66305 0.59168 0.0
H702 H 0.46394 0.65634 0.59057 0.0
C703 C 0.43334 0.57313 0.55997 0.0
C704 C 0.45449 0.57524 0.54803 0.0
C705 C 0.42599 0.59382 0.57088 0.0
C706 C 0.44581 0.65811 0.59032 0.0
H707 H 0.36723 0.71293 0.65623 0.0
H708 H 0.38345 0.67795 0.63775 0.0
H709 H 0.44939 0.69258 0.60834 0.0
H710 H 0.48464 0.60052 0.53814 0.0
H711 H 0.47137 0.63719 0.55621 0.0
H712 H 0.39519 0.62948 0.57293 0.0
C713 C 0.38893 0.69734 0.6316 0.0
C714 C 0.43753 0.67879 0.60064 0.0
C715 C 0.37975 0.71726 0.64217 0.0
C716 C 0.46828 0.59839 0.54734 0.0
C717 C 0.46069 0.61934 0.55784 0.0
C718 C 0.4073 0.64273 0.58093 0.0
C719 C 0.40505 0.70239 0.61323 0.0
C720 C 0.41406 0.6812 0.60163 0.0
C721 C 0.43934 0.61738 0.56964 0.0
C722 C 0.43078 0.63972 0.58038 0.0
H723 H 0.40757 0.76699 0.60948 0.0
H724 H 0.42427 0.73191 0.59136 0.0
H725 H 0.38087 0.66477 0.59201 0.0
H726 H 0.4225 0.55537 0.56106 0.0
H727 H 0.4098 0.5912 0.58036 0.0
C728 C 0.83902 0.88997 0.68185 0.0
C729 C 0.83933 0.8635 0.68515 0.0
C730 C 0.85172 0.90355 0.66366 0.0
C731 C 0.88396 0.89603 0.60859 0.0
H732 H 0.91698 0.95955 0.62377 0.0
C733 C 0.96128 0.94439 0.55434 0.0
C734 C 0.96198 0.97077 0.54955 0.0
C735 C 0.94474 0.93179 0.56973 0.0
C736 C 0.90767 0.94199 0.6192 0.0
H737 H 0.85232 0.83043 0.67111 0.0
H738 H 0.87509 0.85414 0.63998 0.0
H739 H 0.89035 0.93666 0.65231 0.0
H740 H 0.9459 0.00463 0.55715 0.0
H741 H 0.91719 0.9826 0.58427 0.0
H742 H 0.90196 0.90112 0.5757 0.0
C743 C 0.86482 0.86444 0.65125 0.0
C744 C 0.89232 0.9289 0.6355 0.0
C745 C 0.85199 0.85085 0.66932 0.0
C746 C 0.94584 0.98429 0.56051 0.0
C747 C 0.92945 0.97172 0.57608 0.0
C748 C 0.89947 0.90903 0.59237 0.0
C749 C 0.86516 0.89101 0.64843 0.0
C750 C 0.88039 0.90565 0.63047 0.0
C751 C 0.92872 0.94535 0.5808 0.0
C752 C 0.91159 0.93204 0.59759 0.0
H753 H 0.82962 0.90038 0.6938 0.0
H754 H 0.85127 0.92394 0.66177 0.0
H755 H 0.87479 0.87841 0.60399 0.0
H756 H 0.97343 0.93341 0.54611 0.0
H757 H 0.94471 0.91148 0.57325 0.0
C758 C 0.61186 0.08825 0.22169 0.0
C759 C 0.6301 0.10742 0.22078 0.0
C760 C 0.60216 0.08 0.20123 0.0
C761 C 0.59138 0.10243 0.14258 0.0
H762 H 0.5808 0.03131 0.12973 0.0
C763 C 0.54978 0.07269 0.05788 0.0
C764 C 0.53441 0.0507 0.05907 0.0
C765 C 0.56357 0.07846 0.0766 0.0
C766 C 0.58332 0.05124 0.13315 0.0
H767 H 0.65259 0.13296 0.19794 0.0
H768 H 0.63522 0.11892 0.16208 0.0
H769 H 0.60058 0.04339 0.16475 0.0
H770 H 0.52157 0.01728 0.08061 0.0
H771 H 0.54483 0.02781 0.11368 0.0
H772 H 0.57328 0.11048 0.11184 0.0
C773 C 0.62865 0.11013 0.17862 0.0
C774 C 0.59478 0.05811 0.15315 0.0
C775 C 0.63862 0.11804 0.19906 0.0
C776 C 0.53338 0.0343 0.07917 0.0
C777 C 0.54686 0.04031 0.09809 0.0
C778 C 0.57957 0.09558 0.12283 0.0
C779 C 0.61026 0.09114 0.17955 0.0
C780 C 0.59887 0.08376 0.15803 0.0
C781 C 0.56198 0.06262 0.09717 0.0
C782 C 0.57532 0.06987 0.11784 0.0
H783 H 0.60507 0.07972 0.23825 0.0
H784 H 0.5879 0.06545 0.20237 0.0
H785 H 0.59408 0.12233 0.14614 0.0
H786 H 0.55112 0.08552 0.04247 0.0
H787 H 0.57539 0.09545 0.07494 0.0
C788 C 0.39133 0.57341 0.28522 0.0
C789 C 0.37418 0.58976 0.28755 0.0
C790 C 0.40159 0.56337 0.30486 0.0
C791 C 0.39521 0.55525 0.36979 0.0
H792 H 0.45925 0.54458 0.36505 0.0
C793 C 0.45312 0.54006 0.44858 0.0
C794 C 0.4652 0.51846 0.44829 0.0
C795 C 0.44117 0.54771 0.42913 0.0
C796 C 0.44133 0.54735 0.36654 0.0
H797 H 0.35436 0.60867 0.31205 0.0
H798 H 0.37287 0.59221 0.34631 0.0
H799 H 0.44014 0.56023 0.33087 0.0
H800 H 0.4744 0.48806 0.42739 0.0
H801 H 0.45406 0.50198 0.39313 0.0
H802 H 0.39696 0.54338 0.40588 0.0
C803 C 0.37796 0.58625 0.32949 0.0
C804 C 0.43026 0.55615 0.34693 0.0
C805 C 0.36739 0.59585 0.30985 0.0
C806 C 0.46517 0.50472 0.42815 0.0
C807 C 0.45364 0.51271 0.40854 0.0
C808 C 0.40643 0.54694 0.38951 0.0
C809 C 0.39528 0.56991 0.3273 0.0
C810 C 0.40701 0.56019 0.34822 0.0
C811 C 0.44151 0.53423 0.40889 0.0
C812 C 0.42956 0.54287 0.38802 0.0
H813 H 0.3967 0.56828 0.26817 0.0
H814 H 0.41442 0.55041 0.30238 0.0
H815 H 0.37723 0.55757 0.37149 0.0
H816 H 0.45277 0.55095 0.46389 0.0
H817 H 0.43202 0.56444 0.42974 0.0
C818 C 0.11709 0.41928 0.79829 0.0
C819 C 0.11635 0.39275 0.79732 0.0
C820 C 0.10724 0.43003 0.81721 0.0
C821 C 0.08853 0.41551 0.87862 0.0
H822 H 0.05361 0.47337 0.8686 0.0
C823 C 0.03305 0.45064 0.95147 0.0
C824 C 0.03264 0.47699 0.95299 0.0
C825 C 0.04383 0.44095 0.93256 0.0
C826 C 0.06356 0.45742 0.87174 0.0
H827 H 0.10481 0.35675 0.81568 0.0
H828 H 0.08733 0.37547 0.84844 0.0
H829 H 0.0712 0.45536 0.83544 0.0
H830 H 0.04339 0.51382 0.93577 0.0
H831 H 0.06241 0.49689 0.90283 0.0
H832 H 0.08089 0.41751 0.91488 0.0
C833 C 0.0957 0.38799 0.83466 0.0
C834 C 0.07363 0.44708 0.85272 0.0
C835 C 0.10549 0.37724 0.81573 0.0
C836 C 0.04336 0.49343 0.93514 0.0
C837 C 0.05414 0.48371 0.91618 0.0
C838 C 0.07849 0.42586 0.89763 0.0
C839 C 0.09648 0.41452 0.83566 0.0
C840 C 0.08613 0.4259 0.85591 0.0
C841 C 0.05449 0.45734 0.91465 0.0
C842 C 0.06576 0.44685 0.89443 0.0
H843 H 0.12513 0.43178 0.78431 0.0
H844 H 0.10832 0.45053 0.81751 0.0
H845 H 0.09839 0.39949 0.88176 0.0
H846 H 0.02494 0.4374 0.96487 0.0
H847 H 0.04347 0.42054 0.93181 0.0
C848 C 0.68529 0.87208 0.83968 0.0
C849 C 0.70117 0.85805 0.85123 0.0
C850 C 0.66951 0.88427 0.85227 0.0
C851 C 0.64006 0.88351 0.90899 0.0
H852 H 0.63173 0.95347 0.89051 0.0
C853 C 0.58272 0.94318 0.96216 0.0
C854 C 0.56942 0.95938 0.94941 0.0
C855 C 0.59943 0.93089 0.95091 0.0
C856 C 0.63363 0.93385 0.89575 0.0
H857 H 0.71284 0.84592 0.88517 0.0
H858 H 0.68491 0.86677 0.90708 0.0
H859 H 0.65915 0.93141 0.86921 0.0
H860 H 0.56302 0.97515 0.91486 0.0
H861 H 0.59161 0.95337 0.89529 0.0
H862 H 0.61421 0.88572 0.93524 0.0
C863 C 0.68469 0.8682 0.88827 0.0
C864 C 0.64937 0.92125 0.88356 0.0
C865 C 0.70063 0.85619 0.87569 0.0
C866 C 0.5731 0.96296 0.92524 0.0
C867 C 0.58963 0.95057 0.91401 0.0
C868 C 0.62413 0.89605 0.92109 0.0
C869 C 0.66911 0.88252 0.87668 0.0
C870 C 0.65266 0.89592 0.88996 0.0
C871 C 0.60306 0.93445 0.92669 0.0
C872 C 0.62062 0.92133 0.91451 0.0
H873 H 0.68493 0.87354 0.82089 0.0
H874 H 0.65745 0.89489 0.8429 0.0
H875 H 0.64215 0.86391 0.91418 0.0
H876 H 0.58032 0.9401 0.98082 0.0
H877 H 0.60965 0.91884 0.96124 0.0
C878 C 0.78543 0.12337 0.39024 0.0
C879 C 0.78327 0.12684 0.36606 0.0
C880 C 0.80553 0.11579 0.39954 0.0
C881 C 0.85603 0.08358 0.38468 0.0
H882 H 0.88019 0.11289 0.44019 0.0
C883 C 0.94124 0.058 0.42223 0.0
C884 C 0.94162 0.05325 0.44645 0.0
C885 C 0.92284 0.06865 0.412 0.0
C886 C 0.87355 0.10438 0.42479 0.0
H887 H 0.80072 0.12547 0.33271 0.0
H888 H 0.83584 0.11215 0.34897 0.0
H889 H 0.84632 0.12831 0.42297 0.0
H890 H 0.92315 0.0564 0.47896 0.0
H891 H 0.89096 0.07476 0.46109 0.0
H892 H 0.88308 0.05945 0.38662 0.0
C893 C 0.82184 0.11502 0.36071 0.0
C894 C 0.85415 0.11321 0.41493 0.0
C895 C 0.80173 0.12263 0.35139 0.0
C896 C 0.92341 0.05987 0.46026 0.0
C897 C 0.90501 0.07051 0.45002 0.0
C898 C 0.87541 0.07474 0.39455 0.0
C899 C 0.82395 0.11146 0.38489 0.0
C900 C 0.84508 0.10279 0.39485 0.0
C901 C 0.9044 0.07479 0.42575 0.0
C902 C 0.88431 0.08492 0.4148 0.0
H903 H 0.7714 0.12601 0.40201 0.0
H904 H 0.80645 0.11279 0.41822 0.0
H905 H 0.84928 0.07489 0.36941 0.0
H906 H 0.95504 0.05324 0.4111 0.0
H907 H 0.92306 0.07205 0.39329 0.0
C908 C 0.19913 0.61731 0.14595 0.0
C909 C 0.22007 0.60781 0.14138 0.0
C910 C 0.17969 0.60866 0.13419 0.0
C911 C 0.157 0.55625 0.09789 0.0
H912 H 0.11018 0.60136 0.08503 0.0
C913 C 0.07886 0.5287 0.04259 0.0
C914 C 0.05805 0.52964 0.05471 0.0
C915 C 0.09908 0.54022 0.05112 0.0
C916 C 0.12318 0.58863 0.08848 0.0
H917 H 0.23737 0.58238 0.12065 0.0
H918 H 0.20379 0.56803 0.09936 0.0
H919 H 0.14489 0.61729 0.10384 0.0
H920 H 0.04181 0.54444 0.08445 0.0
H921 H 0.07707 0.56529 0.0989 0.0
H922 H 0.13532 0.52782 0.08193 0.0
C923 C 0.20199 0.58143 0.11259 0.0
C924 C 0.143 0.59762 0.09947 0.0
C925 C 0.22131 0.58971 0.1247 0.0
C926 C 0.05764 0.5434 0.0748 0.0
C927 C 0.07776 0.55538 0.08302 0.0
C928 C 0.13739 0.54744 0.0865 0.0
C929 C 0.18084 0.59069 0.11722 0.0
C930 C 0.16009 0.58146 0.10462 0.0
C931 C 0.09872 0.55336 0.07158 0.0
C932 C 0.12021 0.56346 0.08194 0.0
H933 H 0.19775 0.63118 0.15887 0.0
H934 H 0.1637 0.61588 0.13868 0.0
H935 H 0.16943 0.54301 0.10191 0.0
H936 H 0.07967 0.51807 0.02715 0.0
H937 H 0.11506 0.53851 0.04198 0.0
C938 C 0.2778 0.4045 0.63638 0.0
C939 C 0.2778 0.38515 0.65403 0.0
C940 C 0.29804 0.41388 0.62445 0.0
C941 C 0.35813 0.39905 0.61376 0.0
H942 H 0.36607 0.4697 0.59087 0.0
C943 C 0.44403 0.45538 0.58173 0.0
C944 C 0.44356 0.46887 0.56006 0.0
C945 C 0.42395 0.44321 0.59219 0.0
C946 C 0.36398 0.44988 0.59704 0.0
H947 H 0.29885 0.36067 0.67345 0.0
H948 H 0.33444 0.37786 0.65355 0.0
H949 H 0.33111 0.45325 0.61209 0.0
H950 H 0.4218 0.47982 0.53213 0.0
H951 H 0.38662 0.45911 0.55078 0.0
H952 H 0.3917 0.39633 0.59948 0.0
C953 C 0.31879 0.38527 0.64819 0.0
C954 C 0.34387 0.44034 0.60911 0.0
C955 C 0.29844 0.37553 0.65978 0.0
C956 C 0.42272 0.46943 0.54878 0.0
C957 C 0.40259 0.45775 0.55948 0.0
C958 C 0.37845 0.40878 0.6021 0.0
C959 C 0.31889 0.40449 0.63022 0.0
C960 C 0.34055 0.41472 0.61756 0.0
C961 C 0.403 0.4448 0.58139 0.0
C962 C 0.38147 0.43424 0.59352 0.0
H963 H 0.26202 0.41197 0.63144 0.0
H964 H 0.29718 0.42821 0.61042 0.0
H965 H 0.35616 0.37913 0.61952 0.0
H966 H 0.45986 0.45462 0.5908 0.0
H967 H 0.42466 0.4334 0.60914 0.0
C968 C 0.87586 0.71362 0.8477 0.0
C969 C 0.85232 0.71298 0.85264 0.0
C970 C 0.88932 0.69815 0.86079 0.0
C971 C 0.8913 0.6648 0.91795 0.0
H972 H 0.93389 0.62447 0.8884 0.0
C973 C 0.93049 0.58377 0.96781 0.0
C974 C 0.95305 0.57928 0.9625 0.0
C975 C 0.91977 0.60174 0.95457 0.0
C976 C 0.92238 0.63596 0.89694 0.0
H977 H 0.82443 0.69495 0.87479 0.0
H978 H 0.84803 0.66834 0.89786 0.0
H979 H 0.91197 0.6524 0.86453 0.0
H980 H 0.98229 0.59051 0.93943 0.0
H981 H 0.96364 0.6224 0.91648 0.0
H982 H 0.90166 0.64861 0.95033 0.0
C983 C 0.85604 0.68102 0.88399 0.0
C984 C 0.90978 0.65185 0.88326 0.0
C985 C 0.84255 0.6963 0.8708 0.0
C986 C 0.96486 0.59352 0.94391 0.0
C987 C 0.95413 0.61166 0.93068 0.0
C988 C 0.90401 0.64912 0.93162 0.0
C989 C 0.87957 0.68192 0.87921 0.0
C990 C 0.89385 0.66609 0.89364 0.0
C991 C 0.93139 0.61583 0.93579 0.0
C992 C 0.91942 0.63416 0.92128 0.0
H993 H 0.88403 0.72652 0.83409 0.0
H994 H 0.90746 0.69935 0.85687 0.0
H995 H 0.87944 0.67596 0.92641 0.0
H996 H 0.92084 0.57305 0.98194 0.0
H997 H 0.90213 0.6041 0.95875 0.0
C998 C 0.37692 0.77574 0.11557 0.0
C999 C 0.38487 0.76529 0.13651 0.0
C1000 C 0.38831 0.7976 0.10444 0.0
C1001 C 0.44363 0.83413 0.09693 0.0
H1002 H 0.40906 0.89031 0.0786 0.0
C1003 C 0.48734 0.92949 0.05625 0.0
C1004 C 0.47561 0.9424 0.03907 0.0
C1005 C 0.47662 0.90813 0.0689 0.0
C1006 C 0.41897 0.87469 0.08324 0.0
H1007 H 0.41123 0.76996 0.16206 0.0
H1008 H 0.43154 0.80763 0.14204 0.0
H1009 H 0.38978 0.85232 0.09884 0.0
H1010 H 0.44368 0.94273 0.02122 0.0
H1011 H 0.42531 0.90507 0.0425 0.0
H1012 H 0.47269 0.85595 0.08067 0.0
C1013 C 0.41637 0.7988 0.13443 0.0
C1014 C 0.4079 0.853 0.09496 0.0
C1015 C 0.40476 0.77714 0.1458 0.0
C1016 C 0.45308 0.93335 0.03455 0.0
C1017 C 0.44249 0.91181 0.0469 0.0
C1018 C 0.45468 0.85568 0.08486 0.0
C1019 C 0.40814 0.80931 0.11375 0.0
C1020 C 0.4201 0.8325 0.10185 0.0
C1021 C 0.45402 0.899 0.06439 0.0
C1022 C 0.44247 0.87623 0.07775 0.0
H1023 H 0.36201 0.76689 0.10754 0.0
H1024 H 0.3818 0.80516 0.08833 0.0
H1025 H 0.45337 0.81846 0.1019 0.0
H1026 H 0.50469 0.93613 0.0602 0.0
H1027 H 0.48596 0.89904 0.08244 0.0
C1028 C 0.12048 0.22755 0.62396 0.0
C1029 C 0.11314 0.23085 0.64687 0.0
C1030 C 0.10992 0.20833 0.61126 0.0
C1031 C 0.07418 0.14686 0.61834 0.0
H1032 H 0.06912 0.15762 0.55162 0.0
C1033 C 0.03479 0.0688 0.56054 0.0
C1034 C 0.04864 0.06463 0.54125 0.0
C1035 C 0.03967 0.09024 0.57334 0.0
C1036 C 0.07042 0.15435 0.57024 0.0
H1037 H 0.08862 0.21648 0.67424 0.0
H1038 H 0.06971 0.18332 0.65179 0.0
H1039 H 0.08287 0.19301 0.57441 0.0
H1040 H 0.07788 0.08011 0.51968 0.0
H1041 H 0.08616 0.11758 0.54177 0.0
H1042 H 0.06173 0.1081 0.614 0.0
C1043 C 0.08396 0.19541 0.6438 0.0
C1044 C 0.0784 0.17458 0.58332 0.0
C1045 C 0.09464 0.21462 0.6566 0.0
C1046 C 0.06694 0.08273 0.53453 0.0
C1047 C 0.07161 0.10428 0.54709 0.0
C1048 C 0.06598 0.12666 0.60526 0.0
C1049 C 0.09154 0.19195 0.62098 0.0
C1050 C 0.08089 0.17099 0.60747 0.0
C1051 C 0.05825 0.10809 0.56683 0.0
C1052 C 0.06448 0.13009 0.58101 0.0
H1053 H 0.1344 0.23993 0.61572 0.0
H1054 H 0.11649 0.20606 0.59389 0.0
H1055 H 0.07608 0.14328 0.63684 0.0
H1056 H 0.02058 0.05515 0.56615 0.0
H1057 H 0.02901 0.0928 0.58841 0.0
C1058 C 0.61774 0.24944 0.40776 0.0
C1059 C 0.6149 0.24667 0.38386 0.0
C1060 C 0.6072 0.26796 0.41909 0.0
C1061 C 0.56058 0.30934 0.41515 0.0
H1062 H 0.59834 0.35155 0.45472 0.0
C1063 C 0.53231 0.40182 0.45052 0.0
C1064 C 0.53909 0.40797 0.47287 0.0
C1065 C 0.54027 0.38099 0.4402 0.0
C1066 C 0.58741 0.33971 0.44405 0.0
H1067 H 0.59839 0.26104 0.35324 0.0
H1068 H 0.57972 0.29316 0.37315 0.0
H1069 H 0.61432 0.31709 0.4359 0.0
H1070 H 0.55877 0.39651 0.50231 0.0
H1071 H 0.57215 0.35987 0.48463 0.0
H1072 H 0.5336 0.33188 0.42341 0.0
C1073 C 0.59006 0.28086 0.38309 0.0
C1074 C 0.59662 0.31998 0.43322 0.0
C1075 C 0.60073 0.26242 0.37171 0.0
C1076 C 0.55341 0.39243 0.48497 0.0
C1077 C 0.56121 0.3715 0.47475 0.0
C1078 C 0.55129 0.32898 0.42614 0.0
C1079 C 0.59344 0.28404 0.40683 0.0
C1080 C 0.58334 0.30462 0.41862 0.0
C1081 C 0.55504 0.36574 0.4521 0.0
C1082 C 0.56461 0.34445 0.44071 0.0
H1083 H 0.62814 0.23729 0.41777 0.0
H1084 H 0.60981 0.26971 0.43748 0.0
H1085 H 0.54989 0.29763 0.40414 0.0
H1086 H 0.52134 0.41349 0.44071 0.0
H1087 H 0.53537 0.3773 0.42264 0.0
loop_
_geom_bond_atom_site_label_1
_geom_bond_atom_site_label_2
_geom_bond_distance
_geom_bond_site_symmetry_2
_ccdc_geom_bond_type
C0 C1 1.384 . S
C0 H13 0.947 . S
C0 C35 1.382 . S
C1 C0 1.384 . S
C1 C2 1.378 . S
C2 C1 1.378 . S
C2 C3 1.378 . S
C2 H14 0.952 . S
C3 C2 1.378 . S
C3 H15 0.950 . S
C3 C34 1.383 . S
H4 C23 0.947 . S
H5 C24 0.946 . S
H6 C26 0.953 . S
H7 C27 0.945 . S
H8 C29 0.952 . S
H9 C30 0.949 . S
H10 C32 0.950 . S
H11 C33 0.948 . S
H12 C35 0.951 . S
H13 C0 0.947 . S
H14 C2 0.952 . S
H15 C3 0.950 . S
N16 C19 1.382 . S
N16 C21 1.363 . S
N17 C19 1.371 . S
N17 C20 1.372 . S
N18 C20 1.361 . S
N18 C21 1.377 . S
C19 N16 1.382 . S
C19 N17 1.371 . S
C19 C22 1.480 . S
C20 N17 1.372 . S
C20 N18 1.361 . S
C20 C28 1.457 . S
C21 N16 1.363 . S
C21 N18 1.377 . S
C21 C34 1.479 . S
C22 C19 1.480 . S
C22 C23 1.383 . S
C22 C27 1.385 . S
C23 H4 0.947 . S
C23 C22 1.383 . S
C23 C24 1.388 . S
C24 H5 0.946 . S
C24 C23 1.388 . S
C24 C25 1.384 . S
C25 C24 1.384 . S
C25 C26 1.377 . S
C26 H6 0.953 . S
C26 C25 1.377 . S
C26 C27 1.369 . S
C27 H7 0.945 . S
C27 C22 1.385 . S
C27 C26 1.369 . S
C28 C20 1.457 . S
C28 C29 1.372 . S
C28 C33 1.364 . S
C29 H8 0.952 . S
C29 C28 1.372 . S
C29 C30 1.389 . S
C30 H9 0.949 . S
C30 C29 1.389 . S
C30 C31 1.387 . S
C31 C30 1.387 . S
C31 C32 1.372 . S
C32 H10 0.950 . S
C32 C31 1.372 . S
C32 C33 1.379 . S
C33 H11 0.948 . S
C33 C28 1.364 . S
C33 C32 1.379 . S
C34 C3 1.383 . S
C34 C21 1.479 . S
C34 C35 1.398 . S
C35 C0 1.382 . S
C35 H12 0.951 . S
C35 C34 1.398 . S
C36 C37 1.384 . S
C36 H49 0.947 . S
C36 C71 1.382 . S
C37 C36 1.384 . S
C37 C38 1.378 . S
C38 C37 1.378 . S
C38 C39 1.378 . S
C38 H50 0.952 . S
C39 C38 1.378 . S
C39 H51 0.950 . S
C39 C70 1.383 . S
H40 C59 0.947 . S
H41 C60 0.946 . S
H42 C62 0.953 . S
H43 C63 0.945 . S
H44 C65 0.952 . S
H45 C66 0.949 . S
H46 C68 0.950 . S
H47 C69 0.948 . S
H48 C71 0.951 . S
H49 C36 0.947 . S
H50 C38 0.952 . S
H51 C39 0.950 . S
N52 C55 1.382 . S
N52 C57 1.363 . S
N53 C55 1.371 . S
N53 C56 1.372 . S
N54 C56 1.361 . S
N54 C57 1.377 . S
C55 N52 1.382 . S
C55 N53 1.371 . S
C55 C58 1.480 . S
C56 N53 1.372 . S
C56 N54 1.361 . S
C56 C64 1.457 . S
C57 N52 1.363 . S
C57 N54 1.377 . S
C57 C70 1.479 . S
C58 C55 1.480 . S
C58 C59 1.383 . S
C58 C63 1.385 . S
C59 H40 0.947 . S
C59 C58 1.383 . S
C59 C60 1.388 . S
C60 H41 0.946 . S
C60 C59 1.388 . S
C60 C61 1.384 . S
C61 C60 1.384 . S
C61 C62 1.377 . S
C62 H42 0.953 . S
C62 C61 1.377 . S
C62 C63 1.369 . S
C63 H43 0.945 . S
C63 C58 1.385 . S
C63 C62 1.369 . S
C64 C56 1.457 . S
C64 C65 1.372 . S
C64 C69 1.364 . S
C65 H44 0.952 . S
C65 C64 1.372 . S
C65 C66 1.389 . S
C66 H45 0.949 . S
C66 C65 1.389 . S
C66 C67 1.387 . S
C67 C66 1.387 . S
C67 C68 1.372 . S
C68 H46 0.950 . S
C68 C67 1.372 . S
C68 C69 1.379 . S
C69 H47 0.948 . S
C69 C64 1.364 . S
C69 C68 1.379 . S
C70 C39 1.383 . S
C70 C57 1.479 . S
C70 C71 1.398 . S
C71 C36 1.382 . S
C71 H48 0.951 . S
C71 C70 1.398 . S
C72 C73 1.384 . S
C72 H85 0.947 . S
C72 C107 1.382 . S
C73 C72 1.384 . S
C73 C74 1.378 . S
C74 C73 1.378 . S
C74 C75 1.378 . S
C74 H86 0.952 . S
C75 C74 1.378 . S
C75 H87 0.950 . S
C75 C106 1.383 . S
H76 C95 0.947 . S
H77 C96 0.946 . S
H78 C98 0.953 . S
H79 C99 0.945 . S
H80 C101 0.952 . S
H81 C102 0.949 . S
H82 C104 0.950 . S
H83 C105 0.948 . S
H84 C107 0.951 . S
H85 C72 0.947 . S
H86 C74 0.952 . S
H87 C75 0.950 . S
N88 C91 1.382 . S
N88 C93 1.363 . S
N89 C91 1.371 . S
N89 C92 1.372 . S
N90 C92 1.361 . S
N90 C93 1.377 . S
C91 N88 1.382 . S
C91 N89 1.371 . S
C91 C94 1.480 . S
C92 N89 1.372 . S
C92 N90 1.361 . S
C92 C100 1.457 . S
C93 N88 1.363 . S
C93 N90 1.377 . S
C93 C106 1.479 . S
C94 C91 1.480 . S
C94 C95 1.383 . S
C94 C99 1.385 . S
C95 H76 0.947 . S
C95 C94 1.383 . S
C95 C96 1.388 . S
C96 H77 0.946 . S
C96 C95 1.388 . S
C96 C97 1.384 . S
C97 C96 1.384 . S
C97 C98 1.377 . S
C98 H78 0.953 . S
C98 C97 1.377 . S
C98 C99 1.369 . S
C99 H79 0.945 . S
C99 C94 1.385 . S
C99 C98 1.369 . S
C100 C92 1.457 . S
C100 C101 1.372 . S
C100 C105 1.364 . S
C101 H80 0.952 . S
C101 C100 1.372 . S
C101 C102 1.389 . S
C102 H81 0.949 . S
C102 C101 1.389 . S
C102 C103 1.387 . S
C103 C102 1.387 . S
C103 C104 1.372 . S
C104 H82 0.950 . S
C104 C103 1.372 . S
C104 C105 1.379 . S
C105 H83 0.948 . S
C105 C100 1.364 . S
C105 C104 1.379 . S
C106 C75 1.383 . S
C106 C93 1.479 . S
C106 C107 1.398 . S
C107 C72 1.382 . S
C107 H84 0.951 . S
C107 C106 1.398 . S
C108 C109 1.384 . S
C108 H121 0.947 . S
C108 C143 1.382 . S
C109 C108 1.384 . S
C109 C110 1.378 . S
C110 C109 1.378 . S
C110 C111 1.378 . S
C110 H122 0.952 . S
C111 C110 1.378 . S
C111 H123 0.950 . S
C111 C142 1.383 . S
H112 C131 0.947 . S
H113 C132 0.946 . S
H114 C134 0.953 . S
H115 C135 0.945 . S
H116 C137 0.952 . S
H117 C138 0.949 . S
H118 C140 0.950 . S
H119 C141 0.948 . S
H120 C143 0.951 . S
H121 C108 0.947 . S
H122 C110 0.952 . S
H123 C111 0.950 . S
N124 C127 1.382 . S
N124 C129 1.363 . S
N125 C127 1.371 . S
N125 C128 1.372 . S
N126 C128 1.361 . S
N126 C129 1.377 . S
C127 N124 1.382 . S
C127 N125 1.371 . S
C127 C130 1.480 . S
C128 N125 1.372 . S
C128 N126 1.361 . S
C128 C136 1.457 . S
C129 N124 1.363 . S
C129 N126 1.377 . S
C129 C142 1.479 . S
C130 C127 1.480 . S
C130 C131 1.383 . S
C130 C135 1.385 . S
C131 H112 0.947 . S
C131 C130 1.383 . S
C131 C132 1.388 . S
C132 H113 0.946 . S
C132 C131 1.388 . S
C132 C133 1.384 . S
C133 C132 1.384 . S
C133 C134 1.377 . S
C134 H114 0.953 . S
C134 C133 1.377 . S
C134 C135 1.369 . S
C135 H115 0.945 . S
C135 C130 1.385 . S
C135 C134 1.369 . S
C136 C128 1.457 . S
C136 C137 1.372 . S
C136 C141 1.364 . S
C137 H116 0.952 . S
C137 C136 1.372 . S
C137 C138 1.389 . S
C138 H117 0.949 . S
C138 C137 1.389 . S
C138 C139 1.387 . S
C139 C138 1.387 . S
C139 C140 1.372 . S
C140 H118 0.950 . S
C140 C139 1.372 . S
C140 C141 1.379 . S
C141 H119 0.948 . S
C141 C136 1.364 . S
C141 C140 1.379 . S
C142 C111 1.383 . S
C142 C129 1.479 . S
C142 C143 1.398 . S
C143 C108 1.382 . S
C143 H120 0.951 . S
C143 C142 1.398 . S
C144 C145 1.384 . S
C144 H157 0.947 . S
C144 C179 1.382 . S
C145 C144 1.384 . S
C145 C146 1.378 . S
C146 C145 1.378 . S
C146 C147 1.378 . S
C146 H158 0.952 . S
C147 C146 1.378 . S
C147 H159 0.950 . S
C147 C178 1.383 . S
H148 C167 0.947 . S
H149 C168 0.946 . S
H150 C170 0.953 . S
H151 C171 0.945 . S
H152 C173 0.952 . S
H153 C174 0.949 . S
H154 C176 0.950 . S
H155 C177 0.948 . S
H156 C179 0.951 . S
H157 C144 0.947 . S
H158 C146 0.952 . S
H159 C147 0.950 . S
N160 C163 1.382 . S
N160 C165 1.363 . S
N161 C163 1.371 . S
N161 C164 1.372 . S
N162 C164 1.361 . S
N162 C165 1.377 . S
C163 N160 1.382 . S
C163 N161 1.371 . S
C163 C166 1.480 . S
C164 N161 1.372 . S
C164 N162 1.361 . S
C164 C172 1.457 . S
C165 N160 1.363 . S
C165 N162 1.377 . S
C165 C178 1.479 . S
C166 C163 1.480 . S
C166 C167 1.383 . S
C166 C171 1.385 . S
C167 H148 0.947 . S
C167 C166 1.383 . S
C167 C168 1.388 . S
C168 H149 0.946 . S
C168 C167 1.388 . S
C168 C169 1.384 . S
C169 C168 1.384 . S
C169 C170 1.377 . S
C170 H150 0.953 . S
C170 C169 1.377 . S
C170 C171 1.369 . S
C171 H151 0.945 . S
C171 C166 1.385 . S
C171 C170 1.369 . S
C172 C164 1.457 . S
C172 C173 1.372 . S
C172 C177 1.364 . S
C173 H152 0.952 . S
C173 C172 1.372 . S
C173 C174 1.389 . S
C174 H153 0.949 . S
C174 C173 1.389 . S
C174 C175 1.387 . S
C175 C174 1.387 . S
C175 C176 1.372 . S
C176 H154 0.950 . S
C176 C175 1.372 . S
C176 C177 1.379 . S
C177 H155 0.948 . S
C177 C172 1.364 . S
C177 C176 1.379 . S
C178 C147 1.383 . S
C178 C165 1.479 . S
C178 C179 1.398 . S
C179 C144 1.382 . S
C179 H156 0.951 . S
C179 C178 1.398 . S
C180 C181 1.384 . S
C180 H193 0.947 . S
C180 C215 1.382 . S
C181 C180 1.384 . S
C181 C182 1.378 . S
C182 C181 1.378 . S
C182 C183 1.378 . S
C182 H194 0.952 . S
C183 C182 1.378 . S
C183 H195 0.950 . S
C183 C214 1.383 . S
H184 C203 0.947 . S
H185 C204 0.946 . S
H186 C206 0.953 . S
H187 C207 0.945 . S
H188 C209 0.952 . S
H189 C210 0.949 . S
H190 C212 0.950 . S
H191 C213 0.948 . S
H192 C215 0.951 . S
H193 C180 0.947 . S
H194 C182 0.952 . S
H195 C183 0.950 . S
N196 C199 1.382 . S
N196 C201 1.363 . S
N197 C199 1.371 . S
N197 C200 1.372 . S
N198 C200 1.361 . S
N198 C201 1.377 . S
C199 N196 1.382 . S
C199 N197 1.371 . S
C199 C202 1.480 . S
C200 N197 1.372 . S
C200 N198 1.361 . S
C200 C208 1.457 . S
C201 N196 1.363 . S
C201 N198 1.377 . S
C201 C214 1.479 . S
C202 C199 1.480 . S
C202 C203 1.383 . S
C202 C207 1.385 . S
C203 H184 0.947 . S
C203 C202 1.383 . S
C203 C204 1.388 . S
C204 H185 0.946 . S
C204 C203 1.388 . S
C204 C205 1.384 . S
C205 C204 1.384 . S
C205 C206 1.377 . S
C206 H186 0.953 . S
C206 C205 1.377 . S
C206 C207 1.369 . S
C207 H187 0.945 . S
C207 C202 1.385 . S
C207 C206 1.369 . S
C208 C200 1.457 . S
C208 C209 1.372 . S
C208 C213 1.364 . S
C209 H188 0.952 . S
C209 C208 1.372 . S
C209 C210 1.389 . S
C210 H189 0.949 . S
C210 C209 1.389 . S
C210 C211 1.387 . S
C211 C210 1.387 . S
C211 C212 1.372 . S
C212 H190 0.950 . S
C212 C211 1.372 . S
C212 C213 1.379 . S
C213 H191 0.948 . S
C213 C208 1.364 . S
C213 C212 1.379 . S
C214 C183 1.383 . S
C214 C201 1.479 . S
C214 C215 1.398 . S
C215 C180 1.382 . S
C215 H192 0.951 . S
C215 C214 1.398 . S
C216 C217 1.384 . S
C216 H229 0.947 . S
C216 C251 1.382 . S
C217 C216 1.384 . S
C217 C218 1.378 . S
C218 C217 1.378 . S
C218 C219 1.378 . S
C218 H230 0.952 . S
C219 C218 1.378 . S
C219 H231 0.950 . S
C219 C250 1.383 . S
H220 C239 0.947 . S
H221 C240 0.946 . S
H222 C242 0.953 . S
H223 C243 0.945 . S
H224 C245 0.952 . S
H225 C246 0.949 . S
H226 C248 0.950 . S
H227 C249 0.948 . S
H228 C251 0.951 . S
H229 C216 0.947 . S
H230 C218 0.952 . S
H231 C219 0.950 . S
N232 C235 1.382 . S
N232 C237 1.363 . S
N233 C235 1.371 . S
N233 C236 1.372 . S
N234 C236 1.361 . S
N234 C237 1.377 . S
C235 N232 1.382 . S
C235 N233 1.371 . S
C235 C238 1.480 . S
C236 N233 1.372 . S
C236 N234 1.361 . S
C236 C244 1.457 . S
C237 N232 1.363 . S
C237 N234 1.377 . S
C237 C250 1.479 . S
C238 C235 1.480 . S
C238 C239 1.383 . S
C238 C243 1.385 . S
C239 H220 0.947 . S
C239 C238 1.383 . S
C239 C240 1.388 . S
C240 H221 0.946 . S
C240 C239 1.388 . S
C240 C241 1.384 . S
C241 C240 1.384 . S
C241 C242 1.377 . S
C242 H222 0.953 . S
C242 C241 1.377 . S
C242 C243 1.369 . S
C243 H223 0.945 . S
C243 C238 1.385 . S
C243 C242 1.369 . S
C244 C236 1.457 . S
C244 C245 1.372 . S
C244 C249 1.364 . S
C245 H224 0.952 . S
C245 C244 1.372 . S
C245 C246 1.389 . S
C246 H225 0.949 . S
C246 C245 1.389 . S
C246 C247 1.387 . S
C247 C246 1.387 . S
C247 C248 1.372 . S
C248 H226 0.950 . S
C248 C247 1.372 . S
C248 C249 1.379 . S
C249 H227 0.948 . S
C249 C244 1.364 . S
C249 C248 1.379 . S
C250 C219 1.383 . S
C250 C237 1.479 . S
C250 C251 1.398 . S
C251 C216 1.382 . S
C251 H228 0.951 . S
C251 C250 1.398 . S
C252 C253 1.384 . S
C252 H265 0.947 . S
C252 C287 1.382 . S
C253 C252 1.384 . S
C253 C254 1.378 . S
C254 C253 1.378 . S
C254 C255 1.378 . S
C254 H266 0.952 . S
C255 C254 1.378 . S
C255 H267 0.950 . S
C255 C286 1.383 . S
H256 C275 0.947 . S
H257 C276 0.946 . S
H258 C278 0.953 . S
H259 C279 0.945 . S
H260 C281 0.952 . S
H261 C282 0.949 . S
H262 C284 0.950 . S
H263 C285 0.948 . S
H264 C287 0.951 . S
H265 C252 0.947 . S
H266 C254 0.952 . S
H267 C255 0.950 . S
N268 C271 1.382 . S
N268 C273 1.363 . S
N269 C271 1.371 . S
N269 C272 1.372 . S
N270 C272 1.361 . S
N270 C273 1.377 . S
C271 N268 1.382 . S
C271 N269 1.371 . S
C271 C274 1.480 . S
C272 N269 1.372 . S
C272 N270 1.361 . S
C272 C280 1.457 . S
C273 N268 1.363 . S
C273 N270 1.377 . S
C273 C286 1.479 . S
C274 C271 1.480 . S
C274 C275 1.383 . S
C274 C279 1.385 . S
C275 H256 0.947 . S
C275 C274 1.383 . S
C275 C276 1.388 . S
C276 H257 0.946 . S
C276 C275 1.388 . S
C276 C277 1.384 . S
C277 C276 1.384 . S
C277 C278 1.377 . S
C278 H258 0.953 . S
C278 C277 1.377 . S
C278 C279 1.369 . S
C279 H259 0.945 . S
C279 C274 1.385 . S
C279 C278 1.369 . S
C280 C272 1.457 . S
C280 C281 1.372 . S
C280 C285 1.364 . S
C281 H260 0.952 . S
C281 C280 1.372 . S
C281 C282 1.389 . S
C282 H261 0.949 . S
C282 C281 1.389 . S
C282 C283 1.387 . S
C283 C282 1.387 . S
C283 C284 1.372 . S
C284 H262 0.950 . S
C284 C283 1.372 . S
C284 C285 1.379 . S
C285 H263 0.948 . S
C285 C280 1.364 . S
C285 C284 1.379 . S
C286 C255 1.383 . S
C286 C273 1.479 . S
C286 C287 1.398 . S
C287 C252 1.382 . S
C287 H264 0.951 . S
C287 C286 1.398 . S
Zn288 O294 1.969 1_545 S
Zn288 O295 1.965 1_545 S
Zn288 O299 2.024 . S
Zn288 O304 1.969 . S
Zn289 O296 1.969 . S
Zn289 O302 1.969 1_565 S
Zn289 O303 1.965 1_565 S
Zn289 O305 2.024 . S
C290 O291 1.229 . S
C290 O299 1.058 . S
O291 C290 1.229 . S
C292 O293 1.229 . S
C292 O305 1.058 . S
O293 C292 1.229 . S
O294 Zn288 1.969 1_565 S
O294 C297 1.267 . S
O295 Zn288 1.965 1_565 S
O295 C306 1.260 1_455 S
O296 Zn289 1.969 . S
O296 C306 1.258 . S
C297 O294 1.267 . S
C297 O298 1.228 . S
O298 C297 1.228 . S
O299 Zn288 2.024 . S
O299 C290 1.058 . S
C300 O301 1.228 . S
C300 O302 1.267 . S
O301 C300 1.228 . S
O302 Zn289 1.969 1_545 S
O302 C300 1.267 . S
O303 Zn289 1.965 1_545 S
O303 C307 1.260 1_655 S
O304 Zn288 1.969 . S
O304 C307 1.258 . S
O305 Zn289 2.024 . S
O305 C292 1.058 . S
C306 O295 1.260 1_655 S
C306 O296 1.258 . S
C307 O303 1.260 1_455 S
C307 O304 1.258 . S
Zn308 O314 1.969 . S
Zn308 O315 1.965 1_565 S
Zn308 O319 2.024 . S
Zn308 O324 1.969 1_556 S
Zn309 O316 1.969 . S
Zn309 O322 1.969 . S
Zn309 O323 1.965 1_545 S
Zn309 O325 2.024 . S
C310 O311 1.229 . S
C310 O319 1.058 . S
O311 C310 1.229 . S
C312 O313 1.229 . S
C312 O325 1.058 . S
O313 C312 1.229 . S
O314 Zn308 1.969 . S
O314 C317 1.267 . S
O315 Zn308 1.965 1_545 S
O315 C326 1.260 . S
O316 Zn309 1.969 . S
O316 C326 1.258 1_554 S
C317 O314 1.267 . S
C317 O318 1.228 . S
O318 C317 1.228 . S
O319 Zn308 2.024 . S
O319 C310 1.058 . S
C320 O321 1.228 . S
C320 O322 1.267 . S
O321 C320 1.228 . S
O322 Zn309 1.969 . S
O322 C320 1.267 . S
O323 Zn309 1.965 1_565 S
O323 C327 1.260 . S
O324 Zn308 1.969 1_554 S
O324 C327 1.258 . S
O325 Zn309 2.024 . S
O325 C312 1.058 . S
C326 O315 1.260 . S
C326 O316 1.258 1_556 S
C327 O323 1.260 . S
C327 O324 1.258 . S
Zn328 O334 1.969 . S
Zn328 O335 1.965 . S
Zn328 O339 2.024 . S
Zn328 O344 1.969 . S
Zn329 O336 1.969 . S
Zn329 O342 1.969 . S
Zn329 O343 1.965 . S
Zn329 O345 2.024 . S
C330 O331 1.229 . S
C330 O339 1.058 . S
O331 C330 1.229 . S
C332 O333 1.229 . S
C332 O345 1.058 . S
O333 C332 1.229 . S
O334 Zn328 1.969 . S
O334 C337 1.267 . S
O335 Zn328 1.965 . S
O335 C346 1.260 . S
O336 Zn329 1.969 . S
O336 C346 1.258 . S
C337 O334 1.267 . S
C337 O338 1.228 . S
O338 C337 1.228 . S
O339 Zn328 2.024 . S
O339 C330 1.058 . S
C340 O341 1.228 . S
C340 O342 1.267 . S
O341 C340 1.228 . S
O342 Zn329 1.969 . S
O342 C340 1.267 . S
O343 Zn329 1.965 . S
O343 C347 1.260 . S
O344 Zn328 1.969 . S
O344 C347 1.258 . S
O345 Zn329 2.024 . S
O345 C332 1.058 . S
C346 O335 1.260 . S
C346 O336 1.258 . S
C347 O343 1.260 . S
C347 O344 1.258 . S
Zn348 O354 1.969 . S
Zn348 O355 1.965 1_556 S
Zn348 O359 2.024 . S
Zn348 O364 1.969 1_655 S
Zn349 O356 1.969 . S
Zn349 O362 1.969 . S
Zn349 O363 1.965 1_554 S
Zn349 O365 2.024 . S
C350 O351 1.229 . S
C350 O359 1.058 . S
O351 C350 1.229 . S
C352 O353 1.229 . S
C352 O365 1.058 . S
O353 C352 1.229 . S
O354 Zn348 1.969 . S
O354 C357 1.267 . S
O355 Zn348 1.965 1_554 S
O355 C366 1.260 . S
O356 Zn349 1.969 . S
O356 C366 1.258 1_455 S
C357 O354 1.267 . S
C357 O358 1.228 . S
O358 C357 1.228 . S
O359 Zn348 2.024 . S
O359 C350 1.058 . S
C360 O361 1.228 . S
C360 O362 1.267 . S
O361 C360 1.228 . S
O362 Zn349 1.969 . S
O362 C360 1.267 . S
O363 Zn349 1.965 1_556 S
O363 C367 1.260 . S
O364 Zn348 1.969 1_455 S
O364 C367 1.258 . S
O365 Zn349 2.024 . S
O365 C352 1.058 . S
C366 O355 1.260 . S
C366 O356 1.258 1_655 S
C367 O363 1.260 . S
C367 O364 1.258 . S
C368 C369 1.349 . S
C368 C370 1.327 . S
C368 H393 0.950 . S
C369 C368 1.349 . S
C369 C385 1.349 . S
C370 C368 1.327 . S
C370 C389 1.429 . S
C370 H394 0.950 . S
C371 C388 1.574 . S
C371 C390 1.368 . S
C371 H395 0.949 . S
H372 C376 0.949 . S
C373 C374 1.349 . S
C373 C375 1.327 . S
C373 H396 0.950 . S
C374 C373 1.349 . S
C374 C386 1.349 . S
C375 C373 1.327 . S
C375 C391 1.429 . S
C375 H397 0.950 . S
C376 H372 0.949 . S
C376 C384 1.574 . S
C376 C392 1.368 . S
H377 C385 0.950 . S
H378 C383 0.950 . S
H379 C384 0.949 . S
H380 C386 0.950 . S
H381 C387 0.950 . S
H382 C388 0.949 . S
C383 H378 0.950 . S
C383 C385 1.327 . S
C383 C389 1.429 . S
C384 C376 1.574 . S
C384 H379 0.949 . S
C384 C390 1.368 . S
C385 C369 1.349 . S
C385 H377 0.950 . S
C385 C383 1.327 . S
C386 C374 1.349 . S
C386 H380 0.950 . S
C386 C387 1.327 . S
C387 H381 0.950 . S
C387 C386 1.327 . S
C387 C391 1.429 . S
C388 C371 1.574 . S
C388 H382 0.949 . S
C388 C392 1.368 . S
C389 C370 1.429 . S
C389 C383 1.429 . S
C389 C390 1.523 . S
C390 C371 1.368 . S
C390 C384 1.368 . S
C390 C389 1.523 . S
C391 C375 1.429 . S
C391 C387 1.429 . S
C391 C392 1.523 . S
C392 C376 1.368 . S
C392 C388 1.368 . S
C392 C391 1.523 . S
H393 C368 0.950 . S
H394 C370 0.950 . S
H395 C371 0.949 . S
H396 C373 0.950 . S
H397 C375 0.950 . S
C398 C399 1.349 . S
C398 C400 1.327 . S
C398 H423 0.950 . S
C399 C398 1.349 . S
C399 C415 1.349 . S
C400 C398 1.327 . S
C400 C419 1.429 . S
C400 H424 0.950 . S
C401 C418 1.574 . S
C401 C420 1.368 . S
C401 H425 0.949 . S
H402 C406 0.949 . S
C403 C404 1.349 . S
C403 C405 1.327 . S
C403 H426 0.950 . S
C404 C403 1.349 . S
C404 C416 1.349 . S
C405 C403 1.327 . S
C405 C421 1.429 . S
C405 H427 0.950 . S
C406 H402 0.949 . S
C406 C414 1.574 . S
C406 C422 1.368 . S
H407 C415 0.950 . S
H408 C413 0.950 . S
H409 C414 0.949 . S
H410 C416 0.950 . S
H411 C417 0.950 . S
H412 C418 0.949 . S
C413 H408 0.950 . S
C413 C415 1.327 . S
C413 C419 1.429 . S
C414 C406 1.574 . S
C414 H409 0.949 . S
C414 C420 1.368 . S
C415 C399 1.349 . S
C415 H407 0.950 . S
C415 C413 1.327 . S
C416 C404 1.349 . S
C416 H410 0.950 . S
C416 C417 1.327 . S
C417 H411 0.950 . S
C417 C416 1.327 . S
C417 C421 1.429 . S
C418 C401 1.574 . S
C418 H412 0.949 . S
C418 C422 1.368 . S
C419 C400 1.429 . S
C419 C413 1.429 . S
C419 C420 1.523 . S
C420 C401 1.368 . S
C420 C414 1.368 . S
C420 C419 1.523 . S
C421 C405 1.429 . S
C421 C417 1.429 . S
C421 C422 1.523 . S
C422 C406 1.368 . S
C422 C418 1.368 . S
C422 C421 1.523 . S
H423 C398 0.950 . S
H424 C400 0.950 . S
H425 C401 0.949 . S
H426 C403 0.950 . S
H427 C405 0.950 . S
C428 C429 1.349 . S
C428 C430 1.327 . S
C428 H453 0.950 . S
C429 C428 1.349 . S
C429 C445 1.349 . S
C430 C428 1.327 . S
C430 C449 1.429 . S
C430 H454 0.950 . S
C431 C448 1.574 . S
C431 C450 1.368 . S
C431 H455 0.949 . S
H432 C436 0.949 . S
C433 C434 1.349 . S
C433 C435 1.327 . S
C433 H456 0.950 . S
C434 C433 1.349 . S
C434 C446 1.349 . S
C435 C433 1.327 . S
C435 C451 1.429 . S
C435 H457 0.950 . S
C436 H432 0.949 . S
C436 C444 1.574 . S
C436 C452 1.368 . S
H437 C445 0.950 . S
H438 C443 0.950 . S
H439 C444 0.949 . S
H440 C446 0.950 . S
H441 C447 0.950 . S
H442 C448 0.949 . S
C443 H438 0.950 . S
C443 C445 1.327 . S
C443 C449 1.429 . S
C444 C436 1.574 . S
C444 H439 0.949 . S
C444 C450 1.368 . S
C445 C429 1.349 . S
C445 H437 0.950 . S
C445 C443 1.327 . S
C446 C434 1.349 . S
C446 H440 0.950 . S
C446 C447 1.327 . S
C447 H441 0.950 . S
C447 C446 1.327 . S
C447 C451 1.429 . S
C448 C431 1.574 . S
C448 H442 0.949 . S
C448 C452 1.368 . S
C449 C430 1.429 . S
C449 C443 1.429 . S
C449 C450 1.523 . S
C450 C431 1.368 . S
C450 C444 1.368 . S
C450 C449 1.523 . S
C451 C435 1.429 . S
C451 C447 1.429 . S
C451 C452 1.523 . S
C452 C436 1.368 . S
C452 C448 1.368 . S
C452 C451 1.523 . S
H453 C428 0.950 . S
H454 C430 0.950 . S
H455 C431 0.949 . S
H456 C433 0.950 . S
H457 C435 0.950 . S
C458 C459 1.349 . S
C458 C460 1.327 . S
C458 H483 0.950 . S
C459 C458 1.349 . S
C459 C475 1.349 . S
C460 C458 1.327 . S
C460 C479 1.429 . S
C460 H484 0.950 . S
C461 C478 1.574 . S
C461 C480 1.368 . S
C461 H485 0.949 . S
H462 C466 0.949 . S
C463 C464 1.349 . S
C463 C465 1.327 . S
C463 H486 0.950 . S
C464 C463 1.349 . S
C464 C476 1.349 . S
C465 C463 1.327 . S
C465 C481 1.429 . S
C465 H487 0.950 . S
C466 H462 0.949 . S
C466 C474 1.574 . S
C466 C482 1.368 . S
H467 C475 0.950 . S
H468 C473 0.950 . S
H469 C474 0.949 . S
H470 C476 0.950 . S
H471 C477 0.950 . S
H472 C478 0.949 . S
C473 H468 0.950 . S
C473 C475 1.327 . S
C473 C479 1.429 . S
C474 C466 1.574 . S
C474 H469 0.949 . S
C474 C480 1.368 . S
C475 C459 1.349 . S
C475 H467 0.950 . S
C475 C473 1.327 . S
C476 C464 1.349 . S
C476 H470 0.950 . S
C476 C477 1.327 . S
C477 H471 0.950 . S
C477 C476 1.327 . S
C477 C481 1.429 . S
C478 C461 1.574 . S
C478 H472 0.949 . S
C478 C482 1.368 . S
C479 C460 1.429 . S
C479 C473 1.429 . S
C479 C480 1.523 . S
C480 C461 1.368 . S
C480 C474 1.368 . S
C480 C479 1.523 . S
C481 C465 1.429 . S
C481 C477 1.429 . S
C481 C482 1.523 . S
C482 C466 1.368 . S
C482 C478 1.368 . S
C482 C481 1.523 . S
H483 C458 0.950 . S
H484 C460 0.950 . S
H485 C461 0.949 . S
H486 C463 0.950 . S
H487 C465 0.950 . S
C488 C489 1.349 . S
C488 C490 1.327 . S
C488 H513 0.950 . S
C489 C488 1.349 . S
C489 C505 1.349 . S
C490 C488 1.327 . S
C490 C509 1.429 . S
C490 H514 0.950 . S
C491 C508 1.574 . S
C491 C510 1.368 . S
C491 H515 0.949 . S
H492 C496 0.949 . S
C493 C494 1.349 . S
C493 C495 1.327 . S
C493 H516 0.950 . S
C494 C493 1.349 . S
C494 C506 1.349 . S
C495 C493 1.327 . S
C495 C511 1.429 . S
C495 H517 0.950 . S
C496 H492 0.949 . S
C496 C504 1.574 . S
C496 C512 1.368 . S
H497 C505 0.950 . S
H498 C503 0.950 . S
H499 C504 0.949 . S
H500 C506 0.950 . S
H501 C507 0.950 . S
H502 C508 0.949 . S
C503 H498 0.950 . S
C503 C505 1.327 . S
C503 C509 1.429 . S
C504 C496 1.574 . S
C504 H499 0.949 . S
C504 C510 1.368 . S
C505 C489 1.349 . S
C505 H497 0.950 . S
C505 C503 1.327 . S
C506 C494 1.349 . S
C506 H500 0.950 . S
C506 C507 1.327 . S
C507 H501 0.950 . S
C507 C506 1.327 . S
C507 C511 1.429 . S
C508 C491 1.574 . S
C508 H502 0.949 . S
C508 C512 1.368 . S
C509 C490 1.429 . S
C509 C503 1.429 . S
C509 C510 1.523 . S
C510 C491 1.368 . S
C510 C504 1.368 . S
C510 C509 1.523 . S
C511 C495 1.429 . S
C511 C507 1.429 . S
C511 C512 1.523 . S
C512 C496 1.368 . S
C512 C508 1.368 . S
C512 C511 1.523 . S
H513 C488 0.950 . S
H514 C490 0.950 . S
H515 C491 0.949 . S
H516 C493 0.950 . S
H517 C495 0.950 . S
C518 C519 1.349 . S
C518 C520 1.327 . S
C518 H543 0.950 . S
C519 C518 1.349 . S
C519 C535 1.349 . S
C520 C518 1.327 . S
C520 C539 1.429 . S
C520 H544 0.950 . S
C521 C538 1.574 . S
C521 C540 1.368 . S
C521 H545 0.949 . S
H522 C526 0.949 . S
C523 C524 1.349 . S
C523 C525 1.327 . S
C523 H546 0.950 . S
C524 C523 1.349 . S
C524 C536 1.349 . S
C525 C523 1.327 . S
C525 C541 1.429 . S
C525 H547 0.950 . S
C526 H522 0.949 . S
C526 C534 1.574 . S
C526 C542 1.368 . S
H527 C535 0.950 . S
H528 C533 0.950 . S
H529 C534 0.949 . S
H530 C536 0.950 . S
H531 C537 0.950 . S
H532 C538 0.949 . S
C533 H528 0.950 . S
C533 C535 1.327 . S
C533 C539 1.429 . S
C534 C526 1.574 . S
C534 H529 0.949 . S
C534 C540 1.368 . S
C535 C519 1.349 . S
C535 H527 0.950 . S
C535 C533 1.327 . S
C536 C524 1.349 . S
C536 H530 0.950 . S
C536 C537 1.327 . S
C537 H531 0.950 . S
C537 C536 1.327 . S
C537 C541 1.429 . S
C538 C521 1.574 . S
C538 H532 0.949 . S
C538 C542 1.368 . S
C539 C520 1.429 . S
C539 C533 1.429 . S
C539 C540 1.523 . S
C540 C521 1.368 . S
C540 C534 1.368 . S
C540 C539 1.523 . S
C541 C525 1.429 . S
C541 C537 1.429 . S
C541 C542 1.523 . S
C542 C526 1.368 . S
C542 C538 1.368 . S
C542 C541 1.523 . S
H543 C518 0.950 . S
H544 C520 0.950 . S
H545 C521 0.949 . S
H546 C523 0.950 . S
H547 C525 0.950 . S
C548 C549 1.349 . S
C548 C550 1.327 . S
C548 H573 0.950 . S
C549 C548 1.349 . S
C549 C565 1.349 . S
C550 C548 1.327 . S
C550 C569 1.429 . S
C550 H574 0.950 . S
C551 C568 1.574 . S
C551 C570 1.368 . S
C551 H575 0.949 . S
H552 C556 0.949 . S
C553 C554 1.349 . S
C553 C555 1.327 . S
C553 H576 0.950 . S
C554 C553 1.349 . S
C554 C566 1.349 . S
C555 C553 1.327 . S
C555 C571 1.429 . S
C555 H577 0.950 . S
C556 H552 0.949 . S
C556 C564 1.574 . S
C556 C572 1.368 . S
H557 C565 0.950 . S
H558 C563 0.950 . S
H559 C564 0.949 . S
H560 C566 0.950 . S
H561 C567 0.950 . S
H562 C568 0.949 . S
C563 H558 0.950 . S
C563 C565 1.327 . S
C563 C569 1.429 . S
C564 C556 1.574 . S
C564 H559 0.949 . S
C564 C570 1.368 . S
C565 C549 1.349 . S
C565 H557 0.950 . S
C565 C563 1.327 . S
C566 C554 1.349 . S
C566 H560 0.950 . S
C566 C567 1.327 . S
C567 H561 0.950 . S
C567 C566 1.327 . S
C567 C571 1.429 . S
C568 C551 1.574 . S
C568 H562 0.949 . S
C568 C572 1.368 . S
C569 C550 1.429 . S
C569 C563 1.429 . S
C569 C570 1.523 . S
C570 C551 1.368 . S
C570 C564 1.368 . S
C570 C569 1.523 . S
C571 C555 1.429 . S
C571 C567 1.429 . S
C571 C572 1.523 . S
C572 C556 1.368 . S
C572 C568 1.368 . S
C572 C571 1.523 . S
H573 C548 0.950 . S
H574 C550 0.950 . S
H575 C551 0.949 . S
H576 C553 0.950 . S
H577 C555 0.950 . S
C578 C579 1.349 . S
C578 C580 1.327 . S
C578 H603 0.950 . S
C579 C578 1.349 . S
C579 C595 1.349 . S
C580 C578 1.327 . S
C580 C599 1.429 . S
C580 H604 0.950 . S
C581 C598 1.574 . S
C581 C600 1.368 . S
C581 H605 0.949 . S
H582 C586 0.949 . S
C583 C584 1.349 . S
C583 C585 1.327 . S
C583 H606 0.950 . S
C584 C583 1.349 . S
C584 C596 1.349 . S
C585 C583 1.327 . S
C585 C601 1.429 . S
C585 H607 0.950 . S
C586 H582 0.949 . S
C586 C594 1.574 . S
C586 C602 1.368 . S
H587 C595 0.950 . S
H588 C593 0.950 . S
H589 C594 0.949 . S
H590 C596 0.950 . S
H591 C597 0.950 . S
H592 C598 0.949 . S
C593 H588 0.950 . S
C593 C595 1.327 . S
C593 C599 1.429 . S
C594 C586 1.574 . S
C594 H589 0.949 . S
C594 C600 1.368 . S
C595 C579 1.349 . S
C595 H587 0.950 . S
C595 C593 1.327 . S
C596 C584 1.349 . S
C596 H590 0.950 . S
C596 C597 1.327 . S
C597 H591 0.950 . S
C597 C596 1.327 . S
C597 C601 1.429 . S
C598 C581 1.574 . S
C598 H592 0.949 . S
C598 C602 1.368 . S
C599 C580 1.429 . S
C599 C593 1.429 . S
C599 C600 1.523 . S
C600 C581 1.368 . S
C600 C594 1.368 . S
C600 C599 1.523 . S
C601 C585 1.429 . S
C601 C597 1.429 . S
C601 C602 1.523 . S
C602 C586 1.368 . S
C602 C598 1.368 . S
C602 C601 1.523 . S
H603 C578 0.950 . S
H604 C580 0.950 . S
H605 C581 0.949 . S
H606 C583 0.950 . S
H607 C585 0.950 . S
C608 C609 1.349 . S
C608 C610 1.327 . S
C608 H633 0.950 . S
C609 C608 1.349 . S
C609 C625 1.349 . S
C610 C608 1.327 . S
C610 C629 1.429 . S
C610 H634 0.950 . S
C611 C628 1.574 . S
C611 C630 1.368 . S
C611 H635 0.949 . S
H612 C616 0.949 . S
C613 C614 1.349 . S
C613 C615 1.327 . S
C613 H636 0.950 . S
C614 C613 1.349 . S
C614 C626 1.349 . S
C615 C613 1.327 . S
C615 C631 1.429 . S
C615 H637 0.950 . S
C616 H612 0.949 . S
C616 C624 1.574 . S
C616 C632 1.368 . S
H617 C625 0.950 . S
H618 C623 0.950 . S
H619 C624 0.949 . S
H620 C626 0.950 . S
H621 C627 0.950 . S
H622 C628 0.949 . S
C623 H618 0.950 . S
C623 C625 1.327 . S
C623 C629 1.429 . S
C624 C616 1.574 . S
C624 H619 0.949 . S
C624 C630 1.368 . S
C625 C609 1.349 . S
C625 H617 0.950 . S
C625 C623 1.327 . S
C626 C614 1.349 . S
C626 H620 0.950 . S
C626 C627 1.327 . S
C627 H621 0.950 . S
C627 C626 1.327 . S
C627 C631 1.429 . S
C628 C611 1.574 . S
C628 H622 0.949 . S
C628 C632 1.368 . S
C629 C610 1.429 . S
C629 C623 1.429 . S
C629 C630 1.523 . S
C630 C611 1.368 . S
C630 C624 1.368 . S
C630 C629 1.523 . S
C631 C615 1.429 . S
C631 C627 1.429 . S
C631 C632 1.523 . S
C632 C616 1.368 . S
C632 C628 1.368 . S
C632 C631 1.523 . S
H633 C608 0.950 . S
H634 C610 0.950 . S
H635 C611 0.949 . S
H636 C613 0.950 . S
H637 C615 0.950 . S
C638 C639 1.349 . S
C638 C640 1.327 . S
C638 H663 0.950 . S
C639 C638 1.349 . S
C639 C655 1.349 . S
C640 C638 1.327 . S
C640 C659 1.429 . S
C640 H664 0.950 . S
C641 C658 1.574 . S
C641 C660 1.368 . S
C641 H665 0.949 . S
H642 C646 0.949 . S
C643 C644 1.349 . S
C643 C645 1.327 . S
C643 H666 0.950 . S
C644 C643 1.349 . S
C644 C656 1.349 . S
C645 C643 1.327 . S
C645 C661 1.429 . S
C645 H667 0.950 . S
C646 H642 0.949 . S
C646 C654 1.574 . S
C646 C662 1.368 . S
H647 C655 0.950 . S
H648 C653 0.950 . S
H649 C654 0.949 . S
H650 C656 0.950 . S
H651 C657 0.950 . S
H652 C658 0.949 . S
C653 H648 0.950 . S
C653 C655 1.327 . S
C653 C659 1.429 . S
C654 C646 1.574 . S
C654 H649 0.949 . S
C654 C660 1.368 . S
C655 C639 1.349 . S
C655 H647 0.950 . S
C655 C653 1.327 . S
C656 C644 1.349 . S
C656 H650 0.950 . S
C656 C657 1.327 . S
C657 H651 0.950 . S
C657 C656 1.327 . S
C657 C661 1.429 . S
C658 C641 1.574 . S
C658 H652 0.949 . S
C658 C662 1.368 . S
C659 C640 1.429 . S
C659 C653 1.429 . S
C659 C660 1.523 . S
C660 C641 1.368 . S
C660 C654 1.368 . S
C660 C659 1.523 . S
C661 C645 1.429 . S
C661 C657 1.429 . S
C661 C662 1.523 . S
C662 C646 1.368 . S
C662 C658 1.368 . S
C662 C661 1.523 . S
H663 C638 0.950 . S
H664 C640 0.950 . S
H665 C641 0.949 . S
H666 C643 0.950 . S
H667 C645 0.950 . S
C668 C669 1.349 . S
C668 C670 1.327 . S
C668 H693 0.950 . S
C669 C668 1.349 . S
C669 C685 1.349 . S
C670 C668 1.327 . S
C670 C689 1.429 . S
C670 H694 0.950 . S
C671 C688 1.574 . S
C671 C690 1.368 . S
C671 H695 0.949 . S
H672 C676 0.949 . S
C673 C674 1.349 . S
C673 C675 1.327 . S
C673 H696 0.950 . S
C674 C673 1.349 . S
C674 C686 1.349 . S
C675 C673 1.327 . S
C675 C691 1.429 . S
C675 H697 0.950 . S
C676 H672 0.949 . S
C676 C684 1.574 . S
C676 C692 1.368 . S
H677 C685 0.950 . S
H678 C683 0.950 . S
H679 C684 0.949 . S
H680 C686 0.950 . S
H681 C687 0.950 . S
H682 C688 0.949 . S
C683 H678 0.950 . S
C683 C685 1.327 . S
C683 C689 1.429 . S
C684 C676 1.574 . S
C684 H679 0.949 . S
C684 C690 1.368 . S
C685 C669 1.349 . S
C685 H677 0.950 . S
C685 C683 1.327 . S
C686 C674 1.349 . S
C686 H680 0.950 . S
C686 C687 1.327 . S
C687 H681 0.950 . S
C687 C686 1.327 . S
C687 C691 1.429 . S
C688 C671 1.574 . S
C688 H682 0.949 . S
C688 C692 1.368 . S
C689 C670 1.429 . S
C689 C683 1.429 . S
C689 C690 1.523 . S
C690 C671 1.368 . S
C690 C684 1.368 . S
C690 C689 1.523 . S
C691 C675 1.429 . S
C691 C687 1.429 . S
C691 C692 1.523 . S
C692 C676 1.368 . S
C692 C688 1.368 . S
C692 C691 1.523 . S
H693 C668 0.950 . S
H694 C670 0.950 . S
H695 C671 0.949 . S
H696 C673 0.950 . S
H697 C675 0.950 . S
C698 C699 1.349 . S
C698 C700 1.327 . S
C698 H723 0.950 . S
C699 C698 1.349 . S
C699 C715 1.349 . S
C700 C698 1.327 . S
C700 C719 1.429 . S
C700 H724 0.950 . S
C701 C718 1.574 . S
C701 C720 1.368 . S
C701 H725 0.949 . S
H702 C706 0.949 . S
C703 C704 1.349 . S
C703 C705 1.327 . S
C703 H726 0.950 . S
C704 C703 1.349 . S
C704 C716 1.349 . S
C705 C703 1.327 . S
C705 C721 1.429 . S
C705 H727 0.950 . S
C706 H702 0.949 . S
C706 C714 1.574 . S
C706 C722 1.368 . S
H707 C715 0.950 . S
H708 C713 0.950 . S
H709 C714 0.949 . S
H710 C716 0.950 . S
H711 C717 0.950 . S
H712 C718 0.949 . S
C713 H708 0.950 . S
C713 C715 1.327 . S
C713 C719 1.429 . S
C714 C706 1.574 . S
C714 H709 0.949 . S
C714 C720 1.368 . S
C715 C699 1.349 . S
C715 H707 0.950 . S
C715 C713 1.327 . S
C716 C704 1.349 . S
C716 H710 0.950 . S
C716 C717 1.327 . S
C717 H711 0.950 . S
C717 C716 1.327 . S
C717 C721 1.429 . S
C718 C701 1.574 . S
C718 H712 0.949 . S
C718 C722 1.368 . S
C719 C700 1.429 . S
C719 C713 1.429 . S
C719 C720 1.523 . S
C720 C701 1.368 . S
C720 C714 1.368 . S
C720 C719 1.523 . S
C721 C705 1.429 . S
C721 C717 1.429 . S
C721 C722 1.523 . S
C722 C706 1.368 . S
C722 C718 1.368 . S
C722 C721 1.523 . S
H723 C698 0.950 . S
H724 C700 0.950 . S
H725 C701 0.949 . S
H726 C703 0.950 . S
H727 C705 0.950 . S
C728 C729 1.349 . S
C728 C730 1.327 . S
C728 H753 0.950 . S
C729 C728 1.349 . S
C729 C745 1.349 . S
C730 C728 1.327 . S
C730 C749 1.429 . S
C730 H754 0.950 . S
C731 C748 1.574 . S
C731 C750 1.368 . S
C731 H755 0.949 . S
H732 C736 0.949 . S
C733 C734 1.349 . S
C733 C735 1.327 . S
C733 H756 0.950 . S
C734 C733 1.349 . S
C734 C746 1.349 . S
C735 C733 1.327 . S
C735 C751 1.429 . S
C735 H757 0.950 . S
C736 H732 0.949 . S
C736 C744 1.574 . S
C736 C752 1.368 . S
H737 C745 0.950 . S
H738 C743 0.950 . S
H739 C744 0.949 . S
H740 C746 0.950 . S
H741 C747 0.950 . S
H742 C748 0.949 . S
C743 H738 0.950 . S
C743 C745 1.327 . S
C743 C749 1.429 . S
C744 C736 1.574 . S
C744 H739 0.949 . S
C744 C750 1.368 . S
C745 C729 1.349 . S
C745 H737 0.950 . S
C745 C743 1.327 . S
C746 C734 1.349 . S
C746 H740 0.950 . S
C746 C747 1.327 . S
C747 H741 0.950 . S
C747 C746 1.327 . S
C747 C751 1.429 . S
C748 C731 1.574 . S
C748 H742 0.949 . S
C748 C752 1.368 . S
C749 C730 1.429 . S
C749 C743 1.429 . S
C749 C750 1.523 . S
C750 C731 1.368 . S
C750 C744 1.368 . S
C750 C749 1.523 . S
C751 C735 1.429 . S
C751 C747 1.429 . S
C751 C752 1.523 . S
C752 C736 1.368 . S
C752 C748 1.368 . S
C752 C751 1.523 . S
H753 C728 0.950 . S
H754 C730 0.950 . S
H755 C731 0.949 . S
H756 C733 0.950 . S
H757 C735 0.950 . S
C758 C759 1.349 . S
C758 C760 1.327 . S
C758 H783 0.950 . S
C759 C758 1.349 . S
C759 C775 1.349 . S
C760 C758 1.327 . S
C760 C779 1.429 . S
C760 H784 0.950 . S
C761 C778 1.574 . S
C761 C780 1.368 . S
C761 H785 0.949 . S
H762 C766 0.949 . S
C763 C764 1.349 . S
C763 C765 1.327 . S
C763 H786 0.950 . S
C764 C763 1.349 . S
C764 C776 1.349 . S
C765 C763 1.327 . S
C765 C781 1.429 . S
C765 H787 0.950 . S
C766 H762 0.949 . S
C766 C774 1.574 . S
C766 C782 1.368 . S
H767 C775 0.950 . S
H768 C773 0.950 . S
H769 C774 0.949 . S
H770 C776 0.950 . S
H771 C777 0.950 . S
H772 C778 0.949 . S
C773 H768 0.950 . S
C773 C775 1.327 . S
C773 C779 1.429 . S
C774 C766 1.574 . S
C774 H769 0.949 . S
C774 C780 1.368 . S
C775 C759 1.349 . S
C775 H767 0.950 . S
C775 C773 1.327 . S
C776 C764 1.349 . S
C776 H770 0.950 . S
C776 C777 1.327 . S
C777 H771 0.950 . S
C777 C776 1.327 . S
C777 C781 1.429 . S
C778 C761 1.574 . S
C778 H772 0.949 . S
C778 C782 1.368 . S
C779 C760 1.429 . S
C779 C773 1.429 . S
C779 C780 1.523 . S
C780 C761 1.368 . S
C780 C774 1.368 . S
C780 C779 1.523 . S
C781 C765 1.429 . S
C781 C777 1.429 . S
C781 C782 1.523 . S
C782 C766 1.368 . S
C782 C778 1.368 . S
C782 C781 1.523 . S
H783 C758 0.950 . S
H784 C760 0.950 . S
H785 C761 0.949 . S
H786 C763 0.950 . S
H787 C765 0.950 . S
C788 C789 1.349 . S
C788 C790 1.327 . S
C788 H813 0.950 . S
C789 C788 1.349 . S
C789 C805 1.349 . S
C790 C788 1.327 . S
C790 C809 1.429 . S
C790 H814 0.950 . S
C791 C808 1.574 . S
C791 C810 1.368 . S
C791 H815 0.949 . S
H792 C796 0.949 . S
C793 C794 1.349 . S
C793 C795 1.327 . S
C793 H816 0.950 . S
C794 C793 1.349 . S
C794 C806 1.349 . S
C795 C793 1.327 . S
C795 C811 1.429 . S
C795 H817 0.950 . S
C796 H792 0.949 . S
C796 C804 1.574 . S
C796 C812 1.368 . S
H797 C805 0.950 . S
H798 C803 0.950 . S
H799 C804 0.949 . S
H800 C806 0.950 . S
H801 C807 0.950 . S
H802 C808 0.949 . S
C803 H798 0.950 . S
C803 C805 1.327 . S
C803 C809 1.429 . S
C804 C796 1.574 . S
C804 H799 0.949 . S
C804 C810 1.368 . S
C805 C789 1.349 . S
C805 H797 0.950 . S
C805 C803 1.327 . S
C806 C794 1.349 . S
C806 H800 0.950 . S
C806 C807 1.327 . S
C807 H801 0.950 . S
C807 C806 1.327 . S
C807 C811 1.429 . S
C808 C791 1.574 . S
C808 H802 0.949 . S
C808 C812 1.368 . S
C809 C790 1.429 . S
C809 C803 1.429 . S
C809 C810 1.523 . S
C810 C791 1.368 . S
C810 C804 1.368 . S
C810 C809 1.523 . S
C811 C795 1.429 . S
C811 C807 1.429 . S
C811 C812 1.523 . S
C812 C796 1.368 . S
C812 C808 1.368 . S
C812 C811 1.523 . S
H813 C788 0.950 . S
H814 C790 0.950 . S
H815 C791 0.949 . S
H816 C793 0.950 . S
H817 C795 0.950 . S
C818 C819 1.349 . S
C818 C820 1.327 . S
C818 H843 0.950 . S
C819 C818 1.349 . S
C819 C835 1.349 . S
C820 C818 1.327 . S
C820 C839 1.429 . S
C820 H844 0.950 . S
C821 C838 1.574 . S
C821 C840 1.368 . S
C821 H845 0.949 . S
H822 C826 0.949 . S
C823 C824 1.349 . S
C823 C825 1.327 . S
C823 H846 0.950 . S
C824 C823 1.349 . S
C824 C836 1.349 . S
C825 C823 1.327 . S
C825 C841 1.429 . S
C825 H847 0.950 . S
C826 H822 0.949 . S
C826 C834 1.574 . S
C826 C842 1.368 . S
H827 C835 0.950 . S
H828 C833 0.950 . S
H829 C834 0.949 . S
H830 C836 0.950 . S
H831 C837 0.950 . S
H832 C838 0.949 . S
C833 H828 0.950 . S
C833 C835 1.327 . S
C833 C839 1.429 . S
C834 C826 1.574 . S
C834 H829 0.949 . S
C834 C840 1.368 . S
C835 C819 1.349 . S
C835 H827 0.950 . S
C835 C833 1.327 . S
C836 C824 1.349 . S
C836 H830 0.950 . S
C836 C837 1.327 . S
C837 H831 0.950 . S
C837 C836 1.327 . S
C837 C841 1.429 . S
C838 C821 1.574 . S
C838 H832 0.949 . S
C838 C842 1.368 . S
C839 C820 1.429 . S
C839 C833 1.429 . S
C839 C840 1.523 . S
C840 C821 1.368 . S
C840 C834 1.368 . S
C840 C839 1.523 . S
C841 C825 1.429 . S
C841 C837 1.429 . S
C841 C842 1.523 . S
C842 C826 1.368 . S
C842 C838 1.368 . S
C842 C841 1.523 . S
H843 C818 0.950 . S
H844 C820 0.950 . S
H845 C821 0.949 . S
H846 C823 0.950 . S
H847 C825 0.950 . S
C848 C849 1.349 . S
C848 C850 1.327 . S
C848 H873 0.950 . S
C849 C848 1.349 . S
C849 C865 1.349 . S
C850 C848 1.327 . S
C850 C869 1.429 . S
C850 H874 0.950 . S
C851 C868 1.574 . S
C851 C870 1.368 . S
C851 H875 0.949 . S
H852 C856 0.949 . S
C853 C854 1.349 . S
C853 C855 1.327 . S
C853 H876 0.950 . S
C854 C853 1.349 . S
C854 C866 1.349 . S
C855 C853 1.327 . S
C855 C871 1.429 . S
C855 H877 0.950 . S
C856 H852 0.949 . S
C856 C864 1.574 . S
C856 C872 1.368 . S
H857 C865 0.950 . S
H858 C863 0.950 . S
H859 C864 0.949 . S
H860 C866 0.950 . S
H861 C867 0.950 . S
H862 C868 0.949 . S
C863 H858 0.950 . S
C863 C865 1.327 . S
C863 C869 1.429 . S
C864 C856 1.574 . S
C864 H859 0.949 . S
C864 C870 1.368 . S
C865 C849 1.349 . S
C865 H857 0.950 . S
C865 C863 1.327 . S
C866 C854 1.349 . S
C866 H860 0.950 . S
C866 C867 1.327 . S
C867 H861 0.950 . S
C867 C866 1.327 . S
C867 C871 1.429 . S
C868 C851 1.574 . S
C868 H862 0.949 . S
C868 C872 1.368 . S
C869 C850 1.429 . S
C869 C863 1.429 . S
C869 C870 1.523 . S
C870 C851 1.368 . S
C870 C864 1.368 . S
C870 C869 1.523 . S
C871 C855 1.429 . S
C871 C867 1.429 . S
C871 C872 1.523 . S
C872 C856 1.368 . S
C872 C868 1.368 . S
C872 C871 1.523 . S
H873 C848 0.950 . S
H874 C850 0.950 . S
H875 C851 0.949 . S
H876 C853 0.950 . S
H877 C855 0.950 . S
C878 C879 1.349 . S
C878 C880 1.327 . S
C878 H903 0.950 . S
C879 C878 1.349 . S
C879 C895 1.349 . S
C880 C878 1.327 . S
C880 C899 1.429 . S
C880 H904 0.950 . S
C881 C898 1.574 . S
C881 C900 1.368 . S
C881 H905 0.949 . S
H882 C886 0.949 . S
C883 C884 1.349 . S
C883 C885 1.327 . S
C883 H906 0.950 . S
C884 C883 1.349 . S
C884 C896 1.349 . S
C885 C883 1.327 . S
C885 C901 1.429 . S
C885 H907 0.950 . S
C886 H882 0.949 . S
C886 C894 1.574 . S
C886 C902 1.368 . S
H887 C895 0.950 . S
H888 C893 0.950 . S
H889 C894 0.949 . S
H890 C896 0.950 . S
H891 C897 0.950 . S
H892 C898 0.949 . S
C893 H888 0.950 . S
C893 C895 1.327 . S
C893 C899 1.429 . S
C894 C886 1.574 . S
C894 H889 0.949 . S
C894 C900 1.368 . S
C895 C879 1.349 . S
C895 H887 0.950 . S
C895 C893 1.327 . S
C896 C884 1.349 . S
C896 H890 0.950 . S
C896 C897 1.327 . S
C897 H891 0.950 . S
C897 C896 1.327 . S
C897 C901 1.429 . S
C898 C881 1.574 . S
C898 H892 0.949 . S
C898 C902 1.368 . S
C899 C880 1.429 . S
C899 C893 1.429 . S
C899 C900 1.523 . S
C900 C881 1.368 . S
C900 C894 1.368 . S
C900 C899 1.523 . S
C901 C885 1.429 . S
C901 C897 1.429 . S
C901 C902 1.523 . S
C902 C886 1.368 . S
C902 C898 1.368 . S
C902 C901 1.523 . S
H903 C878 0.950 . S
H904 C880 0.950 . S
H905 C881 0.949 . S
H906 C883 0.950 . S
H907 C885 0.950 . S
C908 C909 1.349 . S
C908 C910 1.327 . S
C908 H933 0.950 . S
C909 C908 1.349 . S
C909 C925 1.349 . S
C910 C908 1.327 . S
C910 C929 1.429 . S
C910 H934 0.950 . S
C911 C928 1.574 . S
C911 C930 1.368 . S
C911 H935 0.949 . S
H912 C916 0.949 . S
C913 C914 1.349 . S
C913 C915 1.327 . S
C913 H936 0.950 . S
C914 C913 1.349 . S
C914 C926 1.349 . S
C915 C913 1.327 . S
C915 C931 1.429 . S
C915 H937 0.950 . S
C916 H912 0.949 . S
C916 C924 1.574 . S
C916 C932 1.368 . S
H917 C925 0.950 . S
H918 C923 0.950 . S
H919 C924 0.949 . S
H920 C926 0.950 . S
H921 C927 0.950 . S
H922 C928 0.949 . S
C923 H918 0.950 . S
C923 C925 1.327 . S
C923 C929 1.429 . S
C924 C916 1.574 . S
C924 H919 0.949 . S
C924 C930 1.368 . S
C925 C909 1.349 . S
C925 H917 0.950 . S
C925 C923 1.327 . S
C926 C914 1.349 . S
C926 H920 0.950 . S
C926 C927 1.327 . S
C927 H921 0.950 . S
C927 C926 1.327 . S
C927 C931 1.429 . S
C928 C911 1.574 . S
C928 H922 0.949 . S
C928 C932 1.368 . S
C929 C910 1.429 . S
C929 C923 1.429 . S
C929 C930 1.523 . S
C930 C911 1.368 . S
C930 C924 1.368 . S
C930 C929 1.523 . S
C931 C915 1.429 . S
C931 C927 1.429 . S
C931 C932 1.523 . S
C932 C916 1.368 . S
C932 C928 1.368 . S
C932 C931 1.523 . S
H933 C908 0.950 . S
H934 C910 0.950 . S
H935 C911 0.949 . S
H936 C913 0.950 . S
H937 C915 0.950 . S
C938 C939 1.349 . S
C938 C940 1.327 . S
C938 H963 0.950 . S
C939 C938 1.349 . S
C939 C955 1.349 . S
C940 C938 1.327 . S
C940 C959 1.429 . S
C940 H964 0.950 . S
C941 C958 1.574 . S
C941 C960 1.368 . S
C941 H965 0.949 . S
H942 C946 0.949 . S
C943 C944 1.349 . S
C943 C945 1.327 . S
C943 H966 0.950 . S
C944 C943 1.349 . S
C944 C956 1.349 . S
C945 C943 1.327 . S
C945 C961 1.429 . S
C945 H967 0.950 . S
C946 H942 0.949 . S
C946 C954 1.574 . S
C946 C962 1.368 . S
H947 C955 0.950 . S
H948 C953 0.950 . S
H949 C954 0.949 . S
H950 C956 0.950 . S
H951 C957 0.950 . S
H952 C958 0.949 . S
C953 H948 0.950 . S
C953 C955 1.327 . S
C953 C959 1.429 . S
C954 C946 1.574 . S
C954 H949 0.949 . S
C954 C960 1.368 . S
C955 C939 1.349 . S
C955 H947 0.950 . S
C955 C953 1.327 . S
C956 C944 1.349 . S
C956 H950 0.950 . S
C956 C957 1.327 . S
C957 H951 0.950 . S
C957 C956 1.327 . S
C957 C961 1.429 . S
C958 C941 1.574 . S
C958 H952 0.949 . S
C958 C962 1.368 . S
C959 C940 1.429 . S
C959 C953 1.429 . S
C959 C960 1.523 . S
C960 C941 1.368 . S
C960 C954 1.368 . S
C960 C959 1.523 . S
C961 C945 1.429 . S
C961 C957 1.429 . S
C961 C962 1.523 . S
C962 C946 1.368 . S
C962 C958 1.368 . S
C962 C961 1.523 . S
H963 C938 0.950 . S
H964 C940 0.950 . S
H965 C941 0.949 . S
H966 C943 0.950 . S
H967 C945 0.950 . S
C968 C969 1.349 . S
C968 C970 1.327 . S
C968 H993 0.950 . S
C969 C968 1.349 . S
C969 C985 1.349 . S
C970 C968 1.327 . S
C970 C989 1.429 . S
C970 H994 0.950 . S
C971 C988 1.574 . S
C971 C990 1.368 . S
C971 H995 0.949 . S
H972 C976 0.949 . S
C973 C974 1.349 . S
C973 C975 1.327 . S
C973 H996 0.950 . S
C974 C973 1.349 . S
C974 C986 1.349 . S
C975 C973 1.327 . S
C975 C991 1.429 . S
C975 H997 0.950 . S
C976 H972 0.949 . S
C976 C984 1.574 . S
C976 C992 1.368 . S
H977 C985 0.950 . S
H978 C983 0.950 . S
H979 C984 0.949 . S
H980 C986 0.950 . S
H981 C987 0.950 . S
H982 C988 0.949 . S
C983 H978 0.950 . S
C983 C985 1.327 . S
C983 C989 1.429 . S
C984 C976 1.574 . S
C984 H979 0.949 . S
C984 C990 1.368 . S
C985 C969 1.349 . S
C985 H977 0.950 . S
C985 C983 1.327 . S
C986 C974 1.349 . S
C986 H980 0.950 . S
C986 C987 1.327 . S
C987 H981 0.950 . S
C987 C986 1.327 . S
C987 C991 1.429 . S
C988 C971 1.574 . S
C988 H982 0.949 . S
C988 C992 1.368 . S
C989 C970 1.429 . S
C989 C983 1.429 . S
C989 C990 1.523 . S
C990 C971 1.368 . S
C990 C984 1.368 . S
C990 C989 1.523 . S
C991 C975 1.429 . S
C991 C987 1.429 . S
C991 C992 1.523 . S
C992 C976 1.368 . S
C992 C988 1.368 . S
C992 C991 1.523 . S
H993 C968 0.950 . S
H994 C970 0.950 . S
H995 C971 0.949 . S
H996 C973 0.950 . S
H997 C975 0.950 . S
C998 C999 1.349 . S
C998 C1000 1.327 . S
C998 H1023 0.950 . S
C999 C998 1.349 . S
C999 C1015 1.349 . S
C1000 C998 1.327 . S
C1000 C1019 1.429 . S
C1000 H1024 0.950 . S
C1001 C1018 1.574 . S
C1001 C1020 1.368 . S
C1001 H1025 0.949 . S
H1002 C1006 0.949 . S
C1003 C1004 1.349 . S
C1003 C1005 1.327 . S
C1003 H1026 0.950 . S
C1004 C1003 1.349 . S
C1004 C1016 1.349 . S
C1005 C1003 1.327 . S
C1005 C1021 1.429 . S
C1005 H1027 0.950 . S
C1006 H1002 0.949 . S
C1006 C1014 1.574 . S
C1006 C1022 1.368 . S
H1007 C1015 0.950 . S
H1008 C1013 0.950 . S
H1009 C1014 0.949 . S
H1010 C1016 0.950 . S
H1011 C1017 0.950 . S
H1012 C1018 0.949 . S
C1013 H1008 0.950 . S
C1013 C1015 1.327 . S
C1013 C1019 1.429 . S
C1014 C1006 1.574 . S
C1014 H1009 0.949 . S
C1014 C1020 1.368 . S
C1015 C999 1.349 . S
C1015 H1007 0.950 . S
C1015 C1013 1.327 . S
C1016 C1004 1.349 . S
C1016 H1010 0.950 . S
C1016 C1017 1.327 . S
C1017 H1011 0.950 . S
C1017 C1016 1.327 . S
C1017 C1021 1.429 . S
C1018 C1001 1.574 . S
C1018 H1012 0.949 . S
C1018 C1022 1.368 . S
C1019 C1000 1.429 . S
C1019 C1013 1.429 . S
C1019 C1020 1.523 . S
C1020 C1001 1.368 . S
C1020 C1014 1.368 . S
C1020 C1019 1.523 . S
C1021 C1005 1.429 . S
C1021 C1017 1.429 . S
C1021 C1022 1.523 . S
C1022 C1006 1.368 . S
C1022 C1018 1.368 . S
C1022 C1021 1.523 . S
H1023 C998 0.950 . S
H1024 C1000 0.950 . S
H1025 C1001 0.949 . S
H1026 C1003 0.950 . S
H1027 C1005 0.950 . S
C1028 C1029 1.349 . S
C1028 C1030 1.327 . S
C1028 H1053 0.950 . S
C1029 C1028 1.349 . S
C1029 C1045 1.349 . S
C1030 C1028 1.327 . S
C1030 C1049 1.429 . S
C1030 H1054 0.950 . S
C1031 C1048 1.574 . S
C1031 C1050 1.368 . S
C1031 H1055 0.949 . S
H1032 C1036 0.949 . S
C1033 C1034 1.349 . S
C1033 C1035 1.327 . S
C1033 H1056 0.950 . S
C1034 C1033 1.349 . S
C1034 C1046 1.349 . S
C1035 C1033 1.327 . S
C1035 C1051 1.429 . S
C1035 H1057 0.950 . S
C1036 H1032 0.949 . S
C1036 C1044 1.574 . S
C1036 C1052 1.368 . S
H1037 C1045 0.950 . S
H1038 C1043 0.950 . S
H1039 C1044 0.949 . S
H1040 C1046 0.950 . S
H1041 C1047 0.950 . S
H1042 C1048 0.949 . S
C1043 H1038 0.950 . S
C1043 C1045 1.327 . S
C1043 C1049 1.429 . S
C1044 C1036 1.574 . S
C1044 H1039 0.949 . S
C1044 C1050 1.368 . S
C1045 C1029 1.349 . S
C1045 H1037 0.950 . S
C1045 C1043 1.327 . S
C1046 C1034 1.349 . S
C1046 H1040 0.950 . S
C1046 C1047 1.327 . S
C1047 H1041 0.950 . S
C1047 C1046 1.327 . S
C1047 C1051 1.429 . S
C1048 C1031 1.574 . S
C1048 H1042 0.949 . S
C1048 C1052 1.368 . S
C1049 C1030 1.429 . S
C1049 C1043 1.429 . S
C1049 C1050 1.523 . S
C1050 C1031 1.368 . S
C1050 C1044 1.368 . S
C1050 C1049 1.523 . S
C1051 C1035 1.429 . S
C1051 C1047 1.429 . S
C1051 C1052 1.523 . S
C1052 C1036 1.368 . S
C1052 C1048 1.368 . S
C1052 C1051 1.523 . S
H1053 C1028 0.950 . S
H1054 C1030 0.950 . S
H1055 C1031 0.949 . S
H1056 C1033 0.950 . S
H1057 C1035 0.950 . S
C1058 C1059 1.349 . S
C1058 C1060 1.327 . S
C1058 H1083 0.950 . S
C1059 C1058 1.349 . S
C1059 C1075 1.349 . S
C1060 C1058 1.327 . S
C1060 C1079 1.429 . S
C1060 H1084 0.950 . S
C1061 C1078 1.574 . S
C1061 C1080 1.368 . S
C1061 H1085 0.949 . S
H1062 C1066 0.949 . S
C1063 C1064 1.349 . S
C1063 C1065 1.327 . S
C1063 H1086 0.950 . S
C1064 C1063 1.349 . S
C1064 C1076 1.349 . S
C1065 C1063 1.327 . S
C1065 C1081 1.429 . S
C1065 H1087 0.950 . S
C1066 H1062 0.949 . S
C1066 C1074 1.574 . S
C1066 C1082 1.368 . S
H1067 C1075 0.950 . S
H1068 C1073 0.950 . S
H1069 C1074 0.949 . S
H1070 C1076 0.950 . S
H1071 C1077 0.950 . S
H1072 C1078 0.949 . S
C1073 H1068 0.950 . S
C1073 C1075 1.327 . S
C1073 C1079 1.429 . S
C1074 C1066 1.574 . S
C1074 H1069 0.949 . S
C1074 C1080 1.368 . S
C1075 C1059 1.349 . S
C1075 H1067 0.950 . S
C1075 C1073 1.327 . S
C1076 C1064 1.349 . S
C1076 H1070 0.950 . S
C1076 C1077 1.327 . S
C1077 H1071 0.950 . S
C1077 C1076 1.327 . S
C1077 C1081 1.429 . S
C1078 C1061 1.574 . S
C1078 H1072 0.949 . S
C1078 C1082 1.368 . S
C1079 C1060 1.429 . S
C1079 C1073 1.429 . S
C1079 C1080 1.523 . S
C1080 C1061 1.368 . S
C1080 C1074 1.368 . S
C1080 C1079 1.523 . S
C1081 C1065 1.429 . S
C1081 C1077 1.429 . S
C1081 C1082 1.523 . S
C1082 C1066 1.368 . S
C1082 C1078 1.368 . S
C1082 C1081 1.523 . S
H1083 C1058 0.950 . S
H1084 C1060 0.950 . S
H1085 C1061 0.949 . S
H1086 C1063 0.950 . S
H1087 C1065 0.950 . S
C369 C1 1.522 . S
C374 C307 1.483 . S
C399 C67 1.322 . S
C404 C310 1.271 . S
C434 C346 1.705 . S
C429 C97 1.733 . S
C459 C133 1.637 . S
C464 C366 1.627 . S
C494 C320 1.737 . S
C489 C25 1.775 . S
C524 C297 1.553 . S
C519 C37 1.579 . S
C554 C350 1.531 . S
C549 C103 1.641 . S
C584 C330 1.364 . S
C579 C109 1.437 . S
C609 C31 1.360 . S
C614 C360 1.307 . S
C644 C326 1.566 . S
C639 C73 1.589 . S
C669 C139 1.654 . S
C674 C292 1.600 . S
C699 C61 1.343 . S
C704 C340 1.315 . S
C734 C306 1.493 . S
C729 C175 1.508 . S
C759 C181 1.302 . S
C764 C312 1.254 . S
C789 C247 1.746 . S
C794 C347 1.723 . S
C819 C277 1.629 . S
C824 C367 1.619 . S
C849 C145 1.755 . S
C854 C317 1.733 . S
C884 C300 1.559 . S
C879 C211 1.585 . S
C914 C352 1.520 . S
C909 C217 1.619 . S
C944 C332 1.385 . S
C939 C283 1.448 . S
C969 C169 1.334 . S
C974 C357 1.302 . S
C1004 C327 1.573 . S
C999 C241 1.588 . S
C1034 C290 1.583 . S
C1029 C253 1.648 . S
C1059 C205 1.349 . S
C1064 C337 1.321 . S
