# Generated by pormake.
# Topology pyr, (3,6)-cn, num edge types: 1
# Building blocks:
#     Node 0, Type 0, BuildingBlock: CUQRIR_clean_linker_1, # of connection points: 3
#     Node 1, Type 0, BuildingBlock: CUQRIR_clean_linker_1, # of connection points: 3
#     Node 2, Type 0, BuildingBlock: CUQRIR_clean_linker_1, # of connection points: 3
#     Node 3, Type 0, BuildingBlock: CUQRIR_clean_linker_1, # of connection points: 3
#     Node 4, Type 0, BuildingBlock: CUQRIR_clean_linker_1, # of connection points: 3
#     Node 5, Type 0, BuildingBlock: CUQRIR_clean_linker_1, # of connection points: 3
#     Node 6, Type 0, BuildingBlock: CUQRIR_clean_linker_1, # of connection points: 3
#     Node 7, Type 0, BuildingBlock: CUQRIR_clean_linker_1, # of connection points: 3
#     Node 8, Type 1, BuildingBlock: GEDQOX_clean_sbu_0, # of connection points: 6
#     Node 9, Type 1, BuildingBlock: GEDQOX_clean_sbu_0, # of connection points: 6
#     Node 10, Type 1, BuildingBlock: GEDQOX_clean_sbu_0, # of connection points: 6
#     Node 11, Type 1, BuildingBlock: GEDQOX_clean_sbu_0, # of connection points: 6
#     Edge 12, Type (0, 1), BuildingBlock: ZUJKAS_clean_linker_0, # of connection points: 2
#     Edge 13, Type (0, 1), BuildingBlock: ZUJKAS_clean_linker_0, # of connection points: 2
#     Edge 14, Type (0, 1), BuildingBlock: ZUJKAS_clean_linker_0, # of connection points: 2
#     Edge 15, Type (0, 1), BuildingBlock: ZUJKAS_clean_linker_0, # of connection points: 2
#     Edge 16, Type (0, 1), BuildingBlock: ZUJKAS_clean_linker_0, # of connection points: 2
#     Edge 17, Type (0, 1), BuildingBlock: ZUJKAS_clean_linker_0, # of connection points: 2
#     Edge 18, Type (0, 1), BuildingBlock: ZUJKAS_clean_linker_0, # of connection points: 2
#     Edge 19, Type (0, 1), BuildingBlock: ZUJKAS_clean_linker_0, # of connection points: 2
#     Edge 20, Type (0, 1), BuildingBlock: ZUJKAS_clean_linker_0, # of connection points: 2
#     Edge 21, Type (0, 1), BuildingBlock: ZUJKAS_clean_linker_0, # of connection points: 2
#     Edge 22, Type (0, 1), BuildingBlock: ZUJKAS_clean_linker_0, # of connection points: 2
#     Edge 23, Type (0, 1), BuildingBlock: ZUJKAS_clean_linker_0, # of connection points: 2
#     Edge 24, Type (0, 1), BuildingBlock: ZUJKAS_clean_linker_0, # of connection points: 2
#     Edge 25, Type (0, 1), BuildingBlock: ZUJKAS_clean_linker_0, # of connection points: 2
#     Edge 26, Type (0, 1), BuildingBlock: ZUJKAS_clean_linker_0, # of connection points: 2
#     Edge 27, Type (0, 1), BuildingBlock: ZUJKAS_clean_linker_0, # of connection points: 2
#     Edge 28, Type (0, 1), BuildingBlock: ZUJKAS_clean_linker_0, # of connection points: 2
#     Edge 29, Type (0, 1), BuildingBlock: ZUJKAS_clean_linker_0, # of connection points: 2
#     Edge 30, Type (0, 1), BuildingBlock: ZUJKAS_clean_linker_0, # of connection points: 2
#     Edge 31, Type (0, 1), BuildingBlock: ZUJKAS_clean_linker_0, # of connection points: 2
#     Edge 32, Type (0, 1), BuildingBlock: ZUJKAS_clean_linker_0, # of connection points: 2
#     Edge 33, Type (0, 1), BuildingBlock: ZUJKAS_clean_linker_0, # of connection points: 2
#     Edge 34, Type (0, 1), BuildingBlock: ZUJKAS_clean_linker_0, # of connection points: 2
#     Edge 35, Type (0, 1), BuildingBlock: ZUJKAS_clean_linker_0, # of connection points: 2
# Relax obj value: 0.149
# Max RMSD: 0.233
# Mean RMSD: 0.161
data_MOF--net-pyr--node1-GEDQOX_clean_sbu_0--node2-CUQRIR_clean_linker_1--edge1-ZUJKAS_clean_linker_0
_symmetry_space_group_name_H-M    P1
_symmetry_Int_Tables_number       1
_symmetry_cell_setting            triclinic
loop_
_symmetry_equiv_pos_as_xyz
'x, y, z'
_cell_length_a     48.586088
_cell_length_b     48.270119
_cell_length_c     42.365654
_cell_angle_alpha  87.078563
_cell_angle_beta   94.638256
_cell_angle_gamma 91.774737
loop_
_atom_site_label
_atom_site_type_symbol
_atom_site_fract_x
_atom_site_fract_y
_atom_site_fract_z
_atom_type_partial_charge
C0 C 0.20513 0.21649 0.17822 0.0
N1 N 0.2218 0.19394 0.18447 0.0
N2 N 0.21268 0.23331 0.15326 0.0
C3 C 0.18094 0.22209 0.19683 0.0
C4 C 0.2351 0.21977 0.14436 0.0
N5 N 0.24128 0.196 0.16306 0.0
C6 C 0.25154 0.23023 0.1174 0.0
H7 H 0.1689 0.20267 0.2017 0.0
H8 H 0.16696 0.2374 0.1841 0.0
H9 H 0.18877 0.23029 0.21996 0.0
H10 H 0.25894 0.21264 0.10478 0.0
H11 H 0.26979 0.2424 0.127 0.0
H12 H 0.23929 0.24397 0.10028 0.0
C13 C 0.37073 0.76057 0.75624 0.0
N14 N 0.37052 0.78407 0.77239 0.0
N15 N 0.39574 0.74876 0.76079 0.0
C16 C 0.3478 0.75117 0.73272 0.0
C17 C 0.41094 0.76622 0.77975 0.0
N18 N 0.39565 0.7878 0.78666 0.0
C19 C 0.44037 0.76169 0.79227 0.0
H20 H 0.33273 0.73803 0.74547 0.0
H21 H 0.35575 0.73888 0.71417 0.0
H22 H 0.3368 0.76915 0.72091 0.0
H23 H 0.45433 0.77289 0.7762 0.0
H24 H 0.44511 0.7393 0.79328 0.0
H25 H 0.4444 0.76991 0.81624 0.0
C26 C 0.7381 0.37186 0.80853 0.0
N27 N 0.75729 0.37206 0.83352 0.0
N28 N 0.74143 0.39451 0.7889 0.0
C29 C 0.7143 0.35115 0.8051 0.0
C30 C 0.76305 0.40873 0.80313 0.0
N31 N 0.77249 0.39523 0.83052 0.0
C32 C 0.77589 0.43486 0.78921 0.0
H33 H 0.72055 0.33369 0.79145 0.0
H34 H 0.69588 0.36068 0.79224 0.0
H35 H 0.70852 0.34265 0.82854 0.0
H36 H 0.76689 0.45307 0.79911 0.0
H37 H 0.77173 0.43631 0.76305 0.0
H38 H 0.79855 0.43559 0.79529 0.0
C39 C 0.82141 0.79068 0.29062 0.0
N40 N 0.84481 0.80544 0.28483 0.0
N41 N 0.81301 0.79634 0.31925 0.0
C42 C 0.80874 0.76806 0.2704 0.0
C43 C 0.83225 0.81483 0.33075 0.0
N44 N 0.85183 0.82003 0.3101 0.0
C45 C 0.83154 0.82811 0.36204 0.0
H46 H 0.80236 0.74989 0.28548 0.0
H47 H 0.82306 0.76107 0.25353 0.0
H48 H 0.78997 0.77604 0.2567 0.0
H49 H 0.844 0.81589 0.3806 0.0
H50 H 0.81005 0.82857 0.36906 0.0
H51 H 0.84042 0.84956 0.3607 0.0
C52 C 0.85304 0.87214 0.88467 0.0
N53 N 0.87475 0.86745 0.86655 0.0
N54 N 0.83798 0.89493 0.87398 0.0
C55 C 0.84557 0.85328 0.91219 0.0
C56 C 0.85186 0.90393 0.84812 0.0
N57 N 0.87395 0.88767 0.84318 0.0
C58 C 0.84489 0.93007 0.82866 0.0
H59 H 0.82318 0.85394 0.91544 0.0
H60 H 0.85732 0.86019 0.93408 0.0
H61 H 0.851 0.83155 0.90872 0.0
H62 H 0.8346 0.94489 0.84271 0.0
H63 H 0.83067 0.92474 0.8079 0.0
H64 H 0.86374 0.94031 0.81984 0.0
C65 C 0.72146 0.30068 0.30342 0.0
N66 N 0.72578 0.278 0.2871 0.0
N67 N 0.69482 0.30835 0.29841 0.0
C68 C 0.74274 0.31405 0.32606 0.0
C69 C 0.68299 0.28933 0.27884 0.0
N70 N 0.70173 0.27071 0.27222 0.0
C71 C 0.65282 0.28815 0.26757 0.0
H72 H 0.75213 0.29801 0.34294 0.0
H73 H 0.73391 0.33035 0.33941 0.0
H74 H 0.75945 0.32374 0.31257 0.0
H75 H 0.64407 0.30915 0.26544 0.0
H76 H 0.64144 0.27546 0.2851 0.0
H77 H 0.64958 0.27849 0.2443 0.0
C78 C 0.36857 0.62085 0.16009 0.0
N79 N 0.39383 0.63227 0.16803 0.0
N80 N 0.358 0.63188 0.1318 0.0
C81 C 0.35282 0.60155 0.18165 0.0
C82 C 0.37762 0.65055 0.123 0.0
N83 N 0.39934 0.65087 0.14505 0.0
C84 C 0.3757 0.66814 0.09261 0.0
H85 H 0.35713 0.57983 0.17671 0.0
H86 H 0.33024 0.6045 0.17757 0.0
H87 H 0.35922 0.60482 0.20695 0.0
H88 H 0.3667 0.68832 0.09689 0.0
H89 H 0.36221 0.65784 0.07404 0.0
H90 H 0.39652 0.67227 0.08408 0.0
C91 C 0.21968 0.24525 0.79986 0.0
N92 N 0.22513 0.24344 0.76919 0.0
N93 N 0.23597 0.26509 0.81387 0.0
C94 C 0.19851 0.2278 0.81637 0.0
C95 C 0.25137 0.27549 0.79055 0.0
N96 N 0.24505 0.26208 0.7635 0.0
C97 C 0.26979 0.30115 0.79294 0.0
H98 H 0.17829 0.23803 0.81283 0.0
H99 H 0.20441 0.22573 0.84223 0.0
H100 H 0.19622 0.20691 0.80654 0.0
H101 H 0.29154 0.29477 0.79749 0.0
H102 H 0.26475 0.31408 0.81246 0.0
H103 H 0.26804 0.31401 0.77044 0.0
Nd104 Nd 0.07663 1.00936 0.51658 0.0
Nd105 Nd 0.03834 0.05313 0.51236 0.0
C106 C 0.10346 0.96236 0.52396 0.0
C107 C 0.12016 0.94901 0.5508 0.0
C108 C 0.11557 0.92091 0.55934 0.0
C109 C 0.13165 0.90809 0.58453 0.0
C110 C 0.15278 0.92314 0.60149 0.0
C111 C 0.15694 0.95144 0.59309 0.0
C112 C 0.14071 0.96426 0.56823 0.0
C113 C 0.09654 0.05382 0.55056 0.0
C114 C 0.02917 1.00745 0.57116 0.0
C115 C 1.01103 0.1 0.50604 0.0
C116 C 0.99467 0.11457 0.47997 0.0
C117 C 0.98945 0.14281 0.4816 0.0
C118 C 0.97163 0.15609 0.45842 0.0
C119 C 0.9586 0.14119 0.43344 0.0
C120 C 0.96469 0.11311 0.4313 0.0
C121 C 0.9827 0.09994 0.45428 0.0
C122 C 1.01904 1.00863 0.47801 0.0
C123 C 0.08598 0.05501 0.45782 0.0
O124 O 0.07695 0.96361 0.52678 0.0
O125 O 0.11383 0.98532 0.51164 0.0
O126 O 0.11147 0.03917 0.53427 0.0
O127 O 0.0722 0.04411 0.55017 0.0
O128 O 0.04565 0.99279 0.55504 0.0
O129 O 1.02591 0.03394 0.56179 0.0
O130 O 0.03763 0.09904 0.50368 0.0
O131 O 1.00039 0.07633 0.51605 0.0
O132 O 1.00407 0.02238 0.49523 0.0
O133 O 0.04317 0.01882 0.47839 0.0
O134 O 0.06882 0.0695 0.47328 0.0
O135 O 0.08981 0.02872 0.46764 0.0
H136 H 0.09963 0.90885 0.54643 0.0
H137 H 0.12755 0.88638 0.59063 0.0
H138 H 0.17326 0.96364 0.60514 0.0
H139 H 0.14456 0.98608 0.56243 0.0
H140 H 0.99852 0.15439 0.50128 0.0
H141 H 0.96715 0.1777 0.46077 0.0
H142 H 0.95517 0.10123 0.41212 0.0
H143 H 0.98666 0.07812 0.45251 0.0
Nd144 Nd 0.53844 0.02183 0.05111 0.0
Nd145 Nd 0.53976 0.05405 1.00432 0.0
C146 C 0.53508 0.97892 0.09267 0.0
C147 C 0.54094 0.94926 0.09583 0.0
C148 C 0.54431 0.93399 0.06917 0.0
C149 C 0.54713 0.90521 0.07249 0.0
C150 C 0.54673 0.89138 0.10252 0.0
C151 C 0.54463 0.90708 0.12926 0.0
C152 C 0.54173 0.93577 0.1259 0.0
C153 C 0.49599 0.06068 0.05854 0.0
C154 C 0.50749 1.00067 0.98779 0.0
C155 C 0.54092 0.09925 0.96623 0.0
C156 C 0.56283 0.12028 0.96091 0.0
C157 C 0.55627 0.14841 0.95799 0.0
C158 C 0.57721 0.16885 0.95654 0.0
C159 C 0.60506 0.16145 0.95785 0.0
C160 C 0.61155 0.13322 0.96031 0.0
C161 C 0.59063 0.11281 0.9621 0.0
C162 C 0.58289 0.01668 0.9957 0.0
C163 C 0.5782 0.07162 0.06681 0.0
O164 O 0.55624 0.99608 0.09236 0.0
O165 O 0.51508 0.98622 0.0719 0.0
O166 O 0.51597 0.05375 0.07923 0.0
O167 O 0.50048 0.04912 0.03277 0.0
O168 O 0.52541 0.99274 1.01095 0.0
O169 O 0.50449 0.0273 0.98233 0.0
O170 O 0.53174 0.09873 0.99429 0.0
O171 O 0.54456 0.07443 0.95677 0.0
O172 O 0.56389 0.02515 0.97448 0.0
O173 O 0.57779 0.02667 0.02229 0.0
O174 O 0.56543 0.08076 0.04014 0.0
O175 O 0.57333 0.04613 0.07675 0.0
H176 H 0.544 0.94418 0.04578 0.0
H177 H 0.54894 0.89371 0.05149 0.0
H178 H 0.54383 0.89706 0.15264 0.0
H179 H 0.53917 0.94732 0.14669 0.0
H180 H 0.53498 0.15459 0.95749 0.0
H181 H 0.57162 0.19045 0.95432 0.0
H182 H 0.63285 0.12697 0.96164 0.0
H183 H 0.59624 0.09122 0.96509 0.0
Nd184 Nd 0.48954 0.49819 0.51224 0.0
Nd185 Nd 0.54024 0.53314 0.5295 0.0
C186 C 0.44009 0.47675 0.49513 0.0
C187 C 0.41796 0.46251 0.51168 0.0
C188 C 0.39346 0.45413 0.49466 0.0
C189 C 0.37337 0.43832 0.50989 0.0
C190 C 0.37758 0.43058 0.54238 0.0
C191 C 0.402 0.43966 0.55941 0.0
C192 C 0.42198 0.45552 0.54419 0.0
C193 C 0.52383 0.47545 0.56096 0.0
C194 C 0.48771 0.54465 0.566 0.0
C195 C 0.58974 0.55492 0.54486 0.0
C196 C 0.61042 0.56939 0.52633 0.0
C197 C 0.63036 0.58694 0.54121 0.0
C198 C 0.64785 0.60353 0.52311 0.0
C199 C 0.64552 0.60284 0.48982 0.0
C200 C 0.62607 0.58444 0.47514 0.0
C201 C 0.6086 0.56792 0.49325 0.0
C202 C 0.50686 0.55516 0.47895 0.0
C203 C 0.54354 0.48535 0.47846 0.0
O204 O 0.4445 0.50306 0.50033 0.0
O205 O 0.46292 0.46309 0.49566 0.0
O206 O 0.51008 0.46075 0.54004 0.0
O207 O 0.51758 0.50045 0.55715 0.0
O208 O 0.47345 0.53248 0.54232 0.0
O209 O 0.51472 0.54255 0.57 0.0
O210 O 0.58536 0.52856 0.53992 0.0
O211 O 0.56692 0.5683 0.54605 0.0
O212 O 0.52011 0.56999 0.5001 0.0
O213 O 0.5128 0.53015 0.48385 0.0
O214 O 0.5569 0.49789 0.50232 0.0
O215 O 0.51655 0.48746 0.47299 0.0
H216 H 0.39011 0.45935 0.46949 0.0
H217 H 0.35466 0.43198 0.49619 0.0
H218 H 0.40616 0.43375 0.5843 0.0
H219 H 0.44093 0.4617 0.55761 0.0
H220 H 0.63178 0.5885 0.56672 0.0
H221 H 0.66239 0.61771 0.53509 0.0
H222 H 0.62404 0.58317 0.4496 0.0
H223 H 0.59311 0.55459 0.48138 0.0
Nd224 Nd 1.02578 0.54639 0.03049 0.0
Nd225 Nd 0.06524 0.555 0.98075 0.0
C226 C 0.98148 0.5436 0.06268 0.0
C227 C 0.96431 0.56543 0.0734 0.0
C228 C 0.95404 0.5867 0.05219 0.0
C229 C 0.94207 0.60983 0.06344 0.0
C230 C 0.94009 0.61212 0.09612 0.0
C231 C 0.94911 0.59013 0.11712 0.0
C232 C 0.9611 0.56702 0.10585 0.0
C233 C 0.07367 0.57359 0.0503 0.0
C234 C 1.01972 0.60464 0.98003 0.0
C235 C 0.11066 0.55808 0.95051 0.0
C236 C 0.13327 0.53846 0.94954 0.0
C237 C 0.14917 0.52979 0.97734 0.0
C238 C 0.16749 0.5081 0.97694 0.0
C239 C 0.17017 0.49449 0.94883 0.0
C240 C 0.15519 0.50413 0.92078 0.0
C241 C 0.13707 0.52597 0.92113 0.0
C242 C 1.01733 0.52723 0.96162 0.0
C243 C 0.07171 0.49708 0.03059 0.0
O244 O 0.98048 0.54026 0.0321 0.0
O245 O 1.00661 0.54286 0.07624 0.0
O246 O 0.06132 0.55518 0.06794 0.0
O247 O 0.06002 0.57799 0.02406 0.0
O248 O 1.00872 0.58761 1.00196 0.0
O249 O 0.04342 0.5977 0.96915 0.0
O250 O 0.10859 0.56962 0.97747 0.0
O251 O 0.08669 0.55009 0.93718 0.0
O252 O 0.029 0.54623 0.94395 0.0
O253 O 0.03131 0.5229 0.98765 0.0
O254 O 0.08364 0.51532 1.01073 0.0
O255 O 0.0468 0.50278 0.03937 0.0
H256 H 0.95609 0.58598 0.027 0.0
H257 H 0.93488 0.62619 0.04661 0.0
H258 H 0.94811 0.59133 0.14246 0.0
H259 H 0.96902 0.55095 0.12265 0.0
H260 H 0.14678 0.53903 0.9997 0.0
H261 H 0.17902 0.50152 0.99885 0.0
H262 H 0.15635 0.49395 0.89876 0.0
H263 H 0.12502 0.53222 0.89942 0.0
H264 H 0.18824 0.14729 0.18307 0.0
H265 H 0.16736 0.12288 0.22813 0.0
H266 H 0.21857 0.1721 0.29258 0.0
H267 H 0.23923 0.19632 0.24742 0.0
H268 H 0.13515 0.1388 0.27157 0.0
H269 H 0.22756 0.10013 0.34235 0.0
H270 H 0.2296 0.13689 0.33393 0.0
H271 H 0.22893 0.1136 0.30199 0.0
C272 C 0.19622 0.15196 0.20686 0.0
C273 C 0.21704 0.17309 0.21078 0.0
C274 C 0.18363 0.13825 0.23308 0.0
C275 C 0.19107 0.14469 0.26506 0.0
C276 C 0.21234 0.1654 0.26902 0.0
H277 H 0.12723 0.03364 0.42379 0.0
H278 H 0.15127 0.05455 0.37914 0.0
C279 C 0.22471 0.17927 0.24275 0.0
C280 C 0.17582 0.13102 0.29349 0.0
H281 H 0.18579 0.09806 0.36816 0.0
C282 C 0.14654 0.12997 0.29254 0.0
C283 C 0.1896 0.1187 0.32168 0.0
C284 C 0.22062 0.11707 0.32507 0.0
C285 C 0.13135 0.11806 0.31797 0.0
C286 C 0.14514 0.10642 0.34652 0.0
C287 C 0.17442 0.10692 0.34719 0.0
C288 C 0.12981 0.09335 0.37519 0.0
C289 C 0.10026 0.11746 0.31337 0.0
C290 C 0.10926 0.10741 0.38976 0.0
C291 C 0.09537 0.09531 0.41594 0.0
C292 C 0.10101 0.06828 0.42925 0.0
C293 C 0.12167 0.05429 0.41484 0.0
C294 C 0.13575 0.0665 0.38887 0.0
H295 H 0.09289 0.11913 0.28785 0.0
H296 H 0.09135 0.09809 0.32412 0.0
H297 H 0.09232 0.13537 0.32493 0.0
H298 H 0.10407 0.12825 0.38121 0.0
H299 H 0.08001 0.10736 0.42581 0.0
H300 H 0.43821 0.82343 0.77706 0.0
H301 H 0.45495 0.86142 0.81055 0.0
H302 H 0.38998 0.84182 0.87241 0.0
H303 H 0.37293 0.80421 0.83824 0.0
H304 H 0.39703 0.89724 0.86263 0.0
H305 H 0.49868 0.85022 0.89481 0.0
H306 H 0.49169 0.85598 0.85281 0.0
H307 H 0.47044 0.83165 0.87431 0.0
C308 C 0.42768 0.82731 0.7979 0.0
C309 C 0.40467 0.81081 0.80558 0.0
C310 C 0.43722 0.84889 0.81703 0.0
C311 C 0.42417 0.85403 0.84448 0.0
C312 C 0.40053 0.8381 0.85152 0.0
H313 H 0.50276 0.94492 1.0 0.0
H314 H 0.48054 0.91019 0.96579 0.0
C315 C 0.39082 0.81669 0.83213 0.0
C316 C 0.4354 0.87573 0.86605 0.0
H317 H 0.4938 0.89642 0.90987 0.0
C318 C 0.41816 0.89703 0.87307 0.0
C319 C 0.46284 0.87519 0.88011 0.0
C320 C 0.4819 0.85189 0.87542 0.0
C321 C 0.4277 0.91801 0.89342 0.0
C322 C 0.45548 0.91807 0.90646 0.0
C323 C 0.47259 0.89658 0.89966 0.0
C324 C 0.46725 0.93972 0.92784 0.0
C325 C 0.40773 0.93947 0.90129 0.0
C326 C 0.46712 0.96799 0.91805 0.0
C327 C 0.47955 0.98799 0.93782 0.0
C328 C 0.4928 0.98 0.96747 0.0
C329 C 0.49281 0.95174 0.97724 0.0
C330 C 0.48011 0.93185 0.95769 0.0
H331 H 0.38595 0.9319 0.89735 0.0
H332 H 0.41154 0.94531 0.92631 0.0
H333 H 0.41033 0.95837 0.88568 0.0
H334 H 0.45799 0.97456 0.89482 0.0
H335 H 0.47943 1.00959 0.92953 0.0
H336 H 0.72621 0.36486 0.73792 0.0
H337 H 0.69133 0.37744 0.69462 0.0
H338 H 0.68141 0.456 0.73598 0.0
H339 H 0.71578 0.44316 0.77946 0.0
H340 H 0.63518 0.3915 0.70619 0.0
H341 H 0.69 0.47568 0.63993 0.0
H342 H 0.70795 0.45013 0.66592 0.0
H343 H 0.6918 0.47855 0.6822 0.0
C344 C 0.71673 0.38491 0.73737 0.0
C345 C 0.72358 0.40315 0.76172 0.0
C346 C 0.69695 0.39207 0.71276 0.0
C347 C 0.68409 0.41773 0.71203 0.0
C348 C 0.69151 0.43631 0.73587 0.0
H349 H 0.55262 0.50422 0.60674 0.0
H350 H 0.59146 0.48832 0.64267 0.0
C351 C 0.71112 0.42905 0.76057 0.0
C352 C 0.66131 0.42429 0.68786 0.0
H353 H 0.64154 0.47076 0.62761 0.0
C354 C 0.63658 0.40861 0.68872 0.0
C355 C 0.66333 0.44671 0.66536 0.0
C356 C 0.68975 0.46366 0.66299 0.0
C357 C 0.61331 0.41542 0.66833 0.0
C358 C 0.61518 0.43812 0.64606 0.0
C359 C 0.64017 0.45339 0.64476 0.0
C360 C 0.59116 0.44712 0.6247 0.0
C361 C 0.58669 0.39898 0.67173 0.0
C362 C 0.57813 0.4292 0.60268 0.0
C363 C 0.55571 0.43816 0.58235 0.0
C364 C 0.54629 0.46526 0.58352 0.0
C365 C 0.5594 0.48316 0.60548 0.0
C366 C 0.58164 0.47415 0.62591 0.0
H367 H 0.58683 0.38708 0.6949 0.0
H368 H 0.56871 0.4128 0.66946 0.0
H369 H 0.58384 0.38395 0.65271 0.0
H370 H 0.58554 0.40845 0.6009 0.0
H371 H 0.54613 0.42409 0.56534 0.0
H372 H 0.89172 0.77753 0.292 0.0
H373 H 0.91296 0.75543 0.24965 0.0
H374 H 0.85748 0.79809 0.18003 0.0
H375 H 0.83576 0.8194 0.22289 0.0
H376 H 0.85193 0.74457 0.17536 0.0
H377 H 0.96347 0.77004 0.18052 0.0
H378 H 0.95374 0.7592 0.21923 0.0
H379 H 0.93965 0.79032 0.19973 0.0
C380 C 0.8851 0.7831 0.26753 0.0
C381 C 0.86241 0.80012 0.26036 0.0
C382 C 0.89721 0.77056 0.2433 0.0
C383 C 0.88697 0.77523 0.21154 0.0
C384 C 0.86581 0.79428 0.20431 0.0
H385 H 0.95217 0.66581 0.07683 0.0
H386 H 0.93801 0.70831 0.09946 0.0
C387 C 0.85355 0.80658 0.22862 0.0
C388 C 0.89457 0.75641 0.18721 0.0
H389 H 0.94944 0.72458 0.16065 0.0
C390 C 0.87327 0.74072 0.17157 0.0
C391 C 0.92233 0.75146 0.18189 0.0
C392 C 0.94603 0.76892 0.19601 0.0
C393 C 0.87902 0.71906 0.15254 0.0
C394 C 0.9068 0.71246 0.14966 0.0
C395 C 0.92811 0.72934 0.16339 0.0
C396 C 0.91409 0.68695 0.13459 0.0
C397 C 0.85523 0.70303 0.13631 0.0
C398 C 0.90534 0.66089 0.14688 0.0
C399 C 0.91317 0.63662 0.13389 0.0
C400 C 0.93013 0.63792 0.10849 0.0
C401 C 0.93871 0.6641 0.09605 0.0
C402 C 0.93084 0.6884 0.10909 0.0
H403 H 0.83661 0.7159 0.13203 0.0
H404 H 0.86068 0.69558 0.1133 0.0
H405 H 0.84981 0.68475 0.15178 0.0
H406 H 0.89284 0.65929 0.16698 0.0
H407 H 0.90609 0.61682 0.14389 0.0
H408 H 0.2961 0.21223 0.16738 0.0
H409 H 0.3358 0.18925 0.14948 0.0
H410 H 0.28464 0.11655 0.13117 0.0
H411 H 0.24437 0.14061 0.14729 0.0
H412 H 0.36988 0.15433 0.15955 0.0
H413 H 0.31747 0.11008 0.05287 0.0
H414 H 0.30027 0.13331 0.0762 0.0
H415 H 0.30222 0.09685 0.08786 0.0
C416 C 0.29309 0.19117 0.15989 0.0
C417 C 0.26612 0.17875 0.15963 0.0
C418 C 0.31636 0.17769 0.14925 0.0
C419 C 0.31467 0.15058 0.13736 0.0
C420 C 0.28782 0.13759 0.13848 0.0
H421 H 0.44819 0.08227 0.02179 0.0
H422 H 0.40676 0.1033 0.03985 0.0
C423 C 0.2643 0.15132 0.14881 0.0
C424 C 0.34076 0.13671 0.12465 0.0
H425 H 0.36292 0.09505 0.06724 0.0
C426 C 0.36781 0.14148 0.13922 0.0
C427 C 0.34014 0.11991 0.09747 0.0
C428 C 0.31356 0.11494 0.07745 0.0
C429 C 0.39263 0.13057 0.12847 0.0
C430 C 0.39187 0.11254 0.10238 0.0
C431 C 0.36489 0.10807 0.08743 0.0
C432 C 0.41827 0.09874 0.09037 0.0
C433 C 0.41974 0.14 0.14487 0.0
C434 C 0.43997 0.08772 0.11145 0.0
C435 C 0.46423 0.07602 0.1009 0.0
C436 C 0.4686 0.07347 0.06837 0.0
C437 C 0.4466 0.08351 0.04701 0.0
C438 C 0.42234 0.09575 0.05765 0.0
H439 H 0.41805 0.16057 0.15509 0.0
H440 H 0.42569 0.125 0.16479 0.0
H441 H 0.4364 0.14163 0.12839 0.0
H442 H 0.43824 0.08768 0.13671 0.0
H443 H 0.47974 0.06851 0.11882 0.0
H444 H 0.3175 0.77488 0.78455 0.0
H445 H 0.27873 0.80368 0.76401 0.0
H446 H 0.3362 0.86716 0.73256 0.0
H447 H 0.37485 0.83761 0.75159 0.0
H448 H 0.25862 0.85608 0.76749 0.0
H449 H 0.29787 0.84166 0.65 0.0
H450 H 0.3118 0.8236 0.68573 0.0
H451 H 0.32195 0.85917 0.67706 0.0
C452 C 0.3217 0.79532 0.77399 0.0
C453 C 0.34893 0.80398 0.76912 0.0
C454 C 0.29964 0.81176 0.76234 0.0
C455 C 0.30461 0.83719 0.74596 0.0
C456 C 0.33194 0.84728 0.74446 0.0
H457 H 0.17553 0.94425 0.65714 0.0
H458 H 0.21117 0.92376 0.69422 0.0
C459 C 0.354 0.83062 0.75568 0.0
C460 C 0.28157 0.85099 0.72688 0.0
H461 H 0.25841 0.86848 0.65052 0.0
C462 C 0.25855 0.85895 0.74193 0.0
C463 C 0.28127 0.854 0.69343 0.0
C464 C 0.30438 0.84393 0.67551 0.0
C465 C 0.23524 0.86995 0.72438 0.0
C466 C 0.2353 0.87359 0.69101 0.0
C467 C 0.2584 0.86574 0.6761 0.0
C468 C 0.21165 0.88506 0.67065 0.0
C469 C 0.21051 0.87672 0.74164 0.0
C470 C 0.20014 0.87025 0.64488 0.0
C471 C 0.18034 0.88221 0.62308 0.0
C472 C 0.17147 0.90925 0.62665 0.0
C473 C 0.18218 0.92357 0.6533 0.0
C474 C 0.20227 0.9117 0.67489 0.0
H475 H 0.21052 0.86528 0.76507 0.0
H476 H 0.21109 0.89924 0.74581 0.0
H477 H 0.19091 0.87166 0.72751 0.0
H478 H 0.20714 0.84967 0.64106 0.0
H479 H 0.17293 0.87066 0.6027 0.0
H480 H 0.7789 0.44444 0.85763 0.0
H481 H 0.82095 0.46245 0.88634 0.0
H482 H 0.85875 0.38316 0.88177 0.0
H483 H 0.81688 0.36558 0.85184 0.0
H484 H 0.8523 0.44776 0.94138 0.0
H485 H 0.91056 0.43605 0.83535 0.0
H486 H 0.87348 0.43202 0.83417 0.0
H487 H 0.89505 0.40453 0.85092 0.0
C488 C 0.7962 0.43091 0.863 0.0
C489 C 0.79511 0.40393 0.85208 0.0
C490 C 0.82008 0.44108 0.87953 0.0
C491 C 0.84319 0.42434 0.88553 0.0
C492 C 0.84135 0.39661 0.87674 0.0
H493 H 0.99353 0.48359 0.9937 0.0
H494 H 0.95152 0.45708 0.977 0.0
C495 C 0.81744 0.3865 0.86 0.0
C496 C 0.86966 0.43677 0.89871 0.0
H497 H 0.93517 0.45439 0.87998 0.0
C498 C 0.87052 0.44904 0.92812 0.0
C499 C 0.89322 0.43881 0.88104 0.0
C500 C 0.8931 0.4274 0.8485 0.0
C501 C 0.89422 0.46362 0.9402 0.0
C502 C 0.91782 0.46545 0.92262 0.0
C503 C 0.91708 0.45282 0.89345 0.0
C504 C 0.94312 0.48149 0.93317 0.0
C505 C 0.89339 0.4778 0.97103 0.0
C506 C 0.95268 0.50358 0.91375 0.0
C507 C 0.97682 0.5185 0.92302 0.0
C508 C 0.99182 0.51155 0.95189 0.0
C509 C 0.98227 0.48944 0.97136 0.0
C510 C 0.95819 0.47441 0.96197 0.0
H511 H 0.87188 0.48023 0.97737 0.0
H512 H 0.90441 0.46511 0.99036 0.0
H513 H 0.90376 0.49861 0.96978 0.0
H514 H 0.94139 0.50934 0.89139 0.0
H515 H 0.98372 0.53547 0.90762 0.0
H516 H 0.75868 0.78755 0.30327 0.0
H517 H 0.72687 0.75649 0.33186 0.0
H518 H 0.79306 0.73685 0.40285 0.0
H519 H 0.82459 0.76752 0.37425 0.0
H520 H 0.73403 0.69906 0.34591 0.0
H521 H 0.72973 0.75619 0.45563 0.0
H522 H 0.74164 0.77226 0.41959 0.0
H523 H 0.76423 0.7508 0.44539 0.0
C524 C 0.7661 0.77681 0.32522 0.0
C525 C 0.79375 0.78015 0.33702 0.0
C526 C 0.74809 0.75916 0.34146 0.0
C527 C 0.75756 0.74482 0.36974 0.0
C528 C 0.78518 0.7483 0.38153 0.0
H529 H 0.7002 0.61784 0.5005 0.0
H530 H 0.7266 0.65221 0.46988 0.0
C531 C 0.80312 0.76582 0.36531 0.0
C532 C 0.73924 0.72483 0.38609 0.0
H533 H 0.7135 0.70898 0.45757 0.0
C534 C 0.7292 0.70134 0.37019 0.0
C535 C 0.7332 0.72789 0.41779 0.0
C536 C 0.74254 0.75328 0.43554 0.0
C537 C 0.71399 0.68028 0.38556 0.0
C538 C 0.70841 0.68311 0.41746 0.0
C539 C 0.71802 0.70685 0.43316 0.0
C540 C 0.69267 0.66164 0.4351 0.0
C541 C 0.7048 0.65478 0.36794 0.0
C542 C 0.6649 0.65572 0.42565 0.0
C543 C 0.64977 0.63622 0.4431 0.0
C544 C 0.66213 0.6224 0.47043 0.0
C545 C 0.69005 0.6283 0.47972 0.0
C546 C 0.70516 0.64782 0.46222 0.0
H547 H 0.71615 0.65291 0.34644 0.0
H548 H 0.70784 0.6357 0.38346 0.0
H549 H 0.68246 0.65604 0.36034 0.0
H550 H 0.65476 0.6666 0.40514 0.0
H551 H 0.62816 0.63256 0.43569 0.0
H552 H 0.20677 0.28207 0.18314 0.0
H553 H 0.18391 0.32497 0.16256 0.0
H554 H 0.16536 0.28871 0.07236 0.0
H555 H 0.18789 0.24579 0.09317 0.0
H556 H 0.19039 0.3657 0.11852 0.0
H557 H 0.09017 0.31633 0.08031 0.0
H558 H 0.1167 0.29752 0.10383 0.0
H559 H 0.11828 0.30263 0.0616 0.0
C560 C 0.19789 0.28311 0.15885 0.0
C561 C 0.1998 0.25977 0.14012 0.0
C562 C 0.1846 0.30806 0.14684 0.0
C563 C 0.17183 0.31115 0.1155 0.0
C564 C 0.17398 0.28778 0.09672 0.0
H565 H 0.12494 0.47909 0.02137 0.0
H566 H 0.14831 0.43638 0.04067 0.0
C567 C 0.18745 0.26289 0.10866 0.0
C568 C 0.15682 0.33842 0.10277 0.0
H569 H 0.09619 0.36383 0.06436 0.0
C570 C 0.16978 0.36493 0.10667 0.0
C571 C 0.12946 0.33893 0.08735 0.0
C572 C 0.11266 0.31241 0.08325 0.0
C573 C 0.15708 0.39061 0.09563 0.0
C574 C 0.13001 0.39108 0.07947 0.0
C575 C 0.11683 0.3646 0.07613 0.0
C576 C 0.11503 0.41835 0.06667 0.0
C577 C 0.17286 0.4173 0.10243 0.0
C578 C 0.0875 0.4238 0.07316 0.0
C579 C 0.07381 0.44876 0.06188 0.0
C580 C 0.08655 0.46982 0.04291 0.0
C581 C 0.11389 0.46415 0.03591 0.0
C582 C 0.12764 0.4393 0.0474 0.0
H583 H 0.18864 0.41446 0.12274 0.0
H584 H 0.18379 0.42434 0.08133 0.0
H585 H 0.15882 0.43384 0.1078 0.0
H586 H 0.07644 0.40875 0.08755 0.0
H587 H 0.05293 0.45148 0.06812 0.0
H588 H 0.74466 0.38334 0.89192 0.0
H589 H 0.72918 0.34861 0.93159 0.0
H590 H 0.75267 0.28331 0.8741 0.0
H591 H 0.76827 0.31808 0.83501 0.0
H592 H 0.68599 0.31628 0.91036 0.0
H593 H 0.76869 0.24811 0.96216 0.0
H594 H 0.7758 0.28226 0.94465 0.0
H595 H 0.76985 0.25296 0.92004 0.0
C596 C 0.74785 0.36157 0.88887 0.0
C597 C 0.75759 0.35311 0.86074 0.0
C598 C 0.7389 0.34176 0.91133 0.0
C599 C 0.73985 0.31332 0.90591 0.0
C600 C 0.75227 0.30503 0.87924 0.0
H601 H 0.64885 0.16337 0.92128 0.0
H602 H 0.68325 0.20105 0.91571 0.0
C603 C 0.76113 0.32483 0.85685 0.0
C604 C 0.72257 0.2929 0.92336 0.0
H605 H 0.72235 0.22712 0.957 0.0
C606 C 0.69401 0.29709 0.92141 0.0
C607 C 0.73302 0.26778 0.93741 0.0
C608 C 0.76358 0.26264 0.94147 0.0
C609 C 0.67543 0.27613 0.93097 0.0
C610 C 0.68577 0.25044 0.94359 0.0
C611 C 0.71445 0.24678 0.94721 0.0
C612 C 0.66699 0.22644 0.95017 0.0
C613 C 0.64482 0.28104 0.92536 0.0
C614 C 0.64688 0.22789 0.97199 0.0
C615 C 0.627 0.20656 0.97489 0.0
C616 C 0.6272 0.18319 0.95641 0.0
C617 C 0.64823 0.18112 0.93583 0.0
C618 C 0.66791 0.20259 0.93269 0.0
H619 H 0.64039 0.2996 0.90936 0.0
H620 H 0.63381 0.2628 0.91484 0.0
H621 H 0.63628 0.28442 0.94832 0.0
H622 H 0.64617 0.24583 0.98622 0.0
H623 H 0.61133 0.20841 0.99139 0.0
H624 H 0.8896 0.81277 0.3594 0.0
H625 H 0.92613 0.84596 0.37626 0.0
H626 H 0.90876 0.8956 0.28966 0.0
H627 H 0.87087 0.86283 0.27375 0.0
H628 H 0.97258 0.86942 0.35661 0.0
H629 H 0.89151 0.94873 0.3548 0.0
H630 H 0.88316 0.9128 0.34811 0.0
H631 H 0.89663 0.93496 0.31723 0.0
C632 C 0.89381 0.83069 0.34395 0.0
C633 C 0.87704 0.83596 0.31592 0.0
C634 C 0.91481 0.84951 0.35338 0.0
C635 C 0.91963 0.87375 0.33469 0.0
C636 C 0.90482 0.87747 0.30492 0.0
H637 H 0.04239 0.99037 0.42643 0.0
H638 H 1.0211 0.9591 0.38695 0.0
C639 C 0.88345 0.85872 0.29567 0.0
C640 C 0.93774 0.89608 0.34854 0.0
H641 H 0.93524 0.96052 0.37765 0.0
C642 C 0.96462 0.88953 0.36084 0.0
C643 C 0.92717 0.92222 0.35428 0.0
C644 C 0.898 0.93014 0.34318 0.0
C645 C 0.9806 0.90771 0.38022 0.0
C646 C 0.96965 0.93347 0.38666 0.0
C647 C 0.94351 0.94071 0.37273 0.0
C648 C 0.98335 0.95198 0.41041 0.0
C649 C 1.00823 0.89841 0.39521 0.0
C650 C 0.96907 0.95872 0.43639 0.0
C651 C 0.98092 0.97688 0.4585 0.0
C652 C 1.0074 0.98851 0.45523 0.0
C653 C 1.02198 0.98149 0.42957 0.0
C654 C 1.00991 0.96354 0.40711 0.0
H655 H 1.0109 0.8758 0.39329 0.0
H656 H 1.02494 0.90961 0.383 0.0
H657 H 1.01075 0.90322 0.42065 0.0
H658 H 0.94859 0.94999 0.43949 0.0
H659 H 0.96929 0.9819 0.47812 0.0
H660 H 0.43847 0.7473 0.72423 0.0
H661 H 0.45028 0.7086 0.69286 0.0
H662 H 0.38378 0.65885 0.72988 0.0
H663 H 0.37253 0.69744 0.76189 0.0
H664 H 0.43149 0.62933 0.72725 0.0
H665 H 0.40403 0.68626 0.61271 0.0
H666 H 0.42912 0.70465 0.63778 0.0
H667 H 0.39485 0.6981 0.65012 0.0
C668 C 0.42683 0.72788 0.72606 0.0
C669 C 0.40467 0.72514 0.74534 0.0
C670 C 0.43328 0.70596 0.70787 0.0
C671 C 0.41748 0.68109 0.70851 0.0
C672 C 0.39606 0.67795 0.72883 0.0
H673 H 0.43352 0.56042 0.56252 0.0
H674 H 0.41254 0.59068 0.59833 0.0
C675 C 0.38967 0.69986 0.74707 0.0
C676 C 0.42318 0.6585 0.6877 0.0
H677 H 0.42908 0.64465 0.61035 0.0
C678 C 0.43071 0.63257 0.70167 0.0
C679 C 0.42147 0.66254 0.65428 0.0
C680 C 0.41165 0.6893 0.63777 0.0
C681 C 0.43795 0.61101 0.68318 0.0
C682 C 0.43807 0.61569 0.64994 0.0
C683 C 0.4292 0.64115 0.63586 0.0
C684 C 0.44962 0.59548 0.6297 0.0
C685 C 0.44562 0.58348 0.69946 0.0
C686 C 0.47734 0.58824 0.63546 0.0
C687 C 0.4893 0.57111 0.6152 0.0
C688 C 0.47386 0.56095 0.58848 0.0
C689 C 0.44591 0.56781 0.58296 0.0
C690 C 0.43393 0.5851 0.60334 0.0
H691 H 0.43582 0.58015 0.7222 0.0
H692 H 0.43941 0.56599 0.68415 0.0
H693 H 0.46834 0.5832 0.70491 0.0
H694 H 0.49004 0.59651 0.65519 0.0
H695 H 0.51089 0.56632 0.62021 0.0
H696 H 0.86026 0.88794 0.77921 0.0
H697 H 0.88707 0.90596 0.73557 0.0
H698 H 0.95627 0.92246 0.80258 0.0
H699 H 0.92939 0.90366 0.84611 0.0
H700 H 0.90592 0.95175 0.71516 0.0
H701 H 1.00216 0.89453 0.74046 0.0
H702 H 0.97181 0.88585 0.76109 0.0
H703 H 0.99471 0.91408 0.77344 0.0
C704 C 0.88153 0.89451 0.78472 0.0
C705 C 0.89247 0.89305 0.81685 0.0
C706 C 0.89706 0.9054 0.75936 0.0
C707 C 0.92468 0.91577 0.76428 0.0
C708 C 0.93572 0.91413 0.79656 0.0
H709 H 0.0287 0.95241 0.59713 0.0
H710 H 1.00437 0.93152 0.6416 0.0
C711 C 0.92013 0.90308 0.82203 0.0
C712 C 0.94076 0.92906 0.73613 0.0
H713 H 1.00371 0.93232 0.70235 0.0
C714 C 0.92733 0.94721 0.71274 0.0
C715 C 0.9689 0.92368 0.73107 0.0
C716 C 0.98519 0.90327 0.75261 0.0
C717 C 0.94051 0.9598 0.6861 0.0
C718 C 0.96895 0.9553 0.68172 0.0
C719 C 0.98228 0.93677 0.70479 0.0
C720 C 0.98476 0.96887 0.65351 0.0
C721 C 0.92301 0.97716 0.66216 0.0
C722 C 0.98331 0.99752 0.64397 0.0
C723 C 0.99737 1.00967 0.61794 0.0
C724 C 1.01419 0.99413 0.59982 0.0
C725 C 1.01617 0.96562 0.6097 0.0
C726 C 1.00202 0.95345 0.63571 0.0
H727 H 0.90075 0.97122 0.66251 0.0
H728 H 0.92537 0.99927 0.66809 0.0
H729 H 0.92919 0.97507 0.63776 0.0
H730 H 0.97144 1.01099 0.65695 0.0
H731 H 0.99505 0.03161 0.6121 0.0
H732 H 0.72556 0.25937 0.21933 0.0
H733 H 0.71067 0.22271 0.18267 0.0
H734 H 0.65089 0.19206 0.2468 0.0
H735 H 0.66585 0.22855 0.28321 0.0
H736 H 0.70298 0.16045 0.19143 0.0
H737 H 0.60654 0.21838 0.16116 0.0
H738 H 0.63718 0.23402 0.18061 0.0
H739 H 0.61506 0.21134 0.20283 0.0
C740 C 0.70969 0.24434 0.22569 0.0
C741 C 0.6964 0.24681 0.25354 0.0
C742 C 0.70121 0.22353 0.20488 0.0
C743 C 0.6794 0.20505 0.21189 0.0
C744 C 0.6675 0.20639 0.24084 0.0
H745 H 0.60408 0.06066 0.1257 0.0
H746 H 0.63173 0.09292 0.15876 0.0
C747 C 0.67596 0.22713 0.26152 0.0
C748 C 0.66725 0.18601 0.18795 0.0
H749 H 0.60808 0.17355 0.14127 0.0
C750 C 0.68232 0.16332 0.18026 0.0
C751 C 0.64047 0.19016 0.17312 0.0
C752 C 0.62388 0.2149 0.17956 0.0
C753 C 0.67084 0.14406 0.15874 0.0
C754 C 0.64357 0.14759 0.14494 0.0
C755 C 0.62892 0.17079 0.15199 0.0
C756 C 0.62932 0.12722 0.12376 0.0
C757 C 0.688 0.12022 0.15085 0.0
C758 C 0.61858 0.13584 0.09321 0.0
C759 C 0.60254 0.11754 0.07439 0.0
C760 C 0.59682 0.09029 0.08585 0.0
C761 C 0.60817 0.08149 0.11616 0.0
C762 C 0.62417 0.09984 0.135 0.0
H763 H 0.71043 0.12475 0.15598 0.0
H764 H 0.6824 0.1015 0.16551 0.0
H765 H 0.6841 0.1154 0.1255 0.0
H766 H 0.62219 0.15693 0.08416 0.0
H767 H 0.59421 0.12494 0.05109 0.0
H768 H 0.41352 0.58422 0.19378 0.0
H769 H 0.43565 0.57615 0.24752 0.0
H770 H 0.43208 0.66357 0.26318 0.0
H771 H 0.40904 0.67133 0.20983 0.0
H772 H 0.48386 0.59746 0.27807 0.0
H773 H 0.3912 0.62776 0.33585 0.0
H774 H 0.3902 0.62168 0.2941 0.0
H775 H 0.40474 0.65364 0.30886 0.0
C776 C 0.41775 0.60161 0.20876 0.0
C777 C 0.40973 0.62831 0.19796 0.0
C778 C 0.43035 0.59708 0.2393 0.0
C779 C 0.43507 0.6192 0.25949 0.0
C780 C 0.42816 0.64615 0.24818 0.0
H781 H 0.50019 0.60966 0.45951 0.0
H782 H 0.4836 0.62786 0.40632 0.0
C783 C 0.41539 0.65063 0.21766 0.0
C784 C 0.44634 0.61366 0.29266 0.0
H785 H 0.43001 0.61442 0.36957 0.0
C786 C 0.47218 0.60134 0.29809 0.0
C787 C 0.43101 0.61876 0.31872 0.0
C788 C 0.40265 0.63097 0.31424 0.0
C789 C 0.48292 0.59355 0.32887 0.0
C790 C 0.46728 0.598 0.35478 0.0
C791 C 0.44188 0.61112 0.34954 0.0
C792 C 0.47617 0.58736 0.38719 0.0
C793 C 0.51078 0.58032 0.33349 0.0
C794 C 0.47666 0.55866 0.39406 0.0
C795 C 0.48587 0.54828 0.42426 0.0
C796 C 0.4948 0.56645 0.4481 0.0
C797 C 0.49349 0.59523 0.4415 0.0
C798 C 0.4841 0.60563 0.41121 0.0
H799 H 0.52291 0.58433 0.31251 0.0
H800 H 0.5229 0.58813 0.35473 0.0
H801 H 0.50781 0.55754 0.33721 0.0
H802 H 0.47016 0.54428 0.37591 0.0
H803 H 0.48648 0.52601 0.42874 0.0
H804 H 0.27263 0.27047 0.86451 0.0
H805 H 0.26841 0.30099 0.9086 0.0
H806 H 0.18646 0.3219 0.86923 0.0
H807 H 0.19053 0.29079 0.8264 0.0
H808 H 0.26568 0.35354 0.90235 0.0
H809 H 0.17267 0.31936 0.95972 0.0
H810 H 0.18901 0.29716 0.93415 0.0
H811 H 0.16342 0.3215 0.91796 0.0
C812 C 0.25342 0.28084 0.86631 0.0
C813 C 0.23173 0.27823 0.84263 0.0
C814 C 0.25101 0.2983 0.89127 0.0
C815 C 0.22691 0.31345 0.89267 0.0
C816 C 0.20484 0.30975 0.86955 0.0
H817 H 0.20188 0.47827 0.90281 0.0
H818 H 0.22134 0.43301 0.89874 0.0
C819 C 0.20716 0.29211 0.84494 0.0
C820 C 0.22614 0.33639 0.91461 0.0
H821 H 0.18023 0.37057 0.95402 0.0
C822 C 0.24735 0.35686 0.91452 0.0
C823 C 0.20283 0.34058 0.93158 0.0
C824 C 0.18093 0.31822 0.93613 0.0
C825 C 0.24434 0.38255 0.9277 0.0
C826 C 0.21907 0.38826 0.94014 0.0
C827 C 0.19933 0.36665 0.94362 0.0
C828 C 0.21097 0.41702 0.94518 0.0
C829 C 0.26792 0.40359 0.927 0.0
C830 C 0.19826 0.42326 0.97248 0.0
C831 C 0.18617 0.44898 0.97437 0.0
C832 C 0.18663 0.469 0.94903 0.0
C833 C 0.20074 0.46323 0.92255 0.0
C834 C 0.21243 0.43744 0.92048 0.0
H835 H 0.28806 0.39315 0.93081 0.0
H836 H 0.26729 0.41455 0.90328 0.0
H837 H 0.26694 0.41909 0.94534 0.0
H838 H 0.19665 0.40782 0.99176 0.0
H839 H 0.17523 0.45255 0.99498 0.0
H840 H 0.82834 0.90529 0.9363 0.0
H841 H 0.78738 0.92439 0.95717 0.0
H842 H 0.74851 0.93262 0.86245 0.0
H843 H 0.78895 0.91275 0.84184 0.0
H844 H 0.75995 0.97048 0.95609 0.0
H845 H 0.6825 0.89997 0.89842 0.0
H846 H 0.71898 0.89457 0.89794 0.0
H847 H 0.70187 0.91901 0.86988 0.0
C848 C 0.81103 0.91073 0.9197 0.0
C849 C 0.81292 0.90677 0.88687 0.0
C850 C 0.78713 0.9221 0.93186 0.0
C851 C 0.76319 0.93003 0.9122 0.0
C852 C 0.76535 0.92637 0.8793 0.0
H853 H 0.59612 1.00155 0.93641 0.0
H854 H 0.6378 0.98212 0.9187 0.0
C855 C 0.78923 0.91511 0.86712 0.0
C856 C 0.73681 0.94226 0.92577 0.0
H857 H 0.66495 0.93869 0.92173 0.0
C858 C 0.7393 0.96315 0.94844 0.0
C859 C 0.70882 0.93367 0.91687 0.0
C860 C 0.70278 0.9104 0.89472 0.0
C861 C 0.716 0.97564 0.96096 0.0
C862 C 0.68798 0.96713 0.95193 0.0
C863 C 0.68556 0.9461 0.92942 0.0
C864 C 0.66129 0.97988 0.96434 0.0
C865 C 0.72204 0.99895 0.98305 0.0
C866 C 0.65832 0.98573 0.99666 0.0
C867 C 0.63372 0.99735 1.00714 0.0
C868 C 0.61022 1.0037 0.98608 0.0
C869 C 0.61309 0.99744 0.95403 0.0
C870 C 0.63752 0.98595 0.94362 0.0
H871 H 0.74257 1.00899 0.97984 0.0
H872 H 0.70614 1.01506 0.97926 0.0
H873 H 0.7223 0.99047 1.00791 0.0
H874 H 0.67496 0.9809 0.01439 0.0
H875 H 0.63318 1.00125 0.03201 0.0
H876 H 0.7771 0.29478 0.27383 0.0
H877 H 0.81996 0.27018 0.28969 0.0
H878 H 0.77216 0.19999 0.32448 0.0
H879 H 0.72944 0.22493 0.30934 0.0
H880 H 0.83104 0.25216 0.35639 0.0
H881 H 0.83362 0.16579 0.27491 0.0
H882 H 0.81461 0.197 0.26449 0.0
H883 H 0.80108 0.17077 0.29103 0.0
C884 C 0.7759 0.27391 0.28437 0.0
C885 C 0.75021 0.26168 0.29058 0.0
C886 C 0.80025 0.25988 0.29326 0.0
C887 C 0.79917 0.23324 0.30805 0.0
C888 C 0.7734 0.22036 0.31261 0.0
H889 H 0.90756 0.12015 0.4147 0.0
H890 H 0.87073 0.14327 0.38158 0.0
C891 C 0.74906 0.23451 0.30394 0.0
C892 C 0.82478 0.22045 0.32246 0.0
H893 H 0.86509 0.16397 0.32093 0.0
C894 C 0.83876 0.23306 0.34844 0.0
C895 C 0.83447 0.19544 0.31215 0.0
C896 C 0.82035 0.18146 0.28396 0.0
C897 C 0.86169 0.2208 0.36523 0.0
C898 C 0.87143 0.19563 0.35506 0.0
C899 C 0.85771 0.18331 0.3286 0.0
C900 C 0.89475 0.181 0.37278 0.0
C901 C 0.87437 0.23427 0.39456 0.0
C902 C 0.92075 0.19422 0.37818 0.0
C903 C 0.94175 0.18115 0.39743 0.0
C904 C 0.93728 0.15439 0.41103 0.0
C905 C 0.91167 0.1407 0.40435 0.0
C906 C 0.8906 0.1539 0.38546 0.0
H907 H 0.86013 0.24901 0.40366 0.0
H908 H 0.88004 0.21848 0.41377 0.0
H909 H 0.89338 0.24612 0.38874 0.0
H910 H 0.92467 0.21484 0.36794 0.0
H911 H 0.96143 0.192 0.40183 0.0
H912 H 0.33201 0.58419 0.115 0.0
H913 H 0.28307 0.57817 0.09624 0.0
H914 H 0.27276 0.66648 0.09898 0.0
H915 H 0.32137 0.67223 0.11857 0.0
H916 H 0.23428 0.6358 0.13054 0.0
H917 H 0.24114 0.5969 1.01058 0.0
H918 H 0.26129 0.57772 0.04118 0.0
H919 H 0.27002 0.6136 0.03231 0.0
C920 C 0.31923 0.60222 0.11109 0.0
C921 C 0.33024 0.62865 0.11783 0.0
C922 C 0.29146 0.59886 0.1002 0.0
C923 C 0.27444 0.62196 0.09576 0.0
C924 C 0.28563 0.64845 0.10196 0.0
H925 H 0.10239 0.613 0.01688 0.0
H926 H 0.15102 0.62745 0.02735 0.0
C927 C 0.31334 0.65176 0.1129 0.0
C928 C 0.24447 0.61823 0.08735 0.0
H929 H 0.19719 0.59149 0.03226 0.0
C930 C 0.22614 0.62638 0.10889 0.0
C931 C 0.23394 0.60622 0.05894 0.0
C932 C 0.25259 0.59834 0.03425 0.0
C933 C 0.19757 0.62198 0.1033 0.0
C934 C 0.18715 0.60875 0.07566 0.0
C935 C 0.20534 0.60146 0.05355 0.0
C936 C 0.15756 0.60113 0.07003 0.0
C937 C 0.17876 0.63138 0.12708 0.0
C938 C 0.1453 0.58162 0.0906 0.0
C939 C 0.11771 0.5733 0.08462 0.0
C940 C 0.10201 0.58424 0.05786 0.0
C941 C 0.11414 0.60417 0.03758 0.0
C942 C 0.14183 0.61241 0.04351 0.0
H943 H 0.18897 0.64752 0.14211 0.0
H944 H 0.15941 0.63977 0.11503 0.0
H945 H 0.17316 0.61338 0.14287 0.0
H946 H 0.15727 0.57239 0.11092 0.0
H947 H 0.10889 0.55781 0.10054 0.0
H948 H 0.21274 0.27846 0.71158 0.0
H949 H 0.22836 0.30065 0.66251 0.0
H950 H 0.31309 0.28967 0.699 0.0
H951 H 0.29729 0.26632 0.74715 0.0
H952 H 0.25563 0.34801 0.66041 0.0
H953 H 0.31874 0.27166 0.60903 0.0
H954 H 0.2955 0.26185 0.63909 0.0
H955 H 0.32996 0.2749 0.65002 0.0
C956 C 0.23463 0.27983 0.70838 0.0
C957 C 0.25392 0.27062 0.73281 0.0
C958 C 0.24356 0.29268 0.68055 0.0
C959 C 0.27192 0.29659 0.67683 0.0
C960 C 0.29113 0.28627 0.70081 0.0
H961 H 0.36085 0.43369 0.60224 0.0
H962 H 0.33133 0.40073 0.63023 0.0
C963 C 0.28217 0.27318 0.72842 0.0
C964 C 0.28157 0.31462 0.65028 0.0
H965 H 0.33105 0.32032 0.59743 0.0
C966 C 0.27169 0.34172 0.64615 0.0
C967 C 0.30213 0.3064 0.63115 0.0
C968 C 0.31192 0.27699 0.63233 0.0
C969 C 0.28317 0.36132 0.62505 0.0
C970 C 0.30565 0.35386 0.60833 0.0
C971 C 0.31417 0.32624 0.61072 0.0
C972 C 0.322 0.37476 0.59034 0.0
C973 C 0.27135 0.38995 0.62136 0.0
C974 C 0.32709 0.37088 0.55875 0.0
C975 C 0.34451 0.38943 0.54284 0.0
C976 C 0.35726 0.41217 0.55829 0.0
C977 C 0.35162 0.41627 0.58972 0.0
C978 C 0.33438 0.39765 0.60563 0.0
H979 H 0.24911 0.38932 0.62581 0.0
H980 H 0.28235 0.40341 0.63903 0.0
H981 H 0.27363 0.39951 0.59728 0.0
H982 H 0.31797 0.35321 0.54658 0.0
H983 H 0.34872 0.3854 0.5188 0.0
H984 H 0.91334 0.8589 0.91656 0.0
H985 H 0.93783 0.81636 0.93398 0.0
H986 H 0.90221 0.77661 0.85111 0.0
H987 H 0.87752 0.8195 0.83387 0.0
H988 H 0.9008 0.7389 0.8994 0.0
H989 H 1.007 0.78242 0.91312 0.0
H990 H 0.98422 0.79986 0.93628 0.0
H991 H 0.97894 0.802 0.89364 0.0
C992 C 0.91142 0.84151 0.9013 0.0
C993 C 0.89399 0.84384 0.8728 0.0
C994 C 0.92558 0.81664 0.91149 0.0
C995 C 0.92303 0.79218 0.89407 0.0
C996 C 0.90544 0.79448 0.86553 0.0
H997 H 0.03603 0.64612 0.93561 0.0
H998 H 1.01328 0.68906 0.91564 0.0
C999 C 0.89141 0.81954 0.85517 0.0
C1000 C 0.93761 0.76449 0.90607 0.0
H1001 H 1.00015 0.73693 0.93604 0.0
C1002 C 0.92258 0.73881 0.90731 0.0
C1003 C 0.96635 0.76282 0.91644 0.0
C1004 C 0.98517 0.78815 0.91455 0.0
C1005 C 0.93467 0.71291 0.91869 0.0
C1006 C 0.96322 0.7114 0.93007 0.0
C1007 C 0.97838 0.73698 0.92812 0.0
C1008 C 0.97768 0.68392 0.94318 0.0
C1009 C 0.91649 0.68707 0.91742 0.0
C1010 C 0.96653 0.66535 0.96634 0.0
C1011 C 0.97983 0.6403 0.97805 0.0
C1012 C 1.00526 0.63209 0.96753 0.0
C1013 C 1.01661 0.65083 0.94473 0.0
C1014 C 1.00337 0.67594 0.93311 0.0
H1015 H 0.89861 0.68962 0.89954 0.0
H1016 H 0.92819 0.66885 0.91161 0.0
H1017 H 0.90821 0.68274 0.94088 0.0
H1018 H 0.94746 0.67033 0.97601 0.0
H1019 H 0.96999 0.62732 0.99565 0.0
H1020 H 0.4533 0.63848 0.1482 0.0
H1021 H 0.49278 0.67195 0.14707 0.0
H1022 H 0.43622 0.73951 0.14221 0.0
H1023 H 0.39725 0.70623 0.14356 0.0
H1024 H 0.50081 0.71418 0.09775 0.0
H1025 H 0.49493 0.7592 0.21421 0.0
H1026 H 0.47949 0.72577 0.20481 0.0
H1027 H 0.46166 0.75716 0.19259 0.0
C1028 C 0.44962 0.66052 0.14715 0.0
C1029 C 0.42253 0.67006 0.14563 0.0
C1030 C 0.47198 0.67951 0.1465 0.0
C1031 C 0.46736 0.70814 0.14494 0.0
C1032 C 0.44024 0.71751 0.14392 0.0
H1033 H 0.51612 0.85608 0.06477 0.0
H1034 H 0.50636 0.807 0.07573 0.0
C1035 C 0.41803 0.69862 0.14433 0.0
C1036 C 0.49029 0.72874 0.14236 0.0
H1037 H 0.51395 0.78948 0.17339 0.0
C1038 C 0.50436 0.73029 0.11467 0.0
C1039 C 0.49537 0.74934 0.16478 0.0
C1040 C 0.48227 0.74764 0.19594 0.0
C1041 C 0.52129 0.75345 0.10735 0.0
C1042 C 0.52368 0.77566 0.12804 0.0
C1043 C 0.51185 0.77268 0.15724 0.0
C1044 C 0.5344 0.80356 0.1181 0.0
C1045 C 0.53547 0.75439 0.07694 0.0
C1046 C 0.55363 0.81806 0.13808 0.0
C1047 C 0.5591 0.84635 0.13195 0.0
C1048 C 0.54534 0.86063 0.1058 0.0
C1049 C 0.52741 0.84565 0.0848 0.0
C1050 C 0.52189 0.81745 0.091 0.0
H1051 H 0.54101 0.73322 0.07097 0.0
H1052 H 0.52114 0.76272 0.05726 0.0
H1053 H 0.55449 0.76778 0.07848 0.0
H1054 H 0.5634 0.8078 0.15922 0.0
H1055 H 0.57324 0.8573 0.14837 0.0
H1056 H 0.24887 0.2095 0.73161 0.0
H1057 H 0.22524 0.17932 0.6923 0.0
H1058 H 0.14649 0.20797 0.71566 0.0
H1059 H 0.17019 0.2385 0.7544 0.0
H1060 H 0.15181 0.14803 0.71532 0.0
H1061 H 0.18374 0.20369 0.60554 0.0
H1062 H 0.21118 0.19614 0.63553 0.0
H1063 H 0.18502 0.21984 0.6432 0.0
C1064 C 0.22655 0.20936 0.72807 0.0
C1065 C 0.21123 0.22587 0.74616 0.0
C1066 C 0.2131 0.19228 0.70569 0.0
C1067 C 0.18416 0.19159 0.70105 0.0
C1068 C 0.16884 0.20821 0.719 0.0
H1069 H 0.06875 0.08581 0.58814 0.0
H1070 H 0.08861 0.12055 0.62437 0.0
C1071 C 0.18231 0.22539 0.74123 0.0
C1072 C 0.16981 0.1728 0.67823 0.0
H1073 H 0.16126 0.15971 0.59963 0.0
C1074 C 0.15366 0.15062 0.68998 0.0
C1075 C 0.17239 0.17636 0.6453 0.0
C1076 C 0.18882 0.20041 0.63148 0.0
C1077 C 0.14063 0.13129 0.66968 0.0
C1078 C 0.14334 0.1347 0.63668 0.0
C1079 C 0.15919 0.15717 0.62493 0.0
C1080 C 0.1309 0.11452 0.61409 0.0
C1081 C 0.12494 0.10687 0.68387 0.0
C1082 C 0.14798 0.10032 0.59559 0.0
C1083 C 0.13668 0.08079 0.57471 0.0
C1084 C 0.1081 0.07507 0.572 0.0
C1085 C 0.0909 0.08965 0.59006 0.0
C1086 C 0.10222 0.10935 0.61085 0.0
H1087 H 0.13065 0.10357 0.70969 0.0
H1088 H 0.10248 0.11075 0.68061 0.0
H1089 H 0.12882 0.08753 0.67201 0.0
H1090 H 0.17014 0.10409 0.59763 0.0
H1091 H 0.1504 0.06995 0.56096 0.0
H1092 H 0.67189 0.35575 0.27464 0.0
H1093 H 0.64585 0.38795 0.30338 0.0
H1094 H 0.66056 0.33659 0.38916 0.0
H1095 H 0.68588 0.30421 0.36004 0.0
H1096 H 0.6065 0.35092 0.378 0.0
H1097 H 0.67565 0.44408 0.36713 0.0
H1098 H 0.66407 0.42959 0.33 0.0
H1099 H 0.686 0.40987 0.35846 0.0
C1100 C 0.66957 0.35165 0.29967 0.0
C1101 C 0.68082 0.32787 0.31541 0.0
C1102 C 0.65493 0.37001 0.31608 0.0
C1103 C 0.65163 0.36486 0.34852 0.0
C1104 C 0.66298 0.34102 0.3642 0.0
H1105 H 0.59842 0.47377 0.48543 0.0
H1106 H 0.62378 0.44497 0.45262 0.0
C1107 C 0.67747 0.32266 0.34774 0.0
C1108 C 0.63549 0.38367 0.36601 0.0
H1109 H 0.63298 0.45023 0.38909 0.0
C1110 C 0.61227 0.37264 0.38043 0.0
C1111 C 0.64325 0.41192 0.36938 0.0
C1112 C 0.66874 0.42458 0.35569 0.0
C1113 C 0.59657 0.38908 0.39817 0.0
C1114 C 0.60397 0.41748 0.40097 0.0
C1115 C 0.62721 0.42852 0.3866 0.0
C1116 C 0.58854 0.43576 0.41991 0.0
C1117 C 0.57268 0.3757 0.41447 0.0
C1118 C 0.56041 0.44053 0.41205 0.0
C1119 C 0.54577 0.45686 0.43089 0.0
C1120 C 0.55912 0.46894 0.45772 0.0
C1121 C 0.58748 0.46473 0.46498 0.0
C1122 C 0.60204 0.44831 0.44623 0.0
H1123 H 0.57404 0.35273 0.41651 0.0
H1124 H 0.57184 0.38348 0.43858 0.0
H1125 H 0.55306 0.38086 0.40046 0.0
H1126 H 0.54974 0.4315 0.39144 0.0
H1127 H 0.524 0.4599 0.42448 0.0
loop_
_geom_bond_atom_site_label_1
_geom_bond_atom_site_label_2
_geom_bond_distance
_geom_bond_site_symmetry_2
_ccdc_geom_bond_type
C0 N1 1.317 . S
C0 N2 1.348 . S
C0 C3 1.485 . S
N1 C0 1.317 . S
N1 N5 1.370 . S
N2 C0 1.348 . S
N2 C4 1.346 . S
C3 C0 1.485 . S
C3 H7 0.960 . S
C3 H8 0.961 . S
C3 H9 0.960 . S
C4 N2 1.346 . S
C4 N5 1.307 . S
C4 C6 1.486 . S
N5 N1 1.370 . S
N5 C4 1.307 . S
C6 C4 1.486 . S
C6 H10 0.960 . S
C6 H11 0.960 . S
C6 H12 0.959 . S
H7 C3 0.960 . S
H8 C3 0.961 . S
H9 C3 0.960 . S
H10 C6 0.960 . S
H11 C6 0.960 . S
H12 C6 0.959 . S
C13 N14 1.317 . S
C13 N15 1.348 . S
C13 C16 1.485 . S
N14 C13 1.317 . S
N14 N18 1.370 . S
N15 C13 1.348 . S
N15 C17 1.346 . S
C16 C13 1.485 . S
C16 H20 0.960 . S
C16 H21 0.961 . S
C16 H22 0.960 . S
C17 N15 1.346 . S
C17 N18 1.307 . S
C17 C19 1.486 . S
N18 N14 1.370 . S
N18 C17 1.307 . S
C19 C17 1.486 . S
C19 H23 0.960 . S
C19 H24 0.960 . S
C19 H25 0.959 . S
H20 C16 0.960 . S
H21 C16 0.961 . S
H22 C16 0.960 . S
H23 C19 0.960 . S
H24 C19 0.960 . S
H25 C19 0.959 . S
C26 N27 1.317 . S
C26 N28 1.348 . S
C26 C29 1.485 . S
N27 C26 1.317 . S
N27 N31 1.370 . S
N28 C26 1.348 . S
N28 C30 1.346 . S
C29 C26 1.485 . S
C29 H33 0.960 . S
C29 H34 0.961 . S
C29 H35 0.960 . S
C30 N28 1.346 . S
C30 N31 1.307 . S
C30 C32 1.486 . S
N31 N27 1.370 . S
N31 C30 1.307 . S
C32 C30 1.486 . S
C32 H36 0.960 . S
C32 H37 0.960 . S
C32 H38 0.959 . S
H33 C29 0.960 . S
H34 C29 0.961 . S
H35 C29 0.960 . S
H36 C32 0.960 . S
H37 C32 0.960 . S
H38 C32 0.959 . S
C39 N40 1.317 . S
C39 N41 1.348 . S
C39 C42 1.485 . S
N40 C39 1.317 . S
N40 N44 1.370 . S
N41 C39 1.348 . S
N41 C43 1.346 . S
C42 C39 1.485 . S
C42 H46 0.960 . S
C42 H47 0.961 . S
C42 H48 0.960 . S
C43 N41 1.346 . S
C43 N44 1.307 . S
C43 C45 1.486 . S
N44 N40 1.370 . S
N44 C43 1.307 . S
C45 C43 1.486 . S
C45 H49 0.960 . S
C45 H50 0.960 . S
C45 H51 0.959 . S
H46 C42 0.960 . S
H47 C42 0.961 . S
H48 C42 0.960 . S
H49 C45 0.960 . S
H50 C45 0.960 . S
H51 C45 0.959 . S
C52 N53 1.317 . S
C52 N54 1.348 . S
C52 C55 1.485 . S
N53 C52 1.317 . S
N53 N57 1.370 . S
N54 C52 1.348 . S
N54 C56 1.346 . S
C55 C52 1.485 . S
C55 H59 0.960 . S
C55 H60 0.961 . S
C55 H61 0.960 . S
C56 N54 1.346 . S
C56 N57 1.307 . S
C56 C58 1.486 . S
N57 N53 1.370 . S
N57 C56 1.307 . S
C58 C56 1.486 . S
C58 H62 0.960 . S
C58 H63 0.960 . S
C58 H64 0.959 . S
H59 C55 0.960 . S
H60 C55 0.961 . S
H61 C55 0.960 . S
H62 C58 0.960 . S
H63 C58 0.960 . S
H64 C58 0.959 . S
C65 N66 1.317 . S
C65 N67 1.348 . S
C65 C68 1.485 . S
N66 C65 1.317 . S
N66 N70 1.370 . S
N67 C65 1.348 . S
N67 C69 1.346 . S
C68 C65 1.485 . S
C68 H72 0.960 . S
C68 H73 0.961 . S
C68 H74 0.960 . S
C69 N67 1.346 . S
C69 N70 1.307 . S
C69 C71 1.486 . S
N70 N66 1.370 . S
N70 C69 1.307 . S
C71 C69 1.486 . S
C71 H75 0.960 . S
C71 H76 0.960 . S
C71 H77 0.959 . S
H72 C68 0.960 . S
H73 C68 0.961 . S
H74 C68 0.960 . S
H75 C71 0.960 . S
H76 C71 0.960 . S
H77 C71 0.959 . S
C78 N79 1.317 . S
C78 N80 1.348 . S
C78 C81 1.485 . S
N79 C78 1.317 . S
N79 N83 1.370 . S
N80 C78 1.348 . S
N80 C82 1.346 . S
C81 C78 1.485 . S
C81 H85 0.960 . S
C81 H86 0.961 . S
C81 H87 0.960 . S
C82 N80 1.346 . S
C82 N83 1.307 . S
C82 C84 1.486 . S
N83 N79 1.370 . S
N83 C82 1.307 . S
C84 C82 1.486 . S
C84 H88 0.960 . S
C84 H89 0.960 . S
C84 H90 0.959 . S
H85 C81 0.960 . S
H86 C81 0.961 . S
H87 C81 0.960 . S
H88 C84 0.960 . S
H89 C84 0.960 . S
H90 C84 0.959 . S
C91 N92 1.317 . S
C91 N93 1.348 . S
C91 C94 1.485 . S
N92 C91 1.317 . S
N92 N96 1.370 . S
N93 C91 1.348 . S
N93 C95 1.346 . S
C94 C91 1.485 . S
C94 H98 0.960 . S
C94 H99 0.961 . S
C94 H100 0.960 . S
C95 N93 1.346 . S
C95 N96 1.307 . S
C95 C97 1.486 . S
N96 N92 1.370 . S
N96 C95 1.307 . S
C97 C95 1.486 . S
C97 H101 0.960 . S
C97 H102 0.960 . S
C97 H103 0.959 . S
H98 C94 0.960 . S
H99 C94 0.961 . S
H100 C94 0.960 . S
H101 C97 0.960 . S
H102 C97 0.960 . S
H103 C97 0.959 . S
Nd104 C106 2.836 . S
Nd104 O124 2.500 . S
Nd104 O125 2.492 . S
Nd104 O126 2.487 1_565 S
Nd104 O127 2.682 1_565 S
Nd104 O128 2.410 . S
Nd104 O133 2.414 . S
Nd104 O135 2.424 1_565 S
Nd105 C115 2.836 1_455 S
Nd105 O127 2.414 . S
Nd105 O129 2.424 1_545 S
Nd105 O130 2.500 . S
Nd105 O131 2.492 1_455 S
Nd105 O132 2.487 1_445 S
Nd105 O133 2.682 1_545 S
Nd105 O134 2.410 . S
C106 Nd104 2.836 . S
C106 C107 1.498 . S
C106 O124 1.258 . S
C106 O125 1.239 . S
C107 C106 1.498 . S
C107 C108 1.366 . S
C107 C112 1.407 . S
C108 C107 1.366 . S
C108 C109 1.392 . S
C108 H136 0.930 . S
C109 C108 1.392 . S
C109 C110 1.398 . S
C109 H137 0.929 . S
C110 C109 1.398 . S
C110 C111 1.352 . S
C111 C110 1.352 . S
C111 C112 1.384 . S
C111 H138 0.930 . S
C112 C107 1.407 . S
C112 C111 1.384 . S
C112 H139 0.929 . S
C113 O126 1.241 . S
C113 O127 1.273 . S
C114 O128 1.251 . S
C114 O129 1.268 . S
C115 Nd105 2.836 1_655 S
C115 C116 1.498 . S
C115 O130 1.258 1_655 S
C115 O131 1.239 . S
C116 C115 1.498 . S
C116 C117 1.366 . S
C116 C121 1.407 . S
C117 C116 1.366 . S
C117 C118 1.392 . S
C117 H140 0.930 1_655 S
C118 C117 1.392 . S
C118 C119 1.398 . S
C118 H141 0.929 . S
C119 C118 1.398 . S
C119 C120 1.352 . S
C120 C119 1.352 . S
C120 C121 1.384 . S
C120 H142 0.930 . S
C121 C116 1.407 . S
C121 C120 1.384 . S
C121 H143 0.929 . S
C122 O132 1.241 1_455 S
C122 O133 1.273 . S
C123 O134 1.251 . S
C123 O135 1.268 . S
O124 Nd104 2.500 . S
O124 C106 1.258 . S
O125 Nd104 2.492 . S
O125 C106 1.239 . S
O126 Nd104 2.487 1_545 S
O126 C113 1.241 . S
O127 Nd104 2.682 1_545 S
O127 Nd105 2.414 . S
O127 C113 1.273 . S
O128 Nd104 2.410 . S
O128 C114 1.251 . S
O129 Nd105 2.424 1_565 S
O129 C114 1.268 . S
O130 Nd105 2.500 . S
O130 C115 1.258 1_455 S
O131 Nd105 2.492 1_655 S
O131 C115 1.239 . S
O132 Nd105 2.487 1_665 S
O132 C122 1.241 1_655 S
O133 Nd104 2.414 . S
O133 Nd105 2.682 1_565 S
O133 C122 1.273 . S
O134 Nd105 2.410 . S
O134 C123 1.251 . S
O135 Nd104 2.424 1_545 S
O135 C123 1.268 . S
H136 C108 0.930 . S
H137 C109 0.929 . S
H138 C111 0.930 . S
H139 C112 0.929 . S
H140 C117 0.930 1_455 S
H141 C118 0.929 . S
H142 C120 0.930 . S
H143 C121 0.929 . S
Nd144 C146 2.836 . S
Nd144 O164 2.500 . S
Nd144 O165 2.492 . S
Nd144 O166 2.487 1_565 S
Nd144 O167 2.682 1_565 S
Nd144 O168 2.410 . S
Nd144 O173 2.414 . S
Nd144 O175 2.424 1_565 S
Nd145 C155 2.836 1_554 S
Nd145 O167 2.414 . S
Nd145 O169 2.424 1_544 S
Nd145 O170 2.500 . S
Nd145 O171 2.492 1_554 S
Nd145 O172 2.487 . S
Nd145 O173 2.682 1_545 S
Nd145 O174 2.410 . S
C146 Nd144 2.836 . S
C146 C147 1.498 . S
C146 O164 1.258 . S
C146 O165 1.239 . S
C147 C146 1.498 . S
C147 C148 1.366 . S
C147 C152 1.407 . S
C148 C147 1.366 . S
C148 C149 1.392 . S
C148 H176 0.930 . S
C149 C148 1.392 . S
C149 C150 1.398 . S
C149 H177 0.929 . S
C150 C149 1.398 . S
C150 C151 1.352 . S
C151 C150 1.352 . S
C151 C152 1.384 . S
C151 H178 0.930 . S
C152 C147 1.407 . S
C152 C151 1.384 . S
C152 H179 0.929 . S
C153 O166 1.241 . S
C153 O167 1.273 . S
C154 O168 1.251 . S
C154 O169 1.268 1_554 S
C155 Nd145 2.836 1_556 S
C155 C156 1.498 . S
C155 O170 1.258 1_556 S
C155 O171 1.239 . S
C156 C155 1.498 . S
C156 C157 1.369 . S
C156 C161 1.407 . S
C157 C156 1.369 . S
C157 C158 1.394 . S
C157 H180 0.926 1_556 S
C158 C157 1.394 . S
C158 C159 1.398 . S
C158 H181 0.929 1_556 S
C159 C158 1.398 . S
C159 C160 1.352 . S
C160 C159 1.352 . S
C160 C161 1.384 . S
C160 H182 0.930 . S
C161 C156 1.407 . S
C161 C160 1.384 . S
C161 H183 0.929 . S
C162 O172 1.241 1_565 S
C162 O173 1.273 . S
C163 O174 1.251 . S
C163 O175 1.268 . S
O164 Nd144 2.500 . S
O164 C146 1.258 . S
O165 Nd144 2.492 . S
O165 C146 1.239 . S
O166 Nd144 2.487 1_545 S
O166 C153 1.241 . S
O167 Nd144 2.682 1_545 S
O167 Nd145 2.414 . S
O167 C153 1.273 . S
O168 Nd144 2.410 . S
O168 C154 1.251 . S
O169 Nd145 2.424 1_566 S
O169 C154 1.268 1_556 S
O170 Nd145 2.500 . S
O170 C155 1.258 1_554 S
O171 Nd145 2.492 1_556 S
O171 C155 1.239 . S
O172 Nd145 2.487 . S
O172 C162 1.241 1_545 S
O173 Nd144 2.414 . S
O173 Nd145 2.682 1_565 S
O173 C162 1.273 . S
O174 Nd145 2.410 . S
O174 C163 1.251 . S
O175 Nd144 2.424 1_545 S
O175 C163 1.268 . S
H176 C148 0.930 . S
H177 C149 0.929 . S
H178 C151 0.930 . S
H179 C152 0.929 . S
H180 C157 0.926 1_554 S
H181 C158 0.929 1_554 S
H182 C160 0.930 . S
H183 C161 0.929 . S
Nd184 C186 2.836 . S
Nd184 O204 2.500 . S
Nd184 O205 2.492 . S
Nd184 O206 2.487 . S
Nd184 O207 2.682 . S
Nd184 O208 2.410 . S
Nd184 O213 2.414 . S
Nd184 O215 2.424 . S
Nd185 C195 2.836 . S
Nd185 O207 2.414 . S
Nd185 O209 2.424 . S
Nd185 O210 2.500 . S
Nd185 O211 2.492 . S
Nd185 O212 2.487 . S
Nd185 O213 2.682 . S
Nd185 O214 2.410 . S
C186 Nd184 2.836 . S
C186 C187 1.498 . S
C186 O204 1.258 . S
C186 O205 1.239 . S
C187 C186 1.498 . S
C187 C188 1.366 . S
C187 C192 1.407 . S
C188 C187 1.366 . S
C188 C189 1.392 . S
C188 H216 0.930 . S
C189 C188 1.392 . S
C189 C190 1.398 . S
C189 H217 0.929 . S
C190 C189 1.398 . S
C190 C191 1.352 . S
C191 C190 1.352 . S
C191 C192 1.384 . S
C191 H218 0.930 . S
C192 C187 1.407 . S
C192 C191 1.384 . S
C192 H219 0.929 . S
C193 O206 1.241 . S
C193 O207 1.273 . S
C194 O208 1.251 . S
C194 O209 1.268 . S
C195 Nd185 2.836 . S
C195 C196 1.498 . S
C195 O210 1.258 . S
C195 O211 1.239 . S
C196 C195 1.498 . S
C196 C197 1.366 . S
C196 C201 1.407 . S
C197 C196 1.366 . S
C197 C198 1.392 . S
C197 H220 0.930 . S
C198 C197 1.392 . S
C198 C199 1.398 . S
C198 H221 0.929 . S
C199 C198 1.398 . S
C199 C200 1.352 . S
C200 C199 1.352 . S
C200 C201 1.384 . S
C200 H222 0.930 . S
C201 C196 1.407 . S
C201 C200 1.384 . S
C201 H223 0.929 . S
C202 O212 1.241 . S
C202 O213 1.273 . S
C203 O214 1.251 . S
C203 O215 1.268 . S
O204 Nd184 2.500 . S
O204 C186 1.258 . S
O205 Nd184 2.492 . S
O205 C186 1.239 . S
O206 Nd184 2.487 . S
O206 C193 1.241 . S
O207 Nd184 2.682 . S
O207 Nd185 2.414 . S
O207 C193 1.273 . S
O208 Nd184 2.410 . S
O208 C194 1.251 . S
O209 Nd185 2.424 . S
O209 C194 1.268 . S
O210 Nd185 2.500 . S
O210 C195 1.258 . S
O211 Nd185 2.492 . S
O211 C195 1.239 . S
O212 Nd185 2.487 . S
O212 C202 1.241 . S
O213 Nd184 2.414 . S
O213 Nd185 2.682 . S
O213 C202 1.273 . S
O214 Nd185 2.410 . S
O214 C203 1.251 . S
O215 Nd184 2.424 . S
O215 C203 1.268 . S
H216 C188 0.930 . S
H217 C189 0.929 . S
H218 C191 0.930 . S
H219 C192 0.929 . S
H220 C197 0.930 . S
H221 C198 0.929 . S
H222 C200 0.930 . S
H223 C201 0.929 . S
Nd224 C226 2.837 . S
Nd224 O244 2.502 . S
Nd224 O245 2.492 . S
Nd224 O246 2.485 1_655 S
Nd224 O247 2.680 1_655 S
Nd224 O248 2.410 . S
Nd224 O253 2.415 1_554 S
Nd224 O255 2.423 1_655 S
Nd225 C235 2.836 . S
Nd225 O247 2.414 1_556 S
Nd225 O249 2.424 1_455 S
Nd225 O250 2.500 . S
Nd225 O251 2.492 . S
Nd225 O252 2.487 1_455 S
Nd225 O253 2.682 1_455 S
Nd225 O254 2.410 . S
C226 Nd224 2.837 . S
C226 C227 1.498 . S
C226 O244 1.258 . S
C226 O245 1.239 . S
C227 C226 1.498 . S
C227 C228 1.366 . S
C227 C232 1.407 . S
C228 C227 1.366 . S
C228 C229 1.392 . S
C228 H256 0.930 . S
C229 C228 1.392 . S
C229 C230 1.398 . S
C229 H257 0.929 . S
C230 C229 1.398 . S
C230 C231 1.352 . S
C231 C230 1.352 . S
C231 C232 1.384 . S
C231 H258 0.930 . S
C232 C227 1.407 . S
C232 C231 1.384 . S
C232 H259 0.929 . S
C233 O246 1.241 . S
C233 O247 1.273 . S
C234 O248 1.251 1_556 S
C234 O249 1.268 . S
C235 Nd225 2.836 . S
C235 C236 1.498 . S
C235 O250 1.258 . S
C235 O251 1.239 . S
C236 C235 1.498 . S
C236 C237 1.366 . S
C236 C241 1.407 . S
C237 C236 1.366 . S
C237 C238 1.392 . S
C237 H260 0.930 . S
C238 C237 1.392 . S
C238 C239 1.398 . S
C238 H261 0.929 . S
C239 C238 1.398 . S
C239 C240 1.352 . S
C240 C239 1.352 . S
C240 C241 1.384 . S
C240 H262 0.930 . S
C241 C236 1.407 . S
C241 C240 1.384 . S
C241 H263 0.929 . S
C242 O252 1.241 . S
C242 O253 1.273 . S
C243 O254 1.251 1_554 S
C243 O255 1.268 . S
O244 Nd224 2.502 . S
O244 C226 1.258 . S
O245 Nd224 2.492 . S
O245 C226 1.239 . S
O246 Nd224 2.485 1_455 S
O246 C233 1.241 . S
O247 Nd224 2.680 1_455 S
O247 Nd225 2.414 1_554 S
O247 C233 1.273 . S
O248 Nd224 2.410 . S
O248 C234 1.251 1_554 S
O249 Nd225 2.424 1_655 S
O249 C234 1.268 . S
O250 Nd225 2.500 . S
O250 C235 1.258 . S
O251 Nd225 2.492 . S
O251 C235 1.239 . S
O252 Nd225 2.487 1_655 S
O252 C242 1.241 . S
O253 Nd224 2.415 1_556 S
O253 Nd225 2.682 1_655 S
O253 C242 1.273 . S
O254 Nd225 2.410 . S
O254 C243 1.251 1_556 S
O255 Nd224 2.423 1_455 S
O255 C243 1.268 . S
H256 C228 0.930 . S
H257 C229 0.929 . S
H258 C231 0.930 . S
H259 C232 0.929 . S
H260 C237 0.930 . S
H261 C238 0.929 . S
H262 C240 0.930 . S
H263 C241 0.929 . S
H264 C272 0.929 . S
H265 C274 0.930 . S
H266 C276 0.930 . S
H267 C279 0.929 . S
H268 C282 0.930 . S
H269 C284 0.960 . S
H270 C284 0.960 . S
H271 C284 0.960 . S
C272 H264 0.929 . S
C272 C273 1.377 . S
C272 C274 1.384 . S
C273 C272 1.377 . S
C273 C279 1.390 . S
C274 H265 0.930 . S
C274 C272 1.384 . S
C274 C275 1.372 . S
C275 C274 1.372 . S
C275 C276 1.400 . S
C275 C280 1.490 . S
C276 H266 0.930 . S
C276 C275 1.400 . S
C276 C279 1.386 . S
H277 C293 0.930 . S
H278 C294 0.931 . S
C279 H267 0.929 . S
C279 C273 1.390 . S
C279 C276 1.386 . S
C280 C275 1.490 . S
C280 C282 1.395 . S
C280 C283 1.403 . S
H281 C287 0.930 . S
C282 H268 0.930 . S
C282 C280 1.395 . S
C282 C285 1.403 . S
C283 C280 1.403 . S
C283 C284 1.524 . S
C283 C287 1.400 . S
C284 H269 0.960 . S
C284 H270 0.960 . S
C284 H271 0.960 . S
C284 C283 1.524 . S
C285 C282 1.403 . S
C285 C286 1.392 . S
C285 C289 1.495 . S
C286 C285 1.392 . S
C286 C287 1.385 . S
C286 C288 1.478 . S
C287 H281 0.930 . S
C287 C283 1.400 . S
C287 C286 1.385 . S
C288 C286 1.478 . S
C288 C290 1.381 . S
C288 C294 1.383 . S
C289 C285 1.495 . S
C289 H295 0.959 . S
C289 H296 0.961 . S
C289 H297 0.960 . S
C290 C288 1.381 . S
C290 C291 1.394 . S
C290 H298 0.930 . S
C291 C290 1.394 . S
C291 C292 1.383 . S
C291 H299 0.929 . S
C292 C291 1.383 . S
C292 C293 1.377 . S
C293 H277 0.930 . S
C293 C292 1.377 . S
C293 C294 1.379 . S
C294 H278 0.931 . S
C294 C288 1.383 . S
C294 C293 1.379 . S
H295 C289 0.959 . S
H296 C289 0.961 . S
H297 C289 0.960 . S
H298 C290 0.930 . S
H299 C291 0.929 . S
H300 C308 0.929 . S
H301 C310 0.930 . S
H302 C312 0.930 . S
H303 C315 0.929 . S
H304 C318 0.930 . S
H305 C320 0.960 . S
H306 C320 0.960 . S
H307 C320 0.960 . S
C308 H300 0.929 . S
C308 C309 1.377 . S
C308 C310 1.384 . S
C309 C308 1.377 . S
C309 C315 1.390 . S
C310 H301 0.930 . S
C310 C308 1.384 . S
C310 C311 1.372 . S
C311 C310 1.372 . S
C311 C312 1.400 . S
C311 C316 1.490 . S
C312 H302 0.930 . S
C312 C311 1.400 . S
C312 C315 1.386 . S
H313 C329 0.930 . S
H314 C330 0.931 . S
C315 H303 0.929 . S
C315 C309 1.390 . S
C315 C312 1.386 . S
C316 C311 1.490 . S
C316 C318 1.395 . S
C316 C319 1.403 . S
H317 C323 0.930 . S
C318 H304 0.930 . S
C318 C316 1.395 . S
C318 C321 1.403 . S
C319 C316 1.403 . S
C319 C320 1.524 . S
C319 C323 1.400 . S
C320 H305 0.960 . S
C320 H306 0.960 . S
C320 H307 0.960 . S
C320 C319 1.524 . S
C321 C318 1.403 . S
C321 C322 1.392 . S
C321 C325 1.495 . S
C322 C321 1.392 . S
C322 C323 1.385 . S
C322 C324 1.478 . S
C323 H317 0.930 . S
C323 C319 1.400 . S
C323 C322 1.385 . S
C324 C322 1.478 . S
C324 C326 1.381 . S
C324 C330 1.383 . S
C325 C321 1.495 . S
C325 H331 0.959 . S
C325 H332 0.961 . S
C325 H333 0.960 . S
C326 C324 1.381 . S
C326 C327 1.394 . S
C326 H334 0.930 . S
C327 C326 1.394 . S
C327 C328 1.383 . S
C327 H335 0.929 . S
C328 C327 1.383 . S
C328 C329 1.377 . S
C329 H313 0.930 . S
C329 C328 1.377 . S
C329 C330 1.379 . S
C330 H314 0.931 . S
C330 C324 1.383 . S
C330 C329 1.379 . S
H331 C325 0.959 . S
H332 C325 0.961 . S
H333 C325 0.960 . S
H334 C326 0.930 . S
H335 C327 0.929 . S
H336 C344 0.929 . S
H337 C346 0.930 . S
H338 C348 0.930 . S
H339 C351 0.929 . S
H340 C354 0.930 . S
H341 C356 0.960 . S
H342 C356 0.960 . S
H343 C356 0.960 . S
C344 H336 0.929 . S
C344 C345 1.377 . S
C344 C346 1.384 . S
C345 C344 1.377 . S
C345 C351 1.390 . S
C346 H337 0.930 . S
C346 C344 1.384 . S
C346 C347 1.372 . S
C347 C346 1.372 . S
C347 C348 1.400 . S
C347 C352 1.490 . S
C348 H338 0.930 . S
C348 C347 1.400 . S
C348 C351 1.386 . S
H349 C365 0.930 . S
H350 C366 0.931 . S
C351 H339 0.929 . S
C351 C345 1.390 . S
C351 C348 1.386 . S
C352 C347 1.490 . S
C352 C354 1.395 . S
C352 C355 1.403 . S
H353 C359 0.930 . S
C354 H340 0.930 . S
C354 C352 1.395 . S
C354 C357 1.403 . S
C355 C352 1.403 . S
C355 C356 1.524 . S
C355 C359 1.400 . S
C356 H341 0.960 . S
C356 H342 0.960 . S
C356 H343 0.960 . S
C356 C355 1.524 . S
C357 C354 1.403 . S
C357 C358 1.392 . S
C357 C361 1.495 . S
C358 C357 1.392 . S
C358 C359 1.385 . S
C358 C360 1.478 . S
C359 H353 0.930 . S
C359 C355 1.400 . S
C359 C358 1.385 . S
C360 C358 1.478 . S
C360 C362 1.381 . S
C360 C366 1.383 . S
C361 C357 1.495 . S
C361 H367 0.959 . S
C361 H368 0.961 . S
C361 H369 0.960 . S
C362 C360 1.381 . S
C362 C363 1.394 . S
C362 H370 0.930 . S
C363 C362 1.394 . S
C363 C364 1.383 . S
C363 H371 0.929 . S
C364 C363 1.383 . S
C364 C365 1.377 . S
C365 H349 0.930 . S
C365 C364 1.377 . S
C365 C366 1.379 . S
C366 H350 0.931 . S
C366 C360 1.383 . S
C366 C365 1.379 . S
H367 C361 0.959 . S
H368 C361 0.961 . S
H369 C361 0.960 . S
H370 C362 0.930 . S
H371 C363 0.929 . S
H372 C380 0.929 . S
H373 C382 0.930 . S
H374 C384 0.930 . S
H375 C387 0.929 . S
H376 C390 0.930 . S
H377 C392 0.960 . S
H378 C392 0.960 . S
H379 C392 0.960 . S
C380 H372 0.929 . S
C380 C381 1.377 . S
C380 C382 1.384 . S
C381 C380 1.377 . S
C381 C387 1.390 . S
C382 H373 0.930 . S
C382 C380 1.384 . S
C382 C383 1.372 . S
C383 C382 1.372 . S
C383 C384 1.400 . S
C383 C388 1.490 . S
C384 H374 0.930 . S
C384 C383 1.400 . S
C384 C387 1.386 . S
H385 C401 0.930 . S
H386 C402 0.931 . S
C387 H375 0.929 . S
C387 C381 1.390 . S
C387 C384 1.386 . S
C388 C383 1.490 . S
C388 C390 1.395 . S
C388 C391 1.403 . S
H389 C395 0.930 . S
C390 H376 0.930 . S
C390 C388 1.395 . S
C390 C393 1.403 . S
C391 C388 1.403 . S
C391 C392 1.524 . S
C391 C395 1.400 . S
C392 H377 0.960 . S
C392 H378 0.960 . S
C392 H379 0.960 . S
C392 C391 1.524 . S
C393 C390 1.403 . S
C393 C394 1.392 . S
C393 C397 1.495 . S
C394 C393 1.392 . S
C394 C395 1.385 . S
C394 C396 1.478 . S
C395 H389 0.930 . S
C395 C391 1.400 . S
C395 C394 1.385 . S
C396 C394 1.478 . S
C396 C398 1.381 . S
C396 C402 1.383 . S
C397 C393 1.495 . S
C397 H403 0.959 . S
C397 H404 0.961 . S
C397 H405 0.960 . S
C398 C396 1.381 . S
C398 C399 1.394 . S
C398 H406 0.930 . S
C399 C398 1.394 . S
C399 C400 1.383 . S
C399 H407 0.929 . S
C400 C399 1.383 . S
C400 C401 1.377 . S
C401 H385 0.930 . S
C401 C400 1.377 . S
C401 C402 1.379 . S
C402 H386 0.931 . S
C402 C396 1.383 . S
C402 C401 1.379 . S
H403 C397 0.959 . S
H404 C397 0.961 . S
H405 C397 0.960 . S
H406 C398 0.930 . S
H407 C399 0.929 . S
H408 C416 0.929 . S
H409 C418 0.930 . S
H410 C420 0.930 . S
H411 C423 0.929 . S
H412 C426 0.930 . S
H413 C428 0.960 . S
H414 C428 0.960 . S
H415 C428 0.960 . S
C416 H408 0.929 . S
C416 C417 1.377 . S
C416 C418 1.384 . S
C417 C416 1.377 . S
C417 C423 1.390 . S
C418 H409 0.930 . S
C418 C416 1.384 . S
C418 C419 1.372 . S
C419 C418 1.372 . S
C419 C420 1.400 . S
C419 C424 1.490 . S
C420 H410 0.930 . S
C420 C419 1.400 . S
C420 C423 1.386 . S
H421 C437 0.930 . S
H422 C438 0.931 . S
C423 H411 0.929 . S
C423 C417 1.390 . S
C423 C420 1.386 . S
C424 C419 1.490 . S
C424 C426 1.395 . S
C424 C427 1.403 . S
H425 C431 0.930 . S
C426 H412 0.930 . S
C426 C424 1.395 . S
C426 C429 1.403 . S
C427 C424 1.403 . S
C427 C428 1.524 . S
C427 C431 1.400 . S
C428 H413 0.960 . S
C428 H414 0.960 . S
C428 H415 0.960 . S
C428 C427 1.524 . S
C429 C426 1.403 . S
C429 C430 1.392 . S
C429 C433 1.495 . S
C430 C429 1.392 . S
C430 C431 1.385 . S
C430 C432 1.478 . S
C431 H425 0.930 . S
C431 C427 1.400 . S
C431 C430 1.385 . S
C432 C430 1.478 . S
C432 C434 1.381 . S
C432 C438 1.383 . S
C433 C429 1.495 . S
C433 H439 0.959 . S
C433 H440 0.961 . S
C433 H441 0.960 . S
C434 C432 1.381 . S
C434 C435 1.394 . S
C434 H442 0.930 . S
C435 C434 1.394 . S
C435 C436 1.383 . S
C435 H443 0.929 . S
C436 C435 1.383 . S
C436 C437 1.377 . S
C437 H421 0.930 . S
C437 C436 1.377 . S
C437 C438 1.379 . S
C438 H422 0.931 . S
C438 C432 1.383 . S
C438 C437 1.379 . S
H439 C433 0.959 . S
H440 C433 0.961 . S
H441 C433 0.960 . S
H442 C434 0.930 . S
H443 C435 0.929 . S
H444 C452 0.929 . S
H445 C454 0.930 . S
H446 C456 0.930 . S
H447 C459 0.929 . S
H448 C462 0.930 . S
H449 C464 0.960 . S
H450 C464 0.960 . S
H451 C464 0.960 . S
C452 H444 0.929 . S
C452 C453 1.377 . S
C452 C454 1.384 . S
C453 C452 1.377 . S
C453 C459 1.390 . S
C454 H445 0.930 . S
C454 C452 1.384 . S
C454 C455 1.372 . S
C455 C454 1.372 . S
C455 C456 1.400 . S
C455 C460 1.490 . S
C456 H446 0.930 . S
C456 C455 1.400 . S
C456 C459 1.386 . S
H457 C473 0.930 . S
H458 C474 0.931 . S
C459 H447 0.929 . S
C459 C453 1.390 . S
C459 C456 1.386 . S
C460 C455 1.490 . S
C460 C462 1.395 . S
C460 C463 1.403 . S
H461 C467 0.930 . S
C462 H448 0.930 . S
C462 C460 1.395 . S
C462 C465 1.403 . S
C463 C460 1.403 . S
C463 C464 1.524 . S
C463 C467 1.400 . S
C464 H449 0.960 . S
C464 H450 0.960 . S
C464 H451 0.960 . S
C464 C463 1.524 . S
C465 C462 1.403 . S
C465 C466 1.392 . S
C465 C469 1.495 . S
C466 C465 1.392 . S
C466 C467 1.385 . S
C466 C468 1.478 . S
C467 H461 0.930 . S
C467 C463 1.400 . S
C467 C466 1.385 . S
C468 C466 1.478 . S
C468 C470 1.381 . S
C468 C474 1.383 . S
C469 C465 1.495 . S
C469 H475 0.959 . S
C469 H476 0.961 . S
C469 H477 0.960 . S
C470 C468 1.381 . S
C470 C471 1.394 . S
C470 H478 0.930 . S
C471 C470 1.394 . S
C471 C472 1.383 . S
C471 H479 0.929 . S
C472 C471 1.383 . S
C472 C473 1.377 . S
C473 H457 0.930 . S
C473 C472 1.377 . S
C473 C474 1.379 . S
C474 H458 0.931 . S
C474 C468 1.383 . S
C474 C473 1.379 . S
H475 C469 0.959 . S
H476 C469 0.961 . S
H477 C469 0.960 . S
H478 C470 0.930 . S
H479 C471 0.929 . S
H480 C488 0.929 . S
H481 C490 0.930 . S
H482 C492 0.930 . S
H483 C495 0.929 . S
H484 C498 0.930 . S
H485 C500 0.960 . S
H486 C500 0.960 . S
H487 C500 0.960 . S
C488 H480 0.929 . S
C488 C489 1.377 . S
C488 C490 1.384 . S
C489 C488 1.377 . S
C489 C495 1.390 . S
C490 H481 0.930 . S
C490 C488 1.384 . S
C490 C491 1.372 . S
C491 C490 1.372 . S
C491 C492 1.400 . S
C491 C496 1.490 . S
C492 H482 0.930 . S
C492 C491 1.400 . S
C492 C495 1.386 . S
H493 C509 0.930 . S
H494 C510 0.931 . S
C495 H483 0.929 . S
C495 C489 1.390 . S
C495 C492 1.386 . S
C496 C491 1.490 . S
C496 C498 1.395 . S
C496 C499 1.403 . S
H497 C503 0.930 . S
C498 H484 0.930 . S
C498 C496 1.395 . S
C498 C501 1.403 . S
C499 C496 1.403 . S
C499 C500 1.524 . S
C499 C503 1.400 . S
C500 H485 0.960 . S
C500 H486 0.960 . S
C500 H487 0.960 . S
C500 C499 1.524 . S
C501 C498 1.403 . S
C501 C502 1.392 . S
C501 C505 1.495 . S
C502 C501 1.392 . S
C502 C503 1.385 . S
C502 C504 1.478 . S
C503 H497 0.930 . S
C503 C499 1.400 . S
C503 C502 1.385 . S
C504 C502 1.478 . S
C504 C506 1.381 . S
C504 C510 1.383 . S
C505 C501 1.495 . S
C505 H511 0.959 . S
C505 H512 0.961 . S
C505 H513 0.960 . S
C506 C504 1.381 . S
C506 C507 1.394 . S
C506 H514 0.930 . S
C507 C506 1.394 . S
C507 C508 1.383 . S
C507 H515 0.929 . S
C508 C507 1.383 . S
C508 C509 1.377 . S
C509 H493 0.930 . S
C509 C508 1.377 . S
C509 C510 1.379 . S
C510 H494 0.931 . S
C510 C504 1.383 . S
C510 C509 1.379 . S
H511 C505 0.959 . S
H512 C505 0.961 . S
H513 C505 0.960 . S
H514 C506 0.930 . S
H515 C507 0.929 . S
H516 C524 0.929 . S
H517 C526 0.930 . S
H518 C528 0.930 . S
H519 C531 0.929 . S
H520 C534 0.930 . S
H521 C536 0.960 . S
H522 C536 0.960 . S
H523 C536 0.960 . S
C524 H516 0.929 . S
C524 C525 1.377 . S
C524 C526 1.384 . S
C525 C524 1.377 . S
C525 C531 1.390 . S
C526 H517 0.930 . S
C526 C524 1.384 . S
C526 C527 1.372 . S
C527 C526 1.372 . S
C527 C528 1.400 . S
C527 C532 1.490 . S
C528 H518 0.930 . S
C528 C527 1.400 . S
C528 C531 1.386 . S
H529 C545 0.930 . S
H530 C546 0.931 . S
C531 H519 0.929 . S
C531 C525 1.390 . S
C531 C528 1.386 . S
C532 C527 1.490 . S
C532 C534 1.395 . S
C532 C535 1.403 . S
H533 C539 0.930 . S
C534 H520 0.930 . S
C534 C532 1.395 . S
C534 C537 1.403 . S
C535 C532 1.403 . S
C535 C536 1.524 . S
C535 C539 1.400 . S
C536 H521 0.960 . S
C536 H522 0.960 . S
C536 H523 0.960 . S
C536 C535 1.524 . S
C537 C534 1.403 . S
C537 C538 1.392 . S
C537 C541 1.495 . S
C538 C537 1.392 . S
C538 C539 1.385 . S
C538 C540 1.478 . S
C539 H533 0.930 . S
C539 C535 1.400 . S
C539 C538 1.385 . S
C540 C538 1.478 . S
C540 C542 1.381 . S
C540 C546 1.383 . S
C541 C537 1.495 . S
C541 H547 0.959 . S
C541 H548 0.961 . S
C541 H549 0.960 . S
C542 C540 1.381 . S
C542 C543 1.394 . S
C542 H550 0.930 . S
C543 C542 1.394 . S
C543 C544 1.383 . S
C543 H551 0.929 . S
C544 C543 1.383 . S
C544 C545 1.377 . S
C545 H529 0.930 . S
C545 C544 1.377 . S
C545 C546 1.379 . S
C546 H530 0.931 . S
C546 C540 1.383 . S
C546 C545 1.379 . S
H547 C541 0.959 . S
H548 C541 0.961 . S
H549 C541 0.960 . S
H550 C542 0.930 . S
H551 C543 0.929 . S
H552 C560 0.929 . S
H553 C562 0.930 . S
H554 C564 0.930 . S
H555 C567 0.929 . S
H556 C570 0.930 . S
H557 C572 0.960 . S
H558 C572 0.960 . S
H559 C572 0.960 . S
C560 H552 0.929 . S
C560 C561 1.377 . S
C560 C562 1.384 . S
C561 C560 1.377 . S
C561 C567 1.390 . S
C562 H553 0.930 . S
C562 C560 1.384 . S
C562 C563 1.372 . S
C563 C562 1.372 . S
C563 C564 1.400 . S
C563 C568 1.490 . S
C564 H554 0.930 . S
C564 C563 1.400 . S
C564 C567 1.386 . S
H565 C581 0.930 1_556 S
H566 C582 0.924 1_556 S
C567 H555 0.929 . S
C567 C561 1.390 . S
C567 C564 1.386 . S
C568 C563 1.490 . S
C568 C570 1.395 . S
C568 C571 1.403 . S
H569 C575 0.930 . S
C570 H556 0.930 . S
C570 C568 1.395 . S
C570 C573 1.403 . S
C571 C568 1.403 . S
C571 C572 1.524 . S
C571 C575 1.400 . S
C572 H557 0.960 . S
C572 H558 0.960 . S
C572 H559 0.960 . S
C572 C571 1.524 . S
C573 C570 1.403 . S
C573 C574 1.392 . S
C573 C577 1.495 . S
C574 C573 1.392 . S
C574 C575 1.385 . S
C574 C576 1.478 . S
C575 H569 0.930 . S
C575 C571 1.400 . S
C575 C574 1.385 . S
C576 C574 1.478 . S
C576 C578 1.381 . S
C576 C582 1.383 . S
C577 C573 1.495 . S
C577 H583 0.959 . S
C577 H584 0.961 . S
C577 H585 0.960 . S
C578 C576 1.381 . S
C578 C579 1.394 . S
C578 H586 0.930 . S
C579 C578 1.394 . S
C579 C580 1.383 . S
C579 H587 0.929 . S
C580 C579 1.383 . S
C580 C581 1.377 . S
C581 H565 0.930 1_554 S
C581 C580 1.377 . S
C581 C582 1.379 . S
C582 H566 0.924 1_554 S
C582 C576 1.383 . S
C582 C581 1.379 . S
H583 C577 0.959 . S
H584 C577 0.961 . S
H585 C577 0.960 . S
H586 C578 0.930 . S
H587 C579 0.929 . S
H588 C596 0.929 . S
H589 C598 0.930 . S
H590 C600 0.930 . S
H591 C603 0.929 . S
H592 C606 0.930 . S
H593 C608 0.960 . S
H594 C608 0.960 . S
H595 C608 0.960 . S
C596 H588 0.929 . S
C596 C597 1.377 . S
C596 C598 1.384 . S
C597 C596 1.377 . S
C597 C603 1.390 . S
C598 H589 0.930 . S
C598 C596 1.384 . S
C598 C599 1.372 . S
C599 C598 1.372 . S
C599 C600 1.400 . S
C599 C604 1.490 . S
C600 H590 0.930 . S
C600 C599 1.400 . S
C600 C603 1.386 . S
H601 C617 0.930 . S
H602 C618 0.931 . S
C603 H591 0.929 . S
C603 C597 1.390 . S
C603 C600 1.386 . S
C604 C599 1.490 . S
C604 C606 1.395 . S
C604 C607 1.403 . S
H605 C611 0.930 . S
C606 H592 0.930 . S
C606 C604 1.395 . S
C606 C609 1.403 . S
C607 C604 1.403 . S
C607 C608 1.524 . S
C607 C611 1.400 . S
C608 H593 0.960 . S
C608 H594 0.960 . S
C608 H595 0.960 . S
C608 C607 1.524 . S
C609 C606 1.403 . S
C609 C610 1.392 . S
C609 C613 1.495 . S
C610 C609 1.392 . S
C610 C611 1.385 . S
C610 C612 1.478 . S
C611 H605 0.930 . S
C611 C607 1.400 . S
C611 C610 1.385 . S
C612 C610 1.478 . S
C612 C614 1.381 . S
C612 C618 1.383 . S
C613 C609 1.495 . S
C613 H619 0.959 . S
C613 H620 0.961 . S
C613 H621 0.960 . S
C614 C612 1.381 . S
C614 C615 1.394 . S
C614 H622 0.930 . S
C615 C614 1.394 . S
C615 C616 1.383 . S
C615 H623 0.929 1_556 S
C616 C615 1.383 . S
C616 C617 1.377 . S
C617 H601 0.930 . S
C617 C616 1.377 . S
C617 C618 1.379 . S
C618 H602 0.931 . S
C618 C612 1.383 . S
C618 C617 1.379 . S
H619 C613 0.959 . S
H620 C613 0.961 . S
H621 C613 0.960 . S
H622 C614 0.930 . S
H623 C615 0.929 1_554 S
H624 C632 0.929 . S
H625 C634 0.930 . S
H626 C636 0.930 . S
H627 C639 0.929 . S
H628 C642 0.930 . S
H629 C644 0.960 . S
H630 C644 0.960 . S
H631 C644 0.960 . S
C632 H624 0.929 . S
C632 C633 1.377 . S
C632 C634 1.384 . S
C633 C632 1.377 . S
C633 C639 1.390 . S
C634 H625 0.930 . S
C634 C632 1.384 . S
C634 C635 1.372 . S
C635 C634 1.372 . S
C635 C636 1.400 . S
C635 C640 1.490 . S
C636 H626 0.930 . S
C636 C635 1.400 . S
C636 C639 1.386 . S
H637 C653 0.930 . S
H638 C654 0.931 . S
C639 H627 0.929 . S
C639 C633 1.390 . S
C639 C636 1.386 . S
C640 C635 1.490 . S
C640 C642 1.395 . S
C640 C643 1.403 . S
H641 C647 0.930 . S
C642 H628 0.930 . S
C642 C640 1.395 . S
C642 C645 1.403 . S
C643 C640 1.403 . S
C643 C644 1.524 . S
C643 C647 1.400 . S
C644 H629 0.960 . S
C644 H630 0.960 . S
C644 H631 0.960 . S
C644 C643 1.524 . S
C645 C642 1.403 . S
C645 C646 1.392 . S
C645 C649 1.495 1_655 S
C646 C645 1.392 . S
C646 C647 1.385 . S
C646 C648 1.478 . S
C647 H641 0.930 . S
C647 C643 1.400 . S
C647 C646 1.385 . S
C648 C646 1.478 . S
C648 C650 1.381 1_655 S
C648 C654 1.383 . S
C649 C645 1.495 1_455 S
C649 H655 0.959 . S
C649 H656 0.961 . S
C649 H657 0.960 . S
C650 C648 1.381 1_455 S
C650 C651 1.394 . S
C650 H658 0.930 . S
C651 C650 1.394 . S
C651 C652 1.383 . S
C651 H659 0.929 . S
C652 C651 1.383 . S
C652 C653 1.377 1_455 S
C653 H637 0.930 . S
C653 C652 1.377 1_655 S
C653 C654 1.379 . S
C654 H638 0.931 . S
C654 C648 1.383 . S
C654 C653 1.379 . S
H655 C649 0.959 . S
H656 C649 0.961 . S
H657 C649 0.960 . S
H658 C650 0.930 . S
H659 C651 0.929 . S
H660 C668 0.929 . S
H661 C670 0.930 . S
H662 C672 0.930 . S
H663 C675 0.929 . S
H664 C678 0.930 . S
H665 C680 0.960 . S
H666 C680 0.960 . S
H667 C680 0.960 . S
C668 H660 0.929 . S
C668 C669 1.377 . S
C668 C670 1.384 . S
C669 C668 1.377 . S
C669 C675 1.390 . S
C670 H661 0.930 . S
C670 C668 1.384 . S
C670 C671 1.372 . S
C671 C670 1.372 . S
C671 C672 1.400 . S
C671 C676 1.490 . S
C672 H662 0.930 . S
C672 C671 1.400 . S
C672 C675 1.386 . S
H673 C689 0.930 . S
H674 C690 0.931 . S
C675 H663 0.929 . S
C675 C669 1.390 . S
C675 C672 1.386 . S
C676 C671 1.490 . S
C676 C678 1.395 . S
C676 C679 1.403 . S
H677 C683 0.930 . S
C678 H664 0.930 . S
C678 C676 1.395 . S
C678 C681 1.403 . S
C679 C676 1.403 . S
C679 C680 1.524 . S
C679 C683 1.400 . S
C680 H665 0.960 . S
C680 H666 0.960 . S
C680 H667 0.960 . S
C680 C679 1.524 . S
C681 C678 1.403 . S
C681 C682 1.392 . S
C681 C685 1.495 . S
C682 C681 1.392 . S
C682 C683 1.385 . S
C682 C684 1.478 . S
C683 H677 0.930 . S
C683 C679 1.400 . S
C683 C682 1.385 . S
C684 C682 1.478 . S
C684 C686 1.381 . S
C684 C690 1.383 . S
C685 C681 1.495 . S
C685 H691 0.959 . S
C685 H692 0.961 . S
C685 H693 0.960 . S
C686 C684 1.381 . S
C686 C687 1.394 . S
C686 H694 0.930 . S
C687 C686 1.394 . S
C687 C688 1.383 . S
C687 H695 0.929 . S
C688 C687 1.383 . S
C688 C689 1.377 . S
C689 H673 0.930 . S
C689 C688 1.377 . S
C689 C690 1.379 . S
C690 H674 0.931 . S
C690 C684 1.383 . S
C690 C689 1.379 . S
H691 C685 0.959 . S
H692 C685 0.961 . S
H693 C685 0.960 . S
H694 C686 0.930 . S
H695 C687 0.929 . S
H696 C704 0.929 . S
H697 C706 0.930 . S
H698 C708 0.930 . S
H699 C711 0.929 . S
H700 C714 0.930 . S
H701 C716 0.960 1_455 S
H702 C716 0.960 . S
H703 C716 0.960 . S
C704 H696 0.929 . S
C704 C705 1.377 . S
C704 C706 1.384 . S
C705 C704 1.377 . S
C705 C711 1.390 . S
C706 H697 0.930 . S
C706 C704 1.384 . S
C706 C707 1.372 . S
C707 C706 1.372 . S
C707 C708 1.400 . S
C707 C712 1.490 . S
C708 H698 0.930 . S
C708 C707 1.400 . S
C708 C711 1.386 . S
H709 C725 0.930 . S
H710 C726 0.931 . S
C711 H699 0.929 . S
C711 C705 1.390 . S
C711 C708 1.386 . S
C712 C707 1.490 . S
C712 C714 1.395 . S
C712 C715 1.403 . S
H713 C719 0.930 . S
C714 H700 0.930 . S
C714 C712 1.395 . S
C714 C717 1.403 . S
C715 C712 1.403 . S
C715 C716 1.524 . S
C715 C719 1.400 . S
C716 H701 0.960 1_655 S
C716 H702 0.960 . S
C716 H703 0.960 . S
C716 C715 1.524 . S
C717 C714 1.403 . S
C717 C718 1.392 . S
C717 C721 1.495 . S
C718 C717 1.392 . S
C718 C719 1.385 . S
C718 C720 1.478 . S
C719 H713 0.930 . S
C719 C715 1.400 . S
C719 C718 1.385 . S
C720 C718 1.478 . S
C720 C722 1.381 . S
C720 C726 1.383 . S
C721 C717 1.495 . S
C721 H727 0.959 . S
C721 H728 0.961 . S
C721 H729 0.960 . S
C722 C720 1.381 . S
C722 C723 1.394 . S
C722 H730 0.930 . S
C723 C722 1.394 . S
C723 C724 1.383 1_655 S
C723 H731 0.929 . S
C724 C723 1.383 1_455 S
C724 C725 1.377 . S
C725 H709 0.930 . S
C725 C724 1.377 . S
C725 C726 1.379 1_455 S
C726 H710 0.931 . S
C726 C720 1.383 . S
C726 C725 1.379 1_655 S
H727 C721 0.959 . S
H728 C721 0.961 . S
H729 C721 0.960 . S
H730 C722 0.930 . S
H731 C723 0.929 . S
H732 C740 0.929 . S
H733 C742 0.930 . S
H734 C744 0.930 . S
H735 C747 0.929 . S
H736 C750 0.930 . S
H737 C752 0.960 . S
H738 C752 0.960 . S
H739 C752 0.960 . S
C740 H732 0.929 . S
C740 C741 1.377 . S
C740 C742 1.384 . S
C741 C740 1.377 . S
C741 C747 1.390 . S
C742 H733 0.930 . S
C742 C740 1.384 . S
C742 C743 1.372 . S
C743 C742 1.372 . S
C743 C744 1.400 . S
C743 C748 1.490 . S
C744 H734 0.930 . S
C744 C743 1.400 . S
C744 C747 1.386 . S
H745 C761 0.930 . S
H746 C762 0.931 . S
C747 H735 0.929 . S
C747 C741 1.390 . S
C747 C744 1.386 . S
C748 C743 1.490 . S
C748 C750 1.395 . S
C748 C751 1.403 . S
H749 C755 0.930 . S
C750 H736 0.930 . S
C750 C748 1.395 . S
C750 C753 1.403 . S
C751 C748 1.403 . S
C751 C752 1.524 . S
C751 C755 1.400 . S
C752 H737 0.960 . S
C752 H738 0.960 . S
C752 H739 0.960 . S
C752 C751 1.524 . S
C753 C750 1.403 . S
C753 C754 1.392 . S
C753 C757 1.495 . S
C754 C753 1.392 . S
C754 C755 1.385 . S
C754 C756 1.478 . S
C755 H749 0.930 . S
C755 C751 1.400 . S
C755 C754 1.385 . S
C756 C754 1.478 . S
C756 C758 1.381 . S
C756 C762 1.383 . S
C757 C753 1.495 . S
C757 H763 0.959 . S
C757 H764 0.961 . S
C757 H765 0.960 . S
C758 C756 1.381 . S
C758 C759 1.394 . S
C758 H766 0.930 . S
C759 C758 1.394 . S
C759 C760 1.383 . S
C759 H767 0.929 . S
C760 C759 1.383 . S
C760 C761 1.377 . S
C761 H745 0.930 . S
C761 C760 1.377 . S
C761 C762 1.379 . S
C762 H746 0.931 . S
C762 C756 1.383 . S
C762 C761 1.379 . S
H763 C757 0.959 . S
H764 C757 0.961 . S
H765 C757 0.960 . S
H766 C758 0.930 . S
H767 C759 0.929 . S
H768 C776 0.929 . S
H769 C778 0.930 . S
H770 C780 0.930 . S
H771 C783 0.929 . S
H772 C786 0.930 . S
H773 C788 0.960 . S
H774 C788 0.960 . S
H775 C788 0.960 . S
C776 H768 0.929 . S
C776 C777 1.377 . S
C776 C778 1.384 . S
C777 C776 1.377 . S
C777 C783 1.390 . S
C778 H769 0.930 . S
C778 C776 1.384 . S
C778 C779 1.372 . S
C779 C778 1.372 . S
C779 C780 1.400 . S
C779 C784 1.490 . S
C780 H770 0.930 . S
C780 C779 1.400 . S
C780 C783 1.386 . S
H781 C797 0.930 . S
H782 C798 0.931 . S
C783 H771 0.929 . S
C783 C777 1.390 . S
C783 C780 1.386 . S
C784 C779 1.490 . S
C784 C786 1.395 . S
C784 C787 1.403 . S
H785 C791 0.930 . S
C786 H772 0.930 . S
C786 C784 1.395 . S
C786 C789 1.403 . S
C787 C784 1.403 . S
C787 C788 1.524 . S
C787 C791 1.400 . S
C788 H773 0.960 . S
C788 H774 0.960 . S
C788 H775 0.960 . S
C788 C787 1.524 . S
C789 C786 1.403 . S
C789 C790 1.392 . S
C789 C793 1.495 . S
C790 C789 1.392 . S
C790 C791 1.385 . S
C790 C792 1.478 . S
C791 H785 0.930 . S
C791 C787 1.400 . S
C791 C790 1.385 . S
C792 C790 1.478 . S
C792 C794 1.381 . S
C792 C798 1.383 . S
C793 C789 1.495 . S
C793 H799 0.959 . S
C793 H800 0.961 . S
C793 H801 0.960 . S
C794 C792 1.381 . S
C794 C795 1.394 . S
C794 H802 0.930 . S
C795 C794 1.394 . S
C795 C796 1.383 . S
C795 H803 0.929 . S
C796 C795 1.383 . S
C796 C797 1.377 . S
C797 H781 0.930 . S
C797 C796 1.377 . S
C797 C798 1.379 . S
C798 H782 0.931 . S
C798 C792 1.383 . S
C798 C797 1.379 . S
H799 C793 0.959 . S
H800 C793 0.961 . S
H801 C793 0.960 . S
H802 C794 0.930 . S
H803 C795 0.929 . S
H804 C812 0.929 . S
H805 C814 0.930 . S
H806 C816 0.930 . S
H807 C819 0.929 . S
H808 C822 0.930 . S
H809 C824 0.960 . S
H810 C824 0.960 . S
H811 C824 0.960 . S
C812 H804 0.929 . S
C812 C813 1.377 . S
C812 C814 1.384 . S
C813 C812 1.377 . S
C813 C819 1.390 . S
C814 H805 0.930 . S
C814 C812 1.384 . S
C814 C815 1.372 . S
C815 C814 1.372 . S
C815 C816 1.400 . S
C815 C820 1.490 . S
C816 H806 0.930 . S
C816 C815 1.400 . S
C816 C819 1.386 . S
H817 C833 0.930 . S
H818 C834 0.931 . S
C819 H807 0.929 . S
C819 C813 1.390 . S
C819 C816 1.386 . S
C820 C815 1.490 . S
C820 C822 1.395 . S
C820 C823 1.403 . S
H821 C827 0.930 . S
C822 H808 0.930 . S
C822 C820 1.395 . S
C822 C825 1.403 . S
C823 C820 1.403 . S
C823 C824 1.524 . S
C823 C827 1.400 . S
C824 H809 0.960 . S
C824 H810 0.960 . S
C824 H811 0.960 . S
C824 C823 1.524 . S
C825 C822 1.403 . S
C825 C826 1.392 . S
C825 C829 1.495 . S
C826 C825 1.392 . S
C826 C827 1.385 . S
C826 C828 1.478 . S
C827 H821 0.930 . S
C827 C823 1.400 . S
C827 C826 1.385 . S
C828 C826 1.478 . S
C828 C830 1.381 . S
C828 C834 1.383 . S
C829 C825 1.495 . S
C829 H835 0.959 . S
C829 H836 0.961 . S
C829 H837 0.960 . S
C830 C828 1.381 . S
C830 C831 1.394 . S
C830 H838 0.930 . S
C831 C830 1.394 . S
C831 C832 1.383 . S
C831 H839 0.929 . S
C832 C831 1.383 . S
C832 C833 1.377 . S
C833 H817 0.930 . S
C833 C832 1.377 . S
C833 C834 1.379 . S
C834 H818 0.931 . S
C834 C828 1.383 . S
C834 C833 1.379 . S
H835 C829 0.959 . S
H836 C829 0.961 . S
H837 C829 0.960 . S
H838 C830 0.930 . S
H839 C831 0.929 . S
H840 C848 0.929 . S
H841 C850 0.930 . S
H842 C852 0.930 . S
H843 C855 0.929 . S
H844 C858 0.930 . S
H845 C860 0.960 . S
H846 C860 0.960 . S
H847 C860 0.960 . S
C848 H840 0.929 . S
C848 C849 1.377 . S
C848 C850 1.384 . S
C849 C848 1.377 . S
C849 C855 1.390 . S
C850 H841 0.930 . S
C850 C848 1.384 . S
C850 C851 1.372 . S
C851 C850 1.372 . S
C851 C852 1.400 . S
C851 C856 1.490 . S
C852 H842 0.930 . S
C852 C851 1.400 . S
C852 C855 1.386 . S
H853 C869 0.930 . S
H854 C870 0.931 . S
C855 H843 0.929 . S
C855 C849 1.390 . S
C855 C852 1.386 . S
C856 C851 1.490 . S
C856 C858 1.395 . S
C856 C859 1.403 . S
H857 C863 0.930 . S
C858 H844 0.930 . S
C858 C856 1.395 . S
C858 C861 1.403 . S
C859 C856 1.403 . S
C859 C860 1.524 . S
C859 C863 1.400 . S
C860 H845 0.960 . S
C860 H846 0.960 . S
C860 H847 0.960 . S
C860 C859 1.524 . S
C861 C858 1.403 . S
C861 C862 1.392 . S
C861 C865 1.495 1_556 S
C862 C861 1.392 . S
C862 C863 1.385 . S
C862 C864 1.478 . S
C863 H857 0.930 . S
C863 C859 1.400 . S
C863 C862 1.385 . S
C864 C862 1.478 . S
C864 C866 1.381 1_556 S
C864 C870 1.383 . S
C865 C861 1.495 1_554 S
C865 H871 0.959 . S
C865 H872 0.961 . S
C865 H873 0.960 . S
C866 C864 1.381 1_554 S
C866 C867 1.394 . S
C866 H874 0.930 . S
C867 C866 1.394 . S
C867 C868 1.383 . S
C867 H875 0.929 . S
C868 C867 1.383 . S
C868 C869 1.377 1_554 S
C869 H853 0.930 . S
C869 C868 1.377 1_556 S
C869 C870 1.379 . S
C870 H854 0.931 . S
C870 C864 1.383 . S
C870 C869 1.379 . S
H871 C865 0.959 . S
H872 C865 0.961 . S
H873 C865 0.960 . S
H874 C866 0.930 . S
H875 C867 0.929 . S
H876 C884 0.929 . S
H877 C886 0.930 . S
H878 C888 0.930 . S
H879 C891 0.929 . S
H880 C894 0.930 . S
H881 C896 0.960 . S
H882 C896 0.960 . S
H883 C896 0.960 . S
C884 H876 0.929 . S
C884 C885 1.377 . S
C884 C886 1.384 . S
C885 C884 1.377 . S
C885 C891 1.390 . S
C886 H877 0.930 . S
C886 C884 1.384 . S
C886 C887 1.372 . S
C887 C886 1.372 . S
C887 C888 1.400 . S
C887 C892 1.490 . S
C888 H878 0.930 . S
C888 C887 1.400 . S
C888 C891 1.386 . S
H889 C905 0.930 . S
H890 C906 0.931 . S
C891 H879 0.929 . S
C891 C885 1.390 . S
C891 C888 1.386 . S
C892 C887 1.490 . S
C892 C894 1.395 . S
C892 C895 1.403 . S
H893 C899 0.930 . S
C894 H880 0.930 . S
C894 C892 1.395 . S
C894 C897 1.403 . S
C895 C892 1.403 . S
C895 C896 1.524 . S
C895 C899 1.400 . S
C896 H881 0.960 . S
C896 H882 0.960 . S
C896 H883 0.960 . S
C896 C895 1.524 . S
C897 C894 1.403 . S
C897 C898 1.392 . S
C897 C901 1.495 . S
C898 C897 1.392 . S
C898 C899 1.385 . S
C898 C900 1.478 . S
C899 H893 0.930 . S
C899 C895 1.400 . S
C899 C898 1.385 . S
C900 C898 1.478 . S
C900 C902 1.381 . S
C900 C906 1.383 . S
C901 C897 1.495 . S
C901 H907 0.959 . S
C901 H908 0.961 . S
C901 H909 0.960 . S
C902 C900 1.381 . S
C902 C903 1.394 . S
C902 H910 0.930 . S
C903 C902 1.394 . S
C903 C904 1.383 . S
C903 H911 0.929 . S
C904 C903 1.383 . S
C904 C905 1.377 . S
C905 H889 0.930 . S
C905 C904 1.377 . S
C905 C906 1.379 . S
C906 H890 0.931 . S
C906 C900 1.383 . S
C906 C905 1.379 . S
H907 C901 0.959 . S
H908 C901 0.961 . S
H909 C901 0.960 . S
H910 C902 0.930 . S
H911 C903 0.929 . S
H912 C920 0.929 . S
H913 C922 0.930 . S
H914 C924 0.930 . S
H915 C927 0.929 . S
H916 C930 0.930 . S
H917 C932 0.960 . S
H918 C932 0.960 . S
H919 C932 0.960 . S
C920 H912 0.929 . S
C920 C921 1.377 . S
C920 C922 1.384 . S
C921 C920 1.377 . S
C921 C927 1.390 . S
C922 H913 0.930 . S
C922 C920 1.384 . S
C922 C923 1.372 . S
C923 C922 1.372 . S
C923 C924 1.400 . S
C923 C928 1.490 . S
C924 H914 0.930 . S
C924 C923 1.400 . S
C924 C927 1.386 . S
H925 C941 0.930 . S
H926 C942 0.931 . S
C927 H915 0.929 . S
C927 C921 1.390 . S
C927 C924 1.386 . S
C928 C923 1.490 . S
C928 C930 1.395 . S
C928 C931 1.403 . S
H929 C935 0.930 . S
C930 H916 0.930 . S
C930 C928 1.395 . S
C930 C933 1.403 . S
C931 C928 1.403 . S
C931 C932 1.524 . S
C931 C935 1.400 . S
C932 H917 0.960 . S
C932 H918 0.960 . S
C932 H919 0.960 . S
C932 C931 1.524 . S
C933 C930 1.403 . S
C933 C934 1.392 . S
C933 C937 1.495 . S
C934 C933 1.392 . S
C934 C935 1.385 . S
C934 C936 1.478 . S
C935 H929 0.930 . S
C935 C931 1.400 . S
C935 C934 1.385 . S
C936 C934 1.478 . S
C936 C938 1.381 . S
C936 C942 1.383 . S
C937 C933 1.495 . S
C937 H943 0.959 . S
C937 H944 0.961 . S
C937 H945 0.960 . S
C938 C936 1.381 . S
C938 C939 1.394 . S
C938 H946 0.930 . S
C939 C938 1.394 . S
C939 C940 1.383 . S
C939 H947 0.929 . S
C940 C939 1.383 . S
C940 C941 1.377 . S
C941 H925 0.930 . S
C941 C940 1.377 . S
C941 C942 1.379 . S
C942 H926 0.931 . S
C942 C936 1.383 . S
C942 C941 1.379 . S
H943 C937 0.959 . S
H944 C937 0.961 . S
H945 C937 0.960 . S
H946 C938 0.930 . S
H947 C939 0.929 . S
H948 C956 0.929 . S
H949 C958 0.930 . S
H950 C960 0.930 . S
H951 C963 0.929 . S
H952 C966 0.930 . S
H953 C968 0.960 . S
H954 C968 0.960 . S
H955 C968 0.960 . S
C956 H948 0.929 . S
C956 C957 1.377 . S
C956 C958 1.384 . S
C957 C956 1.377 . S
C957 C963 1.390 . S
C958 H949 0.930 . S
C958 C956 1.384 . S
C958 C959 1.372 . S
C959 C958 1.372 . S
C959 C960 1.400 . S
C959 C964 1.490 . S
C960 H950 0.930 . S
C960 C959 1.400 . S
C960 C963 1.386 . S
H961 C977 0.930 . S
H962 C978 0.931 . S
C963 H951 0.929 . S
C963 C957 1.390 . S
C963 C960 1.386 . S
C964 C959 1.490 . S
C964 C966 1.395 . S
C964 C967 1.403 . S
H965 C971 0.930 . S
C966 H952 0.930 . S
C966 C964 1.395 . S
C966 C969 1.403 . S
C967 C964 1.403 . S
C967 C968 1.524 . S
C967 C971 1.400 . S
C968 H953 0.960 . S
C968 H954 0.960 . S
C968 H955 0.960 . S
C968 C967 1.524 . S
C969 C966 1.403 . S
C969 C970 1.392 . S
C969 C973 1.495 . S
C970 C969 1.392 . S
C970 C971 1.385 . S
C970 C972 1.478 . S
C971 H965 0.930 . S
C971 C967 1.400 . S
C971 C970 1.385 . S
C972 C970 1.478 . S
C972 C974 1.381 . S
C972 C978 1.383 . S
C973 C969 1.495 . S
C973 H979 0.959 . S
C973 H980 0.961 . S
C973 H981 0.960 . S
C974 C972 1.381 . S
C974 C975 1.394 . S
C974 H982 0.930 . S
C975 C974 1.394 . S
C975 C976 1.383 . S
C975 H983 0.929 . S
C976 C975 1.383 . S
C976 C977 1.377 . S
C977 H961 0.930 . S
C977 C976 1.377 . S
C977 C978 1.379 . S
C978 H962 0.931 . S
C978 C972 1.383 . S
C978 C977 1.379 . S
H979 C973 0.959 . S
H980 C973 0.961 . S
H981 C973 0.960 . S
H982 C974 0.930 . S
H983 C975 0.929 . S
H984 C992 0.929 . S
H985 C994 0.930 . S
H986 C996 0.930 . S
H987 C999 0.929 . S
H988 C1002 0.930 . S
H989 C1004 0.960 . S
H990 C1004 0.960 . S
H991 C1004 0.960 . S
C992 H984 0.929 . S
C992 C993 1.377 . S
C992 C994 1.384 . S
C993 C992 1.377 . S
C993 C999 1.390 . S
C994 H985 0.930 . S
C994 C992 1.384 . S
C994 C995 1.372 . S
C995 C994 1.372 . S
C995 C996 1.400 . S
C995 C1000 1.490 . S
C996 H986 0.930 . S
C996 C995 1.400 . S
C996 C999 1.386 . S
H997 C1013 0.930 . S
H998 C1014 0.931 . S
C999 H987 0.929 . S
C999 C993 1.390 . S
C999 C996 1.386 . S
C1000 C995 1.490 . S
C1000 C1002 1.395 . S
C1000 C1003 1.403 . S
H1001 C1007 0.930 . S
C1002 H988 0.930 . S
C1002 C1000 1.395 . S
C1002 C1005 1.403 . S
C1003 C1000 1.403 . S
C1003 C1004 1.524 . S
C1003 C1007 1.400 . S
C1004 H989 0.960 . S
C1004 H990 0.960 . S
C1004 H991 0.960 . S
C1004 C1003 1.524 . S
C1005 C1002 1.403 . S
C1005 C1006 1.392 . S
C1005 C1009 1.495 . S
C1006 C1005 1.392 . S
C1006 C1007 1.385 . S
C1006 C1008 1.478 . S
C1007 H1001 0.930 . S
C1007 C1003 1.400 . S
C1007 C1006 1.385 . S
C1008 C1006 1.478 . S
C1008 C1010 1.381 . S
C1008 C1014 1.383 . S
C1009 C1005 1.495 . S
C1009 H1015 0.959 . S
C1009 H1016 0.961 . S
C1009 H1017 0.974 . S
C1010 C1008 1.381 . S
C1010 C1011 1.394 1_556 S
C1010 H1018 0.930 1_556 S
C1011 C1010 1.394 1_554 S
C1011 C1012 1.383 1_554 S
C1011 H1019 0.929 . S
C1012 C1011 1.383 1_556 S
C1012 C1013 1.377 . S
C1013 H997 0.930 . S
C1013 C1012 1.377 . S
C1013 C1014 1.379 . S
C1014 H998 0.931 . S
C1014 C1008 1.383 . S
C1014 C1013 1.379 . S
H1015 C1009 0.959 . S
H1016 C1009 0.961 . S
H1017 C1009 0.974 . S
H1018 C1010 0.930 1_554 S
H1019 C1011 0.929 . S
H1020 C1028 0.929 . S
H1021 C1030 0.930 . S
H1022 C1032 0.930 . S
H1023 C1035 0.929 . S
H1024 C1038 0.930 . S
H1025 C1040 0.960 . S
H1026 C1040 0.960 . S
H1027 C1040 0.960 . S
C1028 H1020 0.929 . S
C1028 C1029 1.377 . S
C1028 C1030 1.384 . S
C1029 C1028 1.377 . S
C1029 C1035 1.390 . S
C1030 H1021 0.930 . S
C1030 C1028 1.384 . S
C1030 C1031 1.372 . S
C1031 C1030 1.372 . S
C1031 C1032 1.400 . S
C1031 C1036 1.490 . S
C1032 H1022 0.930 . S
C1032 C1031 1.400 . S
C1032 C1035 1.386 . S
H1033 C1049 0.930 . S
H1034 C1050 0.931 . S
C1035 H1023 0.929 . S
C1035 C1029 1.390 . S
C1035 C1032 1.386 . S
C1036 C1031 1.490 . S
C1036 C1038 1.395 . S
C1036 C1039 1.403 . S
H1037 C1043 0.930 . S
C1038 H1024 0.930 . S
C1038 C1036 1.395 . S
C1038 C1041 1.403 . S
C1039 C1036 1.403 . S
C1039 C1040 1.524 . S
C1039 C1043 1.400 . S
C1040 H1025 0.960 . S
C1040 H1026 0.960 . S
C1040 H1027 0.960 . S
C1040 C1039 1.524 . S
C1041 C1038 1.403 . S
C1041 C1042 1.392 . S
C1041 C1045 1.495 . S
C1042 C1041 1.392 . S
C1042 C1043 1.385 . S
C1042 C1044 1.478 . S
C1043 H1037 0.930 . S
C1043 C1039 1.400 . S
C1043 C1042 1.385 . S
C1044 C1042 1.478 . S
C1044 C1046 1.381 . S
C1044 C1050 1.383 . S
C1045 C1041 1.495 . S
C1045 H1051 0.959 . S
C1045 H1052 0.961 . S
C1045 H1053 0.960 . S
C1046 C1044 1.381 . S
C1046 C1047 1.394 . S
C1046 H1054 0.930 . S
C1047 C1046 1.394 . S
C1047 C1048 1.383 . S
C1047 H1055 0.929 . S
C1048 C1047 1.383 . S
C1048 C1049 1.377 . S
C1049 H1033 0.930 . S
C1049 C1048 1.377 . S
C1049 C1050 1.379 . S
C1050 H1034 0.931 . S
C1050 C1044 1.383 . S
C1050 C1049 1.379 . S
H1051 C1045 0.959 . S
H1052 C1045 0.961 . S
H1053 C1045 0.960 . S
H1054 C1046 0.930 . S
H1055 C1047 0.929 . S
H1056 C1064 0.929 . S
H1057 C1066 0.930 . S
H1058 C1068 0.930 . S
H1059 C1071 0.929 . S
H1060 C1074 0.930 . S
H1061 C1076 0.960 . S
H1062 C1076 0.960 . S
H1063 C1076 0.960 . S
C1064 H1056 0.929 . S
C1064 C1065 1.377 . S
C1064 C1066 1.384 . S
C1065 C1064 1.377 . S
C1065 C1071 1.390 . S
C1066 H1057 0.930 . S
C1066 C1064 1.384 . S
C1066 C1067 1.372 . S
C1067 C1066 1.372 . S
C1067 C1068 1.400 . S
C1067 C1072 1.490 . S
C1068 H1058 0.930 . S
C1068 C1067 1.400 . S
C1068 C1071 1.386 . S
H1069 C1085 0.930 . S
H1070 C1086 0.931 . S
C1071 H1059 0.929 . S
C1071 C1065 1.390 . S
C1071 C1068 1.386 . S
C1072 C1067 1.490 . S
C1072 C1074 1.395 . S
C1072 C1075 1.403 . S
H1073 C1079 0.930 . S
C1074 H1060 0.930 . S
C1074 C1072 1.395 . S
C1074 C1077 1.403 . S
C1075 C1072 1.403 . S
C1075 C1076 1.524 . S
C1075 C1079 1.400 . S
C1076 H1061 0.960 . S
C1076 H1062 0.960 . S
C1076 H1063 0.960 . S
C1076 C1075 1.524 . S
C1077 C1074 1.403 . S
C1077 C1078 1.392 . S
C1077 C1081 1.495 . S
C1078 C1077 1.392 . S
C1078 C1079 1.385 . S
C1078 C1080 1.478 . S
C1079 H1073 0.930 . S
C1079 C1075 1.400 . S
C1079 C1078 1.385 . S
C1080 C1078 1.478 . S
C1080 C1082 1.381 . S
C1080 C1086 1.383 . S
C1081 C1077 1.495 . S
C1081 H1087 0.959 . S
C1081 H1088 0.961 . S
C1081 H1089 0.960 . S
C1082 C1080 1.381 . S
C1082 C1083 1.394 . S
C1082 H1090 0.930 . S
C1083 C1082 1.394 . S
C1083 C1084 1.383 . S
C1083 H1091 0.929 . S
C1084 C1083 1.383 . S
C1084 C1085 1.377 . S
C1085 H1069 0.930 . S
C1085 C1084 1.377 . S
C1085 C1086 1.379 . S
C1086 H1070 0.931 . S
C1086 C1080 1.383 . S
C1086 C1085 1.379 . S
H1087 C1081 0.959 . S
H1088 C1081 0.961 . S
H1089 C1081 0.960 . S
H1090 C1082 0.930 . S
H1091 C1083 0.929 . S
H1092 C1100 0.929 . S
H1093 C1102 0.930 . S
H1094 C1104 0.930 . S
H1095 C1107 0.929 . S
H1096 C1110 0.930 . S
H1097 C1112 0.960 . S
H1098 C1112 0.960 . S
H1099 C1112 0.960 . S
C1100 H1092 0.929 . S
C1100 C1101 1.377 . S
C1100 C1102 1.384 . S
C1101 C1100 1.377 . S
C1101 C1107 1.390 . S
C1102 H1093 0.930 . S
C1102 C1100 1.384 . S
C1102 C1103 1.372 . S
C1103 C1102 1.372 . S
C1103 C1104 1.400 . S
C1103 C1108 1.490 . S
C1104 H1094 0.930 . S
C1104 C1103 1.400 . S
C1104 C1107 1.386 . S
H1105 C1121 0.930 . S
H1106 C1122 0.931 . S
C1107 H1095 0.929 . S
C1107 C1101 1.390 . S
C1107 C1104 1.386 . S
C1108 C1103 1.490 . S
C1108 C1110 1.395 . S
C1108 C1111 1.403 . S
H1109 C1115 0.930 . S
C1110 H1096 0.930 . S
C1110 C1108 1.395 . S
C1110 C1113 1.403 . S
C1111 C1108 1.403 . S
C1111 C1112 1.524 . S
C1111 C1115 1.400 . S
C1112 H1097 0.960 . S
C1112 H1098 0.960 . S
C1112 H1099 0.960 . S
C1112 C1111 1.524 . S
C1113 C1110 1.403 . S
C1113 C1114 1.392 . S
C1113 C1117 1.495 . S
C1114 C1113 1.392 . S
C1114 C1115 1.385 . S
C1114 C1116 1.478 . S
C1115 H1109 0.930 . S
C1115 C1111 1.400 . S
C1115 C1114 1.385 . S
C1116 C1114 1.478 . S
C1116 C1118 1.381 . S
C1116 C1122 1.383 . S
C1117 C1113 1.495 . S
C1117 H1123 0.959 . S
C1117 H1124 0.961 . S
C1117 H1125 0.960 . S
C1118 C1116 1.381 . S
C1118 C1119 1.394 . S
C1118 H1126 0.930 . S
C1119 C1118 1.394 . S
C1119 C1120 1.383 . S
C1119 H1127 0.929 . S
C1120 C1119 1.383 . S
C1120 C1121 1.377 . S
C1121 H1105 0.930 . S
C1121 C1120 1.377 . S
C1121 C1122 1.379 . S
C1122 H1106 0.931 . S
C1122 C1116 1.383 . S
C1122 C1121 1.379 . S
H1123 C1117 0.959 . S
H1124 C1117 0.961 . S
H1125 C1117 0.960 . S
H1126 C1118 0.930 . S
H1127 C1119 0.929 . S
C273 N1 2.718 . S
C292 C123 2.752 . S
C309 N18 2.558 . S
C328 C154 2.594 1_556 S
C364 C193 0.600 . S
C345 N28 0.640 . S
C381 N40 0.584 . S
C400 C230 0.577 . S
C436 C153 3.279 . S
C417 N5 3.341 . S
C472 C110 1.453 . S
C453 N14 1.413 . S
C508 C242 1.307 . S
C489 N31 1.337 . S
C544 C199 0.473 . S
C525 N41 0.470 . S
C561 N2 2.187 . S
C580 C243 2.201 . S
C616 C159 1.483 . S
C597 N27 1.465 . S
C633 N44 0.799 . S
C652 C122 0.845 . S
C669 N15 2.127 . S
C688 C194 2.123 . S
C724 C114 3.350 . S
C705 N57 3.389 . S
C741 N70 1.916 . S
C760 C163 1.947 . S
C777 N79 1.121 . S
C796 C202 1.087 . S
C813 N93 0.202 . S
C832 C239 0.270 . S
C849 N54 2.922 . S
C868 C162 2.795 . S
C904 C119 1.933 . S
C885 N66 1.970 . S
C940 C233 0.528 . S
C921 N80 0.569 . S
C976 C190 0.987 . S
C957 N96 0.953 . S
C993 N53 2.218 . S
C1012 C234 2.232 . S
C1048 C150 1.318 . S
C1029 N83 1.311 . S
C1084 C113 0.700 . S
C1065 N92 0.735 . S
C1101 N67 2.264 . S
C1120 C203 2.268 . S
