# Generated by pormake.
# Topology tsx, (6,3)-cn, num edge types: 1
# Building blocks:
#     Node 0, Type 0, BuildingBlock: JUFBIX_clean_sbu_0, # of connection points: 6
#     Node 1, Type 0, BuildingBlock: JUFBIX_clean_sbu_0, # of connection points: 6
#     Node 2, Type 1, BuildingBlock: BETDIP_clean_linker_0, # of connection points: 3
#     Node 3, Type 1, BuildingBlock: BETDIP_clean_linker_0, # of connection points: 3
#     Node 4, Type 1, BuildingBlock: BETDIP_clean_linker_0, # of connection points: 3
#     Node 5, Type 1, BuildingBlock: BETDIP_clean_linker_0, # of connection points: 3
#     Edge 6, Type (0, 1), BuildingBlock: FUNLAD_clean_linker_0, # of connection points: 2
#     Edge 7, Type (0, 1), BuildingBlock: FUNLAD_clean_linker_0, # of connection points: 2
#     Edge 8, Type (0, 1), BuildingBlock: FUNLAD_clean_linker_0, # of connection points: 2
#     Edge 9, Type (0, 1), BuildingBlock: FUNLAD_clean_linker_0, # of connection points: 2
#     Edge 10, Type (0, 1), BuildingBlock: FUNLAD_clean_linker_0, # of connection points: 2
#     Edge 11, Type (0, 1), BuildingBlock: FUNLAD_clean_linker_0, # of connection points: 2
#     Edge 12, Type (0, 1), BuildingBlock: FUNLAD_clean_linker_0, # of connection points: 2
#     Edge 13, Type (0, 1), BuildingBlock: FUNLAD_clean_linker_0, # of connection points: 2
#     Edge 14, Type (0, 1), BuildingBlock: FUNLAD_clean_linker_0, # of connection points: 2
#     Edge 15, Type (0, 1), BuildingBlock: FUNLAD_clean_linker_0, # of connection points: 2
#     Edge 16, Type (0, 1), BuildingBlock: FUNLAD_clean_linker_0, # of connection points: 2
#     Edge 17, Type (0, 1), BuildingBlock: FUNLAD_clean_linker_0, # of connection points: 2
# Relax obj value: 0.106
# Max RMSD: 0.131
# Mean RMSD: 0.117
data_MOF--net-tsx--node1-JUFBIX_clean_sbu_0--node2-BETDIP_clean_linker_0--edge1-FUNLAD_clean_linker_0
_symmetry_space_group_name_H-M    P1
_symmetry_Int_Tables_number       1
_symmetry_cell_setting            triclinic
loop_
_symmetry_equiv_pos_as_xyz
'x, y, z'
_cell_length_a     23.394189
_cell_length_b     27.780596
_cell_length_c     38.379641
_cell_angle_alpha  92.243086
_cell_angle_beta   99.193841
_cell_angle_gamma 97.556762
loop_
_atom_site_label
_atom_site_type_symbol
_atom_site_fract_x
_atom_site_fract_y
_atom_site_fract_z
_atom_type_partial_charge
Co0 Co 0.04484 0.96536 -0.00511 0.0
C1 C 0.97854 0.9951 0.93302 0.0
Co2 Co 0.98322 0.01748 0.0025 0.0
C3 C 0.12525 0.8916 0.00011 0.0
C4 C 0.12921 0.93647 0.95617 0.0
N5 N 0.10003 0.92747 0.98339 0.0
N6 N 0.1692 0.87868 0.98437 0.0
C7 C 0.17164 0.90679 0.95679 0.0
H8 H 0.11387 0.87719 0.02429 0.0
H9 H 0.12192 0.96452 0.93786 0.0
C10 C 0.04868 0.98775 0.06458 0.0
N11 N 0.92886 0.05553 0.01447 0.0
C12 C 0.91439 0.09842 0.00301 0.0
C13 C 0.89661 0.04514 0.04011 0.0
N14 N 0.87498 0.11521 0.02093 0.0
C15 C 0.86373 0.08167 0.04419 0.0
C16 C 0.93759 0.91769 -0.00102 0.0
O17 O 0.07242 0.96251 0.04411 0.0
O18 O 0.01008 0.01289 0.05129 0.0
O19 O 0.92783 0.96144 0.0021 0.0
O20 O 0.98881 0.90923 -0.00403 0.0
O21 O 0.95706 0.02205 0.95357 0.0
H22 H 0.89755 0.01317 0.0553 0.0
H23 H 0.93339 0.11748 0.98262 0.0
O24 O 0.01589 0.96849 0.94594 0.0
O25 O 0.10026 0.0222 -0.00623 0.0
O26 O 0.0388 0.0729 0.00244 0.0
C27 C 0.08943 0.06562 -0.00251 0.0
H28 H 0.2032 0.90681 0.93899 0.0
H29 H 0.83346 0.08326 0.06265 0.0
Co30 Co 0.55188 0.47098 0.49214 0.0
C31 C 0.48747 0.50102 0.42991 0.0
Co32 Co 0.48739 0.52081 0.49928 0.0
C33 C 0.63214 0.39685 0.49628 0.0
C34 C 0.64201 0.44735 0.45618 0.0
N35 N 0.60964 0.43524 0.48145 0.0
N36 N 0.67767 0.38533 0.48135 0.0
C37 C 0.68356 0.41698 0.45607 0.0
H38 H 0.61688 0.3789 0.51828 0.0
H39 H 0.6366 0.47728 0.43931 0.0
C40 C 0.55164 0.49134 0.56158 0.0
N41 N 0.42989 0.55641 0.51016 0.0
C42 C 0.41164 0.5975 0.4974 0.0
C43 C 0.39529 0.54338 0.53414 0.0
N44 N 0.36666 0.61009 0.51239 0.0
C45 C 0.35657 0.57607 0.53554 0.0
C46 C 0.44546 0.41995 0.49413 0.0
O47 O 0.57684 0.4671 0.54132 0.0
O48 O 0.51255 0.51598 0.54816 0.0
O49 O 0.43388 0.46311 0.49763 0.0
O50 O 0.4974 0.41318 0.49151 0.0
O51 O 0.46303 0.52551 0.45041 0.0
H52 H 0.39792 0.5118 0.54964 0.0
H53 H 0.43017 0.61717 0.47711 0.0
O54 O 0.52584 0.47542 0.44303 0.0
O55 O 0.60559 0.52936 0.49295 0.0
O56 O 0.54138 0.57809 0.50043 0.0
C57 C 0.59308 0.57228 0.49664 0.0
H58 H 0.71599 0.41825 0.43879 0.0
H59 H 0.32382 0.57511 0.55258 0.0
H60 H 0.08628 0.99011 0.49037 0.0
H61 H 0.0333 0.05892 0.39422 0.0
H62 H 0.14989 0.95146 0.39533 0.0
H63 H 0.06277 0.12628 0.44373 0.0
C64 C 0.02898 0.10934 0.45756 0.0
C65 C 0.08743 0.9941 0.4625 0.0
C66 C 0.12222 0.96708 0.44492 0.0
C67 C 0.05693 0.02853 0.44452 0.0
C68 C 0.05851 0.03358 0.40834 0.0
C69 C 0.09098 0.00514 0.39019 0.0
C70 C 0.1234 0.97265 0.40889 0.0
N71 N 0.02592 0.05882 0.46306 0.0
H72 H 0.97296 0.97631 0.51388 0.0
H73 H 0.02432 0.06434 0.61164 0.0
H74 H 0.90099 0.93451 0.60638 0.0
H75 H 0.03076 0.12453 0.57065 0.0
C76 C 0.05667 0.10662 0.55436 0.0
C77 C 0.96939 0.98327 0.54138 0.0
C78 C 0.9333 0.95034 0.55802 0.0
C79 C 1.00156 0.025 0.56038 0.0
C80 C 0.99771 0.03346 0.59632 0.0
C81 C 0.96198 0.00067 0.61317 0.0
C82 C 0.92963 0.95954 0.59371 0.0
N83 N 0.03996 0.05659 0.54355 0.0
H84 H 0.5496 0.46354 0.98052 0.0
H85 H 0.51768 0.54761 0.88921 0.0
H86 H 0.61232 0.42574 0.88516 0.0
H87 H 0.53203 0.60884 0.93737 0.0
C88 C 0.49932 0.58969 0.95095 0.0
C89 C 0.55425 0.47038 0.95346 0.0
C90 C 0.58306 0.4397 0.93446 0.0
C91 C 0.5313 0.50989 0.9374 0.0
C92 C 0.53723 0.51837 0.90216 0.0
C93 C 0.56584 0.48779 0.88301 0.0
C94 C 0.5889 0.44887 0.8995 0.0
N95 N 0.50009 0.53945 0.95636 0.0
H96 H 0.45998 0.46899 0.00644 0.0
H97 H 0.52172 0.55914 0.10215 0.0
H98 H 0.40578 0.42638 0.10408 0.0
H99 H 0.51301 0.61804 0.05802 0.0
C100 C 0.54038 0.60108 0.04218 0.0
C101 C 0.46063 0.47599 0.03447 0.0
C102 C 0.42863 0.44274 0.05316 0.0
C103 C 0.49381 0.51821 0.05198 0.0
C104 C 0.49517 0.52703 0.08839 0.0
C105 C 0.46351 0.49412 0.10736 0.0
C106 C 0.43011 0.45219 0.08952 0.0
N107 N 0.52792 0.55038 0.03311 0.0
C108 C 0.12338 0.15508 -0.00127 0.0
C109 C 0.13568 0.10701 -0.00352 0.0
C110 C 0.16772 0.19418 -0.00071 0.0
C111 C 0.22534 0.18597 -0.0025 0.0
C112 C 0.23733 0.13793 -0.00527 0.0
C113 C 0.19296 0.09883 -0.00601 0.0
C114 C 0.2748 0.22629 0.00229 0.0
C115 C 0.26842 0.2727 -0.00431 0.0
C116 C 0.31546 0.31412 0.0074 0.0
C117 C 0.31302 0.35842 0.99113 0.0
C118 C 0.352 0.39992 0.00477 0.0
C119 C 0.3934 0.39787 0.03529 0.0
H120 H 0.36144 0.27889 0.05099 0.0
C121 C 0.39741 0.35322 0.05072 0.0
C122 C 0.35886 0.31181 0.03702 0.0
H123 H 0.42922 0.3507 0.07419 0.0
H124 H 0.0797 0.16258 0.00073 0.0
H125 H 0.15695 0.23061 0.00253 0.0
H126 H 0.28141 0.13058 -0.0063 0.0
H127 H 0.20388 0.06221 -0.00781 0.0
H128 H 0.31789 0.21725 0.01242 0.0
H129 H 0.22678 0.28116 0.98224 0.0
H130 H 0.27973 0.36129 0.96848 0.0
H131 H 0.34786 0.43407 -0.00744 0.0
C132 C 0.19243 0.79725 0.00031 0.0
C133 C 0.2107 0.84652 -0.00397 0.0
C134 C 0.23354 0.76449 0.00525 0.0
C135 C 0.29356 0.78092 0.00635 0.0
C136 C 0.31155 0.83087 0.00458 0.0
C137 C 0.27061 0.86315 -0.0009 0.0
C138 C 0.33888 0.74784 0.00691 0.0
C139 C 0.32783 0.70069 -0.00503 0.0
C140 C 0.37493 0.67265 0.9872 0.0
C141 C 0.36702 0.62171 0.98817 0.0
C142 C 0.4082 0.59435 0.97751 0.0
C143 C 0.4574 0.61753 0.96502 0.0
H144 H 0.43208 0.73462 0.97317 0.0
C145 C 0.46576 0.66836 0.96451 0.0
C146 C 0.42512 0.69567 0.97546 0.0
H147 H 0.50334 0.68704 0.95495 0.0
H148 H 0.1463 0.78383 -0.00203 0.0
H149 H 0.21799 0.72649 0.00743 0.0
H150 H 0.35735 0.84475 0.00563 0.0
H151 H 0.28553 0.90111 -0.00396 0.0
H152 H 0.38412 0.76463 0.0141 0.0
H153 H 0.28313 0.68262 0.98843 0.0
H154 H 0.32852 0.603 -0.00329 0.0
H155 H 0.40066 0.5551 0.97816 0.0
C156 C 0.89654 0.82886 -0.00207 0.0
C157 C 0.88837 0.87809 -0.00194 0.0
C158 C 0.84882 0.79238 -0.00238 0.0
C159 C 0.79212 0.80473 -0.00275 0.0
C160 C 0.78432 0.85387 -0.00342 0.0
C161 C 0.83163 0.89001 -0.00287 0.0
C162 C 0.73965 0.76884 -0.00118 0.0
C163 C 0.74025 0.72196 0.00634 0.0
C164 C 0.68694 0.69119 0.01344 0.0
C165 C 0.67939 0.64072 0.00567 0.0
C166 C 0.63087 0.61105 0.014 0.0
C167 C 0.58972 0.63148 0.03077 0.0
H168 H 0.65045 0.74985 0.03754 0.0
C169 C 0.59709 0.68181 0.03838 0.0
C170 C 0.64521 0.71138 0.02996 0.0
H171 H 0.5661 0.69828 0.05151 0.0
H172 H 0.93972 0.81858 -0.0016 0.0
H173 H 0.85688 0.75497 -0.00231 0.0
H174 H 0.74136 0.86464 -0.00375 0.0
H175 H 0.82346 0.9275 -0.00308 0.0
H176 H 0.69796 0.78281 -0.0047 0.0
H177 H 0.78024 0.70573 0.00836 0.0
H178 H 0.71117 0.62424 -0.00672 0.0
H179 H 0.62627 0.57218 0.00794 0.0
C180 C 0.83443 0.17643 0.98287 0.0
C181 C 0.84905 0.15922 0.01657 0.0
C182 C 0.80364 0.21628 0.97848 0.0
C183 C 0.78736 0.23982 0.00783 0.0
C184 C 0.80485 0.22419 0.04167 0.0
C185 C 0.83487 0.18402 0.04598 0.0
C186 C 0.75197 0.2805 0.00393 0.0
C187 C 0.70982 0.28189 0.9758 0.0
C188 C 0.67285 0.32151 0.96991 0.0
C189 C 0.62516 0.31409 0.94207 0.0
C190 C 0.59327 0.35178 0.93225 0.0
C191 C 0.60817 0.39783 0.95015 0.0
H192 H 0.72241 0.37476 0.01056 0.0
C193 C 0.65342 0.40484 0.97939 0.0
C194 C 0.6858 0.36707 0.98915 0.0
H195 H 0.66607 0.44032 -0.00675 0.0
H196 H 0.84499 0.15803 0.95983 0.0
H197 H 0.79243 0.22844 0.95212 0.0
H198 H 0.79368 0.24216 0.06473 0.0
H199 H 0.84657 0.172 0.07234 0.0
H200 H 0.75852 0.3077 0.02575 0.0
H201 H 0.70114 0.25176 0.95588 0.0
H202 H 0.61384 0.27948 0.92687 0.0
H203 H 0.55851 0.34562 0.90956 0.0
C204 C 0.62581 0.66241 0.49959 0.0
C205 C 0.63886 0.61458 0.49689 0.0
C206 C 0.66992 0.7021 0.50113 0.0
C207 C 0.72803 0.69467 0.49994 0.0
C208 C 0.7407 0.64688 0.49677 0.0
C209 C 0.69668 0.60731 0.49505 0.0
C210 C 0.77734 0.73528 0.50551 0.0
C211 C 0.7713 0.78197 0.49955 0.0
C212 C 0.81916 0.82297 0.51117 0.0
C213 C 0.81746 0.86753 0.49512 0.0
C214 C 0.85739 0.90858 0.50877 0.0
C215 C 0.89898 0.9058 0.53906 0.0
H216 H 0.86504 0.78685 0.55429 0.0
C217 C 0.90236 0.86086 0.55415 0.0
C218 C 0.86294 0.81992 0.54046 0.0
H219 H 0.934 0.85794 0.57763 0.0
H220 H 0.58172 0.66923 0.50112 0.0
H221 H 0.65858 0.7383 0.50456 0.0
H222 H 0.78509 0.64006 0.49614 0.0
H223 H 0.70831 0.57095 0.49292 0.0
H224 H 0.82044 0.72603 0.51536 0.0
H225 H 0.72966 0.79088 0.48646 0.0
H226 H 0.78397 0.87099 0.47272 0.0
H227 H 0.85362 0.94303 0.49693 0.0
C228 C 0.77472 0.35862 0.48831 0.0
C229 C 0.71503 0.34883 0.4905 0.0
C230 C 0.81041 0.32213 0.49242 0.0
C231 C 0.78748 0.27458 0.4991 0.0
C232 C 0.72802 0.26507 0.50241 0.0
C233 C 0.69219 0.30201 0.4985 0.0
C234 C 0.82314 0.23375 0.49874 0.0
C235 C 0.88215 0.24094 0.50589 0.0
C236 C 0.91983 0.20486 0.49656 0.0
C237 C 0.97453 0.22279 0.48806 0.0
C238 C 0.00979 0.19131 0.47592 0.0
C239 C 0.99203 0.14094 0.4729 0.0
H240 H 0.86128 0.13896 0.5017 0.0
C241 C 0.93873 0.12235 0.48309 0.0
C242 C 0.90255 0.15413 0.49457 0.0
H243 H 0.92429 0.08353 0.48124 0.0
H244 H 0.79357 0.39446 0.48237 0.0
H245 H 0.85523 0.33111 0.48848 0.0
H246 H 0.70894 0.22872 0.50713 0.0
H247 H 0.64618 0.29344 0.50003 0.0
H248 H 0.80014 0.19781 0.48972 0.0
H249 H 0.90454 0.27682 0.51563 0.0
H250 H 0.98924 0.26159 0.48958 0.0
H251 H 0.05098 0.20647 0.46858 0.0
C252 C 0.40886 0.33188 0.50115 0.0
C253 C 0.39776 0.37912 0.4934 0.0
C254 C 0.3625 0.29523 0.5037 0.0
C255 C 0.30423 0.30528 0.49805 0.0
C256 C 0.2936 0.35202 0.4888 0.0
C257 C 0.33957 0.38842 0.48661 0.0
C258 C 0.25318 0.27035 0.50396 0.0
C259 C 0.25451 0.22374 0.51213 0.0
C260 C 0.20276 0.19372 0.52209 0.0
C261 C 0.19386 0.14308 0.51492 0.0
C262 C 0.14608 0.11433 0.52496 0.0
C263 C 0.10679 0.13583 0.54267 0.0
H264 H 0.16999 0.25352 0.54739 0.0
C265 C 0.1161 0.18624 0.55025 0.0
C266 C 0.16353 0.2149 0.54018 0.0
H267 H 0.0867 0.20357 0.56417 0.0
H268 H 0.45334 0.32373 0.50653 0.0
H269 H 0.37296 0.25988 0.51108 0.0
H270 H 0.24942 0.36101 0.48417 0.0
H271 H 0.32936 0.42429 0.48018 0.0
H272 H 0.21176 0.28458 0.50218 0.0
H273 H 0.29355 0.20682 0.51147 0.0
H274 H 0.22379 0.12578 0.50143 0.0
H275 H 0.14032 0.07538 0.51916 0.0
C276 C 0.36239 0.69516 0.49613 0.0
C277 C 0.33479 0.65067 0.50549 0.0
C278 C 0.33171 0.73515 0.49151 0.0
C279 C 0.27266 0.73123 0.49605 0.0
C280 C 0.24489 0.68631 0.50437 0.0
C281 C 0.27558 0.64664 0.50924 0.0
C282 C 0.23762 0.77215 0.49088 0.0
C283 C 0.26096 0.81942 0.49445 0.0
C284 C 0.22551 0.85949 0.48634 0.0
C285 C 0.25174 0.90171 0.47313 0.0
C286 C 0.21856 0.93796 0.46145 0.0
C287 C 0.15864 0.93315 0.46337 0.0
H288 H 0.14503 0.82476 0.50155 0.0
C289 C 0.13308 0.89271 0.47895 0.0
C290 C 0.16621 0.85602 0.49029 0.0
H291 H 0.08695 0.88836 0.48073 0.0
H292 H 0.40794 0.69929 0.49304 0.0
H293 H 0.35424 0.76865 0.48393 0.0
H294 H 0.19928 0.68195 0.50745 0.0
H295 H 0.25273 0.6126 0.51577 0.0
H296 H 0.19055 0.76253 0.48375 0.0
H297 H 0.308 0.82929 0.50137 0.0
H298 H 0.29743 0.90567 0.47026 0.0
H299 H 0.23924 0.96906 0.44971 0.0
C300 C 0.03613 0.01665 0.12476 0.0
C301 C 0.06385 0.98793 0.10351 0.0
C302 C 0.04766 0.01621 0.16147 0.0
C303 C 0.08783 0.98738 0.17805 0.0
C304 C 0.11569 0.95864 0.15687 0.0
C305 C 0.10404 0.95904 0.11991 0.0
C306 C 0.09821 0.98414 0.21709 0.0
C307 C 0.08843 0.01938 0.23973 0.0
C308 C 0.09168 0.01471 0.27843 0.0
C309 C 0.09604 0.05703 0.30054 0.0
C310 C 0.09584 0.05412 0.3368 0.0
C311 C 0.09101 0.0087 0.35171 0.0
H312 H 0.08074 0.9356 0.27723 0.0
C313 C 0.0863 0.96633 0.32959 0.0
C314 C 0.08642 0.96921 0.29337 0.0
H315 H 0.08128 0.93073 0.34019 0.0
H316 H 1.00449 0.03907 0.11307 0.0
H317 H 0.02345 0.03747 0.17653 0.0
H318 H 0.14627 0.9356 0.16894 0.0
H319 H 0.12588 0.93633 0.10424 0.0
H320 H 0.11456 0.95174 0.22722 0.0
H321 H 0.07774 0.05366 0.2297 0.0
H322 H 0.0995 0.09254 0.28971 0.0
H323 H 0.09996 0.08743 0.3532 0.0
C324 C 0.94583 0.03513 0.87722 0.0
C325 C 0.96098 0.99375 0.89439 0.0
C326 C 0.93494 0.03416 0.84019 0.0
C327 C 0.93795 0.9914 0.82004 0.0
C328 C 0.95021 0.94958 0.8374 0.0
C329 C 0.96241 0.95089 0.87415 0.0
C330 C 0.93017 0.98871 0.78096 0.0
C331 C 0.94952 0.02561 0.76221 0.0
C332 C 0.95228 0.0189 0.72392 0.0
C333 C 0.9511 0.05895 0.70271 0.0
C334 C 0.95472 0.05344 0.66672 0.0
C335 C 0.95993 0.00774 0.65142 0.0
H336 H 0.96356 0.94233 0.72435 0.0
C337 C 0.9628 0.96809 0.6729 0.0
C338 C 0.95934 0.97359 0.70868 0.0
H339 H 0.96854 0.93276 0.66209 0.0
H340 H 0.94436 0.06857 0.89235 0.0
H341 H 0.92436 0.06669 0.82746 0.0
H342 H 0.95237 0.91614 0.82244 0.0
H343 H 0.97346 0.91834 0.88677 0.0
H344 H 0.91299 0.95335 0.76764 0.0
H345 H 0.96603 0.0612 0.77536 0.0
H346 H 0.94677 0.09443 0.71392 0.0
H347 H 0.9525 0.08466 0.65077 0.0
C348 C 0.5391 0.52037 0.62166 0.0
C349 C 0.56585 0.49083 0.60043 0.0
C350 C 0.54914 0.51871 0.65828 0.0
C351 C 0.58666 0.48768 0.67471 0.0
C352 C 0.61394 0.45846 0.65356 0.0
C353 C 0.60393 0.46018 0.61671 0.0
C354 C 0.59375 0.48202 0.71337 0.0
C355 C 0.58416 0.51652 0.73658 0.0
C356 C 0.58171 0.50826 0.77427 0.0
C357 C 0.59055 0.54847 0.79881 0.0
C358 C 0.5853 0.54207 0.83416 0.0
C359 C 0.57064 0.49527 0.84552 0.0
H360 H 0.55666 0.4298 0.76728 0.0
C361 C 0.56097 0.45514 0.82083 0.0
C362 C 0.56631 0.46151 0.78561 0.0
H363 H 0.54819 0.41874 0.82861 0.0
H364 H 0.50924 0.54426 0.60998 0.0
H365 H 0.52554 0.54055 0.67335 0.0
H366 H 0.64248 0.43379 0.66555 0.0
H367 H 0.625 0.43687 0.60102 0.0
H368 H 0.6065 0.44798 0.72276 0.0
H369 H 0.57745 0.55235 0.72781 0.0
H370 H 0.60161 0.58494 0.79062 0.0
H371 H 0.59329 0.57364 0.85265 0.0
C372 C 0.50217 0.47615 0.36935 0.0
C373 C 0.47341 0.50296 0.39118 0.0
C374 C 0.4917 0.47927 0.33286 0.0
C375 C 0.4525 0.50959 0.31729 0.0
C376 C 0.42206 0.53507 0.33887 0.0
C377 C 0.43268 0.53206 0.37561 0.0
C378 C 0.44229 0.51413 0.27856 0.0
C379 C 0.48525 0.51146 0.25934 0.0
C380 C 0.47703 0.51129 0.22026 0.0
C381 C 0.52677 0.52098 0.20416 0.0
C382 C 0.52213 0.51666 0.16748 0.0
C383 C 0.46753 0.50221 0.14608 0.0
H384 H 0.38286 0.48888 0.21015 0.0
C385 C 0.41746 0.4934 0.16205 0.0
C386 C 0.42209 0.49779 0.19881 0.0
H387 H 0.37477 0.48247 0.14614 0.0
H388 H 0.53326 0.45288 0.38043 0.0
H389 H 0.51419 0.45758 0.3169 0.0
H390 H 0.39098 0.55808 0.32738 0.0
H391 H 0.40956 0.55289 0.39176 0.0
H392 H 0.39942 0.52115 0.2661 0.0
H393 H 0.52927 0.50941 0.27293 0.0
H394 H 0.56967 0.53097 0.22007 0.0
H395 H 0.56161 0.52301 0.15597 0.0
loop_
_geom_bond_atom_site_label_1
_geom_bond_atom_site_label_2
_geom_bond_distance
_geom_bond_site_symmetry_2
_ccdc_geom_bond_type
Co0 N5 2.057 . S
Co0 O17 2.021 . S
Co0 O20 2.062 1_455 S
Co0 O24 2.117 1_554 S
Co0 O25 2.020 1_565 S
C1 O21 1.259 1_455 S
C1 O24 1.258 1_545 S
Co2 N11 2.057 . S
Co2 O18 2.117 1_655 S
Co2 O19 2.019 1_545 S
Co2 O21 2.021 1_554 S
Co2 O26 2.062 1_655 S
C3 N5 1.316 . S
C3 N6 1.347 . S
C3 H8 0.931 . S
C4 N5 1.375 1_556 S
C4 C7 1.350 . S
C4 H9 0.930 . S
N5 Co0 2.057 . S
N5 C3 1.316 . S
N5 C4 1.375 1_554 S
N6 C3 1.347 . S
N6 C7 1.373 1_554 S
C7 C4 1.350 . S
C7 N6 1.373 1_556 S
C7 H28 0.931 . S
H8 C3 0.931 . S
H9 C4 0.930 . S
C10 O17 1.255 1_545 S
C10 O18 1.263 . S
N11 Co2 2.057 . S
N11 C12 1.316 1_554 S
N11 C13 1.375 . S
C12 N11 1.316 1_556 S
C12 N14 1.347 1_556 S
C12 H23 0.931 . S
C13 N11 1.375 . S
C13 C15 1.350 . S
C13 H22 0.930 . S
N14 C12 1.347 1_554 S
N14 C15 1.373 . S
C15 C13 1.350 . S
C15 N14 1.373 . S
C15 H29 0.931 . S
C16 O19 1.256 . S
C16 O20 1.255 . S
O17 Co0 2.021 . S
O17 C10 1.255 1_565 S
O18 Co2 2.117 1_455 S
O18 C10 1.263 . S
O19 Co2 2.019 1_565 S
O19 C16 1.256 . S
O20 Co0 2.062 1_655 S
O20 C16 1.255 . S
O21 C1 1.259 1_655 S
O21 Co2 2.021 1_556 S
H22 C13 0.930 . S
H23 C12 0.931 . S
O24 Co0 2.117 1_556 S
O24 C1 1.258 1_565 S
O25 Co0 2.020 1_545 S
O25 C27 1.256 . S
O26 Co2 2.062 1_455 S
O26 C27 1.255 . S
C27 O25 1.256 . S
C27 O26 1.255 . S
H28 C7 0.931 . S
H29 C15 0.931 . S
Co30 N35 2.057 . S
Co30 O47 2.021 . S
Co30 O50 2.062 . S
Co30 O54 2.117 . S
Co30 O55 2.020 . S
C31 O51 1.259 . S
C31 O54 1.258 . S
Co32 N41 2.057 . S
Co32 O48 2.117 . S
Co32 O49 2.020 . S
Co32 O51 2.021 . S
Co32 O56 2.062 . S
C33 N35 1.316 . S
C33 N36 1.347 . S
C33 H38 0.931 . S
C34 N35 1.375 . S
C34 C37 1.350 . S
C34 H39 0.930 . S
N35 Co30 2.057 . S
N35 C33 1.316 . S
N35 C34 1.375 . S
N36 C33 1.347 . S
N36 C37 1.373 . S
C37 C34 1.350 . S
C37 N36 1.373 . S
C37 H58 0.931 . S
H38 C33 0.931 . S
H39 C34 0.930 . S
C40 O47 1.259 . S
C40 O48 1.258 . S
N41 Co32 2.057 . S
N41 C42 1.316 . S
N41 C43 1.375 . S
C42 N41 1.316 . S
C42 N44 1.347 . S
C42 H53 0.931 . S
C43 N41 1.375 . S
C43 C45 1.350 . S
C43 H52 0.930 . S
N44 C42 1.347 . S
N44 C45 1.373 . S
C45 C43 1.350 . S
C45 N44 1.373 . S
C45 H59 0.931 . S
C46 O49 1.256 . S
C46 O50 1.255 . S
O47 Co30 2.021 . S
O47 C40 1.259 . S
O48 Co32 2.117 . S
O48 C40 1.258 . S
O49 Co32 2.020 . S
O49 C46 1.256 . S
O50 Co30 2.062 . S
O50 C46 1.255 . S
O51 C31 1.259 . S
O51 Co32 2.021 . S
H52 C43 0.930 . S
H53 C42 0.931 . S
O54 Co30 2.117 . S
O54 C31 1.258 . S
O55 Co30 2.020 . S
O55 C57 1.256 . S
O56 Co32 2.062 . S
O56 C57 1.255 . S
C57 O55 1.256 . S
C57 O56 1.255 . S
H58 C37 0.931 . S
H59 C45 0.931 . S
H60 C65 0.930 . S
H61 C68 0.930 1_655 S
H62 C70 0.930 . S
H63 C64 1.016 . S
C64 H63 1.016 . S
C64 N71 1.286 . S
C65 H60 0.930 . S
C65 C66 1.397 . S
C65 C67 1.361 1_565 S
C66 C65 1.397 . S
C66 C70 1.390 . S
C67 C65 1.361 1_545 S
C67 C68 1.393 . S
C67 N71 1.413 1_455 S
C68 H61 0.930 1_455 S
C68 C67 1.393 . S
C68 C69 1.399 1_545 S
C69 C68 1.399 1_565 S
C69 C70 1.381 . S
C70 H62 0.930 . S
C70 C66 1.390 . S
C70 C69 1.381 . S
N71 C64 1.286 . S
N71 C67 1.413 1_655 S
H72 C77 0.930 . S
H73 C80 0.930 . S
H74 C82 0.930 . S
H75 C76 1.016 . S
C76 H75 1.016 . S
C76 N83 1.286 . S
C77 H72 0.930 . S
C77 C78 1.397 . S
C77 C79 1.361 1_665 S
C78 C77 1.397 . S
C78 C82 1.390 . S
C79 C77 1.361 1_445 S
C79 C80 1.393 . S
C79 N83 1.413 . S
C80 H73 0.930 . S
C80 C79 1.393 . S
C80 C81 1.399 1_455 S
C81 C80 1.399 1_655 S
C81 C82 1.381 1_545 S
C82 H74 0.930 . S
C82 C78 1.390 . S
C82 C81 1.381 1_565 S
N83 C76 1.286 . S
N83 C79 1.413 . S
H84 C89 0.930 . S
H85 C92 0.930 . S
H86 C94 0.930 . S
H87 C88 1.016 . S
C88 H87 1.016 . S
C88 N95 1.286 . S
C89 H84 0.930 . S
C89 C90 1.397 . S
C89 C91 1.361 . S
C90 C89 1.397 . S
C90 C94 1.390 . S
C91 C89 1.361 . S
C91 C92 1.393 . S
C91 N95 1.413 . S
C92 H85 0.930 . S
C92 C91 1.393 . S
C92 C93 1.399 . S
C93 C92 1.399 . S
C93 C94 1.381 . S
C94 H86 0.930 . S
C94 C90 1.390 . S
C94 C93 1.381 . S
N95 C88 1.286 . S
N95 C91 1.413 . S
H96 C101 0.930 . S
H97 C104 0.930 . S
H98 C106 0.930 . S
H99 C100 1.016 . S
C100 H99 1.016 . S
C100 N107 1.286 . S
C101 H96 0.930 . S
C101 C102 1.397 . S
C101 C103 1.361 . S
C102 C101 1.397 . S
C102 C106 1.390 . S
C103 C101 1.361 . S
C103 C104 1.393 . S
C103 N107 1.413 . S
C104 H97 0.930 . S
C104 C103 1.393 . S
C104 C105 1.399 . S
C105 C104 1.399 . S
C105 C106 1.381 . S
C106 H98 0.930 . S
C106 C102 1.390 . S
C106 C105 1.381 . S
N107 C100 1.286 . S
N107 C103 1.413 . S
C108 C109 1.386 . S
C108 C110 1.383 . S
C108 H124 0.951 1_554 S
C109 C108 1.386 . S
C109 C113 1.383 . S
C110 C108 1.383 . S
C110 C111 1.402 . S
C110 H125 0.965 . S
C111 C110 1.402 . S
C111 C112 1.375 . S
C111 C114 1.481 . S
C112 C111 1.375 . S
C112 C113 1.367 . S
C112 H126 0.951 . S
C113 C109 1.383 . S
C113 C112 1.367 . S
C113 H127 0.950 . S
C114 C111 1.481 . S
C114 C115 1.297 . S
C114 H128 0.950 . S
C115 C114 1.297 . S
C115 C116 1.479 . S
C115 H129 0.950 . S
C116 C115 1.479 . S
C116 C117 1.375 . S
C116 C122 1.404 . S
C117 C116 1.375 . S
C117 C118 1.369 . S
C117 H130 0.950 . S
C118 C117 1.369 . S
C118 C119 1.392 . S
C118 H131 0.951 . S
C119 C118 1.392 . S
C119 C121 1.384 . S
H120 C122 0.949 . S
C121 C119 1.384 . S
C121 C122 1.385 . S
C121 H123 0.950 . S
C122 C116 1.404 . S
C122 H120 0.949 . S
C122 C121 1.385 . S
H123 C121 0.950 . S
H124 C108 0.951 1_556 S
H125 C110 0.965 . S
H126 C112 0.951 . S
H127 C113 0.950 . S
H128 C114 0.950 . S
H129 C115 0.950 . S
H130 C117 0.950 . S
H131 C118 0.951 . S
C132 C133 1.386 . S
C132 C134 1.383 . S
C132 H148 0.951 . S
C133 C132 1.386 . S
C133 C137 1.383 1_554 S
C134 C132 1.383 . S
C134 C135 1.402 1_554 S
C134 H149 0.951 . S
C135 C134 1.402 1_556 S
C135 C136 1.375 . S
C135 C138 1.481 . S
C136 C135 1.375 . S
C136 C137 1.367 . S
C136 H150 0.951 . S
C137 C133 1.383 1_556 S
C137 C136 1.367 . S
C137 H151 0.950 . S
C138 C135 1.481 . S
C138 C139 1.297 1_556 S
C138 H152 0.950 . S
C139 C138 1.297 1_554 S
C139 C140 1.479 1_554 S
C139 H153 0.950 . S
C140 C139 1.479 1_556 S
C140 C141 1.375 1_556 S
C140 C146 1.404 . S
C141 C140 1.375 1_554 S
C141 C142 1.369 . S
C141 H154 0.950 . S
C142 C141 1.369 . S
C142 C143 1.392 1_554 S
C142 H155 0.951 . S
C143 C142 1.392 1_556 S
C143 C145 1.384 . S
H144 C146 0.949 . S
C145 C143 1.384 . S
C145 C146 1.385 . S
C145 H147 0.950 . S
C146 C140 1.404 . S
C146 H144 0.949 . S
C146 C145 1.385 . S
H147 C145 0.950 . S
H148 C132 0.951 . S
H149 C134 0.951 . S
H150 C136 0.951 . S
H151 C137 0.950 . S
H152 C138 0.950 . S
H153 C139 0.950 . S
H154 C141 0.950 . S
H155 C142 0.951 . S
C156 C157 1.386 1_556 S
C156 C158 1.382 . S
C156 H172 0.951 . S
C157 C156 1.386 1_554 S
C157 C161 1.383 . S
C158 C156 1.382 . S
C158 C159 1.404 1_556 S
C158 H173 0.950 . S
C159 C158 1.404 1_554 S
C159 C160 1.375 . S
C159 C162 1.481 . S
C160 C159 1.375 . S
C160 C161 1.367 . S
C160 H174 0.951 . S
C161 C157 1.383 . S
C161 C160 1.367 . S
C161 H175 0.950 . S
C162 C159 1.481 . S
C162 C163 1.297 . S
C162 H176 0.950 . S
C163 C162 1.297 . S
C163 C164 1.479 . S
C163 H177 0.950 . S
C164 C163 1.479 . S
C164 C165 1.375 . S
C164 C170 1.404 . S
C165 C164 1.375 . S
C165 C166 1.369 . S
C165 H178 0.950 1_554 S
C166 C165 1.369 . S
C166 C167 1.392 . S
C166 H179 0.951 1_554 S
C167 C166 1.392 . S
C167 C169 1.384 . S
H168 C170 0.949 . S
C169 C167 1.384 . S
C169 C170 1.385 . S
C169 H171 0.950 . S
C170 C164 1.404 . S
C170 H168 0.949 . S
C170 C169 1.385 . S
H171 C169 0.950 . S
H172 C156 0.951 . S
H173 C158 0.950 . S
H174 C160 0.951 . S
H175 C161 0.950 . S
H176 C162 0.950 . S
H177 C163 0.950 . S
H178 C165 0.950 1_556 S
H179 C166 0.951 1_556 S
C180 C181 1.386 . S
C180 C182 1.383 . S
C180 H196 0.951 . S
C181 C180 1.386 . S
C181 C185 1.383 1_556 S
C182 C180 1.383 . S
C182 C183 1.402 . S
C182 H197 0.951 . S
C183 C182 1.402 . S
C183 C184 1.375 1_556 S
C183 C186 1.481 . S
C184 C183 1.375 1_554 S
C184 C185 1.367 . S
C184 H198 0.951 . S
C185 C181 1.383 1_554 S
C185 C184 1.367 . S
C185 H199 0.950 . S
C186 C183 1.481 . S
C186 C187 1.297 . S
C186 H200 0.950 1_556 S
C187 C186 1.297 . S
C187 C188 1.479 . S
C187 H201 0.950 . S
C188 C187 1.479 . S
C188 C189 1.375 . S
C188 C194 1.404 . S
C189 C188 1.375 . S
C189 C190 1.369 . S
C189 H202 0.950 . S
C190 C189 1.369 . S
C190 C191 1.392 . S
C190 H203 0.951 . S
C191 C190 1.392 . S
C191 C193 1.384 . S
H192 C194 0.949 1_554 S
C193 C191 1.384 . S
C193 C194 1.385 . S
C193 H195 0.950 1_556 S
C194 C188 1.404 . S
C194 H192 0.949 1_556 S
C194 C193 1.385 . S
H195 C193 0.950 1_554 S
H196 C180 0.951 . S
H197 C182 0.951 . S
H198 C184 0.951 . S
H199 C185 0.950 . S
H200 C186 0.950 1_554 S
H201 C187 0.950 . S
H202 C189 0.950 . S
H203 C190 0.951 . S
C204 C205 1.386 . S
C204 C206 1.383 . S
C204 H220 0.951 . S
C205 C204 1.386 . S
C205 C209 1.383 . S
C206 C204 1.383 . S
C206 C207 1.402 . S
C206 H221 0.951 . S
C207 C206 1.402 . S
C207 C208 1.375 . S
C207 C210 1.481 . S
C208 C207 1.375 . S
C208 C209 1.367 . S
C208 H222 0.951 . S
C209 C205 1.383 . S
C209 C208 1.367 . S
C209 H223 0.950 . S
C210 C207 1.481 . S
C210 C211 1.297 . S
C210 H224 0.950 . S
C211 C210 1.297 . S
C211 C212 1.479 . S
C211 H225 0.950 . S
C212 C211 1.479 . S
C212 C213 1.375 . S
C212 C218 1.404 . S
C213 C212 1.375 . S
C213 C214 1.369 . S
C213 H226 0.950 . S
C214 C213 1.369 . S
C214 C215 1.392 . S
C214 H227 0.951 . S
C215 C214 1.392 . S
C215 C217 1.384 . S
H216 C218 0.949 . S
C217 C215 1.384 . S
C217 C218 1.385 . S
C217 H219 0.950 . S
C218 C212 1.404 . S
C218 H216 0.949 . S
C218 C217 1.385 . S
H219 C217 0.950 . S
H220 C204 0.951 . S
H221 C206 0.951 . S
H222 C208 0.951 . S
H223 C209 0.950 . S
H224 C210 0.950 . S
H225 C211 0.950 . S
H226 C213 0.950 . S
H227 C214 0.951 . S
C228 C229 1.386 . S
C228 C230 1.383 . S
C228 H244 0.951 . S
C229 C228 1.386 . S
C229 C233 1.383 . S
C230 C228 1.383 . S
C230 C231 1.402 . S
C230 H245 0.951 . S
C231 C230 1.402 . S
C231 C232 1.375 . S
C231 C234 1.481 . S
C232 C231 1.375 . S
C232 C233 1.367 . S
C232 H246 0.951 . S
C233 C229 1.383 . S
C233 C232 1.367 . S
C233 H247 0.950 . S
C234 C231 1.481 . S
C234 C235 1.297 . S
C234 H248 0.950 . S
C235 C234 1.297 . S
C235 C236 1.479 . S
C235 H249 0.950 . S
C236 C235 1.479 . S
C236 C237 1.375 . S
C236 C242 1.404 . S
C237 C236 1.375 . S
C237 C238 1.369 . S
C237 H250 0.950 . S
C238 C237 1.369 . S
C238 C239 1.392 . S
C238 H251 0.951 . S
C239 C238 1.392 . S
C239 C241 1.384 . S
H240 C242 0.949 . S
C241 C239 1.384 . S
C241 C242 1.385 . S
C241 H243 0.950 . S
C242 C236 1.404 . S
C242 H240 0.949 . S
C242 C241 1.385 . S
H243 C241 0.950 . S
H244 C228 0.951 . S
H245 C230 0.951 . S
H246 C232 0.951 . S
H247 C233 0.950 . S
H248 C234 0.950 . S
H249 C235 0.950 . S
H250 C237 0.950 . S
H251 C238 0.951 . S
C252 C253 1.386 . S
C252 C254 1.383 . S
C252 H268 0.951 . S
C253 C252 1.386 . S
C253 C257 1.383 . S
C254 C252 1.383 . S
C254 C255 1.402 . S
C254 H269 0.951 . S
C255 C254 1.402 . S
C255 C256 1.375 . S
C255 C258 1.481 . S
C256 C255 1.375 . S
C256 C257 1.367 . S
C256 H270 0.951 . S
C257 C253 1.383 . S
C257 C256 1.367 . S
C257 H271 0.950 . S
C258 C255 1.481 . S
C258 C259 1.297 . S
C258 H272 0.950 . S
C259 C258 1.297 . S
C259 C260 1.479 . S
C259 H273 0.950 . S
C260 C259 1.479 . S
C260 C261 1.375 . S
C260 C266 1.404 . S
C261 C260 1.375 . S
C261 C262 1.369 . S
C261 H274 0.950 . S
C262 C261 1.369 . S
C262 C263 1.392 . S
C262 H275 0.951 . S
C263 C262 1.392 . S
C263 C265 1.384 . S
H264 C266 0.949 . S
C265 C263 1.384 . S
C265 C266 1.385 . S
C265 H267 0.950 . S
C266 C260 1.404 . S
C266 H264 0.949 . S
C266 C265 1.385 . S
H267 C265 0.950 . S
H268 C252 0.951 . S
H269 C254 0.951 . S
H270 C256 0.951 . S
H271 C257 0.950 . S
H272 C258 0.950 . S
H273 C259 0.950 . S
H274 C261 0.950 . S
H275 C262 0.951 . S
C276 C277 1.386 . S
C276 C278 1.383 . S
C276 H292 0.951 . S
C277 C276 1.386 . S
C277 C281 1.383 . S
C278 C276 1.383 . S
C278 C279 1.402 . S
C278 H293 0.951 . S
C279 C278 1.402 . S
C279 C280 1.375 . S
C279 C282 1.481 . S
C280 C279 1.375 . S
C280 C281 1.367 . S
C280 H294 0.951 . S
C281 C277 1.383 . S
C281 C280 1.367 . S
C281 H295 0.950 . S
C282 C279 1.481 . S
C282 C283 1.297 . S
C282 H296 0.950 . S
C283 C282 1.297 . S
C283 C284 1.479 . S
C283 H297 0.950 . S
C284 C283 1.479 . S
C284 C285 1.375 . S
C284 C290 1.404 . S
C285 C284 1.375 . S
C285 C286 1.369 . S
C285 H298 0.950 . S
C286 C285 1.369 . S
C286 C287 1.392 . S
C286 H299 0.951 . S
C287 C286 1.392 . S
C287 C289 1.384 . S
H288 C290 0.949 . S
C289 C287 1.384 . S
C289 C290 1.385 . S
C289 H291 0.950 . S
C290 C284 1.404 . S
C290 H288 0.949 . S
C290 C289 1.385 . S
H291 C289 0.950 . S
H292 C276 0.951 . S
H293 C278 0.951 . S
H294 C280 0.951 . S
H295 C281 0.950 . S
H296 C282 0.950 . S
H297 C283 0.950 . S
H298 C285 0.950 . S
H299 C286 0.951 . S
C300 C301 1.386 1_645 S
C300 C302 1.383 . S
C300 H316 0.951 . S
C301 C300 1.386 1_465 S
C301 C305 1.383 . S
C302 C300 1.383 . S
C302 C303 1.402 1_645 S
C302 H317 0.951 . S
C303 C302 1.402 1_465 S
C303 C304 1.375 . S
C303 C306 1.481 . S
C304 C303 1.375 . S
C304 C305 1.367 . S
C304 H318 0.951 . S
C305 C301 1.383 . S
C305 C304 1.367 . S
C305 H319 0.950 . S
C306 C303 1.481 . S
C306 C307 1.297 . S
C306 H320 0.950 . S
C307 C306 1.297 . S
C307 C308 1.479 . S
C307 H321 0.950 1_455 S
C308 C307 1.479 . S
C308 C309 1.375 1_465 S
C308 C314 1.404 . S
C309 C308 1.375 1_645 S
C309 C310 1.369 . S
C309 H322 0.950 . S
C310 C309 1.369 . S
C310 C311 1.392 1_645 S
C310 H323 0.951 . S
C311 C310 1.392 1_465 S
C311 C313 1.384 . S
H312 C314 0.949 . S
C313 C311 1.384 . S
C313 C314 1.385 . S
C313 H315 0.950 . S
C314 C308 1.404 . S
C314 H312 0.949 . S
C314 C313 1.385 . S
H315 C313 0.950 . S
H316 C300 0.951 . S
H317 C302 0.951 . S
H318 C304 0.951 . S
H319 C305 0.950 . S
H320 C306 0.950 . S
H321 C307 0.950 1_655 S
H322 C309 0.950 . S
H323 C310 0.951 . S
C324 C325 1.385 1_545 S
C324 C326 1.383 . S
C324 H340 0.951 . S
C325 C324 1.385 1_565 S
C325 C329 1.384 1_455 S
C326 C324 1.383 . S
C326 C327 1.402 1_445 S
C326 H341 0.951 . S
C327 C326 1.402 1_665 S
C327 C328 1.375 . S
C327 C330 1.481 . S
C328 C327 1.375 . S
C328 C329 1.367 . S
C328 H342 0.951 . S
C329 C325 1.384 1_655 S
C329 C328 1.367 . S
C329 H343 0.950 . S
C330 C327 1.481 . S
C330 C331 1.297 1_655 S
C330 H344 0.950 . S
C331 C330 1.297 1_455 S
C331 C332 1.479 . S
C331 H345 0.950 1_565 S
C332 C331 1.479 . S
C332 C333 1.375 1_565 S
C332 C338 1.404 1_455 S
C333 C332 1.375 1_545 S
C333 C334 1.369 . S
C333 H346 0.950 . S
C334 C333 1.369 . S
C334 C335 1.381 1_455 S
C334 H347 0.951 . S
C335 C334 1.381 1_655 S
C335 C337 1.395 1_545 S
H336 C338 0.949 . S
C337 C335 1.395 1_565 S
C337 C338 1.385 . S
C337 H339 0.950 . S
C338 C332 1.404 1_655 S
C338 H336 0.949 . S
C338 C337 1.385 . S
H339 C337 0.950 . S
H340 C324 0.951 . S
H341 C326 0.951 . S
H342 C328 0.951 . S
H343 C329 0.950 . S
H344 C330 0.950 . S
H345 C331 0.950 1_545 S
H346 C333 0.950 . S
H347 C334 0.951 . S
C348 C349 1.386 . S
C348 C350 1.383 . S
C348 H364 0.951 . S
C349 C348 1.386 . S
C349 C353 1.383 . S
C350 C348 1.383 . S
C350 C351 1.402 . S
C350 H365 0.951 . S
C351 C350 1.402 . S
C351 C352 1.375 . S
C351 C354 1.481 . S
C352 C351 1.375 . S
C352 C353 1.367 . S
C352 H366 0.951 . S
C353 C349 1.383 . S
C353 C352 1.367 . S
C353 H367 0.950 . S
C354 C351 1.481 . S
C354 C355 1.297 . S
C354 H368 0.950 . S
C355 C354 1.297 . S
C355 C356 1.479 . S
C355 H369 0.950 . S
C356 C355 1.479 . S
C356 C357 1.375 . S
C356 C362 1.404 . S
C357 C356 1.375 . S
C357 C358 1.369 . S
C357 H370 0.950 . S
C358 C357 1.369 . S
C358 C359 1.392 . S
C358 H371 0.951 . S
C359 C358 1.392 . S
C359 C361 1.384 . S
H360 C362 0.949 . S
C361 C359 1.384 . S
C361 C362 1.385 . S
C361 H363 0.950 . S
C362 C356 1.404 . S
C362 H360 0.949 . S
C362 C361 1.385 . S
H363 C361 0.950 . S
H364 C348 0.951 . S
H365 C350 0.951 . S
H366 C352 0.951 . S
H367 C353 0.950 . S
H368 C354 0.950 . S
H369 C355 0.950 . S
H370 C357 0.950 . S
H371 C358 0.951 . S
C372 C373 1.386 . S
C372 C374 1.383 . S
C372 H388 0.951 . S
C373 C372 1.386 . S
C373 C377 1.383 . S
C374 C372 1.383 . S
C374 C375 1.402 . S
C374 H389 0.951 . S
C375 C374 1.402 . S
C375 C376 1.375 . S
C375 C378 1.481 . S
C376 C375 1.375 . S
C376 C377 1.367 . S
C376 H390 0.951 . S
C377 C373 1.383 . S
C377 C376 1.367 . S
C377 H391 0.950 . S
C378 C375 1.481 . S
C378 C379 1.297 . S
C378 H392 0.950 . S
C379 C378 1.297 . S
C379 C380 1.479 . S
C379 H393 0.950 . S
C380 C379 1.479 . S
C380 C381 1.375 . S
C380 C386 1.404 . S
C381 C380 1.375 . S
C381 C382 1.369 . S
C381 H394 0.950 . S
C382 C381 1.369 . S
C382 C383 1.392 . S
C382 H395 0.951 . S
C383 C382 1.392 . S
C383 C385 1.384 . S
H384 C386 0.949 . S
C385 C383 1.384 . S
C385 C386 1.385 . S
C385 H387 0.950 . S
C386 C380 1.404 . S
C386 H384 0.949 . S
C386 C385 1.385 . S
H387 C385 0.950 . S
H388 C372 0.951 . S
H389 C374 0.951 . S
H390 C376 0.951 . S
H391 C377 0.950 . S
H392 C378 0.950 . S
H393 C379 0.950 . S
H394 C381 0.950 . S
H395 C382 0.951 . S
C119 C102 1.416 . S
C109 C27 1.469 . S
C133 N6 1.294 . S
C143 C88 1.326 . S
C157 C16 1.383 . S
C167 C100 1.312 . S
C181 N14 1.407 1_556 S
C191 C90 1.401 . S
C205 C57 1.468 . S
C215 C78 1.430 . S
C229 N36 1.348 . S
C239 C64 1.343 . S
C263 C76 1.299 . S
C253 C46 1.390 . S
C287 C66 1.387 . S
C277 N44 1.431 . S
C301 C10 1.468 1_565 S
C311 C69 1.457 . S
C325 C1 1.541 1_565 S
C335 C81 1.520 . S
C359 C93 1.467 . S
C349 C40 1.472 . S
C373 C31 1.538 . S
C383 C105 1.513 . S
