# Generated by pormake.
# Topology eea, (3,6)-cn, num edge types: 1
# Building blocks:
#     Node 0, Type 0, BuildingBlock: CUQRIR_clean_linker_1, # of connection points: 3
#     Node 1, Type 0, BuildingBlock: CUQRIR_clean_linker_1, # of connection points: 3
#     Node 2, Type 0, BuildingBlock: CUQRIR_clean_linker_1, # of connection points: 3
#     Node 3, Type 0, BuildingBlock: CUQRIR_clean_linker_1, # of connection points: 3
#     Node 4, Type 0, BuildingBlock: CUQRIR_clean_linker_1, # of connection points: 3
#     Node 5, Type 0, BuildingBlock: CUQRIR_clean_linker_1, # of connection points: 3
#     Node 6, Type 0, BuildingBlock: CUQRIR_clean_linker_1, # of connection points: 3
#     Node 7, Type 0, BuildingBlock: CUQRIR_clean_linker_1, # of connection points: 3
#     Node 8, Type 0, BuildingBlock: CUQRIR_clean_linker_1, # of connection points: 3
#     Node 9, Type 0, BuildingBlock: CUQRIR_clean_linker_1, # of connection points: 3
#     Node 10, Type 0, BuildingBlock: CUQRIR_clean_linker_1, # of connection points: 3
#     Node 11, Type 0, BuildingBlock: CUQRIR_clean_linker_1, # of connection points: 3
#     Node 12, Type 0, BuildingBlock: CUQRIR_clean_linker_1, # of connection points: 3
#     Node 13, Type 0, BuildingBlock: CUQRIR_clean_linker_1, # of connection points: 3
#     Node 14, Type 0, BuildingBlock: CUQRIR_clean_linker_1, # of connection points: 3
#     Node 15, Type 0, BuildingBlock: CUQRIR_clean_linker_1, # of connection points: 3
#     Node 16, Type 0, BuildingBlock: CUQRIR_clean_linker_1, # of connection points: 3
#     Node 17, Type 0, BuildingBlock: CUQRIR_clean_linker_1, # of connection points: 3
#     Node 18, Type 1, BuildingBlock: KUMBOL_clean_sbu_0, # of connection points: 6
#     Node 19, Type 1, BuildingBlock: KUMBOL_clean_sbu_0, # of connection points: 6
#     Node 20, Type 1, BuildingBlock: KUMBOL_clean_sbu_0, # of connection points: 6
#     Node 21, Type 1, BuildingBlock: KUMBOL_clean_sbu_0, # of connection points: 6
#     Node 22, Type 1, BuildingBlock: KUMBOL_clean_sbu_0, # of connection points: 6
#     Node 23, Type 1, BuildingBlock: KUMBOL_clean_sbu_0, # of connection points: 6
#     Node 24, Type 1, BuildingBlock: KUMBOL_clean_sbu_0, # of connection points: 6
#     Node 25, Type 1, BuildingBlock: KUMBOL_clean_sbu_0, # of connection points: 6
#     Node 26, Type 1, BuildingBlock: KUMBOL_clean_sbu_0, # of connection points: 6
#     Edge 27, Type (0, 1), BuildingBlock: XIVTED_clean_linker_0, # of connection points: 2
#     Edge 28, Type (0, 1), BuildingBlock: XIVTED_clean_linker_0, # of connection points: 2
#     Edge 29, Type (0, 1), BuildingBlock: XIVTED_clean_linker_0, # of connection points: 2
#     Edge 30, Type (0, 1), BuildingBlock: XIVTED_clean_linker_0, # of connection points: 2
#     Edge 31, Type (0, 1), BuildingBlock: XIVTED_clean_linker_0, # of connection points: 2
#     Edge 32, Type (0, 1), BuildingBlock: XIVTED_clean_linker_0, # of connection points: 2
#     Edge 33, Type (0, 1), BuildingBlock: XIVTED_clean_linker_0, # of connection points: 2
#     Edge 34, Type (0, 1), BuildingBlock: XIVTED_clean_linker_0, # of connection points: 2
#     Edge 35, Type (0, 1), BuildingBlock: XIVTED_clean_linker_0, # of connection points: 2
#     Edge 36, Type (0, 1), BuildingBlock: XIVTED_clean_linker_0, # of connection points: 2
#     Edge 37, Type (0, 1), BuildingBlock: XIVTED_clean_linker_0, # of connection points: 2
#     Edge 38, Type (0, 1), BuildingBlock: XIVTED_clean_linker_0, # of connection points: 2
#     Edge 39, Type (0, 1), BuildingBlock: XIVTED_clean_linker_0, # of connection points: 2
#     Edge 40, Type (0, 1), BuildingBlock: XIVTED_clean_linker_0, # of connection points: 2
#     Edge 41, Type (0, 1), BuildingBlock: XIVTED_clean_linker_0, # of connection points: 2
#     Edge 42, Type (0, 1), BuildingBlock: XIVTED_clean_linker_0, # of connection points: 2
#     Edge 43, Type (0, 1), BuildingBlock: XIVTED_clean_linker_0, # of connection points: 2
#     Edge 44, Type (0, 1), BuildingBlock: XIVTED_clean_linker_0, # of connection points: 2
#     Edge 45, Type (0, 1), BuildingBlock: XIVTED_clean_linker_0, # of connection points: 2
#     Edge 46, Type (0, 1), BuildingBlock: XIVTED_clean_linker_0, # of connection points: 2
#     Edge 47, Type (0, 1), BuildingBlock: XIVTED_clean_linker_0, # of connection points: 2
#     Edge 48, Type (0, 1), BuildingBlock: XIVTED_clean_linker_0, # of connection points: 2
#     Edge 49, Type (0, 1), BuildingBlock: XIVTED_clean_linker_0, # of connection points: 2
#     Edge 50, Type (0, 1), BuildingBlock: XIVTED_clean_linker_0, # of connection points: 2
#     Edge 51, Type (0, 1), BuildingBlock: XIVTED_clean_linker_0, # of connection points: 2
#     Edge 52, Type (0, 1), BuildingBlock: XIVTED_clean_linker_0, # of connection points: 2
#     Edge 53, Type (0, 1), BuildingBlock: XIVTED_clean_linker_0, # of connection points: 2
#     Edge 54, Type (0, 1), BuildingBlock: XIVTED_clean_linker_0, # of connection points: 2
#     Edge 55, Type (0, 1), BuildingBlock: XIVTED_clean_linker_0, # of connection points: 2
#     Edge 56, Type (0, 1), BuildingBlock: XIVTED_clean_linker_0, # of connection points: 2
#     Edge 57, Type (0, 1), BuildingBlock: XIVTED_clean_linker_0, # of connection points: 2
#     Edge 58, Type (0, 1), BuildingBlock: XIVTED_clean_linker_0, # of connection points: 2
#     Edge 59, Type (0, 1), BuildingBlock: XIVTED_clean_linker_0, # of connection points: 2
#     Edge 60, Type (0, 1), BuildingBlock: XIVTED_clean_linker_0, # of connection points: 2
#     Edge 61, Type (0, 1), BuildingBlock: XIVTED_clean_linker_0, # of connection points: 2
#     Edge 62, Type (0, 1), BuildingBlock: XIVTED_clean_linker_0, # of connection points: 2
#     Edge 63, Type (0, 1), BuildingBlock: XIVTED_clean_linker_0, # of connection points: 2
#     Edge 64, Type (0, 1), BuildingBlock: XIVTED_clean_linker_0, # of connection points: 2
#     Edge 65, Type (0, 1), BuildingBlock: XIVTED_clean_linker_0, # of connection points: 2
#     Edge 66, Type (0, 1), BuildingBlock: XIVTED_clean_linker_0, # of connection points: 2
#     Edge 67, Type (0, 1), BuildingBlock: XIVTED_clean_linker_0, # of connection points: 2
#     Edge 68, Type (0, 1), BuildingBlock: XIVTED_clean_linker_0, # of connection points: 2
#     Edge 69, Type (0, 1), BuildingBlock: XIVTED_clean_linker_0, # of connection points: 2
#     Edge 70, Type (0, 1), BuildingBlock: XIVTED_clean_linker_0, # of connection points: 2
#     Edge 71, Type (0, 1), BuildingBlock: XIVTED_clean_linker_0, # of connection points: 2
#     Edge 72, Type (0, 1), BuildingBlock: XIVTED_clean_linker_0, # of connection points: 2
#     Edge 73, Type (0, 1), BuildingBlock: XIVTED_clean_linker_0, # of connection points: 2
#     Edge 74, Type (0, 1), BuildingBlock: XIVTED_clean_linker_0, # of connection points: 2
#     Edge 75, Type (0, 1), BuildingBlock: XIVTED_clean_linker_0, # of connection points: 2
#     Edge 76, Type (0, 1), BuildingBlock: XIVTED_clean_linker_0, # of connection points: 2
#     Edge 77, Type (0, 1), BuildingBlock: XIVTED_clean_linker_0, # of connection points: 2
#     Edge 78, Type (0, 1), BuildingBlock: XIVTED_clean_linker_0, # of connection points: 2
#     Edge 79, Type (0, 1), BuildingBlock: XIVTED_clean_linker_0, # of connection points: 2
#     Edge 80, Type (0, 1), BuildingBlock: XIVTED_clean_linker_0, # of connection points: 2
# Relax obj value: 0.040
# Max RMSD: 0.206
# Mean RMSD: 0.147
data_MOF--net-eea--node1-KUMBOL_clean_sbu_0--node2-CUQRIR_clean_linker_1--edge1-XIVTED_clean_linker_0
_symmetry_space_group_name_H-M    P1
_symmetry_Int_Tables_number       1
_symmetry_cell_setting            triclinic
loop_
_symmetry_equiv_pos_as_xyz
'x, y, z'
_cell_length_a     48.02613
_cell_length_b     51.532702
_cell_length_c     63.808392
_cell_angle_alpha  83.028674
_cell_angle_beta   89.92691
_cell_angle_gamma 118.72472
loop_
_atom_site_label
_atom_site_type_symbol
_atom_site_fract_x
_atom_site_fract_y
_atom_site_fract_z
_atom_type_partial_charge
C0 C 0.22033 0.10573 0.40933 0.0
N1 N 0.22885 0.12768 0.42174 0.0
N2 N 0.22209 0.08204 0.41973 0.0
C3 C 0.21043 0.10746 0.38705 0.0
C4 C 0.23156 0.09017 0.43898 0.0
N5 N 0.23537 0.11772 0.44028 0.0
C6 C 0.23718 0.07131 0.45662 0.0
H7 H 0.19654 0.11958 0.38539 0.0
H8 H 0.19608 0.08506 0.38222 0.0
H9 H 0.23205 0.11985 0.37606 0.0
H10 H 0.26029 0.08499 0.46329 0.0
H11 H 0.23689 0.05145 0.45145 0.0
H12 H 0.21818 0.06339 0.46946 0.0
C13 C 0.90713 0.11503 0.41315 0.0
N14 N 0.9203 0.1373 0.42542 0.0
N15 N 0.87764 0.09376 0.42135 0.0
C16 C 0.92259 0.11434 0.39285 0.0
C17 C 0.87339 0.10397 0.43903 0.0
N18 N 0.89917 0.1303 0.44152 0.0
C19 C 0.84357 0.08862 0.45358 0.0
H20 H 0.91685 0.12668 0.37963 0.0
H21 H 0.91357 0.09104 0.38966 0.0
H22 H 0.94882 0.12526 0.39322 0.0
H23 H 0.82236 0.07601 0.44476 0.0
H24 H 0.84 0.1048 0.46162 0.0
H25 H 0.84567 0.07264 0.46592 0.0
C26 C 0.92685 0.85738 0.41134 0.0
N27 N 0.94068 0.8458 0.42502 0.0
N28 N 0.90193 0.85736 0.42113 0.0
C29 C 0.93428 0.86406 0.38777 0.0
C30 C 0.90158 0.84582 0.44142 0.0
N31 N 0.92516 0.8387 0.44382 0.0
C32 C 0.87479 0.83653 0.45785 0.0
H33 H 0.95991 0.8721 0.38388 0.0
H34 H 0.92785 0.88108 0.38074 0.0
H35 H 0.92014 0.84328 0.38068 0.0
H36 H 0.85977 0.81186 0.45989 0.0
H37 H 0.85983 0.84702 0.45319 0.0
H38 H 0.88447 0.84297 0.4733 0.0
C39 C 0.08283 0.17173 0.63689 0.0
N40 N 0.10867 0.18526 0.623 0.0
N41 N 0.05961 0.1774 0.62961 0.0
C42 C 0.08256 0.15784 0.65912 0.0
C43 C 0.07225 0.19473 0.61078 0.0
N44 N 0.10217 0.19979 0.60683 0.0
C45 C 0.05617 0.20879 0.59717 0.0
H46 H 0.05863 0.1472 0.6675 0.0
H47 H 0.09979 0.17533 0.66806 0.0
H48 H 0.09024 0.14075 0.65877 0.0
H49 H 0.06242 0.23084 0.60195 0.0
H50 H 0.02992 0.19456 0.59926 0.0
H51 H 0.0642 0.21225 0.58025 0.0
C52 C 0.78421 0.90237 0.64174 0.0
N53 N 0.77731 0.88156 0.62856 0.0
N54 N 0.78203 0.92609 0.63189 0.0
C55 C 0.79303 0.89952 0.66423 0.0
C56 C 0.77398 0.9192 0.6122 0.0
N57 N 0.77148 0.89233 0.61007 0.0
C58 C 0.76834 0.93852 0.59496 0.0
H59 H 0.771 0.88529 0.6746 0.0
H60 H 0.80557 0.9214 0.6701 0.0
H61 H 0.80831 0.88879 0.6656 0.0
H62 H 0.78716 0.94666 0.58197 0.0
H63 H 0.76876 0.95821 0.60057 0.0
H64 H 0.74513 0.92507 0.58832 0.0
C65 C 0.11182 0.91411 0.64362 0.0
N66 N 0.09971 0.89147 0.6316 0.0
N67 N 0.14001 0.93698 0.63463 0.0
C68 C 0.09783 0.91263 0.66512 0.0
C69 C 0.14446 0.92738 0.6167 0.0
N70 N 0.12033 0.89977 0.61495 0.0
C71 C 0.17162 0.94557 0.60022 0.0
H72 H 0.08092 0.92156 0.66324 0.0
H73 H 0.11664 0.92624 0.67526 0.0
H74 H 0.08467 0.88924 0.67312 0.0
H75 H 0.19114 0.9403 0.60361 0.0
H76 H 0.18085 0.96985 0.60033 0.0
H77 H 0.16399 0.94003 0.5842 0.0
C78 C 0.88281 0.43733 0.74365 0.0
N79 N 0.89272 0.45979 0.75569 0.0
N80 N 0.8859 0.41416 0.75363 0.0
C81 C 0.86748 0.43684 0.72304 0.0
C82 C 0.89786 0.42324 0.77222 0.0
N83 N 0.9016 0.45076 0.77361 0.0
C84 C 0.90872 0.4065 0.78813 0.0
H85 H 0.85034 0.41361 0.72065 0.0
H86 H 0.88618 0.44671 0.70983 0.0
H87 H 0.85484 0.45011 0.72256 0.0
H88 H 0.91572 0.39211 0.78043 0.0
H89 H 0.88891 0.3921 0.80021 0.0
H90 H 0.92925 0.42214 0.79627 0.0
C91 C 0.57183 0.45299 0.74261 0.0
N92 N 0.58563 0.47492 0.75511 0.0
N93 N 0.54284 0.43132 0.75131 0.0
C94 C 0.58519 0.45422 0.72094 0.0
C95 C 0.53959 0.44087 0.76957 0.0
N96 N 0.56533 0.46731 0.77184 0.0
C97 C 0.51162 0.42403 0.78563 0.0
H98 H 0.60018 0.47767 0.71343 0.0
H99 H 0.56584 0.44238 0.71054 0.0
H100 H 0.60017 0.44318 0.72242 0.0
H101 H 0.5001 0.39963 0.78504 0.0
H102 H 0.49395 0.43175 0.78218 0.0
H103 H 0.51912 0.42836 0.80185 0.0
C104 C 0.58776 0.18258 0.75066 0.0
N105 N 0.60056 0.16895 0.76358 0.0
N106 N 0.55962 0.17748 0.75936 0.0
C107 C 0.59956 0.19577 0.72798 0.0
C108 C 0.55605 0.16059 0.77814 0.0
N109 N 0.58068 0.15505 0.78064 0.0
C110 C 0.52636 0.14623 0.79274 0.0
H111 H 0.58769 0.20843 0.72113 0.0
H112 H 0.59469 0.17747 0.71856 0.0
H113 H 0.62565 0.21087 0.72686 0.0
H114 H 0.50975 0.12396 0.78834 0.0
H115 H 0.51431 0.16006 0.79135 0.0
H116 H 0.53214 0.1431 0.80938 0.0
C117 C 0.75067 0.50246 0.9755 0.0
N118 N 0.77566 0.51329 0.96119 0.0
N119 N 0.72555 0.50294 0.96641 0.0
C120 C 0.75217 0.49556 0.99893 0.0
C121 C 0.73618 0.51422 0.94593 0.0
N122 N 0.76672 0.52045 0.94271 0.0
C123 C 0.71851 0.52367 0.93003 0.0
H124 H 0.72837 0.47862 1.00633 0.0
H125 H 0.76 0.51628 1.0062 0.0
H126 H 0.76948 0.48733 1.00219 0.0
H127 H 0.73068 0.54843 0.92675 0.0
H128 H 0.69344 0.5152 0.93582 0.0
H129 H 0.71875 0.51512 0.91495 0.0
C130 C 0.45753 0.24014 0.97205 0.0
N131 N 0.44754 0.21775 0.95994 0.0
N132 N 0.45271 0.26263 0.96281 0.0
C133 C 0.47423 0.24111 0.99213 0.0
C134 C 0.43967 0.25324 0.94451 0.0
N135 N 0.43686 0.22618 0.94265 0.0
C136 C 0.42779 0.26963 0.92909 0.0
H137 H 0.45628 0.23038 1.00578 0.0
H138 H 0.49069 0.26452 0.99451 0.0
H139 H 0.48788 0.22885 0.99175 0.0
H140 H 0.4478 0.2859 0.9177 0.0
H141 H 0.4188 0.28207 0.93745 0.0
H142 H 0.40859 0.25418 0.91999 0.0
C143 C 0.78081 0.2423 0.97903 0.0
N144 N 0.76745 0.21953 0.96721 0.0
N145 N 0.80903 0.26456 0.9696 0.0
C146 C 0.76755 0.24175 1.00054 0.0
C147 C 0.81216 0.25447 0.95153 0.0
N148 N 0.78714 0.22719 0.95014 0.0
C149 C 0.83929 0.27158 0.93489 0.0
H150 H 0.75158 0.25173 0.99867 0.0
H151 H 0.7869 0.25492 0.01053 0.0
H152 H 0.75351 0.2185 0.00866 0.0
H153 H 0.84944 0.29602 0.9347 0.0
H154 H 0.83153 0.26592 0.91893 0.0
H155 H 0.8582 0.26551 0.93845 0.0
C156 C 0.54521 0.76985 0.08053 0.0
N157 N 0.55753 0.79348 0.09158 0.0
N158 N 0.55495 0.74988 0.08776 0.0
C159 C 0.52411 0.76643 0.06248 0.0
C160 C 0.57386 0.76227 0.10341 0.0
N161 N 0.57569 0.78885 0.10561 0.0
C162 C 0.59103 0.74872 0.11639 0.0
H163 H 0.49917 0.75682 0.06899 0.0
H164 H 0.52493 0.75119 0.05196 0.0
H165 H 0.53113 0.78847 0.05305 0.0
H166 H 0.61625 0.75982 0.11014 0.0
H167 H 0.58062 0.72447 0.11573 0.0
H168 H 0.59062 0.75247 0.13312 0.0
C169 C 0.23744 0.78274 0.07795 0.0
N170 N 0.25061 0.80542 0.08987 0.0
N171 N 0.20845 0.76112 0.08671 0.0
C172 C 0.25221 0.78212 0.05732 0.0
C173 C 0.20449 0.77155 0.10436 0.0
N174 N 0.22995 0.79835 0.10628 0.0
C175 C 0.1751 0.75611 0.11932 0.0
H176 H 0.24599 0.79442 0.04436 0.0
H177 H 0.24316 0.75885 0.05406 0.0
H178 H 0.27847 0.79309 0.05724 0.0
H179 H 0.17785 0.74054 0.13166 0.0
H180 H 0.15365 0.74305 0.11083 0.0
H181 H 0.17149 0.7723 0.12731 0.0
C182 C 0.26182 0.52427 0.08063 0.0
N183 N 0.27605 0.51305 0.09426 0.0
N184 N 0.23674 0.52388 0.09051 0.0
C185 C 0.26901 0.53083 0.05703 0.0
C186 C 0.23673 0.51254 0.11079 0.0
N187 N 0.2606 0.5058 0.11311 0.0
C188 C 0.21004 0.5031 0.12734 0.0
H189 H 0.26232 0.54767 0.05002 0.0
H190 H 0.25492 0.50996 0.05004 0.0
H191 H 0.29463 0.53904 0.05302 0.0
H192 H 0.19527 0.47839 0.12948 0.0
H193 H 0.19481 0.51331 0.12273 0.0
H194 H 0.21984 0.50975 0.14272 0.0
C195 C 0.41355 0.83003 0.30635 0.0
N196 N 0.43869 0.84084 0.29215 0.0
N197 N 0.38886 0.83146 0.29731 0.0
C198 C 0.41477 0.82269 0.32977 0.0
C199 C 0.39985 0.84322 0.27695 0.0
N200 N 0.43021 0.84892 0.27377 0.0
C201 C 0.38292 0.85391 0.26127 0.0
H202 H 0.39076 0.80615 0.33707 0.0
H203 H 0.42321 0.84338 0.33718 0.0
H204 H 0.43151 0.81377 0.33295 0.0
H205 H 0.39502 0.8787 0.25912 0.0
H206 H 0.35761 0.84496 0.26669 0.0
H207 H 0.38408 0.84688 0.24569 0.0
C208 C 0.1275 0.57414 0.30428 0.0
N209 N 0.11732 0.55137 0.29247 0.0
N210 N 0.11618 0.59306 0.29746 0.0
C211 C 0.14724 0.57725 0.32311 0.0
C212 C 0.09864 0.5809 0.28117 0.0
N213 N 0.09917 0.55555 0.27822 0.0
C214 C 0.08073 0.59371 0.26824 0.0
H215 H 0.13125 0.56314 0.33722 0.0
H216 H 0.16011 0.60075 0.32627 0.0
H217 H 0.16493 0.56974 0.32086 0.0
H218 H 0.09683 0.60991 0.25484 0.0
H219 H 0.07259 0.60559 0.27793 0.0
H220 H 0.05982 0.57621 0.26159 0.0
C221 C 0.44603 0.57829 0.31022 0.0
N222 N 0.4325 0.55537 0.29855 0.0
N223 N 0.47362 0.60088 0.30025 0.0
C224 C 0.43223 0.57876 0.33124 0.0
C225 C 0.47622 0.59076 0.28208 0.0
N226 N 0.45129 0.5633 0.28099 0.0
C227 C 0.50415 0.60686 0.26594 0.0
H228 H 0.4389 0.60196 0.3336 0.0
H229 H 0.44188 0.56938 0.344 0.0
H230 H 0.40595 0.56497 0.33265 0.0
H231 H 0.52618 0.62131 0.2734 0.0
H232 H 0.49921 0.6211 0.25373 0.0
H233 H 0.50804 0.59077 0.25798 0.0
Gd234 Gd 0.52144 0.02686 0.05016 0.0
Gd235 Gd 0.49767 0.99243 1.00128 0.0
C236 C 0.40301 0.90772 0.99965 0.0
C237 C 0.42006 0.87104 0.99565 0.0
C238 C 0.45924 0.92283 0.99717 0.0
C239 C 0.43512 0.92991 0.99954 0.0
C240 C 0.45201 0.89347 0.99472 0.0
C241 C 0.39561 0.87814 0.99814 0.0
C242 C 0.37935 0.91606 1.00079 0.0
C243 C 0.38802 0.94603 1.00111 0.0
N244 N 0.44309 0.95874 1.00084 0.0
C245 C 0.42021 0.96727 1.00086 0.0
H246 H 0.42657 0.99032 1.00125 0.0
C247 C 0.51439 0.93999 0.99129 0.0
N248 N 0.48986 0.94504 0.99624 0.0
C249 C 0.50842 0.91119 0.98888 0.0
C250 C 0.47712 0.88774 0.99086 0.0
H251 H 0.53861 0.95808 0.98983 0.0
H252 H 0.37107 0.86074 0.99839 0.0
H253 H 0.59233 0.02825 0.04821 0.0
H254 H 0.3544 0.89966 1.00099 0.0
H255 H 0.36993 0.95279 1.00164 0.0
H256 H 0.41401 0.84828 0.99399 0.0
H257 H 0.48301 0.06005 0.06762 0.0
H258 H 0.6659 0.1177 0.05032 0.0
H259 H 0.64912 0.06475 0.04773 0.0
H260 H 0.60819 0.16911 0.0633 0.0
H261 H 0.52794 0.90709 0.98549 0.0
H262 H 0.47256 0.86547 0.98891 0.0
H263 H 0.65038 0.15669 0.05578 0.0
H264 H 0.49457 0.11006 0.07524 0.0
N265 N 0.57654 0.06012 0.05038 0.0
C266 C 0.64081 0.10172 0.05054 0.0
C267 C 0.63142 0.07186 0.04913 0.0
C268 C 0.61762 0.11036 0.05297 0.0
C269 C 0.58529 0.08868 0.05304 0.0
C270 C 0.59903 0.05116 0.04942 0.0
N271 N 0.53113 0.07362 0.05845 0.0
C272 C 0.56174 0.0957 0.05714 0.0
C273 C 0.5137 0.10641 0.07002 0.0
C274 C 0.54498 0.12987 0.06755 0.0
C275 C 0.50724 0.07814 0.06571 0.0
C276 C 0.56958 0.12454 0.06145 0.0
H277 H 0.54998 0.15171 0.07101 0.0
O278 O 0.49696 0.01431 0.08129 0.0
O279 O 0.48402 0.99068 0.03477 0.0
O280 O 0.48242 0.02789 1.00225 0.0
O281 O 0.51018 0.05791 0.02807 0.0
O282 O 0.4683 0.0092 0.05541 0.0
O283 O 0.53761 1.00761 0.07626 0.0
O284 O 0.5257 1.00594 0.9715 0.0
O285 O 0.53412 0.0302 0.01618 0.0
O286 O 0.53746 0.99201 0.04699 0.0
O287 O 0.50148 0.95949 0.02579 0.0
O288 O 0.55103 0.01062 0.99711 0.0
O289 O 0.47902 1.00297 0.97237 0.0
C290 C 0.45919 0.98887 0.04314 0.0
C291 C 0.60167 0.14671 0.06029 0.0
C292 C 0.62568 0.13964 0.05603 0.0
C293 C 0.51637 1.00584 0.08989 0.0
C294 C 0.52737 0.01531 0.11041 0.0
C295 C 0.54328 0.0455 0.11321 0.0
C296 C 0.52069 0.99324 0.12767 0.0
C297 C 0.52841 1.0008 0.14813 0.0
C298 C 0.55186 0.05339 0.13333 0.0
C299 C 0.54427 0.03126 0.15074 0.0
C300 C 0.49218 0.0522 0.01163 0.0
C301 C 0.55924 0.03222 0.00818 0.0
C302 C 0.50368 1.00771 0.96055 0.0
C303 C 0.49772 0.99401 0.94105 0.0
C304 C 0.47846 0.96317 0.94127 0.0
C305 C 0.51345 0.01215 0.92205 0.0
C306 C 0.51053 0.99975 0.90317 0.0
C307 C 0.47537 0.95059 0.92265 0.0
C308 C 0.49136 0.96867 0.90372 0.0
C309 C 0.52217 0.96539 0.04048 0.0
H310 H 0.54876 0.06282 0.09997 0.0
H311 H 0.50913 0.97006 0.12503 0.0
H312 H 0.56392 0.07672 0.13553 0.0
H313 H 0.55017 0.03808 0.16624 0.0
H314 H 0.46608 0.94886 0.95577 0.0
H315 H 0.52777 0.03605 0.92203 0.0
H316 H 0.46066 0.92672 0.92291 0.0
H317 H 0.48886 0.95827 0.88957 0.0
Gd318 Gd 0.98519 0.50477 0.05071 0.0
Gd319 Gd 0.02794 0.52895 0.99697 0.0
C320 C 0.1223 0.52865 0.98765 0.0
C321 C 0.15927 0.58133 0.97684 0.0
C322 C 0.10301 0.5644 0.98414 0.0
C323 C 0.09724 0.53542 0.98909 0.0
C324 C 0.13388 0.58761 0.97726 0.0
C325 C 0.15349 0.55187 0.98209 0.0
C326 C 0.11509 0.49869 0.99114 0.0
C327 C 0.08342 0.47637 0.99503 0.0
N328 N 0.06675 0.5136 0.99408 0.0
C329 C 0.05938 0.48424 0.99614 0.0
H330 H 0.03512 0.46665 0.99932 0.0
C331 C 0.08138 0.59675 0.9763 0.0
N332 N 0.07789 0.56951 0.98448 0.0
C333 C 0.11154 0.62058 0.96937 0.0
C334 C 0.13802 0.61612 0.97022 0.0
H335 H 0.06095 0.60029 0.97578 0.0
H336 H 0.17311 0.54716 0.98113 0.0
H337 H 0.97925 0.56728 0.04948 0.0
H338 H 0.13365 0.49254 0.99025 0.0
H339 H 0.07747 0.45308 0.99728 0.0
H340 H 0.18324 0.5989 0.97186 0.0
H341 H 0.95005 0.43169 0.06852 0.0
H342 H 0.88047 0.5423 0.05515 0.0
H343 H 0.93704 0.58143 0.05064 0.0
H344 H 0.8288 0.43535 0.0691 0.0
H345 H 0.11433 0.64234 0.96345 0.0
H346 H 0.16134 0.63456 0.96477 0.0
H347 H 0.84015 0.48765 0.06168 0.0
H348 H 0.8955 0.38957 0.0778 0.0
N349 N 0.94694 0.52058 0.05289 0.0
C350 C 0.89891 0.53594 0.05469 0.0
C351 C 0.93082 0.55809 0.0522 0.0
C352 C 0.89123 0.50583 0.05724 0.0
C353 C 0.91614 0.49878 0.05642 0.0
C354 C 0.9547 0.54996 0.0516 0.0
N355 N 0.93447 0.46367 0.06049 0.0
C356 C 0.90969 0.46938 0.06036 0.0
C357 C 0.89914 0.41187 0.07278 0.0
C358 C 0.87314 0.41704 0.07142 0.0
C359 C 0.92991 0.43568 0.06759 0.0
C360 C 0.87825 0.44616 0.06555 0.0
H361 H 0.84933 0.39859 0.07554 0.0
O362 O 0.99751 0.48747 0.07986 0.0
O363 O 0.02708 0.5135 0.03089 0.0
O364 O 0.99308 0.47846 1.00287 0.0
O365 O 0.956 0.46958 0.03041 0.0
O366 O 0.00892 0.4759 0.05321 0.0
O367 O 0.99284 0.52734 0.07859 0.0
O368 O 0.01501 0.54504 0.96752 0.0
O369 O 0.98675 0.52146 0.01697 0.0
O370 O 0.02212 0.55454 0.04633 0.0
O371 O 0.05638 0.56646 0.01603 0.0
O372 O 0.00523 0.55864 0.99451 0.0
O373 O 0.01393 0.5023 0.97116 0.0
C374 C 0.03163 0.49249 0.03889 0.0
C375 C 0.85317 0.45291 0.06541 0.0
C376 C 0.85964 0.48269 0.06121 0.0
C377 C 0.99768 0.5076 0.09047 0.0
C378 C 0.98084 0.49632 0.11165 0.0
C379 C 0.94766 0.47875 0.1138 0.0
C380 C 0.99817 0.50207 0.1299 0.0
C381 C 0.98245 0.48988 0.1503 0.0
C382 C 0.93195 0.4663 0.13378 0.0
C383 C 0.94911 0.47152 0.15185 0.0
C384 C 0.9652 0.46159 0.01391 0.0
C385 C 0.98262 0.54277 0.00899 0.0
C386 C 0.01075 0.52229 0.95838 0.0
C387 C 0.02536 0.52918 0.93677 0.0
C388 C 0.05836 0.54169 0.93308 0.0
C389 C 0.00593 0.52298 0.91962 0.0
C390 C 0.01922 0.52885 0.89873 0.0
C391 C 0.07181 0.54794 0.91246 0.0
C392 C 0.05247 0.54151 0.8954 0.0
C393 C 0.04836 0.57281 0.03391 0.0
H394 H 0.93387 0.47439 0.10007 0.0
H395 H 0.02376 0.51623 0.12812 0.0
H396 H 0.90634 0.45236 0.13526 0.0
H397 H 0.9361 0.4609 0.16705 0.0
H398 H 0.07367 0.54645 0.94609 0.0
H399 H 0.98047 0.51362 0.92263 0.0
H400 H 0.09731 0.55747 0.90971 0.0
H401 H 0.06355 0.54584 0.87965 0.0
Gd402 Gd 0.49166 0.51603 1.0007 0.0
Gd403 Gd 0.50197 0.48893 0.05606 0.0
C404 C 0.59687 0.49231 0.07041 0.0
C405 C 0.58097 0.4397 0.07976 0.0
C406 C 0.54148 0.45508 0.07049 0.0
C407 C 0.56492 0.48458 0.06716 0.0
C408 C 0.54902 0.43234 0.07755 0.0
C409 C 0.60489 0.46966 0.07614 0.0
C410 C 0.61959 0.52257 0.06852 0.0
C411 C 0.60997 0.54418 0.06433 0.0
N412 N 0.55617 0.50582 0.06194 0.0
C413 C 0.57794 0.53537 0.06136 0.0
H414 H 0.57109 0.55244 0.05798 0.0
C415 C 0.48645 0.42086 0.07518 0.0
N416 N 0.51092 0.4489 0.0685 0.0
C417 C 0.49265 0.39747 0.08219 0.0
C418 C 0.52411 0.40312 0.08301 0.0
H419 H 0.46209 0.41645 0.07442 0.0
H420 H 0.62935 0.47513 0.07848 0.0
H421 H 0.42084 0.4544 1.00002 0.0
H422 H 0.64439 0.52946 0.07084 0.0
H423 H 0.62722 0.56766 0.06329 0.0
H424 H 0.58732 0.42251 0.0849 0.0
H425 H 0.5336 0.58797 0.98071 0.0
H426 H 0.34954 0.48108 0.99086 0.0
H427 H 0.36459 0.44124 0.99692 0.0
H428 H 0.41055 0.58783 0.97584 0.0
H429 H 0.47319 0.37512 0.0869 0.0
H430 H 0.52889 0.38501 0.08853 0.0
H431 H 0.36689 0.53599 0.98341 0.0
H432 H 0.52435 0.63072 0.96914 0.0
N433 N 0.43757 0.50127 0.99642 0.0
C434 C 0.37431 0.48701 0.99226 0.0
C435 C 0.38272 0.46446 0.9956 0.0
C436 C 0.39811 0.51694 0.98991 0.0
C437 C 0.42995 0.5234 0.99196 0.0
C438 C 0.41471 0.47204 0.99731 0.0
N439 N 0.48466 0.55739 0.98879 0.0
C440 C 0.45434 0.55248 0.988 0.0
C441 C 0.50444 0.60889 0.97459 0.0
C442 C 0.47343 0.60466 0.97518 0.0
C443 C 0.50961 0.58472 0.9811 0.0
C444 C 0.44783 0.57603 0.98147 0.0
H445 H 0.46945 0.62336 0.97001 0.0
O446 O 0.52472 0.53229 0.97283 0.0
O447 O 0.52159 0.50621 0.0229 0.0
O448 O 0.51698 0.53866 0.05178 0.0
O449 O 0.50077 0.55307 0.01969 0.0
O450 O 0.5449 0.54423 1.00109 0.0
O451 O 0.47891 0.49317 0.9728 0.0
O452 O 0.46992 0.46943 0.08454 0.0
O453 O 0.47179 0.49835 0.03391 0.0
O454 O 0.47596 0.46626 1.00513 0.0
O455 O 0.49511 0.45302 0.03626 0.0
O456 O 0.44898 0.45991 0.05517 0.0
O457 O 0.51015 0.51381 0.08264 0.0
C458 C 0.54858 0.52737 0.01625 0.0
C459 C 0.41609 0.56999 0.98054 0.0
C460 C 0.39124 0.54047 0.98482 0.0
C461 C 0.50522 0.51228 0.96172 0.0
C462 C 0.50216 0.52349 0.93988 0.0
C463 C 0.4874 0.54124 0.93646 0.0
C464 C 0.5145 0.51701 0.92232 0.0
C465 C 0.51234 0.52855 0.90143 0.0
C466 C 0.48583 0.55326 0.91604 0.0
C467 C 0.49838 0.54724 0.89871 0.0
C468 C 0.51254 0.55808 0.03845 0.0
C469 C 0.44479 0.47712 0.04058 0.0
C470 C 0.48632 0.49216 0.09456 0.0
C471 C 0.49299 0.48533 0.1165 0.0
C472 C 0.51309 0.47291 0.12052 0.0
C473 C 0.4797 0.49174 0.13356 0.0
C474 C 0.48644 0.48572 0.1546 0.0
C475 C 0.51984 0.46684 0.1412 0.0
C476 C 0.50676 0.47322 0.15809 0.0
C477 C 0.48251 0.44765 0.01771 0.0
H478 H 0.47718 0.54597 0.94956 0.0
H479 H 0.52524 0.50271 0.92496 0.0
H480 H 0.47484 0.56736 0.91362 0.0
H481 H 0.49717 0.55744 0.88312 0.0
H482 H 0.52377 0.46811 0.10769 0.0
H483 H 0.46406 0.50124 0.1304 0.0
H484 H 0.53555 0.45741 0.14414 0.0
H485 H 0.51317 0.4689 0.17389 0.0
Gd486 Gd 0.19161 0.36129 0.38517 0.0
Gd487 Gd 0.16486 0.32746 0.33639 0.0
C488 C 0.07106 0.24133 0.33456 0.0
C489 C 0.08928 0.2077 0.3245 0.0
C490 C 0.1274 0.25914 0.32808 0.0
C491 C 0.10296 0.26423 0.33385 0.0
C492 C 0.12084 0.23107 0.32275 0.0
C493 C 0.06441 0.21282 0.33043 0.0
C494 C 0.04681 0.24807 0.33867 0.0
C495 C 0.05465 0.27732 0.34104 0.0
N496 N 0.11029 0.29214 0.33743 0.0
C497 C 0.08665 0.2993 0.34001 0.0
H498 H 0.09222 0.32174 0.34194 0.0
C499 C 0.18187 0.27972 0.31757 0.0
N500 N 0.15749 0.28229 0.32632 0.0
C501 C 0.17666 0.25229 0.31219 0.0
C502 C 0.14608 0.2277 0.31511 0.0
H503 H 0.20556 0.29864 0.31526 0.0
H504 H 0.04008 0.19486 0.33113 0.0
H505 H 0.26192 0.36193 0.38356 0.0
H506 H 0.02201 0.2311 0.33942 0.0
H507 H 0.03607 0.28296 0.34372 0.0
H508 H 0.08377 0.18588 0.3207 0.0
H509 H 0.15311 0.39688 0.39871 0.0
H510 H 0.33605 0.45208 0.38251 0.0
H511 H 0.31896 0.39856 0.38218 0.0
H512 H 0.27916 0.50552 0.39137 0.0
H513 H 0.19622 0.25014 0.30578 0.0
H514 H 0.14206 0.20651 0.31082 0.0
H515 H 0.32096 0.49197 0.3856 0.0
H516 H 0.16539 0.44829 0.40319 0.0
N517 N 0.24661 0.39435 0.38429 0.0
C518 C 0.31091 0.43607 0.38318 0.0
C519 C 0.30136 0.40587 0.38305 0.0
C520 C 0.28788 0.4451 0.38485 0.0
C521 C 0.25549 0.42336 0.38561 0.0
C522 C 0.26892 0.38514 0.38386 0.0
N523 N 0.20127 0.40906 0.39086 0.0
C524 C 0.23206 0.43098 0.38894 0.0
C525 C 0.18435 0.44375 0.39911 0.0
C526 C 0.21583 0.46686 0.39626 0.0
C527 C 0.17749 0.41471 0.39666 0.0
C528 C 0.24022 0.46055 0.39146 0.0
H529 H 0.2211 0.48931 0.39828 0.0
O530 O 0.17195 0.35469 0.41726 0.0
O531 O 0.15361 0.324 0.37083 0.0
O532 O 0.14694 0.36011 0.34158 0.0
O533 O 0.1847 0.39356 0.36138 0.0
O534 O 0.13856 0.34242 0.39209 0.0
O535 O 0.20859 0.34272 0.41106 0.0
O536 O 0.19128 0.34705 0.30591 0.0
O537 O 0.20285 0.36406 0.35125 0.0
O538 O 0.20594 0.32533 0.38238 0.0
O539 O 0.17636 0.29566 0.35688 0.0
O540 O 0.21808 0.34581 0.3301 0.0
O541 O 0.14349 0.34066 0.31015 0.0
C542 C 0.12914 0.32152 0.38029 0.0
C543 C 0.2724 0.4826 0.38969 0.0
C544 C 0.2962 0.47489 0.38639 0.0
C545 C 0.19087 0.34514 0.42537 0.0
C546 C 0.2067 0.35754 0.44418 0.0
C547 C 0.22948 0.38774 0.44325 0.0
C548 C 0.19922 0.33843 0.46332 0.0
C549 C 0.21426 0.34924 0.48167 0.0
C550 C 0.24461 0.39869 0.46138 0.0
C551 C 0.23706 0.37961 0.48052 0.0
C552 C 0.16234 0.38688 0.34773 0.0
C553 C 0.22747 0.36624 0.34231 0.0
C554 C 0.16798 0.34903 0.29697 0.0
C555 C 0.16196 0.33997 0.27586 0.0
C556 C 0.13843 0.31143 0.27254 0.0
C557 C 0.18091 0.36073 0.25867 0.0
C558 C 0.17603 0.35385 0.23789 0.0
C559 C 0.1337 0.30408 0.25198 0.0
C560 C 0.15221 0.32514 0.23472 0.0
C561 C 0.19525 0.30108 0.37277 0.0
H562 H 0.23559 0.40278 0.42862 0.0
H563 H 0.18121 0.31519 0.46396 0.0
H564 H 0.26223 0.42202 0.4606 0.0
H565 H 0.24914 0.38855 0.49437 0.0
H566 H 0.12381 0.29499 0.28574 0.0
H567 H 0.19963 0.38237 0.26163 0.0
H568 H 0.11542 0.2821 0.24939 0.0
H569 H 0.1474 0.3191 0.21894 0.0
Gd570 Gd 0.65166 0.84004 0.38297 0.0
Gd571 Gd 0.69346 0.86556 0.32867 0.0
C572 C 0.78483 0.85988 0.32029 0.0
C573 C 0.82468 0.91219 0.3119 0.0
C574 C 0.76891 0.89807 0.31803 0.0
C575 C 0.76104 0.86832 0.32173 0.0
C576 C 0.80064 0.92029 0.31227 0.0
C577 C 0.81679 0.88202 0.31598 0.0
C578 C 0.77566 0.82944 0.32259 0.0
C579 C 0.7434 0.80834 0.32542 0.0
N580 N 0.7299 0.84754 0.32565 0.0
C581 C 0.72068 0.81783 0.32667 0.0
H582 H 0.69591 0.8012 0.32907 0.0
C583 C 0.75075 0.93323 0.31059 0.0
N584 N 0.74507 0.90504 0.3183 0.0
C585 C 0.78184 0.95611 0.30484 0.0
C586 C 0.80701 0.94974 0.3061 0.0
H587 H 0.73124 0.93814 0.30964 0.0
H588 H 0.83544 0.87599 0.31506 0.0
H589 H 0.65033 0.90521 0.38099 0.0
H590 H 0.7932 0.82202 0.32164 0.0
H591 H 0.73599 0.78475 0.32679 0.0
H592 H 0.84928 0.92897 0.3078 0.0
H593 H 0.61301 0.76824 0.40375 0.0
H594 H 0.55344 0.88595 0.38714 0.0
H595 H 0.61086 0.92256 0.38197 0.0
H596 H 0.49597 0.77921 0.4034 0.0
H597 H 0.78636 0.97861 0.29943 0.0
H598 H 0.83106 0.96745 0.30152 0.0
H599 H 0.51058 0.83227 0.39467 0.0
H600 H 0.55765 0.72851 0.41418 0.0
N601 N 0.61582 0.85898 0.38516 0.0
C602 C 0.57071 0.87814 0.38675 0.0
C603 C 0.6031 0.89886 0.38391 0.0
C604 C 0.56109 0.8476 0.38984 0.0
C605 C 0.58456 0.83864 0.38912 0.0
C606 C 0.62547 0.88885 0.38343 0.0
N607 N 0.59986 0.80158 0.39415 0.0
C608 C 0.57629 0.8089 0.39373 0.0
C609 C 0.5625 0.75098 0.40828 0.0
C610 C 0.53761 0.75771 0.40648 0.0
C611 C 0.59375 0.77347 0.40243 0.0
C612 C 0.54441 0.78713 0.39959 0.0
H613 H 0.51344 0.74032 0.41115 0.0
O614 O 0.66166 0.82045 0.41214 0.0
O615 O 0.69283 0.84892 0.36231 0.0
O616 O 0.65575 0.81589 0.33254 0.0
O617 O 0.62405 0.80199 0.36436 0.0
O618 O 0.67526 0.81117 0.38445 0.0
O619 O 0.6649 0.86402 0.41018 0.0
O620 O 0.68299 0.8848 0.29956 0.0
O621 O 0.65192 0.85621 0.34915 0.0
O622 O 0.68961 0.88928 0.37944 0.0
O623 O 0.72195 0.90267 0.34805 0.0
O624 O 0.66977 0.89427 0.3273 0.0
O625 O 0.68207 0.84227 0.30102 0.0
C626 C 0.69751 0.82781 0.36988 0.0
C627 C 0.52067 0.79565 0.39923 0.0
C628 C 0.52899 0.82586 0.3943 0.0
C629 C 0.66657 0.84257 0.42225 0.0
C630 C 0.65136 0.83458 0.44378 0.0
C631 C 0.61866 0.82421 0.44709 0.0
C632 C 0.66993 0.83748 0.46126 0.0
C633 C 0.65606 0.83031 0.48211 0.0
C634 C 0.60463 0.8168 0.46763 0.0
C635 C 0.62311 0.81987 0.48502 0.0
C636 C 0.63105 0.7965 0.34585 0.0
C637 C 0.64709 0.87725 0.34153 0.0
C638 C 0.67991 0.86352 0.28906 0.0
C639 C 0.69667 0.87304 0.26788 0.0
C640 C 0.72984 0.89088 0.26544 0.0
C641 C 0.67938 0.86446 0.24986 0.0
C642 C 0.69514 0.87393 0.22945 0.0
C643 C 0.74553 0.90081 0.24537 0.0
C644 C 0.72839 0.89261 0.22749 0.0
C645 C 0.71498 0.90818 0.36657 0.0
H646 H 0.60404 0.822 0.43383 0.0
H647 H 0.69516 0.84522 0.45855 0.0
H648 H 0.57937 0.80893 0.4701 0.0
H649 H 0.61163 0.81468 0.50073 0.0
H650 H 0.74369 0.89725 0.27898 0.0
H651 H 0.65382 0.85002 0.25182 0.0
H652 H 0.77112 0.91491 0.24365 0.0
H653 H 0.74128 0.901 0.2121 0.0
Gd654 Gd 0.1579 0.84732 0.33532 0.0
Gd655 Gd 0.16753 0.81981 0.39049 0.0
C656 C 0.25562 0.81098 0.40622 0.0
C657 C 0.23307 0.75732 0.41601 0.0
C658 C 0.19885 0.77869 0.40575 0.0
C659 C 0.22493 0.80692 0.40251 0.0
C660 C 0.20243 0.75364 0.41322 0.0
C661 C 0.25965 0.78595 0.41245 0.0
C662 C 0.28115 0.84011 0.40423 0.0
C663 C 0.27549 0.86427 0.39951 0.0
N664 N 0.22005 0.83057 0.39687 0.0
C665 C 0.24454 0.85907 0.3962 0.0
H666 H 0.24056 0.87796 0.3925 0.0
C667 C 0.14279 0.74941 0.40929 0.0
N668 N 0.16965 0.77604 0.40309 0.0
C669 C 0.14508 0.7239 0.41683 0.0
C670 C 0.17505 0.72591 0.41844 0.0
H671 H 0.11958 0.74775 0.40798 0.0
H672 H 0.28307 0.78859 0.41518 0.0
H673 H 0.08577 0.78812 0.3332 0.0
H674 H 0.30512 0.8442 0.40687 0.0
H675 H 0.29495 0.88691 0.39838 0.0
H676 H 0.23637 0.73831 0.4215 0.0
H677 H 0.20401 0.92046 0.31958 0.0
H678 H 0.0187 0.81973 0.322 0.0
H679 H 0.03061 0.77788 0.32857 0.0
H680 H 0.08452 0.92623 0.31002 0.0
H681 H 0.12376 0.70271 0.42131 0.0
H682 H 0.17677 0.70613 0.42431 0.0
H683 H 0.03901 0.87521 0.31537 0.0
H684 H 0.19777 0.96515 0.30902 0.0
N685 N 0.1049 0.83531 0.32981 0.0
C686 C 0.04299 0.82437 0.32403 0.0
C687 C 0.04963 0.8007 0.32768 0.0
C688 C 0.06791 0.85379 0.32239 0.0
C689 C 0.09905 0.85858 0.32525 0.0
C690 C 0.08097 0.80661 0.33026 0.0
N691 N 0.15422 0.89075 0.32437 0.0
C692 C 0.12454 0.88724 0.32242 0.0
C693 C 0.17697 0.94339 0.31288 0.0
C694 C 0.1465 0.94038 0.31198 0.0
C695 C 0.18045 0.91812 0.3188 0.0
C696 C 0.1198 0.91198 0.31641 0.0
H697 H 0.14387 0.95997 0.30731 0.0
O698 O 0.19125 0.86314 0.30769 0.0
O699 O 0.18749 0.83676 0.35736 0.0
O700 O 0.1878 0.87067 0.38481 0.0
O701 O 0.1635 0.8817 0.35584 0.0
O702 O 0.21131 0.8747 0.33568 0.0
O703 O 0.14453 0.82524 0.30706 0.0
O704 O 0.13472 0.80539 0.41832 0.0
O705 O 0.13769 0.82978 0.36835 0.0
O706 O 0.13973 0.79697 0.3402 0.0
O707 O 0.16116 0.78444 0.37036 0.0
O708 O 0.11416 0.79212 0.39007 0.0
O709 O 0.18073 0.84464 0.41744 0.0
C710 C 0.21471 0.85749 0.35069 0.0
C711 C 0.08871 0.90748 0.31441 0.0
C712 C 0.0628 0.87842 0.31744 0.0
C713 C 0.17133 0.84388 0.29627 0.0
C714 C 0.16933 0.8561 0.27446 0.0
C715 C 0.15726 0.87607 0.27117 0.0
C716 C 0.18058 0.84875 0.25683 0.0
C717 C 0.18008 0.86164 0.23599 0.0
C718 C 0.15713 0.88923 0.25081 0.0
C719 C 0.16865 0.88237 0.23342 0.0
C720 C 0.17909 0.88847 0.37317 0.0
C721 C 0.11044 0.80904 0.37501 0.0
C722 C 0.15455 0.82608 0.42887 0.0
C723 C 0.15809 0.81602 0.45092 0.0
C724 C 0.16892 0.79516 0.455 0.0
C725 C 0.15055 0.82705 0.46806 0.0
C726 C 0.154 0.81725 0.48911 0.0
C727 C 0.17179 0.78498 0.47568 0.0
C728 C 0.16433 0.7958 0.49259 0.0
C729 C 0.14736 0.77862 0.35221 0.0
H730 H 0.14821 0.88177 0.28433 0.0
H731 H 0.18935 0.83287 0.25941 0.0
H732 H 0.14821 0.90501 0.2485 0.0
H733 H 0.16881 0.89365 0.21793 0.0
H734 H 0.1751 0.7866 0.44223 0.0
H735 H 0.14264 0.84353 0.46498 0.0
H736 H 0.17989 0.76865 0.47861 0.0
H737 H 0.16659 0.78723 0.50849 0.0
Gd738 Gd 0.85889 0.69495 0.71783 0.0
Gd739 Gd 0.83449 0.66197 0.66841 0.0
C740 C 0.73785 0.57942 0.66519 0.0
C741 C 0.75323 0.54308 0.65685 0.0
C742 C 0.79362 0.5937 0.66058 0.0
C743 C 0.77027 0.60086 0.66515 0.0
C744 C 0.78542 0.56501 0.65575 0.0
C745 C 0.72947 0.55027 0.6616 0.0
C746 C 0.71487 0.58819 0.6681 0.0
C747 C 0.72452 0.61798 0.66999 0.0
N748 N 0.77928 0.62935 0.66823 0.0
C749 C 0.75698 0.63847 0.66966 0.0
H750 H 0.76389 0.66132 0.67125 0.0
C751 C 0.84799 0.61099 0.65166 0.0
N752 N 0.82437 0.61549 0.65942 0.0
C753 C 0.84115 0.58286 0.6468 0.0
C754 C 0.80976 0.5596 0.64919 0.0
H755 H 0.8723 0.62894 0.64981 0.0
H756 H 0.7047 0.5334 0.66181 0.0
H757 H 0.92855 0.69408 0.71543 0.0
H758 H 0.68973 0.57239 0.66832 0.0
H759 H 0.70698 0.62518 0.67177 0.0
H760 H 0.74645 0.52079 0.65343 0.0
H761 H 0.8225 0.72981 0.73563 0.0
H762 H 0.00422 0.78277 0.71709 0.0
H763 H 0.98579 0.72948 0.71463 0.0
H764 H 0.94954 0.83683 0.73035 0.0
H765 H 0.86006 0.57916 0.64121 0.0
H766 H 0.80446 0.53787 0.6453 0.0
H767 H 0.99045 0.82288 0.7226 0.0
H768 H 0.83586 0.78041 0.74306 0.0
N769 N 0.91426 0.72697 0.71768 0.0
C770 C 0.97896 0.76729 0.71745 0.0
C771 C 0.96864 0.73723 0.71613 0.0
C772 C 0.9565 0.77679 0.72 0.0
C773 C 0.9239 0.75574 0.72027 0.0
C774 C 0.93603 0.71717 0.71661 0.0
N775 N 0.87011 0.74217 0.72599 0.0
C776 C 0.90104 0.76363 0.72449 0.0
C777 C 0.85442 0.77607 0.73769 0.0
C778 C 0.88601 0.79894 0.73498 0.0
C779 C 0.84694 0.7475 0.73348 0.0
C780 C 0.90989 0.79273 0.72873 0.0
H781 H 0.89181 0.82101 0.73839 0.0
O782 O 0.83449 0.68317 0.74894 0.0
O783 O 0.82152 0.65844 0.70247 0.0
O784 O 0.81917 0.69696 0.67097 0.0
O785 O 0.84834 0.72688 0.69632 0.0
O786 O 0.80599 0.67753 0.723 0.0
O787 O 0.87531 0.67655 0.74428 0.0
O788 O 0.86208 0.67724 0.63826 0.0
O789 O 0.87163 0.69879 0.68378 0.0
O790 O 0.87274 0.65871 0.71536 0.0
O791 O 0.84334 0.62913 0.68989 0.0
O792 O 0.88744 0.67899 0.66407 0.0
O793 O 0.81732 0.67781 0.64104 0.0
C794 C 0.79687 0.65682 0.71105 0.0
C795 C 0.94225 0.81425 0.72738 0.0
C796 C 0.96554 0.8063 0.723 0.0
C797 C 0.85399 0.67497 0.75776 0.0
C798 C 0.86485 0.68477 0.77822 0.0
C799 C 0.88111 0.71506 0.78074 0.0
C800 C 0.85771 0.66293 0.79571 0.0
C801 C 0.86537 0.67083 0.81609 0.0
C802 C 0.88959 0.72328 0.80081 0.0
C803 C 0.88158 0.70138 0.81842 0.0
C804 C 0.82967 0.7213 0.68031 0.0
C805 C 0.89637 0.70022 0.67557 0.0
C806 C 0.84126 0.68262 0.6285 0.0
C807 C 0.83431 0.67323 0.60755 0.0
C808 C 0.81048 0.64462 0.60464 0.0
C809 C 0.85228 0.6939 0.59005 0.0
C810 C 0.84609 0.68684 0.56938 0.0
C811 C 0.80456 0.63705 0.58419 0.0
C812 C 0.82207 0.65802 0.56662 0.0
C813 C 0.86167 0.63424 0.70605 0.0
H814 H 0.88695 0.73222 0.76734 0.0
H815 H 0.84587 0.63965 0.79331 0.0
H816 H 0.90193 0.74668 0.80278 0.0
H817 H 0.88746 0.70845 0.83386 0.0
H818 H 0.79651 0.62833 0.61808 0.0
H819 H 0.87116 0.71565 0.59267 0.0
H820 H 0.78605 0.615 0.58192 0.0
H821 H 0.81631 0.65185 0.55095 0.0
Gd822 Gd 0.31615 0.17704 0.71681 0.0
Gd823 Gd 0.35952 0.19894 0.66361 0.0
C824 C 0.45343 0.19792 0.65473 0.0
C825 C 0.49106 0.25071 0.64513 0.0
C826 C 0.43475 0.23416 0.65171 0.0
C827 C 0.42855 0.20493 0.65612 0.0
C828 C 0.46594 0.25736 0.64567 0.0
C829 C 0.48481 0.22103 0.64968 0.0
C830 C 0.44591 0.16787 0.65794 0.0
C831 C 0.41414 0.14571 0.66168 0.0
N832 N 0.39793 0.18322 0.66083 0.0
C833 C 0.39029 0.1538 0.66282 0.0
H834 H 0.36593 0.13637 0.6659 0.0
C835 C 0.41418 0.26764 0.64538 0.0
N836 N 0.40992 0.2397 0.65223 0.0
C837 C 0.4447 0.29145 0.63938 0.0
C838 C 0.47078 0.28637 0.63978 0.0
H839 H 0.39408 0.27167 0.64519 0.0
H840 H 0.50429 0.21611 0.64875 0.0
H841 H 0.30758 0.23833 0.71338 0.0
H842 H 0.46433 0.16154 0.65708 0.0
H843 H 0.40799 0.12237 0.66381 0.0
H844 H 0.51525 0.26825 0.64073 0.0
H845 H 0.28337 0.10462 0.73623 0.0
H846 H 0.20811 0.21054 0.71945 0.0
H847 H 0.26409 0.25086 0.71376 0.0
H848 H 0.15992 0.10407 0.73672 0.0
H849 H 0.44808 0.31368 0.63446 0.0
H850 H 0.49438 0.30482 0.63504 0.0
H851 H 0.16932 0.15561 0.72775 0.0
H852 H 0.22968 0.06169 0.74648 0.0
N853 N 0.27657 0.19134 0.71823 0.0
C854 C 0.22712 0.20489 0.71928 0.0
C855 C 0.25869 0.22771 0.71613 0.0
C856 C 0.22052 0.17509 0.72286 0.0
C857 C 0.24613 0.16898 0.72237 0.0
C858 C 0.2833 0.22051 0.71595 0.0
N859 N 0.26624 0.13528 0.72755 0.0
C860 C 0.24078 0.14 0.72722 0.0
C861 C 0.23245 0.08356 0.74096 0.0
C862 C 0.20578 0.0877 0.73954 0.0
C863 C 0.26276 0.10785 0.73521 0.0
C864 C 0.20977 0.11629 0.73296 0.0
H865 H 0.18233 0.06888 0.74409 0.0
O866 O 0.33076 0.16297 0.74627 0.0
O867 O 0.35786 0.18404 0.69762 0.0
O868 O 0.3241 0.14865 0.67011 0.0
O869 O 0.28673 0.14109 0.69707 0.0
O870 O 0.33928 0.14756 0.72078 0.0
O871 O 0.32288 0.20112 0.74382 0.0
O872 O 0.34882 0.21567 0.63353 0.0
O873 O 0.31803 0.19262 0.68275 0.0
O874 O 0.35182 0.22728 0.71062 0.0
O875 O 0.38909 0.23438 0.68369 0.0
O876 O 0.33782 0.22947 0.66004 0.0
O877 O 0.34536 0.17183 0.63808 0.0
C878 C 0.36189 0.16297 0.70621 0.0
C879 C 0.18398 0.12204 0.73259 0.0
C880 C 0.18934 0.15139 0.7275 0.0
C881 C 0.32944 0.18298 0.75623 0.0
C882 C 0.31291 0.17187 0.77751 0.0
C883 C 0.27967 0.1549 0.77988 0.0
C884 C 0.33057 0.17687 0.79561 0.0
C885 C 0.31517 0.16451 0.81608 0.0
C886 C 0.26424 0.14234 0.79992 0.0
C887 C 0.28174 0.1468 0.81785 0.0
C888 C 0.29597 0.1324 0.68097 0.0
C889 C 0.3146 0.2141 0.67419 0.0
C890 C 0.34361 0.19228 0.62483 0.0
C891 C 0.35849 0.1981 0.60344 0.0
C892 C 0.39146 0.21001 0.60007 0.0
C893 C 0.33932 0.19148 0.58616 0.0
C894 C 0.35282 0.19635 0.56546 0.0
C895 C 0.40512 0.2152 0.57964 0.0
C896 C 0.38603 0.20836 0.56245 0.0
C897 C 0.38008 0.2432 0.69985 0.0
H898 H 0.26565 0.15107 0.76625 0.0
H899 H 0.35622 0.19055 0.79363 0.0
H900 H 0.23857 0.12886 0.80158 0.0
H901 H 0.26891 0.13605 0.83308 0.0
H902 H 0.40655 0.21518 0.6132 0.0
H903 H 0.31389 0.18264 0.58892 0.0
H904 H 0.43059 0.22427 0.57712 0.0
H905 H 0.39726 0.21192 0.54687 0.0
Gd906 Gd 0.81957 0.17766 0.66903 0.0
Gd907 Gd 0.83342 0.15278 0.72384 0.0
C908 C 0.92808 0.15519 0.73686 0.0
C909 C 0.91201 0.10237 0.74494 0.0
C910 C 0.87256 0.11821 0.73688 0.0
C911 C 0.89612 0.14772 0.73393 0.0
C912 C 0.88007 0.09519 0.74293 0.0
C913 C 0.93599 0.13232 0.74189 0.0
C914 C 0.95095 0.18538 0.73524 0.0
C915 C 0.94152 0.20718 0.73152 0.0
N916 N 0.88756 0.1692 0.72923 0.0
C917 C 0.9095 0.19865 0.72879 0.0
H918 H 0.90271 0.21581 0.72577 0.0
C919 C 0.81748 0.08375 0.74053 0.0
N920 N 0.842 0.11216 0.73504 0.0
C921 C 0.8237 0.0601 0.74644 0.0
C922 C 0.85516 0.06578 0.74739 0.0
H923 H 0.79313 0.07931 0.73965 0.0
H924 H 0.96045 0.1376 0.744 0.0
H925 H 0.74692 0.11778 0.67008 0.0
H926 H 0.97576 0.19206 0.73734 0.0
H927 H 0.95892 0.23059 0.73064 0.0
H928 H 0.91832 0.08498 0.74937 0.0
H929 H 0.86389 0.24868 0.64759 0.0
H930 H 0.67873 0.14833 0.66075 0.0
H931 H 0.69125 0.10689 0.66763 0.0
H932 H 0.74391 0.25434 0.64283 0.0
H933 H 0.80425 0.03752 0.75026 0.0
H934 H 0.85994 0.04745 0.75207 0.0
H935 H 0.69862 0.20358 0.65184 0.0
H936 H 0.85695 0.29244 0.63492 0.0
N937 N 0.76585 0.16499 0.66547 0.0
C938 C 0.70324 0.15326 0.66191 0.0
C939 C 0.71023 0.12982 0.66571 0.0
C940 C 0.72811 0.18276 0.65876 0.0
C941 C 0.75958 0.18792 0.66054 0.0
C942 C 0.74189 0.13611 0.66707 0.0
N943 N 0.81471 0.21997 0.65634 0.0
C944 C 0.78489 0.2164 0.65575 0.0
C945 C 0.83649 0.27124 0.64092 0.0
C946 C 0.80608 0.26846 0.64161 0.0
C947 C 0.84035 0.24648 0.64807 0.0
C948 C 0.77971 0.24062 0.64867 0.0
H949 H 0.80312 0.28763 0.63598 0.0
O950 O 0.85167 0.19034 0.64101 0.0
O951 O 0.85135 0.16949 0.69046 0.0
O952 O 0.84856 0.2025 0.71879 0.0
O953 O 0.82849 0.21497 0.68779 0.0
O954 O 0.87305 0.2066 0.66788 0.0
O955 O 0.80402 0.1537 0.64172 0.0
O956 O 0.80356 0.13319 0.75327 0.0
O957 O 0.80135 0.16094 0.70269 0.0
O958 O 0.8013 0.12731 0.67537 0.0
O959 O 0.82924 0.11899 0.70304 0.0
O960 O 0.78035 0.12293 0.72449 0.0
O961 O 0.84258 0.1785 0.74997 0.0
C962 C 0.87792 0.19078 0.68319 0.0
C963 C 0.74841 0.23595 0.64797 0.0
C964 C 0.72263 0.20705 0.65308 0.0
C965 C 0.83058 0.17091 0.63028 0.0
C966 C 0.82807 0.1825 0.60839 0.0
C967 C 0.81366 0.20054 0.60496 0.0
C968 C 0.84099 0.17649 0.59084 0.0
C969 C 0.83982 0.18886 0.56997 0.0
C970 C 0.81308 0.21339 0.5846 0.0
C971 C 0.82628 0.20793 0.56731 0.0
C972 C 0.84205 0.22095 0.70597 0.0
C973 C 0.77489 0.13943 0.71007 0.0
C974 C 0.82001 0.15663 0.76264 0.0
C975 C 0.8287 0.15122 0.78424 0.0
C976 C 0.85069 0.14085 0.78756 0.0
C977 C 0.81568 0.15726 0.80164 0.0
C978 C 0.82477 0.15315 0.82233 0.0
C979 C 0.8598 0.1367 0.80787 0.0
C980 C 0.84716 0.14291 0.82509 0.0
C981 C 0.81226 0.11093 0.68636 0.0
H982 H 0.80301 0.20491 0.61802 0.0
H983 H 0.85146 0.16197 0.5935 0.0
H984 H 0.80242 0.22776 0.5822 0.0
H985 H 0.82592 0.2189 0.55182 0.0
H986 H 0.86105 0.13624 0.77443 0.0
H987 H 0.79848 0.16503 0.79898 0.0
H988 H 0.87704 0.12894 0.81026 0.0
H989 H 0.85553 0.14022 0.84052 0.0
H990 H 0.25983 0.86165 0.07971 0.0
H991 H 0.44604 0.93013 0.04712 0.0
H992 H 0.30945 0.81087 0.08858 0.0
H993 H 0.40174 0.9849 0.05174 0.0
H994 H 0.39514 0.88559 0.05908 0.0
H995 H 0.31061 0.90678 0.06747 0.0
C996 C 0.28158 0.86021 0.07936 0.0
C997 C 0.28062 0.83267 0.08513 0.0
C998 C 0.39645 0.90732 0.05736 0.0
C999 C 0.33861 0.88379 0.07067 0.0
C1000 C 0.42547 0.93275 0.05026 0.0
C1001 C 0.42798 0.96125 0.04796 0.0
C1002 C 0.36969 0.91034 0.06238 0.0
C1003 C 0.4007 0.9633 0.05302 0.0
C1004 C 0.31048 0.88583 0.07221 0.0
C1005 C 0.30932 0.83176 0.08414 0.0
N1006 N 0.37272 0.93826 0.05989 0.0
N1007 N 0.33707 0.85682 0.07689 0.0
H1008 H 0.22532 0.56707 0.07148 0.0
H1009 H 0.04755 0.44906 0.05029 0.0
H1010 H 0.1862 0.47181 0.08579 0.0
H1011 H 0.08777 0.54454 0.03492 0.0
H1012 H 0.10013 0.45644 0.05954 0.0
H1013 H 0.17664 0.55923 0.0542 0.0
C1014 C 0.20627 0.54458 0.07091 0.0
C1015 C 0.2089 0.52001 0.08024 0.0
C1016 C 0.0975 0.47575 0.05381 0.0
C1017 C 0.15392 0.51065 0.06072 0.0
C1018 C 0.06759 0.47149 0.04855 0.0
C1019 C 0.06353 0.49619 0.04165 0.0
C1020 C 0.12315 0.50496 0.05253 0.0
C1021 C 0.08995 0.52487 0.03986 0.0
C1022 C 0.17871 0.54 0.06106 0.0
C1023 C 0.18428 0.49114 0.079 0.0
N1024 N 0.11864 0.5285 0.04539 0.0
N1025 N 0.15759 0.48719 0.06955 0.0
H1026 H 0.51935 0.69451 0.10887 0.0
H1027 H 0.53738 0.61319 0.01462 0.0
H1028 H 0.57415 0.74243 0.05027 0.0
H1029 H 0.50495 0.5686 0.07845 0.0
H1030 H 0.54666 0.66001 0.02627 0.0
H1031 H 0.50919 0.64725 0.09699 0.0
C1032 C 0.52902 0.69486 0.09343 0.0
C1033 C 0.54747 0.72207 0.08044 0.0
C1034 C 0.53752 0.64 0.03774 0.0
C1035 C 0.53611 0.66855 0.06669 0.0
C1036 C 0.53192 0.61319 0.03103 0.0
C1037 C 0.51999 0.5869 0.0455 0.0
C1038 C 0.53088 0.64049 0.05909 0.0
C1039 C 0.5143 0.58841 0.06678 0.0
C1040 C 0.52339 0.66806 0.08668 0.0
C1041 C 0.55964 0.72172 0.06059 0.0
N1042 N 0.51958 0.61471 0.07291 0.0
N1043 N 0.55371 0.69535 0.05427 0.0
H1044 H 0.79556 0.3052 0.98369 0.0
H1045 H 0.97803 0.42685 0.99015 0.0
H1046 H 0.87277 0.28739 0.9724 0.0
H1047 H 0.90061 0.42931 0.02258 0.0
H1048 H 0.93992 0.3783 0.97994 0.0
H1049 H 0.83361 0.35304 0.99502 0.0
C1050 C 0.8205 0.3113 0.98375 0.0
C1051 C 0.83102 0.29234 0.97703 0.0
C1052 C 0.93134 0.38945 0.98936 0.0
C1053 C 0.87487 0.34735 0.98946 0.0
C1054 C 0.95307 0.41724 0.99513 0.0
C1055 C 0.94264 0.43217 0.00741 0.0
C1056 C 0.89879 0.37668 0.99557 0.0
C1057 C 0.9099 0.41852 0.01335 0.0
C1058 C 0.84223 0.33864 0.99009 0.0
C1059 C 0.86373 0.30155 0.97711 0.0
N1060 N 0.8892 0.39173 0.0073 0.0
N1061 N 0.88448 0.32843 0.98306 0.0
H1062 H 0.67048 0.45814 0.98541 0.0
H1063 H 0.60976 0.57153 0.00941 0.0
H1064 H 0.72731 0.55381 0.97306 0.0
H1065 H 0.55181 0.47566 0.02034 0.0
H1066 H 0.6562 0.56554 1.002 0.0
H1067 H 0.62908 0.46377 1.00385 0.0
C1068 C 0.67398 0.48025 0.98669 0.0
C1069 C 0.70146 0.50558 0.97752 0.0
C1070 C 0.6334 0.54579 1.00641 0.0
C1071 C 0.65526 0.51245 0.9984 0.0
C1072 C 0.60704 0.54926 0.01065 0.0
C1073 C 0.57716 0.52407 0.01562 0.0
C1074 C 0.62948 0.51691 1.00666 0.0
C1075 C 0.57452 0.49564 0.01684 0.0
C1076 C 0.65069 0.48357 0.99722 0.0
C1077 C 0.70582 0.53392 0.9797 0.0
N1078 N 0.60034 0.4928 0.01219 0.0
N1079 N 0.68276 0.53666 0.98979 0.0
H1080 H 0.42197 0.17905 0.99579 0.0
H1081 H 0.48829 0.06981 0.97005 0.0
H1082 H 0.47346 0.193 0.93658 0.0
H1083 H 0.47349 0.08468 0.03313 0.0
H1084 H 0.47347 0.1077 0.95574 0.0
H1085 H 0.43026 0.13643 0.00778 0.0
C1086 C 0.4347 0.1728 0.98524 0.0
C1087 C 0.44743 0.18967 0.96532 0.0
C1088 C 0.47352 0.10263 0.97271 0.0
C1089 C 0.45688 0.1409 0.97878 0.0
C1090 C 0.48186 0.081 0.98089 0.0
C1091 C 0.48262 0.07447 1.00284 0.0
C1092 C 0.46514 0.11725 0.98663 0.0
C1093 C 0.47404 0.08955 0.01616 0.0
C1094 C 0.43951 0.1486 0.99207 0.0
C1095 C 0.46324 0.18044 0.95203 0.0
N1096 N 0.46553 0.1101 0.00787 0.0
N1097 N 0.46775 0.15673 0.95904 0.0
H1098 H 0.7572 0.16249 0.97213 0.0
H1099 H 0.57089 0.09029 1.00642 0.0
H1100 H 0.70947 0.21461 0.97441 0.0
H1101 H 0.61694 0.03817 0.99702 0.0
H1102 H 0.62159 0.13611 0.99621 0.0
H1103 H 0.70639 0.11678 0.98206 0.0
C1104 C 0.73586 0.16422 0.97432 0.0
C1105 C 0.73738 0.19228 0.97205 0.0
C1106 C 0.62067 0.11468 0.99641 0.0
C1107 C 0.67914 0.14013 0.98413 0.0
C1108 C 0.59176 0.08851 1.00239 0.0
C1109 C 0.58987 0.06039 1.00299 0.0
C1110 C 0.6479 0.11276 0.99077 0.0
C1111 C 0.61747 0.05941 0.99703 0.0
C1112 C 0.70688 0.13816 0.98025 0.0
C1113 C 0.70919 0.19334 0.97592 0.0
N1114 N 0.6453 0.08514 0.99129 0.0
N1115 N 0.68127 0.16771 0.98179 0.0
H1116 H 0.81513 0.55973 0.98044 0.0
H1117 H 0.92745 0.49083 0.00825 0.0
H1118 H 0.80655 0.48328 0.95437 0.0
H1119 H 0.96648 0.58655 0.99963 0.0
H1120 H 0.87729 0.48535 0.99618 0.0
H1121 H 0.86675 0.56861 0.99362 0.0
C1122 C 0.8247 0.5453 0.97719 0.0
C1123 C 0.80747 0.52114 0.96611 0.0
C1124 C 0.89675 0.50753 0.99714 0.0
C1125 C 0.86475 0.53013 0.98167 0.0
C1126 C 0.92525 0.51068 1.00437 0.0
C1127 C 0.95093 0.53918 1.0053 0.0
C1128 C 0.89394 0.53307 0.99078 0.0
C1129 C 0.94698 0.56421 0.9993 0.0
C1130 C 0.85375 0.5502 0.98474 0.0
C1131 C 0.81979 0.50235 0.9626 0.0
N1132 N 0.9188 0.56061 0.9923 0.0
N1133 N 0.8477 0.50702 0.9706 0.0
H1134 H 0.43329 0.26578 1.00178 0.0
H1135 H 0.4854 0.43917 0.97657 0.0
H1136 H 0.48298 0.31973 0.94305 0.0
H1137 H 0.46738 0.393 0.04024 0.0
H1138 H 0.47869 0.39412 0.96322 0.0
H1139 H 0.44063 0.31088 0.01567 0.0
C1140 C 0.446 0.28721 0.99191 0.0
C1141 C 0.45764 0.28914 0.97129 0.0
C1142 C 0.47627 0.39387 0.98013 0.0
C1143 C 0.46542 0.34062 0.98677 0.0
C1144 C 0.47985 0.4195 0.98778 0.0
C1145 C 0.47712 0.41993 0.00963 0.0
C1146 C 0.46941 0.36825 0.99441 0.0
C1147 C 0.47021 0.39386 0.02337 0.0
C1148 C 0.45003 0.31287 0.99976 0.0
C1149 C 0.47336 0.31732 0.95894 0.0
N1150 N 0.46643 0.36902 0.01554 0.0
N1151 N 0.47665 0.34195 0.96682 0.0
H1152 H 0.18003 0.70506 0.10815 0.0
H1153 H 0.08903 0.62646 0.01004 0.0
H1154 H 0.18574 0.75498 0.04759 0.0
H1155 H 0.05974 0.58455 0.07469 0.0
H1156 H 0.12858 0.67234 0.0226 0.0
H1157 H 0.14003 0.65927 0.09543 0.0
C1158 C 0.17282 0.70631 0.09216 0.0
C1159 C 0.18617 0.73381 0.07891 0.0
C1160 C 0.11346 0.65313 0.03404 0.0
C1161 C 0.14076 0.6815 0.06408 0.0
C1162 C 0.091 0.62681 0.02685 0.0
C1163 C 0.07113 0.60147 0.04127 0.0
C1164 C 0.11649 0.65408 0.05587 0.0
C1165 C 0.0744 0.60357 0.06297 0.0
C1166 C 0.15004 0.68022 0.08489 0.0
C1167 C 0.17634 0.73417 0.05821 0.0
N1168 N 0.09679 0.62928 0.0696 0.0
N1169 N 0.15433 0.70843 0.0514 0.0
H1170 H 0.26397 0.46448 0.0764 0.0
H1171 H 0.44479 0.53021 0.03887 0.0
H1172 H 0.33906 0.54374 0.09664 0.0
H1173 H 0.38308 0.43481 0.05065 0.0
H1174 H 0.40193 0.53763 0.05192 0.0
H1175 H 0.30401 0.4544 0.06065 0.0
C1176 C 0.289 0.47919 0.07797 0.0
C1177 C 0.29869 0.50439 0.08824 0.0
C1178 C 0.39769 0.51509 0.0514 0.0
C1179 C 0.34397 0.49424 0.06944 0.0
C1180 C 0.42199 0.51081 0.04371 0.0
C1181 C 0.41735 0.48182 0.04365 0.0
C1182 C 0.3686 0.49021 0.05906 0.0
C1183 C 0.38739 0.45749 0.05043 0.0
C1184 C 0.31165 0.47371 0.06883 0.0
C1185 C 0.33109 0.52376 0.08921 0.0
N1186 N 0.36398 0.4622 0.05798 0.0
N1187 N 0.35276 0.51845 0.07971 0.0
H1188 H 0.60349 0.85163 0.08483 0.0
H1189 H 0.48305 0.90575 0.0411 0.0
H1190 H 0.5019 0.79458 0.09016 0.0
H1191 H 0.57365 0.96854 0.06166 0.0
H1192 H 0.49186 0.86482 0.05616 0.0
H1193 H 0.59546 0.89512 0.07459 0.0
C1194 C 0.57952 0.84839 0.08414 0.0
C1195 C 0.55328 0.81953 0.08805 0.0
C1196 C 0.50978 0.88751 0.05751 0.0
C1197 C 0.54395 0.86872 0.07592 0.0
C1198 C 0.50489 0.91099 0.04877 0.0
C1199 C 0.52773 0.94071 0.05004 0.0
C1200 C 0.53797 0.89361 0.06737 0.0
C1201 C 0.55542 0.94596 0.06036 0.0
C1202 C 0.57495 0.8731 0.07821 0.0
C1203 C 0.52271 0.81639 0.08678 0.0
N1204 N 0.55995 0.92262 0.06846 0.0
N1205 N 0.51888 0.84057 0.08055 0.0
H1206 H 0.97756 0.13979 0.42765 0.0
H1207 H 0.1169 0.26347 0.3805 0.0
H1208 H 0.93316 0.19456 0.41396 0.0
H1209 H 0.07227 0.31543 0.39384 0.0
H1210 H 0.06702 0.21773 0.39204 0.0
H1211 H 0.02965 0.18338 0.41667 0.0
C1212 C 0.97901 0.16121 0.42238 0.0
C1213 C 0.95121 0.16369 0.42157 0.0
C1214 C 0.06806 0.23903 0.39278 0.0
C1215 C 0.01062 0.21377 0.40823 0.0
C1216 C 0.09651 0.26521 0.3858 0.0
C1217 C 0.09862 0.29331 0.38593 0.0
C1218 C 0.04152 0.24087 0.4003 0.0
C1219 C 0.07157 0.2942 0.39334 0.0
C1220 C 0.00867 0.18606 0.41578 0.0
C1221 C 0.95415 0.19186 0.41481 0.0
N1222 N 0.04418 0.26845 0.40009 0.0
N1223 N 0.98329 0.2158 0.40836 0.0
H1224 H 0.89094 0.90114 0.40279 0.0
H1225 H 0.71389 0.78433 0.37923 0.0
H1226 H 0.85156 0.80572 0.41548 0.0
H1227 H 0.75322 0.88 0.36743 0.0
H1228 H 0.76651 0.79149 0.38814 0.0
H1229 H 0.84259 0.89404 0.38536 0.0
C1230 C 0.8719 0.87877 0.40183 0.0
C1231 C 0.87433 0.85393 0.41076 0.0
C1232 C 0.76369 0.81092 0.38326 0.0
C1233 C 0.81976 0.84541 0.39105 0.0
C1234 C 0.73377 0.80679 0.37819 0.0
C1235 C 0.72948 0.83159 0.37233 0.0
C1236 C 0.7891 0.84008 0.3829 0.0
C1237 C 0.75564 0.86029 0.37149 0.0
C1238 C 0.84453 0.87462 0.39189 0.0
C1239 C 0.84976 0.82524 0.40901 0.0
N1240 N 0.78435 0.86377 0.37683 0.0
N1241 N 0.82326 0.82169 0.39948 0.0
H1242 H 0.16601 0.03926 0.40869 0.0
H1243 H 0.22652 0.922 0.39798 0.0
H1244 H 0.2644 0.06272 0.41392 0.0
H1245 H 0.14849 0.92097 0.3639 0.0
H1246 H 0.23779 0.9701 0.40883 0.0
H1247 H 0.15586 0.99202 0.39673 0.0
C1248 C 0.18545 0.03442 0.40713 0.0
C1249 C 0.21606 0.05475 0.41207 0.0
C1250 C 0.21829 0.9593 0.39891 0.0
C1251 C 0.20466 1.00077 0.3991 0.0
C1252 C 0.21177 0.93184 0.39281 0.0
C1253 C 0.18663 0.91752 0.37994 0.0
C1254 C 0.19908 0.97211 0.39251 0.0
C1255 C 0.16829 0.93132 0.37367 0.0
C1256 C 0.17971 1.00757 0.40041 0.0
C1257 C 0.24049 0.04745 0.4102 0.0
N1258 N 0.17471 0.95769 0.38015 0.0
N1259 N 0.23425 0.02091 0.40402 0.0
H1260 H 0.49692 0.65605 0.27777 0.0
H1261 H 0.59678 0.74249 0.37087 0.0
H1262 H 0.50016 0.61046 0.33812 0.0
H1263 H 0.61474 0.78322 0.30572 0.0
H1264 H 0.55782 0.69495 0.36011 0.0
H1265 H 0.53629 0.7037 0.28853 0.0
C1266 C 0.50597 0.65612 0.2933 0.0
C1267 C 0.49535 0.62925 0.30704 0.0
C1268 C 0.57028 0.71424 0.34814 0.0
C1269 C 0.54013 0.68378 0.31965 0.0
C1270 C 0.59239 0.74152 0.35431 0.0
C1271 C 0.60887 0.76705 0.33924 0.0
C1272 C 0.56419 0.7124 0.32669 0.0
C1273 C 0.6027 0.76412 0.31789 0.0
C1274 C 0.5284 0.6833 0.29945 0.0
C1275 C 0.50744 0.63067 0.32714 0.0
N1276 N 0.58071 0.73741 0.31228 0.0
N1277 N 0.5291 0.65743 0.33285 0.0
H1278 H 0.39436 0.88308 0.30579 0.0
H1279 H 0.21661 0.80499 0.35573 0.0
H1280 H 0.3319 0.78808 0.31488 0.0
H1281 H 0.2762 0.90051 0.34215 0.0
H1282 H 0.26187 0.79831 0.34765 0.0
H1283 H 0.35453 0.88985 0.32487 0.0
C1284 C 0.37201 0.86373 0.31187 0.0
C1285 C 0.36561 0.83512 0.30858 0.0
C1286 C 0.26527 0.82077 0.34676 0.0
C1287 C 0.32043 0.84233 0.33041 0.0
C1288 C 0.23941 0.82462 0.35157 0.0
C1289 C 0.24278 0.85338 0.34975 0.0
C1290 C 0.29447 0.84586 0.33953 0.0
C1291 C 0.27278 0.87799 0.34375 0.0
C1292 C 0.34948 0.86748 0.32282 0.0
C1293 C 0.33702 0.81044 0.31696 0.0
N1294 N 0.29751 0.87367 0.33861 0.0
N1295 N 0.31517 0.81461 0.3274 0.0
H1296 H 0.07281 0.49351 0.30331 0.0
H1297 H 0.19965 0.44733 0.34574 0.0
H1298 H 0.17347 0.55139 0.29006 0.0
H1299 H 0.10863 0.3806 0.32847 0.0
H1300 H 0.18831 0.48637 0.3294 0.0
H1301 H 0.08303 0.45169 0.3153 0.0
C1302 C 0.09698 0.49718 0.30262 0.0
C1303 C 0.12243 0.52584 0.29606 0.0
C1304 C 0.17086 0.46318 0.32913 0.0
C1305 C 0.13438 0.47879 0.31021 0.0
C1306 C 0.17719 0.44085 0.3386 0.0
C1307 C 0.15505 0.4106 0.33849 0.0
C1308 C 0.14189 0.45531 0.31981 0.0
C1309 C 0.12641 0.40363 0.32887 0.0
C1310 C 0.10283 0.47349 0.30955 0.0
C1311 C 0.15336 0.52967 0.29546 0.0
N1312 N 0.12051 0.42582 0.32008 0.0
N1313 N 0.15856 0.50658 0.30283 0.0
H1314 H 0.37322 0.54853 0.29694 0.0
H1315 H 0.28555 0.37157 0.33354 0.0
H1316 H 0.42441 0.50049 0.31311 0.0
H1317 H 0.23903 0.4245 0.33792 0.0
H1318 H 0.33587 0.41759 0.32265 0.0
H1319 H 0.32283 0.50247 0.30836 0.0
C1320 C 0.37366 0.52807 0.30264 0.0
C1321 C 0.40276 0.52799 0.30375 0.0
C1322 C 0.31472 0.41918 0.32617 0.0
C1323 C 0.34555 0.47535 0.31689 0.0
C1324 C 0.28603 0.39293 0.33238 0.0
C1325 C 0.25827 0.39425 0.33719 0.0
C1326 C 0.31552 0.447 0.32408 0.0
C1327 C 0.26002 0.42247 0.33496 0.0
C1328 C 0.34505 0.5019 0.30928 0.0
C1329 C 0.40235 0.50117 0.31152 0.0
N1330 N 0.28809 0.44769 0.32852 0.0
N1331 N 0.37422 0.47589 0.31771 0.0
H1332 H 0.47738 0.88861 0.31039 0.0
H1333 H 0.59244 0.82421 0.3431 0.0
H1334 H 0.47009 0.81054 0.2876 0.0
H1335 H 0.62936 0.91958 0.33041 0.0
H1336 H 0.54157 0.81661 0.33067 0.0
H1337 H 0.52901 0.89898 0.32421 0.0
C1338 C 0.48728 0.87417 0.30792 0.0
C1339 C 0.47048 0.84925 0.29747 0.0
C1340 C 0.56075 0.83918 0.33079 0.0
C1341 C 0.5277 0.8598 0.31396 0.0
C1342 C 0.58966 0.84357 0.33811 0.0
C1343 C 0.61499 0.8726 0.33789 0.0
C1344 C 0.55719 0.864 0.32328 0.0
C1345 C 0.6102 0.89689 0.33089 0.0
C1346 C 0.5163 0.87987 0.3159 0.0
C1347 C 0.48306 0.83028 0.29522 0.0
N1348 N 0.58166 0.89207 0.32384 0.0
N1349 N 0.51097 0.83577 0.30363 0.0
H1350 H 0.10613 0.59808 0.33824 0.0
H1351 H 0.12693 0.76113 0.31356 0.0
H1352 H 0.13615 0.64818 0.27575 0.0
H1353 H 0.15486 0.73218 0.37226 0.0
H1354 H 0.1194 0.71578 0.30022 0.0
H1355 H 0.1136 0.64337 0.35206 0.0
C1356 C 0.11448 0.61868 0.32749 0.0
C1357 C 0.12074 0.61952 0.30586 0.0
C1358 C 0.12694 0.71937 0.31609 0.0
C1359 C 0.12813 0.67085 0.32134 0.0
C1360 C 0.13111 0.74517 0.32381 0.0
C1361 C 0.14112 0.75045 0.3443 0.0
C1362 C 0.1322 0.69836 0.32906 0.0
C1363 C 0.14648 0.72893 0.35662 0.0
C1364 C 0.11856 0.64438 0.33533 0.0
C1365 C 0.13078 0.64658 0.29247 0.0
N1366 N 0.14171 0.70374 0.3489 0.0
N1367 N 0.13393 0.67114 0.30038 0.0
H1368 H 0.84828 0.03736 0.4422 0.0
H1369 H 0.75339 0.9632 0.34341 0.0
H1370 H 0.85586 0.08874 0.38195 0.0
H1371 H 0.72966 0.91767 0.40738 0.0
H1372 H 0.79395 0.0083 0.35631 0.0
H1373 H 0.80795 0.99224 0.42895 0.0
C1374 C 0.84141 0.03906 0.42615 0.0
C1375 C 0.85534 0.06679 0.41316 0.0
C1376 C 0.77987 0.98846 0.36754 0.0
C1377 C 0.8094 0.01522 0.39773 0.0
C1378 C 0.75686 0.96257 0.36013 0.0
C1379 C 0.73827 0.93642 0.37424 0.0
C1380 C 0.78464 0.98823 0.38927 0.0
C1381 C 0.74328 0.93731 0.3959 0.0
C1382 C 0.81842 0.01335 0.41858 0.0
C1383 C 0.84594 0.06774 0.39238 0.0
N1384 N 0.76608 0.96266 0.40271 0.0
N1385 N 0.8236 0.04237 0.3853 0.0
H1386 H 0.92867 0.79771 0.40654 0.0
H1387 H 0.11055 0.86221 0.37318 0.0
H1388 H 0.00343 0.8755 0.42859 0.0
H1389 H 0.04828 0.7669 0.3833 0.0
H1390 H 0.06724 0.8697 0.38476 0.0
H1391 H 0.96888 0.78732 0.39134 0.0
C1392 C 0.95363 0.81205 0.40857 0.0
C1393 C 0.96322 0.83696 0.41916 0.0
C1394 C 0.06294 0.84716 0.38416 0.0
C1395 C 0.00867 0.82643 0.4011 0.0
C1396 C 0.08757 0.84285 0.37722 0.0
C1397 C 0.08293 0.81388 0.3771 0.0
C1398 C 0.03351 0.82231 0.39114 0.0
C1399 C 0.05262 0.78958 0.3831 0.0
C1400 C 0.97637 0.80638 0.39978 0.0
C1401 C 0.99554 0.85579 0.42085 0.0
N1402 N 0.02887 0.7943 0.39002 0.0
N1403 N 0.01731 0.85031 0.4117 0.0
H1404 H 0.20009 0.15015 0.44466 0.0
H1405 H 0.21599 0.27182 0.34956 0.0
H1406 H 0.25728 0.16904 0.38707 0.0
H1407 H 0.19582 0.27877 0.41379 0.0
H1408 H 0.22756 0.23163 0.36256 0.0
H1409 H 0.19547 0.19533 0.43383 0.0
C1410 C 0.21196 0.16405 0.42986 0.0
C1411 C 0.22866 0.15569 0.41656 0.0
C1412 C 0.22076 0.24202 0.37385 0.0
C1413 C 0.22296 0.20682 0.40386 0.0
C1414 C 0.21382 0.26473 0.36639 0.0
C1415 C 0.20452 0.2783 0.38058 0.0
C1416 C 0.21787 0.23239 0.39569 0.0
C1417 C 0.20296 0.26884 0.40234 0.0
C1418 C 0.20923 0.18969 0.42364 0.0
C1419 C 0.24347 0.17429 0.39747 0.0
N1420 N 0.20916 0.24616 0.40925 0.0
N1421 N 0.23992 0.19874 0.39155 0.0
H1422 H 0.59896 0.53282 0.7527 0.0
H1423 H 0.78217 0.59787 0.71201 0.0
H1424 H 0.6421 0.47745 0.74684 0.0
H1425 H 0.74077 0.65345 0.72265 0.0
H1426 H 0.73072 0.5534 0.72342 0.0
H1427 H 0.65053 0.57733 0.74152 0.0
C1428 C 0.61947 0.53012 0.74943 0.0
C1429 C 0.61639 0.5015 0.75083 0.0
C1430 C 0.73281 0.57531 0.72318 0.0
C1431 C 0.67534 0.55218 0.73746 0.0
C1432 C 0.76213 0.60068 0.71647 0.0
C1433 C 0.76555 0.62938 0.716 0.0
C1434 C 0.70679 0.57863 0.72971 0.0
C1435 C 0.73902 0.63172 0.72255 0.0
C1436 C 0.64884 0.55547 0.74281 0.0
C1437 C 0.64356 0.49918 0.7459 0.0
N1438 N 0.71083 0.60677 0.72907 0.0
N1439 N 0.67179 0.52409 0.73936 0.0
H1440 H 0.51404 0.12916 0.74509 0.0
H1441 H 0.41926 0.21387 0.70306 0.0
H1442 H 0.54729 0.22259 0.74703 0.0
H1443 H 0.37581 0.11795 0.71649 0.0
H1444 H 0.47033 0.2181 0.71132 0.0
H1445 H 0.46732 0.12552 0.72726 0.0
C1446 C 0.51131 0.14888 0.74156 0.0
C1447 C 0.53374 0.17608 0.74765 0.0
C1448 C 0.44976 0.19608 0.7122 0.0
C1449 C 0.48118 0.17234 0.72737 0.0
C1450 C 0.42055 0.19362 0.70723 0.0
C1451 C 0.39338 0.16547 0.70868 0.0
C1452 C 0.45168 0.1702 0.71909 0.0
C1453 C 0.39637 0.14003 0.71503 0.0
C1454 C 0.48489 0.14687 0.73144 0.0
C1455 C 0.53002 0.20128 0.74266 0.0
N1456 N 0.4251 0.14298 0.7201 0.0
N1457 N 0.50394 0.19879 0.73287 0.0
H1458 H 0.90491 0.40737 0.71568 0.0
H1459 H 0.83785 0.23166 0.74633 0.0
H1460 H 0.85135 0.35816 0.77453 0.0
H1461 H 0.863 0.27564 0.68196 0.0
H1462 H 0.84807 0.27886 0.75792 0.0
H1463 H 0.89419 0.36016 0.70361 0.0
C1464 C 0.89067 0.38654 0.72595 0.0
C1465 C 0.87894 0.38652 0.74608 0.0
C1466 C 0.85123 0.27815 0.74123 0.0
C1467 C 0.8672 0.33264 0.7327 0.0
C1468 C 0.84564 0.25129 0.73463 0.0
C1469 C 0.84927 0.24967 0.71308 0.0
C1470 C 0.86103 0.30373 0.72621 0.0
C1471 C 0.8592 0.27572 0.6986 0.0
C1472 C 0.88469 0.35967 0.71914 0.0
C1473 C 0.86108 0.35905 0.75899 0.0
N1474 N 0.86488 0.30173 0.70542 0.0
N1475 N 0.85588 0.33321 0.75214 0.0
H1476 H 0.12615 0.9771 0.64933 0.0
H1477 H 0.30851 0.09737 0.65742 0.0
H1478 H 0.20333 0.95907 0.63855 0.0
H1479 H 0.23132 0.10021 0.68986 0.0
H1480 H 0.27025 0.04909 0.64705 0.0
H1481 H 0.16402 0.02442 0.66152 0.0
C1482 C 0.15103 0.98305 0.64966 0.0
C1483 C 0.16166 0.96426 0.64277 0.0
C1484 C 0.26173 0.06024 0.65652 0.0
C1485 C 0.20524 0.01855 0.65623 0.0
C1486 C 0.28357 0.08788 0.66239 0.0
C1487 C 0.27325 0.10289 0.67467 0.0
C1488 C 0.22918 0.04766 0.66261 0.0
C1489 C 0.24051 0.08938 0.6806 0.0
C1490 C 0.17265 0.01006 0.65652 0.0
C1491 C 0.19425 0.97317 0.64332 0.0
N1492 N 0.21968 0.0627 0.67442 0.0
N1493 N 0.21487 0.99971 0.64973 0.0
H1494 H 0.00268 0.13045 0.64369 0.0
H1495 H 0.93857 0.2362 0.67728 0.0
H1496 H 0.06239 0.22466 0.64474 0.0
H1497 H 0.88315 0.14011 0.6859 0.0
H1498 H 0.98617 0.23212 0.66964 0.0
H1499 H 0.95987 0.13247 0.66339 0.0
C1500 C 0.00659 0.15142 0.6483 0.0
C1501 C 0.03532 0.17753 0.64244 0.0
C1502 C 0.96368 0.21189 0.67369 0.0
C1503 C 0.98734 0.18034 0.66463 0.0
C1504 C 0.93663 0.21427 0.67802 0.0
C1505 C 0.90711 0.18847 0.68247 0.0
C1506 C 0.96079 0.18349 0.6732 0.0
C1507 C 0.90551 0.16052 0.68298 0.0
C1508 C 0.98246 0.15267 0.65954 0.0
C1509 C 0.04002 0.2043 0.6488 0.0
N1510 N 0.93195 0.15876 0.67816 0.0
N1511 N 0.01607 0.20515 0.65935 0.0
H1512 H 0.81115 0.86367 0.60599 0.0
H1513 H 0.80777 0.75061 0.7027 0.0
H1514 H 0.74797 0.8377 0.66164 0.0
H1515 H 0.82818 0.74154 0.63906 0.0
H1516 H 0.7912 0.787 0.6885 0.0
H1517 H 0.8216 0.82197 0.61755 0.0
C1518 C 0.79906 0.84881 0.62042 0.0
C1519 C 0.77911 0.8543 0.63309 0.0
C1520 C 0.79928 0.77702 0.67764 0.0
C1521 C 0.7916 0.80746 0.64671 0.0
C1522 C 0.80915 0.75658 0.68576 0.0
C1523 C 0.81978 0.74343 0.67205 0.0
C1524 C 0.80059 0.78477 0.65563 0.0
C1525 C 0.82016 0.75129 0.65014 0.0
C1526 C 0.80517 0.82523 0.62709 0.0
C1527 C 0.76415 0.83461 0.65175 0.0
N1528 N 0.81106 0.77174 0.64258 0.0
N1529 N 0.77112 0.8124 0.65821 0.0
H1530 H 0.09486 0.83654 0.63536 0.0
H1531 H 0.95235 0.7037 0.66382 0.0
H1532 H 0.03989 0.88149 0.64027 0.0
H1533 H 0.91086 0.75932 0.67393 0.0
H1534 H 0.0027 0.74802 0.65232 0.0
H1535 H 0.0475 0.78884 0.64651 0.0
C1536 C 0.07248 0.83615 0.63843 0.0
C1537 C 0.07117 0.86288 0.63668 0.0
C1538 C 0.98312 0.75106 0.65732 0.0
C1539 C 0.016 0.80798 0.64969 0.0
C1540 C 0.9541 0.72546 0.66387 0.0
C1541 C 0.92756 0.72777 0.67031 0.0
C1542 C 0.9858 0.77957 0.65695 0.0
C1543 C 0.93094 0.75649 0.66961 0.0
C1544 C 0.04515 0.80877 0.64494 0.0
C1545 C 0.04179 0.86129 0.64141 0.0
N1546 N 0.95948 0.78119 0.66311 0.0
N1547 N 0.01547 0.8344 0.64769 0.0
H1548 H 0.12863 0.14466 0.62852 0.0
H1549 H 0.30093 0.25868 0.66124 0.0
H1550 H 0.15803 0.23744 0.63019 0.0
H1551 H 0.25784 0.16286 0.67566 0.0
H1552 H 0.25057 0.2528 0.64787 0.0
H1553 H 0.17898 0.15218 0.64275 0.0
C1554 C 0.14616 0.16671 0.63157 0.0
C1555 C 0.13981 0.19057 0.62805 0.0
C1556 C 0.25211 0.23313 0.65429 0.0
C1557 C 0.19673 0.19944 0.64454 0.0
C1558 C 0.28067 0.23649 0.66198 0.0
C1559 C 0.28332 0.21124 0.66984 0.0
C1560 C 0.22648 0.20428 0.65407 0.0
C1561 C 0.25673 0.18293 0.67016 0.0
C1562 C 0.1746 0.17101 0.63985 0.0
C1563 C 0.1627 0.21877 0.63237 0.0
N1564 N 0.22947 0.1802 0.66225 0.0
N1565 N 0.1903 0.2225 0.64046 0.0
H1566 H 0.83616 0.96892 0.64503 0.0
H1567 H 0.76563 0.07704 0.66142 0.0
H1568 H 0.73735 0.94239 0.638 0.0
H1569 H 0.84503 0.08018 0.69491 0.0
H1570 H 0.75745 0.03098 0.64874 0.0
H1571 H 0.84285 0.01355 0.65953 0.0
C1572 C 0.81591 0.97257 0.6467 0.0
C1573 C 0.78617 0.95213 0.64055 0.0
C1574 C 0.77653 0.04172 0.65896 0.0
C1575 C 0.79359 1.00304 0.65652 0.0
C1576 C 0.78128 0.06802 0.66615 0.0
C1577 C 0.80601 0.08245 0.67927 0.0
C1578 C 0.79706 0.03014 0.66459 0.0
C1579 C 0.82554 0.06972 0.68493 0.0
C1580 C 0.81966 0.99789 0.65491 0.0
C1581 C 0.76061 0.9578 0.64264 0.0
N1582 N 0.82083 0.04446 0.67739 0.0
N1583 N 0.76492 0.98288 0.65031 0.0
H1584 H 0.55327 0.38976 0.73581 0.0
H1585 H 0.36933 0.27813 0.72462 0.0
H1586 H 0.48009 0.41293 0.74717 0.0
H1587 H 0.44467 0.27381 0.69094 0.0
H1588 H 0.40914 0.32479 0.7364 0.0
H1589 H 0.51358 0.34449 0.72225 0.0
C1590 C 0.52888 0.38536 0.73533 0.0
C1591 C 0.51991 0.40501 0.74272 0.0
C1592 C 0.41688 0.31366 0.72633 0.0
C1593 C 0.47422 0.35302 0.72771 0.0
C1594 C 0.39417 0.28698 0.71966 0.0
C1595 C 0.40356 0.27201 0.70668 0.0
C1596 C 0.44931 0.32522 0.72034 0.0
C1597 C 0.43619 0.28462 0.70076 0.0
C1598 C 0.50622 0.35951 0.72769 0.0
C1599 C 0.48786 0.39808 0.742 0.0
N1600 N 0.45784 0.3103 0.70776 0.0
N1601 N 0.46615 0.37259 0.7348 0.0
H1602 H 0.66248 0.20906 0.75784 0.0
H1603 H 0.71441 0.09546 0.72116 0.0
H1604 H 0.59478 0.11752 0.75336 0.0
H1605 H 0.77203 0.19127 0.70802 0.0
H1606 H 0.67025 0.10186 0.73405 0.0
H1607 H 0.70435 0.20191 0.74184 0.0
C1608 C 0.65681 0.18731 0.75381 0.0
C1609 C 0.62572 0.16364 0.75721 0.0
C1610 C 0.69242 0.12145 0.728 0.0
C1611 C 0.67262 0.15527 0.73864 0.0
C1612 C 0.71745 0.11779 0.72058 0.0
C1613 C 0.74668 0.14286 0.71343 0.0
C1614 C 0.69711 0.1504 0.72866 0.0
C1615 C 0.74978 0.17136 0.71319 0.0
C1616 C 0.68039 0.18327 0.74449 0.0
C1617 C 0.61886 0.13594 0.75145 0.0
N1618 N 0.72537 0.17437 0.72093 0.0
N1619 N 0.64222 0.13243 0.74244 0.0
H1620 H 0.91956 0.49848 0.71995 0.0
H1621 H 0.86193 0.61342 0.74749 0.0
H1622 H 0.86742 0.48536 0.77873 0.0
H1623 H 0.88082 0.60274 0.684 0.0
H1624 H 0.873 0.57277 0.76116 0.0
H1625 H 0.91504 0.54335 0.70852 0.0
C1626 C 0.90731 0.50526 0.73047 0.0
C1627 C 0.89343 0.4881 0.75013 0.0
C1628 C 0.87472 0.57939 0.74423 0.0
C1629 C 0.88846 0.53951 0.73738 0.0
C1630 C 0.86856 0.60261 0.73644 0.0
C1631 C 0.86994 0.61103 0.71454 0.0
C1632 C 0.88295 0.56503 0.72999 0.0
C1633 C 0.87861 0.59638 0.70091 0.0
C1634 C 0.90474 0.5308 0.72398 0.0
C1635 C 0.87843 0.49809 0.76345 0.0
N1636 N 0.88486 0.57417 0.70884 0.0
N1637 N 0.87616 0.52312 0.75679 0.0
H1638 H 0.42903 0.83582 0.23421 0.0
H1639 H 0.5589 1.00115 0.18493 0.0
H1640 H 0.47755 0.90564 0.27269 0.0
H1641 H 0.4749 0.9455 0.15386 0.0
H1642 H 0.54004 0.9621 0.21568 0.0
H1643 H 0.45786 0.87172 0.2025 0.0
C1644 C 0.44654 0.85851 0.23593 0.0
C1645 C 0.45145 0.86785 0.25592 0.0
C1646 C 0.52611 0.95851 0.20193 0.0
C1647 C 0.4841 0.90876 0.22017 0.0
C1648 C 0.53664 0.98084 0.18444 0.0
C1649 C 0.51853 0.97685 0.16662 0.0
C1650 C 0.49763 0.93182 0.20144 0.0
C1651 C 0.49019 0.94961 0.16688 0.0
C1652 C 0.46275 0.87893 0.21797 0.0
C1653 C 0.47391 0.89749 0.25756 0.0
N1654 N 0.48068 0.9282 0.18398 0.0
N1655 N 0.48937 0.91704 0.23986 0.0
H1656 H 0.12682 0.55583 0.24136 0.0
H1657 H 0.96244 0.49605 0.18889 0.0
H1658 H 0.03702 0.51655 0.2775 0.0
H1659 H 0.04347 0.49895 0.15691 0.0
H1660 H 0.99067 0.50532 0.221 0.0
H1661 H 0.09851 0.53581 0.20998 0.0
C1662 C 0.10117 0.54209 0.24275 0.0
C1663 C 0.08404 0.53755 0.26186 0.0
C1664 C 0.00221 0.50367 0.20702 0.0
C1665 C 0.05156 0.51571 0.22621 0.0
C1666 C 0.98601 0.49822 0.18857 0.0
C1667 C 1.00026 0.49631 0.16996 0.0
C1668 C 0.03334 0.50794 0.207 0.0
C1669 C 0.03148 0.50053 0.17066 0.0
C1670 C 0.08502 0.53093 0.22489 0.0
C1671 C 0.05086 0.5202 0.26298 0.0
N1672 N 0.04704 0.50635 0.18882 0.0
N1673 N 0.03564 0.51034 0.24532 0.0
H1674 H 0.43962 0.57869 0.24154 0.0
H1675 H 0.46586 0.45405 0.19459 0.0
H1676 H 0.45378 0.51208 0.28003 0.0
H1677 H 0.47725 0.53432 0.15675 0.0
H1678 H 0.45071 0.46934 0.22549 0.0
H1679 H 0.44211 0.55676 0.20992 0.0
C1680 C 0.44226 0.55884 0.24331 0.0
C1681 C 0.44584 0.54674 0.26336 0.0
C1682 C 0.45631 0.48351 0.21039 0.0
C1683 C 0.44942 0.52188 0.22741 0.0
C1684 C 0.46515 0.47489 0.1927 0.0
C1685 C 0.47346 0.49314 0.17296 0.0
C1686 C 0.45544 0.51052 0.20845 0.0
C1687 C 0.47104 0.51943 0.17153 0.0
C1688 C 0.44398 0.5465 0.22532 0.0
C1689 C 0.44995 0.52146 0.26493 0.0
N1690 N 0.4625 0.52741 0.18903 0.0
N1691 N 0.45182 0.50995 0.24718 0.0
H1692 H 0.95425 0.50471 0.7725 0.0
H1693 H 0.9603 0.47989 0.89778 0.0
H1694 H 0.87839 0.43392 0.81416 0.0
H1695 H 0.03073 0.55884 0.85809 0.0
H1696 H 0.92828 0.46506 0.86751 0.0
H1697 H 0.98084 0.5277 0.80348 0.0
C1698 C 0.94294 0.4945 0.7882 0.0
C1699 C 0.91435 0.46744 0.79099 0.0
C1700 C 0.95061 0.48578 0.86542 0.0
C1701 C 0.94457 0.49289 0.82633 0.0
C1702 C 0.96891 0.4944 0.8828 0.0
C1703 C 0.99848 0.52064 0.88059 0.0
C1704 C 0.96197 0.50329 0.8455 0.0
C1705 C 0.00844 0.53811 0.86053 0.0
C1706 C 0.95811 0.5074 0.80586 0.0
C1707 C 0.90059 0.45472 0.81155 0.0
N1708 N 0.99038 0.529 0.84375 0.0
N1709 N 0.91599 0.46732 0.82845 0.0
H1710 H 0.53727 0.50098 0.77346 0.0
H1711 H 0.56465 0.51985 0.89594 0.0
H1712 H 0.59525 0.47071 0.80822 0.0
H1713 H 0.48614 0.51981 0.86298 0.0
H1714 H 0.5832 0.50959 0.86355 0.0
H1715 H 0.52751 0.5187 0.80515 0.0
C1716 C 0.54885 0.49911 0.78768 0.0
C1717 C 0.56752 0.48499 0.78824 0.0
C1718 C 0.56203 0.51202 0.8635 0.0
C1719 C 0.5555 0.50394 0.82491 0.0
C1720 C 0.55123 0.51765 0.88203 0.0
C1721 C 0.52389 0.52114 0.88232 0.0
C1722 C 0.54556 0.51015 0.84505 0.0
C1723 C 0.5078 0.51824 0.86359 0.0
C1724 C 0.54292 0.50873 0.80585 0.0
C1725 C 0.58126 0.48211 0.80717 0.0
N1726 N 0.51892 0.51311 0.84585 0.0
N1727 N 0.57479 0.49128 0.82488 0.0
H1728 H 0.61395 0.15979 0.81532 0.0
H1729 H 0.48796 0.99466 0.86356 0.0
H1730 H 0.54398 0.09656 0.77938 0.0
H1731 H 0.56954 0.05004 0.89657 0.0
H1732 H 0.51175 0.03002 0.83146 0.0
H1733 H 0.6024 0.11886 0.84415 0.0
C1734 C 0.59686 0.13706 0.81337 0.0
C1735 C 0.5798 0.13116 0.79523 0.0
C1736 C 0.52467 0.03432 0.84565 0.0
C1737 C 0.56583 0.08471 0.82786 0.0
C1738 C 0.51113 0.01398 0.86403 0.0
C1739 C 0.52648 0.01948 0.88297 0.0
C1740 C 0.55363 0.06066 0.8462 0.0
C1741 C 0.55635 0.04523 0.88252 0.0
C1742 C 0.5901 0.11379 0.82975 0.0
C1743 C 0.55753 0.10164 0.79328 0.0
N1744 N 0.56874 0.06507 0.86452 0.0
N1745 N 0.55084 0.07953 0.80952 0.0
H1746 H 0.13285 0.19115 0.57525 0.0
H1747 H 0.2038 0.36085 0.52078 0.0
H1748 H 0.12312 0.25884 0.60267 0.0
H1749 H 0.20329 0.29139 0.48889 0.0
H1750 H 0.18287 0.32555 0.55332 0.0
H1751 H 0.16703 0.22921 0.54579 0.0
C1752 C 0.13835 0.21417 0.57506 0.0
C1753 C 0.12499 0.22211 0.59091 0.0
C1754 C 0.18759 0.31807 0.53926 0.0
C1755 C 0.16361 0.26543 0.55777 0.0
C1756 C 0.19976 0.33829 0.5207 0.0
C1757 C 0.20496 0.32897 0.50203 0.0
C1758 C 0.1805 0.28826 0.53916 0.0
C1759 C 0.199 0.29935 0.50284 0.0
C1760 C 0.15766 0.2358 0.55835 0.0
C1761 C 0.13267 0.25204 0.59035 0.0
N1762 N 0.18683 0.27997 0.52106 0.0
N1763 N 0.1513 0.27263 0.57394 0.0
H1764 H 0.79975 0.90897 0.57066 0.0
H1765 H 0.64056 0.7956 0.52121 0.0
H1766 H 0.71652 0.84138 0.60846 0.0
H1767 H 0.71697 0.87512 0.48576 0.0
H1768 H 0.67165 0.8059 0.55242 0.0
H1769 H 0.77399 0.88983 0.53857 0.0
C1770 C 0.77625 0.88962 0.5721 0.0
C1771 C 0.75999 0.87679 0.59203 0.0
C1772 C 0.68169 0.82092 0.53774 0.0
C1773 C 0.73013 0.85498 0.55561 0.0
C1774 C 0.66387 0.8152 0.51991 0.0
C1775 C 0.67589 0.8347 0.50076 0.0
C1776 C 0.71191 0.84627 0.53648 0.0
C1777 C 0.70667 0.85927 0.50003 0.0
C1778 C 0.76147 0.8788 0.55386 0.0
C1779 C 0.72971 0.8517 0.59329 0.0
N1780 N 0.72345 0.86443 0.51762 0.0
N1781 N 0.7155 0.84181 0.57528 0.0
H1782 H 0.07954 0.88278 0.58366 0.0
H1783 H 0.18918 0.83299 0.5235 0.0
H1784 H 0.16026 0.87839 0.60906 0.0
H1785 H 0.1049 0.82937 0.49714 0.0
H1786 H 0.17759 0.84916 0.55499 0.0
H1787 H 0.08586 0.86147 0.55244 0.0
C1788 C 0.09805 0.87659 0.58282 0.0
C1789 C 0.11933 0.88204 0.59885 0.0
C1790 C 0.16146 0.84481 0.54241 0.0
C1791 C 0.12732 0.85859 0.56328 0.0
C1792 C 0.16807 0.83546 0.52435 0.0
C1793 C 0.1478 0.82939 0.50764 0.0
C1794 C 0.13439 0.84842 0.54399 0.0
C1795 C 0.12126 0.83385 0.50957 0.0
C1796 C 0.1019 0.86477 0.56499 0.0
C1797 C 0.14335 0.87429 0.597 0.0
N1798 N 0.11525 0.84302 0.52744 0.0
N1799 N 0.14682 0.86318 0.57954 0.0
H1800 H 0.55186 0.80368 0.13773 0.0
H1801 H 0.71459 0.85904 0.19464 0.0
H1802 H 0.63894 0.81588 0.10869 0.0
H1803 H 0.63526 0.86553 0.2203 0.0
H1804 H 0.68658 0.84363 0.163 0.0
H1805 H 0.58125 0.82775 0.16769 0.0
C1806 C 0.57732 0.81209 0.13754 0.0
C1807 C 0.59317 0.80778 0.12099 0.0
C1808 C 0.67528 0.84859 0.17545 0.0
C1809 C 0.62667 0.83449 0.15503 0.0
C1810 C 0.69139 0.85757 0.19358 0.0
C1811 C 0.6775 0.86393 0.21022 0.0
C1812 C 0.64471 0.84549 0.17386 0.0
C1813 C 0.64685 0.86063 0.20801 0.0
C1814 C 0.59402 0.82556 0.15462 0.0
C1815 C 0.62601 0.81866 0.12136 0.0
N1816 N 0.63143 0.85155 0.1902 0.0
N1817 N 0.64162 0.83121 0.1382 0.0
H1818 H 0.20963 0.83848 0.1071 0.0
H1819 H 0.22857 0.84739 0.23136 0.0
H1820 H 0.2539 0.79489 0.14411 0.0
H1821 H 0.15667 0.85773 0.19646 0.0
H1822 H 0.24647 0.83639 0.19912 0.0
H1823 H 0.2007 0.85668 0.13891 0.0
C1824 C 0.21855 0.83379 0.12185 0.0
C1825 C 0.23306 0.81577 0.12303 0.0
C1826 C 0.22691 0.84127 0.19861 0.0
C1827 C 0.22196 0.83539 0.15966 0.0
C1828 C 0.21643 0.84731 0.21707 0.0
C1829 C 0.19113 0.85387 0.21682 0.0
C1830 C 0.21229 0.84214 0.17966 0.0
C1831 C 0.17678 0.85371 0.19755 0.0
C1832 C 0.21301 0.84368 0.14006 0.0
C1833 C 0.24321 0.80927 0.14262 0.0
N1834 N 0.18763 0.84815 0.17987 0.0
N1835 N 0.23732 0.81891 0.16024 0.0
H1836 H 0.24191 0.44763 0.11272 0.0
H1837 H 0.19766 0.41424 0.23413 0.0
H1838 H 0.27713 0.5169 0.15257 0.0
H1839 H 0.19788 0.3468 0.20004 0.0
H1840 H 0.22815 0.452 0.20446 0.0
H1841 H 0.22851 0.4102 0.14398 0.0
C1842 C 0.24817 0.45498 0.12802 0.0
C1843 C 0.26112 0.48525 0.13021 0.0
C1844 C 0.22193 0.429 0.20356 0.0
C1845 C 0.24424 0.44273 0.16604 0.0
C1846 C 0.20451 0.4073 0.22058 0.0
C1847 C 0.19514 0.37708 0.21976 0.0
C1848 C 0.22954 0.42055 0.18524 0.0
C1849 C 0.20405 0.36965 0.20133 0.0
C1850 C 0.24011 0.43364 0.14589 0.0
C1851 C 0.26745 0.49368 0.15042 0.0
N1852 N 0.22045 0.39121 0.1847 0.0
N1853 N 0.25838 0.47247 0.16766 0.0
H1854 H 0.76406 0.50708 0.90308 0.0
H1855 H 0.8957 0.67131 0.85298 0.0
H1856 H 0.81517 0.5767 0.94127 0.0
H1857 H 0.81122 0.61605 0.82217 0.0
H1858 H 0.87646 0.63261 0.88395 0.0
H1859 H 0.79265 0.54262 0.87119 0.0
C1860 C 0.78197 0.52967 0.90468 0.0
C1861 C 0.78763 0.53909 0.92464 0.0
C1862 C 0.86249 0.62902 0.87022 0.0
C1863 C 0.82012 0.57959 0.88868 0.0
C1864 C 0.87324 0.65116 0.8526 0.0
C1865 C 0.85514 0.64715 0.83478 0.0
C1866 C 0.83376 0.60251 0.86987 0.0
C1867 C 0.82651 0.62013 0.8352 0.0
C1868 C 0.79809 0.54989 0.88662 0.0
C1869 C 0.81081 0.56854 0.92614 0.0
N1870 N 0.81678 0.5989 0.85242 0.0
N1871 N 0.82616 0.5879 0.90834 0.0
H1872 H 0.46285 0.22903 0.90451 0.0
H1873 H 0.29652 0.16959 0.85555 0.0
H1874 H 0.37488 0.18615 0.94304 0.0
H1875 H 0.37602 0.17245 0.82148 0.0
H1876 H 0.32588 0.17775 0.88724 0.0
H1877 H 0.4331 0.20975 0.87349 0.0
C1878 C 0.43732 0.21459 0.90647 0.0
C1879 C 0.42115 0.20855 0.92624 0.0
C1880 C 0.33679 0.17632 0.87287 0.0
C1881 C 0.38692 0.18778 0.89097 0.0
C1882 C 0.31995 0.17151 0.85466 0.0
C1883 C 0.33348 0.17001 0.83557 0.0
C1884 C 0.36783 0.18039 0.87211 0.0
C1885 C 0.36458 0.17383 0.83559 0.0
C1886 C 0.42034 0.20386 0.88882 0.0
C1887 C 0.38803 0.19066 0.92805 0.0
N1888 N 0.38077 0.17909 0.8535 0.0
N1889 N 0.37191 0.1813 0.91057 0.0
H1890 H 0.80598 0.18604 0.94881 0.0
H1891 H 0.8091 0.19802 0.82426 0.0
H1892 H 0.76298 0.23153 0.91255 0.0
H1893 H 0.81107 0.12446 0.86338 0.0
H1894 H 0.79305 0.21159 0.85582 0.0
H1895 H 0.80917 0.16383 0.91757 0.0
C1896 C 0.79625 0.19047 0.93437 0.0
C1897 C 0.78332 0.20977 0.93328 0.0
C1898 C 0.79673 0.19232 0.8574 0.0
C1899 C 0.78844 0.18601 0.89717 0.0
C1900 C 0.80579 0.18442 0.83935 0.0
C1901 C 0.812 0.16023 0.84102 0.0
C1902 C 0.79425 0.17621 0.87737 0.0
C1903 C 0.80757 0.14381 0.86122 0.0
C1904 C 0.79834 0.17811 0.9165 0.0
C1905 C 0.77236 0.2161 0.91399 0.0
N1906 N 0.79942 0.15232 0.87855 0.0
N1907 N 0.77555 0.20458 0.89658 0.0
H1908 H 0.28983 0.16995 0.43914 0.0
H1909 H 0.29327 0.14811 0.5646 0.0
H1910 H 0.21069 0.10319 0.48067 0.0
H1911 H 0.36551 0.22532 0.52449 0.0
H1912 H 0.26149 0.13319 0.53419 0.0
H1913 H 0.3166 0.19305 0.46999 0.0
C1914 C 0.27791 0.16062 0.45478 0.0
C1915 C 0.24836 0.13455 0.45757 0.0
C1916 C 0.28417 0.15355 0.53205 0.0
C1917 C 0.27877 0.16014 0.49283 0.0
C1918 C 0.30234 0.16221 0.54949 0.0
C1919 C 0.33234 0.188 0.5472 0.0
C1920 C 0.29608 0.17055 0.51201 0.0
C1921 C 0.34289 0.20495 0.52701 0.0
C1922 C 0.29318 0.17359 0.47237 0.0
C1923 C 0.23378 0.12301 0.47805 0.0
N1924 N 0.32493 0.1958 0.51019 0.0
N1925 N 0.24928 0.13563 0.49494 0.0
H1926 H 0.92206 0.12553 0.47953 0.0
H1927 H 0.81637 0.18352 0.53048 0.0
H1928 H 0.87934 0.17074 0.44265 0.0
H1929 H 0.89086 0.17794 0.56529 0.0
H1930 H 0.83763 0.17561 0.49885 0.0
H1931 H 0.91133 0.14268 0.51154 0.0
C1932 C 0.91157 0.14009 0.47813 0.0
C1933 C 0.9021 0.14733 0.45849 0.0
C1934 C 0.84954 0.17636 0.51335 0.0
C1935 C 0.88828 0.16566 0.49491 0.0
C1936 C 0.83747 0.18104 0.53156 0.0
C1937 C 0.85207 0.18209 0.55079 0.0
C1938 C 0.87613 0.1719 0.51417 0.0
C1939 C 0.87859 0.17725 0.55099 0.0
C1940 C 0.90511 0.14956 0.49636 0.0
C1941 C 0.88755 0.16531 0.45747 0.0
N1942 N 0.88966 0.17223 0.53301 0.0
N1943 N 0.88061 0.17344 0.47545 0.0
H1944 H 0.90674 0.78057 0.44346 0.0
H1945 H 0.86668 0.74699 0.56578 0.0
H1946 H 0.94133 0.84982 0.48333 0.0
H1947 H 0.86597 0.67996 0.53078 0.0
H1948 H 0.89523 0.78481 0.53571 0.0
H1949 H 0.89423 0.74323 0.4747 0.0
C1950 C 0.91296 0.78793 0.45877 0.0
C1951 C 0.92552 0.81815 0.46098 0.0
C1952 C 0.88922 0.7619 0.53468 0.0
C1953 C 0.90978 0.77576 0.49677 0.0
C1954 C 0.87293 0.74017 0.55192 0.0
C1955 C 0.86392 0.71006 0.55098 0.0
C1956 C 0.89606 0.75356 0.51605 0.0
C1957 C 0.87195 0.70274 0.53219 0.0
C1958 C 0.90544 0.76665 0.47662 0.0
C1959 C 0.9319 0.82664 0.48117 0.0
N1960 N 0.88728 0.72431 0.51537 0.0
N1961 N 0.92344 0.80547 0.49839 0.0
loop_
_geom_bond_atom_site_label_1
_geom_bond_atom_site_label_2
_geom_bond_distance
_geom_bond_site_symmetry_2
_ccdc_geom_bond_type
C0 N1 1.317 . S
C0 N2 1.348 . S
C0 C3 1.485 . S
N1 C0 1.317 . S
N1 N5 1.370 . S
N2 C0 1.348 . S
N2 C4 1.346 . S
C3 C0 1.485 . S
C3 H7 0.960 . S
C3 H8 0.961 . S
C3 H9 0.960 . S
C4 N2 1.346 . S
C4 N5 1.307 . S
C4 C6 1.486 . S
N5 N1 1.370 . S
N5 C4 1.307 . S
C6 C4 1.486 . S
C6 H10 0.960 . S
C6 H11 0.960 . S
C6 H12 0.959 . S
H7 C3 0.960 . S
H8 C3 0.961 . S
H9 C3 0.960 . S
H10 C6 0.960 . S
H11 C6 0.960 . S
H12 C6 0.959 . S
C13 N14 1.317 . S
C13 N15 1.348 . S
C13 C16 1.485 . S
N14 C13 1.317 . S
N14 N18 1.370 . S
N15 C13 1.348 . S
N15 C17 1.346 . S
C16 C13 1.485 . S
C16 H20 0.960 . S
C16 H21 0.961 . S
C16 H22 0.960 . S
C17 N15 1.346 . S
C17 N18 1.307 . S
C17 C19 1.486 . S
N18 N14 1.370 . S
N18 C17 1.307 . S
C19 C17 1.486 . S
C19 H23 0.960 . S
C19 H24 0.960 . S
C19 H25 0.959 . S
H20 C16 0.960 . S
H21 C16 0.961 . S
H22 C16 0.960 . S
H23 C19 0.960 . S
H24 C19 0.960 . S
H25 C19 0.959 . S
C26 N27 1.317 . S
C26 N28 1.348 . S
C26 C29 1.485 . S
N27 C26 1.317 . S
N27 N31 1.370 . S
N28 C26 1.348 . S
N28 C30 1.346 . S
C29 C26 1.485 . S
C29 H33 0.960 . S
C29 H34 0.961 . S
C29 H35 0.960 . S
C30 N28 1.346 . S
C30 N31 1.307 . S
C30 C32 1.486 . S
N31 N27 1.370 . S
N31 C30 1.307 . S
C32 C30 1.486 . S
C32 H36 0.960 . S
C32 H37 0.960 . S
C32 H38 0.959 . S
H33 C29 0.960 . S
H34 C29 0.961 . S
H35 C29 0.960 . S
H36 C32 0.960 . S
H37 C32 0.960 . S
H38 C32 0.959 . S
C39 N40 1.317 . S
C39 N41 1.348 . S
C39 C42 1.485 . S
N40 C39 1.317 . S
N40 N44 1.370 . S
N41 C39 1.348 . S
N41 C43 1.346 . S
C42 C39 1.485 . S
C42 H46 0.960 . S
C42 H47 0.961 . S
C42 H48 0.960 . S
C43 N41 1.346 . S
C43 N44 1.307 . S
C43 C45 1.486 . S
N44 N40 1.370 . S
N44 C43 1.307 . S
C45 C43 1.486 . S
C45 H49 0.960 . S
C45 H50 0.960 . S
C45 H51 0.959 . S
H46 C42 0.960 . S
H47 C42 0.961 . S
H48 C42 0.960 . S
H49 C45 0.960 . S
H50 C45 0.960 . S
H51 C45 0.959 . S
C52 N53 1.317 . S
C52 N54 1.348 . S
C52 C55 1.485 . S
N53 C52 1.317 . S
N53 N57 1.370 . S
N54 C52 1.348 . S
N54 C56 1.346 . S
C55 C52 1.485 . S
C55 H59 0.960 . S
C55 H60 0.961 . S
C55 H61 0.960 . S
C56 N54 1.346 . S
C56 N57 1.307 . S
C56 C58 1.486 . S
N57 N53 1.370 . S
N57 C56 1.307 . S
C58 C56 1.486 . S
C58 H62 0.960 . S
C58 H63 0.960 . S
C58 H64 0.959 . S
H59 C55 0.960 . S
H60 C55 0.961 . S
H61 C55 0.960 . S
H62 C58 0.960 . S
H63 C58 0.960 . S
H64 C58 0.959 . S
C65 N66 1.317 . S
C65 N67 1.348 . S
C65 C68 1.485 . S
N66 C65 1.317 . S
N66 N70 1.370 . S
N67 C65 1.348 . S
N67 C69 1.346 . S
C68 C65 1.485 . S
C68 H72 0.960 . S
C68 H73 0.961 . S
C68 H74 0.960 . S
C69 N67 1.346 . S
C69 N70 1.307 . S
C69 C71 1.486 . S
N70 N66 1.370 . S
N70 C69 1.307 . S
C71 C69 1.486 . S
C71 H75 0.960 . S
C71 H76 0.960 . S
C71 H77 0.959 . S
H72 C68 0.960 . S
H73 C68 0.961 . S
H74 C68 0.960 . S
H75 C71 0.960 . S
H76 C71 0.960 . S
H77 C71 0.959 . S
C78 N79 1.317 . S
C78 N80 1.348 . S
C78 C81 1.485 . S
N79 C78 1.317 . S
N79 N83 1.370 . S
N80 C78 1.348 . S
N80 C82 1.346 . S
C81 C78 1.485 . S
C81 H85 0.960 . S
C81 H86 0.961 . S
C81 H87 0.960 . S
C82 N80 1.346 . S
C82 N83 1.307 . S
C82 C84 1.486 . S
N83 N79 1.370 . S
N83 C82 1.307 . S
C84 C82 1.486 . S
C84 H88 0.960 . S
C84 H89 0.960 . S
C84 H90 0.959 . S
H85 C81 0.960 . S
H86 C81 0.961 . S
H87 C81 0.960 . S
H88 C84 0.960 . S
H89 C84 0.960 . S
H90 C84 0.959 . S
C91 N92 1.317 . S
C91 N93 1.348 . S
C91 C94 1.485 . S
N92 C91 1.317 . S
N92 N96 1.370 . S
N93 C91 1.348 . S
N93 C95 1.346 . S
C94 C91 1.485 . S
C94 H98 0.960 . S
C94 H99 0.961 . S
C94 H100 0.960 . S
C95 N93 1.346 . S
C95 N96 1.307 . S
C95 C97 1.486 . S
N96 N92 1.370 . S
N96 C95 1.307 . S
C97 C95 1.486 . S
C97 H101 0.960 . S
C97 H102 0.960 . S
C97 H103 0.959 . S
H98 C94 0.960 . S
H99 C94 0.961 . S
H100 C94 0.960 . S
H101 C97 0.960 . S
H102 C97 0.960 . S
H103 C97 0.959 . S
C104 N105 1.317 . S
C104 N106 1.348 . S
C104 C107 1.485 . S
N105 C104 1.317 . S
N105 N109 1.370 . S
N106 C104 1.348 . S
N106 C108 1.346 . S
C107 C104 1.485 . S
C107 H111 0.960 . S
C107 H112 0.961 . S
C107 H113 0.960 . S
C108 N106 1.346 . S
C108 N109 1.307 . S
C108 C110 1.486 . S
N109 N105 1.370 . S
N109 C108 1.307 . S
C110 C108 1.486 . S
C110 H114 0.960 . S
C110 H115 0.960 . S
C110 H116 0.959 . S
H111 C107 0.960 . S
H112 C107 0.961 . S
H113 C107 0.960 . S
H114 C110 0.960 . S
H115 C110 0.960 . S
H116 C110 0.959 . S
C117 N118 1.317 . S
C117 N119 1.348 . S
C117 C120 1.485 . S
N118 C117 1.317 . S
N118 N122 1.370 . S
N119 C117 1.348 . S
N119 C121 1.346 . S
C120 C117 1.485 . S
C120 H124 0.960 . S
C120 H125 0.961 1_556 S
C120 H126 0.960 . S
C121 N119 1.346 . S
C121 N122 1.307 . S
C121 C123 1.486 . S
N122 N118 1.370 . S
N122 C121 1.307 . S
C123 C121 1.486 . S
C123 H127 0.960 . S
C123 H128 0.960 . S
C123 H129 0.959 . S
H124 C120 0.960 . S
H125 C120 0.961 1_554 S
H126 C120 0.960 . S
H127 C123 0.960 . S
H128 C123 0.960 . S
H129 C123 0.959 . S
C130 N131 1.317 . S
C130 N132 1.348 . S
C130 C133 1.447 1_556 S
N131 C130 1.317 . S
N131 N135 1.370 . S
N132 C130 1.348 . S
N132 C134 1.346 . S
C133 C130 1.447 1_554 S
C133 H137 0.988 . S
C133 H138 0.978 . S
C133 H139 0.956 . S
C134 N132 1.346 . S
C134 N135 1.307 . S
C134 C136 1.486 . S
N135 N131 1.370 . S
N135 C134 1.307 . S
C136 C134 1.486 . S
C136 H140 0.960 . S
C136 H141 0.960 . S
C136 H142 0.959 . S
H137 C133 0.988 . S
H138 C133 0.978 . S
H139 C133 0.956 . S
H140 C136 0.960 . S
H141 C136 0.960 . S
H142 C136 0.959 . S
C143 N144 1.317 . S
C143 N145 1.348 . S
C143 C146 1.485 1_556 S
N144 C143 1.317 . S
N144 N148 1.370 . S
N145 C143 1.348 . S
N145 C147 1.346 . S
C146 C143 1.485 1_554 S
C146 H150 0.960 . S
C146 H151 0.961 . S
C146 H152 0.960 . S
C147 N145 1.346 . S
C147 N148 1.307 . S
C147 C149 1.486 . S
N148 N144 1.370 . S
N148 C147 1.307 . S
C149 C147 1.486 . S
C149 H153 0.960 . S
C149 H154 0.960 . S
C149 H155 0.959 . S
H150 C146 0.960 . S
H151 C146 0.961 . S
H152 C146 0.960 . S
H153 C149 0.960 . S
H154 C149 0.960 . S
H155 C149 0.959 . S
C156 N157 1.317 . S
C156 N158 1.348 . S
C156 C159 1.485 . S
N157 C156 1.317 . S
N157 N161 1.370 . S
N158 C156 1.348 . S
N158 C160 1.346 . S
C159 C156 1.485 . S
C159 H163 0.960 . S
C159 H164 0.961 . S
C159 H165 0.960 . S
C160 N158 1.346 . S
C160 N161 1.307 . S
C160 C162 1.486 . S
N161 N157 1.370 . S
N161 C160 1.307 . S
C162 C160 1.486 . S
C162 H166 0.960 . S
C162 H167 0.960 . S
C162 H168 0.959 . S
H163 C159 0.960 . S
H164 C159 0.961 . S
H165 C159 0.960 . S
H166 C162 0.960 . S
H167 C162 0.960 . S
H168 C162 0.959 . S
C169 N170 1.317 . S
C169 N171 1.348 . S
C169 C172 1.485 . S
N170 C169 1.317 . S
N170 N174 1.370 . S
N171 C169 1.348 . S
N171 C173 1.346 . S
C172 C169 1.485 . S
C172 H176 0.960 . S
C172 H177 0.961 . S
C172 H178 0.960 . S
C173 N171 1.346 . S
C173 N174 1.307 . S
C173 C175 1.486 . S
N174 N170 1.370 . S
N174 C173 1.307 . S
C175 C173 1.486 . S
C175 H179 0.960 . S
C175 H180 0.960 . S
C175 H181 0.959 . S
H176 C172 0.960 . S
H177 C172 0.961 . S
H178 C172 0.960 . S
H179 C175 0.960 . S
H180 C175 0.960 . S
H181 C175 0.959 . S
C182 N183 1.317 . S
C182 N184 1.348 . S
C182 C185 1.485 . S
N183 C182 1.317 . S
N183 N187 1.370 . S
N184 C182 1.348 . S
N184 C186 1.346 . S
C185 C182 1.485 . S
C185 H189 0.960 . S
C185 H190 0.961 . S
C185 H191 0.960 . S
C186 N184 1.346 . S
C186 N187 1.307 . S
C186 C188 1.486 . S
N187 N183 1.370 . S
N187 C186 1.307 . S
C188 C186 1.486 . S
C188 H192 0.960 . S
C188 H193 0.960 . S
C188 H194 0.959 . S
H189 C185 0.960 . S
H190 C185 0.961 . S
H191 C185 0.960 . S
H192 C188 0.960 . S
H193 C188 0.960 . S
H194 C188 0.959 . S
C195 N196 1.317 . S
C195 N197 1.348 . S
C195 C198 1.485 . S
N196 C195 1.317 . S
N196 N200 1.370 . S
N197 C195 1.348 . S
N197 C199 1.346 . S
C198 C195 1.485 . S
C198 H202 0.960 . S
C198 H203 0.961 . S
C198 H204 0.960 . S
C199 N197 1.346 . S
C199 N200 1.307 . S
C199 C201 1.486 . S
N200 N196 1.370 . S
N200 C199 1.307 . S
C201 C199 1.486 . S
C201 H205 0.960 . S
C201 H206 0.960 . S
C201 H207 0.959 . S
H202 C198 0.960 . S
H203 C198 0.961 . S
H204 C198 0.960 . S
H205 C201 0.960 . S
H206 C201 0.960 . S
H207 C201 0.959 . S
C208 N209 1.317 . S
C208 N210 1.348 . S
C208 C211 1.485 . S
N209 C208 1.317 . S
N209 N213 1.370 . S
N210 C208 1.348 . S
N210 C212 1.346 . S
C211 C208 1.485 . S
C211 H215 0.960 . S
C211 H216 0.961 . S
C211 H217 0.960 . S
C212 N210 1.346 . S
C212 N213 1.307 . S
C212 C214 1.486 . S
N213 N209 1.370 . S
N213 C212 1.307 . S
C214 C212 1.486 . S
C214 H218 0.960 . S
C214 H219 0.960 . S
C214 H220 0.959 . S
H215 C211 0.960 . S
H216 C211 0.961 . S
H217 C211 0.960 . S
H218 C214 0.960 . S
H219 C214 0.960 . S
H220 C214 0.959 . S
C221 N222 1.317 . S
C221 N223 1.348 . S
C221 C224 1.485 . S
N222 C221 1.317 . S
N222 N226 1.370 . S
N223 C221 1.348 . S
N223 C225 1.346 . S
C224 C221 1.485 . S
C224 H228 0.960 . S
C224 H229 0.961 . S
C224 H230 0.960 . S
C225 N223 1.346 . S
C225 N226 1.307 . S
C225 C227 1.486 . S
N226 N222 1.370 . S
N226 C225 1.307 . S
C227 C225 1.486 . S
C227 H231 0.960 . S
C227 H232 0.960 . S
C227 H233 0.959 . S
H228 C224 0.960 . S
H229 C224 0.961 . S
H230 C224 0.960 . S
H231 C227 0.960 . S
H232 C227 0.960 . S
H233 C227 0.959 . S
Gd234 N265 2.661 . S
Gd234 N271 2.601 . S
Gd234 O278 2.545 . S
Gd234 O279 2.606 1_545 S
Gd234 O281 2.429 . S
Gd234 O282 2.545 1_545 S
Gd234 O283 2.412 1_545 S
Gd234 O285 2.362 . S
Gd234 O286 2.324 1_545 S
Gd234 C293 2.828 1_545 S
Gd235 N244 2.661 . S
Gd235 N248 2.601 . S
Gd235 O279 2.362 1_556 S
Gd235 O280 2.324 1_565 S
Gd235 O284 2.545 . S
Gd235 O285 2.606 1_566 S
Gd235 O287 2.429 1_556 S
Gd235 O288 2.545 1_565 S
Gd235 O289 2.412 1_565 S
Gd235 C302 2.828 1_565 S
C236 C239 1.417 . S
C236 C241 1.431 . S
C236 C242 1.412 . S
C237 C240 1.437 . S
C237 C241 1.317 . S
C237 H256 0.929 . S
C238 C239 1.426 . S
C238 C240 1.413 . S
C238 N248 1.359 . S
C239 C236 1.417 . S
C239 C238 1.426 . S
C239 N244 1.350 . S
C240 C237 1.437 . S
C240 C238 1.413 . S
C240 C250 1.391 . S
C241 C236 1.431 . S
C241 C237 1.317 . S
C241 H252 0.930 . S
C242 C236 1.412 . S
C242 C243 1.355 . S
C242 H254 0.930 . S
C243 C242 1.355 . S
C243 C245 1.402 . S
C243 H255 0.930 . S
N244 Gd235 2.661 . S
N244 C239 1.350 . S
N244 C245 1.307 . S
C245 C243 1.402 . S
C245 N244 1.307 . S
C245 H246 0.930 1_565 S
H246 C245 0.930 1_545 S
C247 N248 1.334 . S
C247 C249 1.394 . S
C247 H251 0.930 . S
N248 Gd235 2.601 . S
N248 C238 1.359 . S
N248 C247 1.334 . S
C249 C247 1.394 . S
C249 C250 1.359 . S
C249 H261 0.930 . S
C250 C240 1.391 . S
C250 C249 1.359 . S
C250 H262 0.929 . S
H251 C247 0.930 . S
H252 C241 0.930 . S
H253 C270 0.930 . S
H254 C242 0.930 . S
H255 C243 0.930 . S
H256 C237 0.929 . S
H257 C275 0.930 . S
H258 C266 0.930 . S
H259 C267 0.930 . S
H260 C291 0.929 . S
H261 C249 0.930 . S
H262 C250 0.929 . S
H263 C292 0.930 . S
H264 C273 0.930 . S
N265 Gd234 2.661 . S
N265 C269 1.350 . S
N265 C270 1.307 . S
C266 H258 0.930 . S
C266 C267 1.355 . S
C266 C268 1.412 . S
C267 H259 0.930 . S
C267 C266 1.355 . S
C267 C270 1.402 . S
C268 C266 1.412 . S
C268 C269 1.417 . S
C268 C292 1.431 . S
C269 N265 1.350 . S
C269 C268 1.417 . S
C269 C272 1.426 . S
C270 H253 0.930 . S
C270 N265 1.307 . S
C270 C267 1.402 . S
N271 Gd234 2.601 . S
N271 C272 1.359 . S
N271 C275 1.334 . S
C272 C269 1.426 . S
C272 N271 1.359 . S
C272 C276 1.413 . S
C273 H264 0.930 . S
C273 C274 1.359 . S
C273 C275 1.394 . S
C274 C273 1.359 . S
C274 C276 1.391 . S
C274 H277 0.929 . S
C275 H257 0.930 . S
C275 N271 1.334 . S
C275 C273 1.394 . S
C276 C272 1.413 . S
C276 C274 1.391 . S
C276 C291 1.437 . S
H277 C274 0.929 . S
O278 Gd234 2.545 . S
O278 C293 1.258 1_545 S
O279 Gd234 2.606 1_565 S
O279 Gd235 2.362 1_554 S
O279 C290 1.284 . S
O280 Gd235 2.324 1_545 S
O280 C300 1.254 1_556 S
O281 Gd234 2.429 . S
O281 C300 1.268 . S
O282 Gd234 2.545 1_565 S
O282 C290 1.250 . S
O283 Gd234 2.412 1_565 S
O283 C293 1.252 . S
O284 Gd235 2.545 . S
O284 C302 1.258 1_565 S
O285 Gd234 2.362 . S
O285 Gd235 2.606 1_544 S
O285 C301 1.284 . S
O286 Gd234 2.324 1_565 S
O286 C309 1.254 . S
O287 Gd235 2.429 1_554 S
O287 C309 1.268 . S
O288 Gd235 2.545 1_545 S
O288 C301 1.250 1_556 S
O289 Gd235 2.412 1_545 S
O289 C302 1.252 . S
C290 O279 1.284 . S
C290 O282 1.250 . S
C291 H260 0.929 . S
C291 C276 1.437 . S
C291 C292 1.317 . S
C292 H263 0.930 . S
C292 C268 1.431 . S
C292 C291 1.317 . S
C293 Gd234 2.828 1_565 S
C293 O278 1.258 1_565 S
C293 O283 1.252 . S
C293 C294 1.497 . S
C294 C293 1.497 . S
C294 C295 1.395 . S
C294 C296 1.380 . S
C295 C294 1.395 . S
C295 C298 1.398 . S
C295 H310 0.930 1_565 S
C296 C294 1.380 . S
C296 C297 1.391 . S
C296 H311 0.930 . S
C297 C296 1.391 . S
C297 C299 1.387 . S
C298 C295 1.398 . S
C298 C299 1.380 . S
C298 H312 0.930 . S
C299 C297 1.387 . S
C299 C298 1.380 . S
C299 H313 0.930 . S
C300 O280 1.254 1_554 S
C300 O281 1.268 . S
C301 O285 1.284 . S
C301 O288 1.250 1_554 S
C302 Gd235 2.828 1_545 S
C302 O284 1.258 1_545 S
C302 O289 1.252 . S
C302 C303 1.497 . S
C303 C302 1.497 . S
C303 C304 1.395 . S
C303 C305 1.380 . S
C304 C303 1.395 . S
C304 C307 1.398 . S
C304 H314 0.930 1_545 S
C305 C303 1.380 . S
C305 C306 1.391 . S
C305 H315 0.930 . S
C306 C305 1.391 . S
C306 C308 1.387 . S
C307 C304 1.398 . S
C307 C308 1.380 . S
C307 H316 0.930 . S
C308 C306 1.387 . S
C308 C307 1.380 . S
C308 H317 0.930 . S
C309 O286 1.254 . S
C309 O287 1.268 . S
H310 C295 0.930 1_545 S
H311 C296 0.930 . S
H312 C298 0.930 . S
H313 C299 0.930 . S
H314 C304 0.930 1_565 S
H315 C305 0.930 . S
H316 C307 0.930 . S
H317 C308 0.930 . S
Gd318 N349 2.661 . S
Gd318 N355 2.601 . S
Gd318 O362 2.545 . S
Gd318 O363 2.606 1_655 S
Gd318 O365 2.429 . S
Gd318 O366 2.545 1_655 S
Gd318 O367 2.411 1_655 S
Gd318 O369 2.362 . S
Gd318 O370 2.324 1_655 S
Gd318 C377 2.828 . S
Gd319 N328 2.661 . S
Gd319 N332 2.601 . S
Gd319 O363 2.362 1_556 S
Gd319 O364 2.324 1_455 S
Gd319 O368 2.545 . S
Gd319 O369 2.606 1_456 S
Gd319 O371 2.429 . S
Gd319 O372 2.545 1_455 S
Gd319 O373 2.412 . S
Gd319 C386 2.828 . S
C320 C323 1.417 . S
C320 C325 1.431 . S
C320 C326 1.412 . S
C321 C324 1.437 . S
C321 C325 1.317 . S
C321 H340 0.929 . S
C322 C323 1.426 . S
C322 C324 1.413 . S
C322 N332 1.359 . S
C323 C320 1.417 . S
C323 C322 1.426 . S
C323 N328 1.350 . S
C324 C321 1.437 . S
C324 C322 1.413 . S
C324 C334 1.391 . S
C325 C320 1.431 . S
C325 C321 1.317 . S
C325 H336 0.930 . S
C326 C320 1.412 . S
C326 C327 1.355 . S
C326 H338 0.930 . S
C327 C326 1.355 . S
C327 C329 1.402 . S
C327 H339 0.930 . S
N328 Gd319 2.661 . S
N328 C323 1.350 . S
N328 C329 1.307 . S
C329 C327 1.402 . S
C329 N328 1.307 . S
C329 H330 0.930 . S
H330 C329 0.930 . S
C331 N332 1.334 . S
C331 C333 1.394 . S
C331 H335 0.930 . S
N332 Gd319 2.601 . S
N332 C322 1.359 . S
N332 C331 1.334 . S
C333 C331 1.394 . S
C333 C334 1.359 . S
C333 H345 0.930 . S
C334 C324 1.391 . S
C334 C333 1.359 . S
C334 H346 0.929 . S
H335 C331 0.930 . S
H336 C325 0.930 . S
H337 C354 0.930 . S
H338 C326 0.930 . S
H339 C327 0.930 . S
H340 C321 0.929 . S
H341 C359 0.930 . S
H342 C350 0.930 . S
H343 C351 0.930 . S
H344 C375 0.929 . S
H345 C333 0.930 . S
H346 C334 0.929 . S
H347 C376 0.930 . S
H348 C357 0.930 . S
N349 Gd318 2.661 . S
N349 C353 1.350 . S
N349 C354 1.307 . S
C350 H342 0.930 . S
C350 C351 1.355 . S
C350 C352 1.412 . S
C351 H343 0.930 . S
C351 C350 1.355 . S
C351 C354 1.402 . S
C352 C350 1.412 . S
C352 C353 1.417 . S
C352 C376 1.431 . S
C353 N349 1.350 . S
C353 C352 1.417 . S
C353 C356 1.426 . S
C354 H337 0.930 . S
C354 N349 1.307 . S
C354 C351 1.402 . S
N355 Gd318 2.601 . S
N355 C356 1.359 . S
N355 C359 1.334 . S
C356 C353 1.426 . S
C356 N355 1.359 . S
C356 C360 1.413 . S
C357 H348 0.930 . S
C357 C358 1.359 . S
C357 C359 1.394 . S
C358 C357 1.359 . S
C358 C360 1.391 . S
C358 H361 0.929 . S
C359 H341 0.930 . S
C359 N355 1.334 . S
C359 C357 1.394 . S
C360 C356 1.413 . S
C360 C358 1.391 . S
C360 C375 1.437 . S
H361 C358 0.929 . S
O362 Gd318 2.545 . S
O362 C377 1.258 . S
O363 Gd318 2.606 1_455 S
O363 Gd319 2.362 1_554 S
O363 C374 1.284 . S
O364 Gd319 2.324 1_655 S
O364 C384 1.254 1_556 S
O365 Gd318 2.429 . S
O365 C384 1.268 . S
O366 Gd318 2.545 1_455 S
O366 C374 1.250 . S
O367 Gd318 2.411 1_455 S
O367 C377 1.258 1_455 S
O368 Gd319 2.545 . S
O368 C386 1.258 . S
O369 Gd318 2.362 . S
O369 Gd319 2.606 1_654 S
O369 C385 1.284 1_554 S
O370 Gd318 2.324 1_455 S
O370 C393 1.254 . S
O371 Gd319 2.429 . S
O371 C393 1.268 1_556 S
O372 Gd319 2.545 1_655 S
O372 C385 1.250 . S
O373 Gd319 2.412 . S
O373 C386 1.252 . S
C374 O363 1.284 . S
C374 O366 1.250 . S
C375 H344 0.929 . S
C375 C360 1.437 . S
C375 C376 1.317 . S
C376 H347 0.930 . S
C376 C352 1.431 . S
C376 C375 1.317 . S
C377 Gd318 2.828 . S
C377 O362 1.258 . S
C377 O367 1.258 1_655 S
C377 C378 1.497 . S
C378 C377 1.497 . S
C378 C379 1.395 . S
C378 C380 1.380 1_655 S
C379 C378 1.395 . S
C379 C382 1.398 . S
C379 H394 0.930 . S
C380 C378 1.380 1_455 S
C380 C381 1.391 . S
C380 H395 0.930 . S
C381 C380 1.391 . S
C381 C383 1.387 . S
C382 C379 1.398 . S
C382 C383 1.380 1_655 S
C382 H396 0.930 . S
C383 C381 1.387 . S
C383 C382 1.380 1_455 S
C383 H397 0.930 . S
C384 O364 1.254 1_554 S
C384 O365 1.268 . S
C385 O369 1.284 1_556 S
C385 O372 1.250 . S
C386 Gd319 2.828 . S
C386 O368 1.258 . S
C386 O373 1.252 . S
C386 C387 1.497 . S
C387 C386 1.497 . S
C387 C388 1.395 . S
C387 C389 1.380 1_455 S
C388 C387 1.395 . S
C388 C391 1.398 . S
C388 H398 0.930 . S
C389 C387 1.380 1_655 S
C389 C390 1.391 . S
C389 H399 0.930 . S
C390 C389 1.391 . S
C390 C392 1.387 1_655 S
C391 C388 1.398 . S
C391 C392 1.380 . S
C391 H400 0.930 . S
C392 C390 1.387 1_455 S
C392 C391 1.380 . S
C392 H401 0.930 . S
C393 O370 1.254 . S
C393 O371 1.268 1_554 S
H394 C379 0.930 . S
H395 C380 0.930 . S
H396 C382 0.930 . S
H397 C383 0.930 . S
H398 C388 0.930 . S
H399 C389 0.930 . S
H400 C391 0.930 . S
H401 C392 0.930 . S
Gd402 N433 2.667 . S
Gd402 N439 2.612 . S
Gd402 O446 2.584 . S
Gd402 O447 2.579 1_556 S
Gd402 O449 2.404 1_556 S
Gd402 O450 2.554 . S
Gd402 O451 2.456 . S
Gd402 O453 2.320 1_556 S
Gd402 O454 2.318 1_556 S
Gd402 C461 2.874 . S
Gd403 N412 2.661 . S
Gd403 N416 2.601 . S
Gd403 O447 2.362 . S
Gd403 O448 2.324 . S
Gd403 O452 2.545 . S
Gd403 O453 2.606 . S
Gd403 O455 2.429 . S
Gd403 O456 2.545 . S
Gd403 O457 2.412 . S
Gd403 C470 2.828 . S
C404 C407 1.417 . S
C404 C409 1.431 . S
C404 C410 1.412 . S
C405 C408 1.437 . S
C405 C409 1.317 . S
C405 H424 0.929 . S
C406 C407 1.426 . S
C406 C408 1.413 . S
C406 N416 1.359 . S
C407 C404 1.417 . S
C407 C406 1.426 . S
C407 N412 1.350 . S
C408 C405 1.437 . S
C408 C406 1.413 . S
C408 C418 1.391 . S
C409 C404 1.431 . S
C409 C405 1.317 . S
C409 H420 0.930 . S
C410 C404 1.412 . S
C410 C411 1.355 . S
C410 H422 0.930 . S
C411 C410 1.355 . S
C411 C413 1.402 . S
C411 H423 0.930 . S
N412 Gd403 2.661 . S
N412 C407 1.350 . S
N412 C413 1.307 . S
C413 C411 1.402 . S
C413 N412 1.307 . S
C413 H414 0.930 . S
H414 C413 0.930 . S
C415 N416 1.334 . S
C415 C417 1.394 . S
C415 H419 0.930 . S
N416 Gd403 2.601 . S
N416 C406 1.359 . S
N416 C415 1.334 . S
C417 C415 1.394 . S
C417 C418 1.359 . S
C417 H429 0.930 . S
C418 C408 1.391 . S
C418 C417 1.359 . S
C418 H430 0.929 . S
H419 C415 0.930 . S
H420 C409 0.930 . S
H421 C438 0.930 . S
H422 C410 0.930 . S
H423 C411 0.930 . S
H424 C405 0.929 . S
H425 C443 0.930 . S
H426 C434 0.930 . S
H427 C435 0.929 . S
H428 C459 0.929 . S
H429 C417 0.930 . S
H430 C418 0.929 . S
H431 C460 0.930 . S
H432 C441 0.930 . S
N433 Gd402 2.667 . S
N433 C437 1.350 . S
N433 C438 1.307 1_556 S
C434 H426 0.930 . S
C434 C435 1.356 1_556 S
C434 C436 1.412 . S
C435 H427 0.929 . S
C435 C434 1.356 1_554 S
C435 C438 1.402 . S
C436 C434 1.412 . S
C436 C437 1.417 . S
C436 C460 1.431 . S
C437 N433 1.350 . S
C437 C436 1.417 . S
C437 C440 1.426 . S
C438 H421 0.930 . S
C438 N433 1.307 1_554 S
C438 C435 1.402 . S
N439 Gd402 2.612 . S
N439 C440 1.359 . S
N439 C443 1.334 . S
C440 C437 1.426 . S
C440 N439 1.359 . S
C440 C444 1.413 . S
C441 H432 0.930 . S
C441 C442 1.359 . S
C441 C443 1.394 . S
C442 C441 1.359 . S
C442 C444 1.391 . S
C442 H445 0.929 . S
C443 H425 0.930 . S
C443 N439 1.334 . S
C443 C441 1.394 . S
C444 C440 1.413 . S
C444 C442 1.391 . S
C444 C459 1.437 . S
H445 C442 0.929 . S
O446 Gd402 2.584 . S
O446 C461 1.258 . S
O447 Gd402 2.579 1_554 S
O447 Gd403 2.362 . S
O447 C458 1.284 . S
O448 Gd403 2.324 . S
O448 C468 1.254 . S
O449 Gd402 2.404 1_554 S
O449 C468 1.268 . S
O450 Gd402 2.554 . S
O450 C458 1.250 1_556 S
O451 Gd402 2.456 . S
O451 C461 1.252 . S
O452 Gd403 2.545 . S
O452 C470 1.258 . S
O453 Gd402 2.320 1_554 S
O453 Gd403 2.606 . S
O453 C469 1.284 . S
O454 Gd402 2.318 1_554 S
O454 C477 1.254 . S
O455 Gd403 2.429 . S
O455 C477 1.268 . S
O456 Gd403 2.545 . S
O456 C469 1.250 . S
O457 Gd403 2.412 . S
O457 C470 1.252 . S
C458 O447 1.284 . S
C458 O450 1.250 1_554 S
C459 H428 0.929 . S
C459 C444 1.437 . S
C459 C460 1.317 . S
C460 H431 0.930 . S
C460 C436 1.431 . S
C460 C459 1.317 . S
C461 Gd402 2.874 . S
C461 O446 1.258 . S
C461 O451 1.252 . S
C461 C462 1.497 . S
C462 C461 1.497 . S
C462 C463 1.395 . S
C462 C464 1.380 . S
C463 C462 1.395 . S
C463 C466 1.398 . S
C463 H478 0.930 . S
C464 C462 1.380 . S
C464 C465 1.391 . S
C464 H479 0.930 . S
C465 C464 1.391 . S
C465 C467 1.387 . S
C466 C463 1.398 . S
C466 C467 1.380 . S
C466 H480 0.930 . S
C467 C465 1.387 . S
C467 C466 1.380 . S
C467 H481 0.930 . S
C468 O448 1.254 . S
C468 O449 1.268 . S
C469 O453 1.284 . S
C469 O456 1.250 . S
C470 Gd403 2.828 . S
C470 O452 1.258 . S
C470 O457 1.252 . S
C470 C471 1.497 . S
C471 C470 1.497 . S
C471 C472 1.395 . S
C471 C473 1.380 . S
C472 C471 1.395 . S
C472 C475 1.398 . S
C472 H482 0.930 . S
C473 C471 1.380 . S
C473 C474 1.391 . S
C473 H483 0.930 . S
C474 C473 1.391 . S
C474 C476 1.387 . S
C475 C472 1.398 . S
C475 C476 1.380 . S
C475 H484 0.930 . S
C476 C474 1.387 . S
C476 C475 1.380 . S
C476 H485 0.930 . S
C477 O454 1.254 . S
C477 O455 1.268 . S
H478 C463 0.930 . S
H479 C464 0.930 . S
H480 C466 0.930 . S
H481 C467 0.930 . S
H482 C472 0.930 . S
H483 C473 0.930 . S
H484 C475 0.930 . S
H485 C476 0.930 . S
Gd486 N517 2.661 . S
Gd486 N523 2.601 . S
Gd486 O530 2.545 . S
Gd486 O531 2.606 . S
Gd486 O533 2.429 . S
Gd486 O534 2.545 . S
Gd486 O535 2.412 . S
Gd486 O537 2.362 . S
Gd486 O538 2.324 . S
Gd486 C545 2.828 . S
Gd487 N496 2.661 . S
Gd487 N500 2.601 . S
Gd487 O531 2.362 . S
Gd487 O532 2.324 . S
Gd487 O536 2.545 . S
Gd487 O537 2.606 . S
Gd487 O539 2.429 . S
Gd487 O540 2.545 . S
Gd487 O541 2.412 . S
Gd487 C554 2.828 . S
C488 C491 1.417 . S
C488 C493 1.431 . S
C488 C494 1.412 . S
C489 C492 1.437 . S
C489 C493 1.317 . S
C489 H508 0.929 . S
C490 C491 1.426 . S
C490 C492 1.413 . S
C490 N500 1.359 . S
C491 C488 1.417 . S
C491 C490 1.426 . S
C491 N496 1.350 . S
C492 C489 1.437 . S
C492 C490 1.413 . S
C492 C502 1.391 . S
C493 C488 1.431 . S
C493 C489 1.317 . S
C493 H504 0.930 . S
C494 C488 1.412 . S
C494 C495 1.355 . S
C494 H506 0.930 . S
C495 C494 1.355 . S
C495 C497 1.402 . S
C495 H507 0.930 . S
N496 Gd487 2.661 . S
N496 C491 1.350 . S
N496 C497 1.307 . S
C497 C495 1.402 . S
C497 N496 1.307 . S
C497 H498 0.930 . S
H498 C497 0.930 . S
C499 N500 1.334 . S
C499 C501 1.394 . S
C499 H503 0.930 . S
N500 Gd487 2.601 . S
N500 C490 1.359 . S
N500 C499 1.334 . S
C501 C499 1.394 . S
C501 C502 1.359 . S
C501 H513 0.930 . S
C502 C492 1.391 . S
C502 C501 1.359 . S
C502 H514 0.929 . S
H503 C499 0.930 . S
H504 C493 0.930 . S
H505 C522 0.930 . S
H506 C494 0.930 . S
H507 C495 0.930 . S
H508 C489 0.929 . S
H509 C527 0.930 . S
H510 C518 0.930 . S
H511 C519 0.930 . S
H512 C543 0.929 . S
H513 C501 0.930 . S
H514 C502 0.929 . S
H515 C544 0.930 . S
H516 C525 0.930 . S
N517 Gd486 2.661 . S
N517 C521 1.350 . S
N517 C522 1.307 . S
C518 H510 0.930 . S
C518 C519 1.355 . S
C518 C520 1.412 . S
C519 H511 0.930 . S
C519 C518 1.355 . S
C519 C522 1.402 . S
C520 C518 1.412 . S
C520 C521 1.417 . S
C520 C544 1.431 . S
C521 N517 1.350 . S
C521 C520 1.417 . S
C521 C524 1.426 . S
C522 H505 0.930 . S
C522 N517 1.307 . S
C522 C519 1.402 . S
N523 Gd486 2.601 . S
N523 C524 1.359 . S
N523 C527 1.334 . S
C524 C521 1.426 . S
C524 N523 1.359 . S
C524 C528 1.413 . S
C525 H516 0.930 . S
C525 C526 1.359 . S
C525 C527 1.394 . S
C526 C525 1.359 . S
C526 C528 1.391 . S
C526 H529 0.929 . S
C527 H509 0.930 . S
C527 N523 1.334 . S
C527 C525 1.394 . S
C528 C524 1.413 . S
C528 C526 1.391 . S
C528 C543 1.437 . S
H529 C526 0.929 . S
O530 Gd486 2.545 . S
O530 C545 1.258 . S
O531 Gd486 2.606 . S
O531 Gd487 2.362 . S
O531 C542 1.284 . S
O532 Gd487 2.324 . S
O532 C552 1.254 . S
O533 Gd486 2.429 . S
O533 C552 1.268 . S
O534 Gd486 2.545 . S
O534 C542 1.250 . S
O535 Gd486 2.412 . S
O535 C545 1.252 . S
O536 Gd487 2.545 . S
O536 C554 1.258 . S
O537 Gd486 2.362 . S
O537 Gd487 2.606 . S
O537 C553 1.284 . S
O538 Gd486 2.324 . S
O538 C561 1.254 . S
O539 Gd487 2.429 . S
O539 C561 1.268 . S
O540 Gd487 2.545 . S
O540 C553 1.250 . S
O541 Gd487 2.412 . S
O541 C554 1.252 . S
C542 O531 1.284 . S
C542 O534 1.250 . S
C543 H512 0.929 . S
C543 C528 1.437 . S
C543 C544 1.317 . S
C544 H515 0.930 . S
C544 C520 1.431 . S
C544 C543 1.317 . S
C545 Gd486 2.828 . S
C545 O530 1.258 . S
C545 O535 1.252 . S
C545 C546 1.497 . S
C546 C545 1.497 . S
C546 C547 1.395 . S
C546 C548 1.380 . S
C547 C546 1.395 . S
C547 C550 1.398 . S
C547 H562 0.930 . S
C548 C546 1.380 . S
C548 C549 1.391 . S
C548 H563 0.930 . S
C549 C548 1.391 . S
C549 C551 1.387 . S
C550 C547 1.398 . S
C550 C551 1.380 . S
C550 H564 0.930 . S
C551 C549 1.387 . S
C551 C550 1.380 . S
C551 H565 0.930 . S
C552 O532 1.254 . S
C552 O533 1.268 . S
C553 O537 1.284 . S
C553 O540 1.250 . S
C554 Gd487 2.828 . S
C554 O536 1.258 . S
C554 O541 1.252 . S
C554 C555 1.497 . S
C555 C554 1.497 . S
C555 C556 1.395 . S
C555 C557 1.380 . S
C556 C555 1.395 . S
C556 C559 1.398 . S
C556 H566 0.930 . S
C557 C555 1.380 . S
C557 C558 1.391 . S
C557 H567 0.930 . S
C558 C557 1.391 . S
C558 C560 1.387 . S
C559 C556 1.398 . S
C559 C560 1.380 . S
C559 H568 0.930 . S
C560 C558 1.387 . S
C560 C559 1.380 . S
C560 H569 0.930 . S
C561 O538 1.254 . S
C561 O539 1.268 . S
H562 C547 0.930 . S
H563 C548 0.930 . S
H564 C550 0.930 . S
H565 C551 0.930 . S
H566 C556 0.930 . S
H567 C557 0.930 . S
H568 C559 0.930 . S
H569 C560 0.930 . S
Gd570 N601 2.661 . S
Gd570 N607 2.601 . S
Gd570 O614 2.545 . S
Gd570 O615 2.606 . S
Gd570 O617 2.429 . S
Gd570 O618 2.545 . S
Gd570 O619 2.412 . S
Gd570 O621 2.362 . S
Gd570 O622 2.324 . S
Gd570 C629 2.828 . S
Gd571 N580 2.661 . S
Gd571 N584 2.601 . S
Gd571 O615 2.362 . S
Gd571 O616 2.324 . S
Gd571 O620 2.545 . S
Gd571 O621 2.606 . S
Gd571 O623 2.429 . S
Gd571 O624 2.545 . S
Gd571 O625 2.412 . S
Gd571 C638 2.828 . S
C572 C575 1.417 . S
C572 C577 1.431 . S
C572 C578 1.412 . S
C573 C576 1.437 . S
C573 C577 1.317 . S
C573 H592 0.929 . S
C574 C575 1.426 . S
C574 C576 1.413 . S
C574 N584 1.359 . S
C575 C572 1.417 . S
C575 C574 1.426 . S
C575 N580 1.350 . S
C576 C573 1.437 . S
C576 C574 1.413 . S
C576 C586 1.391 . S
C577 C572 1.431 . S
C577 C573 1.317 . S
C577 H588 0.930 . S
C578 C572 1.412 . S
C578 C579 1.355 . S
C578 H590 0.930 . S
C579 C578 1.355 . S
C579 C581 1.402 . S
C579 H591 0.930 . S
N580 Gd571 2.661 . S
N580 C575 1.350 . S
N580 C581 1.307 . S
C581 C579 1.402 . S
C581 N580 1.307 . S
C581 H582 0.930 . S
H582 C581 0.930 . S
C583 N584 1.334 . S
C583 C585 1.394 . S
C583 H587 0.930 . S
N584 Gd571 2.601 . S
N584 C574 1.359 . S
N584 C583 1.334 . S
C585 C583 1.394 . S
C585 C586 1.359 . S
C585 H597 0.930 . S
C586 C576 1.391 . S
C586 C585 1.359 . S
C586 H598 0.929 . S
H587 C583 0.930 . S
H588 C577 0.930 . S
H589 C606 0.930 . S
H590 C578 0.930 . S
H591 C579 0.930 . S
H592 C573 0.929 . S
H593 C611 0.930 . S
H594 C602 0.930 . S
H595 C603 0.930 . S
H596 C627 0.929 . S
H597 C585 0.930 . S
H598 C586 0.929 . S
H599 C628 0.930 . S
H600 C609 0.930 . S
N601 Gd570 2.661 . S
N601 C605 1.350 . S
N601 C606 1.307 . S
C602 H594 0.930 . S
C602 C603 1.355 . S
C602 C604 1.412 . S
C603 H595 0.930 . S
C603 C602 1.355 . S
C603 C606 1.402 . S
C604 C602 1.412 . S
C604 C605 1.417 . S
C604 C628 1.431 . S
C605 N601 1.350 . S
C605 C604 1.417 . S
C605 C608 1.426 . S
C606 H589 0.930 . S
C606 N601 1.307 . S
C606 C603 1.402 . S
N607 Gd570 2.601 . S
N607 C608 1.359 . S
N607 C611 1.334 . S
C608 C605 1.426 . S
C608 N607 1.359 . S
C608 C612 1.413 . S
C609 H600 0.930 . S
C609 C610 1.359 . S
C609 C611 1.394 . S
C610 C609 1.359 . S
C610 C612 1.391 . S
C610 H613 0.929 . S
C611 H593 0.930 . S
C611 N607 1.334 . S
C611 C609 1.394 . S
C612 C608 1.413 . S
C612 C610 1.391 . S
C612 C627 1.437 . S
H613 C610 0.929 . S
O614 Gd570 2.545 . S
O614 C629 1.258 . S
O615 Gd570 2.606 . S
O615 Gd571 2.362 . S
O615 C626 1.284 . S
O616 Gd571 2.324 . S
O616 C636 1.254 . S
O617 Gd570 2.429 . S
O617 C636 1.268 . S
O618 Gd570 2.545 . S
O618 C626 1.250 . S
O619 Gd570 2.412 . S
O619 C629 1.252 . S
O620 Gd571 2.545 . S
O620 C638 1.258 . S
O621 Gd570 2.362 . S
O621 Gd571 2.606 . S
O621 C637 1.284 . S
O622 Gd570 2.324 . S
O622 C645 1.254 . S
O623 Gd571 2.429 . S
O623 C645 1.268 . S
O624 Gd571 2.545 . S
O624 C637 1.250 . S
O625 Gd571 2.412 . S
O625 C638 1.252 . S
C626 O615 1.284 . S
C626 O618 1.250 . S
C627 H596 0.929 . S
C627 C612 1.437 . S
C627 C628 1.317 . S
C628 H599 0.930 . S
C628 C604 1.431 . S
C628 C627 1.317 . S
C629 Gd570 2.828 . S
C629 O614 1.258 . S
C629 O619 1.252 . S
C629 C630 1.497 . S
C630 C629 1.497 . S
C630 C631 1.395 . S
C630 C632 1.380 . S
C631 C630 1.395 . S
C631 C634 1.398 . S
C631 H646 0.930 . S
C632 C630 1.380 . S
C632 C633 1.391 . S
C632 H647 0.930 . S
C633 C632 1.391 . S
C633 C635 1.387 . S
C634 C631 1.398 . S
C634 C635 1.380 . S
C634 H648 0.930 . S
C635 C633 1.387 . S
C635 C634 1.380 . S
C635 H649 0.930 . S
C636 O616 1.254 . S
C636 O617 1.268 . S
C637 O621 1.284 . S
C637 O624 1.250 . S
C638 Gd571 2.828 . S
C638 O620 1.258 . S
C638 O625 1.252 . S
C638 C639 1.497 . S
C639 C638 1.497 . S
C639 C640 1.395 . S
C639 C641 1.380 . S
C640 C639 1.395 . S
C640 C643 1.398 . S
C640 H650 0.930 . S
C641 C639 1.380 . S
C641 C642 1.391 . S
C641 H651 0.930 . S
C642 C641 1.391 . S
C642 C644 1.387 . S
C643 C640 1.398 . S
C643 C644 1.380 . S
C643 H652 0.930 . S
C644 C642 1.387 . S
C644 C643 1.380 . S
C644 H653 0.930 . S
C645 O622 1.254 . S
C645 O623 1.268 . S
H646 C631 0.930 . S
H647 C632 0.930 . S
H648 C634 0.930 . S
H649 C635 0.930 . S
H650 C640 0.930 . S
H651 C641 0.930 . S
H652 C643 0.930 . S
H653 C644 0.930 . S
Gd654 N685 2.661 . S
Gd654 N691 2.601 . S
Gd654 O698 2.545 . S
Gd654 O699 2.606 . S
Gd654 O701 2.429 . S
Gd654 O702 2.545 . S
Gd654 O703 2.412 . S
Gd654 O705 2.362 . S
Gd654 O706 2.324 . S
Gd654 C713 2.828 . S
Gd655 N664 2.661 . S
Gd655 N668 2.601 . S
Gd655 O699 2.362 . S
Gd655 O700 2.324 . S
Gd655 O704 2.545 . S
Gd655 O705 2.606 . S
Gd655 O707 2.429 . S
Gd655 O708 2.545 . S
Gd655 O709 2.412 . S
Gd655 C722 2.828 . S
C656 C659 1.417 . S
C656 C661 1.431 . S
C656 C662 1.412 . S
C657 C660 1.437 . S
C657 C661 1.317 . S
C657 H676 0.929 . S
C658 C659 1.426 . S
C658 C660 1.413 . S
C658 N668 1.359 . S
C659 C656 1.417 . S
C659 C658 1.426 . S
C659 N664 1.350 . S
C660 C657 1.437 . S
C660 C658 1.413 . S
C660 C670 1.391 . S
C661 C656 1.431 . S
C661 C657 1.317 . S
C661 H672 0.930 . S
C662 C656 1.412 . S
C662 C663 1.355 . S
C662 H674 0.930 . S
C663 C662 1.355 . S
C663 C665 1.402 . S
C663 H675 0.930 . S
N664 Gd655 2.661 . S
N664 C659 1.350 . S
N664 C665 1.307 . S
C665 C663 1.402 . S
C665 N664 1.307 . S
C665 H666 0.930 . S
H666 C665 0.930 . S
C667 N668 1.334 . S
C667 C669 1.394 . S
C667 H671 0.930 . S
N668 Gd655 2.601 . S
N668 C658 1.359 . S
N668 C667 1.334 . S
C669 C667 1.394 . S
C669 C670 1.359 . S
C669 H681 0.930 . S
C670 C660 1.391 . S
C670 C669 1.359 . S
C670 H682 0.929 . S
H671 C667 0.930 . S
H672 C661 0.930 . S
H673 C690 0.930 . S
H674 C662 0.930 . S
H675 C663 0.930 . S
H676 C657 0.929 . S
H677 C695 0.930 . S
H678 C686 0.930 . S
H679 C687 0.930 . S
H680 C711 0.929 . S
H681 C669 0.930 . S
H682 C670 0.929 . S
H683 C712 0.930 . S
H684 C693 0.930 . S
N685 Gd654 2.661 . S
N685 C689 1.350 . S
N685 C690 1.307 . S
C686 H678 0.930 . S
C686 C687 1.355 . S
C686 C688 1.412 . S
C687 H679 0.930 . S
C687 C686 1.355 . S
C687 C690 1.402 . S
C688 C686 1.412 . S
C688 C689 1.417 . S
C688 C712 1.431 . S
C689 N685 1.350 . S
C689 C688 1.417 . S
C689 C692 1.426 . S
C690 H673 0.930 . S
C690 N685 1.307 . S
C690 C687 1.402 . S
N691 Gd654 2.601 . S
N691 C692 1.359 . S
N691 C695 1.334 . S
C692 C689 1.426 . S
C692 N691 1.359 . S
C692 C696 1.413 . S
C693 H684 0.930 . S
C693 C694 1.359 . S
C693 C695 1.394 . S
C694 C693 1.359 . S
C694 C696 1.391 . S
C694 H697 0.929 . S
C695 H677 0.930 . S
C695 N691 1.334 . S
C695 C693 1.394 . S
C696 C692 1.413 . S
C696 C694 1.391 . S
C696 C711 1.437 . S
H697 C694 0.929 . S
O698 Gd654 2.545 . S
O698 C713 1.258 . S
O699 Gd654 2.606 . S
O699 Gd655 2.362 . S
O699 C710 1.284 . S
O700 Gd655 2.324 . S
O700 C720 1.254 . S
O701 Gd654 2.429 . S
O701 C720 1.268 . S
O702 Gd654 2.545 . S
O702 C710 1.250 . S
O703 Gd654 2.412 . S
O703 C713 1.252 . S
O704 Gd655 2.545 . S
O704 C722 1.258 . S
O705 Gd654 2.362 . S
O705 Gd655 2.606 . S
O705 C721 1.284 . S
O706 Gd654 2.324 . S
O706 C729 1.254 . S
O707 Gd655 2.429 . S
O707 C729 1.268 . S
O708 Gd655 2.545 . S
O708 C721 1.250 . S
O709 Gd655 2.412 . S
O709 C722 1.252 . S
C710 O699 1.284 . S
C710 O702 1.250 . S
C711 H680 0.929 . S
C711 C696 1.437 . S
C711 C712 1.317 . S
C712 H683 0.930 . S
C712 C688 1.431 . S
C712 C711 1.317 . S
C713 Gd654 2.828 . S
C713 O698 1.258 . S
C713 O703 1.252 . S
C713 C714 1.497 . S
C714 C713 1.497 . S
C714 C715 1.395 . S
C714 C716 1.380 . S
C715 C714 1.395 . S
C715 C718 1.398 . S
C715 H730 0.930 . S
C716 C714 1.380 . S
C716 C717 1.391 . S
C716 H731 0.930 . S
C717 C716 1.391 . S
C717 C719 1.387 . S
C718 C715 1.398 . S
C718 C719 1.380 . S
C718 H732 0.930 . S
C719 C717 1.387 . S
C719 C718 1.380 . S
C719 H733 0.930 . S
C720 O700 1.254 . S
C720 O701 1.268 . S
C721 O705 1.284 . S
C721 O708 1.250 . S
C722 Gd655 2.828 . S
C722 O704 1.258 . S
C722 O709 1.252 . S
C722 C723 1.497 . S
C723 C722 1.497 . S
C723 C724 1.395 . S
C723 C725 1.380 . S
C724 C723 1.395 . S
C724 C727 1.398 . S
C724 H734 0.930 . S
C725 C723 1.380 . S
C725 C726 1.391 . S
C725 H735 0.930 . S
C726 C725 1.391 . S
C726 C728 1.387 . S
C727 C724 1.398 . S
C727 C728 1.380 . S
C727 H736 0.930 . S
C728 C726 1.387 . S
C728 C727 1.380 . S
C728 H737 0.930 . S
C729 O706 1.254 . S
C729 O707 1.268 . S
H730 C715 0.930 . S
H731 C716 0.930 . S
H732 C718 0.930 . S
H733 C719 0.930 . S
H734 C724 0.930 . S
H735 C725 0.930 . S
H736 C727 0.930 . S
H737 C728 0.930 . S
Gd738 N769 2.661 . S
Gd738 N775 2.601 . S
Gd738 O782 2.545 . S
Gd738 O783 2.606 . S
Gd738 O785 2.429 . S
Gd738 O786 2.545 . S
Gd738 O787 2.412 . S
Gd738 O789 2.362 . S
Gd738 O790 2.324 . S
Gd738 C797 2.828 . S
Gd739 N748 2.661 . S
Gd739 N752 2.601 . S
Gd739 O783 2.362 . S
Gd739 O784 2.324 . S
Gd739 O788 2.545 . S
Gd739 O789 2.606 . S
Gd739 O791 2.429 . S
Gd739 O792 2.545 . S
Gd739 O793 2.412 . S
Gd739 C806 2.828 . S
C740 C743 1.417 . S
C740 C745 1.431 . S
C740 C746 1.412 . S
C741 C744 1.437 . S
C741 C745 1.317 . S
C741 H760 0.929 . S
C742 C743 1.426 . S
C742 C744 1.413 . S
C742 N752 1.359 . S
C743 C740 1.417 . S
C743 C742 1.426 . S
C743 N748 1.350 . S
C744 C741 1.437 . S
C744 C742 1.413 . S
C744 C754 1.391 . S
C745 C740 1.431 . S
C745 C741 1.317 . S
C745 H756 0.930 . S
C746 C740 1.412 . S
C746 C747 1.355 . S
C746 H758 0.930 . S
C747 C746 1.355 . S
C747 C749 1.402 . S
C747 H759 0.930 . S
N748 Gd739 2.661 . S
N748 C743 1.350 . S
N748 C749 1.307 . S
C749 C747 1.402 . S
C749 N748 1.307 . S
C749 H750 0.930 . S
H750 C749 0.930 . S
C751 N752 1.334 . S
C751 C753 1.394 . S
C751 H755 0.930 . S
N752 Gd739 2.601 . S
N752 C742 1.359 . S
N752 C751 1.334 . S
C753 C751 1.394 . S
C753 C754 1.359 . S
C753 H765 0.930 . S
C754 C744 1.391 . S
C754 C753 1.359 . S
C754 H766 0.929 . S
H755 C751 0.930 . S
H756 C745 0.930 . S
H757 C774 0.930 . S
H758 C746 0.930 . S
H759 C747 0.930 . S
H760 C741 0.929 . S
H761 C779 0.930 . S
H762 C770 0.930 1_455 S
H763 C771 0.930 . S
H764 C795 0.929 . S
H765 C753 0.930 . S
H766 C754 0.929 . S
H767 C796 0.933 . S
H768 C777 0.930 . S
N769 Gd738 2.661 . S
N769 C773 1.350 . S
N769 C774 1.307 . S
C770 H762 0.930 1_655 S
C770 C771 1.355 . S
C770 C772 1.412 . S
C771 H763 0.930 . S
C771 C770 1.355 . S
C771 C774 1.402 . S
C772 C770 1.412 . S
C772 C773 1.417 . S
C772 C796 1.431 . S
C773 N769 1.350 . S
C773 C772 1.417 . S
C773 C776 1.426 . S
C774 H757 0.930 . S
C774 N769 1.307 . S
C774 C771 1.402 . S
N775 Gd738 2.601 . S
N775 C776 1.359 . S
N775 C779 1.334 . S
C776 C773 1.426 . S
C776 N775 1.359 . S
C776 C780 1.413 . S
C777 H768 0.930 . S
C777 C778 1.359 . S
C777 C779 1.394 . S
C778 C777 1.359 . S
C778 C780 1.391 . S
C778 H781 0.929 . S
C779 H761 0.930 . S
C779 N775 1.334 . S
C779 C777 1.394 . S
C780 C776 1.413 . S
C780 C778 1.391 . S
C780 C795 1.437 . S
H781 C778 0.929 . S
O782 Gd738 2.545 . S
O782 C797 1.258 . S
O783 Gd738 2.606 . S
O783 Gd739 2.362 . S
O783 C794 1.284 . S
O784 Gd739 2.324 . S
O784 C804 1.254 . S
O785 Gd738 2.429 . S
O785 C804 1.268 . S
O786 Gd738 2.545 . S
O786 C794 1.250 . S
O787 Gd738 2.412 . S
O787 C797 1.252 . S
O788 Gd739 2.545 . S
O788 C806 1.258 . S
O789 Gd738 2.362 . S
O789 Gd739 2.606 . S
O789 C805 1.284 . S
O790 Gd738 2.324 . S
O790 C813 1.254 . S
O791 Gd739 2.429 . S
O791 C813 1.268 . S
O792 Gd739 2.545 . S
O792 C805 1.250 . S
O793 Gd739 2.412 . S
O793 C806 1.252 . S
C794 O783 1.284 . S
C794 O786 1.250 . S
C795 H764 0.929 . S
C795 C780 1.437 . S
C795 C796 1.317 . S
C796 H767 0.933 . S
C796 C772 1.431 . S
C796 C795 1.317 . S
C797 Gd738 2.828 . S
C797 O782 1.258 . S
C797 O787 1.252 . S
C797 C798 1.497 . S
C798 C797 1.497 . S
C798 C799 1.395 . S
C798 C800 1.380 . S
C799 C798 1.395 . S
C799 C802 1.398 . S
C799 H814 0.930 . S
C800 C798 1.380 . S
C800 C801 1.391 . S
C800 H815 0.930 . S
C801 C800 1.391 . S
C801 C803 1.387 . S
C802 C799 1.398 . S
C802 C803 1.380 . S
C802 H816 0.930 . S
C803 C801 1.387 . S
C803 C802 1.380 . S
C803 H817 0.930 . S
C804 O784 1.254 . S
C804 O785 1.268 . S
C805 O789 1.284 . S
C805 O792 1.250 . S
C806 Gd739 2.828 . S
C806 O788 1.258 . S
C806 O793 1.252 . S
C806 C807 1.497 . S
C807 C806 1.497 . S
C807 C808 1.395 . S
C807 C809 1.380 . S
C808 C807 1.395 . S
C808 C811 1.398 . S
C808 H818 0.930 . S
C809 C807 1.380 . S
C809 C810 1.391 . S
C809 H819 0.930 . S
C810 C809 1.391 . S
C810 C812 1.387 . S
C811 C808 1.398 . S
C811 C812 1.380 . S
C811 H820 0.930 . S
C812 C810 1.387 . S
C812 C811 1.380 . S
C812 H821 0.930 . S
C813 O790 1.254 . S
C813 O791 1.268 . S
H814 C799 0.930 . S
H815 C800 0.930 . S
H816 C802 0.930 . S
H817 C803 0.930 . S
H818 C808 0.930 . S
H819 C809 0.930 . S
H820 C811 0.930 . S
H821 C812 0.930 . S
Gd822 N853 2.661 . S
Gd822 N859 2.601 . S
Gd822 O866 2.545 . S
Gd822 O867 2.606 . S
Gd822 O869 2.429 . S
Gd822 O870 2.545 . S
Gd822 O871 2.412 . S
Gd822 O873 2.362 . S
Gd822 O874 2.324 . S
Gd822 C881 2.828 . S
Gd823 N832 2.661 . S
Gd823 N836 2.601 . S
Gd823 O867 2.362 . S
Gd823 O868 2.324 . S
Gd823 O872 2.545 . S
Gd823 O873 2.606 . S
Gd823 O875 2.429 . S
Gd823 O876 2.545 . S
Gd823 O877 2.412 . S
Gd823 C890 2.828 . S
C824 C827 1.417 . S
C824 C829 1.431 . S
C824 C830 1.412 . S
C825 C828 1.437 . S
C825 C829 1.317 . S
C825 H844 0.929 . S
C826 C827 1.426 . S
C826 C828 1.413 . S
C826 N836 1.359 . S
C827 C824 1.417 . S
C827 C826 1.426 . S
C827 N832 1.350 . S
C828 C825 1.437 . S
C828 C826 1.413 . S
C828 C838 1.391 . S
C829 C824 1.431 . S
C829 C825 1.317 . S
C829 H840 0.930 . S
C830 C824 1.412 . S
C830 C831 1.355 . S
C830 H842 0.930 . S
C831 C830 1.355 . S
C831 C833 1.402 . S
C831 H843 0.930 . S
N832 Gd823 2.661 . S
N832 C827 1.350 . S
N832 C833 1.307 . S
C833 C831 1.402 . S
C833 N832 1.307 . S
C833 H834 0.930 . S
H834 C833 0.930 . S
C835 N836 1.334 . S
C835 C837 1.394 . S
C835 H839 0.930 . S
N836 Gd823 2.601 . S
N836 C826 1.359 . S
N836 C835 1.334 . S
C837 C835 1.394 . S
C837 C838 1.359 . S
C837 H849 0.930 . S
C838 C828 1.391 . S
C838 C837 1.359 . S
C838 H850 0.929 . S
H839 C835 0.930 . S
H840 C829 0.930 . S
H841 C858 0.930 . S
H842 C830 0.930 . S
H843 C831 0.930 . S
H844 C825 0.929 . S
H845 C863 0.930 . S
H846 C854 0.930 . S
H847 C855 0.930 . S
H848 C879 0.929 . S
H849 C837 0.930 . S
H850 C838 0.929 . S
H851 C880 0.930 . S
H852 C861 0.930 . S
N853 Gd822 2.661 . S
N853 C857 1.350 . S
N853 C858 1.307 . S
C854 H846 0.930 . S
C854 C855 1.355 . S
C854 C856 1.412 . S
C855 H847 0.930 . S
C855 C854 1.355 . S
C855 C858 1.402 . S
C856 C854 1.412 . S
C856 C857 1.417 . S
C856 C880 1.431 . S
C857 N853 1.350 . S
C857 C856 1.417 . S
C857 C860 1.426 . S
C858 H841 0.930 . S
C858 N853 1.307 . S
C858 C855 1.402 . S
N859 Gd822 2.601 . S
N859 C860 1.359 . S
N859 C863 1.334 . S
C860 C857 1.426 . S
C860 N859 1.359 . S
C860 C864 1.413 . S
C861 H852 0.930 . S
C861 C862 1.359 . S
C861 C863 1.394 . S
C862 C861 1.359 . S
C862 C864 1.391 . S
C862 H865 0.929 . S
C863 H845 0.930 . S
C863 N859 1.334 . S
C863 C861 1.394 . S
C864 C860 1.413 . S
C864 C862 1.391 . S
C864 C879 1.437 . S
H865 C862 0.929 . S
O866 Gd822 2.545 . S
O866 C881 1.258 . S
O867 Gd822 2.606 . S
O867 Gd823 2.362 . S
O867 C878 1.284 . S
O868 Gd823 2.324 . S
O868 C888 1.254 . S
O869 Gd822 2.429 . S
O869 C888 1.268 . S
O870 Gd822 2.545 . S
O870 C878 1.250 . S
O871 Gd822 2.412 . S
O871 C881 1.252 . S
O872 Gd823 2.545 . S
O872 C890 1.258 . S
O873 Gd822 2.362 . S
O873 Gd823 2.606 . S
O873 C889 1.284 . S
O874 Gd822 2.324 . S
O874 C897 1.254 . S
O875 Gd823 2.429 . S
O875 C897 1.268 . S
O876 Gd823 2.545 . S
O876 C889 1.250 . S
O877 Gd823 2.412 . S
O877 C890 1.252 . S
C878 O867 1.284 . S
C878 O870 1.250 . S
C879 H848 0.929 . S
C879 C864 1.437 . S
C879 C880 1.317 . S
C880 H851 0.930 . S
C880 C856 1.431 . S
C880 C879 1.317 . S
C881 Gd822 2.828 . S
C881 O866 1.258 . S
C881 O871 1.252 . S
C881 C882 1.497 . S
C882 C881 1.497 . S
C882 C883 1.395 . S
C882 C884 1.380 . S
C883 C882 1.395 . S
C883 C886 1.398 . S
C883 H898 0.930 . S
C884 C882 1.380 . S
C884 C885 1.391 . S
C884 H899 0.930 . S
C885 C884 1.391 . S
C885 C887 1.387 . S
C886 C883 1.398 . S
C886 C887 1.380 . S
C886 H900 0.930 . S
C887 C885 1.387 . S
C887 C886 1.380 . S
C887 H901 0.930 . S
C888 O868 1.254 . S
C888 O869 1.268 . S
C889 O873 1.284 . S
C889 O876 1.250 . S
C890 Gd823 2.828 . S
C890 O872 1.258 . S
C890 O877 1.252 . S
C890 C891 1.497 . S
C891 C890 1.497 . S
C891 C892 1.395 . S
C891 C893 1.380 . S
C892 C891 1.395 . S
C892 C895 1.398 . S
C892 H902 0.930 . S
C893 C891 1.380 . S
C893 C894 1.391 . S
C893 H903 0.930 . S
C894 C893 1.391 . S
C894 C896 1.387 . S
C895 C892 1.398 . S
C895 C896 1.380 . S
C895 H904 0.930 . S
C896 C894 1.387 . S
C896 C895 1.380 . S
C896 H905 0.930 . S
C897 O874 1.254 . S
C897 O875 1.268 . S
H898 C883 0.930 . S
H899 C884 0.930 . S
H900 C886 0.930 . S
H901 C887 0.930 . S
H902 C892 0.930 . S
H903 C893 0.930 . S
H904 C895 0.930 . S
H905 C896 0.930 . S
Gd906 N937 2.661 . S
Gd906 N943 2.601 . S
Gd906 O950 2.545 . S
Gd906 O951 2.606 . S
Gd906 O953 2.429 . S
Gd906 O954 2.545 . S
Gd906 O955 2.412 . S
Gd906 O957 2.362 . S
Gd906 O958 2.324 . S
Gd906 C965 2.828 . S
Gd907 N916 2.661 . S
Gd907 N920 2.601 . S
Gd907 O951 2.362 . S
Gd907 O952 2.324 . S
Gd907 O956 2.545 . S
Gd907 O957 2.606 . S
Gd907 O959 2.429 . S
Gd907 O960 2.545 . S
Gd907 O961 2.412 . S
Gd907 C974 2.828 . S
C908 C911 1.417 . S
C908 C913 1.431 . S
C908 C914 1.412 . S
C909 C912 1.437 . S
C909 C913 1.317 . S
C909 H928 0.929 . S
C910 C911 1.426 . S
C910 C912 1.413 . S
C910 N920 1.359 . S
C911 C908 1.417 . S
C911 C910 1.426 . S
C911 N916 1.350 . S
C912 C909 1.437 . S
C912 C910 1.413 . S
C912 C922 1.391 . S
C913 C908 1.431 . S
C913 C909 1.317 . S
C913 H924 0.930 . S
C914 C908 1.412 . S
C914 C915 1.355 . S
C914 H926 0.930 . S
C915 C914 1.355 . S
C915 C917 1.402 . S
C915 H927 0.930 . S
N916 Gd907 2.661 . S
N916 C911 1.350 . S
N916 C917 1.307 . S
C917 C915 1.402 . S
C917 N916 1.307 . S
C917 H918 0.930 . S
H918 C917 0.930 . S
C919 N920 1.334 . S
C919 C921 1.394 . S
C919 H923 0.930 . S
N920 Gd907 2.601 . S
N920 C910 1.359 . S
N920 C919 1.334 . S
C921 C919 1.394 . S
C921 C922 1.359 . S
C921 H933 0.930 . S
C922 C912 1.391 . S
C922 C921 1.359 . S
C922 H934 0.929 . S
H923 C919 0.930 . S
H924 C913 0.930 . S
H925 C942 0.930 . S
H926 C914 0.930 . S
H927 C915 0.930 . S
H928 C909 0.929 . S
H929 C947 0.930 . S
H930 C938 0.930 . S
H931 C939 0.930 . S
H932 C963 0.929 . S
H933 C921 0.930 . S
H934 C922 0.929 . S
H935 C964 0.930 . S
H936 C945 0.930 . S
N937 Gd906 2.661 . S
N937 C941 1.350 . S
N937 C942 1.307 . S
C938 H930 0.930 . S
C938 C939 1.355 . S
C938 C940 1.412 . S
C939 H931 0.930 . S
C939 C938 1.355 . S
C939 C942 1.402 . S
C940 C938 1.412 . S
C940 C941 1.417 . S
C940 C964 1.431 . S
C941 N937 1.350 . S
C941 C940 1.417 . S
C941 C944 1.426 . S
C942 H925 0.930 . S
C942 N937 1.307 . S
C942 C939 1.402 . S
N943 Gd906 2.601 . S
N943 C944 1.359 . S
N943 C947 1.334 . S
C944 C941 1.426 . S
C944 N943 1.359 . S
C944 C948 1.413 . S
C945 H936 0.930 . S
C945 C946 1.359 . S
C945 C947 1.394 . S
C946 C945 1.359 . S
C946 C948 1.391 . S
C946 H949 0.929 . S
C947 H929 0.930 . S
C947 N943 1.334 . S
C947 C945 1.394 . S
C948 C944 1.413 . S
C948 C946 1.391 . S
C948 C963 1.437 . S
H949 C946 0.929 . S
O950 Gd906 2.545 . S
O950 C965 1.258 . S
O951 Gd906 2.606 . S
O951 Gd907 2.362 . S
O951 C962 1.284 . S
O952 Gd907 2.324 . S
O952 C972 1.254 . S
O953 Gd906 2.429 . S
O953 C972 1.268 . S
O954 Gd906 2.545 . S
O954 C962 1.250 . S
O955 Gd906 2.412 . S
O955 C965 1.252 . S
O956 Gd907 2.545 . S
O956 C974 1.258 . S
O957 Gd906 2.362 . S
O957 Gd907 2.606 . S
O957 C973 1.284 . S
O958 Gd906 2.324 . S
O958 C981 1.254 . S
O959 Gd907 2.429 . S
O959 C981 1.268 . S
O960 Gd907 2.545 . S
O960 C973 1.250 . S
O961 Gd907 2.412 . S
O961 C974 1.252 . S
C962 O951 1.284 . S
C962 O954 1.250 . S
C963 H932 0.929 . S
C963 C948 1.437 . S
C963 C964 1.317 . S
C964 H935 0.930 . S
C964 C940 1.431 . S
C964 C963 1.317 . S
C965 Gd906 2.828 . S
C965 O950 1.258 . S
C965 O955 1.252 . S
C965 C966 1.497 . S
C966 C965 1.497 . S
C966 C967 1.395 . S
C966 C968 1.380 . S
C967 C966 1.395 . S
C967 C970 1.398 . S
C967 H982 0.930 . S
C968 C966 1.380 . S
C968 C969 1.391 . S
C968 H983 0.930 . S
C969 C968 1.391 . S
C969 C971 1.387 . S
C970 C967 1.398 . S
C970 C971 1.380 . S
C970 H984 0.930 . S
C971 C969 1.387 . S
C971 C970 1.380 . S
C971 H985 0.930 . S
C972 O952 1.254 . S
C972 O953 1.268 . S
C973 O957 1.284 . S
C973 O960 1.250 . S
C974 Gd907 2.828 . S
C974 O956 1.258 . S
C974 O961 1.252 . S
C974 C975 1.497 . S
C975 C974 1.497 . S
C975 C976 1.395 . S
C975 C977 1.380 . S
C976 C975 1.395 . S
C976 C979 1.398 . S
C976 H986 0.930 . S
C977 C975 1.380 . S
C977 C978 1.391 . S
C977 H987 0.930 . S
C978 C977 1.391 . S
C978 C980 1.387 . S
C979 C976 1.398 . S
C979 C980 1.380 . S
C979 H988 0.930 . S
C980 C978 1.387 . S
C980 C979 1.380 . S
C980 H989 0.930 . S
C981 O958 1.254 . S
C981 O959 1.268 . S
H982 C967 0.930 . S
H983 C968 0.930 . S
H984 C970 0.930 . S
H985 C971 0.930 . S
H986 C976 0.930 . S
H987 C977 0.930 . S
H988 C979 0.930 . S
H989 C980 0.930 . S
H990 C996 0.930 . S
H991 C1000 0.930 . S
H992 C1005 0.929 . S
H993 C1003 0.929 . S
H994 C998 0.929 . S
H995 C1004 0.929 . S
C996 H990 0.930 . S
C996 C997 1.367 . S
C996 C1004 1.378 . S
C997 C996 1.367 . S
C997 C1005 1.433 . S
C998 H994 0.929 . S
C998 C1000 1.378 . S
C998 C1002 1.350 . S
C999 C1002 1.463 . S
C999 C1004 1.350 . S
C999 N1007 1.427 . S
C1000 H991 0.930 . S
C1000 C998 1.378 . S
C1000 C1001 1.367 . S
C1001 C1000 1.367 . S
C1001 C1003 1.433 . S
C1002 C998 1.350 . S
C1002 C999 1.463 . S
C1002 N1006 1.427 . S
C1003 H993 0.929 . S
C1003 C1001 1.433 . S
C1003 N1006 1.384 . S
C1004 H995 0.929 . S
C1004 C996 1.378 . S
C1004 C999 1.350 . S
C1005 H992 0.929 . S
C1005 C997 1.433 . S
C1005 N1007 1.384 . S
N1006 C1002 1.427 . S
N1006 C1003 1.384 . S
N1007 C999 1.427 . S
N1007 C1005 1.384 . S
H1008 C1014 0.930 . S
H1009 C1018 0.930 . S
H1010 C1023 0.929 . S
H1011 C1021 0.929 . S
H1012 C1016 0.929 . S
H1013 C1022 0.929 . S
C1014 H1008 0.930 . S
C1014 C1015 1.367 . S
C1014 C1022 1.378 . S
C1015 C1014 1.367 . S
C1015 C1023 1.433 . S
C1016 H1012 0.929 . S
C1016 C1018 1.378 . S
C1016 C1020 1.350 . S
C1017 C1020 1.463 . S
C1017 C1022 1.350 . S
C1017 N1025 1.427 . S
C1018 H1009 0.930 . S
C1018 C1016 1.378 . S
C1018 C1019 1.367 . S
C1019 C1018 1.367 . S
C1019 C1021 1.433 . S
C1020 C1016 1.350 . S
C1020 C1017 1.463 . S
C1020 N1024 1.427 . S
C1021 H1011 0.929 . S
C1021 C1019 1.433 . S
C1021 N1024 1.384 . S
C1022 H1013 0.929 . S
C1022 C1014 1.378 . S
C1022 C1017 1.350 . S
C1023 H1010 0.929 . S
C1023 C1015 1.433 . S
C1023 N1025 1.384 . S
N1024 C1020 1.427 . S
N1024 C1021 1.384 . S
N1025 C1017 1.427 . S
N1025 C1023 1.384 . S
H1026 C1032 0.930 . S
H1027 C1036 0.930 . S
H1028 C1041 0.929 . S
H1029 C1039 0.929 . S
H1030 C1034 0.929 . S
H1031 C1040 0.929 . S
C1032 H1026 0.930 . S
C1032 C1033 1.367 . S
C1032 C1040 1.378 . S
C1033 C1032 1.367 . S
C1033 C1041 1.433 . S
C1034 H1030 0.929 . S
C1034 C1036 1.378 . S
C1034 C1038 1.350 . S
C1035 C1038 1.463 . S
C1035 C1040 1.350 . S
C1035 N1043 1.427 . S
C1036 H1027 0.930 . S
C1036 C1034 1.378 . S
C1036 C1037 1.367 . S
C1037 C1036 1.367 . S
C1037 C1039 1.433 . S
C1038 C1034 1.350 . S
C1038 C1035 1.463 . S
C1038 N1042 1.427 . S
C1039 H1029 0.929 . S
C1039 C1037 1.433 . S
C1039 N1042 1.384 . S
C1040 H1031 0.929 . S
C1040 C1032 1.378 . S
C1040 C1035 1.350 . S
C1041 H1028 0.929 . S
C1041 C1033 1.433 . S
C1041 N1043 1.384 . S
N1042 C1038 1.427 . S
N1042 C1039 1.384 . S
N1043 C1035 1.427 . S
N1043 C1041 1.384 . S
H1044 C1050 0.930 . S
H1045 C1054 0.953 . S
H1046 C1059 0.929 . S
H1047 C1057 0.929 . S
H1048 C1052 0.928 . S
H1049 C1058 0.929 . S
C1050 H1044 0.930 . S
C1050 C1051 1.367 . S
C1050 C1058 1.378 . S
C1051 C1050 1.367 . S
C1051 C1059 1.433 . S
C1052 H1048 0.928 . S
C1052 C1054 1.362 1_556 S
C1052 C1056 1.350 . S
C1053 C1056 1.463 . S
C1053 C1058 1.350 . S
C1053 N1061 1.427 . S
C1054 H1045 0.953 . S
C1054 C1052 1.362 1_554 S
C1054 C1055 1.363 1_554 S
C1055 C1054 1.363 1_556 S
C1055 C1057 1.433 . S
C1056 C1052 1.350 . S
C1056 C1053 1.463 . S
C1056 N1060 1.427 . S
C1057 H1047 0.929 . S
C1057 C1055 1.433 . S
C1057 N1060 1.384 . S
C1058 H1049 0.929 . S
C1058 C1050 1.378 . S
C1058 C1053 1.350 . S
C1059 H1046 0.929 . S
C1059 C1051 1.433 . S
C1059 N1061 1.384 . S
N1060 C1056 1.427 . S
N1060 C1057 1.384 . S
N1061 C1053 1.427 . S
N1061 C1059 1.384 . S
H1062 C1068 0.930 . S
H1063 C1072 0.930 . S
H1064 C1077 0.929 . S
H1065 C1075 0.929 . S
H1066 C1070 0.929 . S
H1067 C1076 0.929 . S
C1068 H1062 0.930 . S
C1068 C1069 1.367 . S
C1068 C1076 1.378 . S
C1069 C1068 1.367 . S
C1069 C1077 1.433 . S
C1070 H1066 0.929 . S
C1070 C1072 1.378 . S
C1070 C1074 1.350 . S
C1071 C1074 1.463 . S
C1071 C1076 1.350 . S
C1071 N1079 1.427 . S
C1072 H1063 0.930 . S
C1072 C1070 1.378 . S
C1072 C1073 1.367 1_556 S
C1073 C1072 1.367 1_554 S
C1073 C1075 1.433 . S
C1074 C1070 1.350 . S
C1074 C1071 1.463 . S
C1074 N1078 1.427 1_556 S
C1075 H1065 0.929 . S
C1075 C1073 1.433 . S
C1075 N1078 1.384 . S
C1076 H1067 0.929 . S
C1076 C1068 1.378 . S
C1076 C1071 1.350 . S
C1077 H1064 0.929 . S
C1077 C1069 1.433 . S
C1077 N1079 1.384 . S
N1078 C1074 1.427 1_554 S
N1078 C1075 1.384 . S
N1079 C1071 1.427 . S
N1079 C1077 1.384 . S
H1080 C1086 0.930 1_554 S
H1081 C1090 0.930 . S
H1082 C1095 0.929 . S
H1083 C1093 0.929 . S
H1084 C1088 0.929 . S
H1085 C1094 0.926 . S
C1086 H1080 0.930 1_556 S
C1086 C1087 1.367 . S
C1086 C1094 1.378 1_556 S
C1087 C1086 1.367 . S
C1087 C1095 1.433 . S
C1088 H1084 0.929 . S
C1088 C1090 1.378 . S
C1088 C1092 1.350 . S
C1089 C1092 1.463 . S
C1089 C1094 1.352 1_556 S
C1089 N1097 1.427 . S
C1090 H1081 0.930 . S
C1090 C1088 1.378 . S
C1090 C1091 1.316 1_556 S
C1091 C1090 1.316 1_554 S
C1091 C1093 1.477 . S
C1092 C1088 1.350 . S
C1092 C1089 1.463 . S
C1092 N1096 1.427 1_556 S
C1093 H1083 0.929 . S
C1093 C1091 1.477 . S
C1093 N1096 1.384 . S
C1094 H1085 0.926 . S
C1094 C1086 1.378 1_554 S
C1094 C1089 1.352 1_554 S
C1095 H1082 0.929 . S
C1095 C1087 1.433 . S
C1095 N1097 1.384 . S
N1096 C1092 1.427 1_554 S
N1096 C1093 1.384 . S
N1097 C1089 1.427 . S
N1097 C1095 1.384 . S
H1098 C1104 0.930 . S
H1099 C1108 0.930 . S
H1100 C1113 0.929 . S
H1101 C1111 0.929 . S
H1102 C1106 0.929 . S
H1103 C1112 0.929 . S
C1104 H1098 0.930 . S
C1104 C1105 1.367 . S
C1104 C1112 1.378 . S
C1105 C1104 1.367 . S
C1105 C1113 1.433 . S
C1106 H1102 0.929 . S
C1106 C1108 1.378 . S
C1106 C1110 1.350 1_554 S
C1107 C1110 1.463 . S
C1107 C1112 1.350 . S
C1107 N1115 1.427 . S
C1108 H1099 0.930 . S
C1108 C1106 1.378 . S
C1108 C1109 1.367 . S
C1109 C1108 1.367 . S
C1109 C1111 1.433 1_554 S
C1110 C1106 1.350 1_556 S
C1110 C1107 1.463 . S
C1110 N1114 1.427 . S
C1111 H1101 0.929 . S
C1111 C1109 1.433 1_556 S
C1111 N1114 1.384 . S
C1112 H1103 0.929 . S
C1112 C1104 1.378 . S
C1112 C1107 1.350 . S
C1113 H1100 0.929 . S
C1113 C1105 1.433 . S
C1113 N1115 1.384 . S
N1114 C1110 1.427 . S
N1114 C1111 1.384 . S
N1115 C1107 1.427 . S
N1115 C1113 1.384 . S
H1116 C1122 0.930 . S
H1117 C1126 0.930 . S
H1118 C1131 0.929 . S
H1119 C1129 0.929 . S
H1120 C1124 0.929 . S
H1121 C1130 0.929 . S
C1122 H1116 0.930 . S
C1122 C1123 1.367 . S
C1122 C1130 1.378 . S
C1123 C1122 1.367 . S
C1123 C1131 1.433 . S
C1124 H1120 0.929 . S
C1124 C1126 1.378 . S
C1124 C1128 1.350 . S
C1125 C1128 1.463 . S
C1125 C1130 1.350 . S
C1125 N1133 1.427 . S
C1126 H1117 0.930 . S
C1126 C1124 1.378 . S
C1126 C1127 1.367 . S
C1127 C1126 1.367 . S
C1127 C1129 1.433 1_556 S
C1128 C1124 1.350 . S
C1128 C1125 1.463 . S
C1128 N1132 1.427 . S
C1129 H1119 0.929 . S
C1129 C1127 1.433 1_554 S
C1129 N1132 1.384 1_554 S
C1130 H1121 0.929 . S
C1130 C1122 1.378 . S
C1130 C1125 1.350 . S
C1131 H1118 0.929 . S
C1131 C1123 1.433 . S
C1131 N1133 1.384 . S
N1132 C1128 1.427 . S
N1132 C1129 1.384 1_556 S
N1133 C1125 1.427 . S
N1133 C1131 1.384 . S
H1134 C1140 0.930 . S
H1135 C1144 0.930 . S
H1136 C1149 0.929 . S
H1137 C1147 0.929 . S
H1138 C1142 0.929 . S
H1139 C1148 0.929 . S
C1140 H1134 0.930 . S
C1140 C1141 1.367 1_554 S
C1140 C1148 1.378 . S
C1141 C1140 1.367 1_556 S
C1141 C1149 1.433 . S
C1142 H1138 0.929 . S
C1142 C1144 1.378 . S
C1142 C1146 1.350 1_556 S
C1143 C1146 1.463 1_556 S
C1143 C1148 1.350 1_556 S
C1143 N1151 1.427 . S
C1144 H1135 0.930 . S
C1144 C1142 1.378 . S
C1144 C1145 1.367 1_556 S
C1145 C1144 1.367 1_554 S
C1145 C1147 1.433 . S
C1146 C1142 1.350 1_554 S
C1146 C1143 1.463 1_554 S
C1146 N1150 1.427 . S
C1147 H1137 0.929 . S
C1147 C1145 1.433 . S
C1147 N1150 1.384 . S
C1148 H1139 0.929 . S
C1148 C1140 1.378 . S
C1148 C1143 1.350 1_554 S
C1149 H1136 0.929 . S
C1149 C1141 1.433 . S
C1149 N1151 1.384 . S
N1150 C1146 1.427 . S
N1150 C1147 1.384 . S
N1151 C1143 1.427 . S
N1151 C1149 1.384 . S
H1152 C1158 0.930 . S
H1153 C1162 0.930 1_556 S
H1154 C1167 0.929 . S
H1155 C1165 0.929 . S
H1156 C1160 0.929 . S
H1157 C1166 0.929 . S
C1158 H1152 0.930 . S
C1158 C1159 1.367 . S
C1158 C1166 1.378 . S
C1159 C1158 1.367 . S
C1159 C1167 1.433 . S
C1160 H1156 0.929 . S
C1160 C1162 1.378 . S
C1160 C1164 1.350 . S
C1161 C1164 1.463 . S
C1161 C1166 1.350 . S
C1161 N1169 1.427 . S
C1162 H1153 0.930 1_554 S
C1162 C1160 1.378 . S
C1162 C1163 1.367 . S
C1163 C1162 1.367 . S
C1163 C1165 1.433 . S
C1164 C1160 1.350 . S
C1164 C1161 1.463 . S
C1164 N1168 1.427 . S
C1165 H1155 0.929 . S
C1165 C1163 1.433 . S
C1165 N1168 1.384 . S
C1166 H1157 0.929 . S
C1166 C1158 1.378 . S
C1166 C1161 1.350 . S
C1167 H1154 0.929 . S
C1167 C1159 1.433 . S
C1167 N1169 1.384 . S
N1168 C1164 1.427 . S
N1168 C1165 1.384 . S
N1169 C1161 1.427 . S
N1169 C1167 1.384 . S
H1170 C1176 0.930 . S
H1171 C1180 0.930 . S
H1172 C1185 0.929 . S
H1173 C1183 0.929 . S
H1174 C1178 0.929 . S
H1175 C1184 0.929 . S
C1176 H1170 0.930 . S
C1176 C1177 1.367 . S
C1176 C1184 1.378 . S
C1177 C1176 1.367 . S
C1177 C1185 1.433 . S
C1178 H1174 0.929 . S
C1178 C1180 1.378 . S
C1178 C1182 1.350 . S
C1179 C1182 1.463 . S
C1179 C1184 1.350 . S
C1179 N1187 1.427 . S
C1180 H1171 0.930 . S
C1180 C1178 1.378 . S
C1180 C1181 1.367 . S
C1181 C1180 1.367 . S
C1181 C1183 1.433 . S
C1182 C1178 1.350 . S
C1182 C1179 1.463 . S
C1182 N1186 1.427 . S
C1183 H1173 0.929 . S
C1183 C1181 1.433 . S
C1183 N1186 1.384 . S
C1184 H1175 0.929 . S
C1184 C1176 1.378 . S
C1184 C1179 1.350 . S
C1185 H1172 0.929 . S
C1185 C1177 1.433 . S
C1185 N1187 1.384 . S
N1186 C1182 1.427 . S
N1186 C1183 1.384 . S
N1187 C1179 1.427 . S
N1187 C1185 1.384 . S
H1188 C1194 0.930 . S
H1189 C1198 0.930 . S
H1190 C1203 0.929 . S
H1191 C1201 0.929 . S
H1192 C1196 0.929 . S
H1193 C1202 0.929 . S
C1194 H1188 0.930 . S
C1194 C1195 1.367 . S
C1194 C1202 1.378 . S
C1195 C1194 1.367 . S
C1195 C1203 1.433 . S
C1196 H1192 0.929 . S
C1196 C1198 1.378 . S
C1196 C1200 1.350 . S
C1197 C1200 1.463 . S
C1197 C1202 1.350 . S
C1197 N1205 1.427 . S
C1198 H1189 0.930 . S
C1198 C1196 1.378 . S
C1198 C1199 1.367 . S
C1199 C1198 1.367 . S
C1199 C1201 1.433 . S
C1200 C1196 1.350 . S
C1200 C1197 1.463 . S
C1200 N1204 1.427 . S
C1201 H1191 0.929 . S
C1201 C1199 1.433 . S
C1201 N1204 1.384 . S
C1202 H1193 0.929 . S
C1202 C1194 1.378 . S
C1202 C1197 1.350 . S
C1203 H1190 0.929 . S
C1203 C1195 1.433 . S
C1203 N1205 1.384 . S
N1204 C1200 1.427 . S
N1204 C1201 1.384 . S
N1205 C1197 1.427 . S
N1205 C1203 1.384 . S
H1206 C1212 0.930 . S
H1207 C1216 0.930 . S
H1208 C1221 0.929 . S
H1209 C1219 0.929 . S
H1210 C1214 0.929 . S
H1211 C1220 0.929 1_455 S
C1212 H1206 0.930 . S
C1212 C1213 1.367 . S
C1212 C1220 1.378 . S
C1213 C1212 1.367 . S
C1213 C1221 1.433 . S
C1214 H1210 0.929 . S
C1214 C1216 1.378 . S
C1214 C1218 1.350 . S
C1215 C1218 1.463 1_655 S
C1215 C1220 1.350 . S
C1215 N1223 1.427 . S
C1216 H1207 0.930 . S
C1216 C1214 1.378 . S
C1216 C1217 1.367 . S
C1217 C1216 1.367 . S
C1217 C1219 1.433 . S
C1218 C1214 1.350 . S
C1218 C1215 1.463 1_455 S
C1218 N1222 1.427 . S
C1219 H1209 0.929 . S
C1219 C1217 1.433 . S
C1219 N1222 1.384 . S
C1220 H1211 0.929 1_655 S
C1220 C1212 1.378 . S
C1220 C1215 1.350 . S
C1221 H1208 0.929 . S
C1221 C1213 1.433 . S
C1221 N1223 1.384 . S
N1222 C1218 1.427 . S
N1222 C1219 1.384 . S
N1223 C1215 1.427 . S
N1223 C1221 1.384 . S
H1224 C1230 0.930 . S
H1225 C1234 0.930 . S
H1226 C1239 0.929 . S
H1227 C1237 0.929 . S
H1228 C1232 0.929 . S
H1229 C1238 0.929 . S
C1230 H1224 0.930 . S
C1230 C1231 1.367 . S
C1230 C1238 1.378 . S
C1231 C1230 1.367 . S
C1231 C1239 1.433 . S
C1232 H1228 0.929 . S
C1232 C1234 1.378 . S
C1232 C1236 1.350 . S
C1233 C1236 1.463 . S
C1233 C1238 1.350 . S
C1233 N1241 1.427 . S
C1234 H1225 0.930 . S
C1234 C1232 1.378 . S
C1234 C1235 1.367 . S
C1235 C1234 1.367 . S
C1235 C1237 1.433 . S
C1236 C1232 1.350 . S
C1236 C1233 1.463 . S
C1236 N1240 1.427 . S
C1237 H1227 0.929 . S
C1237 C1235 1.433 . S
C1237 N1240 1.384 . S
C1238 H1229 0.929 . S
C1238 C1230 1.378 . S
C1238 C1233 1.350 . S
C1239 H1226 0.929 . S
C1239 C1231 1.433 . S
C1239 N1241 1.384 . S
N1240 C1236 1.427 . S
N1240 C1237 1.384 . S
N1241 C1233 1.427 . S
N1241 C1239 1.384 . S
H1242 C1248 0.930 . S
H1243 C1252 0.930 . S
H1244 C1257 0.929 . S
H1245 C1255 0.929 . S
H1246 C1250 0.929 . S
H1247 C1256 0.930 . S
C1248 H1242 0.930 . S
C1248 C1249 1.367 . S
C1248 C1256 1.373 1_545 S
C1249 C1248 1.367 . S
C1249 C1257 1.433 . S
C1250 H1246 0.929 . S
C1250 C1252 1.378 . S
C1250 C1254 1.350 . S
C1251 C1254 1.463 . S
C1251 C1256 1.354 . S
C1251 N1259 1.427 1_565 S
C1252 H1243 0.930 . S
C1252 C1250 1.378 . S
C1252 C1253 1.367 . S
C1253 C1252 1.367 . S
C1253 C1255 1.433 . S
C1254 C1250 1.350 . S
C1254 C1251 1.463 . S
C1254 N1258 1.427 . S
C1255 H1245 0.929 . S
C1255 C1253 1.433 . S
C1255 N1258 1.384 . S
C1256 H1247 0.930 . S
C1256 C1248 1.373 1_565 S
C1256 C1251 1.354 . S
C1257 H1244 0.929 . S
C1257 C1249 1.433 . S
C1257 N1259 1.384 . S
N1258 C1254 1.427 . S
N1258 C1255 1.384 . S
N1259 C1251 1.427 1_545 S
N1259 C1257 1.384 . S
H1260 C1266 0.930 . S
H1261 C1270 0.930 . S
H1262 C1275 0.929 . S
H1263 C1273 0.929 . S
H1264 C1268 0.929 . S
H1265 C1274 0.929 . S
C1266 H1260 0.930 . S
C1266 C1267 1.367 . S
C1266 C1274 1.378 . S
C1267 C1266 1.367 . S
C1267 C1275 1.433 . S
C1268 H1264 0.929 . S
C1268 C1270 1.378 . S
C1268 C1272 1.350 . S
C1269 C1272 1.463 . S
C1269 C1274 1.350 . S
C1269 N1277 1.427 . S
C1270 H1261 0.930 . S
C1270 C1268 1.378 . S
C1270 C1271 1.367 . S
C1271 C1270 1.367 . S
C1271 C1273 1.433 . S
C1272 C1268 1.350 . S
C1272 C1269 1.463 . S
C1272 N1276 1.427 . S
C1273 H1263 0.929 . S
C1273 C1271 1.433 . S
C1273 N1276 1.384 . S
C1274 H1265 0.929 . S
C1274 C1266 1.378 . S
C1274 C1269 1.350 . S
C1275 H1262 0.929 . S
C1275 C1267 1.433 . S
C1275 N1277 1.384 . S
N1276 C1272 1.427 . S
N1276 C1273 1.384 . S
N1277 C1269 1.427 . S
N1277 C1275 1.384 . S
H1278 C1284 0.930 . S
H1279 C1288 0.930 . S
H1280 C1293 0.929 . S
H1281 C1291 0.929 . S
H1282 C1286 0.929 . S
H1283 C1292 0.929 . S
C1284 H1278 0.930 . S
C1284 C1285 1.367 . S
C1284 C1292 1.378 . S
C1285 C1284 1.367 . S
C1285 C1293 1.433 . S
C1286 H1282 0.929 . S
C1286 C1288 1.378 . S
C1286 C1290 1.350 . S
C1287 C1290 1.463 . S
C1287 C1292 1.350 . S
C1287 N1295 1.427 . S
C1288 H1279 0.930 . S
C1288 C1286 1.378 . S
C1288 C1289 1.367 . S
C1289 C1288 1.367 . S
C1289 C1291 1.433 . S
C1290 C1286 1.350 . S
C1290 C1287 1.463 . S
C1290 N1294 1.427 . S
C1291 H1281 0.929 . S
C1291 C1289 1.433 . S
C1291 N1294 1.384 . S
C1292 H1283 0.929 . S
C1292 C1284 1.378 . S
C1292 C1287 1.350 . S
C1293 H1280 0.929 . S
C1293 C1285 1.433 . S
C1293 N1295 1.384 . S
N1294 C1290 1.427 . S
N1294 C1291 1.384 . S
N1295 C1287 1.427 . S
N1295 C1293 1.384 . S
H1296 C1302 0.930 . S
H1297 C1306 0.930 . S
H1298 C1311 0.929 . S
H1299 C1309 0.929 . S
H1300 C1304 0.929 . S
H1301 C1310 0.929 . S
C1302 H1296 0.930 . S
C1302 C1303 1.367 . S
C1302 C1310 1.378 . S
C1303 C1302 1.367 . S
C1303 C1311 1.433 . S
C1304 H1300 0.929 . S
C1304 C1306 1.378 . S
C1304 C1308 1.350 . S
C1305 C1308 1.463 . S
C1305 C1310 1.350 . S
C1305 N1313 1.427 . S
C1306 H1297 0.930 . S
C1306 C1304 1.378 . S
C1306 C1307 1.367 . S
C1307 C1306 1.367 . S
C1307 C1309 1.433 . S
C1308 C1304 1.350 . S
C1308 C1305 1.463 . S
C1308 N1312 1.427 . S
C1309 H1299 0.929 . S
C1309 C1307 1.433 . S
C1309 N1312 1.384 . S
C1310 H1301 0.929 . S
C1310 C1302 1.378 . S
C1310 C1305 1.350 . S
C1311 H1298 0.929 . S
C1311 C1303 1.433 . S
C1311 N1313 1.384 . S
N1312 C1308 1.427 . S
N1312 C1309 1.384 . S
N1313 C1305 1.427 . S
N1313 C1311 1.384 . S
H1314 C1320 0.930 . S
H1315 C1324 0.930 . S
H1316 C1329 0.929 . S
H1317 C1327 0.929 . S
H1318 C1322 0.929 . S
H1319 C1328 0.929 . S
C1320 H1314 0.930 . S
C1320 C1321 1.367 . S
C1320 C1328 1.378 . S
C1321 C1320 1.367 . S
C1321 C1329 1.433 . S
C1322 H1318 0.929 . S
C1322 C1324 1.378 . S
C1322 C1326 1.350 . S
C1323 C1326 1.463 . S
C1323 C1328 1.350 . S
C1323 N1331 1.427 . S
C1324 H1315 0.930 . S
C1324 C1322 1.378 . S
C1324 C1325 1.367 . S
C1325 C1324 1.367 . S
C1325 C1327 1.433 . S
C1326 C1322 1.350 . S
C1326 C1323 1.463 . S
C1326 N1330 1.427 . S
C1327 H1317 0.929 . S
C1327 C1325 1.433 . S
C1327 N1330 1.384 . S
C1328 H1319 0.929 . S
C1328 C1320 1.378 . S
C1328 C1323 1.350 . S
C1329 H1316 0.929 . S
C1329 C1321 1.433 . S
C1329 N1331 1.384 . S
N1330 C1326 1.427 . S
N1330 C1327 1.384 . S
N1331 C1323 1.427 . S
N1331 C1329 1.384 . S
H1332 C1338 0.930 . S
H1333 C1342 0.930 . S
H1334 C1347 0.929 . S
H1335 C1345 0.929 . S
H1336 C1340 0.929 . S
H1337 C1346 0.929 . S
C1338 H1332 0.930 . S
C1338 C1339 1.367 . S
C1338 C1346 1.378 . S
C1339 C1338 1.367 . S
C1339 C1347 1.433 . S
C1340 H1336 0.929 . S
C1340 C1342 1.378 . S
C1340 C1344 1.350 . S
C1341 C1344 1.463 . S
C1341 C1346 1.350 . S
C1341 N1349 1.427 . S
C1342 H1333 0.930 . S
C1342 C1340 1.378 . S
C1342 C1343 1.367 . S
C1343 C1342 1.367 . S
C1343 C1345 1.433 . S
C1344 C1340 1.350 . S
C1344 C1341 1.463 . S
C1344 N1348 1.427 . S
C1345 H1335 0.929 . S
C1345 C1343 1.433 . S
C1345 N1348 1.384 . S
C1346 H1337 0.929 . S
C1346 C1338 1.378 . S
C1346 C1341 1.350 . S
C1347 H1334 0.929 . S
C1347 C1339 1.433 . S
C1347 N1349 1.384 . S
N1348 C1344 1.427 . S
N1348 C1345 1.384 . S
N1349 C1341 1.427 . S
N1349 C1347 1.384 . S
H1350 C1356 0.930 . S
H1351 C1360 0.930 . S
H1352 C1365 0.929 . S
H1353 C1363 0.929 . S
H1354 C1358 0.929 . S
H1355 C1364 0.929 . S
C1356 H1350 0.930 . S
C1356 C1357 1.367 . S
C1356 C1364 1.378 . S
C1357 C1356 1.367 . S
C1357 C1365 1.433 . S
C1358 H1354 0.929 . S
C1358 C1360 1.378 . S
C1358 C1362 1.350 . S
C1359 C1362 1.463 . S
C1359 C1364 1.350 . S
C1359 N1367 1.427 . S
C1360 H1351 0.930 . S
C1360 C1358 1.378 . S
C1360 C1361 1.367 . S
C1361 C1360 1.367 . S
C1361 C1363 1.433 . S
C1362 C1358 1.350 . S
C1362 C1359 1.463 . S
C1362 N1366 1.427 . S
C1363 H1353 0.929 . S
C1363 C1361 1.433 . S
C1363 N1366 1.384 . S
C1364 H1355 0.929 . S
C1364 C1356 1.378 . S
C1364 C1359 1.350 . S
C1365 H1352 0.929 . S
C1365 C1357 1.433 . S
C1365 N1367 1.384 . S
N1366 C1362 1.427 . S
N1366 C1363 1.384 . S
N1367 C1359 1.427 . S
N1367 C1365 1.384 . S
H1368 C1374 0.930 . S
H1369 C1378 0.930 . S
H1370 C1383 0.929 . S
H1371 C1381 0.929 . S
H1372 C1376 0.929 1_545 S
H1373 C1382 0.929 1_565 S
C1374 H1368 0.930 . S
C1374 C1375 1.367 . S
C1374 C1382 1.378 . S
C1375 C1374 1.367 . S
C1375 C1383 1.433 . S
C1376 H1372 0.929 1_565 S
C1376 C1378 1.378 . S
C1376 C1380 1.350 . S
C1377 C1380 1.463 1_545 S
C1377 C1382 1.350 . S
C1377 N1385 1.427 . S
C1378 H1369 0.930 . S
C1378 C1376 1.378 . S
C1378 C1379 1.367 . S
C1379 C1378 1.367 . S
C1379 C1381 1.433 . S
C1380 C1376 1.350 . S
C1380 C1377 1.463 1_565 S
C1380 N1384 1.427 . S
C1381 H1371 0.929 . S
C1381 C1379 1.433 . S
C1381 N1384 1.384 . S
C1382 H1373 0.929 1_545 S
C1382 C1374 1.378 . S
C1382 C1377 1.350 . S
C1383 H1370 0.929 . S
C1383 C1375 1.433 . S
C1383 N1385 1.384 . S
N1384 C1380 1.427 . S
N1384 C1381 1.384 . S
N1385 C1377 1.427 . S
N1385 C1383 1.384 . S
H1386 C1392 0.930 . S
H1387 C1396 0.930 . S
H1388 C1401 0.929 . S
H1389 C1399 0.929 . S
H1390 C1394 0.929 . S
H1391 C1400 0.929 . S
C1392 H1386 0.930 . S
C1392 C1393 1.367 . S
C1392 C1400 1.378 . S
C1393 C1392 1.367 . S
C1393 C1401 1.433 . S
C1394 H1390 0.929 . S
C1394 C1396 1.378 . S
C1394 C1398 1.350 . S
C1395 C1398 1.463 . S
C1395 C1400 1.350 1_455 S
C1395 N1403 1.427 . S
C1396 H1387 0.930 . S
C1396 C1394 1.378 . S
C1396 C1397 1.367 . S
C1397 C1396 1.367 . S
C1397 C1399 1.433 . S
C1398 C1394 1.350 . S
C1398 C1395 1.463 . S
C1398 N1402 1.427 . S
C1399 H1389 0.929 . S
C1399 C1397 1.433 . S
C1399 N1402 1.384 . S
C1400 H1391 0.929 . S
C1400 C1392 1.378 . S
C1400 C1395 1.350 1_655 S
C1401 H1388 0.929 . S
C1401 C1393 1.433 . S
C1401 N1403 1.384 1_655 S
N1402 C1398 1.427 . S
N1402 C1399 1.384 . S
N1403 C1395 1.427 . S
N1403 C1401 1.384 1_455 S
H1404 C1410 0.930 . S
H1405 C1414 0.930 . S
H1406 C1419 0.929 . S
H1407 C1417 0.929 . S
H1408 C1412 0.929 . S
H1409 C1418 0.929 . S
C1410 H1404 0.930 . S
C1410 C1411 1.367 . S
C1410 C1418 1.378 . S
C1411 C1410 1.367 . S
C1411 C1419 1.433 . S
C1412 H1408 0.929 . S
C1412 C1414 1.378 . S
C1412 C1416 1.350 . S
C1413 C1416 1.463 . S
C1413 C1418 1.350 . S
C1413 N1421 1.427 . S
C1414 H1405 0.930 . S
C1414 C1412 1.378 . S
C1414 C1415 1.367 . S
C1415 C1414 1.367 . S
C1415 C1417 1.433 . S
C1416 C1412 1.350 . S
C1416 C1413 1.463 . S
C1416 N1420 1.427 . S
C1417 H1407 0.929 . S
C1417 C1415 1.433 . S
C1417 N1420 1.384 . S
C1418 H1409 0.929 . S
C1418 C1410 1.378 . S
C1418 C1413 1.350 . S
C1419 H1406 0.929 . S
C1419 C1411 1.433 . S
C1419 N1421 1.384 . S
N1420 C1416 1.427 . S
N1420 C1417 1.384 . S
N1421 C1413 1.427 . S
N1421 C1419 1.384 . S
H1422 C1428 0.930 . S
H1423 C1432 0.930 . S
H1424 C1437 0.929 . S
H1425 C1435 0.929 . S
H1426 C1430 0.929 . S
H1427 C1436 0.929 . S
C1428 H1422 0.930 . S
C1428 C1429 1.367 . S
C1428 C1436 1.378 . S
C1429 C1428 1.367 . S
C1429 C1437 1.433 . S
C1430 H1426 0.929 . S
C1430 C1432 1.378 . S
C1430 C1434 1.350 . S
C1431 C1434 1.463 . S
C1431 C1436 1.350 . S
C1431 N1439 1.427 . S
C1432 H1423 0.930 . S
C1432 C1430 1.378 . S
C1432 C1433 1.367 . S
C1433 C1432 1.367 . S
C1433 C1435 1.433 . S
C1434 C1430 1.350 . S
C1434 C1431 1.463 . S
C1434 N1438 1.427 . S
C1435 H1425 0.929 . S
C1435 C1433 1.433 . S
C1435 N1438 1.384 . S
C1436 H1427 0.929 . S
C1436 C1428 1.378 . S
C1436 C1431 1.350 . S
C1437 H1424 0.929 . S
C1437 C1429 1.433 . S
C1437 N1439 1.384 . S
N1438 C1434 1.427 . S
N1438 C1435 1.384 . S
N1439 C1431 1.427 . S
N1439 C1437 1.384 . S
H1440 C1446 0.930 . S
H1441 C1450 0.930 . S
H1442 C1455 0.929 . S
H1443 C1453 0.929 . S
H1444 C1448 0.929 . S
H1445 C1454 0.929 . S
C1446 H1440 0.930 . S
C1446 C1447 1.367 . S
C1446 C1454 1.378 . S
C1447 C1446 1.367 . S
C1447 C1455 1.433 . S
C1448 H1444 0.929 . S
C1448 C1450 1.378 . S
C1448 C1452 1.350 . S
C1449 C1452 1.463 . S
C1449 C1454 1.350 . S
C1449 N1457 1.427 . S
C1450 H1441 0.930 . S
C1450 C1448 1.378 . S
C1450 C1451 1.367 . S
C1451 C1450 1.367 . S
C1451 C1453 1.433 . S
C1452 C1448 1.350 . S
C1452 C1449 1.463 . S
C1452 N1456 1.427 . S
C1453 H1443 0.929 . S
C1453 C1451 1.433 . S
C1453 N1456 1.384 . S
C1454 H1445 0.929 . S
C1454 C1446 1.378 . S
C1454 C1449 1.350 . S
C1455 H1442 0.929 . S
C1455 C1447 1.433 . S
C1455 N1457 1.384 . S
N1456 C1452 1.427 . S
N1456 C1453 1.384 . S
N1457 C1449 1.427 . S
N1457 C1455 1.384 . S
H1458 C1464 0.930 . S
H1459 C1468 0.930 . S
H1460 C1473 0.929 . S
H1461 C1471 0.929 . S
H1462 C1466 0.929 . S
H1463 C1472 0.929 . S
C1464 H1458 0.930 . S
C1464 C1465 1.367 . S
C1464 C1472 1.378 . S
C1465 C1464 1.367 . S
C1465 C1473 1.433 . S
C1466 H1462 0.929 . S
C1466 C1468 1.378 . S
C1466 C1470 1.350 . S
C1467 C1470 1.463 . S
C1467 C1472 1.350 . S
C1467 N1475 1.427 . S
C1468 H1459 0.930 . S
C1468 C1466 1.378 . S
C1468 C1469 1.367 . S
C1469 C1468 1.367 . S
C1469 C1471 1.433 . S
C1470 C1466 1.350 . S
C1470 C1467 1.463 . S
C1470 N1474 1.427 . S
C1471 H1461 0.929 . S
C1471 C1469 1.433 . S
C1471 N1474 1.384 . S
C1472 H1463 0.929 . S
C1472 C1464 1.378 . S
C1472 C1467 1.350 . S
C1473 H1460 0.929 . S
C1473 C1465 1.433 . S
C1473 N1475 1.384 . S
N1474 C1470 1.427 . S
N1474 C1471 1.384 . S
N1475 C1467 1.427 . S
N1475 C1473 1.384 . S
H1476 C1482 0.930 . S
H1477 C1486 0.930 . S
H1478 C1491 0.929 . S
H1479 C1489 0.929 . S
H1480 C1484 0.929 . S
H1481 C1490 0.929 . S
C1482 H1476 0.930 . S
C1482 C1483 1.367 . S
C1482 C1490 1.378 1_565 S
C1483 C1482 1.367 . S
C1483 C1491 1.433 . S
C1484 H1480 0.929 . S
C1484 C1486 1.378 . S
C1484 C1488 1.350 . S
C1485 C1488 1.463 . S
C1485 C1490 1.350 . S
C1485 N1493 1.427 1_545 S
C1486 H1477 0.930 . S
C1486 C1484 1.378 . S
C1486 C1487 1.367 . S
C1487 C1486 1.367 . S
C1487 C1489 1.433 . S
C1488 C1484 1.350 . S
C1488 C1485 1.463 . S
C1488 N1492 1.427 . S
C1489 H1479 0.929 . S
C1489 C1487 1.433 . S
C1489 N1492 1.384 . S
C1490 H1481 0.929 . S
C1490 C1482 1.378 1_545 S
C1490 C1485 1.350 . S
C1491 H1478 0.929 . S
C1491 C1483 1.433 . S
C1491 N1493 1.384 . S
N1492 C1488 1.427 . S
N1492 C1489 1.384 . S
N1493 C1485 1.427 1_565 S
N1493 C1491 1.384 . S
H1494 C1500 0.933 . S
H1495 C1504 0.930 . S
H1496 C1509 0.929 . S
H1497 C1507 0.929 . S
H1498 C1502 0.929 . S
H1499 C1508 0.929 . S
C1500 H1494 0.933 . S
C1500 C1501 1.367 1_655 S
C1500 C1508 1.378 . S
C1501 C1500 1.367 1_455 S
C1501 C1509 1.433 . S
C1502 H1498 0.929 . S
C1502 C1504 1.378 . S
C1502 C1506 1.350 . S
C1503 C1506 1.463 . S
C1503 C1508 1.350 . S
C1503 N1511 1.427 . S
C1504 H1495 0.930 . S
C1504 C1502 1.378 . S
C1504 C1505 1.367 . S
C1505 C1504 1.367 . S
C1505 C1507 1.433 . S
C1506 C1502 1.350 . S
C1506 C1503 1.463 . S
C1506 N1510 1.427 . S
C1507 H1497 0.929 . S
C1507 C1505 1.433 . S
C1507 N1510 1.384 . S
C1508 H1499 0.929 . S
C1508 C1500 1.378 . S
C1508 C1503 1.350 . S
C1509 H1496 0.929 . S
C1509 C1501 1.433 . S
C1509 N1511 1.384 1_455 S
N1510 C1506 1.427 . S
N1510 C1507 1.384 . S
N1511 C1503 1.427 . S
N1511 C1509 1.384 1_655 S
H1512 C1518 0.930 . S
H1513 C1522 0.930 . S
H1514 C1527 0.929 . S
H1515 C1525 0.929 . S
H1516 C1520 0.929 . S
H1517 C1526 0.929 . S
C1518 H1512 0.930 . S
C1518 C1519 1.367 . S
C1518 C1526 1.378 . S
C1519 C1518 1.367 . S
C1519 C1527 1.433 . S
C1520 H1516 0.929 . S
C1520 C1522 1.378 . S
C1520 C1524 1.350 . S
C1521 C1524 1.463 . S
C1521 C1526 1.350 . S
C1521 N1529 1.427 . S
C1522 H1513 0.930 . S
C1522 C1520 1.378 . S
C1522 C1523 1.367 . S
C1523 C1522 1.367 . S
C1523 C1525 1.433 . S
C1524 C1520 1.350 . S
C1524 C1521 1.463 . S
C1524 N1528 1.427 . S
C1525 H1515 0.929 . S
C1525 C1523 1.433 . S
C1525 N1528 1.384 . S
C1526 H1517 0.929 . S
C1526 C1518 1.378 . S
C1526 C1521 1.350 . S
C1527 H1514 0.929 . S
C1527 C1519 1.433 . S
C1527 N1529 1.384 . S
N1528 C1524 1.427 . S
N1528 C1525 1.384 . S
N1529 C1521 1.427 . S
N1529 C1527 1.384 . S
H1530 C1536 0.930 . S
H1531 C1540 0.930 . S
H1532 C1545 0.929 . S
H1533 C1543 0.929 . S
H1534 C1538 0.929 . S
H1535 C1544 0.929 . S
C1536 H1530 0.930 . S
C1536 C1537 1.367 . S
C1536 C1544 1.378 . S
C1537 C1536 1.367 . S
C1537 C1545 1.433 . S
C1538 H1534 0.929 . S
C1538 C1540 1.378 . S
C1538 C1542 1.346 1_655 S
C1539 C1542 1.470 . S
C1539 C1544 1.350 . S
C1539 N1547 1.427 . S
C1540 H1531 0.930 . S
C1540 C1538 1.378 . S
C1540 C1541 1.367 . S
C1541 C1540 1.367 . S
C1541 C1543 1.433 . S
C1542 C1538 1.346 1_455 S
C1542 C1539 1.470 . S
C1542 N1546 1.425 1_455 S
C1543 H1533 0.929 . S
C1543 C1541 1.433 . S
C1543 N1546 1.384 . S
C1544 H1535 0.929 . S
C1544 C1536 1.378 . S
C1544 C1539 1.350 . S
C1545 H1532 0.929 . S
C1545 C1537 1.433 . S
C1545 N1547 1.384 . S
N1546 C1542 1.425 1_655 S
N1546 C1543 1.384 . S
N1547 C1539 1.427 . S
N1547 C1545 1.384 . S
H1548 C1554 0.930 . S
H1549 C1558 0.930 . S
H1550 C1563 0.929 . S
H1551 C1561 0.929 . S
H1552 C1556 0.929 . S
H1553 C1562 0.929 . S
C1554 H1548 0.930 . S
C1554 C1555 1.367 . S
C1554 C1562 1.378 . S
C1555 C1554 1.367 . S
C1555 C1563 1.433 . S
C1556 H1552 0.929 . S
C1556 C1558 1.378 . S
C1556 C1560 1.350 . S
C1557 C1560 1.463 . S
C1557 C1562 1.350 . S
C1557 N1565 1.427 . S
C1558 H1549 0.930 . S
C1558 C1556 1.378 . S
C1558 C1559 1.367 . S
C1559 C1558 1.367 . S
C1559 C1561 1.433 . S
C1560 C1556 1.350 . S
C1560 C1557 1.463 . S
C1560 N1564 1.427 . S
C1561 H1551 0.929 . S
C1561 C1559 1.433 . S
C1561 N1564 1.384 . S
C1562 H1553 0.929 . S
C1562 C1554 1.378 . S
C1562 C1557 1.350 . S
C1563 H1550 0.929 . S
C1563 C1555 1.433 . S
C1563 N1565 1.384 . S
N1564 C1560 1.427 . S
N1564 C1561 1.384 . S
N1565 C1557 1.427 . S
N1565 C1563 1.384 . S
H1566 C1572 0.930 . S
H1567 C1576 0.930 . S
H1568 C1581 0.929 . S
H1569 C1579 0.929 . S
H1570 C1574 0.929 . S
H1571 C1580 0.929 . S
C1572 H1566 0.930 . S
C1572 C1573 1.367 . S
C1572 C1580 1.378 . S
C1573 C1572 1.367 . S
C1573 C1581 1.433 . S
C1574 H1570 0.929 . S
C1574 C1576 1.378 . S
C1574 C1578 1.350 . S
C1575 C1578 1.463 1_565 S
C1575 C1580 1.350 . S
C1575 N1583 1.427 . S
C1576 H1567 0.930 . S
C1576 C1574 1.378 . S
C1576 C1577 1.367 . S
C1577 C1576 1.367 . S
C1577 C1579 1.433 . S
C1578 C1574 1.350 . S
C1578 C1575 1.463 1_545 S
C1578 N1582 1.427 . S
C1579 H1569 0.929 . S
C1579 C1577 1.433 . S
C1579 N1582 1.384 . S
C1580 H1571 0.929 . S
C1580 C1572 1.378 . S
C1580 C1575 1.350 . S
C1581 H1568 0.929 . S
C1581 C1573 1.433 . S
C1581 N1583 1.384 . S
N1582 C1578 1.427 . S
N1582 C1579 1.384 . S
N1583 C1575 1.427 . S
N1583 C1581 1.384 . S
H1584 C1590 0.930 . S
H1585 C1594 0.930 . S
H1586 C1599 0.929 . S
H1587 C1597 0.929 . S
H1588 C1592 0.929 . S
H1589 C1598 0.929 . S
C1590 H1584 0.930 . S
C1590 C1591 1.367 . S
C1590 C1598 1.378 . S
C1591 C1590 1.367 . S
C1591 C1599 1.433 . S
C1592 H1588 0.929 . S
C1592 C1594 1.378 . S
C1592 C1596 1.350 . S
C1593 C1596 1.463 . S
C1593 C1598 1.350 . S
C1593 N1601 1.427 . S
C1594 H1585 0.930 . S
C1594 C1592 1.378 . S
C1594 C1595 1.367 . S
C1595 C1594 1.367 . S
C1595 C1597 1.433 . S
C1596 C1592 1.350 . S
C1596 C1593 1.463 . S
C1596 N1600 1.427 . S
C1597 H1587 0.929 . S
C1597 C1595 1.433 . S
C1597 N1600 1.384 . S
C1598 H1589 0.929 . S
C1598 C1590 1.378 . S
C1598 C1593 1.350 . S
C1599 H1586 0.929 . S
C1599 C1591 1.433 . S
C1599 N1601 1.384 . S
N1600 C1596 1.427 . S
N1600 C1597 1.384 . S
N1601 C1593 1.427 . S
N1601 C1599 1.384 . S
H1602 C1608 0.930 . S
H1603 C1612 0.930 . S
H1604 C1617 0.929 . S
H1605 C1615 0.929 . S
H1606 C1610 0.929 . S
H1607 C1616 0.929 . S
C1608 H1602 0.930 . S
C1608 C1609 1.367 . S
C1608 C1616 1.378 . S
C1609 C1608 1.367 . S
C1609 C1617 1.433 . S
C1610 H1606 0.929 . S
C1610 C1612 1.378 . S
C1610 C1614 1.350 . S
C1611 C1614 1.463 . S
C1611 C1616 1.350 . S
C1611 N1619 1.427 . S
C1612 H1603 0.930 . S
C1612 C1610 1.378 . S
C1612 C1613 1.367 . S
C1613 C1612 1.367 . S
C1613 C1615 1.433 . S
C1614 C1610 1.350 . S
C1614 C1611 1.463 . S
C1614 N1618 1.427 . S
C1615 H1605 0.929 . S
C1615 C1613 1.433 . S
C1615 N1618 1.384 . S
C1616 H1607 0.929 . S
C1616 C1608 1.378 . S
C1616 C1611 1.350 . S
C1617 H1604 0.929 . S
C1617 C1609 1.433 . S
C1617 N1619 1.384 . S
N1618 C1614 1.427 . S
N1618 C1615 1.384 . S
N1619 C1611 1.427 . S
N1619 C1617 1.384 . S
H1620 C1626 0.930 . S
H1621 C1630 0.930 . S
H1622 C1635 0.929 . S
H1623 C1633 0.929 . S
H1624 C1628 0.929 . S
H1625 C1634 0.929 . S
C1626 H1620 0.930 . S
C1626 C1627 1.367 . S
C1626 C1634 1.378 . S
C1627 C1626 1.367 . S
C1627 C1635 1.433 . S
C1628 H1624 0.929 . S
C1628 C1630 1.378 . S
C1628 C1632 1.350 . S
C1629 C1632 1.463 . S
C1629 C1634 1.350 . S
C1629 N1637 1.427 . S
C1630 H1621 0.930 . S
C1630 C1628 1.378 . S
C1630 C1631 1.367 . S
C1631 C1630 1.367 . S
C1631 C1633 1.433 . S
C1632 C1628 1.350 . S
C1632 C1629 1.463 . S
C1632 N1636 1.427 . S
C1633 H1623 0.929 . S
C1633 C1631 1.433 . S
C1633 N1636 1.384 . S
C1634 H1625 0.929 . S
C1634 C1626 1.378 . S
C1634 C1629 1.350 . S
C1635 H1622 0.929 . S
C1635 C1627 1.433 . S
C1635 N1637 1.384 . S
N1636 C1632 1.427 . S
N1636 C1633 1.384 . S
N1637 C1629 1.427 . S
N1637 C1635 1.384 . S
H1638 C1644 0.930 . S
H1639 C1648 0.930 . S
H1640 C1653 0.929 . S
H1641 C1651 0.929 . S
H1642 C1646 0.929 . S
H1643 C1652 0.929 . S
C1644 H1638 0.930 . S
C1644 C1645 1.367 . S
C1644 C1652 1.378 . S
C1645 C1644 1.367 . S
C1645 C1653 1.433 . S
C1646 H1642 0.929 . S
C1646 C1648 1.378 . S
C1646 C1650 1.350 . S
C1647 C1650 1.463 . S
C1647 C1652 1.350 . S
C1647 N1655 1.427 . S
C1648 H1639 0.930 . S
C1648 C1646 1.378 . S
C1648 C1649 1.367 . S
C1649 C1648 1.367 . S
C1649 C1651 1.433 . S
C1650 C1646 1.350 . S
C1650 C1647 1.463 . S
C1650 N1654 1.427 . S
C1651 H1641 0.929 . S
C1651 C1649 1.433 . S
C1651 N1654 1.384 . S
C1652 H1643 0.929 . S
C1652 C1644 1.378 . S
C1652 C1647 1.350 . S
C1653 H1640 0.929 . S
C1653 C1645 1.433 . S
C1653 N1655 1.384 . S
N1654 C1650 1.427 . S
N1654 C1651 1.384 . S
N1655 C1647 1.427 . S
N1655 C1653 1.384 . S
H1656 C1662 0.930 . S
H1657 C1666 0.930 . S
H1658 C1671 0.929 . S
H1659 C1669 0.929 . S
H1660 C1664 0.929 . S
H1661 C1670 0.929 . S
C1662 H1656 0.930 . S
C1662 C1663 1.367 . S
C1662 C1670 1.378 . S
C1663 C1662 1.367 . S
C1663 C1671 1.433 . S
C1664 H1660 0.929 . S
C1664 C1666 1.378 . S
C1664 C1668 1.350 . S
C1665 C1668 1.463 . S
C1665 C1670 1.350 . S
C1665 N1673 1.427 . S
C1666 H1657 0.930 . S
C1666 C1664 1.378 . S
C1666 C1667 1.367 . S
C1667 C1666 1.367 . S
C1667 C1669 1.433 . S
C1668 C1664 1.350 . S
C1668 C1665 1.463 . S
C1668 N1672 1.427 . S
C1669 H1659 0.929 . S
C1669 C1667 1.433 . S
C1669 N1672 1.384 . S
C1670 H1661 0.929 . S
C1670 C1662 1.378 . S
C1670 C1665 1.350 . S
C1671 H1658 0.929 . S
C1671 C1663 1.433 . S
C1671 N1673 1.384 . S
N1672 C1668 1.427 . S
N1672 C1669 1.384 . S
N1673 C1665 1.427 . S
N1673 C1671 1.384 . S
H1674 C1680 0.930 . S
H1675 C1684 0.930 . S
H1676 C1689 0.929 . S
H1677 C1687 0.929 . S
H1678 C1682 0.929 . S
H1679 C1688 0.929 . S
C1680 H1674 0.930 . S
C1680 C1681 1.367 . S
C1680 C1688 1.378 . S
C1681 C1680 1.367 . S
C1681 C1689 1.433 . S
C1682 H1678 0.929 . S
C1682 C1684 1.378 . S
C1682 C1686 1.350 . S
C1683 C1686 1.463 . S
C1683 C1688 1.350 . S
C1683 N1691 1.427 . S
C1684 H1675 0.930 . S
C1684 C1682 1.378 . S
C1684 C1685 1.367 . S
C1685 C1684 1.367 . S
C1685 C1687 1.433 . S
C1686 C1682 1.350 . S
C1686 C1683 1.463 . S
C1686 N1690 1.427 . S
C1687 H1677 0.929 . S
C1687 C1685 1.433 . S
C1687 N1690 1.384 . S
C1688 H1679 0.929 . S
C1688 C1680 1.378 . S
C1688 C1683 1.350 . S
C1689 H1676 0.929 . S
C1689 C1681 1.433 . S
C1689 N1691 1.384 . S
N1690 C1686 1.427 . S
N1690 C1687 1.384 . S
N1691 C1683 1.427 . S
N1691 C1689 1.384 . S
H1692 C1698 0.930 . S
H1693 C1702 0.930 . S
H1694 C1707 0.929 . S
H1695 C1705 0.929 . S
H1696 C1700 0.929 . S
H1697 C1706 0.929 . S
C1698 H1692 0.930 . S
C1698 C1699 1.367 . S
C1698 C1706 1.378 . S
C1699 C1698 1.367 . S
C1699 C1707 1.433 . S
C1700 H1696 0.929 . S
C1700 C1702 1.378 . S
C1700 C1704 1.350 . S
C1701 C1704 1.463 . S
C1701 C1706 1.350 . S
C1701 N1709 1.427 . S
C1702 H1693 0.930 . S
C1702 C1700 1.378 . S
C1702 C1703 1.367 . S
C1703 C1702 1.367 . S
C1703 C1705 1.433 . S
C1704 C1700 1.350 . S
C1704 C1701 1.463 . S
C1704 N1708 1.427 . S
C1705 H1695 0.929 . S
C1705 C1703 1.433 . S
C1705 N1708 1.384 . S
C1706 H1697 0.929 . S
C1706 C1698 1.378 . S
C1706 C1701 1.350 . S
C1707 H1694 0.929 . S
C1707 C1699 1.433 . S
C1707 N1709 1.384 . S
N1708 C1704 1.427 . S
N1708 C1705 1.384 . S
N1709 C1701 1.427 . S
N1709 C1707 1.384 . S
H1710 C1716 0.930 . S
H1711 C1720 0.930 . S
H1712 C1725 0.929 . S
H1713 C1723 0.929 . S
H1714 C1718 0.929 . S
H1715 C1724 0.929 . S
C1716 H1710 0.930 . S
C1716 C1717 1.367 . S
C1716 C1724 1.378 . S
C1717 C1716 1.367 . S
C1717 C1725 1.433 . S
C1718 H1714 0.929 . S
C1718 C1720 1.378 . S
C1718 C1722 1.350 . S
C1719 C1722 1.463 . S
C1719 C1724 1.350 . S
C1719 N1727 1.427 . S
C1720 H1711 0.930 . S
C1720 C1718 1.378 . S
C1720 C1721 1.367 . S
C1721 C1720 1.367 . S
C1721 C1723 1.433 . S
C1722 C1718 1.350 . S
C1722 C1719 1.463 . S
C1722 N1726 1.427 . S
C1723 H1713 0.929 . S
C1723 C1721 1.433 . S
C1723 N1726 1.384 . S
C1724 H1715 0.929 . S
C1724 C1716 1.378 . S
C1724 C1719 1.350 . S
C1725 H1712 0.929 . S
C1725 C1717 1.433 . S
C1725 N1727 1.384 . S
N1726 C1722 1.427 . S
N1726 C1723 1.384 . S
N1727 C1719 1.427 . S
N1727 C1725 1.384 . S
H1728 C1734 0.930 . S
H1729 C1738 0.930 . S
H1730 C1743 0.929 . S
H1731 C1741 0.929 . S
H1732 C1736 0.929 . S
H1733 C1742 0.929 . S
C1734 H1728 0.930 . S
C1734 C1735 1.367 . S
C1734 C1742 1.378 . S
C1735 C1734 1.367 . S
C1735 C1743 1.433 . S
C1736 H1732 0.929 . S
C1736 C1738 1.378 . S
C1736 C1740 1.350 . S
C1737 C1740 1.463 . S
C1737 C1742 1.350 . S
C1737 N1745 1.427 . S
C1738 H1729 0.930 . S
C1738 C1736 1.378 . S
C1738 C1739 1.367 . S
C1739 C1738 1.367 . S
C1739 C1741 1.433 . S
C1740 C1736 1.350 . S
C1740 C1737 1.463 . S
C1740 N1744 1.427 . S
C1741 H1731 0.929 . S
C1741 C1739 1.433 . S
C1741 N1744 1.384 . S
C1742 H1733 0.929 . S
C1742 C1734 1.378 . S
C1742 C1737 1.350 . S
C1743 H1730 0.929 . S
C1743 C1735 1.433 . S
C1743 N1745 1.384 . S
N1744 C1740 1.427 . S
N1744 C1741 1.384 . S
N1745 C1737 1.427 . S
N1745 C1743 1.384 . S
H1746 C1752 0.930 . S
H1747 C1756 0.930 . S
H1748 C1761 0.929 . S
H1749 C1759 0.929 . S
H1750 C1754 0.929 . S
H1751 C1760 0.929 . S
C1752 H1746 0.930 . S
C1752 C1753 1.367 . S
C1752 C1760 1.378 . S
C1753 C1752 1.367 . S
C1753 C1761 1.433 . S
C1754 H1750 0.929 . S
C1754 C1756 1.378 . S
C1754 C1758 1.350 . S
C1755 C1758 1.463 . S
C1755 C1760 1.350 . S
C1755 N1763 1.427 . S
C1756 H1747 0.930 . S
C1756 C1754 1.378 . S
C1756 C1757 1.367 . S
C1757 C1756 1.367 . S
C1757 C1759 1.433 . S
C1758 C1754 1.350 . S
C1758 C1755 1.463 . S
C1758 N1762 1.427 . S
C1759 H1749 0.929 . S
C1759 C1757 1.433 . S
C1759 N1762 1.384 . S
C1760 H1751 0.929 . S
C1760 C1752 1.378 . S
C1760 C1755 1.350 . S
C1761 H1748 0.929 . S
C1761 C1753 1.433 . S
C1761 N1763 1.384 . S
N1762 C1758 1.427 . S
N1762 C1759 1.384 . S
N1763 C1755 1.427 . S
N1763 C1761 1.384 . S
H1764 C1770 0.930 . S
H1765 C1774 0.930 . S
H1766 C1779 0.929 . S
H1767 C1777 0.929 . S
H1768 C1772 0.929 . S
H1769 C1778 0.929 . S
C1770 H1764 0.930 . S
C1770 C1771 1.367 . S
C1770 C1778 1.378 . S
C1771 C1770 1.367 . S
C1771 C1779 1.433 . S
C1772 H1768 0.929 . S
C1772 C1774 1.378 . S
C1772 C1776 1.350 . S
C1773 C1776 1.463 . S
C1773 C1778 1.350 . S
C1773 N1781 1.427 . S
C1774 H1765 0.930 . S
C1774 C1772 1.378 . S
C1774 C1775 1.367 . S
C1775 C1774 1.367 . S
C1775 C1777 1.433 . S
C1776 C1772 1.350 . S
C1776 C1773 1.463 . S
C1776 N1780 1.427 . S
C1777 H1767 0.929 . S
C1777 C1775 1.433 . S
C1777 N1780 1.384 . S
C1778 H1769 0.929 . S
C1778 C1770 1.378 . S
C1778 C1773 1.350 . S
C1779 H1766 0.929 . S
C1779 C1771 1.433 . S
C1779 N1781 1.384 . S
N1780 C1776 1.427 . S
N1780 C1777 1.384 . S
N1781 C1773 1.427 . S
N1781 C1779 1.384 . S
H1782 C1788 0.930 . S
H1783 C1792 0.930 . S
H1784 C1797 0.929 . S
H1785 C1795 0.929 . S
H1786 C1790 0.929 . S
H1787 C1796 0.929 . S
C1788 H1782 0.930 . S
C1788 C1789 1.367 . S
C1788 C1796 1.378 . S
C1789 C1788 1.367 . S
C1789 C1797 1.433 . S
C1790 H1786 0.929 . S
C1790 C1792 1.378 . S
C1790 C1794 1.350 . S
C1791 C1794 1.463 . S
C1791 C1796 1.350 . S
C1791 N1799 1.427 . S
C1792 H1783 0.930 . S
C1792 C1790 1.378 . S
C1792 C1793 1.367 . S
C1793 C1792 1.367 . S
C1793 C1795 1.433 . S
C1794 C1790 1.350 . S
C1794 C1791 1.463 . S
C1794 N1798 1.427 . S
C1795 H1785 0.929 . S
C1795 C1793 1.433 . S
C1795 N1798 1.384 . S
C1796 H1787 0.929 . S
C1796 C1788 1.378 . S
C1796 C1791 1.350 . S
C1797 H1784 0.929 . S
C1797 C1789 1.433 . S
C1797 N1799 1.384 . S
N1798 C1794 1.427 . S
N1798 C1795 1.384 . S
N1799 C1791 1.427 . S
N1799 C1797 1.384 . S
H1800 C1806 0.930 . S
H1801 C1810 0.930 . S
H1802 C1815 0.929 . S
H1803 C1813 0.929 . S
H1804 C1808 0.929 . S
H1805 C1814 0.929 . S
C1806 H1800 0.930 . S
C1806 C1807 1.367 . S
C1806 C1814 1.378 . S
C1807 C1806 1.367 . S
C1807 C1815 1.433 . S
C1808 H1804 0.929 . S
C1808 C1810 1.378 . S
C1808 C1812 1.350 . S
C1809 C1812 1.463 . S
C1809 C1814 1.350 . S
C1809 N1817 1.427 . S
C1810 H1801 0.930 . S
C1810 C1808 1.378 . S
C1810 C1811 1.367 . S
C1811 C1810 1.367 . S
C1811 C1813 1.433 . S
C1812 C1808 1.350 . S
C1812 C1809 1.463 . S
C1812 N1816 1.427 . S
C1813 H1803 0.929 . S
C1813 C1811 1.433 . S
C1813 N1816 1.384 . S
C1814 H1805 0.929 . S
C1814 C1806 1.378 . S
C1814 C1809 1.350 . S
C1815 H1802 0.929 . S
C1815 C1807 1.433 . S
C1815 N1817 1.384 . S
N1816 C1812 1.427 . S
N1816 C1813 1.384 . S
N1817 C1809 1.427 . S
N1817 C1815 1.384 . S
H1818 C1824 0.930 . S
H1819 C1828 0.930 . S
H1820 C1833 0.929 . S
H1821 C1831 0.929 . S
H1822 C1826 0.929 . S
H1823 C1832 0.929 . S
C1824 H1818 0.930 . S
C1824 C1825 1.367 . S
C1824 C1832 1.378 . S
C1825 C1824 1.367 . S
C1825 C1833 1.433 . S
C1826 H1822 0.929 . S
C1826 C1828 1.378 . S
C1826 C1830 1.350 . S
C1827 C1830 1.463 . S
C1827 C1832 1.350 . S
C1827 N1835 1.427 . S
C1828 H1819 0.930 . S
C1828 C1826 1.378 . S
C1828 C1829 1.367 . S
C1829 C1828 1.367 . S
C1829 C1831 1.433 . S
C1830 C1826 1.350 . S
C1830 C1827 1.463 . S
C1830 N1834 1.427 . S
C1831 H1821 0.929 . S
C1831 C1829 1.433 . S
C1831 N1834 1.384 . S
C1832 H1823 0.929 . S
C1832 C1824 1.378 . S
C1832 C1827 1.350 . S
C1833 H1820 0.929 . S
C1833 C1825 1.433 . S
C1833 N1835 1.384 . S
N1834 C1830 1.427 . S
N1834 C1831 1.384 . S
N1835 C1827 1.427 . S
N1835 C1833 1.384 . S
H1836 C1842 0.930 . S
H1837 C1846 0.930 . S
H1838 C1851 0.929 . S
H1839 C1849 0.929 . S
H1840 C1844 0.929 . S
H1841 C1850 0.929 . S
C1842 H1836 0.930 . S
C1842 C1843 1.367 . S
C1842 C1850 1.378 . S
C1843 C1842 1.367 . S
C1843 C1851 1.433 . S
C1844 H1840 0.929 . S
C1844 C1846 1.378 . S
C1844 C1848 1.350 . S
C1845 C1848 1.463 . S
C1845 C1850 1.350 . S
C1845 N1853 1.427 . S
C1846 H1837 0.930 . S
C1846 C1844 1.378 . S
C1846 C1847 1.367 . S
C1847 C1846 1.367 . S
C1847 C1849 1.433 . S
C1848 C1844 1.350 . S
C1848 C1845 1.463 . S
C1848 N1852 1.427 . S
C1849 H1839 0.929 . S
C1849 C1847 1.433 . S
C1849 N1852 1.384 . S
C1850 H1841 0.929 . S
C1850 C1842 1.378 . S
C1850 C1845 1.350 . S
C1851 H1838 0.929 . S
C1851 C1843 1.433 . S
C1851 N1853 1.384 . S
N1852 C1848 1.427 . S
N1852 C1849 1.384 . S
N1853 C1845 1.427 . S
N1853 C1851 1.384 . S
H1854 C1860 0.930 . S
H1855 C1864 0.930 . S
H1856 C1869 0.929 . S
H1857 C1867 0.929 . S
H1858 C1862 0.929 . S
H1859 C1868 0.929 . S
C1860 H1854 0.930 . S
C1860 C1861 1.367 . S
C1860 C1868 1.378 . S
C1861 C1860 1.367 . S
C1861 C1869 1.433 . S
C1862 H1858 0.929 . S
C1862 C1864 1.378 . S
C1862 C1866 1.350 . S
C1863 C1866 1.463 . S
C1863 C1868 1.350 . S
C1863 N1871 1.427 . S
C1864 H1855 0.930 . S
C1864 C1862 1.378 . S
C1864 C1865 1.367 . S
C1865 C1864 1.367 . S
C1865 C1867 1.433 . S
C1866 C1862 1.350 . S
C1866 C1863 1.463 . S
C1866 N1870 1.427 . S
C1867 H1857 0.929 . S
C1867 C1865 1.433 . S
C1867 N1870 1.384 . S
C1868 H1859 0.929 . S
C1868 C1860 1.378 . S
C1868 C1863 1.350 . S
C1869 H1856 0.929 . S
C1869 C1861 1.433 . S
C1869 N1871 1.384 . S
N1870 C1866 1.427 . S
N1870 C1867 1.384 . S
N1871 C1863 1.427 . S
N1871 C1869 1.384 . S
H1872 C1878 0.930 . S
H1873 C1882 0.930 . S
H1874 C1887 0.929 . S
H1875 C1885 0.929 . S
H1876 C1880 0.929 . S
H1877 C1886 0.929 . S
C1878 H1872 0.930 . S
C1878 C1879 1.367 . S
C1878 C1886 1.378 . S
C1879 C1878 1.367 . S
C1879 C1887 1.433 . S
C1880 H1876 0.929 . S
C1880 C1882 1.378 . S
C1880 C1884 1.350 . S
C1881 C1884 1.463 . S
C1881 C1886 1.350 . S
C1881 N1889 1.427 . S
C1882 H1873 0.930 . S
C1882 C1880 1.378 . S
C1882 C1883 1.367 . S
C1883 C1882 1.367 . S
C1883 C1885 1.433 . S
C1884 C1880 1.350 . S
C1884 C1881 1.463 . S
C1884 N1888 1.427 . S
C1885 H1875 0.929 . S
C1885 C1883 1.433 . S
C1885 N1888 1.384 . S
C1886 H1877 0.929 . S
C1886 C1878 1.378 . S
C1886 C1881 1.350 . S
C1887 H1874 0.929 . S
C1887 C1879 1.433 . S
C1887 N1889 1.384 . S
N1888 C1884 1.427 . S
N1888 C1885 1.384 . S
N1889 C1881 1.427 . S
N1889 C1887 1.384 . S
H1890 C1896 0.930 . S
H1891 C1900 0.930 . S
H1892 C1905 0.929 . S
H1893 C1903 0.929 . S
H1894 C1898 0.929 . S
H1895 C1904 0.929 . S
C1896 H1890 0.930 . S
C1896 C1897 1.367 . S
C1896 C1904 1.378 . S
C1897 C1896 1.367 . S
C1897 C1905 1.433 . S
C1898 H1894 0.929 . S
C1898 C1900 1.378 . S
C1898 C1902 1.350 . S
C1899 C1902 1.463 . S
C1899 C1904 1.350 . S
C1899 N1907 1.427 . S
C1900 H1891 0.930 . S
C1900 C1898 1.378 . S
C1900 C1901 1.367 . S
C1901 C1900 1.367 . S
C1901 C1903 1.433 . S
C1902 C1898 1.350 . S
C1902 C1899 1.463 . S
C1902 N1906 1.427 . S
C1903 H1893 0.929 . S
C1903 C1901 1.433 . S
C1903 N1906 1.384 . S
C1904 H1895 0.929 . S
C1904 C1896 1.378 . S
C1904 C1899 1.350 . S
C1905 H1892 0.929 . S
C1905 C1897 1.433 . S
C1905 N1907 1.384 . S
N1906 C1902 1.427 . S
N1906 C1903 1.384 . S
N1907 C1899 1.427 . S
N1907 C1905 1.384 . S
H1908 C1914 0.930 . S
H1909 C1918 0.930 . S
H1910 C1923 0.929 . S
H1911 C1921 0.929 . S
H1912 C1916 0.929 . S
H1913 C1922 0.929 . S
C1914 H1908 0.930 . S
C1914 C1915 1.367 . S
C1914 C1922 1.378 . S
C1915 C1914 1.367 . S
C1915 C1923 1.433 . S
C1916 H1912 0.929 . S
C1916 C1918 1.378 . S
C1916 C1920 1.350 . S
C1917 C1920 1.463 . S
C1917 C1922 1.350 . S
C1917 N1925 1.427 . S
C1918 H1909 0.930 . S
C1918 C1916 1.378 . S
C1918 C1919 1.367 . S
C1919 C1918 1.367 . S
C1919 C1921 1.433 . S
C1920 C1916 1.350 . S
C1920 C1917 1.463 . S
C1920 N1924 1.427 . S
C1921 H1911 0.929 . S
C1921 C1919 1.433 . S
C1921 N1924 1.384 . S
C1922 H1913 0.929 . S
C1922 C1914 1.378 . S
C1922 C1917 1.350 . S
C1923 H1910 0.929 . S
C1923 C1915 1.433 . S
C1923 N1925 1.384 . S
N1924 C1920 1.427 . S
N1924 C1921 1.384 . S
N1925 C1917 1.427 . S
N1925 C1923 1.384 . S
H1926 C1932 0.930 . S
H1927 C1936 0.930 . S
H1928 C1941 0.929 . S
H1929 C1939 0.929 . S
H1930 C1934 0.929 . S
H1931 C1940 0.929 . S
C1932 H1926 0.930 . S
C1932 C1933 1.367 . S
C1932 C1940 1.378 . S
C1933 C1932 1.367 . S
C1933 C1941 1.433 . S
C1934 H1930 0.929 . S
C1934 C1936 1.378 . S
C1934 C1938 1.350 . S
C1935 C1938 1.463 . S
C1935 C1940 1.350 . S
C1935 N1943 1.427 . S
C1936 H1927 0.930 . S
C1936 C1934 1.378 . S
C1936 C1937 1.367 . S
C1937 C1936 1.367 . S
C1937 C1939 1.433 . S
C1938 C1934 1.350 . S
C1938 C1935 1.463 . S
C1938 N1942 1.427 . S
C1939 H1929 0.929 . S
C1939 C1937 1.433 . S
C1939 N1942 1.384 . S
C1940 H1931 0.929 . S
C1940 C1932 1.378 . S
C1940 C1935 1.350 . S
C1941 H1928 0.929 . S
C1941 C1933 1.433 . S
C1941 N1943 1.384 . S
N1942 C1938 1.427 . S
N1942 C1939 1.384 . S
N1943 C1935 1.427 . S
N1943 C1941 1.384 . S
H1944 C1950 0.930 . S
H1945 C1954 0.930 . S
H1946 C1959 0.929 . S
H1947 C1957 0.929 . S
H1948 C1952 0.929 . S
H1949 C1958 0.929 . S
C1950 H1944 0.930 . S
C1950 C1951 1.367 . S
C1950 C1958 1.378 . S
C1951 C1950 1.367 . S
C1951 C1959 1.433 . S
C1952 H1948 0.929 . S
C1952 C1954 1.378 . S
C1952 C1956 1.350 . S
C1953 C1956 1.463 . S
C1953 C1958 1.350 . S
C1953 N1961 1.427 . S
C1954 H1945 0.930 . S
C1954 C1952 1.378 . S
C1954 C1955 1.367 . S
C1955 C1954 1.367 . S
C1955 C1957 1.433 . S
C1956 C1952 1.350 . S
C1956 C1953 1.463 . S
C1956 N1960 1.427 . S
C1957 H1947 0.929 . S
C1957 C1955 1.433 . S
C1957 N1960 1.384 . S
C1958 H1949 0.929 . S
C1958 C1950 1.378 . S
C1958 C1953 1.350 . S
C1959 H1946 0.929 . S
C1959 C1951 1.433 . S
C1959 N1961 1.384 . S
N1960 C1956 1.427 . S
N1960 C1957 1.384 . S
N1961 C1953 1.427 . S
N1961 C1959 1.384 . S
C997 N170 1.977 . S
C1001 C290 1.898 . S
C1015 N184 0.966 . S
C1019 C374 0.926 . S
C1033 N158 1.556 . S
C1037 C468 1.526 . S
C1051 N145 1.534 . S
C1055 C384 1.503 1_556 S
C1073 C458 0.882 . S
C1069 N119 0.919 . S
C1087 N131 1.932 . S
C1091 C300 1.908 . S
C1109 C301 1.584 . S
C1105 N144 1.647 . S
C1127 C385 1.339 . S
C1123 N118 1.361 . S
C1141 N132 1.438 . S
C1145 C477 1.431 . S
C1159 N171 1.420 . S
C1163 C393 1.414 . S
C1177 N183 1.314 . S
C1181 C469 1.296 . S
C1199 C309 1.569 . S
C1195 N157 1.603 . S
C1217 C542 1.908 . S
C1213 N14 1.979 . S
C1231 N28 0.965 . S
C1235 C626 0.942 . S
C1249 N2 1.556 . S
C1253 C720 1.526 . S
C1267 N223 1.533 . S
C1271 C636 1.504 . S
C1285 N197 0.906 . S
C1289 C710 0.901 . S
C1303 N209 1.937 . S
C1307 C552 1.900 . S
C1321 N222 1.645 . S
C1325 C553 1.581 . S
C1339 N196 1.361 . S
C1343 C637 1.341 . S
C1361 C729 1.429 . S
C1357 N210 1.438 . S
C1375 N15 1.419 . S
C1379 C645 1.412 . S
C1397 C721 1.302 . S
C1393 N27 1.317 . S
C1411 N1 1.603 . S
C1415 C561 1.566 . S
C1433 C794 1.899 . S
C1429 N92 1.978 . S
C1447 N106 0.955 . S
C1451 C878 0.943 . S
C1469 C972 1.535 . S
C1465 N80 1.561 . S
C1487 C888 1.503 . S
C1483 N67 1.534 . S
C1505 C962 0.904 . S
C1501 N41 0.912 . S
C1519 N53 1.936 . S
C1523 C804 1.895 . S
C1537 N66 1.644 . S
C1541 C805 1.570 . S
C1555 N40 1.370 . S
C1559 C889 1.345 . S
C1577 C981 1.425 . S
C1573 N54 1.434 . S
C1591 N93 1.421 . S
C1595 C897 1.411 . S
C1609 N105 1.324 . S
C1613 C973 1.300 . S
C1627 N79 1.602 . S
C1631 C813 1.571 . S
C1645 N200 1.252 . S
C1649 C297 1.131 . S
C1667 C381 1.588 . S
C1663 N213 1.777 . S
C1681 N226 1.497 . S
C1685 C474 1.370 . S
C1699 N83 1.533 . S
C1703 C390 1.408 . S
C1717 N96 1.757 . S
C1721 C465 1.589 . S
C1739 C306 1.162 . S
C1735 N109 1.273 . S
C1753 N44 1.257 . S
C1757 C549 1.129 . S
C1771 N57 1.775 . S
C1775 C633 1.590 . S
C1789 N70 1.500 . S
C1793 C726 1.370 . S
C1807 N161 1.532 . S
C1811 C642 1.400 . S
C1829 C717 1.595 . S
C1825 N174 1.762 . S
C1843 N187 1.272 . S
C1847 C558 1.189 . S
C1861 N122 1.247 . S
C1865 C801 1.143 . S
C1879 N135 1.777 . S
C1883 C885 1.588 . S
C1901 C978 1.387 . S
C1897 N148 1.503 . S
C1915 N5 1.533 . S
C1919 C894 1.407 . S
C1933 N18 1.762 . S
C1937 C969 1.586 . S
C1951 N31 1.272 . S
C1955 C810 1.189 . S
