# Generated by pormake.
# Topology ptr, (4,4)-cn, num edge types: 1
# Building blocks:
#     Node 0, Type 0, BuildingBlock: AZAVOO_clean_sbu_0, # of connection points: 4
#     Node 1, Type 0, BuildingBlock: AZAVOO_clean_sbu_0, # of connection points: 4
#     Node 2, Type 0, BuildingBlock: AZAVOO_clean_sbu_0, # of connection points: 4
#     Node 3, Type 0, BuildingBlock: AZAVOO_clean_sbu_0, # of connection points: 4
#     Node 4, Type 0, BuildingBlock: AZAVOO_clean_sbu_0, # of connection points: 4
#     Node 5, Type 0, BuildingBlock: AZAVOO_clean_sbu_0, # of connection points: 4
#     Node 6, Type 0, BuildingBlock: AZAVOO_clean_sbu_0, # of connection points: 4
#     Node 7, Type 0, BuildingBlock: AZAVOO_clean_sbu_0, # of connection points: 4
#     Node 8, Type 0, BuildingBlock: AZAVOO_clean_sbu_0, # of connection points: 4
#     Node 9, Type 0, BuildingBlock: AZAVOO_clean_sbu_0, # of connection points: 4
#     Node 10, Type 0, BuildingBlock: AZAVOO_clean_sbu_0, # of connection points: 4
#     Node 11, Type 0, BuildingBlock: AZAVOO_clean_sbu_0, # of connection points: 4
#     Node 12, Type 0, BuildingBlock: AZAVOO_clean_sbu_0, # of connection points: 4
#     Node 13, Type 0, BuildingBlock: AZAVOO_clean_sbu_0, # of connection points: 4
#     Node 14, Type 0, BuildingBlock: AZAVOO_clean_sbu_0, # of connection points: 4
#     Node 15, Type 0, BuildingBlock: AZAVOO_clean_sbu_0, # of connection points: 4
#     Node 16, Type 0, BuildingBlock: AZAVOO_clean_sbu_0, # of connection points: 4
#     Node 17, Type 0, BuildingBlock: AZAVOO_clean_sbu_0, # of connection points: 4
#     Node 18, Type 1, BuildingBlock: NAHDIM_clean_linker_0, # of connection points: 4
#     Node 19, Type 1, BuildingBlock: NAHDIM_clean_linker_0, # of connection points: 4
#     Node 20, Type 1, BuildingBlock: NAHDIM_clean_linker_0, # of connection points: 4
#     Node 21, Type 1, BuildingBlock: NAHDIM_clean_linker_0, # of connection points: 4
#     Node 22, Type 1, BuildingBlock: NAHDIM_clean_linker_0, # of connection points: 4
#     Node 23, Type 1, BuildingBlock: NAHDIM_clean_linker_0, # of connection points: 4
#     Node 24, Type 1, BuildingBlock: NAHDIM_clean_linker_0, # of connection points: 4
#     Node 25, Type 1, BuildingBlock: NAHDIM_clean_linker_0, # of connection points: 4
#     Node 26, Type 1, BuildingBlock: NAHDIM_clean_linker_0, # of connection points: 4
#     Node 27, Type 1, BuildingBlock: NAHDIM_clean_linker_0, # of connection points: 4
#     Node 28, Type 1, BuildingBlock: NAHDIM_clean_linker_0, # of connection points: 4
#     Node 29, Type 1, BuildingBlock: NAHDIM_clean_linker_0, # of connection points: 4
#     Node 30, Type 1, BuildingBlock: NAHDIM_clean_linker_0, # of connection points: 4
#     Node 31, Type 1, BuildingBlock: NAHDIM_clean_linker_0, # of connection points: 4
#     Node 32, Type 1, BuildingBlock: NAHDIM_clean_linker_0, # of connection points: 4
#     Node 33, Type 1, BuildingBlock: NAHDIM_clean_linker_0, # of connection points: 4
#     Node 34, Type 1, BuildingBlock: NAHDIM_clean_linker_0, # of connection points: 4
#     Node 35, Type 1, BuildingBlock: NAHDIM_clean_linker_0, # of connection points: 4
#     Edge 36, Type (0, 1), BuildingBlock: TEMPAE_clean_linker_10, # of connection points: 2
#     Edge 37, Type (0, 1), BuildingBlock: TEMPAE_clean_linker_10, # of connection points: 2
#     Edge 38, Type (0, 1), BuildingBlock: TEMPAE_clean_linker_10, # of connection points: 2
#     Edge 39, Type (0, 1), BuildingBlock: TEMPAE_clean_linker_10, # of connection points: 2
#     Edge 40, Type (0, 1), BuildingBlock: TEMPAE_clean_linker_10, # of connection points: 2
#     Edge 41, Type (0, 1), BuildingBlock: TEMPAE_clean_linker_10, # of connection points: 2
#     Edge 42, Type (0, 1), BuildingBlock: TEMPAE_clean_linker_10, # of connection points: 2
#     Edge 43, Type (0, 1), BuildingBlock: TEMPAE_clean_linker_10, # of connection points: 2
#     Edge 44, Type (0, 1), BuildingBlock: TEMPAE_clean_linker_10, # of connection points: 2
#     Edge 45, Type (0, 1), BuildingBlock: TEMPAE_clean_linker_10, # of connection points: 2
#     Edge 46, Type (0, 1), BuildingBlock: TEMPAE_clean_linker_10, # of connection points: 2
#     Edge 47, Type (0, 1), BuildingBlock: TEMPAE_clean_linker_10, # of connection points: 2
#     Edge 48, Type (0, 1), BuildingBlock: TEMPAE_clean_linker_10, # of connection points: 2
#     Edge 49, Type (0, 1), BuildingBlock: TEMPAE_clean_linker_10, # of connection points: 2
#     Edge 50, Type (0, 1), BuildingBlock: TEMPAE_clean_linker_10, # of connection points: 2
#     Edge 51, Type (0, 1), BuildingBlock: TEMPAE_clean_linker_10, # of connection points: 2
#     Edge 52, Type (0, 1), BuildingBlock: TEMPAE_clean_linker_10, # of connection points: 2
#     Edge 53, Type (0, 1), BuildingBlock: TEMPAE_clean_linker_10, # of connection points: 2
#     Edge 54, Type (0, 1), BuildingBlock: TEMPAE_clean_linker_10, # of connection points: 2
#     Edge 55, Type (0, 1), BuildingBlock: TEMPAE_clean_linker_10, # of connection points: 2
#     Edge 56, Type (0, 1), BuildingBlock: TEMPAE_clean_linker_10, # of connection points: 2
#     Edge 57, Type (0, 1), BuildingBlock: TEMPAE_clean_linker_10, # of connection points: 2
#     Edge 58, Type (0, 1), BuildingBlock: TEMPAE_clean_linker_10, # of connection points: 2
#     Edge 59, Type (0, 1), BuildingBlock: TEMPAE_clean_linker_10, # of connection points: 2
#     Edge 60, Type (0, 1), BuildingBlock: TEMPAE_clean_linker_10, # of connection points: 2
#     Edge 61, Type (0, 1), BuildingBlock: TEMPAE_clean_linker_10, # of connection points: 2
#     Edge 62, Type (0, 1), BuildingBlock: TEMPAE_clean_linker_10, # of connection points: 2
#     Edge 63, Type (0, 1), BuildingBlock: TEMPAE_clean_linker_10, # of connection points: 2
#     Edge 64, Type (0, 1), BuildingBlock: TEMPAE_clean_linker_10, # of connection points: 2
#     Edge 65, Type (0, 1), BuildingBlock: TEMPAE_clean_linker_10, # of connection points: 2
#     Edge 66, Type (0, 1), BuildingBlock: TEMPAE_clean_linker_10, # of connection points: 2
#     Edge 67, Type (0, 1), BuildingBlock: TEMPAE_clean_linker_10, # of connection points: 2
#     Edge 68, Type (0, 1), BuildingBlock: TEMPAE_clean_linker_10, # of connection points: 2
#     Edge 69, Type (0, 1), BuildingBlock: TEMPAE_clean_linker_10, # of connection points: 2
#     Edge 70, Type (0, 1), BuildingBlock: TEMPAE_clean_linker_10, # of connection points: 2
#     Edge 71, Type (0, 1), BuildingBlock: TEMPAE_clean_linker_10, # of connection points: 2
#     Edge 72, Type (0, 1), BuildingBlock: TEMPAE_clean_linker_10, # of connection points: 2
#     Edge 73, Type (0, 1), BuildingBlock: TEMPAE_clean_linker_10, # of connection points: 2
#     Edge 74, Type (0, 1), BuildingBlock: TEMPAE_clean_linker_10, # of connection points: 2
#     Edge 75, Type (0, 1), BuildingBlock: TEMPAE_clean_linker_10, # of connection points: 2
#     Edge 76, Type (0, 1), BuildingBlock: TEMPAE_clean_linker_10, # of connection points: 2
#     Edge 77, Type (0, 1), BuildingBlock: TEMPAE_clean_linker_10, # of connection points: 2
#     Edge 78, Type (0, 1), BuildingBlock: TEMPAE_clean_linker_10, # of connection points: 2
#     Edge 79, Type (0, 1), BuildingBlock: TEMPAE_clean_linker_10, # of connection points: 2
#     Edge 80, Type (0, 1), BuildingBlock: TEMPAE_clean_linker_10, # of connection points: 2
#     Edge 81, Type (0, 1), BuildingBlock: TEMPAE_clean_linker_10, # of connection points: 2
#     Edge 82, Type (0, 1), BuildingBlock: TEMPAE_clean_linker_10, # of connection points: 2
#     Edge 83, Type (0, 1), BuildingBlock: TEMPAE_clean_linker_10, # of connection points: 2
#     Edge 84, Type (0, 1), BuildingBlock: TEMPAE_clean_linker_10, # of connection points: 2
#     Edge 85, Type (0, 1), BuildingBlock: TEMPAE_clean_linker_10, # of connection points: 2
#     Edge 86, Type (0, 1), BuildingBlock: TEMPAE_clean_linker_10, # of connection points: 2
#     Edge 87, Type (0, 1), BuildingBlock: TEMPAE_clean_linker_10, # of connection points: 2
#     Edge 88, Type (0, 1), BuildingBlock: TEMPAE_clean_linker_10, # of connection points: 2
#     Edge 89, Type (0, 1), BuildingBlock: TEMPAE_clean_linker_10, # of connection points: 2
#     Edge 90, Type (0, 1), BuildingBlock: TEMPAE_clean_linker_10, # of connection points: 2
#     Edge 91, Type (0, 1), BuildingBlock: TEMPAE_clean_linker_10, # of connection points: 2
#     Edge 92, Type (0, 1), BuildingBlock: TEMPAE_clean_linker_10, # of connection points: 2
#     Edge 93, Type (0, 1), BuildingBlock: TEMPAE_clean_linker_10, # of connection points: 2
#     Edge 94, Type (0, 1), BuildingBlock: TEMPAE_clean_linker_10, # of connection points: 2
#     Edge 95, Type (0, 1), BuildingBlock: TEMPAE_clean_linker_10, # of connection points: 2
#     Edge 96, Type (0, 1), BuildingBlock: TEMPAE_clean_linker_10, # of connection points: 2
#     Edge 97, Type (0, 1), BuildingBlock: TEMPAE_clean_linker_10, # of connection points: 2
#     Edge 98, Type (0, 1), BuildingBlock: TEMPAE_clean_linker_10, # of connection points: 2
#     Edge 99, Type (0, 1), BuildingBlock: TEMPAE_clean_linker_10, # of connection points: 2
#     Edge 100, Type (0, 1), BuildingBlock: TEMPAE_clean_linker_10, # of connection points: 2
#     Edge 101, Type (0, 1), BuildingBlock: TEMPAE_clean_linker_10, # of connection points: 2
#     Edge 102, Type (0, 1), BuildingBlock: TEMPAE_clean_linker_10, # of connection points: 2
#     Edge 103, Type (0, 1), BuildingBlock: TEMPAE_clean_linker_10, # of connection points: 2
#     Edge 104, Type (0, 1), BuildingBlock: TEMPAE_clean_linker_10, # of connection points: 2
#     Edge 105, Type (0, 1), BuildingBlock: TEMPAE_clean_linker_10, # of connection points: 2
#     Edge 106, Type (0, 1), BuildingBlock: TEMPAE_clean_linker_10, # of connection points: 2
#     Edge 107, Type (0, 1), BuildingBlock: TEMPAE_clean_linker_10, # of connection points: 2
# Relax obj value: 0.102
# Max RMSD: 0.341
# Mean RMSD: 0.135
data_MOF--net-ptr--node1-AZAVOO_clean_sbu_0--node2-NAHDIM_clean_linker_0--edge1-TEMPAE_clean_linker_10
_symmetry_space_group_name_H-M    P1
_symmetry_Int_Tables_number       1
_symmetry_cell_setting            triclinic
loop_
_symmetry_equiv_pos_as_xyz
'x, y, z'
_cell_length_a     95.893596
_cell_length_b     93.81917
_cell_length_c     78.473403
_cell_angle_alpha  91.772081
_cell_angle_beta   91.196354
_cell_angle_gamma 120.30704
loop_
_atom_site_label
_atom_site_type_symbol
_atom_site_fract_x
_atom_site_fract_y
_atom_site_fract_z
_atom_type_partial_charge
Mg0 Mg 0.01834 0.34056 0.98967 0.0
O1 O 0.00531 0.34497 0.01141 0.0
O2 O 0.98419 0.34596 0.00039 0.0
Mg3 Mg 0.98345 0.3418 0.97129 0.0
C4 C 0.99314 0.34688 0.01315 0.0
C5 C 0.04808 0.34384 0.00991 0.0
O6 O 0.055 0.35586 0.99933 0.0
O7 O 0.99873 0.3132 0.98607 0.0
O8 O 0.97925 0.31552 0.97246 0.0
O9 O 0.03267 0.36814 0.98643 0.0
O10 O 0.00957 0.35115 0.97263 0.0
C11 C 0.98498 0.3068 0.9781 0.0
C12 C 0.02114 0.36602 0.97589 0.0
O13 O 0.03276 0.33491 0.00921 0.0
Mg14 Mg 0.67254 0.6575 0.03655 0.0
O15 O 0.6508 0.65075 0.01842 0.0
O16 O 0.63064 0.64819 0.0343 0.0
Mg17 Mg 0.63965 0.65381 0.06233 0.0
C18 C 0.63631 0.64769 0.01985 0.0
C19 C 0.70414 0.67456 0.01889 0.0
O20 O 0.70786 0.67941 0.03506 0.0
O21 O 0.67733 0.68371 0.03984 0.0
O22 O 0.65772 0.68098 0.05671 0.0
O23 O 0.66347 0.63074 0.0401 0.0
O24 O 0.6574 0.64634 0.05636 0.0
C25 C 0.67037 0.68992 0.04843 0.0
C26 C 0.65548 0.632 0.0526 0.0
O27 O 0.68941 0.66466 0.01443 0.0
Mg28 Mg 0.33478 0.99172 0.98486 0.0
O29 O 0.35347 0.00286 0.00699 0.0
O30 O 0.37728 0.02155 0.99736 0.0
Mg31 Mg 0.37358 0.02289 0.96862 0.0
C32 C 0.36848 0.01338 0.00948 0.0
C33 C 0.30063 0.97654 0.99963 0.0
O34 O 0.29756 0.97898 0.98393 0.0
O35 O 0.33252 0.01483 0.98382 0.0
O36 O 0.35583 0.03216 0.97211 0.0
O37 O 0.34301 0.97338 0.97943 0.0
O38 O 0.35284 0.99754 0.96779 0.0
C39 C 0.34204 0.02871 0.9775 0.0
C40 C 0.35335 0.98429 0.96963 0.0
O41 O 0.31497 0.98038 0.00404 0.0
Mg42 Mg 0.98365 0.66301 0.03584 0.0
O43 O 0.9965 0.65752 0.01446 0.0
O44 O 0.01547 0.65359 0.02671 0.0
Mg45 Mg 0.0148 0.65677 0.05574 0.0
C46 C 0.00785 0.65419 0.01345 0.0
C47 C 0.97177 0.68538 0.02266 0.0
O48 O 0.97628 0.69058 0.03866 0.0
O49 O 0.00527 0.68859 0.04061 0.0
O50 O 0.02369 0.68476 0.05421 0.0
O51 O 0.96618 0.63611 0.0367 0.0
O52 O 0.98903 0.64935 0.05233 0.0
C53 C 0.01906 0.69428 0.04817 0.0
C54 C 0.97639 0.63555 0.04735 0.0
O55 O 0.97288 0.67319 0.01691 0.0
Mg56 Mg 0.33523 0.34833 0.99527 0.0
O57 O 0.3569 0.35231 0.01181 0.0
O58 O 0.37605 0.35455 0.99454 0.0
Mg59 Mg 0.36658 0.3527 0.96689 0.0
C60 C 0.37092 0.35434 0.00949 0.0
C61 C 0.3122 0.34492 0.02578 0.0
O62 O 0.31651 0.36035 0.02319 0.0
O63 O 0.32897 0.32235 0.9878 0.0
O64 O 0.34717 0.325 0.969 0.0
O65 O 0.34523 0.37558 0.9953 0.0
O66 O 0.35015 0.36121 0.97596 0.0
C67 C 0.33454 0.31604 0.97731 0.0
C68 C 0.35257 0.37532 0.98171 0.0
O69 O 0.31861 0.3381 0.01737 0.0
Mg70 Mg 0.67471 0.01554 0.03623 0.0
O71 O 0.65603 0.00359 0.01401 0.0
O72 O 0.63296 0.98402 0.02442 0.0
Mg73 Mg 0.63685 0.98407 0.05342 0.0
C74 C 0.64125 0.99214 0.01197 0.0
C75 C 0.70809 0.02654 0.02334 0.0
O76 O 0.7085 0.02181 0.03884 0.0
O77 O 0.67671 0.9927 0.03739 0.0
O78 O 0.65465 0.97431 0.05021 0.0
O79 O 0.66765 0.03449 0.04091 0.0
O80 O 0.65624 0.01025 0.05274 0.0
C81 C 0.66831 0.97868 0.04379 0.0
C82 C 0.65661 0.02398 0.05046 0.0
O83 O 0.69532 0.02616 0.01788 0.0
Mg84 Mg 0.67881 0.67737 0.32711 0.0
O85 O 0.6629 0.68257 0.34483 0.0
O86 O 0.64799 0.68905 0.32804 0.0
Mg87 Mg 0.65409 0.688 0.30009 0.0
C88 C 0.65229 0.68686 0.3428 0.0
C89 C 0.69604 0.66158 0.34307 0.0
O90 O 0.69975 0.66332 0.32694 0.0
O91 O 0.65719 0.65215 0.31825 0.0
O92 O 0.6443 0.66002 0.3001 0.0
O93 O 0.69767 0.70445 0.32848 0.0
O94 O 0.67778 0.6925 0.30894 0.0
C95 C 0.64596 0.64877 0.30702 0.0
C96 C 0.69011 0.70576 0.31531 0.0
O97 O 0.68641 0.66619 0.34831 0.0
Mg98 Mg 0.32844 0.98168 0.37346 0.0
O99 O 0.30582 0.97613 0.35776 0.0
O100 O 0.28558 0.96936 0.37529 0.0
Mg101 Mg 0.29563 0.97098 0.40257 0.0
C102 C 0.29112 0.97172 0.36034 0.0
C103 C 0.35854 0.99792 0.35151 0.0
O104 O 0.36541 0.00032 0.36681 0.0
O105 O 0.3322 0.00678 0.38241 0.0
O106 O 0.31306 0.99907 0.40165 0.0
O107 O 0.32095 0.95501 0.3716 0.0
O108 O 0.31439 0.96657 0.39248 0.0
C109 C 0.32513 0.01025 0.39406 0.0
C110 C 0.31315 0.95342 0.38534 0.0
O111 O 0.34331 0.9916 0.3501 0.0
Mg112 Mg 0.0132 0.31903 0.32791 0.0
O113 O 0.0367 0.33156 0.34477 0.0
O114 O 0.05701 0.34262 0.32688 0.0
Mg115 Mg 0.04696 0.33731 0.29937 0.0
C116 C 0.0518 0.33978 0.34197 0.0
C117 C 0.98293 0.31021 0.34473 0.0
O118 O 0.98006 0.30856 0.32812 0.0
O119 O 0.01636 0.34436 0.32316 0.0
O120 O 0.03641 0.35405 0.30496 0.0
O121 O 0.01423 0.29569 0.3256 0.0
O122 O 0.02506 0.31597 0.3078 0.0
C123 C 0.02603 0.3556 0.31354 0.0
C124 C 0.0227 0.30192 0.31235 0.0
O125 O 0.99733 0.3155 0.35033 0.0
Mg126 Mg 0.65607 0.98608 0.36159 0.0
O127 O 0.67166 0.98086 0.34372 0.0
O128 O 0.68985 0.9784 0.35971 0.0
Mg129 Mg 0.68602 0.98273 0.38781 0.0
C130 C 0.68349 0.97829 0.3452 0.0
C131 C 0.64155 0.00391 0.34373 0.0
O132 O 0.64449 0.00995 0.35958 0.0
O133 O 0.67652 0.01242 0.36612 0.0
O134 O 0.69396 0.01015 0.38354 0.0
O135 O 0.63923 0.95914 0.36394 0.0
O136 O 0.6605 0.97452 0.38134 0.0
C137 C 0.68958 0.01891 0.37532 0.0
C138 C 0.64829 0.96021 0.37697 0.0
O139 O 0.64553 0.9933 0.33952 0.0
Mg140 Mg 0.01569 0.69345 0.32798 0.0
O141 O 0.03521 0.70004 0.34921 0.0
O142 O 0.05857 0.70814 0.33664 0.0
Mg143 Mg 0.0542 0.70722 0.30779 0.0
C144 C 0.05036 0.70514 0.35001 0.0
C145 C 0.98284 0.66725 0.34014 0.0
O146 O 0.98258 0.66269 0.32408 0.0
O147 O 0.0157 0.66993 0.32086 0.0
O148 O 0.03898 0.67863 0.30776 0.0
O149 O 0.02038 0.71917 0.32836 0.0
O150 O 0.03294 0.70998 0.312 0.0
C151 C 0.0256 0.66709 0.313 0.0
C152 C 0.03103 0.72208 0.31703 0.0
O153 O 0.99547 0.67999 0.34642 0.0
Mg154 Mg 0.32643 0.34942 0.36307 0.0
O155 O 0.30578 0.33415 0.34349 0.0
O156 O 0.28364 0.31732 0.35729 0.0
Mg157 Mg 0.2905 0.32255 0.38605 0.0
C158 C 0.29091 0.32289 0.34348 0.0
C159 C 0.35737 0.36913 0.34146 0.0
O160 O 0.35997 0.38158 0.35182 0.0
O161 O 0.3282 0.32711 0.3683 0.0
O162 O 0.30734 0.31131 0.38417 0.0
O163 O 0.32037 0.36933 0.36437 0.0
O164 O 0.3101 0.34791 0.38086 0.0
C165 C 0.3203 0.31433 0.37685 0.0
C166 C 0.31067 0.36127 0.37629 0.0
O167 O 0.34455 0.35525 0.34254 0.0
Mg168 Mg 0.35334 0.0257 0.66357 0.0
O169 O 0.338 0.03107 0.68185 0.0
O170 O 0.31978 0.0339 0.66643 0.0
Mg171 Mg 0.32281 0.02916 0.63831 0.0
C172 C 0.32637 0.03398 0.68077 0.0
C173 C 0.37815 0.02159 0.68581 0.0
O174 O 0.38656 0.02822 0.67233 0.0
O175 O 0.333 0.99912 0.65878 0.0
O176 O 0.31493 0.00186 0.64289 0.0
O177 O 0.36984 0.0527 0.66142 0.0
O178 O 0.34852 0.03749 0.64407 0.0
C179 C 0.31953 0.99288 0.65029 0.0
C180 C 0.36047 0.05187 0.64881 0.0
O181 O 0.36374 0.0188 0.68617 0.0
Mg182 Mg 0.99118 0.31266 0.70115 0.0
O183 O 0.97074 0.30221 0.68036 0.0
O184 O 0.94758 0.29302 0.69374 0.0
Mg185 Mg 0.95294 0.29724 0.72254 0.0
C186 C 0.95535 0.29548 0.68009 0.0
C187 C 0.02449 0.32868 0.68698 0.0
O188 O 0.0263 0.3253 0.70272 0.0
O189 O 0.98864 0.33542 0.70502 0.0
O190 O 0.96607 0.32537 0.71961 0.0
O191 O 0.98889 0.28793 0.7037 0.0
O192 O 0.97531 0.2968 0.71866 0.0
C193 C 0.97824 0.33741 0.71304 0.0
C194 C 0.97814 0.28507 0.71487 0.0
O195 O 0.01045 0.32504 0.68151 0.0
Mg196 Mg 0.67332 0.6464 0.66032 0.0
O197 O 0.69491 0.66161 0.67928 0.0
O198 O 0.71628 0.67765 0.66401 0.0
Mg199 Mg 0.70824 0.67362 0.63586 0.0
C200 C 0.70988 0.6724 0.67827 0.0
C201 C 0.64102 0.63204 0.67621 0.0
O202 O 0.63797 0.63087 0.65966 0.0
O203 O 0.6707 0.66875 0.65652 0.0
O204 O 0.69212 0.68487 0.64134 0.0
O205 O 0.68029 0.62712 0.65739 0.0
O206 O 0.68877 0.64865 0.64126 0.0
C207 C 0.67928 0.68199 0.64877 0.0
C208 C 0.68924 0.63568 0.64522 0.0
O209 O 0.65562 0.63836 0.68163 0.0
Mg210 Mg 0.31608 0.31779 0.6863 0.0
O211 O 0.33107 0.31241 0.66747 0.0
O212 O 0.34892 0.30909 0.68314 0.0
Mg213 Mg 0.34368 0.30982 0.71143 0.0
C214 C 0.34292 0.30984 0.66873 0.0
C215 C 0.29531 0.32366 0.65764 0.0
O216 O 0.28438 0.30808 0.65934 0.0
O217 O 0.3375 0.34294 0.6938 0.0
O218 O 0.35318 0.33792 0.71101 0.0
O219 O 0.2972 0.29107 0.6862 0.0
O220 O 0.31867 0.30316 0.70388 0.0
C221 C 0.34989 0.34797 0.7038 0.0
C222 C 0.3057 0.28986 0.69853 0.0
O223 O 0.30874 0.3299 0.66603 0.0
Mg224 Mg 0.6809 0.01906 0.65189 0.0
O225 O 0.70142 0.02423 0.67099 0.0
O226 O 0.72222 0.02698 0.65622 0.0
Mg227 Mg 0.71498 0.02443 0.62765 0.0
C228 C 0.71577 0.0267 0.67038 0.0
C229 C 0.64819 0.00057 0.66748 0.0
O230 O 0.64531 0.99575 0.65125 0.0
O231 O 0.67608 0.99323 0.64646 0.0
O232 O 0.69589 0.9965 0.62966 0.0
O233 O 0.68938 0.0456 0.65087 0.0
O234 O 0.69729 0.03232 0.63344 0.0
C235 C 0.6828 0.98724 0.63718 0.0
C236 C 0.69815 0.04602 0.63834 0.0
O237 O 0.66271 0.01037 0.67273 0.0
Mg238 Mg 0.9908 0.6835 0.70183 0.0
O239 O 0.97172 0.67219 0.67994 0.0
O240 O 0.94739 0.65858 0.69118 0.0
Mg241 Mg 0.95119 0.66192 0.72039 0.0
C242 C 0.95634 0.66326 0.67831 0.0
C243 C 0.01878 0.70088 0.67637 0.0
O244 O 0.01539 0.71272 0.67862 0.0
O245 O 0.98653 0.65822 0.70683 0.0
O246 O 0.96319 0.64564 0.7201 0.0
O247 O 0.98994 0.70667 0.70256 0.0
O248 O 0.97442 0.68509 0.71758 0.0
C249 C 0.97567 0.64586 0.7143 0.0
C250 C 0.97849 0.69979 0.71321 0.0
O251 O 0.01055 0.68743 0.68378 0.0
C252 C 0.19749 0.25055 0.04828 0.0
C253 C 0.20027 0.26532 0.05973 0.0
C254 C 0.18924 0.26509 0.08741 0.0
C255 C 0.19272 0.28151 0.08895 0.0
C256 C 0.18485 0.28624 0.10081 0.0
C257 C 0.17291 0.27414 0.1109 0.0
C258 C 0.16924 0.25749 0.10908 0.0
C259 C 0.17783 0.25333 0.09771 0.0
C260 C 0.18936 0.30414 0.10258 0.0
C261 C 0.15611 0.24396 0.11894 0.0
C262 C 0.09053 0.31907 0.08295 0.0
C263 C 0.09998 0.31662 0.09673 0.0
C264 C 0.10971 0.2977 0.10359 0.0
C265 C 0.10679 0.28157 0.10148 0.0
C266 C 0.11682 0.27672 0.10962 0.0
C267 C 0.13043 0.28848 0.1198 0.0
C268 C 0.1335 0.30489 0.12195 0.0
C269 C 0.12294 0.30922 0.11413 0.0
C270 C 0.1129 0.25903 0.10722 0.0
C271 C 0.14812 0.31799 0.13225 0.0
C272 C 0.10882 0.2713 0.23111 0.0
C273 C 0.10617 0.25755 0.22087 0.0
C274 C 0.11824 0.25848 0.21037 0.0
C275 C 0.13315 0.27353 0.20999 0.0
C276 C 0.136 0.28723 0.22068 0.0
C277 C 0.12382 0.28584 0.23128 0.0
C278 C 0.11499 0.24345 0.19956 0.0
C279 C 0.15178 0.30341 0.22069 0.0
C280 C 0.24842 0.27532 0.21684 0.0
C281 C 0.23848 0.28191 0.22548 0.0
C282 C 0.20985 0.27119 0.21766 0.0
C283 C 0.19604 0.25687 0.21117 0.0
C284 C 0.18301 0.25756 0.20359 0.0
C285 C 0.18385 0.273 0.20256 0.0
C286 C 0.19758 0.28748 0.20959 0.0
C287 C 0.21037 0.28642 0.21723 0.0
C288 C 0.16839 0.24182 0.19658 0.0
C289 C 0.19873 0.30411 0.20901 0.0
C290 C 0.16403 0.27866 0.12319 0.0
C291 C 0.15225 0.28189 0.11672 0.0
C292 C 0.14188 0.28391 0.12753 0.0
C293 C 0.14278 0.28187 0.14524 0.0
C294 C 0.13157 0.28213 0.15632 0.0
C295 C 0.13249 0.27991 0.17369 0.0
C296 C 0.14475 0.27751 0.18067 0.0
C297 C 0.14564 0.27496 0.19823 0.0
C298 C 0.15841 0.2734 0.20489 0.0
C299 C 0.17028 0.27402 0.19442 0.0
C300 C 0.16917 0.27575 0.17667 0.0
C301 C 0.1805 0.2757 0.16561 0.0
C302 C 0.17893 0.2768 0.1481 0.0
C303 C 0.16617 0.27832 0.14103 0.0
C304 C 0.15516 0.27934 0.15202 0.0
C305 C 0.15638 0.27757 0.16981 0.0
C306 C 0.07536 0.26496 0.2209 0.0
C307 C 0.08062 0.26145 0.23817 0.0
O308 O 0.19677 0.26021 0.07624 0.0
O309 O 0.22227 0.26975 0.22432 0.0
O310 O 0.09724 0.27116 0.24088 0.0
O311 O 0.09972 0.3017 0.09506 0.0
H312 H 0.19176 0.26927 0.05498 0.0
H313 H 0.18483 0.24027 0.04914 0.0
H314 H 0.20579 0.24613 0.05232 0.0
H315 H 0.19952 0.25396 0.03475 0.0
H316 H 0.20178 0.29069 0.08112 0.0
H317 H 0.17529 0.2407 0.09639 0.0
H318 H 0.17947 0.30555 0.09687 0.0
H319 H 0.20066 0.31234 0.09605 0.0
H320 H 0.19097 0.30828 0.11626 0.0
H321 H 0.15228 0.23148 0.11319 0.0
H322 H 0.14534 0.24544 0.1195 0.0
H323 H 0.16068 0.24458 0.13221 0.0
H324 H 0.09779 0.31938 0.11001 0.0
H325 H 0.0825 0.30658 0.07632 0.0
H326 H 0.1082 0.33933 0.07034 0.0
H327 H 0.08039 0.31936 0.08961 0.0
H328 H 0.09654 0.27272 0.09339 0.0
H329 H 0.12532 0.32173 0.1161 0.0
H330 H 0.11408 0.25422 0.11959 0.0
H331 H 0.12159 0.25847 0.09849 0.0
H332 H 0.10048 0.25084 0.10164 0.0
H333 H 0.15027 0.33061 0.13029 0.0
H334 H 0.15912 0.31763 0.12882 0.0
H335 H 0.14631 0.31563 0.14602 0.0
H336 H 0.07695 0.24817 0.23841 0.0
H337 H 0.09471 0.2461 0.22099 0.0
H338 H 0.12578 0.2963 0.23939 0.0
H339 H 0.11397 0.24569 0.1859 0.0
H340 H 0.10365 0.2322 0.20285 0.0
H341 H 0.1252 0.24112 0.20111 0.0
H342 H 0.15156 0.3133 0.22863 0.0
H343 H 0.15461 0.30754 0.20745 0.0
H344 H 0.16169 0.30167 0.22575 0.0
H345 H 0.24071 0.29279 0.21816 0.0
H346 H 0.26153 0.28462 0.21825 0.0
H347 H 0.24496 0.27277 0.20301 0.0
H348 H 0.24622 0.26364 0.22235 0.0
H349 H 0.19562 0.24514 0.21182 0.0
H350 H 0.22063 0.29749 0.22297 0.0
H351 H 0.16692 0.24254 0.18262 0.0
H352 H 0.15734 0.24033 0.20249 0.0
H353 H 0.16935 0.23072 0.19893 0.0
H354 H 0.21053 0.31433 0.21432 0.0
H355 H 0.18892 0.30397 0.21641 0.0
H356 H 0.19702 0.30664 0.19563 0.0
H357 H 0.15098 0.28262 0.10306 0.0
H358 H 0.12184 0.28384 0.15163 0.0
H359 H 0.12347 0.28014 0.18158 0.0
H360 H 0.15912 0.27169 0.21843 0.0
H361 H 0.19054 0.27453 0.17034 0.0
H362 H 0.18788 0.27648 0.14015 0.0
H363 H 0.07925 0.27829 0.2204 0.0
H364 H 0.06201 0.25752 0.21885 0.0
H365 H 0.08073 0.26164 0.21022 0.0
C366 C 0.75044 0.93618 0.05292 0.0
C367 C 0.73711 0.92778 0.06565 0.0
C368 C 0.73929 0.92156 0.09523 0.0
C369 C 0.72312 0.90917 0.09683 0.0
C370 C 0.71874 0.8981 0.11001 0.0
C371 C 0.73084 0.89924 0.12159 0.0
C372 C 0.74706 0.91213 0.12034 0.0
C373 C 0.75098 0.92336 0.10737 0.0
C374 C 0.70126 0.88479 0.11113 0.0
C375 C 0.76043 0.91361 0.13213 0.0
C376 C 0.70465 0.78454 0.07318 0.0
C377 C 0.71146 0.80215 0.07812 0.0
C378 C 0.71941 0.81793 0.10532 0.0
C379 C 0.73367 0.82869 0.11468 0.0
C380 C 0.73465 0.8414 0.12547 0.0
C381 C 0.72083 0.84299 0.12725 0.0
C382 C 0.70604 0.83137 0.11872 0.0
C383 C 0.70548 0.81894 0.10781 0.0
C384 C 0.75063 0.85357 0.13436 0.0
C385 C 0.69097 0.83243 0.1207 0.0
C386 C 0.71972 0.82809 0.24005 0.0
C387 C 0.73431 0.83914 0.23265 0.0
C388 C 0.73539 0.85174 0.22258 0.0
C389 C 0.72153 0.85316 0.21961 0.0
C390 C 0.70697 0.84237 0.22746 0.0
C391 C 0.70634 0.8301 0.23776 0.0
C392 C 0.7513 0.8634 0.21493 0.0
C393 C 0.692 0.84359 0.2247 0.0
C394 C 0.73157 0.9751 0.22467 0.0
C395 C 0.72348 0.9587 0.23361 0.0
C396 C 0.73169 0.93809 0.22845 0.0
C397 C 0.74518 0.93694 0.2242 0.0
C398 C 0.74344 0.92227 0.21685 0.0
C399 C 0.72778 0.9084 0.21373 0.0
C400 C 0.71409 0.90925 0.21864 0.0
C401 C 0.7162 0.92403 0.22613 0.0
C402 C 0.75832 0.92166 0.21218 0.0
C403 C 0.69724 0.89457 0.21582 0.0
C404 C 0.72694 0.88571 0.13333 0.0
C405 C 0.72507 0.87102 0.12614 0.0
C406 C 0.72234 0.85791 0.13618 0.0
C407 C 0.72165 0.85947 0.15407 0.0
C408 C 0.71914 0.8466 0.1646 0.0
C409 C 0.71914 0.84854 0.18226 0.0
C410 C 0.72157 0.86339 0.19004 0.0
C411 C 0.72224 0.86572 0.20802 0.0
C412 C 0.72424 0.88046 0.21529 0.0
C413 C 0.72568 0.89308 0.20511 0.0
C414 C 0.72539 0.89111 0.18713 0.0
C415 C 0.72701 0.90363 0.17648 0.0
C416 C 0.72732 0.90182 0.15884 0.0
C417 C 0.72596 0.88742 0.15117 0.0
C418 C 0.72361 0.87435 0.16159 0.0
C419 C 0.72346 0.87626 0.1796 0.0
C420 C 0.72411 0.79889 0.23012 0.0
C421 C 0.72693 0.80739 0.24794 0.0
O422 O 0.74409 0.93179 0.08203 0.0
O423 O 0.73418 0.95287 0.23482 0.0
O424 O 0.71798 0.81525 0.24923 0.0
O425 O 0.71952 0.80678 0.094 0.0
H426 H 0.73131 0.9142 0.06288 0.0
H427 H 0.75935 0.93201 0.05446 0.0
H428 H 0.75685 0.94984 0.05508 0.0
H429 H 0.74524 0.93288 0.03962 0.0
H430 H 0.71393 0.90802 0.08772 0.0
H431 H 0.76339 0.93311 0.10611 0.0
H432 H 0.6996 0.87295 0.10569 0.0
H433 H 0.69303 0.88775 0.10389 0.0
H434 H 0.69775 0.883 0.12463 0.0
H435 H 0.77258 0.92327 0.12832 0.0
H436 H 0.76012 0.90162 0.13231 0.0
H437 H 0.75865 0.91681 0.14532 0.0
H438 H 0.70338 0.80718 0.07537 0.0
H439 H 0.71811 0.78391 0.05279 0.0
H440 H 0.70028 0.77648 0.08437 0.0
H441 H 0.70028 0.77648 0.08437 0.0
H442 H 0.74425 0.82756 0.1129 0.0
H443 H 0.69419 0.8101 0.10119 0.0
H444 H 0.74922 0.85364 0.14835 0.0
H445 H 0.7546 0.86623 0.13022 0.0
H446 H 0.76023 0.8506 0.13164 0.0
H447 H 0.67999 0.82118 0.11529 0.0
H448 H 0.69229 0.84327 0.114 0.0
H449 H 0.68928 0.83426 0.13438 0.0
H450 H 0.74 0.81661 0.2502 0.0
H451 H 0.74489 0.838 0.23461 0.0
H452 H 0.69519 0.82163 0.24367 0.0
H453 H 0.75038 0.86071 0.20094 0.0
H454 H 0.76142 0.8622 0.2204 0.0
H455 H 0.75422 0.87639 0.21703 0.0
H456 H 0.6813 0.83346 0.23062 0.0
H457 H 0.68923 0.84322 0.21082 0.0
H458 H 0.69418 0.85559 0.23028 0.0
H459 H 0.71271 0.9503 0.22525 0.0
H460 H 0.72358 0.9805 0.2245 0.0
H461 H 0.73381 0.97293 0.21127 0.0
H462 H 0.74337 0.98413 0.23106 0.0
H463 H 0.75711 0.94773 0.22635 0.0
H464 H 0.7057 0.92447 0.23019 0.0
H465 H 0.75839 0.92008 0.19811 0.0
H466 H 0.75812 0.91085 0.21783 0.0
H467 H 0.76966 0.93306 0.2166 0.0
H468 H 0.6878 0.8974 0.21973 0.0
H469 H 0.69607 0.88416 0.22323 0.0
H470 H 0.69502 0.8904 0.20213 0.0
H471 H 0.72598 0.86985 0.11245 0.0
H472 H 0.71733 0.83497 0.15929 0.0
H473 H 0.71729 0.83826 0.18974 0.0
H474 H 0.72479 0.8822 0.22908 0.0
H475 H 0.72825 0.91505 0.18169 0.0
H476 H 0.72874 0.91189 0.15126 0.0
H477 H 0.73111 0.79243 0.229 0.0
H478 H 0.72813 0.80809 0.22009 0.0
H479 H 0.71106 0.78974 0.22764 0.0
C480 C 0.19403 0.92641 0.06852 0.0
C481 C 0.2088 0.93205 0.08074 0.0
C482 C 0.19614 0.91077 0.10195 0.0
C483 C 0.18677 0.91681 0.10934 0.0
C484 C 0.17452 0.90723 0.12043 0.0
C485 C 0.17173 0.89142 0.1244 0.0
C486 C 0.18171 0.8857 0.11774 0.0
C487 C 0.19383 0.8955 0.10662 0.0
C488 C 0.16419 0.91377 0.12747 0.0
C489 C 0.1792 0.869 0.12191 0.0
C490 C 0.06882 0.82301 0.05635 0.0
C491 C 0.07769 0.81819 0.06928 0.0
C492 C 0.08821 0.8311 0.09757 0.0
C493 C 0.09966 0.82623 0.10031 0.0
C494 C 0.11251 0.83484 0.11241 0.0
C495 C 0.11411 0.84885 0.12164 0.0
C496 C 0.10237 0.8536 0.11905 0.0
C497 C 0.08932 0.84435 0.10734 0.0
C498 C 0.12457 0.82919 0.115 0.0
C499 C 0.10384 0.86874 0.12818 0.0
C500 C 0.08484 0.83626 0.23247 0.0
C501 C 0.09228 0.82761 0.22643 0.0
C502 C 0.10673 0.83574 0.2177 0.0
C503 C 0.11352 0.85272 0.21453 0.0
C504 C 0.10602 0.86144 0.22075 0.0
C505 C 0.09194 0.85313 0.22994 0.0
C506 C 0.11477 0.82623 0.21198 0.0
C507 C 0.11286 0.87955 0.21772 0.0
C508 C 0.22927 0.95147 0.23952 0.0
C509 C 0.21859 0.94132 0.25384 0.0
C510 C 0.19872 0.91489 0.23894 0.0
C511 C 0.19458 0.89843 0.23594 0.0
C512 C 0.18132 0.88762 0.2251 0.0
C513 C 0.17186 0.89342 0.2172 0.0
C514 C 0.17595 0.91007 0.22016 0.0
C515 C 0.18941 0.92068 0.23089 0.0
C516 C 0.17737 0.86998 0.22213 0.0
C517 C 0.166 0.91663 0.21208 0.0
C518 C 0.1574 0.88027 0.13411 0.0
C519 C 0.14307 0.86975 0.12472 0.0
C520 C 0.12879 0.85934 0.13276 0.0
C521 C 0.1287 0.85947 0.15079 0.0
C522 C 0.11452 0.84937 0.15935 0.0
C523 C 0.1144 0.85014 0.17709 0.0
C524 C 0.1286 0.86061 0.18697 0.0
C525 C 0.1286 0.86157 0.20501 0.0
C526 C 0.14296 0.87207 0.21439 0.0
C527 C 0.15737 0.88195 0.2063 0.0
C528 C 0.15762 0.88125 0.18829 0.0
C529 C 0.1719 0.89106 0.17973 0.0
C530 C 0.17189 0.89071 0.16198 0.0
C531 C 0.15764 0.88043 0.15213 0.0
C532 C 0.14318 0.8701 0.1605 0.0
C533 C 0.14316 0.87056 0.1786 0.0
C534 C 0.04247 0.81359 0.23831 0.0
C535 C 0.0581 0.81299 0.23756 0.0
O536 O 0.20719 0.91898 0.09002 0.0
O537 O 0.21172 0.92457 0.24965 0.0
O538 O 0.07099 0.82883 0.24107 0.0
O539 O 0.07609 0.82341 0.08548 0.0
H540 H 0.21005 0.94211 0.08966 0.0
H541 H 0.18289 0.92238 0.07567 0.0
H542 H 0.19221 0.91593 0.05992 0.0
H543 H 0.19571 0.93677 0.06064 0.0
H544 H 0.18869 0.9288 0.10626 0.0
H545 H 0.20124 0.89102 0.10106 0.0
H546 H 0.15143 0.90558 0.12286 0.0
H547 H 0.16822 0.92654 0.12362 0.0
H548 H 0.1645 0.91371 0.14161 0.0
H549 H 0.18889 0.86698 0.11702 0.0
H550 H 0.1674 0.85917 0.11618 0.0
H551 H 0.17879 0.86771 0.13594 0.0
H552 H 0.09068 0.82475 0.06602 0.0
H553 H 0.07026 0.81942 0.04316 0.0
H554 H 0.07394 0.83661 0.05724 0.0
H555 H 0.05573 0.81686 0.05891 0.0
H556 H 0.09857 0.8157 0.09298 0.0
H557 H 0.0803 0.84789 0.10518 0.0
H558 H 0.12747 0.82938 0.12881 0.0
H559 H 0.13595 0.83779 0.10885 0.0
H560 H 0.12005 0.81653 0.10935 0.0
H561 H 0.09511 0.87209 0.12284 0.0
H562 H 0.11627 0.87946 0.12734 0.0
H563 H 0.1015 0.86639 0.14188 0.0
H564 H 0.05866 0.80866 0.22433 0.0
H565 H 0.08698 0.81461 0.22881 0.0
H566 H 0.08616 0.85969 0.23486 0.0
H567 H 0.11379 0.82463 0.19786 0.0
H568 H 0.10918 0.81382 0.21739 0.0
H569 H 0.12784 0.83322 0.21583 0.0
H570 H 0.10436 0.88385 0.22119 0.0
H571 H 0.11578 0.882 0.20412 0.0
H572 H 0.12424 0.88695 0.22555 0.0
H573 H 0.20892 0.94437 0.25581 0.0
H574 H 0.23476 0.9649 0.24277 0.0
H575 H 0.22199 0.94858 0.2274 0.0
H576 H 0.23907 0.94864 0.23749 0.0
H577 H 0.20183 0.89407 0.24214 0.0
H578 H 0.19246 0.93339 0.23292 0.0
H579 H 0.17642 0.86688 0.20822 0.0
H580 H 0.16546 0.86151 0.22743 0.0
H581 H 0.18661 0.86772 0.22819 0.0
H582 H 0.17014 0.92956 0.21652 0.0
H583 H 0.1531 0.90873 0.21506 0.0
H584 H 0.16677 0.91618 0.198 0.0
H585 H 0.14299 0.86982 0.11089 0.0
H586 H 0.10328 0.84093 0.15242 0.0
H587 H 0.10303 0.84236 0.18295 0.0
H588 H 0.14284 0.87288 0.22821 0.0
H589 H 0.18322 0.89924 0.18666 0.0
H590 H 0.18319 0.89864 0.15605 0.0
H591 H 0.04107 0.81754 0.25135 0.0
H592 H 0.0318 0.80128 0.23475 0.0
H593 H 0.04277 0.82255 0.22918 0.0
C594 C 0.29016 0.06916 0.94683 0.0
C595 C 0.2799 0.07419 0.93719 0.0
C596 C 0.28 0.09957 0.93199 0.0
C597 C 0.26739 0.09313 0.91948 0.0
C598 C 0.26574 0.10354 0.90818 0.0
C599 C 0.2774 0.12065 0.90895 0.0
C600 C 0.29002 0.12716 0.92174 0.0
C601 C 0.29089 0.11655 0.93335 0.0
C602 C 0.2515 0.09615 0.8955 0.0
C603 C 0.30267 0.14529 0.92318 0.0
C604 C 0.24188 0.19228 0.96086 0.0
C605 C 0.25601 0.19516 0.94994 0.0
C606 C 0.25536 0.18323 0.92193 0.0
C607 C 0.27167 0.18791 0.92083 0.0
C608 C 0.27628 0.17876 0.91032 0.0
C609 C 0.26425 0.16439 0.90111 0.0
C610 C 0.24782 0.16004 0.90169 0.0
C611 C 0.24364 0.16979 0.91185 0.0
C612 C 0.29396 0.18411 0.90959 0.0
C613 C 0.23464 0.14469 0.89227 0.0
C614 C 0.26343 0.1745 0.78558 0.0
C615 C 0.27832 0.18309 0.79471 0.0
C616 C 0.28292 0.17501 0.80639 0.0
C617 C 0.27215 0.15813 0.80928 0.0
C618 C 0.25713 0.14946 0.79996 0.0
C619 C 0.25311 0.15772 0.78797 0.0
C620 C 0.2993 0.18446 0.81553 0.0
C621 C 0.2453 0.13148 0.80266 0.0
C622 C 0.29423 0.06015 0.80385 0.0
C623 C 0.29206 0.06856 0.78842 0.0
C624 C 0.29678 0.09543 0.80034 0.0
C625 C 0.30833 0.11221 0.80263 0.0
C626 C 0.30491 0.12324 0.81149 0.0
C627 C 0.28936 0.11738 0.81792 0.0
C628 C 0.27756 0.10038 0.81568 0.0
C629 C 0.28148 0.08953 0.80721 0.0
C630 C 0.31788 0.14121 0.81379 0.0
C631 C 0.26068 0.09368 0.82194 0.0
C632 C 0.27597 0.13181 0.89689 0.0
C633 C 0.27089 0.14241 0.90333 0.0
C634 C 0.26872 0.15291 0.89279 0.0
C635 C 0.271 0.15241 0.87508 0.0
C636 C 0.26818 0.16223 0.86396 0.0
C637 C 0.26986 0.16114 0.84647 0.0
C638 C 0.27499 0.15063 0.8395 0.0
C639 C 0.27663 0.14933 0.82172 0.0
C640 C 0.28168 0.1387 0.81528 0.0
C641 C 0.28511 0.12916 0.82603 0.0
C642 C 0.28366 0.13037 0.84385 0.0
C643 C 0.2873 0.12123 0.85512 0.0
C644 C 0.28504 0.12186 0.87254 0.0
C645 C 0.27908 0.1317 0.87935 0.0
C646 C 0.27619 0.14173 0.86835 0.0
C647 C 0.27838 0.14099 0.85057 0.0
C648 C 0.24028 0.19137 0.77745 0.0
C649 C 0.25808 0.19613 0.77779 0.0
O650 O 0.28241 0.08962 0.94237 0.0
O651 O 0.30095 0.08559 0.79131 0.0
O652 O 0.25893 0.18206 0.7741 0.0
O653 O 0.2506 0.19117 0.933 0.0
H654 H 0.26685 0.06458 0.93551 0.0
H655 H 0.29476 0.07735 0.95885 0.0
H656 H 0.30553 0.06873 0.92849 0.0
H657 H 0.28137 0.0578 0.95352 0.0
H658 H 0.25873 0.08 0.91863 0.0
H659 H 0.30053 0.12137 0.94313 0.0
H660 H 0.24633 0.10435 0.89432 0.0
H661 H 0.24179 0.0838 0.89916 0.0
H662 H 0.25553 0.09464 0.88277 0.0
H663 H 0.31355 0.1476 0.93082 0.0
H664 H 0.29749 0.15218 0.9296 0.0
H665 H 0.30643 0.15031 0.91038 0.0
H666 H 0.26015 0.18667 0.9544 0.0
H667 H 0.24589 0.1952 0.97455 0.0
H668 H 0.23214 0.17911 0.95939 0.0
H669 H 0.23684 0.2001 0.95688 0.0
H670 H 0.28079 0.19859 0.92832 0.0
H671 H 0.23108 0.16642 0.91272 0.0
H672 H 0.29716 0.18321 0.89624 0.0
H673 H 0.29642 0.17579 0.91718 0.0
H674 H 0.30188 0.19698 0.91483 0.0
H675 H 0.22242 0.14278 0.89447 0.0
H676 H 0.23504 0.13368 0.8964 0.0
H677 H 0.23661 0.14556 0.87837 0.0
H678 H 0.2633 0.20136 0.79087 0.0
H679 H 0.28641 0.19602 0.79244 0.0
H680 H 0.24171 0.15122 0.78066 0.0
H681 H 0.29779 0.18617 0.82928 0.0
H682 H 0.30698 0.19683 0.81034 0.0
H683 H 0.30569 0.17738 0.8145 0.0
H684 H 0.23337 0.12717 0.79608 0.0
H685 H 0.24349 0.1294 0.81649 0.0
H686 H 0.25025 0.12381 0.79766 0.0
H687 H 0.27904 0.0644 0.78628 0.0
H688 H 0.28696 0.04649 0.80186 0.0
H689 H 0.2901 0.0637 0.8155 0.0
H690 H 0.30716 0.06393 0.80596 0.0
H691 H 0.32012 0.11667 0.7974 0.0
H692 H 0.27241 0.07657 0.80587 0.0
H693 H 0.31869 0.1457 0.82724 0.0
H694 H 0.31469 0.14869 0.80562 0.0
H695 H 0.32992 0.14334 0.81026 0.0
H696 H 0.25232 0.08076 0.81709 0.0
H697 H 0.25567 0.10151 0.81794 0.0
H698 H 0.26107 0.09389 0.83609 0.0
H699 H 0.26863 0.14253 0.91681 0.0
H700 H 0.26433 0.17062 0.86864 0.0
H701 H 0.26714 0.1687 0.83848 0.0
H702 H 0.28262 0.13756 0.8016 0.0
H703 H 0.29179 0.11333 0.85056 0.0
H704 H 0.28791 0.11445 0.88059 0.0
H705 H 0.23909 0.20226 0.78094 0.0
H706 H 0.23373 0.18177 0.78682 0.0
H707 H 0.23454 0.18633 0.76455 0.0
C708 C 0.81293 0.04438 0.96574 0.0
C709 C 0.80694 0.05482 0.9571 0.0
C710 C 0.8127 0.06318 0.92818 0.0
C711 C 0.81035 0.07672 0.92791 0.0
C712 C 0.81922 0.08973 0.91718 0.0
C713 C 0.83101 0.08933 0.9069 0.0
C714 C 0.83301 0.07535 0.90683 0.0
C715 C 0.82352 0.06225 0.91723 0.0
C716 C 0.81639 0.10415 0.91738 0.0
C717 C 0.84569 0.07454 0.89643 0.0
C718 C 0.93594 0.20978 0.9522 0.0
C719 C 0.92765 0.19238 0.94506 0.0
C720 C 0.9005 0.1717 0.93413 0.0
C721 C 0.90483 0.16093 0.92621 0.0
C722 C 0.8938 0.14779 0.91511 0.0
C723 C 0.87831 0.14566 0.91156 0.0
C724 C 0.87398 0.15655 0.9195 0.0
C725 C 0.88507 0.16928 0.93088 0.0
C726 C 0.89867 0.13614 0.90726 0.0
C727 C 0.85762 0.15476 0.91597 0.0
C728 C 0.90657 0.1728 0.80327 0.0
C729 C 0.90517 0.15721 0.80454 0.0
C730 C 0.89207 0.14443 0.81254 0.0
C731 C 0.87982 0.14707 0.81893 0.0
C732 C 0.8808 0.16249 0.81698 0.0
C733 C 0.89432 0.17523 0.80942 0.0
C734 C 0.89141 0.12811 0.81426 0.0
C735 C 0.86768 0.16557 0.82304 0.0
C736 C 0.76899 0.03278 0.79556 0.0
C737 C 0.77565 0.04808 0.78481 0.0
C738 C 0.80382 0.06782 0.7936 0.0
C739 C 0.81778 0.06751 0.79837 0.0
C740 C 0.83005 0.08026 0.80886 0.0
C741 C 0.82836 0.09375 0.81452 0.0
C742 C 0.81451 0.09443 0.80927 0.0
C743 C 0.80243 0.08152 0.79875 0.0
C744 C 0.84477 0.07926 0.81401 0.0
C745 C 0.8125 0.10882 0.8148 0.0
C746 C 0.8424 0.10421 0.89779 0.0
C747 C 0.8546 0.11755 0.90762 0.0
C748 C 0.86634 0.13171 0.90007 0.0
C749 C 0.86631 0.13245 0.8821 0.0
C750 C 0.87837 0.14615 0.874 0.0
C751 C 0.87851 0.14653 0.85629 0.0
C752 C 0.86623 0.1335 0.84599 0.0
C753 C 0.86624 0.13378 0.82796 0.0
C754 C 0.85367 0.12077 0.81815 0.0
C755 C 0.84113 0.10724 0.8258 0.0
C756 C 0.84109 0.10657 0.8438 0.0
C757 C 0.82882 0.09302 0.85193 0.0
C758 C 0.82912 0.09227 0.86962 0.0
C759 C 0.84168 0.10506 0.87985 0.0
C760 C 0.85388 0.1191 0.87196 0.0
C761 C 0.85368 0.11976 0.8539 0.0
C762 C 0.94479 0.18672 0.8013 0.0
C763 C 0.93214 0.18585 0.78824 0.0
O764 O 0.80533 0.05137 0.93964 0.0
O765 O 0.79222 0.05494 0.78372 0.0
O766 O 0.9195 0.18584 0.7965 0.0
O767 O 0.9109 0.18467 0.94477 0.0
H768 H 0.81643 0.06799 0.96008 0.0
H769 H 0.82496 0.04758 0.96102 0.0
H770 H 0.80447 0.03098 0.96286 0.0
H771 H 0.81416 0.04687 0.97979 0.0
H772 H 0.80175 0.0772 0.93631 0.0
H773 H 0.82515 0.05164 0.91759 0.0
H774 H 0.82587 0.11436 0.92574 0.0
H775 H 0.80442 0.1008 0.92244 0.0
H776 H 0.81712 0.10878 0.90438 0.0
H777 H 0.84708 0.06383 0.8995 0.0
H778 H 0.85758 0.08605 0.89868 0.0
H779 H 0.84229 0.07343 0.88265 0.0
H780 H 0.93232 0.18453 0.9501 0.0
H781 H 0.94281 0.2098 0.96402 0.0
H782 H 0.92666 0.21125 0.95942 0.0
H783 H 0.94743 0.22375 0.93127 0.0
H784 H 0.91671 0.1626 0.92882 0.0
H785 H 0.88186 0.17767 0.93706 0.0
H786 H 0.89931 0.1374 0.89324 0.0
H787 H 0.88944 0.12316 0.90958 0.0
H788 H 0.9106 0.13862 0.91243 0.0
H789 H 0.85682 0.16533 0.92159 0.0
H790 H 0.84817 0.14324 0.92144 0.0
H791 H 0.85497 0.15376 0.902 0.0
H792 H 0.92758 0.17423 0.78023 0.0
H793 H 0.9143 0.1549 0.79958 0.0
H794 H 0.89537 0.18722 0.80825 0.0
H795 H 0.88921 0.1243 0.82766 0.0
H796 H 0.90272 0.12862 0.81038 0.0
H797 H 0.8812 0.11845 0.80611 0.0
H798 H 0.86916 0.17736 0.81854 0.0
H799 H 0.86794 0.16612 0.83719 0.0
H800 H 0.85562 0.15526 0.81848 0.0
H801 H 0.7726 0.05661 0.79171 0.0
H802 H 0.75556 0.02609 0.79517 0.0
H803 H 0.7734 0.03667 0.80905 0.0
H804 H 0.7732 0.02431 0.79106 0.0
H805 H 0.81889 0.05706 0.79406 0.0
H806 H 0.79211 0.08237 0.79439 0.0
H807 H 0.84589 0.07937 0.82813 0.0
H808 H 0.8558 0.09025 0.80971 0.0
H809 H 0.84427 0.06795 0.80852 0.0
H810 H 0.80093 0.10744 0.8098 0.0
H811 H 0.82266 0.12045 0.81027 0.0
H812 H 0.8129 0.11 0.82895 0.0
H813 H 0.85498 0.1169 0.92139 0.0
H814 H 0.88802 0.15663 0.88126 0.0
H815 H 0.88832 0.15724 0.85079 0.0
H816 H 0.85377 0.12105 0.80433 0.0
H817 H 0.8189 0.08276 0.84469 0.0
H818 H 0.81941 0.08152 0.8752 0.0
H819 H 0.94782 0.19649 0.81144 0.0
H820 H 0.95596 0.18919 0.79487 0.0
H821 H 0.94012 0.17485 0.80763 0.0
C822 C 0.81218 0.73206 0.95626 0.0
C823 C 0.79886 0.72224 0.94237 0.0
C824 C 0.81398 0.71476 0.92257 0.0
C825 C 0.82365 0.73063 0.91641 0.0
C826 C 0.83662 0.73407 0.90604 0.0
C827 C 0.83987 0.72135 0.9015 0.0
C828 C 0.82986 0.70525 0.90718 0.0
C829 C 0.817 0.70217 0.91763 0.0
C830 C 0.84704 0.7514 0.90016 0.0
C831 C 0.83289 0.69138 0.90238 0.0
C832 C 0.94547 0.76824 0.95979 0.0
C833 C 0.93479 0.7502 0.95328 0.0
C834 C 0.92396 0.74592 0.92442 0.0
C835 C 0.91513 0.73046 0.91587 0.0
C836 C 0.90191 0.72681 0.90484 0.0
C837 C 0.89773 0.73907 0.90217 0.0
C838 C 0.90709 0.75496 0.91031 0.0
C839 C 0.92011 0.75819 0.92143 0.0
C840 C 0.89213 0.70973 0.89641 0.0
C841 C 0.90315 0.76839 0.90748 0.0
C842 C 0.92702 0.76571 0.79338 0.0
C843 C 0.92073 0.74934 0.79812 0.0
C844 C 0.90604 0.74115 0.8064 0.0
C845 C 0.89788 0.74978 0.81063 0.0
C846 C 0.9042 0.76625 0.80568 0.0
C847 C 0.91852 0.77385 0.79678 0.0
C848 C 0.89928 0.72332 0.81063 0.0
C849 C 0.89592 0.77591 0.80988 0.0
C850 C 0.77638 0.71558 0.79963 0.0
C851 C 0.78535 0.71824 0.78304 0.0
C852 C 0.80909 0.71611 0.79187 0.0
C853 C 0.81527 0.70545 0.79199 0.0
C854 C 0.82987 0.70988 0.80081 0.0
C855 C 0.83862 0.72553 0.80953 0.0
C856 C 0.83271 0.73662 0.80908 0.0
C857 C 0.81792 0.73175 0.8004 0.0
C858 C 0.83581 0.69774 0.80107 0.0
C859 C 0.84191 0.75354 0.81799 0.0
C860 C 0.85415 0.72519 0.89138 0.0
C861 C 0.8686 0.72942 0.90026 0.0
C862 C 0.88297 0.73494 0.89176 0.0
C863 C 0.88308 0.73662 0.87392 0.0
C864 C 0.8975 0.74316 0.86511 0.0
C865 C 0.8975 0.74506 0.84759 0.0
C866 C 0.883 0.74001 0.8381 0.0
C867 C 0.88281 0.74173 0.82024 0.0
C868 C 0.86814 0.73658 0.81129 0.0
C869 C 0.85363 0.73005 0.8197 0.0
C870 C 0.85358 0.72835 0.83753 0.0
C871 C 0.83918 0.72194 0.8464 0.0
C872 C 0.83932 0.72087 0.86403 0.0
C873 C 0.85382 0.72586 0.87343 0.0
C874 C 0.86839 0.73184 0.86469 0.0
C875 C 0.86831 0.7333 0.84674 0.0
C876 C 0.96973 0.78951 0.78627 0.0
C877 C 0.9547 0.77262 0.78839 0.0
O878 O 0.80187 0.71113 0.93346 0.0
O879 O 0.7946 0.71069 0.78348 0.0
O880 O 0.94113 0.77394 0.78531 0.0
O881 O 0.93598 0.74877 0.93582 0.0
H882 H 0.79834 0.73091 0.93336 0.0
H883 H 0.82409 0.73958 0.95057 0.0
H884 H 0.8131 0.72355 0.96515 0.0
H885 H 0.8095 0.74063 0.96365 0.0
H886 H 0.82133 0.74048 0.91978 0.0
H887 H 0.80942 0.68993 0.92229 0.0
H888 H 0.85985 0.75619 0.90428 0.0
H889 H 0.84325 0.76005 0.90527 0.0
H890 H 0.84643 0.75125 0.88601 0.0
H891 H 0.82338 0.67931 0.90687 0.0
H892 H 0.84477 0.69419 0.90804 0.0
H893 H 0.83344 0.69034 0.8883 0.0
H894 H 0.92211 0.74642 0.95637 0.0
H895 H 0.94549 0.76919 0.97394 0.0
H896 H 0.9407 0.77591 0.95467 0.0
H897 H 0.95809 0.77338 0.95576 0.0
H898 H 0.91832 0.72113 0.91828 0.0
H899 H 0.92724 0.77025 0.92786 0.0
H900 H 0.8917 0.71061 0.88236 0.0
H901 H 0.87951 0.70379 0.90064 0.0
H902 H 0.89719 0.70171 0.89949 0.0
H903 H 0.91225 0.7804 0.91384 0.0
H904 H 0.89111 0.7647 0.91252 0.0
H905 H 0.90249 0.77008 0.8936 0.0
H906 H 0.95504 0.76937 0.80189 0.0
H907 H 0.9271 0.74286 0.79512 0.0
H908 H 0.92344 0.78642 0.79287 0.0
H909 H 0.90102 0.72259 0.82453 0.0
H910 H 0.90536 0.71758 0.80373 0.0
H911 H 0.88611 0.71602 0.80737 0.0
H912 H 0.90357 0.78922 0.80734 0.0
H913 H 0.89277 0.7748 0.82351 0.0
H914 H 0.88451 0.77077 0.80202 0.0
H915 H 0.79326 0.7317 0.78136 0.0
H916 H 0.76886 0.72151 0.79925 0.0
H917 H 0.78513 0.72119 0.81071 0.0
H918 H 0.76845 0.70217 0.80155 0.0
H919 H 0.80841 0.69344 0.78534 0.0
H920 H 0.81339 0.74022 0.80047 0.0
H921 H 0.83748 0.69522 0.81447 0.0
H922 H 0.84775 0.70318 0.79519 0.0
H923 H 0.82732 0.68585 0.79409 0.0
H924 H 0.83666 0.76138 0.81485 0.0
H925 H 0.85474 0.75995 0.81441 0.0
H926 H 0.84173 0.75225 0.83201 0.0
H927 H 0.86872 0.72872 0.91404 0.0
H928 H 0.90899 0.74711 0.87173 0.0
H929 H 0.90901 0.75047 0.84157 0.0
H930 H 0.86807 0.738 0.79762 0.0
H931 H 0.82764 0.71784 0.83985 0.0
H932 H 0.82792 0.71601 0.87021 0.0
H933 H 0.98088 0.78906 0.78927 0.0
H934 H 0.96956 0.79887 0.79514 0.0
H935 H 0.97009 0.79344 0.77299 0.0
C936 C 0.86555 0.59218 0.38023 0.0
C937 C 0.87406 0.6076 0.39224 0.0
C938 C 0.8646 0.60615 0.42089 0.0
C939 C 0.86722 0.62216 0.42375 0.0
C940 C 0.85831 0.62531 0.43572 0.0
C941 C 0.84635 0.61209 0.44474 0.0
C942 C 0.84387 0.59595 0.44197 0.0
C943 C 0.85333 0.5933 0.43033 0.0
C944 C 0.86156 0.64272 0.43859 0.0
C945 C 0.83099 0.58141 0.45097 0.0
C946 C 0.76179 0.61268 0.39597 0.0
C947 C 0.75424 0.61649 0.41125 0.0
C948 C 0.77654 0.62457 0.43254 0.0
C949 C 0.77386 0.6086 0.43505 0.0
C950 C 0.78531 0.60633 0.44415 0.0
C951 C 0.79969 0.62026 0.45093 0.0
C952 C 0.80218 0.63631 0.44889 0.0
C953 C 0.79049 0.63822 0.43983 0.0
C954 C 0.78216 0.58903 0.44634 0.0
C955 C 0.81735 0.65144 0.45601 0.0
C956 C 0.77895 0.61207 0.56083 0.0
C957 C 0.77751 0.59745 0.55365 0.0
C958 C 0.79011 0.59787 0.54448 0.0
C959 C 0.80436 0.61319 0.54242 0.0
C960 C 0.80611 0.62781 0.55026 0.0
C961 C 0.79338 0.62702 0.55945 0.0
C962 C 0.78801 0.582 0.53655 0.0
C963 C 0.82122 0.64431 0.54841 0.0
C964 C 0.9196 0.61287 0.55173 0.0
C965 C 0.90958 0.62014 0.55866 0.0
C966 C 0.88091 0.60967 0.55141 0.0
C967 C 0.8667 0.59538 0.54565 0.0
C968 C 0.85367 0.59623 0.53836 0.0
C969 C 0.85492 0.61182 0.53688 0.0
C970 C 0.869 0.62629 0.54333 0.0
C971 C 0.88181 0.62507 0.55067 0.0
C972 C 0.83867 0.58052 0.53198 0.0
C973 C 0.87055 0.64306 0.54228 0.0
C974 C 0.83597 0.61494 0.45651 0.0
C975 C 0.82345 0.61666 0.44933 0.0
C976 C 0.81243 0.61812 0.45955 0.0
C977 C 0.81359 0.61739 0.47746 0.0
C978 C 0.80223 0.61794 0.48806 0.0
C979 C 0.8033 0.61688 0.50564 0.0
C980 C 0.81588 0.6154 0.51331 0.0
C981 C 0.81692 0.61403 0.53113 0.0
C982 C 0.82976 0.61294 0.53841 0.0
C983 C 0.84162 0.61302 0.52831 0.0
C984 C 0.84061 0.61401 0.5104 0.0
C985 C 0.85218 0.61383 0.49981 0.0
C986 C 0.85079 0.6143 0.48217 0.0
C987 C 0.83784 0.61508 0.47445 0.0
C988 C 0.8264 0.61595 0.48493 0.0
C989 C 0.82767 0.61518 0.5029 0.0
C990 C 0.74291 0.59843 0.55052 0.0
C991 C 0.7505 0.60019 0.56855 0.0
O992 O 0.87266 0.60278 0.40893 0.0
O993 O 0.89337 0.60803 0.55755 0.0
O994 O 0.76667 0.61246 0.56876 0.0
O995 O 0.76621 0.6274 0.42301 0.0
H996 H 0.86779 0.61473 0.39015 0.0
H997 H 0.85255 0.58486 0.38314 0.0
H998 H 0.87102 0.58428 0.38179 0.0
H999 H 0.86642 0.59573 0.36675 0.0
H1000 H 0.87627 0.63216 0.41665 0.0
H1001 H 0.85152 0.58101 0.42805 0.0
H1002 H 0.85124 0.64356 0.43312 0.0
H1003 H 0.87275 0.6519 0.43252 0.0
H1004 H 0.86267 0.64601 0.45247 0.0
H1005 H 0.82894 0.56943 0.44543 0.0
H1006 H 0.81938 0.58135 0.45026 0.0
H1007 H 0.83469 0.58242 0.46464 0.0
H1008 H 0.746 0.60484 0.4175 0.0
H1009 H 0.77035 0.62427 0.38984 0.0
H1010 H 0.75223 0.60429 0.38636 0.0
H1011 H 0.76846 0.60647 0.40002 0.0
H1012 H 0.76296 0.59786 0.42984 0.0
H1013 H 0.79241 0.65047 0.43799 0.0
H1014 H 0.79128 0.58735 0.43949 0.0
H1015 H 0.76991 0.57944 0.44136 0.0
H1016 H 0.78343 0.58714 0.46006 0.0
H1017 H 0.81759 0.66308 0.45312 0.0
H1018 H 0.82812 0.65177 0.45063 0.0
H1019 H 0.81831 0.65085 0.47006 0.0
H1020 H 0.7494 0.58826 0.57194 0.0
H1021 H 0.76653 0.58572 0.55485 0.0
H1022 H 0.79443 0.6382 0.56518 0.0
H1023 H 0.78758 0.58241 0.52243 0.0
H1024 H 0.77677 0.57096 0.54042 0.0
H1025 H 0.79852 0.58066 0.54025 0.0
H1026 H 0.82086 0.6545 0.55562 0.0
H1027 H 0.82276 0.6472 0.53472 0.0
H1028 H 0.83195 0.64377 0.55303 0.0
H1029 H 0.91198 0.63041 0.55024 0.0
H1030 H 0.9327 0.62225 0.55291 0.0
H1031 H 0.91626 0.60907 0.53802 0.0
H1032 H 0.91738 0.60182 0.55868 0.0
H1033 H 0.86599 0.58353 0.54656 0.0
H1034 H 0.89244 0.63616 0.5558 0.0
H1035 H 0.83706 0.58071 0.51795 0.0
H1036 H 0.82786 0.57969 0.53785 0.0
H1037 H 0.83925 0.56931 0.53489 0.0
H1038 H 0.88238 0.65318 0.54766 0.0
H1039 H 0.86074 0.64329 0.54932 0.0
H1040 H 0.86916 0.64545 0.52875 0.0
H1041 H 0.82217 0.61668 0.43556 0.0
H1042 H 0.79227 0.61902 0.48286 0.0
H1043 H 0.79412 0.61724 0.51313 0.0
H1044 H 0.83046 0.61192 0.5521 0.0
H1045 H 0.86236 0.61315 0.50502 0.0
H1046 H 0.85998 0.61401 0.47464 0.0
H1047 H 0.7416 0.60931 0.54803 0.0
H1048 H 0.73092 0.58699 0.54894 0.0
H1049 H 0.75052 0.59754 0.54058 0.0
C1050 C 0.40216 0.27298 0.38047 0.0
C1051 C 0.38974 0.26373 0.39384 0.0
C1052 C 0.39396 0.25602 0.42198 0.0
C1053 C 0.37801 0.2435 0.42437 0.0
C1054 C 0.37463 0.23152 0.43637 0.0
C1055 C 0.38751 0.23188 0.4459 0.0
C1056 C 0.40356 0.24486 0.44395 0.0
C1057 C 0.40652 0.25698 0.43221 0.0
C1058 C 0.35732 0.21817 0.43846 0.0
C1059 C 0.41763 0.24557 0.45374 0.0
C1060 C 0.37067 0.10731 0.41703 0.0
C1061 C 0.37998 0.12497 0.42325 0.0
C1062 C 0.37478 0.14768 0.42774 0.0
C1063 C 0.38894 0.15807 0.43765 0.0
C1064 C 0.39065 0.17191 0.44695 0.0
C1065 C 0.37771 0.17513 0.44675 0.0
C1066 C 0.3635 0.16475 0.43662 0.0
C1067 C 0.36235 0.1513 0.42702 0.0
C1068 C 0.40629 0.18309 0.45697 0.0
C1069 C 0.34948 0.16779 0.43592 0.0
C1070 C 0.37043 0.15108 0.55853 0.0
C1071 C 0.38562 0.1628 0.55272 0.0
C1072 C 0.38739 0.17592 0.54308 0.0
C1073 C 0.37369 0.17732 0.53901 0.0
C1074 C 0.3584 0.16557 0.54482 0.0
C1075 C 0.35699 0.15262 0.55456 0.0
C1076 C 0.40392 0.1883 0.5372 0.0
C1077 C 0.34356 0.16667 0.54063 0.0
C1078 C 0.40524 0.30482 0.5569 0.0
C1079 C 0.39065 0.28908 0.56305 0.0
C1080 C 0.39183 0.26389 0.55733 0.0
C1081 C 0.40369 0.25961 0.5552 0.0
C1082 C 0.40034 0.24524 0.54571 0.0
C1083 C 0.38456 0.23466 0.53857 0.0
C1084 C 0.37231 0.23861 0.54123 0.0
C1085 C 0.37609 0.25323 0.55057 0.0
C1086 C 0.41369 0.24138 0.54329 0.0
C1087 C 0.35525 0.22735 0.53425 0.0
C1088 C 0.38434 0.21776 0.45645 0.0
C1089 C 0.38251 0.20358 0.44795 0.0
C1090 C 0.37921 0.18958 0.45675 0.0
C1091 C 0.37766 0.18964 0.47464 0.0
C1092 C 0.37398 0.17564 0.48389 0.0
C1093 C 0.37309 0.17603 0.50156 0.0
C1094 C 0.37574 0.1904 0.51066 0.0
C1095 C 0.37547 0.19111 0.52867 0.0
C1096 C 0.37794 0.20552 0.5373 0.0
C1097 C 0.38093 0.21944 0.52845 0.0
C1098 C 0.38139 0.21901 0.51043 0.0
C1099 C 0.38448 0.23281 0.50109 0.0
C1100 C 0.38518 0.23235 0.48339 0.0
C1101 C 0.38314 0.2182 0.47437 0.0
C1102 C 0.37986 0.20409 0.4835 0.0
C1103 C 0.37889 0.20447 0.50153 0.0
C1104 C 0.37502 0.12118 0.58467 0.0
C1105 C 0.38017 0.13459 0.57242 0.0
O1106 O 0.39766 0.26711 0.40971 0.0
O1107 O 0.39589 0.27807 0.56648 0.0
O1108 O 0.36827 0.13823 0.56797 0.0
O1109 O 0.37253 0.13388 0.41904 0.0
H1110 H 0.38409 0.2503 0.39024 0.0
H1111 H 0.41122 0.26892 0.3803 0.0
H1112 H 0.40858 0.28653 0.38342 0.0
H1113 H 0.39613 0.2703 0.36757 0.0
H1114 H 0.36819 0.24299 0.41679 0.0
H1115 H 0.41878 0.26682 0.43038 0.0
H1116 H 0.35529 0.20643 0.43231 0.0
H1117 H 0.34861 0.22125 0.43251 0.0
H1118 H 0.3548 0.21609 0.45219 0.0
H1119 H 0.42943 0.25611 0.45023 0.0
H1120 H 0.41774 0.23391 0.45127 0.0
H1121 H 0.41629 0.24677 0.46763 0.0
H1122 H 0.39313 0.13158 0.42073 0.0
H1123 H 0.3787 0.10587 0.40772 0.0
H1124 H 0.36168 0.10633 0.4069 0.0
H1125 H 0.36371 0.09435 0.43953 0.0
H1126 H 0.39875 0.15549 0.43803 0.0
H1127 H 0.35151 0.14324 0.41927 0.0
H1128 H 0.40428 0.1814 0.47081 0.0
H1129 H 0.41054 0.19625 0.45462 0.0
H1130 H 0.41597 0.18041 0.45366 0.0
H1131 H 0.33838 0.15708 0.42992 0.0
H1132 H 0.35274 0.17873 0.4283 0.0
H1133 H 0.34678 0.17046 0.44894 0.0
H1134 H 0.38647 0.13335 0.56115 0.0
H1135 H 0.39617 0.16184 0.5557 0.0
H1136 H 0.34533 0.14357 0.55909 0.0
H1137 H 0.40388 0.18764 0.52305 0.0
H1138 H 0.41352 0.18608 0.5423 0.0
H1139 H 0.40697 0.20102 0.54129 0.0
H1140 H 0.33243 0.15622 0.54556 0.0
H1141 H 0.34196 0.16677 0.52659 0.0
H1142 H 0.34515 0.17844 0.54623 0.0
H1143 H 0.38122 0.28417 0.55253 0.0
H1144 H 0.40142 0.31291 0.55087 0.0
H1145 H 0.4114 0.30149 0.54704 0.0
H1146 H 0.41408 0.31175 0.56767 0.0
H1147 H 0.41573 0.26779 0.56075 0.0
H1148 H 0.36667 0.25613 0.55284 0.0
H1149 H 0.41457 0.23891 0.52954 0.0
H1150 H 0.41084 0.23005 0.55003 0.0
H1151 H 0.42562 0.25161 0.54831 0.0
H1152 H 0.34687 0.23158 0.53839 0.0
H1153 H 0.35072 0.2146 0.53846 0.0
H1154 H 0.35511 0.2268 0.52009 0.0
H1155 H 0.38369 0.20344 0.43423 0.0
H1156 H 0.37186 0.16426 0.47758 0.0
H1157 H 0.37037 0.16494 0.50801 0.0
H1158 H 0.37793 0.20604 0.55113 0.0
H1159 H 0.38641 0.24414 0.50737 0.0
H1160 H 0.38754 0.24331 0.47687 0.0
H1161 H 0.3754 0.11086 0.57738 0.0
H1162 H 0.36141 0.11462 0.58463 0.0
H1163 H 0.38974 0.13324 0.60656 0.0
C1164 C 0.86979 0.2576 0.3955 0.0
C1165 C 0.88163 0.26207 0.41092 0.0
C1166 C 0.86508 0.2384 0.42848 0.0
C1167 C 0.85418 0.24343 0.43357 0.0
C1168 C 0.8404 0.23286 0.4424 0.0
C1169 C 0.8375 0.217 0.4463 0.0
C1170 C 0.84857 0.212 0.44148 0.0
C1171 C 0.86228 0.22284 0.4327 0.0
C1172 C 0.82886 0.23859 0.44751 0.0
C1173 C 0.84584 0.19518 0.44551 0.0
C1174 C 0.73599 0.14717 0.37466 0.0
C1175 C 0.74481 0.14331 0.38858 0.0
C1176 C 0.75463 0.15686 0.41677 0.0
C1177 C 0.76587 0.15183 0.4202 0.0
C1178 C 0.77834 0.16035 0.4327 0.0
C1179 C 0.77978 0.1744 0.44167 0.0
C1180 C 0.7682 0.17925 0.43847 0.0
C1181 C 0.75553 0.17013 0.42631 0.0
C1182 C 0.79022 0.15458 0.43601 0.0
C1183 C 0.7695 0.19438 0.44742 0.0
C1184 C 0.74855 0.15784 0.55177 0.0
C1185 C 0.75619 0.14958 0.54517 0.0
C1186 C 0.77078 0.15824 0.5368 0.0
C1187 C 0.77751 0.17538 0.53454 0.0
C1188 C 0.76982 0.18369 0.54129 0.0
C1189 C 0.75559 0.17483 0.55011 0.0
C1190 C 0.77902 0.14911 0.53048 0.0
C1191 C 0.77659 0.20194 0.53917 0.0
C1192 C 0.89692 0.27139 0.55467 0.0
C1193 C 0.88702 0.26347 0.57027 0.0
C1194 C 0.86451 0.23687 0.55833 0.0
C1195 C 0.85917 0.22004 0.556 0.0
C1196 C 0.84513 0.20944 0.54604 0.0
C1197 C 0.83604 0.21583 0.53849 0.0
C1198 C 0.84109 0.23278 0.54119 0.0
C1199 C 0.85539 0.24318 0.55087 0.0
C1200 C 0.84015 0.19146 0.54339 0.0
C1201 C 0.83147 0.23995 0.53367 0.0
C1202 C 0.82279 0.20562 0.45533 0.0
C1203 C 0.80865 0.19543 0.44553 0.0
C1204 C 0.79417 0.18482 0.45316 0.0
C1205 C 0.79369 0.18447 0.47117 0.0
C1206 C 0.7793 0.17422 0.47934 0.0
C1207 C 0.77888 0.17442 0.49707 0.0
C1208 C 0.79296 0.18445 0.50732 0.0
C1209 C 0.79271 0.18476 0.52536 0.0
C1210 C 0.80696 0.19487 0.5351 0.0
C1211 C 0.82152 0.20492 0.52736 0.0
C1212 C 0.82202 0.20484 0.50937 0.0
C1213 C 0.83649 0.21483 0.50118 0.0
C1214 C 0.83677 0.21512 0.4835 0.0
C1215 C 0.82266 0.20522 0.4733 0.0
C1216 C 0.80801 0.19472 0.48125 0.0
C1217 C 0.80768 0.1946 0.49933 0.0
C1218 C 0.70621 0.13412 0.55786 0.0
C1219 C 0.72205 0.13395 0.55651 0.0
O1220 O 0.87828 0.24798 0.41937 0.0
O1221 O 0.87846 0.2464 0.5678 0.0
O1222 O 0.73463 0.14992 0.56019 0.0
O1223 O 0.74294 0.14934 0.40419 0.0
H1224 H 0.88067 0.27095 0.41984 0.0
H1225 H 0.85719 0.25213 0.39962 0.0
H1226 H 0.87046 0.24852 0.38662 0.0
H1227 H 0.8727 0.26884 0.38852 0.0
H1228 H 0.85626 0.25553 0.43066 0.0
H1229 H 0.87079 0.21909 0.42883 0.0
H1230 H 0.81675 0.23023 0.44133 0.0
H1231 H 0.833 0.25143 0.44385 0.0
H1232 H 0.82749 0.23798 0.46152 0.0
H1233 H 0.85554 0.1931 0.44076 0.0
H1234 H 0.83405 0.18544 0.43967 0.0
H1235 H 0.84529 0.19383 0.45952 0.0
H1236 H 0.75785 0.14986 0.38552 0.0
H1237 H 0.73755 0.14275 0.36193 0.0
H1238 H 0.74105 0.16074 0.3745 0.0
H1239 H 0.72287 0.14117 0.37703 0.0
H1240 H 0.76494 0.14128 0.4131 0.0
H1241 H 0.74668 0.17379 0.42363 0.0
H1242 H 0.7924 0.15445 0.44995 0.0
H1243 H 0.80195 0.16332 0.43054 0.0
H1244 H 0.78594 0.14204 0.43018 0.0
H1245 H 0.76052 0.19743 0.44218 0.0
H1246 H 0.78182 0.2052 0.44625 0.0
H1247 H 0.7675 0.19228 0.46121 0.0
H1248 H 0.72254 0.12998 0.54311 0.0
H1249 H 0.75094 0.13646 0.54686 0.0
H1250 H 0.74965 0.18108 0.55546 0.0
H1251 H 0.77814 0.14805 0.51633 0.0
H1252 H 0.77349 0.13648 0.53534 0.0
H1253 H 0.79206 0.15607 0.53446 0.0
H1254 H 0.76806 0.20603 0.54317 0.0
H1255 H 0.77948 0.20497 0.52566 0.0
H1256 H 0.78798 0.20908 0.54704 0.0
H1257 H 0.87852 0.26808 0.57237 0.0
H1258 H 0.90385 0.28507 0.55663 0.0
H1259 H 0.8888 0.26819 0.54315 0.0
H1260 H 0.9055 0.26691 0.55237 0.0
H1261 H 0.86624 0.21526 0.56182 0.0
H1262 H 0.85927 0.25615 0.55246 0.0
H1263 H 0.83875 0.18804 0.52952 0.0
H1264 H 0.82824 0.18364 0.549 0.0
H1265 H 0.84904 0.18863 0.54931 0.0
H1266 H 0.83573 0.25271 0.53884 0.0
H1267 H 0.81846 0.23205 0.53626 0.0
H1268 H 0.83255 0.24027 0.51962 0.0
H1269 H 0.80889 0.19584 0.43172 0.0
H1270 H 0.76815 0.1661 0.47211 0.0
H1271 H 0.76738 0.16653 0.50264 0.0
H1272 H 0.80665 0.19515 0.54892 0.0
H1273 H 0.84776 0.22266 0.50835 0.0
H1274 H 0.84822 0.2232 0.47792 0.0
H1275 H 0.70465 0.13717 0.57123 0.0
H1276 H 0.69565 0.12199 0.5536 0.0
H1277 H 0.7064 0.1436 0.54957 0.0
C1278 C 0.03373 0.45495 0.25923 0.0
C1279 C 0.02161 0.4526 0.273 0.0
C1280 C 0.00374 0.45888 0.25569 0.0
C1281 C 0.98868 0.4516 0.24704 0.0
C1282 C 0.98493 0.46046 0.23557 0.0
C1283 C 0.99683 0.47687 0.23224 0.0
C1284 C 0.01188 0.48456 0.24152 0.0
C1285 C 0.015 0.47561 0.2535 0.0
C1286 C 0.96831 0.45211 0.22688 0.0
C1287 C 0.02481 0.50214 0.23862 0.0
C1288 C 0.98927 0.5777 0.27149 0.0
C1289 C 0.98247 0.56084 0.26334 0.0
C1290 C 0.98512 0.54803 0.23724 0.0
C1291 C 0.99764 0.55107 0.22651 0.0
C1292 C 0.99846 0.538 0.21838 0.0
C1293 C 0.98577 0.52152 0.22017 0.0
C1294 C 0.97248 0.5185 0.23016 0.0
C1295 C 0.97246 0.53179 0.23886 0.0
C1296 C 0.01324 0.54189 0.20851 0.0
C1297 C 0.95846 0.50123 0.23201 0.0
C1298 C 0.97355 0.51791 0.10448 0.0
C1299 C 0.9895 0.52294 0.10946 0.0
C1300 C 0.99306 0.5146 0.12179 0.0
C1301 C 0.98027 0.50072 0.12918 0.0
C1302 C 0.96408 0.49536 0.12405 0.0
C1303 C 0.96086 0.50404 0.11181 0.0
C1304 C 0.01047 0.52065 0.12698 0.0
C1305 C 0.95019 0.48046 0.13153 0.0
C1306 C 0.00904 0.40364 0.13674 0.0
C1307 C 0.99813 0.40636 0.12441 0.0
C1308 C 0.00139 0.43413 0.12823 0.0
C1309 C 0.01369 0.45062 0.13056 0.0
C1310 C 0.01055 0.46275 0.13715 0.0
C1311 C 0.99461 0.45825 0.1413 0.0
C1312 C 0.982 0.44164 0.13862 0.0
C1313 C 0.98549 0.42974 0.13201 0.0
C1314 C 0.02426 0.48037 0.1397 0.0
C1315 C 0.96482 0.43651 0.14265 0.0
C1316 C 0.9935 0.48596 0.21911 0.0
C1317 C 0.9907 0.49854 0.22466 0.0
C1318 C 0.9872 0.50744 0.2131 0.0
C1319 C 0.98593 0.50336 0.1954 0.0
C1320 C 0.98163 0.51146 0.18343 0.0
C1321 C 0.98097 0.50773 0.16601 0.0
C1322 C 0.98437 0.49559 0.15992 0.0
C1323 C 0.98388 0.49181 0.14225 0.0
C1324 C 0.98716 0.47955 0.13665 0.0
C1325 C 0.9911 0.47097 0.14823 0.0
C1326 C 0.99183 0.4747 0.16594 0.0
C1327 C 0.99603 0.46652 0.17793 0.0
C1328 C 0.99673 0.47029 0.19532 0.0
C1329 C 0.99311 0.48226 0.20143 0.0
C1330 C 0.9891 0.49085 0.18956 0.0
C1331 C 0.98839 0.48701 0.1718 0.0
C1332 C 0.94796 0.51219 0.07323 0.0
C1333 C 0.95658 0.52556 0.08757 0.0
O1334 O 0.00687 0.4492 0.26574 0.0
O1335 O 0.00536 0.42312 0.12165 0.0
O1336 O 0.97107 0.52669 0.09253 0.0
O1337 O 0.9858 0.56097 0.24619 0.0
H1338 H 0.02663 0.46397 0.28149 0.0
H1339 H 0.03738 0.46628 0.25219 0.0
H1340 H 0.0284 0.44423 0.24984 0.0
H1341 H 0.04492 0.45618 0.26521 0.0
H1342 H 0.9799 0.43881 0.24915 0.0
H1343 H 0.02634 0.4817 0.26087 0.0
H1344 H 0.96366 0.4608 0.2262 0.0
H1345 H 0.95953 0.44106 0.23361 0.0
H1346 H 0.96898 0.44806 0.21364 0.0
H1347 H 0.03666 0.50534 0.24473 0.0
H1348 H 0.02112 0.51074 0.24407 0.0
H1349 H 0.02636 0.50416 0.22475 0.0
H1350 H 0.96961 0.55199 0.26603 0.0
H1351 H 0.00684 0.57956 0.28914 0.0
H1352 H 0.9784 0.57838 0.27543 0.0
H1353 H 0.99219 0.58642 0.26082 0.0
H1354 H 0.00727 0.56371 0.22525 0.0
H1355 H 0.96253 0.52947 0.24686 0.0
H1356 H 0.01014 0.54057 0.19463 0.0
H1357 H 0.01756 0.53322 0.21138 0.0
H1358 H 0.02331 0.55472 0.21142 0.0
H1359 H 0.94765 0.50133 0.23669 0.0
H1360 H 0.962 0.49484 0.24133 0.0
H1361 H 0.95516 0.49398 0.21964 0.0
H1362 H 0.94855 0.52227 0.09858 0.0
H1363 H 0.99921 0.53358 0.1037 0.0
H1364 H 0.94843 0.4998 0.10799 0.0
H1365 H 0.01234 0.52316 0.14102 0.0
H1366 H 0.01899 0.53208 0.12059 0.0
H1367 H 0.01342 0.5109 0.12371 0.0
H1368 H 0.9383 0.47742 0.12569 0.0
H1369 H 0.95014 0.48278 0.14548 0.0
H1370 H 0.95175 0.46957 0.12968 0.0
H1371 H 0.98631 0.40164 0.13041 0.0
H1372 H 0.0035 0.3903 0.13926 0.0
H1373 H 0.01067 0.41056 0.14906 0.0
H1374 H 0.02112 0.40806 0.13139 0.0
H1375 H 0.02587 0.45395 0.12732 0.0
H1376 H 0.97567 0.41721 0.12947 0.0
H1377 H 0.0253 0.48459 0.15328 0.0
H1378 H 0.02168 0.48855 0.13195 0.0
H1379 H 0.03602 0.48183 0.13604 0.0
H1380 H 0.95636 0.42308 0.13997 0.0
H1381 H 0.96069 0.44355 0.13498 0.0
H1382 H 0.96426 0.43954 0.15632 0.0
H1383 H 0.99143 0.50156 0.23824 0.0
H1384 H 0.97879 0.52082 0.1874 0.0
H1385 H 0.97776 0.51449 0.15738 0.0
H1386 H 0.98675 0.47672 0.12307 0.0
H1387 H 0.99886 0.45714 0.17399 0.0
H1388 H 0.00018 0.46369 0.20393 0.0
H1389 H 0.95576 0.5148 0.06213 0.0
H1390 H 0.93653 0.51158 0.069 0.0
H1391 H 0.94492 0.49991 0.07776 0.0
C1392 C 0.44322 0.36167 0.2607 0.0
C1393 C 0.44623 0.37862 0.26696 0.0
C1394 C 0.46011 0.40152 0.248 0.0
C1395 C 0.45778 0.41368 0.24103 0.0
C1396 C 0.47074 0.42799 0.2349 0.0
C1397 C 0.48632 0.42981 0.23517 0.0
C1398 C 0.48879 0.41754 0.2423 0.0
C1399 C 0.47563 0.4035 0.24875 0.0
C1400 C 0.46767 0.44098 0.22777 0.0
C1401 C 0.50521 0.41904 0.2426 0.0
C1402 C 0.59223 0.55217 0.27932 0.0
C1403 C 0.58393 0.53487 0.27189 0.0
C1404 C 0.55668 0.513 0.26288 0.0
C1405 C 0.56135 0.50266 0.25461 0.0
C1406 C 0.55029 0.48906 0.24405 0.0
C1407 C 0.53434 0.48601 0.2413 0.0
C1408 C 0.52957 0.49632 0.24977 0.0
C1409 C 0.54076 0.50955 0.26065 0.0
C1410 C 0.5557 0.478 0.23581 0.0
C1411 C 0.51271 0.49351 0.24717 0.0
C1412 C 0.56268 0.51592 0.13324 0.0
C1413 C 0.56654 0.50511 0.14132 0.0
C1414 C 0.55457 0.49103 0.14894 0.0
C1415 C 0.53852 0.48795 0.14893 0.0
C1416 C 0.53457 0.49872 0.14066 0.0
C1417 C 0.54669 0.51243 0.1327 0.0
C1418 C 0.55913 0.47946 0.15703 0.0
C1419 C 0.5176 0.49586 0.14041 0.0
C1420 C 0.44065 0.36467 0.12605 0.0
C1421 C 0.44261 0.37935 0.11612 0.0
C1422 C 0.4694 0.40328 0.12279 0.0
C1423 C 0.48492 0.40605 0.12645 0.0
C1424 C 0.49611 0.41973 0.13683 0.0
C1425 C 0.49172 0.43108 0.14337 0.0
C1426 C 0.47627 0.42874 0.13907 0.0
C1427 C 0.46526 0.41486 0.12881 0.0
C1428 C 0.51252 0.42192 0.14105 0.0
C1429 C 0.47138 0.44089 0.14538 0.0
C1430 C 0.49963 0.44394 0.22681 0.0
C1431 C 0.51075 0.45771 0.23698 0.0
C1432 C 0.52267 0.47198 0.22967 0.0
C1433 C 0.52337 0.47263 0.21167 0.0
C1434 C 0.53458 0.48704 0.2038 0.0
C1435 C 0.53536 0.48742 0.18611 0.0
C1436 C 0.52497 0.4734 0.17559 0.0
C1437 C 0.52592 0.4735 0.15762 0.0
C1438 C 0.51501 0.45954 0.14752 0.0
C1439 C 0.5032 0.44529 0.15488 0.0
C1440 C 0.50237 0.44477 0.17285 0.0
C1441 C 0.49095 0.43047 0.18068 0.0
C1442 C 0.49011 0.43012 0.19834 0.0
C1443 C 0.50066 0.44407 0.20887 0.0
C1444 C 0.51246 0.45852 0.20127 0.0
C1445 C 0.51327 0.4589 0.18322 0.0
C1446 C 0.59403 0.54717 0.14725 0.0
C1447 C 0.59045 0.5385 0.12946 0.0
O1448 O 0.44695 0.38772 0.25311 0.0
O1449 O 0.45888 0.38954 0.11316 0.0
O1450 O 0.57391 0.52979 0.12585 0.0
O1451 O 0.56722 0.52653 0.27284 0.0
H1452 H 0.45782 0.38501 0.27471 0.0
H1453 H 0.45328 0.36318 0.25274 0.0
H1454 H 0.43172 0.35487 0.2529 0.0
H1455 H 0.4426 0.35424 0.27172 0.0
H1456 H 0.4457 0.41193 0.24047 0.0
H1457 H 0.47737 0.39387 0.25379 0.0
H1458 H 0.47707 0.45349 0.23279 0.0
H1459 H 0.45559 0.43896 0.23094 0.0
H1460 H 0.46834 0.44068 0.21368 0.0
H1461 H 0.50507 0.40824 0.24821 0.0
H1462 H 0.51402 0.43041 0.25015 0.0
H1463 H 0.50954 0.42022 0.22942 0.0
H1464 H 0.58938 0.52737 0.27586 0.0
H1465 H 0.60003 0.55233 0.29032 0.0
H1466 H 0.58328 0.55315 0.28764 0.0
H1467 H 0.60186 0.56655 0.25815 0.0
H1468 H 0.57358 0.50506 0.25644 0.0
H1469 H 0.53726 0.51756 0.26712 0.0
H1470 H 0.55702 0.48014 0.22196 0.0
H1471 H 0.54652 0.4648 0.23723 0.0
H1472 H 0.56748 0.48041 0.24138 0.0
H1473 H 0.51153 0.50379 0.25295 0.0
H1474 H 0.50397 0.48189 0.25307 0.0
H1475 H 0.50935 0.49211 0.23333 0.0
H1476 H 0.59529 0.52995 0.12901 0.0
H1477 H 0.57878 0.50743 0.14164 0.0
H1478 H 0.54381 0.52078 0.12634 0.0
H1479 H 0.55913 0.48085 0.17112 0.0
H1480 H 0.57133 0.48205 0.15351 0.0
H1481 H 0.55017 0.46641 0.15316 0.0
H1482 H 0.51689 0.50631 0.13505 0.0
H1483 H 0.51306 0.49403 0.15353 0.0
H1484 H 0.50946 0.48444 0.13255 0.0
H1485 H 0.438 0.38576 0.12441 0.0
H1486 H 0.42778 0.35638 0.12897 0.0
H1487 H 0.44776 0.36926 0.13837 0.0
H1488 H 0.4452 0.35762 0.11874 0.0
H1489 H 0.48809 0.3972 0.12148 0.0
H1490 H 0.45354 0.41322 0.12535 0.0
H1491 H 0.5146 0.42271 0.15511 0.0
H1492 H 0.52205 0.4337 0.13605 0.0
H1493 H 0.51383 0.41162 0.13554 0.0
H1494 H 0.45944 0.43801 0.13985 0.0
H1495 H 0.4806 0.45361 0.14216 0.0
H1496 H 0.47078 0.44071 0.15949 0.0
H1497 H 0.51 0.45738 0.25075 0.0
H1498 H 0.54289 0.4982 0.21124 0.0
H1499 H 0.54423 0.49886 0.18078 0.0
H1500 H 0.51575 0.45976 0.13375 0.0
H1501 H 0.48251 0.41936 0.17326 0.0
H1502 H 0.48108 0.41874 0.20363 0.0
H1503 H 0.60725 0.55417 0.15035 0.0
H1504 H 0.5882 0.53795 0.15711 0.0
H1505 H 0.58934 0.55585 0.14785 0.0
C1506 C 0.40616 0.9756 0.23862 0.0
C1507 C 0.41779 0.98373 0.25419 0.0
C1508 C 0.44453 0.00016 0.24186 0.0
C1509 C 0.4564 0.0162 0.23831 0.0
C1510 C 0.47026 0.01923 0.22976 0.0
C1511 C 0.47231 0.00582 0.22473 0.0
C1512 C 0.46051 0.98955 0.22853 0.0
C1513 C 0.44666 0.98684 0.23697 0.0
C1514 C 0.48261 0.03676 0.22592 0.0
C1515 C 0.46245 0.97503 0.22344 0.0
C1516 C 0.56332 0.03813 0.2894 0.0
C1517 C 0.5637 0.02516 0.27742 0.0
C1518 C 0.55541 0.02779 0.24911 0.0
C1519 C 0.54449 0.01154 0.24325 0.0
C1520 C 0.53164 0.00808 0.23178 0.0
C1521 C 0.52966 0.0212 0.22625 0.0
C1522 C 0.54099 0.03769 0.23178 0.0
C1523 C 0.55393 0.0408 0.24299 0.0
C1524 C 0.51995 0.99039 0.22591 0.0
C1525 C 0.53913 0.05194 0.22631 0.0
C1526 C 0.56078 0.04625 0.11971 0.0
C1527 C 0.55408 0.02963 0.12356 0.0
C1528 C 0.53878 0.02103 0.13058 0.0
C1529 C 0.53038 0.02951 0.13434 0.0
C1530 C 0.537 0.04618 0.12994 0.0
C1531 C 0.55201 0.05422 0.12234 0.0
C1532 C 0.53177 0.00306 0.13428 0.0
C1533 C 0.5284 0.05563 0.13354 0.0
C1534 C 0.39873 0.97884 0.12369 0.0
C1535 C 0.41391 0.99269 0.11609 0.0
C1536 C 0.4397 0.99315 0.11802 0.0
C1537 C 0.44559 0.98234 0.11979 0.0
C1538 C 0.46104 0.98784 0.12712 0.0
C1539 C 0.47087 0.00465 0.1326 0.0
C1540 C 0.4654 0.01589 0.12979 0.0
C1541 C 0.44988 0.01003 0.12242 0.0
C1542 C 0.46659 0.97558 0.12972 0.0
C1543 C 0.47573 0.03395 0.13517 0.0
C1544 C 0.48657 0.00891 0.21496 0.0
C1545 C 0.50086 0.01297 0.22405 0.0
C1546 C 0.51512 0.01748 0.21565 0.0
C1547 C 0.51527 0.01831 0.19768 0.0
C1548 C 0.52958 0.02372 0.18889 0.0
C1549 C 0.52965 0.02502 0.17127 0.0
C1550 C 0.51527 0.02023 0.16164 0.0
C1551 C 0.51516 0.0214 0.14369 0.0
C1552 C 0.50054 0.01604 0.13452 0.0
C1553 C 0.48603 0.01005 0.14288 0.0
C1554 C 0.48601 0.00945 0.16086 0.0
C1555 C 0.47173 0.00421 0.16971 0.0
C1556 C 0.47189 0.0041 0.18741 0.0
C1557 C 0.48626 0.00882 0.19695 0.0
C1558 C 0.50071 0.01376 0.1883 0.0
C1559 C 0.50065 0.01437 0.17024 0.0
C1560 C 0.60141 0.07455 0.12578 0.0
C1561 C 0.58952 0.05629 0.12118 0.0
O1562 O 0.4313 0.99827 0.24985 0.0
O1563 O 0.42418 0.9868 0.11211 0.0
O1564 O 0.57571 0.05486 0.11347 0.0
O1565 O 0.56708 0.03104 0.26115 0.0
H1566 H 0.42152 0.97507 0.25903 0.0
H1567 H 0.41209 0.97245 0.22837 0.0
H1568 H 0.40235 0.98409 0.23352 0.0
H1569 H 0.39526 0.964 0.24213 0.0
H1570 H 0.45467 0.02638 0.24215 0.0
H1571 H 0.4376 0.97431 0.23954 0.0
H1572 H 0.49453 0.04009 0.23192 0.0
H1573 H 0.47919 0.04581 0.23064 0.0
H1574 H 0.48407 0.03778 0.21193 0.0
H1575 H 0.45262 0.96321 0.22807 0.0
H1576 H 0.47424 0.97711 0.2286 0.0
H1577 H 0.46251 0.97388 0.20932 0.0
H1578 H 0.55154 0.01376 0.27736 0.0
H1579 H 0.56059 0.03361 0.30252 0.0
H1580 H 0.55374 0.04062 0.28485 0.0
H1581 H 0.57512 0.0499 0.28978 0.0
H1582 H 0.54595 0.00157 0.24787 0.0
H1583 H 0.56253 0.05331 0.2476 0.0
H1584 H 0.51827 0.98936 0.21179 0.0
H1585 H 0.50799 0.98638 0.23133 0.0
H1586 H 0.52412 0.98185 0.22994 0.0
H1587 H 0.5487 0.06397 0.2322 0.0
H1588 H 0.52715 0.04993 0.22989 0.0
H1589 H 0.53962 0.0526 0.21223 0.0
H1590 H 0.58659 0.04964 0.13331 0.0
H1591 H 0.56083 0.02342 0.12105 0.0
H1592 H 0.55728 0.06701 0.11904 0.0
H1593 H 0.53273 0.00187 0.14822 0.0
H1594 H 0.53823 0.99755 0.12773 0.0
H1595 H 0.51876 0.99586 0.13023 0.0
H1596 H 0.53605 0.06899 0.13122 0.0
H1597 H 0.52467 0.05431 0.14697 0.0
H1598 H 0.51731 0.05045 0.12514 0.0
H1599 H 0.41954 0.0029 0.12609 0.0
H1600 H 0.39027 0.98324 0.12697 0.0
H1601 H 0.4021 0.9749 0.13554 0.0
H1602 H 0.39247 0.96796 0.11455 0.0
H1603 H 0.43776 0.96939 0.116 0.0
H1604 H 0.44572 0.01865 0.12025 0.0
H1605 H 0.46779 0.97423 0.1436 0.0
H1606 H 0.47868 0.98019 0.12436 0.0
H1607 H 0.45803 0.96322 0.12365 0.0
H1608 H 0.4701 0.04126 0.1313 0.0
H1609 H 0.48773 0.03916 0.12946 0.0
H1610 H 0.47776 0.03531 0.14926 0.0
H1611 H 0.50094 0.01281 0.23787 0.0
H1612 H 0.54095 0.02733 0.19558 0.0
H1613 H 0.54112 0.0297 0.1653 0.0
H1614 H 0.5005 0.01687 0.12076 0.0
H1615 H 0.46027 0.00034 0.16308 0.0
H1616 H 0.46057 0.00016 0.19351 0.0
H1617 H 0.61246 0.07609 0.13246 0.0
H1618 H 0.5957 0.07954 0.13442 0.0
H1619 H 0.60493 0.0818 0.1141 0.0
C1620 C 0.53706 0.97015 0.71921 0.0
C1621 C 0.5511 0.98234 0.73126 0.0
C1622 C 0.54273 0.98039 0.76048 0.0
C1623 C 0.54841 0.99701 0.76521 0.0
C1624 C 0.54132 0.00129 0.77837 0.0
C1625 C 0.52831 0.98864 0.78689 0.0
C1626 C 0.52293 0.97185 0.78248 0.0
C1627 C 0.53042 0.96796 0.76946 0.0
C1628 C 0.54758 0.01929 0.78305 0.0
C1629 C 0.50901 0.95803 0.79121 0.0
C1630 C 0.42798 0.0 0.75128 0.0
C1631 C 0.43612 0.99431 0.76335 0.0
C1632 C 0.46151 0.0049 0.78005 0.0
C1633 C 0.4578 0.98956 0.78638 0.0
C1634 C 0.46962 0.98766 0.79516 0.0
C1635 C 0.48541 0.00143 0.79794 0.0
C1636 C 0.48897 0.01705 0.79231 0.0
C1637 C 0.47694 0.01857 0.78345 0.0
C1638 C 0.46537 0.97082 0.80105 0.0
C1639 C 0.50561 0.03202 0.79525 0.0
C1640 C 0.47351 0.99841 0.9084 0.0
C1641 C 0.46991 0.9832 0.90072 0.0
C1642 C 0.48126 0.98189 0.89088 0.0
C1643 C 0.49649 0.99613 0.88873 0.0
C1644 C 0.50052 0.01126 0.8974 0.0
C1645 C 0.48894 0.01218 0.90729 0.0
C1646 C 0.47672 0.96545 0.88219 0.0
C1647 C 0.51675 0.02659 0.89552 0.0
C1648 C 0.59554 0.97152 0.88044 0.0
C1649 C 0.59002 0.97943 0.89412 0.0
C1650 C 0.5629 0.9757 0.88937 0.0
C1651 C 0.54731 0.96364 0.88367 0.0
C1652 C 0.53608 0.96797 0.87781 0.0
C1653 C 0.54061 0.98485 0.87771 0.0
C1654 C 0.55616 0.99711 0.88409 0.0
C1655 C 0.56711 0.99242 0.89004 0.0
C1656 C 0.51943 0.95453 0.87155 0.0
C1657 C 0.56122 0.01518 0.8845 0.0
C1658 C 0.51979 0.99291 0.79984 0.0
C1659 C 0.50784 0.99612 0.794 0.0
C1660 C 0.49849 0.99913 0.80536 0.0
C1661 C 0.50113 0.99896 0.82314 0.0
C1662 C 0.49188 0.00179 0.83495 0.0
C1663 C 0.4941 0.00086 0.85238 0.0
C1664 C 0.50571 0.99714 0.85866 0.0
C1665 C 0.50755 0.99542 0.87628 0.0
C1666 C 0.51922 0.99178 0.88212 0.0
C1667 C 0.52911 0.98963 0.87076 0.0
C1668 C 0.52739 0.99119 0.85307 0.0
C1669 C 0.53709 0.98903 0.84127 0.0
C1670 C 0.5348 0.98984 0.82384 0.0
C1671 C 0.52273 0.99285 0.81754 0.0
C1672 C 0.51322 0.99568 0.82922 0.0
C1673 C 0.51554 0.99481 0.84701 0.0
C1674 C 0.44999 0.01238 0.89944 0.0
C1675 C 0.44766 0.99676 0.90767 0.0
O1676 O 0.54893 0.97599 0.74733 0.0
O1677 O 0.57329 0.97061 0.89437 0.0
O1678 O 0.46194 0.00018 0.91611 0.0
O1679 O 0.45073 0.00694 0.77042 0.0
H1680 H 0.55098 0.99415 0.73163 0.0
H1681 H 0.52549 0.96837 0.72398 0.0
H1682 H 0.53636 0.95796 0.7184 0.0
H1683 H 0.53859 0.97502 0.70622 0.0
H1684 H 0.5584 0.00663 0.75866 0.0
H1685 H 0.52632 0.95517 0.76581 0.0
H1686 H 0.53819 0.02242 0.77964 0.0
H1687 H 0.55875 0.02759 0.77639 0.0
H1688 H 0.55014 0.02165 0.79704 0.0
H1689 H 0.50566 0.94566 0.78555 0.0
H1690 H 0.49826 0.95956 0.79035 0.0
H1691 H 0.5123 0.95853 0.80495 0.0
H1692 H 0.43677 0.98338 0.75841 0.0
H1693 H 0.42785 0.99411 0.73853 0.0
H1694 H 0.43736 0.01287 0.74792 0.0
H1695 H 0.40679 0.9948 0.76338 0.0
H1696 H 0.44577 0.97895 0.7843 0.0
H1697 H 0.47967 0.03041 0.77873 0.0
H1698 H 0.46743 0.97144 0.8151 0.0
H1699 H 0.47335 0.96684 0.79513 0.0
H1700 H 0.45258 0.96131 0.79776 0.0
H1701 H 0.50601 0.04358 0.79165 0.0
H1702 H 0.51434 0.0304 0.78756 0.0
H1703 H 0.5096 0.03332 0.80888 0.0
H1704 H 0.44434 0.98717 0.89719 0.0
H1705 H 0.45804 0.97247 0.90208 0.0
H1706 H 0.4916 0.02382 0.91346 0.0
H1707 H 0.47573 0.96623 0.86817 0.0
H1708 H 0.46503 0.95527 0.88643 0.0
H1709 H 0.4863 0.96237 0.88483 0.0
H1710 H 0.51827 0.03722 0.90366 0.0
H1711 H 0.51809 0.03004 0.882 0.0
H1712 H 0.52656 0.02406 0.89896 0.0
H1713 H 0.59466 0.99225 0.89011 0.0
H1714 H 0.6089 0.9772 0.88125 0.0
H1715 H 0.59198 0.97357 0.86759 0.0
H1716 H 0.58973 0.95796 0.88171 0.0
H1717 H 0.54403 0.95077 0.88356 0.0
H1718 H 0.57878 0.00186 0.89533 0.0
H1719 H 0.5177 0.95575 0.85775 0.0
H1720 H 0.51009 0.95587 0.87837 0.0
H1721 H 0.51747 0.94197 0.87342 0.0
H1722 H 0.57389 0.02328 0.88943 0.0
H1723 H 0.5531 0.01734 0.89272 0.0
H1724 H 0.55999 0.0188 0.87146 0.0
H1725 H 0.50552 0.99591 0.78037 0.0
H1726 H 0.4827 0.00457 0.83083 0.0
H1727 H 0.4865 0.00299 0.86086 0.0
H1728 H 0.52035 0.99022 0.89563 0.0
H1729 H 0.54645 0.98651 0.84537 0.0
H1730 H 0.54251 0.98792 0.81533 0.0
H1731 H 0.45375 0.02262 0.90921 0.0
H1732 H 0.43858 0.00989 0.8928 0.0
H1733 H 0.4595 0.01637 0.8899 0.0
C1734 C 0.02581 0.57056 0.71727 0.0
C1735 C 0.01473 0.56619 0.73234 0.0
C1736 C 0.01962 0.56014 0.76124 0.0
C1737 C 0.00339 0.54975 0.76513 0.0
C1738 C 0.99936 0.53934 0.77889 0.0
C1739 C 0.01181 0.53928 0.78884 0.0
C1740 C 0.02819 0.55035 0.78544 0.0
C1741 C 0.03185 0.56083 0.7718 0.0
C1742 C 0.9818 0.52799 0.78241 0.0
C1743 C 0.04181 0.55057 0.79566 0.0
C1744 C 0.98391 0.42012 0.74629 0.0
C1745 C 0.98521 0.43579 0.75287 0.0
C1746 C 0.9938 0.45389 0.77843 0.0
C1747 C 0.00859 0.46439 0.78704 0.0
C1748 C 0.0113 0.47876 0.79608 0.0
C1749 C 0.99857 0.48224 0.79712 0.0
C1750 C 0.9833 0.47119 0.78908 0.0
C1751 C 0.98111 0.45717 0.77971 0.0
C1752 C 0.02787 0.49041 0.80411 0.0
C1753 C 0.96937 0.47431 0.79016 0.0
C1754 C 0.00917 0.47433 0.90784 0.0
C1755 C 0.02306 0.48557 0.89961 0.0
C1756 C 0.02314 0.49801 0.89008 0.0
C1757 C 0.00899 0.49914 0.88869 0.0
C1758 C 0.99523 0.48834 0.89771 0.0
C1759 C 0.99556 0.47613 0.90736 0.0
C1760 C 0.03823 0.50965 0.88109 0.0
C1761 C 0.98001 0.48931 0.89662 0.0
C1762 C 0.02631 0.62163 0.88451 0.0
C1763 C 0.01917 0.60933 0.8987 0.0
C1764 C 0.02387 0.58604 0.89447 0.0
C1765 C 0.0363 0.58315 0.89006 0.0
C1766 C 0.03294 0.5677 0.88318 0.0
C1767 C 0.01669 0.55476 0.8808 0.0
C1768 C 0.00405 0.55739 0.88583 0.0
C1769 C 0.00776 0.57296 0.89275 0.0
C1770 C 0.04673 0.56522 0.87826 0.0
C1771 C 0.98661 0.54373 0.8838 0.0
C1772 C 0.00777 0.52626 0.80124 0.0
C1773 C 0.00433 0.51077 0.79466 0.0
C1774 C 0.00158 0.49807 0.80535 0.0
C1775 C 0.00241 0.50087 0.82325 0.0
C1776 C -9e-05 0.48845 0.83442 0.0
C1777 C 0.0017 0.49165 0.85201 0.0
C1778 C 0.00575 0.50731 0.85909 0.0
C1779 C 0.00837 0.51092 0.87691 0.0
C1780 C 0.01171 0.52637 0.88358 0.0
C1781 C 0.01289 0.53855 0.87288 0.0
C1782 C 0.01098 0.5354 0.85497 0.0
C1783 C 0.01268 0.54756 0.84377 0.0
C1784 C 0.01146 0.54455 0.82615 0.0
C1785 C 0.00837 0.52924 0.81908 0.0
C1786 C 0.00596 0.51657 0.83013 0.0
C1787 C 0.00744 0.51972 0.84808 0.0
C1788 C 0.99719 0.43762 0.89664 0.0
C1789 C 0.0118 0.45004 0.90799 0.0
O1790 O 0.02397 0.56946 0.74732 0.0
O1791 O 0.02798 0.60142 0.9007 0.0
O1792 O 0.0085 0.4614 0.91586 0.0
O1793 O 0.99202 0.44054 0.76931 0.0
H1794 H 0.00574 0.55272 0.73069 0.0
H1795 H 0.03189 0.56313 0.71728 0.0
H1796 H 0.03524 0.58388 0.71815 0.0
H1797 H 0.0187 0.56777 0.70502 0.0
H1798 H 0.99385 0.5496 0.75735 0.0
H1799 H 0.04433 0.56909 0.76882 0.0
H1800 H 0.97822 0.51515 0.77821 0.0
H1801 H 0.97377 0.53147 0.77557 0.0
H1802 H 0.97989 0.52814 0.79632 0.0
H1803 H 0.05387 0.55951 0.79097 0.0
H1804 H 0.0404 0.53807 0.79511 0.0
H1805 H 0.04139 0.55394 0.80925 0.0
H1806 H 0.97416 0.43667 0.75066 0.0
H1807 H -6e-05 0.42744 0.72634 0.0
H1808 H 0.97054 0.41132 0.7442 0.0
H1809 H 0.98521 0.41385 0.75773 0.0
H1810 H 0.01822 0.46158 0.78613 0.0
H1811 H 0.96944 0.4487 0.77359 0.0
H1812 H 0.02725 0.49036 0.81821 0.0
H1813 H 0.03217 0.50324 0.80031 0.0
H1814 H 0.03689 0.48688 0.80041 0.0
H1815 H 0.95771 0.46333 0.78568 0.0
H1816 H 0.97166 0.48474 0.78211 0.0
H1817 H 0.96828 0.47786 0.80349 0.0
H1818 H 0.0223 0.45645 0.89971 0.0
H1819 H 0.0338 0.48454 0.90054 0.0
H1820 H 0.98496 0.46748 0.91395 0.0
H1821 H 0.03606 0.50689 0.86711 0.0
H1822 H 0.04877 0.50851 0.88517 0.0
H1823 H 0.04124 0.52263 0.88357 0.0
H1824 H 0.97033 0.48 0.90438 0.0
H1825 H 0.97547 0.48733 0.88312 0.0
H1826 H 0.98272 0.50183 0.90108 0.0
H1827 H 0.00647 0.60059 0.89427 0.0
H1828 H 0.02059 0.62937 0.88389 0.0
H1829 H 0.02398 0.61473 0.87202 0.0
H1830 H 0.03961 0.62968 0.8865 0.0
H1831 H 0.0487 0.5932 0.89176 0.0
H1832 H 0.99803 0.57466 0.89702 0.0
H1833 H 0.0457 0.56209 0.86436 0.0
H1834 H 0.04605 0.55469 0.88503 0.0
H1835 H 0.05871 0.57639 0.88131 0.0
H1836 H 0.97814 0.54771 0.8883 0.0
H1837 H 0.9848 0.533 0.89108 0.0
H1838 H 0.98355 0.53948 0.87016 0.0
H1839 H 0.00409 0.50866 0.78094 0.0
H1840 H 0.99682 0.4762 0.82968 0.0
H1841 H -0.0001 0.4817 0.85998 0.0
H1842 H 0.01373 0.52905 0.89725 0.0
H1843 H 0.01521 0.55963 0.84849 0.0
H1844 H 0.01307 0.55441 0.81812 0.0
H1845 H 0.99963 0.42836 0.89037 0.0
H1846 H 0.99471 0.44415 0.88651 0.0
H1847 H 0.98627 0.4311 0.90431 0.0
C1848 C 0.53014 0.58064 0.73499 0.0
C1849 C 0.54364 0.58834 0.74904 0.0
C1850 C 0.53029 0.56878 0.77161 0.0
C1851 C 0.51931 0.57399 0.77577 0.0
C1852 C 0.5068 0.56505 0.78683 0.0
C1853 C 0.50534 0.55074 0.794 0.0
C1854 C 0.51667 0.54577 0.7903 0.0
C1855 C 0.52905 0.55492 0.77918 0.0
C1856 C 0.49493 0.57071 0.79061 0.0
C1857 C 0.51552 0.53065 0.79788 0.0
C1858 C 0.38815 0.46781 0.75744 0.0
C1859 C 0.40201 0.46436 0.75466 0.0
C1860 C 0.42246 0.47799 0.77817 0.0
C1861 C 0.43137 0.47491 0.79026 0.0
C1862 C 0.44501 0.48789 0.79899 0.0
C1863 C 0.44928 0.50445 0.79622 0.0
C1864 C 0.44012 0.50766 0.78416 0.0
C1865 C 0.42701 0.49441 0.77501 0.0
C1866 C 0.45482 0.48379 0.81107 0.0
C1867 C 0.44411 0.52508 0.78093 0.0
C1868 C 0.42309 0.49663 0.90339 0.0
C1869 C 0.43447 0.49217 0.89877 0.0
C1870 C 0.44861 0.50332 0.89087 0.0
C1871 C 0.45135 0.51923 0.88741 0.0
C1872 C 0.44031 0.52407 0.89287 0.0
C1873 C 0.42635 0.51271 0.90101 0.0
C1874 C 0.46039 0.49791 0.88575 0.0
C1875 C 0.44297 0.54099 0.88951 0.0
C1876 C 0.57033 0.619 0.89882 0.0
C1877 C 0.5609 0.61207 0.91494 0.0
C1878 C 0.53785 0.58512 0.90448 0.0
C1879 C 0.53225 0.56819 0.90325 0.0
C1880 C 0.51785 0.55718 0.89408 0.0
C1881 C 0.50863 0.56328 0.8862 0.0
C1882 C 0.51404 0.58038 0.88762 0.0
C1883 C 0.5287 0.59118 0.89658 0.0
C1884 C 0.51254 0.53904 0.8928 0.0
C1885 C 0.50434 0.58724 0.87961 0.0
C1886 C 0.4915 0.5406 0.80473 0.0
C1887 C 0.47743 0.52781 0.79659 0.0
C1888 C 0.46352 0.51836 0.80562 0.0
C1889 C 0.46356 0.52189 0.82329 0.0
C1890 C 0.44956 0.51328 0.83264 0.0
C1891 C 0.44997 0.51618 0.85017 0.0
C1892 C 0.46438 0.52788 0.85904 0.0
C1893 C 0.46514 0.53023 0.87699 0.0
C1894 C 0.47954 0.54218 0.88538 0.0
C1895 C 0.49344 0.55172 0.87633 0.0
C1896 C 0.493 0.54934 0.85838 0.0
C1897 C 0.50682 0.55848 0.84888 0.0
C1898 C 0.50631 0.55583 0.83127 0.0
C1899 C 0.49206 0.5437 0.82253 0.0
C1900 C 0.478 0.53433 0.83184 0.0
C1901 C 0.47843 0.53729 0.84974 0.0
C1902 C 0.38516 0.46967 0.89213 0.0
C1903 C 0.39864 0.46974 0.90307 0.0
O1904 O 0.54205 0.57651 0.76024 0.0
O1905 O 0.55207 0.59496 0.91338 0.0
O1906 O 0.40882 0.48561 0.90996 0.0
O1907 O 0.40947 0.46477 0.77013 0.0
H1908 H 0.54308 0.59847 0.75617 0.0
H1909 H 0.5181 0.57586 0.74047 0.0
H1910 H 0.53029 0.57024 0.728 0.0
H1911 H 0.53174 0.59007 0.72578 0.0
H1912 H 0.52025 0.58486 0.77032 0.0
H1913 H 0.53765 0.55107 0.77603 0.0
H1914 H 0.48255 0.56089 0.78628 0.0
H1915 H 0.49785 0.58225 0.78424 0.0
H1916 H 0.49483 0.57285 0.80459 0.0
H1917 H 0.52569 0.52883 0.79433 0.0
H1918 H 0.50397 0.51953 0.79343 0.0
H1919 H 0.51546 0.53172 0.81201 0.0
H1920 H 0.4109 0.47395 0.74641 0.0
H1921 H 0.38173 0.46666 0.74507 0.0
H1922 H 0.39284 0.4805 0.76296 0.0
H1923 H 0.37936 0.45905 0.76633 0.0
H1924 H 0.4278 0.4622 0.79257 0.0
H1925 H 0.42028 0.49702 0.76565 0.0
H1926 H 0.45161 0.48478 0.82438 0.0
H1927 H 0.46797 0.49251 0.81004 0.0
H1928 H 0.45238 0.47099 0.80856 0.0
H1929 H 0.43415 0.52534 0.77374 0.0
H1930 H 0.45511 0.53118 0.77335 0.0
H1931 H 0.44667 0.53242 0.79316 0.0
H1932 H 0.40509 0.46583 0.89413 0.0
H1933 H 0.43226 0.47993 0.90119 0.0
H1934 H 0.41759 0.5161 0.90488 0.0
H1935 H 0.45987 0.49618 0.87164 0.0
H1936 H 0.45765 0.4861 0.8914 0.0
H1937 H 0.47292 0.50755 0.88976 0.0
H1938 H 0.4333 0.5429 0.89466 0.0
H1939 H 0.4434 0.5427 0.87555 0.0
H1940 H 0.4548 0.55061 0.89539 0.0
H1941 H 0.55264 0.61701 0.91693 0.0
H1942 H 0.57743 0.63272 0.89997 0.0
H1943 H 0.56188 0.61531 0.88751 0.0
H1944 H 0.5787 0.61423 0.89671 0.0
H1945 H 0.53937 0.56363 0.9094 0.0
H1946 H 0.53283 0.60425 0.89732 0.0
H1947 H 0.50963 0.53432 0.87928 0.0
H1948 H 0.50139 0.53201 0.89998 0.0
H1949 H 0.52192 0.53656 0.89806 0.0
H1950 H 0.50932 0.60051 0.88331 0.0
H1951 H 0.49159 0.58015 0.88342 0.0
H1952 H 0.5043 0.58591 0.86551 0.0
H1953 H 0.4773 0.5252 0.783 0.0
H1954 H 0.43815 0.50408 0.82651 0.0
H1955 H 0.43886 0.50902 0.85671 0.0
H1956 H 0.48008 0.54373 0.89918 0.0
H1957 H 0.51821 0.56778 0.85495 0.0
H1958 H 0.5173 0.56323 0.82463 0.0
H1959 H 0.37644 0.45697 0.88695 0.0
H1960 H 0.3905 0.47768 0.88118 0.0
H1961 H 0.37872 0.47463 0.89965 0.0
C1962 C 0.65315 0.77919 0.62796 0.0
C1963 C 0.64296 0.76228 0.61844 0.0
C1964 C 0.63799 0.77038 0.59066 0.0
C1965 C 0.62141 0.76484 0.59091 0.0
C1966 C 0.61443 0.77133 0.57998 0.0
C1967 C 0.62432 0.78372 0.5688 0.0
C1968 C 0.64103 0.78912 0.56842 0.0
C1969 C 0.64754 0.78205 0.5791 0.0
C1970 C 0.59654 0.76506 0.58049 0.0
C1971 C 0.65213 0.80265 0.55709 0.0
C1972 C 0.59926 0.86071 0.63043 0.0
C1973 C 0.61173 0.86395 0.61701 0.0
C1974 C 0.60579 0.84871 0.58974 0.0
C1975 C 0.62119 0.8516 0.58596 0.0
C1976 C 0.623 0.84071 0.5748 0.0
C1977 C 0.60908 0.82642 0.56765 0.0
C1978 C 0.59351 0.8237 0.57123 0.0
C1979 C 0.59212 0.83516 0.58192 0.0
C1980 C 0.63981 0.84433 0.57097 0.0
C1981 C 0.57835 0.80844 0.56428 0.0
C1982 C 0.59743 0.84181 0.45998 0.0
C1983 C 0.61298 0.84459 0.46387 0.0
C1984 C 0.61512 0.83248 0.47149 0.0
C1985 C 0.60141 0.81724 0.4752 0.0
C1986 C 0.58576 0.814 0.47029 0.0
C1987 C 0.58398 0.82634 0.46257 0.0
C1988 C 0.63202 0.83621 0.47617 0.0
C1989 C 0.57092 0.79782 0.47391 0.0
C1990 C 0.61378 0.71293 0.46214 0.0
C1991 C 0.6123 0.72111 0.44615 0.0
C1992 C 0.61771 0.74832 0.45781 0.0
C1993 C 0.62973 0.76492 0.46016 0.0
C1994 C 0.62707 0.7762 0.46962 0.0
C1995 C 0.61182 0.77078 0.47666 0.0
C1996 C 0.59948 0.75401 0.47419 0.0
C1997 C 0.60259 0.7429 0.46493 0.0
C1998 C 0.64057 0.79394 0.472 0.0
C1999 C 0.58301 0.74787 0.4813 0.0
C2000 C 0.61756 0.79194 0.55843 0.0
C2001 C 0.61523 0.8039 0.56675 0.0
C2002 C 0.61082 0.8137 0.5577 0.0
C2003 C 0.60867 0.81155 0.53972 0.0
C2004 C 0.60504 0.82172 0.53009 0.0
C2005 C 0.60312 0.81961 0.51241 0.0
C2006 C 0.60487 0.80732 0.50365 0.0
C2007 C 0.60348 0.80547 0.48563 0.0
C2008 C 0.6053 0.79316 0.47729 0.0
C2009 C 0.60883 0.78273 0.48647 0.0
C2010 C 0.61048 0.78454 0.50451 0.0
C2011 C 0.61438 0.77454 0.51416 0.0
C2012 C 0.61643 0.77674 0.53185 0.0
C2013 C 0.61478 0.7891 0.54056 0.0
C2014 C 0.6105 0.79908 0.53115 0.0
C2015 C 0.60846 0.79687 0.5131 0.0
C2016 C 0.59146 0.8726 0.47197 0.0
C2017 C 0.60293 0.87009 0.46058 0.0
O2018 O 0.64516 0.7645 0.6011 0.0
O2019 O 0.62135 0.73818 0.44859 0.0
O2020 O 0.59509 0.85389 0.45399 0.0
O2021 O 0.60381 0.85865 0.6011 0.0
H2022 H 0.63007 0.75722 0.62138 0.0
H2023 H 0.65016 0.78824 0.62272 0.0
H2024 H 0.66625 0.78392 0.62648 0.0
H2025 H 0.65062 0.77848 0.64173 0.0
H2026 H 0.61385 0.75531 0.59939 0.0
H2027 H 0.66029 0.78605 0.57892 0.0
H2028 H 0.59465 0.77477 0.58652 0.0
H2029 H 0.59015 0.75374 0.58787 0.0
H2030 H 0.59104 0.76231 0.56733 0.0
H2031 H 0.66507 0.80697 0.56009 0.0
H2032 H 0.65026 0.81339 0.55843 0.0
H2033 H 0.64934 0.79801 0.54356 0.0
H2034 H 0.61754 0.8566 0.62031 0.0
H2035 H 0.60522 0.8645 0.64339 0.0
H2036 H 0.59015 0.8473 0.63019 0.0
H2037 H 0.59293 0.86764 0.62783 0.0
H2038 H 0.63177 0.86234 0.59178 0.0
H2039 H 0.58029 0.83317 0.58487 0.0
H2040 H 0.64063 0.84197 0.55718 0.0
H2041 H 0.64259 0.83602 0.57821 0.0
H2042 H 0.64913 0.85731 0.57466 0.0
H2043 H 0.56731 0.80713 0.57008 0.0
H2044 H 0.57904 0.7972 0.56666 0.0
H2045 H 0.57712 0.80907 0.55028 0.0
H2046 H 0.61342 0.87276 0.46921 0.0
H2047 H 0.62346 0.85629 0.46117 0.0
H2048 H 0.57204 0.82422 0.45923 0.0
H2049 H 0.63371 0.83689 0.49028 0.0
H2050 H 0.64143 0.84808 0.47119 0.0
H2051 H 0.63382 0.82612 0.47109 0.0
H2052 H 0.55967 0.79685 0.4685 0.0
H2053 H 0.56992 0.79654 0.48792 0.0
H2054 H 0.57205 0.78737 0.46853 0.0
H2055 H 0.5994 0.71717 0.44342 0.0
H2056 H 0.60653 0.69925 0.46031 0.0
H2057 H 0.60921 0.71664 0.4733 0.0
H2058 H 0.62662 0.71669 0.46499 0.0
H2059 H 0.64134 0.76901 0.45462 0.0
H2060 H 0.59312 0.7301 0.4633 0.0
H2061 H 0.6421 0.79821 0.48563 0.0
H2062 H 0.63745 0.80187 0.46454 0.0
H2063 H 0.65227 0.79569 0.46768 0.0
H2064 H 0.57433 0.73481 0.47718 0.0
H2065 H 0.57803 0.75569 0.47715 0.0
H2066 H 0.58409 0.74887 0.49545 0.0
H2067 H 0.61733 0.80593 0.58049 0.0
H2068 H 0.60373 0.8315 0.53611 0.0
H2069 H 0.60032 0.82783 0.50569 0.0
H2070 H 0.60443 0.79201 0.46346 0.0
H2071 H 0.61601 0.76497 0.50813 0.0
H2072 H 0.61943 0.7687 0.53863 0.0
H2073 H 0.59689 0.88583 0.47615 0.0
H2074 H 0.58922 0.86531 0.48352 0.0
H2075 H 0.57959 0.86823 0.46522 0.0
C2076 C 0.11965 0.71166 0.60549 0.0
C2077 C 0.11917 0.7265 0.61353 0.0
C2078 C 0.13285 0.74998 0.59489 0.0
C2079 C 0.13039 0.76103 0.5856 0.0
C2080 C 0.14327 0.7745 0.57817 0.0
C2081 C 0.15894 0.77661 0.5796 0.0
C2082 C 0.16162 0.76568 0.58931 0.0
C2083 C 0.14856 0.75254 0.597 0.0
C2084 C 0.13999 0.78616 0.56835 0.0
C2085 C 0.17819 0.76761 0.59109 0.0
C2086 C 0.25591 0.8983 0.62643 0.0
C2087 C 0.24508 0.88047 0.62134 0.0
C2088 C 0.22718 0.86311 0.59735 0.0
C2089 C 0.22834 0.84904 0.60033 0.0
C2090 C 0.21845 0.83405 0.59099 0.0
C2091 C 0.20674 0.83293 0.57885 0.0
C2092 C 0.20525 0.847 0.57622 0.0
C2093 C 0.21581 0.86199 0.58518 0.0
C2094 C 0.22055 0.81944 0.59414 0.0
C2095 C 0.19245 0.84628 0.56408 0.0
C2096 C 0.23249 0.84719 0.46774 0.0
C2097 C 0.23547 0.83471 0.47287 0.0
C2098 C 0.22439 0.82191 0.48271 0.0
C2099 C 0.21009 0.82159 0.48743 0.0
C2100 C 0.207 0.83405 0.48215 0.0
C2101 C 0.21829 0.84671 0.47237 0.0
C2102 C 0.22797 0.80875 0.48813 0.0
C2103 C 0.1918 0.834 0.48685 0.0
C2104 C 0.09903 0.70224 0.47534 0.0
C2105 C 0.10609 0.71821 0.46563 0.0
C2106 C 0.13489 0.73841 0.47144 0.0
C2107 C 0.14948 0.73894 0.47506 0.0
C2108 C 0.16253 0.75283 0.48356 0.0
C2109 C 0.16094 0.76658 0.48834 0.0
C2110 C 0.14646 0.76643 0.48402 0.0
C2111 C 0.13362 0.75239 0.47553 0.0
C2112 C 0.17789 0.7527 0.48775 0.0
C2113 C 0.14451 0.78107 0.48854 0.0
C2114 C 0.17215 0.78933 0.56972 0.0
C2115 C 0.18334 0.80436 0.57806 0.0
C2116 C 0.19579 0.81697 0.56927 0.0
C2117 C 0.19712 0.81452 0.5516 0.0
C2118 C 0.20966 0.82669 0.54236 0.0
C2119 C 0.21023 0.82458 0.52479 0.0
C2120 C 0.19835 0.81014 0.51582 0.0
C2121 C 0.19829 0.8082 0.49786 0.0
C2122 C 0.18625 0.79372 0.48933 0.0
C2123 C 0.17418 0.78097 0.49827 0.0
C2124 C 0.17415 0.78258 0.51624 0.0
C2125 C 0.16236 0.76987 0.52565 0.0
C2126 C 0.16195 0.77188 0.54322 0.0
C2127 C 0.17315 0.78679 0.55204 0.0
C2128 C 0.18552 0.79952 0.54292 0.0
C2129 C 0.1861 0.79735 0.525 0.0
C2130 C 0.26561 0.87711 0.44192 0.0
C2131 C 0.25775 0.86279 0.45298 0.0
O2132 O 0.11965 0.73684 0.60106 0.0
O2133 O 0.12249 0.72433 0.46382 0.0
O2134 O 0.2429 0.85988 0.45835 0.0
O2135 O 0.23684 0.87795 0.60578 0.0
H2136 H 0.12976 0.73332 0.62267 0.0
H2137 H 0.13126 0.71581 0.59922 0.0
H2138 H 0.10969 0.70486 0.59571 0.0
H2139 H 0.11858 0.70307 0.61549 0.0
H2140 H 0.11825 0.759 0.58413 0.0
H2141 H 0.15066 0.7441 0.60418 0.0
H2142 H 0.14945 0.79919 0.57157 0.0
H2143 H 0.12797 0.78459 0.57098 0.0
H2144 H 0.14032 0.78376 0.55446 0.0
H2145 H 0.17821 0.75779 0.59864 0.0
H2146 H 0.18675 0.77981 0.59745 0.0
H2147 H 0.18273 0.76727 0.57827 0.0
H2148 H 0.23706 0.87268 0.63141 0.0
H2149 H 0.27905 0.90125 0.62665 0.0
H2150 H 0.25054 0.9004 0.6382 0.0
H2151 H 0.25225 0.90549 0.61802 0.0
H2152 H 0.23709 0.84971 0.60972 0.0
H2153 H 0.21496 0.87289 0.58301 0.0
H2154 H 0.21033 0.81041 0.60154 0.0
H2155 H 0.23199 0.82311 0.60148 0.0
H2156 H 0.22043 0.81314 0.58188 0.0
H2157 H 0.19039 0.85677 0.5666 0.0
H2158 H 0.1808 0.83454 0.56502 0.0
H2159 H 0.19638 0.8469 0.5508 0.0
H2160 H 0.2657 0.86272 0.46353 0.0
H2161 H 0.24637 0.83487 0.46925 0.0
H2162 H 0.21609 0.85636 0.4683 0.0
H2163 H 0.22798 0.80832 0.50226 0.0
H2164 H 0.23981 0.81094 0.48376 0.0
H2165 H 0.21832 0.79647 0.48287 0.0
H2166 H 0.19099 0.84432 0.48131 0.0
H2167 H 0.19142 0.83502 0.50094 0.0
H2168 H 0.18103 0.82213 0.48231 0.0
H2169 H 0.10383 0.72669 0.47376 0.0
H2170 H 0.08564 0.69612 0.47538 0.0
H2171 H 0.10383 0.70521 0.48878 0.0
H2172 H 0.10253 0.69356 0.46968 0.0
H2173 H 0.15049 0.72824 0.47156 0.0
H2174 H 0.12275 0.75255 0.47203 0.0
H2175 H 0.18039 0.75434 0.50177 0.0
H2176 H 0.18822 0.76324 0.48183 0.0
H2177 H 0.17722 0.74104 0.48318 0.0
H2178 H 0.13286 0.77941 0.48343 0.0
H2179 H 0.15458 0.79244 0.48346 0.0
H2180 H 0.14506 0.78296 0.50263 0.0
H2181 H 0.18219 0.80634 0.59153 0.0
H2182 H 0.21907 0.8381 0.54857 0.0
H2183 H 0.22 0.83449 0.5183 0.0
H2184 H 0.18605 0.79252 0.47552 0.0
H2185 H 0.15325 0.75825 0.51952 0.0
H2186 H 0.15255 0.76166 0.54974 0.0
H2187 H 0.27688 0.88642 0.44943 0.0
H2188 H 0.25918 0.88429 0.44369 0.0
H2189 H 0.26623 0.8665 0.41828 0.0
C2190 C 0.13893 0.3856 0.635 0.0
C2191 C 0.12632 0.38116 0.62037 0.0
C2192 C 0.1398 0.37468 0.59754 0.0
C2193 C 0.15144 0.39107 0.59429 0.0
C2194 C 0.16424 0.39449 0.58363 0.0
C2195 C 0.16552 0.3813 0.57616 0.0
C2196 C 0.15375 0.3648 0.57927 0.0
C2197 C 0.14093 0.36172 0.58976 0.0
C2198 C 0.17649 0.41224 0.58043 0.0
C2199 C 0.15484 0.35043 0.57167 0.0
C2200 C 0.28096 0.42253 0.62661 0.0
C2201 C 0.26681 0.40689 0.61805 0.0
C2202 C 0.25188 0.40527 0.59222 0.0
C2203 C 0.23941 0.38878 0.59037 0.0
C2204 C 0.22501 0.38451 0.58115 0.0
C2205 C 0.22298 0.3971 0.57408 0.0
C2206 C 0.23551 0.41383 0.57633 0.0
C2207 C 0.25 0.41764 0.58502 0.0
C2208 C 0.21203 0.36654 0.57889 0.0
C2209 C 0.23363 0.42772 0.56966 0.0
C2210 C 0.24677 0.41309 0.46301 0.0
C2211 C 0.23944 0.39683 0.46836 0.0
C2212 C 0.22519 0.39019 0.47748 0.0
C2213 C 0.21855 0.40026 0.4818 0.0
C2214 C 0.22588 0.4166 0.47615 0.0
C2215 C 0.23972 0.42266 0.4665 0.0
C2216 C 0.21729 0.37247 0.48252 0.0
C2217 C 0.21919 0.42775 0.48031 0.0
C2218 C 0.10524 0.3718 0.42901 0.0
C2219 C 0.11616 0.37942 0.44448 0.0
C2220 C 0.13228 0.37268 0.46356 0.0
C2221 C 0.13549 0.36027 0.46794 0.0
C2222 C 0.14937 0.36398 0.47784 0.0
C2223 C 0.1602 0.38052 0.48359 0.0
C2224 C 0.15675 0.39307 0.47969 0.0
C2225 C 0.14282 0.38903 0.46971 0.0
C2226 C 0.15261 0.35028 0.48196 0.0
C2227 C 0.1679 0.41079 0.4859 0.0
C2228 C 0.17938 0.38484 0.56539 0.0
C2229 C 0.19406 0.38882 0.57363 0.0
C2230 C 0.20776 0.39277 0.56439 0.0
C2231 C 0.20688 0.3928 0.54637 0.0
C2232 C 0.22045 0.3969 0.53665 0.0
C2233 C 0.21963 0.39753 0.519 0.0
C2234 C 0.20503 0.3934 0.51027 0.0
C2235 C 0.20404 0.39391 0.49229 0.0
C2236 C 0.18922 0.38938 0.48404 0.0
C2237 C 0.17537 0.38477 0.49327 0.0
C2238 C 0.17622 0.38463 0.51126 0.0
C2239 C 0.16264 0.38058 0.52095 0.0
C2240 C 0.16366 0.38072 0.53867 0.0
C2241 C 0.17822 0.38468 0.54738 0.0
C2242 C 0.19205 0.38872 0.53785 0.0
C2243 C 0.19107 0.38882 0.51977 0.0
C2244 C 0.28886 0.43594 0.45898 0.0
C2245 C 0.27399 0.41856 0.45827 0.0
O2246 O 0.12744 0.37079 0.60816 0.0
O2247 O 0.11919 0.36848 0.45304 0.0
O2248 O 0.26051 0.4198 0.45424 0.0
O2249 O 0.26587 0.40946 0.60088 0.0
H2250 H 0.12835 0.39262 0.61442 0.0
H2251 H 0.15135 0.39231 0.63024 0.0
H2252 H 0.13713 0.37422 0.64096 0.0
H2253 H 0.13798 0.39375 0.6449 0.0
H2254 H 0.15069 0.40127 0.60002 0.0
H2255 H 0.13188 0.34912 0.59226 0.0
H2256 H 0.18846 0.41534 0.58608 0.0
H2257 H 0.1731 0.42104 0.58602 0.0
H2258 H 0.17781 0.41395 0.5665 0.0
H2259 H 0.14529 0.33839 0.57617 0.0
H2260 H 0.16686 0.35198 0.57503 0.0
H2261 H 0.15366 0.35016 0.55755 0.0
H2262 H 0.25561 0.40482 0.62425 0.0
H2263 H 0.28174 0.42107 0.64054 0.0
H2264 H 0.27917 0.43321 0.62479 0.0
H2265 H 0.29253 0.42524 0.62097 0.0
H2266 H 0.24107 0.37928 0.59591 0.0
H2267 H 0.25979 0.43035 0.58662 0.0
H2268 H 0.20795 0.36329 0.56525 0.0
H2269 H 0.20142 0.36435 0.58625 0.0
H2270 H 0.21625 0.35817 0.58336 0.0
H2271 H 0.24302 0.43996 0.57532 0.0
H2272 H 0.22152 0.42585 0.57241 0.0
H2273 H 0.23474 0.42793 0.55561 0.0
H2274 H 0.27303 0.41358 0.47119 0.0
H2275 H 0.24472 0.3893 0.4652 0.0
H2276 H 0.24542 0.43512 0.46206 0.0
H2277 H 0.21918 0.37215 0.49646 0.0
H2278 H 0.22236 0.36559 0.47584 0.0
H2279 H 0.20405 0.36603 0.47962 0.0
H2280 H 0.22771 0.4408 0.47739 0.0
H2281 H 0.21635 0.42729 0.494 0.0
H2282 H 0.20779 0.42341 0.47264 0.0
H2283 H 0.11317 0.38703 0.4532 0.0
H2284 H 0.09415 0.37251 0.43188 0.0
H2285 H 0.09909 0.358 0.43011 0.0
H2286 H 0.12009 0.38404 0.40883 0.0
H2287 H 0.12724 0.34769 0.46323 0.0
H2288 H 0.14031 0.39871 0.46667 0.0
H2289 H 0.15374 0.34978 0.49601 0.0
H2290 H 0.16427 0.35288 0.47665 0.0
H2291 H 0.14289 0.33802 0.47672 0.0
H2292 H 0.16306 0.41894 0.48257 0.0
H2293 H 0.17983 0.41553 0.48014 0.0
H2294 H 0.1699 0.4115 0.49996 0.0
H2295 H 0.19486 0.389 0.58745 0.0
H2296 H 0.23196 0.39991 0.5426 0.0
H2297 H 0.23059 0.40118 0.51229 0.0
H2298 H 0.18852 0.38977 0.47026 0.0
H2299 H 0.15109 0.37737 0.51494 0.0
H2300 H 0.15285 0.37764 0.54547 0.0
H2301 H 0.29989 0.43562 0.46292 0.0
H2302 H 0.28724 0.44398 0.46847 0.0
H2303 H 0.29062 0.44146 0.44631 0.0
C2304 C 0.98147 0.36016 0.03169 0.0
C2305 C 0.99067 0.35239 0.03018 0.0
C2306 C 0.98125 0.36791 0.0472 0.0
C2307 C 0.99028 0.36771 0.06161 0.0
C2308 C 0.99878 0.35903 0.06045 0.0
C2309 C 0.99895 0.35155 0.04474 0.0
C2310 C 0.97211 0.37711 0.0479 0.0
C2311 C 0.00836 0.35831 0.07559 0.0
C2312 C 0.00671 0.40342 0.09472 0.0
C2313 C 0.99564 0.39667 0.10768 0.0
C2314 C 0.0049 0.39421 0.07956 0.0
C2315 C 0.99193 0.37769 0.07745 0.0
C2316 C 0.98082 0.37072 0.09056 0.0
C2317 C 0.98281 0.3803 0.10551 0.0
C2318 C 0.01698 0.40212 0.06586 0.0
C2319 C 0.967 0.35308 0.08889 0.0
H2320 H 0.97508 0.36093 0.02053 0.0
H2321 H 0.00599 0.34548 0.04375 0.0
H2322 H 0.96418 0.37339 0.05894 0.0
H2323 H 0.98081 0.39057 0.0497 0.0
H2324 H 0.96459 0.37491 0.03607 0.0
H2325 H 0.01288 0.34966 0.0731 0.0
H2326 H 0.01888 0.3708 0.07874 0.0
H2327 H 0.00084 0.35442 0.08696 0.0
H2328 H 0.01689 0.41591 0.09647 0.0
H2329 H 0.97445 0.37493 0.11566 0.0
H2330 H 0.01061 0.40148 0.05364 0.0
H2331 H 0.02348 0.39528 0.06371 0.0
H2332 H 0.02602 0.41527 0.06923 0.0
H2333 H 0.95937 0.35122 0.07727 0.0
H2334 H 0.95927 0.34959 0.10012 0.0
H2335 H 0.9718 0.34456 0.08742 0.0
C2336 C 0.64031 0.62014 0.0787 0.0
C2337 C 0.64458 0.61761 0.06239 0.0
C2338 C 0.63092 0.60679 0.08881 0.0
C2339 C 0.62535 0.59049 0.08229 0.0
C2340 C 0.62916 0.58782 0.06559 0.0
C2341 C 0.63892 0.60145 0.05589 0.0
C2342 C 0.62738 0.61018 0.10668 0.0
C2343 C 0.6231 0.57058 0.05807 0.0
C2344 C 0.61578 0.55814 0.11489 0.0
C2345 C 0.59905 0.55119 0.11621 0.0
C2346 C 0.62445 0.57074 0.1037 0.0
C2347 C 0.61613 0.57635 0.0933 0.0
C2348 C 0.59918 0.56913 0.0942 0.0
C2349 C 0.59086 0.55685 0.10586 0.0
C2350 C 0.64258 0.57843 0.10342 0.0
C2351 C 0.58986 0.57461 0.08308 0.0
H2352 H 0.64474 0.63262 0.08383 0.0
H2353 H 0.64213 0.59947 0.04322 0.0
H2354 H 0.61414 0.60371 0.1083 0.0
H2355 H 0.63255 0.60531 0.11608 0.0
H2356 H 0.63247 0.62358 0.10975 0.0
H2357 H 0.62622 0.57058 0.04452 0.0
H2358 H 0.62841 0.56447 0.0655 0.0
H2359 H 0.60978 0.56303 0.05891 0.0
H2360 H 0.62215 0.55392 0.12299 0.0
H2361 H 0.57798 0.55177 0.10691 0.0
H2362 H 0.64853 0.59175 0.10734 0.0
H2363 H 0.64624 0.57757 0.09029 0.0
H2364 H 0.64717 0.57241 0.11206 0.0
H2365 H 0.59343 0.58756 0.08674 0.0
H2366 H 0.57658 0.56672 0.08419 0.0
H2367 H 0.59279 0.57429 0.06952 0.0
C2368 C 0.36664 0.00575 0.03995 0.0
C2369 C 0.3762 0.01444 0.02642 0.0
C2370 C 0.37366 0.00416 0.05509 0.0
C2371 C 0.39065 0.01144 0.05678 0.0
C2372 C 0.40044 0.0211 0.04365 0.0
C2373 C 0.3931 0.02251 0.02862 0.0
C2374 C 0.36279 0.99385 0.06885 0.0
C2375 C 0.41862 0.02914 0.04505 0.0
C2376 C 0.40818 0.01278 0.10108 0.0
C2377 C 0.40939 0.99849 0.10024 0.0
C2378 C 0.40259 0.01749 0.08687 0.0
C2379 C 0.39796 0.00757 0.07153 0.0
C2380 C 0.39945 0.9933 0.07052 0.0
C2381 C 0.40509 0.9889 0.0849 0.0
C2382 C 0.40116 0.03278 0.08842 0.0
C2383 C 0.39461 0.98238 0.0544 0.0
H2384 H 0.35358 0.99959 0.03847 0.0
H2385 H 0.40061 0.02929 0.01829 0.0
H2386 H 0.36336 0.98237 0.06975 0.0
H2387 H 0.36694 0.00065 0.08144 0.0
H2388 H 0.34999 0.99035 0.06628 0.0
H2389 H 0.42458 0.0378 0.03473 0.0
H2390 H 0.42338 0.03598 0.05756 0.0
H2391 H 0.42202 0.01946 0.04428 0.0
H2392 H 0.41132 0.02009 0.11299 0.0
H2393 H 0.4058 0.97773 0.08429 0.0
H2394 H 0.38823 0.02922 0.08734 0.0
H2395 H 0.40733 0.041 0.07787 0.0
H2396 H 0.40642 0.03983 0.10077 0.0
H2397 H 0.38147 0.97688 0.0515 0.0
H2398 H 0.39728 0.9722 0.05545 0.0
H2399 H 0.40106 0.9898 0.04344 0.0
C2400 C 0.37144 0.97211 0.96766 0.0
C2401 C 0.36628 0.98266 0.96159 0.0
C2402 C 0.38468 0.97186 0.96054 0.0
C2403 C 0.39274 0.98232 0.94708 0.0
C2404 C 0.38722 0.9926 0.94066 0.0
C2405 C 0.37409 0.99263 0.94798 0.0
C2406 C 0.39029 0.96075 0.96766 0.0
C2407 C 0.39534 0.00386 0.9262 0.0
C2408 C 0.4361 0.99925 0.93554 0.0
C2409 C 0.43406 0.99065 0.9199 0.0
C2410 C 0.42281 0.99554 0.94551 0.0
C2411 C 0.40715 0.98302 0.9396 0.0
C2412 C 0.40524 0.97345 0.9245 0.0
C2413 C 0.41872 0.97746 0.91477 0.0
C2414 C 0.42535 0.00601 0.96155 0.0
C2415 C 0.38877 0.95997 0.91779 0.0
H2416 H 0.36544 0.96443 0.97821 0.0
H2417 H 0.37 0.00064 0.94308 0.0
H2418 H 0.39158 0.95331 0.95721 0.0
H2419 H 0.40237 0.96841 0.97415 0.0
H2420 H 0.38184 0.95226 0.97697 0.0
H2421 H 0.38931 0.01085 0.92254 0.0
H2422 H 0.40814 0.01285 0.92996 0.0
H2423 H 0.39528 0.99653 0.91481 0.0
H2424 H 0.44795 0.00948 0.93951 0.0
H2425 H 0.4171 0.9708 0.90267 0.0
H2426 H 0.41825 0.99821 0.97201 0.0
H2427 H 0.42105 0.01478 0.95909 0.0
H2428 H 0.43829 0.01326 0.96587 0.0
H2429 H 0.38156 0.95228 0.92826 0.0
H2430 H 0.38963 0.95183 0.9078 0.0
H2431 H 0.38212 0.96564 0.91215 0.0
C2432 C 0.03149 0.39642 0.97356 0.0
C2433 C 0.02073 0.37997 0.96805 0.0
C2434 C 0.03114 0.40954 0.96569 0.0
C2435 C 0.0199 0.40606 0.95194 0.0
C2436 C 0.00894 0.38946 0.94648 0.0
C2437 C 0.00948 0.37667 0.9546 0.0
C2438 C 0.0429 0.42709 0.97193 0.0
C2439 C 0.99685 0.38517 0.93176 0.0
C2440 C 0.00704 0.43565 0.93599 0.0
C2441 C 0.01575 0.44093 0.92109 0.0
C2442 C 0.0091 0.42518 0.94687 0.0
C2443 C 0.01989 0.4196 0.94256 0.0
C2444 C 0.02915 0.4254 0.92789 0.0
C2445 C 0.02694 0.43595 0.91733 0.0
C2446 C 0.99905 0.41932 0.96244 0.0
C2447 C 0.04063 0.41961 0.9227 0.0
H2448 H 0.04018 0.39905 0.98397 0.0
H2449 H 0.00123 0.36401 0.95013 0.0
H2450 H 0.05109 0.43389 0.96163 0.0
H2451 H 0.03626 0.43358 0.97524 0.0
H2452 H 0.05033 0.42771 0.98328 0.0
H2453 H 0.98892 0.37162 0.92936 0.0
H2454 H 0.98911 0.39059 0.93435 0.0
H2455 H 0.00329 0.39053 0.91996 0.0
H2456 H 0.99818 0.43924 0.93881 0.0
H2457 H 0.0335 0.43979 0.9057 0.0
H2458 H 0.00667 0.42025 0.97373 0.0
H2459 H 0.98961 0.40612 0.9603 0.0
H2460 H 0.99302 0.42653 0.96533 0.0
H2461 H 0.04873 0.42091 0.93367 0.0
H2462 H 0.04815 0.42659 0.91202 0.0
H2463 H 0.03362 0.40631 0.91861 0.0
C2464 C 0.63215 0.6466 0.98809 0.0
C2465 C 0.62561 0.64306 0.00429 0.0
C2466 C 0.6221 0.64209 0.97326 0.0
C2467 C 0.60511 0.63361 0.97467 0.0
C2468 C 0.59844 0.62998 0.99097 0.0
C2469 C 0.60877 0.63487 0.00559 0.0
C2470 C 0.62966 0.6464 0.9561 0.0
C2471 C 0.58037 0.62073 0.99296 0.0
C2472 C 0.5779 0.63312 0.9385 0.0
C2473 C 0.57252 0.61758 0.93039 0.0
C2474 C 0.58874 0.63864 0.95273 0.0
C2475 C 0.59425 0.62831 0.95909 0.0
C2476 C 0.58912 0.61273 0.95078 0.0
C2477 C 0.57852 0.60767 0.93637 0.0
C2478 C 0.59423 0.65548 0.96102 0.0
C2479 C 0.59463 0.60131 0.95727 0.0
H2480 H 0.64515 0.65301 0.98698 0.0
H2481 H 0.60361 0.63199 0.01804 0.0
H2482 H 0.62577 0.63495 0.94811 0.0
H2483 H 0.62549 0.65385 0.94928 0.0
H2484 H 0.64308 0.65347 0.95724 0.0
H2485 H 0.57712 0.61881 0.00654 0.0
H2486 H 0.57498 0.62762 0.98725 0.0
H2487 H 0.57483 0.60849 0.98601 0.0
H2488 H 0.57356 0.64095 0.93366 0.0
H2489 H 0.5748 0.59583 0.92992 0.0
H2490 H 0.60763 0.663 0.96159 0.0
H2491 H 0.59025 0.65418 0.97433 0.0
H2492 H 0.58937 0.66229 0.95406 0.0
H2493 H 0.60801 0.60751 0.95739 0.0
H2494 H 0.5895 0.58959 0.94937 0.0
H2495 H 0.59098 0.59829 0.9706 0.0
C2496 C 0.00395 0.65102 0.98154 0.0
C2497 C 0.01144 0.64964 0.99647 0.0
C2498 C 0.00609 0.64537 0.96558 0.0
C2499 C 0.01586 0.63805 0.96449 0.0
C2500 C 0.02383 0.63705 0.9794 0.0
C2501 C 0.02157 0.6429 0.99519 0.0
C2502 C 0.99754 0.64683 0.94993 0.0
C2503 C 0.03429 0.62926 0.97878 0.0
C2504 C 0.00663 0.60761 0.92696 0.0
C2505 C 0.01876 0.6172 0.91578 0.0
C2506 C 0.00568 0.61418 0.94292 0.0
C2507 C 0.01715 0.63079 0.94786 0.0
C2508 C 0.02969 0.64045 0.93687 0.0
C2509 C 0.03053 0.63346 0.92111 0.0
C2510 C 0.99235 0.60334 0.95445 0.0
C2511 C 0.04211 0.65823 0.94168 0.0
H2512 H 0.99617 0.65626 0.98234 0.0
H2513 H 0.0274 0.64174 0.0066 0.0
H2514 H 0.00634 0.65322 0.93994 0.0
H2515 H 0.98857 0.63432 0.94455 0.0
H2516 H 0.99117 0.6537 0.95276 0.0
H2517 H 0.04034 0.63024 0.99134 0.0
H2518 H 0.02677 0.616 0.97469 0.0
H2519 H 0.04368 0.63522 0.96924 0.0
H2520 H 0.9978 0.59491 0.92314 0.0
H2521 H 0.04033 0.64088 0.91296 0.0
H2522 H 0.98451 0.60868 0.9568 0.0
H2523 H 0.99759 0.60284 0.967 0.0
H2524 H 0.98471 0.59053 0.94894 0.0
H2525 H 0.036 0.66547 0.94382 0.0
H2526 H 0.05108 0.66409 0.9317 0.0
H2527 H 0.04864 0.65898 0.95381 0.0
C2528 C 0.36788 0.40611 0.97991 0.0
C2529 C 0.36221 0.39036 0.9722 0.0
C2530 C 0.37539 0.42029 0.97029 0.0
C2531 C 0.37678 0.41856 0.95252 0.0
C2532 C 0.37152 0.40271 0.94482 0.0
C2533 C 0.3645 0.38884 0.95481 0.0
C2534 C 0.38134 0.43704 0.97904 0.0
C2535 C 0.37253 0.40029 0.92585 0.0
C2536 C 0.37683 0.44952 0.92257 0.0
C2537 C 0.39284 0.45754 0.91723 0.0
C2538 C 0.37159 0.43717 0.93448 0.0
C2539 C 0.38269 0.43303 0.94164 0.0
C2540 C 0.39907 0.44182 0.93723 0.0
C2541 C 0.4039 0.45389 0.92504 0.0
C2542 C 0.35398 0.42799 0.93879 0.0
C2543 C 0.41136 0.43806 0.94491 0.0
H2544 H 0.36622 0.40732 0.99339 0.0
H2545 H 0.36006 0.37668 0.94876 0.0
H2546 H 0.39381 0.44589 0.97533 0.0
H2547 H 0.37352 0.44198 0.97495 0.0
H2548 H 0.38125 0.43649 0.99316 0.0
H2549 H 0.36836 0.38722 0.92196 0.0
H2550 H 0.36497 0.40419 0.91878 0.0
H2551 H 0.38514 0.40811 0.92193 0.0
H2552 H 0.36813 0.45239 0.91714 0.0
H2553 H 0.41633 0.46023 0.92127 0.0
H2554 H 0.3528 0.42833 0.9528 0.0
H2555 H 0.34839 0.41481 0.9344 0.0
H2556 H 0.34705 0.43321 0.93276 0.0
H2557 H 0.41056 0.43766 0.95899 0.0
H2558 H 0.4239 0.44734 0.94178 0.0
H2559 H 0.40879 0.42571 0.94002 0.0
C2560 C 0.64259 0.99478 0.98031 0.0
C2561 C 0.63329 0.98873 0.99472 0.0
C2562 C 0.63525 0.99247 0.96402 0.0
C2563 C 0.61817 0.9841 0.9621 0.0
C2564 C 0.60869 0.97776 0.97655 0.0
C2565 C 0.61636 0.98005 0.99267 0.0
C2566 C 0.64576 0.99919 0.94888 0.0
C2567 C 0.59046 0.96894 0.97504 0.0
C2568 C 0.60116 0.99388 0.92295 0.0
C2569 C 0.59709 0.98021 0.91185 0.0
C2570 C 0.60768 0.99512 0.93947 0.0
C2571 C 0.61031 0.98242 0.94503 0.0
C2572 C 0.60579 0.96835 0.93411 0.0
C2573 C 0.59893 0.96724 0.9178 0.0
C2574 C 0.61192 0.01012 0.95092 0.0
C2575 C 0.60849 0.95459 0.93955 0.0
H2576 H 0.65567 0.00141 0.98175 0.0
H2577 H 0.60907 0.97541 0.00374 0.0
H2578 H 0.64231 0.98919 0.93892 0.0
H2579 H 0.64389 0.00879 0.94314 0.0
H2580 H 0.65882 0.00472 0.9524 0.0
H2581 H 0.58483 0.96429 0.98741 0.0
H2582 H 0.58656 0.97747 0.97037 0.0
H2583 H 0.58578 0.95834 0.96559 0.0
H2584 H 0.59929 0.00368 0.91864 0.0
H2585 H 0.59525 0.9563 0.90967 0.0
H2586 H 0.62515 0.01719 0.95388 0.0
H2587 H 0.60588 0.00623 0.96321 0.0
H2588 H 0.60833 0.01846 0.94501 0.0
H2589 H 0.62157 0.95955 0.94241 0.0
H2590 H 0.60422 0.94442 0.9296 0.0
H2591 H 0.60212 0.9494 0.95142 0.0
C2592 C 0.64981 0.04433 0.06289 0.0
C2593 C 0.64519 0.02785 0.05881 0.0
C2594 C 0.63984 0.04828 0.07228 0.0
C2595 C 0.62469 0.03544 0.07733 0.0
C2596 C 0.61964 0.0188 0.07257 0.0
C2597 C 0.63005 0.01519 0.06353 0.0
C2598 C 0.64579 0.06616 0.07739 0.0
C2599 C 0.6034 0.00481 0.07733 0.0
C2600 C 0.60781 0.04468 0.11668 0.0
C2601 C 0.59728 0.04934 0.10953 0.0
C2602 C 0.61656 0.03981 0.10633 0.0
C2603 C 0.6146 0.03942 0.08837 0.0
C2604 C 0.60365 0.04368 0.08104 0.0
C2605 C 0.59531 0.04885 0.0917 0.0
C2606 C 0.62833 0.03564 0.11464 0.0
C2607 C 0.60105 0.04314 0.06193 0.0
H2608 H 0.66155 0.05414 0.05933 0.0
H2609 H 0.62633 0.00245 0.06019 0.0
H2610 H 0.63691 0.06968 0.07302 0.0
H2611 H 0.64702 0.06789 0.09151 0.0
H2612 H 0.65767 0.07469 0.07204 0.0
H2613 H 0.60071 0.99274 0.0714 0.0
H2614 H 0.60311 0.00387 0.09139 0.0
H2615 H 0.59367 0.00727 0.07334 0.0
H2616 H 0.60953 0.04531 0.13044 0.0
H2617 H 0.58741 0.05271 0.08605 0.0
H2618 H 0.64077 0.04443 0.11081 0.0
H2619 H 0.62549 0.02307 0.11025 0.0
H2620 H 0.62813 0.03617 0.12879 0.0
H2621 H 0.61227 0.05269 0.05626 0.0
H2622 H 0.59105 0.04534 0.05831 0.0
H2623 H 0.59827 0.03097 0.05624 0.0
C2624 C 0.96197 0.60467 0.04497 0.0
C2625 C 0.97402 0.61958 0.05293 0.0
C2626 C 0.9594 0.58942 0.0503 0.0
C2627 C 0.969 0.58907 0.06405 0.0
C2628 C 0.98124 0.60408 0.07209 0.0
C2629 C 0.98365 0.61916 0.06638 0.0
C2630 C 0.94635 0.57368 0.04129 0.0
C2631 C 0.99164 0.60419 0.08687 0.0
C2632 C 0.95168 0.54968 0.08834 0.0
C2633 C 0.95999 0.54219 0.08162 0.0
C2634 C 0.95463 0.56502 0.08286 0.0
C2635 C 0.96603 0.57297 0.07021 0.0
C2636 C 0.97443 0.56547 0.06334 0.0
C2637 C 0.97137 0.5502 0.06918 0.0
C2638 C 0.94553 0.57271 0.0906 0.0
C2639 C 0.98658 0.57351 0.04973 0.0
H2640 H 0.95453 0.60491 0.03451 0.0
H2641 H 0.99292 0.63063 0.07265 0.0
H2642 H 0.95159 0.56628 0.03632 0.0
H2643 H 0.93711 0.56604 0.05044 0.0
H2644 H 0.94026 0.57609 0.03051 0.0
H2645 H 0.00079 0.61693 0.09157 0.0
H2646 H 0.98393 0.59758 0.09756 0.0
H2647 H 0.998 0.59755 0.08302 0.0
H2648 H 0.94286 0.54352 0.09792 0.0
H2649 H 0.97781 0.54444 0.06397 0.0
H2650 H 0.93822 0.57431 0.08051 0.0
H2651 H 0.95418 0.58517 0.09635 0.0
H2652 H 0.93734 0.56511 0.10058 0.0
H2653 H 0.98065 0.5753 0.03837 0.0
H2654 H 0.99208 0.56605 0.04572 0.0
H2655 H 0.99637 0.58591 0.05449 0.0
C2656 C 0.37666 0.35796 0.04112 0.0
C2657 C 0.38173 0.35716 0.02464 0.0
C2658 C 0.38691 0.36128 0.05556 0.0
C2659 C 0.40263 0.36385 0.05352 0.0
C2660 C 0.40779 0.36288 0.03698 0.0
C2661 C 0.39729 0.35955 0.02273 0.0
C2662 C 0.38094 0.3622 0.073 0.0
C2663 C 0.42447 0.36551 0.03432 0.0
C2664 C 0.4331 0.38754 0.09014 0.0
C2665 C 0.43284 0.37477 0.09924 0.0
C2666 C 0.42372 0.38422 0.07498 0.0
C2667 C 0.41365 0.36766 0.06878 0.0
C2668 C 0.41354 0.35469 0.07762 0.0
C2669 C 0.42316 0.35837 0.09267 0.0
C2670 C 0.42429 0.39842 0.06584 0.0
C2671 C 0.40291 0.33686 0.07142 0.0
H2672 H 0.36469 0.35615 0.0428 0.0
H2673 H 0.40135 0.35896 0.01008 0.0
H2674 H 0.38157 0.35314 0.08127 0.0
H2675 H 0.38884 0.37466 0.07918 0.0
H2676 H 0.36831 0.35968 0.07242 0.0
H2677 H 0.42655 0.36408 0.02066 0.0
H2678 H 0.43376 0.37809 0.03923 0.0
H2679 H 0.42625 0.35658 0.04162 0.0
H2680 H 0.44055 0.4002 0.09507 0.0
H2681 H 0.42276 0.34824 0.09928 0.0
H2682 H 0.41227 0.39745 0.06598 0.0
H2683 H 0.42711 0.39787 0.05228 0.0
H2684 H 0.43345 0.41062 0.07177 0.0
H2685 H 0.39002 0.33339 0.07177 0.0
H2686 H 0.40476 0.32825 0.07928 0.0
H2687 H 0.40535 0.33517 0.05798 0.0
C2688 C 0.63733 0.69934 0.35656 0.0
C2689 C 0.64543 0.69043 0.35806 0.0
C2690 C 0.63171 0.70384 0.37095 0.0
C2691 C 0.63402 0.69914 0.38726 0.0
C2692 C 0.64179 0.68978 0.38885 0.0
C2693 C 0.64751 0.68564 0.37425 0.0
C2694 C 0.62365 0.714 0.36874 0.0
C2695 C 0.64425 0.68432 0.40599 0.0
C2696 C 0.63417 0.72482 0.4258 0.0
C2697 C 0.61815 0.71553 0.43088 0.0
C2698 C 0.63948 0.71961 0.41165 0.0
C2699 C 0.62869 0.70448 0.40268 0.0
C2700 C 0.61271 0.69475 0.40813 0.0
C2701 C 0.60763 0.70042 0.42211 0.0
C2702 C 0.65658 0.73042 0.40616 0.0
C2703 C 0.60095 0.67839 0.39912 0.0
H2704 H 0.63572 0.7032 0.34415 0.0
H2705 H 0.65368 0.6787 0.37554 0.0
H2706 H 0.61139 0.70753 0.37392 0.0
H2707 H 0.63071 0.72601 0.37605 0.0
H2708 H 0.62256 0.71644 0.35516 0.0
H2709 H 0.64974 0.67637 0.40495 0.0
H2710 H 0.65224 0.69529 0.41448 0.0
H2711 H 0.63252 0.67739 0.41221 0.0
H2712 H 0.64254 0.73629 0.43275 0.0
H2713 H 0.59536 0.69303 0.42624 0.0
H2714 H 0.6564 0.73406 0.39287 0.0
H2715 H 0.6631 0.72346 0.40629 0.0
H2716 H 0.66346 0.7418 0.41452 0.0
H2717 H 0.59865 0.68037 0.38573 0.0
H2718 H 0.58921 0.67194 0.40544 0.0
H2719 H 0.6062 0.67022 0.3987 0.0
C2720 C 0.29945 0.92255 0.38331 0.0
C2721 C 0.30307 0.93712 0.39257 0.0
C2722 C 0.29053 0.90709 0.39049 0.0
C2723 C 0.28537 0.90625 0.40736 0.0
C2724 C 0.28876 0.92087 0.41665 0.0
C2725 C 0.2975 0.93613 0.40911 0.0
C2726 C 0.28665 0.89165 0.38005 0.0
C2727 C 0.28349 0.9205 0.43468 0.0
C2728 C 0.24405 0.85898 0.42379 0.0
C2729 C 0.25669 0.85389 0.43782 0.0
C2730 C 0.25501 0.87859 0.41404 0.0
C2731 C 0.27685 0.89021 0.41537 0.0
C2732 C 0.28862 0.8823 0.42523 0.0
C2733 C 0.27879 0.86279 0.43536 0.0
C2734 C 0.24596 0.88528 0.40484 0.0
C2735 C 0.30662 0.8922 0.42547 0.0
H2736 H 0.30361 0.92322 0.37046 0.0
H2737 H 0.30032 0.94735 0.41637 0.0
H2738 H 0.29244 0.88535 0.38626 0.0
H2739 H 0.2734 0.88292 0.37949 0.0
H2740 H 0.29086 0.89432 0.36682 0.0
H2741 H 0.28683 0.93297 0.44002 0.0
H2742 H 0.27019 0.91239 0.43505 0.0
H2743 H 0.28921 0.91533 0.44296 0.0
H2744 H 0.23101 0.85248 0.42423 0.0
H2745 H 0.28568 0.85869 0.44269 0.0
H2746 H 0.25033 0.88815 0.39171 0.0
H2747 H 0.24844 0.897 0.41144 0.0
H2748 H 0.23278 0.87627 0.4044 0.0
H2749 H 0.31071 0.89353 0.41221 0.0
H2750 H 0.31195 0.88616 0.43298 0.0
H2751 H 0.31075 0.90479 0.43105 0.0
C2752 C 0.05905 0.34268 0.37339 0.0
C2753 C 0.06378 0.34678 0.35658 0.0
C2754 C 0.07038 0.34967 0.38722 0.0
C2755 C 0.08672 0.36106 0.38417 0.0
C2756 C 0.09159 0.36521 0.36731 0.0
C2757 C 0.0801 0.35797 0.35373 0.0
C2758 C 0.06491 0.34495 0.4051 0.0
C2759 C 0.10891 0.37756 0.36365 0.0
C2760 C 0.11812 0.39969 0.42381 0.0
C2761 C 0.12756 0.38808 0.43224 0.0
C2762 C 0.1023 0.38846 0.40768 0.0
C2763 C 0.09874 0.36897 0.39844 0.0
C2764 C 0.1114 0.3605 0.40392 0.0
C2765 C 0.12756 0.3708 0.41989 0.0
C2766 C 0.09225 0.39546 0.40169 0.0
C2767 C 0.10845 0.34483 0.39518 0.0
H2768 H 0.04649 0.33403 0.37575 0.0
H2769 H 0.08393 0.36132 0.34084 0.0
H2770 H 0.07199 0.33995 0.41121 0.0
H2771 H 0.06724 0.3561 0.41284 0.0
H2772 H 0.05184 0.33558 0.40534 0.0
H2773 H 0.11074 0.37952 0.34979 0.0
H2774 H 0.11259 0.38961 0.37036 0.0
H2775 H 0.11702 0.37327 0.36857 0.0
H2776 H 0.11952 0.41064 0.43045 0.0
H2777 H 0.13445 0.36526 0.42423 0.0
H2778 H 0.07933 0.38646 0.40359 0.0
H2779 H 0.09368 0.39738 0.38781 0.0
H2780 H 0.09589 0.40734 0.40873 0.0
H2781 H 0.09546 0.33534 0.39568 0.0
H2782 H 0.11605 0.34043 0.40127 0.0
H2783 H 0.11133 0.34698 0.38155 0.0
C2784 C 0.03438 0.28332 0.31093 0.0
C2785 C 0.03001 0.29371 0.30289 0.0
C2786 C 0.04231 0.27645 0.30198 0.0
C2787 C 0.04549 0.27976 0.28455 0.0
C2788 C 0.04047 0.28971 0.27627 0.0
C2789 C 0.03299 0.29673 0.28561 0.0
C2790 C 0.04782 0.2662 0.31128 0.0
C2791 C 0.0433 0.29324 0.2576 0.0
C2792 C 0.08011 0.28016 0.26207 0.0
C2793 C 0.07217 0.26519 0.25226 0.0
C2794 C 0.07174 0.28442 0.27366 0.0
C2795 C 0.05491 0.27378 0.27503 0.0
C2796 C 0.04689 0.25845 0.26559 0.0
C2797 C 0.05567 0.25426 0.25445 0.0
C2798 C 0.08078 0.30075 0.28375 0.0
C2799 C 0.02888 0.24697 0.26638 0.0
H2800 H 0.03211 0.28105 0.32433 0.0
H2801 H 0.02943 0.30461 0.27934 0.0
H2802 H 0.04336 0.25411 0.30431 0.0
H2803 H 0.06122 0.27263 0.3118 0.0
H2804 H 0.04357 0.26396 0.32452 0.0
H2805 H 0.03746 0.30006 0.25279 0.0
H2806 H 0.05646 0.30073 0.25564 0.0
H2807 H 0.03855 0.28152 0.24981 0.0
H2808 H 0.09279 0.28884 0.26042 0.0
H2809 H 0.04948 0.24277 0.2468 0.0
H2810 H 0.07755 0.29913 0.29733 0.0
H2811 H 0.07732 0.30949 0.27865 0.0
H2812 H 0.0941 0.30643 0.28311 0.0
H2813 H 0.02524 0.24501 0.27981 0.0
H2814 H 0.0248 0.23477 0.25978 0.0
H2815 H 0.02247 0.25267 0.26023 0.0
C2816 C 0.69165 0.7218 0.29014 0.0
C2817 C 0.69538 0.72172 0.30748 0.0
C2818 C 0.69713 0.73665 0.28197 0.0
C2819 C 0.70617 0.75186 0.29149 0.0
C2820 C 0.70959 0.75188 0.30915 0.0
C2821 C 0.70437 0.73677 0.31691 0.0
C2822 C 0.69356 0.73605 0.26302 0.0
C2823 C 0.71877 0.76784 0.31981 0.0
C2824 C 0.73251 0.78837 0.26497 0.0
C2825 C 0.72222 0.79455 0.26132 0.0
C2826 C 0.72772 0.7749 0.27537 0.0
C2827 C 0.71237 0.76762 0.28264 0.0
C2828 C 0.70226 0.77435 0.2798 0.0
C2829 C 0.70715 0.78752 0.26891 0.0
C2830 C 0.73869 0.76784 0.27769 0.0
C2831 C 0.68597 0.76718 0.28766 0.0
H2832 H 0.68481 0.71018 0.28278 0.0
H2833 H 0.70717 0.73671 0.33035 0.0
H2834 H 0.68651 0.74224 0.26052 0.0
H2835 H 0.70503 0.74284 0.25631 0.0
H2836 H 0.68663 0.7232 0.25744 0.0
H2837 H 0.71959 0.7657 0.33354 0.0
H2838 H 0.73119 0.7753 0.31523 0.0
H2839 H 0.71278 0.77527 0.31844 0.0
H2840 H 0.74408 0.79366 0.25901 0.0
H2841 H 0.69899 0.79202 0.26608 0.0
H2842 H 0.73294 0.7553 0.27136 0.0
H2843 H 0.74054 0.76653 0.29141 0.0
H2844 H 0.75068 0.77563 0.27219 0.0
H2845 H 0.67748 0.75496 0.28132 0.0
H2846 H 0.68069 0.77528 0.28634 0.0
H2847 H 0.68697 0.76523 0.3014 0.0
C2848 C 0.2633 0.95828 0.34653 0.0
C2849 C 0.28007 0.9685 0.34538 0.0
C2850 C 0.25285 0.95406 0.33207 0.0
C2851 C 0.2593 0.96042 0.31616 0.0
C2852 C 0.27615 0.9712 0.31504 0.0
C2853 C 0.28634 0.975 0.32962 0.0
C2854 C 0.23496 0.94236 0.33371 0.0
C2855 C 0.28346 0.97848 0.29836 0.0
C2856 C 0.23636 0.93702 0.27513 0.0
C2857 C 0.22865 0.94574 0.27039 0.0
C2858 C 0.24606 0.94146 0.29019 0.0
C2859 C 0.24854 0.95526 0.30051 0.0
C2860 C 0.24105 0.9643 0.29565 0.0
C2861 C 0.23117 0.95941 0.28067 0.0
C2862 C 0.25376 0.93144 0.29499 0.0
C2863 C 0.24367 0.97928 0.30613 0.0
H2864 H 0.25837 0.95314 0.35864 0.0
H2865 H 0.29927 0.98302 0.32865 0.0
H2866 H 0.22799 0.94803 0.32896 0.0
H2867 H 0.23108 0.9309 0.32572 0.0
H2868 H 0.2318 0.93894 0.3471 0.0
H2869 H 0.29663 0.98748 0.29987 0.0
H2870 H 0.28157 0.96846 0.28904 0.0
H2871 H 0.27738 0.98479 0.29284 0.0
H2872 H 0.23482 0.9267 0.26705 0.0
H2873 H 0.22552 0.96638 0.27684 0.0
H2874 H 0.25042 0.92693 0.30803 0.0
H2875 H 0.26712 0.93932 0.29517 0.0
H2876 H 0.25005 0.92063 0.28599 0.0
H2877 H 0.23986 0.97587 0.31935 0.0
H2878 H 0.23687 0.98489 0.30067 0.0
H2879 H 0.25673 0.98875 0.30694 0.0
C2880 C 0.69682 0.96494 0.32965 0.0
C2881 C 0.69 0.97511 0.32953 0.0
C2882 C 0.70252 0.96144 0.31466 0.0
C2883 C 0.7018 0.96866 0.29933 0.0
C2884 C 0.69523 0.97921 0.29924 0.0
C2885 C 0.6892 0.98212 0.31428 0.0
C2886 C 0.70904 0.94978 0.31515 0.0
C2887 C 0.69459 0.98747 0.28326 0.0
C2888 C 0.72923 0.97253 0.26333 0.0
C2889 C 0.71822 0.96056 0.25124 0.0
C2890 C 0.72412 0.97515 0.27916 0.0
C2891 C 0.70773 0.96514 0.28326 0.0
C2892 C 0.6968 0.95234 0.27155 0.0
C2893 C 0.70215 0.9503 0.25563 0.0
C2894 C 0.73611 0.98904 0.2912 0.0
C2895 C 0.67935 0.94107 0.27565 0.0
H2896 H 0.69732 0.9594 0.3414 0.0
H2897 H 0.68407 0.9901 0.31417 0.0
H2898 H 0.70187 0.93907 0.30604 0.0
H2899 H 0.72171 0.95608 0.31109 0.0
H2900 H 0.70868 0.94512 0.32807 0.0
H2901 H 0.68974 0.99587 0.28552 0.0
H2902 H 0.70688 0.99471 0.27827 0.0
H2903 H 0.68687 0.97798 0.27321 0.0
H2904 H 0.74178 0.98017 0.26024 0.0
H2905 H 0.69368 0.94079 0.2465 0.0
H2906 H 0.73643 0.98429 0.30388 0.0
H2907 H 0.73228 0.99832 0.2931 0.0
H2908 H 0.74852 0.99533 0.28635 0.0
H2909 H 0.6786 0.93577 0.28828 0.0
H2910 H 0.67282 0.93079 0.2659 0.0
H2911 H 0.67307 0.94826 0.27642 0.0
C2912 C 0.03222 0.74816 0.30917 0.0
C2913 C 0.03904 0.738 0.30854 0.0
C2914 C 0.03748 0.76158 0.29861 0.0
C2915 C 0.05016 0.76518 0.28747 0.0
C2916 C 0.05798 0.75579 0.2878 0.0
C2917 C 0.05217 0.74215 0.29817 0.0
C2918 C 0.02863 0.77109 0.29848 0.0
C2919 C 0.07189 0.7596 0.27653 0.0
C2920 C 0.04772 0.78388 0.24619 0.0
C2921 C 0.05782 0.80083 0.25007 0.0
C2922 C 0.04547 0.77215 0.2581 0.0
C2923 C 0.05385 0.77746 0.2742 0.0
C2924 C 0.0647 0.79451 0.27793 0.0
C2925 C 0.06634 0.80603 0.26594 0.0
C2926 C 0.03354 0.75412 0.25371 0.0
C2927 C 0.0742 0.8006 0.29475 0.0
H2928 H 0.02204 0.74502 0.31712 0.0
H2929 H 0.05759 0.73445 0.29774 0.0
H2930 H 0.0373 0.78456 0.29999 0.0
H2931 H 0.02199 0.76876 0.286 0.0
H2932 H 0.01983 0.76752 0.30875 0.0
H2933 H 0.07831 0.75303 0.28031 0.0
H2934 H 0.06729 0.75577 0.26311 0.0
H2935 H 0.08067 0.77308 0.27699 0.0
H2936 H 0.04108 0.77984 0.23398 0.0
H2937 H 0.07412 0.8191 0.26915 0.0
H2938 H 0.02355 0.74946 0.26271 0.0
H2939 H 0.0395 0.74668 0.25508 0.0
H2940 H 0.02827 0.75202 0.2405 0.0
H2941 H 0.06594 0.79906 0.30512 0.0
H2942 H 0.08374 0.81385 0.29473 0.0
H2943 H 0.07996 0.79322 0.29779 0.0
C2944 C 0.29041 0.31674 0.31222 0.0
C2945 C 0.28198 0.31609 0.32684 0.0
C2946 C 0.28229 0.31056 0.29628 0.0
C2947 C 0.26535 0.30388 0.29481 0.0
C2948 C 0.25676 0.30322 0.30951 0.0
C2949 C 0.26516 0.30916 0.32541 0.0
C2950 C 0.29187 0.31119 0.28099 0.0
C2951 C 0.23875 0.29652 0.30838 0.0
C2952 C 0.24972 0.30355 0.24984 0.0
C2953 C 0.24399 0.28717 0.24402 0.0
C2954 C 0.256 0.30896 0.26663 0.0
C2955 C 0.2568 0.29779 0.27778 0.0
C2956 C 0.25045 0.28107 0.27219 0.0
C2957 C 0.24389 0.27591 0.25546 0.0
C2958 C 0.26226 0.32678 0.27224 0.0
C2959 C 0.25124 0.26882 0.28361 0.0
H2960 H 0.3034 0.32195 0.31327 0.0
H2961 H 0.2586 0.30873 0.33665 0.0
H2962 H 0.28684 0.29861 0.27493 0.0
H2963 H 0.2909 0.31905 0.27131 0.0
H2964 H 0.30487 0.31617 0.28441 0.0
H2965 H 0.23385 0.29685 0.32099 0.0
H2966 H 0.23598 0.30386 0.29954 0.0
H2967 H 0.23238 0.28358 0.30307 0.0
H2968 H 0.24958 0.31223 0.24115 0.0
H2969 H 0.23913 0.26314 0.25114 0.0
H2970 H 0.27559 0.33328 0.27425 0.0
H2971 H 0.25716 0.32752 0.28457 0.0
H2972 H 0.25923 0.33341 0.26268 0.0
H2973 H 0.26407 0.27263 0.28649 0.0
H2974 H 0.24498 0.25609 0.27767 0.0
H2975 H 0.24573 0.26864 0.29594 0.0
C2976 C 0.30821 0.38527 0.38636 0.0
C2977 C 0.30196 0.36815 0.38556 0.0
C2978 C 0.30187 0.39248 0.39731 0.0
C2979 C 0.28866 0.38226 0.40733 0.0
C2980 C 0.28158 0.36487 0.40567 0.0
C2981 C 0.28848 0.35801 0.39498 0.0
C2982 C 0.31001 0.41109 0.39895 0.0
C2983 C 0.26715 0.35354 0.41572 0.0
C2984 C 0.28671 0.40188 0.44948 0.0
C2985 C 0.27609 0.40752 0.44532 0.0
C2986 C 0.29058 0.3933 0.43734 0.0
C2987 C 0.28338 0.38992 0.42067 0.0
C2988 C 0.27209 0.39492 0.41656 0.0
C2989 C 0.26878 0.40393 0.42883 0.0
C2990 C 0.30294 0.38849 0.44216 0.0
C2991 C 0.26386 0.39118 0.39905 0.0
H2992 H 0.31869 0.39316 0.37917 0.0
H2993 H 0.28352 0.34476 0.39427 0.0
H2994 H 0.301 0.41507 0.39713 0.0
H2995 H 0.31559 0.41548 0.412 0.0
H2996 H 0.31957 0.41722 0.38958 0.0
H2997 H 0.2617 0.3404 0.4112 0.0
H2998 H 0.2709 0.35465 0.42939 0.0
H2999 H 0.25778 0.35715 0.41482 0.0
H3000 H 0.29245 0.40475 0.46215 0.0
H3001 H 0.26067 0.40834 0.4254 0.0
H3002 H 0.31358 0.39488 0.43411 0.0
H3003 H 0.2978 0.37501 0.43978 0.0
H3004 H 0.30715 0.39171 0.45578 0.0
H3005 H 0.2728 0.3986 0.38957 0.0
H3006 H 0.25393 0.39402 0.39856 0.0
H3007 H 0.25883 0.37796 0.39515 0.0
C3008 C 0.63434 0.92973 0.38062 0.0
C3009 C 0.6438 0.94592 0.38755 0.0
C3010 C 0.62834 0.91618 0.39114 0.0
C3011 C 0.63135 0.91901 0.40902 0.0
C3012 C 0.64129 0.93533 0.41599 0.0
C3013 C 0.64763 0.94856 0.40512 0.0
C3014 C 0.61833 0.89892 0.38318 0.0
C3015 C 0.6445 0.93893 0.43501 0.0
C3016 C 0.60085 0.88884 0.43884 0.0
C3017 C 0.60943 0.88188 0.44614 0.0
C3018 C 0.60773 0.90069 0.42646 0.0
C3019 C 0.62324 0.90517 0.42066 0.0
C3020 C 0.6314 0.89727 0.42697 0.0
C3021 C 0.62445 0.88583 0.43971 0.0
C3022 C 0.59868 0.90894 0.42014 0.0
C3023 C 0.64769 0.90127 0.42065 0.0
H3024 H 0.63146 0.92767 0.36701 0.0
H3025 H 0.65483 0.96109 0.41052 0.0
H3026 H 0.62226 0.89063 0.38853 0.0
H3027 H 0.60546 0.89383 0.38616 0.0
H3028 H 0.61919 0.89867 0.36909 0.0
H3029 H 0.65284 0.95226 0.43833 0.0
H3030 H 0.63292 0.93497 0.44132 0.0
H3031 H 0.64978 0.9318 0.44036 0.0
H3032 H 0.58898 0.88552 0.44312 0.0
H3033 H 0.63094 0.88017 0.44492 0.0
H3034 H 0.59708 0.90749 0.40604 0.0
H3035 H 0.60579 0.9224 0.42354 0.0
H3036 H 0.58658 0.90381 0.42564 0.0
H3037 H 0.64743 0.90082 0.4065 0.0
H3038 H 0.65148 0.8926 0.42526 0.0
H3039 H 0.65696 0.914 0.42514 0.0
C3040 C 0.07532 0.71308 0.3681 0.0
C3041 C 0.05867 0.70741 0.36692 0.0
C3042 C 0.08333 0.71502 0.38392 0.0
C3043 C 0.0745 0.71116 0.39897 0.0
C3044 C 0.05773 0.7055 0.39793 0.0
C3045 C 0.05002 0.70372 0.38193 0.0
C3046 C 0.10125 0.72116 0.38452 0.0
C3047 C 0.0479 0.70121 0.41371 0.0
C3048 C 0.09192 0.70144 0.4379 0.0
C3049 C 0.09786 0.71604 0.44819 0.0
C3050 C 0.0841 0.69962 0.42197 0.0
C3051 C 0.08279 0.71293 0.41581 0.0
C3052 C 0.08941 0.72794 0.42574 0.0
C3053 C 0.09679 0.72928 0.44181 0.0
C3054 C 0.07711 0.68337 0.41179 0.0
C3055 C 0.08866 0.74259 0.41941 0.0
H3056 H 0.08215 0.71598 0.35662 0.0
H3057 H 0.03717 0.69932 0.3812 0.0
H3058 H 0.10775 0.73253 0.39293 0.0
H3059 H 0.10356 0.71176 0.39002 0.0
H3060 H 0.10642 0.72391 0.37168 0.0
H3061 H 0.03498 0.69699 0.41074 0.0
H3062 H 0.04864 0.69129 0.42027 0.0
H3063 H 0.05291 0.71212 0.42278 0.0
H3064 H 0.09313 0.69129 0.4423 0.0
H3065 H 0.10171 0.74072 0.44946 0.0
H3066 H 0.0828 0.68534 0.39926 0.0
H3067 H 0.06396 0.67819 0.40921 0.0
H3068 H 0.07888 0.67412 0.4185 0.0
H3069 H 0.09438 0.74602 0.4069 0.0
H3070 H 0.09483 0.75355 0.42845 0.0
H3071 H 0.07587 0.7393 0.41742 0.0
C3072 C 0.32483 0.03474 0.71263 0.0
C3073 C 0.3208 0.03824 0.69661 0.0
C3074 C 0.32009 0.03922 0.72774 0.0
C3075 C 0.31134 0.04764 0.72684 0.0
C3076 C 0.30719 0.05117 0.71072 0.0
C3077 C 0.31185 0.04631 0.69581 0.0
C3078 C 0.3245 0.03499 0.74467 0.0
C3079 C 0.29804 0.06031 0.70923 0.0
C3080 C 0.28692 0.0479 0.76426 0.0
C3081 C 0.29736 0.06338 0.77242 0.0
C3082 C 0.2914 0.04252 0.74958 0.0
C3083 C 0.30664 0.05294 0.74274 0.0
C3084 C 0.31733 0.06851 0.75099 0.0
C3085 C 0.31267 0.07345 0.76586 0.0
C3086 C 0.27981 0.02568 0.74137 0.0
C3087 C 0.33362 0.08005 0.74399 0.0
H3088 H 0.33167 0.02843 0.71337 0.0
H3089 H 0.30878 0.04917 0.68351 0.0
H3090 H 0.33242 0.04647 0.75252 0.0
H3091 H 0.31344 0.02758 0.75186 0.0
H3092 H 0.33087 0.02791 0.74316 0.0
H3093 H 0.29577 0.06212 0.69575 0.0
H3094 H 0.28626 0.05343 0.71537 0.0
H3095 H 0.30498 0.07261 0.71605 0.0
H3096 H 0.27521 0.03997 0.76945 0.0
H3097 H 0.32098 0.08528 0.77224 0.0
H3098 H 0.28576 0.01818 0.74043 0.0
H3099 H 0.27632 0.02699 0.7282 0.0
H3100 H 0.26865 0.01885 0.74862 0.0
H3101 H 0.34098 0.07397 0.74348 0.0
H3102 H 0.34044 0.09181 0.75179 0.0
H3103 H 0.33204 0.08296 0.73074 0.0
C3104 C 0.97525 0.25783 0.7216 0.0
C3105 C 0.96981 0.26914 0.72336 0.0
C3106 C 0.96868 0.24356 0.73107 0.0
C3107 C 0.95623 0.24041 0.74238 0.0
C3108 C 0.95016 0.25136 0.74358 0.0
C3109 C 0.95713 0.26567 0.73419 0.0
C3110 C 0.97559 0.23226 0.72959 0.0
C3111 C 0.9367 0.24831 0.75527 0.0
C3112 C 0.93185 0.19766 0.7599 0.0
C3113 C 0.9391 0.20008 0.77628 0.0
C3114 C 0.9373 0.21062 0.74867 0.0
C3115 C 0.95039 0.2264 0.7539 0.0
C3116 C 0.9577 0.22901 0.77043 0.0
C3117 C 0.95176 0.21596 0.78153 0.0
C3118 C 0.92889 0.20751 0.73133 0.0
C3119 C 0.97177 0.24566 0.77644 0.0
H3120 H 0.98507 0.26043 0.7133 0.0
H3121 H 0.95284 0.27428 0.73567 0.0
H3122 H 0.9817 0.23265 0.7419 0.0
H3123 H 0.96578 0.2193 0.72688 0.0
H3124 H 0.98446 0.23582 0.71939 0.0
H3125 H 0.9322 0.257 0.75336 0.0
H3126 H 0.92643 0.23547 0.75314 0.0
H3127 H 0.94109 0.24974 0.76875 0.0
H3128 H 0.92175 0.18559 0.75595 0.0
H3129 H 0.95715 0.2183 0.79429 0.0
H3130 H 0.93769 0.21048 0.72118 0.0
H3131 H 0.92377 0.21573 0.73003 0.0
H3132 H 0.91897 0.19448 0.72915 0.0
H3133 H 0.98164 0.24979 0.76734 0.0
H3134 H 0.97667 0.24542 0.78932 0.0
H3135 H 0.96793 0.255 0.77687 0.0
C3136 C 0.73717 0.68696 0.69316 0.0
C3137 C 0.72029 0.67894 0.69408 0.0
C3138 C 0.74728 0.69314 0.70793 0.0
C3139 C 0.74037 0.69147 0.72403 0.0
C3140 C 0.72336 0.68352 0.72508 0.0
C3141 C 0.71351 0.67723 0.71009 0.0
C3142 C 0.76536 0.70135 0.70631 0.0
C3143 C 0.7156 0.68174 0.74203 0.0
C3144 C 0.76632 0.69433 0.76264 0.0
C3145 C 0.7733 0.71105 0.76798 0.0
C3146 C 0.75541 0.68774 0.74848 0.0
C3147 C 0.75105 0.69798 0.73974 0.0
C3148 C 0.75749 0.71466 0.74553 0.0
C3149 C 0.76855 0.72099 0.75958 0.0
C3150 C 0.74884 0.66991 0.74264 0.0
C3151 C 0.75291 0.72588 0.7367 0.0
H3152 H 0.74252 0.68824 0.68086 0.0
H3153 H 0.70049 0.67113 0.7109 0.0
H3154 H 0.77133 0.71427 0.71163 0.0
H3155 H 0.77014 0.69479 0.71381 0.0
H3156 H 0.76879 0.70149 0.69286 0.0
H3157 H 0.70221 0.67546 0.74064 0.0
H3158 H 0.71887 0.67455 0.75053 0.0
H3159 H 0.72021 0.6941 0.74845 0.0
H3160 H 0.76959 0.68646 0.76938 0.0
H3161 H 0.77363 0.73379 0.76395 0.0
H3162 H 0.75266 0.6693 0.72952 0.0
H3163 H 0.73544 0.66314 0.74219 0.0
H3164 H 0.75309 0.66349 0.75113 0.0
H3165 H 0.75713 0.7276 0.72346 0.0
H3166 H 0.75823 0.73822 0.74342 0.0
H3167 H 0.73957 0.72018 0.73585 0.0
C3168 C 0.70182 0.61803 0.64171 0.0
C3169 C 0.69953 0.63075 0.636 0.0
C3170 C 0.71074 0.61263 0.63232 0.0
C3171 C 0.71727 0.61997 0.61677 0.0
C3172 C 0.71527 0.63304 0.61115 0.0
C3173 C 0.70651 0.63833 0.62088 0.0
C3174 C 0.71288 0.59885 0.63884 0.0
C3175 C 0.72196 0.64111 0.59457 0.0
C3176 C 0.75053 0.61652 0.59523 0.0
C3177 C 0.74179 0.60451 0.58202 0.0
C3178 C 0.74265 0.62114 0.60714 0.0
C3179 C 0.72563 0.61363 0.60587 0.0
C3180 C 0.71665 0.60083 0.59333 0.0
C3181 C 0.72481 0.59616 0.58185 0.0
C3182 C 0.75258 0.63447 0.62073 0.0
C3183 C 0.69846 0.59254 0.59155 0.0
H3184 H 0.69651 0.61219 0.65343 0.0
H3185 H 0.70472 0.6481 0.61634 0.0
H3186 H 0.70632 0.58773 0.6301 0.0
H3187 H 0.72584 0.6025 0.6391 0.0
H3188 H 0.70829 0.59547 0.65184 0.0
H3189 H 0.71968 0.6514 0.59224 0.0
H3190 H 0.73518 0.64602 0.5946 0.0
H3191 H 0.71636 0.63179 0.58377 0.0
H3192 H 0.76359 0.62257 0.59619 0.0
H3193 H 0.7178 0.58623 0.57244 0.0
H3194 H 0.74763 0.63039 0.63346 0.0
H3195 H 0.75198 0.64572 0.61822 0.0
H3196 H 0.76548 0.63782 0.62115 0.0
H3197 H 0.69298 0.58751 0.60385 0.0
H3198 H 0.6932 0.58233 0.58158 0.0
H3199 H 0.69499 0.60177 0.58818 0.0
C3200 C 0.35554 0.06552 0.62437 0.0
C3201 C 0.36349 0.06687 0.64007 0.0
C3202 C 0.35943 0.07959 0.61518 0.0
C3203 C 0.37141 0.09533 0.62194 0.0
C3204 C 0.37896 0.09686 0.63809 0.0
C3205 C 0.375 0.0826 0.64694 0.0
C3206 C 0.35116 0.07756 0.59798 0.0
C3207 C 0.39153 0.11353 0.64585 0.0
C3208 C 0.40298 0.1348 0.58759 0.0
C3209 C 0.39012 0.14439 0.5864 0.0
C3210 C 0.39468 0.11627 0.59934 0.0
C3211 C 0.37697 0.11002 0.6117 0.0
C3212 C 0.36754 0.12246 0.61383 0.0
C3213 C 0.37493 0.14124 0.60253 0.0
C3214 C 0.40244 0.10595 0.59875 0.0
C3215 C 0.35365 0.11726 0.62513 0.0
H3216 H 0.34665 0.05342 0.61896 0.0
H3217 H 0.3811 0.08377 0.65913 0.0
H3218 H 0.34597 0.08579 0.59755 0.0
H3219 H 0.36019 0.08128 0.58794 0.0
H3220 H 0.34135 0.06463 0.59499 0.0
H3221 H 0.39534 0.11276 0.6591 0.0
H3222 H 0.40234 0.11894 0.63795 0.0
H3223 H 0.38673 0.1221 0.64597 0.0
H3224 H 0.41266 0.13788 0.57897 0.0
H3225 H 0.36872 0.14818 0.60266 0.0
H3226 H 0.39321 0.09302 0.59481 0.0
H3227 H 0.40722 0.10584 0.6117 0.0
H3228 H 0.41241 0.11087 0.58973 0.0
H3229 H 0.34374 0.10479 0.62074 0.0
H3230 H 0.34931 0.12621 0.62501 0.0
H3231 H 0.35746 0.11638 0.63831 0.0
C3232 C 0.95399 0.29637 0.64818 0.0
C3233 C 0.94612 0.29054 0.66347 0.0
C3234 C 0.9452 0.29224 0.63249 0.0
C3235 C 0.92818 0.28188 0.63207 0.0
C3236 C 0.92021 0.27571 0.64741 0.0
C3237 C 0.92926 0.28017 0.66291 0.0
C3238 C 0.95409 0.29917 0.61639 0.0
C3239 C 0.90209 0.26449 0.64747 0.0
C3240 C 0.90191 0.28277 0.59577 0.0
C3241 C 0.89813 0.26838 0.58606 0.0
C3242 C 0.91205 0.28756 0.61052 0.0
C3243 C 0.91856 0.27771 0.6157 0.0
C3244 C 0.91522 0.26345 0.60566 0.0
C3245 C 0.90521 0.25907 0.59083 0.0
C3246 C 0.91555 0.303 0.62074 0.0
C3247 C 0.9219 0.25261 0.6108 0.0
H3248 H 0.96701 0.30443 0.64849 0.0
H3249 H 0.92307 0.2755 0.67462 0.0
H3250 H 0.95144 0.28899 0.60694 0.0
H3251 H 0.94984 0.30699 0.61052 0.0
H3252 H 0.96738 0.30673 0.61883 0.0
H3253 H 0.89781 0.26031 0.66041 0.0
H3254 H 0.896 0.27103 0.6426 0.0
H3255 H 0.89827 0.25345 0.63882 0.0
H3256 H 0.89679 0.29021 0.59185 0.0
H3257 H 0.90271 0.24819 0.58312 0.0
H3258 H 0.92879 0.31139 0.62268 0.0
H3259 H 0.91046 0.2997 0.63354 0.0
H3260 H 0.91033 0.30981 0.61443 0.0
H3261 H 0.93526 0.26004 0.61241 0.0
H3262 H 0.91862 0.24227 0.60129 0.0
H3263 H 0.9172 0.24735 0.62329 0.0
C3264 C 0.33987 0.29989 0.63819 0.0
C3265 C 0.34973 0.30719 0.653 0.0
C3266 C 0.34601 0.29657 0.62344 0.0
C3267 C 0.36251 0.30109 0.62338 0.0
C3268 C 0.37258 0.30877 0.63821 0.0
C3269 C 0.36602 0.31152 0.65291 0.0
C3270 C 0.33479 0.288 0.60802 0.0
C3271 C 0.39032 0.31412 0.63853 0.0
C3272 C 0.37666 0.28041 0.59125 0.0
C3273 C 0.38339 0.29231 0.57883 0.0
C3274 C 0.36969 0.28302 0.6057 0.0
C3275 C 0.36929 0.29784 0.60782 0.0
C3276 C 0.37552 0.30965 0.59514 0.0
C3277 C 0.38218 0.30661 0.58069 0.0
C3278 C 0.3628 0.26993 0.61875 0.0
C3279 C 0.37532 0.32563 0.59693 0.0
H3280 H 0.32722 0.29636 0.63827 0.0
H3281 H 0.3737 0.31727 0.66431 0.0
H3282 H 0.33924 0.29589 0.59689 0.0
H3283 H 0.33458 0.27633 0.60462 0.0
H3284 H 0.32223 0.28509 0.61022 0.0
H3285 H 0.39661 0.32039 0.6509 0.0
H3286 H 0.39177 0.30323 0.63617 0.0
H3287 H 0.39635 0.32269 0.62817 0.0
H3288 H 0.37681 0.26897 0.58972 0.0
H3289 H 0.38652 0.31559 0.57094 0.0
H3290 H 0.34996 0.26608 0.62067 0.0
H3291 H 0.36945 0.27505 0.63123 0.0
H3292 H 0.36353 0.25883 0.61494 0.0
H3293 H 0.36271 0.32299 0.59784 0.0
H3294 H 0.38083 0.33365 0.58604 0.0
H3295 H 0.38202 0.33258 0.60888 0.0
C3296 C 0.70281 0.07356 0.6307 0.0
C3297 C 0.70669 0.06108 0.62849 0.0
C3298 C 0.70794 0.08632 0.61934 0.0
C3299 C 0.71763 0.08694 0.60571 0.0
C3300 C 0.72281 0.07524 0.60431 0.0
C3301 C 0.71705 0.06225 0.61557 0.0
C3302 C 0.7019 0.09835 0.62118 0.0
C3303 C 0.73373 0.07592 0.59039 0.0
C3304 C 0.71073 0.10489 0.56605 0.0
C3305 C 0.72244 0.12169 0.56849 0.0
C3306 C 0.70938 0.09335 0.57779 0.0
C3307 C 0.72053 0.09856 0.59194 0.0
C3308 C 0.73323 0.11521 0.59374 0.0
C3309 C 0.73386 0.12667 0.5822 0.0
C3310 C 0.69544 0.07579 0.57554 0.0
C3311 C 0.74581 0.12107 0.60819 0.0
H3312 H 0.69484 0.07279 0.64068 0.0
H3313 H 0.72024 0.05275 0.6139 0.0
H3314 H 0.71214 0.11125 0.62138 0.0
H3315 H 0.69378 0.09662 0.61003 0.0
H3316 H 0.69514 0.09669 0.63298 0.0
H3317 H 0.73932 0.06832 0.59316 0.0
H3318 H 0.72662 0.07116 0.57813 0.0
H3319 H 0.74346 0.08885 0.58871 0.0
H3320 H 0.70215 0.10088 0.55526 0.0
H3321 H 0.7432 0.13952 0.58413 0.0
H3322 H 0.68751 0.07285 0.58656 0.0
H3323 H 0.69999 0.06702 0.57523 0.0
H3324 H 0.68803 0.07367 0.56365 0.0
H3325 H 0.74051 0.1222 0.62022 0.0
H3326 H 0.75651 0.1333 0.60589 0.0
H3327 H 0.74987 0.11202 0.61004 0.0
C3328 C 0.93242 0.65251 0.65775 0.0
C3329 C 0.94877 0.6576 0.66092 0.0
C3330 C 0.92509 0.64676 0.64136 0.0
C3331 C 0.93425 0.64573 0.62795 0.0
C3332 C 0.95075 0.65085 0.63109 0.0
C3333 C 0.95784 0.65689 0.64748 0.0
C3334 C 0.90756 0.64173 0.6384 0.0
C3335 C 0.96085 0.64967 0.61722 0.0
C3336 C 0.91311 0.61582 0.58982 0.0
C3337 C 0.91473 0.62659 0.577 0.0
C3338 C 0.91912 0.62184 0.60655 0.0
C3339 C 0.92659 0.63901 0.61066 0.0
C3340 C 0.92756 0.64985 0.59796 0.0
C3341 C 0.92174 0.64352 0.58125 0.0
C3342 C 0.91802 0.60991 0.61966 0.0
C3343 C 0.93512 0.66818 0.60193 0.0
H3344 H 0.92536 0.65314 0.66806 0.0
H3345 H 0.97045 0.66067 0.64987 0.0
H3346 H 0.90632 0.64867 0.62784 0.0
H3347 H 0.90036 0.62841 0.63449 0.0
H3348 H 0.90234 0.644 0.64996 0.0
H3349 H 0.97349 0.65409 0.62177 0.0
H3350 H 0.95537 0.63665 0.61229 0.0
H3351 H 0.96111 0.65707 0.60635 0.0
H3352 H 0.90751 0.6027 0.58662 0.0
H3353 H 0.92288 0.65186 0.57141 0.0
H3354 H 0.91192 0.61103 0.63105 0.0
H3355 H 0.93036 0.61298 0.62397 0.0
H3356 H 0.91132 0.59687 0.61458 0.0
H3357 H 0.92967 0.67044 0.61328 0.0
H3358 H 0.93364 0.67468 0.59107 0.0
H3359 H 0.94823 0.67366 0.60504 0.0
C3360 C 0.97985 0.72647 0.72065 0.0
C3361 C 0.97164 0.7092 0.72136 0.0
C3362 C 0.97529 0.73601 0.73055 0.0
C3363 C 0.96193 0.72807 0.74113 0.0
C3364 C 0.95288 0.71059 0.74098 0.0
C3365 C 0.95796 0.70134 0.73124 0.0
C3366 C 0.98543 0.75463 0.73054 0.0
C3367 C 0.9383 0.70168 0.75173 0.0
C3368 C 0.96429 0.75277 0.78131 0.0
C3369 C 0.95501 0.75978 0.77645 0.0
C3370 C 0.96627 0.74209 0.77007 0.0
C3371 C 0.95861 0.73814 0.7536 0.0
C3372 C 0.94879 0.74475 0.74876 0.0
C3373 C 0.94731 0.75573 0.76015 0.0
C3374 C 0.97708 0.73554 0.77562 0.0
C3375 C 0.94021 0.74059 0.73142 0.0
H3376 H 0.99045 0.73264 0.71307 0.0
H3377 H 0.95147 0.68801 0.73174 0.0
H3378 H 0.97767 0.76006 0.72822 0.0
H3379 H 0.99167 0.75955 0.74323 0.0
H3380 H 0.9947 0.75885 0.7207 0.0
H3381 H 0.93127 0.68821 0.74834 0.0
H3382 H 0.94228 0.70341 0.7654 0.0
H3383 H 0.93024 0.70689 0.75024 0.0
H3384 H 0.97041 0.75608 0.7938 0.0
H3385 H 0.94031 0.76129 0.75621 0.0
H3386 H 0.9875 0.74004 0.76721 0.0
H3387 H 0.97039 0.72184 0.7744 0.0
H3388 H 0.98179 0.73944 0.78903 0.0
H3389 H 0.94921 0.74618 0.72143 0.0
H3390 H 0.93161 0.74521 0.73036 0.0
H3391 H 0.9335 0.72702 0.72872 0.0
C3392 C 0.31062 0.27163 0.71734 0.0
C3393 C 0.29993 0.27422 0.70725 0.0
C3394 C 0.30487 0.25794 0.72763 0.0
C3395 C 0.28801 0.24685 0.72813 0.0
C3396 C 0.27724 0.24901 0.71738 0.0
C3397 C 0.28336 0.26257 0.70691 0.0
C3398 C 0.31677 0.25578 0.73852 0.0
C3399 C 0.25916 0.23763 0.71774 0.0
C3400 C 0.27037 0.2054 0.74877 0.0
C3401 C 0.26715 0.20931 0.76511 0.0
C3402 C 0.27776 0.21762 0.73679 0.0
C3403 C 0.2815 0.23399 0.74105 0.0
C3404 C 0.27833 0.23799 0.75751 0.0
C3405 C 0.27133 0.22564 0.76936 0.0
C3406 C 0.28127 0.21297 0.71949 0.0
C3407 C 0.28187 0.25522 0.76247 0.0
H3408 H 0.32345 0.28049 0.71751 0.0
H3409 H 0.27504 0.26456 0.69919 0.0
H3410 H 0.31572 0.25855 0.75212 0.0
H3411 H 0.31405 0.2428 0.73737 0.0
H3412 H 0.32945 0.26407 0.73496 0.0
H3413 H 0.25252 0.24031 0.70776 0.0
H3414 H 0.256 0.22456 0.71591 0.0
H3415 H 0.25492 0.23901 0.7304 0.0
H3416 H 0.26699 0.19277 0.74525 0.0
H3417 H 0.26868 0.22864 0.78188 0.0
H3418 H 0.29402 0.22159 0.71648 0.0
H3419 H 0.27351 0.21403 0.70952 0.0
H3420 H 0.27906 0.20014 0.71875 0.0
H3421 H 0.29485 0.26428 0.76102 0.0
H3422 H 0.27879 0.25632 0.77583 0.0
H3423 H 0.27484 0.25868 0.75384 0.0
C3424 C 0.7177 0.02705 0.7023 0.0
C3425 C 0.72522 0.0295 0.68664 0.0
C3426 C 0.72645 0.0299 0.71781 0.0
C3427 C 0.74319 0.03546 0.71773 0.0
C3428 C 0.75087 0.03789 0.70199 0.0
C3429 C 0.74178 0.03481 0.68663 0.0
C3430 C 0.71778 0.02701 0.73432 0.0
C3431 C 0.76872 0.04393 0.7014 0.0
C3432 C 0.76688 0.05729 0.75898 0.0
C3433 C 0.76785 0.04462 0.76694 0.0
C3434 C 0.75937 0.05465 0.74272 0.0
C3435 C 0.7526 0.03891 0.73418 0.0
C3436 C 0.75415 0.02627 0.74178 0.0
C3437 C 0.76201 0.02935 0.75792 0.0
C3438 C 0.75834 0.0686 0.73486 0.0
C3439 C 0.74705 0.0093 0.7331 0.0
H3440 H 0.7049 0.02287 0.70248 0.0
H3441 H 0.74773 0.03678 0.67462 0.0
H3442 H 0.71931 0.01798 0.74175 0.0
H3443 H 0.72314 0.03871 0.74224 0.0
H3444 H 0.70465 0.02229 0.73218 0.0
H3445 H 0.77284 0.04503 0.68813 0.0
H3446 H 0.77575 0.05619 0.70826 0.0
H3447 H 0.77157 0.03535 0.70798 0.0
H3448 H 0.77183 0.06926 0.76564 0.0
H3449 H 0.76319 0.01961 0.76354 0.0
H3450 H 0.74552 0.06537 0.73362 0.0
H3451 H 0.76306 0.0705 0.72183 0.0
H3452 H 0.76523 0.08041 0.74258 0.0
H3453 H 0.73372 0.00352 0.7316 0.0
H3454 H 0.74982 0.001 0.74039 0.0
H3455 H 0.75173 0.01026 0.72013 0.0
C3456 C 0.05092 0.328 0.03372 0.0
C3457 C 0.05808 0.34094 0.02247 0.0
C3458 C 0.06041 0.32537 0.04571 0.0
C3459 C 0.07738 0.3359 0.04647 0.0
C3460 C 0.08466 0.3489 0.03516 0.0
C3461 C 0.07494 0.35127 0.0233 0.0
C3462 C 0.05234 0.31141 0.05764 0.0
C3463 C 0.10275 0.3604 0.03563 0.0
C3464 C 0.10769 0.34575 0.09392 0.0
C3465 C 0.11306 0.32963 0.08895 0.0
C3466 C 0.09331 0.34597 0.07897 0.0
C3467 C 0.0876 0.33367 0.05917 0.0
C3468 C 0.0967 0.32159 0.05293 0.0
C3469 C 0.11121 0.32053 0.067 0.0
C3470 C 0.08615 0.3565 0.08295 0.0
C3471 C 0.09246 0.31273 0.03585 0.0
H3472 H 0.03791 0.31994 0.03319 0.0
H3473 H 0.08062 0.3613 0.01471 0.0
H3474 H 0.05732 0.30304 0.05616 0.0
H3475 H 0.055 0.31647 0.07105 0.0
H3476 H 0.03902 0.30409 0.05528 0.0
H3477 H 0.10658 0.36976 0.02577 0.0
H3478 H 0.10692 0.36692 0.04837 0.0
H3479 H 0.10889 0.35316 0.03364 0.0
H3480 H 0.11014 0.35191 0.10642 0.0
H3481 H 0.11591 0.31246 0.06399 0.0
H3482 H 0.07278 0.34886 0.08161 0.0
H3483 H 0.09014 0.36631 0.0736 0.0
H3484 H 0.08992 0.3622 0.09606 0.0
H3485 H 0.07914 0.30459 0.03438 0.0
H3486 H 0.09848 0.30534 0.03436 0.0
H3487 H 0.09625 0.32187 0.02579 0.0
C3488 C 0.69063 0.71821 0.03946 0.0
C3489 C 0.67765 0.70814 0.04956 0.0
C3490 C 0.69834 0.7355 0.04126 0.0
C3491 C 0.69305 0.74288 0.05354 0.0
C3492 C 0.67969 0.73285 0.0634 0.0
C3493 C 0.67212 0.71559 0.06128 0.0
C3494 C 0.71225 0.74589 0.03015 0.0
C3495 C 0.67371 0.74027 0.07663 0.0
C3496 C 0.73167 0.7925 0.07354 0.0
C3497 C 0.72178 0.80367 0.06487 0.0
C3498 C 0.71987 0.77044 0.07025 0.0
C3499 C 0.7019 0.76098 0.05642 0.0
C3500 C 0.69549 0.77298 0.0446 0.0
C3501 C 0.70647 0.79514 0.04677 0.0
C3502 C 0.72488 0.75987 0.07923 0.0
C3503 C 0.68109 0.76444 0.03258 0.0
H3504 H 0.69492 0.71261 0.03024 0.0
H3505 H 0.66212 0.70795 0.06916 0.0
H3506 H 0.70991 0.75478 0.02345 0.0
H3507 H 0.72349 0.75321 0.03821 0.0
H3508 H 0.71428 0.73828 0.0205 0.0
H3509 H 0.66188 0.73095 0.08149 0.0
H3510 H 0.68267 0.7456 0.08755 0.0
H3511 H 0.67245 0.75039 0.07128 0.0
H3512 H 0.74165 0.79826 0.0829 0.0
H3513 H 0.70196 0.80238 0.04088 0.0
H3514 H 0.72828 0.7533 0.0697 0.0
H3515 H 0.7145 0.75039 0.0861 0.0
H3516 H 0.73527 0.76748 0.08831 0.0
H3517 H 0.68306 0.75678 0.02296 0.0
H3518 H 0.67892 0.77355 0.02614 0.0
H3519 H 0.67035 0.756 0.03972 0.0
C3520 C 0.29116 0.96839 0.02919 0.0
C3521 C 0.28765 0.96976 0.01206 0.0
C3522 C 0.27898 0.96226 0.04113 0.0
C3523 C 0.26292 0.95732 0.0358 0.0
C3524 C 0.25928 0.95856 0.01852 0.0
C3525 C 0.27169 0.96479 0.00688 0.0
C3526 C 0.28332 0.96116 0.05945 0.0
C3527 C 0.24228 0.95336 0.01234 0.0
C3528 C 0.22766 0.92786 0.06177 0.0
C3529 C 0.22383 0.93869 0.0704 0.0
C3530 C 0.24064 0.9338 0.05084 0.0
C3531 C 0.24988 0.95096 0.04829 0.0
C3532 C 0.24618 0.96197 0.05709 0.0
C3533 C 0.23316 0.95569 0.06797 0.0
C3534 C 0.24418 0.92167 0.04166 0.0
C3535 C 0.2557 0.98034 0.05463 0.0
H3536 H 0.30346 0.97223 0.03332 0.0
H3537 H 0.26885 0.96577 0.99368 0.0
H3538 H 0.2803 0.96882 0.06793 0.0
H3539 H 0.27612 0.94822 0.06337 0.0
H3540 H 0.29636 0.96538 0.06151 0.0
H3541 H 0.24143 0.95494 0.99845 0.0
H3542 H 0.23397 0.94021 0.01496 0.0
H3543 H 0.23797 0.96076 0.01936 0.0
H3544 H 0.22027 0.91468 0.06332 0.0
H3545 H 0.23003 0.96406 0.07436 0.0
H3546 H 0.25704 0.92532 0.04399 0.0
H3547 H 0.24219 0.92181 0.0277 0.0
H3548 H 0.23643 0.90885 0.04575 0.0
H3549 H 0.26877 0.98515 0.05727 0.0
H3550 H 0.25179 0.98731 0.06305 0.0
H3551 H 0.25421 0.9828 0.04118 0.0
C3552 C 0.32205 0.03846 0.98033 0.0
C3553 C 0.33582 0.03975 0.97296 0.0
C3554 C 0.31455 0.04679 0.97364 0.0
C3555 C 0.32056 0.05593 0.95885 0.0
C3556 C 0.3348 0.05777 0.95181 0.0
C3557 C 0.34251 0.05009 0.95929 0.0
C3558 C 0.2999 0.04531 0.98202 0.0
C3559 C 0.34152 0.06694 0.93573 0.0
C3560 C 0.28325 0.05269 0.92195 0.0
C3561 C 0.28972 0.07497 0.92379 0.0
C3562 C 0.2936 0.04643 0.9366 0.0
C3563 C 0.31105 0.06171 0.94939 0.0
C3564 C 0.31948 0.08369 0.94715 0.0
C3565 C 0.31001 0.09112 0.93272 0.0
C3566 C 0.28811 0.02848 0.93725 0.0
C3567 C 0.33419 0.096 0.95742 0.0
H3568 H 0.3169 0.03062 0.99101 0.0
H3569 H 0.35316 0.05123 0.9535 0.0
H3570 H 0.30018 0.0573 0.98217 0.0
H3571 H 0.28882 0.03604 0.97468 0.0
H3572 H 0.2991 0.0413 0.99532 0.0
H3573 H 0.34976 0.06343 0.92957 0.0
H3574 H 0.33173 0.06457 0.92626 0.0
H3575 H 0.34858 0.0804 0.93899 0.0
H3576 H 0.27216 0.04371 0.91513 0.0
H3577 H 0.31427 0.10418 0.93211 0.0
H3578 H 0.27836 0.02281 0.94646 0.0
H3579 H 0.2982 0.02665 0.94138 0.0
H3580 H 0.28304 0.02224 0.92453 0.0
H3581 H 0.3315 0.10474 0.9644 0.0
H3582 H 0.34402 0.1033 0.94869 0.0
H3583 H 0.33817 0.08987 0.96659 0.0
C3584 C 0.9749 0.28618 0.95404 0.0
C3585 C 0.97704 0.28944 0.97172 0.0
C3586 C 0.96761 0.27001 0.94704 0.0
C3587 C 0.96159 0.25667 0.95802 0.0
C3588 C 0.96368 0.25985 0.97594 0.0
C3589 C 0.97171 0.27632 0.98264 0.0
C3590 C 0.96652 0.26734 0.92786 0.0
C3591 C 0.95715 0.24588 0.98795 0.0
C3592 C 0.92422 0.2126 0.92737 0.0
C3593 C 0.93428 0.20017 0.92988 0.0
C3594 C 0.93366 0.23191 0.93971 0.0
C3595 C 0.95322 0.23963 0.95048 0.0
C3596 C 0.9645 0.22898 0.94846 0.0
C3597 C 0.95598 0.2095 0.93649 0.0
C3598 C 0.92499 0.24134 0.941 0.0
C3599 C 0.98127 0.23656 0.95601 0.0
H3600 H 0.97926 0.2964 0.94562 0.0
H3601 H 0.97342 0.27892 0.99632 0.0
H3602 H 0.9691 0.25743 0.92403 0.0
H3603 H 0.95413 0.26354 0.92304 0.0
H3604 H 0.97508 0.27879 0.92153 0.0
H3605 H 0.95877 0.25035 0.00152 0.0
H3606 H 0.94408 0.23729 0.9849 0.0
H3607 H 0.96341 0.23874 0.98625 0.0
H3608 H 0.91205 0.20727 0.92193 0.0
H3609 H 0.96205 0.20241 0.93622 0.0
H3610 H 0.92478 0.24631 0.92842 0.0
H3611 H 0.9309 0.25163 0.95081 0.0
H3612 H 0.91226 0.23281 0.94416 0.0
H3613 H 0.98704 0.25021 0.95728 0.0
H3614 H 0.98853 0.23301 0.94799 0.0
H3615 H 0.98077 0.23176 0.96885 0.0
C3616 C 0.73306 0.69172 0.01165 0.0
C3617 C 0.71698 0.68055 0.0063 0.0
C3618 C 0.74549 0.6976 1.00008 0.0
C3619 C 0.74178 0.69217 0.98268 0.0
C3620 C 0.72559 0.68088 0.97715 0.0
C3621 C 0.71335 0.6752 0.98904 0.0
C3622 C 0.76261 0.70966 0.00649 0.0
C3623 C 0.72123 0.67482 0.9587 0.0
C3624 C 0.77336 0.72059 0.95265 0.0
C3625 C 0.78273 0.71307 0.9507 0.0
C3626 C 0.75951 0.71348 0.96235 0.0
C3627 C 0.75498 0.69854 0.97039 0.0
C3628 C 0.76406 0.69058 0.968 0.0
C3629 C 0.77791 0.69802 0.95832 0.0
C3630 C 0.75022 0.72242 0.96471 0.0
C3631 C 0.75959 0.67463 0.97635 0.0
H3632 H 0.73599 0.69593 0.02495 0.0
H3633 H 0.70096 0.66657 0.9848 0.0
H3634 H 0.77053 0.70449 0.00378 0.0
H3635 H 0.7674 0.72133 0.9997 0.0
H3636 H 0.76345 0.71263 0.02042 0.0
H3637 H 0.70809 0.66594 0.95648 0.0
H3638 H 0.72474 0.68544 0.9505 0.0
H3639 H 0.72803 0.66873 0.95459 0.0
H3640 H 0.77721 0.73237 0.94705 0.0
H3641 H 0.78529 0.69233 0.95714 0.0
H3642 H 0.75169 0.72706 0.97819 0.0
H3643 H 0.73713 0.71384 0.96194 0.0
H3644 H 0.75442 0.73307 0.95637 0.0
H3645 H 0.76168 0.67695 0.99038 0.0
H3646 H 0.7668 0.66912 0.97175 0.0
H3647 H 0.74657 0.66549 0.97386 0.0
C3648 C 0.96721 0.70887 0.01754 0.0
C3649 C 0.96597 0.694 0.01159 0.0
C3650 C 0.96196 0.71738 0.00732 0.0
C3651 C 0.95517 0.71082 0.99076 0.0
C3652 C 0.95384 0.6958 0.98465 0.0
C3653 C 0.95932 0.68759 0.99512 0.0
C3654 C 0.96373 0.73344 0.01425 0.0
C3655 C 0.94655 0.68839 0.9671 0.0
C3656 C 0.92893 0.72675 0.97245 0.0
C3657 C 0.93971 0.73916 0.96206 0.0
C3658 C 0.93359 0.71697 0.98133 0.0
C3659 C 0.94948 0.71979 0.97995 0.0
C3660 C 0.96027 0.73197 0.9691 0.0
C3661 C 0.9552 0.7414 0.96017 0.0
C3662 C 0.92166 0.70392 0.99257 0.0
C3663 C 0.97735 0.73545 0.9674 0.0
H3664 H 0.97242 0.71397 0.03021 0.0
H3665 H 0.95832 0.6761 0.99045 0.0
H3666 H 0.9711 0.74354 0.00569 0.0
H3667 H 0.95168 0.73237 0.01468 0.0
H3668 H 0.96953 0.73701 0.02728 0.0
H3669 H 0.94644 0.67666 0.96422 0.0
H3670 H 0.93396 0.68592 0.96602 0.0
H3671 H 0.95345 0.69726 0.95727 0.0
H3672 H 0.91688 0.72485 0.97381 0.0
H3673 H 0.96348 0.75082 0.95196 0.0
H3674 H 0.92595 0.70735 0.00613 0.0
H3675 H 0.92077 0.69186 0.98947 0.0
H3676 H 0.90941 0.70237 0.99118 0.0
H3677 H 0.9841 0.74016 0.97988 0.0
H3678 H 0.98394 0.74471 0.95775 0.0
H3679 H 0.97729 0.7239 0.96376 0.0
C3680 C 0.3116 0.28803 0.98328 0.0
C3681 C 0.3252 0.29786 0.9738 0.0
C3682 C 0.30147 0.27115 0.97904 0.0
C3683 C 0.305 0.26384 0.96501 0.0
C3684 C 0.31904 0.27348 0.9558 0.0
C3685 C 0.32899 0.2904 0.9603 0.0
C3686 C 0.28665 0.26129 0.98926 0.0
C3687 C 0.32324 0.26605 0.94084 0.0
C3688 C 0.28291 0.21696 0.96336 0.0
C3689 C 0.26961 0.21294 0.95233 0.0
C3690 C 0.29494 0.23347 0.96703 0.0
C3691 C 0.29351 0.24627 0.95963 0.0
C3692 C 0.28032 0.24227 0.94813 0.0
C3693 C 0.2685 0.22564 0.94465 0.0
C3694 C 0.30882 0.23723 0.97933 0.0
C3695 C 0.27835 0.25557 0.94003 0.0
H3696 H 0.3086 0.29359 0.99382 0.0
H3697 H 0.33946 0.29786 0.95291 0.0
H3698 H 0.2756 0.25676 0.98093 0.0
H3699 H 0.28658 0.25029 0.99416 0.0
H3700 H 0.286 0.26867 0.00024 0.0
H3701 H 0.33517 0.27487 0.93581 0.0
H3702 H 0.32339 0.25482 0.94459 0.0
H3703 H 0.31386 0.26218 0.93042 0.0
H3704 H 0.28372 0.20716 0.96941 0.0
H3705 H 0.25814 0.22256 0.93626 0.0
H3706 H 0.30787 0.24334 0.99122 0.0
H3707 H 0.32051 0.24593 0.97379 0.0
H3708 H 0.30899 0.2259 0.98269 0.0
H3709 H 0.27624 0.26281 0.95004 0.0
H3710 H 0.26807 0.2504 0.93046 0.0
H3711 H 0.28956 0.26428 0.93371 0.0
C3712 C 0.72222 0.03727 0.99605 0.0
C3713 C 0.72198 0.03135 0.01231 0.0
C3714 C 0.73532 0.04154 0.98551 0.0
C3715 C 0.74839 0.03974 0.99137 0.0
C3716 C 0.74817 0.03372 0.00774 0.0
C3717 C 0.73501 0.02965 0.018 0.0
C3718 C 0.7352 0.04799 0.96816 0.0
C3719 C 0.76184 0.03155 0.01443 0.0
C3720 C 0.77705 0.03595 0.96145 0.0
C3721 C 0.79104 0.05151 0.96411 0.0
C3722 C 0.76279 0.03215 0.96965 0.0
C3723 C 0.76249 0.04427 0.9806 0.0
C3724 C 0.7763 0.06028 0.98255 0.0
C3725 C 0.79044 0.06367 0.97436 0.0
C3726 C 0.74833 0.01491 0.9673 0.0
C3727 C 0.77641 0.0736 0.99396 0.0
H3728 H 0.71219 0.03859 0.99155 0.0
H3729 H 0.7349 0.025 0.0305 0.0
H3730 H 0.7459 0.06052 0.96726 0.0
H3731 H 0.73605 0.03992 0.9581 0.0
H3732 H 0.72411 0.04863 0.96547 0.0
H3733 H 0.75969 0.02648 0.02734 0.0
H3734 H 0.76348 0.02307 0.00562 0.0
H3735 H 0.77331 0.0436 0.01505 0.0
H3736 H 0.77748 0.02656 0.95344 0.0
H3737 H 0.80121 0.07574 0.97637 0.0
H3738 H 0.73729 0.01541 0.96401 0.0
H3739 H 0.74626 0.00852 0.97945 0.0
H3740 H 0.75 0.00743 0.95716 0.0
H3741 H 0.76563 0.07468 0.991 0.0
H3742 H 0.78743 0.08585 0.99263 0.0
H3743 H 0.77587 0.07026 0.00747 0.0
C3744 C 0.67033 0.95588 0.05733 0.0
C3745 C 0.67559 0.96808 0.04524 0.0
C3746 C 0.67889 0.94769 0.06067 0.0
C3747 C 0.69291 0.95168 0.05157 0.0
C3748 C 0.69771 0.96328 0.03867 0.0
C3749 C 0.68903 0.97136 0.0357 0.0
C3750 C 0.67345 0.93542 0.07455 0.0
C3751 C 0.71247 0.96774 0.02852 0.0
C3752 C 0.72709 0.94776 0.07158 0.0
C3753 C 0.72478 0.9332 0.06335 0.0
C3754 C 0.7164 0.95353 0.06834 0.0
C3755 C 0.70329 0.94473 0.05631 0.0
C3756 C 0.70081 0.92995 0.04808 0.0
C3757 C 0.7116 0.92436 0.05171 0.0
C3758 C 0.71942 0.96933 0.07742 0.0
C3759 C 0.68712 0.92036 0.03502 0.0
H3760 H 0.65999 0.95331 0.06479 0.0
H3761 H 0.6931 0.98066 0.02622 0.0
H3762 H 0.67261 0.92374 0.06982 0.0
H3763 H 0.68252 0.94051 0.08539 0.0
H3764 H 0.66155 0.93258 0.07937 0.0
H3765 H 0.71378 0.97594 0.018 0.0
H3766 H 0.72348 0.97417 0.03706 0.0
H3767 H 0.71188 0.95641 0.023 0.0
H3768 H 0.73743 0.9548 0.08033 0.0
H3769 H 0.70998 0.91326 0.04513 0.0
H3770 H 0.70832 0.96732 0.08363 0.0
H3771 H 0.72251 0.97899 0.06804 0.0
H3772 H 0.72943 0.97404 0.08726 0.0
H3773 H 0.67546 0.91763 0.04038 0.0
H3774 H 0.6862 0.90853 0.03064 0.0
H3775 H 0.68896 0.92792 0.02378 0.0
C3776 C 0.02542 0.72297 0.04239 0.0
C3777 C 0.02947 0.71248 0.0508 0.0
C3778 C 0.03425 0.74013 0.04568 0.0
C3779 C 0.04743 0.74703 0.05778 0.0
C3780 C 0.05185 0.73659 0.06604 0.0
C3781 C 0.04286 0.71943 0.0624 0.0
C3782 C 0.02924 0.75085 0.03645 0.0
C3783 C 0.06579 0.74351 0.07906 0.0
C3784 C 0.07684 0.79308 0.05569 0.0
C3785 C 0.07092 0.79968 0.06791 0.0
C3786 C 0.06964 0.77594 0.05262 0.0
C3787 C 0.05622 0.76513 0.06205 0.0
C3788 C 0.05046 0.7717 0.07475 0.0
C3789 C 0.05774 0.7889 0.07738 0.0
C3790 C 0.07599 0.76945 0.03879 0.0
C3791 C 0.03624 0.76056 0.08516 0.0
H3792 H 0.01517 0.71776 0.03333 0.0
H3793 H 0.04606 0.71144 0.069 0.0
H3794 H 0.0254 0.75719 0.04577 0.0
H3795 H 0.03965 0.76057 0.02982 0.0
H3796 H 0.01913 0.74362 0.02692 0.0
H3797 H 0.0681 0.73384 0.08384 0.0
H3798 H 0.07696 0.75323 0.07347 0.0
H3799 H 0.06319 0.74941 0.09006 0.0
H3800 H 0.08683 0.8014 0.04815 0.0
H3801 H 0.05291 0.79391 0.08662 0.0
H3802 H 0.06667 0.76329 0.02828 0.0
H3803 H 0.07855 0.76005 0.04383 0.0
H3804 H 0.08719 0.77942 0.03343 0.0
H3805 H 0.02514 0.754 0.07675 0.0
H3806 H 0.03413 0.76753 0.0955 0.0
H3807 H 0.03819 0.75103 0.09094 0.0
C3808 C 0.29026 0.31714 0.03359 0.0
C3809 C 0.29774 0.33441 0.03557 0.0
C3810 C 0.27504 0.30682 0.04006 0.0
C3811 C 0.26725 0.31391 0.04915 0.0
C3812 C 0.27529 0.33125 0.05241 0.0
C3813 C 0.29039 0.34134 0.04539 0.0
C3814 C 0.26683 0.28841 0.03608 0.0
C3815 C 0.26759 0.33919 0.06254 0.0
C3816 C 0.22163 0.28895 0.04412 0.0
C3817 C 0.21752 0.27941 0.05854 0.0
C3818 C 0.23773 0.30072 0.04129 0.0
C3819 C 0.25005 0.30326 0.05336 0.0
C3820 C 0.24592 0.2943 0.06842 0.0
C3821 C 0.22973 0.28224 0.07069 0.0
C3822 C 0.24162 0.30976 0.02489 0.0
C3823 C 0.25867 0.29697 0.08178 0.0
H3824 H 0.29585 0.31162 0.02609 0.0
H3825 H 0.29617 0.35466 0.04714 0.0
H3826 H 0.26266 0.28157 0.04792 0.0
H3827 H 0.256 0.28444 0.02754 0.0
H3828 H 0.27492 0.28479 0.02974 0.0
H3829 H 0.27638 0.35231 0.06634 0.0
H3830 H 0.25758 0.33876 0.05475 0.0
H3831 H 0.26232 0.33234 0.07419 0.0
H3832 H 0.21223 0.28667 0.03468 0.0
H3833 H 0.22671 0.27484 0.08182 0.0
H3834 H 0.24903 0.30626 0.01706 0.0
H3835 H 0.24884 0.3233 0.02767 0.0
H3836 H 0.23057 0.30692 0.01722 0.0
H3837 H 0.2658 0.29146 0.07701 0.0
H3838 H 0.25328 0.29121 0.09391 0.0
H3839 H 0.26718 0.31036 0.08446 0.0
C3840 C 0.71355 0.64937 0.34815 0.0
C3841 C 0.70349 0.65487 0.35472 0.0
C3842 C 0.72115 0.64338 0.3588 0.0
C3843 C 0.71872 0.64288 0.37654 0.0
C3844 C 0.70853 0.64833 0.38332 0.0
C3845 C 0.701 0.65424 0.37231 0.0
C3846 C 0.73186 0.63762 0.35102 0.0
C3847 C 0.70571 0.64804 0.40218 0.0
C3848 C 0.72825 0.61334 0.39897 0.0
C3849 C 0.74433 0.62387 0.4048 0.0
C3850 C 0.71946 0.61947 0.39052 0.0
C3851 C 0.72692 0.6366 0.38782 0.0
C3852 C 0.74292 0.64741 0.39431 0.0
C3853 C 0.75151 0.6409 0.40251 0.0
C3854 C 0.70252 0.60749 0.38361 0.0
C3855 C 0.75128 0.66576 0.3918 0.0
H3856 H 0.71556 0.64978 0.33458 0.0
H3857 H 0.69328 0.6585 0.37751 0.0
H3858 H 0.74434 0.64509 0.35664 0.0
H3859 H 0.72741 0.62456 0.35395 0.0
H3860 H 0.73232 0.63862 0.33695 0.0
H3861 H 0.6974 0.65263 0.40544 0.0
H3862 H 0.70054 0.63527 0.40651 0.0
H3863 H 0.71739 0.65579 0.40941 0.0
H3864 H 0.72276 0.60015 0.40042 0.0
H3865 H 0.76402 0.6491 0.40665 0.0
H3866 H 0.70238 0.6068 0.36946 0.0
H3867 H 0.69413 0.61183 0.38732 0.0
H3868 H 0.6979 0.59485 0.38821 0.0
H3869 H 0.75382 0.66809 0.37812 0.0
H3870 H 0.76288 0.67269 0.3994 0.0
H3871 H 0.74336 0.6707 0.39543 0.0
C3872 C 0.3404 0.04074 0.38959 0.0
C3873 C 0.33208 0.02762 0.40036 0.0
C3874 C 0.34772 0.05723 0.39599 0.0
C3875 C 0.34708 0.06054 0.41357 0.0
C3876 C 0.33881 0.04735 0.42447 0.0
C3877 C 0.33115 0.03106 0.41768 0.0
C3878 C 0.35617 0.07109 0.38402 0.0
C3879 C 0.33864 0.0504 0.44346 0.0
C3880 C 0.38707 0.10672 0.43874 0.0
C3881 C 0.37572 0.11795 0.43923 0.0
C3882 C 0.37659 0.08676 0.42763 0.0
C3883 C 0.35556 0.07762 0.42087 0.0
C3884 C 0.34388 0.08732 0.42592 0.0
C3885 C 0.35324 0.10726 0.43705 0.0
C3886 C 0.38522 0.0775 0.42453 0.0
C3887 C 0.32643 0.07899 0.42046 0.0
H3888 H 0.34111 0.0381 0.37619 0.0
H3889 H 0.32498 0.02096 0.42611 0.0
H3890 H 0.35122 0.07951 0.38503 0.0
H3891 H 0.36924 0.07844 0.38773 0.0
H3892 H 0.35483 0.06648 0.37053 0.0
H3893 H 0.33206 0.03873 0.45026 0.0
H3894 H 0.35124 0.05756 0.44888 0.0
H3895 H 0.33287 0.05789 0.44601 0.0
H3896 H 0.39995 0.11292 0.44167 0.0
H3897 H 0.34673 0.11378 0.43896 0.0
H3898 H 0.38609 0.07598 0.41059 0.0
H3899 H 0.37815 0.06497 0.42953 0.0
H3900 H 0.39752 0.0842 0.43072 0.0
H3901 H 0.32524 0.0769 0.40638 0.0
H3902 H 0.32116 0.08666 0.42442 0.0
H3903 H 0.31977 0.06673 0.42607 0.0
C3904 C 0.95357 0.29819 0.34938 0.0
C3905 C 0.96935 0.30484 0.35632 0.0
C3906 C 0.94029 0.29205 0.35984 0.0
C3907 C 0.94281 0.29262 0.37773 0.0
C3908 C 0.95873 0.29965 0.3849 0.0
C3909 C 0.97185 0.30568 0.37409 0.0
C3910 C 0.92351 0.28463 0.35166 0.0
C3911 C 0.96184 0.30051 0.40394 0.0
C3912 C 0.90712 0.28738 0.40247 0.0
C3913 C 0.89872 0.27031 0.40473 0.0
C3914 C 0.92199 0.29503 0.39452 0.0
C3915 C 0.9286 0.28535 0.38869 0.0
C3916 C 0.92052 0.26823 0.39158 0.0
C3917 C 0.90558 0.26088 0.39934 0.0
C3918 C 0.93014 0.31327 0.39149 0.0
C3919 C 0.92721 0.2575 0.38561 0.0
H3920 H 0.9515 0.2975 0.33567 0.0
H3921 H 0.98401 0.31082 0.37954 0.0
H3922 H 0.91621 0.27139 0.35455 0.0
H3923 H 0.91729 0.29093 0.35699 0.0
H3924 H 0.92367 0.28557 0.33758 0.0
H3925 H 0.97495 0.307 0.40756 0.0
H3926 H 0.95634 0.30699 0.41052 0.0
H3927 H 0.95606 0.28783 0.40868 0.0
H3928 H 0.90171 0.29465 0.40633 0.0
H3929 H 0.89902 0.24763 0.40072 0.0
H3930 H 0.92944 0.31504 0.37765 0.0
H3931 H 0.94313 0.31954 0.39552 0.0
H3932 H 0.92442 0.31937 0.39843 0.0
H3933 H 0.92637 0.25626 0.37146 0.0
H3934 H 0.92055 0.24493 0.39065 0.0
H3935 H 0.94017 0.26327 0.38962 0.0
C3936 C 0.03601 0.38323 0.30147 0.0
C3937 C 0.02499 0.37071 0.31161 0.0
C3938 C 0.03448 0.39692 0.298 0.0
C3939 C 0.02166 0.39826 0.30493 0.0
C3940 C 0.01099 0.38618 0.31594 0.0
C3941 C 0.01274 0.37248 0.31911 0.0
C3942 C 0.04617 0.40955 0.28622 0.0
C3943 C 0.99736 0.38737 0.32377 0.0
C3944 C 0.02737 0.44072 0.29896 0.0
C3945 C 0.01892 0.43812 0.2833 0.0
C3946 C 0.02723 0.42752 0.30707 0.0
C3947 C 0.01872 0.41146 0.29911 0.0
C3948 C 0.00936 0.40862 0.28386 0.0
C3949 C 0.00958 0.42198 0.27615 0.0
C3950 C 0.03711 0.43097 0.3235 0.0
C3951 C 0.00021 0.39172 0.27488 0.0
H3952 H 0.04566 0.38214 0.29578 0.0
H3953 H 0.00425 0.36295 0.32709 0.0
H3954 H 0.03956 0.40942 0.27437 0.0
H3955 H 0.05173 0.42215 0.29234 0.0
H3956 H 0.05598 0.40716 0.28265 0.0
H3957 H 0.99168 0.37844 0.33394 0.0
H3958 H 0.00176 0.40005 0.32925 0.0
H3959 H 0.98794 0.38478 0.31374 0.0
H3960 H 0.03467 0.45319 0.30447 0.0
H3961 H 0.00316 0.41995 0.26396 0.0
H3962 H 0.04848 0.43111 0.32079 0.0
H3963 H 0.03047 0.42114 0.33258 0.0
H3964 H 0.04029 0.4431 0.32969 0.0
H3965 H 0.00892 0.38846 0.26955 0.0
H3966 H 0.99209 0.39121 0.26427 0.0
H3967 H 0.99286 0.38221 0.28399 0.0
C3968 C 0.63083 0.61803 0.31045 0.0
C3969 C 0.63565 0.63156 0.30016 0.0
C3970 C 0.62144 0.60174 0.30347 0.0
C3971 C 0.61741 0.59902 0.28574 0.0
C3972 C 0.6225 0.61268 0.27531 0.0
C3973 C 0.63119 0.62874 0.28272 0.0
C3974 C 0.61578 0.58746 0.31504 0.0
C3975 C 0.61926 0.6105 0.2562 0.0
C3976 C 0.61126 0.55268 0.26124 0.0
C3977 C 0.58917 0.54293 0.25655 0.0
C3978 C 0.62021 0.57196 0.2736 0.0
C3979 C 0.60874 0.58213 0.27777 0.0
C3980 C 0.58843 0.5741 0.26881 0.0
C3981 C 0.5785 0.55492 0.25619 0.0
C3982 C 0.63749 0.57981 0.27962 0.0
C3983 C 0.57951 0.58308 0.27192 0.0
H3984 H 0.63423 0.62018 0.32395 0.0
H3985 H 0.63507 0.63916 0.27465 0.0
H3986 H 0.60264 0.5787 0.31266 0.0
H3987 H 0.62218 0.58064 0.31223 0.0
H3988 H 0.61808 0.59162 0.32874 0.0
H3989 H 0.62716 0.62205 0.24967 0.0
H3990 H 0.62112 0.60055 0.25077 0.0
H3991 H 0.60653 0.60701 0.2533 0.0
H3992 H 0.61754 0.54588 0.2597 0.0
H3993 H 0.56596 0.54935 0.25187 0.0
H3994 H 0.63813 0.5747 0.29197 0.0
H3995 H 0.64302 0.59339 0.28145 0.0
H3996 H 0.64429 0.57679 0.27033 0.0
H3997 H 0.58623 0.59365 0.28129 0.0
H3998 H 0.56741 0.57436 0.27665 0.0
H3999 H 0.57758 0.58755 0.25967 0.0
C4000 C 0.35975 0.99265 0.3203 0.0
C4001 C 0.36784 0.99947 0.33616 0.0
C4002 C 0.36801 0.99143 0.3063 0.0
C4003 C 0.38479 0.99734 0.30817 0.0
C4004 C 0.39322 0.00523 0.3238 0.0
C4005 C 0.38463 0.00614 0.33764 0.0
C4006 C 0.35859 0.98291 0.28985 0.0
C4007 C 0.41117 0.01193 0.32618 0.0
C4008 C 0.40199 0.97619 0.281 0.0
C4009 C 0.4094 0.9875 0.26827 0.0
C4010 C 0.39393 0.97927 0.29403 0.0
C4011 C 0.39323 0.994 0.2943 0.0
C4012 C 0.40048 0.00536 0.28135 0.0
C4013 C 0.40834 0.00189 0.26838 0.0
C4014 C 0.38615 0.96674 0.30751 0.0
C4015 C 0.39998 0.02119 0.28123 0.0
H4016 H 0.34678 0.9875 0.31901 0.0
H4017 H 0.39099 0.01155 0.34981 0.0
H4018 H 0.36463 0.99048 0.27884 0.0
H4019 H 0.35817 0.97094 0.28782 0.0
H4020 H 0.34599 0.98048 0.28992 0.0
H4021 H 0.4162 0.01924 0.33843 0.0
H4022 H 0.41357 0.00153 0.32597 0.0
H4023 H 0.4177 0.01986 0.31555 0.0
H4024 H 0.4025 0.96491 0.28074 0.0
H4025 H 0.41374 0.01048 0.25833 0.0
H4026 H 0.37304 0.96241 0.30766 0.0
H4027 H 0.39152 0.97255 0.3203 0.0
H4028 H 0.38766 0.95584 0.30536 0.0
H4029 H 0.38725 0.01833 0.28049 0.0
H4030 H 0.40638 0.02881 0.27035 0.0
H4031 H 0.4056 0.02861 0.2933 0.0
C4032 C 0.62711 0.01908 0.33713 0.0
C4033 C 0.63231 0.00821 0.33167 0.0
C4034 C 0.61694 0.02207 0.32664 0.0
C4035 C 0.61192 0.01408 0.31023 0.0
C4036 C 0.61771 0.00369 0.30431 0.0
C4037 C 0.62782 0.00083 0.31514 0.0
C4038 C 0.61103 0.03324 0.33345 0.0
C4039 C 0.61273 0.9951 0.28681 0.0
C4040 C 0.57153 0.0077 0.29431 0.0
C4041 C 0.57623 0.02117 0.28396 0.0
C4042 C 0.58302 0.00481 0.30229 0.0
C4043 C 0.59967 0.01573 0.29993 0.0
C4044 C 0.6045 0.02904 0.28904 0.0
C4045 C 0.59272 0.0317 0.28129 0.0
C4046 C 0.57738 0.99053 0.3139 0.0
C4047 C 0.62212 0.0409 0.28616 0.0
H4048 H 0.63059 0.02493 0.34984 0.0
H4049 H 0.63186 0.99249 0.31079 0.0
H4050 H 0.61348 0.043 0.32438 0.0
H4051 H 0.59774 0.02596 0.33477 0.0
H4052 H 0.61681 0.03926 0.34607 0.0
H4053 H 0.61956 0.98881 0.28346 0.0
H4054 H 0.59965 0.98574 0.28634 0.0
H4055 H 0.61463 0.0041 0.27699 0.0
H4056 H 0.55882 0.99968 0.29659 0.0
H4057 H 0.59641 0.04228 0.27351 0.0
H4058 H 0.58145 0.99535 0.32726 0.0
H4059 H 0.58279 0.98288 0.31041 0.0
H4060 H 0.564 0.9825 0.31336 0.0
H4061 H 0.62809 0.04841 0.29809 0.0
H4062 H 0.62378 0.0494 0.27585 0.0
H4063 H 0.62837 0.03401 0.28285 0.0
C4064 C 0.03103 0.64373 0.31175 0.0
C4065 C 0.02067 0.64983 0.30843 0.0
C4066 C 0.02635 0.62729 0.30709 0.0
C4067 C 0.01137 0.61711 0.29806 0.0
C4068 C 0.00092 0.62333 0.29463 0.0
C4069 C 0.00556 0.63952 0.30021 0.0
C4070 C 0.0375 0.62095 0.31187 0.0
C4071 C 0.98518 0.61322 0.28442 0.0
C4072 C 0.01304 0.57786 0.26618 0.0
C4073 C 0.99413 0.56049 0.27422 0.0
C4074 C 0.01793 0.59806 0.27437 0.0
C4075 C 0.00692 0.6003 0.29173 0.0
C4076 C 0.9915 0.58264 0.30231 0.0
C4077 C 0.9857 0.56193 0.29491 0.0
C4078 C 0.03077 0.61283 0.2661 0.0
C4079 C 0.98364 0.58495 0.3175 0.0
H4080 H 0.04267 0.65174 0.31825 0.0
H4081 H 0.99764 0.64437 0.29755 0.0
H4082 H 0.03059 0.60779 0.31518 0.0
H4083 H 0.04499 0.62194 0.30091 0.0
H4084 H 0.04582 0.62831 0.32286 0.0
H4085 H 0.9788 0.62018 0.2823 0.0
H4086 H 0.98753 0.60935 0.27181 0.0
H4087 H 0.97706 0.60191 0.29112 0.0
H4088 H 0.0187 0.57634 0.25503 0.0
H4089 H 0.97563 0.55128 0.30018 0.0
H4090 H 0.04275 0.61463 0.27001 0.0
H4091 H 0.03031 0.62409 0.26975 0.0
H4092 H 0.02927 0.61058 0.25204 0.0
H4093 H 0.99038 0.59791 0.32271 0.0
H4094 H 0.98287 0.57642 0.32741 0.0
H4095 H 0.9711 0.58162 0.31373 0.0
C4096 C 0.36956 0.35624 0.32342 0.0
C4097 C 0.36999 0.37056 0.32995 0.0
C4098 C 0.38188 0.35724 0.31334 0.0
C4099 C 0.3948 0.37294 0.30942 0.0
C4100 C 0.39518 0.38745 0.31573 0.0
C4101 C 0.38282 0.38609 0.32606 0.0
C4102 C 0.38117 0.34149 0.30706 0.0
C4103 C 0.40865 0.40439 0.31157 0.0
C4104 C 0.43421 0.37663 0.29578 0.0
C4105 C 0.4327 0.37677 0.27799 0.0
C4106 C 0.42192 0.3753 0.30619 0.0
C4107 C 0.40784 0.37414 0.2986 0.0
C4108 C 0.4061 0.37396 0.28064 0.0
C4109 C 0.41845 0.37502 0.27054 0.0
C4110 C 0.42402 0.37516 0.3253 0.0
C4111 C 0.39128 0.37279 0.27208 0.0
H4112 H 0.35975 0.34419 0.32651 0.0
H4113 H 0.38319 0.39718 0.33106 0.0
H4114 H 0.38082 0.34073 0.29291 0.0
H4115 H 0.39221 0.34149 0.31157 0.0
H4116 H 0.37043 0.33027 0.31151 0.0
H4117 H 0.407 0.41444 0.31718 0.0
H4118 H 0.42042 0.40623 0.31642 0.0
H4119 H 0.4093 0.40547 0.29752 0.0
H4120 H 0.44508 0.37765 0.30153 0.0
H4121 H 0.41704 0.37473 0.25677 0.0
H4122 H 0.41384 0.36375 0.33017 0.0
H4123 H 0.42378 0.3858 0.33155 0.0
H4124 H 0.43555 0.37581 0.32915 0.0
H4125 H 0.38032 0.36116 0.27531 0.0
H4126 H 0.39196 0.37313 0.25797 0.0
H4127 H 0.38977 0.38317 0.27685 0.0
C4128 C 0.32343 0.29328 0.39295 0.0
C4129 C 0.3273 0.30355 0.37911 0.0
C4130 C 0.33191 0.28498 0.39638 0.0
C4131 C 0.34444 0.287 0.38566 0.0
C4132 C 0.34778 0.29667 0.37119 0.0
C4133 C 0.33918 0.3048 0.36811 0.0
C4134 C 0.32799 0.2747 0.41188 0.0
C4135 C 0.36093 0.29904 0.35934 0.0
C4136 C 0.38044 0.28398 0.4014 0.0
C4137 C 0.37704 0.2688 0.39376 0.0
C4138 C 0.36946 0.28962 0.39967 0.0
C4139 C 0.35481 0.27991 0.38994 0.0
C4140 C 0.35105 0.26429 0.38275 0.0
C4141 C 0.36226 0.25897 0.38467 0.0
C4142 C 0.37395 0.30637 0.4075 0.0
C4143 C 0.33558 0.2536 0.37227 0.0
H4144 H 0.31429 0.29228 0.40152 0.0
H4145 H 0.34212 0.31256 0.35725 0.0
H4146 H 0.32628 0.26235 0.40838 0.0
H4147 H 0.33825 0.28078 0.42142 0.0
H4148 H 0.31693 0.27304 0.41794 0.0
H4149 H 0.36137 0.30618 0.34812 0.0
H4150 H 0.37285 0.30571 0.36634 0.0
H4151 H 0.35906 0.28688 0.35469 0.0
H4152 H 0.39194 0.29167 0.40827 0.0
H4153 H 0.35969 0.24729 0.37863 0.0
H4154 H 0.36386 0.30553 0.41493 0.0
H4155 H 0.37616 0.31506 0.39724 0.0
H4156 H 0.38498 0.31163 0.41603 0.0
H4157 H 0.32507 0.25247 0.37906 0.0
H4158 H 0.33356 0.24102 0.36934 0.0
H4159 H 0.33607 0.25945 0.36005 0.0
C4160 C 0.69636 0.04693 0.36618 0.0
C4161 C 0.69941 0.0372 0.37718 0.0
C4162 C 0.70466 0.0642 0.36847 0.0
C4163 C 0.71621 0.07198 0.38218 0.0
C4164 C 0.71962 0.0623 0.39313 0.0
C4165 C 0.71123 0.04502 0.39044 0.0
C4166 C 0.70082 0.0741 0.35638 0.0
C4167 C 0.73179 0.07017 0.40793 0.0
C4168 C 0.74567 0.11788 0.37895 0.0
C4169 C 0.73824 0.12485 0.38856 0.0
C4170 C 0.73893 0.10069 0.37722 0.0
C4171 C 0.72436 0.09021 0.38524 0.0
C4172 C 0.71699 0.09719 0.3953 0.0
C4173 C 0.72395 0.11443 0.39672 0.0
C4174 C 0.74707 0.09373 0.36629 0.0
C4175 C 0.70147 0.08643 0.40409 0.0
H4176 H 0.68733 0.04103 0.35583 0.0
H4177 H 0.71363 0.03762 0.39904 0.0
H4178 H 0.69574 0.08072 0.36349 0.0
H4179 H 0.71204 0.08358 0.35063 0.0
H4180 H 0.69201 0.06622 0.34594 0.0
H4181 H 0.73352 0.06099 0.41486 0.0
H4182 H 0.74364 0.07971 0.40337 0.0
H4183 H 0.72774 0.07648 0.41704 0.0
H4184 H 0.75658 0.12592 0.37244 0.0
H4185 H 0.71803 0.11976 0.40392 0.0
H4186 H 0.73913 0.08683 0.35493 0.0
H4187 H 0.74905 0.08486 0.37348 0.0
H4188 H 0.75889 0.10354 0.36188 0.0
H4189 H 0.69155 0.07919 0.3944 0.0
H4190 H 0.69795 0.09377 0.41244 0.0
H4191 H 0.70273 0.07746 0.41193 0.0
C4192 C 0.95473 0.64386 0.34314 0.0
C4193 C 0.96819 0.6583 0.35018 0.0
C4194 C 0.94025 0.63585 0.35173 0.0
C4195 C 0.93916 0.64244 0.36779 0.0
C4196 C 0.95287 0.65668 0.37528 0.0
C4197 C 0.96725 0.66445 0.36639 0.0
C4198 C 0.92594 0.62062 0.34333 0.0
C4199 C 0.95217 0.664 0.39242 0.0
C4200 C 0.8965 0.63154 0.37776 0.0
C4201 C 0.89165 0.61798 0.388 0.0
C4202 C 0.91221 0.64013 0.37179 0.0
C4203 C 0.92333 0.63493 0.37606 0.0
C4204 C 0.9187 0.62162 0.38692 0.0
C4205 C 0.90288 0.61323 0.39269 0.0
C4206 C 0.91665 0.65425 0.36023 0.0
C4207 C 0.93021 0.61574 0.39178 0.0
H4208 H 0.95537 0.63893 0.33069 0.0
H4209 H 0.97761 0.67558 0.37195 0.0
H4210 H 0.92121 0.61029 0.3521 0.0
H4211 H 0.91606 0.62318 0.34046 0.0
H4212 H 0.92904 0.61656 0.33126 0.0
H4213 H 0.9642 0.67428 0.39712 0.0
H4214 H 0.94371 0.66878 0.39145 0.0
H4215 H 0.94746 0.65436 0.402 0.0
H4216 H 0.8878 0.63512 0.37396 0.0
H4217 H 0.8991 0.60261 0.40043 0.0
H4218 H 0.9186 0.65076 0.34724 0.0
H4219 H 0.92812 0.66531 0.36493 0.0
H4220 H 0.9071 0.65762 0.35929 0.0
H4221 H 0.9324 0.60996 0.38038 0.0
H4222 H 0.92542 0.60654 0.40182 0.0
H4223 H 0.94206 0.62632 0.39642 0.0
C4224 C 0.40078 0.0192 0.69922 0.0
C4225 C 0.38536 0.01735 0.7003 0.0
C4226 C 0.40766 0.01498 0.7127 0.0
C4227 C 0.39896 0.00883 0.72762 0.0
C4228 C 0.38354 0.00717 0.72893 0.0
C4229 C 0.37688 0.01141 0.71524 0.0
C4230 C 0.42413 0.01687 0.71087 0.0
C4231 C 0.37402 0.00082 0.74478 0.0
C4232 C 0.40705 0.97453 0.75875 0.0
C4233 C 0.42295 0.99099 0.77335 0.0
C4234 C 0.3999 0.98198 0.74173 0.0
C4235 C 0.40563 0.00352 0.74154 0.0
C4236 C 0.41766 0.01819 0.75877 0.0
C4237 C 0.42542 0.01195 0.77641 0.0
C4238 C 0.38933 0.97029 0.72757 0.0
C4239 C 0.42119 0.03557 0.75843 0.0
H4240 H 0.40745 0.0238 0.68775 0.0
H4241 H 0.36501 0.01002 0.71625 0.0
H4242 H 0.43236 0.02478 0.72165 0.0
H4243 H 0.42312 0.00457 0.71134 0.0
H4244 H 0.42961 0.02242 0.6987 0.0
H4245 H 0.36244 0.00083 0.74408 0.0
H4246 H 0.37134 0.98802 0.74668 0.0
H4247 H 0.38133 0.00856 0.75613 0.0
H4248 H 0.40489 0.96204 0.75822 0.0
H4249 H 0.43362 0.02083 0.78615 0.0
H4250 H 0.39493 0.975 0.71523 0.0
H4251 H 0.37749 0.9697 0.72733 0.0
H4252 H 0.38755 0.95778 0.72924 0.0
H4253 H 0.42753 0.04112 0.74664 0.0
H4254 H 0.42874 0.04293 0.76982 0.0
H4255 H 0.40965 0.03563 0.758 0.0
C4256 C 0.97149 0.35717 0.72745 0.0
C4257 C 0.98066 0.35425 0.71562 0.0
C4258 C 0.97425 0.37314 0.73099 0.0
C4259 C 0.98635 0.38654 0.72239 0.0
C4260 C 0.99528 0.38367 0.71002 0.0
C4261 C 0.99243 0.36757 0.70685 0.0
C4262 C 0.96449 0.37569 0.7443 0.0
C4263 C 0.00789 0.39763 0.70017 0.0
C4264 C 0.98286 0.43216 0.72133 0.0
C4265 C 0.99676 0.44256 0.74032 0.0
C4266 C 0.97875 0.41151 0.71617 0.0
C4267 C 0.99011 0.40353 0.7268 0.0
C4268 C 0.0067 0.41607 0.74191 0.0
C4269 C 0.0118 0.43689 0.74789 0.0
C4270 C 0.96589 0.40096 0.703 0.0
C4271 C 0.01598 0.40901 0.74991 0.0
H4272 H 0.96236 0.347 0.73431 0.0
H4273 H 0.99947 0.36543 0.69757 0.0
H4274 H 0.97268 0.38387 0.75497 0.0
H4275 H 0.95825 0.38179 0.73868 0.0
H4276 H 0.95526 0.36389 0.74956 0.0
H4277 H 0.01307 0.39322 0.6902 0.0
H4278 H 0.00248 0.40432 0.694 0.0
H4279 H 0.01784 0.40662 0.70904 0.0
H4280 H 0.97525 0.43658 0.71618 0.0
H4281 H 0.0208 0.44404 0.75794 0.0
H4282 H 0.95587 0.39039 0.70917 0.0
H4283 H 0.97084 0.39587 0.6935 0.0
H4284 H 0.96123 0.4082 0.6966 0.0
H4285 H 0.00743 0.39684 0.75499 0.0
H4286 H 0.02435 0.41752 0.76028 0.0
H4287 H 0.02296 0.40692 0.74006 0.0
C4288 C 0.61161 0.61857 0.68163 0.0
C4289 C 0.62763 0.62606 0.6881 0.0
C4290 C 0.59868 0.61279 0.69255 0.0
C4291 C 0.60181 0.61455 0.71042 0.0
C4292 C 0.61794 0.6221 0.71709 0.0
C4293 C 0.63068 0.62777 0.70583 0.0
C4294 C 0.58164 0.60478 0.68494 0.0
C4295 C 0.6217 0.62418 0.73608 0.0
C4296 C 0.56794 0.61219 0.73655 0.0
C4297 C 0.55984 0.59559 0.74085 0.0
C4298 C 0.58203 0.61873 0.72723 0.0
C4299 C 0.58809 0.60838 0.72202 0.0
C4300 C 0.5802 0.59171 0.72669 0.0
C4301 C 0.56608 0.58548 0.73591 0.0
C4302 C 0.59003 0.63652 0.72236 0.0
C4303 C 0.58629 0.58029 0.72134 0.0
H4304 H 0.60913 0.61718 0.66795 0.0
H4305 H 0.64303 0.63356 0.71093 0.0
H4306 H 0.57442 0.59194 0.68916 0.0
H4307 H 0.57569 0.61163 0.68953 0.0
H4308 H 0.58128 0.6044 0.67077 0.0
H4309 H 0.63489 0.63034 0.73922 0.0
H4310 H 0.61693 0.63161 0.74212 0.0
H4311 H 0.61562 0.61193 0.74183 0.0
H4312 H 0.56298 0.61995 0.74008 0.0
H4313 H 0.55967 0.57255 0.73888 0.0
H4314 H 0.5889 0.63701 0.70832 0.0
H4315 H 0.60313 0.64306 0.72597 0.0
H4316 H 0.58457 0.64326 0.72854 0.0
H4317 H 0.5849 0.57814 0.70727 0.0
H4318 H 0.57965 0.56814 0.72729 0.0
H4319 H 0.59935 0.58602 0.72486 0.0
C4320 C 0.68474 0.71074 0.64571 0.0
C4321 C 0.67363 0.69392 0.64733 0.0
C4322 C 0.67946 0.72196 0.64278 0.0
C4323 C 0.66269 0.71611 0.64093 0.0
C4324 C 0.6514 0.69921 0.64306 0.0
C4325 C 0.65703 0.68835 0.64647 0.0
C4326 C 0.69184 0.73998 0.64107 0.0
C4327 C 0.63343 0.69242 0.64077 0.0
C4328 C 0.64811 0.74699 0.64165 0.0
C4329 C 0.6478 0.74996 0.62423 0.0
C4330 C 0.65302 0.7361 0.64734 0.0
C4331 C 0.65704 0.72738 0.63527 0.0
C4332 C 0.65595 0.7296 0.61765 0.0
C4333 C 0.65144 0.74088 0.61235 0.0
C4334 C 0.65421 0.73416 0.66625 0.0
C4335 C 0.65966 0.72012 0.60435 0.0
H4336 H 0.69759 0.71509 0.64656 0.0
H4337 H 0.64841 0.67532 0.64762 0.0
H4338 H 0.69172 0.74334 0.62766 0.0
H4339 H 0.68882 0.74789 0.64915 0.0
H4340 H 0.70427 0.74283 0.64476 0.0
H4341 H 0.62626 0.67934 0.64433 0.0
H4342 H 0.62971 0.6999 0.64856 0.0
H4343 H 0.63038 0.69315 0.62722 0.0
H4344 H 0.64469 0.75334 0.65092 0.0
H4345 H 0.65079 0.74251 0.59882 0.0
H4346 H 0.66683 0.73786 0.67012 0.0
H4347 H 0.64647 0.72103 0.66931 0.0
H4348 H 0.65055 0.74176 0.67398 0.0
H4349 H 0.67254 0.72357 0.60581 0.0
H4350 H 0.65733 0.72255 0.59114 0.0
H4351 H 0.65224 0.70665 0.60616 0.0
C4352 C 0.31688 0.96497 0.64819 0.0
C4353 C 0.30955 0.97466 0.64773 0.0
C4354 C 0.30798 0.94794 0.64395 0.0
C4355 C 0.29126 0.94033 0.63967 0.0
C4356 C 0.28364 0.94988 0.63989 0.0
C4357 C 0.29291 0.967 0.64369 0.0
C4358 C 0.31662 0.93823 0.64339 0.0
C4359 C 0.26571 0.94203 0.63605 0.0
C4360 C 0.26977 0.8962 0.60356 0.0
C4361 C 0.25984 0.88083 0.62015 0.0
C4362 C 0.27959 0.91746 0.61135 0.0
C4363 C 0.2821 0.92268 0.63402 0.0
C4364 C 0.27603 0.90711 0.64975 0.0
C4365 C 0.26612 0.8855 0.64321 0.0
C4366 C 0.28616 0.93083 0.59894 0.0
C4367 C 0.27897 0.91198 0.66831 0.0
H4368 H 0.32975 0.97081 0.65116 0.0
H4369 H 0.28715 0.9744 0.64346 0.0
H4370 H 0.31175 0.92868 0.65305 0.0
H4371 H 0.31445 0.93174 0.63069 0.0
H4372 H 0.32986 0.9462 0.64594 0.0
H4373 H 0.26139 0.95091 0.63807 0.0
H4374 H 0.26282 0.93714 0.62261 0.0
H4375 H 0.259 0.93144 0.64431 0.0
H4376 H 0.26721 0.89282 0.59007 0.0
H4377 H 0.26114 0.87603 0.65247 0.0
H4378 H 0.29861 0.94051 0.60318 0.0
H4379 H 0.27858 0.93665 0.59859 0.0
H4380 H 0.28613 0.92572 0.58599 0.0
H4381 H 0.28991 0.91184 0.67292 0.0
H4382 H 0.2686 0.90285 0.67547 0.0
H4383 H 0.28083 0.92455 0.67067 0.0
C4384 C 0.03679 0.33882 0.6587 0.0
C4385 C 0.0386 0.33631 0.67596 0.0
C4386 C 0.05018 0.34582 0.64825 0.0
C4387 C 0.06572 0.35051 0.65527 0.0
C4388 C 0.0676 0.34807 0.67268 0.0
C4389 C 0.05404 0.34097 0.68277 0.0
C4390 C 0.04772 0.34815 0.62971 0.0
C4391 C 0.08398 0.35298 0.68069 0.0
C4392 C 0.10024 0.35558 0.62829 0.0
C4393 C 0.10957 0.37284 0.62754 0.0
C4394 C 0.08547 0.34809 0.63648 0.0
C4395 C 0.08015 0.35811 0.64457 0.0
C4396 C 0.0894 0.3755 0.64367 0.0
C4397 C 0.10395 0.38263 0.63511 0.0
C4398 C 0.07587 0.32949 0.63701 0.0
C4399 C 0.08432 0.38663 0.6524 0.0
H4400 H 0.0249 0.33521 0.65332 0.0
H4401 H 0.05558 0.33911 0.69608 0.0
H4402 H 0.05503 0.36142 0.62694 0.0
H4403 H 0.05196 0.34139 0.62148 0.0
H4404 H 0.03485 0.34371 0.62616 0.0
H4405 H 0.08339 0.35039 0.69446 0.0
H4406 H 0.08913 0.34621 0.67401 0.0
H4407 H 0.09244 0.36637 0.67933 0.0
H4408 H 0.10461 0.3479 0.62279 0.0
H4409 H 0.11127 0.39598 0.63482 0.0
H4410 H 0.06304 0.32478 0.63308 0.0
H4411 H 0.07609 0.3258 0.65026 0.0
H4412 H 0.08073 0.32343 0.62859 0.0
H4413 H 0.0717 0.38281 0.64841 0.0
H4414 H 0.09229 0.39982 0.64955 0.0
H4415 H 0.08467 0.3855 0.66642 0.0
C4416 C 0.30164 0.35186 0.64983 0.0
C4417 C 0.29131 0.33466 0.64815 0.0
C4418 C 0.29719 0.36266 0.64293 0.0
C4419 C 0.28214 0.35615 0.63386 0.0
C4420 C 0.27207 0.33881 0.63122 0.0
C4421 C 0.27672 0.32825 0.63853 0.0
C4422 C 0.30823 0.38107 0.64619 0.0
C4423 C 0.2561 0.33142 0.62129 0.0
C4424 C 0.26411 0.38395 0.63597 0.0
C4425 C 0.26905 0.39223 0.62075 0.0
C4426 C 0.26774 0.37171 0.64005 0.0
C4427 C 0.27645 0.36753 0.62856 0.0
C4428 C 0.28095 0.37537 0.61285 0.0
C4429 C 0.27741 0.38782 0.60923 0.0
C4430 C 0.26294 0.36384 0.65706 0.0
C4431 C 0.29004 0.37108 0.60017 0.0
H4432 H 0.31297 0.35697 0.65719 0.0
H4433 H 0.26872 0.31498 0.63704 0.0
H4434 H 0.3108 0.38746 0.63401 0.0
H4435 H 0.30217 0.38605 0.65429 0.0
H4436 H 0.31989 0.38416 0.65268 0.0
H4437 H 0.25066 0.31792 0.61859 0.0
H4438 H 0.2475 0.33352 0.62867 0.0
H4439 H 0.25767 0.33754 0.60903 0.0
H4440 H 0.25787 0.38751 0.64499 0.0
H4441 H 0.28149 0.39434 0.59756 0.0
H4442 H 0.27395 0.36724 0.66506 0.0
H4443 H 0.25606 0.35018 0.65523 0.0
H4444 H 0.25544 0.3678 0.66411 0.0
H4445 H 0.30253 0.37567 0.60529 0.0
H4446 H 0.29072 0.37663 0.58769 0.0
H4447 H 0.28419 0.35748 0.59808 0.0
C4448 C 0.66093 0.95884 0.64371 0.0
C4449 C 0.67443 0.96901 0.63426 0.0
C4450 C 0.65186 0.94173 0.64021 0.0
C4451 C 0.65633 0.93451 0.62689 0.0
C4452 C 0.67018 0.94457 0.61759 0.0
C4453 C 0.67911 0.96171 0.62141 0.0
C4454 C 0.63725 0.93142 0.65053 0.0
C4455 C 0.67529 0.93729 0.6033 0.0
C4456 C 0.63818 0.88809 0.62844 0.0
C4457 C 0.6244 0.88216 0.61756 0.0
C4458 C 0.6491 0.9051 0.63102 0.0
C4459 C 0.64614 0.91647 0.62254 0.0
C4460 C 0.63254 0.91055 0.61107 0.0
C4461 C 0.62174 0.89346 0.60885 0.0
C4462 C 0.66335 0.91091 0.64348 0.0
C4463 C 0.629 0.92227 0.60174 0.0
H4464 H 0.65724 0.96429 0.65373 0.0
H4465 H 0.68948 0.96944 0.61401 0.0
H4466 H 0.62616 0.92559 0.64207 0.0
H4467 H 0.63823 0.92131 0.65632 0.0
H4468 H 0.63577 0.93885 0.66088 0.0
H4469 H 0.68678 0.94663 0.59784 0.0
H4470 H 0.67681 0.92708 0.60794 0.0
H4471 H 0.66572 0.93193 0.59296 0.0
H4472 H 0.64011 0.87939 0.6354 0.0
H4473 H 0.61096 0.88897 0.60067 0.0
H4474 H 0.66172 0.91719 0.65483 0.0
H4475 H 0.67467 0.92004 0.63763 0.0
H4476 H 0.66478 0.90054 0.64782 0.0
H4477 H 0.62575 0.92919 0.61101 0.0
H4478 H 0.61889 0.91572 0.59205 0.0
H4479 H 0.63989 0.93148 0.5953 0.0
C4480 C 0.04219 0.71858 0.65857 0.0
C4481 C 0.03273 0.70355 0.66632 0.0
C4482 C 0.05596 0.72161 0.64981 0.0
C4483 C 0.06038 0.70933 0.64879 0.0
C4484 C 0.05074 0.69402 0.65631 0.0
C4485 C 0.03702 0.6913 0.66498 0.0
C4486 C 0.06592 0.73808 0.64187 0.0
C4487 C 0.05505 0.6806 0.65541 0.0
C4488 C 0.08877 0.71323 0.61396 0.0
C4489 C 0.10377 0.72086 0.62298 0.0
C4490 C 0.07448 0.70899 0.62228 0.0
C4491 C 0.07524 0.71264 0.64002 0.0
C4492 C 0.09029 0.72004 0.64927 0.0
C4493 C 0.10439 0.72402 0.64063 0.0
C4494 C 0.05864 0.701 0.61201 0.0
C4495 C 0.09157 0.72416 0.6682 0.0
H4496 H 0.03895 0.72809 0.6595 0.0
H4497 H 0.02978 0.67963 0.67092 0.0
H4498 H 0.07836 0.74458 0.64772 0.0
H4499 H 0.06693 0.73616 0.62803 0.0
H4500 H 0.06066 0.74618 0.64351 0.0
H4501 H 0.04604 0.66922 0.66152 0.0
H4502 H 0.05594 0.67738 0.64191 0.0
H4503 H 0.06707 0.68512 0.66184 0.0
H4504 H 0.08827 0.7109 0.60028 0.0
H4505 H 0.11596 0.72995 0.64764 0.0
H4506 H 0.05362 0.70937 0.61215 0.0
H4507 H 0.04969 0.68941 0.6178 0.0
H4508 H 0.06001 0.69809 0.59853 0.0
H4509 H 0.08768 0.73332 0.67068 0.0
H4510 H 0.10407 0.72932 0.67363 0.0
H4511 H 0.08338 0.71294 0.67503 0.0
C4512 C 0.98855 0.62947 0.70613 0.0
C4513 C 0.9782 0.63175 0.71678 0.0
C4514 C 0.99266 0.6174 0.70922 0.0
C4515 C 0.9864 0.60745 0.72343 0.0
C4516 C 0.97545 0.60922 0.73387 0.0
C4517 C 0.97138 0.62132 0.73034 0.0
C4518 C 0.00418 0.61573 0.6976 0.0
C4519 C 0.96862 0.59888 0.74918 0.0
C4520 C 0.99152 0.56991 0.72291 0.0
C4521 C 0.00624 0.5761 0.73219 0.0
C4522 C 0.98442 0.57968 0.72065 0.0
C4523 C 0.99229 0.59604 0.72784 0.0
C4524 C 0.00684 0.60213 0.73779 0.0
C4525 C 0.01374 0.59215 0.73968 0.0
C4526 C 0.969 0.57282 0.7098 0.0
C4527 C 0.01557 0.61949 0.74573 0.0
H4528 H 0.99372 0.63736 0.69549 0.0
H4529 H 0.9634 0.62306 0.73864 0.0
H4530 H 0.01566 0.61937 0.70481 0.0
H4531 H 0.99899 0.60268 0.69294 0.0
H4532 H 0.00701 0.62357 0.68641 0.0
H4533 H 0.95922 0.60075 0.75512 0.0
H4534 H 0.9633 0.58557 0.7455 0.0
H4535 H 0.9785 0.60216 0.75887 0.0
H4536 H 0.98584 0.55759 0.7169 0.0
H4537 H 0.02527 0.59711 0.74662 0.0
H4538 H 0.97161 0.57926 0.69764 0.0
H4539 H 0.96008 0.57503 0.71634 0.0
H4540 H 0.96346 0.55935 0.70677 0.0
H4541 H 0.02046 0.6285 0.73555 0.0
H4542 H 0.02574 0.6217 0.75457 0.0
H4543 H 0.00707 0.62195 0.75286 0.0
C4544 C 0.37443 0.37238 0.71795 0.0
C4545 C 0.35975 0.36591 0.70847 0.0
C4546 C 0.38277 0.38894 0.72419 0.0
C4547 C 0.37613 0.39915 0.72112 0.0
C4548 C 0.36171 0.3929 0.71093 0.0
C4549 C 0.35377 0.37642 0.70462 0.0
C4550 C 0.39831 0.39528 0.7347 0.0
C4551 C 0.35413 0.40333 0.7075 0.0
C4552 C 0.38471 0.43321 0.7542 0.0
C4553 C 0.39562 0.44744 0.74595 0.0
C4554 C 0.37838 0.41745 0.74627 0.0
C4555 C 0.38335 0.41581 0.72982 0.0
C4556 C 0.3947 0.43007 0.72159 0.0
C4557 C 0.40061 0.44575 0.72971 0.0
C4558 C 0.36615 0.40257 0.75541 0.0
C4559 C 0.40048 0.42877 0.70418 0.0
H4560 H 0.37922 0.36442 0.72085 0.0
H4561 H 0.34245 0.37158 0.6973 0.0
H4562 H 0.40778 0.40735 0.7302 0.0
H4563 H 0.3963 0.39731 0.74821 0.0
H4564 H 0.40288 0.3865 0.73417 0.0
H4565 H 0.34359 0.39706 0.69827 0.0
H4566 H 0.35002 0.40609 0.71962 0.0
H4567 H 0.36313 0.41531 0.70243 0.0
H4568 H 0.38102 0.43445 0.76686 0.0
H4569 H 0.40916 0.4567 0.72335 0.0
H4570 H 0.37062 0.39384 0.7571 0.0
H4571 H 0.35466 0.39592 0.74762 0.0
H4572 H 0.36356 0.40599 0.76814 0.0
H4573 H 0.4054 0.42031 0.70434 0.0
H4574 H 0.40997 0.44096 0.69992 0.0
H4575 H 0.39018 0.42344 0.69467 0.0
C4576 C 0.63745 0.00232 0.69586 0.0
C4577 C 0.6346 0.99621 0.67882 0.0
C4578 C 0.62459 0.99967 0.7061 0.0
C4579 C 0.60856 0.99079 0.69908 0.0
C4580 C 0.60559 0.98404 0.68212 0.0
C4581 C 0.61864 0.98678 0.67223 0.0
C4582 C 0.62819 0.0069 0.72419 0.0
C4583 C 0.58866 0.97449 0.67417 0.0
C4584 C 0.57177 0.97354 0.72631 0.0
C4585 C 0.56697 0.98531 0.72455 0.0
C4586 C 0.58571 0.9755 0.71871 0.0
C4587 C 0.59492 0.98945 0.70894 0.0
C4588 C 0.59034 0.00155 0.70746 0.0
C4589 C 0.57639 0.9993 0.71524 0.0
C4590 C 0.59024 0.96237 0.7206 0.0
C4591 C 0.59982 0.01656 0.69709 0.0
H4592 H 0.64976 0.00955 0.70108 0.0
H4593 H 0.61631 0.98194 0.65912 0.0
H4594 H 0.62524 0.0169 0.7253 0.0
H4595 H 0.62053 0.99734 0.73312 0.0
H4596 H 0.64108 0.01209 0.72824 0.0
H4597 H 0.58833 0.96925 0.66118 0.0
H4598 H 0.58069 0.96425 0.68228 0.0
H4599 H 0.58354 0.98276 0.67328 0.0
H4600 H 0.56438 0.9626 0.73331 0.0
H4601 H 0.5726 0.00831 0.71369 0.0
H4602 H 0.60317 0.96809 0.72476 0.0
H4603 H 0.58864 0.95579 0.70807 0.0
H4604 H 0.58276 0.95315 0.72993 0.0
H4605 H 0.61277 0.02318 0.70134 0.0
H4606 H 0.59525 0.02532 0.69812 0.0
H4607 H 0.59908 0.01264 0.68346 0.0
loop_
_geom_bond_atom_site_label_1
_geom_bond_atom_site_label_2
_geom_bond_distance
_geom_bond_site_symmetry_2
_ccdc_geom_bond_type
Mg0 O1 2.028 1_556 S
Mg0 O7 1.986 1_455 S
Mg0 O9 2.114 . S
Mg0 O10 2.251 . S
Mg0 O13 2.010 1_556 S
O1 Mg0 2.028 1_554 S
O1 C4 1.250 1_455 S
O2 Mg3 2.028 1_554 S
O2 C4 1.248 . S
Mg3 O2 2.028 1_556 S
Mg3 O8 2.032 . S
Mg3 O10 2.079 1_655 S
C4 O1 1.250 1_655 S
C4 O2 1.248 . S
C5 O6 1.264 . S
C5 O13 1.249 . S
O6 C5 1.264 . S
O7 Mg0 1.986 1_655 S
O7 C11 1.246 . S
O8 Mg3 2.032 . S
O8 C11 1.259 . S
O9 Mg0 2.114 . S
O9 C12 1.252 . S
O10 Mg0 2.251 . S
O10 Mg3 2.079 1_455 S
O10 C12 1.273 . S
C11 O7 1.246 . S
C11 O8 1.259 . S
C12 O9 1.252 . S
C12 O10 1.273 . S
O13 Mg0 2.010 1_554 S
O13 C5 1.249 . S
Mg14 O15 2.028 . S
Mg14 O21 1.986 . S
Mg14 O23 2.114 . S
Mg14 O24 2.251 . S
Mg14 O27 2.010 . S
O15 Mg14 2.028 . S
O15 C18 1.250 . S
O16 Mg17 2.028 . S
O16 C18 1.248 . S
Mg17 O16 2.028 . S
Mg17 O22 2.032 . S
Mg17 O24 2.079 . S
C18 O15 1.250 . S
C18 O16 1.248 . S
C19 O20 1.264 . S
C19 O27 1.249 . S
O20 C19 1.264 . S
O21 Mg14 1.986 . S
O21 C25 1.246 . S
O22 Mg17 2.032 . S
O22 C25 1.259 . S
O23 Mg14 2.114 . S
O23 C26 1.252 . S
O24 Mg14 2.251 . S
O24 Mg17 2.079 . S
O24 C26 1.273 . S
C25 O21 1.246 . S
C25 O22 1.259 . S
C26 O23 1.252 . S
C26 O24 1.273 . S
O27 Mg14 2.010 . S
O27 C19 1.249 . S
Mg28 O29 2.064 1_565 S
Mg28 O35 1.983 1_564 S
Mg28 O37 2.102 1_554 S
Mg28 O38 2.227 1_564 S
Mg28 O41 2.028 . S
O29 Mg28 2.064 1_545 S
O29 C32 1.250 . S
O30 Mg31 2.028 1_554 S
O30 C32 1.248 . S
Mg31 O30 2.028 1_556 S
Mg31 O36 2.032 . S
Mg31 O38 2.079 . S
C32 O29 1.250 . S
C32 O30 1.248 . S
C33 O34 1.264 . S
C33 O41 1.249 . S
O34 C33 1.264 . S
O35 Mg28 1.983 1_546 S
O35 C39 1.254 . S
O36 Mg31 2.032 . S
O36 C39 1.259 . S
O37 Mg28 2.102 1_556 S
O37 C40 1.252 . S
O38 Mg28 2.227 1_546 S
O38 Mg31 2.079 . S
O38 C40 1.273 1_545 S
C39 O35 1.254 . S
C39 O36 1.259 . S
C40 O37 1.252 . S
C40 O38 1.273 1_565 S
O41 Mg28 2.028 . S
O41 C33 1.249 . S
Mg42 O43 2.005 1_654 S
Mg42 O49 1.986 1_655 S
Mg42 O51 2.114 . S
Mg42 O52 2.251 1_655 S
Mg42 O55 2.010 . S
O43 Mg42 2.005 1_456 S
O43 C46 1.257 . S
O44 Mg45 2.028 . S
O44 C46 1.248 1_554 S
Mg45 O44 2.028 . S
Mg45 O50 2.032 . S
Mg45 O52 2.079 . S
C46 O43 1.257 . S
C46 O44 1.248 1_556 S
C47 O48 1.264 . S
C47 O55 1.249 . S
O48 C47 1.264 . S
O49 Mg42 1.986 1_455 S
O49 C53 1.246 . S
O50 Mg45 2.032 . S
O50 C53 1.259 . S
O51 Mg42 2.114 . S
O51 C54 1.252 . S
O52 Mg42 2.251 1_455 S
O52 Mg45 2.079 . S
O52 C54 1.273 1_455 S
C53 O49 1.246 . S
C53 O50 1.259 . S
C54 O51 1.252 . S
C54 O52 1.273 1_655 S
O55 Mg42 2.010 . S
O55 C47 1.249 . S
Mg56 O57 2.028 1_556 S
Mg56 O63 1.986 . S
Mg56 O65 2.114 . S
Mg56 O66 2.251 . S
Mg56 O69 2.010 1_556 S
O57 Mg56 2.028 1_554 S
O57 C60 1.250 . S
O58 Mg59 2.028 1_554 S
O58 C60 1.248 . S
Mg59 O58 2.028 1_556 S
Mg59 O64 2.032 . S
Mg59 O66 2.079 . S
C60 O57 1.250 . S
C60 O58 1.248 . S
C61 O62 1.264 . S
C61 O69 1.249 . S
O62 C61 1.264 . S
O63 Mg56 1.986 . S
O63 C67 1.246 . S
O64 Mg59 2.032 . S
O64 C67 1.259 . S
O65 Mg56 2.114 . S
O65 C68 1.252 . S
O66 Mg56 2.251 . S
O66 Mg59 2.079 . S
O66 C68 1.273 . S
C67 O63 1.246 . S
C67 O64 1.259 . S
C68 O65 1.252 . S
C68 O66 1.273 . S
O69 Mg56 2.010 1_554 S
O69 C61 1.249 . S
Mg70 O71 2.083 . S
Mg70 O77 1.986 1_545 S
Mg70 O79 2.114 . S
Mg70 O80 2.251 . S
Mg70 O83 2.010 . S
O71 Mg70 2.083 . S
O71 C74 1.239 1_544 S
O72 Mg73 2.028 . S
O72 C74 1.248 1_554 S
Mg73 O72 2.028 . S
Mg73 O78 2.032 . S
Mg73 O80 2.079 1_565 S
C74 O71 1.239 1_566 S
C74 O72 1.248 1_556 S
C75 O76 1.264 . S
C75 O83 1.249 . S
O76 C75 1.264 . S
O77 Mg70 1.986 1_565 S
O77 C81 1.246 . S
O78 Mg73 2.032 . S
O78 C81 1.259 . S
O79 Mg70 2.114 . S
O79 C82 1.252 . S
O80 Mg70 2.251 . S
O80 Mg73 2.079 1_545 S
O80 C82 1.273 . S
C81 O77 1.246 . S
C81 O78 1.259 . S
C82 O79 1.252 . S
C82 O80 1.273 . S
O83 Mg70 2.010 . S
O83 C75 1.249 . S
Mg84 O85 2.028 . S
Mg84 O91 1.986 . S
Mg84 O93 2.114 . S
Mg84 O94 2.251 . S
Mg84 O97 2.010 . S
O85 Mg84 2.028 . S
O85 C88 1.250 . S
O86 Mg87 2.028 . S
O86 C88 1.248 . S
Mg87 O86 2.028 . S
Mg87 O92 2.032 . S
Mg87 O94 2.079 . S
C88 O85 1.250 . S
C88 O86 1.248 . S
C89 O90 1.264 . S
C89 O97 1.249 . S
O90 C89 1.264 . S
O91 Mg84 1.986 . S
O91 C95 1.246 . S
O92 Mg87 2.032 . S
O92 C95 1.259 . S
O93 Mg84 2.114 . S
O93 C96 1.252 . S
O94 Mg84 2.251 . S
O94 Mg87 2.079 . S
O94 C96 1.273 . S
C95 O91 1.246 . S
C95 O92 1.259 . S
C96 O93 1.252 . S
C96 O94 1.273 . S
O97 Mg84 2.010 . S
O97 C89 1.249 . S
Mg98 O99 2.028 . S
Mg98 O105 1.986 1_565 S
Mg98 O107 2.114 . S
Mg98 O108 2.251 . S
Mg98 O111 2.010 . S
O99 Mg98 2.028 . S
O99 C102 1.250 . S
O100 Mg101 2.028 . S
O100 C102 1.248 . S
Mg101 O100 2.028 . S
Mg101 O106 2.032 1_565 S
Mg101 O108 2.079 . S
C102 O99 1.250 . S
C102 O100 1.248 . S
C103 O104 1.264 . S
C103 O111 1.249 . S
O104 C103 1.264 . S
O105 Mg98 1.986 1_545 S
O105 C109 1.246 . S
O106 Mg101 2.032 1_545 S
O106 C109 1.259 . S
O107 Mg98 2.114 . S
O107 C110 1.252 . S
O108 Mg98 2.251 . S
O108 Mg101 2.079 . S
O108 C110 1.273 . S
C109 O105 1.246 . S
C109 O106 1.259 . S
C110 O107 1.252 . S
C110 O108 1.273 . S
O111 Mg98 2.010 . S
O111 C103 1.249 . S
Mg112 O113 2.028 . S
Mg112 O119 1.986 . S
Mg112 O121 2.114 . S
Mg112 O122 2.251 . S
Mg112 O125 2.010 1_455 S
O113 Mg112 2.028 . S
O113 C116 1.250 . S
O114 Mg115 2.028 . S
O114 C116 1.248 . S
Mg115 O114 2.028 . S
Mg115 O120 2.032 . S
Mg115 O122 2.079 . S
C116 O113 1.250 . S
C116 O114 1.248 . S
C117 O118 1.264 . S
C117 O125 1.249 . S
O118 C117 1.264 . S
O119 Mg112 1.986 . S
O119 C123 1.246 . S
O120 Mg115 2.032 . S
O120 C123 1.259 . S
O121 Mg112 2.114 . S
O121 C124 1.252 . S
O122 Mg112 2.251 . S
O122 Mg115 2.079 . S
O122 C124 1.273 . S
C123 O119 1.246 . S
C123 O120 1.259 . S
C124 O121 1.252 . S
C124 O122 1.273 . S
O125 Mg112 2.010 1_655 S
O125 C117 1.249 . S
Mg126 O127 2.028 . S
Mg126 O133 1.986 1_565 S
Mg126 O135 2.114 . S
Mg126 O136 2.251 . S
Mg126 O139 2.010 . S
O127 Mg126 2.028 . S
O127 C130 1.250 . S
O128 Mg129 2.028 . S
O128 C130 1.248 . S
Mg129 O128 2.028 . S
Mg129 O134 2.032 1_565 S
Mg129 O136 2.079 . S
C130 O127 1.250 . S
C130 O128 1.248 . S
C131 O132 1.264 . S
C131 O139 1.249 . S
O132 C131 1.264 . S
O133 Mg126 1.986 1_545 S
O133 C137 1.246 . S
O134 Mg129 2.032 1_545 S
O134 C137 1.259 . S
O135 Mg126 2.114 . S
O135 C138 1.252 . S
O136 Mg126 2.251 . S
O136 Mg129 2.079 . S
O136 C138 1.273 . S
C137 O133 1.246 . S
C137 O134 1.259 . S
C138 O135 1.252 . S
C138 O136 1.273 . S
O139 Mg126 2.010 . S
O139 C131 1.249 . S
Mg140 O141 2.028 . S
Mg140 O147 1.986 . S
Mg140 O149 2.114 . S
Mg140 O150 2.251 . S
Mg140 O153 2.010 1_455 S
O141 Mg140 2.028 . S
O141 C144 1.250 . S
O142 Mg143 2.028 . S
O142 C144 1.248 . S
Mg143 O142 2.028 . S
Mg143 O148 2.032 . S
Mg143 O150 2.079 . S
C144 O141 1.250 . S
C144 O142 1.248 . S
C145 O146 1.264 . S
C145 O153 1.249 . S
O146 C145 1.264 . S
O147 Mg140 1.986 . S
O147 C151 1.246 . S
O148 Mg143 2.032 . S
O148 C151 1.259 . S
O149 Mg140 2.114 . S
O149 C152 1.252 . S
O150 Mg140 2.251 . S
O150 Mg143 2.079 . S
O150 C152 1.273 . S
C151 O147 1.246 . S
C151 O148 1.259 . S
C152 O149 1.252 . S
C152 O150 1.273 . S
O153 Mg140 2.010 1_655 S
O153 C145 1.249 . S
Mg154 O155 2.028 . S
Mg154 O161 1.986 . S
Mg154 O163 2.114 . S
Mg154 O164 2.251 . S
Mg154 O167 2.010 . S
O155 Mg154 2.028 . S
O155 C158 1.250 . S
O156 Mg157 2.028 . S
O156 C158 1.248 . S
Mg157 O156 2.028 . S
Mg157 O162 2.032 . S
Mg157 O164 2.079 . S
C158 O155 1.250 . S
C158 O156 1.248 . S
C159 O160 1.264 . S
C159 O167 1.249 . S
O160 C159 1.264 . S
O161 Mg154 1.986 . S
O161 C165 1.246 . S
O162 Mg157 2.032 . S
O162 C165 1.259 . S
O163 Mg154 2.114 . S
O163 C166 1.252 . S
O164 Mg154 2.251 . S
O164 Mg157 2.079 . S
O164 C166 1.273 . S
C165 O161 1.246 . S
C165 O162 1.259 . S
C166 O163 1.252 . S
C166 O164 1.273 . S
O167 Mg154 2.010 . S
O167 C159 1.249 . S
Mg168 O169 2.028 . S
Mg168 O175 1.986 1_545 S
Mg168 O177 2.114 . S
Mg168 O178 2.251 . S
Mg168 O181 2.010 . S
O169 Mg168 2.028 . S
O169 C172 1.250 . S
O170 Mg171 2.028 . S
O170 C172 1.248 . S
Mg171 O170 2.028 . S
Mg171 O176 1.983 1_545 S
Mg171 O178 2.079 . S
C172 O169 1.250 . S
C172 O170 1.248 . S
C173 O174 1.264 . S
C173 O181 1.249 . S
O174 C173 1.264 . S
O175 Mg168 1.986 1_565 S
O175 C179 1.246 . S
O176 Mg171 1.983 1_565 S
O176 C179 1.304 . S
O177 Mg168 2.114 . S
O177 C180 1.252 . S
O178 Mg168 2.251 . S
O178 Mg171 2.079 . S
O178 C180 1.273 . S
C179 O175 1.246 . S
C179 O176 1.304 . S
C180 O177 1.252 . S
C180 O178 1.273 . S
O181 Mg168 2.010 . S
O181 C173 1.249 . S
Mg182 O183 2.028 . S
Mg182 O189 1.986 . S
Mg182 O191 2.114 . S
Mg182 O192 2.251 . S
Mg182 O195 2.010 1_655 S
O183 Mg182 2.028 . S
O183 C186 1.250 . S
O184 Mg185 2.028 . S
O184 C186 1.248 . S
Mg185 O184 2.028 . S
Mg185 O190 2.032 . S
Mg185 O192 2.079 . S
C186 O183 1.250 . S
C186 O184 1.248 . S
C187 O188 1.264 . S
C187 O195 1.249 . S
O188 C187 1.264 . S
O189 Mg182 1.986 . S
O189 C193 1.246 . S
O190 Mg185 2.032 . S
O190 C193 1.259 . S
O191 Mg182 2.114 . S
O191 C194 1.252 . S
O192 Mg182 2.251 . S
O192 Mg185 2.079 . S
O192 C194 1.273 . S
C193 O189 1.246 . S
C193 O190 1.259 . S
C194 O191 1.252 . S
C194 O192 1.273 . S
O195 Mg182 2.010 1_455 S
O195 C187 1.249 . S
Mg196 O197 2.028 . S
Mg196 O203 1.986 . S
Mg196 O205 2.114 . S
Mg196 O206 2.251 . S
Mg196 O209 2.010 . S
O197 Mg196 2.028 . S
O197 C200 1.250 . S
O198 Mg199 2.028 . S
O198 C200 1.248 . S
Mg199 O198 2.028 . S
Mg199 O204 2.032 . S
Mg199 O206 2.079 . S
C200 O197 1.250 . S
C200 O198 1.248 . S
C201 O202 1.264 . S
C201 O209 1.249 . S
O202 C201 1.264 . S
O203 Mg196 1.986 . S
O203 C207 1.246 . S
O204 Mg199 2.032 . S
O204 C207 1.259 . S
O205 Mg196 2.114 . S
O205 C208 1.252 . S
O206 Mg196 2.251 . S
O206 Mg199 2.079 . S
O206 C208 1.273 . S
C207 O203 1.246 . S
C207 O204 1.259 . S
C208 O205 1.252 . S
C208 O206 1.273 . S
O209 Mg196 2.010 . S
O209 C201 1.249 . S
Mg210 O211 2.028 . S
Mg210 O217 1.986 . S
Mg210 O219 2.114 . S
Mg210 O220 2.251 . S
Mg210 O223 2.010 . S
O211 Mg210 2.028 . S
O211 C214 1.250 . S
O212 Mg213 2.028 . S
O212 C214 1.248 . S
Mg213 O212 2.028 . S
Mg213 O218 2.032 . S
Mg213 O220 2.079 . S
C214 O211 1.250 . S
C214 O212 1.248 . S
C215 O216 1.264 . S
C215 O223 1.249 . S
O216 C215 1.264 . S
O217 Mg210 1.986 . S
O217 C221 1.246 . S
O218 Mg213 2.032 . S
O218 C221 1.259 . S
O219 Mg210 2.114 . S
O219 C222 1.252 . S
O220 Mg210 2.251 . S
O220 Mg213 2.079 . S
O220 C222 1.273 . S
C221 O217 1.246 . S
C221 O218 1.259 . S
C222 O219 1.252 . S
C222 O220 1.273 . S
O223 Mg210 2.010 . S
O223 C215 1.249 . S
Mg224 O225 2.028 . S
Mg224 O231 1.986 1_545 S
Mg224 O233 2.114 . S
Mg224 O234 2.251 . S
Mg224 O237 2.010 . S
O225 Mg224 2.028 . S
O225 C228 1.250 . S
O226 Mg227 2.028 . S
O226 C228 1.248 . S
Mg227 O226 2.028 . S
Mg227 O232 2.032 1_545 S
Mg227 O234 2.079 . S
C228 O225 1.250 . S
C228 O226 1.248 . S
C229 O230 1.264 . S
C229 O237 1.249 . S
O230 C229 1.264 . S
O231 Mg224 1.986 1_565 S
O231 C235 1.246 . S
O232 Mg227 2.032 1_565 S
O232 C235 1.259 . S
O233 Mg224 2.114 . S
O233 C236 1.252 . S
O234 Mg224 2.251 . S
O234 Mg227 2.079 . S
O234 C236 1.273 . S
C235 O231 1.246 . S
C235 O232 1.259 . S
C236 O233 1.252 . S
C236 O234 1.273 . S
O237 Mg224 2.010 . S
O237 C229 1.249 . S
Mg238 O239 2.028 . S
Mg238 O245 1.986 . S
Mg238 O247 2.114 . S
Mg238 O248 2.251 . S
Mg238 O251 2.010 1_655 S
O239 Mg238 2.028 . S
O239 C242 1.250 . S
O240 Mg241 2.028 . S
O240 C242 1.248 . S
Mg241 O240 2.028 . S
Mg241 O246 2.032 . S
Mg241 O248 2.079 . S
C242 O239 1.250 . S
C242 O240 1.248 . S
C243 O244 1.264 . S
C243 O251 1.249 . S
O244 C243 1.264 . S
O245 Mg238 1.986 . S
O245 C249 1.246 . S
O246 Mg241 2.032 . S
O246 C249 1.259 . S
O247 Mg238 2.114 . S
O247 C250 1.252 . S
O248 Mg238 2.251 . S
O248 Mg241 2.079 . S
O248 C250 1.273 . S
C249 O245 1.246 . S
C249 O246 1.259 . S
C250 O247 1.252 . S
C250 O248 1.273 . S
O251 Mg238 2.010 1_455 S
O251 C243 1.249 . S
C252 C253 1.560 . S
C252 H313 0.959 . S
C252 H314 0.959 . S
C252 H315 0.960 . S
C253 C252 1.560 . S
C253 O308 1.426 . S
C253 H312 0.980 . S
C254 C255 1.407 . S
C254 C259 1.418 . S
C254 O308 1.334 . S
C255 C254 1.407 . S
C255 C256 1.360 . S
C255 H316 0.929 . S
C256 C255 1.360 . S
C256 C257 1.401 . S
C256 C260 1.527 . S
C257 C256 1.401 . S
C257 C258 1.405 . S
C257 C290 1.587 . S
C258 C257 1.405 . S
C258 C259 1.332 . S
C258 C261 1.496 . S
C259 C254 1.418 . S
C259 C258 1.332 . S
C259 H317 0.929 . S
C260 C256 1.527 . S
C260 H318 0.959 . S
C260 H319 0.961 . S
C260 H320 0.961 . S
C261 C258 1.496 . S
C261 H321 0.960 . S
C261 H322 0.960 . S
C261 H323 0.961 . S
C262 C263 1.517 . S
C262 H325 0.961 . S
C262 H326 0.960 . S
C262 H327 0.959 . S
C263 C262 1.517 . S
C263 O311 1.468 . S
C263 H324 0.980 . S
C264 C265 1.349 . S
C264 C269 1.367 . S
C264 O311 1.408 . S
C265 C264 1.349 . S
C265 C266 1.407 . S
C265 H328 0.930 . S
C266 C265 1.407 . S
C266 C267 1.449 . S
C266 C270 1.535 . S
C267 C266 1.449 . S
C267 C268 1.384 . S
C267 C292 1.553 . S
C268 C267 1.384 . S
C268 C269 1.364 . S
C268 C271 1.450 . S
C269 C264 1.367 . S
C269 C268 1.364 . S
C269 H329 0.931 . S
C270 C266 1.535 . S
C270 H330 0.959 . S
C270 H331 0.961 . S
C270 H332 0.959 . S
C271 C268 1.450 . S
C271 H333 0.960 . S
C271 H334 0.960 . S
C271 H335 0.960 . S
C272 C273 1.309 . S
C272 C277 1.304 . S
C272 O310 1.435 . S
C273 C272 1.309 . S
C273 C274 1.476 . S
C273 H337 0.930 . S
C274 C273 1.476 . S
C274 C275 1.400 . S
C274 C278 1.567 . S
C275 C274 1.400 . S
C275 C276 1.373 . S
C275 C297 1.432 . S
C276 C275 1.373 . S
C276 C277 1.339 . S
C276 C279 1.530 . S
C277 C272 1.304 . S
C277 C276 1.339 . S
C277 H338 0.930 . S
C278 C274 1.567 . S
C278 H339 0.961 . S
C278 H340 0.960 . S
C278 H341 0.958 . S
C279 C276 1.530 . S
C279 H342 0.961 . S
C279 H343 0.960 . S
C279 H344 0.960 . S
C280 C281 1.530 . S
C280 H346 0.961 . S
C280 H347 0.961 . S
C280 H348 0.959 . S
C281 C280 1.530 . S
C281 O309 1.412 . S
C281 H345 0.980 . S
C282 C283 1.288 . S
C282 C287 1.377 . S
C282 O309 1.393 . S
C283 C282 1.288 . S
C283 C284 1.369 . S
C283 H349 0.932 . S
C284 C283 1.369 . S
C284 C285 1.398 . S
C284 C288 1.527 . S
C285 C284 1.398 . S
C285 C286 1.380 . S
C285 C299 1.497 . S
C286 C285 1.380 . S
C286 C287 1.383 . S
C286 C289 1.603 . S
C287 C282 1.377 . S
C287 C286 1.383 . S
C287 H350 0.929 . S
C288 C284 1.527 . S
C288 H351 0.961 . S
C288 H352 0.959 . S
C288 H353 0.959 . S
C289 C286 1.603 . S
C289 H354 0.960 . S
C289 H355 0.962 . S
C289 H356 0.961 . S
C290 C257 1.587 . S
C290 C291 1.360 . S
C290 C303 1.412 . S
C291 C290 1.360 . S
C291 C292 1.365 . S
C291 H357 0.929 . S
C292 C267 1.553 . S
C292 C291 1.365 . S
C292 C293 1.404 . S
C293 C292 1.404 . S
C293 C294 1.395 . S
C293 C304 1.451 . S
C294 C293 1.395 . S
C294 C295 1.322 . S
C294 H358 0.930 . S
C295 C294 1.322 . S
C295 C296 1.459 . S
C295 H359 0.929 . S
C296 C295 1.459 . S
C296 C297 1.445 . S
C296 C305 1.395 . S
C297 C275 1.432 . S
C297 C296 1.445 . S
C297 C298 1.370 . S
C298 C297 1.370 . S
C298 C299 1.438 . S
C298 H360 0.930 . S
C299 C285 1.497 . S
C299 C298 1.438 . S
C299 C300 1.360 . S
C300 C299 1.360 . S
C300 C301 1.401 . S
C300 C305 1.446 . S
C301 C300 1.401 . S
C301 C302 1.347 . S
C301 H361 0.929 . S
C302 C301 1.347 . S
C302 C303 1.455 . S
C302 H362 0.930 . S
C303 C290 1.412 . S
C303 C302 1.455 . S
C303 C304 1.331 . S
C304 C293 1.451 . S
C304 C303 1.331 . S
C304 C305 1.497 . S
C305 C296 1.395 . S
C305 C300 1.446 . S
C305 C304 1.497 . S
C306 C307 1.582 . S
C306 H363 0.962 . S
C306 H364 0.959 . S
C306 H365 0.958 . S
C307 C306 1.582 . S
C307 O310 1.458 . S
C307 H336 0.980 . S
O308 C253 1.426 . S
O308 C254 1.334 . S
O309 C281 1.412 . S
O309 C282 1.393 . S
O310 C272 1.435 . S
O310 C307 1.458 . S
O311 C263 1.468 . S
O311 C264 1.408 . S
H312 C253 0.980 . S
H313 C252 0.959 . S
H314 C252 0.959 . S
H315 C252 0.960 . S
H316 C255 0.929 . S
H317 C259 0.929 . S
H318 C260 0.959 . S
H319 C260 0.961 . S
H320 C260 0.961 . S
H321 C261 0.960 . S
H322 C261 0.960 . S
H323 C261 0.961 . S
H324 C263 0.980 . S
H325 C262 0.961 . S
H326 C262 0.960 . S
H327 C262 0.959 . S
H328 C265 0.930 . S
H329 C269 0.931 . S
H330 C270 0.959 . S
H331 C270 0.961 . S
H332 C270 0.959 . S
H333 C271 0.960 . S
H334 C271 0.960 . S
H335 C271 0.960 . S
H336 C307 0.980 . S
H337 C273 0.930 . S
H338 C277 0.930 . S
H339 C278 0.961 . S
H340 C278 0.960 . S
H341 C278 0.958 . S
H342 C279 0.961 . S
H343 C279 0.960 . S
H344 C279 0.960 . S
H345 C281 0.980 . S
H346 C280 0.961 . S
H347 C280 0.961 . S
H348 C280 0.959 . S
H349 C283 0.932 . S
H350 C287 0.929 . S
H351 C288 0.961 . S
H352 C288 0.959 . S
H353 C288 0.959 . S
H354 C289 0.960 . S
H355 C289 0.962 . S
H356 C289 0.961 . S
H357 C291 0.929 . S
H358 C294 0.930 . S
H359 C295 0.929 . S
H360 C298 0.930 . S
H361 C301 0.929 . S
H362 C302 0.930 . S
H363 C306 0.962 . S
H364 C306 0.959 . S
H365 C306 0.958 . S
C366 C367 1.560 . S
C366 H427 0.959 . S
C366 H428 0.959 . S
C366 H429 0.960 . S
C367 C366 1.560 . S
C367 O422 1.426 . S
C367 H426 0.980 . S
C368 C369 1.407 . S
C368 C373 1.418 . S
C368 O422 1.334 . S
C369 C368 1.407 . S
C369 C370 1.360 . S
C369 H430 0.929 . S
C370 C369 1.360 . S
C370 C371 1.401 . S
C370 C374 1.527 . S
C371 C370 1.401 . S
C371 C372 1.405 . S
C371 C404 1.587 . S
C372 C371 1.405 . S
C372 C373 1.332 . S
C372 C375 1.496 . S
C373 C368 1.418 . S
C373 C372 1.332 . S
C373 H431 0.929 . S
C374 C370 1.527 . S
C374 H432 0.959 . S
C374 H433 0.961 . S
C374 H434 0.961 . S
C375 C372 1.496 . S
C375 H435 0.960 . S
C375 H436 0.960 . S
C375 H437 0.961 . S
C376 C377 1.517 . S
C376 H439 0.961 . S
C376 H440 0.960 . S
C376 H441 0.959 . S
C377 C376 1.517 . S
C377 O425 1.468 . S
C377 H438 0.980 . S
C378 C379 1.349 . S
C378 C383 1.367 . S
C378 O425 1.408 . S
C379 C378 1.349 . S
C379 C380 1.407 . S
C379 H442 0.930 . S
C380 C379 1.407 . S
C380 C381 1.449 . S
C380 C384 1.535 . S
C381 C380 1.449 . S
C381 C382 1.384 . S
C381 C406 1.553 . S
C382 C381 1.384 . S
C382 C383 1.364 . S
C382 C385 1.450 . S
C383 C378 1.367 . S
C383 C382 1.364 . S
C383 H443 0.931 . S
C384 C380 1.535 . S
C384 H444 0.959 . S
C384 H445 0.961 . S
C384 H446 0.959 . S
C385 C382 1.450 . S
C385 H447 0.960 . S
C385 H448 0.960 . S
C385 H449 0.960 . S
C386 C387 1.309 . S
C386 C391 1.304 . S
C386 O424 1.435 . S
C387 C386 1.309 . S
C387 C388 1.476 . S
C387 H451 0.930 . S
C388 C387 1.476 . S
C388 C389 1.400 . S
C388 C392 1.567 . S
C389 C388 1.400 . S
C389 C390 1.373 . S
C389 C411 1.432 . S
C390 C389 1.373 . S
C390 C391 1.339 . S
C390 C393 1.530 . S
C391 C386 1.304 . S
C391 C390 1.339 . S
C391 H452 0.930 . S
C392 C388 1.567 . S
C392 H453 0.961 . S
C392 H454 0.960 . S
C392 H455 0.958 . S
C393 C390 1.530 . S
C393 H456 0.961 . S
C393 H457 0.960 . S
C393 H458 0.960 . S
C394 C395 1.530 . S
C394 H460 0.961 . S
C394 H461 0.961 . S
C394 H462 0.959 . S
C395 C394 1.530 . S
C395 O423 1.412 . S
C395 H459 0.980 . S
C396 C397 1.288 . S
C396 C401 1.377 . S
C396 O423 1.393 . S
C397 C396 1.288 . S
C397 C398 1.369 . S
C397 H463 0.932 . S
C398 C397 1.369 . S
C398 C399 1.398 . S
C398 C402 1.527 . S
C399 C398 1.398 . S
C399 C400 1.380 . S
C399 C413 1.497 . S
C400 C399 1.380 . S
C400 C401 1.383 . S
C400 C403 1.603 . S
C401 C396 1.377 . S
C401 C400 1.383 . S
C401 H464 0.929 . S
C402 C398 1.527 . S
C402 H465 0.961 . S
C402 H466 0.959 . S
C402 H467 0.959 . S
C403 C400 1.603 . S
C403 H468 0.960 . S
C403 H469 0.962 . S
C403 H470 0.961 . S
C404 C371 1.587 . S
C404 C405 1.360 . S
C404 C417 1.412 . S
C405 C404 1.360 . S
C405 C406 1.365 . S
C405 H471 0.929 . S
C406 C381 1.553 . S
C406 C405 1.365 . S
C406 C407 1.404 . S
C407 C406 1.404 . S
C407 C408 1.395 . S
C407 C418 1.451 . S
C408 C407 1.395 . S
C408 C409 1.322 . S
C408 H472 0.930 . S
C409 C408 1.322 . S
C409 C410 1.459 . S
C409 H473 0.929 . S
C410 C409 1.459 . S
C410 C411 1.445 . S
C410 C419 1.395 . S
C411 C389 1.432 . S
C411 C410 1.445 . S
C411 C412 1.370 . S
C412 C411 1.370 . S
C412 C413 1.438 . S
C412 H474 0.930 . S
C413 C399 1.497 . S
C413 C412 1.438 . S
C413 C414 1.360 . S
C414 C413 1.360 . S
C414 C415 1.401 . S
C414 C419 1.446 . S
C415 C414 1.401 . S
C415 C416 1.347 . S
C415 H475 0.929 . S
C416 C415 1.347 . S
C416 C417 1.455 . S
C416 H476 0.930 . S
C417 C404 1.412 . S
C417 C416 1.455 . S
C417 C418 1.331 . S
C418 C407 1.451 . S
C418 C417 1.331 . S
C418 C419 1.497 . S
C419 C410 1.395 . S
C419 C414 1.446 . S
C419 C418 1.497 . S
C420 C421 1.582 . S
C420 H477 0.962 . S
C420 H478 0.959 . S
C420 H479 0.958 . S
C421 C420 1.582 . S
C421 O424 1.458 . S
C421 H450 0.980 . S
O422 C367 1.426 . S
O422 C368 1.334 . S
O423 C395 1.412 . S
O423 C396 1.393 . S
O424 C386 1.435 . S
O424 C421 1.458 . S
O425 C377 1.468 . S
O425 C378 1.408 . S
H426 C367 0.980 . S
H427 C366 0.959 . S
H428 C366 0.959 . S
H429 C366 0.960 . S
H430 C369 0.929 . S
H431 C373 0.929 . S
H432 C374 0.959 . S
H433 C374 0.961 . S
H434 C374 0.961 . S
H435 C375 0.960 . S
H436 C375 0.960 . S
H437 C375 0.961 . S
H438 C377 0.980 . S
H439 C376 0.961 . S
H440 C376 0.960 . S
H441 C376 0.959 . S
H442 C379 0.930 . S
H443 C383 0.931 . S
H444 C384 0.959 . S
H445 C384 0.961 . S
H446 C384 0.959 . S
H447 C385 0.960 . S
H448 C385 0.960 . S
H449 C385 0.960 . S
H450 C421 0.980 . S
H451 C387 0.930 . S
H452 C391 0.930 . S
H453 C392 0.961 . S
H454 C392 0.960 . S
H455 C392 0.958 . S
H456 C393 0.961 . S
H457 C393 0.960 . S
H458 C393 0.960 . S
H459 C395 0.980 . S
H460 C394 0.961 . S
H461 C394 0.961 . S
H462 C394 0.959 . S
H463 C397 0.932 . S
H464 C401 0.929 . S
H465 C402 0.961 . S
H466 C402 0.959 . S
H467 C402 0.959 . S
H468 C403 0.960 . S
H469 C403 0.962 . S
H470 C403 0.961 . S
H471 C405 0.929 . S
H472 C408 0.930 . S
H473 C409 0.929 . S
H474 C412 0.930 . S
H475 C415 0.929 . S
H476 C416 0.930 . S
H477 C420 0.962 . S
H478 C420 0.959 . S
H479 C420 0.958 . S
C480 C481 1.560 . S
C480 H541 0.959 . S
C480 H542 0.959 . S
C480 H543 0.960 . S
C481 C480 1.560 . S
C481 O536 1.426 . S
C481 H540 0.980 . S
C482 C483 1.407 . S
C482 C487 1.418 . S
C482 O536 1.334 . S
C483 C482 1.407 . S
C483 C484 1.360 . S
C483 H544 0.929 . S
C484 C483 1.360 . S
C484 C485 1.401 . S
C484 C488 1.527 . S
C485 C484 1.401 . S
C485 C486 1.405 . S
C485 C518 1.587 . S
C486 C485 1.405 . S
C486 C487 1.332 . S
C486 C489 1.496 . S
C487 C482 1.418 . S
C487 C486 1.332 . S
C487 H545 0.929 . S
C488 C484 1.527 . S
C488 H546 0.959 . S
C488 H547 0.961 . S
C488 H548 0.961 . S
C489 C486 1.496 . S
C489 H549 0.960 . S
C489 H550 0.960 . S
C489 H551 0.961 . S
C490 C491 1.517 . S
C490 H553 0.961 . S
C490 H554 0.960 . S
C490 H555 0.959 . S
C491 C490 1.517 . S
C491 O539 1.468 . S
C491 H552 0.980 . S
C492 C493 1.349 . S
C492 C497 1.367 . S
C492 O539 1.408 . S
C493 C492 1.349 . S
C493 C494 1.407 . S
C493 H556 0.930 . S
C494 C493 1.407 . S
C494 C495 1.449 . S
C494 C498 1.535 . S
C495 C494 1.449 . S
C495 C496 1.384 . S
C495 C520 1.553 . S
C496 C495 1.384 . S
C496 C497 1.364 . S
C496 C499 1.450 . S
C497 C492 1.367 . S
C497 C496 1.364 . S
C497 H557 0.931 . S
C498 C494 1.535 . S
C498 H558 0.959 . S
C498 H559 0.961 . S
C498 H560 0.959 . S
C499 C496 1.450 . S
C499 H561 0.960 . S
C499 H562 0.960 . S
C499 H563 0.960 . S
C500 C501 1.309 . S
C500 C505 1.304 . S
C500 O538 1.435 . S
C501 C500 1.309 . S
C501 C502 1.476 . S
C501 H565 0.930 . S
C502 C501 1.476 . S
C502 C503 1.400 . S
C502 C506 1.567 . S
C503 C502 1.400 . S
C503 C504 1.373 . S
C503 C525 1.432 . S
C504 C503 1.373 . S
C504 C505 1.339 . S
C504 C507 1.530 . S
C505 C500 1.304 . S
C505 C504 1.339 . S
C505 H566 0.930 . S
C506 C502 1.567 . S
C506 H567 0.961 . S
C506 H568 0.960 . S
C506 H569 0.958 . S
C507 C504 1.530 . S
C507 H570 0.961 . S
C507 H571 0.960 . S
C507 H572 0.960 . S
C508 C509 1.530 . S
C508 H574 0.961 . S
C508 H575 0.961 . S
C508 H576 0.959 . S
C509 C508 1.530 . S
C509 O537 1.412 . S
C509 H573 0.980 . S
C510 C511 1.288 . S
C510 C515 1.377 . S
C510 O537 1.393 . S
C511 C510 1.288 . S
C511 C512 1.369 . S
C511 H577 0.932 . S
C512 C511 1.369 . S
C512 C513 1.398 . S
C512 C516 1.527 . S
C513 C512 1.398 . S
C513 C514 1.380 . S
C513 C527 1.497 . S
C514 C513 1.380 . S
C514 C515 1.383 . S
C514 C517 1.603 . S
C515 C510 1.377 . S
C515 C514 1.383 . S
C515 H578 0.929 . S
C516 C512 1.527 . S
C516 H579 0.961 . S
C516 H580 0.959 . S
C516 H581 0.959 . S
C517 C514 1.603 . S
C517 H582 0.960 . S
C517 H583 0.962 . S
C517 H584 0.961 . S
C518 C485 1.587 . S
C518 C519 1.360 . S
C518 C531 1.412 . S
C519 C518 1.360 . S
C519 C520 1.365 . S
C519 H585 0.929 . S
C520 C495 1.553 . S
C520 C519 1.365 . S
C520 C521 1.404 . S
C521 C520 1.404 . S
C521 C522 1.395 . S
C521 C532 1.451 . S
C522 C521 1.395 . S
C522 C523 1.322 . S
C522 H586 0.930 . S
C523 C522 1.322 . S
C523 C524 1.459 . S
C523 H587 0.929 . S
C524 C523 1.459 . S
C524 C525 1.445 . S
C524 C533 1.395 . S
C525 C503 1.432 . S
C525 C524 1.445 . S
C525 C526 1.370 . S
C526 C525 1.370 . S
C526 C527 1.438 . S
C526 H588 0.930 . S
C527 C513 1.497 . S
C527 C526 1.438 . S
C527 C528 1.360 . S
C528 C527 1.360 . S
C528 C529 1.401 . S
C528 C533 1.446 . S
C529 C528 1.401 . S
C529 C530 1.347 . S
C529 H589 0.929 . S
C530 C529 1.347 . S
C530 C531 1.455 . S
C530 H590 0.930 . S
C531 C518 1.412 . S
C531 C530 1.455 . S
C531 C532 1.331 . S
C532 C521 1.451 . S
C532 C531 1.331 . S
C532 C533 1.497 . S
C533 C524 1.395 . S
C533 C528 1.446 . S
C533 C532 1.497 . S
C534 C535 1.582 . S
C534 H591 0.962 . S
C534 H592 0.959 . S
C534 H593 0.958 . S
C535 C534 1.582 . S
C535 O538 1.458 . S
C535 H564 0.980 . S
O536 C481 1.426 . S
O536 C482 1.334 . S
O537 C509 1.412 . S
O537 C510 1.393 . S
O538 C500 1.435 . S
O538 C535 1.458 . S
O539 C491 1.468 . S
O539 C492 1.408 . S
H540 C481 0.980 . S
H541 C480 0.959 . S
H542 C480 0.959 . S
H543 C480 0.960 . S
H544 C483 0.929 . S
H545 C487 0.929 . S
H546 C488 0.959 . S
H547 C488 0.961 . S
H548 C488 0.961 . S
H549 C489 0.960 . S
H550 C489 0.960 . S
H551 C489 0.961 . S
H552 C491 0.980 . S
H553 C490 0.961 . S
H554 C490 0.960 . S
H555 C490 0.959 . S
H556 C493 0.930 . S
H557 C497 0.931 . S
H558 C498 0.959 . S
H559 C498 0.961 . S
H560 C498 0.959 . S
H561 C499 0.960 . S
H562 C499 0.960 . S
H563 C499 0.960 . S
H564 C535 0.980 . S
H565 C501 0.930 . S
H566 C505 0.930 . S
H567 C506 0.961 . S
H568 C506 0.960 . S
H569 C506 0.958 . S
H570 C507 0.961 . S
H571 C507 0.960 . S
H572 C507 0.960 . S
H573 C509 0.980 . S
H574 C508 0.961 . S
H575 C508 0.961 . S
H576 C508 0.959 . S
H577 C511 0.932 . S
H578 C515 0.929 . S
H579 C516 0.961 . S
H580 C516 0.959 . S
H581 C516 0.959 . S
H582 C517 0.960 . S
H583 C517 0.962 . S
H584 C517 0.961 . S
H585 C519 0.929 . S
H586 C522 0.930 . S
H587 C523 0.929 . S
H588 C526 0.930 . S
H589 C529 0.929 . S
H590 C530 0.930 . S
H591 C534 0.962 . S
H592 C534 0.959 . S
H593 C534 0.958 . S
C594 C595 1.560 . S
C594 H655 0.959 . S
C594 H656 0.959 . S
C594 H657 0.960 . S
C595 C594 1.560 . S
C595 O650 1.426 . S
C595 H654 0.980 . S
C596 C597 1.407 . S
C596 C601 1.418 . S
C596 O650 1.334 . S
C597 C596 1.407 . S
C597 C598 1.360 . S
C597 H658 0.929 . S
C598 C597 1.360 . S
C598 C599 1.401 . S
C598 C602 1.527 . S
C599 C598 1.401 . S
C599 C600 1.405 . S
C599 C632 1.587 . S
C600 C599 1.405 . S
C600 C601 1.332 . S
C600 C603 1.496 . S
C601 C596 1.418 . S
C601 C600 1.332 . S
C601 H659 0.929 . S
C602 C598 1.527 . S
C602 H660 0.959 . S
C602 H661 0.961 . S
C602 H662 0.961 . S
C603 C600 1.496 . S
C603 H663 0.960 . S
C603 H664 0.960 . S
C603 H665 0.961 . S
C604 C605 1.517 . S
C604 H667 0.961 . S
C604 H668 0.960 . S
C604 H669 0.959 . S
C605 C604 1.517 . S
C605 O653 1.468 . S
C605 H666 0.980 . S
C606 C607 1.349 . S
C606 C611 1.367 . S
C606 O653 1.408 . S
C607 C606 1.349 . S
C607 C608 1.407 . S
C607 H670 0.930 . S
C608 C607 1.407 . S
C608 C609 1.449 . S
C608 C612 1.535 . S
C609 C608 1.449 . S
C609 C610 1.384 . S
C609 C634 1.553 . S
C610 C609 1.384 . S
C610 C611 1.364 . S
C610 C613 1.450 . S
C611 C606 1.367 . S
C611 C610 1.364 . S
C611 H671 0.931 . S
C612 C608 1.535 . S
C612 H672 0.959 . S
C612 H673 0.961 . S
C612 H674 0.959 . S
C613 C610 1.450 . S
C613 H675 0.960 . S
C613 H676 0.960 . S
C613 H677 0.960 . S
C614 C615 1.309 . S
C614 C619 1.304 . S
C614 O652 1.435 . S
C615 C614 1.309 . S
C615 C616 1.476 . S
C615 H679 0.930 . S
C616 C615 1.476 . S
C616 C617 1.400 . S
C616 C620 1.567 . S
C617 C616 1.400 . S
C617 C618 1.373 . S
C617 C639 1.432 . S
C618 C617 1.373 . S
C618 C619 1.339 . S
C618 C621 1.530 . S
C619 C614 1.304 . S
C619 C618 1.339 . S
C619 H680 0.930 . S
C620 C616 1.567 . S
C620 H681 0.961 . S
C620 H682 0.960 . S
C620 H683 0.958 . S
C621 C618 1.530 . S
C621 H684 0.961 . S
C621 H685 0.960 . S
C621 H686 0.960 . S
C622 C623 1.530 . S
C622 H688 0.961 . S
C622 H689 0.961 . S
C622 H690 0.959 . S
C623 C622 1.530 . S
C623 O651 1.412 . S
C623 H687 0.980 . S
C624 C625 1.288 . S
C624 C629 1.377 . S
C624 O651 1.393 . S
C625 C624 1.288 . S
C625 C626 1.369 . S
C625 H691 0.932 . S
C626 C625 1.369 . S
C626 C627 1.398 . S
C626 C630 1.527 . S
C627 C626 1.398 . S
C627 C628 1.380 . S
C627 C641 1.497 . S
C628 C627 1.380 . S
C628 C629 1.383 . S
C628 C631 1.603 . S
C629 C624 1.377 . S
C629 C628 1.383 . S
C629 H692 0.929 . S
C630 C626 1.527 . S
C630 H693 0.961 . S
C630 H694 0.959 . S
C630 H695 0.959 . S
C631 C628 1.603 . S
C631 H696 0.960 . S
C631 H697 0.962 . S
C631 H698 0.961 . S
C632 C599 1.587 . S
C632 C633 1.360 . S
C632 C645 1.412 . S
C633 C632 1.360 . S
C633 C634 1.365 . S
C633 H699 0.929 . S
C634 C609 1.553 . S
C634 C633 1.365 . S
C634 C635 1.404 . S
C635 C634 1.404 . S
C635 C636 1.395 . S
C635 C646 1.451 . S
C636 C635 1.395 . S
C636 C637 1.322 . S
C636 H700 0.930 . S
C637 C636 1.322 . S
C637 C638 1.459 . S
C637 H701 0.929 . S
C638 C637 1.459 . S
C638 C639 1.445 . S
C638 C647 1.395 . S
C639 C617 1.432 . S
C639 C638 1.445 . S
C639 C640 1.370 . S
C640 C639 1.370 . S
C640 C641 1.438 . S
C640 H702 0.930 . S
C641 C627 1.497 . S
C641 C640 1.438 . S
C641 C642 1.360 . S
C642 C641 1.360 . S
C642 C643 1.401 . S
C642 C647 1.446 . S
C643 C642 1.401 . S
C643 C644 1.347 . S
C643 H703 0.929 . S
C644 C643 1.347 . S
C644 C645 1.455 . S
C644 H704 0.930 . S
C645 C632 1.412 . S
C645 C644 1.455 . S
C645 C646 1.331 . S
C646 C635 1.451 . S
C646 C645 1.331 . S
C646 C647 1.497 . S
C647 C638 1.395 . S
C647 C642 1.446 . S
C647 C646 1.497 . S
C648 C649 1.582 . S
C648 H705 0.962 . S
C648 H706 0.959 . S
C648 H707 0.958 . S
C649 C648 1.582 . S
C649 O652 1.458 . S
C649 H678 0.980 . S
O650 C595 1.426 . S
O650 C596 1.334 . S
O651 C623 1.412 . S
O651 C624 1.393 . S
O652 C614 1.435 . S
O652 C649 1.458 . S
O653 C605 1.468 . S
O653 C606 1.408 . S
H654 C595 0.980 . S
H655 C594 0.959 . S
H656 C594 0.959 . S
H657 C594 0.960 . S
H658 C597 0.929 . S
H659 C601 0.929 . S
H660 C602 0.959 . S
H661 C602 0.961 . S
H662 C602 0.961 . S
H663 C603 0.960 . S
H664 C603 0.960 . S
H665 C603 0.961 . S
H666 C605 0.980 . S
H667 C604 0.961 . S
H668 C604 0.960 . S
H669 C604 0.959 . S
H670 C607 0.930 . S
H671 C611 0.931 . S
H672 C612 0.959 . S
H673 C612 0.961 . S
H674 C612 0.959 . S
H675 C613 0.960 . S
H676 C613 0.960 . S
H677 C613 0.960 . S
H678 C649 0.980 . S
H679 C615 0.930 . S
H680 C619 0.930 . S
H681 C620 0.961 . S
H682 C620 0.960 . S
H683 C620 0.958 . S
H684 C621 0.961 . S
H685 C621 0.960 . S
H686 C621 0.960 . S
H687 C623 0.980 . S
H688 C622 0.961 . S
H689 C622 0.961 . S
H690 C622 0.959 . S
H691 C625 0.932 . S
H692 C629 0.929 . S
H693 C630 0.961 . S
H694 C630 0.959 . S
H695 C630 0.959 . S
H696 C631 0.960 . S
H697 C631 0.962 . S
H698 C631 0.961 . S
H699 C633 0.929 . S
H700 C636 0.930 . S
H701 C637 0.929 . S
H702 C640 0.930 . S
H703 C643 0.929 . S
H704 C644 0.930 . S
H705 C648 0.962 . S
H706 C648 0.959 . S
H707 C648 0.958 . S
C708 C709 1.560 . S
C708 H769 0.959 . S
C708 H770 0.959 . S
C708 H771 0.960 . S
C709 C708 1.560 . S
C709 O764 1.426 . S
C709 H768 0.980 . S
C710 C711 1.407 . S
C710 C715 1.418 . S
C710 O764 1.334 . S
C711 C710 1.407 . S
C711 C712 1.360 . S
C711 H772 0.929 . S
C712 C711 1.360 . S
C712 C713 1.401 . S
C712 C716 1.527 . S
C713 C712 1.401 . S
C713 C714 1.405 . S
C713 C746 1.587 . S
C714 C713 1.405 . S
C714 C715 1.332 . S
C714 C717 1.496 . S
C715 C710 1.418 . S
C715 C714 1.332 . S
C715 H773 0.929 . S
C716 C712 1.527 . S
C716 H774 0.959 . S
C716 H775 0.961 . S
C716 H776 0.961 . S
C717 C714 1.496 . S
C717 H777 0.960 . S
C717 H778 0.960 . S
C717 H779 0.961 . S
C718 C719 1.517 . S
C718 H781 0.961 . S
C718 H782 0.960 . S
C718 H783 0.959 . S
C719 C718 1.517 . S
C719 O767 1.468 . S
C719 H780 0.980 . S
C720 C721 1.349 . S
C720 C725 1.367 . S
C720 O767 1.408 . S
C721 C720 1.349 . S
C721 C722 1.407 . S
C721 H784 0.930 . S
C722 C721 1.407 . S
C722 C723 1.449 . S
C722 C726 1.535 . S
C723 C722 1.449 . S
C723 C724 1.384 . S
C723 C748 1.553 . S
C724 C723 1.384 . S
C724 C725 1.364 . S
C724 C727 1.450 . S
C725 C720 1.367 . S
C725 C724 1.364 . S
C725 H785 0.931 . S
C726 C722 1.535 . S
C726 H786 0.959 . S
C726 H787 0.961 . S
C726 H788 0.959 . S
C727 C724 1.450 . S
C727 H789 0.960 . S
C727 H790 0.960 . S
C727 H791 0.960 . S
C728 C729 1.309 . S
C728 C733 1.304 . S
C728 O766 1.435 . S
C729 C728 1.309 . S
C729 C730 1.476 . S
C729 H793 0.930 . S
C730 C729 1.476 . S
C730 C731 1.400 . S
C730 C734 1.567 . S
C731 C730 1.400 . S
C731 C732 1.373 . S
C731 C753 1.432 . S
C732 C731 1.373 . S
C732 C733 1.339 . S
C732 C735 1.530 . S
C733 C728 1.304 . S
C733 C732 1.339 . S
C733 H794 0.930 . S
C734 C730 1.567 . S
C734 H795 0.961 . S
C734 H796 0.960 . S
C734 H797 0.958 . S
C735 C732 1.530 . S
C735 H798 0.961 . S
C735 H799 0.960 . S
C735 H800 0.960 . S
C736 C737 1.530 . S
C736 H802 0.961 . S
C736 H803 0.961 . S
C736 H804 0.959 . S
C737 C736 1.530 . S
C737 O765 1.412 . S
C737 H801 0.980 . S
C738 C739 1.288 . S
C738 C743 1.377 . S
C738 O765 1.393 . S
C739 C738 1.288 . S
C739 C740 1.369 . S
C739 H805 0.932 . S
C740 C739 1.369 . S
C740 C741 1.398 . S
C740 C744 1.527 . S
C741 C740 1.398 . S
C741 C742 1.380 . S
C741 C755 1.497 . S
C742 C741 1.380 . S
C742 C743 1.383 . S
C742 C745 1.603 . S
C743 C738 1.377 . S
C743 C742 1.383 . S
C743 H806 0.929 . S
C744 C740 1.527 . S
C744 H807 0.961 . S
C744 H808 0.959 . S
C744 H809 0.959 . S
C745 C742 1.603 . S
C745 H810 0.960 . S
C745 H811 0.962 . S
C745 H812 0.961 . S
C746 C713 1.587 . S
C746 C747 1.360 . S
C746 C759 1.412 . S
C747 C746 1.360 . S
C747 C748 1.365 . S
C747 H813 0.929 . S
C748 C723 1.553 . S
C748 C747 1.365 . S
C748 C749 1.404 . S
C749 C748 1.404 . S
C749 C750 1.395 . S
C749 C760 1.451 . S
C750 C749 1.395 . S
C750 C751 1.322 . S
C750 H814 0.930 . S
C751 C750 1.322 . S
C751 C752 1.459 . S
C751 H815 0.929 . S
C752 C751 1.459 . S
C752 C753 1.445 . S
C752 C761 1.395 . S
C753 C731 1.432 . S
C753 C752 1.445 . S
C753 C754 1.370 . S
C754 C753 1.370 . S
C754 C755 1.438 . S
C754 H816 0.930 . S
C755 C741 1.497 . S
C755 C754 1.438 . S
C755 C756 1.360 . S
C756 C755 1.360 . S
C756 C757 1.401 . S
C756 C761 1.446 . S
C757 C756 1.401 . S
C757 C758 1.347 . S
C757 H817 0.929 . S
C758 C757 1.347 . S
C758 C759 1.455 . S
C758 H818 0.930 . S
C759 C746 1.412 . S
C759 C758 1.455 . S
C759 C760 1.331 . S
C760 C749 1.451 . S
C760 C759 1.331 . S
C760 C761 1.497 . S
C761 C752 1.395 . S
C761 C756 1.446 . S
C761 C760 1.497 . S
C762 C763 1.582 . S
C762 H819 0.962 . S
C762 H820 0.959 . S
C762 H821 0.958 . S
C763 C762 1.582 . S
C763 O766 1.458 . S
C763 H792 0.980 . S
O764 C709 1.426 . S
O764 C710 1.334 . S
O765 C737 1.412 . S
O765 C738 1.393 . S
O766 C728 1.435 . S
O766 C763 1.458 . S
O767 C719 1.468 . S
O767 C720 1.408 . S
H768 C709 0.980 . S
H769 C708 0.959 . S
H770 C708 0.959 . S
H771 C708 0.960 . S
H772 C711 0.929 . S
H773 C715 0.929 . S
H774 C716 0.959 . S
H775 C716 0.961 . S
H776 C716 0.961 . S
H777 C717 0.960 . S
H778 C717 0.960 . S
H779 C717 0.961 . S
H780 C719 0.980 . S
H781 C718 0.961 . S
H782 C718 0.960 . S
H783 C718 0.959 . S
H784 C721 0.930 . S
H785 C725 0.931 . S
H786 C726 0.959 . S
H787 C726 0.961 . S
H788 C726 0.959 . S
H789 C727 0.960 . S
H790 C727 0.960 . S
H791 C727 0.960 . S
H792 C763 0.980 . S
H793 C729 0.930 . S
H794 C733 0.930 . S
H795 C734 0.961 . S
H796 C734 0.960 . S
H797 C734 0.958 . S
H798 C735 0.961 . S
H799 C735 0.960 . S
H800 C735 0.960 . S
H801 C737 0.980 . S
H802 C736 0.961 . S
H803 C736 0.961 . S
H804 C736 0.959 . S
H805 C739 0.932 . S
H806 C743 0.929 . S
H807 C744 0.961 . S
H808 C744 0.959 . S
H809 C744 0.959 . S
H810 C745 0.960 . S
H811 C745 0.962 . S
H812 C745 0.961 . S
H813 C747 0.929 . S
H814 C750 0.930 . S
H815 C751 0.929 . S
H816 C754 0.930 . S
H817 C757 0.929 . S
H818 C758 0.930 . S
H819 C762 0.962 . S
H820 C762 0.959 . S
H821 C762 0.958 . S
C822 C823 1.560 . S
C822 H883 0.959 . S
C822 H884 0.959 . S
C822 H885 0.960 . S
C823 C822 1.560 . S
C823 O878 1.426 . S
C823 H882 0.980 . S
C824 C825 1.407 . S
C824 C829 1.418 . S
C824 O878 1.334 . S
C825 C824 1.407 . S
C825 C826 1.360 . S
C825 H886 0.929 . S
C826 C825 1.360 . S
C826 C827 1.401 . S
C826 C830 1.527 . S
C827 C826 1.401 . S
C827 C828 1.405 . S
C827 C860 1.587 . S
C828 C827 1.405 . S
C828 C829 1.332 . S
C828 C831 1.496 . S
C829 C824 1.418 . S
C829 C828 1.332 . S
C829 H887 0.929 . S
C830 C826 1.527 . S
C830 H888 0.959 . S
C830 H889 0.961 . S
C830 H890 0.961 . S
C831 C828 1.496 . S
C831 H891 0.960 . S
C831 H892 0.960 . S
C831 H893 0.961 . S
C832 C833 1.517 . S
C832 H895 0.961 . S
C832 H896 0.960 . S
C832 H897 0.959 . S
C833 C832 1.517 . S
C833 O881 1.468 . S
C833 H894 0.980 . S
C834 C835 1.349 . S
C834 C839 1.367 . S
C834 O881 1.408 . S
C835 C834 1.349 . S
C835 C836 1.407 . S
C835 H898 0.930 . S
C836 C835 1.407 . S
C836 C837 1.449 . S
C836 C840 1.535 . S
C837 C836 1.449 . S
C837 C838 1.384 . S
C837 C862 1.553 . S
C838 C837 1.384 . S
C838 C839 1.364 . S
C838 C841 1.450 . S
C839 C834 1.367 . S
C839 C838 1.364 . S
C839 H899 0.931 . S
C840 C836 1.535 . S
C840 H900 0.959 . S
C840 H901 0.961 . S
C840 H902 0.959 . S
C841 C838 1.450 . S
C841 H903 0.960 . S
C841 H904 0.960 . S
C841 H905 0.960 . S
C842 C843 1.309 . S
C842 C847 1.304 . S
C842 O880 1.435 . S
C843 C842 1.309 . S
C843 C844 1.476 . S
C843 H907 0.930 . S
C844 C843 1.476 . S
C844 C845 1.400 . S
C844 C848 1.567 . S
C845 C844 1.400 . S
C845 C846 1.373 . S
C845 C867 1.432 . S
C846 C845 1.373 . S
C846 C847 1.339 . S
C846 C849 1.530 . S
C847 C842 1.304 . S
C847 C846 1.339 . S
C847 H908 0.930 . S
C848 C844 1.567 . S
C848 H909 0.961 . S
C848 H910 0.960 . S
C848 H911 0.958 . S
C849 C846 1.530 . S
C849 H912 0.961 . S
C849 H913 0.960 . S
C849 H914 0.960 . S
C850 C851 1.530 . S
C850 H916 0.961 . S
C850 H917 0.961 . S
C850 H918 0.959 . S
C851 C850 1.530 . S
C851 O879 1.412 . S
C851 H915 0.980 . S
C852 C853 1.288 . S
C852 C857 1.377 . S
C852 O879 1.393 . S
C853 C852 1.288 . S
C853 C854 1.369 . S
C853 H919 0.932 . S
C854 C853 1.369 . S
C854 C855 1.398 . S
C854 C858 1.527 . S
C855 C854 1.398 . S
C855 C856 1.380 . S
C855 C869 1.497 . S
C856 C855 1.380 . S
C856 C857 1.383 . S
C856 C859 1.603 . S
C857 C852 1.377 . S
C857 C856 1.383 . S
C857 H920 0.929 . S
C858 C854 1.527 . S
C858 H921 0.961 . S
C858 H922 0.959 . S
C858 H923 0.959 . S
C859 C856 1.603 . S
C859 H924 0.960 . S
C859 H925 0.962 . S
C859 H926 0.961 . S
C860 C827 1.587 . S
C860 C861 1.360 . S
C860 C873 1.412 . S
C861 C860 1.360 . S
C861 C862 1.365 . S
C861 H927 0.929 . S
C862 C837 1.553 . S
C862 C861 1.365 . S
C862 C863 1.404 . S
C863 C862 1.404 . S
C863 C864 1.395 . S
C863 C874 1.451 . S
C864 C863 1.395 . S
C864 C865 1.322 . S
C864 H928 0.930 . S
C865 C864 1.322 . S
C865 C866 1.459 . S
C865 H929 0.929 . S
C866 C865 1.459 . S
C866 C867 1.445 . S
C866 C875 1.395 . S
C867 C845 1.432 . S
C867 C866 1.445 . S
C867 C868 1.370 . S
C868 C867 1.370 . S
C868 C869 1.438 . S
C868 H930 0.930 . S
C869 C855 1.497 . S
C869 C868 1.438 . S
C869 C870 1.360 . S
C870 C869 1.360 . S
C870 C871 1.401 . S
C870 C875 1.446 . S
C871 C870 1.401 . S
C871 C872 1.347 . S
C871 H931 0.929 . S
C872 C871 1.347 . S
C872 C873 1.455 . S
C872 H932 0.930 . S
C873 C860 1.412 . S
C873 C872 1.455 . S
C873 C874 1.331 . S
C874 C863 1.451 . S
C874 C873 1.331 . S
C874 C875 1.497 . S
C875 C866 1.395 . S
C875 C870 1.446 . S
C875 C874 1.497 . S
C876 C877 1.582 . S
C876 H933 0.962 . S
C876 H934 0.959 . S
C876 H935 0.958 . S
C877 C876 1.582 . S
C877 O880 1.458 . S
C877 H906 0.980 . S
O878 C823 1.426 . S
O878 C824 1.334 . S
O879 C851 1.412 . S
O879 C852 1.393 . S
O880 C842 1.435 . S
O880 C877 1.458 . S
O881 C833 1.468 . S
O881 C834 1.408 . S
H882 C823 0.980 . S
H883 C822 0.959 . S
H884 C822 0.959 . S
H885 C822 0.960 . S
H886 C825 0.929 . S
H887 C829 0.929 . S
H888 C830 0.959 . S
H889 C830 0.961 . S
H890 C830 0.961 . S
H891 C831 0.960 . S
H892 C831 0.960 . S
H893 C831 0.961 . S
H894 C833 0.980 . S
H895 C832 0.961 . S
H896 C832 0.960 . S
H897 C832 0.959 . S
H898 C835 0.930 . S
H899 C839 0.931 . S
H900 C840 0.959 . S
H901 C840 0.961 . S
H902 C840 0.959 . S
H903 C841 0.960 . S
H904 C841 0.960 . S
H905 C841 0.960 . S
H906 C877 0.980 . S
H907 C843 0.930 . S
H908 C847 0.930 . S
H909 C848 0.961 . S
H910 C848 0.960 . S
H911 C848 0.958 . S
H912 C849 0.961 . S
H913 C849 0.960 . S
H914 C849 0.960 . S
H915 C851 0.980 . S
H916 C850 0.961 . S
H917 C850 0.961 . S
H918 C850 0.959 . S
H919 C853 0.932 . S
H920 C857 0.929 . S
H921 C858 0.961 . S
H922 C858 0.959 . S
H923 C858 0.959 . S
H924 C859 0.960 . S
H925 C859 0.962 . S
H926 C859 0.961 . S
H927 C861 0.929 . S
H928 C864 0.930 . S
H929 C865 0.929 . S
H930 C868 0.930 . S
H931 C871 0.929 . S
H932 C872 0.930 . S
H933 C876 0.962 . S
H934 C876 0.959 . S
H935 C876 0.958 . S
C936 C937 1.560 . S
C936 H997 0.959 . S
C936 H998 0.959 . S
C936 H999 0.960 . S
C937 C936 1.560 . S
C937 O992 1.426 . S
C937 H996 0.980 . S
C938 C939 1.407 . S
C938 C943 1.418 . S
C938 O992 1.334 . S
C939 C938 1.407 . S
C939 C940 1.360 . S
C939 H1000 0.929 . S
C940 C939 1.360 . S
C940 C941 1.401 . S
C940 C944 1.527 . S
C941 C940 1.401 . S
C941 C942 1.405 . S
C941 C974 1.587 . S
C942 C941 1.405 . S
C942 C943 1.332 . S
C942 C945 1.496 . S
C943 C938 1.418 . S
C943 C942 1.332 . S
C943 H1001 0.929 . S
C944 C940 1.527 . S
C944 H1002 0.959 . S
C944 H1003 0.961 . S
C944 H1004 0.961 . S
C945 C942 1.496 . S
C945 H1005 0.960 . S
C945 H1006 0.960 . S
C945 H1007 0.961 . S
C946 C947 1.517 . S
C946 H1009 0.961 . S
C946 H1010 0.960 . S
C946 H1011 0.959 . S
C947 C946 1.517 . S
C947 O995 1.468 . S
C947 H1008 0.980 . S
C948 C949 1.349 . S
C948 C953 1.367 . S
C948 O995 1.408 . S
C949 C948 1.349 . S
C949 C950 1.407 . S
C949 H1012 0.930 . S
C950 C949 1.407 . S
C950 C951 1.449 . S
C950 C954 1.535 . S
C951 C950 1.449 . S
C951 C952 1.384 . S
C951 C976 1.553 . S
C952 C951 1.384 . S
C952 C953 1.364 . S
C952 C955 1.450 . S
C953 C948 1.367 . S
C953 C952 1.364 . S
C953 H1013 0.931 . S
C954 C950 1.535 . S
C954 H1014 0.959 . S
C954 H1015 0.961 . S
C954 H1016 0.959 . S
C955 C952 1.450 . S
C955 H1017 0.960 . S
C955 H1018 0.960 . S
C955 H1019 0.960 . S
C956 C957 1.309 . S
C956 C961 1.304 . S
C956 O994 1.435 . S
C957 C956 1.309 . S
C957 C958 1.476 . S
C957 H1021 0.930 . S
C958 C957 1.476 . S
C958 C959 1.400 . S
C958 C962 1.567 . S
C959 C958 1.400 . S
C959 C960 1.373 . S
C959 C981 1.432 . S
C960 C959 1.373 . S
C960 C961 1.339 . S
C960 C963 1.530 . S
C961 C956 1.304 . S
C961 C960 1.339 . S
C961 H1022 0.930 . S
C962 C958 1.567 . S
C962 H1023 0.961 . S
C962 H1024 0.960 . S
C962 H1025 0.958 . S
C963 C960 1.530 . S
C963 H1026 0.961 . S
C963 H1027 0.960 . S
C963 H1028 0.960 . S
C964 C965 1.530 . S
C964 H1030 0.961 . S
C964 H1031 0.961 . S
C964 H1032 0.959 . S
C965 C964 1.530 . S
C965 O993 1.412 . S
C965 H1029 0.980 . S
C966 C967 1.288 . S
C966 C971 1.377 . S
C966 O993 1.393 . S
C967 C966 1.288 . S
C967 C968 1.369 . S
C967 H1033 0.932 . S
C968 C967 1.369 . S
C968 C969 1.398 . S
C968 C972 1.527 . S
C969 C968 1.398 . S
C969 C970 1.380 . S
C969 C983 1.497 . S
C970 C969 1.380 . S
C970 C971 1.383 . S
C970 C973 1.603 . S
C971 C966 1.377 . S
C971 C970 1.383 . S
C971 H1034 0.929 . S
C972 C968 1.527 . S
C972 H1035 0.961 . S
C972 H1036 0.959 . S
C972 H1037 0.959 . S
C973 C970 1.603 . S
C973 H1038 0.960 . S
C973 H1039 0.962 . S
C973 H1040 0.961 . S
C974 C941 1.587 . S
C974 C975 1.360 . S
C974 C987 1.412 . S
C975 C974 1.360 . S
C975 C976 1.365 . S
C975 H1041 0.929 . S
C976 C951 1.553 . S
C976 C975 1.365 . S
C976 C977 1.404 . S
C977 C976 1.404 . S
C977 C978 1.395 . S
C977 C988 1.451 . S
C978 C977 1.395 . S
C978 C979 1.322 . S
C978 H1042 0.930 . S
C979 C978 1.322 . S
C979 C980 1.459 . S
C979 H1043 0.929 . S
C980 C979 1.459 . S
C980 C981 1.445 . S
C980 C989 1.395 . S
C981 C959 1.432 . S
C981 C980 1.445 . S
C981 C982 1.370 . S
C982 C981 1.370 . S
C982 C983 1.438 . S
C982 H1044 0.930 . S
C983 C969 1.497 . S
C983 C982 1.438 . S
C983 C984 1.360 . S
C984 C983 1.360 . S
C984 C985 1.401 . S
C984 C989 1.446 . S
C985 C984 1.401 . S
C985 C986 1.347 . S
C985 H1045 0.929 . S
C986 C985 1.347 . S
C986 C987 1.455 . S
C986 H1046 0.930 . S
C987 C974 1.412 . S
C987 C986 1.455 . S
C987 C988 1.331 . S
C988 C977 1.451 . S
C988 C987 1.331 . S
C988 C989 1.497 . S
C989 C980 1.395 . S
C989 C984 1.446 . S
C989 C988 1.497 . S
C990 C991 1.582 . S
C990 H1047 0.962 . S
C990 H1048 0.959 . S
C990 H1049 0.958 . S
C991 C990 1.582 . S
C991 O994 1.458 . S
C991 H1020 0.980 . S
O992 C937 1.426 . S
O992 C938 1.334 . S
O993 C965 1.412 . S
O993 C966 1.393 . S
O994 C956 1.435 . S
O994 C991 1.458 . S
O995 C947 1.468 . S
O995 C948 1.408 . S
H996 C937 0.980 . S
H997 C936 0.959 . S
H998 C936 0.959 . S
H999 C936 0.960 . S
H1000 C939 0.929 . S
H1001 C943 0.929 . S
H1002 C944 0.959 . S
H1003 C944 0.961 . S
H1004 C944 0.961 . S
H1005 C945 0.960 . S
H1006 C945 0.960 . S
H1007 C945 0.961 . S
H1008 C947 0.980 . S
H1009 C946 0.961 . S
H1010 C946 0.960 . S
H1011 C946 0.959 . S
H1012 C949 0.930 . S
H1013 C953 0.931 . S
H1014 C954 0.959 . S
H1015 C954 0.961 . S
H1016 C954 0.959 . S
H1017 C955 0.960 . S
H1018 C955 0.960 . S
H1019 C955 0.960 . S
H1020 C991 0.980 . S
H1021 C957 0.930 . S
H1022 C961 0.930 . S
H1023 C962 0.961 . S
H1024 C962 0.960 . S
H1025 C962 0.958 . S
H1026 C963 0.961 . S
H1027 C963 0.960 . S
H1028 C963 0.960 . S
H1029 C965 0.980 . S
H1030 C964 0.961 . S
H1031 C964 0.961 . S
H1032 C964 0.959 . S
H1033 C967 0.932 . S
H1034 C971 0.929 . S
H1035 C972 0.961 . S
H1036 C972 0.959 . S
H1037 C972 0.959 . S
H1038 C973 0.960 . S
H1039 C973 0.962 . S
H1040 C973 0.961 . S
H1041 C975 0.929 . S
H1042 C978 0.930 . S
H1043 C979 0.929 . S
H1044 C982 0.930 . S
H1045 C985 0.929 . S
H1046 C986 0.930 . S
H1047 C990 0.962 . S
H1048 C990 0.959 . S
H1049 C990 0.958 . S
C1050 C1051 1.560 . S
C1050 H1111 0.959 . S
C1050 H1112 0.959 . S
C1050 H1113 0.960 . S
C1051 C1050 1.560 . S
C1051 O1106 1.426 . S
C1051 H1110 0.980 . S
C1052 C1053 1.407 . S
C1052 C1057 1.418 . S
C1052 O1106 1.334 . S
C1053 C1052 1.407 . S
C1053 C1054 1.360 . S
C1053 H1114 0.929 . S
C1054 C1053 1.360 . S
C1054 C1055 1.401 . S
C1054 C1058 1.527 . S
C1055 C1054 1.401 . S
C1055 C1056 1.405 . S
C1055 C1088 1.587 . S
C1056 C1055 1.405 . S
C1056 C1057 1.332 . S
C1056 C1059 1.496 . S
C1057 C1052 1.418 . S
C1057 C1056 1.332 . S
C1057 H1115 0.929 . S
C1058 C1054 1.527 . S
C1058 H1116 0.959 . S
C1058 H1117 0.961 . S
C1058 H1118 0.961 . S
C1059 C1056 1.496 . S
C1059 H1119 0.960 . S
C1059 H1120 0.960 . S
C1059 H1121 0.961 . S
C1060 C1061 1.517 . S
C1060 H1123 0.961 . S
C1060 H1124 0.960 . S
C1060 H1125 0.959 . S
C1061 C1060 1.517 . S
C1061 O1109 1.468 . S
C1061 H1122 0.980 . S
C1062 C1063 1.349 . S
C1062 C1067 1.367 . S
C1062 O1109 1.408 . S
C1063 C1062 1.349 . S
C1063 C1064 1.407 . S
C1063 H1126 0.930 . S
C1064 C1063 1.407 . S
C1064 C1065 1.449 . S
C1064 C1068 1.535 . S
C1065 C1064 1.449 . S
C1065 C1066 1.384 . S
C1065 C1090 1.553 . S
C1066 C1065 1.384 . S
C1066 C1067 1.364 . S
C1066 C1069 1.450 . S
C1067 C1062 1.367 . S
C1067 C1066 1.364 . S
C1067 H1127 0.931 . S
C1068 C1064 1.535 . S
C1068 H1128 0.959 . S
C1068 H1129 0.961 . S
C1068 H1130 0.959 . S
C1069 C1066 1.450 . S
C1069 H1131 0.960 . S
C1069 H1132 0.960 . S
C1069 H1133 0.960 . S
C1070 C1071 1.309 . S
C1070 C1075 1.304 . S
C1070 O1108 1.435 . S
C1071 C1070 1.309 . S
C1071 C1072 1.476 . S
C1071 H1135 0.930 . S
C1072 C1071 1.476 . S
C1072 C1073 1.400 . S
C1072 C1076 1.567 . S
C1073 C1072 1.400 . S
C1073 C1074 1.373 . S
C1073 C1095 1.432 . S
C1074 C1073 1.373 . S
C1074 C1075 1.339 . S
C1074 C1077 1.530 . S
C1075 C1070 1.304 . S
C1075 C1074 1.339 . S
C1075 H1136 0.930 . S
C1076 C1072 1.567 . S
C1076 H1137 0.961 . S
C1076 H1138 0.960 . S
C1076 H1139 0.958 . S
C1077 C1074 1.530 . S
C1077 H1140 0.961 . S
C1077 H1141 0.960 . S
C1077 H1142 0.960 . S
C1078 C1079 1.530 . S
C1078 H1144 0.961 . S
C1078 H1145 0.961 . S
C1078 H1146 0.959 . S
C1079 C1078 1.530 . S
C1079 O1107 1.412 . S
C1079 H1143 0.980 . S
C1080 C1081 1.288 . S
C1080 C1085 1.377 . S
C1080 O1107 1.393 . S
C1081 C1080 1.288 . S
C1081 C1082 1.369 . S
C1081 H1147 0.932 . S
C1082 C1081 1.369 . S
C1082 C1083 1.398 . S
C1082 C1086 1.527 . S
C1083 C1082 1.398 . S
C1083 C1084 1.380 . S
C1083 C1097 1.497 . S
C1084 C1083 1.380 . S
C1084 C1085 1.383 . S
C1084 C1087 1.603 . S
C1085 C1080 1.377 . S
C1085 C1084 1.383 . S
C1085 H1148 0.929 . S
C1086 C1082 1.527 . S
C1086 H1149 0.961 . S
C1086 H1150 0.959 . S
C1086 H1151 0.959 . S
C1087 C1084 1.603 . S
C1087 H1152 0.960 . S
C1087 H1153 0.962 . S
C1087 H1154 0.961 . S
C1088 C1055 1.587 . S
C1088 C1089 1.360 . S
C1088 C1101 1.412 . S
C1089 C1088 1.360 . S
C1089 C1090 1.365 . S
C1089 H1155 0.929 . S
C1090 C1065 1.553 . S
C1090 C1089 1.365 . S
C1090 C1091 1.404 . S
C1091 C1090 1.404 . S
C1091 C1092 1.395 . S
C1091 C1102 1.451 . S
C1092 C1091 1.395 . S
C1092 C1093 1.322 . S
C1092 H1156 0.930 . S
C1093 C1092 1.322 . S
C1093 C1094 1.459 . S
C1093 H1157 0.929 . S
C1094 C1093 1.459 . S
C1094 C1095 1.445 . S
C1094 C1103 1.395 . S
C1095 C1073 1.432 . S
C1095 C1094 1.445 . S
C1095 C1096 1.370 . S
C1096 C1095 1.370 . S
C1096 C1097 1.438 . S
C1096 H1158 0.930 . S
C1097 C1083 1.497 . S
C1097 C1096 1.438 . S
C1097 C1098 1.360 . S
C1098 C1097 1.360 . S
C1098 C1099 1.401 . S
C1098 C1103 1.446 . S
C1099 C1098 1.401 . S
C1099 C1100 1.347 . S
C1099 H1159 0.929 . S
C1100 C1099 1.347 . S
C1100 C1101 1.455 . S
C1100 H1160 0.930 . S
C1101 C1088 1.412 . S
C1101 C1100 1.455 . S
C1101 C1102 1.331 . S
C1102 C1091 1.451 . S
C1102 C1101 1.331 . S
C1102 C1103 1.497 . S
C1103 C1094 1.395 . S
C1103 C1098 1.446 . S
C1103 C1102 1.497 . S
C1104 C1105 1.582 . S
C1104 H1161 0.962 . S
C1104 H1162 0.959 . S
C1104 H1163 0.958 . S
C1105 C1104 1.582 . S
C1105 O1108 1.458 . S
C1105 H1134 0.980 . S
O1106 C1051 1.426 . S
O1106 C1052 1.334 . S
O1107 C1079 1.412 . S
O1107 C1080 1.393 . S
O1108 C1070 1.435 . S
O1108 C1105 1.458 . S
O1109 C1061 1.468 . S
O1109 C1062 1.408 . S
H1110 C1051 0.980 . S
H1111 C1050 0.959 . S
H1112 C1050 0.959 . S
H1113 C1050 0.960 . S
H1114 C1053 0.929 . S
H1115 C1057 0.929 . S
H1116 C1058 0.959 . S
H1117 C1058 0.961 . S
H1118 C1058 0.961 . S
H1119 C1059 0.960 . S
H1120 C1059 0.960 . S
H1121 C1059 0.961 . S
H1122 C1061 0.980 . S
H1123 C1060 0.961 . S
H1124 C1060 0.960 . S
H1125 C1060 0.959 . S
H1126 C1063 0.930 . S
H1127 C1067 0.931 . S
H1128 C1068 0.959 . S
H1129 C1068 0.961 . S
H1130 C1068 0.959 . S
H1131 C1069 0.960 . S
H1132 C1069 0.960 . S
H1133 C1069 0.960 . S
H1134 C1105 0.980 . S
H1135 C1071 0.930 . S
H1136 C1075 0.930 . S
H1137 C1076 0.961 . S
H1138 C1076 0.960 . S
H1139 C1076 0.958 . S
H1140 C1077 0.961 . S
H1141 C1077 0.960 . S
H1142 C1077 0.960 . S
H1143 C1079 0.980 . S
H1144 C1078 0.961 . S
H1145 C1078 0.961 . S
H1146 C1078 0.959 . S
H1147 C1081 0.932 . S
H1148 C1085 0.929 . S
H1149 C1086 0.961 . S
H1150 C1086 0.959 . S
H1151 C1086 0.959 . S
H1152 C1087 0.960 . S
H1153 C1087 0.962 . S
H1154 C1087 0.961 . S
H1155 C1089 0.929 . S
H1156 C1092 0.930 . S
H1157 C1093 0.929 . S
H1158 C1096 0.930 . S
H1159 C1099 0.929 . S
H1160 C1100 0.930 . S
H1161 C1104 0.962 . S
H1162 C1104 0.959 . S
H1163 C1104 0.958 . S
C1164 C1165 1.560 . S
C1164 H1225 0.959 . S
C1164 H1226 0.959 . S
C1164 H1227 0.960 . S
C1165 C1164 1.560 . S
C1165 O1220 1.426 . S
C1165 H1224 0.980 . S
C1166 C1167 1.407 . S
C1166 C1171 1.418 . S
C1166 O1220 1.334 . S
C1167 C1166 1.407 . S
C1167 C1168 1.360 . S
C1167 H1228 0.929 . S
C1168 C1167 1.360 . S
C1168 C1169 1.401 . S
C1168 C1172 1.527 . S
C1169 C1168 1.401 . S
C1169 C1170 1.405 . S
C1169 C1202 1.587 . S
C1170 C1169 1.405 . S
C1170 C1171 1.332 . S
C1170 C1173 1.496 . S
C1171 C1166 1.418 . S
C1171 C1170 1.332 . S
C1171 H1229 0.929 . S
C1172 C1168 1.527 . S
C1172 H1230 0.959 . S
C1172 H1231 0.961 . S
C1172 H1232 0.961 . S
C1173 C1170 1.496 . S
C1173 H1233 0.960 . S
C1173 H1234 0.960 . S
C1173 H1235 0.961 . S
C1174 C1175 1.517 . S
C1174 H1237 0.961 . S
C1174 H1238 0.960 . S
C1174 H1239 0.959 . S
C1175 C1174 1.517 . S
C1175 O1223 1.468 . S
C1175 H1236 0.980 . S
C1176 C1177 1.349 . S
C1176 C1181 1.367 . S
C1176 O1223 1.408 . S
C1177 C1176 1.349 . S
C1177 C1178 1.407 . S
C1177 H1240 0.930 . S
C1178 C1177 1.407 . S
C1178 C1179 1.449 . S
C1178 C1182 1.535 . S
C1179 C1178 1.449 . S
C1179 C1180 1.384 . S
C1179 C1204 1.553 . S
C1180 C1179 1.384 . S
C1180 C1181 1.364 . S
C1180 C1183 1.450 . S
C1181 C1176 1.367 . S
C1181 C1180 1.364 . S
C1181 H1241 0.931 . S
C1182 C1178 1.535 . S
C1182 H1242 0.959 . S
C1182 H1243 0.961 . S
C1182 H1244 0.959 . S
C1183 C1180 1.450 . S
C1183 H1245 0.960 . S
C1183 H1246 0.960 . S
C1183 H1247 0.960 . S
C1184 C1185 1.309 . S
C1184 C1189 1.304 . S
C1184 O1222 1.435 . S
C1185 C1184 1.309 . S
C1185 C1186 1.476 . S
C1185 H1249 0.930 . S
C1186 C1185 1.476 . S
C1186 C1187 1.400 . S
C1186 C1190 1.567 . S
C1187 C1186 1.400 . S
C1187 C1188 1.373 . S
C1187 C1209 1.432 . S
C1188 C1187 1.373 . S
C1188 C1189 1.339 . S
C1188 C1191 1.530 . S
C1189 C1184 1.304 . S
C1189 C1188 1.339 . S
C1189 H1250 0.930 . S
C1190 C1186 1.567 . S
C1190 H1251 0.961 . S
C1190 H1252 0.960 . S
C1190 H1253 0.958 . S
C1191 C1188 1.530 . S
C1191 H1254 0.961 . S
C1191 H1255 0.960 . S
C1191 H1256 0.960 . S
C1192 C1193 1.530 . S
C1192 H1258 0.961 . S
C1192 H1259 0.961 . S
C1192 H1260 0.959 . S
C1193 C1192 1.530 . S
C1193 O1221 1.412 . S
C1193 H1257 0.980 . S
C1194 C1195 1.288 . S
C1194 C1199 1.377 . S
C1194 O1221 1.393 . S
C1195 C1194 1.288 . S
C1195 C1196 1.369 . S
C1195 H1261 0.932 . S
C1196 C1195 1.369 . S
C1196 C1197 1.398 . S
C1196 C1200 1.527 . S
C1197 C1196 1.398 . S
C1197 C1198 1.380 . S
C1197 C1211 1.497 . S
C1198 C1197 1.380 . S
C1198 C1199 1.383 . S
C1198 C1201 1.603 . S
C1199 C1194 1.377 . S
C1199 C1198 1.383 . S
C1199 H1262 0.929 . S
C1200 C1196 1.527 . S
C1200 H1263 0.961 . S
C1200 H1264 0.959 . S
C1200 H1265 0.959 . S
C1201 C1198 1.603 . S
C1201 H1266 0.960 . S
C1201 H1267 0.962 . S
C1201 H1268 0.961 . S
C1202 C1169 1.587 . S
C1202 C1203 1.360 . S
C1202 C1215 1.412 . S
C1203 C1202 1.360 . S
C1203 C1204 1.365 . S
C1203 H1269 0.929 . S
C1204 C1179 1.553 . S
C1204 C1203 1.365 . S
C1204 C1205 1.404 . S
C1205 C1204 1.404 . S
C1205 C1206 1.395 . S
C1205 C1216 1.451 . S
C1206 C1205 1.395 . S
C1206 C1207 1.322 . S
C1206 H1270 0.930 . S
C1207 C1206 1.322 . S
C1207 C1208 1.459 . S
C1207 H1271 0.929 . S
C1208 C1207 1.459 . S
C1208 C1209 1.445 . S
C1208 C1217 1.395 . S
C1209 C1187 1.432 . S
C1209 C1208 1.445 . S
C1209 C1210 1.370 . S
C1210 C1209 1.370 . S
C1210 C1211 1.438 . S
C1210 H1272 0.930 . S
C1211 C1197 1.497 . S
C1211 C1210 1.438 . S
C1211 C1212 1.360 . S
C1212 C1211 1.360 . S
C1212 C1213 1.401 . S
C1212 C1217 1.446 . S
C1213 C1212 1.401 . S
C1213 C1214 1.347 . S
C1213 H1273 0.929 . S
C1214 C1213 1.347 . S
C1214 C1215 1.455 . S
C1214 H1274 0.930 . S
C1215 C1202 1.412 . S
C1215 C1214 1.455 . S
C1215 C1216 1.331 . S
C1216 C1205 1.451 . S
C1216 C1215 1.331 . S
C1216 C1217 1.497 . S
C1217 C1208 1.395 . S
C1217 C1212 1.446 . S
C1217 C1216 1.497 . S
C1218 C1219 1.582 . S
C1218 H1275 0.962 . S
C1218 H1276 0.959 . S
C1218 H1277 0.958 . S
C1219 C1218 1.582 . S
C1219 O1222 1.458 . S
C1219 H1248 0.980 . S
O1220 C1165 1.426 . S
O1220 C1166 1.334 . S
O1221 C1193 1.412 . S
O1221 C1194 1.393 . S
O1222 C1184 1.435 . S
O1222 C1219 1.458 . S
O1223 C1175 1.468 . S
O1223 C1176 1.408 . S
H1224 C1165 0.980 . S
H1225 C1164 0.959 . S
H1226 C1164 0.959 . S
H1227 C1164 0.960 . S
H1228 C1167 0.929 . S
H1229 C1171 0.929 . S
H1230 C1172 0.959 . S
H1231 C1172 0.961 . S
H1232 C1172 0.961 . S
H1233 C1173 0.960 . S
H1234 C1173 0.960 . S
H1235 C1173 0.961 . S
H1236 C1175 0.980 . S
H1237 C1174 0.961 . S
H1238 C1174 0.960 . S
H1239 C1174 0.959 . S
H1240 C1177 0.930 . S
H1241 C1181 0.931 . S
H1242 C1182 0.959 . S
H1243 C1182 0.961 . S
H1244 C1182 0.959 . S
H1245 C1183 0.960 . S
H1246 C1183 0.960 . S
H1247 C1183 0.960 . S
H1248 C1219 0.980 . S
H1249 C1185 0.930 . S
H1250 C1189 0.930 . S
H1251 C1190 0.961 . S
H1252 C1190 0.960 . S
H1253 C1190 0.958 . S
H1254 C1191 0.961 . S
H1255 C1191 0.960 . S
H1256 C1191 0.960 . S
H1257 C1193 0.980 . S
H1258 C1192 0.961 . S
H1259 C1192 0.961 . S
H1260 C1192 0.959 . S
H1261 C1195 0.932 . S
H1262 C1199 0.929 . S
H1263 C1200 0.961 . S
H1264 C1200 0.959 . S
H1265 C1200 0.959 . S
H1266 C1201 0.960 . S
H1267 C1201 0.962 . S
H1268 C1201 0.961 . S
H1269 C1203 0.929 . S
H1270 C1206 0.930 . S
H1271 C1207 0.929 . S
H1272 C1210 0.930 . S
H1273 C1213 0.929 . S
H1274 C1214 0.930 . S
H1275 C1218 0.962 . S
H1276 C1218 0.959 . S
H1277 C1218 0.958 . S
C1278 C1279 1.560 . S
C1278 H1339 0.959 . S
C1278 H1340 0.959 . S
C1278 H1341 0.960 . S
C1279 C1278 1.560 . S
C1279 O1334 1.426 . S
C1279 H1338 0.980 . S
C1280 C1281 1.407 1_455 S
C1280 C1285 1.418 . S
C1280 O1334 1.334 . S
C1281 C1280 1.407 1_655 S
C1281 C1282 1.360 . S
C1281 H1342 0.929 . S
C1282 C1281 1.360 . S
C1282 C1283 1.401 1_655 S
C1282 C1286 1.527 . S
C1283 C1282 1.401 1_455 S
C1283 C1284 1.405 . S
C1283 C1316 1.587 1_455 S
C1284 C1283 1.405 . S
C1284 C1285 1.332 . S
C1284 C1287 1.496 . S
C1285 C1280 1.418 . S
C1285 C1284 1.332 . S
C1285 H1343 0.929 . S
C1286 C1282 1.527 . S
C1286 H1344 0.959 . S
C1286 H1345 0.961 . S
C1286 H1346 0.961 . S
C1287 C1284 1.496 . S
C1287 H1347 0.960 . S
C1287 H1348 0.960 . S
C1287 H1349 0.961 . S
C1288 C1289 1.517 . S
C1288 H1351 0.961 . S
C1288 H1352 0.960 . S
C1288 H1353 0.959 . S
C1289 C1288 1.517 . S
C1289 O1337 1.468 . S
C1289 H1350 0.942 1_655 S
C1290 C1291 1.349 . S
C1290 C1295 1.367 . S
C1290 O1337 1.408 . S
C1291 C1290 1.349 . S
C1291 C1292 1.405 1_655 S
C1291 H1354 0.930 1_655 S
C1292 C1291 1.405 1_455 S
C1292 C1293 1.447 1_455 S
C1292 C1296 1.539 . S
C1293 C1292 1.447 1_655 S
C1293 C1294 1.384 . S
C1293 C1318 1.553 . S
C1294 C1293 1.384 . S
C1294 C1295 1.364 . S
C1294 C1297 1.450 . S
C1295 C1290 1.367 . S
C1295 C1294 1.364 . S
C1295 H1355 0.931 . S
C1296 C1292 1.539 . S
C1296 H1356 0.959 . S
C1296 H1357 0.961 . S
C1296 H1358 0.959 . S
C1297 C1294 1.450 . S
C1297 H1359 0.960 . S
C1297 H1360 0.960 . S
C1297 H1361 0.960 . S
C1298 C1299 1.309 . S
C1298 C1303 1.304 . S
C1298 O1336 1.435 . S
C1299 C1298 1.309 . S
C1299 C1300 1.450 1_655 S
C1299 H1363 0.930 1_655 S
C1300 C1299 1.450 1_455 S
C1300 C1301 1.384 1_455 S
C1300 C1304 1.609 . S
C1301 C1300 1.384 1_655 S
C1301 C1302 1.373 . S
C1301 C1323 1.432 . S
C1302 C1301 1.373 . S
C1302 C1303 1.339 . S
C1302 C1305 1.530 . S
C1303 C1298 1.304 . S
C1303 C1302 1.339 . S
C1303 H1364 0.930 . S
C1304 C1300 1.609 . S
C1304 H1365 0.961 . S
C1304 H1366 0.960 . S
C1304 H1367 0.958 . S
C1305 C1302 1.530 . S
C1305 H1368 0.961 . S
C1305 H1369 0.960 . S
C1305 H1370 0.960 . S
C1306 C1307 1.600 . S
C1306 H1372 0.961 . S
C1306 H1373 0.961 . S
C1306 H1374 0.959 . S
C1307 C1306 1.600 . S
C1307 O1335 1.427 . S
C1307 H1371 0.962 1_455 S
C1308 C1309 1.288 . S
C1308 C1313 1.377 1_455 S
C1308 O1335 1.393 . S
C1309 C1308 1.288 . S
C1309 C1310 1.369 . S
C1309 H1375 0.932 . S
C1310 C1309 1.369 . S
C1310 C1311 1.328 1_455 S
C1310 C1314 1.527 . S
C1311 C1310 1.328 1_655 S
C1311 C1312 1.402 . S
C1311 C1325 1.544 . S
C1312 C1311 1.402 . S
C1312 C1313 1.383 . S
C1312 C1315 1.603 . S
C1313 C1308 1.377 1_655 S
C1313 C1312 1.383 . S
C1313 H1376 0.929 . S
C1314 C1310 1.527 . S
C1314 H1377 0.961 . S
C1314 H1378 0.959 . S
C1314 H1379 0.959 . S
C1315 C1312 1.603 . S
C1315 H1380 0.960 . S
C1315 H1381 0.962 . S
C1315 H1382 0.961 . S
C1316 C1283 1.587 1_655 S
C1316 C1317 1.360 . S
C1316 C1329 1.412 . S
C1317 C1316 1.360 . S
C1317 C1318 1.365 . S
C1317 H1383 0.929 . S
C1318 C1293 1.553 . S
C1318 C1317 1.365 . S
C1318 C1319 1.404 . S
C1319 C1318 1.404 . S
C1319 C1320 1.395 . S
C1319 C1330 1.451 . S
C1320 C1319 1.395 . S
C1320 C1321 1.322 . S
C1320 H1384 0.930 . S
C1321 C1320 1.322 . S
C1321 C1322 1.459 . S
C1321 H1385 0.929 . S
C1322 C1321 1.459 . S
C1322 C1323 1.445 . S
C1322 C1331 1.395 . S
C1323 C1301 1.432 . S
C1323 C1322 1.445 . S
C1323 C1324 1.370 . S
C1324 C1323 1.370 . S
C1324 C1325 1.438 . S
C1324 H1386 0.930 . S
C1325 C1311 1.544 . S
C1325 C1324 1.438 . S
C1325 C1326 1.360 . S
C1326 C1325 1.360 . S
C1326 C1327 1.401 . S
C1326 C1331 1.446 . S
C1327 C1326 1.401 . S
C1327 C1328 1.347 . S
C1327 H1387 0.929 . S
C1328 C1327 1.347 . S
C1328 C1329 1.455 . S
C1328 H1388 0.930 . S
C1329 C1316 1.412 . S
C1329 C1328 1.455 . S
C1329 C1330 1.331 . S
C1330 C1319 1.451 . S
C1330 C1329 1.331 . S
C1330 C1331 1.497 . S
C1331 C1322 1.395 . S
C1331 C1326 1.446 . S
C1331 C1330 1.497 . S
C1332 C1333 1.582 . S
C1332 H1389 0.962 . S
C1332 H1390 0.959 . S
C1332 H1391 0.958 . S
C1333 C1332 1.582 . S
C1333 O1336 1.458 . S
C1333 H1362 0.980 . S
O1334 C1279 1.426 . S
O1334 C1280 1.334 . S
O1335 C1307 1.427 . S
O1335 C1308 1.393 . S
O1336 C1298 1.435 . S
O1336 C1333 1.458 . S
O1337 C1289 1.468 . S
O1337 C1290 1.408 . S
H1338 C1279 0.980 . S
H1339 C1278 0.959 . S
H1340 C1278 0.959 . S
H1341 C1278 0.960 . S
H1342 C1281 0.929 . S
H1343 C1285 0.929 . S
H1344 C1286 0.959 . S
H1345 C1286 0.961 . S
H1346 C1286 0.961 . S
H1347 C1287 0.960 . S
H1348 C1287 0.960 . S
H1349 C1287 0.961 . S
H1350 C1289 0.942 1_455 S
H1351 C1288 0.961 . S
H1352 C1288 0.960 . S
H1353 C1288 0.959 . S
H1354 C1291 0.930 1_455 S
H1355 C1295 0.931 . S
H1356 C1296 0.959 . S
H1357 C1296 0.961 . S
H1358 C1296 0.959 . S
H1359 C1297 0.960 . S
H1360 C1297 0.960 . S
H1361 C1297 0.960 . S
H1362 C1333 0.980 . S
H1363 C1299 0.930 1_455 S
H1364 C1303 0.930 . S
H1365 C1304 0.961 . S
H1366 C1304 0.960 . S
H1367 C1304 0.958 . S
H1368 C1305 0.961 . S
H1369 C1305 0.960 . S
H1370 C1305 0.960 . S
H1371 C1307 0.962 1_655 S
H1372 C1306 0.961 . S
H1373 C1306 0.961 . S
H1374 C1306 0.959 . S
H1375 C1309 0.932 . S
H1376 C1313 0.929 . S
H1377 C1314 0.961 . S
H1378 C1314 0.959 . S
H1379 C1314 0.959 . S
H1380 C1315 0.960 . S
H1381 C1315 0.962 . S
H1382 C1315 0.961 . S
H1383 C1317 0.929 . S
H1384 C1320 0.930 . S
H1385 C1321 0.929 . S
H1386 C1324 0.930 . S
H1387 C1327 0.929 . S
H1388 C1328 0.930 . S
H1389 C1332 0.962 . S
H1390 C1332 0.959 . S
H1391 C1332 0.958 . S
C1392 C1393 1.560 . S
C1392 H1453 0.959 . S
C1392 H1454 0.959 . S
C1392 H1455 0.960 . S
C1393 C1392 1.560 . S
C1393 O1448 1.426 . S
C1393 H1452 0.980 . S
C1394 C1395 1.407 . S
C1394 C1399 1.418 . S
C1394 O1448 1.334 . S
C1395 C1394 1.407 . S
C1395 C1396 1.360 . S
C1395 H1456 0.929 . S
C1396 C1395 1.360 . S
C1396 C1397 1.401 . S
C1396 C1400 1.527 . S
C1397 C1396 1.401 . S
C1397 C1398 1.405 . S
C1397 C1430 1.587 . S
C1398 C1397 1.405 . S
C1398 C1399 1.332 . S
C1398 C1401 1.496 . S
C1399 C1394 1.418 . S
C1399 C1398 1.332 . S
C1399 H1457 0.929 . S
C1400 C1396 1.527 . S
C1400 H1458 0.959 . S
C1400 H1459 0.961 . S
C1400 H1460 0.961 . S
C1401 C1398 1.496 . S
C1401 H1461 0.960 . S
C1401 H1462 0.960 . S
C1401 H1463 0.961 . S
C1402 C1403 1.517 . S
C1402 H1465 0.961 . S
C1402 H1466 0.960 . S
C1402 H1467 0.959 . S
C1403 C1402 1.517 . S
C1403 O1451 1.468 . S
C1403 H1464 0.980 . S
C1404 C1405 1.349 . S
C1404 C1409 1.367 . S
C1404 O1451 1.408 . S
C1405 C1404 1.349 . S
C1405 C1406 1.407 . S
C1405 H1468 0.930 . S
C1406 C1405 1.407 . S
C1406 C1407 1.449 . S
C1406 C1410 1.535 . S
C1407 C1406 1.449 . S
C1407 C1408 1.384 . S
C1407 C1432 1.553 . S
C1408 C1407 1.384 . S
C1408 C1409 1.364 . S
C1408 C1411 1.450 . S
C1409 C1404 1.367 . S
C1409 C1408 1.364 . S
C1409 H1469 0.931 . S
C1410 C1406 1.535 . S
C1410 H1470 0.959 . S
C1410 H1471 0.961 . S
C1410 H1472 0.959 . S
C1411 C1408 1.450 . S
C1411 H1473 0.960 . S
C1411 H1474 0.960 . S
C1411 H1475 0.960 . S
C1412 C1413 1.309 . S
C1412 C1417 1.304 . S
C1412 O1450 1.435 . S
C1413 C1412 1.309 . S
C1413 C1414 1.476 . S
C1413 H1477 0.930 . S
C1414 C1413 1.476 . S
C1414 C1415 1.400 . S
C1414 C1418 1.567 . S
C1415 C1414 1.400 . S
C1415 C1416 1.373 . S
C1415 C1437 1.432 . S
C1416 C1415 1.373 . S
C1416 C1417 1.339 . S
C1416 C1419 1.530 . S
C1417 C1412 1.304 . S
C1417 C1416 1.339 . S
C1417 H1478 0.930 . S
C1418 C1414 1.567 . S
C1418 H1479 0.961 . S
C1418 H1480 0.960 . S
C1418 H1481 0.958 . S
C1419 C1416 1.530 . S
C1419 H1482 0.961 . S
C1419 H1483 0.960 . S
C1419 H1484 0.960 . S
C1420 C1421 1.530 . S
C1420 H1486 0.961 . S
C1420 H1487 0.961 . S
C1420 H1488 0.959 . S
C1421 C1420 1.530 . S
C1421 O1449 1.412 . S
C1421 H1485 0.980 . S
C1422 C1423 1.288 . S
C1422 C1427 1.377 . S
C1422 O1449 1.393 . S
C1423 C1422 1.288 . S
C1423 C1424 1.369 . S
C1423 H1489 0.932 . S
C1424 C1423 1.369 . S
C1424 C1425 1.398 . S
C1424 C1428 1.527 . S
C1425 C1424 1.398 . S
C1425 C1426 1.380 . S
C1425 C1439 1.497 . S
C1426 C1425 1.380 . S
C1426 C1427 1.383 . S
C1426 C1429 1.603 . S
C1427 C1422 1.377 . S
C1427 C1426 1.383 . S
C1427 H1490 0.929 . S
C1428 C1424 1.527 . S
C1428 H1491 0.961 . S
C1428 H1492 0.959 . S
C1428 H1493 0.959 . S
C1429 C1426 1.603 . S
C1429 H1494 0.960 . S
C1429 H1495 0.962 . S
C1429 H1496 0.961 . S
C1430 C1397 1.587 . S
C1430 C1431 1.360 . S
C1430 C1443 1.412 . S
C1431 C1430 1.360 . S
C1431 C1432 1.365 . S
C1431 H1497 0.929 . S
C1432 C1407 1.553 . S
C1432 C1431 1.365 . S
C1432 C1433 1.404 . S
C1433 C1432 1.404 . S
C1433 C1434 1.395 . S
C1433 C1444 1.451 . S
C1434 C1433 1.395 . S
C1434 C1435 1.322 . S
C1434 H1498 0.930 . S
C1435 C1434 1.322 . S
C1435 C1436 1.459 . S
C1435 H1499 0.929 . S
C1436 C1435 1.459 . S
C1436 C1437 1.445 . S
C1436 C1445 1.395 . S
C1437 C1415 1.432 . S
C1437 C1436 1.445 . S
C1437 C1438 1.370 . S
C1438 C1437 1.370 . S
C1438 C1439 1.438 . S
C1438 H1500 0.930 . S
C1439 C1425 1.497 . S
C1439 C1438 1.438 . S
C1439 C1440 1.360 . S
C1440 C1439 1.360 . S
C1440 C1441 1.401 . S
C1440 C1445 1.446 . S
C1441 C1440 1.401 . S
C1441 C1442 1.347 . S
C1441 H1501 0.929 . S
C1442 C1441 1.347 . S
C1442 C1443 1.455 . S
C1442 H1502 0.930 . S
C1443 C1430 1.412 . S
C1443 C1442 1.455 . S
C1443 C1444 1.331 . S
C1444 C1433 1.451 . S
C1444 C1443 1.331 . S
C1444 C1445 1.497 . S
C1445 C1436 1.395 . S
C1445 C1440 1.446 . S
C1445 C1444 1.497 . S
C1446 C1447 1.582 . S
C1446 H1503 0.962 . S
C1446 H1504 0.959 . S
C1446 H1505 0.958 . S
C1447 C1446 1.582 . S
C1447 O1450 1.458 . S
C1447 H1476 0.980 . S
O1448 C1393 1.426 . S
O1448 C1394 1.334 . S
O1449 C1421 1.412 . S
O1449 C1422 1.393 . S
O1450 C1412 1.435 . S
O1450 C1447 1.458 . S
O1451 C1403 1.468 . S
O1451 C1404 1.408 . S
H1452 C1393 0.980 . S
H1453 C1392 0.959 . S
H1454 C1392 0.959 . S
H1455 C1392 0.960 . S
H1456 C1395 0.929 . S
H1457 C1399 0.929 . S
H1458 C1400 0.959 . S
H1459 C1400 0.961 . S
H1460 C1400 0.961 . S
H1461 C1401 0.960 . S
H1462 C1401 0.960 . S
H1463 C1401 0.961 . S
H1464 C1403 0.980 . S
H1465 C1402 0.961 . S
H1466 C1402 0.960 . S
H1467 C1402 0.959 . S
H1468 C1405 0.930 . S
H1469 C1409 0.931 . S
H1470 C1410 0.959 . S
H1471 C1410 0.961 . S
H1472 C1410 0.959 . S
H1473 C1411 0.960 . S
H1474 C1411 0.960 . S
H1475 C1411 0.960 . S
H1476 C1447 0.980 . S
H1477 C1413 0.930 . S
H1478 C1417 0.930 . S
H1479 C1418 0.961 . S
H1480 C1418 0.960 . S
H1481 C1418 0.958 . S
H1482 C1419 0.961 . S
H1483 C1419 0.960 . S
H1484 C1419 0.960 . S
H1485 C1421 0.980 . S
H1486 C1420 0.961 . S
H1487 C1420 0.961 . S
H1488 C1420 0.959 . S
H1489 C1423 0.932 . S
H1490 C1427 0.929 . S
H1491 C1428 0.961 . S
H1492 C1428 0.959 . S
H1493 C1428 0.959 . S
H1494 C1429 0.960 . S
H1495 C1429 0.962 . S
H1496 C1429 0.961 . S
H1497 C1431 0.929 . S
H1498 C1434 0.930 . S
H1499 C1435 0.929 . S
H1500 C1438 0.930 . S
H1501 C1441 0.929 . S
H1502 C1442 0.930 . S
H1503 C1446 0.962 . S
H1504 C1446 0.959 . S
H1505 C1446 0.958 . S
C1506 C1507 1.560 . S
C1506 H1567 0.959 . S
C1506 H1568 0.959 . S
C1506 H1569 0.960 . S
C1507 C1506 1.560 . S
C1507 O1562 1.426 . S
C1507 H1566 0.980 . S
C1508 C1509 1.407 1_565 S
C1508 C1513 1.418 . S
C1508 O1562 1.334 . S
C1509 C1508 1.407 1_545 S
C1509 C1510 1.360 . S
C1509 H1570 0.929 . S
C1510 C1509 1.360 . S
C1510 C1511 1.401 1_545 S
C1510 C1514 1.527 . S
C1511 C1510 1.401 1_565 S
C1511 C1512 1.405 . S
C1511 C1544 1.587 1_565 S
C1512 C1511 1.405 . S
C1512 C1513 1.332 . S
C1512 C1515 1.496 . S
C1513 C1508 1.418 . S
C1513 C1512 1.332 . S
C1513 H1571 0.929 . S
C1514 C1510 1.527 . S
C1514 H1572 0.959 . S
C1514 H1573 0.961 . S
C1514 H1574 0.961 . S
C1515 C1512 1.496 . S
C1515 H1575 0.960 . S
C1515 H1576 0.960 . S
C1515 H1577 0.961 . S
C1516 C1517 1.517 . S
C1516 H1579 0.918 1_545 S
C1516 H1580 0.960 . S
C1516 H1581 0.959 . S
C1517 C1516 1.517 . S
C1517 O1565 1.468 . S
C1517 H1578 0.980 1_545 S
C1518 C1519 1.349 . S
C1518 C1523 1.367 . S
C1518 O1565 1.408 . S
C1519 C1518 1.349 . S
C1519 C1520 1.407 1_545 S
C1519 H1582 0.930 1_545 S
C1520 C1519 1.407 1_565 S
C1520 C1521 1.449 1_565 S
C1520 C1524 1.535 . S
C1521 C1520 1.449 1_545 S
C1521 C1522 1.384 . S
C1521 C1546 1.553 . S
C1522 C1521 1.384 . S
C1522 C1523 1.364 . S
C1522 C1525 1.450 . S
C1523 C1518 1.367 . S
C1523 C1522 1.364 . S
C1523 H1583 0.931 . S
C1524 C1520 1.535 . S
C1524 H1584 0.959 . S
C1524 H1585 0.961 . S
C1524 H1586 0.959 . S
C1525 C1522 1.450 . S
C1525 H1587 0.960 . S
C1525 H1588 0.960 . S
C1525 H1589 0.960 . S
C1526 C1527 1.309 . S
C1526 C1531 1.304 . S
C1526 O1564 1.435 . S
C1527 C1526 1.309 . S
C1527 C1528 1.482 1_545 S
C1527 H1591 0.930 1_545 S
C1528 C1527 1.482 1_565 S
C1528 C1529 1.378 1_565 S
C1528 C1532 1.582 . S
C1529 C1528 1.378 1_545 S
C1529 C1530 1.373 . S
C1529 C1551 1.432 . S
C1530 C1529 1.373 . S
C1530 C1531 1.339 . S
C1530 C1533 1.530 . S
C1531 C1526 1.304 . S
C1531 C1530 1.339 . S
C1531 H1592 0.930 . S
C1532 C1528 1.582 . S
C1532 H1593 0.961 . S
C1532 H1594 0.960 . S
C1532 H1595 0.958 . S
C1533 C1530 1.530 . S
C1533 H1596 0.961 . S
C1533 H1597 0.960 . S
C1533 H1598 0.960 . S
C1534 C1535 1.530 1_565 S
C1534 H1600 0.961 . S
C1534 H1601 0.961 . S
C1534 H1602 0.959 . S
C1535 C1534 1.530 1_545 S
C1535 O1563 1.412 1_545 S
C1535 H1599 0.980 . S
C1536 C1537 1.288 . S
C1536 C1541 1.377 1_565 S
C1536 O1563 1.393 . S
C1537 C1536 1.288 . S
C1537 C1538 1.369 . S
C1537 H1603 0.932 . S
C1538 C1537 1.369 . S
C1538 C1539 1.398 1_565 S
C1538 C1542 1.527 . S
C1539 C1538 1.398 1_545 S
C1539 C1540 1.380 . S
C1539 C1553 1.497 . S
C1540 C1539 1.380 . S
C1540 C1541 1.383 . S
C1540 C1543 1.603 . S
C1541 C1536 1.377 1_545 S
C1541 C1540 1.383 . S
C1541 H1604 0.929 . S
C1542 C1538 1.527 . S
C1542 H1605 0.961 . S
C1542 H1606 0.959 . S
C1542 H1607 0.959 . S
C1543 C1540 1.603 . S
C1543 H1608 0.960 . S
C1543 H1609 0.962 . S
C1543 H1610 0.961 . S
C1544 C1511 1.587 1_545 S
C1544 C1545 1.360 . S
C1544 C1557 1.412 . S
C1545 C1544 1.360 . S
C1545 C1546 1.365 . S
C1545 H1611 0.929 . S
C1546 C1521 1.553 . S
C1546 C1545 1.365 . S
C1546 C1547 1.404 . S
C1547 C1546 1.404 . S
C1547 C1548 1.395 . S
C1547 C1558 1.451 . S
C1548 C1547 1.395 . S
C1548 C1549 1.322 . S
C1548 H1612 0.930 . S
C1549 C1548 1.322 . S
C1549 C1550 1.459 . S
C1549 H1613 0.929 . S
C1550 C1549 1.459 . S
C1550 C1551 1.445 . S
C1550 C1559 1.395 . S
C1551 C1529 1.432 . S
C1551 C1550 1.445 . S
C1551 C1552 1.370 . S
C1552 C1551 1.370 . S
C1552 C1553 1.438 . S
C1552 H1614 0.930 . S
C1553 C1539 1.497 . S
C1553 C1552 1.438 . S
C1553 C1554 1.360 . S
C1554 C1553 1.360 . S
C1554 C1555 1.401 . S
C1554 C1559 1.446 . S
C1555 C1554 1.401 . S
C1555 C1556 1.347 . S
C1555 H1615 0.929 . S
C1556 C1555 1.347 . S
C1556 C1557 1.455 . S
C1556 H1616 0.930 . S
C1557 C1544 1.412 . S
C1557 C1556 1.455 . S
C1557 C1558 1.331 . S
C1558 C1547 1.451 . S
C1558 C1557 1.331 . S
C1558 C1559 1.497 . S
C1559 C1550 1.395 . S
C1559 C1554 1.446 . S
C1559 C1558 1.497 . S
C1560 C1561 1.582 . S
C1560 H1617 0.962 . S
C1560 H1618 0.959 . S
C1560 H1619 0.958 . S
C1561 C1560 1.582 . S
C1561 O1564 1.458 . S
C1561 H1590 0.980 . S
O1562 C1507 1.426 . S
O1562 C1508 1.334 . S
O1563 C1535 1.412 1_565 S
O1563 C1536 1.393 . S
O1564 C1526 1.435 . S
O1564 C1561 1.458 . S
O1565 C1517 1.468 . S
O1565 C1518 1.408 . S
H1566 C1507 0.980 . S
H1567 C1506 0.959 . S
H1568 C1506 0.959 . S
H1569 C1506 0.960 . S
H1570 C1509 0.929 . S
H1571 C1513 0.929 . S
H1572 C1514 0.959 . S
H1573 C1514 0.961 . S
H1574 C1514 0.961 . S
H1575 C1515 0.960 . S
H1576 C1515 0.960 . S
H1577 C1515 0.961 . S
H1578 C1517 0.980 1_565 S
H1579 C1516 0.918 1_565 S
H1580 C1516 0.960 . S
H1581 C1516 0.959 . S
H1582 C1519 0.930 1_565 S
H1583 C1523 0.931 . S
H1584 C1524 0.959 . S
H1585 C1524 0.961 . S
H1586 C1524 0.959 . S
H1587 C1525 0.960 . S
H1588 C1525 0.960 . S
H1589 C1525 0.960 . S
H1590 C1561 0.980 . S
H1591 C1527 0.930 1_565 S
H1592 C1531 0.930 . S
H1593 C1532 0.961 . S
H1594 C1532 0.960 . S
H1595 C1532 0.958 . S
H1596 C1533 0.961 . S
H1597 C1533 0.960 . S
H1598 C1533 0.960 . S
H1599 C1535 0.980 . S
H1600 C1534 0.961 . S
H1601 C1534 0.961 . S
H1602 C1534 0.959 . S
H1603 C1537 0.932 . S
H1604 C1541 0.929 . S
H1605 C1542 0.961 . S
H1606 C1542 0.959 . S
H1607 C1542 0.959 . S
H1608 C1543 0.960 . S
H1609 C1543 0.962 . S
H1610 C1543 0.961 . S
H1611 C1545 0.929 . S
H1612 C1548 0.930 . S
H1613 C1549 0.929 . S
H1614 C1552 0.930 . S
H1615 C1555 0.929 . S
H1616 C1556 0.930 . S
H1617 C1560 0.962 . S
H1618 C1560 0.959 . S
H1619 C1560 0.958 . S
C1620 C1621 1.560 . S
C1620 H1681 0.959 . S
C1620 H1682 0.959 . S
C1620 H1683 0.960 . S
C1621 C1620 1.560 . S
C1621 O1676 1.426 . S
C1621 H1680 0.980 1_565 S
C1622 C1623 1.407 1_565 S
C1622 C1627 1.418 . S
C1622 O1676 1.334 . S
C1623 C1622 1.407 1_545 S
C1623 C1624 1.360 . S
C1623 H1684 0.929 . S
C1624 C1623 1.360 . S
C1624 C1625 1.401 . S
C1624 C1628 1.527 . S
C1625 C1624 1.401 . S
C1625 C1626 1.405 1_545 S
C1625 C1658 1.587 . S
C1626 C1625 1.405 1_565 S
C1626 C1627 1.332 . S
C1626 C1629 1.496 . S
C1627 C1622 1.418 . S
C1627 C1626 1.332 . S
C1627 H1685 0.929 . S
C1628 C1624 1.527 . S
C1628 H1686 0.959 . S
C1628 H1687 0.961 . S
C1628 H1688 0.961 . S
C1629 C1626 1.496 . S
C1629 H1689 0.960 . S
C1629 H1690 0.960 . S
C1629 H1691 0.961 . S
C1630 C1631 1.517 . S
C1630 H1693 0.961 . S
C1630 H1694 0.960 . S
C1630 H1695 0.959 . S
C1631 C1630 1.517 . S
C1631 O1679 1.468 . S
C1631 H1692 0.980 . S
C1632 C1633 1.349 . S
C1632 C1637 1.367 . S
C1632 O1679 1.408 . S
C1633 C1632 1.349 . S
C1633 C1634 1.407 . S
C1633 H1696 0.910 1_545 S
C1634 C1633 1.407 . S
C1634 C1635 1.449 . S
C1634 C1638 1.535 1_545 S
C1635 C1634 1.449 . S
C1635 C1636 1.384 . S
C1635 C1660 1.553 . S
C1636 C1635 1.384 . S
C1636 C1637 1.364 . S
C1636 C1639 1.450 . S
C1637 C1632 1.367 . S
C1637 C1636 1.364 . S
C1637 H1697 0.931 . S
C1638 C1634 1.535 1_565 S
C1638 H1698 0.959 . S
C1638 H1699 0.961 . S
C1638 H1700 0.959 . S
C1639 C1636 1.450 . S
C1639 H1701 0.960 . S
C1639 H1702 0.960 . S
C1639 H1703 0.960 . S
C1640 C1641 1.309 1_545 S
C1640 C1645 1.304 . S
C1640 O1678 1.435 . S
C1641 C1640 1.309 1_565 S
C1641 C1642 1.476 . S
C1641 H1705 0.930 . S
C1642 C1641 1.476 . S
C1642 C1643 1.400 1_565 S
C1642 C1646 1.567 . S
C1643 C1642 1.400 1_545 S
C1643 C1644 1.373 . S
C1643 C1665 1.432 . S
C1644 C1643 1.373 . S
C1644 C1645 1.339 . S
C1644 C1647 1.530 . S
C1645 C1640 1.304 . S
C1645 C1644 1.339 . S
C1645 H1706 0.930 . S
C1646 C1642 1.567 . S
C1646 H1707 0.961 . S
C1646 H1708 0.960 . S
C1646 H1709 0.958 . S
C1647 C1644 1.530 . S
C1647 H1710 0.961 . S
C1647 H1711 0.960 . S
C1647 H1712 0.960 . S
C1648 C1649 1.530 . S
C1648 H1714 0.961 . S
C1648 H1715 0.961 . S
C1648 H1716 0.959 . S
C1649 C1648 1.530 . S
C1649 O1677 1.412 . S
C1649 H1713 0.981 1_565 S
C1650 C1651 1.288 . S
C1650 C1655 1.377 1_565 S
C1650 O1677 1.393 . S
C1651 C1650 1.288 . S
C1651 C1652 1.369 . S
C1651 H1717 0.932 . S
C1652 C1651 1.369 . S
C1652 C1653 1.398 . S
C1652 C1656 1.527 . S
C1653 C1652 1.398 . S
C1653 C1654 1.380 1_565 S
C1653 C1667 1.497 1_565 S
C1654 C1653 1.380 1_545 S
C1654 C1655 1.383 . S
C1654 C1657 1.603 . S
C1655 C1650 1.377 1_545 S
C1655 C1654 1.383 . S
C1655 H1718 0.929 . S
C1656 C1652 1.527 . S
C1656 H1719 0.961 . S
C1656 H1720 0.959 . S
C1656 H1721 0.959 . S
C1657 C1654 1.603 . S
C1657 H1722 0.960 . S
C1657 H1723 0.962 . S
C1657 H1724 0.961 . S
C1658 C1625 1.587 . S
C1658 C1659 1.360 . S
C1658 C1671 1.412 . S
C1659 C1658 1.360 . S
C1659 C1660 1.365 . S
C1659 H1725 0.929 . S
C1660 C1635 1.553 . S
C1660 C1659 1.365 . S
C1660 C1661 1.404 . S
C1661 C1660 1.404 . S
C1661 C1662 1.395 . S
C1661 C1672 1.451 . S
C1662 C1661 1.395 . S
C1662 C1663 1.322 . S
C1662 H1726 0.930 . S
C1663 C1662 1.322 . S
C1663 C1664 1.459 . S
C1663 H1727 0.929 . S
C1664 C1663 1.459 . S
C1664 C1665 1.445 . S
C1664 C1673 1.395 . S
C1665 C1643 1.432 . S
C1665 C1664 1.445 . S
C1665 C1666 1.370 . S
C1666 C1665 1.370 . S
C1666 C1667 1.438 . S
C1666 H1728 0.930 . S
C1667 C1653 1.497 1_545 S
C1667 C1666 1.438 . S
C1667 C1668 1.360 . S
C1668 C1667 1.360 . S
C1668 C1669 1.401 . S
C1668 C1673 1.446 . S
C1669 C1668 1.401 . S
C1669 C1670 1.347 . S
C1669 H1729 0.981 . S
C1670 C1669 1.347 . S
C1670 C1671 1.455 . S
C1670 H1730 0.930 . S
C1671 C1658 1.412 . S
C1671 C1670 1.455 . S
C1671 C1672 1.331 . S
C1672 C1661 1.451 . S
C1672 C1671 1.331 . S
C1672 C1673 1.497 . S
C1673 C1664 1.395 . S
C1673 C1668 1.446 . S
C1673 C1672 1.497 . S
C1674 C1675 1.627 . S
C1674 H1731 0.962 . S
C1674 H1732 0.959 . S
C1674 H1733 0.958 . S
C1675 C1674 1.627 . S
C1675 O1678 1.477 . S
C1675 H1704 0.981 1_545 S
O1676 C1621 1.426 . S
O1676 C1622 1.334 . S
O1677 C1649 1.412 . S
O1677 C1650 1.393 . S
O1678 C1640 1.435 . S
O1678 C1675 1.477 . S
O1679 C1631 1.468 . S
O1679 C1632 1.408 . S
H1680 C1621 0.980 1_545 S
H1681 C1620 0.959 . S
H1682 C1620 0.959 . S
H1683 C1620 0.960 . S
H1684 C1623 0.929 . S
H1685 C1627 0.929 . S
H1686 C1628 0.959 . S
H1687 C1628 0.961 . S
H1688 C1628 0.961 . S
H1689 C1629 0.960 . S
H1690 C1629 0.960 . S
H1691 C1629 0.961 . S
H1692 C1631 0.980 . S
H1693 C1630 0.961 . S
H1694 C1630 0.960 . S
H1695 C1630 0.959 . S
H1696 C1633 0.910 1_565 S
H1697 C1637 0.931 . S
H1698 C1638 0.959 . S
H1699 C1638 0.961 . S
H1700 C1638 0.959 . S
H1701 C1639 0.960 . S
H1702 C1639 0.960 . S
H1703 C1639 0.960 . S
H1704 C1675 0.981 1_565 S
H1705 C1641 0.930 . S
H1706 C1645 0.930 . S
H1707 C1646 0.961 . S
H1708 C1646 0.960 . S
H1709 C1646 0.958 . S
H1710 C1647 0.961 . S
H1711 C1647 0.960 . S
H1712 C1647 0.960 . S
H1713 C1649 0.981 1_545 S
H1714 C1648 0.961 . S
H1715 C1648 0.961 . S
H1716 C1648 0.959 . S
H1717 C1651 0.932 . S
H1718 C1655 0.929 . S
H1719 C1656 0.961 . S
H1720 C1656 0.959 . S
H1721 C1656 0.959 . S
H1722 C1657 0.960 . S
H1723 C1657 0.962 . S
H1724 C1657 0.961 . S
H1725 C1659 0.929 . S
H1726 C1662 0.930 . S
H1727 C1663 0.929 . S
H1728 C1666 0.930 . S
H1729 C1669 0.981 . S
H1730 C1670 0.930 . S
H1731 C1674 0.962 . S
H1732 C1674 0.959 . S
H1733 C1674 0.958 . S
C1734 C1735 1.560 . S
C1734 H1795 0.959 . S
C1734 H1796 0.959 . S
C1734 H1797 0.960 . S
C1735 C1734 1.560 . S
C1735 O1790 1.426 . S
C1735 H1794 0.980 1_455 S
C1736 C1737 1.407 1_455 S
C1736 C1741 1.418 . S
C1736 O1790 1.334 . S
C1737 C1736 1.407 1_655 S
C1737 C1738 1.360 . S
C1737 H1798 0.929 . S
C1738 C1737 1.360 . S
C1738 C1739 1.401 . S
C1738 C1742 1.527 . S
C1739 C1738 1.401 . S
C1739 C1740 1.405 1_655 S
C1739 C1772 1.587 . S
C1740 C1739 1.405 1_455 S
C1740 C1741 1.332 . S
C1740 C1743 1.496 . S
C1741 C1736 1.418 . S
C1741 C1740 1.332 . S
C1741 H1799 0.929 . S
C1742 C1738 1.527 . S
C1742 H1800 0.959 . S
C1742 H1801 0.961 . S
C1742 H1802 0.961 . S
C1743 C1740 1.496 . S
C1743 H1803 0.960 . S
C1743 H1804 0.960 . S
C1743 H1805 0.961 . S
C1744 C1745 1.517 . S
C1744 H1807 0.961 . S
C1744 H1808 0.960 . S
C1744 H1809 0.959 . S
C1745 C1744 1.517 . S
C1745 O1793 1.468 . S
C1745 H1806 0.980 . S
C1746 C1747 1.349 . S
C1746 C1751 1.367 . S
C1746 O1793 1.408 . S
C1747 C1746 1.349 . S
C1747 C1748 1.407 . S
C1747 H1810 0.884 1_655 S
C1748 C1747 1.407 . S
C1748 C1749 1.449 . S
C1748 C1752 1.535 1_655 S
C1749 C1748 1.449 . S
C1749 C1750 1.384 . S
C1749 C1774 1.553 . S
C1750 C1749 1.384 . S
C1750 C1751 1.364 . S
C1750 C1753 1.450 . S
C1751 C1746 1.367 . S
C1751 C1750 1.364 . S
C1751 H1811 0.931 . S
C1752 C1748 1.535 1_455 S
C1752 H1812 0.959 . S
C1752 H1813 0.961 . S
C1752 H1814 0.959 . S
C1753 C1750 1.450 . S
C1753 H1815 0.960 . S
C1753 H1816 0.960 . S
C1753 H1817 0.960 . S
C1754 C1755 1.309 1_655 S
C1754 C1759 1.304 . S
C1754 O1792 1.435 . S
C1755 C1754 1.309 1_455 S
C1755 C1756 1.476 . S
C1755 H1819 0.930 . S
C1756 C1755 1.476 . S
C1756 C1757 1.400 1_455 S
C1756 C1760 1.567 . S
C1757 C1756 1.400 1_655 S
C1757 C1758 1.373 . S
C1757 C1779 1.432 . S
C1758 C1757 1.373 . S
C1758 C1759 1.339 . S
C1758 C1761 1.530 . S
C1759 C1754 1.304 . S
C1759 C1758 1.339 . S
C1759 H1820 0.930 . S
C1760 C1756 1.567 . S
C1760 H1821 0.961 . S
C1760 H1822 0.960 . S
C1760 H1823 0.958 . S
C1761 C1758 1.530 . S
C1761 H1824 0.961 . S
C1761 H1825 0.960 . S
C1761 H1826 0.960 . S
C1762 C1763 1.530 . S
C1762 H1828 0.961 . S
C1762 H1829 0.961 . S
C1762 H1830 0.959 . S
C1763 C1762 1.530 . S
C1763 O1791 1.412 . S
C1763 H1827 0.966 1_455 S
C1764 C1765 1.288 . S
C1764 C1769 1.377 1_455 S
C1764 O1791 1.393 . S
C1765 C1764 1.288 . S
C1765 C1766 1.369 . S
C1765 H1831 0.932 . S
C1766 C1765 1.369 . S
C1766 C1767 1.398 . S
C1766 C1770 1.527 . S
C1767 C1766 1.398 . S
C1767 C1768 1.380 1_455 S
C1767 C1781 1.497 1_455 S
C1768 C1767 1.380 1_655 S
C1768 C1769 1.383 . S
C1768 C1771 1.603 . S
C1769 C1764 1.377 1_655 S
C1769 C1768 1.383 . S
C1769 H1832 0.929 . S
C1770 C1766 1.527 . S
C1770 H1833 0.961 . S
C1770 H1834 0.959 . S
C1770 H1835 0.959 . S
C1771 C1768 1.603 . S
C1771 H1836 0.960 . S
C1771 H1837 0.962 . S
C1771 H1838 0.961 . S
C1772 C1739 1.587 . S
C1772 C1773 1.360 . S
C1772 C1785 1.412 . S
C1773 C1772 1.360 . S
C1773 C1774 1.365 . S
C1773 H1839 0.929 . S
C1774 C1749 1.553 . S
C1774 C1773 1.365 . S
C1774 C1775 1.404 . S
C1775 C1774 1.404 . S
C1775 C1776 1.395 . S
C1775 C1786 1.451 . S
C1776 C1775 1.395 . S
C1776 C1777 1.322 . S
C1776 H1840 0.930 . S
C1777 C1776 1.322 . S
C1777 C1778 1.459 . S
C1777 H1841 0.929 . S
C1778 C1777 1.459 . S
C1778 C1779 1.445 . S
C1778 C1787 1.395 . S
C1779 C1757 1.432 . S
C1779 C1778 1.445 . S
C1779 C1780 1.370 . S
C1780 C1779 1.370 . S
C1780 C1781 1.438 . S
C1780 H1842 0.930 . S
C1781 C1767 1.497 1_655 S
C1781 C1780 1.438 . S
C1781 C1782 1.360 . S
C1782 C1781 1.360 . S
C1782 C1783 1.401 . S
C1782 C1787 1.446 . S
C1783 C1782 1.401 . S
C1783 C1784 1.347 . S
C1783 H1843 0.929 . S
C1784 C1783 1.347 . S
C1784 C1785 1.455 . S
C1784 H1844 0.930 . S
C1785 C1772 1.412 . S
C1785 C1784 1.455 . S
C1785 C1786 1.331 . S
C1786 C1775 1.451 . S
C1786 C1785 1.331 . S
C1786 C1787 1.497 . S
C1787 C1778 1.395 . S
C1787 C1782 1.446 . S
C1787 C1786 1.497 . S
C1788 C1789 1.581 1_655 S
C1788 H1845 0.956 . S
C1788 H1846 0.959 . S
C1788 H1847 0.958 . S
C1789 C1788 1.581 1_455 S
C1789 O1792 1.395 1_455 S
C1789 H1818 1.008 . S
O1790 C1735 1.426 . S
O1790 C1736 1.334 . S
O1791 C1763 1.412 . S
O1791 C1764 1.393 . S
O1792 C1754 1.435 . S
O1792 C1789 1.395 1_655 S
O1793 C1745 1.468 . S
O1793 C1746 1.408 . S
H1794 C1735 0.980 1_655 S
H1795 C1734 0.959 . S
H1796 C1734 0.959 . S
H1797 C1734 0.960 . S
H1798 C1737 0.929 . S
H1799 C1741 0.929 . S
H1800 C1742 0.959 . S
H1801 C1742 0.961 . S
H1802 C1742 0.961 . S
H1803 C1743 0.960 . S
H1804 C1743 0.960 . S
H1805 C1743 0.961 . S
H1806 C1745 0.980 . S
H1807 C1744 0.961 . S
H1808 C1744 0.960 . S
H1809 C1744 0.959 . S
H1810 C1747 0.884 1_455 S
H1811 C1751 0.931 . S
H1812 C1752 0.959 . S
H1813 C1752 0.961 . S
H1814 C1752 0.959 . S
H1815 C1753 0.960 . S
H1816 C1753 0.960 . S
H1817 C1753 0.960 . S
H1818 C1789 1.008 . S
H1819 C1755 0.930 . S
H1820 C1759 0.930 . S
H1821 C1760 0.961 . S
H1822 C1760 0.960 . S
H1823 C1760 0.958 . S
H1824 C1761 0.961 . S
H1825 C1761 0.960 . S
H1826 C1761 0.960 . S
H1827 C1763 0.966 1_655 S
H1828 C1762 0.961 . S
H1829 C1762 0.961 . S
H1830 C1762 0.959 . S
H1831 C1765 0.932 . S
H1832 C1769 0.929 . S
H1833 C1770 0.961 . S
H1834 C1770 0.959 . S
H1835 C1770 0.959 . S
H1836 C1771 0.960 . S
H1837 C1771 0.962 . S
H1838 C1771 0.961 . S
H1839 C1773 0.929 . S
H1840 C1776 0.930 . S
H1841 C1777 0.929 . S
H1842 C1780 0.930 . S
H1843 C1783 0.929 . S
H1844 C1784 0.930 . S
H1845 C1788 0.956 . S
H1846 C1788 0.959 . S
H1847 C1788 0.958 . S
C1848 C1849 1.560 . S
C1848 H1909 0.959 . S
C1848 H1910 0.959 . S
C1848 H1911 0.960 . S
C1849 C1848 1.560 . S
C1849 O1904 1.426 . S
C1849 H1908 0.980 . S
C1850 C1851 1.407 . S
C1850 C1855 1.418 . S
C1850 O1904 1.334 . S
C1851 C1850 1.407 . S
C1851 C1852 1.360 . S
C1851 H1912 0.929 . S
C1852 C1851 1.360 . S
C1852 C1853 1.401 . S
C1852 C1856 1.527 . S
C1853 C1852 1.401 . S
C1853 C1854 1.405 . S
C1853 C1886 1.587 . S
C1854 C1853 1.405 . S
C1854 C1855 1.332 . S
C1854 C1857 1.496 . S
C1855 C1850 1.418 . S
C1855 C1854 1.332 . S
C1855 H1913 0.929 . S
C1856 C1852 1.527 . S
C1856 H1914 0.959 . S
C1856 H1915 0.961 . S
C1856 H1916 0.961 . S
C1857 C1854 1.496 . S
C1857 H1917 0.960 . S
C1857 H1918 0.960 . S
C1857 H1919 0.961 . S
C1858 C1859 1.517 . S
C1858 H1921 0.961 . S
C1858 H1922 0.960 . S
C1858 H1923 0.959 . S
C1859 C1858 1.517 . S
C1859 O1907 1.468 . S
C1859 H1920 0.980 . S
C1860 C1861 1.349 . S
C1860 C1865 1.367 . S
C1860 O1907 1.408 . S
C1861 C1860 1.349 . S
C1861 C1862 1.407 . S
C1861 H1924 0.930 . S
C1862 C1861 1.407 . S
C1862 C1863 1.449 . S
C1862 C1866 1.535 . S
C1863 C1862 1.449 . S
C1863 C1864 1.384 . S
C1863 C1888 1.553 . S
C1864 C1863 1.384 . S
C1864 C1865 1.364 . S
C1864 C1867 1.450 . S
C1865 C1860 1.367 . S
C1865 C1864 1.364 . S
C1865 H1925 0.931 . S
C1866 C1862 1.535 . S
C1866 H1926 0.959 . S
C1866 H1927 0.961 . S
C1866 H1928 0.959 . S
C1867 C1864 1.450 . S
C1867 H1929 0.960 . S
C1867 H1930 0.960 . S
C1867 H1931 0.960 . S
C1868 C1869 1.309 . S
C1868 C1873 1.304 . S
C1868 O1906 1.435 . S
C1869 C1868 1.309 . S
C1869 C1870 1.476 . S
C1869 H1933 0.930 . S
C1870 C1869 1.476 . S
C1870 C1871 1.400 . S
C1870 C1874 1.567 . S
C1871 C1870 1.400 . S
C1871 C1872 1.373 . S
C1871 C1893 1.432 . S
C1872 C1871 1.373 . S
C1872 C1873 1.339 . S
C1872 C1875 1.530 . S
C1873 C1868 1.304 . S
C1873 C1872 1.339 . S
C1873 H1934 0.930 . S
C1874 C1870 1.567 . S
C1874 H1935 0.961 . S
C1874 H1936 0.960 . S
C1874 H1937 0.958 . S
C1875 C1872 1.530 . S
C1875 H1938 0.961 . S
C1875 H1939 0.960 . S
C1875 H1940 0.960 . S
C1876 C1877 1.530 . S
C1876 H1942 0.961 . S
C1876 H1943 0.961 . S
C1876 H1944 0.959 . S
C1877 C1876 1.530 . S
C1877 O1905 1.412 . S
C1877 H1941 0.980 . S
C1878 C1879 1.288 . S
C1878 C1883 1.377 . S
C1878 O1905 1.393 . S
C1879 C1878 1.288 . S
C1879 C1880 1.369 . S
C1879 H1945 0.932 . S
C1880 C1879 1.369 . S
C1880 C1881 1.398 . S
C1880 C1884 1.527 . S
C1881 C1880 1.398 . S
C1881 C1882 1.380 . S
C1881 C1895 1.497 . S
C1882 C1881 1.380 . S
C1882 C1883 1.383 . S
C1882 C1885 1.603 . S
C1883 C1878 1.377 . S
C1883 C1882 1.383 . S
C1883 H1946 0.929 . S
C1884 C1880 1.527 . S
C1884 H1947 0.961 . S
C1884 H1948 0.959 . S
C1884 H1949 0.959 . S
C1885 C1882 1.603 . S
C1885 H1950 0.960 . S
C1885 H1951 0.962 . S
C1885 H1952 0.961 . S
C1886 C1853 1.587 . S
C1886 C1887 1.360 . S
C1886 C1899 1.412 . S
C1887 C1886 1.360 . S
C1887 C1888 1.365 . S
C1887 H1953 0.929 . S
C1888 C1863 1.553 . S
C1888 C1887 1.365 . S
C1888 C1889 1.404 . S
C1889 C1888 1.404 . S
C1889 C1890 1.395 . S
C1889 C1900 1.451 . S
C1890 C1889 1.395 . S
C1890 C1891 1.322 . S
C1890 H1954 0.930 . S
C1891 C1890 1.322 . S
C1891 C1892 1.459 . S
C1891 H1955 0.929 . S
C1892 C1891 1.459 . S
C1892 C1893 1.445 . S
C1892 C1901 1.395 . S
C1893 C1871 1.432 . S
C1893 C1892 1.445 . S
C1893 C1894 1.370 . S
C1894 C1893 1.370 . S
C1894 C1895 1.438 . S
C1894 H1956 0.930 . S
C1895 C1881 1.497 . S
C1895 C1894 1.438 . S
C1895 C1896 1.360 . S
C1896 C1895 1.360 . S
C1896 C1897 1.401 . S
C1896 C1901 1.446 . S
C1897 C1896 1.401 . S
C1897 C1898 1.347 . S
C1897 H1957 0.929 . S
C1898 C1897 1.347 . S
C1898 C1899 1.455 . S
C1898 H1958 0.930 . S
C1899 C1886 1.412 . S
C1899 C1898 1.455 . S
C1899 C1900 1.331 . S
C1900 C1889 1.451 . S
C1900 C1899 1.331 . S
C1900 C1901 1.497 . S
C1901 C1892 1.395 . S
C1901 C1896 1.446 . S
C1901 C1900 1.497 . S
C1902 C1903 1.582 . S
C1902 H1959 0.962 . S
C1902 H1960 0.959 . S
C1902 H1961 0.958 . S
C1903 C1902 1.582 . S
C1903 O1906 1.458 . S
C1903 H1932 0.980 . S
O1904 C1849 1.426 . S
O1904 C1850 1.334 . S
O1905 C1877 1.412 . S
O1905 C1878 1.393 . S
O1906 C1868 1.435 . S
O1906 C1903 1.458 . S
O1907 C1859 1.468 . S
O1907 C1860 1.408 . S
H1908 C1849 0.980 . S
H1909 C1848 0.959 . S
H1910 C1848 0.959 . S
H1911 C1848 0.960 . S
H1912 C1851 0.929 . S
H1913 C1855 0.929 . S
H1914 C1856 0.959 . S
H1915 C1856 0.961 . S
H1916 C1856 0.961 . S
H1917 C1857 0.960 . S
H1918 C1857 0.960 . S
H1919 C1857 0.961 . S
H1920 C1859 0.980 . S
H1921 C1858 0.961 . S
H1922 C1858 0.960 . S
H1923 C1858 0.959 . S
H1924 C1861 0.930 . S
H1925 C1865 0.931 . S
H1926 C1866 0.959 . S
H1927 C1866 0.961 . S
H1928 C1866 0.959 . S
H1929 C1867 0.960 . S
H1930 C1867 0.960 . S
H1931 C1867 0.960 . S
H1932 C1903 0.980 . S
H1933 C1869 0.930 . S
H1934 C1873 0.930 . S
H1935 C1874 0.961 . S
H1936 C1874 0.960 . S
H1937 C1874 0.958 . S
H1938 C1875 0.961 . S
H1939 C1875 0.960 . S
H1940 C1875 0.960 . S
H1941 C1877 0.980 . S
H1942 C1876 0.961 . S
H1943 C1876 0.961 . S
H1944 C1876 0.959 . S
H1945 C1879 0.932 . S
H1946 C1883 0.929 . S
H1947 C1884 0.961 . S
H1948 C1884 0.959 . S
H1949 C1884 0.959 . S
H1950 C1885 0.960 . S
H1951 C1885 0.962 . S
H1952 C1885 0.961 . S
H1953 C1887 0.929 . S
H1954 C1890 0.930 . S
H1955 C1891 0.929 . S
H1956 C1894 0.930 . S
H1957 C1897 0.929 . S
H1958 C1898 0.930 . S
H1959 C1902 0.962 . S
H1960 C1902 0.959 . S
H1961 C1902 0.958 . S
C1962 C1963 1.560 . S
C1962 H2023 0.959 . S
C1962 H2024 0.959 . S
C1962 H2025 0.960 . S
C1963 C1962 1.560 . S
C1963 O2018 1.426 . S
C1963 H2022 0.980 . S
C1964 C1965 1.407 . S
C1964 C1969 1.418 . S
C1964 O2018 1.334 . S
C1965 C1964 1.407 . S
C1965 C1966 1.360 . S
C1965 H2026 0.929 . S
C1966 C1965 1.360 . S
C1966 C1967 1.401 . S
C1966 C1970 1.527 . S
C1967 C1966 1.401 . S
C1967 C1968 1.405 . S
C1967 C2000 1.587 . S
C1968 C1967 1.405 . S
C1968 C1969 1.332 . S
C1968 C1971 1.496 . S
C1969 C1964 1.418 . S
C1969 C1968 1.332 . S
C1969 H2027 0.929 . S
C1970 C1966 1.527 . S
C1970 H2028 0.959 . S
C1970 H2029 0.961 . S
C1970 H2030 0.961 . S
C1971 C1968 1.496 . S
C1971 H2031 0.960 . S
C1971 H2032 0.960 . S
C1971 H2033 0.961 . S
C1972 C1973 1.517 . S
C1972 H2035 0.961 . S
C1972 H2036 0.960 . S
C1972 H2037 0.959 . S
C1973 C1972 1.517 . S
C1973 O2021 1.468 . S
C1973 H2034 0.980 . S
C1974 C1975 1.349 . S
C1974 C1979 1.367 . S
C1974 O2021 1.408 . S
C1975 C1974 1.349 . S
C1975 C1976 1.407 . S
C1975 H2038 0.930 . S
C1976 C1975 1.407 . S
C1976 C1977 1.449 . S
C1976 C1980 1.535 . S
C1977 C1976 1.449 . S
C1977 C1978 1.384 . S
C1977 C2002 1.553 . S
C1978 C1977 1.384 . S
C1978 C1979 1.364 . S
C1978 C1981 1.450 . S
C1979 C1974 1.367 . S
C1979 C1978 1.364 . S
C1979 H2039 0.931 . S
C1980 C1976 1.535 . S
C1980 H2040 0.959 . S
C1980 H2041 0.961 . S
C1980 H2042 0.959 . S
C1981 C1978 1.450 . S
C1981 H2043 0.960 . S
C1981 H2044 0.960 . S
C1981 H2045 0.960 . S
C1982 C1983 1.309 . S
C1982 C1987 1.304 . S
C1982 O2020 1.435 . S
C1983 C1982 1.309 . S
C1983 C1984 1.476 . S
C1983 H2047 0.930 . S
C1984 C1983 1.476 . S
C1984 C1985 1.400 . S
C1984 C1988 1.567 . S
C1985 C1984 1.400 . S
C1985 C1986 1.373 . S
C1985 C2007 1.432 . S
C1986 C1985 1.373 . S
C1986 C1987 1.339 . S
C1986 C1989 1.530 . S
C1987 C1982 1.304 . S
C1987 C1986 1.339 . S
C1987 H2048 0.930 . S
C1988 C1984 1.567 . S
C1988 H2049 0.961 . S
C1988 H2050 0.960 . S
C1988 H2051 0.958 . S
C1989 C1986 1.530 . S
C1989 H2052 0.961 . S
C1989 H2053 0.960 . S
C1989 H2054 0.960 . S
C1990 C1991 1.530 . S
C1990 H2056 0.961 . S
C1990 H2057 0.961 . S
C1990 H2058 0.959 . S
C1991 C1990 1.530 . S
C1991 O2019 1.412 . S
C1991 H2055 0.980 . S
C1992 C1993 1.288 . S
C1992 C1997 1.377 . S
C1992 O2019 1.393 . S
C1993 C1992 1.288 . S
C1993 C1994 1.369 . S
C1993 H2059 0.932 . S
C1994 C1993 1.369 . S
C1994 C1995 1.398 . S
C1994 C1998 1.527 . S
C1995 C1994 1.398 . S
C1995 C1996 1.380 . S
C1995 C2009 1.497 . S
C1996 C1995 1.380 . S
C1996 C1997 1.383 . S
C1996 C1999 1.603 . S
C1997 C1992 1.377 . S
C1997 C1996 1.383 . S
C1997 H2060 0.929 . S
C1998 C1994 1.527 . S
C1998 H2061 0.961 . S
C1998 H2062 0.959 . S
C1998 H2063 0.959 . S
C1999 C1996 1.603 . S
C1999 H2064 0.960 . S
C1999 H2065 0.962 . S
C1999 H2066 0.961 . S
C2000 C1967 1.587 . S
C2000 C2001 1.360 . S
C2000 C2013 1.412 . S
C2001 C2000 1.360 . S
C2001 C2002 1.365 . S
C2001 H2067 0.929 . S
C2002 C1977 1.553 . S
C2002 C2001 1.365 . S
C2002 C2003 1.404 . S
C2003 C2002 1.404 . S
C2003 C2004 1.395 . S
C2003 C2014 1.451 . S
C2004 C2003 1.395 . S
C2004 C2005 1.322 . S
C2004 H2068 0.930 . S
C2005 C2004 1.322 . S
C2005 C2006 1.459 . S
C2005 H2069 0.929 . S
C2006 C2005 1.459 . S
C2006 C2007 1.445 . S
C2006 C2015 1.395 . S
C2007 C1985 1.432 . S
C2007 C2006 1.445 . S
C2007 C2008 1.370 . S
C2008 C2007 1.370 . S
C2008 C2009 1.438 . S
C2008 H2070 0.930 . S
C2009 C1995 1.497 . S
C2009 C2008 1.438 . S
C2009 C2010 1.360 . S
C2010 C2009 1.360 . S
C2010 C2011 1.401 . S
C2010 C2015 1.446 . S
C2011 C2010 1.401 . S
C2011 C2012 1.347 . S
C2011 H2071 0.929 . S
C2012 C2011 1.347 . S
C2012 C2013 1.455 . S
C2012 H2072 0.930 . S
C2013 C2000 1.412 . S
C2013 C2012 1.455 . S
C2013 C2014 1.331 . S
C2014 C2003 1.451 . S
C2014 C2013 1.331 . S
C2014 C2015 1.497 . S
C2015 C2006 1.395 . S
C2015 C2010 1.446 . S
C2015 C2014 1.497 . S
C2016 C2017 1.582 . S
C2016 H2073 0.962 . S
C2016 H2074 0.959 . S
C2016 H2075 0.958 . S
C2017 C2016 1.582 . S
C2017 O2020 1.458 . S
C2017 H2046 0.980 . S
O2018 C1963 1.426 . S
O2018 C1964 1.334 . S
O2019 C1991 1.412 . S
O2019 C1992 1.393 . S
O2020 C1982 1.435 . S
O2020 C2017 1.458 . S
O2021 C1973 1.468 . S
O2021 C1974 1.408 . S
H2022 C1963 0.980 . S
H2023 C1962 0.959 . S
H2024 C1962 0.959 . S
H2025 C1962 0.960 . S
H2026 C1965 0.929 . S
H2027 C1969 0.929 . S
H2028 C1970 0.959 . S
H2029 C1970 0.961 . S
H2030 C1970 0.961 . S
H2031 C1971 0.960 . S
H2032 C1971 0.960 . S
H2033 C1971 0.961 . S
H2034 C1973 0.980 . S
H2035 C1972 0.961 . S
H2036 C1972 0.960 . S
H2037 C1972 0.959 . S
H2038 C1975 0.930 . S
H2039 C1979 0.931 . S
H2040 C1980 0.959 . S
H2041 C1980 0.961 . S
H2042 C1980 0.959 . S
H2043 C1981 0.960 . S
H2044 C1981 0.960 . S
H2045 C1981 0.960 . S
H2046 C2017 0.980 . S
H2047 C1983 0.930 . S
H2048 C1987 0.930 . S
H2049 C1988 0.961 . S
H2050 C1988 0.960 . S
H2051 C1988 0.958 . S
H2052 C1989 0.961 . S
H2053 C1989 0.960 . S
H2054 C1989 0.960 . S
H2055 C1991 0.980 . S
H2056 C1990 0.961 . S
H2057 C1990 0.961 . S
H2058 C1990 0.959 . S
H2059 C1993 0.932 . S
H2060 C1997 0.929 . S
H2061 C1998 0.961 . S
H2062 C1998 0.959 . S
H2063 C1998 0.959 . S
H2064 C1999 0.960 . S
H2065 C1999 0.962 . S
H2066 C1999 0.961 . S
H2067 C2001 0.929 . S
H2068 C2004 0.930 . S
H2069 C2005 0.929 . S
H2070 C2008 0.930 . S
H2071 C2011 0.929 . S
H2072 C2012 0.930 . S
H2073 C2016 0.962 . S
H2074 C2016 0.959 . S
H2075 C2016 0.958 . S
C2076 C2077 1.560 . S
C2076 H2137 0.959 . S
C2076 H2138 0.959 . S
C2076 H2139 0.960 . S
C2077 C2076 1.560 . S
C2077 O2132 1.426 . S
C2077 H2136 0.980 . S
C2078 C2079 1.407 . S
C2078 C2083 1.418 . S
C2078 O2132 1.334 . S
C2079 C2078 1.407 . S
C2079 C2080 1.360 . S
C2079 H2140 0.929 . S
C2080 C2079 1.360 . S
C2080 C2081 1.401 . S
C2080 C2084 1.527 . S
C2081 C2080 1.401 . S
C2081 C2082 1.405 . S
C2081 C2114 1.587 . S
C2082 C2081 1.405 . S
C2082 C2083 1.332 . S
C2082 C2085 1.496 . S
C2083 C2078 1.418 . S
C2083 C2082 1.332 . S
C2083 H2141 0.929 . S
C2084 C2080 1.527 . S
C2084 H2142 0.959 . S
C2084 H2143 0.961 . S
C2084 H2144 0.961 . S
C2085 C2082 1.496 . S
C2085 H2145 0.960 . S
C2085 H2146 0.960 . S
C2085 H2147 0.961 . S
C2086 C2087 1.517 . S
C2086 H2149 0.961 . S
C2086 H2150 0.960 . S
C2086 H2151 0.959 . S
C2087 C2086 1.517 . S
C2087 O2135 1.468 . S
C2087 H2148 0.980 . S
C2088 C2089 1.349 . S
C2088 C2093 1.367 . S
C2088 O2135 1.408 . S
C2089 C2088 1.349 . S
C2089 C2090 1.407 . S
C2089 H2152 0.930 . S
C2090 C2089 1.407 . S
C2090 C2091 1.449 . S
C2090 C2094 1.535 . S
C2091 C2090 1.449 . S
C2091 C2092 1.384 . S
C2091 C2116 1.553 . S
C2092 C2091 1.384 . S
C2092 C2093 1.364 . S
C2092 C2095 1.450 . S
C2093 C2088 1.367 . S
C2093 C2092 1.364 . S
C2093 H2153 0.931 . S
C2094 C2090 1.535 . S
C2094 H2154 0.959 . S
C2094 H2155 0.961 . S
C2094 H2156 0.959 . S
C2095 C2092 1.450 . S
C2095 H2157 0.960 . S
C2095 H2158 0.960 . S
C2095 H2159 0.960 . S
C2096 C2097 1.309 . S
C2096 C2101 1.304 . S
C2096 O2134 1.435 . S
C2097 C2096 1.309 . S
C2097 C2098 1.476 . S
C2097 H2161 0.930 . S
C2098 C2097 1.476 . S
C2098 C2099 1.400 . S
C2098 C2102 1.567 . S
C2099 C2098 1.400 . S
C2099 C2100 1.373 . S
C2099 C2121 1.432 . S
C2100 C2099 1.373 . S
C2100 C2101 1.339 . S
C2100 C2103 1.530 . S
C2101 C2096 1.304 . S
C2101 C2100 1.339 . S
C2101 H2162 0.930 . S
C2102 C2098 1.567 . S
C2102 H2163 0.961 . S
C2102 H2164 0.960 . S
C2102 H2165 0.958 . S
C2103 C2100 1.530 . S
C2103 H2166 0.961 . S
C2103 H2167 0.960 . S
C2103 H2168 0.960 . S
C2104 C2105 1.530 . S
C2104 H2170 0.961 . S
C2104 H2171 0.961 . S
C2104 H2172 0.959 . S
C2105 C2104 1.530 . S
C2105 O2133 1.412 . S
C2105 H2169 0.980 . S
C2106 C2107 1.288 . S
C2106 C2111 1.377 . S
C2106 O2133 1.393 . S
C2107 C2106 1.288 . S
C2107 C2108 1.369 . S
C2107 H2173 0.932 . S
C2108 C2107 1.369 . S
C2108 C2109 1.398 . S
C2108 C2112 1.527 . S
C2109 C2108 1.398 . S
C2109 C2110 1.380 . S
C2109 C2123 1.497 . S
C2110 C2109 1.380 . S
C2110 C2111 1.383 . S
C2110 C2113 1.603 . S
C2111 C2106 1.377 . S
C2111 C2110 1.383 . S
C2111 H2174 0.929 . S
C2112 C2108 1.527 . S
C2112 H2175 0.961 . S
C2112 H2176 0.959 . S
C2112 H2177 0.959 . S
C2113 C2110 1.603 . S
C2113 H2178 0.960 . S
C2113 H2179 0.962 . S
C2113 H2180 0.961 . S
C2114 C2081 1.587 . S
C2114 C2115 1.360 . S
C2114 C2127 1.412 . S
C2115 C2114 1.360 . S
C2115 C2116 1.365 . S
C2115 H2181 0.929 . S
C2116 C2091 1.553 . S
C2116 C2115 1.365 . S
C2116 C2117 1.404 . S
C2117 C2116 1.404 . S
C2117 C2118 1.395 . S
C2117 C2128 1.451 . S
C2118 C2117 1.395 . S
C2118 C2119 1.322 . S
C2118 H2182 0.930 . S
C2119 C2118 1.322 . S
C2119 C2120 1.459 . S
C2119 H2183 0.929 . S
C2120 C2119 1.459 . S
C2120 C2121 1.445 . S
C2120 C2129 1.395 . S
C2121 C2099 1.432 . S
C2121 C2120 1.445 . S
C2121 C2122 1.370 . S
C2122 C2121 1.370 . S
C2122 C2123 1.438 . S
C2122 H2184 0.930 . S
C2123 C2109 1.497 . S
C2123 C2122 1.438 . S
C2123 C2124 1.360 . S
C2124 C2123 1.360 . S
C2124 C2125 1.401 . S
C2124 C2129 1.446 . S
C2125 C2124 1.401 . S
C2125 C2126 1.347 . S
C2125 H2185 0.929 . S
C2126 C2125 1.347 . S
C2126 C2127 1.455 . S
C2126 H2186 0.930 . S
C2127 C2114 1.412 . S
C2127 C2126 1.455 . S
C2127 C2128 1.331 . S
C2128 C2117 1.451 . S
C2128 C2127 1.331 . S
C2128 C2129 1.497 . S
C2129 C2120 1.395 . S
C2129 C2124 1.446 . S
C2129 C2128 1.497 . S
C2130 C2131 1.582 . S
C2130 H2187 0.962 . S
C2130 H2188 0.959 . S
C2130 H2189 0.958 . S
C2131 C2130 1.582 . S
C2131 O2134 1.458 . S
C2131 H2160 0.980 . S
O2132 C2077 1.426 . S
O2132 C2078 1.334 . S
O2133 C2105 1.412 . S
O2133 C2106 1.393 . S
O2134 C2096 1.435 . S
O2134 C2131 1.458 . S
O2135 C2087 1.468 . S
O2135 C2088 1.408 . S
H2136 C2077 0.980 . S
H2137 C2076 0.959 . S
H2138 C2076 0.959 . S
H2139 C2076 0.960 . S
H2140 C2079 0.929 . S
H2141 C2083 0.929 . S
H2142 C2084 0.959 . S
H2143 C2084 0.961 . S
H2144 C2084 0.961 . S
H2145 C2085 0.960 . S
H2146 C2085 0.960 . S
H2147 C2085 0.961 . S
H2148 C2087 0.980 . S
H2149 C2086 0.961 . S
H2150 C2086 0.960 . S
H2151 C2086 0.959 . S
H2152 C2089 0.930 . S
H2153 C2093 0.931 . S
H2154 C2094 0.959 . S
H2155 C2094 0.961 . S
H2156 C2094 0.959 . S
H2157 C2095 0.960 . S
H2158 C2095 0.960 . S
H2159 C2095 0.960 . S
H2160 C2131 0.980 . S
H2161 C2097 0.930 . S
H2162 C2101 0.930 . S
H2163 C2102 0.961 . S
H2164 C2102 0.960 . S
H2165 C2102 0.958 . S
H2166 C2103 0.961 . S
H2167 C2103 0.960 . S
H2168 C2103 0.960 . S
H2169 C2105 0.980 . S
H2170 C2104 0.961 . S
H2171 C2104 0.961 . S
H2172 C2104 0.959 . S
H2173 C2107 0.932 . S
H2174 C2111 0.929 . S
H2175 C2112 0.961 . S
H2176 C2112 0.959 . S
H2177 C2112 0.959 . S
H2178 C2113 0.960 . S
H2179 C2113 0.962 . S
H2180 C2113 0.961 . S
H2181 C2115 0.929 . S
H2182 C2118 0.930 . S
H2183 C2119 0.929 . S
H2184 C2122 0.930 . S
H2185 C2125 0.929 . S
H2186 C2126 0.930 . S
H2187 C2130 0.962 . S
H2188 C2130 0.959 . S
H2189 C2130 0.958 . S
C2190 C2191 1.560 . S
C2190 H2251 0.959 . S
C2190 H2252 0.959 . S
C2190 H2253 0.960 . S
C2191 C2190 1.560 . S
C2191 O2246 1.426 . S
C2191 H2250 0.980 . S
C2192 C2193 1.407 . S
C2192 C2197 1.418 . S
C2192 O2246 1.334 . S
C2193 C2192 1.407 . S
C2193 C2194 1.360 . S
C2193 H2254 0.929 . S
C2194 C2193 1.360 . S
C2194 C2195 1.401 . S
C2194 C2198 1.527 . S
C2195 C2194 1.401 . S
C2195 C2196 1.405 . S
C2195 C2228 1.587 . S
C2196 C2195 1.405 . S
C2196 C2197 1.332 . S
C2196 C2199 1.496 . S
C2197 C2192 1.418 . S
C2197 C2196 1.332 . S
C2197 H2255 0.929 . S
C2198 C2194 1.527 . S
C2198 H2256 0.959 . S
C2198 H2257 0.961 . S
C2198 H2258 0.961 . S
C2199 C2196 1.496 . S
C2199 H2259 0.960 . S
C2199 H2260 0.960 . S
C2199 H2261 0.961 . S
C2200 C2201 1.517 . S
C2200 H2263 0.961 . S
C2200 H2264 0.960 . S
C2200 H2265 0.959 . S
C2201 C2200 1.517 . S
C2201 O2249 1.468 . S
C2201 H2262 0.980 . S
C2202 C2203 1.349 . S
C2202 C2207 1.367 . S
C2202 O2249 1.408 . S
C2203 C2202 1.349 . S
C2203 C2204 1.407 . S
C2203 H2266 0.930 . S
C2204 C2203 1.407 . S
C2204 C2205 1.449 . S
C2204 C2208 1.535 . S
C2205 C2204 1.449 . S
C2205 C2206 1.384 . S
C2205 C2230 1.553 . S
C2206 C2205 1.384 . S
C2206 C2207 1.364 . S
C2206 C2209 1.450 . S
C2207 C2202 1.367 . S
C2207 C2206 1.364 . S
C2207 H2267 0.931 . S
C2208 C2204 1.535 . S
C2208 H2268 0.959 . S
C2208 H2269 0.961 . S
C2208 H2270 0.959 . S
C2209 C2206 1.450 . S
C2209 H2271 0.960 . S
C2209 H2272 0.960 . S
C2209 H2273 0.960 . S
C2210 C2211 1.309 . S
C2210 C2215 1.304 . S
C2210 O2248 1.435 . S
C2211 C2210 1.309 . S
C2211 C2212 1.476 . S
C2211 H2275 0.930 . S
C2212 C2211 1.476 . S
C2212 C2213 1.400 . S
C2212 C2216 1.567 . S
C2213 C2212 1.400 . S
C2213 C2214 1.373 . S
C2213 C2235 1.432 . S
C2214 C2213 1.373 . S
C2214 C2215 1.339 . S
C2214 C2217 1.530 . S
C2215 C2210 1.304 . S
C2215 C2214 1.339 . S
C2215 H2276 0.930 . S
C2216 C2212 1.567 . S
C2216 H2277 0.961 . S
C2216 H2278 0.960 . S
C2216 H2279 0.958 . S
C2217 C2214 1.530 . S
C2217 H2280 0.961 . S
C2217 H2281 0.960 . S
C2217 H2282 0.960 . S
C2218 C2219 1.530 . S
C2218 H2284 0.961 . S
C2218 H2285 0.961 . S
C2218 H2286 0.959 . S
C2219 C2218 1.530 . S
C2219 O2247 1.412 . S
C2219 H2283 0.980 . S
C2220 C2221 1.288 . S
C2220 C2225 1.377 . S
C2220 O2247 1.393 . S
C2221 C2220 1.288 . S
C2221 C2222 1.369 . S
C2221 H2287 0.932 . S
C2222 C2221 1.369 . S
C2222 C2223 1.398 . S
C2222 C2226 1.527 . S
C2223 C2222 1.398 . S
C2223 C2224 1.380 . S
C2223 C2237 1.497 . S
C2224 C2223 1.380 . S
C2224 C2225 1.383 . S
C2224 C2227 1.603 . S
C2225 C2220 1.377 . S
C2225 C2224 1.383 . S
C2225 H2288 0.929 . S
C2226 C2222 1.527 . S
C2226 H2289 0.961 . S
C2226 H2290 0.959 . S
C2226 H2291 0.959 . S
C2227 C2224 1.603 . S
C2227 H2292 0.960 . S
C2227 H2293 0.962 . S
C2227 H2294 0.961 . S
C2228 C2195 1.587 . S
C2228 C2229 1.360 . S
C2228 C2241 1.412 . S
C2229 C2228 1.360 . S
C2229 C2230 1.365 . S
C2229 H2295 0.929 . S
C2230 C2205 1.553 . S
C2230 C2229 1.365 . S
C2230 C2231 1.404 . S
C2231 C2230 1.404 . S
C2231 C2232 1.395 . S
C2231 C2242 1.451 . S
C2232 C2231 1.395 . S
C2232 C2233 1.322 . S
C2232 H2296 0.930 . S
C2233 C2232 1.322 . S
C2233 C2234 1.459 . S
C2233 H2297 0.929 . S
C2234 C2233 1.459 . S
C2234 C2235 1.445 . S
C2234 C2243 1.395 . S
C2235 C2213 1.432 . S
C2235 C2234 1.445 . S
C2235 C2236 1.370 . S
C2236 C2235 1.370 . S
C2236 C2237 1.438 . S
C2236 H2298 0.930 . S
C2237 C2223 1.497 . S
C2237 C2236 1.438 . S
C2237 C2238 1.360 . S
C2238 C2237 1.360 . S
C2238 C2239 1.401 . S
C2238 C2243 1.446 . S
C2239 C2238 1.401 . S
C2239 C2240 1.347 . S
C2239 H2299 0.929 . S
C2240 C2239 1.347 . S
C2240 C2241 1.455 . S
C2240 H2300 0.930 . S
C2241 C2228 1.412 . S
C2241 C2240 1.455 . S
C2241 C2242 1.331 . S
C2242 C2231 1.451 . S
C2242 C2241 1.331 . S
C2242 C2243 1.497 . S
C2243 C2234 1.395 . S
C2243 C2238 1.446 . S
C2243 C2242 1.497 . S
C2244 C2245 1.582 . S
C2244 H2301 0.962 . S
C2244 H2302 0.959 . S
C2244 H2303 0.958 . S
C2245 C2244 1.582 . S
C2245 O2248 1.458 . S
C2245 H2274 0.980 . S
O2246 C2191 1.426 . S
O2246 C2192 1.334 . S
O2247 C2219 1.412 . S
O2247 C2220 1.393 . S
O2248 C2210 1.435 . S
O2248 C2245 1.458 . S
O2249 C2201 1.468 . S
O2249 C2202 1.408 . S
H2250 C2191 0.980 . S
H2251 C2190 0.959 . S
H2252 C2190 0.959 . S
H2253 C2190 0.960 . S
H2254 C2193 0.929 . S
H2255 C2197 0.929 . S
H2256 C2198 0.959 . S
H2257 C2198 0.961 . S
H2258 C2198 0.961 . S
H2259 C2199 0.960 . S
H2260 C2199 0.960 . S
H2261 C2199 0.961 . S
H2262 C2201 0.980 . S
H2263 C2200 0.961 . S
H2264 C2200 0.960 . S
H2265 C2200 0.959 . S
H2266 C2203 0.930 . S
H2267 C2207 0.931 . S
H2268 C2208 0.959 . S
H2269 C2208 0.961 . S
H2270 C2208 0.959 . S
H2271 C2209 0.960 . S
H2272 C2209 0.960 . S
H2273 C2209 0.960 . S
H2274 C2245 0.980 . S
H2275 C2211 0.930 . S
H2276 C2215 0.930 . S
H2277 C2216 0.961 . S
H2278 C2216 0.960 . S
H2279 C2216 0.958 . S
H2280 C2217 0.961 . S
H2281 C2217 0.960 . S
H2282 C2217 0.960 . S
H2283 C2219 0.980 . S
H2284 C2218 0.961 . S
H2285 C2218 0.961 . S
H2286 C2218 0.959 . S
H2287 C2221 0.932 . S
H2288 C2225 0.929 . S
H2289 C2226 0.961 . S
H2290 C2226 0.959 . S
H2291 C2226 0.959 . S
H2292 C2227 0.960 . S
H2293 C2227 0.962 . S
H2294 C2227 0.961 . S
H2295 C2229 0.929 . S
H2296 C2232 0.930 . S
H2297 C2233 0.929 . S
H2298 C2236 0.930 . S
H2299 C2239 0.929 . S
H2300 C2240 0.930 . S
H2301 C2244 0.962 . S
H2302 C2244 0.959 . S
H2303 C2244 0.958 . S
C2304 C2305 1.391 . S
C2304 C2306 1.394 . S
C2304 H2320 0.931 . S
C2305 C2304 1.391 . S
C2305 C2309 1.376 1_655 S
C2306 C2304 1.394 . S
C2306 C2307 1.369 . S
C2306 C2310 1.531 . S
C2307 C2306 1.369 . S
C2307 C2308 1.410 1_655 S
C2307 C2315 1.503 . S
C2308 C2307 1.410 1_455 S
C2308 C2309 1.392 . S
C2308 C2311 1.511 . S
C2309 C2305 1.376 1_455 S
C2309 C2308 1.392 . S
C2309 H2321 0.929 . S
C2310 C2306 1.531 . S
C2310 H2322 0.960 . S
C2310 H2323 0.962 . S
C2310 H2324 0.960 . S
C2311 C2308 1.511 . S
C2311 H2325 0.961 . S
C2311 H2326 0.961 . S
C2311 H2327 0.961 . S
C2312 C2313 1.370 1_455 S
C2312 C2314 1.363 . S
C2312 H2328 0.931 . S
C2313 C2312 1.370 1_655 S
C2313 C2317 1.408 . S
C2314 C2312 1.363 . S
C2314 C2315 1.370 1_455 S
C2314 C2318 1.524 . S
C2315 C2307 1.503 . S
C2315 C2314 1.370 1_655 S
C2315 C2316 1.403 . S
C2316 C2315 1.403 . S
C2316 C2317 1.404 . S
C2316 C2319 1.539 . S
C2317 C2313 1.408 . S
C2317 C2316 1.404 . S
C2317 H2329 0.930 . S
C2318 C2314 1.524 . S
C2318 H2330 0.956 . S
C2318 H2331 0.961 . S
C2318 H2332 0.961 . S
C2319 C2316 1.539 . S
C2319 H2333 0.958 . S
C2319 H2334 0.961 . S
C2319 H2335 0.960 . S
H2320 C2304 0.931 . S
H2321 C2309 0.929 . S
H2322 C2310 0.960 . S
H2323 C2310 0.962 . S
H2324 C2310 0.960 . S
H2325 C2311 0.961 . S
H2326 C2311 0.961 . S
H2327 C2311 0.961 . S
H2328 C2312 0.931 . S
H2329 C2317 0.930 . S
H2330 C2318 0.956 . S
H2331 C2318 0.961 . S
H2332 C2318 0.961 . S
H2333 C2319 0.958 . S
H2334 C2319 0.961 . S
H2335 C2319 0.960 . S
C2336 C2337 1.391 . S
C2336 C2338 1.394 . S
C2336 H2352 0.931 . S
C2337 C2336 1.391 . S
C2337 C2341 1.376 . S
C2338 C2336 1.394 . S
C2338 C2339 1.369 . S
C2338 C2342 1.531 . S
C2339 C2338 1.369 . S
C2339 C2340 1.410 . S
C2339 C2347 1.503 . S
C2340 C2339 1.410 . S
C2340 C2341 1.392 . S
C2340 C2343 1.511 . S
C2341 C2337 1.376 . S
C2341 C2340 1.392 . S
C2341 H2353 0.929 . S
C2342 C2338 1.531 . S
C2342 H2354 0.960 . S
C2342 H2355 0.962 . S
C2342 H2356 0.960 . S
C2343 C2340 1.511 . S
C2343 H2357 0.961 . S
C2343 H2358 0.961 . S
C2343 H2359 0.961 . S
C2344 C2345 1.370 . S
C2344 C2346 1.363 . S
C2344 H2360 0.931 . S
C2345 C2344 1.370 . S
C2345 C2349 1.408 . S
C2346 C2344 1.363 . S
C2346 C2347 1.370 . S
C2346 C2350 1.524 . S
C2347 C2339 1.503 . S
C2347 C2346 1.370 . S
C2347 C2348 1.403 . S
C2348 C2347 1.403 . S
C2348 C2349 1.404 . S
C2348 C2351 1.539 . S
C2349 C2345 1.408 . S
C2349 C2348 1.404 . S
C2349 H2361 0.930 . S
C2350 C2346 1.524 . S
C2350 H2362 0.956 . S
C2350 H2363 0.961 . S
C2350 H2364 0.961 . S
C2351 C2348 1.539 . S
C2351 H2365 0.958 . S
C2351 H2366 0.961 . S
C2351 H2367 0.960 . S
H2352 C2336 0.931 . S
H2353 C2341 0.929 . S
H2354 C2342 0.960 . S
H2355 C2342 0.962 . S
H2356 C2342 0.960 . S
H2357 C2343 0.961 . S
H2358 C2343 0.961 . S
H2359 C2343 0.961 . S
H2360 C2344 0.931 . S
H2361 C2349 0.930 . S
H2362 C2350 0.956 . S
H2363 C2350 0.961 . S
H2364 C2350 0.961 . S
H2365 C2351 0.958 . S
H2366 C2351 0.961 . S
H2367 C2351 0.960 . S
C2368 C2369 1.375 1_565 S
C2368 C2370 1.407 . S
C2368 H2384 0.934 . S
C2369 C2368 1.375 1_545 S
C2369 C2373 1.376 . S
C2370 C2368 1.407 . S
C2370 C2371 1.369 1_565 S
C2370 C2374 1.531 . S
C2371 C2370 1.369 1_545 S
C2371 C2372 1.410 . S
C2371 C2379 1.503 . S
C2372 C2371 1.410 . S
C2372 C2373 1.392 . S
C2372 C2375 1.511 . S
C2373 C2369 1.376 . S
C2373 C2372 1.392 . S
C2373 H2385 0.929 . S
C2374 C2370 1.531 . S
C2374 H2386 0.960 . S
C2374 H2387 0.962 . S
C2374 H2388 0.960 . S
C2375 C2372 1.511 . S
C2375 H2389 0.961 . S
C2375 H2390 0.961 . S
C2375 H2391 0.961 . S
C2376 C2377 1.370 . S
C2376 C2378 1.363 . S
C2376 H2392 0.931 . S
C2377 C2376 1.370 . S
C2377 C2381 1.408 1_545 S
C2378 C2376 1.363 . S
C2378 C2379 1.370 . S
C2378 C2382 1.524 . S
C2379 C2371 1.503 . S
C2379 C2378 1.370 . S
C2379 C2380 1.403 1_545 S
C2380 C2379 1.403 1_565 S
C2380 C2381 1.404 . S
C2380 C2383 1.539 . S
C2381 C2377 1.408 1_565 S
C2381 C2380 1.404 . S
C2381 H2393 0.930 . S
C2382 C2378 1.524 . S
C2382 H2394 0.956 . S
C2382 H2395 0.961 . S
C2382 H2396 0.961 . S
C2383 C2380 1.539 . S
C2383 H2397 0.958 . S
C2383 H2398 0.961 . S
C2383 H2399 0.960 . S
H2384 C2368 0.934 . S
H2385 C2373 0.929 . S
H2386 C2374 0.960 . S
H2387 C2374 0.962 . S
H2388 C2374 0.960 . S
H2389 C2375 0.961 . S
H2390 C2375 0.961 . S
H2391 C2375 0.961 . S
H2392 C2376 0.931 . S
H2393 C2381 0.930 . S
H2394 C2382 0.956 . S
H2395 C2382 0.961 . S
H2396 C2382 0.961 . S
H2397 C2383 0.958 . S
H2398 C2383 0.961 . S
H2399 C2383 0.960 . S
C2400 C2401 1.391 . S
C2400 C2402 1.394 . S
C2400 H2416 0.931 . S
C2401 C2400 1.391 . S
C2401 C2405 1.335 1_565 S
C2402 C2400 1.394 . S
C2402 C2403 1.369 . S
C2402 C2406 1.531 . S
C2403 C2402 1.369 . S
C2403 C2404 1.410 1_565 S
C2403 C2411 1.503 . S
C2404 C2403 1.410 1_545 S
C2404 C2405 1.376 . S
C2404 C2407 1.511 . S
C2405 C2401 1.335 1_545 S
C2405 C2404 1.376 . S
C2405 H2417 0.990 . S
C2406 C2402 1.531 . S
C2406 H2418 0.960 . S
C2406 H2419 0.962 . S
C2406 H2420 0.960 . S
C2407 C2404 1.511 . S
C2407 H2421 0.961 . S
C2407 H2422 0.961 . S
C2407 H2423 0.961 . S
C2408 C2409 1.370 . S
C2408 C2410 1.363 . S
C2408 H2424 0.931 . S
C2409 C2408 1.370 . S
C2409 C2413 1.408 . S
C2410 C2408 1.363 . S
C2410 C2411 1.370 . S
C2410 C2414 1.524 . S
C2411 C2403 1.503 . S
C2411 C2410 1.370 . S
C2411 C2412 1.403 . S
C2412 C2411 1.403 . S
C2412 C2413 1.404 . S
C2412 C2415 1.539 . S
C2413 C2409 1.408 . S
C2413 C2412 1.404 . S
C2413 H2425 0.930 . S
C2414 C2410 1.524 . S
C2414 H2426 0.956 . S
C2414 H2427 0.961 1_565 S
C2414 H2428 0.961 1_565 S
C2415 C2412 1.539 . S
C2415 H2429 0.958 . S
C2415 H2430 0.961 . S
C2415 H2431 0.960 . S
H2416 C2400 0.931 . S
H2417 C2405 0.990 . S
H2418 C2406 0.960 . S
H2419 C2406 0.962 . S
H2420 C2406 0.960 . S
H2421 C2407 0.961 . S
H2422 C2407 0.961 . S
H2423 C2407 0.961 . S
H2424 C2408 0.931 . S
H2425 C2413 0.930 . S
H2426 C2414 0.956 . S
H2427 C2414 0.961 1_545 S
H2428 C2414 0.961 1_545 S
H2429 C2415 0.958 . S
H2430 C2415 0.961 . S
H2431 C2415 0.960 . S
C2432 C2433 1.391 . S
C2432 C2434 1.394 . S
C2432 H2448 0.931 . S
C2433 C2432 1.391 . S
C2433 C2437 1.376 . S
C2434 C2432 1.394 . S
C2434 C2435 1.369 . S
C2434 C2438 1.531 . S
C2435 C2434 1.369 . S
C2435 C2436 1.410 . S
C2435 C2443 1.503 . S
C2436 C2435 1.410 . S
C2436 C2437 1.392 . S
C2436 C2439 1.511 1_455 S
C2437 C2433 1.376 . S
C2437 C2436 1.392 . S
C2437 H2449 0.929 1_455 S
C2438 C2434 1.531 . S
C2438 H2450 0.960 . S
C2438 H2451 0.962 . S
C2438 H2452 0.960 . S
C2439 C2436 1.511 1_655 S
C2439 H2453 0.961 . S
C2439 H2454 0.961 . S
C2439 H2455 0.961 . S
C2440 C2441 1.370 . S
C2440 C2442 1.363 . S
C2440 H2456 0.931 . S
C2441 C2440 1.370 . S
C2441 C2445 1.408 . S
C2442 C2440 1.363 . S
C2442 C2443 1.370 . S
C2442 C2446 1.524 . S
C2443 C2435 1.503 . S
C2443 C2442 1.370 . S
C2443 C2444 1.403 . S
C2444 C2443 1.403 . S
C2444 C2445 1.404 . S
C2444 C2447 1.539 . S
C2445 C2441 1.408 . S
C2445 C2444 1.404 . S
C2445 H2457 0.930 . S
C2446 C2442 1.524 . S
C2446 H2458 0.956 . S
C2446 H2459 0.948 1_455 S
C2446 H2460 0.961 . S
C2447 C2444 1.539 . S
C2447 H2461 0.958 . S
C2447 H2462 0.961 . S
C2447 H2463 0.960 . S
H2448 C2432 0.931 . S
H2449 C2437 0.929 1_655 S
H2450 C2438 0.960 . S
H2451 C2438 0.962 . S
H2452 C2438 0.960 . S
H2453 C2439 0.961 . S
H2454 C2439 0.961 . S
H2455 C2439 0.961 . S
H2456 C2440 0.931 . S
H2457 C2445 0.930 . S
H2458 C2446 0.956 . S
H2459 C2446 0.948 1_655 S
H2460 C2446 0.961 . S
H2461 C2447 0.958 . S
H2462 C2447 0.961 . S
H2463 C2447 0.960 . S
C2464 C2465 1.391 . S
C2464 C2466 1.394 . S
C2464 H2480 0.931 . S
C2465 C2464 1.391 . S
C2465 C2469 1.376 . S
C2466 C2464 1.394 . S
C2466 C2467 1.369 . S
C2466 C2470 1.531 . S
C2467 C2466 1.369 . S
C2467 C2468 1.410 . S
C2467 C2475 1.503 . S
C2468 C2467 1.410 . S
C2468 C2469 1.392 . S
C2468 C2471 1.511 . S
C2469 C2465 1.376 . S
C2469 C2468 1.392 . S
C2469 H2481 0.929 1_556 S
C2470 C2466 1.531 . S
C2470 H2482 0.960 . S
C2470 H2483 0.962 . S
C2470 H2484 0.960 . S
C2471 C2468 1.511 . S
C2471 H2485 0.961 . S
C2471 H2486 0.961 . S
C2471 H2487 0.961 . S
C2472 C2473 1.370 . S
C2472 C2474 1.363 . S
C2472 H2488 0.931 . S
C2473 C2472 1.370 . S
C2473 C2477 1.408 . S
C2474 C2472 1.363 . S
C2474 C2475 1.370 . S
C2474 C2478 1.524 . S
C2475 C2467 1.503 . S
C2475 C2474 1.370 . S
C2475 C2476 1.403 . S
C2476 C2475 1.403 . S
C2476 C2477 1.404 . S
C2476 C2479 1.539 . S
C2477 C2473 1.408 . S
C2477 C2476 1.404 . S
C2477 H2489 0.930 . S
C2478 C2474 1.524 . S
C2478 H2490 0.956 . S
C2478 H2491 0.961 . S
C2478 H2492 0.961 . S
C2479 C2476 1.539 . S
C2479 H2493 0.958 . S
C2479 H2494 0.961 . S
C2479 H2495 0.960 . S
H2480 C2464 0.931 . S
H2481 C2469 0.929 1_554 S
H2482 C2470 0.960 . S
H2483 C2470 0.962 . S
H2484 C2470 0.960 . S
H2485 C2471 0.961 . S
H2486 C2471 0.961 . S
H2487 C2471 0.961 . S
H2488 C2472 0.931 . S
H2489 C2477 0.930 . S
H2490 C2478 0.956 . S
H2491 C2478 0.961 . S
H2492 C2478 0.961 . S
H2493 C2479 0.958 . S
H2494 C2479 0.961 . S
H2495 C2479 0.960 . S
C2496 C2497 1.375 1_655 S
C2496 C2498 1.385 . S
C2496 H2512 0.955 . S
C2497 C2496 1.375 1_455 S
C2497 C2501 1.376 . S
C2498 C2496 1.385 . S
C2498 C2499 1.369 1_655 S
C2498 C2502 1.531 . S
C2499 C2498 1.369 1_455 S
C2499 C2500 1.410 . S
C2499 C2507 1.503 . S
C2500 C2499 1.410 . S
C2500 C2501 1.392 . S
C2500 C2503 1.511 . S
C2501 C2497 1.376 . S
C2501 C2500 1.392 . S
C2501 H2513 0.929 . S
C2502 C2498 1.531 . S
C2502 H2514 0.960 . S
C2502 H2515 0.962 . S
C2502 H2516 0.960 . S
C2503 C2500 1.511 . S
C2503 H2517 0.961 . S
C2503 H2518 0.961 . S
C2503 H2519 0.961 . S
C2504 C2505 1.370 1_655 S
C2504 C2506 1.363 . S
C2504 H2520 0.931 . S
C2505 C2504 1.370 1_455 S
C2505 C2509 1.408 . S
C2506 C2504 1.363 . S
C2506 C2507 1.370 1_655 S
C2506 C2510 1.524 . S
C2507 C2499 1.503 . S
C2507 C2506 1.370 1_455 S
C2507 C2508 1.403 . S
C2508 C2507 1.403 . S
C2508 C2509 1.404 . S
C2508 C2511 1.539 . S
C2509 C2505 1.408 . S
C2509 C2508 1.404 . S
C2509 H2521 0.930 . S
C2510 C2506 1.524 . S
C2510 H2522 0.956 . S
C2510 H2523 0.961 . S
C2510 H2524 0.961 . S
C2511 C2508 1.539 . S
C2511 H2525 0.958 . S
C2511 H2526 0.961 . S
C2511 H2527 0.960 . S
H2512 C2496 0.955 . S
H2513 C2501 0.929 . S
H2514 C2502 0.960 . S
H2515 C2502 0.962 . S
H2516 C2502 0.960 . S
H2517 C2503 0.961 . S
H2518 C2503 0.961 . S
H2519 C2503 0.961 . S
H2520 C2504 0.931 . S
H2521 C2509 0.930 . S
H2522 C2510 0.956 . S
H2523 C2510 0.961 . S
H2524 C2510 0.961 . S
H2525 C2511 0.958 . S
H2526 C2511 0.961 . S
H2527 C2511 0.960 . S
C2528 C2529 1.391 . S
C2528 C2530 1.394 . S
C2528 H2544 0.931 . S
C2529 C2528 1.391 . S
C2529 C2533 1.376 . S
C2530 C2528 1.394 . S
C2530 C2531 1.369 . S
C2530 C2534 1.531 . S
C2531 C2530 1.369 . S
C2531 C2532 1.410 . S
C2531 C2539 1.503 . S
C2532 C2531 1.410 . S
C2532 C2533 1.392 . S
C2532 C2535 1.511 . S
C2533 C2529 1.376 . S
C2533 C2532 1.392 . S
C2533 H2545 0.929 . S
C2534 C2530 1.531 . S
C2534 H2546 0.960 . S
C2534 H2547 0.962 . S
C2534 H2548 0.960 . S
C2535 C2532 1.511 . S
C2535 H2549 0.961 . S
C2535 H2550 0.961 . S
C2535 H2551 0.961 . S
C2536 C2537 1.370 . S
C2536 C2538 1.363 . S
C2536 H2552 0.931 . S
C2537 C2536 1.370 . S
C2537 C2541 1.408 . S
C2538 C2536 1.363 . S
C2538 C2539 1.370 . S
C2538 C2542 1.524 . S
C2539 C2531 1.503 . S
C2539 C2538 1.370 . S
C2539 C2540 1.403 . S
C2540 C2539 1.403 . S
C2540 C2541 1.404 . S
C2540 C2543 1.539 . S
C2541 C2537 1.408 . S
C2541 C2540 1.404 . S
C2541 H2553 0.930 . S
C2542 C2538 1.524 . S
C2542 H2554 0.956 . S
C2542 H2555 0.961 . S
C2542 H2556 0.961 . S
C2543 C2540 1.539 . S
C2543 H2557 0.958 . S
C2543 H2558 0.961 . S
C2543 H2559 0.960 . S
H2544 C2528 0.931 . S
H2545 C2533 0.929 . S
H2546 C2534 0.960 . S
H2547 C2534 0.962 . S
H2548 C2534 0.960 . S
H2549 C2535 0.961 . S
H2550 C2535 0.961 . S
H2551 C2535 0.961 . S
H2552 C2536 0.931 . S
H2553 C2541 0.930 . S
H2554 C2542 0.956 . S
H2555 C2542 0.961 . S
H2556 C2542 0.961 . S
H2557 C2543 0.958 . S
H2558 C2543 0.961 . S
H2559 C2543 0.960 . S
C2560 C2561 1.391 1_545 S
C2560 C2562 1.394 . S
C2560 H2576 0.931 . S
C2561 C2560 1.391 1_565 S
C2561 C2565 1.376 . S
C2562 C2560 1.394 . S
C2562 C2563 1.369 1_545 S
C2562 C2566 1.531 . S
C2563 C2562 1.369 1_565 S
C2563 C2564 1.410 . S
C2563 C2571 1.503 . S
C2564 C2563 1.410 . S
C2564 C2565 1.392 . S
C2564 C2567 1.511 . S
C2565 C2561 1.376 . S
C2565 C2564 1.392 . S
C2565 H2577 0.929 . S
C2566 C2562 1.531 . S
C2566 H2578 0.960 . S
C2566 H2579 0.962 . S
C2566 H2580 0.960 . S
C2567 C2564 1.511 . S
C2567 H2581 0.961 . S
C2567 H2582 0.961 . S
C2567 H2583 0.961 . S
C2568 C2569 1.370 1_545 S
C2568 C2570 1.363 . S
C2568 H2584 0.931 . S
C2569 C2568 1.370 1_565 S
C2569 C2573 1.408 . S
C2570 C2568 1.363 . S
C2570 C2571 1.370 1_545 S
C2570 C2574 1.524 . S
C2571 C2563 1.503 . S
C2571 C2570 1.370 1_565 S
C2571 C2572 1.403 . S
C2572 C2571 1.403 . S
C2572 C2573 1.404 . S
C2572 C2575 1.539 . S
C2573 C2569 1.408 . S
C2573 C2572 1.404 . S
C2573 H2585 0.930 . S
C2574 C2570 1.524 . S
C2574 H2586 0.956 . S
C2574 H2587 0.961 . S
C2574 H2588 0.961 . S
C2575 C2572 1.539 . S
C2575 H2589 0.958 . S
C2575 H2590 0.961 . S
C2575 H2591 0.960 . S
H2576 C2560 0.931 . S
H2577 C2565 0.929 . S
H2578 C2566 0.960 . S
H2579 C2566 0.962 . S
H2580 C2566 0.960 . S
H2581 C2567 0.961 . S
H2582 C2567 0.961 . S
H2583 C2567 0.961 . S
H2584 C2568 0.931 . S
H2585 C2573 0.930 . S
H2586 C2574 0.956 . S
H2587 C2574 0.961 . S
H2588 C2574 0.961 . S
H2589 C2575 0.958 . S
H2590 C2575 0.961 . S
H2591 C2575 0.960 . S
C2592 C2593 1.391 . S
C2592 C2594 1.394 . S
C2592 H2608 0.931 . S
C2593 C2592 1.391 . S
C2593 C2597 1.376 . S
C2594 C2592 1.394 . S
C2594 C2595 1.369 . S
C2594 C2598 1.531 . S
C2595 C2594 1.369 . S
C2595 C2596 1.410 . S
C2595 C2603 1.503 . S
C2596 C2595 1.410 . S
C2596 C2597 1.392 . S
C2596 C2599 1.511 1_545 S
C2597 C2593 1.376 . S
C2597 C2596 1.392 . S
C2597 H2609 0.950 . S
C2598 C2594 1.531 . S
C2598 H2610 0.960 . S
C2598 H2611 0.962 . S
C2598 H2612 0.960 . S
C2599 C2596 1.511 1_565 S
C2599 H2613 0.961 . S
C2599 H2614 0.961 . S
C2599 H2615 0.961 . S
C2600 C2601 1.370 1_565 S
C2600 C2602 1.359 . S
C2600 H2616 0.931 . S
C2601 C2600 1.370 1_545 S
C2601 C2605 1.408 . S
C2602 C2600 1.359 . S
C2602 C2603 1.352 1_565 S
C2602 C2606 1.548 . S
C2603 C2595 1.503 . S
C2603 C2602 1.352 1_545 S
C2603 C2604 1.403 . S
C2604 C2603 1.403 . S
C2604 C2605 1.404 . S
C2604 C2607 1.539 . S
C2605 C2601 1.408 . S
C2605 C2604 1.404 . S
C2605 H2617 0.930 . S
C2606 C2602 1.548 . S
C2606 H2618 0.956 . S
C2606 H2619 0.961 . S
C2606 H2620 0.961 . S
C2607 C2604 1.539 . S
C2607 H2621 0.958 . S
C2607 H2622 0.961 . S
C2607 H2623 0.960 . S
H2608 C2592 0.931 . S
H2609 C2597 0.950 . S
H2610 C2598 0.960 . S
H2611 C2598 0.962 . S
H2612 C2598 0.960 . S
H2613 C2599 0.961 . S
H2614 C2599 0.961 . S
H2615 C2599 0.961 . S
H2616 C2600 0.931 . S
H2617 C2605 0.930 . S
H2618 C2606 0.956 . S
H2619 C2606 0.961 . S
H2620 C2606 0.961 . S
H2621 C2607 0.958 . S
H2622 C2607 0.961 . S
H2623 C2607 0.960 . S
C2624 C2625 1.391 . S
C2624 C2626 1.394 . S
C2624 H2640 0.931 . S
C2625 C2624 1.391 . S
C2625 C2629 1.344 1_655 S
C2626 C2624 1.394 . S
C2626 C2627 1.369 . S
C2626 C2630 1.531 . S
C2627 C2626 1.369 . S
C2627 C2628 1.410 1_655 S
C2627 C2635 1.503 . S
C2628 C2627 1.410 1_455 S
C2628 C2629 1.428 . S
C2628 C2631 1.511 . S
C2629 C2625 1.344 1_455 S
C2629 C2628 1.428 . S
C2629 H2641 0.929 . S
C2630 C2626 1.531 . S
C2630 H2642 0.960 . S
C2630 H2643 0.962 . S
C2630 H2644 0.960 . S
C2631 C2628 1.511 . S
C2631 H2645 0.961 . S
C2631 H2646 0.961 . S
C2631 H2647 0.961 . S
C2632 C2633 1.370 . S
C2632 C2634 1.363 . S
C2632 H2648 0.931 . S
C2633 C2632 1.370 . S
C2633 C2637 1.408 1_655 S
C2634 C2632 1.363 . S
C2634 C2635 1.370 . S
C2634 C2638 1.524 . S
C2635 C2627 1.503 . S
C2635 C2634 1.370 . S
C2635 C2636 1.403 1_655 S
C2636 C2635 1.403 1_455 S
C2636 C2637 1.404 . S
C2636 C2639 1.539 . S
C2637 C2633 1.408 1_455 S
C2637 C2636 1.404 . S
C2637 H2649 0.930 . S
C2638 C2634 1.524 . S
C2638 H2650 0.956 . S
C2638 H2651 0.961 . S
C2638 H2652 0.961 . S
C2639 C2636 1.539 . S
C2639 H2653 0.958 . S
C2639 H2654 0.961 . S
C2639 H2655 0.960 . S
H2640 C2624 0.931 . S
H2641 C2629 0.929 . S
H2642 C2630 0.960 . S
H2643 C2630 0.962 . S
H2644 C2630 0.960 . S
H2645 C2631 0.961 . S
H2646 C2631 0.961 . S
H2647 C2631 0.961 . S
H2648 C2632 0.931 . S
H2649 C2637 0.930 . S
H2650 C2638 0.956 . S
H2651 C2638 0.961 . S
H2652 C2638 0.961 . S
H2653 C2639 0.958 . S
H2654 C2639 0.961 . S
H2655 C2639 0.960 . S
C2656 C2657 1.391 . S
C2656 C2658 1.394 . S
C2656 H2672 0.931 . S
C2657 C2656 1.391 . S
C2657 C2661 1.376 . S
C2658 C2656 1.394 . S
C2658 C2659 1.369 . S
C2658 C2662 1.531 . S
C2659 C2658 1.369 . S
C2659 C2660 1.410 . S
C2659 C2667 1.503 . S
C2660 C2659 1.410 . S
C2660 C2661 1.392 . S
C2660 C2663 1.511 . S
C2661 C2657 1.376 . S
C2661 C2660 1.392 . S
C2661 H2673 0.929 . S
C2662 C2658 1.531 . S
C2662 H2674 0.960 . S
C2662 H2675 0.962 . S
C2662 H2676 0.960 . S
C2663 C2660 1.511 . S
C2663 H2677 0.961 . S
C2663 H2678 0.961 . S
C2663 H2679 0.961 . S
C2664 C2665 1.370 . S
C2664 C2666 1.363 . S
C2664 H2680 0.931 . S
C2665 C2664 1.370 . S
C2665 C2669 1.408 . S
C2666 C2664 1.363 . S
C2666 C2667 1.370 . S
C2666 C2670 1.524 . S
C2667 C2659 1.503 . S
C2667 C2666 1.370 . S
C2667 C2668 1.403 . S
C2668 C2667 1.403 . S
C2668 C2669 1.404 . S
C2668 C2671 1.539 . S
C2669 C2665 1.408 . S
C2669 C2668 1.404 . S
C2669 H2681 0.930 . S
C2670 C2666 1.524 . S
C2670 H2682 0.956 . S
C2670 H2683 0.961 . S
C2670 H2684 0.961 . S
C2671 C2668 1.539 . S
C2671 H2685 0.958 . S
C2671 H2686 0.961 . S
C2671 H2687 0.960 . S
H2672 C2656 0.931 . S
H2673 C2661 0.929 . S
H2674 C2662 0.960 . S
H2675 C2662 0.962 . S
H2676 C2662 0.960 . S
H2677 C2663 0.961 . S
H2678 C2663 0.961 . S
H2679 C2663 0.961 . S
H2680 C2664 0.931 . S
H2681 C2669 0.930 . S
H2682 C2670 0.956 . S
H2683 C2670 0.961 . S
H2684 C2670 0.961 . S
H2685 C2671 0.958 . S
H2686 C2671 0.961 . S
H2687 C2671 0.960 . S
C2688 C2689 1.391 . S
C2688 C2690 1.394 . S
C2688 H2704 0.931 . S
C2689 C2688 1.391 . S
C2689 C2693 1.376 . S
C2690 C2688 1.394 . S
C2690 C2691 1.369 . S
C2690 C2694 1.531 . S
C2691 C2690 1.369 . S
C2691 C2692 1.410 . S
C2691 C2699 1.503 . S
C2692 C2691 1.410 . S
C2692 C2693 1.392 . S
C2692 C2695 1.511 . S
C2693 C2689 1.376 . S
C2693 C2692 1.392 . S
C2693 H2705 0.929 . S
C2694 C2690 1.531 . S
C2694 H2706 0.960 . S
C2694 H2707 0.962 . S
C2694 H2708 0.960 . S
C2695 C2692 1.511 . S
C2695 H2709 0.961 . S
C2695 H2710 0.961 . S
C2695 H2711 0.961 . S
C2696 C2697 1.370 . S
C2696 C2698 1.363 . S
C2696 H2712 0.931 . S
C2697 C2696 1.370 . S
C2697 C2701 1.408 . S
C2698 C2696 1.363 . S
C2698 C2699 1.370 . S
C2698 C2702 1.524 . S
C2699 C2691 1.503 . S
C2699 C2698 1.370 . S
C2699 C2700 1.403 . S
C2700 C2699 1.403 . S
C2700 C2701 1.404 . S
C2700 C2703 1.539 . S
C2701 C2697 1.408 . S
C2701 C2700 1.404 . S
C2701 H2713 0.930 . S
C2702 C2698 1.524 . S
C2702 H2714 0.956 . S
C2702 H2715 0.961 . S
C2702 H2716 0.961 . S
C2703 C2700 1.539 . S
C2703 H2717 0.958 . S
C2703 H2718 0.961 . S
C2703 H2719 0.960 . S
H2704 C2688 0.931 . S
H2705 C2693 0.929 . S
H2706 C2694 0.960 . S
H2707 C2694 0.962 . S
H2708 C2694 0.960 . S
H2709 C2695 0.961 . S
H2710 C2695 0.961 . S
H2711 C2695 0.961 . S
H2712 C2696 0.931 . S
H2713 C2701 0.930 . S
H2714 C2702 0.956 . S
H2715 C2702 0.961 . S
H2716 C2702 0.961 . S
H2717 C2703 0.958 . S
H2718 C2703 0.961 . S
H2719 C2703 0.960 . S
C2720 C2721 1.391 . S
C2720 C2722 1.394 . S
C2720 H2736 0.931 . S
C2721 C2720 1.391 . S
C2721 C2725 1.376 . S
C2722 C2720 1.394 . S
C2722 C2723 1.369 . S
C2722 C2726 1.531 . S
C2723 C2722 1.369 . S
C2723 C2724 1.410 . S
C2723 C2731 1.503 . S
C2724 C2723 1.410 . S
C2724 C2725 1.392 . S
C2724 C2727 1.511 . S
C2725 C2721 1.376 . S
C2725 C2724 1.392 . S
C2725 H2737 0.929 . S
C2726 C2722 1.531 . S
C2726 H2738 0.960 . S
C2726 H2739 0.962 . S
C2726 H2740 0.960 . S
C2727 C2724 1.511 . S
C2727 H2741 0.961 . S
C2727 H2742 0.961 . S
C2727 H2743 0.961 . S
C2728 C2729 1.370 . S
C2728 C2730 1.363 . S
C2728 H2744 0.931 . S
C2729 C2728 1.370 . S
C2729 C2733 1.408 . S
C2730 C2728 1.363 . S
C2730 C2731 1.370 . S
C2730 C2734 1.524 . S
C2731 C2723 1.503 . S
C2731 C2730 1.370 . S
C2731 C2732 1.403 . S
C2732 C2731 1.403 . S
C2732 C2733 1.404 . S
C2732 C2735 1.539 . S
C2733 C2729 1.408 . S
C2733 C2732 1.404 . S
C2733 H2745 0.930 . S
C2734 C2730 1.524 . S
C2734 H2746 0.956 . S
C2734 H2747 0.961 . S
C2734 H2748 0.961 . S
C2735 C2732 1.539 . S
C2735 H2749 0.958 . S
C2735 H2750 0.961 . S
C2735 H2751 0.960 . S
H2736 C2720 0.931 . S
H2737 C2725 0.929 . S
H2738 C2726 0.960 . S
H2739 C2726 0.962 . S
H2740 C2726 0.960 . S
H2741 C2727 0.961 . S
H2742 C2727 0.961 . S
H2743 C2727 0.961 . S
H2744 C2728 0.931 . S
H2745 C2733 0.930 . S
H2746 C2734 0.956 . S
H2747 C2734 0.961 . S
H2748 C2734 0.961 . S
H2749 C2735 0.958 . S
H2750 C2735 0.961 . S
H2751 C2735 0.960 . S
C2752 C2753 1.391 . S
C2752 C2754 1.394 . S
C2752 H2768 0.931 . S
C2753 C2752 1.391 . S
C2753 C2757 1.376 . S
C2754 C2752 1.394 . S
C2754 C2755 1.369 . S
C2754 C2758 1.531 . S
C2755 C2754 1.369 . S
C2755 C2756 1.410 . S
C2755 C2763 1.503 . S
C2756 C2755 1.410 . S
C2756 C2757 1.392 . S
C2756 C2759 1.511 . S
C2757 C2753 1.376 . S
C2757 C2756 1.392 . S
C2757 H2769 0.929 . S
C2758 C2754 1.531 . S
C2758 H2770 0.960 . S
C2758 H2771 0.962 . S
C2758 H2772 0.960 . S
C2759 C2756 1.511 . S
C2759 H2773 0.961 . S
C2759 H2774 0.961 . S
C2759 H2775 0.961 . S
C2760 C2761 1.370 . S
C2760 C2762 1.363 . S
C2760 H2776 0.931 . S
C2761 C2760 1.370 . S
C2761 C2765 1.408 . S
C2762 C2760 1.363 . S
C2762 C2763 1.370 . S
C2762 C2766 1.524 . S
C2763 C2755 1.503 . S
C2763 C2762 1.370 . S
C2763 C2764 1.403 . S
C2764 C2763 1.403 . S
C2764 C2765 1.404 . S
C2764 C2767 1.539 . S
C2765 C2761 1.408 . S
C2765 C2764 1.404 . S
C2765 H2777 0.930 . S
C2766 C2762 1.524 . S
C2766 H2778 0.956 . S
C2766 H2779 0.961 . S
C2766 H2780 0.961 . S
C2767 C2764 1.539 . S
C2767 H2781 0.958 . S
C2767 H2782 0.961 . S
C2767 H2783 0.960 . S
H2768 C2752 0.931 . S
H2769 C2757 0.929 . S
H2770 C2758 0.960 . S
H2771 C2758 0.962 . S
H2772 C2758 0.960 . S
H2773 C2759 0.961 . S
H2774 C2759 0.961 . S
H2775 C2759 0.961 . S
H2776 C2760 0.931 . S
H2777 C2765 0.930 . S
H2778 C2766 0.956 . S
H2779 C2766 0.961 . S
H2780 C2766 0.961 . S
H2781 C2767 0.958 . S
H2782 C2767 0.961 . S
H2783 C2767 0.960 . S
C2784 C2785 1.391 . S
C2784 C2786 1.394 . S
C2784 H2800 0.931 . S
C2785 C2784 1.391 . S
C2785 C2789 1.376 . S
C2786 C2784 1.394 . S
C2786 C2787 1.369 . S
C2786 C2790 1.531 . S
C2787 C2786 1.369 . S
C2787 C2788 1.410 . S
C2787 C2795 1.503 . S
C2788 C2787 1.410 . S
C2788 C2789 1.392 . S
C2788 C2791 1.511 . S
C2789 C2785 1.376 . S
C2789 C2788 1.392 . S
C2789 H2801 0.929 . S
C2790 C2786 1.531 . S
C2790 H2802 0.960 . S
C2790 H2803 0.962 . S
C2790 H2804 0.960 . S
C2791 C2788 1.511 . S
C2791 H2805 0.961 . S
C2791 H2806 0.961 . S
C2791 H2807 0.961 . S
C2792 C2793 1.370 . S
C2792 C2794 1.363 . S
C2792 H2808 0.931 . S
C2793 C2792 1.370 . S
C2793 C2797 1.408 . S
C2794 C2792 1.363 . S
C2794 C2795 1.370 . S
C2794 C2798 1.524 . S
C2795 C2787 1.503 . S
C2795 C2794 1.370 . S
C2795 C2796 1.403 . S
C2796 C2795 1.403 . S
C2796 C2797 1.404 . S
C2796 C2799 1.539 . S
C2797 C2793 1.408 . S
C2797 C2796 1.404 . S
C2797 H2809 0.930 . S
C2798 C2794 1.524 . S
C2798 H2810 0.956 . S
C2798 H2811 0.961 . S
C2798 H2812 0.961 . S
C2799 C2796 1.539 . S
C2799 H2813 0.958 . S
C2799 H2814 0.961 . S
C2799 H2815 0.960 . S
H2800 C2784 0.931 . S
H2801 C2789 0.929 . S
H2802 C2790 0.960 . S
H2803 C2790 0.962 . S
H2804 C2790 0.960 . S
H2805 C2791 0.961 . S
H2806 C2791 0.961 . S
H2807 C2791 0.961 . S
H2808 C2792 0.931 . S
H2809 C2797 0.930 . S
H2810 C2798 0.956 . S
H2811 C2798 0.961 . S
H2812 C2798 0.961 . S
H2813 C2799 0.958 . S
H2814 C2799 0.961 . S
H2815 C2799 0.960 . S
C2816 C2817 1.391 . S
C2816 C2818 1.394 . S
C2816 H2832 0.931 . S
C2817 C2816 1.391 . S
C2817 C2821 1.376 . S
C2818 C2816 1.394 . S
C2818 C2819 1.369 . S
C2818 C2822 1.531 . S
C2819 C2818 1.369 . S
C2819 C2820 1.410 . S
C2819 C2827 1.503 . S
C2820 C2819 1.410 . S
C2820 C2821 1.392 . S
C2820 C2823 1.511 . S
C2821 C2817 1.376 . S
C2821 C2820 1.392 . S
C2821 H2833 0.929 . S
C2822 C2818 1.531 . S
C2822 H2834 0.960 . S
C2822 H2835 0.962 . S
C2822 H2836 0.960 . S
C2823 C2820 1.511 . S
C2823 H2837 0.961 . S
C2823 H2838 0.961 . S
C2823 H2839 0.961 . S
C2824 C2825 1.370 . S
C2824 C2826 1.363 . S
C2824 H2840 0.931 . S
C2825 C2824 1.370 . S
C2825 C2829 1.408 . S
C2826 C2824 1.363 . S
C2826 C2827 1.370 . S
C2826 C2830 1.524 . S
C2827 C2819 1.503 . S
C2827 C2826 1.370 . S
C2827 C2828 1.403 . S
C2828 C2827 1.403 . S
C2828 C2829 1.404 . S
C2828 C2831 1.539 . S
C2829 C2825 1.408 . S
C2829 C2828 1.404 . S
C2829 H2841 0.930 . S
C2830 C2826 1.524 . S
C2830 H2842 0.956 . S
C2830 H2843 0.961 . S
C2830 H2844 0.961 . S
C2831 C2828 1.539 . S
C2831 H2845 0.958 . S
C2831 H2846 0.961 . S
C2831 H2847 0.960 . S
H2832 C2816 0.931 . S
H2833 C2821 0.929 . S
H2834 C2822 0.960 . S
H2835 C2822 0.962 . S
H2836 C2822 0.960 . S
H2837 C2823 0.961 . S
H2838 C2823 0.961 . S
H2839 C2823 0.961 . S
H2840 C2824 0.931 . S
H2841 C2829 0.930 . S
H2842 C2830 0.956 . S
H2843 C2830 0.961 . S
H2844 C2830 0.961 . S
H2845 C2831 0.958 . S
H2846 C2831 0.961 . S
H2847 C2831 0.960 . S
C2848 C2849 1.391 . S
C2848 C2850 1.394 . S
C2848 H2864 0.931 . S
C2849 C2848 1.391 . S
C2849 C2853 1.376 . S
C2850 C2848 1.394 . S
C2850 C2851 1.369 . S
C2850 C2854 1.531 . S
C2851 C2850 1.369 . S
C2851 C2852 1.410 . S
C2851 C2859 1.503 . S
C2852 C2851 1.410 . S
C2852 C2853 1.392 . S
C2852 C2855 1.511 . S
C2853 C2849 1.376 . S
C2853 C2852 1.392 . S
C2853 H2865 0.929 . S
C2854 C2850 1.531 . S
C2854 H2866 0.960 . S
C2854 H2867 0.962 . S
C2854 H2868 0.960 . S
C2855 C2852 1.511 . S
C2855 H2869 0.961 . S
C2855 H2870 0.961 . S
C2855 H2871 0.961 . S
C2856 C2857 1.370 . S
C2856 C2858 1.363 . S
C2856 H2872 0.931 . S
C2857 C2856 1.370 . S
C2857 C2861 1.408 . S
C2858 C2856 1.363 . S
C2858 C2859 1.370 . S
C2858 C2862 1.524 . S
C2859 C2851 1.503 . S
C2859 C2858 1.370 . S
C2859 C2860 1.403 . S
C2860 C2859 1.403 . S
C2860 C2861 1.404 . S
C2860 C2863 1.539 . S
C2861 C2857 1.408 . S
C2861 C2860 1.404 . S
C2861 H2873 0.930 . S
C2862 C2858 1.524 . S
C2862 H2874 0.956 . S
C2862 H2875 0.961 . S
C2862 H2876 0.961 . S
C2863 C2860 1.539 . S
C2863 H2877 0.958 . S
C2863 H2878 0.961 . S
C2863 H2879 0.960 . S
H2864 C2848 0.931 . S
H2865 C2853 0.929 . S
H2866 C2854 0.960 . S
H2867 C2854 0.962 . S
H2868 C2854 0.960 . S
H2869 C2855 0.961 . S
H2870 C2855 0.961 . S
H2871 C2855 0.961 . S
H2872 C2856 0.931 . S
H2873 C2861 0.930 . S
H2874 C2862 0.956 . S
H2875 C2862 0.961 . S
H2876 C2862 0.961 . S
H2877 C2863 0.958 . S
H2878 C2863 0.961 . S
H2879 C2863 0.960 . S
C2880 C2881 1.391 . S
C2880 C2882 1.394 . S
C2880 H2896 0.931 . S
C2881 C2880 1.391 . S
C2881 C2885 1.376 . S
C2882 C2880 1.394 . S
C2882 C2883 1.369 . S
C2882 C2886 1.531 . S
C2883 C2882 1.369 . S
C2883 C2884 1.410 . S
C2883 C2891 1.503 . S
C2884 C2883 1.410 . S
C2884 C2885 1.392 . S
C2884 C2887 1.511 . S
C2885 C2881 1.376 . S
C2885 C2884 1.392 . S
C2885 H2897 0.929 . S
C2886 C2882 1.531 . S
C2886 H2898 0.960 . S
C2886 H2899 0.962 . S
C2886 H2900 0.960 . S
C2887 C2884 1.511 . S
C2887 H2901 0.961 . S
C2887 H2902 0.961 . S
C2887 H2903 0.961 . S
C2888 C2889 1.370 . S
C2888 C2890 1.363 . S
C2888 H2904 0.931 . S
C2889 C2888 1.370 . S
C2889 C2893 1.408 . S
C2890 C2888 1.363 . S
C2890 C2891 1.370 . S
C2890 C2894 1.524 . S
C2891 C2883 1.503 . S
C2891 C2890 1.370 . S
C2891 C2892 1.403 . S
C2892 C2891 1.403 . S
C2892 C2893 1.404 . S
C2892 C2895 1.539 . S
C2893 C2889 1.408 . S
C2893 C2892 1.404 . S
C2893 H2905 0.930 . S
C2894 C2890 1.524 . S
C2894 H2906 0.956 . S
C2894 H2907 0.961 . S
C2894 H2908 0.961 . S
C2895 C2892 1.539 . S
C2895 H2909 0.958 . S
C2895 H2910 0.961 . S
C2895 H2911 0.960 . S
H2896 C2880 0.931 . S
H2897 C2885 0.929 . S
H2898 C2886 0.960 . S
H2899 C2886 0.962 . S
H2900 C2886 0.960 . S
H2901 C2887 0.961 . S
H2902 C2887 0.961 . S
H2903 C2887 0.961 . S
H2904 C2888 0.931 . S
H2905 C2893 0.930 . S
H2906 C2894 0.956 . S
H2907 C2894 0.961 . S
H2908 C2894 0.961 . S
H2909 C2895 0.958 . S
H2910 C2895 0.961 . S
H2911 C2895 0.960 . S
C2912 C2913 1.391 . S
C2912 C2914 1.394 . S
C2912 H2928 0.931 . S
C2913 C2912 1.391 . S
C2913 C2917 1.376 . S
C2914 C2912 1.394 . S
C2914 C2915 1.369 . S
C2914 C2918 1.531 . S
C2915 C2914 1.369 . S
C2915 C2916 1.410 . S
C2915 C2923 1.503 . S
C2916 C2915 1.410 . S
C2916 C2917 1.392 . S
C2916 C2919 1.511 . S
C2917 C2913 1.376 . S
C2917 C2916 1.392 . S
C2917 H2929 0.929 . S
C2918 C2914 1.531 . S
C2918 H2930 0.960 . S
C2918 H2931 0.962 . S
C2918 H2932 0.960 . S
C2919 C2916 1.511 . S
C2919 H2933 0.961 . S
C2919 H2934 0.961 . S
C2919 H2935 0.961 . S
C2920 C2921 1.370 . S
C2920 C2922 1.363 . S
C2920 H2936 0.931 . S
C2921 C2920 1.370 . S
C2921 C2925 1.408 . S
C2922 C2920 1.363 . S
C2922 C2923 1.370 . S
C2922 C2926 1.524 . S
C2923 C2915 1.503 . S
C2923 C2922 1.370 . S
C2923 C2924 1.403 . S
C2924 C2923 1.403 . S
C2924 C2925 1.404 . S
C2924 C2927 1.539 . S
C2925 C2921 1.408 . S
C2925 C2924 1.404 . S
C2925 H2937 0.930 . S
C2926 C2922 1.524 . S
C2926 H2938 0.956 . S
C2926 H2939 0.961 . S
C2926 H2940 0.961 . S
C2927 C2924 1.539 . S
C2927 H2941 0.958 . S
C2927 H2942 0.961 . S
C2927 H2943 0.960 . S
H2928 C2912 0.931 . S
H2929 C2917 0.929 . S
H2930 C2918 0.960 . S
H2931 C2918 0.962 . S
H2932 C2918 0.960 . S
H2933 C2919 0.961 . S
H2934 C2919 0.961 . S
H2935 C2919 0.961 . S
H2936 C2920 0.931 . S
H2937 C2925 0.930 . S
H2938 C2926 0.956 . S
H2939 C2926 0.961 . S
H2940 C2926 0.961 . S
H2941 C2927 0.958 . S
H2942 C2927 0.961 . S
H2943 C2927 0.960 . S
C2944 C2945 1.391 . S
C2944 C2946 1.394 . S
C2944 H2960 0.931 . S
C2945 C2944 1.391 . S
C2945 C2949 1.376 . S
C2946 C2944 1.394 . S
C2946 C2947 1.369 . S
C2946 C2950 1.531 . S
C2947 C2946 1.369 . S
C2947 C2948 1.410 . S
C2947 C2955 1.503 . S
C2948 C2947 1.410 . S
C2948 C2949 1.392 . S
C2948 C2951 1.511 . S
C2949 C2945 1.376 . S
C2949 C2948 1.392 . S
C2949 H2961 0.929 . S
C2950 C2946 1.531 . S
C2950 H2962 0.960 . S
C2950 H2963 0.962 . S
C2950 H2964 0.960 . S
C2951 C2948 1.511 . S
C2951 H2965 0.961 . S
C2951 H2966 0.961 . S
C2951 H2967 0.961 . S
C2952 C2953 1.370 . S
C2952 C2954 1.363 . S
C2952 H2968 0.931 . S
C2953 C2952 1.370 . S
C2953 C2957 1.408 . S
C2954 C2952 1.363 . S
C2954 C2955 1.370 . S
C2954 C2958 1.524 . S
C2955 C2947 1.503 . S
C2955 C2954 1.370 . S
C2955 C2956 1.403 . S
C2956 C2955 1.403 . S
C2956 C2957 1.404 . S
C2956 C2959 1.539 . S
C2957 C2953 1.408 . S
C2957 C2956 1.404 . S
C2957 H2969 0.930 . S
C2958 C2954 1.524 . S
C2958 H2970 0.956 . S
C2958 H2971 0.961 . S
C2958 H2972 0.961 . S
C2959 C2956 1.539 . S
C2959 H2973 0.958 . S
C2959 H2974 0.961 . S
C2959 H2975 0.960 . S
H2960 C2944 0.931 . S
H2961 C2949 0.929 . S
H2962 C2950 0.960 . S
H2963 C2950 0.962 . S
H2964 C2950 0.960 . S
H2965 C2951 0.961 . S
H2966 C2951 0.961 . S
H2967 C2951 0.961 . S
H2968 C2952 0.931 . S
H2969 C2957 0.930 . S
H2970 C2958 0.956 . S
H2971 C2958 0.961 . S
H2972 C2958 0.961 . S
H2973 C2959 0.958 . S
H2974 C2959 0.961 . S
H2975 C2959 0.960 . S
C2976 C2977 1.391 . S
C2976 C2978 1.394 . S
C2976 H2992 0.931 . S
C2977 C2976 1.391 . S
C2977 C2981 1.376 . S
C2978 C2976 1.394 . S
C2978 C2979 1.369 . S
C2978 C2982 1.531 . S
C2979 C2978 1.369 . S
C2979 C2980 1.410 . S
C2979 C2987 1.503 . S
C2980 C2979 1.410 . S
C2980 C2981 1.392 . S
C2980 C2983 1.511 . S
C2981 C2977 1.376 . S
C2981 C2980 1.392 . S
C2981 H2993 0.929 . S
C2982 C2978 1.531 . S
C2982 H2994 0.960 . S
C2982 H2995 0.962 . S
C2982 H2996 0.960 . S
C2983 C2980 1.511 . S
C2983 H2997 0.961 . S
C2983 H2998 0.961 . S
C2983 H2999 0.961 . S
C2984 C2985 1.370 . S
C2984 C2986 1.363 . S
C2984 H3000 0.931 . S
C2985 C2984 1.370 . S
C2985 C2989 1.408 . S
C2986 C2984 1.363 . S
C2986 C2987 1.370 . S
C2986 C2990 1.524 . S
C2987 C2979 1.503 . S
C2987 C2986 1.370 . S
C2987 C2988 1.403 . S
C2988 C2987 1.403 . S
C2988 C2989 1.404 . S
C2988 C2991 1.539 . S
C2989 C2985 1.408 . S
C2989 C2988 1.404 . S
C2989 H3001 0.930 . S
C2990 C2986 1.524 . S
C2990 H3002 0.956 . S
C2990 H3003 0.961 . S
C2990 H3004 0.961 . S
C2991 C2988 1.539 . S
C2991 H3005 0.958 . S
C2991 H3006 0.961 . S
C2991 H3007 0.960 . S
H2992 C2976 0.931 . S
H2993 C2981 0.929 . S
H2994 C2982 0.960 . S
H2995 C2982 0.962 . S
H2996 C2982 0.960 . S
H2997 C2983 0.961 . S
H2998 C2983 0.961 . S
H2999 C2983 0.961 . S
H3000 C2984 0.931 . S
H3001 C2989 0.930 . S
H3002 C2990 0.956 . S
H3003 C2990 0.961 . S
H3004 C2990 0.961 . S
H3005 C2991 0.958 . S
H3006 C2991 0.961 . S
H3007 C2991 0.960 . S
C3008 C3009 1.391 . S
C3008 C3010 1.394 . S
C3008 H3024 0.931 . S
C3009 C3008 1.391 . S
C3009 C3013 1.376 . S
C3010 C3008 1.394 . S
C3010 C3011 1.369 . S
C3010 C3014 1.531 . S
C3011 C3010 1.369 . S
C3011 C3012 1.410 . S
C3011 C3019 1.503 . S
C3012 C3011 1.410 . S
C3012 C3013 1.392 . S
C3012 C3015 1.511 . S
C3013 C3009 1.376 . S
C3013 C3012 1.392 . S
C3013 H3025 0.929 . S
C3014 C3010 1.531 . S
C3014 H3026 0.960 . S
C3014 H3027 0.962 . S
C3014 H3028 0.960 . S
C3015 C3012 1.511 . S
C3015 H3029 0.961 . S
C3015 H3030 0.961 . S
C3015 H3031 0.961 . S
C3016 C3017 1.370 . S
C3016 C3018 1.363 . S
C3016 H3032 0.931 . S
C3017 C3016 1.370 . S
C3017 C3021 1.408 . S
C3018 C3016 1.363 . S
C3018 C3019 1.370 . S
C3018 C3022 1.524 . S
C3019 C3011 1.503 . S
C3019 C3018 1.370 . S
C3019 C3020 1.403 . S
C3020 C3019 1.403 . S
C3020 C3021 1.404 . S
C3020 C3023 1.539 . S
C3021 C3017 1.408 . S
C3021 C3020 1.404 . S
C3021 H3033 0.930 . S
C3022 C3018 1.524 . S
C3022 H3034 0.956 . S
C3022 H3035 0.961 . S
C3022 H3036 0.961 . S
C3023 C3020 1.539 . S
C3023 H3037 0.958 . S
C3023 H3038 0.961 . S
C3023 H3039 0.960 . S
H3024 C3008 0.931 . S
H3025 C3013 0.929 . S
H3026 C3014 0.960 . S
H3027 C3014 0.962 . S
H3028 C3014 0.960 . S
H3029 C3015 0.961 . S
H3030 C3015 0.961 . S
H3031 C3015 0.961 . S
H3032 C3016 0.931 . S
H3033 C3021 0.930 . S
H3034 C3022 0.956 . S
H3035 C3022 0.961 . S
H3036 C3022 0.961 . S
H3037 C3023 0.958 . S
H3038 C3023 0.961 . S
H3039 C3023 0.960 . S
C3040 C3041 1.391 . S
C3040 C3042 1.394 . S
C3040 H3056 0.931 . S
C3041 C3040 1.391 . S
C3041 C3045 1.376 . S
C3042 C3040 1.394 . S
C3042 C3043 1.369 . S
C3042 C3046 1.531 . S
C3043 C3042 1.369 . S
C3043 C3044 1.410 . S
C3043 C3051 1.503 . S
C3044 C3043 1.410 . S
C3044 C3045 1.392 . S
C3044 C3047 1.511 . S
C3045 C3041 1.376 . S
C3045 C3044 1.392 . S
C3045 H3057 0.929 . S
C3046 C3042 1.531 . S
C3046 H3058 0.960 . S
C3046 H3059 0.962 . S
C3046 H3060 0.960 . S
C3047 C3044 1.511 . S
C3047 H3061 0.961 . S
C3047 H3062 0.961 . S
C3047 H3063 0.961 . S
C3048 C3049 1.370 . S
C3048 C3050 1.363 . S
C3048 H3064 0.931 . S
C3049 C3048 1.370 . S
C3049 C3053 1.408 . S
C3050 C3048 1.363 . S
C3050 C3051 1.370 . S
C3050 C3054 1.524 . S
C3051 C3043 1.503 . S
C3051 C3050 1.370 . S
C3051 C3052 1.403 . S
C3052 C3051 1.403 . S
C3052 C3053 1.404 . S
C3052 C3055 1.539 . S
C3053 C3049 1.408 . S
C3053 C3052 1.404 . S
C3053 H3065 0.930 . S
C3054 C3050 1.524 . S
C3054 H3066 0.956 . S
C3054 H3067 0.961 . S
C3054 H3068 0.961 . S
C3055 C3052 1.539 . S
C3055 H3069 0.958 . S
C3055 H3070 0.961 . S
C3055 H3071 0.960 . S
H3056 C3040 0.931 . S
H3057 C3045 0.929 . S
H3058 C3046 0.960 . S
H3059 C3046 0.962 . S
H3060 C3046 0.960 . S
H3061 C3047 0.961 . S
H3062 C3047 0.961 . S
H3063 C3047 0.961 . S
H3064 C3048 0.931 . S
H3065 C3053 0.930 . S
H3066 C3054 0.956 . S
H3067 C3054 0.961 . S
H3068 C3054 0.961 . S
H3069 C3055 0.958 . S
H3070 C3055 0.961 . S
H3071 C3055 0.960 . S
C3072 C3073 1.391 . S
C3072 C3074 1.394 . S
C3072 H3088 0.931 . S
C3073 C3072 1.391 . S
C3073 C3077 1.376 . S
C3074 C3072 1.394 . S
C3074 C3075 1.369 . S
C3074 C3078 1.531 . S
C3075 C3074 1.369 . S
C3075 C3076 1.410 . S
C3075 C3083 1.503 . S
C3076 C3075 1.410 . S
C3076 C3077 1.392 . S
C3076 C3079 1.511 . S
C3077 C3073 1.376 . S
C3077 C3076 1.392 . S
C3077 H3089 0.929 . S
C3078 C3074 1.531 . S
C3078 H3090 0.960 . S
C3078 H3091 0.962 . S
C3078 H3092 0.960 . S
C3079 C3076 1.511 . S
C3079 H3093 0.961 . S
C3079 H3094 0.961 . S
C3079 H3095 0.961 . S
C3080 C3081 1.370 . S
C3080 C3082 1.363 . S
C3080 H3096 0.931 . S
C3081 C3080 1.370 . S
C3081 C3085 1.408 . S
C3082 C3080 1.363 . S
C3082 C3083 1.370 . S
C3082 C3086 1.524 . S
C3083 C3075 1.503 . S
C3083 C3082 1.370 . S
C3083 C3084 1.403 . S
C3084 C3083 1.403 . S
C3084 C3085 1.404 . S
C3084 C3087 1.539 . S
C3085 C3081 1.408 . S
C3085 C3084 1.404 . S
C3085 H3097 0.930 . S
C3086 C3082 1.524 . S
C3086 H3098 0.956 . S
C3086 H3099 0.961 . S
C3086 H3100 0.961 . S
C3087 C3084 1.539 . S
C3087 H3101 0.958 . S
C3087 H3102 0.961 . S
C3087 H3103 0.960 . S
H3088 C3072 0.931 . S
H3089 C3077 0.929 . S
H3090 C3078 0.960 . S
H3091 C3078 0.962 . S
H3092 C3078 0.960 . S
H3093 C3079 0.961 . S
H3094 C3079 0.961 . S
H3095 C3079 0.961 . S
H3096 C3080 0.931 . S
H3097 C3085 0.930 . S
H3098 C3086 0.956 . S
H3099 C3086 0.961 . S
H3100 C3086 0.961 . S
H3101 C3087 0.958 . S
H3102 C3087 0.961 . S
H3103 C3087 0.960 . S
C3104 C3105 1.391 . S
C3104 C3106 1.394 . S
C3104 H3120 0.931 . S
C3105 C3104 1.391 . S
C3105 C3109 1.376 . S
C3106 C3104 1.394 . S
C3106 C3107 1.369 . S
C3106 C3110 1.531 . S
C3107 C3106 1.369 . S
C3107 C3108 1.410 . S
C3107 C3115 1.503 . S
C3108 C3107 1.410 . S
C3108 C3109 1.392 . S
C3108 C3111 1.511 . S
C3109 C3105 1.376 . S
C3109 C3108 1.392 . S
C3109 H3121 0.929 . S
C3110 C3106 1.531 . S
C3110 H3122 0.960 . S
C3110 H3123 0.962 . S
C3110 H3124 0.960 . S
C3111 C3108 1.511 . S
C3111 H3125 0.961 . S
C3111 H3126 0.961 . S
C3111 H3127 0.961 . S
C3112 C3113 1.370 . S
C3112 C3114 1.363 . S
C3112 H3128 0.931 . S
C3113 C3112 1.370 . S
C3113 C3117 1.408 . S
C3114 C3112 1.363 . S
C3114 C3115 1.370 . S
C3114 C3118 1.524 . S
C3115 C3107 1.503 . S
C3115 C3114 1.370 . S
C3115 C3116 1.403 . S
C3116 C3115 1.403 . S
C3116 C3117 1.404 . S
C3116 C3119 1.539 . S
C3117 C3113 1.408 . S
C3117 C3116 1.404 . S
C3117 H3129 0.930 . S
C3118 C3114 1.524 . S
C3118 H3130 0.956 . S
C3118 H3131 0.961 . S
C3118 H3132 0.961 . S
C3119 C3116 1.539 . S
C3119 H3133 0.958 . S
C3119 H3134 0.961 . S
C3119 H3135 0.960 . S
H3120 C3104 0.931 . S
H3121 C3109 0.929 . S
H3122 C3110 0.960 . S
H3123 C3110 0.962 . S
H3124 C3110 0.960 . S
H3125 C3111 0.961 . S
H3126 C3111 0.961 . S
H3127 C3111 0.961 . S
H3128 C3112 0.931 . S
H3129 C3117 0.930 . S
H3130 C3118 0.956 . S
H3131 C3118 0.961 . S
H3132 C3118 0.961 . S
H3133 C3119 0.958 . S
H3134 C3119 0.961 . S
H3135 C3119 0.960 . S
C3136 C3137 1.391 . S
C3136 C3138 1.394 . S
C3136 H3152 0.931 . S
C3137 C3136 1.391 . S
C3137 C3141 1.376 . S
C3138 C3136 1.394 . S
C3138 C3139 1.369 . S
C3138 C3142 1.531 . S
C3139 C3138 1.369 . S
C3139 C3140 1.410 . S
C3139 C3147 1.503 . S
C3140 C3139 1.410 . S
C3140 C3141 1.392 . S
C3140 C3143 1.511 . S
C3141 C3137 1.376 . S
C3141 C3140 1.392 . S
C3141 H3153 0.929 . S
C3142 C3138 1.531 . S
C3142 H3154 0.960 . S
C3142 H3155 0.962 . S
C3142 H3156 0.960 . S
C3143 C3140 1.511 . S
C3143 H3157 0.961 . S
C3143 H3158 0.961 . S
C3143 H3159 0.961 . S
C3144 C3145 1.370 . S
C3144 C3146 1.363 . S
C3144 H3160 0.931 . S
C3145 C3144 1.370 . S
C3145 C3149 1.408 . S
C3146 C3144 1.363 . S
C3146 C3147 1.370 . S
C3146 C3150 1.524 . S
C3147 C3139 1.503 . S
C3147 C3146 1.370 . S
C3147 C3148 1.403 . S
C3148 C3147 1.403 . S
C3148 C3149 1.404 . S
C3148 C3151 1.539 . S
C3149 C3145 1.408 . S
C3149 C3148 1.404 . S
C3149 H3161 0.930 . S
C3150 C3146 1.524 . S
C3150 H3162 0.956 . S
C3150 H3163 0.961 . S
C3150 H3164 0.961 . S
C3151 C3148 1.539 . S
C3151 H3165 0.958 . S
C3151 H3166 0.961 . S
C3151 H3167 0.960 . S
H3152 C3136 0.931 . S
H3153 C3141 0.929 . S
H3154 C3142 0.960 . S
H3155 C3142 0.962 . S
H3156 C3142 0.960 . S
H3157 C3143 0.961 . S
H3158 C3143 0.961 . S
H3159 C3143 0.961 . S
H3160 C3144 0.931 . S
H3161 C3149 0.930 . S
H3162 C3150 0.956 . S
H3163 C3150 0.961 . S
H3164 C3150 0.961 . S
H3165 C3151 0.958 . S
H3166 C3151 0.961 . S
H3167 C3151 0.960 . S
C3168 C3169 1.391 . S
C3168 C3170 1.394 . S
C3168 H3184 0.931 . S
C3169 C3168 1.391 . S
C3169 C3173 1.376 . S
C3170 C3168 1.394 . S
C3170 C3171 1.369 . S
C3170 C3174 1.531 . S
C3171 C3170 1.369 . S
C3171 C3172 1.410 . S
C3171 C3179 1.503 . S
C3172 C3171 1.410 . S
C3172 C3173 1.392 . S
C3172 C3175 1.511 . S
C3173 C3169 1.376 . S
C3173 C3172 1.392 . S
C3173 H3185 0.929 . S
C3174 C3170 1.531 . S
C3174 H3186 0.960 . S
C3174 H3187 0.962 . S
C3174 H3188 0.960 . S
C3175 C3172 1.511 . S
C3175 H3189 0.961 . S
C3175 H3190 0.961 . S
C3175 H3191 0.961 . S
C3176 C3177 1.370 . S
C3176 C3178 1.363 . S
C3176 H3192 0.931 . S
C3177 C3176 1.370 . S
C3177 C3181 1.408 . S
C3178 C3176 1.363 . S
C3178 C3179 1.370 . S
C3178 C3182 1.524 . S
C3179 C3171 1.503 . S
C3179 C3178 1.370 . S
C3179 C3180 1.403 . S
C3180 C3179 1.403 . S
C3180 C3181 1.404 . S
C3180 C3183 1.539 . S
C3181 C3177 1.408 . S
C3181 C3180 1.404 . S
C3181 H3193 0.930 . S
C3182 C3178 1.524 . S
C3182 H3194 0.956 . S
C3182 H3195 0.961 . S
C3182 H3196 0.961 . S
C3183 C3180 1.539 . S
C3183 H3197 0.958 . S
C3183 H3198 0.961 . S
C3183 H3199 0.960 . S
H3184 C3168 0.931 . S
H3185 C3173 0.929 . S
H3186 C3174 0.960 . S
H3187 C3174 0.962 . S
H3188 C3174 0.960 . S
H3189 C3175 0.961 . S
H3190 C3175 0.961 . S
H3191 C3175 0.961 . S
H3192 C3176 0.931 . S
H3193 C3181 0.930 . S
H3194 C3182 0.956 . S
H3195 C3182 0.961 . S
H3196 C3182 0.961 . S
H3197 C3183 0.958 . S
H3198 C3183 0.961 . S
H3199 C3183 0.960 . S
C3200 C3201 1.391 . S
C3200 C3202 1.394 . S
C3200 H3216 0.931 . S
C3201 C3200 1.391 . S
C3201 C3205 1.376 . S
C3202 C3200 1.394 . S
C3202 C3203 1.369 . S
C3202 C3206 1.531 . S
C3203 C3202 1.369 . S
C3203 C3204 1.410 . S
C3203 C3211 1.503 . S
C3204 C3203 1.410 . S
C3204 C3205 1.392 . S
C3204 C3207 1.511 . S
C3205 C3201 1.376 . S
C3205 C3204 1.392 . S
C3205 H3217 0.929 . S
C3206 C3202 1.531 . S
C3206 H3218 0.960 . S
C3206 H3219 0.962 . S
C3206 H3220 0.960 . S
C3207 C3204 1.511 . S
C3207 H3221 0.961 . S
C3207 H3222 0.961 . S
C3207 H3223 0.961 . S
C3208 C3209 1.370 . S
C3208 C3210 1.363 . S
C3208 H3224 0.931 . S
C3209 C3208 1.370 . S
C3209 C3213 1.408 . S
C3210 C3208 1.363 . S
C3210 C3211 1.370 . S
C3210 C3214 1.524 . S
C3211 C3203 1.503 . S
C3211 C3210 1.370 . S
C3211 C3212 1.403 . S
C3212 C3211 1.403 . S
C3212 C3213 1.404 . S
C3212 C3215 1.539 . S
C3213 C3209 1.408 . S
C3213 C3212 1.404 . S
C3213 H3225 0.930 . S
C3214 C3210 1.524 . S
C3214 H3226 0.956 . S
C3214 H3227 0.961 . S
C3214 H3228 0.961 . S
C3215 C3212 1.539 . S
C3215 H3229 0.958 . S
C3215 H3230 0.961 . S
C3215 H3231 0.960 . S
H3216 C3200 0.931 . S
H3217 C3205 0.929 . S
H3218 C3206 0.960 . S
H3219 C3206 0.962 . S
H3220 C3206 0.960 . S
H3221 C3207 0.961 . S
H3222 C3207 0.961 . S
H3223 C3207 0.961 . S
H3224 C3208 0.931 . S
H3225 C3213 0.930 . S
H3226 C3214 0.956 . S
H3227 C3214 0.961 . S
H3228 C3214 0.961 . S
H3229 C3215 0.958 . S
H3230 C3215 0.961 . S
H3231 C3215 0.960 . S
C3232 C3233 1.391 . S
C3232 C3234 1.394 . S
C3232 H3248 0.931 . S
C3233 C3232 1.391 . S
C3233 C3237 1.376 . S
C3234 C3232 1.394 . S
C3234 C3235 1.369 . S
C3234 C3238 1.531 . S
C3235 C3234 1.369 . S
C3235 C3236 1.410 . S
C3235 C3243 1.503 . S
C3236 C3235 1.410 . S
C3236 C3237 1.392 . S
C3236 C3239 1.511 . S
C3237 C3233 1.376 . S
C3237 C3236 1.392 . S
C3237 H3249 0.929 . S
C3238 C3234 1.531 . S
C3238 H3250 0.960 . S
C3238 H3251 0.962 . S
C3238 H3252 0.960 . S
C3239 C3236 1.511 . S
C3239 H3253 0.961 . S
C3239 H3254 0.961 . S
C3239 H3255 0.961 . S
C3240 C3241 1.370 . S
C3240 C3242 1.363 . S
C3240 H3256 0.931 . S
C3241 C3240 1.370 . S
C3241 C3245 1.408 . S
C3242 C3240 1.363 . S
C3242 C3243 1.370 . S
C3242 C3246 1.524 . S
C3243 C3235 1.503 . S
C3243 C3242 1.370 . S
C3243 C3244 1.403 . S
C3244 C3243 1.403 . S
C3244 C3245 1.404 . S
C3244 C3247 1.539 . S
C3245 C3241 1.408 . S
C3245 C3244 1.404 . S
C3245 H3257 0.930 . S
C3246 C3242 1.524 . S
C3246 H3258 0.956 . S
C3246 H3259 0.961 . S
C3246 H3260 0.961 . S
C3247 C3244 1.539 . S
C3247 H3261 0.958 . S
C3247 H3262 0.961 . S
C3247 H3263 0.960 . S
H3248 C3232 0.931 . S
H3249 C3237 0.929 . S
H3250 C3238 0.960 . S
H3251 C3238 0.962 . S
H3252 C3238 0.960 . S
H3253 C3239 0.961 . S
H3254 C3239 0.961 . S
H3255 C3239 0.961 . S
H3256 C3240 0.931 . S
H3257 C3245 0.930 . S
H3258 C3246 0.956 . S
H3259 C3246 0.961 . S
H3260 C3246 0.961 . S
H3261 C3247 0.958 . S
H3262 C3247 0.961 . S
H3263 C3247 0.960 . S
C3264 C3265 1.391 . S
C3264 C3266 1.394 . S
C3264 H3280 0.931 . S
C3265 C3264 1.391 . S
C3265 C3269 1.376 . S
C3266 C3264 1.394 . S
C3266 C3267 1.369 . S
C3266 C3270 1.531 . S
C3267 C3266 1.369 . S
C3267 C3268 1.410 . S
C3267 C3275 1.503 . S
C3268 C3267 1.410 . S
C3268 C3269 1.392 . S
C3268 C3271 1.511 . S
C3269 C3265 1.376 . S
C3269 C3268 1.392 . S
C3269 H3281 0.929 . S
C3270 C3266 1.531 . S
C3270 H3282 0.960 . S
C3270 H3283 0.962 . S
C3270 H3284 0.960 . S
C3271 C3268 1.511 . S
C3271 H3285 0.961 . S
C3271 H3286 0.961 . S
C3271 H3287 0.961 . S
C3272 C3273 1.370 . S
C3272 C3274 1.363 . S
C3272 H3288 0.931 . S
C3273 C3272 1.370 . S
C3273 C3277 1.408 . S
C3274 C3272 1.363 . S
C3274 C3275 1.370 . S
C3274 C3278 1.524 . S
C3275 C3267 1.503 . S
C3275 C3274 1.370 . S
C3275 C3276 1.403 . S
C3276 C3275 1.403 . S
C3276 C3277 1.404 . S
C3276 C3279 1.539 . S
C3277 C3273 1.408 . S
C3277 C3276 1.404 . S
C3277 H3289 0.930 . S
C3278 C3274 1.524 . S
C3278 H3290 0.956 . S
C3278 H3291 0.961 . S
C3278 H3292 0.961 . S
C3279 C3276 1.539 . S
C3279 H3293 0.958 . S
C3279 H3294 0.961 . S
C3279 H3295 0.960 . S
H3280 C3264 0.931 . S
H3281 C3269 0.929 . S
H3282 C3270 0.960 . S
H3283 C3270 0.962 . S
H3284 C3270 0.960 . S
H3285 C3271 0.961 . S
H3286 C3271 0.961 . S
H3287 C3271 0.961 . S
H3288 C3272 0.931 . S
H3289 C3277 0.930 . S
H3290 C3278 0.956 . S
H3291 C3278 0.961 . S
H3292 C3278 0.961 . S
H3293 C3279 0.958 . S
H3294 C3279 0.961 . S
H3295 C3279 0.960 . S
C3296 C3297 1.391 . S
C3296 C3298 1.394 . S
C3296 H3312 0.931 . S
C3297 C3296 1.391 . S
C3297 C3301 1.376 . S
C3298 C3296 1.394 . S
C3298 C3299 1.369 . S
C3298 C3302 1.531 . S
C3299 C3298 1.369 . S
C3299 C3300 1.410 . S
C3299 C3307 1.503 . S
C3300 C3299 1.410 . S
C3300 C3301 1.392 . S
C3300 C3303 1.511 . S
C3301 C3297 1.376 . S
C3301 C3300 1.392 . S
C3301 H3313 0.929 . S
C3302 C3298 1.531 . S
C3302 H3314 0.960 . S
C3302 H3315 0.962 . S
C3302 H3316 0.960 . S
C3303 C3300 1.511 . S
C3303 H3317 0.961 . S
C3303 H3318 0.961 . S
C3303 H3319 0.961 . S
C3304 C3305 1.370 . S
C3304 C3306 1.363 . S
C3304 H3320 0.931 . S
C3305 C3304 1.370 . S
C3305 C3309 1.408 . S
C3306 C3304 1.363 . S
C3306 C3307 1.370 . S
C3306 C3310 1.524 . S
C3307 C3299 1.503 . S
C3307 C3306 1.370 . S
C3307 C3308 1.403 . S
C3308 C3307 1.403 . S
C3308 C3309 1.404 . S
C3308 C3311 1.539 . S
C3309 C3305 1.408 . S
C3309 C3308 1.404 . S
C3309 H3321 0.930 . S
C3310 C3306 1.524 . S
C3310 H3322 0.956 . S
C3310 H3323 0.961 . S
C3310 H3324 0.961 . S
C3311 C3308 1.539 . S
C3311 H3325 0.958 . S
C3311 H3326 0.961 . S
C3311 H3327 0.960 . S
H3312 C3296 0.931 . S
H3313 C3301 0.929 . S
H3314 C3302 0.960 . S
H3315 C3302 0.962 . S
H3316 C3302 0.960 . S
H3317 C3303 0.961 . S
H3318 C3303 0.961 . S
H3319 C3303 0.961 . S
H3320 C3304 0.931 . S
H3321 C3309 0.930 . S
H3322 C3310 0.956 . S
H3323 C3310 0.961 . S
H3324 C3310 0.961 . S
H3325 C3311 0.958 . S
H3326 C3311 0.961 . S
H3327 C3311 0.960 . S
C3328 C3329 1.391 . S
C3328 C3330 1.394 . S
C3328 H3344 0.931 . S
C3329 C3328 1.391 . S
C3329 C3333 1.376 . S
C3330 C3328 1.394 . S
C3330 C3331 1.369 . S
C3330 C3334 1.531 . S
C3331 C3330 1.369 . S
C3331 C3332 1.410 . S
C3331 C3339 1.503 . S
C3332 C3331 1.410 . S
C3332 C3333 1.392 . S
C3332 C3335 1.511 . S
C3333 C3329 1.376 . S
C3333 C3332 1.392 . S
C3333 H3345 0.929 . S
C3334 C3330 1.531 . S
C3334 H3346 0.960 . S
C3334 H3347 0.962 . S
C3334 H3348 0.960 . S
C3335 C3332 1.511 . S
C3335 H3349 0.961 . S
C3335 H3350 0.961 . S
C3335 H3351 0.961 . S
C3336 C3337 1.370 . S
C3336 C3338 1.363 . S
C3336 H3352 0.931 . S
C3337 C3336 1.370 . S
C3337 C3341 1.408 . S
C3338 C3336 1.363 . S
C3338 C3339 1.370 . S
C3338 C3342 1.524 . S
C3339 C3331 1.503 . S
C3339 C3338 1.370 . S
C3339 C3340 1.403 . S
C3340 C3339 1.403 . S
C3340 C3341 1.404 . S
C3340 C3343 1.539 . S
C3341 C3337 1.408 . S
C3341 C3340 1.404 . S
C3341 H3353 0.930 . S
C3342 C3338 1.524 . S
C3342 H3354 0.956 . S
C3342 H3355 0.961 . S
C3342 H3356 0.961 . S
C3343 C3340 1.539 . S
C3343 H3357 0.958 . S
C3343 H3358 0.961 . S
C3343 H3359 0.960 . S
H3344 C3328 0.931 . S
H3345 C3333 0.929 . S
H3346 C3334 0.960 . S
H3347 C3334 0.962 . S
H3348 C3334 0.960 . S
H3349 C3335 0.961 . S
H3350 C3335 0.961 . S
H3351 C3335 0.961 . S
H3352 C3336 0.931 . S
H3353 C3341 0.930 . S
H3354 C3342 0.956 . S
H3355 C3342 0.961 . S
H3356 C3342 0.961 . S
H3357 C3343 0.958 . S
H3358 C3343 0.961 . S
H3359 C3343 0.960 . S
C3360 C3361 1.391 . S
C3360 C3362 1.394 . S
C3360 H3376 0.931 . S
C3361 C3360 1.391 . S
C3361 C3365 1.376 . S
C3362 C3360 1.394 . S
C3362 C3363 1.369 . S
C3362 C3366 1.531 . S
C3363 C3362 1.369 . S
C3363 C3364 1.410 . S
C3363 C3371 1.503 . S
C3364 C3363 1.410 . S
C3364 C3365 1.392 . S
C3364 C3367 1.511 . S
C3365 C3361 1.376 . S
C3365 C3364 1.392 . S
C3365 H3377 0.929 . S
C3366 C3362 1.531 . S
C3366 H3378 0.960 . S
C3366 H3379 0.962 . S
C3366 H3380 0.960 . S
C3367 C3364 1.511 . S
C3367 H3381 0.961 . S
C3367 H3382 0.961 . S
C3367 H3383 0.961 . S
C3368 C3369 1.370 . S
C3368 C3370 1.363 . S
C3368 H3384 0.931 . S
C3369 C3368 1.370 . S
C3369 C3373 1.408 . S
C3370 C3368 1.363 . S
C3370 C3371 1.370 . S
C3370 C3374 1.524 . S
C3371 C3363 1.503 . S
C3371 C3370 1.370 . S
C3371 C3372 1.403 . S
C3372 C3371 1.403 . S
C3372 C3373 1.404 . S
C3372 C3375 1.539 . S
C3373 C3369 1.408 . S
C3373 C3372 1.404 . S
C3373 H3385 0.930 . S
C3374 C3370 1.524 . S
C3374 H3386 0.956 . S
C3374 H3387 0.961 . S
C3374 H3388 0.961 . S
C3375 C3372 1.539 . S
C3375 H3389 0.958 . S
C3375 H3390 0.961 . S
C3375 H3391 0.960 . S
H3376 C3360 0.931 . S
H3377 C3365 0.929 . S
H3378 C3366 0.960 . S
H3379 C3366 0.962 . S
H3380 C3366 0.960 . S
H3381 C3367 0.961 . S
H3382 C3367 0.961 . S
H3383 C3367 0.961 . S
H3384 C3368 0.931 . S
H3385 C3373 0.930 . S
H3386 C3374 0.956 . S
H3387 C3374 0.961 . S
H3388 C3374 0.961 . S
H3389 C3375 0.958 . S
H3390 C3375 0.961 . S
H3391 C3375 0.960 . S
C3392 C3393 1.391 . S
C3392 C3394 1.394 . S
C3392 H3408 0.931 . S
C3393 C3392 1.391 . S
C3393 C3397 1.376 . S
C3394 C3392 1.394 . S
C3394 C3395 1.369 . S
C3394 C3398 1.531 . S
C3395 C3394 1.369 . S
C3395 C3396 1.410 . S
C3395 C3403 1.503 . S
C3396 C3395 1.410 . S
C3396 C3397 1.392 . S
C3396 C3399 1.511 . S
C3397 C3393 1.376 . S
C3397 C3396 1.392 . S
C3397 H3409 0.929 . S
C3398 C3394 1.531 . S
C3398 H3410 0.960 . S
C3398 H3411 0.962 . S
C3398 H3412 0.960 . S
C3399 C3396 1.511 . S
C3399 H3413 0.961 . S
C3399 H3414 0.961 . S
C3399 H3415 0.961 . S
C3400 C3401 1.370 . S
C3400 C3402 1.363 . S
C3400 H3416 0.931 . S
C3401 C3400 1.370 . S
C3401 C3405 1.408 . S
C3402 C3400 1.363 . S
C3402 C3403 1.370 . S
C3402 C3406 1.524 . S
C3403 C3395 1.503 . S
C3403 C3402 1.370 . S
C3403 C3404 1.403 . S
C3404 C3403 1.403 . S
C3404 C3405 1.404 . S
C3404 C3407 1.539 . S
C3405 C3401 1.408 . S
C3405 C3404 1.404 . S
C3405 H3417 0.930 . S
C3406 C3402 1.524 . S
C3406 H3418 0.956 . S
C3406 H3419 0.961 . S
C3406 H3420 0.961 . S
C3407 C3404 1.539 . S
C3407 H3421 0.958 . S
C3407 H3422 0.961 . S
C3407 H3423 0.960 . S
H3408 C3392 0.931 . S
H3409 C3397 0.929 . S
H3410 C3398 0.960 . S
H3411 C3398 0.962 . S
H3412 C3398 0.960 . S
H3413 C3399 0.961 . S
H3414 C3399 0.961 . S
H3415 C3399 0.961 . S
H3416 C3400 0.931 . S
H3417 C3405 0.930 . S
H3418 C3406 0.956 . S
H3419 C3406 0.961 . S
H3420 C3406 0.961 . S
H3421 C3407 0.958 . S
H3422 C3407 0.961 . S
H3423 C3407 0.960 . S
C3424 C3425 1.391 . S
C3424 C3426 1.394 . S
C3424 H3440 0.931 . S
C3425 C3424 1.391 . S
C3425 C3429 1.376 . S
C3426 C3424 1.394 . S
C3426 C3427 1.369 . S
C3426 C3430 1.531 . S
C3427 C3426 1.369 . S
C3427 C3428 1.410 . S
C3427 C3435 1.503 . S
C3428 C3427 1.410 . S
C3428 C3429 1.392 . S
C3428 C3431 1.511 . S
C3429 C3425 1.376 . S
C3429 C3428 1.392 . S
C3429 H3441 0.929 . S
C3430 C3426 1.531 . S
C3430 H3442 0.960 . S
C3430 H3443 0.962 . S
C3430 H3444 0.960 . S
C3431 C3428 1.511 . S
C3431 H3445 0.961 . S
C3431 H3446 0.961 . S
C3431 H3447 0.961 . S
C3432 C3433 1.370 . S
C3432 C3434 1.363 . S
C3432 H3448 0.931 . S
C3433 C3432 1.370 . S
C3433 C3437 1.408 . S
C3434 C3432 1.363 . S
C3434 C3435 1.370 . S
C3434 C3438 1.524 . S
C3435 C3427 1.503 . S
C3435 C3434 1.370 . S
C3435 C3436 1.403 . S
C3436 C3435 1.403 . S
C3436 C3437 1.404 . S
C3436 C3439 1.539 . S
C3437 C3433 1.408 . S
C3437 C3436 1.404 . S
C3437 H3449 0.930 . S
C3438 C3434 1.524 . S
C3438 H3450 0.956 . S
C3438 H3451 0.961 . S
C3438 H3452 0.961 . S
C3439 C3436 1.539 . S
C3439 H3453 0.958 . S
C3439 H3454 0.961 . S
C3439 H3455 0.960 . S
H3440 C3424 0.931 . S
H3441 C3429 0.929 . S
H3442 C3430 0.960 . S
H3443 C3430 0.962 . S
H3444 C3430 0.960 . S
H3445 C3431 0.961 . S
H3446 C3431 0.961 . S
H3447 C3431 0.961 . S
H3448 C3432 0.931 . S
H3449 C3437 0.930 . S
H3450 C3438 0.956 . S
H3451 C3438 0.961 . S
H3452 C3438 0.961 . S
H3453 C3439 0.958 . S
H3454 C3439 0.961 . S
H3455 C3439 0.960 . S
C3456 C3457 1.391 . S
C3456 C3458 1.394 . S
C3456 H3472 0.931 . S
C3457 C3456 1.391 . S
C3457 C3461 1.376 . S
C3458 C3456 1.394 . S
C3458 C3459 1.369 . S
C3458 C3462 1.531 . S
C3459 C3458 1.369 . S
C3459 C3460 1.410 . S
C3459 C3467 1.503 . S
C3460 C3459 1.410 . S
C3460 C3461 1.392 . S
C3460 C3463 1.511 . S
C3461 C3457 1.376 . S
C3461 C3460 1.392 . S
C3461 H3473 0.929 . S
C3462 C3458 1.531 . S
C3462 H3474 0.960 . S
C3462 H3475 0.962 . S
C3462 H3476 0.960 . S
C3463 C3460 1.511 . S
C3463 H3477 0.961 . S
C3463 H3478 0.961 . S
C3463 H3479 0.961 . S
C3464 C3465 1.370 . S
C3464 C3466 1.363 . S
C3464 H3480 0.931 . S
C3465 C3464 1.370 . S
C3465 C3469 1.408 . S
C3466 C3464 1.363 . S
C3466 C3467 1.370 . S
C3466 C3470 1.524 . S
C3467 C3459 1.503 . S
C3467 C3466 1.370 . S
C3467 C3468 1.403 . S
C3468 C3467 1.403 . S
C3468 C3469 1.404 . S
C3468 C3471 1.539 . S
C3469 C3465 1.408 . S
C3469 C3468 1.404 . S
C3469 H3481 0.930 . S
C3470 C3466 1.524 . S
C3470 H3482 0.956 . S
C3470 H3483 0.961 . S
C3470 H3484 0.961 . S
C3471 C3468 1.539 . S
C3471 H3485 0.958 . S
C3471 H3486 0.961 . S
C3471 H3487 0.960 . S
H3472 C3456 0.931 . S
H3473 C3461 0.929 . S
H3474 C3462 0.960 . S
H3475 C3462 0.962 . S
H3476 C3462 0.960 . S
H3477 C3463 0.961 . S
H3478 C3463 0.961 . S
H3479 C3463 0.961 . S
H3480 C3464 0.931 . S
H3481 C3469 0.930 . S
H3482 C3470 0.956 . S
H3483 C3470 0.961 . S
H3484 C3470 0.961 . S
H3485 C3471 0.958 . S
H3486 C3471 0.961 . S
H3487 C3471 0.960 . S
C3488 C3489 1.391 . S
C3488 C3490 1.394 . S
C3488 H3504 0.931 . S
C3489 C3488 1.391 . S
C3489 C3493 1.376 . S
C3490 C3488 1.394 . S
C3490 C3491 1.369 . S
C3490 C3494 1.531 . S
C3491 C3490 1.369 . S
C3491 C3492 1.410 . S
C3491 C3499 1.503 . S
C3492 C3491 1.410 . S
C3492 C3493 1.392 . S
C3492 C3495 1.511 . S
C3493 C3489 1.376 . S
C3493 C3492 1.392 . S
C3493 H3505 0.929 . S
C3494 C3490 1.531 . S
C3494 H3506 0.960 . S
C3494 H3507 0.962 . S
C3494 H3508 0.960 . S
C3495 C3492 1.511 . S
C3495 H3509 0.961 . S
C3495 H3510 0.961 . S
C3495 H3511 0.961 . S
C3496 C3497 1.370 . S
C3496 C3498 1.363 . S
C3496 H3512 0.931 . S
C3497 C3496 1.370 . S
C3497 C3501 1.408 . S
C3498 C3496 1.363 . S
C3498 C3499 1.370 . S
C3498 C3502 1.524 . S
C3499 C3491 1.503 . S
C3499 C3498 1.370 . S
C3499 C3500 1.403 . S
C3500 C3499 1.403 . S
C3500 C3501 1.404 . S
C3500 C3503 1.539 . S
C3501 C3497 1.408 . S
C3501 C3500 1.404 . S
C3501 H3513 0.930 . S
C3502 C3498 1.524 . S
C3502 H3514 0.956 . S
C3502 H3515 0.961 . S
C3502 H3516 0.961 . S
C3503 C3500 1.539 . S
C3503 H3517 0.958 . S
C3503 H3518 0.961 . S
C3503 H3519 0.960 . S
H3504 C3488 0.931 . S
H3505 C3493 0.929 . S
H3506 C3494 0.960 . S
H3507 C3494 0.962 . S
H3508 C3494 0.960 . S
H3509 C3495 0.961 . S
H3510 C3495 0.961 . S
H3511 C3495 0.961 . S
H3512 C3496 0.931 . S
H3513 C3501 0.930 . S
H3514 C3502 0.956 . S
H3515 C3502 0.961 . S
H3516 C3502 0.961 . S
H3517 C3503 0.958 . S
H3518 C3503 0.961 . S
H3519 C3503 0.960 . S
C3520 C3521 1.391 . S
C3520 C3522 1.394 . S
C3520 H3536 0.931 . S
C3521 C3520 1.391 . S
C3521 C3525 1.376 . S
C3522 C3520 1.394 . S
C3522 C3523 1.369 . S
C3522 C3526 1.531 . S
C3523 C3522 1.369 . S
C3523 C3524 1.410 . S
C3523 C3531 1.503 . S
C3524 C3523 1.410 . S
C3524 C3525 1.392 . S
C3524 C3527 1.511 . S
C3525 C3521 1.376 . S
C3525 C3524 1.392 . S
C3525 H3537 0.929 . S
C3526 C3522 1.531 . S
C3526 H3538 0.960 . S
C3526 H3539 0.962 . S
C3526 H3540 0.960 . S
C3527 C3524 1.511 . S
C3527 H3541 0.961 . S
C3527 H3542 0.961 . S
C3527 H3543 0.961 . S
C3528 C3529 1.370 . S
C3528 C3530 1.363 . S
C3528 H3544 0.931 . S
C3529 C3528 1.370 . S
C3529 C3533 1.408 . S
C3530 C3528 1.363 . S
C3530 C3531 1.370 . S
C3530 C3534 1.524 . S
C3531 C3523 1.503 . S
C3531 C3530 1.370 . S
C3531 C3532 1.403 . S
C3532 C3531 1.403 . S
C3532 C3533 1.404 . S
C3532 C3535 1.539 . S
C3533 C3529 1.408 . S
C3533 C3532 1.404 . S
C3533 H3545 0.930 . S
C3534 C3530 1.524 . S
C3534 H3546 0.956 . S
C3534 H3547 0.961 . S
C3534 H3548 0.961 . S
C3535 C3532 1.539 . S
C3535 H3549 0.958 . S
C3535 H3550 0.961 . S
C3535 H3551 0.960 . S
H3536 C3520 0.931 . S
H3537 C3525 0.929 . S
H3538 C3526 0.960 . S
H3539 C3526 0.962 . S
H3540 C3526 0.960 . S
H3541 C3527 0.961 . S
H3542 C3527 0.961 . S
H3543 C3527 0.961 . S
H3544 C3528 0.931 . S
H3545 C3533 0.930 . S
H3546 C3534 0.956 . S
H3547 C3534 0.961 . S
H3548 C3534 0.961 . S
H3549 C3535 0.958 . S
H3550 C3535 0.961 . S
H3551 C3535 0.960 . S
C3552 C3553 1.391 . S
C3552 C3554 1.394 . S
C3552 H3568 0.931 1_556 S
C3553 C3552 1.391 . S
C3553 C3557 1.376 . S
C3554 C3552 1.394 . S
C3554 C3555 1.369 . S
C3554 C3558 1.531 . S
C3555 C3554 1.369 . S
C3555 C3556 1.410 . S
C3555 C3563 1.503 . S
C3556 C3555 1.410 . S
C3556 C3557 1.392 . S
C3556 C3559 1.511 . S
C3557 C3553 1.376 . S
C3557 C3556 1.392 . S
C3557 H3569 0.929 . S
C3558 C3554 1.531 . S
C3558 H3570 0.960 . S
C3558 H3571 0.962 . S
C3558 H3572 0.960 1_556 S
C3559 C3556 1.511 . S
C3559 H3573 0.961 . S
C3559 H3574 0.961 . S
C3559 H3575 0.961 . S
C3560 C3561 1.370 . S
C3560 C3562 1.363 . S
C3560 H3576 0.931 . S
C3561 C3560 1.370 . S
C3561 C3565 1.408 . S
C3562 C3560 1.363 . S
C3562 C3563 1.370 . S
C3562 C3566 1.524 . S
C3563 C3555 1.503 . S
C3563 C3562 1.370 . S
C3563 C3564 1.403 . S
C3564 C3563 1.403 . S
C3564 C3565 1.404 . S
C3564 C3567 1.539 . S
C3565 C3561 1.408 . S
C3565 C3564 1.404 . S
C3565 H3577 0.930 . S
C3566 C3562 1.524 . S
C3566 H3578 0.956 . S
C3566 H3579 0.961 . S
C3566 H3580 0.961 . S
C3567 C3564 1.539 . S
C3567 H3581 0.958 . S
C3567 H3582 0.961 . S
C3567 H3583 0.960 . S
H3568 C3552 0.931 1_554 S
H3569 C3557 0.929 . S
H3570 C3558 0.960 . S
H3571 C3558 0.962 . S
H3572 C3558 0.960 1_554 S
H3573 C3559 0.961 . S
H3574 C3559 0.961 . S
H3575 C3559 0.961 . S
H3576 C3560 0.931 . S
H3577 C3565 0.930 . S
H3578 C3566 0.956 . S
H3579 C3566 0.961 . S
H3580 C3566 0.961 . S
H3581 C3567 0.958 . S
H3582 C3567 0.961 . S
H3583 C3567 0.960 . S
C3584 C3585 1.391 . S
C3584 C3586 1.394 . S
C3584 H3600 0.931 . S
C3585 C3584 1.391 . S
C3585 C3589 1.376 . S
C3586 C3584 1.394 . S
C3586 C3587 1.369 . S
C3586 C3590 1.531 . S
C3587 C3586 1.369 . S
C3587 C3588 1.410 . S
C3587 C3595 1.503 . S
C3588 C3587 1.410 . S
C3588 C3589 1.392 . S
C3588 C3591 1.511 . S
C3589 C3585 1.376 . S
C3589 C3588 1.392 . S
C3589 H3601 0.929 . S
C3590 C3586 1.531 . S
C3590 H3602 0.960 . S
C3590 H3603 0.962 . S
C3590 H3604 0.960 . S
C3591 C3588 1.511 . S
C3591 H3605 0.961 . S
C3591 H3606 0.961 . S
C3591 H3607 0.961 . S
C3592 C3593 1.370 . S
C3592 C3594 1.363 . S
C3592 H3608 0.931 . S
C3593 C3592 1.370 . S
C3593 C3597 1.408 . S
C3594 C3592 1.363 . S
C3594 C3595 1.370 . S
C3594 C3598 1.524 . S
C3595 C3587 1.503 . S
C3595 C3594 1.370 . S
C3595 C3596 1.403 . S
C3596 C3595 1.403 . S
C3596 C3597 1.404 . S
C3596 C3599 1.539 . S
C3597 C3593 1.408 . S
C3597 C3596 1.404 . S
C3597 H3609 0.930 . S
C3598 C3594 1.524 . S
C3598 H3610 0.956 . S
C3598 H3611 0.961 . S
C3598 H3612 0.961 . S
C3599 C3596 1.539 . S
C3599 H3613 0.958 . S
C3599 H3614 0.961 . S
C3599 H3615 0.960 . S
H3600 C3584 0.931 . S
H3601 C3589 0.929 . S
H3602 C3590 0.960 . S
H3603 C3590 0.962 . S
H3604 C3590 0.960 . S
H3605 C3591 0.961 . S
H3606 C3591 0.961 . S
H3607 C3591 0.961 . S
H3608 C3592 0.931 . S
H3609 C3597 0.930 . S
H3610 C3598 0.956 . S
H3611 C3598 0.961 . S
H3612 C3598 0.961 . S
H3613 C3599 0.958 . S
H3614 C3599 0.961 . S
H3615 C3599 0.960 . S
C3616 C3617 1.391 . S
C3616 C3618 1.394 . S
C3616 H3632 0.931 1_556 S
C3617 C3616 1.391 . S
C3617 C3621 1.376 . S
C3618 C3616 1.394 . S
C3618 C3619 1.369 . S
C3618 C3622 1.531 . S
C3619 C3618 1.369 . S
C3619 C3620 1.410 . S
C3619 C3627 1.503 . S
C3620 C3619 1.410 . S
C3620 C3621 1.392 . S
C3620 C3623 1.511 . S
C3621 C3617 1.376 . S
C3621 C3620 1.392 . S
C3621 H3633 0.929 . S
C3622 C3618 1.531 . S
C3622 H3634 0.960 . S
C3622 H3635 0.962 1_556 S
C3622 H3636 0.960 1_556 S
C3623 C3620 1.511 . S
C3623 H3637 0.961 . S
C3623 H3638 0.961 . S
C3623 H3639 0.961 . S
C3624 C3625 1.370 . S
C3624 C3626 1.363 . S
C3624 H3640 0.931 . S
C3625 C3624 1.370 . S
C3625 C3629 1.408 . S
C3626 C3624 1.363 . S
C3626 C3627 1.370 . S
C3626 C3630 1.524 . S
C3627 C3619 1.503 . S
C3627 C3626 1.370 . S
C3627 C3628 1.403 . S
C3628 C3627 1.403 . S
C3628 C3629 1.404 . S
C3628 C3631 1.539 . S
C3629 C3625 1.408 . S
C3629 C3628 1.404 . S
C3629 H3641 0.930 . S
C3630 C3626 1.524 . S
C3630 H3642 0.956 . S
C3630 H3643 0.961 . S
C3630 H3644 0.961 . S
C3631 C3628 1.539 . S
C3631 H3645 0.958 . S
C3631 H3646 0.961 . S
C3631 H3647 0.960 . S
H3632 C3616 0.931 1_554 S
H3633 C3621 0.929 . S
H3634 C3622 0.960 . S
H3635 C3622 0.962 1_554 S
H3636 C3622 0.960 1_554 S
H3637 C3623 0.961 . S
H3638 C3623 0.961 . S
H3639 C3623 0.961 . S
H3640 C3624 0.931 . S
H3641 C3629 0.930 . S
H3642 C3630 0.956 . S
H3643 C3630 0.961 . S
H3644 C3630 0.961 . S
H3645 C3631 0.958 . S
H3646 C3631 0.961 . S
H3647 C3631 0.960 . S
C3648 C3649 1.391 . S
C3648 C3650 1.394 . S
C3648 H3664 0.931 1_556 S
C3649 C3648 1.391 . S
C3649 C3653 1.376 . S
C3650 C3648 1.394 . S
C3650 C3651 1.369 . S
C3650 C3654 1.531 . S
C3651 C3650 1.369 . S
C3651 C3652 1.410 . S
C3651 C3659 1.503 . S
C3652 C3651 1.410 . S
C3652 C3653 1.392 . S
C3652 C3655 1.511 . S
C3653 C3649 1.376 . S
C3653 C3652 1.392 . S
C3653 H3665 0.929 . S
C3654 C3650 1.531 . S
C3654 H3666 0.960 . S
C3654 H3667 0.962 . S
C3654 H3668 0.960 1_556 S
C3655 C3652 1.511 . S
C3655 H3669 0.961 . S
C3655 H3670 0.961 . S
C3655 H3671 0.961 . S
C3656 C3657 1.370 . S
C3656 C3658 1.363 . S
C3656 H3672 0.931 . S
C3657 C3656 1.370 . S
C3657 C3661 1.408 . S
C3658 C3656 1.363 . S
C3658 C3659 1.370 . S
C3658 C3662 1.524 . S
C3659 C3651 1.503 . S
C3659 C3658 1.370 . S
C3659 C3660 1.403 . S
C3660 C3659 1.403 . S
C3660 C3661 1.404 . S
C3660 C3663 1.539 . S
C3661 C3657 1.408 . S
C3661 C3660 1.404 . S
C3661 H3673 0.930 . S
C3662 C3658 1.524 . S
C3662 H3674 0.956 . S
C3662 H3675 0.961 . S
C3662 H3676 0.961 . S
C3663 C3660 1.539 . S
C3663 H3677 0.958 . S
C3663 H3678 0.961 . S
C3663 H3679 0.960 . S
H3664 C3648 0.931 1_554 S
H3665 C3653 0.929 . S
H3666 C3654 0.960 . S
H3667 C3654 0.962 . S
H3668 C3654 0.960 1_554 S
H3669 C3655 0.961 . S
H3670 C3655 0.961 . S
H3671 C3655 0.961 . S
H3672 C3656 0.931 . S
H3673 C3661 0.930 . S
H3674 C3662 0.956 . S
H3675 C3662 0.961 . S
H3676 C3662 0.961 . S
H3677 C3663 0.958 . S
H3678 C3663 0.961 . S
H3679 C3663 0.960 . S
C3680 C3681 1.391 . S
C3680 C3682 1.394 . S
C3680 H3696 0.931 . S
C3681 C3680 1.391 . S
C3681 C3685 1.376 . S
C3682 C3680 1.394 . S
C3682 C3683 1.369 . S
C3682 C3686 1.531 . S
C3683 C3682 1.369 . S
C3683 C3684 1.410 . S
C3683 C3691 1.503 . S
C3684 C3683 1.410 . S
C3684 C3685 1.392 . S
C3684 C3687 1.511 . S
C3685 C3681 1.376 . S
C3685 C3684 1.392 . S
C3685 H3697 0.929 . S
C3686 C3682 1.531 . S
C3686 H3698 0.960 . S
C3686 H3699 0.962 . S
C3686 H3700 0.960 . S
C3687 C3684 1.511 . S
C3687 H3701 0.961 . S
C3687 H3702 0.961 . S
C3687 H3703 0.961 . S
C3688 C3689 1.370 . S
C3688 C3690 1.363 . S
C3688 H3704 0.931 . S
C3689 C3688 1.370 . S
C3689 C3693 1.408 . S
C3690 C3688 1.363 . S
C3690 C3691 1.370 . S
C3690 C3694 1.524 . S
C3691 C3683 1.503 . S
C3691 C3690 1.370 . S
C3691 C3692 1.403 . S
C3692 C3691 1.403 . S
C3692 C3693 1.404 . S
C3692 C3695 1.539 . S
C3693 C3689 1.408 . S
C3693 C3692 1.404 . S
C3693 H3705 0.930 . S
C3694 C3690 1.524 . S
C3694 H3706 0.956 . S
C3694 H3707 0.961 . S
C3694 H3708 0.961 . S
C3695 C3692 1.539 . S
C3695 H3709 0.958 . S
C3695 H3710 0.961 . S
C3695 H3711 0.960 . S
H3696 C3680 0.931 . S
H3697 C3685 0.929 . S
H3698 C3686 0.960 . S
H3699 C3686 0.962 . S
H3700 C3686 0.960 . S
H3701 C3687 0.961 . S
H3702 C3687 0.961 . S
H3703 C3687 0.961 . S
H3704 C3688 0.931 . S
H3705 C3693 0.930 . S
H3706 C3694 0.956 . S
H3707 C3694 0.961 . S
H3708 C3694 0.961 . S
H3709 C3695 0.958 . S
H3710 C3695 0.961 . S
H3711 C3695 0.960 . S
C3712 C3713 1.391 . S
C3712 C3714 1.394 . S
C3712 H3728 0.931 . S
C3713 C3712 1.391 . S
C3713 C3717 1.376 . S
C3714 C3712 1.394 . S
C3714 C3715 1.369 . S
C3714 C3718 1.531 . S
C3715 C3714 1.369 . S
C3715 C3716 1.410 . S
C3715 C3723 1.503 . S
C3716 C3715 1.410 . S
C3716 C3717 1.392 . S
C3716 C3719 1.511 . S
C3717 C3713 1.376 . S
C3717 C3716 1.392 . S
C3717 H3729 0.929 1_556 S
C3718 C3714 1.531 . S
C3718 H3730 0.960 . S
C3718 H3731 0.962 . S
C3718 H3732 0.960 . S
C3719 C3716 1.511 . S
C3719 H3733 0.961 1_556 S
C3719 H3734 0.961 . S
C3719 H3735 0.961 . S
C3720 C3721 1.370 . S
C3720 C3722 1.363 . S
C3720 H3736 0.931 . S
C3721 C3720 1.370 . S
C3721 C3725 1.408 . S
C3722 C3720 1.363 . S
C3722 C3723 1.370 . S
C3722 C3726 1.524 . S
C3723 C3715 1.503 . S
C3723 C3722 1.370 . S
C3723 C3724 1.403 . S
C3724 C3723 1.403 . S
C3724 C3725 1.404 . S
C3724 C3727 1.539 . S
C3725 C3721 1.408 . S
C3725 C3724 1.404 . S
C3725 H3737 0.930 . S
C3726 C3722 1.524 . S
C3726 H3738 0.956 . S
C3726 H3739 0.961 . S
C3726 H3740 0.961 . S
C3727 C3724 1.539 . S
C3727 H3741 0.958 . S
C3727 H3742 0.961 . S
C3727 H3743 0.960 . S
H3728 C3712 0.931 . S
H3729 C3717 0.929 1_554 S
H3730 C3718 0.960 . S
H3731 C3718 0.962 . S
H3732 C3718 0.960 . S
H3733 C3719 0.961 1_554 S
H3734 C3719 0.961 . S
H3735 C3719 0.961 . S
H3736 C3720 0.931 . S
H3737 C3725 0.930 . S
H3738 C3726 0.956 . S
H3739 C3726 0.961 . S
H3740 C3726 0.961 . S
H3741 C3727 0.958 . S
H3742 C3727 0.961 . S
H3743 C3727 0.960 . S
C3744 C3745 1.391 . S
C3744 C3746 1.394 . S
C3744 H3760 0.931 . S
C3745 C3744 1.391 . S
C3745 C3749 1.376 . S
C3746 C3744 1.394 . S
C3746 C3747 1.369 . S
C3746 C3750 1.531 . S
C3747 C3746 1.369 . S
C3747 C3748 1.410 . S
C3747 C3755 1.503 . S
C3748 C3747 1.410 . S
C3748 C3749 1.392 . S
C3748 C3751 1.511 . S
C3749 C3745 1.376 . S
C3749 C3748 1.392 . S
C3749 H3761 0.929 . S
C3750 C3746 1.531 . S
C3750 H3762 0.960 . S
C3750 H3763 0.962 . S
C3750 H3764 0.960 . S
C3751 C3748 1.511 . S
C3751 H3765 0.961 . S
C3751 H3766 0.961 . S
C3751 H3767 0.961 . S
C3752 C3753 1.370 . S
C3752 C3754 1.363 . S
C3752 H3768 0.931 . S
C3753 C3752 1.370 . S
C3753 C3757 1.408 . S
C3754 C3752 1.363 . S
C3754 C3755 1.370 . S
C3754 C3758 1.524 . S
C3755 C3747 1.503 . S
C3755 C3754 1.370 . S
C3755 C3756 1.403 . S
C3756 C3755 1.403 . S
C3756 C3757 1.404 . S
C3756 C3759 1.539 . S
C3757 C3753 1.408 . S
C3757 C3756 1.404 . S
C3757 H3769 0.930 . S
C3758 C3754 1.524 . S
C3758 H3770 0.956 . S
C3758 H3771 0.961 . S
C3758 H3772 0.961 . S
C3759 C3756 1.539 . S
C3759 H3773 0.958 . S
C3759 H3774 0.961 . S
C3759 H3775 0.960 . S
H3760 C3744 0.931 . S
H3761 C3749 0.929 . S
H3762 C3750 0.960 . S
H3763 C3750 0.962 . S
H3764 C3750 0.960 . S
H3765 C3751 0.961 . S
H3766 C3751 0.961 . S
H3767 C3751 0.961 . S
H3768 C3752 0.931 . S
H3769 C3757 0.930 . S
H3770 C3758 0.956 . S
H3771 C3758 0.961 . S
H3772 C3758 0.961 . S
H3773 C3759 0.958 . S
H3774 C3759 0.961 . S
H3775 C3759 0.960 . S
C3776 C3777 1.391 . S
C3776 C3778 1.394 . S
C3776 H3792 0.931 . S
C3777 C3776 1.391 . S
C3777 C3781 1.376 . S
C3778 C3776 1.394 . S
C3778 C3779 1.369 . S
C3778 C3782 1.531 . S
C3779 C3778 1.369 . S
C3779 C3780 1.410 . S
C3779 C3787 1.503 . S
C3780 C3779 1.410 . S
C3780 C3781 1.392 . S
C3780 C3783 1.511 . S
C3781 C3777 1.376 . S
C3781 C3780 1.392 . S
C3781 H3793 0.929 . S
C3782 C3778 1.531 . S
C3782 H3794 0.960 . S
C3782 H3795 0.962 . S
C3782 H3796 0.960 . S
C3783 C3780 1.511 . S
C3783 H3797 0.961 . S
C3783 H3798 0.961 . S
C3783 H3799 0.961 . S
C3784 C3785 1.370 . S
C3784 C3786 1.363 . S
C3784 H3800 0.931 . S
C3785 C3784 1.370 . S
C3785 C3789 1.408 . S
C3786 C3784 1.363 . S
C3786 C3787 1.370 . S
C3786 C3790 1.524 . S
C3787 C3779 1.503 . S
C3787 C3786 1.370 . S
C3787 C3788 1.403 . S
C3788 C3787 1.403 . S
C3788 C3789 1.404 . S
C3788 C3791 1.539 . S
C3789 C3785 1.408 . S
C3789 C3788 1.404 . S
C3789 H3801 0.930 . S
C3790 C3786 1.524 . S
C3790 H3802 0.956 . S
C3790 H3803 0.961 . S
C3790 H3804 0.961 . S
C3791 C3788 1.539 . S
C3791 H3805 0.958 . S
C3791 H3806 0.961 . S
C3791 H3807 0.960 . S
H3792 C3776 0.931 . S
H3793 C3781 0.929 . S
H3794 C3782 0.960 . S
H3795 C3782 0.962 . S
H3796 C3782 0.960 . S
H3797 C3783 0.961 . S
H3798 C3783 0.961 . S
H3799 C3783 0.961 . S
H3800 C3784 0.931 . S
H3801 C3789 0.930 . S
H3802 C3790 0.956 . S
H3803 C3790 0.961 . S
H3804 C3790 0.961 . S
H3805 C3791 0.958 . S
H3806 C3791 0.961 . S
H3807 C3791 0.960 . S
C3808 C3809 1.391 . S
C3808 C3810 1.394 . S
C3808 H3824 0.931 . S
C3809 C3808 1.391 . S
C3809 C3813 1.376 . S
C3810 C3808 1.394 . S
C3810 C3811 1.369 . S
C3810 C3814 1.531 . S
C3811 C3810 1.369 . S
C3811 C3812 1.410 . S
C3811 C3819 1.503 . S
C3812 C3811 1.410 . S
C3812 C3813 1.392 . S
C3812 C3815 1.511 . S
C3813 C3809 1.376 . S
C3813 C3812 1.392 . S
C3813 H3825 0.929 . S
C3814 C3810 1.531 . S
C3814 H3826 0.960 . S
C3814 H3827 0.962 . S
C3814 H3828 0.960 . S
C3815 C3812 1.511 . S
C3815 H3829 0.961 . S
C3815 H3830 0.961 . S
C3815 H3831 0.961 . S
C3816 C3817 1.370 . S
C3816 C3818 1.363 . S
C3816 H3832 0.931 . S
C3817 C3816 1.370 . S
C3817 C3821 1.408 . S
C3818 C3816 1.363 . S
C3818 C3819 1.370 . S
C3818 C3822 1.524 . S
C3819 C3811 1.503 . S
C3819 C3818 1.370 . S
C3819 C3820 1.403 . S
C3820 C3819 1.403 . S
C3820 C3821 1.404 . S
C3820 C3823 1.539 . S
C3821 C3817 1.408 . S
C3821 C3820 1.404 . S
C3821 H3833 0.930 . S
C3822 C3818 1.524 . S
C3822 H3834 0.956 . S
C3822 H3835 0.961 . S
C3822 H3836 0.961 . S
C3823 C3820 1.539 . S
C3823 H3837 0.958 . S
C3823 H3838 0.961 . S
C3823 H3839 0.960 . S
H3824 C3808 0.931 . S
H3825 C3813 0.929 . S
H3826 C3814 0.960 . S
H3827 C3814 0.962 . S
H3828 C3814 0.960 . S
H3829 C3815 0.961 . S
H3830 C3815 0.961 . S
H3831 C3815 0.961 . S
H3832 C3816 0.931 . S
H3833 C3821 0.930 . S
H3834 C3822 0.956 . S
H3835 C3822 0.961 . S
H3836 C3822 0.961 . S
H3837 C3823 0.958 . S
H3838 C3823 0.961 . S
H3839 C3823 0.960 . S
C3840 C3841 1.391 . S
C3840 C3842 1.394 . S
C3840 H3856 0.931 . S
C3841 C3840 1.391 . S
C3841 C3845 1.376 . S
C3842 C3840 1.394 . S
C3842 C3843 1.369 . S
C3842 C3846 1.531 . S
C3843 C3842 1.369 . S
C3843 C3844 1.410 . S
C3843 C3851 1.503 . S
C3844 C3843 1.410 . S
C3844 C3845 1.392 . S
C3844 C3847 1.511 . S
C3845 C3841 1.376 . S
C3845 C3844 1.392 . S
C3845 H3857 0.929 . S
C3846 C3842 1.531 . S
C3846 H3858 0.960 . S
C3846 H3859 0.962 . S
C3846 H3860 0.960 . S
C3847 C3844 1.511 . S
C3847 H3861 0.961 . S
C3847 H3862 0.961 . S
C3847 H3863 0.961 . S
C3848 C3849 1.370 . S
C3848 C3850 1.363 . S
C3848 H3864 0.931 . S
C3849 C3848 1.370 . S
C3849 C3853 1.408 . S
C3850 C3848 1.363 . S
C3850 C3851 1.370 . S
C3850 C3854 1.524 . S
C3851 C3843 1.503 . S
C3851 C3850 1.370 . S
C3851 C3852 1.403 . S
C3852 C3851 1.403 . S
C3852 C3853 1.404 . S
C3852 C3855 1.539 . S
C3853 C3849 1.408 . S
C3853 C3852 1.404 . S
C3853 H3865 0.930 . S
C3854 C3850 1.524 . S
C3854 H3866 0.956 . S
C3854 H3867 0.961 . S
C3854 H3868 0.961 . S
C3855 C3852 1.539 . S
C3855 H3869 0.958 . S
C3855 H3870 0.961 . S
C3855 H3871 0.960 . S
H3856 C3840 0.931 . S
H3857 C3845 0.929 . S
H3858 C3846 0.960 . S
H3859 C3846 0.962 . S
H3860 C3846 0.960 . S
H3861 C3847 0.961 . S
H3862 C3847 0.961 . S
H3863 C3847 0.961 . S
H3864 C3848 0.931 . S
H3865 C3853 0.930 . S
H3866 C3854 0.956 . S
H3867 C3854 0.961 . S
H3868 C3854 0.961 . S
H3869 C3855 0.958 . S
H3870 C3855 0.961 . S
H3871 C3855 0.960 . S
C3872 C3873 1.391 . S
C3872 C3874 1.394 . S
C3872 H3888 0.931 . S
C3873 C3872 1.391 . S
C3873 C3877 1.376 . S
C3874 C3872 1.394 . S
C3874 C3875 1.369 . S
C3874 C3878 1.531 . S
C3875 C3874 1.369 . S
C3875 C3876 1.410 . S
C3875 C3883 1.503 . S
C3876 C3875 1.410 . S
C3876 C3877 1.392 . S
C3876 C3879 1.511 . S
C3877 C3873 1.376 . S
C3877 C3876 1.392 . S
C3877 H3889 0.929 . S
C3878 C3874 1.531 . S
C3878 H3890 0.960 . S
C3878 H3891 0.962 . S
C3878 H3892 0.960 . S
C3879 C3876 1.511 . S
C3879 H3893 0.961 . S
C3879 H3894 0.961 . S
C3879 H3895 0.961 . S
C3880 C3881 1.370 . S
C3880 C3882 1.363 . S
C3880 H3896 0.931 . S
C3881 C3880 1.370 . S
C3881 C3885 1.408 . S
C3882 C3880 1.363 . S
C3882 C3883 1.370 . S
C3882 C3886 1.524 . S
C3883 C3875 1.503 . S
C3883 C3882 1.370 . S
C3883 C3884 1.403 . S
C3884 C3883 1.403 . S
C3884 C3885 1.404 . S
C3884 C3887 1.539 . S
C3885 C3881 1.408 . S
C3885 C3884 1.404 . S
C3885 H3897 0.930 . S
C3886 C3882 1.524 . S
C3886 H3898 0.956 . S
C3886 H3899 0.961 . S
C3886 H3900 0.961 . S
C3887 C3884 1.539 . S
C3887 H3901 0.958 . S
C3887 H3902 0.961 . S
C3887 H3903 0.960 . S
H3888 C3872 0.931 . S
H3889 C3877 0.929 . S
H3890 C3878 0.960 . S
H3891 C3878 0.962 . S
H3892 C3878 0.960 . S
H3893 C3879 0.961 . S
H3894 C3879 0.961 . S
H3895 C3879 0.961 . S
H3896 C3880 0.931 . S
H3897 C3885 0.930 . S
H3898 C3886 0.956 . S
H3899 C3886 0.961 . S
H3900 C3886 0.961 . S
H3901 C3887 0.958 . S
H3902 C3887 0.961 . S
H3903 C3887 0.960 . S
C3904 C3905 1.391 . S
C3904 C3906 1.394 . S
C3904 H3920 0.931 . S
C3905 C3904 1.391 . S
C3905 C3909 1.376 . S
C3906 C3904 1.394 . S
C3906 C3907 1.369 . S
C3906 C3910 1.531 . S
C3907 C3906 1.369 . S
C3907 C3908 1.410 . S
C3907 C3915 1.503 . S
C3908 C3907 1.410 . S
C3908 C3909 1.392 . S
C3908 C3911 1.511 . S
C3909 C3905 1.376 . S
C3909 C3908 1.392 . S
C3909 H3921 0.929 . S
C3910 C3906 1.531 . S
C3910 H3922 0.960 . S
C3910 H3923 0.962 . S
C3910 H3924 0.960 . S
C3911 C3908 1.511 . S
C3911 H3925 0.961 . S
C3911 H3926 0.961 . S
C3911 H3927 0.961 . S
C3912 C3913 1.370 . S
C3912 C3914 1.363 . S
C3912 H3928 0.931 . S
C3913 C3912 1.370 . S
C3913 C3917 1.408 . S
C3914 C3912 1.363 . S
C3914 C3915 1.370 . S
C3914 C3918 1.524 . S
C3915 C3907 1.503 . S
C3915 C3914 1.370 . S
C3915 C3916 1.403 . S
C3916 C3915 1.403 . S
C3916 C3917 1.404 . S
C3916 C3919 1.539 . S
C3917 C3913 1.408 . S
C3917 C3916 1.404 . S
C3917 H3929 0.930 . S
C3918 C3914 1.524 . S
C3918 H3930 0.956 . S
C3918 H3931 0.961 . S
C3918 H3932 0.961 . S
C3919 C3916 1.539 . S
C3919 H3933 0.958 . S
C3919 H3934 0.961 . S
C3919 H3935 0.960 . S
H3920 C3904 0.931 . S
H3921 C3909 0.929 . S
H3922 C3910 0.960 . S
H3923 C3910 0.962 . S
H3924 C3910 0.960 . S
H3925 C3911 0.961 . S
H3926 C3911 0.961 . S
H3927 C3911 0.961 . S
H3928 C3912 0.931 . S
H3929 C3917 0.930 . S
H3930 C3918 0.956 . S
H3931 C3918 0.961 . S
H3932 C3918 0.961 . S
H3933 C3919 0.958 . S
H3934 C3919 0.961 . S
H3935 C3919 0.960 . S
C3936 C3937 1.391 . S
C3936 C3938 1.394 . S
C3936 H3952 0.931 . S
C3937 C3936 1.391 . S
C3937 C3941 1.376 . S
C3938 C3936 1.394 . S
C3938 C3939 1.369 . S
C3938 C3942 1.531 . S
C3939 C3938 1.369 . S
C3939 C3940 1.424 . S
C3939 C3947 1.503 . S
C3940 C3939 1.424 . S
C3940 C3941 1.407 . S
C3940 C3943 1.483 1_455 S
C3941 C3937 1.376 . S
C3941 C3940 1.407 . S
C3941 H3953 0.929 1_455 S
C3942 C3938 1.531 . S
C3942 H3954 0.960 . S
C3942 H3955 0.962 . S
C3942 H3956 0.960 . S
C3943 C3940 1.483 1_655 S
C3943 H3957 0.961 . S
C3943 H3958 0.961 . S
C3943 H3959 0.961 . S
C3944 C3945 1.370 . S
C3944 C3946 1.363 . S
C3944 H3960 0.931 . S
C3945 C3944 1.370 . S
C3945 C3949 1.408 . S
C3946 C3944 1.363 . S
C3946 C3947 1.370 . S
C3946 C3950 1.524 . S
C3947 C3939 1.503 . S
C3947 C3946 1.370 . S
C3947 C3948 1.403 . S
C3948 C3947 1.403 . S
C3948 C3949 1.404 . S
C3948 C3951 1.539 1_455 S
C3949 C3945 1.408 . S
C3949 C3948 1.404 . S
C3949 H3961 0.930 1_455 S
C3950 C3946 1.524 . S
C3950 H3962 0.956 . S
C3950 H3963 0.961 . S
C3950 H3964 0.961 . S
C3951 C3948 1.539 1_655 S
C3951 H3965 0.958 1_655 S
C3951 H3966 0.961 . S
C3951 H3967 0.960 . S
H3952 C3936 0.931 . S
H3953 C3941 0.929 1_655 S
H3954 C3942 0.960 . S
H3955 C3942 0.962 . S
H3956 C3942 0.960 . S
H3957 C3943 0.961 . S
H3958 C3943 0.961 . S
H3959 C3943 0.961 . S
H3960 C3944 0.931 . S
H3961 C3949 0.930 1_655 S
H3962 C3950 0.956 . S
H3963 C3950 0.961 . S
H3964 C3950 0.961 . S
H3965 C3951 0.958 1_455 S
H3966 C3951 0.961 . S
H3967 C3951 0.960 . S
C3968 C3969 1.391 . S
C3968 C3970 1.394 . S
C3968 H3984 0.931 . S
C3969 C3968 1.391 . S
C3969 C3973 1.376 . S
C3970 C3968 1.394 . S
C3970 C3971 1.369 . S
C3970 C3974 1.531 . S
C3971 C3970 1.369 . S
C3971 C3972 1.410 . S
C3971 C3979 1.503 . S
C3972 C3971 1.410 . S
C3972 C3973 1.392 . S
C3972 C3975 1.511 . S
C3973 C3969 1.376 . S
C3973 C3972 1.392 . S
C3973 H3985 0.929 . S
C3974 C3970 1.531 . S
C3974 H3986 0.960 . S
C3974 H3987 0.962 . S
C3974 H3988 0.960 . S
C3975 C3972 1.511 . S
C3975 H3989 0.961 . S
C3975 H3990 0.961 . S
C3975 H3991 0.961 . S
C3976 C3977 1.370 . S
C3976 C3978 1.363 . S
C3976 H3992 0.931 . S
C3977 C3976 1.370 . S
C3977 C3981 1.408 . S
C3978 C3976 1.363 . S
C3978 C3979 1.370 . S
C3978 C3982 1.524 . S
C3979 C3971 1.503 . S
C3979 C3978 1.370 . S
C3979 C3980 1.403 . S
C3980 C3979 1.403 . S
C3980 C3981 1.404 . S
C3980 C3983 1.539 . S
C3981 C3977 1.408 . S
C3981 C3980 1.404 . S
C3981 H3993 0.930 . S
C3982 C3978 1.524 . S
C3982 H3994 0.956 . S
C3982 H3995 0.961 . S
C3982 H3996 0.961 . S
C3983 C3980 1.539 . S
C3983 H3997 0.958 . S
C3983 H3998 0.961 . S
C3983 H3999 0.960 . S
H3984 C3968 0.931 . S
H3985 C3973 0.929 . S
H3986 C3974 0.960 . S
H3987 C3974 0.962 . S
H3988 C3974 0.960 . S
H3989 C3975 0.961 . S
H3990 C3975 0.961 . S
H3991 C3975 0.961 . S
H3992 C3976 0.931 . S
H3993 C3981 0.930 . S
H3994 C3982 0.956 . S
H3995 C3982 0.961 . S
H3996 C3982 0.961 . S
H3997 C3983 0.958 . S
H3998 C3983 0.961 . S
H3999 C3983 0.960 . S
C4000 C4001 1.391 . S
C4000 C4002 1.394 . S
C4000 H4016 0.931 . S
C4001 C4000 1.391 . S
C4001 C4005 1.376 . S
C4002 C4000 1.394 . S
C4002 C4003 1.369 . S
C4002 C4006 1.531 . S
C4003 C4002 1.369 . S
C4003 C4004 1.379 1_565 S
C4003 C4011 1.503 . S
C4004 C4003 1.379 1_545 S
C4004 C4005 1.411 1_545 S
C4004 C4007 1.527 . S
C4005 C4001 1.376 . S
C4005 C4004 1.411 1_565 S
C4005 H4017 0.929 1_565 S
C4006 C4002 1.531 . S
C4006 H4018 0.960 . S
C4006 H4019 0.962 . S
C4006 H4020 0.960 . S
C4007 C4004 1.527 . S
C4007 H4021 0.961 . S
C4007 H4022 0.961 . S
C4007 H4023 0.961 . S
C4008 C4009 1.370 . S
C4008 C4010 1.363 . S
C4008 H4024 0.931 . S
C4009 C4008 1.370 . S
C4009 C4013 1.408 1_565 S
C4010 C4008 1.363 . S
C4010 C4011 1.370 . S
C4010 C4014 1.524 . S
C4011 C4003 1.503 . S
C4011 C4010 1.370 . S
C4011 C4012 1.403 1_565 S
C4012 C4011 1.403 1_545 S
C4012 C4013 1.404 . S
C4012 C4015 1.539 . S
C4013 C4009 1.408 1_545 S
C4013 C4012 1.404 . S
C4013 H4025 0.930 . S
C4014 C4010 1.524 . S
C4014 H4026 0.956 . S
C4014 H4027 0.961 . S
C4014 H4028 0.961 . S
C4015 C4012 1.539 . S
C4015 H4029 0.958 . S
C4015 H4030 0.961 . S
C4015 H4031 0.960 . S
H4016 C4000 0.931 . S
H4017 C4005 0.929 1_545 S
H4018 C4006 0.960 . S
H4019 C4006 0.962 . S
H4020 C4006 0.960 . S
H4021 C4007 0.961 . S
H4022 C4007 0.961 . S
H4023 C4007 0.961 . S
H4024 C4008 0.931 . S
H4025 C4013 0.930 . S
H4026 C4014 0.956 . S
H4027 C4014 0.961 . S
H4028 C4014 0.961 . S
H4029 C4015 0.958 . S
H4030 C4015 0.961 . S
H4031 C4015 0.960 . S
C4032 C4033 1.391 . S
C4032 C4034 1.394 . S
C4032 H4048 0.931 . S
C4033 C4032 1.391 . S
C4033 C4037 1.376 . S
C4034 C4032 1.394 . S
C4034 C4035 1.369 . S
C4034 C4038 1.531 1_565 S
C4035 C4034 1.369 . S
C4035 C4036 1.410 . S
C4035 C4043 1.503 . S
C4036 C4035 1.410 . S
C4036 C4037 1.392 . S
C4036 C4039 1.511 . S
C4037 C4033 1.376 . S
C4037 C4036 1.392 . S
C4037 H4049 0.929 . S
C4038 C4034 1.531 1_545 S
C4038 H4050 0.960 . S
C4038 H4051 0.956 1_545 S
C4038 H4052 0.960 . S
C4039 C4036 1.511 . S
C4039 H4053 0.961 . S
C4039 H4054 0.961 . S
C4039 H4055 0.961 . S
C4040 C4041 1.370 . S
C4040 C4042 1.363 . S
C4040 H4056 0.931 . S
C4041 C4040 1.370 . S
C4041 C4045 1.408 1_565 S
C4042 C4040 1.363 . S
C4042 C4043 1.370 . S
C4042 C4046 1.524 . S
C4043 C4035 1.503 . S
C4043 C4042 1.370 . S
C4043 C4044 1.403 1_565 S
C4044 C4043 1.403 1_545 S
C4044 C4045 1.404 . S
C4044 C4047 1.539 . S
C4045 C4041 1.408 1_545 S
C4045 C4044 1.404 . S
C4045 H4057 0.930 . S
C4046 C4042 1.524 . S
C4046 H4058 0.956 . S
C4046 H4059 0.961 . S
C4046 H4060 0.961 . S
C4047 C4044 1.539 . S
C4047 H4061 0.958 . S
C4047 H4062 0.961 . S
C4047 H4063 0.960 . S
H4048 C4032 0.931 . S
H4049 C4037 0.929 . S
H4050 C4038 0.960 . S
H4051 C4038 0.956 1_565 S
H4052 C4038 0.960 . S
H4053 C4039 0.961 . S
H4054 C4039 0.961 . S
H4055 C4039 0.961 . S
H4056 C4040 0.931 . S
H4057 C4045 0.930 . S
H4058 C4046 0.956 . S
H4059 C4046 0.961 . S
H4060 C4046 0.961 . S
H4061 C4047 0.958 . S
H4062 C4047 0.961 . S
H4063 C4047 0.960 . S
C4064 C4065 1.391 . S
C4064 C4066 1.394 . S
C4064 H4080 0.931 . S
C4065 C4064 1.391 . S
C4065 C4069 1.376 . S
C4066 C4064 1.394 . S
C4066 C4067 1.369 . S
C4066 C4070 1.531 . S
C4067 C4066 1.369 . S
C4067 C4068 1.422 . S
C4067 C4075 1.503 . S
C4068 C4067 1.422 . S
C4068 C4069 1.389 . S
C4068 C4071 1.502 1_455 S
C4069 C4065 1.376 . S
C4069 C4068 1.389 . S
C4069 H4081 0.949 . S
C4070 C4066 1.531 . S
C4070 H4082 0.960 . S
C4070 H4083 0.962 . S
C4070 H4084 0.960 . S
C4071 C4068 1.502 1_655 S
C4071 H4085 0.961 . S
C4071 H4086 0.961 . S
C4071 H4087 0.961 . S
C4072 C4073 1.361 1_455 S
C4072 C4074 1.363 . S
C4072 H4088 0.931 . S
C4073 C4072 1.361 1_655 S
C4073 C4077 1.426 . S
C4074 C4072 1.363 . S
C4074 C4075 1.370 . S
C4074 C4078 1.524 . S
C4075 C4067 1.503 . S
C4075 C4074 1.370 . S
C4075 C4076 1.403 1_455 S
C4076 C4075 1.403 1_655 S
C4076 C4077 1.404 . S
C4076 C4079 1.539 . S
C4077 C4073 1.426 . S
C4077 C4076 1.404 . S
C4077 H4089 0.930 . S
C4078 C4074 1.524 . S
C4078 H4090 0.956 . S
C4078 H4091 0.961 . S
C4078 H4092 0.961 . S
C4079 C4076 1.539 . S
C4079 H4093 0.958 . S
C4079 H4094 0.961 . S
C4079 H4095 0.960 . S
H4080 C4064 0.931 . S
H4081 C4069 0.949 . S
H4082 C4070 0.960 . S
H4083 C4070 0.962 . S
H4084 C4070 0.960 . S
H4085 C4071 0.961 . S
H4086 C4071 0.961 . S
H4087 C4071 0.961 . S
H4088 C4072 0.931 . S
H4089 C4077 0.930 . S
H4090 C4078 0.956 . S
H4091 C4078 0.961 . S
H4092 C4078 0.961 . S
H4093 C4079 0.958 . S
H4094 C4079 0.961 . S
H4095 C4079 0.960 . S
C4096 C4097 1.391 . S
C4096 C4098 1.394 . S
C4096 H4112 0.931 . S
C4097 C4096 1.391 . S
C4097 C4101 1.376 . S
C4098 C4096 1.394 . S
C4098 C4099 1.369 . S
C4098 C4102 1.531 . S
C4099 C4098 1.369 . S
C4099 C4100 1.410 . S
C4099 C4107 1.503 . S
C4100 C4099 1.410 . S
C4100 C4101 1.392 . S
C4100 C4103 1.511 . S
C4101 C4097 1.376 . S
C4101 C4100 1.392 . S
C4101 H4113 0.929 . S
C4102 C4098 1.531 . S
C4102 H4114 0.960 . S
C4102 H4115 0.962 . S
C4102 H4116 0.960 . S
C4103 C4100 1.511 . S
C4103 H4117 0.961 . S
C4103 H4118 0.961 . S
C4103 H4119 0.961 . S
C4104 C4105 1.370 . S
C4104 C4106 1.363 . S
C4104 H4120 0.931 . S
C4105 C4104 1.370 . S
C4105 C4109 1.408 . S
C4106 C4104 1.363 . S
C4106 C4107 1.370 . S
C4106 C4110 1.524 . S
C4107 C4099 1.503 . S
C4107 C4106 1.370 . S
C4107 C4108 1.403 . S
C4108 C4107 1.403 . S
C4108 C4109 1.404 . S
C4108 C4111 1.539 . S
C4109 C4105 1.408 . S
C4109 C4108 1.404 . S
C4109 H4121 0.930 . S
C4110 C4106 1.524 . S
C4110 H4122 0.956 . S
C4110 H4123 0.961 . S
C4110 H4124 0.961 . S
C4111 C4108 1.539 . S
C4111 H4125 0.958 . S
C4111 H4126 0.961 . S
C4111 H4127 0.960 . S
H4112 C4096 0.931 . S
H4113 C4101 0.929 . S
H4114 C4102 0.960 . S
H4115 C4102 0.962 . S
H4116 C4102 0.960 . S
H4117 C4103 0.961 . S
H4118 C4103 0.961 . S
H4119 C4103 0.961 . S
H4120 C4104 0.931 . S
H4121 C4109 0.930 . S
H4122 C4110 0.956 . S
H4123 C4110 0.961 . S
H4124 C4110 0.961 . S
H4125 C4111 0.958 . S
H4126 C4111 0.961 . S
H4127 C4111 0.960 . S
C4128 C4129 1.391 . S
C4128 C4130 1.394 . S
C4128 H4144 0.931 . S
C4129 C4128 1.391 . S
C4129 C4133 1.376 . S
C4130 C4128 1.394 . S
C4130 C4131 1.369 . S
C4130 C4134 1.531 . S
C4131 C4130 1.369 . S
C4131 C4132 1.410 . S
C4131 C4139 1.503 . S
C4132 C4131 1.410 . S
C4132 C4133 1.392 . S
C4132 C4135 1.511 . S
C4133 C4129 1.376 . S
C4133 C4132 1.392 . S
C4133 H4145 0.929 . S
C4134 C4130 1.531 . S
C4134 H4146 0.960 . S
C4134 H4147 0.962 . S
C4134 H4148 0.960 . S
C4135 C4132 1.511 . S
C4135 H4149 0.961 . S
C4135 H4150 0.961 . S
C4135 H4151 0.961 . S
C4136 C4137 1.370 . S
C4136 C4138 1.363 . S
C4136 H4152 0.931 . S
C4137 C4136 1.370 . S
C4137 C4141 1.408 . S
C4138 C4136 1.363 . S
C4138 C4139 1.370 . S
C4138 C4142 1.524 . S
C4139 C4131 1.503 . S
C4139 C4138 1.370 . S
C4139 C4140 1.403 . S
C4140 C4139 1.403 . S
C4140 C4141 1.404 . S
C4140 C4143 1.539 . S
C4141 C4137 1.408 . S
C4141 C4140 1.404 . S
C4141 H4153 0.930 . S
C4142 C4138 1.524 . S
C4142 H4154 0.956 . S
C4142 H4155 0.961 . S
C4142 H4156 0.961 . S
C4143 C4140 1.539 . S
C4143 H4157 0.958 . S
C4143 H4158 0.961 . S
C4143 H4159 0.960 . S
H4144 C4128 0.931 . S
H4145 C4133 0.929 . S
H4146 C4134 0.960 . S
H4147 C4134 0.962 . S
H4148 C4134 0.960 . S
H4149 C4135 0.961 . S
H4150 C4135 0.961 . S
H4151 C4135 0.961 . S
H4152 C4136 0.931 . S
H4153 C4141 0.930 . S
H4154 C4142 0.956 . S
H4155 C4142 0.961 . S
H4156 C4142 0.961 . S
H4157 C4143 0.958 . S
H4158 C4143 0.961 . S
H4159 C4143 0.960 . S
C4160 C4161 1.391 . S
C4160 C4162 1.394 . S
C4160 H4176 0.931 . S
C4161 C4160 1.391 . S
C4161 C4165 1.376 . S
C4162 C4160 1.394 . S
C4162 C4163 1.369 . S
C4162 C4166 1.531 . S
C4163 C4162 1.369 . S
C4163 C4164 1.410 . S
C4163 C4171 1.503 . S
C4164 C4163 1.410 . S
C4164 C4165 1.392 . S
C4164 C4167 1.511 . S
C4165 C4161 1.376 . S
C4165 C4164 1.392 . S
C4165 H4177 0.929 . S
C4166 C4162 1.531 . S
C4166 H4178 0.960 . S
C4166 H4179 0.962 . S
C4166 H4180 0.960 . S
C4167 C4164 1.511 . S
C4167 H4181 0.961 . S
C4167 H4182 0.961 . S
C4167 H4183 0.961 . S
C4168 C4169 1.370 . S
C4168 C4170 1.363 . S
C4168 H4184 0.931 . S
C4169 C4168 1.370 . S
C4169 C4173 1.408 . S
C4170 C4168 1.363 . S
C4170 C4171 1.370 . S
C4170 C4174 1.524 . S
C4171 C4163 1.503 . S
C4171 C4170 1.370 . S
C4171 C4172 1.403 . S
C4172 C4171 1.403 . S
C4172 C4173 1.404 . S
C4172 C4175 1.539 . S
C4173 C4169 1.408 . S
C4173 C4172 1.404 . S
C4173 H4185 0.930 . S
C4174 C4170 1.524 . S
C4174 H4186 0.956 . S
C4174 H4187 0.961 . S
C4174 H4188 0.961 . S
C4175 C4172 1.539 . S
C4175 H4189 0.958 . S
C4175 H4190 0.961 . S
C4175 H4191 0.960 . S
H4176 C4160 0.931 . S
H4177 C4165 0.929 . S
H4178 C4166 0.960 . S
H4179 C4166 0.962 . S
H4180 C4166 0.960 . S
H4181 C4167 0.961 . S
H4182 C4167 0.961 . S
H4183 C4167 0.961 . S
H4184 C4168 0.931 . S
H4185 C4173 0.930 . S
H4186 C4174 0.956 . S
H4187 C4174 0.961 . S
H4188 C4174 0.961 . S
H4189 C4175 0.958 . S
H4190 C4175 0.961 . S
H4191 C4175 0.960 . S
C4192 C4193 1.391 . S
C4192 C4194 1.394 . S
C4192 H4208 0.931 . S
C4193 C4192 1.391 . S
C4193 C4197 1.376 . S
C4194 C4192 1.394 . S
C4194 C4195 1.369 . S
C4194 C4198 1.531 . S
C4195 C4194 1.369 . S
C4195 C4196 1.410 . S
C4195 C4203 1.503 . S
C4196 C4195 1.410 . S
C4196 C4197 1.392 . S
C4196 C4199 1.511 . S
C4197 C4193 1.376 . S
C4197 C4196 1.392 . S
C4197 H4209 0.929 . S
C4198 C4194 1.531 . S
C4198 H4210 0.960 . S
C4198 H4211 0.962 . S
C4198 H4212 0.960 . S
C4199 C4196 1.511 . S
C4199 H4213 0.961 . S
C4199 H4214 0.961 . S
C4199 H4215 0.961 . S
C4200 C4201 1.370 . S
C4200 C4202 1.363 . S
C4200 H4216 0.931 . S
C4201 C4200 1.370 . S
C4201 C4205 1.408 . S
C4202 C4200 1.363 . S
C4202 C4203 1.370 . S
C4202 C4206 1.524 . S
C4203 C4195 1.503 . S
C4203 C4202 1.370 . S
C4203 C4204 1.403 . S
C4204 C4203 1.403 . S
C4204 C4205 1.404 . S
C4204 C4207 1.539 . S
C4205 C4201 1.408 . S
C4205 C4204 1.404 . S
C4205 H4217 0.930 . S
C4206 C4202 1.524 . S
C4206 H4218 0.956 . S
C4206 H4219 0.961 . S
C4206 H4220 0.961 . S
C4207 C4204 1.539 . S
C4207 H4221 0.958 . S
C4207 H4222 0.961 . S
C4207 H4223 0.960 . S
H4208 C4192 0.931 . S
H4209 C4197 0.929 . S
H4210 C4198 0.960 . S
H4211 C4198 0.962 . S
H4212 C4198 0.960 . S
H4213 C4199 0.961 . S
H4214 C4199 0.961 . S
H4215 C4199 0.961 . S
H4216 C4200 0.931 . S
H4217 C4205 0.930 . S
H4218 C4206 0.956 . S
H4219 C4206 0.961 . S
H4220 C4206 0.961 . S
H4221 C4207 0.958 . S
H4222 C4207 0.961 . S
H4223 C4207 0.960 . S
C4224 C4225 1.391 . S
C4224 C4226 1.394 . S
C4224 H4240 0.931 . S
C4225 C4224 1.391 . S
C4225 C4229 1.376 . S
C4226 C4224 1.394 . S
C4226 C4227 1.369 . S
C4226 C4230 1.531 . S
C4227 C4226 1.369 . S
C4227 C4228 1.410 . S
C4227 C4235 1.503 . S
C4228 C4227 1.410 . S
C4228 C4229 1.392 . S
C4228 C4231 1.511 . S
C4229 C4225 1.376 . S
C4229 C4228 1.392 . S
C4229 H4241 0.929 . S
C4230 C4226 1.531 . S
C4230 H4242 0.960 . S
C4230 H4243 0.962 . S
C4230 H4244 0.960 . S
C4231 C4228 1.511 . S
C4231 H4245 0.961 . S
C4231 H4246 0.961 . S
C4231 H4247 0.961 . S
C4232 C4233 1.370 1_565 S
C4232 C4234 1.363 . S
C4232 H4248 0.931 . S
C4233 C4232 1.370 1_545 S
C4233 C4237 1.408 . S
C4234 C4232 1.363 . S
C4234 C4235 1.370 1_565 S
C4234 C4238 1.524 . S
C4235 C4227 1.503 . S
C4235 C4234 1.370 1_545 S
C4235 C4236 1.403 . S
C4236 C4235 1.403 . S
C4236 C4237 1.404 . S
C4236 C4239 1.539 . S
C4237 C4233 1.408 . S
C4237 C4236 1.404 . S
C4237 H4249 0.930 . S
C4238 C4234 1.524 . S
C4238 H4250 0.956 . S
C4238 H4251 0.961 . S
C4238 H4252 0.961 . S
C4239 C4236 1.539 . S
C4239 H4253 0.958 . S
C4239 H4254 0.961 . S
C4239 H4255 0.960 . S
H4240 C4224 0.931 . S
H4241 C4229 0.929 . S
H4242 C4230 0.960 . S
H4243 C4230 0.962 . S
H4244 C4230 0.960 . S
H4245 C4231 0.961 . S
H4246 C4231 0.961 . S
H4247 C4231 0.961 . S
H4248 C4232 0.931 . S
H4249 C4237 0.930 . S
H4250 C4238 0.956 . S
H4251 C4238 0.961 . S
H4252 C4238 0.961 . S
H4253 C4239 0.958 . S
H4254 C4239 0.961 . S
H4255 C4239 0.960 . S
C4256 C4257 1.391 . S
C4256 C4258 1.394 . S
C4256 H4272 0.931 . S
C4257 C4256 1.391 . S
C4257 C4261 1.376 1_655 S
C4258 C4256 1.394 . S
C4258 C4259 1.369 . S
C4258 C4262 1.531 . S
C4259 C4258 1.369 . S
C4259 C4260 1.410 1_655 S
C4259 C4267 1.503 . S
C4260 C4259 1.410 1_455 S
C4260 C4261 1.392 . S
C4260 C4263 1.511 . S
C4261 C4257 1.376 1_455 S
C4261 C4260 1.392 . S
C4261 H4273 0.929 . S
C4262 C4258 1.531 . S
C4262 H4274 0.960 . S
C4262 H4275 0.962 . S
C4262 H4276 0.960 . S
C4263 C4260 1.511 . S
C4263 H4277 0.961 . S
C4263 H4278 0.961 . S
C4263 H4279 0.961 . S
C4264 C4265 1.370 . S
C4264 C4266 1.363 . S
C4264 H4280 0.931 . S
C4265 C4264 1.370 . S
C4265 C4269 1.408 1_655 S
C4266 C4264 1.363 . S
C4266 C4267 1.370 . S
C4266 C4270 1.524 . S
C4267 C4259 1.503 . S
C4267 C4266 1.370 . S
C4267 C4268 1.403 1_655 S
C4268 C4267 1.403 1_455 S
C4268 C4269 1.404 . S
C4268 C4271 1.539 . S
C4269 C4265 1.408 1_455 S
C4269 C4268 1.404 . S
C4269 H4281 0.930 . S
C4270 C4266 1.524 . S
C4270 H4282 0.956 . S
C4270 H4283 0.961 . S
C4270 H4284 0.961 . S
C4271 C4268 1.539 . S
C4271 H4285 0.958 . S
C4271 H4286 0.961 . S
C4271 H4287 0.960 . S
H4272 C4256 0.931 . S
H4273 C4261 0.929 . S
H4274 C4262 0.960 . S
H4275 C4262 0.962 . S
H4276 C4262 0.960 . S
H4277 C4263 0.961 . S
H4278 C4263 0.961 . S
H4279 C4263 0.961 . S
H4280 C4264 0.931 . S
H4281 C4269 0.930 . S
H4282 C4270 0.956 . S
H4283 C4270 0.961 . S
H4284 C4270 0.961 . S
H4285 C4271 0.958 . S
H4286 C4271 0.961 . S
H4287 C4271 0.960 . S
C4288 C4289 1.391 . S
C4288 C4290 1.394 . S
C4288 H4304 0.931 . S
C4289 C4288 1.391 . S
C4289 C4293 1.376 . S
C4290 C4288 1.394 . S
C4290 C4291 1.369 . S
C4290 C4294 1.531 . S
C4291 C4290 1.369 . S
C4291 C4292 1.410 . S
C4291 C4299 1.503 . S
C4292 C4291 1.410 . S
C4292 C4293 1.392 . S
C4292 C4295 1.511 . S
C4293 C4289 1.376 . S
C4293 C4292 1.392 . S
C4293 H4305 0.929 . S
C4294 C4290 1.531 . S
C4294 H4306 0.960 . S
C4294 H4307 0.962 . S
C4294 H4308 0.960 . S
C4295 C4292 1.511 . S
C4295 H4309 0.961 . S
C4295 H4310 0.961 . S
C4295 H4311 0.961 . S
C4296 C4297 1.370 . S
C4296 C4298 1.363 . S
C4296 H4312 0.931 . S
C4297 C4296 1.370 . S
C4297 C4301 1.408 . S
C4298 C4296 1.363 . S
C4298 C4299 1.370 . S
C4298 C4302 1.524 . S
C4299 C4291 1.503 . S
C4299 C4298 1.370 . S
C4299 C4300 1.403 . S
C4300 C4299 1.403 . S
C4300 C4301 1.404 . S
C4300 C4303 1.539 . S
C4301 C4297 1.408 . S
C4301 C4300 1.404 . S
C4301 H4313 0.930 . S
C4302 C4298 1.524 . S
C4302 H4314 0.956 . S
C4302 H4315 0.961 . S
C4302 H4316 0.961 . S
C4303 C4300 1.539 . S
C4303 H4317 0.958 . S
C4303 H4318 0.961 . S
C4303 H4319 0.960 . S
H4304 C4288 0.931 . S
H4305 C4293 0.929 . S
H4306 C4294 0.960 . S
H4307 C4294 0.962 . S
H4308 C4294 0.960 . S
H4309 C4295 0.961 . S
H4310 C4295 0.961 . S
H4311 C4295 0.961 . S
H4312 C4296 0.931 . S
H4313 C4301 0.930 . S
H4314 C4302 0.956 . S
H4315 C4302 0.961 . S
H4316 C4302 0.961 . S
H4317 C4303 0.958 . S
H4318 C4303 0.961 . S
H4319 C4303 0.960 . S
C4320 C4321 1.391 . S
C4320 C4322 1.394 . S
C4320 H4336 0.931 . S
C4321 C4320 1.391 . S
C4321 C4325 1.376 . S
C4322 C4320 1.394 . S
C4322 C4323 1.369 . S
C4322 C4326 1.531 . S
C4323 C4322 1.369 . S
C4323 C4324 1.410 . S
C4323 C4331 1.503 . S
C4324 C4323 1.410 . S
C4324 C4325 1.392 . S
C4324 C4327 1.511 . S
C4325 C4321 1.376 . S
C4325 C4324 1.392 . S
C4325 H4337 0.929 . S
C4326 C4322 1.531 . S
C4326 H4338 0.960 . S
C4326 H4339 0.962 . S
C4326 H4340 0.960 . S
C4327 C4324 1.511 . S
C4327 H4341 0.961 . S
C4327 H4342 0.961 . S
C4327 H4343 0.961 . S
C4328 C4329 1.370 . S
C4328 C4330 1.363 . S
C4328 H4344 0.931 . S
C4329 C4328 1.370 . S
C4329 C4333 1.408 . S
C4330 C4328 1.363 . S
C4330 C4331 1.370 . S
C4330 C4334 1.524 . S
C4331 C4323 1.503 . S
C4331 C4330 1.370 . S
C4331 C4332 1.403 . S
C4332 C4331 1.403 . S
C4332 C4333 1.404 . S
C4332 C4335 1.539 . S
C4333 C4329 1.408 . S
C4333 C4332 1.404 . S
C4333 H4345 0.930 . S
C4334 C4330 1.524 . S
C4334 H4346 0.956 . S
C4334 H4347 0.961 . S
C4334 H4348 0.961 . S
C4335 C4332 1.539 . S
C4335 H4349 0.958 . S
C4335 H4350 0.961 . S
C4335 H4351 0.960 . S
H4336 C4320 0.931 . S
H4337 C4325 0.929 . S
H4338 C4326 0.960 . S
H4339 C4326 0.962 . S
H4340 C4326 0.960 . S
H4341 C4327 0.961 . S
H4342 C4327 0.961 . S
H4343 C4327 0.961 . S
H4344 C4328 0.931 . S
H4345 C4333 0.930 . S
H4346 C4334 0.956 . S
H4347 C4334 0.961 . S
H4348 C4334 0.961 . S
H4349 C4335 0.958 . S
H4350 C4335 0.961 . S
H4351 C4335 0.960 . S
C4352 C4353 1.391 . S
C4352 C4354 1.394 . S
C4352 H4368 0.931 . S
C4353 C4352 1.391 . S
C4353 C4357 1.376 . S
C4354 C4352 1.394 . S
C4354 C4355 1.369 . S
C4354 C4358 1.531 . S
C4355 C4354 1.369 . S
C4355 C4356 1.410 . S
C4355 C4363 1.503 . S
C4356 C4355 1.410 . S
C4356 C4357 1.392 . S
C4356 C4359 1.511 . S
C4357 C4353 1.376 . S
C4357 C4356 1.392 . S
C4357 H4369 0.929 . S
C4358 C4354 1.531 . S
C4358 H4370 0.960 . S
C4358 H4371 0.962 . S
C4358 H4372 0.960 . S
C4359 C4356 1.511 . S
C4359 H4373 0.961 . S
C4359 H4374 0.961 . S
C4359 H4375 0.961 . S
C4360 C4361 1.370 . S
C4360 C4362 1.363 . S
C4360 H4376 0.931 . S
C4361 C4360 1.370 . S
C4361 C4365 1.408 . S
C4362 C4360 1.363 . S
C4362 C4363 1.370 . S
C4362 C4366 1.524 . S
C4363 C4355 1.503 . S
C4363 C4362 1.370 . S
C4363 C4364 1.403 . S
C4364 C4363 1.403 . S
C4364 C4365 1.404 . S
C4364 C4367 1.539 . S
C4365 C4361 1.408 . S
C4365 C4364 1.404 . S
C4365 H4377 0.930 . S
C4366 C4362 1.524 . S
C4366 H4378 0.956 . S
C4366 H4379 0.961 . S
C4366 H4380 0.961 . S
C4367 C4364 1.539 . S
C4367 H4381 0.958 . S
C4367 H4382 0.961 . S
C4367 H4383 0.960 . S
H4368 C4352 0.931 . S
H4369 C4357 0.929 . S
H4370 C4358 0.960 . S
H4371 C4358 0.962 . S
H4372 C4358 0.960 . S
H4373 C4359 0.961 . S
H4374 C4359 0.961 . S
H4375 C4359 0.961 . S
H4376 C4360 0.931 . S
H4377 C4365 0.930 . S
H4378 C4366 0.956 . S
H4379 C4366 0.961 . S
H4380 C4366 0.961 . S
H4381 C4367 0.958 . S
H4382 C4367 0.961 . S
H4383 C4367 0.960 . S
C4384 C4385 1.391 . S
C4384 C4386 1.394 . S
C4384 H4400 0.931 . S
C4385 C4384 1.391 . S
C4385 C4389 1.376 . S
C4386 C4384 1.394 . S
C4386 C4387 1.369 . S
C4386 C4390 1.531 . S
C4387 C4386 1.369 . S
C4387 C4388 1.410 . S
C4387 C4395 1.503 . S
C4388 C4387 1.410 . S
C4388 C4389 1.392 . S
C4388 C4391 1.511 . S
C4389 C4385 1.376 . S
C4389 C4388 1.392 . S
C4389 H4401 0.929 . S
C4390 C4386 1.531 . S
C4390 H4402 0.960 . S
C4390 H4403 0.962 . S
C4390 H4404 0.960 . S
C4391 C4388 1.511 . S
C4391 H4405 0.961 . S
C4391 H4406 0.961 . S
C4391 H4407 0.961 . S
C4392 C4393 1.370 . S
C4392 C4394 1.363 . S
C4392 H4408 0.931 . S
C4393 C4392 1.370 . S
C4393 C4397 1.408 . S
C4394 C4392 1.363 . S
C4394 C4395 1.370 . S
C4394 C4398 1.524 . S
C4395 C4387 1.503 . S
C4395 C4394 1.370 . S
C4395 C4396 1.403 . S
C4396 C4395 1.403 . S
C4396 C4397 1.404 . S
C4396 C4399 1.539 . S
C4397 C4393 1.408 . S
C4397 C4396 1.404 . S
C4397 H4409 0.930 . S
C4398 C4394 1.524 . S
C4398 H4410 0.956 . S
C4398 H4411 0.961 . S
C4398 H4412 0.961 . S
C4399 C4396 1.539 . S
C4399 H4413 0.958 . S
C4399 H4414 0.961 . S
C4399 H4415 0.960 . S
H4400 C4384 0.931 . S
H4401 C4389 0.929 . S
H4402 C4390 0.960 . S
H4403 C4390 0.962 . S
H4404 C4390 0.960 . S
H4405 C4391 0.961 . S
H4406 C4391 0.961 . S
H4407 C4391 0.961 . S
H4408 C4392 0.931 . S
H4409 C4397 0.930 . S
H4410 C4398 0.956 . S
H4411 C4398 0.961 . S
H4412 C4398 0.961 . S
H4413 C4399 0.958 . S
H4414 C4399 0.961 . S
H4415 C4399 0.960 . S
C4416 C4417 1.391 . S
C4416 C4418 1.394 . S
C4416 H4432 0.931 . S
C4417 C4416 1.391 . S
C4417 C4421 1.376 . S
C4418 C4416 1.394 . S
C4418 C4419 1.369 . S
C4418 C4422 1.531 . S
C4419 C4418 1.369 . S
C4419 C4420 1.410 . S
C4419 C4427 1.503 . S
C4420 C4419 1.410 . S
C4420 C4421 1.392 . S
C4420 C4423 1.511 . S
C4421 C4417 1.376 . S
C4421 C4420 1.392 . S
C4421 H4433 0.929 . S
C4422 C4418 1.531 . S
C4422 H4434 0.960 . S
C4422 H4435 0.962 . S
C4422 H4436 0.960 . S
C4423 C4420 1.511 . S
C4423 H4437 0.961 . S
C4423 H4438 0.961 . S
C4423 H4439 0.961 . S
C4424 C4425 1.370 . S
C4424 C4426 1.363 . S
C4424 H4440 0.931 . S
C4425 C4424 1.370 . S
C4425 C4429 1.408 . S
C4426 C4424 1.363 . S
C4426 C4427 1.370 . S
C4426 C4430 1.524 . S
C4427 C4419 1.503 . S
C4427 C4426 1.370 . S
C4427 C4428 1.403 . S
C4428 C4427 1.403 . S
C4428 C4429 1.404 . S
C4428 C4431 1.539 . S
C4429 C4425 1.408 . S
C4429 C4428 1.404 . S
C4429 H4441 0.930 . S
C4430 C4426 1.524 . S
C4430 H4442 0.956 . S
C4430 H4443 0.961 . S
C4430 H4444 0.961 . S
C4431 C4428 1.539 . S
C4431 H4445 0.958 . S
C4431 H4446 0.961 . S
C4431 H4447 0.960 . S
H4432 C4416 0.931 . S
H4433 C4421 0.929 . S
H4434 C4422 0.960 . S
H4435 C4422 0.962 . S
H4436 C4422 0.960 . S
H4437 C4423 0.961 . S
H4438 C4423 0.961 . S
H4439 C4423 0.961 . S
H4440 C4424 0.931 . S
H4441 C4429 0.930 . S
H4442 C4430 0.956 . S
H4443 C4430 0.961 . S
H4444 C4430 0.961 . S
H4445 C4431 0.958 . S
H4446 C4431 0.961 . S
H4447 C4431 0.960 . S
C4448 C4449 1.391 . S
C4448 C4450 1.394 . S
C4448 H4464 0.931 . S
C4449 C4448 1.391 . S
C4449 C4453 1.376 . S
C4450 C4448 1.394 . S
C4450 C4451 1.369 . S
C4450 C4454 1.531 . S
C4451 C4450 1.369 . S
C4451 C4452 1.410 . S
C4451 C4459 1.503 . S
C4452 C4451 1.410 . S
C4452 C4453 1.392 . S
C4452 C4455 1.511 . S
C4453 C4449 1.376 . S
C4453 C4452 1.392 . S
C4453 H4465 0.929 . S
C4454 C4450 1.531 . S
C4454 H4466 0.960 . S
C4454 H4467 0.962 . S
C4454 H4468 0.960 . S
C4455 C4452 1.511 . S
C4455 H4469 0.961 . S
C4455 H4470 0.961 . S
C4455 H4471 0.961 . S
C4456 C4457 1.370 . S
C4456 C4458 1.363 . S
C4456 H4472 0.931 . S
C4457 C4456 1.370 . S
C4457 C4461 1.408 . S
C4458 C4456 1.363 . S
C4458 C4459 1.370 . S
C4458 C4462 1.524 . S
C4459 C4451 1.503 . S
C4459 C4458 1.370 . S
C4459 C4460 1.403 . S
C4460 C4459 1.403 . S
C4460 C4461 1.404 . S
C4460 C4463 1.539 . S
C4461 C4457 1.408 . S
C4461 C4460 1.404 . S
C4461 H4473 0.930 . S
C4462 C4458 1.524 . S
C4462 H4474 0.956 . S
C4462 H4475 0.961 . S
C4462 H4476 0.961 . S
C4463 C4460 1.539 . S
C4463 H4477 0.958 . S
C4463 H4478 0.961 . S
C4463 H4479 0.960 . S
H4464 C4448 0.931 . S
H4465 C4453 0.929 . S
H4466 C4454 0.960 . S
H4467 C4454 0.962 . S
H4468 C4454 0.960 . S
H4469 C4455 0.961 . S
H4470 C4455 0.961 . S
H4471 C4455 0.961 . S
H4472 C4456 0.931 . S
H4473 C4461 0.930 . S
H4474 C4462 0.956 . S
H4475 C4462 0.961 . S
H4476 C4462 0.961 . S
H4477 C4463 0.958 . S
H4478 C4463 0.961 . S
H4479 C4463 0.960 . S
C4480 C4481 1.391 . S
C4480 C4482 1.394 . S
C4480 H4496 0.931 . S
C4481 C4480 1.391 . S
C4481 C4485 1.376 . S
C4482 C4480 1.394 . S
C4482 C4483 1.369 . S
C4482 C4486 1.531 . S
C4483 C4482 1.369 . S
C4483 C4484 1.410 . S
C4483 C4491 1.503 . S
C4484 C4483 1.410 . S
C4484 C4485 1.392 . S
C4484 C4487 1.511 . S
C4485 C4481 1.376 . S
C4485 C4484 1.392 . S
C4485 H4497 0.929 . S
C4486 C4482 1.531 . S
C4486 H4498 0.960 . S
C4486 H4499 0.962 . S
C4486 H4500 0.960 . S
C4487 C4484 1.511 . S
C4487 H4501 0.961 . S
C4487 H4502 0.961 . S
C4487 H4503 0.961 . S
C4488 C4489 1.370 . S
C4488 C4490 1.363 . S
C4488 H4504 0.931 . S
C4489 C4488 1.370 . S
C4489 C4493 1.408 . S
C4490 C4488 1.363 . S
C4490 C4491 1.370 . S
C4490 C4494 1.524 . S
C4491 C4483 1.503 . S
C4491 C4490 1.370 . S
C4491 C4492 1.403 . S
C4492 C4491 1.403 . S
C4492 C4493 1.404 . S
C4492 C4495 1.539 . S
C4493 C4489 1.408 . S
C4493 C4492 1.404 . S
C4493 H4505 0.930 . S
C4494 C4490 1.524 . S
C4494 H4506 0.956 . S
C4494 H4507 0.961 . S
C4494 H4508 0.961 . S
C4495 C4492 1.539 . S
C4495 H4509 0.958 . S
C4495 H4510 0.961 . S
C4495 H4511 0.960 . S
H4496 C4480 0.931 . S
H4497 C4485 0.929 . S
H4498 C4486 0.960 . S
H4499 C4486 0.962 . S
H4500 C4486 0.960 . S
H4501 C4487 0.961 . S
H4502 C4487 0.961 . S
H4503 C4487 0.961 . S
H4504 C4488 0.931 . S
H4505 C4493 0.930 . S
H4506 C4494 0.956 . S
H4507 C4494 0.961 . S
H4508 C4494 0.961 . S
H4509 C4495 0.958 . S
H4510 C4495 0.961 . S
H4511 C4495 0.960 . S
C4512 C4513 1.391 . S
C4512 C4514 1.394 . S
C4512 H4528 0.931 . S
C4513 C4512 1.391 . S
C4513 C4517 1.376 . S
C4514 C4512 1.394 . S
C4514 C4515 1.369 . S
C4514 C4518 1.531 . S
C4515 C4514 1.369 . S
C4515 C4516 1.410 . S
C4515 C4523 1.503 . S
C4516 C4515 1.410 . S
C4516 C4517 1.392 . S
C4516 C4519 1.511 1_655 S
C4517 C4513 1.376 . S
C4517 C4516 1.392 . S
C4517 H4529 0.929 . S
C4518 C4514 1.531 . S
C4518 H4530 0.960 . S
C4518 H4531 0.962 . S
C4518 H4532 0.960 . S
C4519 C4516 1.511 1_455 S
C4519 H4533 0.904 1_455 S
C4519 H4534 0.961 1_455 S
C4519 H4535 0.961 . S
C4520 C4521 1.370 . S
C4520 C4522 1.363 . S
C4520 H4536 0.931 . S
C4521 C4520 1.370 . S
C4521 C4525 1.408 1_655 S
C4522 C4520 1.363 . S
C4522 C4523 1.370 . S
C4522 C4526 1.524 . S
C4523 C4515 1.503 . S
C4523 C4522 1.370 . S
C4523 C4524 1.403 1_655 S
C4524 C4523 1.403 1_455 S
C4524 C4525 1.404 . S
C4524 C4527 1.539 . S
C4525 C4521 1.408 1_455 S
C4525 C4524 1.404 . S
C4525 H4537 0.930 . S
C4526 C4522 1.524 . S
C4526 H4538 0.956 . S
C4526 H4539 0.961 . S
C4526 H4540 0.961 . S
C4527 C4524 1.539 . S
C4527 H4541 0.958 . S
C4527 H4542 0.961 . S
C4527 H4543 0.960 . S
H4528 C4512 0.931 . S
H4529 C4517 0.929 . S
H4530 C4518 0.960 . S
H4531 C4518 0.962 . S
H4532 C4518 0.960 . S
H4533 C4519 0.904 1_655 S
H4534 C4519 0.961 1_655 S
H4535 C4519 0.961 . S
H4536 C4520 0.931 . S
H4537 C4525 0.930 . S
H4538 C4526 0.956 . S
H4539 C4526 0.961 . S
H4540 C4526 0.961 . S
H4541 C4527 0.958 . S
H4542 C4527 0.961 . S
H4543 C4527 0.960 . S
C4544 C4545 1.391 . S
C4544 C4546 1.394 . S
C4544 H4560 0.931 . S
C4545 C4544 1.391 . S
C4545 C4549 1.376 . S
C4546 C4544 1.394 . S
C4546 C4547 1.369 . S
C4546 C4550 1.531 . S
C4547 C4546 1.369 . S
C4547 C4548 1.410 . S
C4547 C4555 1.503 . S
C4548 C4547 1.410 . S
C4548 C4549 1.392 . S
C4548 C4551 1.511 . S
C4549 C4545 1.376 . S
C4549 C4548 1.392 . S
C4549 H4561 0.929 . S
C4550 C4546 1.531 . S
C4550 H4562 0.960 . S
C4550 H4563 0.962 . S
C4550 H4564 0.960 . S
C4551 C4548 1.511 . S
C4551 H4565 0.961 . S
C4551 H4566 0.961 . S
C4551 H4567 0.961 . S
C4552 C4553 1.370 . S
C4552 C4554 1.363 . S
C4552 H4568 0.931 . S
C4553 C4552 1.370 . S
C4553 C4557 1.408 . S
C4554 C4552 1.363 . S
C4554 C4555 1.370 . S
C4554 C4558 1.524 . S
C4555 C4547 1.503 . S
C4555 C4554 1.370 . S
C4555 C4556 1.403 . S
C4556 C4555 1.403 . S
C4556 C4557 1.404 . S
C4556 C4559 1.539 . S
C4557 C4553 1.408 . S
C4557 C4556 1.404 . S
C4557 H4569 0.930 . S
C4558 C4554 1.524 . S
C4558 H4570 0.956 . S
C4558 H4571 0.961 . S
C4558 H4572 0.961 . S
C4559 C4556 1.539 . S
C4559 H4573 0.958 . S
C4559 H4574 0.961 . S
C4559 H4575 0.960 . S
H4560 C4544 0.931 . S
H4561 C4549 0.929 . S
H4562 C4550 0.960 . S
H4563 C4550 0.962 . S
H4564 C4550 0.960 . S
H4565 C4551 0.961 . S
H4566 C4551 0.961 . S
H4567 C4551 0.961 . S
H4568 C4552 0.931 . S
H4569 C4557 0.930 . S
H4570 C4558 0.956 . S
H4571 C4558 0.961 . S
H4572 C4558 0.961 . S
H4573 C4559 0.958 . S
H4574 C4559 0.961 . S
H4575 C4559 0.960 . S
C4576 C4577 1.391 . S
C4576 C4578 1.394 . S
C4576 H4592 0.931 . S
C4577 C4576 1.391 . S
C4577 C4581 1.376 . S
C4578 C4576 1.394 . S
C4578 C4579 1.369 . S
C4578 C4582 1.531 . S
C4579 C4578 1.369 . S
C4579 C4580 1.410 . S
C4579 C4587 1.503 . S
C4580 C4579 1.410 . S
C4580 C4581 1.392 . S
C4580 C4583 1.511 . S
C4581 C4577 1.376 . S
C4581 C4580 1.392 . S
C4581 H4593 0.929 . S
C4582 C4578 1.531 . S
C4582 H4594 0.960 . S
C4582 H4595 0.962 . S
C4582 H4596 0.960 . S
C4583 C4580 1.511 . S
C4583 H4597 0.961 . S
C4583 H4598 0.961 . S
C4583 H4599 0.961 . S
C4584 C4585 1.370 1_565 S
C4584 C4586 1.363 . S
C4584 H4600 0.931 . S
C4585 C4584 1.370 1_545 S
C4585 C4589 1.408 . S
C4586 C4584 1.363 . S
C4586 C4587 1.370 1_565 S
C4586 C4590 1.524 . S
C4587 C4579 1.503 . S
C4587 C4586 1.370 1_545 S
C4587 C4588 1.403 . S
C4588 C4587 1.403 . S
C4588 C4589 1.404 . S
C4588 C4591 1.539 . S
C4589 C4585 1.408 . S
C4589 C4588 1.404 . S
C4589 H4601 0.930 . S
C4590 C4586 1.524 . S
C4590 H4602 0.956 . S
C4590 H4603 0.961 . S
C4590 H4604 0.961 . S
C4591 C4588 1.539 . S
C4591 H4605 0.958 . S
C4591 H4606 0.961 . S
C4591 H4607 0.960 . S
H4592 C4576 0.931 . S
H4593 C4581 0.929 . S
H4594 C4582 0.960 . S
H4595 C4582 0.962 . S
H4596 C4582 0.960 . S
H4597 C4583 0.961 . S
H4598 C4583 0.961 . S
H4599 C4583 0.961 . S
H4600 C4584 0.931 . S
H4601 C4589 0.930 . S
H4602 C4590 0.956 . S
H4603 C4590 0.961 . S
H4604 C4590 0.961 . S
H4605 C4591 0.958 . S
H4606 C4591 0.961 . S
H4607 C4591 0.960 . S
C2305 C4 1.292 . S
C2313 C1307 1.042 1_655 S
C2337 C26 1.655 . S
C2345 C1447 1.019 . S
C2377 C1535 1.060 . S
C2369 C32 1.218 . S
C2401 C40 1.348 . S
C2409 C1675 0.968 1_565 S
C2433 C12 1.373 . S
C2441 C1789 1.086 . S
C2465 C18 1.549 1_556 S
C2473 C1877 1.181 . S
C2497 C46 1.286 . S
C2505 C1763 0.992 . S
C2537 C1903 1.295 . S
C2529 C68 1.554 . S
C2569 C1649 1.028 . S
C2561 C74 1.297 . S
C2593 C82 1.354 . S
C2601 C1561 0.967 . S
C2633 C1333 1.047 . S
C2625 C54 1.359 . S
C2657 C60 1.485 . S
C2665 C1421 1.313 . S
C2689 C88 1.726 . S
C2697 C1991 1.262 . S
C2721 C110 1.765 . S
C2729 C2131 1.142 . S
C2761 C2219 1.226 . S
C2753 C116 1.699 . S
C2785 C124 1.601 . S
C2793 C307 0.998 . S
C2817 C96 1.684 . S
C2825 C421 1.054 . S
C2849 C102 1.644 . S
C2857 C509 1.259 . S
C2881 C130 1.469 . S
C2889 C395 1.361 . S
C2913 C152 1.666 . S
C2921 C535 1.435 . S
C2953 C281 1.456 . S
C2945 C158 1.594 . S
C2985 C2245 1.385 . S
C2977 C166 1.655 . S
C3017 C2017 1.298 . S
C3009 C138 1.543 . S
C3049 C2105 1.503 . S
C3041 C144 1.575 . S
C3073 C172 1.548 . S
C3081 C623 1.182 . S
C3105 C194 1.777 . S
C3113 C763 1.085 . S
C3137 C200 1.690 . S
C3145 C851 1.291 . S
C3169 C208 1.730 . S
C3177 C991 1.100 . S
C3209 C1105 1.017 . S
C3201 C180 1.651 . S
C3241 C1193 1.282 . S
C3233 C186 1.660 . S
C3273 C1079 1.475 . S
C3265 C214 1.635 . S
C3305 C1219 1.431 . S
C3297 C236 1.660 . S
C3329 C242 1.565 . S
C3337 C965 1.444 . S
C3369 C877 1.256 . S
C3361 C250 1.504 . S
C3393 C222 1.604 . S
C3401 C649 1.309 . S
C3433 C737 1.436 . S
C3425 C228 1.571 . S
C3465 C263 0.916 . S
C3457 C5 1.540 . S
C3489 C25 1.617 . S
C3497 C377 0.825 . S
C3529 C481 1.240 . S
C3521 C33 1.506 . S
C3561 C595 1.044 . S
C3553 C39 1.526 . S
C3593 C719 0.946 . S
C3585 C11 1.700 . S
C3625 C823 1.093 . S
C3617 C19 1.363 1_556 S
C3649 C47 1.701 1_556 S
C3657 C833 1.515 . S
C3681 C67 1.720 . S
C3689 C605 1.383 . S
C3713 C75 1.672 1_556 S
C3721 C709 1.684 . S
C3745 C81 1.666 . S
C3753 C367 1.441 . S
C3785 C491 1.453 . S
C3777 C53 1.827 . S
C3809 C61 1.472 . S
C3817 C253 1.499 . S
C3849 C947 0.916 . S
C3841 C89 1.494 . S
C3873 C109 1.728 . S
C3881 C1061 0.939 . S
C3905 C117 1.486 . S
C3913 C1165 1.237 . S
C3945 C1279 0.932 . S
C3937 C123 1.049 . S
C3969 C95 1.551 . S
C3977 C1403 0.798 . S
C4001 C103 1.097 . S
C4009 C1507 0.994 . S
C4033 C131 1.156 . S
C4041 C1517 0.855 1_565 S
C4065 C151 1.219 . S
C4073 C1289 0.822 . S
C4105 C1393 1.493 . S
C4097 C159 1.477 . S
C4129 C165 1.584 . S
C4137 C1051 1.385 . S
C4161 C137 1.806 . S
C4169 C1175 1.395 . S
C4201 C937 1.599 . S
C4193 C145 1.570 . S
C4233 C1631 0.776 . S
C4225 C173 1.172 . S
C4257 C193 1.135 . S
C4265 C1745 0.836 . S
C4289 C201 1.359 . S
C4297 C1849 1.093 . S
C4329 C1963 1.083 . S
C4321 C207 1.428 . S
C4361 C2087 0.937 . S
C4353 C179 1.718 . S
C4385 C187 1.384 . S
C4393 C2191 1.199 . S
C4417 C215 1.607 . S
C4425 C2201 1.448 . S
C4449 C235 1.833 . S
C4457 C1973 1.466 . S
C4489 C2077 1.602 . S
C4481 C243 1.483 . S
C4521 C1735 0.885 1_655 S
C4513 C249 1.068 . S
C4553 C1859 1.243 . S
C4545 C221 1.669 . S
C4577 C229 1.097 . S
C4585 C1621 1.003 1_545 S
