# Generated by pormake.
# Topology anh, (6,3)-cn, num edge types: 1
# Building blocks:
#     Node 0, Type 0, BuildingBlock: PAMTUU_clean_sbu_0, # of connection points: 6
#     Node 1, Type 0, BuildingBlock: PAMTUU_clean_sbu_0, # of connection points: 6
#     Node 2, Type 0, BuildingBlock: PAMTUU_clean_sbu_0, # of connection points: 6
#     Node 3, Type 1, BuildingBlock: KAKCAD_clean_linker_0, # of connection points: 3
#     Node 4, Type 1, BuildingBlock: KAKCAD_clean_linker_0, # of connection points: 3
#     Node 5, Type 1, BuildingBlock: KAKCAD_clean_linker_0, # of connection points: 3
#     Node 6, Type 1, BuildingBlock: KAKCAD_clean_linker_0, # of connection points: 3
#     Node 7, Type 1, BuildingBlock: KAKCAD_clean_linker_0, # of connection points: 3
#     Node 8, Type 1, BuildingBlock: KAKCAD_clean_linker_0, # of connection points: 3
#     Edge 9, Type (0, 1), BuildingBlock: ZUJKAS_clean_linker_0, # of connection points: 2
#     Edge 10, Type (0, 1), BuildingBlock: ZUJKAS_clean_linker_0, # of connection points: 2
#     Edge 11, Type (0, 1), BuildingBlock: ZUJKAS_clean_linker_0, # of connection points: 2
#     Edge 12, Type (0, 1), BuildingBlock: ZUJKAS_clean_linker_0, # of connection points: 2
#     Edge 13, Type (0, 1), BuildingBlock: ZUJKAS_clean_linker_0, # of connection points: 2
#     Edge 14, Type (0, 1), BuildingBlock: ZUJKAS_clean_linker_0, # of connection points: 2
#     Edge 15, Type (0, 1), BuildingBlock: ZUJKAS_clean_linker_0, # of connection points: 2
#     Edge 16, Type (0, 1), BuildingBlock: ZUJKAS_clean_linker_0, # of connection points: 2
#     Edge 17, Type (0, 1), BuildingBlock: ZUJKAS_clean_linker_0, # of connection points: 2
#     Edge 18, Type (0, 1), BuildingBlock: ZUJKAS_clean_linker_0, # of connection points: 2
#     Edge 19, Type (0, 1), BuildingBlock: ZUJKAS_clean_linker_0, # of connection points: 2
#     Edge 20, Type (0, 1), BuildingBlock: ZUJKAS_clean_linker_0, # of connection points: 2
#     Edge 21, Type (0, 1), BuildingBlock: ZUJKAS_clean_linker_0, # of connection points: 2
#     Edge 22, Type (0, 1), BuildingBlock: ZUJKAS_clean_linker_0, # of connection points: 2
#     Edge 23, Type (0, 1), BuildingBlock: ZUJKAS_clean_linker_0, # of connection points: 2
#     Edge 24, Type (0, 1), BuildingBlock: ZUJKAS_clean_linker_0, # of connection points: 2
#     Edge 25, Type (0, 1), BuildingBlock: ZUJKAS_clean_linker_0, # of connection points: 2
#     Edge 26, Type (0, 1), BuildingBlock: ZUJKAS_clean_linker_0, # of connection points: 2
# Relax obj value: 0.199
# Max RMSD: 0.183
# Mean RMSD: 0.149
data_MOF--net-anh--node1-PAMTUU_clean_sbu_0--node2-KAKCAD_clean_linker_0--edge1-ZUJKAS_clean_linker_0
_symmetry_space_group_name_H-M    P1
_symmetry_Int_Tables_number       1
_symmetry_cell_setting            triclinic
loop_
_symmetry_equiv_pos_as_xyz
'x, y, z'
_cell_length_a     46.292638
_cell_length_b     46.180339
_cell_length_c     82.295086
_cell_angle_alpha  93.442819
_cell_angle_beta   90.740756
_cell_angle_gamma 120.03043
loop_
_atom_site_label
_atom_site_type_symbol
_atom_site_fract_x
_atom_site_fract_y
_atom_site_fract_z
_atom_type_partial_charge
Tb0 Tb 0.07625 0.59386 0.16465 0.0
Tb1 Tb 0.11617 0.55363 0.16527 0.0
C2 C 0.09621 0.57112 0.13245 0.0
C3 C 1.00616 0.6059 0.17065 0.0
C4 C 0.9383 0.56361 0.17654 0.0
C5 C 0.94761 0.58485 0.16366 0.0
C6 C 0.98128 0.60583 0.16076 0.0
C7 C 0.99699 0.5865 0.1842 0.0
C8 C 0.96338 0.56571 0.18717 0.0
C9 C 1.04023 0.62019 0.16493 0.0
O10 O 1.03556 0.54038 0.16256 0.0
O11 O 0.06432 0.51397 0.16943 0.0
O12 O 0.12204 0.57699 0.18975 0.0
O13 O 0.07247 0.57585 0.18864 0.0
O14 O 0.14867 0.5408 0.15358 0.0
O15 O 0.12741 0.52044 0.17631 0.0
O16 O 0.15687 0.60665 0.16466 0.0
O17 O 0.12852 0.63495 0.1702 0.0
O18 O 0.09588 0.59623 0.14056 0.0
O19 O 0.09596 0.54711 0.1403 0.0
C20 C 1.03567 0.5131 0.16666 0.0
O21 O 0.06394 0.62796 0.17603 0.0
O22 O 1.04264 0.60357 0.15213 0.0
C23 C 0.09751 0.57775 0.19711 0.0
C24 C 0.18234 0.53206 0.1718 0.0
C25 C 0.24768 0.55027 0.18221 0.0
C26 C 0.22913 0.5607 0.19174 0.0
C27 C 0.1967 0.5519 0.18649 0.0
C28 C 0.20064 0.52115 0.16249 0.0
C29 C 0.23306 0.53023 0.16762 0.0
C30 C 0.14906 0.52369 0.16553 0.0
C31 C 0.157 0.63508 0.16831 0.0
H32 H 0.92898 0.58361 0.15511 0.0
H33 H 0.98782 0.62019 0.15012 0.0
H34 H 1.01568 0.58577 0.19194 0.0
H35 H 0.95705 0.5501 0.19734 0.0
H36 H 0.23998 0.57621 0.20301 0.0
H37 H 0.18303 0.56087 0.19378 0.0
H38 H 0.18997 0.50592 0.15113 0.0
H39 H 0.24673 0.5215 0.16018 0.0
Tb40 Tb 0.56458 1.02452 0.49435 0.0
Tb41 Tb 0.6442 0.06354 0.50013 0.0
C42 C 0.61012 0.05018 0.46468 0.0
C43 C 0.4741 0.9715 0.50113 0.0
C44 C 0.41863 0.93202 0.51938 0.0
C45 C 0.418 0.92458 0.5025 0.0
C46 C 0.44547 0.9442 0.49347 0.0
C47 C 0.47544 0.97833 0.5181 0.0
C48 C 0.44777 0.95884 0.52715 0.0
C49 C 0.50165 0.99314 0.49111 0.0
O50 O 0.57585 0.98508 0.50132 0.0
O51 O 0.63157 1.01046 0.49627 0.0
O52 O 0.62512 0.04152 0.52303 0.0
O53 O 0.57392 0.03717 0.52033 0.0
O54 O 0.6915 0.07653 0.49159 0.0
O55 O 0.68646 0.09598 0.51524 0.0
O56 O 0.6304 0.10249 0.50571 0.0
O57 O 0.5798 0.07796 0.49173 0.0
O58 O 0.58241 1.02619 0.46998 0.0
O59 O 0.63499 0.07098 0.4749 0.0
C60 C 0.60338 0.98332 0.49946 0.0
O61 O 0.51955 1.0245 0.49649 0.0
O62 O 0.52007 0.98112 0.48562 0.0
C63 C 0.59758 0.03746 0.52933 0.0
C64 C 0.72666 0.13458 0.49902 0.0
C65 C 0.74949 0.20137 0.49205 0.0
C66 C 0.75336 0.19383 0.50794 0.0
C67 C 0.74222 0.16072 0.51137 0.0
C68 C 0.72487 0.14247 0.48292 0.0
C69 C 0.73628 0.17558 0.47948 0.0
C70 C 0.70649 0.09973 0.50354 0.0
C71 C 0.60527 0.10479 0.49946 0.0
H72 H 0.39569 0.90444 0.49611 0.0
H73 H 0.44402 0.93856 0.48041 0.0
H74 H 0.49752 0.99915 0.5243 0.0
H75 H 0.44893 0.96503 0.54014 0.0
H76 H 0.76403 0.2134 0.51779 0.0
H77 H 0.74377 0.15528 0.52388 0.0
H78 H 0.7128 0.12296 0.47312 0.0
H79 H 0.73296 0.18069 0.46713 0.0
Tb80 Tb 0.59767 0.54035 0.83055 0.0
Tb81 Tb 0.63842 0.62045 0.83423 0.0
C82 C 0.61899 0.58139 0.79996 0.0
C83 C 0.56851 0.45084 0.83633 0.0
C84 C 0.57073 0.39769 0.85029 0.0
C85 C 0.59396 0.41625 0.83884 0.0
C86 C 0.59287 0.44259 0.83192 0.0
C87 C 0.54606 0.43305 0.84817 0.0
C88 C 0.54728 0.4069 0.85515 0.0
C89 C 0.56552 0.47724 0.82855 0.0
O90 O 0.65074 0.55218 0.83061 0.0
O91 O 0.67903 0.60896 0.83798 0.0
O92 O 0.61852 0.60304 0.85783 0.0
O93 O 0.6186 0.55392 0.85522 0.0
O94 O 0.65128 0.66583 0.8242 0.0
O95 O 0.66924 0.66543 0.84849 0.0
O96 O 0.58568 0.60819 0.83071 0.0
O97 O 0.5591 0.55366 0.83717 0.0
O98 O 0.59396 0.55691 0.80677 0.0
O99 O 0.64359 0.60573 0.80912 0.0
C100 C 0.67901 0.58042 0.83503 0.0
O101 O 0.55831 0.4959 0.83819 0.0
O102 O 0.58809 0.49484 0.81837 0.0
C103 C 0.61847 0.57788 0.8644 0.0
C104 C 0.64646 0.70009 0.84446 0.0
C105 C 0.60028 0.72226 0.84865 0.0
C106 C 0.62979 0.7413 0.84045 0.0
C107 C 0.65262 0.73012 0.83826 0.0
C108 C 0.61858 0.6827 0.85389 0.0
C109 C 0.59569 0.69367 0.85596 0.0
C110 C 0.66389 0.68287 0.8382 0.0
C111 C 0.55824 0.58127 0.83474 0.0
H112 H 0.61198 0.40943 0.83462 0.0
H113 H 0.61058 0.45587 0.82285 0.0
H114 H 0.52707 0.43896 0.85183 0.0
H115 H 0.52926 0.39327 0.86405 0.0
H116 H 0.63429 0.76381 0.83493 0.0
H117 H 0.67379 0.74367 0.83083 0.0
H118 H 0.61303 0.65915 0.8586 0.0
H119 H 0.57313 0.67823 0.86219 0.0
C120 C 0.6212 0.10544 0.28203 0.0
C121 C 0.61615 0.07645 0.28925 0.0
C122 C 0.61933 0.10601 0.26499 0.0
C123 C 0.61194 0.07747 0.25466 0.0
C124 C 0.60695 0.04851 0.26189 0.0
C125 C 0.60917 0.04806 0.27889 0.0
C126 C 0.60885 0.07755 0.23647 0.0
C127 C 0.6323 0.1049 0.22823 0.0
C128 C 0.63041 0.10551 0.21111 0.0
C129 C 0.60285 0.07692 0.20214 0.0
C130 C 0.57827 0.04877 0.21035 0.0
C131 C 0.58234 0.05004 0.22743 0.0
C132 C 0.54793 1.01701 0.20226 0.0
C133 C 0.52078 1.01744 0.19444 0.0
C134 C 0.5428 0.98501 0.2054 0.0
C135 C 0.51207 0.95507 0.20132 0.0
C136 C 0.48436 0.95527 0.19396 0.0
C137 C 0.65808 0.13681 0.2037 0.0
C138 C 0.66662 0.16928 0.21033 0.0
C139 C 0.67984 0.13536 0.19219 0.0
C140 C 0.70919 0.16491 0.18795 0.0
C141 C 0.71808 0.19742 0.19491 0.0
C142 C 0.69556 0.19867 0.20601 0.0
C143 C 0.48975 0.98732 0.19041 0.0
H144 H 0.6269 0.12789 0.28956 0.0
H145 H 0.62311 0.12868 0.2599 0.0
H146 H 0.60149 1.02614 0.25436 0.0
H147 H 0.60483 1.02517 0.28395 0.0
H148 H 0.65298 0.12576 0.23527 0.0
H149 H 0.56398 1.02937 0.23389 0.0
H150 H 0.60055 0.0766 0.18901 0.0
H151 H 0.52296 0.04126 0.1921 0.0
H152 H 0.56245 0.98319 0.21171 0.0
H153 H 0.5098 0.93173 0.20465 0.0
H154 H 0.65117 0.17197 0.21938 0.0
H155 H 0.67498 0.11118 0.18693 0.0
H156 H 0.46978 0.98935 0.18463 0.0
H157 H 0.70084 0.22246 0.21197 0.0
H158 H 0.72509 0.16211 0.17924 0.0
C159 C 0.58837 0.56656 0.6136 0.0
C160 C 0.61184 0.56242 0.62272 0.0
C161 C 0.58734 0.56402 0.59647 0.0
C162 C 0.60947 0.55685 0.58793 0.0
C163 C 0.6328 0.55249 0.59705 0.0
C164 C 0.63409 0.55543 0.61418 0.0
C165 C 0.60832 0.55405 0.56962 0.0
C166 C 0.60538 0.57766 0.5608 0.0
C167 C 0.60438 0.57614 0.54361 0.0
C168 C 0.60643 0.54894 0.53509 0.0
C169 C 0.60941 0.52425 0.54386 0.0
C170 C 0.61022 0.52781 0.56107 0.0
C171 C 0.61198 0.49428 0.53625 0.0
C172 C 0.58883 0.4704 0.52423 0.0
C173 C 0.63524 0.48639 0.54306 0.0
C174 C 0.63475 0.45599 0.53868 0.0
C175 C 0.61103 0.43136 0.52707 0.0
C176 C 0.6009 0.60379 0.53574 0.0
C177 C 0.57651 0.61166 0.54109 0.0
C178 C 0.62469 0.6264 0.52544 0.0
C179 C 0.62456 0.65591 0.52118 0.0
C180 C 0.60059 0.66425 0.52697 0.0
C181 C 0.57631 0.64086 0.53685 0.0
C182 C 0.58834 0.43971 0.51977 0.0
H183 H 0.57101 0.57224 0.61971 0.0
H184 H 0.56888 0.5673 0.5899 0.0
H185 H 0.65041 0.5472 0.59093 0.0
H186 H 0.65232 0.55179 0.62074 0.0
H187 H 0.60459 0.59816 0.56752 0.0
H188 H 0.61159 0.50929 0.56802 0.0
H189 H 0.60572 0.54703 0.5219 0.0
H190 H 0.57012 0.47475 0.51872 0.0
H191 H 0.65361 0.50359 0.55236 0.0
H192 H 0.6526 0.45154 0.54501 0.0
H193 H 0.55789 0.59555 0.54919 0.0
H194 H 0.64437 0.62208 0.52122 0.0
H195 H 0.56978 0.42241 0.5106 0.0
H196 H 0.55752 0.64556 0.54198 0.0
H197 H 0.64366 0.67239 0.5134 0.0
C198 C 0.14371 0.59274 0.94875 0.0
C199 C 0.11306 0.57369 0.95609 0.0
C200 C 0.14518 0.59407 0.93175 0.0
C201 C 0.11607 0.57629 0.92146 0.0
C202 C 0.08547 0.55702 0.92878 0.0
C203 C 0.08398 0.55581 0.94578 0.0
C204 C 0.11751 0.57822 0.90324 0.0
C205 C 0.14447 0.57945 0.89494 0.0
C206 C 0.14711 0.58198 0.87793 0.0
C207 C 0.12019 0.5823 0.86898 0.0
C208 C 0.09247 0.58157 0.87724 0.0
C209 C 0.09213 0.57947 0.89427 0.0
C210 C 0.06366 0.58437 0.8694 0.0
C211 C 0.0567 0.6093 0.87573 0.0
C212 C 1.03908 0.55919 0.85833 0.0
C213 C 1.0087 0.55861 0.85418 0.0
C214 C 1.00135 0.58319 0.86091 0.0
C215 C 0.17929 0.58542 0.87079 0.0
C216 C 0.21071 0.60789 0.87879 0.0
C217 C 0.17949 0.56375 0.85794 0.0
C218 C 0.20948 0.56383 0.8538 0.0
C219 C 0.24071 0.58551 0.86234 0.0
C220 C 0.2404 0.60799 0.8747 0.0
C221 C 1.02661 0.60881 0.8716 0.0
H222 H 0.1668 0.60653 0.95612 0.0
H223 H 0.16921 0.60952 0.9267 0.0
H224 H 0.0625 0.5426 0.92137 0.0
H225 H 0.05979 0.54116 0.95083 0.0
H226 H 0.16373 0.578 0.90186 0.0
H227 H 0.07178 0.5793 0.90071 0.0
H228 H 0.12144 0.58443 0.85595 0.0
H229 H 0.07427 0.62884 0.88455 0.0
H230 H 1.04262 0.53898 0.85339 0.0
H231 H 0.99076 0.53845 0.84576 0.0
H232 H 0.21228 0.62525 0.8887 0.0
H233 H 0.15618 0.54562 0.85153 0.0
H234 H 1.02278 0.62814 0.87746 0.0
H235 H 0.26332 0.62595 0.88145 0.0
H236 H 0.20778 0.54587 0.84422 0.0
C237 C 1.02741 0.63292 0.36754 0.0
C238 C 0.05993 0.63908 0.36498 0.0
C239 C 1.01796 0.63685 0.38321 0.0
C240 C 1.04087 0.64725 0.39664 0.0
C241 C 0.07356 0.65397 0.39404 0.0
C242 C 0.08295 0.64983 0.37839 0.0
C243 C 1.0303 0.64944 0.4134 0.0
C244 C 1.00029 0.62311 0.41857 0.0
C245 C 0.99148 0.62328 0.43483 0.0
C246 C 1.01246 0.65071 0.44577 0.0
C247 C 1.0428 0.67692 0.44095 0.0
C248 C 0.05136 0.67632 0.42466 0.0
C249 C 0.0671 0.70216 0.45351 0.0
C250 C 0.0563 0.71489 0.46657 0.0
C251 C 0.1008 0.71074 0.45351 0.0
C252 C 0.12282 0.73033 0.46656 0.0
C253 C 0.11166 0.74161 0.48 0.0
C254 C 0.96288 0.59309 0.44094 0.0
C255 C 0.93255 0.57432 0.43168 0.0
C256 C 0.96663 0.58183 0.45589 0.0
C257 C 0.94107 0.55224 0.4613 0.0
C258 C 0.91122 0.53284 0.45182 0.0
C259 C 0.90688 0.54444 0.4371 0.0
C260 C 0.07835 0.7344 0.4797 0.0
H261 H 1.00901 0.6243 0.35747 0.0
H262 H 0.99264 0.63159 0.38484 0.0
H263 H 0.09166 0.66162 0.40418 0.0
H264 H 0.10825 0.65502 0.37678 0.0
H265 H 0.98492 0.60144 0.4102 0.0
H266 H 0.07471 0.6965 0.42079 0.0
H267 H 1.00604 0.65063 0.45839 0.0
H268 H 1.03055 0.70902 0.46684 0.0
H269 H 0.10992 0.70111 0.44377 0.0
H270 H 0.14856 0.73618 0.46621 0.0
H271 H 0.92886 0.58248 0.42016 0.0
H272 H 0.98981 0.59524 0.46322 0.0
H273 H 0.06903 0.74284 0.48984 0.0
H274 H 0.88416 0.52988 0.42951 0.0
H275 H 0.94498 0.54418 0.47281 0.0
C276 C 0.47081 0.9479 0.69699 0.0
C277 C 0.5 0.97725 0.69335 0.0
C278 C 0.45771 0.94535 0.71243 0.0
C279 C 0.47356 0.97212 0.72447 0.0
C280 C 0.50329 1.00099 0.72093 0.0
C281 C 0.5163 1.00355 0.70556 0.0
C282 C 0.45935 0.97043 0.7407 0.0
C283 C 0.44836 0.94177 0.74949 0.0
C284 C 0.43845 0.9418 0.76559 0.0
C285 C 0.43815 0.97019 0.77248 0.0
C286 C 0.45047 0.99937 0.7642 0.0
C287 C 0.46004 0.99899 0.74815 0.0
C288 C 0.45957 1.03145 0.77354 0.0
C289 C 0.43825 1.03328 0.78506 0.0
C290 C 0.49202 0.05893 0.77282 0.0
C291 C 0.50359 0.0868 0.78397 0.0
C292 C 0.48295 0.08782 0.79606 0.0
C293 C 0.43408 0.91512 0.77624 0.0
C294 C 0.4181 0.88111 0.77044 0.0
C295 C 0.44812 0.92424 0.79228 0.0
C296 C 0.44692 0.90033 0.80214 0.0
C297 C 0.43232 0.86665 0.79616 0.0
C298 C 0.41716 0.85701 0.78035 0.0
C299 C 0.44983 0.0613 0.7962 0.0
H300 H 0.45761 0.92728 0.68779 0.0
H301 H 0.43477 0.92281 0.71482 0.0
H302 H 0.51667 1.02169 0.73008 0.0
H303 H 0.53922 1.02617 0.70325 0.0
H304 H 0.44998 0.92057 0.74424 0.0
H305 H 0.46933 1.02153 0.7417 0.0
H306 H 0.4311 0.97062 0.78496 0.0
H307 H 0.4131 1.01248 0.78585 0.0
H308 H 0.50922 0.05814 0.76424 0.0
H309 H 0.52902 0.10724 0.78338 0.0
H310 H 0.40693 0.87326 0.75817 0.0
H311 H 0.46139 0.9502 0.79713 0.0
H312 H 0.43335 0.06153 0.80537 0.0
H313 H 0.4059 0.83118 0.77542 0.0
H314 H 0.45852 0.90845 0.81432 0.0
C315 C 0.57573 0.47736 0.03539 0.0
C316 C 0.58231 0.50975 0.03248 0.0
C317 C 0.57024 0.46655 0.05115 0.0
C318 C 0.57139 0.48796 0.06435 0.0
C319 C 0.5785 0.52055 0.06143 0.0
C320 C 0.58374 0.53125 0.04567 0.0
C321 C 0.56485 0.47632 0.08109 0.0
C322 C 0.5778 0.45686 0.08694 0.0
C323 C 0.57224 0.44641 0.1029 0.0
C324 C 0.55296 0.45527 0.11283 0.0
C325 C 0.54114 0.47583 0.10746 0.0
C326 C 0.54662 0.48573 0.0915 0.0
C327 C 0.52574 0.48927 0.11908 0.0
C328 C 0.50251 0.46852 0.12996 0.0
C329 C 0.53605 0.52361 0.12011 0.0
C330 C 0.52365 0.53699 0.13189 0.0
C331 C 0.50065 0.51631 0.14287 0.0
C332 C 0.58914 0.42928 0.10984 0.0
C333 C 0.59555 0.40716 0.10007 0.0
C334 C 0.60079 0.43658 0.12629 0.0
C335 C 0.61873 0.42279 0.13272 0.0
C336 C 0.62632 0.40196 0.12283 0.0
C337 C 0.61434 0.39395 0.10647 0.0
C338 C 0.49008 0.4819 0.14174 0.0
H339 H 0.57412 0.46011 0.02543 0.0
H340 H 0.56446 0.44119 0.05294 0.0
H341 H 0.58031 0.53798 0.07134 0.0
H342 H 0.58928 0.55652 0.04383 0.0
H343 H 0.59357 0.45131 0.07931 0.0
H344 H 0.53661 0.50082 0.08721 0.0
H345 H 0.54832 0.44741 0.12512 0.0
H346 H 0.4939 0.44191 0.12936 0.0
H347 H 0.55443 0.54034 0.1121 0.0
H348 H 0.53247 0.56364 0.13255 0.0
H349 H 0.58664 0.40055 0.08742 0.0
H350 H 0.59753 0.45427 0.13416 0.0
H351 H 0.47183 0.46518 0.1498 0.0
H352 H 0.62017 0.37813 0.09858 0.0
H353 H 0.62848 0.43017 0.14525 0.0
H354 H 0.30172 0.57805 0.16379 0.0
H355 H 0.35634 0.58427 0.16976 0.0
H356 H 0.32681 0.55102 0.2178 0.0
H357 H 0.27146 0.54422 0.21171 0.0
H358 H 0.40906 0.61754 0.19514 0.0
H359 H 0.34104 0.47769 0.19422 0.0
H360 H 0.32031 0.49936 0.18741 0.0
H361 H 0.33049 0.50126 0.20871 0.0
C362 C 0.30708 0.57263 0.17573 0.0
C363 C 0.28232 0.56003 0.18718 0.0
C364 C 0.33835 0.57648 0.17919 0.0
C365 C 0.34539 0.56769 0.19414 0.0
C366 C 0.32166 0.55763 0.20614 0.0
H367 H 0.48914 0.50261 0.17489 0.0
H368 H 0.45983 0.52083 0.1938 0.0
C369 C 0.2902 0.55387 0.20268 0.0
C370 C 0.37541 0.56439 0.19567 0.0
H371 H 0.39704 0.50457 0.18811 0.0
C372 C 0.40677 0.59294 0.19417 0.0
C373 C 0.37242 0.5323 0.19464 0.0
C374 C 0.33934 0.50078 0.19628 0.0
C375 C 0.43445 0.58993 0.18993 0.0
C376 C 0.43029 0.55758 0.18683 0.0
C377 C 0.40007 0.52936 0.19031 0.0
C378 C 0.45373 0.55184 0.17696 0.0
C379 C 0.46728 0.62132 0.18785 0.0
C380 C 0.46019 0.56338 0.16128 0.0
C381 C 0.4766 0.55285 0.15047 0.0
C382 C 0.48661 0.53026 0.15504 0.0
C383 C 0.48131 0.51971 0.17096 0.0
C384 C 0.46491 0.53035 0.18183 0.0
H385 H 0.47073 0.64199 0.19676 0.0
H386 H 0.48872 0.61709 0.18941 0.0
H387 H 0.4673 0.6296 0.17546 0.0
H388 H 0.45078 0.579 0.15702 0.0
H389 H 0.47982 0.56102 0.13822 0.0
H390 H 0.73246 0.24221 0.50959 0.0
H391 H 0.74535 0.29887 0.50396 0.0
H392 H 0.79663 0.29395 0.46139 0.0
H393 H 0.7838 0.23746 0.46692 0.0
H394 H 0.80545 0.35329 0.50335 0.0
H395 H 0.74064 0.33019 0.44328 0.0
H396 H 0.7316 0.29688 0.45636 0.0
H397 H 0.76601 0.31095 0.44306 0.0
C398 C 0.74654 0.25331 0.49905 0.0
C399 C 0.75735 0.23561 0.48872 0.0
C400 C 0.75352 0.28545 0.49576 0.0
C401 C 0.7712 0.30026 0.48204 0.0
C402 C 0.78197 0.28256 0.47173 0.0
H403 H 0.92258 0.48562 0.46357 0.0
H404 H 0.88203 0.43132 0.47258 0.0
C405 C 0.77492 0.25044 0.47498 0.0
C406 C 0.78161 0.33544 0.4793 0.0
H407 H 0.79024 0.38579 0.44888 0.0
C408 C 0.80137 0.3604 0.49158 0.0
C409 C 0.77555 0.34479 0.46413 0.0
C410 C 0.75194 0.3192 0.45104 0.0
C411 C 0.81797 0.39435 0.4885 0.0
C412 C 0.81526 0.40334 0.47267 0.0
C413 C 0.79282 0.37874 0.46092 0.0
C414 C 0.83913 0.43686 0.46748 0.0
C415 C 0.83958 0.42016 0.50201 0.0
C416 C 0.82829 0.4575 0.46108 0.0
C417 C 0.8516 0.4888 0.45587 0.0
C418 C 0.88593 0.49964 0.45695 0.0
C419 C 0.89641 0.47841 0.46301 0.0
C420 C 0.87327 0.44738 0.46818 0.0
H421 H 0.82995 0.41154 0.51414 0.0
H422 H 0.86524 0.42404 0.50173 0.0
H423 H 0.84097 0.44459 0.50062 0.0
H424 H 0.80194 0.4495 0.46023 0.0
H425 H 0.84286 0.50466 0.45122 0.0
H426 H 0.55765 0.71869 0.87252 0.0
H427 H 0.50912 0.72641 0.86965 0.0
H428 H 0.53203 0.74966 0.81979 0.0
H429 H 0.57926 0.74082 0.82232 0.0
H430 H 0.5058 0.78 0.86357 0.0
H431 H 0.43397 0.68441 0.81405 0.0
H432 H 0.4675 0.68436 0.8255 0.0
H433 H 0.47594 0.70818 0.80781 0.0
C434 C 0.5521 0.72521 0.86092 0.0
C435 C 0.57245 0.72938 0.84767 0.0
C436 C 0.52437 0.72953 0.8593 0.0
C437 C 0.51631 0.73752 0.84435 0.0
C438 C 0.53698 0.74224 0.83127 0.0
H439 H 0.48877 0.87766 0.81204 0.0
H440 H 0.49711 0.83963 0.82783 0.0
C441 C 0.56454 0.73798 0.83286 0.0
C442 C 0.48853 0.74442 0.8425 0.0
H443 H 0.43359 0.73834 0.81273 0.0
C444 C 0.48907 0.77004 0.85278 0.0
C445 C 0.46548 0.73048 0.82889 0.0
C446 C 0.46046 0.70002 0.8186 0.0
C447 C 0.47098 0.78548 0.84837 0.0
C448 C 0.45299 0.77568 0.8331 0.0
C449 C 0.44831 0.74669 0.82417 0.0
C450 C 0.44578 0.79899 0.8247 0.0
C451 C 0.47333 0.81377 0.85953 0.0
C452 C 0.41441 0.78842 0.81703 0.0
C453 C 0.40963 0.81028 0.80772 0.0
C454 C 0.43622 0.84288 0.80597 0.0
C455 C 0.46754 0.85307 0.81355 0.0
C456 C 0.47228 0.83137 0.82271 0.0
H457 H 0.47389 0.80845 0.87248 0.0
H458 H 0.49701 0.83718 0.85766 0.0
H459 H 0.45206 0.81796 0.85722 0.0
H460 H 0.39381 0.76325 0.81813 0.0
H461 H 0.38527 0.80181 0.80194 0.0
H462 H 0.88183 0.56761 0.17152 0.0
H463 H 0.82441 0.52126 0.16859 0.0
H464 H 0.85706 0.45244 0.18116 0.0
H465 H 0.91486 0.49868 0.18359 0.0
H466 H 0.81884 0.43031 0.15364 0.0
H467 H 0.75462 0.4661 0.19937 0.0
H468 H 0.77897 0.50116 0.18768 0.0
H469 H 0.79955 0.48509 0.19998 0.0
C470 C 0.87679 0.54272 0.17387 0.0
C471 C 0.90298 0.53682 0.17763 0.0
C472 C 0.84387 0.51626 0.17241 0.0
C473 C 0.83637 0.48342 0.17489 0.0
C474 C 0.86226 0.47761 0.17933 0.0
H475 H 0.62497 0.37321 0.15107 0.0
H476 H 0.6735 0.37717 0.16555 0.0
C477 C 0.89525 0.50412 0.18079 0.0
C478 C 0.80209 0.45517 0.17089 0.0
H479 H 0.72132 0.43567 0.17418 0.0
C480 C 0.79736 0.43078 0.15845 0.0
C481 C 0.77397 0.45484 0.17753 0.0
C482 C 0.77709 0.47801 0.19202 0.0
C483 C 0.76551 0.40875 0.15117 0.0
C484 C 0.73805 0.41191 0.15622 0.0
C485 C 0.74233 0.43352 0.16998 0.0
C486 C 0.70679 0.39843 0.14592 0.0
C487 C 0.76197 0.38344 0.13769 0.0
C488 C 0.70875 0.407 0.1297 0.0
C489 C 0.68094 0.40423 0.12136 0.0
C490 C 0.65092 0.39347 0.12921 0.0
C491 C 0.64796 0.38168 0.1448 0.0
C492 C 0.67567 0.38399 0.15307 0.0
H493 H 0.77889 0.37353 0.1403 0.0
H494 H 0.73593 0.36211 0.13601 0.0
H495 H 0.76946 0.39588 0.12612 0.0
H496 H 0.73251 0.41901 0.124 0.0
H497 H 0.68399 0.41387 0.10943 0.0
H498 H 0.37575 0.86451 0.51782 0.0
H499 H 0.31779 0.83663 0.52552 0.0
H500 H 0.33324 0.92983 0.5488 0.0
H501 H 0.3912 0.95823 0.54064 0.0
H502 H 0.27704 0.82886 0.55316 0.0
H503 H 0.27253 0.9126 0.50815 0.0
H504 H 0.3092 0.90896 0.51102 0.0
H505 H 0.29903 0.93138 0.52633 0.0
C506 C 0.36705 0.87888 0.52495 0.0
C507 C 0.38763 0.91367 0.52823 0.0
C508 C 0.33402 0.86287 0.52949 0.0
C509 C 0.3211 0.88138 0.5374 0.0
C510 C 0.3427 0.91527 0.54249 0.0
H511 H 0.11857 0.79676 0.49823 0.0
H512 H 0.16204 0.8315 0.51937 0.0
C513 C 0.37583 0.93139 0.53788 0.0
C514 C 0.28443 0.86666 0.53694 0.0
H515 H 0.22334 0.86395 0.5123 0.0
C516 C 0.26501 0.83702 0.54463 0.0
C517 C 0.26872 0.87763 0.52599 0.0
C518 C 0.28827 0.90929 0.51731 0.0
C519 C 0.2308 0.81641 0.54044 0.0
C520 C 0.21609 0.82536 0.52796 0.0
C521 C 0.23465 0.85688 0.52175 0.0
C522 C 0.18482 0.80039 0.51871 0.0
C523 C 0.21128 0.78445 0.5488 0.0
C524 C 0.18256 0.77087 0.5116 0.0
C525 C 0.1577 0.75094 0.49966 0.0
C526 C 0.13486 0.76038 0.4943 0.0
C527 C 0.1358 0.78881 0.50209 0.0
C528 C 0.16061 0.80867 0.51419 0.0
H529 H 0.21965 0.78843 0.56187 0.0
H530 H 0.18401 0.77509 0.54793 0.0
H531 H 0.21604 0.76493 0.54311 0.0
H532 H 0.20136 0.7643 0.51445 0.0
H533 H 0.15719 0.72877 0.49417 0.0
H534 H 0.51412 0.33787 0.85287 0.0
H535 H 0.50976 0.28382 0.85505 0.0
H536 H 0.61707 0.33149 0.86093 0.0
H537 H 0.62167 0.38631 0.8587 0.0
H538 H 0.59396 0.28873 0.83521 0.0
H539 H 0.51674 0.22346 0.88554 0.0
H540 H 0.49651 0.24154 0.87481 0.0
H541 H 0.53695 0.2685 0.885 0.0
C542 C 0.53679 0.33718 0.85535 0.0
C543 C 0.56828 0.36637 0.85544 0.0
C544 C 0.53423 0.3061 0.85671 0.0
C545 C 0.56306 0.30354 0.85834 0.0
C546 C 0.59449 0.33292 0.85978 0.0
H547 H 0.54275 0.1162 0.81332 0.0
H548 H 0.5672 0.1661 0.83255 0.0
C549 C 0.59709 0.36415 0.85836 0.0
C550 C 0.56019 0.2704 0.85473 0.0
H551 H 0.50781 0.18762 0.86002 0.0
C552 C 0.57608 0.26665 0.84101 0.0
C553 C 0.53697 0.24162 0.86232 0.0
C554 C 0.52116 0.24413 0.87785 0.0
C555 C 0.56654 0.23488 0.83358 0.0
C556 C 0.5408 0.2062 0.84023 0.0
C557 C 0.52722 0.20976 0.85484 0.0
C558 C 0.52456 0.17324 0.83086 0.0
C559 C 0.58192 0.23243 0.81785 0.0
C560 C 0.49208 0.16023 0.82405 0.0
C561 C 0.47808 0.13185 0.81306 0.0
C562 C 0.49646 0.11616 0.80871 0.0
C563 C 0.52836 0.12831 0.81619 0.0
C564 C 0.54226 0.15659 0.82724 0.0
H565 H 0.59861 0.25742 0.81331 0.0
H566 H 0.59688 0.22013 0.81981 0.0
H567 H 0.56212 0.21692 0.80825 0.0
H568 H 0.47813 0.17292 0.82667 0.0
H569 H 0.45349 0.12304 0.80748 0.0
H570 H 0.5504 0.92055 0.5061 0.0
H571 H 0.55056 0.86838 0.51034 0.0
H572 H 0.65572 0.91776 0.50209 0.0
H573 H 0.65576 0.96992 0.49806 0.0
H574 H 0.56259 0.82557 0.49225 0.0
H575 H 0.65839 0.8768 0.54292 0.0
H576 H 0.63995 0.90012 0.53546 0.0
H577 H 0.67325 0.89892 0.52492 0.0
C578 C 0.57371 0.92055 0.50521 0.0
C579 C 0.60311 0.95032 0.50175 0.0
C580 C 0.57378 0.89029 0.50765 0.0
C581 C 0.60329 0.88828 0.50696 0.0
C582 C 0.63255 0.91791 0.50326 0.0
H583 H 0.65428 0.72727 0.52026 0.0
H584 H 0.65449 0.77908 0.51503 0.0
C585 C 0.63248 0.94811 0.50077 0.0
C586 C 0.60328 0.85545 0.50977 0.0
H587 H 0.64241 0.82203 0.53163 0.0
C588 C 0.58004 0.82504 0.50097 0.0
C589 C 0.62588 0.85358 0.52105 0.0
C590 C 0.65056 0.88398 0.53175 0.0
C591 C 0.57924 0.79404 0.50276 0.0
C592 C 0.60172 0.7921 0.5141 0.0
C593 C 0.625 0.82255 0.52289 0.0
C594 C 0.6014 0.75915 0.5171 0.0
C595 C 0.55477 0.76381 0.49189 0.0
C596 C 0.57175 0.72945 0.52027 0.0
C597 C 0.57148 0.69925 0.52313 0.0
C598 C 0.60095 0.69698 0.52321 0.0
C599 C 0.63071 0.72686 0.52014 0.0
C600 C 0.63093 0.75711 0.51725 0.0
H601 H 0.54789 0.77126 0.48052 0.0
H602 H 0.56508 0.74726 0.4885 0.0
H603 H 0.53153 0.74925 0.4984 0.0
H604 H 0.54845 0.72952 0.52078 0.0
H605 H 0.54769 0.6775 0.5252 0.0
H606 H 0.69091 0.52656 0.83199 0.0
H607 H 0.74354 0.52643 0.83612 0.0
H608 H 0.7958 0.63356 0.84659 0.0
H609 H 0.74333 0.63369 0.84286 0.0
H610 H 0.80153 0.55067 0.82237 0.0
H611 H 0.83352 0.613 0.88453 0.0
H612 H 0.79338 0.59876 0.87443 0.0
H613 H 0.82891 0.6384 0.87026 0.0
C614 C 0.7135 0.55021 0.83524 0.0
C615 C 0.71199 0.58012 0.83714 0.0
C616 C 0.74402 0.55013 0.83761 0.0
C617 C 0.7746 0.57988 0.84214 0.0
C618 C 0.77314 0.60982 0.84369 0.0
H619 H 0.98707 0.63566 0.86118 0.0
H620 H 0.93386 0.63366 0.85668 0.0
C621 C 0.74269 0.60992 0.84136 0.0
C622 C 0.80765 0.57967 0.84492 0.0
H623 H 0.87655 0.6081 0.87145 0.0
C624 C 0.81764 0.56311 0.83321 0.0
C625 C 0.82968 0.59569 0.85899 0.0
C626 C 0.82072 0.61216 0.87284 0.0
C627 C 0.84835 0.56292 0.83488 0.0
C628 C 0.87049 0.57919 0.84888 0.0
C629 C 0.86042 0.5956 0.86061 0.0
C630 C 0.90401 0.57991 0.85156 0.0
C631 C 0.85722 0.54607 0.82117 0.0
C632 C 0.9065 0.5505 0.85048 0.0
C633 C 0.93748 0.55151 0.85322 0.0
C634 C 0.96774 0.58199 0.8573 0.0
C635 C 0.96506 0.61136 0.85838 0.0
C636 C 0.93411 0.6103 0.85568 0.0
H637 H 0.84371 0.54409 0.80952 0.0
H638 H 0.88446 0.55993 0.81931 0.0
H639 H 0.84994 0.52026 0.82417 0.0
H640 H 0.88421 0.52633 0.84784 0.0
H641 H 0.93735 0.52798 0.85249 0.0
H642 H 0.22215 0.64665 0.1669 0.0
H643 H 0.27546 0.69962 0.17106 0.0
H644 H 0.22228 0.75318 0.17876 0.0
H645 H 0.16903 0.70027 0.17497 0.0
H646 H 0.3075 0.75547 0.15634 0.0
H647 H 0.28528 0.79563 0.21714 0.0
H648 H 0.2579 0.75426 0.20755 0.0
H649 H 0.25382 0.78935 0.20217 0.0
C650 C 0.22156 0.6696 0.16954 0.0
C651 C 0.19044 0.66834 0.17063 0.0
C652 C 0.25249 0.70031 0.17194 0.0
C653 C 0.254 0.73139 0.17566 0.0
C654 C 0.22287 0.73018 0.17647 0.0
H655 H 0.41913 0.94499 0.19356 0.0
H656 H 0.36545 0.89269 0.18879 0.0
C657 C 0.19194 0.69948 0.17411 0.0
C658 C 0.28772 0.76462 0.17831 0.0
H659 H 0.33251 0.83632 0.20413 0.0
C660 C 0.31277 0.77288 0.1669 0.0
C661 C 0.29576 0.78834 0.19199 0.0
C662 C 0.27195 0.78137 0.2055 0.0
C663 C 0.34422 0.80341 0.1685 0.0
C664 C 0.35224 0.82712 0.18217 0.0
C665 C 0.32719 0.81892 0.19357 0.0
C666 C 0.38615 0.86009 0.18491 0.0
C667 C 0.36819 0.8103 0.15507 0.0
C668 C 0.41695 0.86061 0.18459 0.0
C669 C 0.44811 0.89091 0.18726 0.0
C670 C 0.45034 0.92251 0.19051 0.0
C671 C 0.41942 0.92192 0.19089 0.0
C672 C 0.3882 0.89152 0.18827 0.0
H673 H 0.35496 0.79608 0.14341 0.0
H674 H 0.38238 0.83742 0.15304 0.0
H675 H 0.3862 0.80223 0.15848 0.0
H676 H 0.41707 0.83732 0.18249 0.0
H677 H 0.47062 0.88934 0.18664 0.0
H678 H 0.55545 0.11985 0.49164 0.0
H679 H 0.55647 0.17361 0.49545 0.0
H680 H 0.65716 0.22072 0.51602 0.0
H681 H 0.65636 0.16734 0.51209 0.0
H682 H 0.56228 0.21489 0.52137 0.0
H683 H 0.67181 0.28968 0.48529 0.0
H684 H 0.65162 0.24456 0.48473 0.0
H685 H 0.68068 0.2702 0.50131 0.0
C686 C 0.57801 0.14162 0.49687 0.0
C687 C 0.60585 0.13846 0.50142 0.0
C688 C 0.57856 0.17275 0.49912 0.0
C689 C 0.60711 0.20243 0.50582 0.0
C690 C 0.63488 0.19919 0.51043 0.0
H691 H 0.66215 0.41544 0.52965 0.0
H692 H 0.65979 0.36171 0.52497 0.0
C693 C 0.63428 0.16809 0.50827 0.0
C694 C 0.60748 0.23609 0.50835 0.0
H695 H 0.65181 0.32002 0.50113 0.0
C696 C 0.58186 0.23773 0.5168 0.0
C697 C 0.63285 0.26678 0.50264 0.0
C698 C 0.66063 0.26781 0.49285 0.0
C699 C 0.58134 0.26824 0.52001 0.0
C700 C 0.60661 0.29897 0.51422 0.0
C701 C 0.63217 0.29724 0.50571 0.0
C702 C 0.60752 0.33291 0.51711 0.0
C703 C 0.5541 0.26718 0.53026 0.0
C704 C 0.57928 0.33652 0.51413 0.0
C705 C 0.58037 0.36779 0.51714 0.0
C706 C 0.60991 0.39746 0.5231 0.0
C707 C 0.63838 0.39389 0.52555 0.0
C708 C 0.6372 0.36263 0.52265 0.0
H709 H 0.54395 0.24571 0.53806 0.0
H710 H 0.56329 0.29064 0.53824 0.0
H711 H 0.53321 0.26392 0.52213 0.0
H712 H 0.55606 0.31506 0.50933 0.0
H713 H 0.55757 0.36835 0.51497 0.0
H714 H 0.54433 0.63239 0.82928 0.0
H715 H 0.49252 0.63368 0.83284 0.0
H716 H 0.44564 0.5342 0.8495 0.0
H717 H 0.49706 0.53238 0.84532 0.0
H718 H 0.40012 0.53581 0.83272 0.0
H719 H 0.45555 0.65566 0.87071 0.0
H720 H 0.47352 0.66042 0.85123 0.0
H721 H 0.47923 0.63542 0.86552 0.0
C722 C 0.52309 0.61065 0.83372 0.0
C723 C 0.52572 0.58225 0.83696 0.0
C724 C 0.49308 0.61156 0.83599 0.0
C725 C 0.4642 0.58437 0.84193 0.0
C726 C 0.46682 0.55587 0.84499 0.0
H727 H 0.2952 0.60057 0.88349 0.0
H728 H 0.34671 0.60017 0.87812 0.0
C729 C 0.49671 0.55485 0.8426 0.0
C730 C 0.43142 0.58503 0.84465 0.0
H731 H 0.39904 0.63255 0.86148 0.0
C732 C 0.40024 0.55713 0.83906 0.0
C733 C 0.43012 0.61226 0.85313 0.0
C734 C 0.46131 0.64247 0.86066 0.0
C735 C 0.36903 0.55576 0.84145 0.0
C736 C 0.36783 0.58343 0.84945 0.0
C737 C 0.39896 0.6112 0.85518 0.0
C738 C 0.33497 0.58368 0.85252 0.0
C739 C 0.33744 0.52381 0.83579 0.0
C740 C 0.30984 0.57498 0.8401 0.0
C741 C 0.27969 0.57522 0.84318 0.0
C742 C 0.27316 0.58464 0.85882 0.0
C743 C 0.29855 0.59363 0.87116 0.0
C744 C 0.32854 0.59327 0.86809 0.0
H745 H 0.34153 0.50203 0.83474 0.0
H746 H 0.31714 0.51823 0.84426 0.0
H747 H 0.32912 0.52648 0.82355 0.0
H748 H 0.31362 0.56841 0.82779 0.0
H749 H 0.26174 0.56859 0.83309 0.0
H750 H 1.02387 0.44843 0.17029 0.0
H751 H 0.97122 0.39677 0.17398 0.0
H752 H 0.91861 0.45149 0.1726 0.0
H753 H 0.97097 0.50288 0.16823 0.0
H754 H 0.92866 0.37231 0.19502 0.0
H755 H 0.85259 0.37741 0.14434 0.0
H756 H 0.89686 0.40627 0.14679 0.0
H757 H 0.86799 0.4138 0.15829 0.0
C758 C 1.0011 0.44962 0.17056 0.0
C759 C 1.00245 0.48055 0.16868 0.0
C760 C 0.97054 0.41964 0.17277 0.0
C761 C 0.93956 0.41886 0.17329 0.0
C762 C 0.94109 0.45 0.17171 0.0
H763 H 0.73081 0.26337 0.19378 0.0
H764 H 0.78276 0.31466 0.18888 0.0
C765 C 0.97159 0.47993 0.1693 0.0
C766 C 0.90652 0.38612 0.17602 0.0
H767 H 0.82298 0.33753 0.16355 0.0
C768 C 0.90582 0.36487 0.18792 0.0
C769 C 0.87561 0.37518 0.16708 0.0
C770 C 0.87331 0.39417 0.15331 0.0
C771 C 0.87626 0.33454 0.19122 0.0
C772 C 0.84545 0.32377 0.18235 0.0
C773 C 0.84599 0.345 0.17053 0.0
C774 C 0.8127 0.2911 0.18522 0.0
C775 C 0.87827 0.31481 0.2047 0.0
C776 C 0.81058 0.25937 0.18462 0.0
C777 C 0.78039 0.22946 0.18745 0.0
C778 C 0.7506 0.22961 0.19108 0.0
C779 C 0.75269 0.26137 0.19138 0.0
C780 C 0.78281 0.29119 0.18842 0.0
H781 H 0.89991 0.33063 0.21339 0.0
H782 H 0.85513 0.30383 0.21159 0.0
H783 H 0.88149 0.29405 0.19933 0.0
H784 H 0.8324 0.25751 0.18182 0.0
H785 H 0.78072 0.20616 0.18708 0.0
H786 H 0.09035 0.61299 0.11201 0.0
H787 H 0.0925 0.61193 0.08229 0.0
H788 H 0.10645 0.52636 0.08171 0.0
H789 H 0.10436 0.52722 0.11149 0.0
H790 H 0.15117 0.5777 0.06209 0.0
H791 H 1.01974 0.54379 0.04854 0.0
H792 H 1.04254 0.57937 0.06302 0.0
H793 H 1.03407 0.53863 0.06809 0.0
C794 C 0.09375 0.5938 0.1056 0.0
C795 C 0.09703 0.57009 0.11425 0.0
C796 C 0.09481 0.59315 0.08854 0.0
C797 C 0.09923 0.56882 0.07965 0.0
C798 C 0.10285 0.5453 0.08824 0.0
H799 H 0.07163 0.52063 0.97395 0.0
H800 H 0.06854 0.51934 0.00357 0.0
C801 C 0.10156 0.54578 0.10531 0.0
C802 C 0.10072 0.56835 0.06146 0.0
H803 H 0.05555 0.55965 0.02637 0.0
C804 C 0.13023 0.57367 0.05429 0.0
C805 C 0.07332 0.56275 0.05119 0.0
C806 C 1.04048 0.55551 0.05803 0.0
C807 C 0.13329 0.57425 0.03726 0.0
C808 C 0.1062 0.56958 0.02702 0.0
C809 C 0.07645 0.56354 0.03416 0.0
C810 C 0.10818 0.57063 0.00888 0.0
C811 C 0.1654 0.57941 0.03033 0.0
C812 C 0.1312 0.60003 0.00185 0.0
C813 C 0.1328 0.60102 0.98485 0.0
C814 C 0.11141 0.57261 0.97434 0.0
C815 C 0.08825 0.54323 0.98148 0.0
C816 C 0.08656 0.54234 0.9985 0.0
H817 H 0.18045 0.57453 0.03921 0.0
H818 H 0.16029 0.56279 0.01906 0.0
H819 H 0.18058 0.60578 0.02716 0.0
H820 H 0.14772 0.62245 0.00954 0.0
H821 H 0.1505 0.62436 0.97995 0.0
H822 H 0.5605 1.01784 0.44065 0.0
H823 H 0.56401 1.02393 0.41141 0.0
H824 H 0.66889 0.09699 0.41834 0.0
H825 H 0.66534 0.09175 0.44786 0.0
H826 H 0.63994 0.11688 0.3969 0.0
H827 H 0.6007 0.98462 0.37893 0.0
H828 H 0.57018 0.98806 0.39076 0.0
H829 H 0.61105 1.00174 0.39984 0.0
C830 C 0.58444 0.03514 0.43602 0.0
C831 C 0.61272 0.05407 0.44673 0.0
C832 C 0.58645 0.03843 0.41918 0.0
C833 C 0.61689 0.06031 0.41245 0.0
C834 C 0.64511 0.07969 0.42312 0.0
H835 H 0.64522 0.04883 0.30744 0.0
H836 H 0.64718 0.04664 0.33704 0.0
C837 C 0.64306 0.07663 0.44004 0.0
C838 C 0.61898 0.06332 0.39436 0.0
H839 H 0.60025 1.01729 0.35761 0.0
C840 C 0.63145 0.09509 0.38833 0.0
C841 C 0.60851 0.0351 0.38302 0.0
C842 C 0.59721 1.00053 0.38846 0.0
C843 C 0.63294 0.09928 0.37145 0.0
C844 C 0.62083 0.07081 0.36011 0.0
C845 C 0.60914 0.03917 0.36616 0.0
C846 C 0.62032 0.07315 0.34197 0.0
C847 C 0.64819 0.13437 0.366 0.0
C848 C 0.60435 0.08853 0.33462 0.0
C849 C 0.60341 0.09002 0.31763 0.0
C850 C 0.61789 0.07564 0.30745 0.0
C851 C 0.63355 0.05995 0.31481 0.0
C852 C 0.63476 0.05876 0.33181 0.0
H853 H 0.66552 0.15332 0.37562 0.0
H854 H 0.6621 0.13707 0.35477 0.0
H855 H 0.62803 0.14004 0.36341 0.0
H856 H 0.59204 0.09893 0.342 0.0
H857 H 0.59059 0.10176 0.31242 0.0
H858 H 0.56787 0.54082 0.77762 0.0
H859 H 0.56821 0.53959 0.74784 0.0
H860 H 0.67075 0.61966 0.751 0.0
H861 H 0.67059 0.62134 0.78089 0.0
H862 H 0.58593 0.59724 0.72717 0.0
H863 H 0.66744 0.54118 0.71987 0.0
H864 H 0.64449 0.53747 0.73797 0.0
H865 H 0.68122 0.57647 0.73464 0.0
C866 C 0.59057 0.55824 0.77204 0.0
C867 C 0.61925 0.58115 0.78176 0.0
C868 C 0.59067 0.55751 0.75496 0.0
C869 C 0.61956 0.5793 0.74712 0.0
C870 C 0.64823 0.60234 0.75674 0.0
H871 H 0.66712 0.5941 0.64399 0.0
H872 H 0.669 0.59925 0.67384 0.0
C873 C 0.64805 0.60336 0.77386 0.0
C874 C 0.61949 0.57796 0.72889 0.0
H875 H 0.65028 0.55525 0.69599 0.0
C876 C 0.6 0.58807 0.72034 0.0
C877 C 0.638 0.56621 0.71995 0.0
C878 C 0.65888 0.55447 0.72848 0.0
C879 C 0.59879 0.58713 0.70316 0.0
C880 C 0.61671 0.57462 0.69413 0.0
C881 C 0.63641 0.56474 0.70276 0.0
C882 C 0.61536 0.57151 0.6758 0.0
C883 C 0.57901 0.60048 0.69494 0.0
C884 C 0.58465 0.55377 0.66673 0.0
C885 C 0.58351 0.55103 0.64961 0.0
C886 C 0.61308 0.56539 0.64103 0.0
C887 C 0.64382 0.58252 0.65013 0.0
C888 C 0.64493 0.58557 0.66725 0.0
H889 H 0.57623 0.61869 0.70327 0.0
H890 H 0.59101 0.61301 0.68384 0.0
H891 H 0.55358 0.57937 0.69135 0.0
H892 H 0.56143 0.54165 0.67289 0.0
H893 H 0.5594 0.5371 0.64308 0.0
H894 H 0.63503 1.02572 0.55132 0.0
H895 H 0.6223 1.01127 0.57957 0.0
H896 H 0.53442 1.02046 0.57477 0.0
H897 H 0.54655 1.03443 0.54669 0.0
H898 H 0.61499 0.04662 0.60611 0.0
H899 H 0.49708 0.92729 0.59098 0.0
H900 H 0.527 0.94889 0.57592 0.0
H901 H 0.49758 0.96181 0.58182 0.0
C902 C 0.61306 1.02476 0.55632 0.0
C903 C 0.59167 1.03096 0.54671 0.0
C904 C 0.60579 1.01641 0.57242 0.0
C905 C 0.57699 1.01402 0.57911 0.0
C906 C 0.55625 1.02124 0.5697 0.0
H907 H 0.52272 1.032 0.67571 0.0
H908 H 0.5444 0.03891 0.6485 0.0
C909 C 0.5634 1.02946 0.55366 0.0
C910 C 0.56866 1.00474 0.59603 0.0
H911 H 0.50499 0.95117 0.61858 0.0
C912 C 0.59116 1.02547 0.60886 0.0
C913 C 0.53785 0.97674 0.59959 0.0
C914 C 0.51365 0.9522 0.58634 0.0
C915 C 0.58283 1.02006 0.62517 0.0
C916 C 0.55093 0.9936 0.62868 0.0
C917 C 0.52924 0.97173 0.61587 0.0
C918 C 0.53875 0.98943 0.64542 0.0
C919 C 0.60816 0.04294 0.63846 0.0
C920 C 0.52733 0.95889 0.65254 0.0
C921 C 0.51464 0.95476 0.6681 0.0
C922 C 0.51312 0.98111 0.67677 0.0
C923 C 0.52424 1.01149 0.6695 0.0
C924 C 0.53676 1.01553 0.65396 0.0
H925 H 0.63403 0.05396 0.63427 0.0
H926 H 0.60368 0.06391 0.64192 0.0
H927 H 0.6062 1.0294 0.64947 0.0
H928 H 0.52836 0.93831 0.64607 0.0
H929 H 0.5064 0.93114 0.67343 0.0
H930 H 0.60905 0.52478 0.88104 0.0
H931 H 0.60305 0.51885 0.91024 0.0
H932 H 0.61635 0.6181 0.91745 0.0
H933 H 0.62224 0.62437 0.88804 0.0
H934 H 0.65653 0.59852 0.93972 0.0
H935 H 0.51925 0.51084 0.93514 0.0
H936 H 0.54325 0.50159 0.9209 0.0
H937 H 0.54115 0.53917 0.91966 0.0
C938 C 0.61082 0.54548 0.88878 0.0
C939 C 0.61606 0.57507 0.8822 0.0
C940 C 0.60726 0.54194 0.90546 0.0
C941 C 0.60897 0.56791 0.9159 0.0
C942 C 0.61483 0.59776 0.90951 0.0
H943 H 0.55548 0.54292 0.01766 0.0
H944 H 0.56307 0.56067 0.98981 0.0
C945 C 0.61815 0.60126 0.89274 0.0
C946 C 0.60463 0.56348 0.93349 0.0
H947 H 0.54743 0.5164 0.96048 0.0
C948 C 0.63265 0.58088 0.94433 0.0
C949 C 0.57336 0.54061 0.9394 0.0
C950 C 0.54239 0.52209 0.92823 0.0
C951 C 0.63044 0.57498 0.96094 0.0
C952 C 0.59947 0.55099 0.96671 0.0
C953 C 0.57118 0.53461 0.95597 0.0
C954 C 0.59611 0.54161 0.98374 0.0
C955 C 0.66123 0.59418 0.97216 0.0
C956 C 0.61198 0.5248 0.98944 0.0
C957 C 0.6076 0.51453 0.00528 0.0
C958 C 0.58732 0.52098 0.01571 0.0
C959 C 0.57157 0.53797 0.00996 0.0
C960 C 0.57576 0.548 0.99407 0.0
H961 H 0.68074 0.61695 0.96677 0.0
H962 H 0.65496 0.60178 0.98406 0.0
H963 H 0.67182 0.57785 0.97449 0.0
H964 H 0.62739 0.51923 0.98154 0.0
H965 H 0.6202 0.50169 0.00941 0.0
H966 H 1.0465 0.57048 0.21575 0.0
H967 H 1.04747 0.57969 0.24527 0.0
H968 H 0.14986 0.60256 0.24894 0.0
H969 H 0.14922 0.59335 0.21918 0.0
H970 H 0.06466 0.54753 0.27066 0.0
H971 H 0.14765 0.6862 0.27156 0.0
H972 H 0.12495 0.66097 0.25322 0.0
H973 H 0.16078 0.65987 0.26089 0.0
C974 C 0.06926 0.57734 0.22278 0.0
C975 C 0.09789 0.58141 0.2151 0.0
C976 C 0.06969 0.58249 0.23966 0.0
C977 C 0.09878 0.59204 0.24921 0.0
C978 C 0.12726 0.59545 0.2417 0.0
H979 H 0.09507 0.60787 0.35624 0.0
H980 H 0.10864 0.59677 0.3287 0.0
C981 C 0.1268 0.59007 0.22474 0.0
C982 C 0.09905 0.59928 0.26698 0.0
H983 H 0.12537 0.66394 0.29634 0.0
C984 C 0.07832 0.57287 0.27638 0.0
C985 C 0.11669 0.63244 0.27426 0.0
C986 C 0.1387 0.66167 0.26453 0.0
C987 C 0.07406 0.5789 0.29285 0.0
C988 C 0.09108 0.61217 0.30004 0.0
C989 C 0.11251 0.63847 0.29075 0.0
C990 C 0.0848 0.6204 0.31678 0.0
C991 C 1.05023 0.54991 0.30226 0.0
C992 C 0.06754 0.63796 0.31916 0.0
C993 C 0.05981 0.64437 0.33483 0.0
C994 C 0.06946 0.63357 0.34842 0.0
C995 C 0.08751 0.61671 0.34602 0.0
C996 C 0.09508 0.61014 0.33031 0.0
H997 H 1.0354 0.52649 0.29425 0.0
H998 H 0.06461 0.54518 0.31158 0.0
H999 H 1.03279 0.556 0.30871 0.0
H1000 H 0.0595 0.64615 0.30885 0.0
H1001 H 1.04627 0.65779 0.33631 0.0
loop_
_geom_bond_atom_site_label_1
_geom_bond_atom_site_label_2
_geom_bond_distance
_geom_bond_site_symmetry_2
_ccdc_geom_bond_type
Tb0 C9 2.764 1_455 S
Tb0 O10 2.325 1_455 S
Tb0 O13 2.303 . S
Tb0 O17 2.322 . S
Tb0 O18 2.349 . S
Tb0 O21 2.415 1_455 S
Tb0 O22 2.399 1_455 S
Tb1 O11 2.322 . S
Tb1 O12 2.349 . S
Tb1 O14 2.415 . S
Tb1 O15 2.399 . S
Tb1 O16 2.325 . S
Tb1 O19 2.303 . S
Tb1 C30 2.764 . S
C2 O18 1.261 . S
C2 O19 1.257 . S
C3 C6 1.358 . S
C3 C7 1.332 . S
C3 C9 1.504 . S
C4 C5 1.373 . S
C4 C8 1.308 . S
C5 C4 1.373 . S
C5 C6 1.429 . S
C5 H32 0.932 . S
C6 C3 1.358 . S
C6 C5 1.429 . S
C6 H33 0.930 . S
C7 C3 1.332 . S
C7 C8 1.394 . S
C7 H34 0.932 . S
C8 C4 1.308 . S
C8 C7 1.394 . S
C8 H35 0.929 . S
C9 Tb0 2.764 1_655 S
C9 C3 1.504 . S
C9 O21 1.239 . S
C9 O22 1.263 . S
O10 Tb0 2.325 1_655 S
O10 C20 1.236 . S
O11 Tb1 2.322 . S
O11 C20 1.257 1_455 S
O12 Tb1 2.349 . S
O12 C23 1.261 . S
O13 Tb0 2.303 . S
O13 C23 1.257 . S
O14 Tb1 2.415 . S
O14 C30 1.239 . S
O15 Tb1 2.399 . S
O15 C30 1.263 . S
O16 Tb1 2.325 . S
O16 C31 1.236 . S
O17 Tb0 2.322 . S
O17 C31 1.257 . S
O18 Tb0 2.349 . S
O18 C2 1.261 . S
O19 Tb1 2.303 . S
O19 C2 1.257 . S
C20 O10 1.236 . S
C20 O11 1.257 1_655 S
O21 Tb0 2.415 1_655 S
O21 C9 1.239 . S
O22 Tb0 2.399 1_655 S
O22 C9 1.263 . S
C23 O12 1.261 . S
C23 O13 1.257 . S
C24 C27 1.358 . S
C24 C28 1.332 . S
C24 C30 1.504 . S
C25 C26 1.373 . S
C25 C29 1.308 . S
C26 C25 1.373 . S
C26 C27 1.429 . S
C26 H36 0.932 . S
C27 C24 1.358 . S
C27 C26 1.429 . S
C27 H37 0.930 . S
C28 C24 1.332 . S
C28 C29 1.394 . S
C28 H38 0.932 . S
C29 C25 1.308 . S
C29 C28 1.394 . S
C29 H39 0.929 . S
C30 Tb1 2.764 . S
C30 O14 1.239 . S
C30 O15 1.263 . S
C30 C24 1.504 . S
C31 O16 1.236 . S
C31 O17 1.257 . S
H32 C5 0.932 . S
H33 C6 0.930 . S
H34 C7 0.932 . S
H35 C8 0.929 . S
H36 C26 0.932 . S
H37 C27 0.930 . S
H38 C28 0.932 . S
H39 C29 0.929 . S
Tb40 C49 2.764 1_545 S
Tb40 O50 2.325 1_545 S
Tb40 O53 2.303 . S
Tb40 O57 2.322 . S
Tb40 O58 2.349 . S
Tb40 O61 2.415 1_545 S
Tb40 O62 2.399 1_545 S
Tb41 O51 2.322 1_545 S
Tb41 O52 2.349 . S
Tb41 O54 2.415 . S
Tb41 O55 2.399 . S
Tb41 O56 2.325 . S
Tb41 O59 2.303 . S
Tb41 C70 2.764 . S
C42 O58 1.261 . S
C42 O59 1.257 . S
C43 C46 1.358 . S
C43 C47 1.332 . S
C43 C49 1.504 . S
C44 C45 1.373 . S
C44 C48 1.308 . S
C45 C44 1.373 . S
C45 C46 1.429 . S
C45 H72 0.932 . S
C46 C43 1.358 . S
C46 C45 1.429 . S
C46 H73 0.930 . S
C47 C43 1.332 . S
C47 C48 1.394 . S
C47 H74 0.932 . S
C48 C44 1.308 . S
C48 C47 1.394 . S
C48 H75 0.929 . S
C49 Tb40 2.764 1_565 S
C49 C43 1.504 . S
C49 O61 1.239 . S
C49 O62 1.263 . S
O50 Tb40 2.325 1_565 S
O50 C60 1.236 . S
O51 Tb41 2.322 1_565 S
O51 C60 1.257 . S
O52 Tb41 2.349 . S
O52 C63 1.261 . S
O53 Tb40 2.303 . S
O53 C63 1.257 . S
O54 Tb41 2.415 . S
O54 C70 1.239 . S
O55 Tb41 2.399 . S
O55 C70 1.263 . S
O56 Tb41 2.325 . S
O56 C71 1.236 . S
O57 Tb40 2.322 . S
O57 C71 1.257 . S
O58 Tb40 2.349 . S
O58 C42 1.261 . S
O59 Tb41 2.303 . S
O59 C42 1.257 . S
C60 O50 1.236 . S
C60 O51 1.257 . S
O61 Tb40 2.415 1_565 S
O61 C49 1.239 . S
O62 Tb40 2.399 1_565 S
O62 C49 1.263 . S
C63 O52 1.261 . S
C63 O53 1.257 . S
C64 C67 1.358 . S
C64 C68 1.332 . S
C64 C70 1.504 . S
C65 C66 1.373 . S
C65 C69 1.308 . S
C66 C65 1.373 . S
C66 C67 1.429 . S
C66 H76 0.932 . S
C67 C64 1.358 . S
C67 C66 1.429 . S
C67 H77 0.930 . S
C68 C64 1.332 . S
C68 C69 1.394 . S
C68 H78 0.932 . S
C69 C65 1.308 . S
C69 C68 1.394 . S
C69 H79 0.929 . S
C70 Tb41 2.764 . S
C70 O54 1.239 . S
C70 O55 1.263 . S
C70 C64 1.504 . S
C71 O56 1.236 . S
C71 O57 1.257 . S
H72 C45 0.932 . S
H73 C46 0.930 . S
H74 C47 0.932 . S
H75 C48 0.929 . S
H76 C66 0.932 . S
H77 C67 0.930 . S
H78 C68 0.932 . S
H79 C69 0.929 . S
Tb80 C89 2.764 . S
Tb80 O90 2.325 . S
Tb80 O93 2.303 . S
Tb80 O97 2.322 . S
Tb80 O98 2.349 . S
Tb80 O101 2.415 . S
Tb80 O102 2.399 . S
Tb81 O91 2.322 . S
Tb81 O92 2.349 . S
Tb81 O94 2.415 . S
Tb81 O95 2.399 . S
Tb81 O96 2.325 . S
Tb81 O99 2.303 . S
Tb81 C110 2.764 . S
C82 O98 1.261 . S
C82 O99 1.257 . S
C83 C86 1.358 . S
C83 C87 1.332 . S
C83 C89 1.504 . S
C84 C85 1.373 . S
C84 C88 1.308 . S
C85 C84 1.373 . S
C85 C86 1.429 . S
C85 H112 0.932 . S
C86 C83 1.358 . S
C86 C85 1.429 . S
C86 H113 0.930 . S
C87 C83 1.332 . S
C87 C88 1.394 . S
C87 H114 0.932 . S
C88 C84 1.308 . S
C88 C87 1.394 . S
C88 H115 0.929 . S
C89 Tb80 2.764 . S
C89 C83 1.504 . S
C89 O101 1.239 . S
C89 O102 1.263 . S
O90 Tb80 2.325 . S
O90 C100 1.236 . S
O91 Tb81 2.322 . S
O91 C100 1.257 . S
O92 Tb81 2.349 . S
O92 C103 1.261 . S
O93 Tb80 2.303 . S
O93 C103 1.257 . S
O94 Tb81 2.415 . S
O94 C110 1.239 . S
O95 Tb81 2.399 . S
O95 C110 1.263 . S
O96 Tb81 2.325 . S
O96 C111 1.236 . S
O97 Tb80 2.322 . S
O97 C111 1.257 . S
O98 Tb80 2.349 . S
O98 C82 1.261 . S
O99 Tb81 2.303 . S
O99 C82 1.257 . S
C100 O90 1.236 . S
C100 O91 1.257 . S
O101 Tb80 2.415 . S
O101 C89 1.239 . S
O102 Tb80 2.399 . S
O102 C89 1.263 . S
C103 O92 1.261 . S
C103 O93 1.257 . S
C104 C107 1.358 . S
C104 C108 1.332 . S
C104 C110 1.504 . S
C105 C106 1.373 . S
C105 C109 1.308 . S
C106 C105 1.373 . S
C106 C107 1.429 . S
C106 H116 0.932 . S
C107 C104 1.358 . S
C107 C106 1.429 . S
C107 H117 0.930 . S
C108 C104 1.332 . S
C108 C109 1.394 . S
C108 H118 0.932 . S
C109 C105 1.308 . S
C109 C108 1.394 . S
C109 H119 0.929 . S
C110 Tb81 2.764 . S
C110 O94 1.239 . S
C110 O95 1.263 . S
C110 C104 1.504 . S
C111 O96 1.236 . S
C111 O97 1.257 . S
H112 C85 0.932 . S
H113 C86 0.930 . S
H114 C87 0.932 . S
H115 C88 0.929 . S
H116 C106 0.932 . S
H117 C107 0.930 . S
H118 C108 0.932 . S
H119 C109 0.929 . S
C120 C121 1.386 . S
C120 C122 1.397 . S
C120 H144 0.931 . S
C121 C120 1.386 . S
C121 C125 1.397 . S
C122 C120 1.397 . S
C122 C123 1.384 . S
C122 H145 0.930 . S
C123 C122 1.384 . S
C123 C124 1.377 . S
C123 C126 1.481 . S
C124 C123 1.377 . S
C124 C125 1.389 . S
C124 H146 0.929 1_545 S
C125 C121 1.397 . S
C125 C124 1.389 . S
C125 H147 0.931 1_545 S
C126 C123 1.481 . S
C126 C127 1.387 . S
C126 C131 1.390 . S
C127 C126 1.387 . S
C127 C128 1.401 . S
C127 H148 0.930 . S
C128 C127 1.401 . S
C128 C129 1.376 . S
C128 C137 1.511 . S
C129 C128 1.376 . S
C129 C130 1.407 . S
C129 H150 0.931 . S
C130 C129 1.407 . S
C130 C131 1.362 . S
C130 C132 1.486 1_545 S
C131 C126 1.390 . S
C131 C130 1.362 . S
C131 H149 0.931 1_545 S
C132 C130 1.486 1_565 S
C132 C133 1.371 . S
C132 C134 1.365 . S
C133 C132 1.371 . S
C133 C143 1.386 . S
C133 H151 0.931 . S
C134 C132 1.365 . S
C134 C135 1.409 . S
C134 H152 0.929 . S
C135 C134 1.409 . S
C135 C136 1.380 . S
C135 H153 0.930 . S
C136 C135 1.380 . S
C136 C143 1.357 . S
C137 C128 1.511 . S
C137 C138 1.341 . S
C137 C139 1.371 . S
C138 C137 1.341 . S
C138 C142 1.394 . S
C138 H154 0.930 . S
C139 C137 1.371 . S
C139 C140 1.392 . S
C139 H155 0.931 . S
C140 C139 1.392 . S
C140 C141 1.331 . S
C140 H158 0.932 . S
C141 C140 1.331 . S
C141 C142 1.336 . S
C142 C138 1.394 . S
C142 C141 1.336 . S
C142 H157 0.929 . S
C143 C133 1.386 . S
C143 C136 1.357 . S
C143 H156 0.928 . S
H144 C120 0.931 . S
H145 C122 0.930 . S
H146 C124 0.929 1_565 S
H147 C125 0.931 1_565 S
H148 C127 0.930 . S
H149 C131 0.931 1_565 S
H150 C129 0.931 . S
H151 C133 0.931 . S
H152 C134 0.929 . S
H153 C135 0.930 . S
H154 C138 0.930 . S
H155 C139 0.931 . S
H156 C143 0.928 . S
H157 C142 0.929 . S
H158 C140 0.932 . S
C159 C160 1.386 . S
C159 C161 1.397 . S
C159 H183 0.931 . S
C160 C159 1.386 . S
C160 C164 1.397 . S
C161 C159 1.397 . S
C161 C162 1.384 . S
C161 H184 0.930 . S
C162 C161 1.384 . S
C162 C163 1.377 . S
C162 C165 1.481 . S
C163 C162 1.377 . S
C163 C164 1.389 . S
C163 H185 0.929 . S
C164 C160 1.397 . S
C164 C163 1.389 . S
C164 H186 0.931 . S
C165 C162 1.481 . S
C165 C166 1.387 . S
C165 C170 1.390 . S
C166 C165 1.387 . S
C166 C167 1.401 . S
C166 H187 0.930 . S
C167 C166 1.401 . S
C167 C168 1.376 . S
C167 C176 1.511 . S
C168 C167 1.376 . S
C168 C169 1.392 . S
C168 H189 0.931 . S
C169 C168 1.392 . S
C169 C170 1.361 . S
C169 C171 1.500 . S
C170 C165 1.390 . S
C170 C169 1.361 . S
C170 H188 0.931 . S
C171 C169 1.500 . S
C171 C172 1.371 . S
C171 C173 1.365 . S
C172 C171 1.371 . S
C172 C182 1.386 . S
C172 H190 0.931 . S
C173 C171 1.365 . S
C173 C174 1.409 . S
C173 H191 0.929 . S
C174 C173 1.409 . S
C174 C175 1.380 . S
C174 H192 0.930 . S
C175 C174 1.380 . S
C175 C182 1.357 . S
C176 C167 1.511 . S
C176 C177 1.341 . S
C176 C178 1.371 . S
C177 C176 1.341 . S
C177 C181 1.394 . S
C177 H193 0.930 . S
C178 C176 1.371 . S
C178 C179 1.392 . S
C178 H194 0.931 . S
C179 C178 1.392 . S
C179 C180 1.331 . S
C179 H197 0.932 . S
C180 C179 1.331 . S
C180 C181 1.336 . S
C181 C177 1.394 . S
C181 C180 1.336 . S
C181 H196 0.929 . S
C182 C172 1.386 . S
C182 C175 1.357 . S
C182 H195 0.928 . S
H183 C159 0.931 . S
H184 C161 0.930 . S
H185 C163 0.929 . S
H186 C164 0.931 . S
H187 C166 0.930 . S
H188 C170 0.931 . S
H189 C168 0.931 . S
H190 C172 0.931 . S
H191 C173 0.929 . S
H192 C174 0.930 . S
H193 C177 0.930 . S
H194 C178 0.931 . S
H195 C182 0.928 . S
H196 C181 0.929 . S
H197 C179 0.932 . S
C198 C199 1.386 . S
C198 C200 1.397 . S
C198 H222 0.931 . S
C199 C198 1.386 . S
C199 C203 1.397 . S
C200 C198 1.397 . S
C200 C201 1.384 . S
C200 H223 0.930 . S
C201 C200 1.384 . S
C201 C202 1.377 . S
C201 C204 1.481 . S
C202 C201 1.377 . S
C202 C203 1.389 . S
C202 H224 0.929 . S
C203 C199 1.397 . S
C203 C202 1.389 . S
C203 H225 0.931 . S
C204 C201 1.481 . S
C204 C205 1.387 . S
C204 C209 1.390 . S
C205 C204 1.387 . S
C205 C206 1.401 . S
C205 H226 0.930 . S
C206 C205 1.401 . S
C206 C207 1.376 . S
C206 C215 1.511 . S
C207 C206 1.376 . S
C207 C208 1.392 . S
C207 H228 0.931 . S
C208 C207 1.392 . S
C208 C209 1.361 . S
C208 C210 1.500 . S
C209 C204 1.390 . S
C209 C208 1.361 . S
C209 H227 0.931 . S
C210 C208 1.500 . S
C210 C211 1.371 . S
C210 C212 1.365 1_455 S
C211 C210 1.371 . S
C211 C221 1.386 1_455 S
C211 H229 0.931 . S
C212 C210 1.365 1_655 S
C212 C213 1.409 . S
C212 H230 0.929 . S
C213 C212 1.409 . S
C213 C214 1.380 . S
C213 H231 0.930 . S
C214 C213 1.380 . S
C214 C221 1.357 . S
C215 C206 1.511 . S
C215 C216 1.341 . S
C215 C217 1.371 . S
C216 C215 1.341 . S
C216 C220 1.394 . S
C216 H232 0.930 . S
C217 C215 1.371 . S
C217 C218 1.392 . S
C217 H233 0.931 . S
C218 C217 1.392 . S
C218 C219 1.331 . S
C218 H236 0.932 . S
C219 C218 1.331 . S
C219 C220 1.336 . S
C220 C216 1.394 . S
C220 C219 1.336 . S
C220 H235 0.929 . S
C221 C211 1.386 1_655 S
C221 C214 1.357 . S
C221 H234 0.928 . S
H222 C198 0.931 . S
H223 C200 0.930 . S
H224 C202 0.929 . S
H225 C203 0.931 . S
H226 C205 0.930 . S
H227 C209 0.931 . S
H228 C207 0.931 . S
H229 C211 0.931 . S
H230 C212 0.929 . S
H231 C213 0.930 . S
H232 C216 0.930 . S
H233 C217 0.931 . S
H234 C221 0.928 . S
H235 C220 0.929 . S
H236 C218 0.932 . S
C237 C238 1.409 . S
C237 C239 1.397 . S
C237 H261 0.931 . S
C238 C237 1.409 . S
C238 C242 1.376 1_655 S
C239 C237 1.397 . S
C239 C240 1.418 . S
C239 H262 0.930 . S
C240 C239 1.418 . S
C240 C241 1.342 1_655 S
C240 C243 1.481 . S
C241 C240 1.342 1_455 S
C241 C242 1.389 . S
C241 H263 0.929 . S
C242 C238 1.376 1_455 S
C242 C241 1.389 . S
C242 H264 0.931 . S
C243 C240 1.481 . S
C243 C244 1.402 . S
C243 C248 1.377 1_655 S
C244 C243 1.402 . S
C244 C245 1.401 . S
C244 H265 0.930 . S
C245 C244 1.401 . S
C245 C246 1.367 1_655 S
C245 C254 1.511 . S
C246 C245 1.367 1_455 S
C246 C247 1.404 . S
C246 H267 0.932 . S
C247 C246 1.404 . S
C247 C248 1.361 . S
C247 C249 1.500 . S
C248 C243 1.377 1_455 S
C248 C247 1.361 . S
C248 H266 0.931 . S
C249 C247 1.500 . S
C249 C250 1.371 . S
C249 C251 1.365 . S
C250 C249 1.371 . S
C250 C260 1.386 . S
C250 H268 0.931 . S
C251 C249 1.365 . S
C251 C252 1.409 . S
C251 H269 0.929 . S
C252 C251 1.409 . S
C252 C253 1.380 . S
C252 H270 0.930 . S
C253 C252 1.380 . S
C253 C260 1.357 . S
C254 C245 1.511 . S
C254 C255 1.341 . S
C254 C256 1.371 . S
C255 C254 1.341 . S
C255 C259 1.394 . S
C255 H271 0.930 . S
C256 C254 1.371 . S
C256 C257 1.392 . S
C256 H272 0.931 . S
C257 C256 1.392 . S
C257 C258 1.331 . S
C257 H275 0.932 . S
C258 C257 1.331 . S
C258 C259 1.336 . S
C259 C255 1.394 . S
C259 C258 1.336 . S
C259 H274 0.929 . S
C260 C250 1.386 . S
C260 C253 1.357 . S
C260 H273 0.928 . S
H261 C237 0.931 . S
H262 C239 0.930 . S
H263 C241 0.929 . S
H264 C242 0.931 . S
H265 C244 0.930 . S
H266 C248 0.931 . S
H267 C246 0.932 . S
H268 C250 0.931 . S
H269 C251 0.929 . S
H270 C252 0.930 . S
H271 C255 0.930 . S
H272 C256 0.931 . S
H273 C260 0.928 . S
H274 C259 0.929 . S
H275 C257 0.932 . S
C276 C277 1.386 . S
C276 C278 1.397 . S
C276 H300 0.931 . S
C277 C276 1.386 . S
C277 C281 1.397 1_565 S
C278 C276 1.397 . S
C278 C279 1.384 . S
C278 H301 0.930 . S
C279 C278 1.384 . S
C279 C280 1.377 1_565 S
C279 C282 1.481 . S
C280 C279 1.377 1_545 S
C280 C281 1.389 . S
C280 H302 0.929 . S
C281 C277 1.397 1_545 S
C281 C280 1.389 . S
C281 H303 0.931 . S
C282 C279 1.481 . S
C282 C283 1.391 . S
C282 C287 1.387 1_565 S
C283 C282 1.391 . S
C283 C284 1.401 . S
C283 H304 0.930 . S
C284 C283 1.401 . S
C284 C285 1.376 1_565 S
C284 C293 1.511 . S
C285 C284 1.376 1_545 S
C285 C286 1.392 . S
C285 H306 0.931 . S
C286 C285 1.392 . S
C286 C287 1.361 . S
C286 C288 1.500 . S
C287 C282 1.387 1_545 S
C287 C286 1.361 . S
C287 H305 0.931 . S
C288 C286 1.500 . S
C288 C289 1.371 . S
C288 C290 1.365 . S
C289 C288 1.371 . S
C289 C299 1.386 . S
C289 H307 0.931 . S
C290 C288 1.365 . S
C290 C291 1.409 . S
C290 H308 0.929 . S
C291 C290 1.409 . S
C291 C292 1.380 . S
C291 H309 0.930 . S
C292 C291 1.380 . S
C292 C299 1.357 . S
C293 C284 1.511 . S
C293 C294 1.341 . S
C293 C295 1.371 . S
C294 C293 1.341 . S
C294 C298 1.394 . S
C294 H310 0.930 . S
C295 C293 1.371 . S
C295 C296 1.392 . S
C295 H311 0.931 . S
C296 C295 1.392 . S
C296 C297 1.331 . S
C296 H314 0.932 . S
C297 C296 1.331 . S
C297 C298 1.336 . S
C298 C294 1.394 . S
C298 C297 1.336 . S
C298 H313 0.929 . S
C299 C289 1.386 . S
C299 C292 1.357 . S
C299 H312 0.928 . S
H300 C276 0.931 . S
H301 C278 0.930 . S
H302 C280 0.929 . S
H303 C281 0.931 . S
H304 C283 0.930 . S
H305 C287 0.931 . S
H306 C285 0.931 . S
H307 C289 0.931 . S
H308 C290 0.929 . S
H309 C291 0.930 . S
H310 C294 0.930 . S
H311 C295 0.931 . S
H312 C299 0.928 . S
H313 C298 0.929 . S
H314 C296 0.932 . S
C315 C316 1.386 . S
C315 C317 1.397 . S
C315 H339 0.931 . S
C316 C315 1.386 . S
C316 C320 1.397 . S
C317 C315 1.397 . S
C317 C318 1.384 . S
C317 H340 0.930 . S
C318 C317 1.384 . S
C318 C319 1.377 . S
C318 C321 1.481 . S
C319 C318 1.377 . S
C319 C320 1.389 . S
C319 H341 0.929 . S
C320 C316 1.397 . S
C320 C319 1.389 . S
C320 H342 0.931 . S
C321 C318 1.481 . S
C321 C322 1.387 . S
C321 C326 1.390 . S
C322 C321 1.387 . S
C322 C323 1.401 . S
C322 H343 0.930 . S
C323 C322 1.401 . S
C323 C324 1.376 . S
C323 C332 1.511 . S
C324 C323 1.376 . S
C324 C325 1.392 . S
C324 H345 0.931 . S
C325 C324 1.392 . S
C325 C326 1.361 . S
C325 C327 1.500 . S
C326 C321 1.390 . S
C326 C325 1.361 . S
C326 H344 0.931 . S
C327 C325 1.500 . S
C327 C328 1.371 . S
C327 C329 1.365 . S
C328 C327 1.371 . S
C328 C338 1.386 . S
C328 H346 0.931 . S
C329 C327 1.365 . S
C329 C330 1.409 . S
C329 H347 0.929 . S
C330 C329 1.409 . S
C330 C331 1.380 . S
C330 H348 0.930 . S
C331 C330 1.380 . S
C331 C338 1.357 . S
C332 C323 1.511 . S
C332 C333 1.341 . S
C332 C334 1.371 . S
C333 C332 1.341 . S
C333 C337 1.394 . S
C333 H349 0.930 . S
C334 C332 1.371 . S
C334 C335 1.392 . S
C334 H350 0.931 . S
C335 C334 1.392 . S
C335 C336 1.331 . S
C335 H353 0.932 . S
C336 C335 1.331 . S
C336 C337 1.336 . S
C337 C333 1.394 . S
C337 C336 1.336 . S
C337 H352 0.929 . S
C338 C328 1.386 . S
C338 C331 1.357 . S
C338 H351 0.928 . S
H339 C315 0.931 . S
H340 C317 0.930 . S
H341 C319 0.929 . S
H342 C320 0.931 . S
H343 C322 0.930 . S
H344 C326 0.931 . S
H345 C324 0.931 . S
H346 C328 0.931 . S
H347 C329 0.929 . S
H348 C330 0.930 . S
H349 C333 0.930 . S
H350 C334 0.931 . S
H351 C338 0.928 . S
H352 C337 0.929 . S
H353 C335 0.932 . S
H354 C362 0.929 . S
H355 C364 0.930 . S
H356 C366 0.930 . S
H357 C369 0.929 . S
H358 C372 0.930 . S
H359 C374 0.960 . S
H360 C374 0.960 . S
H361 C374 0.960 . S
C362 H354 0.929 . S
C362 C363 1.377 . S
C362 C364 1.384 . S
C363 C362 1.377 . S
C363 C369 1.390 . S
C364 H355 0.930 . S
C364 C362 1.384 . S
C364 C365 1.372 . S
C365 C364 1.372 . S
C365 C366 1.400 . S
C365 C370 1.490 . S
C366 H356 0.930 . S
C366 C365 1.400 . S
C366 C369 1.386 . S
H367 C383 0.930 . S
H368 C384 0.931 . S
C369 H357 0.929 . S
C369 C363 1.390 . S
C369 C366 1.386 . S
C370 C365 1.490 . S
C370 C372 1.395 . S
C370 C373 1.403 . S
H371 C377 0.930 . S
C372 H358 0.930 . S
C372 C370 1.395 . S
C372 C375 1.403 . S
C373 C370 1.403 . S
C373 C374 1.524 . S
C373 C377 1.400 . S
C374 H359 0.960 . S
C374 H360 0.960 . S
C374 H361 0.960 . S
C374 C373 1.524 . S
C375 C372 1.403 . S
C375 C376 1.392 . S
C375 C379 1.495 . S
C376 C375 1.392 . S
C376 C377 1.385 . S
C376 C378 1.478 . S
C377 H371 0.930 . S
C377 C373 1.400 . S
C377 C376 1.385 . S
C378 C376 1.478 . S
C378 C380 1.381 . S
C378 C384 1.383 . S
C379 C375 1.495 . S
C379 H385 0.959 . S
C379 H386 0.961 . S
C379 H387 0.960 . S
C380 C378 1.381 . S
C380 C381 1.394 . S
C380 H388 0.930 . S
C381 C380 1.394 . S
C381 C382 1.383 . S
C381 H389 0.929 . S
C382 C381 1.383 . S
C382 C383 1.377 . S
C383 H367 0.930 . S
C383 C382 1.377 . S
C383 C384 1.379 . S
C384 H368 0.931 . S
C384 C378 1.383 . S
C384 C383 1.379 . S
H385 C379 0.959 . S
H386 C379 0.961 . S
H387 C379 0.960 . S
H388 C380 0.930 . S
H389 C381 0.929 . S
H390 C398 0.929 . S
H391 C400 0.930 . S
H392 C402 0.930 . S
H393 C405 0.929 . S
H394 C408 0.930 . S
H395 C410 0.960 . S
H396 C410 0.960 . S
H397 C410 0.960 . S
C398 H390 0.929 . S
C398 C399 1.377 . S
C398 C400 1.384 . S
C399 C398 1.377 . S
C399 C405 1.390 . S
C400 H391 0.930 . S
C400 C398 1.384 . S
C400 C401 1.372 . S
C401 C400 1.372 . S
C401 C402 1.400 . S
C401 C406 1.490 . S
C402 H392 0.930 . S
C402 C401 1.400 . S
C402 C405 1.386 . S
H403 C419 0.930 . S
H404 C420 0.931 . S
C405 H393 0.929 . S
C405 C399 1.390 . S
C405 C402 1.386 . S
C406 C401 1.490 . S
C406 C408 1.395 . S
C406 C409 1.403 . S
H407 C413 0.930 . S
C408 H394 0.930 . S
C408 C406 1.395 . S
C408 C411 1.403 . S
C409 C406 1.403 . S
C409 C410 1.524 . S
C409 C413 1.400 . S
C410 H395 0.960 . S
C410 H396 0.960 . S
C410 H397 0.960 . S
C410 C409 1.524 . S
C411 C408 1.403 . S
C411 C412 1.392 . S
C411 C415 1.495 . S
C412 C411 1.392 . S
C412 C413 1.385 . S
C412 C414 1.478 . S
C413 H407 0.930 . S
C413 C409 1.400 . S
C413 C412 1.385 . S
C414 C412 1.478 . S
C414 C416 1.381 . S
C414 C420 1.383 . S
C415 C411 1.495 . S
C415 H421 0.959 . S
C415 H422 0.961 . S
C415 H423 0.960 . S
C416 C414 1.381 . S
C416 C417 1.394 . S
C416 H424 0.930 . S
C417 C416 1.394 . S
C417 C418 1.383 . S
C417 H425 0.929 . S
C418 C417 1.383 . S
C418 C419 1.377 . S
C419 H403 0.930 . S
C419 C418 1.377 . S
C419 C420 1.379 . S
C420 H404 0.931 . S
C420 C414 1.383 . S
C420 C419 1.379 . S
H421 C415 0.959 . S
H422 C415 0.961 . S
H423 C415 0.960 . S
H424 C416 0.930 . S
H425 C417 0.929 . S
H426 C434 0.929 . S
H427 C436 0.930 . S
H428 C438 0.930 . S
H429 C441 0.929 . S
H430 C444 0.930 . S
H431 C446 0.960 . S
H432 C446 0.960 . S
H433 C446 0.960 . S
C434 H426 0.929 . S
C434 C435 1.377 . S
C434 C436 1.384 . S
C435 C434 1.377 . S
C435 C441 1.390 . S
C436 H427 0.930 . S
C436 C434 1.384 . S
C436 C437 1.372 . S
C437 C436 1.372 . S
C437 C438 1.400 . S
C437 C442 1.490 . S
C438 H428 0.930 . S
C438 C437 1.400 . S
C438 C441 1.386 . S
H439 C455 0.930 . S
H440 C456 0.931 . S
C441 H429 0.929 . S
C441 C435 1.390 . S
C441 C438 1.386 . S
C442 C437 1.490 . S
C442 C444 1.395 . S
C442 C445 1.403 . S
H443 C449 0.930 . S
C444 H430 0.930 . S
C444 C442 1.395 . S
C444 C447 1.403 . S
C445 C442 1.403 . S
C445 C446 1.524 . S
C445 C449 1.400 . S
C446 H431 0.960 . S
C446 H432 0.960 . S
C446 H433 0.960 . S
C446 C445 1.524 . S
C447 C444 1.403 . S
C447 C448 1.392 . S
C447 C451 1.495 . S
C448 C447 1.392 . S
C448 C449 1.385 . S
C448 C450 1.478 . S
C449 H443 0.930 . S
C449 C445 1.400 . S
C449 C448 1.385 . S
C450 C448 1.478 . S
C450 C452 1.381 . S
C450 C456 1.383 . S
C451 C447 1.495 . S
C451 H457 0.959 . S
C451 H458 0.961 . S
C451 H459 0.960 . S
C452 C450 1.381 . S
C452 C453 1.394 . S
C452 H460 0.930 . S
C453 C452 1.394 . S
C453 C454 1.383 . S
C453 H461 0.929 . S
C454 C453 1.383 . S
C454 C455 1.377 . S
C455 H439 0.930 . S
C455 C454 1.377 . S
C455 C456 1.379 . S
C456 H440 0.931 . S
C456 C450 1.383 . S
C456 C455 1.379 . S
H457 C451 0.959 . S
H458 C451 0.961 . S
H459 C451 0.960 . S
H460 C452 0.930 . S
H461 C453 0.929 . S
H462 C470 0.929 . S
H463 C472 0.930 . S
H464 C474 0.930 . S
H465 C477 0.929 . S
H466 C480 0.930 . S
H467 C482 0.960 . S
H468 C482 0.960 . S
H469 C482 0.960 . S
C470 H462 0.929 . S
C470 C471 1.377 . S
C470 C472 1.384 . S
C471 C470 1.377 . S
C471 C477 1.390 . S
C472 H463 0.930 . S
C472 C470 1.384 . S
C472 C473 1.372 . S
C473 C472 1.372 . S
C473 C474 1.400 . S
C473 C478 1.490 . S
C474 H464 0.930 . S
C474 C473 1.400 . S
C474 C477 1.386 . S
H475 C491 0.930 . S
H476 C492 0.931 . S
C477 H465 0.929 . S
C477 C471 1.390 . S
C477 C474 1.386 . S
C478 C473 1.490 . S
C478 C480 1.395 . S
C478 C481 1.403 . S
H479 C485 0.930 . S
C480 H466 0.930 . S
C480 C478 1.395 . S
C480 C483 1.403 . S
C481 C478 1.403 . S
C481 C482 1.524 . S
C481 C485 1.400 . S
C482 H467 0.960 . S
C482 H468 0.960 . S
C482 H469 0.960 . S
C482 C481 1.524 . S
C483 C480 1.403 . S
C483 C484 1.392 . S
C483 C487 1.495 . S
C484 C483 1.392 . S
C484 C485 1.385 . S
C484 C486 1.478 . S
C485 H479 0.930 . S
C485 C481 1.400 . S
C485 C484 1.385 . S
C486 C484 1.478 . S
C486 C488 1.381 . S
C486 C492 1.383 . S
C487 C483 1.495 . S
C487 H493 0.959 . S
C487 H494 0.961 . S
C487 H495 0.960 . S
C488 C486 1.381 . S
C488 C489 1.394 . S
C488 H496 0.930 . S
C489 C488 1.394 . S
C489 C490 1.383 . S
C489 H497 0.929 . S
C490 C489 1.383 . S
C490 C491 1.377 . S
C491 H475 0.930 . S
C491 C490 1.377 . S
C491 C492 1.379 . S
C492 H476 0.931 . S
C492 C486 1.383 . S
C492 C491 1.379 . S
H493 C487 0.959 . S
H494 C487 0.961 . S
H495 C487 0.960 . S
H496 C488 0.930 . S
H497 C489 0.929 . S
H498 C506 0.929 . S
H499 C508 0.930 . S
H500 C510 0.930 . S
H501 C513 0.929 . S
H502 C516 0.930 . S
H503 C518 0.960 . S
H504 C518 0.960 . S
H505 C518 0.960 . S
C506 H498 0.929 . S
C506 C507 1.377 . S
C506 C508 1.384 . S
C507 C506 1.377 . S
C507 C513 1.390 . S
C508 H499 0.930 . S
C508 C506 1.384 . S
C508 C509 1.372 . S
C509 C508 1.372 . S
C509 C510 1.400 . S
C509 C514 1.490 . S
C510 H500 0.930 . S
C510 C509 1.400 . S
C510 C513 1.386 . S
H511 C527 0.930 . S
H512 C528 0.931 . S
C513 H501 0.929 . S
C513 C507 1.390 . S
C513 C510 1.386 . S
C514 C509 1.490 . S
C514 C516 1.395 . S
C514 C517 1.403 . S
H515 C521 0.930 . S
C516 H502 0.930 . S
C516 C514 1.395 . S
C516 C519 1.403 . S
C517 C514 1.403 . S
C517 C518 1.524 . S
C517 C521 1.400 . S
C518 H503 0.960 . S
C518 H504 0.960 . S
C518 H505 0.960 . S
C518 C517 1.524 . S
C519 C516 1.403 . S
C519 C520 1.392 . S
C519 C523 1.495 . S
C520 C519 1.392 . S
C520 C521 1.385 . S
C520 C522 1.478 . S
C521 H515 0.930 . S
C521 C517 1.400 . S
C521 C520 1.385 . S
C522 C520 1.478 . S
C522 C524 1.381 . S
C522 C528 1.383 . S
C523 C519 1.495 . S
C523 H529 0.959 . S
C523 H530 0.961 . S
C523 H531 0.960 . S
C524 C522 1.381 . S
C524 C525 1.394 . S
C524 H532 0.930 . S
C525 C524 1.394 . S
C525 C526 1.383 . S
C525 H533 0.929 . S
C526 C525 1.383 . S
C526 C527 1.377 . S
C527 H511 0.930 . S
C527 C526 1.377 . S
C527 C528 1.379 . S
C528 H512 0.931 . S
C528 C522 1.383 . S
C528 C527 1.379 . S
H529 C523 0.959 . S
H530 C523 0.961 . S
H531 C523 0.960 . S
H532 C524 0.930 . S
H533 C525 0.929 . S
H534 C542 0.929 . S
H535 C544 0.930 . S
H536 C546 0.930 . S
H537 C549 0.929 . S
H538 C552 0.930 . S
H539 C554 0.960 . S
H540 C554 0.960 . S
H541 C554 0.960 . S
C542 H534 0.929 . S
C542 C543 1.377 . S
C542 C544 1.384 . S
C543 C542 1.377 . S
C543 C549 1.390 . S
C544 H535 0.930 . S
C544 C542 1.384 . S
C544 C545 1.372 . S
C545 C544 1.372 . S
C545 C546 1.400 . S
C545 C550 1.490 . S
C546 H536 0.930 . S
C546 C545 1.400 . S
C546 C549 1.386 . S
H547 C563 0.930 . S
H548 C564 0.931 . S
C549 H537 0.929 . S
C549 C543 1.390 . S
C549 C546 1.386 . S
C550 C545 1.490 . S
C550 C552 1.395 . S
C550 C553 1.403 . S
H551 C557 0.930 . S
C552 H538 0.930 . S
C552 C550 1.395 . S
C552 C555 1.403 . S
C553 C550 1.403 . S
C553 C554 1.524 . S
C553 C557 1.400 . S
C554 H539 0.960 . S
C554 H540 0.960 . S
C554 H541 0.960 . S
C554 C553 1.524 . S
C555 C552 1.403 . S
C555 C556 1.392 . S
C555 C559 1.495 . S
C556 C555 1.392 . S
C556 C557 1.385 . S
C556 C558 1.478 . S
C557 H551 0.930 . S
C557 C553 1.400 . S
C557 C556 1.385 . S
C558 C556 1.478 . S
C558 C560 1.381 . S
C558 C564 1.383 . S
C559 C555 1.495 . S
C559 H565 0.959 . S
C559 H566 0.961 . S
C559 H567 0.960 . S
C560 C558 1.381 . S
C560 C561 1.394 . S
C560 H568 0.930 . S
C561 C560 1.394 . S
C561 C562 1.383 . S
C561 H569 0.929 . S
C562 C561 1.383 . S
C562 C563 1.377 . S
C563 H547 0.930 . S
C563 C562 1.377 . S
C563 C564 1.379 . S
C564 H548 0.931 . S
C564 C558 1.383 . S
C564 C563 1.379 . S
H565 C559 0.959 . S
H566 C559 0.961 . S
H567 C559 0.960 . S
H568 C560 0.930 . S
H569 C561 0.929 . S
H570 C578 0.929 . S
H571 C580 0.930 . S
H572 C582 0.930 . S
H573 C585 0.929 . S
H574 C588 0.930 . S
H575 C590 0.960 . S
H576 C590 0.960 . S
H577 C590 0.960 . S
C578 H570 0.929 . S
C578 C579 1.377 . S
C578 C580 1.384 . S
C579 C578 1.377 . S
C579 C585 1.390 . S
C580 H571 0.930 . S
C580 C578 1.384 . S
C580 C581 1.372 . S
C581 C580 1.372 . S
C581 C582 1.400 . S
C581 C586 1.490 . S
C582 H572 0.930 . S
C582 C581 1.400 . S
C582 C585 1.386 . S
H583 C599 0.930 . S
H584 C600 0.931 . S
C585 H573 0.929 . S
C585 C579 1.390 . S
C585 C582 1.386 . S
C586 C581 1.490 . S
C586 C588 1.395 . S
C586 C589 1.403 . S
H587 C593 0.930 . S
C588 H574 0.930 . S
C588 C586 1.395 . S
C588 C591 1.403 . S
C589 C586 1.403 . S
C589 C590 1.524 . S
C589 C593 1.400 . S
C590 H575 0.960 . S
C590 H576 0.960 . S
C590 H577 0.960 . S
C590 C589 1.524 . S
C591 C588 1.403 . S
C591 C592 1.392 . S
C591 C595 1.495 . S
C592 C591 1.392 . S
C592 C593 1.385 . S
C592 C594 1.478 . S
C593 H587 0.930 . S
C593 C589 1.400 . S
C593 C592 1.385 . S
C594 C592 1.478 . S
C594 C596 1.381 . S
C594 C600 1.383 . S
C595 C591 1.495 . S
C595 H601 0.959 . S
C595 H602 0.961 . S
C595 H603 0.960 . S
C596 C594 1.381 . S
C596 C597 1.394 . S
C596 H604 0.930 . S
C597 C596 1.394 . S
C597 C598 1.383 . S
C597 H605 0.929 . S
C598 C597 1.383 . S
C598 C599 1.377 . S
C599 H583 0.930 . S
C599 C598 1.377 . S
C599 C600 1.379 . S
C600 H584 0.931 . S
C600 C594 1.383 . S
C600 C599 1.379 . S
H601 C595 0.959 . S
H602 C595 0.961 . S
H603 C595 0.960 . S
H604 C596 0.930 . S
H605 C597 0.929 . S
H606 C614 0.929 . S
H607 C616 0.930 . S
H608 C618 0.930 . S
H609 C621 0.929 . S
H610 C624 0.930 . S
H611 C626 0.960 . S
H612 C626 0.960 . S
H613 C626 0.960 . S
C614 H606 0.929 . S
C614 C615 1.377 . S
C614 C616 1.384 . S
C615 C614 1.377 . S
C615 C621 1.390 . S
C616 H607 0.930 . S
C616 C614 1.384 . S
C616 C617 1.372 . S
C617 C616 1.372 . S
C617 C618 1.400 . S
C617 C622 1.490 . S
C618 H608 0.930 . S
C618 C617 1.400 . S
C618 C621 1.386 . S
H619 C635 0.930 . S
H620 C636 0.931 . S
C621 H609 0.929 . S
C621 C615 1.390 . S
C621 C618 1.386 . S
C622 C617 1.490 . S
C622 C624 1.395 . S
C622 C625 1.403 . S
H623 C629 0.930 . S
C624 H610 0.930 . S
C624 C622 1.395 . S
C624 C627 1.403 . S
C625 C622 1.403 . S
C625 C626 1.524 . S
C625 C629 1.400 . S
C626 H611 0.960 . S
C626 H612 0.960 . S
C626 H613 0.960 . S
C626 C625 1.524 . S
C627 C624 1.403 . S
C627 C628 1.392 . S
C627 C631 1.495 . S
C628 C627 1.392 . S
C628 C629 1.385 . S
C628 C630 1.478 . S
C629 H623 0.930 . S
C629 C625 1.400 . S
C629 C628 1.385 . S
C630 C628 1.478 . S
C630 C632 1.381 . S
C630 C636 1.383 . S
C631 C627 1.495 . S
C631 H637 0.959 . S
C631 H638 0.961 . S
C631 H639 0.960 . S
C632 C630 1.381 . S
C632 C633 1.394 . S
C632 H640 0.930 . S
C633 C632 1.394 . S
C633 C634 1.383 . S
C633 H641 0.929 . S
C634 C633 1.383 . S
C634 C635 1.377 . S
C635 H619 0.930 . S
C635 C634 1.377 . S
C635 C636 1.379 . S
C636 H620 0.931 . S
C636 C630 1.383 . S
C636 C635 1.379 . S
H637 C631 0.959 . S
H638 C631 0.961 . S
H639 C631 0.960 . S
H640 C632 0.930 . S
H641 C633 0.929 . S
H642 C650 0.929 . S
H643 C652 0.930 . S
H644 C654 0.930 . S
H645 C657 0.929 . S
H646 C660 0.930 . S
H647 C662 0.960 . S
H648 C662 0.960 . S
H649 C662 0.960 . S
C650 H642 0.929 . S
C650 C651 1.377 . S
C650 C652 1.384 . S
C651 C650 1.377 . S
C651 C657 1.390 . S
C652 H643 0.930 . S
C652 C650 1.384 . S
C652 C653 1.372 . S
C653 C652 1.372 . S
C653 C654 1.400 . S
C653 C658 1.490 . S
C654 H644 0.930 . S
C654 C653 1.400 . S
C654 C657 1.386 . S
H655 C671 0.930 . S
H656 C672 0.931 . S
C657 H645 0.929 . S
C657 C651 1.390 . S
C657 C654 1.386 . S
C658 C653 1.490 . S
C658 C660 1.395 . S
C658 C661 1.403 . S
H659 C665 0.930 . S
C660 H646 0.930 . S
C660 C658 1.395 . S
C660 C663 1.403 . S
C661 C658 1.403 . S
C661 C662 1.524 . S
C661 C665 1.400 . S
C662 H647 0.960 . S
C662 H648 0.960 . S
C662 H649 0.960 . S
C662 C661 1.524 . S
C663 C660 1.403 . S
C663 C664 1.392 . S
C663 C667 1.495 . S
C664 C663 1.392 . S
C664 C665 1.385 . S
C664 C666 1.478 . S
C665 H659 0.930 . S
C665 C661 1.400 . S
C665 C664 1.385 . S
C666 C664 1.478 . S
C666 C668 1.381 . S
C666 C672 1.383 . S
C667 C663 1.495 . S
C667 H673 0.959 . S
C667 H674 0.961 . S
C667 H675 0.960 . S
C668 C666 1.381 . S
C668 C669 1.394 . S
C668 H676 0.930 . S
C669 C668 1.394 . S
C669 C670 1.383 . S
C669 H677 0.929 . S
C670 C669 1.383 . S
C670 C671 1.377 . S
C671 H655 0.930 . S
C671 C670 1.377 . S
C671 C672 1.379 . S
C672 H656 0.931 . S
C672 C666 1.383 . S
C672 C671 1.379 . S
H673 C667 0.959 . S
H674 C667 0.961 . S
H675 C667 0.960 . S
H676 C668 0.930 . S
H677 C669 0.929 . S
H678 C686 0.929 . S
H679 C688 0.930 . S
H680 C690 0.930 . S
H681 C693 0.929 . S
H682 C696 0.930 . S
H683 C698 0.960 . S
H684 C698 0.960 . S
H685 C698 0.960 . S
C686 H678 0.929 . S
C686 C687 1.377 . S
C686 C688 1.384 . S
C687 C686 1.377 . S
C687 C693 1.390 . S
C688 H679 0.930 . S
C688 C686 1.384 . S
C688 C689 1.372 . S
C689 C688 1.372 . S
C689 C690 1.400 . S
C689 C694 1.490 . S
C690 H680 0.930 . S
C690 C689 1.400 . S
C690 C693 1.386 . S
H691 C707 0.930 . S
H692 C708 0.931 . S
C693 H681 0.929 . S
C693 C687 1.390 . S
C693 C690 1.386 . S
C694 C689 1.490 . S
C694 C696 1.395 . S
C694 C697 1.403 . S
H695 C701 0.930 . S
C696 H682 0.930 . S
C696 C694 1.395 . S
C696 C699 1.403 . S
C697 C694 1.403 . S
C697 C698 1.524 . S
C697 C701 1.400 . S
C698 H683 0.960 . S
C698 H684 0.960 . S
C698 H685 0.960 . S
C698 C697 1.524 . S
C699 C696 1.403 . S
C699 C700 1.392 . S
C699 C703 1.495 . S
C700 C699 1.392 . S
C700 C701 1.385 . S
C700 C702 1.478 . S
C701 H695 0.930 . S
C701 C697 1.400 . S
C701 C700 1.385 . S
C702 C700 1.478 . S
C702 C704 1.381 . S
C702 C708 1.383 . S
C703 C699 1.495 . S
C703 H709 0.959 . S
C703 H710 0.961 . S
C703 H711 0.960 . S
C704 C702 1.381 . S
C704 C705 1.394 . S
C704 H712 0.930 . S
C705 C704 1.394 . S
C705 C706 1.383 . S
C705 H713 0.929 . S
C706 C705 1.383 . S
C706 C707 1.377 . S
C707 H691 0.930 . S
C707 C706 1.377 . S
C707 C708 1.379 . S
C708 H692 0.931 . S
C708 C702 1.383 . S
C708 C707 1.379 . S
H709 C703 0.959 . S
H710 C703 0.961 . S
H711 C703 0.960 . S
H712 C704 0.930 . S
H713 C705 0.929 . S
H714 C722 0.929 . S
H715 C724 0.930 . S
H716 C726 0.930 . S
H717 C729 0.929 . S
H718 C732 0.930 . S
H719 C734 0.960 . S
H720 C734 0.960 . S
H721 C734 0.960 . S
C722 H714 0.929 . S
C722 C723 1.377 . S
C722 C724 1.384 . S
C723 C722 1.377 . S
C723 C729 1.390 . S
C724 H715 0.930 . S
C724 C722 1.384 . S
C724 C725 1.372 . S
C725 C724 1.372 . S
C725 C726 1.400 . S
C725 C730 1.490 . S
C726 H716 0.930 . S
C726 C725 1.400 . S
C726 C729 1.386 . S
H727 C743 0.930 . S
H728 C744 0.931 . S
C729 H717 0.929 . S
C729 C723 1.390 . S
C729 C726 1.386 . S
C730 C725 1.490 . S
C730 C732 1.395 . S
C730 C733 1.403 . S
H731 C737 0.930 . S
C732 H718 0.930 . S
C732 C730 1.395 . S
C732 C735 1.403 . S
C733 C730 1.403 . S
C733 C734 1.524 . S
C733 C737 1.400 . S
C734 H719 0.960 . S
C734 H720 0.960 . S
C734 H721 0.960 . S
C734 C733 1.524 . S
C735 C732 1.403 . S
C735 C736 1.392 . S
C735 C739 1.495 . S
C736 C735 1.392 . S
C736 C737 1.385 . S
C736 C738 1.478 . S
C737 H731 0.930 . S
C737 C733 1.400 . S
C737 C736 1.385 . S
C738 C736 1.478 . S
C738 C740 1.381 . S
C738 C744 1.383 . S
C739 C735 1.495 . S
C739 H745 0.959 . S
C739 H746 0.961 . S
C739 H747 0.960 . S
C740 C738 1.381 . S
C740 C741 1.394 . S
C740 H748 0.930 . S
C741 C740 1.394 . S
C741 C742 1.383 . S
C741 H749 0.929 . S
C742 C741 1.383 . S
C742 C743 1.377 . S
C743 H727 0.930 . S
C743 C742 1.377 . S
C743 C744 1.379 . S
C744 H728 0.931 . S
C744 C738 1.383 . S
C744 C743 1.379 . S
H745 C739 0.959 . S
H746 C739 0.961 . S
H747 C739 0.960 . S
H748 C740 0.930 . S
H749 C741 0.929 . S
H750 C758 0.929 . S
H751 C760 0.930 . S
H752 C762 0.930 . S
H753 C765 0.929 . S
H754 C768 0.930 . S
H755 C770 0.960 . S
H756 C770 0.960 . S
H757 C770 0.960 . S
C758 H750 0.929 . S
C758 C759 1.377 . S
C758 C760 1.384 . S
C759 C758 1.377 . S
C759 C765 1.390 . S
C760 H751 0.930 . S
C760 C758 1.384 . S
C760 C761 1.372 . S
C761 C760 1.372 . S
C761 C762 1.400 . S
C761 C766 1.490 . S
C762 H752 0.930 . S
C762 C761 1.400 . S
C762 C765 1.386 . S
H763 C779 0.930 . S
H764 C780 0.931 . S
C765 H753 0.929 . S
C765 C759 1.390 . S
C765 C762 1.386 . S
C766 C761 1.490 . S
C766 C768 1.395 . S
C766 C769 1.403 . S
H767 C773 0.930 . S
C768 H754 0.930 . S
C768 C766 1.395 . S
C768 C771 1.403 . S
C769 C766 1.403 . S
C769 C770 1.524 . S
C769 C773 1.400 . S
C770 H755 0.960 . S
C770 H756 0.960 . S
C770 H757 0.960 . S
C770 C769 1.524 . S
C771 C768 1.403 . S
C771 C772 1.392 . S
C771 C775 1.495 . S
C772 C771 1.392 . S
C772 C773 1.385 . S
C772 C774 1.478 . S
C773 H767 0.930 . S
C773 C769 1.400 . S
C773 C772 1.385 . S
C774 C772 1.478 . S
C774 C776 1.381 . S
C774 C780 1.383 . S
C775 C771 1.495 . S
C775 H781 0.959 . S
C775 H782 0.961 . S
C775 H783 0.960 . S
C776 C774 1.381 . S
C776 C777 1.394 . S
C776 H784 0.930 . S
C777 C776 1.394 . S
C777 C778 1.383 . S
C777 H785 0.929 . S
C778 C777 1.383 . S
C778 C779 1.377 . S
C779 H763 0.930 . S
C779 C778 1.377 . S
C779 C780 1.379 . S
C780 H764 0.931 . S
C780 C774 1.383 . S
C780 C779 1.379 . S
H781 C775 0.959 . S
H782 C775 0.961 . S
H783 C775 0.960 . S
H784 C776 0.930 . S
H785 C777 0.929 . S
H786 C794 0.929 . S
H787 C796 0.930 . S
H788 C798 0.930 . S
H789 C801 0.929 . S
H790 C804 0.930 . S
H791 C806 0.960 . S
H792 C806 0.960 . S
H793 C806 0.960 . S
C794 H786 0.929 . S
C794 C795 1.377 . S
C794 C796 1.384 . S
C795 C794 1.377 . S
C795 C801 1.390 . S
C796 H787 0.930 . S
C796 C794 1.384 . S
C796 C797 1.372 . S
C797 C796 1.372 . S
C797 C798 1.400 . S
C797 C802 1.490 . S
C798 H788 0.930 . S
C798 C797 1.400 . S
C798 C801 1.386 . S
H799 C815 0.930 . S
H800 C816 0.931 . S
C801 H789 0.929 . S
C801 C795 1.390 . S
C801 C798 1.386 . S
C802 C797 1.490 . S
C802 C804 1.395 . S
C802 C805 1.403 . S
H803 C809 0.930 . S
C804 H790 0.930 . S
C804 C802 1.395 . S
C804 C807 1.403 . S
C805 C802 1.403 . S
C805 C806 1.524 1_455 S
C805 C809 1.400 . S
C806 H791 0.960 . S
C806 H792 0.960 . S
C806 H793 0.960 . S
C806 C805 1.524 1_655 S
C807 C804 1.403 . S
C807 C808 1.392 . S
C807 C811 1.495 . S
C808 C807 1.392 . S
C808 C809 1.385 . S
C808 C810 1.478 . S
C809 H803 0.930 . S
C809 C805 1.400 . S
C809 C808 1.385 . S
C810 C808 1.478 . S
C810 C812 1.381 . S
C810 C816 1.383 . S
C811 C807 1.495 . S
C811 H817 0.959 . S
C811 H818 0.961 . S
C811 H819 0.960 . S
C812 C810 1.381 . S
C812 C813 1.394 1_554 S
C812 H820 0.930 . S
C813 C812 1.394 1_556 S
C813 C814 1.383 . S
C813 H821 0.929 . S
C814 C813 1.383 . S
C814 C815 1.377 . S
C815 H799 0.930 . S
C815 C814 1.377 . S
C815 C816 1.379 1_556 S
C816 H800 0.931 . S
C816 C810 1.383 . S
C816 C815 1.379 1_554 S
H817 C811 0.959 . S
H818 C811 0.961 . S
H819 C811 0.960 . S
H820 C812 0.930 . S
H821 C813 0.929 . S
H822 C830 0.929 . S
H823 C832 0.930 . S
H824 C834 0.930 . S
H825 C837 0.929 . S
H826 C840 0.930 . S
H827 C842 0.960 . S
H828 C842 0.960 . S
H829 C842 0.960 . S
C830 H822 0.929 . S
C830 C831 1.377 . S
C830 C832 1.384 . S
C831 C830 1.377 . S
C831 C837 1.390 . S
C832 H823 0.930 . S
C832 C830 1.384 . S
C832 C833 1.372 . S
C833 C832 1.372 . S
C833 C834 1.400 . S
C833 C838 1.490 . S
C834 H824 0.930 . S
C834 C833 1.400 . S
C834 C837 1.386 . S
H835 C851 0.930 . S
H836 C852 0.931 . S
C837 H825 0.929 . S
C837 C831 1.390 . S
C837 C834 1.386 . S
C838 C833 1.490 . S
C838 C840 1.395 . S
C838 C841 1.403 . S
H839 C845 0.930 1_565 S
C840 H826 0.930 . S
C840 C838 1.395 . S
C840 C843 1.403 . S
C841 C838 1.403 . S
C841 C842 1.524 1_545 S
C841 C845 1.400 . S
C842 H827 0.960 . S
C842 H828 0.960 . S
C842 H829 0.960 . S
C842 C841 1.524 1_565 S
C843 C840 1.403 . S
C843 C844 1.392 . S
C843 C847 1.495 . S
C844 C843 1.392 . S
C844 C845 1.385 . S
C844 C846 1.478 . S
C845 H839 0.930 1_545 S
C845 C841 1.400 . S
C845 C844 1.385 . S
C846 C844 1.478 . S
C846 C848 1.381 . S
C846 C852 1.383 . S
C847 C843 1.495 . S
C847 H853 0.959 . S
C847 H854 0.961 . S
C847 H855 0.960 . S
C848 C846 1.381 . S
C848 C849 1.394 . S
C848 H856 0.930 . S
C849 C848 1.394 . S
C849 C850 1.383 . S
C849 H857 0.929 . S
C850 C849 1.383 . S
C850 C851 1.377 . S
C851 H835 0.930 . S
C851 C850 1.377 . S
C851 C852 1.379 . S
C852 H836 0.931 . S
C852 C846 1.383 . S
C852 C851 1.379 . S
H853 C847 0.959 . S
H854 C847 0.961 . S
H855 C847 0.960 . S
H856 C848 0.930 . S
H857 C849 0.929 . S
H858 C866 0.929 . S
H859 C868 0.930 . S
H860 C870 0.930 . S
H861 C873 0.929 . S
H862 C876 0.930 . S
H863 C878 0.960 . S
H864 C878 0.960 . S
H865 C878 0.960 . S
C866 H858 0.929 . S
C866 C867 1.377 . S
C866 C868 1.384 . S
C867 C866 1.377 . S
C867 C873 1.390 . S
C868 H859 0.930 . S
C868 C866 1.384 . S
C868 C869 1.372 . S
C869 C868 1.372 . S
C869 C870 1.400 . S
C869 C874 1.490 . S
C870 H860 0.930 . S
C870 C869 1.400 . S
C870 C873 1.386 . S
H871 C887 0.930 . S
H872 C888 0.931 . S
C873 H861 0.929 . S
C873 C867 1.390 . S
C873 C870 1.386 . S
C874 C869 1.490 . S
C874 C876 1.395 . S
C874 C877 1.403 . S
H875 C881 0.930 . S
C876 H862 0.930 . S
C876 C874 1.395 . S
C876 C879 1.403 . S
C877 C874 1.403 . S
C877 C878 1.524 . S
C877 C881 1.400 . S
C878 H863 0.960 . S
C878 H864 0.960 . S
C878 H865 0.960 . S
C878 C877 1.524 . S
C879 C876 1.403 . S
C879 C880 1.392 . S
C879 C883 1.495 . S
C880 C879 1.392 . S
C880 C881 1.385 . S
C880 C882 1.478 . S
C881 H875 0.930 . S
C881 C877 1.400 . S
C881 C880 1.385 . S
C882 C880 1.478 . S
C882 C884 1.381 . S
C882 C888 1.383 . S
C883 C879 1.495 . S
C883 H889 0.959 . S
C883 H890 0.961 . S
C883 H891 0.960 . S
C884 C882 1.381 . S
C884 C885 1.394 . S
C884 H892 0.930 . S
C885 C884 1.394 . S
C885 C886 1.383 . S
C885 H893 0.929 . S
C886 C885 1.383 . S
C886 C887 1.377 . S
C887 H871 0.930 . S
C887 C886 1.377 . S
C887 C888 1.379 . S
C888 H872 0.931 . S
C888 C882 1.383 . S
C888 C887 1.379 . S
H889 C883 0.959 . S
H890 C883 0.961 . S
H891 C883 0.960 . S
H892 C884 0.930 . S
H893 C885 0.929 . S
H894 C902 0.929 1_565 S
H895 C904 0.930 . S
H896 C906 0.930 . S
H897 C909 0.929 . S
H898 C912 0.930 . S
H899 C914 0.960 . S
H900 C914 0.960 . S
H901 C914 0.960 1_545 S
C902 H894 0.929 1_545 S
C902 C903 1.377 . S
C902 C904 1.384 1_545 S
C903 C902 1.377 . S
C903 C909 1.390 . S
C904 H895 0.930 . S
C904 C902 1.384 1_565 S
C904 C905 1.372 1_565 S
C905 C904 1.372 1_545 S
C905 C906 1.400 . S
C905 C910 1.490 . S
C906 H896 0.930 . S
C906 C905 1.400 . S
C906 C909 1.386 . S
H907 C923 0.930 . S
H908 C924 0.931 . S
C909 H897 0.929 . S
C909 C903 1.390 . S
C909 C906 1.386 . S
C910 C905 1.490 . S
C910 C912 1.395 . S
C910 C913 1.403 . S
H911 C917 0.935 1_565 S
C912 H898 0.930 . S
C912 C910 1.395 . S
C912 C915 1.403 . S
C913 C910 1.403 . S
C913 C914 1.524 1_545 S
C913 C917 1.404 . S
C914 H899 0.960 . S
C914 H900 0.960 . S
C914 H901 0.960 1_565 S
C914 C913 1.524 1_565 S
C915 C912 1.403 . S
C915 C916 1.392 . S
C915 C919 1.495 . S
C916 C915 1.392 . S
C916 C917 1.377 . S
C916 C918 1.478 . S
C917 H911 0.935 1_545 S
C917 C913 1.404 . S
C917 C916 1.377 . S
C918 C916 1.478 . S
C918 C920 1.381 1_545 S
C918 C924 1.383 . S
C919 C915 1.495 . S
C919 H925 0.959 . S
C919 H926 0.961 . S
C919 H927 0.960 . S
C920 C918 1.381 1_565 S
C920 C921 1.394 . S
C920 H928 0.930 . S
C921 C920 1.394 . S
C921 C922 1.383 . S
C921 H929 0.929 . S
C922 C921 1.383 . S
C922 C923 1.377 1_565 S
C923 H907 0.930 . S
C923 C922 1.377 1_545 S
C923 C924 1.379 . S
C924 H908 0.931 . S
C924 C918 1.383 . S
C924 C923 1.379 . S
H925 C919 0.959 . S
H926 C919 0.961 . S
H927 C919 0.960 . S
H928 C920 0.930 . S
H929 C921 0.929 . S
H930 C938 0.929 . S
H931 C940 0.930 . S
H932 C942 0.930 . S
H933 C945 0.929 . S
H934 C948 0.930 . S
H935 C950 0.960 . S
H936 C950 0.960 . S
H937 C950 0.960 . S
C938 H930 0.929 . S
C938 C939 1.377 . S
C938 C940 1.384 . S
C939 C938 1.377 . S
C939 C945 1.390 . S
C940 H931 0.930 . S
C940 C938 1.384 . S
C940 C941 1.372 . S
C941 C940 1.372 . S
C941 C942 1.400 . S
C941 C946 1.490 . S
C942 H932 0.930 . S
C942 C941 1.400 . S
C942 C945 1.386 . S
H943 C959 0.930 . S
H944 C960 0.931 . S
C945 H933 0.929 . S
C945 C939 1.390 . S
C945 C942 1.386 . S
C946 C941 1.490 . S
C946 C948 1.395 . S
C946 C949 1.403 . S
H947 C953 0.930 . S
C948 H934 0.930 . S
C948 C946 1.395 . S
C948 C951 1.403 . S
C949 C946 1.403 . S
C949 C950 1.524 . S
C949 C953 1.400 . S
C950 H935 0.960 . S
C950 H936 0.960 . S
C950 H937 0.960 . S
C950 C949 1.524 . S
C951 C948 1.403 . S
C951 C952 1.392 . S
C951 C955 1.495 . S
C952 C951 1.392 . S
C952 C953 1.385 . S
C952 C954 1.478 . S
C953 H947 0.930 . S
C953 C949 1.400 . S
C953 C952 1.385 . S
C954 C952 1.478 . S
C954 C956 1.381 . S
C954 C960 1.383 . S
C955 C951 1.495 . S
C955 H961 0.959 . S
C955 H962 0.961 . S
C955 H963 0.960 . S
C956 C954 1.381 . S
C956 C957 1.394 1_556 S
C956 H964 0.930 . S
C957 C956 1.394 1_554 S
C957 C958 1.383 . S
C957 H965 0.929 . S
C958 C957 1.383 . S
C958 C959 1.377 . S
C959 H943 0.930 . S
C959 C958 1.377 . S
C959 C960 1.379 1_554 S
C960 H944 0.931 . S
C960 C954 1.383 . S
C960 C959 1.379 1_556 S
H961 C955 0.959 . S
H962 C955 0.961 . S
H963 C955 0.960 . S
H964 C956 0.930 . S
H965 C957 0.929 . S
H966 C974 0.902 1_655 S
H967 C976 0.930 . S
H968 C978 0.930 . S
H969 C981 0.929 . S
H970 C984 0.930 . S
H971 C986 0.960 . S
H972 C986 0.960 . S
H973 C986 0.960 . S
C974 H966 0.902 1_455 S
C974 C975 1.411 . S
C974 C976 1.378 1_455 S
C975 C974 1.411 . S
C975 C981 1.390 . S
C976 H967 0.930 . S
C976 C974 1.378 1_655 S
C976 C977 1.372 1_655 S
C977 C976 1.372 1_455 S
C977 C978 1.400 . S
C977 C982 1.490 . S
C978 H968 0.930 . S
C978 C977 1.400 . S
C978 C981 1.386 . S
H979 C995 0.930 . S
H980 C996 0.931 . S
C981 H969 0.929 . S
C981 C975 1.390 . S
C981 C978 1.386 . S
C982 C977 1.490 . S
C982 C984 1.395 1_455 S
C982 C985 1.403 . S
H983 C989 0.930 . S
C984 H970 0.930 . S
C984 C982 1.395 1_655 S
C984 C987 1.403 . S
C985 C982 1.403 . S
C985 C986 1.524 . S
C985 C989 1.400 . S
C986 H971 0.960 . S
C986 H972 0.960 . S
C986 H973 0.960 . S
C986 C985 1.524 . S
C987 C984 1.403 . S
C987 C988 1.392 1_655 S
C987 C991 1.495 . S
C988 C987 1.392 1_455 S
C988 C989 1.385 . S
C988 C990 1.478 . S
C989 H983 0.930 . S
C989 C985 1.400 . S
C989 C988 1.385 . S
C990 C988 1.478 . S
C990 C992 1.381 1_455 S
C990 C996 1.383 . S
C991 C987 1.495 . S
C991 H997 0.959 . S
C991 H998 0.961 . S
C991 H999 0.960 . S
C992 C990 1.381 1_655 S
C992 C993 1.394 . S
C992 H1000 0.930 . S
C993 C992 1.394 . S
C993 C994 1.417 . S
C993 H1001 0.929 . S
C994 C993 1.417 . S
C994 C995 1.338 1_655 S
C995 H979 0.930 . S
C995 C994 1.338 1_455 S
C995 C996 1.379 . S
C996 H980 0.931 . S
C996 C990 1.383 . S
C996 C995 1.379 . S
H997 C991 0.959 . S
H998 C991 0.961 . S
H999 C991 0.960 . S
H1000 C992 0.930 . S
H1001 C993 0.929 . S
C363 C25 0.292 . S
C382 C331 0.295 . S
C399 C65 0.246 . S
C418 C258 0.213 . S
C435 C105 0.293 . S
C454 C297 0.266 . S
C471 C4 0.308 . S
C490 C336 0.122 . S
C526 C253 0.288 . S
C507 C44 0.254 . S
C562 C292 0.305 . S
C543 C84 0.319 . S
C579 C60 2.836 . S
C598 C180 2.803 . S
C615 C100 3.054 . S
C634 C214 3.008 . S
C651 C31 3.041 . S
C670 C136 2.995 . S
C706 C175 2.976 . S
C687 C71 3.024 . S
C742 C219 2.790 . S
C723 C111 2.807 . S
C759 C20 2.831 . S
C778 C141 2.796 . S
C814 C199 1.788 . S
C795 C2 1.721 . S
C831 C42 1.734 . S
C850 C121 1.778 . S
C867 C82 1.733 . S
C886 C160 1.786 . S
C922 C277 1.080 . S
C903 C63 1.077 . S
C958 C316 1.109 . S
C939 C103 1.112 . S
C975 C23 1.077 . S
C994 C238 1.090 . S
