# Generated by pormake.
# Topology anh, (6,3)-cn, num edge types: 1
# Building blocks:
#     Node 0, Type 0, BuildingBlock: MIFKUJ_clean_sbu_0, # of connection points: 6
#     Node 1, Type 0, BuildingBlock: MIFKUJ_clean_sbu_0, # of connection points: 6
#     Node 2, Type 0, BuildingBlock: MIFKUJ_clean_sbu_0, # of connection points: 6
#     Node 3, Type 1, BuildingBlock: PAMTOO_clean_linker_0, # of connection points: 3
#     Node 4, Type 1, BuildingBlock: PAMTOO_clean_linker_0, # of connection points: 3
#     Node 5, Type 1, BuildingBlock: PAMTOO_clean_linker_0, # of connection points: 3
#     Node 6, Type 1, BuildingBlock: PAMTOO_clean_linker_0, # of connection points: 3
#     Node 7, Type 1, BuildingBlock: PAMTOO_clean_linker_0, # of connection points: 3
#     Node 8, Type 1, BuildingBlock: PAMTOO_clean_linker_0, # of connection points: 3
#     Edge 9, Type (0, 1), BuildingBlock: OJICUG_clean_linker_0, # of connection points: 2
#     Edge 10, Type (0, 1), BuildingBlock: OJICUG_clean_linker_0, # of connection points: 2
#     Edge 11, Type (0, 1), BuildingBlock: OJICUG_clean_linker_0, # of connection points: 2
#     Edge 12, Type (0, 1), BuildingBlock: OJICUG_clean_linker_0, # of connection points: 2
#     Edge 13, Type (0, 1), BuildingBlock: OJICUG_clean_linker_0, # of connection points: 2
#     Edge 14, Type (0, 1), BuildingBlock: OJICUG_clean_linker_0, # of connection points: 2
#     Edge 15, Type (0, 1), BuildingBlock: OJICUG_clean_linker_0, # of connection points: 2
#     Edge 16, Type (0, 1), BuildingBlock: OJICUG_clean_linker_0, # of connection points: 2
#     Edge 17, Type (0, 1), BuildingBlock: OJICUG_clean_linker_0, # of connection points: 2
#     Edge 18, Type (0, 1), BuildingBlock: OJICUG_clean_linker_0, # of connection points: 2
#     Edge 19, Type (0, 1), BuildingBlock: OJICUG_clean_linker_0, # of connection points: 2
#     Edge 20, Type (0, 1), BuildingBlock: OJICUG_clean_linker_0, # of connection points: 2
#     Edge 21, Type (0, 1), BuildingBlock: OJICUG_clean_linker_0, # of connection points: 2
#     Edge 22, Type (0, 1), BuildingBlock: OJICUG_clean_linker_0, # of connection points: 2
#     Edge 23, Type (0, 1), BuildingBlock: OJICUG_clean_linker_0, # of connection points: 2
#     Edge 24, Type (0, 1), BuildingBlock: OJICUG_clean_linker_0, # of connection points: 2
#     Edge 25, Type (0, 1), BuildingBlock: OJICUG_clean_linker_0, # of connection points: 2
#     Edge 26, Type (0, 1), BuildingBlock: OJICUG_clean_linker_0, # of connection points: 2
# Relax obj value: 0.080
# Max RMSD: 0.147
# Mean RMSD: 0.112
data_MOF--net-anh--node1-MIFKUJ_clean_sbu_0--node2-PAMTOO_clean_linker_0--edge1-OJICUG_clean_linker_0
_symmetry_space_group_name_H-M    P1
_symmetry_Int_Tables_number       1
_symmetry_cell_setting            triclinic
loop_
_symmetry_equiv_pos_as_xyz
'x, y, z'
_cell_length_a     23.954059
_cell_length_b     23.998493
_cell_length_c     32.830827
_cell_angle_alpha  88.780023
_cell_angle_beta   93.956267
_cell_angle_gamma 119.46183
loop_
_atom_site_label
_atom_site_type_symbol
_atom_site_fract_x
_atom_site_fract_y
_atom_site_fract_z
_atom_type_partial_charge
Zn0 Zn 0.13492 0.59762 0.15627 0.0
Zn1 Zn 0.94812 0.46389 0.1577 0.0
C2 C 0.24001 0.57741 0.16856 0.0
O3 O 0.24757 0.61655 0.19848 0.0
C4 C 0.83133 0.47061 0.14407 0.0
O5 O 0.81383 0.41605 0.12541 0.0
O6 O 0.19205 0.69317 0.15741 0.0
O7 O 0.06057 0.57748 0.11541 0.0
O8 O 0.9896 0.47669 0.10412 0.0
C9 C 0.2286 0.71905 0.1284 0.0
O10 O 0.22716 0.68273 0.09853 0.0
O11 O 0.19131 0.55935 0.14317 0.0
C12 C 0.85255 0.35617 0.19315 0.0
O13 O 0.8657 0.4019 0.21973 0.0
O14 O 0.88691 0.36946 0.16281 0.0
O15 O 0.0072 0.49094 0.20949 0.0
O16 O 0.10884 0.57031 0.21311 0.0
O17 O 0.88961 0.50453 0.15792 0.0
C18 C 0.03562 0.5286 0.09203 0.0
C19 C 0.06018 0.52665 0.22969 0.0
Zn20 Zn 0.63621 0.11721 0.49584 0.0
Zn21 Zn 0.54929 0.91304 0.4991 0.0
C22 C 0.77503 0.20349 0.50942 0.0
O23 O 0.76815 0.1842 0.5474 0.0
C24 C 0.41492 0.82358 0.4818 0.0
O25 O 0.43213 0.83403 0.44404 0.0
O26 O 0.59879 0.17613 0.49931 0.0
O27 O 0.59222 0.05518 0.44893 0.0
O28 O 0.54783 0.94964 0.4436 0.0
C29 C 0.60918 0.21534 0.47028 0.0
O30 O 0.63713 0.2107 0.43845 0.0
O31 O 0.72732 0.17814 0.48324 0.0
C32 C 0.64106 0.86436 0.51254 0.0
O33 O 0.67824 0.91835 0.53261 0.0
O34 O 0.58748 0.85456 0.49579 0.0
O35 O 0.5905 0.9741 0.54757 0.0
O36 O 0.63668 0.0802 0.55061 0.0
O37 O 0.45678 0.85332 0.51086 0.0
C38 C 0.5631 0.00364 0.42787 0.0
C39 C 0.61939 0.02673 0.56767 0.0
Zn40 Zn 0.64171 0.49919 0.82629 0.0
Zn41 Zn 0.52046 0.5808 0.8239 0.0
C42 C 0.62745 0.37893 0.84112 0.0
O43 O 0.65873 0.4106 0.87485 0.0
C44 C 0.52358 0.70082 0.8256 0.0
O45 O 0.46642 0.66634 0.80699 0.0
O46 O 0.73586 0.5533 0.82404 0.0
O47 O 0.59349 0.53325 0.79504 0.0
O48 O 0.53751 0.57161 0.76494 0.0
C49 C 0.76603 0.54467 0.79683 0.0
O50 O 0.73339 0.5037 0.76684 0.0
O51 O 0.61402 0.40796 0.81263 0.0
C52 C 0.40539 0.55143 0.85909 0.0
O53 O 0.44682 0.58773 0.88845 0.0
O54 O 0.42589 0.53771 0.82838 0.0
O55 O 0.559 0.54479 0.86696 0.0
O56 O 0.61969 0.50124 0.88346 0.0
O57 O 0.55745 0.67472 0.83561 0.0
C58 C 0.57517 0.54928 0.76229 0.0
C59 C 0.58315 0.52226 0.89378 0.0
H60 H 0.63901 0.12619 0.271 0.0
H61 H 0.46766 0.95473 0.22983 0.0
H62 H 0.58563 0.09107 0.1425 0.0
H63 H 0.43659 0.00856 0.10756 0.0
C64 C 0.4277 0.98472 0.13768 0.0
O65 O 0.48143 0.98113 0.15193 0.0
H66 H 0.41715 0.01396 0.15853 0.0
C67 C 0.60582 0.09656 0.24625 0.0
C68 C 0.61868 0.11613 0.20591 0.0
C69 C 0.55139 0.03918 0.25534 0.0
C70 C 0.50996 -0.00056 0.22334 0.0
C71 C 0.52226 0.01857 0.18269 0.0
C72 C 0.57679 0.07658 0.17395 0.0
H73 H 0.668 0.66533 0.60685 0.0
H74 H 0.63603 0.47592 0.58395 0.0
H75 H 0.66284 0.60305 0.48383 0.0
H76 H 0.57293 0.45859 0.45922 0.0
C77 C 0.5846 0.44223 0.4889 0.0
O78 O 0.64391 0.48896 0.50496 0.0
H79 H 0.54601 0.43351 0.50945 0.0
C80 C 0.66565 0.62999 0.5857 0.0
C81 C 0.66855 0.64252 0.54369 0.0
C82 C 0.65321 0.56998 0.60037 0.0
C83 C 0.64651 0.52278 0.57298 0.0
C84 C 0.65094 0.53509 0.53109 0.0
C85 C 0.66132 0.59462 0.51639 0.0
H86 H 0.97024 0.56102 0.91626 0.0
H87 H 0.15653 0.5767 0.91262 0.0
H88 H 0.06264 0.60069 0.8029 0.0
H89 H 0.16765 0.55314 0.78291 0.0
C90 C 0.16638 0.54681 0.8165 0.0
O91 O 0.16369 0.59735 0.83371 0.0
H92 H 0.12303 0.50019 0.82246 0.0
C93 C 0.01087 0.56959 0.89919 0.0
C94 C 0.01044 0.58227 0.85723 0.0
C95 C 0.06324 0.56749 0.91936 0.0
C96 C 0.11566 0.57813 0.89739 0.0
C97 C 0.11456 0.58919 0.85532 0.0
C98 C 0.06236 0.59147 0.83536 0.0
H99 H 0.9751 0.40159 0.39789 0.0
H100 H 0.16126 0.56765 0.42088 0.0
H101 H 0.0515 0.46373 0.52112 0.0
H102 H 0.14963 0.61552 0.54511 0.0
C103 C 0.15941 0.61904 0.51229 0.0
O104 O 0.15768 0.56338 0.50009 0.0
H105 H 0.12145 0.62601 0.49522 0.0
C106 C 0.01354 0.43448 0.41895 0.0
C107 C 0.00677 0.42526 0.46112 0.0
C108 C 0.06843 0.48597 0.40367 0.0
C109 C 0.11774 0.52829 0.43159 0.0
C110 C 0.1111 0.52054 0.47372 0.0
C111 C 0.05608 0.46888 0.48847 0.0
H112 H 0.63639 0.93543 0.75029 0.0
H113 H 0.63763 0.1157 0.74891 0.0
H114 H 0.60174 0.00721 0.85886 0.0
H115 H 0.53264 0.08435 0.85253 0.0
C116 C 0.55888 0.11282 0.8262 0.0
O117 O 0.61684 0.11371 0.8258 0.0
H118 H 0.52805 0.08997 0.79781 0.0
C119 C 0.63374 0.97334 0.76591 0.0
C120 C 0.61974 0.96583 0.80702 0.0
C121 C 0.63847 0.02612 0.74401 0.0
C122 C 0.63493 0.07464 0.76499 0.0
C123 C 0.62302 0.06826 0.8065 0.0
C124 C 0.61439 0.01344 0.82738 0.0
H125 H 0.65761 0.52569 0.07002 0.0
H126 H 0.48638 0.54064 0.07389 0.0
H127 H 0.58629 0.53056 0.18571 0.0
H128 H 0.4317 0.47041 0.19039 0.0
C129 C 0.42851 0.49169 0.16053 0.0
O130 O 0.48818 0.54299 0.15343 0.0
H131 H 0.41304 0.45373 0.13661 0.0
C132 C 0.62261 0.52943 0.0874 0.0
C133 C 0.62897 0.52902 0.12998 0.0
C134 C 0.57072 0.53186 0.06684 0.0
C135 C 0.52645 0.53804 0.08939 0.0
C136 C 0.53189 0.53761 0.13224 0.0
C137 C 0.58277 0.53213 0.15268 0.0
C138 C 0.34122 0.57785 0.19403 0.0
C139 C 0.28783 0.55547 0.16545 0.0
H140 H 0.42684 0.57519 0.21468 0.0
C141 C 0.28112 0.5123 0.13468 0.0
H142 H 0.34817 0.61122 0.21813 0.0
C143 C 0.32668 0.49188 0.13276 0.0
C144 C 0.37967 0.51413 0.16161 0.0
H145 H 0.24064 0.49411 0.11222 0.0
H146 H 0.32029 0.45842 0.10887 0.0
C147 C 0.38647 0.55738 0.19214 0.0
C148 C 0.83239 0.29756 0.46525 0.0
C149 C 0.83478 0.2603 0.49811 0.0
H150 H 0.88356 0.3803 0.42942 0.0
C151 C 0.89363 0.27952 0.52057 0.0
H152 H 0.78743 0.285 0.44803 0.0
C153 C 0.94961 0.33391 0.50927 0.0
C154 C 0.94732 0.37042 0.47572 0.0
H155 H 0.89661 0.25189 0.54631 0.0
H156 H 0.99479 0.34641 0.52613 0.0
C157 C 0.88768 0.35227 0.45454 0.0
C158 C 0.50819 0.79561 0.83007 0.0
C159 C 0.54996 0.77016 0.83095 0.0
H160 H 0.499 0.8797 0.82344 0.0
C161 C 0.61665 0.81187 0.83262 0.0
H162 H 0.4566 0.76442 0.82925 0.0
C163 C 0.64074 0.87775 0.829 0.0
C164 C 0.59845 0.90249 0.8248 0.0
H165 H 0.64985 0.79339 0.83348 0.0
H166 H 0.69183 0.90884 0.82653 0.0
C167 C 0.53237 0.86146 0.82732 0.0
C168 C 0.79561 0.55293 0.14876 0.0
C169 C 0.78178 0.48891 0.15042 0.0
H170 H 0.75637 0.61641 0.14162 0.0
C171 C 0.71797 0.4406 0.15473 0.0
H172 H 0.84434 0.59103 0.1455 0.0
C173 C 0.66822 0.45531 0.15393 0.0
C174 C 0.68115 0.5185 0.14827 0.0
H175 H 0.70604 0.39086 0.1567 0.0
H176 H 0.61904 0.41657 0.15389 0.0
C177 C 0.74546 0.56752 0.14711 0.0
C178 C 0.33346 0.75157 0.53005 0.0
C179 C 0.34867 0.77457 0.4903 0.0
H180 H 0.26181 0.6839 0.56805 0.0
C181 C 0.30059 0.74819 0.45826 0.0
H182 H 0.36949 0.77071 0.55535 0.0
C183 C 0.23896 0.69918 0.4657 0.0
C184 C 0.22428 0.67526 0.50521 0.0
H185 H 0.31067 0.76498 0.42732 0.0
H186 H 0.20288 0.67939 0.44047 0.0
C187 C 0.27195 0.70195 0.53736 0.0
C188 C 0.58575 0.27875 0.79906 0.0
C189 C 0.60761 0.31048 0.83712 0.0
H190 H 0.55346 0.19104 0.76576 0.0
C191 C 0.61102 0.27635 0.87165 0.0
H192 H 0.583 0.30397 0.77191 0.0
C193 C 0.59337 0.21187 0.86816 0.0
C194 C 0.572 0.18035 0.83014 0.0
H195 H 0.62754 0.29946 0.90142 0.0
H196 H 0.59728 0.18672 0.89505 0.0
C197 C 0.56864 0.21426 0.79554 0.0
C198 C 0.70644 0.81528 0.54137 0.0
C199 C 0.65626 0.81136 0.51454 0.0
H200 H 0.75032 0.76474 0.57122 0.0
C201 C 0.61669 0.7538 0.49268 0.0
H202 H 0.73815 0.85896 0.55845 0.0
C203 C 0.6241 0.70003 0.49977 0.0
C204 C 0.67092 0.70259 0.52906 0.0
H205 H 0.57792 0.74929 0.47149 0.0
H206 H 0.59035 0.65532 0.48437 0.0
C207 C 0.71348 0.76135 0.5487 0.0
C208 C 0.8681 0.60808 0.83916 0.0
C209 C 0.83504 0.56705 0.8055 0.0
H210 H 0.95019 0.64523 0.88182 0.0
C211 C 0.86528 0.5395 0.78497 0.0
H212 H 0.8465 0.63086 0.85524 0.0
C213 C 0.9247 0.54766 0.80038 0.0
C214 C 0.9545 0.58351 0.83642 0.0
H215 H 0.84115 0.50796 0.75882 0.0
H216 H 0.94508 0.52241 0.78572 0.0
C217 C 0.92721 0.61603 0.85456 0.0
C218 C 0.31215 0.81747 0.09597 0.0
C219 C 0.27541 0.7883 0.12958 0.0
H220 H 0.3888 0.90275 0.07224 0.0
C221 C 0.28615 0.82524 0.16493 0.0
H222 H 0.30494 0.79036 0.06827 0.0
C223 C 0.33413 0.88948 0.16707 0.0
C224 C 0.37148 0.91811 0.13372 0.0
H225 H 0.25884 0.80411 0.19139 0.0
H226 H 0.34308 0.91649 0.19509 0.0
C227 C 0.35989 0.88175 0.0981 0.0
C228 C 0.60893 0.31279 0.4416 0.0
C229 C 0.59757 0.27019 0.47415 0.0
H230 H 0.61377 0.40037 0.42087 0.0
C231 C 0.57969 0.28332 0.51114 0.0
H232 H 0.62314 0.30437 0.41277 0.0
C233 C 0.57455 0.33847 0.51569 0.0
C234 C 0.58637 0.38105 0.4832 0.0
H235 H 0.57127 0.25191 0.53694 0.0
H236 H 0.56214 0.34837 0.54475 0.0
C237 C 0.60362 0.36775 0.44615 0.0
C238 C 0.33204 0.59477 0.86769 0.0
C239 C 0.34094 0.54447 0.85489 0.0
H240 H 0.27134 0.63644 0.86511 0.0
C241 C 0.29096 0.49306 0.83233 0.0
H242 H 0.37052 0.63575 0.88425 0.0
C243 C 0.23355 0.49302 0.82154 0.0
C244 C 0.22565 0.54474 0.83265 0.0
H245 H 0.29719 0.45406 0.82188 0.0
H246 H 0.19609 0.45369 0.80323 0.0
C247 C 0.27523 0.59533 0.85631 0.0
C248 C 0.74582 0.2889 0.22092 0.0
C249 C 0.79222 0.29461 0.19475 0.0
H250 H 0.65366 0.22885 0.2435 0.0
C251 C 0.77873 0.24245 0.16926 0.0
H252 H 0.75385 0.32859 0.2402 0.0
C253 C 0.72081 0.18473 0.17128 0.0
C254 C 0.67567 0.17871 0.19865 0.0
H255 H 0.81332 0.24586 0.14837 0.0
H256 H 0.71235 0.14429 0.1526 0.0
C257 C 0.68816 0.23186 0.22264 0.0
C258 C 0.09278 0.59615 0.03309 0.0
C259 C 0.0477 0.53641 0.048 0.0
H260 H 0.13391 0.65223 0.98036 0.0
C261 C 0.01177 0.48543 0.02007 0.0
H262 H 0.12057 0.6366 0.05358 0.0
C263 C 0.01868 0.49492 0.97814 0.0
C264 C 0.06251 0.55508 0.9635 0.0
H265 H 0.97672 0.43876 0.03043 0.0
H266 H 0.9887 0.45577 0.95704 0.0
C267 C 0.10046 0.60525 0.99122 0.0
C268 C 0.53867 0.95774 0.3566 0.0
C269 C 0.54937 0.00732 0.38365 0.0
H270 H 0.53041 0.92885 0.29394 0.0
C271 C 0.55021 0.06249 0.36785 0.0
H272 H 0.53723 0.91438 0.36798 0.0
C273 C 0.54522 0.07007 0.32586 0.0
C274 C 0.53998 0.02301 0.29874 0.0
H275 H 0.5568 0.10083 0.38789 0.0
H276 H 0.5489 0.1144 0.31448 0.0
C277 C 0.53421 0.96565 0.31432 0.0
C278 C 0.66275 0.58544 0.71502 0.0
C279 C 0.59816 0.54517 0.72287 0.0
H280 H 0.73117 0.62535 0.66907 0.0
C281 C 0.55419 0.50704 0.69131 0.0
H282 H 0.69712 0.61563 0.73908 0.0
C283 C 0.57396 0.51106 0.65181 0.0
C284 C 0.63748 0.5547 0.64324 0.0
H285 H 0.50411 0.47597 0.69692 0.0
H286 H 0.53863 0.48341 0.62743 0.0
C287 C 0.68216 0.5909 0.67523 0.0
C288 C 0.6685 0.08313 0.63486 0.0
C289 C 0.62932 0.02591 0.61257 0.0
H290 H 0.70354 0.12801 0.69382 0.0
C291 C 0.59661 0.96857 0.63377 0.0
H292 H 0.69473 0.12815 0.6194 0.0
C293 C 0.60084 0.96873 0.67631 0.0
C294 C 0.63878 0.0261 0.69877 0.0
H295 H 0.56572 0.92376 0.61757 0.0
H296 H 0.57223 0.92398 0.69151 0.0
C297 C 0.67335 0.08318 0.67752 0.0
C298 C 0.5741 0.47416 0.9621 0.0
C299 C 0.56982 0.52013 0.93705 0.0
H300 H 0.57528 0.44076 0.02268 0.0
C301 C 0.55744 0.56572 0.95438 0.0
H302 H 0.5824 0.43773 0.94944 0.0
C303 C 0.55396 0.56785 -0.00326 0.0
C304 C 0.56258 0.52424 0.02192 0.0
H305 H 0.55405 0.60171 0.9356 0.0
H306 H 0.54808 0.60549 0.00993 0.0
C307 C 0.57002 0.47589 0.004 0.0
C308 C 0.0986 0.56894 0.30098 0.0
C309 C 0.06545 0.51666 0.27384 0.0
H310 H 0.12387 0.60064 0.36323 0.0
C311 C 0.03747 0.45442 0.28914 0.0
H312 H 0.12069 0.61745 0.28974 0.0
C313 C 0.04167 0.44452 0.331 0.0
C314 C 0.07177 0.49671 0.35874 0.0
H315 H 0.01282 0.41333 0.26865 0.0
H316 H 0.02058 0.3957 0.34152 0.0
C317 C 0.10098 0.55914 0.34306 0.0
loop_
_geom_bond_atom_site_label_1
_geom_bond_atom_site_label_2
_geom_bond_distance
_geom_bond_site_symmetry_2
_ccdc_geom_bond_type
Zn0 O6 1.969 . S
Zn0 O7 1.965 . S
Zn0 O11 2.024 . S
Zn0 O16 1.969 . S
Zn1 O8 1.969 . S
Zn1 O14 1.969 . S
Zn1 O15 1.965 . S
Zn1 O17 2.024 . S
C2 O3 1.229 . S
C2 O11 1.058 . S
O3 C2 1.229 . S
C4 O5 1.229 . S
C4 O17 1.058 . S
O5 C4 1.229 . S
O6 Zn0 1.969 . S
O6 C9 1.267 . S
O7 Zn0 1.965 . S
O7 C18 1.260 . S
O8 Zn1 1.969 . S
O8 C18 1.258 1_655 S
C9 O6 1.267 . S
C9 O10 1.228 . S
O10 C9 1.228 . S
O11 Zn0 2.024 . S
O11 C2 1.058 . S
C12 O13 1.228 . S
C12 O14 1.267 . S
O13 C12 1.228 . S
O14 Zn1 1.969 . S
O14 C12 1.267 . S
O15 Zn1 1.965 . S
O15 C19 1.260 1_655 S
O16 Zn0 1.969 . S
O16 C19 1.258 . S
O17 Zn1 2.024 . S
O17 C4 1.058 . S
C18 O7 1.260 . S
C18 O8 1.258 1_455 S
C19 O15 1.260 1_455 S
C19 O16 1.258 . S
Zn20 O26 1.969 . S
Zn20 O27 1.965 . S
Zn20 O31 2.024 . S
Zn20 O36 1.969 . S
Zn21 O28 1.969 . S
Zn21 O34 1.969 . S
Zn21 O35 1.971 . S
Zn21 O37 2.024 . S
C22 O23 1.229 . S
C22 O31 1.058 . S
O23 C22 1.229 . S
C24 O25 1.229 . S
C24 O37 1.058 . S
O25 C24 1.229 . S
O26 Zn20 1.969 . S
O26 C29 1.267 . S
O27 Zn20 1.965 . S
O27 C38 1.260 . S
O28 Zn21 1.969 . S
O28 C38 1.258 1_565 S
C29 O26 1.267 . S
C29 O30 1.228 . S
O30 C29 1.228 . S
O31 Zn20 2.024 . S
O31 C22 1.058 . S
C32 O33 1.228 . S
C32 O34 1.267 . S
O33 C32 1.228 . S
O34 Zn21 1.969 . S
O34 C32 1.267 . S
O35 Zn21 1.971 . S
O35 C39 1.251 1_565 S
O36 Zn20 1.969 . S
O36 C39 1.258 . S
O37 Zn21 2.024 . S
O37 C24 1.058 . S
C38 O27 1.260 . S
C38 O28 1.258 1_545 S
C39 O35 1.251 1_545 S
C39 O36 1.258 . S
Zn40 O46 1.969 . S
Zn40 O47 1.965 . S
Zn40 O51 2.024 . S
Zn40 O56 1.969 . S
Zn41 O48 1.969 . S
Zn41 O54 1.969 . S
Zn41 O55 1.965 . S
Zn41 O57 2.024 . S
C42 O43 1.229 . S
C42 O51 1.058 . S
O43 C42 1.229 . S
C44 O45 1.229 . S
C44 O57 1.058 . S
O45 C44 1.229 . S
O46 Zn40 1.969 . S
O46 C49 1.267 . S
O47 Zn40 1.965 . S
O47 C58 1.260 . S
O48 Zn41 1.969 . S
O48 C58 1.258 . S
C49 O46 1.267 . S
C49 O50 1.228 . S
O50 C49 1.228 . S
O51 Zn40 2.024 . S
O51 C42 1.058 . S
C52 O53 1.228 . S
C52 O54 1.267 . S
O53 C52 1.228 . S
O54 Zn41 1.969 . S
O54 C52 1.267 . S
O55 Zn41 1.965 . S
O55 C59 1.260 . S
O56 Zn40 1.969 . S
O56 C59 1.258 . S
O57 Zn41 2.024 . S
O57 C44 1.058 . S
C58 O47 1.260 . S
C58 O48 1.258 . S
C59 O55 1.260 . S
C59 O56 1.258 . S
H60 C67 0.929 . S
H61 C70 0.930 1_565 S
H62 C72 0.929 . S
H63 C64 0.969 . S
C64 H63 0.969 . S
C64 O65 1.550 . S
C64 H66 0.973 . S
O65 C64 1.550 . S
O65 C71 1.412 1_565 S
H66 C64 0.973 . S
C67 H60 0.929 . S
C67 C68 1.400 . S
C67 C69 1.364 . S
C68 C67 1.400 . S
C68 C72 1.377 . S
C69 C67 1.364 . S
C69 C70 1.374 . S
C70 H61 0.930 1_545 S
C70 C69 1.374 . S
C70 C71 1.383 . S
C71 O65 1.412 1_545 S
C71 C70 1.383 . S
C71 C72 1.394 . S
C72 H62 0.929 . S
C72 C68 1.377 . S
C72 C71 1.394 . S
H73 C80 0.929 . S
H74 C83 0.930 . S
H75 C85 0.929 . S
H76 C77 0.969 . S
C77 H76 0.969 . S
C77 O78 1.550 . S
C77 H79 0.973 . S
O78 C77 1.550 . S
O78 C84 1.412 . S
H79 C77 0.973 . S
C80 H73 0.929 . S
C80 C81 1.400 . S
C80 C82 1.364 . S
C81 C80 1.400 . S
C81 C85 1.377 . S
C82 C80 1.364 . S
C82 C83 1.374 . S
C83 H74 0.930 . S
C83 C82 1.374 . S
C83 C84 1.383 . S
C84 O78 1.412 . S
C84 C83 1.383 . S
C84 C85 1.394 . S
C85 H75 0.929 . S
C85 C81 1.377 . S
C85 C84 1.394 . S
H86 C93 0.929 1_655 S
H87 C96 0.930 . S
H88 C98 0.929 . S
H89 C90 0.969 . S
C90 H89 0.969 . S
C90 O91 1.550 . S
C90 H92 0.973 . S
O91 C90 1.550 . S
O91 C97 1.412 . S
H92 C90 0.973 . S
C93 H86 0.929 1_455 S
C93 C94 1.400 . S
C93 C95 1.364 . S
C94 C93 1.400 . S
C94 C98 1.377 . S
C95 C93 1.364 . S
C95 C96 1.374 . S
C96 H87 0.930 . S
C96 C95 1.374 . S
C96 C97 1.383 . S
C97 O91 1.412 . S
C97 C96 1.383 . S
C97 C98 1.394 . S
C98 H88 0.929 . S
C98 C94 1.377 . S
C98 C97 1.394 . S
H99 C106 0.929 1_655 S
H100 C109 0.930 . S
H101 C111 0.929 . S
H102 C103 0.969 . S
C103 H102 0.969 . S
C103 O104 1.550 . S
C103 H105 0.973 . S
O104 C103 1.550 . S
O104 C110 1.412 . S
H105 C103 0.973 . S
C106 H99 0.929 1_455 S
C106 C107 1.400 . S
C106 C108 1.364 . S
C107 C106 1.400 . S
C107 C111 1.377 . S
C108 C106 1.364 . S
C108 C109 1.374 . S
C109 H100 0.930 . S
C109 C108 1.374 . S
C109 C110 1.383 . S
C110 O104 1.412 . S
C110 C109 1.383 . S
C110 C111 1.394 . S
C111 H101 0.929 . S
C111 C107 1.377 . S
C111 C110 1.394 . S
H112 C119 0.929 . S
H113 C122 0.930 . S
H114 C124 0.929 . S
H115 C116 0.969 . S
C116 H115 0.969 . S
C116 O117 1.550 . S
C116 H118 0.973 . S
O117 C116 1.550 . S
O117 C123 1.412 . S
H118 C116 0.973 . S
C119 H112 0.929 . S
C119 C120 1.400 . S
C119 C121 1.364 1_565 S
C120 C119 1.400 . S
C120 C124 1.377 1_565 S
C121 C119 1.364 1_545 S
C121 C122 1.374 . S
C122 H113 0.930 . S
C122 C121 1.374 . S
C122 C123 1.383 . S
C123 O117 1.412 . S
C123 C122 1.383 . S
C123 C124 1.394 . S
C124 H114 0.929 . S
C124 C120 1.377 1_545 S
C124 C123 1.394 . S
H125 C132 0.929 . S
H126 C135 0.930 . S
H127 C137 0.929 . S
H128 C129 0.969 . S
C129 H128 0.969 . S
C129 O130 1.550 . S
C129 H131 0.973 . S
O130 C129 1.550 . S
O130 C136 1.412 . S
H131 C129 0.973 . S
C132 H125 0.929 . S
C132 C133 1.400 . S
C132 C134 1.364 . S
C133 C132 1.400 . S
C133 C137 1.377 . S
C134 C132 1.364 . S
C134 C135 1.374 . S
C135 H126 0.930 . S
C135 C134 1.374 . S
C135 C136 1.383 . S
C136 O130 1.412 . S
C136 C135 1.383 . S
C136 C137 1.394 . S
C137 H127 0.929 . S
C137 C133 1.377 . S
C137 C136 1.394 . S
C138 C139 1.387 . S
C138 H142 0.950 . S
C138 C147 1.390 . S
C139 C138 1.387 . S
C139 C141 1.387 . S
H140 C147 0.950 . S
C141 C139 1.387 . S
C141 C143 1.390 . S
C141 H145 0.950 . S
H142 C138 0.950 . S
C143 C141 1.390 . S
C143 C144 1.387 . S
C143 H146 0.950 . S
C144 C143 1.387 . S
C144 C147 1.387 . S
H145 C141 0.950 . S
H146 C143 0.950 . S
C147 C138 1.390 . S
C147 H140 0.950 . S
C147 C144 1.387 . S
C148 C149 1.387 . S
C148 H152 0.950 . S
C148 C157 1.390 . S
C149 C148 1.387 . S
C149 C151 1.387 . S
H150 C157 0.950 . S
C151 C149 1.387 . S
C151 C153 1.390 . S
C151 H155 0.950 . S
H152 C148 0.950 . S
C153 C151 1.390 . S
C153 C154 1.387 . S
C153 H156 0.950 . S
C154 C153 1.387 . S
C154 C157 1.387 . S
H155 C151 0.950 . S
H156 C153 0.950 . S
C157 C148 1.390 . S
C157 H150 0.950 . S
C157 C154 1.387 . S
C158 C159 1.387 . S
C158 H162 0.950 . S
C158 C167 1.390 . S
C159 C158 1.387 . S
C159 C161 1.387 . S
H160 C167 0.950 . S
C161 C159 1.387 . S
C161 C163 1.390 . S
C161 H165 0.950 . S
H162 C158 0.950 . S
C163 C161 1.390 . S
C163 C164 1.387 . S
C163 H166 0.950 . S
C164 C163 1.387 . S
C164 C167 1.387 . S
H165 C161 0.950 . S
H166 C163 0.950 . S
C167 C158 1.390 . S
C167 H160 0.950 . S
C167 C164 1.387 . S
C168 C169 1.387 . S
C168 H172 0.950 . S
C168 C177 1.390 . S
C169 C168 1.387 . S
C169 C171 1.387 . S
H170 C177 0.950 . S
C171 C169 1.387 . S
C171 C173 1.390 . S
C171 H175 0.950 . S
H172 C168 0.950 . S
C173 C171 1.390 . S
C173 C174 1.387 . S
C173 H176 0.950 . S
C174 C173 1.387 . S
C174 C177 1.387 . S
H175 C171 0.950 . S
H176 C173 0.950 . S
C177 C168 1.390 . S
C177 H170 0.950 . S
C177 C174 1.387 . S
C178 C179 1.387 . S
C178 H182 0.950 . S
C178 C187 1.390 . S
C179 C178 1.387 . S
C179 C181 1.387 . S
H180 C187 0.950 . S
C181 C179 1.387 . S
C181 C183 1.390 . S
C181 H185 0.950 . S
H182 C178 0.950 . S
C183 C181 1.390 . S
C183 C184 1.387 . S
C183 H186 0.950 . S
C184 C183 1.387 . S
C184 C187 1.387 . S
H185 C181 0.950 . S
H186 C183 0.950 . S
C187 C178 1.390 . S
C187 H180 0.950 . S
C187 C184 1.387 . S
C188 C189 1.387 . S
C188 H192 0.950 . S
C188 C197 1.390 . S
C189 C188 1.387 . S
C189 C191 1.387 . S
H190 C197 0.950 . S
C191 C189 1.387 . S
C191 C193 1.390 . S
C191 H195 0.950 . S
H192 C188 0.950 . S
C193 C191 1.390 . S
C193 C194 1.387 . S
C193 H196 0.950 . S
C194 C193 1.387 . S
C194 C197 1.387 . S
H195 C191 0.950 . S
H196 C193 0.950 . S
C197 C188 1.390 . S
C197 H190 0.950 . S
C197 C194 1.387 . S
C198 C199 1.387 . S
C198 H202 0.950 . S
C198 C207 1.390 . S
C199 C198 1.387 . S
C199 C201 1.387 . S
H200 C207 0.950 . S
C201 C199 1.387 . S
C201 C203 1.390 . S
C201 H205 0.950 . S
H202 C198 0.950 . S
C203 C201 1.390 . S
C203 C204 1.387 . S
C203 H206 0.950 . S
C204 C203 1.387 . S
C204 C207 1.387 . S
H205 C201 0.950 . S
H206 C203 0.950 . S
C207 C198 1.390 . S
C207 H200 0.950 . S
C207 C204 1.387 . S
C208 C209 1.387 . S
C208 H212 0.950 . S
C208 C217 1.390 . S
C209 C208 1.387 . S
C209 C211 1.387 . S
H210 C217 0.950 . S
C211 C209 1.387 . S
C211 C213 1.390 . S
C211 H215 0.950 . S
H212 C208 0.950 . S
C213 C211 1.390 . S
C213 C214 1.387 . S
C213 H216 0.950 . S
C214 C213 1.387 . S
C214 C217 1.387 . S
H215 C211 0.950 . S
H216 C213 0.950 . S
C217 C208 1.390 . S
C217 H210 0.950 . S
C217 C214 1.387 . S
C218 C219 1.387 . S
C218 H222 0.950 . S
C218 C227 1.390 . S
C219 C218 1.387 . S
C219 C221 1.387 . S
H220 C227 0.950 . S
C221 C219 1.387 . S
C221 C223 1.390 . S
C221 H225 0.950 . S
H222 C218 0.950 . S
C223 C221 1.390 . S
C223 C224 1.387 . S
C223 H226 0.950 . S
C224 C223 1.387 . S
C224 C227 1.387 . S
H225 C221 0.950 . S
H226 C223 0.950 . S
C227 C218 1.390 . S
C227 H220 0.950 . S
C227 C224 1.387 . S
C228 C229 1.387 . S
C228 H232 0.950 . S
C228 C237 1.390 . S
C229 C228 1.387 . S
C229 C231 1.387 . S
H230 C237 0.950 . S
C231 C229 1.387 . S
C231 C233 1.390 . S
C231 H235 0.950 . S
H232 C228 0.950 . S
C233 C231 1.390 . S
C233 C234 1.387 . S
C233 H236 0.950 . S
C234 C233 1.387 . S
C234 C237 1.387 . S
H235 C231 0.950 . S
H236 C233 0.950 . S
C237 C228 1.390 . S
C237 H230 0.950 . S
C237 C234 1.387 . S
C238 C239 1.387 . S
C238 H242 0.950 . S
C238 C247 1.390 . S
C239 C238 1.387 . S
C239 C241 1.387 . S
H240 C247 0.950 . S
C241 C239 1.387 . S
C241 C243 1.390 . S
C241 H245 0.950 . S
H242 C238 0.950 . S
C243 C241 1.390 . S
C243 C244 1.387 . S
C243 H246 0.950 . S
C244 C243 1.387 . S
C244 C247 1.387 . S
H245 C241 0.950 . S
H246 C243 0.950 . S
C247 C238 1.390 . S
C247 H240 0.950 . S
C247 C244 1.387 . S
C248 C249 1.387 . S
C248 H252 0.950 . S
C248 C257 1.390 . S
C249 C248 1.387 . S
C249 C251 1.387 . S
H250 C257 0.950 . S
C251 C249 1.387 . S
C251 C253 1.390 . S
C251 H255 0.950 . S
H252 C248 0.950 . S
C253 C251 1.390 . S
C253 C254 1.387 . S
C253 H256 0.950 . S
C254 C253 1.387 . S
C254 C257 1.387 . S
H255 C251 0.950 . S
H256 C253 0.950 . S
C257 C248 1.390 . S
C257 H250 0.950 . S
C257 C254 1.387 . S
C258 C259 1.387 . S
C258 H262 0.950 . S
C258 C267 1.390 . S
C259 C258 1.387 . S
C259 C261 1.387 1_455 S
H260 C267 0.950 1_556 S
C261 C259 1.387 1_655 S
C261 C263 1.390 1_654 S
C261 H265 0.950 . S
H262 C258 0.950 . S
C263 C261 1.390 1_456 S
C263 C264 1.387 . S
C263 H266 0.950 1_455 S
C264 C263 1.387 . S
C264 C267 1.387 1_556 S
H265 C261 0.950 . S
H266 C263 0.950 1_655 S
C267 C258 1.390 . S
C267 H260 0.950 1_554 S
C267 C264 1.387 1_554 S
C268 C269 1.387 1_565 S
C268 H272 0.950 . S
C268 C277 1.390 . S
C269 C268 1.387 1_545 S
C269 C271 1.387 . S
H270 C277 0.950 . S
C271 C269 1.387 . S
C271 C273 1.390 . S
C271 H275 0.950 . S
H272 C268 0.950 . S
C273 C271 1.390 . S
C273 C274 1.387 . S
C273 H276 0.950 . S
C274 C273 1.387 . S
C274 C277 1.387 1_545 S
H275 C271 0.950 . S
H276 C273 0.950 . S
C277 C268 1.390 . S
C277 H270 0.950 . S
C277 C274 1.387 1_565 S
C278 C279 1.387 . S
C278 H282 0.950 . S
C278 C287 1.390 . S
C279 C278 1.387 . S
C279 C281 1.387 . S
H280 C287 0.950 . S
C281 C279 1.387 . S
C281 C283 1.390 . S
C281 H285 0.950 . S
H282 C278 0.950 . S
C283 C281 1.390 . S
C283 C284 1.387 . S
C283 H286 0.950 . S
C284 C283 1.387 . S
C284 C287 1.387 . S
H285 C281 0.950 . S
H286 C283 0.950 . S
C287 C278 1.390 . S
C287 H280 0.950 . S
C287 C284 1.387 . S
C288 C289 1.387 . S
C288 H292 0.950 . S
C288 C297 1.390 . S
C289 C288 1.387 . S
C289 C291 1.387 1_545 S
H290 C297 0.950 . S
C291 C289 1.387 1_565 S
C291 C293 1.390 . S
C291 H295 0.950 . S
H292 C288 0.950 . S
C293 C291 1.390 . S
C293 C294 1.387 1_565 S
C293 H296 0.950 . S
C294 C293 1.387 1_545 S
C294 C297 1.387 . S
H295 C291 0.950 . S
H296 C293 0.950 . S
C297 C288 1.390 . S
C297 H290 0.950 . S
C297 C294 1.387 . S
C298 C299 1.387 . S
C298 H302 0.950 . S
C298 C307 1.413 . S
C299 C298 1.387 . S
C299 C301 1.387 . S
H300 C307 0.941 1_554 S
C301 C299 1.387 . S
C301 C303 1.390 1_556 S
C301 H305 0.950 . S
H302 C298 0.950 . S
C303 C301 1.390 1_554 S
C303 C304 1.387 . S
C303 H306 0.950 . S
C304 C303 1.387 . S
C304 C307 1.374 1_554 S
H305 C301 0.950 . S
H306 C303 0.950 . S
C307 C298 1.413 . S
C307 H300 0.941 1_556 S
C307 C304 1.374 1_556 S
C308 C309 1.387 . S
C308 H312 0.950 . S
C308 C317 1.390 . S
C309 C308 1.387 . S
C309 C311 1.387 . S
H310 C317 0.950 . S
C311 C309 1.387 . S
C311 C313 1.390 . S
C311 H315 0.950 . S
H312 C308 0.950 . S
C313 C311 1.390 . S
C313 C314 1.387 . S
C313 H316 0.950 . S
C314 C313 1.387 . S
C314 C317 1.387 . S
H315 C311 0.950 . S
H316 C313 0.950 . S
C317 C308 1.390 . S
C317 H310 0.950 . S
C317 C314 1.387 . S
C139 C2 1.474 . S
C144 C129 1.452 . S
C149 C22 1.359 . S
C154 C107 1.483 1_655 S
C159 C44 1.374 . S
C164 C120 1.476 . S
C169 C4 1.466 . S
C174 C133 1.548 . S
C184 C103 1.538 . S
C179 C24 1.615 . S
C194 C116 1.518 . S
C189 C42 1.571 . S
C199 C32 1.255 . S
C204 C81 1.276 . S
C209 C49 1.205 . S
C214 C94 1.237 1_655 S
C219 C9 1.355 . S
C224 C64 1.283 . S
C234 C77 1.266 . S
C229 C29 1.321 . S
C244 C90 1.273 . S
C239 C52 1.341 . S
C249 C12 1.229 . S
C254 C68 1.277 . S
C264 C95 1.495 . S
C259 C18 1.502 . S
C269 C38 1.500 . S
C274 C69 1.533 . S
C279 C58 1.495 . S
C284 C82 1.505 . S
C294 C121 1.591 . S
C289 C39 1.573 . S
C304 C134 1.534 . S
C299 C59 1.506 . S
C309 C19 1.525 . S
C314 C108 1.570 . S
