# Generated by pormake.
# Topology pyr, (3,6)-cn, num edge types: 1
# Building blocks:
#     Node 0, Type 0, BuildingBlock: KAKCAD_clean_linker_0, # of connection points: 3
#     Node 1, Type 0, BuildingBlock: KAKCAD_clean_linker_0, # of connection points: 3
#     Node 2, Type 0, BuildingBlock: KAKCAD_clean_linker_0, # of connection points: 3
#     Node 3, Type 0, BuildingBlock: KAKCAD_clean_linker_0, # of connection points: 3
#     Node 4, Type 0, BuildingBlock: KAKCAD_clean_linker_0, # of connection points: 3
#     Node 5, Type 0, BuildingBlock: KAKCAD_clean_linker_0, # of connection points: 3
#     Node 6, Type 0, BuildingBlock: KAKCAD_clean_linker_0, # of connection points: 3
#     Node 7, Type 0, BuildingBlock: KAKCAD_clean_linker_0, # of connection points: 3
#     Node 8, Type 1, BuildingBlock: BETGAK_clean_sbu_0, # of connection points: 6
#     Node 9, Type 1, BuildingBlock: BETGAK_clean_sbu_0, # of connection points: 6
#     Node 10, Type 1, BuildingBlock: BETGAK_clean_sbu_0, # of connection points: 6
#     Node 11, Type 1, BuildingBlock: BETGAK_clean_sbu_0, # of connection points: 6
#     Edge 12, Type (0, 1), BuildingBlock: TEMPAE_clean_linker_10, # of connection points: 2
#     Edge 13, Type (0, 1), BuildingBlock: TEMPAE_clean_linker_10, # of connection points: 2
#     Edge 14, Type (0, 1), BuildingBlock: TEMPAE_clean_linker_10, # of connection points: 2
#     Edge 15, Type (0, 1), BuildingBlock: TEMPAE_clean_linker_10, # of connection points: 2
#     Edge 16, Type (0, 1), BuildingBlock: TEMPAE_clean_linker_10, # of connection points: 2
#     Edge 17, Type (0, 1), BuildingBlock: TEMPAE_clean_linker_10, # of connection points: 2
#     Edge 18, Type (0, 1), BuildingBlock: TEMPAE_clean_linker_10, # of connection points: 2
#     Edge 19, Type (0, 1), BuildingBlock: TEMPAE_clean_linker_10, # of connection points: 2
#     Edge 20, Type (0, 1), BuildingBlock: TEMPAE_clean_linker_10, # of connection points: 2
#     Edge 21, Type (0, 1), BuildingBlock: TEMPAE_clean_linker_10, # of connection points: 2
#     Edge 22, Type (0, 1), BuildingBlock: TEMPAE_clean_linker_10, # of connection points: 2
#     Edge 23, Type (0, 1), BuildingBlock: TEMPAE_clean_linker_10, # of connection points: 2
#     Edge 24, Type (0, 1), BuildingBlock: TEMPAE_clean_linker_10, # of connection points: 2
#     Edge 25, Type (0, 1), BuildingBlock: TEMPAE_clean_linker_10, # of connection points: 2
#     Edge 26, Type (0, 1), BuildingBlock: TEMPAE_clean_linker_10, # of connection points: 2
#     Edge 27, Type (0, 1), BuildingBlock: TEMPAE_clean_linker_10, # of connection points: 2
#     Edge 28, Type (0, 1), BuildingBlock: TEMPAE_clean_linker_10, # of connection points: 2
#     Edge 29, Type (0, 1), BuildingBlock: TEMPAE_clean_linker_10, # of connection points: 2
#     Edge 30, Type (0, 1), BuildingBlock: TEMPAE_clean_linker_10, # of connection points: 2
#     Edge 31, Type (0, 1), BuildingBlock: TEMPAE_clean_linker_10, # of connection points: 2
#     Edge 32, Type (0, 1), BuildingBlock: TEMPAE_clean_linker_10, # of connection points: 2
#     Edge 33, Type (0, 1), BuildingBlock: TEMPAE_clean_linker_10, # of connection points: 2
#     Edge 34, Type (0, 1), BuildingBlock: TEMPAE_clean_linker_10, # of connection points: 2
#     Edge 35, Type (0, 1), BuildingBlock: TEMPAE_clean_linker_10, # of connection points: 2
# Relax obj value: 0.093
# Max RMSD: 0.119
# Mean RMSD: 0.056
data_MOF--net-pyr--node1-BETGAK_clean_sbu_0--node2-KAKCAD_clean_linker_0--edge1-TEMPAE_clean_linker_10
_symmetry_space_group_name_H-M    P1
_symmetry_Int_Tables_number       1
_symmetry_cell_setting            triclinic
loop_
_symmetry_equiv_pos_as_xyz
'x, y, z'
_cell_length_a     46.71173
_cell_length_b     49.465641
_cell_length_c     44.895673
_cell_angle_alpha  90.918096
_cell_angle_beta   88.962279
_cell_angle_gamma 101.81318
loop_
_atom_site_label
_atom_site_type_symbol
_atom_site_fract_x
_atom_site_fract_y
_atom_site_fract_z
_atom_type_partial_charge
C0 C 0.22441 0.2375 0.27012 0.0
C1 C 0.23291 0.22857 0.29749 0.0
C2 C 0.2454 0.24893 0.24891 0.0
C3 C 0.27532 0.25143 0.25451 0.0
C4 C 0.28389 0.24239 0.28183 0.0
C5 C 0.26284 0.23124 0.30327 0.0
C6 C 0.29735 0.26337 0.23166 0.0
C7 C 0.29513 0.28786 0.21761 0.0
C8 C 0.31409 0.29822 0.19407 0.0
C9 C 0.336 0.28412 0.18485 0.0
C10 C 0.33896 0.25958 0.19907 0.0
C11 C 0.31932 0.24943 0.22247 0.0
C12 C 0.36119 0.24354 0.18866 0.0
C13 C 0.36907 0.24248 0.15832 0.0
C14 C 0.37359 0.22785 0.20882 0.0
C15 C 0.39192 0.21046 0.19879 0.0
C16 C 0.39914 0.20878 0.16835 0.0
C17 C 0.30841 0.32225 0.17773 0.0
C18 C 0.30021 0.31924 0.14775 0.0
C19 C 0.30563 0.34636 0.19343 0.0
C20 C 0.29257 0.36604 0.18019 0.0
C21 C 0.28158 0.36176 0.15115 0.0
C22 C 0.2868 0.3388 0.13457 0.0
C23 C 0.38804 0.22562 0.14839 0.0
H24 H 0.20148 0.2358 0.2652 0.0
H25 H 0.23821 0.2555 0.2279 0.0
H26 H 0.30684 0.24418 0.28668 0.0
H27 H 0.26991 0.22431 0.32415 0.0
H28 H 0.27785 0.29845 0.22436 0.0
H29 H 0.32004 0.2299 0.23268 0.0
H30 H 0.3506 0.29238 0.16669 0.0
H31 H 0.35993 0.25399 0.14194 0.0
H32 H 0.36878 0.22856 0.23246 0.0
H33 H 0.39964 0.19774 0.21497 0.0
H34 H 0.30189 0.30066 0.13532 0.0
H35 H 0.31194 0.34913 0.21656 0.0
H36 H 0.3936 0.22556 0.12488 0.0
H37 H 0.27849 0.33476 0.11223 0.0
H38 H 0.28951 0.38382 0.19333 0.0
C39 C 0.35356 0.91223 0.70076 0.0
C40 C 0.38283 0.92398 0.70708 0.0
C41 C 0.34424 0.90876 0.67137 0.0
C42 C 0.36401 0.91689 0.64766 0.0
C43 C 0.3934 0.9283 0.65391 0.0
C44 C 0.4027 0.93194 0.68339 0.0
C45 C 0.35379 0.91329 0.61655 0.0
C46 C 0.32732 0.92029 0.6089 0.0
C47 C 0.31614 0.91503 0.58013 0.0
C48 C 0.33191 0.90286 0.55864 0.0
C49 C 0.3586 0.8959 0.56593 0.0
C50 C 0.36952 0.90147 0.59486 0.0
C51 C 0.37354 0.87971 0.54504 0.0
C52 C 0.3578 0.85525 0.53206 0.0
C53 C 0.40413 0.88608 0.54186 0.0
C54 C 0.4189 0.86703 0.52868 0.0
C55 C 0.40333 0.84118 0.51873 0.0
C56 C 0.28762 0.92181 0.57314 0.0
C57 C 0.26397 0.91507 0.59332 0.0
C58 C 0.28425 0.93629 0.54724 0.0
C59 C 0.25807 0.94487 0.54224 0.0
C60 C 0.23476 0.93892 0.56296 0.0
C61 C 0.2378 0.92352 0.58828 0.0
C62 C 0.37258 0.83611 0.51904 0.0
H63 H 0.3377 0.90616 0.71858 0.0
H64 H 0.32154 0.89956 0.66718 0.0
H65 H 0.40906 0.93479 0.63603 0.0
H66 H 0.42544 0.94091 0.68768 0.0
H67 H 0.31538 0.92996 0.62546 0.0
H68 H 0.38944 0.89506 0.60102 0.0
H69 H 0.32308 0.89814 0.53656 0.0
H70 H 0.3342 0.84979 0.53431 0.0
H71 H 0.41672 0.90502 0.5513 0.0
H72 H 0.4426 0.87169 0.52822 0.0
H73 H 0.26587 0.9036 0.6133 0.0
H74 H 0.30218 0.94178 0.53138 0.0
H75 H 0.35993 0.81633 0.51175 0.0
H76 H 0.22027 0.91876 0.60469 0.0
H77 H 0.25615 0.95644 0.52235 0.0
C78 C 0.74645 0.43121 0.91514 0.0
C79 C 0.77041 0.41829 0.91844 0.0
C80 C 0.72076 0.41732 0.90123 0.0
C81 C 0.71813 0.38997 0.89071 0.0
C82 C 0.74208 0.37706 0.89408 0.0
C83 C 0.7679 0.39108 0.90754 0.0
C84 C 0.69047 0.37468 0.8767 0.0
C85 C 0.67643 0.38703 0.85466 0.0
C86 C 0.65088 0.37248 0.8404 0.0
C87 C 0.63868 0.34532 0.85033 0.0
C88 C 0.6521 0.33278 0.8729 0.0
C89 C 0.67816 0.34756 0.8854 0.0
C90 C 0.63918 0.30435 0.88408 0.0
C91 C 0.61014 0.29761 0.89484 0.0
C92 C 0.65665 0.2844 0.88637 0.0
C93 C 0.64553 0.2586 0.89931 0.0
C94 C 0.6168 0.25216 0.91097 0.0
C95 C 0.63762 0.38564 0.81505 0.0
C96 C 0.65506 0.40594 0.79698 0.0
C97 C 0.60757 0.37829 0.80839 0.0
C98 C 0.5956 0.39066 0.78479 0.0
C99 C 0.61302 0.41136 0.76713 0.0
C100 C 0.64301 0.41876 0.77396 0.0
C101 C 0.5992 0.27199 0.90839 0.0
H102 H 0.74767 0.45219 0.92309 0.0
H103 H 0.70272 0.42784 0.89919 0.0
H104 H 0.74092 0.3561 0.88608 0.0
H105 H 0.78578 0.3804 0.90987 0.0
H106 H 0.68583 0.40809 0.84857 0.0
H107 H 0.68849 0.33815 0.90278 0.0
H108 H 0.61925 0.33344 0.84005 0.0
H109 H 0.59618 0.31254 0.8937 0.0
H110 H 0.67911 0.28889 0.87836 0.0
H111 H 0.65976 0.24395 0.90098 0.0
H112 H 0.67838 0.41203 0.80026 0.0
H113 H 0.59295 0.3631 0.82155 0.0
H114 H 0.57691 0.26768 0.91691 0.0
H115 H 0.65751 0.43481 0.76177 0.0
H116 H 0.57257 0.38364 0.78038 0.0
C117 C 0.86834 0.63775 0.26598 0.0
C118 C 0.89883 0.63998 0.26313 0.0
C119 C 0.856 0.6494 0.2906 0.0
C120 C 0.87371 0.66382 0.3132 0.0
C121 C 0.90424 0.66645 0.3101 0.0
C122 C 0.91657 0.65466 0.28555 0.0
C123 C 0.86041 0.67522 0.34027 0.0
C124 C 0.8346 0.66004 0.3537 0.0
C125 C 0.82276 0.66965 0.3799 0.0
C126 C 0.8368 0.69494 0.39262 0.0
C127 C 0.86179 0.71145 0.37914 0.0
C128 C 0.87355 0.70107 0.35305 0.0
C129 C 0.87496 0.73949 0.39232 0.0
C130 C 0.85726 0.75516 0.40781 0.0
C131 C 0.90516 0.7509 0.39001 0.0
C132 C 0.91712 0.77684 0.40285 0.0
C133 C 0.89942 0.79217 0.41892 0.0
C134 C 0.79542 0.65365 0.39409 0.0
C135 C 0.76937 0.64659 0.37794 0.0
C136 C 0.79477 0.64676 0.42442 0.0
C137 C 0.76868 0.6333 0.43831 0.0
C138 C 0.74242 0.62696 0.42241 0.0
C139 C 0.7431 0.63369 0.39202 0.0
C140 C 0.86926 0.78068 0.42116 0.0
H141 H 0.85383 0.62646 0.24944 0.0
H142 H 0.83246 0.64711 0.29186 0.0
H143 H 0.91868 0.67714 0.32704 0.0
H144 H 0.94013 0.65716 0.28412 0.0
H145 H 0.82413 0.64021 0.34438 0.0
H146 H 0.89251 0.7134 0.34209 0.0
H147 H 0.82781 0.70177 0.41312 0.0
H148 H 0.83384 0.74787 0.40966 0.0
H149 H 0.91982 0.73971 0.37862 0.0
H150 H 0.94033 0.78484 0.39991 0.0
H151 H 0.76915 0.65181 0.35462 0.0
H152 H 0.81448 0.65195 0.43745 0.0
H153 H 0.85464 0.79115 0.43363 0.0
H154 H 0.72326 0.62901 0.37915 0.0
H155 H 0.76885 0.62854 0.46176 0.0
C156 C 0.74466 0.77803 0.72728 0.0
C157 C 0.75693 0.80583 0.72093 0.0
C158 C 0.72675 0.77122 0.75255 0.0
C159 C 0.7204 0.79208 0.77165 0.0
C160 C 0.73066 0.81979 0.76396 0.0
C161 C 0.74882 0.82658 0.73911 0.0
C162 C 0.70754 0.78565 0.8018 0.0
C163 C 0.71953 0.76841 0.82023 0.0
C164 C 0.71325 0.76729 0.8509 0.0
C165 C 0.69444 0.78356 0.86312 0.0
C166 C 0.68132 0.80043 0.84483 0.0
C167 C 0.68754 0.80058 0.81397 0.0
C168 C 0.66338 0.81962 0.85806 0.0
C169 C 0.64698 0.81314 0.88455 0.0
C170 C 0.66337 0.84527 0.84483 0.0
C171 C 0.64762 0.86374 0.85759 0.0
C172 C 0.63218 0.85777 0.88468 0.0
C173 C 0.72939 0.75158 0.87015 0.0
C174 C 0.73264 0.72488 0.86168 0.0
C175 C 0.74433 0.76427 0.89522 0.0
C176 C 0.76329 0.75109 0.91056 0.0
C177 C 0.76755 0.7249 0.90125 0.0
C178 C 0.75144 0.71163 0.87712 0.0
C179 C 0.63196 0.83206 0.89787 0.0
H180 H 0.74985 0.76148 0.71349 0.0
H181 H 0.71893 0.74966 0.75787 0.0
H182 H 0.72659 0.83635 0.77847 0.0
H183 H 0.75813 0.84821 0.73559 0.0
H184 H 0.73579 0.75762 0.81115 0.0
H185 H 0.6778 0.81318 0.79927 0.0
H186 H 0.69094 0.78369 0.88702 0.0
H187 H 0.64585 0.79352 0.8953 0.0
H188 H 0.67611 0.85166 0.82487 0.0
H189 H 0.64789 0.88289 0.84617 0.0
H190 H 0.7213 0.71458 0.8425 0.0
H191 H 0.7425 0.78494 0.9021 0.0
H192 H 0.62077 0.82663 0.91891 0.0
H193 H 0.75436 0.69153 0.8693 0.0
H194 H 0.77516 0.76168 0.92929 0.0
C195 C 0.76996 0.20345 0.31978 0.0
C196 C 0.76478 0.22473 0.30154 0.0
C197 C 0.7804 0.20921 0.34857 0.0
C198 C 0.786 0.23642 0.35981 0.0
C199 C 0.78216 0.2579 0.34106 0.0
C200 C 0.77155 0.25209 0.31224 0.0
C201 C 0.79292 0.24189 0.3918 0.0
C202 C 0.81105 0.22722 0.40666 0.0
C203 C 0.81451 0.22987 0.4377 0.0
C204 C 0.80028 0.24802 0.4537 0.0
C205 C 0.78196 0.2626 0.43927 0.0
C206 C 0.77861 0.25963 0.40833 0.0
C207 C 0.76393 0.27875 0.45666 0.0
C208 C 0.74866 0.26765 0.48244 0.0
C209 C 0.75984 0.30424 0.44617 0.0
C210 C 0.73972 0.31764 0.4602 0.0
C211 C 0.7233 0.30582 0.48498 0.0
C212 C 0.83079 0.21197 0.45378 0.0
C213 C 0.81955 0.19973 0.48074 0.0
C214 C 0.85687 0.20603 0.44188 0.0
C215 C 0.8711 0.18786 0.45637 0.0
C216 C 0.85957 0.17534 0.4831 0.0
C217 C 0.83384 0.18176 0.49529 0.0
C218 C 0.72852 0.28112 0.49653 0.0
H219 H 0.76448 0.18209 0.31239 0.0
H220 H 0.78255 0.19211 0.36253 0.0
H221 H 0.78666 0.27913 0.34895 0.0
H222 H 0.76804 0.26893 0.29856 0.0
H223 H 0.82153 0.21289 0.39422 0.0
H224 H 0.76327 0.26979 0.39739 0.0
H225 H 0.80301 0.25046 0.47758 0.0
H226 H 0.75116 0.24787 0.49085 0.0
H227 H 0.77166 0.31345 0.42664 0.0
H228 H 0.73646 0.33697 0.45122 0.0
H229 H 0.79925 0.20349 0.49031 0.0
H230 H 0.86621 0.2153 0.42127 0.0
H231 H 0.71603 0.27155 0.51552 0.0
H232 H 0.8246 0.17272 0.51604 0.0
H233 H 0.89074 0.18312 0.44625 0.0
C234 C 0.26308 0.64304 0.19933 0.0
C235 C 0.25952 0.64505 0.16836 0.0
C236 C 0.28876 0.65676 0.21338 0.0
C237 C 0.31197 0.67281 0.19695 0.0
C238 C 0.30864 0.67436 0.1659 0.0
C239 C 0.28286 0.66089 0.15192 0.0
C240 C 0.33909 0.68845 0.21214 0.0
C241 C 0.35044 0.67767 0.2373 0.0
C242 C 0.37511 0.69265 0.25258 0.0
C243 C 0.38885 0.7189 0.24141 0.0
C244 C 0.37863 0.72971 0.2156 0.0
C245 C 0.35359 0.71443 0.20159 0.0
C246 C 0.39389 0.75684 0.20265 0.0
C247 C 0.40228 0.78069 0.22053 0.0
C248 C 0.39922 0.75923 0.17174 0.0
C249 C 0.41215 0.78464 0.15901 0.0
C250 C 0.41991 0.8088 0.17665 0.0
C251 C 0.38644 0.6806 0.27984 0.0
C252 C 0.36746 0.66211 0.29857 0.0
C253 C 0.41631 0.68696 0.28734 0.0
C254 C 0.42671 0.67526 0.31235 0.0
C255 C 0.4078 0.65629 0.33068 0.0
C256 C 0.37794 0.65 0.32316 0.0
C257 C 0.41492 0.80629 0.20773 0.0
H258 H 0.24602 0.63076 0.21291 0.0
H259 H 0.2901 0.65513 0.23731 0.0
H260 H 0.326 0.68601 0.15218 0.0
H261 H 0.28114 0.66339 0.12815 0.0
H262 H 0.34031 0.65712 0.24449 0.0
H263 H 0.34497 0.72331 0.18268 0.0
H264 H 0.40765 0.73098 0.25256 0.0
H265 H 0.3983 0.77973 0.24437 0.0
H266 H 0.3935 0.74126 0.15727 0.0
H267 H 0.41624 0.78517 0.1352 0.0
H268 H 0.34423 0.65688 0.29446 0.0
H269 H 0.43201 0.70071 0.27367 0.0
H270 H 0.42013 0.82424 0.22225 0.0
H271 H 0.36238 0.63529 0.33597 0.0
H272 H 0.44973 0.68135 0.31726 0.0
C273 C 0.1429 0.27207 0.68317 0.0
C274 C 0.11266 0.26066 0.68374 0.0
C275 C 0.15419 0.2979 0.69626 0.0
C276 C 0.13573 0.31401 0.70972 0.0
C277 C 0.1055 0.30254 0.71078 0.0
C278 C 0.0942 0.27628 0.69823 0.0
C279 C 0.14804 0.34295 0.72117 0.0
C280 C 0.17275 0.35912 0.70688 0.0
C281 C 0.18519 0.3861 0.71665 0.0
C282 C 0.17201 0.39724 0.74117 0.0
C283 C 0.1474 0.38181 0.7564 0.0
C284 C 0.13559 0.35463 0.74603 0.0
C285 C 0.13447 0.39433 0.78312 0.0
C286 C 0.15249 0.41275 0.8026 0.0
C287 C 0.1041 0.3887 0.78915 0.0
C288 C 0.09224 0.40137 0.81343 0.0
C289 C 0.11027 0.42025 0.83254 0.0
C290 C 0.21226 0.40229 0.70147 0.0
C291 C 0.21735 0.399 0.67067 0.0
C292 C 0.23388 0.42043 0.71775 0.0
C293 C 0.25978 0.43437 0.7038 0.0
C294 C 0.26508 0.43021 0.67331 0.0
C295 C 0.24346 0.41249 0.65691 0.0
C296 C 0.14064 0.42556 0.82665 0.0
H297 H 0.15818 0.26141 0.67205 0.0
H298 H 0.17766 0.30521 0.69555 0.0
H299 H 0.09033 0.31405 0.72073 0.0
H300 H 0.07088 0.26835 0.69998 0.0
H301 H 0.18254 0.35057 0.6879 0.0
H302 H 0.11722 0.34228 0.75786 0.0
H303 H 0.18064 0.41837 0.74802 0.0
H304 H 0.176 0.41739 0.79938 0.0
H305 H 0.0893 0.37487 0.77476 0.0
H306 H 0.06882 0.39622 0.81722 0.0
H307 H 0.20114 0.38598 0.65696 0.0
H308 H 0.23124 0.42337 0.7415 0.0
H309 H 0.15548 0.44012 0.8403 0.0
H310 H 0.24668 0.40919 0.63328 0.0
H311 H 0.27609 0.44779 0.71708 0.0
La312 La 1.01135 0.0404 0.51944 0.0
La313 La 1.00785 1.01261 0.57886 0.0
C314 C 1.0082 0.07287 0.47753 0.0
C315 C 0.02954 0.09616 0.46548 0.0
C316 C 0.05689 0.10433 0.47892 0.0
C317 C 0.07906 0.12335 0.46495 0.0
C318 C 0.07423 0.13444 0.43731 0.0
C319 C 0.04626 0.12732 0.42474 0.0
C320 C 0.02408 0.1082 0.43872 0.0
C321 C 0.05604 1.01781 0.53081 0.0
C322 C 0.03551 0.07554 0.57846 0.0
C323 C 1.00973 0.97972 0.62052 0.0
C324 C 0.98975 0.95392 0.62961 0.0
C325 C 0.97276 0.95412 0.65562 0.0
C326 C 0.95047 0.93167 0.6625 0.0
C327 C 0.94497 0.90804 0.64389 0.0
C328 C 0.96309 0.90724 0.61862 0.0
C329 C 0.98517 0.93002 0.61144 0.0
C330 C 0.96308 1.03507 0.56597 0.0
C331 C 0.98309 0.97733 0.52041 0.0
O332 O 1.0156 0.04893 0.47388 0.0
O333 O 0.99845 0.07616 0.50458 0.0
O334 O 0.04699 1.02101 0.50434 0.0
O335 O 0.04265 1.03011 0.54938 0.0
O336 O 0.02629 0.07551 0.55062 0.0
O337 O 0.03455 0.05214 0.59278 0.0
O338 O 0.99886 1.002 0.62347 0.0
O339 O 0.02426 0.97929 0.59531 0.0
O340 O 0.97246 1.03364 0.5927 0.0
O341 O 0.97712 1.02243 0.54863 0.0
O342 O 0.99261 0.97736 0.54811 0.0
O343 O 0.98397 1.00079 0.5062 0.0
H344 H 0.06149 0.09509 0.49955 0.0
H345 H 0.10029 0.1287 0.47529 0.0
H346 H 0.042 0.13536 0.40333 0.0
H347 H 1.00312 0.10194 0.42801 0.0
H348 H 0.97581 0.97227 0.66999 0.0
H349 H 0.93674 0.93351 0.6818 0.0
H350 H 0.9599 0.88926 0.60404 0.0
H351 H 0.99799 0.92916 0.59124 0.0
La352 La 0.55343 0.03669 0.06042 0.0
La353 La 0.49672 1.02353 1.03355 0.0
C354 C 0.60118 0.05717 0.08514 0.0
C355 C 0.61463 0.08023 0.10464 0.0
C356 C 0.63008 0.07418 0.12925 0.0
C357 C 0.64351 0.09516 0.1484 0.0
C358 C 0.64188 0.12273 0.14329 0.0
C359 C 0.6266 0.12896 0.11844 0.0
C360 C 0.61288 0.10777 0.09926 0.0
C361 C 0.52066 0.98877 0.07753 0.0
C362 C 0.50258 0.0634 0.08616 0.0
C363 C 0.4494 0.99887 1.01086 0.0
C364 C 0.44261 0.98847 0.98056 0.0
C365 C 0.41487 0.97289 0.97395 0.0
C366 C 0.40854 0.96322 0.94489 0.0
C367 C 0.43 0.96891 0.92216 0.0
C368 C 0.45787 0.98434 0.92906 0.0
C369 C 0.46407 0.99413 0.95799 0.0
C370 C 0.52819 0.07125 1.01437 0.0
C371 C 0.54926 0.99848 1.00524 0.0
O372 O 0.58058 0.03862 0.09735 0.0
O373 O 0.59503 0.0627 0.05788 0.0
O374 O 0.54829 0.99293 0.07128 0.0
O375 O 0.51211 1.01119 0.07451 0.0
O376 O 0.53078 0.06767 0.07968 0.0
O377 O 0.48453 0.04195 0.07471 0.0
O378 O 0.45707 1.02571 1.01348 0.0
O379 O 0.46682 0.98636 1.02538 0.0
O380 O 0.5001 0.06552 1.01787 0.0
O381 O 0.53788 0.04959 1.01927 0.0
O382 O 0.52093 0.99822 1.00618 0.0
O383 O 0.56757 1.01455 1.02306 0.0
H384 H 0.63185 0.0531 0.13363 0.0
H385 H 0.6556 0.08981 0.16703 0.0
H386 H 0.62505 0.15007 0.11407 0.0
H387 H 0.60102 0.1129 0.08035 0.0
H388 H 0.39813 0.96831 0.99121 0.0
H389 H 0.38695 0.9512 0.94019 0.0
H390 H 0.47468 0.98938 0.91194 0.0
H391 H 0.48555 1.00638 0.96268 0.0
La392 La 0.50275 0.50928 0.53358 0.0
La393 La 0.50663 0.55768 0.57121 0.0
C394 C 0.51457 0.46786 0.50659 0.0
C395 C 0.53379 0.44911 0.51432 0.0
C396 C 0.52797 0.42182 0.50368 0.0
C397 C 0.54655 0.40409 0.5107 0.0
C398 C 0.57106 0.41337 0.52874 0.0
C399 C 0.57608 0.44047 0.54027 0.0
C400 C 0.55783 0.45825 0.53284 0.0
C401 C 0.45339 0.51139 0.5623 0.0
C402 C 0.52843 0.50972 0.60012 0.0
C403 C 0.49359 0.59932 0.59617 0.0
C404 C 0.48366 0.6229 0.58288 0.0
C405 C 0.50263 0.64885 0.58169 0.0
C406 C 0.49456 0.67064 0.56679 0.0
C407 C 0.46723 0.66695 0.55307 0.0
C408 C 0.44812 0.64111 0.55444 0.0
C409 C 0.45626 0.61926 0.56912 0.0
C410 C 0.55627 0.55611 0.54248 0.0
C411 C 0.48195 0.55803 0.50414 0.0
O412 O 0.49157 0.46674 0.52386 0.0
O413 O 0.52773 0.49331 0.50111 0.0
O414 O 0.45511 0.50313 0.5349 0.0
O415 O 0.47888 0.51763 0.57275 0.0
O416 O 0.52717 0.49945 0.57259 0.0
O417 O 0.51829 0.53223 0.60631 0.0
O418 O 0.5205 0.59741 0.58963 0.0
O419 O 0.47556 0.57531 0.59453 0.0
O420 O 0.55429 0.56519 0.56953 0.0
O421 O 0.53076 0.54924 0.5321 0.0
O422 O 0.48603 0.56997 0.53081 0.0
O423 O 0.48867 0.53372 0.4989 0.0
H424 H 0.50942 0.41441 0.48948 0.0
H425 H 0.54234 0.38347 0.50106 0.0
H426 H 0.59453 0.44816 0.5545 0.0
H427 H 0.56292 0.4793 0.54116 0.0
H428 H 0.52389 0.65219 0.59199 0.0
H429 H 0.50949 0.69054 0.56643 0.0
H430 H 0.42695 0.63777 0.54396 0.0
H431 H 0.44118 0.59946 0.56928 0.0
La432 La 1.01245 0.50648 0.0623 0.0
La433 La 1.00884 0.56376 1.03615 0.0
C434 C 0.02842 0.46287 0.07642 0.0
C435 C 0.05667 0.45463 0.07953 0.0
C436 C 0.05808 0.43131 0.0962 0.0
C437 C 0.0848 0.42341 0.09995 0.0
C438 C 0.11065 0.43875 0.08707 0.0
C439 C 0.10914 0.46222 0.07037 0.0
C440 C 0.08232 0.47007 0.06656 0.0
C441 C 0.98292 0.53718 0.09459 0.0
C442 C 0.06648 0.55854 0.06914 0.0
C443 C 0.99259 0.60906 1.03318 0.0
C444 C 0.97217 0.62126 1.01594 0.0
C445 C 0.95573 0.60637 0.99296 0.0
C446 C 0.93379 0.6171 0.97933 0.0
C447 C 0.92789 0.64272 0.98871 0.0
C448 C 0.94503 0.6578 1.0112 0.0
C449 C 0.96696 0.64713 1.02469 0.0
C450 C 0.03077 0.53268 0.99579 0.0
C451 C 0.95828 0.51021 1.02276 0.0
O452 O 0.02286 0.48121 0.09587 0.0
O453 O 0.02142 0.46816 0.04931 0.0
O454 O 0.97648 0.51038 0.09306 0.0
O455 O 1.00602 0.54554 0.0794 0.0
O456 O 0.05678 0.53131 0.06951 0.0
O457 O 0.05042 0.5756 0.05912 0.0
O458 O 1.01591 0.60402 1.01917 0.0
O459 O 0.98015 0.58874 0.05045 0.0
O460 O 0.02751 0.55776 0.99111 0.0
O461 O 0.02199 0.52735 1.02208 0.0
O462 O 0.96675 0.5376 1.0231 0.0
O463 O 0.97389 0.49371 1.03483 0.0
H464 H 0.03851 0.41929 0.10651 0.0
H465 H 0.08529 0.40552 0.11338 0.0
H466 H 0.12862 0.47436 0.06003 0.0
H467 H 0.08163 0.48814 0.05352 0.0
H468 H 0.9593 0.58619 0.9862 0.0
H469 H 0.9208 0.60494 0.96221 0.0
H470 H 0.94127 0.67774 1.0186 0.0
H471 H 0.97934 0.65877 0.04255 0.0
C472 C 0.21218 0.22509 0.34944 0.0
C473 C 0.21043 0.21606 0.31966 0.0
C474 C 0.19057 0.21368 0.3704 0.0
C475 C 0.167 0.19251 0.36135 0.0
C476 C 0.1653 0.18321 0.33132 0.0
C477 C 0.18696 0.19522 0.3108 0.0
C478 C 0.19289 0.22429 0.40216 0.0
C479 C 0.14075 0.16037 0.3209 0.0
C480 C 0.12541 0.14208 0.41733 0.0
C481 C 0.09893 0.15114 0.42026 0.0
C482 C 0.14813 0.1559 0.39896 0.0
C483 C 0.14434 0.17948 0.38327 0.0
C484 C 0.11809 0.18936 0.387 0.0
C485 C 0.09559 0.17495 0.40534 0.0
C486 C 0.17566 0.14455 0.39532 0.0
C487 C 0.11344 0.21464 0.3709 0.0
H488 H 0.23021 0.24139 0.35621 0.0
H489 H 0.18578 0.18805 0.28782 0.0
H490 H 0.1729 0.23194 0.40865 0.0
H491 H 0.19443 0.20726 0.41744 0.0
H492 H 0.21224 0.24127 0.40544 0.0
H493 H 0.14267 0.15553 0.29679 0.0
H494 H 0.14064 0.14134 0.33369 0.0
H495 H 0.11937 0.16631 0.3251 0.0
H496 H 0.12793 0.12344 0.42847 0.0
H497 H 0.07523 0.18212 0.40777 0.0
H498 H 0.19521 0.16098 0.39964 0.0
H499 H 0.17758 0.13718 0.37203 0.0
H500 H 0.17592 0.1271 0.41053 0.0
H501 H 0.13207 0.23217 0.37477 0.0
H502 H 0.09288 0.22097 0.37813 0.0
H503 H 0.11251 0.2104 0.34656 0.0
C504 C 0.40892 0.95425 0.74735 0.0
C505 C 0.39219 0.92867 0.7384 0.0
C506 C 0.41603 0.95974 0.77735 0.0
C507 C 0.40627 0.93909 0.7988 0.0
C508 C 0.39013 0.91293 0.78976 0.0
C509 C 0.38321 0.90806 0.75964 0.0
C510 C 0.43318 0.98794 0.78621 0.0
C511 C 0.37959 0.89034 0.812 0.0
C512 C 0.44316 0.94819 0.87391 0.0
C513 C 0.42318 0.95969 0.89109 0.0
C514 C 0.43773 0.94089 0.84393 0.0
C515 C 0.41177 0.94535 0.83087 0.0
C516 C 0.39129 0.95652 0.84824 0.0
C517 C 0.39722 0.9635 0.87819 0.0
C518 C 0.45993 0.92881 0.82612 0.0
C519 C 0.36342 0.96169 0.83502 0.0
H520 H 0.41563 0.97032 0.73103 0.0
H521 H 0.37057 0.88814 0.75268 0.0
H522 H 0.41956 0.99843 0.80113 0.0
H523 H 0.45282 0.98592 0.79883 0.0
H524 H 0.44028 1.00125 0.76664 0.0
H525 H 0.36875 0.87067 0.80111 0.0
H526 H 0.39821 0.88648 0.82514 0.0
H527 H 0.36383 0.89691 0.82793 0.0
H528 H 0.46311 0.94495 0.88395 0.0
H529 H 0.38192 0.97271 0.89132 0.0
H530 H 0.46868 0.94267 0.80746 0.0
H531 H 0.44936 0.90863 0.8162 0.0
H532 H 0.47851 0.92578 0.8399 0.0
H533 H 0.36876 0.97676 0.81669 0.0
H534 H 0.34944 0.96984 0.85176 0.0
H535 H 0.35064 0.94228 0.82528 0.0
C536 C 0.57062 0.42754 0.74236 0.0
C537 C 0.60023 0.42521 0.74197 0.0
C538 C 0.5586 0.4405 0.71914 0.0
C539 C 0.57657 0.45247 0.69501 0.0
C540 C 0.60642 0.45046 0.69445 0.0
C541 C 0.61765 0.43656 0.71741 0.0
C542 C 0.5265 0.44142 0.7205 0.0
C543 C 0.62673 0.46328 0.66965 0.0
C544 C 0.54254 0.46724 0.62113 0.0
C545 C 0.54095 0.49522 0.62433 0.0
C546 C 0.55365 0.45306 0.64392 0.0
C547 C 0.56427 0.46724 0.67053 0.0
C548 C 0.56319 0.49564 0.67363 0.0
C549 C 0.55123 0.50911 0.6508 0.0
C550 C 0.55359 0.42272 0.63965 0.0
C551 C 0.57503 0.51197 0.70099 0.0
H552 H 0.55665 0.41957 0.76104 0.0
H553 H 0.64025 0.43455 0.71579 0.0
H554 H 0.52382 0.46314 0.72245 0.0
H555 H 0.51578 0.43271 0.6996 0.0
H556 H 0.51497 0.42973 0.73963 0.0
H557 H 0.64964 0.46107 0.67299 0.0
H558 H 0.6192 0.4535 0.648 0.0
H559 H 0.62639 0.48558 0.66808 0.0
H560 H 0.53454 0.45616 0.60093 0.0
H561 H 0.55038 0.53074 0.65352 0.0
H562 H 0.54061 0.41078 0.65781 0.0
H563 H 0.57618 0.41911 0.64092 0.0
H564 H 0.54429 0.41456 0.61792 0.0
H565 H 0.56272 0.50303 0.72109 0.0
H566 H 0.57361 0.53406 0.69966 0.0
H567 H 0.59825 0.51071 0.70401 0.0
C568 C 0.90083 0.62677 0.20833 0.0
C569 C 0.91193 0.62661 0.23725 0.0
C570 C 0.9124 0.61365 0.18409 0.0
C571 C 0.93567 0.59976 0.18861 0.0
C572 C 0.94721 0.59979 0.21763 0.0
C573 C 0.93532 0.61318 0.24143 0.0
C574 C 0.89949 0.61444 0.15362 0.0
C575 C 0.97182 0.58517 0.22371 0.0
C576 C 0.94601 0.54135 0.13491 0.0
C577 C 0.97005 0.55392 0.11728 0.0
C578 C 0.9345 0.55606 0.1578 0.0
C579 C 0.94714 0.58424 0.16336 0.0
C580 C 0.9711 0.59722 0.14521 0.0
C581 C 0.98231 0.58193 0.12253 0.0
C582 C 0.90902 0.54121 0.17641 0.0
C583 C 0.98523 0.6272 0.15006 0.0
H584 H 0.8831 0.63735 0.20455 0.0
H585 H 0.94395 0.61251 0.26359 0.0
H586 H 0.91691 0.62316 0.13729 0.0
H587 H 0.8898 0.59315 0.14598 0.0
H588 H 0.88228 0.62696 0.15344 0.0
H589 H 0.97908 0.58782 0.2472 0.0
H590 H 0.96468 0.56277 0.21881 0.0
H591 H 0.99082 0.59309 0.20885 0.0
H592 H 0.93636 0.51974 0.13109 0.0
H593 H 1.00099 0.59183 0.1092 0.0
H594 H 0.89056 0.55212 0.1754 0.0
H595 H 0.91548 0.54128 0.20008 0.0
H596 H 0.90124 0.51947 0.16895 0.0
H597 H 0.96854 0.6402 0.1491 0.0
H598 H 1.00268 0.63467 0.13324 0.0
H599 H 0.99492 0.63011 0.17255 0.0
C600 C 0.41141 0.1755 0.12949 0.0
C601 C 0.41698 0.18864 0.15738 0.0
C602 C 0.42717 0.15583 0.11925 0.0
C603 C 0.44842 0.14828 0.1377 0.0
C604 C 0.45423 0.16131 0.16585 0.0
C605 C 0.43882 0.18164 0.17513 0.0
C606 C 0.42079 0.14285 0.08875 0.0
C607 C 0.47634 0.15343 0.18639 0.0
C608 C 0.46439 0.07768 0.11893 0.0
C609 C 0.49062 0.08474 0.10262 0.0
C610 C 0.45123 0.0982 0.13191 0.0
C611 C 0.46413 0.12641 0.12753 0.0
C612 C 0.491 0.13359 0.11162 0.0
C613 C 0.50415 0.11263 0.09973 0.0
C614 C 0.42306 0.0897 0.14951 0.0
C615 C 0.50502 0.16337 0.10569 0.0
H616 H 0.39425 0.1801 0.11573 0.0
H617 H 0.44389 0.19193 0.19642 0.0
H618 H 0.44133 0.14492 0.0754 0.0
H619 H 0.41148 0.12046 0.09093 0.0
H620 H 0.40512 0.15239 0.07632 0.0
H621 H 0.47805 0.16526 0.20775 0.0
H622 H 0.47016 0.13106 0.19134 0.0
H623 H 0.49822 0.15704 0.17539 0.0
H624 H 0.454 0.0561 0.12126 0.0
H625 H 0.52428 0.11813 0.08679 0.0
H626 H 0.4048 0.09538 0.13723 0.0
H627 H 0.42456 0.10083 0.17128 0.0
H628 H 0.41764 0.06713 0.15361 0.0
H629 H 0.49061 0.1726 0.09127 0.0
H630 H 0.52677 0.16551 0.0945 0.0
H631 H 0.50767 0.17551 0.12679 0.0
C632 C 0.18022 0.93286 0.56411 0.0
C633 C 0.2078 0.94974 0.55894 0.0
C634 C 0.15461 0.94314 0.56103 0.0
C635 C 0.15674 0.97095 0.55266 0.0
C636 C 0.18453 0.98813 0.54764 0.0
C637 C 0.20975 0.97729 0.5508 0.0
C638 C 0.12529 0.92418 0.56633 0.0
C639 C 0.18762 1.01793 0.53876 0.0
C640 C 0.0934 0.99169 0.51404 0.0
C641 C 0.08096 1.00499 0.53714 0.0
C642 C 0.11774 0.98002 0.51899 0.0
C643 C 0.12991 0.98181 0.54775 0.0
C644 C 0.11708 0.99479 0.57135 0.0
C645 C 0.09261 1.00624 0.56575 0.0
C646 C 0.13072 0.96619 0.49332 0.0
C647 C 0.12953 0.99704 0.60229 0.0
H648 H 0.17866 0.91149 0.57022 0.0
H649 H 0.23107 0.99052 0.5473 0.0
H650 H 0.11253 0.93331 0.58342 0.0
H651 H 0.1125 0.92176 0.54552 0.0
H652 H 0.12746 0.9034 0.57377 0.0
H653 H 0.21086 1.02874 0.53658 0.0
H654 H 0.17679 1.01901 0.51714 0.0
H655 H 0.17656 1.02915 0.55552 0.0
H656 H 0.08423 0.99057 0.49194 0.0
H657 H 0.08287 1.01649 0.58362 0.0
H658 H 0.13179 0.94473 0.49918 0.0
H659 H 0.15344 0.97739 0.48869 0.0
H660 H 0.1179 0.96562 0.47263 0.0
H661 H 0.13074 0.97626 0.61045 0.0
H662 H 0.11628 1.00679 0.61841 0.0
H663 H 0.15217 1.00951 0.60175 0.0
C664 C 0.79648 0.44744 0.96039 0.0
C665 C 0.79782 0.43294 0.9334 0.0
C666 C 0.82212 0.46048 0.97521 0.0
C667 C 0.84996 0.45951 0.96259 0.0
C668 C 0.85143 0.44534 0.93506 0.0
C669 C 0.82546 0.43209 0.92099 0.0
C670 C 0.8194 0.47492 1.00468 0.0
C671 C 0.88051 0.44412 0.92045 0.0
C672 C 0.91671 0.51287 0.98845 0.0
C673 C 0.93027 0.49745 1.00779 0.0
C674 C 0.89073 0.50086 0.9736 0.0
C675 C 0.87753 0.47277 0.97844 0.0
C676 C 0.89088 0.45722 0.99826 0.0
C677 C 0.91709 0.46962 1.01244 0.0
C678 C 0.87762 0.51818 0.95239 0.0
C679 C 0.87745 0.42738 1.00454 0.0
H680 H 0.7753 0.44801 0.97034 0.0
H681 H 0.82677 0.42123 0.90001 0.0
H682 H 0.83017 0.46526 1.02229 0.0
H683 H 0.83074 0.49689 1.00342 0.0
H684 H 0.79623 0.47403 1.01146 0.0
H685 H 0.87798 0.43319 0.89855 0.0
H686 H 0.89346 0.46534 0.91714 0.0
H687 H 0.89328 0.43335 0.93514 0.0
H688 H 0.92666 0.53432 0.98447 0.0
H689 H 0.92716 0.45747 1.02742 0.0
H690 H 0.85489 0.51878 0.95946 0.0
H691 H 0.87658 0.50874 0.92974 0.0
H692 H 0.89041 0.53972 0.95111 0.0
H693 H 0.85465 0.42559 1.01292 0.0
H694 H 0.88996 0.41833 1.0212 0.0
H695 H 0.8765 0.41495 0.98366 0.0
C696 C 0.71219 0.59047 0.45503 0.0
C697 C 0.71431 0.61427 0.43782 0.0
C698 C 0.68614 0.57897 0.4706 0.0
C699 C 0.66177 0.59196 0.46971 0.0
C700 C 0.66378 0.6159 0.45215 0.0
C701 C 0.68982 0.62652 0.43618 0.0
C702 C 0.68485 0.55308 0.48835 0.0
C703 C 0.63874 0.63089 0.45104 0.0
C704 C 0.58494 0.55453 0.49443 0.0
C705 C 0.58352 0.56383 0.524 0.0
C706 C 0.61045 0.56288 0.47671 0.0
C707 C 0.6349 0.5816 0.48854 0.0
C708 C 0.63349 0.59097 0.51843 0.0
C709 C 0.60809 0.58172 0.53582 0.0
C710 C 0.61118 0.55178 0.44527 0.0
C711 C 0.65862 0.61133 0.53191 0.0
H712 H 0.73094 0.58077 0.45622 0.0
H713 H 0.69139 0.64504 0.42315 0.0
H714 H 0.68279 0.55774 0.51244 0.0
H715 H 0.66527 0.5373 0.48219 0.0
H716 H 0.70463 0.54415 0.48475 0.0
H717 H 0.64342 0.64879 0.43581 0.0
H718 H 0.61859 0.61659 0.44361 0.0
H719 H 0.6342 0.63844 0.4737 0.0
H720 H 0.56609 0.54076 0.4851 0.0
H721 H 0.60723 0.58915 0.55859 0.0
H722 H 0.63062 0.54235 0.44187 0.0
H723 H 0.61317 0.56892 0.42925 0.0
H724 H 0.59123 0.53606 0.44 0.0
H725 H 0.67867 0.60258 0.5314 0.0
H726 H 0.654 0.61689 0.55533 0.0
H727 H 0.66334 0.63048 0.51859 0.0
C728 C 0.23948 0.38522 0.15916 0.0
C729 C 0.26119 0.37866 0.13996 0.0
C730 C 0.21745 0.39779 0.14857 0.0
C731 C 0.21696 0.40396 0.11794 0.0
C732 C 0.23953 0.39863 0.09863 0.0
C733 C 0.26136 0.38595 0.10986 0.0
C734 C 0.19374 0.40302 0.16992 0.0
C735 C 0.23988 0.40519 0.0659 0.0
C736 C 0.14055 0.40234 0.09019 0.0
C737 C 0.13901 0.43034 0.09165 0.0
C738 C 0.1663 0.39364 0.09733 0.0
C739 C 0.19123 0.41345 0.106 0.0
C740 C 0.19032 0.44189 0.10605 0.0
C741 C 0.16417 0.45002 0.09893 0.0
C742 C 0.16635 0.36311 0.09693 0.0
C743 C 0.2165 0.46362 0.115 0.0
H744 H 0.23875 0.37923 0.18232 0.0
H745 H 0.27821 0.38118 0.09495 0.0
H746 H 0.1909 0.42466 0.16824 0.0
H747 H 0.17261 0.38937 0.16398 0.0
H748 H 0.19856 0.3991 0.19342 0.0
H749 H 0.26064 0.40288 0.05465 0.0
H750 H 0.2215 0.39108 0.05481 0.0
H751 H 0.23674 0.42658 0.06274 0.0
H752 H 0.12137 0.3871 0.08397 0.0
H753 H 0.1631 0.47169 0.10024 0.0
H754 H 0.16874 0.35614 0.11995 0.0
H755 H 0.18521 0.35894 0.08357 0.0
H756 H 0.14592 0.35058 0.08759 0.0
H757 H 0.22022 0.46216 0.13921 0.0
H758 H 0.21347 0.48484 0.11032 0.0
H759 H 0.23648 0.46017 0.1031 0.0
C760 C 0.59134 0.22432 0.95417 0.0
C761 C 0.60552 0.22511 0.92623 0.0
C762 C 0.5809 0.19912 0.96893 0.0
C763 C 0.58395 0.17377 0.95525 0.0
C764 C 0.59828 0.17446 0.92703 0.0
C765 C 0.60914 0.20002 0.91309 0.0
C766 C 0.56638 0.19964 0.99919 0.0
C767 C 0.60145 0.1481 0.91112 0.0
C768 C 0.57337 0.10779 1.00224 0.0
C769 C 0.54367 0.09628 0.99801 0.0
C770 C 0.58683 0.13296 0.98862 0.0
C771 C 0.57047 0.14658 0.96955 0.0
C772 C 0.54071 0.13444 0.96456 0.0
C773 C 0.52767 0.10986 0.97913 0.0
C774 C 0.61835 0.14536 0.99529 0.0
C775 C 0.52242 0.14756 0.94397 0.0
H776 H 0.58876 0.24355 0.96473 0.0
H777 H 0.6199 0.20033 0.89147 0.0
H778 H 0.54301 0.18928 0.99788 0.0
H779 H 0.57678 0.18805 1.01536 0.0
H780 H 0.56767 0.22101 1.00786 0.0
H781 H 0.61376 0.15206 0.8897 0.0
H782 H 0.61289 0.13578 0.92546 0.0
H783 H 0.57948 0.13535 0.90655 0.0
H784 H 0.58582 0.09768 1.01699 0.0
H785 H 0.50471 0.10114 0.9756 0.0
H786 H 0.61996 0.16615 1.00561 0.0
H787 H 0.63149 0.14809 0.97432 0.0
H788 H 0.62809 0.13239 1.01057 0.0
H789 H 0.52019 0.16804 0.95301 0.0
H790 H 0.50018 0.13469 0.94095 0.0
H791 H 0.53336 0.151 0.9218 0.0
C792 C 0.89523 0.84021 0.43717 0.0
C793 C 0.91211 0.81978 0.43339 0.0
C794 C 0.90628 0.86561 0.45168 0.0
C795 C 0.93541 0.87154 0.46199 0.0
C796 C 0.95287 0.85144 0.45772 0.0
C797 C 0.94097 0.82582 0.44395 0.0
C798 C 0.8866 0.88609 0.45615 0.0
C799 C 0.98424 0.85699 0.46772 0.0
C800 C 0.97117 0.94774 0.47436 0.0
C801 C 0.97034 0.95045 0.50552 0.0
C802 C 0.96038 0.9222 0.46 0.0
C803 C 0.94759 0.89878 0.47707 0.0
C804 C 0.94625 0.90155 0.50856 0.0
C805 C 0.958 0.92715 0.52237 0.0
C806 C 0.96307 0.92017 0.42652 0.0
C807 C 0.93212 0.87752 0.5277 0.0
H808 H 0.87325 0.83657 0.42861 0.0
H809 H 0.95436 0.81041 0.44189 0.0
H810 H 0.88535 0.89159 0.48014 0.0
H811 H 0.89579 0.90541 0.44411 0.0
H812 H 0.86408 0.87795 0.44813 0.0
H813 H 0.99542 0.83989 0.46154 0.0
H814 H 0.99657 0.87634 0.45763 0.0
H815 H 0.98508 0.85996 0.49225 0.0
H816 H 0.98095 0.96551 0.46115 0.0
H817 H 0.95711 0.92903 0.54644 0.0
H818 H 0.94106 0.91405 0.41665 0.0
H819 H 0.97539 0.90392 0.42031 0.0
H820 H 0.97438 0.93997 0.41651 0.0
H821 H 0.90914 0.86986 0.52087 0.0
H822 H 0.93224 0.88316 0.55175 0.0
H823 H 0.94373 0.86022 0.52455 0.0
C824 C 0.43894 0.81353 0.53492 0.0
C825 C 0.41853 0.81788 0.51392 0.0
C826 C 0.44881 0.7887 0.5354 0.0
C827 C 0.43821 0.76774 0.5142 0.0
C828 C 0.41964 0.77288 0.49131 0.0
C829 C 0.40976 0.79788 0.49159 0.0
C830 C 0.46852 0.78404 0.56032 0.0
C831 C 0.4086 0.75132 0.4678 0.0
C832 C 0.47665 0.70769 0.51926 0.0
C833 C 0.45798 0.69057 0.53912 0.0
C834 C 0.46937 0.73195 0.50875 0.0
C835 C 0.44323 0.73948 0.51904 0.0
C836 C 0.4236 0.72143 0.53779 0.0
C837 C 0.43115 0.69707 0.54742 0.0
C838 C 0.49039 0.75023 0.48805 0.0
C839 C 0.39559 0.72878 0.54949 0.0
H840 H 0.44553 0.82868 0.5525 0.0
H841 H 0.39422 0.80129 0.47513 0.0
H842 H 0.45623 0.7683 0.5757 0.0
H843 H 0.48748 0.77604 0.55133 0.0
H844 H 0.47685 0.80323 0.57336 0.0
H845 H 0.39972 0.76039 0.4484 0.0
H846 H 0.42628 0.74089 0.45992 0.0
H847 H 0.39087 0.73531 0.47746 0.0
H848 H 0.49723 0.70239 0.51249 0.0
H849 H 0.41677 0.68388 0.56286 0.0
H850 H 0.50279 0.7681 0.50079 0.0
H851 H 0.47843 0.75848 0.47033 0.0
H852 H 0.5063 0.73901 0.47746 0.0
H853 H 0.40087 0.74701 0.56464 0.0
H854 H 0.38171 0.71155 0.56193 0.0
H855 H 0.38273 0.73442 0.5309 0.0
C856 C 0.80244 0.79741 0.69468 0.0
C857 C 0.78102 0.81349 0.6984 0.0
C858 C 0.82889 0.80775 0.67954 0.0
C859 C 0.83447 0.83513 0.66897 0.0
C860 C 0.81187 0.85032 0.66993 0.0
C861 C 0.78517 0.83901 0.68399 0.0
C862 C 0.85173 0.7902 0.67706 0.0
C863 C 0.81682 0.87959 0.65881 0.0
C864 C 0.90984 0.87939 0.67952 0.0
C865 C 0.91914 0.88546 0.65005 0.0
C866 C 0.88273 0.86227 0.68589 0.0
C867 C 0.86496 0.84969 0.6622 0.0
C868 C 0.87545 0.85344 0.63248 0.0
C869 C 0.90214 0.87174 0.6267 0.0
C870 C 0.87237 0.85909 0.71799 0.0
C871 C 0.85799 0.83937 0.60658 0.0
H872 H 0.79964 0.77754 0.70535 0.0
H873 H 0.76828 0.8511 0.68547 0.0
H874 H 0.86359 0.79334 0.65534 0.0
H875 H 0.868 0.7962 0.69492 0.0
H876 H 0.84186 0.7679 0.67946 0.0
H877 H 0.79647 0.88794 0.65947 0.0
H878 H 0.83337 0.89311 0.67281 0.0
H879 H 0.82547 0.88066 0.63563 0.0
H880 H 0.92326 0.88895 0.69779 0.0
H881 H 0.90891 0.87614 0.60378 0.0
H882 H 0.86745 0.83697 0.72408 0.0
H883 H 0.85186 0.86694 0.72096 0.0
H884 H 0.8888 0.87044 0.73373 0.0
H885 H 0.84504 0.81877 0.61278 0.0
H886 H 0.87248 0.83683 0.58728 0.0
H887 H 0.8426 0.85222 0.59931 0.0
C888 C 0.72573 0.22913 0.26554 0.0
C889 C 0.74986 0.21775 0.27271 0.0
C890 C 0.70796 0.21883 0.24134 0.0
C891 C 0.71446 0.19657 0.22413 0.0
C892 C 0.74012 0.18657 0.22983 0.0
C893 C 0.75755 0.19733 0.25403 0.0
C894 C 0.68103 0.23031 0.2357 0.0
C895 C 0.74797 0.16298 0.21185 0.0
C896 C 0.65407 0.14035 0.1947 0.0
C897 C 0.65681 0.14456 0.16391 0.0
C898 C 0.67168 0.15811 0.21464 0.0
C899 C 0.69244 0.1808 0.20351 0.0
C900 C 0.69383 0.18637 0.17262 0.0
C901 C 0.67596 0.16807 0.15308 0.0
C902 C 0.66928 0.15154 0.24746 0.0
C903 C 0.71535 0.21062 0.16002 0.0
H904 H 0.7196 0.24487 0.27995 0.0
H905 H 0.77651 0.18887 0.25917 0.0
H906 H 0.67807 0.23264 0.21148 0.0
H907 H 0.66144 0.21576 0.2443 0.0
H908 H 0.68208 0.25065 0.24696 0.0
H909 H 0.77021 0.15974 0.2169 0.0
H910 H 0.73195 0.14365 0.21685 0.0
H911 H 0.74688 0.16679 0.18766 0.0
H912 H 0.63884 0.12245 0.20312 0.0
H913 H 0.67811 0.17136 0.12926 0.0
H914 H 0.66656 0.16999 0.2607 0.0
H915 H 0.68972 0.14568 0.25478 0.0
H916 H 0.65062 0.13433 0.25264 0.0
H917 H 0.71555 0.22948 0.17379 0.0
H918 H 0.71025 0.21484 0.13669 0.0
H919 H 0.73769 0.20622 0.16036 0.0
C920 C 0.44781 0.63833 0.35752 0.0
C921 C 0.41901 0.64296 0.35715 0.0
C922 C 0.45836 0.62562 0.38186 0.0
C923 C 0.43963 0.61636 0.40646 0.0
C924 C 0.41062 0.62088 0.40636 0.0
C925 C 0.40089 0.63437 0.38215 0.0
C926 C 0.48967 0.62198 0.38115 0.0
C927 C 0.38961 0.6111 0.43175 0.0
C928 C 0.45879 0.55861 0.45371 0.0
C929 C 0.47063 0.57287 0.47943 0.0
C930 C 0.44825 0.57238 0.43021 0.0
C931 C 0.45016 0.60139 0.43186 0.0
C932 C 0.46228 0.61593 0.45774 0.0
C933 C 0.47193 0.60151 0.48125 0.0
C934 C 0.43485 0.55576 0.40362 0.0
C935 C 0.4653 0.64683 0.46061 0.0
H936 H 0.46221 0.6442 0.33853 0.0
H937 H 0.3789 0.63823 0.38304 0.0
H938 H 0.50094 0.63106 0.40163 0.0
H939 H 0.49024 0.59968 0.38072 0.0
H940 H 0.50206 0.63182 0.36145 0.0
H941 H 0.36747 0.61522 0.42796 0.0
H942 H 0.38766 0.58858 0.43483 0.0
H943 H 0.39807 0.62154 0.45279 0.0
H944 H 0.45741 0.5365 0.45204 0.0
H945 H 0.48108 0.61286 0.50089 0.0
H946 H 0.44774 0.56279 0.38318 0.0
H947 H 0.41234 0.5591 0.40031 0.0
H948 H 0.43387 0.53328 0.40614 0.0
H949 H 0.4759 0.65717 0.44031 0.0
H950 H 0.47833 0.65547 0.48029 0.0
H951 H 0.44334 0.65196 0.46289 0.0
C952 C 0.07032 0.44226 0.85583 0.0
C953 C 0.09766 0.43469 0.85808 0.0
C954 C 0.05886 0.45671 0.87907 0.0
C955 C 0.07512 0.46432 0.90536 0.0
C956 C 0.10249 0.45646 0.90802 0.0
C957 C 0.11325 0.44168 0.88463 0.0
C958 C 0.02948 0.46434 0.87518 0.0
C959 C 0.12078 0.46416 0.93543 0.0
C960 C 0.06003 0.52698 0.94963 0.0
C961 C 0.04287 0.51481 0.97376 0.0
C962 C 0.07095 0.51089 0.92766 0.0
C963 C 0.06421 0.48165 0.92933 0.0
C964 C 0.04681 0.46921 0.9537 0.0
C965 C 0.03646 0.48591 0.9756 0.0
C966 C 0.08967 0.52525 0.90252 0.0
C967 C 0.03861 0.43822 0.95631 0.0
H968 H 0.05802 0.43752 0.83553 0.0
H969 H 0.13403 0.43559 0.88728 0.0
H970 H 1.01491 0.45718 0.89451 0.0
H971 H 0.03226 0.48713 0.87437 0.0
H972 H 1.01856 0.4553 0.85448 0.0
H973 H 0.14123 0.45599 0.93454 0.0
H974 H 0.12665 0.48698 0.93787 0.0
H975 H 0.10804 0.45614 0.95565 0.0
H976 H 0.06504 0.5493 0.94793 0.0
H977 H 0.02256 0.4763 0.99361 0.0
H978 H 0.0789 0.51921 0.88092 0.0
H979 H 0.11105 0.51875 0.90171 0.0
H980 H 0.09372 0.54811 0.90485 0.0
H981 H 0.02557 0.42932 0.93677 0.0
H982 H 0.02568 0.4317 0.97692 0.0
H983 H 0.05858 0.42935 0.95625 0.0
C984 C 0.62907 0.9071 0.89663 0.0
C985 C 0.61743 0.87868 0.89958 0.0
C986 C 0.61622 0.927 0.91128 0.0
C987 C 0.59179 0.91842 0.93043 0.0
C988 C 0.57964 0.88991 0.93336 0.0
C989 C 0.59226 0.87045 0.91752 0.0
C990 C 0.62943 0.95723 0.90699 0.0
C991 C 0.554 0.8799 0.95413 0.0
C992 C 0.58407 0.96765 0.99432 0.0
C993 C 0.56045 0.97887 0.98531 0.0
C994 C 0.59402 0.94759 0.97689 0.0
C995 C 0.58064 0.93917 0.94929 0.0
C996 C 0.55706 0.9508 0.9398 0.0
C997 C 0.54691 0.97022 0.95821 0.0
C998 C 0.61862 0.93512 0.98828 0.0
C999 C 0.54282 0.943 0.9101 0.0
H1000 H 0.6488 0.91402 0.88349 0.0
H1001 H 0.58249 0.84872 0.91954 0.0
H1002 H 0.6121 0.96884 0.90218 0.0
H1003 H 0.64024 0.96609 0.92776 0.0
H1004 H 0.6459 0.96057 0.88855 0.0
H1005 H 0.54646 0.8571 0.95313 0.0
H1006 H 0.56027 0.88607 0.97737 0.0
H1007 H 0.53542 0.88964 0.94862 0.0
H1008 H 0.59424 0.97397 1.01553 0.0
H1009 H 0.52864 0.97891 0.95124 0.0
H1010 H 0.63774 0.93979 0.97284 0.0
H1011 H 0.61162 0.91231 0.98917 0.0
H1012 H 0.62572 0.94301 1.01084 0.0
H1013 H 0.55941 0.9479 0.89192 0.0
H1014 H 0.52481 0.954 0.90598 0.0
H1015 H 0.5339 0.92045 0.90897 0.0
C1016 C 0.90426 0.15929 0.49941 0.0
C1017 C 0.87371 0.15491 0.49772 0.0
C1018 C 0.91784 0.13957 0.51214 0.0
C1019 C 0.90039 0.11503 0.52361 0.0
C1020 C 0.86956 0.11072 0.52255 0.0
C1021 C 0.85658 0.13066 0.50948 0.0
C1022 C 0.95084 0.14475 0.5128 0.0
C1023 C 0.85031 0.08475 0.53456 0.0
C1024 C 0.93603 0.05307 0.52646 0.0
C1025 C 0.94456 0.0538 0.55623 0.0
C1026 C 0.92123 0.07268 0.51566 0.0
C1027 C 0.9145 0.09323 0.5353 0.0
C1028 C 0.92202 0.09337 0.56572 0.0
C1029 C 0.93707 0.07358 0.57586 0.0
C1030 C 0.91373 0.07197 0.48303 0.0
C1031 C 0.91494 0.11489 0.58729 0.0
H1032 H 0.91758 0.17816 0.49074 0.0
H1033 H 0.83298 0.12694 0.50784 0.0
H1034 H 0.95827 0.14349 0.53597 0.0
H1035 H 0.95878 0.12857 0.49951 0.0
H1036 H 0.9612 0.16527 0.50376 0.0
H1037 H 0.8267 0.08535 0.53369 0.0
H1038 H 0.85411 0.06658 0.52143 0.0
H1039 H 0.85595 0.08161 0.55798 0.0
H1040 H 0.94172 0.03761 0.51134 0.0
H1041 H 0.9437 0.07408 0.59892 0.0
H1042 H 0.92564 0.09111 0.47222 0.0
H1043 H 0.89 0.07121 0.48043 0.0
H1044 H 0.91949 0.05394 0.47105 0.0
H1045 H 0.92705 0.13566 0.58063 0.0
H1046 H 0.92077 0.11115 0.61053 0.0
H1047 H 0.89127 0.11518 0.58668 0.0
C1048 C 0.20431 0.62869 0.1681 0.0
C1049 C 0.23156 0.63112 0.15337 0.0
C1050 C 0.17797 0.61613 0.15422 0.0
C1051 C 0.17847 0.60594 0.12455 0.0
C1052 C 0.2058 0.60822 0.10953 0.0
C1053 C 0.23187 0.62051 0.1241 0.0
C1054 C 0.14946 0.614 0.17128 0.0
C1055 C 0.20751 0.59786 0.07786 0.0
C1056 C 0.11173 0.55354 0.09685 0.0
C1057 C 0.0959 0.57039 0.08193 0.0
C1058 C 0.13864 0.56469 0.11049 0.0
C1059 C 0.15038 0.59347 0.10912 0.0
C1060 C 0.13485 0.61049 0.09352 0.0
C1061 C 0.10788 0.59883 0.0803 0.0
C1062 C 0.15421 0.54569 0.12693 0.0
C1063 C 0.14661 0.64116 0.09102 0.0
H1064 H 0.20339 0.6371 0.19044 0.0
H1065 H 0.25259 0.62163 0.11246 0.0
H1066 H 0.13533 0.626 0.15991 0.0
H1067 H 0.1375 0.59218 0.17177 0.0
H1068 H 0.15276 0.62181 0.19456 0.0
H1069 H 0.23037 0.60117 0.06917 0.0
H1070 H 0.1977 0.57548 0.07651 0.0
H1071 H 0.19471 0.6086 0.06316 0.0
H1072 H 0.10285 0.53157 0.0984 0.0
H1073 H 0.09607 0.61214 0.0688 0.0
H1074 H 0.15557 0.5516 0.15089 0.0
H1075 H 0.17693 0.54777 0.11828 0.0
H1076 H 0.14292 0.52368 0.12492 0.0
H1077 H 0.14817 0.65091 0.11351 0.0
H1078 H 0.13261 0.65142 0.07713 0.0
H1079 H 0.16901 0.64504 0.08116 0.0
C1080 C 0.3039 0.47236 0.66138 0.0
C1081 C 0.29327 0.44377 0.65865 0.0
C1082 C 0.33001 0.48535 0.6468 0.0
C1083 C 0.34635 0.46931 0.62963 0.0
C1084 C 0.33599 0.44033 0.62741 0.0
C1085 C 0.30949 0.42801 0.64161 0.0
C1086 C 0.33978 0.51631 0.64925 0.0
C1087 C 0.35288 0.42227 0.60995 0.0
C1088 C 0.3988 0.50017 0.56698 0.0
C1089 C 0.42613 0.50361 0.58056 0.0
C1090 C 0.37268 0.49019 0.58302 0.0
C1091 C 0.37383 0.48272 0.61328 0.0
C1092 C 0.40141 0.48674 0.62728 0.0
C1093 C 0.42718 0.49745 0.61087 0.0
C1094 C 0.34386 0.48696 0.56731 0.0
C1095 C 0.40383 0.47861 0.65925 0.0
H1096 H 0.29137 0.48468 0.67435 0.0
H1097 H 0.30158 0.40588 0.63967 0.0
H1098 H 0.3621 0.52174 0.65852 0.0
H1099 H 0.34085 0.52549 0.62676 0.0
H1100 H 0.32483 0.52584 0.6636 0.0
H1101 H 0.34271 0.39998 0.61163 0.0
H1102 H 0.35415 0.42802 0.58611 0.0
H1103 H 0.37563 0.42553 0.61811 0.0
H1104 H 0.39787 0.505 0.54359 0.0
H1105 H 0.44825 0.49988 0.62145 0.0
H1106 H 0.3286 0.49708 0.58052 0.0
H1107 H 0.33357 0.46474 0.56524 0.0
H1108 H 0.34646 0.49597 0.54467 0.0
H1109 H 0.38974 0.48877 0.67393 0.0
H1110 H 0.42666 0.48415 0.66731 0.0
H1111 H 0.39595 0.45597 0.6614 0.0
C1112 C 0.81801 0.72822 0.92073 0.0
C1113 C 0.7901 0.71223 0.9153 0.0
C1114 C 0.84013 0.71641 0.93257 0.0
C1115 C 0.83417 0.68792 0.93931 0.0
C1116 C 0.80596 0.67171 0.93417 0.0
C1117 C 0.78428 0.68404 0.92211 0.0
C1118 C 0.86998 0.73436 0.93756 0.0
C1119 C 0.79871 0.64133 0.94135 0.0
C1120 C 0.89912 0.65289 0.94506 0.0
C1121 C 0.90335 0.65344 0.97592 0.0
C1122 C 0.87647 0.66376 0.93282 0.0
C1123 C 0.85749 0.67523 0.95194 0.0
C1124 C 0.86132 0.67533 0.98314 0.0
C1125 C 0.88424 0.6645 0.99473 0.0
C1126 C 0.87318 0.66346 0.89942 0.0
C1127 C 0.84139 0.68713 1.00428 0.0
H1128 H 0.82278 0.74991 0.91504 0.0
H1129 H 0.76269 0.67165 0.91813 0.0
H1130 H 0.87581 0.73403 0.96138 0.0
H1131 H 0.88673 0.72612 0.92445 0.0
H1132 H 0.87106 0.75614 0.93111 0.0
H1133 H 0.77566 0.63167 0.93626 0.0
H1134 H 0.81335 0.63029 0.92844 0.0
H1135 H 0.80248 0.63839 0.96531 0.0
H1136 H 0.91395 0.64451 0.93044 0.0
H1137 H 0.88712 0.66455 1.01864 0.0
H1138 H 0.87619 0.68494 0.89129 0.0
H1139 H 0.85081 0.65265 0.89332 0.0
H1140 H 0.88924 0.65314 0.8877 0.0
H1141 H 0.84315 0.70942 0.99985 0.0
H1142 H 0.8467 0.68478 1.028 0.0
H1143 H 0.8183 0.67676 1.00064 0.0
C1144 C 0.45392 0.85619 0.17748 0.0
C1145 C 0.43302 0.83626 0.16256 0.0
C1146 C 0.46677 0.88159 0.16416 0.0
C1147 C 0.45903 0.8874 0.13488 0.0
C1148 C 0.43778 0.86759 0.11978 0.0
C1149 C 0.42494 0.84257 0.1338 0.0
C1150 C 0.48908 0.90207 0.18132 0.0
C1151 C 0.42894 0.87259 0.08849 0.0
C1152 C 0.47724 0.96213 0.10661 0.0
C1153 C 0.5038 0.96286 0.0912 0.0
C1154 C 0.46247 0.93785 0.12098 0.0
C1155 C 0.47418 0.9135 0.11951 0.0
C1156 C 0.50065 0.91409 0.10333 0.0
C1157 C 0.51516 0.93869 0.08967 0.0
C1158 C 0.43457 0.93841 0.13822 0.0
C1159 C 0.5138 0.8887 0.10051 0.0
H1160 H 0.46084 0.85178 0.19946 0.0
H1161 H 0.4084 0.82794 0.12205 0.0
H1162 H 0.51073 0.90469 0.16993 0.0
H1163 H 0.4829 0.92258 0.18195 0.0
H1164 H 0.4913 0.89546 0.20454 0.0
H1165 H 0.41176 0.85545 0.0799 0.0
H1166 H 0.42068 0.89205 0.08777 0.0
H1167 H 0.44829 0.87503 0.07331 0.0
H1168 H 0.46835 0.98071 0.108 0.0
H1169 H 0.53558 0.93899 0.07768 0.0
H1170 H 0.43728 0.93351 0.16191 0.0
H1171 H 0.41646 0.92237 0.12937 0.0
H1172 H 0.42819 0.95881 0.13719 0.0
H1173 H 0.51927 0.8822 0.12288 0.0
H1174 H 0.53396 0.89223 0.08637 0.0
H1175 H 0.49769 0.87134 0.09074 0.0
C1176 C 0.07241 0.22679 0.65692 0.0
C1177 C 0.1007 0.23294 0.66896 0.0
C1178 C 0.06134 0.20121 0.6426 0.0
C1179 C 0.07911 0.18126 0.63922 0.0
C1180 C 0.10765 0.18728 0.65108 0.0
C1181 C 0.11781 0.21259 0.66615 0.0
C1182 C 0.03051 0.19555 0.63105 0.0
C1183 C 0.12769 0.167 0.64763 0.0
C1184 C 0.04486 0.1049 0.62501 0.0
C1185 C 0.04721 0.10245 0.59389 0.0
C1186 C 0.05457 0.1304 0.63989 0.0
C1187 C 0.06788 0.15407 0.62348 0.0
C1188 C 0.07073 0.15159 0.59206 0.0
C1189 C 0.05996 0.12602 0.57766 0.0
C1190 C 0.05017 0.13207 0.67321 0.0
C1191 C 0.08548 0.17591 0.57364 0.0
H1192 H 0.05884 0.24208 0.6582 0.0
H1193 H 0.13931 0.21624 0.67586 0.0
H1194 H 0.03087 0.19301 0.60647 0.0
H1195 H 1.01789 0.17595 0.64035 0.0
H1196 H 1.01885 0.21241 0.63684 0.0
H1197 H 0.14977 0.17525 0.65673 0.0
H1198 H 0.11809 0.14757 0.65927 0.0
H1199 H 0.13009 0.1617 0.62373 0.0
H1200 H 0.0347 0.08694 0.63774 0.0
H1201 H 0.06196 0.12438 0.55363 0.0
H1202 H 0.03747 0.14819 0.67878 0.0
H1203 H 0.07162 0.13819 0.68423 0.0
H1204 H 0.03847 0.11214 0.68262 0.0
H1205 H 0.07334 0.1929 0.57601 0.0
H1206 H 0.08683 0.17046 0.54962 0.0
H1207 H 0.10794 0.18391 0.58182 0.0
C1208 C 0.67974 0.32628 0.4775 0.0
C1209 C 0.69934 0.3183 0.49713 0.0
C1210 C 0.65772 0.33944 0.48795 0.0
C1211 C 0.65523 0.34476 0.51887 0.0
C1212 C 0.67409 0.33563 0.53902 0.0
C1213 C 0.69603 0.32242 0.52787 0.0
C1214 C 0.63784 0.34861 0.46572 0.0
C1215 C 0.67189 0.34082 0.57212 0.0
C1216 C 0.62287 0.40778 0.52967 0.0
C1217 C 0.59301 0.39596 0.53267 0.0
C1218 C 0.64383 0.39127 0.52803 0.0
C1219 C 0.63467 0.36223 0.52913 0.0
C1220 C 0.6049 0.35027 0.53471 0.0
C1221 C 0.58433 0.36734 0.53639 0.0
C1222 C 0.67543 0.40484 0.52226 0.0
C1223 C 0.59441 0.31938 0.53651 0.0
H1224 H 0.68184 0.32243 0.4538 0.0
H1225 H 0.71113 0.3161 0.54306 0.0
H1226 H 0.6146 0.34067 0.47201 0.0
H1227 H 0.64151 0.3715 0.46578 0.0
H1228 H 0.6416 0.3414 0.44269 0.0
H1229 H 0.68489 0.32873 0.58501 0.0
H1230 H 0.68012 0.36308 0.57702 0.0
H1231 H 0.64878 0.33557 0.57993 0.0
H1232 H 0.6298 0.42985 0.52655 0.0
H1233 H 0.56134 0.35816 0.5394 0.0
H1234 H 0.68133 0.40112 0.49871 0.0
H1235 H 0.69011 0.39584 0.53654 0.0
H1236 H 0.67955 0.42751 0.52637 0.0
H1237 H 0.59361 0.31026 0.51372 0.0
H1238 H 0.57219 0.31378 0.54674 0.0
H1239 H 0.60968 0.30995 0.54957 0.0
loop_
_geom_bond_atom_site_label_1
_geom_bond_atom_site_label_2
_geom_bond_distance
_geom_bond_site_symmetry_2
_ccdc_geom_bond_type
C0 C1 1.386 . S
C0 C2 1.397 . S
C0 H24 0.931 . S
C1 C0 1.386 . S
C1 C5 1.397 . S
C2 C0 1.397 . S
C2 C3 1.384 . S
C2 H25 0.930 . S
C3 C2 1.384 . S
C3 C4 1.377 . S
C3 C6 1.481 . S
C4 C3 1.377 . S
C4 C5 1.389 . S
C4 H26 0.929 . S
C5 C1 1.397 . S
C5 C4 1.389 . S
C5 H27 0.931 . S
C6 C3 1.481 . S
C6 C7 1.387 . S
C6 C11 1.390 . S
C7 C6 1.387 . S
C7 C8 1.401 . S
C7 H28 0.930 . S
C8 C7 1.401 . S
C8 C9 1.376 . S
C8 C17 1.511 . S
C9 C8 1.376 . S
C9 C10 1.392 . S
C9 H30 0.931 . S
C10 C9 1.392 . S
C10 C11 1.361 . S
C10 C12 1.500 . S
C11 C6 1.390 . S
C11 C10 1.361 . S
C11 H29 0.931 . S
C12 C10 1.500 . S
C12 C13 1.371 . S
C12 C14 1.365 . S
C13 C12 1.371 . S
C13 C23 1.386 . S
C13 H31 0.931 . S
C14 C12 1.365 . S
C14 C15 1.409 . S
C14 H32 0.929 . S
C15 C14 1.409 . S
C15 C16 1.380 . S
C15 H33 0.930 . S
C16 C15 1.380 . S
C16 C23 1.357 . S
C17 C8 1.511 . S
C17 C18 1.341 . S
C17 C19 1.371 . S
C18 C17 1.341 . S
C18 C22 1.394 . S
C18 H34 0.930 . S
C19 C17 1.371 . S
C19 C20 1.392 . S
C19 H35 0.931 . S
C20 C19 1.392 . S
C20 C21 1.331 . S
C20 H38 0.932 . S
C21 C20 1.331 . S
C21 C22 1.336 . S
C22 C18 1.394 . S
C22 C21 1.336 . S
C22 H37 0.929 . S
C23 C13 1.386 . S
C23 C16 1.357 . S
C23 H36 0.928 . S
H24 C0 0.931 . S
H25 C2 0.930 . S
H26 C4 0.929 . S
H27 C5 0.931 . S
H28 C7 0.930 . S
H29 C11 0.931 . S
H30 C9 0.931 . S
H31 C13 0.931 . S
H32 C14 0.929 . S
H33 C15 0.930 . S
H34 C18 0.930 . S
H35 C19 0.931 . S
H36 C23 0.928 . S
H37 C22 0.929 . S
H38 C20 0.932 . S
C39 C40 1.386 . S
C39 C41 1.397 . S
C39 H63 0.931 . S
C40 C39 1.386 . S
C40 C44 1.397 . S
C41 C39 1.397 . S
C41 C42 1.384 . S
C41 H64 0.930 . S
C42 C41 1.384 . S
C42 C43 1.377 . S
C42 C45 1.481 . S
C43 C42 1.377 . S
C43 C44 1.389 . S
C43 H65 0.929 . S
C44 C40 1.397 . S
C44 C43 1.389 . S
C44 H66 0.931 . S
C45 C42 1.481 . S
C45 C46 1.387 . S
C45 C50 1.390 . S
C46 C45 1.387 . S
C46 C47 1.401 . S
C46 H67 0.930 . S
C47 C46 1.401 . S
C47 C48 1.376 . S
C47 C56 1.511 . S
C48 C47 1.376 . S
C48 C49 1.392 . S
C48 H69 0.931 . S
C49 C48 1.392 . S
C49 C50 1.361 . S
C49 C51 1.500 . S
C50 C45 1.390 . S
C50 C49 1.361 . S
C50 H68 0.931 . S
C51 C49 1.500 . S
C51 C52 1.371 . S
C51 C53 1.365 . S
C52 C51 1.371 . S
C52 C62 1.386 . S
C52 H70 0.931 . S
C53 C51 1.365 . S
C53 C54 1.409 . S
C53 H71 0.929 . S
C54 C53 1.409 . S
C54 C55 1.380 . S
C54 H72 0.930 . S
C55 C54 1.380 . S
C55 C62 1.357 . S
C56 C47 1.511 . S
C56 C57 1.341 . S
C56 C58 1.371 . S
C57 C56 1.341 . S
C57 C61 1.394 . S
C57 H73 0.930 . S
C58 C56 1.371 . S
C58 C59 1.392 . S
C58 H74 0.931 . S
C59 C58 1.392 . S
C59 C60 1.331 . S
C59 H77 0.932 . S
C60 C59 1.331 . S
C60 C61 1.336 . S
C61 C57 1.394 . S
C61 C60 1.336 . S
C61 H76 0.929 . S
C62 C52 1.386 . S
C62 C55 1.357 . S
C62 H75 0.928 . S
H63 C39 0.931 . S
H64 C41 0.930 . S
H65 C43 0.929 . S
H66 C44 0.931 . S
H67 C46 0.930 . S
H68 C50 0.931 . S
H69 C48 0.931 . S
H70 C52 0.931 . S
H71 C53 0.929 . S
H72 C54 0.930 . S
H73 C57 0.930 . S
H74 C58 0.931 . S
H75 C62 0.928 . S
H76 C61 0.929 . S
H77 C59 0.932 . S
C78 C79 1.386 . S
C78 C80 1.397 . S
C78 H102 0.931 . S
C79 C78 1.386 . S
C79 C83 1.397 . S
C80 C78 1.397 . S
C80 C81 1.384 . S
C80 H103 0.930 . S
C81 C80 1.384 . S
C81 C82 1.377 . S
C81 C84 1.481 . S
C82 C81 1.377 . S
C82 C83 1.389 . S
C82 H104 0.929 . S
C83 C79 1.397 . S
C83 C82 1.389 . S
C83 H105 0.931 . S
C84 C81 1.481 . S
C84 C85 1.387 . S
C84 C89 1.390 . S
C85 C84 1.387 . S
C85 C86 1.401 . S
C85 H106 0.930 . S
C86 C85 1.401 . S
C86 C87 1.376 . S
C86 C95 1.511 . S
C87 C86 1.376 . S
C87 C88 1.392 . S
C87 H108 0.931 . S
C88 C87 1.392 . S
C88 C89 1.361 . S
C88 C90 1.500 . S
C89 C84 1.390 . S
C89 C88 1.361 . S
C89 H107 0.931 . S
C90 C88 1.500 . S
C90 C91 1.371 . S
C90 C92 1.365 . S
C91 C90 1.371 . S
C91 C101 1.386 . S
C91 H109 0.931 . S
C92 C90 1.365 . S
C92 C93 1.409 . S
C92 H110 0.929 . S
C93 C92 1.409 . S
C93 C94 1.380 . S
C93 H111 0.930 . S
C94 C93 1.380 . S
C94 C101 1.357 . S
C95 C86 1.511 . S
C95 C96 1.341 . S
C95 C97 1.371 . S
C96 C95 1.341 . S
C96 C100 1.394 . S
C96 H112 0.930 . S
C97 C95 1.371 . S
C97 C98 1.392 . S
C97 H113 0.931 . S
C98 C97 1.392 . S
C98 C99 1.331 . S
C98 H116 0.932 . S
C99 C98 1.331 . S
C99 C100 1.336 . S
C100 C96 1.394 . S
C100 C99 1.336 . S
C100 H115 0.929 . S
C101 C91 1.386 . S
C101 C94 1.357 . S
C101 H114 0.928 . S
H102 C78 0.931 . S
H103 C80 0.930 . S
H104 C82 0.929 . S
H105 C83 0.931 . S
H106 C85 0.930 . S
H107 C89 0.931 . S
H108 C87 0.931 . S
H109 C91 0.931 . S
H110 C92 0.929 . S
H111 C93 0.930 . S
H112 C96 0.930 . S
H113 C97 0.931 . S
H114 C101 0.928 . S
H115 C100 0.929 . S
H116 C98 0.932 . S
C117 C118 1.386 . S
C117 C119 1.397 . S
C117 H141 0.931 . S
C118 C117 1.386 . S
C118 C122 1.397 . S
C119 C117 1.397 . S
C119 C120 1.384 . S
C119 H142 0.930 . S
C120 C119 1.384 . S
C120 C121 1.377 . S
C120 C123 1.481 . S
C121 C120 1.377 . S
C121 C122 1.389 . S
C121 H143 0.929 . S
C122 C118 1.397 . S
C122 C121 1.389 . S
C122 H144 0.931 . S
C123 C120 1.481 . S
C123 C124 1.387 . S
C123 C128 1.390 . S
C124 C123 1.387 . S
C124 C125 1.401 . S
C124 H145 0.930 . S
C125 C124 1.401 . S
C125 C126 1.376 . S
C125 C134 1.511 . S
C126 C125 1.376 . S
C126 C127 1.392 . S
C126 H147 0.931 . S
C127 C126 1.392 . S
C127 C128 1.361 . S
C127 C129 1.500 . S
C128 C123 1.390 . S
C128 C127 1.361 . S
C128 H146 0.931 . S
C129 C127 1.500 . S
C129 C130 1.371 . S
C129 C131 1.365 . S
C130 C129 1.371 . S
C130 C140 1.386 . S
C130 H148 0.931 . S
C131 C129 1.365 . S
C131 C132 1.409 . S
C131 H149 0.929 . S
C132 C131 1.409 . S
C132 C133 1.380 . S
C132 H150 0.930 . S
C133 C132 1.380 . S
C133 C140 1.357 . S
C134 C125 1.511 . S
C134 C135 1.341 . S
C134 C136 1.371 . S
C135 C134 1.341 . S
C135 C139 1.394 . S
C135 H151 0.930 . S
C136 C134 1.371 . S
C136 C137 1.392 . S
C136 H152 0.931 . S
C137 C136 1.392 . S
C137 C138 1.331 . S
C137 H155 0.932 . S
C138 C137 1.331 . S
C138 C139 1.336 . S
C139 C135 1.394 . S
C139 C138 1.336 . S
C139 H154 0.929 . S
C140 C130 1.386 . S
C140 C133 1.357 . S
C140 H153 0.928 . S
H141 C117 0.931 . S
H142 C119 0.930 . S
H143 C121 0.929 . S
H144 C122 0.931 . S
H145 C124 0.930 . S
H146 C128 0.931 . S
H147 C126 0.931 . S
H148 C130 0.931 . S
H149 C131 0.929 . S
H150 C132 0.930 . S
H151 C135 0.930 . S
H152 C136 0.931 . S
H153 C140 0.928 . S
H154 C139 0.929 . S
H155 C137 0.932 . S
C156 C157 1.386 . S
C156 C158 1.397 . S
C156 H180 0.931 . S
C157 C156 1.386 . S
C157 C161 1.397 . S
C158 C156 1.397 . S
C158 C159 1.384 . S
C158 H181 0.930 . S
C159 C158 1.384 . S
C159 C160 1.377 . S
C159 C162 1.481 . S
C160 C159 1.377 . S
C160 C161 1.389 . S
C160 H182 0.929 . S
C161 C157 1.397 . S
C161 C160 1.389 . S
C161 H183 0.931 . S
C162 C159 1.481 . S
C162 C163 1.387 . S
C162 C167 1.390 . S
C163 C162 1.387 . S
C163 C164 1.401 . S
C163 H184 0.930 . S
C164 C163 1.401 . S
C164 C165 1.376 . S
C164 C173 1.511 . S
C165 C164 1.376 . S
C165 C166 1.392 . S
C165 H186 0.931 . S
C166 C165 1.392 . S
C166 C167 1.361 . S
C166 C168 1.500 . S
C167 C162 1.390 . S
C167 C166 1.361 . S
C167 H185 0.931 . S
C168 C166 1.500 . S
C168 C169 1.371 . S
C168 C170 1.365 . S
C169 C168 1.371 . S
C169 C179 1.386 . S
C169 H187 0.931 . S
C170 C168 1.365 . S
C170 C171 1.409 . S
C170 H188 0.929 . S
C171 C170 1.409 . S
C171 C172 1.380 . S
C171 H189 0.930 . S
C172 C171 1.380 . S
C172 C179 1.357 . S
C173 C164 1.511 . S
C173 C174 1.341 . S
C173 C175 1.371 . S
C174 C173 1.341 . S
C174 C178 1.394 . S
C174 H190 0.930 . S
C175 C173 1.371 . S
C175 C176 1.392 . S
C175 H191 0.931 . S
C176 C175 1.392 . S
C176 C177 1.331 . S
C176 H194 0.932 . S
C177 C176 1.331 . S
C177 C178 1.336 . S
C178 C174 1.394 . S
C178 C177 1.336 . S
C178 H193 0.929 . S
C179 C169 1.386 . S
C179 C172 1.357 . S
C179 H192 0.928 . S
H180 C156 0.931 . S
H181 C158 0.930 . S
H182 C160 0.929 . S
H183 C161 0.931 . S
H184 C163 0.930 . S
H185 C167 0.931 . S
H186 C165 0.931 . S
H187 C169 0.931 . S
H188 C170 0.929 . S
H189 C171 0.930 . S
H190 C174 0.930 . S
H191 C175 0.931 . S
H192 C179 0.928 . S
H193 C178 0.929 . S
H194 C176 0.932 . S
C195 C196 1.386 . S
C195 C197 1.397 . S
C195 H219 0.931 . S
C196 C195 1.386 . S
C196 C200 1.397 . S
C197 C195 1.397 . S
C197 C198 1.384 . S
C197 H220 0.930 . S
C198 C197 1.384 . S
C198 C199 1.377 . S
C198 C201 1.481 . S
C199 C198 1.377 . S
C199 C200 1.389 . S
C199 H221 0.929 . S
C200 C196 1.397 . S
C200 C199 1.389 . S
C200 H222 0.931 . S
C201 C198 1.481 . S
C201 C202 1.387 . S
C201 C206 1.390 . S
C202 C201 1.387 . S
C202 C203 1.401 . S
C202 H223 0.930 . S
C203 C202 1.401 . S
C203 C204 1.376 . S
C203 C212 1.511 . S
C204 C203 1.376 . S
C204 C205 1.392 . S
C204 H225 0.931 . S
C205 C204 1.392 . S
C205 C206 1.361 . S
C205 C207 1.500 . S
C206 C201 1.390 . S
C206 C205 1.361 . S
C206 H224 0.931 . S
C207 C205 1.500 . S
C207 C208 1.371 . S
C207 C209 1.365 . S
C208 C207 1.371 . S
C208 C218 1.386 . S
C208 H226 0.931 . S
C209 C207 1.365 . S
C209 C210 1.409 . S
C209 H227 0.929 . S
C210 C209 1.409 . S
C210 C211 1.380 . S
C210 H228 0.930 . S
C211 C210 1.380 . S
C211 C218 1.357 . S
C212 C203 1.511 . S
C212 C213 1.341 . S
C212 C214 1.371 . S
C213 C212 1.341 . S
C213 C217 1.394 . S
C213 H229 0.930 . S
C214 C212 1.371 . S
C214 C215 1.392 . S
C214 H230 0.931 . S
C215 C214 1.392 . S
C215 C216 1.331 . S
C215 H233 0.932 . S
C216 C215 1.331 . S
C216 C217 1.336 . S
C217 C213 1.394 . S
C217 C216 1.336 . S
C217 H232 0.929 . S
C218 C208 1.386 . S
C218 C211 1.357 . S
C218 H231 0.928 . S
H219 C195 0.931 . S
H220 C197 0.930 . S
H221 C199 0.929 . S
H222 C200 0.931 . S
H223 C202 0.930 . S
H224 C206 0.931 . S
H225 C204 0.931 . S
H226 C208 0.931 . S
H227 C209 0.929 . S
H228 C210 0.930 . S
H229 C213 0.930 . S
H230 C214 0.931 . S
H231 C218 0.928 . S
H232 C217 0.929 . S
H233 C215 0.932 . S
C234 C235 1.386 . S
C234 C236 1.397 . S
C234 H258 0.931 . S
C235 C234 1.386 . S
C235 C239 1.397 . S
C236 C234 1.397 . S
C236 C237 1.384 . S
C236 H259 0.930 . S
C237 C236 1.384 . S
C237 C238 1.377 . S
C237 C240 1.481 . S
C238 C237 1.377 . S
C238 C239 1.389 . S
C238 H260 0.929 . S
C239 C235 1.397 . S
C239 C238 1.389 . S
C239 H261 0.931 . S
C240 C237 1.481 . S
C240 C241 1.387 . S
C240 C245 1.390 . S
C241 C240 1.387 . S
C241 C242 1.401 . S
C241 H262 0.930 . S
C242 C241 1.401 . S
C242 C243 1.376 . S
C242 C251 1.511 . S
C243 C242 1.376 . S
C243 C244 1.392 . S
C243 H264 0.931 . S
C244 C243 1.392 . S
C244 C245 1.361 . S
C244 C246 1.500 . S
C245 C240 1.390 . S
C245 C244 1.361 . S
C245 H263 0.931 . S
C246 C244 1.500 . S
C246 C247 1.371 . S
C246 C248 1.365 . S
C247 C246 1.371 . S
C247 C257 1.386 . S
C247 H265 0.931 . S
C248 C246 1.365 . S
C248 C249 1.409 . S
C248 H266 0.929 . S
C249 C248 1.409 . S
C249 C250 1.380 . S
C249 H267 0.930 . S
C250 C249 1.380 . S
C250 C257 1.357 . S
C251 C242 1.511 . S
C251 C252 1.341 . S
C251 C253 1.371 . S
C252 C251 1.341 . S
C252 C256 1.394 . S
C252 H268 0.930 . S
C253 C251 1.371 . S
C253 C254 1.392 . S
C253 H269 0.931 . S
C254 C253 1.392 . S
C254 C255 1.331 . S
C254 H272 0.932 . S
C255 C254 1.331 . S
C255 C256 1.336 . S
C256 C252 1.394 . S
C256 C255 1.336 . S
C256 H271 0.929 . S
C257 C247 1.386 . S
C257 C250 1.357 . S
C257 H270 0.928 . S
H258 C234 0.931 . S
H259 C236 0.930 . S
H260 C238 0.929 . S
H261 C239 0.931 . S
H262 C241 0.930 . S
H263 C245 0.931 . S
H264 C243 0.931 . S
H265 C247 0.931 . S
H266 C248 0.929 . S
H267 C249 0.930 . S
H268 C252 0.930 . S
H269 C253 0.931 . S
H270 C257 0.928 . S
H271 C256 0.929 . S
H272 C254 0.932 . S
C273 C274 1.386 . S
C273 C275 1.397 . S
C273 H297 0.931 . S
C274 C273 1.386 . S
C274 C278 1.397 . S
C275 C273 1.397 . S
C275 C276 1.384 . S
C275 H298 0.930 . S
C276 C275 1.384 . S
C276 C277 1.377 . S
C276 C279 1.481 . S
C277 C276 1.377 . S
C277 C278 1.389 . S
C277 H299 0.929 . S
C278 C274 1.397 . S
C278 C277 1.389 . S
C278 H300 0.931 . S
C279 C276 1.481 . S
C279 C280 1.387 . S
C279 C284 1.390 . S
C280 C279 1.387 . S
C280 C281 1.401 . S
C280 H301 0.930 . S
C281 C280 1.401 . S
C281 C282 1.376 . S
C281 C290 1.511 . S
C282 C281 1.376 . S
C282 C283 1.392 . S
C282 H303 0.931 . S
C283 C282 1.392 . S
C283 C284 1.361 . S
C283 C285 1.500 . S
C284 C279 1.390 . S
C284 C283 1.361 . S
C284 H302 0.931 . S
C285 C283 1.500 . S
C285 C286 1.371 . S
C285 C287 1.365 . S
C286 C285 1.371 . S
C286 C296 1.386 . S
C286 H304 0.931 . S
C287 C285 1.365 . S
C287 C288 1.409 . S
C287 H305 0.929 . S
C288 C287 1.409 . S
C288 C289 1.380 . S
C288 H306 0.930 . S
C289 C288 1.380 . S
C289 C296 1.357 . S
C290 C281 1.511 . S
C290 C291 1.341 . S
C290 C292 1.371 . S
C291 C290 1.341 . S
C291 C295 1.394 . S
C291 H307 0.930 . S
C292 C290 1.371 . S
C292 C293 1.392 . S
C292 H308 0.931 . S
C293 C292 1.392 . S
C293 C294 1.331 . S
C293 H311 0.932 . S
C294 C293 1.331 . S
C294 C295 1.336 . S
C295 C291 1.394 . S
C295 C294 1.336 . S
C295 H310 0.929 . S
C296 C286 1.386 . S
C296 C289 1.357 . S
C296 H309 0.928 . S
H297 C273 0.931 . S
H298 C275 0.930 . S
H299 C277 0.929 . S
H300 C278 0.931 . S
H301 C280 0.930 . S
H302 C284 0.931 . S
H303 C282 0.931 . S
H304 C286 0.931 . S
H305 C287 0.929 . S
H306 C288 0.930 . S
H307 C291 0.930 . S
H308 C292 0.931 . S
H309 C296 0.928 . S
H310 C295 0.929 . S
H311 C293 0.932 . S
La312 C314 2.928 . S
La312 O332 2.521 . S
La312 O333 2.628 . S
La312 O334 2.554 1_545 S
La312 O335 2.757 1_545 S
La312 O336 2.470 . S
La312 O341 2.482 1_455 S
La312 O343 2.503 1_445 S
La313 C323 2.928 . S
La313 O335 2.482 1_655 S
La313 O337 2.503 1_665 S
La313 O338 2.521 . S
La313 O339 2.628 . S
La313 O340 2.554 1_565 S
La313 O341 2.757 1_565 S
La313 O342 2.470 . S
C314 La312 2.928 . S
C314 C315 1.503 . S
C314 O332 1.261 . S
C314 O333 1.243 . S
C315 C314 1.503 . S
C315 C316 1.394 . S
C315 C320 1.373 . S
C316 C315 1.394 . S
C316 C317 1.380 . S
C316 H344 0.930 . S
C317 C316 1.380 . S
C317 C318 1.376 . S
C317 H345 0.930 . S
C318 C317 1.376 . S
C318 C319 1.370 . S
C319 C318 1.370 . S
C319 C320 1.396 . S
C319 H346 0.929 . S
C320 C315 1.373 . S
C320 C319 1.396 . S
C320 H347 0.929 . S
C321 O334 1.240 . S
C321 O335 1.289 . S
C322 O336 1.258 . S
C322 O337 1.256 . S
C323 La313 2.928 . S
C323 C324 1.503 . S
C323 O338 1.261 . S
C323 O339 1.243 . S
C324 C323 1.503 . S
C324 C325 1.394 . S
C324 C329 1.373 . S
C325 C324 1.394 . S
C325 C326 1.380 . S
C325 H348 0.930 . S
C326 C325 1.380 . S
C326 C327 1.376 . S
C326 H349 0.930 . S
C327 C326 1.376 . S
C327 C328 1.370 . S
C328 C327 1.370 . S
C328 C329 1.396 . S
C328 H350 0.929 . S
C329 C324 1.373 . S
C329 C328 1.396 . S
C329 H351 0.929 . S
C330 O340 1.240 . S
C330 O341 1.289 . S
C331 O342 1.258 . S
C331 O343 1.256 . S
O332 La312 2.521 . S
O332 C314 1.261 . S
O333 La312 2.628 . S
O333 C314 1.243 . S
O334 La312 2.554 1_565 S
O334 C321 1.240 . S
O335 La312 2.757 1_565 S
O335 La313 2.482 1_455 S
O335 C321 1.289 . S
O336 La312 2.470 . S
O336 C322 1.258 . S
O337 La313 2.503 1_445 S
O337 C322 1.256 . S
O338 La313 2.521 . S
O338 C323 1.261 . S
O339 La313 2.628 . S
O339 C323 1.243 . S
O340 La313 2.554 1_545 S
O340 C330 1.240 . S
O341 La312 2.482 1_655 S
O341 La313 2.757 1_545 S
O341 C330 1.289 . S
O342 La313 2.470 . S
O342 C331 1.258 . S
O343 La312 2.503 1_665 S
O343 C331 1.256 . S
H344 C316 0.930 . S
H345 C317 0.930 . S
H346 C319 0.929 . S
H347 C320 0.929 . S
H348 C325 0.930 . S
H349 C326 0.930 . S
H350 C328 0.929 . S
H351 C329 0.929 . S
La352 C354 2.926 1_565 S
La352 O372 2.521 1_565 S
La352 O373 2.624 1_565 S
La352 O374 2.557 . S
La352 O375 2.759 . S
La352 O376 2.468 1_565 S
La352 O381 2.479 1_564 S
La352 O383 2.506 1_554 S
La353 C363 2.928 1_545 S
La353 O375 2.482 1_546 S
La353 O377 2.503 1_556 S
La353 O378 2.521 1_545 S
La353 O379 2.628 1_545 S
La353 O380 2.554 . S
La353 O381 2.757 . S
La353 O382 2.470 1_545 S
C354 La352 2.926 1_545 S
C354 C355 1.503 . S
C354 O372 1.261 . S
C354 O373 1.243 . S
C355 C354 1.503 . S
C355 C356 1.394 . S
C355 C360 1.373 . S
C356 C355 1.394 . S
C356 C357 1.380 . S
C356 H384 0.930 . S
C357 C356 1.380 . S
C357 C358 1.376 . S
C357 H385 0.930 . S
C358 C357 1.376 . S
C358 C359 1.370 . S
C359 C358 1.370 . S
C359 C360 1.396 . S
C359 H386 0.929 . S
C360 C355 1.373 . S
C360 C359 1.396 . S
C360 H387 0.929 . S
C361 O374 1.240 . S
C361 O375 1.289 . S
C362 O376 1.258 . S
C362 O377 1.256 . S
C363 La353 2.928 1_565 S
C363 C364 1.503 . S
C363 O378 1.261 . S
C363 O379 1.243 . S
C364 C363 1.503 . S
C364 C365 1.394 . S
C364 C369 1.373 . S
C365 C364 1.394 . S
C365 C366 1.380 . S
C365 H388 0.930 . S
C366 C365 1.380 . S
C366 C367 1.376 . S
C366 H389 0.930 . S
C367 C366 1.376 . S
C367 C368 1.370 . S
C368 C367 1.370 . S
C368 C369 1.396 . S
C368 H390 0.929 . S
C369 C364 1.373 . S
C369 C368 1.396 . S
C369 H391 0.929 . S
C370 O380 1.240 . S
C370 O381 1.289 . S
C371 O382 1.258 . S
C371 O383 1.256 . S
O372 La352 2.521 1_545 S
O372 C354 1.261 . S
O373 La352 2.624 1_545 S
O373 C354 1.243 . S
O374 La352 2.557 . S
O374 C361 1.240 . S
O375 La352 2.759 . S
O375 La353 2.482 1_564 S
O375 C361 1.289 . S
O376 La352 2.468 1_545 S
O376 C362 1.258 . S
O377 La353 2.503 1_554 S
O377 C362 1.256 . S
O378 La353 2.521 1_565 S
O378 C363 1.261 . S
O379 La353 2.628 1_565 S
O379 C363 1.243 . S
O380 La353 2.554 . S
O380 C370 1.240 . S
O381 La352 2.479 1_546 S
O381 La353 2.757 . S
O381 C370 1.289 . S
O382 La353 2.470 1_565 S
O382 C371 1.258 . S
O383 La352 2.506 1_556 S
O383 C371 1.256 . S
H384 C356 0.930 . S
H385 C357 0.930 . S
H386 C359 0.929 . S
H387 C360 0.929 . S
H388 C365 0.930 . S
H389 C366 0.930 . S
H390 C368 0.929 . S
H391 C369 0.929 . S
La392 C394 2.928 . S
La392 O412 2.521 . S
La392 O413 2.628 . S
La392 O414 2.554 . S
La392 O415 2.757 . S
La392 O416 2.470 . S
La392 O421 2.482 . S
La392 O423 2.503 . S
La393 C403 2.928 . S
La393 O415 2.482 . S
La393 O417 2.503 . S
La393 O418 2.521 . S
La393 O419 2.628 . S
La393 O420 2.554 . S
La393 O421 2.757 . S
La393 O422 2.470 . S
C394 La392 2.928 . S
C394 C395 1.503 . S
C394 O412 1.261 . S
C394 O413 1.243 . S
C395 C394 1.503 . S
C395 C396 1.394 . S
C395 C400 1.373 . S
C396 C395 1.394 . S
C396 C397 1.380 . S
C396 H424 0.930 . S
C397 C396 1.380 . S
C397 C398 1.376 . S
C397 H425 0.930 . S
C398 C397 1.376 . S
C398 C399 1.370 . S
C399 C398 1.370 . S
C399 C400 1.396 . S
C399 H426 0.929 . S
C400 C395 1.373 . S
C400 C399 1.396 . S
C400 H427 0.929 . S
C401 O414 1.240 . S
C401 O415 1.289 . S
C402 O416 1.258 . S
C402 O417 1.256 . S
C403 La393 2.928 . S
C403 C404 1.503 . S
C403 O418 1.261 . S
C403 O419 1.243 . S
C404 C403 1.503 . S
C404 C405 1.394 . S
C404 C409 1.373 . S
C405 C404 1.394 . S
C405 C406 1.380 . S
C405 H428 0.930 . S
C406 C405 1.380 . S
C406 C407 1.376 . S
C406 H429 0.930 . S
C407 C406 1.376 . S
C407 C408 1.370 . S
C408 C407 1.370 . S
C408 C409 1.396 . S
C408 H430 0.929 . S
C409 C404 1.373 . S
C409 C408 1.396 . S
C409 H431 0.929 . S
C410 O420 1.240 . S
C410 O421 1.289 . S
C411 O422 1.258 . S
C411 O423 1.256 . S
O412 La392 2.521 . S
O412 C394 1.261 . S
O413 La392 2.628 . S
O413 C394 1.243 . S
O414 La392 2.554 . S
O414 C401 1.240 . S
O415 La392 2.757 . S
O415 La393 2.482 . S
O415 C401 1.289 . S
O416 La392 2.470 . S
O416 C402 1.258 . S
O417 La393 2.503 . S
O417 C402 1.256 . S
O418 La393 2.521 . S
O418 C403 1.261 . S
O419 La393 2.628 . S
O419 C403 1.243 . S
O420 La393 2.554 . S
O420 C410 1.240 . S
O421 La392 2.482 . S
O421 La393 2.757 . S
O421 C410 1.289 . S
O422 La393 2.470 . S
O422 C411 1.258 . S
O423 La392 2.503 . S
O423 C411 1.256 . S
H424 C396 0.930 . S
H425 C397 0.930 . S
H426 C399 0.929 . S
H427 C400 0.929 . S
H428 C405 0.930 . S
H429 C406 0.930 . S
H430 C408 0.929 . S
H431 C409 0.929 . S
La432 C434 2.928 . S
La432 O452 2.521 . S
La432 O453 2.628 . S
La432 O454 2.554 1_455 S
La432 O455 2.757 1_455 S
La432 O456 2.470 . S
La432 O461 2.482 1_554 S
La432 O463 2.503 1_454 S
La433 C443 2.928 . S
La433 O455 2.482 1_556 S
La433 O457 2.503 1_656 S
La433 O458 2.521 . S
La433 O459 2.628 . S
La433 O460 2.554 1_655 S
La433 O461 2.757 1_655 S
La433 O462 2.470 . S
C434 La432 2.928 . S
C434 C435 1.503 . S
C434 O452 1.261 . S
C434 O453 1.243 . S
C435 C434 1.503 . S
C435 C436 1.394 . S
C435 C440 1.373 . S
C436 C435 1.394 . S
C436 C437 1.380 . S
C436 H464 0.930 . S
C437 C436 1.380 . S
C437 C438 1.376 . S
C437 H465 0.930 . S
C438 C437 1.376 . S
C438 C439 1.370 . S
C439 C438 1.370 . S
C439 C440 1.396 . S
C439 H466 0.929 . S
C440 C435 1.373 . S
C440 C439 1.396 . S
C440 H467 0.929 . S
C441 O454 1.240 . S
C441 O455 1.289 . S
C442 O456 1.258 . S
C442 O457 1.256 . S
C443 La433 2.928 . S
C443 C444 1.503 . S
C443 O458 1.261 . S
C443 O459 1.243 . S
C444 C443 1.503 . S
C444 C445 1.394 . S
C444 C449 1.373 . S
C445 C444 1.394 . S
C445 C446 1.380 . S
C445 H468 0.930 . S
C446 C445 1.380 . S
C446 C447 1.376 . S
C446 H469 0.930 . S
C447 C446 1.376 . S
C447 C448 1.370 . S
C448 C447 1.370 . S
C448 C449 1.396 . S
C448 H470 0.929 . S
C449 C444 1.373 . S
C449 C448 1.396 . S
C449 H471 0.929 . S
C450 O460 1.240 . S
C450 O461 1.289 . S
C451 O462 1.258 . S
C451 O463 1.256 . S
O452 La432 2.521 . S
O452 C434 1.261 . S
O453 La432 2.628 . S
O453 C434 1.243 . S
O454 La432 2.554 1_655 S
O454 C441 1.240 . S
O455 La432 2.757 1_655 S
O455 La433 2.482 1_554 S
O455 C441 1.289 . S
O456 La432 2.470 . S
O456 C442 1.258 . S
O457 La433 2.503 1_454 S
O457 C442 1.256 . S
O458 La433 2.521 . S
O458 C443 1.261 . S
O459 La433 2.628 . S
O459 C443 1.243 . S
O460 La433 2.554 1_455 S
O460 C450 1.240 . S
O461 La432 2.482 1_556 S
O461 La433 2.757 1_455 S
O461 C450 1.289 . S
O462 La433 2.470 . S
O462 C451 1.258 . S
O463 La432 2.503 1_656 S
O463 C451 1.256 . S
H464 C436 0.930 . S
H465 C437 0.930 . S
H466 C439 0.929 . S
H467 C440 0.929 . S
H468 C445 0.930 . S
H469 C446 0.930 . S
H470 C448 0.929 . S
H471 C449 0.929 . S
C472 C473 1.391 . S
C472 C474 1.394 . S
C472 H488 0.931 . S
C473 C472 1.391 . S
C473 C477 1.376 . S
C474 C472 1.394 . S
C474 C475 1.369 . S
C474 C478 1.531 . S
C475 C474 1.369 . S
C475 C476 1.410 . S
C475 C483 1.503 . S
C476 C475 1.410 . S
C476 C477 1.392 . S
C476 C479 1.511 . S
C477 C473 1.376 . S
C477 C476 1.392 . S
C477 H489 0.929 . S
C478 C474 1.531 . S
C478 H490 0.960 . S
C478 H491 0.962 . S
C478 H492 0.960 . S
C479 C476 1.511 . S
C479 H493 0.961 . S
C479 H494 0.961 . S
C479 H495 0.961 . S
C480 C481 1.370 . S
C480 C482 1.363 . S
C480 H496 0.931 . S
C481 C480 1.370 . S
C481 C485 1.408 . S
C482 C480 1.363 . S
C482 C483 1.370 . S
C482 C486 1.524 . S
C483 C475 1.503 . S
C483 C482 1.370 . S
C483 C484 1.403 . S
C484 C483 1.403 . S
C484 C485 1.404 . S
C484 C487 1.539 . S
C485 C481 1.408 . S
C485 C484 1.404 . S
C485 H497 0.930 . S
C486 C482 1.524 . S
C486 H498 0.956 . S
C486 H499 0.961 . S
C486 H500 0.961 . S
C487 C484 1.539 . S
C487 H501 0.958 . S
C487 H502 0.961 . S
C487 H503 0.960 . S
H488 C472 0.931 . S
H489 C477 0.929 . S
H490 C478 0.960 . S
H491 C478 0.962 . S
H492 C478 0.960 . S
H493 C479 0.961 . S
H494 C479 0.961 . S
H495 C479 0.961 . S
H496 C480 0.931 . S
H497 C485 0.930 . S
H498 C486 0.956 . S
H499 C486 0.961 . S
H500 C486 0.961 . S
H501 C487 0.958 . S
H502 C487 0.961 . S
H503 C487 0.960 . S
C504 C505 1.391 . S
C504 C506 1.394 . S
C504 H520 0.931 . S
C505 C504 1.391 . S
C505 C509 1.376 . S
C506 C504 1.394 . S
C506 C507 1.369 . S
C506 C510 1.531 . S
C507 C506 1.369 . S
C507 C508 1.410 . S
C507 C515 1.503 . S
C508 C507 1.410 . S
C508 C509 1.392 . S
C508 C511 1.511 . S
C509 C505 1.376 . S
C509 C508 1.392 . S
C509 H521 0.929 . S
C510 C506 1.531 . S
C510 H522 0.960 . S
C510 H523 0.962 . S
C510 H524 0.960 . S
C511 C508 1.511 . S
C511 H525 0.961 . S
C511 H526 0.961 . S
C511 H527 0.961 . S
C512 C513 1.370 . S
C512 C514 1.363 . S
C512 H528 0.931 . S
C513 C512 1.370 . S
C513 C517 1.408 . S
C514 C512 1.363 . S
C514 C515 1.370 . S
C514 C518 1.524 . S
C515 C507 1.503 . S
C515 C514 1.370 . S
C515 C516 1.403 . S
C516 C515 1.403 . S
C516 C517 1.404 . S
C516 C519 1.539 . S
C517 C513 1.408 . S
C517 C516 1.404 . S
C517 H529 0.930 . S
C518 C514 1.524 . S
C518 H530 0.956 . S
C518 H531 0.961 . S
C518 H532 0.961 . S
C519 C516 1.539 . S
C519 H533 0.958 . S
C519 H534 0.961 . S
C519 H535 0.960 . S
H520 C504 0.931 . S
H521 C509 0.929 . S
H522 C510 0.960 . S
H523 C510 0.962 . S
H524 C510 0.960 . S
H525 C511 0.961 . S
H526 C511 0.961 . S
H527 C511 0.961 . S
H528 C512 0.931 . S
H529 C517 0.930 . S
H530 C518 0.956 . S
H531 C518 0.961 . S
H532 C518 0.961 . S
H533 C519 0.958 . S
H534 C519 0.961 . S
H535 C519 0.960 . S
C536 C537 1.391 . S
C536 C538 1.394 . S
C536 H552 0.931 . S
C537 C536 1.391 . S
C537 C541 1.376 . S
C538 C536 1.394 . S
C538 C539 1.369 . S
C538 C542 1.531 . S
C539 C538 1.369 . S
C539 C540 1.410 . S
C539 C547 1.503 . S
C540 C539 1.410 . S
C540 C541 1.392 . S
C540 C543 1.511 . S
C541 C537 1.376 . S
C541 C540 1.392 . S
C541 H553 0.929 . S
C542 C538 1.531 . S
C542 H554 0.960 . S
C542 H555 0.962 . S
C542 H556 0.960 . S
C543 C540 1.511 . S
C543 H557 0.961 . S
C543 H558 0.961 . S
C543 H559 0.961 . S
C544 C545 1.370 . S
C544 C546 1.363 . S
C544 H560 0.931 . S
C545 C544 1.370 . S
C545 C549 1.408 . S
C546 C544 1.363 . S
C546 C547 1.370 . S
C546 C550 1.524 . S
C547 C539 1.503 . S
C547 C546 1.370 . S
C547 C548 1.403 . S
C548 C547 1.403 . S
C548 C549 1.404 . S
C548 C551 1.539 . S
C549 C545 1.408 . S
C549 C548 1.404 . S
C549 H561 0.930 . S
C550 C546 1.524 . S
C550 H562 0.956 . S
C550 H563 0.961 . S
C550 H564 0.961 . S
C551 C548 1.539 . S
C551 H565 0.958 . S
C551 H566 0.961 . S
C551 H567 0.960 . S
H552 C536 0.931 . S
H553 C541 0.929 . S
H554 C542 0.960 . S
H555 C542 0.962 . S
H556 C542 0.960 . S
H557 C543 0.961 . S
H558 C543 0.961 . S
H559 C543 0.961 . S
H560 C544 0.931 . S
H561 C549 0.930 . S
H562 C550 0.956 . S
H563 C550 0.961 . S
H564 C550 0.961 . S
H565 C551 0.958 . S
H566 C551 0.961 . S
H567 C551 0.960 . S
C568 C569 1.391 . S
C568 C570 1.394 . S
C568 H584 0.931 . S
C569 C568 1.391 . S
C569 C573 1.376 . S
C570 C568 1.394 . S
C570 C571 1.369 . S
C570 C574 1.531 . S
C571 C570 1.369 . S
C571 C572 1.410 . S
C571 C579 1.503 . S
C572 C571 1.410 . S
C572 C573 1.392 . S
C572 C575 1.511 . S
C573 C569 1.376 . S
C573 C572 1.392 . S
C573 H585 0.929 . S
C574 C570 1.531 . S
C574 H586 0.960 . S
C574 H587 0.962 . S
C574 H588 0.960 . S
C575 C572 1.511 . S
C575 H589 0.961 . S
C575 H590 0.961 . S
C575 H591 0.961 . S
C576 C577 1.370 . S
C576 C578 1.363 . S
C576 H592 0.931 . S
C577 C576 1.370 . S
C577 C581 1.408 . S
C578 C576 1.363 . S
C578 C579 1.370 . S
C578 C582 1.524 . S
C579 C571 1.503 . S
C579 C578 1.370 . S
C579 C580 1.403 . S
C580 C579 1.403 . S
C580 C581 1.404 . S
C580 C583 1.539 . S
C581 C577 1.408 . S
C581 C580 1.404 . S
C581 H593 0.930 . S
C582 C578 1.524 . S
C582 H594 0.956 . S
C582 H595 0.961 . S
C582 H596 0.961 . S
C583 C580 1.539 . S
C583 H597 0.958 . S
C583 H598 0.961 1_655 S
C583 H599 0.960 . S
H584 C568 0.931 . S
H585 C573 0.929 . S
H586 C574 0.960 . S
H587 C574 0.962 . S
H588 C574 0.960 . S
H589 C575 0.961 . S
H590 C575 0.961 . S
H591 C575 0.961 . S
H592 C576 0.931 . S
H593 C581 0.930 . S
H594 C582 0.956 . S
H595 C582 0.961 . S
H596 C582 0.961 . S
H597 C583 0.958 . S
H598 C583 0.961 1_455 S
H599 C583 0.960 . S
C600 C601 1.391 . S
C600 C602 1.394 . S
C600 H616 0.931 . S
C601 C600 1.391 . S
C601 C605 1.376 . S
C602 C600 1.394 . S
C602 C603 1.369 . S
C602 C606 1.531 . S
C603 C602 1.369 . S
C603 C604 1.410 . S
C603 C611 1.503 . S
C604 C603 1.410 . S
C604 C605 1.392 . S
C604 C607 1.511 . S
C605 C601 1.376 . S
C605 C604 1.392 . S
C605 H617 0.929 . S
C606 C602 1.531 . S
C606 H618 0.960 . S
C606 H619 0.962 . S
C606 H620 0.960 . S
C607 C604 1.511 . S
C607 H621 0.961 . S
C607 H622 0.961 . S
C607 H623 0.961 . S
C608 C609 1.370 . S
C608 C610 1.363 . S
C608 H624 0.931 . S
C609 C608 1.370 . S
C609 C613 1.408 . S
C610 C608 1.363 . S
C610 C611 1.370 . S
C610 C614 1.524 . S
C611 C603 1.503 . S
C611 C610 1.370 . S
C611 C612 1.403 . S
C612 C611 1.403 . S
C612 C613 1.404 . S
C612 C615 1.539 . S
C613 C609 1.408 . S
C613 C612 1.404 . S
C613 H625 0.930 . S
C614 C610 1.524 . S
C614 H626 0.956 . S
C614 H627 0.961 . S
C614 H628 0.961 . S
C615 C612 1.539 . S
C615 H629 0.958 . S
C615 H630 0.961 . S
C615 H631 0.960 . S
H616 C600 0.931 . S
H617 C605 0.929 . S
H618 C606 0.960 . S
H619 C606 0.962 . S
H620 C606 0.960 . S
H621 C607 0.961 . S
H622 C607 0.961 . S
H623 C607 0.961 . S
H624 C608 0.931 . S
H625 C613 0.930 . S
H626 C614 0.956 . S
H627 C614 0.961 . S
H628 C614 0.961 . S
H629 C615 0.958 . S
H630 C615 0.961 . S
H631 C615 0.960 . S
C632 C633 1.391 . S
C632 C634 1.394 . S
C632 H648 0.931 . S
C633 C632 1.391 . S
C633 C637 1.376 . S
C634 C632 1.394 . S
C634 C635 1.369 . S
C634 C638 1.531 . S
C635 C634 1.369 . S
C635 C636 1.410 . S
C635 C643 1.503 . S
C636 C635 1.410 . S
C636 C637 1.392 . S
C636 C639 1.511 . S
C637 C633 1.376 . S
C637 C636 1.392 . S
C637 H649 0.929 . S
C638 C634 1.531 . S
C638 H650 0.960 . S
C638 H651 0.962 . S
C638 H652 0.960 . S
C639 C636 1.511 . S
C639 H653 0.961 . S
C639 H654 0.961 . S
C639 H655 0.961 . S
C640 C641 1.370 . S
C640 C642 1.363 . S
C640 H656 0.931 . S
C641 C640 1.370 . S
C641 C645 1.408 . S
C642 C640 1.363 . S
C642 C643 1.370 . S
C642 C646 1.524 . S
C643 C635 1.503 . S
C643 C642 1.370 . S
C643 C644 1.403 . S
C644 C643 1.403 . S
C644 C645 1.404 . S
C644 C647 1.539 . S
C645 C641 1.408 . S
C645 C644 1.404 . S
C645 H657 0.930 . S
C646 C642 1.524 . S
C646 H658 0.956 . S
C646 H659 0.961 . S
C646 H660 0.961 . S
C647 C644 1.539 . S
C647 H661 0.958 . S
C647 H662 0.961 . S
C647 H663 0.960 . S
H648 C632 0.931 . S
H649 C637 0.929 . S
H650 C638 0.960 . S
H651 C638 0.962 . S
H652 C638 0.960 . S
H653 C639 0.961 . S
H654 C639 0.961 . S
H655 C639 0.961 . S
H656 C640 0.931 . S
H657 C645 0.930 . S
H658 C646 0.956 . S
H659 C646 0.961 . S
H660 C646 0.961 . S
H661 C647 0.958 . S
H662 C647 0.961 . S
H663 C647 0.960 . S
C664 C665 1.391 . S
C664 C666 1.394 . S
C664 H680 0.931 . S
C665 C664 1.391 . S
C665 C669 1.376 . S
C666 C664 1.394 . S
C666 C667 1.369 . S
C666 C670 1.531 . S
C667 C666 1.369 . S
C667 C668 1.410 . S
C667 C675 1.503 . S
C668 C667 1.410 . S
C668 C669 1.392 . S
C668 C671 1.511 . S
C669 C665 1.376 . S
C669 C668 1.392 . S
C669 H681 0.929 . S
C670 C666 1.531 . S
C670 H682 0.960 . S
C670 H683 0.962 . S
C670 H684 0.960 . S
C671 C668 1.511 . S
C671 H685 0.961 . S
C671 H686 0.961 . S
C671 H687 0.961 . S
C672 C673 1.370 . S
C672 C674 1.363 . S
C672 H688 0.931 . S
C673 C672 1.370 . S
C673 C677 1.408 . S
C674 C672 1.363 . S
C674 C675 1.370 . S
C674 C678 1.524 . S
C675 C667 1.503 . S
C675 C674 1.370 . S
C675 C676 1.403 . S
C676 C675 1.403 . S
C676 C677 1.404 . S
C676 C679 1.539 . S
C677 C673 1.408 . S
C677 C676 1.404 . S
C677 H689 0.930 . S
C678 C674 1.524 . S
C678 H690 0.956 . S
C678 H691 0.961 . S
C678 H692 0.961 . S
C679 C676 1.539 . S
C679 H693 0.958 . S
C679 H694 0.961 . S
C679 H695 0.960 . S
H680 C664 0.931 . S
H681 C669 0.929 . S
H682 C670 0.960 . S
H683 C670 0.962 . S
H684 C670 0.960 . S
H685 C671 0.961 . S
H686 C671 0.961 . S
H687 C671 0.961 . S
H688 C672 0.931 . S
H689 C677 0.930 . S
H690 C678 0.956 . S
H691 C678 0.961 . S
H692 C678 0.961 . S
H693 C679 0.958 . S
H694 C679 0.961 . S
H695 C679 0.960 . S
C696 C697 1.391 . S
C696 C698 1.394 . S
C696 H712 0.931 . S
C697 C696 1.391 . S
C697 C701 1.376 . S
C698 C696 1.394 . S
C698 C699 1.369 . S
C698 C702 1.531 . S
C699 C698 1.369 . S
C699 C700 1.410 . S
C699 C707 1.503 . S
C700 C699 1.410 . S
C700 C701 1.392 . S
C700 C703 1.511 . S
C701 C697 1.376 . S
C701 C700 1.392 . S
C701 H713 0.929 . S
C702 C698 1.531 . S
C702 H714 0.960 . S
C702 H715 0.962 . S
C702 H716 0.960 . S
C703 C700 1.511 . S
C703 H717 0.961 . S
C703 H718 0.961 . S
C703 H719 0.961 . S
C704 C705 1.370 . S
C704 C706 1.363 . S
C704 H720 0.931 . S
C705 C704 1.370 . S
C705 C709 1.408 . S
C706 C704 1.363 . S
C706 C707 1.370 . S
C706 C710 1.524 . S
C707 C699 1.503 . S
C707 C706 1.370 . S
C707 C708 1.403 . S
C708 C707 1.403 . S
C708 C709 1.404 . S
C708 C711 1.539 . S
C709 C705 1.408 . S
C709 C708 1.404 . S
C709 H721 0.930 . S
C710 C706 1.524 . S
C710 H722 0.956 . S
C710 H723 0.961 . S
C710 H724 0.961 . S
C711 C708 1.539 . S
C711 H725 0.958 . S
C711 H726 0.961 . S
C711 H727 0.960 . S
H712 C696 0.931 . S
H713 C701 0.929 . S
H714 C702 0.960 . S
H715 C702 0.962 . S
H716 C702 0.960 . S
H717 C703 0.961 . S
H718 C703 0.961 . S
H719 C703 0.961 . S
H720 C704 0.931 . S
H721 C709 0.930 . S
H722 C710 0.956 . S
H723 C710 0.961 . S
H724 C710 0.961 . S
H725 C711 0.958 . S
H726 C711 0.961 . S
H727 C711 0.960 . S
C728 C729 1.391 . S
C728 C730 1.394 . S
C728 H744 0.931 . S
C729 C728 1.391 . S
C729 C733 1.376 . S
C730 C728 1.394 . S
C730 C731 1.369 . S
C730 C734 1.531 . S
C731 C730 1.369 . S
C731 C732 1.410 . S
C731 C739 1.503 . S
C732 C731 1.410 . S
C732 C733 1.392 . S
C732 C735 1.511 . S
C733 C729 1.376 . S
C733 C732 1.392 . S
C733 H745 0.929 . S
C734 C730 1.531 . S
C734 H746 0.960 . S
C734 H747 0.962 . S
C734 H748 0.960 . S
C735 C732 1.511 . S
C735 H749 0.961 . S
C735 H750 0.961 . S
C735 H751 0.961 . S
C736 C737 1.370 . S
C736 C738 1.363 . S
C736 H752 0.931 . S
C737 C736 1.370 . S
C737 C741 1.408 . S
C738 C736 1.363 . S
C738 C739 1.370 . S
C738 C742 1.524 . S
C739 C731 1.503 . S
C739 C738 1.370 . S
C739 C740 1.403 . S
C740 C739 1.403 . S
C740 C741 1.404 . S
C740 C743 1.539 . S
C741 C737 1.408 . S
C741 C740 1.404 . S
C741 H753 0.930 . S
C742 C738 1.524 . S
C742 H754 0.956 . S
C742 H755 0.961 . S
C742 H756 0.961 . S
C743 C740 1.539 . S
C743 H757 0.958 . S
C743 H758 0.961 . S
C743 H759 0.960 . S
H744 C728 0.931 . S
H745 C733 0.929 . S
H746 C734 0.960 . S
H747 C734 0.962 . S
H748 C734 0.960 . S
H749 C735 0.961 . S
H750 C735 0.961 . S
H751 C735 0.961 . S
H752 C736 0.931 . S
H753 C741 0.930 . S
H754 C742 0.956 . S
H755 C742 0.961 . S
H756 C742 0.961 . S
H757 C743 0.958 . S
H758 C743 0.961 . S
H759 C743 0.960 . S
C760 C761 1.391 . S
C760 C762 1.394 . S
C760 H776 0.931 . S
C761 C760 1.391 . S
C761 C765 1.376 . S
C762 C760 1.394 . S
C762 C763 1.369 . S
C762 C766 1.531 . S
C763 C762 1.369 . S
C763 C764 1.410 . S
C763 C771 1.503 . S
C764 C763 1.410 . S
C764 C765 1.392 . S
C764 C767 1.511 . S
C765 C761 1.376 . S
C765 C764 1.392 . S
C765 H777 0.929 . S
C766 C762 1.531 . S
C766 H778 0.960 . S
C766 H779 0.962 . S
C766 H780 0.960 . S
C767 C764 1.511 . S
C767 H781 0.961 . S
C767 H782 0.961 . S
C767 H783 0.961 . S
C768 C769 1.370 . S
C768 C770 1.363 . S
C768 H784 0.931 . S
C769 C768 1.370 . S
C769 C773 1.408 . S
C770 C768 1.363 . S
C770 C771 1.370 . S
C770 C774 1.524 . S
C771 C763 1.503 . S
C771 C770 1.370 . S
C771 C772 1.403 . S
C772 C771 1.403 . S
C772 C773 1.404 . S
C772 C775 1.539 . S
C773 C769 1.408 . S
C773 C772 1.404 . S
C773 H785 0.930 . S
C774 C770 1.524 . S
C774 H786 0.956 . S
C774 H787 0.961 . S
C774 H788 0.961 . S
C775 C772 1.539 . S
C775 H789 0.958 . S
C775 H790 0.961 . S
C775 H791 0.960 . S
H776 C760 0.931 . S
H777 C765 0.929 . S
H778 C766 0.960 . S
H779 C766 0.962 . S
H780 C766 0.960 . S
H781 C767 0.961 . S
H782 C767 0.961 . S
H783 C767 0.961 . S
H784 C768 0.931 . S
H785 C773 0.930 . S
H786 C774 0.956 . S
H787 C774 0.961 . S
H788 C774 0.961 . S
H789 C775 0.958 . S
H790 C775 0.961 . S
H791 C775 0.960 . S
C792 C793 1.391 . S
C792 C794 1.394 . S
C792 H808 0.931 . S
C793 C792 1.391 . S
C793 C797 1.376 . S
C794 C792 1.394 . S
C794 C795 1.369 . S
C794 C798 1.531 . S
C795 C794 1.369 . S
C795 C796 1.410 . S
C795 C803 1.503 . S
C796 C795 1.410 . S
C796 C797 1.392 . S
C796 C799 1.511 . S
C797 C793 1.376 . S
C797 C796 1.392 . S
C797 H809 0.929 . S
C798 C794 1.531 . S
C798 H810 0.960 . S
C798 H811 0.962 . S
C798 H812 0.960 . S
C799 C796 1.511 . S
C799 H813 0.961 . S
C799 H814 0.961 . S
C799 H815 0.961 . S
C800 C801 1.370 . S
C800 C802 1.363 . S
C800 H816 0.931 . S
C801 C800 1.370 . S
C801 C805 1.408 . S
C802 C800 1.363 . S
C802 C803 1.370 . S
C802 C806 1.524 . S
C803 C795 1.503 . S
C803 C802 1.370 . S
C803 C804 1.403 . S
C804 C803 1.403 . S
C804 C805 1.404 . S
C804 C807 1.539 . S
C805 C801 1.408 . S
C805 C804 1.404 . S
C805 H817 0.930 . S
C806 C802 1.524 . S
C806 H818 0.956 . S
C806 H819 0.961 . S
C806 H820 0.961 . S
C807 C804 1.539 . S
C807 H821 0.958 . S
C807 H822 0.961 . S
C807 H823 0.960 . S
H808 C792 0.931 . S
H809 C797 0.929 . S
H810 C798 0.960 . S
H811 C798 0.962 . S
H812 C798 0.960 . S
H813 C799 0.961 . S
H814 C799 0.961 . S
H815 C799 0.961 . S
H816 C800 0.931 . S
H817 C805 0.930 . S
H818 C806 0.956 . S
H819 C806 0.961 . S
H820 C806 0.961 . S
H821 C807 0.958 . S
H822 C807 0.961 . S
H823 C807 0.960 . S
C824 C825 1.391 . S
C824 C826 1.394 . S
C824 H840 0.931 . S
C825 C824 1.391 . S
C825 C829 1.376 . S
C826 C824 1.394 . S
C826 C827 1.369 . S
C826 C830 1.531 . S
C827 C826 1.369 . S
C827 C828 1.410 . S
C827 C835 1.503 . S
C828 C827 1.410 . S
C828 C829 1.392 . S
C828 C831 1.511 . S
C829 C825 1.376 . S
C829 C828 1.392 . S
C829 H841 0.929 . S
C830 C826 1.531 . S
C830 H842 0.960 . S
C830 H843 0.962 . S
C830 H844 0.960 . S
C831 C828 1.511 . S
C831 H845 0.961 . S
C831 H846 0.961 . S
C831 H847 0.961 . S
C832 C833 1.370 . S
C832 C834 1.363 . S
C832 H848 0.931 . S
C833 C832 1.370 . S
C833 C837 1.408 . S
C834 C832 1.363 . S
C834 C835 1.370 . S
C834 C838 1.524 . S
C835 C827 1.503 . S
C835 C834 1.370 . S
C835 C836 1.403 . S
C836 C835 1.403 . S
C836 C837 1.404 . S
C836 C839 1.539 . S
C837 C833 1.408 . S
C837 C836 1.404 . S
C837 H849 0.930 . S
C838 C834 1.524 . S
C838 H850 0.956 . S
C838 H851 0.961 . S
C838 H852 0.961 . S
C839 C836 1.539 . S
C839 H853 0.958 . S
C839 H854 0.961 . S
C839 H855 0.960 . S
H840 C824 0.931 . S
H841 C829 0.929 . S
H842 C830 0.960 . S
H843 C830 0.962 . S
H844 C830 0.960 . S
H845 C831 0.961 . S
H846 C831 0.961 . S
H847 C831 0.961 . S
H848 C832 0.931 . S
H849 C837 0.930 . S
H850 C838 0.956 . S
H851 C838 0.961 . S
H852 C838 0.961 . S
H853 C839 0.958 . S
H854 C839 0.961 . S
H855 C839 0.960 . S
C856 C857 1.391 . S
C856 C858 1.394 . S
C856 H872 0.931 . S
C857 C856 1.391 . S
C857 C861 1.376 . S
C858 C856 1.394 . S
C858 C859 1.369 . S
C858 C862 1.531 . S
C859 C858 1.369 . S
C859 C860 1.410 . S
C859 C867 1.503 . S
C860 C859 1.410 . S
C860 C861 1.392 . S
C860 C863 1.511 . S
C861 C857 1.376 . S
C861 C860 1.392 . S
C861 H873 0.929 . S
C862 C858 1.531 . S
C862 H874 0.960 . S
C862 H875 0.962 . S
C862 H876 0.960 . S
C863 C860 1.511 . S
C863 H877 0.961 . S
C863 H878 0.961 . S
C863 H879 0.961 . S
C864 C865 1.370 . S
C864 C866 1.363 . S
C864 H880 0.931 . S
C865 C864 1.370 . S
C865 C869 1.408 . S
C866 C864 1.363 . S
C866 C867 1.370 . S
C866 C870 1.524 . S
C867 C859 1.503 . S
C867 C866 1.370 . S
C867 C868 1.403 . S
C868 C867 1.403 . S
C868 C869 1.404 . S
C868 C871 1.539 . S
C869 C865 1.408 . S
C869 C868 1.404 . S
C869 H881 0.930 . S
C870 C866 1.524 . S
C870 H882 0.956 . S
C870 H883 0.961 . S
C870 H884 0.961 . S
C871 C868 1.539 . S
C871 H885 0.958 . S
C871 H886 0.961 . S
C871 H887 0.960 . S
H872 C856 0.931 . S
H873 C861 0.929 . S
H874 C862 0.960 . S
H875 C862 0.962 . S
H876 C862 0.960 . S
H877 C863 0.961 . S
H878 C863 0.961 . S
H879 C863 0.961 . S
H880 C864 0.931 . S
H881 C869 0.930 . S
H882 C870 0.956 . S
H883 C870 0.961 . S
H884 C870 0.961 . S
H885 C871 0.958 . S
H886 C871 0.961 . S
H887 C871 0.960 . S
C888 C889 1.391 . S
C888 C890 1.394 . S
C888 H904 0.931 . S
C889 C888 1.391 . S
C889 C893 1.376 . S
C890 C888 1.394 . S
C890 C891 1.369 . S
C890 C894 1.531 . S
C891 C890 1.369 . S
C891 C892 1.410 . S
C891 C899 1.503 . S
C892 C891 1.410 . S
C892 C893 1.392 . S
C892 C895 1.511 . S
C893 C889 1.376 . S
C893 C892 1.392 . S
C893 H905 0.929 . S
C894 C890 1.531 . S
C894 H906 0.960 . S
C894 H907 0.962 . S
C894 H908 0.960 . S
C895 C892 1.511 . S
C895 H909 0.961 . S
C895 H910 0.961 . S
C895 H911 0.961 . S
C896 C897 1.370 . S
C896 C898 1.363 . S
C896 H912 0.931 . S
C897 C896 1.370 . S
C897 C901 1.408 . S
C898 C896 1.363 . S
C898 C899 1.370 . S
C898 C902 1.524 . S
C899 C891 1.503 . S
C899 C898 1.370 . S
C899 C900 1.403 . S
C900 C899 1.403 . S
C900 C901 1.404 . S
C900 C903 1.539 . S
C901 C897 1.408 . S
C901 C900 1.404 . S
C901 H913 0.930 . S
C902 C898 1.524 . S
C902 H914 0.956 . S
C902 H915 0.961 . S
C902 H916 0.961 . S
C903 C900 1.539 . S
C903 H917 0.958 . S
C903 H918 0.961 . S
C903 H919 0.960 . S
H904 C888 0.931 . S
H905 C893 0.929 . S
H906 C894 0.960 . S
H907 C894 0.962 . S
H908 C894 0.960 . S
H909 C895 0.961 . S
H910 C895 0.961 . S
H911 C895 0.961 . S
H912 C896 0.931 . S
H913 C901 0.930 . S
H914 C902 0.956 . S
H915 C902 0.961 . S
H916 C902 0.961 . S
H917 C903 0.958 . S
H918 C903 0.961 . S
H919 C903 0.960 . S
C920 C921 1.391 . S
C920 C922 1.394 . S
C920 H936 0.931 . S
C921 C920 1.391 . S
C921 C925 1.376 . S
C922 C920 1.394 . S
C922 C923 1.369 . S
C922 C926 1.531 . S
C923 C922 1.369 . S
C923 C924 1.410 . S
C923 C931 1.503 . S
C924 C923 1.410 . S
C924 C925 1.392 . S
C924 C927 1.511 . S
C925 C921 1.376 . S
C925 C924 1.392 . S
C925 H937 0.929 . S
C926 C922 1.531 . S
C926 H938 0.960 . S
C926 H939 0.962 . S
C926 H940 0.960 . S
C927 C924 1.511 . S
C927 H941 0.961 . S
C927 H942 0.961 . S
C927 H943 0.961 . S
C928 C929 1.370 . S
C928 C930 1.363 . S
C928 H944 0.931 . S
C929 C928 1.370 . S
C929 C933 1.408 . S
C930 C928 1.363 . S
C930 C931 1.370 . S
C930 C934 1.524 . S
C931 C923 1.503 . S
C931 C930 1.370 . S
C931 C932 1.403 . S
C932 C931 1.403 . S
C932 C933 1.404 . S
C932 C935 1.539 . S
C933 C929 1.408 . S
C933 C932 1.404 . S
C933 H945 0.930 . S
C934 C930 1.524 . S
C934 H946 0.956 . S
C934 H947 0.961 . S
C934 H948 0.961 . S
C935 C932 1.539 . S
C935 H949 0.958 . S
C935 H950 0.961 . S
C935 H951 0.960 . S
H936 C920 0.931 . S
H937 C925 0.929 . S
H938 C926 0.960 . S
H939 C926 0.962 . S
H940 C926 0.960 . S
H941 C927 0.961 . S
H942 C927 0.961 . S
H943 C927 0.961 . S
H944 C928 0.931 . S
H945 C933 0.930 . S
H946 C934 0.956 . S
H947 C934 0.961 . S
H948 C934 0.961 . S
H949 C935 0.958 . S
H950 C935 0.961 . S
H951 C935 0.960 . S
C952 C953 1.391 . S
C952 C954 1.394 . S
C952 H968 0.931 . S
C953 C952 1.391 . S
C953 C957 1.376 . S
C954 C952 1.394 . S
C954 C955 1.369 . S
C954 C958 1.531 . S
C955 C954 1.369 . S
C955 C956 1.410 . S
C955 C963 1.503 . S
C956 C955 1.410 . S
C956 C957 1.392 . S
C956 C959 1.511 . S
C957 C953 1.376 . S
C957 C956 1.392 . S
C957 H969 0.929 . S
C958 C954 1.531 . S
C958 H970 0.960 . S
C958 H971 0.962 . S
C958 H972 0.960 . S
C959 C956 1.511 . S
C959 H973 0.961 . S
C959 H974 0.961 . S
C959 H975 0.961 . S
C960 C961 1.370 . S
C960 C962 1.363 . S
C960 H976 0.931 . S
C961 C960 1.370 . S
C961 C965 1.408 . S
C962 C960 1.363 . S
C962 C963 1.370 . S
C962 C966 1.524 . S
C963 C955 1.503 . S
C963 C962 1.370 . S
C963 C964 1.403 . S
C964 C963 1.403 . S
C964 C965 1.404 . S
C964 C967 1.539 . S
C965 C961 1.408 . S
C965 C964 1.404 . S
C965 H977 0.930 . S
C966 C962 1.524 . S
C966 H978 0.956 . S
C966 H979 0.961 . S
C966 H980 0.961 . S
C967 C964 1.539 . S
C967 H981 0.958 . S
C967 H982 0.961 . S
C967 H983 0.960 . S
H968 C952 0.931 . S
H969 C957 0.929 . S
H970 C958 0.960 . S
H971 C958 0.962 . S
H972 C958 0.960 . S
H973 C959 0.961 . S
H974 C959 0.961 . S
H975 C959 0.961 . S
H976 C960 0.931 . S
H977 C965 0.930 . S
H978 C966 0.956 . S
H979 C966 0.961 . S
H980 C966 0.961 . S
H981 C967 0.958 . S
H982 C967 0.961 . S
H983 C967 0.960 . S
C984 C985 1.391 . S
C984 C986 1.394 . S
C984 H1000 0.931 . S
C985 C984 1.391 . S
C985 C989 1.376 . S
C986 C984 1.394 . S
C986 C987 1.369 . S
C986 C990 1.531 . S
C987 C986 1.369 . S
C987 C988 1.410 . S
C987 C995 1.503 . S
C988 C987 1.410 . S
C988 C989 1.392 . S
C988 C991 1.511 . S
C989 C985 1.376 . S
C989 C988 1.392 . S
C989 H1001 0.929 . S
C990 C986 1.531 . S
C990 H1002 0.960 . S
C990 H1003 0.962 . S
C990 H1004 0.960 . S
C991 C988 1.511 . S
C991 H1005 0.961 . S
C991 H1006 0.961 . S
C991 H1007 0.961 . S
C992 C993 1.370 . S
C992 C994 1.363 . S
C992 H1008 0.931 . S
C993 C992 1.370 . S
C993 C997 1.408 . S
C994 C992 1.363 . S
C994 C995 1.370 . S
C994 C998 1.524 . S
C995 C987 1.503 . S
C995 C994 1.370 . S
C995 C996 1.403 . S
C996 C995 1.403 . S
C996 C997 1.404 . S
C996 C999 1.539 . S
C997 C993 1.408 . S
C997 C996 1.404 . S
C997 H1009 0.930 . S
C998 C994 1.524 . S
C998 H1010 0.956 . S
C998 H1011 0.961 . S
C998 H1012 0.961 . S
C999 C996 1.539 . S
C999 H1013 0.958 . S
C999 H1014 0.961 . S
C999 H1015 0.960 . S
H1000 C984 0.931 . S
H1001 C989 0.929 . S
H1002 C990 0.960 . S
H1003 C990 0.962 . S
H1004 C990 0.960 . S
H1005 C991 0.961 . S
H1006 C991 0.961 . S
H1007 C991 0.961 . S
H1008 C992 0.931 . S
H1009 C997 0.930 . S
H1010 C998 0.956 . S
H1011 C998 0.961 . S
H1012 C998 0.961 . S
H1013 C999 0.958 . S
H1014 C999 0.961 . S
H1015 C999 0.960 . S
C1016 C1017 1.391 . S
C1016 C1018 1.394 . S
C1016 H1032 0.931 . S
C1017 C1016 1.391 . S
C1017 C1021 1.376 . S
C1018 C1016 1.394 . S
C1018 C1019 1.369 . S
C1018 C1022 1.531 . S
C1019 C1018 1.369 . S
C1019 C1020 1.410 . S
C1019 C1027 1.503 . S
C1020 C1019 1.410 . S
C1020 C1021 1.392 . S
C1020 C1023 1.511 . S
C1021 C1017 1.376 . S
C1021 C1020 1.392 . S
C1021 H1033 0.929 . S
C1022 C1018 1.531 . S
C1022 H1034 0.960 . S
C1022 H1035 0.962 . S
C1022 H1036 0.960 . S
C1023 C1020 1.511 . S
C1023 H1037 0.961 . S
C1023 H1038 0.961 . S
C1023 H1039 0.961 . S
C1024 C1025 1.370 . S
C1024 C1026 1.363 . S
C1024 H1040 0.931 . S
C1025 C1024 1.370 . S
C1025 C1029 1.408 . S
C1026 C1024 1.363 . S
C1026 C1027 1.370 . S
C1026 C1030 1.524 . S
C1027 C1019 1.503 . S
C1027 C1026 1.370 . S
C1027 C1028 1.403 . S
C1028 C1027 1.403 . S
C1028 C1029 1.404 . S
C1028 C1031 1.539 . S
C1029 C1025 1.408 . S
C1029 C1028 1.404 . S
C1029 H1041 0.930 . S
C1030 C1026 1.524 . S
C1030 H1042 0.956 . S
C1030 H1043 0.961 . S
C1030 H1044 0.961 . S
C1031 C1028 1.539 . S
C1031 H1045 0.958 . S
C1031 H1046 0.961 . S
C1031 H1047 0.960 . S
H1032 C1016 0.931 . S
H1033 C1021 0.929 . S
H1034 C1022 0.960 . S
H1035 C1022 0.962 . S
H1036 C1022 0.960 . S
H1037 C1023 0.961 . S
H1038 C1023 0.961 . S
H1039 C1023 0.961 . S
H1040 C1024 0.931 . S
H1041 C1029 0.930 . S
H1042 C1030 0.956 . S
H1043 C1030 0.961 . S
H1044 C1030 0.961 . S
H1045 C1031 0.958 . S
H1046 C1031 0.961 . S
H1047 C1031 0.960 . S
C1048 C1049 1.391 . S
C1048 C1050 1.394 . S
C1048 H1064 0.931 . S
C1049 C1048 1.391 . S
C1049 C1053 1.376 . S
C1050 C1048 1.394 . S
C1050 C1051 1.369 . S
C1050 C1054 1.531 . S
C1051 C1050 1.369 . S
C1051 C1052 1.410 . S
C1051 C1059 1.503 . S
C1052 C1051 1.410 . S
C1052 C1053 1.392 . S
C1052 C1055 1.511 . S
C1053 C1049 1.376 . S
C1053 C1052 1.392 . S
C1053 H1065 0.929 . S
C1054 C1050 1.531 . S
C1054 H1066 0.960 . S
C1054 H1067 0.962 . S
C1054 H1068 0.960 . S
C1055 C1052 1.511 . S
C1055 H1069 0.961 . S
C1055 H1070 0.961 . S
C1055 H1071 0.961 . S
C1056 C1057 1.370 . S
C1056 C1058 1.363 . S
C1056 H1072 0.931 . S
C1057 C1056 1.370 . S
C1057 C1061 1.408 . S
C1058 C1056 1.363 . S
C1058 C1059 1.370 . S
C1058 C1062 1.524 . S
C1059 C1051 1.503 . S
C1059 C1058 1.370 . S
C1059 C1060 1.403 . S
C1060 C1059 1.403 . S
C1060 C1061 1.404 . S
C1060 C1063 1.539 . S
C1061 C1057 1.408 . S
C1061 C1060 1.404 . S
C1061 H1073 0.930 . S
C1062 C1058 1.524 . S
C1062 H1074 0.956 . S
C1062 H1075 0.961 . S
C1062 H1076 0.961 . S
C1063 C1060 1.539 . S
C1063 H1077 0.958 . S
C1063 H1078 0.961 . S
C1063 H1079 0.960 . S
H1064 C1048 0.931 . S
H1065 C1053 0.929 . S
H1066 C1054 0.960 . S
H1067 C1054 0.962 . S
H1068 C1054 0.960 . S
H1069 C1055 0.961 . S
H1070 C1055 0.961 . S
H1071 C1055 0.961 . S
H1072 C1056 0.931 . S
H1073 C1061 0.930 . S
H1074 C1062 0.956 . S
H1075 C1062 0.961 . S
H1076 C1062 0.961 . S
H1077 C1063 0.958 . S
H1078 C1063 0.961 . S
H1079 C1063 0.960 . S
C1080 C1081 1.391 . S
C1080 C1082 1.394 . S
C1080 H1096 0.931 . S
C1081 C1080 1.391 . S
C1081 C1085 1.376 . S
C1082 C1080 1.394 . S
C1082 C1083 1.369 . S
C1082 C1086 1.531 . S
C1083 C1082 1.369 . S
C1083 C1084 1.410 . S
C1083 C1091 1.503 . S
C1084 C1083 1.410 . S
C1084 C1085 1.392 . S
C1084 C1087 1.511 . S
C1085 C1081 1.376 . S
C1085 C1084 1.392 . S
C1085 H1097 0.929 . S
C1086 C1082 1.531 . S
C1086 H1098 0.960 . S
C1086 H1099 0.962 . S
C1086 H1100 0.960 . S
C1087 C1084 1.511 . S
C1087 H1101 0.961 . S
C1087 H1102 0.961 . S
C1087 H1103 0.961 . S
C1088 C1089 1.370 . S
C1088 C1090 1.363 . S
C1088 H1104 0.931 . S
C1089 C1088 1.370 . S
C1089 C1093 1.408 . S
C1090 C1088 1.363 . S
C1090 C1091 1.370 . S
C1090 C1094 1.524 . S
C1091 C1083 1.503 . S
C1091 C1090 1.370 . S
C1091 C1092 1.403 . S
C1092 C1091 1.403 . S
C1092 C1093 1.404 . S
C1092 C1095 1.539 . S
C1093 C1089 1.408 . S
C1093 C1092 1.404 . S
C1093 H1105 0.930 . S
C1094 C1090 1.524 . S
C1094 H1106 0.956 . S
C1094 H1107 0.961 . S
C1094 H1108 0.961 . S
C1095 C1092 1.539 . S
C1095 H1109 0.958 . S
C1095 H1110 0.961 . S
C1095 H1111 0.960 . S
H1096 C1080 0.931 . S
H1097 C1085 0.929 . S
H1098 C1086 0.960 . S
H1099 C1086 0.962 . S
H1100 C1086 0.960 . S
H1101 C1087 0.961 . S
H1102 C1087 0.961 . S
H1103 C1087 0.961 . S
H1104 C1088 0.931 . S
H1105 C1093 0.930 . S
H1106 C1094 0.956 . S
H1107 C1094 0.961 . S
H1108 C1094 0.961 . S
H1109 C1095 0.958 . S
H1110 C1095 0.961 . S
H1111 C1095 0.960 . S
C1112 C1113 1.391 . S
C1112 C1114 1.394 . S
C1112 H1128 0.931 . S
C1113 C1112 1.391 . S
C1113 C1117 1.376 . S
C1114 C1112 1.394 . S
C1114 C1115 1.369 . S
C1114 C1118 1.531 . S
C1115 C1114 1.369 . S
C1115 C1116 1.410 . S
C1115 C1123 1.503 . S
C1116 C1115 1.410 . S
C1116 C1117 1.392 . S
C1116 C1119 1.511 . S
C1117 C1113 1.376 . S
C1117 C1116 1.392 . S
C1117 H1129 0.929 . S
C1118 C1114 1.531 . S
C1118 H1130 0.960 . S
C1118 H1131 0.962 . S
C1118 H1132 0.960 . S
C1119 C1116 1.511 . S
C1119 H1133 0.961 . S
C1119 H1134 0.961 . S
C1119 H1135 0.961 . S
C1120 C1121 1.370 . S
C1120 C1122 1.363 . S
C1120 H1136 0.931 . S
C1121 C1120 1.370 . S
C1121 C1125 1.408 . S
C1122 C1120 1.363 . S
C1122 C1123 1.370 . S
C1122 C1126 1.524 . S
C1123 C1115 1.503 . S
C1123 C1122 1.370 . S
C1123 C1124 1.403 . S
C1124 C1123 1.403 . S
C1124 C1125 1.404 . S
C1124 C1127 1.539 . S
C1125 C1121 1.408 . S
C1125 C1124 1.404 . S
C1125 H1137 0.930 . S
C1126 C1122 1.524 . S
C1126 H1138 0.956 . S
C1126 H1139 0.961 . S
C1126 H1140 0.961 . S
C1127 C1124 1.539 . S
C1127 H1141 0.958 . S
C1127 H1142 0.961 . S
C1127 H1143 0.960 . S
H1128 C1112 0.931 . S
H1129 C1117 0.929 . S
H1130 C1118 0.960 . S
H1131 C1118 0.962 . S
H1132 C1118 0.960 . S
H1133 C1119 0.961 . S
H1134 C1119 0.961 . S
H1135 C1119 0.961 . S
H1136 C1120 0.931 . S
H1137 C1125 0.930 . S
H1138 C1126 0.956 . S
H1139 C1126 0.961 . S
H1140 C1126 0.961 . S
H1141 C1127 0.958 . S
H1142 C1127 0.961 . S
H1143 C1127 0.960 . S
C1144 C1145 1.391 . S
C1144 C1146 1.394 . S
C1144 H1160 0.931 . S
C1145 C1144 1.391 . S
C1145 C1149 1.376 . S
C1146 C1144 1.394 . S
C1146 C1147 1.369 . S
C1146 C1150 1.531 . S
C1147 C1146 1.369 . S
C1147 C1148 1.410 . S
C1147 C1155 1.503 . S
C1148 C1147 1.410 . S
C1148 C1149 1.392 . S
C1148 C1151 1.511 . S
C1149 C1145 1.376 . S
C1149 C1148 1.392 . S
C1149 H1161 0.929 . S
C1150 C1146 1.531 . S
C1150 H1162 0.960 . S
C1150 H1163 0.962 . S
C1150 H1164 0.960 . S
C1151 C1148 1.511 . S
C1151 H1165 0.961 . S
C1151 H1166 0.961 . S
C1151 H1167 0.961 . S
C1152 C1153 1.370 . S
C1152 C1154 1.363 . S
C1152 H1168 0.931 . S
C1153 C1152 1.370 . S
C1153 C1157 1.408 . S
C1154 C1152 1.363 . S
C1154 C1155 1.370 . S
C1154 C1158 1.524 . S
C1155 C1147 1.503 . S
C1155 C1154 1.370 . S
C1155 C1156 1.403 . S
C1156 C1155 1.403 . S
C1156 C1157 1.404 . S
C1156 C1159 1.539 . S
C1157 C1153 1.408 . S
C1157 C1156 1.404 . S
C1157 H1169 0.930 . S
C1158 C1154 1.524 . S
C1158 H1170 0.956 . S
C1158 H1171 0.961 . S
C1158 H1172 0.961 . S
C1159 C1156 1.539 . S
C1159 H1173 0.958 . S
C1159 H1174 0.961 . S
C1159 H1175 0.960 . S
H1160 C1144 0.931 . S
H1161 C1149 0.929 . S
H1162 C1150 0.960 . S
H1163 C1150 0.962 . S
H1164 C1150 0.960 . S
H1165 C1151 0.961 . S
H1166 C1151 0.961 . S
H1167 C1151 0.961 . S
H1168 C1152 0.931 . S
H1169 C1157 0.930 . S
H1170 C1158 0.956 . S
H1171 C1158 0.961 . S
H1172 C1158 0.961 . S
H1173 C1159 0.958 . S
H1174 C1159 0.961 . S
H1175 C1159 0.960 . S
C1176 C1177 1.391 . S
C1176 C1178 1.394 . S
C1176 H1192 0.931 . S
C1177 C1176 1.391 . S
C1177 C1181 1.376 . S
C1178 C1176 1.394 . S
C1178 C1179 1.369 . S
C1178 C1182 1.531 . S
C1179 C1178 1.369 . S
C1179 C1180 1.410 . S
C1179 C1187 1.503 . S
C1180 C1179 1.410 . S
C1180 C1181 1.392 . S
C1180 C1183 1.511 . S
C1181 C1177 1.376 . S
C1181 C1180 1.392 . S
C1181 H1193 0.929 . S
C1182 C1178 1.531 . S
C1182 H1194 0.960 . S
C1182 H1195 0.962 . S
C1182 H1196 0.960 . S
C1183 C1180 1.511 . S
C1183 H1197 0.961 . S
C1183 H1198 0.961 . S
C1183 H1199 0.961 . S
C1184 C1185 1.370 . S
C1184 C1186 1.363 . S
C1184 H1200 0.931 . S
C1185 C1184 1.370 . S
C1185 C1189 1.408 . S
C1186 C1184 1.363 . S
C1186 C1187 1.370 . S
C1186 C1190 1.524 . S
C1187 C1179 1.503 . S
C1187 C1186 1.370 . S
C1187 C1188 1.403 . S
C1188 C1187 1.403 . S
C1188 C1189 1.404 . S
C1188 C1191 1.539 . S
C1189 C1185 1.408 . S
C1189 C1188 1.404 . S
C1189 H1201 0.930 . S
C1190 C1186 1.524 . S
C1190 H1202 0.956 . S
C1190 H1203 0.961 . S
C1190 H1204 0.961 . S
C1191 C1188 1.539 . S
C1191 H1205 0.958 . S
C1191 H1206 0.961 . S
C1191 H1207 0.960 . S
H1192 C1176 0.931 . S
H1193 C1181 0.929 . S
H1194 C1182 0.960 . S
H1195 C1182 0.962 . S
H1196 C1182 0.960 . S
H1197 C1183 0.961 . S
H1198 C1183 0.961 . S
H1199 C1183 0.961 . S
H1200 C1184 0.931 . S
H1201 C1189 0.930 . S
H1202 C1190 0.956 . S
H1203 C1190 0.961 . S
H1204 C1190 0.961 . S
H1205 C1191 0.958 . S
H1206 C1191 0.961 . S
H1207 C1191 0.960 . S
C1208 C1209 1.391 . S
C1208 C1210 1.394 . S
C1208 H1224 0.931 . S
C1209 C1208 1.391 . S
C1209 C1213 1.376 . S
C1210 C1208 1.394 . S
C1210 C1211 1.369 . S
C1210 C1214 1.531 . S
C1211 C1210 1.369 . S
C1211 C1212 1.410 . S
C1211 C1219 1.503 . S
C1212 C1211 1.410 . S
C1212 C1213 1.392 . S
C1212 C1215 1.511 . S
C1213 C1209 1.376 . S
C1213 C1212 1.392 . S
C1213 H1225 0.929 . S
C1214 C1210 1.531 . S
C1214 H1226 0.960 . S
C1214 H1227 0.962 . S
C1214 H1228 0.960 . S
C1215 C1212 1.511 . S
C1215 H1229 0.961 . S
C1215 H1230 0.961 . S
C1215 H1231 0.961 . S
C1216 C1217 1.370 . S
C1216 C1218 1.363 . S
C1216 H1232 0.931 . S
C1217 C1216 1.370 . S
C1217 C1221 1.408 . S
C1218 C1216 1.363 . S
C1218 C1219 1.370 . S
C1218 C1222 1.524 . S
C1219 C1211 1.503 . S
C1219 C1218 1.370 . S
C1219 C1220 1.403 . S
C1220 C1219 1.403 . S
C1220 C1221 1.404 . S
C1220 C1223 1.539 . S
C1221 C1217 1.408 . S
C1221 C1220 1.404 . S
C1221 H1233 0.930 . S
C1222 C1218 1.524 . S
C1222 H1234 0.956 . S
C1222 H1235 0.961 . S
C1222 H1236 0.961 . S
C1223 C1220 1.539 . S
C1223 H1237 0.958 . S
C1223 H1238 0.961 . S
C1223 H1239 0.960 . S
H1224 C1208 0.931 . S
H1225 C1213 0.929 . S
H1226 C1214 0.960 . S
H1227 C1214 0.962 . S
H1228 C1214 0.960 . S
H1229 C1215 0.961 . S
H1230 C1215 0.961 . S
H1231 C1215 0.961 . S
H1232 C1216 0.931 . S
H1233 C1221 0.930 . S
H1234 C1222 0.956 . S
H1235 C1222 0.961 . S
H1236 C1222 0.961 . S
H1237 C1223 0.958 . S
H1238 C1223 0.961 . S
H1239 C1223 0.960 . S
C473 C1 1.221 . S
C481 C318 1.271 . S
C505 C40 0.972 . S
C513 C367 0.933 . S
C545 C402 2.475 . S
C537 C99 2.535 . S
C569 C118 2.402 . S
C577 C441 2.340 . S
C609 C362 2.476 . S
C601 C16 2.361 . S
C641 C321 0.853 . S
C633 C60 0.822 . S
C673 C451 1.895 . S
C665 C79 1.948 . S
C705 C410 1.583 . S
C697 C138 1.611 . S
C729 C21 1.674 . S
C737 C438 1.721 . S
C769 C370 2.334 . S
C761 C94 2.431 . S
C793 C133 2.336 . S
C801 C331 2.325 . S
C825 C55 0.827 . S
C833 C407 0.828 . S
C865 C327 1.263 . S
C857 C157 1.261 . S
C889 C196 0.951 . S
C897 C358 0.944 . S
C921 C255 2.531 . S
C929 C411 2.486 . S
C953 C289 2.397 . S
C961 C450 2.339 . S
C985 C172 2.335 . S
C993 C371 2.474 . S
C1025 C330 0.814 . S
C1017 C216 0.862 . S
C1057 C442 1.892 . S
C1049 C235 1.952 . S
C1089 C401 1.583 . S
C1081 C294 1.611 . S
C1113 C177 1.679 . S
C1121 C447 1.720 . S
C1153 C361 2.339 . S
C1145 C250 2.430 . S
C1185 C322 2.330 . S
C1177 C274 2.337 . S
C1209 C211 0.812 . S
C1217 C398 0.845 . S
