# Generated by pormake.
# Topology pyr, (3,6)-cn, num edge types: 1
# Building blocks:
#     Node 0, Type 0, BuildingBlock: VETTIZ_charged_linker_0, # of connection points: 3
#     Node 1, Type 0, BuildingBlock: VETTIZ_charged_linker_0, # of connection points: 3
#     Node 2, Type 0, BuildingBlock: VETTIZ_charged_linker_0, # of connection points: 3
#     Node 3, Type 0, BuildingBlock: VETTIZ_charged_linker_0, # of connection points: 3
#     Node 4, Type 0, BuildingBlock: VETTIZ_charged_linker_0, # of connection points: 3
#     Node 5, Type 0, BuildingBlock: VETTIZ_charged_linker_0, # of connection points: 3
#     Node 6, Type 0, BuildingBlock: VETTIZ_charged_linker_0, # of connection points: 3
#     Node 7, Type 0, BuildingBlock: VETTIZ_charged_linker_0, # of connection points: 3
#     Node 8, Type 1, BuildingBlock: MIDCAF_clean_sbu_0, # of connection points: 6
#     Node 9, Type 1, BuildingBlock: MIDCAF_clean_sbu_0, # of connection points: 6
#     Node 10, Type 1, BuildingBlock: MIDCAF_clean_sbu_0, # of connection points: 6
#     Node 11, Type 1, BuildingBlock: MIDCAF_clean_sbu_0, # of connection points: 6
#     Edge 12, Type (0, 1), BuildingBlock: KIFKEQ_clean_linker_1, # of connection points: 2
#     Edge 13, Type (0, 1), BuildingBlock: KIFKEQ_clean_linker_1, # of connection points: 2
#     Edge 14, Type (0, 1), BuildingBlock: KIFKEQ_clean_linker_1, # of connection points: 2
#     Edge 15, Type (0, 1), BuildingBlock: KIFKEQ_clean_linker_1, # of connection points: 2
#     Edge 16, Type (0, 1), BuildingBlock: KIFKEQ_clean_linker_1, # of connection points: 2
#     Edge 17, Type (0, 1), BuildingBlock: KIFKEQ_clean_linker_1, # of connection points: 2
#     Edge 18, Type (0, 1), BuildingBlock: KIFKEQ_clean_linker_1, # of connection points: 2
#     Edge 19, Type (0, 1), BuildingBlock: KIFKEQ_clean_linker_1, # of connection points: 2
#     Edge 20, Type (0, 1), BuildingBlock: KIFKEQ_clean_linker_1, # of connection points: 2
#     Edge 21, Type (0, 1), BuildingBlock: KIFKEQ_clean_linker_1, # of connection points: 2
#     Edge 22, Type (0, 1), BuildingBlock: KIFKEQ_clean_linker_1, # of connection points: 2
#     Edge 23, Type (0, 1), BuildingBlock: KIFKEQ_clean_linker_1, # of connection points: 2
#     Edge 24, Type (0, 1), BuildingBlock: KIFKEQ_clean_linker_1, # of connection points: 2
#     Edge 25, Type (0, 1), BuildingBlock: KIFKEQ_clean_linker_1, # of connection points: 2
#     Edge 26, Type (0, 1), BuildingBlock: KIFKEQ_clean_linker_1, # of connection points: 2
#     Edge 27, Type (0, 1), BuildingBlock: KIFKEQ_clean_linker_1, # of connection points: 2
#     Edge 28, Type (0, 1), BuildingBlock: KIFKEQ_clean_linker_1, # of connection points: 2
#     Edge 29, Type (0, 1), BuildingBlock: KIFKEQ_clean_linker_1, # of connection points: 2
#     Edge 30, Type (0, 1), BuildingBlock: KIFKEQ_clean_linker_1, # of connection points: 2
#     Edge 31, Type (0, 1), BuildingBlock: KIFKEQ_clean_linker_1, # of connection points: 2
#     Edge 32, Type (0, 1), BuildingBlock: KIFKEQ_clean_linker_1, # of connection points: 2
#     Edge 33, Type (0, 1), BuildingBlock: KIFKEQ_clean_linker_1, # of connection points: 2
#     Edge 34, Type (0, 1), BuildingBlock: KIFKEQ_clean_linker_1, # of connection points: 2
#     Edge 35, Type (0, 1), BuildingBlock: KIFKEQ_clean_linker_1, # of connection points: 2
# Relax obj value: 0.019
# Max RMSD: 0.063
# Mean RMSD: 0.021
data_MOF--net-pry--node1-MIDCAF_clean_sbu_0--node2-VETTIZ_charged_linker_0--edge1-KIFKEQ_clean_linker_1
_symmetry_space_group_name_H-M    P1
_symmetry_Int_Tables_number       1
_symmetry_cell_setting            triclinic
loop_
_symmetry_equiv_pos_as_xyz
'x, y, z'
_cell_length_a     44.222107
_cell_length_b     44.239034
_cell_length_c     44.231555
_cell_angle_alpha  89.922066
_cell_angle_beta   90.01689
_cell_angle_gamma 90.085041
loop_
_atom_site_label
_atom_site_type_symbol
_atom_site_fract_x
_atom_site_fract_y
_atom_site_fract_z
_atom_type_partial_charge
C0 C 0.19832 0.17911 0.31771 0.0
C1 C 0.17132 0.18892 0.33136 0.0
C2 C 0.15837 0.2164 0.32164 0.0
C3 C 0.19789 0.22244 0.28397 0.0
C4 C 0.21103 0.19599 0.29414 0.0
C5 C 0.23863 0.18755 0.27622 0.0
H6 H 0.33047 0.21416 0.15697 0.0
C7 C 0.21593 0.23357 0.25802 0.0
C8 C 0.2399 0.21322 0.25351 0.0
H9 H 0.33376 0.13931 0.21991 0.0
H10 H 0.29296 0.1613 0.24864 0.0
H11 H 0.31897 0.26687 0.20693 0.0
H12 H 0.26069 0.214 0.14987 0.0
H13 H 0.24567 0.25063 0.1503 0.0
H14 H 0.28317 0.24461 0.13553 0.0
H15 H 0.31598 0.27316 0.16695 0.0
H16 H 0.29081 0.29136 0.19338 0.0
C17 C 0.26624 0.18786 0.29777 0.0
C18 C 0.23254 0.15664 0.26084 0.0
C19 C 0.18159 0.32616 0.19873 0.0
C20 C 0.19261 0.34018 0.17234 0.0
C21 C 0.21964 0.32954 0.15931 0.0
C22 C 0.23506 0.30491 0.17186 0.0
C23 C 0.22324 0.29045 0.19759 0.0
C24 C 0.19715 0.30133 0.21085 0.0
C25 C 0.18767 0.28264 0.23775 0.0
C26 C 0.2123 0.25871 0.23829 0.0
C27 C 0.23295 0.26339 0.21462 0.0
C28 C 0.18875 0.30303 0.26615 0.0
C29 C 0.15614 0.26891 0.23097 0.0
C30 C 0.32242 0.20242 0.17691 0.0
C31 C 0.33528 0.17477 0.18595 0.0
C32 C 0.32446 0.1607 0.21248 0.0
C33 C 0.30053 0.17338 0.22899 0.0
C34 C 0.28706 0.20034 0.21882 0.0
C35 C 0.29839 0.21459 0.19343 0.0
C36 C 0.28098 0.24265 0.18543 0.0
C37 C 0.25714 0.24281 0.21008 0.0
C38 C 0.26073 0.21798 0.22953 0.0
C39 C 0.30267 0.27007 0.18802 0.0
C40 C 0.26697 0.23808 0.15358 0.0
H41 H 0.16034 0.25366 0.29142 0.0
H42 H 0.20922 0.1584 0.3249 0.0
H43 H 0.20837 0.15451 0.25413 0.0
H44 H 0.24525 0.15362 0.2396 0.0
H45 H 0.23781 0.1376 0.27636 0.0
H46 H 0.26431 0.20651 0.31452 0.0
H47 H 0.26798 0.1663 0.31054 0.0
H48 H 0.2878 0.19213 0.28589 0.0
H49 H 0.1607 0.33362 0.20908 0.0
H50 H 0.22874 0.34019 0.13921 0.0
H51 H 0.25534 0.29777 0.16068 0.0
H52 H 0.20821 0.31896 0.26499 0.0
H53 H 0.16781 0.3167 0.26821 0.0
H54 H 0.19221 0.29012 0.28725 0.0
H55 H 0.15424 0.26245 0.20673 0.0
H56 H 0.15167 0.24785 0.24358 0.0
H57 H 0.13786 0.28538 0.23589 0.0
H58 H 0.1375 0.22444 0.33156 0.0
C59 C 0.17154 0.23322 0.29811 0.0
C60 C 0.2028 0.83801 0.68076 0.0
C61 C 0.18838 0.8642 0.6916 0.0
C62 C 0.19797 0.87669 0.7193 0.0
C63 C 0.23676 0.83825 0.72397 0.0
C64 C 0.22692 0.82555 0.69717 0.0
C65 C 0.24588 0.79884 0.68797 0.0
H66 H 0.37023 0.71264 0.7112 0.0
C67 C 0.26336 0.82093 0.73453 0.0
C68 C 0.26877 0.7977 0.71358 0.0
H69 H 0.30613 0.70691 0.63757 0.0
H70 H 0.2755 0.74559 0.66085 0.0
H71 H 0.37288 0.78315 0.71309 0.0
H72 H 0.32013 0.7199 0.76506 0.0
H73 H 0.33255 0.74819 0.79003 0.0
H74 H 0.35999 0.72494 0.77082 0.0
H75 H 0.38916 0.75998 0.74216 0.0
H76 H 0.37263 0.79624 0.7505 0.0
C77 C 0.26094 0.80633 0.65721 0.0
C78 C 0.22538 0.77045 0.68755 0.0
C79 C 0.32172 0.8568 0.82682 0.0
C80 C 0.34916 0.8476 0.84015 0.0
C81 C 0.36318 0.82107 0.8294 0.0
C82 C 0.35089 0.80489 0.80505 0.0
C83 C 0.32441 0.81541 0.79095 0.0
C84 C 0.30997 0.84063 0.80227 0.0
C85 C 0.28254 0.84906 0.78398 0.0
C86 C 0.28303 0.82489 0.75964 0.0
C87 C 0.30766 0.80531 0.76377 0.0
C88 C 0.28772 0.88116 0.77076 0.0
C89 C 0.25437 0.84614 0.80457 0.0
C90 C 0.34958 0.71968 0.70005 0.0
C91 C 0.3408 0.70682 0.67231 0.0
C92 C 0.3134 0.71627 0.65899 0.0
C93 C 0.29577 0.73897 0.67242 0.0
C94 C 0.30566 0.75256 0.69942 0.0
C95 C 0.33187 0.7424 0.71306 0.0
C96 C 0.33919 0.75955 0.74146 0.0
C97 C 0.31323 0.78191 0.74253 0.0
C98 C 0.29374 0.77789 0.71775 0.0
C99 C 0.37013 0.77549 0.73691 0.0
C100 C 0.33819 0.73713 0.76838 0.0
H101 H 0.22823 0.87454 0.75637 0.0
H102 H 0.1962 0.82805 0.65939 0.0
H103 H 0.2084 0.77135 0.70608 0.0
H104 H 0.23804 0.74931 0.69149 0.0
H105 H 0.21287 0.76866 0.66584 0.0
H106 H 0.26775 0.83054 0.65622 0.0
H107 H 0.24514 0.80206 0.63816 0.0
H108 H 0.28201 0.79364 0.65325 0.0
H109 H 0.31 0.87676 0.83472 0.0
H110 H 0.38443 0.8135 0.83892 0.0
H111 H 0.36306 0.78533 0.79753 0.0
H112 H 0.31201 0.88488 0.76529 0.0
H113 H 0.28086 0.8989 0.78712 0.0
H114 H 0.2758 0.88496 0.74917 0.0
H115 H 0.2567 0.82659 0.82025 0.0
H116 H 0.23339 0.84165 0.79178 0.0
H117 H 0.25126 0.86675 0.81854 0.0
H118 H 0.18701 0.89663 0.7283 0.0
C119 C 0.22189 0.86378 0.73559 0.0
C120 C 0.70546 0.21144 0.86062 0.0
C121 C 0.6791 0.19696 0.85009 0.0
C122 C 0.66668 0.20619 0.82214 0.0
C123 C 0.70439 0.24559 0.8175 0.0
C124 C 0.71774 0.23553 0.84392 0.0
C125 C 0.74533 0.25384 0.85196 0.0
H126 H 0.83395 0.37603 0.82533 0.0
C127 C 0.7214 0.27221 0.8066 0.0
C128 C 0.74577 0.2769 0.82642 0.0
H129 H 0.84306 0.30926 0.89626 0.0
H130 H 0.80127 0.28101 0.87556 0.0
H131 H 0.76235 0.38017 0.8291 0.0
H132 H 0.8216 0.32927 0.77137 0.0
H133 H 0.7913 0.34131 0.7487 0.0
H134 H 0.81555 0.36906 0.76632 0.0
H135 H 0.78444 0.39734 0.79968 0.0
H136 H 0.74734 0.38212 0.79246 0.0
C137 C 0.73969 0.26886 0.88306 0.0
C138 C 0.77323 0.23272 0.851 0.0
C139 C 0.67895 0.3359 0.72055 0.0
C140 C 0.68825 0.36347 0.70761 0.0
C141 C 0.71626 0.37596 0.71637 0.0
C142 C 0.734 0.36211 0.73863 0.0
C143 C 0.72362 0.33552 0.75258 0.0
C144 C 0.6969 0.32242 0.74299 0.0
C145 C 0.68959 0.29407 0.76042 0.0
C146 C 0.71592 0.29285 0.78254 0.0
C147 C 0.73561 0.31734 0.77795 0.0
C148 C 0.65898 0.29896 0.77672 0.0
C149 C 0.68988 0.26702 0.73816 0.0
C150 C 0.82695 0.35533 0.83642 0.0
C151 C 0.84186 0.34498 0.86254 0.0
C152 C 0.83225 0.31763 0.87594 0.0
C153 C 0.80776 0.30135 0.86403 0.0
C154 C 0.79253 0.31252 0.83848 0.0
C155 C 0.80249 0.33884 0.82486 0.0
C156 C 0.78351 0.34744 0.79801 0.0
C157 C 0.76053 0.3219 0.7977 0.0
C158 C 0.76573 0.30166 0.82164 0.0
C159 C 0.76868 0.37844 0.80482 0.0
C160 C 0.80389 0.34703 0.76951 0.0
H161 H 0.66827 0.2365 0.78511 0.0
H162 H 0.71575 0.2049 0.88185 0.0
H163 H 0.77026 0.21457 0.83385 0.0
H164 H 0.79411 0.24462 0.84407 0.0
H165 H 0.77701 0.22161 0.87322 0.0
H166 H 0.71611 0.27747 0.88456 0.0
H167 H 0.74304 0.25241 0.90176 0.0
H168 H 0.75422 0.28871 0.88717 0.0
H169 H 0.65754 0.32574 0.71434 0.0
H170 H 0.72424 0.39685 0.70632 0.0
H171 H 0.7548 0.37309 0.74461 0.0
H172 H 0.65815 0.32182 0.78715 0.0
H173 H 0.63981 0.29717 0.76058 0.0
H174 H 0.65501 0.28297 0.79541 0.0
H175 H 0.70493 0.27148 0.71849 0.0
H176 H 0.69906 0.24619 0.74857 0.0
H177 H 0.66689 0.26233 0.72917 0.0
H178 H 0.64701 0.19489 0.81289 0.0
C179 C 0.67913 0.23033 0.80588 0.0
C180 C 0.85044 0.82829 0.33401 0.0
C181 C 0.83712 0.84369 0.35859 0.0
C182 C 0.8086 0.83359 0.369 0.0
C183 C 0.80931 0.79192 0.33349 0.0
C184 C 0.83596 0.80297 0.32158 0.0
C185 C 0.84641 0.7849 0.2947 0.0
H186 H 0.83641 0.65726 0.21187 0.0
C187 C 0.80138 0.76393 0.31706 0.0
C188 C 0.8227 0.75997 0.2939 0.0
H189 H 0.89369 0.7353 0.19581 0.0
H190 H 0.87106 0.76062 0.23807 0.0
H191 H 0.83771 0.65835 0.2851 0.0
H192 H 0.77649 0.69693 0.21982 0.0
H193 H 0.75461 0.68366 0.25019 0.0
H194 H 0.7766 0.65724 0.22825 0.0
H195 H 0.8133 0.63581 0.26175 0.0
H196 H 0.80044 0.65126 0.29711 0.0
C197 C 0.87831 0.77232 0.3016 0.0
C198 C 0.84497 0.80541 0.26623 0.0
C199 C 0.71904 0.69557 0.35891 0.0
C200 C 0.70882 0.66645 0.35121 0.0
C201 C 0.72092 0.65232 0.32534 0.0
C202 C 0.74354 0.66653 0.30811 0.0
C203 C 0.75426 0.69519 0.3168 0.0
C204 C 0.74168 0.70937 0.34159 0.0
C205 C 0.75587 0.73966 0.34775 0.0
C206 C 0.77931 0.74125 0.32272 0.0
C207 C 0.7784 0.71509 0.30473 0.0
C208 C 0.77057 0.7383 0.37952 0.0
C209 C 0.73129 0.76439 0.34423 0.0
C210 C 0.84397 0.67996 0.21691 0.0
C211 C 0.86752 0.69378 0.20029 0.0
C212 C 0.87643 0.72339 0.20843 0.0
C213 C 0.86296 0.73838 0.23287 0.0
C214 C 0.83991 0.72402 0.24931 0.0
C215 C 0.83026 0.69561 0.24079 0.0
C216 C 0.80402 0.68474 0.25965 0.0
C217 C 0.79963 0.71135 0.28088 0.0
C218 C 0.82122 0.73397 0.27515 0.0
C219 C 0.81409 0.6559 0.27676 0.0
C220 C 0.77642 0.68012 0.23856 0.0
H221 H 0.77348 0.80106 0.36613 0.0
H222 H 0.87208 0.8351 0.32491 0.0
H223 H 0.82978 0.82514 0.26962 0.0
H224 H 0.8354 0.79343 0.24642 0.0
H225 H 0.86766 0.81441 0.26026 0.0
H226 H 0.87883 0.76172 0.32442 0.0
H227 H 0.89548 0.79066 0.30116 0.0
H228 H 0.88549 0.75468 0.28555 0.0
H229 H 0.70986 0.70729 0.37833 0.0
H230 H 0.7136 0.62984 0.31899 0.0
H231 H 0.75222 0.65438 0.28902 0.0
H232 H 0.78343 0.71689 0.38239 0.0
H233 H 0.75309 0.73919 0.39752 0.0
H234 H 0.787 0.75655 0.38366 0.0
H235 H 0.71301 0.75708 0.32856 0.0
H236 H 0.74031 0.78542 0.33405 0.0
H237 H 0.7206 0.76978 0.36629 0.0
H238 H 0.79679 0.84544 0.38681 0.0
C239 C 0.79481 0.80782 0.35676 0.0
C240 C 0.92004 0.81619 0.96375 0.0
C241 C 0.94644 0.79976 0.95771 0.0
C242 C 0.96608 0.80954 0.93465 0.0
C243 C 0.93214 0.85082 0.92274 0.0
C244 C 0.91355 0.84183 0.94628 0.0
C245 C 0.88697 0.86258 0.95026 0.0
H246 H 0.80206 0.97867 0.89817 0.0
C247 C 0.91821 0.87743 0.90809 0.0
C248 C 0.8919 0.88461 0.92435 0.0
H249 H 0.78998 0.92736 0.98037 0.0
H250 H 0.83514 0.89852 0.96965 0.0
H251 H 0.82301 0.92336 0.85579 0.0
H252 H 0.87229 0.98898 0.90776 0.0
H253 H 0.89327 0.98329 0.87463 0.0
H254 H 0.85532 0.99809 0.87206 0.0
H255 H 0.82617 0.96229 0.84477 0.0
H256 H 0.854 0.93468 0.83368 0.0
C257 C 0.8577 0.84379 0.94606 0.0
C258 C 0.88974 0.87819 0.98154 0.0
C259 C 0.96367 0.92156 0.81163 0.0
C260 C 0.95451 0.9453 0.79249 0.0
C261 C 0.92769 0.96112 0.79934 0.0
C262 C 0.91055 0.95385 0.82486 0.0
C263 C 0.92006 0.93033 0.84389 0.0
C264 C 0.94614 0.91452 0.83718 0.0
C265 C 0.9524 0.89007 0.86009 0.0
C266 C 0.92586 0.89404 0.88162 0.0
C267 C 0.90704 0.91766 0.87188 0.0
C268 C 0.95129 0.85928 0.84352 0.0
C269 C 0.98302 0.89704 0.87563 0.0
C270 C 0.80929 0.96116 0.91371 0.0
C271 C 0.79269 0.95495 0.93998 0.0
C272 C 0.80269 0.93236 0.96002 0.0
C273 C 0.82882 0.91568 0.95373 0.0
C274 C 0.84524 0.92189 0.92725 0.0
C275 C 0.83569 0.94463 0.90801 0.0
C276 C 0.85692 0.94909 0.88185 0.0
C277 C 0.88064 0.92517 0.88848 0.0
C278 C 0.87339 0.90901 0.9148 0.0
C279 C 0.83929 0.94226 0.85234 0.0
C280 C 0.8701 0.98155 0.88383 0.0
H281 H 0.97466 0.84108 0.89953 0.0
H282 H 0.90488 0.80924 0.9817 0.0
H283 H 0.91358 0.87873 0.98961 0.0
H284 H 0.88285 0.90223 0.98083 0.0
H285 H 0.87617 0.8662 0.99897 0.0
H286 H 0.85971 0.82871 0.92605 0.0
H287 H 0.85333 0.82936 0.96617 0.0
H288 H 0.83753 0.85782 0.9419 0.0
H289 H 0.98417 0.90901 0.80707 0.0
H290 H 0.91967 0.97903 0.78468 0.0
H291 H 0.89045 0.96681 0.82866 0.0
H292 H 0.93214 0.85868 0.8272 0.0
H293 H 0.97246 0.85532 0.83062 0.0
H294 H 0.94746 0.83997 0.85882 0.0
H295 H 0.98682 0.92185 0.8774 0.0
H296 H 0.984 0.88875 0.89919 0.0
H297 H 0.0022 0.88736 0.86266 0.0
H298 H 0.98658 0.79705 0.92981 0.0
C299 C 0.95903 0.83494 0.91704 0.0
C300 C 0.72601 0.09986 0.43285 0.0
C301 C 0.74014 0.07742 0.41548 0.0
C302 C 0.72837 0.07012 0.38685 0.0
C303 C 0.68869 0.10745 0.39328 0.0
C304 C 0.70066 0.11482 0.42121 0.0
C305 C 0.68453 0.14102 0.43563 0.0
H306 H 0.58081 0.25273 0.42399 0.0
C307 C 0.6627 0.12773 0.38757 0.0
C308 C 0.66032 0.14761 0.4122 0.0
H309 H 0.64502 0.23789 0.49607 0.0
H310 H 0.66156 0.19151 0.47223 0.0
H311 H 0.55818 0.18535 0.4216 0.0
H312 H 0.62361 0.23294 0.36757 0.0
H313 H 0.59859 0.21301 0.34364 0.0
H314 H 0.5839 0.24145 0.36847 0.0
H315 H 0.54695 0.20738 0.38948 0.0
H316 H 0.55733 0.16803 0.38592 0.0
C317 C 0.67067 0.1301 0.46587 0.0
C318 C 0.70741 0.16743 0.43882 0.0
C319 C 0.60023 0.11564 0.29179 0.0
C320 C 0.57368 0.12966 0.28139 0.0
C321 C 0.56028 0.15253 0.29893 0.0
C322 C 0.5735 0.16174 0.32626 0.0
C323 C 0.60019 0.14766 0.33632 0.0
C324 C 0.61281 0.12466 0.3194 0.0
C325 C 0.64011 0.11106 0.33449 0.0
C326 C 0.6418 0.12969 0.36324 0.0
C327 C 0.61872 0.15144 0.3639 0.0
C328 C 0.6332 0.07736 0.34115 0.0
C329 C 0.66788 0.1164 0.31379 0.0
C330 C 0.59853 0.23948 0.4345 0.0
C331 C 0.61208 0.24911 0.46157 0.0
C332 C 0.63441 0.23091 0.47512 0.0
C333 C 0.64408 0.20415 0.46113 0.0
C334 C 0.63119 0.19545 0.43337 0.0
C335 C 0.60825 0.21263 0.42093 0.0
C336 C 0.59625 0.1993 0.39204 0.0
C337 C 0.61701 0.17228 0.38822 0.0
C338 C 0.6375 0.17019 0.4124 0.0
C339 C 0.56291 0.18963 0.39726 0.0
C340 C 0.60059 0.22283 0.36645 0.0
H341 H 0.6946 0.07831 0.35378 0.0
H342 H 0.73514 0.10634 0.45464 0.0
H343 H 0.72395 0.16745 0.41985 0.0
H344 H 0.69666 0.1899 0.43769 0.0
H345 H 0.72043 0.16561 0.46022 0.0
H346 H 0.66145 0.1068 0.46357 0.0
H347 H 0.68795 0.12972 0.4841 0.0
H348 H 0.65133 0.14402 0.47326 0.0
H349 H 0.61064 0.09761 0.27894 0.0
H350 H 0.53977 0.16349 0.29128 0.0
H351 H 0.56248 0.17951 0.33847 0.0
H352 H 0.60941 0.07448 0.34883 0.0
H353 H 0.63631 0.06332 0.32059 0.0
H354 H 0.64713 0.06794 0.35957 0.0
H355 H 0.66584 0.13816 0.3013 0.0
H356 H 0.68926 0.11844 0.32655 0.0
H357 H 0.67013 0.09809 0.29678 0.0
H358 H 0.7392 0.05302 0.37311 0.0
C359 C 0.70255 0.08485 0.37574 0.0
C360 C 0.45937 0.62685 0.23103 0.0
C361 C 0.44828 0.60623 0.25255 0.0
C362 C 0.42221 0.58919 0.24588 0.0
C363 C 0.41827 0.61353 0.19703 0.0
C364 C 0.44382 0.63035 0.20358 0.0
C365 C 0.45112 0.65263 0.17885 0.0
H366 H 0.41056 0.71963 0.04707 0.0
C367 C 0.40716 0.62278 0.16695 0.0
C368 C 0.42623 0.64575 0.15612 0.0
H369 H 0.48459 0.743 0.10656 0.0
H370 H 0.47332 0.70004 0.13813 0.0
H371 H 0.36179 0.70307 0.09968 0.0
H372 H 0.4232 0.64933 0.04696 0.0
H373 H 0.3922 0.62581 0.055 0.0
H374 H 0.38669 0.65964 0.03271 0.0
H375 H 0.35933 0.6983 0.05941 0.0
H376 H 0.34228 0.6716 0.08476 0.0
C377 C 0.44835 0.68493 0.19215 0.0
C378 C 0.48279 0.64496 0.16612 0.0
C379 C 0.31283 0.57341 0.12355 0.0
C380 C 0.29817 0.57619 0.09558 0.0
C381 C 0.31012 0.59569 0.07343 0.0
C382 C 0.33601 0.61297 0.07937 0.0
C383 C 0.35016 0.61056 0.10771 0.0
C384 C 0.33902 0.59044 0.12893 0.0
C385 C 0.35818 0.5895 0.15699 0.0
C386 C 0.38229 0.61275 0.1493 0.0
C387 C 0.3771 0.62544 0.12068 0.0
C388 C 0.33835 0.59962 0.18404 0.0
C389 C 0.37151 0.55723 0.15999 0.0
C390 C 0.42429 0.71546 0.06693 0.0
C391 C 0.44834 0.7349 0.0744 0.0
C392 C 0.46607 0.7283 0.10011 0.0
C393 C 0.4593 0.70351 0.11865 0.0
C394 C 0.43442 0.68506 0.11159 0.0
C395 C 0.41779 0.69075 0.08573 0.0
C396 C 0.39245 0.6684 0.0816 0.0
C397 C 0.39578 0.64931 0.11 0.0
C398 C 0.42034 0.65925 0.12752 0.0
C399 C 0.36226 0.68608 0.08117 0.0
C400 C 0.39866 0.64987 0.05251 0.0
H401 H 0.38753 0.57896 0.21461 0.0
H402 H 0.47918 0.64047 0.23581 0.0
H403 H 0.48587 0.62006 0.1645 0.0
H404 H 0.4863 0.65354 0.14293 0.0
H405 H 0.50094 0.65395 0.18098 0.0
H406 H 0.43063 0.68585 0.20999 0.0
H407 H 0.46998 0.69238 0.20254 0.0
H408 H 0.44112 0.70187 0.1753 0.0
H409 H 0.30414 0.55826 0.14076 0.0
H410 H 0.29897 0.59802 0.05173 0.0
H411 H 0.3438 0.62779 0.06181 0.0
H412 H 0.32224 0.61763 0.17706 0.0
H413 H 0.32487 0.58044 0.1931 0.0
H414 H 0.3516 0.60977 0.2026 0.0
H415 H 0.37594 0.54717 0.13737 0.0
H416 H 0.3937 0.55688 0.17148 0.0
H417 H 0.35569 0.54193 0.17213 0.0
H418 H 0.41346 0.57303 0.26213 0.0
C419 C 0.40725 0.5926 0.21824 0.0
C420 C 0.1091 0.29618 0.6005 0.0
C421 C 0.12297 0.28747 0.57331 0.0
C422 C 0.14527 0.30618 0.56044 0.0
C423 C 0.14087 0.3409 0.60268 0.0
C424 C 0.11813 0.32303 0.61459 0.0
C425 C 0.10504 0.33609 0.64312 0.0
H426 H 0.11266 0.44004 0.75501 0.0
C427 C 0.14566 0.36661 0.62349 0.0
C428 C 0.12454 0.3641 0.64706 0.0
H429 H 0.04592 0.36971 0.74318 0.0
H430 H 0.06972 0.3546 0.69623 0.0
H431 H 0.10982 0.4626 0.68684 0.0
H432 H 0.17144 0.40187 0.73157 0.0
H433 H 0.19268 0.42673 0.70887 0.0
H434 H 0.17021 0.44168 0.73931 0.0
H435 H 0.13888 0.47604 0.71177 0.0
H436 H 0.14598 0.46973 0.67209 0.0
C437 C 0.07143 0.34417 0.63721 0.0
C438 C 0.10994 0.313 0.66899 0.0
C439 C 0.23286 0.43906 0.6049 0.0
C440 C 0.24435 0.46406 0.62089 0.0
C441 C 0.22965 0.47314 0.64768 0.0
C442 C 0.20417 0.45747 0.65841 0.0
C443 C 0.19321 0.43236 0.64227 0.0
C444 C 0.20744 0.42371 0.61588 0.0
C445 C 0.19286 0.3965 0.60164 0.0
C446 C 0.16748 0.39018 0.62384 0.0
C447 C 0.16784 0.41115 0.64767 0.0
C448 C 0.18066 0.40575 0.57009 0.0
C449 C 0.21649 0.37067 0.60108 0.0
C450 C 0.1034 0.42124 0.74232 0.0
C451 C 0.07774 0.40567 0.75279 0.0
C452 C 0.06577 0.38184 0.73546 0.0
C453 C 0.07963 0.37315 0.70829 0.0
C454 C 0.10551 0.38873 0.6982 0.0
C455 C 0.11664 0.41269 0.71488 0.0
C456 C 0.14317 0.42778 0.69978 0.0
C457 C 0.14638 0.40871 0.67146 0.0
C458 C 0.12457 0.38558 0.6709 0.0
C459 C 0.13432 0.46085 0.69232 0.0
C460 C 0.17093 0.42465 0.7209 0.0
H461 H 0.17182 0.34592 0.56439 0.0
H462 H 0.09139 0.28244 0.61045 0.0
H463 H 0.13336 0.30388 0.6683 0.0
H464 H 0.10724 0.32293 0.69167 0.0
H465 H 0.09404 0.29365 0.66686 0.0
H466 H 0.06713 0.34861 0.61281 0.0
H467 H 0.05615 0.32551 0.6443 0.0
H468 H 0.06453 0.36527 0.64871 0.0
H469 H 0.2438 0.43105 0.58453 0.0
H470 H 0.23778 0.49247 0.66031 0.0
H471 H 0.19408 0.46545 0.67896 0.0
H472 H 0.17373 0.42992 0.56974 0.0
H473 H 0.19812 0.40265 0.55232 0.0
H474 H 0.16002 0.39317 0.56367 0.0
H475 H 0.22985 0.37036 0.6224 0.0
H476 H 0.20626 0.34799 0.59951 0.0
H477 H 0.23259 0.37364 0.58203 0.0
H478 H 0.15603 0.29985 0.53938 0.0
C479 C 0.15441 0.3328 0.57505 0.0
Zn480 Zn 0.97944 0.0628 0.55248 0.0
Zn481 Zn 0.04247 0.98651 0.48226 0.0
Zn482 Zn 0.01045 0.02486 0.51805 0.0
C483 C 0.06366 0.04565 0.47167 0.0
C484 C 0.98115 0.9814 0.46659 0.0
O485 O 0.01521 0.00976 0.56555 0.0
O486 O 0.99137 0.04502 0.59186 0.0
C487 C 0.02195 0.09758 0.52258 0.0
O488 O 0.04325 0.05194 0.4915 0.0
O489 O 0.06838 0.01856 0.46399 0.0
O490 O 0.00679 0.97124 0.45932 0.0
O491 O 0.97844 0.00134 0.48764 0.0
O492 O 0.99928 0.10074 0.53959 0.0
O493 O 0.02939 0.07116 0.51277 0.0
O494 O 0.96201 0.02336 0.50391 0.0
O495 O 0.93885 0.05362 0.53623 0.0
C496 C 0.93766 0.03596 0.51386 0.0
O497 O 0.03452 0.99189 0.54749 0.0
O498 O 0.05904 0.96171 0.51604 0.0
C499 C 0.00646 0.02084 0.59102 0.0
C500 C 0.05238 0.96934 0.54274 0.0
Zn501 Zn 0.48764 0.04961 0.9834 0.0
Zn502 Zn 0.54736 0.9788 0.05897 0.0
Zn503 Zn 0.51834 0.01363 0.01965 0.0
C504 C 0.59036 0.00333 0.01874 0.0
C505 C 0.50766 0.94135 0.02804 0.0
O506 O 0.49302 0.0469 0.04733 0.0
O507 O 0.46777 0.07496 0.01451 0.0
C508 C 0.54807 0.05619 0.96745 0.0
O509 O 0.56663 0.01533 0.00681 0.0
O510 O 0.58808 0.98705 0.04211 0.0
O511 O 0.5276 0.9403 0.04838 0.0
O512 O 0.50099 0.96655 0.01496 0.0
O513 O 0.52221 0.06629 0.96094 0.0
O514 O 0.55122 0.03621 0.98849 0.0
O515 O 0.48597 0.98479 0.99381 0.0
O516 O 0.46447 0.01755 0.96268 0.0
C517 C 0.46771 0.99073 0.97185 0.0
O518 O 0.51354 0.03175 0.06645 0.0
O519 O 0.53605 0.99914 0.09703 0.0
C520 C 0.47435 0.06852 0.04153 0.0
C521 C 0.52173 0.02349 0.09324 0.0
Zn522 Zn 0.54756 0.55243 0.55548 0.0
Zn523 Zn 0.48103 0.4842 0.48892 0.0
Zn524 Zn 0.51608 0.51959 0.52302 0.0
C525 C 0.52416 0.44683 0.51565 0.0
C526 C 0.50765 0.5272 0.45069 0.0
O527 O 0.48574 0.54628 0.55317 0.0
O528 O 0.51672 0.58347 0.56528 0.0
C529 C 0.5582 0.49517 0.57593 0.0
O530 O 0.53296 0.47233 0.52676 0.0
O531 O 0.5011 0.44546 0.4989 0.0
O532 O 0.4907 0.50422 0.44992 0.0
O533 O 0.51941 0.53617 0.47582 0.0
O534 O 0.55752 0.5216 0.58663 0.0
O535 O 0.54673 0.48994 0.54965 0.0
O536 O 0.54302 0.54955 0.49267 0.0
O537 O 0.57893 0.5623 0.52486 0.0
C538 C 0.56908 0.56152 0.49809 0.0
O539 O 0.46871 0.52319 0.53954 0.0
O540 O 0.44207 0.49385 0.5088 0.0
C541 C 0.49036 0.57253 0.565 0.0
C542 C 0.44332 0.51146 0.53118 0.0
Zn543 Zn 0.05624 0.55241 0.97409 0.0
Zn544 Zn 0.98792 0.49245 0.05251 0.0
Zn545 Zn 0.02381 0.5231 0.01358 0.0
C546 C 0.04854 0.48188 0.06906 0.0
C547 C 0.97706 0.46941 0.99457 0.0
O548 O 0.01073 0.57185 0.01554 0.0
O549 O 0.04193 0.59344 0.98293 0.0
C550 C 0.0966 0.52719 0.01549 0.0
O551 O 0.05354 0.49914 0.04605 0.0
O552 O 0.02177 0.4762 0.07729 0.0
O553 O 0.96934 0.46547 0.02179 0.0
O554 O 0.99682 0.48973 0.98761 0.0
O555 O 0.09616 0.54123 0.99064 0.0
O556 O 0.07165 0.5185 0.02786 0.0
O557 O 0.0176 0.50324 0.96752 0.0
O558 O 0.04298 0.53302 0.93628 0.0
C559 C 0.02649 0.51014 0.94057 0.0
O560 O 0.99397 0.55577 0.03726 0.0
O561 O 0.96494 0.52804 0.0674 0.0
C562 C 0.02096 0.59567 0.00212 0.0
C563 C 0.97276 0.55352 0.05716 0.0
H564 H 0.1421 0.20656 0.38348 0.0
H565 H 0.16537 0.12757 0.33109 0.0
H566 H 0.11707 0.17413 0.42087 0.0
H567 H 0.14088 0.09551 0.36829 0.0
H568 H 0.12142 0.04242 0.45158 0.0
H569 H 0.14849 0.07904 0.42054 0.0
H570 H 0.07211 0.13962 0.42522 0.0
H571 H 0.04492 0.10268 0.45632 0.0
C572 C 0.14184 0.18236 0.37989 0.0
C573 C 0.15607 0.16967 0.35443 0.0
C574 C 0.12755 0.16382 0.40132 0.0
C575 C 0.12734 0.13224 0.39775 0.0
C576 C 0.14129 0.11968 0.37214 0.0
C577 C 0.1554 0.13811 0.35078 0.0
C578 C 0.11057 0.06373 0.44632 0.0
C579 C 0.08114 0.06979 0.4565 0.0
C580 C 0.12601 0.08466 0.42844 0.0
C581 C 0.1123 0.11207 0.42009 0.0
C582 C 0.08337 0.11879 0.43145 0.0
C583 C 0.06785 0.09773 0.44938 0.0
H584 H 0.38204 0.83034 0.89042 0.0
H585 H 0.3516 0.90922 0.84135 0.0
H586 H 0.4115 0.86294 0.92417 0.0
H587 H 0.37955 0.94143 0.87566 0.0
H588 H 0.46184 0.98735 0.91156 0.0
H589 H 0.43297 0.95114 0.88213 0.0
H590 H 0.40849 0.90367 0.96401 0.0
H591 H 0.43781 0.94055 0.99366 0.0
C592 C 0.38136 0.85457 0.88698 0.0
C593 C 0.36451 0.86707 0.86299 0.0
C594 C 0.398 0.87323 0.90651 0.0
C595 C 0.39821 0.90473 0.90234 0.0
C596 C 0.38037 0.9172 0.87917 0.0
C597 C 0.36391 0.89868 0.8597 0.0
C598 C 0.45045 0.96907 0.9233 0.0
C599 C 0.45216 0.96657 0.95487 0.0
C600 C 0.43376 0.9484 0.90646 0.0
C601 C 0.41796 0.92481 0.92074 0.0
C602 C 0.4205 0.92155 0.95234 0.0
C603 C 0.43744 0.94241 0.9693 0.0
H604 H 0.67563 0.42352 0.70901 0.0
H605 H 0.6547 0.34186 0.65979 0.0
H606 H 0.64198 0.45201 0.67626 0.0
H607 H 0.62026 0.37059 0.62702 0.0
H608 H 0.59321 0.44816 0.55621 0.0
H609 H 0.6226 0.41291 0.58735 0.0
H610 H 0.58677 0.4548 0.66785 0.0
H611 H 0.5573 0.48939 0.63674 0.0
C612 C 0.66398 0.41167 0.69102 0.0
C613 C 0.66798 0.38046 0.68689 0.0
C614 C 0.64438 0.42794 0.67247 0.0
C615 C 0.62825 0.41349 0.64924 0.0
C616 C 0.63244 0.38231 0.64474 0.0
C617 C 0.65198 0.36588 0.66357 0.0
C618 C 0.59078 0.4489 0.58047 0.0
C619 C 0.57275 0.47117 0.59402 0.0
C620 C 0.6078 0.42899 0.59834 0.0
C621 C 0.60725 0.43135 0.63005 0.0
C622 C 0.58808 0.45276 0.64348 0.0
C623 C 0.57113 0.47249 0.62568 0.0
H624 H 0.92654 0.69951 0.18047 0.0
H625 H 0.84383 0.65055 0.16194 0.0
H626 H 0.95158 0.6724 0.14034 0.0
H627 H 0.86993 0.62073 0.12465 0.0
H628 H 0.91599 0.5753 0.04887 0.0
H629 H 0.89085 0.6143 0.07859 0.0
H630 H 0.9736 0.62785 0.12933 0.0
H631 H 0.99885 0.59095 0.09752 0.0
C632 C 0.9135 0.68306 0.16792 0.0
C633 C 0.88294 0.67736 0.17498 0.0
C634 C 0.92821 0.6669 0.14509 0.0
C635 C 0.91318 0.64381 0.12912 0.0
C636 C 0.88248 0.63849 0.13584 0.0
C637 C 0.86753 0.65526 0.15803 0.0
C638 C 0.92882 0.58748 0.06582 0.0
C639 C 0.95928 0.58053 0.07088 0.0
C640 C 0.91437 0.6095 0.08328 0.0
C641 C 0.92977 0.62409 0.10712 0.0
C642 C 0.96079 0.61774 0.11112 0.0
C643 C 0.97541 0.59643 0.09297 0.0
H644 H 0.38615 0.1434 0.20367 0.0
H645 H 0.33646 0.17179 0.12444 0.0
H646 H 0.42345 0.11857 0.17113 0.0
H647 H 0.3736 0.14756 0.09231 0.0
H648 H 0.45716 0.12723 0.04044 0.0
H649 H 0.4267 0.15403 0.07759 0.0
H650 H 0.42636 0.07479 0.13478 0.0
H651 H 0.45688 0.04787 0.09731 0.0
C652 C 0.38315 0.14435 0.17939 0.0
C653 C 0.35847 0.15991 0.16668 0.0
C654 C 0.40452 0.13018 0.1608 0.0
C655 C 0.40167 0.13145 0.12916 0.0
C656 C 0.37689 0.14681 0.11657 0.0
C657 C 0.35558 0.16077 0.13504 0.0
C658 C 0.45091 0.11566 0.06113 0.0
C659 C 0.45947 0.08552 0.06606 0.0
C660 C 0.4334 0.13096 0.08236 0.0
C661 C 0.42381 0.1164 0.10894 0.0
C662 C 0.43359 0.08668 0.11461 0.0
C663 C 0.45115 0.07131 0.09324 0.0
H664 H 0.18311 0.92436 0.67913 0.0
H665 H 0.14012 0.8383 0.66264 0.0
H666 H 0.14658 0.94908 0.64627 0.0
H667 H 0.10281 0.86309 0.63036 0.0
H668 H 0.07083 0.9108 0.54344 0.0
H669 H 0.10058 0.88525 0.58193 0.0
H670 H 0.0963 0.96504 0.63813 0.0
H671 H 0.06846 0.99123 0.59836 0.0
C672 C 0.16542 0.91081 0.66893 0.0
C673 C 0.16457 0.87936 0.67336 0.0
C674 C 0.14432 0.92501 0.65015 0.0
C675 C 0.12164 0.90815 0.6355 0.0
C676 C 0.12025 0.87677 0.64077 0.0
C677 C 0.14157 0.86253 0.65932 0.0
C678 C 0.07598 0.92277 0.56418 0.0
C679 C 0.06678 0.95288 0.56811 0.0
C680 C 0.09284 0.90801 0.58644 0.0
C681 C 0.10093 0.92297 0.61331 0.0
C682 C 0.0908 0.95284 0.61765 0.0
C683 C 0.07419 0.9677 0.59516 0.0
H684 H 0.89506 0.32529 0.88756 0.0
H685 H 0.84349 0.40631 0.87004 0.0
H686 H 0.93231 0.35508 0.91537 0.0
H687 H 0.88065 0.436 0.89776 0.0
H688 H 0.96074 0.48558 0.93705 0.0
H689 H 0.93277 0.45496 0.90034 0.0
H690 H 0.93111 0.38076 0.96397 0.0
H691 H 0.95984 0.41092 0.99991 0.0
C692 C 0.89175 0.34946 0.88952 0.0
C693 C 0.86616 0.36336 0.8768 0.0
C694 C 0.91311 0.36653 0.90539 0.0
C695 C 0.90937 0.3979 0.90894 0.0
C696 C 0.88446 0.41197 0.89512 0.0
C697 C 0.86311 0.39491 0.87925 0.0
C698 C 0.95515 0.46243 0.94271 0.0
C699 C 0.96274 0.45047 0.97112 0.0
C700 C 0.93881 0.44503 0.9219 0.0
C701 C 0.92968 0.4154 0.92923 0.0
C702 C 0.93813 0.40328 0.95737 0.0
C703 C 0.95436 0.42066 0.97809 0.0
H704 H 0.65954 0.63198 0.335 0.0
H705 H 0.7091 0.66425 0.41272 0.0
H706 H 0.62484 0.60464 0.36862 0.0
H707 H 0.67429 0.63777 0.44602 0.0
H708 H 0.63017 0.56119 0.49595 0.0
H709 H 0.66307 0.58506 0.45882 0.0
H710 H 0.58486 0.61465 0.40837 0.0
H711 H 0.55192 0.59094 0.4462 0.0
C712 C 0.663 0.63325 0.3592 0.0
C713 C 0.68704 0.65033 0.37119 0.0
C714 C 0.64301 0.61782 0.37843 0.0
C715 C 0.64694 0.61888 0.40996 0.0
C716 C 0.67087 0.63613 0.42183 0.0
C717 C 0.69063 0.65162 0.40272 0.0
C718 C 0.61997 0.5726 0.47682 0.0
C719 C 0.58839 0.57391 0.47372 0.0
C720 C 0.63882 0.58636 0.45559 0.0
C721 C 0.62659 0.60197 0.43076 0.0
C722 C 0.59498 0.6025 0.42707 0.0
C723 C 0.57607 0.5887 0.4485 0.0
H724 H 0.16669 0.38985 0.1985 0.0
H725 H 0.17898 0.34554 0.11252 0.0
H726 H 0.13588 0.4286 0.17405 0.0
H727 H 0.14754 0.38348 0.08817 0.0
H728 H 0.1031 0.4637 0.04627 0.0
H729 H 0.14192 0.43405 0.07195 0.0
H730 H 0.08714 0.43294 0.15292 0.0
H731 H 0.04959 0.46417 0.12782 0.0
C732 C 0.16276 0.38842 0.17437 0.0
C733 C 0.17519 0.36467 0.15743 0.0
C734 C 0.14506 0.41056 0.16033 0.0
C735 C 0.13906 0.40921 0.12908 0.0
C736 C 0.15208 0.38571 0.11212 0.0
C737 C 0.17002 0.3638 0.1261 0.0
C738 C 0.09995 0.45799 0.06987 0.0
C739 C 0.07359 0.46671 0.08518 0.0
C740 C 0.12193 0.44053 0.08447 0.0
C741 C 0.11768 0.43085 0.11454 0.0
C742 C 0.09155 0.44029 0.12999 0.0
C743 C 0.06983 0.458 0.1155 0.0
H744 H 0.70408 0.1513 0.88487 0.0
H745 H 0.61845 0.18987 0.85786 0.0
H746 H 0.67702 0.1123 0.9139 0.0
H747 H 0.59194 0.15091 0.88586 0.0
H748 H 0.55096 0.06341 0.90728 0.0
H749 H 0.58689 0.09416 0.87906 0.0
H750 H 0.63879 0.10866 0.96045 0.0
H751 H 0.60255 0.07723 0.9889 0.0
C752 C 0.6796 0.15155 0.88514 0.0
C753 C 0.66345 0.17343 0.8685 0.0
C754 C 0.66419 0.12921 0.90169 0.0
C755 C 0.63243 0.12826 0.90162 0.0
C756 C 0.61644 0.15058 0.88568 0.0
C757 C 0.6317 0.17288 0.86949 0.0
C758 C 0.57049 0.07249 0.91899 0.0
C759 C 0.57394 0.06822 0.95022 0.0
C760 C 0.59096 0.09018 0.90289 0.0
C761 C 0.61522 0.10432 0.91771 0.0
C762 C 0.62023 0.09804 0.94852 0.0
C763 C 0.5996 0.08008 0.96475 0.0
H764 H 0.87856 0.88413 0.33457 0.0
H765 H 0.83294 0.86175 0.41824 0.0
H766 H 0.90975 0.91992 0.3612 0.0
H767 H 0.86105 0.90066 0.44387 0.0
H768 H 0.94416 0.93955 0.49092 0.0
H769 H 0.90625 0.90956 0.46489 0.0
H770 H 0.91914 0.96406 0.38438 0.0
H771 H 0.95931 0.99178 0.41013 0.0
C772 C 0.87479 0.88691 0.35856 0.0
C773 C 0.85337 0.86913 0.37407 0.0
C774 C 0.89238 0.90826 0.37389 0.0
C775 C 0.88847 0.91336 0.40509 0.0
C776 C 0.86566 0.89699 0.42014 0.0
C777 C 0.84882 0.8749 0.40506 0.0
C778 C 0.93843 0.94521 0.46777 0.0
C779 C 0.95437 0.96784 0.45244 0.0
C780 C 0.91646 0.92818 0.45273 0.0
C781 C 0.90941 0.93391 0.42212 0.0
C782 C 0.92436 0.95807 0.40752 0.0
C783 C 0.94709 0.97436 0.42232 0.0
H784 H 0.40208 0.71034 0.66716 0.0
H785 H 0.32586 0.65497 0.64116 0.0
H786 H 0.43596 0.67652 0.64047 0.0
H787 H 0.36 0.62136 0.61337 0.0
H788 H 0.44076 0.55295 0.59676 0.0
H789 H 0.40226 0.58422 0.62151 0.0
H790 H 0.44687 0.66451 0.58804 0.0
H791 H 0.48475 0.6333 0.56333 0.0
C792 C 0.39254 0.69079 0.65593 0.0
C793 C 0.36122 0.68534 0.65643 0.0
C794 C 0.41196 0.67159 0.64024 0.0
C795 C 0.40066 0.64641 0.6245 0.0
C796 C 0.3694 0.64054 0.62534 0.0
C797 C 0.34985 0.65992 0.64103 0.0
C798 C 0.44162 0.57719 0.59397 0.0
C799 C 0.46545 0.59065 0.57787 0.0
C800 C 0.41981 0.59514 0.60834 0.0
C801 C 0.42172 0.62689 0.60703 0.0
C802 C 0.44507 0.64016 0.59002 0.0
C803 C 0.46671 0.62229 0.57576 0.0
H804 H 0.9674 0.00202 0.77241 0.0
H805 H 0.98163 0.90795 0.75084 0.0
H806 H 0.98869 0.01662 0.72432 0.0
H807 H 0.00499 0.92266 0.70287 0.0
H808 H 0.99256 0.96253 0.60476 0.0
H809 H 0.98838 0.94122 0.65558 0.0
H810 H 0.02961 0.02198 0.69231 0.0
H811 H 0.03151 0.04381 0.64174 0.0
C812 C 0.97558 0.98442 0.75751 0.0
C813 C 0.97221 0.95381 0.7652 0.0
C814 C 0.98836 0.99282 0.72998 0.0
C815 C 0.99862 0.97085 0.70941 0.0
C816 C 0.99695 0.94019 0.7179 0.0
C817 C 0.98386 0.93175 0.74553 0.0
C818 C 0.00133 0.97527 0.62375 0.0
C819 C 0.01184 0.0049 0.61967 0.0
C820 C 0.99911 0.96307 0.65291 0.0
C821 C 0.00785 0.98021 0.67831 0.0
C822 C 0.02158 0.00855 0.6735 0.0
C823 C 0.02299 0.02099 0.64454 0.0
H824 H 0.51626 0.10912 0.27191 0.0
H825 H 0.60034 0.12803 0.22613 0.0
H826 H 0.49545 0.08792 0.22496 0.0
H827 H 0.57941 0.10755 0.17919 0.0
H828 H 0.52778 0.08476 0.09456 0.0
H829 H 0.53446 0.11606 0.13982 0.0
H830 H 0.51484 0.03875 0.19614 0.0
H831 H 0.50886 0.00742 0.15106 0.0
C832 C 0.52999 0.1093 0.25162 0.0
C833 C 0.5599 0.11998 0.25251 0.0
C834 C 0.51812 0.09721 0.22488 0.0
C835 C 0.53578 0.09633 0.19849 0.0
C836 C 0.56519 0.10836 0.19911 0.0
C837 C 0.57724 0.11981 0.22596 0.0
C838 C 0.52397 0.07476 0.1166 0.0
C839 C 0.51799 0.0437 0.11944 0.0
C840 C 0.52794 0.09259 0.14243 0.0
C841 C 0.52535 0.07971 0.17138 0.0
C842 C 0.51677 0.04926 0.17409 0.0
C843 C 0.51345 0.03133 0.14834 0.0
H844 H 0.42246 0.61095 0.30786 0.0
H845 H 0.50743 0.59234 0.26381 0.0
H846 H 0.44466 0.59794 0.35661 0.0
H847 H 0.52988 0.57903 0.31289 0.0
H848 H 0.52649 0.50822 0.39559 0.0
H849 H 0.51839 0.53413 0.34737 0.0
H850 H 0.48412 0.61199 0.39511 0.0
H851 H 0.49221 0.58586 0.44329 0.0
C852 C 0.44608 0.60454 0.30879 0.0
C853 C 0.46322 0.60241 0.2822 0.0
C854 C 0.45889 0.59735 0.33669 0.0
C855 C 0.48903 0.58749 0.33855 0.0
C856 C 0.50659 0.58653 0.31206 0.0
C857 C 0.49383 0.59421 0.28409 0.0
C858 C 0.51829 0.53129 0.39569 0.0
C859 C 0.51034 0.5453 0.42297 0.0
C860 C 0.51372 0.54616 0.36817 0.0
C861 C 0.50049 0.57503 0.3675 0.0
C862 C 0.49424 0.5897 0.39498 0.0
C863 C 0.49905 0.5749 0.42249 0.0
H864 H 0.01986 0.42476 0.76205 0.0
H865 H 0.10394 0.4071 0.80822 0.0
H866 H 0.99838 0.44511 0.80908 0.0
H867 H 0.08237 0.42663 0.85524 0.0
H868 H 0.03128 0.44881 0.93971 0.0
H869 H 0.03736 0.41736 0.89446 0.0
H870 H 0.01721 0.49447 0.83813 0.0
H871 H 0.01193 0.52594 0.88318 0.0
C872 C 0.03343 0.42464 0.78245 0.0
C873 C 0.06353 0.41459 0.78167 0.0
C874 C 0.02119 0.43621 0.80924 0.0
C875 C 0.03866 0.43718 0.83577 0.0
C876 C 0.06827 0.42571 0.83522 0.0
C877 C 0.08069 0.41481 0.80835 0.0
C878 C 0.02711 0.45869 0.91768 0.0
C879 C 0.02128 0.48975 0.91478 0.0
C880 C 0.03074 0.44078 0.89185 0.0
C881 C 0.02796 0.4536 0.86288 0.0
C882 C 0.01929 0.484 0.86019 0.0
C883 C 0.01633 0.502 0.88592 0.0
H884 H 0.78341 0.99639 0.98405 0.0
H885 H 0.73894 0.9497 0.91105 0.0
H886 H 0.73514 0.01814 0.99972 0.0
H887 H 0.69024 0.96979 0.92748 0.0
H888 H 0.60461 0.01137 0.95884 0.0
H889 H 0.65498 0.00911 0.93614 0.0
H890 H 0.69392 0.99732 0.02511 0.0
H891 H 0.64424 0.00151 0.04747 0.0
C892 C 0.7632 0.99115 0.97122 0.0
C893 C 0.76455 0.97137 0.94657 0.0
C894 C 0.73554 0.00337 0.98023 0.0
C895 C 0.70859 0.99534 0.96523 0.0
C896 C 0.71043 0.97681 0.93942 0.0
C897 C 0.73824 0.96507 0.93009 0.0
C898 C 0.62413 0.00952 0.97349 0.0
C899 C 0.62054 0.0068 0.00491 0.0
C900 C 0.65296 0.00773 0.96049 0.0
C901 C 0.67865 0.00278 0.9787 0.0
C902 C 0.67494 0.00162 0.01026 0.0
C903 C 0.64631 0.00369 0.02315 0.0
H904 H 0.74667 0.043 0.46598 0.0
H905 H 0.79618 0.07986 0.39054 0.0
H906 H 0.79362 0.02378 0.48769 0.0
H907 H 0.84352 0.06266 0.41293 0.0
H908 H 0.9268 0.02524 0.45385 0.0
H909 H 0.87806 0.02607 0.42795 0.0
H910 H 0.83391 0.04416 0.51333 0.0
H911 H 0.88203 0.04038 0.53902 0.0
C912 C 0.76773 0.04679 0.45404 0.0
C913 C 0.76802 0.06294 0.42677 0.0
C914 C 0.7947 0.03605 0.46652 0.0
C915 C 0.82268 0.04203 0.45244 0.0
C916 C 0.82259 0.05716 0.42436 0.0
C917 C 0.7955 0.06726 0.41156 0.0
C918 C 0.90645 0.02772 0.46712 0.0
C919 C 0.90821 0.03206 0.49848 0.0
C920 C 0.8785 0.02903 0.45223 0.0
C921 C 0.85177 0.03548 0.46837 0.0
C922 C 0.85363 0.0386 0.49998 0.0
C923 C 0.8814 0.03676 0.5148 0.0
H924 H 0.28873 0.53072 0.05552 0.0
H925 H 0.24383 0.58585 0.12194 0.0
H926 H 0.24022 0.50876 0.04069 0.0
H927 H 0.195 0.56568 0.10606 0.0
H928 H 0.10861 0.52519 0.07635 0.0
H929 H 0.15836 0.52777 0.10036 0.0
H930 H 0.2004 0.52666 0.01203 0.0
H931 H 0.15122 0.52204 0.98866 0.0
C932 C 0.26835 0.53783 0.06708 0.0
C933 C 0.2697 0.55997 0.08964 0.0
C934 C 0.24054 0.5255 0.05851 0.0
C935 C 0.21345 0.53579 0.07173 0.0
C936 C 0.21523 0.55685 0.09554 0.0
C937 C 0.24315 0.56865 0.10454 0.0
C938 C 0.12863 0.52434 0.06228 0.0
C939 C 0.12608 0.52331 0.03067 0.0
C940 C 0.15715 0.52627 0.07597 0.0
C941 C 0.18359 0.5278 0.05822 0.0
C942 C 0.18083 0.52509 0.02665 0.0
C943 C 0.1525 0.52276 0.01311 0.0
H944 H 0.29179 0.486 0.6545 0.0
H945 H 0.25992 0.47754 0.56255 0.0
H946 H 0.33949 0.5067 0.63603 0.0
H947 H 0.30799 0.4964 0.54407 0.0
H948 H 0.3919 0.5397 0.51352 0.0
H949 H 0.3425 0.53661 0.53819 0.0
H950 H 0.38285 0.48638 0.6118 0.0
H951 H 0.43219 0.49082 0.58753 0.0
C952 C 0.29477 0.48892 0.63037 0.0
C953 C 0.27212 0.47972 0.61 0.0
C954 C 0.32228 0.50048 0.61975 0.0
C955 C 0.32784 0.50301 0.58852 0.0
C956 C 0.30457 0.49516 0.56828 0.0
C957 C 0.27707 0.48382 0.57888 0.0
C958 C 0.39017 0.52895 0.53548 0.0
C959 C 0.41565 0.5158 0.54892 0.0
C960 C 0.3619 0.52685 0.54948 0.0
C961 C 0.35849 0.51082 0.57682 0.0
C962 C 0.38453 0.49919 0.591 0.0
C963 C 0.41283 0.50163 0.57713 0.0
H964 H 0.9152 0.74708 0.95563 0.0
H965 H 0.99284 0.78939 0.99659 0.0
H966 H 0.93093 0.69818 0.97572 0.0
H967 H 0.00782 0.741 0.01858 0.0
H968 H 0.05127 0.64849 1.00043 0.0
H969 H 0.03041 0.69881 0.9979 0.0
H970 H 0.94091 0.6625 0.01398 0.0
H971 H 0.96212 0.6114 0.01434 0.0
C972 C 0.93517 0.74591 0.96979 0.0
C973 C 0.9531 0.77165 0.97434 0.0
C974 C 0.94411 0.71796 0.98156 0.0
C975 C 0.97097 0.71537 0.9985 0.0
C976 C 0.98749 0.74187 0.00497 0.0
C977 C 0.97889 0.76964 0.99261 0.0
C978 C 0.02719 0.65128 0.004 0.0
C979 C 0.0083 0.62603 0.00764 0.0
C980 C 0.01516 0.68031 0.00288 0.0
C981 C 0.98382 0.68499 0.00557 0.0
C982 C 0.9651 0.65979 0.01138 0.0
C983 C 0.97724 0.63052 0.01221 0.0
H984 H 0.50262 0.75851 0.05643 0.0
H985 H 0.40648 0.77523 0.05329 0.0
H986 H 0.5121 0.80847 0.03536 0.0
H987 H 0.41592 0.82503 0.03128 0.0
H988 H 0.45474 0.92292 0.05196 0.0
H989 H 0.43658 0.87086 0.05424 0.0
H990 H 0.50782 0.8437 0.99319 0.0
H991 H 0.52606 0.89599 0.99147 0.0
C992 C 0.48349 0.77267 0.05071 0.0
C993 C 0.45385 0.76307 0.05692 0.0
C994 C 0.48888 0.80119 0.03824 0.0
C995 C 0.46474 0.82084 0.03173 0.0
C996 C 0.435 0.81053 0.03628 0.0
C997 C 0.4296 0.78191 0.04868 0.0
C998 C 0.4656 0.90597 0.03805 0.0
C999 C 0.49143 0.91329 0.02122 0.0
C1000 C 0.45528 0.87613 0.03932 0.0
C1001 C 0.47098 0.85302 0.02415 0.0
C1002 C 0.49547 0.86092 0.00541 0.0
C1003 C 0.50572 0.89082 0.00412 0.0
H1004 H 0.12522 0.23133 0.59775 0.0
H1005 H 0.10073 0.27919 0.51633 0.0
H1006 H 0.10622 0.18422 0.57594 0.0
H1007 H 0.08097 0.23199 0.4946 0.0
H1008 H 0.00373 0.15472 0.51031 0.0
H1009 H 0.03407 0.20065 0.51491 0.0
H1010 H 0.11384 0.14658 0.52997 0.0
H1011 H 0.08344 0.10043 0.52465 0.0
C1012 C 0.11611 0.23158 0.575 0.0
C1013 C 0.11421 0.25874 0.55872 0.0
C1014 C 0.10552 0.20465 0.56242 0.0
C1015 C 0.09231 0.2045 0.53353 0.0
C1016 C 0.09122 0.23154 0.51685 0.0
C1017 C 0.10244 0.25843 0.52923 0.0
C1018 C 0.02794 0.15269 0.5135 0.0
C1019 C 0.0413 0.12417 0.51728 0.0
C1020 C 0.0453 0.17893 0.51603 0.0
C1021 C 0.0762 0.17709 0.52305 0.0
C1022 C 0.09001 0.14852 0.52463 0.0
C1023 C 0.0727 0.12219 0.52146 0.0
H1024 H 0.59509 0.26156 0.51983 0.0
H1025 H 0.61029 0.30326 0.43288 0.0
H1026 H 0.57841 0.31045 0.54021 0.0
H1027 H 0.59398 0.35184 0.45311 0.0
H1028 H 0.58276 0.43971 0.49981 0.0
H1029 H 0.60898 0.39162 0.49196 0.0
H1030 H 0.53181 0.3437 0.52791 0.0
H1031 H 0.50572 0.39185 0.53567 0.0
C1032 C 0.59521 0.28126 0.50526 0.0
C1033 C 0.60371 0.2787 0.47476 0.0
C1034 C 0.58565 0.30912 0.51686 0.0
C1035 C 0.5851 0.33494 0.49829 0.0
C1036 C 0.59457 0.33244 0.46808 0.0
C1037 C 0.60359 0.3046 0.4564 0.0
C1038 C 0.57199 0.41893 0.50713 0.0
C1039 C 0.54252 0.41934 0.51878 0.0
C1040 C 0.58682 0.39145 0.50237 0.0
C1041 C 0.57234 0.36395 0.50916 0.0
C1042 C 0.54363 0.36454 0.52277 0.0
C1043 C 0.52871 0.39203 0.52721 0.0
loop_
_geom_bond_atom_site_label_1
_geom_bond_atom_site_label_2
_geom_bond_distance
_geom_bond_site_symmetry_2
_ccdc_geom_bond_type
C0 C1 1.391 . S
C0 C4 1.391 . S
C0 H42 0.948 . S
C1 C0 1.391 . S
C1 C2 1.391 . S
C2 C1 1.391 . S
C2 H58 0.947 . S
C2 C59 1.392 . S
C3 C4 1.391 . S
C3 C7 1.397 . S
C3 C59 1.419 . S
C4 C0 1.391 . S
C4 C3 1.391 . S
C4 C5 1.399 . S
C5 C4 1.399 . S
C5 C8 1.396 . S
C5 C17 1.453 . S
C5 C18 1.684 . S
H6 C30 0.948 . S
C7 C3 1.397 . S
C7 C8 1.394 . S
C7 C26 1.723 . S
C8 C5 1.396 . S
C8 C7 1.394 . S
C8 C38 1.723 . S
H9 C32 0.947 . S
H10 C33 0.948 . S
H11 C39 0.982 . S
H12 C40 0.979 . S
H13 C40 0.980 . S
H14 C40 0.983 . S
H15 C39 0.979 . S
H16 C39 0.977 . S
C17 C5 1.453 . S
C17 H46 0.982 . S
C17 H47 0.979 . S
C17 H48 0.977 . S
C18 C5 1.684 . S
C18 H43 0.979 . S
C18 H44 0.980 . S
C18 H45 0.983 . S
C19 C20 1.391 . S
C19 C24 1.391 . S
C19 H49 0.948 . S
C20 C19 1.391 . S
C20 C21 1.391 . S
C21 C20 1.391 . S
C21 C22 1.392 . S
C21 H50 0.947 . S
C22 C21 1.392 . S
C22 C23 1.419 . S
C22 H51 0.948 . S
C23 C22 1.419 . S
C23 C24 1.391 . S
C23 C27 1.397 . S
C24 C19 1.391 . S
C24 C23 1.391 . S
C24 C25 1.399 . S
C25 C24 1.399 . S
C25 C26 1.396 . S
C25 C28 1.453 . S
C25 C29 1.684 . S
C26 C7 1.723 . S
C26 C25 1.396 . S
C26 C27 1.394 . S
C27 C23 1.397 . S
C27 C26 1.394 . S
C27 C37 1.723 . S
C28 C25 1.453 . S
C28 H52 0.982 . S
C28 H53 0.979 . S
C28 H54 0.977 . S
C29 C25 1.684 . S
C29 H55 0.979 . S
C29 H56 0.980 . S
C29 H57 0.983 . S
C30 H6 0.948 . S
C30 C31 1.391 . S
C30 C35 1.391 . S
C31 C30 1.391 . S
C31 C32 1.391 . S
C32 H9 0.947 . S
C32 C31 1.391 . S
C32 C33 1.392 . S
C33 H10 0.948 . S
C33 C32 1.392 . S
C33 C34 1.419 . S
C34 C33 1.419 . S
C34 C35 1.391 . S
C34 C38 1.397 . S
C35 C30 1.391 . S
C35 C34 1.391 . S
C35 C36 1.399 . S
C36 C35 1.399 . S
C36 C37 1.396 . S
C36 C39 1.453 . S
C36 C40 1.684 . S
C37 C27 1.723 . S
C37 C36 1.396 . S
C37 C38 1.394 . S
C38 C8 1.723 . S
C38 C34 1.397 . S
C38 C37 1.394 . S
C39 H11 0.982 . S
C39 H15 0.979 . S
C39 H16 0.977 . S
C39 C36 1.453 . S
C40 H12 0.979 . S
C40 H13 0.980 . S
C40 H14 0.983 . S
C40 C36 1.684 . S
H41 C59 0.948 . S
H42 C0 0.948 . S
H43 C18 0.979 . S
H44 C18 0.980 . S
H45 C18 0.983 . S
H46 C17 0.982 . S
H47 C17 0.979 . S
H48 C17 0.977 . S
H49 C19 0.948 . S
H50 C21 0.947 . S
H51 C22 0.948 . S
H52 C28 0.982 . S
H53 C28 0.979 . S
H54 C28 0.977 . S
H55 C29 0.979 . S
H56 C29 0.980 . S
H57 C29 0.983 . S
H58 C2 0.947 . S
C59 C2 1.392 . S
C59 C3 1.419 . S
C59 H41 0.948 . S
C60 C61 1.391 . S
C60 C64 1.391 . S
C60 H102 0.948 . S
C61 C60 1.391 . S
C61 C62 1.391 . S
C62 C61 1.391 . S
C62 H118 0.947 . S
C62 C119 1.392 . S
C63 C64 1.391 . S
C63 C67 1.397 . S
C63 C119 1.419 . S
C64 C60 1.391 . S
C64 C63 1.391 . S
C64 C65 1.399 . S
C65 C64 1.399 . S
C65 C68 1.396 . S
C65 C77 1.453 . S
C65 C78 1.684 . S
H66 C90 0.948 . S
C67 C63 1.397 . S
C67 C68 1.394 . S
C67 C86 1.723 . S
C68 C65 1.396 . S
C68 C67 1.394 . S
C68 C98 1.723 . S
H69 C92 0.947 . S
H70 C93 0.948 . S
H71 C99 0.982 . S
H72 C100 0.979 . S
H73 C100 0.980 . S
H74 C100 0.983 . S
H75 C99 0.979 . S
H76 C99 0.977 . S
C77 C65 1.453 . S
C77 H106 0.982 . S
C77 H107 0.979 . S
C77 H108 0.977 . S
C78 C65 1.684 . S
C78 H103 0.979 . S
C78 H104 0.980 . S
C78 H105 0.983 . S
C79 C80 1.391 . S
C79 C84 1.391 . S
C79 H109 0.948 . S
C80 C79 1.391 . S
C80 C81 1.391 . S
C81 C80 1.391 . S
C81 C82 1.392 . S
C81 H110 0.947 . S
C82 C81 1.392 . S
C82 C83 1.419 . S
C82 H111 0.948 . S
C83 C82 1.419 . S
C83 C84 1.391 . S
C83 C87 1.397 . S
C84 C79 1.391 . S
C84 C83 1.391 . S
C84 C85 1.399 . S
C85 C84 1.399 . S
C85 C86 1.396 . S
C85 C88 1.453 . S
C85 C89 1.684 . S
C86 C67 1.723 . S
C86 C85 1.396 . S
C86 C87 1.394 . S
C87 C83 1.397 . S
C87 C86 1.394 . S
C87 C97 1.723 . S
C88 C85 1.453 . S
C88 H112 0.982 . S
C88 H113 0.979 . S
C88 H114 0.977 . S
C89 C85 1.684 . S
C89 H115 0.979 . S
C89 H116 0.980 . S
C89 H117 0.983 . S
C90 H66 0.948 . S
C90 C91 1.391 . S
C90 C95 1.391 . S
C91 C90 1.391 . S
C91 C92 1.391 . S
C92 H69 0.947 . S
C92 C91 1.391 . S
C92 C93 1.392 . S
C93 H70 0.948 . S
C93 C92 1.392 . S
C93 C94 1.419 . S
C94 C93 1.419 . S
C94 C95 1.391 . S
C94 C98 1.397 . S
C95 C90 1.391 . S
C95 C94 1.391 . S
C95 C96 1.399 . S
C96 C95 1.399 . S
C96 C97 1.396 . S
C96 C99 1.453 . S
C96 C100 1.684 . S
C97 C87 1.723 . S
C97 C96 1.396 . S
C97 C98 1.394 . S
C98 C68 1.723 . S
C98 C94 1.397 . S
C98 C97 1.394 . S
C99 H71 0.982 . S
C99 H75 0.979 . S
C99 H76 0.977 . S
C99 C96 1.453 . S
C100 H72 0.979 . S
C100 H73 0.980 . S
C100 H74 0.983 . S
C100 C96 1.684 . S
H101 C119 0.948 . S
H102 C60 0.948 . S
H103 C78 0.979 . S
H104 C78 0.980 . S
H105 C78 0.983 . S
H106 C77 0.982 . S
H107 C77 0.979 . S
H108 C77 0.977 . S
H109 C79 0.948 . S
H110 C81 0.947 . S
H111 C82 0.948 . S
H112 C88 0.982 . S
H113 C88 0.979 . S
H114 C88 0.977 . S
H115 C89 0.979 . S
H116 C89 0.980 . S
H117 C89 0.983 . S
H118 C62 0.947 . S
C119 C62 1.392 . S
C119 C63 1.419 . S
C119 H101 0.948 . S
C120 C121 1.391 . S
C120 C124 1.391 . S
C120 H162 0.948 . S
C121 C120 1.391 . S
C121 C122 1.391 . S
C122 C121 1.391 . S
C122 H178 0.947 . S
C122 C179 1.392 . S
C123 C124 1.391 . S
C123 C127 1.397 . S
C123 C179 1.419 . S
C124 C120 1.391 . S
C124 C123 1.391 . S
C124 C125 1.399 . S
C125 C124 1.399 . S
C125 C128 1.396 . S
C125 C137 1.453 . S
C125 C138 1.684 . S
H126 C150 0.948 . S
C127 C123 1.397 . S
C127 C128 1.394 . S
C127 C146 1.723 . S
C128 C125 1.396 . S
C128 C127 1.394 . S
C128 C158 1.723 . S
H129 C152 0.947 . S
H130 C153 0.948 . S
H131 C159 0.982 . S
H132 C160 0.979 . S
H133 C160 0.980 . S
H134 C160 0.983 . S
H135 C159 0.979 . S
H136 C159 0.977 . S
C137 C125 1.453 . S
C137 H166 0.982 . S
C137 H167 0.979 . S
C137 H168 0.977 . S
C138 C125 1.684 . S
C138 H163 0.979 . S
C138 H164 0.980 . S
C138 H165 0.983 . S
C139 C140 1.391 . S
C139 C144 1.391 . S
C139 H169 0.948 . S
C140 C139 1.391 . S
C140 C141 1.391 . S
C141 C140 1.391 . S
C141 C142 1.392 . S
C141 H170 0.947 . S
C142 C141 1.392 . S
C142 C143 1.419 . S
C142 H171 0.948 . S
C143 C142 1.419 . S
C143 C144 1.391 . S
C143 C147 1.397 . S
C144 C139 1.391 . S
C144 C143 1.391 . S
C144 C145 1.399 . S
C145 C144 1.399 . S
C145 C146 1.396 . S
C145 C148 1.453 . S
C145 C149 1.684 . S
C146 C127 1.723 . S
C146 C145 1.396 . S
C146 C147 1.394 . S
C147 C143 1.397 . S
C147 C146 1.394 . S
C147 C157 1.723 . S
C148 C145 1.453 . S
C148 H172 0.982 . S
C148 H173 0.979 . S
C148 H174 0.977 . S
C149 C145 1.684 . S
C149 H175 0.979 . S
C149 H176 0.980 . S
C149 H177 0.983 . S
C150 H126 0.948 . S
C150 C151 1.391 . S
C150 C155 1.391 . S
C151 C150 1.391 . S
C151 C152 1.391 . S
C152 H129 0.947 . S
C152 C151 1.391 . S
C152 C153 1.392 . S
C153 H130 0.948 . S
C153 C152 1.392 . S
C153 C154 1.419 . S
C154 C153 1.419 . S
C154 C155 1.391 . S
C154 C158 1.397 . S
C155 C150 1.391 . S
C155 C154 1.391 . S
C155 C156 1.399 . S
C156 C155 1.399 . S
C156 C157 1.396 . S
C156 C159 1.453 . S
C156 C160 1.684 . S
C157 C147 1.723 . S
C157 C156 1.396 . S
C157 C158 1.394 . S
C158 C128 1.723 . S
C158 C154 1.397 . S
C158 C157 1.394 . S
C159 H131 0.982 . S
C159 H135 0.979 . S
C159 H136 0.977 . S
C159 C156 1.453 . S
C160 H132 0.979 . S
C160 H133 0.980 . S
C160 H134 0.983 . S
C160 C156 1.684 . S
H161 C179 0.948 . S
H162 C120 0.948 . S
H163 C138 0.979 . S
H164 C138 0.980 . S
H165 C138 0.983 . S
H166 C137 0.982 . S
H167 C137 0.979 . S
H168 C137 0.977 . S
H169 C139 0.948 . S
H170 C141 0.947 . S
H171 C142 0.948 . S
H172 C148 0.982 . S
H173 C148 0.979 . S
H174 C148 0.977 . S
H175 C149 0.979 . S
H176 C149 0.980 . S
H177 C149 0.983 . S
H178 C122 0.947 . S
C179 C122 1.392 . S
C179 C123 1.419 . S
C179 H161 0.948 . S
C180 C181 1.391 . S
C180 C184 1.391 . S
C180 H222 0.948 . S
C181 C180 1.391 . S
C181 C182 1.391 . S
C182 C181 1.391 . S
C182 H238 0.947 . S
C182 C239 1.392 . S
C183 C184 1.391 . S
C183 C187 1.397 . S
C183 C239 1.419 . S
C184 C180 1.391 . S
C184 C183 1.391 . S
C184 C185 1.399 . S
C185 C184 1.399 . S
C185 C188 1.396 . S
C185 C197 1.453 . S
C185 C198 1.684 . S
H186 C210 0.948 . S
C187 C183 1.397 . S
C187 C188 1.394 . S
C187 C206 1.723 . S
C188 C185 1.396 . S
C188 C187 1.394 . S
C188 C218 1.723 . S
H189 C212 0.947 . S
H190 C213 0.948 . S
H191 C219 0.982 . S
H192 C220 0.979 . S
H193 C220 0.980 . S
H194 C220 0.983 . S
H195 C219 0.979 . S
H196 C219 0.977 . S
C197 C185 1.453 . S
C197 H226 0.982 . S
C197 H227 0.979 . S
C197 H228 0.977 . S
C198 C185 1.684 . S
C198 H223 0.979 . S
C198 H224 0.980 . S
C198 H225 0.983 . S
C199 C200 1.391 . S
C199 C204 1.391 . S
C199 H229 0.948 . S
C200 C199 1.391 . S
C200 C201 1.391 . S
C201 C200 1.391 . S
C201 C202 1.392 . S
C201 H230 0.947 . S
C202 C201 1.392 . S
C202 C203 1.419 . S
C202 H231 0.948 . S
C203 C202 1.419 . S
C203 C204 1.391 . S
C203 C207 1.397 . S
C204 C199 1.391 . S
C204 C203 1.391 . S
C204 C205 1.399 . S
C205 C204 1.399 . S
C205 C206 1.396 . S
C205 C208 1.453 . S
C205 C209 1.684 . S
C206 C187 1.723 . S
C206 C205 1.396 . S
C206 C207 1.394 . S
C207 C203 1.397 . S
C207 C206 1.394 . S
C207 C217 1.723 . S
C208 C205 1.453 . S
C208 H232 0.982 . S
C208 H233 0.979 . S
C208 H234 0.977 . S
C209 C205 1.684 . S
C209 H235 0.979 . S
C209 H236 0.980 . S
C209 H237 0.983 . S
C210 H186 0.948 . S
C210 C211 1.391 . S
C210 C215 1.391 . S
C211 C210 1.391 . S
C211 C212 1.391 . S
C212 H189 0.947 . S
C212 C211 1.391 . S
C212 C213 1.392 . S
C213 H190 0.948 . S
C213 C212 1.392 . S
C213 C214 1.419 . S
C214 C213 1.419 . S
C214 C215 1.391 . S
C214 C218 1.397 . S
C215 C210 1.391 . S
C215 C214 1.391 . S
C215 C216 1.399 . S
C216 C215 1.399 . S
C216 C217 1.396 . S
C216 C219 1.453 . S
C216 C220 1.684 . S
C217 C207 1.723 . S
C217 C216 1.396 . S
C217 C218 1.394 . S
C218 C188 1.723 . S
C218 C214 1.397 . S
C218 C217 1.394 . S
C219 H191 0.982 . S
C219 H195 0.979 . S
C219 H196 0.977 . S
C219 C216 1.453 . S
C220 H192 0.979 . S
C220 H193 0.980 . S
C220 H194 0.983 . S
C220 C216 1.684 . S
H221 C239 0.948 . S
H222 C180 0.948 . S
H223 C198 0.979 . S
H224 C198 0.980 . S
H225 C198 0.983 . S
H226 C197 0.982 . S
H227 C197 0.979 . S
H228 C197 0.977 . S
H229 C199 0.948 . S
H230 C201 0.947 . S
H231 C202 0.948 . S
H232 C208 0.982 . S
H233 C208 0.979 . S
H234 C208 0.977 . S
H235 C209 0.979 . S
H236 C209 0.980 . S
H237 C209 0.983 . S
H238 C182 0.947 . S
C239 C182 1.392 . S
C239 C183 1.419 . S
C239 H221 0.948 . S
C240 C241 1.391 . S
C240 C244 1.391 . S
C240 H282 0.948 1_556 S
C241 C240 1.391 . S
C241 C242 1.391 1_655 S
C242 C241 1.391 1_455 S
C242 H298 0.947 . S
C242 C299 1.392 1_455 S
C243 C244 1.391 . S
C243 C247 1.397 . S
C243 C299 1.419 . S
C244 C240 1.391 . S
C244 C243 1.391 . S
C244 C245 1.399 . S
C245 C244 1.399 . S
C245 C248 1.396 . S
C245 C257 1.453 . S
C245 C258 1.684 1_556 S
H246 C270 0.948 1_545 S
C247 C243 1.397 . S
C247 C248 1.394 . S
C247 C266 1.723 . S
C248 C245 1.396 . S
C248 C247 1.394 . S
C248 C278 1.723 . S
H249 C272 0.947 . S
H250 C273 0.948 1_554 S
H251 C279 0.982 . S
H252 C280 0.979 . S
H253 C280 0.980 . S
H254 C280 0.983 . S
H255 C279 0.960 1_545 S
H256 C279 0.977 . S
C257 C245 1.453 . S
C257 H286 0.982 . S
C257 H287 0.979 1_556 S
C257 H288 0.977 . S
C258 C245 1.684 1_554 S
C258 H283 0.979 . S
C258 H284 0.980 . S
C258 H285 0.983 . S
C259 C260 1.391 . S
C259 C264 1.391 . S
C259 H289 0.948 1_655 S
C260 C259 1.391 . S
C260 C261 1.391 1_565 S
C261 C260 1.391 1_545 S
C261 C262 1.392 1_545 S
C261 H290 0.947 . S
C262 C261 1.392 1_565 S
C262 C263 1.419 . S
C262 H291 0.948 1_565 S
C263 C262 1.419 . S
C263 C264 1.391 . S
C263 C267 1.397 . S
C264 C259 1.391 . S
C264 C263 1.391 . S
C264 C265 1.399 . S
C265 C264 1.399 . S
C265 C266 1.396 . S
C265 C268 1.453 . S
C265 C269 1.684 1_655 S
C266 C247 1.723 . S
C266 C265 1.396 . S
C266 C267 1.394 . S
C267 C263 1.397 . S
C267 C266 1.394 . S
C267 C277 1.723 . S
C268 C265 1.453 . S
C268 H292 0.982 . S
C268 H293 0.979 . S
C268 H294 0.977 . S
C269 C265 1.684 1_455 S
C269 H295 0.979 . S
C269 H296 0.980 . S
C269 H297 0.983 . S
C270 H246 0.948 1_565 S
C270 C271 1.391 . S
C270 C275 1.391 . S
C271 C270 1.391 . S
C271 C272 1.391 1_556 S
C272 H249 0.947 . S
C272 C271 1.391 1_554 S
C272 C273 1.392 1_554 S
C273 H250 0.948 1_556 S
C273 C272 1.392 1_556 S
C273 C274 1.419 . S
C274 C273 1.419 . S
C274 C275 1.391 . S
C274 C278 1.397 . S
C275 C270 1.391 . S
C275 C274 1.391 . S
C275 C276 1.399 . S
C276 C275 1.399 . S
C276 C277 1.396 . S
C276 C279 1.453 . S
C276 C280 1.684 1_565 S
C277 C267 1.723 . S
C277 C276 1.396 . S
C277 C278 1.394 . S
C278 C248 1.723 . S
C278 C274 1.397 . S
C278 C277 1.394 . S
C279 H251 0.982 . S
C279 H255 0.960 1_565 S
C279 H256 0.977 . S
C279 C276 1.453 . S
C280 H252 0.979 . S
C280 H253 0.980 . S
C280 H254 0.983 . S
C280 C276 1.684 1_545 S
H281 C299 0.948 1_455 S
H282 C240 0.948 1_554 S
H283 C258 0.979 . S
H284 C258 0.980 . S
H285 C258 0.983 . S
H286 C257 0.982 . S
H287 C257 0.979 1_554 S
H288 C257 0.977 . S
H289 C259 0.948 1_455 S
H290 C261 0.947 . S
H291 C262 0.948 1_545 S
H292 C268 0.982 . S
H293 C268 0.979 . S
H294 C268 0.977 . S
H295 C269 0.979 . S
H296 C269 0.980 . S
H297 C269 0.983 . S
H298 C242 0.947 . S
C299 C242 1.392 1_655 S
C299 C243 1.419 . S
C299 H281 0.948 1_655 S
C300 C301 1.391 . S
C300 C304 1.391 . S
C300 H342 0.948 . S
C301 C300 1.391 . S
C301 C302 1.391 . S
C302 C301 1.391 . S
C302 H358 0.947 . S
C302 C359 1.392 . S
C303 C304 1.391 . S
C303 C307 1.397 . S
C303 C359 1.419 . S
C304 C300 1.391 . S
C304 C303 1.391 . S
C304 C305 1.399 . S
C305 C304 1.399 . S
C305 C308 1.396 . S
C305 C317 1.453 . S
C305 C318 1.684 . S
H306 C330 0.948 . S
C307 C303 1.397 . S
C307 C308 1.394 . S
C307 C326 1.723 . S
C308 C305 1.396 . S
C308 C307 1.394 . S
C308 C338 1.723 . S
H309 C332 0.947 . S
H310 C333 0.948 . S
H311 C339 0.982 . S
H312 C340 0.979 . S
H313 C340 0.980 . S
H314 C340 0.983 . S
H315 C339 0.979 . S
H316 C339 0.977 . S
C317 C305 1.453 . S
C317 H346 0.982 . S
C317 H347 0.979 . S
C317 H348 0.977 . S
C318 C305 1.684 . S
C318 H343 0.979 . S
C318 H344 0.980 . S
C318 H345 0.983 . S
C319 C320 1.391 . S
C319 C324 1.391 . S
C319 H349 0.948 . S
C320 C319 1.391 . S
C320 C321 1.391 . S
C321 C320 1.391 . S
C321 C322 1.392 . S
C321 H350 0.947 . S
C322 C321 1.392 . S
C322 C323 1.419 . S
C322 H351 0.948 . S
C323 C322 1.419 . S
C323 C324 1.391 . S
C323 C327 1.397 . S
C324 C319 1.391 . S
C324 C323 1.391 . S
C324 C325 1.399 . S
C325 C324 1.399 . S
C325 C326 1.396 . S
C325 C328 1.453 . S
C325 C329 1.684 . S
C326 C307 1.723 . S
C326 C325 1.396 . S
C326 C327 1.394 . S
C327 C323 1.397 . S
C327 C326 1.394 . S
C327 C337 1.723 . S
C328 C325 1.453 . S
C328 H352 0.982 . S
C328 H353 0.979 . S
C328 H354 0.977 . S
C329 C325 1.684 . S
C329 H355 0.979 . S
C329 H356 0.980 . S
C329 H357 0.983 . S
C330 H306 0.948 . S
C330 C331 1.391 . S
C330 C335 1.391 . S
C331 C330 1.391 . S
C331 C332 1.391 . S
C332 H309 0.947 . S
C332 C331 1.391 . S
C332 C333 1.392 . S
C333 H310 0.948 . S
C333 C332 1.392 . S
C333 C334 1.419 . S
C334 C333 1.419 . S
C334 C335 1.391 . S
C334 C338 1.397 . S
C335 C330 1.391 . S
C335 C334 1.391 . S
C335 C336 1.399 . S
C336 C335 1.399 . S
C336 C337 1.396 . S
C336 C339 1.453 . S
C336 C340 1.684 . S
C337 C327 1.723 . S
C337 C336 1.396 . S
C337 C338 1.394 . S
C338 C308 1.723 . S
C338 C334 1.397 . S
C338 C337 1.394 . S
C339 H311 0.982 . S
C339 H315 0.979 . S
C339 H316 0.977 . S
C339 C336 1.453 . S
C340 H312 0.979 . S
C340 H313 0.980 . S
C340 H314 0.983 . S
C340 C336 1.684 . S
H341 C359 0.948 . S
H342 C300 0.948 . S
H343 C318 0.979 . S
H344 C318 0.980 . S
H345 C318 0.983 . S
H346 C317 0.982 . S
H347 C317 0.979 . S
H348 C317 0.977 . S
H349 C319 0.948 . S
H350 C321 0.947 . S
H351 C322 0.948 . S
H352 C328 0.982 . S
H353 C328 0.979 . S
H354 C328 0.977 . S
H355 C329 0.979 . S
H356 C329 0.980 . S
H357 C329 0.983 . S
H358 C302 0.947 . S
C359 C302 1.392 . S
C359 C303 1.419 . S
C359 H341 0.948 . S
C360 C361 1.391 . S
C360 C364 1.391 . S
C360 H402 0.948 . S
C361 C360 1.391 . S
C361 C362 1.391 . S
C362 C361 1.391 . S
C362 H418 0.947 . S
C362 C419 1.392 . S
C363 C364 1.391 . S
C363 C367 1.397 . S
C363 C419 1.419 . S
C364 C360 1.391 . S
C364 C363 1.391 . S
C364 C365 1.399 . S
C365 C364 1.399 . S
C365 C368 1.396 . S
C365 C377 1.453 . S
C365 C378 1.684 . S
H366 C390 0.948 . S
C367 C363 1.397 . S
C367 C368 1.394 . S
C367 C386 1.723 . S
C368 C365 1.396 . S
C368 C367 1.394 . S
C368 C398 1.723 . S
H369 C392 0.947 . S
H370 C393 0.948 . S
H371 C399 0.982 . S
H372 C400 0.979 . S
H373 C400 0.980 . S
H374 C400 0.983 . S
H375 C399 0.979 . S
H376 C399 0.977 . S
C377 C365 1.453 . S
C377 H406 0.982 . S
C377 H407 0.979 . S
C377 H408 0.977 . S
C378 C365 1.684 . S
C378 H403 0.979 . S
C378 H404 0.980 . S
C378 H405 0.983 . S
C379 C380 1.391 . S
C379 C384 1.391 . S
C379 H409 0.948 . S
C380 C379 1.391 . S
C380 C381 1.391 . S
C381 C380 1.391 . S
C381 C382 1.392 . S
C381 H410 0.947 . S
C382 C381 1.392 . S
C382 C383 1.419 . S
C382 H411 0.948 . S
C383 C382 1.419 . S
C383 C384 1.391 . S
C383 C387 1.397 . S
C384 C379 1.391 . S
C384 C383 1.391 . S
C384 C385 1.399 . S
C385 C384 1.399 . S
C385 C386 1.396 . S
C385 C388 1.453 . S
C385 C389 1.684 . S
C386 C367 1.723 . S
C386 C385 1.396 . S
C386 C387 1.394 . S
C387 C383 1.397 . S
C387 C386 1.394 . S
C387 C397 1.723 . S
C388 C385 1.453 . S
C388 H412 0.982 . S
C388 H413 0.979 . S
C388 H414 0.977 . S
C389 C385 1.684 . S
C389 H415 0.979 . S
C389 H416 0.980 . S
C389 H417 0.983 . S
C390 H366 0.948 . S
C390 C391 1.391 . S
C390 C395 1.391 . S
C391 C390 1.391 . S
C391 C392 1.391 . S
C392 H369 0.947 . S
C392 C391 1.391 . S
C392 C393 1.392 . S
C393 H370 0.948 . S
C393 C392 1.392 . S
C393 C394 1.419 . S
C394 C393 1.419 . S
C394 C395 1.391 . S
C394 C398 1.397 . S
C395 C390 1.391 . S
C395 C394 1.391 . S
C395 C396 1.399 . S
C396 C395 1.399 . S
C396 C397 1.396 . S
C396 C399 1.453 . S
C396 C400 1.684 . S
C397 C387 1.723 . S
C397 C396 1.396 . S
C397 C398 1.394 . S
C398 C368 1.723 . S
C398 C394 1.397 . S
C398 C397 1.394 . S
C399 H371 0.982 . S
C399 H375 0.979 . S
C399 H376 0.977 . S
C399 C396 1.453 . S
C400 H372 0.979 . S
C400 H373 0.980 . S
C400 H374 0.983 . S
C400 C396 1.684 . S
H401 C419 0.948 . S
H402 C360 0.948 . S
H403 C378 0.979 . S
H404 C378 0.980 . S
H405 C378 0.983 . S
H406 C377 0.982 . S
H407 C377 0.979 . S
H408 C377 0.977 . S
H409 C379 0.948 . S
H410 C381 0.947 . S
H411 C382 0.948 . S
H412 C388 0.982 . S
H413 C388 0.979 . S
H414 C388 0.977 . S
H415 C389 0.979 . S
H416 C389 0.980 . S
H417 C389 0.983 . S
H418 C362 0.947 . S
C419 C362 1.392 . S
C419 C363 1.419 . S
C419 H401 0.948 . S
C420 C421 1.391 . S
C420 C424 1.391 . S
C420 H462 0.948 . S
C421 C420 1.391 . S
C421 C422 1.391 . S
C422 C421 1.391 . S
C422 H478 0.947 . S
C422 C479 1.392 . S
C423 C424 1.391 . S
C423 C427 1.397 . S
C423 C479 1.419 . S
C424 C420 1.391 . S
C424 C423 1.391 . S
C424 C425 1.399 . S
C425 C424 1.399 . S
C425 C428 1.396 . S
C425 C437 1.453 . S
C425 C438 1.684 . S
H426 C450 0.948 . S
C427 C423 1.397 . S
C427 C428 1.394 . S
C427 C446 1.723 . S
C428 C425 1.396 . S
C428 C427 1.394 . S
C428 C458 1.723 . S
H429 C452 0.947 . S
H430 C453 0.948 . S
H431 C459 0.982 . S
H432 C460 0.979 . S
H433 C460 0.980 . S
H434 C460 0.983 . S
H435 C459 0.979 . S
H436 C459 0.977 . S
C437 C425 1.453 . S
C437 H466 0.982 . S
C437 H467 0.979 . S
C437 H468 0.977 . S
C438 C425 1.684 . S
C438 H463 0.979 . S
C438 H464 0.980 . S
C438 H465 0.983 . S
C439 C440 1.391 . S
C439 C444 1.391 . S
C439 H469 0.948 . S
C440 C439 1.391 . S
C440 C441 1.391 . S
C441 C440 1.391 . S
C441 C442 1.392 . S
C441 H470 0.947 . S
C442 C441 1.392 . S
C442 C443 1.419 . S
C442 H471 0.948 . S
C443 C442 1.419 . S
C443 C444 1.391 . S
C443 C447 1.397 . S
C444 C439 1.391 . S
C444 C443 1.391 . S
C444 C445 1.399 . S
C445 C444 1.399 . S
C445 C446 1.396 . S
C445 C448 1.453 . S
C445 C449 1.684 . S
C446 C427 1.723 . S
C446 C445 1.396 . S
C446 C447 1.394 . S
C447 C443 1.397 . S
C447 C446 1.394 . S
C447 C457 1.723 . S
C448 C445 1.453 . S
C448 H472 0.982 . S
C448 H473 0.979 . S
C448 H474 0.977 . S
C449 C445 1.684 . S
C449 H475 0.979 . S
C449 H476 0.980 . S
C449 H477 0.983 . S
C450 H426 0.948 . S
C450 C451 1.391 . S
C450 C455 1.391 . S
C451 C450 1.391 . S
C451 C452 1.391 . S
C452 H429 0.947 . S
C452 C451 1.391 . S
C452 C453 1.392 . S
C453 H430 0.948 . S
C453 C452 1.392 . S
C453 C454 1.419 . S
C454 C453 1.419 . S
C454 C455 1.391 . S
C454 C458 1.397 . S
C455 C450 1.391 . S
C455 C454 1.391 . S
C455 C456 1.399 . S
C456 C455 1.399 . S
C456 C457 1.396 . S
C456 C459 1.453 . S
C456 C460 1.684 . S
C457 C447 1.723 . S
C457 C456 1.396 . S
C457 C458 1.394 . S
C458 C428 1.723 . S
C458 C454 1.397 . S
C458 C457 1.394 . S
C459 H431 0.982 . S
C459 H435 0.979 . S
C459 H436 0.977 . S
C459 C456 1.453 . S
C460 H432 0.979 . S
C460 H433 0.980 . S
C460 H434 0.983 . S
C460 C456 1.684 . S
H461 C479 0.948 . S
H462 C420 0.948 . S
H463 C438 0.979 . S
H464 C438 0.980 . S
H465 C438 0.983 . S
H466 C437 0.982 . S
H467 C437 0.979 . S
H468 C437 0.977 . S
H469 C439 0.948 . S
H470 C441 0.947 . S
H471 C442 0.948 . S
H472 C448 0.982 . S
H473 C448 0.979 . S
H474 C448 0.977 . S
H475 C449 0.979 . S
H476 C449 0.980 . S
H477 C449 0.983 . S
H478 C422 0.947 . S
C479 C422 1.392 . S
C479 C423 1.419 . S
C479 H461 0.948 . S
Zn480 O486 1.920 . S
Zn480 O492 1.898 . S
Zn480 O495 1.905 . S
Zn481 O489 1.905 1_565 S
Zn481 O490 1.898 . S
Zn481 O498 1.920 . S
Zn482 O485 2.080 1_455 S
Zn482 O488 2.114 . S
Zn482 O491 2.120 1_445 S
Zn482 O493 2.120 . S
Zn482 O494 2.114 1_455 S
Zn482 O497 2.080 . S
C483 O488 1.166 . S
C483 O489 1.182 . S
C484 O490 1.167 1_655 S
C484 O491 1.299 . S
O485 Zn482 2.080 1_655 S
O485 C499 1.305 . S
O486 Zn480 1.920 . S
O486 C499 1.234 . S
C487 O492 1.167 1_455 S
C487 O493 1.299 . S
O488 Zn482 2.114 . S
O488 C483 1.166 . S
O489 Zn481 1.905 1_545 S
O489 C483 1.182 . S
O490 Zn481 1.898 . S
O490 C484 1.167 1_455 S
O491 Zn482 2.120 1_665 S
O491 C484 1.299 . S
O492 Zn480 1.898 . S
O492 C487 1.167 1_655 S
O493 Zn482 2.120 . S
O493 C487 1.299 . S
O494 Zn482 2.114 1_655 S
O494 C496 1.166 . S
O495 Zn480 1.905 . S
O495 C496 1.182 . S
C496 O494 1.166 . S
C496 O495 1.182 . S
O497 Zn482 2.080 . S
O497 C500 1.305 1_545 S
O498 Zn481 1.920 . S
O498 C500 1.234 . S
C499 O485 1.305 . S
C499 O486 1.234 . S
C500 O497 1.305 1_565 S
C500 O498 1.234 . S
Zn501 O507 1.920 1_556 S
Zn501 O513 1.898 . S
Zn501 O516 1.905 . S
Zn502 O510 1.905 . S
Zn502 O511 1.898 . S
Zn502 O519 1.920 . S
Zn503 O506 2.080 . S
Zn503 O509 2.114 1_545 S
Zn503 O512 2.120 1_545 S
Zn503 O514 2.120 . S
Zn503 O515 2.114 1_544 S
Zn503 O518 2.080 . S
C504 O509 1.166 . S
C504 O510 1.182 . S
C505 O511 1.167 . S
C505 O512 1.299 . S
O506 Zn503 2.080 . S
O506 C520 1.305 . S
O507 Zn501 1.920 1_554 S
O507 C520 1.234 . S
C508 O513 1.167 . S
C508 O514 1.299 1_556 S
O509 Zn503 2.114 1_565 S
O509 C504 1.166 . S
O510 Zn502 1.905 . S
O510 C504 1.182 . S
O511 Zn502 1.898 . S
O511 C505 1.167 . S
O512 Zn503 2.120 1_565 S
O512 C505 1.299 . S
O513 Zn501 1.898 . S
O513 C508 1.167 . S
O514 Zn503 2.120 . S
O514 C508 1.299 1_554 S
O515 Zn503 2.114 1_566 S
O515 C517 1.166 . S
O516 Zn501 1.905 . S
O516 C517 1.182 1_545 S
C517 O515 1.166 . S
C517 O516 1.182 1_565 S
O518 Zn503 2.080 . S
O518 C521 1.305 . S
O519 Zn502 1.920 . S
O519 C521 1.234 1_565 S
C520 O506 1.305 . S
C520 O507 1.234 . S
C521 O518 1.305 . S
C521 O519 1.234 1_545 S
Zn522 O528 1.920 . S
Zn522 O534 1.898 . S
Zn522 O537 1.905 . S
Zn523 O531 1.905 . S
Zn523 O532 1.898 . S
Zn523 O540 1.920 . S
Zn524 O527 2.080 . S
Zn524 O530 2.114 . S
Zn524 O533 2.120 . S
Zn524 O535 2.120 . S
Zn524 O536 2.114 . S
Zn524 O539 2.080 . S
C525 O530 1.166 . S
C525 O531 1.182 . S
C526 O532 1.167 . S
C526 O533 1.299 . S
O527 Zn524 2.080 . S
O527 C541 1.305 . S
O528 Zn522 1.920 . S
O528 C541 1.234 . S
C529 O534 1.167 . S
C529 O535 1.299 . S
O530 Zn524 2.114 . S
O530 C525 1.166 . S
O531 Zn523 1.905 . S
O531 C525 1.182 . S
O532 Zn523 1.898 . S
O532 C526 1.167 . S
O533 Zn524 2.120 . S
O533 C526 1.299 . S
O534 Zn522 1.898 . S
O534 C529 1.167 . S
O535 Zn524 2.120 . S
O535 C529 1.299 . S
O536 Zn524 2.114 . S
O536 C538 1.166 . S
O537 Zn522 1.905 . S
O537 C538 1.182 . S
C538 O536 1.166 . S
C538 O537 1.182 . S
O539 Zn524 2.080 . S
O539 C542 1.305 . S
O540 Zn523 1.920 . S
O540 C542 1.234 . S
C541 O527 1.305 . S
C541 O528 1.234 . S
C542 O539 1.305 . S
C542 O540 1.234 . S
Zn543 O549 1.920 . S
Zn543 O555 1.898 . S
Zn543 O558 1.905 . S
Zn544 O552 1.905 1_655 S
Zn544 O553 1.898 . S
Zn544 O561 1.920 . S
Zn545 O548 2.080 1_554 S
Zn545 O551 2.114 . S
Zn545 O554 2.120 1_454 S
Zn545 O556 2.120 . S
Zn545 O557 2.114 1_554 S
Zn545 O560 2.080 . S
C546 O551 1.166 . S
C546 O552 1.182 . S
C547 O553 1.167 1_556 S
C547 O554 1.299 . S
O548 Zn545 2.080 1_556 S
O548 C562 1.305 . S
O549 Zn543 1.920 . S
O549 C562 1.234 . S
C550 O555 1.167 1_554 S
C550 O556 1.299 . S
O551 Zn545 2.114 . S
O551 C546 1.166 . S
O552 Zn544 1.905 1_455 S
O552 C546 1.182 . S
O553 Zn544 1.898 . S
O553 C547 1.167 1_554 S
O554 Zn545 2.120 1_656 S
O554 C547 1.299 . S
O555 Zn543 1.898 . S
O555 C550 1.167 1_556 S
O556 Zn545 2.120 . S
O556 C550 1.299 . S
O557 Zn545 2.114 1_556 S
O557 C559 1.166 . S
O558 Zn543 1.905 . S
O558 C559 1.182 . S
C559 O557 1.166 . S
C559 O558 1.182 . S
O560 Zn545 2.080 . S
O560 C563 1.305 1_455 S
O561 Zn544 1.920 . S
O561 C563 1.234 . S
C562 O548 1.305 . S
C562 O549 1.234 . S
C563 O560 1.305 1_655 S
C563 O561 1.234 . S
H564 C572 0.950 . S
H565 C577 0.950 . S
H566 C574 0.950 . S
H567 C576 0.950 . S
H568 C578 0.950 . S
H569 C580 0.950 . S
H570 C582 0.950 . S
H571 C583 0.950 . S
C572 H564 0.950 . S
C572 C573 1.386 . S
C572 C574 1.391 . S
C573 C572 1.386 . S
C573 C577 1.393 . S
C574 H566 0.950 . S
C574 C572 1.391 . S
C574 C575 1.400 . S
C575 C574 1.400 . S
C575 C576 1.398 . S
C575 C581 1.491 . S
C576 H567 0.950 . S
C576 C575 1.398 . S
C576 C577 1.391 . S
C577 H565 0.950 . S
C577 C573 1.393 . S
C577 C576 1.391 . S
C578 H568 0.950 . S
C578 C579 1.386 . S
C578 C580 1.391 . S
C579 C578 1.386 . S
C579 C583 1.393 . S
C580 H569 0.950 . S
C580 C578 1.391 . S
C580 C581 1.400 . S
C581 C575 1.491 . S
C581 C580 1.400 . S
C581 C582 1.398 . S
C582 H570 0.950 . S
C582 C581 1.398 . S
C582 C583 1.391 . S
C583 H571 0.950 . S
C583 C579 1.393 . S
C583 C582 1.391 . S
H584 C592 0.950 . S
H585 C597 0.950 . S
H586 C594 0.950 . S
H587 C596 0.950 . S
H588 C598 0.950 1_545 S
H589 C600 0.950 . S
H590 C602 0.950 . S
H591 C603 0.950 . S
C592 H584 0.950 . S
C592 C593 1.386 . S
C592 C594 1.391 . S
C593 C592 1.386 . S
C593 C597 1.393 . S
C594 H586 0.950 . S
C594 C592 1.391 . S
C594 C595 1.400 . S
C595 C594 1.400 . S
C595 C596 1.398 . S
C595 C601 1.491 . S
C596 H587 0.950 . S
C596 C595 1.398 . S
C596 C597 1.391 . S
C597 H585 0.950 . S
C597 C593 1.393 . S
C597 C596 1.391 . S
C598 H588 0.950 1_565 S
C598 C599 1.386 . S
C598 C600 1.391 . S
C599 C598 1.386 . S
C599 C603 1.393 . S
C600 H589 0.950 . S
C600 C598 1.391 . S
C600 C601 1.400 . S
C601 C595 1.491 . S
C601 C600 1.400 . S
C601 C602 1.398 . S
C602 H590 0.950 . S
C602 C601 1.398 . S
C602 C603 1.391 . S
C603 H591 0.950 . S
C603 C599 1.393 . S
C603 C602 1.391 . S
H604 C612 0.950 . S
H605 C617 0.950 . S
H606 C614 0.950 . S
H607 C616 0.950 . S
H608 C618 0.950 . S
H609 C620 0.950 . S
H610 C622 0.950 . S
H611 C623 0.950 . S
C612 H604 0.950 . S
C612 C613 1.386 . S
C612 C614 1.391 . S
C613 C612 1.386 . S
C613 C617 1.393 . S
C614 H606 0.950 . S
C614 C612 1.391 . S
C614 C615 1.400 . S
C615 C614 1.400 . S
C615 C616 1.398 . S
C615 C621 1.491 . S
C616 H607 0.950 . S
C616 C615 1.398 . S
C616 C617 1.391 . S
C617 H605 0.950 . S
C617 C613 1.393 . S
C617 C616 1.391 . S
C618 H608 0.950 . S
C618 C619 1.386 . S
C618 C620 1.391 . S
C619 C618 1.386 . S
C619 C623 1.393 . S
C620 H609 0.950 . S
C620 C618 1.391 . S
C620 C621 1.400 . S
C621 C615 1.491 . S
C621 C620 1.400 . S
C621 C622 1.398 . S
C622 H610 0.950 . S
C622 C621 1.398 . S
C622 C623 1.391 . S
C623 H611 0.950 . S
C623 C619 1.393 . S
C623 C622 1.391 . S
H624 C632 0.950 . S
H625 C637 0.950 . S
H626 C634 0.950 . S
H627 C636 0.950 . S
H628 C638 0.950 . S
H629 C640 0.950 . S
H630 C642 0.950 . S
H631 C643 0.950 1_455 S
C632 H624 0.950 . S
C632 C633 1.386 . S
C632 C634 1.391 . S
C633 C632 1.386 . S
C633 C637 1.393 . S
C634 H626 0.950 . S
C634 C632 1.391 . S
C634 C635 1.400 . S
C635 C634 1.400 . S
C635 C636 1.398 . S
C635 C641 1.491 . S
C636 H627 0.950 . S
C636 C635 1.398 . S
C636 C637 1.391 . S
C637 H625 0.950 . S
C637 C633 1.393 . S
C637 C636 1.391 . S
C638 H628 0.950 . S
C638 C639 1.386 . S
C638 C640 1.391 . S
C639 C638 1.386 . S
C639 C643 1.393 . S
C640 H629 0.950 . S
C640 C638 1.391 . S
C640 C641 1.400 . S
C641 C635 1.491 . S
C641 C640 1.400 . S
C641 C642 1.398 . S
C642 H630 0.950 . S
C642 C641 1.398 . S
C642 C643 1.391 . S
C643 H631 0.950 1_655 S
C643 C639 1.393 . S
C643 C642 1.391 . S
H644 C652 0.950 . S
H645 C657 0.950 . S
H646 C654 0.950 . S
H647 C656 0.950 . S
H648 C658 0.950 . S
H649 C660 0.950 . S
H650 C662 0.950 . S
H651 C663 0.950 . S
C652 H644 0.950 . S
C652 C653 1.386 . S
C652 C654 1.391 . S
C653 C652 1.386 . S
C653 C657 1.393 . S
C654 H646 0.950 . S
C654 C652 1.391 . S
C654 C655 1.400 . S
C655 C654 1.400 . S
C655 C656 1.398 . S
C655 C661 1.491 . S
C656 H647 0.950 . S
C656 C655 1.398 . S
C656 C657 1.391 . S
C657 H645 0.950 . S
C657 C653 1.393 . S
C657 C656 1.391 . S
C658 H648 0.950 . S
C658 C659 1.386 . S
C658 C660 1.391 . S
C659 C658 1.386 . S
C659 C663 1.393 . S
C660 H649 0.950 . S
C660 C658 1.391 . S
C660 C661 1.400 . S
C661 C655 1.491 . S
C661 C660 1.400 . S
C661 C662 1.398 . S
C662 H650 0.950 . S
C662 C661 1.398 . S
C662 C663 1.391 . S
C663 H651 0.950 . S
C663 C659 1.393 . S
C663 C662 1.391 . S
H664 C672 0.950 . S
H665 C677 0.950 . S
H666 C674 0.950 . S
H667 C676 0.950 . S
H668 C678 0.950 . S
H669 C680 0.950 . S
H670 C682 0.950 . S
H671 C683 0.950 1_545 S
C672 H664 0.950 . S
C672 C673 1.386 . S
C672 C674 1.391 . S
C673 C672 1.386 . S
C673 C677 1.393 . S
C674 H666 0.950 . S
C674 C672 1.391 . S
C674 C675 1.400 . S
C675 C674 1.400 . S
C675 C676 1.398 . S
C675 C681 1.491 . S
C676 H667 0.950 . S
C676 C675 1.398 . S
C676 C677 1.391 . S
C677 H665 0.950 . S
C677 C673 1.393 . S
C677 C676 1.391 . S
C678 H668 0.950 . S
C678 C679 1.386 . S
C678 C680 1.391 . S
C679 C678 1.386 . S
C679 C683 1.393 . S
C680 H669 0.950 . S
C680 C678 1.391 . S
C680 C681 1.400 . S
C681 C675 1.491 . S
C681 C680 1.400 . S
C681 C682 1.398 . S
C682 H670 0.950 . S
C682 C681 1.398 . S
C682 C683 1.391 . S
C683 H671 0.950 1_565 S
C683 C679 1.393 . S
C683 C682 1.391 . S
H684 C692 0.950 . S
H685 C697 0.950 . S
H686 C694 0.950 . S
H687 C696 0.950 . S
H688 C698 0.950 . S
H689 C700 0.950 . S
H690 C702 0.950 . S
H691 C703 0.950 . S
C692 H684 0.950 . S
C692 C693 1.386 . S
C692 C694 1.391 . S
C693 C692 1.386 . S
C693 C697 1.393 . S
C694 H686 0.950 . S
C694 C692 1.391 . S
C694 C695 1.400 . S
C695 C694 1.400 . S
C695 C696 1.398 . S
C695 C701 1.491 . S
C696 H687 0.950 . S
C696 C695 1.398 . S
C696 C697 1.391 . S
C697 H685 0.950 . S
C697 C693 1.393 . S
C697 C696 1.391 . S
C698 H688 0.950 . S
C698 C699 1.386 . S
C698 C700 1.391 . S
C699 C698 1.386 . S
C699 C703 1.393 . S
C700 H689 0.950 . S
C700 C698 1.391 . S
C700 C701 1.400 . S
C701 C695 1.491 . S
C701 C700 1.400 . S
C701 C702 1.398 . S
C702 H690 0.950 . S
C702 C701 1.398 . S
C702 C703 1.391 . S
C703 H691 0.950 . S
C703 C699 1.393 . S
C703 C702 1.391 . S
H704 C712 0.950 . S
H705 C717 0.950 . S
H706 C714 0.950 . S
H707 C716 0.950 . S
H708 C718 0.950 . S
H709 C720 0.950 . S
H710 C722 0.950 . S
H711 C723 0.950 . S
C712 H704 0.950 . S
C712 C713 1.386 . S
C712 C714 1.391 . S
C713 C712 1.386 . S
C713 C717 1.393 . S
C714 H706 0.950 . S
C714 C712 1.391 . S
C714 C715 1.400 . S
C715 C714 1.400 . S
C715 C716 1.398 . S
C715 C721 1.491 . S
C716 H707 0.950 . S
C716 C715 1.398 . S
C716 C717 1.391 . S
C717 H705 0.950 . S
C717 C713 1.393 . S
C717 C716 1.391 . S
C718 H708 0.950 . S
C718 C719 1.386 . S
C718 C720 1.391 . S
C719 C718 1.386 . S
C719 C723 1.393 . S
C720 H709 0.950 . S
C720 C718 1.391 . S
C720 C721 1.400 . S
C721 C715 1.491 . S
C721 C720 1.400 . S
C721 C722 1.398 . S
C722 H710 0.950 . S
C722 C721 1.398 . S
C722 C723 1.391 . S
C723 H711 0.950 . S
C723 C719 1.393 . S
C723 C722 1.391 . S
H724 C732 0.950 . S
H725 C737 0.950 . S
H726 C734 0.950 . S
H727 C736 0.950 . S
H728 C738 0.950 . S
H729 C740 0.950 . S
H730 C742 0.950 . S
H731 C743 0.950 . S
C732 H724 0.950 . S
C732 C733 1.386 . S
C732 C734 1.391 . S
C733 C732 1.386 . S
C733 C737 1.393 . S
C734 H726 0.950 . S
C734 C732 1.391 . S
C734 C735 1.400 . S
C735 C734 1.400 . S
C735 C736 1.398 . S
C735 C741 1.491 . S
C736 H727 0.950 . S
C736 C735 1.398 . S
C736 C737 1.391 . S
C737 H725 0.950 . S
C737 C733 1.393 . S
C737 C736 1.391 . S
C738 H728 0.950 . S
C738 C739 1.386 . S
C738 C740 1.391 . S
C739 C738 1.386 . S
C739 C743 1.393 . S
C740 H729 0.950 . S
C740 C738 1.391 . S
C740 C741 1.400 . S
C741 C735 1.491 . S
C741 C740 1.400 . S
C741 C742 1.398 . S
C742 H730 0.950 . S
C742 C741 1.398 . S
C742 C743 1.391 . S
C743 H731 0.950 . S
C743 C739 1.393 . S
C743 C742 1.391 . S
H744 C752 0.950 . S
H745 C757 0.950 . S
H746 C754 0.950 . S
H747 C756 0.950 . S
H748 C758 0.950 . S
H749 C760 0.950 . S
H750 C762 0.950 . S
H751 C763 0.950 1_554 S
C752 H744 0.950 . S
C752 C753 1.386 . S
C752 C754 1.391 . S
C753 C752 1.386 . S
C753 C757 1.393 . S
C754 H746 0.950 . S
C754 C752 1.391 . S
C754 C755 1.400 . S
C755 C754 1.400 . S
C755 C756 1.398 . S
C755 C761 1.491 . S
C756 H747 0.950 . S
C756 C755 1.398 . S
C756 C757 1.391 . S
C757 H745 0.950 . S
C757 C753 1.393 . S
C757 C756 1.391 . S
C758 H748 0.950 . S
C758 C759 1.386 . S
C758 C760 1.391 . S
C759 C758 1.386 . S
C759 C763 1.393 . S
C760 H749 0.950 . S
C760 C758 1.391 . S
C760 C761 1.400 . S
C761 C755 1.491 . S
C761 C760 1.400 . S
C761 C762 1.398 . S
C762 H750 0.950 . S
C762 C761 1.398 . S
C762 C763 1.391 . S
C763 H751 0.950 1_556 S
C763 C759 1.393 . S
C763 C762 1.391 . S
H764 C772 0.950 . S
H765 C777 0.950 . S
H766 C774 0.950 . S
H767 C776 0.950 . S
H768 C778 0.950 . S
H769 C780 0.950 . S
H770 C782 0.950 . S
H771 C783 0.950 . S
C772 H764 0.950 . S
C772 C773 1.386 . S
C772 C774 1.391 . S
C773 C772 1.386 . S
C773 C777 1.393 . S
C774 H766 0.950 . S
C774 C772 1.391 . S
C774 C775 1.400 . S
C775 C774 1.400 . S
C775 C776 1.398 . S
C775 C781 1.491 . S
C776 H767 0.950 . S
C776 C775 1.398 . S
C776 C777 1.391 . S
C777 H765 0.950 . S
C777 C773 1.393 . S
C777 C776 1.391 . S
C778 H768 0.950 . S
C778 C779 1.386 . S
C778 C780 1.391 . S
C779 C778 1.386 . S
C779 C783 1.393 . S
C780 H769 0.950 . S
C780 C778 1.391 . S
C780 C781 1.400 . S
C781 C775 1.491 . S
C781 C780 1.400 . S
C781 C782 1.398 . S
C782 H770 0.950 . S
C782 C781 1.398 . S
C782 C783 1.391 . S
C783 H771 0.950 . S
C783 C779 1.393 . S
C783 C782 1.391 . S
H784 C792 0.950 . S
H785 C797 0.950 . S
H786 C794 0.950 . S
H787 C796 0.950 . S
H788 C798 0.950 . S
H789 C800 0.950 . S
H790 C802 0.950 . S
H791 C803 0.950 . S
C792 H784 0.950 . S
C792 C793 1.386 . S
C792 C794 1.391 . S
C793 C792 1.386 . S
C793 C797 1.393 . S
C794 H786 0.950 . S
C794 C792 1.391 . S
C794 C795 1.400 . S
C795 C794 1.400 . S
C795 C796 1.398 . S
C795 C801 1.491 . S
C796 H787 0.950 . S
C796 C795 1.398 . S
C796 C797 1.391 . S
C797 H785 0.950 . S
C797 C793 1.393 . S
C797 C796 1.391 . S
C798 H788 0.950 . S
C798 C799 1.386 . S
C798 C800 1.391 . S
C799 C798 1.386 . S
C799 C803 1.393 . S
C800 H789 0.950 . S
C800 C798 1.391 . S
C800 C801 1.400 . S
C801 C795 1.491 . S
C801 C800 1.400 . S
C801 C802 1.398 . S
C802 H790 0.950 . S
C802 C801 1.398 . S
C802 C803 1.391 . S
C803 H791 0.950 . S
C803 C799 1.393 . S
C803 C802 1.391 . S
H804 C812 0.950 . S
H805 C817 0.950 . S
H806 C814 0.950 . S
H807 C816 0.950 . S
H808 C818 0.950 . S
H809 C820 0.950 . S
H810 C822 0.950 . S
H811 C823 0.950 . S
C812 H804 0.950 . S
C812 C813 1.386 1_545 S
C812 C814 1.391 . S
C813 C812 1.386 1_565 S
C813 C817 1.393 . S
C814 H806 0.950 . S
C814 C812 1.391 . S
C814 C815 1.400 . S
C815 C814 1.400 . S
C815 C816 1.398 1_545 S
C815 C821 1.491 . S
C816 H807 0.950 . S
C816 C815 1.398 1_565 S
C816 C817 1.391 . S
C817 H805 0.950 . S
C817 C813 1.393 . S
C817 C816 1.391 . S
C818 H808 0.950 . S
C818 C819 1.386 1_565 S
C818 C820 1.391 . S
C819 C818 1.386 1_545 S
C819 C823 1.393 . S
C820 H809 0.950 . S
C820 C818 1.391 . S
C820 C821 1.400 1_565 S
C821 C815 1.491 . S
C821 C820 1.400 1_545 S
C821 C822 1.398 . S
C822 H810 0.950 . S
C822 C821 1.398 . S
C822 C823 1.391 . S
C823 H811 0.950 . S
C823 C819 1.393 . S
C823 C822 1.391 . S
H824 C832 0.950 . S
H825 C837 0.950 . S
H826 C834 0.950 . S
H827 C836 0.950 . S
H828 C838 0.950 1_565 S
H829 C840 0.950 . S
H830 C842 0.950 . S
H831 C843 0.950 . S
C832 H824 0.950 . S
C832 C833 1.386 . S
C832 C834 1.391 . S
C833 C832 1.386 . S
C833 C837 1.393 . S
C834 H826 0.950 . S
C834 C832 1.391 . S
C834 C835 1.400 . S
C835 C834 1.400 . S
C835 C836 1.398 . S
C835 C841 1.491 . S
C836 H827 0.950 . S
C836 C835 1.398 . S
C836 C837 1.391 . S
C837 H825 0.950 . S
C837 C833 1.393 . S
C837 C836 1.391 . S
C838 H828 0.950 1_545 S
C838 C839 1.386 . S
C838 C840 1.391 . S
C839 C838 1.386 . S
C839 C843 1.393 . S
C840 H829 0.950 . S
C840 C838 1.391 . S
C840 C841 1.400 . S
C841 C835 1.491 . S
C841 C840 1.400 . S
C841 C842 1.398 . S
C842 H830 0.950 . S
C842 C841 1.398 . S
C842 C843 1.391 . S
C843 H831 0.950 . S
C843 C839 1.393 . S
C843 C842 1.391 . S
H844 C852 0.950 . S
H845 C857 0.950 . S
H846 C854 0.950 . S
H847 C856 0.950 . S
H848 C858 0.950 . S
H849 C860 0.950 . S
H850 C862 0.950 . S
H851 C863 0.950 . S
C852 H844 0.950 . S
C852 C853 1.386 . S
C852 C854 1.391 . S
C853 C852 1.386 . S
C853 C857 1.393 . S
C854 H846 0.950 . S
C854 C852 1.391 . S
C854 C855 1.400 . S
C855 C854 1.400 . S
C855 C856 1.398 . S
C855 C861 1.491 . S
C856 H847 0.950 . S
C856 C855 1.398 . S
C856 C857 1.391 . S
C857 H845 0.950 . S
C857 C853 1.393 . S
C857 C856 1.391 . S
C858 H848 0.950 . S
C858 C859 1.386 . S
C858 C860 1.391 . S
C859 C858 1.386 . S
C859 C863 1.393 . S
C860 H849 0.950 . S
C860 C858 1.391 . S
C860 C861 1.400 . S
C861 C855 1.491 . S
C861 C860 1.400 . S
C861 C862 1.398 . S
C862 H850 0.950 . S
C862 C861 1.398 . S
C862 C863 1.391 . S
C863 H851 0.950 . S
C863 C859 1.393 . S
C863 C862 1.391 . S
H864 C872 0.950 . S
H865 C877 0.950 . S
H866 C874 0.950 . S
H867 C876 0.950 . S
H868 C878 0.950 . S
H869 C880 0.950 . S
H870 C882 0.950 . S
H871 C883 0.950 . S
C872 H864 0.950 . S
C872 C873 1.386 . S
C872 C874 1.391 . S
C873 C872 1.386 . S
C873 C877 1.393 . S
C874 H866 0.950 . S
C874 C872 1.391 . S
C874 C875 1.400 . S
C875 C874 1.400 . S
C875 C876 1.398 . S
C875 C881 1.491 . S
C876 H867 0.950 . S
C876 C875 1.398 . S
C876 C877 1.391 . S
C877 H865 0.950 . S
C877 C873 1.393 . S
C877 C876 1.391 . S
C878 H868 0.950 . S
C878 C879 1.386 . S
C878 C880 1.391 . S
C879 C878 1.386 . S
C879 C883 1.393 . S
C880 H869 0.950 . S
C880 C878 1.391 . S
C880 C881 1.400 . S
C881 C875 1.491 . S
C881 C880 1.400 . S
C881 C882 1.398 . S
C882 H870 0.950 . S
C882 C881 1.398 . S
C882 C883 1.391 . S
C883 H871 0.950 . S
C883 C879 1.393 . S
C883 C882 1.391 . S
H884 C892 0.950 . S
H885 C897 0.950 1_545 S
H886 C894 0.950 . S
H887 C896 0.950 1_545 S
H888 C898 0.950 1_545 S
H889 C900 0.950 1_545 S
H890 C902 0.950 . S
H891 C903 0.950 . S
C892 H884 0.950 . S
C892 C893 1.386 1_554 S
C892 C894 1.391 . S
C893 C892 1.386 1_556 S
C893 C897 1.393 . S
C894 H886 0.950 . S
C894 C892 1.391 . S
C894 C895 1.400 . S
C895 C894 1.400 . S
C895 C896 1.398 1_554 S
C895 C901 1.491 . S
C896 H887 0.950 1_565 S
C896 C895 1.398 1_556 S
C896 C897 1.391 . S
C897 H885 0.950 1_565 S
C897 C893 1.393 . S
C897 C896 1.391 . S
C898 H888 0.950 1_565 S
C898 C899 1.386 1_556 S
C898 C900 1.391 . S
C899 C898 1.386 1_554 S
C899 C903 1.393 . S
C900 H889 0.950 1_565 S
C900 C898 1.391 . S
C900 C901 1.400 1_556 S
C901 C895 1.491 . S
C901 C900 1.400 1_554 S
C901 C902 1.398 . S
C902 H890 0.950 . S
C902 C901 1.398 . S
C902 C903 1.391 . S
C903 H891 0.950 . S
C903 C899 1.393 . S
C903 C902 1.391 . S
H904 C912 0.950 . S
H905 C917 0.950 . S
H906 C914 0.950 . S
H907 C916 0.950 . S
H908 C918 0.950 . S
H909 C920 0.950 . S
H910 C922 0.950 . S
H911 C923 0.950 . S
C912 H904 0.950 . S
C912 C913 1.386 . S
C912 C914 1.391 . S
C913 C912 1.386 . S
C913 C917 1.393 . S
C914 H906 0.950 . S
C914 C912 1.391 . S
C914 C915 1.400 . S
C915 C914 1.400 . S
C915 C916 1.398 . S
C915 C921 1.491 . S
C916 H907 0.950 . S
C916 C915 1.398 . S
C916 C917 1.391 . S
C917 H905 0.950 . S
C917 C913 1.393 . S
C917 C916 1.391 . S
C918 H908 0.950 . S
C918 C919 1.386 . S
C918 C920 1.391 . S
C919 C918 1.386 . S
C919 C923 1.393 . S
C920 H909 0.950 . S
C920 C918 1.391 . S
C920 C921 1.400 . S
C921 C915 1.491 . S
C921 C920 1.400 . S
C921 C922 1.398 . S
C922 H910 0.950 . S
C922 C921 1.398 . S
C922 C923 1.391 . S
C923 H911 0.950 . S
C923 C919 1.393 . S
C923 C922 1.391 . S
H924 C932 0.950 . S
H925 C937 0.950 . S
H926 C934 0.950 . S
H927 C936 0.950 . S
H928 C938 0.950 . S
H929 C940 0.950 . S
H930 C942 0.950 . S
H931 C943 0.950 . S
C932 H924 0.950 . S
C932 C933 1.386 . S
C932 C934 1.391 . S
C933 C932 1.386 . S
C933 C937 1.393 . S
C934 H926 0.950 . S
C934 C932 1.391 . S
C934 C935 1.400 . S
C935 C934 1.400 . S
C935 C936 1.398 . S
C935 C941 1.491 . S
C936 H927 0.950 . S
C936 C935 1.398 . S
C936 C937 1.391 . S
C937 H925 0.950 . S
C937 C933 1.393 . S
C937 C936 1.391 . S
C938 H928 0.950 . S
C938 C939 1.386 . S
C938 C940 1.391 . S
C939 C938 1.386 . S
C939 C943 1.393 . S
C940 H929 0.950 . S
C940 C938 1.391 . S
C940 C941 1.400 . S
C941 C935 1.491 . S
C941 C940 1.400 . S
C941 C942 1.398 . S
C942 H930 0.950 . S
C942 C941 1.398 . S
C942 C943 1.391 . S
C943 H931 0.950 . S
C943 C939 1.393 . S
C943 C942 1.391 . S
H944 C952 0.950 . S
H945 C957 0.950 . S
H946 C954 0.950 . S
H947 C956 0.950 . S
H948 C958 0.950 . S
H949 C960 0.950 . S
H950 C962 0.950 . S
H951 C963 0.950 . S
C952 H944 0.950 . S
C952 C953 1.386 . S
C952 C954 1.391 . S
C953 C952 1.386 . S
C953 C957 1.393 . S
C954 H946 0.950 . S
C954 C952 1.391 . S
C954 C955 1.400 . S
C955 C954 1.400 . S
C955 C956 1.398 . S
C955 C961 1.491 . S
C956 H947 0.950 . S
C956 C955 1.398 . S
C956 C957 1.391 . S
C957 H945 0.950 . S
C957 C953 1.393 . S
C957 C956 1.391 . S
C958 H948 0.950 . S
C958 C959 1.386 . S
C958 C960 1.391 . S
C959 C958 1.386 . S
C959 C963 1.393 . S
C960 H949 0.950 . S
C960 C958 1.391 . S
C960 C961 1.400 . S
C961 C955 1.491 . S
C961 C960 1.400 . S
C961 C962 1.398 . S
C962 H950 0.950 . S
C962 C961 1.398 . S
C962 C963 1.391 . S
C963 H951 0.950 . S
C963 C959 1.393 . S
C963 C962 1.391 . S
H964 C972 0.950 . S
H965 C977 0.950 . S
H966 C974 0.950 . S
H967 C976 0.950 . S
H968 C978 0.950 . S
H969 C980 0.950 . S
H970 C982 0.950 . S
H971 C983 0.950 . S
C972 H964 0.950 . S
C972 C973 1.386 1_554 S
C972 C974 1.391 . S
C973 C972 1.386 1_556 S
C973 C977 1.393 1_655 S
C974 H966 0.950 . S
C974 C972 1.391 . S
C974 C975 1.381 1_654 S
C975 C974 1.381 1_456 S
C975 C976 1.414 . S
C975 C981 1.495 . S
C976 H967 0.950 . S
C976 C975 1.414 . S
C976 C977 1.391 . S
C977 H965 0.950 . S
C977 C973 1.393 1_455 S
C977 C976 1.391 . S
C978 H968 0.950 . S
C978 C979 1.386 . S
C978 C980 1.391 . S
C979 C978 1.386 . S
C979 C983 1.393 1_456 S
C980 H969 0.950 . S
C980 C978 1.391 . S
C980 C981 1.400 . S
C981 C975 1.495 . S
C981 C980 1.400 . S
C981 C982 1.398 1_456 S
C982 H970 0.950 . S
C982 C981 1.398 1_654 S
C982 C983 1.391 . S
C983 H971 0.950 . S
C983 C979 1.393 1_654 S
C983 C982 1.391 . S
H984 C992 0.950 . S
H985 C997 0.950 . S
H986 C994 0.950 . S
H987 C996 0.950 . S
H988 C998 0.950 . S
H989 C1000 0.950 . S
H990 C1002 0.950 . S
H991 C1003 0.950 . S
C992 H984 0.950 . S
C992 C993 1.386 . S
C992 C994 1.391 . S
C993 C992 1.386 . S
C993 C997 1.393 . S
C994 H986 0.950 . S
C994 C992 1.391 . S
C994 C995 1.400 . S
C995 C994 1.400 . S
C995 C996 1.398 . S
C995 C1001 1.491 . S
C996 H987 0.950 . S
C996 C995 1.398 . S
C996 C997 1.391 . S
C997 H985 0.950 . S
C997 C993 1.393 . S
C997 C996 1.391 . S
C998 H988 0.950 . S
C998 C999 1.386 . S
C998 C1000 1.391 . S
C999 C998 1.386 . S
C999 C1003 1.393 . S
C1000 H989 0.950 . S
C1000 C998 1.391 . S
C1000 C1001 1.400 . S
C1001 C995 1.491 . S
C1001 C1000 1.400 . S
C1001 C1002 1.398 . S
C1002 H990 0.950 . S
C1002 C1001 1.398 . S
C1002 C1003 1.391 . S
C1003 H991 0.950 . S
C1003 C999 1.393 . S
C1003 C1002 1.391 . S
H1004 C1012 0.950 . S
H1005 C1017 0.950 . S
H1006 C1014 0.950 . S
H1007 C1016 0.950 . S
H1008 C1018 0.950 . S
H1009 C1020 0.950 . S
H1010 C1022 0.950 . S
H1011 C1023 0.950 . S
C1012 H1004 0.950 . S
C1012 C1013 1.386 . S
C1012 C1014 1.391 . S
C1013 C1012 1.386 . S
C1013 C1017 1.393 . S
C1014 H1006 0.950 . S
C1014 C1012 1.391 . S
C1014 C1015 1.400 . S
C1015 C1014 1.400 . S
C1015 C1016 1.398 . S
C1015 C1021 1.491 . S
C1016 H1007 0.950 . S
C1016 C1015 1.398 . S
C1016 C1017 1.391 . S
C1017 H1005 0.950 . S
C1017 C1013 1.393 . S
C1017 C1016 1.391 . S
C1018 H1008 0.950 . S
C1018 C1019 1.386 . S
C1018 C1020 1.391 . S
C1019 C1018 1.386 . S
C1019 C1023 1.393 . S
C1020 H1009 0.950 . S
C1020 C1018 1.391 . S
C1020 C1021 1.400 . S
C1021 C1015 1.491 . S
C1021 C1020 1.400 . S
C1021 C1022 1.398 . S
C1022 H1010 0.950 . S
C1022 C1021 1.398 . S
C1022 C1023 1.391 . S
C1023 H1011 0.950 . S
C1023 C1019 1.393 . S
C1023 C1022 1.391 . S
H1024 C1032 0.950 . S
H1025 C1037 0.950 . S
H1026 C1034 0.950 . S
H1027 C1036 0.950 . S
H1028 C1038 0.950 . S
H1029 C1040 0.950 . S
H1030 C1042 0.950 . S
H1031 C1043 0.950 . S
C1032 H1024 0.950 . S
C1032 C1033 1.386 . S
C1032 C1034 1.391 . S
C1033 C1032 1.386 . S
C1033 C1037 1.393 . S
C1034 H1026 0.950 . S
C1034 C1032 1.391 . S
C1034 C1035 1.400 . S
C1035 C1034 1.400 . S
C1035 C1036 1.398 . S
C1035 C1041 1.491 . S
C1036 H1027 0.950 . S
C1036 C1035 1.398 . S
C1036 C1037 1.391 . S
C1037 H1025 0.950 . S
C1037 C1033 1.393 . S
C1037 C1036 1.391 . S
C1038 H1028 0.950 . S
C1038 C1039 1.386 . S
C1038 C1040 1.391 . S
C1039 C1038 1.386 . S
C1039 C1043 1.393 . S
C1040 H1029 0.950 . S
C1040 C1038 1.391 . S
C1040 C1041 1.400 . S
C1041 C1035 1.491 . S
C1041 C1040 1.400 . S
C1041 C1042 1.398 . S
C1042 H1030 0.950 . S
C1042 C1041 1.398 . S
C1042 C1043 1.391 . S
C1043 H1031 0.950 . S
C1043 C1039 1.393 . S
C1043 C1042 1.391 . S
C573 C1 1.507 . S
C579 C483 1.433 . S
C593 C80 1.489 . S
C599 C517 1.402 . S
C619 C529 1.410 . S
C613 C140 1.470 . S
C633 C211 1.502 . S
C639 C563 1.426 . S
C659 C520 1.425 . S
C653 C31 1.501 . S
C679 C500 1.415 . S
C673 C61 1.496 . S
C699 C547 1.372 . S
C693 C151 1.473 . S
C719 C538 1.409 . S
C713 C200 1.495 . S
C733 C20 1.508 . S
C739 C546 1.407 . S
C759 C508 1.411 . S
C753 C121 1.484 . S
C773 C181 1.484 . S
C779 C484 1.381 . S
C793 C91 1.499 . S
C799 C541 1.417 . S
C819 C499 1.610 . S
C813 C260 1.730 . S
C833 C320 1.626 . S
C839 C521 1.610 . S
C853 C361 1.749 . S
C859 C526 1.646 . S
C873 C451 1.656 . S
C879 C559 1.638 . S
C893 C271 1.742 . S
C899 C504 1.631 . S
C919 C496 1.628 . S
C913 C301 1.653 . S
C939 C550 1.631 . S
C933 C380 1.743 . S
C959 C542 1.639 . S
C953 C440 1.652 . S
C973 C241 1.701 . S
C979 C562 1.607 . S
C999 C505 1.624 . S
C993 C391 1.752 . S
C1019 C487 1.631 . S
C1013 C421 1.657 . S
C1033 C331 1.640 . S
C1039 C525 1.616 . S
