# Generated by pormake.
# Topology ptr, (4,4)-cn, num edge types: 1
# Building blocks:
#     Node 0, Type 0, BuildingBlock: CEKHIL_clean_sbu_0, # of connection points: 4
#     Node 1, Type 0, BuildingBlock: CEKHIL_clean_sbu_0, # of connection points: 4
#     Node 2, Type 0, BuildingBlock: CEKHIL_clean_sbu_0, # of connection points: 4
#     Node 3, Type 0, BuildingBlock: CEKHIL_clean_sbu_0, # of connection points: 4
#     Node 4, Type 0, BuildingBlock: CEKHIL_clean_sbu_0, # of connection points: 4
#     Node 5, Type 0, BuildingBlock: CEKHIL_clean_sbu_0, # of connection points: 4
#     Node 6, Type 0, BuildingBlock: CEKHIL_clean_sbu_0, # of connection points: 4
#     Node 7, Type 0, BuildingBlock: CEKHIL_clean_sbu_0, # of connection points: 4
#     Node 8, Type 0, BuildingBlock: CEKHIL_clean_sbu_0, # of connection points: 4
#     Node 9, Type 0, BuildingBlock: CEKHIL_clean_sbu_0, # of connection points: 4
#     Node 10, Type 0, BuildingBlock: CEKHIL_clean_sbu_0, # of connection points: 4
#     Node 11, Type 0, BuildingBlock: CEKHIL_clean_sbu_0, # of connection points: 4
#     Node 12, Type 0, BuildingBlock: CEKHIL_clean_sbu_0, # of connection points: 4
#     Node 13, Type 0, BuildingBlock: CEKHIL_clean_sbu_0, # of connection points: 4
#     Node 14, Type 0, BuildingBlock: CEKHIL_clean_sbu_0, # of connection points: 4
#     Node 15, Type 0, BuildingBlock: CEKHIL_clean_sbu_0, # of connection points: 4
#     Node 16, Type 0, BuildingBlock: CEKHIL_clean_sbu_0, # of connection points: 4
#     Node 17, Type 0, BuildingBlock: CEKHIL_clean_sbu_0, # of connection points: 4
#     Node 18, Type 1, BuildingBlock: MUDLON_clean_linker_0, # of connection points: 4
#     Node 19, Type 1, BuildingBlock: MUDLON_clean_linker_0, # of connection points: 4
#     Node 20, Type 1, BuildingBlock: MUDLON_clean_linker_0, # of connection points: 4
#     Node 21, Type 1, BuildingBlock: MUDLON_clean_linker_0, # of connection points: 4
#     Node 22, Type 1, BuildingBlock: MUDLON_clean_linker_0, # of connection points: 4
#     Node 23, Type 1, BuildingBlock: MUDLON_clean_linker_0, # of connection points: 4
#     Node 24, Type 1, BuildingBlock: MUDLON_clean_linker_0, # of connection points: 4
#     Node 25, Type 1, BuildingBlock: MUDLON_clean_linker_0, # of connection points: 4
#     Node 26, Type 1, BuildingBlock: MUDLON_clean_linker_0, # of connection points: 4
#     Node 27, Type 1, BuildingBlock: MUDLON_clean_linker_0, # of connection points: 4
#     Node 28, Type 1, BuildingBlock: MUDLON_clean_linker_0, # of connection points: 4
#     Node 29, Type 1, BuildingBlock: MUDLON_clean_linker_0, # of connection points: 4
#     Node 30, Type 1, BuildingBlock: MUDLON_clean_linker_0, # of connection points: 4
#     Node 31, Type 1, BuildingBlock: MUDLON_clean_linker_0, # of connection points: 4
#     Node 32, Type 1, BuildingBlock: MUDLON_clean_linker_0, # of connection points: 4
#     Node 33, Type 1, BuildingBlock: MUDLON_clean_linker_0, # of connection points: 4
#     Node 34, Type 1, BuildingBlock: MUDLON_clean_linker_0, # of connection points: 4
#     Node 35, Type 1, BuildingBlock: MUDLON_clean_linker_0, # of connection points: 4
#     Edge 36, Type (0, 1), None
#     Edge 37, Type (0, 1), None
#     Edge 38, Type (0, 1), None
#     Edge 39, Type (0, 1), None
#     Edge 40, Type (0, 1), None
#     Edge 41, Type (0, 1), None
#     Edge 42, Type (0, 1), None
#     Edge 43, Type (0, 1), None
#     Edge 44, Type (0, 1), None
#     Edge 45, Type (0, 1), None
#     Edge 46, Type (0, 1), None
#     Edge 47, Type (0, 1), None
#     Edge 48, Type (0, 1), None
#     Edge 49, Type (0, 1), None
#     Edge 50, Type (0, 1), None
#     Edge 51, Type (0, 1), None
#     Edge 52, Type (0, 1), None
#     Edge 53, Type (0, 1), None
#     Edge 54, Type (0, 1), None
#     Edge 55, Type (0, 1), None
#     Edge 56, Type (0, 1), None
#     Edge 57, Type (0, 1), None
#     Edge 58, Type (0, 1), None
#     Edge 59, Type (0, 1), None
#     Edge 60, Type (0, 1), None
#     Edge 61, Type (0, 1), None
#     Edge 62, Type (0, 1), None
#     Edge 63, Type (0, 1), None
#     Edge 64, Type (0, 1), None
#     Edge 65, Type (0, 1), None
#     Edge 66, Type (0, 1), None
#     Edge 67, Type (0, 1), None
#     Edge 68, Type (0, 1), None
#     Edge 69, Type (0, 1), None
#     Edge 70, Type (0, 1), None
#     Edge 71, Type (0, 1), None
#     Edge 72, Type (0, 1), None
#     Edge 73, Type (0, 1), None
#     Edge 74, Type (0, 1), None
#     Edge 75, Type (0, 1), None
#     Edge 76, Type (0, 1), None
#     Edge 77, Type (0, 1), None
#     Edge 78, Type (0, 1), None
#     Edge 79, Type (0, 1), None
#     Edge 80, Type (0, 1), None
#     Edge 81, Type (0, 1), None
#     Edge 82, Type (0, 1), None
#     Edge 83, Type (0, 1), None
#     Edge 84, Type (0, 1), None
#     Edge 85, Type (0, 1), None
#     Edge 86, Type (0, 1), None
#     Edge 87, Type (0, 1), None
#     Edge 88, Type (0, 1), None
#     Edge 89, Type (0, 1), None
#     Edge 90, Type (0, 1), None
#     Edge 91, Type (0, 1), None
#     Edge 92, Type (0, 1), None
#     Edge 93, Type (0, 1), None
#     Edge 94, Type (0, 1), None
#     Edge 95, Type (0, 1), None
#     Edge 96, Type (0, 1), None
#     Edge 97, Type (0, 1), None
#     Edge 98, Type (0, 1), None
#     Edge 99, Type (0, 1), None
#     Edge 100, Type (0, 1), None
#     Edge 101, Type (0, 1), None
#     Edge 102, Type (0, 1), None
#     Edge 103, Type (0, 1), None
#     Edge 104, Type (0, 1), None
#     Edge 105, Type (0, 1), None
#     Edge 106, Type (0, 1), None
#     Edge 107, Type (0, 1), None
# Relax obj value: 0.031
# Max RMSD: 0.107
# Mean RMSD: 0.070
data_MOF--net-ptr--node1-CEKHIL_clean_sbu_0--node2-MUDLON_clean_linker_0--edge1-none
_symmetry_space_group_name_H-M    P1
_symmetry_Int_Tables_number       1
_symmetry_cell_setting            triclinic
loop_
_symmetry_equiv_pos_as_xyz
'x, y, z'
_cell_length_a     62.51139
_cell_length_b     61.717227
_cell_length_c     37.18773
_cell_angle_alpha  91.425818
_cell_angle_beta   89.311206
_cell_angle_gamma 121.26042
loop_
_atom_site_label
_atom_site_type_symbol
_atom_site_fract_x
_atom_site_fract_y
_atom_site_fract_z
_atom_type_partial_charge
Co0 Co 0.00826 0.34047 0.01757 0.0
O1 O 0.01433 0.32218 0.05295 0.0
O2 O 0.04351 0.35859 0.03008 0.0
C3 C 0.98399 0.30726 0.98078 0.0
O4 O 0.00844 0.36387 0.97935 0.0
Co5 Co 0.95466 0.32982 0.00998 0.0
O6 O 0.96823 0.34948 0.96547 0.0
C7 C 0.98469 0.3611 0.071 0.0
C8 C 0.03757 0.34039 0.05245 0.0
C9 C 0.99159 0.36391 0.95964 0.0
O10 O 0.003 0.36011 0.05695 0.0
O11 O 0.96257 0.34874 0.05777 0.0
O12 O 0.00822 0.31845 0.97959 0.0
O13 O 0.97511 0.31439 0.00721 0.0
Co14 Co 0.66609 0.66395 0.01504 0.0
O15 O 0.68956 0.68511 0.97961 0.0
O16 O 0.68637 0.64997 0.99912 0.0
C17 C 0.67312 0.69541 0.05402 0.0
O18 O 0.64419 0.63844 0.05325 0.0
Co19 Co 0.62003 0.66869 0.02703 0.0
O20 O 0.61685 0.6499 0.07114 0.0
C21 C 0.62089 0.64047 0.96351 0.0
C22 C 0.69739 0.66939 0.97807 0.0
C23 C 0.62728 0.63701 0.07506 0.0
O24 O 0.64127 0.64338 0.97603 0.0
O25 O 0.60962 0.65064 0.97863 0.0
O26 O 0.68764 0.68619 0.05294 0.0
O27 O 0.65652 0.68749 0.02851 0.0
Co28 Co 0.33888 1.00047 0.01643 0.0
O29 O 0.32004 0.00593 0.98116 0.0
O30 O 0.35474 0.03636 0.00728 0.0
C31 C 0.30645 0.97302 0.05043 0.0
O32 O 0.36247 0.00145 0.05505 0.0
Co33 Co 0.33201 0.94718 0.01974 0.0
O34 O 0.35161 0.96112 0.06484 0.0
C35 C 0.36197 0.98038 0.96146 0.0
C36 C 0.33689 0.02985 0.98398 0.0
C37 C 0.36423 0.98474 0.07289 0.0
O38 O 0.35998 0.99801 0.97715 0.0
O39 O 0.35045 0.95755 0.97247 0.0
O40 O 0.31554 0.99727 0.05397 0.0
O41 O 0.31504 0.96612 0.02345 0.0
Co42 Co 0.99629 0.66297 0.01744 0.0
O43 O 0.9902 0.68154 0.98253 0.0
O44 O 0.96109 0.64484 0.00496 0.0
C45 C 0.02056 0.69598 0.05447 0.0
O46 O 0.99602 0.63927 0.05522 0.0
Co47 Co 0.04969 0.67329 0.0249 0.0
O48 O 0.03613 0.65336 0.06919 0.0
C49 C 0.0196 0.6421 0.96389 0.0
C50 C 0.967 0.66324 0.98298 0.0
C51 C 0.01274 0.63896 0.07484 0.0
O52 O 0.00146 0.6435 0.97774 0.0
O53 O 0.04168 0.65414 0.97728 0.0
O54 O 0.99633 0.68473 0.05576 0.0
O55 O 0.02947 0.689 0.02788 0.0
Co56 Co 0.33718 0.33648 0.01866 0.0
O57 O 0.31378 0.31568 0.05457 0.0
O58 O 0.31726 0.35083 0.03443 0.0
C59 C 0.32988 0.30472 0.9801 0.0
O60 O 0.35893 0.36168 0.98002 0.0
Co61 Co 0.38306 0.33132 0.00591 0.0
O62 O 0.38638 0.35039 0.96201 0.0
C63 C 0.3827 0.35992 0.06947 0.0
C64 C 0.30621 0.33163 0.05584 0.0
C65 C 0.3759 0.36325 0.9582 0.0
O66 O 0.36237 0.3573 0.05725 0.0
O67 O 0.39357 0.34934 0.05431 0.0
O68 O 0.31533 0.31391 0.98112 0.0
O69 O 0.34661 0.31286 0.00541 0.0
Co70 Co 0.66709 0.00329 0.01749 0.0
O71 O 0.68788 1.00046 0.05232 0.0
O72 O 0.65399 0.96787 0.02767 0.0
C73 C 0.698 0.03171 0.98233 0.0
O74 O 0.64199 0.99973 0.97933 0.0
Co75 Co 0.66958 0.05453 0.01375 0.0
O76 O 0.6491 0.03885 0.96989 0.0
C77 C 0.64108 0.02054 0.07206 0.0
C78 C 0.67258 0.97616 0.05019 0.0
C79 C 0.63805 0.01524 0.96202 0.0
O80 O 0.64535 0.00417 0.05714 0.0
O81 O 0.65057 0.04305 0.06044 0.0
O82 O 0.69047 0.00778 0.97944 0.0
O83 O 0.68893 0.03803 0.00938 0.0
Co84 Co 0.67486 0.67445 0.35124 0.0
O85 O 0.68107 0.6558 0.38585 0.0
O86 O 0.71012 0.69253 0.3635 0.0
C87 C 0.6505 0.64145 0.31422 0.0
O88 O 0.675 0.69823 0.31372 0.0
Co89 Co 0.62146 0.66412 0.34429 0.0
O90 O 0.63486 0.68432 0.3002 0.0
C91 C 0.65165 0.69499 0.40541 0.0
C92 C 0.70428 0.67407 0.38532 0.0
C93 C 0.65822 0.69869 0.29439 0.0
O94 O 0.66978 0.69377 0.39122 0.0
O95 O 0.62952 0.68293 0.39218 0.0
O96 O 0.67473 0.65281 0.3127 0.0
O97 O 0.64163 0.64836 0.34095 0.0
Co98 Co 0.33509 0.99706 0.34887 0.0
O99 O 0.35819 0.01794 0.31278 0.0
O100 O 0.35529 0.98303 0.33269 0.0
C101 C 0.3422 0.02875 0.38746 0.0
O102 O 0.31357 0.97182 0.38767 0.0
Co103 Co 0.28893 0.00174 0.36143 0.0
O104 O 0.28605 0.98307 0.40556 0.0
C105 C 0.28943 0.97304 0.29822 0.0
C106 C 0.36599 0.0022 0.31116 0.0
C107 C 0.29664 0.97033 0.40953 0.0
O108 O 0.30992 0.97607 0.31047 0.0
O109 O 0.27826 0.98332 0.31331 0.0
O110 O 0.35694 0.01979 0.38628 0.0
O111 O 0.3254 0.02047 0.36221 0.0
Co112 Co 0.00614 0.3354 0.34815 0.0
O113 O 0.9872 0.34045 0.31255 0.0
O114 O 0.02164 0.37121 0.33878 0.0
C115 C 0.97376 0.30781 0.38208 0.0
O116 O 0.0298 0.3369 0.38707 0.0
Co117 Co 1.00021 0.2826 0.35212 0.0
O118 O 0.0192 0.29675 0.3976 0.0
C119 C 0.03052 0.31597 0.29419 0.0
C120 C 0.00384 0.36444 0.31531 0.0
C121 C 0.03161 0.3204 0.40538 0.0
O122 O 0.02755 0.33319 0.30916 0.0
O123 O 0.01968 0.29329 0.30567 0.0
O124 O 0.9826 0.33202 0.38539 0.0
O125 O 0.98258 0.30094 0.35531 0.0
Co126 Co 0.66791 0.99696 0.34697 0.0
O127 O 0.66084 0.01437 0.31133 0.0
O128 O 0.63287 0.97716 0.33356 0.0
C129 C 0.69025 0.03049 0.38431 0.0
O130 O 0.66855 0.9741 0.38528 0.0
Co131 Co 0.72246 0.0109 0.35768 0.0
O132 O 0.70871 0.99017 0.40129 0.0
C133 C 0.69501 0.97979 0.29474 0.0
C134 C 0.63799 0.99529 0.31148 0.0
C135 C 0.68536 0.97471 0.40582 0.0
O136 O 0.67543 0.97874 0.30789 0.0
O137 O 0.71668 0.99338 0.3091 0.0
O138 O 0.66595 0.018 0.38484 0.0
O139 O 0.70025 0.02426 0.35839 0.0
Co140 Co 0.00454 0.67013 0.35361 0.0
O141 O 0.9814 0.64922 0.38957 0.0
O142 O 0.98455 0.68433 0.36996 0.0
C143 C 0.99703 0.63847 0.3147 0.0
O144 O 0.02607 0.69542 0.31498 0.0
Co145 Co 0.05036 0.66501 0.34012 0.0
O146 O 0.05332 0.68402 0.29632 0.0
C147 C 0.05032 0.69351 0.40398 0.0
C148 C 0.97367 0.66503 0.39122 0.0
C149 C 0.04285 0.69692 0.29284 0.0
O150 O 0.02989 0.69084 0.39205 0.0
O151 O 0.06119 0.68303 0.38848 0.0
O152 O 0.98251 0.64768 0.31614 0.0
O153 O 0.0139 0.64653 0.33982 0.0
Co154 Co 0.3327 0.33352 0.35265 0.0
O155 O 0.3518 0.32842 0.38786 0.0
O156 O 0.31706 0.29768 0.36227 0.0
C157 C 0.36499 0.3608 0.31829 0.0
O158 O 0.30894 0.33235 0.31407 0.0
Co159 Co 0.33941 0.38671 0.34953 0.0
O160 O 0.32013 0.37278 0.30428 0.0
C161 C 0.30863 0.35317 0.40696 0.0
C162 C 0.33511 0.30445 0.38531 0.0
C163 C 0.30741 0.34919 0.29619 0.0
O164 O 0.31158 0.33596 0.39194 0.0
O165 O 0.31963 0.37591 0.3957 0.0
O166 O 0.35588 0.33655 0.31506 0.0
O167 O 0.35651 0.36789 0.34525 0.0
Co168 Co 0.34208 0.00666 0.68642 0.0
O169 O 0.34828 0.98829 0.72158 0.0
O170 O 0.37724 0.02508 0.69925 0.0
C171 C 0.31813 0.97353 0.64931 0.0
O172 O 0.34224 0.03021 0.64844 0.0
Co173 Co 0.28854 0.99584 0.67853 0.0
O174 O 0.30208 0.01566 0.63414 0.0
C175 C 0.31817 0.02692 0.73988 0.0
C176 C 0.37141 0.00676 0.72134 0.0
C177 C 0.32545 0.03023 0.62858 0.0
O178 O 0.33652 0.02594 0.72597 0.0
O179 O 0.29612 0.01464 0.72641 0.0
O180 O 0.34238 0.98499 0.64823 0.0
O181 O 0.309 0.98039 0.67576 0.0
Co182 Co 0.00151 0.33301 0.68015 0.0
O183 O 0.02462 0.35392 0.64412 0.0
O184 O 0.0219 0.31914 0.66427 0.0
C185 C 0.00841 0.36467 0.71863 0.0
O186 O 0.97999 0.30782 0.71899 0.0
Co187 Co 0.95518 0.33747 0.69235 0.0
O188 O 0.95239 0.319 0.73665 0.0
C189 C 0.95589 0.30869 0.62936 0.0
C190 C 0.03261 0.33832 0.64276 0.0
C191 C 0.96304 0.30634 0.7408 0.0
O192 O 0.97642 0.31187 0.6417 0.0
O193 O 0.94462 0.31892 0.64432 0.0
O194 O 0.02325 0.35582 0.71755 0.0
O195 O 0.99165 0.35631 0.69332 0.0
Co196 Co 0.67272 0.66844 0.68173 0.0
O197 O 0.65419 0.67403 0.64613 0.0
O198 O 0.68882 0.70433 0.67259 0.0
C199 C 0.63995 0.64109 0.71546 0.0
O200 O 0.69604 0.66933 0.72062 0.0
Co201 Co 0.66539 0.61494 0.68567 0.0
O202 O 0.68462 0.62891 0.73104 0.0
C203 C 0.69606 0.64808 0.62766 0.0
C204 C 0.6711 0.69793 0.64912 0.0
C205 C 0.69743 0.65256 0.73881 0.0
O206 O 0.69404 0.66584 0.64285 0.0
O207 O 0.68431 0.62528 0.63879 0.0
O208 O 0.64919 0.66536 0.71894 0.0
O209 O 0.64866 0.63412 0.68872 0.0
Co210 Co 0.33106 0.32816 0.68233 0.0
O211 O 0.32498 0.34638 0.64684 0.0
O212 O 0.29589 0.3098 0.66946 0.0
C213 C 0.35487 0.36145 0.71933 0.0
O214 O 0.3308 0.30478 0.72059 0.0
Co215 Co 0.38475 0.33933 0.69114 0.0
O216 O 0.37088 0.31919 0.73522 0.0
C217 C 0.35546 0.30815 0.62949 0.0
C218 C 0.30177 0.32807 0.64723 0.0
C219 C 0.34747 0.30463 0.74055 0.0
O220 O 0.33682 0.30872 0.64312 0.0
O221 O 0.37746 0.32082 0.64309 0.0
O222 O 0.33062 0.34998 0.72023 0.0
O223 O 0.36406 0.35448 0.69312 0.0
Co224 Co 0.67099 0.00511 0.68425 0.0
O225 O 0.64739 0.98371 0.71957 0.0
O226 O 0.65038 0.01872 0.69946 0.0
C227 C 0.66508 0.97393 0.64564 0.0
O228 O 0.69266 0.03075 0.64607 0.0
Co229 Co 0.71805 0.00204 0.67296 0.0
O230 O 0.72081 0.02035 0.62849 0.0
C231 C 0.71625 0.03034 0.73575 0.0
C232 C 0.63946 0.99936 0.7206 0.0
C233 C 0.70981 0.03266 0.62436 0.0
O234 O 0.69541 0.02628 0.72333 0.0
O235 O 0.72825 0.02089 0.72083 0.0
O236 O 0.64996 0.98244 0.64628 0.0
O237 O 0.68154 0.98231 0.67139 0.0
Co238 Co 0.99928 0.66691 0.68637 0.0
O239 O 0.01773 0.66147 0.72226 0.0
O240 O 0.9829 0.6311 0.69632 0.0
C241 C 0.03209 0.69369 0.65219 0.0
O242 O 0.97599 0.66596 0.64738 0.0
Co243 Co 0.00729 0.72065 0.68155 0.0
O244 O 0.98761 0.70638 0.63658 0.0
C245 C 0.97645 0.68814 0.7399 0.0
C246 C 1.00065 0.6376 0.7198 0.0
C247 C 0.97461 0.6827 0.62909 0.0
O248 O 0.97818 0.67013 0.72499 0.0
O249 O 0.98848 0.71088 0.72856 0.0
O250 O 0.0226 0.66936 0.64923 0.0
O251 O 0.02359 0.70106 0.67874 0.0
H252 H 0.27929 0.36793 0.1936 0.0
N253 N 0.24211 0.32011 0.17369 0.0
H254 H 0.30684 0.37973 0.24501 0.0
H255 H 0.24092 0.28968 0.22431 0.0
H256 H 0.26904 0.30133 0.27633 0.0
H257 H 0.24696 0.28427 0.1416 0.0
H258 H 0.27429 0.28878 0.09126 0.0
H259 H 0.26766 0.36222 0.1312 0.0
H260 H 0.29499 0.36686 0.08077 0.0
H261 H 0.24371 0.36559 0.17451 0.0
H262 H 0.19397 0.28448 0.17311 0.0
H263 H 0.20824 0.37132 0.17258 0.0
H264 H 0.15794 0.28998 0.17352 0.0
H265 H 0.08413 0.37496 0.21137 0.0
H266 H 0.05574 0.36216 0.26255 0.0
H267 H 0.04441 0.28683 0.25443 0.0
H268 H 0.07299 0.30006 0.20285 0.0
H269 H 0.05757 0.30378 0.14276 0.0
H270 H 0.03253 0.30134 0.09142 0.0
H271 H 0.08235 0.38143 0.07445 0.0
H272 H 0.10733 0.38377 0.12656 0.0
H273 H 0.14045 0.37529 0.20533 0.0
H274 H 0.17567 0.36868 0.20703 0.0
H275 H 0.13445 0.3016 0.13914 0.0
N276 N 0.09688 0.34698 0.17232 0.0
H277 H 0.09889 0.30762 0.13953 0.0
C278 C 0.25758 0.32791 0.20545 0.0
C279 C 0.27643 0.35328 0.21175 0.0
C280 C 0.29242 0.35997 0.24122 0.0
C281 C 0.29018 0.34146 0.26496 0.0
C282 C 0.27133 0.31604 0.25858 0.0
C283 C 0.25515 0.30939 0.22912 0.0
C284 C 0.25517 0.32274 0.14037 0.0
C285 C 0.25696 0.30217 0.12793 0.0
C286 C 0.27269 0.30487 0.09929 0.0
C287 C 0.28696 0.32829 0.0823 0.0
C288 C 0.28417 0.3486 0.09332 0.0
C289 C 0.26848 0.34591 0.1223 0.0
C290 C 0.22157 0.32446 0.17348 0.0
C291 C 0.22519 0.34892 0.17381 0.0
C292 C 0.20468 0.35219 0.1732 0.0
C293 C 0.18003 0.33113 0.17296 0.0
C294 C 0.17654 0.30669 0.17302 0.0
C295 C 0.1971 0.30346 0.17309 0.0
C296 C 0.08085 0.33866 0.20353 0.0
C297 C 0.07563 0.35576 0.22083 0.0
C298 C 0.05929 0.34829 0.25004 0.0
C299 C 0.04768 0.32336 0.26276 0.0
C300 C 0.05297 0.30613 0.24539 0.0
C301 C 0.06939 0.31369 0.21597 0.0
C302 C 0.08423 0.3441 0.13876 0.0
C303 C 0.06343 0.32074 0.12773 0.0
C304 C 0.0491 0.31939 0.09829 0.0
C305 C 0.05537 0.34126 0.07909 0.0
C306 C 0.07712 0.36426 0.08864 0.0
C307 C 0.09135 0.36563 0.11838 0.0
C308 C 0.11719 0.34226 0.17202 0.0
C309 C 0.13909 0.35916 0.1909 0.0
C310 C 0.15928 0.35542 0.19154 0.0
C311 C 0.15816 0.33472 0.17288 0.0
C312 C 0.136 0.31761 0.15416 0.0
C313 C 0.11564 0.32118 0.154 0.0
H314 H 0.71749 0.76605 0.22592 0.0
N315 N 0.68834 0.76319 0.17203 0.0
H316 H 0.70534 0.73826 0.27791 0.0
H317 H 0.64085 0.72656 0.19002 0.0
H318 H 0.62844 0.6991 0.24158 0.0
H319 H 0.64774 0.74097 0.12669 0.0
H320 H 0.64108 0.71156 0.0759 0.0
H321 H 0.72038 0.75143 0.14552 0.0
H322 H 0.71408 0.72244 0.0956 0.0
H323 H 0.72094 0.8063 0.14106 0.0
H324 H 0.64987 0.76952 0.19581 0.0
H325 H 0.71894 0.84454 0.13592 0.0
H326 H 0.64849 0.80799 0.19318 0.0
H327 H 0.72529 0.95507 0.1964 0.0
H328 H 0.73144 0.98004 0.25187 0.0
H329 H 0.65113 0.94423 0.26252 0.0
H330 H 0.64546 0.91937 0.20745 0.0
H331 H 0.63949 0.90809 0.12694 0.0
H332 H 0.63567 0.93104 0.07676 0.0
H333 H 0.7154 0.98424 0.08102 0.0
H334 H 0.71907 0.96065 0.13027 0.0
H335 H 0.72222 0.918 0.16689 0.0
H336 H 0.72341 0.8791 0.16828 0.0
H337 H 0.6427 0.83494 0.1582 0.0
N338 N 0.68103 0.92158 0.16472 0.0
H339 H 0.6419 0.87412 0.15957 0.0
C340 C 0.68009 0.74868 0.20446 0.0
C341 C 0.69798 0.7517 0.2297 0.0
C342 C 0.69103 0.73568 0.25916 0.0
C343 C 0.66593 0.71637 0.26396 0.0
C344 C 0.64795 0.71379 0.23893 0.0
C345 C 0.65497 0.72961 0.20941 0.0
C346 C 0.68466 0.74831 0.13973 0.0
C347 C 0.66234 0.73718 0.11955 0.0
C348 C 0.65857 0.72045 0.09063 0.0
C349 C 0.67695 0.71455 0.08198 0.0
C350 C 0.69942 0.72638 0.10171 0.0
C351 C 0.7032 0.74308 0.13012 0.0
C352 C 0.68583 0.78506 0.1691 0.0
C353 C 0.70499 0.80656 0.15221 0.0
C354 C 0.7039 0.82852 0.14965 0.0
C355 C 0.68369 0.82969 0.1645 0.0
C356 C 0.66424 0.80789 0.18097 0.0
C357 C 0.66513 0.78574 0.18288 0.0
C358 C 0.68488 0.93526 0.19819 0.0
C359 C 0.7091 0.95246 0.21107 0.0
C360 C 0.71256 0.96677 0.2427 0.0
C361 C 0.69182 0.96427 0.26173 0.0
C362 C 0.66759 0.9468 0.24864 0.0
C363 C 0.66422 0.93245 0.21727 0.0
C364 C 0.67954 0.93278 0.1322 0.0
C365 C 0.65619 0.92424 0.11622 0.0
C366 C 0.65405 0.93732 0.08759 0.0
C367 C 0.67522 0.95944 0.07513 0.0
C368 C 0.69876 0.96726 0.09018 0.0
C369 C 0.70092 0.95387 0.11826 0.0
C370 C 0.68196 0.89882 0.16338 0.0
C371 C 0.70485 0.89989 0.1652 0.0
C372 C 0.70544 0.87754 0.16556 0.0
C373 C 0.68312 0.85361 0.16338 0.0
C374 C 0.66026 0.85282 0.1607 0.0
C375 C 0.65971 0.8752 0.16104 0.0
H376 H 0.08446 0.72614 0.18443 0.0
N377 N 0.07455 0.76348 0.1723 0.0
H378 H 0.07046 0.69783 0.235 0.0
H379 H 0.04768 0.76354 0.22876 0.0
H380 H 0.0334 0.73505 0.28026 0.0
H381 H 0.02971 0.75063 0.14846 0.0
H382 H 0.00633 0.72162 0.09872 0.0
H383 H 0.09313 0.74325 0.12315 0.0
H384 H 0.06976 0.71413 0.07265 0.0
H385 H 0.115 0.77288 0.21504 0.0
H386 H 0.09399 0.80115 0.12515 0.0
H387 H 0.15707 0.80851 0.21195 0.0
H388 H 0.13702 0.83681 0.12128 0.0
H389 H 0.29103 0.92084 0.20719 0.0
H390 H 0.30763 0.94712 0.26153 0.0
H391 H 0.247 0.96169 0.26019 0.0
H392 H 0.23065 0.93531 0.20549 0.0
H393 H 0.25261 0.95386 0.14709 0.0
H394 H 0.27666 0.98023 0.09672 0.0
H395 H 0.29816 0.92616 0.06633 0.0
H396 H 0.27477 0.90027 0.11794 0.0
H397 H 0.23689 0.86349 0.18067 0.0
H398 H 0.19437 0.82661 0.17849 0.0
H399 H 0.1664 0.87525 0.15156 0.0
N400 N 0.25154 0.91138 0.16904 0.0
H401 H 0.20928 0.91177 0.15205 0.0
C402 C 0.06724 0.74711 0.20294 0.0
C403 C 0.07331 0.72823 0.20511 0.0
C404 C 0.06532 0.71209 0.23428 0.0
C405 C 0.05082 0.71419 0.2619 0.0
C406 C 0.04451 0.73291 0.25951 0.0
C407 C 0.05274 0.74926 0.23028 0.0
C408 C 0.06305 0.74916 0.13954 0.0
C409 C 0.03871 0.74308 0.13166 0.0
C410 C 0.02538 0.72638 0.10335 0.0
C411 C 0.03618 0.71545 0.08195 0.0
C412 C 0.06102 0.72232 0.08868 0.0
C413 C 0.07435 0.73894 0.11748 0.0
C414 C 0.10076 0.78348 0.16955 0.0
C415 C 0.11923 0.78619 0.19388 0.0
C416 C 0.14372 0.80687 0.19214 0.0
C417 C 0.15067 0.82557 0.16618 0.0
C418 C 0.13238 0.82294 0.14186 0.0
C419 C 0.10777 0.80232 0.14376 0.0
C420 C 0.25958 0.92588 0.20238 0.0
C421 C 0.28124 0.92954 0.21883 0.0
C422 C 0.2907 0.94469 0.24988 0.0
C423 C 0.27868 0.95666 0.26539 0.0
C424 C 0.25674 0.95279 0.24906 0.0
C425 C 0.24729 0.93758 0.21777 0.0
C426 C 0.26232 0.9253 0.13664 0.0
C427 C 0.26233 0.94755 0.12956 0.0
C428 C 0.27609 0.96261 0.1007 0.0
C429 C 0.28952 0.95538 0.07789 0.0
C430 C 0.28807 0.93224 0.08353 0.0
C431 C 0.27473 0.91746 0.1129 0.0
C432 C 0.22617 0.89029 0.16702 0.0
C433 C 0.22152 0.86607 0.17419 0.0
C434 C 0.19717 0.84507 0.17315 0.0
C435 C 0.17678 0.84788 0.16524 0.0
C436 C 0.18159 0.87226 0.15745 0.0
C437 C 0.20608 0.89326 0.15814 0.0
H438 H 0.36424 0.27616 0.84487 0.0
N439 N 0.31684 0.2383 0.86108 0.0
H440 H 0.37683 0.30451 0.79426 0.0
H441 H 0.28799 0.23621 0.80722 0.0
H442 H 0.30036 0.26469 0.75601 0.0
H443 H 0.28395 0.24912 0.88731 0.0
H444 H 0.28933 0.27756 0.93764 0.0
H445 H 0.35701 0.26085 0.90735 0.0
H446 H 0.36262 0.28955 0.95847 0.0
H447 H 0.35021 0.23039 0.82104 0.0
H448 H 0.29526 0.1997 0.90611 0.0
H449 H 0.35559 0.19453 0.82413 0.0
H450 H 0.30168 0.16411 0.91054 0.0
H451 H 0.37271 0.08284 0.82739 0.0
H452 H 0.36315 0.05587 0.77384 0.0
H453 H 0.28577 0.03559 0.78021 0.0
H454 H 0.29572 0.06271 0.83418 0.0
H455 H 0.29938 0.05025 0.8952 0.0
H456 H 0.29764 0.02445 0.94527 0.0
H457 H 0.37665 0.07566 0.96436 0.0
H458 H 0.37831 0.10105 0.91342 0.0
H459 H 0.37671 0.13807 0.8565 0.0
H460 H 0.37213 0.17507 0.85754 0.0
H461 H 0.29328 0.12648 0.88086 0.0
N462 N 0.34168 0.0902 0.86733 0.0
H463 H 0.29861 0.08998 0.8819 0.0
C464 C 0.32517 0.25387 0.82958 0.0
C465 C 0.35023 0.2734 0.82549 0.0
C466 C 0.35736 0.28961 0.79642 0.0
C467 C 0.33958 0.28693 0.77097 0.0
C468 C 0.31452 0.26733 0.77509 0.0
C469 C 0.30744 0.25094 0.80412 0.0
C470 C 0.31993 0.25286 0.89363 0.0
C471 C 0.30101 0.25759 0.90304 0.0
C472 C 0.30423 0.27396 0.93169 0.0
C473 C 0.3265 0.28593 0.95186 0.0
C474 C 0.34527 0.28054 0.9434 0.0
C475 C 0.34208 0.2642 0.91427 0.0
C476 C 0.32236 0.21825 0.86378 0.0
C477 C 0.33957 0.21637 0.84102 0.0
C478 C 0.3428 0.19564 0.84288 0.0
C479 C 0.32915 0.17628 0.86766 0.0
C480 C 0.31227 0.17836 0.89071 0.0
C481 C 0.30879 0.19891 0.88852 0.0
C482 C 0.33514 0.07503 0.83464 0.0
C483 C 0.35375 0.07271 0.81704 0.0
C484 C 0.34812 0.05715 0.78645 0.0
C485 C 0.32357 0.04341 0.77254 0.0
C486 C 0.30483 0.04584 0.79011 0.0
C487 C 0.31055 0.06148 0.82097 0.0
C488 C 0.33912 0.07734 0.9003 0.0
C489 C 0.31622 0.05616 0.91047 0.0
C490 C 0.31527 0.04146 0.93915 0.0
C491 C 0.33707 0.04796 0.95854 0.0
C492 C 0.35954 0.07025 0.95002 0.0
C493 C 0.36055 0.08471 0.92095 0.0
C494 C 0.33802 0.11136 0.86861 0.0
C495 C 0.3585 0.13556 0.86197 0.0
C496 C 0.35575 0.15662 0.8623 0.0
C497 C 0.33225 0.15388 0.8689 0.0
C498 C 0.31173 0.12948 0.87603 0.0
C499 C 0.31463 0.10845 0.87616 0.0
H500 H 0.71242 0.08235 0.82505 0.0
N501 N 0.75235 0.09383 0.86365 0.0
H502 H 0.69651 0.0552 0.7714 0.0
H503 H 0.7747 0.07084 0.8283 0.0
H504 H 0.75907 0.04367 0.77426 0.0
H505 H 0.75301 0.05257 0.88702 0.0
H506 H 0.72934 0.02613 0.93741 0.0
H507 H 0.7271 0.10356 0.91324 0.0
H508 H 0.70377 0.07739 0.96481 0.0
H509 H 0.76763 0.14161 0.84976 0.0
H510 H 0.79429 0.09346 0.8833 0.0
H511 H 0.81028 0.17832 0.85224 0.0
H512 H 0.8372 0.12972 0.88425 0.0
H513 H 0.92098 0.27807 0.84913 0.0
H514 H 0.9355 0.30614 0.79825 0.0
H515 H 0.97223 0.26815 0.75461 0.0
H516 H 0.95746 0.23993 0.80645 0.0
H517 H 0.97468 0.25249 0.88685 0.0
H518 H 0.99793 0.28116 0.93698 0.0
H519 H 0.93515 0.29004 0.96158 0.0
H520 H 0.91194 0.26131 0.91067 0.0
H521 H 0.89061 0.23086 0.81743 0.0
H522 H 0.84823 0.19571 0.82019 0.0
H523 H 0.86624 0.16843 0.91409 0.0
N524 N 0.93022 0.2404 0.86218 0.0
H525 H 0.90952 0.20356 0.91068 0.0
C526 C 0.74479 0.07892 0.83059 0.0
C527 C 0.72279 0.07414 0.81389 0.0
C528 C 0.71371 0.05846 0.78325 0.0
C529 C 0.72648 0.0471 0.76835 0.0
C530 C 0.74875 0.05207 0.78493 0.0
C531 C 0.7578 0.06777 0.81583 0.0
C532 C 0.74151 0.07989 0.89605 0.0
C533 C 0.74255 0.05831 0.90393 0.0
C534 C 0.72896 0.04319 0.93278 0.0
C535 C 0.71453 0.0496 0.95479 0.0
C536 C 0.71473 0.07201 0.94829 0.0
C537 C 0.72801 0.08693 0.91893 0.0
C538 C 0.7778 0.11485 0.86593 0.0
C539 C 0.78279 0.139 0.85743 0.0
C540 C 0.80722 0.1599 0.85866 0.0
C541 C 0.82735 0.15706 0.86814 0.0
C542 C 0.82221 0.13276 0.87719 0.0
C543 C 0.79767 0.11188 0.87627 0.0
C544 C 0.93801 0.25675 0.83147 0.0
C545 C 0.93219 0.27578 0.82875 0.0
C546 C 0.94048 0.29178 0.7994 0.0
C547 C 0.95501 0.28937 0.77211 0.0
C548 C 0.96112 0.27053 0.77509 0.0
C549 C 0.9526 0.25434 0.80452 0.0
C550 C 0.94167 0.2547 0.89499 0.0
C551 C 0.96578 0.26029 0.90339 0.0
C552 C 0.97904 0.27678 0.93193 0.0
C553 C 0.96839 0.28797 0.95307 0.0
C554 C 0.94377 0.28162 0.94578 0.0
C555 C 0.93053 0.26524 0.91673 0.0
C556 C 0.90383 0.22078 0.86466 0.0
C557 C 0.88585 0.2179 0.83926 0.0
C558 C 0.86118 0.1975 0.84078 0.0
C559 C 0.85358 0.1792 0.86752 0.0
C560 C 0.87139 0.18199 0.8929 0.0
C561 C 0.89615 0.20232 0.89125 0.0
H562 H 0.76558 0.71245 0.8076 0.0
N563 N 0.76293 0.6833 0.86125 0.0
H564 H 0.73734 0.70011 0.75563 0.0
H565 H 0.72422 0.63555 0.84427 0.0
H566 H 0.69645 0.62305 0.79282 0.0
H567 H 0.74024 0.64197 0.90486 0.0
H568 H 0.71172 0.63591 0.95503 0.0
H569 H 0.75501 0.71765 0.89135 0.0
H570 H 0.72719 0.71209 0.94132 0.0
H571 H 0.80794 0.71551 0.88796 0.0
H572 H 0.76437 0.64103 0.83888 0.0
H573 H 0.84394 0.71024 0.89131 0.0
H574 H 0.80045 0.63631 0.8396 0.0
H575 H 0.94798 0.70898 0.84355 0.0
H576 H 0.97544 0.7203 0.79143 0.0
H577 H 0.93843 0.64123 0.75895 0.0
H578 H 0.91049 0.63017 0.81078 0.0
H579 H 0.90577 0.62103 0.89612 0.0
H580 H 0.92911 0.6215 0.94915 0.0
H581 H 0.9658 0.70308 0.95586 0.0
H582 H 0.94145 0.7023 0.9042 0.0
H583 H 0.91129 0.70541 0.85794 0.0
H584 H 0.87508 0.71009 0.85769 0.0
H585 H 0.82685 0.62948 0.87371 0.0
N586 N 0.91085 0.66083 0.86221 0.0
H587 H 0.86334 0.62487 0.87089 0.0
C588 C 0.7474 0.67493 0.82945 0.0
C589 C 0.75066 0.69287 0.80412 0.0
C590 C 0.7344 0.68584 0.7747 0.0
C591 C 0.71466 0.6606 0.77001 0.0
C592 C 0.71156 0.64263 0.79538 0.0
C593 C 0.72758 0.64973 0.82487 0.0
C594 C 0.74947 0.68027 0.89424 0.0
C595 C 0.73767 0.6574 0.91312 0.0
C596 C 0.72147 0.65399 0.9418 0.0
C597 C 0.71697 0.67339 0.95179 0.0
C598 C 0.73001 0.69664 0.93407 0.0
C599 C 0.74602 0.69997 0.90563 0.0
C600 C 0.78349 0.67898 0.86279 0.0
C601 C 0.80623 0.69812 0.87759 0.0
C602 C 0.82687 0.69513 0.87913 0.0
C603 C 0.8254 0.67293 0.86535 0.0
C604 C 0.80239 0.65356 0.85095 0.0
C605 C 0.7816 0.65638 0.85009 0.0
C606 C 0.92672 0.66859 0.83083 0.0
C607 C 0.94532 0.69407 0.82498 0.0
C608 C 0.96122 0.70058 0.79513 0.0
C609 C 0.95922 0.68172 0.771 0.0
C610 C 0.94062 0.65629 0.77704 0.0
C611 C 0.92452 0.64988 0.80651 0.0
C612 C 0.92237 0.66162 0.8958 0.0
C613 C 0.91841 0.6389 0.90967 0.0
C614 C 0.93159 0.63919 0.93998 0.0
C615 C 0.94929 0.66234 0.95635 0.0
C616 C 0.95232 0.685 0.94352 0.0
C617 C 0.93864 0.68462 0.9138 0.0
C618 C 0.88997 0.6646 0.86347 0.0
C619 C 0.89298 0.68868 0.86077 0.0
C620 C 0.87209 0.69137 0.86124 0.0
C621 C 0.84777 0.67015 0.86548 0.0
C622 C 0.84506 0.64621 0.86941 0.0
C623 C 0.86591 0.64351 0.86813 0.0
H624 H 0.72656 0.62772 0.52581 0.0
N625 N 0.76134 0.6762 0.50481 0.0
H626 H 0.69917 0.61612 0.57793 0.0
H627 H 0.75967 0.70688 0.55435 0.0
H628 H 0.73187 0.69548 0.60636 0.0
H629 H 0.76771 0.71604 0.46942 0.0
H630 H 0.74388 0.71567 0.41706 0.0
H631 H 0.72865 0.63443 0.46477 0.0
H632 H 0.70412 0.63385 0.41366 0.0
H633 H 0.76052 0.63133 0.49994 0.0
H634 H 0.80923 0.7125 0.50475 0.0
H635 H 0.79646 0.62624 0.50082 0.0
H636 H 0.8457 0.70783 0.50239 0.0
H637 H 0.90585 0.62269 0.56137 0.0
H638 H 0.93458 0.63511 0.61276 0.0
H639 H 0.97505 0.71213 0.57535 0.0
H640 H 0.94669 0.69955 0.52455 0.0
H641 H 0.93072 0.69276 0.46367 0.0
H642 H 0.95927 0.69855 0.41364 0.0
H643 H 0.94422 0.62266 0.4289 0.0
H644 H 0.91631 0.61734 0.47865 0.0
H645 H 0.86507 0.62299 0.47343 0.0
H646 H 0.82968 0.62914 0.46928 0.0
H647 H 0.86962 0.6972 0.53566 0.0
N648 N 0.90808 0.65175 0.50783 0.0
H649 H 0.90526 0.69192 0.53742 0.0
C650 C 0.7456 0.66835 0.53633 0.0
C651 C 0.72828 0.64269 0.54341 0.0
C652 C 0.7124 0.636 0.57331 0.0
C653 C 0.71322 0.65481 0.59637 0.0
C654 C 0.7306 0.68043 0.58915 0.0
C655 C 0.74662 0.68705 0.55955 0.0
C656 C 0.74959 0.67532 0.47136 0.0
C657 C 0.75428 0.6981 0.4567 0.0
C658 C 0.74079 0.69786 0.42678 0.0
C659 C 0.72211 0.67472 0.41155 0.0
C660 C 0.71836 0.65194 0.4251 0.0
C661 C 0.73223 0.65223 0.45449 0.0
C662 C 0.78218 0.67238 0.50338 0.0
C663 C 0.77895 0.64812 0.50124 0.0
C664 C 0.79974 0.64526 0.50105 0.0
C665 C 0.82425 0.66661 0.50189 0.0
C666 C 0.82727 0.69088 0.50272 0.0
C667 C 0.80645 0.69366 0.50375 0.0
C668 C 0.92377 0.66019 0.53948 0.0
C669 C 0.92078 0.64228 0.56469 0.0
C670 C 0.93733 0.64935 0.59377 0.0
C671 C 0.95712 0.6746 0.59821 0.0
C672 C 0.95995 0.69253 0.57296 0.0
C673 C 0.94363 0.68539 0.54383 0.0
C674 C 0.92164 0.6546 0.47498 0.0
C675 C 0.9334 0.67732 0.45576 0.0
C676 C 0.94962 0.68059 0.4272 0.0
C677 C 0.95423 0.66119 0.41766 0.0
C678 C 0.94131 0.6381 0.43578 0.0
C679 C 0.92524 0.6349 0.4641 0.0
C680 C 0.8879 0.65671 0.50584 0.0
C681 C 0.86621 0.63936 0.48679 0.0
C682 C 0.84586 0.6428 0.4848 0.0
C683 C 0.84648 0.66357 0.50244 0.0
C684 C 0.86841 0.68116 0.52121 0.0
C685 C 0.88896 0.67797 0.52257 0.0
H686 H 0.38408 0.09901 0.56151 0.0
N687 N 0.3552 0.09514 0.50649 0.0
H688 H 0.37213 0.07112 0.61341 0.0
H689 H 0.30819 0.05641 0.52251 0.0
H690 H 0.29601 0.0288 0.57387 0.0
H691 H 0.31512 0.07277 0.46014 0.0
H692 H 0.30948 0.04403 0.409 0.0
H693 H 0.38803 0.08424 0.4804 0.0
H694 H 0.38267 0.05583 0.43008 0.0
H695 H 0.38392 0.13793 0.47182 0.0
H696 H 0.31632 0.09941 0.53481 0.0
H697 H 0.37871 0.17428 0.46699 0.0
H698 H 0.312 0.13605 0.53248 0.0
H699 H 0.38064 0.27823 0.53116 0.0
H700 H 0.3895 0.30473 0.58543 0.0
H701 H 0.31014 0.27403 0.59961 0.0
H702 H 0.30162 0.24752 0.54563 0.0
H703 H 0.29552 0.2355 0.46025 0.0
H704 H 0.29547 0.26013 0.40938 0.0
H705 H 0.37563 0.30909 0.41934 0.0
H706 H 0.37556 0.28387 0.46917 0.0
H707 H 0.378 0.24591 0.49647 0.0
H708 H 0.38247 0.20899 0.49746 0.0
H709 H 0.3018 0.1601 0.49899 0.0
N710 N 0.33432 0.24578 0.50157 0.0
H711 H 0.29789 0.19746 0.50121 0.0
C712 C 0.34703 0.08007 0.53846 0.0
C713 C 0.36478 0.08389 0.5645 0.0
C714 C 0.35795 0.06782 0.59391 0.0
C715 C 0.33311 0.04769 0.59787 0.0
C716 C 0.3153 0.04417 0.57189 0.0
C717 C 0.3222 0.06002 0.54243 0.0
C718 C 0.35211 0.08062 0.47395 0.0
C719 C 0.33001 0.06937 0.45324 0.0
C720 C 0.32681 0.05299 0.42412 0.0
C721 C 0.34553 0.04754 0.41572 0.0
C722 C 0.36778 0.05946 0.43596 0.0
C723 C 0.371 0.07582 0.46461 0.0
C724 C 0.35078 0.11586 0.50379 0.0
C725 C 0.36804 0.13737 0.4848 0.0
C726 C 0.36514 0.15829 0.48243 0.0
C727 C 0.34503 0.15845 0.49962 0.0
C728 C 0.32754 0.13668 0.51833 0.0
C729 C 0.33017 0.11556 0.52004 0.0
C730 C 0.34031 0.26063 0.5345 0.0
C731 C 0.36514 0.27694 0.54616 0.0
C732 C 0.37022 0.29222 0.57723 0.0
C733 C 0.3506 0.29166 0.59698 0.0
C734 C 0.32582 0.27513 0.58517 0.0
C735 C 0.32081 0.25983 0.55439 0.0
C736 C 0.33544 0.25812 0.46872 0.0
C737 C 0.31311 0.25116 0.45073 0.0
C738 C 0.31312 0.26515 0.42168 0.0
C739 C 0.33551 0.2866 0.41063 0.0
C740 C 0.35807 0.29271 0.42747 0.0
C741 C 0.35808 0.27839 0.45603 0.0
C742 C 0.33759 0.22438 0.4998 0.0
C743 C 0.36135 0.22728 0.49771 0.0
C744 C 0.3638 0.20597 0.49763 0.0
C745 C 0.3425 0.18127 0.49862 0.0
C746 C 0.31872 0.17863 0.49929 0.0
C747 C 0.31637 0.19995 0.50019 0.0
H748 H 0.75126 0.06165 0.51582 0.0
N749 N 0.74092 0.09863 0.50317 0.0
H750 H 0.73754 0.03362 0.5667 0.0
H751 H 0.71367 0.09846 0.55931 0.0
H752 H 0.69967 0.07023 0.6111 0.0
H753 H 0.69565 0.0836 0.47844 0.0
H754 H 0.67364 0.05422 0.42831 0.0
H755 H 0.76142 0.08003 0.45465 0.0
H756 H 0.73951 0.05074 0.40377 0.0
H757 H 0.78121 0.10845 0.54668 0.0
H758 H 0.76037 0.13656 0.45641 0.0
H759 H 0.82323 0.14414 0.54382 0.0
H760 H 0.80339 0.17232 0.45278 0.0
H761 H 0.95737 0.25585 0.53921 0.0
H762 H 0.97393 0.28235 0.59339 0.0
H763 H 0.91368 0.29745 0.59082 0.0
H764 H 0.89738 0.27088 0.53629 0.0
H765 H 0.91905 0.28868 0.47758 0.0
H766 H 0.94339 0.31489 0.42725 0.0
H767 H 0.96568 0.26114 0.39887 0.0
H768 H 0.94192 0.23537 0.45042 0.0
H769 H 0.90311 0.19858 0.51254 0.0
H770 H 0.86048 0.16189 0.51043 0.0
H771 H 0.83303 0.21084 0.4827 0.0
N772 N 0.9181 0.2465 0.50057 0.0
H773 H 0.87602 0.24716 0.48311 0.0
C774 C 0.73361 0.08231 0.53387 0.0
C775 C 0.73998 0.06365 0.53637 0.0
C776 C 0.73216 0.04768 0.56572 0.0
C777 C 0.71754 0.04971 0.59319 0.0
C778 C 0.71089 0.06816 0.59045 0.0
C779 C 0.71895 0.08436 0.56105 0.0
C780 C 0.73011 0.08412 0.47027 0.0
C781 C 0.70547 0.07683 0.46189 0.0
C782 C 0.69292 0.05993 0.43338 0.0
C783 C 0.70483 0.05007 0.41225 0.0
C784 C 0.72991 0.0581 0.41955 0.0
C785 C 0.74243 0.07486 0.44857 0.0
C786 C 0.76706 0.11895 0.50096 0.0
C787 C 0.78546 0.12175 0.52551 0.0
C788 C 0.80993 0.14247 0.5239 0.0
C789 C 0.81695 0.16112 0.49785 0.0
C790 C 0.7987 0.15848 0.47342 0.0
C791 C 0.77409 0.13781 0.4752 0.0
C792 C 0.92612 0.26115 0.5338 0.0
C793 C 0.94765 0.26472 0.55055 0.0
C794 C 0.9571 0.28 0.5815 0.0
C795 C 0.94517 0.29218 0.59662 0.0
C796 C 0.92334 0.28839 0.58 0.0
C797 C 0.91393 0.27307 0.5488 0.0
C798 C 0.92907 0.26027 0.46811 0.0
C799 C 0.92899 0.2824 0.46048 0.0
C800 C 0.94292 0.29736 0.43165 0.0
C801 C 0.95666 0.29018 0.40942 0.0
C802 C 0.95534 0.26716 0.4156 0.0
C803 C 0.9418 0.25246 0.44495 0.0
C804 C 0.89267 0.22552 0.49849 0.0
C805 C 0.88783 0.20127 0.5059 0.0
C806 C 0.86341 0.18038 0.5049 0.0
C807 C 0.84313 0.18333 0.49682 0.0
C808 C 0.84812 0.20774 0.48875 0.0
C809 C 0.87269 0.22863 0.48939 0.0
H810 H 0.03011 0.61001 0.17813 0.0
N811 N 0.98279 0.57224 0.19488 0.0
H812 H 0.0424 0.63851 0.12778 0.0
H813 H 0.95354 0.57057 0.14189 0.0
H814 H 0.96562 0.59921 0.09091 0.0
H815 H 0.95015 0.58294 0.22243 0.0
H816 H 0.95603 0.61128 0.27313 0.0
H817 H 0.02342 0.59465 0.24036 0.0
H818 H 0.02956 0.62329 0.29184 0.0
H819 H 0.01556 0.56425 0.15336 0.0
H820 H 0.96179 0.53359 0.23991 0.0
H821 H 0.02103 0.52842 0.15561 0.0
H822 H 0.96828 0.498 0.24341 0.0
H823 H 0.03932 0.41709 0.1584 0.0
H824 H 0.02972 0.39009 0.10485 0.0
H825 H 0.95237 0.36988 0.11129 0.0
H826 H 0.96236 0.39705 0.16521 0.0
H827 H 0.96613 0.38414 0.22594 0.0
H828 H 0.96453 0.35849 0.27611 0.0
H829 H 0.04334 0.41042 0.29579 0.0
H830 H 0.04488 0.43567 0.24474 0.0
H831 H 0.043 0.47237 0.18698 0.0
H832 H 0.03818 0.50921 0.18845 0.0
H833 H 0.9596 0.46035 0.2132 0.0
N834 N 0.0083 0.42446 0.19837 0.0
H835 H 0.96518 0.42397 0.21369 0.0
C836 C 0.9909 0.58795 0.16353 0.0
C837 C 0.01596 0.6074 0.15912 0.0
C838 C 0.02292 0.6237 0.13019 0.0
C839 C 0.00497 0.62121 0.10519 0.0
C840 C 0.9799 0.60171 0.10964 0.0
C841 C 0.97299 0.58523 0.13854 0.0
C842 C 0.9862 0.58669 0.22766 0.0
C843 C 0.96736 0.59138 0.23778 0.0
C844 C 0.97088 0.6077 0.26664 0.0
C845 C 0.99337 0.61966 0.2863 0.0
C846 C 0.01205 0.61429 0.27716 0.0
C847 C 0.00856 0.59799 0.24782 0.0
C848 C 0.98833 0.55217 0.19696 0.0
C849 C 0.0052 0.55026 0.17349 0.0
C850 C 0.00847 0.52953 0.17485 0.0
C851 C 0.99519 0.51019 0.19978 0.0
C852 C 0.97859 0.51225 0.22346 0.0
C853 C 0.97508 0.53281 0.2218 0.0
C854 C 0.00176 0.40931 0.16566 0.0
C855 C 0.02036 0.40698 0.14806 0.0
C856 C 0.01471 0.3914 0.11747 0.0
C857 C 0.99016 0.37767 0.10359 0.0
C858 C 0.97144 0.38014 0.12117 0.0
C859 C 0.97717 0.39579 0.152 0.0
C860 C 0.00578 0.41159 0.23131 0.0
C861 C 0.98296 0.39024 0.24133 0.0
C862 C 0.98209 0.37562 0.27008 0.0
C863 C 0.00387 0.38238 0.28968 0.0
C864 C 0.02625 0.40481 0.28128 0.0
C865 C 0.02718 0.41919 0.25215 0.0
C866 C 0.00447 0.44551 0.19974 0.0
C867 C 0.0248 0.46975 0.19283 0.0
C868 C 0.02191 0.49073 0.19342 0.0
C869 C 0.99842 0.48786 0.20058 0.0
C870 C 0.97804 0.46343 0.20793 0.0
C871 C 0.98108 0.44247 0.20777 0.0
H872 H 0.62005 0.5694 0.13951 0.0
N873 N 0.59629 0.57257 0.19787 0.0
H874 H 0.6342 0.59709 0.08705 0.0
H875 H 0.58854 0.6114 0.18588 0.0
H876 H 0.60222 0.63872 0.13429 0.0
H877 H 0.57739 0.59233 0.24716 0.0
H878 H 0.60089 0.62215 0.29702 0.0
H879 H 0.64154 0.58647 0.22087 0.0
H880 H 0.66503 0.61611 0.26993 0.0
H881 H 0.58086 0.52977 0.23269 0.0
H882 H 0.55303 0.56799 0.17016 0.0
H883 H 0.53847 0.49313 0.23719 0.0
H884 H 0.51152 0.53118 0.17196 0.0
H885 H 0.43878 0.39247 0.16569 0.0
H886 H 0.42218 0.36669 0.11076 0.0
H887 H 0.36813 0.39012 0.10295 0.0
H888 H 0.38509 0.41598 0.15773 0.0
H889 H 0.39592 0.43162 0.24671 0.0
H890 H 0.37198 0.40658 0.29871 0.0
H891 H 0.3967 0.35408 0.27571 0.0
H892 H 0.4214 0.37975 0.22513 0.0
H893 H 0.46515 0.42113 0.20705 0.0
H894 H 0.5073 0.45833 0.20737 0.0
H895 H 0.47598 0.50649 0.20345 0.0
N896 N 0.42148 0.42073 0.19927 0.0
H897 H 0.43414 0.46888 0.19932 0.0
C898 C 0.60299 0.58808 0.16639 0.0
C899 C 0.61599 0.58442 0.13818 0.0
C900 C 0.62419 0.60033 0.10842 0.0
C901 C 0.61928 0.62006 0.10635 0.0
C902 C 0.60619 0.6236 0.13473 0.0
C903 C 0.59832 0.60796 0.16443 0.0
C904 C 0.60782 0.58714 0.23038 0.0
C905 C 0.59635 0.5971 0.25253 0.0
C906 C 0.60976 0.61414 0.28092 0.0
C907 C 0.63484 0.62163 0.28714 0.0
C908 C 0.6458 0.61091 0.26568 0.0
C909 C 0.6324 0.59382 0.23778 0.0
C910 C 0.57058 0.5518 0.20099 0.0
C911 C 0.56568 0.53026 0.21981 0.0
C912 C 0.54137 0.50915 0.22195 0.0
C913 C 0.52126 0.5088 0.20466 0.0
C914 C 0.52619 0.53062 0.18625 0.0
C915 C 0.55037 0.55191 0.18483 0.0
C916 C 0.41328 0.40644 0.16577 0.0
C917 C 0.42362 0.39238 0.15201 0.0
C918 C 0.414 0.37748 0.12051 0.0
C919 C 0.39374 0.37618 0.10234 0.0
C920 C 0.38367 0.39049 0.11615 0.0
C921 C 0.39338 0.40542 0.14741 0.0
C922 C 0.41003 0.40731 0.23174 0.0
C923 C 0.39651 0.41497 0.25346 0.0
C924 C 0.38289 0.40069 0.28307 0.0
C925 C 0.38221 0.37822 0.29087 0.0
C926 C 0.39667 0.3712 0.27002 0.0
C927 C 0.41076 0.38581 0.24102 0.0
C928 C 0.44657 0.44228 0.20175 0.0
C929 C 0.46744 0.43967 0.20528 0.0
C930 C 0.49163 0.46116 0.20627 0.0
C931 C 0.49542 0.48576 0.20501 0.0
C932 C 0.47418 0.48808 0.20323 0.0
C933 C 0.45014 0.46659 0.20121 0.0
H934 H 0.5886 0.9598 0.15389 0.0
N935 N 0.57541 0.98666 0.19475 0.0
H936 H 0.61685 0.97383 0.10246 0.0
H937 H 0.59774 0.03383 0.1646 0.0
H938 H 0.626 0.04817 0.11293 0.0
H939 H 0.61435 0.03051 0.22368 0.0
H940 H 0.6409 0.03376 0.27342 0.0
H941 H 0.56734 0.95009 0.23941 0.0
H942 H 0.59383 0.95325 0.28997 0.0
H943 H 0.52917 0.95373 0.17295 0.0
H944 H 0.57461 0.02818 0.22115 0.0
H945 H 0.49285 0.95884 0.17435 0.0
H946 H 0.53872 0.03379 0.22183 0.0
H947 H 0.39628 0.96723 0.17281 0.0
H948 H 0.36752 0.95452 0.12228 0.0
H949 H 0.4007 0.03312 0.09385 0.0
H950 H 0.42954 0.04561 0.14503 0.0
H951 H 0.42419 0.05031 0.22473 0.0
H952 H 0.39653 0.04499 0.27492 0.0
H953 H 0.3785 0.96775 0.28616 0.0
H954 H 0.40662 0.97344 0.23565 0.0
H955 H 0.44372 0.9903 0.14236 0.0
H956 H 0.47801 0.98297 0.14481 0.0
H957 H 0.49867 0.01936 0.24981 0.0
N958 N 0.4314 0.01561 0.1937 0.0
H959 H 0.46444 0.0273 0.2473 0.0
C960 C 0.59079 0.99551 0.1629 0.0
C961 C 0.59653 0.97903 0.14482 0.0
C962 C 0.61283 0.98722 0.11553 0.0
C963 C 0.62385 0.01226 0.10347 0.0
C964 C 0.61793 0.02881 0.12145 0.0
C965 C 0.6016 0.02055 0.15096 0.0
C966 C 0.58892 0.98993 0.22759 0.0
C967 C 0.60939 0.01361 0.23829 0.0
C968 C 0.62463 0.01543 0.26677 0.0
C969 C 0.61957 0.9937 0.28536 0.0
C970 C 0.59817 0.97031 0.27617 0.0
C971 C 0.58304 0.96847 0.24736 0.0
C972 C 0.55455 0.99046 0.19686 0.0
C973 C 0.53126 0.97119 0.1838 0.0
C974 C 0.51061 0.97422 0.18444 0.0
C975 C 0.51283 0.99676 0.19813 0.0
C976 C 0.53622 0.01605 0.21154 0.0
C977 C 0.55687 0.01294 0.21095 0.0
C978 C 0.41525 0.00742 0.16248 0.0
C979 C 0.39741 0.98172 0.15572 0.0
C980 C 0.38098 0.97452 0.12665 0.0
C981 C 0.38176 0.99282 0.10385 0.0
C982 C 0.39954 0.01854 0.11082 0.0
C983 C 0.41613 0.02571 0.13985 0.0
C984 C 0.41733 0.01236 0.2263 0.0
C985 C 0.4146 0.0324 0.23841 0.0
C986 C 0.39871 0.02923 0.26702 0.0
C987 C 0.38516 0.00584 0.2843 0.0
C988 C 0.38873 0.98598 0.27337 0.0
C989 C 0.40466 0.98917 0.24443 0.0
C990 C 0.45026 0.00851 0.19552 0.0
C991 C 0.45491 0.99623 0.16658 0.0
C992 C 0.47483 0.99204 0.16783 0.0
C993 C 0.49103 1.00035 0.19762 0.0
C994 C 0.48664 0.01277 0.22635 0.0
C995 C 0.46675 0.01699 0.22512 0.0
H996 H 0.3964 0.96154 0.86219 0.0
N997 N 0.42956 0.01027 0.84098 0.0
H998 H 0.36751 0.94897 0.91322 0.0
H999 H 0.42401 0.04021 0.8875 0.0
H1000 H 0.3953 0.02803 0.93834 0.0
H1001 H 0.43396 0.04969 0.80652 0.0
H1002 H 0.40985 0.04874 0.75414 0.0
H1003 H 0.39719 0.96823 0.80085 0.0
H1004 H 0.3722 0.96705 0.74981 0.0
H1005 H 0.44391 0.98984 0.89418 0.0
H1006 H 0.45931 0.01501 0.78409 0.0
H1007 H 0.47742 0.98116 0.89142 0.0
H1008 H 0.49317 0.00659 0.78208 0.0
H1009 H 0.58653 0.95421 0.87616 0.0
H1010 H 0.61421 0.96799 0.92889 0.0
H1011 H 0.62113 0.04139 0.92569 0.0
H1012 H 0.59369 0.02745 0.87367 0.0
H1013 H 0.6105 0.0281 0.81371 0.0
H1014 H 0.63763 0.03543 0.76186 0.0
H1015 H 0.59895 0.95485 0.7399 0.0
H1016 H 0.57087 0.94761 0.79082 0.0
H1017 H 0.52747 0.94849 0.86024 0.0
H1018 H 0.49049 0.95269 0.85966 0.0
H1019 H 0.53494 0.02669 0.81348 0.0
N1020 N 0.5735 0.98164 0.83824 0.0
H1021 H 0.5715 0.02262 0.81445 0.0
C1022 C 0.41252 0.00195 0.87121 0.0
C1023 C 0.39612 0.97611 0.87858 0.0
C1024 C 0.3797 0.96895 0.90792 0.0
C1025 C 0.37904 0.98744 0.93 0.0
C1026 C 0.39521 0.0132 0.92202 0.0
C1027 C 0.41174 0.02029 0.89305 0.0
C1028 C 0.41698 0.00908 0.80801 0.0
C1029 C 0.42087 0.03166 0.7937 0.0
C1030 C 0.40725 0.0311 0.76374 0.0
C1031 C 0.38915 0.00782 0.74811 0.0
C1032 C 0.38599 0.98524 0.76153 0.0
C1033 C 0.40005 0.98586 0.7909 0.0
C1034 C 0.44743 0.00181 0.83855 0.0
C1035 C 0.45356 0.99265 0.86883 0.0
C1036 C 0.47308 0.98783 0.86751 0.0
C1037 C 0.48775 0.99294 0.83645 0.0
C1038 C 0.48208 0.00234 0.80637 0.0
C1039 C 0.46236 0.00685 0.80746 0.0
C1040 C 0.58797 0.9897 0.87102 0.0
C1041 C 0.59386 0.97315 0.88729 0.0
C1042 C 0.6097 0.98107 0.91732 0.0
C1043 C 0.62009 0.00585 0.93148 0.0
C1044 C 0.61367 0.0222 0.91548 0.0
C1045 C 0.59782 0.01424 0.88564 0.0
C1046 C 0.58826 0.98716 0.80589 0.0
C1047 C 0.6071 0.01203 0.79705 0.0
C1048 C 0.62266 0.01627 0.76736 0.0
C1049 C 0.62016 0.99572 0.74687 0.0
C1050 C 0.60106 0.97101 0.75521 0.0
C1051 C 0.58509 0.96684 0.78422 0.0
C1052 C 0.55228 0.98497 0.83714 0.0
C1053 C 0.52915 0.96557 0.84995 0.0
C1054 C 0.50813 0.96802 0.84966 0.0
C1055 C 0.50981 0.98993 0.83622 0.0
C1056 C 0.53298 0.00939 0.8234 0.0
C1057 C 0.55403 0.00705 0.82406 0.0
H1058 H 0.96447 0.58593 0.87709 0.0
N1059 N 0.995 0.57761 0.83754 0.0
H1060 H 0.9745 0.6135 0.93008 0.0
H1061 H 0.04106 0.60469 0.87069 0.0
H1062 H 0.05146 0.63238 0.92406 0.0
H1063 H 0.0375 0.61739 0.80971 0.0
H1064 H 0.0396 0.64295 0.75916 0.0
H1065 H 0.95854 0.56689 0.79119 0.0
H1066 H 0.96056 0.5921 0.73977 0.0
H1067 H 0.96016 0.52967 0.84841 0.0
H1068 H 0.03815 0.57802 0.82255 0.0
H1069 H 0.96479 0.49271 0.84619 0.0
H1070 H 0.04355 0.54158 0.82252 0.0
H1071 H 0.97365 0.39126 0.85525 0.0
H1072 H 0.96177 0.3631 0.90596 0.0
H1073 H 0.0384 0.4042 0.94357 0.0
H1074 H 0.05007 0.4325 0.89221 0.0
H1075 H 0.05411 0.42041 0.81134 0.0
H1076 H 0.04913 0.39257 0.76041 0.0
H1077 H 0.9749 0.37863 0.74135 0.0
H1078 H 0.98016 0.4068 0.79308 0.0
H1079 H 0.98683 0.43678 0.87943 0.0
H1080 H 0.98124 0.47257 0.8779 0.0
H1081 H 0.03523 0.50449 0.79175 0.0
N1082 N 0.02061 0.42987 0.83883 0.0
H1083 H 0.04191 0.46901 0.79473 0.0
C1084 C 0.00178 0.59298 0.87008 0.0
C1085 C 0.98343 0.59586 0.88742 0.0
C1086 C 0.98933 0.61178 0.91767 0.0
C1087 C 0.01391 0.62531 0.9315 0.0
C1088 C 0.03238 0.6223 0.9142 0.0
C1089 C 0.0264 0.60632 0.88369 0.0
C1090 C 0.99772 0.59046 0.8045 0.0
C1091 C 0.02072 0.61149 0.79431 0.0
C1092 C 0.02188 0.62607 0.76534 0.0
C1093 C 1.00019 0.6196 0.74571 0.0
C1094 C 0.97759 0.59748 0.75431 0.0
C1095 C 0.97638 0.58313 0.78366 0.0
C1096 C 0.9988 0.55653 0.83621 0.0
C1097 C 0.97837 0.53226 0.84268 0.0
C1098 C 0.98114 0.51121 0.84164 0.0
C1099 C 0.00462 0.51402 0.8345 0.0
C1100 C 0.02511 0.53851 0.82771 0.0
C1101 C 0.02218 0.55952 0.82824 0.0
C1102 C 0.01275 0.41418 0.87019 0.0
C1103 C 0.98786 0.39433 0.87447 0.0
C1104 C 0.98113 0.37823 0.90361 0.0
C1105 C 0.99916 0.38135 0.92895 0.0
C1106 C 0.02407 0.40122 0.92457 0.0
C1107 C 0.03074 0.4175 0.89546 0.0
C1108 C 0.01764 0.41565 0.80597 0.0
C1109 C 0.03693 0.41164 0.79587 0.0
C1110 C 0.03393 0.39562 0.76687 0.0
C1111 C 0.01152 0.38327 0.74704 0.0
C1112 C 0.99237 0.38796 0.75615 0.0
C1113 C 0.99535 0.40398 0.78564 0.0
C1114 C 0.01482 0.44975 0.83681 0.0
C1115 C 0.99746 0.45114 0.85986 0.0
C1116 C 0.99411 0.47183 0.85889 0.0
C1117 C 0.00774 0.49161 0.83469 0.0
C1118 C 0.02468 0.48995 0.81123 0.0
C1119 C 0.0283 0.46945 0.81256 0.0
H1120 H 0.4182 0.39261 0.85022 0.0
N1121 N 0.40784 0.42952 0.83723 0.0
H1122 H 0.40409 0.3644 0.90095 0.0
H1123 H 0.38073 0.42961 0.89336 0.0
H1124 H 0.36631 0.40121 0.94497 0.0
H1125 H 0.36287 0.4159 0.81301 0.0
H1126 H 0.33993 0.38665 0.76325 0.0
H1127 H 0.42703 0.40962 0.78861 0.0
H1128 H 0.40412 0.38026 0.73809 0.0
H1129 H 0.44881 0.43921 0.87894 0.0
H1130 H 0.42639 0.46762 0.79091 0.0
H1131 H 0.49059 0.4754 0.87584 0.0
H1132 H 0.46912 0.50382 0.78687 0.0
H1133 H 0.62291 0.58856 0.87235 0.0
H1134 H 0.63915 0.61452 0.92704 0.0
H1135 H 0.57896 0.62971 0.9246 0.0
H1136 H 0.56298 0.60366 0.86951 0.0
H1137 H 0.58518 0.62202 0.81103 0.0
H1138 H 0.60982 0.64842 0.76096 0.0
H1139 H 0.63127 0.59413 0.73177 0.0
H1140 H 0.60732 0.56826 0.78309 0.0
H1141 H 0.56995 0.53175 0.84443 0.0
H1142 H 0.5277 0.49444 0.84236 0.0
H1143 H 0.49846 0.54223 0.8168 0.0
N1144 N 0.58381 0.57953 0.83355 0.0
H1145 H 0.54112 0.57918 0.81706 0.0
C1146 C 0.40068 0.4134 0.86814 0.0
C1147 C 0.40692 0.39466 0.87071 0.0
C1148 C 0.39883 0.37857 0.89995 0.0
C1149 C 0.38406 0.38055 0.92725 0.0
C1150 C 0.37763 0.39916 0.92448 0.0
C1151 C 0.38595 0.41547 0.89519 0.0
C1152 C 0.39656 0.415 0.80453 0.0
C1153 C 0.37213 0.40853 0.79641 0.0
C1154 C 0.35905 0.39169 0.76809 0.0
C1155 C 0.37019 0.38102 0.74692 0.0
C1156 C 0.3951 0.38825 0.75393 0.0
C1157 C 0.40818 0.40501 0.78274 0.0
C1158 C 0.4339 0.44992 0.83447 0.0
C1159 C 0.45268 0.45271 0.85821 0.0
C1160 C 0.477 0.47371 0.85643 0.0
C1161 C 0.48349 0.49261 0.83093 0.0
C1162 C 0.46486 0.48984 0.80713 0.0
C1163 C 0.44042 0.46892 0.80912 0.0
C1164 C 0.59171 0.59395 0.86697 0.0
C1165 C 0.61314 0.59735 0.88381 0.0
C1166 C 0.6224 0.61232 0.91506 0.0
C1167 C 0.61039 0.62435 0.9304 0.0
C1168 C 0.58868 0.62076 0.91363 0.0
C1169 C 0.57945 0.60574 0.88213 0.0
C1170 C 0.59482 0.59337 0.80116 0.0
C1171 C 0.59501 0.61568 0.7938 0.0
C1172 C 0.60911 0.63075 0.76513 0.0
C1173 C 0.62271 0.62347 0.74274 0.0
C1174 C 0.62107 0.60027 0.74862 0.0
C1175 C 0.6074 0.58548 0.77784 0.0
C1176 C 0.55859 0.55815 0.83141 0.0
C1177 C 0.55436 0.53404 0.83824 0.0
C1178 C 0.53015 0.5128 0.83729 0.0
C1179 C 0.50946 0.51522 0.82985 0.0
C1180 C 0.51386 0.5395 0.82234 0.0
C1181 C 0.53822 0.56075 0.8229 0.0
H1182 H 0.70214 0.94694 0.5109 0.0
N1183 N 0.65484 0.90865 0.52656 0.0
H1184 H 0.71472 0.97516 0.46008 0.0
H1185 H 0.62625 0.90569 0.47182 0.0
H1186 H 0.63858 0.93399 0.42045 0.0
H1187 H 0.62105 0.91843 0.55181 0.0
H1188 H 0.6252 0.94631 0.60223 0.0
H1189 H 0.69452 0.93178 0.57357 0.0
H1190 H 0.69894 0.96 0.62481 0.0
H1191 H 0.68937 0.90127 0.48906 0.0
H1192 H 0.63169 0.86945 0.57027 0.0
H1193 H 0.69405 0.86494 0.49211 0.0
H1194 H 0.63748 0.8335 0.57503 0.0
H1195 H 0.707 0.75087 0.49223 0.0
H1196 H 0.69689 0.72371 0.43877 0.0
H1197 H 0.61974 0.70407 0.44626 0.0
H1198 H 0.63023 0.73135 0.50009 0.0
H1199 H 0.63391 0.71914 0.56094 0.0
H1200 H 0.63194 0.69315 0.61089 0.0
H1201 H 0.7112 0.74338 0.62925 0.0
H1202 H 0.71309 0.76892 0.57837 0.0
H1203 H 0.71237 0.80634 0.52351 0.0
H1204 H 0.70878 0.84392 0.52507 0.0
H1205 H 0.62934 0.79633 0.54534 0.0
N1206 N 0.67642 0.75859 0.53268 0.0
H1207 H 0.63373 0.75927 0.54625 0.0
C1208 C 0.66325 0.92405 0.49493 0.0
C1209 C 0.68822 0.94385 0.49114 0.0
C1210 C 0.69534 0.95999 0.46196 0.0
C1211 C 0.67763 0.95692 0.43611 0.0
C1212 C 0.65269 0.93695 0.43985 0.0
C1213 C 0.64563 0.92067 0.46898 0.0
C1214 C 0.65734 0.92306 0.559 0.0
C1215 C 0.63795 0.92717 0.56793 0.0
C1216 C 0.64048 0.94321 0.59664 0.0
C1217 C 0.66251 0.95548 0.61734 0.0
C1218 C 0.68176 0.95074 0.60933 0.0
C1219 C 0.67926 0.9347 0.58013 0.0
C1220 C 0.6601 0.88847 0.5297 0.0
C1221 C 0.67796 0.88686 0.50817 0.0
C1222 C 0.68079 0.86588 0.51008 0.0
C1223 C 0.66617 0.84608 0.53382 0.0
C1224 C 0.64878 0.84803 0.5559 0.0
C1225 C 0.64565 0.86879 0.55355 0.0
C1226 C 0.66958 0.74339 0.5 0.0
C1227 C 0.68797 0.74085 0.48213 0.0
C1228 C 0.68203 0.72517 0.45161 0.0
C1229 C 0.65738 0.71156 0.43805 0.0
C1230 C 0.63887 0.71423 0.45589 0.0
C1231 C 0.6449 0.72997 0.48667 0.0
C1232 C 0.67379 0.74571 0.56563 0.0
C1233 C 0.65076 0.72479 0.57599 0.0
C1234 C 0.64968 0.70998 0.60461 0.0
C1235 C 0.67147 0.71616 0.62375 0.0
C1236 C 0.6941 0.73822 0.61508 0.0
C1237 C 0.69524 0.75277 0.58605 0.0
C1238 C 0.67332 0.78009 0.53412 0.0
C1239 C 0.69425 0.80418 0.52843 0.0
C1240 C 0.69206 0.82559 0.52904 0.0
C1241 C 0.66869 0.82331 0.5349 0.0
C1242 C 0.64771 0.799 0.5411 0.0
C1243 C 0.65006 0.77764 0.54108 0.0
H1244 H 0.28976 0.90291 0.47419 0.0
N1245 N 0.26488 0.90522 0.5318 0.0
H1246 H 0.30425 0.93089 0.42202 0.0
H1247 H 0.25667 0.9437 0.51948 0.0
H1248 H 0.27078 0.97137 0.46824 0.0
H1249 H 0.24564 0.92484 0.58077 0.0
H1250 H 0.26869 0.95435 0.63112 0.0
H1251 H 0.31 0.9191 0.55555 0.0
H1252 H 0.33306 0.94847 0.60511 0.0
H1253 H 0.24844 0.86369 0.57043 0.0
H1254 H 0.22228 0.89925 0.49908 0.0
H1255 H 0.2059 0.8272 0.57468 0.0
H1256 H 0.18068 0.86261 0.5012 0.0
H1257 H 0.10791 0.72748 0.49851 0.0
H1258 H 0.0911 0.7017 0.44347 0.0
H1259 H 0.03466 0.72216 0.4394 0.0
H1260 H 0.05179 0.74794 0.49414 0.0
H1261 H 0.06556 0.76587 0.58299 0.0
H1262 H 0.0411 0.74051 0.6344 0.0
H1263 H 0.06231 0.68567 0.60784 0.0
H1264 H 0.0875 0.71162 0.5577 0.0
H1265 H 0.13274 0.75421 0.54463 0.0
H1266 H 0.17516 0.79128 0.54486 0.0
H1267 H 0.14465 0.8397 0.53352 0.0
N1268 N 0.08948 0.75406 0.5339 0.0
H1269 H 0.10263 0.80224 0.5302 0.0
C1270 C 0.2719 0.92097 0.5005 0.0
C1271 C 0.28547 0.91775 0.4727 0.0
C1272 C 0.29387 0.93383 0.44312 0.0
C1273 C 0.28863 0.95333 0.44082 0.0
C1274 C 0.27504 0.95647 0.46885 0.0
C1275 C 0.26693 0.94063 0.49836 0.0
C1276 C 0.2762 0.91971 0.56448 0.0
C1277 C 0.26455 0.92957 0.58646 0.0
C1278 C 0.27771 0.94644 0.61515 0.0
C1279 C 0.30272 0.95387 0.62185 0.0
C1280 C 0.31387 0.94329 0.60051 0.0
C1281 C 0.30072 0.92637 0.57231 0.0
C1282 C 0.23905 0.88453 0.53462 0.0
C1283 C 0.23361 0.86369 0.55566 0.0
C1284 C 0.20924 0.84265 0.5577 0.0
C1285 C 0.18958 0.84165 0.53815 0.0
C1286 C 0.19502 0.86266 0.51729 0.0
C1287 C 0.21926 0.88387 0.51581 0.0
C1288 C 0.08119 0.7399 0.50031 0.0
C1289 C 0.09215 0.7267 0.48555 0.0
C1290 C 0.08242 0.71181 0.45405 0.0
C1291 C 0.06145 0.7097 0.43689 0.0
C1292 C 0.05077 0.72318 0.45175 0.0
C1293 C 0.06056 0.73806 0.483 0.0
C1294 C 0.07801 0.74046 0.56628 0.0
C1295 C 0.0653 0.74864 0.58884 0.0
C1296 C 0.05135 0.73415 0.6181 0.0
C1297 C 0.04952 0.71096 0.62477 0.0
C1298 C 0.06317 0.70335 0.60306 0.0
C1299 C 0.07757 0.71815 0.57436 0.0
C1300 C 0.11463 0.77552 0.53629 0.0
C1301 C 0.13531 0.77279 0.54147 0.0
C1302 C 0.1596 0.79417 0.54225 0.0
C1303 C 0.16365 0.81876 0.53881 0.0
C1304 C 0.14261 0.82123 0.53512 0.0
C1305 C 0.11848 0.79985 0.53355 0.0
H1306 H 0.2535 0.29368 0.48812 0.0
N1307 N 0.24195 0.32203 0.52851 0.0
H1308 H 0.2821 0.30651 0.43718 0.0
H1309 H 0.26666 0.36933 0.49858 0.0
H1310 H 0.29535 0.38252 0.44739 0.0
H1311 H 0.28098 0.36518 0.55864 0.0
H1312 H 0.3063 0.36737 0.60946 0.0
H1313 H 0.23207 0.28486 0.57309 0.0
H1314 H 0.2573 0.28694 0.6247 0.0
H1315 H 0.19544 0.28917 0.50782 0.0
H1316 H 0.24216 0.36457 0.55233 0.0
H1317 H 0.15949 0.29486 0.50888 0.0
H1318 H 0.20664 0.37081 0.55251 0.0
H1319 H 0.06327 0.3038 0.50648 0.0
H1320 H 0.03449 0.29069 0.45597 0.0
H1321 H 0.06825 0.36895 0.42539 0.0
H1322 H 0.09711 0.38187 0.47664 0.0
H1323 H 0.09095 0.38672 0.55668 0.0
H1324 H 0.06288 0.38113 0.60639 0.0
H1325 H 0.04611 0.30441 0.61884 0.0
H1326 H 0.07469 0.31038 0.56884 0.0
H1327 H 0.11015 0.32554 0.47597 0.0
H1328 H 0.14444 0.31827 0.47839 0.0
H1329 H 0.16714 0.35766 0.58123 0.0
N1330 N 0.09878 0.35229 0.52625 0.0
H1331 H 0.13286 0.36557 0.57868 0.0
C1332 C 0.25768 0.33031 0.49698 0.0
C1333 C 0.26242 0.31302 0.47911 0.0
C1334 C 0.27892 0.32052 0.45007 0.0
C1335 C 0.29119 0.34567 0.43809 0.0
C1336 C 0.2863 0.36305 0.45588 0.0
C1337 C 0.26974 0.35546 0.48512 0.0
C1338 C 0.25474 0.32472 0.56182 0.0
C1339 C 0.27534 0.34809 0.5732 0.0
C1340 C 0.28985 0.3493 0.60231 0.0
C1341 C 0.28389 0.32726 0.62085 0.0
C1342 C 0.26229 0.30423 0.611 0.0
C1343 C 0.24792 0.30299 0.58156 0.0
C1344 C 0.22142 0.32636 0.52981 0.0
C1345 C 0.19791 0.30699 0.51767 0.0
C1346 C 0.17746 0.31036 0.51813 0.0
C1347 C 0.18015 0.33334 0.53068 0.0
C1348 C 0.20379 0.35275 0.5431 0.0
C1349 C 0.22423 0.3493 0.54273 0.0
C1350 C 0.08255 0.34386 0.49512 0.0
C1351 C 0.06452 0.31814 0.48896 0.0
C1352 C 0.04807 0.3107 0.45989 0.0
C1353 C 0.04903 0.32879 0.43647 0.0
C1354 C 0.06695 0.35454 0.44287 0.0
C1355 C 0.08356 0.36194 0.47192 0.0
C1356 C 0.08477 0.34905 0.5589 0.0
C1357 C 0.08157 0.36888 0.57056 0.0
C1358 C 0.06543 0.36555 0.59888 0.0
C1359 C 0.05207 0.34219 0.61629 0.0
C1360 C 0.05616 0.32259 0.6059 0.0
C1361 C 0.07237 0.32595 0.57727 0.0
C1362 C 0.11776 0.34535 0.52806 0.0
C1363 C 0.12181 0.33221 0.49972 0.0
C1364 C 0.14174 0.32803 0.50096 0.0
C1365 C 0.15848 0.33715 0.53013 0.0
C1366 C 0.15469 0.35044 0.55823 0.0
C1367 C 0.13479 0.35466 0.55701 0.0
loop_
_geom_bond_atom_site_label_1
_geom_bond_atom_site_label_2
_geom_bond_distance
_geom_bond_site_symmetry_2
_ccdc_geom_bond_type
Co0 O1 2.216 . S
Co0 O2 2.091 . S
Co0 O4 2.004 1_554 S
Co0 O10 2.021 . S
Co0 O12 2.137 1_454 S
Co0 O13 2.244 1_455 S
O1 Co0 2.216 . S
O1 C8 1.247 . S
O2 Co0 2.091 . S
O2 C8 1.261 . S
C3 O12 1.247 . S
C3 O13 1.272 1_556 S
O4 Co0 2.004 1_556 S
O4 C9 1.259 1_455 S
Co5 O6 2.061 1_554 S
Co5 O11 2.052 . S
Co5 O13 2.135 . S
O6 Co5 2.061 1_556 S
O6 C9 1.235 . S
C7 O10 1.238 1_655 S
C7 O11 1.241 . S
C8 O1 1.247 . S
C8 O2 1.261 . S
C9 O4 1.259 1_655 S
C9 O6 1.235 . S
O10 Co0 2.021 . S
O10 C7 1.238 1_455 S
O11 Co5 2.052 . S
O11 C7 1.241 . S
O12 Co0 2.137 1_656 S
O12 C3 1.247 . S
O13 Co0 2.244 1_655 S
O13 C3 1.272 1_554 S
O13 Co5 2.135 . S
Co14 O15 2.216 1_554 S
Co14 O16 2.091 . S
Co14 O18 2.004 . S
Co14 O24 2.021 1_554 S
Co14 O26 2.137 . S
Co14 O27 2.244 . S
O15 Co14 2.216 1_556 S
O15 C22 1.247 . S
O16 Co14 2.091 . S
O16 C22 1.261 1_554 S
C17 O26 1.247 . S
C17 O27 1.272 . S
O18 Co14 2.004 . S
O18 C23 1.259 . S
Co19 O20 2.061 . S
Co19 O25 2.052 1_554 S
Co19 O27 2.135 . S
O20 Co19 2.061 . S
O20 C23 1.235 . S
C21 O24 1.238 . S
C21 O25 1.241 . S
C22 O15 1.247 . S
C22 O16 1.261 1_556 S
C23 O18 1.259 . S
C23 O20 1.235 . S
O24 Co14 2.021 1_556 S
O24 C21 1.238 . S
O25 Co19 2.052 1_556 S
O25 C21 1.241 . S
O26 Co14 2.137 . S
O26 C17 1.247 . S
O27 Co14 2.244 . S
O27 C17 1.272 . S
O27 Co19 2.135 . S
Co28 O29 2.216 1_554 S
Co28 O30 2.091 . S
Co28 O32 2.004 . S
Co28 O38 2.021 1_554 S
Co28 O40 2.137 1_545 S
Co28 O41 2.244 1_545 S
O29 Co28 2.216 1_556 S
O29 C36 1.247 . S
O30 Co28 2.091 . S
O30 C36 1.261 1_554 S
C31 O40 1.247 . S
C31 O41 1.272 . S
O32 Co28 2.004 . S
O32 C37 1.265 . S
Co33 O34 2.061 . S
Co33 O39 2.052 1_554 S
Co33 O41 2.135 . S
O34 Co33 2.061 . S
O34 C37 1.230 1_565 S
C35 O38 1.238 1_565 S
C35 O39 1.241 . S
C36 O29 1.247 . S
C36 O30 1.261 1_556 S
C37 O32 1.265 . S
C37 O34 1.230 1_545 S
O38 Co28 2.021 1_556 S
O38 C35 1.238 1_545 S
O39 Co33 2.052 1_556 S
O39 C35 1.241 . S
O40 Co28 2.137 1_565 S
O40 C31 1.247 . S
O41 Co28 2.244 1_565 S
O41 C31 1.272 . S
O41 Co33 2.135 . S
Co42 O43 2.216 1_554 S
Co42 O44 2.091 . S
Co42 O46 2.004 . S
Co42 O52 2.021 1_554 S
Co42 O54 2.137 1_655 S
Co42 O55 2.244 1_655 S
O43 Co42 2.216 1_556 S
O43 C50 1.247 . S
O44 Co42 2.091 . S
O44 C50 1.261 1_554 S
C45 O54 1.247 . S
C45 O55 1.272 . S
O46 Co42 2.004 . S
O46 C51 1.259 1_655 S
Co47 O48 2.061 . S
Co47 O53 2.052 1_554 S
Co47 O55 2.135 . S
O48 Co47 2.061 . S
O48 C51 1.235 . S
C49 O52 1.238 1_455 S
C49 O53 1.241 . S
C50 O43 1.247 . S
C50 O44 1.261 1_556 S
C51 O46 1.259 1_455 S
C51 O48 1.235 . S
O52 Co42 2.021 1_556 S
O52 C49 1.238 1_655 S
O53 Co47 2.052 1_556 S
O53 C49 1.241 . S
O54 Co42 2.137 1_455 S
O54 C45 1.247 . S
O55 Co42 2.244 1_455 S
O55 C45 1.272 . S
O55 Co47 2.135 . S
Co56 O57 2.216 . S
Co56 O58 2.091 . S
Co56 O60 2.004 1_554 S
Co56 O66 2.021 . S
Co56 O68 2.137 1_554 S
Co56 O69 2.244 . S
O57 Co56 2.216 . S
O57 C64 1.247 . S
O58 Co56 2.091 . S
O58 C64 1.261 . S
C59 O68 1.247 . S
C59 O69 1.272 1_556 S
O60 Co56 2.004 1_556 S
O60 C65 1.259 . S
Co61 O62 2.061 1_554 S
Co61 O67 2.052 . S
Co61 O69 2.135 . S
O62 Co61 2.061 1_556 S
O62 C65 1.235 . S
C63 O66 1.238 . S
C63 O67 1.241 . S
C64 O57 1.247 . S
C64 O58 1.261 . S
C65 O60 1.259 . S
C65 O62 1.235 . S
O66 Co56 2.021 . S
O66 C63 1.238 . S
O67 Co61 2.052 . S
O67 C63 1.241 . S
O68 Co56 2.137 1_556 S
O68 C59 1.247 . S
O69 Co56 2.244 . S
O69 C59 1.272 1_554 S
O69 Co61 2.135 . S
Co70 O71 2.216 . S
Co70 O72 2.091 . S
Co70 O74 2.004 1_554 S
Co70 O80 2.021 . S
Co70 O82 2.137 1_564 S
Co70 O83 2.244 1_565 S
O71 Co70 2.216 . S
O71 C78 1.247 . S
O72 Co70 2.091 . S
O72 C78 1.261 . S
C73 O82 1.247 . S
C73 O83 1.272 1_556 S
O74 Co70 2.004 1_556 S
O74 C79 1.259 1_565 S
Co75 O76 2.061 1_554 S
Co75 O81 2.052 . S
Co75 O83 2.135 . S
O76 Co75 2.061 1_556 S
O76 C79 1.235 . S
C77 O80 1.238 1_545 S
C77 O81 1.241 . S
C78 O71 1.247 . S
C78 O72 1.261 . S
C79 O74 1.259 1_545 S
C79 O76 1.235 . S
O80 Co70 2.021 . S
O80 C77 1.238 1_565 S
O81 Co75 2.052 . S
O81 C77 1.241 . S
O82 Co70 2.137 1_546 S
O82 C73 1.247 . S
O83 Co70 2.244 1_545 S
O83 C73 1.272 1_554 S
O83 Co75 2.135 . S
Co84 O85 2.216 . S
Co84 O86 2.091 . S
Co84 O88 2.004 . S
Co84 O94 2.021 . S
Co84 O96 2.137 . S
Co84 O97 2.244 . S
O85 Co84 2.216 . S
O85 C92 1.247 . S
O86 Co84 2.091 . S
O86 C92 1.261 . S
C87 O96 1.247 . S
C87 O97 1.272 . S
O88 Co84 2.004 . S
O88 C93 1.259 . S
Co89 O90 2.061 . S
Co89 O95 2.052 . S
Co89 O97 2.135 . S
O90 Co89 2.061 . S
O90 C93 1.235 . S
C91 O94 1.238 . S
C91 O95 1.241 . S
C92 O85 1.247 . S
C92 O86 1.261 . S
C93 O88 1.259 . S
C93 O90 1.235 . S
O94 Co84 2.021 . S
O94 C91 1.238 . S
O95 Co89 2.052 . S
O95 C91 1.241 . S
O96 Co84 2.137 . S
O96 C87 1.247 . S
O97 Co84 2.244 . S
O97 C87 1.272 . S
O97 Co89 2.135 . S
Co98 O99 2.216 . S
Co98 O100 2.091 . S
Co98 O102 2.004 . S
Co98 O108 2.021 . S
Co98 O110 2.137 1_565 S
Co98 O111 2.244 . S
O99 Co98 2.216 . S
O99 C106 1.247 . S
O100 Co98 2.091 . S
O100 C106 1.261 . S
C101 O110 1.247 . S
C101 O111 1.272 1_545 S
O102 Co98 2.004 . S
O102 C107 1.259 . S
Co103 O104 2.061 . S
Co103 O109 2.052 . S
Co103 O111 2.135 . S
O104 Co103 2.061 . S
O104 C107 1.235 . S
C105 O108 1.238 . S
C105 O109 1.241 . S
C106 O99 1.247 . S
C106 O100 1.261 . S
C107 O102 1.259 . S
C107 O104 1.235 . S
O108 Co98 2.021 . S
O108 C105 1.238 . S
O109 Co103 2.052 . S
O109 C105 1.241 . S
O110 Co98 2.137 1_545 S
O110 C101 1.247 . S
O111 Co98 2.244 . S
O111 C101 1.272 1_565 S
O111 Co103 2.135 . S
Co112 O113 2.216 . S
Co112 O114 2.091 . S
Co112 O116 2.004 . S
Co112 O122 2.021 . S
Co112 O124 2.137 1_455 S
Co112 O125 2.244 . S
O113 Co112 2.216 . S
O113 C120 1.247 . S
O114 Co112 2.091 . S
O114 C120 1.261 . S
C115 O124 1.247 . S
C115 O125 1.272 1_655 S
O116 Co112 2.004 . S
O116 C121 1.259 . S
Co117 O118 2.061 . S
Co117 O123 2.052 . S
Co117 O125 2.135 . S
O118 Co117 2.061 . S
O118 C121 1.235 . S
C119 O122 1.238 . S
C119 O123 1.241 . S
C120 O113 1.247 . S
C120 O114 1.261 . S
C121 O116 1.259 . S
C121 O118 1.235 . S
O122 Co112 2.021 . S
O122 C119 1.238 . S
O123 Co117 2.052 . S
O123 C119 1.241 . S
O124 Co112 2.137 1_655 S
O124 C115 1.247 . S
O125 Co112 2.244 . S
O125 C115 1.272 1_455 S
O125 Co117 2.135 . S
Co126 O127 2.216 . S
Co126 O128 2.091 . S
Co126 O130 2.004 . S
Co126 O136 2.021 . S
Co126 O138 2.137 1_565 S
Co126 O139 2.244 . S
O127 Co126 2.216 . S
O127 C134 1.247 . S
O128 Co126 2.091 . S
O128 C134 1.261 . S
C129 O138 1.247 . S
C129 O139 1.272 1_545 S
O130 Co126 2.004 . S
O130 C135 1.259 . S
Co131 O132 2.061 . S
Co131 O137 2.052 . S
Co131 O139 2.135 . S
O132 Co131 2.061 . S
O132 C135 1.235 . S
C133 O136 1.238 . S
C133 O137 1.241 . S
C134 O127 1.247 . S
C134 O128 1.261 . S
C135 O130 1.259 . S
C135 O132 1.235 . S
O136 Co126 2.021 . S
O136 C133 1.238 . S
O137 Co131 2.052 . S
O137 C133 1.241 . S
O138 Co126 2.137 1_545 S
O138 C129 1.247 . S
O139 Co126 2.244 . S
O139 C129 1.272 1_565 S
O139 Co131 2.135 . S
Co140 O141 2.216 1_455 S
Co140 O142 2.091 1_455 S
Co140 O144 2.004 . S
Co140 O150 2.021 . S
Co140 O152 2.137 . S
Co140 O153 2.244 . S
O141 Co140 2.216 1_655 S
O141 C148 1.247 . S
O142 Co140 2.091 1_655 S
O142 C148 1.261 . S
C143 O152 1.247 . S
C143 O153 1.272 . S
O144 Co140 2.004 . S
O144 C149 1.259 . S
Co145 O146 2.061 . S
Co145 O151 2.052 . S
Co145 O153 2.135 . S
O146 Co145 2.061 . S
O146 C149 1.235 . S
C147 O150 1.238 . S
C147 O151 1.241 . S
C148 O141 1.247 . S
C148 O142 1.261 . S
C149 O144 1.259 . S
C149 O146 1.235 . S
O150 Co140 2.021 . S
O150 C147 1.238 . S
O151 Co145 2.052 . S
O151 C147 1.241 . S
O152 Co140 2.137 . S
O152 C143 1.247 . S
O153 Co140 2.244 . S
O153 C143 1.272 . S
O153 Co145 2.135 . S
Co154 O155 2.216 . S
Co154 O156 2.091 . S
Co154 O158 2.004 . S
Co154 O164 2.021 . S
Co154 O166 2.137 . S
Co154 O167 2.244 . S
O155 Co154 2.216 . S
O155 C162 1.247 . S
O156 Co154 2.091 . S
O156 C162 1.261 . S
C157 O166 1.247 . S
C157 O167 1.272 . S
O158 Co154 2.004 . S
O158 C163 1.259 . S
Co159 O160 2.061 . S
Co159 O165 2.052 . S
Co159 O167 2.135 . S
O160 Co159 2.061 . S
O160 C163 1.235 . S
C161 O164 1.238 . S
C161 O165 1.241 . S
C162 O155 1.247 . S
C162 O156 1.261 . S
C163 O158 1.259 . S
C163 O160 1.235 . S
O164 Co154 2.021 . S
O164 C161 1.238 . S
O165 Co159 2.052 . S
O165 C161 1.241 . S
O166 Co154 2.137 . S
O166 C157 1.247 . S
O167 Co154 2.244 . S
O167 C157 1.272 . S
O167 Co159 2.135 . S
Co168 O169 2.216 . S
Co168 O170 2.091 . S
Co168 O172 2.004 . S
Co168 O178 2.021 . S
Co168 O180 2.137 1_545 S
Co168 O181 2.244 . S
O169 Co168 2.216 . S
O169 C176 1.247 . S
O170 Co168 2.091 . S
O170 C176 1.261 . S
C171 O180 1.247 . S
C171 O181 1.272 1_565 S
O172 Co168 2.004 . S
O172 C177 1.259 . S
Co173 O174 2.061 . S
Co173 O179 2.052 . S
Co173 O181 2.135 . S
O174 Co173 2.061 . S
O174 C177 1.235 . S
C175 O178 1.238 . S
C175 O179 1.241 . S
C176 O169 1.247 . S
C176 O170 1.261 . S
C177 O172 1.259 . S
C177 O174 1.235 . S
O178 Co168 2.021 . S
O178 C175 1.238 . S
O179 Co173 2.052 . S
O179 C175 1.241 . S
O180 Co168 2.137 1_565 S
O180 C171 1.247 . S
O181 Co168 2.244 . S
O181 C171 1.272 1_545 S
O181 Co173 2.135 . S
Co182 O183 2.216 1_655 S
Co182 O184 2.091 1_655 S
Co182 O186 2.004 . S
Co182 O192 2.021 . S
Co182 O194 2.137 . S
Co182 O195 2.244 . S
O183 Co182 2.216 1_455 S
O183 C190 1.247 . S
O184 Co182 2.091 1_455 S
O184 C190 1.261 . S
C185 O194 1.247 . S
C185 O195 1.272 . S
O186 Co182 2.004 . S
O186 C191 1.259 . S
Co187 O188 2.061 . S
Co187 O193 2.052 . S
Co187 O195 2.135 . S
O188 Co187 2.061 . S
O188 C191 1.235 . S
C189 O192 1.238 . S
C189 O193 1.241 . S
C190 O183 1.247 . S
C190 O184 1.261 . S
C191 O186 1.259 . S
C191 O188 1.235 . S
O192 Co182 2.021 . S
O192 C189 1.238 . S
O193 Co187 2.052 . S
O193 C189 1.241 . S
O194 Co182 2.137 . S
O194 C185 1.247 . S
O195 Co182 2.244 . S
O195 C185 1.272 . S
O195 Co187 2.135 . S
Co196 O197 2.216 . S
Co196 O198 2.091 . S
Co196 O200 2.004 . S
Co196 O206 2.021 . S
Co196 O208 2.137 . S
Co196 O209 2.244 . S
O197 Co196 2.216 . S
O197 C204 1.247 . S
O198 Co196 2.091 . S
O198 C204 1.261 . S
C199 O208 1.247 . S
C199 O209 1.272 . S
O200 Co196 2.004 . S
O200 C205 1.259 . S
Co201 O202 2.061 . S
Co201 O207 2.052 . S
Co201 O209 2.135 . S
O202 Co201 2.061 . S
O202 C205 1.235 . S
C203 O206 1.238 . S
C203 O207 1.241 . S
C204 O197 1.247 . S
C204 O198 1.261 . S
C205 O200 1.259 . S
C205 O202 1.235 . S
O206 Co196 2.021 . S
O206 C203 1.238 . S
O207 Co201 2.052 . S
O207 C203 1.241 . S
O208 Co196 2.137 . S
O208 C199 1.247 . S
O209 Co196 2.244 . S
O209 C199 1.272 . S
O209 Co201 2.135 . S
Co210 O211 2.216 . S
Co210 O212 2.091 . S
Co210 O214 2.004 . S
Co210 O220 2.021 . S
Co210 O222 2.137 . S
Co210 O223 2.244 . S
O211 Co210 2.216 . S
O211 C218 1.247 . S
O212 Co210 2.091 . S
O212 C218 1.261 . S
C213 O222 1.247 . S
C213 O223 1.272 . S
O214 Co210 2.004 . S
O214 C219 1.259 . S
Co215 O216 2.061 . S
Co215 O221 2.052 . S
Co215 O223 2.135 . S
O216 Co215 2.061 . S
O216 C219 1.235 . S
C217 O220 1.238 . S
C217 O221 1.241 . S
C218 O211 1.247 . S
C218 O212 1.261 . S
C219 O214 1.259 . S
C219 O216 1.235 . S
O220 Co210 2.021 . S
O220 C217 1.238 . S
O221 Co215 2.052 . S
O221 C217 1.241 . S
O222 Co210 2.137 . S
O222 C213 1.247 . S
O223 Co210 2.244 . S
O223 C213 1.272 . S
O223 Co215 2.135 . S
Co224 O225 2.216 . S
Co224 O226 2.091 . S
Co224 O228 2.004 . S
Co224 O234 2.021 . S
Co224 O236 2.137 1_545 S
Co224 O237 2.244 . S
O225 Co224 2.216 . S
O225 C232 1.247 . S
O226 Co224 2.091 . S
O226 C232 1.261 . S
C227 O236 1.247 . S
C227 O237 1.272 1_565 S
O228 Co224 2.004 . S
O228 C233 1.259 . S
Co229 O230 2.061 . S
Co229 O235 2.052 . S
Co229 O237 2.135 . S
O230 Co229 2.061 . S
O230 C233 1.235 . S
C231 O234 1.238 . S
C231 O235 1.241 . S
C232 O225 1.247 . S
C232 O226 1.261 . S
C233 O228 1.259 . S
C233 O230 1.235 . S
O234 Co224 2.021 . S
O234 C231 1.238 . S
O235 Co229 2.052 . S
O235 C231 1.241 . S
O236 Co224 2.137 1_565 S
O236 C227 1.247 . S
O237 Co224 2.244 . S
O237 C227 1.272 1_545 S
O237 Co229 2.135 . S
Co238 O239 2.216 . S
Co238 O240 2.091 . S
Co238 O242 2.004 . S
Co238 O248 2.021 . S
Co238 O250 2.137 1_655 S
Co238 O251 2.244 . S
O239 Co238 2.216 . S
O239 C246 1.247 . S
O240 Co238 2.091 . S
O240 C246 1.261 . S
C241 O250 1.247 . S
C241 O251 1.272 1_455 S
O242 Co238 2.004 . S
O242 C247 1.259 . S
Co243 O244 2.061 . S
Co243 O249 2.052 . S
Co243 O251 2.135 . S
O244 Co243 2.061 . S
O244 C247 1.235 . S
C245 O248 1.238 . S
C245 O249 1.241 . S
C246 O239 1.247 . S
C246 O240 1.261 . S
C247 O242 1.259 . S
C247 O244 1.235 . S
O248 Co238 2.021 . S
O248 C245 1.238 . S
O249 Co243 2.052 . S
O249 C245 1.241 . S
O250 Co238 2.137 1_455 S
O250 C241 1.247 . S
O251 Co238 2.244 . S
O251 C241 1.272 1_655 S
O251 Co243 2.135 . S
H252 C279 0.929 . S
N253 C278 1.433 . S
N253 C284 1.435 . S
N253 C290 1.423 . S
H254 C280 0.930 . S
H255 C283 0.931 . S
H256 C282 0.929 . S
H257 C285 0.930 . S
H258 C286 0.932 . S
H259 C289 0.929 . S
H260 C288 0.931 . S
H261 C291 0.929 . S
H262 C295 0.932 . S
H263 C292 0.931 . S
H264 C294 0.929 . S
H265 C297 0.929 . S
H266 C298 0.930 . S
H267 C300 0.929 . S
H268 C301 0.931 . S
H269 C303 0.930 . S
H270 C304 0.932 . S
H271 C306 0.931 . S
H272 C307 0.929 . S
H273 C309 0.929 . S
H274 C310 0.931 . S
H275 C312 0.929 . S
N276 C296 1.433 . S
N276 C302 1.435 . S
N276 C308 1.423 . S
H277 C313 0.932 . S
C278 N253 1.433 . S
C278 C279 1.363 . S
C278 C283 1.370 . S
C279 H252 0.929 . S
C279 C278 1.363 . S
C279 C280 1.385 . S
C280 H254 0.930 . S
C280 C279 1.385 . S
C280 C281 1.357 . S
C281 C280 1.357 . S
C281 C282 1.406 . S
C282 H256 0.929 . S
C282 C281 1.406 . S
C282 C283 1.391 . S
C283 H255 0.931 . S
C283 C278 1.370 . S
C283 C282 1.391 . S
C284 N253 1.435 . S
C284 C285 1.358 . S
C284 C289 1.371 . S
C285 H257 0.930 . S
C285 C284 1.358 . S
C285 C286 1.405 . S
C286 H258 0.932 . S
C286 C285 1.405 . S
C286 C287 1.383 . S
C287 C286 1.383 . S
C287 C288 1.393 . S
C288 H260 0.931 . S
C288 C287 1.393 . S
C288 C289 1.382 . S
C289 H259 0.929 . S
C289 C284 1.371 . S
C289 C288 1.382 . S
C290 N253 1.423 . S
C290 C291 1.362 . S
C290 C295 1.388 . S
C291 H261 0.929 . S
C291 C290 1.362 . S
C291 C292 1.376 . S
C292 H263 0.931 . S
C292 C291 1.376 . S
C292 C293 1.396 . S
C293 C292 1.396 . S
C293 C294 1.348 . S
C293 C311 1.472 . S
C294 H264 0.929 . S
C294 C293 1.348 . S
C294 C295 1.443 . S
C295 H262 0.932 . S
C295 C290 1.388 . S
C295 C294 1.443 . S
C296 N276 1.433 . S
C296 C297 1.363 . S
C296 C301 1.370 . S
C297 H265 0.929 . S
C297 C296 1.363 . S
C297 C298 1.385 . S
C298 H266 0.930 . S
C298 C297 1.385 . S
C298 C299 1.357 . S
C299 C298 1.357 . S
C299 C300 1.406 . S
C300 H267 0.929 . S
C300 C299 1.406 . S
C300 C301 1.391 . S
C301 H268 0.931 . S
C301 C296 1.370 . S
C301 C300 1.391 . S
C302 N276 1.435 . S
C302 C303 1.358 . S
C302 C307 1.371 . S
C303 H269 0.930 . S
C303 C302 1.358 . S
C303 C304 1.405 . S
C304 H270 0.932 . S
C304 C303 1.405 . S
C304 C305 1.383 . S
C305 C304 1.383 . S
C305 C306 1.393 . S
C306 H271 0.931 . S
C306 C305 1.393 . S
C306 C307 1.382 . S
C307 H272 0.929 . S
C307 C302 1.371 . S
C307 C306 1.382 . S
C308 N276 1.423 . S
C308 C309 1.362 . S
C308 C313 1.388 . S
C309 H273 0.929 . S
C309 C308 1.362 . S
C309 C310 1.376 . S
C310 H274 0.931 . S
C310 C309 1.376 . S
C310 C311 1.396 . S
C311 C293 1.472 . S
C311 C310 1.396 . S
C311 C312 1.348 . S
C312 H275 0.929 . S
C312 C311 1.348 . S
C312 C313 1.443 . S
C313 H277 0.932 . S
C313 C308 1.388 . S
C313 C312 1.443 . S
H314 C341 0.929 . S
N315 C340 1.433 . S
N315 C346 1.435 . S
N315 C352 1.423 . S
H316 C342 0.930 . S
H317 C345 0.931 . S
H318 C344 0.929 . S
H319 C347 0.930 . S
H320 C348 0.932 . S
H321 C351 0.929 . S
H322 C350 0.931 . S
H323 C353 0.929 . S
H324 C357 0.932 . S
H325 C354 0.931 . S
H326 C356 0.929 . S
H327 C359 0.929 . S
H328 C360 0.930 . S
H329 C362 0.929 . S
H330 C363 0.931 . S
H331 C365 0.930 . S
H332 C366 0.932 . S
H333 C368 0.931 . S
H334 C369 0.929 . S
H335 C371 0.929 . S
H336 C372 0.931 . S
H337 C374 0.929 . S
N338 C358 1.433 . S
N338 C364 1.435 . S
N338 C370 1.423 . S
H339 C375 0.932 . S
C340 N315 1.433 . S
C340 C341 1.363 . S
C340 C345 1.370 . S
C341 H314 0.929 . S
C341 C340 1.363 . S
C341 C342 1.385 . S
C342 H316 0.930 . S
C342 C341 1.385 . S
C342 C343 1.357 . S
C343 C342 1.357 . S
C343 C344 1.406 . S
C344 H318 0.929 . S
C344 C343 1.406 . S
C344 C345 1.391 . S
C345 H317 0.931 . S
C345 C340 1.370 . S
C345 C344 1.391 . S
C346 N315 1.435 . S
C346 C347 1.358 . S
C346 C351 1.371 . S
C347 H319 0.930 . S
C347 C346 1.358 . S
C347 C348 1.405 . S
C348 H320 0.932 . S
C348 C347 1.405 . S
C348 C349 1.383 . S
C349 C348 1.383 . S
C349 C350 1.393 . S
C350 H322 0.931 . S
C350 C349 1.393 . S
C350 C351 1.382 . S
C351 H321 0.929 . S
C351 C346 1.371 . S
C351 C350 1.382 . S
C352 N315 1.423 . S
C352 C353 1.362 . S
C352 C357 1.388 . S
C353 H323 0.929 . S
C353 C352 1.362 . S
C353 C354 1.376 . S
C354 H325 0.931 . S
C354 C353 1.376 . S
C354 C355 1.396 . S
C355 C354 1.396 . S
C355 C356 1.348 . S
C355 C373 1.472 . S
C356 H326 0.929 . S
C356 C355 1.348 . S
C356 C357 1.443 . S
C357 H324 0.932 . S
C357 C352 1.388 . S
C357 C356 1.443 . S
C358 N338 1.433 . S
C358 C359 1.363 . S
C358 C363 1.370 . S
C359 H327 0.929 . S
C359 C358 1.363 . S
C359 C360 1.385 . S
C360 H328 0.930 . S
C360 C359 1.385 . S
C360 C361 1.357 . S
C361 C360 1.357 . S
C361 C362 1.406 . S
C362 H329 0.929 . S
C362 C361 1.406 . S
C362 C363 1.391 . S
C363 H330 0.931 . S
C363 C358 1.370 . S
C363 C362 1.391 . S
C364 N338 1.435 . S
C364 C365 1.358 . S
C364 C369 1.371 . S
C365 H331 0.930 . S
C365 C364 1.358 . S
C365 C366 1.405 . S
C366 H332 0.932 . S
C366 C365 1.405 . S
C366 C367 1.383 . S
C367 C366 1.383 . S
C367 C368 1.393 . S
C368 H333 0.931 . S
C368 C367 1.393 . S
C368 C369 1.382 . S
C369 H334 0.929 . S
C369 C364 1.371 . S
C369 C368 1.382 . S
C370 N338 1.423 . S
C370 C371 1.362 . S
C370 C375 1.388 . S
C371 H335 0.929 . S
C371 C370 1.362 . S
C371 C372 1.376 . S
C372 H336 0.931 . S
C372 C371 1.376 . S
C372 C373 1.396 . S
C373 C355 1.472 . S
C373 C372 1.396 . S
C373 C374 1.348 . S
C374 H337 0.929 . S
C374 C373 1.348 . S
C374 C375 1.443 . S
C375 H339 0.932 . S
C375 C370 1.388 . S
C375 C374 1.443 . S
H376 C403 0.929 . S
N377 C402 1.433 . S
N377 C408 1.435 . S
N377 C414 1.423 . S
H378 C404 0.930 . S
H379 C407 0.931 . S
H380 C406 0.929 . S
H381 C409 0.930 . S
H382 C410 0.932 . S
H383 C413 0.929 . S
H384 C412 0.931 . S
H385 C415 0.929 . S
H386 C419 0.932 . S
H387 C416 0.931 . S
H388 C418 0.929 . S
H389 C421 0.929 . S
H390 C422 0.930 . S
H391 C424 0.929 . S
H392 C425 0.931 . S
H393 C427 0.930 . S
H394 C428 0.932 . S
H395 C430 0.931 . S
H396 C431 0.929 . S
H397 C433 0.929 . S
H398 C434 0.931 . S
H399 C436 0.929 . S
N400 C420 1.433 . S
N400 C426 1.435 . S
N400 C432 1.423 . S
H401 C437 0.932 . S
C402 N377 1.433 . S
C402 C403 1.363 . S
C402 C407 1.370 . S
C403 H376 0.929 . S
C403 C402 1.363 . S
C403 C404 1.385 . S
C404 H378 0.930 . S
C404 C403 1.385 . S
C404 C405 1.357 . S
C405 C404 1.357 . S
C405 C406 1.406 . S
C406 H380 0.929 . S
C406 C405 1.406 . S
C406 C407 1.391 . S
C407 H379 0.931 . S
C407 C402 1.370 . S
C407 C406 1.391 . S
C408 N377 1.435 . S
C408 C409 1.358 . S
C408 C413 1.371 . S
C409 H381 0.930 . S
C409 C408 1.358 . S
C409 C410 1.405 . S
C410 H382 0.932 . S
C410 C409 1.405 . S
C410 C411 1.383 . S
C411 C410 1.383 . S
C411 C412 1.393 . S
C412 H384 0.931 . S
C412 C411 1.393 . S
C412 C413 1.382 . S
C413 H383 0.929 . S
C413 C408 1.371 . S
C413 C412 1.382 . S
C414 N377 1.423 . S
C414 C415 1.362 . S
C414 C419 1.388 . S
C415 H385 0.929 . S
C415 C414 1.362 . S
C415 C416 1.376 . S
C416 H387 0.931 . S
C416 C415 1.376 . S
C416 C417 1.396 . S
C417 C416 1.396 . S
C417 C418 1.348 . S
C417 C435 1.472 . S
C418 H388 0.929 . S
C418 C417 1.348 . S
C418 C419 1.443 . S
C419 H386 0.932 . S
C419 C414 1.388 . S
C419 C418 1.443 . S
C420 N400 1.433 . S
C420 C421 1.363 . S
C420 C425 1.370 . S
C421 H389 0.929 . S
C421 C420 1.363 . S
C421 C422 1.385 . S
C422 H390 0.930 . S
C422 C421 1.385 . S
C422 C423 1.357 . S
C423 C422 1.357 . S
C423 C424 1.406 . S
C424 H391 0.929 . S
C424 C423 1.406 . S
C424 C425 1.391 . S
C425 H392 0.931 . S
C425 C420 1.370 . S
C425 C424 1.391 . S
C426 N400 1.435 . S
C426 C427 1.358 . S
C426 C431 1.371 . S
C427 H393 0.930 . S
C427 C426 1.358 . S
C427 C428 1.405 . S
C428 H394 0.932 . S
C428 C427 1.405 . S
C428 C429 1.383 . S
C429 C428 1.383 . S
C429 C430 1.393 . S
C430 H395 0.931 . S
C430 C429 1.393 . S
C430 C431 1.382 . S
C431 H396 0.929 . S
C431 C426 1.371 . S
C431 C430 1.382 . S
C432 N400 1.423 . S
C432 C433 1.362 . S
C432 C437 1.388 . S
C433 H397 0.929 . S
C433 C432 1.362 . S
C433 C434 1.376 . S
C434 H398 0.931 . S
C434 C433 1.376 . S
C434 C435 1.396 . S
C435 C417 1.472 . S
C435 C434 1.396 . S
C435 C436 1.348 . S
C436 H399 0.929 . S
C436 C435 1.348 . S
C436 C437 1.443 . S
C437 H401 0.932 . S
C437 C432 1.388 . S
C437 C436 1.443 . S
H438 C465 0.929 . S
N439 C464 1.433 . S
N439 C470 1.435 . S
N439 C476 1.423 . S
H440 C466 0.930 . S
H441 C469 0.931 . S
H442 C468 0.929 . S
H443 C471 0.930 . S
H444 C472 0.932 . S
H445 C475 0.929 . S
H446 C474 0.931 . S
H447 C477 0.929 . S
H448 C481 0.932 . S
H449 C478 0.931 . S
H450 C480 0.929 . S
H451 C483 0.929 . S
H452 C484 0.930 . S
H453 C486 0.929 . S
H454 C487 0.931 . S
H455 C489 0.930 . S
H456 C490 0.932 . S
H457 C492 0.931 . S
H458 C493 0.929 . S
H459 C495 0.929 . S
H460 C496 0.931 . S
H461 C498 0.929 . S
N462 C482 1.433 . S
N462 C488 1.435 . S
N462 C494 1.423 . S
H463 C499 0.932 . S
C464 N439 1.433 . S
C464 C465 1.363 . S
C464 C469 1.370 . S
C465 H438 0.929 . S
C465 C464 1.363 . S
C465 C466 1.385 . S
C466 H440 0.930 . S
C466 C465 1.385 . S
C466 C467 1.357 . S
C467 C466 1.357 . S
C467 C468 1.406 . S
C468 H442 0.929 . S
C468 C467 1.406 . S
C468 C469 1.391 . S
C469 H441 0.931 . S
C469 C464 1.370 . S
C469 C468 1.391 . S
C470 N439 1.435 . S
C470 C471 1.358 . S
C470 C475 1.371 . S
C471 H443 0.930 . S
C471 C470 1.358 . S
C471 C472 1.405 . S
C472 H444 0.932 . S
C472 C471 1.405 . S
C472 C473 1.383 . S
C473 C472 1.383 . S
C473 C474 1.393 . S
C474 H446 0.931 . S
C474 C473 1.393 . S
C474 C475 1.382 . S
C475 H445 0.929 . S
C475 C470 1.371 . S
C475 C474 1.382 . S
C476 N439 1.423 . S
C476 C477 1.362 . S
C476 C481 1.388 . S
C477 H447 0.929 . S
C477 C476 1.362 . S
C477 C478 1.376 . S
C478 H449 0.931 . S
C478 C477 1.376 . S
C478 C479 1.396 . S
C479 C478 1.396 . S
C479 C480 1.348 . S
C479 C497 1.472 . S
C480 H450 0.929 . S
C480 C479 1.348 . S
C480 C481 1.443 . S
C481 H448 0.932 . S
C481 C476 1.388 . S
C481 C480 1.443 . S
C482 N462 1.433 . S
C482 C483 1.363 . S
C482 C487 1.370 . S
C483 H451 0.929 . S
C483 C482 1.363 . S
C483 C484 1.385 . S
C484 H452 0.930 . S
C484 C483 1.385 . S
C484 C485 1.357 . S
C485 C484 1.357 . S
C485 C486 1.406 . S
C486 H453 0.929 . S
C486 C485 1.406 . S
C486 C487 1.391 . S
C487 H454 0.931 . S
C487 C482 1.370 . S
C487 C486 1.391 . S
C488 N462 1.435 . S
C488 C489 1.358 . S
C488 C493 1.371 . S
C489 H455 0.930 . S
C489 C488 1.358 . S
C489 C490 1.405 . S
C490 H456 0.932 . S
C490 C489 1.405 . S
C490 C491 1.383 . S
C491 C490 1.383 . S
C491 C492 1.393 . S
C492 H457 0.931 . S
C492 C491 1.393 . S
C492 C493 1.382 . S
C493 H458 0.929 . S
C493 C488 1.371 . S
C493 C492 1.382 . S
C494 N462 1.423 . S
C494 C495 1.362 . S
C494 C499 1.388 . S
C495 H459 0.929 . S
C495 C494 1.362 . S
C495 C496 1.376 . S
C496 H460 0.931 . S
C496 C495 1.376 . S
C496 C497 1.396 . S
C497 C479 1.472 . S
C497 C496 1.396 . S
C497 C498 1.348 . S
C498 H461 0.929 . S
C498 C497 1.348 . S
C498 C499 1.443 . S
C499 H463 0.932 . S
C499 C494 1.388 . S
C499 C498 1.443 . S
H500 C527 0.929 . S
N501 C526 1.433 . S
N501 C532 1.435 . S
N501 C538 1.423 . S
H502 C528 0.930 . S
H503 C531 0.931 . S
H504 C530 0.929 . S
H505 C533 0.930 . S
H506 C534 0.932 . S
H507 C537 0.929 . S
H508 C536 0.931 . S
H509 C539 0.929 . S
H510 C543 0.932 . S
H511 C540 0.931 . S
H512 C542 0.929 . S
H513 C545 0.929 . S
H514 C546 0.930 . S
H515 C548 0.929 . S
H516 C549 0.931 . S
H517 C551 0.930 . S
H518 C552 0.932 . S
H519 C554 0.931 . S
H520 C555 0.929 . S
H521 C557 0.929 . S
H522 C558 0.931 . S
H523 C560 0.929 . S
N524 C544 1.433 . S
N524 C550 1.435 . S
N524 C556 1.423 . S
H525 C561 0.932 . S
C526 N501 1.433 . S
C526 C527 1.363 . S
C526 C531 1.370 . S
C527 H500 0.929 . S
C527 C526 1.363 . S
C527 C528 1.385 . S
C528 H502 0.930 . S
C528 C527 1.385 . S
C528 C529 1.357 . S
C529 C528 1.357 . S
C529 C530 1.406 . S
C530 H504 0.929 . S
C530 C529 1.406 . S
C530 C531 1.391 . S
C531 H503 0.931 . S
C531 C526 1.370 . S
C531 C530 1.391 . S
C532 N501 1.435 . S
C532 C533 1.358 . S
C532 C537 1.371 . S
C533 H505 0.930 . S
C533 C532 1.358 . S
C533 C534 1.405 . S
C534 H506 0.932 . S
C534 C533 1.405 . S
C534 C535 1.383 . S
C535 C534 1.383 . S
C535 C536 1.393 . S
C536 H508 0.931 . S
C536 C535 1.393 . S
C536 C537 1.382 . S
C537 H507 0.929 . S
C537 C532 1.371 . S
C537 C536 1.382 . S
C538 N501 1.423 . S
C538 C539 1.362 . S
C538 C543 1.388 . S
C539 H509 0.929 . S
C539 C538 1.362 . S
C539 C540 1.376 . S
C540 H511 0.931 . S
C540 C539 1.376 . S
C540 C541 1.396 . S
C541 C540 1.396 . S
C541 C542 1.348 . S
C541 C559 1.472 . S
C542 H512 0.929 . S
C542 C541 1.348 . S
C542 C543 1.443 . S
C543 H510 0.932 . S
C543 C538 1.388 . S
C543 C542 1.443 . S
C544 N524 1.433 . S
C544 C545 1.363 . S
C544 C549 1.370 . S
C545 H513 0.929 . S
C545 C544 1.363 . S
C545 C546 1.385 . S
C546 H514 0.930 . S
C546 C545 1.385 . S
C546 C547 1.357 . S
C547 C546 1.357 . S
C547 C548 1.406 . S
C548 H515 0.929 . S
C548 C547 1.406 . S
C548 C549 1.391 . S
C549 H516 0.931 . S
C549 C544 1.370 . S
C549 C548 1.391 . S
C550 N524 1.435 . S
C550 C551 1.358 . S
C550 C555 1.371 . S
C551 H517 0.930 . S
C551 C550 1.358 . S
C551 C552 1.405 . S
C552 H518 0.932 . S
C552 C551 1.405 . S
C552 C553 1.383 . S
C553 C552 1.383 . S
C553 C554 1.393 . S
C554 H519 0.931 . S
C554 C553 1.393 . S
C554 C555 1.382 . S
C555 H520 0.929 . S
C555 C550 1.371 . S
C555 C554 1.382 . S
C556 N524 1.423 . S
C556 C557 1.362 . S
C556 C561 1.388 . S
C557 H521 0.929 . S
C557 C556 1.362 . S
C557 C558 1.376 . S
C558 H522 0.931 . S
C558 C557 1.376 . S
C558 C559 1.396 . S
C559 C541 1.472 . S
C559 C558 1.396 . S
C559 C560 1.348 . S
C560 H523 0.929 . S
C560 C559 1.348 . S
C560 C561 1.443 . S
C561 H525 0.932 . S
C561 C556 1.388 . S
C561 C560 1.443 . S
H562 C589 0.929 . S
N563 C588 1.433 . S
N563 C594 1.435 . S
N563 C600 1.423 . S
H564 C590 0.930 . S
H565 C593 0.931 . S
H566 C592 0.929 . S
H567 C595 0.930 . S
H568 C596 0.932 . S
H569 C599 0.929 . S
H570 C598 0.931 1_554 S
H571 C601 0.929 . S
H572 C605 0.932 . S
H573 C602 0.931 . S
H574 C604 0.929 . S
H575 C607 0.929 . S
H576 C608 0.930 . S
H577 C610 0.929 . S
H578 C611 0.931 . S
H579 C613 0.930 . S
H580 C614 0.932 . S
H581 C616 0.931 1_554 S
H582 C617 0.929 . S
H583 C619 0.929 . S
H584 C620 0.931 . S
H585 C622 0.929 . S
N586 C606 1.433 . S
N586 C612 1.435 . S
N586 C618 1.423 . S
H587 C623 0.932 . S
C588 N563 1.433 . S
C588 C589 1.363 . S
C588 C593 1.370 . S
C589 H562 0.929 . S
C589 C588 1.363 . S
C589 C590 1.385 . S
C590 H564 0.930 . S
C590 C589 1.385 . S
C590 C591 1.357 . S
C591 C590 1.357 . S
C591 C592 1.406 . S
C592 H566 0.929 . S
C592 C591 1.406 . S
C592 C593 1.391 . S
C593 H565 0.931 . S
C593 C588 1.370 . S
C593 C592 1.391 . S
C594 N563 1.435 . S
C594 C595 1.358 . S
C594 C599 1.371 . S
C595 H567 0.930 . S
C595 C594 1.358 . S
C595 C596 1.405 . S
C596 H568 0.932 . S
C596 C595 1.405 . S
C596 C597 1.383 . S
C597 C596 1.383 . S
C597 C598 1.393 . S
C598 H570 0.931 1_556 S
C598 C597 1.393 . S
C598 C599 1.382 . S
C599 H569 0.929 . S
C599 C594 1.371 . S
C599 C598 1.382 . S
C600 N563 1.423 . S
C600 C601 1.362 . S
C600 C605 1.388 . S
C601 H571 0.929 . S
C601 C600 1.362 . S
C601 C602 1.376 . S
C602 H573 0.931 . S
C602 C601 1.376 . S
C602 C603 1.396 . S
C603 C602 1.396 . S
C603 C604 1.348 . S
C603 C621 1.472 . S
C604 H574 0.929 . S
C604 C603 1.348 . S
C604 C605 1.443 . S
C605 H572 0.932 . S
C605 C600 1.388 . S
C605 C604 1.443 . S
C606 N586 1.433 . S
C606 C607 1.363 . S
C606 C611 1.370 . S
C607 H575 0.929 . S
C607 C606 1.363 . S
C607 C608 1.385 . S
C608 H576 0.930 . S
C608 C607 1.385 . S
C608 C609 1.357 . S
C609 C608 1.357 . S
C609 C610 1.406 . S
C610 H577 0.929 . S
C610 C609 1.406 . S
C610 C611 1.391 . S
C611 H578 0.931 . S
C611 C606 1.370 . S
C611 C610 1.391 . S
C612 N586 1.435 . S
C612 C613 1.358 . S
C612 C617 1.371 . S
C613 H579 0.930 . S
C613 C612 1.358 . S
C613 C614 1.405 . S
C614 H580 0.932 . S
C614 C613 1.405 . S
C614 C615 1.383 . S
C615 C614 1.383 . S
C615 C616 1.393 . S
C616 H581 0.931 1_556 S
C616 C615 1.393 . S
C616 C617 1.382 . S
C617 H582 0.929 . S
C617 C612 1.371 . S
C617 C616 1.382 . S
C618 N586 1.423 . S
C618 C619 1.362 . S
C618 C623 1.388 . S
C619 H583 0.929 . S
C619 C618 1.362 . S
C619 C620 1.376 . S
C620 H584 0.931 . S
C620 C619 1.376 . S
C620 C621 1.396 . S
C621 C603 1.472 . S
C621 C620 1.396 . S
C621 C622 1.348 . S
C622 H585 0.929 . S
C622 C621 1.348 . S
C622 C623 1.443 . S
C623 H587 0.932 . S
C623 C618 1.388 . S
C623 C622 1.443 . S
H624 C651 0.929 . S
N625 C650 1.433 . S
N625 C656 1.435 . S
N625 C662 1.423 . S
H626 C652 0.930 . S
H627 C655 0.931 . S
H628 C654 0.929 . S
H629 C657 0.930 . S
H630 C658 0.932 . S
H631 C661 0.929 . S
H632 C660 0.931 . S
H633 C663 0.929 . S
H634 C667 0.932 . S
H635 C664 0.931 . S
H636 C666 0.929 . S
H637 C669 0.929 . S
H638 C670 0.930 . S
H639 C672 0.929 . S
H640 C673 0.931 . S
H641 C675 0.930 . S
H642 C676 0.932 . S
H643 C678 0.931 . S
H644 C679 0.929 . S
H645 C681 0.929 . S
H646 C682 0.931 . S
H647 C684 0.929 . S
N648 C668 1.433 . S
N648 C674 1.435 . S
N648 C680 1.423 . S
H649 C685 0.932 . S
C650 N625 1.433 . S
C650 C651 1.363 . S
C650 C655 1.370 . S
C651 H624 0.929 . S
C651 C650 1.363 . S
C651 C652 1.385 . S
C652 H626 0.930 . S
C652 C651 1.385 . S
C652 C653 1.357 . S
C653 C652 1.357 . S
C653 C654 1.406 . S
C654 H628 0.929 . S
C654 C653 1.406 . S
C654 C655 1.391 . S
C655 H627 0.931 . S
C655 C650 1.370 . S
C655 C654 1.391 . S
C656 N625 1.435 . S
C656 C657 1.358 . S
C656 C661 1.371 . S
C657 H629 0.930 . S
C657 C656 1.358 . S
C657 C658 1.405 . S
C658 H630 0.932 . S
C658 C657 1.405 . S
C658 C659 1.383 . S
C659 C658 1.383 . S
C659 C660 1.393 . S
C660 H632 0.931 . S
C660 C659 1.393 . S
C660 C661 1.382 . S
C661 H631 0.929 . S
C661 C656 1.371 . S
C661 C660 1.382 . S
C662 N625 1.423 . S
C662 C663 1.362 . S
C662 C667 1.388 . S
C663 H633 0.929 . S
C663 C662 1.362 . S
C663 C664 1.376 . S
C664 H635 0.931 . S
C664 C663 1.376 . S
C664 C665 1.396 . S
C665 C664 1.396 . S
C665 C666 1.348 . S
C665 C683 1.472 . S
C666 H636 0.929 . S
C666 C665 1.348 . S
C666 C667 1.443 . S
C667 H634 0.932 . S
C667 C662 1.388 . S
C667 C666 1.443 . S
C668 N648 1.433 . S
C668 C669 1.363 . S
C668 C673 1.370 . S
C669 H637 0.929 . S
C669 C668 1.363 . S
C669 C670 1.385 . S
C670 H638 0.930 . S
C670 C669 1.385 . S
C670 C671 1.357 . S
C671 C670 1.357 . S
C671 C672 1.406 . S
C672 H639 0.929 . S
C672 C671 1.406 . S
C672 C673 1.391 . S
C673 H640 0.931 . S
C673 C668 1.370 . S
C673 C672 1.391 . S
C674 N648 1.435 . S
C674 C675 1.358 . S
C674 C679 1.371 . S
C675 H641 0.930 . S
C675 C674 1.358 . S
C675 C676 1.405 . S
C676 H642 0.932 . S
C676 C675 1.405 . S
C676 C677 1.383 . S
C677 C676 1.383 . S
C677 C678 1.393 . S
C678 H643 0.931 . S
C678 C677 1.393 . S
C678 C679 1.382 . S
C679 H644 0.929 . S
C679 C674 1.371 . S
C679 C678 1.382 . S
C680 N648 1.423 . S
C680 C681 1.362 . S
C680 C685 1.388 . S
C681 H645 0.929 . S
C681 C680 1.362 . S
C681 C682 1.376 . S
C682 H646 0.931 . S
C682 C681 1.376 . S
C682 C683 1.396 . S
C683 C665 1.472 . S
C683 C682 1.396 . S
C683 C684 1.348 . S
C684 H647 0.929 . S
C684 C683 1.348 . S
C684 C685 1.443 . S
C685 H649 0.932 . S
C685 C680 1.388 . S
C685 C684 1.443 . S
H686 C713 0.929 . S
N687 C712 1.433 . S
N687 C718 1.435 . S
N687 C724 1.423 . S
H688 C714 0.930 . S
H689 C717 0.931 . S
H690 C716 0.929 . S
H691 C719 0.930 . S
H692 C720 0.932 . S
H693 C723 0.929 . S
H694 C722 0.931 . S
H695 C725 0.929 . S
H696 C729 0.932 . S
H697 C726 0.931 . S
H698 C728 0.929 . S
H699 C731 0.929 . S
H700 C732 0.930 . S
H701 C734 0.929 . S
H702 C735 0.931 . S
H703 C737 0.930 . S
H704 C738 0.932 . S
H705 C740 0.931 . S
H706 C741 0.929 . S
H707 C743 0.929 . S
H708 C744 0.931 . S
H709 C746 0.929 . S
N710 C730 1.433 . S
N710 C736 1.435 . S
N710 C742 1.423 . S
H711 C747 0.932 . S
C712 N687 1.433 . S
C712 C713 1.363 . S
C712 C717 1.370 . S
C713 H686 0.929 . S
C713 C712 1.363 . S
C713 C714 1.385 . S
C714 H688 0.930 . S
C714 C713 1.385 . S
C714 C715 1.357 . S
C715 C714 1.357 . S
C715 C716 1.406 . S
C716 H690 0.929 . S
C716 C715 1.406 . S
C716 C717 1.391 . S
C717 H689 0.931 . S
C717 C712 1.370 . S
C717 C716 1.391 . S
C718 N687 1.435 . S
C718 C719 1.358 . S
C718 C723 1.371 . S
C719 H691 0.930 . S
C719 C718 1.358 . S
C719 C720 1.405 . S
C720 H692 0.932 . S
C720 C719 1.405 . S
C720 C721 1.383 . S
C721 C720 1.383 . S
C721 C722 1.393 . S
C722 H694 0.931 . S
C722 C721 1.393 . S
C722 C723 1.382 . S
C723 H693 0.929 . S
C723 C718 1.371 . S
C723 C722 1.382 . S
C724 N687 1.423 . S
C724 C725 1.362 . S
C724 C729 1.388 . S
C725 H695 0.929 . S
C725 C724 1.362 . S
C725 C726 1.376 . S
C726 H697 0.931 . S
C726 C725 1.376 . S
C726 C727 1.396 . S
C727 C726 1.396 . S
C727 C728 1.348 . S
C727 C745 1.472 . S
C728 H698 0.929 . S
C728 C727 1.348 . S
C728 C729 1.443 . S
C729 H696 0.932 . S
C729 C724 1.388 . S
C729 C728 1.443 . S
C730 N710 1.433 . S
C730 C731 1.363 . S
C730 C735 1.370 . S
C731 H699 0.929 . S
C731 C730 1.363 . S
C731 C732 1.385 . S
C732 H700 0.930 . S
C732 C731 1.385 . S
C732 C733 1.357 . S
C733 C732 1.357 . S
C733 C734 1.406 . S
C734 H701 0.929 . S
C734 C733 1.406 . S
C734 C735 1.391 . S
C735 H702 0.931 . S
C735 C730 1.370 . S
C735 C734 1.391 . S
C736 N710 1.435 . S
C736 C737 1.358 . S
C736 C741 1.371 . S
C737 H703 0.930 . S
C737 C736 1.358 . S
C737 C738 1.405 . S
C738 H704 0.932 . S
C738 C737 1.405 . S
C738 C739 1.383 . S
C739 C738 1.383 . S
C739 C740 1.393 . S
C740 H705 0.931 . S
C740 C739 1.393 . S
C740 C741 1.382 . S
C741 H706 0.929 . S
C741 C736 1.371 . S
C741 C740 1.382 . S
C742 N710 1.423 . S
C742 C743 1.362 . S
C742 C747 1.388 . S
C743 H707 0.929 . S
C743 C742 1.362 . S
C743 C744 1.376 . S
C744 H708 0.931 . S
C744 C743 1.376 . S
C744 C745 1.396 . S
C745 C727 1.472 . S
C745 C744 1.396 . S
C745 C746 1.348 . S
C746 H709 0.929 . S
C746 C745 1.348 . S
C746 C747 1.443 . S
C747 H711 0.932 . S
C747 C742 1.388 . S
C747 C746 1.443 . S
H748 C775 0.929 . S
N749 C774 1.433 . S
N749 C780 1.435 . S
N749 C786 1.423 . S
H750 C776 0.930 . S
H751 C779 0.931 . S
H752 C778 0.929 . S
H753 C781 0.930 . S
H754 C782 0.932 . S
H755 C785 0.929 . S
H756 C784 0.931 . S
H757 C787 0.929 . S
H758 C791 0.932 . S
H759 C788 0.931 . S
H760 C790 0.929 . S
H761 C793 0.929 . S
H762 C794 0.930 . S
H763 C796 0.929 . S
H764 C797 0.931 . S
H765 C799 0.930 . S
H766 C800 0.932 . S
H767 C802 0.931 . S
H768 C803 0.929 . S
H769 C805 0.929 . S
H770 C806 0.931 . S
H771 C808 0.929 . S
N772 C792 1.433 . S
N772 C798 1.435 . S
N772 C804 1.423 . S
H773 C809 0.932 . S
C774 N749 1.433 . S
C774 C775 1.363 . S
C774 C779 1.370 . S
C775 H748 0.929 . S
C775 C774 1.363 . S
C775 C776 1.385 . S
C776 H750 0.930 . S
C776 C775 1.385 . S
C776 C777 1.357 . S
C777 C776 1.357 . S
C777 C778 1.406 . S
C778 H752 0.929 . S
C778 C777 1.406 . S
C778 C779 1.391 . S
C779 H751 0.931 . S
C779 C774 1.370 . S
C779 C778 1.391 . S
C780 N749 1.435 . S
C780 C781 1.358 . S
C780 C785 1.371 . S
C781 H753 0.930 . S
C781 C780 1.358 . S
C781 C782 1.405 . S
C782 H754 0.932 . S
C782 C781 1.405 . S
C782 C783 1.383 . S
C783 C782 1.383 . S
C783 C784 1.393 . S
C784 H756 0.931 . S
C784 C783 1.393 . S
C784 C785 1.382 . S
C785 H755 0.929 . S
C785 C780 1.371 . S
C785 C784 1.382 . S
C786 N749 1.423 . S
C786 C787 1.362 . S
C786 C791 1.388 . S
C787 H757 0.929 . S
C787 C786 1.362 . S
C787 C788 1.376 . S
C788 H759 0.931 . S
C788 C787 1.376 . S
C788 C789 1.396 . S
C789 C788 1.396 . S
C789 C790 1.348 . S
C789 C807 1.472 . S
C790 H760 0.929 . S
C790 C789 1.348 . S
C790 C791 1.443 . S
C791 H758 0.932 . S
C791 C786 1.388 . S
C791 C790 1.443 . S
C792 N772 1.433 . S
C792 C793 1.363 . S
C792 C797 1.370 . S
C793 H761 0.929 . S
C793 C792 1.363 . S
C793 C794 1.385 . S
C794 H762 0.930 . S
C794 C793 1.385 . S
C794 C795 1.357 . S
C795 C794 1.357 . S
C795 C796 1.406 . S
C796 H763 0.929 . S
C796 C795 1.406 . S
C796 C797 1.391 . S
C797 H764 0.931 . S
C797 C792 1.370 . S
C797 C796 1.391 . S
C798 N772 1.435 . S
C798 C799 1.358 . S
C798 C803 1.371 . S
C799 H765 0.930 . S
C799 C798 1.358 . S
C799 C800 1.405 . S
C800 H766 0.932 . S
C800 C799 1.405 . S
C800 C801 1.383 . S
C801 C800 1.383 . S
C801 C802 1.393 . S
C802 H767 0.931 . S
C802 C801 1.393 . S
C802 C803 1.382 . S
C803 H768 0.929 . S
C803 C798 1.371 . S
C803 C802 1.382 . S
C804 N772 1.423 . S
C804 C805 1.362 . S
C804 C809 1.388 . S
C805 H769 0.929 . S
C805 C804 1.362 . S
C805 C806 1.376 . S
C806 H770 0.931 . S
C806 C805 1.376 . S
C806 C807 1.396 . S
C807 C789 1.472 . S
C807 C806 1.396 . S
C807 C808 1.348 . S
C808 H771 0.929 . S
C808 C807 1.348 . S
C808 C809 1.443 . S
C809 H773 0.932 . S
C809 C804 1.388 . S
C809 C808 1.443 . S
H810 C837 0.929 . S
N811 C836 1.433 . S
N811 C842 1.435 . S
N811 C848 1.423 . S
H812 C838 0.930 . S
H813 C841 0.931 . S
H814 C840 0.929 . S
H815 C843 0.930 . S
H816 C844 0.932 . S
H817 C847 0.929 . S
H818 C846 0.931 . S
H819 C849 0.929 . S
H820 C853 0.932 1_655 S
H821 C850 0.931 . S
H822 C852 0.929 . S
H823 C855 0.929 . S
H824 C856 0.930 . S
H825 C858 0.929 . S
H826 C859 0.931 . S
H827 C861 0.930 . S
H828 C862 0.932 . S
H829 C864 0.931 . S
H830 C865 0.929 . S
H831 C867 0.929 . S
H832 C868 0.931 . S
H833 C870 0.929 . S
N834 C854 1.433 . S
N834 C860 1.435 . S
N834 C866 1.423 . S
H835 C871 0.932 1_655 S
C836 N811 1.433 . S
C836 C837 1.363 . S
C836 C841 1.370 1_455 S
C837 H810 0.929 . S
C837 C836 1.363 . S
C837 C838 1.385 . S
C838 H812 0.930 . S
C838 C837 1.385 . S
C838 C839 1.357 1_455 S
C839 C838 1.357 1_655 S
C839 C840 1.406 . S
C840 H814 0.929 . S
C840 C839 1.406 . S
C840 C841 1.391 . S
C841 H813 0.931 . S
C841 C836 1.370 1_655 S
C841 C840 1.391 . S
C842 N811 1.435 . S
C842 C843 1.358 1_455 S
C842 C847 1.371 . S
C843 H815 0.930 . S
C843 C842 1.358 1_655 S
C843 C844 1.405 . S
C844 H816 0.932 . S
C844 C843 1.405 . S
C844 C845 1.383 1_655 S
C845 C844 1.383 1_455 S
C845 C846 1.393 . S
C846 H818 0.931 . S
C846 C845 1.393 . S
C846 C847 1.382 . S
C847 H817 0.929 . S
C847 C842 1.371 . S
C847 C846 1.382 . S
C848 N811 1.423 . S
C848 C849 1.362 . S
C848 C853 1.388 . S
C849 H819 0.929 . S
C849 C848 1.362 . S
C849 C850 1.376 . S
C850 H821 0.931 . S
C850 C849 1.376 . S
C850 C851 1.396 . S
C851 C850 1.396 . S
C851 C852 1.348 . S
C851 C869 1.472 . S
C852 H822 0.929 . S
C852 C851 1.348 . S
C852 C853 1.443 . S
C853 H820 0.932 1_455 S
C853 C848 1.388 . S
C853 C852 1.443 . S
C854 N834 1.433 . S
C854 C855 1.363 . S
C854 C859 1.370 1_455 S
C855 H823 0.929 . S
C855 C854 1.363 . S
C855 C856 1.385 . S
C856 H824 0.930 . S
C856 C855 1.385 . S
C856 C857 1.357 1_455 S
C857 C856 1.357 1_655 S
C857 C858 1.406 . S
C858 H825 0.929 . S
C858 C857 1.406 . S
C858 C859 1.391 . S
C859 H826 0.931 . S
C859 C854 1.370 1_655 S
C859 C858 1.391 . S
C860 N834 1.435 . S
C860 C861 1.358 1_455 S
C860 C865 1.371 . S
C861 H827 0.930 . S
C861 C860 1.358 1_655 S
C861 C862 1.405 . S
C862 H828 0.932 . S
C862 C861 1.405 . S
C862 C863 1.383 1_655 S
C863 C862 1.383 1_455 S
C863 C864 1.393 . S
C864 H829 0.931 . S
C864 C863 1.393 . S
C864 C865 1.382 . S
C865 H830 0.929 . S
C865 C860 1.371 . S
C865 C864 1.382 . S
C866 N834 1.423 . S
C866 C867 1.362 . S
C866 C871 1.388 . S
C867 H831 0.929 . S
C867 C866 1.362 . S
C867 C868 1.376 . S
C868 H832 0.931 . S
C868 C867 1.376 . S
C868 C869 1.396 . S
C869 C851 1.472 . S
C869 C868 1.396 . S
C869 C870 1.348 . S
C870 H833 0.929 . S
C870 C869 1.348 . S
C870 C871 1.443 . S
C871 H835 0.932 1_455 S
C871 C866 1.388 . S
C871 C870 1.443 . S
H872 C899 0.929 . S
N873 C898 1.433 . S
N873 C904 1.435 . S
N873 C910 1.423 . S
H874 C900 0.930 . S
H875 C903 0.931 . S
H876 C902 0.929 . S
H877 C905 0.930 . S
H878 C906 0.932 . S
H879 C909 0.929 . S
H880 C908 0.931 . S
H881 C911 0.929 . S
H882 C915 0.932 . S
H883 C912 0.931 . S
H884 C914 0.929 . S
H885 C917 0.929 . S
H886 C918 0.930 . S
H887 C920 0.929 . S
H888 C921 0.931 . S
H889 C923 0.930 . S
H890 C924 0.932 . S
H891 C926 0.931 . S
H892 C927 0.929 . S
H893 C929 0.929 . S
H894 C930 0.931 . S
H895 C932 0.929 . S
N896 C916 1.433 . S
N896 C922 1.435 . S
N896 C928 1.423 . S
H897 C933 0.932 . S
C898 N873 1.433 . S
C898 C899 1.363 . S
C898 C903 1.370 . S
C899 H872 0.929 . S
C899 C898 1.363 . S
C899 C900 1.385 . S
C900 H874 0.930 . S
C900 C899 1.385 . S
C900 C901 1.357 . S
C901 C900 1.357 . S
C901 C902 1.406 . S
C902 H876 0.929 . S
C902 C901 1.406 . S
C902 C903 1.391 . S
C903 H875 0.931 . S
C903 C898 1.370 . S
C903 C902 1.391 . S
C904 N873 1.435 . S
C904 C905 1.358 . S
C904 C909 1.371 . S
C905 H877 0.930 . S
C905 C904 1.358 . S
C905 C906 1.405 . S
C906 H878 0.932 . S
C906 C905 1.405 . S
C906 C907 1.383 . S
C907 C906 1.383 . S
C907 C908 1.393 . S
C908 H880 0.931 . S
C908 C907 1.393 . S
C908 C909 1.382 . S
C909 H879 0.929 . S
C909 C904 1.371 . S
C909 C908 1.382 . S
C910 N873 1.423 . S
C910 C911 1.362 . S
C910 C915 1.388 . S
C911 H881 0.929 . S
C911 C910 1.362 . S
C911 C912 1.376 . S
C912 H883 0.931 . S
C912 C911 1.376 . S
C912 C913 1.396 . S
C913 C912 1.396 . S
C913 C914 1.348 . S
C913 C931 1.472 . S
C914 H884 0.929 . S
C914 C913 1.348 . S
C914 C915 1.443 . S
C915 H882 0.932 . S
C915 C910 1.388 . S
C915 C914 1.443 . S
C916 N896 1.433 . S
C916 C917 1.363 . S
C916 C921 1.370 . S
C917 H885 0.929 . S
C917 C916 1.363 . S
C917 C918 1.385 . S
C918 H886 0.930 . S
C918 C917 1.385 . S
C918 C919 1.357 . S
C919 C918 1.357 . S
C919 C920 1.406 . S
C920 H887 0.929 . S
C920 C919 1.406 . S
C920 C921 1.391 . S
C921 H888 0.931 . S
C921 C916 1.370 . S
C921 C920 1.391 . S
C922 N896 1.435 . S
C922 C923 1.358 . S
C922 C927 1.371 . S
C923 H889 0.930 . S
C923 C922 1.358 . S
C923 C924 1.405 . S
C924 H890 0.932 . S
C924 C923 1.405 . S
C924 C925 1.383 . S
C925 C924 1.383 . S
C925 C926 1.393 . S
C926 H891 0.931 . S
C926 C925 1.393 . S
C926 C927 1.382 . S
C927 H892 0.929 . S
C927 C922 1.371 . S
C927 C926 1.382 . S
C928 N896 1.423 . S
C928 C929 1.362 . S
C928 C933 1.388 . S
C929 H893 0.929 . S
C929 C928 1.362 . S
C929 C930 1.376 . S
C930 H894 0.931 . S
C930 C929 1.376 . S
C930 C931 1.396 . S
C931 C913 1.472 . S
C931 C930 1.396 . S
C931 C932 1.348 . S
C932 H895 0.929 . S
C932 C931 1.348 . S
C932 C933 1.443 . S
C933 H897 0.932 . S
C933 C928 1.388 . S
C933 C932 1.443 . S
H934 C961 0.929 . S
N935 C960 1.433 . S
N935 C966 1.435 . S
N935 C972 1.423 . S
H936 C962 0.930 . S
H937 C965 0.931 . S
H938 C964 0.929 . S
H939 C967 0.930 . S
H940 C968 0.932 . S
H941 C971 0.929 . S
H942 C970 0.931 . S
H943 C973 0.929 . S
H944 C977 0.932 1_545 S
H945 C974 0.931 . S
H946 C976 0.929 . S
H947 C979 0.929 . S
H948 C980 0.930 . S
H949 C982 0.929 . S
H950 C983 0.931 . S
H951 C985 0.930 . S
H952 C986 0.932 . S
H953 C988 0.931 . S
H954 C989 0.929 . S
H955 C991 0.929 . S
H956 C992 0.931 . S
H957 C994 0.929 . S
N958 C978 1.433 . S
N958 C984 1.435 . S
N958 C990 1.423 . S
H959 C995 0.932 1_545 S
C960 N935 1.433 . S
C960 C961 1.363 . S
C960 C965 1.370 1_565 S
C961 H934 0.929 . S
C961 C960 1.363 . S
C961 C962 1.385 . S
C962 H936 0.930 . S
C962 C961 1.385 . S
C962 C963 1.357 1_565 S
C963 C962 1.357 1_545 S
C963 C964 1.406 . S
C964 H938 0.929 . S
C964 C963 1.406 . S
C964 C965 1.391 . S
C965 H937 0.931 . S
C965 C960 1.370 1_545 S
C965 C964 1.391 . S
C966 N935 1.435 . S
C966 C967 1.358 1_565 S
C966 C971 1.371 . S
C967 H939 0.930 . S
C967 C966 1.358 1_545 S
C967 C968 1.405 . S
C968 H940 0.932 . S
C968 C967 1.405 . S
C968 C969 1.383 1_545 S
C969 C968 1.383 1_565 S
C969 C970 1.393 . S
C970 H942 0.931 . S
C970 C969 1.393 . S
C970 C971 1.382 . S
C971 H941 0.929 . S
C971 C966 1.371 . S
C971 C970 1.382 . S
C972 N935 1.423 . S
C972 C973 1.362 . S
C972 C977 1.388 . S
C973 H943 0.929 . S
C973 C972 1.362 . S
C973 C974 1.376 . S
C974 H945 0.931 . S
C974 C973 1.376 . S
C974 C975 1.396 . S
C975 C974 1.396 . S
C975 C976 1.348 . S
C975 C993 1.472 . S
C976 H946 0.929 . S
C976 C975 1.348 . S
C976 C977 1.443 . S
C977 H944 0.932 1_565 S
C977 C972 1.388 . S
C977 C976 1.443 . S
C978 N958 1.433 . S
C978 C979 1.363 . S
C978 C983 1.370 1_565 S
C979 H947 0.929 . S
C979 C978 1.363 . S
C979 C980 1.385 . S
C980 H948 0.930 . S
C980 C979 1.385 . S
C980 C981 1.357 1_565 S
C981 C980 1.357 1_545 S
C981 C982 1.406 . S
C982 H949 0.929 . S
C982 C981 1.406 . S
C982 C983 1.391 . S
C983 H950 0.931 . S
C983 C978 1.370 1_545 S
C983 C982 1.391 . S
C984 N958 1.435 . S
C984 C985 1.358 1_565 S
C984 C989 1.371 . S
C985 H951 0.930 . S
C985 C984 1.358 1_545 S
C985 C986 1.405 . S
C986 H952 0.932 . S
C986 C985 1.405 . S
C986 C987 1.383 1_545 S
C987 C986 1.383 1_565 S
C987 C988 1.393 . S
C988 H953 0.931 . S
C988 C987 1.393 . S
C988 C989 1.382 . S
C989 H954 0.929 . S
C989 C984 1.371 . S
C989 C988 1.382 . S
C990 N958 1.423 . S
C990 C991 1.362 . S
C990 C995 1.388 . S
C991 H955 0.929 . S
C991 C990 1.362 . S
C991 C992 1.376 . S
C992 H956 0.931 . S
C992 C991 1.376 . S
C992 C993 1.396 . S
C993 C975 1.472 . S
C993 C992 1.396 . S
C993 C994 1.348 . S
C994 H957 0.929 . S
C994 C993 1.348 . S
C994 C995 1.443 . S
C995 H959 0.932 1_565 S
C995 C990 1.388 . S
C995 C994 1.443 . S
H996 C1023 0.929 . S
N997 C1022 1.433 . S
N997 C1028 1.435 . S
N997 C1034 1.423 . S
H998 C1024 0.930 . S
H999 C1027 0.931 . S
H1000 C1026 0.929 . S
H1001 C1029 0.930 . S
H1002 C1030 0.932 . S
H1003 C1033 0.929 . S
H1004 C1032 0.931 . S
H1005 C1035 0.929 . S
H1006 C1039 0.932 . S
H1007 C1036 0.931 . S
H1008 C1038 0.920 1_545 S
H1009 C1041 0.929 . S
H1010 C1042 0.930 . S
H1011 C1044 0.929 . S
H1012 C1045 0.967 . S
H1013 C1047 0.930 . S
H1014 C1048 0.932 . S
H1015 C1050 0.931 . S
H1016 C1051 0.929 . S
H1017 C1053 0.929 . S
H1018 C1054 0.931 . S
H1019 C1056 0.891 1_545 S
N1020 C1040 1.433 . S
N1020 C1046 1.435 . S
N1020 C1052 1.423 . S
H1021 C1057 0.932 . S
C1022 N997 1.433 . S
C1022 C1023 1.363 . S
C1022 C1027 1.370 1_565 S
C1023 H996 0.929 . S
C1023 C1022 1.363 . S
C1023 C1024 1.385 . S
C1024 H998 0.930 . S
C1024 C1023 1.385 . S
C1024 C1025 1.357 . S
C1025 C1024 1.357 . S
C1025 C1026 1.406 1_565 S
C1026 H1000 0.929 . S
C1026 C1025 1.406 1_545 S
C1026 C1027 1.391 . S
C1027 H999 0.931 . S
C1027 C1022 1.370 1_545 S
C1027 C1026 1.391 . S
C1028 N997 1.435 . S
C1028 C1029 1.358 1_565 S
C1028 C1033 1.371 . S
C1029 H1001 0.930 . S
C1029 C1028 1.358 1_545 S
C1029 C1030 1.405 . S
C1030 H1002 0.932 . S
C1030 C1029 1.405 . S
C1030 C1031 1.383 . S
C1031 C1030 1.383 . S
C1031 C1032 1.393 1_545 S
C1032 H1004 0.931 . S
C1032 C1031 1.393 1_565 S
C1032 C1033 1.382 . S
C1033 H1003 0.929 . S
C1033 C1028 1.371 . S
C1033 C1032 1.382 . S
C1034 N997 1.423 . S
C1034 C1035 1.362 . S
C1034 C1039 1.388 1_565 S
C1035 H1005 0.929 . S
C1035 C1034 1.362 . S
C1035 C1036 1.376 . S
C1036 H1007 0.931 . S
C1036 C1035 1.376 . S
C1036 C1037 1.396 . S
C1037 C1036 1.396 . S
C1037 C1038 1.383 . S
C1037 C1055 1.472 . S
C1038 H1008 0.920 1_565 S
C1038 C1037 1.383 . S
C1038 C1039 1.418 1_565 S
C1039 H1006 0.932 . S
C1039 C1034 1.388 1_545 S
C1039 C1038 1.418 1_545 S
C1040 N1020 1.433 . S
C1040 C1041 1.363 . S
C1040 C1045 1.343 1_565 S
C1041 H1009 0.929 . S
C1041 C1040 1.363 . S
C1041 C1042 1.385 . S
C1042 H1010 0.930 . S
C1042 C1041 1.385 . S
C1042 C1043 1.357 . S
C1043 C1042 1.357 . S
C1043 C1044 1.406 1_565 S
C1044 H1011 0.929 . S
C1044 C1043 1.406 1_545 S
C1044 C1045 1.384 . S
C1045 H1012 0.967 . S
C1045 C1040 1.343 1_545 S
C1045 C1044 1.384 . S
C1046 N1020 1.435 . S
C1046 C1047 1.358 1_565 S
C1046 C1051 1.371 . S
C1047 H1013 0.930 . S
C1047 C1046 1.358 1_545 S
C1047 C1048 1.405 . S
C1048 H1014 0.932 . S
C1048 C1047 1.405 . S
C1048 C1049 1.383 . S
C1049 C1048 1.383 . S
C1049 C1050 1.393 1_545 S
C1050 H1015 0.931 . S
C1050 C1049 1.393 1_565 S
C1050 C1051 1.382 . S
C1051 H1016 0.929 . S
C1051 C1046 1.371 . S
C1051 C1050 1.382 . S
C1052 N1020 1.423 . S
C1052 C1053 1.362 . S
C1052 C1057 1.388 1_565 S
C1053 H1017 0.929 . S
C1053 C1052 1.362 . S
C1053 C1054 1.376 . S
C1054 H1018 0.931 . S
C1054 C1053 1.376 . S
C1054 C1055 1.396 . S
C1055 C1037 1.472 . S
C1055 C1054 1.396 . S
C1055 C1056 1.363 . S
C1056 H1019 0.891 1_565 S
C1056 C1055 1.363 . S
C1056 C1057 1.466 1_565 S
C1057 H1021 0.932 . S
C1057 C1052 1.388 1_545 S
C1057 C1056 1.466 1_545 S
H1058 C1085 0.929 . S
N1059 C1084 1.433 . S
N1059 C1090 1.435 . S
N1059 C1096 1.423 . S
H1060 C1086 0.930 . S
H1061 C1089 0.931 . S
H1062 C1088 0.929 . S
H1063 C1091 0.930 . S
H1064 C1092 0.932 . S
H1065 C1095 0.929 . S
H1066 C1094 0.931 . S
H1067 C1097 0.929 . S
H1068 C1101 0.932 1_455 S
H1069 C1098 0.931 . S
H1070 C1100 0.929 . S
H1071 C1103 0.929 . S
H1072 C1104 0.930 . S
H1073 C1106 0.929 . S
H1074 C1107 0.931 . S
H1075 C1109 0.930 . S
H1076 C1110 0.932 . S
H1077 C1112 0.931 . S
H1078 C1113 0.929 . S
H1079 C1115 0.929 . S
H1080 C1116 0.931 . S
H1081 C1118 0.929 . S
N1082 C1102 1.433 . S
N1082 C1108 1.435 . S
N1082 C1114 1.423 . S
H1083 C1119 0.932 1_455 S
C1084 N1059 1.433 . S
C1084 C1085 1.363 . S
C1084 C1089 1.370 1_655 S
C1085 H1058 0.929 . S
C1085 C1084 1.363 . S
C1085 C1086 1.385 . S
C1086 H1060 0.930 . S
C1086 C1085 1.385 . S
C1086 C1087 1.357 1_655 S
C1087 C1086 1.357 1_455 S
C1087 C1088 1.406 . S
C1088 H1062 0.929 . S
C1088 C1087 1.406 . S
C1088 C1089 1.391 . S
C1089 H1061 0.931 . S
C1089 C1084 1.370 1_455 S
C1089 C1088 1.391 . S
C1090 N1059 1.435 . S
C1090 C1091 1.358 1_655 S
C1090 C1095 1.371 . S
C1091 H1063 0.930 . S
C1091 C1090 1.358 1_455 S
C1091 C1092 1.405 . S
C1092 H1064 0.932 . S
C1092 C1091 1.405 . S
C1092 C1093 1.383 1_455 S
C1093 C1092 1.383 1_655 S
C1093 C1094 1.393 . S
C1094 H1066 0.931 . S
C1094 C1093 1.393 . S
C1094 C1095 1.382 . S
C1095 H1065 0.929 . S
C1095 C1090 1.371 . S
C1095 C1094 1.382 . S
C1096 N1059 1.423 . S
C1096 C1097 1.362 . S
C1096 C1101 1.388 . S
C1097 H1067 0.929 . S
C1097 C1096 1.362 . S
C1097 C1098 1.376 . S
C1098 H1069 0.931 . S
C1098 C1097 1.376 . S
C1098 C1099 1.396 . S
C1099 C1098 1.396 . S
C1099 C1100 1.348 . S
C1099 C1117 1.472 . S
C1100 H1070 0.929 . S
C1100 C1099 1.348 . S
C1100 C1101 1.443 . S
C1101 H1068 0.932 1_655 S
C1101 C1096 1.388 . S
C1101 C1100 1.443 . S
C1102 N1082 1.433 . S
C1102 C1103 1.363 . S
C1102 C1107 1.370 1_655 S
C1103 H1071 0.929 . S
C1103 C1102 1.363 . S
C1103 C1104 1.385 . S
C1104 H1072 0.930 . S
C1104 C1103 1.385 . S
C1104 C1105 1.357 1_655 S
C1105 C1104 1.357 1_455 S
C1105 C1106 1.406 . S
C1106 H1073 0.929 . S
C1106 C1105 1.406 . S
C1106 C1107 1.391 . S
C1107 H1074 0.931 . S
C1107 C1102 1.370 1_455 S
C1107 C1106 1.391 . S
C1108 N1082 1.435 . S
C1108 C1109 1.358 1_655 S
C1108 C1113 1.371 . S
C1109 H1075 0.930 . S
C1109 C1108 1.358 1_455 S
C1109 C1110 1.405 . S
C1110 H1076 0.932 . S
C1110 C1109 1.405 . S
C1110 C1111 1.383 1_455 S
C1111 C1110 1.383 1_655 S
C1111 C1112 1.393 . S
C1112 H1077 0.931 . S
C1112 C1111 1.393 . S
C1112 C1113 1.382 . S
C1113 H1078 0.929 . S
C1113 C1108 1.371 . S
C1113 C1112 1.382 . S
C1114 N1082 1.423 . S
C1114 C1115 1.362 . S
C1114 C1119 1.388 . S
C1115 H1079 0.929 . S
C1115 C1114 1.362 . S
C1115 C1116 1.376 . S
C1116 H1080 0.931 . S
C1116 C1115 1.376 . S
C1116 C1117 1.396 . S
C1117 C1099 1.472 . S
C1117 C1116 1.396 . S
C1117 C1118 1.348 . S
C1118 H1081 0.929 . S
C1118 C1117 1.348 . S
C1118 C1119 1.443 . S
C1119 H1083 0.932 1_655 S
C1119 C1114 1.388 . S
C1119 C1118 1.443 . S
H1120 C1147 0.929 . S
N1121 C1146 1.433 . S
N1121 C1152 1.435 . S
N1121 C1158 1.423 . S
H1122 C1148 0.930 . S
H1123 C1151 0.931 . S
H1124 C1150 0.929 . S
H1125 C1153 0.930 . S
H1126 C1154 0.932 . S
H1127 C1157 0.929 . S
H1128 C1156 0.931 . S
H1129 C1159 0.929 . S
H1130 C1163 0.932 . S
H1131 C1160 0.931 . S
H1132 C1162 0.929 . S
H1133 C1165 0.929 . S
H1134 C1166 0.930 . S
H1135 C1168 0.929 . S
H1136 C1169 0.931 . S
H1137 C1171 0.930 . S
H1138 C1172 0.932 . S
H1139 C1174 0.931 . S
H1140 C1175 0.929 . S
H1141 C1177 0.929 . S
H1142 C1178 0.931 . S
H1143 C1180 0.929 . S
N1144 C1164 1.433 . S
N1144 C1170 1.435 . S
N1144 C1176 1.423 . S
H1145 C1181 0.932 . S
C1146 N1121 1.433 . S
C1146 C1147 1.363 . S
C1146 C1151 1.370 . S
C1147 H1120 0.929 . S
C1147 C1146 1.363 . S
C1147 C1148 1.385 . S
C1148 H1122 0.930 . S
C1148 C1147 1.385 . S
C1148 C1149 1.357 . S
C1149 C1148 1.357 . S
C1149 C1150 1.406 . S
C1150 H1124 0.929 . S
C1150 C1149 1.406 . S
C1150 C1151 1.391 . S
C1151 H1123 0.931 . S
C1151 C1146 1.370 . S
C1151 C1150 1.391 . S
C1152 N1121 1.435 . S
C1152 C1153 1.358 . S
C1152 C1157 1.371 . S
C1153 H1125 0.930 . S
C1153 C1152 1.358 . S
C1153 C1154 1.405 . S
C1154 H1126 0.932 . S
C1154 C1153 1.405 . S
C1154 C1155 1.383 . S
C1155 C1154 1.383 . S
C1155 C1156 1.393 . S
C1156 H1128 0.931 . S
C1156 C1155 1.393 . S
C1156 C1157 1.382 . S
C1157 H1127 0.929 . S
C1157 C1152 1.371 . S
C1157 C1156 1.382 . S
C1158 N1121 1.423 . S
C1158 C1159 1.362 . S
C1158 C1163 1.388 . S
C1159 H1129 0.929 . S
C1159 C1158 1.362 . S
C1159 C1160 1.376 . S
C1160 H1131 0.931 . S
C1160 C1159 1.376 . S
C1160 C1161 1.396 . S
C1161 C1160 1.396 . S
C1161 C1162 1.348 . S
C1161 C1179 1.472 . S
C1162 H1132 0.929 . S
C1162 C1161 1.348 . S
C1162 C1163 1.443 . S
C1163 H1130 0.932 . S
C1163 C1158 1.388 . S
C1163 C1162 1.443 . S
C1164 N1144 1.433 . S
C1164 C1165 1.363 . S
C1164 C1169 1.370 . S
C1165 H1133 0.929 . S
C1165 C1164 1.363 . S
C1165 C1166 1.385 . S
C1166 H1134 0.930 . S
C1166 C1165 1.385 . S
C1166 C1167 1.357 . S
C1167 C1166 1.357 . S
C1167 C1168 1.406 . S
C1168 H1135 0.929 . S
C1168 C1167 1.406 . S
C1168 C1169 1.391 . S
C1169 H1136 0.931 . S
C1169 C1164 1.370 . S
C1169 C1168 1.391 . S
C1170 N1144 1.435 . S
C1170 C1171 1.358 . S
C1170 C1175 1.371 . S
C1171 H1137 0.930 . S
C1171 C1170 1.358 . S
C1171 C1172 1.405 . S
C1172 H1138 0.932 . S
C1172 C1171 1.405 . S
C1172 C1173 1.383 . S
C1173 C1172 1.383 . S
C1173 C1174 1.393 . S
C1174 H1139 0.931 . S
C1174 C1173 1.393 . S
C1174 C1175 1.382 . S
C1175 H1140 0.929 . S
C1175 C1170 1.371 . S
C1175 C1174 1.382 . S
C1176 N1144 1.423 . S
C1176 C1177 1.362 . S
C1176 C1181 1.388 . S
C1177 H1141 0.929 . S
C1177 C1176 1.362 . S
C1177 C1178 1.376 . S
C1178 H1142 0.931 . S
C1178 C1177 1.376 . S
C1178 C1179 1.396 . S
C1179 C1161 1.472 . S
C1179 C1178 1.396 . S
C1179 C1180 1.348 . S
C1180 H1143 0.929 . S
C1180 C1179 1.348 . S
C1180 C1181 1.443 . S
C1181 H1145 0.932 . S
C1181 C1176 1.388 . S
C1181 C1180 1.443 . S
H1182 C1209 0.929 . S
N1183 C1208 1.433 . S
N1183 C1214 1.435 . S
N1183 C1220 1.423 . S
H1184 C1210 0.930 . S
H1185 C1213 0.931 . S
H1186 C1212 0.929 . S
H1187 C1215 0.930 . S
H1188 C1216 0.932 . S
H1189 C1219 0.929 . S
H1190 C1218 0.931 . S
H1191 C1221 0.929 . S
H1192 C1225 0.932 . S
H1193 C1222 0.931 . S
H1194 C1224 0.929 . S
H1195 C1227 0.929 . S
H1196 C1228 0.930 . S
H1197 C1230 0.929 . S
H1198 C1231 0.931 . S
H1199 C1233 0.930 . S
H1200 C1234 0.932 . S
H1201 C1236 0.931 . S
H1202 C1237 0.929 . S
H1203 C1239 0.929 . S
H1204 C1240 0.931 . S
H1205 C1242 0.929 . S
N1206 C1226 1.433 . S
N1206 C1232 1.435 . S
N1206 C1238 1.423 . S
H1207 C1243 0.932 . S
C1208 N1183 1.433 . S
C1208 C1209 1.363 . S
C1208 C1213 1.370 . S
C1209 H1182 0.929 . S
C1209 C1208 1.363 . S
C1209 C1210 1.385 . S
C1210 H1184 0.930 . S
C1210 C1209 1.385 . S
C1210 C1211 1.357 . S
C1211 C1210 1.357 . S
C1211 C1212 1.406 . S
C1212 H1186 0.929 . S
C1212 C1211 1.406 . S
C1212 C1213 1.391 . S
C1213 H1185 0.931 . S
C1213 C1208 1.370 . S
C1213 C1212 1.391 . S
C1214 N1183 1.435 . S
C1214 C1215 1.358 . S
C1214 C1219 1.371 . S
C1215 H1187 0.930 . S
C1215 C1214 1.358 . S
C1215 C1216 1.405 . S
C1216 H1188 0.932 . S
C1216 C1215 1.405 . S
C1216 C1217 1.383 . S
C1217 C1216 1.383 . S
C1217 C1218 1.393 . S
C1218 H1190 0.931 . S
C1218 C1217 1.393 . S
C1218 C1219 1.382 . S
C1219 H1189 0.929 . S
C1219 C1214 1.371 . S
C1219 C1218 1.382 . S
C1220 N1183 1.423 . S
C1220 C1221 1.362 . S
C1220 C1225 1.388 . S
C1221 H1191 0.929 . S
C1221 C1220 1.362 . S
C1221 C1222 1.376 . S
C1222 H1193 0.931 . S
C1222 C1221 1.376 . S
C1222 C1223 1.396 . S
C1223 C1222 1.396 . S
C1223 C1224 1.348 . S
C1223 C1241 1.472 . S
C1224 H1194 0.929 . S
C1224 C1223 1.348 . S
C1224 C1225 1.443 . S
C1225 H1192 0.932 . S
C1225 C1220 1.388 . S
C1225 C1224 1.443 . S
C1226 N1206 1.433 . S
C1226 C1227 1.363 . S
C1226 C1231 1.370 . S
C1227 H1195 0.929 . S
C1227 C1226 1.363 . S
C1227 C1228 1.385 . S
C1228 H1196 0.930 . S
C1228 C1227 1.385 . S
C1228 C1229 1.357 . S
C1229 C1228 1.357 . S
C1229 C1230 1.406 . S
C1230 H1197 0.929 . S
C1230 C1229 1.406 . S
C1230 C1231 1.391 . S
C1231 H1198 0.931 . S
C1231 C1226 1.370 . S
C1231 C1230 1.391 . S
C1232 N1206 1.435 . S
C1232 C1233 1.358 . S
C1232 C1237 1.371 . S
C1233 H1199 0.930 . S
C1233 C1232 1.358 . S
C1233 C1234 1.405 . S
C1234 H1200 0.932 . S
C1234 C1233 1.405 . S
C1234 C1235 1.383 . S
C1235 C1234 1.383 . S
C1235 C1236 1.393 . S
C1236 H1201 0.931 . S
C1236 C1235 1.393 . S
C1236 C1237 1.382 . S
C1237 H1202 0.929 . S
C1237 C1232 1.371 . S
C1237 C1236 1.382 . S
C1238 N1206 1.423 . S
C1238 C1239 1.362 . S
C1238 C1243 1.388 . S
C1239 H1203 0.929 . S
C1239 C1238 1.362 . S
C1239 C1240 1.376 . S
C1240 H1204 0.931 . S
C1240 C1239 1.376 . S
C1240 C1241 1.396 . S
C1241 C1223 1.472 . S
C1241 C1240 1.396 . S
C1241 C1242 1.348 . S
C1242 H1205 0.929 . S
C1242 C1241 1.348 . S
C1242 C1243 1.443 . S
C1243 H1207 0.932 . S
C1243 C1238 1.388 . S
C1243 C1242 1.443 . S
H1244 C1271 0.929 . S
N1245 C1270 1.433 . S
N1245 C1276 1.435 . S
N1245 C1282 1.423 . S
H1246 C1272 0.930 . S
H1247 C1275 0.931 . S
H1248 C1274 0.929 . S
H1249 C1277 0.930 . S
H1250 C1278 0.932 . S
H1251 C1281 0.929 . S
H1252 C1280 0.931 . S
H1253 C1283 0.929 . S
H1254 C1287 0.932 . S
H1255 C1284 0.931 . S
H1256 C1286 0.929 . S
H1257 C1289 0.929 . S
H1258 C1290 0.930 . S
H1259 C1292 0.929 . S
H1260 C1293 0.931 . S
H1261 C1295 0.930 . S
H1262 C1296 0.932 . S
H1263 C1298 0.931 . S
H1264 C1299 0.929 . S
H1265 C1301 0.929 . S
H1266 C1302 0.931 . S
H1267 C1304 0.929 . S
N1268 C1288 1.433 . S
N1268 C1294 1.435 . S
N1268 C1300 1.423 . S
H1269 C1305 0.932 . S
C1270 N1245 1.433 . S
C1270 C1271 1.363 . S
C1270 C1275 1.370 . S
C1271 H1244 0.929 . S
C1271 C1270 1.363 . S
C1271 C1272 1.385 . S
C1272 H1246 0.930 . S
C1272 C1271 1.385 . S
C1272 C1273 1.357 . S
C1273 C1272 1.357 . S
C1273 C1274 1.406 . S
C1274 H1248 0.929 . S
C1274 C1273 1.406 . S
C1274 C1275 1.391 . S
C1275 H1247 0.931 . S
C1275 C1270 1.370 . S
C1275 C1274 1.391 . S
C1276 N1245 1.435 . S
C1276 C1277 1.358 . S
C1276 C1281 1.371 . S
C1277 H1249 0.930 . S
C1277 C1276 1.358 . S
C1277 C1278 1.405 . S
C1278 H1250 0.932 . S
C1278 C1277 1.405 . S
C1278 C1279 1.383 . S
C1279 C1278 1.383 . S
C1279 C1280 1.393 . S
C1280 H1252 0.931 . S
C1280 C1279 1.393 . S
C1280 C1281 1.382 . S
C1281 H1251 0.929 . S
C1281 C1276 1.371 . S
C1281 C1280 1.382 . S
C1282 N1245 1.423 . S
C1282 C1283 1.362 . S
C1282 C1287 1.388 . S
C1283 H1253 0.929 . S
C1283 C1282 1.362 . S
C1283 C1284 1.376 . S
C1284 H1255 0.931 . S
C1284 C1283 1.376 . S
C1284 C1285 1.396 . S
C1285 C1284 1.396 . S
C1285 C1286 1.348 . S
C1285 C1303 1.472 . S
C1286 H1256 0.929 . S
C1286 C1285 1.348 . S
C1286 C1287 1.443 . S
C1287 H1254 0.932 . S
C1287 C1282 1.388 . S
C1287 C1286 1.443 . S
C1288 N1268 1.433 . S
C1288 C1289 1.363 . S
C1288 C1293 1.370 . S
C1289 H1257 0.929 . S
C1289 C1288 1.363 . S
C1289 C1290 1.385 . S
C1290 H1258 0.930 . S
C1290 C1289 1.385 . S
C1290 C1291 1.357 . S
C1291 C1290 1.357 . S
C1291 C1292 1.406 . S
C1292 H1259 0.929 . S
C1292 C1291 1.406 . S
C1292 C1293 1.391 . S
C1293 H1260 0.931 . S
C1293 C1288 1.370 . S
C1293 C1292 1.391 . S
C1294 N1268 1.435 . S
C1294 C1295 1.358 . S
C1294 C1299 1.371 . S
C1295 H1261 0.930 . S
C1295 C1294 1.358 . S
C1295 C1296 1.405 . S
C1296 H1262 0.932 . S
C1296 C1295 1.405 . S
C1296 C1297 1.383 . S
C1297 C1296 1.383 . S
C1297 C1298 1.393 . S
C1298 H1263 0.931 . S
C1298 C1297 1.393 . S
C1298 C1299 1.382 . S
C1299 H1264 0.929 . S
C1299 C1294 1.371 . S
C1299 C1298 1.382 . S
C1300 N1268 1.423 . S
C1300 C1301 1.362 . S
C1300 C1305 1.388 . S
C1301 H1265 0.929 . S
C1301 C1300 1.362 . S
C1301 C1302 1.376 . S
C1302 H1266 0.931 . S
C1302 C1301 1.376 . S
C1302 C1303 1.396 . S
C1303 C1285 1.472 . S
C1303 C1302 1.396 . S
C1303 C1304 1.348 . S
C1304 H1267 0.929 . S
C1304 C1303 1.348 . S
C1304 C1305 1.443 . S
C1305 H1269 0.932 . S
C1305 C1300 1.388 . S
C1305 C1304 1.443 . S
H1306 C1333 0.929 . S
N1307 C1332 1.433 . S
N1307 C1338 1.435 . S
N1307 C1344 1.423 . S
H1308 C1334 0.930 . S
H1309 C1337 0.931 . S
H1310 C1336 0.929 . S
H1311 C1339 0.930 . S
H1312 C1340 0.932 . S
H1313 C1343 0.929 . S
H1314 C1342 0.931 . S
H1315 C1345 0.929 . S
H1316 C1349 0.932 . S
H1317 C1346 0.931 . S
H1318 C1348 0.929 . S
H1319 C1351 0.929 . S
H1320 C1352 0.930 . S
H1321 C1354 0.929 . S
H1322 C1355 0.931 . S
H1323 C1357 0.930 . S
H1324 C1358 0.932 . S
H1325 C1360 0.931 . S
H1326 C1361 0.929 . S
H1327 C1363 0.929 . S
H1328 C1364 0.931 . S
H1329 C1366 0.929 . S
N1330 C1350 1.433 . S
N1330 C1356 1.435 . S
N1330 C1362 1.423 . S
H1331 C1367 0.932 . S
C1332 N1307 1.433 . S
C1332 C1333 1.363 . S
C1332 C1337 1.370 . S
C1333 H1306 0.929 . S
C1333 C1332 1.363 . S
C1333 C1334 1.385 . S
C1334 H1308 0.930 . S
C1334 C1333 1.385 . S
C1334 C1335 1.357 . S
C1335 C1334 1.357 . S
C1335 C1336 1.406 . S
C1336 H1310 0.929 . S
C1336 C1335 1.406 . S
C1336 C1337 1.391 . S
C1337 H1309 0.931 . S
C1337 C1332 1.370 . S
C1337 C1336 1.391 . S
C1338 N1307 1.435 . S
C1338 C1339 1.358 . S
C1338 C1343 1.371 . S
C1339 H1311 0.930 . S
C1339 C1338 1.358 . S
C1339 C1340 1.405 . S
C1340 H1312 0.932 . S
C1340 C1339 1.405 . S
C1340 C1341 1.383 . S
C1341 C1340 1.383 . S
C1341 C1342 1.393 . S
C1342 H1314 0.931 . S
C1342 C1341 1.393 . S
C1342 C1343 1.382 . S
C1343 H1313 0.929 . S
C1343 C1338 1.371 . S
C1343 C1342 1.382 . S
C1344 N1307 1.423 . S
C1344 C1345 1.362 . S
C1344 C1349 1.388 . S
C1345 H1315 0.929 . S
C1345 C1344 1.362 . S
C1345 C1346 1.376 . S
C1346 H1317 0.931 . S
C1346 C1345 1.376 . S
C1346 C1347 1.396 . S
C1347 C1346 1.396 . S
C1347 C1348 1.348 . S
C1347 C1365 1.472 . S
C1348 H1318 0.929 . S
C1348 C1347 1.348 . S
C1348 C1349 1.443 . S
C1349 H1316 0.932 . S
C1349 C1344 1.388 . S
C1349 C1348 1.443 . S
C1350 N1330 1.433 . S
C1350 C1351 1.363 . S
C1350 C1355 1.370 . S
C1351 H1319 0.929 . S
C1351 C1350 1.363 . S
C1351 C1352 1.385 . S
C1352 H1320 0.930 . S
C1352 C1351 1.385 . S
C1352 C1353 1.357 . S
C1353 C1352 1.357 . S
C1353 C1354 1.406 . S
C1354 H1321 0.929 . S
C1354 C1353 1.406 . S
C1354 C1355 1.391 . S
C1355 H1322 0.931 . S
C1355 C1350 1.370 . S
C1355 C1354 1.391 . S
C1356 N1330 1.435 . S
C1356 C1357 1.358 . S
C1356 C1361 1.371 . S
C1357 H1323 0.930 . S
C1357 C1356 1.358 . S
C1357 C1358 1.405 . S
C1358 H1324 0.932 . S
C1358 C1357 1.405 . S
C1358 C1359 1.383 . S
C1359 C1358 1.383 . S
C1359 C1360 1.393 . S
C1360 H1325 0.931 . S
C1360 C1359 1.393 . S
C1360 C1361 1.382 . S
C1361 H1326 0.929 . S
C1361 C1356 1.371 . S
C1361 C1360 1.382 . S
C1362 N1330 1.423 . S
C1362 C1363 1.362 . S
C1362 C1367 1.388 . S
C1363 H1327 0.929 . S
C1363 C1362 1.362 . S
C1363 C1364 1.376 . S
C1364 H1328 0.931 . S
C1364 C1363 1.376 . S
C1364 C1365 1.396 . S
C1365 C1347 1.472 . S
C1365 C1364 1.396 . S
C1365 C1366 1.348 . S
C1366 H1329 0.929 . S
C1366 C1365 1.348 . S
C1366 C1367 1.443 . S
C1367 H1331 0.932 . S
C1367 C1362 1.388 . S
C1367 C1366 1.443 . S
C7 C857 1.925 . S
C23 C901 2.153 . S
C981 C37 1.807 . S
C35 C1025 1.976 . S
C9 C1105 1.912 1_655 S
C21 C1167 2.075 . S
C49 C1087 1.921 . S
C1149 C65 2.023 . S
C1043 C79 1.960 1_565 S
C77 C963 1.904 . S
C839 C51 1.919 1_655 S
C63 C919 2.161 . S
C91 C1229 2.101 . S
C107 C1273 2.274 . S
C1353 C121 2.157 . S
C119 C299 2.134 . S
C93 C343 2.343 . S
C105 C423 2.171 . S
C133 C361 2.162 . S
C149 C405 2.125 . S
C281 C163 2.135 . S
C1335 C161 2.171 . S
C1211 C135 2.194 . S
C1291 C147 2.284 . S
C175 C485 2.059 . S
C191 C547 2.112 . S
C205 C591 2.292 . S
C203 C653 2.299 . S
C715 C177 2.365 . S
C795 C189 2.191 . S
C733 C217 2.210 . S
C777 C233 2.144 . S
C247 C671 2.328 . S
C609 C245 2.252 . S
C219 C467 2.173 . S
C529 C231 2.170 . S
C305 C8 1.718 . S
C17 C349 1.714 . S
C429 C31 1.655 . S
C491 C36 1.723 . S
C553 C3 1.652 . S
C597 C22 1.804 . S
C50 C615 1.799 . S
C59 C473 1.617 . S
C73 C535 1.639 . S
C78 C367 1.824 . S
C411 C45 1.666 . S
C64 C287 1.720 . S
C659 C92 1.798 . S
C101 C721 1.762 . S
C115 C801 1.672 . S
C863 C120 1.454 . S
C87 C907 1.680 . S
C106 C987 1.377 . S
C134 C969 1.388 . S
C143 C845 1.419 . S
C925 C157 1.662 . S
C162 C739 1.799 . S
C129 C783 1.693 . S
C677 C148 1.845 . S
C1031 C176 1.461 . S
C185 C1111 1.418 . S
C199 C1173 1.599 . S
C1235 C204 1.698 . S
C1279 C171 1.758 . S
C190 C1359 1.752 . S
C218 C1341 1.711 . S
C227 C1217 1.675 . S
C1297 C241 1.724 . S
C1093 C246 1.450 . S
C1155 C213 1.615 . S
C232 C1049 1.461 . S
