# Generated by pormake.
# Topology the, (3,8)-cn, num edge types: 1
# Building blocks:
#     Node 0, Type 0, BuildingBlock: BETDIP_clean_linker_0, # of connection points: 3
#     Node 1, Type 0, BuildingBlock: BETDIP_clean_linker_0, # of connection points: 3
#     Node 2, Type 0, BuildingBlock: BETDIP_clean_linker_0, # of connection points: 3
#     Node 3, Type 0, BuildingBlock: BETDIP_clean_linker_0, # of connection points: 3
#     Node 4, Type 0, BuildingBlock: BETDIP_clean_linker_0, # of connection points: 3
#     Node 5, Type 0, BuildingBlock: BETDIP_clean_linker_0, # of connection points: 3
#     Node 6, Type 0, BuildingBlock: BETDIP_clean_linker_0, # of connection points: 3
#     Node 7, Type 0, BuildingBlock: BETDIP_clean_linker_0, # of connection points: 3
#     Node 8, Type 1, BuildingBlock: GIZVER_clean_sbu_0, # of connection points: 8
#     Node 9, Type 1, BuildingBlock: GIZVER_clean_sbu_0, # of connection points: 8
#     Node 10, Type 1, BuildingBlock: GIZVER_clean_sbu_0, # of connection points: 8
#     Edge 11, Type (0, 1), BuildingBlock: EZIPEK_clean_linker_0, # of connection points: 2
#     Edge 12, Type (0, 1), BuildingBlock: EZIPEK_clean_linker_0, # of connection points: 2
#     Edge 13, Type (0, 1), BuildingBlock: EZIPEK_clean_linker_0, # of connection points: 2
#     Edge 14, Type (0, 1), BuildingBlock: EZIPEK_clean_linker_0, # of connection points: 2
#     Edge 15, Type (0, 1), BuildingBlock: EZIPEK_clean_linker_0, # of connection points: 2
#     Edge 16, Type (0, 1), BuildingBlock: EZIPEK_clean_linker_0, # of connection points: 2
#     Edge 17, Type (0, 1), BuildingBlock: EZIPEK_clean_linker_0, # of connection points: 2
#     Edge 18, Type (0, 1), BuildingBlock: EZIPEK_clean_linker_0, # of connection points: 2
#     Edge 19, Type (0, 1), BuildingBlock: EZIPEK_clean_linker_0, # of connection points: 2
#     Edge 20, Type (0, 1), BuildingBlock: EZIPEK_clean_linker_0, # of connection points: 2
#     Edge 21, Type (0, 1), BuildingBlock: EZIPEK_clean_linker_0, # of connection points: 2
#     Edge 22, Type (0, 1), BuildingBlock: EZIPEK_clean_linker_0, # of connection points: 2
#     Edge 23, Type (0, 1), BuildingBlock: EZIPEK_clean_linker_0, # of connection points: 2
#     Edge 24, Type (0, 1), BuildingBlock: EZIPEK_clean_linker_0, # of connection points: 2
#     Edge 25, Type (0, 1), BuildingBlock: EZIPEK_clean_linker_0, # of connection points: 2
#     Edge 26, Type (0, 1), BuildingBlock: EZIPEK_clean_linker_0, # of connection points: 2
#     Edge 27, Type (0, 1), BuildingBlock: EZIPEK_clean_linker_0, # of connection points: 2
#     Edge 28, Type (0, 1), BuildingBlock: EZIPEK_clean_linker_0, # of connection points: 2
#     Edge 29, Type (0, 1), BuildingBlock: EZIPEK_clean_linker_0, # of connection points: 2
#     Edge 30, Type (0, 1), BuildingBlock: EZIPEK_clean_linker_0, # of connection points: 2
#     Edge 31, Type (0, 1), BuildingBlock: EZIPEK_clean_linker_0, # of connection points: 2
#     Edge 32, Type (0, 1), BuildingBlock: EZIPEK_clean_linker_0, # of connection points: 2
#     Edge 33, Type (0, 1), BuildingBlock: EZIPEK_clean_linker_0, # of connection points: 2
#     Edge 34, Type (0, 1), BuildingBlock: EZIPEK_clean_linker_0, # of connection points: 2
# Relax obj value: 0.091
# Max RMSD: 0.196
# Mean RMSD: 0.132
data_MOF--net-the--node1-GIZVER_clean_sbu_0--node2-BETDIP_clean_linker_0--edge1-EZIPEK_clean_linker_0
_symmetry_space_group_name_H-M    P1
_symmetry_Int_Tables_number       1
_symmetry_cell_setting            triclinic
loop_
_symmetry_equiv_pos_as_xyz
'x, y, z'
_cell_length_a     30.429494
_cell_length_b     28.091631
_cell_length_c     27.170972
_cell_angle_alpha  89.947611
_cell_angle_beta   92.980877
_cell_angle_gamma 113.42378
loop_
_atom_site_label
_atom_site_type_symbol
_atom_site_fract_x
_atom_site_fract_y
_atom_site_fract_z
_atom_type_partial_charge
H0 H 0.27845 0.34441 0.48226 0.0
H1 H 0.38195 0.36095 0.37491 0.0
H2 H 0.25235 0.38174 0.33316 0.0
H3 H 0.30295 0.28099 0.51163 0.0
C4 C 0.33871 0.28996 0.49941 0.0
C5 C 0.28928 0.35091 0.44464 0.0
C6 C 0.26158 0.36513 0.40951 0.0
C7 C 0.33188 0.34749 0.43139 0.0
C8 C 0.34792 0.36153 0.38409 0.0
C9 C 0.31917 0.37296 0.34775 0.0
C10 C 0.27494 0.37267 0.36052 0.0
N11 N 0.35882 0.32843 0.46376 0.0
H12 H 0.77699 0.42467 0.32501 0.0
H13 H 0.6447 0.29031 0.30216 0.0
H14 H 0.74451 0.29458 0.42136 0.0
H15 H 0.66372 0.32003 0.21474 0.0
C16 C 0.66637 0.35823 0.22595 0.0
C17 C 0.75399 0.38554 0.3347 0.0
C18 C 0.76716 0.3622 0.37568 0.0
C19 C 0.71102 0.35892 0.30644 0.0
C20 C 0.67967 0.30949 0.32106 0.0
C21 C 0.6912 0.28697 0.36323 0.0
C22 C 0.73584 0.31217 0.38878 0.0
N23 N 0.69747 0.38473 0.26705 0.0
H24 H 0.71367 0.66821 0.30906 0.0
H25 H 0.74125 0.79065 0.41553 0.0
H26 H 0.65211 0.7812 0.28466 0.0
H27 H 0.81517 0.78187 0.42576 0.0
C28 C 0.80616 0.74074 0.42008 0.0
C29 C 0.70946 0.70321 0.31993 0.0
C30 C 0.68063 0.72172 0.29007 0.0
C31 C 0.73416 0.7298 0.36311 0.0
C32 C 0.72605 0.77283 0.37989 0.0
C33 C 0.69489 0.79021 0.35256 0.0
C34 C 0.67496 0.76674 0.30623 0.0
N35 N 0.76482 0.71032 0.38977 0.0
H36 H 0.2365 0.64974 0.31751 0.0
H37 H 0.3729 0.77773 0.31603 0.0
H38 H 0.26382 0.78847 0.40369 0.0
H39 H 0.36848 0.7449 0.23338 0.0
C40 C 0.35647 0.70474 0.24449 0.0
C41 C 0.25916 0.68944 0.32846 0.0
C42 C 0.24367 0.71614 0.36254 0.0
C43 C 0.30401 0.71279 0.3088 0.0
C44 C 0.33609 0.76183 0.32667 0.0
C45 C 0.32221 0.78811 0.36241 0.0
C46 C 0.27469 0.76724 0.37698 0.0
N47 N 0.31787 0.68324 0.27566 0.0
H48 H 0.29094 0.64198 0.77133 0.0
H49 H 0.42431 0.77718 0.78169 0.0
H50 H 0.3174 0.76471 0.66735 0.0
H51 H 0.45227 0.72022 0.81239 0.0
C52 C 0.42429 0.69135 0.83242 0.0
C53 C 0.31341 0.68023 0.75892 0.0
C54 C 0.29785 0.70094 0.71762 0.0
C55 C 0.35919 0.70681 0.78213 0.0
C56 C 0.38888 0.75588 0.76466 0.0
C57 C 0.37398 0.77681 0.72314 0.0
C58 C 0.32821 0.74959 0.70042 0.0
N59 N 0.37519 0.68188 0.82078 0.0
H60 H 0.32314 0.36166 0.78882 0.0
H61 H 0.29519 0.24138 0.68126 0.0
H62 H 0.40475 0.26849 0.79748 0.0
H63 H 0.22164 0.24871 0.66914 0.0
C64 C 0.23323 0.2904 0.67362 0.0
C65 C 0.32927 0.32844 0.77585 0.0
C66 C 0.36566 0.31644 0.79884 0.0
C67 C 0.30306 0.30052 0.73413 0.0
C68 C 0.31208 0.25829 0.7164 0.0
C69 C 0.34495 0.24109 0.74194 0.0
C70 C 0.37396 0.27387 0.78123 0.0
N71 N 0.27072 0.3188 0.70898 0.0
H72 H 0.69864 0.24858 0.77984 0.0
H73 H 0.83734 0.37389 0.7994 0.0
H74 H 0.79754 0.28458 0.66422 0.0
H75 H 0.81585 0.38626 0.87264 0.0
C76 C 0.77699 0.36904 0.87107 0.0
C77 C 0.7342 0.27011 0.76704 0.0
C78 C 0.74483 0.26023 0.71939 0.0
C79 C 0.76714 0.31066 0.79659 0.0
C80 C 0.81215 0.34055 0.77864 0.0
C81 C 0.82324 0.33141 0.73094 0.0
C82 C 0.79011 0.29008 0.7019 0.0
N83 N 0.75082 0.32487 0.84017 0.0
H84 H 0.67552 0.70522 0.69919 0.0
H85 H 0.77914 0.73021 0.58966 0.0
H86 H 0.78396 0.64426 0.71941 0.0
H87 H 0.767 0.80973 0.58782 0.0
C88 C 0.72917 0.79812 0.59392 0.0
C89 C 0.70618 0.69958 0.68603 0.0
C90 C 0.72812 0.67287 0.71477 0.0
C91 C 0.72459 0.72062 0.64115 0.0
C92 C 0.76499 0.71451 0.62452 0.0
C93 C 0.78617 0.68671 0.65281 0.0
C94 C 0.76742 0.66569 0.69753 0.0
N95 N 0.70268 0.74948 0.61473 0.0
Co96 Co 0.10933 0.46946 0.56807 0.0
Co97 Co 0.06748 0.46571 0.48027 0.0
Co98 Co 0.0305 0.52929 0.5498 0.0
O99 O 0.04846 0.46824 0.54438 0.0
H100 H 0.02221 0.43609 0.55154 0.0
O101 O 1.01116 0.5892 0.55345 0.0
Co102 Co 0.94799 0.58249 0.5321 0.0
Co103 Co 0.99785 0.59761 0.61781 0.0
H104 H 0.03504 0.62144 0.54317 0.0
O105 O 0.06821 0.40581 0.45227 0.0
O106 O 0.12722 0.46704 0.49909 0.0
O107 O 0.07728 0.52483 0.43767 0.0
O108 O 0.07634 0.57299 0.50104 0.0
O109 O 0.97922 0.4946 0.49627 0.0
O110 O 0.89171 0.5833 0.5115 0.0
O111 O 0.96264 0.65121 0.52456 0.0
O112 O 0.92439 0.51029 0.5344 0.0
O113 O 0.98409 0.48803 0.60021 0.0
O114 O 0.99946 0.54412 0.66251 0.0
O115 O 0.93361 0.58382 0.60126 0.0
O116 O 0.98513 0.65394 0.64153 0.0
C117 C 0.13672 0.4158 0.58991 0.0
C118 C 0.12656 0.56906 0.59891 0.0
C119 C 0.08525 0.56902 0.45646 0.0
C120 C 0.11237 0.42628 0.46989 0.0
C121 C 0.91756 0.63279 0.50869 0.0
C122 C 0.93528 0.48624 0.50093 0.0
C123 C 0.97979 0.49817 0.64518 0.0
C124 C 0.94116 0.62455 0.62789 0.0
O125 O 0.16336 0.46522 0.59144 0.0
O126 O 0.09195 0.3998 0.57311 0.0
O127 O 0.08316 0.5642 0.60269 0.0
O128 O 0.13571 0.54147 0.56742 0.0
Co129 Co 0.57121 0.95054 0.48588 0.0
Co130 Co 0.59725 0.9848 0.57738 0.0
Co131 Co 0.52724 0.03351 0.53951 0.0
O132 O 0.5819 1.0146 0.52187 0.0
H133 H 0.60958 0.04389 0.51181 0.0
O134 O 0.47167 0.05144 0.55488 0.0
Co135 Co 0.47687 0.10715 0.59794 0.0
Co136 Co 0.45782 0.08897 0.50477 0.0
H137 H 0.44332 0.02068 0.56041 0.0
O138 O 0.65754 0.98699 0.5876 0.0
O139 O 0.593 0.92434 0.54737 0.0
O140 O 0.55363 0.96273 0.63018 0.0
O141 O 0.49542 0.97133 0.58344 0.0
O142 O 0.56817 0.07607 0.59728 0.0
O143 O 0.47579 0.15527 0.64033 0.0
O144 O 0.41407 0.08301 0.61246 0.0
O145 O 0.54303 0.13877 0.58923 0.0
O146 O 0.559 0.09559 0.49639 0.0
O147 O 0.50264 0.11243 0.45349 0.0
O148 O 0.46603 0.14771 0.54163 0.0
O149 O 0.40017 0.097 0.49658 0.0
C150 C 0.61002 0.91841 0.4463 0.0
C151 C 0.47877 0.94299 0.47789 0.0
C152 C 0.50952 0.95193 0.62056 0.0
C153 C 0.63705 0.94128 0.56678 0.0
C154 C 0.43034 0.12528 0.63991 0.0
C155 C 0.57223 0.12176 0.6091 0.0
C156 C 0.54591 0.11823 0.46128 0.0
C157 C 0.42569 0.14138 0.51831 0.0
O158 O 0.56462 0.89353 0.45231 0.0
O159 O 0.63135 0.96628 0.46357 0.0
O160 O 0.48693 0.99096 0.48258 0.0
O161 O 0.50592 0.9245 0.50087 0.0
Co162 Co 0.47809 0.53761 0.13506 0.0
Co163 Co 0.45494 0.44339 0.10645 0.0
Co164 Co 0.53527 0.52069 0.03864 0.0
O165 O 0.47549 0.5048 0.07356 0.0
H166 H 0.44962 0.50513 0.05155 0.0
O167 O 0.59614 0.53687 1.00432 0.0
Co168 Co 0.60373 0.49161 0.95571 0.0
Co169 Co 0.60722 0.58101 0.95375 0.0
H170 H 0.62346 0.54916 0.02778 0.0
O171 O 0.39137 0.40723 0.11938 0.0
O172 O 0.44883 0.46899 0.16756 0.0
O173 O 0.50032 0.41225 0.11601 0.0
O174 O 0.56051 0.47709 0.08301 0.0
O175 O 0.49637 0.45912 0.99359 0.0
O176 O 0.61545 0.44994 0.91438 0.0
O177 O 0.66488 0.50209 0.97466 0.0
O178 O 0.5418 0.47369 0.92946 0.0
O179 O 0.50973 0.56553 0.99617 0.0
O180 O 0.55659 0.60182 0.93445 0.0
O181 O 0.62434 0.54717 0.90593 0.0
O182 O 0.66642 0.6274 0.9412 0.0
C183 C 0.43732 0.56848 0.16689 0.0
C184 C 0.57324 0.57951 0.13051 0.0
C185 C 0.54457 0.43604 0.10893 0.0
C186 C 0.40569 0.43268 0.16105 0.0
C187 C 0.65613 0.46673 0.93998 0.0
C188 C 0.50142 0.45294 0.94789 0.0
C189 C 0.519 0.59287 0.95724 0.0
C190 C 0.65682 0.59458 0.90429 0.0
O191 O 0.47624 0.56963 0.18977 0.0
O192 O 0.42105 0.5413 0.12605 0.0
O193 O 0.57228 0.58244 0.08363 0.0
O194 O 0.54062 0.54201 0.15056 0.0
C195 C 0.17846 0.34058 0.43942 0.0
C196 C 0.22228 0.37916 0.42505 0.0
C197 C 0.18948 0.44516 0.43097 0.0
C198 C 0.14794 0.40823 0.45128 0.0
N199 N 0.10551 0.32207 0.48184 0.0
N200 N 0.27383 0.4701 0.42051 0.0
C201 C 0.14287 0.35607 0.45723 0.0
C202 C 0.22906 0.43206 0.42453 0.0
N203 N 0.17053 0.28932 0.43521 0.0
N204 N 0.1908 0.49237 0.41666 0.0
H205 H 0.30448 0.46227 0.4189 0.0
H206 H 0.28122 0.50948 0.42459 0.0
H207 H 0.16165 0.50281 0.4188 0.0
H208 H 0.21882 0.51873 0.3976 0.0
H209 H 0.13743 0.2593 0.44041 0.0
H210 H 0.19605 0.27679 0.42265 0.0
H211 H 0.1032 0.28551 0.49231 0.0
H212 H 0.0787 0.33186 0.49537 0.0
C213 C 0.62426 0.25366 0.42041 0.0
C214 C 0.6532 0.24273 0.38658 0.0
C215 C 0.61003 0.1492 0.39943 0.0
C216 C 0.58337 0.1606 0.4356 0.0
N217 N 0.57228 0.22371 0.48814 0.0
N218 N 0.67801 0.18153 0.34717 0.0
C219 C 0.59237 0.21285 0.44808 0.0
C220 C 0.64734 0.1908 0.37699 0.0
N221 N 0.62671 0.30312 0.42567 0.0
N222 N 0.59882 0.09869 0.38584 0.0
H223 H 0.70457 0.21107 0.32914 0.0
H224 H 0.67916 0.1453 0.34249 0.0
H225 H 0.57239 0.06755 0.40229 0.0
H226 H 0.61339 0.08756 0.35638 0.0
H227 H 0.60232 0.31225 0.445 0.0
H228 H 0.65071 0.33478 0.40757 0.0
H229 H 0.58192 0.26097 0.50278 0.0
H230 H 0.5493 0.19507 0.50992 0.0
C231 C 0.85126 0.68271 0.41224 0.0
C232 C 0.83937 0.71743 0.44129 0.0
C233 C 0.89205 0.70866 0.50953 0.0
C234 C 0.89561 0.66632 0.48402 0.0
N235 N 0.87902 0.61319 0.40978 0.0
N236 N 0.84701 0.76216 0.51918 0.0
C237 C 0.87507 0.65325 0.43508 0.0
C238 C 0.85985 0.73055 0.49022 0.0
N239 N 0.84325 0.68079 0.36214 0.0
N240 N 0.9196 0.72844 0.55183 0.0
H241 H 0.82291 0.77822 0.50716 0.0
H242 H 0.85721 0.76919 0.55653 0.0
H243 H 0.94348 0.71371 0.56721 0.0
H244 H 0.92238 0.76265 0.56914 0.0
H245 H 0.85511 0.65974 0.33856 0.0
H246 H 0.83032 0.7054 0.34341 0.0
H247 H 0.85893 0.59711 0.37721 0.0
H248 H 0.90095 0.59454 0.42219 0.0
C249 C 0.38252 0.88081 0.37376 0.0
C250 C 0.35998 0.8302 0.3924 0.0
C251 C 0.40702 0.85898 0.4703 0.0
C252 C 0.43506 0.90705 0.44944 0.0
N253 N 0.45378 0.96086 0.37737 0.0
N254 N 0.36159 0.76799 0.45334 0.0
C255 C 0.42378 0.91762 0.40015 0.0
C256 C 0.37518 0.81832 0.43929 0.0
N257 N 0.36466 0.89356 0.33097 0.0
N258 N 0.40956 0.85248 0.52001 0.0
H259 H 0.34091 0.73648 0.43033 0.0
H260 H 0.37539 0.75764 0.4856 0.0
H261 H 0.42975 0.88287 0.54433 0.0
H262 H 0.38702 0.81914 0.53719 0.0
H263 H 0.37669 0.9313 0.31806 0.0
H264 H 0.33504 0.86703 0.31058 0.0
H265 H 0.44973 0.9675 0.34002 0.0
H266 H 0.48527 0.98788 0.39438 0.0
C267 C 0.25636 0.6524 0.63941 0.0
C268 C 0.25293 0.66863 0.68786 0.0
C269 C 0.16561 0.61801 0.68025 0.0
C270 C 0.16841 0.60772 0.6293 0.0
N271 N 0.21757 0.62911 0.55839 0.0
N272 N 0.20284 0.67492 0.75123 0.0
C273 C 0.21414 0.62927 0.60831 0.0
C274 C 0.20705 0.65408 0.70725 0.0
N275 N 0.2998 0.65734 0.62337 0.0
N276 N 0.125 0.59093 0.70423 0.0
H277 H 0.23232 0.70122 0.77194 0.0
H278 H 0.16982 0.66973 0.76468 0.0
H279 H 0.09502 0.5613 0.6877 0.0
H280 H 0.12315 0.59372 0.74224 0.0
H281 H 0.30344 0.64099 0.59022 0.0
H282 H 0.33156 0.67247 0.64544 0.0
H283 H 0.24997 0.64644 0.54148 0.0
H284 H 0.18784 0.61777 0.53354 0.0
C285 C 0.33034 0.1649 0.68074 0.0
C286 C 0.35395 0.19413 0.7239 0.0
C287 C 0.41281 0.15478 0.72152 0.0
C288 C 0.39843 0.1402 0.67113 0.0
N289 N 0.33789 0.12602 0.60442 0.0
N290 N 0.38878 0.17605 0.79923 0.0
C291 C 0.35513 0.14283 0.65136 0.0
C292 C 0.38729 0.1776 0.749 0.0
N293 N 0.28218 0.1507 0.67245 0.0
N294 N 0.45057 0.14661 0.7434 0.0
H295 H 0.36444 0.18454 0.81948 0.0
H296 H 0.40905 0.15992 0.81983 0.0
H297 H 0.4668 0.12486 0.72664 0.0
H298 H 0.46635 0.16265 0.77775 0.0
H299 H 0.26209 0.12541 0.64389 0.0
H300 H 0.26166 0.15806 0.69871 0.0
H301 H 0.31019 0.13381 0.58699 0.0
H302 H 0.35246 0.10679 0.58203 0.0
C303 C 0.86168 0.42145 0.70068 0.0
C304 C 0.86422 0.37275 0.70826 0.0
C305 C 0.9452 0.40705 0.67737 0.0
C306 C 0.94391 0.45711 0.67406 0.0
N307 N 0.90531 0.51362 0.69962 0.0
N308 N 0.9102 0.32007 0.71024 0.0
C309 C 0.90372 0.46501 0.691 0.0
C310 C 0.90652 0.36566 0.69833 0.0
N311 N 0.81861 0.42605 0.70143 0.0
N312 N 0.98359 0.39929 0.66096 0.0
H313 H 0.88221 0.289 0.72486 0.0
H314 H 0.94179 0.31418 0.70872 0.0
H315 H 1.01452 0.42962 0.65015 0.0
H316 H 0.98422 0.36276 0.6566 0.0
H317 H 0.814 0.45941 0.69039 0.0
H318 H 0.78647 0.395 0.70786 0.0
H319 H 0.87812 0.52003 0.71655 0.0
H320 H 0.93528 0.54773 0.69629 0.0
C321 C 0.71688 0.86893 0.54605 0.0
C322 C 0.70721 0.8365 0.58759 0.0
C323 C 0.64874 0.87005 0.61265 0.0
C324 C 0.66127 0.90537 0.57347 0.0
N325 N 0.71809 0.94922 0.51269 0.0
N326 N 0.67792 0.82231 0.66979 0.0
C327 C 0.69875 0.90828 0.54311 0.0
C328 C 0.67683 0.84119 0.62357 0.0
N329 N 0.74194 0.86132 0.50872 0.0
N330 N 0.611 0.86495 0.64041 0.0
H331 H 0.70284 0.80731 0.68171 0.0
H332 H 0.65908 0.82843 0.69836 0.0
H333 H 0.59119 0.88769 0.63569 0.0
H334 H 0.59742 0.83551 0.66579 0.0
H335 H 0.74544 0.88055 0.47539 0.0
H336 H 0.75537 0.83245 0.50913 0.0
H337 H 0.74798 0.955 0.4926 0.0
H338 H 0.7075 0.98023 0.51169 0.0
C339 C 0.35586 0.21711 0.46559 0.0
C340 C 0.35919 0.25054 0.50585 0.0
C341 C 0.4166 0.22279 0.55016 0.0
C342 C 0.41006 0.18553 0.51181 0.0
N343 N 0.39076 0.16495 0.42515 0.0
N344 N 0.38446 0.27832 0.59001 0.0
C345 C 0.38425 0.18743 0.46725 0.0
C346 C 0.38693 0.25113 0.54931 0.0
N347 N 0.32398 0.21217 0.42656 0.0
N348 N 0.45416 0.23553 0.58431 0.0
H349 H 0.36327 0.29982 0.59021 0.0
H350 H 0.39939 0.27525 0.62464 0.0
H351 H 0.48273 0.2248 0.58037 0.0
H352 H 0.4617 0.2642 0.61152 0.0
H353 H 0.316 0.18427 0.39852 0.0
H354 H 0.30178 0.23251 0.42465 0.0
H355 H 0.37656 0.16889 0.39045 0.0
H356 H 0.4158 0.14827 0.42369 0.0
C357 C 0.85742 0.41321 0.38685 0.0
C358 C 0.81175 0.39158 0.40746 0.0
C359 C 0.85154 0.4186 0.48951 0.0
C360 C 0.89547 0.44878 0.46826 0.0
N361 N 0.9369 0.48175 0.3937 0.0
N362 N 0.76545 0.3864 0.47867 0.0
C363 C 0.8978 0.44783 0.41606 0.0
C364 C 0.80878 0.39768 0.45895 0.0
N365 N 0.86271 0.39991 0.33988 0.0
N366 N 0.8506 0.40902 0.53886 0.0
H367 H 0.73335 0.37495 0.45732 0.0
H368 H 0.76229 0.3945 0.51545 0.0
H369 H 0.88166 0.42092 0.56206 0.0
H370 H 0.81986 0.38396 0.55524 0.0
H371 H 0.89609 0.41101 0.32485 0.0
H372 H 0.8345 0.3733 0.31797 0.0
H373 H 0.93777 0.48573 0.35557 0.0
H374 H 0.96646 0.50958 0.41279 0.0
C375 C 0.69139 0.87851 0.36553 0.0
C376 C 0.67557 0.82514 0.37698 0.0
C377 C 0.62579 0.83707 0.44002 0.0
C378 C 0.63646 0.88887 0.42449 0.0
N379 N 0.67522 0.95654 0.3672 0.0
N380 N 0.62041 0.75138 0.41868 0.0
C381 C 0.66855 0.90924 0.38608 0.0
C382 C 0.64075 0.80389 0.41239 0.0
N383 N 0.72855 0.89993 0.33543 0.0
N384 N 0.60292 0.81968 0.48254 0.0
H385 H 0.63002 0.72521 0.39943 0.0
H386 H 0.59066 0.73326 0.43953 0.0
H387 H 0.59183 0.84212 0.50511 0.0
H388 H 0.59986 0.78486 0.49856 0.0
H389 H 0.74527 0.93964 0.32969 0.0
H390 H 0.74512 0.8782 0.31922 0.0
H391 H 0.69408 0.97103 0.33587 0.0
H392 H 0.6585 0.9796 0.38021 0.0
C393 C 0.15544 0.65681 0.35559 0.0
C394 C 0.19687 0.68772 0.38562 0.0
C395 C 0.14835 0.66076 0.45709 0.0
C396 C 0.11477 0.61725 0.42993 0.0
N397 N 0.08031 0.58073 0.34978 0.0
N398 N 0.23235 0.71276 0.46897 0.0
C399 C 0.11634 0.61739 0.37784 0.0
C400 C 0.1932 0.68864 0.43754 0.0
N401 N 0.15292 0.66641 0.30647 0.0
N402 N 0.13762 0.6765 0.50059 0.0
H403 H 0.26728 0.72557 0.4582 0.0
H404 H 0.23039 0.7142 0.50705 0.0
H405 H 0.10301 0.662 0.51237 0.0
H406 H 0.16076 0.70986 0.51991 0.0
H407 H 0.12232 0.64776 0.28347 0.0
H408 H 0.17977 0.69715 0.29002 0.0
H409 H 0.08244 0.57477 0.31229 0.0
H410 H 0.04841 0.55601 0.36452 0.0
C411 C 0.40888 0.87287 0.70421 0.0
C412 C 0.40907 0.82265 0.69822 0.0
C413 C 0.47075 0.85651 0.63782 0.0
C414 C 0.4738 0.90766 0.64677 0.0
N415 N 0.44883 0.96584 0.69109 0.0
N416 N 0.44396 0.76743 0.66369 0.0
C417 C 0.44351 0.9162 0.6806 0.0
C418 C 0.4413 0.81485 0.66649 0.0
N419 N 0.37519 0.87887 0.73198 0.0
N420 N 0.49375 0.84702 0.5996 0.0
H421 H 0.4209 0.73461 0.68113 0.0
H422 H 0.47127 0.7613 0.64681 0.0
H423 H 0.51419 0.876 0.57668 0.0
H424 H 0.48861 0.81003 0.58719 0.0
H425 H 0.36947 0.91294 0.73387 0.0
H426 H 0.35078 0.84845 0.75118 0.0
H427 H 0.43152 0.97567 0.71891 0.0
H428 H 0.47313 0.99801 0.67377 0.0
C429 C 0.15779 0.30606 0.65787 0.0
C430 C 0.206 0.31745 0.64711 0.0
C431 C 0.20443 0.38517 0.5907 0.0
C432 C 0.15853 0.37881 0.60673 0.0
N433 N 0.09496 0.33804 0.66207 0.0
N434 N 0.2762 0.36786 0.60396 0.0
C435 C 0.13571 0.34 0.6415 0.0
C436 C 0.22954 0.35699 0.61364 0.0
N437 N 0.13323 0.26319 0.68441 0.0
N438 N 0.22354 0.41699 0.55239 0.0
H439 H 0.29445 0.34527 0.61659 0.0
H440 H 0.29773 0.4006 0.58541 0.0
H441 H 0.20693 0.43872 0.53463 0.0
H442 H 0.25384 0.41866 0.53513 0.0
H443 H 0.09647 0.24956 0.68877 0.0
H444 H 0.14871 0.23857 0.69858 0.0
H445 H 0.07985 0.31455 0.69154 0.0
H446 H 0.0786 0.36346 0.65333 0.0
C447 C 0.68736 0.17006 0.69363 0.0
C448 C 0.70488 0.22423 0.68625 0.0
C449 C 0.63159 0.21297 0.63705 0.0
C450 C 0.61506 0.15775 0.64054 0.0
N451 N 0.61921 0.08717 0.6887 0.0
N452 N 0.69891 0.29601 0.6418 0.0
C453 C 0.64108 0.13698 0.673 0.0
C454 C 0.67889 0.24505 0.65463 0.0
N455 N 0.71573 0.15031 0.71963 0.0
N456 N 0.60097 0.23601 0.62306 0.0
H457 H 0.73227 0.32213 0.65578 0.0
H458 H 0.68439 0.31117 0.61338 0.0
H459 H 0.5639 0.21717 0.62167 0.0
H460 H 0.61108 0.27603 0.62267 0.0
H461 H 0.70788 0.11083 0.72222 0.0
H462 H 0.74969 0.17382 0.73492 0.0
H463 H 0.63452 0.07058 0.71499 0.0
H464 H 0.58296 0.06445 0.68083 0.0
C465 C 0.81975 0.6318 0.61135 0.0
C466 C 0.82819 0.67812 0.63748 0.0
C467 C 0.90759 0.6842 0.66699 0.0
C468 C 0.89993 0.63844 0.63912 0.0
N469 N 0.83843 0.5566 0.60846 0.0
N470 N 0.8819 0.7541 0.68254 0.0
C471 C 0.85324 0.60871 0.61739 0.0
C472 C 0.8729 0.70621 0.66276 0.0
N473 N 0.7792 0.60941 0.58126 0.0
N474 N 0.94467 0.70286 0.7019 0.0
H475 H 0.85674 0.77076 0.67959 0.0
H476 H 0.91544 0.77917 0.69725 0.0
H477 H 0.96509 0.68209 0.71294 0.0
H478 H 0.95039 0.73416 0.72552 0.0
H479 H 0.77366 0.57843 0.55719 0.0
H480 H 0.75369 0.62541 0.57657 0.0
H481 H 0.80366 0.53281 0.5958 0.0
H482 H 0.85764 0.53531 0.62159 0.0
C483 C 0.33584 0.43005 0.27232 0.0
C484 C 0.33585 0.38503 0.29657 0.0
C485 C 0.37927 0.36915 0.22931 0.0
C486 C 0.37706 0.41257 0.20448 0.0
N487 N 0.33718 0.47079 0.19347 0.0
N488 N 0.34199 0.30221 0.28785 0.0
C489 C 0.34995 0.43859 0.22304 0.0
C490 C 0.35282 0.35154 0.27192 0.0
N491 N 0.32525 0.46624 0.29681 0.0
N492 N 0.40729 0.34529 0.21301 0.0
H493 H 0.31982 0.28661 0.31687 0.0
H494 H 0.35026 0.27501 0.26865 0.0
H495 H 0.42646 0.35626 0.18127 0.0
H496 H 0.41414 0.31711 0.23311 0.0
H497 H 0.3259 0.5002 0.28086 0.0
H498 H 0.32106 0.46541 0.33457 0.0
H499 H 0.31444 0.48807 0.20407 0.0
H500 H 0.34458 0.47476 0.1563 0.0
C501 C 0.4223 0.60964 0.87518 0.0
C502 C 0.44007 0.66472 0.87318 0.0
C503 C 0.50327 0.67201 0.9366 0.0
C504 C 0.48619 0.61712 0.93762 0.0
N505 N 0.42071 0.53456 0.92073 0.0
N506 N 0.48855 0.74763 0.91154 0.0
C507 C 0.44253 0.58626 0.91144 0.0
C508 C 0.47776 0.69565 0.90707 0.0
N509 N 0.38906 0.57949 0.84015 0.0
N510 N 0.54467 0.70153 0.96308 0.0
H511 H 0.46993 0.76587 0.8911 0.0
H512 H 0.5126 0.77172 0.93855 0.0
H513 H 0.56209 0.68553 0.98791 0.0
H514 H 0.5627 0.74139 0.95913 0.0
H515 H 0.37918 0.5396 0.83643 0.0
H516 H 0.37437 0.59459 0.8119 0.0
H517 H 0.38664 0.5109 0.90605 0.0
H518 H 0.43477 0.51643 0.94683 0.0
C519 C 0.39702 0.3348 0.88816 0.0
C520 C 0.39794 0.35169 0.83877 0.0
C521 C 0.45627 0.43797 0.86554 0.0
C522 C 0.4607 0.41933 0.91356 0.0
N523 N 0.44002 0.34611 0.96779 0.0
N524 N 0.43549 0.41676 0.7789 0.0
C525 C 0.43199 0.36679 0.92442 0.0
C526 C 0.42938 0.40264 0.82708 0.0
N527 N 0.36234 0.28847 0.90062 0.0
N528 N 0.47731 0.48986 0.85664 0.0
H529 H 0.41747 0.39178 0.74934 0.0
H530 H 0.46199 0.45143 0.76806 0.0
H531 H 0.49688 0.51728 0.88374 0.0
H532 H 0.47099 0.50623 0.82402 0.0
H533 H 0.35666 0.27659 0.93692 0.0
H534 H 0.33651 0.26398 0.87504 0.0
H535 H 0.42396 0.30665 0.97502 0.0
H536 H 0.46582 0.36719 0.99498 0.0
C537 C 0.71089 0.36761 0.92306 0.0
C538 C 0.75063 0.3964 0.89526 0.0
C539 C 0.73502 0.4748 0.90806 0.0
C540 C 0.69128 0.44406 0.92932 0.0
N541 N 0.63458 0.35943 0.95211 0.0
N542 N 0.79852 0.47655 0.85674 0.0
C543 C 0.67842 0.38997 0.93553 0.0
C544 C 0.76273 0.45004 0.88717 0.0
N545 N 0.70512 0.31944 0.93908 0.0
N546 N 0.74955 0.52745 0.90669 0.0
H547 H 0.81947 0.46006 0.84028 0.0
H548 H 0.80515 0.51378 0.84451 0.0
H549 H 0.72899 0.54656 0.91907 0.0
H550 H 0.78342 0.55252 0.89667 0.0
H551 H 0.67959 0.29866 0.96371 0.0
H552 H 0.72924 0.30264 0.93203 0.0
H553 H 0.62104 0.31904 0.95133 0.0
H554 H 0.61015 0.37401 0.96366 0.0
C555 C 0.66341 0.61438 0.76627 0.0
C556 C 0.7104 0.65266 0.76339 0.0
C557 C 0.72499 0.64752 0.85232 0.0
C558 C 0.67595 0.61431 0.85593 0.0
N559 N 0.59554 0.58065 0.81652 0.0
N560 N 0.78289 0.71403 0.80514 0.0
C561 C 0.6442 0.60155 0.81299 0.0
C562 C 0.74046 0.67169 0.80685 0.0
N563 N 0.63726 0.58952 0.72462 0.0
N564 N 0.75712 0.65497 0.89159 0.0
H565 H 0.79486 0.73394 0.77281 0.0
H566 H 0.80378 0.73247 0.8366 0.0
H567 H 0.74758 0.63741 0.92542 0.0
H568 H 0.79403 0.67451 0.88902 0.0
H569 H 0.60446 0.55777 0.72569 0.0
H570 H 0.65048 0.59696 0.68951 0.0
H571 H 0.57154 0.5751 0.78612 0.0
H572 H 0.57907 0.57533 0.84986 0.0
C573 C 0.68016 0.6731 0.21044 0.0
C574 C 0.65524 0.69197 0.24335 0.0
C575 C 0.5845 0.65491 0.18618 0.0
C576 C 0.60497 0.62467 0.16236 0.0
N577 N 0.67391 0.60465 0.15235 0.0
N578 N 0.57746 0.68836 0.26528 0.0
C579 C 0.65348 0.6338 0.17443 0.0
C580 C 0.60573 0.68009 0.23179 0.0
N581 N 0.72911 0.69402 0.21213 0.0
N582 N 0.54544 0.66062 0.16481 0.0
H583 H 0.58923 0.70019 0.30165 0.0
H584 H 0.54054 0.6767 0.25846 0.0
H585 H 0.53062 0.64422 0.1302 0.0
H586 H 0.53121 0.68539 0.17951 0.0
H587 H 0.74875 0.68421 0.18665 0.0
H588 H 0.74973 0.72548 0.23524 0.0
H589 H 0.7077 0.6061 0.16358 0.0
H590 H 0.65568 0.57686 0.12483 0.0
C591 C 0.37888 0.66527 0.17268 0.0
C592 C 0.37775 0.67066 0.22427 0.0
C593 C 0.40911 0.60372 0.23768 0.0
C594 C 0.41403 0.60127 0.18613 0.0
N595 N 0.41699 0.64185 0.10677 0.0
N596 N 0.40286 0.65515 0.30627 0.0
C597 C 0.40243 0.63516 0.15401 0.0
C598 C 0.39601 0.64275 0.25699 0.0
N599 N 0.3567 0.688 0.14138 0.0
N600 N 0.41597 0.56823 0.26816 0.0
H601 H 0.3953 0.68488 0.32162 0.0
H602 H 0.42082 0.63991 0.33111 0.0
H603 H 0.42336 0.53737 0.25545 0.0
H604 H 0.40922 0.56588 0.30546 0.0
H605 H 0.35191 0.68038 0.1035 0.0
H606 H 0.33942 0.7109 0.15361 0.0
H607 H 0.41352 0.67006 0.08387 0.0
H608 H 0.43759 0.62389 0.09208 0.0
C609 C 0.64645 0.39267 0.14593 0.0
C610 C 0.63839 0.38264 0.19664 0.0
C611 C 0.5757 0.41677 0.19088 0.0
C612 C 0.57905 0.42024 0.13878 0.0
N613 N 0.61577 0.40838 0.06594 0.0
N614 N 0.59032 0.37761 0.26588 0.0
C615 C 0.61429 0.40783 0.11609 0.0
C616 C 0.60184 0.3929 0.21878 0.0
N617 N 0.6855 0.3887 0.12663 0.0
N618 N 0.54904 0.43828 0.21423 0.0
H619 H 0.60835 0.35989 0.28781 0.0
H620 H 0.56009 0.37823 0.2817 0.0
H621 H 0.5304 0.45758 0.19577 0.0
H622 H 0.54954 0.44192 0.25243 0.0
H623 H 0.69665 0.4007 0.09148 0.0
H624 H 0.70937 0.37737 0.14742 0.0
H625 H 0.63776 0.3953 0.04699 0.0
H626 H 0.59255 0.41851 0.04286 0.0
loop_
_geom_bond_atom_site_label_1
_geom_bond_atom_site_label_2
_geom_bond_distance
_geom_bond_site_symmetry_2
_ccdc_geom_bond_type
H0 C5 0.930 . S
H1 C8 0.930 . S
H2 C10 0.930 . S
H3 C4 1.016 . S
C4 H3 1.016 . S
C4 N11 1.286 . S
C5 H0 0.930 . S
C5 C6 1.397 . S
C5 C7 1.361 . S
C6 C5 1.397 . S
C6 C10 1.390 . S
C7 C5 1.361 . S
C7 C8 1.393 . S
C7 N11 1.413 . S
C8 H1 0.930 . S
C8 C7 1.393 . S
C8 C9 1.399 . S
C9 C8 1.399 . S
C9 C10 1.381 . S
C10 H2 0.930 . S
C10 C6 1.390 . S
C10 C9 1.381 . S
N11 C4 1.286 . S
N11 C7 1.413 . S
H12 C17 0.930 . S
H13 C20 0.930 . S
H14 C22 0.930 . S
H15 C16 1.016 . S
C16 H15 1.016 . S
C16 N23 1.286 . S
C17 H12 0.930 . S
C17 C18 1.397 . S
C17 C19 1.361 . S
C18 C17 1.397 . S
C18 C22 1.390 . S
C19 C17 1.361 . S
C19 C20 1.393 . S
C19 N23 1.413 . S
C20 H13 0.930 . S
C20 C19 1.393 . S
C20 C21 1.399 . S
C21 C20 1.399 . S
C21 C22 1.381 . S
C22 H14 0.930 . S
C22 C18 1.390 . S
C22 C21 1.381 . S
N23 C16 1.286 . S
N23 C19 1.413 . S
H24 C29 0.930 . S
H25 C32 0.930 . S
H26 C34 0.930 . S
H27 C28 1.016 . S
C28 H27 1.016 . S
C28 N35 1.286 . S
C29 H24 0.930 . S
C29 C30 1.397 . S
C29 C31 1.361 . S
C30 C29 1.397 . S
C30 C34 1.390 . S
C31 C29 1.361 . S
C31 C32 1.393 . S
C31 N35 1.413 . S
C32 H25 0.930 . S
C32 C31 1.393 . S
C32 C33 1.399 . S
C33 C32 1.399 . S
C33 C34 1.381 . S
C34 H26 0.930 . S
C34 C30 1.390 . S
C34 C33 1.381 . S
N35 C28 1.286 . S
N35 C31 1.413 . S
H36 C41 0.930 . S
H37 C44 0.930 . S
H38 C46 0.930 . S
H39 C40 1.016 . S
C40 H39 1.016 . S
C40 N47 1.286 . S
C41 H36 0.930 . S
C41 C42 1.397 . S
C41 C43 1.361 . S
C42 C41 1.397 . S
C42 C46 1.390 . S
C43 C41 1.361 . S
C43 C44 1.393 . S
C43 N47 1.413 . S
C44 H37 0.930 . S
C44 C43 1.393 . S
C44 C45 1.399 . S
C45 C44 1.399 . S
C45 C46 1.381 . S
C46 H38 0.930 . S
C46 C42 1.390 . S
C46 C45 1.381 . S
N47 C40 1.286 . S
N47 C43 1.413 . S
H48 C53 0.930 . S
H49 C56 0.930 . S
H50 C58 0.930 . S
H51 C52 1.016 . S
C52 H51 1.016 . S
C52 N59 1.286 . S
C53 H48 0.930 . S
C53 C54 1.397 . S
C53 C55 1.361 . S
C54 C53 1.397 . S
C54 C58 1.390 . S
C55 C53 1.361 . S
C55 C56 1.393 . S
C55 N59 1.413 . S
C56 H49 0.930 . S
C56 C55 1.393 . S
C56 C57 1.399 . S
C57 C56 1.399 . S
C57 C58 1.381 . S
C58 H50 0.930 . S
C58 C54 1.390 . S
C58 C57 1.381 . S
N59 C52 1.286 . S
N59 C55 1.413 . S
H60 C65 0.930 . S
H61 C68 0.930 . S
H62 C70 0.930 . S
H63 C64 1.016 . S
C64 H63 1.016 . S
C64 N71 1.286 . S
C65 H60 0.930 . S
C65 C66 1.397 . S
C65 C67 1.361 . S
C66 C65 1.397 . S
C66 C70 1.390 . S
C67 C65 1.361 . S
C67 C68 1.393 . S
C67 N71 1.413 . S
C68 H61 0.930 . S
C68 C67 1.393 . S
C68 C69 1.399 . S
C69 C68 1.399 . S
C69 C70 1.381 . S
C70 H62 0.930 . S
C70 C66 1.390 . S
C70 C69 1.381 . S
N71 C64 1.286 . S
N71 C67 1.413 . S
H72 C77 0.930 . S
H73 C80 0.930 . S
H74 C82 0.930 . S
H75 C76 1.016 . S
C76 H75 1.016 . S
C76 N83 1.286 . S
C77 H72 0.930 . S
C77 C78 1.397 . S
C77 C79 1.361 . S
C78 C77 1.397 . S
C78 C82 1.390 . S
C79 C77 1.361 . S
C79 C80 1.393 . S
C79 N83 1.413 . S
C80 H73 0.930 . S
C80 C79 1.393 . S
C80 C81 1.399 . S
C81 C80 1.399 . S
C81 C82 1.381 . S
C82 H74 0.930 . S
C82 C78 1.390 . S
C82 C81 1.381 . S
N83 C76 1.286 . S
N83 C79 1.413 . S
H84 C89 0.930 . S
H85 C92 0.930 . S
H86 C94 0.930 . S
H87 C88 1.016 . S
C88 H87 1.016 . S
C88 N95 1.286 . S
C89 H84 0.930 . S
C89 C90 1.397 . S
C89 C91 1.361 . S
C90 C89 1.397 . S
C90 C94 1.390 . S
C91 C89 1.361 . S
C91 C92 1.393 . S
C91 N95 1.413 . S
C92 H85 0.930 . S
C92 C91 1.393 . S
C92 C93 1.399 . S
C93 C92 1.399 . S
C93 C94 1.381 . S
C94 H86 0.930 . S
C94 C90 1.390 . S
C94 C93 1.381 . S
N95 C88 1.286 . S
N95 C91 1.413 . S
Co96 O99 2.042 . S
Co96 O106 2.264 . S
Co96 O125 2.286 . S
Co96 O126 2.069 . S
Co96 O128 2.015 . S
Co97 O99 2.122 . S
Co97 O105 2.073 . S
Co97 O106 2.327 . S
Co97 O107 1.976 . S
Co98 O99 2.087 . S
Co98 O101 2.087 1_455 S
Co98 O108 2.111 . S
Co98 O109 2.143 1_455 S
Co98 O113 2.111 1_455 S
Co98 O127 2.143 . S
O99 Co96 2.042 . S
O99 Co97 2.122 . S
O99 Co98 2.087 . S
O99 H100 0.980 . S
H100 O99 0.980 . S
O101 Co98 2.087 1_655 S
O101 Co102 2.042 . S
O101 Co103 2.122 . S
O101 H104 0.980 1_655 S
Co102 O101 2.042 . S
Co102 O110 2.286 . S
Co102 O111 2.069 . S
Co102 O112 2.015 . S
Co102 O115 2.264 . S
Co103 O101 2.122 . S
Co103 O114 1.976 . S
Co103 O115 2.327 . S
Co103 O116 2.073 . S
H104 O101 0.980 1_455 S
O105 Co97 2.073 . S
O105 C120 1.245 . S
O106 Co96 2.264 . S
O106 Co97 2.327 . S
O106 C120 1.257 . S
O107 Co97 1.976 . S
O107 C119 1.251 . S
O108 Co98 2.111 . S
O108 C119 1.274 . S
O109 Co98 2.143 1_655 S
O109 C122 1.246 . S
O110 Co102 2.286 . S
O110 C121 1.259 . S
O111 Co102 2.069 . S
O111 C121 1.289 . S
O112 Co102 2.015 . S
O112 C122 1.257 . S
O113 Co98 2.111 1_655 S
O113 C123 1.274 . S
O114 Co103 1.976 . S
O114 C123 1.251 . S
O115 Co102 2.264 . S
O115 Co103 2.327 . S
O115 C124 1.257 . S
O116 Co103 2.073 . S
O116 C124 1.245 . S
C117 O125 1.259 . S
C117 O126 1.289 . S
C118 O127 1.246 . S
C118 O128 1.257 . S
C119 O107 1.251 . S
C119 O108 1.274 . S
C120 O105 1.245 . S
C120 O106 1.257 . S
C121 O110 1.259 . S
C121 O111 1.289 . S
C122 O109 1.246 . S
C122 O112 1.257 . S
C123 O113 1.274 . S
C123 O114 1.251 . S
C124 O115 1.257 . S
C124 O116 1.245 . S
O125 Co96 2.286 . S
O125 C117 1.259 . S
O126 Co96 2.069 . S
O126 C117 1.289 . S
O127 Co98 2.143 . S
O127 C118 1.246 . S
O128 Co96 2.015 . S
O128 C118 1.257 . S
Co129 O132 2.042 . S
Co129 O139 2.264 . S
Co129 O158 2.286 . S
Co129 O159 2.069 . S
Co129 O161 2.015 . S
Co130 O132 2.122 . S
Co130 O138 2.073 . S
Co130 O139 2.327 . S
Co130 O140 1.976 . S
Co131 O132 2.087 1_545 S
Co131 O134 2.087 . S
Co131 O141 2.111 1_545 S
Co131 O142 2.143 . S
Co131 O146 2.111 . S
Co131 O160 2.143 1_545 S
O132 Co129 2.042 . S
O132 Co130 2.122 . S
O132 Co131 2.087 1_565 S
O132 H133 0.980 1_565 S
H133 O132 0.980 1_545 S
O134 Co131 2.087 . S
O134 Co135 2.042 . S
O134 Co136 2.122 . S
O134 H137 0.980 . S
Co135 O134 2.042 . S
Co135 O143 2.286 . S
Co135 O144 2.069 . S
Co135 O145 2.015 . S
Co135 O148 2.264 . S
Co136 O134 2.122 . S
Co136 O147 1.976 . S
Co136 O148 2.327 . S
Co136 O149 2.073 . S
H137 O134 0.980 . S
O138 Co130 2.073 . S
O138 C153 1.245 . S
O139 Co129 2.264 . S
O139 Co130 2.327 . S
O139 C153 1.257 . S
O140 Co130 1.976 . S
O140 C152 1.251 . S
O141 Co131 2.111 1_565 S
O141 C152 1.274 . S
O142 Co131 2.143 . S
O142 C155 1.246 . S
O143 Co135 2.286 . S
O143 C154 1.259 . S
O144 Co135 2.069 . S
O144 C154 1.289 . S
O145 Co135 2.015 . S
O145 C155 1.257 . S
O146 Co131 2.111 . S
O146 C156 1.274 . S
O147 Co136 1.976 . S
O147 C156 1.251 . S
O148 Co135 2.264 . S
O148 Co136 2.327 . S
O148 C157 1.257 . S
O149 Co136 2.073 . S
O149 C157 1.245 . S
C150 O158 1.259 . S
C150 O159 1.289 . S
C151 O160 1.246 . S
C151 O161 1.257 . S
C152 O140 1.251 . S
C152 O141 1.274 . S
C153 O138 1.245 . S
C153 O139 1.257 . S
C154 O143 1.259 . S
C154 O144 1.289 . S
C155 O142 1.246 . S
C155 O145 1.257 . S
C156 O146 1.274 . S
C156 O147 1.251 . S
C157 O148 1.257 . S
C157 O149 1.245 . S
O158 Co129 2.286 . S
O158 C150 1.259 . S
O159 Co129 2.069 . S
O159 C150 1.289 . S
O160 Co131 2.143 1_565 S
O160 C151 1.246 . S
O161 Co129 2.015 . S
O161 C151 1.257 . S
Co162 O165 2.042 . S
Co162 O172 2.264 . S
Co162 O191 2.286 . S
Co162 O192 2.069 . S
Co162 O194 2.015 . S
Co163 O165 2.122 . S
Co163 O171 2.073 . S
Co163 O172 2.327 . S
Co163 O173 1.976 . S
Co164 O165 2.087 . S
Co164 O167 2.087 1_554 S
Co164 O174 2.111 . S
Co164 O175 2.143 1_554 S
Co164 O179 2.111 . S
Co164 O193 2.143 . S
O165 Co162 2.042 . S
O165 Co163 2.122 . S
O165 Co164 2.087 . S
O165 H166 0.980 . S
H166 O165 0.980 . S
O167 Co164 2.087 1_556 S
O167 Co168 2.042 . S
O167 Co169 2.122 . S
O167 H170 0.980 . S
Co168 O167 2.042 . S
Co168 O176 2.286 . S
Co168 O177 2.069 . S
Co168 O178 2.015 . S
Co168 O181 2.264 . S
Co169 O167 2.122 . S
Co169 O180 1.976 . S
Co169 O181 2.327 . S
Co169 O182 2.073 . S
H170 O167 0.980 . S
O171 Co163 2.073 . S
O171 C186 1.245 . S
O172 Co162 2.264 . S
O172 Co163 2.327 . S
O172 C186 1.257 . S
O173 Co163 1.976 . S
O173 C185 1.251 . S
O174 Co164 2.111 . S
O174 C185 1.274 . S
O175 Co164 2.143 1_556 S
O175 C188 1.246 . S
O176 Co168 2.286 . S
O176 C187 1.259 . S
O177 Co168 2.069 . S
O177 C187 1.289 . S
O178 Co168 2.015 . S
O178 C188 1.257 . S
O179 Co164 2.111 . S
O179 C189 1.274 1_554 S
O180 Co169 1.976 . S
O180 C189 1.251 . S
O181 Co168 2.264 . S
O181 Co169 2.327 . S
O181 C190 1.257 . S
O182 Co169 2.073 . S
O182 C190 1.245 . S
C183 O191 1.259 . S
C183 O192 1.289 . S
C184 O193 1.246 . S
C184 O194 1.257 . S
C185 O173 1.251 . S
C185 O174 1.274 . S
C186 O171 1.245 . S
C186 O172 1.257 . S
C187 O176 1.259 . S
C187 O177 1.289 . S
C188 O175 1.246 . S
C188 O178 1.257 . S
C189 O179 1.274 1_556 S
C189 O180 1.251 . S
C190 O181 1.257 . S
C190 O182 1.245 . S
O191 Co162 2.286 . S
O191 C183 1.259 . S
O192 Co162 2.069 . S
O192 C183 1.289 . S
O193 Co164 2.143 . S
O193 C184 1.246 . S
O194 Co162 2.015 . S
O194 C184 1.257 . S
C195 C196 1.363 . S
C195 C201 1.379 . S
C195 N203 1.356 . S
C196 C195 1.363 . S
C196 C202 1.363 . S
C197 C198 1.363 . S
C197 C202 1.379 . S
C197 N204 1.356 . S
C198 C197 1.363 . S
C198 C201 1.363 . S
N199 C201 1.356 . S
N199 H211 0.984 . S
N199 H212 0.985 . S
N200 C202 1.356 . S
N200 H205 0.984 . S
N200 H206 0.985 . S
C201 C195 1.379 . S
C201 C198 1.363 . S
C201 N199 1.356 . S
C202 C196 1.363 . S
C202 C197 1.379 . S
C202 N200 1.356 . S
N203 C195 1.356 . S
N203 H209 0.984 . S
N203 H210 0.984 . S
N204 C197 1.356 . S
N204 H207 0.984 . S
N204 H208 0.985 . S
H205 N200 0.984 . S
H206 N200 0.985 . S
H207 N204 0.984 . S
H208 N204 0.985 . S
H209 N203 0.984 . S
H210 N203 0.984 . S
H211 N199 0.984 . S
H212 N199 0.985 . S
C213 C214 1.363 . S
C213 C219 1.379 . S
C213 N221 1.356 . S
C214 C213 1.363 . S
C214 C220 1.363 . S
C215 C216 1.363 . S
C215 C220 1.379 . S
C215 N222 1.356 . S
C216 C215 1.363 . S
C216 C219 1.363 . S
N217 C219 1.356 . S
N217 H229 0.984 . S
N217 H230 0.985 . S
N218 C220 1.356 . S
N218 H223 0.984 . S
N218 H224 0.985 . S
C219 C213 1.379 . S
C219 C216 1.363 . S
C219 N217 1.356 . S
C220 C214 1.363 . S
C220 C215 1.379 . S
C220 N218 1.356 . S
N221 C213 1.356 . S
N221 H227 0.984 . S
N221 H228 0.984 . S
N222 C215 1.356 . S
N222 H225 0.984 . S
N222 H226 0.985 . S
H223 N218 0.984 . S
H224 N218 0.985 . S
H225 N222 0.984 . S
H226 N222 0.985 . S
H227 N221 0.984 . S
H228 N221 0.984 . S
H229 N217 0.984 . S
H230 N217 0.985 . S
C231 C232 1.363 . S
C231 C237 1.379 . S
C231 N239 1.356 . S
C232 C231 1.363 . S
C232 C238 1.363 . S
C233 C234 1.363 . S
C233 C238 1.379 . S
C233 N240 1.356 . S
C234 C233 1.363 . S
C234 C237 1.363 . S
N235 C237 1.356 . S
N235 H247 0.984 . S
N235 H248 0.985 . S
N236 C238 1.356 . S
N236 H241 0.984 . S
N236 H242 0.985 . S
C237 C231 1.379 . S
C237 C234 1.363 . S
C237 N235 1.356 . S
C238 C232 1.363 . S
C238 C233 1.379 . S
C238 N236 1.356 . S
N239 C231 1.356 . S
N239 H245 0.984 . S
N239 H246 0.984 . S
N240 C233 1.356 . S
N240 H243 0.984 . S
N240 H244 0.985 . S
H241 N236 0.984 . S
H242 N236 0.985 . S
H243 N240 0.984 . S
H244 N240 0.985 . S
H245 N239 0.984 . S
H246 N239 0.984 . S
H247 N235 0.984 . S
H248 N235 0.985 . S
C249 C250 1.363 . S
C249 C255 1.379 . S
C249 N257 1.356 . S
C250 C249 1.363 . S
C250 C256 1.363 . S
C251 C252 1.363 . S
C251 C256 1.379 . S
C251 N258 1.356 . S
C252 C251 1.363 . S
C252 C255 1.363 . S
N253 C255 1.356 . S
N253 H265 0.984 . S
N253 H266 0.985 . S
N254 C256 1.356 . S
N254 H259 0.984 . S
N254 H260 0.985 . S
C255 C249 1.379 . S
C255 C252 1.363 . S
C255 N253 1.356 . S
C256 C250 1.363 . S
C256 C251 1.379 . S
C256 N254 1.356 . S
N257 C249 1.356 . S
N257 H263 0.984 . S
N257 H264 0.984 . S
N258 C251 1.356 . S
N258 H261 0.984 . S
N258 H262 0.985 . S
H259 N254 0.984 . S
H260 N254 0.985 . S
H261 N258 0.984 . S
H262 N258 0.985 . S
H263 N257 0.984 . S
H264 N257 0.984 . S
H265 N253 0.984 . S
H266 N253 0.985 . S
C267 C268 1.363 . S
C267 C273 1.379 . S
C267 N275 1.356 . S
C268 C267 1.363 . S
C268 C274 1.363 . S
C269 C270 1.363 . S
C269 C274 1.379 . S
C269 N276 1.356 . S
C270 C269 1.363 . S
C270 C273 1.363 . S
N271 C273 1.356 . S
N271 H283 0.984 . S
N271 H284 0.985 . S
N272 C274 1.356 . S
N272 H277 0.984 . S
N272 H278 0.985 . S
C273 C267 1.379 . S
C273 C270 1.363 . S
C273 N271 1.356 . S
C274 C268 1.363 . S
C274 C269 1.379 . S
C274 N272 1.356 . S
N275 C267 1.356 . S
N275 H281 0.984 . S
N275 H282 0.984 . S
N276 C269 1.356 . S
N276 H279 0.984 . S
N276 H280 0.985 . S
H277 N272 0.984 . S
H278 N272 0.985 . S
H279 N276 0.984 . S
H280 N276 0.985 . S
H281 N275 0.984 . S
H282 N275 0.984 . S
H283 N271 0.984 . S
H284 N271 0.985 . S
C285 C286 1.363 . S
C285 C291 1.379 . S
C285 N293 1.356 . S
C286 C285 1.363 . S
C286 C292 1.363 . S
C287 C288 1.363 . S
C287 C292 1.379 . S
C287 N294 1.356 . S
C288 C287 1.363 . S
C288 C291 1.363 . S
N289 C291 1.356 . S
N289 H301 0.984 . S
N289 H302 0.985 . S
N290 C292 1.356 . S
N290 H295 0.984 . S
N290 H296 0.985 . S
C291 C285 1.379 . S
C291 C288 1.363 . S
C291 N289 1.356 . S
C292 C286 1.363 . S
C292 C287 1.379 . S
C292 N290 1.356 . S
N293 C285 1.356 . S
N293 H299 0.984 . S
N293 H300 0.984 . S
N294 C287 1.356 . S
N294 H297 0.984 . S
N294 H298 0.985 . S
H295 N290 0.984 . S
H296 N290 0.985 . S
H297 N294 0.984 . S
H298 N294 0.985 . S
H299 N293 0.984 . S
H300 N293 0.984 . S
H301 N289 0.984 . S
H302 N289 0.985 . S
C303 C304 1.363 . S
C303 C309 1.379 . S
C303 N311 1.356 . S
C304 C303 1.363 . S
C304 C310 1.363 . S
C305 C306 1.363 . S
C305 C310 1.379 . S
C305 N312 1.356 . S
C306 C305 1.363 . S
C306 C309 1.363 . S
N307 C309 1.356 . S
N307 H319 0.984 . S
N307 H320 0.985 . S
N308 C310 1.356 . S
N308 H313 0.984 . S
N308 H314 0.985 . S
C309 C303 1.379 . S
C309 C306 1.363 . S
C309 N307 1.356 . S
C310 C304 1.363 . S
C310 C305 1.379 . S
C310 N308 1.356 . S
N311 C303 1.356 . S
N311 H317 0.984 . S
N311 H318 0.984 . S
N312 C305 1.356 . S
N312 H315 0.984 . S
N312 H316 0.985 . S
H313 N308 0.984 . S
H314 N308 0.985 . S
H315 N312 0.984 . S
H316 N312 0.985 . S
H317 N311 0.984 . S
H318 N311 0.984 . S
H319 N307 0.984 . S
H320 N307 0.985 . S
C321 C322 1.363 . S
C321 C327 1.379 . S
C321 N329 1.356 . S
C322 C321 1.363 . S
C322 C328 1.363 . S
C323 C324 1.363 . S
C323 C328 1.379 . S
C323 N330 1.356 . S
C324 C323 1.363 . S
C324 C327 1.363 . S
N325 C327 1.356 . S
N325 H337 0.984 . S
N325 H338 0.985 . S
N326 C328 1.356 . S
N326 H331 0.984 . S
N326 H332 0.985 . S
C327 C321 1.379 . S
C327 C324 1.363 . S
C327 N325 1.356 . S
C328 C322 1.363 . S
C328 C323 1.379 . S
C328 N326 1.356 . S
N329 C321 1.356 . S
N329 H335 0.984 . S
N329 H336 0.984 . S
N330 C323 1.356 . S
N330 H333 0.984 . S
N330 H334 0.985 . S
H331 N326 0.984 . S
H332 N326 0.985 . S
H333 N330 0.984 . S
H334 N330 0.985 . S
H335 N329 0.984 . S
H336 N329 0.984 . S
H337 N325 0.984 . S
H338 N325 0.985 . S
C339 C340 1.363 . S
C339 C345 1.379 . S
C339 N347 1.356 . S
C340 C339 1.363 . S
C340 C346 1.363 . S
C341 C342 1.363 . S
C341 C346 1.379 . S
C341 N348 1.356 . S
C342 C341 1.363 . S
C342 C345 1.363 . S
N343 C345 1.356 . S
N343 H355 0.984 . S
N343 H356 0.985 . S
N344 C346 1.356 . S
N344 H349 0.984 . S
N344 H350 0.985 . S
C345 C339 1.379 . S
C345 C342 1.363 . S
C345 N343 1.356 . S
C346 C340 1.363 . S
C346 C341 1.379 . S
C346 N344 1.356 . S
N347 C339 1.356 . S
N347 H353 0.984 . S
N347 H354 0.984 . S
N348 C341 1.356 . S
N348 H351 0.984 . S
N348 H352 0.985 . S
H349 N344 0.984 . S
H350 N344 0.985 . S
H351 N348 0.984 . S
H352 N348 0.985 . S
H353 N347 0.984 . S
H354 N347 0.984 . S
H355 N343 0.984 . S
H356 N343 0.985 . S
C357 C358 1.363 . S
C357 C363 1.379 . S
C357 N365 1.356 . S
C358 C357 1.363 . S
C358 C364 1.363 . S
C359 C360 1.363 . S
C359 C364 1.379 . S
C359 N366 1.356 . S
C360 C359 1.363 . S
C360 C363 1.363 . S
N361 C363 1.356 . S
N361 H373 0.984 . S
N361 H374 0.985 . S
N362 C364 1.356 . S
N362 H367 0.984 . S
N362 H368 0.985 . S
C363 C357 1.379 . S
C363 C360 1.363 . S
C363 N361 1.356 . S
C364 C358 1.363 . S
C364 C359 1.379 . S
C364 N362 1.356 . S
N365 C357 1.356 . S
N365 H371 0.984 . S
N365 H372 0.984 . S
N366 C359 1.356 . S
N366 H369 0.984 . S
N366 H370 0.985 . S
H367 N362 0.984 . S
H368 N362 0.985 . S
H369 N366 0.984 . S
H370 N366 0.985 . S
H371 N365 0.984 . S
H372 N365 0.984 . S
H373 N361 0.984 . S
H374 N361 0.985 . S
C375 C376 1.363 . S
C375 C381 1.379 . S
C375 N383 1.356 . S
C376 C375 1.363 . S
C376 C382 1.363 . S
C377 C378 1.363 . S
C377 C382 1.379 . S
C377 N384 1.356 . S
C378 C377 1.363 . S
C378 C381 1.363 . S
N379 C381 1.356 . S
N379 H391 0.984 . S
N379 H392 0.985 . S
N380 C382 1.356 . S
N380 H385 0.984 . S
N380 H386 0.985 . S
C381 C375 1.379 . S
C381 C378 1.363 . S
C381 N379 1.356 . S
C382 C376 1.363 . S
C382 C377 1.379 . S
C382 N380 1.356 . S
N383 C375 1.356 . S
N383 H389 0.984 . S
N383 H390 0.984 . S
N384 C377 1.356 . S
N384 H387 0.984 . S
N384 H388 0.985 . S
H385 N380 0.984 . S
H386 N380 0.985 . S
H387 N384 0.984 . S
H388 N384 0.985 . S
H389 N383 0.984 . S
H390 N383 0.984 . S
H391 N379 0.984 . S
H392 N379 0.985 . S
C393 C394 1.363 . S
C393 C399 1.379 . S
C393 N401 1.356 . S
C394 C393 1.363 . S
C394 C400 1.363 . S
C395 C396 1.363 . S
C395 C400 1.379 . S
C395 N402 1.356 . S
C396 C395 1.363 . S
C396 C399 1.363 . S
N397 C399 1.356 . S
N397 H409 0.984 . S
N397 H410 0.985 . S
N398 C400 1.356 . S
N398 H403 0.984 . S
N398 H404 0.985 . S
C399 C393 1.379 . S
C399 C396 1.363 . S
C399 N397 1.356 . S
C400 C394 1.363 . S
C400 C395 1.379 . S
C400 N398 1.356 . S
N401 C393 1.356 . S
N401 H407 0.984 . S
N401 H408 0.984 . S
N402 C395 1.356 . S
N402 H405 0.984 . S
N402 H406 0.985 . S
H403 N398 0.984 . S
H404 N398 0.985 . S
H405 N402 0.984 . S
H406 N402 0.985 . S
H407 N401 0.984 . S
H408 N401 0.984 . S
H409 N397 0.984 . S
H410 N397 0.985 . S
C411 C412 1.363 . S
C411 C417 1.379 . S
C411 N419 1.356 . S
C412 C411 1.363 . S
C412 C418 1.363 . S
C413 C414 1.363 . S
C413 C418 1.379 . S
C413 N420 1.356 . S
C414 C413 1.363 . S
C414 C417 1.363 . S
N415 C417 1.356 . S
N415 H427 0.984 . S
N415 H428 0.985 . S
N416 C418 1.356 . S
N416 H421 0.984 . S
N416 H422 0.985 . S
C417 C411 1.379 . S
C417 C414 1.363 . S
C417 N415 1.356 . S
C418 C412 1.363 . S
C418 C413 1.379 . S
C418 N416 1.356 . S
N419 C411 1.356 . S
N419 H425 0.984 . S
N419 H426 0.984 . S
N420 C413 1.356 . S
N420 H423 0.984 . S
N420 H424 0.985 . S
H421 N416 0.984 . S
H422 N416 0.985 . S
H423 N420 0.984 . S
H424 N420 0.985 . S
H425 N419 0.984 . S
H426 N419 0.984 . S
H427 N415 0.984 . S
H428 N415 0.985 . S
C429 C430 1.363 . S
C429 C435 1.379 . S
C429 N437 1.356 . S
C430 C429 1.363 . S
C430 C436 1.363 . S
C431 C432 1.363 . S
C431 C436 1.379 . S
C431 N438 1.356 . S
C432 C431 1.363 . S
C432 C435 1.363 . S
N433 C435 1.356 . S
N433 H445 0.984 . S
N433 H446 0.985 . S
N434 C436 1.356 . S
N434 H439 0.984 . S
N434 H440 0.985 . S
C435 C429 1.379 . S
C435 C432 1.363 . S
C435 N433 1.356 . S
C436 C430 1.363 . S
C436 C431 1.379 . S
C436 N434 1.356 . S
N437 C429 1.356 . S
N437 H443 0.984 . S
N437 H444 0.984 . S
N438 C431 1.356 . S
N438 H441 0.984 . S
N438 H442 0.985 . S
H439 N434 0.984 . S
H440 N434 0.985 . S
H441 N438 0.984 . S
H442 N438 0.985 . S
H443 N437 0.984 . S
H444 N437 0.984 . S
H445 N433 0.984 . S
H446 N433 0.985 . S
C447 C448 1.363 . S
C447 C453 1.379 . S
C447 N455 1.356 . S
C448 C447 1.363 . S
C448 C454 1.363 . S
C449 C450 1.363 . S
C449 C454 1.379 . S
C449 N456 1.356 . S
C450 C449 1.363 . S
C450 C453 1.363 . S
N451 C453 1.356 . S
N451 H463 0.984 . S
N451 H464 0.985 . S
N452 C454 1.356 . S
N452 H457 0.984 . S
N452 H458 0.985 . S
C453 C447 1.379 . S
C453 C450 1.363 . S
C453 N451 1.356 . S
C454 C448 1.363 . S
C454 C449 1.379 . S
C454 N452 1.356 . S
N455 C447 1.356 . S
N455 H461 0.984 . S
N455 H462 0.984 . S
N456 C449 1.356 . S
N456 H459 0.984 . S
N456 H460 0.985 . S
H457 N452 0.984 . S
H458 N452 0.985 . S
H459 N456 0.984 . S
H460 N456 0.985 . S
H461 N455 0.984 . S
H462 N455 0.984 . S
H463 N451 0.984 . S
H464 N451 0.985 . S
C465 C466 1.363 . S
C465 C471 1.379 . S
C465 N473 1.356 . S
C466 C465 1.363 . S
C466 C472 1.363 . S
C467 C468 1.363 . S
C467 C472 1.379 . S
C467 N474 1.356 . S
C468 C467 1.363 . S
C468 C471 1.363 . S
N469 C471 1.356 . S
N469 H481 0.984 . S
N469 H482 0.985 . S
N470 C472 1.356 . S
N470 H475 0.984 . S
N470 H476 0.985 . S
C471 C465 1.379 . S
C471 C468 1.363 . S
C471 N469 1.356 . S
C472 C466 1.363 . S
C472 C467 1.379 . S
C472 N470 1.356 . S
N473 C465 1.356 . S
N473 H479 0.984 . S
N473 H480 0.984 . S
N474 C467 1.356 . S
N474 H477 0.984 . S
N474 H478 0.985 . S
H475 N470 0.984 . S
H476 N470 0.985 . S
H477 N474 0.984 . S
H478 N474 0.985 . S
H479 N473 0.984 . S
H480 N473 0.984 . S
H481 N469 0.984 . S
H482 N469 0.985 . S
C483 C484 1.363 . S
C483 C489 1.379 . S
C483 N491 1.356 . S
C484 C483 1.363 . S
C484 C490 1.363 . S
C485 C486 1.363 . S
C485 C490 1.379 . S
C485 N492 1.356 . S
C486 C485 1.363 . S
C486 C489 1.363 . S
N487 C489 1.356 . S
N487 H499 0.984 . S
N487 H500 0.985 . S
N488 C490 1.356 . S
N488 H493 0.984 . S
N488 H494 0.985 . S
C489 C483 1.379 . S
C489 C486 1.363 . S
C489 N487 1.356 . S
C490 C484 1.363 . S
C490 C485 1.379 . S
C490 N488 1.356 . S
N491 C483 1.356 . S
N491 H497 0.984 . S
N491 H498 0.984 . S
N492 C485 1.356 . S
N492 H495 0.984 . S
N492 H496 0.985 . S
H493 N488 0.984 . S
H494 N488 0.985 . S
H495 N492 0.984 . S
H496 N492 0.985 . S
H497 N491 0.984 . S
H498 N491 0.984 . S
H499 N487 0.984 . S
H500 N487 0.985 . S
C501 C502 1.363 . S
C501 C507 1.379 . S
C501 N509 1.356 . S
C502 C501 1.363 . S
C502 C508 1.363 . S
C503 C504 1.363 . S
C503 C508 1.379 . S
C503 N510 1.356 . S
C504 C503 1.363 . S
C504 C507 1.363 . S
N505 C507 1.356 . S
N505 H517 0.984 . S
N505 H518 0.985 . S
N506 C508 1.356 . S
N506 H511 0.984 . S
N506 H512 0.985 . S
C507 C501 1.379 . S
C507 C504 1.363 . S
C507 N505 1.356 . S
C508 C502 1.363 . S
C508 C503 1.379 . S
C508 N506 1.356 . S
N509 C501 1.356 . S
N509 H515 0.984 . S
N509 H516 0.984 . S
N510 C503 1.356 . S
N510 H513 0.984 . S
N510 H514 0.985 1_556 S
H511 N506 0.984 . S
H512 N506 0.985 . S
H513 N510 0.984 . S
H514 N510 0.985 1_554 S
H515 N509 0.984 . S
H516 N509 0.984 . S
H517 N505 0.984 . S
H518 N505 0.985 . S
C519 C520 1.363 . S
C519 C525 1.379 . S
C519 N527 1.356 . S
C520 C519 1.363 . S
C520 C526 1.363 . S
C521 C522 1.363 . S
C521 C526 1.379 . S
C521 N528 1.356 . S
C522 C521 1.363 . S
C522 C525 1.363 . S
N523 C525 1.356 . S
N523 H535 0.984 . S
N523 H536 0.985 . S
N524 C526 1.356 . S
N524 H529 0.984 . S
N524 H530 0.985 . S
C525 C519 1.379 . S
C525 C522 1.363 . S
C525 N523 1.356 . S
C526 C520 1.363 . S
C526 C521 1.379 . S
C526 N524 1.356 . S
N527 C519 1.356 . S
N527 H533 0.984 . S
N527 H534 0.984 . S
N528 C521 1.356 . S
N528 H531 0.984 . S
N528 H532 0.985 . S
H529 N524 0.984 . S
H530 N524 0.985 . S
H531 N528 0.984 . S
H532 N528 0.985 . S
H533 N527 0.984 . S
H534 N527 0.984 . S
H535 N523 0.984 . S
H536 N523 0.985 . S
C537 C538 1.363 . S
C537 C543 1.379 . S
C537 N545 1.356 . S
C538 C537 1.363 . S
C538 C544 1.363 . S
C539 C540 1.363 . S
C539 C544 1.379 . S
C539 N546 1.356 . S
C540 C539 1.363 . S
C540 C543 1.363 . S
N541 C543 1.356 . S
N541 H553 0.984 . S
N541 H554 0.985 . S
N542 C544 1.356 . S
N542 H547 0.984 . S
N542 H548 0.985 . S
C543 C537 1.379 . S
C543 C540 1.363 . S
C543 N541 1.356 . S
C544 C538 1.363 . S
C544 C539 1.379 . S
C544 N542 1.356 . S
N545 C537 1.356 . S
N545 H551 0.984 . S
N545 H552 0.984 . S
N546 C539 1.356 . S
N546 H549 0.984 . S
N546 H550 0.985 . S
H547 N542 0.984 . S
H548 N542 0.985 . S
H549 N546 0.984 . S
H550 N546 0.985 . S
H551 N545 0.984 . S
H552 N545 0.984 . S
H553 N541 0.984 . S
H554 N541 0.985 . S
C555 C556 1.363 . S
C555 C561 1.379 . S
C555 N563 1.356 . S
C556 C555 1.363 . S
C556 C562 1.363 . S
C557 C558 1.363 . S
C557 C562 1.379 . S
C557 N564 1.356 . S
C558 C557 1.363 . S
C558 C561 1.363 . S
N559 C561 1.356 . S
N559 H571 0.984 . S
N559 H572 0.985 . S
N560 C562 1.356 . S
N560 H565 0.984 . S
N560 H566 0.985 . S
C561 C555 1.379 . S
C561 C558 1.363 . S
C561 N559 1.356 . S
C562 C556 1.363 . S
C562 C557 1.379 . S
C562 N560 1.356 . S
N563 C555 1.356 . S
N563 H569 0.984 . S
N563 H570 0.984 . S
N564 C557 1.356 . S
N564 H567 0.984 . S
N564 H568 0.985 . S
H565 N560 0.984 . S
H566 N560 0.985 . S
H567 N564 0.984 . S
H568 N564 0.985 . S
H569 N563 0.984 . S
H570 N563 0.984 . S
H571 N559 0.984 . S
H572 N559 0.985 . S
C573 C574 1.363 . S
C573 C579 1.379 . S
C573 N581 1.356 . S
C574 C573 1.363 . S
C574 C580 1.363 . S
C575 C576 1.363 . S
C575 C580 1.379 . S
C575 N582 1.356 . S
C576 C575 1.363 . S
C576 C579 1.363 . S
N577 C579 1.356 . S
N577 H589 0.984 . S
N577 H590 0.985 . S
N578 C580 1.356 . S
N578 H583 0.984 . S
N578 H584 0.985 . S
C579 C573 1.379 . S
C579 C576 1.363 . S
C579 N577 1.356 . S
C580 C574 1.363 . S
C580 C575 1.379 . S
C580 N578 1.356 . S
N581 C573 1.356 . S
N581 H587 0.984 . S
N581 H588 0.984 . S
N582 C575 1.356 . S
N582 H585 0.984 . S
N582 H586 0.985 . S
H583 N578 0.984 . S
H584 N578 0.985 . S
H585 N582 0.984 . S
H586 N582 0.985 . S
H587 N581 0.984 . S
H588 N581 0.984 . S
H589 N577 0.984 . S
H590 N577 0.985 . S
C591 C592 1.363 . S
C591 C597 1.379 . S
C591 N599 1.356 . S
C592 C591 1.363 . S
C592 C598 1.363 . S
C593 C594 1.363 . S
C593 C598 1.379 . S
C593 N600 1.356 . S
C594 C593 1.363 . S
C594 C597 1.363 . S
N595 C597 1.356 . S
N595 H607 0.984 . S
N595 H608 0.985 . S
N596 C598 1.356 . S
N596 H601 0.984 . S
N596 H602 0.985 . S
C597 C591 1.379 . S
C597 C594 1.363 . S
C597 N595 1.356 . S
C598 C592 1.363 . S
C598 C593 1.379 . S
C598 N596 1.356 . S
N599 C591 1.356 . S
N599 H605 0.984 . S
N599 H606 0.984 . S
N600 C593 1.356 . S
N600 H603 0.984 . S
N600 H604 0.985 . S
H601 N596 0.984 . S
H602 N596 0.985 . S
H603 N600 0.984 . S
H604 N600 0.985 . S
H605 N599 0.984 . S
H606 N599 0.984 . S
H607 N595 0.984 . S
H608 N595 0.985 . S
C609 C610 1.363 . S
C609 C615 1.379 . S
C609 N617 1.356 . S
C610 C609 1.363 . S
C610 C616 1.363 . S
C611 C612 1.363 . S
C611 C616 1.379 . S
C611 N618 1.356 . S
C612 C611 1.363 . S
C612 C615 1.363 . S
N613 C615 1.356 . S
N613 H625 0.984 . S
N613 H626 0.985 . S
N614 C616 1.356 . S
N614 H619 0.984 . S
N614 H620 0.985 . S
C615 C609 1.379 . S
C615 C612 1.363 . S
C615 N613 1.356 . S
C616 C610 1.363 . S
C616 C611 1.379 . S
C616 N614 1.356 . S
N617 C609 1.356 . S
N617 H623 0.984 . S
N617 H624 0.984 . S
N618 C611 1.356 . S
N618 H621 0.984 . S
N618 H622 0.985 . S
H619 N614 0.984 . S
H620 N614 0.985 . S
H621 N618 0.984 . S
H622 N618 0.985 . S
H623 N617 0.984 . S
H624 N617 0.984 . S
H625 N613 0.984 . S
H626 N613 0.985 . S
C198 C120 1.479 . S
C196 C6 1.588 . S
C216 C156 1.741 . S
C214 C21 1.838 . S
C234 C121 1.368 . S
C232 C28 1.383 . S
C252 C151 1.213 . S
C250 C45 1.235 . S
C270 C118 1.551 . S
C268 C54 1.621 . S
C286 C69 1.908 . S
C288 C154 1.918 . S
C304 C81 0.831 . S
C306 C123 0.804 . S
C324 C153 1.500 . S
C322 C88 1.531 . S
C342 C157 1.425 . S
C340 C4 1.421 . S
C360 C122 1.559 . S
C358 C18 1.600 . S
C378 C150 1.824 . S
C376 C33 1.793 . S
C396 C119 0.793 . S
C394 C42 0.814 . S
C414 C152 1.790 . S
C412 C57 1.908 . S
C430 C64 1.415 . S
C432 C117 1.406 . S
C448 C78 1.203 . S
C450 C155 1.200 . S
C468 C124 1.480 . S
C466 C93 1.563 . S
C486 C186 1.783 . S
C484 C9 1.886 . S
C502 C52 2.002 . S
C504 C189 1.874 . S
C522 C188 1.847 . S
C520 C66 1.921 . S
C538 C76 1.372 . S
C540 C187 1.359 . S
C558 C190 1.707 . S
C556 C90 1.793 . S
C574 C30 1.839 . S
C576 C184 1.801 . S
C594 C183 1.365 . S
C592 C40 1.391 . S
C610 C16 1.968 . S
C612 C185 1.828 . S
