# Generated by pormake.
# Topology pto, (3,4)-cn, num edge types: 1
# Building blocks:
#     Node 0, Type 0, BuildingBlock: OLANEW_clean_sbu_2, # of connection points: 3
#     Node 1, Type 0, BuildingBlock: OLANEW_clean_sbu_2, # of connection points: 3
#     Node 2, Type 0, BuildingBlock: OLANEW_clean_sbu_2, # of connection points: 3
#     Node 3, Type 0, BuildingBlock: OLANEW_clean_sbu_2, # of connection points: 3
#     Node 4, Type 0, BuildingBlock: OLANEW_clean_sbu_2, # of connection points: 3
#     Node 5, Type 0, BuildingBlock: OLANEW_clean_sbu_2, # of connection points: 3
#     Node 6, Type 0, BuildingBlock: OLANEW_clean_sbu_2, # of connection points: 3
#     Node 7, Type 0, BuildingBlock: OLANEW_clean_sbu_2, # of connection points: 3
#     Node 8, Type 1, BuildingBlock: AZAVOO_clean_linker_0, # of connection points: 4
#     Node 9, Type 1, BuildingBlock: AZAVOO_clean_linker_0, # of connection points: 4
#     Node 10, Type 1, BuildingBlock: AZAVOO_clean_linker_0, # of connection points: 4
#     Node 11, Type 1, BuildingBlock: AZAVOO_clean_linker_0, # of connection points: 4
#     Node 12, Type 1, BuildingBlock: AZAVOO_clean_linker_0, # of connection points: 4
#     Node 13, Type 1, BuildingBlock: AZAVOO_clean_linker_0, # of connection points: 4
#     Edge 14, Type (0, 1), BuildingBlock: XIVTED_clean_linker_0, # of connection points: 2
#     Edge 15, Type (0, 1), BuildingBlock: XIVTED_clean_linker_0, # of connection points: 2
#     Edge 16, Type (0, 1), BuildingBlock: XIVTED_clean_linker_0, # of connection points: 2
#     Edge 17, Type (0, 1), BuildingBlock: XIVTED_clean_linker_0, # of connection points: 2
#     Edge 18, Type (0, 1), BuildingBlock: XIVTED_clean_linker_0, # of connection points: 2
#     Edge 19, Type (0, 1), BuildingBlock: XIVTED_clean_linker_0, # of connection points: 2
#     Edge 20, Type (0, 1), BuildingBlock: XIVTED_clean_linker_0, # of connection points: 2
#     Edge 21, Type (0, 1), BuildingBlock: XIVTED_clean_linker_0, # of connection points: 2
#     Edge 22, Type (0, 1), BuildingBlock: XIVTED_clean_linker_0, # of connection points: 2
#     Edge 23, Type (0, 1), BuildingBlock: XIVTED_clean_linker_0, # of connection points: 2
#     Edge 24, Type (0, 1), BuildingBlock: XIVTED_clean_linker_0, # of connection points: 2
#     Edge 25, Type (0, 1), BuildingBlock: XIVTED_clean_linker_0, # of connection points: 2
#     Edge 26, Type (0, 1), BuildingBlock: XIVTED_clean_linker_0, # of connection points: 2
#     Edge 27, Type (0, 1), BuildingBlock: XIVTED_clean_linker_0, # of connection points: 2
#     Edge 28, Type (0, 1), BuildingBlock: XIVTED_clean_linker_0, # of connection points: 2
#     Edge 29, Type (0, 1), BuildingBlock: XIVTED_clean_linker_0, # of connection points: 2
#     Edge 30, Type (0, 1), BuildingBlock: XIVTED_clean_linker_0, # of connection points: 2
#     Edge 31, Type (0, 1), BuildingBlock: XIVTED_clean_linker_0, # of connection points: 2
#     Edge 32, Type (0, 1), BuildingBlock: XIVTED_clean_linker_0, # of connection points: 2
#     Edge 33, Type (0, 1), BuildingBlock: XIVTED_clean_linker_0, # of connection points: 2
#     Edge 34, Type (0, 1), BuildingBlock: XIVTED_clean_linker_0, # of connection points: 2
#     Edge 35, Type (0, 1), BuildingBlock: XIVTED_clean_linker_0, # of connection points: 2
#     Edge 36, Type (0, 1), BuildingBlock: XIVTED_clean_linker_0, # of connection points: 2
#     Edge 37, Type (0, 1), BuildingBlock: XIVTED_clean_linker_0, # of connection points: 2
# Relax obj value: 0.067
# Max RMSD: 0.223
# Mean RMSD: 0.134
data_MOF--net-pto--node1-OLANEW_clean_sbu_2--node2-AZAVOO_clean_linker_0--edge1-XIVTED_clean_linker_0
_symmetry_space_group_name_H-M    P1
_symmetry_Int_Tables_number       1
_symmetry_cell_setting            triclinic
loop_
_symmetry_equiv_pos_as_xyz
'x, y, z'
_cell_length_a     45.697381
_cell_length_b     50.156852
_cell_length_c     51.248017
_cell_angle_alpha  92.789106
_cell_angle_beta   90.46589
_cell_angle_gamma 117.18182
loop_
_atom_site_label
_atom_site_type_symbol
_atom_site_fract_x
_atom_site_fract_y
_atom_site_fract_z
_atom_type_partial_charge
O0 O 0.35516 0.49924 0.24469 0.0
Cd1 Cd 0.35379 0.52943 0.28304 0.0
O2 O 0.37522 0.53597 0.21796 0.0
Cd3 Cd 0.36342 0.56453 0.24473 0.0
O4 O 0.32456 0.57634 0.25561 0.0
C5 C 0.29606 0.55679 0.24751 0.0
O6 O 0.29308 0.53224 0.23477 0.0
C7 C 0.36651 0.50874 0.22258 0.0
C8 C 0.36643 0.50464 0.32666 0.0
O9 O 0.33686 0.49702 0.31867 0.0
O10 O 0.39001 0.5247 0.31452 0.0
O11 O 0.34397 0.04637 0.82955 0.0
Cd12 Cd 0.30471 0.04056 0.79428 0.0
O13 O 0.32357 0.99752 0.83299 0.0
Cd14 Cd 0.28425 0.98018 0.8028 0.0
O15 O 0.24335 0.93811 0.78714 0.0
C16 C 0.22066 0.92391 0.80276 0.0
O17 O 0.2219 0.93626 0.82622 0.0
C18 C 0.34416 0.02422 0.84048 0.0
C19 C 0.33214 0.082 0.75587 0.0
O20 O 0.32147 0.08882 0.77691 0.0
O21 O 0.33017 0.05568 0.75306 0.0
O22 O 0.92002 0.96313 0.31952 0.0
Cd23 Cd 0.95931 0.96401 0.28714 0.0
O24 O 0.88724 0.95682 0.28592 0.0
Cd25 Cd 0.84212 0.94989 0.26497 0.0
O26 O 0.8042 0.95486 0.24262 0.0
C27 C 0.80998 0.98139 0.23777 0.0
O28 O 0.83775 0.00395 0.24667 0.0
C29 C 0.8925 0.95987 0.31058 0.0
C30 C 0.96427 0.91068 0.28431 0.0
O31 O 0.98514 0.93367 0.29809 0.0
O32 O 0.94116 0.91296 0.27186 0.0
O33 O 0.69452 0.2319 0.79856 0.0
Cd34 Cd 0.65285 0.18093 0.80641 0.0
O35 O 0.72318 0.23578 0.8345 0.0
Cd36 Cd 0.68081 0.19819 0.85015 0.0
O37 O 0.6321 0.17947 0.86714 0.0
C38 C 0.61108 0.18609 0.85673 0.0
O39 O 0.61932 0.20238 0.83619 0.0
C40 C 0.72033 0.24626 0.81304 0.0
C41 C 0.646 0.1422 0.76345 0.0
O42 O 0.6678 0.14768 0.7816 0.0
O43 O 0.62712 0.15472 0.76583 0.0
O44 O 0.82675 0.88024 0.67207 0.0
Cd45 Cd 0.86249 0.87449 0.70483 0.0
O46 O 0.81792 0.90416 0.7053 0.0
Cd47 Cd 0.79744 0.92926 0.72818 0.0
O48 O 0.78202 0.95132 0.7589 0.0
C49 C 0.75342 0.94964 0.75856 0.0
O50 O 0.73287 0.93488 0.73886 0.0
C51 C 0.81334 0.89589 0.6811 0.0
C52 C 0.86757 0.82115 0.70393 0.0
O53 O 0.84588 0.82436 0.7176 0.0
O54 O 0.88584 0.84267 0.68987 0.0
O55 O 0.61661 0.30891 0.27719 0.0
Cd56 Cd 0.56127 0.26652 0.27591 0.0
O57 O 0.6144 0.32771 0.31643 0.0
Cd58 Cd 0.56192 0.29711 0.31773 0.0
O59 O 0.51286 0.27736 0.29921 0.0
C60 C 0.49888 0.29401 0.29706 0.0
O61 O 0.51292 0.32115 0.30851 0.0
C62 C 0.63046 0.32826 0.29611 0.0
C63 C 0.56108 0.21907 0.30222 0.0
O64 O 0.56788 0.22196 0.27799 0.0
O65 O 0.55393 0.23838 0.31393 0.0
O66 O 0.35568 0.51746 0.83504 0.0
Cd67 Cd 0.35473 0.53934 0.79359 0.0
O68 O 0.40935 0.54179 0.84164 0.0
Cd69 Cd 0.41536 0.5534 0.80099 0.0
O70 O 0.41612 0.52769 0.76564 0.0
C71 C 0.39856 0.4995 0.7667 0.0
O72 O 0.38102 0.48929 0.78745 0.0
C73 C 0.38107 0.52408 0.84952 0.0
C74 C 0.30278 0.55396 0.7915 0.0
O75 O 0.29846 0.52738 0.78503 0.0
O76 O 0.33185 0.57388 0.79873 0.0
O77 O 0.44078 0.00817 0.29155 0.0
Cd78 Cd 0.41161 0.98891 0.33162 0.0
O79 O 0.3948 0.98913 0.26758 0.0
Cd80 Cd 0.36091 0.96544 0.29789 0.0
O81 O 0.31617 0.92492 0.30584 0.0
C82 C 0.31362 0.90083 0.29444 0.0
O83 O 0.33814 0.90202 0.28048 0.0
C84 C 0.42597 0.00418 0.26949 0.0
C85 C 0.41346 0.03432 0.36633 0.0
O86 O 0.43587 0.02572 0.36739 0.0
O87 O 0.39034 0.02153 0.34881 0.0
H88 H 0.99417 0.43209 0.27214 0.0
H89 H 0.79433 0.62005 0.24465 0.0
H90 H 0.05597 0.61572 0.30511 0.0
H91 H 0.10667 0.6105 0.3027 0.0
H92 H 0.08269 0.57866 0.22165 0.0
H93 H 0.03209 0.58385 0.22431 0.0
H94 H 0.00128 0.54921 0.30111 0.0
H95 H 0.00244 0.50093 0.29625 0.0
H96 H 0.95702 0.48572 0.21895 0.0
H97 H 0.95636 0.53421 0.22396 0.0
H98 H 0.92894 0.5395 0.30723 0.0
H99 H 0.87631 0.49488 0.31152 0.0
H100 H 0.84502 0.50582 0.23468 0.0
H101 H 0.89819 0.55011 0.23035 0.0
H102 H 0.90315 0.58884 0.30652 0.0
H103 H 0.85053 0.59064 0.30578 0.0
H104 H 0.86997 0.62496 0.22863 0.0
H105 H 0.92233 0.62271 0.22951 0.0
H106 H 0.95447 0.65343 0.309 0.0
H107 H 0.95185 0.70122 0.31144 0.0
H108 H 0.00042 0.72348 0.23796 0.0
H109 H 0.00164 0.67502 0.23497 0.0
H110 H 0.0323 0.66782 0.31253 0.0
H111 H 0.08464 0.71365 0.31822 0.0
H112 H 0.10779 0.7004 0.23852 0.0
H113 H 0.05547 0.65448 0.23312 0.0
O114 O 0.99339 0.45106 0.27368 0.0
O115 O 0.96977 0.44422 0.23414 0.0
O116 O 0.80609 0.60126 0.28508 0.0
O117 O 0.81498 0.61906 0.24545 0.0
C118 C 0.00875 0.60162 0.26667 0.0
C119 C 0.97873 0.57481 0.2656 0.0
C120 C 0.94856 0.57611 0.26699 0.0
C121 C 0.94829 0.60421 0.26835 0.0
C122 C 0.97833 0.63106 0.26974 0.0
C123 C 0.00859 0.62973 0.26936 0.0
C124 C 0.04036 0.60006 0.26491 0.0
C125 C 0.0619 0.60791 0.28679 0.0
C126 C 0.09084 0.60499 0.28535 0.0
C127 C 0.09858 0.594 0.26202 0.0
C128 C 0.07717 0.58674 0.24001 0.0
C129 C 0.04836 0.58979 0.24144 0.0
C130 C 0.97882 0.54521 0.26287 0.0
C131 C 0.99168 0.53544 0.28313 0.0
C132 C 0.99225 0.50783 0.28031 0.0
C133 C 0.97985 0.48947 0.2572 0.0
C134 C 0.96677 0.4993 0.237 0.0
C135 C 0.96629 0.52694 0.23983 0.0
C136 C 0.9173 0.54803 0.26852 0.0
C137 C 0.91084 0.53203 0.29122 0.0
C138 C 0.88068 0.50673 0.29372 0.0
C139 C 0.8564 0.49695 0.27352 0.0
C140 C 0.8633 0.51264 0.2505 0.0
C141 C 0.89353 0.538 0.24803 0.0
C142 C 0.91646 0.60553 0.26803 0.0
C143 C 0.8959 0.59659 0.28944 0.0
C144 C 0.86592 0.59773 0.28899 0.0
C145 C 0.85602 0.60793 0.26712 0.0
C146 C 0.87681 0.61698 0.24576 0.0
C147 C 0.90674 0.61576 0.24621 0.0
C148 C 0.97804 0.66063 0.27172 0.0
C149 C 0.96429 0.66849 0.29332 0.0
C150 C 0.96287 0.69573 0.29472 0.0
C151 C 0.97592 0.71587 0.27486 0.0
C152 C 0.99038 0.70833 0.25356 0.0
C153 C 0.99112 0.68077 0.25187 0.0
C154 C 0.04016 0.6578 0.27245 0.0
C155 C 0.04866 0.67492 0.29629 0.0
C156 C 0.07849 0.70114 0.29946 0.0
C157 C 0.10042 0.71065 0.27884 0.0
C158 C 0.09168 0.69346 0.25491 0.0
C159 C 0.06179 0.6673 0.25174 0.0
C160 C 0.98063 0.46021 0.25421 0.0
C161 C 0.82419 0.60917 0.26653 0.0
H162 H 0.03726 0.44607 0.83324 0.0
H163 H 0.77364 0.50446 0.70422 0.0
H164 H 0.04167 0.58558 0.82136 0.0
H165 H 0.09596 0.58783 0.82772 0.0
H166 H 0.11826 0.61196 0.74795 0.0
H167 H 0.06355 0.60887 0.74147 0.0
H168 H 0.9772 0.52562 0.81934 0.0
H169 H 0.99731 0.49029 0.83194 0.0
H170 H 0.04882 0.50284 0.75957 0.0
H171 H 0.0281 0.53773 0.74703 0.0
H172 H 0.90557 0.52525 0.80189 0.0
H173 H 0.8649 0.47284 0.80593 0.0
H174 H 0.91239 0.44483 0.7459 0.0
H175 H 0.95211 0.49754 0.74088 0.0
H176 H 0.90142 0.58054 0.78758 0.0
H177 H 0.84368 0.56404 0.77503 0.0
H178 H 0.85467 0.51703 0.70577 0.0
H179 H 0.91249 0.534 0.7184 0.0
H180 H 0.96216 0.64054 0.79356 0.0
H181 H 0.94159 0.67592 0.78192 0.0
H182 H 0.92984 0.64243 0.70122 0.0
H183 H 0.95075 0.60734 0.71304 0.0
H184 H 0.03288 0.64336 0.81231 0.0
H185 H 0.06902 0.69743 0.81629 0.0
H186 H 0.06045 0.70147 0.73267 0.0
H187 H 0.02504 0.64708 0.72884 0.0
O188 O 0.02922 0.45976 0.82772 0.0
O189 O 0.05557 0.46731 0.79038 0.0
O190 O 0.79214 0.53612 0.74539 0.0
O191 O 0.79645 0.51144 0.70957 0.0
C192 C 0.01315 0.58738 0.77498 0.0
C193 C 0.99005 0.5566 0.77517 0.0
C194 C 0.95647 0.54725 0.76889 0.0
C195 C 0.9462 0.56855 0.7615 0.0
C196 C 0.96923 0.59927 0.76138 0.0
C197 C 0.00266 0.60878 0.76846 0.0
C198 C 0.04851 0.59663 0.78084 0.0
C199 C 0.05859 0.59209 0.80546 0.0
C200 C 0.08948 0.59326 0.80904 0.0
C201 C 0.11103 0.59969 0.78821 0.0
C202 C 0.10211 0.60704 0.76432 0.0
C203 C 0.07095 0.60537 0.76062 0.0
C204 C 0.00117 0.5342 0.78227 0.0
C205 C 0.99257 0.52048 0.80614 0.0
C206 C 0.00421 0.50041 0.81333 0.0
C207 C 0.02474 0.4938 0.79679 0.0
C208 C 0.03308 0.50745 0.77277 0.0
C209 C 0.0213 0.52739 0.76556 0.0
C210 C 0.93178 0.51531 0.77102 0.0
C211 C 0.90695 0.50789 0.78932 0.0
C212 C 0.88384 0.47802 0.79167 0.0
C213 C 0.88566 0.45497 0.77623 0.0
C214 C 0.91067 0.46229 0.75809 0.0
C215 C 0.93331 0.49229 0.75526 0.0
C216 C 0.91116 0.5586 0.75382 0.0
C217 C 0.89136 0.56687 0.76961 0.0
C218 C 0.85837 0.55731 0.76245 0.0
C219 C 0.84456 0.53921 0.73937 0.0
C220 C 0.86451 0.53095 0.72364 0.0
C221 C 0.89753 0.54058 0.73081 0.0
C222 C 0.958 0.62149 0.75412 0.0
C223 C 0.95533 0.64103 0.77336 0.0
C224 C 0.94333 0.661 0.76671 0.0
C225 C 0.93397 0.66185 0.74067 0.0
C226 C 0.93709 0.64245 0.7214 0.0
C227 C 0.94891 0.62237 0.7281 0.0
C228 C 0.02629 0.6413 0.77031 0.0
C229 C 0.03913 0.65588 0.79483 0.0
C230 C 0.05949 0.68683 0.79707 0.0
C231 C 0.06739 0.70386 0.77482 0.0
C232 C 0.05506 0.68902 0.75017 0.0
C233 C 0.03469 0.658 0.74795 0.0
C234 C 0.03748 0.47284 0.80466 0.0
C235 C 0.80948 0.5289 0.73172 0.0
H236 H 0.39867 0.23918 0.36447 0.0
H237 H 0.44829 0.48553 0.59439 0.0
H238 H 0.36238 0.22337 0.51376 0.0
H239 H 0.36098 0.17856 0.49162 0.0
H240 H 0.46726 0.22307 0.49017 0.0
H241 H 0.46832 0.26738 0.51329 0.0
H242 H 0.36803 0.25735 0.47248 0.0
H243 H 0.37111 0.24369 0.42646 0.0
H244 H 0.47458 0.30718 0.42856 0.0
H245 H 0.47119 0.32034 0.47469 0.0
H246 H 0.36581 0.31323 0.4811 0.0
H247 H 0.35936 0.34571 0.45005 0.0
H248 H 0.45877 0.41382 0.46937 0.0
H249 H 0.46539 0.38043 0.4996 0.0
H250 H 0.36712 0.34552 0.54159 0.0
H251 H 0.36686 0.39203 0.55824 0.0
H252 H 0.4722 0.4323 0.5726 0.0
H253 H 0.47208 0.38575 0.5557 0.0
H254 H 0.36305 0.30281 0.58557 0.0
H255 H 0.36103 0.33089 0.62534 0.0
H256 H 0.46726 0.37409 0.63226 0.0
H257 H 0.46896 0.34595 0.59238 0.0
H258 H 0.35919 0.2348 0.55978 0.0
H259 H 0.34986 0.19932 0.59367 0.0
H260 H 0.45016 0.25217 0.62262 0.0
H261 H 0.45972 0.2871 0.58788 0.0
O262 O 0.39798 0.24494 0.38269 0.0
O263 O 0.45101 0.2781 0.38472 0.0
O264 O 0.39382 0.44583 0.57848 0.0
O265 O 0.44778 0.46714 0.58711 0.0
C266 C 0.41599 0.27728 0.52412 0.0
C267 C 0.41783 0.29739 0.505 0.0
C268 C 0.41866 0.32515 0.51257 0.0
C269 C 0.41926 0.33342 0.5393 0.0
C270 C 0.41757 0.31345 0.55845 0.0
C271 C 0.4152 0.28506 0.55093 0.0
C272 C 0.41546 0.24841 0.51555 0.0
C273 C 0.38537 0.22299 0.50958 0.0
C274 C 0.38464 0.1976 0.4965 0.0
C275 C 0.41401 0.19732 0.48883 0.0
C276 C 0.44421 0.22237 0.49601 0.0
C277 C 0.4449 0.24771 0.50924 0.0
C278 C 0.41945 0.28962 0.47691 0.0
C279 C 0.39136 0.26814 0.46298 0.0
C280 C 0.39318 0.26046 0.43668 0.0
C281 C 0.42312 0.27428 0.42383 0.0
C282 C 0.45115 0.29606 0.43787 0.0
C283 C 0.4493 0.30366 0.46418 0.0
C284 C 0.41606 0.34446 0.49255 0.0
C285 C 0.38634 0.335 0.47832 0.0
C286 C 0.38259 0.35377 0.46084 0.0
C287 C 0.40842 0.38256 0.4574 0.0
C288 C 0.43846 0.39174 0.47137 0.0
C289 C 0.44225 0.37279 0.48875 0.0
C290 C 0.4196 0.36238 0.54745 0.0
C291 C 0.39012 0.36456 0.54808 0.0
C292 C 0.39005 0.39108 0.5577 0.0
C293 C 0.41952 0.41585 0.56686 0.0
C294 C 0.44909 0.41366 0.56575 0.0
C295 C 0.44912 0.38716 0.55606 0.0
C296 C 0.41613 0.32233 0.58621 0.0
C297 C 0.38578 0.31737 0.59633 0.0
C298 C 0.38471 0.33356 0.61895 0.0
C299 C 0.41403 0.35505 0.63164 0.0
C300 C 0.44431 0.35802 0.62264 0.0
C301 C 0.44532 0.34168 0.60012 0.0
C302 C 0.41031 0.26318 0.571 0.0
C303 C 0.3794 0.23832 0.57298 0.0
C304 C 0.37407 0.21818 0.59243 0.0
C305 C 0.39935 0.22293 0.61065 0.0
C306 C 0.43026 0.24803 0.60882 0.0
C307 C 0.43576 0.2679 0.58901 0.0
C308 C 0.42501 0.26598 0.39592 0.0
C309 C 0.41946 0.44379 0.57777 0.0
H310 H 0.56436 0.08606 0.86101 0.0
H311 H 0.76605 0.96649 0.01527 0.0
H312 H 0.59043 0.09408 0.99504 0.0
H313 H 0.54346 0.0957 0.97369 0.0
H314 H 0.47977 0.00747 0.99969 0.0
H315 H 0.52731 0.00515 0.01907 0.0
H316 H 0.63667 0.0852 0.95543 0.0
H317 H 0.61502 0.09289 0.91416 0.0
H318 H 0.52656 0.00933 0.92089 0.0
H319 H 0.54873 0.00173 0.9619 0.0
H320 H 0.69307 0.06589 0.96972 0.0
H321 H 0.71493 0.05587 0.92887 0.0
H322 H 0.62426 0.97413 0.91378 0.0
H323 H 0.60267 0.98451 0.95436 0.0
H324 H 0.70576 0.06441 0.03393 0.0
H325 H 0.7516 0.05214 0.03796 0.0
H326 H 0.69048 0.96384 0.00155 0.0
H327 H 0.64475 0.97628 0.99794 0.0
H328 H 0.65905 0.07212 0.07762 0.0
H329 H 0.6835 0.0646 0.11749 0.0
H330 H 0.64897 0.97125 0.09222 0.0
H331 H 0.62325 0.97875 0.05325 0.0
H332 H 0.60449 0.08692 0.06394 0.0
H333 H 0.57454 0.08638 0.10381 0.0
H334 H 0.52864 0.98945 0.09913 0.0
H335 H 0.55893 0.9902 0.05975 0.0
O336 O 0.57284 0.08214 0.87698 0.0
O337 O 0.52815 0.0387 0.88106 0.0
O338 O 0.77877 0.01762 0.03249 0.0
O339 O 0.74839 0.97198 0.01382 0.0
C340 C 0.59131 0.04328 0.01074 0.0
C341 C 0.60639 0.03963 0.9877 0.0
C342 C 0.63249 0.03207 0.98925 0.0
C343 C 0.64403 0.02859 0.01384 0.0
C344 C 0.62848 0.03143 0.03684 0.0
C345 C 0.60192 0.03852 0.03526 0.0
C346 C 0.56245 0.04928 0.00818 0.0
C347 C 0.56612 0.07558 0.99696 0.0
C348 C 0.53913 0.07645 0.98472 0.0
C349 C 0.50794 0.05126 0.98416 0.0
C350 C 0.50366 0.02682 0.99891 0.0
C351 C 0.53076 0.02569 0.01056 0.0
C352 C 0.59419 0.04303 0.9617 0.0
C353 C 0.61279 0.06845 0.94779 0.0
C354 C 0.60029 0.07283 0.9243 0.0
C355 C 0.56897 0.05181 0.91431 0.0
C356 C 0.55072 0.026 0.92806 0.0
C357 C 0.56331 0.0216 0.95148 0.0
C358 C 0.64627 0.02599 0.96487 0.0
C359 C 0.67805 0.04584 0.95755 0.0
C360 C 0.69048 0.04002 0.93429 0.0
C361 C 0.67123 0.01429 0.918 0.0
C362 C 0.63947 0.99441 0.92561 0.0
C363 C 0.62716 1.0002 0.94883 0.0
C364 C 0.67204 0.0213 0.01552 0.0
C365 C 0.70237 0.04246 0.0268 0.0
C366 C 0.72849 0.03538 0.02908 0.0
C367 C 0.72471 0.007 0.02004 0.0
C368 C 0.69425 0.9859 0.00866 0.0
C369 C 0.66814 0.99299 0.00647 0.0
C370 C 0.63964 0.02605 0.06247 0.0
C371 C 0.65617 0.04992 0.08106 0.0
C372 C 0.67043 0.04562 0.10367 0.0
C373 C 0.66863 0.01739 0.10797 0.0
C374 C 0.65064 0.99321 0.08979 0.0
C375 C 0.63612 0.99748 0.06736 0.0
C376 C 0.58372 0.0386 0.05901 0.0
C377 C 0.58794 0.06564 0.0716 0.0
C378 C 0.571 0.0653 0.09433 0.0
C379 C 0.54921 0.03787 0.1044 0.0
C380 C 0.54503 0.01088 0.09161 0.0
C381 C 0.56233 0.01126 0.06923 0.0
C382 C 0.55534 0.05702 0.88978 0.0
C383 C 0.75232 0.99931 0.02253 0.0
H384 H 0.64398 0.98589 0.30716 0.0
H385 H 0.58217 0.15311 0.53667 0.0
H386 H 0.64709 0.95368 0.43894 0.0
H387 H 0.68207 0.93691 0.41427 0.0
H388 H 0.7683 0.00769 0.45394 0.0
H389 H 0.73343 0.02489 0.47783 0.0
H390 H 0.60635 0.98612 0.41599 0.0
H391 H 0.61228 0.98072 0.36887 0.0
H392 H 0.71712 0.03799 0.37878 0.0
H393 H 0.71076 0.04358 0.42578 0.0
H394 H 0.57466 0.02285 0.45225 0.0
H395 H 0.55529 0.04933 0.42306 0.0
H396 H 0.65577 0.1067 0.40338 0.0
H397 H 0.6749 0.0806 0.43285 0.0
H398 H 0.57622 0.01862 0.51278 0.0
H399 H 0.55093 0.04912 0.53045 0.0
H400 H 0.63512 0.12932 0.50787 0.0
H401 H 0.66024 0.09856 0.49054 0.0
H402 H 0.6055 0.98902 0.54212 0.0
H403 H 0.60269 0.00132 0.58882 0.0
H404 H 0.68818 0.08705 0.58252 0.0
H405 H 0.69042 0.07483 0.53599 0.0
H406 H 0.64166 0.9493 0.50701 0.0
H407 H 0.66377 0.92734 0.53859 0.0
H408 H 0.74192 0.01583 0.56067 0.0
H409 H 0.7194 0.03743 0.52935 0.0
O410 O 0.64217 0.98847 0.32582 0.0
O411 O 0.69598 0.0177 0.33203 0.0
O412 O 0.54896 0.0986 0.54116 0.0
O413 O 0.59163 0.1405 0.52987 0.0
C414 C 0.66778 0.005 0.47044 0.0
C415 C 0.65441 0.01795 0.45294 0.0
C416 C 0.63821 0.03436 0.46271 0.0
C417 C 0.63542 0.03787 0.48993 0.0
C418 C 0.64872 0.02494 0.50735 0.0
C419 C 0.66468 0.00832 0.49766 0.0
C420 C 0.68771 0.99055 0.46013 0.0
C421 C 0.67347 0.96509 0.44273 0.0
C422 C 0.69343 0.95563 0.42862 0.0
C423 C 0.72785 0.97114 0.43213 0.0
C424 C 0.74183 0.99517 0.45104 0.0
C425 C 0.72193 0.00494 0.46478 0.0
C426 C 0.65813 0.01507 0.42429 0.0
C427 C 0.63054 0.99755 0.40791 0.0
C428 C 0.63402 0.99447 0.38102 0.0
C429 C 0.6652 0.00885 0.37007 0.0
C430 C 0.69277 0.02656 0.38658 0.0
C431 C 0.68923 0.02972 0.41343 0.0
C432 C 0.62616 0.04967 0.44452 0.0
C433 C 0.59243 0.04114 0.4416 0.0
C434 C 0.58144 0.05627 0.425 0.0
C435 C 0.60402 0.07992 0.41084 0.0
C436 C 0.63776 0.08824 0.41372 0.0
C437 C 0.64873 0.07339 0.43054 0.0
C438 C 0.62 0.05641 0.50039 0.0
C439 C 0.58916 0.04278 0.51175 0.0
C440 C 0.57477 0.06025 0.52177 0.0
C441 C 0.59101 0.09168 0.52056 0.0
C442 C 0.62194 0.10521 0.50911 0.0
C443 C 0.63632 0.08771 0.49915 0.0
C444 C 0.6482 0.03105 0.53585 0.0
C445 C 0.62372 0.0103 0.55098 0.0
C446 C 0.6221 0.01737 0.5775 0.0
C447 C 0.64531 0.04506 0.58922 0.0
C448 C 0.67025 0.06541 0.57405 0.0
C449 C 0.67151 0.05854 0.54753 0.0
C450 C 0.67873 0.99495 0.51613 0.0
C451 C 0.66358 0.96385 0.51868 0.0
C452 C 0.67633 0.95137 0.53663 0.0
C453 C 0.70448 0.96985 0.55232 0.0
C454 C 0.71983 0.001 0.54932 0.0
C455 C 0.70709 0.0134 0.53138 0.0
C456 C 0.66884 0.00535 0.34153 0.0
C457 C 0.57583 0.11035 0.53117 0.0
H458 H 0.44219 0.30634 0.8479 0.0
H459 H 0.40022 0.12036 0.07939 0.0
H460 H 0.43705 0.35016 0.98105 0.0
H461 H 0.43292 0.39158 0.96117 0.0
H462 H 0.3304 0.35388 0.98086 0.0
H463 H 0.33451 0.3117 0.99966 0.0
H464 H 0.45283 0.30156 0.9612 0.0
H465 H 0.45828 0.30633 0.91399 0.0
H466 H 0.35338 0.27557 0.9051 0.0
H467 H 0.34823 0.27058 0.95233 0.0
H468 H 0.46261 0.26422 0.0071 0.0
H469 H 0.4865 0.23685 0.98213 0.0
H470 H 0.39615 0.19021 0.93562 0.0
H471 H 0.372 0.21753 0.96127 0.0
H472 H 0.44809 0.26538 0.06241 0.0
H473 H 0.45662 0.22647 0.08316 0.0
H474 H 0.36891 0.15827 0.04274 0.0
H475 H 0.36044 0.19744 0.02237 0.0
H476 H 0.43416 0.3198 0.07857 0.0
H477 H 0.4358 0.31827 0.12604 0.0
H478 H 0.34955 0.23185 0.12102 0.0
H479 H 0.34733 0.23402 0.07323 0.0
H480 H 0.42852 0.36007 0.03958 0.0
H481 H 0.42292 0.3966 0.06973 0.0
H482 H 0.32721 0.32853 0.09036 0.0
H483 H 0.3331 0.29207 0.06008 0.0
O484 O 0.43945 0.30413 0.8665 0.0
O485 O 0.38542 0.28826 0.86299 0.0
O486 O 0.44204 0.17217 0.09208 0.0
O487 O 0.39731 0.13623 0.07157 0.0
C488 C 0.38901 0.30291 0.00395 0.0
C489 C 0.39679 0.28279 0.98882 0.0
C490 C 0.40216 0.26068 0.00112 0.0
C491 C 0.39834 0.25785 0.02836 0.0
C492 C 0.39071 0.27803 0.0435 0.0
C493 C 0.38633 0.30072 0.0313 0.0
C494 C 0.38599 0.32772 0.99149 0.0
C495 C 0.4136 0.35067 0.98076 0.0
C496 C 0.41129 0.37457 0.96978 0.0
C497 C 0.38136 0.37621 0.96954 0.0
C498 C 0.35373 0.35318 0.98045 0.0
C499 C 0.35603 0.32913 0.99128 0.0
C500 C 0.4001 0.28549 0.96013 0.0
C501 C 0.43103 0.29564 0.94899 0.0
C502 C 0.43408 0.29845 0.92203 0.0
C503 C 0.40626 0.29129 0.90575 0.0
C504 C 0.3753 0.28123 0.91706 0.0
C505 C 0.37228 0.27836 0.94401 0.0
C506 C 0.4155 0.24274 0.98614 0.0
C507 C 0.4477 0.24769 0.99186 0.0
C508 C 0.46127 0.23194 0.97762 0.0
C509 C 0.44308 0.21115 0.95708 0.0
C510 C 0.41071 0.20609 0.95137 0.0
C511 C 0.39693 0.22165 0.96593 0.0
C512 C 0.40346 0.23423 0.04109 0.0
C513 C 0.43059 0.24204 0.05825 0.0
C514 C 0.43548 0.21976 0.06998 0.0
C515 C 0.4134 0.18924 0.06464 0.0
C516 C 0.38635 0.18154 0.04732 0.0
C517 C 0.38144 0.20385 0.03565 0.0
C518 C 0.39043 0.27719 0.07245 0.0
C519 C 0.41514 0.30085 0.08771 0.0
C520 C 0.41602 0.29995 0.11481 0.0
C521 C 0.39261 0.27506 0.12718 0.0
C522 C 0.36781 0.25132 0.11192 0.0
C523 C 0.36655 0.25251 0.08473 0.0
C524 C 0.38116 0.32346 0.04758 0.0
C525 C 0.40606 0.35323 0.05021 0.0
C526 C 0.40281 0.37405 0.06745 0.0
C527 C 0.37468 0.36542 0.08251 0.0
C528 C 0.34936 0.33575 0.07927 0.0
C529 C 0.35256 0.31496 0.06191 0.0
C530 C 0.4096 0.29442 0.87713 0.0
C531 C 0.41856 0.16547 0.07697 0.0
H532 H 0.23268 0.51949 0.23135 0.0
H533 H 0.16089 0.63067 0.2824 0.0
H534 H 0.29279 0.60563 0.27148 0.0
H535 H 0.10372 0.54606 0.23906 0.0
H536 H 0.20918 0.62162 0.28014 0.0
H537 H 0.18491 0.52853 0.23557 0.0
C538 C 0.23585 0.54031 0.24114 0.0
C539 C 0.26685 0.56187 0.25103 0.0
C540 C 0.18606 0.60507 0.27112 0.0
C541 C 0.21202 0.57243 0.25588 0.0
C542 C 0.15847 0.61016 0.2725 0.0
C543 C 0.12825 0.58915 0.2608 0.0
C544 C 0.18336 0.57871 0.25806 0.0
C545 C 0.12662 0.5631 0.248 0.0
C546 C 0.2085 0.54548 0.24351 0.0
C547 C 0.26936 0.5884 0.26354 0.0
N548 N 0.15374 0.55864 0.247 0.0
N549 N 0.24229 0.59297 0.26558 0.0
H550 H 0.21574 0.88799 0.75896 0.0
H551 H 0.06478 0.74339 0.81239 0.0
H552 H 0.16813 0.88848 0.83126 0.0
H553 H 0.11659 0.74003 0.74326 0.0
H554 H 0.0998 0.79746 0.81754 0.0
H555 H 0.17662 0.8349 0.75054 0.0
C556 C 0.19688 0.87705 0.77294 0.0
C557 C 0.19536 0.8927 0.79594 0.0
C558 C 0.10351 0.78496 0.80119 0.0
C559 C 0.15066 0.83192 0.78649 0.0
C560 C 0.08363 0.754 0.79833 0.0
C561 C 0.08793 0.73701 0.7775 0.0
C562 C 0.12798 0.79923 0.7831 0.0
C563 C 0.11227 0.7522 0.75954 0.0
C564 C 0.17463 0.8467 0.76816 0.0
C565 C 0.1704 0.87733 0.81335 0.0
N566 N 0.13148 0.78241 0.76283 0.0
N567 N 0.14918 0.84781 0.80832 0.0
H568 H 0.01784 0.90221 0.29605 0.0
H569 H 0.92147 0.72404 0.2819 0.0
H570 H 0.91607 0.85454 0.26942 0.0
H571 H 0.02594 0.77248 0.27091 0.0
H572 H 0.91862 0.77177 0.28404 0.0
H573 H 0.02101 0.85466 0.29351 0.0
C574 C 0.99617 0.88174 0.28973 0.0
C575 C 0.96665 0.88227 0.28289 0.0
C576 C 0.94213 0.77191 0.28112 0.0
C577 C 0.97004 0.828 0.28026 0.0
C578 C 0.94379 0.7448 0.28004 0.0
C579 C 0.97397 0.7445 0.27622 0.0
C580 C 0.97098 0.79889 0.27887 0.0
C581 C 0.0022 0.77188 0.27374 0.0
C582 C 0.99805 0.85471 0.28818 0.0
C583 C 0.93934 0.85513 0.27475 0.0
N584 N 8e-05 0.79807 0.27531 0.0
N585 N 0.94161 0.82902 0.27385 0.0
H586 H 0.78489 0.2759 0.83031 0.0
H587 H 0.81882 0.43037 0.77242 0.0
H588 H 0.7142 0.28387 0.77909 0.0
H589 H 0.89787 0.40818 0.78733 0.0
H590 H 0.77896 0.37832 0.77947 0.0
H591 H 0.82609 0.32609 0.81935 0.0
C592 C 0.77809 0.28815 0.8167 0.0
C593 C 0.74608 0.27573 0.8056 0.0
C594 C 0.80503 0.38481 0.78102 0.0
C595 C 0.7928 0.33313 0.79338 0.0
C596 C 0.82769 0.41443 0.77712 0.0
C597 C 0.86152 0.42337 0.77929 0.0
C598 C 0.81634 0.36422 0.78772 0.0
C599 C 0.87191 0.40198 0.78535 0.0
C600 C 0.80161 0.31668 0.8104 0.0
C601 C 0.73861 0.29254 0.78802 0.0
N602 N 0.84936 0.37339 0.78967 0.0
N603 N 0.76168 0.32053 0.78269 0.0
H604 H 0.32225 0.46524 0.35919 0.0
H605 H 0.45264 0.4213 0.42402 0.0
H606 H 0.4258 0.5092 0.34319 0.0
H607 H 0.35345 0.39055 0.45026 0.0
H608 H 0.4435 0.45358 0.3942 0.0
H609 H 0.33324 0.43748 0.39252 0.0
C610 C 0.34734 0.46922 0.36281 0.0
C611 C 0.37312 0.48951 0.34831 0.0
C612 C 0.42379 0.43984 0.40657 0.0
C613 C 0.38586 0.45756 0.3863 0.0
C614 C 0.42903 0.42147 0.42369 0.0
C615 C 0.40371 0.40295 0.43959 0.0
C616 C 0.39296 0.4396 0.40521 0.0
C617 C 0.37349 0.40391 0.43802 0.0
C618 C 0.35361 0.45336 0.38186 0.0
C619 C 0.40517 0.49378 0.35389 0.0
N620 N 0.36893 0.42178 0.42107 0.0
N621 N 0.41059 0.47776 0.3723 0.0
H622 H 0.35352 0.98156 0.86493 0.0
H623 H 0.4912 0.09495 0.96875 0.0
H624 H 0.38876 0.07752 0.8659 0.0
H625 H 0.46579 0.00112 0.95489 0.0
H626 H 0.45123 0.08948 0.93397 0.0
H627 H 0.3917 0.98876 0.90091 0.0
C628 C 0.36932 0.00423 0.87269 0.0
C629 C 0.36792 0.02898 0.86225 0.0
C630 C 0.4543 0.0701 0.93881 0.0
C631 C 0.412 0.03741 0.90382 0.0
C632 C 0.4771 0.07318 0.95865 0.0
C633 C 0.48168 0.04837 0.96514 0.0
C634 C 0.43595 0.04201 0.92544 0.0
C635 C 0.46261 0.02074 0.95131 0.0
C636 C 0.39122 0.00833 0.89331 0.0
C637 C 0.3891 0.0578 0.87326 0.0
N638 N 0.44072 0.01837 0.93223 0.0
N639 N 0.4103 0.06125 0.89351 0.0
H640 H 0.88367 0.94226 0.3607 0.0
H641 H 0.72278 0.96475 0.37901 0.0
H642 H 0.84536 0.97848 0.30253 0.0
H643 H 0.78231 0.964 0.44446 0.0
H644 H 0.7618 0.95982 0.34921 0.0
H645 H 0.84185 0.94182 0.39064 0.0
C646 C 0.86626 0.9498 0.35411 0.0
C647 C 0.8673 0.95945 0.32871 0.0
C648 C 0.76618 0.9605 0.37009 0.0
C649 C 0.81948 0.95885 0.36272 0.0
C650 C 0.74378 0.96299 0.38708 0.0
C651 C 0.74936 0.96469 0.4142 0.0
C652 C 0.79421 0.95943 0.38028 0.0
C653 C 0.77727 0.96288 0.42365 0.0
C654 C 0.84243 0.9495 0.37117 0.0
C655 C 0.84441 0.9693 0.3213 0.0
N656 N 0.79871 0.96033 0.40669 0.0
N657 N 0.82134 0.96861 0.33817 0.0
H658 H 0.59013 0.1618 0.90415 0.0
H659 H 0.44174 0.20436 0.90371 0.0
H660 H 0.56028 0.19494 0.83805 0.0
H661 H 0.48139 0.18564 0.97317 0.0
H662 H 0.47612 0.18879 0.87719 0.0
H663 H 0.54195 0.15853 0.92718 0.0
C664 C 0.57322 0.16798 0.89433 0.0
C665 C 0.57962 0.17928 0.86935 0.0
C666 C 0.47694 0.18765 0.89821 0.0
C667 C 0.52461 0.17568 0.89559 0.0
C668 C 0.45713 0.19633 0.91334 0.0
C669 C 0.45912 0.19674 0.94069 0.0
C670 C 0.4989 0.17935 0.91053 0.0
C671 C 0.47966 0.18627 0.95214 0.0
C672 C 0.54577 0.16616 0.90751 0.0
C673 C 0.55667 0.18662 0.85747 0.0
N674 N 0.49906 0.17835 0.93704 0.0
N675 N 0.53043 0.18504 0.87081 0.0
H676 H 0.35123 0.14239 0.75943 0.0
H677 H 0.3707 0.16162 0.6065 0.0
H678 H 0.34308 0.07071 0.70502 0.0
H679 H 0.413 0.23697 0.66308 0.0
H680 H 0.35702 0.12748 0.64214 0.0
H681 H 0.37068 0.17718 0.72428 0.0
C682 C 0.35363 0.13399 0.74012 0.0
C683 C 0.34543 0.10358 0.73513 0.0
C684 C 0.36953 0.15148 0.64675 0.0
C685 C 0.36735 0.14319 0.6948 0.0
C686 C 0.3772 0.17093 0.62645 0.0
C687 C 0.39295 0.20211 0.63191 0.0
C688 C 0.37714 0.16329 0.67273 0.0
C689 C 0.40105 0.21305 0.65806 0.0
C690 C 0.36484 0.15388 0.7201 0.0
C691 C 0.34916 0.09397 0.70974 0.0
N692 N 0.39274 0.19366 0.67755 0.0
N693 N 0.35954 0.11364 0.69047 0.0
H694 H 0.7487 0.94062 0.21828 0.0
H695 H 0.72979 0.0573 0.12808 0.0
H696 H 0.81841 0.03466 0.21953 0.0
H697 H 0.65077 0.96868 0.13823 0.0
H698 H 0.76216 0.0494 0.16197 0.0
H699 H 0.71226 0.95012 0.18909 0.0
C700 C 0.75629 0.96328 0.21252 0.0
C701 C 0.78676 0.98685 0.22125 0.0
C702 C 0.73763 0.03175 0.15696 0.0
C703 C 0.74525 0.99783 0.18778 0.0
C704 C 0.71895 0.03633 0.13769 0.0
C705 C 0.68739 0.01362 0.13016 0.0
C706 C 0.72492 0.00413 0.1687 0.0
C707 C 0.67515 0.98667 0.14303 0.0
C708 C 0.73543 0.96869 0.19591 0.0
C709 C 0.79522 0.01578 0.21324 0.0
N710 N 0.69402 0.98259 0.16152 0.0
N711 N 0.77471 0.02039 0.19683 0.0
H712 H 0.68916 0.12099 0.7483 0.0
H713 H 0.59093 0.04153 0.61377 0.0
H714 H 0.59762 0.11988 0.7249 0.0
H715 H 0.69422 0.06853 0.62715 0.0
H716 H 0.5888 0.06096 0.65818 0.0
H717 H 0.68704 0.09268 0.70749 0.0
C718 C 0.66845 0.11455 0.7347 0.0
C719 C 0.64366 0.12303 0.73989 0.0
C720 C 0.61184 0.06237 0.65145 0.0
C721 C 0.64109 0.0906 0.69327 0.0
C722 C 0.61301 0.05112 0.62624 0.0
C723 C 0.64284 0.05362 0.61683 0.0
C724 C 0.64064 0.07592 0.6674 0.0
C725 C 0.67083 0.06649 0.63363 0.0
C726 C 0.66733 0.09848 0.7114 0.0
C727 C 0.6174 0.11404 0.72158 0.0
N728 N 0.66908 0.07724 0.6581 0.0
N729 N 0.61684 0.09837 0.69903 0.0
H730 H 0.34968 0.44928 0.22611 0.0
H731 H 0.39215 0.42515 0.07828 0.0
H732 H 0.38755 0.52028 0.1724 0.0
H733 H 0.35294 0.35465 0.13232 0.0
H734 H 0.39085 0.46049 0.11232 0.0
H735 H 0.35118 0.41451 0.19188 0.0
C736 C 0.35841 0.45762 0.20713 0.0
C737 C 0.36849 0.48779 0.20214 0.0
C738 C 0.38244 0.43727 0.1167 0.0
C739 C 0.37015 0.44793 0.16273 0.0
C740 C 0.38326 0.41711 0.0973 0.0
C741 C 0.37257 0.38688 0.10244 0.0
C742 C 0.37096 0.42716 0.14146 0.0
C743 C 0.36097 0.37763 0.12736 0.0
C744 C 0.3592 0.4377 0.18755 0.0
C745 C 0.37956 0.49723 0.17714 0.0
N746 N 0.36056 0.3977 0.14593 0.0
N747 N 0.38005 0.47736 0.15836 0.0
H748 H 0.90946 0.80651 0.67588 0.0
H749 H 0.889 0.67431 0.76649 0.0
H750 H 0.83889 0.77528 0.73683 0.0
H751 H 0.94946 0.69735 0.69885 0.0
H752 H 0.86946 0.71047 0.75541 0.0
H753 H 0.92298 0.76554 0.68297 0.0
C754 C 0.89655 0.79085 0.69058 0.0
C755 C 0.87315 0.79446 0.7059 0.0
C756 C 0.88685 0.70751 0.7429 0.0
C757 C 0.8888 0.74766 0.71433 0.0
C758 C 0.89819 0.68703 0.74932 0.0
C759 C 0.92105 0.68296 0.73366 0.0
C760 C 0.89866 0.72427 0.72076 0.0
C761 C 0.9317 0.69965 0.71138 0.0
C762 C 0.90432 0.76746 0.69464 0.0
C763 C 0.85716 0.77343 0.72461 0.0
N764 N 0.9206 0.71972 0.70571 0.0
N765 N 0.86551 0.7511 0.72846 0.0
H766 H 0.66838 0.37321 0.33252 0.0
H767 H 0.81922 0.45101 0.23763 0.0
H768 H 0.67063 0.33761 0.25455 0.0
H769 H 0.81896 0.48393 0.31698 0.0
H770 H 0.76486 0.4091 0.2435 0.0
H771 H 0.72391 0.41351 0.32743 0.0
C772 C 0.68057 0.37376 0.31437 0.0
C773 C 0.66472 0.35199 0.29391 0.0
C774 C 0.77675 0.42543 0.25966 0.0
C775 C 0.72831 0.39821 0.2879 0.0
C776 C 0.8077 0.44946 0.25626 0.0
C777 C 0.82369 0.471 0.27684 0.0
C778 C 0.76155 0.423 0.28377 0.0
C779 C 0.80776 0.46764 0.30068 0.0
C780 C 0.7123 0.39681 0.31147 0.0
C781 C 0.68181 0.35389 0.27085 0.0
N782 N 0.77757 0.44417 0.30346 0.0
N783 N 0.7126 0.37664 0.26844 0.0
H784 H 0.23722 0.5148 0.78933 0.0
H785 H 0.17433 0.63761 0.77528 0.0
H786 H 0.3047 0.6095 0.7928 0.0
H787 H 0.11472 0.55083 0.80519 0.0
H788 H 0.22202 0.62726 0.77646 0.0
H789 H 0.19116 0.52692 0.78951 0.0
C790 C 0.24235 0.53815 0.79004 0.0
C791 C 0.27484 0.56119 0.7911 0.0
C792 C 0.19853 0.61066 0.78296 0.0
C793 C 0.22222 0.57519 0.79115 0.0
C794 C 0.17142 0.61652 0.78225 0.0
C795 C 0.14074 0.59514 0.79038 0.0
C796 C 0.19463 0.58298 0.79129 0.0
C797 C 0.1381 0.56808 0.79914 0.0
C798 C 0.21606 0.54505 0.79028 0.0
C799 C 0.28002 0.59107 0.79207 0.0
N800 N 0.16461 0.56267 0.79916 0.0
N801 N 0.25395 0.59724 0.79192 0.0
H802 H 0.25556 0.89101 0.31723 0.0
H803 H 0.1607 0.71945 0.26185 0.0
H804 H 0.30117 0.84585 0.2724 0.0
H805 H 0.11312 0.76469 0.30391 0.0
H806 H 0.21291 0.76514 0.26724 0.0
H807 H 0.20383 0.84434 0.3148 0.0
C808 C 0.25478 0.87126 0.30704 0.0
C809 C 0.28273 0.8724 0.29491 0.0
C810 C 0.19108 0.7651 0.27534 0.0
C811 C 0.2236 0.81899 0.29194 0.0
C812 C 0.16119 0.73905 0.27211 0.0
C813 C 0.13241 0.73825 0.28232 0.0
C814 C 0.19232 0.79066 0.28888 0.0
C815 C 0.13472 0.76419 0.29591 0.0
C816 C 0.22521 0.84464 0.3056 0.0
C817 C 0.28025 0.84609 0.28196 0.0
N818 N 0.16413 0.78936 0.29872 0.0
N819 N 0.25121 0.82054 0.28075 0.0
H820 H 0.80467 0.94641 0.68598 0.0
H821 H 0.71041 0.91767 0.54738 0.0
H822 H 0.78013 0.86744 0.63525 0.0
H823 H 0.72884 0.99241 0.60193 0.0
H824 H 0.73406 0.89782 0.57955 0.0
H825 H 0.77516 0.96243 0.65594 0.0
C826 C 0.79226 0.93195 0.66892 0.0
C827 C 0.79409 0.90508 0.66356 0.0
C828 C 0.73282 0.91852 0.58449 0.0
C829 C 0.76135 0.92404 0.62824 0.0
C830 C 0.71918 0.9298 0.56618 0.0
C831 C 0.71782 0.95689 0.57186 0.0
C832 C 0.74523 0.93443 0.60868 0.0
C833 C 0.72993 0.97177 0.59646 0.0
C834 C 0.7758 0.94138 0.65148 0.0
C835 C 0.77911 0.88822 0.64024 0.0
N836 N 0.74318 0.96041 0.61388 0.0
N837 N 0.7634 0.89799 0.6234 0.0
H838 H 0.46682 0.24127 0.26712 0.0
H839 H 0.40224 0.3181 0.16572 0.0
H840 H 0.46909 0.32765 0.28218 0.0
H841 H 0.39141 0.22835 0.15327 0.0
H842 H 0.41802 0.31842 0.21145 0.0
H843 H 0.43046 0.23226 0.22897 0.0
C844 C 0.45919 0.25812 0.26271 0.0
C845 C 0.4716 0.28555 0.27756 0.0
C846 C 0.41165 0.29842 0.19889 0.0
C847 C 0.4303 0.27551 0.23371 0.0
C848 C 0.40271 0.29828 0.17279 0.0
C849 C 0.39598 0.27333 0.1557 0.0
C850 C 0.41439 0.27359 0.20786 0.0
C851 C 0.39648 0.24806 0.16585 0.0
C852 C 0.43844 0.25297 0.24087 0.0
C853 C 0.46057 0.30638 0.27107 0.0
N854 N 0.40615 0.24903 0.19118 0.0
N855 N 0.44102 0.30116 0.24937 0.0
H856 H 0.36251 0.43845 0.76306 0.0
H857 H 0.45197 0.41584 0.63644 0.0
H858 H 0.43722 0.51191 0.72371 0.0
H859 H 0.37324 0.34298 0.67322 0.0
H860 H 0.44807 0.45128 0.66891 0.0
H861 H 0.36657 0.4032 0.73061 0.0
C862 C 0.37969 0.44721 0.74752 0.0
C863 C 0.39959 0.47822 0.74614 0.0
C864 C 0.43174 0.42754 0.66998 0.0
C865 C 0.4045 0.43785 0.70892 0.0
C866 C 0.43418 0.40726 0.65161 0.0
C867 C 0.4131 0.37637 0.65231 0.0
C868 C 0.40806 0.4169 0.68925 0.0
C869 C 0.38991 0.3666 0.67195 0.0
C870 C 0.38202 0.42703 0.72899 0.0
C871 C 0.42137 0.48821 0.72553 0.0
N872 N 0.38804 0.38679 0.68966 0.0
N873 N 0.42332 0.46807 0.70778 0.0
H874 H 0.493 0.03727 0.26499 0.0
H875 H 0.48344 0.00495 0.11087 0.0
H876 H 0.40186 0.99486 0.21915 0.0
H877 H 0.57288 0.06868 0.15179 0.0
H878 H 0.45344 0.00079 0.15093 0.0
H879 H 0.52329 0.04941 0.2244 0.0
C880 C 0.47934 0.03078 0.24646 0.0
C881 C 0.44482 0.01477 0.24552 0.0
C882 C 0.47958 0.01591 0.15117 0.0
C883 C 0.47929 0.02832 0.19911 0.0
C884 C 0.49669 0.01816 0.12834 0.0
C885 C 0.53065 0.03705 0.12813 0.0
C886 C 0.49659 0.03234 0.17413 0.0
C887 C 0.54664 0.05393 0.15119 0.0
C888 C 0.49664 0.03774 0.22331 0.0
C889 C 0.42844 0.00705 0.22091 0.0
N890 N 0.52953 0.05093 0.1734 0.0
N891 N 0.44581 0.01361 0.19875 0.0
H892 H 0.58379 0.17964 0.28496 0.0
H893 H 0.5596 0.10136 0.42107 0.0
H894 H 0.5423 0.20344 0.35212 0.0
H895 H 0.62301 0.09621 0.36124 0.0
H896 H 0.54473 0.13201 0.39327 0.0
H897 H 0.59013 0.14229 0.31007 0.0
C898 C 0.57576 0.17686 0.30492 0.0
C899 C 0.56275 0.19487 0.31653 0.0
C900 C 0.56176 0.12403 0.3862 0.0
C901 C 0.56992 0.15215 0.34535 0.0
C902 C 0.57008 0.1064 0.40196 0.0
C903 C 0.59277 0.09647 0.3935 0.0
C904 C 0.57604 0.13155 0.36174 0.0
C905 C 0.6058 0.10381 0.36866 0.0
C906 C 0.57947 0.15558 0.31925 0.0
C907 C 0.55269 0.19021 0.34245 0.0
N908 N 0.59732 0.12097 0.35368 0.0
N909 N 0.55659 0.16936 0.35602 0.0
H910 H 0.32564 0.47873 0.86824 0.0
H911 H 0.42699 0.43574 0.97133 0.0
H912 H 0.42993 0.53164 0.88503 0.0
H913 H 0.33018 0.37427 0.93966 0.0
H914 H 0.4248 0.47562 0.94714 0.0
H915 H 0.32331 0.44557 0.90235 0.0
C916 C 0.34796 0.48375 0.87941 0.0
C917 C 0.37816 0.50776 0.87344 0.0
C918 C 0.40393 0.45346 0.94571 0.0
C919 C 0.37562 0.46967 0.91238 0.0
C920 C 0.40522 0.43061 0.95937 0.0
C921 C 0.37894 0.40141 0.95723 0.0
C922 C 0.3761 0.44717 0.92985 0.0
C923 C 0.35099 0.39639 0.94201 0.0
C924 C 0.34661 0.46467 0.8988 0.0
C925 C 0.40619 0.51319 0.88872 0.0
N926 N 0.35044 0.41896 0.92874 0.0
N927 N 0.40432 0.49408 0.90729 0.0
H928 H 0.4586 0.06551 0.40615 0.0
H929 H 0.37113 0.167 0.44773 0.0
H930 H 0.36964 0.05743 0.36882 0.0
H931 H 0.45497 0.17062 0.49022 0.0
H932 H 0.37071 0.12702 0.41858 0.0
H933 H 0.45858 0.10458 0.43669 0.0
C934 C 0.43906 0.07193 0.40437 0.0
C935 C 0.41406 0.05815 0.38489 0.0
C936 C 0.38913 0.13642 0.43434 0.0
C937 C 0.41391 0.10283 0.41979 0.0
C938 C 0.38922 0.15913 0.45118 0.0
C939 C 0.41297 0.1721 0.47166 0.0
C940 C 0.41307 0.12656 0.4378 0.0
C941 C 0.43635 0.16145 0.47461 0.0
C942 C 0.43905 0.09421 0.42184 0.0
C943 C 0.38941 0.06741 0.38351 0.0
N944 N 0.43582 0.13933 0.45786 0.0
N945 N 0.38998 0.08915 0.40069 0.0
H946 H 0.78947 0.98052 0.80272 0.0
H947 H 0.63864 0.99294 0.87053 0.0
H948 H 0.69325 0.94812 0.76551 0.0
H949 H 0.73328 0.02092 0.90913 0.0
H950 H 0.65938 0.97968 0.83079 0.0
H951 H 0.77058 0.999 0.8406 0.0
C952 C 0.7644 0.97741 0.80244 0.0
C953 C 0.74284 0.96255 0.78094 0.0
C954 C 0.67567 0.98883 0.84791 0.0
C955 C 0.72103 0.98364 0.82436 0.0
C956 C 0.66379 0.99627 0.87066 0.0
C957 C 0.68418 0.00785 0.89328 0.0
C958 C 0.70818 0.99294 0.84772 0.0
C959 C 0.71676 0.01227 0.89212 0.0
C960 C 0.75362 0.98797 0.82411 0.0
C961 C 0.71069 0.95931 0.78168 0.0
N962 N 0.72769 0.00465 0.86977 0.0
N963 N 0.70071 0.96964 0.80308 0.0
loop_
_geom_bond_atom_site_label_1
_geom_bond_atom_site_label_2
_geom_bond_distance
_geom_bond_site_symmetry_2
_ccdc_geom_bond_type
O0 Cd1 2.300 . S
O0 C7 1.275 . S
Cd1 O0 2.300 . S
Cd1 O9 2.381 . S
Cd1 O10 2.378 . S
O2 Cd3 2.385 . S
O2 C7 1.255 . S
Cd3 O2 2.385 . S
Cd3 O4 2.317 . S
O4 Cd3 2.317 . S
O4 C5 1.232 . S
C5 O4 1.232 . S
C5 O6 1.218 . S
O6 C5 1.218 . S
C7 O0 1.275 . S
C7 O2 1.255 . S
C8 O9 1.258 . S
C8 O10 1.256 . S
O9 Cd1 2.381 . S
O9 C8 1.258 . S
O10 Cd1 2.378 . S
O10 C8 1.256 . S
O11 Cd12 2.300 . S
O11 C18 1.275 . S
Cd12 O11 2.300 . S
Cd12 O20 2.381 . S
Cd12 O21 2.378 . S
O13 Cd14 2.385 . S
O13 C18 1.255 1_565 S
Cd14 O13 2.385 . S
Cd14 O15 2.317 . S
O15 Cd14 2.317 . S
O15 C16 1.232 . S
C16 O15 1.232 . S
C16 O17 1.218 . S
O17 C16 1.218 . S
C18 O11 1.275 . S
C18 O13 1.255 1_545 S
C19 O20 1.258 . S
C19 O21 1.256 . S
O20 Cd12 2.381 . S
O20 C19 1.258 . S
O21 Cd12 2.378 . S
O21 C19 1.256 . S
O22 Cd23 2.300 . S
O22 C29 1.275 . S
Cd23 O22 2.300 . S
Cd23 O31 2.381 . S
Cd23 O32 2.378 . S
O24 Cd25 2.385 . S
O24 C29 1.255 . S
Cd25 O24 2.385 . S
Cd25 O26 2.317 . S
O26 Cd25 2.317 . S
O26 C27 1.232 . S
C27 O26 1.232 . S
C27 O28 1.218 . S
O28 C27 1.218 . S
C29 O22 1.275 . S
C29 O24 1.255 . S
C30 O31 1.258 . S
C30 O32 1.256 . S
O31 Cd23 2.381 . S
O31 C30 1.258 . S
O32 Cd23 2.378 . S
O32 C30 1.256 . S
O33 Cd34 2.300 . S
O33 C40 1.275 . S
Cd34 O33 2.300 . S
Cd34 O42 2.381 . S
Cd34 O43 2.378 . S
O35 Cd36 2.385 . S
O35 C40 1.255 . S
Cd36 O35 2.385 . S
Cd36 O37 2.317 . S
O37 Cd36 2.317 . S
O37 C38 1.232 . S
C38 O37 1.232 . S
C38 O39 1.218 . S
O39 C38 1.218 . S
C40 O33 1.275 . S
C40 O35 1.255 . S
C41 O42 1.258 . S
C41 O43 1.256 . S
O42 Cd34 2.381 . S
O42 C41 1.258 . S
O43 Cd34 2.378 . S
O43 C41 1.256 . S
O44 Cd45 2.300 . S
O44 C51 1.275 . S
Cd45 O44 2.300 . S
Cd45 O53 2.381 . S
Cd45 O54 2.378 . S
O46 Cd47 2.385 . S
O46 C51 1.255 . S
Cd47 O46 2.385 . S
Cd47 O48 2.317 . S
O48 Cd47 2.317 . S
O48 C49 1.232 . S
C49 O48 1.232 . S
C49 O50 1.218 . S
O50 C49 1.218 . S
C51 O44 1.275 . S
C51 O46 1.255 . S
C52 O53 1.258 . S
C52 O54 1.256 . S
O53 Cd45 2.381 . S
O53 C52 1.258 . S
O54 Cd45 2.378 . S
O54 C52 1.256 . S
O55 Cd56 2.300 . S
O55 C62 1.275 . S
Cd56 O55 2.300 . S
Cd56 O64 2.381 . S
Cd56 O65 2.378 . S
O57 Cd58 2.385 . S
O57 C62 1.255 . S
Cd58 O57 2.385 . S
Cd58 O59 2.317 . S
O59 Cd58 2.317 . S
O59 C60 1.232 . S
C60 O59 1.232 . S
C60 O61 1.218 . S
O61 C60 1.218 . S
C62 O55 1.275 . S
C62 O57 1.255 . S
C63 O64 1.258 . S
C63 O65 1.256 . S
O64 Cd56 2.381 . S
O64 C63 1.258 . S
O65 Cd56 2.378 . S
O65 C63 1.256 . S
O66 Cd67 2.300 . S
O66 C73 1.275 . S
Cd67 O66 2.300 . S
Cd67 O75 2.381 . S
Cd67 O76 2.378 . S
O68 Cd69 2.385 . S
O68 C73 1.255 . S
Cd69 O68 2.385 . S
Cd69 O70 2.317 . S
O70 Cd69 2.317 . S
O70 C71 1.232 . S
C71 O70 1.232 . S
C71 O72 1.218 . S
O72 C71 1.218 . S
C73 O66 1.275 . S
C73 O68 1.255 . S
C74 O75 1.258 . S
C74 O76 1.256 . S
O75 Cd67 2.381 . S
O75 C74 1.258 . S
O76 Cd67 2.378 . S
O76 C74 1.256 . S
O77 Cd78 2.318 . S
O77 C84 1.275 . S
Cd78 O77 2.318 . S
Cd78 O86 2.376 1_565 S
Cd78 O87 2.360 1_565 S
O79 Cd80 2.385 . S
O79 C84 1.255 . S
Cd80 O79 2.385 . S
Cd80 O81 2.317 . S
O81 Cd80 2.317 . S
O81 C82 1.232 . S
C82 O81 1.232 . S
C82 O83 1.218 . S
O83 C82 1.218 . S
C84 O77 1.275 . S
C84 O79 1.255 . S
C85 O86 1.258 . S
C85 O87 1.256 . S
O86 Cd78 2.376 1_545 S
O86 C85 1.258 . S
O87 Cd78 2.360 1_545 S
O87 C85 1.256 . S
H88 O114 0.856 . S
H89 O117 0.854 . S
H90 C125 0.930 . S
H91 C126 0.930 . S
H92 C128 0.930 . S
H93 C129 0.930 . S
H94 C131 0.931 . S
H95 C132 0.930 . S
H96 C134 0.930 1_455 S
H97 C135 0.929 . S
H98 C137 0.930 . S
H99 C138 0.931 . S
H100 C140 0.930 . S
H101 C141 0.929 . S
H102 C143 0.931 . S
H103 C144 0.930 . S
H104 C146 0.930 . S
H105 C147 0.932 . S
H106 C149 0.930 . S
H107 C150 0.929 . S
H108 C152 0.931 . S
H109 C153 0.930 . S
H110 C155 0.929 . S
H111 C156 0.931 . S
H112 C158 0.930 . S
H113 C159 0.929 . S
O114 H88 0.856 . S
O114 C160 1.300 . S
O115 C160 1.209 . S
O116 C161 1.199 . S
O117 H89 0.854 . S
O117 C161 1.297 . S
C118 C119 1.404 1_455 S
C118 C123 1.397 . S
C118 C124 1.492 . S
C119 C118 1.404 1_655 S
C119 C120 1.396 . S
C119 C130 1.492 . S
C120 C119 1.396 . S
C120 C121 1.397 . S
C120 C136 1.509 . S
C121 C120 1.397 . S
C121 C122 1.412 . S
C121 C142 1.485 . S
C122 C121 1.412 . S
C122 C123 1.388 1_655 S
C122 C148 1.490 . S
C123 C118 1.397 . S
C123 C122 1.388 1_455 S
C123 C154 1.519 . S
C124 C118 1.492 . S
C124 C125 1.363 . S
C124 C129 1.390 . S
C125 H90 0.930 . S
C125 C124 1.363 . S
C125 C126 1.372 . S
C126 H91 0.930 . S
C126 C125 1.372 . S
C126 C127 1.383 . S
C127 C126 1.383 . S
C127 C128 1.395 . S
C128 H92 0.930 . S
C128 C127 1.395 . S
C128 C129 1.362 . S
C129 H93 0.930 . S
C129 C124 1.390 . S
C129 C128 1.362 . S
C130 C119 1.492 . S
C130 C131 1.377 . S
C130 C135 1.397 . S
C131 H94 0.931 . S
C131 C130 1.377 . S
C131 C132 1.376 . S
C132 H95 0.930 . S
C132 C131 1.376 . S
C132 C133 1.376 . S
C133 C132 1.376 . S
C133 C134 1.378 . S
C133 C160 1.486 . S
C134 H96 0.930 1_655 S
C134 C133 1.378 . S
C134 C135 1.376 . S
C135 H97 0.929 . S
C135 C130 1.397 . S
C135 C134 1.376 . S
C136 C120 1.509 . S
C136 C137 1.391 . S
C136 C141 1.386 . S
C137 H98 0.930 . S
C137 C136 1.391 . S
C137 C138 1.375 . S
C138 H99 0.931 . S
C138 C137 1.375 . S
C138 C139 1.375 . S
C139 C138 1.375 . S
C139 C140 1.361 . S
C140 H100 0.930 . S
C140 C139 1.361 . S
C140 C141 1.399 . S
C141 H101 0.929 . S
C141 C136 1.386 . S
C141 C140 1.399 . S
C142 C121 1.485 . S
C142 C143 1.394 . S
C142 C147 1.360 . S
C143 H102 0.931 . S
C143 C142 1.394 . S
C143 C144 1.372 . S
C144 H103 0.930 . S
C144 C143 1.372 . S
C144 C145 1.397 . S
C145 C144 1.397 . S
C145 C146 1.390 . S
C145 C161 1.476 . S
C146 H104 0.930 . S
C146 C145 1.390 . S
C146 C147 1.366 . S
C147 H105 0.932 . S
C147 C142 1.360 . S
C147 C146 1.366 . S
C148 C122 1.490 . S
C148 C149 1.380 . S
C148 C153 1.386 . S
C149 H106 0.930 . S
C149 C148 1.380 . S
C149 C150 1.381 . S
C150 H107 0.929 . S
C150 C149 1.381 . S
C150 C151 1.371 . S
C151 C150 1.371 . S
C151 C152 1.380 . S
C152 H108 0.931 . S
C152 C151 1.380 . S
C152 C153 1.387 . S
C153 H109 0.930 . S
C153 C148 1.386 . S
C153 C152 1.387 . S
C154 C123 1.519 . S
C154 C155 1.377 . S
C154 C159 1.361 . S
C155 H110 0.929 . S
C155 C154 1.377 . S
C155 C156 1.386 . S
C156 H111 0.931 . S
C156 C155 1.386 . S
C156 C157 1.363 . S
C157 C156 1.363 . S
C157 C158 1.385 . S
C158 H112 0.930 . S
C158 C157 1.385 . S
C158 C159 1.396 . S
C159 H113 0.929 . S
C159 C154 1.361 . S
C159 C158 1.396 . S
C160 O114 1.300 . S
C160 O115 1.209 . S
C160 C133 1.486 . S
C161 O116 1.199 . S
C161 O117 1.297 . S
C161 C145 1.476 . S
H162 O188 0.856 . S
H163 O191 0.854 . S
H164 C199 0.930 . S
H165 C200 0.930 . S
H166 C202 0.930 . S
H167 C203 0.930 . S
H168 C205 0.931 . S
H169 C206 0.930 . S
H170 C208 0.930 . S
H171 C209 0.929 . S
H172 C211 0.930 . S
H173 C212 0.931 . S
H174 C214 0.930 . S
H175 C215 0.929 . S
H176 C217 0.931 . S
H177 C218 0.930 . S
H178 C220 0.930 . S
H179 C221 0.932 . S
H180 C223 0.930 . S
H181 C224 0.929 . S
H182 C226 0.931 . S
H183 C227 0.930 . S
H184 C229 0.929 . S
H185 C230 0.931 . S
H186 C232 0.930 . S
H187 C233 0.929 . S
O188 H162 0.856 . S
O188 C234 1.300 . S
O189 C234 1.209 . S
O190 C235 1.199 . S
O191 H163 0.854 . S
O191 C235 1.297 . S
C192 C193 1.404 1_455 S
C192 C197 1.397 1_455 S
C192 C198 1.492 . S
C193 C192 1.404 1_655 S
C193 C194 1.396 . S
C193 C204 1.492 . S
C194 C193 1.396 . S
C194 C195 1.397 . S
C194 C210 1.509 . S
C195 C194 1.397 . S
C195 C196 1.412 . S
C195 C216 1.485 . S
C196 C195 1.412 . S
C196 C197 1.388 . S
C196 C222 1.490 . S
C197 C192 1.397 1_655 S
C197 C196 1.388 . S
C197 C228 1.519 1_655 S
C198 C192 1.492 . S
C198 C199 1.363 . S
C198 C203 1.390 . S
C199 H164 0.930 . S
C199 C198 1.363 . S
C199 C200 1.372 . S
C200 H165 0.930 . S
C200 C199 1.372 . S
C200 C201 1.383 . S
C201 C200 1.383 . S
C201 C202 1.395 . S
C202 H166 0.930 . S
C202 C201 1.395 . S
C202 C203 1.362 . S
C203 H167 0.930 . S
C203 C198 1.390 . S
C203 C202 1.362 . S
C204 C193 1.492 . S
C204 C205 1.377 . S
C204 C209 1.397 1_655 S
C205 H168 0.931 . S
C205 C204 1.377 . S
C205 C206 1.376 . S
C206 H169 0.930 . S
C206 C205 1.376 . S
C206 C207 1.376 1_655 S
C207 C206 1.376 1_455 S
C207 C208 1.378 . S
C207 C234 1.486 . S
C208 H170 0.930 . S
C208 C207 1.378 . S
C208 C209 1.376 . S
C209 H171 0.929 . S
C209 C204 1.397 1_455 S
C209 C208 1.376 . S
C210 C194 1.509 . S
C210 C211 1.391 . S
C210 C215 1.386 . S
C211 H172 0.930 . S
C211 C210 1.391 . S
C211 C212 1.375 . S
C212 H173 0.931 . S
C212 C211 1.375 . S
C212 C213 1.375 . S
C213 C212 1.375 . S
C213 C214 1.361 . S
C214 H174 0.930 . S
C214 C213 1.361 . S
C214 C215 1.399 . S
C215 H175 0.929 . S
C215 C210 1.386 . S
C215 C214 1.399 . S
C216 C195 1.485 . S
C216 C217 1.394 . S
C216 C221 1.360 . S
C217 H176 0.931 . S
C217 C216 1.394 . S
C217 C218 1.372 . S
C218 H177 0.930 . S
C218 C217 1.372 . S
C218 C219 1.397 . S
C219 C218 1.397 . S
C219 C220 1.390 . S
C219 C235 1.476 . S
C220 H178 0.930 . S
C220 C219 1.390 . S
C220 C221 1.366 . S
C221 H179 0.932 . S
C221 C216 1.360 . S
C221 C220 1.366 . S
C222 C196 1.490 . S
C222 C223 1.380 . S
C222 C227 1.386 . S
C223 H180 0.930 . S
C223 C222 1.380 . S
C223 C224 1.381 . S
C224 H181 0.929 . S
C224 C223 1.381 . S
C224 C225 1.371 . S
C225 C224 1.371 . S
C225 C226 1.380 . S
C226 H182 0.931 . S
C226 C225 1.380 . S
C226 C227 1.387 . S
C227 H183 0.930 . S
C227 C222 1.386 . S
C227 C226 1.387 . S
C228 C197 1.519 1_455 S
C228 C229 1.377 . S
C228 C233 1.361 . S
C229 H184 0.929 . S
C229 C228 1.377 . S
C229 C230 1.386 . S
C230 H185 0.931 . S
C230 C229 1.386 . S
C230 C231 1.363 . S
C231 C230 1.363 . S
C231 C232 1.385 . S
C232 H186 0.930 . S
C232 C231 1.385 . S
C232 C233 1.396 . S
C233 H187 0.929 . S
C233 C228 1.361 . S
C233 C232 1.396 . S
C234 O188 1.300 . S
C234 O189 1.209 . S
C234 C207 1.486 . S
C235 O190 1.199 . S
C235 O191 1.297 . S
C235 C219 1.476 . S
H236 O262 0.856 . S
H237 O265 0.854 . S
H238 C273 0.930 . S
H239 C274 0.930 . S
H240 C276 0.930 . S
H241 C277 0.930 . S
H242 C279 0.931 . S
H243 C280 0.930 . S
H244 C282 0.930 . S
H245 C283 0.929 . S
H246 C285 0.930 . S
H247 C286 0.931 . S
H248 C288 0.930 . S
H249 C289 0.929 . S
H250 C291 0.931 . S
H251 C292 0.930 . S
H252 C294 0.930 . S
H253 C295 0.932 . S
H254 C297 0.930 . S
H255 C298 0.929 . S
H256 C300 0.931 . S
H257 C301 0.930 . S
H258 C303 0.929 . S
H259 C304 0.931 . S
H260 C306 0.930 . S
H261 C307 0.929 . S
O262 H236 0.856 . S
O262 C308 1.300 . S
O263 C308 1.209 . S
O264 C309 1.199 . S
O265 H237 0.854 . S
O265 C309 1.297 . S
C266 C267 1.404 . S
C266 C271 1.397 . S
C266 C272 1.492 . S
C267 C266 1.404 . S
C267 C268 1.396 . S
C267 C278 1.492 . S
C268 C267 1.396 . S
C268 C269 1.397 . S
C268 C284 1.509 . S
C269 C268 1.397 . S
C269 C270 1.412 . S
C269 C290 1.485 . S
C270 C269 1.412 . S
C270 C271 1.388 . S
C270 C296 1.490 . S
C271 C266 1.397 . S
C271 C270 1.388 . S
C271 C302 1.519 . S
C272 C266 1.492 . S
C272 C273 1.363 . S
C272 C277 1.390 . S
C273 H238 0.930 . S
C273 C272 1.363 . S
C273 C274 1.372 . S
C274 H239 0.930 . S
C274 C273 1.372 . S
C274 C275 1.383 . S
C275 C274 1.383 . S
C275 C276 1.395 . S
C276 H240 0.930 . S
C276 C275 1.395 . S
C276 C277 1.362 . S
C277 H241 0.930 . S
C277 C272 1.390 . S
C277 C276 1.362 . S
C278 C267 1.492 . S
C278 C279 1.377 . S
C278 C283 1.397 . S
C279 H242 0.931 . S
C279 C278 1.377 . S
C279 C280 1.376 . S
C280 H243 0.930 . S
C280 C279 1.376 . S
C280 C281 1.376 . S
C281 C280 1.376 . S
C281 C282 1.378 . S
C281 C308 1.486 . S
C282 H244 0.930 . S
C282 C281 1.378 . S
C282 C283 1.376 . S
C283 H245 0.929 . S
C283 C278 1.397 . S
C283 C282 1.376 . S
C284 C268 1.509 . S
C284 C285 1.391 . S
C284 C289 1.386 . S
C285 H246 0.930 . S
C285 C284 1.391 . S
C285 C286 1.375 . S
C286 H247 0.931 . S
C286 C285 1.375 . S
C286 C287 1.375 . S
C287 C286 1.375 . S
C287 C288 1.361 . S
C288 H248 0.930 . S
C288 C287 1.361 . S
C288 C289 1.399 . S
C289 H249 0.929 . S
C289 C284 1.386 . S
C289 C288 1.399 . S
C290 C269 1.485 . S
C290 C291 1.394 . S
C290 C295 1.360 . S
C291 H250 0.931 . S
C291 C290 1.394 . S
C291 C292 1.372 . S
C292 H251 0.930 . S
C292 C291 1.372 . S
C292 C293 1.397 . S
C293 C292 1.397 . S
C293 C294 1.390 . S
C293 C309 1.476 . S
C294 H252 0.930 . S
C294 C293 1.390 . S
C294 C295 1.366 . S
C295 H253 0.932 . S
C295 C290 1.360 . S
C295 C294 1.366 . S
C296 C270 1.490 . S
C296 C297 1.380 . S
C296 C301 1.386 . S
C297 H254 0.930 . S
C297 C296 1.380 . S
C297 C298 1.381 . S
C298 H255 0.929 . S
C298 C297 1.381 . S
C298 C299 1.371 . S
C299 C298 1.371 . S
C299 C300 1.380 . S
C300 H256 0.931 . S
C300 C299 1.380 . S
C300 C301 1.387 . S
C301 H257 0.930 . S
C301 C296 1.386 . S
C301 C300 1.387 . S
C302 C271 1.519 . S
C302 C303 1.377 . S
C302 C307 1.361 . S
C303 H258 0.929 . S
C303 C302 1.377 . S
C303 C304 1.386 . S
C304 H259 0.931 . S
C304 C303 1.386 . S
C304 C305 1.363 . S
C305 C304 1.363 . S
C305 C306 1.385 . S
C306 H260 0.930 . S
C306 C305 1.385 . S
C306 C307 1.396 . S
C307 H261 0.929 . S
C307 C302 1.361 . S
C307 C306 1.396 . S
C308 O262 1.300 . S
C308 O263 1.209 . S
C308 C281 1.486 . S
C309 O264 1.199 . S
C309 O265 1.297 . S
C309 C293 1.476 . S
H310 O336 0.856 1_565 S
H311 O339 0.854 . S
H312 C347 0.930 . S
H313 C348 0.930 . S
H314 C350 0.930 . S
H315 C351 0.930 . S
H316 C353 0.931 . S
H317 C354 0.930 . S
H318 C356 0.930 . S
H319 C357 0.929 . S
H320 C359 0.930 1_545 S
H321 C360 0.936 . S
H322 C362 0.930 . S
H323 C363 0.929 . S
H324 C365 0.931 1_545 S
H325 C366 0.930 1_545 S
H326 C368 0.930 . S
H327 C369 0.932 . S
H328 C371 0.930 . S
H329 C372 0.929 . S
H330 C374 0.931 . S
H331 C375 0.930 . S
H332 C377 0.929 . S
H333 C378 0.931 . S
H334 C380 0.930 . S
H335 C381 0.929 . S
O336 H310 0.856 1_545 S
O336 C382 1.300 1_545 S
O337 C382 1.209 . S
O338 C383 1.199 . S
O339 H311 0.854 . S
O339 C383 1.297 . S
C340 C341 1.404 1_554 S
C340 C345 1.397 . S
C340 C346 1.492 1_565 S
C341 C340 1.404 1_556 S
C341 C342 1.396 . S
C341 C352 1.492 . S
C342 C341 1.396 . S
C342 C343 1.397 1_556 S
C342 C358 1.509 . S
C343 C342 1.397 1_554 S
C343 C344 1.412 . S
C343 C364 1.485 . S
C344 C343 1.412 . S
C344 C345 1.388 . S
C344 C370 1.490 . S
C345 C340 1.397 . S
C345 C344 1.388 . S
C345 C376 1.533 . S
C346 C340 1.492 1_545 S
C346 C347 1.363 1_554 S
C346 C351 1.390 1_545 S
C347 H312 0.930 . S
C347 C346 1.363 1_556 S
C347 C348 1.372 . S
C348 H313 0.930 . S
C348 C347 1.372 . S
C348 C349 1.383 . S
C349 C348 1.383 . S
C349 C350 1.395 1_546 S
C350 H314 0.930 . S
C350 C349 1.395 1_564 S
C350 C351 1.362 . S
C351 H315 0.930 . S
C351 C346 1.390 1_565 S
C351 C350 1.362 . S
C352 C341 1.492 . S
C352 C353 1.377 1_565 S
C352 C357 1.397 . S
C353 H316 0.931 . S
C353 C352 1.377 1_545 S
C353 C354 1.376 . S
C354 H317 0.930 . S
C354 C353 1.376 . S
C354 C355 1.376 1_545 S
C355 C354 1.376 1_565 S
C355 C356 1.378 . S
C355 C382 1.486 . S
C356 H318 0.930 . S
C356 C355 1.378 . S
C356 C357 1.376 . S
C357 H319 0.929 . S
C357 C352 1.397 . S
C357 C356 1.376 . S
C358 C342 1.509 . S
C358 C359 1.391 . S
C358 C363 1.386 . S
C359 H320 0.930 1_565 S
C359 C358 1.391 . S
C359 C360 1.375 . S
C360 H321 0.936 . S
C360 C359 1.375 . S
C360 C361 1.375 . S
C361 C360 1.375 . S
C361 C362 1.361 . S
C362 H322 0.930 . S
C362 C361 1.361 . S
C362 C363 1.399 . S
C363 H323 0.929 . S
C363 C358 1.386 . S
C363 C362 1.399 . S
C364 C343 1.485 . S
C364 C365 1.394 . S
C364 C369 1.360 . S
C365 H324 0.931 1_565 S
C365 C364 1.394 . S
C365 C366 1.372 . S
C366 H325 0.930 1_565 S
C366 C365 1.372 . S
C366 C367 1.397 . S
C367 C366 1.397 . S
C367 C368 1.390 . S
C367 C383 1.476 . S
C368 H326 0.930 . S
C368 C367 1.390 . S
C368 C369 1.366 . S
C369 H327 0.932 . S
C369 C364 1.360 . S
C369 C368 1.366 . S
C370 C344 1.490 . S
C370 C371 1.380 1_565 S
C370 C375 1.386 . S
C371 H328 0.930 . S
C371 C370 1.380 1_545 S
C371 C372 1.381 . S
C372 H329 0.929 . S
C372 C371 1.381 . S
C372 C373 1.366 1_545 S
C373 C372 1.366 1_565 S
C373 C374 1.384 . S
C374 H330 0.931 . S
C374 C373 1.384 . S
C374 C375 1.387 . S
C375 H331 0.930 . S
C375 C370 1.386 . S
C375 C374 1.387 . S
C376 C345 1.533 . S
C376 C377 1.337 1_565 S
C376 C381 1.389 . S
C377 H332 0.929 . S
C377 C376 1.337 1_545 S
C377 C378 1.386 . S
C378 H333 0.931 . S
C378 C377 1.386 . S
C378 C379 1.363 . S
C379 C378 1.363 . S
C379 C380 1.385 1_545 S
C380 H334 0.930 . S
C380 C379 1.385 1_565 S
C380 C381 1.396 . S
C381 H335 0.929 . S
C381 C376 1.389 . S
C381 C380 1.396 . S
C382 O336 1.300 1_565 S
C382 O337 1.209 . S
C382 C355 1.486 . S
C383 O338 1.199 . S
C383 O339 1.297 . S
C383 C367 1.476 . S
H384 O410 0.856 . S
H385 O413 0.854 . S
H386 C421 0.930 . S
H387 C422 0.930 . S
H388 C424 0.930 . S
H389 C425 0.930 . S
H390 C427 0.931 . S
H391 C428 0.928 . S
H392 C430 0.930 . S
H393 C431 0.929 . S
H394 C433 0.930 . S
H395 C434 0.931 . S
H396 C436 0.930 . S
H397 C437 0.929 . S
H398 C439 0.931 . S
H399 C440 0.930 . S
H400 C442 0.930 . S
H401 C443 0.932 . S
H402 C445 0.930 . S
H403 C446 0.929 . S
H404 C448 0.931 . S
H405 C449 0.930 . S
H406 C451 0.929 . S
H407 C452 0.931 . S
H408 C454 0.930 . S
H409 C455 0.929 . S
O410 H384 0.856 . S
O410 C456 1.300 . S
O411 C456 1.209 . S
O412 C457 1.199 . S
O413 H385 0.854 . S
O413 C457 1.297 . S
C414 C415 1.404 . S
C414 C419 1.397 . S
C414 C420 1.492 1_545 S
C415 C414 1.404 . S
C415 C416 1.396 . S
C415 C426 1.492 . S
C416 C415 1.396 . S
C416 C417 1.397 . S
C416 C432 1.509 . S
C417 C416 1.397 . S
C417 C418 1.412 . S
C417 C438 1.485 . S
C418 C417 1.412 . S
C418 C419 1.388 . S
C418 C444 1.490 . S
C419 C414 1.397 . S
C419 C418 1.388 . S
C419 C450 1.519 1_545 S
C420 C414 1.492 1_565 S
C420 C421 1.363 . S
C420 C425 1.390 . S
C421 H386 0.930 . S
C421 C420 1.363 . S
C421 C422 1.372 . S
C422 H387 0.930 . S
C422 C421 1.372 . S
C422 C423 1.383 . S
C423 C422 1.383 . S
C423 C424 1.395 . S
C424 H388 0.930 . S
C424 C423 1.395 . S
C424 C425 1.362 . S
C425 H389 0.930 . S
C425 C420 1.390 . S
C425 C424 1.362 . S
C426 C415 1.492 . S
C426 C427 1.377 . S
C426 C431 1.397 . S
C427 H390 0.931 . S
C427 C426 1.377 . S
C427 C428 1.376 . S
C428 H391 0.928 . S
C428 C427 1.376 . S
C428 C429 1.376 . S
C429 C428 1.376 . S
C429 C430 1.378 . S
C429 C456 1.486 . S
C430 H392 0.930 . S
C430 C429 1.378 . S
C430 C431 1.376 . S
C431 H393 0.929 . S
C431 C426 1.397 . S
C431 C430 1.376 . S
C432 C416 1.509 . S
C432 C433 1.391 . S
C432 C437 1.386 . S
C433 H394 0.930 . S
C433 C432 1.391 . S
C433 C434 1.375 . S
C434 H395 0.931 . S
C434 C433 1.375 . S
C434 C435 1.375 . S
C435 C434 1.375 . S
C435 C436 1.361 . S
C436 H396 0.930 . S
C436 C435 1.361 . S
C436 C437 1.399 . S
C437 H397 0.929 . S
C437 C432 1.386 . S
C437 C436 1.399 . S
C438 C417 1.485 . S
C438 C439 1.394 . S
C438 C443 1.360 . S
C439 H398 0.931 . S
C439 C438 1.394 . S
C439 C440 1.372 . S
C440 H399 0.930 . S
C440 C439 1.372 . S
C440 C441 1.397 . S
C441 C440 1.397 . S
C441 C442 1.390 . S
C441 C457 1.476 . S
C442 H400 0.930 . S
C442 C441 1.390 . S
C442 C443 1.366 . S
C443 H401 0.932 . S
C443 C438 1.360 . S
C443 C442 1.366 . S
C444 C418 1.490 . S
C444 C445 1.380 1_545 S
C444 C449 1.386 . S
C445 H402 0.930 . S
C445 C444 1.380 1_565 S
C445 C446 1.381 . S
C446 H403 0.929 . S
C446 C445 1.381 . S
C446 C447 1.371 1_565 S
C447 C446 1.371 1_545 S
C447 C448 1.380 . S
C448 H404 0.931 . S
C448 C447 1.380 . S
C448 C449 1.387 . S
C449 H405 0.930 . S
C449 C444 1.386 . S
C449 C448 1.387 . S
C450 C419 1.519 1_565 S
C450 C451 1.377 . S
C450 C455 1.361 1_565 S
C451 H406 0.929 . S
C451 C450 1.377 . S
C451 C452 1.386 . S
C452 H407 0.931 . S
C452 C451 1.386 . S
C452 C453 1.363 . S
C453 C452 1.363 . S
C453 C454 1.385 . S
C454 H408 0.930 . S
C454 C453 1.385 . S
C454 C455 1.396 1_565 S
C455 H409 0.929 . S
C455 C450 1.361 1_545 S
C455 C454 1.396 1_545 S
C456 O410 1.300 . S
C456 O411 1.209 . S
C456 C429 1.486 . S
C457 O412 1.199 . S
C457 O413 1.297 . S
C457 C441 1.476 . S
H458 O484 0.856 . S
H459 O487 0.854 . S
H460 C495 0.930 . S
H461 C496 0.930 . S
H462 C498 0.930 . S
H463 C499 0.930 . S
H464 C501 0.931 . S
H465 C502 0.930 . S
H466 C504 0.930 . S
H467 C505 0.929 . S
H468 C507 0.930 . S
H469 C508 0.931 . S
H470 C510 0.930 . S
H471 C511 0.929 . S
H472 C513 0.931 . S
H473 C514 0.930 . S
H474 C516 0.930 . S
H475 C517 0.932 . S
H476 C519 0.930 . S
H477 C520 0.929 . S
H478 C522 0.931 . S
H479 C523 0.930 . S
H480 C525 0.929 . S
H481 C526 0.931 . S
H482 C528 0.930 . S
H483 C529 0.929 . S
O484 H458 0.856 . S
O484 C530 1.300 . S
O485 C530 1.209 . S
O486 C531 1.199 . S
O487 H459 0.854 . S
O487 C531 1.297 . S
C488 C489 1.404 . S
C488 C493 1.397 1_556 S
C488 C494 1.492 . S
C489 C488 1.404 . S
C489 C490 1.396 . S
C489 C500 1.492 . S
C490 C489 1.396 . S
C490 C491 1.397 1_556 S
C490 C506 1.509 . S
C491 C490 1.397 1_554 S
C491 C492 1.412 . S
C491 C512 1.485 . S
C492 C491 1.412 . S
C492 C493 1.388 . S
C492 C518 1.490 . S
C493 C488 1.397 1_554 S
C493 C492 1.388 . S
C493 C524 1.519 . S
C494 C488 1.492 . S
C494 C495 1.363 . S
C494 C499 1.390 . S
C495 H460 0.930 . S
C495 C494 1.363 . S
C495 C496 1.372 . S
C496 H461 0.930 . S
C496 C495 1.372 . S
C496 C497 1.383 . S
C497 C496 1.383 . S
C497 C498 1.395 . S
C498 H462 0.930 . S
C498 C497 1.395 . S
C498 C499 1.362 . S
C499 H463 0.930 . S
C499 C494 1.390 . S
C499 C498 1.362 . S
C500 C489 1.492 . S
C500 C501 1.377 . S
C500 C505 1.397 . S
C501 H464 0.931 . S
C501 C500 1.377 . S
C501 C502 1.376 . S
C502 H465 0.930 . S
C502 C501 1.376 . S
C502 C503 1.376 . S
C503 C502 1.376 . S
C503 C504 1.378 . S
C503 C530 1.486 . S
C504 H466 0.930 . S
C504 C503 1.378 . S
C504 C505 1.376 . S
C505 H467 0.929 . S
C505 C500 1.397 . S
C505 C504 1.376 . S
C506 C490 1.509 . S
C506 C507 1.391 . S
C506 C511 1.386 . S
C507 H468 0.930 . S
C507 C506 1.391 . S
C507 C508 1.375 . S
C508 H469 0.931 . S
C508 C507 1.375 . S
C508 C509 1.375 . S
C509 C508 1.375 . S
C509 C510 1.361 . S
C510 H470 0.930 . S
C510 C509 1.361 . S
C510 C511 1.399 . S
C511 H471 0.929 . S
C511 C506 1.386 . S
C511 C510 1.399 . S
C512 C491 1.485 . S
C512 C513 1.394 . S
C512 C517 1.360 . S
C513 H472 0.931 . S
C513 C512 1.394 . S
C513 C514 1.372 . S
C514 H473 0.930 . S
C514 C513 1.372 . S
C514 C515 1.397 . S
C515 C514 1.397 . S
C515 C516 1.390 . S
C515 C531 1.476 . S
C516 H474 0.930 . S
C516 C515 1.390 . S
C516 C517 1.366 . S
C517 H475 0.932 . S
C517 C512 1.360 . S
C517 C516 1.366 . S
C518 C492 1.490 . S
C518 C519 1.380 . S
C518 C523 1.386 . S
C519 H476 0.930 . S
C519 C518 1.380 . S
C519 C520 1.381 . S
C520 H477 0.929 . S
C520 C519 1.381 . S
C520 C521 1.371 . S
C521 C520 1.371 . S
C521 C522 1.380 . S
C522 H478 0.931 . S
C522 C521 1.380 . S
C522 C523 1.387 . S
C523 H479 0.930 . S
C523 C518 1.386 . S
C523 C522 1.387 . S
C524 C493 1.519 . S
C524 C525 1.377 . S
C524 C529 1.361 . S
C525 H480 0.929 . S
C525 C524 1.377 . S
C525 C526 1.386 . S
C526 H481 0.931 . S
C526 C525 1.386 . S
C526 C527 1.363 . S
C527 C526 1.363 . S
C527 C528 1.385 . S
C528 H482 0.930 . S
C528 C527 1.385 . S
C528 C529 1.396 . S
C529 H483 0.929 . S
C529 C524 1.361 . S
C529 C528 1.396 . S
C530 O484 1.300 . S
C530 O485 1.209 . S
C530 C503 1.486 . S
C531 O486 1.199 . S
C531 O487 1.297 . S
C531 C515 1.476 . S
H532 C538 0.930 . S
H533 C542 0.930 . S
H534 C547 0.929 . S
H535 C545 0.929 . S
H536 C540 0.929 . S
H537 C546 0.929 . S
C538 H532 0.930 . S
C538 C539 1.367 . S
C538 C546 1.378 . S
C539 C538 1.367 . S
C539 C547 1.433 . S
C540 H536 0.929 . S
C540 C542 1.378 . S
C540 C544 1.350 . S
C541 C544 1.463 . S
C541 C546 1.350 . S
C541 N549 1.427 . S
C542 H533 0.930 . S
C542 C540 1.378 . S
C542 C543 1.367 . S
C543 C542 1.367 . S
C543 C545 1.433 . S
C544 C540 1.350 . S
C544 C541 1.463 . S
C544 N548 1.427 . S
C545 H535 0.929 . S
C545 C543 1.433 . S
C545 N548 1.384 . S
C546 H537 0.929 . S
C546 C538 1.378 . S
C546 C541 1.350 . S
C547 H534 0.929 . S
C547 C539 1.433 . S
C547 N549 1.384 . S
N548 C544 1.427 . S
N548 C545 1.384 . S
N549 C541 1.427 . S
N549 C547 1.384 . S
H550 C556 0.930 . S
H551 C560 0.930 . S
H552 C565 0.929 . S
H553 C563 0.929 . S
H554 C558 0.929 . S
H555 C564 0.929 . S
C556 H550 0.930 . S
C556 C557 1.367 . S
C556 C564 1.378 . S
C557 C556 1.367 . S
C557 C565 1.433 . S
C558 H554 0.929 . S
C558 C560 1.378 . S
C558 C562 1.350 . S
C559 C562 1.463 . S
C559 C564 1.350 . S
C559 N567 1.427 . S
C560 H551 0.930 . S
C560 C558 1.378 . S
C560 C561 1.367 . S
C561 C560 1.367 . S
C561 C563 1.433 . S
C562 C558 1.350 . S
C562 C559 1.463 . S
C562 N566 1.427 . S
C563 H553 0.929 . S
C563 C561 1.433 . S
C563 N566 1.384 . S
C564 H555 0.929 . S
C564 C556 1.378 . S
C564 C559 1.350 . S
C565 H552 0.929 . S
C565 C557 1.433 . S
C565 N567 1.384 . S
N566 C562 1.427 . S
N566 C563 1.384 . S
N567 C559 1.427 . S
N567 C565 1.384 . S
H568 C574 0.930 . S
H569 C578 0.930 . S
H570 C583 0.929 . S
H571 C581 0.929 . S
H572 C576 0.929 . S
H573 C582 0.929 . S
C574 H568 0.930 . S
C574 C575 1.367 . S
C574 C582 1.378 . S
C575 C574 1.367 . S
C575 C583 1.433 . S
C576 H572 0.929 . S
C576 C578 1.378 . S
C576 C580 1.350 . S
C577 C580 1.463 . S
C577 C582 1.350 . S
C577 N585 1.427 . S
C578 H569 0.930 . S
C578 C576 1.378 . S
C578 C579 1.367 . S
C579 C578 1.367 . S
C579 C581 1.433 . S
C580 C576 1.350 . S
C580 C577 1.463 . S
C580 N584 1.427 . S
C581 H571 0.929 . S
C581 C579 1.433 . S
C581 N584 1.384 . S
C582 H573 0.929 . S
C582 C574 1.378 . S
C582 C577 1.350 . S
C583 H570 0.929 . S
C583 C575 1.433 . S
C583 N585 1.384 . S
N584 C580 1.427 . S
N584 C581 1.384 . S
N585 C577 1.427 . S
N585 C583 1.384 . S
H586 C592 0.930 . S
H587 C596 0.930 . S
H588 C601 0.929 . S
H589 C599 0.929 . S
H590 C594 0.929 . S
H591 C600 0.929 . S
C592 H586 0.930 . S
C592 C593 1.367 . S
C592 C600 1.378 . S
C593 C592 1.367 . S
C593 C601 1.433 . S
C594 H590 0.929 . S
C594 C596 1.378 . S
C594 C598 1.350 . S
C595 C598 1.463 . S
C595 C600 1.350 . S
C595 N603 1.427 . S
C596 H587 0.930 . S
C596 C594 1.378 . S
C596 C597 1.367 . S
C597 C596 1.367 . S
C597 C599 1.433 . S
C598 C594 1.350 . S
C598 C595 1.463 . S
C598 N602 1.427 . S
C599 H589 0.929 . S
C599 C597 1.433 . S
C599 N602 1.384 . S
C600 H591 0.929 . S
C600 C592 1.378 . S
C600 C595 1.350 . S
C601 H588 0.929 . S
C601 C593 1.433 . S
C601 N603 1.384 . S
N602 C598 1.427 . S
N602 C599 1.384 . S
N603 C595 1.427 . S
N603 C601 1.384 . S
H604 C610 0.930 . S
H605 C614 0.930 . S
H606 C619 0.929 . S
H607 C617 0.929 . S
H608 C612 0.929 . S
H609 C618 0.929 . S
C610 H604 0.930 . S
C610 C611 1.367 . S
C610 C618 1.378 . S
C611 C610 1.367 . S
C611 C619 1.433 . S
C612 H608 0.929 . S
C612 C614 1.378 . S
C612 C616 1.350 . S
C613 C616 1.463 . S
C613 C618 1.350 . S
C613 N621 1.427 . S
C614 H605 0.930 . S
C614 C612 1.378 . S
C614 C615 1.367 . S
C615 C614 1.367 . S
C615 C617 1.433 . S
C616 C612 1.350 . S
C616 C613 1.463 . S
C616 N620 1.427 . S
C617 H607 0.929 . S
C617 C615 1.433 . S
C617 N620 1.384 . S
C618 H609 0.929 . S
C618 C610 1.378 . S
C618 C613 1.350 . S
C619 H606 0.929 . S
C619 C611 1.433 . S
C619 N621 1.384 . S
N620 C616 1.427 . S
N620 C617 1.384 . S
N621 C613 1.427 . S
N621 C619 1.384 . S
H622 C628 0.930 . S
H623 C632 0.930 . S
H624 C637 0.929 . S
H625 C635 0.929 . S
H626 C630 0.929 . S
H627 C636 0.929 . S
C628 H622 0.930 . S
C628 C629 1.367 1_565 S
C628 C636 1.378 . S
C629 C628 1.367 1_545 S
C629 C637 1.433 . S
C630 H626 0.929 . S
C630 C632 1.378 . S
C630 C634 1.350 . S
C631 C634 1.463 . S
C631 C636 1.350 1_545 S
C631 N639 1.427 . S
C632 H623 0.930 . S
C632 C630 1.378 . S
C632 C633 1.367 . S
C633 C632 1.367 . S
C633 C635 1.433 1_545 S
C634 C630 1.350 . S
C634 C631 1.463 . S
C634 N638 1.427 1_545 S
C635 H625 0.929 . S
C635 C633 1.433 1_565 S
C635 N638 1.384 . S
C636 H627 0.929 . S
C636 C628 1.378 . S
C636 C631 1.350 1_565 S
C637 H624 0.929 . S
C637 C629 1.433 . S
C637 N639 1.384 . S
N638 C634 1.427 1_565 S
N638 C635 1.384 . S
N639 C631 1.427 . S
N639 C637 1.384 . S
H640 C646 0.930 . S
H641 C650 0.930 . S
H642 C655 0.929 . S
H643 C653 0.929 . S
H644 C648 0.929 . S
H645 C654 0.929 . S
C646 H640 0.930 . S
C646 C647 1.367 . S
C646 C654 1.378 . S
C647 C646 1.367 . S
C647 C655 1.433 . S
C648 H644 0.929 . S
C648 C650 1.378 . S
C648 C652 1.350 . S
C649 C652 1.463 . S
C649 C654 1.350 . S
C649 N657 1.427 . S
C650 H641 0.930 . S
C650 C648 1.378 . S
C650 C651 1.367 . S
C651 C650 1.367 . S
C651 C653 1.433 . S
C652 C648 1.350 . S
C652 C649 1.463 . S
C652 N656 1.427 . S
C653 H643 0.929 . S
C653 C651 1.433 . S
C653 N656 1.384 . S
C654 H645 0.929 . S
C654 C646 1.378 . S
C654 C649 1.350 . S
C655 H642 0.929 . S
C655 C647 1.433 . S
C655 N657 1.384 . S
N656 C652 1.427 . S
N656 C653 1.384 . S
N657 C649 1.427 . S
N657 C655 1.384 . S
H658 C664 0.930 . S
H659 C668 0.930 . S
H660 C673 0.929 . S
H661 C671 0.929 . S
H662 C666 0.929 . S
H663 C672 0.929 . S
C664 H658 0.930 . S
C664 C665 1.367 . S
C664 C672 1.378 . S
C665 C664 1.367 . S
C665 C673 1.433 . S
C666 H662 0.929 . S
C666 C668 1.378 . S
C666 C670 1.350 . S
C667 C670 1.463 . S
C667 C672 1.350 . S
C667 N675 1.427 . S
C668 H659 0.930 . S
C668 C666 1.378 . S
C668 C669 1.367 . S
C669 C668 1.367 . S
C669 C671 1.433 . S
C670 C666 1.350 . S
C670 C667 1.463 . S
C670 N674 1.427 . S
C671 H661 0.929 . S
C671 C669 1.433 . S
C671 N674 1.384 . S
C672 H663 0.929 . S
C672 C664 1.378 . S
C672 C667 1.350 . S
C673 H660 0.929 . S
C673 C665 1.433 . S
C673 N675 1.384 . S
N674 C670 1.427 . S
N674 C671 1.384 . S
N675 C667 1.427 . S
N675 C673 1.384 . S
H676 C682 0.930 . S
H677 C686 0.930 . S
H678 C691 0.929 . S
H679 C689 0.929 . S
H680 C684 0.929 . S
H681 C690 0.929 . S
C682 H676 0.930 . S
C682 C683 1.367 . S
C682 C690 1.378 . S
C683 C682 1.367 . S
C683 C691 1.433 . S
C684 H680 0.929 . S
C684 C686 1.378 . S
C684 C688 1.350 . S
C685 C688 1.463 . S
C685 C690 1.350 . S
C685 N693 1.427 . S
C686 H677 0.930 . S
C686 C684 1.378 . S
C686 C687 1.367 . S
C687 C686 1.367 . S
C687 C689 1.433 . S
C688 C684 1.350 . S
C688 C685 1.463 . S
C688 N692 1.427 . S
C689 H679 0.929 . S
C689 C687 1.433 . S
C689 N692 1.384 . S
C690 H681 0.929 . S
C690 C682 1.378 . S
C690 C685 1.350 . S
C691 H678 0.929 . S
C691 C683 1.433 . S
C691 N693 1.384 . S
N692 C688 1.427 . S
N692 C689 1.384 . S
N693 C685 1.427 . S
N693 C691 1.384 . S
H694 C700 0.930 . S
H695 C704 0.930 . S
H696 C709 0.929 1_545 S
H697 C707 0.929 . S
H698 C702 0.929 . S
H699 C708 0.929 . S
C700 H694 0.930 . S
C700 C701 1.367 . S
C700 C708 1.378 . S
C701 C700 1.367 . S
C701 C709 1.433 . S
C702 H698 0.929 . S
C702 C704 1.378 . S
C702 C706 1.350 1_545 S
C703 C706 1.463 . S
C703 C708 1.350 . S
C703 N711 1.427 . S
C704 H695 0.930 . S
C704 C702 1.378 . S
C704 C705 1.367 1_545 S
C705 C704 1.367 1_565 S
C705 C707 1.433 . S
C706 C702 1.350 1_565 S
C706 C703 1.463 . S
C706 N710 1.427 . S
C707 H697 0.929 . S
C707 C705 1.433 . S
C707 N710 1.384 . S
C708 H699 0.929 . S
C708 C700 1.378 . S
C708 C703 1.350 . S
C709 H696 0.929 1_565 S
C709 C701 1.433 . S
C709 N711 1.384 . S
N710 C706 1.427 . S
N710 C707 1.384 . S
N711 C703 1.427 . S
N711 C709 1.384 . S
H712 C718 0.930 . S
H713 C722 0.930 . S
H714 C727 0.929 . S
H715 C725 0.929 . S
H716 C720 0.929 . S
H717 C726 0.929 . S
C718 H712 0.930 . S
C718 C719 1.367 . S
C718 C726 1.378 . S
C719 C718 1.367 . S
C719 C727 1.433 . S
C720 H716 0.929 . S
C720 C722 1.378 . S
C720 C724 1.350 . S
C721 C724 1.463 . S
C721 C726 1.350 . S
C721 N729 1.427 . S
C722 H713 0.930 . S
C722 C720 1.378 . S
C722 C723 1.367 . S
C723 C722 1.367 . S
C723 C725 1.433 . S
C724 C720 1.350 . S
C724 C721 1.463 . S
C724 N728 1.427 . S
C725 H715 0.929 . S
C725 C723 1.433 . S
C725 N728 1.384 . S
C726 H717 0.929 . S
C726 C718 1.378 . S
C726 C721 1.350 . S
C727 H714 0.929 . S
C727 C719 1.433 . S
C727 N729 1.384 . S
N728 C724 1.427 . S
N728 C725 1.384 . S
N729 C721 1.427 . S
N729 C727 1.384 . S
H730 C736 0.930 . S
H731 C740 0.930 . S
H732 C745 0.929 . S
H733 C743 0.929 . S
H734 C738 0.929 . S
H735 C744 0.929 . S
C736 H730 0.930 . S
C736 C737 1.367 . S
C736 C744 1.378 . S
C737 C736 1.367 . S
C737 C745 1.433 . S
C738 H734 0.929 . S
C738 C740 1.378 . S
C738 C742 1.350 . S
C739 C742 1.463 . S
C739 C744 1.350 . S
C739 N747 1.427 . S
C740 H731 0.930 . S
C740 C738 1.378 . S
C740 C741 1.367 . S
C741 C740 1.367 . S
C741 C743 1.433 . S
C742 C738 1.350 . S
C742 C739 1.463 . S
C742 N746 1.427 . S
C743 H733 0.929 . S
C743 C741 1.433 . S
C743 N746 1.384 . S
C744 H735 0.929 . S
C744 C736 1.378 . S
C744 C739 1.350 . S
C745 H732 0.929 . S
C745 C737 1.433 . S
C745 N747 1.384 . S
N746 C742 1.427 . S
N746 C743 1.384 . S
N747 C739 1.427 . S
N747 C745 1.384 . S
H748 C754 0.930 . S
H749 C758 0.930 . S
H750 C763 0.929 . S
H751 C761 0.929 . S
H752 C756 0.929 . S
H753 C762 0.929 . S
C754 H748 0.930 . S
C754 C755 1.367 . S
C754 C762 1.378 . S
C755 C754 1.367 . S
C755 C763 1.433 . S
C756 H752 0.929 . S
C756 C758 1.378 . S
C756 C760 1.350 . S
C757 C760 1.463 . S
C757 C762 1.350 . S
C757 N765 1.427 . S
C758 H749 0.930 . S
C758 C756 1.378 . S
C758 C759 1.367 . S
C759 C758 1.367 . S
C759 C761 1.433 . S
C760 C756 1.350 . S
C760 C757 1.463 . S
C760 N764 1.427 . S
C761 H751 0.929 . S
C761 C759 1.433 . S
C761 N764 1.384 . S
C762 H753 0.929 . S
C762 C754 1.378 . S
C762 C757 1.350 . S
C763 H750 0.929 . S
C763 C755 1.433 . S
C763 N765 1.384 . S
N764 C760 1.427 . S
N764 C761 1.384 . S
N765 C757 1.427 . S
N765 C763 1.384 . S
H766 C772 0.930 . S
H767 C776 0.930 . S
H768 C781 0.929 . S
H769 C779 0.929 . S
H770 C774 0.929 . S
H771 C780 0.929 . S
C772 H766 0.930 . S
C772 C773 1.367 . S
C772 C780 1.378 . S
C773 C772 1.367 . S
C773 C781 1.433 . S
C774 H770 0.929 . S
C774 C776 1.378 . S
C774 C778 1.350 . S
C775 C778 1.463 . S
C775 C780 1.350 . S
C775 N783 1.427 . S
C776 H767 0.930 . S
C776 C774 1.378 . S
C776 C777 1.367 . S
C777 C776 1.367 . S
C777 C779 1.433 . S
C778 C774 1.350 . S
C778 C775 1.463 . S
C778 N782 1.427 . S
C779 H769 0.929 . S
C779 C777 1.433 . S
C779 N782 1.384 . S
C780 H771 0.929 . S
C780 C772 1.378 . S
C780 C775 1.350 . S
C781 H768 0.929 . S
C781 C773 1.433 . S
C781 N783 1.384 . S
N782 C778 1.427 . S
N782 C779 1.384 . S
N783 C775 1.427 . S
N783 C781 1.384 . S
H784 C790 0.930 . S
H785 C794 0.930 . S
H786 C799 0.929 . S
H787 C797 0.929 . S
H788 C792 0.929 . S
H789 C798 0.929 . S
C790 H784 0.930 . S
C790 C791 1.367 . S
C790 C798 1.378 . S
C791 C790 1.367 . S
C791 C799 1.433 . S
C792 H788 0.929 . S
C792 C794 1.378 . S
C792 C796 1.350 . S
C793 C796 1.463 . S
C793 C798 1.350 . S
C793 N801 1.427 . S
C794 H785 0.930 . S
C794 C792 1.378 . S
C794 C795 1.367 . S
C795 C794 1.367 . S
C795 C797 1.433 . S
C796 C792 1.350 . S
C796 C793 1.463 . S
C796 N800 1.427 . S
C797 H787 0.929 . S
C797 C795 1.433 . S
C797 N800 1.384 . S
C798 H789 0.929 . S
C798 C790 1.378 . S
C798 C793 1.350 . S
C799 H786 0.929 . S
C799 C791 1.433 . S
C799 N801 1.384 . S
N800 C796 1.427 . S
N800 C797 1.384 . S
N801 C793 1.427 . S
N801 C799 1.384 . S
H802 C808 0.930 . S
H803 C812 0.930 . S
H804 C817 0.929 . S
H805 C815 0.929 . S
H806 C810 0.929 . S
H807 C816 0.929 . S
C808 H802 0.930 . S
C808 C809 1.367 . S
C808 C816 1.378 . S
C809 C808 1.367 . S
C809 C817 1.433 . S
C810 H806 0.929 . S
C810 C812 1.378 . S
C810 C814 1.350 . S
C811 C814 1.463 . S
C811 C816 1.350 . S
C811 N819 1.427 . S
C812 H803 0.930 . S
C812 C810 1.378 . S
C812 C813 1.367 . S
C813 C812 1.367 . S
C813 C815 1.433 . S
C814 C810 1.350 . S
C814 C811 1.463 . S
C814 N818 1.427 . S
C815 H805 0.929 . S
C815 C813 1.433 . S
C815 N818 1.384 . S
C816 H807 0.929 . S
C816 C808 1.378 . S
C816 C811 1.350 . S
C817 H804 0.929 . S
C817 C809 1.433 . S
C817 N819 1.384 . S
N818 C814 1.427 . S
N818 C815 1.384 . S
N819 C811 1.427 . S
N819 C817 1.384 . S
H820 C826 0.930 . S
H821 C830 0.930 . S
H822 C835 0.929 . S
H823 C833 0.929 . S
H824 C828 0.929 . S
H825 C834 0.929 . S
C826 H820 0.930 . S
C826 C827 1.367 . S
C826 C834 1.378 . S
C827 C826 1.367 . S
C827 C835 1.433 . S
C828 H824 0.929 . S
C828 C830 1.378 . S
C828 C832 1.350 . S
C829 C832 1.463 . S
C829 C834 1.350 . S
C829 N837 1.427 . S
C830 H821 0.930 . S
C830 C828 1.378 . S
C830 C831 1.367 . S
C831 C830 1.367 . S
C831 C833 1.433 . S
C832 C828 1.350 . S
C832 C829 1.463 . S
C832 N836 1.427 . S
C833 H823 0.929 . S
C833 C831 1.433 . S
C833 N836 1.384 . S
C834 H825 0.929 . S
C834 C826 1.378 . S
C834 C829 1.350 . S
C835 H822 0.929 . S
C835 C827 1.433 . S
C835 N837 1.384 . S
N836 C832 1.427 . S
N836 C833 1.384 . S
N837 C829 1.427 . S
N837 C835 1.384 . S
H838 C844 0.930 . S
H839 C848 0.930 . S
H840 C853 0.929 . S
H841 C851 0.929 . S
H842 C846 0.929 . S
H843 C852 0.929 . S
C844 H838 0.930 . S
C844 C845 1.367 . S
C844 C852 1.378 . S
C845 C844 1.367 . S
C845 C853 1.433 . S
C846 H842 0.929 . S
C846 C848 1.378 . S
C846 C850 1.350 . S
C847 C850 1.463 . S
C847 C852 1.350 . S
C847 N855 1.427 . S
C848 H839 0.930 . S
C848 C846 1.378 . S
C848 C849 1.367 . S
C849 C848 1.367 . S
C849 C851 1.433 . S
C850 C846 1.350 . S
C850 C847 1.463 . S
C850 N854 1.427 . S
C851 H841 0.929 . S
C851 C849 1.433 . S
C851 N854 1.384 . S
C852 H843 0.929 . S
C852 C844 1.378 . S
C852 C847 1.350 . S
C853 H840 0.929 . S
C853 C845 1.433 . S
C853 N855 1.384 . S
N854 C850 1.427 . S
N854 C851 1.384 . S
N855 C847 1.427 . S
N855 C853 1.384 . S
H856 C862 0.930 . S
H857 C866 0.930 . S
H858 C871 0.929 . S
H859 C869 0.929 . S
H860 C864 0.929 . S
H861 C870 0.929 . S
C862 H856 0.930 . S
C862 C863 1.367 . S
C862 C870 1.378 . S
C863 C862 1.367 . S
C863 C871 1.433 . S
C864 H860 0.929 . S
C864 C866 1.378 . S
C864 C868 1.350 . S
C865 C868 1.463 . S
C865 C870 1.350 . S
C865 N873 1.427 . S
C866 H857 0.930 . S
C866 C864 1.378 . S
C866 C867 1.367 . S
C867 C866 1.367 . S
C867 C869 1.433 . S
C868 C864 1.350 . S
C868 C865 1.463 . S
C868 N872 1.427 . S
C869 H859 0.929 . S
C869 C867 1.433 . S
C869 N872 1.384 . S
C870 H861 0.929 . S
C870 C862 1.378 . S
C870 C865 1.350 . S
C871 H858 0.929 . S
C871 C863 1.433 . S
C871 N873 1.384 . S
N872 C868 1.427 . S
N872 C869 1.384 . S
N873 C865 1.427 . S
N873 C871 1.384 . S
H874 C880 0.930 . S
H875 C884 0.930 . S
H876 C889 0.929 . S
H877 C887 0.929 . S
H878 C882 0.929 . S
H879 C888 0.929 . S
C880 H874 0.930 . S
C880 C881 1.367 1_545 S
C880 C888 1.378 . S
C881 C880 1.367 1_565 S
C881 C889 1.433 . S
C882 H878 0.929 . S
C882 C884 1.378 . S
C882 C886 1.350 . S
C883 C886 1.463 . S
C883 C888 1.350 1_565 S
C883 N891 1.427 . S
C884 H875 0.930 . S
C884 C882 1.378 . S
C884 C885 1.367 . S
C885 C884 1.367 . S
C885 C887 1.433 1_565 S
C886 C882 1.350 . S
C886 C883 1.463 . S
C886 N890 1.427 1_565 S
C887 H877 0.929 . S
C887 C885 1.433 1_545 S
C887 N890 1.384 . S
C888 H879 0.929 . S
C888 C880 1.378 . S
C888 C883 1.350 1_545 S
C889 H876 0.929 . S
C889 C881 1.433 . S
C889 N891 1.384 . S
N890 C886 1.427 1_545 S
N890 C887 1.384 . S
N891 C883 1.427 . S
N891 C889 1.384 . S
H892 C898 0.930 . S
H893 C902 0.930 . S
H894 C907 0.929 . S
H895 C905 0.929 . S
H896 C900 0.929 . S
H897 C906 0.929 . S
C898 H892 0.930 . S
C898 C899 1.367 . S
C898 C906 1.378 . S
C899 C898 1.367 . S
C899 C907 1.433 . S
C900 H896 0.929 . S
C900 C902 1.378 . S
C900 C904 1.350 . S
C901 C904 1.463 . S
C901 C906 1.350 . S
C901 N909 1.427 . S
C902 H893 0.930 . S
C902 C900 1.378 . S
C902 C903 1.367 . S
C903 C902 1.367 . S
C903 C905 1.433 . S
C904 C900 1.350 . S
C904 C901 1.463 . S
C904 N908 1.427 . S
C905 H895 0.929 . S
C905 C903 1.433 . S
C905 N908 1.384 . S
C906 H897 0.929 . S
C906 C898 1.378 . S
C906 C901 1.350 . S
C907 H894 0.929 . S
C907 C899 1.433 . S
C907 N909 1.384 . S
N908 C904 1.427 . S
N908 C905 1.384 . S
N909 C901 1.427 . S
N909 C907 1.384 . S
H910 C916 0.930 . S
H911 C920 0.930 . S
H912 C925 0.929 . S
H913 C923 0.929 . S
H914 C918 0.929 . S
H915 C924 0.929 . S
C916 H910 0.930 . S
C916 C917 1.367 . S
C916 C924 1.378 . S
C917 C916 1.367 . S
C917 C925 1.433 . S
C918 H914 0.929 . S
C918 C920 1.378 . S
C918 C922 1.350 . S
C919 C922 1.463 . S
C919 C924 1.350 . S
C919 N927 1.427 . S
C920 H911 0.930 . S
C920 C918 1.378 . S
C920 C921 1.367 . S
C921 C920 1.367 . S
C921 C923 1.433 . S
C922 C918 1.350 . S
C922 C919 1.463 . S
C922 N926 1.427 . S
C923 H913 0.929 . S
C923 C921 1.433 . S
C923 N926 1.384 . S
C924 H915 0.929 . S
C924 C916 1.378 . S
C924 C919 1.350 . S
C925 H912 0.929 . S
C925 C917 1.433 . S
C925 N927 1.384 . S
N926 C922 1.427 . S
N926 C923 1.384 . S
N927 C919 1.427 . S
N927 C925 1.384 . S
H928 C934 0.930 . S
H929 C938 0.930 . S
H930 C943 0.929 . S
H931 C941 0.929 . S
H932 C936 0.929 . S
H933 C942 0.929 . S
C934 H928 0.930 . S
C934 C935 1.367 . S
C934 C942 1.378 . S
C935 C934 1.367 . S
C935 C943 1.433 . S
C936 H932 0.929 . S
C936 C938 1.378 . S
C936 C940 1.350 . S
C937 C940 1.463 . S
C937 C942 1.350 . S
C937 N945 1.427 . S
C938 H929 0.930 . S
C938 C936 1.378 . S
C938 C939 1.367 . S
C939 C938 1.367 . S
C939 C941 1.433 . S
C940 C936 1.350 . S
C940 C937 1.463 . S
C940 N944 1.427 . S
C941 H931 0.929 . S
C941 C939 1.433 . S
C941 N944 1.384 . S
C942 H933 0.929 . S
C942 C934 1.378 . S
C942 C937 1.350 . S
C943 H930 0.929 . S
C943 C935 1.433 . S
C943 N945 1.384 . S
N944 C940 1.427 . S
N944 C941 1.384 . S
N945 C937 1.427 . S
N945 C943 1.384 . S
H946 C952 0.930 . S
H947 C956 0.930 . S
H948 C961 0.929 . S
H949 C959 0.929 . S
H950 C954 0.929 . S
H951 C960 0.929 . S
C952 H946 0.930 . S
C952 C953 1.367 . S
C952 C960 1.378 . S
C953 C952 1.367 . S
C953 C961 1.433 . S
C954 H950 0.929 . S
C954 C956 1.378 . S
C954 C958 1.350 . S
C955 C958 1.463 . S
C955 C960 1.350 . S
C955 N963 1.427 . S
C956 H947 0.930 . S
C956 C954 1.378 . S
C956 C957 1.367 . S
C957 C956 1.367 . S
C957 C959 1.433 . S
C958 C954 1.350 . S
C958 C955 1.463 . S
C958 N962 1.427 . S
C959 H949 0.929 . S
C959 C957 1.433 . S
C959 N962 1.384 . S
C960 H951 0.929 . S
C960 C952 1.378 . S
C960 C955 1.350 . S
C961 H948 0.929 . S
C961 C953 1.433 . S
C961 N963 1.384 . S
N962 C958 1.427 . S
N962 C959 1.384 . S
N963 C955 1.427 . S
N963 C961 1.384 . S
C543 C127 1.812 . S
C539 C5 1.709 . S
C561 C231 1.854 . S
C557 C16 1.490 . S
C579 C151 1.556 . S
C575 C30 1.534 . S
C597 C213 1.613 . S
C593 C40 1.598 . S
C615 C287 1.676 . S
C611 C8 1.710 . S
C633 C349 1.859 . S
C629 C18 1.895 . S
C647 C29 1.581 . S
C651 C423 1.558 . S
C669 C509 1.584 . S
C665 C38 1.603 . S
C687 C305 2.639 . S
C683 C19 2.654 . S
C701 C27 1.508 . S
C705 C373 1.770 . S
C723 C447 1.305 . S
C719 C41 1.379 . S
C741 C527 1.933 . S
C737 C7 1.972 . S
C755 C52 1.485 . S
C759 C225 1.472 . S
C777 C139 1.930 . S
C773 C62 2.010 . S
C791 C74 1.558 . S
C795 C201 1.539 . S
C809 C82 1.623 . S
C813 C157 1.967 . S
C831 C453 1.718 . S
C827 C51 1.701 . S
C849 C521 1.329 . S
C845 C60 1.244 . S
C867 C299 1.841 . S
C863 C71 1.822 . S
C881 C84 2.291 . S
C885 C379 2.394 1_565 S
C903 C435 1.219 . S
C899 C63 1.218 . S
C921 C497 1.299 . S
C917 C73 1.350 . S
C939 C275 1.929 . S
C935 C85 1.985 . S
C953 C49 1.229 . S
C957 C361 1.430 . S
