# Generated by pormake.
# Topology ctn, (3,4)-cn, num edge types: 1
# Building blocks:
#     Node 0, Type 0, BuildingBlock: BETDIP_clean_linker_0, # of connection points: 3
#     Node 1, Type 0, BuildingBlock: BETDIP_clean_linker_0, # of connection points: 3
#     Node 2, Type 0, BuildingBlock: BETDIP_clean_linker_0, # of connection points: 3
#     Node 3, Type 0, BuildingBlock: BETDIP_clean_linker_0, # of connection points: 3
#     Node 4, Type 0, BuildingBlock: BETDIP_clean_linker_0, # of connection points: 3
#     Node 5, Type 0, BuildingBlock: BETDIP_clean_linker_0, # of connection points: 3
#     Node 6, Type 0, BuildingBlock: BETDIP_clean_linker_0, # of connection points: 3
#     Node 7, Type 0, BuildingBlock: BETDIP_clean_linker_0, # of connection points: 3
#     Node 8, Type 0, BuildingBlock: BETDIP_clean_linker_0, # of connection points: 3
#     Node 9, Type 0, BuildingBlock: BETDIP_clean_linker_0, # of connection points: 3
#     Node 10, Type 0, BuildingBlock: BETDIP_clean_linker_0, # of connection points: 3
#     Node 11, Type 0, BuildingBlock: BETDIP_clean_linker_0, # of connection points: 3
#     Node 12, Type 0, BuildingBlock: BETDIP_clean_linker_0, # of connection points: 3
#     Node 13, Type 0, BuildingBlock: BETDIP_clean_linker_0, # of connection points: 3
#     Node 14, Type 0, BuildingBlock: BETDIP_clean_linker_0, # of connection points: 3
#     Node 15, Type 0, BuildingBlock: BETDIP_clean_linker_0, # of connection points: 3
#     Node 16, Type 1, BuildingBlock: AZAVOO_clean_sbu_0, # of connection points: 4
#     Node 17, Type 1, BuildingBlock: AZAVOO_clean_sbu_0, # of connection points: 4
#     Node 18, Type 1, BuildingBlock: AZAVOO_clean_sbu_0, # of connection points: 4
#     Node 19, Type 1, BuildingBlock: AZAVOO_clean_sbu_0, # of connection points: 4
#     Node 20, Type 1, BuildingBlock: AZAVOO_clean_sbu_0, # of connection points: 4
#     Node 21, Type 1, BuildingBlock: AZAVOO_clean_sbu_0, # of connection points: 4
#     Node 22, Type 1, BuildingBlock: AZAVOO_clean_sbu_0, # of connection points: 4
#     Node 23, Type 1, BuildingBlock: AZAVOO_clean_sbu_0, # of connection points: 4
#     Node 24, Type 1, BuildingBlock: AZAVOO_clean_sbu_0, # of connection points: 4
#     Node 25, Type 1, BuildingBlock: AZAVOO_clean_sbu_0, # of connection points: 4
#     Node 26, Type 1, BuildingBlock: AZAVOO_clean_sbu_0, # of connection points: 4
#     Node 27, Type 1, BuildingBlock: AZAVOO_clean_sbu_0, # of connection points: 4
#     Edge 28, Type (0, 1), BuildingBlock: XIVTED_clean_linker_0, # of connection points: 2
#     Edge 29, Type (0, 1), BuildingBlock: XIVTED_clean_linker_0, # of connection points: 2
#     Edge 30, Type (0, 1), BuildingBlock: XIVTED_clean_linker_0, # of connection points: 2
#     Edge 31, Type (0, 1), BuildingBlock: XIVTED_clean_linker_0, # of connection points: 2
#     Edge 32, Type (0, 1), BuildingBlock: XIVTED_clean_linker_0, # of connection points: 2
#     Edge 33, Type (0, 1), BuildingBlock: XIVTED_clean_linker_0, # of connection points: 2
#     Edge 34, Type (0, 1), BuildingBlock: XIVTED_clean_linker_0, # of connection points: 2
#     Edge 35, Type (0, 1), BuildingBlock: XIVTED_clean_linker_0, # of connection points: 2
#     Edge 36, Type (0, 1), BuildingBlock: XIVTED_clean_linker_0, # of connection points: 2
#     Edge 37, Type (0, 1), BuildingBlock: XIVTED_clean_linker_0, # of connection points: 2
#     Edge 38, Type (0, 1), BuildingBlock: XIVTED_clean_linker_0, # of connection points: 2
#     Edge 39, Type (0, 1), BuildingBlock: XIVTED_clean_linker_0, # of connection points: 2
#     Edge 40, Type (0, 1), BuildingBlock: XIVTED_clean_linker_0, # of connection points: 2
#     Edge 41, Type (0, 1), BuildingBlock: XIVTED_clean_linker_0, # of connection points: 2
#     Edge 42, Type (0, 1), BuildingBlock: XIVTED_clean_linker_0, # of connection points: 2
#     Edge 43, Type (0, 1), BuildingBlock: XIVTED_clean_linker_0, # of connection points: 2
#     Edge 44, Type (0, 1), BuildingBlock: XIVTED_clean_linker_0, # of connection points: 2
#     Edge 45, Type (0, 1), BuildingBlock: XIVTED_clean_linker_0, # of connection points: 2
#     Edge 46, Type (0, 1), BuildingBlock: XIVTED_clean_linker_0, # of connection points: 2
#     Edge 47, Type (0, 1), BuildingBlock: XIVTED_clean_linker_0, # of connection points: 2
#     Edge 48, Type (0, 1), BuildingBlock: XIVTED_clean_linker_0, # of connection points: 2
#     Edge 49, Type (0, 1), BuildingBlock: XIVTED_clean_linker_0, # of connection points: 2
#     Edge 50, Type (0, 1), BuildingBlock: XIVTED_clean_linker_0, # of connection points: 2
#     Edge 51, Type (0, 1), BuildingBlock: XIVTED_clean_linker_0, # of connection points: 2
#     Edge 52, Type (0, 1), BuildingBlock: XIVTED_clean_linker_0, # of connection points: 2
#     Edge 53, Type (0, 1), BuildingBlock: XIVTED_clean_linker_0, # of connection points: 2
#     Edge 54, Type (0, 1), BuildingBlock: XIVTED_clean_linker_0, # of connection points: 2
#     Edge 55, Type (0, 1), BuildingBlock: XIVTED_clean_linker_0, # of connection points: 2
#     Edge 56, Type (0, 1), BuildingBlock: XIVTED_clean_linker_0, # of connection points: 2
#     Edge 57, Type (0, 1), BuildingBlock: XIVTED_clean_linker_0, # of connection points: 2
#     Edge 58, Type (0, 1), BuildingBlock: XIVTED_clean_linker_0, # of connection points: 2
#     Edge 59, Type (0, 1), BuildingBlock: XIVTED_clean_linker_0, # of connection points: 2
#     Edge 60, Type (0, 1), BuildingBlock: XIVTED_clean_linker_0, # of connection points: 2
#     Edge 61, Type (0, 1), BuildingBlock: XIVTED_clean_linker_0, # of connection points: 2
#     Edge 62, Type (0, 1), BuildingBlock: XIVTED_clean_linker_0, # of connection points: 2
#     Edge 63, Type (0, 1), BuildingBlock: XIVTED_clean_linker_0, # of connection points: 2
#     Edge 64, Type (0, 1), BuildingBlock: XIVTED_clean_linker_0, # of connection points: 2
#     Edge 65, Type (0, 1), BuildingBlock: XIVTED_clean_linker_0, # of connection points: 2
#     Edge 66, Type (0, 1), BuildingBlock: XIVTED_clean_linker_0, # of connection points: 2
#     Edge 67, Type (0, 1), BuildingBlock: XIVTED_clean_linker_0, # of connection points: 2
#     Edge 68, Type (0, 1), BuildingBlock: XIVTED_clean_linker_0, # of connection points: 2
#     Edge 69, Type (0, 1), BuildingBlock: XIVTED_clean_linker_0, # of connection points: 2
#     Edge 70, Type (0, 1), BuildingBlock: XIVTED_clean_linker_0, # of connection points: 2
#     Edge 71, Type (0, 1), BuildingBlock: XIVTED_clean_linker_0, # of connection points: 2
#     Edge 72, Type (0, 1), BuildingBlock: XIVTED_clean_linker_0, # of connection points: 2
#     Edge 73, Type (0, 1), BuildingBlock: XIVTED_clean_linker_0, # of connection points: 2
#     Edge 74, Type (0, 1), BuildingBlock: XIVTED_clean_linker_0, # of connection points: 2
#     Edge 75, Type (0, 1), BuildingBlock: XIVTED_clean_linker_0, # of connection points: 2
# Relax obj value: 0.067
# Max RMSD: 0.204
# Mean RMSD: 0.114
data_MOF--net-ctn--node1-AZAVOO_clean_sbu_0--node2-BETDIP_clean_linker_0--edge1-XIVTED_clean_linker_0
_symmetry_space_group_name_H-M    P1
_symmetry_Int_Tables_number       1
_symmetry_cell_setting            triclinic
loop_
_symmetry_equiv_pos_as_xyz
'x, y, z'
_cell_length_a     51.643179
_cell_length_b     52.971899
_cell_length_c     58.002099
_cell_angle_alpha  93.506291
_cell_angle_beta   96.759859
_cell_angle_gamma 96.19269
loop_
_atom_site_label
_atom_site_type_symbol
_atom_site_fract_x
_atom_site_fract_y
_atom_site_fract_z
_atom_type_partial_charge
H0 H 0.01038 0.04291 0.03128 0.0
H1 H 0.06125 0.00671 0.98991 0.0
H2 H 0.05693 0.98684 0.0601 0.0
H3 H 0.04784 0.03041 0.9624 0.0
C4 C 0.03805 0.04555 0.9697 0.0
C5 C 0.02456 0.02945 0.02974 0.0
C6 C 0.03237 0.01541 0.04864 0.0
C7 C 0.03511 0.0269 0.00875 0.0
C8 C 0.05313 0.0092 0.00611 0.0
C9 C 0.06066 0.99426 0.02441 0.0
C10 C 0.05031 0.99757 0.04568 0.0
N11 N 0.02812 0.04368 0.99144 0.0
H12 H 0.27922 0.6974 0.20652 0.0
H13 H 0.34897 0.74543 0.23632 0.0
H14 H 0.32338 0.67786 0.26905 0.0
H15 H 0.32722 0.77582 0.2153 0.0
C16 C 0.31995 0.76408 0.19936 0.0
C17 C 0.29558 0.70168 0.22023 0.0
C18 C 0.29894 0.68531 0.23811 0.0
C19 C 0.31337 0.72336 0.21953 0.0
C20 C 0.33496 0.72882 0.23693 0.0
C21 C 0.33869 0.7125 0.255 0.0
C22 C 0.32058 0.69073 0.25537 0.0
N23 N 0.30969 0.73826 0.2002 0.0
H24 H 0.94694 0.51576 0.01629 0.0
H25 H 0.00812 0.4813 0.05427 0.0
H26 H 0.9651 0.53308 0.09043 0.0
H27 H 0.02391 0.4873 0.0156 0.0
C28 C 0.00597 0.47582 0.00772 0.0
C29 C 0.95817 0.5132 0.03281 0.0
C30 C 0.95387 0.52689 0.05328 0.0
C31 C 0.9778 0.49704 0.03313 0.0
C32 C 0.99291 0.49385 0.05423 0.0
C33 C 0.98837 0.50644 0.07519 0.0
C34 C 0.96892 0.52322 0.07449 0.0
N35 N 0.98132 0.48321 0.01223 0.0
H36 H 0.70036 0.81748 0.19274 0.0
H37 H 0.74219 0.88029 0.23774 0.0
H38 H 0.77045 0.85794 0.17384 0.0
H39 H 0.70784 0.87767 0.2567 0.0
C40 C 0.6965 0.85916 0.25262 0.0
C41 C 0.71637 0.83275 0.19635 0.0
C42 C 0.73498 0.83609 0.18072 0.0
C43 C 0.71825 0.84891 0.2167 0.0
C44 C 0.73955 0.86831 0.22169 0.0
C45 C 0.75857 0.87146 0.20633 0.0
C46 C 0.7558 0.8556 0.18573 0.0
N47 N 0.69911 0.84401 0.23211 0.0
H48 H 0.02692 0.98249 0.45461 0.0
H49 H 0.08921 0.01297 0.50801 0.0
H50 H 0.07149 0.05445 0.44777 0.0
H51 H 0.06363 0.98705 0.53067 0.0
C52 C 0.05836 0.97029 0.51859 0.0
C53 C 0.04223 0.99763 0.46141 0.0
C54 C 0.04703 0.01902 0.44871 0.0
C55 C 0.05689 0.99552 0.48295 0.0
C56 C 0.07718 0.0148 0.49175 0.0
C57 C 0.08237 0.03627 0.47918 0.0
C58 C 0.067 0.03833 0.45786 0.0
N59 N 0.05175 0.97294 0.49445 0.0
H60 H 0.20476 0.73137 0.78888 0.0
H61 H 0.24703 0.68653 0.74523 0.0
H62 H 0.27667 0.70451 0.8173 0.0
H63 H 0.22204 0.69977 0.71607 0.0
C64 C 0.20452 0.70592 0.7222 0.0
C65 C 0.22158 0.72127 0.78671 0.0
C66 C 0.24044 0.71942 0.80583 0.0
C67 C 0.22382 0.70981 0.76475 0.0
C68 C 0.24516 0.69591 0.76193 0.0
C69 C 0.26442 0.69405 0.78084 0.0
C70 C 0.26193 0.70595 0.80266 0.0
N71 N 0.2038 0.71233 0.74626 0.0
H72 H 0.98686 0.54724 0.46118 0.0
H73 H 0.94474 0.47294 0.44354 0.0
H74 H 0.92157 0.52219 0.49723 0.0
H75 H 0.96252 0.47596 0.40987 0.0
C76 C 0.98118 0.48779 0.41426 0.0
C77 C 0.97089 0.53306 0.46372 0.0
C78 C 0.95442 0.5378 0.48072 0.0
C79 C 0.96731 0.51005 0.44997 0.0
C80 C 0.94732 0.49107 0.45366 0.0
C81 C 0.93076 0.49531 0.47079 0.0
C82 C 0.93431 0.51881 0.48407 0.0
N83 N 0.98494 0.50655 0.43331 0.0
H84 H 0.78926 0.80899 0.753 0.0
H85 H 0.82567 0.75835 0.79831 0.0
H86 H 0.75127 0.78283 0.81057 0.0
H87 H 0.85843 0.76205 0.77626 0.0
C88 C 0.85395 0.77396 0.76211 0.0
C89 C 0.78859 0.79746 0.76778 0.0
C90 C 0.76734 0.79722 0.78076 0.0
C91 C 0.80967 0.78373 0.77387 0.0
C92 C 0.80962 0.76923 0.79344 0.0
C93 C 0.78842 0.76865 0.80677 0.0
C94 C 0.76744 0.78278 0.80025 0.0
N95 N 0.83031 0.78554 0.75966 0.0
H96 H 0.29152 0.3033 0.25769 0.0
H97 H 0.32948 0.25985 0.30908 0.0
H98 H 0.25633 0.28738 0.31966 0.0
H99 H 0.35393 0.24972 0.28192 0.0
C100 C 0.35287 0.26324 0.26863 0.0
C101 C 0.29132 0.29417 0.27389 0.0
C102 C 0.27118 0.29723 0.28779 0.0
C103 C 0.31201 0.2802 0.28097 0.0
C104 C 0.31298 0.2695 0.30268 0.0
C105 C 0.29315 0.27253 0.31693 0.0
C106 C 0.27203 0.28575 0.309 0.0
N107 N 0.33199 0.27868 0.26617 0.0
H108 H 0.45355 0.00185 0.50897 0.0
H109 H 0.52129 0.97674 0.54654 0.0
H110 H 0.4837 0.03642 0.5776 0.0
H111 H 0.53171 0.9748 0.50615 0.0
C112 C 0.51339 0.96286 0.50016 0.0
C113 C 0.46783 0.00365 0.52441 0.0
C114 C 0.46604 0.02143 0.54305 0.0
C115 C 0.48814 0.98817 0.52533 0.0
C116 C 0.50628 0.98957 0.54547 0.0
C117 C 0.50455 0.0066 0.5646 0.0
C118 C 0.48446 0.0226 0.56321 0.0
N119 N 0.48938 0.97053 0.50619 0.0
H120 H 0.20618 0.3073 0.69988 0.0
H121 H 0.2413 0.37562 0.74096 0.0
H122 H 0.28478 0.33854 0.69287 0.0
H123 H 0.20519 0.37357 0.75746 0.0
C124 C 0.19214 0.35648 0.75127 0.0
C125 C 0.22268 0.32186 0.70475 0.0
C126 C 0.24587 0.32049 0.69469 0.0
C127 C 0.22078 0.34138 0.72165 0.0
C128 C 0.24226 0.36031 0.72803 0.0
C129 C 0.26555 0.3593 0.71778 0.0
C130 C 0.26716 0.33921 0.70127 0.0
N131 N 0.19727 0.34041 0.73222 0.0
H132 H 0.79215 0.1932 0.70406 0.0
H133 H 0.85792 0.2465 0.7337 0.0
H134 H 0.8283 0.18615 0.77357 0.0
H135 H 0.83578 0.27266 0.70857 0.0
C136 C 0.82934 0.25972 0.69322 0.0
C137 C 0.80701 0.19986 0.71859 0.0
C138 C 0.80785 0.18745 0.73925 0.0
C139 C 0.82449 0.22143 0.71669 0.0
C140 C 0.84393 0.23016 0.73534 0.0
C141 C 0.8456 0.21745 0.756 0.0
C142 C 0.82713 0.19634 0.75791 0.0
N143 N 0.82219 0.23346 0.69552 0.0
H144 H 0.49874 0.52611 0.52783 0.0
H145 H 0.55482 0.49795 0.48696 0.0
H146 H 0.55774 0.48248 0.55893 0.0
H147 H 0.53356 0.51504 0.45743 0.0
C148 C 0.52411 0.53014 0.46529 0.0
C149 C 0.51538 0.51548 0.52665 0.0
C150 C 0.52707 0.50487 0.54638 0.0
C151 C 0.52529 0.5134 0.50531 0.0
C152 C 0.54654 0.49935 0.50319 0.0
C153 C 0.55801 0.48769 0.52235 0.0
C154 C 0.54839 0.49079 0.54398 0.0
N155 N 0.51479 0.5277 0.48723 0.0
H156 H 0.52461 0.4864 0.95854 0.0
H157 H 0.58536 0.51979 0.01252 0.0
H158 H 0.57453 0.5536 0.94716 0.0
H159 H 0.58528 0.47822 0.0206 0.0
C160 C 0.56469 0.47056 0.018 0.0
C161 C 0.54039 0.50127 0.96487 0.0
C162 C 0.54793 0.52018 0.95028 0.0
C163 C 0.55427 0.50046 0.98708 0.0
C164 C 0.57505 0.51961 0.99514 0.0
C165 C 0.58213 0.53911 0.98094 0.0
C166 C 0.56864 0.53906 0.95849 0.0
N167 N 0.54716 0.47991 0.00062 0.0
H168 H 0.6978 0.23464 0.28408 0.0
H169 H 0.73142 0.18328 0.23899 0.0
H170 H 0.76972 0.20476 0.30813 0.0
H171 H 0.70746 0.19962 0.21101 0.0
C172 C 0.69025 0.20557 0.21788 0.0
C173 C 0.71305 0.22268 0.28125 0.0
C174 C 0.7338 0.2213 0.29896 0.0
C175 C 0.71219 0.20952 0.25945 0.0
C176 C 0.73217 0.19427 0.25543 0.0
C177 C 0.7531 0.19259 0.2729 0.0
C178 C 0.75363 0.20602 0.29463 0.0
N179 N 0.6909 0.2121 0.24211 0.0
H180 H 0.47384 0.05654 0.94685 0.0
H181 H 0.43528 0.98063 0.93023 0.0
H182 H 0.41406 0.02666 0.98701 0.0
H183 H 0.45314 0.984 0.89647 0.0
C184 C 0.47132 0.99655 0.90102 0.0
C185 C 0.45946 0.04132 0.95048 0.0
C186 C 0.44417 0.04475 0.96868 0.0
C187 C 0.45645 0.01844 0.93655 0.0
C188 C 0.43763 0.99854 0.94068 0.0
C189 C 0.42187 0.00166 0.95862 0.0
C190 C 0.4254 0.02472 0.97257 0.0
N191 N 0.47373 0.01597 0.91942 0.0
Mg192 Mg 0.23376 0.8385 0.00958 0.0
O193 O 0.2709 0.86348 0.00234 0.0
O194 O 0.30347 0.83875 0.00553 0.0
Mg195 Mg 0.2883 0.79942 0.01576 0.0
C196 C 0.29489 0.85996 0.00137 0.0
C197 C 0.1845 0.86278 0.00538 0.0
O198 O 0.18031 0.8416 0.01574 0.0
O199 O 0.23133 0.81772 0.97314 0.0
O200 O 0.26315 0.79262 0.98034 0.0
O201 O 0.24274 0.84921 0.04798 0.0
O202 O 0.25648 0.81629 0.02999 0.0
C203 C 0.24444 0.79987 0.96684 0.0
C204 C 0.25632 0.83008 0.04896 0.0
O205 O 0.20656 0.86779 0.99791 0.0
Mg206 Mg 0.14905 0.49151 0.26485 0.0
O207 O 0.121 0.49023 0.23074 0.0
O208 O 0.14573 0.48797 0.20166 0.0
Mg209 Mg 0.18897 0.49076 0.2168 0.0
C210 C 0.12347 0.4886 0.20906 0.0
C211 C 0.11992 0.49084 0.30677 0.0
O212 O 0.14331 0.50297 0.31396 0.0
O213 O 0.15553 0.44966 0.25897 0.0
O214 O 0.18222 0.45147 0.23125 0.0
O215 O 0.1544 0.53394 0.26618 0.0
O216 O 0.17966 0.50926 0.24931 0.0
C217 C 0.16997 0.4391 0.24569 0.0
C218 C 0.17392 0.53183 0.25436 0.0
O219 O 0.11486 0.4822 0.2856 0.0
Mg220 Mg 0.79521 0.69859 0.01877 0.0
O221 O 0.7544 0.67473 0.01352 0.0
O222 O 0.72486 0.70246 0.00826 0.0
Mg223 Mg 0.74567 0.74256 0.00838 0.0
C224 C 0.73061 0.67977 0.01016 0.0
C225 C 0.83719 0.66564 0.03159 0.0
O226 O 0.84362 0.6875 0.04398 0.0
O227 O 0.79311 0.70298 0.97948 0.0
O228 O 0.76267 0.72997 0.97521 0.0
O229 O 0.79201 0.70451 0.05662 0.0
O230 O 0.77863 0.73046 0.03048 0.0
C231 C 0.7788 0.71634 0.96682 0.0
C232 C 0.78028 0.72424 0.05167 0.0
O233 O 0.81639 0.66298 0.01711 0.0
Mg234 Mg 0.9461 0.0601 0.23949 0.0
O235 O 0.91745 0.02333 0.23283 0.0
O236 O 0.94085 0.99101 0.22664 0.0
Mg237 Mg 0.98413 0.00661 0.22947 0.0
C238 C 0.91898 -0.00036 0.22848 0.0
C239 C 0.90577 0.09911 0.23952 0.0
O240 O 0.9179 0.10463 0.22148 0.0
O241 O 0.95924 0.04892 0.27624 0.0
O242 O 0.98293 0.01727 0.26826 0.0
O243 O 0.94344 0.06512 0.20129 0.0
O244 O 0.9726 0.04366 0.21984 0.0
C245 C 0.97367 0.03188 0.2828 0.0
C246 C 0.96236 0.05111 0.20046 0.0
O247 O 0.91315 0.08141 0.25172 0.0
Mg248 Mg 0.30065 0.18976 0.52608 0.0
O249 O 0.25984 0.16605 0.51848 0.0
O250 O 0.23062 0.19438 0.51705 0.0
Mg251 Mg 0.25127 0.23483 0.52362 0.0
C252 C 0.23614 0.17144 0.51582 0.0
C253 C 0.3394 0.15248 0.53612 0.0
O254 O 0.34256 0.16941 0.55403 0.0
O255 O 0.29807 0.20088 0.48805 0.0
O256 O 0.26984 0.22982 0.49009 0.0
O257 O 0.29842 0.18962 0.56445 0.0
O258 O 0.28393 0.2191 0.54281 0.0
C259 C 0.28521 0.21789 0.47891 0.0
C260 C 0.28661 0.20983 0.56282 0.0
O261 O 0.32234 0.15505 0.51896 0.0
Mg262 Mg 0.44647 0.55189 0.73936 0.0
O263 O 0.41977 0.51402 0.73414 0.0
O264 O 0.44482 0.48292 0.72837 0.0
Mg265 Mg 0.48715 0.50084 0.72846 0.0
C266 C 0.42253 0.49048 0.73064 0.0
C267 C 0.41636 0.59496 0.75916 0.0
O268 O 0.43991 0.60748 0.76019 0.0
O269 O 0.46185 0.54171 0.77598 0.0
O270 O 0.48838 0.51276 0.76732 0.0
O271 O 0.4415 0.55644 0.70108 0.0
O272 O 0.4728 0.53677 0.7188 0.0
C273 C 0.47861 0.52654 0.78216 0.0
C274 C 0.46115 0.54344 0.69964 0.0
O275 O 0.41294 0.57145 0.75228 0.0
Mg276 Mg 0.73141 0.33479 0.506 0.0
O277 O 0.77013 0.36012 0.50316 0.0
O278 O 0.80234 0.33505 0.50705 0.0
Mg279 Mg 0.78504 0.29446 0.51115 0.0
C280 C 0.79439 0.35675 0.50403 0.0
C281 C 0.70972 0.38654 0.50906 0.0
O282 O 0.72927 0.3894 0.52603 0.0
O283 O 0.73142 0.31826 0.46843 0.0
O284 O 0.76434 0.29414 0.47394 0.0
O285 O 0.73792 0.34132 0.5448 0.0
O286 O 0.75207 0.30973 0.52513 0.0
C287 C 0.74637 0.30285 0.46068 0.0
C288 C 0.75126 0.32203 0.54479 0.0
O289 O 0.7065 0.36637 0.49546 0.0
Mg290 Mg 0.65148 0.99607 0.76341 0.0
O291 O 0.62859 0.99658 0.72661 0.0
O292 O 0.6588 0.99651 0.70198 0.0
Mg293 Mg 0.69957 0.99657 0.72181 0.0
C294 C 0.63502 0.99674 0.70596 0.0
C295 C 0.61729 0.99382 0.80137 0.0
O296 O 0.64073 0.00423 0.8107 0.0
O297 O 0.65722 0.95416 0.75727 0.0
O298 O 0.68826 0.95657 0.73341 0.0
O299 O 0.65805 0.03852 0.76702 0.0
O300 O 0.68513 0.01427 0.75227 0.0
C301 C 0.67319 0.94376 0.74553 0.0
C302 C 0.67923 0.03677 0.75739 0.0
O303 O 0.61391 0.98669 0.77979 0.0
Mg304 Mg 0.05675 0.26602 0.90427 0.0
O305 O 0.0157 0.25779 0.88328 0.0
O306 O 0.98805 0.24226 0.90725 0.0
Mg307 Mg 0.01103 0.24105 0.94317 0.0
C308 C 0.99273 0.24905 0.88725 0.0
C309 C 0.06943 0.28011 0.85486 0.0
O310 O 0.05679 0.25728 0.84923 0.0
O311 O 0.04437 0.30121 0.92207 0.0
O312 O 0.01698 0.28503 0.94594 0.0
O313 O 0.06471 0.22649 0.89517 0.0
O314 O 0.04679 0.23814 0.92636 0.0
C315 C 0.02904 0.30401 0.9375 0.0
C316 C 0.05383 0.22016 0.91332 0.0
O317 O 0.0719 0.28916 0.8759 0.0
Mg318 Mg 0.55648 0.74926 0.39692 0.0
O319 O 0.51509 0.74148 0.37629 0.0
O320 O 0.48765 0.72824 0.40135 0.0
Mg321 Mg 0.51062 0.72796 0.4373 0.0
C322 C 0.49206 0.73379 0.38094 0.0
C323 C 0.58894 0.78955 0.37221 0.0
O324 O 0.59549 0.79787 0.39415 0.0
O325 O 0.54526 0.786 0.41342 0.0
O326 O 0.51806 0.77163 0.43821 0.0
O327 O 0.56293 0.70869 0.38968 0.0
O328 O 0.54579 0.72308 0.42035 0.0
C329 C 0.5303 0.78989 0.42898 0.0
C330 C 0.55198 0.70399 0.40817 0.0
O331 O 0.57231 0.7699 0.36722 0.0
Mg332 Mg 0.99201 0.75046 0.59515 0.0
O333 O 0.03174 0.74046 0.61194 0.0
O334 O 0.05489 0.7294 0.5835 0.0
Mg335 Mg 0.03002 0.73218 0.54858 0.0
C336 C 0.05251 0.73312 0.60507 0.0
C337 C 0.96241 0.77756 0.63053 0.0
O338 O 0.94976 0.78229 0.61054 0.0
O339 O 0.01159 0.78885 0.58572 0.0
O340 O 0.03201 0.77547 0.5561 0.0
O341 O 0.97511 0.70967 0.59376 0.0
O342 O 0.99425 0.72687 0.56547 0.0
C343 C 0.0255 0.79339 0.56925 0.0
C344 C 0.98326 0.70692 0.5736 0.0
O345 O 0.98282 0.76616 0.63039 0.0
Mg346 Mg 0.47787 0.25302 0.09008 0.0
O347 O 0.51703 0.24227 0.10827 0.0
O348 O 0.54177 0.23289 0.08051 0.0
Mg349 Mg 0.51948 0.23817 0.04516 0.0
C350 C 0.53821 0.23528 0.10191 0.0
C351 C 0.46649 0.25213 0.14109 0.0
O352 O 0.47572 0.23023 0.13765 0.0
O353 O 0.49811 0.29201 0.08331 0.0
O354 O 0.52219 0.28111 0.05542 0.0
O355 O 0.46039 0.21247 0.08625 0.0
O356 O 0.48248 0.23067 0.06013 0.0
C357 C 0.51421 0.29787 0.06884 0.0
C358 C 0.47039 0.2104 0.06689 0.0
O359 O 0.46606 0.26732 0.12492 0.0
H360 H 0.2252 0.76638 0.8172 0.0
H361 H 0.25306 0.75187 0.95378 0.0
H362 H 0.24867 0.69881 0.84775 0.0
H363 H 0.22316 0.81829 0.9261 0.0
H364 H 0.24882 0.73167 0.91464 0.0
H365 H 0.22187 0.7853 0.85626 0.0
C366 C 0.22946 0.75545 0.83209 0.0
C367 C 0.2375 0.73105 0.82921 0.0
C368 C 0.24298 0.75059 0.91698 0.0
C369 C 0.23384 0.75262 0.87386 0.0
C370 C 0.24542 0.76218 0.9394 0.0
C371 C 0.2387 0.78693 0.94319 0.0
C372 C 0.23402 0.76386 0.89798 0.0
C373 C 0.22858 0.7992 0.92391 0.0
C374 C 0.22761 0.76629 0.85436 0.0
C375 C 0.24294 0.71785 0.84913 0.0
N376 N 0.22684 0.78764 0.90203 0.0
N377 N 0.24111 0.72883 0.87053 0.0
H378 H 0.97764 0.46036 0.3724 0.0
H379 H 0.12495 0.50922 0.35219 0.0
H380 H 0.03146 0.51195 0.42062 0.0
H381 H 0.06914 0.46719 0.29841 0.0
H382 H 0.0916 0.50695 0.37854 0.0
H383 H 0.01153 0.45932 0.34605 0.0
C384 C 0.9966 0.47138 0.37744 0.0
C385 C 0.0017 0.48636 0.39861 0.0
C386 C 0.08658 0.49816 0.361 0.0
C387 C 0.04045 0.48523 0.36878 0.0
C388 C 0.10567 0.49941 0.3459 0.0
C389 C 0.09982 0.48847 0.32298 0.0
C390 C 0.06135 0.48583 0.35323 0.0
C391 C 0.07448 0.47597 0.31591 0.0
C392 C 0.01588 0.47082 0.36242 0.0
C393 C 0.02656 0.50026 0.4044 0.0
N394 N 0.05612 0.47502 0.33098 0.0
N395 N 0.04496 0.49935 0.38957 0.0
H396 H 0.74688 0.74 0.82138 0.0
H397 H 0.82282 0.71414 0.94459 0.0
H398 H 0.82951 0.76432 0.84071 0.0
H399 H 0.73994 0.72087 0.93206 0.0
H400 H 0.82643 0.72175 0.90353 0.0
H401 H 0.74523 0.72185 0.85891 0.0
C402 C 0.76474 0.74142 0.83346 0.0
C403 C 0.78825 0.75424 0.82803 0.0
C404 C 0.80744 0.7212 0.90979 0.0
C405 C 0.78653 0.73306 0.87098 0.0
C406 C 0.80534 0.71671 0.9331 0.0
C407 C 0.78108 0.7171 0.9417 0.0
C408 C 0.78501 0.72554 0.89503 0.0
C409 C 0.75906 0.72069 0.92618 0.0
C410 C 0.76378 0.73095 0.85484 0.0
C411 C 0.81093 0.7547 0.84413 0.0
N412 N 0.76156 0.7248 0.90364 0.0
N413 N 0.80947 0.74451 0.86501 0.0
H414 H 0.02669 0.06036 0.43031 0.0
H415 H 0.99229 0.99106 0.30271 0.0
H416 H 0.03438 0.98122 0.41362 0.0
H417 H 0.97111 0.06589 0.32018 0.0
H418 H 0.00697 0.98724 0.34361 0.0
H419 H 0.00568 0.06302 0.39051 0.0
C420 C 0.02385 0.04352 0.4183 0.0
C421 C 0.03239 0.02054 0.42528 0.0
C422 C 0.99896 0.00446 0.3386 0.0
C423 C 0.00839 0.02346 0.37979 0.0
C424 C 0.99062 0.0067 0.31518 0.0
C425 C 0.98062 0.02893 0.30793 0.0
C426 C 0.99764 0.0247 0.35504 0.0
C427 C 0.97871 0.04842 0.32498 0.0
C428 C 0.01175 0.04503 0.39565 0.0
C429 C 0.02792 0.99926 0.4091 0.0
N430 N 0.98741 0.04596 0.34774 0.0
N431 N 0.01644 0.0013 0.3871 0.0
H432 H 0.2123 0.30551 0.6551 0.0
H433 H 0.30079 0.20323 0.60871 0.0
H434 H 0.28431 0.2891 0.69381 0.0
H435 H 0.25032 0.24403 0.56356 0.0
H436 H 0.28765 0.22653 0.64244 0.0
H437 H 0.21882 0.27453 0.62369 0.0
C438 C 0.22924 0.29506 0.6571 0.0
C439 C 0.24794 0.29992 0.67687 0.0
C440 C 0.27931 0.23012 0.62509 0.0
C441 C 0.25546 0.26466 0.64129 0.0
C442 C 0.2867 0.21682 0.60586 0.0
C443 C 0.27684 0.22188 0.58323 0.0
C444 C 0.26164 0.24829 0.62162 0.0
C445 C 0.25867 0.23968 0.58057 0.0
C446 C 0.23302 0.27755 0.63919 0.0
C447 C 0.26964 0.28603 0.67866 0.0
N448 N 0.25168 0.25228 0.59954 0.0
N449 N 0.27287 0.26905 0.66103 0.0
H450 H 0.5242 0.47273 0.58213 0.0
H451 H 0.44664 0.56207 0.65778 0.0
H452 H 0.50827 0.54787 0.56368 0.0
H453 H 0.49533 0.50908 0.68937 0.0
H454 H 0.46241 0.55198 0.62052 0.0
H455 H 0.50788 0.48122 0.61953 0.0
C456 C 0.51741 0.491 0.58585 0.0
C457 C 0.51748 0.50948 0.56943 0.0
C458 C 0.46954 0.54251 0.63564 0.0
C459 C 0.49813 0.51893 0.61198 0.0
C460 C 0.46047 0.54816 0.65688 0.0
C461 C 0.46965 0.53641 0.6768 0.0
C462 C 0.48761 0.52467 0.63416 0.0
C463 C 0.48766 0.51859 0.67455 0.0
C464 C 0.50796 0.49574 0.60717 0.0
C465 C 0.508 0.53267 0.57532 0.0
N466 N 0.49598 0.51317 0.65359 0.0
N467 N 0.49857 0.53663 0.59596 0.0
H468 H 0.81995 0.23413 0.65021 0.0
H469 H 0.76069 0.3486 0.5876 0.0
H470 H 0.82238 0.30884 0.68499 0.0
H471 H 0.77485 0.2789 0.55113 0.0
H472 H 0.78329 0.33498 0.62348 0.0
H473 H 0.80384 0.25073 0.61364 0.0
C474 C 0.81722 0.25411 0.65009 0.0
C475 C 0.82222 0.27015 0.67063 0.0
C476 C 0.78164 0.32281 0.60755 0.0
C477 C 0.80357 0.28927 0.62884 0.0
C478 C 0.76867 0.33052 0.58711 0.0
C479 C 0.76585 0.31483 0.56637 0.0
C480 C 0.79158 0.29915 0.60724 0.0
C481 C 0.77665 0.29166 0.56669 0.0
C482 C 0.80807 0.26361 0.62919 0.0
C483 C 0.81864 0.29591 0.66946 0.0
N484 N 0.78885 0.28445 0.58682 0.0
N485 N 0.80921 0.30466 0.64892 0.0
H486 H 0.55761 0.0059 0.56711 0.0
H487 H 0.58202 0.0006 0.70579 0.0
H488 H 0.49547 0.00892 0.61049 0.0
H489 H 0.64182 0.99636 0.65997 0.0
H490 H 0.54986 0.00441 0.67182 0.0
H491 H 0.58872 0.0037 0.60168 0.0
C492 C 0.55051 0.0061 0.58396 0.0
C493 C 0.52384 0.00738 0.58587 0.0
C494 C 0.57004 0.00263 0.66928 0.0
C495 C 0.55952 0.00493 0.62577 0.0
C496 C 0.5884 0.00038 0.68865 0.0
C497 C 0.61474 0.99815 0.68582 0.0
C498 C 0.5781 0.00265 0.64696 0.0
C499 C 0.62182 0.99805 0.66315 0.0
C500 C 0.56831 0.0049 0.60375 0.0
C501 C 0.51588 0.00807 0.60823 0.0
N502 N 0.60368 0.00028 0.64471 0.0
N503 N 0.53362 0.00669 0.62733 0.0
H504 H 0.89753 0.23239 0.75274 0.0
H505 H 0.94048 0.23599 0.88991 0.0
H506 H 0.84296 0.22032 0.80304 0.0
H507 H 0.99464 0.25631 0.8409 0.0
H508 H 0.90455 0.2308 0.8582 0.0
H509 H 0.93323 0.2424 0.78464 0.0
C510 C 0.89298 0.23216 0.77049 0.0
C511 C 0.86718 0.22538 0.7752 0.0
C512 C 0.92426 0.23649 0.85436 0.0
C513 C 0.90808 0.23638 0.81181 0.0
C514 C 0.94486 0.2394 0.87248 0.0
C515 C 0.97072 0.24649 0.8681 0.0
C516 C 0.92946 0.24053 0.83158 0.0
C517 C 0.97506 0.25078 0.84512 0.0
C518 C 0.91342 0.23771 0.7887 0.0
C519 C 0.86258 0.22502 0.79856 0.0
N520 N 0.95465 0.2476 0.8277 0.0
N521 N 0.88283 0.2303 0.81596 0.0
H522 H 0.47343 0.92401 0.48806 0.0
H523 H 0.56162 0.83392 0.42366 0.0
H524 H 0.55503 0.94626 0.48186 0.0
H525 H 0.49127 0.80604 0.45209 0.0
H526 H 0.55643 0.87718 0.43854 0.0
H527 H 0.47661 0.88255 0.46826 0.0
C528 C 0.49195 0.92026 0.48231 0.0
C529 C 0.51408 0.93848 0.48663 0.0
C530 C 0.54212 0.86155 0.44141 0.0
C531 C 0.51781 0.89119 0.46403 0.0
C532 C 0.54501 0.8369 0.43288 0.0
C533 C 0.52697 0.81631 0.43681 0.0
C534 C 0.52085 0.86563 0.45364 0.0
C535 C 0.50581 0.82129 0.44887 0.0
C536 C 0.49377 0.89657 0.47111 0.0
C537 C 0.53758 0.93261 0.47888 0.0
N538 N 0.50333 0.84543 0.45683 0.0
N539 N 0.53887 0.90942 0.46795 0.0
H540 H 0.1807 0.37879 0.79179 0.0
H541 H 0.0709 0.26519 0.80903 0.0
H542 H 0.15431 0.31543 0.74113 0.0
H543 H 0.0994 0.32651 0.86137 0.0
H544 H 0.0975 0.28621 0.78206 0.0
H545 H 0.14729 0.36279 0.81571 0.0
C546 C 0.1677 0.36166 0.78563 0.0
C547 C 0.17044 0.34829 0.76463 0.0
C548 C 0.09778 0.29518 0.79939 0.0
C549 C 0.13234 0.32982 0.79179 0.0
C550 C 0.08256 0.28319 0.81479 0.0
C551 C 0.08315 0.29394 0.83759 0.0
C552 C 0.11378 0.31807 0.80683 0.0
C553 C 0.09851 0.3174 0.84403 0.0
C554 C 0.14868 0.35251 0.79927 0.0
C555 C 0.15309 0.32624 0.75733 0.0
N556 N 0.11339 0.32856 0.82879 0.0
N557 N 0.13491 0.31761 0.77098 0.0
H558 H 0.50316 0.57284 0.48004 0.0
H559 H 0.55985 0.65933 0.38481 0.0
H560 H 0.54548 0.5435 0.42637 0.0
H561 H 0.53017 0.68854 0.44641 0.0
H562 H 0.55022 0.61601 0.39664 0.0
H563 H 0.50767 0.61447 0.46438 0.0
C564 C 0.51325 0.57509 0.46481 0.0
C565 C 0.52419 0.55475 0.45456 0.0
C566 C 0.54569 0.63194 0.40745 0.0
C567 C 0.52956 0.60252 0.43661 0.0
C568 C 0.55117 0.65666 0.40073 0.0
C569 C 0.5457 0.67763 0.41459 0.0
C570 C 0.53458 0.62822 0.42813 0.0
C571 C 0.53449 0.67303 0.43503 0.0
C572 C 0.51588 0.59893 0.45591 0.0
C573 C 0.53687 0.55879 0.43479 0.0
N574 N 0.52933 0.64887 0.44117 0.0
N575 N 0.53937 0.5823 0.4265 0.0
H576 H 0.85006 0.8037 0.72502 0.0
H577 H 0.97653 0.75997 0.67332 0.0
H578 H 0.89957 0.75279 0.75891 0.0
H579 H 0.92071 0.80357 0.63723 0.0
H580 H 0.95234 0.76161 0.70717 0.0
H581 H 0.87918 0.80793 0.69513 0.0
C582 C 0.86713 0.79342 0.72625 0.0
C583 C 0.87227 0.77763 0.74443 0.0
C584 C 0.94556 0.77101 0.69192 0.0
C585 C 0.90587 0.78247 0.71002 0.0
C586 C 0.95943 0.77022 0.67262 0.0
C587 C 0.9505 0.78148 0.6523 0.0
C588 C 0.92267 0.78324 0.69091 0.0
C589 C 0.92821 0.79444 0.65241 0.0
C590 C 0.88381 0.79589 0.70912 0.0
C591 C 0.89485 0.76503 0.74511 0.0
N592 N 0.91501 0.79482 0.67132 0.0
N593 N 0.91078 0.76759 0.72806 0.0
H594 H 0.05433 0.95858 0.5634 0.0
H595 H 0.05035 0.80922 0.53282 0.0
H596 H 0.05507 0.92402 0.49422 0.0
H597 H 0.01807 0.83841 0.59312 0.0
H598 H 0.05984 0.85243 0.5219 0.0
H599 H 0.04788 0.91574 0.57768 0.0
C600 C 0.0532 0.94199 0.55128 0.0
C601 C 0.05503 0.94478 0.52761 0.0
C602 C 0.05074 0.84943 0.53756 0.0
C603 C 0.04811 0.89611 0.54374 0.0
C604 C 0.04538 0.8247 0.54393 0.0
C605 C 0.03315 0.82002 0.56389 0.0
C606 C 0.04408 0.86989 0.55128 0.0
C607 C 0.02736 0.84107 0.57753 0.0
C608 C 0.04946 0.91765 0.5594 0.0
C609 C 0.05352 0.92277 0.51257 0.0
N610 N 0.03285 0.86515 0.57095 0.0
N611 N 0.05025 0.89941 0.52091 0.0
H612 H 0.20073 0.69785 0.67515 0.0
H613 H 0.05569 0.73949 0.6527 0.0
H614 H 0.15707 0.7218 0.72995 0.0
H615 H 0.09978 0.71692 0.5976 0.0
H616 H 0.09239 0.7325 0.68125 0.0
H617 H 0.16366 0.70406 0.64641 0.0
C618 C 0.18331 0.70439 0.68109 0.0
C619 C 0.18198 0.70936 0.7049 0.0
C620 C 0.09403 0.72907 0.66291 0.0
C621 C 0.13953 0.71652 0.67225 0.0
C622 C 0.07305 0.73305 0.64657 0.0
C623 C 0.07458 0.72882 0.62265 0.0
C624 C 0.11677 0.72076 0.65535 0.0
C625 C 0.09765 0.72047 0.61582 0.0
C626 C 0.16218 0.70794 0.66472 0.0
C627 C 0.15899 0.71778 0.71176 0.0
N628 N 0.1178 0.71673 0.63208 0.0
N629 N 0.13868 0.7211 0.6955 0.0
H630 H 0.95142 0.54642 0.52754 0.0
H631 H 0.99356 0.69643 0.52913 0.0
H632 H 0.96685 0.58555 0.46656 0.0
H633 H 0.96604 0.66027 0.58783 0.0
H634 H 0.98695 0.65523 0.50688 0.0
H635 H 0.95894 0.58733 0.55065 0.0
C636 C 0.9562 0.5636 0.51896 0.0
C637 C 0.95851 0.5625 0.49504 0.0
C638 C 0.9824 0.65625 0.52464 0.0
C639 C 0.96757 0.60932 0.52149 0.0
C640 C 0.98631 0.67979 0.53742 0.0
C641 C 0.9804 0.6818 0.56041 0.0
C642 C 0.97254 0.63448 0.5349 0.0
C643 C 0.97083 0.65958 0.57015 0.0
C644 C 0.96066 0.58693 0.53221 0.0
C645 C 0.96523 0.58538 0.48499 0.0
N646 N 0.96719 0.63682 0.55734 0.0
N647 N 0.96954 0.6078 0.49826 0.0
H648 H 0.80932 0.86333 0.20411 0.0
H649 H 0.86841 0.00932 0.23316 0.0
H650 H 0.76172 0.92212 0.22145 0.0
H651 H 0.91435 0.94812 0.21844 0.0
H652 H 0.82913 0.97827 0.22959 0.0
H653 H 0.84808 0.89459 0.21036 0.0
C654 C 0.80707 0.88291 0.20926 0.0
C655 C 0.78226 0.89024 0.21201 0.0
C656 C 0.84784 0.9717 0.22718 0.0
C657 C 0.82668 0.92629 0.21927 0.0
C658 C 0.87028 0.98941 0.22915 0.0
C659 C 0.89479 0.98138 0.22604 0.0
C660 C 0.84994 0.9458 0.22204 0.0
C661 C 0.89596 0.9553 0.22096 0.0
C662 C 0.82923 0.90077 0.21289 0.0
C663 C 0.78053 0.91573 0.21915 0.0
N664 N 0.8739 0.93853 0.2191 0.0
N665 N 0.80246 0.93295 0.22237 0.0
H666 H 0.77778 0.16025 0.30119 0.0
H667 H 0.8833 0.13474 0.21437 0.0
H668 H 0.7784 0.19098 0.23403 0.0
H669 H 0.87695 0.09473 0.27648 0.0
H670 H 0.84596 0.15674 0.22243 0.0
H671 H 0.81495 0.13725 0.29352 0.0
C672 C 0.78573 0.16217 0.28484 0.0
C673 C 0.77493 0.17758 0.26822 0.0
C674 C 0.85266 0.14315 0.23433 0.0
C675 C 0.81745 0.15129 0.25933 0.0
C676 C 0.8741 0.13059 0.22977 0.0
C677 C 0.88334 0.11281 0.24478 0.0
C678 C 0.84031 0.13808 0.25413 0.0
C679 C 0.8705 0.10826 0.26443 0.0
C680 C 0.80687 0.14895 0.28044 0.0
C681 C 0.78586 0.17911 0.24723 0.0
N682 N 0.84966 0.12085 0.26856 0.0
N683 N 0.80654 0.16625 0.24345 0.0
H684 H 0.37146 0.00474 0.96787 0.0
H685 H 0.346 0.85818 0.99378 0.0
H686 H 0.42755 0.95093 0.96056 0.0
H687 H 0.28624 0.90932 0.99359 0.0
H688 H 0.37626 0.89228 0.98238 0.0
H689 H 0.34012 0.97039 0.97788 0.0
C690 C 0.37716 0.98567 0.96836 0.0
C691 C 0.40219 0.98069 0.96343 0.0
C692 C 0.35653 0.89607 0.98479 0.0
C693 C 0.3664 0.94128 0.97484 0.0
C694 C 0.33919 0.87659 0.99139 0.0
C695 C 0.31345 0.88083 0.99472 0.0
C696 C 0.34823 0.9201 0.98155 0.0
C697 C 0.30586 0.90513 0.99125 0.0
C698 C 0.35923 0.96606 0.97399 0.0
C699 C 0.4084 0.95559 0.96402 0.0
N700 N 0.32319 0.92387 0.98491 0.0
N701 N 0.39069 0.93686 0.96975 0.0
H702 H 0.248 0.32908 0.31627 0.0
H703 H 0.18838 0.40593 0.21526 0.0
H704 H 0.24699 0.30391 0.24385 0.0
H705 H 0.16672 0.41298 0.28479 0.0
H706 H 0.20784 0.36719 0.22462 0.0
H707 H 0.21671 0.35856 0.30486 0.0
C708 C 0.2409 0.32932 0.29798 0.0
C709 C 0.2504 0.31388 0.28102 0.0
C710 C 0.19838 0.37692 0.2377 0.0
C711 C 0.21487 0.34842 0.2678 0.0
C712 C 0.18724 0.39904 0.23236 0.0
C713 C 0.17616 0.41289 0.24936 0.0
C714 C 0.19892 0.36885 0.26034 0.0
C715 C 0.17511 0.40297 0.27117 0.0
C716 C 0.22305 0.34634 0.29148 0.0
C717 C 0.24075 0.31574 0.25755 0.0
N718 N 0.18684 0.38184 0.27619 0.0
N719 N 0.2238 0.33291 0.25163 0.0
H720 H 0.08223 0.08784 0.48098 0.0
H721 H 0.23774 0.11945 0.51503 0.0
H722 H 0.13311 0.02985 0.49572 0.0
H723 H 0.18385 0.17616 0.50681 0.0
H724 H 0.20025 0.08611 0.50811 0.0
H725 H 0.11974 0.12036 0.49091 0.0
C726 C 0.10133 0.08199 0.48644 0.0
C727 C 0.10459 0.05613 0.48745 0.0
C728 C 0.19671 0.10588 0.5079 0.0
C729 C 0.14779 0.09328 0.49875 0.0
C730 C 0.2181 0.12492 0.51176 0.0
C731 C 0.21402 0.15071 0.51147 0.0
C732 C 0.17111 0.1127 0.50361 0.0
C733 C 0.18809 0.15661 0.50722 0.0
C734 C 0.12276 0.10055 0.49214 0.0
C735 C 0.12973 0.04961 0.49487 0.0
N736 N 0.16773 0.13781 0.50342 0.0
N737 N 0.15045 0.06806 0.50007 0.0
H738 H 0.7949 0.1452 0.70903 0.0
H739 H 0.67848 0.08566 0.77505 0.0
H740 H 0.77686 0.17941 0.77375 0.0
H741 H 0.71931 0.04022 0.7302 0.0
H742 H 0.70929 0.12291 0.77018 0.0
H743 H 0.76219 0.10885 0.71221 0.0
C744 C 0.78398 0.14503 0.72387 0.0
C745 C 0.78856 0.16519 0.74121 0.0
C746 C 0.71135 0.10476 0.76135 0.0
C747 C 0.75107 0.12401 0.74482 0.0
C748 C 0.69371 0.08355 0.76398 0.0
C749 C 0.69632 0.05975 0.75303 0.0
C750 C 0.73147 0.10221 0.74738 0.0
C751 C 0.71653 0.0581 0.739 0.0
C752 C 0.76543 0.12431 0.72571 0.0
C753 C 0.77402 0.16407 0.76015 0.0
N754 N 0.7333 0.07906 0.73652 0.0
N755 N 0.75577 0.14386 0.7614 0.0
H756 H 0.44649 0.04442 0.50443 0.0
H757 H 0.36497 0.13463 0.57421 0.0
H758 H 0.43833 0.03892 0.57729 0.0
H759 H 0.35086 0.12178 0.49938 0.0
H760 H 0.39387 0.10122 0.5755 0.0
H761 H 0.41331 0.07401 0.50196 0.0
C762 C 0.43757 0.04915 0.51988 0.0
C763 C 0.44538 0.03906 0.54116 0.0
C764 C 0.38435 0.10554 0.55878 0.0
C765 C 0.40771 0.07349 0.53843 0.0
C766 C 0.36791 0.1247 0.558 0.0
C767 C 0.35558 0.13108 0.53662 0.0
C768 C 0.38893 0.09281 0.538 0.0
C769 C 0.35997 0.11742 0.51622 0.0
C770 C 0.41869 0.06617 0.51842 0.0
C771 C 0.43341 0.04648 0.56062 0.0
N772 N 0.37655 0.09906 0.51738 0.0
N773 N 0.41534 0.06333 0.55882 0.0
H774 H 0.56332 0.45279 0.48692 0.0
H775 H 0.70868 0.4288 0.53833 0.0
H776 H 0.60423 0.48941 0.55148 0.0
H777 H 0.6638 0.38419 0.47929 0.0
H778 H 0.6723 0.45419 0.54096 0.0
H779 H 0.60125 0.43002 0.48191 0.0
C780 C 0.58032 0.45607 0.50003 0.0
C781 C 0.58059 0.47301 0.51968 0.0
C782 C 0.67045 0.43896 0.52734 0.0
C783 C 0.62413 0.447 0.51403 0.0
C784 C 0.6913 0.4245 0.52572 0.0
C785 C 0.68927 0.40417 0.50864 0.0
C786 C 0.64734 0.43314 0.51174 0.0
C787 C 0.66623 0.3996 0.49279 0.0
C788 C 0.60195 0.44301 0.49718 0.0
C789 C 0.60304 0.47631 0.53622 0.0
N790 N 0.64611 0.41388 0.4948 0.0
N791 N 0.62393 0.46348 0.53299 0.0
H792 H 0.77734 0.24683 0.32536 0.0
H793 H 0.70206 0.29835 0.42841 0.0
H794 H 0.69346 0.23039 0.32445 0.0
H795 H 0.78442 0.28847 0.43597 0.0
H796 H 0.6982 0.28085 0.38764 0.0
H797 H 0.77981 0.26949 0.36351 0.0
C798 C 0.75942 0.24783 0.33321 0.0
C799 C 0.7352 0.23625 0.32176 0.0
C800 C 0.71709 0.2827 0.39828 0.0
C801 C 0.73788 0.2628 0.36539 0.0
C802 C 0.71933 0.29279 0.42143 0.0
C803 C 0.74353 0.29463 0.43561 0.0
C804 C 0.73933 0.27492 0.38929 0.0
C805 C 0.7653 0.28709 0.42575 0.0
C806 C 0.76085 0.26096 0.35495 0.0
C807 C 0.71256 0.23904 0.33256 0.0
N808 N 0.76267 0.2776 0.40326 0.0
N809 N 0.71445 0.25195 0.35384 0.0
H810 H 0.52146 0.02066 0.90981 0.0
H811 H 0.56595 0.9727 0.78877 0.0
H812 H 0.47052 0.96879 0.85957 0.0
H813 H 0.61872 0.01077 0.84679 0.0
H814 H 0.53005 0.97192 0.81312 0.0
H815 H 0.55663 0.01844 0.88559 0.0
C816 C 0.51764 0.00879 0.89362 0.0
C817 C 0.49297 0.99496 0.88659 0.0
C818 C 0.54955 0.9803 0.82048 0.0
C819 C 0.53334 0.99232 0.85866 0.0
C820 C 0.57002 0.98079 0.80661 0.0
C821 C 0.59537 0.99191 0.81572 0.0
C822 C 0.5545 0.99121 0.84351 0.0
C823 C 0.59953 0.00206 0.83895 0.0
C824 C 0.53781 0.00745 0.8798 0.0
C825 C 0.48929 0.97976 0.86553 0.0
N826 N 0.57932 0.00157 0.85195 0.0
N827 N 0.50924 0.97893 0.85219 0.0
H828 H 0.30708 0.22672 0.33211 0.0
H829 H 0.26963 0.25976 0.45921 0.0
H830 H 0.28412 0.29864 0.35644 0.0
H831 H 0.30802 0.19322 0.44411 0.0
H832 H 0.27377 0.27252 0.42048 0.0
H833 H 0.30739 0.21269 0.37188 0.0
C834 C 0.30227 0.23958 0.3458 0.0
C835 C 0.29507 0.26372 0.34086 0.0
C836 C 0.28142 0.25513 0.42549 0.0
C837 C 0.29531 0.24783 0.38609 0.0
C838 C 0.27894 0.24769 0.44772 0.0
C839 C 0.28837 0.22524 0.45502 0.0
C840 C 0.2933 0.24003 0.41005 0.0
C841 C 0.30046 0.21067 0.43921 0.0
C842 C 0.3024 0.23155 0.36843 0.0
C843 C 0.28909 0.27963 0.35924 0.0
N844 N 0.30246 0.21825 0.41733 0.0
N845 N 0.2892 0.27136 0.38088 0.0
H846 H 0.49595 0.52064 0.93338 0.0
H847 H 0.52232 0.50697 0.80077 0.0
H848 H 0.57274 0.51826 0.91174 0.0
H849 H 0.45566 0.54196 0.82056 0.0
H850 H 0.53772 0.5041 0.84167 0.0
H851 H 0.47753 0.5218 0.89225 0.0
C852 C 0.50881 0.52016 0.91994 0.0
C853 C 0.53585 0.51944 0.9258 0.0
C854 C 0.51972 0.51241 0.8371 0.0
C855 C 0.51513 0.52055 0.87919 0.0
C856 C 0.51082 0.514 0.81371 0.0
C857 C 0.48767 0.52482 0.80717 0.0
C858 C 0.50529 0.52141 0.85425 0.0
C859 C 0.47371 0.53364 0.82484 0.0
C860 C 0.49838 0.52099 0.89661 0.0
C861 C 0.55181 0.51897 0.90788 0.0
N862 N 0.48269 0.53166 0.84764 0.0
N863 N 0.54121 0.51943 0.88541 0.0
H864 H 0.73769 0.84796 0.13594 0.0
H865 H 0.7728 0.71122 0.09556 0.0
H866 H 0.73144 0.78415 0.17847 0.0
H867 H 0.76107 0.77018 0.04851 0.0
H868 H 0.75597 0.73685 0.12572 0.0
H869 H 0.74398 0.81912 0.10304 0.0
C870 C 0.73724 0.82776 0.13818 0.0
C871 C 0.73418 0.81836 0.15989 0.0
C872 C 0.7568 0.74405 0.10872 0.0
C873 C 0.74182 0.78533 0.12255 0.0
C874 C 0.76651 0.72948 0.09152 0.0
C875 C 0.76849 0.73866 0.06954 0.0
C876 C 0.74934 0.76811 0.10397 0.0
C877 C 0.75991 0.76236 0.06522 0.0
C878 C 0.74083 0.81131 0.11944 0.0
C879 C 0.73364 0.79208 0.16195 0.0
N880 N 0.75096 0.77638 0.08235 0.0
N881 N 0.73784 0.77649 0.14358 0.0
H882 H 0.02115 0.0608 0.06852 0.0
H883 H 0.99188 0.01252 0.19006 0.0
H884 H 0.02098 0.98127 0.08139 0.0
H885 H 0.95461 0.07389 0.15972 0.0
H886 H 0.00855 0.00285 0.1531 0.0
H887 H 0.00285 0.06821 0.10475 0.0
C888 C 0.01706 0.04476 0.07875 0.0
C889 C 0.02228 0.02019 0.07145 0.0
C890 C 0.99658 0.01832 0.15457 0.0
C891 C 0.0021 0.02899 0.11366 0.0
C892 C 0.9871 0.02392 0.17568 0.0
C893 C 0.97176 0.04405 0.17804 0.0
C894 C 0.99122 0.03335 0.13589 0.0
C895 C 0.96625 0.05813 0.15869 0.0
C896 C 0.00674 0.04912 0.09957 0.0
C897 C 0.01748 0.00054 0.08622 0.0
N898 N 0.97621 0.0527 0.13852 0.0
N899 N 0.00775 0.00538 0.10667 0.0
H900 H 0.31522 0.74058 0.15586 0.0
H901 H 0.26303 0.85687 0.09183 0.0
H902 H 0.31547 0.81411 0.19222 0.0
H903 H 0.28195 0.78846 0.05638 0.0
H904 H 0.28321 0.84304 0.12871 0.0
H905 H 0.30419 0.75899 0.1191 0.0
C906 C 0.31305 0.76071 0.15605 0.0
C907 C 0.31591 0.77585 0.17704 0.0
C908 C 0.28325 0.83131 0.11276 0.0
C909 C 0.30304 0.79711 0.13497 0.0
C910 C 0.27171 0.83915 0.09174 0.0
C911 C 0.27072 0.82375 0.07099 0.0
C912 C 0.29356 0.80783 0.11295 0.0
C913 C 0.28228 0.80101 0.07186 0.0
C914 C 0.30685 0.77126 0.13503 0.0
C915 C 0.31329 0.80186 0.1763 0.0
N916 N 0.29297 0.79366 0.09248 0.0
N917 N 0.30659 0.81168 0.15556 0.0
H918 H 0.00628 0.46185 0.08854 0.0
H919 H 0.08128 0.51522 0.21233 0.0
H920 H 0.00674 0.54061 0.11309 0.0
H921 H 0.11305 0.46294 0.16628 0.0
H922 H 0.04512 0.51865 0.18136 0.0
H923 H 0.03682 0.45604 0.12265 0.0
C924 C 0.01274 0.47799 0.10102 0.0
C925 C 0.00433 0.502 0.09747 0.0
C926 C 0.05992 0.50626 0.17823 0.0
C927 C 0.03858 0.49498 0.13712 0.0
C928 C 0.08037 0.50415 0.19586 0.0
C929 C 0.10014 0.48882 0.19176 0.0
C930 C 0.05896 0.49238 0.1567 0.0
C931 C 0.09826 0.47507 0.17007 0.0
C932 C 0.03003 0.47452 0.12058 0.0
C933 C 0.01262 0.52178 0.11496 0.0
N934 N 0.07796 0.47708 0.15338 0.0
N935 N 0.0294 0.51786 0.13401 0.0
H936 H 0.39003 0.7284 0.24994 0.0
H937 H 0.44033 0.71974 0.38477 0.0
H938 H 0.33948 0.70849 0.30183 0.0
H939 H 0.49217 0.74261 0.3346 0.0
H940 H 0.4033 0.71607 0.35431 0.0
H941 H 0.42767 0.73479 0.28046 0.0
C942 C 0.38681 0.7256 0.26777 0.0
C943 C 0.36159 0.71776 0.27333 0.0
C944 C 0.42274 0.72192 0.34991 0.0
C945 C 0.40455 0.72474 0.30824 0.0
C946 C 0.44399 0.72399 0.36733 0.0
C947 C 0.46952 0.73146 0.36229 0.0
C948 C 0.42688 0.72729 0.32714 0.0
C949 C 0.47287 0.73676 0.33931 0.0
C950 C 0.40832 0.7291 0.28515 0.0
C951 C 0.35862 0.71413 0.29668 0.0
N952 N 0.45179 0.73453 0.32256 0.0
N953 N 0.37982 0.71758 0.31322 0.0
H954 H 0.96681 0.43671 0.99363 0.0
H955 H 0.05986 0.34863 0.93366 0.0
H956 H 0.04925 0.45973 0.992 0.0
H957 H 0.98907 0.31875 0.96034 0.0
H958 H 0.05331 0.39142 0.94854 0.0
H959 H 0.97171 0.39525 0.97464 0.0
C960 C 0.98587 0.43315 0.98902 0.0
C961 C 0.00773 0.45159 0.99438 0.0
C962 C 0.03922 0.37547 0.95106 0.0
C963 C 0.01341 0.40434 0.97273 0.0
C964 C 0.04289 0.35107 0.94254 0.0
C965 C 0.02507 0.33005 0.9459 0.0
C966 C 0.01739 0.37892 0.9627 0.0
C967 C 0.00343 0.33436 0.95755 0.0
C968 C 0.98867 0.40946 0.97832 0.0
C969 C 0.03198 0.44593 0.98815 0.0
N970 N 1.00015 0.35832 0.96548 0.0
N971 N 0.0342 0.42277 0.97762 0.0
H972 H 0.66175 0.8154 0.24774 0.0
H973 H 0.62294 0.8334 0.3766 0.0
H974 H 0.69043 0.88133 0.29482 0.0
H975 H 0.58584 0.77327 0.32603 0.0
H976 H 0.64747 0.85148 0.34682 0.0
H977 H 0.63364 0.79976 0.27609 0.0
C978 C 0.66208 0.82664 0.26403 0.0
C979 C 0.67852 0.84968 0.26903 0.0
C980 C 0.63384 0.83442 0.34219 0.0
C981 C 0.64643 0.83183 0.30159 0.0
C982 C 0.61982 0.82407 0.3592 0.0
C983 C 0.60239 0.8017 0.35385 0.0
C984 C 0.63059 0.82224 0.31967 0.0
C985 C 0.5991 0.79051 0.33096 0.0
C986 C 0.64597 0.81772 0.2802 0.0
C987 C 0.67805 0.86346 0.29036 0.0
N988 N 0.61321 0.8008 0.31476 0.0
N989 N 0.66238 0.85426 0.30592 0.0
H990 H 0.06074 0.05799 0.93131 0.0
H991 H 0.06154 0.17772 0.88676 0.0
H992 H 0.01463 0.08777 0.98175 0.0
H993 H 0.03546 0.20125 0.95189 0.0
H994 H 0.05546 0.13361 0.89659 0.0
H995 H 0.06362 0.09902 0.9143 0.0
C996 C 0.05085 0.0731 0.93851 0.0
C997 C 0.03755 0.06952 0.95797 0.0
C998 C 0.05135 0.14831 0.90893 0.0
C999 C 0.04026 0.11658 0.93844 0.0
C1000 C 0.05462 0.17358 0.9032 0.0
C1001 C 0.04918 0.19324 0.9186 0.0
C1002 C 0.04282 0.14268 0.93039 0.0
C1003 C 0.03994 0.18675 0.93949 0.0
C1004 C 0.05233 0.09658 0.92871 0.0
C1005 C 0.02521 0.08969 0.96681 0.0
N1006 N 0.03715 0.16207 0.94478 0.0
N1007 N 0.02704 0.11238 0.95707 0.0
H1008 H 0.39168 0.23282 0.26564 0.0
H1009 H 0.43786 0.2914 0.15085 0.0
H1010 H 0.35799 0.29483 0.23307 0.0
H1011 H 0.46531 0.22417 0.17913 0.0
H1012 H 0.4124 0.29619 0.18354 0.0
H1013 H 0.42243 0.23233 0.23654 0.0
C1014 C 0.39086 0.24639 0.25241 0.0
C1015 C 0.37216 0.26371 0.25164 0.0
C1016 C 0.42416 0.2805 0.18267 0.0
C1017 C 0.40722 0.26337 0.21834 0.0
C1018 C 0.43879 0.27782 0.16406 0.0
C1019 C 0.45358 0.25722 0.16212 0.0
C1020 C 0.42433 0.26249 0.1995 0.0
C1021 C 0.45404 0.24023 0.17979 0.0
C1022 C 0.40838 0.24612 0.23581 0.0
C1023 C 0.37195 0.28099 0.23422 0.0
N1024 N 0.43951 0.24316 0.19764 0.0
N1025 N 0.38915 0.28031 0.21821 0.0
H1026 H 0.51483 0.44796 0.02137 0.0
H1027 H 0.56155 0.31787 0.05783 0.0
H1028 H 0.5967 0.43977 0.03986 0.0
H1029 H 0.4868 0.33908 0.07333 0.0
H1030 H 0.57425 0.36164 0.04883 0.0
H1031 H 0.50308 0.40728 0.03784 0.0
C1032 C 0.5303 0.43765 0.02899 0.0
C1033 C 0.55679 0.44704 0.02912 0.0
C1034 C 0.55519 0.35681 0.05448 0.0
C1035 C 0.54352 0.40062 0.04769 0.0
C1036 C 0.54792 0.33185 0.05957 0.0
C1037 C 0.52309 0.3249 0.0663 0.0
C1038 C 0.53725 0.37482 0.05554 0.0
C1039 C 0.50618 0.34375 0.06832 0.0
C1040 C 0.52359 0.41456 0.03849 0.0
C1041 C 0.57606 0.43308 0.03936 0.0
N1042 N 0.5134 0.36782 0.06256 0.0
N1043 N 0.56907 0.41038 0.04795 0.0
H1044 H 0.68491 0.19699 0.17101 0.0
H1045 H 0.54042 0.24029 0.14972 0.0
H1046 H 0.64315 0.22189 0.22683 0.0
H1047 H 0.58501 0.21826 0.09481 0.0
H1048 H 0.57679 0.23231 0.17845 0.0
H1049 H 0.64741 0.20329 0.14299 0.0
C1050 C 0.66778 0.20375 0.17734 0.0
C1051 C 0.66715 0.20899 0.20121 0.0
C1052 C 0.57854 0.2292 0.1601 0.0
C1053 C 0.62408 0.2163 0.16929 0.0
C1054 C 0.55777 0.23374 0.14367 0.0
C1055 C 0.55962 0.23003 0.11975 0.0
C1056 C 0.60129 0.22086 0.15255 0.0
C1057 C 0.58263 0.22148 0.11301 0.0
C1058 C 0.64637 0.20737 0.16136 0.0
C1059 C 0.64448 0.21767 0.20854 0.0
N1060 N 0.60249 0.21724 0.12929 0.0
N1061 N 0.62384 0.2211 0.19262 0.0
H1062 H 0.40709 0.06923 0.98888 0.0
H1063 H 0.50102 0.1948 0.03428 0.0
H1064 H 0.49022 0.07597 0.98314 0.0
H1065 H 0.43378 0.1696 0.06813 0.0
H1066 H 0.49503 0.1541 0.01093 0.0
H1067 H 0.41415 0.10879 0.01384 0.0
C1068 C 0.42685 0.07882 0.99293 0.0
C1069 C 0.44808 0.06903 0.98378 0.0
C1070 C 0.48169 0.1575 0.02355 0.0
C1071 C 0.45603 0.1148 0.01186 0.0
C1072 C 0.48502 0.18077 0.03683 0.0
C1073 C 0.46787 0.18562 0.05318 0.0
C1074 C 0.46072 0.13922 0.0263 0.0
C1075 C 0.44753 0.16658 0.05579 0.0
C1076 C 0.43079 0.10149 0.00711 0.0
C1077 C 0.47312 0.08287 0.9893 0.0
N1078 N 0.44434 0.1443 0.04231 0.0
N1079 N 0.47636 0.10512 0.00284 0.0
H1080 H 0.26518 0.41118 0.72231 0.0
H1081 H 0.42121 0.43857 0.72796 0.0
H1082 H 0.31755 0.35296 0.72612 0.0
H1083 H 0.37096 0.4984 0.73208 0.0
H1084 H 0.38311 0.40713 0.72758 0.0
H1085 H 0.30335 0.4437 0.72717 0.0
C1086 C 0.28469 0.40526 0.72452 0.0
C1087 C 0.2882 0.37933 0.72357 0.0
C1088 C 0.38038 0.42713 0.72862 0.0
C1089 C 0.33187 0.4163 0.72873 0.0
C1090 C 0.40216 0.44514 0.72873 0.0
C1091 C 0.39934 0.47123 0.72997 0.0
C1092 C 0.35546 0.43515 0.72962 0.0
C1093 C 0.3741 0.47851 0.73106 0.0
C1094 C 0.30646 0.4238 0.72711 0.0
C1095 C 0.31393 0.37272 0.72631 0.0
N1096 N 0.35312 0.46056 0.73078 0.0
N1097 N 0.33473 0.39105 0.72859 0.0
H1098 H 0.31631 0.70821 0.79683 0.0
H1099 H 0.36396 0.577 0.75179 0.0
H1100 H 0.26408 0.64676 0.75856 0.0
H1101 H 0.4171 0.64409 0.77719 0.0
H1102 H 0.32688 0.60083 0.75744 0.0
H1103 H 0.35322 0.68366 0.79281 0.0
C1104 C 0.31261 0.6895 0.78763 0.0
C1105 C 0.28707 0.67952 0.778 0.0
C1106 C 0.34666 0.61031 0.76183 0.0
C1107 C 0.32926 0.65128 0.77333 0.0
C1108 C 0.36786 0.59669 0.75872 0.0
C1109 C 0.39372 0.60858 0.76397 0.0
C1110 C 0.35131 0.63598 0.77042 0.0
C1111 C 0.39752 0.63416 0.77283 0.0
C1112 C 0.3337 0.67554 0.78526 0.0
C1113 C 0.28347 0.65529 0.76605 0.0
N1114 N 0.37657 0.64698 0.77577 0.0
N1115 N 0.30431 0.64197 0.76412 0.0
H1116 H 0.93554 0.44478 0.47442 0.0
H1117 H 0.78681 0.40664 0.49716 0.0
H1118 H 0.87968 0.49946 0.47794 0.0
H1119 H 0.8469 0.35577 0.50219 0.0
H1120 H 0.81971 0.44081 0.48909 0.0
H1121 H 0.90225 0.41157 0.48294 0.0
C1122 C 0.91618 0.44976 0.47681 0.0
C1123 C 0.91037 0.47491 0.4754 0.0
C1124 C 0.82564 0.42217 0.49205 0.0
C1125 C 0.87214 0.43699 0.48547 0.0
C1126 C 0.80688 0.40265 0.49668 0.0
C1127 C 0.81402 0.37822 0.50032 0.0
C1128 C 0.85167 0.41716 0.49095 0.0
C1129 C 0.84036 0.37422 0.49948 0.0
C1130 C 0.89722 0.43082 0.48186 0.0
C1131 C 0.88505 0.48033 0.47906 0.0
N1132 N 0.85813 0.39341 0.49481 0.0
N1133 N 0.86684 0.46152 0.48388 0.0
H1134 H 0.74403 0.805 0.73716 0.0
H1135 H 0.66509 0.91584 0.78282 0.0
H1136 H 0.7418 0.82605 0.80994 0.0
H1137 H 0.69169 0.91088 0.71507 0.0
H1138 H 0.6817 0.87514 0.79062 0.0
H1139 H 0.71385 0.8362 0.72697 0.0
C1140 C 0.73706 0.81603 0.75101 0.0
C1141 C 0.74594 0.81322 0.77446 0.0
C1142 C 0.68342 0.88277 0.77389 0.0
C1143 C 0.71101 0.84868 0.76285 0.0
C1144 C 0.67376 0.90587 0.76934 0.0
C1145 C 0.67734 0.91689 0.74837 0.0
C1146 C 0.69639 0.87055 0.75722 0.0
C1147 C 0.68885 0.90321 0.73159 0.0
C1148 C 0.71972 0.83372 0.74516 0.0
C1149 C 0.73556 0.82752 0.79164 0.0
N1150 N 0.69817 0.88087 0.73645 0.0
N1151 N 0.71887 0.84484 0.78549 0.0
H1152 H 0.63196 0.53434 0.00138 0.0
H1153 H 0.67808 0.68365 0.00225 0.0
H1154 H 0.58162 0.59018 0.97849 0.0
H1155 H 0.73293 0.62827 0.01376 0.0
H1156 H 0.64208 0.64961 0.99812 0.0
H1157 H 0.66858 0.56851 0.01083 0.0
C1158 C 0.62857 0.55383 0.99865 0.0
C1159 C 0.60383 0.5595 0.98901 0.0
C1160 C 0.66196 0.64483 0.00157 0.0
C1161 C 0.64542 0.59845 0.9996 0.0
C1162 C 0.68263 0.66432 0.00396 0.0
C1163 C 0.70872 0.65888 0.00821 0.0
C1164 C 0.66719 0.61954 0.00346 0.0
C1165 C 0.71318 0.63336 0.01035 0.0
C1166 C 0.64947 0.57324 0.00387 0.0
C1167 C 0.60047 0.58498 0.98563 0.0
N1168 N 0.6926 0.6146 0.00789 0.0
N1169 N 0.62101 0.60345 0.99086 0.0
H1170 H 0.30954 0.63639 0.24289 0.0
H1171 H 0.16346 0.5815 0.25673 0.0
H1172 H 0.24542 0.68221 0.23426 0.0
H1173 H 0.22162 0.5337 0.23835 0.0
H1174 H 0.19326 0.61907 0.25064 0.0
H1175 H 0.27791 0.5987 0.24403 0.0
C1176 C 0.28878 0.63846 0.24129 0.0
C1177 C 0.28001 0.66236 0.23856 0.0
C1178 C 0.19933 0.60032 0.2477 0.0
C1179 C 0.2438 0.6195 0.23987 0.0
C1180 C 0.18236 0.5789 0.25117 0.0
C1181 C 0.19013 0.55447 0.24811 0.0
C1182 C 0.22436 0.59724 0.24154 0.0
C1183 C 0.21482 0.55217 0.24089 0.0
C1184 C 0.27075 0.61698 0.24176 0.0
C1185 C 0.2529 0.66405 0.2363 0.0
N1186 N 0.23119 0.57331 0.23812 0.0
N1187 N 0.23572 0.64291 0.23721 0.0
H1188 H 0.9049 0.5225 0.02793 0.0
H1189 H 0.88243 0.66669 0.06119 0.0
H1190 H 0.95896 0.57464 0.07551 0.0
H1191 H 0.8295 0.61675 0.01074 0.0
H1192 H 0.90936 0.63228 0.06793 0.0
H1193 H 0.87565 0.55566 0.02301 0.0
C1194 C 0.91059 0.54089 0.03741 0.0
C1195 C 0.93456 0.54582 0.05205 0.0
C1196 C 0.89187 0.62877 0.05539 0.0
C1197 C 0.90106 0.58386 0.04654 0.0
C1198 C 0.87644 0.64847 0.05147 0.0
C1199 C 0.85366 0.64466 0.0353 0.0
C1200 C 0.88456 0.60495 0.04307 0.0
C1201 C 0.84694 0.62057 0.02332 0.0
C1202 C 0.89384 0.5598 0.03462 0.0
C1203 C 0.94063 0.56987 0.06421 0.0
N1204 N 0.86235 0.60161 0.02743 0.0
N1205 N 0.92409 0.588 0.06107 0.0
H1206 H 0.106 -0.00013 0.00381 0.0
H1207 H 0.13586 0.85629 0.01942 0.0
H1208 H 0.05793 0.94531 0.03749 0.0
H1209 H 0.18896 0.91195 0.99184 0.0
H1210 H 0.10573 0.88811 0.02345 0.0
H1211 H 0.13545 0.96765 0.9972 0.0
C1212 C 0.1016 0.98109 0.00976 0.0
C1213 C 0.0794 0.97526 0.02119 0.0
C1214 C 0.1239 0.89341 0.01643 0.0
C1215 C 0.1131 0.93831 0.01371 0.0
C1216 C 0.14113 0.87518 0.01402 0.0
C1217 C 0.16509 0.88146 0.00537 0.0
C1218 C 0.13055 0.91822 0.01016 0.0
C1219 C 0.17072 0.90626 0.9986 0.0
C1220 C 0.11848 0.96274 0.00605 0.0
C1221 C 0.07492 0.95073 0.02882 0.0
N1222 N 0.15362 0.92379 0.00124 0.0
N1223 N 0.09155 0.93317 0.02488 0.0
loop_
_geom_bond_atom_site_label_1
_geom_bond_atom_site_label_2
_geom_bond_distance
_geom_bond_site_symmetry_2
_ccdc_geom_bond_type
H0 C5 0.930 . S
H1 C8 0.903 1_556 S
H2 C10 0.930 . S
H3 C4 1.016 . S
C4 H3 1.016 . S
C4 N11 1.286 1_556 S
C5 H0 0.930 . S
C5 C6 1.397 . S
C5 C7 1.361 . S
C6 C5 1.397 . S
C6 C10 1.390 . S
C7 C5 1.361 . S
C7 C8 1.393 . S
C7 N11 1.413 . S
C8 H1 0.903 1_554 S
C8 C7 1.393 . S
C8 C9 1.399 . S
C9 C8 1.399 . S
C9 C10 1.381 . S
C10 H2 0.930 . S
C10 C6 1.390 . S
C10 C9 1.381 . S
N11 C4 1.286 1_554 S
N11 C7 1.413 . S
H12 C17 0.930 . S
H13 C20 0.930 . S
H14 C22 0.930 . S
H15 C16 1.016 . S
C16 H15 1.016 . S
C16 N23 1.286 . S
C17 H12 0.930 . S
C17 C18 1.397 . S
C17 C19 1.361 . S
C18 C17 1.397 . S
C18 C22 1.390 . S
C19 C17 1.361 . S
C19 C20 1.393 . S
C19 N23 1.413 . S
C20 H13 0.930 . S
C20 C19 1.393 . S
C20 C21 1.399 . S
C21 C20 1.399 . S
C21 C22 1.381 . S
C22 H14 0.930 . S
C22 C18 1.390 . S
C22 C21 1.381 . S
N23 C16 1.286 . S
N23 C19 1.413 . S
H24 C29 0.930 . S
H25 C32 0.930 1_455 S
H26 C34 0.930 . S
H27 C28 1.016 1_455 S
C28 H27 1.016 1_655 S
C28 N35 1.286 . S
C29 H24 0.930 . S
C29 C30 1.397 . S
C29 C31 1.361 . S
C30 C29 1.397 . S
C30 C34 1.390 . S
C31 C29 1.361 . S
C31 C32 1.393 . S
C31 N35 1.413 . S
C32 H25 0.930 1_655 S
C32 C31 1.393 . S
C32 C33 1.399 . S
C33 C32 1.399 . S
C33 C34 1.381 . S
C34 H26 0.930 . S
C34 C30 1.390 . S
C34 C33 1.381 . S
N35 C28 1.286 . S
N35 C31 1.413 . S
H36 C41 0.930 . S
H37 C44 0.930 . S
H38 C46 0.930 . S
H39 C40 1.016 . S
C40 H39 1.016 . S
C40 N47 1.286 . S
C41 H36 0.930 . S
C41 C42 1.397 . S
C41 C43 1.361 . S
C42 C41 1.397 . S
C42 C46 1.390 . S
C43 C41 1.361 . S
C43 C44 1.393 . S
C43 N47 1.413 . S
C44 H37 0.930 . S
C44 C43 1.393 . S
C44 C45 1.399 . S
C45 C44 1.399 . S
C45 C46 1.381 . S
C46 H38 0.930 . S
C46 C42 1.390 . S
C46 C45 1.381 . S
N47 C40 1.286 . S
N47 C43 1.413 . S
H48 C53 0.930 . S
H49 C56 0.930 . S
H50 C58 0.930 . S
H51 C52 1.016 . S
C52 H51 1.016 . S
C52 N59 1.286 . S
C53 H48 0.930 . S
C53 C54 1.397 . S
C53 C55 1.361 . S
C54 C53 1.397 . S
C54 C58 1.390 1_565 S
C55 C53 1.361 . S
C55 C56 1.393 . S
C55 N59 1.413 . S
C56 H49 0.930 . S
C56 C55 1.393 . S
C56 C57 1.399 1_565 S
C57 C56 1.399 1_545 S
C57 C58 1.381 . S
C58 H50 0.930 . S
C58 C54 1.390 1_545 S
C58 C57 1.381 . S
N59 C52 1.286 . S
N59 C55 1.413 . S
H60 C65 0.930 . S
H61 C68 0.930 . S
H62 C70 0.930 . S
H63 C64 1.016 . S
C64 H63 1.016 . S
C64 N71 1.286 . S
C65 H60 0.930 . S
C65 C66 1.397 . S
C65 C67 1.361 . S
C66 C65 1.397 . S
C66 C70 1.390 . S
C67 C65 1.361 . S
C67 C68 1.393 . S
C67 N71 1.413 . S
C68 H61 0.930 . S
C68 C67 1.393 . S
C68 C69 1.399 . S
C69 C68 1.399 . S
C69 C70 1.381 . S
C70 H62 0.930 . S
C70 C66 1.390 . S
C70 C69 1.381 . S
N71 C64 1.286 . S
N71 C67 1.413 . S
H72 C77 0.927 . S
H73 C80 0.930 . S
H74 C82 0.930 . S
H75 C76 1.011 1_655 S
C76 H75 1.011 1_455 S
C76 N83 1.282 1_455 S
C77 H72 0.927 . S
C77 C78 1.397 . S
C77 C79 1.361 . S
C78 C77 1.397 . S
C78 C82 1.390 . S
C79 C77 1.361 . S
C79 C80 1.393 . S
C79 N83 1.419 . S
C80 H73 0.930 . S
C80 C79 1.393 . S
C80 C81 1.399 . S
C81 C80 1.399 . S
C81 C82 1.381 . S
C82 H74 0.930 . S
C82 C78 1.390 . S
C82 C81 1.381 . S
N83 C76 1.282 1_655 S
N83 C79 1.419 . S
H84 C89 0.930 . S
H85 C92 0.930 . S
H86 C94 0.930 . S
H87 C88 1.016 . S
C88 H87 1.016 . S
C88 N95 1.286 . S
C89 H84 0.930 . S
C89 C90 1.397 . S
C89 C91 1.361 . S
C90 C89 1.397 . S
C90 C94 1.390 . S
C91 C89 1.361 . S
C91 C92 1.393 . S
C91 N95 1.413 . S
C92 H85 0.930 . S
C92 C91 1.393 . S
C92 C93 1.399 . S
C93 C92 1.399 . S
C93 C94 1.381 . S
C94 H86 0.930 . S
C94 C90 1.390 . S
C94 C93 1.381 . S
N95 C88 1.286 . S
N95 C91 1.413 . S
H96 C101 0.930 . S
H97 C104 0.930 . S
H98 C106 0.930 . S
H99 C100 1.016 . S
C100 H99 1.016 . S
C100 N107 1.286 . S
C101 H96 0.930 . S
C101 C102 1.397 . S
C101 C103 1.361 . S
C102 C101 1.397 . S
C102 C106 1.390 . S
C103 C101 1.361 . S
C103 C104 1.393 . S
C103 N107 1.413 . S
C104 H97 0.930 . S
C104 C103 1.393 . S
C104 C105 1.399 . S
C105 C104 1.399 . S
C105 C106 1.381 . S
C106 H98 0.930 . S
C106 C102 1.390 . S
C106 C105 1.381 . S
N107 C100 1.286 . S
N107 C103 1.413 . S
H108 C113 0.930 . S
H109 C116 0.930 . S
H110 C118 0.930 . S
H111 C112 1.016 . S
C112 H111 1.016 . S
C112 N119 1.286 . S
C113 H108 0.930 . S
C113 C114 1.397 1_565 S
C113 C115 1.361 . S
C114 C113 1.397 1_545 S
C114 C118 1.390 . S
C115 C113 1.361 . S
C115 C116 1.393 . S
C115 N119 1.413 . S
C116 H109 0.930 . S
C116 C115 1.393 . S
C116 C117 1.399 . S
C117 C116 1.399 . S
C117 C118 1.381 1_565 S
C118 H110 0.930 . S
C118 C114 1.390 . S
C118 C117 1.381 1_545 S
N119 C112 1.286 . S
N119 C115 1.413 . S
H120 C125 0.930 . S
H121 C128 0.930 . S
H122 C130 0.930 . S
H123 C124 1.016 . S
C124 H123 1.016 . S
C124 N131 1.286 . S
C125 H120 0.930 . S
C125 C126 1.397 . S
C125 C127 1.361 . S
C126 C125 1.397 . S
C126 C130 1.390 . S
C127 C125 1.361 . S
C127 C128 1.393 . S
C127 N131 1.413 . S
C128 H121 0.930 . S
C128 C127 1.393 . S
C128 C129 1.399 . S
C129 C128 1.399 . S
C129 C130 1.381 . S
C130 H122 0.930 . S
C130 C126 1.390 . S
C130 C129 1.381 . S
N131 C124 1.286 . S
N131 C127 1.413 . S
H132 C137 0.930 . S
H133 C140 0.930 . S
H134 C142 0.930 . S
H135 C136 1.016 . S
C136 H135 1.016 . S
C136 N143 1.286 . S
C137 H132 0.930 . S
C137 C138 1.397 . S
C137 C139 1.361 . S
C138 C137 1.397 . S
C138 C142 1.390 . S
C139 C137 1.361 . S
C139 C140 1.393 . S
C139 N143 1.413 . S
C140 H133 0.930 . S
C140 C139 1.393 . S
C140 C141 1.399 . S
C141 C140 1.399 . S
C141 C142 1.381 . S
C142 H134 0.930 . S
C142 C138 1.390 . S
C142 C141 1.381 . S
N143 C136 1.286 . S
N143 C139 1.413 . S
H144 C149 0.930 . S
H145 C152 0.930 . S
H146 C154 0.930 . S
H147 C148 1.016 . S
C148 H147 1.016 . S
C148 N155 1.286 . S
C149 H144 0.930 . S
C149 C150 1.397 . S
C149 C151 1.361 . S
C150 C149 1.397 . S
C150 C154 1.390 . S
C151 C149 1.361 . S
C151 C152 1.393 . S
C151 N155 1.413 . S
C152 H145 0.930 . S
C152 C151 1.393 . S
C152 C153 1.399 . S
C153 C152 1.399 . S
C153 C154 1.381 . S
C154 H146 0.930 . S
C154 C150 1.390 . S
C154 C153 1.381 . S
N155 C148 1.286 . S
N155 C151 1.413 . S
H156 C161 0.930 . S
H157 C164 0.930 . S
H158 C166 0.930 . S
H159 C160 1.013 1_554 S
C160 H159 1.013 1_556 S
C160 N167 1.291 . S
C161 H156 0.930 . S
C161 C162 1.397 . S
C161 C163 1.361 . S
C162 C161 1.397 . S
C162 C166 1.390 . S
C163 C161 1.361 . S
C163 C164 1.393 . S
C163 N167 1.413 . S
C164 H157 0.930 . S
C164 C163 1.393 . S
C164 C165 1.399 . S
C165 C164 1.399 . S
C165 C166 1.381 . S
C166 H158 0.930 . S
C166 C162 1.390 . S
C166 C165 1.381 . S
N167 C160 1.291 . S
N167 C163 1.413 . S
H168 C173 0.930 . S
H169 C176 0.930 . S
H170 C178 0.930 . S
H171 C172 1.016 . S
C172 H171 1.016 . S
C172 N179 1.286 . S
C173 H168 0.930 . S
C173 C174 1.397 . S
C173 C175 1.361 . S
C174 C173 1.397 . S
C174 C178 1.390 . S
C175 C173 1.361 . S
C175 C176 1.393 . S
C175 N179 1.413 . S
C176 H169 0.930 . S
C176 C175 1.393 . S
C176 C177 1.399 . S
C177 C176 1.399 . S
C177 C178 1.381 . S
C178 H170 0.930 . S
C178 C174 1.390 . S
C178 C177 1.381 . S
N179 C172 1.286 . S
N179 C175 1.413 . S
H180 C185 0.930 . S
H181 C188 0.930 1_565 S
H182 C190 0.930 1_554 S
H183 C184 1.016 1_565 S
C184 H183 1.016 1_545 S
C184 N191 1.286 . S
C185 H180 0.930 . S
C185 C186 1.397 . S
C185 C187 1.361 . S
C186 C185 1.397 . S
C186 C190 1.390 . S
C187 C185 1.361 . S
C187 C188 1.393 . S
C187 N191 1.413 . S
C188 H181 0.930 1_545 S
C188 C187 1.393 . S
C188 C189 1.399 . S
C189 C188 1.399 . S
C189 C190 1.381 . S
C190 H182 0.930 1_556 S
C190 C186 1.390 . S
C190 C189 1.381 . S
N191 C184 1.286 . S
N191 C187 1.413 . S
Mg192 O193 2.028 . S
Mg192 O199 1.986 1_554 S
Mg192 O201 2.114 . S
Mg192 O202 2.251 . S
Mg192 O205 2.010 . S
O193 Mg192 2.028 . S
O193 C196 1.250 . S
O194 Mg195 2.028 . S
O194 C196 1.248 . S
Mg195 O194 2.028 . S
Mg195 O200 2.032 1_554 S
Mg195 O202 2.079 . S
C196 O193 1.250 . S
C196 O194 1.248 . S
C197 O198 1.264 . S
C197 O205 1.249 . S
O198 C197 1.264 . S
O199 Mg192 1.986 1_556 S
O199 C203 1.246 . S
O200 Mg195 2.032 1_556 S
O200 C203 1.259 . S
O201 Mg192 2.114 . S
O201 C204 1.252 . S
O202 Mg192 2.251 . S
O202 Mg195 2.079 . S
O202 C204 1.273 . S
C203 O199 1.246 . S
C203 O200 1.259 . S
C204 O201 1.252 . S
C204 O202 1.273 . S
O205 Mg192 2.010 . S
O205 C197 1.249 . S
Mg206 O207 2.028 . S
Mg206 O213 1.986 . S
Mg206 O215 2.114 . S
Mg206 O216 2.251 . S
Mg206 O219 2.010 . S
O207 Mg206 2.028 . S
O207 C210 1.250 . S
O208 Mg209 2.028 . S
O208 C210 1.248 . S
Mg209 O208 2.028 . S
Mg209 O214 2.032 . S
Mg209 O216 2.079 . S
C210 O207 1.250 . S
C210 O208 1.248 . S
C211 O212 1.264 . S
C211 O219 1.249 . S
O212 C211 1.264 . S
O213 Mg206 1.986 . S
O213 C217 1.246 . S
O214 Mg209 2.032 . S
O214 C217 1.259 . S
O215 Mg206 2.114 . S
O215 C218 1.252 . S
O216 Mg206 2.251 . S
O216 Mg209 2.079 . S
O216 C218 1.273 . S
C217 O213 1.246 . S
C217 O214 1.259 . S
C218 O215 1.252 . S
C218 O216 1.273 . S
O219 Mg206 2.010 . S
O219 C211 1.249 . S
Mg220 O221 2.028 . S
Mg220 O227 1.986 1_554 S
Mg220 O229 2.114 . S
Mg220 O230 2.251 . S
Mg220 O233 2.010 . S
O221 Mg220 2.028 . S
O221 C224 1.247 1_554 S
O222 Mg223 2.028 . S
O222 C224 1.253 . S
Mg223 O222 2.028 . S
Mg223 O228 2.032 . S
Mg223 O230 2.079 1_556 S
C224 O221 1.247 1_556 S
C224 O222 1.253 . S
C225 O226 1.264 . S
C225 O233 1.249 . S
O226 C225 1.264 . S
O227 Mg220 1.986 1_556 S
O227 C231 1.246 . S
O228 Mg223 2.032 . S
O228 C231 1.259 . S
O229 Mg220 2.114 . S
O229 C232 1.252 . S
O230 Mg220 2.251 . S
O230 Mg223 2.079 1_554 S
O230 C232 1.273 . S
C231 O227 1.246 . S
C231 O228 1.259 . S
C232 O229 1.252 . S
C232 O230 1.273 . S
O233 Mg220 2.010 . S
O233 C225 1.249 . S
Mg234 O235 2.028 . S
Mg234 O241 1.986 . S
Mg234 O243 2.114 . S
Mg234 O244 2.251 . S
Mg234 O247 2.010 . S
O235 Mg234 2.028 . S
O235 C238 1.250 1_545 S
O236 Mg237 2.028 . S
O236 C238 1.248 . S
Mg237 O236 2.028 . S
Mg237 O242 2.032 1_565 S
Mg237 O244 2.079 1_565 S
C238 O235 1.250 1_565 S
C238 O236 1.248 . S
C239 O240 1.264 . S
C239 O247 1.249 . S
O240 C239 1.264 . S
O241 Mg234 1.986 . S
O241 C245 1.246 . S
O242 Mg237 2.032 1_545 S
O242 C245 1.259 . S
O243 Mg234 2.114 . S
O243 C246 1.252 . S
O244 Mg234 2.251 . S
O244 Mg237 2.079 1_545 S
O244 C246 1.273 . S
C245 O241 1.246 . S
C245 O242 1.259 . S
C246 O243 1.252 . S
C246 O244 1.273 . S
O247 Mg234 2.010 . S
O247 C239 1.249 . S
Mg248 O249 2.028 . S
Mg248 O255 1.986 . S
Mg248 O257 2.114 . S
Mg248 O258 2.251 . S
Mg248 O261 2.010 . S
O249 Mg248 2.028 . S
O249 C252 1.250 . S
O250 Mg251 2.028 . S
O250 C252 1.248 . S
Mg251 O250 2.028 . S
Mg251 O256 2.032 . S
Mg251 O258 2.079 . S
C252 O249 1.250 . S
C252 O250 1.248 . S
C253 O254 1.264 . S
C253 O261 1.249 . S
O254 C253 1.264 . S
O255 Mg248 1.986 . S
O255 C259 1.246 . S
O256 Mg251 2.032 . S
O256 C259 1.259 . S
O257 Mg248 2.114 . S
O257 C260 1.252 . S
O258 Mg248 2.251 . S
O258 Mg251 2.079 . S
O258 C260 1.273 . S
C259 O255 1.246 . S
C259 O256 1.259 . S
C260 O257 1.252 . S
C260 O258 1.273 . S
O261 Mg248 2.010 . S
O261 C253 1.249 . S
Mg262 O263 2.028 . S
Mg262 O269 1.986 . S
Mg262 O271 2.114 . S
Mg262 O272 2.251 . S
Mg262 O275 2.010 . S
O263 Mg262 2.028 . S
O263 C266 1.250 . S
O264 Mg265 2.028 . S
O264 C266 1.248 . S
Mg265 O264 2.028 . S
Mg265 O270 2.032 . S
Mg265 O272 2.079 . S
C266 O263 1.250 . S
C266 O264 1.248 . S
C267 O268 1.264 . S
C267 O275 1.249 . S
O268 C267 1.264 . S
O269 Mg262 1.986 . S
O269 C273 1.246 . S
O270 Mg265 2.032 . S
O270 C273 1.259 . S
O271 Mg262 2.114 . S
O271 C274 1.252 . S
O272 Mg262 2.251 . S
O272 Mg265 2.079 . S
O272 C274 1.273 . S
C273 O269 1.246 . S
C273 O270 1.259 . S
C274 O271 1.252 . S
C274 O272 1.273 . S
O275 Mg262 2.010 . S
O275 C267 1.249 . S
Mg276 O277 2.028 . S
Mg276 O283 1.986 . S
Mg276 O285 2.114 . S
Mg276 O286 2.251 . S
Mg276 O289 2.010 . S
O277 Mg276 2.028 . S
O277 C280 1.250 . S
O278 Mg279 2.028 . S
O278 C280 1.248 . S
Mg279 O278 2.028 . S
Mg279 O284 2.032 . S
Mg279 O286 2.079 . S
C280 O277 1.250 . S
C280 O278 1.248 . S
C281 O282 1.264 . S
C281 O289 1.249 . S
O282 C281 1.264 . S
O283 Mg276 1.986 . S
O283 C287 1.246 . S
O284 Mg279 2.032 . S
O284 C287 1.259 . S
O285 Mg276 2.114 . S
O285 C288 1.252 . S
O286 Mg276 2.251 . S
O286 Mg279 2.079 . S
O286 C288 1.273 . S
C287 O283 1.246 . S
C287 O284 1.259 . S
C288 O285 1.252 . S
C288 O286 1.273 . S
O289 Mg276 2.010 . S
O289 C281 1.249 . S
Mg290 O291 2.028 1_545 S
Mg290 O297 1.986 1_545 S
Mg290 O299 2.114 . S
Mg290 O300 2.251 . S
Mg290 O303 2.010 . S
O291 Mg290 2.028 1_565 S
O291 C294 1.250 . S
O292 Mg293 2.028 . S
O292 C294 1.248 . S
Mg293 O292 2.028 . S
Mg293 O298 2.032 . S
Mg293 O300 2.079 1_565 S
C294 O291 1.250 . S
C294 O292 1.248 . S
C295 O296 1.264 . S
C295 O303 1.249 . S
O296 C295 1.264 . S
O297 Mg290 1.986 1_565 S
O297 C301 1.246 . S
O298 Mg293 2.032 . S
O298 C301 1.259 . S
O299 Mg290 2.114 . S
O299 C302 1.252 . S
O300 Mg290 2.251 . S
O300 Mg293 2.079 1_545 S
O300 C302 1.273 . S
C301 O297 1.246 . S
C301 O298 1.259 . S
C302 O299 1.252 . S
C302 O300 1.273 . S
O303 Mg290 2.010 . S
O303 C295 1.249 . S
Mg304 O305 2.028 1_455 S
Mg304 O311 1.986 . S
Mg304 O313 2.114 . S
Mg304 O314 2.251 . S
Mg304 O317 2.010 . S
O305 Mg304 2.028 1_655 S
O305 C308 1.250 . S
O306 Mg307 2.028 . S
O306 C308 1.248 . S
Mg307 O306 2.028 . S
Mg307 O312 2.032 . S
Mg307 O314 2.079 1_655 S
C308 O305 1.250 . S
C308 O306 1.248 . S
C309 O310 1.264 . S
C309 O317 1.249 . S
O310 C309 1.264 . S
O311 Mg304 1.986 . S
O311 C315 1.246 . S
O312 Mg307 2.032 . S
O312 C315 1.259 1_655 S
O313 Mg304 2.114 . S
O313 C316 1.252 . S
O314 Mg304 2.251 . S
O314 Mg307 2.079 1_455 S
O314 C316 1.273 . S
C315 O311 1.246 . S
C315 O312 1.259 1_455 S
C316 O313 1.252 . S
C316 O314 1.273 . S
O317 Mg304 2.010 . S
O317 C309 1.249 . S
Mg318 O319 2.028 . S
Mg318 O325 1.986 . S
Mg318 O327 2.114 . S
Mg318 O328 2.251 . S
Mg318 O331 2.010 . S
O319 Mg318 2.028 . S
O319 C322 1.250 . S
O320 Mg321 2.028 . S
O320 C322 1.248 . S
Mg321 O320 2.028 . S
Mg321 O326 2.032 . S
Mg321 O328 2.079 . S
C322 O319 1.250 . S
C322 O320 1.248 . S
C323 O324 1.264 . S
C323 O331 1.249 . S
O324 C323 1.264 . S
O325 Mg318 1.986 . S
O325 C329 1.246 . S
O326 Mg321 2.032 . S
O326 C329 1.259 . S
O327 Mg318 2.114 . S
O327 C330 1.252 . S
O328 Mg318 2.251 . S
O328 Mg321 2.079 . S
O328 C330 1.273 . S
C329 O325 1.246 . S
C329 O326 1.259 . S
C330 O327 1.252 . S
C330 O328 1.273 . S
O331 Mg318 2.010 . S
O331 C323 1.249 . S
Mg332 O333 2.028 1_655 S
Mg332 O339 1.989 . S
Mg332 O341 2.114 . S
Mg332 O342 2.251 1_655 S
Mg332 O345 2.010 . S
O333 Mg332 2.028 1_455 S
O333 C336 1.250 . S
O334 Mg335 2.028 . S
O334 C336 1.248 . S
Mg335 O334 2.028 . S
Mg335 O340 2.032 . S
Mg335 O342 2.079 . S
C336 O333 1.250 . S
C336 O334 1.248 . S
C337 O338 1.264 . S
C337 O345 1.249 . S
O338 C337 1.264 . S
O339 Mg332 1.989 . S
O339 C343 1.237 1_655 S
O340 Mg335 2.032 . S
O340 C343 1.259 . S
O341 Mg332 2.114 . S
O341 C344 1.252 . S
O342 Mg332 2.251 1_455 S
O342 Mg335 2.079 . S
O342 C344 1.273 1_455 S
C343 O339 1.237 1_455 S
C343 O340 1.259 . S
C344 O341 1.252 . S
C344 O342 1.273 1_655 S
O345 Mg332 2.010 . S
O345 C337 1.249 . S
Mg346 O347 2.028 . S
Mg346 O353 1.986 . S
Mg346 O355 2.114 . S
Mg346 O356 2.251 . S
Mg346 O359 2.010 . S
O347 Mg346 2.028 . S
O347 C350 1.250 . S
O348 Mg349 2.028 . S
O348 C350 1.248 . S
Mg349 O348 2.028 . S
Mg349 O354 2.032 . S
Mg349 O356 2.079 . S
C350 O347 1.250 . S
C350 O348 1.248 . S
C351 O352 1.264 . S
C351 O359 1.249 . S
O352 C351 1.264 . S
O353 Mg346 1.986 . S
O353 C357 1.246 . S
O354 Mg349 2.032 . S
O354 C357 1.259 . S
O355 Mg346 2.114 . S
O355 C358 1.252 . S
O356 Mg346 2.251 . S
O356 Mg349 2.079 . S
O356 C358 1.273 . S
C357 O353 1.246 . S
C357 O354 1.259 . S
C358 O355 1.252 . S
C358 O356 1.273 . S
O359 Mg346 2.010 . S
O359 C351 1.249 . S
H360 C366 0.930 . S
H361 C370 0.930 . S
H362 C375 0.929 . S
H363 C373 0.929 . S
H364 C368 0.929 . S
H365 C374 0.929 . S
C366 H360 0.930 . S
C366 C367 1.367 . S
C366 C374 1.378 . S
C367 C366 1.367 . S
C367 C375 1.433 . S
C368 H364 0.929 . S
C368 C370 1.378 . S
C368 C372 1.350 . S
C369 C372 1.463 . S
C369 C374 1.350 . S
C369 N377 1.427 . S
C370 H361 0.930 . S
C370 C368 1.378 . S
C370 C371 1.367 . S
C371 C370 1.367 . S
C371 C373 1.433 . S
C372 C368 1.350 . S
C372 C369 1.463 . S
C372 N376 1.427 . S
C373 H363 0.929 . S
C373 C371 1.433 . S
C373 N376 1.384 . S
C374 H365 0.929 . S
C374 C366 1.378 . S
C374 C369 1.350 . S
C375 H362 0.929 . S
C375 C367 1.433 . S
C375 N377 1.384 . S
N376 C372 1.427 . S
N376 C373 1.384 . S
N377 C369 1.427 . S
N377 C375 1.384 . S
H378 C384 0.930 . S
H379 C388 0.930 . S
H380 C393 0.929 . S
H381 C391 0.929 . S
H382 C386 0.929 . S
H383 C392 0.929 . S
C384 H378 0.930 . S
C384 C385 1.367 . S
C384 C392 1.378 . S
C385 C384 1.367 . S
C385 C393 1.433 . S
C386 H382 0.929 . S
C386 C388 1.378 . S
C386 C390 1.350 . S
C387 C390 1.463 . S
C387 C392 1.350 . S
C387 N395 1.427 . S
C388 H379 0.930 . S
C388 C386 1.378 . S
C388 C389 1.367 . S
C389 C388 1.367 . S
C389 C391 1.433 . S
C390 C386 1.350 . S
C390 C387 1.463 . S
C390 N394 1.427 . S
C391 H381 0.929 . S
C391 C389 1.433 . S
C391 N394 1.384 . S
C392 H383 0.929 . S
C392 C384 1.378 . S
C392 C387 1.350 . S
C393 H380 0.929 . S
C393 C385 1.433 . S
C393 N395 1.384 . S
N394 C390 1.427 . S
N394 C391 1.384 . S
N395 C387 1.427 . S
N395 C393 1.384 . S
H396 C402 0.930 . S
H397 C406 0.930 . S
H398 C411 0.929 . S
H399 C409 0.929 . S
H400 C404 0.929 . S
H401 C410 0.929 . S
C402 H396 0.930 . S
C402 C403 1.367 . S
C402 C410 1.378 . S
C403 C402 1.367 . S
C403 C411 1.433 . S
C404 H400 0.929 . S
C404 C406 1.378 . S
C404 C408 1.350 . S
C405 C408 1.463 . S
C405 C410 1.350 . S
C405 N413 1.427 . S
C406 H397 0.930 . S
C406 C404 1.378 . S
C406 C407 1.367 . S
C407 C406 1.367 . S
C407 C409 1.433 . S
C408 C404 1.350 . S
C408 C405 1.463 . S
C408 N412 1.427 . S
C409 H399 0.929 . S
C409 C407 1.433 . S
C409 N412 1.384 . S
C410 H401 0.929 . S
C410 C402 1.378 . S
C410 C405 1.350 . S
C411 H398 0.929 . S
C411 C403 1.433 . S
C411 N413 1.384 . S
N412 C408 1.427 . S
N412 C409 1.384 . S
N413 C405 1.427 . S
N413 C411 1.384 . S
H414 C420 0.930 . S
H415 C424 0.904 1_565 S
H416 C429 0.929 . S
H417 C427 0.929 . S
H418 C422 0.929 . S
H419 C428 0.929 . S
C420 H414 0.930 . S
C420 C421 1.367 . S
C420 C428 1.378 . S
C421 C420 1.367 . S
C421 C429 1.433 1_545 S
C422 H418 0.929 . S
C422 C424 1.365 1_565 S
C422 C426 1.350 1_665 S
C423 C426 1.463 . S
C423 C428 1.350 . S
C423 N431 1.427 1_545 S
C424 H415 0.904 1_545 S
C424 C422 1.365 1_545 S
C424 C425 1.407 . S
C425 C424 1.407 . S
C425 C427 1.433 . S
C426 C422 1.350 1_445 S
C426 C423 1.463 . S
C426 N430 1.427 . S
C427 H417 0.929 . S
C427 C425 1.433 . S
C427 N430 1.384 1_655 S
C428 H419 0.929 . S
C428 C420 1.378 . S
C428 C423 1.350 . S
C429 H416 0.929 . S
C429 C421 1.433 1_565 S
C429 N431 1.384 . S
N430 C426 1.427 . S
N430 C427 1.384 1_455 S
N431 C423 1.427 1_565 S
N431 C429 1.384 . S
H432 C438 0.930 . S
H433 C442 0.930 . S
H434 C447 0.929 . S
H435 C445 0.929 . S
H436 C440 0.929 . S
H437 C446 0.929 . S
C438 H432 0.930 . S
C438 C439 1.367 . S
C438 C446 1.378 . S
C439 C438 1.367 . S
C439 C447 1.433 . S
C440 H436 0.929 . S
C440 C442 1.378 . S
C440 C444 1.350 . S
C441 C444 1.463 . S
C441 C446 1.350 . S
C441 N449 1.427 . S
C442 H433 0.930 . S
C442 C440 1.378 . S
C442 C443 1.367 . S
C443 C442 1.367 . S
C443 C445 1.433 . S
C444 C440 1.350 . S
C444 C441 1.463 . S
C444 N448 1.427 . S
C445 H435 0.929 . S
C445 C443 1.433 . S
C445 N448 1.384 . S
C446 H437 0.929 . S
C446 C438 1.378 . S
C446 C441 1.350 . S
C447 H434 0.929 . S
C447 C439 1.433 . S
C447 N449 1.384 . S
N448 C444 1.427 . S
N448 C445 1.384 . S
N449 C441 1.427 . S
N449 C447 1.384 . S
H450 C456 0.930 . S
H451 C460 0.930 . S
H452 C465 0.929 . S
H453 C463 0.929 . S
H454 C458 0.929 . S
H455 C464 0.929 . S
C456 H450 0.930 . S
C456 C457 1.367 . S
C456 C464 1.378 . S
C457 C456 1.367 . S
C457 C465 1.433 . S
C458 H454 0.929 . S
C458 C460 1.378 . S
C458 C462 1.350 . S
C459 C462 1.463 . S
C459 C464 1.350 . S
C459 N467 1.427 . S
C460 H451 0.930 . S
C460 C458 1.378 . S
C460 C461 1.367 . S
C461 C460 1.367 . S
C461 C463 1.433 . S
C462 C458 1.350 . S
C462 C459 1.463 . S
C462 N466 1.427 . S
C463 H453 0.929 . S
C463 C461 1.433 . S
C463 N466 1.384 . S
C464 H455 0.929 . S
C464 C456 1.378 . S
C464 C459 1.350 . S
C465 H452 0.929 . S
C465 C457 1.433 . S
C465 N467 1.384 . S
N466 C462 1.427 . S
N466 C463 1.384 . S
N467 C459 1.427 . S
N467 C465 1.384 . S
H468 C474 0.930 . S
H469 C478 0.930 . S
H470 C483 0.929 . S
H471 C481 0.929 . S
H472 C476 0.929 . S
H473 C482 0.929 . S
C474 H468 0.930 . S
C474 C475 1.367 . S
C474 C482 1.378 . S
C475 C474 1.367 . S
C475 C483 1.433 . S
C476 H472 0.929 . S
C476 C478 1.378 . S
C476 C480 1.350 . S
C477 C480 1.463 . S
C477 C482 1.350 . S
C477 N485 1.427 . S
C478 H469 0.930 . S
C478 C476 1.378 . S
C478 C479 1.367 . S
C479 C478 1.367 . S
C479 C481 1.433 . S
C480 C476 1.350 . S
C480 C477 1.463 . S
C480 N484 1.427 . S
C481 H471 0.929 . S
C481 C479 1.433 . S
C481 N484 1.384 . S
C482 H473 0.929 . S
C482 C474 1.378 . S
C482 C477 1.350 . S
C483 H470 0.929 . S
C483 C475 1.433 . S
C483 N485 1.384 . S
N484 C480 1.427 . S
N484 C481 1.384 . S
N485 C477 1.427 . S
N485 C483 1.384 . S
H486 C492 0.930 . S
H487 C496 0.930 . S
H488 C501 0.929 . S
H489 C499 0.929 . S
H490 C494 0.929 . S
H491 C500 0.929 . S
C492 H486 0.930 . S
C492 C493 1.367 . S
C492 C500 1.378 . S
C493 C492 1.367 . S
C493 C501 1.433 . S
C494 H490 0.929 . S
C494 C496 1.378 . S
C494 C498 1.350 . S
C495 C498 1.463 . S
C495 C500 1.350 . S
C495 N503 1.427 . S
C496 H487 0.930 . S
C496 C494 1.378 . S
C496 C497 1.367 . S
C497 C496 1.367 . S
C497 C499 1.433 . S
C498 C494 1.350 . S
C498 C495 1.463 . S
C498 N502 1.427 . S
C499 H489 0.929 . S
C499 C497 1.433 . S
C499 N502 1.384 . S
C500 H491 0.929 . S
C500 C492 1.378 . S
C500 C495 1.350 . S
C501 H488 0.929 . S
C501 C493 1.433 . S
C501 N503 1.384 . S
N502 C498 1.427 . S
N502 C499 1.384 . S
N503 C495 1.427 . S
N503 C501 1.384 . S
H504 C510 0.930 . S
H505 C514 0.930 . S
H506 C519 0.929 . S
H507 C517 0.929 . S
H508 C512 0.929 . S
H509 C518 0.929 . S
C510 H504 0.930 . S
C510 C511 1.367 . S
C510 C518 1.378 . S
C511 C510 1.367 . S
C511 C519 1.433 . S
C512 H508 0.929 . S
C512 C514 1.378 . S
C512 C516 1.350 . S
C513 C516 1.463 . S
C513 C518 1.350 . S
C513 N521 1.427 . S
C514 H505 0.930 . S
C514 C512 1.378 . S
C514 C515 1.367 . S
C515 C514 1.367 . S
C515 C517 1.433 . S
C516 C512 1.350 . S
C516 C513 1.463 . S
C516 N520 1.427 . S
C517 H507 0.929 . S
C517 C515 1.433 . S
C517 N520 1.384 . S
C518 H509 0.929 . S
C518 C510 1.378 . S
C518 C513 1.350 . S
C519 H506 0.929 . S
C519 C511 1.433 . S
C519 N521 1.384 . S
N520 C516 1.427 . S
N520 C517 1.384 . S
N521 C513 1.427 . S
N521 C519 1.384 . S
H522 C528 0.930 . S
H523 C532 0.930 . S
H524 C537 0.929 . S
H525 C535 0.929 . S
H526 C530 0.929 . S
H527 C536 0.929 . S
C528 H522 0.930 . S
C528 C529 1.367 . S
C528 C536 1.378 . S
C529 C528 1.367 . S
C529 C537 1.433 . S
C530 H526 0.929 . S
C530 C532 1.378 . S
C530 C534 1.350 . S
C531 C534 1.463 . S
C531 C536 1.350 . S
C531 N539 1.427 . S
C532 H523 0.930 . S
C532 C530 1.378 . S
C532 C533 1.367 . S
C533 C532 1.367 . S
C533 C535 1.433 . S
C534 C530 1.350 . S
C534 C531 1.463 . S
C534 N538 1.427 . S
C535 H525 0.929 . S
C535 C533 1.433 . S
C535 N538 1.384 . S
C536 H527 0.929 . S
C536 C528 1.378 . S
C536 C531 1.350 . S
C537 H524 0.929 . S
C537 C529 1.433 . S
C537 N539 1.384 . S
N538 C534 1.427 . S
N538 C535 1.384 . S
N539 C531 1.427 . S
N539 C537 1.384 . S
H540 C546 0.930 . S
H541 C550 0.930 . S
H542 C555 0.929 . S
H543 C553 0.929 . S
H544 C548 0.929 . S
H545 C554 0.929 . S
C546 H540 0.930 . S
C546 C547 1.367 . S
C546 C554 1.378 . S
C547 C546 1.367 . S
C547 C555 1.433 . S
C548 H544 0.929 . S
C548 C550 1.378 . S
C548 C552 1.350 . S
C549 C552 1.463 . S
C549 C554 1.350 . S
C549 N557 1.427 . S
C550 H541 0.930 . S
C550 C548 1.378 . S
C550 C551 1.367 . S
C551 C550 1.367 . S
C551 C553 1.433 . S
C552 C548 1.350 . S
C552 C549 1.463 . S
C552 N556 1.427 . S
C553 H543 0.929 . S
C553 C551 1.433 . S
C553 N556 1.384 . S
C554 H545 0.929 . S
C554 C546 1.378 . S
C554 C549 1.350 . S
C555 H542 0.929 . S
C555 C547 1.433 . S
C555 N557 1.384 . S
N556 C552 1.427 . S
N556 C553 1.384 . S
N557 C549 1.427 . S
N557 C555 1.384 . S
H558 C564 0.930 . S
H559 C568 0.930 . S
H560 C573 0.929 . S
H561 C571 0.929 . S
H562 C566 0.929 . S
H563 C572 0.929 . S
C564 H558 0.930 . S
C564 C565 1.367 . S
C564 C572 1.378 . S
C565 C564 1.367 . S
C565 C573 1.433 . S
C566 H562 0.929 . S
C566 C568 1.378 . S
C566 C570 1.350 . S
C567 C570 1.463 . S
C567 C572 1.350 . S
C567 N575 1.427 . S
C568 H559 0.930 . S
C568 C566 1.378 . S
C568 C569 1.367 . S
C569 C568 1.367 . S
C569 C571 1.433 . S
C570 C566 1.350 . S
C570 C567 1.463 . S
C570 N574 1.427 . S
C571 H561 0.929 . S
C571 C569 1.433 . S
C571 N574 1.384 . S
C572 H563 0.929 . S
C572 C564 1.378 . S
C572 C567 1.350 . S
C573 H560 0.929 . S
C573 C565 1.433 . S
C573 N575 1.384 . S
N574 C570 1.427 . S
N574 C571 1.384 . S
N575 C567 1.427 . S
N575 C573 1.384 . S
H576 C582 0.930 . S
H577 C586 0.930 . S
H578 C591 0.929 . S
H579 C589 0.929 . S
H580 C584 0.929 . S
H581 C590 0.929 . S
C582 H576 0.930 . S
C582 C583 1.367 . S
C582 C590 1.378 . S
C583 C582 1.367 . S
C583 C591 1.433 . S
C584 H580 0.929 . S
C584 C586 1.378 . S
C584 C588 1.350 . S
C585 C588 1.463 . S
C585 C590 1.350 . S
C585 N593 1.427 . S
C586 H577 0.930 . S
C586 C584 1.378 . S
C586 C587 1.367 . S
C587 C586 1.367 . S
C587 C589 1.433 . S
C588 C584 1.350 . S
C588 C585 1.463 . S
C588 N592 1.427 . S
C589 H579 0.929 . S
C589 C587 1.433 . S
C589 N592 1.384 . S
C590 H581 0.929 . S
C590 C582 1.378 . S
C590 C585 1.350 . S
C591 H578 0.929 . S
C591 C583 1.433 . S
C591 N593 1.384 . S
N592 C588 1.427 . S
N592 C589 1.384 . S
N593 C585 1.427 . S
N593 C591 1.384 . S
H594 C600 0.930 . S
H595 C604 0.930 . S
H596 C609 0.929 . S
H597 C607 0.929 . S
H598 C602 0.929 . S
H599 C608 0.929 . S
C600 H594 0.930 . S
C600 C601 1.367 . S
C600 C608 1.378 . S
C601 C600 1.367 . S
C601 C609 1.433 . S
C602 H598 0.929 . S
C602 C604 1.378 . S
C602 C606 1.350 . S
C603 C606 1.463 . S
C603 C608 1.350 . S
C603 N611 1.427 . S
C604 H595 0.930 . S
C604 C602 1.378 . S
C604 C605 1.367 . S
C605 C604 1.367 . S
C605 C607 1.433 . S
C606 C602 1.350 . S
C606 C603 1.463 . S
C606 N610 1.427 . S
C607 H597 0.929 . S
C607 C605 1.433 . S
C607 N610 1.384 . S
C608 H599 0.929 . S
C608 C600 1.378 . S
C608 C603 1.350 . S
C609 H596 0.929 . S
C609 C601 1.433 . S
C609 N611 1.384 . S
N610 C606 1.427 . S
N610 C607 1.384 . S
N611 C603 1.427 . S
N611 C609 1.384 . S
H612 C618 0.930 . S
H613 C622 0.930 . S
H614 C627 0.929 . S
H615 C625 0.929 . S
H616 C620 0.929 . S
H617 C626 0.929 . S
C618 H612 0.930 . S
C618 C619 1.367 . S
C618 C626 1.378 . S
C619 C618 1.367 . S
C619 C627 1.433 . S
C620 H616 0.929 . S
C620 C622 1.378 . S
C620 C624 1.350 . S
C621 C624 1.463 . S
C621 C626 1.350 . S
C621 N629 1.427 . S
C622 H613 0.930 . S
C622 C620 1.378 . S
C622 C623 1.367 . S
C623 C622 1.367 . S
C623 C625 1.433 . S
C624 C620 1.350 . S
C624 C621 1.463 . S
C624 N628 1.427 . S
C625 H615 0.929 . S
C625 C623 1.433 . S
C625 N628 1.384 . S
C626 H617 0.929 . S
C626 C618 1.378 . S
C626 C621 1.350 . S
C627 H614 0.929 . S
C627 C619 1.433 . S
C627 N629 1.384 . S
N628 C624 1.427 . S
N628 C625 1.384 . S
N629 C621 1.427 . S
N629 C627 1.384 . S
H630 C636 0.930 1_455 S
H631 C640 0.930 . S
H632 C645 0.929 . S
H633 C643 0.929 . S
H634 C638 0.929 . S
H635 C644 0.929 1_455 S
C636 H630 0.930 1_655 S
C636 C637 1.367 . S
C636 C644 1.378 . S
C637 C636 1.367 . S
C637 C645 1.433 . S
C638 H634 0.929 . S
C638 C640 1.378 . S
C638 C642 1.350 . S
C639 C642 1.463 . S
C639 C644 1.350 . S
C639 N647 1.427 . S
C640 H631 0.930 . S
C640 C638 1.378 . S
C640 C641 1.367 . S
C641 C640 1.367 . S
C641 C643 1.433 1_655 S
C642 C638 1.350 . S
C642 C639 1.463 . S
C642 N646 1.427 1_655 S
C643 H633 0.929 . S
C643 C641 1.433 1_455 S
C643 N646 1.384 . S
C644 H635 0.929 1_655 S
C644 C636 1.378 . S
C644 C639 1.350 . S
C645 H632 0.929 . S
C645 C637 1.433 . S
C645 N647 1.384 . S
N646 C642 1.427 1_455 S
N646 C643 1.384 . S
N647 C639 1.427 . S
N647 C645 1.384 . S
H648 C654 0.930 . S
H649 C658 0.930 . S
H650 C663 0.929 . S
H651 C661 0.929 . S
H652 C656 0.929 . S
H653 C662 0.929 . S
C654 H648 0.930 . S
C654 C655 1.367 . S
C654 C662 1.378 . S
C655 C654 1.367 . S
C655 C663 1.433 . S
C656 H652 0.929 . S
C656 C658 1.378 . S
C656 C660 1.350 . S
C657 C660 1.463 . S
C657 C662 1.350 . S
C657 N665 1.427 . S
C658 H649 0.930 . S
C658 C656 1.378 . S
C658 C659 1.367 . S
C659 C658 1.367 . S
C659 C661 1.433 . S
C660 C656 1.350 . S
C660 C657 1.463 . S
C660 N664 1.427 . S
C661 H651 0.929 . S
C661 C659 1.433 . S
C661 N664 1.384 . S
C662 H653 0.929 . S
C662 C654 1.378 . S
C662 C657 1.350 . S
C663 H650 0.929 . S
C663 C655 1.433 . S
C663 N665 1.384 . S
N664 C660 1.427 . S
N664 C661 1.384 . S
N665 C657 1.427 . S
N665 C663 1.384 . S
H666 C672 0.930 . S
H667 C676 0.930 . S
H668 C681 0.929 . S
H669 C679 0.929 . S
H670 C674 0.929 . S
H671 C680 0.929 . S
C672 H666 0.930 . S
C672 C673 1.367 . S
C672 C680 1.378 . S
C673 C672 1.367 . S
C673 C681 1.433 . S
C674 H670 0.929 . S
C674 C676 1.378 . S
C674 C678 1.350 . S
C675 C678 1.463 . S
C675 C680 1.350 . S
C675 N683 1.427 . S
C676 H667 0.930 . S
C676 C674 1.378 . S
C676 C677 1.367 . S
C677 C676 1.367 . S
C677 C679 1.433 . S
C678 C674 1.350 . S
C678 C675 1.463 . S
C678 N682 1.427 . S
C679 H669 0.929 . S
C679 C677 1.433 . S
C679 N682 1.384 . S
C680 H671 0.929 . S
C680 C672 1.378 . S
C680 C675 1.350 . S
C681 H668 0.929 . S
C681 C673 1.433 . S
C681 N683 1.384 . S
N682 C678 1.427 . S
N682 C679 1.384 . S
N683 C675 1.427 . S
N683 C681 1.384 . S
H684 C690 0.930 1_554 S
H685 C694 0.930 . S
H686 C699 0.929 . S
H687 C697 0.929 . S
H688 C692 0.929 . S
H689 C698 0.929 . S
C690 H684 0.930 1_556 S
C690 C691 1.367 1_545 S
C690 C698 1.378 1_546 S
C691 C690 1.367 1_565 S
C691 C699 1.433 . S
C692 H688 0.929 . S
C692 C694 1.378 . S
C692 C696 1.350 . S
C693 C696 1.463 . S
C693 C698 1.350 1_556 S
C693 N701 1.427 . S
C694 H685 0.930 . S
C694 C692 1.378 . S
C694 C695 1.367 1_556 S
C695 C694 1.367 1_554 S
C695 C697 1.433 . S
C696 C692 1.350 . S
C696 C693 1.463 . S
C696 N700 1.427 1_556 S
C697 H687 0.929 . S
C697 C695 1.433 . S
C697 N700 1.384 . S
C698 H689 0.929 . S
C698 C690 1.378 1_564 S
C698 C693 1.350 1_554 S
C699 H686 0.929 . S
C699 C691 1.433 . S
C699 N701 1.384 . S
N700 C696 1.427 1_554 S
N700 C697 1.384 . S
N701 C693 1.427 . S
N701 C699 1.384 . S
H702 C708 0.930 . S
H703 C712 0.930 . S
H704 C717 0.929 . S
H705 C715 0.929 . S
H706 C710 0.929 . S
H707 C716 0.929 . S
C708 H702 0.930 . S
C708 C709 1.367 . S
C708 C716 1.378 . S
C709 C708 1.367 . S
C709 C717 1.433 . S
C710 H706 0.929 . S
C710 C712 1.378 . S
C710 C714 1.350 . S
C711 C714 1.463 . S
C711 C716 1.350 . S
C711 N719 1.427 . S
C712 H703 0.930 . S
C712 C710 1.378 . S
C712 C713 1.367 . S
C713 C712 1.367 . S
C713 C715 1.433 . S
C714 C710 1.350 . S
C714 C711 1.463 . S
C714 N718 1.427 . S
C715 H705 0.929 . S
C715 C713 1.433 . S
C715 N718 1.384 . S
C716 H707 0.929 . S
C716 C708 1.378 . S
C716 C711 1.350 . S
C717 H704 0.929 . S
C717 C709 1.433 . S
C717 N719 1.384 . S
N718 C714 1.427 . S
N718 C715 1.384 . S
N719 C711 1.427 . S
N719 C717 1.384 . S
H720 C726 0.930 . S
H721 C730 0.930 . S
H722 C735 0.929 . S
H723 C733 0.929 . S
H724 C728 0.929 . S
H725 C734 0.929 . S
C726 H720 0.930 . S
C726 C727 1.367 . S
C726 C734 1.378 . S
C727 C726 1.367 . S
C727 C735 1.433 . S
C728 H724 0.929 . S
C728 C730 1.378 . S
C728 C732 1.350 . S
C729 C732 1.463 . S
C729 C734 1.350 . S
C729 N737 1.427 . S
C730 H721 0.930 . S
C730 C728 1.378 . S
C730 C731 1.367 . S
C731 C730 1.367 . S
C731 C733 1.433 . S
C732 C728 1.350 . S
C732 C729 1.463 . S
C732 N736 1.427 . S
C733 H723 0.929 . S
C733 C731 1.433 . S
C733 N736 1.384 . S
C734 H725 0.929 . S
C734 C726 1.378 . S
C734 C729 1.350 . S
C735 H722 0.929 . S
C735 C727 1.433 . S
C735 N737 1.384 . S
N736 C732 1.427 . S
N736 C733 1.384 . S
N737 C729 1.427 . S
N737 C735 1.384 . S
H738 C744 0.930 . S
H739 C748 0.930 . S
H740 C753 0.929 . S
H741 C751 0.929 . S
H742 C746 0.929 . S
H743 C752 0.929 . S
C744 H738 0.930 . S
C744 C745 1.367 . S
C744 C752 1.378 . S
C745 C744 1.367 . S
C745 C753 1.433 . S
C746 H742 0.929 . S
C746 C748 1.378 . S
C746 C750 1.350 . S
C747 C750 1.463 . S
C747 C752 1.350 . S
C747 N755 1.427 . S
C748 H739 0.930 . S
C748 C746 1.378 . S
C748 C749 1.367 . S
C749 C748 1.367 . S
C749 C751 1.433 . S
C750 C746 1.350 . S
C750 C747 1.463 . S
C750 N754 1.427 . S
C751 H741 0.929 . S
C751 C749 1.433 . S
C751 N754 1.384 . S
C752 H743 0.929 . S
C752 C744 1.378 . S
C752 C747 1.350 . S
C753 H740 0.929 . S
C753 C745 1.433 . S
C753 N755 1.384 . S
N754 C750 1.427 . S
N754 C751 1.384 . S
N755 C747 1.427 . S
N755 C753 1.384 . S
H756 C762 0.930 . S
H757 C766 0.930 . S
H758 C771 0.929 . S
H759 C769 0.929 . S
H760 C764 0.929 . S
H761 C770 0.929 . S
C762 H756 0.930 . S
C762 C763 1.367 . S
C762 C770 1.378 . S
C763 C762 1.367 . S
C763 C771 1.433 . S
C764 H760 0.929 . S
C764 C766 1.378 . S
C764 C768 1.350 . S
C765 C768 1.463 . S
C765 C770 1.350 . S
C765 N773 1.427 . S
C766 H757 0.930 . S
C766 C764 1.378 . S
C766 C767 1.367 . S
C767 C766 1.367 . S
C767 C769 1.433 . S
C768 C764 1.350 . S
C768 C765 1.463 . S
C768 N772 1.427 . S
C769 H759 0.929 . S
C769 C767 1.433 . S
C769 N772 1.384 . S
C770 H761 0.929 . S
C770 C762 1.378 . S
C770 C765 1.350 . S
C771 H758 0.929 . S
C771 C763 1.433 . S
C771 N773 1.384 . S
N772 C768 1.427 . S
N772 C769 1.384 . S
N773 C765 1.427 . S
N773 C771 1.384 . S
H774 C780 0.930 . S
H775 C784 0.930 . S
H776 C789 0.929 . S
H777 C787 0.929 . S
H778 C782 0.929 . S
H779 C788 0.929 . S
C780 H774 0.930 . S
C780 C781 1.367 . S
C780 C788 1.378 . S
C781 C780 1.367 . S
C781 C789 1.433 . S
C782 H778 0.929 . S
C782 C784 1.378 . S
C782 C786 1.350 . S
C783 C786 1.463 . S
C783 C788 1.350 . S
C783 N791 1.427 . S
C784 H775 0.930 . S
C784 C782 1.378 . S
C784 C785 1.367 . S
C785 C784 1.367 . S
C785 C787 1.433 . S
C786 C782 1.350 . S
C786 C783 1.463 . S
C786 N790 1.427 . S
C787 H777 0.929 . S
C787 C785 1.433 . S
C787 N790 1.384 . S
C788 H779 0.929 . S
C788 C780 1.378 . S
C788 C783 1.350 . S
C789 H776 0.929 . S
C789 C781 1.433 . S
C789 N791 1.384 . S
N790 C786 1.427 . S
N790 C787 1.384 . S
N791 C783 1.427 . S
N791 C789 1.384 . S
H792 C798 0.930 . S
H793 C802 0.930 . S
H794 C807 0.929 . S
H795 C805 0.929 . S
H796 C800 0.929 . S
H797 C806 0.929 . S
C798 H792 0.930 . S
C798 C799 1.367 . S
C798 C806 1.378 . S
C799 C798 1.367 . S
C799 C807 1.433 . S
C800 H796 0.929 . S
C800 C802 1.378 . S
C800 C804 1.350 . S
C801 C804 1.463 . S
C801 C806 1.350 . S
C801 N809 1.427 . S
C802 H793 0.930 . S
C802 C800 1.378 . S
C802 C803 1.367 . S
C803 C802 1.367 . S
C803 C805 1.433 . S
C804 C800 1.350 . S
C804 C801 1.463 . S
C804 N808 1.427 . S
C805 H795 0.929 . S
C805 C803 1.433 . S
C805 N808 1.384 . S
C806 H797 0.929 . S
C806 C798 1.378 . S
C806 C801 1.350 . S
C807 H794 0.929 . S
C807 C799 1.433 . S
C807 N809 1.384 . S
N808 C804 1.427 . S
N808 C805 1.384 . S
N809 C801 1.427 . S
N809 C807 1.384 . S
H810 C816 0.930 . S
H811 C820 0.930 . S
H812 C825 0.929 . S
H813 C823 0.929 . S
H814 C818 0.929 . S
H815 C824 0.929 . S
C816 H810 0.930 . S
C816 C817 1.367 . S
C816 C824 1.378 . S
C817 C816 1.367 . S
C817 C825 1.433 1_545 S
C818 H814 0.929 . S
C818 C820 1.378 . S
C818 C822 1.350 1_565 S
C819 C822 1.463 . S
C819 C824 1.350 . S
C819 N827 1.427 1_545 S
C820 H811 0.930 . S
C820 C818 1.378 . S
C820 C821 1.367 1_565 S
C821 C820 1.367 1_545 S
C821 C823 1.433 . S
C822 C818 1.350 1_545 S
C822 C819 1.463 . S
C822 N826 1.427 . S
C823 H813 0.929 . S
C823 C821 1.433 . S
C823 N826 1.384 . S
C824 H815 0.929 . S
C824 C816 1.378 . S
C824 C819 1.350 . S
C825 H812 0.929 . S
C825 C817 1.433 1_565 S
C825 N827 1.384 . S
N826 C822 1.427 . S
N826 C823 1.384 . S
N827 C819 1.427 1_565 S
N827 C825 1.384 . S
H828 C834 0.930 . S
H829 C838 0.930 . S
H830 C843 0.929 . S
H831 C841 0.929 . S
H832 C836 0.929 . S
H833 C842 0.929 . S
C834 H828 0.930 . S
C834 C835 1.367 . S
C834 C842 1.378 . S
C835 C834 1.367 . S
C835 C843 1.433 . S
C836 H832 0.929 . S
C836 C838 1.378 . S
C836 C840 1.350 . S
C837 C840 1.463 . S
C837 C842 1.350 . S
C837 N845 1.427 . S
C838 H829 0.930 . S
C838 C836 1.378 . S
C838 C839 1.367 . S
C839 C838 1.367 . S
C839 C841 1.433 . S
C840 C836 1.350 . S
C840 C837 1.463 . S
C840 N844 1.427 . S
C841 H831 0.929 . S
C841 C839 1.433 . S
C841 N844 1.384 . S
C842 H833 0.929 . S
C842 C834 1.378 . S
C842 C837 1.350 . S
C843 H830 0.929 . S
C843 C835 1.433 . S
C843 N845 1.384 . S
N844 C840 1.427 . S
N844 C841 1.384 . S
N845 C837 1.427 . S
N845 C843 1.384 . S
H846 C852 0.930 . S
H847 C856 0.930 . S
H848 C861 0.929 . S
H849 C859 0.929 . S
H850 C854 0.929 . S
H851 C860 0.929 . S
C852 H846 0.930 . S
C852 C853 1.367 . S
C852 C860 1.378 . S
C853 C852 1.367 . S
C853 C861 1.433 . S
C854 H850 0.929 . S
C854 C856 1.378 . S
C854 C858 1.350 . S
C855 C858 1.463 . S
C855 C860 1.350 . S
C855 N863 1.427 . S
C856 H847 0.930 . S
C856 C854 1.378 . S
C856 C857 1.367 . S
C857 C856 1.367 . S
C857 C859 1.433 . S
C858 C854 1.350 . S
C858 C855 1.463 . S
C858 N862 1.427 . S
C859 H849 0.929 . S
C859 C857 1.433 . S
C859 N862 1.384 . S
C860 H851 0.929 . S
C860 C852 1.378 . S
C860 C855 1.350 . S
C861 H848 0.929 . S
C861 C853 1.433 . S
C861 N863 1.384 . S
N862 C858 1.427 . S
N862 C859 1.384 . S
N863 C855 1.427 . S
N863 C861 1.384 . S
H864 C870 0.930 . S
H865 C874 0.930 . S
H866 C879 0.929 . S
H867 C877 0.929 . S
H868 C872 0.929 . S
H869 C878 0.929 . S
C870 H864 0.930 . S
C870 C871 1.367 . S
C870 C878 1.378 . S
C871 C870 1.367 . S
C871 C879 1.433 . S
C872 H868 0.929 . S
C872 C874 1.378 . S
C872 C876 1.350 . S
C873 C876 1.463 . S
C873 C878 1.350 . S
C873 N881 1.427 . S
C874 H865 0.930 . S
C874 C872 1.378 . S
C874 C875 1.367 . S
C875 C874 1.367 . S
C875 C877 1.433 . S
C876 C872 1.350 . S
C876 C873 1.463 . S
C876 N880 1.427 . S
C877 H867 0.929 . S
C877 C875 1.433 . S
C877 N880 1.384 . S
C878 H869 0.929 . S
C878 C870 1.378 . S
C878 C873 1.350 . S
C879 H866 0.929 . S
C879 C871 1.433 . S
C879 N881 1.384 . S
N880 C876 1.427 . S
N880 C877 1.384 . S
N881 C873 1.427 . S
N881 C879 1.384 . S
H882 C888 0.921 1_655 S
H883 C892 0.930 . S
H884 C897 0.929 . S
H885 C895 0.929 . S
H886 C890 0.929 1_455 S
H887 C896 0.929 . S
C888 H882 0.921 1_455 S
C888 C889 1.396 . S
C888 C896 1.359 1_455 S
C889 C888 1.396 . S
C889 C897 1.433 . S
C890 H886 0.929 1_655 S
C890 C892 1.378 . S
C890 C894 1.350 . S
C891 C894 1.463 . S
C891 C896 1.350 . S
C891 N899 1.427 1_655 S
C892 H883 0.930 . S
C892 C890 1.378 . S
C892 C893 1.367 . S
C893 C892 1.367 . S
C893 C895 1.433 . S
C894 C890 1.350 . S
C894 C891 1.463 . S
C894 N898 1.427 . S
C895 H885 0.929 . S
C895 C893 1.433 . S
C895 N898 1.384 . S
C896 H887 0.929 . S
C896 C888 1.359 1_655 S
C896 C891 1.350 . S
C897 H884 0.929 . S
C897 C889 1.433 . S
C897 N899 1.384 . S
N898 C894 1.427 . S
N898 C895 1.384 . S
N899 C891 1.427 1_455 S
N899 C897 1.384 . S
H900 C906 0.930 . S
H901 C910 0.930 . S
H902 C915 0.929 . S
H903 C913 0.929 . S
H904 C908 0.929 . S
H905 C914 0.929 . S
C906 H900 0.930 . S
C906 C907 1.367 . S
C906 C914 1.378 . S
C907 C906 1.367 . S
C907 C915 1.433 . S
C908 H904 0.929 . S
C908 C910 1.378 . S
C908 C912 1.350 . S
C909 C912 1.463 . S
C909 C914 1.350 . S
C909 N917 1.427 . S
C910 H901 0.930 . S
C910 C908 1.378 . S
C910 C911 1.367 . S
C911 C910 1.367 . S
C911 C913 1.433 . S
C912 C908 1.350 . S
C912 C909 1.463 . S
C912 N916 1.427 . S
C913 H903 0.929 . S
C913 C911 1.433 . S
C913 N916 1.384 . S
C914 H905 0.929 . S
C914 C906 1.378 . S
C914 C909 1.350 . S
C915 H902 0.929 . S
C915 C907 1.433 . S
C915 N917 1.384 . S
N916 C912 1.427 . S
N916 C913 1.384 . S
N917 C909 1.427 . S
N917 C915 1.384 . S
H918 C924 0.930 . S
H919 C928 0.930 . S
H920 C933 0.929 . S
H921 C931 0.929 . S
H922 C926 0.929 . S
H923 C932 0.929 . S
C924 H918 0.930 . S
C924 C925 1.367 . S
C924 C932 1.378 . S
C925 C924 1.367 . S
C925 C933 1.433 . S
C926 H922 0.929 . S
C926 C928 1.378 . S
C926 C930 1.350 . S
C927 C930 1.463 . S
C927 C932 1.350 . S
C927 N935 1.427 . S
C928 H919 0.930 . S
C928 C926 1.378 . S
C928 C929 1.367 . S
C929 C928 1.367 . S
C929 C931 1.433 . S
C930 C926 1.350 . S
C930 C927 1.463 . S
C930 N934 1.427 . S
C931 H921 0.929 . S
C931 C929 1.433 . S
C931 N934 1.384 . S
C932 H923 0.929 . S
C932 C924 1.378 . S
C932 C927 1.350 . S
C933 H920 0.929 . S
C933 C925 1.433 . S
C933 N935 1.384 . S
N934 C930 1.427 . S
N934 C931 1.384 . S
N935 C927 1.427 . S
N935 C933 1.384 . S
H936 C942 0.930 . S
H937 C946 0.930 . S
H938 C951 0.929 . S
H939 C949 0.929 . S
H940 C944 0.929 . S
H941 C950 0.929 . S
C942 H936 0.930 . S
C942 C943 1.367 . S
C942 C950 1.378 . S
C943 C942 1.367 . S
C943 C951 1.433 . S
C944 H940 0.929 . S
C944 C946 1.378 . S
C944 C948 1.350 . S
C945 C948 1.463 . S
C945 C950 1.350 . S
C945 N953 1.427 . S
C946 H937 0.930 . S
C946 C944 1.378 . S
C946 C947 1.367 . S
C947 C946 1.367 . S
C947 C949 1.433 . S
C948 C944 1.350 . S
C948 C945 1.463 . S
C948 N952 1.427 . S
C949 H939 0.929 . S
C949 C947 1.433 . S
C949 N952 1.384 . S
C950 H941 0.929 . S
C950 C942 1.378 . S
C950 C945 1.350 . S
C951 H938 0.929 . S
C951 C943 1.433 . S
C951 N953 1.384 . S
N952 C948 1.427 . S
N952 C949 1.384 . S
N953 C945 1.427 . S
N953 C951 1.384 . S
H954 C960 0.930 . S
H955 C964 0.930 . S
H956 C969 0.929 1_554 S
H957 C967 0.929 . S
H958 C962 0.929 . S
H959 C968 0.929 . S
C960 H954 0.930 . S
C960 C961 1.367 . S
C960 C968 1.378 . S
C961 C960 1.367 . S
C961 C969 1.433 1_655 S
C962 H958 0.929 . S
C962 C964 1.378 . S
C962 C966 1.387 . S
C963 C966 1.451 1_655 S
C963 C968 1.350 . S
C963 N971 1.427 1_655 S
C964 H955 0.930 . S
C964 C962 1.378 . S
C964 C965 1.367 . S
C965 C964 1.367 . S
C965 C967 1.433 1_455 S
C966 C962 1.387 . S
C966 C963 1.451 1_455 S
C966 N970 1.400 1_455 S
C967 H957 0.929 . S
C967 C965 1.433 1_655 S
C967 N970 1.384 . S
C968 H959 0.929 . S
C968 C960 1.378 . S
C968 C963 1.350 . S
C969 H956 0.929 1_556 S
C969 C961 1.433 1_455 S
C969 N971 1.384 . S
N970 C966 1.400 1_655 S
N970 C967 1.384 . S
N971 C963 1.427 1_455 S
N971 C969 1.384 . S
H972 C978 0.930 . S
H973 C982 0.930 . S
H974 C987 0.929 . S
H975 C985 0.929 . S
H976 C980 0.929 . S
H977 C986 0.929 . S
C978 H972 0.930 . S
C978 C979 1.367 . S
C978 C986 1.378 . S
C979 C978 1.367 . S
C979 C987 1.433 . S
C980 H976 0.929 . S
C980 C982 1.378 . S
C980 C984 1.350 . S
C981 C984 1.463 . S
C981 C986 1.350 . S
C981 N989 1.427 . S
C982 H973 0.930 . S
C982 C980 1.378 . S
C982 C983 1.367 . S
C983 C982 1.367 . S
C983 C985 1.433 . S
C984 C980 1.350 . S
C984 C981 1.463 . S
C984 N988 1.427 . S
C985 H975 0.929 . S
C985 C983 1.433 . S
C985 N988 1.384 . S
C986 H977 0.929 . S
C986 C978 1.378 . S
C986 C981 1.350 . S
C987 H974 0.929 . S
C987 C979 1.433 . S
C987 N989 1.384 . S
N988 C984 1.427 . S
N988 C985 1.384 . S
N989 C981 1.427 . S
N989 C987 1.384 . S
H990 C996 0.930 . S
H991 C1000 0.930 1_655 S
H992 C1005 0.929 . S
H993 C1003 0.929 . S
H994 C998 0.929 1_655 S
H995 C1004 0.929 . S
C996 H990 0.930 . S
C996 C997 1.367 . S
C996 C1004 1.378 . S
C997 C996 1.367 . S
C997 C1005 1.433 . S
C998 H994 0.929 1_455 S
C998 C1000 1.378 . S
C998 C1002 1.350 . S
C999 C1002 1.463 . S
C999 C1004 1.350 . S
C999 N1007 1.427 . S
C1000 H991 0.930 1_455 S
C1000 C998 1.378 . S
C1000 C1001 1.367 . S
C1001 C1000 1.367 . S
C1001 C1003 1.433 . S
C1002 C998 1.350 . S
C1002 C999 1.463 . S
C1002 N1006 1.427 . S
C1003 H993 0.929 . S
C1003 C1001 1.433 . S
C1003 N1006 1.384 . S
C1004 H995 0.929 . S
C1004 C996 1.378 . S
C1004 C999 1.350 . S
C1005 H992 0.929 . S
C1005 C997 1.433 . S
C1005 N1007 1.384 . S
N1006 C1002 1.427 . S
N1006 C1003 1.384 . S
N1007 C999 1.427 . S
N1007 C1005 1.384 . S
H1008 C1014 0.930 . S
H1009 C1018 0.930 . S
H1010 C1023 0.929 . S
H1011 C1021 0.929 . S
H1012 C1016 0.929 . S
H1013 C1022 0.929 . S
C1014 H1008 0.930 . S
C1014 C1015 1.367 . S
C1014 C1022 1.378 . S
C1015 C1014 1.367 . S
C1015 C1023 1.433 . S
C1016 H1012 0.929 . S
C1016 C1018 1.378 . S
C1016 C1020 1.350 . S
C1017 C1020 1.463 . S
C1017 C1022 1.350 . S
C1017 N1025 1.427 . S
C1018 H1009 0.930 . S
C1018 C1016 1.378 . S
C1018 C1019 1.367 . S
C1019 C1018 1.367 . S
C1019 C1021 1.433 . S
C1020 C1016 1.350 . S
C1020 C1017 1.463 . S
C1020 N1024 1.427 . S
C1021 H1011 0.929 . S
C1021 C1019 1.433 . S
C1021 N1024 1.384 . S
C1022 H1013 0.929 . S
C1022 C1014 1.378 . S
C1022 C1017 1.350 . S
C1023 H1010 0.929 . S
C1023 C1015 1.433 . S
C1023 N1025 1.384 . S
N1024 C1020 1.427 . S
N1024 C1021 1.384 . S
N1025 C1017 1.427 . S
N1025 C1023 1.384 . S
H1026 C1032 0.930 . S
H1027 C1036 0.930 . S
H1028 C1041 0.929 1_556 S
H1029 C1039 0.929 . S
H1030 C1034 0.929 . S
H1031 C1040 0.929 . S
C1032 H1026 0.930 . S
C1032 C1033 1.367 . S
C1032 C1040 1.378 . S
C1033 C1032 1.367 . S
C1033 C1041 1.433 . S
C1034 H1030 0.929 . S
C1034 C1036 1.378 . S
C1034 C1038 1.350 . S
C1035 C1038 1.463 . S
C1035 C1040 1.350 . S
C1035 N1043 1.427 . S
C1036 H1027 0.930 . S
C1036 C1034 1.378 . S
C1036 C1037 1.367 . S
C1037 C1036 1.367 . S
C1037 C1039 1.433 . S
C1038 C1034 1.350 . S
C1038 C1035 1.463 . S
C1038 N1042 1.427 . S
C1039 H1029 0.929 . S
C1039 C1037 1.433 . S
C1039 N1042 1.384 . S
C1040 H1031 0.929 . S
C1040 C1032 1.378 . S
C1040 C1035 1.350 . S
C1041 H1028 0.929 1_554 S
C1041 C1033 1.433 . S
C1041 N1043 1.384 . S
N1042 C1038 1.427 . S
N1042 C1039 1.384 . S
N1043 C1035 1.427 . S
N1043 C1041 1.384 . S
H1044 C1050 0.930 . S
H1045 C1054 0.930 . S
H1046 C1059 0.929 . S
H1047 C1057 0.929 . S
H1048 C1052 0.929 . S
H1049 C1058 0.929 . S
C1050 H1044 0.930 . S
C1050 C1051 1.367 . S
C1050 C1058 1.378 . S
C1051 C1050 1.367 . S
C1051 C1059 1.433 . S
C1052 H1048 0.929 . S
C1052 C1054 1.378 . S
C1052 C1056 1.350 . S
C1053 C1056 1.463 . S
C1053 C1058 1.350 . S
C1053 N1061 1.427 . S
C1054 H1045 0.930 . S
C1054 C1052 1.378 . S
C1054 C1055 1.367 . S
C1055 C1054 1.367 . S
C1055 C1057 1.433 . S
C1056 C1052 1.350 . S
C1056 C1053 1.463 . S
C1056 N1060 1.427 . S
C1057 H1047 0.929 . S
C1057 C1055 1.433 . S
C1057 N1060 1.384 . S
C1058 H1049 0.929 . S
C1058 C1050 1.378 . S
C1058 C1053 1.350 . S
C1059 H1046 0.929 . S
C1059 C1051 1.433 . S
C1059 N1061 1.384 . S
N1060 C1056 1.427 . S
N1060 C1057 1.384 . S
N1061 C1053 1.427 . S
N1061 C1059 1.384 . S
H1062 C1068 0.930 . S
H1063 C1072 0.930 . S
H1064 C1077 0.929 . S
H1065 C1075 0.929 . S
H1066 C1070 0.929 . S
H1067 C1076 0.929 . S
C1068 H1062 0.930 . S
C1068 C1069 1.367 . S
C1068 C1076 1.378 . S
C1069 C1068 1.367 . S
C1069 C1077 1.433 . S
C1070 H1066 0.929 . S
C1070 C1072 1.378 . S
C1070 C1074 1.350 . S
C1071 C1074 1.463 . S
C1071 C1076 1.350 . S
C1071 N1079 1.427 . S
C1072 H1063 0.930 . S
C1072 C1070 1.378 . S
C1072 C1073 1.367 . S
C1073 C1072 1.367 . S
C1073 C1075 1.433 . S
C1074 C1070 1.350 . S
C1074 C1071 1.463 . S
C1074 N1078 1.427 . S
C1075 H1065 0.929 . S
C1075 C1073 1.433 . S
C1075 N1078 1.384 . S
C1076 H1067 0.929 . S
C1076 C1068 1.378 . S
C1076 C1071 1.350 . S
C1077 H1064 0.929 . S
C1077 C1069 1.433 . S
C1077 N1079 1.384 . S
N1078 C1074 1.427 . S
N1078 C1075 1.384 . S
N1079 C1071 1.427 . S
N1079 C1077 1.384 . S
H1080 C1086 0.930 . S
H1081 C1090 0.930 . S
H1082 C1095 0.929 . S
H1083 C1093 0.929 . S
H1084 C1088 0.929 . S
H1085 C1094 0.929 . S
C1086 H1080 0.930 . S
C1086 C1087 1.367 . S
C1086 C1094 1.378 . S
C1087 C1086 1.367 . S
C1087 C1095 1.433 . S
C1088 H1084 0.929 . S
C1088 C1090 1.378 . S
C1088 C1092 1.350 . S
C1089 C1092 1.463 . S
C1089 C1094 1.350 . S
C1089 N1097 1.427 . S
C1090 H1081 0.930 . S
C1090 C1088 1.378 . S
C1090 C1091 1.367 . S
C1091 C1090 1.367 . S
C1091 C1093 1.433 . S
C1092 C1088 1.350 . S
C1092 C1089 1.463 . S
C1092 N1096 1.427 . S
C1093 H1083 0.929 . S
C1093 C1091 1.433 . S
C1093 N1096 1.384 . S
C1094 H1085 0.929 . S
C1094 C1086 1.378 . S
C1094 C1089 1.350 . S
C1095 H1082 0.929 . S
C1095 C1087 1.433 . S
C1095 N1097 1.384 . S
N1096 C1092 1.427 . S
N1096 C1093 1.384 . S
N1097 C1089 1.427 . S
N1097 C1095 1.384 . S
H1098 C1104 0.930 . S
H1099 C1108 0.930 . S
H1100 C1113 0.929 . S
H1101 C1111 0.929 . S
H1102 C1106 0.929 . S
H1103 C1112 0.929 . S
C1104 H1098 0.930 . S
C1104 C1105 1.367 . S
C1104 C1112 1.378 . S
C1105 C1104 1.367 . S
C1105 C1113 1.433 . S
C1106 H1102 0.929 . S
C1106 C1108 1.378 . S
C1106 C1110 1.350 . S
C1107 C1110 1.463 . S
C1107 C1112 1.350 . S
C1107 N1115 1.427 . S
C1108 H1099 0.930 . S
C1108 C1106 1.378 . S
C1108 C1109 1.367 . S
C1109 C1108 1.367 . S
C1109 C1111 1.433 . S
C1110 C1106 1.350 . S
C1110 C1107 1.463 . S
C1110 N1114 1.427 . S
C1111 H1101 0.929 . S
C1111 C1109 1.433 . S
C1111 N1114 1.384 . S
C1112 H1103 0.929 . S
C1112 C1104 1.378 . S
C1112 C1107 1.350 . S
C1113 H1100 0.929 . S
C1113 C1105 1.433 . S
C1113 N1115 1.384 . S
N1114 C1110 1.427 . S
N1114 C1111 1.384 . S
N1115 C1107 1.427 . S
N1115 C1113 1.384 . S
H1116 C1122 0.930 . S
H1117 C1126 0.930 . S
H1118 C1131 0.929 . S
H1119 C1129 0.929 . S
H1120 C1124 0.929 . S
H1121 C1130 0.929 . S
C1122 H1116 0.930 . S
C1122 C1123 1.367 . S
C1122 C1130 1.378 . S
C1123 C1122 1.367 . S
C1123 C1131 1.433 . S
C1124 H1120 0.929 . S
C1124 C1126 1.378 . S
C1124 C1128 1.350 . S
C1125 C1128 1.463 . S
C1125 C1130 1.350 . S
C1125 N1133 1.427 . S
C1126 H1117 0.930 . S
C1126 C1124 1.378 . S
C1126 C1127 1.367 . S
C1127 C1126 1.367 . S
C1127 C1129 1.433 . S
C1128 C1124 1.350 . S
C1128 C1125 1.463 . S
C1128 N1132 1.427 . S
C1129 H1119 0.929 . S
C1129 C1127 1.433 . S
C1129 N1132 1.384 . S
C1130 H1121 0.929 . S
C1130 C1122 1.378 . S
C1130 C1125 1.350 . S
C1131 H1118 0.929 . S
C1131 C1123 1.433 . S
C1131 N1133 1.384 . S
N1132 C1128 1.427 . S
N1132 C1129 1.384 . S
N1133 C1125 1.427 . S
N1133 C1131 1.384 . S
H1134 C1140 0.930 . S
H1135 C1144 0.930 . S
H1136 C1149 0.929 . S
H1137 C1147 0.929 . S
H1138 C1142 0.929 . S
H1139 C1148 0.929 . S
C1140 H1134 0.930 . S
C1140 C1141 1.367 . S
C1140 C1148 1.378 . S
C1141 C1140 1.367 . S
C1141 C1149 1.433 . S
C1142 H1138 0.929 . S
C1142 C1144 1.378 . S
C1142 C1146 1.350 . S
C1143 C1146 1.463 . S
C1143 C1148 1.350 . S
C1143 N1151 1.427 . S
C1144 H1135 0.930 . S
C1144 C1142 1.378 . S
C1144 C1145 1.367 . S
C1145 C1144 1.367 . S
C1145 C1147 1.433 . S
C1146 C1142 1.350 . S
C1146 C1143 1.463 . S
C1146 N1150 1.427 . S
C1147 H1137 0.929 . S
C1147 C1145 1.433 . S
C1147 N1150 1.384 . S
C1148 H1139 0.929 . S
C1148 C1140 1.378 . S
C1148 C1143 1.350 . S
C1149 H1136 0.929 . S
C1149 C1141 1.433 . S
C1149 N1151 1.384 . S
N1150 C1146 1.427 . S
N1150 C1147 1.384 . S
N1151 C1143 1.427 . S
N1151 C1149 1.384 . S
H1152 C1158 0.930 . S
H1153 C1162 0.930 . S
H1154 C1167 0.929 . S
H1155 C1165 0.929 . S
H1156 C1160 0.929 . S
H1157 C1166 0.927 1_554 S
C1158 H1152 0.930 . S
C1158 C1159 1.367 . S
C1158 C1166 1.378 . S
C1159 C1158 1.367 . S
C1159 C1167 1.433 . S
C1160 H1156 0.929 . S
C1160 C1162 1.378 . S
C1160 C1164 1.350 . S
C1161 C1164 1.463 . S
C1161 C1166 1.350 . S
C1161 N1169 1.427 . S
C1162 H1153 0.930 . S
C1162 C1160 1.378 . S
C1162 C1163 1.367 . S
C1163 C1162 1.367 . S
C1163 C1165 1.433 1_556 S
C1164 C1160 1.350 . S
C1164 C1161 1.463 . S
C1164 N1168 1.428 . S
C1165 H1155 0.929 . S
C1165 C1163 1.433 1_554 S
C1165 N1168 1.384 1_554 S
C1166 H1157 0.927 1_556 S
C1166 C1158 1.378 . S
C1166 C1161 1.350 . S
C1167 H1154 0.929 . S
C1167 C1159 1.433 . S
C1167 N1169 1.384 . S
N1168 C1164 1.428 . S
N1168 C1165 1.384 1_556 S
N1169 C1161 1.427 . S
N1169 C1167 1.384 . S
H1170 C1176 0.930 . S
H1171 C1180 0.930 . S
H1172 C1185 0.929 . S
H1173 C1183 0.929 . S
H1174 C1178 0.929 . S
H1175 C1184 0.929 . S
C1176 H1170 0.930 . S
C1176 C1177 1.367 . S
C1176 C1184 1.378 . S
C1177 C1176 1.367 . S
C1177 C1185 1.433 . S
C1178 H1174 0.929 . S
C1178 C1180 1.378 . S
C1178 C1182 1.350 . S
C1179 C1182 1.463 . S
C1179 C1184 1.350 . S
C1179 N1187 1.427 . S
C1180 H1171 0.930 . S
C1180 C1178 1.378 . S
C1180 C1181 1.367 . S
C1181 C1180 1.367 . S
C1181 C1183 1.433 . S
C1182 C1178 1.350 . S
C1182 C1179 1.463 . S
C1182 N1186 1.427 . S
C1183 H1173 0.929 . S
C1183 C1181 1.433 . S
C1183 N1186 1.384 . S
C1184 H1175 0.929 . S
C1184 C1176 1.378 . S
C1184 C1179 1.350 . S
C1185 H1172 0.929 . S
C1185 C1177 1.433 . S
C1185 N1187 1.384 . S
N1186 C1182 1.427 . S
N1186 C1183 1.384 . S
N1187 C1179 1.427 . S
N1187 C1185 1.384 . S
H1188 C1194 0.930 . S
H1189 C1198 0.930 . S
H1190 C1203 0.929 . S
H1191 C1201 0.929 1_556 S
H1192 C1196 0.929 . S
H1193 C1202 0.929 . S
C1194 H1188 0.930 . S
C1194 C1195 1.367 . S
C1194 C1202 1.378 . S
C1195 C1194 1.367 . S
C1195 C1203 1.433 . S
C1196 H1192 0.929 . S
C1196 C1198 1.378 . S
C1196 C1200 1.350 . S
C1197 C1200 1.463 . S
C1197 C1202 1.350 . S
C1197 N1205 1.427 . S
C1198 H1189 0.930 . S
C1198 C1196 1.378 . S
C1198 C1199 1.367 . S
C1199 C1198 1.367 . S
C1199 C1201 1.433 . S
C1200 C1196 1.350 . S
C1200 C1197 1.463 . S
C1200 N1204 1.427 . S
C1201 H1191 0.929 1_554 S
C1201 C1199 1.433 . S
C1201 N1204 1.384 . S
C1202 H1193 0.929 . S
C1202 C1194 1.378 . S
C1202 C1197 1.350 . S
C1203 H1190 0.929 . S
C1203 C1195 1.433 . S
C1203 N1205 1.384 . S
N1204 C1200 1.427 . S
N1204 C1201 1.384 . S
N1205 C1197 1.427 . S
N1205 C1203 1.384 . S
H1206 C1212 0.930 . S
H1207 C1216 0.930 . S
H1208 C1221 0.929 . S
H1209 C1219 0.929 . S
H1210 C1214 0.929 . S
H1211 C1220 0.919 1_545 S
C1212 H1206 0.930 . S
C1212 C1213 1.367 . S
C1212 C1220 1.360 1_545 S
C1213 C1212 1.367 . S
C1213 C1221 1.433 1_545 S
C1214 H1210 0.929 . S
C1214 C1216 1.378 . S
C1214 C1218 1.350 . S
C1215 C1218 1.463 . S
C1215 C1220 1.379 . S
C1215 N1223 1.427 . S
C1216 H1207 0.930 . S
C1216 C1214 1.378 . S
C1216 C1217 1.367 . S
C1217 C1216 1.367 . S
C1217 C1219 1.433 . S
C1218 C1214 1.350 . S
C1218 C1215 1.463 . S
C1218 N1222 1.427 . S
C1219 H1209 0.929 . S
C1219 C1217 1.433 . S
C1219 N1222 1.384 . S
C1220 H1211 0.919 1_565 S
C1220 C1212 1.360 1_565 S
C1220 C1215 1.379 . S
C1221 H1208 0.929 . S
C1221 C1213 1.433 1_565 S
C1221 N1223 1.384 . S
N1222 C1218 1.427 . S
N1222 C1219 1.384 . S
N1223 C1215 1.427 . S
N1223 C1221 1.384 . S
C371 C203 1.679 . S
C367 C66 1.715 . S
C389 C211 1.005 . S
C385 C76 1.206 . S
C403 C93 1.774 . S
C407 C231 1.752 . S
C425 C245 1.463 . S
C421 C54 1.491 1_545 S
C443 C260 1.503 . S
C439 C126 1.503 . S
C461 C274 1.839 . S
C457 C150 1.842 . S
C475 C136 1.248 . S
C479 C288 1.251 . S
C497 C294 1.702 . S
C493 C117 1.765 . S
C511 C141 1.317 . S
C515 C308 1.288 . S
C533 C329 1.355 . S
C529 C112 1.378 . S
C547 C124 1.480 . S
C551 C309 1.254 . S
C569 C330 1.300 . S
C565 C148 1.299 . S
C583 C88 1.285 . S
C587 C337 1.131 . S
C601 C52 1.591 . S
C605 C343 1.564 . S
C619 C64 1.278 . S
C623 C336 1.249 . S
C637 C78 1.188 . S
C641 C344 1.191 . S
C655 C45 1.705 . S
C659 C238 1.683 . S
C673 C177 1.867 . S
C677 C239 1.654 . S
C695 C196 1.377 . S
C691 C189 1.417 1_565 S
C713 C217 1.545 . S
C709 C102 1.565 . S
C727 C57 1.716 . S
C731 C252 1.707 . S
C749 C302 1.471 . S
C745 C138 1.466 . S
C767 C253 1.527 . S
C763 C114 1.729 . S
C785 C281 1.450 . S
C781 C153 1.755 . S
C803 C287 1.684 . S
C799 C174 1.717 . S
C817 C184 1.209 . S
C821 C295 1.020 . S
C835 C105 1.778 . S
C839 C259 1.746 . S
C857 C273 1.467 . S
C853 C162 1.492 . S
C871 C42 1.502 . S
C875 C232 1.501 . S
C893 C246 1.839 . S
C889 C6 1.840 . S
C911 C204 1.251 . S
C907 C16 1.249 . S
C929 C210 1.697 . S
C925 C33 1.765 1_455 S
C943 C21 1.320 . S
C947 C322 1.288 . S
C961 C28 1.378 1_556 S
C965 C315 1.360 . S
C979 C40 1.481 . S
C983 C323 1.249 . S
C997 C4 1.294 . S
C1001 C316 1.304 . S
C1019 C351 1.110 . S
C1015 C100 1.281 . S
C1037 C357 1.562 . S
C1033 C160 1.586 1_554 S
C1055 C350 1.250 . S
C1051 C172 1.278 . S
C1069 C186 1.183 1_554 S
C1073 C358 1.190 . S
C1087 C129 1.706 . S
C1091 C266 1.675 . S
C1109 C267 1.663 . S
C1105 C69 1.869 . S
C1127 C280 1.392 . S
C1123 C81 1.424 . S
C1145 C301 1.548 . S
C1141 C90 1.567 . S
C1159 C165 1.722 . S
C1163 C224 1.702 . S
C1181 C218 1.471 . S
C1177 C18 1.468 . S
C1195 C30 1.729 . S
C1199 C225 1.526 . S
C1217 C197 1.426 . S
C1213 C9 1.754 . S
