# Generated by pormake.
# Topology cml, (3,6)-cn, num edge types: 1
# Building blocks:
#     Node 0, Type 0, BuildingBlock: BETDAH_clean_linker_0, # of connection points: 3
#     Node 1, Type 0, BuildingBlock: BETDAH_clean_linker_0, # of connection points: 3
#     Node 2, Type 0, BuildingBlock: BETDAH_clean_linker_0, # of connection points: 3
#     Node 3, Type 0, BuildingBlock: BETDAH_clean_linker_0, # of connection points: 3
#     Node 4, Type 0, BuildingBlock: BETDAH_clean_linker_0, # of connection points: 3
#     Node 5, Type 0, BuildingBlock: BETDAH_clean_linker_0, # of connection points: 3
#     Node 6, Type 0, BuildingBlock: BETDAH_clean_linker_0, # of connection points: 3
#     Node 7, Type 0, BuildingBlock: BETDAH_clean_linker_0, # of connection points: 3
#     Node 8, Type 1, BuildingBlock: OJICUG_clean_sbu_0, # of connection points: 6
#     Node 9, Type 1, BuildingBlock: OJICUG_clean_sbu_0, # of connection points: 6
#     Node 10, Type 1, BuildingBlock: OJICUG_clean_sbu_0, # of connection points: 6
#     Node 11, Type 1, BuildingBlock: OJICUG_clean_sbu_0, # of connection points: 6
#     Edge 12, Type (0, 1), BuildingBlock: XIVTED_clean_linker_0, # of connection points: 2
#     Edge 13, Type (0, 1), BuildingBlock: XIVTED_clean_linker_0, # of connection points: 2
#     Edge 14, Type (0, 1), BuildingBlock: XIVTED_clean_linker_0, # of connection points: 2
#     Edge 15, Type (0, 1), BuildingBlock: XIVTED_clean_linker_0, # of connection points: 2
#     Edge 16, Type (0, 1), BuildingBlock: XIVTED_clean_linker_0, # of connection points: 2
#     Edge 17, Type (0, 1), BuildingBlock: XIVTED_clean_linker_0, # of connection points: 2
#     Edge 18, Type (0, 1), BuildingBlock: XIVTED_clean_linker_0, # of connection points: 2
#     Edge 19, Type (0, 1), BuildingBlock: XIVTED_clean_linker_0, # of connection points: 2
#     Edge 20, Type (0, 1), BuildingBlock: XIVTED_clean_linker_0, # of connection points: 2
#     Edge 21, Type (0, 1), BuildingBlock: XIVTED_clean_linker_0, # of connection points: 2
#     Edge 22, Type (0, 1), BuildingBlock: XIVTED_clean_linker_0, # of connection points: 2
#     Edge 23, Type (0, 1), BuildingBlock: XIVTED_clean_linker_0, # of connection points: 2
#     Edge 24, Type (0, 1), BuildingBlock: XIVTED_clean_linker_0, # of connection points: 2
#     Edge 25, Type (0, 1), BuildingBlock: XIVTED_clean_linker_0, # of connection points: 2
#     Edge 26, Type (0, 1), BuildingBlock: XIVTED_clean_linker_0, # of connection points: 2
#     Edge 27, Type (0, 1), BuildingBlock: XIVTED_clean_linker_0, # of connection points: 2
#     Edge 28, Type (0, 1), BuildingBlock: XIVTED_clean_linker_0, # of connection points: 2
#     Edge 29, Type (0, 1), BuildingBlock: XIVTED_clean_linker_0, # of connection points: 2
#     Edge 30, Type (0, 1), BuildingBlock: XIVTED_clean_linker_0, # of connection points: 2
#     Edge 31, Type (0, 1), BuildingBlock: XIVTED_clean_linker_0, # of connection points: 2
#     Edge 32, Type (0, 1), BuildingBlock: XIVTED_clean_linker_0, # of connection points: 2
#     Edge 33, Type (0, 1), BuildingBlock: XIVTED_clean_linker_0, # of connection points: 2
#     Edge 34, Type (0, 1), BuildingBlock: XIVTED_clean_linker_0, # of connection points: 2
#     Edge 35, Type (0, 1), BuildingBlock: XIVTED_clean_linker_0, # of connection points: 2
# Relax obj value: 0.007
# Max RMSD: 0.051
# Mean RMSD: 0.043
data_MOF--net-cml--node1-OJICUG_clean_sbu_0--node2-BETDAH_clean_linker_0--edge1-XIVTED_clean_linker_0
_symmetry_space_group_name_H-M    P1
_symmetry_Int_Tables_number       1
_symmetry_cell_setting            triclinic
loop_
_symmetry_equiv_pos_as_xyz
'x, y, z'
_cell_length_a     40.632653
_cell_length_b     39.693309
_cell_length_c     35.304904
_cell_angle_alpha  89.305942
_cell_angle_beta   90.900884
_cell_angle_gamma 90.753032
loop_
_atom_site_label
_atom_site_type_symbol
_atom_site_fract_x
_atom_site_fract_y
_atom_site_fract_z
_atom_type_partial_charge
H0 H 0.35582 0.40688 0.01186 0.0
H1 H 0.32416 0.37776 0.89984 0.0
H2 H 0.30241 0.31383 0.99522 0.0
C3 C 0.34304 0.38955 0.9931 0.0
C4 C 0.32979 0.35946 0.00821 0.0
C5 C 0.34138 0.39667 0.95401 0.0
C6 C 0.32507 0.37352 0.9302 0.0
C7 C 0.31008 0.34439 0.94508 0.0
C8 C 0.31266 0.33719 0.98406 0.0
N9 N 0.29466 0.32152 0.91977 0.0
C10 C 0.26352 0.30781 0.92567 0.0
H11 H 0.66683 0.59446 0.51924 0.0
H12 H 0.6991 0.61782 0.40615 0.0
H13 H 0.72123 0.68593 0.49666 0.0
C14 C 0.67978 0.61069 0.49944 0.0
C15 C 0.69328 0.64131 0.51238 0.0
C16 C 0.68138 0.60168 0.46112 0.0
C17 C 0.69816 0.62343 0.43606 0.0
C18 C 0.7136 0.65297 0.44903 0.0
C19 C 0.71081 0.66217 0.48712 0.0
N20 N 0.72962 0.67428 0.42249 0.0
C21 C 0.76127 0.68703 0.42826 0.0
H22 H 0.67589 0.45163 0.02347 0.0
H23 H 0.76967 0.46981 0.9721 0.0
H24 H 0.7622 0.40198 0.06771 0.0
C25 C 0.70203 0.4466 0.02221 0.0
C26 C 0.71671 0.42516 0.04928 0.0
C27 C 0.72088 0.4626 0.99431 0.0
C28 C 0.7548 0.45704 0.99322 0.0
C29 C 0.76949 0.43444 0.01899 0.0
C30 C 0.75044 0.41835 0.04692 0.0
N31 N 0.8038 0.4295 0.01794 0.0
C32 C 0.81655 0.3996 0.00502 0.0
H33 H 0.33971 0.53744 0.53743 0.0
H34 H 0.25347 0.5962 0.5575 0.0
H35 H 0.24587 0.50567 0.492 0.0
C36 C 0.31348 0.54143 0.53397 0.0
C37 C 0.29463 0.51848 0.51268 0.0
C38 C 0.29903 0.56968 0.5502 0.0
C39 C 0.26502 0.57449 0.54531 0.0
C40 C 0.24586 0.55117 0.52451 0.0
C41 C 0.26069 0.52323 0.5085 0.0
N42 N 0.2117 0.55568 0.5187 0.0
C43 C 0.19914 0.58651 0.50724 0.0
H44 H 0.83634 0.93502 0.06657 0.0
H45 H 0.76407 0.8993 0.9857 0.0
H46 H 0.79089 0.83767 0.08202 0.0
C47 C 0.81825 0.91623 0.05788 0.0
C48 C 0.81536 0.88618 0.07888 0.0
C49 C 0.79991 0.92128 0.02428 0.0
C50 C 0.77796 0.89584 0.01186 0.0
C51 C 0.77473 0.86566 0.03297 0.0
C52 C 0.79348 0.86107 0.06614 0.0
N53 N 0.75391 0.83868 0.02133 0.0
C54 C 0.72977 0.84056 0.99319 0.0
H55 H 0.18361 0.06906 0.55914 0.0
H56 H 0.25058 0.1095 0.47686 0.0
H57 H 0.21004 0.17434 0.5604 0.0
C58 C 0.19774 0.09021 0.54802 0.0
C59 C 0.19434 0.12217 0.56393 0.0
C60 C 0.21751 0.08551 0.51635 0.0
C61 C 0.23571 0.11289 0.50169 0.0
C62 C 0.23358 0.14482 0.51838 0.0
C63 C 0.2126 0.14932 0.54896 0.0
N64 N 0.25083 0.17339 0.50409 0.0
C65 C 0.278 0.17179 0.48088 0.0
H66 H 0.16098 0.91559 0.02862 0.0
H67 H 0.23916 0.93433 0.95007 0.0
H68 H 0.25693 0.87443 0.05038 0.0
C69 C 0.18592 0.91116 0.01951 0.0
C70 C 0.20734 0.89261 0.04299 0.0
C71 C 0.19706 0.92607 0.98581 0.0
C72 C 0.22993 0.92193 0.97536 0.0
C73 C 0.25123 0.90245 0.998 0.0
C74 C 0.23992 0.88779 0.03184 0.0
N75 N 0.28503 0.90168 0.9894 0.0
C76 C 0.29862 0.87512 0.97011 0.0
H77 H 0.85127 0.08303 0.54167 0.0
H78 H 0.75214 0.11988 0.54236 0.0
H79 H 0.7784 0.0429 0.46417 0.0
C80 C 0.82636 0.08275 0.53014 0.0
C81 C 0.81789 0.06062 0.5008 0.0
C82 C 0.80281 0.10404 0.5454 0.0
C83 C 0.77058 0.10377 0.5305 0.0
C84 C 0.76203 0.08192 0.50078 0.0
C85 C 0.7855 0.06017 0.4865 0.0
N86 N 0.72962 0.08046 0.48573 0.0
C87 C 0.71379 0.10897 0.47214 0.0
Sc88 Sc 0.03533 0.80651 0.32764 0.0
Sc89 Sc 0.0399 0.89498 0.33348 0.0
Sc90 Sc 0.03756 0.8459 0.41697 0.0
O91 O 0.03772 0.84908 0.35936 0.0
C92 C 0.9834 0.79085 0.39345 0.0
C93 C 0.98791 0.85591 0.281 0.0
C94 C 0.99295 0.91055 0.40218 0.0
C95 C 0.08636 0.85176 0.28083 0.0
C96 C 0.08171 0.78279 0.3961 0.0
C97 C 0.09158 0.90338 0.40216 0.0
O98 O 0.99594 0.78541 0.36129 0.0
O99 O 0.00066 0.88275 0.2943 0.0
O100 O 0.00377 0.88672 0.42298 0.0
O101 O 0.07403 0.82318 0.28988 0.0
O102 O 0.07098 0.80435 0.41899 0.0
O103 O 0.07936 0.91197 0.37015 0.0
O104 O 0.07198 0.78116 0.36177 0.0
O105 O 0.0765 0.87921 0.2946 0.0
O106 O 0.07957 0.8796 0.42242 0.0
O107 O 0.99803 0.82671 0.2901 0.0
O108 O 0.99533 0.81234 0.41655 0.0
O109 O 0.00323 0.91625 0.36893 0.0
Sc110 Sc 0.98572 0.19464 0.8191 0.0
Sc111 Sc 0.97571 0.10632 0.81974 0.0
Sc112 Sc 0.98736 0.1493 0.90577 0.0
O113 O 0.98286 0.15011 0.84822 0.0
C114 C 0.04123 0.20492 0.88359 0.0
C115 C 0.0265 0.14626 0.76675 0.0
C116 C 0.0282 0.08437 0.88313 0.0
C117 C 0.92898 0.15576 0.77256 0.0
C118 C 0.94331 0.2146 0.89049 0.0
C119 C 0.93031 0.0943 0.89167 0.0
O120 O 0.0272 0.21253 0.85227 0.0
O121 O 0.01173 0.11961 0.77794 0.0
O122 O 0.02103 0.10772 0.90581 0.0
O123 O 0.94482 0.18241 0.78153 0.0
O124 O 0.95466 0.19133 0.91191 0.0
O125 O 0.9389 0.0882 0.85804 0.0
O126 O 0.95156 0.21837 0.85606 0.0
O127 O 0.93668 0.12675 0.78515 0.0
O128 O 0.9452 0.11587 0.9124 0.0
O129 O 0.02047 0.17529 0.77959 0.0
O130 O 0.03015 0.18213 0.90575 0.0
O131 O 0.01395 0.0806 0.85113 0.0
Sc132 Sc 0.51454 0.29634 0.29037 0.0
Sc133 Sc 0.50028 0.38299 0.3004 0.0
Sc134 Sc 0.51418 0.3325 0.38115 0.0
O135 O 0.50973 0.33728 0.32397 0.0
C136 C 0.47194 0.26689 0.35759 0.0
C137 C 0.45728 0.33635 0.2461 0.0
C138 C 0.45407 0.38276 0.37281 0.0
C139 C 0.55489 0.35267 0.24594 0.0
C140 C 0.56859 0.28188 0.35599 0.0
C141 C 0.55058 0.40321 0.36663 0.0
O142 O 0.47828 0.26825 0.32239 0.0
O143 O 0.46207 0.36371 0.2637 0.0
O144 O 0.47 0.36001 0.39049 0.0
O145 O 0.551 0.32192 0.25593 0.0
O146 O 0.5586 0.30428 0.37826 0.0
O147 O 0.53758 0.40797 0.3341 0.0
O148 O 0.55417 0.27537 0.3246 0.0
O149 O 0.53716 0.37626 0.25825 0.0
O150 O 0.54388 0.3777 0.38738 0.0
O151 O 0.47538 0.31076 0.25131 0.0
O152 O 0.4848 0.28693 0.38168 0.0
O153 O 0.46246 0.39418 0.34049 0.0
Sc154 Sc 0.50478 0.7078 0.78415 0.0
Sc155 Sc 0.5133 0.61986 0.78632 0.0
Sc156 Sc 0.50814 0.66375 0.87113 0.0
O157 O 0.50863 0.66387 0.81384 0.0
C158 C 0.55021 0.73068 0.85255 0.0
C159 C 0.55939 0.66797 0.73812 0.0
C160 C 0.56281 0.61003 0.85704 0.0
C161 C 0.46158 0.65927 0.73323 0.0
C162 C 0.45352 0.71732 0.85179 0.0
C163 C 0.4663 0.59668 0.85174 0.0
O164 O 0.54337 0.73173 0.81729 0.0
O165 O 0.55344 0.63967 0.75397 0.0
O166 O 0.55284 0.63517 0.87548 0.0
O167 O 0.4657 0.68794 0.74835 0.0
O168 O 0.46372 0.69252 0.87169 0.0
O169 O 0.47359 0.59611 0.81686 0.0
O170 O 0.46726 0.72683 0.82116 0.0
O171 O 0.47859 0.63368 0.74233 0.0
O172 O 0.47869 0.61809 0.87462 0.0
O173 O 0.54215 0.69402 0.74375 0.0
O174 O 0.53751 0.70916 0.87514 0.0
O175 O 0.54902 0.60035 0.8264 0.0
H176 H 0.23945 0.2528 0.96319 0.0
H177 H 0.06715 0.26211 0.85116 0.0
H178 H 0.2125 0.3336 0.88681 0.0
H179 H 0.08669 0.18816 0.9391 0.0
H180 H 0.11998 0.2891 0.86536 0.0
H181 H 0.18333 0.22914 0.9567 0.0
C182 C 0.22148 0.26568 0.94545 0.0
C183 C 0.23017 0.29506 0.92551 0.0
C184 C 0.11269 0.2671 0.88176 0.0
C185 C 0.16661 0.26827 0.91751 0.0
C186 C 0.08247 0.25159 0.8736 0.0
C187 C 0.07242 0.22267 0.89382 0.0
C188 C 0.13335 0.25352 0.91016 0.0
C189 C 0.09337 0.2104 0.92276 0.0
C190 C 0.18958 0.25223 0.94168 0.0
C191 C 0.20645 0.31087 0.90266 0.0
N192 N 0.12296 0.22572 0.92987 0.0
N193 N 0.17578 0.29718 0.89908 0.0
H194 H 0.8099 0.6624 0.38693 0.0
H195 H 0.94151 0.8032 0.45203 0.0
H196 H 0.7886 0.73857 0.46851 0.0
H197 H 0.95453 0.73703 0.35736 0.0
H198 H 0.88853 0.77553 0.46447 0.0
H199 H 0.86605 0.68501 0.38191 0.0
C200 C 0.81733 0.68375 0.40406 0.0
C201 C 0.79498 0.69878 0.42813 0.0
C202 C 0.90311 0.76697 0.44114 0.0
C203 C 0.85881 0.72501 0.42243 0.0
C204 C 0.93345 0.78266 0.43407 0.0
C205 C 0.95254 0.7726 0.40342 0.0
C206 C 0.89182 0.74088 0.41757 0.0
C207 C 0.94067 0.74586 0.38113 0.0
C208 C 0.84926 0.69672 0.40113 0.0
C209 C 0.80541 0.72639 0.44968 0.0
N210 N 0.9111 0.73105 0.38858 0.0
N211 N 0.83666 0.73878 0.44624 0.0
H212 H 0.84217 0.34621 0.04303 0.0
H213 H 0.90981 0.26499 0.85339 0.0
H214 H 0.82399 0.38691 0.93114 0.0
H215 H 0.92497 0.22089 0.96467 0.0
H216 H 0.87568 0.30792 0.88119 0.0
H217 H 0.87009 0.29819 0.01491 0.0
C218 C 0.84391 0.34473 0.0125 0.0
C219 C 0.83102 0.37017 0.98915 0.0
C220 C 0.88631 0.28876 0.89954 0.0
C221 C 0.86282 0.31598 0.95686 0.0
C222 C 0.90587 0.26418 0.88366 0.0
C223 C 0.92058 0.23934 0.90672 0.0
C224 C 0.88147 0.28873 0.93884 0.0
C225 C 0.91429 0.23957 0.94575 0.0
C226 C 0.85979 0.31746 0.99646 0.0
C227 C 0.83376 0.36755 0.94989 0.0
N228 N 0.89541 0.26401 0.9606 0.0
N229 N 0.84952 0.34097 0.93491 0.0
H230 H 0.18206 0.64229 0.5452 0.0
H231 H 0.11018 0.73142 0.35744 0.0
H232 H 0.18708 0.59982 0.43379 0.0
H233 H 0.10535 0.77485 0.46883 0.0
H234 H 0.14278 0.68551 0.38413 0.0
H235 H 0.15773 0.69341 0.51724 0.0
C236 C 0.1781 0.64398 0.51481 0.0
C237 C 0.18617 0.6172 0.49154 0.0
C238 C 0.13479 0.70523 0.40269 0.0
C239 C 0.15863 0.67493 0.45946 0.0
C240 C 0.11619 0.73152 0.38743 0.0
C241 C 0.10463 0.75692 0.41095 0.0
C242 C 0.1418 0.70418 0.44177 0.0
C243 C 0.11346 0.75573 0.44959 0.0
C244 C 0.16432 0.67302 0.49885 0.0
C245 C 0.18088 0.62017 0.45245 0.0
N246 N 0.13125 0.72964 0.46383 0.0
N247 N 0.16726 0.64852 0.43757 0.0
H248 H 0.66614 0.84696 0.00999 0.0
H249 H 0.60287 0.76133 0.81759 0.0
H250 H 0.73125 0.82272 0.91945 0.0
H251 H 0.55221 0.75529 0.92401 0.0
H252 H 0.64545 0.79706 0.84778 0.0
H253 H 0.61921 0.82772 0.97116 0.0
C254 C 0.67032 0.83837 0.98146 0.0
C255 C 0.70222 0.83633 0.96759 0.0
C256 C 0.62475 0.78818 0.86426 0.0
C257 C 0.6492 0.81372 0.92351 0.0
C258 C 0.60047 0.76794 0.84709 0.0
C259 C 0.57428 0.75502 0.86853 0.0
C260 C 0.62234 0.79594 0.90283 0.0
C261 C 0.57228 0.76429 0.90662 0.0
C262 C 0.64368 0.82719 0.95946 0.0
C263 C 0.70675 0.82471 0.9308 0.0
N264 N 0.59603 0.78408 0.92256 0.0
N265 N 0.68045 0.81345 0.91 0.0
H266 H 0.33965 0.16421 0.50766 0.0
H267 H 0.41961 0.2391 0.3183 0.0
H268 H 0.28343 0.18662 0.40625 0.0
H269 H 0.46679 0.24015 0.42867 0.0
H270 H 0.37359 0.20666 0.34529 0.0
H271 H 0.39036 0.17842 0.47397 0.0
C272 C 0.3382 0.17149 0.478 0.0
C273 C 0.30773 0.17443 0.45947 0.0
C274 C 0.39429 0.21359 0.36339 0.0
C275 C 0.3651 0.19118 0.42104 0.0
C276 C 0.4206 0.23192 0.34799 0.0
C277 C 0.4468 0.24271 0.37143 0.0
C278 C 0.39447 0.20577 0.40232 0.0
C279 C 0.44682 0.23279 0.40972 0.0
C280 C 0.36701 0.17973 0.45884 0.0
C281 C 0.30674 0.18412 0.42125 0.0
N282 N 0.42096 0.21512 0.424 0.0
N283 N 0.3351 0.19251 0.40326 0.0
H284 H 0.32024 0.87942 0.8985 0.0
H285 H 0.41785 0.70585 0.9162 0.0
H286 H 0.31644 0.81364 0.99627 0.0
H287 H 0.4259 0.77442 0.82075 0.0
H288 H 0.37602 0.74181 0.94269 0.0
H289 H 0.35427 0.83823 0.86641 0.0
C290 C 0.32632 0.85601 0.91291 0.0
C291 C 0.31573 0.8496 0.94982 0.0
C292 C 0.38677 0.74888 0.91582 0.0
C293 C 0.35472 0.8027 0.91383 0.0
C294 C 0.41069 0.72831 0.90059 0.0
C295 C 0.42578 0.73721 0.86627 0.0
C296 C 0.37779 0.77868 0.89672 0.0
C297 C 0.41519 0.76658 0.84736 0.0
C298 C 0.34577 0.83258 0.89473 0.0
C299 C 0.32423 0.81922 0.96765 0.0
N300 N 0.39206 0.78635 0.86297 0.0
N301 N 0.34342 0.79689 0.94954 0.0
H302 H 0.69943 0.16903 0.50306 0.0
H303 H 0.59519 0.22777 0.32014 0.0
H304 H 0.6902 0.11132 0.40083 0.0
H305 H 0.60435 0.28614 0.42236 0.0
H306 H 0.63463 0.18777 0.34675 0.0
H307 H 0.66856 0.21482 0.47206 0.0
C308 C 0.69095 0.16623 0.474 0.0
C309 C 0.69693 0.13668 0.45429 0.0
C310 C 0.62823 0.20951 0.36321 0.0
C311 C 0.66192 0.18837 0.41876 0.0
C312 C 0.60577 0.23246 0.34795 0.0
C313 C 0.59604 0.26022 0.36916 0.0
C314 C 0.64102 0.21422 0.40001 0.0
C315 C 0.6108 0.26497 0.40503 0.0
C316 C 0.67344 0.19225 0.45629 0.0
C317 C 0.68577 0.1339 0.41679 0.0
N318 N 0.63226 0.24203 0.41945 0.0
N319 N 0.6686 0.1594 0.40022 0.0
H320 H 0.322 0.43648 0.89302 0.0
H321 H 0.46122 0.57597 0.92541 0.0
H322 H 0.39911 0.42714 0.97814 0.0
H323 H 0.42219 0.55579 0.81336 0.0
H324 H 0.42911 0.52842 0.95008 0.0
H325 H 0.35042 0.48644 0.86748 0.0
C326 C 0.34484 0.44472 0.90636 0.0
C327 C 0.35793 0.42741 0.93809 0.0
C328 C 0.42747 0.53455 0.92013 0.0
C329 C 0.38985 0.48514 0.90954 0.0
C330 C 0.4456 0.56182 0.90602 0.0
C331 C 0.44454 0.5698 0.86718 0.0
C332 C 0.40766 0.51537 0.89542 0.0
C333 C 0.42391 0.55036 0.84345 0.0
C334 C 0.36088 0.47335 0.89183 0.0
C335 C 0.38739 0.43989 0.95439 0.0
N336 N 0.40619 0.52401 0.85797 0.0
N337 N 0.40217 0.46803 0.9401 0.0
H338 H 0.6992 0.55962 0.40317 0.0
H339 H 0.56073 0.42096 0.44044 0.0
H340 H 0.62382 0.57235 0.48677 0.0
H341 H 0.59148 0.44541 0.32681 0.0
H342 H 0.59465 0.46801 0.46409 0.0
H343 H 0.66945 0.50968 0.38015 0.0
C344 C 0.67651 0.55215 0.41675 0.0
C345 C 0.66425 0.57053 0.4472 0.0
C346 C 0.5941 0.46281 0.43404 0.0
C347 C 0.63093 0.51262 0.42171 0.0
C348 C 0.57497 0.43593 0.42056 0.0
C349 C 0.57319 0.42947 0.38161 0.0
C350 C 0.61213 0.48281 0.40849 0.0
C351 C 0.59199 0.44978 0.35703 0.0
C352 C 0.65974 0.52348 0.40369 0.0
C353 C 0.63496 0.55882 0.46398 0.0
N354 N 0.61083 0.47552 0.3709 0.0
N355 N 0.61948 0.53056 0.45118 0.0
H356 H 0.72621 0.53107 0.99113 0.0
H357 H 0.58342 0.5484 0.83385 0.0
H358 H 0.67741 0.44648 0.93824 0.0
H359 H 0.60594 0.62619 0.91515 0.0
H360 H 0.62687 0.51407 0.86203 0.0
H361 H 0.69133 0.56944 0.95326 0.0
C362 C 0.70865 0.52073 0.97084 0.0
C363 C 0.70455 0.48581 0.96742 0.0
C364 C 0.62243 0.53874 0.87353 0.0
C365 C 0.66475 0.52903 0.92463 0.0
C366 C 0.59765 0.55845 0.85743 0.0
C367 C 0.59071 0.59016 0.87241 0.0
C368 C 0.64069 0.55085 0.90464 0.0
C369 C 0.61016 0.60177 0.90294 0.0
C370 C 0.68865 0.54249 0.94957 0.0
C371 C 0.68124 0.47336 0.94137 0.0
N372 N 0.63423 0.58204 0.91816 0.0
N373 N 0.66212 0.49497 0.92098 0.0
H374 H 0.33679 0.47199 0.54254 0.0
H375 H 0.40826 0.42622 0.34261 0.0
H376 H 0.29109 0.50414 0.43741 0.0
H377 H 0.43442 0.37292 0.44595 0.0
H378 H 0.36392 0.45363 0.37611 0.0
H379 H 0.37127 0.43358 0.50742 0.0
C380 C 0.33372 0.47047 0.51206 0.0
C381 C 0.31129 0.49122 0.49271 0.0
C382 C 0.37915 0.43563 0.39129 0.0
C383 C 0.35092 0.448 0.45229 0.0
C384 C 0.40458 0.42009 0.37224 0.0
C385 C 0.4254 0.39752 0.39158 0.0
C386 C 0.37478 0.42887 0.43004 0.0
C387 C 0.41919 0.39031 0.42988 0.0
C388 C 0.35334 0.4486 0.49202 0.0
C389 C 0.30807 0.48838 0.45328 0.0
N390 N 0.39472 0.40624 0.44794 0.0
N391 N 0.32809 0.46754 0.43422 0.0
H392 H 0.80607 0.98652 0.04774 0.0
H393 H 0.89372 0.04474 0.85686 0.0
H394 H 0.8108 0.92522 0.94798 0.0
H395 H 0.90415 0.09714 0.96301 0.0
H396 H 0.85302 0.0072 0.88556 0.0
H397 H 0.83074 0.03352 0.01241 0.0
C398 C 0.81174 0.98319 0.01815 0.0
C399 C 0.80692 0.95177 0.00092 0.0
C400 C 0.86396 0.02712 0.90245 0.0
C401 C 0.83534 0.00531 0.96043 0.0
C402 C 0.88728 0.04863 0.88612 0.0
C403 C 0.90292 0.0739 0.90772 0.0
C404 C 0.85608 0.03081 0.9407 0.0
C405 C 0.89312 0.07781 0.94536 0.0
C406 C 0.82588 0.00998 0.99804 0.0
C407 C 0.81415 0.94897 0.96237 0.0
N408 N 0.87057 0.05627 0.96075 0.0
N409 N 0.8285 0.97525 0.94357 0.0
H410 H 0.22448 0.02163 0.54513 0.0
H411 H 0.12104 0.89927 0.47264 0.0
H412 H 0.20216 0.07619 0.44184 0.0
H413 H 0.12682 0.95317 0.36592 0.0
H414 H 0.16238 0.9372 0.49908 0.0
H415 H 0.20368 0.97002 0.51608 0.0
C416 C 0.21569 0.02249 0.516 0.0
C417 C 0.21447 0.05322 0.49603 0.0
C418 C 0.15548 0.94043 0.46961 0.0
C419 C 0.18876 0.9947 0.4631 0.0
C420 C 0.13147 0.91873 0.45451 0.0
C421 C 0.11992 0.92331 0.41717 0.0
C422 C 0.16816 0.96698 0.44714 0.0
C423 C 0.13452 0.94893 0.39506 0.0
C424 C 0.20323 0.99309 0.49953 0.0
C425 C 0.20337 0.05301 0.45827 0.0
N426 N 0.15748 0.97 0.41053 0.0
N427 N 0.19034 0.02435 0.44328 0.0
H428 H 0.20718 0.99244 0.9686 0.0
H429 H 0.03495 0.01876 0.86181 0.0
H430 H 0.13659 0.91129 0.95511 0.0
H431 H 0.08123 0.09611 0.9299 0.0
H432 H 0.07811 0.97955 0.88235 0.0
H433 H 0.1672 0.0315 0.94 0.0
C434 C 0.18348 0.98281 0.9589 0.0
C435 C 0.17502 0.94874 0.96407 0.0
C436 C 0.07878 0.00517 0.8926 0.0
C437 C 0.1295 0.99295 0.93154 0.0
C438 C 0.05429 0.02754 0.88087 0.0
C439 C 0.05441 0.06064 0.89444 0.0
C440 C 0.10393 0.01625 0.91731 0.0
C441 C 0.08002 0.0707 0.91912 0.0
C442 C 0.16068 0.00506 0.94294 0.0
C443 C 0.1439 0.93746 0.95156 0.0
N444 N 0.10387 0.04863 0.92963 0.0
N445 N 0.1222 0.95953 0.93577 0.0
H446 H 0.83074 0.04766 0.42658 0.0
H447 H 0.971 0.91369 0.47507 0.0
H448 H 0.86158 0.02151 0.54056 0.0
H449 H 0.95544 0.95685 0.3634 0.0
H450 H 0.92773 0.94946 0.49896 0.0
H451 H 0.87294 0.01052 0.40221 0.0
C452 C 0.8463 0.03394 0.44643 0.0
C453 C 0.8428 0.03772 0.48561 0.0
C454 C 0.93384 0.95113 0.46925 0.0
C455 C 0.89108 0.99538 0.45804 0.0
C456 C 0.95851 0.93067 0.45554 0.0
C457 C 0.96698 0.93231 0.41715 0.0
C458 C 0.91729 0.97321 0.44437 0.0
C459 C 0.9499 0.95484 0.39324 0.0
C460 C 0.87048 0.01294 0.43254 0.0
C461 C 0.86376 0.01962 0.51014 0.0
N462 N 0.92581 0.97434 0.40723 0.0
N463 N 0.88697 0.99918 0.49595 0.0
H464 H 0.35376 0.29979 0.03581 0.0
H465 H 0.40988 0.38336 0.23112 0.0
H466 H 0.32487 0.39854 0.07127 0.0
H467 H 0.44414 0.28694 0.19369 0.0
H468 H 0.37083 0.38454 0.17808 0.0
H469 H 0.37823 0.2897 0.09868 0.0
C470 C 0.35177 0.31899 0.05716 0.0
C471 C 0.33761 0.35021 0.0482 0.0
C472 C 0.38664 0.36294 0.18163 0.0
C473 C 0.36613 0.33914 0.11988 0.0
C474 C 0.40904 0.36225 0.21196 0.0
C475 C 0.4308 0.33524 0.21665 0.0
C476 C 0.38599 0.33655 0.15548 0.0
C477 C 0.42812 0.30844 0.19108 0.0
C478 C 0.36603 0.31335 0.09294 0.0
C479 C 0.33602 0.37432 0.07684 0.0
N480 N 0.40644 0.30997 0.16134 0.0
N481 N 0.35049 0.36845 0.11119 0.0
H482 H 0.66692 0.70129 0.53285 0.0
H483 H 0.60933 0.62334 0.73029 0.0
H484 H 0.69956 0.60624 0.57919 0.0
H485 H 0.57186 0.71648 0.68345 0.0
H486 H 0.65021 0.6225 0.68073 0.0
H487 H 0.64067 0.71331 0.59317 0.0
C488 C 0.66941 0.68342 0.55612 0.0
C489 C 0.68511 0.65257 0.55097 0.0
C490 C 0.6333 0.64334 0.6814 0.0
C491 C 0.65462 0.66577 0.61963 0.0
C492 C 0.60981 0.6438 0.70971 0.0
C493 C 0.58667 0.66973 0.71071 0.0
C494 C 0.6336 0.66879 0.65346 0.0
C495 C 0.589 0.69583 0.68361 0.0
C496 C 0.65414 0.69013 0.59041 0.0
C497 C 0.68732 0.63014 0.58188 0.0
N498 N 0.61174 0.69445 0.65574 0.0
N499 N 0.67186 0.63698 0.61467 0.0
H500 H 0.70981 0.36017 0.07695 0.0
H501 H 0.57524 0.41606 0.22627 0.0
H502 H 0.67865 0.46212 0.09469 0.0
H503 H 0.59537 0.31139 0.20512 0.0
H504 H 0.61737 0.43244 0.18184 0.0
H505 H 0.67257 0.34091 0.12755 0.0
C506 C 0.69536 0.37844 0.09174 0.0
C507 C 0.69687 0.41267 0.08143 0.0
C508 C 0.61271 0.40584 0.18677 0.0
C509 C 0.65462 0.39109 0.13885 0.0
C510 C 0.58847 0.39639 0.21222 0.0
C511 C 0.58136 0.3622 0.21927 0.0
C512 C 0.63019 0.38106 0.16782 0.0
C513 C 0.59986 0.33804 0.20041 0.0
C514 C 0.67408 0.36748 0.12039 0.0
C515 C 0.67777 0.43542 0.10134 0.0
N516 N 0.62337 0.34793 0.17532 0.0
N517 N 0.65743 0.42422 0.1289 0.0
H518 H 0.35975 0.5947 0.53212 0.0
H519 H 0.39783 0.68145 0.73122 0.0
H520 H 0.28621 0.59873 0.61878 0.0
H521 H 0.46867 0.62687 0.66711 0.0
H522 H 0.35538 0.66761 0.68283 0.0
H523 H 0.39838 0.62442 0.57391 0.0
C524 C 0.35161 0.60216 0.55983 0.0
C525 C 0.32001 0.59341 0.57242 0.0
C526 C 0.38037 0.65916 0.67929 0.0
C527 C 0.364 0.62785 0.62008 0.0
C528 C 0.40449 0.66712 0.70664 0.0
C529 C 0.43656 0.655 0.70305 0.0
C530 C 0.38886 0.63983 0.64793 0.0
C531 C 0.4441 0.63638 0.67097 0.0
C532 C 0.37364 0.61919 0.58356 0.0
C533 C 0.31045 0.60473 0.60811 0.0
N534 N 0.42045 0.6294 0.64463 0.0
N535 N 0.33256 0.62103 0.63103 0.0
H536 H 0.83201 0.93076 0.13488 0.0
H537 H 0.95822 0.80592 0.23906 0.0
H538 H 0.84806 0.82864 0.09944 0.0
H539 H 0.95388 0.91265 0.2608 0.0
H540 H 0.91316 0.81193 0.19298 0.0
H541 H 0.87182 0.92254 0.18659 0.0
C542 C 0.84383 0.90656 0.13806 0.0
C543 C 0.83689 0.88044 0.1126 0.0
C544 C 0.92205 0.834 0.20793 0.0
C545 C 0.88233 0.87079 0.17185 0.0
C546 C 0.94777 0.8306 0.23427 0.0
C547 C 0.96009 0.85888 0.25367 0.0
C548 C 0.9084 0.86584 0.20105 0.0
C549 C 0.94544 0.89019 0.24632 0.0
C550 C 0.86649 0.90186 0.16763 0.0
C551 C 0.85245 0.8494 0.11854 0.0
N552 N 0.92043 0.89282 0.22056 0.0
N553 N 0.8746 0.8455 0.14742 0.0
H554 H 0.1997 0.1632 0.62633 0.0
H555 H 0.03382 0.09446 0.71767 0.0
H556 H 0.1331 0.09334 0.57049 0.0
H557 H 0.07622 0.19085 0.74841 0.0
H558 H 0.07498 0.08947 0.66866 0.0
H559 H 0.15888 0.17033 0.67598 0.0
C560 C 0.17656 0.14945 0.62439 0.0
C561 C 0.17008 0.12729 0.59435 0.0
C562 C 0.07524 0.11175 0.68608 0.0
C563 C 0.12372 0.13495 0.65123 0.0
C564 C 0.05185 0.11456 0.71419 0.0
C565 C 0.05153 0.14317 0.73712 0.0
C566 C 0.09883 0.13748 0.6811 0.0
C567 C 0.07547 0.16847 0.73117 0.0
C568 C 0.15337 0.15347 0.65277 0.0
C569 C 0.13971 0.10995 0.59355 0.0
N570 N 0.09833 0.16497 0.70381 0.0
N571 N 0.11782 0.11399 0.62165 0.0
H572 H 0.19435 0.82935 0.07204 0.0
H573 H 0.1267 0.90526 0.26458 0.0
H574 H 0.19551 0.9346 0.1004 0.0
H575 H 0.10365 0.80386 0.22893 0.0
H576 H 0.16213 0.91248 0.21021 0.0
H577 H 0.17047 0.81604 0.13443 0.0
C578 C 0.19 0.84949 0.09172 0.0
C579 C 0.19663 0.88306 0.08139 0.0
C580 C 0.14956 0.88851 0.21434 0.0
C581 C 0.16969 0.8683 0.15207 0.0
C582 C 0.12929 0.88434 0.24548 0.0
C583 C 0.11166 0.85408 0.25106 0.0
C584 C 0.15225 0.86236 0.18822 0.0
C585 C 0.11657 0.82771 0.2256 0.0
C586 C 0.17634 0.84197 0.12709 0.0
C587 C 0.19055 0.90842 0.10747 0.0
N588 N 0.13612 0.8326 0.19495 0.0
N589 N 0.17734 0.90054 0.14152 0.0
H590 H 0.84967 0.15343 0.55032 0.0
H591 H 0.91757 0.20625 0.72028 0.0
H592 H 0.77864 0.09809 0.61658 0.0
H593 H 0.87968 0.10979 0.75854 0.0
H594 H 0.87938 0.20406 0.66598 0.0
H595 H 0.87433 0.17567 0.60862 0.0
C596 C 0.83862 0.14699 0.57723 0.0
C597 C 0.8121 0.12413 0.57888 0.0
C598 C 0.87936 0.18349 0.68638 0.0
C599 C 0.84029 0.14892 0.6457 0.0
C600 C 0.90092 0.18485 0.71759 0.0
C601 C 0.90234 0.15779 0.74354 0.0
C602 C 0.85907 0.15491 0.68126 0.0
C603 C 0.87994 0.13087 0.73879 0.0
C604 C 0.85258 0.15974 0.61053 0.0
C605 C 0.79891 0.11595 0.6143 0.0
N606 N 0.85943 0.12999 0.70807 0.0
N607 N 0.81367 0.1277 0.64645 0.0
loop_
_geom_bond_atom_site_label_1
_geom_bond_atom_site_label_2
_geom_bond_distance
_geom_bond_site_symmetry_2
_ccdc_geom_bond_type
H0 C3 0.929 . S
H1 C6 0.929 . S
H2 C8 0.930 . S
C3 H0 0.929 . S
C3 C4 1.398 . S
C3 C5 1.396 1_554 S
C4 C3 1.398 . S
C4 C8 1.407 . S
C5 C3 1.396 1_556 S
C5 C6 1.394 . S
C6 H1 0.929 . S
C6 C5 1.394 . S
C6 C7 1.382 1_556 S
C7 C6 1.382 1_554 S
C7 C8 1.392 . S
C7 N9 1.420 1_554 S
C8 H2 0.930 . S
C8 C4 1.407 . S
C8 C7 1.392 . S
N9 C7 1.420 1_556 S
N9 C10 1.244 . S
C10 N9 1.244 . S
H11 C14 0.929 . S
H12 C17 0.929 . S
H13 C19 0.930 . S
C14 H11 0.929 . S
C14 C15 1.398 . S
C14 C16 1.396 . S
C15 C14 1.398 . S
C15 C19 1.407 . S
C16 C14 1.396 . S
C16 C17 1.394 . S
C17 H12 0.929 . S
C17 C16 1.394 . S
C17 C18 1.382 . S
C18 C17 1.382 . S
C18 C19 1.392 . S
C18 N20 1.420 . S
C19 H13 0.930 . S
C19 C15 1.407 . S
C19 C18 1.392 . S
N20 C18 1.420 . S
N20 C21 1.244 . S
C21 N20 1.244 . S
H22 C25 0.929 . S
H23 C28 0.929 . S
H24 C30 0.930 . S
C25 H22 0.929 . S
C25 C26 1.398 . S
C25 C27 1.396 1_554 S
C26 C25 1.398 . S
C26 C30 1.407 . S
C27 C25 1.396 1_556 S
C27 C28 1.394 . S
C28 H23 0.929 . S
C28 C27 1.394 . S
C28 C29 1.382 1_556 S
C29 C28 1.382 1_554 S
C29 C30 1.392 . S
C29 N31 1.420 . S
C30 H24 0.930 . S
C30 C26 1.407 . S
C30 C29 1.392 . S
N31 C29 1.420 . S
N31 C32 1.244 1_554 S
C32 N31 1.244 1_556 S
H33 C36 0.929 . S
H34 C39 0.929 . S
H35 C41 0.930 . S
C36 H33 0.929 . S
C36 C37 1.398 . S
C36 C38 1.396 . S
C37 C36 1.398 . S
C37 C41 1.407 . S
C38 C36 1.396 . S
C38 C39 1.394 . S
C39 H34 0.929 . S
C39 C38 1.394 . S
C39 C40 1.382 . S
C40 C39 1.382 . S
C40 C41 1.392 . S
C40 N42 1.420 . S
C41 H35 0.930 . S
C41 C37 1.407 . S
C41 C40 1.392 . S
N42 C40 1.420 . S
N42 C43 1.244 . S
C43 N42 1.244 . S
H44 C47 0.929 . S
H45 C50 0.929 . S
H46 C52 0.930 . S
C47 H44 0.929 . S
C47 C48 1.398 . S
C47 C49 1.396 1_554 S
C48 C47 1.398 . S
C48 C52 1.407 . S
C49 C47 1.396 1_556 S
C49 C50 1.394 . S
C50 H45 0.929 . S
C50 C49 1.394 . S
C50 C51 1.382 1_556 S
C51 C50 1.382 1_554 S
C51 C52 1.392 . S
C51 N53 1.420 1_554 S
C52 H46 0.930 . S
C52 C48 1.407 . S
C52 C51 1.392 . S
N53 C51 1.420 1_556 S
N53 C54 1.244 . S
C54 N53 1.244 . S
H55 C58 0.929 . S
H56 C61 0.929 . S
H57 C63 0.930 . S
C58 H55 0.929 . S
C58 C59 1.398 . S
C58 C60 1.396 . S
C59 C58 1.398 . S
C59 C63 1.407 . S
C60 C58 1.396 . S
C60 C61 1.394 . S
C61 H56 0.929 . S
C61 C60 1.394 . S
C61 C62 1.382 . S
C62 C61 1.382 . S
C62 C63 1.392 . S
C62 N64 1.420 . S
C63 H57 0.930 . S
C63 C59 1.407 . S
C63 C62 1.392 . S
N64 C62 1.420 . S
N64 C65 1.244 . S
C65 N64 1.244 . S
H66 C69 0.929 . S
H67 C72 0.929 . S
H68 C74 0.930 . S
C69 H66 0.929 . S
C69 C70 1.398 . S
C69 C71 1.396 1_554 S
C70 C69 1.398 . S
C70 C74 1.407 . S
C71 C69 1.396 1_556 S
C71 C72 1.394 . S
C72 H67 0.929 . S
C72 C71 1.394 . S
C72 C73 1.382 1_556 S
C73 C72 1.382 1_554 S
C73 C74 1.392 . S
C73 N75 1.420 . S
C74 H68 0.930 . S
C74 C70 1.407 . S
C74 C73 1.392 . S
N75 C73 1.420 . S
N75 C76 1.244 1_554 S
C76 N75 1.244 1_556 S
H77 C80 0.929 . S
H78 C83 0.929 . S
H79 C85 0.930 . S
C80 H77 0.929 . S
C80 C81 1.398 . S
C80 C82 1.396 . S
C81 C80 1.398 . S
C81 C85 1.407 . S
C82 C80 1.396 . S
C82 C83 1.394 . S
C83 H78 0.929 . S
C83 C82 1.394 . S
C83 C84 1.382 . S
C84 C83 1.382 . S
C84 C85 1.392 . S
C84 N86 1.420 . S
C85 H79 0.930 . S
C85 C81 1.407 . S
C85 C84 1.392 . S
N86 C84 1.420 . S
N86 C87 1.244 . S
C87 N86 1.244 . S
Sc88 O91 2.025 . S
Sc88 O98 2.105 1_455 S
Sc88 O101 2.105 . S
Sc88 O104 2.105 . S
Sc88 O107 2.105 1_455 S
Sc89 O91 2.025 . S
Sc89 O99 2.105 1_455 S
Sc89 O103 2.105 . S
Sc89 O105 2.105 . S
Sc89 O109 2.105 1_455 S
Sc90 O91 2.025 . S
Sc90 O100 2.105 1_455 S
Sc90 O102 2.105 . S
Sc90 O106 2.105 . S
Sc90 O108 2.105 1_455 S
O91 Sc88 2.025 . S
O91 Sc89 2.025 . S
O91 Sc90 2.025 . S
C92 O98 1.268 . S
C92 O108 1.268 . S
C93 O99 1.268 . S
C93 O107 1.268 . S
C94 O100 1.268 . S
C94 O109 1.268 . S
C95 O101 1.268 . S
C95 O105 1.268 . S
C96 O102 1.268 . S
C96 O104 1.268 . S
C97 O103 1.268 . S
C97 O106 1.268 . S
O98 Sc88 2.105 1_655 S
O98 C92 1.268 . S
O99 Sc89 2.105 1_655 S
O99 C93 1.268 . S
O100 Sc90 2.105 1_655 S
O100 C94 1.268 . S
O101 Sc88 2.105 . S
O101 C95 1.268 . S
O102 Sc90 2.105 . S
O102 C96 1.268 . S
O103 Sc89 2.105 . S
O103 C97 1.268 . S
O104 Sc88 2.105 . S
O104 C96 1.268 . S
O105 Sc89 2.105 . S
O105 C95 1.268 . S
O106 Sc90 2.105 . S
O106 C97 1.268 . S
O107 Sc88 2.105 1_655 S
O107 C93 1.268 . S
O108 Sc90 2.105 1_655 S
O108 C92 1.268 . S
O109 Sc89 2.105 1_655 S
O109 C94 1.268 . S
Sc110 O113 2.025 . S
Sc110 O120 2.105 . S
Sc110 O123 2.105 1_455 S
Sc110 O126 2.105 1_455 S
Sc110 O129 2.105 . S
Sc111 O113 2.025 . S
Sc111 O121 2.105 . S
Sc111 O125 2.105 1_455 S
Sc111 O127 2.105 1_455 S
Sc111 O131 2.105 . S
Sc112 O113 2.025 . S
Sc112 O122 2.105 . S
Sc112 O124 2.105 1_455 S
Sc112 O128 2.105 1_455 S
Sc112 O130 2.105 . S
O113 Sc110 2.025 . S
O113 Sc111 2.025 . S
O113 Sc112 2.025 . S
C114 O120 1.268 . S
C114 O130 1.268 . S
C115 O121 1.268 . S
C115 O129 1.268 . S
C116 O122 1.268 . S
C116 O131 1.268 . S
C117 O123 1.268 . S
C117 O127 1.268 . S
C118 O124 1.268 . S
C118 O126 1.268 . S
C119 O125 1.268 . S
C119 O128 1.268 . S
O120 Sc110 2.105 . S
O120 C114 1.268 . S
O121 Sc111 2.105 . S
O121 C115 1.268 . S
O122 Sc112 2.105 . S
O122 C116 1.268 . S
O123 Sc110 2.105 1_655 S
O123 C117 1.268 . S
O124 Sc112 2.105 1_655 S
O124 C118 1.268 . S
O125 Sc111 2.105 1_655 S
O125 C119 1.268 . S
O126 Sc110 2.105 1_655 S
O126 C118 1.268 . S
O127 Sc111 2.105 1_655 S
O127 C117 1.268 . S
O128 Sc112 2.105 1_655 S
O128 C119 1.268 . S
O129 Sc110 2.105 . S
O129 C115 1.268 . S
O130 Sc112 2.105 . S
O130 C114 1.268 . S
O131 Sc111 2.105 . S
O131 C116 1.268 . S
Sc132 O135 2.025 . S
Sc132 O142 2.105 . S
Sc132 O145 2.105 . S
Sc132 O148 2.105 . S
Sc132 O151 2.105 . S
Sc133 O135 2.025 . S
Sc133 O143 2.105 . S
Sc133 O147 2.105 . S
Sc133 O149 2.105 . S
Sc133 O153 2.105 . S
Sc134 O135 2.025 . S
Sc134 O144 2.105 . S
Sc134 O146 2.105 . S
Sc134 O150 2.105 . S
Sc134 O152 2.105 . S
O135 Sc132 2.025 . S
O135 Sc133 2.025 . S
O135 Sc134 2.025 . S
C136 O142 1.268 . S
C136 O152 1.268 . S
C137 O143 1.268 . S
C137 O151 1.268 . S
C138 O144 1.268 . S
C138 O153 1.268 . S
C139 O145 1.268 . S
C139 O149 1.268 . S
C140 O146 1.268 . S
C140 O148 1.268 . S
C141 O147 1.268 . S
C141 O150 1.268 . S
O142 Sc132 2.105 . S
O142 C136 1.268 . S
O143 Sc133 2.105 . S
O143 C137 1.268 . S
O144 Sc134 2.105 . S
O144 C138 1.268 . S
O145 Sc132 2.105 . S
O145 C139 1.268 . S
O146 Sc134 2.105 . S
O146 C140 1.268 . S
O147 Sc133 2.105 . S
O147 C141 1.268 . S
O148 Sc132 2.105 . S
O148 C140 1.268 . S
O149 Sc133 2.105 . S
O149 C139 1.268 . S
O150 Sc134 2.105 . S
O150 C141 1.268 . S
O151 Sc132 2.105 . S
O151 C137 1.268 . S
O152 Sc134 2.105 . S
O152 C136 1.268 . S
O153 Sc133 2.105 . S
O153 C138 1.268 . S
Sc154 O157 2.025 . S
Sc154 O164 2.105 . S
Sc154 O167 2.105 . S
Sc154 O170 2.105 . S
Sc154 O173 2.105 . S
Sc155 O157 2.025 . S
Sc155 O165 2.105 . S
Sc155 O169 2.105 . S
Sc155 O171 2.105 . S
Sc155 O175 2.105 . S
Sc156 O157 2.025 . S
Sc156 O166 2.105 . S
Sc156 O168 2.105 . S
Sc156 O172 2.105 . S
Sc156 O174 2.105 . S
O157 Sc154 2.025 . S
O157 Sc155 2.025 . S
O157 Sc156 2.025 . S
C158 O164 1.268 . S
C158 O174 1.268 . S
C159 O165 1.268 . S
C159 O173 1.268 . S
C160 O166 1.268 . S
C160 O175 1.268 . S
C161 O167 1.268 . S
C161 O171 1.268 . S
C162 O168 1.268 . S
C162 O170 1.268 . S
C163 O169 1.268 . S
C163 O172 1.268 . S
O164 Sc154 2.105 . S
O164 C158 1.268 . S
O165 Sc155 2.105 . S
O165 C159 1.268 . S
O166 Sc156 2.105 . S
O166 C160 1.268 . S
O167 Sc154 2.105 . S
O167 C161 1.268 . S
O168 Sc156 2.105 . S
O168 C162 1.268 . S
O169 Sc155 2.105 . S
O169 C163 1.268 . S
O170 Sc154 2.105 . S
O170 C162 1.268 . S
O171 Sc155 2.105 . S
O171 C161 1.268 . S
O172 Sc156 2.105 . S
O172 C163 1.268 . S
O173 Sc154 2.105 . S
O173 C159 1.268 . S
O174 Sc156 2.105 . S
O174 C158 1.268 . S
O175 Sc155 2.105 . S
O175 C160 1.268 . S
H176 C182 0.930 1_554 S
H177 C186 0.930 . S
H178 C191 0.929 . S
H179 C189 0.929 . S
H180 C184 0.929 . S
H181 C190 0.929 . S
C182 H176 0.930 1_556 S
C182 C183 1.367 . S
C182 C190 1.378 . S
C183 C182 1.367 . S
C183 C191 1.433 . S
C184 H180 0.929 . S
C184 C186 1.378 . S
C184 C188 1.350 . S
C185 C188 1.463 . S
C185 C190 1.350 . S
C185 N193 1.427 . S
C186 H177 0.930 . S
C186 C184 1.378 . S
C186 C187 1.367 . S
C187 C186 1.367 . S
C187 C189 1.433 . S
C188 C184 1.350 . S
C188 C185 1.463 . S
C188 N192 1.427 . S
C189 H179 0.929 . S
C189 C187 1.433 . S
C189 N192 1.384 . S
C190 H181 0.929 . S
C190 C182 1.378 . S
C190 C185 1.350 . S
C191 H178 0.929 . S
C191 C183 1.433 . S
C191 N193 1.384 . S
N192 C188 1.427 . S
N192 C189 1.384 . S
N193 C185 1.427 . S
N193 C191 1.384 . S
H194 C200 0.930 . S
H195 C204 0.930 . S
H196 C209 0.929 . S
H197 C207 0.929 . S
H198 C202 0.929 . S
H199 C208 0.929 . S
C200 H194 0.930 . S
C200 C201 1.367 . S
C200 C208 1.378 . S
C201 C200 1.367 . S
C201 C209 1.433 . S
C202 H198 0.929 . S
C202 C204 1.378 . S
C202 C206 1.350 . S
C203 C206 1.463 . S
C203 C208 1.350 . S
C203 N211 1.427 . S
C204 H195 0.930 . S
C204 C202 1.378 . S
C204 C205 1.367 . S
C205 C204 1.367 . S
C205 C207 1.433 . S
C206 C202 1.350 . S
C206 C203 1.463 . S
C206 N210 1.427 . S
C207 H197 0.929 . S
C207 C205 1.433 . S
C207 N210 1.384 . S
C208 H199 0.929 . S
C208 C200 1.378 . S
C208 C203 1.350 . S
C209 H196 0.929 . S
C209 C201 1.433 . S
C209 N211 1.384 . S
N210 C206 1.427 . S
N210 C207 1.384 . S
N211 C203 1.427 . S
N211 C209 1.384 . S
H212 C218 0.930 . S
H213 C222 0.930 . S
H214 C227 0.929 . S
H215 C225 0.929 . S
H216 C220 0.929 . S
H217 C226 0.929 . S
C218 H212 0.930 . S
C218 C219 1.367 . S
C218 C226 1.378 . S
C219 C218 1.367 . S
C219 C227 1.433 . S
C220 H216 0.929 . S
C220 C222 1.378 . S
C220 C224 1.350 . S
C221 C224 1.463 . S
C221 C226 1.350 . S
C221 N229 1.427 . S
C222 H213 0.930 . S
C222 C220 1.378 . S
C222 C223 1.367 . S
C223 C222 1.367 . S
C223 C225 1.433 . S
C224 C220 1.350 . S
C224 C221 1.463 . S
C224 N228 1.427 . S
C225 H215 0.929 . S
C225 C223 1.433 . S
C225 N228 1.384 . S
C226 H217 0.929 . S
C226 C218 1.378 . S
C226 C221 1.350 . S
C227 H214 0.929 . S
C227 C219 1.433 . S
C227 N229 1.384 . S
N228 C224 1.427 . S
N228 C225 1.384 . S
N229 C221 1.427 . S
N229 C227 1.384 . S
H230 C236 0.930 . S
H231 C240 0.930 . S
H232 C245 0.929 . S
H233 C243 0.929 . S
H234 C238 0.929 . S
H235 C244 0.929 . S
C236 H230 0.930 . S
C236 C237 1.367 . S
C236 C244 1.378 . S
C237 C236 1.367 . S
C237 C245 1.433 . S
C238 H234 0.929 . S
C238 C240 1.378 . S
C238 C242 1.350 . S
C239 C242 1.463 . S
C239 C244 1.350 . S
C239 N247 1.427 . S
C240 H231 0.930 . S
C240 C238 1.378 . S
C240 C241 1.367 . S
C241 C240 1.367 . S
C241 C243 1.433 . S
C242 C238 1.350 . S
C242 C239 1.463 . S
C242 N246 1.427 . S
C243 H233 0.929 . S
C243 C241 1.433 . S
C243 N246 1.384 . S
C244 H235 0.929 . S
C244 C236 1.378 . S
C244 C239 1.350 . S
C245 H232 0.929 . S
C245 C237 1.433 . S
C245 N247 1.384 . S
N246 C242 1.427 . S
N246 C243 1.384 . S
N247 C239 1.427 . S
N247 C245 1.384 . S
H248 C254 0.930 1_554 S
H249 C258 0.930 . S
H250 C263 0.929 . S
H251 C261 0.929 . S
H252 C256 0.929 . S
H253 C262 0.929 . S
C254 H248 0.930 1_556 S
C254 C255 1.367 . S
C254 C262 1.378 . S
C255 C254 1.367 . S
C255 C263 1.433 . S
C256 H252 0.929 . S
C256 C258 1.378 . S
C256 C260 1.350 . S
C257 C260 1.463 . S
C257 C262 1.350 . S
C257 N265 1.427 . S
C258 H249 0.930 . S
C258 C256 1.378 . S
C258 C259 1.367 . S
C259 C258 1.367 . S
C259 C261 1.433 . S
C260 C256 1.350 . S
C260 C257 1.463 . S
C260 N264 1.427 . S
C261 H251 0.929 . S
C261 C259 1.433 . S
C261 N264 1.384 . S
C262 H253 0.929 . S
C262 C254 1.378 . S
C262 C257 1.350 . S
C263 H250 0.929 . S
C263 C255 1.433 . S
C263 N265 1.384 . S
N264 C260 1.427 . S
N264 C261 1.384 . S
N265 C257 1.427 . S
N265 C263 1.384 . S
H266 C272 0.930 . S
H267 C276 0.930 . S
H268 C281 0.929 . S
H269 C279 0.929 . S
H270 C274 0.929 . S
H271 C280 0.929 . S
C272 H266 0.930 . S
C272 C273 1.367 . S
C272 C280 1.378 . S
C273 C272 1.367 . S
C273 C281 1.433 . S
C274 H270 0.929 . S
C274 C276 1.378 . S
C274 C278 1.350 . S
C275 C278 1.463 . S
C275 C280 1.350 . S
C275 N283 1.427 . S
C276 H267 0.930 . S
C276 C274 1.378 . S
C276 C277 1.367 . S
C277 C276 1.367 . S
C277 C279 1.433 . S
C278 C274 1.350 . S
C278 C275 1.463 . S
C278 N282 1.427 . S
C279 H269 0.929 . S
C279 C277 1.433 . S
C279 N282 1.384 . S
C280 H271 0.929 . S
C280 C272 1.378 . S
C280 C275 1.350 . S
C281 H268 0.929 . S
C281 C273 1.433 . S
C281 N283 1.384 . S
N282 C278 1.427 . S
N282 C279 1.384 . S
N283 C275 1.427 . S
N283 C281 1.384 . S
H284 C290 0.930 . S
H285 C294 0.930 . S
H286 C299 0.929 . S
H287 C297 0.929 . S
H288 C292 0.929 . S
H289 C298 0.929 . S
C290 H284 0.930 . S
C290 C291 1.367 . S
C290 C298 1.378 . S
C291 C290 1.367 . S
C291 C299 1.433 . S
C292 H288 0.929 . S
C292 C294 1.378 . S
C292 C296 1.350 . S
C293 C296 1.463 . S
C293 C298 1.350 . S
C293 N301 1.427 . S
C294 H285 0.930 . S
C294 C292 1.378 . S
C294 C295 1.367 . S
C295 C294 1.367 . S
C295 C297 1.433 . S
C296 C292 1.350 . S
C296 C293 1.463 . S
C296 N300 1.427 . S
C297 H287 0.929 . S
C297 C295 1.433 . S
C297 N300 1.384 . S
C298 H289 0.929 . S
C298 C290 1.378 . S
C298 C293 1.350 . S
C299 H286 0.929 . S
C299 C291 1.433 . S
C299 N301 1.384 . S
N300 C296 1.427 . S
N300 C297 1.384 . S
N301 C293 1.427 . S
N301 C299 1.384 . S
H302 C308 0.930 . S
H303 C312 0.930 . S
H304 C317 0.929 . S
H305 C315 0.929 . S
H306 C310 0.929 . S
H307 C316 0.929 . S
C308 H302 0.930 . S
C308 C309 1.367 . S
C308 C316 1.378 . S
C309 C308 1.367 . S
C309 C317 1.433 . S
C310 H306 0.929 . S
C310 C312 1.378 . S
C310 C314 1.350 . S
C311 C314 1.463 . S
C311 C316 1.350 . S
C311 N319 1.427 . S
C312 H303 0.930 . S
C312 C310 1.378 . S
C312 C313 1.367 . S
C313 C312 1.367 . S
C313 C315 1.433 . S
C314 C310 1.350 . S
C314 C311 1.463 . S
C314 N318 1.427 . S
C315 H305 0.929 . S
C315 C313 1.433 . S
C315 N318 1.384 . S
C316 H307 0.929 . S
C316 C308 1.378 . S
C316 C311 1.350 . S
C317 H304 0.929 . S
C317 C309 1.433 . S
C317 N319 1.384 . S
N318 C314 1.427 . S
N318 C315 1.384 . S
N319 C311 1.427 . S
N319 C317 1.384 . S
H320 C326 0.930 . S
H321 C330 0.930 . S
H322 C335 0.929 1_554 S
H323 C333 0.929 . S
H324 C328 0.929 . S
H325 C334 0.929 . S
C326 H320 0.930 . S
C326 C327 1.367 . S
C326 C334 1.378 . S
C327 C326 1.367 . S
C327 C335 1.433 . S
C328 H324 0.929 . S
C328 C330 1.378 . S
C328 C332 1.350 . S
C329 C332 1.463 . S
C329 C334 1.350 . S
C329 N337 1.427 . S
C330 H321 0.930 . S
C330 C328 1.378 . S
C330 C331 1.367 . S
C331 C330 1.367 . S
C331 C333 1.433 . S
C332 C328 1.350 . S
C332 C329 1.463 . S
C332 N336 1.427 . S
C333 H323 0.929 . S
C333 C331 1.433 . S
C333 N336 1.384 . S
C334 H325 0.929 . S
C334 C326 1.378 . S
C334 C329 1.350 . S
C335 H322 0.929 1_556 S
C335 C327 1.433 . S
C335 N337 1.384 . S
N336 C332 1.427 . S
N336 C333 1.384 . S
N337 C329 1.427 . S
N337 C335 1.384 . S
H338 C344 0.930 . S
H339 C348 0.930 . S
H340 C353 0.929 . S
H341 C351 0.929 . S
H342 C346 0.929 . S
H343 C352 0.929 . S
C344 H338 0.930 . S
C344 C345 1.367 . S
C344 C352 1.378 . S
C345 C344 1.367 . S
C345 C353 1.433 . S
C346 H342 0.929 . S
C346 C348 1.378 . S
C346 C350 1.350 . S
C347 C350 1.463 . S
C347 C352 1.350 . S
C347 N355 1.427 . S
C348 H339 0.930 . S
C348 C346 1.378 . S
C348 C349 1.367 . S
C349 C348 1.367 . S
C349 C351 1.433 . S
C350 C346 1.350 . S
C350 C347 1.463 . S
C350 N354 1.427 . S
C351 H341 0.929 . S
C351 C349 1.433 . S
C351 N354 1.384 . S
C352 H343 0.929 . S
C352 C344 1.378 . S
C352 C347 1.350 . S
C353 H340 0.929 . S
C353 C345 1.433 . S
C353 N355 1.384 . S
N354 C350 1.427 . S
N354 C351 1.384 . S
N355 C347 1.427 . S
N355 C353 1.384 . S
H356 C362 0.930 . S
H357 C366 0.930 . S
H358 C371 0.929 . S
H359 C369 0.929 . S
H360 C364 0.929 . S
H361 C370 0.929 . S
C362 H356 0.930 . S
C362 C363 1.367 . S
C362 C370 1.378 . S
C363 C362 1.367 . S
C363 C371 1.433 . S
C364 H360 0.929 . S
C364 C366 1.378 . S
C364 C368 1.350 . S
C365 C368 1.463 . S
C365 C370 1.350 . S
C365 N373 1.427 . S
C366 H357 0.930 . S
C366 C364 1.378 . S
C366 C367 1.367 . S
C367 C366 1.367 . S
C367 C369 1.433 . S
C368 C364 1.350 . S
C368 C365 1.463 . S
C368 N372 1.427 . S
C369 H359 0.929 . S
C369 C367 1.433 . S
C369 N372 1.384 . S
C370 H361 0.929 . S
C370 C362 1.378 . S
C370 C365 1.350 . S
C371 H358 0.929 . S
C371 C363 1.433 . S
C371 N373 1.384 . S
N372 C368 1.427 . S
N372 C369 1.384 . S
N373 C365 1.427 . S
N373 C371 1.384 . S
H374 C380 0.930 . S
H375 C384 0.930 . S
H376 C389 0.929 . S
H377 C387 0.929 . S
H378 C382 0.929 . S
H379 C388 0.929 . S
C380 H374 0.930 . S
C380 C381 1.367 . S
C380 C388 1.378 . S
C381 C380 1.367 . S
C381 C389 1.433 . S
C382 H378 0.929 . S
C382 C384 1.378 . S
C382 C386 1.350 . S
C383 C386 1.463 . S
C383 C388 1.350 . S
C383 N391 1.427 . S
C384 H375 0.930 . S
C384 C382 1.378 . S
C384 C385 1.367 . S
C385 C384 1.367 . S
C385 C387 1.433 . S
C386 C382 1.350 . S
C386 C383 1.463 . S
C386 N390 1.427 . S
C387 H377 0.929 . S
C387 C385 1.433 . S
C387 N390 1.384 . S
C388 H379 0.929 . S
C388 C380 1.378 . S
C388 C383 1.350 . S
C389 H376 0.929 . S
C389 C381 1.433 . S
C389 N391 1.384 . S
N390 C386 1.427 . S
N390 C387 1.384 . S
N391 C383 1.427 . S
N391 C389 1.384 . S
H392 C398 0.930 1_554 S
H393 C402 0.930 . S
H394 C407 0.929 . S
H395 C405 0.929 . S
H396 C400 0.929 . S
H397 C406 0.917 1_545 S
C398 H392 0.930 1_556 S
C398 C399 1.367 . S
C398 C406 1.385 . S
C399 C398 1.367 . S
C399 C407 1.433 . S
C400 H396 0.929 . S
C400 C402 1.378 1_565 S
C400 C404 1.350 1_565 S
C401 C404 1.463 1_565 S
C401 C406 1.354 . S
C401 N409 1.427 . S
C402 H393 0.930 . S
C402 C400 1.378 1_545 S
C402 C403 1.367 . S
C403 C402 1.367 . S
C403 C405 1.433 . S
C404 C400 1.350 1_545 S
C404 C401 1.463 1_545 S
C404 N408 1.427 . S
C405 H395 0.929 . S
C405 C403 1.433 . S
C405 N408 1.384 . S
C406 H397 0.917 1_565 S
C406 C398 1.385 . S
C406 C401 1.354 . S
C407 H394 0.929 . S
C407 C399 1.433 . S
C407 N409 1.384 . S
N408 C404 1.427 . S
N408 C405 1.384 . S
N409 C401 1.427 . S
N409 C407 1.384 . S
H410 C416 0.930 . S
H411 C420 0.930 . S
H412 C425 0.929 . S
H413 C423 0.929 . S
H414 C418 0.929 . S
H415 C424 0.929 . S
C416 H410 0.930 . S
C416 C417 1.367 . S
C416 C424 1.378 . S
C417 C416 1.367 . S
C417 C425 1.433 . S
C418 H414 0.929 . S
C418 C420 1.378 . S
C418 C422 1.350 . S
C419 C422 1.463 1_545 S
C419 C424 1.350 . S
C419 N427 1.427 . S
C420 H411 0.930 . S
C420 C418 1.378 . S
C420 C421 1.367 . S
C421 C420 1.367 . S
C421 C423 1.433 . S
C422 C418 1.350 . S
C422 C419 1.463 1_565 S
C422 N426 1.427 . S
C423 H413 0.929 . S
C423 C421 1.433 . S
C423 N426 1.384 . S
C424 H415 0.929 . S
C424 C416 1.378 . S
C424 C419 1.350 . S
C425 H412 0.929 . S
C425 C417 1.433 . S
C425 N427 1.384 . S
N426 C422 1.427 . S
N426 C423 1.384 . S
N427 C419 1.427 . S
N427 C425 1.384 . S
H428 C434 0.930 1_554 S
H429 C438 0.930 . S
H430 C443 0.929 . S
H431 C441 0.929 . S
H432 C436 0.929 . S
H433 C442 0.910 1_545 S
C434 H428 0.930 1_556 S
C434 C435 1.367 . S
C434 C442 1.390 . S
C435 C434 1.367 . S
C435 C443 1.433 . S
C436 H432 0.929 . S
C436 C438 1.378 1_565 S
C436 C440 1.350 1_565 S
C437 C440 1.463 1_565 S
C437 C442 1.357 . S
C437 N445 1.427 . S
C438 H429 0.930 . S
C438 C436 1.378 1_545 S
C438 C439 1.367 . S
C439 C438 1.367 . S
C439 C441 1.433 . S
C440 C436 1.350 1_545 S
C440 C437 1.463 1_545 S
C440 N444 1.427 . S
C441 H431 0.929 . S
C441 C439 1.433 . S
C441 N444 1.384 . S
C442 H433 0.910 1_565 S
C442 C434 1.390 . S
C442 C437 1.357 . S
C443 H430 0.929 . S
C443 C435 1.433 . S
C443 N445 1.384 . S
N444 C440 1.427 . S
N444 C441 1.384 . S
N445 C437 1.427 . S
N445 C443 1.384 . S
H446 C452 0.930 . S
H447 C456 0.930 . S
H448 C461 0.929 . S
H449 C459 0.929 . S
H450 C454 0.929 . S
H451 C460 0.929 . S
C452 H446 0.930 . S
C452 C453 1.367 . S
C452 C460 1.378 . S
C453 C452 1.367 . S
C453 C461 1.433 . S
C454 H450 0.929 . S
C454 C456 1.378 . S
C454 C458 1.350 . S
C455 C458 1.463 1_545 S
C455 C460 1.350 . S
C455 N463 1.427 . S
C456 H447 0.930 . S
C456 C454 1.378 . S
C456 C457 1.367 . S
C457 C456 1.367 . S
C457 C459 1.433 . S
C458 C454 1.350 . S
C458 C455 1.463 1_565 S
C458 N462 1.427 . S
C459 H449 0.929 . S
C459 C457 1.433 . S
C459 N462 1.384 . S
C460 H451 0.929 . S
C460 C452 1.378 . S
C460 C455 1.350 . S
C461 H448 0.929 . S
C461 C453 1.433 . S
C461 N463 1.384 . S
N462 C458 1.427 . S
N462 C459 1.384 . S
N463 C455 1.427 . S
N463 C461 1.384 . S
H464 C470 0.930 . S
H465 C474 0.930 . S
H466 C479 0.929 . S
H467 C477 0.929 . S
H468 C472 0.929 . S
H469 C478 0.929 . S
C470 H464 0.930 . S
C470 C471 1.367 . S
C470 C478 1.378 . S
C471 C470 1.367 . S
C471 C479 1.433 . S
C472 H468 0.929 . S
C472 C474 1.378 . S
C472 C476 1.350 . S
C473 C476 1.463 . S
C473 C478 1.350 . S
C473 N481 1.427 . S
C474 H465 0.930 . S
C474 C472 1.378 . S
C474 C475 1.367 . S
C475 C474 1.367 . S
C475 C477 1.433 . S
C476 C472 1.350 . S
C476 C473 1.463 . S
C476 N480 1.427 . S
C477 H467 0.929 . S
C477 C475 1.433 . S
C477 N480 1.384 . S
C478 H469 0.929 . S
C478 C470 1.378 . S
C478 C473 1.350 . S
C479 H466 0.929 . S
C479 C471 1.433 . S
C479 N481 1.384 . S
N480 C476 1.427 . S
N480 C477 1.384 . S
N481 C473 1.427 . S
N481 C479 1.384 . S
H482 C488 0.930 . S
H483 C492 0.930 . S
H484 C497 0.929 . S
H485 C495 0.929 . S
H486 C490 0.929 . S
H487 C496 0.929 . S
C488 H482 0.930 . S
C488 C489 1.367 . S
C488 C496 1.378 . S
C489 C488 1.367 . S
C489 C497 1.433 . S
C490 H486 0.929 . S
C490 C492 1.378 . S
C490 C494 1.350 . S
C491 C494 1.463 . S
C491 C496 1.350 . S
C491 N499 1.427 . S
C492 H483 0.930 . S
C492 C490 1.378 . S
C492 C493 1.367 . S
C493 C492 1.367 . S
C493 C495 1.433 . S
C494 C490 1.350 . S
C494 C491 1.463 . S
C494 N498 1.427 . S
C495 H485 0.929 . S
C495 C493 1.433 . S
C495 N498 1.384 . S
C496 H487 0.929 . S
C496 C488 1.378 . S
C496 C491 1.350 . S
C497 H484 0.929 . S
C497 C489 1.433 . S
C497 N499 1.384 . S
N498 C494 1.427 . S
N498 C495 1.384 . S
N499 C491 1.427 . S
N499 C497 1.384 . S
H500 C506 0.930 . S
H501 C510 0.930 . S
H502 C515 0.929 . S
H503 C513 0.929 . S
H504 C508 0.929 . S
H505 C514 0.929 . S
C506 H500 0.930 . S
C506 C507 1.367 . S
C506 C514 1.378 . S
C507 C506 1.367 . S
C507 C515 1.433 . S
C508 H504 0.929 . S
C508 C510 1.378 . S
C508 C512 1.350 . S
C509 C512 1.463 . S
C509 C514 1.350 . S
C509 N517 1.427 . S
C510 H501 0.930 . S
C510 C508 1.378 . S
C510 C511 1.367 . S
C511 C510 1.367 . S
C511 C513 1.433 . S
C512 C508 1.350 . S
C512 C509 1.463 . S
C512 N516 1.427 . S
C513 H503 0.929 . S
C513 C511 1.433 . S
C513 N516 1.384 . S
C514 H505 0.929 . S
C514 C506 1.378 . S
C514 C509 1.350 . S
C515 H502 0.929 . S
C515 C507 1.433 . S
C515 N517 1.384 . S
N516 C512 1.427 . S
N516 C513 1.384 . S
N517 C509 1.427 . S
N517 C515 1.384 . S
H518 C524 0.930 . S
H519 C528 0.930 . S
H520 C533 0.929 . S
H521 C531 0.929 . S
H522 C526 0.929 . S
H523 C532 0.929 . S
C524 H518 0.930 . S
C524 C525 1.367 . S
C524 C532 1.378 . S
C525 C524 1.367 . S
C525 C533 1.433 . S
C526 H522 0.929 . S
C526 C528 1.378 . S
C526 C530 1.350 . S
C527 C530 1.463 . S
C527 C532 1.350 . S
C527 N535 1.427 . S
C528 H519 0.930 . S
C528 C526 1.378 . S
C528 C529 1.367 . S
C529 C528 1.367 . S
C529 C531 1.433 . S
C530 C526 1.350 . S
C530 C527 1.463 . S
C530 N534 1.427 . S
C531 H521 0.929 . S
C531 C529 1.433 . S
C531 N534 1.384 . S
C532 H523 0.929 . S
C532 C524 1.378 . S
C532 C527 1.350 . S
C533 H520 0.929 . S
C533 C525 1.433 . S
C533 N535 1.384 . S
N534 C530 1.427 . S
N534 C531 1.384 . S
N535 C527 1.427 . S
N535 C533 1.384 . S
H536 C542 0.930 . S
H537 C546 0.930 . S
H538 C551 0.929 . S
H539 C549 0.929 . S
H540 C544 0.929 . S
H541 C550 0.929 . S
C542 H536 0.930 . S
C542 C543 1.367 . S
C542 C550 1.378 . S
C543 C542 1.367 . S
C543 C551 1.433 . S
C544 H540 0.929 . S
C544 C546 1.378 . S
C544 C548 1.350 . S
C545 C548 1.463 . S
C545 C550 1.350 . S
C545 N553 1.427 . S
C546 H537 0.930 . S
C546 C544 1.378 . S
C546 C547 1.367 . S
C547 C546 1.367 . S
C547 C549 1.433 . S
C548 C544 1.350 . S
C548 C545 1.463 . S
C548 N552 1.427 . S
C549 H539 0.929 . S
C549 C547 1.433 . S
C549 N552 1.384 . S
C550 H541 0.929 . S
C550 C542 1.378 . S
C550 C545 1.350 . S
C551 H538 0.929 . S
C551 C543 1.433 . S
C551 N553 1.384 . S
N552 C548 1.427 . S
N552 C549 1.384 . S
N553 C545 1.427 . S
N553 C551 1.384 . S
H554 C560 0.930 . S
H555 C564 0.930 . S
H556 C569 0.929 . S
H557 C567 0.929 . S
H558 C562 0.929 . S
H559 C568 0.929 . S
C560 H554 0.930 . S
C560 C561 1.367 . S
C560 C568 1.378 . S
C561 C560 1.367 . S
C561 C569 1.433 . S
C562 H558 0.929 . S
C562 C564 1.378 . S
C562 C566 1.350 . S
C563 C566 1.463 . S
C563 C568 1.350 . S
C563 N571 1.427 . S
C564 H555 0.930 . S
C564 C562 1.378 . S
C564 C565 1.367 . S
C565 C564 1.367 . S
C565 C567 1.433 . S
C566 C562 1.350 . S
C566 C563 1.463 . S
C566 N570 1.427 . S
C567 H557 0.929 . S
C567 C565 1.433 . S
C567 N570 1.384 . S
C568 H559 0.929 . S
C568 C560 1.378 . S
C568 C563 1.350 . S
C569 H556 0.929 . S
C569 C561 1.433 . S
C569 N571 1.384 . S
N570 C566 1.427 . S
N570 C567 1.384 . S
N571 C563 1.427 . S
N571 C569 1.384 . S
H572 C578 0.930 . S
H573 C582 0.930 . S
H574 C587 0.929 . S
H575 C585 0.929 . S
H576 C580 0.929 . S
H577 C586 0.929 . S
C578 H572 0.930 . S
C578 C579 1.367 . S
C578 C586 1.378 . S
C579 C578 1.367 . S
C579 C587 1.433 . S
C580 H576 0.929 . S
C580 C582 1.378 . S
C580 C584 1.350 . S
C581 C584 1.463 . S
C581 C586 1.350 . S
C581 N589 1.427 . S
C582 H573 0.930 . S
C582 C580 1.378 . S
C582 C583 1.367 . S
C583 C582 1.367 . S
C583 C585 1.433 . S
C584 C580 1.350 . S
C584 C581 1.463 . S
C584 N588 1.427 . S
C585 H575 0.929 . S
C585 C583 1.433 . S
C585 N588 1.384 . S
C586 H577 0.929 . S
C586 C578 1.378 . S
C586 C581 1.350 . S
C587 H574 0.929 . S
C587 C579 1.433 . S
C587 N589 1.384 . S
N588 C584 1.427 . S
N588 C585 1.384 . S
N589 C581 1.427 . S
N589 C587 1.384 . S
H590 C596 0.930 . S
H591 C600 0.930 . S
H592 C605 0.929 . S
H593 C603 0.929 . S
H594 C598 0.929 . S
H595 C604 0.929 . S
C596 H590 0.930 . S
C596 C597 1.367 . S
C596 C604 1.378 . S
C597 C596 1.367 . S
C597 C605 1.433 . S
C598 H594 0.929 . S
C598 C600 1.378 . S
C598 C602 1.350 . S
C599 C602 1.463 . S
C599 C604 1.350 . S
C599 N607 1.427 . S
C600 H591 0.930 . S
C600 C598 1.378 . S
C600 C601 1.367 . S
C601 C600 1.367 . S
C601 C603 1.433 . S
C602 C598 1.350 . S
C602 C599 1.463 . S
C602 N606 1.427 . S
C603 H593 0.929 . S
C603 C601 1.433 . S
C603 N606 1.384 . S
C604 H595 0.929 . S
C604 C596 1.378 . S
C604 C599 1.350 . S
C605 H592 0.929 . S
C605 C597 1.433 . S
C605 N607 1.384 . S
N606 C602 1.427 . S
N606 C603 1.384 . S
N607 C599 1.427 . S
N607 C605 1.384 . S
C183 C10 1.538 . S
C187 C114 1.518 . S
C205 C92 1.522 . S
C201 C21 1.538 . S
C223 C118 1.588 . S
C219 C32 1.604 . S
C241 C96 1.463 . S
C237 C43 1.487 . S
C259 C158 1.518 . S
C255 C54 1.538 . S
C277 C136 1.524 . S
C273 C65 1.540 . S
C291 C76 1.597 . S
C295 C162 1.578 . S
C313 C140 1.464 . S
C309 C87 1.487 . S
C327 C5 1.505 . S
C331 C163 1.518 . S
C349 C141 1.492 . S
C345 C16 1.484 . S
C363 C27 1.554 . S
C367 C160 1.570 . S
C381 C37 1.424 . S
C385 C138 1.431 . S
C403 C119 1.519 . S
C399 C49 1.501 . S
C417 C60 1.484 . S
C421 C97 1.493 . S
C439 C116 1.571 . S
C435 C71 1.552 . S
C457 C94 1.429 . S
C453 C81 1.425 . S
C475 C137 1.483 . S
C471 C4 1.485 . S
C493 C159 1.479 . S
C489 C15 1.471 . S
C507 C26 1.497 . S
C511 C139 1.480 . S
C529 C161 1.483 . S
C525 C38 1.458 . S
C547 C93 1.480 . S
C543 C48 1.489 . S
C561 C59 1.478 . S
C565 C115 1.474 . S
C579 C70 1.495 . S
C583 C95 1.481 . S
C597 C82 1.457 . S
C601 C117 1.484 . S
