# Generated by pormake.
# Topology rtl, (3,6)-cn, num edge types: 1
# Building blocks:
#     Node 0, Type 0, BuildingBlock: BELTOD_clean_linker_0, # of connection points: 3
#     Node 1, Type 0, BuildingBlock: BELTOD_clean_linker_0, # of connection points: 3
#     Node 2, Type 0, BuildingBlock: BELTOD_clean_linker_0, # of connection points: 3
#     Node 3, Type 0, BuildingBlock: BELTOD_clean_linker_0, # of connection points: 3
#     Node 4, Type 1, BuildingBlock: VOLQOD_clean_sbu_1, # of connection points: 6
#     Node 5, Type 1, BuildingBlock: VOLQOD_clean_sbu_1, # of connection points: 6
#     Edge 6, Type (0, 1), BuildingBlock: EZIPEK_clean_linker_0, # of connection points: 2
#     Edge 7, Type (0, 1), BuildingBlock: EZIPEK_clean_linker_0, # of connection points: 2
#     Edge 8, Type (0, 1), BuildingBlock: EZIPEK_clean_linker_0, # of connection points: 2
#     Edge 9, Type (0, 1), BuildingBlock: EZIPEK_clean_linker_0, # of connection points: 2
#     Edge 10, Type (0, 1), BuildingBlock: EZIPEK_clean_linker_0, # of connection points: 2
#     Edge 11, Type (0, 1), BuildingBlock: EZIPEK_clean_linker_0, # of connection points: 2
#     Edge 12, Type (0, 1), BuildingBlock: EZIPEK_clean_linker_0, # of connection points: 2
#     Edge 13, Type (0, 1), BuildingBlock: EZIPEK_clean_linker_0, # of connection points: 2
#     Edge 14, Type (0, 1), BuildingBlock: EZIPEK_clean_linker_0, # of connection points: 2
#     Edge 15, Type (0, 1), BuildingBlock: EZIPEK_clean_linker_0, # of connection points: 2
#     Edge 16, Type (0, 1), BuildingBlock: EZIPEK_clean_linker_0, # of connection points: 2
#     Edge 17, Type (0, 1), BuildingBlock: EZIPEK_clean_linker_0, # of connection points: 2
# Relax obj value: 0.074
# Max RMSD: 0.154
# Mean RMSD: 0.084
data_MOF--net-rtl--node1-VOLQOD_clean_sbu_1--node2-BELTOD_clean_linker_0--edge1-EZIPEK_clean_linker_0
_symmetry_space_group_name_H-M    P1
_symmetry_Int_Tables_number       1
_symmetry_cell_setting            triclinic
loop_
_symmetry_equiv_pos_as_xyz
'x, y, z'
_cell_length_a     32.327881
_cell_length_b     28.154011
_cell_length_c     20.70607
_cell_angle_alpha  89.09961
_cell_angle_beta   90.244398
_cell_angle_gamma 90.335613
loop_
_atom_site_label
_atom_site_type_symbol
_atom_site_fract_x
_atom_site_fract_y
_atom_site_fract_z
_atom_type_partial_charge
P0 P 0.17003 0.79239 0.00896 0.0
H1 H 0.17835 0.76427 0.14503 0.0
H2 H 0.13943 0.7878 0.24066 0.0
H3 H 0.05024 0.85867 0.11797 0.0
H4 H 0.0873 0.83317 0.02292 0.0
H5 H 0.23487 0.76466 0.9233 0.0
H6 H 0.28016 0.6954 0.92196 0.0
H7 H 0.20701 0.62807 0.07148 0.0
H8 H 0.16082 0.69719 0.07186 0.0
H9 H 0.16483 0.88152 0.93691 0.0
H10 H 0.11406 0.73983 0.92405 0.0
O11 O 0.20738 0.83243 0.0213 0.0
H12 H 0.12239 0.90694 0.84485 0.0
H13 H 0.07128 0.76561 0.8311 0.0
C14 C 0.13556 0.7962 0.07659 0.0
C15 C 0.1493 0.78271 0.13852 0.0
C16 C 0.12727 0.79636 0.19307 0.0
C17 C 0.09231 0.82541 0.18612 0.0
C18 C 0.07715 0.83626 0.12421 0.0
C19 C 0.09853 0.82164 0.06983 0.0
C20 C 0.19534 0.73651 -0.00108 0.0
C21 C 0.22786 0.73452 0.95463 0.0
C22 C 0.25357 0.69506 0.95365 0.0
C23 C 0.24695 0.65708 -0.00306 0.0
C24 C 0.21241 0.65724 0.03777 0.0
C25 C 0.18642 0.69684 0.03844 0.0
C26 C 0.14316 0.80857 0.93614 0.0
C27 C 0.14516 0.85566 0.91352 0.0
C28 C 0.12077 0.87029 0.86145 0.0
C29 C 0.09392 0.83807 0.83168 0.0
C30 C 0.09204 0.79074 0.85374 0.0
C31 C 0.11653 0.77608 0.90614 0.0
P32 P 0.68585 0.71364 0.50321 0.0
H33 H 0.70388 0.65397 0.39292 0.0
H34 H 0.66025 0.62255 0.30669 0.0
H35 H 0.55773 0.70549 0.37356 0.0
H36 H 0.60158 0.73761 0.45997 0.0
H37 H 0.73592 0.76531 0.59369 0.0
H38 H 0.77283 0.84112 0.58417 0.0
H39 H 0.70756 0.87281 0.4067 0.0
H40 H 0.67155 0.79584 0.41498 0.0
H41 H 0.69079 0.63119 0.58909 0.0
H42 H 0.61665 0.75774 0.57119 0.0
O43 O 0.72954 0.68229 0.50307 0.0
H44 H 0.64719 0.60269 0.67773 0.0
H45 H 0.57158 0.72791 0.65866 0.0
C46 C 0.65583 0.69768 0.43344 0.0
C47 C 0.67228 0.66615 0.3887 0.0
C48 C 0.64746 0.6482 0.33946 0.0
C49 C 0.60589 0.66163 0.33424 0.0
C50 C 0.58981 0.69485 0.37707 0.0
C51 C 0.61477 0.71295 0.42636 0.0
C52 C 0.70139 0.77486 0.50483 0.0
C53 C 0.72866 0.78908 0.55363 0.0
C54 C 0.74969 0.83229 0.54823 0.0
C55 C 0.74339 0.86203 0.49418 0.0
C56 C 0.71295 0.85003 0.44849 0.0
C57 C 0.69245 0.80617 0.45329 0.0
C58 C 0.65709 0.69672 0.57395 0.0
C59 C 0.66552 0.6532 0.6048 0.0
C60 C 0.64057 0.63682 0.65519 0.0
C61 C 0.6063 0.66327 0.67465 0.0
C62 C 0.5981 0.70723 0.64446 0.0
C63 C 0.62366 0.72408 0.59464 0.0
P64 P 0.90876 0.35225 0.99514 0.0
H65 H 0.9138 0.37115 0.8567 0.0
H66 H 0.92485 0.3191 0.76397 0.0
H67 H 0.94105 0.19956 0.89417 0.0
H68 H 0.92967 0.25083 0.98625 0.0
H69 H 0.86118 0.42922 0.05022 0.0
H70 H 0.7865 0.44541 0.05297 0.0
H71 H 0.7632 0.32196 0.93737 0.0
H72 H 0.83744 0.30553 0.93481 0.0
H73 H 0.98384 0.3385 0.07188 0.0
H74 H 0.85578 0.29443 0.08017 0.0
O75 O 0.93722 0.40183 0.99158 0.0
H76 H -0.00069 0.2862 0.16515 0.0
H77 H 0.87131 0.24275 0.17282 0.0
C78 C 0.92157 0.31512 0.92833 0.0
C79 C 0.9203 0.33388 0.86522 0.0
C80 C 0.92636 0.3043 0.81252 0.0
C81 C 0.9338 0.2557 0.82263 0.0
C82 C 0.93545 0.23706 0.88572 0.0
C83 C 0.92917 0.26651 0.93824 0.0
C84 C 0.85486 0.36701 0.9909 0.0
C85 C 0.84004 0.40612 0.02465 0.0
C86 C 0.79763 0.41514 0.02661 0.0
C87 C 0.76972 0.38485 0.99521 0.0
C88 C 0.7845 0.34572 0.96153 0.0
C89 C 0.82684 0.33669 0.95966 0.0
C90 C 0.91857 0.32111 0.06997 0.0
C91 C 0.95895 0.31865 0.0947 0.0
C92 C 0.96779 0.28884 0.14754 0.0
C93 C 0.93631 0.26106 0.17562 0.0
C94 C 0.89579 0.26436 0.15186 0.0
C95 C 0.887 0.29404 0.09916 0.0
P96 P 0.41147 0.15473 0.50853 0.0
H97 H 0.4382 0.14055 0.64237 0.0
H98 H 0.45021 0.19626 0.73109 0.0
H99 H 0.42162 0.31384 0.60299 0.0
H100 H 0.40927 0.25863 0.5148 0.0
H101 H 0.36659 0.0735 0.45701 0.0
H102 H 0.29278 0.05169 0.45742 0.0
H103 H 0.2667 0.1719 0.57683 0.0
H104 H 0.33989 0.19403 0.576 0.0
H105 H 0.48435 0.19015 0.44046 0.0
H106 H 0.3521 0.18812 0.40984 0.0
O107 O 0.44325 0.1083 0.51269 0.0
H108 H 0.49243 0.24191 0.34432 0.0
H109 H 0.36042 0.23893 0.31424 0.0
C110 C 0.42395 0.19553 0.57171 0.0
C111 C 0.43508 0.17834 0.63322 0.0
C112 C 0.44168 0.20993 0.68372 0.0
C113 C 0.43689 0.25893 0.67308 0.0
C114 C 0.42564 0.2761 0.61167 0.0
C115 C 0.41894 0.24457 0.56137 0.0
C116 C 0.35886 0.13474 0.5175 0.0
C117 C 0.3451 0.09457 0.48432 0.0
C118 C 0.30314 0.0823 0.48426 0.0
C119 C 0.27459 0.11024 0.51727 0.0
C120 C 0.28845 0.14991 0.55138 0.0
C121 C 0.33029 0.16229 0.55113 0.0
C122 C 0.41777 0.18475 0.43188 0.0
C123 C 0.45728 0.19973 0.41224 0.0
C124 C 0.46191 0.22923 0.35774 0.0
C125 C 0.42698 0.24383 0.32247 0.0
C126 C 0.38765 0.22756 0.34082 0.0
C127 C 0.38302 0.19842 0.39538 0.0
O128 O 0.88785 0.03043 0.49153 0.0
Zn129 Zn 0.94019 0.07042 0.49767 0.0
O130 O 0.98983 0.03058 0.50185 0.0
Zn131 Zn 0.02132 0.04398 0.57997 0.0
Zn132 Zn 0.97402 0.9635 0.50259 0.0
Zn133 Zn 0.02463 0.04383 0.42697 0.0
O134 O 0.07961 0.06384 0.56008 0.0
O135 O 0.08225 0.06262 0.45294 0.0
O136 O 0.93719 0.11275 0.5753 0.0
O137 O 0.99471 0.09555 0.63027 0.0
O138 O 0.02658 0.98584 0.63614 0.0
O139 O 0.99242 0.9296 0.58337 0.0
O140 O 0.00032 0.92825 0.42998 0.0
O141 O 0.94218 0.11403 0.41965 0.0
O142 O 0.03143 0.98594 0.37379 0.0
O143 O 0.00123 0.09579 0.37119 0.0
C144 C 0.88261 0.98553 0.49097 0.0
C145 C 0.09942 0.06888 0.50751 0.0
C146 C 0.01396 0.94321 0.63116 0.0
C147 C 0.9615 0.11913 0.62301 0.0
C148 C 0.02155 0.94247 0.38183 0.0
C149 C 0.96834 0.12018 0.37447 0.0
O150 O 0.91286 0.95688 0.4944 0.0
O151 O 0.59011 0.47513 0.00435 0.0
Zn152 Zn 0.53975 0.51546 0.00541 0.0
O153 O 0.48999 0.47636 0.00552 0.0
Zn154 Zn 0.45683 0.49167 0.92866 0.0
Zn155 Zn 0.50542 0.40927 0.00656 0.0
Zn156 Zn 0.45821 0.48932 0.08274 0.0
O157 O 0.40276 0.52172 0.95244 0.0
O158 O 0.40554 0.52263 0.05983 0.0
O159 O 0.54361 0.55658 0.92614 0.0
O160 O 0.48658 0.53898 0.87106 0.0
O161 O 0.44729 0.43332 0.87513 0.0
O162 O 0.48644 0.37886 0.92472 0.0
O163 O 0.47798 0.37329 0.07983 0.0
O164 O 0.54402 0.55494 0.0848 0.0
O165 O 0.4431 0.42886 0.12949 0.0
O166 O 0.48982 0.53167 0.1434 0.0
C167 C 0.5967 0.43076 0.00802 0.0
C168 C 0.38739 0.53255 0.00673 0.0
C169 C 0.46274 0.39185 0.87865 0.0
C170 C 0.52074 0.56132 0.87639 0.0
C171 C 0.45232 0.3854 0.12303 0.0
C172 C 0.52283 0.55609 0.13637 0.0
O173 O 0.56731 0.40055 0.01124 0.0
C174 C 0.20335 0.12839 0.47594 0.0
C175 C 0.22977 0.09917 0.51414 0.0
C176 C 0.17128 0.04747 0.54242 0.0
C177 C 0.1442 0.07956 0.51001 0.0
N178 N 0.13327 0.15461 0.45488 0.0
N179 N 0.23844 0.03545 0.59216 0.0
C180 C 0.15989 0.12114 0.47905 0.0
C181 C 0.21362 0.05996 0.54984 0.0
N182 N 0.21986 0.16214 0.43526 0.0
N183 N 0.15701 0.00413 0.56353 0.0
H184 H 0.26972 0.04341 0.59868 0.0
H185 H 0.22726 0.00993 0.62471 0.0
H186 H 0.12641 0.99298 0.5577 0.0
H187 H 0.17628 0.97739 0.58127 0.0
H188 H 0.20244 0.181 0.40121 0.0
H189 H 0.2516 0.16841 0.43142 0.0
H190 H 0.14285 0.18791 0.43799 0.0
H191 H 0.10118 0.1509 0.45708 0.0
C192 C 0.27831 0.57747 0.97427 0.0
C193 C 0.28014 0.62164 0.00603 0.0
C194 C 0.35219 0.60773 0.03649 0.0
C195 C 0.34989 0.56224 0.00803 0.0
N196 N 0.30904 0.49983 0.96047 0.0
N197 N 0.31479 0.67394 0.08025 0.0
C198 C 0.31238 0.54586 0.97994 0.0
C199 C 0.31579 0.63506 0.04151 0.0
N200 N 0.24458 0.56644 0.93731 0.0
N201 N 0.38956 0.62629 0.05494 0.0
H202 H 0.28868 0.6952 0.08486 0.0
H203 H 0.33843 0.68242 0.11249 0.0
H204 H 0.41753 0.60852 0.04983 0.0
H205 H 0.39348 0.66134 0.06927 0.0
H206 H 0.2433 0.53727 0.90705 0.0
H207 H 0.21865 0.58824 0.93395 0.0
H208 H 0.28135 0.48444 0.94539 0.0
H209 H 0.3333 0.47568 0.96459 0.0
C210 C 0.80349 0.89834 0.43421 0.0
C211 C 0.7727 0.90206 0.48263 0.0
C212 C 0.81005 0.9691 0.53021 0.0
C213 C 0.84088 0.96476 0.48214 0.0
N214 N 0.85977 0.93716 0.37695 0.0
N215 N 0.74044 0.94839 0.56487 0.0
C216 C 0.83494 0.93346 0.43008 0.0
C217 C 0.77385 0.94023 0.52653 0.0
N218 N 0.80485 0.8595 0.39544 0.0
N219 N 0.81645 0.9983 0.58143 0.0
H220 H 0.71359 0.92768 0.56267 0.0
H221 H 0.73783 0.97803 0.594 0.0
H222 H 0.84236 0.02028 0.58554 0.0
H223 H 0.79735 0.99866 0.62178 0.0
H224 H 0.82955 0.85257 0.3649 0.0
H225 H 0.78329 0.83191 0.39739 0.0
H226 H 0.8546 0.91808 0.33494 0.0
H227 H 0.88287 0.96308 0.37252 0.0
C228 C 0.70194 0.38037 0.0533 0.0
C229 C 0.72478 0.39408 -0.0024 0.0
C230 C 0.66163 0.42295 0.94513 0.0
C231 C 0.6398 0.41442 0.00348 0.0
N232 N 0.6391 0.38955 0.11541 0.0
N233 N 0.72818 0.43313 0.89321 0.0
C234 C 0.65981 0.39399 0.05817 0.0
C235 C 0.7051 0.41654 0.94408 0.0
N236 N 0.72036 0.35358 0.10085 0.0
N237 N 0.64053 0.43592 0.89027 0.0
H238 H 0.76011 0.42857 0.8903 0.0
H239 H 0.71629 0.45459 0.85626 0.0
H240 H 0.60852 0.44042 0.88907 0.0
H241 H 0.65403 0.43793 0.84474 0.0
H242 H 0.70428 0.3382 0.13937 0.0
H243 H 0.75134 0.3435 0.09923 0.0
H244 H 0.65332 0.38008 0.15891 0.0
H245 H 0.60805 0.39858 0.12051 0.0
C246 C 0.09952 0.88505 0.27417 0.0
C247 C 0.07502 0.85048 0.24229 0.0
C248 C 0.01423 0.87522 0.3033 0.0
C249 C 0.0396 0.90745 0.33784 0.0
N250 N 0.10841 0.93121 0.37049 0.0
N251 N 0.01161 0.80527 0.23638 0.0
C252 C 0.08292 0.90854 0.32787 0.0
C253 C 0.03311 0.84312 0.26017 0.0
N254 N 0.13762 0.89784 0.25103 0.0
N255 N 0.97216 0.87686 0.30895 0.0
H256 H 0.02484 0.78094 0.20517 0.0
H257 H 0.98218 0.79555 0.25227 0.0
H258 H 0.9571 0.90039 0.33919 0.0
H259 H 0.95205 0.85765 0.2797 0.0
H260 H 0.15449 0.92643 0.26899 0.0
H261 H 0.1506 0.88352 0.20975 0.0
H262 H 0.14056 0.92919 0.3684 0.0
H263 H 0.09757 0.9474 0.41209 0.0
C264 C 0.57592 0.66116 0.78671 0.0
C265 C 0.57785 0.64244 0.72362 0.0
C266 C 0.53976 0.57157 0.75922 0.0
C267 C 0.53616 0.59106 0.82185 0.0
N268 N 0.54084 0.65967 0.88993 0.0
N269 N 0.55097 0.58758 0.64547 0.0
C270 C 0.55106 0.63765 0.8339 0.0
C271 C 0.55604 0.60026 0.70847 0.0
N272 N 0.59934 0.69986 0.80256 0.0
N273 N 0.53079 0.52476 0.74883 0.0
H274 H 0.56218 0.60823 0.60698 0.0
H275 H 0.53203 0.55948 0.63138 0.0
H276 H 0.52087 0.50122 0.78491 0.0
H277 H 0.5373 0.50795 0.7056 0.0
H278 H 0.60268 0.71166 0.84974 0.0
H279 H 0.618 0.71806 0.76941 0.0
H280 H 0.54772 0.69518 0.89876 0.0
H281 H 0.52171 0.64388 0.92471 0.0
C282 C 0.95041 0.17721 0.20968 0.0
C283 C 0.94606 0.22553 0.2267 0.0
C284 C 0.95988 0.20526 0.34013 0.0
C285 C 0.9603 0.15647 0.32389 0.0
N286 N 0.94949 0.09495 0.24567 0.0
N287 N 0.94139 0.28562 0.30792 0.0
C288 C 0.95393 0.14211 0.25925 0.0
C289 C 0.94935 0.23964 0.29193 0.0
N290 N 0.95207 0.16506 0.14603 0.0
N291 N 0.9711 0.21884 0.40091 0.0
H292 H 0.9345 0.31197 0.27361 0.0
H293 H 0.93867 0.29697 0.35532 0.0
H294 H 0.97919 0.19468 0.43748 0.0
H295 H 0.97575 0.25408 0.41375 0.0
H296 H 0.95977 0.13124 0.13059 0.0
H297 H 0.94919 0.18976 0.10821 0.0
H298 H 0.94026 0.08256 0.2007 0.0
H299 H 0.95146 0.06809 0.28082 0.0
C300 C 0.41091 0.3013 0.77034 0.0
C301 C 0.44346 0.29263 0.72635 0.0
C302 C 0.48674 0.35262 0.77858 0.0
C303 C 0.45542 0.35862 0.82548 0.0
N304 N 0.39011 0.33533 0.87213 0.0
N305 N 0.5141 0.30457 0.69264 0.0
C306 C 0.41808 0.33208 0.82305 0.0
C307 C 0.48191 0.31681 0.73156 0.0
N308 N 0.37287 0.28104 0.76064 0.0
N309 N 0.52054 0.38211 0.778 0.0
H310 H 0.51151 0.27895 0.65698 0.0
H311 H 0.54421 0.31705 0.69873 0.0
H312 H 0.52542 0.40836 0.81226 0.0
H313 H 0.54217 0.3832 0.7409 0.0
H314 H 0.34662 0.28995 0.78662 0.0
H315 H 0.36672 0.25755 0.72328 0.0
H316 H 0.36448 0.31304 0.87711 0.0
H317 H 0.39405 0.35828 0.91078 0.0
C318 C 0.56604 0.59004 0.30048 0.0
C319 C 0.5788 0.63741 0.28707 0.0
C320 C 0.54546 0.63425 0.18083 0.0
C321 C 0.53854 0.58481 0.19048 0.0
N322 N 0.54708 0.51388 0.25653 0.0
N323 N 0.58339 0.70451 0.21369 0.0
C324 C 0.54962 0.56223 0.24982 0.0
C325 C 0.56896 0.65973 0.22718 0.0
N326 N 0.56948 0.57177 0.36183 0.0
N327 N 0.52872 0.65693 0.12811 0.0
H328 H 0.59989 0.72457 0.24711 0.0
H329 H 0.58138 0.72057 0.16816 0.0
H330 H 0.51074 0.63938 0.09387 0.0
H331 H 0.52932 0.69366 0.12144 0.0
H332 H 0.55679 0.53918 0.37602 0.0
H333 H 0.58155 0.59118 0.40015 0.0
H334 H 0.55928 0.49521 0.29596 0.0
H335 H 0.53615 0.49173 0.22032 0.0
C336 C 0.90743 0.19072 0.75193 0.0
C337 C 0.93924 0.22365 0.76729 0.0
C338 C 0.98146 0.19375 0.67919 0.0
C339 C 0.95229 0.15656 0.66999 0.0
N340 N 0.88968 0.1158 0.70268 0.0
N341 N 0.00875 0.25315 0.75138 0.0
C342 C 0.91562 0.15415 0.70734 0.0
C343 C 0.97684 0.22444 0.73233 0.0
N344 N 0.86921 0.19496 0.77918 0.0
N345 N 0.01282 0.2007 0.63587 0.0
H346 H 0.00657 0.27638 0.78995 0.0
H347 H 0.03845 0.25117 0.73234 0.0
H348 H 0.01663 0.17966 0.59532 0.0
H349 H 0.03251 0.2301 0.63646 0.0
H350 H 0.84359 0.17507 0.76493 0.0
H351 H 0.86212 0.22146 0.81196 0.0
H352 H 0.86498 0.10957 0.73387 0.0
H353 H 0.89477 0.08794 0.67114 0.0
C354 C 0.4219 0.3277 0.28255 0.0
C355 C 0.43065 0.27954 0.26956 0.0
C356 C 0.43962 0.29937 0.15483 0.0
C357 C 0.43573 0.34836 0.16936 0.0
N358 N 0.39915 0.40273 0.23813 0.0
N359 N 0.44895 0.21855 0.19477 0.0
C360 C 0.41995 0.36107 0.23069 0.0
C361 C 0.43956 0.26498 0.20594 0.0
N362 N 0.41644 0.34191 0.34479 0.0
N363 N 0.43921 0.28561 0.09182 0.0
H364 H 0.44783 0.19221 0.23074 0.0
H365 H 0.46055 0.20661 0.15115 0.0
H366 H 0.43342 0.30943 0.05379 0.0
H367 H 0.43883 0.25035 0.07746 0.0
H368 H 0.41501 0.37749 0.35767 0.0
H369 H 0.41707 0.31851 0.38435 0.0
H370 H 0.3848 0.41206 0.28101 0.0
H371 H 0.38954 0.42383 0.19923 0.0
C372 C 0.08306 0.85318 0.71368 0.0
C373 C 0.06774 0.85513 0.77758 0.0
C374 C 0.01214 0.90845 0.74281 0.0
C375 C 0.02837 0.90796 0.67937 0.0
N376 N 0.07338 0.87334 0.60031 0.0
N377 N 0.01349 0.87476 0.85158 0.0
C378 C 0.06173 0.87779 0.66338 0.0
C379 C 0.03069 0.8795 0.79158 0.0
N380 N 0.11926 0.82996 0.70199 0.0
N381 N 0.97987 0.93778 0.75656 0.0
H382 H 0.02668 0.85388 0.88822 0.0
H383 H 0.98472 0.88823 0.86382 0.0
H384 H 0.96426 0.95746 0.72105 0.0
H385 H 0.9695 0.94423 0.80308 0.0
H386 H 0.13515 0.83209 0.65843 0.0
H387 H 0.13478 0.81003 0.73729 0.0
H388 H 0.0945 0.84833 0.58462 0.0
H389 H 0.05986 0.89249 0.56234 0.0
loop_
_geom_bond_atom_site_label_1
_geom_bond_atom_site_label_2
_geom_bond_distance
_geom_bond_site_symmetry_2
_ccdc_geom_bond_type
P0 O11 1.490 . S
P0 C14 1.812 . S
P0 C20 1.803 . S
P0 C26 1.819 1_554 S
H1 C15 0.941 . S
H2 C16 0.939 . S
H3 C18 0.940 . S
H4 C19 0.940 . S
H5 C21 0.939 . S
H6 C22 0.942 . S
H7 C24 0.940 . S
H8 C25 0.939 . S
H9 C27 0.941 . S
H10 C31 0.939 . S
O11 P0 1.490 . S
H12 C28 0.939 . S
H13 C30 0.940 . S
C14 P0 1.812 . S
C14 C15 1.389 . S
C14 C19 1.391 . S
C15 H1 0.941 . S
C15 C14 1.389 . S
C15 C16 1.397 . S
C16 H2 0.939 . S
C16 C15 1.397 . S
C16 C17 1.378 . S
C17 C16 1.378 . S
C17 C18 1.378 . S
C18 H3 0.940 . S
C18 C17 1.378 . S
C18 C19 1.396 . S
C19 H4 0.940 . S
C19 C14 1.391 . S
C19 C18 1.396 . S
C20 P0 1.803 . S
C20 C21 1.378 1_554 S
C20 C25 1.400 . S
C21 H5 0.939 . S
C21 C20 1.378 1_556 S
C21 C22 1.361 . S
C22 H6 0.942 . S
C22 C21 1.361 . S
C22 C23 1.369 1_556 S
C23 C22 1.369 1_554 S
C23 C24 1.404 . S
C24 H7 0.940 . S
C24 C23 1.404 . S
C24 C25 1.389 . S
C25 H8 0.939 . S
C25 C20 1.400 . S
C25 C24 1.389 . S
C26 P0 1.819 1_556 S
C26 C27 1.391 . S
C26 C31 1.391 . S
C27 H9 0.941 . S
C27 C26 1.391 . S
C27 C28 1.396 . S
C28 H12 0.939 . S
C28 C27 1.396 . S
C28 C29 1.397 . S
C29 C28 1.397 . S
C29 C30 1.385 . S
C30 H13 0.940 . S
C30 C29 1.385 . S
C30 C31 1.388 . S
C31 H10 0.939 . S
C31 C26 1.391 . S
C31 C30 1.388 . S
P32 O43 1.490 . S
P32 C46 1.812 . S
P32 C52 1.803 . S
P32 C58 1.819 . S
H33 C47 0.941 . S
H34 C48 0.939 . S
H35 C50 0.940 . S
H36 C51 0.940 . S
H37 C53 0.939 . S
H38 C54 0.942 . S
H39 C56 0.940 . S
H40 C57 0.939 . S
H41 C59 0.941 . S
H42 C63 0.939 . S
O43 P32 1.490 . S
H44 C60 0.939 . S
H45 C62 0.940 . S
C46 P32 1.812 . S
C46 C47 1.389 . S
C46 C51 1.391 . S
C47 H33 0.941 . S
C47 C46 1.389 . S
C47 C48 1.397 . S
C48 H34 0.939 . S
C48 C47 1.397 . S
C48 C49 1.378 . S
C49 C48 1.378 . S
C49 C50 1.378 . S
C50 H35 0.940 . S
C50 C49 1.378 . S
C50 C51 1.396 . S
C51 H36 0.940 . S
C51 C46 1.391 . S
C51 C50 1.396 . S
C52 P32 1.803 . S
C52 C53 1.378 . S
C52 C57 1.400 . S
C53 H37 0.939 . S
C53 C52 1.378 . S
C53 C54 1.361 . S
C54 H38 0.942 . S
C54 C53 1.361 . S
C54 C55 1.369 . S
C55 C54 1.369 . S
C55 C56 1.404 . S
C56 H39 0.940 . S
C56 C55 1.404 . S
C56 C57 1.389 . S
C57 H40 0.939 . S
C57 C52 1.400 . S
C57 C56 1.389 . S
C58 P32 1.819 . S
C58 C59 1.391 . S
C58 C63 1.391 . S
C59 H41 0.941 . S
C59 C58 1.391 . S
C59 C60 1.396 . S
C60 H44 0.939 . S
C60 C59 1.396 . S
C60 C61 1.397 . S
C61 C60 1.397 . S
C61 C62 1.385 . S
C62 H45 0.940 . S
C62 C61 1.385 . S
C62 C63 1.388 . S
C63 H42 0.939 . S
C63 C58 1.391 . S
C63 C62 1.388 . S
P64 O75 1.490 . S
P64 C78 1.821 . S
P64 C84 1.803 . S
P64 C90 1.809 1_556 S
H65 C79 0.941 . S
H66 C80 0.939 . S
H67 C82 0.940 . S
H68 C83 0.940 . S
H69 C85 0.939 . S
H70 C86 0.942 . S
H71 C88 0.940 . S
H72 C89 0.939 . S
H73 C91 0.941 . S
H74 C95 0.939 . S
O75 P64 1.490 . S
H76 C92 0.939 . S
H77 C94 0.940 . S
C78 P64 1.821 . S
C78 C79 1.389 . S
C78 C83 1.391 . S
C79 H65 0.941 . S
C79 C78 1.389 . S
C79 C80 1.397 . S
C80 H66 0.939 . S
C80 C79 1.397 . S
C80 C81 1.378 . S
C81 C80 1.378 . S
C81 C82 1.378 . S
C82 H67 0.940 . S
C82 C81 1.378 . S
C82 C83 1.396 . S
C83 H68 0.940 . S
C83 C78 1.391 . S
C83 C82 1.396 . S
C84 P64 1.803 . S
C84 C85 1.378 1_556 S
C84 C89 1.400 . S
C85 H69 0.939 . S
C85 C84 1.378 1_554 S
C85 C86 1.361 . S
C86 H70 0.942 . S
C86 C85 1.361 . S
C86 C87 1.369 . S
C87 C86 1.369 . S
C87 C88 1.404 1_554 S
C88 H71 0.940 . S
C88 C87 1.404 1_556 S
C88 C89 1.389 . S
C89 H72 0.939 . S
C89 C84 1.400 . S
C89 C88 1.389 . S
C90 P64 1.809 1_554 S
C90 C91 1.391 . S
C90 C95 1.391 . S
C91 H73 0.941 . S
C91 C90 1.391 . S
C91 C92 1.396 . S
C92 H76 0.939 . S
C92 C91 1.396 . S
C92 C93 1.397 . S
C93 C92 1.397 . S
C93 C94 1.385 . S
C94 H77 0.940 . S
C94 C93 1.385 . S
C94 C95 1.388 . S
C95 H74 0.939 . S
C95 C90 1.391 . S
C95 C94 1.388 . S
P96 O107 1.490 . S
P96 C110 1.812 . S
P96 C116 1.803 . S
P96 C122 1.819 . S
H97 C111 0.941 . S
H98 C112 0.939 . S
H99 C114 0.940 . S
H100 C115 0.940 . S
H101 C117 0.939 . S
H102 C118 0.942 . S
H103 C120 0.940 . S
H104 C121 0.939 . S
H105 C123 0.941 . S
H106 C127 0.939 . S
O107 P96 1.490 . S
H108 C124 0.939 . S
H109 C126 0.940 . S
C110 P96 1.812 . S
C110 C111 1.389 . S
C110 C115 1.391 . S
C111 H97 0.941 . S
C111 C110 1.389 . S
C111 C112 1.397 . S
C112 H98 0.939 . S
C112 C111 1.397 . S
C112 C113 1.378 . S
C113 C112 1.378 . S
C113 C114 1.378 . S
C114 H99 0.940 . S
C114 C113 1.378 . S
C114 C115 1.396 . S
C115 H100 0.940 . S
C115 C110 1.391 . S
C115 C114 1.396 . S
C116 P96 1.803 . S
C116 C117 1.378 . S
C116 C121 1.400 . S
C117 H101 0.939 . S
C117 C116 1.378 . S
C117 C118 1.361 . S
C118 H102 0.942 . S
C118 C117 1.361 . S
C118 C119 1.369 . S
C119 C118 1.369 . S
C119 C120 1.404 . S
C120 H103 0.940 . S
C120 C119 1.404 . S
C120 C121 1.389 . S
C121 H104 0.939 . S
C121 C116 1.400 . S
C121 C120 1.389 . S
C122 P96 1.819 . S
C122 C123 1.391 . S
C122 C127 1.391 . S
C123 H105 0.941 . S
C123 C122 1.391 . S
C123 C124 1.396 . S
C124 H108 0.939 . S
C124 C123 1.396 . S
C124 C125 1.397 . S
C125 C124 1.397 . S
C125 C126 1.385 . S
C126 H109 0.940 . S
C126 C125 1.385 . S
C126 C127 1.388 . S
C127 H106 0.939 . S
C127 C122 1.391 . S
C127 C126 1.388 . S
O128 Zn129 1.953 1_565 S
O128 C144 1.225 . S
Zn129 O128 1.953 1_545 S
Zn129 O130 1.949 1_655 S
Zn129 O136 1.919 . S
Zn129 O141 1.924 . S
O130 Zn129 1.949 1_455 S
O130 Zn131 1.923 . S
O130 Zn132 1.950 1_445 S
O130 Zn133 1.945 . S
Zn131 O130 1.923 . S
Zn131 O134 1.933 . S
Zn131 O137 1.941 . S
Zn131 O138 1.965 1_545 S
Zn132 O130 1.950 1_665 S
Zn132 O139 1.938 1_655 S
Zn132 O140 1.906 1_655 S
Zn132 O150 1.953 . S
Zn133 O130 1.945 . S
Zn133 O135 1.932 . S
Zn133 O142 1.977 1_545 S
Zn133 O143 1.910 1_455 S
O134 Zn131 1.933 . S
O134 C145 1.226 . S
O135 Zn133 1.932 . S
O135 C145 1.307 . S
O136 Zn129 1.919 . S
O136 C147 1.253 . S
O137 Zn131 1.941 . S
O137 C147 1.283 1_455 S
O138 Zn131 1.965 1_565 S
O138 C146 1.303 . S
O139 Zn132 1.938 1_455 S
O139 C146 1.247 . S
O140 Zn132 1.906 1_455 S
O140 C148 1.304 . S
O141 Zn129 1.924 . S
O141 C149 1.311 . S
O142 Zn133 1.977 1_565 S
O142 C148 1.272 . S
O143 Zn133 1.910 1_655 S
O143 C149 1.231 . S
C144 O128 1.225 . S
C144 O150 1.298 . S
C145 O134 1.226 . S
C145 O135 1.307 . S
C146 O138 1.303 . S
C146 O139 1.247 . S
C147 O136 1.253 . S
C147 O137 1.283 1_655 S
C148 O140 1.304 . S
C148 O142 1.272 . S
C149 O141 1.311 . S
C149 O143 1.231 . S
O150 Zn132 1.953 . S
O150 C144 1.298 . S
O151 Zn152 1.953 . S
O151 C167 1.225 1_556 S
Zn152 O151 1.953 . S
Zn152 O153 1.949 1_556 S
Zn152 O159 1.919 . S
Zn152 O164 1.924 1_556 S
O153 Zn152 1.949 1_554 S
O153 Zn154 1.923 1_554 S
O153 Zn155 1.950 . S
O153 Zn156 1.945 . S
Zn154 O153 1.923 1_556 S
Zn154 O157 1.933 . S
Zn154 O160 1.941 . S
Zn154 O161 1.965 . S
Zn155 O153 1.950 . S
Zn155 O162 1.938 1_554 S
Zn155 O163 1.906 . S
Zn155 O173 1.953 . S
Zn156 O153 1.945 . S
Zn156 O158 1.932 . S
Zn156 O165 1.977 . S
Zn156 O166 1.910 . S
O157 Zn154 1.933 . S
O157 C168 1.226 1_556 S
O158 Zn156 1.932 . S
O158 C168 1.307 . S
O159 Zn152 1.919 . S
O159 C170 1.253 . S
O160 Zn154 1.941 . S
O160 C170 1.283 . S
O161 Zn154 1.965 . S
O161 C169 1.303 . S
O162 Zn155 1.938 1_556 S
O162 C169 1.247 . S
O163 Zn155 1.906 . S
O163 C171 1.304 . S
O164 Zn152 1.924 1_554 S
O164 C172 1.311 . S
O165 Zn156 1.977 . S
O165 C171 1.272 . S
O166 Zn156 1.910 . S
O166 C172 1.231 . S
C167 O151 1.225 1_554 S
C167 O173 1.298 . S
C168 O157 1.226 1_554 S
C168 O158 1.307 . S
C169 O161 1.303 . S
C169 O162 1.247 . S
C170 O159 1.253 . S
C170 O160 1.283 . S
C171 O163 1.304 . S
C171 O165 1.272 . S
C172 O164 1.311 . S
C172 O166 1.231 . S
O173 Zn155 1.953 . S
O173 C167 1.298 . S
C174 C175 1.363 . S
C174 C180 1.379 . S
C174 N182 1.356 . S
C175 C174 1.363 . S
C175 C181 1.363 . S
C176 C177 1.363 . S
C176 C181 1.379 . S
C176 N183 1.356 . S
C177 C176 1.363 . S
C177 C180 1.363 . S
N178 C180 1.356 . S
N178 H190 0.984 . S
N178 H191 0.985 . S
N179 C181 1.356 . S
N179 H184 0.984 . S
N179 H185 0.985 . S
C180 C174 1.379 . S
C180 C177 1.363 . S
C180 N178 1.356 . S
C181 C175 1.363 . S
C181 C176 1.379 . S
C181 N179 1.356 . S
N182 C174 1.356 . S
N182 H188 0.984 . S
N182 H189 0.984 . S
N183 C176 1.356 . S
N183 H186 0.984 . S
N183 H187 0.985 . S
H184 N179 0.984 . S
H185 N179 0.985 . S
H186 N183 0.984 . S
H187 N183 0.985 . S
H188 N182 0.984 . S
H189 N182 0.984 . S
H190 N178 0.984 . S
H191 N178 0.985 . S
C192 C193 1.363 1_556 S
C192 C198 1.379 . S
C192 N200 1.356 . S
C193 C192 1.363 1_554 S
C193 C199 1.363 . S
C194 C195 1.363 . S
C194 C199 1.379 . S
C194 N201 1.356 . S
C195 C194 1.363 . S
C195 C198 1.363 1_554 S
N196 C198 1.356 . S
N196 H208 0.984 . S
N196 H209 0.985 . S
N197 C199 1.356 . S
N197 H202 0.984 . S
N197 H203 0.985 . S
C198 C192 1.379 . S
C198 C195 1.363 1_556 S
C198 N196 1.356 . S
C199 C193 1.363 . S
C199 C194 1.379 . S
C199 N197 1.356 . S
N200 C192 1.356 . S
N200 H206 0.984 . S
N200 H207 0.984 . S
N201 C194 1.356 . S
N201 H204 0.984 . S
N201 H205 0.985 . S
H202 N197 0.984 . S
H203 N197 0.985 . S
H204 N201 0.984 . S
H205 N201 0.985 . S
H206 N200 0.984 . S
H207 N200 0.984 . S
H208 N196 0.984 . S
H209 N196 0.985 . S
C210 C211 1.363 . S
C210 C216 1.379 . S
C210 N218 1.356 . S
C211 C210 1.363 . S
C211 C217 1.363 . S
C212 C213 1.363 . S
C212 C217 1.379 . S
C212 N219 1.356 . S
C213 C212 1.363 . S
C213 C216 1.363 . S
N214 C216 1.356 . S
N214 H226 0.984 . S
N214 H227 0.985 . S
N215 C217 1.356 . S
N215 H220 0.984 . S
N215 H221 0.985 . S
C216 C210 1.379 . S
C216 C213 1.363 . S
C216 N214 1.356 . S
C217 C211 1.363 . S
C217 C212 1.379 . S
C217 N215 1.356 . S
N218 C210 1.356 . S
N218 H224 0.984 . S
N218 H225 0.984 . S
N219 C212 1.356 . S
N219 H222 0.984 . S
N219 H223 0.985 . S
H220 N215 0.984 . S
H221 N215 0.985 . S
H222 N219 0.984 . S
H223 N219 0.985 . S
H224 N218 0.984 . S
H225 N218 0.984 . S
H226 N214 0.984 . S
H227 N214 0.985 . S
C228 C229 1.363 . S
C228 C234 1.379 . S
C228 N236 1.356 . S
C229 C228 1.363 . S
C229 C235 1.363 1_554 S
C230 C231 1.363 1_556 S
C230 C235 1.379 . S
C230 N237 1.356 . S
C231 C230 1.363 1_554 S
C231 C234 1.363 . S
N232 C234 1.356 . S
N232 H244 0.984 . S
N232 H245 0.985 . S
N233 C235 1.356 . S
N233 H238 0.984 . S
N233 H239 0.985 . S
C234 C228 1.379 . S
C234 C231 1.363 . S
C234 N232 1.356 . S
C235 C229 1.363 1_556 S
C235 C230 1.379 . S
C235 N233 1.356 . S
N236 C228 1.356 . S
N236 H242 0.984 . S
N236 H243 0.984 . S
N237 C230 1.356 . S
N237 H240 0.984 . S
N237 H241 0.985 . S
H238 N233 0.984 . S
H239 N233 0.985 . S
H240 N237 0.984 . S
H241 N237 0.985 . S
H242 N236 0.984 . S
H243 N236 0.984 . S
H244 N232 0.984 . S
H245 N232 0.985 . S
C246 C247 1.363 . S
C246 C252 1.379 . S
C246 N254 1.356 . S
C247 C246 1.363 . S
C247 C253 1.363 . S
C248 C249 1.363 . S
C248 C253 1.379 . S
C248 N255 1.356 . S
C249 C248 1.363 . S
C249 C252 1.363 . S
N250 C252 1.356 . S
N250 H262 0.984 . S
N250 H263 0.985 . S
N251 C253 1.356 . S
N251 H256 0.984 . S
N251 H257 0.985 1_455 S
C252 C246 1.379 . S
C252 C249 1.363 . S
C252 N250 1.356 . S
C253 C247 1.363 . S
C253 C248 1.379 . S
C253 N251 1.356 . S
N254 C246 1.356 . S
N254 H260 0.984 . S
N254 H261 0.984 . S
N255 C248 1.356 . S
N255 H258 0.984 . S
N255 H259 0.985 1_455 S
H256 N251 0.984 . S
H257 N251 0.985 1_655 S
H258 N255 0.984 . S
H259 N255 0.985 1_655 S
H260 N254 0.984 . S
H261 N254 0.984 . S
H262 N250 0.984 . S
H263 N250 0.985 . S
C264 C265 1.363 . S
C264 C270 1.379 . S
C264 N272 1.356 . S
C265 C264 1.363 . S
C265 C271 1.363 . S
C266 C267 1.363 . S
C266 C271 1.379 . S
C266 N273 1.356 . S
C267 C266 1.363 . S
C267 C270 1.363 . S
N268 C270 1.356 . S
N268 H280 0.984 . S
N268 H281 0.985 . S
N269 C271 1.356 . S
N269 H274 0.984 . S
N269 H275 0.985 . S
C270 C264 1.379 . S
C270 C267 1.363 . S
C270 N268 1.356 . S
C271 C265 1.363 . S
C271 C266 1.379 . S
C271 N269 1.356 . S
N272 C264 1.356 . S
N272 H278 0.984 . S
N272 H279 0.984 . S
N273 C266 1.356 . S
N273 H276 0.984 . S
N273 H277 0.985 . S
H274 N269 0.984 . S
H275 N269 0.985 . S
H276 N273 0.984 . S
H277 N273 0.985 . S
H278 N272 0.984 . S
H279 N272 0.984 . S
H280 N268 0.984 . S
H281 N268 0.985 . S
C282 C283 1.363 . S
C282 C288 1.379 . S
C282 N290 1.356 . S
C283 C282 1.363 . S
C283 C289 1.363 . S
C284 C285 1.363 . S
C284 C289 1.379 . S
C284 N291 1.356 1_655 S
C285 C284 1.363 . S
C285 C288 1.363 . S
N286 C288 1.356 . S
N286 H298 0.984 . S
N286 H299 0.985 . S
N287 C289 1.356 1_455 S
N287 H292 0.984 1_455 S
N287 H293 0.985 . S
C288 C282 1.379 . S
C288 C285 1.363 . S
C288 N286 1.356 . S
C289 C283 1.363 . S
C289 C284 1.379 . S
C289 N287 1.356 1_655 S
N290 C282 1.356 . S
N290 H296 0.984 . S
N290 H297 0.984 . S
N291 C284 1.356 1_455 S
N291 H294 0.984 1_455 S
N291 H295 0.985 . S
H292 N287 0.984 1_655 S
H293 N287 0.985 . S
H294 N291 0.984 1_655 S
H295 N291 0.985 . S
H296 N290 0.984 . S
H297 N290 0.984 . S
H298 N286 0.984 . S
H299 N286 0.985 . S
C300 C301 1.363 . S
C300 C306 1.379 . S
C300 N308 1.356 . S
C301 C300 1.363 . S
C301 C307 1.363 . S
C302 C303 1.363 . S
C302 C307 1.379 . S
C302 N309 1.356 . S
C303 C302 1.363 . S
C303 C306 1.363 . S
N304 C306 1.356 . S
N304 H316 0.984 . S
N304 H317 0.985 . S
N305 C307 1.356 . S
N305 H310 0.984 . S
N305 H311 0.985 . S
C306 C300 1.379 . S
C306 C303 1.363 . S
C306 N304 1.356 . S
C307 C301 1.363 . S
C307 C302 1.379 . S
C307 N305 1.356 . S
N308 C300 1.356 . S
N308 H314 0.984 . S
N308 H315 0.984 . S
N309 C302 1.356 . S
N309 H312 0.984 . S
N309 H313 0.985 . S
H310 N305 0.984 . S
H311 N305 0.985 . S
H312 N309 0.984 . S
H313 N309 0.985 . S
H314 N308 0.984 . S
H315 N308 0.984 . S
H316 N304 0.984 . S
H317 N304 0.985 . S
C318 C319 1.363 . S
C318 C324 1.379 . S
C318 N326 1.356 . S
C319 C318 1.363 . S
C319 C325 1.363 . S
C320 C321 1.363 . S
C320 C325 1.379 . S
C320 N327 1.356 . S
C321 C320 1.363 . S
C321 C324 1.363 . S
N322 C324 1.356 . S
N322 H334 0.984 . S
N322 H335 0.985 . S
N323 C325 1.356 . S
N323 H328 0.984 . S
N323 H329 0.985 . S
C324 C318 1.379 . S
C324 C321 1.363 . S
C324 N322 1.356 . S
C325 C319 1.363 . S
C325 C320 1.379 . S
C325 N323 1.356 . S
N326 C318 1.356 . S
N326 H332 0.984 . S
N326 H333 0.984 . S
N327 C320 1.356 . S
N327 H330 0.984 . S
N327 H331 0.985 . S
H328 N323 0.984 . S
H329 N323 0.985 . S
H330 N327 0.984 . S
H331 N327 0.985 . S
H332 N326 0.984 . S
H333 N326 0.984 . S
H334 N322 0.984 . S
H335 N322 0.985 . S
C336 C337 1.363 . S
C336 C342 1.379 . S
C336 N344 1.356 . S
C337 C336 1.363 . S
C337 C343 1.363 . S
C338 C339 1.363 . S
C338 C343 1.379 . S
C338 N345 1.356 1_655 S
C339 C338 1.363 . S
C339 C342 1.363 . S
N340 C342 1.356 . S
N340 H352 0.984 . S
N340 H353 0.985 . S
N341 C343 1.356 1_455 S
N341 H346 0.984 1_455 S
N341 H347 0.985 . S
C342 C336 1.379 . S
C342 C339 1.363 . S
C342 N340 1.356 . S
C343 C337 1.363 . S
C343 C338 1.379 . S
C343 N341 1.356 1_655 S
N344 C336 1.356 . S
N344 H350 0.984 . S
N344 H351 0.984 . S
N345 C338 1.356 1_455 S
N345 H348 0.984 . S
N345 H349 0.985 . S
H346 N341 0.984 1_655 S
H347 N341 0.985 . S
H348 N345 0.984 . S
H349 N345 0.985 . S
H350 N344 0.984 . S
H351 N344 0.984 . S
H352 N340 0.984 . S
H353 N340 0.985 . S
C354 C355 1.363 . S
C354 C360 1.379 . S
C354 N362 1.356 . S
C355 C354 1.363 . S
C355 C361 1.363 . S
C356 C357 1.363 . S
C356 C361 1.379 . S
C356 N363 1.356 . S
C357 C356 1.363 . S
C357 C360 1.363 . S
N358 C360 1.356 . S
N358 H370 0.984 . S
N358 H371 0.985 . S
N359 C361 1.356 . S
N359 H364 0.984 . S
N359 H365 0.985 . S
C360 C354 1.379 . S
C360 C357 1.363 . S
C360 N358 1.356 . S
C361 C355 1.363 . S
C361 C356 1.379 . S
C361 N359 1.356 . S
N362 C354 1.356 . S
N362 H368 0.984 . S
N362 H369 0.984 . S
N363 C356 1.356 . S
N363 H366 0.984 . S
N363 H367 0.985 . S
H364 N359 0.984 . S
H365 N359 0.985 . S
H366 N363 0.984 . S
H367 N363 0.985 . S
H368 N362 0.984 . S
H369 N362 0.984 . S
H370 N358 0.984 . S
H371 N358 0.985 . S
C372 C373 1.363 . S
C372 C378 1.379 . S
C372 N380 1.356 . S
C373 C372 1.363 . S
C373 C379 1.363 . S
C374 C375 1.363 . S
C374 C379 1.379 . S
C374 N381 1.356 . S
C375 C374 1.363 . S
C375 C378 1.363 . S
N376 C378 1.356 . S
N376 H388 0.984 . S
N376 H389 0.985 . S
N377 C379 1.356 . S
N377 H382 0.984 . S
N377 H383 0.985 . S
C378 C372 1.379 . S
C378 C375 1.363 . S
C378 N376 1.356 . S
C379 C373 1.363 . S
C379 C374 1.379 . S
C379 N377 1.356 . S
N380 C372 1.356 . S
N380 H386 0.984 . S
N380 H387 0.984 . S
N381 C374 1.356 . S
N381 H384 0.984 . S
N381 H385 0.985 . S
H382 N377 0.984 . S
H383 N377 0.985 . S
H384 N381 0.984 . S
H385 N381 0.985 . S
H386 N380 0.984 . S
H387 N380 0.984 . S
H388 N376 0.984 . S
H389 N376 0.985 . S
C177 C145 1.626 . S
C175 C119 1.646 . S
C193 C23 1.490 . S
C195 C168 1.622 . S
C211 C55 1.500 . S
C213 C144 1.632 . S
C229 C87 1.648 . S
C231 C167 1.635 . S
C249 C148 1.614 . S
C247 C17 1.537 . S
C267 C170 1.601 . S
C265 C61 1.523 . S
C283 C93 1.731 . S
C285 C149 1.605 . S
C301 C113 1.610 . S
C303 C169 1.567 . S
C321 C172 1.606 . S
C319 C49 1.549 . S
C339 C147 1.600 . S
C337 C81 1.628 . S
C357 C171 1.614 . S
C355 C125 1.718 . S
C373 C29 1.509 . S
C375 C146 1.567 . S
