# Generated by pormake.
# Topology pth, (4,4)-cn, num edge types: 1
# Building blocks:
#     Node 0, Type 0, BuildingBlock: NAHDIM_clean_sbu_0, # of connection points: 4
#     Node 1, Type 0, BuildingBlock: NAHDIM_clean_sbu_0, # of connection points: 4
#     Node 2, Type 0, BuildingBlock: NAHDIM_clean_sbu_0, # of connection points: 4
#     Node 3, Type 1, BuildingBlock: MIFKUJ_clean_linker_1, # of connection points: 4
#     Node 4, Type 1, BuildingBlock: MIFKUJ_clean_linker_1, # of connection points: 4
#     Node 5, Type 1, BuildingBlock: MIFKUJ_clean_linker_1, # of connection points: 4
#     Edge 6, Type (0, 1), BuildingBlock: EZIPEK_clean_linker_0, # of connection points: 2
#     Edge 7, Type (0, 1), BuildingBlock: EZIPEK_clean_linker_0, # of connection points: 2
#     Edge 8, Type (0, 1), BuildingBlock: EZIPEK_clean_linker_0, # of connection points: 2
#     Edge 9, Type (0, 1), BuildingBlock: EZIPEK_clean_linker_0, # of connection points: 2
#     Edge 10, Type (0, 1), BuildingBlock: EZIPEK_clean_linker_0, # of connection points: 2
#     Edge 11, Type (0, 1), BuildingBlock: EZIPEK_clean_linker_0, # of connection points: 2
#     Edge 12, Type (0, 1), BuildingBlock: EZIPEK_clean_linker_0, # of connection points: 2
#     Edge 13, Type (0, 1), BuildingBlock: EZIPEK_clean_linker_0, # of connection points: 2
#     Edge 14, Type (0, 1), BuildingBlock: EZIPEK_clean_linker_0, # of connection points: 2
#     Edge 15, Type (0, 1), BuildingBlock: EZIPEK_clean_linker_0, # of connection points: 2
#     Edge 16, Type (0, 1), BuildingBlock: EZIPEK_clean_linker_0, # of connection points: 2
#     Edge 17, Type (0, 1), BuildingBlock: EZIPEK_clean_linker_0, # of connection points: 2
# Relax obj value: 0.043
# Max RMSD: 0.165
# Mean RMSD: 0.093
data_MOF--net-pth--node1-NAHDIM_clean_sbu_0--node2-MIFKUJ_clean_linker_1--edge1-EZIPEK_clean_linker_0
_symmetry_space_group_name_H-M    P1
_symmetry_Int_Tables_number       1
_symmetry_cell_setting            triclinic
loop_
_symmetry_equiv_pos_as_xyz
'x, y, z'
_cell_length_a     23.231726
_cell_length_b     23.376571
_cell_length_c     48.695765
_cell_angle_alpha  91.958019
_cell_angle_beta   89.868565
_cell_angle_gamma 120.64029
loop_
_atom_site_label
_atom_site_type_symbol
_atom_site_fract_x
_atom_site_fract_y
_atom_site_fract_z
_atom_type_partial_charge
C0 C 0.98163 0.93836 0.07674 0.0
O1 O 0.93287 0.95083 0.07998 0.0
O2 O -0.01071 0.0854 0.06002 0.0
Zn3 Zn 0.00828 0.02729 0.03505 0.0
O4 O 0.92828 0.96485 0.01118 0.0
C5 C 0.08033 0.10207 0.98819 0.0
O6 O 0.01987 0.07311 0.97734 0.0
O7 O 0.02513 0.96808 0.05848 0.0
C8 C 0.93671 0.92886 0.99337 0.0
O9 O -0.00352 0.93656 0.99048 0.0
C10 C 0.96695 0.12078 0.05102 0.0
O11 O 0.95219 0.11725 0.02477 0.0
O12 O 0.08842 0.08854 0.01245 0.0
C13 C 0.01625 0.13763 0.32259 0.0
O14 O 0.96963 0.07651 0.31552 0.0
O15 O 0.02573 -0.00248 0.33298 0.0
Zn16 Zn 0.03427 0.06493 0.36214 0.0
O17 O 0.94819 0.03362 0.38212 0.0
C18 C 0.16226 0.09151 0.38376 0.0
O19 O 0.17894 0.09792 0.35779 0.0
O20 O 0.05461 0.148 0.34308 0.0
C21 C 0.95093 0.07359 0.40113 0.0
O22 O 0.00762 0.12933 0.40629 0.0
C23 C 0.0169 0.94136 0.33914 0.0
O24 O 0.01155 0.92544 0.36499 0.0
O25 O 0.10443 0.07957 0.39041 0.0
C26 C 0.09322 0.02348 0.65325 0.0
O27 O 0.07846 0.06955 0.64852 0.0
O28 O 0.93971 0.00947 0.6675 0.0
Zn29 Zn -0.00254 -0.00397 0.69406 0.0
O30 O 0.05082 0.07707 0.71893 0.0
C31 C 0.9168 0.92218 0.7392 0.0
O32 O 0.93556 0.98196 0.7494 0.0
O33 O 0.06356 0.98292 0.67219 0.0
C34 C 0.09256 0.07548 0.73524 0.0
O35 O 0.09601 0.02119 0.73606 0.0
C36 C 0.89011 0.01431 0.67525 0.0
O37 O 0.87724 0.01381 0.70154 0.0
O38 O 0.93808 0.91535 0.71597 0.0
H39 H 0.07369 0.43179 0.17501 0.0
H40 H 0.06542 0.34278 0.14389 0.0
H41 H 0.8692 0.2969 0.11703 0.0
H42 H 0.87698 0.38545 0.14826 0.0
H43 H 0.96907 0.51728 0.14578 0.0
H44 H 0.10311 0.49835 0.23917 0.0
H45 H 0.11335 0.41759 0.26664 0.0
H46 H 0.91255 0.2662 0.24242 0.0
H47 H 0.9023 0.34674 0.2147 0.0
H48 H 0.92313 0.57238 0.25731 0.0
H49 H 0.92978 0.66248 0.28685 0.0
H50 H 0.07655 0.80706 0.23353 0.0
H51 H 0.07405 0.71723 0.2051 0.0
H52 H 0.00923 0.53755 0.24653 0.0
H53 H 0.89499 0.62117 0.18822 0.0
H54 H 0.89438 0.71036 0.16297 0.0
H55 H 0.06454 0.73742 0.11678 0.0
H56 H 0.06575 0.649 0.14207 0.0
C57 C 0.97574 0.41487 0.16405 0.0
C58 C 0.0284 0.40182 0.16282 0.0
C59 C 0.02387 0.35142 0.14505 0.0
C60 C 0.96671 0.31364 0.12831 0.0
C61 C 0.91352 0.32563 0.12991 0.0
C62 C 0.91808 0.37606 0.14762 0.0
C63 C 0.98227 0.4717 0.18103 0.0
C64 C 0.97734 0.5215 0.16786 0.0
C65 C -0.00494 0.47824 0.20965 0.0
C66 C 0.00206 0.42833 0.22485 0.0
C67 C 0.06145 0.44766 0.23963 0.0
C68 C 0.06737 0.40183 0.25523 0.0
C69 C 0.0136 0.33636 0.25653 0.0
C70 C 0.95441 0.31668 0.24159 0.0
C71 C 0.94871 0.36239 0.22576 0.0
C72 C -0.00258 0.63779 0.22872 0.0
C73 C 0.95723 0.62342 0.25204 0.0
C74 C 0.9606 0.67468 0.26879 0.0
C75 C 0.00331 0.74124 0.26225 0.0
C76 C 0.04304 0.75589 0.2388 0.0
C77 C 0.04114 0.7046 0.22248 0.0
C78 C -0.00618 0.58236 0.21147 0.0
C79 C 0.00023 0.53317 0.22449 0.0
C80 C 0.9835 0.57698 0.18262 0.0
C81 C 0.98067 0.62886 0.16709 0.0
C82 C 0.93217 0.64638 0.1727 0.0
C83 C 0.93181 0.69704 0.15837 0.0
C84 C 0.97965 0.73029 0.13821 0.0
C85 C 0.02751 0.71227 0.13237 0.0
C86 C 0.02791 0.66177 0.14666 0.0
H87 H 0.66673 0.1423 0.48302 0.0
H88 H 0.75528 0.14193 0.45559 0.0
H89 H 0.69545 0.94583 0.48264 0.0
H90 H 0.60637 0.94576 0.51004 0.0
H91 H 0.53581 0.06469 0.47882 0.0
H92 H 0.70188 0.11811 0.54681 0.0
H93 H 0.78296 0.11328 0.57736 0.0
H94 H 0.62562 0.92946 0.60884 0.0
H95 H 0.5447 0.93269 0.57762 0.0
H96 H 0.36826 0.93077 0.56844 0.0
H97 H 0.27577 0.92503 0.59523 0.0
H98 H 0.34347 0.12925 0.57792 0.0
H99 H 0.43577 0.13504 0.55089 0.0
H100 H 0.50478 0.01681 0.57789 0.0
H101 H 0.33899 0.96964 0.50809 0.0
H102 H 0.26232 0.98435 0.47872 0.0
H103 H 0.42687 0.17033 0.45228 0.0
H104 H 0.50352 0.15712 0.48245 0.0
C105 C 0.6303 0.0443 0.49874 0.0
C106 C 0.67261 0.09921 0.48309 0.0
C107 C 0.72304 0.09909 0.4675 0.0
C108 C 0.73168 0.04393 0.46722 0.0
C109 C 0.68946 0.98886 0.48276 0.0
C110 C 0.63906 0.98904 0.49844 0.0
C111 C 0.57554 0.044 0.51457 0.0
C112 C 0.52963 0.05523 0.5006 0.0
C113 C 0.56698 0.03067 0.54288 0.0
C114 C 0.61719 0.02538 0.55969 0.0
C115 C 0.68496 0.07587 0.55975 0.0
C116 C 0.73112 0.0735 0.57731 0.0
C117 C 0.70997 0.02121 0.59536 0.0
C118 C 0.64265 0.9702 0.59504 0.0
C119 C 0.59663 0.97219 0.5773 0.0
C120 C 0.40851 0.03321 0.5576 0.0
C121 C 0.36308 0.97424 0.57035 0.0
C122 C 0.31044 0.97086 0.58552 0.0
C123 C 0.30322 0.02673 0.58845 0.0
C124 C 0.34853 0.08575 0.57577 0.0
C125 C 0.40084 0.08895 0.56036 0.0
C126 C 0.46493 0.03669 0.54205 0.0
C127 C 0.51117 0.02623 0.55611 0.0
C128 C 0.47456 0.0521 0.51398 0.0
C129 C 0.427 0.06262 0.49771 0.0
C130 C 0.35845 0.01449 0.4966 0.0
C131 C 0.31476 0.02266 0.47978 0.0
C132 C 0.33913 0.07848 0.46347 0.0
C133 C 0.40727 0.12718 0.46488 0.0
C134 C 0.45087 0.11937 0.48192 0.0
H135 H 0.46158 0.3671 0.81047 0.0
H136 H 0.36788 0.27871 0.78311 0.0
H137 H 0.23202 0.32687 0.8238 0.0
H138 H 0.32584 0.41583 0.85113 0.0
H139 H 0.51134 0.49875 0.81329 0.0
H140 H 0.40311 0.3178 0.87303 0.0
H141 H 0.31118 0.23154 0.89906 0.0
H142 H 0.30258 0.38312 0.94882 0.0
H143 H 0.39081 0.46935 0.92155 0.0
H144 H 0.55335 0.6389 0.91742 0.0
H145 H 0.64318 0.72971 0.94548 0.0
H146 H 0.78826 0.69426 0.90523 0.0
H147 H 0.69842 0.60232 0.87757 0.0
H148 H 0.51191 0.50957 0.91518 0.0
H149 H 0.60183 0.68565 0.84958 0.0
H150 H 0.68989 0.77289 0.82218 0.0
H151 H 0.7363 0.62988 0.78672 0.0
H152 H 0.64799 0.54237 0.81397 0.0
C153 C 0.40053 0.39753 0.833 0.0
C154 C 0.41172 0.35886 0.81345 0.0
C155 C 0.35846 0.30851 0.79793 0.0
C156 C 0.29337 0.29641 0.80162 0.0
C157 C 0.28204 0.33554 0.82084 0.0
C158 C 0.33537 0.38592 0.83643 0.0
C159 C 0.45734 0.45049 0.84954 0.0
C160 C 0.51166 0.5006 0.8356 0.0
C161 C 0.45741 0.45327 0.87866 0.0
C162 C 0.40316 0.40032 0.89486 0.0
C163 C 0.38067 0.33266 0.88914 0.0
C164 C 0.32882 0.28341 0.90419 0.0
C165 C 0.30025 0.30106 0.92585 0.0
C166 C 0.32402 0.36857 0.93216 0.0
C167 C 0.37451 0.41769 0.91665 0.0
C168 C 0.61926 0.61421 0.89525 0.0
C169 C 0.60445 0.65056 0.91464 0.0
C170 C 0.65548 0.70236 0.93054 0.0
C171 C 0.72199 0.71847 0.92725 0.0
C172 C 0.73708 0.68245 0.90787 0.0
C173 C 0.68597 0.63039 0.89206 0.0
C174 C 0.56447 0.55842 0.8789 0.0
C175 C 0.51102 0.5075 0.89288 0.0
C176 C 0.56493 0.55469 0.84989 0.0
C177 C 0.61874 0.60773 0.83386 0.0
C178 C 0.6312 0.67316 0.83604 0.0
C179 C 0.68113 0.72272 0.82044 0.0
C180 C 0.71924 0.70745 0.80256 0.0
C181 C 0.70723 0.64227 0.80048 0.0
C182 C 0.65693 0.59258 0.81591 0.0
C183 C 0.92325 0.14766 0.0936 0.0
C184 C 0.96336 0.16978 0.06988 0.0
C185 C -0.00185 0.28525 0.08285 0.0
C186 C 0.96406 0.2637 0.10799 0.0
N187 N 0.90071 0.17594 0.13919 0.0
N188 N 0.0485 0.26021 0.04428 0.0
C189 C 0.92827 0.19524 0.1139 0.0
C190 C 0.00312 0.23875 0.06499 0.0
N191 N 0.87878 0.0813 0.09626 0.0
N192 N 0.02489 0.35002 0.07584 0.0
H193 H 0.05531 0.22807 0.03114 0.0
H194 H 0.08391 0.3101 0.04169 0.0
H195 H 0.02308 0.38587 0.08857 0.0
H196 H 0.04371 0.3669 0.05646 0.0
H197 H 0.84339 0.06257 0.11168 0.0
H198 H 0.87305 0.04512 0.08158 0.0
H199 H 0.88051 0.12765 0.14586 0.0
H200 H 0.90255 0.20938 0.15441 0.0
C201 C 0.89557 0.05572 0.44666 0.0
C202 C 0.89155 0.05808 0.41768 0.0
C203 C 0.77722 0.03712 0.42131 0.0
C204 C 0.78504 0.04422 0.45033 0.0
N205 N 0.85401 0.0674 0.49091 0.0
N206 N 0.83193 0.05925 0.37732 0.0
C207 C 0.84473 0.05507 0.46314 0.0
C208 C 0.83303 0.05035 0.40489 0.0
N209 N 0.94704 0.05211 0.45835 0.0
N210 N 0.71612 0.01673 0.40949 0.0
H211 H 0.87181 0.06951 0.36451 0.0
H212 H 0.79366 0.06195 0.3675 0.0
H213 H 0.67414 0.00663 0.42093 0.0
H214 H 0.7055 0.00399 0.38865 0.0
H215 H 0.94913 0.04354 0.47907 0.0
H216 H 0.98447 0.05109 0.44684 0.0
H217 H 0.89948 0.08321 0.50096 0.0
H218 H 0.81777 0.06687 0.50376 0.0
C219 C 0.80151 0.8232 0.74358 0.0
C220 C 0.86785 0.86329 0.75413 0.0
C221 C 0.83666 0.80153 0.79656 0.0
C222 C 0.77109 0.75979 0.78557 0.0
N223 N 0.69293 0.72306 0.74735 0.0
N224 N 0.95258 0.88304 0.78771 0.0
C225 C 0.75416 0.76814 0.75862 0.0
C226 C 0.88659 0.85032 0.77983 0.0
N227 N 0.7829 0.83967 0.71986 0.0
N228 N 0.85076 0.79528 0.82317 0.0
H229 H -0.00953 0.91774 0.77552 0.0
H230 H 0.97061 0.87159 0.80495 0.0
H231 H 0.81617 0.75843 0.83571 0.0
H232 H 0.89516 0.82909 0.83345 0.0
H233 H 0.73356 0.81758 0.71285 0.0
H234 H 0.8162 0.87885 0.70794 0.0
H235 H 0.68029 0.72176 0.72676 0.0
H236 H 0.65591 0.68358 0.75812 0.0
C237 C 0.93147 0.81793 0.0866 0.0
C238 C 0.98161 0.88532 0.09241 0.0
C239 C 0.02623 0.8513 0.13004 0.0
C240 C 0.97943 0.78375 0.1228 0.0
N241 N 0.89412 0.70141 0.092 0.0
N242 N 0.08099 0.96679 0.11743 0.0
C243 C 0.93369 0.76665 0.10051 0.0
C244 C 0.03047 0.90219 0.11343 0.0
N245 N 0.88135 0.80294 0.06793 0.0
N246 N 0.06497 0.8667 0.15332 0.0
H247 H 0.08387 0.00586 0.10658 0.0
H248 H 0.12238 0.98135 0.13022 0.0
H249 H 0.06334 0.83065 0.16589 0.0
H250 H 0.09497 0.91493 0.16144 0.0
H251 H 0.83903 0.75582 0.06524 0.0
H252 H 0.87967 0.83844 0.05613 0.0
H253 H 0.86552 0.68611 0.07392 0.0
H254 H 0.89364 0.6623 0.10191 0.0
C255 C 0.22107 0.03635 0.40255 0.0
C256 C 0.20669 0.08842 0.40466 0.0
C257 C 0.27384 0.1305 0.44727 0.0
C258 C 0.29417 0.08298 0.44319 0.0
N259 N 0.29786 -0.00053 0.41388 0.0
N260 N 0.22511 0.19009 0.42708 0.0
C261 C 0.27099 0.03851 0.4199 0.0
C262 C 0.23456 0.13695 0.42654 0.0
N263 N 0.18438 0.98277 0.38503 0.0
N264 N 0.29034 0.16793 0.47127 0.0
H265 H 0.19623 0.19604 0.41235 0.0
H266 H 0.24995 0.23075 0.44084 0.0
H267 H 0.31902 0.16443 0.48685 0.0
H268 H 0.27122 0.1984 0.47669 0.0
H269 H 0.18843 0.94037 0.38452 0.0
H270 H 0.14427 0.97737 0.3734 0.0
H271 H 0.28764 0.97135 0.39557 0.0
H272 H 0.33528 3e-05 0.42589 0.0
C273 C 0.13974 0.12945 0.78144 0.0
C274 C 0.13901 0.13472 0.75251 0.0
C275 C 0.23059 0.2507 0.75695 0.0
C276 C 0.23719 0.24221 0.78522 0.0
N277 N 0.2033 0.17159 0.82416 0.0
N278 N 0.18952 0.19747 0.71204 0.0
C279 C 0.19296 0.18115 0.79749 0.0
C280 C 0.18557 0.19479 0.74003 0.0
N281 N 0.0884 0.07592 0.79364 0.0
N282 N 0.26674 0.31249 0.74636 0.0
H283 H 0.15814 0.15763 0.69876 0.0
H284 H 0.22767 0.23735 0.70191 0.0
H285 H 0.30032 0.35455 0.7582 0.0
H286 H 0.25898 0.32317 0.7266 0.0
H287 H 0.08261 0.07236 0.81484 0.0
H288 H 0.04781 0.03797 0.78253 0.0
H289 H 0.17744 0.1256 0.83323 0.0
H290 H 0.24137 0.20843 0.83672 0.0
C291 C 0.83165 0.06976 0.65589 0.0
C292 C 0.84492 0.01685 0.65457 0.0
C293 C 0.77704 0.97237 0.61228 0.0
C294 C 0.75781 0.02081 0.61538 0.0
N295 N 0.75702 0.10835 0.64288 0.0
N296 N 0.81907 0.90994 0.63476 0.0
C297 C 0.78239 0.06758 0.63796 0.0
C298 C 0.81473 0.966 0.6336 0.0
N299 N 0.86789 0.1234 0.67348 0.0
N300 N 0.76064 0.93347 0.58869 0.0
H301 H 0.84398 0.9019 0.65059 0.0
H302 H 0.79221 0.86842 0.62159 0.0
H303 H 0.73336 0.93703 0.57252 0.0
H304 H 0.77934 0.9022 0.58411 0.0
H305 H 0.86518 0.16651 0.67323 0.0
H306 H 0.90552 0.12764 0.68653 0.0
H307 H 0.76784 0.13824 0.6607 0.0
H308 H 0.7204 0.10796 0.63039 0.0
C309 C 0.84565 0.89095 0.95745 0.0
C310 C 0.87918 0.87507 0.97747 0.0
C311 C 0.80408 0.75603 0.96661 0.0
C312 C 0.77585 0.77241 0.94463 0.0
N313 N 0.77552 0.85478 0.91629 0.0
N314 N 0.89461 0.79297 -0.00013 0.0
C315 C 0.79803 0.83973 0.93932 0.0
C316 C 0.85976 0.8077 0.98163 0.0
N317 N 0.85886 0.95478 0.95582 0.0
N318 N 0.77599 0.6912 0.97379 0.0
H319 H 0.93267 0.82859 0.01277 0.0
H320 H 0.88837 0.74578 0.00124 0.0
H321 H 0.73515 0.65193 0.96326 0.0
H322 H 0.78927 0.67667 0.99151 0.0
H323 H 0.83074 0.96789 0.94376 0.0
H324 H 0.89438 -0.00587 0.96822 0.0
H325 H 0.79545 0.90298 0.90956 0.0
H326 H 0.74066 0.81858 0.9025 0.0
C327 C 0.95186 0.84715 0.30485 0.0
C328 C 0.014 0.89446 0.31733 0.0
C329 C 0.06847 0.8404 0.2945 0.0
C330 C 0.00749 0.79553 0.28049 0.0
N331 N 0.89523 0.76617 0.2674 0.0
N332 N 0.13424 0.94862 0.31718 0.0
C333 C 0.9502 0.80178 0.28421 0.0
C334 C 0.07326 0.89501 0.31004 0.0
N335 N 0.89445 0.84496 0.31298 0.0
N336 N 0.12087 0.82937 0.2941 0.0
H337 H 0.13923 0.99115 0.32708 0.0
H338 H 0.17926 0.954 0.3104 0.0
H339 H 0.11885 0.78851 0.28382 0.0
H340 H 0.16386 0.8571 0.30629 0.0
H341 H 0.84684 0.80685 0.30686 0.0
H342 H 0.89426 0.8791 0.32731 0.0
H343 H 0.85452 0.77334 0.26744 0.0
H344 H 0.89301 0.73391 0.25154 0.0
C345 C 0.20802 0.03942 0.64976 0.0
C346 C 0.14561 0.02064 0.63706 0.0
C347 C 0.18742 0.00842 0.59227 0.0
C348 C 0.24853 0.0237 0.60523 0.0
N349 N 0.31494 0.04497 0.64643 0.0
N350 N 0.07118 0.97717 0.5976 0.0
C351 C 0.25813 0.03642 0.63405 0.0
C352 C 0.134 0.00241 0.60865 0.0
N353 N 0.22049 0.06313 0.67647 0.0
N354 N 0.181 0.0008 0.56426 0.0
H355 H 0.03084 0.97187 0.60905 0.0
H356 H 0.05744 0.95642 0.57775 0.0
H357 H 0.21807 0.0022 0.55167 0.0
H358 H 0.14092 -0.00265 0.55326 0.0
H359 H 0.26746 0.08507 0.68597 0.0
H360 H 0.1849 0.06551 0.68875 0.0
H361 H 0.32155 0.04655 0.66763 0.0
H362 H 0.35409 0.046 0.63549 0.0
C363 C 0.13131 0.20321 0.9596 0.0
C364 C 0.13763 0.1533 0.97274 0.0
C365 C 0.2538 0.20501 0.95768 0.0
C366 C 0.2441 0.24904 0.9416 0.0
N367 N 0.16766 0.27878 0.92225 0.0
N368 N 0.20103 0.09867 0.97925 0.0
C369 C 0.18102 0.24477 0.94104 0.0
C370 C 0.19787 0.15191 0.97045 0.0
N371 N 0.07976 0.21346 0.96579 0.0
N372 N 0.31656 0.21503 0.96155 0.0
H373 H 0.16046 0.05735 0.98766 0.0
H374 H 0.24172 0.09243 0.97554 0.0
H375 H 0.35908 0.25423 0.95308 0.0
H376 H 0.32714 0.18833 0.97534 0.0
H377 H 0.07684 0.25344 0.95863 0.0
H378 H 0.04429 0.18709 0.98056 0.0
H379 H 0.12014 0.27208 0.91934 0.0
H380 H 0.20201 0.30816 0.90762 0.0
C381 C 0.04442 0.19983 0.27925 0.0
C382 C 0.02248 0.19327 0.30678 0.0
C383 C 0.00331 0.28642 0.30233 0.0
C384 C 0.01879 0.28847 0.27403 0.0
N385 N 0.04935 0.24512 0.23461 0.0
N386 N 0.9749 0.22482 0.34419 0.0
C387 C 0.03824 0.2447 0.26222 0.0
C388 C 0.00086 0.23552 0.31836 0.0
N389 N 0.07292 0.1644 0.26971 0.0
N390 N -0.00866 0.33346 0.31389 0.0
H391 H 0.97343 0.18889 0.35676 0.0
H392 H 0.95071 0.24832 0.35258 0.0
H393 H -0.01012 0.36981 0.30259 0.0
H394 H 0.98738 0.3395 0.33495 0.0
H395 H 0.0961 0.17155 0.25079 0.0
H396 H 0.07849 0.13138 0.28174 0.0
H397 H 0.05592 0.2094 0.22409 0.0
H398 H 0.04793 0.2791 0.22169 0.0
loop_
_geom_bond_atom_site_label_1
_geom_bond_atom_site_label_2
_geom_bond_distance
_geom_bond_site_symmetry_2
_ccdc_geom_bond_type
C0 O1 1.160 . S
C0 O7 1.185 . S
O1 C0 1.160 . S
O2 Zn3 1.899 . S
O2 C10 1.284 1_455 S
Zn3 O2 1.899 . S
Zn3 O4 2.032 1_445 S
Zn3 O7 2.086 1_545 S
Zn3 O12 1.977 . S
O4 Zn3 2.032 1_665 S
O4 C8 1.278 1_554 S
C5 O6 1.203 1_556 S
C5 O12 1.267 1_556 S
O6 C5 1.203 1_554 S
O7 C0 1.185 . S
O7 Zn3 2.086 1_565 S
C8 O4 1.278 1_556 S
C8 O9 1.211 1_565 S
O9 C8 1.211 1_545 S
C10 O2 1.284 1_655 S
C10 O11 1.273 . S
O11 C10 1.273 . S
O12 Zn3 1.977 . S
O12 C5 1.267 1_554 S
C13 O14 1.160 . S
C13 O20 1.185 . S
O14 C13 1.160 . S
O15 Zn16 1.899 1_565 S
O15 C23 1.284 . S
Zn16 O15 1.899 1_545 S
Zn16 O17 2.032 1_455 S
Zn16 O20 2.086 . S
Zn16 O25 1.977 . S
O17 Zn16 2.032 1_655 S
O17 C21 1.278 . S
C18 O19 1.203 1_545 S
C18 O25 1.267 . S
O19 C18 1.203 1_565 S
O20 C13 1.185 . S
O20 Zn16 2.086 . S
C21 O17 1.278 . S
C21 O22 1.211 1_545 S
O22 C21 1.211 1_565 S
C23 O15 1.284 . S
C23 O24 1.273 1_455 S
O24 C23 1.273 1_655 S
O25 Zn16 1.977 . S
O25 C18 1.267 . S
C26 O27 1.160 1_565 S
C26 O33 1.185 . S
O27 C26 1.160 1_545 S
O28 Zn29 1.899 1_655 S
O28 C36 1.284 . S
Zn29 O28 1.899 1_455 S
Zn29 O30 2.032 . S
Zn29 O33 2.086 1_545 S
Zn29 O38 1.977 1_445 S
O30 Zn29 2.032 . S
O30 C34 1.278 . S
C31 O32 1.203 . S
C31 O38 1.267 . S
O32 C31 1.203 . S
O33 C26 1.185 . S
O33 Zn29 2.086 1_565 S
C34 O30 1.278 . S
C34 O35 1.211 . S
O35 C34 1.211 . S
C36 O28 1.284 . S
C36 O37 1.273 . S
O37 C36 1.273 . S
O38 Zn29 1.977 1_665 S
O38 C31 1.267 . S
H39 C58 0.949 . S
H40 C59 0.950 . S
H41 C61 0.950 . S
H42 C62 0.950 . S
H43 C64 0.950 . S
H44 C67 0.950 . S
H45 C68 0.950 . S
H46 C70 0.951 . S
H47 C71 0.949 . S
H48 C73 0.949 . S
H49 C74 0.950 . S
H50 C76 0.950 . S
H51 C77 0.950 . S
H52 C79 0.952 . S
H53 C82 0.950 . S
H54 C83 0.950 . S
H55 C85 0.951 . S
H56 C86 0.949 . S
C57 C58 1.376 . S
C57 C62 1.386 1_455 S
C57 C63 1.483 . S
C58 H39 0.949 . S
C58 C57 1.376 . S
C58 C59 1.397 . S
C59 H40 0.950 . S
C59 C58 1.397 . S
C59 C60 1.391 . S
C60 C59 1.391 . S
C60 C61 1.405 1_455 S
C61 H41 0.950 . S
C61 C60 1.405 1_655 S
C61 C62 1.367 . S
C62 H42 0.950 . S
C62 C57 1.386 1_655 S
C62 C61 1.367 . S
C63 C57 1.483 . S
C63 C64 1.382 . S
C63 C65 1.403 . S
C64 H43 0.950 . S
C64 C63 1.382 . S
C64 C80 1.411 . S
C65 C63 1.403 . S
C65 C66 1.489 . S
C65 C79 1.404 1_455 S
C66 C65 1.489 . S
C66 C67 1.383 . S
C66 C71 1.382 1_455 S
C67 H44 0.950 . S
C67 C66 1.383 . S
C67 C68 1.395 . S
C68 H45 0.950 . S
C68 C67 1.395 . S
C68 C69 1.288 . S
C69 C68 1.288 . S
C69 C70 1.392 1_455 S
C70 H46 0.951 . S
C70 C69 1.392 1_655 S
C70 C71 1.392 . S
C71 H47 0.949 . S
C71 C66 1.382 1_655 S
C71 C70 1.392 . S
C72 C73 1.376 1_455 S
C72 C77 1.386 . S
C72 C78 1.483 . S
C73 H48 0.949 . S
C73 C72 1.376 1_655 S
C73 C74 1.397 . S
C74 H49 0.950 . S
C74 C73 1.397 . S
C74 C75 1.391 1_655 S
C75 C74 1.391 1_455 S
C75 C76 1.405 . S
C76 H50 0.950 . S
C76 C75 1.405 . S
C76 C77 1.367 . S
C77 H51 0.950 . S
C77 C72 1.386 . S
C77 C76 1.367 . S
C78 C72 1.483 . S
C78 C79 1.387 1_455 S
C78 C80 1.403 . S
C79 H52 0.952 . S
C79 C65 1.404 1_655 S
C79 C78 1.387 1_655 S
C80 C64 1.411 . S
C80 C78 1.403 . S
C80 C81 1.489 . S
C81 C80 1.489 . S
C81 C82 1.383 1_455 S
C81 C86 1.382 . S
C82 H53 0.950 . S
C82 C81 1.383 1_655 S
C82 C83 1.395 . S
C83 H54 0.950 . S
C83 C82 1.395 . S
C83 C84 1.288 1_655 S
C84 C83 1.288 1_455 S
C84 C85 1.392 . S
C85 H55 0.951 . S
C85 C84 1.392 . S
C85 C86 1.392 . S
C86 H56 0.949 . S
C86 C81 1.382 . S
C86 C85 1.392 . S
H87 C106 0.949 . S
H88 C107 0.950 . S
H89 C109 0.950 . S
H90 C110 0.950 . S
H91 C112 0.950 . S
H92 C115 0.950 . S
H93 C116 0.950 . S
H94 C118 0.951 . S
H95 C119 0.949 . S
H96 C121 0.949 . S
H97 C122 0.950 . S
H98 C124 0.950 . S
H99 C125 0.950 . S
H100 C127 0.949 1_565 S
H101 C130 0.950 . S
H102 C131 0.950 . S
H103 C133 0.951 . S
H104 C134 0.949 . S
C105 C106 1.376 . S
C105 C110 1.386 1_545 S
C105 C111 1.483 . S
C106 H87 0.949 . S
C106 C105 1.376 . S
C106 C107 1.397 . S
C107 H88 0.950 . S
C107 C106 1.397 . S
C107 C108 1.391 . S
C108 C107 1.391 . S
C108 C109 1.405 1_545 S
C109 H89 0.950 . S
C109 C108 1.405 1_565 S
C109 C110 1.367 . S
C110 H90 0.950 . S
C110 C105 1.386 1_565 S
C110 C109 1.367 . S
C111 C105 1.483 . S
C111 C112 1.382 . S
C111 C113 1.403 . S
C112 H91 0.950 . S
C112 C111 1.382 . S
C112 C128 1.411 . S
C113 C111 1.403 . S
C113 C114 1.489 . S
C113 C127 1.411 . S
C114 C113 1.489 . S
C114 C115 1.383 . S
C114 C119 1.382 1_545 S
C115 H92 0.950 . S
C115 C114 1.383 . S
C115 C116 1.395 . S
C116 H93 0.950 . S
C116 C115 1.395 . S
C116 C117 1.288 . S
C117 C116 1.288 . S
C117 C118 1.392 1_545 S
C118 H94 0.951 . S
C118 C117 1.392 1_565 S
C118 C119 1.392 . S
C119 H95 0.949 . S
C119 C114 1.382 1_565 S
C119 C118 1.392 . S
C120 C121 1.376 1_545 S
C120 C125 1.386 . S
C120 C126 1.483 . S
C121 H96 0.949 . S
C121 C120 1.376 1_565 S
C121 C122 1.397 . S
C122 H97 0.950 . S
C122 C121 1.397 . S
C122 C123 1.391 1_565 S
C123 C122 1.391 1_545 S
C123 C124 1.405 . S
C124 H98 0.950 . S
C124 C123 1.405 . S
C124 C125 1.367 . S
C125 H99 0.950 . S
C125 C120 1.386 . S
C125 C124 1.367 . S
C126 C120 1.483 . S
C126 C127 1.382 . S
C126 C128 1.403 . S
C127 H100 0.949 1_545 S
C127 C113 1.411 . S
C127 C126 1.382 . S
C128 C112 1.411 . S
C128 C126 1.403 . S
C128 C129 1.489 . S
C129 C128 1.489 . S
C129 C130 1.383 1_545 S
C129 C134 1.382 . S
C130 H101 0.950 . S
C130 C129 1.383 1_565 S
C130 C131 1.395 . S
C131 H102 0.950 . S
C131 C130 1.395 . S
C131 C132 1.288 1_565 S
C132 C131 1.288 1_545 S
C132 C133 1.392 . S
C133 H103 0.951 . S
C133 C132 1.392 . S
C133 C134 1.392 . S
C134 H104 0.949 . S
C134 C129 1.382 . S
C134 C133 1.392 . S
H135 C154 0.949 . S
H136 C155 0.950 . S
H137 C157 0.950 . S
H138 C158 0.950 . S
H139 C160 0.950 . S
H140 C163 0.950 . S
H141 C164 0.950 . S
H142 C166 0.951 . S
H143 C167 0.949 . S
H144 C169 0.949 . S
H145 C170 0.950 . S
H146 C172 0.950 . S
H147 C173 0.950 . S
H148 C175 0.950 . S
H149 C178 0.950 . S
H150 C179 0.950 . S
H151 C181 0.951 . S
H152 C182 0.949 . S
C153 C154 1.376 . S
C153 C158 1.386 . S
C153 C159 1.483 . S
C154 H135 0.949 . S
C154 C153 1.376 . S
C154 C155 1.397 . S
C155 H136 0.950 . S
C155 C154 1.397 . S
C155 C156 1.391 . S
C156 C155 1.391 . S
C156 C157 1.405 . S
C157 H137 0.950 . S
C157 C156 1.405 . S
C157 C158 1.367 . S
C158 H138 0.950 . S
C158 C153 1.386 . S
C158 C157 1.367 . S
C159 C153 1.483 . S
C159 C160 1.382 . S
C159 C161 1.403 . S
C160 H139 0.950 . S
C160 C159 1.382 . S
C160 C176 1.411 . S
C161 C159 1.403 . S
C161 C162 1.489 . S
C161 C175 1.411 . S
C162 C161 1.489 . S
C162 C163 1.383 . S
C162 C167 1.382 . S
C163 H140 0.950 . S
C163 C162 1.383 . S
C163 C164 1.395 . S
C164 H141 0.950 . S
C164 C163 1.395 . S
C164 C165 1.288 . S
C165 C164 1.288 . S
C165 C166 1.392 . S
C166 H142 0.951 . S
C166 C165 1.392 . S
C166 C167 1.392 . S
C167 H143 0.949 . S
C167 C162 1.382 . S
C167 C166 1.392 . S
C168 C169 1.376 . S
C168 C173 1.386 . S
C168 C174 1.483 . S
C169 H144 0.949 . S
C169 C168 1.376 . S
C169 C170 1.397 . S
C170 H145 0.950 . S
C170 C169 1.397 . S
C170 C171 1.391 . S
C171 C170 1.391 . S
C171 C172 1.405 . S
C172 H146 0.950 . S
C172 C171 1.405 . S
C172 C173 1.367 . S
C173 H147 0.950 . S
C173 C168 1.386 . S
C173 C172 1.367 . S
C174 C168 1.483 . S
C174 C175 1.382 . S
C174 C176 1.403 . S
C175 H148 0.950 . S
C175 C161 1.411 . S
C175 C174 1.382 . S
C176 C160 1.411 . S
C176 C174 1.403 . S
C176 C177 1.489 . S
C177 C176 1.489 . S
C177 C178 1.383 . S
C177 C182 1.382 . S
C178 H149 0.950 . S
C178 C177 1.383 . S
C178 C179 1.395 . S
C179 H150 0.950 . S
C179 C178 1.395 . S
C179 C180 1.288 . S
C180 C179 1.288 . S
C180 C181 1.392 . S
C181 H151 0.951 . S
C181 C180 1.392 . S
C181 C182 1.392 . S
C182 H152 0.949 . S
C182 C177 1.382 . S
C182 C181 1.392 . S
C183 C184 1.363 . S
C183 C189 1.379 . S
C183 N191 1.356 . S
C184 C183 1.363 . S
C184 C190 1.363 1_655 S
C185 C186 1.363 . S
C185 C190 1.379 . S
C185 N192 1.356 . S
C186 C185 1.363 . S
C186 C189 1.363 1_455 S
N187 C189 1.356 . S
N187 H199 0.984 . S
N187 H200 0.985 . S
N188 C190 1.356 . S
N188 H193 0.984 . S
N188 H194 0.985 . S
C189 C183 1.379 . S
C189 C186 1.363 1_655 S
C189 N187 1.356 . S
C190 C184 1.363 1_455 S
C190 C185 1.379 . S
C190 N188 1.356 . S
N191 C183 1.356 . S
N191 H197 0.984 . S
N191 H198 0.984 . S
N192 C185 1.356 . S
N192 H195 0.984 . S
N192 H196 0.985 . S
H193 N188 0.984 . S
H194 N188 0.985 . S
H195 N192 0.984 . S
H196 N192 0.985 . S
H197 N191 0.984 . S
H198 N191 0.984 . S
H199 N187 0.984 . S
H200 N187 0.985 . S
C201 C202 1.363 1_565 S
C201 C207 1.379 . S
C201 N209 1.356 . S
C202 C201 1.363 1_545 S
C202 C208 1.363 . S
C203 C204 1.363 . S
C203 C208 1.379 . S
C203 N210 1.356 . S
C204 C203 1.363 . S
C204 C207 1.363 1_545 S
N205 C207 1.356 . S
N205 H217 0.984 . S
N205 H218 0.985 . S
N206 C208 1.356 . S
N206 H211 0.984 . S
N206 H212 0.985 . S
C207 C201 1.379 . S
C207 C204 1.363 1_565 S
C207 N205 1.356 . S
C208 C202 1.363 . S
C208 C203 1.379 . S
C208 N206 1.356 . S
N209 C201 1.356 . S
N209 H215 0.984 . S
N209 H216 0.984 . S
N210 C203 1.356 . S
N210 H213 0.984 . S
N210 H214 0.985 . S
H211 N206 0.984 . S
H212 N206 0.985 . S
H213 N210 0.984 . S
H214 N210 0.985 . S
H215 N209 0.984 . S
H216 N209 0.984 . S
H217 N205 0.984 . S
H218 N205 0.985 . S
C219 C220 1.363 . S
C219 C225 1.379 . S
C219 N227 1.356 . S
C220 C219 1.363 . S
C220 C226 1.363 . S
C221 C222 1.363 . S
C221 C226 1.379 . S
C221 N228 1.356 . S
C222 C221 1.363 . S
C222 C225 1.363 . S
N223 C225 1.356 . S
N223 H235 0.984 . S
N223 H236 0.985 . S
N224 C226 1.356 . S
N224 H229 0.984 . S
N224 H230 0.985 . S
C225 C219 1.379 . S
C225 C222 1.363 . S
C225 N223 1.356 . S
C226 C220 1.363 . S
C226 C221 1.379 . S
C226 N224 1.356 . S
N227 C219 1.356 . S
N227 H233 0.984 . S
N227 H234 0.984 . S
N228 C221 1.356 . S
N228 H231 0.984 . S
N228 H232 0.985 . S
H229 N224 0.984 . S
H230 N224 0.985 . S
H231 N228 0.984 . S
H232 N228 0.985 . S
H233 N227 0.984 . S
H234 N227 0.984 . S
H235 N223 0.984 . S
H236 N223 0.985 . S
C237 C238 1.363 1_655 S
C237 C243 1.379 . S
C237 N245 1.356 . S
C238 C237 1.363 1_455 S
C238 C244 1.363 . S
C239 C240 1.363 . S
C239 C244 1.379 . S
C239 N246 1.356 . S
C240 C239 1.363 . S
C240 C243 1.363 1_455 S
N241 C243 1.356 . S
N241 H253 0.984 . S
N241 H254 0.985 . S
N242 C244 1.356 . S
N242 H247 0.984 . S
N242 H248 0.985 . S
C243 C237 1.379 . S
C243 C240 1.363 1_655 S
C243 N241 1.356 . S
C244 C238 1.363 . S
C244 C239 1.379 . S
C244 N242 1.356 . S
N245 C237 1.356 . S
N245 H251 0.984 . S
N245 H252 0.984 . S
N246 C239 1.356 . S
N246 H249 0.984 . S
N246 H250 0.985 . S
H247 N242 0.984 . S
H248 N242 0.985 . S
H249 N246 0.984 . S
H250 N246 0.985 . S
H251 N245 0.984 . S
H252 N245 0.984 . S
H253 N241 0.984 . S
H254 N241 0.985 . S
C255 C256 1.363 . S
C255 C261 1.379 1_545 S
C255 N263 1.356 1_545 S
C256 C255 1.363 . S
C256 C262 1.363 . S
C257 C258 1.363 . S
C257 C262 1.379 . S
C257 N264 1.356 . S
C258 C257 1.363 . S
C258 C261 1.363 1_545 S
N259 C261 1.356 . S
N259 H271 0.984 . S
N259 H272 0.985 . S
N260 C262 1.356 . S
N260 H265 0.984 . S
N260 H266 0.985 . S
C261 C255 1.379 1_565 S
C261 C258 1.363 1_565 S
C261 N259 1.356 . S
C262 C256 1.363 . S
C262 C257 1.379 . S
C262 N260 1.356 . S
N263 C255 1.356 1_565 S
N263 H269 0.984 . S
N263 H270 0.984 . S
N264 C257 1.356 . S
N264 H267 0.984 . S
N264 H268 0.985 . S
H265 N260 0.984 . S
H266 N260 0.985 . S
H267 N264 0.984 . S
H268 N264 0.985 . S
H269 N263 0.984 . S
H270 N263 0.984 . S
H271 N259 0.984 . S
H272 N259 0.985 . S
C273 C274 1.363 . S
C273 C279 1.379 . S
C273 N281 1.356 . S
C274 C273 1.363 . S
C274 C280 1.363 . S
C275 C276 1.363 . S
C275 C280 1.379 . S
C275 N282 1.356 . S
C276 C275 1.363 . S
C276 C279 1.363 . S
N277 C279 1.356 . S
N277 H289 0.984 . S
N277 H290 0.985 . S
N278 C280 1.356 . S
N278 H283 0.984 . S
N278 H284 0.985 . S
C279 C273 1.379 . S
C279 C276 1.363 . S
C279 N277 1.356 . S
C280 C274 1.363 . S
C280 C275 1.379 . S
C280 N278 1.356 . S
N281 C273 1.356 . S
N281 H287 0.984 . S
N281 H288 0.984 . S
N282 C275 1.356 . S
N282 H285 0.984 . S
N282 H286 0.985 . S
H283 N278 0.984 . S
H284 N278 0.985 . S
H285 N282 0.984 . S
H286 N282 0.985 . S
H287 N281 0.984 . S
H288 N281 0.984 . S
H289 N277 0.984 . S
H290 N277 0.985 . S
C291 C292 1.363 . S
C291 C297 1.379 . S
C291 N299 1.356 . S
C292 C291 1.363 . S
C292 C298 1.363 1_545 S
C293 C294 1.363 1_565 S
C293 C298 1.379 . S
C293 N300 1.356 . S
C294 C293 1.363 1_545 S
C294 C297 1.363 . S
N295 C297 1.356 . S
N295 H307 0.984 . S
N295 H308 0.985 . S
N296 C298 1.356 . S
N296 H301 0.984 . S
N296 H302 0.985 . S
C297 C291 1.379 . S
C297 C294 1.363 . S
C297 N295 1.356 . S
C298 C292 1.363 1_565 S
C298 C293 1.379 . S
C298 N296 1.356 . S
N299 C291 1.356 . S
N299 H305 0.984 . S
N299 H306 0.984 . S
N300 C293 1.356 . S
N300 H303 0.984 . S
N300 H304 0.985 . S
H301 N296 0.984 . S
H302 N296 0.985 . S
H303 N300 0.984 . S
H304 N300 0.985 . S
H305 N299 0.984 . S
H306 N299 0.984 . S
H307 N295 0.984 . S
H308 N295 0.985 . S
C309 C310 1.363 . S
C309 C315 1.379 . S
C309 N317 1.356 . S
C310 C309 1.363 . S
C310 C316 1.363 . S
C311 C312 1.363 . S
C311 C316 1.379 . S
C311 N318 1.356 . S
C312 C311 1.363 . S
C312 C315 1.363 . S
N313 C315 1.356 . S
N313 H325 0.984 . S
N313 H326 0.985 . S
N314 C316 1.356 1_554 S
N314 H319 0.984 . S
N314 H320 0.985 . S
C315 C309 1.379 . S
C315 C312 1.363 . S
C315 N313 1.356 . S
C316 C310 1.363 . S
C316 C311 1.379 . S
C316 N314 1.356 1_556 S
N317 C309 1.356 . S
N317 H323 0.984 1_565 S
N317 H324 0.984 1_565 S
N318 C311 1.356 . S
N318 H321 0.984 . S
N318 H322 0.985 . S
H319 N314 0.984 . S
H320 N314 0.985 . S
H321 N318 0.984 . S
H322 N318 0.985 . S
H323 N317 0.984 1_545 S
H324 N317 0.984 1_545 S
H325 N313 0.984 . S
H326 N313 0.985 . S
C327 C328 1.363 1_655 S
C327 C333 1.379 . S
C327 N335 1.356 . S
C328 C327 1.363 1_455 S
C328 C334 1.363 . S
C329 C330 1.363 . S
C329 C334 1.379 . S
C329 N336 1.356 . S
C330 C329 1.363 . S
C330 C333 1.363 1_455 S
N331 C333 1.356 . S
N331 H343 0.984 . S
N331 H344 0.985 . S
N332 C334 1.356 . S
N332 H337 0.984 . S
N332 H338 0.985 . S
C333 C327 1.379 . S
C333 C330 1.363 1_655 S
C333 N331 1.356 . S
C334 C328 1.363 . S
C334 C329 1.379 . S
C334 N332 1.356 . S
N335 C327 1.356 . S
N335 H341 0.984 . S
N335 H342 0.984 . S
N336 C329 1.356 . S
N336 H339 0.984 . S
N336 H340 0.985 . S
H337 N332 0.984 . S
H338 N332 0.985 . S
H339 N336 0.984 . S
H340 N336 0.985 . S
H341 N335 0.984 . S
H342 N335 0.984 . S
H343 N331 0.984 . S
H344 N331 0.985 . S
C345 C346 1.363 1_545 S
C345 C351 1.379 . S
C345 N353 1.356 . S
C346 C345 1.363 1_565 S
C346 C352 1.363 . S
C347 C348 1.363 1_565 S
C347 C352 1.379 . S
C347 N354 1.356 . S
C348 C347 1.363 1_545 S
C348 C351 1.363 . S
N349 C351 1.356 . S
N349 H361 0.984 . S
N349 H362 0.985 . S
N350 C352 1.356 . S
N350 H355 0.984 . S
N350 H356 0.985 . S
C351 C345 1.379 . S
C351 C348 1.363 . S
C351 N349 1.356 . S
C352 C346 1.363 . S
C352 C347 1.379 . S
C352 N350 1.356 . S
N353 C345 1.356 . S
N353 H359 0.984 . S
N353 H360 0.984 . S
N354 C347 1.356 . S
N354 H357 0.984 . S
N354 H358 0.985 . S
H355 N350 0.984 . S
H356 N350 0.985 . S
H357 N354 0.984 . S
H358 N354 0.985 . S
H359 N353 0.984 . S
H360 N353 0.984 . S
H361 N349 0.984 . S
H362 N349 0.985 . S
C363 C364 1.363 . S
C363 C369 1.379 . S
C363 N371 1.356 . S
C364 C363 1.363 . S
C364 C370 1.363 . S
C365 C366 1.363 . S
C365 C370 1.379 . S
C365 N372 1.356 . S
C366 C365 1.363 . S
C366 C369 1.363 . S
N367 C369 1.356 . S
N367 H379 0.984 . S
N367 H380 0.985 . S
N368 C370 1.356 . S
N368 H373 0.984 . S
N368 H374 0.985 . S
C369 C363 1.379 . S
C369 C366 1.363 . S
C369 N367 1.356 . S
C370 C364 1.363 . S
C370 C365 1.379 . S
C370 N368 1.356 . S
N371 C363 1.356 . S
N371 H377 0.984 1_556 S
N371 H378 0.984 1_556 S
N372 C365 1.356 . S
N372 H375 0.984 . S
N372 H376 0.985 . S
H373 N368 0.984 . S
H374 N368 0.985 . S
H375 N372 0.984 . S
H376 N372 0.985 . S
H377 N371 0.984 1_554 S
H378 N371 0.984 1_554 S
H379 N367 0.984 . S
H380 N367 0.985 . S
C381 C382 1.363 . S
C381 C387 1.379 . S
C381 N389 1.356 . S
C382 C381 1.363 . S
C382 C388 1.363 . S
C383 C384 1.363 . S
C383 C388 1.379 . S
C383 N390 1.356 . S
C384 C383 1.363 . S
C384 C387 1.363 . S
N385 C387 1.356 . S
N385 H397 0.984 . S
N385 H398 0.985 . S
N386 C388 1.356 . S
N386 H391 0.984 . S
N386 H392 0.985 . S
C387 C381 1.379 . S
C387 C384 1.363 . S
C387 N385 1.356 . S
C388 C382 1.363 . S
C388 C383 1.379 . S
C388 N386 1.356 . S
N389 C381 1.356 . S
N389 H395 0.984 . S
N389 H396 0.984 . S
N390 C383 1.356 . S
N390 H393 0.984 . S
N390 H394 0.985 . S
H391 N386 0.984 . S
H392 N386 0.985 . S
H393 N390 0.984 . S
H394 N390 0.985 . S
H395 N389 0.984 . S
H396 N389 0.984 . S
H397 N385 0.984 . S
H398 N385 0.985 . S
C186 C60 1.443 . S
C184 C10 1.442 . S
C202 C21 1.459 . S
C204 C108 1.496 . S
C220 C31 1.409 . S
C222 C180 1.476 . S
C238 C0 1.420 . S
C240 C84 1.454 . S
C258 C132 1.475 . S
C256 C18 1.406 . S
C274 C34 1.427 . S
C276 C156 1.456 . S
C294 C117 1.440 . S
C292 C36 1.441 . S
C310 C8 1.429 . S
C312 C171 1.460 . S
C330 C75 1.444 . S
C328 C23 1.445 . S
C348 C123 1.417 . S
C346 C26 1.371 . S
C366 C165 1.514 . S
C364 C5 1.410 . S
C382 C13 1.423 . S
C384 C69 1.484 . S
