# Generated by pormake.
# Topology anh, (6,3)-cn, num edge types: 1
# Building blocks:
#     Node 0, Type 0, BuildingBlock: HISSIN_clean_sbu_0, # of connection points: 6
#     Node 1, Type 0, BuildingBlock: HISSIN_clean_sbu_0, # of connection points: 6
#     Node 2, Type 0, BuildingBlock: HISSIN_clean_sbu_0, # of connection points: 6
#     Node 3, Type 1, BuildingBlock: PAMTOO_clean_linker_0, # of connection points: 3
#     Node 4, Type 1, BuildingBlock: PAMTOO_clean_linker_0, # of connection points: 3
#     Node 5, Type 1, BuildingBlock: PAMTOO_clean_linker_0, # of connection points: 3
#     Node 6, Type 1, BuildingBlock: PAMTOO_clean_linker_0, # of connection points: 3
#     Node 7, Type 1, BuildingBlock: PAMTOO_clean_linker_0, # of connection points: 3
#     Node 8, Type 1, BuildingBlock: PAMTOO_clean_linker_0, # of connection points: 3
#     Edge 9, Type (0, 1), BuildingBlock: CIFDUS_clean_linker_0, # of connection points: 2
#     Edge 10, Type (0, 1), BuildingBlock: CIFDUS_clean_linker_0, # of connection points: 2
#     Edge 11, Type (0, 1), BuildingBlock: CIFDUS_clean_linker_0, # of connection points: 2
#     Edge 12, Type (0, 1), BuildingBlock: CIFDUS_clean_linker_0, # of connection points: 2
#     Edge 13, Type (0, 1), BuildingBlock: CIFDUS_clean_linker_0, # of connection points: 2
#     Edge 14, Type (0, 1), BuildingBlock: CIFDUS_clean_linker_0, # of connection points: 2
#     Edge 15, Type (0, 1), BuildingBlock: CIFDUS_clean_linker_0, # of connection points: 2
#     Edge 16, Type (0, 1), BuildingBlock: CIFDUS_clean_linker_0, # of connection points: 2
#     Edge 17, Type (0, 1), BuildingBlock: CIFDUS_clean_linker_0, # of connection points: 2
#     Edge 18, Type (0, 1), BuildingBlock: CIFDUS_clean_linker_0, # of connection points: 2
#     Edge 19, Type (0, 1), BuildingBlock: CIFDUS_clean_linker_0, # of connection points: 2
#     Edge 20, Type (0, 1), BuildingBlock: CIFDUS_clean_linker_0, # of connection points: 2
#     Edge 21, Type (0, 1), BuildingBlock: CIFDUS_clean_linker_0, # of connection points: 2
#     Edge 22, Type (0, 1), BuildingBlock: CIFDUS_clean_linker_0, # of connection points: 2
#     Edge 23, Type (0, 1), BuildingBlock: CIFDUS_clean_linker_0, # of connection points: 2
#     Edge 24, Type (0, 1), BuildingBlock: CIFDUS_clean_linker_0, # of connection points: 2
#     Edge 25, Type (0, 1), BuildingBlock: CIFDUS_clean_linker_0, # of connection points: 2
#     Edge 26, Type (0, 1), BuildingBlock: CIFDUS_clean_linker_0, # of connection points: 2
# Relax obj value: 0.294
# Max RMSD: 0.152
# Mean RMSD: 0.119
data_MOF--net-anh--node1-HISSIN_clean_sbu_0--node2-PAMTOO_clean_linker_0--edge1-CIFDUS_clean_linker_0
_symmetry_space_group_name_H-M    P1
_symmetry_Int_Tables_number       1
_symmetry_cell_setting            triclinic
loop_
_symmetry_equiv_pos_as_xyz
'x, y, z'
_cell_length_a     26.73241
_cell_length_b     26.639824
_cell_length_c     43.431813
_cell_angle_alpha  89.831508
_cell_angle_beta   91.80001
_cell_angle_gamma 120.20662
loop_
_atom_site_label
_atom_site_type_symbol
_atom_site_fract_x
_atom_site_fract_y
_atom_site_fract_z
_atom_type_partial_charge
Eu0 Eu 0.16953 0.53691 0.14631 0.0
Eu1 Eu 0.23616 0.67411 0.15901 0.0
C2 C 0.18522 0.58907 0.21542 0.0
C3 C 1.04177 0.3936 0.13217 0.0
C4 C 1.01238 0.41911 0.14514 0.0
C5 C 0.94977 0.31284 0.1135 0.0
C6 C 0.95254 0.39243 0.14197 0.0
C7 C 1.01035 0.34038 0.11622 0.0
C8 C 0.92056 0.33919 0.12606 0.0
C9 C 1.10515 0.42689 0.13276 0.0
O10 O 0.31038 0.65279 0.15374 0.0
O11 O 0.25977 0.55412 0.16031 0.0
C12 C 0.30967 0.60288 0.1575 0.0
O13 O 0.22486 0.58162 0.10541 0.0
O14 O 0.30716 0.7593 0.14709 0.0
O15 O 0.24947 0.75175 0.1832 0.0
O16 O 0.21253 0.65911 0.10891 0.0
C17 C 0.22787 0.62791 0.09307 0.0
O18 O 1.1019 0.56261 0.13344 0.0
O19 O 1.13976 0.65133 0.15711 0.0
O20 O 0.23067 0.63584 0.20566 0.0
O21 O 1.12616 0.46725 0.11207 0.0
O22 O 1.13033 0.4461 0.15987 0.0
O23 O 1.14953 0.54818 0.19577 0.0
C24 C 0.28972 0.83724 0.15282 0.0
C25 C 0.24221 0.84545 0.15651 0.0
C26 C 0.342 0.93188 0.1294 0.0
C27 C 0.24554 0.8976 0.14764 0.0
C28 C 0.33868 0.88004 0.13826 0.0
C29 C 0.2964 0.94232 0.13502 0.0
C30 C 0.29138 0.78679 0.16564 0.0
C31 C 1.09536 0.60577 0.14318 0.0
H32 H 1.03588 0.46021 0.15752 0.0
H33 H 0.92582 0.27141 0.10144 0.0
H34 H 0.93113 0.41298 0.15262 0.0
H35 H 1.03257 0.32057 0.10572 0.0
H36 H 0.20348 0.81271 0.16733 0.0
H37 H 0.38234 0.9654 0.12029 0.0
H38 H 0.20948 0.90402 0.15205 0.0
H39 H 0.37574 0.87461 0.13507 0.0
Eu40 Eu 0.69717 1.051 0.4754 0.0
Eu41 Eu 0.61683 0.10317 0.49419 0.0
C42 C 0.67501 1.06013 0.54704 0.0
C43 C 0.766 0.9574 0.46298 0.0
C44 C 0.73416 0.9187 0.48613 0.0
C45 C 0.81892 0.90663 0.45634 0.0
C46 C 0.74542 0.87472 0.49476 0.0
C47 C 0.80764 0.9506 0.44776 0.0
C48 C 0.78875 0.86898 0.48036 0.0
C49 C 0.75932 1.00752 0.45619 0.0
O50 O 0.70323 0.18172 0.47883 0.0
O51 O 0.7649 0.14655 0.48483 0.0
C52 C 0.75676 0.19085 0.48043 0.0
O53 O 0.68133 1.09352 0.43397 0.0
O54 O 0.57653 0.13127 0.528 0.0
O55 O 0.57267 0.14988 0.47987 0.0
O56 O 0.59017 1.06807 0.44616 0.0
C57 C 0.62945 1.08306 0.42559 0.0
O58 O 0.60463 0.97157 0.47448 0.0
O59 O 0.54842 1.0058 0.4945 0.0
O60 O 0.65791 1.09684 0.5391 0.0
O61 O 0.71039 0.99667 0.4429 0.0
O62 O 0.77585 1.04596 0.47841 0.0
O63 O 0.68578 1.03143 0.52624 0.0
C64 C 0.60437 0.22785 0.51535 0.0
C65 C 0.63751 0.26671 0.49234 0.0
C66 C 0.66343 0.30155 0.55411 0.0
C67 C 0.68558 0.32037 0.50026 0.0
C68 C 0.61557 0.24731 0.54618 0.0
C69 C 0.70105 0.33708 0.53135 0.0
C70 C 0.57025 0.16478 0.50813 0.0
C71 C 0.5537 0.96234 0.48358 0.0
H72 H 0.70201 0.92373 0.49818 0.0
H73 H 0.85203 0.90279 0.4446 0.0
H74 H 0.72195 0.84686 0.51359 0.0
H75 H 0.83251 0.98028 0.42982 0.0
H76 H 0.62999 0.25369 0.46826 0.0
H77 H 0.67302 0.31392 0.57824 0.0
H78 H 0.71326 0.34617 0.48198 0.0
H79 H 0.59046 0.21864 0.56439 0.0
Eu80 Eu 0.64883 0.5584 0.81461 0.0
Eu81 Eu 0.78387 0.63196 0.82869 0.0
C82 C 0.69964 0.59956 0.88261 0.0
C83 C 0.50625 0.54629 0.80819 0.0
C84 C 0.51683 0.59047 0.78706 0.0
C85 C 0.46528 0.58698 0.84258 0.0
C86 C 0.50512 0.63437 0.79452 0.0
C87 C 0.47689 0.54294 0.83509 0.0
C88 C 0.48241 0.63484 0.82316 0.0
C89 C 0.5376 0.51381 0.80612 0.0
O90 O 0.76095 0.53648 0.83567 0.0
O91 O 0.67094 0.48543 0.81167 0.0
C92 C 0.71756 0.48681 0.82402 0.0
O93 O 0.69071 0.57849 0.76779 0.0
O94 O 0.85781 0.65665 0.86027 0.0
O95 O 0.86967 0.70028 0.81643 0.0
O96 O 0.77713 0.58866 0.78401 0.0
C97 C 0.73973 0.58067 0.76184 0.0
O98 O 0.66847 0.6535 0.81946 0.0
O99 O 0.76179 0.69601 0.80524 0.0
O100 O 0.74116 0.64437 0.86929 0.0
O101 O 0.57284 0.52713 0.78346 0.0
O102 O 0.56134 0.50976 0.83198 0.0
O103 O 0.66556 0.55293 0.86604 0.0
C104 C 0.94798 0.69056 0.83604 0.0
C105 C 0.98652 0.72549 0.81355 0.0
C106 C 1.01685 0.66125 0.85293 0.0
C107 C 1.04026 0.72926 0.81122 0.0
C108 C 0.96305 0.65731 0.85519 0.0
C109 C 1.05673 0.6986 0.83154 0.0
C110 C 0.89487 0.69303 0.84088 0.0
C111 C 0.71517 0.69977 0.80957 0.0
H112 H 0.53896 0.59429 0.76596 0.0
H113 H 0.44657 0.58565 0.86455 0.0
H114 H 0.51881 0.67059 0.77903 0.0
H115 H 0.46768 0.50914 0.85168 0.0
H116 H 0.97605 0.75163 0.79848 0.0
H117 H 1.02849 0.63771 0.86926 0.0
H118 H 1.06987 0.758 0.79434 0.0
H119 H 0.93438 0.63006 0.8728 0.0
H120 H 0.68261 0.19713 0.24047 0.0
H121 H 0.5275 0.19274 0.26854 0.0
H122 H 0.56523 0.20338 0.17264 0.0
H123 H 0.50533 0.26203 0.1881 0.0
C124 C 0.4727 0.22942 0.2036 0.0
O125 O 0.48799 0.18917 0.21272 0.0
H126 H 0.46931 0.25225 0.22412 0.0
C127 C 0.64359 0.19863 0.23483 0.0
C128 C 0.62907 0.20207 0.20388 0.0
C129 C 0.60758 0.19543 0.25842 0.0
C130 C 0.55691 0.19694 0.25078 0.0
C131 C 0.54183 0.19987 0.21995 0.0
C132 C 0.578 0.20276 0.1965 0.0
H133 H 0.86475 0.68282 0.59547 0.0
H134 H 0.96686 0.60072 0.61193 0.0
H135 H 0.99791 0.70919 0.53362 0.0
H136 H 1.05133 0.5856 0.54993 0.0
C137 C 1.02583 0.60591 0.54192 0.0
O138 O 1.03078 0.64551 0.56423 0.0
H139 H 1.04585 0.62974 0.52056 0.0
C140 C 0.89751 0.67296 0.58863 0.0
C141 C 0.92786 0.69814 0.56181 0.0
C142 C 0.91115 0.63807 0.60736 0.0
C143 C 0.9559 0.62837 0.59851 0.0
C144 C 0.98744 0.6547 0.57226 0.0
C145 C 0.97377 0.68986 0.55413 0.0
H146 H 0.31487 0.7621 0.92901 0.0
H147 H 0.48729 0.87802 0.96515 0.0
H148 H 0.43735 0.90213 0.87392 0.0
H149 H 0.60578 0.95918 0.91743 0.0
C150 C 0.56756 0.94012 0.90117 0.0
O151 O 0.522 0.94079 0.91529 0.0
H152 H 0.57974 0.969 0.8809 0.0
C153 C 0.35854 0.79754 0.92567 0.0
C154 C 0.37146 0.82854 0.89807 0.0
C155 C 0.39949 0.81527 0.9502 0.0
C156 C 0.45501 0.8635 0.94647 0.0
C157 C 0.46862 0.8941 0.9188 0.0
C158 C 0.42668 0.87723 0.8949 0.0
H159 H 1.03059 0.45453 0.39723 0.0
H160 H 0.19367 0.6161 0.40316 0.0
H161 H 1.10531 0.53516 0.48574 0.0
H162 H 0.26601 0.62092 0.45265 0.0
C163 C 0.25329 0.6436 0.46947 0.0
O164 O 0.19677 0.63152 0.46187 0.0
H165 H 0.25296 0.62495 0.49242 0.0
C166 C 1.06509 0.48952 0.41084 0.0
C167 C 1.06125 0.48787 0.44324 0.0
C168 C 1.1128 0.53484 0.39585 0.0
C169 C 0.15667 0.58084 0.41395 0.0
C170 C 0.15488 0.58233 0.44615 0.0
C171 C 1.10728 0.5348 0.46089 0.0
H172 H 0.68587 0.96529 0.73066 0.0
H173 H 0.68339 0.12451 0.74199 0.0
H174 H 0.69737 1.03624 0.82185 0.0
H175 H 0.76199 0.19957 0.785 0.0
C176 C 0.73314 0.18682 0.80495 0.0
O177 O 0.68811 0.12877 0.80106 0.0
H178 H 0.75971 0.18896 0.82564 0.0
C179 C 0.68898 0.99926 0.74564 0.0
C180 C 0.694 0.99436 0.77793 0.0
C181 C 0.68432 1.04528 0.73236 0.0
C182 C 0.68616 1.0885 0.75178 0.0
C183 C 0.6914 1.08682 0.78384 0.0
C184 C 0.69476 1.03896 0.79704 0.0
H185 H 0.80735 0.59279 0.06681 0.0
H186 H 0.65622 0.60919 0.07273 0.0
H187 H 0.76123 0.63146 0.15467 0.0
H188 H 0.61243 0.57011 0.16204 0.0
C189 C 0.6083 0.58805 0.13958 0.0
O190 O 0.66425 0.63102 0.13133 0.0
H191 H 0.59064 0.55164 0.12247 0.0
C192 C 0.77842 0.59942 0.08096 0.0
C193 C 0.79179 0.61165 0.11276 0.0
C194 C 0.73016 0.59863 0.06643 0.0
C195 C 0.69322 0.60954 0.08392 0.0
C196 C 0.70228 0.61982 0.11582 0.0
C197 C 0.75261 0.62181 0.13024 0.0
H198 H 0.41937 0.67473 0.13111 0.0
H199 H 0.32647 0.52114 0.18575 0.0
H200 H 0.40914 0.50638 0.18627 0.0
H201 H 0.50679 0.53293 0.16997 0.0
H202 H 0.60122 0.68237 0.11332 0.0
H203 H 0.52073 0.70246 0.11488 0.0
C204 C 0.41735 0.6384 0.14345 0.0
C205 C 0.36529 0.59929 0.15857 0.0
C206 C 0.46604 0.6291 0.14328 0.0
C207 C 0.36465 0.55217 0.17386 0.0
C208 C 0.41243 0.54353 0.1742 0.0
C209 C 0.5105 0.57067 0.15834 0.0
C210 C 0.56179 0.60688 0.14231 0.0
C211 C 0.46321 0.58119 0.15884 0.0
C212 C 0.56382 0.65429 0.12658 0.0
C213 C 0.51715 0.66557 0.12734 0.0
H214 H 0.87514 0.23854 0.49599 0.0
H215 H 0.75602 0.28172 0.4508 0.0
H216 H 0.83688 0.37621 0.43685 0.0
H217 H 0.94318 0.44609 0.43431 0.0
H218 H 1.06237 0.40741 0.48286 0.0
H219 H 0.98117 0.31371 0.49852 0.0
C220 C 0.8666 0.26862 0.48324 0.0
C221 C 0.80828 0.25137 0.47431 0.0
C222 C 0.91409 0.32461 0.4757 0.0
C223 C 0.79943 0.29242 0.45811 0.0
C224 C 0.84613 0.34699 0.44996 0.0
C225 C 0.95149 0.41772 0.44882 0.0
C226 C 1.00987 0.43497 0.45739 0.0
C227 C 0.90388 0.36356 0.45823 0.0
C228 C 1.01869 0.3966 0.47611 0.0
C229 C 0.97188 0.34235 0.48488 0.0
H230 H 0.65489 0.75188 0.83472 0.0
H231 H 0.77809 0.7775 0.76583 0.0
H232 H 0.78356 0.86838 0.75097 0.0
H233 H 0.75392 0.94206 0.75646 0.0
H234 H 0.63626 0.92285 0.82711 0.0
H235 H 0.63019 0.83107 0.84262 0.0
C236 C 0.68293 0.77721 0.81642 0.0
C237 C 0.7158 0.75621 0.80138 0.0
C238 C 0.68749 0.83183 0.80831 0.0
C239 C 0.75218 0.79125 0.77801 0.0
C240 C 0.75541 0.84382 0.7694 0.0
C241 C 0.72675 0.91811 0.77533 0.0
C242 C 0.69534 0.94067 0.79027 0.0
C243 C 0.72341 0.86482 0.78427 0.0
C244 C 0.66139 0.90806 0.81502 0.0
C245 C 0.65731 0.85469 0.82374 0.0
H246 H 1.04921 0.67636 0.16314 0.0
H247 H 1.00388 0.5224 0.10913 0.0
H248 H 0.90873 0.50894 0.09742 0.0
H249 H 0.83678 0.54032 0.10031 0.0
H250 H 0.87677 0.69254 0.15389 0.0
H251 H 0.97268 0.7058 0.16801 0.0
C252 C 1.01871 0.63988 0.14876 0.0
C253 C 1.03592 0.6009 0.13701 0.0
C254 C 0.96175 0.6315 0.14194 0.0
C255 C 0.99397 0.55378 0.11867 0.0
C256 C 0.93861 0.54573 0.11183 0.0
C257 C 0.86608 0.57655 0.11521 0.0
C258 C 0.84807 0.61542 0.1257 0.0
C259 C 0.92184 0.58428 0.12307 0.0
C260 C 0.88779 0.66124 0.14544 0.0
C261 C 0.94345 0.66922 0.15333 0.0
H262 H 0.43399 0.91969 0.49176 0.0
H263 H 0.55343 0.86338 0.46691 0.0
H264 H 0.47347 0.76474 0.45913 0.0
H265 H 0.36939 0.69177 0.45966 0.0
H266 H 0.24731 0.74339 0.48502 0.0
H267 H 0.32702 0.84447 0.492 0.0
C268 C 0.44274 0.88595 0.48472 0.0
C269 C 0.50126 0.90069 0.48008 0.0
C270 C 0.39532 0.82753 0.48002 0.0
C271 C 0.51011 0.85506 0.4708 0.0
C272 C 0.46388 0.79789 0.46623 0.0
C273 C 0.35977 0.72518 0.4662 0.0
C274 C 0.3012 0.70913 0.47076 0.0
C275 C 0.40629 0.78336 0.47065 0.0
C276 C 0.29098 0.75365 0.48037 0.0
C277 C 0.33706 0.81181 0.48463 0.0
H278 H 0.6478 0.37626 0.79535 0.0
H279 H 0.80123 0.47245 0.85378 0.0
H280 H 0.81614 0.38956 0.85449 0.0
H281 H 0.78932 0.29037 0.83745 0.0
H282 H 0.63889 0.19276 0.77781 0.0
H283 H 0.61948 0.27391 0.77883 0.0
C284 C 0.68433 0.37916 0.80847 0.0
C285 C 0.72318 0.43213 0.8246 0.0
C286 C 0.69334 0.33021 0.80868 0.0
C287 C 0.77028 0.4336 0.84108 0.0
C288 C 0.779 0.38565 0.84154 0.0
C289 C 0.75141 0.28604 0.82513 0.0
C290 C 0.71462 0.23359 0.80842 0.0
C291 C 0.7412 0.33377 0.82536 0.0
C292 C 0.66719 0.23095 0.79172 0.0
C293 C 0.65638 0.27802 0.79211 0.0
H294 H 0.89739 0.88741 0.49041 0.0
H295 H 0.71721 0.75638 0.49697 0.0
H296 H 0.74483 0.69054 0.5212 0.0
H297 H 0.81999 0.67258 0.54311 0.0
H298 H 1.00002 0.80419 0.53731 0.0
H299 H 0.97268 0.867 0.50926 0.0
C300 C 0.86417 0.84402 0.49655 0.0
C301 C 0.80533 0.82685 0.49202 0.0
C302 C 0.88034 0.80663 0.51059 0.0
C303 C 0.76278 0.77083 0.50059 0.0
C304 C 0.77853 0.73316 0.51434 0.0
C305 C 0.85318 0.71502 0.53564 0.0
C306 C 0.91184 0.73406 0.54248 0.0
C307 C 0.83713 0.75105 0.51997 0.0
C308 C 0.95458 0.78856 0.53218 0.0
C309 C 0.93896 0.82458 0.51634 0.0
H310 H 0.15335 0.8045 0.82928 0.0
H311 H 1.09675 0.62265 0.83987 0.0
H312 H 0.19492 0.64746 0.85636 0.0
H313 H 0.2915 0.72138 0.87614 0.0
H314 H 0.34508 0.90297 0.86836 0.0
H315 H 0.25422 0.87767 0.84099 0.0
C316 C 0.16278 0.77009 0.83412 0.0
C317 C 1.11764 0.71185 0.83385 0.0
C318 C 0.21881 0.78473 0.84424 0.0
C319 C 1.13061 0.66788 0.8405 0.0
C320 C 0.18668 0.68204 0.84991 0.0
C321 C 0.28361 0.75534 0.86787 0.0
C322 C 0.32434 0.81383 0.87474 0.0
C323 C 0.23035 0.74042 0.85326 0.0
C324 C 0.31441 0.8576 0.86337 0.0
C325 C 0.26215 0.84314 0.84801 0.0
H326 H 0.26521 0.99764 0.17605 0.0
H327 H 0.35408 1.02428 0.09104 0.0
H328 H 0.40898 0.12864 0.10145 0.0
H329 H 0.45206 0.2033 0.14253 0.0
H330 H 0.36604 0.17435 0.22841 0.0
H331 H 0.2878 1.0807 0.20926 0.0
C332 C 0.29432 1.02629 0.15894 0.0
C333 C 0.30769 1.00294 0.13357 0.0
C334 C 0.32694 1.08605 0.16554 0.0
C335 C 0.34484 1.04107 0.11144 0.0
C336 C 0.37639 1.10079 0.11742 0.0
C337 C 0.41435 0.178 0.15625 0.0
C338 C 0.41508 0.19487 0.18696 0.0
C339 C 0.37117 0.12285 0.14564 0.0
C340 C 0.36627 0.16197 0.2047 0.0
C341 C 0.32204 0.10791 0.19392 0.0
H342 H 0.76269 0.44022 0.50158 0.0
H343 H 0.77274 0.3444 0.57967 0.0
H344 H 0.87336 0.41866 0.58968 0.0
H345 H 0.96066 0.50828 0.57462 0.0
H346 H 0.95224 0.60153 0.49534 0.0
H347 H 0.84947 0.52975 0.48671 0.0
C348 C 0.7868 0.43536 0.52076 0.0
C349 C 0.75973 0.38653 0.53978 0.0
C350 C 0.84546 0.47712 0.52574 0.0
C351 C 0.79168 0.38189 0.56492 0.0
C352 C 0.84968 0.42396 0.57044 0.0
C353 C 0.93623 0.51216 0.55527 0.0
C354 C 0.9638 0.55895 0.53518 0.0
C355 C 0.87728 0.47112 0.55067 0.0
C356 C 0.93185 0.5649 0.51062 0.0
C357 C 0.87315 0.52427 0.50588 0.0
H358 H 0.52204 0.68559 0.87926 0.0
H359 H 0.45312 0.70681 0.79218 0.0
H360 H 0.47363 0.80334 0.80867 0.0
H361 H 0.51643 0.88379 0.84686 0.0
H362 H 0.5847 0.86171 0.93375 0.0
H363 H 0.55901 0.76297 0.9184 0.0
C364 C 0.51001 0.7106 0.86417 0.0
C365 C 0.4858 0.68894 0.83459 0.0
C366 C 0.52261 0.76612 0.87363 0.0
C367 C 0.47194 0.72264 0.81503 0.0
C368 C 0.48376 0.77781 0.82441 0.0
C369 C 0.52575 0.85719 0.86227 0.0
C370 C 0.55358 0.88 0.89103 0.0
C371 C 0.5102 0.80042 0.8534 0.0
C372 C 0.56449 0.84516 0.91122 0.0
C373 C 0.54938 0.78874 0.90256 0.0
H374 H 0.84648 0.22894 0.14257 0.0
H375 H 0.85238 0.38483 0.11012 0.0
H376 H 0.75325 0.34851 0.12604 0.0
H377 H 0.67541 0.2833 0.15986 0.0
H378 H 0.67282 0.13069 0.19516 0.0
H379 H 0.75926 0.15383 0.16691 0.0
C380 C 0.82514 0.2538 0.13787 0.0
C381 C 0.8567 0.30978 0.12583 0.0
C382 C 0.76906 0.23362 0.14816 0.0
C383 C 0.82887 0.34186 0.11987 0.0
C384 C 0.7724 0.32128 0.12911 0.0
C385 C 0.69266 0.25412 0.16037 0.0
C386 C 0.66895 0.20622 0.17995 0.0
C387 C 0.74349 0.26885 0.14495 0.0
C388 C 0.69134 0.16847 0.18056 0.0
C389 C 0.74079 0.18177 0.16453 0.0
H390 H 0.30036 0.74061 0.08192 0.0
H391 H 0.22794 0.56965 0.0412 0.0
H392 H 0.27929 0.6125 -0.00638 0.0
H393 H 0.34023 0.69965 0.9629 0.0
H394 H 0.41473 0.86964 0.00533 0.0
H395 H 0.36834 0.82599 0.05347 0.0
C396 C 0.29572 0.7127 0.0626 0.0
C397 C 0.25948 0.65223 0.06462 0.0
C398 C 0.32629 0.73748 0.0359 0.0
C399 C 0.25513 0.61639 0.03987 0.0
C400 C 0.28453 0.64088 0.01279 0.0
C401 C 0.34691 0.72691 0.98289 0.0
C402 C 0.38067 0.78777 0.98059 0.0
C403 C 0.31967 0.70147 0.01044 0.0
C404 C 0.38948 0.82273 0.00664 0.0
C405 C 0.36242 0.79784 0.03404 0.0
H406 H 0.70513 0.16196 0.38629 0.0
H407 H 0.52482 1.03369 0.39542 0.0
H408 H 0.5016 1.05899 0.34495 0.0
H409 H 0.53266 0.11703 0.29821 0.0
H410 H 0.71218 0.2485 0.28988 0.0
H411 H 0.73564 0.22273 0.34016 0.0
C412 C 0.66093 0.13919 0.377 0.0
C413 C 0.61681 1.09567 0.39425 0.0
C414 C 0.64769 0.15494 0.34834 0.0
C415 C 0.55948 1.06722 0.38238 0.0
C416 C 0.54616 1.08178 0.35363 0.0
C417 C 0.57671 0.14082 0.30765 0.0
C418 C 0.62058 0.18462 0.29037 0.0
C419 C 0.58985 0.12581 0.33651 0.0
C420 C 0.6777 0.21428 0.30267 0.0
C421 C 0.69116 0.19955 0.33138 0.0
H422 H 0.83786 0.58468 0.7449 0.0
H423 H 0.68143 0.57389 0.70695 0.0
H424 H 0.71813 0.58338 0.65488 0.0
H425 H 0.79832 0.60291 0.62103 0.0
H426 H 0.95811 0.62461 0.66152 0.0
H427 H 0.91521 0.60059 0.71163 0.0
C428 C 0.81124 0.58396 0.72534 0.0
C429 C 0.75712 0.57926 0.72992 0.0
C430 C 0.83323 0.59116 0.69586 0.0
C431 C 0.72333 0.57776 0.70412 0.0
C432 C 0.74442 0.58335 0.67438 0.0
C433 C 0.82404 0.60276 0.64078 0.0
C434 C 0.88187 0.6162 0.63719 0.0
C435 C 0.80001 0.59159 0.67009 0.0
C436 C 0.91346 0.61377 0.66311 0.0
C437 C 0.88916 0.60069 0.69201 0.0
H438 H 0.62615 1.08359 0.59463 0.0
H439 H 0.73853 1.01613 0.57489 0.0
H440 H 0.75103 1.00462 0.63017 0.0
H441 H 0.73199 1.01663 0.68454 0.0
H442 H 0.61389 1.07829 0.70269 0.0
H443 H 0.6024 1.08954 0.64788 0.0
C444 C 0.65353 1.06644 0.60234 0.0
C445 C 0.68181 1.05133 0.58052 0.0
C446 C 0.65981 1.05916 0.63406 0.0
C447 C 0.7163 1.02826 0.59108 0.0
C448 C 0.72352 1.02174 0.62275 0.0
C449 C 0.70322 1.0319 0.67655 0.0
C450 C 0.67496 1.04776 0.69818 0.0
C451 C 0.69566 1.0373 0.64454 0.0
C452 C 0.63785 1.06745 0.687 0.0
C453 C 0.63074 1.0735 0.65548 0.0
H454 H 0.69724 0.52303 0.92521 0.0
H455 H 0.69568 0.68321 0.91567 0.0
H456 H 0.70092 0.69527 0.97175 0.0
H457 H 0.71265 0.66374 0.02358 0.0
H458 H 0.72347 0.50843 0.03318 0.0
H459 H 0.7084 0.49105 0.9774 0.0
C460 C 0.69691 0.55988 0.93555 0.0
C461 C 0.69512 0.60174 0.91644 0.0
C462 C 0.70251 0.56781 0.96789 0.0
C463 C 0.69643 0.6502 0.92999 0.0
C464 C 0.69973 0.65724 0.96204 0.0
C465 C 0.71111 0.6258 0.01345 0.0
C466 C 0.71904 0.58736 0.03253 0.0
C467 C 0.70382 0.61689 0.98124 0.0
C468 C 0.71779 0.53882 0.01899 0.0
C469 C 0.70899 0.52879 0.98709 0.0
H470 H 1.12509 0.49255 0.25192 0.0
H471 H 0.21769 0.68001 0.25446 0.0
H472 H 0.20065 0.67973 0.30913 0.0
H473 H 0.16077 0.62749 0.35652 0.0
H474 H 1.07615 0.44022 0.35644 0.0
H475 H 1.08718 0.43946 0.30091 0.0
C476 C 1.14136 0.53323 0.26447 0.0
C477 C 0.17288 0.58622 0.2489 0.0
C478 C 1.13249 0.53297 0.29652 0.0
C479 C 0.19383 0.63852 0.2657 0.0
C480 C 0.18393 0.6385 0.29708 0.0
C481 C 1.14537 0.58628 0.34471 0.0
C482 C 1.11769 0.53404 0.3613 0.0
C483 C 0.15375 0.5861 0.31282 0.0
C484 C 1.09676 0.48135 0.34471 0.0
C485 C 1.10359 0.48081 0.31277 0.0
loop_
_geom_bond_atom_site_label_1
_geom_bond_atom_site_label_2
_geom_bond_distance
_geom_bond_site_symmetry_2
_ccdc_geom_bond_type
Eu0 C9 2.828 . S
Eu0 O11 2.392 1_655 S
Eu0 O13 2.418 . S
Eu0 O18 2.373 . S
Eu0 O21 2.488 . S
Eu0 O22 2.471 . S
Eu0 O23 2.349 . S
Eu1 O10 2.373 . S
Eu1 O14 2.488 . S
Eu1 O15 2.471 . S
Eu1 O16 2.349 . S
Eu1 O19 2.392 1_455 S
Eu1 O20 2.418 . S
Eu1 C30 2.828 . S
C2 O20 1.244 . S
C2 O23 1.265 1_455 S
C3 C4 1.379 . S
C3 C7 1.373 . S
C3 C9 1.505 . S
C4 C3 1.379 . S
C4 C6 1.369 . S
C4 H32 0.930 . S
C5 C7 1.383 . S
C5 C8 1.382 . S
C5 H33 0.930 . S
C6 C4 1.369 . S
C6 C8 1.392 . S
C6 H34 0.930 . S
C7 C3 1.373 . S
C7 C5 1.383 . S
C7 H35 0.931 . S
C8 C5 1.382 . S
C8 C6 1.392 . S
C9 Eu0 2.828 . S
C9 C3 1.505 . S
C9 O21 1.249 . S
C9 O22 1.244 . S
O10 Eu1 2.373 . S
O10 C12 1.258 . S
O11 Eu0 2.392 1_455 S
O11 C12 1.242 . S
C12 O10 1.258 . S
C12 O11 1.242 . S
O13 Eu0 2.418 . S
O13 C17 1.244 1_655 S
O14 Eu1 2.488 . S
O14 C30 1.249 . S
O15 Eu1 2.471 . S
O15 C30 1.244 . S
O16 Eu1 2.349 . S
O16 C17 1.265 . S
C17 O13 1.244 1_455 S
C17 O16 1.265 . S
O18 Eu0 2.373 . S
O18 C31 1.258 . S
O19 Eu1 2.392 1_655 S
O19 C31 1.242 . S
O20 Eu1 2.418 . S
O20 C2 1.244 . S
O21 Eu0 2.488 . S
O21 C9 1.249 . S
O22 Eu0 2.471 . S
O22 C9 1.244 . S
O23 Eu0 2.349 . S
O23 C2 1.265 1_655 S
C24 C25 1.379 . S
C24 C28 1.373 . S
C24 C30 1.505 . S
C25 C24 1.379 . S
C25 C27 1.369 . S
C25 H36 0.930 . S
C26 C28 1.383 . S
C26 C29 1.382 . S
C26 H37 0.930 . S
C27 C25 1.369 . S
C27 C29 1.392 . S
C27 H38 0.930 . S
C28 C24 1.373 . S
C28 C26 1.383 . S
C28 H39 0.931 . S
C29 C26 1.382 . S
C29 C27 1.392 . S
C30 Eu1 2.828 . S
C30 O14 1.249 . S
C30 O15 1.244 . S
C30 C24 1.505 . S
C31 O18 1.258 . S
C31 O19 1.242 . S
H32 C4 0.930 . S
H33 C5 0.930 . S
H34 C6 0.930 . S
H35 C7 0.931 . S
H36 C25 0.930 . S
H37 C26 0.930 . S
H38 C27 0.930 . S
H39 C28 0.931 . S
Eu40 C49 2.828 . S
Eu40 O51 2.392 1_565 S
Eu40 O53 2.418 . S
Eu40 O58 2.373 . S
Eu40 O61 2.488 . S
Eu40 O62 2.471 . S
Eu40 O63 2.349 1_565 S
Eu41 O50 2.373 . S
Eu41 O54 2.488 . S
Eu41 O55 2.471 . S
Eu41 O56 2.349 . S
Eu41 O59 2.392 1_545 S
Eu41 O60 2.418 . S
Eu41 C70 2.828 . S
C42 O60 1.244 . S
C42 O63 1.265 . S
C43 C44 1.379 . S
C43 C47 1.373 . S
C43 C49 1.505 . S
C44 C43 1.379 . S
C44 C46 1.369 . S
C44 H72 0.930 . S
C45 C47 1.383 . S
C45 C48 1.382 . S
C45 H73 0.930 . S
C46 C44 1.369 . S
C46 C48 1.392 . S
C46 H74 0.930 . S
C47 C43 1.373 . S
C47 C45 1.383 . S
C47 H75 0.931 . S
C48 C45 1.382 . S
C48 C46 1.392 . S
C49 Eu40 2.828 . S
C49 C43 1.505 . S
C49 O61 1.249 . S
C49 O62 1.244 . S
O50 Eu41 2.373 . S
O50 C52 1.258 . S
O51 Eu40 2.392 1_545 S
O51 C52 1.242 . S
C52 O50 1.258 . S
C52 O51 1.242 . S
O53 Eu40 2.418 . S
O53 C57 1.244 1_565 S
O54 Eu41 2.488 . S
O54 C70 1.249 . S
O55 Eu41 2.471 . S
O55 C70 1.244 . S
O56 Eu41 2.349 . S
O56 C57 1.265 . S
C57 O53 1.244 1_545 S
C57 O56 1.265 . S
O58 Eu40 2.373 . S
O58 C71 1.258 . S
O59 Eu41 2.392 1_565 S
O59 C71 1.242 . S
O60 Eu41 2.418 . S
O60 C42 1.244 . S
O61 Eu40 2.488 . S
O61 C49 1.249 . S
O62 Eu40 2.471 . S
O62 C49 1.244 . S
O63 Eu40 2.349 1_545 S
O63 C42 1.265 . S
C64 C65 1.379 . S
C64 C68 1.373 . S
C64 C70 1.505 . S
C65 C64 1.379 . S
C65 C67 1.369 . S
C65 H76 0.930 . S
C66 C68 1.383 . S
C66 C69 1.382 . S
C66 H77 0.930 . S
C67 C65 1.369 . S
C67 C69 1.392 . S
C67 H78 0.930 . S
C68 C64 1.373 . S
C68 C66 1.383 . S
C68 H79 0.931 . S
C69 C66 1.382 . S
C69 C67 1.392 . S
C70 Eu41 2.828 . S
C70 O54 1.249 . S
C70 O55 1.244 . S
C70 C64 1.505 . S
C71 O58 1.258 . S
C71 O59 1.242 . S
H72 C44 0.930 . S
H73 C45 0.930 . S
H74 C46 0.930 . S
H75 C47 0.931 . S
H76 C65 0.930 . S
H77 C66 0.930 . S
H78 C67 0.930 . S
H79 C68 0.931 . S
Eu80 C89 2.828 . S
Eu80 O91 2.392 . S
Eu80 O93 2.418 . S
Eu80 O98 2.373 . S
Eu80 O101 2.488 . S
Eu80 O102 2.471 . S
Eu80 O103 2.349 . S
Eu81 O90 2.373 . S
Eu81 O94 2.488 . S
Eu81 O95 2.471 . S
Eu81 O96 2.349 . S
Eu81 O99 2.392 . S
Eu81 O100 2.418 . S
Eu81 C110 2.828 . S
C82 O100 1.244 . S
C82 O103 1.265 . S
C83 C84 1.379 . S
C83 C87 1.373 . S
C83 C89 1.505 . S
C84 C83 1.379 . S
C84 C86 1.369 . S
C84 H112 0.930 . S
C85 C87 1.383 . S
C85 C88 1.382 . S
C85 H113 0.930 . S
C86 C84 1.369 . S
C86 C88 1.392 . S
C86 H114 0.930 . S
C87 C83 1.373 . S
C87 C85 1.383 . S
C87 H115 0.931 . S
C88 C85 1.382 . S
C88 C86 1.392 . S
C89 Eu80 2.828 . S
C89 C83 1.505 . S
C89 O101 1.249 . S
C89 O102 1.244 . S
O90 Eu81 2.373 . S
O90 C92 1.258 . S
O91 Eu80 2.392 . S
O91 C92 1.242 . S
C92 O90 1.258 . S
C92 O91 1.242 . S
O93 Eu80 2.418 . S
O93 C97 1.244 . S
O94 Eu81 2.488 . S
O94 C110 1.249 . S
O95 Eu81 2.471 . S
O95 C110 1.244 . S
O96 Eu81 2.349 . S
O96 C97 1.265 . S
C97 O93 1.244 . S
C97 O96 1.265 . S
O98 Eu80 2.373 . S
O98 C111 1.258 . S
O99 Eu81 2.392 . S
O99 C111 1.242 . S
O100 Eu81 2.418 . S
O100 C82 1.244 . S
O101 Eu80 2.488 . S
O101 C89 1.249 . S
O102 Eu80 2.471 . S
O102 C89 1.244 . S
O103 Eu80 2.349 . S
O103 C82 1.265 . S
C104 C105 1.379 . S
C104 C108 1.373 . S
C104 C110 1.505 . S
C105 C104 1.379 . S
C105 C107 1.369 . S
C105 H116 0.930 . S
C106 C108 1.383 . S
C106 C109 1.382 . S
C106 H117 0.930 . S
C107 C105 1.369 . S
C107 C109 1.392 . S
C107 H118 0.930 . S
C108 C104 1.373 . S
C108 C106 1.383 . S
C108 H119 0.931 . S
C109 C106 1.382 . S
C109 C107 1.392 . S
C110 Eu81 2.828 . S
C110 O94 1.249 . S
C110 O95 1.244 . S
C110 C104 1.505 . S
C111 O98 1.258 . S
C111 O99 1.242 . S
H112 C84 0.930 . S
H113 C85 0.930 . S
H114 C86 0.930 . S
H115 C87 0.931 . S
H116 C105 0.930 . S
H117 C106 0.930 . S
H118 C107 0.930 . S
H119 C108 0.931 . S
H120 C127 0.929 . S
H121 C130 0.930 1_565 S
H122 C132 0.929 . S
H123 C124 0.969 . S
C124 H123 0.969 . S
C124 O125 1.550 . S
C124 H126 0.973 . S
O125 C124 1.550 . S
O125 C131 1.412 1_565 S
H126 C124 0.973 . S
C127 H120 0.929 . S
C127 C128 1.400 . S
C127 C129 1.364 . S
C128 C127 1.400 . S
C128 C132 1.377 . S
C129 C127 1.364 . S
C129 C130 1.374 . S
C130 H121 0.930 1_545 S
C130 C129 1.374 . S
C130 C131 1.383 . S
C131 O125 1.412 1_545 S
C131 C130 1.383 . S
C131 C132 1.394 . S
C132 H122 0.929 . S
C132 C128 1.377 . S
C132 C131 1.394 . S
H133 C140 0.929 . S
H134 C143 0.930 . S
H135 C145 0.929 . S
H136 C137 0.969 . S
C137 H136 0.969 . S
C137 O138 1.550 . S
C137 H139 0.973 . S
O138 C137 1.550 . S
O138 C144 1.412 . S
H139 C137 0.973 . S
C140 H133 0.929 . S
C140 C141 1.400 . S
C140 C142 1.364 . S
C141 C140 1.400 . S
C141 C145 1.377 . S
C142 C140 1.364 . S
C142 C143 1.374 . S
C143 H134 0.930 . S
C143 C142 1.374 . S
C143 C144 1.383 . S
C144 O138 1.412 . S
C144 C143 1.383 . S
C144 C145 1.394 . S
C145 H135 0.929 . S
C145 C141 1.377 . S
C145 C144 1.394 . S
H146 C153 0.929 1_655 S
H147 C156 0.930 . S
H148 C158 0.929 . S
H149 C150 0.969 . S
C150 H149 0.969 . S
C150 O151 1.550 . S
C150 H152 0.973 . S
O151 C150 1.550 . S
O151 C157 1.412 . S
H152 C150 0.973 . S
C153 H146 0.929 1_455 S
C153 C154 1.400 . S
C153 C155 1.364 . S
C154 C153 1.400 . S
C154 C158 1.377 . S
C155 C153 1.364 . S
C155 C156 1.374 . S
C156 H147 0.930 . S
C156 C155 1.374 . S
C156 C157 1.383 . S
C157 O151 1.412 . S
C157 C156 1.383 . S
C157 C158 1.394 . S
C158 H148 0.929 . S
C158 C154 1.377 . S
C158 C157 1.394 . S
H159 C166 0.929 1_655 S
H160 C169 0.930 . S
H161 C171 0.929 . S
H162 C163 0.969 . S
C163 H162 0.969 . S
C163 O164 1.550 . S
C163 H165 0.973 . S
O164 C163 1.550 . S
O164 C170 1.412 . S
H165 C163 0.973 . S
C166 H159 0.929 1_455 S
C166 C167 1.400 . S
C166 C168 1.364 . S
C167 C166 1.400 . S
C167 C171 1.377 . S
C168 C166 1.364 . S
C168 C169 1.374 . S
C169 H160 0.930 . S
C169 C168 1.374 . S
C169 C170 1.383 . S
C170 O164 1.412 . S
C170 C169 1.383 . S
C170 C171 1.394 . S
C171 H161 0.929 . S
C171 C167 1.377 . S
C171 C170 1.394 . S
H172 C179 0.929 . S
H173 C182 0.930 . S
H174 C184 0.929 . S
H175 C176 0.969 . S
C176 H175 0.969 . S
C176 O177 1.550 . S
C176 H178 0.973 . S
O177 C176 1.550 . S
O177 C183 1.412 . S
H178 C176 0.973 . S
C179 H172 0.929 . S
C179 C180 1.400 . S
C179 C181 1.364 1_565 S
C180 C179 1.400 . S
C180 C184 1.377 1_565 S
C181 C179 1.364 1_545 S
C181 C182 1.374 . S
C182 H173 0.930 . S
C182 C181 1.374 . S
C182 C183 1.383 . S
C183 O177 1.412 . S
C183 C182 1.383 . S
C183 C184 1.394 . S
C184 H174 0.929 . S
C184 C180 1.377 1_545 S
C184 C183 1.394 . S
H185 C192 0.929 . S
H186 C195 0.930 . S
H187 C197 0.929 . S
H188 C189 0.969 . S
C189 H188 0.969 . S
C189 O190 1.550 . S
C189 H191 0.973 . S
O190 C189 1.550 . S
O190 C196 1.412 . S
H191 C189 0.973 . S
C192 H185 0.929 . S
C192 C193 1.400 . S
C192 C194 1.364 . S
C193 C192 1.400 . S
C193 C197 1.377 . S
C194 C192 1.364 . S
C194 C195 1.374 . S
C195 H186 0.930 . S
C195 C194 1.374 . S
C195 C196 1.383 . S
C196 O190 1.412 . S
C196 C195 1.383 . S
C196 C197 1.394 . S
C197 H187 0.929 . S
C197 C193 1.377 . S
C197 C196 1.394 . S
H198 C204 0.930 . S
H199 C207 0.930 . S
H200 C208 0.930 . S
H201 C209 0.930 . S
H202 C212 0.930 . S
H203 C213 0.930 . S
C204 H198 0.930 . S
C204 C205 1.355 . S
C204 C206 1.415 . S
C205 C204 1.355 . S
C205 C207 1.419 . S
C206 C204 1.415 . S
C206 C211 1.425 . S
C206 C213 1.409 . S
C207 H199 0.930 . S
C207 C205 1.419 . S
C207 C208 1.362 . S
C208 H200 0.930 . S
C208 C207 1.362 . S
C208 C211 1.409 . S
C209 H201 0.930 . S
C209 C210 1.355 . S
C209 C211 1.415 . S
C210 C209 1.355 . S
C210 C212 1.419 . S
C211 C206 1.425 . S
C211 C208 1.409 . S
C211 C209 1.415 . S
C212 H202 0.930 . S
C212 C210 1.419 . S
C212 C213 1.362 . S
C213 H203 0.930 . S
C213 C206 1.409 . S
C213 C212 1.362 . S
H214 C220 0.930 . S
H215 C223 0.930 . S
H216 C224 0.930 . S
H217 C225 0.930 . S
H218 C228 0.930 . S
H219 C229 0.930 . S
C220 H214 0.930 . S
C220 C221 1.355 . S
C220 C222 1.415 . S
C221 C220 1.355 . S
C221 C223 1.419 . S
C222 C220 1.415 . S
C222 C227 1.425 . S
C222 C229 1.409 . S
C223 H215 0.930 . S
C223 C221 1.419 . S
C223 C224 1.362 . S
C224 H216 0.930 . S
C224 C223 1.362 . S
C224 C227 1.409 . S
C225 H217 0.930 . S
C225 C226 1.355 . S
C225 C227 1.415 . S
C226 C225 1.355 . S
C226 C228 1.419 . S
C227 C222 1.425 . S
C227 C224 1.409 . S
C227 C225 1.415 . S
C228 H218 0.930 . S
C228 C226 1.419 . S
C228 C229 1.362 . S
C229 H219 0.930 . S
C229 C222 1.409 . S
C229 C228 1.362 . S
H230 C236 0.930 . S
H231 C239 0.930 . S
H232 C240 0.930 . S
H233 C241 0.930 . S
H234 C244 0.930 . S
H235 C245 0.930 . S
C236 H230 0.930 . S
C236 C237 1.355 . S
C236 C238 1.415 . S
C237 C236 1.355 . S
C237 C239 1.419 . S
C238 C236 1.415 . S
C238 C243 1.425 . S
C238 C245 1.409 . S
C239 H231 0.930 . S
C239 C237 1.419 . S
C239 C240 1.362 . S
C240 H232 0.930 . S
C240 C239 1.362 . S
C240 C243 1.409 . S
C241 H233 0.930 . S
C241 C242 1.355 . S
C241 C243 1.415 . S
C242 C241 1.355 . S
C242 C244 1.419 . S
C243 C238 1.425 . S
C243 C240 1.409 . S
C243 C241 1.415 . S
C244 H234 0.930 . S
C244 C242 1.419 . S
C244 C245 1.362 . S
C245 H235 0.930 . S
C245 C238 1.409 . S
C245 C244 1.362 . S
H246 C252 0.930 . S
H247 C255 0.930 . S
H248 C256 0.930 . S
H249 C257 0.930 . S
H250 C260 0.930 . S
H251 C261 0.930 . S
C252 H246 0.930 . S
C252 C253 1.355 . S
C252 C254 1.415 . S
C253 C252 1.355 . S
C253 C255 1.419 . S
C254 C252 1.415 . S
C254 C259 1.425 . S
C254 C261 1.409 . S
C255 H247 0.930 . S
C255 C253 1.419 . S
C255 C256 1.362 . S
C256 H248 0.930 . S
C256 C255 1.362 . S
C256 C259 1.409 . S
C257 H249 0.930 . S
C257 C258 1.355 . S
C257 C259 1.415 . S
C258 C257 1.355 . S
C258 C260 1.419 . S
C259 C254 1.425 . S
C259 C256 1.409 . S
C259 C257 1.415 . S
C260 H250 0.930 . S
C260 C258 1.419 . S
C260 C261 1.362 . S
C261 H251 0.930 . S
C261 C254 1.409 . S
C261 C260 1.362 . S
H262 C268 0.930 . S
H263 C271 0.930 . S
H264 C272 0.930 . S
H265 C273 0.930 . S
H266 C276 0.930 . S
H267 C277 0.930 . S
C268 H262 0.930 . S
C268 C269 1.355 . S
C268 C270 1.415 . S
C269 C268 1.355 . S
C269 C271 1.419 . S
C270 C268 1.415 . S
C270 C275 1.425 . S
C270 C277 1.409 . S
C271 H263 0.930 . S
C271 C269 1.419 . S
C271 C272 1.362 . S
C272 H264 0.930 . S
C272 C271 1.362 . S
C272 C275 1.409 . S
C273 H265 0.930 . S
C273 C274 1.355 . S
C273 C275 1.415 . S
C274 C273 1.355 . S
C274 C276 1.419 . S
C275 C270 1.425 . S
C275 C272 1.409 . S
C275 C273 1.415 . S
C276 H266 0.930 . S
C276 C274 1.419 . S
C276 C277 1.362 . S
C277 H267 0.930 . S
C277 C270 1.409 . S
C277 C276 1.362 . S
H278 C284 0.930 . S
H279 C287 0.930 . S
H280 C288 0.930 . S
H281 C289 0.930 . S
H282 C292 0.930 . S
H283 C293 0.930 . S
C284 H278 0.930 . S
C284 C285 1.355 . S
C284 C286 1.415 . S
C285 C284 1.355 . S
C285 C287 1.419 . S
C286 C284 1.415 . S
C286 C291 1.425 . S
C286 C293 1.409 . S
C287 H279 0.930 . S
C287 C285 1.419 . S
C287 C288 1.362 . S
C288 H280 0.930 . S
C288 C287 1.362 . S
C288 C291 1.409 . S
C289 H281 0.930 . S
C289 C290 1.355 . S
C289 C291 1.415 . S
C290 C289 1.355 . S
C290 C292 1.419 . S
C291 C286 1.425 . S
C291 C288 1.409 . S
C291 C289 1.415 . S
C292 H282 0.930 . S
C292 C290 1.419 . S
C292 C293 1.362 . S
C293 H283 0.930 . S
C293 C286 1.409 . S
C293 C292 1.362 . S
H294 C300 0.930 . S
H295 C303 0.930 . S
H296 C304 0.930 . S
H297 C305 0.930 . S
H298 C308 0.930 . S
H299 C309 0.930 . S
C300 H294 0.930 . S
C300 C301 1.355 . S
C300 C302 1.415 . S
C301 C300 1.355 . S
C301 C303 1.419 . S
C302 C300 1.415 . S
C302 C307 1.425 . S
C302 C309 1.409 . S
C303 H295 0.930 . S
C303 C301 1.419 . S
C303 C304 1.362 . S
C304 H296 0.930 . S
C304 C303 1.362 . S
C304 C307 1.409 . S
C305 H297 0.930 . S
C305 C306 1.355 . S
C305 C307 1.415 . S
C306 C305 1.355 . S
C306 C308 1.419 . S
C307 C302 1.425 . S
C307 C304 1.409 . S
C307 C305 1.415 . S
C308 H298 0.930 . S
C308 C306 1.419 . S
C308 C309 1.362 . S
C309 H299 0.930 . S
C309 C302 1.409 . S
C309 C308 1.362 . S
H310 C316 0.930 . S
H311 C319 0.930 . S
H312 C320 0.930 . S
H313 C321 0.930 1_455 S
H314 C324 0.930 1_455 S
H315 C325 0.930 . S
C316 H310 0.930 . S
C316 C317 1.355 . S
C316 C318 1.415 . S
C317 C316 1.355 . S
C317 C319 1.419 . S
C318 C316 1.415 . S
C318 C323 1.425 . S
C318 C325 1.409 . S
C319 H311 0.930 . S
C319 C317 1.419 . S
C319 C320 1.362 . S
C320 H312 0.930 . S
C320 C319 1.362 . S
C320 C323 1.409 . S
C321 H313 0.930 1_655 S
C321 C322 1.355 1_655 S
C321 C323 1.415 . S
C322 C321 1.355 1_455 S
C322 C324 1.419 1_455 S
C323 C318 1.425 . S
C323 C320 1.409 . S
C323 C321 1.415 . S
C324 H314 0.930 1_655 S
C324 C322 1.419 1_655 S
C324 C325 1.362 . S
C325 H315 0.930 . S
C325 C318 1.409 . S
C325 C324 1.362 . S
H326 C332 0.930 . S
H327 C335 0.930 . S
H328 C336 0.930 . S
H329 C337 0.930 . S
H330 C340 0.930 . S
H331 C341 0.930 . S
C332 H326 0.930 . S
C332 C333 1.355 . S
C332 C334 1.415 . S
C333 C332 1.355 . S
C333 C335 1.419 . S
C334 C332 1.415 . S
C334 C339 1.425 . S
C334 C341 1.409 . S
C335 H327 0.930 . S
C335 C333 1.419 . S
C335 C336 1.362 . S
C336 H328 0.930 . S
C336 C335 1.362 . S
C336 C339 1.409 . S
C337 H329 0.930 . S
C337 C338 1.355 . S
C337 C339 1.415 . S
C338 C337 1.355 . S
C338 C340 1.419 . S
C339 C334 1.425 . S
C339 C336 1.409 . S
C339 C337 1.415 . S
C340 H330 0.930 . S
C340 C338 1.419 . S
C340 C341 1.362 . S
C341 H331 0.930 . S
C341 C334 1.409 . S
C341 C340 1.362 . S
H342 C348 0.930 . S
H343 C351 0.930 . S
H344 C352 0.930 . S
H345 C353 0.930 . S
H346 C356 0.930 . S
H347 C357 0.930 . S
C348 H342 0.930 . S
C348 C349 1.355 . S
C348 C350 1.415 . S
C349 C348 1.355 . S
C349 C351 1.419 . S
C350 C348 1.415 . S
C350 C355 1.425 . S
C350 C357 1.409 . S
C351 H343 0.930 . S
C351 C349 1.419 . S
C351 C352 1.362 . S
C352 H344 0.930 . S
C352 C351 1.362 . S
C352 C355 1.409 . S
C353 H345 0.930 . S
C353 C354 1.355 . S
C353 C355 1.415 . S
C354 C353 1.355 . S
C354 C356 1.419 . S
C355 C350 1.425 . S
C355 C352 1.409 . S
C355 C353 1.415 . S
C356 H346 0.930 . S
C356 C354 1.419 . S
C356 C357 1.362 . S
C357 H347 0.930 . S
C357 C350 1.409 . S
C357 C356 1.362 . S
H358 C364 0.930 . S
H359 C367 0.930 . S
H360 C368 0.930 . S
H361 C369 0.930 . S
H362 C372 0.930 . S
H363 C373 0.930 . S
C364 H358 0.930 . S
C364 C365 1.355 . S
C364 C366 1.415 . S
C365 C364 1.355 . S
C365 C367 1.419 . S
C366 C364 1.415 . S
C366 C371 1.425 . S
C366 C373 1.409 . S
C367 H359 0.930 . S
C367 C365 1.419 . S
C367 C368 1.362 . S
C368 H360 0.930 . S
C368 C367 1.362 . S
C368 C371 1.409 . S
C369 H361 0.930 . S
C369 C370 1.355 . S
C369 C371 1.415 . S
C370 C369 1.355 . S
C370 C372 1.419 . S
C371 C366 1.425 . S
C371 C368 1.409 . S
C371 C369 1.415 . S
C372 H362 0.930 . S
C372 C370 1.419 . S
C372 C373 1.362 . S
C373 H363 0.930 . S
C373 C366 1.409 . S
C373 C372 1.362 . S
H374 C380 0.930 . S
H375 C383 0.930 . S
H376 C384 0.930 . S
H377 C385 0.930 . S
H378 C388 0.930 . S
H379 C389 0.930 . S
C380 H374 0.930 . S
C380 C381 1.355 . S
C380 C382 1.415 . S
C381 C380 1.355 . S
C381 C383 1.419 . S
C382 C380 1.415 . S
C382 C387 1.425 . S
C382 C389 1.409 . S
C383 H375 0.930 . S
C383 C381 1.419 . S
C383 C384 1.362 . S
C384 H376 0.930 . S
C384 C383 1.362 . S
C384 C387 1.409 . S
C385 H377 0.930 . S
C385 C386 1.355 . S
C385 C387 1.415 . S
C386 C385 1.355 . S
C386 C388 1.419 . S
C387 C382 1.425 . S
C387 C384 1.409 . S
C387 C385 1.415 . S
C388 H378 0.930 . S
C388 C386 1.419 . S
C388 C389 1.362 . S
C389 H379 0.930 . S
C389 C382 1.409 . S
C389 C388 1.362 . S
H390 C396 0.930 . S
H391 C399 0.930 . S
H392 C400 0.930 . S
H393 C401 0.930 . S
H394 C404 0.930 1_655 S
H395 C405 0.930 . S
C396 H390 0.930 . S
C396 C397 1.355 1_655 S
C396 C398 1.415 1_655 S
C397 C396 1.355 1_455 S
C397 C399 1.419 . S
C398 C396 1.415 1_455 S
C398 C403 1.425 . S
C398 C405 1.409 1_454 S
C399 H391 0.930 . S
C399 C397 1.419 . S
C399 C400 1.362 . S
C400 H392 0.930 . S
C400 C399 1.362 . S
C400 C403 1.409 . S
C401 H393 0.930 . S
C401 C402 1.355 . S
C401 C403 1.415 1_556 S
C402 C401 1.355 . S
C402 C404 1.419 . S
C403 C398 1.425 . S
C403 C400 1.409 . S
C403 C401 1.415 1_554 S
C404 H394 0.930 1_455 S
C404 C402 1.419 . S
C404 C405 1.362 1_455 S
C405 H395 0.930 . S
C405 C398 1.409 1_656 S
C405 C404 1.362 1_655 S
H406 C412 0.930 . S
H407 C415 0.930 . S
H408 C416 0.930 . S
H409 C417 0.930 1_565 S
H410 C420 0.930 . S
H411 C421 0.930 . S
C412 H406 0.930 . S
C412 C413 1.355 . S
C412 C414 1.415 . S
C413 C412 1.355 . S
C413 C415 1.419 1_545 S
C414 C412 1.415 . S
C414 C419 1.425 . S
C414 C421 1.409 . S
C415 H407 0.930 . S
C415 C413 1.419 1_565 S
C415 C416 1.362 . S
C416 H408 0.930 . S
C416 C415 1.362 . S
C416 C419 1.409 1_565 S
C417 H409 0.930 1_545 S
C417 C418 1.355 . S
C417 C419 1.415 . S
C418 C417 1.355 . S
C418 C420 1.419 . S
C419 C414 1.425 . S
C419 C416 1.409 1_545 S
C419 C417 1.415 . S
C420 H410 0.930 . S
C420 C418 1.419 . S
C420 C421 1.362 . S
C421 H411 0.930 . S
C421 C414 1.409 . S
C421 C420 1.362 . S
H422 C428 0.930 . S
H423 C431 0.930 . S
H424 C432 0.930 . S
H425 C433 0.930 . S
H426 C436 0.930 . S
H427 C437 0.930 . S
C428 H422 0.930 . S
C428 C429 1.355 . S
C428 C430 1.415 . S
C429 C428 1.355 . S
C429 C431 1.419 . S
C430 C428 1.415 . S
C430 C435 1.425 . S
C430 C437 1.409 . S
C431 H423 0.930 . S
C431 C429 1.419 . S
C431 C432 1.362 . S
C432 H424 0.930 . S
C432 C431 1.362 . S
C432 C435 1.409 . S
C433 H425 0.930 . S
C433 C434 1.355 . S
C433 C435 1.415 . S
C434 C433 1.355 . S
C434 C436 1.419 . S
C435 C430 1.425 . S
C435 C432 1.409 . S
C435 C433 1.415 . S
C436 H426 0.930 . S
C436 C434 1.419 . S
C436 C437 1.362 . S
C437 H427 0.930 . S
C437 C430 1.409 . S
C437 C436 1.362 . S
H438 C444 0.930 . S
H439 C447 0.930 . S
H440 C448 0.930 . S
H441 C449 0.930 1_565 S
H442 C452 0.930 . S
H443 C453 0.930 . S
C444 H438 0.930 . S
C444 C445 1.355 . S
C444 C446 1.415 . S
C445 C444 1.355 . S
C445 C447 1.419 1_545 S
C446 C444 1.415 . S
C446 C451 1.425 . S
C446 C453 1.409 . S
C447 H439 0.930 . S
C447 C445 1.419 1_565 S
C447 C448 1.362 . S
C448 H440 0.930 . S
C448 C447 1.362 . S
C448 C451 1.409 1_565 S
C449 H441 0.930 1_545 S
C449 C450 1.355 . S
C449 C451 1.415 . S
C450 C449 1.355 . S
C450 C452 1.419 . S
C451 C446 1.425 . S
C451 C448 1.409 1_545 S
C451 C449 1.415 . S
C452 H442 0.930 . S
C452 C450 1.419 . S
C452 C453 1.362 . S
C453 H443 0.930 . S
C453 C446 1.409 . S
C453 C452 1.362 . S
H454 C460 0.930 . S
H455 C463 0.930 . S
H456 C464 0.930 . S
H457 C465 0.930 . S
H458 C468 0.930 . S
H459 C469 0.930 . S
C460 H454 0.930 . S
C460 C461 1.355 . S
C460 C462 1.415 . S
C461 C460 1.355 . S
C461 C463 1.419 . S
C462 C460 1.415 . S
C462 C467 1.425 . S
C462 C469 1.409 1_556 S
C463 H455 0.930 . S
C463 C461 1.419 . S
C463 C464 1.362 . S
C464 H456 0.930 . S
C464 C463 1.362 . S
C464 C467 1.409 . S
C465 H457 0.930 . S
C465 C466 1.355 . S
C465 C467 1.415 1_554 S
C466 C465 1.355 . S
C466 C468 1.419 . S
C467 C462 1.425 . S
C467 C464 1.409 . S
C467 C465 1.415 1_556 S
C468 H458 0.930 . S
C468 C466 1.419 . S
C468 C469 1.362 . S
C469 H459 0.930 . S
C469 C462 1.409 1_554 S
C469 C468 1.362 . S
H470 C476 0.930 . S
H471 C479 0.930 . S
H472 C480 0.930 1_655 S
H473 C481 0.930 . S
H474 C484 0.930 . S
H475 C485 0.930 . S
C476 H470 0.930 . S
C476 C477 1.355 . S
C476 C478 1.415 . S
C477 C476 1.355 . S
C477 C479 1.419 1_455 S
C478 C476 1.415 . S
C478 C483 1.425 . S
C478 C485 1.409 . S
C479 H471 0.930 . S
C479 C477 1.419 1_655 S
C479 C480 1.362 1_655 S
C480 H472 0.930 1_455 S
C480 C479 1.362 1_455 S
C480 C483 1.409 . S
C481 H473 0.930 . S
C481 C482 1.355 . S
C481 C483 1.415 . S
C482 C481 1.355 . S
C482 C484 1.419 . S
C483 C478 1.425 . S
C483 C480 1.409 . S
C483 C481 1.415 . S
C484 H474 0.930 . S
C484 C482 1.419 . S
C484 C485 1.362 . S
C485 H475 0.930 . S
C485 C478 1.409 . S
C485 C484 1.362 . S
C205 C12 3.033 . S
C210 C189 2.811 . S
C221 C52 2.928 . S
C226 C167 2.877 1_655 S
C237 C111 2.956 . S
C242 C180 2.903 . S
C253 C31 3.053 . S
C258 C193 2.992 . S
C274 C163 2.939 . S
C269 C71 3.168 . S
C290 C176 2.891 . S
C285 C92 3.132 . S
C301 C48 0.465 . S
C306 C141 0.319 . S
C317 C109 0.579 . S
C322 C154 0.303 . S
C333 C29 0.730 . S
C338 C124 0.548 . S
C354 C137 0.407 . S
C349 C69 0.674 . S
C370 C150 0.364 . S
C365 C88 0.559 . S
C381 C8 0.423 . S
C386 C128 0.252 . S
C402 C155 1.187 . S
C397 C17 1.169 . S
C413 C57 1.230 . S
C418 C129 1.233 . S
C429 C97 1.125 . S
C434 C142 1.205 . S
C450 C181 1.816 . S
C445 C42 1.747 . S
C466 C194 1.746 . S
C461 C82 1.756 . S
C477 C2 1.717 . S
C482 C168 1.792 . S
