# Generated by pormake.
# Topology ctn, (3,4)-cn, num edge types: 1
# Building blocks:
#     Node 0, Type 0, BuildingBlock: ESEHIV_clean_linker_0, # of connection points: 3
#     Node 1, Type 0, BuildingBlock: ESEHIV_clean_linker_0, # of connection points: 3
#     Node 2, Type 0, BuildingBlock: ESEHIV_clean_linker_0, # of connection points: 3
#     Node 3, Type 0, BuildingBlock: ESEHIV_clean_linker_0, # of connection points: 3
#     Node 4, Type 0, BuildingBlock: ESEHIV_clean_linker_0, # of connection points: 3
#     Node 5, Type 0, BuildingBlock: ESEHIV_clean_linker_0, # of connection points: 3
#     Node 6, Type 0, BuildingBlock: ESEHIV_clean_linker_0, # of connection points: 3
#     Node 7, Type 0, BuildingBlock: ESEHIV_clean_linker_0, # of connection points: 3
#     Node 8, Type 0, BuildingBlock: ESEHIV_clean_linker_0, # of connection points: 3
#     Node 9, Type 0, BuildingBlock: ESEHIV_clean_linker_0, # of connection points: 3
#     Node 10, Type 0, BuildingBlock: ESEHIV_clean_linker_0, # of connection points: 3
#     Node 11, Type 0, BuildingBlock: ESEHIV_clean_linker_0, # of connection points: 3
#     Node 12, Type 0, BuildingBlock: ESEHIV_clean_linker_0, # of connection points: 3
#     Node 13, Type 0, BuildingBlock: ESEHIV_clean_linker_0, # of connection points: 3
#     Node 14, Type 0, BuildingBlock: ESEHIV_clean_linker_0, # of connection points: 3
#     Node 15, Type 0, BuildingBlock: ESEHIV_clean_linker_0, # of connection points: 3
#     Node 16, Type 1, BuildingBlock: AZAVOO_clean_sbu_0, # of connection points: 4
#     Node 17, Type 1, BuildingBlock: AZAVOO_clean_sbu_0, # of connection points: 4
#     Node 18, Type 1, BuildingBlock: AZAVOO_clean_sbu_0, # of connection points: 4
#     Node 19, Type 1, BuildingBlock: AZAVOO_clean_sbu_0, # of connection points: 4
#     Node 20, Type 1, BuildingBlock: AZAVOO_clean_sbu_0, # of connection points: 4
#     Node 21, Type 1, BuildingBlock: AZAVOO_clean_sbu_0, # of connection points: 4
#     Node 22, Type 1, BuildingBlock: AZAVOO_clean_sbu_0, # of connection points: 4
#     Node 23, Type 1, BuildingBlock: AZAVOO_clean_sbu_0, # of connection points: 4
#     Node 24, Type 1, BuildingBlock: AZAVOO_clean_sbu_0, # of connection points: 4
#     Node 25, Type 1, BuildingBlock: AZAVOO_clean_sbu_0, # of connection points: 4
#     Node 26, Type 1, BuildingBlock: AZAVOO_clean_sbu_0, # of connection points: 4
#     Node 27, Type 1, BuildingBlock: AZAVOO_clean_sbu_0, # of connection points: 4
#     Edge 28, Type (0, 1), BuildingBlock: ZUJKAS_clean_linker_0, # of connection points: 2
#     Edge 29, Type (0, 1), BuildingBlock: ZUJKAS_clean_linker_0, # of connection points: 2
#     Edge 30, Type (0, 1), BuildingBlock: ZUJKAS_clean_linker_0, # of connection points: 2
#     Edge 31, Type (0, 1), BuildingBlock: ZUJKAS_clean_linker_0, # of connection points: 2
#     Edge 32, Type (0, 1), BuildingBlock: ZUJKAS_clean_linker_0, # of connection points: 2
#     Edge 33, Type (0, 1), BuildingBlock: ZUJKAS_clean_linker_0, # of connection points: 2
#     Edge 34, Type (0, 1), BuildingBlock: ZUJKAS_clean_linker_0, # of connection points: 2
#     Edge 35, Type (0, 1), BuildingBlock: ZUJKAS_clean_linker_0, # of connection points: 2
#     Edge 36, Type (0, 1), BuildingBlock: ZUJKAS_clean_linker_0, # of connection points: 2
#     Edge 37, Type (0, 1), BuildingBlock: ZUJKAS_clean_linker_0, # of connection points: 2
#     Edge 38, Type (0, 1), BuildingBlock: ZUJKAS_clean_linker_0, # of connection points: 2
#     Edge 39, Type (0, 1), BuildingBlock: ZUJKAS_clean_linker_0, # of connection points: 2
#     Edge 40, Type (0, 1), BuildingBlock: ZUJKAS_clean_linker_0, # of connection points: 2
#     Edge 41, Type (0, 1), BuildingBlock: ZUJKAS_clean_linker_0, # of connection points: 2
#     Edge 42, Type (0, 1), BuildingBlock: ZUJKAS_clean_linker_0, # of connection points: 2
#     Edge 43, Type (0, 1), BuildingBlock: ZUJKAS_clean_linker_0, # of connection points: 2
#     Edge 44, Type (0, 1), BuildingBlock: ZUJKAS_clean_linker_0, # of connection points: 2
#     Edge 45, Type (0, 1), BuildingBlock: ZUJKAS_clean_linker_0, # of connection points: 2
#     Edge 46, Type (0, 1), BuildingBlock: ZUJKAS_clean_linker_0, # of connection points: 2
#     Edge 47, Type (0, 1), BuildingBlock: ZUJKAS_clean_linker_0, # of connection points: 2
#     Edge 48, Type (0, 1), BuildingBlock: ZUJKAS_clean_linker_0, # of connection points: 2
#     Edge 49, Type (0, 1), BuildingBlock: ZUJKAS_clean_linker_0, # of connection points: 2
#     Edge 50, Type (0, 1), BuildingBlock: ZUJKAS_clean_linker_0, # of connection points: 2
#     Edge 51, Type (0, 1), BuildingBlock: ZUJKAS_clean_linker_0, # of connection points: 2
#     Edge 52, Type (0, 1), BuildingBlock: ZUJKAS_clean_linker_0, # of connection points: 2
#     Edge 53, Type (0, 1), BuildingBlock: ZUJKAS_clean_linker_0, # of connection points: 2
#     Edge 54, Type (0, 1), BuildingBlock: ZUJKAS_clean_linker_0, # of connection points: 2
#     Edge 55, Type (0, 1), BuildingBlock: ZUJKAS_clean_linker_0, # of connection points: 2
#     Edge 56, Type (0, 1), BuildingBlock: ZUJKAS_clean_linker_0, # of connection points: 2
#     Edge 57, Type (0, 1), BuildingBlock: ZUJKAS_clean_linker_0, # of connection points: 2
#     Edge 58, Type (0, 1), BuildingBlock: ZUJKAS_clean_linker_0, # of connection points: 2
#     Edge 59, Type (0, 1), BuildingBlock: ZUJKAS_clean_linker_0, # of connection points: 2
#     Edge 60, Type (0, 1), BuildingBlock: ZUJKAS_clean_linker_0, # of connection points: 2
#     Edge 61, Type (0, 1), BuildingBlock: ZUJKAS_clean_linker_0, # of connection points: 2
#     Edge 62, Type (0, 1), BuildingBlock: ZUJKAS_clean_linker_0, # of connection points: 2
#     Edge 63, Type (0, 1), BuildingBlock: ZUJKAS_clean_linker_0, # of connection points: 2
#     Edge 64, Type (0, 1), BuildingBlock: ZUJKAS_clean_linker_0, # of connection points: 2
#     Edge 65, Type (0, 1), BuildingBlock: ZUJKAS_clean_linker_0, # of connection points: 2
#     Edge 66, Type (0, 1), BuildingBlock: ZUJKAS_clean_linker_0, # of connection points: 2
#     Edge 67, Type (0, 1), BuildingBlock: ZUJKAS_clean_linker_0, # of connection points: 2
#     Edge 68, Type (0, 1), BuildingBlock: ZUJKAS_clean_linker_0, # of connection points: 2
#     Edge 69, Type (0, 1), BuildingBlock: ZUJKAS_clean_linker_0, # of connection points: 2
#     Edge 70, Type (0, 1), BuildingBlock: ZUJKAS_clean_linker_0, # of connection points: 2
#     Edge 71, Type (0, 1), BuildingBlock: ZUJKAS_clean_linker_0, # of connection points: 2
#     Edge 72, Type (0, 1), BuildingBlock: ZUJKAS_clean_linker_0, # of connection points: 2
#     Edge 73, Type (0, 1), BuildingBlock: ZUJKAS_clean_linker_0, # of connection points: 2
#     Edge 74, Type (0, 1), BuildingBlock: ZUJKAS_clean_linker_0, # of connection points: 2
#     Edge 75, Type (0, 1), BuildingBlock: ZUJKAS_clean_linker_0, # of connection points: 2
# Relax obj value: 0.001
# Max RMSD: 0.043
# Mean RMSD: 0.022
data_MOF--net-ctn--node1-AZAVOO_clean_sbu_0--node2-ESEHIV_clean_linker_0--edge1-ZUJKAS_clean_linker_0
_symmetry_space_group_name_H-M    P1
_symmetry_Int_Tables_number       1
_symmetry_cell_setting            triclinic
loop_
_symmetry_equiv_pos_as_xyz
'x, y, z'
_cell_length_a     67.457685
_cell_length_b     68.484239
_cell_length_c     68.363201
_cell_angle_alpha  90.054603
_cell_angle_beta   92.780058
_cell_angle_gamma 92.933591
loop_
_atom_site_label
_atom_site_type_symbol
_atom_site_fract_x
_atom_site_fract_y
_atom_site_fract_z
_atom_type_partial_charge
H0 H 0.01026 0.04703 0.02427 0.0
H1 H 0.04147 0.99552 0.03931 0.0
H2 H 0.05796 0.02998 0.98957 0.0
C3 C 0.02176 0.03706 0.02143 0.0
C4 C 0.03389 0.04059 0.00556 0.0
C5 C 0.0244 0.02092 0.03379 0.0
C6 C 0.03892 0.00771 0.02959 0.0
C7 C 0.05101 0.01083 0.01357 0.0
C8 C 0.04839 0.0273 0.00166 0.0
H9 H 0.31092 0.70106 0.25888 0.0
H10 H 0.33105 0.75139 0.22618 0.0
H11 H 0.27639 0.7198 0.20854 0.0
C12 C 0.30887 0.71112 0.24682 0.0
C13 C 0.29205 0.70851 0.23397 0.0
C14 C 0.32308 0.72654 0.24417 0.0
C15 C 0.32018 0.73951 0.22846 0.0
C16 C 0.3033 0.73726 0.21565 0.0
C17 C 0.28936 0.7217 0.21849 0.0
H18 H 0.97094 0.50522 0.07237 0.0
H19 H 0.00453 0.45718 0.05442 0.0
H20 H 0.95447 0.47456 0.01849 0.0
C21 C 0.97354 0.49394 0.0618 0.0
C22 C 0.96077 0.49145 0.04498 0.0
C23 C 0.98924 0.48151 0.06542 0.0
C24 C 0.99234 0.46672 0.05182 0.0
C25 C 0.97982 0.46409 0.03492 0.0
C26 C 0.96397 0.47638 0.03168 0.0
H27 H 0.6908 0.79489 0.21192 0.0
H28 H 0.74597 0.82262 0.19504 0.0
H29 H 0.71256 0.84892 0.23914 0.0
C30 C 0.70193 0.80684 0.21332 0.0
C31 C 0.69991 0.82165 0.22723 0.0
C32 C 0.71835 0.80721 0.20139 0.0
C33 C 0.73285 0.82266 0.20357 0.0
C34 C 0.73098 0.83776 0.21721 0.0
C35 C 0.71438 0.83716 0.22887 0.0
H36 H 0.01736 0.96434 0.47459 0.0
H37 H 0.0518 0.01681 0.46157 0.0
H38 H 0.07049 0.98028 0.50951 0.0
C39 C 0.03019 0.97422 0.47772 0.0
C40 C 0.04364 0.97017 0.49335 0.0
C41 C 0.03295 0.99103 0.46623 0.0
C42 C 0.04929 0.00409 0.47071 0.0
C43 C 0.06294 0.00033 0.4863 0.0
C44 C 0.05997 0.98334 0.49756 0.0
H45 H 0.17993 0.73592 0.77645 0.0
H46 H 0.23267 0.70906 0.7983 0.0
H47 H 0.20325 0.68876 0.74434 0.0
C48 C 0.19098 0.72515 0.77489 0.0
C49 C 0.18953 0.71239 0.75868 0.0
C50 C 0.20666 0.72424 0.78907 0.0
C51 C 0.22086 0.71019 0.78709 0.0
C52 C 0.21967 0.6972 0.77112 0.0
C53 C 0.20393 0.69837 0.75698 0.0
H54 H 0.93781 0.52611 0.48078 0.0
H55 H 0.99069 0.5395 0.44977 0.0
H56 H 0.95601 0.48622 0.4372 0.0
C57 C 0.9481 0.52224 0.46992 0.0
C58 C 0.94464 0.50472 0.45923 0.0
C59 C 0.96482 0.53476 0.46682 0.0
C60 C 0.97807 0.52967 0.45266 0.0
C61 C 0.97488 0.5123 0.44176 0.0
C62 C 0.95816 0.49991 0.44516 0.0
H63 H 0.775 0.78403 0.80837 0.0
H64 H 0.80658 0.80568 0.75907 0.0
H65 H 0.82637 0.75527 0.79028 0.0
C66 C 0.78703 0.78295 0.79855 0.0
C67 C 0.80044 0.768 0.80126 0.0
C68 C 0.78901 0.79656 0.78331 0.0
C69 C 0.80481 0.79519 0.77079 0.0
C70 C 0.81834 0.78035 0.77319 0.0
C71 C 0.81601 0.76678 0.78842 0.0
H72 H 0.27234 0.28034 0.30254 0.0
H73 H 0.30362 0.30658 0.25508 0.0
H74 H 0.32516 0.2552 0.28334 0.0
C75 C 0.28449 0.28048 0.29273 0.0
C76 C 0.29874 0.26625 0.29485 0.0
C77 C 0.28599 0.29507 0.27834 0.0
C78 C 0.30191 0.29506 0.2658 0.0
C79 C 0.31611 0.28074 0.26742 0.0
C80 C 0.31444 0.26644 0.28208 0.0
H81 H 0.46981 0.00227 0.57449 0.0
H82 H 0.50629 0.95692 0.5554 0.0
H83 H 0.45323 0.97011 0.52162 0.0
C84 C 0.4726 0.99085 0.56414 0.0
C85 C 0.45954 0.98757 0.54766 0.0
C86 C 0.4896 0.97995 0.56697 0.0
C87 C 0.49329 0.96547 0.55323 0.0
C88 C 0.4803 0.96182 0.53679 0.0
C89 C 0.46354 0.97307 0.53404 0.0
H90 H 0.19898 0.28847 0.71293 0.0
H91 H 0.24785 0.32213 0.68928 0.0
H92 H 0.21829 0.34401 0.73838 0.0
C93 C 0.20885 0.30145 0.713 0.0
C94 C 0.20644 0.3163 0.72677 0.0
C95 C 0.22387 0.30323 0.69944 0.0
C96 C 0.23661 0.32018 0.69999 0.0
C97 C 0.23487 0.33487 0.71407 0.0
C98 C 0.21957 0.33292 0.72725 0.0
H99 H 0.81812 0.19928 0.75276 0.0
H100 H 0.83774 0.24935 0.71951 0.0
H101 H 0.78334 0.21705 0.70221 0.0
C102 C 0.81578 0.20934 0.74074 0.0
C103 C 0.79908 0.20631 0.72781 0.0
C104 C 0.82981 0.22486 0.73791 0.0
C105 C 0.82699 0.23737 0.72182 0.0
C106 C 0.81039 0.23453 0.70871 0.0
C107 C 0.79649 0.219 0.7119 0.0
H108 H 0.51091 0.54374 0.5231 0.0
H109 H 0.54138 0.49175 0.53789 0.0
H110 H 0.56105 0.52854 0.49091 0.0
C111 C 0.52241 0.53375 0.52035 0.0
C112 C 0.53537 0.53784 0.50523 0.0
C113 C 0.5246 0.51731 0.53239 0.0
C114 C 0.53978 0.50462 0.52886 0.0
C115 C 0.5529 0.50841 0.51377 0.0
C116 C 0.55051 0.52504 0.50201 0.0
H117 H 0.51379 0.46482 0.97029 0.0
H118 H 0.54977 0.51629 0.95739 0.0
H119 H 0.57041 0.476 0.00103 0.0
C120 C 0.52737 0.47377 0.97282 0.0
C121 C 0.54167 0.46823 0.98714 0.0
C122 C 0.53034 0.49084 0.96171 0.0
C123 C 0.54748 0.50301 0.96574 0.0
C124 C 0.56185 0.49799 0.98024 0.0
C125 C 0.55891 0.48044 0.99062 0.0
H126 H 0.68084 0.22983 0.27544 0.0
H127 H 0.73133 0.1987 0.29626 0.0
H128 H 0.69994 0.18132 0.24229 0.0
C129 C 0.69094 0.21824 0.27359 0.0
C130 C 0.68845 0.20592 0.25709 0.0
C131 C 0.70642 0.21583 0.28772 0.0
C132 C 0.71938 0.20068 0.28538 0.0
C133 C 0.7171 0.18808 0.2691 0.0
C134 C 0.70165 0.19088 0.25497 0.0
H135 H 0.4396 0.0236 0.98108 0.0
H136 H 0.49244 0.03832 0.95043 0.0
H137 H 0.45547 0.98749 0.93342 0.0
C138 C 0.44961 0.02053 0.96967 0.0
C139 C 0.44571 0.00389 0.95779 0.0
C140 C 0.46634 0.03315 0.96703 0.0
C141 C 0.47919 0.02898 0.95217 0.0
C142 C 0.47545 0.01254 0.93995 0.0
C143 C 0.45869 3e-05 0.94294 0.0
Mg144 Mg 0.23905 0.85228 0.0079 0.0
O145 O 0.26838 0.86939 0.00153 0.0
O146 O 0.29187 0.84748 0.0022 0.0
Mg147 Mg 0.2783 0.81731 0.00964 0.0
C148 C 0.28641 0.86495 -0.00012 0.0
C149 C 0.20187 0.8731 0.99636 0.0
O150 O 0.19586 0.85473 0.99872 0.0
O151 O 0.23755 0.83917 0.97714 0.0
O152 O 0.26045 0.81676 0.98007 0.0
O153 O 0.24452 0.85694 0.04009 0.0
O154 O 0.25453 0.83168 0.02388 0.0
C155 C 0.24684 0.82518 0.9701 0.0
C156 C 0.254 0.84097 0.04021 0.0
O157 O 0.22038 0.87764 0.99822 0.0
Mg158 Mg 0.15182 0.50283 0.27111 0.0
O159 O 0.13356 0.50152 0.24169 0.0
O160 O 0.15512 0.50462 0.21794 0.0
Mg161 Mg 0.18665 0.50759 0.23175 0.0
C162 C 0.13737 0.50248 0.22356 0.0
C163 C 0.1271 0.4937 0.30623 0.0
O164 O 0.14485 0.49894 0.31383 0.0
O165 O 0.16131 0.47165 0.2667 0.0
O166 O 0.18333 0.47611 0.24345 0.0
O167 O 0.15142 0.53543 0.27178 0.0
O168 O 0.17478 0.51913 0.25852 0.0
C169 C 0.17404 0.46509 0.25544 0.0
C170 C 0.1676 0.53569 0.26232 0.0
O171 O 0.1246 0.49282 0.28769 0.0
Mg172 Mg 0.77257 0.65365 0.02358 0.0
O173 O 0.74289 0.63555 0.01842 0.0
O174 O 0.71934 0.65718 0.0141 0.0
Mg175 Mg 0.73313 0.68821 0.01732 0.0
C176 C 0.72474 0.63959 0.01498 0.0
C177 C 0.80935 0.63053 0.02295 0.0
O178 O 0.81551 0.64839 0.02814 0.0
O179 O 0.77265 0.66164 0.99114 0.0
O180 O 0.74944 0.68382 0.98898 0.0
O181 O 0.76871 0.6545 0.05585 0.0
O182 O 0.75774 0.67662 0.03515 0.0
C183 C 0.76274 0.67404 0.98132 0.0
C184 C 0.7592 0.67025 0.05285 0.0
O185 O 0.79087 0.62701 0.01912 0.0
Mg186 Mg 0.90718 0.03168 0.24451 0.0
O187 O 0.88814 0.0029 0.24092 0.0
O188 O 0.90859 0.97891 0.236 0.0
Mg189 Mg 0.94047 0.99192 0.23723 0.0
C190 C 0.89116 0.98493 0.23772 0.0
C191 C 0.86445 0.04684 0.24436 0.0
O192 O 0.86326 0.03613 0.22835 0.0
O193 O 0.91713 0.02315 0.27566 0.0
O194 O 0.93798 -0.00028 0.26976 0.0
O195 O 0.90585 0.03605 0.2121 0.0
O196 O 0.92922 0.02021 0.22809 0.0
C197 C 0.92943 0.01061 0.28163 0.0
C198 C 0.92148 0.02588 0.2116 0.0
O199 O 0.88053 0.0475 0.25491 0.0
Mg200 Mg 0.27775 0.15139 0.51764 0.0
O201 O 0.24706 0.13501 0.51418 0.0
O202 O 0.2244 0.15769 0.51169 0.0
Mg203 Mg 0.24008 0.18807 0.51347 0.0
C204 C 0.22901 0.13983 0.51218 0.0
C205 C 0.29393 0.11039 0.52597 0.0
O206 O 0.28316 0.11269 0.54123 0.0
O207 O 0.27652 0.15905 0.48497 0.0
O208 O 0.25432 0.18223 0.48434 0.0
O209 O 0.27509 0.15297 0.55023 0.0
O210 O 0.26523 0.1756 0.52954 0.0
C211 C 0.26655 0.17186 0.47577 0.0
C212 C 0.26672 0.16936 0.54723 0.0
O213 O 0.29381 0.12333 0.51264 0.0
Mg214 Mg 0.40391 0.53454 0.74085 0.0
O215 O 0.38547 0.50554 0.73689 0.0
O216 O 0.40639 0.48198 0.73194 0.0
Mg217 Mg 0.43805 0.49574 0.73271 0.0
C218 C 0.38882 0.48765 0.73372 0.0
C219 C 0.37873 0.56744 0.75543 0.0
O220 O 0.3964 0.57633 0.75463 0.0
O221 O 0.41425 0.52579 0.77194 0.0
O222 O 0.43593 0.50337 0.76528 0.0
O223 O 0.40237 0.53921 0.70841 0.0
O224 O 0.42625 0.52395 0.72426 0.0
C225 C 0.42721 0.51371 0.7775 0.0
C226 C 0.41835 0.52957 0.70784 0.0
O227 O 0.37676 0.54932 0.75133 0.0
Mg228 Mg 0.73911 0.34864 0.50401 0.0
O229 O 0.768 0.36657 0.49778 0.0
O230 O 0.79216 0.34533 0.49868 0.0
Mg231 Mg 0.77959 0.31497 0.50673 0.0
C232 C 0.78617 0.36259 0.49617 0.0
C233 C 0.72085 0.38954 0.50266 0.0
O234 O 0.73478 0.39259 0.51659 0.0
O235 O 0.73842 0.33502 0.47343 0.0
O236 O 0.76199 0.31335 0.47708 0.0
O237 O 0.74413 0.35394 0.53617 0.0
O238 O 0.75523 0.32885 0.52052 0.0
C239 C 0.74823 0.32119 0.46678 0.0
C240 C 0.7543 0.33841 0.53664 0.0
O241 O 0.71968 0.37325 0.49364 0.0
Mg242 Mg 0.65522 0.00414 0.77001 0.0
O243 O 0.63618 0.00287 0.74101 0.0
O244 O 0.65719 0.00497 0.71673 0.0
Mg245 Mg 0.68904 0.00782 0.7297 0.0
C246 C 0.63956 0.00334 0.72277 0.0
C247 C 0.62915 0.00182 0.80469 0.0
O248 O 0.64503 0.01256 0.81058 0.0
O249 O 0.66412 0.97266 0.76576 0.0
O250 O 0.68561 0.97665 0.74198 0.0
O251 O 0.65549 0.03682 0.77032 0.0
O252 O 0.6781 0.01986 0.75667 0.0
C253 C 0.67652 0.96586 0.75428 0.0
C254 C 0.6714 0.03663 0.76048 0.0
O255 O 0.62829 0.99486 0.78741 0.0
Mg256 Mg 0.03565 0.26197 0.89973 0.0
O257 O 0.00646 0.2559 0.88131 0.0
O258 O 0.98367 0.24489 0.90186 0.0
Mg259 Mg 0.99777 0.24419 0.93285 0.0
C260 C 0.98879 0.24956 0.88468 0.0
C261 C 0.06881 0.27928 0.8763 0.0
O262 O 0.07743 0.27255 0.89239 0.0
O263 O 0.02382 0.28993 0.9119 0.0
O264 O 0.0016 0.2778 0.93252 0.0
O265 O 0.04361 0.23112 0.89564 0.0
O266 O 0.02679 0.24133 0.92029 0.0
C267 C 0.01088 0.29227 0.92463 0.0
C268 C 0.034 0.22704 0.91119 0.0
O269 O 0.04995 0.27791 0.87438 0.0
Mg270 Mg 0.53357 0.75983 0.39986 0.0
O271 O 0.50343 0.75317 0.38349 0.0
O272 O 0.48225 0.74138 0.40524 0.0
Mg273 Mg 0.49852 0.74098 0.43535 0.0
C274 C 0.4862 0.74637 0.3878 0.0
C275 C 0.56217 0.78495 0.37576 0.0
O276 O 0.57101 0.78534 0.39332 0.0
O277 O 0.52184 0.78744 0.41291 0.0
O278 O 0.50168 0.77463 0.4351 0.0
O279 O 0.542 0.72912 0.39521 0.0
O280 O 0.52674 0.73902 0.421 0.0
C281 C 0.50992 0.78938 0.42668 0.0
C282 C 0.53366 0.72489 0.41144 0.0
O283 O 0.5452 0.77609 0.37339 0.0
Mg284 Mg 0.98784 0.7454 0.59595 0.0
O285 O 0.01668 0.73832 0.61344 0.0
O286 O 0.03901 0.73182 0.59151 0.0
Mg287 Mg 0.02501 0.73497 0.56066 0.0
C288 C 0.03405 0.73357 0.6092 0.0
C289 C 0.95519 0.75351 0.6226 0.0
O290 O 0.94664 0.74519 0.60681 0.0
O291 O 0.00134 0.77554 0.58849 0.0
O292 O 0.02267 0.76805 0.56595 0.0
O293 O 0.97791 0.71386 0.59495 0.0
O294 O 0.99574 0.72845 0.57245 0.0
C295 C 0.0142 0.78062 0.57609 0.0
C296 C 0.98738 0.7126 0.57901 0.0
O297 O 0.97396 0.75661 0.62333 0.0
Mg298 Mg 0.48731 0.24402 0.09494 0.0
O299 O 0.51664 0.23804 0.11211 0.0
O300 O 0.53861 0.23023 0.09033 0.0
Mg301 Mg 0.524 0.23227 0.05963 0.0
C302 C 0.53392 0.23296 0.10795 0.0
C303 C 0.45725 0.26315 0.11978 0.0
O304 O 0.44914 0.26365 0.10193 0.0
O305 O 0.50002 0.27386 0.08565 0.0
O306 O 0.52195 0.26556 0.06393 0.0
O307 O 0.47805 0.21237 0.09567 0.0
O308 O 0.49483 0.22623 0.07196 0.0
C309 C 0.51316 0.27843 0.07338 0.0
C310 C 0.48705 0.21058 0.07951 0.0
O311 O 0.4744 0.25641 0.12227 0.0
H312 H 0.17701 0.73505 0.81222 0.0
H313 H 0.18019 0.75632 0.84117 0.0
H314 H 0.24312 0.7649 0.83355 0.0
H315 H 0.23999 0.74411 0.80438 0.0
H316 H 0.20316 0.74927 0.87469 0.0
H317 H 0.22652 0.82061 0.84282 0.0
H318 H 0.21534 0.80064 0.82816 0.0
H319 H 0.24134 0.80109 0.83548 0.0
C320 C 0.19145 0.74179 0.8165 0.0
C321 C 0.20826 0.73789 0.80604 0.0
C322 C 0.19325 0.75387 0.83306 0.0
C323 C 0.21183 0.76242 0.83933 0.0
C324 C 0.22857 0.75879 0.82874 0.0
H325 H 0.26228 0.79475 0.95115 0.0
H326 H 0.25178 0.781 0.91922 0.0
C327 C 0.2268 0.74669 0.81223 0.0
C328 C 0.21414 0.77373 0.85785 0.0
H329 H 0.2329 0.81708 0.87756 0.0
C330 C 0.20937 0.7642 0.87529 0.0
C331 C 0.22205 0.79328 0.85858 0.0
C332 C 0.22642 0.80459 0.84023 0.0
C333 C 0.21326 0.77334 0.89352 0.0
C334 C 0.22231 0.79242 0.89432 0.0
C335 C 0.22614 0.80236 0.87687 0.0
C336 C 0.22908 0.80164 0.9132 0.0
C337 C 0.20801 0.76239 0.91186 0.0
C338 C 0.22013 0.81817 0.92012 0.0
C339 C 0.22609 0.82614 0.93848 0.0
C340 C 0.24122 0.81775 0.9501 0.0
C341 C 0.25052 0.80155 0.94272 0.0
C342 C 0.24451 0.7936 0.92448 0.0
H343 H 0.19679 0.75021 0.90868 0.0
H344 H 0.22158 0.75608 0.91851 0.0
H345 H 0.20215 0.77234 0.92278 0.0
H346 H 0.20826 0.82463 0.91151 0.0
H347 H 0.21865 0.83866 0.94367 0.0
H348 H 0.01546 0.51488 0.44528 0.0
H349 H 0.03893 0.50769 0.42036 0.0
H350 H 0.99013 0.49048 0.37991 0.0
H351 H 0.96649 0.49797 0.40468 0.0
H352 H 0.04273 0.47108 0.39917 0.0
H353 H 0.02352 0.53336 0.35069 0.0
H354 H 0.01713 0.53228 0.37603 0.0
H355 H 0.00328 0.51733 0.35806 0.0
C356 C 0.00971 0.50967 0.43104 0.0
C357 C 0.98912 0.50714 0.42689 0.0
C358 C 0.02313 0.50544 0.41689 0.0
C359 C 0.01624 0.49875 0.39827 0.0
C360 C 0.99572 0.49584 0.39414 0.0
H361 H 0.08771 0.48586 0.29552 0.0
H362 H 0.05961 0.48408 0.31702 0.0
C363 C 0.98226 0.49998 0.40834 0.0
C364 C 0.03065 0.49514 0.38316 0.0
H365 H 0.04849 0.51341 0.34066 0.0
C366 C 0.04392 0.48022 0.38629 0.0
C367 C 0.03203 0.50702 0.36633 0.0
C368 C 0.01836 0.5235 0.36252 0.0
C369 C 0.05881 0.47705 0.37315 0.0
C370 C 0.06072 0.48943 0.35671 0.0
C371 C 0.047 0.50393 0.35325 0.0
C372 C 0.07773 0.48865 0.34379 0.0
C373 C 0.07235 0.46048 0.37704 0.0
C374 C 0.09722 0.49177 0.35169 0.0
C375 C 0.11325 0.49274 0.3395 0.0
C376 C 0.11014 0.49081 0.31909 0.0
C377 C 0.09062 0.48734 0.31119 0.0
C378 C 0.07455 0.48635 0.32344 0.0
H379 H 0.06506 0.44877 0.38582 0.0
H380 H 0.07695 0.454 0.36317 0.0
H381 H 0.08589 0.4661 0.38553 0.0
H382 H 0.10002 0.49408 0.36728 0.0
H383 H 0.12805 0.49552 0.34609 0.0
H384 H 0.82992 0.75354 0.82531 0.0
H385 H 0.82622 0.73175 0.85334 0.0
H386 H 0.76253 0.72986 0.84327 0.0
H387 H 0.76614 0.75073 0.81466 0.0
H388 H 0.80835 0.73935 0.88599 0.0
H389 H 0.77105 0.67302 0.85227 0.0
H390 H 0.78268 0.6921 0.8379 0.0
H391 H 0.75787 0.69439 0.84601 0.0
C392 C 0.81515 0.74809 0.82874 0.0
C393 C 0.79833 0.75392 0.8177 0.0
C394 C 0.81305 0.73572 0.84486 0.0
C395 C 0.79412 0.72889 0.85025 0.0
C396 C 0.77733 0.73451 0.83913 0.0
H397 H 0.74033 0.69318 0.95395 0.0
H398 H 0.74966 0.70369 0.92139 0.0
C399 C 0.77941 0.74674 0.82295 0.0
C400 C 0.79175 0.71739 0.86847 0.0
H401 H 0.76777 0.67689 0.88716 0.0
C402 C 0.79983 0.7255 0.88617 0.0
C403 C 0.78068 0.69925 0.86874 0.0
C404 C 0.77277 0.68909 0.85017 0.0
C405 C 0.79627 0.71648 0.90417 0.0
C406 C 0.78433 0.69896 0.90446 0.0
C407 C 0.77686 0.6904 0.8868 0.0
C408 C 0.77807 0.69043 0.92315 0.0
C409 C 0.80454 0.72612 0.92289 0.0
C410 C 0.79085 0.67912 0.93467 0.0
C411 C 0.78554 0.67297 0.95332 0.0
C412 C 0.76746 0.67826 0.96075 0.0
C413 C 0.75442 0.68898 0.94876 0.0
C414 C 0.75967 0.69494 0.93012 0.0
H415 H 0.81333 0.73993 0.92017 0.0
H416 H 0.7922 0.72937 0.93236 0.0
H417 H 0.81422 0.71598 0.93106 0.0
H418 H 0.80515 0.67556 0.92945 0.0
H419 H 0.79592 0.66477 0.96219 0.0
H420 H 0.01658 0.02538 0.45497 0.0
H421 H 0.99427 0.03089 0.42631 0.0
H422 H 0.99644 0.97021 0.41 0.0
H423 H 0.01847 0.96459 0.43859 0.0
H424 H 0.00103 0.02673 0.38808 0.0
H425 H 0.93745 0.97698 0.40609 0.0
H426 H 0.95713 0.9841 0.42391 0.0
H427 H 0.96023 0.96456 0.40683 0.0
C428 C 0.01221 0.01321 0.44529 0.0
C429 C 0.01915 0.99451 0.44912 0.0
C430 C 0.99941 0.01636 0.42899 0.0
C431 C 0.99331 0.00087 0.41625 0.0
C432 C 1.00039 0.98225 0.41996 0.0
H433 H 0.94817 0.9811 0.3004 0.0
H434 H 0.96108 0.98043 0.33436 0.0
C435 C 0.01306 0.97907 0.43627 0.0
C436 C 0.98058 0.00429 0.39837 0.0
H437 H 0.93927 0.9862 0.3721 0.0
C438 C 0.98731 0.01815 0.38475 0.0
C439 C 0.96261 0.99316 0.39407 0.0
C440 C 0.95383 0.97902 0.40861 0.0
C441 C 0.97718 0.02038 0.36653 0.0
C442 C 0.95984 0.00851 0.36187 0.0
C443 C 0.95263 0.99522 0.37574 0.0
C444 C 0.95016 0.00843 0.34198 0.0
C445 C 0.98555 0.03473 0.35196 0.0
C446 C 0.93929 0.02422 0.33522 0.0
C447 C 0.93173 0.02461 0.31577 0.0
C448 C 0.93513 0.0093 0.30279 0.0
C449 C 0.94541 0.99321 0.30993 0.0
C450 C 0.95277 0.99276 0.32935 0.0
H451 H 1.00014 0.04159 0.35718 0.0
H452 H 0.98739 0.02727 0.33777 0.0
H453 H 0.97502 0.04646 0.34924 0.0
H454 H 0.93705 0.0364 0.34484 0.0
H455 H 0.9239 0.03722 0.31074 0.0
H456 H 0.25866 0.29128 0.68508 0.0
H457 H 0.26279 0.26688 0.65999 0.0
H458 H 0.19962 0.25299 0.65714 0.0
H459 H 0.19504 0.27882 0.68077 0.0
H460 H 0.25694 0.22971 0.65847 0.0
H461 H 0.20726 0.26058 0.60078 0.0
H462 H 0.21402 0.27339 0.62333 0.0
H463 H 0.19455 0.25433 0.6225 0.0
C464 C 0.24551 0.28345 0.67881 0.0
C465 C 0.22645 0.28743 0.68483 0.0
C466 C 0.24796 0.26923 0.66461 0.0
C467 C 0.23148 0.25831 0.6563 0.0
C468 C 0.21252 0.2616 0.66284 0.0
H469 H 0.25629 0.15653 0.5835 0.0
H470 H 0.24552 0.17638 0.61053 0.0
C471 C 0.20998 0.2762 0.6767 0.0
C472 C 0.23437 0.24354 0.64084 0.0
H473 H 0.21995 0.22989 0.59404 0.0
C474 C 0.24887 0.22978 0.64436 0.0
C475 C 0.22397 0.2437 0.62234 0.0
C476 C 0.20924 0.25891 0.61692 0.0
C477 C 0.25366 0.21657 0.6298 0.0
C478 C 0.24296 0.21646 0.61144 0.0
C479 C 0.22806 0.22985 0.60814 0.0
C480 C 0.24805 0.20384 0.59487 0.0
C481 C 0.2708 0.20362 0.63401 0.0
C482 C 0.252 0.21242 0.57672 0.0
C483 C 0.25746 0.20103 0.56114 0.0
C484 C 0.25942 0.18084 0.56344 0.0
C485 C 0.25511 0.17211 0.58143 0.0
C486 C 0.24914 0.18348 0.59692 0.0
H487 H 0.28077 0.20938 0.64633 0.0
H488 H 0.26493 0.18887 0.6382 0.0
H489 H 0.27979 0.20215 0.62095 0.0
H490 H 0.25126 0.22806 0.5747 0.0
H491 H 0.26075 0.20818 0.54746 0.0
H492 H 0.53599 0.50613 0.56948 0.0
H493 H 0.51597 0.50451 0.59831 0.0
H494 H 0.46485 0.52133 0.56317 0.0
H495 H 0.48457 0.52221 0.53408 0.0
H496 H 0.49843 0.53588 0.61339 0.0
H497 H 0.44123 0.4767 0.59517 0.0
H498 H 0.46369 0.48009 0.58198 0.0
H499 H 0.44315 0.49529 0.57677 0.0
C500 C 0.52035 0.50894 0.56774 0.0
C501 C 0.51189 0.51431 0.54944 0.0
C502 C 0.50896 0.50815 0.58428 0.0
C503 C 0.48887 0.51262 0.58288 0.0
C504 C 0.48022 0.51746 0.56456 0.0
H505 H 0.4039 0.5371 0.67058 0.0
H506 H 0.42041 0.53217 0.63988 0.0
C507 C 0.49159 0.5182 0.54798 0.0
C508 C 0.47755 0.51394 0.60087 0.0
H509 H 0.43595 0.49639 0.62303 0.0
C510 C 0.48485 0.52713 0.61554 0.0
C511 C 0.45973 0.50265 0.60357 0.0
C512 C 0.45155 0.48775 0.58862 0.0
C513 C 0.47476 0.52948 0.63277 0.0
C514 C 0.45701 0.51814 0.63552 0.0
C515 C 0.44957 0.50504 0.62083 0.0
C516 C 0.44626 0.51961 0.65379 0.0
C517 C 0.483 0.5443 0.64779 0.0
C518 C 0.45514 0.51374 0.67164 0.0
C519 C 0.4458 0.51653 0.68913 0.0
C520 C 0.42733 0.52518 0.6891 0.0
C521 C 0.41814 0.53045 0.6711 0.0
C522 C 0.42751 0.52761 0.65356 0.0
H523 H 0.49406 0.55485 0.64157 0.0
H524 H 0.4709 0.55258 0.65376 0.0
H525 H 0.49048 0.5366 0.66012 0.0
H526 H 0.46952 0.50735 0.67207 0.0
H527 H 0.45333 0.51235 0.70271 0.0
H528 H 0.81631 0.27448 0.70765 0.0
H529 H 0.80999 0.29618 0.67976 0.0
H530 H 0.79087 0.24638 0.64378 0.0
H531 H 0.79763 0.22453 0.67131 0.0
H532 H 0.82522 0.28884 0.63483 0.0
H533 H 0.7444 0.29074 0.6477 0.0
H534 H 0.76275 0.28732 0.66739 0.0
H535 H 0.7561 0.26775 0.65053 0.0
C536 C 0.81106 0.26811 0.69372 0.0
C537 C 0.80737 0.24777 0.69173 0.0
C538 C 0.80739 0.28054 0.67787 0.0
C539 C 0.79992 0.2728 0.65986 0.0
C540 C 0.79657 0.25255 0.65767 0.0
H541 H 0.77618 0.30617 0.54203 0.0
H542 H 0.78944 0.29321 0.57289 0.0
C543 C 0.8003 0.24013 0.67344 0.0
C544 C 0.79493 0.2858 0.64336 0.0
H545 H 0.75539 0.30455 0.61824 0.0
C546 C 0.81002 0.29251 0.63127 0.0
C547 C 0.77512 0.2906 0.63896 0.0
C548 C 0.75857 0.28386 0.65181 0.0
C549 C 0.80562 0.30341 0.61436 0.0
C550 C 0.78564 0.30746 0.60946 0.0
C551 C 0.7707 0.3014 0.62204 0.0
C552 C 0.77962 0.31666 0.59067 0.0
C553 C 0.82232 0.31031 0.60176 0.0
C554 C 0.76964 0.33415 0.59044 0.0
C555 C 0.76205 0.34165 0.57276 0.0
C556 C 0.76412 0.33166 0.55505 0.0
C557 C 0.7745 0.31437 0.55533 0.0
C558 C 0.78217 0.30695 0.57297 0.0
H559 H 0.83687 0.31095 0.61015 0.0
H560 H 0.82324 0.29992 0.58941 0.0
H561 H 0.81967 0.32498 0.59557 0.0
H562 H 0.76738 0.34175 0.60399 0.0
H563 H 0.75406 0.35497 0.57305 0.0
H564 H 0.53017 0.98283 0.56766 0.0
H565 H 0.55331 0.98799 0.59608 0.0
H566 H 0.50399 0.99112 0.63359 0.0
H567 H 0.48068 0.9856 0.60522 0.0
H568 H 0.55558 0.02053 0.62331 0.0
H569 H 0.53931 0.94893 0.65919 0.0
H570 H 0.53269 0.95325 0.6337 0.0
H571 H 0.51836 0.96314 0.65243 0.0
C572 C 0.52424 0.98445 0.58197 0.0
C573 C 0.5036 0.98367 0.58421 0.0
C574 C 0.53747 0.98751 0.59817 0.0
C575 C 0.53035 0.98971 0.61695 0.0
C576 C 0.50977 0.9892 0.61925 0.0
H577 H 0.59951 0.00071 0.72904 0.0
H578 H 0.57191 0.99868 0.7043 0.0
C579 C 0.49649 0.98622 0.60301 0.0
C580 C 0.54461 0.99268 0.634 0.0
H581 H 0.56304 0.97054 0.67527 0.0
C582 C 0.55716 0.00966 0.63473 0.0
C583 C 0.5465 0.97853 0.64894 0.0
C584 C 0.53363 0.95985 0.64859 0.0
C585 C 0.57176 0.01278 0.6499 0.0
C586 C 0.57416 0.99831 0.66448 0.0
C587 C 0.5612 0.98159 0.66407 0.0
C588 C 0.59075 -0.00025 0.67956 0.0
C589 C 0.58446 0.03159 0.65019 0.0
C590 C 0.61047 0.0007 0.67386 0.0
C591 C 0.62622 0.00189 0.68789 0.0
C592 C 0.62264 0.00199 0.70801 0.0
C593 C 0.60283 0.00075 0.7137 0.0
C594 C 0.58704 0.99958 0.69959 0.0
H595 H 0.57692 0.04335 0.64202 0.0
H596 H 0.58816 0.03669 0.66542 0.0
H597 H 0.59853 0.0291 0.64304 0.0
H598 H 0.6137 0.00036 0.6585 0.0
H599 H 0.64124 0.00266 0.6829 0.0
H600 H 0.83099 0.22208 0.77785 0.0
H601 H 0.85994 0.22649 0.80064 0.0
H602 H 0.89727 0.23922 0.75235 0.0
H603 H 0.86842 0.23452 0.72935 0.0
H604 H 0.89584 0.20538 0.80036 0.0
H605 H 0.90969 0.28561 0.79115 0.0
H606 H 0.88626 0.27314 0.78381 0.0
H607 H 0.9074 0.27112 0.76912 0.0
C608 C 0.84537 0.2257 0.77204 0.0
C609 C 0.84738 0.22795 0.75177 0.0
C610 C 0.86186 0.22831 0.78509 0.0
C611 C 0.88067 0.23338 0.77817 0.0
C612 C 0.8828 0.23565 0.75799 0.0
H613 H 0.99358 0.25634 0.84548 0.0
H614 H 0.96844 0.25185 0.81852 0.0
C615 C 0.8663 0.23299 0.74489 0.0
C616 C 0.89807 0.23572 0.79217 0.0
H617 H 0.93195 0.26952 0.81253 0.0
C618 C 0.90379 0.21938 0.80299 0.0
C619 C 0.90849 0.25397 0.7954 0.0
C620 C 0.90264 0.27205 0.78439 0.0
C621 C 0.91956 0.22083 0.81715 0.0
C622 C 0.92956 0.23922 0.82087 0.0
C623 C 0.92421 0.25546 0.80966 0.0
C624 C 0.94484 0.24206 0.83707 0.0
C625 C 0.92539 0.20263 0.82795 0.0
C626 C 0.93978 0.23839 0.85642 0.0
C627 C 0.95404 0.2409 0.87181 0.0
C628 C 0.97368 0.2473 0.86821 0.0
C629 C 0.97863 0.25133 0.84879 0.0
C630 C 0.9643 0.24878 0.83337 0.0
H631 H 0.92061 0.18919 0.81952 0.0
H632 H 0.94171 0.20273 0.83102 0.0
H633 H 0.91805 0.20194 0.84213 0.0
H634 H 0.92473 0.23364 0.85965 0.0
H635 H 0.9496 0.23781 0.88655 0.0
H636 H 0.47682 0.96254 0.49664 0.0
H637 H 0.48234 0.93593 0.47383 0.0
H638 H 0.49757 0.89867 0.52252 0.0
H639 H 0.49201 0.92507 0.54535 0.0
H640 H 0.524 0.89771 0.49204 0.0
H641 H 0.4452 0.88689 0.46454 0.0
H642 H 0.4561 0.91128 0.46264 0.0
H643 H 0.4524 0.90087 0.48637 0.0
C644 C 0.48121 0.94863 0.50247 0.0
C645 C 0.48395 0.94591 0.52281 0.0
C646 C 0.48437 0.93346 0.48943 0.0
C647 C 0.49017 0.91528 0.49651 0.0
C648 C 0.49314 0.91261 0.51676 0.0
H649 H 0.4838 0.79901 0.45396 0.0
H650 H 0.4795 0.83103 0.46819 0.0
C651 C 0.49002 0.92774 0.52978 0.0
C652 C 0.49309 0.89886 0.48298 0.0
H653 H 0.46824 0.86644 0.45139 0.0
C654 C 0.51189 0.89097 0.48298 0.0
C655 C 0.47718 0.89007 0.4713 0.0
C656 C 0.45652 0.89756 0.47124 0.0
C657 C 0.51511 0.8742 0.47199 0.0
C658 C 0.49914 0.86526 0.46049 0.0
C659 C 0.48047 0.87345 0.4601 0.0
C660 C 0.50099 0.84629 0.45047 0.0
C661 C 0.5353 0.86564 0.47351 0.0
C662 C 0.5142 0.84431 0.43543 0.0
C663 C 0.51677 0.82591 0.42722 0.0
C664 C 0.50613 0.80921 0.43394 0.0
C665 C 0.49237 0.81147 0.4485 0.0
C666 C 0.48983 0.8298 0.45664 0.0
H667 H 0.54487 0.87224 0.48571 0.0
H668 H 0.53385 0.84958 0.47574 0.0
H669 H 0.5429 0.86837 0.45966 0.0
H670 H 0.52272 0.85693 0.43024 0.0
H671 H 0.5274 0.82472 0.41597 0.0
H672 H 0.19544 0.28402 0.74799 0.0
H673 H 0.16921 0.28081 0.77138 0.0
H674 H 0.15509 0.34077 0.76112 0.0
H675 H 0.18139 0.34412 0.73768 0.0
H676 H 0.15802 0.33207 0.80001 0.0
H677 H 0.10942 0.27587 0.76068 0.0
H678 H 0.13452 0.26861 0.76417 0.0
H679 H 0.12927 0.28944 0.74909 0.0
C680 C 0.18657 0.29645 0.75051 0.0
C681 C 0.19041 0.31429 0.7409 0.0
C682 C 0.17155 0.29458 0.76384 0.0
C683 C 0.15993 0.31044 0.76771 0.0
C684 C 0.1638 0.32831 0.75826 0.0
H685 H 0.05627 0.29199 0.83986 0.0
H686 H 0.0771 0.30228 0.8129 0.0
C687 C 0.17888 0.33022 0.74495 0.0
C688 C 0.14439 0.30855 0.7823 0.0
H689 H 0.10376 0.28036 0.79476 0.0
C690 C 0.14601 0.32093 0.79875 0.0
C691 C 0.12849 0.29427 0.78047 0.0
C692 C 0.12516 0.28143 0.76254 0.0
C693 C 0.13272 0.31876 0.81386 0.0
C694 C 0.11767 0.30359 0.81266 0.0
C695 C 0.11544 0.29185 0.79577 0.0
C696 C 0.10495 0.29878 0.82927 0.0
C697 C 0.13504 0.33267 0.83105 0.0
C698 C 0.11371 0.29339 0.84735 0.0
C699 C 0.10191 0.28758 0.86273 0.0
C700 C 0.08106 0.28685 0.8603 0.0
C701 C 0.07228 0.29246 0.84222 0.0
C702 C 0.08414 0.29831 0.82681 0.0
H703 H 0.14248 0.34682 0.82691 0.0
H704 H 0.12044 0.33557 0.83698 0.0
H705 H 0.14444 0.32614 0.84284 0.0
H706 H 0.12971 0.29317 0.84945 0.0
H707 H 0.10918 0.28326 0.8764 0.0
H708 H 0.52838 0.57436 0.51861 0.0
H709 H 0.52679 0.60459 0.49991 0.0
H710 H 0.53868 0.57342 0.44725 0.0
H711 H 0.53947 0.54283 0.46576 0.0
H712 H 0.55698 0.62216 0.47966 0.0
H713 H 0.49101 0.60457 0.42965 0.0
H714 H 0.4967 0.59031 0.45122 0.0
H715 H 0.5101 0.58723 0.42944 0.0
C716 C 0.53022 0.5738 0.50297 0.0
C717 C 0.53388 0.55612 0.49365 0.0
C718 C 0.52947 0.59114 0.49233 0.0
C719 C 0.53237 0.59121 0.47216 0.0
C720 C 0.53602 0.57363 0.46275 0.0
H721 H 0.54328 0.69136 0.39298 0.0
H722 H 0.54291 0.65817 0.40654 0.0
C723 C 0.5367 0.55621 0.47338 0.0
C724 C 0.53255 0.60996 0.46134 0.0
H725 H 0.50872 0.63477 0.42458 0.0
C726 C 0.54644 0.62489 0.46761 0.0
C727 C 0.51884 0.61344 0.44555 0.0
C728 C 0.50319 0.59812 0.43862 0.0
C729 C 0.54687 0.64329 0.45865 0.0
C730 C 0.53294 0.64689 0.44314 0.0
C731 C 0.51935 0.63187 0.43651 0.0
C732 C 0.53182 0.66652 0.43433 0.0
C733 C 0.56218 0.65881 0.46587 0.0
C734 C 0.52531 0.68199 0.44537 0.0
C735 C 0.52545 0.70087 0.4377 0.0
C736 C 0.53211 0.70461 0.41883 0.0
C737 C 0.53811 0.68894 0.40758 0.0
C738 C 0.53788 0.67 0.41526 0.0
H739 H 0.57439 0.65254 0.47494 0.0
H740 H 0.56867 0.66681 0.45337 0.0
H741 H 0.55494 0.66955 0.47497 0.0
H742 H 0.52045 0.67951 0.46008 0.0
H743 H 0.5208 0.71259 0.44678 0.0
H744 H 0.84319 0.80991 0.76023 0.0
H745 H 0.8691 0.80771 0.73655 0.0
H746 H 0.85641 0.74548 0.73172 0.0
H747 H 0.83056 0.74756 0.75544 0.0
H748 H 0.89692 0.75566 0.73411 0.0
H749 H 0.85738 0.79983 0.67788 0.0
H750 H 0.86211 0.8117 0.7012 0.0
H751 H 0.84553 0.79031 0.69923 0.0
C752 C 0.84589 0.79577 0.75406 0.0
C753 C 0.83473 0.77892 0.75957 0.0
C754 C 0.86069 0.79454 0.74055 0.0
C755 C 0.86446 0.77648 0.73214 0.0
C756 C 0.85372 0.75957 0.73801 0.0
H757 H 0.91519 0.74758 0.62486 0.0
H758 H 0.8949 0.7544 0.65232 0.0
C759 C 0.83899 0.76077 0.7516 0.0
C760 C 0.87922 0.77517 0.71686 0.0
H761 H 0.88894 0.78953 0.67033 0.0
C762 C 0.89528 0.76314 0.7202 0.0
C763 C 0.87691 0.78484 0.69867 0.0
C764 C 0.85948 0.79727 0.69388 0.0
C765 C 0.90894 0.76029 0.70572 0.0
C766 C 0.90663 0.76998 0.68754 0.0
C767 C 0.89076 0.78226 0.68434 0.0
C768 C 0.9194 0.76627 0.671 0.0
C769 C 0.92526 0.74634 0.7097 0.0
C770 C 0.93996 0.77087 0.67229 0.0
C771 C 0.95171 0.76691 0.65654 0.0
C772 C 0.94303 0.75838 0.63923 0.0
C773 C 0.92239 0.75412 0.63796 0.0
C774 C 0.91073 0.75803 0.65365 0.0
H775 H 0.92254 0.7371 0.72275 0.0
H776 H 0.92675 0.73664 0.69688 0.0
H777 H 0.93959 0.75482 0.71241 0.0
H778 H 0.94689 0.77756 0.68543 0.0
H779 H 0.96755 0.77045 0.65795 0.0
H780 H 0.03259 0.93352 0.47966 0.0
H781 H 0.0273 0.90362 0.49852 0.0
H782 H 0.04338 0.93527 0.55198 0.0
H783 H 0.04849 0.96545 0.53319 0.0
H784 H 0.06194 0.8994 0.54876 0.0
H785 H 0.9806 0.89009 0.53346 0.0
H786 H 0.99425 0.89347 0.51171 0.0
H787 H 0.99446 0.91289 0.52947 0.0
C788 C 0.03475 0.93422 0.49546 0.0
C789 C 0.04078 0.95194 0.50493 0.0
C790 C 0.03173 0.91711 0.50621 0.0
C791 C 0.0346 0.91731 0.52667 0.0
C792 C 0.04097 0.93484 0.5362 0.0
H793 H 0.99637 0.81222 0.59106 0.0
H794 H 0.00212 0.8467 0.58246 0.0
C795 C 0.04397 0.95204 0.52543 0.0
C796 C 0.03141 0.89901 0.5379 0.0
H797 H 0.99693 0.86192 0.54545 0.0
C798 C 0.04767 0.89131 0.54828 0.0
C799 C 0.01271 0.88866 0.53755 0.0
C800 C 0.99445 0.89678 0.52762 0.0
C801 C 0.04595 0.87299 0.55744 0.0
C802 C 0.02758 0.86204 0.55593 0.0
C803 C 0.01107 0.87024 0.54645 0.0
C804 C 0.02545 0.84152 0.56275 0.0
C805 C 0.06389 0.86544 0.56846 0.0
C806 C 0.0367 0.82719 0.55458 0.0
C807 C 0.03346 0.80753 0.55942 0.0
C808 C 0.01877 0.80171 0.57246 0.0
C809 C 0.00782 0.81616 0.581 0.0
C810 C 0.01107 0.83587 0.5761 0.0
H811 H 0.07438 0.87762 0.57361 0.0
H812 H 0.05952 0.85657 0.58129 0.0
H813 H 0.07189 0.85607 0.55857 0.0
H814 H 0.04757 0.83114 0.54392 0.0
H815 H 0.04217 0.79684 0.55252 0.0
H816 H 0.16778 0.68273 0.73926 0.0
H817 H 0.14126 0.68561 0.71385 0.0
H818 H 0.14706 0.74844 0.71887 0.0
H819 H 0.17416 0.74575 0.74352 0.0
H820 H 0.10517 0.70193 0.71522 0.0
H821 H 0.15089 0.74042 0.66058 0.0
H822 H 0.1617 0.72889 0.68198 0.0
H823 H 0.15185 0.75271 0.68382 0.0
C824 C 0.16361 0.69717 0.73476 0.0
C825 C 0.17319 0.714 0.7434 0.0
C826 C 0.14833 0.69878 0.72035 0.0
C827 C 0.14237 0.71725 0.71425 0.0
C828 C 0.15167 0.73405 0.72305 0.0
H829 H 0.03263 0.74241 0.64831 0.0
H830 H 0.05841 0.73792 0.67413 0.0
C831 C 0.167 0.73246 0.73736 0.0
C832 C 0.12632 0.71895 0.69882 0.0
H833 H 0.11589 0.7392 0.65413 0.0
C834 C 0.10751 0.71 0.70181 0.0
C835 C 0.12947 0.72927 0.68122 0.0
C836 C 0.14962 0.73821 0.67658 0.0
C837 C 0.09169 0.71133 0.6878 0.0
C838 C 0.09467 0.72226 0.67053 0.0
C839 C 0.11355 0.73099 0.66746 0.0
C840 C 0.07863 0.72448 0.65515 0.0
C841 C 0.0721 0.70067 0.69146 0.0
C842 C 0.08156 0.7188 0.63582 0.0
C843 C 0.06701 0.72161 0.62101 0.0
C844 C 0.04914 0.73013 0.62518 0.0
C845 C 0.04614 0.73566 0.64461 0.0
C846 C 0.06082 0.73299 0.65942 0.0
H847 H 0.07389 0.68874 0.70231 0.0
H848 H 0.06186 0.71111 0.6974 0.0
H849 H 0.06509 0.69431 0.6777 0.0
H850 H 0.09519 0.71224 0.63217 0.0
H851 H 0.06983 0.7171 0.60625 0.0
H852 H 0.93766 0.56086 0.4773 0.0
H853 H 0.94377 0.59073 0.4967 0.0
H854 H 0.00637 0.58051 0.50143 0.0
H855 H 1.00029 0.55014 0.48275 0.0
H856 H 0.99218 0.5912 0.53643 0.0
H857 H 0.96841 0.64226 0.47805 0.0
H858 H 0.94972 0.6235 0.48283 0.0
H859 H 0.97285 0.61699 0.47318 0.0
C860 C 0.95271 0.56486 0.48259 0.0
C861 C 0.9685 0.55311 0.4784 0.0
C862 C 0.95621 0.58208 0.49348 0.0
C863 C 0.97557 0.58803 0.5002 0.0
C864 C 0.99133 0.57627 0.49624 0.0
H865 H 0.00593 0.70538 0.54519 0.0
H866 H 0.00519 0.67471 0.52683 0.0
C867 C 0.98785 0.559 0.48542 0.0
C868 C 0.97931 0.60634 0.51169 0.0
H869 H 0.97282 0.65542 0.51035 0.0
C870 C 0.98808 0.60528 0.53069 0.0
C871 C 0.97427 0.62473 0.50407 0.0
C872 C 0.96598 0.62702 0.48334 0.0
C873 C 0.99143 0.62204 0.54248 0.0
C874 C 0.98548 0.64028 0.53519 0.0
C875 C 0.97721 0.64141 0.516 0.0
C876 C 0.98733 0.65836 0.54726 0.0
C877 C 0.0015 0.62008 0.56252 0.0
C878 C 0.97763 0.65936 0.56491 0.0
C879 C 0.97819 0.67683 0.57555 0.0
C880 C 0.98828 0.69372 0.56862 0.0
C881 C 0.99818 0.69262 0.55105 0.0
C882 C 0.9977 0.67511 0.54048 0.0
H883 H 0.01043 0.60689 0.56347 0.0
H884 H 0.01138 0.63313 0.56632 0.0
H885 H 0.99002 0.61858 0.57359 0.0
H886 H 0.96913 0.64677 0.5702 0.0
H887 H 0.97027 0.67721 0.58894 0.0
H888 H 0.75155 0.85667 0.18852 0.0
H889 H 0.77822 0.88208 0.19262 0.0
H890 H 0.77171 0.88162 0.25507 0.0
H891 H 0.7458 0.8555 0.25125 0.0
H892 H 0.77864 0.91879 0.20749 0.0
H893 H 0.83046 0.87433 0.25182 0.0
H894 H 0.8084 0.86378 0.23914 0.0
H895 H 0.80671 0.876 0.26227 0.0
C896 C 0.75596 0.86177 0.20317 0.0
C897 C 0.74662 0.85387 0.21957 0.0
C898 C 0.77109 0.87643 0.20546 0.0
C899 C 0.77719 0.88352 0.22418 0.0
C900 C 0.76755 0.87608 0.24052 0.0
H901 H 0.85232 0.99018 0.24588 0.0
H902 H 0.82424 0.9661 0.24286 0.0
C903 C 0.75253 0.86131 0.23827 0.0
C904 C 0.79366 0.89869 0.22654 0.0
H905 H 0.83951 0.90809 0.2489 0.0
C906 C 0.79197 0.91646 0.21652 0.0
C907 C 0.81116 0.89551 0.23812 0.0
C908 C 0.81443 0.87631 0.2483 0.0
C909 C 0.80727 0.93119 0.21782 0.0
C910 C 0.82451 0.92822 0.22986 0.0
C911 C 0.82621 0.91042 0.23983 0.0
C912 C 0.84139 0.943 0.23174 0.0
C913 C 0.80502 0.94952 0.20586 0.0
C914 C 0.86046 0.93789 0.22702 0.0
C915 C 0.87657 0.95149 0.22901 0.0
C916 C 0.87396 0.97057 0.23574 0.0
C917 C 0.85483 0.97567 0.24052 0.0
C918 C 0.83873 0.96196 0.23868 0.0
H919 H 0.79373 0.94726 0.19358 0.0
H920 H 0.80009 0.9613 0.21537 0.0
H921 H 0.81935 0.95455 0.19975 0.0
H922 H 0.86288 0.92334 0.22168 0.0
H923 H 0.89105 0.94704 0.22515 0.0
H924 H 0.73516 0.1774 0.23598 0.0
H925 H 0.75885 0.15181 0.23261 0.0
H926 H 0.75473 0.13768 0.29378 0.0
H927 H 0.73071 0.16293 0.29718 0.0
H928 H 0.79594 0.14953 0.25341 0.0
H929 H 0.74607 0.08414 0.26602 0.0
H930 H 0.73679 0.10777 0.25997 0.0
H931 H 0.74604 0.10286 0.28446 0.0
C932 C 0.73906 0.16864 0.24864 0.0
C933 C 0.73103 0.17217 0.26684 0.0
C934 C 0.75268 0.15412 0.24672 0.0
C935 C 0.75838 0.14272 0.26289 0.0
C936 C 0.75032 0.14611 0.28104 0.0
H937 H 0.86363 0.07402 0.27375 0.0
H938 H 0.83759 0.09682 0.27912 0.0
C939 C 0.73675 0.16067 0.283 0.0
C940 C 0.77338 0.12784 0.26094 0.0
H941 H 0.78048 0.0789 0.2645 0.0
C942 C 0.79257 0.13409 0.25582 0.0
C943 C 0.76888 0.1077 0.26395 0.0
C944 C 0.74829 0.10012 0.26874 0.0
C945 C 0.80746 0.12074 0.2538 0.0
C946 C 0.80309 0.10064 0.25721 0.0
C947 C 0.78383 0.09435 0.26211 0.0
C948 C 0.81817 0.0859 0.25501 0.0
C949 C 0.82766 0.1282 0.24766 0.0
C950 C 0.81555 0.07178 0.24012 0.0
C951 C 0.83035 0.05871 0.23703 0.0
C952 C 0.84803 0.05945 0.24887 0.0
C953 C 0.85025 0.07312 0.2643 0.0
C954 C 0.83544 0.08622 0.26734 0.0
H955 H 0.82732 0.14321 0.24155 0.0
H956 H 0.83826 0.12857 0.26061 0.0
H957 H 0.83336 0.11838 0.23654 0.0
H958 H 0.80227 0.07123 0.23052 0.0
H959 H 0.8281 0.04831 0.22508 0.0
H960 H 0.40767 0.01332 0.9647 0.0
H961 H 0.37944 0.991 0.97199 0.0
H962 H 0.41592 0.94174 0.96548 0.0
H963 H 0.44431 0.96394 0.95856 0.0
H964 H 0.3613 0.95893 0.94879 0.0
H965 H 0.39335 0.935 0.02064 0.0
H966 H 0.40252 0.95673 0.00836 0.0
H967 H 0.40944 0.93304 0.00062 0.0
C968 C 0.4097 0.99774 0.96492 0.0
C969 C 0.42826 0.99039 0.96119 0.0
C970 C 0.39354 0.98502 0.96898 0.0
C971 C 0.3957 0.96477 0.96953 0.0
C972 C 0.41405 0.95736 0.96539 0.0
H973 H 0.32545 0.86042 0.99288 0.0
H974 H 0.35072 0.8856 0.98534 0.0
C975 C 0.43019 0.97004 0.96126 0.0
C976 C 0.37881 0.95133 0.97455 0.0
H977 H 0.36436 0.91725 0.00808 0.0
C978 C 0.36184 0.9499 0.96182 0.0
C979 C 0.3796 0.93968 0.9916 0.0
C980 C 0.39711 0.94125 0.00622 0.0
C981 C 0.3459 0.93654 0.96532 0.0
C982 C 0.34686 0.9246 0.98219 0.0
C983 C 0.36368 0.92638 0.99512 0.0
C984 C 0.33106 0.90952 0.98633 0.0
C985 C 0.3285 0.93482 0.95058 0.0
C986 C 0.31157 0.91461 0.98951 0.0
C987 C 0.29696 0.90018 0.99379 0.0
C988 C 0.30165 0.88041 0.99513 0.0
C989 C 0.32125 0.87546 0.992 0.0
C990 C 0.33576 0.88985 0.98768 0.0
H991 H 0.3321 0.94166 0.93637 0.0
H992 H 0.32368 0.91925 0.94794 0.0
H993 H 0.31583 0.94235 0.95637 0.0
H994 H 0.30771 0.92976 0.98892 0.0
H995 H 0.28206 0.90454 0.99621 0.0
H996 H 0.27035 0.31192 0.24497 0.0
H997 H 0.24789 0.33875 0.24253 0.0
H998 H 0.2446 0.33933 0.30536 0.0
H999 H 0.26809 0.31346 0.30808 0.0
H1000 H 0.21034 0.34253 0.25283 0.0
H1001 H 0.26052 0.39545 0.29534 0.0
H1002 H 0.26857 0.37223 0.28719 0.0
H1003 H 0.25431 0.37364 0.30869 0.0
C1004 C 0.2651 0.31792 0.25832 0.0
C1005 C 0.27129 0.31061 0.27674 0.0
C1006 C 0.25207 0.33314 0.25687 0.0
C1007 C 0.24484 0.34133 0.27378 0.0
C1008 C 0.25035 0.33358 0.29213 0.0
H1009 H 0.16967 0.44069 0.28686 0.0
H1010 H 0.18411 0.40879 0.29178 0.0
C1011 C 0.26359 0.31854 0.29362 0.0
C1012 C 0.23183 0.35817 0.27215 0.0
H1013 H 0.22849 0.40575 0.28618 0.0
C1014 C 0.2143 0.35633 0.26017 0.0
C1015 C 0.23703 0.37623 0.28167 0.0
C1016 C 0.25622 0.37963 0.29379 0.0
C1017 C 0.20191 0.37208 0.25738 0.0
C1018 C 0.20718 0.39005 0.26686 0.0
C1019 C 0.22443 0.39181 0.27913 0.0
C1020 C 0.19598 0.40776 0.263 0.0
C1021 C 0.18337 0.36954 0.24423 0.0
C1022 C 0.19768 0.41751 0.2451 0.0
C1023 C 0.18968 0.43576 0.24232 0.0
C1024 C 0.17972 0.44455 0.25737 0.0
C1025 C 0.17715 0.43426 0.27495 0.0
C1026 C 0.18542 0.41608 0.27781 0.0
H1027 H 0.17941 0.35389 0.24091 0.0
H1028 H 0.17066 0.37609 0.25109 0.0
H1029 H 0.18578 0.37726 0.23021 0.0
H1030 H 0.20596 0.41138 0.23359 0.0
H1031 H 0.19185 0.44327 0.2286 0.0
H1032 H 0.10144 0.99098 0.49466 0.0
H1033 H 0.13054 0.01339 0.50089 0.0
H1034 H 0.09366 0.06261 0.49272 0.0
H1035 H 0.06443 0.04034 0.48695 0.0
H1036 H 0.14583 0.04237 0.4755 0.0
H1037 H 0.12411 0.07464 0.54528 0.0
H1038 H 0.1125 0.05222 0.53526 0.0
H1039 H 0.1054 0.07544 0.52573 0.0
C1040 C 0.09947 0.00658 0.49449 0.0
C1041 C 0.08059 0.01389 0.49042 0.0
C1042 C 0.11614 0.01935 0.49792 0.0
C1043 C 0.11421 0.03965 0.49753 0.0
C1044 C 0.09542 0.04699 0.49343 0.0
H1045 H 0.18915 0.14457 0.50637 0.0
H1046 H 0.16241 0.1193 0.5031 0.0
C1047 C 0.07877 0.03425 0.48994 0.0
C1048 C 0.13193 0.05319 0.50075 0.0
H1049 H 0.15129 0.09069 0.52985 0.0
C1050 C 0.14715 0.05283 0.48748 0.0
C1051 C 0.1336 0.06677 0.51641 0.0
C1052 C 0.11813 0.06724 0.53161 0.0
C1053 C 0.16368 0.06618 0.48904 0.0
C1054 C 0.16515 0.08002 0.50449 0.0
C1055 C 0.15011 0.0801 0.51799 0.0
C1056 C 0.1817 0.09513 0.50646 0.0
C1057 C 0.17903 0.06584 0.47372 0.0
C1058 C 0.20146 0.08994 0.50962 0.0
C1059 C 0.21689 0.1044 0.51145 0.0
C1060 C 0.2128 0.12434 0.51029 0.0
C1061 C 0.19292 0.12941 0.50732 0.0
C1062 C 0.17756 0.11497 0.50547 0.0
H1063 H 0.17345 0.05744 0.46049 0.0
H1064 H 0.18363 0.08092 0.46922 0.0
H1065 H 0.19239 0.05881 0.47992 0.0
H1066 H 0.20495 0.07471 0.51081 0.0
H1067 H 0.232 0.09995 0.51384 0.0
H1068 H 0.78144 0.18124 0.70024 0.0
H1069 H 0.75754 0.15386 0.70529 0.0
H1070 H 0.75966 0.16656 0.76718 0.0
H1071 H 0.78358 0.19401 0.76225 0.0
H1072 H 0.76388 0.12781 0.7593 0.0
H1073 H 0.69878 0.15456 0.71663 0.0
H1074 H 0.72086 0.15441 0.70301 0.0
H1075 H 0.72017 0.17029 0.7239 0.0
C1076 C 0.77661 0.17837 0.71489 0.0
C1077 C 0.78436 0.18983 0.73084 0.0
C1078 C 0.76291 0.16275 0.71774 0.0
C1079 C 0.75657 0.15839 0.73656 0.0
C1080 C 0.76429 0.16976 0.75252 0.0
H1081 H 0.66157 0.07429 0.7672 0.0
H1082 H 0.68161 0.10432 0.76101 0.0
C1083 C 0.77803 0.18535 0.74969 0.0
C1084 C 0.7427 0.14132 0.73975 0.0
H1085 H 0.69674 0.12102 0.72623 0.0
C1086 C 0.74916 0.12638 0.75216 0.0
C1087 C 0.72341 0.1396 0.7306 0.0
C1088 C 0.71528 0.15565 0.71793 0.0
C1089 C 0.73704 0.10954 0.75532 0.0
C1090 C 0.71809 0.10744 0.74552 0.0
C1091 C 0.71139 0.12258 0.73351 0.0
C1092 C 0.70511 0.08953 0.74763 0.0
C1093 C 0.74457 0.09422 0.76928 0.0
C1094 C 0.71141 0.07139 0.74157 0.0
C1095 C 0.70006 0.05425 0.7451 0.0
C1096 C 0.68209 0.05495 0.75463 0.0
C1097 C 0.67535 0.07325 0.75986 0.0
C1098 C 0.68677 0.09042 0.75634 0.0
H1099 H 0.75684 0.10024 0.77931 0.0
H1100 H 0.73245 0.08803 0.77819 0.0
H1101 H 0.75036 0.08213 0.76076 0.0
H1102 H 0.72535 0.07045 0.73449 0.0
H1103 H 0.70571 0.04044 0.74088 0.0
H1104 H 0.4458 0.00473 0.51387 0.0
H1105 H 0.41656 0.02429 0.50913 0.0
H1106 H 0.40344 0.01582 0.56976 0.0
H1107 H 0.4328 0.99652 0.57465 0.0
H1108 H 0.37718 0.01533 0.51343 0.0
H1109 H 0.40353 0.07457 0.56512 0.0
H1110 H 0.41963 0.05627 0.55701 0.0
H1111 H 0.40292 0.05086 0.57625 0.0
C1112 C 0.43665 0.00702 0.52617 0.0
C1113 C 0.44168 0.99924 0.54468 0.0
C1114 C 0.41997 0.01821 0.52345 0.0
C1115 C 0.40801 0.02182 0.53917 0.0
C1116 C 0.41274 0.01368 0.55755 0.0
H1117 H 0.30137 0.08365 0.55465 0.0
H1118 H 0.32808 0.06085 0.55661 0.0
C1119 C 0.4295 0.00263 0.56032 0.0
C1120 C 0.39054 0.03404 0.53632 0.0
H1121 H 0.36979 0.07482 0.55333 0.0
C1122 C 0.37561 0.0284 0.52207 0.0
C1123 C 0.38856 0.05116 0.54753 0.0
C1124 C 0.4046 0.05871 0.56219 0.0
C1125 C 0.35856 0.0392 0.51906 0.0
C1126 C 0.35646 0.05606 0.53055 0.0
C1127 C 0.37141 0.06177 0.54467 0.0
C1128 C 0.33895 0.06817 0.52816 0.0
C1129 C 0.34273 0.03237 0.50391 0.0
C1130 C 0.33605 0.07962 0.51136 0.0
C1131 C 0.32082 0.09277 0.5102 0.0
C1132 C 0.30826 0.09469 0.52587 0.0
C1133 C 0.31075 0.08257 0.54232 0.0
C1134 C 0.32603 0.06954 0.5435 0.0
H1135 H 0.34489 0.01728 0.49873 0.0
H1136 H 0.32776 0.03284 0.50992 0.0
H1137 H 0.34316 0.04232 0.49111 0.0
H1138 H 0.34603 0.07891 0.49946 0.0
H1139 H 0.31934 0.10189 0.49733 0.0
H1140 H 0.57696 0.49195 0.54195 0.0
H1141 H 0.60548 0.47211 0.53727 0.0
H1142 H 0.59601 0.47659 0.47465 0.0
H1143 H 0.56719 0.49617 0.47916 0.0
H1144 H 0.60677 0.43601 0.51607 0.0
H1145 H 0.65512 0.49571 0.48579 0.0
H1146 H 0.63327 0.50036 0.49898 0.0
H1147 H 0.63077 0.49199 0.47405 0.0
C1148 C 0.58074 0.48851 0.52717 0.0
C1149 C 0.56978 0.49569 0.51092 0.0
C1150 C 0.59713 0.47729 0.52453 0.0
C1151 C 0.60299 0.47313 0.50563 0.0
C1152 C 0.59193 0.47996 0.48936 0.0
H1153 H 0.68715 0.38541 0.47867 0.0
H1154 H 0.65868 0.4062 0.47762 0.0
C1155 C 0.57548 0.49114 0.49198 0.0
C1156 C 0.62059 0.4615 0.50303 0.0
H1157 H 0.66784 0.46416 0.48698 0.0
C1158 C 0.6201 0.44211 0.50963 0.0
C1159 C 0.63799 0.46962 0.4948 0.0
C1160 C 0.63951 0.49061 0.48811 0.0
C1161 C 0.63657 0.43057 0.50822 0.0
C1162 C 0.6539 0.4386 0.4998 0.0
C1163 C 0.65444 0.45802 0.49323 0.0
C1164 C 0.67192 0.42726 0.49862 0.0
C1165 C 0.63549 0.41002 0.51619 0.0
C1166 C 0.68908 0.43269 0.51015 0.0
C1167 C 0.7054 0.42088 0.51077 0.0
C1168 C 0.70486 0.40347 0.49978 0.0
C1169 C 0.68804 0.39866 0.4874 0.0
C1170 C 0.6717 0.41047 0.48684 0.0
H1171 H 0.62265 0.40739 0.52559 0.0
H1172 H 0.63387 0.39947 0.50382 0.0
H1173 H 0.64934 0.40699 0.52487 0.0
H1174 H 0.68955 0.44568 0.51926 0.0
H1175 H 0.71815 0.42507 0.52038 0.0
H1176 H 0.67782 0.22873 0.31095 0.0
H1177 H 0.68243 0.25029 0.33959 0.0
H1178 H 0.74565 0.25409 0.3323 0.0
H1179 H 0.74112 0.23299 0.30339 0.0
H1180 H 0.70479 0.24282 0.37363 0.0
H1181 H 0.73269 0.31146 0.33918 0.0
H1182 H 0.72026 0.29161 0.32524 0.0
H1183 H 0.74607 0.29053 0.33287 0.0
C1184 C 0.69266 0.23442 0.31526 0.0
C1185 C 0.70911 0.22917 0.3049 0.0
C1186 C 0.69527 0.24667 0.33165 0.0
C1187 C 0.71434 0.25403 0.33787 0.0
C1188 C 0.73077 0.2489 0.32752 0.0
H1189 H 0.76462 0.29067 0.44888 0.0
H1190 H 0.75481 0.27592 0.41721 0.0
C1191 C 0.72818 0.23663 0.31116 0.0
C1192 C 0.71725 0.26595 0.35597 0.0
H1193 H 0.73754 0.3094 0.37411 0.0
C1194 C 0.71171 0.25747 0.3737 0.0
C1195 C 0.72612 0.28514 0.356 0.0
C1196 C 0.73146 0.29532 0.33728 0.0
C1197 C 0.7156 0.26734 0.39156 0.0
C1198 C 0.72538 0.28608 0.39168 0.0
C1199 C 0.73017 0.29495 0.37392 0.0
C1200 C 0.73184 0.29602 0.41027 0.0
C1201 C 0.70955 0.25753 0.41026 0.0
C1202 C 0.72243 0.31253 0.41659 0.0
C1203 C 0.72795 0.32105 0.43481 0.0
C1204 C 0.74308 0.31324 0.44688 0.0
C1205 C 0.75285 0.29706 0.44008 0.0
C1206 C 0.74726 0.28855 0.42198 0.0
H1207 H 0.6985 0.24514 0.40741 0.0
H1208 H 0.72286 0.25177 0.41797 0.0
H1209 H 0.70316 0.26817 0.42016 0.0
H1210 H 0.71052 0.31851 0.40764 0.0
H1211 H 0.72016 0.33352 0.43955 0.0
H1212 H 0.49341 0.0388 0.9154 0.0
H1213 H 0.51726 0.03244 0.89076 0.0
H1214 H 0.51197 0.97078 0.90348 0.0
H1215 H 0.48869 0.97712 0.92885 0.0
H1216 H 0.55021 0.98361 0.90211 0.0
H1217 H 0.50856 0.00965 0.83642 0.0
H1218 H 0.51091 0.02789 0.85533 0.0
H1219 H 0.49704 0.0052 0.8594 0.0
C1220 C 0.49734 0.02387 0.91302 0.0
C1221 C 0.48915 0.00848 0.92416 0.0
C1222 C 0.51076 0.02023 0.8987 0.0
C1223 C 0.51612 0.00108 0.89498 0.0
C1224 C 0.50789 0.98564 0.90596 0.0
H1225 H 0.59325 0.98169 0.79714 0.0
H1226 H 0.56524 0.97839 0.81873 0.0
C1227 C 0.49449 0.98928 0.92037 0.0
C1228 C 0.53129 0.99746 0.88056 0.0
H1229 H 0.54388 0.0074 0.83368 0.0
C1230 C 0.54869 0.98855 0.88706 0.0
C1231 C 0.52919 0.00355 0.86082 0.0
C1232 C 0.51031 0.01191 0.85252 0.0
C1233 C 0.56446 0.98653 0.87467 0.0
C1234 C 0.56295 0.99399 0.85539 0.0
C1235 C 0.54514 0.00192 0.84855 0.0
C1236 C 0.58014 0.99497 0.8426 0.0
C1237 C 0.58266 0.97659 0.88245 0.0
C1238 C 0.59771 0.00549 0.84879 0.0
C1239 C 0.61368 0.00735 0.83658 0.0
C1240 C 0.61237 0.99889 0.81778 0.0
C1241 C 0.59476 0.98831 0.81156 0.0
C1242 C 0.57874 0.98643 0.82386 0.0
H1243 H 0.57899 0.9662 0.89437 0.0
H1244 H 0.5896 0.96852 0.87069 0.0
H1245 H 0.59371 0.98778 0.8886 0.0
H1246 H 0.59896 0.01263 0.86298 0.0
H1247 H 0.62695 0.0157 0.84182 0.0
H1248 H 0.26582 0.24525 0.30669 0.0
H1249 H 0.26332 0.2244 0.33563 0.0
H1250 H 0.32638 0.23333 0.34821 0.0
H1251 H 0.32897 0.25455 0.31953 0.0
H1252 H 0.28421 0.18954 0.34881 0.0
H1253 H 0.29898 0.25506 0.39668 0.0
H1254 H 0.29214 0.25696 0.37093 0.0
H1255 H 0.3169 0.25097 0.37867 0.0
C1256 C 0.27917 0.2427 0.31556 0.0
C1257 C 0.29755 0.25174 0.31096 0.0
C1258 C 0.27775 0.23065 0.33198 0.0
C1259 C 0.29463 0.2275 0.34411 0.0
C1260 C 0.31316 0.23571 0.33906 0.0
H1261 H 0.29622 0.15907 0.45333 0.0
H1262 H 0.30404 0.17008 0.42025 0.0
C1263 C 0.31462 0.24774 0.32262 0.0
C1264 C 0.29246 0.21709 0.36291 0.0
H1265 H 0.29298 0.22495 0.41224 0.0
C1266 C 0.28634 0.19717 0.36271 0.0
C1267 C 0.29507 0.2272 0.38097 0.0
C1268 C 0.301 0.24876 0.38197 0.0
C1269 C 0.28251 0.18716 0.3802 0.0
C1270 C 0.28485 0.19739 0.39817 0.0
C1271 C 0.29133 0.21717 0.39837 0.0
C1272 C 0.279 0.1885 0.41687 0.0
C1273 C 0.27531 0.16596 0.37941 0.0
C1274 C 0.2622 0.19498 0.42567 0.0
C1275 C 0.25771 0.18878 0.44442 0.0
C1276 C 0.27003 0.17605 0.45489 0.0
C1277 C 0.28642 0.16886 0.44568 0.0
C1278 C 0.2909 0.1751 0.42679 0.0
H1279 H 0.27294 0.16046 0.36414 0.0
H1280 H 0.28638 0.15697 0.38723 0.0
H1281 H 0.26115 0.16397 0.38698 0.0
H1282 H 0.25286 0.20532 0.41821 0.0
H1283 H 0.24488 0.19451 0.45094 0.0
H1284 H 0.51188 0.46529 0.93512 0.0
H1285 H 0.49019 0.47268 0.90678 0.0
H1286 H 0.49506 0.53389 0.92201 0.0
H1287 H 0.51659 0.5266 0.95074 0.0
H1288 H 0.45319 0.49263 0.90344 0.0
H1289 H 0.51528 0.53081 0.86551 0.0
H1290 H 0.51954 0.51518 0.88638 0.0
H1291 H 0.51076 0.53919 0.88976 0.0
C1292 C 0.50807 0.4803 0.93272 0.0
C1293 C 0.51606 0.49536 0.94521 0.0
C1294 C 0.49571 0.48449 0.91645 0.0
C1295 C 0.49117 0.50383 0.91222 0.0
C1296 C 0.4986 0.51888 0.92491 0.0
H1297 H 0.41574 0.53557 0.80856 0.0
H1298 H 0.42903 0.53477 0.84267 0.0
C1299 C 0.51096 0.51469 0.94126 0.0
C1300 C 0.47956 0.50812 0.8939 0.0
H1301 H 0.48445 0.52712 0.84811 0.0
C1302 C 0.45988 0.50044 0.89143 0.0
C1303 C 0.48843 0.51819 0.87824 0.0
C1304 C 0.5097 0.52624 0.87992 0.0
C1305 C 0.44901 0.50217 0.8735 0.0
C1306 C 0.45811 0.51174 0.85773 0.0
C1307 C 0.47754 0.51992 0.86036 0.0
C1308 C 0.44866 0.51145 0.83775 0.0
C1309 C 0.42823 0.49303 0.87112 0.0
C1310 C 0.45514 0.49844 0.82391 0.0
C1311 C 0.44761 0.49879 0.80457 0.0
C1312 C 0.43348 0.51228 0.79857 0.0
C1313 C 0.42657 0.52498 0.81266 0.0
C1314 C 0.43414 0.52457 0.83213 0.0
H1315 H 0.42327 0.48597 0.88479 0.0
H1316 H 0.41773 0.50439 0.86674 0.0
H1317 H 0.42752 0.4819 0.85925 0.0
H1318 H 0.46634 0.48821 0.82803 0.0
H1319 H 0.45326 0.48872 0.79423 0.0
H1320 H 0.71013 0.76773 0.20561 0.0
H1321 H 0.71462 0.74172 0.18185 0.0
H1322 H 0.73681 0.78444 0.14101 0.0
H1323 H 0.73179 0.81063 0.16431 0.0
H1324 H 0.69844 0.74012 0.13858 0.0
H1325 H 0.78066 0.74146 0.15098 0.0
H1326 H 0.76447 0.75026 0.16898 0.0
H1327 H 0.76968 0.76473 0.14781 0.0
C1328 C 0.71568 0.77166 0.19147 0.0
C1329 C 0.72065 0.79131 0.18691 0.0
C1330 C 0.71834 0.75676 0.17798 0.0
C1331 C 0.72617 0.76121 0.15981 0.0
C1332 C 0.73092 0.78075 0.15508 0.0
H1333 H 0.73783 0.70315 0.05081 0.0
H1334 H 0.72787 0.72298 0.07797 0.0
C1335 C 0.72815 0.79566 0.16846 0.0
C1336 C 0.72967 0.74548 0.14576 0.0
H1337 H 0.76672 0.72247 0.12429 0.0
C1338 C 0.71333 0.7361 0.13554 0.0
C1339 C 0.74911 0.74021 0.14203 0.0
C1340 C 0.76705 0.74954 0.15308 0.0
C1341 C 0.71602 0.72199 0.1211 0.0
C1342 C 0.73551 0.71727 0.11683 0.0
C1343 C 0.75179 0.72616 0.12758 0.0
C1344 C 0.73949 0.70398 0.10054 0.0
C1345 C 0.69803 0.71232 0.11042 0.0
C1346 C 0.74927 0.68668 0.10424 0.0
C1347 C 0.7549 0.67521 0.08871 0.0
C1348 C 0.75108 0.68102 0.06921 0.0
C1349 C 0.74085 0.69813 0.0656 0.0
C1350 C 0.73509 0.70949 0.08113 0.0
H1351 H 0.68435 0.71382 0.1186 0.0
H1352 H 0.6958 0.71934 0.09591 0.0
H1353 H 0.70016 0.69655 0.10796 0.0
H1354 H 0.75292 0.68228 0.11915 0.0
H1355 H 0.76284 0.66217 0.09199 0.0
H1356 H 0.0151 0.04972 0.0589 0.0
H1357 H 0.99667 0.04648 0.08858 0.0
H1358 H 0.98999 0.98407 0.07991 0.0
H1359 H 0.00785 0.98726 0.04954 0.0
H1360 H 0.9551 0.00056 0.09088 0.0
H1361 H 0.01899 0.02522 0.14023 0.0
H1362 H 0.01409 0.04233 0.12096 0.0
H1363 H 0.02179 0.01832 0.11507 0.0
C1364 C 0.0095 0.0353 0.06309 0.0
C1365 C 0.01293 0.01874 0.05178 0.0
C1366 C 0.99918 0.03346 0.08023 0.0
C1367 C 0.99229 0.01501 0.08663 0.0
C1368 C 0.99535 0.99843 0.07528 0.0
H1369 H 0.95359 0.00403 0.206 0.0
H1370 H 0.96948 0.99822 0.17541 0.0
C1371 C 0.00566 0.00027 0.05802 0.0
C1372 C 0.98187 0.01323 0.10519 0.0
H1373 H 0.98691 0.02523 0.15367 0.0
C1374 C 0.96208 0.00573 0.10468 0.0
C1375 C 0.99113 0.01966 0.12323 0.0
C1376 C 0.01273 0.02664 0.12499 0.0
C1377 C 0.95105 0.00526 0.12161 0.0
C1378 C 0.95996 0.01285 0.13939 0.0
C1379 C 0.97999 0.01961 0.14001 0.0
C1380 C 0.94881 0.01447 0.15747 0.0
C1381 C 0.93002 0.99659 0.12028 0.0
C1382 C 0.93176 0.0254 0.15759 0.0
C1383 C 0.92245 0.02855 0.17508 0.0
C1384 C 0.9302 0.02106 0.19284 0.0
C1385 C 0.94709 0.00987 0.19261 0.0
C1386 C 0.95627 0.00658 0.17511 0.0
H1387 H 0.92773 0.98599 0.10797 0.0
H1388 H 0.92615 0.98907 0.13407 0.0
H1389 H 0.91964 0.00846 0.11757 0.0
H1390 H 0.92602 0.03209 0.14428 0.0
H1391 H 0.90956 0.03736 0.17476 0.0
H1392 H 0.33032 0.75055 0.18953 0.0
H1393 H 0.32429 0.77119 0.16082 0.0
H1394 H 0.26325 0.77539 0.17576 0.0
H1395 H 0.26915 0.7547 0.20438 0.0
H1396 H 0.26676 0.76422 0.13795 0.0
H1397 H 0.31651 0.82964 0.15516 0.0
H1398 H 0.32871 0.80695 0.15673 0.0
H1399 H 0.30976 0.8118 0.17343 0.0
C1400 C 0.31572 0.75618 0.18687 0.0
C1401 C 0.30018 0.75096 0.19913 0.0
C1402 C 0.31231 0.76802 0.17051 0.0
C1403 C 0.29338 0.775 0.16629 0.0
C1404 C 0.27798 0.77017 0.17878 0.0
H1405 H 0.25403 0.85652 0.0771 0.0
H1406 H 0.26503 0.84119 0.10784 0.0
C1407 C 0.28134 0.75829 0.19505 0.0
C1408 C 0.2891 0.78599 0.14804 0.0
H1409 H 0.30221 0.8272 0.1226 0.0
C1410 C 0.27447 0.77802 0.13463 0.0
C1411 C 0.29906 0.80408 0.14384 0.0
C1412 C 0.31426 0.81375 0.15811 0.0
C1413 C 0.26964 0.78752 0.11703 0.0
C1414 C 0.28003 0.80528 0.11252 0.0
C1415 C 0.29447 0.81345 0.12602 0.0
C1416 C 0.2757 0.81563 0.09393 0.0
C1417 C 0.25322 0.77859 0.10356 0.0
C1418 C 0.27871 0.80663 0.07596 0.0
C1419 C 0.27236 0.81527 0.05842 0.0
C1420 C 0.26306 0.83317 0.05853 0.0
C1421 C 0.26109 0.84269 0.07652 0.0
C1422 C 0.26738 0.83399 0.09409 0.0
H1423 H 0.24357 0.76779 0.11128 0.0
H1424 H 0.24381 0.79004 0.09715 0.0
H1425 H 0.25986 0.7709 0.09138 0.0
H1426 H 0.28541 0.7926 0.07554 0.0
H1427 H 0.27415 0.80753 0.04486 0.0
H1428 H 0.00129 0.45296 0.09046 0.0
H1429 H 0.0242 0.45648 0.11924 0.0
H1430 H 0.03034 0.51867 0.10942 0.0
H1431 H 0.00713 0.51525 0.0808 0.0
H1432 H 0.06218 0.46876 0.12067 0.0
H1433 H 0.02107 0.51737 0.16715 0.0
H1434 H 0.00966 0.50516 0.14574 0.0
H1435 H 0.02478 0.52738 0.14328 0.0
C1436 C 0.00746 0.46739 0.09451 0.0
C1437 C 0.00243 0.48384 0.08339 0.0
C1438 C 0.02048 0.4694 0.11099 0.0
C1439 C 0.02879 0.48787 0.11669 0.0
C1440 C 0.02373 0.50434 0.10565 0.0
H1441 H 0.13914 0.50922 0.18428 0.0
H1442 H 0.11231 0.50554 0.15915 0.0
C1443 C 0.01053 0.50236 0.08925 0.0
C1444 C 0.04372 0.48965 0.1334 0.0
H1445 H 0.05535 0.51377 0.17655 0.0
C1446 C 0.06059 0.4785 0.13295 0.0
C1447 C 0.04153 0.50213 0.1496 0.0
C1448 C 0.02318 0.51353 0.15162 0.0
C1449 C 0.07554 0.47983 0.14796 0.0
C1450 C 0.07386 0.49306 0.16363 0.0
C1451 C 0.05674 0.50383 0.1644 0.0
C1452 C 0.08988 0.49611 0.17917 0.0
C1453 C 0.09288 0.46684 0.14696 0.0
C1454 C 0.08603 0.49279 0.19893 0.0
C1455 C 0.10135 0.49511 0.21345 0.0
C1456 C 0.1208 0.5008 0.20845 0.0
C1457 C 0.12443 0.50458 0.18867 0.0
C1458 C 0.10911 0.50238 0.17423 0.0
H1459 H 0.08904 0.45372 0.13769 0.0
H1460 H 0.10544 0.47512 0.14036 0.0
H1461 H 0.09793 0.46194 0.16177 0.0
H1462 H 0.07125 0.48807 0.20308 0.0
H1463 H 0.09801 0.49213 0.22853 0.0
H1464 H 0.34608 0.69813 0.25997 0.0
H1465 H 0.37425 0.70222 0.28372 0.0
H1466 H 0.36924 0.76474 0.28234 0.0
H1467 H 0.34046 0.76074 0.2593 0.0
H1468 H 0.41034 0.72179 0.2814 0.0
H1469 H 0.36807 0.75324 0.34046 0.0
H1470 H 0.35604 0.74187 0.3189 0.0
H1471 H 0.36647 0.76653 0.31787 0.0
C1472 C 0.3508 0.71275 0.2649 0.0
C1473 C 0.34084 0.72909 0.25788 0.0
C1474 C 0.36702 0.71507 0.27834 0.0
C1475 C 0.37363 0.73375 0.28505 0.0
C1476 C 0.36413 0.75015 0.27767 0.0
H1477 H 0.48659 0.76023 0.35016 0.0
H1478 H 0.45974 0.75737 0.3248 0.0
C1479 C 0.34782 0.74784 0.2643 0.0
C1480 C 0.39042 0.736 0.29984 0.0
H1481 H 0.40302 0.75314 0.34591 0.0
C1482 C 0.40876 0.72864 0.29551 0.0
C1483 C 0.38823 0.74469 0.31834 0.0
C1484 C 0.3686 0.75187 0.3243 0.0
C1485 C 0.42502 0.72982 0.30917 0.0
C1486 C 0.42298 0.73898 0.32747 0.0
C1487 C 0.40461 0.74628 0.3318 0.0
C1488 C 0.43945 0.7406 0.34266 0.0
C1489 C 0.44405 0.72077 0.30405 0.0
C1490 C 0.43681 0.73254 0.36127 0.0
C1491 C 0.452 0.73436 0.37587 0.0
C1492 C 0.47021 0.74428 0.37216 0.0
C1493 C 0.47283 0.75235 0.35348 0.0
C1494 C 0.45753 0.75064 0.33891 0.0
H1495 H 0.44151 0.70992 0.29198 0.0
H1496 H 0.45472 0.73241 0.29915 0.0
H1497 H 0.45097 0.71343 0.31695 0.0
H1498 H 0.42295 0.72478 0.3645 0.0
H1499 H 0.44946 0.72793 0.39005 0.0
H1500 H 0.95277 0.43697 0.01875 0.0
H1501 H 0.95905 0.4099 0.99679 0.0
H1502 H 0.02093 0.42925 0.99662 0.0
H1503 H 0.0148 0.45598 0.019 0.0
H1504 H 0.97285 0.40819 0.96044 0.0
H1505 H 0.02516 0.3733 0.01322 0.0
H1506 H 0.01023 0.39305 0.02013 0.0
H1507 H 0.03269 0.39804 0.00744 0.0
C1508 C 0.96768 0.43546 0.01394 0.0
C1509 C 0.98335 0.4484 0.02073 0.0
C1510 C 0.97126 0.42001 0.00142 0.0
C1511 C 0.99055 0.4173 0.99538 0.0
C1512 C 0.00605 0.4307 0.00153 0.0
H1513 H 0.03486 0.32564 0.92191 0.0
H1514 H 0.03013 0.35758 0.93685 0.0
C1515 C 0.00253 0.44599 0.01425 0.0
C1516 C 0.99442 0.40025 0.98295 0.0
H1517 H 0.02132 0.35936 0.98151 0.0
C1518 C 0.98348 0.39755 0.96504 0.0
C1519 C 0.00825 0.3863 0.989 0.0
C1520 C 0.01962 0.38766 0.00857 0.0
C1521 C 0.98596 0.38124 0.95309 0.0
C1522 C 0.99974 0.36739 0.95918 0.0
C1523 C 0.01093 0.37021 0.97685 0.0
C1524 C 0.00165 0.34901 0.94826 0.0
C1525 C 0.97375 0.37874 0.9341 0.0
C1526 C 0.98711 0.3338 0.94966 0.0
C1527 C 0.98984 0.31555 0.94139 0.0
C1528 C 0.00713 0.31222 0.93144 0.0
C1529 C 0.02134 0.32777 0.92939 0.0
C1530 C 0.0187 0.34599 0.93793 0.0
H1531 H 0.96604 0.39219 0.92996 0.0
H1532 H 0.98334 0.37481 0.9221 0.0
H1533 H 0.9624 0.3666 0.93562 0.0
H1534 H 0.97394 0.33587 0.95773 0.0
H1535 H 0.97857 0.30393 0.94315 0.0
H1536 H 0.66069 0.81094 0.21831 0.0
H1537 H 0.63355 0.80785 0.24087 0.0
H1538 H 0.67403 0.8267 0.28873 0.0
H1539 H 0.70119 0.8296 0.26644 0.0
H1540 H 0.63201 0.78373 0.27377 0.0
H1541 H 0.627 0.86134 0.29493 0.0
H1542 H 0.63961 0.85398 0.27362 0.0
H1543 H 0.6518 0.85304 0.29757 0.0
C1544 C 0.6638 0.81445 0.23364 0.0
C1545 C 0.6831 0.8206 0.24056 0.0
C1546 C 0.64826 0.81279 0.24647 0.0
C1547 C 0.65171 0.81739 0.26639 0.0
C1548 C 0.67092 0.82358 0.27331 0.0
H1549 H 0.59901 0.80336 0.37603 0.0
H1550 H 0.61843 0.81232 0.34789 0.0
C1551 C 0.68644 0.82522 0.26054 0.0
C1552 C 0.63564 0.81449 0.28029 0.0
H1553 H 0.61165 0.83752 0.31586 0.0
C1554 C 0.62728 0.79552 0.28277 0.0
C1555 C 0.62954 0.82993 0.29197 0.0
C1556 C 0.63731 0.85076 0.28929 0.0
C1557 C 0.61373 0.79138 0.29733 0.0
C1558 C 0.60814 0.80671 0.30948 0.0
C1559 C 0.61598 0.8258 0.30654 0.0
C1560 C 0.59542 0.80292 0.32628 0.0
C1561 C 0.60628 0.77047 0.30024 0.0
C1562 C 0.57581 0.79521 0.32344 0.0
C1563 C 0.56464 0.79001 0.33954 0.0
C1564 C 0.57291 0.79252 0.35873 0.0
C1565 C 0.59223 0.80113 0.36147 0.0
C1566 C 0.60335 0.80629 0.34539 0.0
H1567 H 0.61505 0.75997 0.29232 0.0
H1568 H 0.60685 0.76665 0.31603 0.0
H1569 H 0.59058 0.76866 0.29462 0.0
H1570 H 0.56929 0.79284 0.30879 0.0
H1571 H 0.54976 0.78354 0.33692 0.0
H1572 H 0.03628 0.04532 0.96578 0.0
H1573 H 0.03579 0.07599 0.94732 0.0
H1574 H 0.0267 0.10754 0.00048 0.0
H1575 H 0.02805 0.0773 0.01911 0.0
H1576 H 0.00687 0.10363 0.94269 0.0
H1577 H 0.07562 0.13621 0.97979 0.0
H1578 H 0.06831 0.11058 0.98166 0.0
H1579 H 0.05734 0.12831 0.99669 0.0
C1580 C 0.03433 0.05882 0.97355 0.0
C1581 C 0.03231 0.05885 0.99395 0.0
C1582 C 0.03391 0.07629 0.96296 0.0
C1583 C 0.03157 0.09405 0.97261 0.0
C1584 C 0.02892 0.09404 0.99282 0.0
H1585 H 0.01912 0.21482 0.94575 0.0
H1586 H 0.01761 0.18161 0.95885 0.0
C1587 C 0.02943 0.07666 0.00341 0.0
C1588 C 0.03206 0.11273 0.96171 0.0
H1589 H 0.05566 0.15801 0.96116 0.0
C1590 C 0.01766 0.11546 0.94656 0.0
C1591 C 0.04628 0.12807 0.96669 0.0
C1592 C 0.06289 0.12561 0.98196 0.0
C1593 C 0.01664 0.13345 0.93679 0.0
C1594 C 0.03036 0.14895 0.94236 0.0
C1595 C 0.04505 0.14608 0.95712 0.0
C1596 C 0.02952 0.16852 0.93344 0.0
C1597 C 0.00063 0.13607 0.92099 0.0
C1598 C 0.03659 0.17202 0.91476 0.0
C1599 C 0.03758 0.19101 0.90724 0.0
C1600 C 0.03145 0.20674 0.91831 0.0
C1601 C 0.02385 0.20303 0.93681 0.0
C1602 C 0.023 0.18408 0.94434 0.0
H1603 H 0.99004 0.12312 0.91953 0.0
H1604 H 0.99225 0.14915 0.92418 0.0
H1605 H 0.00757 0.13856 0.90675 0.0
H1606 H 0.04186 0.16015 0.90624 0.0
H1607 H 0.04351 0.19342 0.89295 0.0
H1608 H 0.35532 0.27368 0.27589 0.0
H1609 H 0.38226 0.2733 0.25313 0.0
H1610 H 0.34134 0.28752 0.20548 0.0
H1611 H 0.31432 0.28766 0.22799 0.0
H1612 H 0.38407 0.24951 0.21966 0.0
H1613 H 0.38782 0.3281 0.20011 0.0
H1614 H 0.37549 0.31885 0.22134 0.0
H1615 H 0.36324 0.31675 0.19741 0.0
C1616 C 0.35203 0.27666 0.26055 0.0
C1617 C 0.33265 0.28077 0.25378 0.0
C1618 C 0.36747 0.27655 0.24761 0.0
C1619 C 0.36386 0.28072 0.2277 0.0
C1620 C 0.34455 0.28474 0.22088 0.0
H1621 H 0.41997 0.27685 0.11896 0.0
H1622 H 0.39932 0.28209 0.14663 0.0
C1623 C 0.32912 0.28481 0.23377 0.0
C1624 C 0.38 0.27994 0.2138 0.0
H1625 H 0.40434 0.30668 0.17939 0.0
C1626 C 0.38874 0.26205 0.21103 0.0
C1627 C 0.38603 0.29636 0.20261 0.0
C1628 C 0.37781 0.31616 0.20561 0.0
C1629 C 0.40269 0.25989 0.19669 0.0
C1630 C 0.40831 0.27618 0.1851 0.0
C1631 C 0.4 0.29422 0.18829 0.0
C1632 C 0.42167 0.27441 0.16866 0.0
C1633 C 0.41058 0.23997 0.19346 0.0
C1634 C 0.44131 0.26888 0.17189 0.0
C1635 C 0.45319 0.2658 0.15605 0.0
C1636 C 0.44563 0.26831 0.13672 0.0
C1637 C 0.42624 0.27468 0.13363 0.0
C1638 C 0.4144 0.27771 0.14944 0.0
H1639 H 0.40166 0.22822 0.2007 0.0
H1640 H 0.4107 0.23657 0.17758 0.0
H1641 H 0.42608 0.23981 0.19966 0.0
H1642 H 0.44734 0.26664 0.18664 0.0
H1643 H 0.46811 0.26103 0.15894 0.0
H1644 H 0.55313 0.46007 0.02541 0.0
H1645 H 0.55044 0.4287 0.0422 0.0
H1646 H 0.51967 0.40277 0.99104 0.0
H1647 H 0.52389 0.43344 0.97354 0.0
H1648 H 0.52095 0.40629 0.05314 0.0
H1649 H 0.56104 0.36444 -5e-05 0.0
H1650 H 0.56026 0.39068 0.9989 0.0
H1651 H 0.54009 0.37533 0.98811 0.0
C1652 C 0.54616 0.44762 0.01753 0.0
C1653 C 0.53897 0.44939 0.99795 0.0
C1654 C 0.54442 0.4297 0.02728 0.0
C1655 C 0.53528 0.41319 0.01776 0.0
C1656 C 0.52737 0.41509 0.99853 0.0
H1657 H 0.48772 0.30815 0.07296 0.0
H1658 H 0.49398 0.34148 0.06119 0.0
C1659 C 0.52946 0.43286 0.98863 0.0
C1660 C 0.53384 0.39402 0.02795 0.0
H1661 H 0.54157 0.34557 0.02217 0.0
C1662 C 0.52566 0.39303 0.04647 0.0
C1663 C 0.54042 0.37675 0.01953 0.0
C1664 C 0.55115 0.37689 0.00064 0.0
C1665 C 0.52336 0.37521 0.0565 0.0
C1666 C 0.52862 0.35773 0.04741 0.0
C1667 C 0.53728 0.35885 0.02913 0.0
C1668 C 0.52512 0.33806 0.05625 0.0
C1669 C 0.51566 0.37545 0.07685 0.0
C1670 C 0.54036 0.32478 0.05708 0.0
C1671 C 0.53659 0.30553 0.06316 0.0
C1672 C 0.51761 0.29925 0.06892 0.0
C1673 C 0.50256 0.31269 0.06886 0.0
C1674 C 0.50619 0.33182 0.06227 0.0
H1675 H 0.51932 0.38977 0.08418 0.0
H1676 H 0.49923 0.37324 0.07588 0.0
H1677 H 0.52192 0.36376 0.08614 0.0
H1678 H 0.55509 0.32917 0.05255 0.0
H1679 H 0.54847 0.29547 0.06311 0.0
H1680 H 0.6754 0.2406 0.24274 0.0
H1681 H 0.64802 0.24553 0.21889 0.0
H1682 H 0.63788 0.1831 0.21266 0.0
H1683 H 0.66458 0.17801 0.2373 0.0
H1684 H 0.64375 0.23517 0.18126 0.0
H1685 H 0.58246 0.19956 0.22148 0.0
H1686 H 0.60672 0.20541 0.2329 0.0
H1687 H 0.6024 0.18373 0.21809 0.0
C1688 C 0.66713 0.22789 0.23658 0.0
C1689 C 0.67211 0.20889 0.24211 0.0
C1690 C 0.65157 0.23075 0.22282 0.0
C1691 C 0.64064 0.2147 0.21424 0.0
C1692 C 0.64578 0.19572 0.21943 0.0
H1693 H 0.56986 0.21666 0.10547 0.0
H1694 H 0.59526 0.21263 0.13154 0.0
C1695 C 0.66126 0.19283 0.23332 0.0
C1696 C 0.62437 0.2179 0.19935 0.0
H1697 H 0.5752 0.20695 0.18785 0.0
C1698 C 0.62874 0.22909 0.18276 0.0
C1699 C 0.60469 0.21026 0.20147 0.0
C1700 C 0.5987 0.19925 0.21954 0.0
C1701 C 0.61411 0.23248 0.16803 0.0
C1702 C 0.59467 0.22401 0.16968 0.0
C1703 C 0.59016 0.21322 0.18648 0.0
C1704 C 0.5789 0.22602 0.15401 0.0
C1705 C 0.61958 0.24535 0.15101 0.0
C1706 C 0.56089 0.23422 0.1581 0.0
C1707 C 0.54614 0.23632 0.14323 0.0
C1708 C 0.54917 0.23026 0.12397 0.0
C1709 C 0.5671 0.22172 0.12005 0.0
C1710 C 0.58172 0.2195 0.13493 0.0
H1711 H 0.63273 0.2553 0.15485 0.0
H1712 H 0.6234 0.23603 0.13859 0.0
H1713 H 0.60704 0.25431 0.14606 0.0
H1714 H 0.55834 0.23922 0.17276 0.0
H1715 H 0.53251 0.24292 0.14678 0.0
H1716 H 0.47967 0.06989 0.95632 0.0
H1717 H 0.48577 0.09879 0.97719 0.0
H1718 H 0.46781 0.06531 0.02728 0.0
H1719 H 0.4621 0.03617 0.00663 0.0
H1720 H 0.44896 0.10196 0.02124 0.0
H1721 H 0.53125 0.11017 0.01978 0.0
H1722 H 0.5183 0.10721 0.99627 0.0
H1723 H 0.51746 0.08751 0.01358 0.0
C1724 C 0.47734 0.06855 0.97183 0.0
C1725 C 0.47041 0.05067 0.97978 0.0
C1726 C 0.48082 0.0851 0.98373 0.0
C1727 C 0.47745 0.0841 0.00379 0.0
C1728 C 0.47055 0.06634 0.01182 0.0
H1729 H 0.47586 0.17464 0.09384 0.0
H1730 H 0.47463 0.14324 0.0766 0.0
C1731 C 0.46716 0.04975 -4e-05 0.0
C1732 C 0.48019 0.10185 0.0162 0.0
H1733 H 0.5149 0.13639 0.03362 0.0
C1734 C 0.46338 0.10943 0.02411 0.0
C1735 C 0.49902 0.11155 0.01978 0.0
C1736 C 0.5176 0.10366 0.01206 0.0
C1737 C 0.4648 0.12681 0.03509 0.0
C1738 C 0.48364 0.13658 0.03867 0.0
C1739 C 0.50049 0.12886 0.03091 0.0
C1740 C 0.48601 0.15521 0.04982 0.0
C1741 C 0.44599 0.13489 0.04215 0.0
C1742 C 0.49371 0.17218 0.04084 0.0
C1743 C 0.49468 0.19009 0.05074 0.0
C1744 C 0.48796 0.19135 0.06983 0.0
C1745 C 0.48099 0.17418 0.07908 0.0
C1746 C 0.48015 0.15625 0.06921 0.0
H1747 H 0.43256 0.12855 0.03394 0.0
H1748 H 0.44461 0.13124 0.05785 0.0
H1749 H 0.44628 0.15105 0.04065 0.0
H1750 H 0.49842 0.17168 0.02593 0.0
H1751 H 0.50012 0.20304 0.0432 0.0
H1752 H 0.22794 0.37351 0.72051 0.0
H1753 H 0.25248 0.4012 0.72311 0.0
H1754 H 0.29934 0.36229 0.71342 0.0
H1755 H 0.27507 0.33462 0.711 0.0
H1756 H 0.28576 0.40643 0.74963 0.0
H1757 H 0.30854 0.40544 0.67281 0.0
H1758 H 0.2861 0.39279 0.68049 0.0
H1759 H 0.30975 0.38216 0.68474 0.0
C1760 C 0.24348 0.37086 0.71898 0.0
C1761 C 0.24952 0.35187 0.71538 0.0
C1762 C 0.25745 0.38669 0.72039 0.0
C1763 C 0.27767 0.38383 0.71811 0.0
C1764 C 0.28375 0.36489 0.71474 0.0
H1765 H 0.38998 0.44841 0.72652 0.0
H1766 H 0.36206 0.42435 0.72304 0.0
C1767 C 0.26984 0.34909 0.71334 0.0
C1768 C 0.29259 0.40047 0.71984 0.0
H1769 H 0.32952 0.42442 0.6955 0.0
C1770 C 0.29519 0.41055 0.73774 0.0
C1771 C 0.30483 0.40579 0.70429 0.0
C1772 C 0.30208 0.39612 0.68443 0.0
C1773 C 0.31028 0.42531 0.74076 0.0
C1774 C 0.32285 0.43027 0.72536 0.0
C1775 C 0.31992 0.42051 0.70731 0.0
C1776 C 0.33961 0.44506 0.72783 0.0
C1777 C 0.31313 0.43497 0.76062 0.0
C1778 C 0.33623 0.46473 0.73156 0.0
C1779 C 0.35219 0.47858 0.73359 0.0
C1780 C 0.37183 0.47301 0.73183 0.0
C1781 C 0.37509 0.45326 0.72801 0.0
C1782 C 0.35914 0.43946 0.72598 0.0
H1783 H 0.30513 0.42661 0.77201 0.0
H1784 H 0.32914 0.43653 0.76524 0.0
H1785 H 0.30728 0.44982 0.75982 0.0
H1786 H 0.32123 0.46941 0.73269 0.0
H1787 H 0.3491 0.49366 0.73642 0.0
H1788 H 0.21421 0.65849 0.76081 0.0
H1789 H 0.2396 0.63418 0.7594 0.0
H1790 H 0.28505 0.67854 0.7758 0.0
H1791 H 0.25987 0.70283 0.77723 0.0
H1792 H 0.27286 0.63331 0.73695 0.0
H1793 H 0.2953 0.6358 0.81598 0.0
H1794 H 0.2728 0.64612 0.80622 0.0
H1795 H 0.29636 0.65945 0.80468 0.0
C1796 C 0.22963 0.66307 0.76399 0.0
C1797 C 0.23501 0.68254 0.76933 0.0
C1798 C 0.2441 0.64916 0.76328 0.0
C1799 C 0.26415 0.65447 0.76794 0.0
C1800 C 0.2696 0.674 0.77271 0.0
H1801 H 0.37834 0.60593 0.76576 0.0
H1802 H 0.34942 0.62547 0.76936 0.0
C1803 C 0.25519 0.68787 0.77347 0.0
C1804 C 0.27953 0.63976 0.76745 0.0
H1805 H 0.31709 0.62017 0.79505 0.0
C1806 C 0.28238 0.63023 0.74969 0.0
C1807 C 0.29188 0.63572 0.78414 0.0
C1808 C 0.28883 0.64466 0.80388 0.0
C1809 C 0.29781 0.6174 0.74797 0.0
C1810 C 0.31053 0.61384 0.76452 0.0
C1811 C 0.30736 0.62298 0.78239 0.0
C1812 C 0.32785 0.60151 0.7633 0.0
C1813 C 0.30089 0.60833 0.72829 0.0
C1814 C 0.32529 0.58144 0.75914 0.0
C1815 C 0.34182 0.57018 0.75712 0.0
C1816 C 0.36119 0.57883 0.75921 0.0
C1817 C 0.36365 0.59882 0.76396 0.0
C1818 C 0.34714 0.61002 0.76605 0.0
H1819 H 0.29225 0.61543 0.71627 0.0
H1820 H 0.31686 0.60935 0.72498 0.0
H1821 H 0.296 0.59262 0.72857 0.0
H1822 H 0.31051 0.57454 0.75729 0.0
H1823 H 0.33941 0.55481 0.75352 0.0
H1824 H 0.92864 0.49585 0.49454 0.0
H1825 H 0.90016 0.47372 0.50069 0.0
H1826 H 0.8931 0.46016 0.43905 0.0
H1827 H 0.92082 0.48323 0.43256 0.0
H1828 H 0.85766 0.46468 0.45464 0.0
H1829 H 0.9018 0.41516 0.50146 0.0
H1830 H 0.90303 0.43986 0.51035 0.0
H1831 H 0.9132 0.43442 0.48722 0.0
C1832 C 0.92088 0.48842 0.48221 0.0
C1833 C 0.92716 0.4913 0.46303 0.0
C1834 C 0.90474 0.47553 0.48581 0.0
C1835 C 0.89475 0.46495 0.4704 0.0
C1836 C 0.90069 0.46805 0.45121 0.0
H1837 H 0.82286 0.3585 0.48215 0.0
H1838 H 0.84797 0.38408 0.47533 0.0
C1839 C 0.91669 0.48111 0.44755 0.0
C1840 C 0.87826 0.45048 0.47427 0.0
H1841 H 0.86687 0.40909 0.50004 0.0
C1842 C 0.85966 0.45249 0.46454 0.0
C1843 C 0.88096 0.43444 0.487 0.0
C1844 C 0.90087 0.43069 0.49695 0.0
C1845 C 0.84368 0.43892 0.46719 0.0
C1846 C 0.84624 0.42318 0.48033 0.0
C1847 C 0.86484 0.42123 0.49008 0.0
C1848 C 0.83025 0.40796 0.48357 0.0
C1849 C 0.82442 0.44126 0.45546 0.0
C1850 C 0.81181 0.41283 0.49041 0.0
C1851 C 0.79723 0.39817 0.4941 0.0
C1852 C 0.80101 0.37836 0.49139 0.0
C1853 C 0.81947 0.37359 0.48451 0.0
C1854 C 0.83388 0.38822 0.4806 0.0
H1855 H 0.82661 0.45061 0.44238 0.0
H1856 H 0.81764 0.42686 0.45053 0.0
H1857 H 0.8138 0.44836 0.46473 0.0
H1858 H 0.80882 0.42793 0.49327 0.0
H1859 H 0.78322 0.40231 0.49954 0.0
H1860 H 0.77263 0.81001 0.74875 0.0
H1861 H 0.75029 0.83684 0.74403 0.0
H1862 H 0.74998 0.84508 0.80651 0.0
H1863 H 0.77281 0.81864 0.81144 0.0
H1864 H 0.70971 0.84415 0.78098 0.0
H1865 H 0.77066 0.89618 0.75875 0.0
H1866 H 0.76923 0.87216 0.74788 0.0
H1867 H 0.77529 0.87493 0.7736 0.0
C1868 C 0.76794 0.81759 0.76151 0.0
C1869 C 0.77466 0.81225 0.78048 0.0
C1870 C 0.75505 0.83279 0.75877 0.0
C1871 C 0.74856 0.84288 0.77493 0.0
C1872 C 0.75478 0.83735 0.79388 0.0
H1873 H 0.67419 0.94224 0.78654 0.0
H1874 H 0.68967 0.91094 0.79153 0.0
C1875 C 0.76777 0.8222 0.79665 0.0
C1876 C 0.73612 0.85987 0.77191 0.0
H1877 H 0.73824 0.9073 0.75681 0.0
C1878 C 0.71586 0.85801 0.77572 0.0
C1879 C 0.74429 0.87782 0.76505 0.0
C1880 C 0.76608 0.88058 0.76116 0.0
C1881 C 0.7034 0.87365 0.77243 0.0
C1882 C 0.71159 0.89167 0.76556 0.0
C1883 C 0.73193 0.89347 0.76195 0.0
C1884 C 0.69959 0.90901 0.76196 0.0
C1885 C 0.68154 0.87058 0.77586 0.0
C1886 C 0.69983 0.91828 0.74366 0.0
C1887 C 0.69131 0.93626 0.74089 0.0
C1888 C 0.68222 0.94534 0.75632 0.0
C1889 C 0.68092 0.93553 0.77431 0.0
C1890 C 0.68971 0.91759 0.77716 0.0
H1891 H 0.67673 0.85482 0.77552 0.0
H1892 H 0.67856 0.87641 0.79052 0.0
H1893 H 0.6724 0.87836 0.76472 0.0
H1894 H 0.70732 0.91193 0.73171 0.0
H1895 H 0.69245 0.9434 0.72682 0.0
H1896 H 0.58439 0.5187 0.95408 0.0
H1897 H 0.61343 0.54072 0.96125 0.0
H1898 H 0.61031 0.52786 0.02281 0.0
H1899 H 0.58056 0.50669 0.0159 0.0
H1900 H 0.61558 0.56585 0.0173 0.0
H1901 H 0.67005 0.52847 0.97453 0.0
H1902 H 0.64855 0.53442 0.9597 0.0
H1903 H 0.64602 0.51728 0.97949 0.0
C1904 C 0.58976 0.52064 0.96917 0.0
C1905 C 0.58006 0.51088 0.98441 0.0
C1906 C 0.60661 0.533 0.97322 0.0
C1907 C 0.61435 0.53565 0.99253 0.0
C1908 C 0.60475 0.52591 0.00776 0.0
H1909 H 0.72809 0.60015 0.02121 0.0
H1910 H 0.70184 0.57414 0.01696 0.0
C1911 C 0.5878 0.51368 0.00376 0.0
C1912 C 0.63171 0.54945 0.99699 0.0
H1913 H 0.67931 0.56139 0.98468 0.0
C1914 C 0.62957 0.56474 0.0103 0.0
C1915 C 0.65013 0.54784 0.98816 0.0
C1916 C 0.65392 0.53099 0.97484 0.0
C1917 C 0.64504 0.57881 0.0145 0.0
C1918 C 0.663 0.57792 0.00472 0.0
C1919 C 0.66544 0.56224 0.99196 0.0
C1920 C 0.67908 0.5935 0.00704 0.0
C1921 C 0.642 0.59445 0.02948 0.0
C1922 C 0.67511 0.61292 0.00249 0.0
C1923 C 0.68996 0.62777 0.00503 0.0
C1924 C 0.70926 0.62353 0.01192 0.0
C1925 C 0.71339 0.60395 0.01595 0.0
C1926 C 0.69841 0.58907 0.01352 0.0
H1927 H 0.63063 0.58957 0.0399 0.0
H1928 H 0.65605 0.5986 0.03794 0.0
H1929 H 0.63667 0.60764 0.02188 0.0
H1930 H 0.66047 0.61662 0.99693 0.0
H1931 H 0.68627 0.64261 0.00151 0.0
H1932 H 0.27489 0.68396 0.20573 0.0
H1933 H 0.25145 0.65604 0.21001 0.0
H1934 H 0.25285 0.66732 0.27215 0.0
H1935 H 0.27634 0.6953 0.26799 0.0
H1936 H 0.25803 0.62902 0.26359 0.0
H1937 H 0.19258 0.65486 0.22083 0.0
H1938 H 0.21478 0.65552 0.20735 0.0
H1939 H 0.21354 0.67097 0.2285 0.0
C1940 C 0.26998 0.68068 0.22027 0.0
C1941 C 0.27742 0.69186 0.23652 0.0
C1942 C 0.25654 0.66475 0.22268 0.0
C1943 C 0.25015 0.65981 0.24135 0.0
C1944 C 0.25752 0.67095 0.2576 0.0
H1945 H 0.15673 0.57296 0.26924 0.0
H1946 H 0.17617 0.6035 0.26374 0.0
C1947 C 0.27101 0.68685 0.25522 0.0
C1948 C 0.23668 0.64234 0.24408 0.0
H1949 H 0.19138 0.62109 0.22968 0.0
C1950 C 0.24341 0.62734 0.25627 0.0
C1951 C 0.21751 0.64028 0.23469 0.0
C1952 C 0.20906 0.65634 0.22226 0.0
C1953 C 0.2317 0.61014 0.25899 0.0
C1954 C 0.2129 0.60772 0.24894 0.0
C1955 C 0.20592 0.6229 0.23714 0.0
C1956 C 0.20033 0.58948 0.25063 0.0
C1957 C 0.2395 0.59479 0.27276 0.0
C1958 C 0.20719 0.5716 0.2445 0.0
C1959 C 0.19618 0.55416 0.24766 0.0
C1960 C 0.178 0.5543 0.25687 0.0
C1961 C 0.1707 0.57235 0.26215 0.0
C1962 C 0.18177 0.58981 0.25902 0.0
H1963 H 0.25146 0.60095 0.28305 0.0
H1964 H 0.22741 0.58808 0.28139 0.0
H1965 H 0.24578 0.58306 0.26411 0.0
H1966 H 0.22131 0.57109 0.23765 0.0
H1967 H 0.20226 0.54056 0.24339 0.0
H1968 H 0.92246 0.48156 0.03211 0.0
H1969 H 0.89534 0.50349 0.0255 0.0
H1970 H 0.93428 0.5529 0.04318 0.0
H1971 H 0.96155 0.53118 0.04942 0.0
H1972 H 0.87894 0.52962 0.05207 0.0
H1973 H 0.91081 0.56875 0.98895 0.0
H1974 H 0.91958 0.54571 0.99773 0.0
H1975 H 0.92746 0.56809 0.01023 0.0
C1976 C 0.92529 0.49712 0.03439 0.0
C1977 C 0.94418 0.50465 0.04122 0.0
C1978 C 0.90976 0.5096 0.0307 0.0
C1979 C 0.91289 0.52983 0.03358 0.0
C1980 C 0.93165 0.53737 0.04055 0.0
H1981 H 0.8493 0.63411 0.03097 0.0
H1982 H 0.87297 0.60839 0.03224 0.0
C1983 C 0.94716 0.52491 0.04431 0.0
C1984 C 0.89645 0.54308 0.0298 0.0
H1985 H 0.88335 0.58296 0.00318 0.0
C1986 C 0.87974 0.54115 0.04123 0.0
C1987 C 0.89755 0.55804 0.01559 0.0
C1988 C 0.91472 0.56022 0.00228 0.0
C1989 C 0.8645 0.55438 0.03947 0.0
C1990 C 0.86589 0.56969 0.02563 0.0
C1991 C 0.88233 0.57123 0.01379 0.0
C1992 C 0.85122 0.58511 0.02417 0.0
C1993 C 0.84751 0.55238 0.05302 0.0
C1994 C 0.83111 0.58063 0.0189 0.0
C1995 C 0.81743 0.59537 0.01821 0.0
C1996 C 0.82369 0.61485 0.02268 0.0
C1997 C 0.84393 0.61928 0.0275 0.0
C1998 C 0.85752 0.60459 0.02821 0.0
H1999 H 0.85078 0.54243 0.06546 0.0
H2000 H 0.84408 0.56685 0.05896 0.0
H2001 H 0.83405 0.54628 0.04472 0.0
H2002 H 0.826 0.56574 0.01536 0.0
H2003 H 0.80197 0.59149 0.01434 0.0
H2004 H 0.04891 0.97082 0.01387 0.0
H2005 H 0.07568 0.94883 0.00828 0.0
H2006 H 0.11596 0.99854 0.9991 0.0
H2007 H 0.08943 0.0206 0.00497 0.0
H2008 H 0.09997 0.94727 0.97361 0.0
H2009 H 0.1439 0.96554 0.04282 0.0
H2010 H 0.11797 0.97065 0.0393 0.0
H2011 H 0.13657 0.98584 0.02795 0.0
C2012 C 0.0635 0.97705 0.01076 0.0
C2013 C 0.06707 0.99743 0.00986 0.0
C2014 C 0.07872 0.96449 0.00747 0.0
C2015 C 0.09779 0.9721 0.00344 0.0
C2016 C 0.10137 0.99241 0.00237 0.0
H2017 H 0.20872 0.91287 0.99382 0.0
H2018 H 0.18391 0.93783 0.99301 0.0
C2019 C 0.08616 0.00497 0.00556 0.0
C2020 C 0.11396 0.95877 0.00045 0.0
H2021 H 0.15759 0.94371 0.02119 0.0
C2022 C 0.11261 0.94649 0.98396 0.0
C2023 C 0.13047 0.95796 0.01392 0.0
C2024 C 0.13237 0.97057 0.03209 0.0
C2025 C 0.12736 0.93331 0.98059 0.0
C2026 C 0.14363 0.9321 0.99434 0.0
C2027 C 0.14515 0.94469 0.01063 0.0
C2028 C 0.15859 0.91709 0.99284 0.0
C2029 C 0.12546 0.92094 0.96226 0.0
C2030 C 0.15259 0.89718 0.9929 0.0
C2031 C 0.16668 0.88293 0.99327 0.0
C2032 C 0.18711 0.8883 0.99384 0.0
C2033 C 0.19311 0.90826 0.99335 0.0
C2034 C 0.17896 0.92253 0.99292 0.0
H2035 H 0.11629 0.92792 0.95055 0.0
H2036 H 0.14024 0.9183 0.95659 0.0
H2037 H 0.118 0.9066 0.96563 0.0
H2038 H 0.13701 0.89263 0.99332 0.0
H2039 H 0.16152 0.86771 0.99372 0.0
loop_
_geom_bond_atom_site_label_1
_geom_bond_atom_site_label_2
_geom_bond_distance
_geom_bond_site_symmetry_2
_ccdc_geom_bond_type
H0 C3 0.931 . S
H1 C6 0.928 . S
H2 C8 0.930 . S
C3 H0 0.931 . S
C3 C4 1.413 . S
C3 C5 1.360 . S
C4 C3 1.413 . S
C4 C8 1.429 . S
C5 C3 1.360 . S
C5 C6 1.372 . S
C6 H1 0.928 . S
C6 C5 1.372 . S
C6 C7 1.404 . S
C7 C6 1.404 . S
C7 C8 1.391 . S
C8 H2 0.930 . S
C8 C4 1.429 . S
C8 C7 1.391 . S
H9 C12 0.931 . S
H10 C15 0.928 . S
H11 C17 0.930 . S
C12 H9 0.931 . S
C12 C13 1.413 . S
C12 C14 1.360 . S
C13 C12 1.413 . S
C13 C17 1.429 . S
C14 C12 1.360 . S
C14 C15 1.372 . S
C15 H10 0.928 . S
C15 C14 1.372 . S
C15 C16 1.404 . S
C16 C15 1.404 . S
C16 C17 1.391 . S
C17 H11 0.930 . S
C17 C13 1.429 . S
C17 C16 1.391 . S
H18 C21 0.931 . S
H19 C24 0.928 1_455 S
H20 C26 0.930 . S
C21 H18 0.931 . S
C21 C22 1.413 . S
C21 C23 1.360 . S
C22 C21 1.413 . S
C22 C26 1.429 . S
C23 C21 1.360 . S
C23 C24 1.372 . S
C24 H19 0.928 1_655 S
C24 C23 1.372 . S
C24 C25 1.404 . S
C25 C24 1.404 . S
C25 C26 1.391 . S
C26 H20 0.930 . S
C26 C22 1.429 . S
C26 C25 1.391 . S
H27 C30 0.931 . S
H28 C33 0.928 . S
H29 C35 0.930 . S
C30 H27 0.931 . S
C30 C31 1.413 . S
C30 C32 1.360 . S
C31 C30 1.413 . S
C31 C35 1.429 . S
C32 C30 1.360 . S
C32 C33 1.372 . S
C33 H28 0.928 . S
C33 C32 1.372 . S
C33 C34 1.404 . S
C34 C33 1.404 . S
C34 C35 1.391 . S
C35 H29 0.930 . S
C35 C31 1.429 . S
C35 C34 1.391 . S
H36 C39 0.931 . S
H37 C42 0.928 . S
H38 C44 0.930 . S
C39 H36 0.931 . S
C39 C40 1.413 . S
C39 C41 1.360 . S
C40 C39 1.413 . S
C40 C44 1.429 . S
C41 C39 1.360 . S
C41 C42 1.372 . S
C42 H37 0.928 . S
C42 C41 1.372 . S
C42 C43 1.404 . S
C43 C42 1.404 . S
C43 C44 1.391 . S
C44 H38 0.930 . S
C44 C40 1.429 . S
C44 C43 1.391 . S
H45 C48 0.931 . S
H46 C51 0.928 . S
H47 C53 0.930 . S
C48 H45 0.931 . S
C48 C49 1.413 . S
C48 C50 1.360 . S
C49 C48 1.413 . S
C49 C53 1.429 . S
C50 C48 1.360 . S
C50 C51 1.372 . S
C51 H46 0.928 . S
C51 C50 1.372 . S
C51 C52 1.404 . S
C52 C51 1.404 . S
C52 C53 1.391 . S
C53 H47 0.930 . S
C53 C49 1.429 . S
C53 C52 1.391 . S
H54 C57 0.931 . S
H55 C60 0.928 . S
H56 C62 0.930 . S
C57 H54 0.931 . S
C57 C58 1.413 . S
C57 C59 1.360 . S
C58 C57 1.413 . S
C58 C62 1.429 . S
C59 C57 1.360 . S
C59 C60 1.372 . S
C60 H55 0.928 . S
C60 C59 1.372 . S
C60 C61 1.404 . S
C61 C60 1.404 . S
C61 C62 1.391 . S
C62 H56 0.930 . S
C62 C58 1.429 . S
C62 C61 1.391 . S
H63 C66 0.931 . S
H64 C69 0.928 . S
H65 C71 0.930 . S
C66 H63 0.931 . S
C66 C67 1.413 . S
C66 C68 1.360 . S
C67 C66 1.413 . S
C67 C71 1.429 . S
C68 C66 1.360 . S
C68 C69 1.372 . S
C69 H64 0.928 . S
C69 C68 1.372 . S
C69 C70 1.404 . S
C70 C69 1.404 . S
C70 C71 1.391 . S
C71 H65 0.930 . S
C71 C67 1.429 . S
C71 C70 1.391 . S
H72 C75 0.931 . S
H73 C78 0.928 . S
H74 C80 0.930 . S
C75 H72 0.931 . S
C75 C76 1.413 . S
C75 C77 1.360 . S
C76 C75 1.413 . S
C76 C80 1.429 . S
C77 C75 1.360 . S
C77 C78 1.372 . S
C78 H73 0.928 . S
C78 C77 1.372 . S
C78 C79 1.404 . S
C79 C78 1.404 . S
C79 C80 1.391 . S
C80 H74 0.930 . S
C80 C76 1.429 . S
C80 C79 1.391 . S
H81 C84 0.931 . S
H82 C87 0.928 . S
H83 C89 0.930 . S
C84 H81 0.931 . S
C84 C85 1.413 . S
C84 C86 1.360 . S
C85 C84 1.413 . S
C85 C89 1.429 . S
C86 C84 1.360 . S
C86 C87 1.372 . S
C87 H82 0.928 . S
C87 C86 1.372 . S
C87 C88 1.404 . S
C88 C87 1.404 . S
C88 C89 1.391 . S
C89 H83 0.930 . S
C89 C85 1.429 . S
C89 C88 1.391 . S
H90 C93 0.931 . S
H91 C96 0.928 . S
H92 C98 0.930 . S
C93 H90 0.931 . S
C93 C94 1.413 . S
C93 C95 1.360 . S
C94 C93 1.413 . S
C94 C98 1.429 . S
C95 C93 1.360 . S
C95 C96 1.372 . S
C96 H91 0.928 . S
C96 C95 1.372 . S
C96 C97 1.404 . S
C97 C96 1.404 . S
C97 C98 1.391 . S
C98 H92 0.930 . S
C98 C94 1.429 . S
C98 C97 1.391 . S
H99 C102 0.931 . S
H100 C105 0.928 . S
H101 C107 0.930 . S
C102 H99 0.931 . S
C102 C103 1.413 . S
C102 C104 1.360 . S
C103 C102 1.413 . S
C103 C107 1.429 . S
C104 C102 1.360 . S
C104 C105 1.372 . S
C105 H100 0.928 . S
C105 C104 1.372 . S
C105 C106 1.404 . S
C106 C105 1.404 . S
C106 C107 1.391 . S
C107 H101 0.930 . S
C107 C103 1.429 . S
C107 C106 1.391 . S
H108 C111 0.931 . S
H109 C114 0.928 . S
H110 C116 0.930 . S
C111 H108 0.931 . S
C111 C112 1.413 . S
C111 C113 1.360 . S
C112 C111 1.413 . S
C112 C116 1.429 . S
C113 C111 1.360 . S
C113 C114 1.372 . S
C114 H109 0.928 . S
C114 C113 1.372 . S
C114 C115 1.404 . S
C115 C114 1.404 . S
C115 C116 1.391 . S
C116 H110 0.930 . S
C116 C112 1.429 . S
C116 C115 1.391 . S
H117 C120 0.931 . S
H118 C123 0.928 . S
H119 C125 0.930 . S
C120 H117 0.931 . S
C120 C121 1.413 . S
C120 C122 1.360 . S
C121 C120 1.413 . S
C121 C125 1.429 . S
C122 C120 1.360 . S
C122 C123 1.372 . S
C123 H118 0.928 . S
C123 C122 1.372 . S
C123 C124 1.404 . S
C124 C123 1.404 . S
C124 C125 1.391 . S
C125 H119 0.930 . S
C125 C121 1.429 . S
C125 C124 1.391 . S
H126 C129 0.931 . S
H127 C132 0.928 . S
H128 C134 0.930 . S
C129 H126 0.931 . S
C129 C130 1.413 . S
C129 C131 1.360 . S
C130 C129 1.413 . S
C130 C134 1.429 . S
C131 C129 1.360 . S
C131 C132 1.372 . S
C132 H127 0.928 . S
C132 C131 1.372 . S
C132 C133 1.404 . S
C133 C132 1.404 . S
C133 C134 1.391 . S
C134 H128 0.930 . S
C134 C130 1.429 . S
C134 C133 1.391 . S
H135 C138 0.931 . S
H136 C141 0.928 . S
H137 C143 0.930 . S
C138 H135 0.931 . S
C138 C139 1.413 . S
C138 C140 1.360 . S
C139 C138 1.413 . S
C139 C143 1.429 . S
C140 C138 1.360 . S
C140 C141 1.372 . S
C141 H136 0.928 . S
C141 C140 1.372 . S
C141 C142 1.404 . S
C142 C141 1.404 . S
C142 C143 1.391 . S
C143 H137 0.930 . S
C143 C139 1.429 . S
C143 C142 1.391 . S
Mg144 O145 2.029 1_554 S
Mg144 O151 1.986 1_554 S
Mg144 O153 2.114 . S
Mg144 O154 2.251 . S
Mg144 O157 2.010 . S
O145 Mg144 2.029 1_556 S
O145 C148 1.249 . S
O146 Mg147 2.028 . S
O146 C148 1.248 . S
Mg147 O146 2.028 . S
Mg147 O152 2.032 . S
Mg147 O154 2.079 1_556 S
C148 O145 1.249 . S
C148 O146 1.248 . S
C149 O150 1.264 . S
C149 O157 1.249 . S
O150 C149 1.264 . S
O151 Mg144 1.986 1_556 S
O151 C155 1.246 . S
O152 Mg147 2.032 . S
O152 C155 1.259 . S
O153 Mg144 2.114 . S
O153 C156 1.252 . S
O154 Mg144 2.251 . S
O154 Mg147 2.079 1_554 S
O154 C156 1.273 . S
C155 O151 1.246 . S
C155 O152 1.259 . S
C156 O153 1.252 . S
C156 O154 1.273 . S
O157 Mg144 2.010 . S
O157 C149 1.249 . S
Mg158 O159 2.028 . S
Mg158 O165 1.986 . S
Mg158 O167 2.114 . S
Mg158 O168 2.251 . S
Mg158 O171 2.010 . S
O159 Mg158 2.028 . S
O159 C162 1.250 . S
O160 Mg161 2.028 . S
O160 C162 1.248 . S
Mg161 O160 2.028 . S
Mg161 O166 2.032 . S
Mg161 O168 2.079 . S
C162 O159 1.250 . S
C162 O160 1.248 . S
C163 O164 1.264 . S
C163 O171 1.249 . S
O164 C163 1.264 . S
O165 Mg158 1.986 . S
O165 C169 1.246 . S
O166 Mg161 2.032 . S
O166 C169 1.259 . S
O167 Mg158 2.114 . S
O167 C170 1.252 . S
O168 Mg158 2.251 . S
O168 Mg161 2.079 . S
O168 C170 1.273 . S
C169 O165 1.246 . S
C169 O166 1.259 . S
C170 O167 1.252 . S
C170 O168 1.273 . S
O171 Mg158 2.010 . S
O171 C163 1.249 . S
Mg172 O173 2.028 . S
Mg172 O179 1.986 1_554 S
Mg172 O181 2.114 . S
Mg172 O182 2.251 . S
Mg172 O185 2.010 . S
O173 Mg172 2.028 . S
O173 C176 1.250 . S
O174 Mg175 2.028 1_554 S
O174 C176 1.248 . S
Mg175 O174 2.028 1_556 S
Mg175 O180 2.032 . S
Mg175 O182 2.079 1_556 S
C176 O173 1.250 . S
C176 O174 1.248 . S
C177 O178 1.264 . S
C177 O185 1.249 . S
O178 C177 1.264 . S
O179 Mg172 1.986 1_556 S
O179 C183 1.246 . S
O180 Mg175 2.032 . S
O180 C183 1.259 . S
O181 Mg172 2.114 . S
O181 C184 1.252 . S
O182 Mg172 2.251 . S
O182 Mg175 2.079 1_554 S
O182 C184 1.273 . S
C183 O179 1.246 . S
C183 O180 1.259 . S
C184 O181 1.252 . S
C184 O182 1.273 . S
O185 Mg172 2.010 . S
O185 C177 1.249 . S
Mg186 O187 2.028 . S
Mg186 O193 1.986 . S
Mg186 O195 2.114 . S
Mg186 O196 2.251 . S
Mg186 O199 2.010 . S
O187 Mg186 2.028 . S
O187 C190 1.250 1_545 S
O188 Mg189 2.028 . S
O188 C190 1.248 . S
Mg189 O188 2.028 . S
Mg189 O194 2.032 . S
Mg189 O196 2.079 1_565 S
C190 O187 1.250 1_565 S
C190 O188 1.248 . S
C191 O192 1.264 . S
C191 O199 1.249 . S
O192 C191 1.264 . S
O193 Mg186 1.986 . S
O193 C197 1.246 . S
O194 Mg189 2.032 . S
O194 C197 1.259 1_565 S
O195 Mg186 2.114 . S
O195 C198 1.252 . S
O196 Mg186 2.251 . S
O196 Mg189 2.079 1_545 S
O196 C198 1.273 . S
C197 O193 1.246 . S
C197 O194 1.259 1_545 S
C198 O195 1.252 . S
C198 O196 1.273 . S
O199 Mg186 2.010 . S
O199 C191 1.249 . S
Mg200 O201 2.028 . S
Mg200 O207 1.986 . S
Mg200 O209 2.114 . S
Mg200 O210 2.251 . S
Mg200 O213 2.010 . S
O201 Mg200 2.028 . S
O201 C204 1.250 . S
O202 Mg203 2.028 . S
O202 C204 1.248 . S
Mg203 O202 2.028 . S
Mg203 O208 2.032 . S
Mg203 O210 2.079 . S
C204 O201 1.250 . S
C204 O202 1.248 . S
C205 O206 1.264 . S
C205 O213 1.249 . S
O206 C205 1.264 . S
O207 Mg200 1.986 . S
O207 C211 1.246 . S
O208 Mg203 2.032 . S
O208 C211 1.259 . S
O209 Mg200 2.114 . S
O209 C212 1.252 . S
O210 Mg200 2.251 . S
O210 Mg203 2.079 . S
O210 C212 1.273 . S
C211 O207 1.246 . S
C211 O208 1.259 . S
C212 O209 1.252 . S
C212 O210 1.273 . S
O213 Mg200 2.010 . S
O213 C205 1.249 . S
Mg214 O215 2.028 . S
Mg214 O221 1.986 . S
Mg214 O223 2.114 . S
Mg214 O224 2.251 . S
Mg214 O227 2.010 . S
O215 Mg214 2.028 . S
O215 C218 1.250 . S
O216 Mg217 2.028 . S
O216 C218 1.248 . S
Mg217 O216 2.028 . S
Mg217 O222 2.032 . S
Mg217 O224 2.079 . S
C218 O215 1.250 . S
C218 O216 1.248 . S
C219 O220 1.264 . S
C219 O227 1.249 . S
O220 C219 1.264 . S
O221 Mg214 1.986 . S
O221 C225 1.246 . S
O222 Mg217 2.032 . S
O222 C225 1.259 . S
O223 Mg214 2.114 . S
O223 C226 1.252 . S
O224 Mg214 2.251 . S
O224 Mg217 2.079 . S
O224 C226 1.273 . S
C225 O221 1.246 . S
C225 O222 1.259 . S
C226 O223 1.252 . S
C226 O224 1.273 . S
O227 Mg214 2.010 . S
O227 C219 1.249 . S
Mg228 O229 2.028 . S
Mg228 O235 1.986 . S
Mg228 O237 2.114 . S
Mg228 O238 2.251 . S
Mg228 O241 2.010 . S
O229 Mg228 2.028 . S
O229 C232 1.250 . S
O230 Mg231 2.028 . S
O230 C232 1.248 . S
Mg231 O230 2.028 . S
Mg231 O236 2.032 . S
Mg231 O238 2.079 . S
C232 O229 1.250 . S
C232 O230 1.248 . S
C233 O234 1.264 . S
C233 O241 1.249 . S
O234 C233 1.264 . S
O235 Mg228 1.986 . S
O235 C239 1.246 . S
O236 Mg231 2.032 . S
O236 C239 1.259 . S
O237 Mg228 2.114 . S
O237 C240 1.252 . S
O238 Mg228 2.251 . S
O238 Mg231 2.079 . S
O238 C240 1.273 . S
C239 O235 1.246 . S
C239 O236 1.259 . S
C240 O237 1.252 . S
C240 O238 1.273 . S
O241 Mg228 2.010 . S
O241 C233 1.249 . S
Mg242 O243 2.028 1_545 S
Mg242 O249 1.986 1_545 S
Mg242 O251 2.114 . S
Mg242 O252 2.251 . S
Mg242 O255 2.010 . S
O243 Mg242 2.028 1_565 S
O243 C246 1.250 . S
O244 Mg245 2.028 . S
O244 C246 1.248 . S
Mg245 O244 2.028 . S
Mg245 O250 2.032 . S
Mg245 O252 2.079 1_565 S
C246 O243 1.250 . S
C246 O244 1.248 . S
C247 O248 1.264 . S
C247 O255 1.249 . S
O248 C247 1.264 . S
O249 Mg242 1.986 1_565 S
O249 C253 1.246 . S
O250 Mg245 2.032 . S
O250 C253 1.259 . S
O251 Mg242 2.114 . S
O251 C254 1.252 . S
O252 Mg242 2.251 . S
O252 Mg245 2.079 1_545 S
O252 C254 1.273 . S
C253 O249 1.246 . S
C253 O250 1.259 . S
C254 O251 1.252 . S
C254 O252 1.273 . S
O255 Mg242 2.010 . S
O255 C247 1.249 . S
Mg256 O257 2.028 . S
Mg256 O263 1.986 . S
Mg256 O265 2.114 . S
Mg256 O266 2.251 . S
Mg256 O269 2.010 . S
O257 Mg256 2.028 . S
O257 C260 1.250 1_455 S
O258 Mg259 2.028 . S
O258 C260 1.248 . S
Mg259 O258 2.028 . S
Mg259 O264 2.032 . S
Mg259 O266 2.079 1_655 S
C260 O257 1.250 1_655 S
C260 O258 1.248 . S
C261 O262 1.264 . S
C261 O269 1.249 . S
O262 C261 1.264 . S
O263 Mg256 1.986 . S
O263 C267 1.246 . S
O264 Mg259 2.032 . S
O264 C267 1.259 1_655 S
O265 Mg256 2.114 . S
O265 C268 1.252 . S
O266 Mg256 2.251 . S
O266 Mg259 2.079 1_455 S
O266 C268 1.273 . S
C267 O263 1.246 . S
C267 O264 1.259 1_455 S
C268 O265 1.252 . S
C268 O266 1.273 . S
O269 Mg256 2.010 . S
O269 C261 1.249 . S
Mg270 O271 2.028 . S
Mg270 O277 1.986 . S
Mg270 O279 2.114 . S
Mg270 O280 2.251 . S
Mg270 O283 2.010 . S
O271 Mg270 2.028 . S
O271 C274 1.250 . S
O272 Mg273 2.028 . S
O272 C274 1.248 . S
Mg273 O272 2.028 . S
Mg273 O278 2.032 . S
Mg273 O280 2.079 . S
C274 O271 1.250 . S
C274 O272 1.248 . S
C275 O276 1.264 . S
C275 O283 1.249 . S
O276 C275 1.264 . S
O277 Mg270 1.986 . S
O277 C281 1.246 . S
O278 Mg273 2.032 . S
O278 C281 1.259 . S
O279 Mg270 2.114 . S
O279 C282 1.252 . S
O280 Mg270 2.251 . S
O280 Mg273 2.079 . S
O280 C282 1.273 . S
C281 O277 1.246 . S
C281 O278 1.259 . S
C282 O279 1.252 . S
C282 O280 1.273 . S
O283 Mg270 2.010 . S
O283 C275 1.249 . S
Mg284 O285 2.028 1_655 S
Mg284 O291 2.000 . S
Mg284 O293 2.114 . S
Mg284 O294 2.251 1_655 S
Mg284 O297 2.010 . S
O285 Mg284 2.028 1_455 S
O285 C288 1.250 . S
O286 Mg287 2.028 . S
O286 C288 1.248 . S
Mg287 O286 2.028 . S
Mg287 O292 2.032 . S
Mg287 O294 2.079 . S
C288 O285 1.250 . S
C288 O286 1.248 . S
C289 O290 1.264 . S
C289 O297 1.249 . S
O290 C289 1.264 . S
O291 Mg284 2.000 . S
O291 C295 1.207 1_655 S
O292 Mg287 2.032 . S
O292 C295 1.259 . S
O293 Mg284 2.114 . S
O293 C296 1.252 . S
O294 Mg284 2.251 1_455 S
O294 Mg287 2.079 . S
O294 C296 1.273 1_455 S
C295 O291 1.207 1_455 S
C295 O292 1.259 . S
C296 O293 1.252 . S
C296 O294 1.273 1_655 S
O297 Mg284 2.010 . S
O297 C289 1.249 . S
Mg298 O299 2.028 . S
Mg298 O305 1.986 . S
Mg298 O307 2.114 . S
Mg298 O308 2.251 . S
Mg298 O311 2.010 . S
O299 Mg298 2.028 . S
O299 C302 1.250 . S
O300 Mg301 2.028 . S
O300 C302 1.248 . S
Mg301 O300 2.028 . S
Mg301 O306 2.032 . S
Mg301 O308 2.079 . S
C302 O299 1.250 . S
C302 O300 1.248 . S
C303 O304 1.264 . S
C303 O311 1.249 . S
O304 C303 1.264 . S
O305 Mg298 1.986 . S
O305 C309 1.246 . S
O306 Mg301 2.032 . S
O306 C309 1.259 . S
O307 Mg298 2.114 . S
O307 C310 1.252 . S
O308 Mg298 2.251 . S
O308 Mg301 2.079 . S
O308 C310 1.273 . S
C309 O305 1.246 . S
C309 O306 1.259 . S
C310 O307 1.252 . S
C310 O308 1.273 . S
O311 Mg298 2.010 . S
O311 C303 1.249 . S
H312 C320 0.929 . S
H313 C322 0.930 . S
H314 C324 0.930 . S
H315 C327 0.929 . S
H316 C330 0.930 . S
H317 C332 0.960 . S
H318 C332 0.960 . S
H319 C332 0.960 . S
C320 H312 0.929 . S
C320 C321 1.377 . S
C320 C322 1.384 . S
C321 C320 1.377 . S
C321 C327 1.390 . S
C322 H313 0.930 . S
C322 C320 1.384 . S
C322 C323 1.372 . S
C323 C322 1.372 . S
C323 C324 1.400 . S
C323 C328 1.490 . S
C324 H314 0.930 . S
C324 C323 1.400 . S
C324 C327 1.386 . S
H325 C341 0.930 . S
H326 C342 0.931 . S
C327 H315 0.929 . S
C327 C321 1.390 . S
C327 C324 1.386 . S
C328 C323 1.490 . S
C328 C330 1.395 . S
C328 C331 1.403 . S
H329 C335 0.930 . S
C330 H316 0.930 . S
C330 C328 1.395 . S
C330 C333 1.403 . S
C331 C328 1.403 . S
C331 C332 1.524 . S
C331 C335 1.400 . S
C332 H317 0.960 . S
C332 H318 0.960 . S
C332 H319 0.960 . S
C332 C331 1.524 . S
C333 C330 1.403 . S
C333 C334 1.392 . S
C333 C337 1.495 . S
C334 C333 1.392 . S
C334 C335 1.385 . S
C334 C336 1.478 . S
C335 H329 0.930 . S
C335 C331 1.400 . S
C335 C334 1.385 . S
C336 C334 1.478 . S
C336 C338 1.381 . S
C336 C342 1.383 . S
C337 C333 1.495 . S
C337 H343 0.959 . S
C337 H344 0.961 . S
C337 H345 0.960 . S
C338 C336 1.381 . S
C338 C339 1.394 . S
C338 H346 0.930 . S
C339 C338 1.394 . S
C339 C340 1.383 . S
C339 H347 0.929 . S
C340 C339 1.383 . S
C340 C341 1.377 . S
C341 H325 0.930 . S
C341 C340 1.377 . S
C341 C342 1.379 . S
C342 H326 0.931 . S
C342 C336 1.383 . S
C342 C341 1.379 . S
H343 C337 0.959 . S
H344 C337 0.961 . S
H345 C337 0.960 . S
H346 C338 0.930 . S
H347 C339 0.929 . S
H348 C356 0.929 . S
H349 C358 0.930 . S
H350 C360 0.923 1_655 S
H351 C363 0.929 . S
H352 C366 0.930 . S
H353 C368 0.960 . S
H354 C368 0.960 . S
H355 C368 0.960 1_655 S
C356 H348 0.929 . S
C356 C357 1.377 1_455 S
C356 C358 1.384 . S
C357 C356 1.377 1_655 S
C357 C363 1.390 . S
C358 H349 0.930 . S
C358 C356 1.384 . S
C358 C359 1.372 . S
C359 C358 1.372 . S
C359 C360 1.400 . S
C359 C364 1.490 . S
C360 H350 0.923 1_455 S
C360 C359 1.400 . S
C360 C363 1.386 1_455 S
H361 C377 0.930 . S
H362 C378 0.931 . S
C363 H351 0.929 . S
C363 C357 1.390 . S
C363 C360 1.386 1_655 S
C364 C359 1.490 . S
C364 C366 1.395 . S
C364 C367 1.403 . S
H365 C371 0.930 . S
C366 H352 0.930 . S
C366 C364 1.395 . S
C366 C369 1.403 . S
C367 C364 1.403 . S
C367 C368 1.524 . S
C367 C371 1.400 . S
C368 H353 0.960 . S
C368 H354 0.960 . S
C368 H355 0.960 1_455 S
C368 C367 1.524 . S
C369 C366 1.403 . S
C369 C370 1.392 . S
C369 C373 1.495 . S
C370 C369 1.392 . S
C370 C371 1.385 . S
C370 C372 1.478 . S
C371 H365 0.930 . S
C371 C367 1.400 . S
C371 C370 1.385 . S
C372 C370 1.478 . S
C372 C374 1.381 . S
C372 C378 1.383 . S
C373 C369 1.495 . S
C373 H379 0.959 . S
C373 H380 0.961 . S
C373 H381 0.960 . S
C374 C372 1.381 . S
C374 C375 1.394 . S
C374 H382 0.930 . S
C375 C374 1.394 . S
C375 C376 1.383 . S
C375 H383 0.929 . S
C376 C375 1.383 . S
C376 C377 1.377 . S
C377 H361 0.930 . S
C377 C376 1.377 . S
C377 C378 1.379 . S
C378 H362 0.931 . S
C378 C372 1.383 . S
C378 C377 1.379 . S
H379 C373 0.959 . S
H380 C373 0.961 . S
H381 C373 0.960 . S
H382 C374 0.930 . S
H383 C375 0.929 . S
H384 C392 0.929 . S
H385 C394 0.930 . S
H386 C396 0.930 . S
H387 C399 0.929 . S
H388 C402 0.930 . S
H389 C404 0.960 . S
H390 C404 0.960 . S
H391 C404 0.960 . S
C392 H384 0.929 . S
C392 C393 1.377 . S
C392 C394 1.384 . S
C393 C392 1.377 . S
C393 C399 1.390 . S
C394 H385 0.930 . S
C394 C392 1.384 . S
C394 C395 1.372 . S
C395 C394 1.372 . S
C395 C396 1.400 . S
C395 C400 1.490 . S
C396 H386 0.930 . S
C396 C395 1.400 . S
C396 C399 1.386 . S
H397 C413 0.930 . S
H398 C414 0.931 . S
C399 H387 0.929 . S
C399 C393 1.390 . S
C399 C396 1.386 . S
C400 C395 1.490 . S
C400 C402 1.395 . S
C400 C403 1.403 . S
H401 C407 0.930 . S
C402 H388 0.930 . S
C402 C400 1.395 . S
C402 C405 1.403 . S
C403 C400 1.403 . S
C403 C404 1.524 . S
C403 C407 1.400 . S
C404 H389 0.960 . S
C404 H390 0.960 . S
C404 H391 0.960 . S
C404 C403 1.524 . S
C405 C402 1.403 . S
C405 C406 1.392 . S
C405 C409 1.495 . S
C406 C405 1.392 . S
C406 C407 1.385 . S
C406 C408 1.478 . S
C407 H401 0.930 . S
C407 C403 1.400 . S
C407 C406 1.385 . S
C408 C406 1.478 . S
C408 C410 1.381 . S
C408 C414 1.383 . S
C409 C405 1.495 . S
C409 H415 0.959 . S
C409 H416 0.961 . S
C409 H417 0.960 . S
C410 C408 1.381 . S
C410 C411 1.394 . S
C410 H418 0.930 . S
C411 C410 1.394 . S
C411 C412 1.383 . S
C411 H419 0.929 . S
C412 C411 1.383 . S
C412 C413 1.377 . S
C413 H397 0.930 . S
C413 C412 1.377 . S
C413 C414 1.379 . S
C414 H398 0.931 . S
C414 C408 1.383 . S
C414 C413 1.379 . S
H415 C409 0.959 . S
H416 C409 0.961 . S
H417 C409 0.960 . S
H418 C410 0.930 . S
H419 C411 0.929 . S
H420 C428 0.929 1_545 S
H421 C430 0.974 . S
H422 C432 0.959 . S
H423 C435 0.929 . S
H424 C438 0.930 1_455 S
H425 C440 0.960 . S
H426 C440 0.960 1_545 S
H427 C440 0.960 . S
C428 H420 0.929 1_565 S
C428 C429 1.377 . S
C428 C430 1.374 1_565 S
C429 C428 1.377 . S
C429 C435 1.390 . S
C430 H421 0.974 . S
C430 C428 1.374 1_545 S
C430 C431 1.340 1_545 S
C431 C430 1.340 1_565 S
C431 C432 1.396 1_455 S
C431 C436 1.490 1_455 S
C432 H422 0.959 . S
C432 C431 1.396 1_655 S
C432 C435 1.362 1_655 S
H433 C449 0.930 . S
H434 C450 0.931 . S
C435 H423 0.929 . S
C435 C429 1.390 . S
C435 C432 1.362 1_455 S
C436 C431 1.490 1_655 S
C436 C438 1.395 . S
C436 C439 1.403 . S
H437 C443 0.930 . S
C438 H424 0.930 1_655 S
C438 C436 1.395 . S
C438 C441 1.403 . S
C439 C436 1.403 . S
C439 C440 1.524 . S
C439 C443 1.400 . S
C440 H425 0.960 . S
C440 H426 0.960 1_565 S
C440 H427 0.960 . S
C440 C439 1.524 . S
C441 C438 1.403 . S
C441 C442 1.392 . S
C441 C445 1.495 . S
C442 C441 1.392 . S
C442 C443 1.385 . S
C442 C444 1.477 . S
C443 H437 0.930 . S
C443 C439 1.400 . S
C443 C442 1.385 . S
C444 C442 1.477 . S
C444 C446 1.382 1_565 S
C444 C450 1.382 . S
C445 C441 1.495 . S
C445 H451 0.959 1_655 S
C445 H452 0.961 . S
C445 H453 0.960 1_565 S
C446 C444 1.382 1_545 S
C446 C447 1.394 . S
C446 H454 0.930 . S
C447 C446 1.394 . S
C447 C448 1.383 . S
C447 H455 0.929 . S
C448 C447 1.383 . S
C448 C449 1.377 1_545 S
C449 H433 0.930 . S
C449 C448 1.377 1_565 S
C449 C450 1.379 . S
C450 H434 0.931 . S
C450 C444 1.382 . S
C450 C449 1.379 . S
H451 C445 0.959 1_455 S
H452 C445 0.961 . S
H453 C445 0.960 1_545 S
H454 C446 0.930 . S
H455 C447 0.929 . S
H456 C464 0.929 . S
H457 C466 0.930 . S
H458 C468 0.930 . S
H459 C471 0.929 . S
H460 C474 0.930 . S
H461 C476 0.960 . S
H462 C476 0.960 . S
H463 C476 0.960 . S
C464 H456 0.929 . S
C464 C465 1.377 . S
C464 C466 1.384 . S
C465 C464 1.377 . S
C465 C471 1.390 . S
C466 H457 0.930 . S
C466 C464 1.384 . S
C466 C467 1.372 . S
C467 C466 1.372 . S
C467 C468 1.400 . S
C467 C472 1.490 . S
C468 H458 0.930 . S
C468 C467 1.400 . S
C468 C471 1.386 . S
H469 C485 0.930 . S
H470 C486 0.931 . S
C471 H459 0.929 . S
C471 C465 1.390 . S
C471 C468 1.386 . S
C472 C467 1.490 . S
C472 C474 1.395 . S
C472 C475 1.403 . S
H473 C479 0.930 . S
C474 H460 0.930 . S
C474 C472 1.395 . S
C474 C477 1.403 . S
C475 C472 1.403 . S
C475 C476 1.524 . S
C475 C479 1.400 . S
C476 H461 0.960 . S
C476 H462 0.960 . S
C476 H463 0.960 . S
C476 C475 1.524 . S
C477 C474 1.403 . S
C477 C478 1.392 . S
C477 C481 1.495 . S
C478 C477 1.392 . S
C478 C479 1.385 . S
C478 C480 1.478 . S
C479 H473 0.930 . S
C479 C475 1.400 . S
C479 C478 1.385 . S
C480 C478 1.478 . S
C480 C482 1.381 . S
C480 C486 1.383 . S
C481 C477 1.495 . S
C481 H487 0.959 . S
C481 H488 0.961 . S
C481 H489 0.960 . S
C482 C480 1.381 . S
C482 C483 1.394 . S
C482 H490 0.930 . S
C483 C482 1.394 . S
C483 C484 1.383 . S
C483 H491 0.929 . S
C484 C483 1.383 . S
C484 C485 1.377 . S
C485 H469 0.930 . S
C485 C484 1.377 . S
C485 C486 1.379 . S
C486 H470 0.931 . S
C486 C480 1.383 . S
C486 C485 1.379 . S
H487 C481 0.959 . S
H488 C481 0.961 . S
H489 C481 0.960 . S
H490 C482 0.930 . S
H491 C483 0.929 . S
H492 C500 0.929 . S
H493 C502 0.930 . S
H494 C504 0.930 . S
H495 C507 0.929 . S
H496 C510 0.930 . S
H497 C512 0.960 . S
H498 C512 0.960 . S
H499 C512 0.960 . S
C500 H492 0.929 . S
C500 C501 1.377 . S
C500 C502 1.384 . S
C501 C500 1.377 . S
C501 C507 1.390 . S
C502 H493 0.930 . S
C502 C500 1.384 . S
C502 C503 1.372 . S
C503 C502 1.372 . S
C503 C504 1.400 . S
C503 C508 1.490 . S
C504 H494 0.930 . S
C504 C503 1.400 . S
C504 C507 1.386 . S
H505 C521 0.930 . S
H506 C522 0.931 . S
C507 H495 0.929 . S
C507 C501 1.390 . S
C507 C504 1.386 . S
C508 C503 1.490 . S
C508 C510 1.395 . S
C508 C511 1.403 . S
H509 C515 0.930 . S
C510 H496 0.930 . S
C510 C508 1.395 . S
C510 C513 1.403 . S
C511 C508 1.403 . S
C511 C512 1.524 . S
C511 C515 1.400 . S
C512 H497 0.960 . S
C512 H498 0.960 . S
C512 H499 0.960 . S
C512 C511 1.524 . S
C513 C510 1.403 . S
C513 C514 1.392 . S
C513 C517 1.495 . S
C514 C513 1.392 . S
C514 C515 1.385 . S
C514 C516 1.478 . S
C515 H509 0.930 . S
C515 C511 1.400 . S
C515 C514 1.385 . S
C516 C514 1.478 . S
C516 C518 1.381 . S
C516 C522 1.383 . S
C517 C513 1.495 . S
C517 H523 0.959 . S
C517 H524 0.961 . S
C517 H525 0.960 . S
C518 C516 1.381 . S
C518 C519 1.394 . S
C518 H526 0.930 . S
C519 C518 1.394 . S
C519 C520 1.383 . S
C519 H527 0.929 . S
C520 C519 1.383 . S
C520 C521 1.377 . S
C521 H505 0.930 . S
C521 C520 1.377 . S
C521 C522 1.379 . S
C522 H506 0.931 . S
C522 C516 1.383 . S
C522 C521 1.379 . S
H523 C517 0.959 . S
H524 C517 0.961 . S
H525 C517 0.960 . S
H526 C518 0.930 . S
H527 C519 0.929 . S
H528 C536 0.929 . S
H529 C538 0.930 . S
H530 C540 0.930 . S
H531 C543 0.929 . S
H532 C546 0.930 . S
H533 C548 0.960 . S
H534 C548 0.960 . S
H535 C548 0.960 . S
C536 H528 0.929 . S
C536 C537 1.377 . S
C536 C538 1.384 . S
C537 C536 1.377 . S
C537 C543 1.390 . S
C538 H529 0.930 . S
C538 C536 1.384 . S
C538 C539 1.372 . S
C539 C538 1.372 . S
C539 C540 1.400 . S
C539 C544 1.490 . S
C540 H530 0.930 . S
C540 C539 1.400 . S
C540 C543 1.386 . S
H541 C557 0.930 . S
H542 C558 0.931 . S
C543 H531 0.929 . S
C543 C537 1.390 . S
C543 C540 1.386 . S
C544 C539 1.490 . S
C544 C546 1.395 . S
C544 C547 1.403 . S
H545 C551 0.930 . S
C546 H532 0.930 . S
C546 C544 1.395 . S
C546 C549 1.403 . S
C547 C544 1.403 . S
C547 C548 1.524 . S
C547 C551 1.400 . S
C548 H533 0.960 . S
C548 H534 0.960 . S
C548 H535 0.960 . S
C548 C547 1.524 . S
C549 C546 1.403 . S
C549 C550 1.392 . S
C549 C553 1.495 . S
C550 C549 1.392 . S
C550 C551 1.385 . S
C550 C552 1.478 . S
C551 H545 0.930 . S
C551 C547 1.400 . S
C551 C550 1.385 . S
C552 C550 1.478 . S
C552 C554 1.381 . S
C552 C558 1.383 . S
C553 C549 1.495 . S
C553 H559 0.959 . S
C553 H560 0.961 . S
C553 H561 0.960 . S
C554 C552 1.381 . S
C554 C555 1.394 . S
C554 H562 0.930 . S
C555 C554 1.394 . S
C555 C556 1.383 . S
C555 H563 0.929 . S
C556 C555 1.383 . S
C556 C557 1.377 . S
C557 H541 0.930 . S
C557 C556 1.377 . S
C557 C558 1.379 . S
C558 H542 0.931 . S
C558 C552 1.383 . S
C558 C557 1.379 . S
H559 C553 0.959 . S
H560 C553 0.961 . S
H561 C553 0.960 . S
H562 C554 0.930 . S
H563 C555 0.929 . S
H564 C572 0.929 . S
H565 C574 0.930 . S
H566 C576 0.930 . S
H567 C579 0.929 . S
H568 C582 0.930 . S
H569 C584 0.960 . S
H570 C584 0.960 . S
H571 C584 0.960 . S
C572 H564 0.929 . S
C572 C573 1.377 . S
C572 C574 1.384 . S
C573 C572 1.377 . S
C573 C579 1.390 . S
C574 H565 0.930 . S
C574 C572 1.384 . S
C574 C575 1.372 . S
C575 C574 1.372 . S
C575 C576 1.400 . S
C575 C580 1.490 . S
C576 H566 0.930 . S
C576 C575 1.400 . S
C576 C579 1.386 . S
H577 C593 0.930 . S
H578 C594 0.956 . S
C579 H567 0.929 . S
C579 C573 1.390 . S
C579 C576 1.386 . S
C580 C575 1.490 . S
C580 C582 1.395 . S
C580 C583 1.403 . S
H581 C587 0.930 . S
C582 H568 0.930 . S
C582 C580 1.395 . S
C582 C585 1.403 . S
C583 C580 1.403 . S
C583 C584 1.524 . S
C583 C587 1.400 . S
C584 H569 0.960 . S
C584 H570 0.960 . S
C584 H571 0.960 . S
C584 C583 1.524 . S
C585 C582 1.403 . S
C585 C586 1.392 . S
C585 C589 1.495 1_565 S
C586 C585 1.392 . S
C586 C587 1.385 . S
C586 C588 1.478 . S
C587 H581 0.930 . S
C587 C583 1.400 . S
C587 C586 1.385 . S
C588 C586 1.478 . S
C588 C590 1.381 . S
C588 C594 1.356 1_565 S
C589 C585 1.495 1_545 S
C589 H595 0.959 . S
C589 H596 0.961 . S
C589 H597 0.930 1_545 S
C590 C588 1.381 . S
C590 C591 1.394 . S
C590 H598 0.930 . S
C591 C590 1.394 . S
C591 C592 1.383 . S
C591 H599 0.929 . S
C592 C591 1.383 . S
C592 C593 1.377 1_565 S
C593 H577 0.930 . S
C593 C592 1.377 1_545 S
C593 C594 1.384 . S
C594 H578 0.956 . S
C594 C588 1.356 1_545 S
C594 C593 1.384 . S
H595 C589 0.959 . S
H596 C589 0.961 . S
H597 C589 0.930 1_565 S
H598 C590 0.930 . S
H599 C591 0.929 . S
H600 C608 0.929 . S
H601 C610 0.930 . S
H602 C612 0.930 . S
H603 C615 0.929 . S
H604 C618 0.930 . S
H605 C620 0.960 . S
H606 C620 0.960 . S
H607 C620 0.960 . S
C608 H600 0.929 . S
C608 C609 1.377 . S
C608 C610 1.384 . S
C609 C608 1.377 . S
C609 C615 1.390 . S
C610 H601 0.930 . S
C610 C608 1.384 . S
C610 C611 1.372 . S
C611 C610 1.372 . S
C611 C612 1.400 . S
C611 C616 1.490 . S
C612 H602 0.930 . S
C612 C611 1.400 . S
C612 C615 1.386 . S
H613 C629 0.930 . S
H614 C630 0.931 . S
C615 H603 0.929 . S
C615 C609 1.390 . S
C615 C612 1.386 . S
C616 C611 1.490 . S
C616 C618 1.395 . S
C616 C619 1.403 . S
H617 C623 0.930 . S
C618 H604 0.930 . S
C618 C616 1.395 . S
C618 C621 1.403 . S
C619 C616 1.403 . S
C619 C620 1.524 . S
C619 C623 1.400 . S
C620 H605 0.960 . S
C620 H606 0.960 . S
C620 H607 0.960 . S
C620 C619 1.524 . S
C621 C618 1.403 . S
C621 C622 1.392 . S
C621 C625 1.495 . S
C622 C621 1.392 . S
C622 C623 1.385 . S
C622 C624 1.478 . S
C623 H617 0.930 . S
C623 C619 1.400 . S
C623 C622 1.385 . S
C624 C622 1.478 . S
C624 C626 1.381 . S
C624 C630 1.383 . S
C625 C621 1.495 . S
C625 H631 0.959 . S
C625 H632 0.961 . S
C625 H633 0.960 . S
C626 C624 1.381 . S
C626 C627 1.394 . S
C626 H634 0.930 . S
C627 C626 1.394 . S
C627 C628 1.383 . S
C627 H635 0.929 . S
C628 C627 1.383 . S
C628 C629 1.377 . S
C629 H613 0.930 . S
C629 C628 1.377 . S
C629 C630 1.379 . S
C630 H614 0.931 . S
C630 C624 1.383 . S
C630 C629 1.379 . S
H631 C625 0.959 . S
H632 C625 0.961 . S
H633 C625 0.960 . S
H634 C626 0.930 . S
H635 C627 0.929 . S
H636 C644 0.929 . S
H637 C646 0.930 . S
H638 C648 0.930 . S
H639 C651 0.929 . S
H640 C654 0.930 . S
H641 C656 0.960 . S
H642 C656 0.960 . S
H643 C656 0.960 . S
C644 H636 0.929 . S
C644 C645 1.377 . S
C644 C646 1.384 . S
C645 C644 1.377 . S
C645 C651 1.390 . S
C646 H637 0.930 . S
C646 C644 1.384 . S
C646 C647 1.372 . S
C647 C646 1.372 . S
C647 C648 1.400 . S
C647 C652 1.490 . S
C648 H638 0.930 . S
C648 C647 1.400 . S
C648 C651 1.386 . S
H649 C665 0.930 . S
H650 C666 0.931 . S
C651 H639 0.929 . S
C651 C645 1.390 . S
C651 C648 1.386 . S
C652 C647 1.490 . S
C652 C654 1.395 . S
C652 C655 1.403 . S
H653 C659 0.930 . S
C654 H640 0.930 . S
C654 C652 1.395 . S
C654 C657 1.403 . S
C655 C652 1.403 . S
C655 C656 1.524 . S
C655 C659 1.400 . S
C656 H641 0.960 . S
C656 H642 0.960 . S
C656 H643 0.960 . S
C656 C655 1.524 . S
C657 C654 1.403 . S
C657 C658 1.392 . S
C657 C661 1.495 . S
C658 C657 1.392 . S
C658 C659 1.385 . S
C658 C660 1.478 . S
C659 H653 0.930 . S
C659 C655 1.400 . S
C659 C658 1.385 . S
C660 C658 1.478 . S
C660 C662 1.381 . S
C660 C666 1.383 . S
C661 C657 1.495 . S
C661 H667 0.959 . S
C661 H668 0.961 . S
C661 H669 0.960 . S
C662 C660 1.381 . S
C662 C663 1.394 . S
C662 H670 0.930 . S
C663 C662 1.394 . S
C663 C664 1.383 . S
C663 H671 0.929 . S
C664 C663 1.383 . S
C664 C665 1.377 . S
C665 H649 0.930 . S
C665 C664 1.377 . S
C665 C666 1.379 . S
C666 H650 0.931 . S
C666 C660 1.383 . S
C666 C665 1.379 . S
H667 C661 0.959 . S
H668 C661 0.961 . S
H669 C661 0.960 . S
H670 C662 0.930 . S
H671 C663 0.929 . S
H672 C680 0.929 . S
H673 C682 0.930 . S
H674 C684 0.930 . S
H675 C687 0.929 . S
H676 C690 0.930 . S
H677 C692 0.960 . S
H678 C692 0.960 . S
H679 C692 0.960 . S
C680 H672 0.929 . S
C680 C681 1.377 . S
C680 C682 1.384 . S
C681 C680 1.377 . S
C681 C687 1.390 . S
C682 H673 0.930 . S
C682 C680 1.384 . S
C682 C683 1.372 . S
C683 C682 1.372 . S
C683 C684 1.400 . S
C683 C688 1.490 . S
C684 H674 0.930 . S
C684 C683 1.400 . S
C684 C687 1.386 . S
H685 C701 0.930 . S
H686 C702 0.931 . S
C687 H675 0.929 . S
C687 C681 1.390 . S
C687 C684 1.386 . S
C688 C683 1.490 . S
C688 C690 1.395 . S
C688 C691 1.403 . S
H689 C695 0.930 . S
C690 H676 0.930 . S
C690 C688 1.395 . S
C690 C693 1.403 . S
C691 C688 1.403 . S
C691 C692 1.524 . S
C691 C695 1.400 . S
C692 H677 0.960 . S
C692 H678 0.960 . S
C692 H679 0.960 . S
C692 C691 1.524 . S
C693 C690 1.403 . S
C693 C694 1.392 . S
C693 C697 1.495 . S
C694 C693 1.392 . S
C694 C695 1.385 . S
C694 C696 1.478 . S
C695 H689 0.930 . S
C695 C691 1.400 . S
C695 C694 1.385 . S
C696 C694 1.478 . S
C696 C698 1.381 . S
C696 C702 1.383 . S
C697 C693 1.495 . S
C697 H703 0.959 . S
C697 H704 0.961 . S
C697 H705 0.960 . S
C698 C696 1.381 . S
C698 C699 1.394 . S
C698 H706 0.930 . S
C699 C698 1.394 . S
C699 C700 1.383 . S
C699 H707 0.929 . S
C700 C699 1.383 . S
C700 C701 1.377 . S
C701 H685 0.930 . S
C701 C700 1.377 . S
C701 C702 1.379 . S
C702 H686 0.931 . S
C702 C696 1.383 . S
C702 C701 1.379 . S
H703 C697 0.959 . S
H704 C697 0.961 . S
H705 C697 0.960 . S
H706 C698 0.930 . S
H707 C699 0.929 . S
H708 C716 0.929 . S
H709 C718 0.930 . S
H710 C720 0.930 . S
H711 C723 0.929 . S
H712 C726 0.930 . S
H713 C728 0.960 . S
H714 C728 0.960 . S
H715 C728 0.960 . S
C716 H708 0.929 . S
C716 C717 1.377 . S
C716 C718 1.384 . S
C717 C716 1.377 . S
C717 C723 1.390 . S
C718 H709 0.930 . S
C718 C716 1.384 . S
C718 C719 1.372 . S
C719 C718 1.372 . S
C719 C720 1.400 . S
C719 C724 1.490 . S
C720 H710 0.930 . S
C720 C719 1.400 . S
C720 C723 1.386 . S
H721 C737 0.930 . S
H722 C738 0.931 . S
C723 H711 0.929 . S
C723 C717 1.390 . S
C723 C720 1.386 . S
C724 C719 1.490 . S
C724 C726 1.395 . S
C724 C727 1.403 . S
H725 C731 0.930 . S
C726 H712 0.930 . S
C726 C724 1.395 . S
C726 C729 1.403 . S
C727 C724 1.403 . S
C727 C728 1.524 . S
C727 C731 1.400 . S
C728 H713 0.960 . S
C728 H714 0.960 . S
C728 H715 0.960 . S
C728 C727 1.524 . S
C729 C726 1.403 . S
C729 C730 1.392 . S
C729 C733 1.495 . S
C730 C729 1.392 . S
C730 C731 1.385 . S
C730 C732 1.478 . S
C731 H725 0.930 . S
C731 C727 1.400 . S
C731 C730 1.385 . S
C732 C730 1.478 . S
C732 C734 1.381 . S
C732 C738 1.383 . S
C733 C729 1.495 . S
C733 H739 0.959 . S
C733 H740 0.961 . S
C733 H741 0.960 . S
C734 C732 1.381 . S
C734 C735 1.394 . S
C734 H742 0.930 . S
C735 C734 1.394 . S
C735 C736 1.383 . S
C735 H743 0.929 . S
C736 C735 1.383 . S
C736 C737 1.377 . S
C737 H721 0.930 . S
C737 C736 1.377 . S
C737 C738 1.379 . S
C738 H722 0.931 . S
C738 C732 1.383 . S
C738 C737 1.379 . S
H739 C733 0.959 . S
H740 C733 0.961 . S
H741 C733 0.960 . S
H742 C734 0.930 . S
H743 C735 0.929 . S
H744 C752 0.929 . S
H745 C754 0.930 . S
H746 C756 0.930 . S
H747 C759 0.929 . S
H748 C762 0.930 . S
H749 C764 0.960 . S
H750 C764 0.960 . S
H751 C764 0.960 . S
C752 H744 0.929 . S
C752 C753 1.377 . S
C752 C754 1.384 . S
C753 C752 1.377 . S
C753 C759 1.390 . S
C754 H745 0.930 . S
C754 C752 1.384 . S
C754 C755 1.372 . S
C755 C754 1.372 . S
C755 C756 1.400 . S
C755 C760 1.490 . S
C756 H746 0.930 . S
C756 C755 1.400 . S
C756 C759 1.386 . S
H757 C773 0.930 . S
H758 C774 0.931 . S
C759 H747 0.929 . S
C759 C753 1.390 . S
C759 C756 1.386 . S
C760 C755 1.490 . S
C760 C762 1.395 . S
C760 C763 1.403 . S
H761 C767 0.930 . S
C762 H748 0.930 . S
C762 C760 1.395 . S
C762 C765 1.403 . S
C763 C760 1.403 . S
C763 C764 1.524 . S
C763 C767 1.400 . S
C764 H749 0.960 . S
C764 H750 0.960 . S
C764 H751 0.960 . S
C764 C763 1.524 . S
C765 C762 1.403 . S
C765 C766 1.392 . S
C765 C769 1.495 . S
C766 C765 1.392 . S
C766 C767 1.385 . S
C766 C768 1.478 . S
C767 H761 0.930 . S
C767 C763 1.400 . S
C767 C766 1.385 . S
C768 C766 1.478 . S
C768 C770 1.381 . S
C768 C774 1.383 . S
C769 C765 1.495 . S
C769 H775 0.959 . S
C769 H776 0.961 . S
C769 H777 0.960 . S
C770 C768 1.381 . S
C770 C771 1.394 . S
C770 H778 0.930 . S
C771 C770 1.394 . S
C771 C772 1.383 . S
C771 H779 0.929 . S
C772 C771 1.383 . S
C772 C773 1.377 . S
C773 H757 0.930 . S
C773 C772 1.377 . S
C773 C774 1.379 . S
C774 H758 0.931 . S
C774 C768 1.383 . S
C774 C773 1.379 . S
H775 C769 0.959 . S
H776 C769 0.961 . S
H777 C769 0.960 . S
H778 C770 0.930 . S
H779 C771 0.929 . S
H780 C788 0.929 . S
H781 C790 0.930 . S
H782 C792 0.930 . S
H783 C795 0.929 . S
H784 C798 0.930 . S
H785 C800 0.933 1_655 S
H786 C800 0.945 1_655 S
H787 C800 0.975 . S
C788 H780 0.929 . S
C788 C789 1.377 . S
C788 C790 1.384 . S
C789 C788 1.377 . S
C789 C795 1.390 . S
C790 H781 0.930 . S
C790 C788 1.384 . S
C790 C791 1.372 . S
C791 C790 1.372 . S
C791 C792 1.400 . S
C791 C796 1.490 . S
C792 H782 0.930 . S
C792 C791 1.400 . S
C792 C795 1.386 . S
H793 C809 0.930 . S
H794 C810 0.931 . S
C795 H783 0.929 . S
C795 C789 1.390 . S
C795 C792 1.386 . S
C796 C791 1.490 . S
C796 C798 1.395 . S
C796 C799 1.403 . S
H797 C803 0.930 . S
C798 H784 0.930 . S
C798 C796 1.395 . S
C798 C801 1.403 . S
C799 C796 1.403 . S
C799 C800 1.553 . S
C799 C803 1.400 . S
C800 H785 0.933 1_455 S
C800 H786 0.945 1_455 S
C800 H787 0.975 . S
C800 C799 1.553 . S
C801 C798 1.403 . S
C801 C802 1.392 . S
C801 C805 1.495 . S
C802 C801 1.392 . S
C802 C803 1.385 . S
C802 C804 1.478 . S
C803 H797 0.930 . S
C803 C799 1.400 . S
C803 C802 1.385 . S
C804 C802 1.478 . S
C804 C806 1.381 . S
C804 C810 1.383 . S
C805 C801 1.495 . S
C805 H811 0.959 . S
C805 H812 0.961 . S
C805 H813 0.960 . S
C806 C804 1.381 . S
C806 C807 1.394 . S
C806 H814 0.930 . S
C807 C806 1.394 . S
C807 C808 1.383 . S
C807 H815 0.929 . S
C808 C807 1.383 . S
C808 C809 1.377 . S
C809 H793 0.930 . S
C809 C808 1.377 . S
C809 C810 1.379 . S
C810 H794 0.931 . S
C810 C804 1.383 . S
C810 C809 1.379 . S
H811 C805 0.959 . S
H812 C805 0.961 . S
H813 C805 0.960 . S
H814 C806 0.930 . S
H815 C807 0.929 . S
H816 C824 0.929 . S
H817 C826 0.930 . S
H818 C828 0.930 . S
H819 C831 0.929 . S
H820 C834 0.930 . S
H821 C836 0.960 . S
H822 C836 0.960 . S
H823 C836 0.960 . S
C824 H816 0.929 . S
C824 C825 1.377 . S
C824 C826 1.384 . S
C825 C824 1.377 . S
C825 C831 1.390 . S
C826 H817 0.930 . S
C826 C824 1.384 . S
C826 C827 1.372 . S
C827 C826 1.372 . S
C827 C828 1.400 . S
C827 C832 1.490 . S
C828 H818 0.930 . S
C828 C827 1.400 . S
C828 C831 1.386 . S
H829 C845 0.930 . S
H830 C846 0.931 . S
C831 H819 0.929 . S
C831 C825 1.390 . S
C831 C828 1.386 . S
C832 C827 1.490 . S
C832 C834 1.395 . S
C832 C835 1.403 . S
H833 C839 0.930 . S
C834 H820 0.930 . S
C834 C832 1.395 . S
C834 C837 1.403 . S
C835 C832 1.403 . S
C835 C836 1.524 . S
C835 C839 1.400 . S
C836 H821 0.960 . S
C836 H822 0.960 . S
C836 H823 0.960 . S
C836 C835 1.524 . S
C837 C834 1.403 . S
C837 C838 1.392 . S
C837 C841 1.495 . S
C838 C837 1.392 . S
C838 C839 1.385 . S
C838 C840 1.478 . S
C839 H833 0.930 . S
C839 C835 1.400 . S
C839 C838 1.385 . S
C840 C838 1.478 . S
C840 C842 1.381 . S
C840 C846 1.383 . S
C841 C837 1.495 . S
C841 H847 0.959 . S
C841 H848 0.961 . S
C841 H849 0.960 . S
C842 C840 1.381 . S
C842 C843 1.394 . S
C842 H850 0.930 . S
C843 C842 1.394 . S
C843 C844 1.383 . S
C843 H851 0.929 . S
C844 C843 1.383 . S
C844 C845 1.377 . S
C845 H829 0.930 . S
C845 C844 1.377 . S
C845 C846 1.379 . S
C846 H830 0.931 . S
C846 C840 1.383 . S
C846 C845 1.379 . S
H847 C841 0.959 . S
H848 C841 0.961 . S
H849 C841 0.960 . S
H850 C842 0.930 . S
H851 C843 0.929 . S
H852 C860 0.929 . S
H853 C862 0.930 . S
H854 C864 0.930 1_455 S
H855 C867 0.929 . S
H856 C870 0.930 . S
H857 C872 0.960 . S
H858 C872 0.960 . S
H859 C872 0.960 . S
C860 H852 0.929 . S
C860 C861 1.377 . S
C860 C862 1.384 . S
C861 C860 1.377 . S
C861 C867 1.390 . S
C862 H853 0.930 . S
C862 C860 1.384 . S
C862 C863 1.372 . S
C863 C862 1.372 . S
C863 C864 1.400 . S
C863 C868 1.490 . S
C864 H854 0.930 1_655 S
C864 C863 1.400 . S
C864 C867 1.386 . S
H865 C881 0.930 . S
H866 C882 0.931 . S
C867 H855 0.929 . S
C867 C861 1.390 . S
C867 C864 1.386 . S
C868 C863 1.490 . S
C868 C870 1.395 . S
C868 C871 1.403 . S
H869 C875 0.930 . S
C870 H856 0.930 . S
C870 C868 1.395 . S
C870 C873 1.403 . S
C871 C868 1.403 . S
C871 C872 1.524 . S
C871 C875 1.400 . S
C872 H857 0.960 . S
C872 H858 0.960 . S
C872 H859 0.960 . S
C872 C871 1.524 . S
C873 C870 1.403 . S
C873 C874 1.392 . S
C873 C877 1.495 . S
C874 C873 1.392 . S
C874 C875 1.385 . S
C874 C876 1.478 . S
C875 H869 0.930 . S
C875 C871 1.400 . S
C875 C874 1.385 . S
C876 C874 1.478 . S
C876 C878 1.381 . S
C876 C882 1.383 1_655 S
C877 C873 1.495 . S
C877 H883 0.959 . S
C877 H884 0.961 . S
C877 H885 0.960 . S
C878 C876 1.381 . S
C878 C879 1.394 . S
C878 H886 0.930 . S
C879 C878 1.394 . S
C879 C880 1.383 . S
C879 H887 0.929 . S
C880 C879 1.383 . S
C880 C881 1.377 1_655 S
C881 H865 0.930 . S
C881 C880 1.377 1_455 S
C881 C882 1.379 . S
C882 H866 0.931 . S
C882 C876 1.383 1_455 S
C882 C881 1.379 . S
H883 C877 0.959 . S
H884 C877 0.961 . S
H885 C877 0.960 . S
H886 C878 0.930 . S
H887 C879 0.929 . S
H888 C896 0.929 . S
H889 C898 0.930 . S
H890 C900 0.930 . S
H891 C903 0.929 . S
H892 C906 0.930 . S
H893 C908 0.960 . S
H894 C908 0.960 . S
H895 C908 0.960 . S
C896 H888 0.929 . S
C896 C897 1.377 . S
C896 C898 1.384 . S
C897 C896 1.377 . S
C897 C903 1.390 . S
C898 H889 0.930 . S
C898 C896 1.384 . S
C898 C899 1.372 . S
C899 C898 1.372 . S
C899 C900 1.400 . S
C899 C904 1.490 . S
C900 H890 0.930 . S
C900 C899 1.400 . S
C900 C903 1.386 . S
H901 C917 0.930 . S
H902 C918 0.931 . S
C903 H891 0.929 . S
C903 C897 1.390 . S
C903 C900 1.386 . S
C904 C899 1.490 . S
C904 C906 1.395 . S
C904 C907 1.403 . S
H905 C911 0.930 . S
C906 H892 0.930 . S
C906 C904 1.395 . S
C906 C909 1.403 . S
C907 C904 1.403 . S
C907 C908 1.524 . S
C907 C911 1.400 . S
C908 H893 0.960 . S
C908 H894 0.960 . S
C908 H895 0.960 . S
C908 C907 1.524 . S
C909 C906 1.403 . S
C909 C910 1.392 . S
C909 C913 1.495 . S
C910 C909 1.392 . S
C910 C911 1.385 . S
C910 C912 1.478 . S
C911 H905 0.930 . S
C911 C907 1.400 . S
C911 C910 1.385 . S
C912 C910 1.478 . S
C912 C914 1.381 . S
C912 C918 1.383 . S
C913 C909 1.495 . S
C913 H919 0.959 . S
C913 H920 0.961 . S
C913 H921 0.960 . S
C914 C912 1.381 . S
C914 C915 1.394 . S
C914 H922 0.930 . S
C915 C914 1.394 . S
C915 C916 1.383 . S
C915 H923 0.929 . S
C916 C915 1.383 . S
C916 C917 1.377 . S
C917 H901 0.930 . S
C917 C916 1.377 . S
C917 C918 1.379 . S
C918 H902 0.931 . S
C918 C912 1.383 . S
C918 C917 1.379 . S
H919 C913 0.959 . S
H920 C913 0.961 . S
H921 C913 0.960 . S
H922 C914 0.930 . S
H923 C915 0.929 . S
H924 C932 0.929 . S
H925 C934 0.930 . S
H926 C936 0.930 . S
H927 C939 0.929 . S
H928 C942 0.930 . S
H929 C944 0.960 . S
H930 C944 0.960 . S
H931 C944 0.960 . S
C932 H924 0.929 . S
C932 C933 1.377 . S
C932 C934 1.384 . S
C933 C932 1.377 . S
C933 C939 1.390 . S
C934 H925 0.930 . S
C934 C932 1.384 . S
C934 C935 1.372 . S
C935 C934 1.372 . S
C935 C936 1.400 . S
C935 C940 1.490 . S
C936 H926 0.930 . S
C936 C935 1.400 . S
C936 C939 1.386 . S
H937 C953 0.930 . S
H938 C954 0.931 . S
C939 H927 0.929 . S
C939 C933 1.390 . S
C939 C936 1.386 . S
C940 C935 1.490 . S
C940 C942 1.395 . S
C940 C943 1.403 . S
H941 C947 0.930 . S
C942 H928 0.930 . S
C942 C940 1.395 . S
C942 C945 1.403 . S
C943 C940 1.403 . S
C943 C944 1.524 . S
C943 C947 1.400 . S
C944 H929 0.960 . S
C944 H930 0.960 . S
C944 H931 0.960 . S
C944 C943 1.524 . S
C945 C942 1.403 . S
C945 C946 1.392 . S
C945 C949 1.495 . S
C946 C945 1.392 . S
C946 C947 1.385 . S
C946 C948 1.478 . S
C947 H941 0.930 . S
C947 C943 1.400 . S
C947 C946 1.385 . S
C948 C946 1.478 . S
C948 C950 1.381 . S
C948 C954 1.383 . S
C949 C945 1.495 . S
C949 H955 0.959 . S
C949 H956 0.961 . S
C949 H957 0.960 . S
C950 C948 1.381 . S
C950 C951 1.394 . S
C950 H958 0.930 . S
C951 C950 1.394 . S
C951 C952 1.383 . S
C951 H959 0.929 . S
C952 C951 1.383 . S
C952 C953 1.377 . S
C953 H937 0.930 . S
C953 C952 1.377 . S
C953 C954 1.379 . S
C954 H938 0.931 . S
C954 C948 1.383 . S
C954 C953 1.379 . S
H955 C949 0.959 . S
H956 C949 0.961 . S
H957 C949 0.960 . S
H958 C950 0.930 . S
H959 C951 0.929 . S
H960 C968 0.929 . S
H961 C970 0.930 . S
H962 C972 0.930 . S
H963 C975 0.929 . S
H964 C978 0.930 . S
H965 C980 0.960 . S
H966 C980 0.960 . S
H967 C980 0.960 . S
C968 H960 0.929 . S
C968 C969 1.377 . S
C968 C970 1.384 . S
C969 C968 1.377 . S
C969 C975 1.390 1_545 S
C970 H961 0.930 . S
C970 C968 1.384 . S
C970 C971 1.372 1_545 S
C971 C970 1.372 1_565 S
C971 C972 1.400 . S
C971 C976 1.490 . S
C972 H962 0.930 . S
C972 C971 1.400 . S
C972 C975 1.386 . S
H973 C989 0.930 . S
H974 C990 0.931 . S
C975 H963 0.929 . S
C975 C969 1.390 1_565 S
C975 C972 1.386 . S
C976 C971 1.490 . S
C976 C978 1.395 . S
C976 C979 1.403 . S
H977 C983 0.930 1_554 S
C978 H964 0.930 . S
C978 C976 1.395 . S
C978 C981 1.403 . S
C979 C976 1.403 . S
C979 C980 1.524 1_556 S
C979 C983 1.400 . S
C980 H965 0.960 . S
C980 H966 0.960 . S
C980 H967 0.960 . S
C980 C979 1.524 1_554 S
C981 C978 1.403 . S
C981 C982 1.392 . S
C981 C985 1.495 . S
C982 C981 1.392 . S
C982 C983 1.385 . S
C982 C984 1.478 . S
C983 H977 0.930 1_556 S
C983 C979 1.400 . S
C983 C982 1.385 . S
C984 C982 1.478 . S
C984 C986 1.381 . S
C984 C990 1.383 . S
C985 C981 1.495 . S
C985 H991 0.959 . S
C985 H992 0.961 . S
C985 H993 0.960 . S
C986 C984 1.381 . S
C986 C987 1.397 . S
C986 H994 0.935 . S
C987 C986 1.397 . S
C987 C988 1.387 . S
C987 H995 0.922 1_556 S
C988 C987 1.387 . S
C988 C989 1.377 . S
C989 H973 0.930 . S
C989 C988 1.377 . S
C989 C990 1.379 . S
C990 H974 0.931 . S
C990 C984 1.383 . S
C990 C989 1.379 . S
H991 C985 0.959 . S
H992 C985 0.961 . S
H993 C985 0.960 . S
H994 C986 0.935 . S
H995 C987 0.922 1_554 S
H996 C1004 0.929 . S
H997 C1006 0.930 . S
H998 C1008 0.930 . S
H999 C1011 0.929 . S
H1000 C1014 0.930 . S
H1001 C1016 0.960 . S
H1002 C1016 0.960 . S
H1003 C1016 0.960 . S
C1004 H996 0.929 . S
C1004 C1005 1.377 . S
C1004 C1006 1.384 . S
C1005 C1004 1.377 . S
C1005 C1011 1.390 . S
C1006 H997 0.930 . S
C1006 C1004 1.384 . S
C1006 C1007 1.372 . S
C1007 C1006 1.372 . S
C1007 C1008 1.400 . S
C1007 C1012 1.490 . S
C1008 H998 0.930 . S
C1008 C1007 1.400 . S
C1008 C1011 1.386 . S
H1009 C1025 0.930 . S
H1010 C1026 0.931 . S
C1011 H999 0.929 . S
C1011 C1005 1.390 . S
C1011 C1008 1.386 . S
C1012 C1007 1.490 . S
C1012 C1014 1.395 . S
C1012 C1015 1.403 . S
H1013 C1019 0.930 . S
C1014 H1000 0.930 . S
C1014 C1012 1.395 . S
C1014 C1017 1.403 . S
C1015 C1012 1.403 . S
C1015 C1016 1.524 . S
C1015 C1019 1.400 . S
C1016 H1001 0.960 . S
C1016 H1002 0.960 . S
C1016 H1003 0.960 . S
C1016 C1015 1.524 . S
C1017 C1014 1.403 . S
C1017 C1018 1.392 . S
C1017 C1021 1.495 . S
C1018 C1017 1.392 . S
C1018 C1019 1.385 . S
C1018 C1020 1.478 . S
C1019 H1013 0.930 . S
C1019 C1015 1.400 . S
C1019 C1018 1.385 . S
C1020 C1018 1.478 . S
C1020 C1022 1.381 . S
C1020 C1026 1.383 . S
C1021 C1017 1.495 . S
C1021 H1027 0.959 . S
C1021 H1028 0.961 . S
C1021 H1029 0.960 . S
C1022 C1020 1.381 . S
C1022 C1023 1.394 . S
C1022 H1030 0.930 . S
C1023 C1022 1.394 . S
C1023 C1024 1.383 . S
C1023 H1031 0.929 . S
C1024 C1023 1.383 . S
C1024 C1025 1.377 . S
C1025 H1009 0.930 . S
C1025 C1024 1.377 . S
C1025 C1026 1.379 . S
C1026 H1010 0.931 . S
C1026 C1020 1.383 . S
C1026 C1025 1.379 . S
H1027 C1021 0.959 . S
H1028 C1021 0.961 . S
H1029 C1021 0.960 . S
H1030 C1022 0.930 . S
H1031 C1023 0.929 . S
H1032 C1040 0.929 . S
H1033 C1042 0.930 . S
H1034 C1044 0.930 . S
H1035 C1047 0.929 . S
H1036 C1050 0.930 . S
H1037 C1052 0.960 . S
H1038 C1052 0.960 . S
H1039 C1052 0.960 . S
C1040 H1032 0.929 . S
C1040 C1041 1.377 . S
C1040 C1042 1.384 1_565 S
C1041 C1040 1.377 . S
C1041 C1047 1.390 1_565 S
C1042 H1033 0.930 . S
C1042 C1040 1.384 1_545 S
C1042 C1043 1.372 . S
C1043 C1042 1.372 . S
C1043 C1044 1.400 . S
C1043 C1048 1.490 . S
C1044 H1034 0.930 . S
C1044 C1043 1.400 . S
C1044 C1047 1.386 . S
H1045 C1061 0.930 . S
H1046 C1062 0.931 . S
C1047 H1035 0.929 . S
C1047 C1041 1.390 1_545 S
C1047 C1044 1.386 . S
C1048 C1043 1.490 . S
C1048 C1050 1.395 . S
C1048 C1051 1.403 . S
H1049 C1055 0.930 . S
C1050 H1036 0.930 . S
C1050 C1048 1.395 . S
C1050 C1053 1.403 . S
C1051 C1048 1.403 . S
C1051 C1052 1.524 . S
C1051 C1055 1.400 . S
C1052 H1037 0.960 . S
C1052 H1038 0.960 . S
C1052 H1039 0.960 . S
C1052 C1051 1.524 . S
C1053 C1050 1.403 . S
C1053 C1054 1.392 . S
C1053 C1057 1.495 . S
C1054 C1053 1.392 . S
C1054 C1055 1.385 . S
C1054 C1056 1.478 . S
C1055 H1049 0.930 . S
C1055 C1051 1.400 . S
C1055 C1054 1.385 . S
C1056 C1054 1.478 . S
C1056 C1058 1.381 . S
C1056 C1062 1.383 . S
C1057 C1053 1.495 . S
C1057 H1063 0.959 . S
C1057 H1064 0.961 . S
C1057 H1065 0.960 . S
C1058 C1056 1.381 . S
C1058 C1059 1.394 . S
C1058 H1066 0.930 . S
C1059 C1058 1.394 . S
C1059 C1060 1.383 . S
C1059 H1067 0.929 . S
C1060 C1059 1.383 . S
C1060 C1061 1.377 . S
C1061 H1045 0.930 . S
C1061 C1060 1.377 . S
C1061 C1062 1.379 . S
C1062 H1046 0.931 . S
C1062 C1056 1.383 . S
C1062 C1061 1.379 . S
H1063 C1057 0.959 . S
H1064 C1057 0.961 . S
H1065 C1057 0.960 . S
H1066 C1058 0.930 . S
H1067 C1059 0.929 . S
H1068 C1076 0.929 . S
H1069 C1078 0.930 . S
H1070 C1080 0.930 . S
H1071 C1083 0.929 . S
H1072 C1086 0.930 . S
H1073 C1088 0.960 . S
H1074 C1088 0.960 . S
H1075 C1088 0.960 . S
C1076 H1068 0.929 . S
C1076 C1077 1.377 . S
C1076 C1078 1.384 . S
C1077 C1076 1.377 . S
C1077 C1083 1.390 . S
C1078 H1069 0.930 . S
C1078 C1076 1.384 . S
C1078 C1079 1.372 . S
C1079 C1078 1.372 . S
C1079 C1080 1.400 . S
C1079 C1084 1.490 . S
C1080 H1070 0.930 . S
C1080 C1079 1.400 . S
C1080 C1083 1.386 . S
H1081 C1097 0.930 . S
H1082 C1098 0.931 . S
C1083 H1071 0.929 . S
C1083 C1077 1.390 . S
C1083 C1080 1.386 . S
C1084 C1079 1.490 . S
C1084 C1086 1.395 . S
C1084 C1087 1.403 . S
H1085 C1091 0.930 . S
C1086 H1072 0.930 . S
C1086 C1084 1.395 . S
C1086 C1089 1.403 . S
C1087 C1084 1.403 . S
C1087 C1088 1.524 . S
C1087 C1091 1.400 . S
C1088 H1073 0.960 . S
C1088 H1074 0.960 . S
C1088 H1075 0.960 . S
C1088 C1087 1.524 . S
C1089 C1086 1.403 . S
C1089 C1090 1.392 . S
C1089 C1093 1.495 . S
C1090 C1089 1.392 . S
C1090 C1091 1.385 . S
C1090 C1092 1.478 . S
C1091 H1085 0.930 . S
C1091 C1087 1.400 . S
C1091 C1090 1.385 . S
C1092 C1090 1.478 . S
C1092 C1094 1.381 . S
C1092 C1098 1.383 . S
C1093 C1089 1.495 . S
C1093 H1099 0.959 . S
C1093 H1100 0.961 . S
C1093 H1101 0.960 . S
C1094 C1092 1.381 . S
C1094 C1095 1.394 . S
C1094 H1102 0.930 . S
C1095 C1094 1.394 . S
C1095 C1096 1.383 . S
C1095 H1103 0.929 . S
C1096 C1095 1.383 . S
C1096 C1097 1.377 . S
C1097 H1081 0.930 . S
C1097 C1096 1.377 . S
C1097 C1098 1.379 . S
C1098 H1082 0.931 . S
C1098 C1092 1.383 . S
C1098 C1097 1.379 . S
H1099 C1093 0.959 . S
H1100 C1093 0.961 . S
H1101 C1093 0.960 . S
H1102 C1094 0.930 . S
H1103 C1095 0.929 . S
H1104 C1112 0.929 . S
H1105 C1114 0.930 . S
H1106 C1116 0.930 . S
H1107 C1119 0.929 . S
H1108 C1122 0.930 . S
H1109 C1124 0.960 . S
H1110 C1124 0.960 . S
H1111 C1124 0.960 . S
C1112 H1104 0.929 . S
C1112 C1113 1.377 . S
C1112 C1114 1.384 1_565 S
C1113 C1112 1.377 . S
C1113 C1119 1.390 . S
C1114 H1105 0.930 . S
C1114 C1112 1.384 1_545 S
C1114 C1115 1.372 . S
C1115 C1114 1.372 . S
C1115 C1116 1.400 . S
C1115 C1120 1.490 . S
C1116 H1106 0.930 . S
C1116 C1115 1.400 . S
C1116 C1119 1.386 1_545 S
H1117 C1133 0.930 . S
H1118 C1134 0.931 . S
C1119 H1107 0.929 . S
C1119 C1113 1.390 . S
C1119 C1116 1.386 1_565 S
C1120 C1115 1.490 . S
C1120 C1122 1.395 . S
C1120 C1123 1.403 . S
H1121 C1127 0.930 . S
C1122 H1108 0.930 . S
C1122 C1120 1.395 . S
C1122 C1125 1.403 . S
C1123 C1120 1.403 . S
C1123 C1124 1.524 . S
C1123 C1127 1.400 . S
C1124 H1109 0.960 . S
C1124 H1110 0.960 . S
C1124 H1111 0.960 . S
C1124 C1123 1.524 . S
C1125 C1122 1.403 . S
C1125 C1126 1.392 . S
C1125 C1129 1.495 . S
C1126 C1125 1.392 . S
C1126 C1127 1.385 . S
C1126 C1128 1.478 . S
C1127 H1121 0.930 . S
C1127 C1123 1.400 . S
C1127 C1126 1.385 . S
C1128 C1126 1.478 . S
C1128 C1130 1.381 . S
C1128 C1134 1.383 . S
C1129 C1125 1.495 . S
C1129 H1135 0.959 . S
C1129 H1136 0.961 . S
C1129 H1137 0.960 . S
C1130 C1128 1.381 . S
C1130 C1131 1.394 . S
C1130 H1138 0.930 . S
C1131 C1130 1.394 . S
C1131 C1132 1.383 . S
C1131 H1139 0.929 . S
C1132 C1131 1.383 . S
C1132 C1133 1.377 . S
C1133 H1117 0.930 . S
C1133 C1132 1.377 . S
C1133 C1134 1.379 . S
C1134 H1118 0.931 . S
C1134 C1128 1.383 . S
C1134 C1133 1.379 . S
H1135 C1129 0.959 . S
H1136 C1129 0.961 . S
H1137 C1129 0.960 . S
H1138 C1130 0.930 . S
H1139 C1131 0.929 . S
H1140 C1148 0.929 . S
H1141 C1150 0.930 . S
H1142 C1152 0.930 . S
H1143 C1155 0.929 . S
H1144 C1158 0.930 . S
H1145 C1160 0.960 . S
H1146 C1160 0.960 . S
H1147 C1160 0.960 . S
C1148 H1140 0.929 . S
C1148 C1149 1.377 . S
C1148 C1150 1.384 . S
C1149 C1148 1.377 . S
C1149 C1155 1.390 . S
C1150 H1141 0.930 . S
C1150 C1148 1.384 . S
C1150 C1151 1.372 . S
C1151 C1150 1.372 . S
C1151 C1152 1.400 . S
C1151 C1156 1.490 . S
C1152 H1142 0.930 . S
C1152 C1151 1.400 . S
C1152 C1155 1.386 . S
H1153 C1169 0.930 . S
H1154 C1170 0.931 . S
C1155 H1143 0.929 . S
C1155 C1149 1.390 . S
C1155 C1152 1.386 . S
C1156 C1151 1.490 . S
C1156 C1158 1.395 . S
C1156 C1159 1.403 . S
H1157 C1163 0.930 . S
C1158 H1144 0.930 . S
C1158 C1156 1.395 . S
C1158 C1161 1.403 . S
C1159 C1156 1.403 . S
C1159 C1160 1.524 . S
C1159 C1163 1.400 . S
C1160 H1145 0.960 . S
C1160 H1146 0.960 . S
C1160 H1147 0.960 . S
C1160 C1159 1.524 . S
C1161 C1158 1.403 . S
C1161 C1162 1.392 . S
C1161 C1165 1.495 . S
C1162 C1161 1.392 . S
C1162 C1163 1.385 . S
C1162 C1164 1.478 . S
C1163 H1157 0.930 . S
C1163 C1159 1.400 . S
C1163 C1162 1.385 . S
C1164 C1162 1.478 . S
C1164 C1166 1.381 . S
C1164 C1170 1.383 . S
C1165 C1161 1.495 . S
C1165 H1171 0.959 . S
C1165 H1172 0.961 . S
C1165 H1173 0.960 . S
C1166 C1164 1.381 . S
C1166 C1167 1.394 . S
C1166 H1174 0.930 . S
C1167 C1166 1.394 . S
C1167 C1168 1.383 . S
C1167 H1175 0.929 . S
C1168 C1167 1.383 . S
C1168 C1169 1.377 . S
C1169 H1153 0.930 . S
C1169 C1168 1.377 . S
C1169 C1170 1.379 . S
C1170 H1154 0.931 . S
C1170 C1164 1.383 . S
C1170 C1169 1.379 . S
H1171 C1165 0.959 . S
H1172 C1165 0.961 . S
H1173 C1165 0.960 . S
H1174 C1166 0.930 . S
H1175 C1167 0.929 . S
H1176 C1184 0.929 . S
H1177 C1186 0.930 . S
H1178 C1188 0.930 . S
H1179 C1191 0.929 . S
H1180 C1194 0.930 . S
H1181 C1196 0.960 . S
H1182 C1196 0.960 . S
H1183 C1196 0.960 . S
C1184 H1176 0.929 . S
C1184 C1185 1.377 . S
C1184 C1186 1.384 . S
C1185 C1184 1.377 . S
C1185 C1191 1.390 . S
C1186 H1177 0.930 . S
C1186 C1184 1.384 . S
C1186 C1187 1.372 . S
C1187 C1186 1.372 . S
C1187 C1188 1.400 . S
C1187 C1192 1.490 . S
C1188 H1178 0.930 . S
C1188 C1187 1.400 . S
C1188 C1191 1.386 . S
H1189 C1205 0.930 . S
H1190 C1206 0.931 . S
C1191 H1179 0.929 . S
C1191 C1185 1.390 . S
C1191 C1188 1.386 . S
C1192 C1187 1.490 . S
C1192 C1194 1.395 . S
C1192 C1195 1.403 . S
H1193 C1199 0.930 . S
C1194 H1180 0.930 . S
C1194 C1192 1.395 . S
C1194 C1197 1.403 . S
C1195 C1192 1.403 . S
C1195 C1196 1.524 . S
C1195 C1199 1.400 . S
C1196 H1181 0.960 . S
C1196 H1182 0.960 . S
C1196 H1183 0.960 . S
C1196 C1195 1.524 . S
C1197 C1194 1.403 . S
C1197 C1198 1.392 . S
C1197 C1201 1.495 . S
C1198 C1197 1.392 . S
C1198 C1199 1.385 . S
C1198 C1200 1.478 . S
C1199 H1193 0.930 . S
C1199 C1195 1.400 . S
C1199 C1198 1.385 . S
C1200 C1198 1.478 . S
C1200 C1202 1.381 . S
C1200 C1206 1.383 . S
C1201 C1197 1.495 . S
C1201 H1207 0.959 . S
C1201 H1208 0.961 . S
C1201 H1209 0.960 . S
C1202 C1200 1.381 . S
C1202 C1203 1.394 . S
C1202 H1210 0.930 . S
C1203 C1202 1.394 . S
C1203 C1204 1.383 . S
C1203 H1211 0.929 . S
C1204 C1203 1.383 . S
C1204 C1205 1.377 . S
C1205 H1189 0.930 . S
C1205 C1204 1.377 . S
C1205 C1206 1.379 . S
C1206 H1190 0.931 . S
C1206 C1200 1.383 . S
C1206 C1205 1.379 . S
H1207 C1201 0.959 . S
H1208 C1201 0.961 . S
H1209 C1201 0.960 . S
H1210 C1202 0.930 . S
H1211 C1203 0.929 . S
H1212 C1220 0.929 . S
H1213 C1222 0.930 . S
H1214 C1224 0.930 1_565 S
H1215 C1227 0.929 1_565 S
H1216 C1230 0.930 . S
H1217 C1232 0.960 . S
H1218 C1232 0.960 . S
H1219 C1232 0.960 1_565 S
C1220 H1212 0.929 . S
C1220 C1221 1.377 . S
C1220 C1222 1.384 . S
C1221 C1220 1.377 . S
C1221 C1227 1.390 . S
C1222 H1213 0.930 . S
C1222 C1220 1.384 . S
C1222 C1223 1.372 . S
C1223 C1222 1.372 . S
C1223 C1224 1.400 . S
C1223 C1228 1.490 . S
C1224 H1214 0.930 1_545 S
C1224 C1223 1.400 . S
C1224 C1227 1.386 . S
H1225 C1241 0.930 . S
H1226 C1242 0.931 . S
C1227 H1215 0.929 1_545 S
C1227 C1221 1.390 . S
C1227 C1224 1.386 . S
C1228 C1223 1.490 . S
C1228 C1230 1.395 . S
C1228 C1231 1.403 . S
H1229 C1235 0.930 . S
C1230 H1216 0.930 . S
C1230 C1228 1.395 . S
C1230 C1233 1.403 . S
C1231 C1228 1.403 . S
C1231 C1232 1.524 . S
C1231 C1235 1.400 . S
C1232 H1217 0.960 . S
C1232 H1218 0.960 . S
C1232 H1219 0.960 1_545 S
C1232 C1231 1.524 . S
C1233 C1230 1.403 . S
C1233 C1234 1.392 . S
C1233 C1237 1.495 . S
C1234 C1233 1.392 . S
C1234 C1235 1.385 . S
C1234 C1236 1.478 . S
C1235 H1229 0.930 . S
C1235 C1231 1.400 . S
C1235 C1234 1.385 . S
C1236 C1234 1.478 . S
C1236 C1238 1.381 . S
C1236 C1242 1.383 1_545 S
C1237 C1233 1.495 . S
C1237 H1243 0.959 . S
C1237 H1244 0.961 . S
C1237 H1245 0.960 . S
C1238 C1236 1.381 . S
C1238 C1239 1.394 . S
C1238 H1246 0.930 . S
C1239 C1238 1.394 . S
C1239 C1240 1.383 . S
C1239 H1247 0.929 . S
C1240 C1239 1.383 . S
C1240 C1241 1.377 1_545 S
C1241 H1225 0.930 . S
C1241 C1240 1.377 1_565 S
C1241 C1242 1.379 . S
C1242 H1226 0.931 . S
C1242 C1236 1.383 1_565 S
C1242 C1241 1.379 . S
H1243 C1237 0.959 . S
H1244 C1237 0.961 . S
H1245 C1237 0.960 . S
H1246 C1238 0.930 . S
H1247 C1239 0.929 . S
H1248 C1256 0.929 . S
H1249 C1258 0.930 . S
H1250 C1260 0.930 . S
H1251 C1263 0.929 . S
H1252 C1266 0.930 . S
H1253 C1268 0.960 . S
H1254 C1268 0.960 . S
H1255 C1268 0.960 . S
C1256 H1248 0.929 . S
C1256 C1257 1.377 . S
C1256 C1258 1.384 . S
C1257 C1256 1.377 . S
C1257 C1263 1.390 . S
C1258 H1249 0.930 . S
C1258 C1256 1.384 . S
C1258 C1259 1.372 . S
C1259 C1258 1.372 . S
C1259 C1260 1.400 . S
C1259 C1264 1.490 . S
C1260 H1250 0.930 . S
C1260 C1259 1.400 . S
C1260 C1263 1.386 . S
H1261 C1277 0.930 . S
H1262 C1278 0.931 . S
C1263 H1251 0.929 . S
C1263 C1257 1.390 . S
C1263 C1260 1.386 . S
C1264 C1259 1.490 . S
C1264 C1266 1.395 . S
C1264 C1267 1.403 . S
H1265 C1271 0.930 . S
C1266 H1252 0.930 . S
C1266 C1264 1.395 . S
C1266 C1269 1.403 . S
C1267 C1264 1.403 . S
C1267 C1268 1.524 . S
C1267 C1271 1.400 . S
C1268 H1253 0.960 . S
C1268 H1254 0.960 . S
C1268 H1255 0.960 . S
C1268 C1267 1.524 . S
C1269 C1266 1.403 . S
C1269 C1270 1.392 . S
C1269 C1273 1.495 . S
C1270 C1269 1.392 . S
C1270 C1271 1.385 . S
C1270 C1272 1.478 . S
C1271 H1265 0.930 . S
C1271 C1267 1.400 . S
C1271 C1270 1.385 . S
C1272 C1270 1.478 . S
C1272 C1274 1.381 . S
C1272 C1278 1.383 . S
C1273 C1269 1.495 . S
C1273 H1279 0.959 . S
C1273 H1280 0.961 . S
C1273 H1281 0.960 . S
C1274 C1272 1.381 . S
C1274 C1275 1.394 . S
C1274 H1282 0.930 . S
C1275 C1274 1.394 . S
C1275 C1276 1.383 . S
C1275 H1283 0.929 . S
C1276 C1275 1.383 . S
C1276 C1277 1.377 . S
C1277 H1261 0.930 . S
C1277 C1276 1.377 . S
C1277 C1278 1.379 . S
C1278 H1262 0.931 . S
C1278 C1272 1.383 . S
C1278 C1277 1.379 . S
H1279 C1273 0.959 . S
H1280 C1273 0.961 . S
H1281 C1273 0.960 . S
H1282 C1274 0.930 . S
H1283 C1275 0.929 . S
H1284 C1292 0.929 . S
H1285 C1294 0.930 . S
H1286 C1296 0.930 . S
H1287 C1299 0.929 . S
H1288 C1302 0.930 . S
H1289 C1304 0.960 . S
H1290 C1304 0.960 . S
H1291 C1304 0.960 . S
C1292 H1284 0.929 . S
C1292 C1293 1.377 . S
C1292 C1294 1.384 . S
C1293 C1292 1.377 . S
C1293 C1299 1.390 . S
C1294 H1285 0.930 . S
C1294 C1292 1.384 . S
C1294 C1295 1.372 . S
C1295 C1294 1.372 . S
C1295 C1296 1.400 . S
C1295 C1300 1.490 . S
C1296 H1286 0.930 . S
C1296 C1295 1.400 . S
C1296 C1299 1.386 . S
H1297 C1313 0.930 . S
H1298 C1314 0.931 . S
C1299 H1287 0.929 . S
C1299 C1293 1.390 . S
C1299 C1296 1.386 . S
C1300 C1295 1.490 . S
C1300 C1302 1.395 . S
C1300 C1303 1.403 . S
H1301 C1307 0.930 . S
C1302 H1288 0.930 . S
C1302 C1300 1.395 . S
C1302 C1305 1.403 . S
C1303 C1300 1.403 . S
C1303 C1304 1.524 . S
C1303 C1307 1.400 . S
C1304 H1289 0.960 . S
C1304 H1290 0.960 . S
C1304 H1291 0.960 . S
C1304 C1303 1.524 . S
C1305 C1302 1.403 . S
C1305 C1306 1.392 . S
C1305 C1309 1.495 . S
C1306 C1305 1.392 . S
C1306 C1307 1.385 . S
C1306 C1308 1.478 . S
C1307 H1301 0.930 . S
C1307 C1303 1.400 . S
C1307 C1306 1.385 . S
C1308 C1306 1.478 . S
C1308 C1310 1.381 . S
C1308 C1314 1.383 . S
C1309 C1305 1.495 . S
C1309 H1315 0.959 . S
C1309 H1316 0.961 . S
C1309 H1317 0.960 . S
C1310 C1308 1.381 . S
C1310 C1311 1.394 . S
C1310 H1318 0.930 . S
C1311 C1310 1.394 . S
C1311 C1312 1.383 . S
C1311 H1319 0.929 . S
C1312 C1311 1.383 . S
C1312 C1313 1.377 . S
C1313 H1297 0.930 . S
C1313 C1312 1.377 . S
C1313 C1314 1.379 . S
C1314 H1298 0.931 . S
C1314 C1308 1.383 . S
C1314 C1313 1.379 . S
H1315 C1309 0.959 . S
H1316 C1309 0.961 . S
H1317 C1309 0.960 . S
H1318 C1310 0.930 . S
H1319 C1311 0.929 . S
H1320 C1328 0.929 . S
H1321 C1330 0.930 . S
H1322 C1332 0.930 . S
H1323 C1335 0.929 . S
H1324 C1338 0.930 . S
H1325 C1340 0.960 . S
H1326 C1340 0.960 . S
H1327 C1340 0.960 . S
C1328 H1320 0.929 . S
C1328 C1329 1.377 . S
C1328 C1330 1.384 . S
C1329 C1328 1.377 . S
C1329 C1335 1.390 . S
C1330 H1321 0.930 . S
C1330 C1328 1.384 . S
C1330 C1331 1.372 . S
C1331 C1330 1.372 . S
C1331 C1332 1.400 . S
C1331 C1336 1.490 . S
C1332 H1322 0.930 . S
C1332 C1331 1.400 . S
C1332 C1335 1.386 . S
H1333 C1349 0.930 . S
H1334 C1350 0.931 . S
C1335 H1323 0.929 . S
C1335 C1329 1.390 . S
C1335 C1332 1.386 . S
C1336 C1331 1.490 . S
C1336 C1338 1.395 . S
C1336 C1339 1.403 . S
H1337 C1343 0.930 . S
C1338 H1324 0.930 . S
C1338 C1336 1.395 . S
C1338 C1341 1.403 . S
C1339 C1336 1.403 . S
C1339 C1340 1.524 . S
C1339 C1343 1.400 . S
C1340 H1325 0.960 . S
C1340 H1326 0.960 . S
C1340 H1327 0.960 . S
C1340 C1339 1.524 . S
C1341 C1338 1.403 . S
C1341 C1342 1.392 . S
C1341 C1345 1.495 . S
C1342 C1341 1.392 . S
C1342 C1343 1.385 . S
C1342 C1344 1.478 . S
C1343 H1337 0.930 . S
C1343 C1339 1.400 . S
C1343 C1342 1.385 . S
C1344 C1342 1.478 . S
C1344 C1346 1.381 . S
C1344 C1350 1.383 . S
C1345 C1341 1.495 . S
C1345 H1351 0.959 . S
C1345 H1352 0.961 . S
C1345 H1353 0.960 . S
C1346 C1344 1.381 . S
C1346 C1347 1.394 . S
C1346 H1354 0.930 . S
C1347 C1346 1.394 . S
C1347 C1348 1.383 . S
C1347 H1355 0.929 . S
C1348 C1347 1.383 . S
C1348 C1349 1.377 . S
C1349 H1333 0.930 . S
C1349 C1348 1.377 . S
C1349 C1350 1.379 . S
C1350 H1334 0.931 . S
C1350 C1344 1.383 . S
C1350 C1349 1.379 . S
H1351 C1345 0.959 . S
H1352 C1345 0.961 . S
H1353 C1345 0.960 . S
H1354 C1346 0.930 . S
H1355 C1347 0.929 . S
H1356 C1364 0.929 . S
H1357 C1366 0.930 . S
H1358 C1368 0.930 . S
H1359 C1371 0.929 . S
H1360 C1374 0.930 . S
H1361 C1376 0.960 . S
H1362 C1376 0.960 . S
H1363 C1376 0.960 . S
C1364 H1356 0.929 . S
C1364 C1365 1.377 . S
C1364 C1366 1.384 1_455 S
C1365 C1364 1.377 . S
C1365 C1371 1.390 . S
C1366 H1357 0.930 . S
C1366 C1364 1.384 1_655 S
C1366 C1367 1.372 . S
C1367 C1366 1.372 . S
C1367 C1368 1.400 . S
C1367 C1372 1.490 . S
C1368 H1358 0.930 . S
C1368 C1367 1.400 . S
C1368 C1371 1.386 1_655 S
H1369 C1385 0.930 1_565 S
H1370 C1386 0.931 1_565 S
C1371 H1359 0.929 . S
C1371 C1365 1.390 . S
C1371 C1368 1.386 1_455 S
C1372 C1367 1.490 . S
C1372 C1374 1.395 . S
C1372 C1375 1.403 . S
H1373 C1379 0.930 . S
C1374 H1360 0.930 . S
C1374 C1372 1.395 . S
C1374 C1377 1.403 . S
C1375 C1372 1.403 . S
C1375 C1376 1.524 1_655 S
C1375 C1379 1.400 . S
C1376 H1361 0.960 . S
C1376 H1362 0.960 . S
C1376 H1363 0.960 . S
C1376 C1375 1.524 1_455 S
C1377 C1374 1.403 . S
C1377 C1378 1.392 . S
C1377 C1381 1.495 . S
C1378 C1377 1.392 . S
C1378 C1379 1.385 . S
C1378 C1380 1.478 . S
C1379 H1373 0.930 . S
C1379 C1375 1.400 . S
C1379 C1378 1.385 . S
C1380 C1378 1.478 . S
C1380 C1382 1.381 . S
C1380 C1386 1.383 . S
C1381 C1377 1.495 . S
C1381 H1387 0.959 . S
C1381 H1388 0.961 . S
C1381 H1389 0.960 . S
C1382 C1380 1.381 . S
C1382 C1383 1.394 . S
C1382 H1390 0.930 . S
C1383 C1382 1.394 . S
C1383 C1384 1.383 . S
C1383 H1391 0.929 . S
C1384 C1383 1.383 . S
C1384 C1385 1.377 . S
C1385 H1369 0.930 1_545 S
C1385 C1384 1.377 . S
C1385 C1386 1.379 . S
C1386 H1370 0.931 1_545 S
C1386 C1380 1.383 . S
C1386 C1385 1.379 . S
H1387 C1381 0.959 . S
H1388 C1381 0.961 . S
H1389 C1381 0.960 . S
H1390 C1382 0.930 . S
H1391 C1383 0.929 . S
H1392 C1400 0.929 . S
H1393 C1402 0.930 . S
H1394 C1404 0.930 . S
H1395 C1407 0.929 . S
H1396 C1410 0.930 . S
H1397 C1412 0.960 . S
H1398 C1412 0.960 . S
H1399 C1412 0.960 . S
C1400 H1392 0.929 . S
C1400 C1401 1.377 . S
C1400 C1402 1.384 . S
C1401 C1400 1.377 . S
C1401 C1407 1.390 . S
C1402 H1393 0.930 . S
C1402 C1400 1.384 . S
C1402 C1403 1.372 . S
C1403 C1402 1.372 . S
C1403 C1404 1.400 . S
C1403 C1408 1.490 . S
C1404 H1394 0.930 . S
C1404 C1403 1.400 . S
C1404 C1407 1.386 . S
H1405 C1421 0.930 . S
H1406 C1422 0.931 . S
C1407 H1395 0.929 . S
C1407 C1401 1.390 . S
C1407 C1404 1.386 . S
C1408 C1403 1.490 . S
C1408 C1410 1.395 . S
C1408 C1411 1.403 . S
H1409 C1415 0.930 . S
C1410 H1396 0.930 . S
C1410 C1408 1.395 . S
C1410 C1413 1.403 . S
C1411 C1408 1.403 . S
C1411 C1412 1.524 . S
C1411 C1415 1.400 . S
C1412 H1397 0.960 . S
C1412 H1398 0.960 . S
C1412 H1399 0.960 . S
C1412 C1411 1.524 . S
C1413 C1410 1.403 . S
C1413 C1414 1.392 . S
C1413 C1417 1.495 . S
C1414 C1413 1.392 . S
C1414 C1415 1.385 . S
C1414 C1416 1.478 . S
C1415 H1409 0.930 . S
C1415 C1411 1.400 . S
C1415 C1414 1.385 . S
C1416 C1414 1.478 . S
C1416 C1418 1.381 . S
C1416 C1422 1.383 . S
C1417 C1413 1.495 . S
C1417 H1423 0.959 . S
C1417 H1424 0.961 . S
C1417 H1425 0.960 . S
C1418 C1416 1.381 . S
C1418 C1419 1.394 . S
C1418 H1426 0.930 . S
C1419 C1418 1.394 . S
C1419 C1420 1.383 . S
C1419 H1427 0.929 . S
C1420 C1419 1.383 . S
C1420 C1421 1.377 . S
C1421 H1405 0.930 . S
C1421 C1420 1.377 . S
C1421 C1422 1.379 . S
C1422 H1406 0.931 . S
C1422 C1416 1.383 . S
C1422 C1421 1.379 . S
H1423 C1417 0.959 . S
H1424 C1417 0.961 . S
H1425 C1417 0.960 . S
H1426 C1418 0.930 . S
H1427 C1419 0.929 . S
H1428 C1436 0.929 . S
H1429 C1438 0.930 . S
H1430 C1440 0.930 . S
H1431 C1443 0.960 . S
H1432 C1446 0.930 . S
H1433 C1448 0.960 . S
H1434 C1448 0.960 . S
H1435 C1448 0.960 . S
C1436 H1428 0.929 . S
C1436 C1437 1.377 . S
C1436 C1438 1.384 . S
C1437 C1436 1.377 . S
C1437 C1443 1.390 . S
C1438 H1429 0.930 . S
C1438 C1436 1.384 . S
C1438 C1439 1.372 . S
C1439 C1438 1.372 . S
C1439 C1440 1.400 . S
C1439 C1444 1.490 . S
C1440 H1430 0.930 . S
C1440 C1439 1.400 . S
C1440 C1443 1.386 . S
H1441 C1457 0.930 . S
H1442 C1458 0.931 . S
C1443 H1431 0.960 . S
C1443 C1437 1.390 . S
C1443 C1440 1.386 . S
C1444 C1439 1.490 . S
C1444 C1446 1.395 . S
C1444 C1447 1.403 . S
H1445 C1451 0.930 . S
C1446 H1432 0.930 . S
C1446 C1444 1.395 . S
C1446 C1449 1.403 . S
C1447 C1444 1.403 . S
C1447 C1448 1.524 . S
C1447 C1451 1.400 . S
C1448 H1433 0.960 . S
C1448 H1434 0.960 . S
C1448 H1435 0.960 . S
C1448 C1447 1.524 . S
C1449 C1446 1.403 . S
C1449 C1450 1.392 . S
C1449 C1453 1.495 . S
C1450 C1449 1.392 . S
C1450 C1451 1.385 . S
C1450 C1452 1.478 . S
C1451 H1445 0.930 . S
C1451 C1447 1.400 . S
C1451 C1450 1.385 . S
C1452 C1450 1.478 . S
C1452 C1454 1.381 . S
C1452 C1458 1.383 . S
C1453 C1449 1.495 . S
C1453 H1459 0.959 . S
C1453 H1460 0.961 . S
C1453 H1461 0.960 . S
C1454 C1452 1.381 . S
C1454 C1455 1.394 . S
C1454 H1462 0.930 . S
C1455 C1454 1.394 . S
C1455 C1456 1.383 . S
C1455 H1463 0.929 . S
C1456 C1455 1.383 . S
C1456 C1457 1.377 . S
C1457 H1441 0.930 . S
C1457 C1456 1.377 . S
C1457 C1458 1.379 . S
C1458 H1442 0.931 . S
C1458 C1452 1.383 . S
C1458 C1457 1.379 . S
H1459 C1453 0.959 . S
H1460 C1453 0.961 . S
H1461 C1453 0.960 . S
H1462 C1454 0.930 . S
H1463 C1455 0.929 . S
H1464 C1472 0.929 . S
H1465 C1474 0.930 . S
H1466 C1476 0.930 . S
H1467 C1479 0.929 . S
H1468 C1482 0.930 . S
H1469 C1484 0.960 . S
H1470 C1484 0.960 . S
H1471 C1484 0.960 . S
C1472 H1464 0.929 . S
C1472 C1473 1.377 . S
C1472 C1474 1.384 . S
C1473 C1472 1.377 . S
C1473 C1479 1.390 . S
C1474 H1465 0.930 . S
C1474 C1472 1.384 . S
C1474 C1475 1.372 . S
C1475 C1474 1.372 . S
C1475 C1476 1.400 . S
C1475 C1480 1.490 . S
C1476 H1466 0.930 . S
C1476 C1475 1.400 . S
C1476 C1479 1.386 . S
H1477 C1493 0.930 . S
H1478 C1494 0.931 . S
C1479 H1467 0.929 . S
C1479 C1473 1.390 . S
C1479 C1476 1.386 . S
C1480 C1475 1.490 . S
C1480 C1482 1.395 . S
C1480 C1483 1.403 . S
H1481 C1487 0.930 . S
C1482 H1468 0.930 . S
C1482 C1480 1.395 . S
C1482 C1485 1.403 . S
C1483 C1480 1.403 . S
C1483 C1484 1.524 . S
C1483 C1487 1.400 . S
C1484 H1469 0.960 . S
C1484 H1470 0.960 . S
C1484 H1471 0.960 . S
C1484 C1483 1.524 . S
C1485 C1482 1.403 . S
C1485 C1486 1.392 . S
C1485 C1489 1.495 . S
C1486 C1485 1.392 . S
C1486 C1487 1.385 . S
C1486 C1488 1.478 . S
C1487 H1481 0.930 . S
C1487 C1483 1.400 . S
C1487 C1486 1.385 . S
C1488 C1486 1.478 . S
C1488 C1490 1.381 . S
C1488 C1494 1.383 . S
C1489 C1485 1.495 . S
C1489 H1495 0.959 . S
C1489 H1496 0.961 . S
C1489 H1497 0.960 . S
C1490 C1488 1.381 . S
C1490 C1491 1.394 . S
C1490 H1498 0.930 . S
C1491 C1490 1.394 . S
C1491 C1492 1.383 . S
C1491 H1499 0.929 . S
C1492 C1491 1.383 . S
C1492 C1493 1.377 . S
C1493 H1477 0.930 . S
C1493 C1492 1.377 . S
C1493 C1494 1.379 . S
C1494 H1478 0.931 . S
C1494 C1488 1.383 . S
C1494 C1493 1.379 . S
H1495 C1489 0.959 . S
H1496 C1489 0.961 . S
H1497 C1489 0.960 . S
H1498 C1490 0.930 . S
H1499 C1491 0.929 . S
H1500 C1508 0.929 . S
H1501 C1510 0.930 . S
H1502 C1512 0.930 . S
H1503 C1515 0.929 . S
H1504 C1518 0.930 . S
H1505 C1520 0.956 1_455 S
H1506 C1520 0.973 . S
H1507 C1520 0.950 1_455 S
C1508 H1500 0.929 . S
C1508 C1509 1.377 . S
C1508 C1510 1.384 1_554 S
C1509 C1508 1.377 . S
C1509 C1515 1.390 1_655 S
C1510 H1501 0.930 . S
C1510 C1508 1.384 1_556 S
C1510 C1511 1.372 . S
C1511 C1510 1.372 . S
C1511 C1512 1.400 1_656 S
C1511 C1516 1.490 . S
C1512 H1502 0.930 . S
C1512 C1511 1.400 1_454 S
C1512 C1515 1.386 . S
H1513 C1529 0.930 . S
H1514 C1530 0.931 . S
C1515 H1503 0.929 . S
C1515 C1509 1.390 1_455 S
C1515 C1512 1.386 . S
C1516 C1511 1.490 . S
C1516 C1518 1.395 . S
C1516 C1519 1.403 . S
H1517 C1523 0.939 . S
C1518 H1504 0.930 . S
C1518 C1516 1.395 . S
C1518 C1521 1.403 . S
C1519 C1516 1.403 . S
C1519 C1520 1.524 1_556 S
C1519 C1523 1.394 1_655 S
C1520 H1505 0.956 1_655 S
C1520 H1506 0.973 . S
C1520 H1507 0.950 1_655 S
C1520 C1519 1.524 1_554 S
C1521 C1518 1.403 . S
C1521 C1522 1.392 . S
C1521 C1525 1.495 . S
C1522 C1521 1.392 . S
C1522 C1523 1.383 1_655 S
C1522 C1524 1.478 1_655 S
C1523 H1517 0.939 . S
C1523 C1519 1.394 1_455 S
C1523 C1522 1.383 1_455 S
C1524 C1522 1.478 1_455 S
C1524 C1526 1.381 1_455 S
C1524 C1530 1.383 . S
C1525 C1521 1.495 . S
C1525 H1531 0.959 . S
C1525 H1532 0.961 1_655 S
C1525 H1533 0.960 . S
C1526 C1524 1.381 1_655 S
C1526 C1527 1.394 . S
C1526 H1534 0.930 . S
C1527 C1526 1.394 . S
C1527 C1528 1.383 1_655 S
C1527 H1535 0.929 . S
C1528 C1527 1.383 1_455 S
C1528 C1529 1.377 . S
C1529 H1513 0.930 . S
C1529 C1528 1.377 . S
C1529 C1530 1.379 . S
C1530 H1514 0.931 . S
C1530 C1524 1.383 . S
C1530 C1529 1.379 . S
H1531 C1525 0.959 . S
H1532 C1525 0.961 1_455 S
H1533 C1525 0.960 . S
H1534 C1526 0.930 . S
H1535 C1527 0.929 . S
H1536 C1544 0.929 . S
H1537 C1546 0.930 . S
H1538 C1548 0.930 . S
H1539 C1551 0.929 . S
H1540 C1554 0.930 . S
H1541 C1556 0.960 . S
H1542 C1556 0.960 . S
H1543 C1556 0.960 . S
C1544 H1536 0.929 . S
C1544 C1545 1.377 . S
C1544 C1546 1.384 . S
C1545 C1544 1.377 . S
C1545 C1551 1.390 . S
C1546 H1537 0.930 . S
C1546 C1544 1.384 . S
C1546 C1547 1.372 . S
C1547 C1546 1.372 . S
C1547 C1548 1.400 . S
C1547 C1552 1.490 . S
C1548 H1538 0.930 . S
C1548 C1547 1.400 . S
C1548 C1551 1.386 . S
H1549 C1565 0.930 . S
H1550 C1566 0.931 . S
C1551 H1539 0.929 . S
C1551 C1545 1.390 . S
C1551 C1548 1.386 . S
C1552 C1547 1.490 . S
C1552 C1554 1.395 . S
C1552 C1555 1.403 . S
H1553 C1559 0.930 . S
C1554 H1540 0.930 . S
C1554 C1552 1.395 . S
C1554 C1557 1.403 . S
C1555 C1552 1.403 . S
C1555 C1556 1.524 . S
C1555 C1559 1.400 . S
C1556 H1541 0.960 . S
C1556 H1542 0.960 . S
C1556 H1543 0.960 . S
C1556 C1555 1.524 . S
C1557 C1554 1.403 . S
C1557 C1558 1.392 . S
C1557 C1561 1.495 . S
C1558 C1557 1.392 . S
C1558 C1559 1.385 . S
C1558 C1560 1.478 . S
C1559 H1553 0.930 . S
C1559 C1555 1.400 . S
C1559 C1558 1.385 . S
C1560 C1558 1.478 . S
C1560 C1562 1.381 . S
C1560 C1566 1.383 . S
C1561 C1557 1.495 . S
C1561 H1567 0.959 . S
C1561 H1568 0.961 . S
C1561 H1569 0.960 . S
C1562 C1560 1.381 . S
C1562 C1563 1.394 . S
C1562 H1570 0.930 . S
C1563 C1562 1.394 . S
C1563 C1564 1.383 . S
C1563 H1571 0.929 . S
C1564 C1563 1.383 . S
C1564 C1565 1.377 . S
C1565 H1549 0.930 . S
C1565 C1564 1.377 . S
C1565 C1566 1.379 . S
C1566 H1550 0.931 . S
C1566 C1560 1.383 . S
C1566 C1565 1.379 . S
H1567 C1561 0.959 . S
H1568 C1561 0.961 . S
H1569 C1561 0.960 . S
H1570 C1562 0.930 . S
H1571 C1563 0.929 . S
H1572 C1580 0.929 . S
H1573 C1582 0.930 . S
H1574 C1584 0.911 1_554 S
H1575 C1587 0.929 . S
H1576 C1590 0.920 1_655 S
H1577 C1592 0.960 . S
H1578 C1592 0.960 . S
H1579 C1592 0.960 . S
C1580 H1572 0.929 . S
C1580 C1581 1.377 1_556 S
C1580 C1582 1.384 . S
C1581 C1580 1.377 1_554 S
C1581 C1587 1.390 . S
C1582 H1573 0.930 . S
C1582 C1580 1.384 . S
C1582 C1583 1.372 . S
C1583 C1582 1.372 . S
C1583 C1584 1.446 . S
C1583 C1588 1.490 . S
C1584 H1574 0.911 1_556 S
C1584 C1583 1.446 . S
C1584 C1587 1.359 1_556 S
H1585 C1601 0.930 . S
H1586 C1602 0.931 . S
C1587 H1575 0.929 . S
C1587 C1581 1.390 . S
C1587 C1584 1.359 1_554 S
C1588 C1583 1.490 . S
C1588 C1590 1.395 . S
C1588 C1591 1.403 . S
H1589 C1595 0.930 . S
C1590 H1576 0.920 1_455 S
C1590 C1588 1.395 . S
C1590 C1593 1.403 . S
C1591 C1588 1.403 . S
C1591 C1592 1.524 . S
C1591 C1595 1.400 . S
C1592 H1577 0.960 . S
C1592 H1578 0.960 . S
C1592 H1579 0.960 . S
C1592 C1591 1.524 . S
C1593 C1590 1.403 . S
C1593 C1594 1.392 . S
C1593 C1597 1.495 1_455 S
C1594 C1593 1.392 . S
C1594 C1595 1.385 . S
C1594 C1596 1.478 . S
C1595 H1589 0.930 . S
C1595 C1591 1.400 . S
C1595 C1594 1.385 . S
C1596 C1594 1.478 . S
C1596 C1598 1.381 . S
C1596 C1602 1.383 . S
C1597 C1593 1.495 1_655 S
C1597 H1603 0.959 . S
C1597 H1604 0.961 . S
C1597 H1605 0.960 . S
C1598 C1596 1.381 . S
C1598 C1599 1.394 . S
C1598 H1606 0.930 . S
C1599 C1598 1.394 . S
C1599 C1600 1.383 . S
C1599 H1607 0.929 . S
C1600 C1599 1.383 . S
C1600 C1601 1.377 . S
C1601 H1585 0.930 . S
C1601 C1600 1.377 . S
C1601 C1602 1.379 . S
C1602 H1586 0.931 . S
C1602 C1596 1.383 . S
C1602 C1601 1.379 . S
H1603 C1597 0.959 . S
H1604 C1597 0.961 . S
H1605 C1597 0.960 . S
H1606 C1598 0.930 . S
H1607 C1599 0.929 . S
H1608 C1616 0.929 . S
H1609 C1618 0.930 . S
H1610 C1620 0.930 . S
H1611 C1623 0.929 . S
H1612 C1626 0.930 . S
H1613 C1628 0.960 . S
H1614 C1628 0.960 . S
H1615 C1628 0.960 . S
C1616 H1608 0.929 . S
C1616 C1617 1.377 . S
C1616 C1618 1.384 . S
C1617 C1616 1.377 . S
C1617 C1623 1.390 . S
C1618 H1609 0.930 . S
C1618 C1616 1.384 . S
C1618 C1619 1.372 . S
C1619 C1618 1.372 . S
C1619 C1620 1.400 . S
C1619 C1624 1.490 . S
C1620 H1610 0.930 . S
C1620 C1619 1.400 . S
C1620 C1623 1.386 . S
H1621 C1637 0.930 . S
H1622 C1638 0.931 . S
C1623 H1611 0.929 . S
C1623 C1617 1.390 . S
C1623 C1620 1.386 . S
C1624 C1619 1.490 . S
C1624 C1626 1.395 . S
C1624 C1627 1.403 . S
H1625 C1631 0.930 . S
C1626 H1612 0.930 . S
C1626 C1624 1.395 . S
C1626 C1629 1.403 . S
C1627 C1624 1.403 . S
C1627 C1628 1.524 . S
C1627 C1631 1.400 . S
C1628 H1613 0.960 . S
C1628 H1614 0.960 . S
C1628 H1615 0.960 . S
C1628 C1627 1.524 . S
C1629 C1626 1.403 . S
C1629 C1630 1.392 . S
C1629 C1633 1.495 . S
C1630 C1629 1.392 . S
C1630 C1631 1.385 . S
C1630 C1632 1.478 . S
C1631 H1625 0.930 . S
C1631 C1627 1.400 . S
C1631 C1630 1.385 . S
C1632 C1630 1.478 . S
C1632 C1634 1.381 . S
C1632 C1638 1.383 . S
C1633 C1629 1.495 . S
C1633 H1639 0.959 . S
C1633 H1640 0.961 . S
C1633 H1641 0.960 . S
C1634 C1632 1.381 . S
C1634 C1635 1.394 . S
C1634 H1642 0.930 . S
C1635 C1634 1.394 . S
C1635 C1636 1.383 . S
C1635 H1643 0.929 . S
C1636 C1635 1.383 . S
C1636 C1637 1.377 . S
C1637 H1621 0.930 . S
C1637 C1636 1.377 . S
C1637 C1638 1.379 . S
C1638 H1622 0.931 . S
C1638 C1632 1.383 . S
C1638 C1637 1.379 . S
H1639 C1633 0.959 . S
H1640 C1633 0.961 . S
H1641 C1633 0.960 . S
H1642 C1634 0.930 . S
H1643 C1635 0.929 . S
H1644 C1652 0.929 . S
H1645 C1654 0.930 . S
H1646 C1656 0.930 . S
H1647 C1659 0.929 . S
H1648 C1662 0.930 . S
H1649 C1664 0.960 . S
H1650 C1664 0.960 . S
H1651 C1664 0.960 . S
C1652 H1644 0.929 . S
C1652 C1653 1.377 1_554 S
C1652 C1654 1.384 . S
C1653 C1652 1.377 1_556 S
C1653 C1659 1.390 . S
C1654 H1645 0.930 . S
C1654 C1652 1.384 . S
C1654 C1655 1.372 . S
C1655 C1654 1.372 . S
C1655 C1656 1.400 1_554 S
C1655 C1660 1.490 . S
C1656 H1646 0.930 . S
C1656 C1655 1.400 1_556 S
C1656 C1659 1.386 . S
H1657 C1673 0.930 . S
H1658 C1674 0.931 . S
C1659 H1647 0.929 . S
C1659 C1653 1.390 . S
C1659 C1656 1.386 . S
C1660 C1655 1.490 . S
C1660 C1662 1.395 . S
C1660 C1663 1.403 . S
H1661 C1667 0.930 . S
C1662 H1648 0.930 . S
C1662 C1660 1.395 . S
C1662 C1665 1.403 . S
C1663 C1660 1.403 . S
C1663 C1664 1.524 1_554 S
C1663 C1667 1.400 . S
C1664 H1649 0.960 . S
C1664 H1650 0.960 . S
C1664 H1651 0.960 . S
C1664 C1663 1.524 1_556 S
C1665 C1662 1.403 . S
C1665 C1666 1.392 . S
C1665 C1669 1.495 . S
C1666 C1665 1.392 . S
C1666 C1667 1.385 . S
C1666 C1668 1.478 . S
C1667 H1661 0.930 . S
C1667 C1663 1.400 . S
C1667 C1666 1.385 . S
C1668 C1666 1.478 . S
C1668 C1670 1.381 . S
C1668 C1674 1.383 . S
C1669 C1665 1.495 . S
C1669 H1675 0.959 . S
C1669 H1676 0.961 . S
C1669 H1677 0.960 . S
C1670 C1668 1.381 . S
C1670 C1671 1.394 . S
C1670 H1678 0.930 . S
C1671 C1670 1.394 . S
C1671 C1672 1.383 . S
C1671 H1679 0.929 . S
C1672 C1671 1.383 . S
C1672 C1673 1.377 . S
C1673 H1657 0.930 . S
C1673 C1672 1.377 . S
C1673 C1674 1.379 . S
C1674 H1658 0.931 . S
C1674 C1668 1.383 . S
C1674 C1673 1.379 . S
H1675 C1669 0.959 . S
H1676 C1669 0.961 . S
H1677 C1669 0.960 . S
H1678 C1670 0.930 . S
H1679 C1671 0.929 . S
H1680 C1688 0.929 . S
H1681 C1690 0.930 . S
H1682 C1692 0.930 . S
H1683 C1695 0.929 . S
H1684 C1698 0.930 . S
H1685 C1700 0.960 . S
H1686 C1700 0.960 . S
H1687 C1700 0.960 . S
C1688 H1680 0.929 . S
C1688 C1689 1.377 . S
C1688 C1690 1.384 . S
C1689 C1688 1.377 . S
C1689 C1695 1.390 . S
C1690 H1681 0.930 . S
C1690 C1688 1.384 . S
C1690 C1691 1.372 . S
C1691 C1690 1.372 . S
C1691 C1692 1.400 . S
C1691 C1696 1.490 . S
C1692 H1682 0.930 . S
C1692 C1691 1.400 . S
C1692 C1695 1.386 . S
H1693 C1709 0.930 . S
H1694 C1710 0.931 . S
C1695 H1683 0.929 . S
C1695 C1689 1.390 . S
C1695 C1692 1.386 . S
C1696 C1691 1.490 . S
C1696 C1698 1.395 . S
C1696 C1699 1.403 . S
H1697 C1703 0.930 . S
C1698 H1684 0.930 . S
C1698 C1696 1.395 . S
C1698 C1701 1.403 . S
C1699 C1696 1.403 . S
C1699 C1700 1.524 . S
C1699 C1703 1.400 . S
C1700 H1685 0.960 . S
C1700 H1686 0.960 . S
C1700 H1687 0.960 . S
C1700 C1699 1.524 . S
C1701 C1698 1.403 . S
C1701 C1702 1.392 . S
C1701 C1705 1.495 . S
C1702 C1701 1.392 . S
C1702 C1703 1.385 . S
C1702 C1704 1.478 . S
C1703 H1697 0.930 . S
C1703 C1699 1.400 . S
C1703 C1702 1.385 . S
C1704 C1702 1.478 . S
C1704 C1706 1.381 . S
C1704 C1710 1.383 . S
C1705 C1701 1.495 . S
C1705 H1711 0.959 . S
C1705 H1712 0.961 . S
C1705 H1713 0.960 . S
C1706 C1704 1.381 . S
C1706 C1707 1.394 . S
C1706 H1714 0.930 . S
C1707 C1706 1.394 . S
C1707 C1708 1.383 . S
C1707 H1715 0.929 . S
C1708 C1707 1.383 . S
C1708 C1709 1.377 . S
C1709 H1693 0.930 . S
C1709 C1708 1.377 . S
C1709 C1710 1.379 . S
C1710 H1694 0.931 . S
C1710 C1704 1.383 . S
C1710 C1709 1.379 . S
H1711 C1705 0.959 . S
H1712 C1705 0.961 . S
H1713 C1705 0.960 . S
H1714 C1706 0.930 . S
H1715 C1707 0.929 . S
H1716 C1724 0.929 . S
H1717 C1726 0.947 . S
H1718 C1728 0.930 . S
H1719 C1731 0.929 . S
H1720 C1734 0.930 . S
H1721 C1736 0.960 . S
H1722 C1736 0.960 . S
H1723 C1736 0.960 . S
C1724 H1716 0.929 . S
C1724 C1725 1.377 . S
C1724 C1726 1.410 . S
C1725 C1724 1.377 . S
C1725 C1731 1.390 1_556 S
C1726 H1717 0.947 . S
C1726 C1724 1.410 . S
C1726 C1727 1.331 1_556 S
C1727 C1726 1.331 1_554 S
C1727 C1728 1.400 . S
C1727 C1732 1.490 . S
C1728 H1718 0.930 . S
C1728 C1727 1.400 . S
C1728 C1731 1.386 . S
H1729 C1745 0.930 . S
H1730 C1746 0.931 . S
C1731 H1719 0.929 . S
C1731 C1725 1.390 1_554 S
C1731 C1728 1.386 . S
C1732 C1727 1.490 . S
C1732 C1734 1.395 . S
C1732 C1735 1.403 . S
H1733 C1739 0.930 . S
C1734 H1720 0.930 . S
C1734 C1732 1.395 . S
C1734 C1737 1.403 . S
C1735 C1732 1.403 . S
C1735 C1736 1.524 . S
C1735 C1739 1.400 . S
C1736 H1721 0.960 . S
C1736 H1722 0.960 . S
C1736 H1723 0.960 . S
C1736 C1735 1.524 . S
C1737 C1734 1.403 . S
C1737 C1738 1.392 . S
C1737 C1741 1.495 . S
C1738 C1737 1.392 . S
C1738 C1739 1.385 . S
C1738 C1740 1.478 . S
C1739 H1733 0.930 . S
C1739 C1735 1.400 . S
C1739 C1738 1.385 . S
C1740 C1738 1.478 . S
C1740 C1742 1.381 . S
C1740 C1746 1.383 . S
C1741 C1737 1.495 . S
C1741 H1747 0.959 . S
C1741 H1748 0.961 . S
C1741 H1749 0.960 . S
C1742 C1740 1.381 . S
C1742 C1743 1.394 . S
C1742 H1750 0.930 . S
C1743 C1742 1.394 . S
C1743 C1744 1.383 . S
C1743 H1751 0.929 . S
C1744 C1743 1.383 . S
C1744 C1745 1.377 . S
C1745 H1729 0.930 . S
C1745 C1744 1.377 . S
C1745 C1746 1.379 . S
C1746 H1730 0.931 . S
C1746 C1740 1.383 . S
C1746 C1745 1.379 . S
H1747 C1741 0.959 . S
H1748 C1741 0.961 . S
H1749 C1741 0.960 . S
H1750 C1742 0.930 . S
H1751 C1743 0.929 . S
H1752 C1760 0.929 . S
H1753 C1762 0.930 . S
H1754 C1764 0.930 . S
H1755 C1767 0.929 . S
H1756 C1770 0.930 . S
H1757 C1772 0.960 . S
H1758 C1772 0.960 . S
H1759 C1772 0.960 . S
C1760 H1752 0.929 . S
C1760 C1761 1.377 . S
C1760 C1762 1.384 . S
C1761 C1760 1.377 . S
C1761 C1767 1.390 . S
C1762 H1753 0.930 . S
C1762 C1760 1.384 . S
C1762 C1763 1.372 . S
C1763 C1762 1.372 . S
C1763 C1764 1.400 . S
C1763 C1768 1.490 . S
C1764 H1754 0.930 . S
C1764 C1763 1.400 . S
C1764 C1767 1.386 . S
H1765 C1781 0.930 . S
H1766 C1782 0.931 . S
C1767 H1755 0.929 . S
C1767 C1761 1.390 . S
C1767 C1764 1.386 . S
C1768 C1763 1.490 . S
C1768 C1770 1.395 . S
C1768 C1771 1.403 . S
H1769 C1775 0.930 . S
C1770 H1756 0.930 . S
C1770 C1768 1.395 . S
C1770 C1773 1.403 . S
C1771 C1768 1.403 . S
C1771 C1772 1.524 . S
C1771 C1775 1.400 . S
C1772 H1757 0.960 . S
C1772 H1758 0.960 . S
C1772 H1759 0.960 . S
C1772 C1771 1.524 . S
C1773 C1770 1.403 . S
C1773 C1774 1.392 . S
C1773 C1777 1.495 . S
C1774 C1773 1.392 . S
C1774 C1775 1.385 . S
C1774 C1776 1.478 . S
C1775 H1769 0.930 . S
C1775 C1771 1.400 . S
C1775 C1774 1.385 . S
C1776 C1774 1.478 . S
C1776 C1778 1.381 . S
C1776 C1782 1.383 . S
C1777 C1773 1.495 . S
C1777 H1783 0.959 . S
C1777 H1784 0.961 . S
C1777 H1785 0.960 . S
C1778 C1776 1.381 . S
C1778 C1779 1.394 . S
C1778 H1786 0.930 . S
C1779 C1778 1.394 . S
C1779 C1780 1.383 . S
C1779 H1787 0.929 . S
C1780 C1779 1.383 . S
C1780 C1781 1.377 . S
C1781 H1765 0.930 . S
C1781 C1780 1.377 . S
C1781 C1782 1.379 . S
C1782 H1766 0.931 . S
C1782 C1776 1.383 . S
C1782 C1781 1.379 . S
H1783 C1777 0.959 . S
H1784 C1777 0.961 . S
H1785 C1777 0.960 . S
H1786 C1778 0.930 . S
H1787 C1779 0.929 . S
H1788 C1796 0.929 . S
H1789 C1798 0.930 . S
H1790 C1800 0.930 . S
H1791 C1803 0.929 . S
H1792 C1806 0.930 . S
H1793 C1808 0.960 . S
H1794 C1808 0.960 . S
H1795 C1808 0.960 . S
C1796 H1788 0.929 . S
C1796 C1797 1.377 . S
C1796 C1798 1.384 . S
C1797 C1796 1.377 . S
C1797 C1803 1.390 . S
C1798 H1789 0.930 . S
C1798 C1796 1.384 . S
C1798 C1799 1.372 . S
C1799 C1798 1.372 . S
C1799 C1800 1.400 . S
C1799 C1804 1.490 . S
C1800 H1790 0.930 . S
C1800 C1799 1.400 . S
C1800 C1803 1.386 . S
H1801 C1817 0.930 . S
H1802 C1818 0.931 . S
C1803 H1791 0.929 . S
C1803 C1797 1.390 . S
C1803 C1800 1.386 . S
C1804 C1799 1.490 . S
C1804 C1806 1.395 . S
C1804 C1807 1.403 . S
H1805 C1811 0.930 . S
C1806 H1792 0.930 . S
C1806 C1804 1.395 . S
C1806 C1809 1.403 . S
C1807 C1804 1.403 . S
C1807 C1808 1.524 . S
C1807 C1811 1.400 . S
C1808 H1793 0.960 . S
C1808 H1794 0.960 . S
C1808 H1795 0.960 . S
C1808 C1807 1.524 . S
C1809 C1806 1.403 . S
C1809 C1810 1.392 . S
C1809 C1813 1.495 . S
C1810 C1809 1.392 . S
C1810 C1811 1.385 . S
C1810 C1812 1.478 . S
C1811 H1805 0.930 . S
C1811 C1807 1.400 . S
C1811 C1810 1.385 . S
C1812 C1810 1.478 . S
C1812 C1814 1.381 . S
C1812 C1818 1.383 . S
C1813 C1809 1.495 . S
C1813 H1819 0.959 . S
C1813 H1820 0.961 . S
C1813 H1821 0.960 . S
C1814 C1812 1.381 . S
C1814 C1815 1.394 . S
C1814 H1822 0.930 . S
C1815 C1814 1.394 . S
C1815 C1816 1.383 . S
C1815 H1823 0.929 . S
C1816 C1815 1.383 . S
C1816 C1817 1.377 . S
C1817 H1801 0.930 . S
C1817 C1816 1.377 . S
C1817 C1818 1.379 . S
C1818 H1802 0.931 . S
C1818 C1812 1.383 . S
C1818 C1817 1.379 . S
H1819 C1813 0.959 . S
H1820 C1813 0.961 . S
H1821 C1813 0.960 . S
H1822 C1814 0.930 . S
H1823 C1815 0.929 . S
H1824 C1832 0.929 . S
H1825 C1834 0.930 . S
H1826 C1836 0.930 . S
H1827 C1839 0.929 . S
H1828 C1842 0.930 . S
H1829 C1844 0.960 . S
H1830 C1844 0.960 . S
H1831 C1844 0.960 . S
C1832 H1824 0.929 . S
C1832 C1833 1.377 . S
C1832 C1834 1.384 . S
C1833 C1832 1.377 . S
C1833 C1839 1.390 . S
C1834 H1825 0.930 . S
C1834 C1832 1.384 . S
C1834 C1835 1.372 . S
C1835 C1834 1.372 . S
C1835 C1836 1.400 . S
C1835 C1840 1.490 . S
C1836 H1826 0.930 . S
C1836 C1835 1.400 . S
C1836 C1839 1.386 . S
H1837 C1853 0.930 . S
H1838 C1854 0.931 . S
C1839 H1827 0.929 . S
C1839 C1833 1.390 . S
C1839 C1836 1.386 . S
C1840 C1835 1.490 . S
C1840 C1842 1.395 . S
C1840 C1843 1.403 . S
H1841 C1847 0.930 . S
C1842 H1828 0.930 . S
C1842 C1840 1.395 . S
C1842 C1845 1.403 . S
C1843 C1840 1.403 . S
C1843 C1844 1.524 . S
C1843 C1847 1.400 . S
C1844 H1829 0.960 . S
C1844 H1830 0.960 . S
C1844 H1831 0.960 . S
C1844 C1843 1.524 . S
C1845 C1842 1.403 . S
C1845 C1846 1.392 . S
C1845 C1849 1.495 . S
C1846 C1845 1.392 . S
C1846 C1847 1.385 . S
C1846 C1848 1.478 . S
C1847 H1841 0.930 . S
C1847 C1843 1.400 . S
C1847 C1846 1.385 . S
C1848 C1846 1.478 . S
C1848 C1850 1.381 . S
C1848 C1854 1.383 . S
C1849 C1845 1.495 . S
C1849 H1855 0.959 . S
C1849 H1856 0.961 . S
C1849 H1857 0.960 . S
C1850 C1848 1.381 . S
C1850 C1851 1.394 . S
C1850 H1858 0.930 . S
C1851 C1850 1.394 . S
C1851 C1852 1.383 . S
C1851 H1859 0.929 . S
C1852 C1851 1.383 . S
C1852 C1853 1.377 . S
C1853 H1837 0.930 . S
C1853 C1852 1.377 . S
C1853 C1854 1.379 . S
C1854 H1838 0.931 . S
C1854 C1848 1.383 . S
C1854 C1853 1.379 . S
H1855 C1849 0.959 . S
H1856 C1849 0.961 . S
H1857 C1849 0.960 . S
H1858 C1850 0.930 . S
H1859 C1851 0.929 . S
H1860 C1868 0.929 . S
H1861 C1870 0.930 . S
H1862 C1872 0.930 . S
H1863 C1875 0.929 . S
H1864 C1878 0.930 . S
H1865 C1880 0.960 . S
H1866 C1880 0.960 . S
H1867 C1880 0.960 . S
C1868 H1860 0.929 . S
C1868 C1869 1.377 . S
C1868 C1870 1.384 . S
C1869 C1868 1.377 . S
C1869 C1875 1.390 . S
C1870 H1861 0.930 . S
C1870 C1868 1.384 . S
C1870 C1871 1.372 . S
C1871 C1870 1.372 . S
C1871 C1872 1.400 . S
C1871 C1876 1.490 . S
C1872 H1862 0.930 . S
C1872 C1871 1.400 . S
C1872 C1875 1.386 . S
H1873 C1889 0.930 . S
H1874 C1890 0.931 . S
C1875 H1863 0.929 . S
C1875 C1869 1.390 . S
C1875 C1872 1.386 . S
C1876 C1871 1.490 . S
C1876 C1878 1.395 . S
C1876 C1879 1.403 . S
H1877 C1883 0.930 . S
C1878 H1864 0.930 . S
C1878 C1876 1.395 . S
C1878 C1881 1.403 . S
C1879 C1876 1.403 . S
C1879 C1880 1.524 . S
C1879 C1883 1.400 . S
C1880 H1865 0.960 . S
C1880 H1866 0.960 . S
C1880 H1867 0.960 . S
C1880 C1879 1.524 . S
C1881 C1878 1.403 . S
C1881 C1882 1.392 . S
C1881 C1885 1.495 . S
C1882 C1881 1.392 . S
C1882 C1883 1.385 . S
C1882 C1884 1.478 . S
C1883 H1877 0.930 . S
C1883 C1879 1.400 . S
C1883 C1882 1.385 . S
C1884 C1882 1.478 . S
C1884 C1886 1.381 . S
C1884 C1890 1.383 . S
C1885 C1881 1.495 . S
C1885 H1891 0.959 . S
C1885 H1892 0.961 . S
C1885 H1893 0.960 . S
C1886 C1884 1.381 . S
C1886 C1887 1.394 . S
C1886 H1894 0.930 . S
C1887 C1886 1.394 . S
C1887 C1888 1.383 . S
C1887 H1895 0.929 . S
C1888 C1887 1.383 . S
C1888 C1889 1.377 . S
C1889 H1873 0.930 . S
C1889 C1888 1.377 . S
C1889 C1890 1.379 . S
C1890 H1874 0.931 . S
C1890 C1884 1.383 . S
C1890 C1889 1.379 . S
H1891 C1885 0.959 . S
H1892 C1885 0.961 . S
H1893 C1885 0.960 . S
H1894 C1886 0.930 . S
H1895 C1887 0.929 . S
H1896 C1904 0.929 . S
H1897 C1906 0.930 . S
H1898 C1908 0.930 1_554 S
H1899 C1911 0.929 1_554 S
H1900 C1914 0.930 . S
H1901 C1916 0.960 . S
H1902 C1916 0.960 . S
H1903 C1916 0.960 1_554 S
C1904 H1896 0.929 . S
C1904 C1905 1.377 . S
C1904 C1906 1.384 . S
C1905 C1904 1.377 . S
C1905 C1911 1.390 . S
C1906 H1897 0.930 . S
C1906 C1904 1.384 . S
C1906 C1907 1.372 . S
C1907 C1906 1.372 . S
C1907 C1908 1.400 . S
C1907 C1912 1.490 . S
C1908 H1898 0.930 1_556 S
C1908 C1907 1.400 . S
C1908 C1911 1.386 . S
H1909 C1925 0.930 . S
H1910 C1926 0.931 . S
C1911 H1899 0.929 1_556 S
C1911 C1905 1.390 . S
C1911 C1908 1.386 . S
C1912 C1907 1.490 . S
C1912 C1914 1.395 . S
C1912 C1915 1.403 . S
H1913 C1919 0.930 . S
C1914 H1900 0.930 . S
C1914 C1912 1.395 . S
C1914 C1917 1.403 . S
C1915 C1912 1.403 . S
C1915 C1916 1.524 . S
C1915 C1919 1.400 . S
C1916 H1901 0.960 . S
C1916 H1902 0.960 . S
C1916 H1903 0.960 1_556 S
C1916 C1915 1.524 . S
C1917 C1914 1.403 . S
C1917 C1918 1.392 . S
C1917 C1921 1.495 . S
C1918 C1917 1.392 . S
C1918 C1919 1.385 . S
C1918 C1920 1.478 . S
C1919 H1913 0.930 . S
C1919 C1915 1.400 . S
C1919 C1918 1.385 . S
C1920 C1918 1.478 . S
C1920 C1922 1.381 . S
C1920 C1926 1.383 1_556 S
C1921 C1917 1.495 . S
C1921 H1927 0.959 . S
C1921 H1928 0.961 . S
C1921 H1929 0.960 . S
C1922 C1920 1.381 . S
C1922 C1923 1.394 . S
C1922 H1930 0.930 . S
C1923 C1922 1.394 . S
C1923 C1924 1.427 . S
C1923 H1931 0.929 . S
C1924 C1923 1.427 . S
C1924 C1925 1.341 1_556 S
C1925 H1909 0.930 . S
C1925 C1924 1.341 1_554 S
C1925 C1926 1.379 . S
C1926 H1910 0.931 . S
C1926 C1920 1.383 1_554 S
C1926 C1925 1.379 . S
H1927 C1921 0.959 . S
H1928 C1921 0.961 . S
H1929 C1921 0.960 . S
H1930 C1922 0.930 . S
H1931 C1923 0.929 . S
H1932 C1940 0.929 . S
H1933 C1942 0.930 . S
H1934 C1944 0.930 . S
H1935 C1947 0.929 . S
H1936 C1950 0.930 . S
H1937 C1952 0.960 . S
H1938 C1952 0.960 . S
H1939 C1952 0.960 . S
C1940 H1932 0.929 . S
C1940 C1941 1.377 . S
C1940 C1942 1.384 . S
C1941 C1940 1.377 . S
C1941 C1947 1.390 . S
C1942 H1933 0.930 . S
C1942 C1940 1.384 . S
C1942 C1943 1.372 . S
C1943 C1942 1.372 . S
C1943 C1944 1.400 . S
C1943 C1948 1.490 . S
C1944 H1934 0.930 . S
C1944 C1943 1.400 . S
C1944 C1947 1.386 . S
H1945 C1961 0.930 . S
H1946 C1962 0.931 . S
C1947 H1935 0.929 . S
C1947 C1941 1.390 . S
C1947 C1944 1.386 . S
C1948 C1943 1.490 . S
C1948 C1950 1.395 . S
C1948 C1951 1.403 . S
H1949 C1955 0.930 . S
C1950 H1936 0.930 . S
C1950 C1948 1.395 . S
C1950 C1953 1.403 . S
C1951 C1948 1.403 . S
C1951 C1952 1.524 . S
C1951 C1955 1.400 . S
C1952 H1937 0.960 . S
C1952 H1938 0.960 . S
C1952 H1939 0.960 . S
C1952 C1951 1.524 . S
C1953 C1950 1.403 . S
C1953 C1954 1.392 . S
C1953 C1957 1.495 . S
C1954 C1953 1.392 . S
C1954 C1955 1.385 . S
C1954 C1956 1.478 . S
C1955 H1949 0.930 . S
C1955 C1951 1.400 . S
C1955 C1954 1.385 . S
C1956 C1954 1.478 . S
C1956 C1958 1.381 . S
C1956 C1962 1.383 . S
C1957 C1953 1.495 . S
C1957 H1963 0.959 . S
C1957 H1964 0.961 . S
C1957 H1965 0.960 . S
C1958 C1956 1.381 . S
C1958 C1959 1.394 . S
C1958 H1966 0.930 . S
C1959 C1958 1.394 . S
C1959 C1960 1.383 . S
C1959 H1967 0.929 . S
C1960 C1959 1.383 . S
C1960 C1961 1.377 . S
C1961 H1945 0.930 . S
C1961 C1960 1.377 . S
C1961 C1962 1.379 . S
C1962 H1946 0.931 . S
C1962 C1956 1.383 . S
C1962 C1961 1.379 . S
H1963 C1957 0.959 . S
H1964 C1957 0.961 . S
H1965 C1957 0.960 . S
H1966 C1958 0.930 . S
H1967 C1959 0.929 . S
H1968 C1976 0.929 . S
H1969 C1978 0.930 . S
H1970 C1980 0.930 . S
H1971 C1983 0.929 . S
H1972 C1986 0.930 . S
H1973 C1988 0.960 . S
H1974 C1988 0.960 . S
H1975 C1988 0.960 . S
C1976 H1968 0.929 . S
C1976 C1977 1.377 . S
C1976 C1978 1.384 . S
C1977 C1976 1.377 . S
C1977 C1983 1.390 . S
C1978 H1969 0.930 . S
C1978 C1976 1.384 . S
C1978 C1979 1.372 . S
C1979 C1978 1.372 . S
C1979 C1980 1.400 . S
C1979 C1984 1.490 . S
C1980 H1970 0.930 . S
C1980 C1979 1.400 . S
C1980 C1983 1.386 . S
H1981 C1997 0.930 . S
H1982 C1998 0.931 . S
C1983 H1971 0.929 . S
C1983 C1977 1.390 . S
C1983 C1980 1.386 . S
C1984 C1979 1.490 . S
C1984 C1986 1.395 . S
C1984 C1987 1.403 . S
H1985 C1991 0.930 . S
C1986 H1972 0.930 . S
C1986 C1984 1.395 . S
C1986 C1989 1.403 . S
C1987 C1984 1.403 . S
C1987 C1988 1.524 . S
C1987 C1991 1.400 . S
C1988 H1973 0.960 . S
C1988 H1974 0.960 . S
C1988 H1975 0.960 . S
C1988 C1987 1.524 . S
C1989 C1986 1.403 . S
C1989 C1990 1.392 . S
C1989 C1993 1.495 . S
C1990 C1989 1.392 . S
C1990 C1991 1.385 . S
C1990 C1992 1.478 . S
C1991 H1985 0.930 . S
C1991 C1987 1.400 . S
C1991 C1990 1.385 . S
C1992 C1990 1.478 . S
C1992 C1994 1.381 . S
C1992 C1998 1.383 . S
C1993 C1989 1.495 . S
C1993 H1999 0.959 . S
C1993 H2000 0.961 . S
C1993 H2001 0.960 . S
C1994 C1992 1.381 . S
C1994 C1995 1.394 . S
C1994 H2002 0.946 . S
C1995 C1994 1.394 . S
C1995 C1996 1.383 . S
C1995 H2003 0.929 1_554 S
C1996 C1995 1.383 . S
C1996 C1997 1.377 . S
C1997 H1981 0.930 . S
C1997 C1996 1.377 . S
C1997 C1998 1.379 . S
C1998 H1982 0.931 . S
C1998 C1992 1.383 . S
C1998 C1997 1.379 . S
H1999 C1993 0.959 . S
H2000 C1993 0.961 . S
H2001 C1993 0.960 . S
H2002 C1994 0.946 . S
H2003 C1995 0.929 1_556 S
H2004 C2012 0.929 . S
H2005 C2014 0.930 . S
H2006 C2016 0.930 . S
H2007 C2019 0.929 . S
H2008 C2022 0.930 1_556 S
H2009 C2024 0.960 . S
H2010 C2024 0.960 . S
H2011 C2024 0.960 1_545 S
C2012 H2004 0.929 . S
C2012 C2013 1.377 1_565 S
C2012 C2014 1.384 . S
C2013 C2012 1.377 1_545 S
C2013 C2019 1.390 . S
C2014 H2005 0.930 . S
C2014 C2012 1.384 . S
C2014 C2015 1.372 . S
C2015 C2014 1.372 . S
C2015 C2016 1.400 1_565 S
C2015 C2020 1.490 . S
C2016 H2006 0.930 . S
C2016 C2015 1.400 1_545 S
C2016 C2019 1.386 . S
H2017 C2033 0.930 1_556 S
H2018 C2034 0.919 1_556 S
C2019 H2007 0.929 . S
C2019 C2013 1.390 . S
C2019 C2016 1.386 . S
C2020 C2015 1.490 . S
C2020 C2022 1.395 . S
C2020 C2023 1.403 . S
H2021 C2027 0.930 . S
C2022 H2008 0.930 1_554 S
C2022 C2020 1.395 . S
C2022 C2025 1.398 1_554 S
C2023 C2020 1.403 . S
C2023 C2024 1.524 . S
C2023 C2027 1.400 . S
C2024 H2009 0.960 . S
C2024 H2010 0.960 . S
C2024 H2011 0.960 1_565 S
C2024 C2023 1.524 . S
C2025 C2022 1.398 1_556 S
C2025 C2026 1.377 1_556 S
C2025 C2029 1.516 . S
C2026 C2025 1.377 1_554 S
C2026 C2027 1.385 . S
C2026 C2028 1.478 . S
C2027 H2021 0.930 . S
C2027 C2023 1.400 . S
C2027 C2026 1.385 . S
C2028 C2026 1.478 . S
C2028 C2030 1.381 . S
C2028 C2034 1.383 . S
C2029 C2025 1.516 . S
C2029 H2035 0.959 . S
C2029 H2036 0.961 . S
C2029 H2037 0.960 . S
C2030 C2028 1.381 . S
C2030 C2031 1.394 . S
C2030 H2038 0.930 . S
C2031 C2030 1.394 . S
C2031 C2032 1.383 . S
C2031 H2039 0.929 . S
C2032 C2031 1.383 . S
C2032 C2033 1.377 . S
C2033 H2017 0.930 1_554 S
C2033 C2032 1.377 . S
C2033 C2034 1.379 . S
C2034 H2018 0.919 1_554 S
C2034 C2028 1.383 . S
C2034 C2033 1.379 . S
H2035 C2029 0.959 . S
H2036 C2029 0.961 . S
H2037 C2029 0.960 . S
H2038 C2030 0.930 . S
H2039 C2031 0.929 . S
C340 C155 1.440 . S
C321 C50 1.470 . S
C376 C163 1.227 . S
C357 C61 1.526 . S
C393 C67 1.438 . S
C412 C183 1.407 . S
C448 C197 1.482 . S
C429 C41 1.519 . S
C484 C212 1.520 . S
C465 C95 1.525 . S
C520 C226 1.506 . S
C501 C113 1.508 . S
C537 C106 1.554 . S
C556 C240 1.552 . S
C592 C246 1.428 . S
C573 C86 1.489 . S
C609 C104 1.515 . S
C628 C260 1.467 . S
C664 C281 1.545 . S
C645 C88 1.560 . S
C681 C94 1.480 . S
C700 C261 1.184 . S
C736 C282 1.514 . S
C717 C112 1.517 . S
C753 C70 1.467 . S
C772 C289 1.280 . S
C789 C40 1.514 . S
C808 C295 1.474 . S
C825 C49 1.511 . S
C844 C288 1.484 . S
C861 C59 1.480 . S
C880 C296 1.477 . S
C897 C34 1.490 . S
C916 C190 1.465 . S
C933 C133 1.489 . S
C952 C191 1.213 . S
C988 C148 1.528 . S
C969 C139 1.560 . S
C1024 C169 1.435 . S
C1005 C77 1.463 . S
C1041 C43 1.479 . S
C1060 C204 1.458 . S
C1096 C254 1.528 . S
C1077 C103 1.531 . S
C1132 C205 1.278 . S
C1113 C85 1.466 . S
C1168 C233 1.217 . S
C1149 C115 1.525 . S
C1204 C239 1.443 . S
C1185 C131 1.470 . S
C1221 C142 1.526 . S
C1240 C247 1.222 . S
C1257 C76 1.439 . S
C1276 C211 1.428 . S
C1312 C225 1.505 . S
C1293 C122 1.518 . S
C1329 C32 1.525 . S
C1348 C184 1.524 . S
C1384 C198 1.507 . S
C1365 C5 1.507 . S
C1420 C156 1.550 . S
C1401 C16 1.554 . S
C1456 C162 1.422 . S
C1437 C23 1.489 1_455 S
C1473 C14 1.515 . S
C1492 C274 1.495 . S
C1509 C25 1.560 . S
C1528 C267 1.541 . S
C1545 C31 1.479 . S
C1564 C275 1.236 . S
C1581 C4 1.517 . S
C1600 C268 1.518 . S
C1636 C303 1.254 . S
C1617 C79 1.466 . S
C1672 C309 1.502 . S
C1653 C121 1.514 . S
C1708 C302 1.451 . S
C1689 C130 1.511 . S
C1725 C140 1.480 . S
C1744 C310 1.476 . S
C1761 C97 1.490 . S
C1780 C218 1.460 . S
C1816 C219 1.232 . S
C1797 C52 1.488 . S
C1852 C232 1.537 . S
C1833 C58 1.561 . S
C1888 C253 1.449 . S
C1869 C68 1.464 . S
C1905 C124 1.478 . S
C1924 C176 1.411 1_556 S
C1960 C170 1.527 . S
C1941 C13 1.531 . S
C1977 C22 1.466 . S
C1996 C177 1.277 . S
C2032 C149 1.240 . S
C2013 C7 1.526 . S
