# Generated by pormake.
# Topology anh, (6,3)-cn, num edge types: 1
# Building blocks:
#     Node 0, Type 0, BuildingBlock: CUWYAW_clean_sbu_0, # of connection points: 6
#     Node 1, Type 0, BuildingBlock: CUWYAW_clean_sbu_0, # of connection points: 6
#     Node 2, Type 0, BuildingBlock: CUWYAW_clean_sbu_0, # of connection points: 6
#     Node 3, Type 1, BuildingBlock: KAKCAD_clean_linker_0, # of connection points: 3
#     Node 4, Type 1, BuildingBlock: KAKCAD_clean_linker_0, # of connection points: 3
#     Node 5, Type 1, BuildingBlock: KAKCAD_clean_linker_0, # of connection points: 3
#     Node 6, Type 1, BuildingBlock: KAKCAD_clean_linker_0, # of connection points: 3
#     Node 7, Type 1, BuildingBlock: KAKCAD_clean_linker_0, # of connection points: 3
#     Node 8, Type 1, BuildingBlock: KAKCAD_clean_linker_0, # of connection points: 3
#     Edge 9, Type (0, 1), BuildingBlock: CIFDUS_clean_linker_0, # of connection points: 2
#     Edge 10, Type (0, 1), BuildingBlock: CIFDUS_clean_linker_0, # of connection points: 2
#     Edge 11, Type (0, 1), BuildingBlock: CIFDUS_clean_linker_0, # of connection points: 2
#     Edge 12, Type (0, 1), BuildingBlock: CIFDUS_clean_linker_0, # of connection points: 2
#     Edge 13, Type (0, 1), BuildingBlock: CIFDUS_clean_linker_0, # of connection points: 2
#     Edge 14, Type (0, 1), BuildingBlock: CIFDUS_clean_linker_0, # of connection points: 2
#     Edge 15, Type (0, 1), BuildingBlock: CIFDUS_clean_linker_0, # of connection points: 2
#     Edge 16, Type (0, 1), BuildingBlock: CIFDUS_clean_linker_0, # of connection points: 2
#     Edge 17, Type (0, 1), BuildingBlock: CIFDUS_clean_linker_0, # of connection points: 2
#     Edge 18, Type (0, 1), BuildingBlock: CIFDUS_clean_linker_0, # of connection points: 2
#     Edge 19, Type (0, 1), BuildingBlock: CIFDUS_clean_linker_0, # of connection points: 2
#     Edge 20, Type (0, 1), BuildingBlock: CIFDUS_clean_linker_0, # of connection points: 2
#     Edge 21, Type (0, 1), BuildingBlock: CIFDUS_clean_linker_0, # of connection points: 2
#     Edge 22, Type (0, 1), BuildingBlock: CIFDUS_clean_linker_0, # of connection points: 2
#     Edge 23, Type (0, 1), BuildingBlock: CIFDUS_clean_linker_0, # of connection points: 2
#     Edge 24, Type (0, 1), BuildingBlock: CIFDUS_clean_linker_0, # of connection points: 2
#     Edge 25, Type (0, 1), BuildingBlock: CIFDUS_clean_linker_0, # of connection points: 2
#     Edge 26, Type (0, 1), BuildingBlock: CIFDUS_clean_linker_0, # of connection points: 2
# Relax obj value: 0.266
# Max RMSD: 0.188
# Mean RMSD: 0.159
data_MOF--net-anh--node1-CUWYAW_clean_sbu_0--node2-KAKCAD_clean_linker_0--edge1-CIFDUS_clean_linker_0
_symmetry_space_group_name_H-M    P1
_symmetry_Int_Tables_number       1
_symmetry_cell_setting            triclinic
loop_
_symmetry_equiv_pos_as_xyz
'x, y, z'
_cell_length_a     33.676375
_cell_length_b     33.675769
_cell_length_c     61.090924
_cell_angle_alpha  89.807545
_cell_angle_beta   90.304092
_cell_angle_gamma 119.99098
loop_
_atom_site_label
_atom_site_type_symbol
_atom_site_fract_x
_atom_site_fract_y
_atom_site_fract_z
_atom_type_partial_charge
C0 C 1.04025 0.46151 0.16307 0.0
Eu1 Eu 1.08302 0.54698 0.17217 0.0
C2 C 1.00032 0.44023 0.14853 0.0
C3 C 0.96208 0.44488 0.15299 0.0
C4 C 0.9241 0.4248 0.13936 0.0
C5 C 0.92301 0.39826 0.12133 0.0
C6 C 0.96403 0.40026 0.1149 0.0
C7 C 1.00231 0.42051 0.12867 0.0
C8 C 0.10572 0.5876 0.21251 0.0
C9 C 1.02294 0.59804 0.16618 0.0
C10 C 0.18936 0.72566 0.1662 0.0
Eu11 Eu 0.13637 0.63934 0.16731 0.0
C12 C 0.23644 0.74259 0.15871 0.0
C13 C 0.25187 0.76858 0.13946 0.0
C14 C 0.29536 0.78146 0.1314 0.0
C15 C 0.32472 0.77119 0.14353 0.0
C16 C 0.30527 0.73621 0.15921 0.0
C17 C 0.26267 0.72467 0.1679 0.0
C18 C 0.11423 0.5953 0.12907 0.0
C19 C 0.19492 0.58604 0.16375 0.0
O20 O 1.07819 0.49035 0.15318 0.0
O21 O 1.03469 0.4769 0.18183 0.0
O22 O 1.0655 0.55464 0.207 0.0
O23 O 0.13283 0.59749 0.1965 0.0
O24 O 1.02161 0.55814 0.16447 0.0
O25 O 1.06416 0.63504 0.16967 0.0
O26 O 0.17818 0.70355 0.18493 0.0
O27 O 0.15874 0.70462 0.15093 0.0
O28 O 0.15591 0.62506 0.13428 0.0
O29 O 0.08691 0.58903 0.14422 0.0
O30 O 0.1983 0.62683 0.16504 0.0
O31 O 0.15312 0.54977 0.16571 0.0
H32 H 0.96047 0.46237 0.16753 0.0
H33 H 0.89379 0.4253 0.14477 0.0
H34 H 0.9646 0.38125 0.10076 0.0
H35 H 1.03276 0.41922 0.12424 0.0
H36 H 0.231 0.78015 0.13112 0.0
H37 H 0.30883 0.80663 0.11835 0.0
H38 H 0.32721 0.7274 0.16856 0.0
H39 H 0.25129 0.70316 0.18234 0.0
C40 C 0.57103 0.15358 0.49132 0.0
Eu41 Eu 0.61175 0.10989 0.50403 0.0
C42 C 0.59115 0.19711 0.47963 0.0
C43 C 0.59055 0.23363 0.48999 0.0
C44 C 0.62095 0.27806 0.48355 0.0
C45 C 0.65172 0.28666 0.4663 0.0
C46 C 0.6504 0.25026 0.4548 0.0
C47 C 0.62005 0.20538 0.46148 0.0
C48 C 0.62547 0.09292 0.54639 0.0
C49 C 0.72657 0.17379 0.501 0.0
C50 C 0.68811 1.00139 0.50166 0.0
Eu51 Eu 0.66412 0.06231 0.50062 0.0
C52 C 0.65748 0.95405 0.49432 0.0
C53 C 0.64605 0.94404 0.472 0.0
C54 C 0.6148 0.89948 0.46535 0.0
C55 C 0.59494 0.86408 0.48085 0.0
C56 C 0.60307 0.87527 0.50329 0.0
C57 C 0.63443 0.91958 0.50989 0.0
C58 C 0.65461 0.09709 0.46312 0.0
C59 C 0.54837 0.99863 0.49706 0.0
O60 O 0.56787 0.11869 0.48053 0.0
O61 O 0.58731 0.15697 0.51112 0.0
O62 O 0.60313 0.11316 0.54053 0.0
O63 O 0.63963 0.0817 0.52966 0.0
O64 O 0.68634 0.1714 0.49679 0.0
O65 O 0.72584 0.13524 0.50707 0.0
O66 O 0.67522 1.01359 0.5194 0.0
O67 O 0.70235 1.0326 0.48635 0.0
O68 O 0.69309 0.10032 0.46897 0.0
O69 O 0.62366 0.07511 0.47688 0.0
O70 O 0.58868 1.00009 0.49498 0.0
O71 O 0.54878 1.03718 0.50216 0.0
H72 H 0.56916 0.22799 0.50419 0.0
H73 H 0.62166 0.30604 0.49261 0.0
H74 H 0.67363 0.25652 0.44134 0.0
H75 H 0.62115 0.1775 0.45332 0.0
H76 H 0.66195 0.97028 0.45955 0.0
H77 H 0.60938 0.89187 0.44801 0.0
H78 H 0.58881 0.84904 0.51582 0.0
H79 H 0.64135 0.92666 0.52721 0.0
C80 C 0.73967 0.62192 0.82562 0.0
Eu81 Eu 0.65494 0.58557 0.83709 0.0
C82 C 0.75947 0.60048 0.81203 0.0
C83 C 0.74958 0.55581 0.81673 0.0
C84 C 0.76593 0.5339 0.80342 0.0
C85 C 0.79707 0.55844 0.78664 0.0
C86 C 0.8029 0.60123 0.78032 0.0
C87 C 0.78395 0.62213 0.79298 0.0
C88 C 0.61934 0.57182 0.87838 0.0
C89 C 0.60966 0.4694 0.83208 0.0
C90 C 0.47977 0.51046 0.84276 0.0
Eu91 Eu 0.56119 0.52928 0.83612 0.0
C92 C 0.46488 0.53993 0.83189 0.0
C93 C 0.46367 0.54186 0.80883 0.0
C94 C 0.44948 0.5697 0.79859 0.0
C95 C 0.43292 0.59255 0.81145 0.0
C96 C 0.44593 0.60039 0.83361 0.0
C97 C 0.4598 0.5724 0.84406 0.0
C98 C 0.59571 0.54222 0.79581 0.0
C99 C 0.6043 0.64425 0.83027 0.0
O100 O 0.71037 0.62966 0.8152 0.0
O101 O 0.72529 0.60424 0.84511 0.0
O102 O 0.65066 0.61109 0.87081 0.0
O103 O 0.60882 0.54115 0.86396 0.0
O104 O 0.6455 0.51198 0.82967 0.0
O105 O 0.56983 0.46564 0.83745 0.0
O106 O 0.51113 0.531 0.85795 0.0
O107 O 0.48826 0.48469 0.82977 0.0
O108 O 0.56174 0.50349 0.80234 0.0
O109 O 0.60712 0.57273 0.81018 0.0
O110 O 0.56851 0.60176 0.82901 0.0
O111 O 0.64466 0.64837 0.83461 0.0
H112 H 0.73126 0.53876 0.83143 0.0
H113 H 0.76147 0.50127 0.80894 0.0
H114 H 0.82705 0.62096 0.76756 0.0
H115 H 0.79051 0.65608 0.78863 0.0
H116 H 0.47137 0.5203 0.79867 0.0
H117 H 0.44223 0.56547 0.78118 0.0
H118 H 0.43625 0.62061 0.84367 0.0
H119 H 0.4646 0.57474 0.86165 0.0
C120 C 0.60791 0.14136 0.32932 0.0
C121 C 0.59779 0.0995 0.33896 0.0
C122 C 0.61274 0.14685 0.30681 0.0
C123 C 0.60699 0.11042 0.29366 0.0
C124 C 0.5967 0.06839 0.30318 0.0
C125 C 0.5923 0.06301 0.32579 0.0
C126 C 0.60608 0.115 0.26996 0.0
C127 C 0.64227 0.1522 0.25904 0.0
C128 C 0.63777 0.15842 0.23675 0.0
C129 C 0.59716 0.1293 0.2258 0.0
C130 C 0.56196 0.09225 0.2365 0.0
C131 C 0.56645 0.08425 0.25848 0.0
C132 C 0.52278 0.06023 0.22362 0.0
C133 C 0.49883 0.07618 0.21079 0.0
C134 C 0.51425 1.01542 0.22144 0.0
C135 C 0.48247 0.98687 0.20621 0.0
C136 C 0.45858 1.00274 0.19335 0.0
C137 C 0.67533 0.19185 0.2234 0.0
C138 C 0.68953 0.23864 0.22471 0.0
C139 C 0.68778 0.17478 0.20549 0.0
C140 C 0.71128 0.20326 0.18829 0.0
C141 C 0.72547 0.25009 0.18917 0.0
C142 C 0.71499 0.26797 0.2076 0.0
C143 C 0.46618 1.04712 0.19575 0.0
H144 H 0.61192 0.16979 0.3392 0.0
H145 H 0.61953 0.17908 0.29959 0.0
H146 H 0.59187 1.03985 0.29311 0.0
H147 H 0.58534 1.03071 0.33299 0.0
H148 H 0.67359 0.17543 0.26768 0.0
H149 H 0.53852 1.05527 0.26677 0.0
H150 H 0.59387 0.1342 0.20843 0.0
H151 H 0.506 0.11121 0.21225 0.0
H152 H 0.53325 1.00312 0.23091 0.0
H153 H 0.47576 0.95195 0.20469 0.0
H154 H 0.67901 0.25181 0.2383 0.0
H155 H 0.67603 0.13847 0.20403 0.0
H156 H 0.44699 0.05899 0.18615 0.0
H157 H 0.726 0.30413 0.20865 0.0
H158 H 0.71786 0.18831 0.17405 0.0
C159 C 0.65495 0.62237 0.66072 0.0
C160 C 0.66588 0.59186 0.67123 0.0
C161 C 0.65682 0.62627 0.63801 0.0
C162 C 0.67022 0.60018 0.62542 0.0
C163 C 0.68112 0.56968 0.63593 0.0
C164 C 0.67883 0.56546 0.65862 0.0
C165 C 0.67438 0.60581 0.60145 0.0
C166 C 0.69378 0.64987 0.59219 0.0
C167 C 0.69915 0.65573 0.56952 0.0
C168 C 0.68495 0.6172 0.55622 0.0
C169 C 0.66568 0.57317 0.56509 0.0
C170 C 0.6602 0.56746 0.58777 0.0
C171 C 0.65506 0.5346 0.55025 0.0
C172 C 0.63643 0.53327 0.52948 0.0
C173 C 0.67101 0.50422 0.55504 0.0
C174 C 0.67198 0.47588 0.53868 0.0
C175 C 0.65788 0.47821 0.51718 0.0
C176 C 0.71362 0.70039 0.55894 0.0
C177 C 0.69303 0.72583 0.56535 0.0
C178 C 0.73712 0.71073 0.53888 0.0
C179 C 0.73055 0.73739 0.52344 0.0
C180 C 0.70208 0.75536 0.52842 0.0
C181 C 0.68781 0.75378 0.55015 0.0
C182 C 0.63877 0.50624 0.51301 0.0
H183 H 0.64508 0.64333 0.67006 0.0
H184 H 0.64764 0.64962 0.63032 0.0
H185 H 0.69204 0.5495 0.62665 0.0
H186 H 0.68664 0.54108 0.66626 0.0
H187 H 0.7052 0.67967 0.60258 0.0
H188 H 0.64475 0.53329 0.5947 0.0
H189 H 0.68865 0.62142 0.53863 0.0
H190 H 0.62288 0.55561 0.5255 0.0
H191 H 0.68536 0.50439 0.57098 0.0
H192 H 0.6851 0.45328 0.5428 0.0
H193 H 0.6757 0.71971 0.58093 0.0
H194 H 0.75517 0.69313 0.53398 0.0
H195 H 0.62759 0.50929 0.49677 0.0
H196 H 0.66783 0.7696 0.55466 0.0
H197 H 0.74316 0.73917 0.50699 0.0
C198 C 0.14122 0.56925 -0.00708 0.0
C199 C 0.1016 0.53932 0.00463 0.0
C200 C 0.13932 0.57263 0.97035 0.0
C201 C 0.09776 0.54626 0.95924 0.0
C202 C 1.05785 0.51708 0.97093 0.0
C203 C 1.05977 0.51359 -0.00645 0.0
C204 C 0.09706 0.54587 0.93534 0.0
C205 C 0.12821 0.53718 0.9242 0.0
C206 C 0.12499 0.53186 0.90156 0.0
C207 C 0.09323 0.53858 0.89002 0.0
C208 C 1.06025 0.54424 0.90094 0.0
C209 C 1.06249 0.54868 0.92374 0.0
C210 C 1.02022 0.53724 0.88828 0.0
C211 C 1.02666 0.55448 0.86687 0.0
C212 C 0.97567 0.50689 0.89579 0.0
C213 C 0.93807 0.49506 0.88214 0.0
C214 C 0.94519 0.51209 0.86072 0.0
C215 C 0.15125 0.51526 0.88954 0.0
C216 C 0.19856 0.53555 0.89273 0.0
C217 C 0.12941 0.48245 0.87285 0.0
C218 C 0.15522 0.47433 0.85784 0.0
C219 C 0.20272 0.49778 0.85999 0.0
C220 C 0.22426 0.52657 0.87797 0.0
C221 C 0.98966 0.5405 0.85297 0.0
H222 H 0.17359 0.5904 0.00123 0.0
H223 H 0.17036 0.59551 0.96153 0.0
H224 H 1.02561 0.49595 0.96251 0.0
H225 H 1.02881 0.49039 0.00233 0.0
H226 H 0.15276 0.53155 0.93325 0.0
H227 H 1.03689 0.55302 0.9324 0.0
H228 H 0.09164 0.53494 0.87236 0.0
H229 H 1.06053 0.57848 0.86076 0.0
H230 H 0.96997 0.49226 0.91207 0.0
H231 H 0.90368 0.47438 0.88849 0.0
H232 H 0.21593 0.56064 0.90553 0.0
H233 H 0.09258 0.46537 0.87055 0.0
H234 H 0.99545 0.55546 0.83673 0.0
H235 H 0.26127 0.54461 0.87965 0.0
H236 H 0.13852 0.45208 0.84397 0.0
C237 C 0.08833 0.58922 0.35739 0.0
C238 C 0.12683 0.60226 0.34396 0.0
C239 C 0.09097 0.5857 0.3802 0.0
C240 C 0.13226 0.59515 0.39055 0.0
C241 C 0.17085 0.60791 0.37715 0.0
C242 C 0.1681 0.61111 0.3542 0.0
C243 C 0.13454 0.59199 0.41518 0.0
C244 C 0.09811 0.55574 0.42656 0.0
C245 C 0.09571 0.55245 0.44971 0.0
C246 C 0.13527 0.58825 0.46161 0.0
C247 C 0.17459 0.62549 0.45025 0.0
C248 C 0.17203 0.62579 0.42712 0.0
C249 C 0.22006 0.66496 0.46047 0.0
C250 C 0.22241 0.69858 0.4753 0.0
C251 C 0.26311 0.67448 0.45188 0.0
C252 C 0.3054 0.71428 0.45758 0.0
C253 C 0.30807 0.74838 0.47203 0.0
C254 C 1.04999 0.51147 0.45924 0.0
C255 C 1.00771 0.49783 0.44832 0.0
C256 C 1.04667 0.48163 0.47661 0.0
C257 C 1.00404 0.44049 0.48207 0.0
C258 C 0.962 0.4264 0.47046 0.0
C259 C 0.96608 0.45703 0.45338 0.0
C260 C 0.26514 0.73923 0.48082 0.0
H261 H 1.05572 0.58143 0.35026 0.0
H262 H 1.06056 0.57621 0.3898 0.0
H263 H 0.2032 0.61514 0.3844 0.0
H264 H 0.19858 0.62141 0.34452 0.0
H265 H 1.07086 0.52905 0.41688 0.0
H266 H 0.19959 0.6537 0.41815 0.0
H267 H 0.13551 0.58719 0.4793 0.0
H268 H 0.19093 0.69437 0.48212 0.0
H269 H 0.26412 0.65109 0.44006 0.0
H270 H 0.33645 0.71887 0.45006 0.0
H271 H 1.00659 0.51865 0.43505 0.0
H272 H 1.07736 0.48922 0.48569 0.0
H273 H 0.26445 0.76355 0.49213 0.0
H274 H 0.93713 0.4496 0.44304 0.0
H275 H 1.00438 0.41957 0.49546 0.0
C276 C 0.60267 1.03904 0.68747 0.0
C277 C 0.63509 0.08124 0.67811 0.0
C278 C 0.59835 1.03341 0.71041 0.0
C279 C 0.62615 0.06987 0.72467 0.0
C280 C 0.65953 0.11142 0.71529 0.0
C281 C 0.66408 0.11691 0.69248 0.0
C282 C 0.61988 0.06537 0.74918 0.0
C283 C 0.61515 1.02645 0.76022 0.0
C284 C 0.60918 1.02055 0.78321 0.0
C285 C 0.6084 0.05768 0.79521 0.0
C286 C 0.61355 0.09861 0.78424 0.0
C287 C 0.61914 0.10052 0.76129 0.0
C288 C 0.61333 0.14073 0.79492 0.0
C289 C 0.57711 0.13706 0.80807 0.0
C290 C 0.6462 0.1864 0.78871 0.0
C291 C 0.64267 0.22556 0.79473 0.0
C292 C 0.60552 0.22191 0.80713 0.0
C293 C 0.60498 0.97541 0.79306 0.0
C294 C 0.58455 0.9337 0.78086 0.0
C295 C 0.62467 0.97324 0.81326 0.0
C296 C 0.6255 0.93281 0.82023 0.0
C297 C 0.60687 0.89168 0.80747 0.0
C298 C 0.58569 0.89363 0.78769 0.0
C299 C 0.57324 0.17632 0.81389 0.0
H300 H 0.57944 1.01082 0.6771 0.0
H301 H 0.57215 1.00091 0.71699 0.0
H302 H 0.68224 0.13997 0.72564 0.0
H303 H 0.6903 0.14959 0.68609 0.0
H304 H 0.61778 1.00098 0.75057 0.0
H305 H 0.62195 0.12978 0.75245 0.0
H306 H 0.60401 1.05485 0.81278 0.0
H307 H 0.55035 0.10341 0.81313 0.0
H308 H 0.67467 0.19196 0.77846 0.0
H309 H 0.66856 0.25883 0.78879 0.0
H310 H 0.56762 0.93176 0.76547 0.0
H311 H 0.64089 1.00341 0.82354 0.0
H312 H 0.54415 0.17054 0.82368 0.0
H313 H 0.57048 0.86431 0.77688 0.0
H314 H 0.64129 0.93448 0.83589 0.0
C315 C 0.60255 0.54412 0.02224 0.0
C316 C 0.59473 0.57524 0.00995 0.0
C317 C 0.60554 0.54646 0.04531 0.0
C318 C 0.5999 0.57934 0.05698 0.0
C319 C 0.59213 0.61035 0.04484 0.0
C320 C 0.59019 0.60875 0.02183 0.0
C321 C 0.60209 0.58146 0.08167 0.0
C322 C 0.63907 0.5823 0.09292 0.0
C323 C 0.64303 0.58362 0.11614 0.0
C324 C 0.60644 0.58592 0.12801 0.0
C325 C 0.5682 0.58649 0.11671 0.0
C326 C 0.56769 0.5837 0.09362 0.0
C327 C 0.52815 0.59137 0.12694 0.0
C328 C 0.4959 0.56034 0.14233 0.0
C329 C 0.51676 0.6235 0.11798 0.0
C330 C 0.47641 0.62477 0.12382 0.0
C331 C 0.44357 0.59333 0.13872 0.0
C332 C 0.68643 0.58338 0.12617 0.0
C333 C 0.71107 0.56649 0.11392 0.0
C334 C 0.70612 0.6014 0.14702 0.0
C335 C 0.74774 0.6033 0.15459 0.0
C336 C 0.77308 0.58854 0.14159 0.0
C337 C 0.75312 0.56998 0.12109 0.0
C338 C 0.45469 0.56114 0.14796 0.0
H339 H 0.60569 0.51728 0.01419 0.0
H340 H 0.61136 0.52181 0.05409 0.0
H341 H 0.58835 0.63662 0.05316 0.0
H342 H 0.58572 0.6346 0.01347 0.0
H343 H 0.66602 0.58362 0.0829 0.0
H344 H 0.53948 0.58289 0.08461 0.0
H345 H 0.6079 0.58777 0.14569 0.0
H346 H 0.50163 0.53422 0.14954 0.0
H347 H 0.53913 0.6478 0.10584 0.0
H348 H 0.47045 0.65037 0.11614 0.0
H349 H 0.69788 0.54946 0.09843 0.0
H350 H 0.68976 0.61472 0.15754 0.0
H351 H 0.43155 0.5365 0.15976 0.0
H352 H 0.76949 0.55659 0.11059 0.0
H353 H 0.76061 0.61728 0.1707 0.0
H354 H 0.29078 0.64916 0.16677 0.0
H355 H 0.19711 0.50913 0.14928 0.0
H356 H 0.26184 0.49788 0.14079 0.0
H357 H 0.34731 0.52728 0.13794 0.0
H358 H 0.44056 0.66885 0.1537 0.0
H359 H 0.37577 0.67941 0.16293 0.0
C360 C 0.28421 0.6163 0.16088 0.0
C361 C 0.23744 0.58033 0.15885 0.0
C362 C 0.32265 0.60994 0.15573 0.0
C363 C 0.23147 0.53785 0.15146 0.0
C364 C 0.26911 0.5313 0.14645 0.0
C365 C 0.3538 0.56049 0.14353 0.0
C366 C 0.40052 0.5971 0.14513 0.0
C367 C 0.31524 0.56692 0.14855 0.0
C368 C 0.40625 0.63969 0.15215 0.0
C369 C 0.36864 0.64587 0.1575 0.0
H370 H 0.74924 0.257 0.47835 0.0
H371 H 0.81306 0.19563 0.51605 0.0
H372 H 0.88804 0.26445 0.51096 0.0
H373 H 0.93863 0.34366 0.49505 0.0
H374 H 0.87258 0.40421 0.45797 0.0
H375 H 0.79958 0.33581 0.46267 0.0
C376 C 0.77929 0.25835 0.48565 0.0
C377 C 0.77352 0.21933 0.49787 0.0
C378 C 0.82385 0.29895 0.4824 0.0
C379 C 0.81458 0.22366 0.50665 0.0
C380 C 0.85828 0.2637 0.50368 0.0
C381 C 0.90858 0.34274 0.48807 0.0
C382 C 0.91443 0.38158 0.47547 0.0
C383 C 0.86394 0.30199 0.49149 0.0
C384 C 0.87271 0.37675 0.46704 0.0
C385 C 0.8293 0.33684 0.47012 0.0
H386 H 0.65255 0.73639 0.84567 0.0
H387 H 0.54447 0.64967 0.80103 0.0
H388 H 0.53562 0.71486 0.79003 0.0
H389 H 0.55781 0.79785 0.79274 0.0
H390 H 0.66496 0.88404 0.83833 0.0
H391 H 0.67298 0.81908 0.84919 0.0
C392 C 0.62688 0.73142 0.83355 0.0
C393 C 0.59921 0.68658 0.8244 0.0
C394 C 0.62114 0.76985 0.82738 0.0
C395 C 0.56618 0.68248 0.80879 0.0
C396 C 0.56116 0.72038 0.80233 0.0
C397 C 0.58335 0.80333 0.80499 0.0
C398 C 0.6105 0.84835 0.81437 0.0
C399 C 0.58836 0.76459 0.81145 0.0
C400 C 0.6425 0.85161 0.83052 0.0
C401 C 0.64764 0.81372 0.83681 0.0
H402 H 0.93622 0.5644 0.1872 0.0
H403 H 1.01055 0.63997 0.13021 0.0
H404 H 0.94297 0.643 0.11734 0.0
H405 H 0.86034 0.62317 0.1214 0.0
H406 H 0.78861 0.55497 0.18027 0.0
H407 H 0.85564 0.55055 0.19281 0.0
C408 C 0.93807 0.582 0.17204 0.0
C409 C 0.9801 0.60211 0.1599 0.0
C410 C 0.89844 0.58493 0.16483 0.0
C411 C 0.98006 0.62445 0.14027 0.0
C412 C 0.94078 0.62604 0.13276 0.0
C413 C 0.85914 0.6075 0.13708 0.0
C414 C 0.81772 0.58927 0.14964 0.0
C415 C 0.89937 0.60629 0.14475 0.0
C416 C 0.81877 0.56963 0.17 0.0
C417 C 0.85764 0.56692 0.17724 0.0
H418 H 0.52079 0.90249 0.49503 0.0
H419 H 0.46633 0.99355 0.48731 0.0
H420 H 0.3906 0.92847 0.47962 0.0
H421 H 0.33636 0.84374 0.47511 0.0
H422 H 0.39 0.75209 0.48244 0.0
H423 H 0.46614 0.81717 0.49039 0.0
C424 C 0.49255 0.90845 0.49174 0.0
C425 C 0.50113 0.95473 0.49217 0.0
C426 C 0.44724 0.86959 0.48732 0.0
C427 C 0.46248 0.95965 0.48761 0.0
C428 C 0.41832 0.9218 0.48308 0.0
C429 C 0.3644 0.83757 0.47857 0.0
C430 C 0.35555 0.79128 0.47799 0.0
C431 C 0.40966 0.87625 0.483 0.0
C432 C 0.39411 0.7861 0.48241 0.0
C433 C 0.43843 0.82391 0.48706 0.0
H434 H 0.54274 0.37439 0.82577 0.0
H435 H 0.6887 0.46384 0.8295 0.0
H436 H 0.70097 0.40006 0.8217 0.0
H437 H 0.67126 0.31663 0.8139 0.0
H438 H 0.52498 0.2256 0.81135 0.0
H439 H 0.5128 0.28999 0.8186 0.0
C440 C 0.57742 0.38031 0.82497 0.0
C441 C 0.61487 0.42623 0.82801 0.0
C442 C 0.58448 0.34186 0.82069 0.0
C443 C 0.65894 0.43089 0.82677 0.0
C444 C 0.66606 0.39351 0.82244 0.0
C445 C 0.63647 0.31033 0.81485 0.0
C446 C 0.59926 0.26425 0.81207 0.0
C447 C 0.62926 0.34852 0.81927 0.0
C448 C 0.5549 0.25907 0.81368 0.0
C449 C 0.54771 0.29662 0.81776 0.0
H450 H 0.64095 0.83874 0.45366 0.0
H451 H 0.52022 0.78039 0.49361 0.0
H452 H 0.54494 0.73203 0.51212 0.0
H453 H 0.61258 0.72953 0.52539 0.0
H454 H 0.74094 0.80386 0.4908 0.0
H455 H 0.70348 0.82532 0.46254 0.0
C456 C 0.61903 0.81391 0.46579 0.0
C457 C 0.58197 0.81685 0.47438 0.0
C458 C 0.63721 0.79221 0.47848 0.0
C459 C 0.55094 0.78098 0.48792 0.0
C460 C 0.56598 0.75464 0.49912 0.0
C461 C 0.63246 0.75061 0.51171 0.0
C462 C 0.67989 0.76692 0.51062 0.0
C463 C 0.61122 0.76412 0.49611 0.0
C464 C 0.70466 0.792 0.49224 0.0
C465 C 0.68319 0.8039 0.47602 0.0
H466 H 0.87236 0.61248 0.80715 0.0
H467 H 0.80848 0.48852 0.76899 0.0
H468 H 0.85018 0.45859 0.79044 0.0
H469 H 0.89491 0.46447 0.82482 0.0
H470 H 0.92106 0.57267 0.87038 0.0
H471 H 0.89804 0.60984 0.84317 0.0
C472 C 0.86861 0.57939 0.80302 0.0
C473 C 0.83735 0.55262 0.78676 0.0
C474 C 0.88215 0.55811 0.81834 0.0
C475 C 0.83278 0.50991 0.78142 0.0
C476 C 0.85489 0.49208 0.79428 0.0
C477 C 0.89335 0.49496 0.82895 0.0
C478 C 0.90992 0.5165 0.84926 0.0
C479 C 0.8771 0.51471 0.81371 0.0
C480 C 0.90785 0.55571 0.85479 0.0
C481 C 0.89621 0.57767 0.83906 0.0
H482 H 0.33818 0.80769 0.18272 0.0
H483 H 0.40255 0.82865 0.1195 0.0
H484 H 0.44817 0.91166 0.12721 0.0
H485 H 0.46307 0.9773 0.15185 0.0
H486 H 0.37305 0.95124 0.20664 0.0
H487 H 0.33695 0.86932 0.2004 0.0
C488 C 0.36248 0.82988 0.17048 0.0
C489 C 0.36689 0.81218 0.15049 0.0
C490 C 0.38001 0.87631 0.17268 0.0
C491 C 0.39913 0.84168 0.13513 0.0
C492 C 0.42356 0.88894 0.13916 0.0
C493 C 0.43359 0.95362 0.16144 0.0
C494 C 0.42144 0.96908 0.18017 0.0
C495 C 0.41241 0.90662 0.15746 0.0
C496 C 0.38272 0.93922 0.19229 0.0
C497 C 0.36349 0.89257 0.18929 0.0
H498 H 0.63538 0.34288 0.44256 0.0
H499 H 0.73908 0.33757 0.48139 0.0
H500 H 0.75773 0.40962 0.49913 0.0
H501 H 0.72569 0.45671 0.51208 0.0
H502 H 0.60249 0.44066 0.48123 0.0
H503 H 0.60849 0.39432 0.45281 0.0
C504 C 0.66392 0.35934 0.45397 0.0
C505 C 0.68451 0.33464 0.46142 0.0
C506 C 0.66818 0.39549 0.46681 0.0
C507 C 0.72245 0.35606 0.47558 0.0
C508 C 0.73166 0.39625 0.48643 0.0
C509 C 0.70007 0.44313 0.49918 0.0
C510 C 0.66348 0.45215 0.49907 0.0
C511 C 0.70147 0.41328 0.48371 0.0
C512 C 0.6315 0.43518 0.48176 0.0
C513 C 0.63475 0.40838 0.4654 0.0
H514 H 0.36622 0.50753 0.81429 0.0
H515 H 0.39267 0.6452 0.80331 0.0
H516 H 0.31198 0.61995 0.81134 0.0
H517 H 0.24286 0.56455 0.83099 0.0
H518 H 0.22732 0.43475 0.85092 0.0
H519 H 0.29527 0.45039 0.82993 0.0
C520 C 0.35378 0.53157 0.81262 0.0
C521 C 0.38459 0.5779 0.80792 0.0
C522 C 0.30974 0.51805 0.8195 0.0
C523 C 0.369 0.60932 0.80659 0.0
C524 C 0.32328 0.59495 0.81147 0.0
C525 C 0.25363 0.53915 0.82978 0.0
C526 C 0.23108 0.49871 0.84208 0.0
C527 C 0.29448 0.55022 0.81931 0.0
C528 C 0.2445 0.4657 0.84113 0.0
C529 C 0.28337 0.47494 0.82938 0.0
H530 H 0.83743 0.38902 0.11444 0.0
H531 H 0.90693 0.31092 0.1183 0.0
H532 H 0.84999 0.25772 0.14324 0.0
H533 H 0.79492 0.24673 0.17092 0.0
H534 H 0.71848 0.31798 0.16697 0.0
H535 H 0.76626 0.36347 0.13596 0.0
C536 C 0.83838 0.35871 0.11971 0.0
C537 C 0.87872 0.35657 0.11656 0.0
C538 C 0.80649 0.32939 0.13518 0.0
C539 C 0.87789 0.3154 0.12172 0.0
C540 C 0.846 0.28544 0.1366 0.0
C541 C 0.78758 0.27119 0.1629 0.0
C542 C 0.75361 0.27928 0.17112 0.0
C543 C 0.81276 0.29464 0.1447 0.0
C544 C 0.74536 0.31206 0.16108 0.0
C545 C 0.77193 0.33726 0.14317 0.0
H546 H 0.16012 0.57006 0.10264 0.0
H547 H 1.03681 0.57828 0.10753 0.0
H548 H 1.01847 0.55556 0.06909 0.0
H549 H 1.04312 0.54271 0.03345 0.0
H550 H 0.16554 0.53242 0.02903 0.0
H551 H 0.1784 0.54568 0.06835 0.0
C552 C 0.129 0.5662 0.09523 0.0
C553 C 0.10013 0.5763 0.10732 0.0
C554 C 0.11865 0.55279 0.07345 0.0
C555 C 1.0594 0.57065 0.09814 0.0
C556 C 1.04904 0.55782 0.07629 0.0
C557 C 1.07184 0.54208 0.04123 0.0
C558 C 0.1039 0.53759 0.02854 0.0
C559 C 1.07911 0.55 0.06368 0.0
C560 C 0.14109 0.53689 0.03863 0.0
C561 C 0.14844 0.54444 0.061 0.0
H562 H 0.58079 1.04634 0.4382 0.0
H563 H 0.71005 0.17296 0.43987 0.0
H564 H 0.70003 0.18794 0.40156 0.0
H565 H 0.65959 0.15991 0.36696 0.0
H566 H 0.53427 1.02941 0.36404 0.0
H567 H 0.53783 1.02016 0.40367 0.0
C568 C 0.60626 0.07744 0.43014 0.0
C569 C 0.64613 0.10851 0.44135 0.0
C570 C 0.60133 0.08447 0.40801 0.0
C571 C 0.67942 0.14857 0.43111 0.0
C572 C 0.67369 0.15704 0.40936 0.0
C573 C 0.63254 0.12995 0.3751 0.0
C574 C 0.59677 0.09538 0.36286 0.0
C575 C 0.63555 0.12446 0.39752 0.0
C576 C 0.56229 1.05621 0.37334 0.0
C577 C 0.56426 1.05102 0.39589 0.0
H578 H 0.66753 0.5534 0.77222 0.0
H579 H 0.5419 0.55762 0.76872 0.0
H580 H 0.55405 0.57628 0.72967 0.0
H581 H 0.59809 0.58693 0.69649 0.0
H582 H 0.72418 0.58302 0.69955 0.0
H583 H 0.71397 0.56785 0.73889 0.0
C584 C 0.64305 0.55844 0.76273 0.0
C585 C 0.6037 0.55372 0.77277 0.0
C586 C 0.65015 0.56874 0.74038 0.0
C587 C 0.57204 0.5606 0.76085 0.0
C588 C 0.57905 0.57132 0.73868 0.0
C589 C 0.62378 0.5836 0.70582 0.0
C590 C 0.66172 0.58596 0.6952 0.0
C591 C 0.61768 0.57492 0.72826 0.0
C592 C 0.69433 0.58072 0.7074 0.0
C593 C 0.68863 0.57224 0.72985 0.0
H594 H 0.64145 0.14952 0.58036 0.0
H595 H 0.62178 1.01625 0.56495 0.0
H596 H 0.62215 0.99983 0.60427 0.0
H597 H 0.6258 1.02332 0.64348 0.0
H598 H 0.64801 0.15866 0.65741 0.0
H599 H 0.64996 0.17445 0.61853 0.0
C600 C 0.63779 0.11704 0.58561 0.0
C601 C 0.63166 0.08421 0.56976 0.0
C602 C 0.63863 0.10824 0.60813 0.0
C603 C 0.62712 1.04235 0.5768 0.0
C604 C 0.627 1.03289 0.59932 0.0
C605 C 0.63099 1.05624 0.63803 0.0
C606 C 0.6369 0.08973 0.65374 0.0
C607 C 0.63227 0.06547 0.61524 0.0
C608 C 0.64405 0.1323 0.64605 0.0
C609 C 0.64487 0.14139 0.62367 0.0
H610 H 0.57337 0.59632 0.90701 0.0
H611 H 0.65222 0.52792 0.90372 0.0
H612 H 0.65148 0.52211 0.9438 0.0
H613 H 0.63323 0.54173 0.97994 0.0
H614 H 0.5467 0.60262 0.98276 0.0
H615 H 0.54629 0.60646 0.94313 0.0
C616 C 0.58984 0.57961 0.91511 0.0
C617 C 0.61302 0.56274 0.9024 0.0
C618 C 0.58863 0.57574 0.93823 0.0
C619 C 0.63402 0.541 0.9131 0.0
C620 C 0.63379 0.53793 0.93607 0.0
C621 C 0.61352 0.55521 0.97212 0.0
C622 C 0.59134 0.57327 0.98506 0.0
C623 C 0.61187 0.55591 0.94889 0.0
C624 C 0.56612 0.59034 0.97387 0.0
C625 C 0.56526 0.59208 0.95094 0.0
H626 H 1.07855 0.62324 0.24515 0.0
H627 H 0.16423 0.56479 0.23238 0.0
H628 H 0.17961 0.56484 0.27171 0.0
H629 H 0.16481 0.57744 0.31021 0.0
H630 H 1.08176 0.63953 0.32238 0.0
H631 H 1.06999 0.64277 0.28317 0.0
C632 C 0.10123 0.61129 0.25101 0.0
C633 C 0.12047 0.59431 0.23587 0.0
C634 C 0.11023 0.61183 0.27368 0.0
C635 C 0.14957 0.57867 0.24367 0.0
C636 C 0.1581 0.57841 0.26621 0.0
C637 C 0.14459 0.59219 0.30432 0.0
C638 C 0.12345 0.6073 0.31955 0.0
C639 C 0.13812 0.59435 0.28147 0.0
C640 C 0.09743 0.62634 0.31131 0.0
C641 C 0.09084 0.6285 0.28877 0.0
loop_
_geom_bond_atom_site_label_1
_geom_bond_atom_site_label_2
_geom_bond_distance
_geom_bond_site_symmetry_2
_ccdc_geom_bond_type
C0 Eu1 2.835 . S
C0 C2 1.500 . S
C0 O20 1.257 . S
C0 O21 1.260 . S
Eu1 C0 2.835 . S
Eu1 O20 2.473 . S
Eu1 O21 2.480 . S
Eu1 O22 2.430 1_655 S
Eu1 O23 2.670 1_655 S
Eu1 O24 2.394 . S
Eu1 O29 2.355 1_655 S
Eu1 O31 2.374 1_655 S
C2 C0 1.500 . S
C2 C3 1.377 . S
C2 C7 1.377 . S
C3 C2 1.377 . S
C3 C4 1.395 . S
C3 H32 0.931 . S
C4 C3 1.395 . S
C4 C5 1.383 . S
C4 H33 0.931 . S
C5 C4 1.383 . S
C5 C6 1.394 . S
C6 C5 1.394 . S
C6 C7 1.378 . S
C6 H34 0.931 . S
C7 C2 1.377 . S
C7 C6 1.378 . S
C7 H35 0.931 . S
C8 O22 1.259 . S
C8 O23 1.270 . S
C9 O24 1.251 . S
C9 O25 1.251 . S
C10 Eu11 2.835 . S
C10 C12 1.500 . S
C10 O26 1.257 . S
C10 O27 1.260 . S
Eu11 C10 2.835 . S
Eu11 O23 2.355 . S
Eu11 O25 2.374 1_455 S
Eu11 O26 2.473 . S
Eu11 O27 2.480 . S
Eu11 O28 2.430 . S
Eu11 O29 2.670 . S
Eu11 O30 2.394 . S
C12 C10 1.500 . S
C12 C13 1.377 . S
C12 C17 1.377 . S
C13 C12 1.377 . S
C13 C14 1.395 . S
C13 H36 0.931 . S
C14 C13 1.395 . S
C14 C15 1.383 . S
C14 H37 0.931 . S
C15 C14 1.383 . S
C15 C16 1.394 . S
C16 C15 1.394 . S
C16 C17 1.378 . S
C16 H38 0.931 . S
C17 C12 1.377 . S
C17 C16 1.378 . S
C17 H39 0.931 . S
C18 O28 1.259 . S
C18 O29 1.270 . S
C19 O30 1.251 . S
C19 O31 1.251 . S
O20 C0 1.257 . S
O20 Eu1 2.473 . S
O21 C0 1.260 . S
O21 Eu1 2.480 . S
O22 Eu1 2.430 1_455 S
O22 C8 1.259 . S
O23 Eu1 2.670 1_455 S
O23 C8 1.270 . S
O23 Eu11 2.355 . S
O24 Eu1 2.394 . S
O24 C9 1.251 . S
O25 C9 1.251 . S
O25 Eu11 2.374 1_655 S
O26 C10 1.257 . S
O26 Eu11 2.473 . S
O27 C10 1.260 . S
O27 Eu11 2.480 . S
O28 Eu11 2.430 . S
O28 C18 1.259 . S
O29 Eu1 2.355 1_455 S
O29 Eu11 2.670 . S
O29 C18 1.270 . S
O30 Eu11 2.394 . S
O30 C19 1.251 . S
O31 Eu1 2.374 1_455 S
O31 C19 1.251 . S
H32 C3 0.931 . S
H33 C4 0.931 . S
H34 C6 0.931 . S
H35 C7 0.931 . S
H36 C13 0.931 . S
H37 C14 0.931 . S
H38 C16 0.931 . S
H39 C17 0.931 . S
C40 Eu41 2.835 . S
C40 C42 1.500 . S
C40 O60 1.257 . S
C40 O61 1.260 . S
Eu41 C40 2.835 . S
Eu41 O60 2.473 . S
Eu41 O61 2.480 . S
Eu41 O62 2.430 . S
Eu41 O63 2.670 . S
Eu41 O64 2.394 . S
Eu41 O69 2.355 . S
Eu41 O71 2.374 1_545 S
C42 C40 1.500 . S
C42 C43 1.377 . S
C42 C47 1.377 . S
C43 C42 1.377 . S
C43 C44 1.395 . S
C43 H72 0.931 . S
C44 C43 1.395 . S
C44 C45 1.383 . S
C44 H73 0.931 . S
C45 C44 1.383 . S
C45 C46 1.394 . S
C46 C45 1.394 . S
C46 C47 1.378 . S
C46 H74 0.931 . S
C47 C42 1.377 . S
C47 C46 1.378 . S
C47 H75 0.931 . S
C48 O62 1.259 . S
C48 O63 1.270 . S
C49 O64 1.251 . S
C49 O65 1.251 . S
C50 Eu51 2.835 1_565 S
C50 C52 1.500 . S
C50 O66 1.257 . S
C50 O67 1.260 . S
Eu51 C50 2.835 1_545 S
Eu51 O63 2.355 . S
Eu51 O65 2.374 . S
Eu51 O66 2.473 1_545 S
Eu51 O67 2.480 1_545 S
Eu51 O68 2.430 . S
Eu51 O69 2.670 . S
Eu51 O70 2.394 1_545 S
C52 C50 1.500 . S
C52 C53 1.377 . S
C52 C57 1.377 . S
C53 C52 1.377 . S
C53 C54 1.395 . S
C53 H76 0.931 . S
C54 C53 1.395 . S
C54 C55 1.383 . S
C54 H77 0.931 . S
C55 C54 1.383 . S
C55 C56 1.394 . S
C56 C55 1.394 . S
C56 C57 1.378 . S
C56 H78 0.931 . S
C57 C52 1.377 . S
C57 C56 1.378 . S
C57 H79 0.931 . S
C58 O68 1.259 . S
C58 O69 1.270 . S
C59 O70 1.251 . S
C59 O71 1.251 . S
O60 C40 1.257 . S
O60 Eu41 2.473 . S
O61 C40 1.260 . S
O61 Eu41 2.480 . S
O62 Eu41 2.430 . S
O62 C48 1.259 . S
O63 Eu41 2.670 . S
O63 C48 1.270 . S
O63 Eu51 2.355 . S
O64 Eu41 2.394 . S
O64 C49 1.251 . S
O65 C49 1.251 . S
O65 Eu51 2.374 . S
O66 C50 1.257 . S
O66 Eu51 2.473 1_565 S
O67 C50 1.260 . S
O67 Eu51 2.480 1_565 S
O68 Eu51 2.430 . S
O68 C58 1.259 . S
O69 Eu41 2.355 . S
O69 Eu51 2.670 . S
O69 C58 1.270 . S
O70 Eu51 2.394 1_565 S
O70 C59 1.251 . S
O71 Eu41 2.374 1_565 S
O71 C59 1.251 . S
H72 C43 0.931 . S
H73 C44 0.931 . S
H74 C46 0.931 . S
H75 C47 0.931 . S
H76 C53 0.931 . S
H77 C54 0.931 . S
H78 C56 0.931 . S
H79 C57 0.931 . S
C80 Eu81 2.835 . S
C80 C82 1.500 . S
C80 O100 1.257 . S
C80 O101 1.260 . S
Eu81 C80 2.835 . S
Eu81 O100 2.473 . S
Eu81 O101 2.480 . S
Eu81 O102 2.430 . S
Eu81 O103 2.670 . S
Eu81 O104 2.394 . S
Eu81 O109 2.355 . S
Eu81 O111 2.374 . S
C82 C80 1.500 . S
C82 C83 1.377 . S
C82 C87 1.377 . S
C83 C82 1.377 . S
C83 C84 1.395 . S
C83 H112 0.931 . S
C84 C83 1.395 . S
C84 C85 1.383 . S
C84 H113 0.931 . S
C85 C84 1.383 . S
C85 C86 1.394 . S
C86 C85 1.394 . S
C86 C87 1.378 . S
C86 H114 0.931 . S
C87 C82 1.377 . S
C87 C86 1.378 . S
C87 H115 0.931 . S
C88 O102 1.259 . S
C88 O103 1.270 . S
C89 O104 1.251 . S
C89 O105 1.251 . S
C90 Eu91 2.835 . S
C90 C92 1.500 . S
C90 O106 1.257 . S
C90 O107 1.260 . S
Eu91 C90 2.835 . S
Eu91 O103 2.355 . S
Eu91 O105 2.374 . S
Eu91 O106 2.473 . S
Eu91 O107 2.480 . S
Eu91 O108 2.430 . S
Eu91 O109 2.670 . S
Eu91 O110 2.394 . S
C92 C90 1.500 . S
C92 C93 1.377 . S
C92 C97 1.377 . S
C93 C92 1.377 . S
C93 C94 1.395 . S
C93 H116 0.931 . S
C94 C93 1.395 . S
C94 C95 1.383 . S
C94 H117 0.931 . S
C95 C94 1.383 . S
C95 C96 1.394 . S
C96 C95 1.394 . S
C96 C97 1.378 . S
C96 H118 0.931 . S
C97 C92 1.377 . S
C97 C96 1.378 . S
C97 H119 0.931 . S
C98 O108 1.259 . S
C98 O109 1.270 . S
C99 O110 1.251 . S
C99 O111 1.251 . S
O100 C80 1.257 . S
O100 Eu81 2.473 . S
O101 C80 1.260 . S
O101 Eu81 2.480 . S
O102 Eu81 2.430 . S
O102 C88 1.259 . S
O103 Eu81 2.670 . S
O103 C88 1.270 . S
O103 Eu91 2.355 . S
O104 Eu81 2.394 . S
O104 C89 1.251 . S
O105 C89 1.251 . S
O105 Eu91 2.374 . S
O106 C90 1.257 . S
O106 Eu91 2.473 . S
O107 C90 1.260 . S
O107 Eu91 2.480 . S
O108 Eu91 2.430 . S
O108 C98 1.259 . S
O109 Eu81 2.355 . S
O109 Eu91 2.670 . S
O109 C98 1.270 . S
O110 Eu91 2.394 . S
O110 C99 1.251 . S
O111 Eu81 2.374 . S
O111 C99 1.251 . S
H112 C83 0.931 . S
H113 C84 0.931 . S
H114 C86 0.931 . S
H115 C87 0.931 . S
H116 C93 0.931 . S
H117 C94 0.931 . S
H118 C96 0.931 . S
H119 C97 0.931 . S
C120 C121 1.386 . S
C120 C122 1.397 . S
C120 H144 0.931 . S
C121 C120 1.386 . S
C121 C125 1.397 . S
C122 C120 1.397 . S
C122 C123 1.384 . S
C122 H145 0.930 . S
C123 C122 1.384 . S
C123 C124 1.377 . S
C123 C126 1.481 . S
C124 C123 1.377 . S
C124 C125 1.389 . S
C124 H146 0.929 1_545 S
C125 C121 1.397 . S
C125 C124 1.389 . S
C125 H147 0.931 1_545 S
C126 C123 1.481 . S
C126 C127 1.387 . S
C126 C131 1.390 . S
C127 C126 1.387 . S
C127 C128 1.401 . S
C127 H148 0.930 . S
C128 C127 1.401 . S
C128 C129 1.376 . S
C128 C137 1.511 . S
C129 C128 1.376 . S
C129 C130 1.392 . S
C129 H150 0.931 . S
C130 C129 1.392 . S
C130 C131 1.361 . S
C130 C132 1.500 1_545 S
C131 C126 1.390 . S
C131 C130 1.361 . S
C131 H149 0.933 . S
C132 C130 1.500 1_565 S
C132 C133 1.371 . S
C132 C134 1.365 . S
C133 C132 1.371 . S
C133 C143 1.386 . S
C133 H151 0.931 1_565 S
C134 C132 1.365 . S
C134 C135 1.409 . S
C134 H152 0.929 . S
C135 C134 1.409 . S
C135 C136 1.380 . S
C135 H153 0.930 . S
C136 C135 1.380 . S
C136 C143 1.357 . S
C137 C128 1.511 . S
C137 C138 1.341 . S
C137 C139 1.371 . S
C138 C137 1.341 . S
C138 C142 1.394 . S
C138 H154 0.930 . S
C139 C137 1.371 . S
C139 C140 1.392 . S
C139 H155 0.931 . S
C140 C139 1.392 . S
C140 C141 1.331 . S
C140 H158 0.932 . S
C141 C140 1.331 . S
C141 C142 1.336 . S
C142 C138 1.394 . S
C142 C141 1.336 . S
C142 H157 0.929 . S
C143 C133 1.386 . S
C143 C136 1.357 . S
C143 H156 0.928 . S
H144 C120 0.931 . S
H145 C122 0.930 . S
H146 C124 0.929 1_565 S
H147 C125 0.931 1_565 S
H148 C127 0.930 . S
H149 C131 0.933 . S
H150 C129 0.931 . S
H151 C133 0.931 1_545 S
H152 C134 0.929 . S
H153 C135 0.930 . S
H154 C138 0.930 . S
H155 C139 0.931 . S
H156 C143 0.928 . S
H157 C142 0.929 . S
H158 C140 0.932 . S
C159 C160 1.386 . S
C159 C161 1.397 . S
C159 H183 0.931 . S
C160 C159 1.386 . S
C160 C164 1.397 . S
C161 C159 1.397 . S
C161 C162 1.384 . S
C161 H184 0.930 . S
C162 C161 1.384 . S
C162 C163 1.377 . S
C162 C165 1.481 . S
C163 C162 1.377 . S
C163 C164 1.389 . S
C163 H185 0.929 . S
C164 C160 1.397 . S
C164 C163 1.389 . S
C164 H186 0.931 . S
C165 C162 1.481 . S
C165 C166 1.387 . S
C165 C170 1.390 . S
C166 C165 1.387 . S
C166 C167 1.401 . S
C166 H187 0.930 . S
C167 C166 1.401 . S
C167 C168 1.376 . S
C167 C176 1.511 . S
C168 C167 1.376 . S
C168 C169 1.392 . S
C168 H189 0.931 . S
C169 C168 1.392 . S
C169 C170 1.361 . S
C169 C171 1.500 . S
C170 C165 1.390 . S
C170 C169 1.361 . S
C170 H188 0.931 . S
C171 C169 1.500 . S
C171 C172 1.371 . S
C171 C173 1.365 . S
C172 C171 1.371 . S
C172 C182 1.386 . S
C172 H190 0.931 . S
C173 C171 1.365 . S
C173 C174 1.409 . S
C173 H191 0.929 . S
C174 C173 1.409 . S
C174 C175 1.380 . S
C174 H192 0.930 . S
C175 C174 1.380 . S
C175 C182 1.357 . S
C176 C167 1.511 . S
C176 C177 1.341 . S
C176 C178 1.371 . S
C177 C176 1.341 . S
C177 C181 1.394 . S
C177 H193 0.930 . S
C178 C176 1.371 . S
C178 C179 1.392 . S
C178 H194 0.931 . S
C179 C178 1.392 . S
C179 C180 1.331 . S
C179 H197 0.932 . S
C180 C179 1.331 . S
C180 C181 1.336 . S
C181 C177 1.394 . S
C181 C180 1.336 . S
C181 H196 0.929 . S
C182 C172 1.386 . S
C182 C175 1.357 . S
C182 H195 0.928 . S
H183 C159 0.931 . S
H184 C161 0.930 . S
H185 C163 0.929 . S
H186 C164 0.931 . S
H187 C166 0.930 . S
H188 C170 0.931 . S
H189 C168 0.931 . S
H190 C172 0.931 . S
H191 C173 0.929 . S
H192 C174 0.930 . S
H193 C177 0.930 . S
H194 C178 0.931 . S
H195 C182 0.928 . S
H196 C181 0.929 . S
H197 C179 0.932 . S
C198 C199 1.386 1_556 S
C198 C200 1.397 . S
C198 H222 0.931 1_556 S
C199 C198 1.386 1_554 S
C199 C203 1.397 1_454 S
C200 C198 1.397 . S
C200 C201 1.384 . S
C200 H223 0.930 . S
C201 C200 1.384 . S
C201 C202 1.377 1_455 S
C201 C204 1.481 . S
C202 C201 1.377 1_655 S
C202 C203 1.389 . S
C202 H224 0.929 . S
C203 C199 1.397 1_656 S
C203 C202 1.389 . S
C203 H225 0.931 1_556 S
C204 C201 1.481 . S
C204 C205 1.387 . S
C204 C209 1.390 1_455 S
C205 C204 1.387 . S
C205 C206 1.401 . S
C205 H226 0.930 . S
C206 C205 1.401 . S
C206 C207 1.376 . S
C206 C215 1.511 . S
C207 C206 1.376 . S
C207 C208 1.392 1_455 S
C207 H228 0.931 . S
C208 C207 1.392 1_655 S
C208 C209 1.361 . S
C208 C210 1.500 . S
C209 C204 1.390 1_655 S
C209 C208 1.361 . S
C209 H227 0.931 . S
C210 C208 1.500 . S
C210 C211 1.371 . S
C210 C212 1.365 . S
C211 C210 1.371 . S
C211 C221 1.386 . S
C211 H229 0.931 . S
C212 C210 1.365 . S
C212 C213 1.409 . S
C212 H230 0.929 . S
C213 C212 1.409 . S
C213 C214 1.380 . S
C213 H231 0.930 . S
C214 C213 1.380 . S
C214 C221 1.357 . S
C215 C206 1.511 . S
C215 C216 1.341 . S
C215 C217 1.371 . S
C216 C215 1.341 . S
C216 C220 1.394 . S
C216 H232 0.930 . S
C217 C215 1.371 . S
C217 C218 1.392 . S
C217 H233 0.931 . S
C218 C217 1.392 . S
C218 C219 1.331 . S
C218 H236 0.932 . S
C219 C218 1.331 . S
C219 C220 1.336 . S
C220 C216 1.394 . S
C220 C219 1.336 . S
C220 H235 0.929 . S
C221 C211 1.386 . S
C221 C214 1.357 . S
C221 H234 0.928 . S
H222 C198 0.931 1_554 S
H223 C200 0.930 . S
H224 C202 0.929 . S
H225 C203 0.931 1_554 S
H226 C205 0.930 . S
H227 C209 0.931 . S
H228 C207 0.931 . S
H229 C211 0.931 . S
H230 C212 0.929 . S
H231 C213 0.930 . S
H232 C216 0.930 . S
H233 C217 0.931 . S
H234 C221 0.928 . S
H235 C220 0.929 . S
H236 C218 0.932 . S
C237 C238 1.386 . S
C237 C239 1.397 . S
C237 H261 0.931 1_455 S
C238 C237 1.386 . S
C238 C242 1.397 . S
C239 C237 1.397 . S
C239 C240 1.384 . S
C239 H262 0.930 1_455 S
C240 C239 1.384 . S
C240 C241 1.377 . S
C240 C243 1.481 . S
C241 C240 1.377 . S
C241 C242 1.389 . S
C241 H263 0.929 . S
C242 C238 1.397 . S
C242 C241 1.389 . S
C242 H264 0.931 . S
C243 C240 1.481 . S
C243 C244 1.387 . S
C243 C248 1.390 . S
C244 C243 1.387 . S
C244 C245 1.401 . S
C244 H265 0.930 1_455 S
C245 C244 1.401 . S
C245 C246 1.376 . S
C245 C254 1.511 1_455 S
C246 C245 1.376 . S
C246 C247 1.392 . S
C246 H267 0.931 . S
C247 C246 1.392 . S
C247 C248 1.361 . S
C247 C249 1.500 . S
C248 C243 1.390 . S
C248 C247 1.361 . S
C248 H266 0.931 . S
C249 C247 1.500 . S
C249 C250 1.371 . S
C249 C251 1.365 . S
C250 C249 1.371 . S
C250 C260 1.386 . S
C250 H268 0.931 . S
C251 C249 1.365 . S
C251 C252 1.409 . S
C251 H269 0.929 . S
C252 C251 1.409 . S
C252 C253 1.380 . S
C252 H270 0.930 . S
C253 C252 1.380 . S
C253 C260 1.357 . S
C254 C245 1.511 1_655 S
C254 C255 1.341 . S
C254 C256 1.371 . S
C255 C254 1.341 . S
C255 C259 1.394 . S
C255 H271 0.930 . S
C256 C254 1.371 . S
C256 C257 1.392 . S
C256 H272 0.931 1_655 S
C257 C256 1.392 . S
C257 C258 1.331 . S
C257 H275 0.932 . S
C258 C257 1.331 . S
C258 C259 1.336 . S
C259 C255 1.394 . S
C259 C258 1.336 . S
C259 H274 0.929 . S
C260 C250 1.386 . S
C260 C253 1.357 . S
C260 H273 0.928 . S
H261 C237 0.931 1_655 S
H262 C239 0.930 1_655 S
H263 C241 0.929 . S
H264 C242 0.931 . S
H265 C244 0.930 1_655 S
H266 C248 0.931 . S
H267 C246 0.931 . S
H268 C250 0.931 . S
H269 C251 0.929 . S
H270 C252 0.930 . S
H271 C255 0.930 . S
H272 C256 0.931 1_455 S
H273 C260 0.928 . S
H274 C259 0.929 . S
H275 C257 0.932 . S
C276 C277 1.386 1_565 S
C276 C278 1.397 . S
C276 H300 0.931 . S
C277 C276 1.386 1_545 S
C277 C281 1.397 . S
C278 C276 1.397 . S
C278 C279 1.384 1_565 S
C278 H301 0.930 . S
C279 C278 1.384 1_545 S
C279 C280 1.377 . S
C279 C282 1.481 . S
C280 C279 1.377 . S
C280 C281 1.389 . S
C280 H302 0.929 . S
C281 C277 1.397 . S
C281 C280 1.389 . S
C281 H303 0.931 . S
C282 C279 1.481 . S
C282 C283 1.387 1_545 S
C282 C287 1.390 . S
C283 C282 1.387 1_565 S
C283 C284 1.401 . S
C283 H304 0.930 . S
C284 C283 1.401 . S
C284 C285 1.376 1_565 S
C284 C293 1.511 . S
C285 C284 1.376 1_545 S
C285 C286 1.392 . S
C285 H306 0.931 . S
C286 C285 1.392 . S
C286 C287 1.361 . S
C286 C288 1.500 . S
C287 C282 1.390 . S
C287 C286 1.361 . S
C287 H305 0.931 . S
C288 C286 1.500 . S
C288 C289 1.371 . S
C288 C290 1.365 . S
C289 C288 1.371 . S
C289 C299 1.386 . S
C289 H307 0.931 . S
C290 C288 1.365 . S
C290 C291 1.409 . S
C290 H308 0.929 . S
C291 C290 1.409 . S
C291 C292 1.380 . S
C291 H309 0.930 . S
C292 C291 1.380 . S
C292 C299 1.357 . S
C293 C284 1.511 . S
C293 C294 1.341 . S
C293 C295 1.371 . S
C294 C293 1.341 . S
C294 C298 1.394 . S
C294 H310 0.930 . S
C295 C293 1.371 . S
C295 C296 1.392 . S
C295 H311 0.931 . S
C296 C295 1.392 . S
C296 C297 1.331 . S
C296 H314 0.932 . S
C297 C296 1.331 . S
C297 C298 1.336 . S
C298 C294 1.394 . S
C298 C297 1.336 . S
C298 H313 0.929 . S
C299 C289 1.386 . S
C299 C292 1.357 . S
C299 H312 0.928 . S
H300 C276 0.931 . S
H301 C278 0.930 . S
H302 C280 0.929 . S
H303 C281 0.931 . S
H304 C283 0.930 . S
H305 C287 0.931 . S
H306 C285 0.931 . S
H307 C289 0.931 . S
H308 C290 0.929 . S
H309 C291 0.930 . S
H310 C294 0.930 . S
H311 C295 0.931 . S
H312 C299 0.928 . S
H313 C298 0.929 . S
H314 C296 0.932 . S
C315 C316 1.386 . S
C315 C317 1.397 . S
C315 H339 0.931 . S
C316 C315 1.386 . S
C316 C320 1.397 . S
C317 C315 1.397 . S
C317 C318 1.384 . S
C317 H340 0.930 . S
C318 C317 1.384 . S
C318 C319 1.377 . S
C318 C321 1.481 . S
C319 C318 1.377 . S
C319 C320 1.389 . S
C319 H341 0.929 . S
C320 C316 1.397 . S
C320 C319 1.389 . S
C320 H342 0.931 . S
C321 C318 1.481 . S
C321 C322 1.387 . S
C321 C326 1.390 . S
C322 C321 1.387 . S
C322 C323 1.401 . S
C322 H343 0.930 . S
C323 C322 1.401 . S
C323 C324 1.376 . S
C323 C332 1.511 . S
C324 C323 1.376 . S
C324 C325 1.392 . S
C324 H345 0.931 . S
C325 C324 1.392 . S
C325 C326 1.361 . S
C325 C327 1.500 . S
C326 C321 1.390 . S
C326 C325 1.361 . S
C326 H344 0.931 . S
C327 C325 1.500 . S
C327 C328 1.371 . S
C327 C329 1.365 . S
C328 C327 1.371 . S
C328 C338 1.386 . S
C328 H346 0.931 . S
C329 C327 1.365 . S
C329 C330 1.409 . S
C329 H347 0.929 . S
C330 C329 1.409 . S
C330 C331 1.380 . S
C330 H348 0.930 . S
C331 C330 1.380 . S
C331 C338 1.357 . S
C332 C323 1.511 . S
C332 C333 1.341 . S
C332 C334 1.371 . S
C333 C332 1.341 . S
C333 C337 1.394 . S
C333 H349 0.930 . S
C334 C332 1.371 . S
C334 C335 1.392 . S
C334 H350 0.931 . S
C335 C334 1.392 . S
C335 C336 1.331 . S
C335 H353 0.932 . S
C336 C335 1.331 . S
C336 C337 1.336 . S
C337 C333 1.394 . S
C337 C336 1.336 . S
C337 H352 0.929 . S
C338 C328 1.386 . S
C338 C331 1.357 . S
C338 H351 0.928 . S
H339 C315 0.931 . S
H340 C317 0.930 . S
H341 C319 0.929 . S
H342 C320 0.931 . S
H343 C322 0.930 . S
H344 C326 0.931 . S
H345 C324 0.931 . S
H346 C328 0.931 . S
H347 C329 0.929 . S
H348 C330 0.930 . S
H349 C333 0.930 . S
H350 C334 0.931 . S
H351 C338 0.928 . S
H352 C337 0.929 . S
H353 C335 0.932 . S
H354 C360 0.930 . S
H355 C363 0.930 . S
H356 C364 0.930 . S
H357 C365 0.930 . S
H358 C368 0.930 . S
H359 C369 0.930 . S
C360 H354 0.930 . S
C360 C361 1.355 . S
C360 C362 1.415 . S
C361 C360 1.355 . S
C361 C363 1.419 . S
C362 C360 1.415 . S
C362 C367 1.425 . S
C362 C369 1.409 . S
C363 H355 0.930 . S
C363 C361 1.419 . S
C363 C364 1.362 . S
C364 H356 0.930 . S
C364 C363 1.362 . S
C364 C367 1.409 . S
C365 H357 0.930 . S
C365 C366 1.355 . S
C365 C367 1.415 . S
C366 C365 1.355 . S
C366 C368 1.419 . S
C367 C362 1.425 . S
C367 C364 1.409 . S
C367 C365 1.415 . S
C368 H358 0.930 . S
C368 C366 1.419 . S
C368 C369 1.362 . S
C369 H359 0.930 . S
C369 C362 1.409 . S
C369 C368 1.362 . S
H370 C376 0.930 . S
H371 C379 0.930 . S
H372 C380 0.930 . S
H373 C381 0.930 . S
H374 C384 0.930 . S
H375 C385 0.930 . S
C376 H370 0.930 . S
C376 C377 1.355 . S
C376 C378 1.415 . S
C377 C376 1.355 . S
C377 C379 1.419 . S
C378 C376 1.415 . S
C378 C383 1.425 . S
C378 C385 1.409 . S
C379 H371 0.930 . S
C379 C377 1.419 . S
C379 C380 1.362 . S
C380 H372 0.930 . S
C380 C379 1.362 . S
C380 C383 1.409 . S
C381 H373 0.930 . S
C381 C382 1.355 . S
C381 C383 1.415 . S
C382 C381 1.355 . S
C382 C384 1.419 . S
C383 C378 1.425 . S
C383 C380 1.409 . S
C383 C381 1.415 . S
C384 H374 0.930 . S
C384 C382 1.419 . S
C384 C385 1.362 . S
C385 H375 0.930 . S
C385 C378 1.409 . S
C385 C384 1.362 . S
H386 C392 0.930 . S
H387 C395 0.930 . S
H388 C396 0.930 . S
H389 C397 0.930 . S
H390 C400 0.930 . S
H391 C401 0.930 . S
C392 H386 0.930 . S
C392 C393 1.355 . S
C392 C394 1.415 . S
C393 C392 1.355 . S
C393 C395 1.419 . S
C394 C392 1.415 . S
C394 C399 1.425 . S
C394 C401 1.409 . S
C395 H387 0.930 . S
C395 C393 1.419 . S
C395 C396 1.362 . S
C396 H388 0.930 . S
C396 C395 1.362 . S
C396 C399 1.409 . S
C397 H389 0.930 . S
C397 C398 1.355 . S
C397 C399 1.415 . S
C398 C397 1.355 . S
C398 C400 1.419 . S
C399 C394 1.425 . S
C399 C396 1.409 . S
C399 C397 1.415 . S
C400 H390 0.930 . S
C400 C398 1.419 . S
C400 C401 1.362 . S
C401 H391 0.930 . S
C401 C394 1.409 . S
C401 C400 1.362 . S
H402 C408 0.930 . S
H403 C411 0.930 . S
H404 C412 0.930 . S
H405 C413 0.930 . S
H406 C416 0.930 . S
H407 C417 0.930 . S
C408 H402 0.930 . S
C408 C409 1.355 . S
C408 C410 1.415 . S
C409 C408 1.355 . S
C409 C411 1.419 . S
C410 C408 1.415 . S
C410 C415 1.425 . S
C410 C417 1.409 . S
C411 H403 0.930 . S
C411 C409 1.419 . S
C411 C412 1.362 . S
C412 H404 0.930 . S
C412 C411 1.362 . S
C412 C415 1.409 . S
C413 H405 0.930 . S
C413 C414 1.355 . S
C413 C415 1.415 . S
C414 C413 1.355 . S
C414 C416 1.419 . S
C415 C410 1.425 . S
C415 C412 1.409 . S
C415 C413 1.415 . S
C416 H406 0.930 . S
C416 C414 1.419 . S
C416 C417 1.362 . S
C417 H407 0.930 . S
C417 C410 1.409 . S
C417 C416 1.362 . S
H418 C424 0.930 . S
H419 C427 0.930 . S
H420 C428 0.930 . S
H421 C429 0.930 . S
H422 C432 0.930 . S
H423 C433 0.930 . S
C424 H418 0.930 . S
C424 C425 1.355 . S
C424 C426 1.415 . S
C425 C424 1.355 . S
C425 C427 1.419 . S
C426 C424 1.415 . S
C426 C431 1.425 . S
C426 C433 1.409 . S
C427 H419 0.930 . S
C427 C425 1.419 . S
C427 C428 1.362 . S
C428 H420 0.930 . S
C428 C427 1.362 . S
C428 C431 1.409 . S
C429 H421 0.930 . S
C429 C430 1.355 . S
C429 C431 1.415 . S
C430 C429 1.355 . S
C430 C432 1.419 . S
C431 C426 1.425 . S
C431 C428 1.409 . S
C431 C429 1.415 . S
C432 H422 0.930 . S
C432 C430 1.419 . S
C432 C433 1.362 . S
C433 H423 0.930 . S
C433 C426 1.409 . S
C433 C432 1.362 . S
H434 C440 0.930 . S
H435 C443 0.930 . S
H436 C444 0.930 . S
H437 C445 0.930 . S
H438 C448 0.930 . S
H439 C449 0.930 . S
C440 H434 0.930 . S
C440 C441 1.355 . S
C440 C442 1.415 . S
C441 C440 1.355 . S
C441 C443 1.419 . S
C442 C440 1.415 . S
C442 C447 1.425 . S
C442 C449 1.409 . S
C443 H435 0.930 . S
C443 C441 1.419 . S
C443 C444 1.362 . S
C444 H436 0.930 . S
C444 C443 1.362 . S
C444 C447 1.409 . S
C445 H437 0.930 . S
C445 C446 1.355 . S
C445 C447 1.415 . S
C446 C445 1.355 . S
C446 C448 1.419 . S
C447 C442 1.425 . S
C447 C444 1.409 . S
C447 C445 1.415 . S
C448 H438 0.930 . S
C448 C446 1.419 . S
C448 C449 1.362 . S
C449 H439 0.930 . S
C449 C442 1.409 . S
C449 C448 1.362 . S
H450 C456 0.930 . S
H451 C459 0.930 . S
H452 C460 0.930 . S
H453 C461 0.930 . S
H454 C464 0.930 . S
H455 C465 0.930 . S
C456 H450 0.930 . S
C456 C457 1.355 . S
C456 C458 1.415 . S
C457 C456 1.355 . S
C457 C459 1.419 . S
C458 C456 1.415 . S
C458 C463 1.425 . S
C458 C465 1.409 . S
C459 H451 0.930 . S
C459 C457 1.419 . S
C459 C460 1.362 . S
C460 H452 0.930 . S
C460 C459 1.362 . S
C460 C463 1.409 . S
C461 H453 0.930 . S
C461 C462 1.355 . S
C461 C463 1.415 . S
C462 C461 1.355 . S
C462 C464 1.419 . S
C463 C458 1.425 . S
C463 C460 1.409 . S
C463 C461 1.415 . S
C464 H454 0.930 . S
C464 C462 1.419 . S
C464 C465 1.362 . S
C465 H455 0.930 . S
C465 C458 1.409 . S
C465 C464 1.362 . S
H466 C472 0.930 . S
H467 C475 0.930 . S
H468 C476 0.930 . S
H469 C477 0.930 . S
H470 C480 0.930 . S
H471 C481 0.930 . S
C472 H466 0.930 . S
C472 C473 1.355 . S
C472 C474 1.415 . S
C473 C472 1.355 . S
C473 C475 1.419 . S
C474 C472 1.415 . S
C474 C479 1.425 . S
C474 C481 1.409 . S
C475 H467 0.930 . S
C475 C473 1.419 . S
C475 C476 1.362 . S
C476 H468 0.930 . S
C476 C475 1.362 . S
C476 C479 1.409 . S
C477 H469 0.930 . S
C477 C478 1.355 . S
C477 C479 1.415 . S
C478 C477 1.355 . S
C478 C480 1.419 . S
C479 C474 1.425 . S
C479 C476 1.409 . S
C479 C477 1.415 . S
C480 H470 0.930 . S
C480 C478 1.419 . S
C480 C481 1.362 . S
C481 H471 0.930 . S
C481 C474 1.409 . S
C481 C480 1.362 . S
H482 C488 0.930 . S
H483 C491 0.930 . S
H484 C492 0.930 . S
H485 C493 0.930 . S
H486 C496 0.930 . S
H487 C497 0.930 . S
C488 H482 0.930 . S
C488 C489 1.355 . S
C488 C490 1.415 . S
C489 C488 1.355 . S
C489 C491 1.419 . S
C490 C488 1.415 . S
C490 C495 1.425 . S
C490 C497 1.409 . S
C491 H483 0.930 . S
C491 C489 1.419 . S
C491 C492 1.362 . S
C492 H484 0.930 . S
C492 C491 1.362 . S
C492 C495 1.409 . S
C493 H485 0.930 . S
C493 C494 1.355 . S
C493 C495 1.415 . S
C494 C493 1.355 . S
C494 C496 1.419 . S
C495 C490 1.425 . S
C495 C492 1.409 . S
C495 C493 1.415 . S
C496 H486 0.930 . S
C496 C494 1.419 . S
C496 C497 1.362 . S
C497 H487 0.930 . S
C497 C490 1.409 . S
C497 C496 1.362 . S
H498 C504 0.930 . S
H499 C507 0.930 . S
H500 C508 0.930 . S
H501 C509 0.930 . S
H502 C512 0.930 . S
H503 C513 0.930 . S
C504 H498 0.930 . S
C504 C505 1.355 . S
C504 C506 1.415 . S
C505 C504 1.355 . S
C505 C507 1.419 . S
C506 C504 1.415 . S
C506 C511 1.425 . S
C506 C513 1.409 . S
C507 H499 0.930 . S
C507 C505 1.419 . S
C507 C508 1.362 . S
C508 H500 0.930 . S
C508 C507 1.362 . S
C508 C511 1.409 . S
C509 H501 0.930 . S
C509 C510 1.355 . S
C509 C511 1.415 . S
C510 C509 1.355 . S
C510 C512 1.419 . S
C511 C506 1.425 . S
C511 C508 1.409 . S
C511 C509 1.415 . S
C512 H502 0.930 . S
C512 C510 1.419 . S
C512 C513 1.362 . S
C513 H503 0.930 . S
C513 C506 1.409 . S
C513 C512 1.362 . S
H514 C520 0.930 . S
H515 C523 0.930 . S
H516 C524 0.930 . S
H517 C525 0.930 . S
H518 C528 0.930 . S
H519 C529 0.930 . S
C520 H514 0.930 . S
C520 C521 1.355 . S
C520 C522 1.415 . S
C521 C520 1.355 . S
C521 C523 1.419 . S
C522 C520 1.415 . S
C522 C527 1.425 . S
C522 C529 1.409 . S
C523 H515 0.930 . S
C523 C521 1.419 . S
C523 C524 1.362 . S
C524 H516 0.930 . S
C524 C523 1.362 . S
C524 C527 1.409 . S
C525 H517 0.930 . S
C525 C526 1.355 . S
C525 C527 1.415 . S
C526 C525 1.355 . S
C526 C528 1.419 . S
C527 C522 1.425 . S
C527 C524 1.409 . S
C527 C525 1.415 . S
C528 H518 0.930 . S
C528 C526 1.419 . S
C528 C529 1.362 . S
C529 H519 0.930 . S
C529 C522 1.409 . S
C529 C528 1.362 . S
H530 C536 0.930 . S
H531 C539 0.930 . S
H532 C540 0.930 . S
H533 C541 0.930 . S
H534 C544 0.930 . S
H535 C545 0.930 . S
C536 H530 0.930 . S
C536 C537 1.355 . S
C536 C538 1.415 . S
C537 C536 1.355 . S
C537 C539 1.419 . S
C538 C536 1.415 . S
C538 C543 1.425 . S
C538 C545 1.409 . S
C539 H531 0.930 . S
C539 C537 1.419 . S
C539 C540 1.362 . S
C540 H532 0.930 . S
C540 C539 1.362 . S
C540 C543 1.409 . S
C541 H533 0.930 . S
C541 C542 1.355 . S
C541 C543 1.415 . S
C542 C541 1.355 . S
C542 C544 1.419 . S
C543 C538 1.425 . S
C543 C540 1.409 . S
C543 C541 1.415 . S
C544 H534 0.930 . S
C544 C542 1.419 . S
C544 C545 1.362 . S
C545 H535 0.930 . S
C545 C538 1.409 . S
C545 C544 1.362 . S
H546 C552 0.930 . S
H547 C555 0.930 . S
H548 C556 0.930 . S
H549 C557 0.930 . S
H550 C560 0.930 . S
H551 C561 0.930 . S
C552 H546 0.930 . S
C552 C553 1.355 . S
C552 C554 1.415 . S
C553 C552 1.355 . S
C553 C555 1.419 1_455 S
C554 C552 1.415 . S
C554 C559 1.425 1_455 S
C554 C561 1.409 . S
C555 H547 0.930 . S
C555 C553 1.419 1_655 S
C555 C556 1.362 . S
C556 H548 0.930 . S
C556 C555 1.362 . S
C556 C559 1.409 . S
C557 H549 0.930 . S
C557 C558 1.355 1_655 S
C557 C559 1.415 . S
C558 C557 1.355 1_455 S
C558 C560 1.419 . S
C559 C554 1.425 1_655 S
C559 C556 1.409 . S
C559 C557 1.415 . S
C560 H550 0.930 . S
C560 C558 1.419 . S
C560 C561 1.362 . S
C561 H551 0.930 . S
C561 C554 1.409 . S
C561 C560 1.362 . S
H562 C568 0.930 1_565 S
H563 C571 0.930 . S
H564 C572 0.930 . S
H565 C573 0.930 . S
H566 C576 0.930 1_565 S
H567 C577 0.930 . S
C568 H562 0.930 1_545 S
C568 C569 1.355 . S
C568 C570 1.415 . S
C569 C568 1.355 . S
C569 C571 1.419 . S
C570 C568 1.415 . S
C570 C575 1.425 . S
C570 C577 1.409 1_545 S
C571 H563 0.930 . S
C571 C569 1.419 . S
C571 C572 1.362 . S
C572 H564 0.930 . S
C572 C571 1.362 . S
C572 C575 1.409 . S
C573 H565 0.930 . S
C573 C574 1.355 . S
C573 C575 1.415 . S
C574 C573 1.355 . S
C574 C576 1.419 . S
C575 C570 1.425 . S
C575 C572 1.409 . S
C575 C573 1.415 . S
C576 H566 0.930 1_545 S
C576 C574 1.419 . S
C576 C577 1.362 1_545 S
C577 H567 0.930 . S
C577 C570 1.409 1_565 S
C577 C576 1.362 1_565 S
H578 C584 0.930 . S
H579 C587 0.930 . S
H580 C588 0.930 . S
H581 C589 0.930 . S
H582 C592 0.930 . S
H583 C593 0.930 . S
C584 H578 0.930 . S
C584 C585 1.355 . S
C584 C586 1.415 . S
C585 C584 1.355 . S
C585 C587 1.419 . S
C586 C584 1.415 . S
C586 C591 1.425 . S
C586 C593 1.409 . S
C587 H579 0.930 . S
C587 C585 1.419 . S
C587 C588 1.362 . S
C588 H580 0.930 . S
C588 C587 1.362 . S
C588 C591 1.409 . S
C589 H581 0.930 . S
C589 C590 1.355 . S
C589 C591 1.415 . S
C590 C589 1.355 . S
C590 C592 1.419 . S
C591 C586 1.425 . S
C591 C588 1.409 . S
C591 C589 1.415 . S
C592 H582 0.930 . S
C592 C590 1.419 . S
C592 C593 1.362 . S
C593 H583 0.930 . S
C593 C586 1.409 . S
C593 C592 1.362 . S
H594 C600 0.930 . S
H595 C603 0.930 . S
H596 C604 0.930 . S
H597 C605 0.930 . S
H598 C608 0.930 . S
H599 C609 0.930 . S
C600 H594 0.930 . S
C600 C601 1.355 . S
C600 C602 1.415 . S
C601 C600 1.355 . S
C601 C603 1.419 1_545 S
C602 C600 1.415 . S
C602 C607 1.425 1_545 S
C602 C609 1.409 . S
C603 H595 0.930 . S
C603 C601 1.419 1_565 S
C603 C604 1.362 . S
C604 H596 0.930 . S
C604 C603 1.362 . S
C604 C607 1.409 . S
C605 H597 0.930 . S
C605 C606 1.355 1_565 S
C605 C607 1.415 . S
C606 C605 1.355 1_545 S
C606 C608 1.419 . S
C607 C602 1.425 1_565 S
C607 C604 1.409 . S
C607 C605 1.415 . S
C608 H598 0.930 . S
C608 C606 1.419 . S
C608 C609 1.362 . S
C609 H599 0.930 . S
C609 C602 1.409 . S
C609 C608 1.362 . S
H610 C616 0.930 . S
H611 C619 0.930 . S
H612 C620 0.930 . S
H613 C621 0.930 . S
H614 C624 0.930 . S
H615 C625 0.930 . S
C616 H610 0.930 . S
C616 C617 1.355 . S
C616 C618 1.415 . S
C617 C616 1.355 . S
C617 C619 1.419 . S
C618 C616 1.415 . S
C618 C623 1.425 . S
C618 C625 1.409 . S
C619 H611 0.930 . S
C619 C617 1.419 . S
C619 C620 1.362 . S
C620 H612 0.930 . S
C620 C619 1.362 . S
C620 C623 1.409 . S
C621 H613 0.930 . S
C621 C622 1.355 . S
C621 C623 1.415 . S
C622 C621 1.355 . S
C622 C624 1.419 . S
C623 C618 1.425 . S
C623 C620 1.409 . S
C623 C621 1.415 . S
C624 H614 0.930 . S
C624 C622 1.419 . S
C624 C625 1.362 . S
C625 H615 0.930 . S
C625 C618 1.409 . S
C625 C624 1.362 . S
H626 C632 0.930 . S
H627 C635 0.930 . S
H628 C636 0.930 . S
H629 C637 0.930 . S
H630 C640 0.930 . S
H631 C641 0.930 . S
C632 H626 0.930 . S
C632 C633 1.355 . S
C632 C634 1.415 . S
C633 C632 1.355 . S
C633 C635 1.419 . S
C634 C632 1.415 . S
C634 C639 1.425 . S
C634 C641 1.409 . S
C635 H627 0.930 . S
C635 C633 1.419 . S
C635 C636 1.362 . S
C636 H628 0.930 . S
C636 C635 1.362 . S
C636 C639 1.409 . S
C637 H629 0.930 . S
C637 C638 1.355 . S
C637 C639 1.415 . S
C638 C637 1.355 . S
C638 C640 1.419 . S
C639 C634 1.425 . S
C639 C636 1.409 . S
C639 C637 1.415 . S
C640 H630 0.930 . S
C640 C638 1.419 . S
C640 C641 1.362 . S
C641 H631 0.930 . S
C641 C634 1.409 . S
C641 C640 1.362 . S
C361 C19 3.031 . S
C366 C331 3.003 . S
C377 C49 3.112 . S
C382 C258 3.056 . S
C393 C99 3.036 . S
C398 C297 3.002 . S
C409 C9 3.109 . S
C414 C336 3.066 . S
C430 C253 2.987 . S
C425 C59 3.018 . S
C446 C292 3.043 . S
C441 C89 3.107 . S
C457 C55 0.526 . S
C462 C180 0.562 . S
C473 C85 0.613 . S
C478 C214 0.395 . S
C489 C15 0.486 . S
C494 C136 0.390 . S
C510 C175 0.347 . S
C505 C45 0.437 . S
C526 C219 0.476 . S
C521 C95 0.541 . S
C537 C5 0.387 . S
C542 C141 0.400 . S
C558 C199 1.062 . S
C553 C18 1.023 . S
C569 C58 1.037 . S
C574 C121 1.061 . S
C585 C98 1.036 . S
C590 C160 1.067 . S
C606 C277 1.799 . S
C601 C48 1.731 . S
C622 C316 1.804 1_556 S
C617 C88 1.693 . S
C633 C8 1.690 . S
C638 C238 1.799 . S
