# Generated by pormake.
# Topology zzz, (3,6)-cn, num edge types: 1
# Building blocks:
#     Node 0, Type 0, BuildingBlock: VETTIZ_charged_linker_0, # of connection points: 3
#     Node 1, Type 0, BuildingBlock: VETTIZ_charged_linker_0, # of connection points: 3
#     Node 2, Type 0, BuildingBlock: VETTIZ_charged_linker_0, # of connection points: 3
#     Node 3, Type 0, BuildingBlock: VETTIZ_charged_linker_0, # of connection points: 3
#     Node 4, Type 0, BuildingBlock: VETTIZ_charged_linker_0, # of connection points: 3
#     Node 5, Type 0, BuildingBlock: VETTIZ_charged_linker_0, # of connection points: 3
#     Node 6, Type 0, BuildingBlock: VETTIZ_charged_linker_0, # of connection points: 3
#     Node 7, Type 0, BuildingBlock: VETTIZ_charged_linker_0, # of connection points: 3
#     Node 8, Type 1, BuildingBlock: LEVNOQ01_clean_sbu_1, # of connection points: 6
#     Node 9, Type 1, BuildingBlock: LEVNOQ01_clean_sbu_1, # of connection points: 6
#     Node 10, Type 1, BuildingBlock: LEVNOQ01_clean_sbu_1, # of connection points: 6
#     Node 11, Type 1, BuildingBlock: LEVNOQ01_clean_sbu_1, # of connection points: 6
#     Edge 12, Type (0, 1), BuildingBlock: CIFDUS_clean_linker_0, # of connection points: 2
#     Edge 13, Type (0, 1), BuildingBlock: CIFDUS_clean_linker_0, # of connection points: 2
#     Edge 14, Type (0, 1), BuildingBlock: CIFDUS_clean_linker_0, # of connection points: 2
#     Edge 15, Type (0, 1), BuildingBlock: CIFDUS_clean_linker_0, # of connection points: 2
#     Edge 16, Type (0, 1), BuildingBlock: CIFDUS_clean_linker_0, # of connection points: 2
#     Edge 17, Type (0, 1), BuildingBlock: CIFDUS_clean_linker_0, # of connection points: 2
#     Edge 18, Type (0, 1), BuildingBlock: CIFDUS_clean_linker_0, # of connection points: 2
#     Edge 19, Type (0, 1), BuildingBlock: CIFDUS_clean_linker_0, # of connection points: 2
#     Edge 20, Type (0, 1), BuildingBlock: CIFDUS_clean_linker_0, # of connection points: 2
#     Edge 21, Type (0, 1), BuildingBlock: CIFDUS_clean_linker_0, # of connection points: 2
#     Edge 22, Type (0, 1), BuildingBlock: CIFDUS_clean_linker_0, # of connection points: 2
#     Edge 23, Type (0, 1), BuildingBlock: CIFDUS_clean_linker_0, # of connection points: 2
#     Edge 24, Type (0, 1), BuildingBlock: CIFDUS_clean_linker_0, # of connection points: 2
#     Edge 25, Type (0, 1), BuildingBlock: CIFDUS_clean_linker_0, # of connection points: 2
#     Edge 26, Type (0, 1), BuildingBlock: CIFDUS_clean_linker_0, # of connection points: 2
#     Edge 27, Type (0, 1), BuildingBlock: CIFDUS_clean_linker_0, # of connection points: 2
#     Edge 28, Type (0, 1), BuildingBlock: CIFDUS_clean_linker_0, # of connection points: 2
#     Edge 29, Type (0, 1), BuildingBlock: CIFDUS_clean_linker_0, # of connection points: 2
#     Edge 30, Type (0, 1), BuildingBlock: CIFDUS_clean_linker_0, # of connection points: 2
#     Edge 31, Type (0, 1), BuildingBlock: CIFDUS_clean_linker_0, # of connection points: 2
#     Edge 32, Type (0, 1), BuildingBlock: CIFDUS_clean_linker_0, # of connection points: 2
#     Edge 33, Type (0, 1), BuildingBlock: CIFDUS_clean_linker_0, # of connection points: 2
#     Edge 34, Type (0, 1), BuildingBlock: CIFDUS_clean_linker_0, # of connection points: 2
#     Edge 35, Type (0, 1), BuildingBlock: CIFDUS_clean_linker_0, # of connection points: 2
# Relax obj value: 0.313
# Max RMSD: 0.220
# Mean RMSD: 0.209
data_MOF--net-zzz--node1-LEVNOQ01_clean_sbu_1--node2-VETTIZ_charged_linker_0--edge1-CIFDUS_clean_linker_0
_symmetry_space_group_name_H-M    P1
_symmetry_Int_Tables_number       1
_symmetry_cell_setting            triclinic
loop_
_symmetry_equiv_pos_as_xyz
'x, y, z'
_cell_length_a     48.339428
_cell_length_b     52.2033
_cell_length_c     18.668667
_cell_angle_alpha  89.726646
_cell_angle_beta   90.075602
_cell_angle_gamma 87.876132
loop_
_atom_site_label
_atom_site_type_symbol
_atom_site_fract_x
_atom_site_fract_y
_atom_site_fract_z
_atom_type_partial_charge
C0 C 0.80963 0.57658 0.37366 0.0
C1 C 0.83683 0.58297 0.39414 0.0
C2 C 0.8512 0.60034 0.35164 0.0
C3 C 0.81482 0.60032 0.26299 0.0
C4 C 0.79862 0.58633 0.30809 0.0
C5 C 0.77001 0.58323 0.27538 0.0
H6 H 0.68805 0.60696 0.97938 0.0
C7 C 0.80038 0.60423 0.19452 0.0
C8 C 0.77326 0.59574 0.20137 0.0
H9 H 0.66477 0.56498 0.16987 0.0
H10 H 0.7089 0.57374 0.22297 0.0
H11 H 0.73113 0.64918 0.03261 0.0
H12 H 0.73311 0.57146 0.96444 0.0
H13 H 0.76808 0.57871 0.95922 0.0
H14 H 0.74277 0.59605 0.90421 0.0
H15 H 0.72345 0.63711 0.94496 0.0
H16 H 0.75833 0.64403 0.96987 0.0
C17 C 0.74861 0.59815 0.32167 0.0
C18 C 0.76444 0.55443 0.26989 0.0
C19 C 0.85882 0.60274 0.97398 0.0
C20 C 0.85197 0.598 0.90201 0.0
C21 C 0.82492 0.60472 0.8785 0.0
C22 C 0.80446 0.61255 0.92799 0.0
C23 C 0.81091 0.61249 1.00155 0.0
C24 C 0.83805 0.60915 0.0229 0.0
C25 C 0.84149 0.60918 0.10289 0.0
C26 C 0.81126 0.61004 0.12621 0.0
C27 C 0.7936 0.61172 0.06669 0.0
C28 C 0.857 0.63354 0.12405 0.0
C29 C 0.85692 0.58388 0.1263 0.0
C30 C 0.69166 0.59902 0.03204 0.0
C31 C 0.67187 0.58456 0.06804 0.0
C32 C 0.67877 0.5762 0.13883 0.0
C33 C 0.7048 0.58103 0.17002 0.0
C34 C 0.72491 0.59338 0.1295 0.0
C35 C 0.71805 0.6016 0.06105 0.0
C36 C 0.74284 0.60843 0.01804 0.0
C37 C 0.7652 0.60661 0.07475 0.0
C38 C 0.75491 0.59794 0.14094 0.0
C39 C 0.73877 0.63616 0.98937 0.0
C40 C 0.74702 0.58783 0.95827 0.0
H41 H 0.8517 0.62258 0.25631 0.0
H42 H 0.79771 0.56399 0.40677 0.0
H43 H 0.78252 0.54391 0.24573 0.0
H44 H 0.74648 0.55069 0.23554 0.0
H45 H 0.76073 0.54611 0.32376 0.0
H46 H 0.75515 0.61811 0.33025 0.0
H47 H 0.74657 0.58885 0.37497 0.0
H48 H 0.72799 0.59957 0.29633 0.0
H49 H 0.87935 0.59855 0.99465 0.0
H50 H 0.81915 0.60245 0.82288 0.0
H51 H 0.78409 0.61703 0.90774 0.0
H52 H 0.86373 0.64476 0.07676 0.0
H53 H 0.87616 0.6286 0.15483 0.0
H54 H 0.84365 0.64688 0.15627 0.0
H55 H 0.84636 0.567 0.10456 0.0
H56 H 0.85811 0.58148 0.18482 0.0
H57 H 0.87865 0.58315 0.10712 0.0
H58 H 0.87167 0.60607 0.36723 0.0
C59 C 0.84008 0.60938 0.28685 0.0
C60 C 0.98952 0.82018 0.92875 0.0
C61 C 0.98758 0.84691 0.93432 0.0
C62 C 0.98442 0.85813 1.00286 0.0
C63 C 0.9881 0.81662 0.0585 0.0
C64 C 0.9897 0.8055 0.99169 0.0
C65 C 0.99317 0.77699 0.99645 0.0
H66 H 1.0055 0.66727 0.18478 0.0
C67 C 0.99193 0.79634 0.11283 0.0
C68 C 0.99472 0.77309 0.07731 0.0
H69 H 0.99937 0.68143 0.95614 0.0
H70 H 0.99826 0.72567 0.97523 0.0
H71 H 0.05012 0.72056 0.2123 0.0
H72 H 0.96095 0.71813 0.24309 0.0
H73 H 0.98072 0.72784 0.31867 0.0
H74 H 0.98389 0.6953 0.28813 0.0
H75 H 0.03591 0.69734 0.27219 0.0
H76 H 0.03766 0.73034 0.29801 0.0
C77 C 0.02092 0.76905 0.95899 0.0
C78 C 0.96673 0.76564 0.96342 0.0
C79 C 0.99861 0.82474 0.36813 0.0
C80 C 1.0055 0.8131 0.43349 0.0
C81 C 0.01047 0.78611 0.43459 0.0
C82 C 0.00813 0.77128 0.3711 0.0
C83 C 1.00156 0.78365 0.30555 0.0
C84 C 0.99725 0.81007 0.30603 0.0
C85 C 0.99292 0.82123 0.23338 0.0
C86 C 0.99445 0.79741 0.18809 0.0
C87 C 0.99943 0.77489 0.22911 0.0
C88 C 0.01739 0.83903 0.21773 0.0
C89 C 0.96365 0.83466 0.23138 0.0
C90 C 1.00354 0.68025 0.13953 0.0
C91 C 1.0012 0.67056 0.06847 0.0
C92 C 0.99982 0.68801 0.01113 0.0
C93 C 0.99936 0.7141 0.02241 0.0
C94 C 1.00039 0.7237 0.09208 0.0
C95 C 1.00288 0.70731 0.15014 0.0
C96 C 1.00485 0.72273 0.21962 0.0
C97 C 1.00128 0.75055 0.19248 0.0
C98 C 0.99898 0.75023 0.1172 0.0
C99 C 0.03369 0.71747 0.25276 0.0
C100 C 0.98132 0.71561 0.2705 0.0
H101 H 0.98304 0.85321 0.11425 0.0
H102 H 0.99211 0.81099 0.87716 0.0
H103 H 0.94859 0.77938 0.96611 0.0
H104 H 0.95983 0.74857 0.99287 0.0
H105 H 0.96987 0.76066 0.90617 0.0
H106 H 0.03621 0.78442 0.96288 0.0
H107 H 0.01772 0.76513 0.90121 0.0
H108 H 0.03156 0.75219 0.98431 0.0
H109 H 0.99566 0.84539 0.36431 0.0
H110 H 0.01622 0.77657 0.48432 0.0
H111 H 0.01188 0.7509 0.37467 0.0
H112 H 0.03668 0.83205 0.24537 0.0
H113 H 0.01268 0.85888 0.23636 0.0
H114 H 0.02324 0.83961 0.16058 0.0
H115 H 0.94929 0.82567 0.26981 0.0
H116 H 0.9533 0.83295 0.17879 0.0
H117 H 0.96456 0.85524 0.24558 0.0
H118 H 0.98371 0.87872 0.01004 0.0
C119 C 0.98452 0.84319 0.06444 0.0
C120 C 0.82134 0.91431 0.11946 0.0
C121 C 0.83671 0.90664 0.05745 0.0
C122 C 0.82691 0.88598 0.01678 0.0
C123 C 0.78474 0.88697 0.08456 0.0
C124 C 0.79559 0.9034 0.13307 0.0
C125 C 0.77661 0.90626 0.19788 0.0
H126 H 0.64277 0.89825 0.31292 0.0
C127 C 0.75672 0.8815 0.10507 0.0
C128 C 0.75159 0.89106 0.17401 0.0
H129 H 0.71155 0.92347 0.43927 0.0
H130 H 0.74305 0.9122 0.34208 0.0
H131 H 0.66994 0.92105 0.1405 0.0
H132 H 0.65999 0.8518 0.26372 0.0
H133 H 0.66939 0.8422 0.17625 0.0
H134 H 0.63747 0.86045 0.19085 0.0
H135 H 0.64028 0.91254 0.192 0.0
H136 H 0.64624 0.89799 0.10917 0.0
C137 C 0.7691 0.93489 0.20931 0.0
C138 C 0.79157 0.89356 0.26263 0.0
C139 C 0.68359 0.89418 0.91994 0.0
C140 C 0.65459 0.89313 0.92796 0.0
C141 C 0.64422 0.87452 0.97514 0.0
C142 C 0.66162 0.8632 0.02727 0.0
C143 C 0.68904 0.87065 0.02994 0.0
C144 C 0.70067 0.88209 0.97149 0.0
C145 C 0.7315 0.8839 0.98047 0.0
C146 C 0.73467 0.87571 0.05934 0.0
C147 C 0.70878 0.87119 0.08919 0.0
C148 C 0.74028 0.91175 0.96735 0.0
C149 C 0.74588 0.86511 0.92749 0.0
C150 C 0.66463 0.90091 0.32127 0.0
C151 C 0.67428 0.91175 0.38477 0.0
C152 C 0.70312 0.91546 0.39093 0.0
C153 C 0.72152 0.90877 0.33462 0.0
C154 C 0.71114 0.89827 0.2712 0.0
C155 C 0.6831 0.89428 0.2662 0.0
C156 C 0.67493 0.88357 0.19537 0.0
C157 C 0.7032 0.87919 0.16064 0.0
C158 C 0.72437 0.88923 0.20338 0.0
C159 C 0.65705 0.9048 0.15675 0.0
C160 C 0.65958 0.85827 0.20688 0.0
H161 H 0.79431 0.85971 1.001 0.0
H162 H 0.82851 0.92884 0.15531 0.0
H163 H 0.80133 0.87474 0.24729 0.0
H164 H 0.77737 0.88947 0.30699 0.0
H165 H 0.80815 0.90585 0.28277 0.0
H166 H 0.76014 0.94351 0.15946 0.0
H167 H 0.78777 0.94554 0.22376 0.0
H168 H 0.75374 0.93797 0.2523 0.0
H169 H 0.69261 0.9067 0.88093 0.0
H170 H 0.62224 0.87131 0.97807 0.0
H171 H 0.65286 0.85123 0.06767 0.0
H172 H 0.72891 0.92524 0.00373 0.0
H173 H 0.73621 0.91778 0.91111 0.0
H174 H 0.76276 0.91371 0.9762 0.0
H175 H 0.73439 0.86459 0.87589 0.0
H176 H 0.74717 0.84531 0.94969 0.0
H177 H 0.76687 0.8712 0.91308 0.0
H178 H 0.83909 0.87743 0.97397 0.0
C179 C 0.801 0.87605 0.03055 0.0
C180 C 0.50261 0.70352 0.40685 0.0
C181 C 0.50508 0.6766 0.42056 0.0
C182 C 0.50767 0.65977 0.36272 0.0
C183 C 0.50405 0.69506 0.27889 0.0
C184 C 0.50239 0.71245 0.33433 0.0
C185 C 0.50039 0.73993 0.30428 0.0
H186 H 0.50637 0.81133 0.99019 0.0
C187 C 0.50231 0.70892 0.21032 0.0
C188 C 0.50071 0.73551 0.22272 0.0
H189 H 0.49522 0.84466 0.19969 0.0
H190 H 0.49599 0.80107 0.253 0.0
H191 H 0.54549 0.76485 0.01738 0.0
H192 H 0.45717 0.77706 0.01817 0.0
H193 H 0.46247 0.74561 0.98764 0.0
H194 H 0.47596 0.77187 0.93659 0.0
H195 H 0.52513 0.77122 0.9383 0.0
H196 H 0.53163 0.73911 0.97064 0.0
C197 C 0.52573 0.75449 0.32907 0.0
C198 C 0.47298 0.75305 0.32847 0.0
C199 C 0.49781 0.65497 0.98927 0.0
C200 C 0.49338 0.66043 0.91689 0.0
C201 C 0.49184 0.6859 0.89261 0.0
C202 C 0.49423 0.70594 0.94208 0.0
C203 C 0.49789 0.70003 0.01564 0.0
C204 C 0.49955 0.67483 0.03729 0.0
C205 C 0.50235 0.67144 0.11621 0.0
C206 C 0.50143 0.69906 0.1401 0.0
C207 C 0.49947 0.71557 0.08146 0.0
C208 C 0.53114 0.65799 0.13065 0.0
C209 C 0.47683 0.65668 0.14274 0.0
C210 C 0.50389 0.80981 0.04771 0.0
C211 C 0.50029 0.83169 0.0899 0.0
C212 C 0.49803 0.82816 0.1652 0.0
C213 C 0.49835 0.80299 0.19596 0.0
C214 C 0.50052 0.78133 0.15078 0.0
C215 C 0.50256 0.78558 0.07773 0.0
C216 C 0.50047 0.76207 0.03409 0.0
C217 C 0.4996 0.74219 0.09206 0.0
C218 C 0.4998 0.75278 0.16181 0.0
C219 C 0.52689 0.75905 0.98717 0.0
C220 C 0.47277 0.76415 0.99138 0.0
H221 H 0.50888 0.6543 0.25286 0.0
H222 H 0.50075 0.71696 0.45069 0.0
H223 H 0.45521 0.7412 0.31369 0.0
H224 H 0.46963 0.77204 0.30281 0.0
H225 H 0.47278 0.75567 0.3875 0.0
H226 H 0.54517 0.74387 0.3137 0.0
H227 H 0.52561 0.75672 0.38824 0.0
H228 H 0.52617 0.77377 0.30457 0.0
H229 H 0.49918 0.63532 0.00864 0.0
H230 H 0.48862 0.69019 0.83633 0.0
H231 H 0.49318 0.72512 0.92113 0.0
H232 H 0.54618 0.66194 0.08721 0.0
H233 H 0.52953 0.63686 0.13443 0.0
H234 H 0.54123 0.66507 0.17964 0.0
H235 H 0.45856 0.66015 0.10717 0.0
H236 H 0.46937 0.66296 0.19602 0.0
H237 H 0.48136 0.63567 0.14407 0.0
H238 H 0.5097 0.63923 0.37166 0.0
C239 C 0.50717 0.66872 0.29298 0.0
C240 C 0.323 0.41972 0.33285 0.0
C241 C 0.3374 0.41383 0.39764 0.0
C242 C 0.32823 0.3935 0.44075 0.0
C243 C 0.28778 0.39057 0.3669 0.0
C244 C 0.29831 0.40719 0.31779 0.0
C245 C 0.27988 0.40902 0.25171 0.0
H246 H 0.14969 0.39132 0.12054 0.0
C247 C 0.26021 0.3838 0.34481 0.0
C248 C 0.25548 0.39286 0.27482 0.0
H249 H 0.21766 0.42343 0.0049 0.0
H250 H 0.2483 0.41389 0.10579 0.0
H251 H 0.17466 0.34501 0.18079 0.0
H252 H 0.17039 0.41665 0.30115 0.0
H253 H 0.14591 0.39221 0.31859 0.0
H254 H 0.14458 0.40846 0.23723 0.0
H255 H 0.14497 0.35488 0.23261 0.0
H256 H 0.17518 0.33963 0.27398 0.0
C257 C 0.29603 0.39676 0.18858 0.0
C258 C 0.27109 0.43736 0.23861 0.0
C259 C 0.18599 0.39059 0.52927 0.0
C260 C 0.15693 0.39104 0.5189 0.0
C261 C 0.14677 0.37386 0.46731 0.0
C262 C 0.16441 0.3636 0.4145 0.0
C263 C 0.19199 0.3706 0.41439 0.0
C264 C 0.20327 0.38032 0.47551 0.0
C265 C 0.23417 0.38238 0.46889 0.0
C266 C 0.23792 0.37678 0.38865 0.0
C267 C 0.21245 0.37184 0.35674 0.0
C268 C 0.24828 0.36179 0.51802 0.0
C269 C 0.24253 0.40978 0.48907 0.0
C270 C 0.17129 0.39583 0.11554 0.0
C271 C 0.18102 0.40802 0.05403 0.0
C272 C 0.20933 0.41412 0.05169 0.0
C273 C 0.22716 0.40856 0.11027 0.0
C274 C 0.21656 0.39713 0.17239 0.0
C275 C 0.189 0.39098 0.17365 0.0
C276 C 0.1802 0.38034 0.24421 0.0
C277 C 0.20775 0.37869 0.2838 0.0
C278 C 0.22896 0.38951 0.24276 0.0
C279 C 0.16796 0.35364 0.23261 0.0
C280 C 0.15937 0.40034 0.27764 0.0
H281 H 0.29754 0.36541 0.45611 0.0
H282 H 0.33034 0.43413 0.29634 0.0
H283 H 0.26191 0.44587 0.28805 0.0
H284 H 0.25544 0.43975 0.1959 0.0
H285 H 0.28921 0.44866 0.2233 0.0
H286 H 0.30708 0.3787 0.20589 0.0
H287 H 0.31171 0.40995 0.16782 0.0
H288 H 0.28242 0.39132 0.14422 0.0
H289 H 0.19537 0.40007 0.57367 0.0
H290 H 0.12506 0.37 0.46279 0.0
H291 H 0.15566 0.35255 0.37233 0.0
H292 H 0.23499 0.35709 0.56452 0.0
H293 H 0.26765 0.36859 0.54196 0.0
H294 H 0.25283 0.34368 0.48849 0.0
H295 H 0.23121 0.42432 0.45532 0.0
H296 H 0.26495 0.41239 0.48238 0.0
H297 H 0.23798 0.41389 0.54622 0.0
H298 H 0.33911 0.38776 0.48928 0.0
C299 C 0.30373 0.38142 0.42436 0.0
C300 C 0.00812 0.18322 0.50672 0.0
C301 C 0.00864 0.15652 0.49884 0.0
C302 C 1.00638 0.14584 0.43001 0.0
C303 C 1.00407 0.18785 0.37787 0.0
C304 C 1.00594 0.19854 0.445 0.0
C305 C 1.00324 0.22724 0.44199 0.0
H306 H 0.02206 0.33569 0.25918 0.0
C307 C 1.00266 0.2085 0.32477 0.0
C308 C 1.00253 0.23169 0.36081 0.0
H309 H 0.99664 0.32406 0.47901 0.0
H310 H 0.98991 0.28012 0.45567 0.0
H311 H 0.05932 0.27835 0.23509 0.0
H312 H 0.97144 0.29063 0.18895 0.0
H313 H 0.99285 0.27944 0.11659 0.0
H314 H 0.99634 0.31138 0.1499 0.0
H315 H 0.04787 0.30324 0.17354 0.0
H316 H 0.04837 0.2702 0.1471 0.0
C317 C 0.02932 0.23789 0.47777 0.0
C318 C 0.97553 0.23551 0.47913 0.0
C319 C 1.00622 0.18048 0.06999 0.0
C320 C 0.01647 0.1907 0.00701 0.0
C321 C 0.02251 0.21709 0.00543 0.0
C322 C 0.01855 0.23266 0.06756 0.0
C323 C 0.00985 0.2213 0.13217 0.0
C324 C 1.00453 0.19538 0.13145 0.0
C325 C 1.00264 0.18402 0.204 0.0
C326 C 1.00417 0.20761 0.24952 0.0
C327 C 0.00803 0.22999 0.20882 0.0
C328 C 0.02855 0.16551 0.21437 0.0
C329 C 0.97413 0.17139 0.21064 0.0
C330 C 0.01544 0.32332 0.30205 0.0
C331 C 0.01142 0.33305 0.37256 0.0
C332 C 1.00129 0.31684 0.42581 0.0
C333 C 0.99742 0.2912 0.41237 0.0
C334 C 1.00421 0.28106 0.34539 0.0
C335 C 0.01133 0.29686 0.28945 0.0
C336 C 0.01436 0.28144 0.22016 0.0
C337 C 0.00866 0.25414 0.24591 0.0
C338 C 1.00407 0.25461 0.32058 0.0
C339 C 0.04412 0.28341 0.19206 0.0
C340 C 0.99256 0.29125 0.16557 0.0
H341 H 1.00091 0.15163 0.32056 0.0
H342 H 0.0084 0.19184 0.55937 0.0
H343 H 0.96252 0.21902 0.49257 0.0
H344 H 0.96229 0.24799 0.44379 0.0
H345 H 0.97927 0.24568 0.5302 0.0
H346 H 0.0484 0.22931 0.45302 0.0
H347 H 0.02979 0.23322 0.5359 0.0
H348 H 0.03068 0.25882 0.47273 0.0
H349 H 1.00271 0.1601 0.07389 0.0
H350 H 0.03105 0.22536 0.9574 0.0
H351 H 0.0237 0.25249 0.0646 0.0
H352 H 0.04543 0.16945 0.17577 0.0
H353 H 0.02321 0.14519 0.2069 0.0
H354 H 0.03862 0.16764 0.2672 0.0
H355 H 0.95786 0.18246 0.18014 0.0
H356 H 0.9663 0.17096 0.26628 0.0
H357 H 0.97507 0.15156 0.18927 0.0
H358 H 1.00503 0.12536 0.4223 0.0
C359 C 1.00377 0.16128 0.37012 0.0
C360 C 0.31014 0.08104 0.07951 0.0
C361 C 0.33658 0.08956 0.05906 0.0
C362 C 0.34609 0.11231 0.0898 0.0
C363 C 0.30862 0.1121 0.17434 0.0
C364 C 0.29613 0.09321 0.13685 0.0
C365 C 0.26792 0.08815 0.16852 0.0
H366 H 0.18933 0.08938 0.47163 0.0
C367 C 0.29401 0.11606 0.24189 0.0
C368 C 0.26883 0.10364 0.23803 0.0
H369 H 0.16475 0.06481 0.26092 0.0
H370 H 0.20789 0.07924 0.21161 0.0
H371 H 0.24023 0.06708 0.47623 0.0
H372 H 0.22035 0.14422 0.4239 0.0
H373 H 0.24955 0.14262 0.4817 0.0
H374 H 0.21806 0.12792 0.50871 0.0
H375 H 0.24954 0.09138 0.53682 0.0
H376 H 0.27373 0.0789 0.47068 0.0
C377 C 0.26573 0.05916 0.18298 0.0
C378 C 0.24563 0.09916 0.1162 0.0
C379 C 0.35711 0.11403 0.45317 0.0
C380 C 0.352 0.10463 0.5224 0.0
C381 C 0.32539 0.1095 0.55171 0.0
C382 C 0.30339 0.1182 0.50761 0.0
C383 C 0.30805 0.12104 0.43382 0.0
C384 C 0.33484 0.12075 0.40858 0.0
C385 C 0.33635 0.12177 0.32832 0.0
C386 C 0.30559 0.12164 0.30942 0.0
C387 C 0.2893 0.12001 0.3715 0.0
C388 C 0.35233 0.09715 0.30195 0.0
C389 C 0.35052 0.14667 0.30552 0.0
C390 C 0.19266 0.08794 0.4144 0.0
C391 C 0.17336 0.07608 0.37033 0.0
C392 C 0.17923 0.07378 0.29636 0.0
C393 C 0.20421 0.08225 0.2676 0.0
C394 C 0.22372 0.09304 0.3131 0.0
C395 C 0.2176 0.09603 0.38501 0.0
C396 C 0.24145 0.10618 0.42656 0.0
C397 C 0.262 0.11091 0.3666 0.0
C398 C 0.25177 0.10266 0.30026 0.0
C399 C 0.25185 0.08501 0.48041 0.0
C400 C 0.23192 0.13158 0.46264 0.0
H401 H 0.33906 0.14136 0.16921 0.0
H402 H 0.3013 0.06475 0.05353 0.0
H403 H 0.25306 0.11623 0.08705 0.0
H404 H 0.2267 0.10616 0.14404 0.0
H405 H 0.24013 0.08473 0.07555 0.0
H406 H 0.28348 0.05193 0.21625 0.0
H407 H 0.26593 0.04827 0.13199 0.0
H408 H 0.24662 0.05463 0.21189 0.0
H409 H 0.37737 0.11234 0.4293 0.0
H410 H 0.32098 0.10452 0.60677 0.0
H411 H 0.28327 0.12052 0.53118 0.0
H412 H 0.34257 0.07967 0.32296 0.0
H413 H 0.37428 0.09674 0.31943 0.0
H414 H 0.3532 0.09552 0.24331 0.0
H415 H 0.36185 0.15544 0.35054 0.0
H416 H 0.33515 0.16139 0.28561 0.0
H417 H 0.36635 0.1429 0.2635 0.0
H418 H 0.36557 0.12009 0.0736 0.0
C419 C 0.33165 0.12404 0.14648 0.0
C420 C 0.4957 0.29327 0.0474 0.0
C421 C 0.4932 0.3204 0.0379 0.0
C422 C 0.49096 0.33604 0.09849 0.0
C423 C 0.49677 0.29922 0.17648 0.0
C424 C 0.49689 0.28296 0.11839 0.0
C425 C 0.49766 0.25498 0.14423 0.0
H426 H 0.51582 0.17623 0.44406 0.0
C427 C 0.50134 0.28408 0.24227 0.0
C428 C 0.50154 0.25779 0.22573 0.0
H429 H 0.48904 0.15028 0.23765 0.0
H430 H 0.49374 0.19398 0.18824 0.0
H431 H 0.56184 0.21213 0.39107 0.0
H432 H 0.47642 0.22302 0.44901 0.0
H433 H 0.49377 0.24825 0.48861 0.0
H434 H 0.5036 0.21577 0.51233 0.0
H435 H 0.55128 0.21522 0.48266 0.0
H436 H 0.55971 0.24279 0.42908 0.0
C437 C 0.52214 0.23992 0.11002 0.0
C438 C 0.46961 0.24358 0.12582 0.0
C439 C 0.52535 0.33309 0.46454 0.0
C440 C 0.53588 0.3257 0.53165 0.0
C441 C 0.53962 0.29964 0.54892 0.0
C442 C 0.53269 0.28099 0.49873 0.0
C443 C 0.52239 0.28875 0.43082 0.0
C444 C 0.51905 0.31445 0.41511 0.0
C445 C 0.50965 0.31956 0.33989 0.0
C446 C 0.50808 0.29247 0.31189 0.0
C447 C 0.51493 0.27469 0.36545 0.0
C448 C 0.53239 0.33502 0.30178 0.0
C449 C 0.48053 0.33319 0.34334 0.0
C450 C 0.51096 0.1798 0.38805 0.0
C451 C 0.50188 0.1601 0.34516 0.0
C452 C 0.49585 0.16542 0.27217 0.0
C453 C 0.49815 0.1907 0.24401 0.0
C454 C 0.50579 0.21068 0.28995 0.0
C455 C 0.51221 0.20451 0.36057 0.0
C456 C 0.51852 0.22704 0.40501 0.0
C457 C 0.51381 0.2483 0.35139 0.0
C458 C 0.50681 0.23931 0.28252 0.0
C459 C 0.54932 0.22424 0.42881 0.0
C460 C 0.49722 0.22871 0.46739 0.0
H461 H 0.49147 0.33917 0.20982 0.0
H462 H 0.4968 0.2807 1.00148 0.0
H463 H 0.45228 0.25626 0.14546 0.0
H464 H 0.46712 0.22465 0.15076 0.0
H465 H 0.46732 0.24155 0.06689 0.0
H466 H 0.54188 0.2494 0.12152 0.0
H467 H 0.51955 0.2389 0.05097 0.0
H468 H 0.52395 0.2201 0.13134 0.0
H469 H 0.52284 0.35318 0.44994 0.0
H470 H 0.54786 0.29382 0.60072 0.0
H471 H 0.53566 0.26135 0.51485 0.0
H472 H 0.55309 0.33147 0.32692 0.0
H473 H 0.52763 0.35596 0.30423 0.0
H474 H 0.53567 0.32944 0.24535 0.0
H475 H 0.46913 0.32769 0.3925 0.0
H476 H 0.46684 0.32765 0.29881 0.0
H477 H 0.48202 0.35437 0.34378 0.0
H478 H 0.4888 0.35671 0.09277 0.0
C479 C 0.49265 0.32572 0.16692 0.0
O480 O 0.07754 0.96743 0.82377 0.0
Mg481 Mg 0.0659 0.97373 0.71467 0.0
O482 O 0.04161 -0.00837 0.83868 0.0
Mg483 Mg 0.01146 -0.00156 0.74498 0.0
O484 O 0.05001 0.0089 0.67026 0.0
O485 O 0.09286 -0.00883 0.65279 0.0
O486 O 0.98241 0.00957 0.65492 0.0
O487 O 0.01452 0.04377 0.77499 0.0
Mg488 Mg 0.97411 0.02191 0.8187 0.0
O489 O 0.97259 0.98361 0.81922 0.0
O490 O 0.96107 0.0387 0.72121 0.0
O491 O 1.00004 0.04358 0.88486 0.0
O492 O 0.94211 0.01066 0.87568 0.0
C493 C 0.02518 0.93754 0.67074 0.0
C494 C 0.05457 0.97094 0.85479 0.0
C495 C 0.0743 0.0089 0.63881 0.0
C496 C 0.9682 0.03046 0.65988 0.0
C497 C 0.01222 0.05511 0.83536 0.0
C498 C 0.95052 0.98773 0.85918 0.0
O499 O 0.0508 0.9411 0.66555 0.0
O500 O 0.00925 0.95479 0.70003 0.0
O501 O 0.43929 0.00226 0.77875 0.0
Mg502 Mg 0.4644 0.97602 0.72154 0.0
O503 O 0.47623 0.02477 0.79618 0.0
Mg504 Mg 0.51009 0.00168 0.72669 0.0
O505 O 0.49809 0.95979 0.77698 0.0
O506 O 0.45653 0.94226 0.76371 0.0
O507 O 0.54739 0.9817 0.65971 0.0
O508 O 0.53772 -0.00136 0.82408 0.0
Mg509 Mg 0.55667 0.03739 0.74236 0.0
O510 O 0.52254 0.04125 0.67819 0.0
O511 O 0.58034 0.00848 0.6895 0.0
O512 O 0.55707 0.03386 0.85572 0.0
O513 O 0.55263 0.07224 0.6908 0.0
C514 C 0.46469 -0.00486 0.58971 0.0
C515 C 0.45049 0.02127 0.80647 0.0
C516 C 0.48108 0.94135 0.79062 0.0
C517 C 0.57283 0.9884 0.65756 0.0
C518 C 0.55177 0.01079 0.86891 0.0
C519 C 0.53155 0.06336 0.65786 0.0
O520 O 0.4563 0.97389 0.61112 0.0
O521 O 0.48249 0.0062 0.62722 0.0
O522 O 0.55585 0.44491 0.78592 0.0
Mg523 Mg 0.56666 0.47825 0.73212 0.0
O524 O 0.51122 0.45493 0.7789 0.0
Mg525 Mg 0.50801 0.49788 0.72464 0.0
O526 O 0.55069 0.51206 0.77486 0.0
O527 O 0.59543 0.49835 0.78157 0.0
O528 O 0.50353 0.54039 0.67159 0.0
O529 O 0.49246 0.51373 0.83035 0.0
Mg530 Mg 0.45299 0.51439 0.74035 0.0
O531 O 0.46503 0.48458 0.6732 0.0
O532 O 0.46065 0.55146 0.70132 0.0
O533 O 0.44893 0.5098 0.85188 0.0
O534 O 0.42122 0.50027 0.68702 0.0
C535 C 0.54554 0.46958 0.59962 0.0
C536 C 0.53106 0.43908 0.79715 0.0
C537 C 0.57614 0.51518 0.79672 0.0
C538 C 0.48327 0.55704 0.67206 0.0
C539 C 0.47189 0.51821 0.87102 0.0
C540 C 0.43863 0.48436 0.65719 0.0
O541 O 0.56921 0.47575 0.62055 0.0
O542 O 0.52529 0.48466 0.61528 0.0
O543 O 0.9494 0.46578 0.83185 0.0
Mg544 Mg 0.95944 0.45525 0.7259 0.0
O545 O 0.98533 0.48994 0.83927 0.0
Mg546 Mg 0.00761 0.49499 0.73358 0.0
O547 O 0.99986 0.45403 0.6917 0.0
O548 O 0.97285 0.42033 0.68627 0.0
O549 O 0.03249 0.49562 0.6318 0.0
O550 O 0.0488 0.47835 0.79509 0.0
Mg551 Mg 0.05096 0.53363 0.72465 0.0
O552 O 0.01362 0.53755 0.77675 0.0
O553 O 0.05934 0.52769 0.61443 0.0
O554 O 0.07703 0.51073 0.78796 0.0
O555 O 0.04372 0.56919 0.76487 0.0
C556 C 0.94451 0.50292 0.64248 0.0
C557 C 0.96065 0.48543 0.85634 0.0
C558 C 0.99548 0.43107 0.66828 0.0
C559 C 0.05021 0.50657 0.59387 0.0
C560 C 0.07225 0.48823 0.80884 0.0
C561 C 0.02127 0.56072 0.79216 0.0
O562 O 0.93817 0.47993 0.65436 0.0
O563 O 0.96695 0.51189 0.66828 0.0
H564 H 0.1382 0.09349 0.4776 0.0
H565 H 0.15501 0.02893 0.33835 0.0
H566 H 0.12107 0.00431 0.40192 0.0
H567 H 0.092 -0.00136 0.50693 0.0
H568 H 0.07571 0.06142 0.65123 0.0
H569 H 0.1033 0.08943 0.57513 0.0
C570 C 0.1341 0.07416 0.46058 0.0
C571 C 0.14933 0.06313 0.40308 0.0
C572 C 0.1146 0.05979 0.49835 0.0
C573 C 0.1435 0.03813 0.38147 0.0
C574 C 0.12418 0.02389 0.41825 0.0
C575 C 0.09373 0.01873 0.52036 0.0
C576 C 0.08185 0.02802 0.58427 0.0
C577 C 0.11027 0.03423 0.47789 0.0
C578 C 0.0844 0.05395 0.60176 0.0
C579 C 0.10053 0.0698 0.55875 0.0
H580 H 0.53874 0.1201 0.36199 0.0
H581 H 0.4568 0.14706 0.42068 0.0
H582 H 0.45711 0.11751 0.52284 0.0
H583 H 0.4838 0.08841 0.60634 0.0
H584 H 0.56631 0.06272 0.54701 0.0
H585 H 0.56242 0.08637 0.43428 0.0
C586 C 0.52038 0.11841 0.39477 0.0
C587 C 0.49753 0.13533 0.38253 0.0
C588 C 0.52101 0.10175 0.45465 0.0
C589 C 0.47431 0.1337 0.42755 0.0
C590 C 0.47472 0.11714 0.48698 0.0
C591 C 0.50057 0.08755 0.56782 0.0
C592 C 0.52539 0.07395 0.58522 0.0
C593 C 0.49837 0.10169 0.50277 0.0
C594 C 0.54704 0.07314 0.53492 0.0
C595 C 0.54487 0.08671 0.47036 0.0
H596 H 0.38525 0.39922 0.46958 0.0
H597 H 0.3387 0.46589 0.39168 0.0
H598 H 0.36843 0.49362 0.45945 0.0
H599 H 0.40335 0.49875 0.55278 0.0
H600 H 0.44826 0.43269 0.63798 0.0
H601 H 0.4237 0.40483 0.55534 0.0
C602 C 0.38182 0.41984 0.46667 0.0
C603 C 0.3595 0.43036 0.42574 0.0
C604 C 0.3986 0.43575 0.50763 0.0
C605 C 0.35578 0.45717 0.42177 0.0
C606 C 0.3726 0.47308 0.46133 0.0
C607 C 0.40809 0.47826 0.55229 0.0
C608 C 0.42776 0.46769 0.60071 0.0
C609 C 0.39341 0.46254 0.50615 0.0
C610 C 0.43375 0.44122 0.59983 0.0
C611 C 0.4194 0.42534 0.55328 0.0
H612 H 0.04825 0.34778 0.47118 0.0
H613 H 0.98344 0.37713 0.33168 0.0
H614 H 0.97685 0.41485 0.40832 0.0
H615 H 0.98174 0.43327 0.52926 0.0
H616 H 0.04291 0.40097 0.67474 0.0
H617 H 0.05903 0.37077 0.58208 0.0
C618 C 0.03366 0.36312 0.45576 0.0
C619 C 0.0164 0.35972 0.39562 0.0
C620 C 0.02881 0.38381 0.50275 0.0
C621 C 0.99721 0.37944 0.37683 0.0
C622 C 0.99309 0.40076 0.42164 0.0
C623 C 0.99936 0.42027 0.53946 0.0
C624 C 0.01138 0.41942 0.60837 0.0
C625 C 0.00759 0.40228 0.48686 0.0
C626 C 0.03371 0.4022 0.62184 0.0
C627 C 0.04266 0.38477 0.56903 0.0
H628 H 0.85786 0.91034 0.9205 0.0
H629 H 0.87355 0.9341 0.13831 0.0
H630 H 0.91098 0.95999 0.09598 0.0
H631 H 0.93715 0.97848 0.99625 0.0
H632 H 0.9253 0.95101 0.78165 0.0
H633 H 0.88918 0.92286 0.82457 0.0
C634 C 0.8698 0.92034 0.95988 0.0
C635 C 0.86203 0.92023 0.03314 0.0
C636 C 0.89222 0.93447 0.93567 0.0
C637 C 0.87794 0.93419 0.08155 0.0
C638 C 0.89974 0.94888 0.05747 0.0
C639 C 0.92704 0.96585 0.9593 0.0
C640 C 0.93373 0.96672 0.88601 0.0
C641 C 0.90666 0.94957 0.98457 0.0
C642 C 0.92065 0.95038 0.83837 0.0
C643 C 0.89985 0.93451 0.86289 0.0
H644 H 0.47145 0.841 0.96844 0.0
H645 H 0.522 0.87948 0.12142 0.0
H646 H 0.52254 0.91726 0.04109 0.0
H647 H 0.50953 0.93848 0.92196 0.0
H648 H 0.46625 0.89364 0.7666 0.0
H649 H 0.46403 0.85849 0.8509 0.0
C650 C 0.48319 0.85737 0.98435 0.0
C651 C 0.49722 0.85693 0.05061 0.0
C652 C 0.48548 0.87768 0.93585 0.0
C653 C 0.51097 0.87908 0.07094 0.0
C654 C 0.51168 0.90053 0.02428 0.0
C655 C 0.50043 0.9207 0.9061 0.0
C656 C 0.48793 0.91885 0.8376 0.0
C657 C 0.49949 0.89984 0.95546 0.0
C658 C 0.47591 0.89573 0.81858 0.0
C659 C 0.47433 0.87563 0.86712 0.0
H660 H 0.66036 0.58608 0.9212 0.0
H661 H 0.62366 0.56311 0.12222 0.0
H662 H 0.58722 0.54285 0.05589 0.0
H663 H 0.56965 0.5262 0.93934 0.0
H664 H 0.60532 0.55315 0.74289 0.0
H665 H 0.63731 0.57878 0.81026 0.0
C666 C 0.64432 0.57776 0.95274 0.0
C667 C 0.64622 0.576 0.02854 0.0
C668 C 0.62265 0.5669 0.91448 0.0
C669 C 0.62428 0.56421 0.06448 0.0
C670 C 0.60292 0.55274 0.02635 0.0
C671 C 0.58348 0.53874 0.91152 0.0
C672 C 0.58491 0.53801 0.83602 0.0
C673 C 0.6024 0.5532 0.95109 0.0
C674 C 0.60345 0.55379 0.80072 0.0
C675 C 0.6221 0.5681 0.83938 0.0
H676 H 0.96532 0.64721 0.98104 0.0
H677 H 0.03966 0.6326 0.10448 0.0
H678 H 0.05 0.59391 0.03383 0.0
H679 H 0.04261 0.56947 0.92236 0.0
H680 H 0.97203 0.5884 0.78878 0.0
H681 H 0.95599 0.62088 0.87565 0.0
C682 C 0.98336 0.63507 0.99395 0.0
C683 C 1.00177 0.64289 0.04801 0.0
C684 C 0.9903 0.61419 0.94921 0.0
C685 C 0.025 0.62697 0.06408 0.0
C686 C 0.03118 0.60512 0.02253 0.0
C687 C 0.02323 0.58018 0.91363 0.0
C688 C 0.0081 0.57616 0.85015 0.0
C689 C 0.0147 0.5993 0.96285 0.0
C690 C 0.98363 0.59076 0.83785 0.0
C691 C 0.97462 0.60942 0.88735 0.0
H692 H 0.03726 0.11232 0.52205 0.0
H693 H 0.9723 0.16139 0.60968 0.0
H694 H 0.94926 0.12404 0.65687 0.0
H695 H 0.94378 0.07773 0.65408 0.0
H696 H 1.00582 0.029 0.55064 0.0
H697 H 0.03132 0.06638 0.5166 0.0
C698 C 0.01847 0.11473 0.55352 0.0
C699 C 1.00574 0.13916 0.55989 0.0
C700 C 1.00337 0.09337 0.57038 0.0
C701 C 0.98214 0.14258 0.60295 0.0
C702 C 0.9684 0.12124 0.62729 0.0
C703 C 0.96248 0.07533 0.62229 0.0
C704 C 0.97336 0.0506 0.6072 0.0
C705 C 0.97787 0.09666 0.60665 0.0
C706 C 0.9971 0.04779 0.56397 0.0
C707 C 0.01227 0.06906 0.54667 0.0
H708 H 0.40847 0.09797 0.50281 0.0
H709 H 0.33914 0.06359 0.60827 0.0
H710 H 0.36689 0.02458 0.6273 0.0
H711 H 0.40986 -0.00073 0.60873 0.0
H712 H 0.47738 0.03216 0.49386 0.0
H713 H 0.44905 0.07121 0.47245 0.0
C714 C 0.39888 0.0819 0.52838 0.0
C715 C 0.37117 0.08404 0.55201 0.0
C716 C 0.41397 0.05855 0.5333 0.0
C717 C 0.36033 0.06317 0.58965 0.0
C718 C 0.37597 0.04039 0.59901 0.0
C719 C 0.41804 0.01463 0.57664 0.0
C720 C 0.44545 0.01269 0.55147 0.0
C721 C 0.40245 0.03763 0.56908 0.0
C722 C 0.45609 0.03304 0.51213 0.0
C723 C 0.4403 0.05568 0.50227 0.0
H724 H 0.50145 0.35824 0.59862 0.0
H725 H 0.58779 0.3398 0.56342 0.0
H726 H 0.59921 0.38421 0.58831 0.0
H727 H 0.58308 0.42939 0.59462 0.0
H728 H 0.49543 0.44759 0.61197 0.0
H729 H 0.48597 0.40227 0.61829 0.0
C730 C 0.52286 0.36382 0.60015 0.0
C731 C 0.5438 0.34617 0.57971 0.0
C732 C 0.52882 0.38959 0.60812 0.0
C733 C 0.57149 0.35325 0.58028 0.0
C734 C 0.57787 0.37872 0.59269 0.0
C735 C 0.56192 0.42346 0.6003 0.0
C736 C 0.54 0.44195 0.60228 0.0
C737 C 0.55647 0.3973 0.60212 0.0
C738 C 0.5127 0.43387 0.60976 0.0
C739 C 0.50723 0.40797 0.61396 0.0
H740 H 0.10201 0.40417 0.48493 0.0
H741 H 0.16981 0.42968 0.61647 0.0
H742 H 0.14519 0.4698 0.63516 0.0
H743 H 0.1045 0.49828 0.61605 0.0
H744 H 0.03531 0.47155 0.4954 0.0
H745 H 0.06132 0.43169 0.46845 0.0
C746 C 0.11191 0.41795 0.51828 0.0
C747 C 0.13882 0.41306 0.54661 0.0
C748 C 0.09763 0.44152 0.52918 0.0
C749 C 0.14983 0.43207 0.59114 0.0
C750 C 0.1357 0.45554 0.60209 0.0
C751 C 0.09562 0.48425 0.58092 0.0
C752 C 0.0685 0.48843 0.55459 0.0
C753 C 0.1099 0.46068 0.57004 0.0
C754 C 0.05663 0.46933 0.5131 0.0
C755 C 0.07121 0.44626 0.49954 0.0
H756 H 0.96258 0.89205 0.90085 0.0
H757 H 0.02787 0.83984 0.83077 0.0
H758 H 0.05465 0.8759 0.78944 0.0
H759 H 0.06477 0.9217 0.80654 0.0
H760 H 1.0065 0.96961 0.92526 0.0
H761 H 0.97435 0.93482 0.9291 0.0
C762 C 0.98251 0.88863 0.87511 0.0
C763 C 0.99401 0.8637 0.87322 0.0
C764 C 1.0001 0.90889 0.86671 0.0
C765 C 0.01885 0.85907 0.83536 0.0
C766 C 0.03464 0.8797 0.81407 0.0
C767 C 0.04479 0.92471 0.83208 0.0
C768 C 0.0373 0.9486 0.86256 0.0
C769 C 0.02646 0.90458 0.8355 0.0
C770 C 0.01201 0.95177 0.89844 0.0
C771 C 0.99333 0.93227 0.89911 0.0
H772 H 0.60928 0.91354 0.99716 0.0
H773 H 0.6596 0.92406 0.80833 0.0
H774 H 0.6366 0.9657 0.78759 0.0
H775 H 0.60157 -0.00162 0.82068 0.0
H776 H 0.54492 0.98379 0.99252 0.0
H777 H 0.57179 0.94454 0.02433 0.0
C778 C 0.61489 0.92437 0.95006 0.0
C779 C 0.63654 0.91541 0.90478 0.0
C780 C 0.60112 0.94801 0.93729 0.0
C781 C 0.64351 0.93042 0.84509 0.0
C782 C 0.63043 0.95435 0.83327 0.0
C783 C 0.59582 0.98707 0.86688 0.0
C784 C 0.57218 -0.00559 0.90654 0.0
C785 C 0.60953 0.96344 0.87965 0.0
C786 C 0.56388 0.97906 0.9638 0.0
C787 C 0.57879 0.95634 0.98051 0.0
H788 H 0.44702 0.63506 0.89928 0.0
H789 H 0.53327 0.63528 0.84219 0.0
H790 H 0.53596 0.5885 0.84551 0.0
H791 H 0.51561 0.54889 0.88159 0.0
H792 H 0.42787 0.54716 0.92526 0.0
H793 H 0.42477 0.59403 0.92089 0.0
C794 C 0.4659 0.62469 0.88348 0.0
C795 C 0.49 0.63826 0.87119 0.0
C796 C 0.46762 0.598 0.89015 0.0
C797 C 0.51448 0.62501 0.85111 0.0
C798 C 0.51626 0.59839 0.85592 0.0
C799 C 0.49568 0.55859 0.89068 0.0
C800 C 0.47184 0.54429 0.90185 0.0
C801 C 0.49334 0.58495 0.87932 0.0
C802 C 0.44657 0.55751 0.91623 0.0
C803 C 0.44459 0.58425 0.91137 0.0
H804 H 0.90851 0.59515 0.90497 0.0
H805 H 0.83859 0.56115 0.803 0.0
H806 H 0.86715 0.52299 0.77606 0.0
H807 H 0.90889 0.49604 0.8033 0.0
H808 H 0.97386 0.52709 0.93211 0.0
H809 H 0.94799 0.56788 0.93905 0.0
C810 C 0.89922 0.57931 0.87773 0.0
C811 C 0.87095 0.58074 0.85975 0.0
C812 C 0.91422 0.55607 0.87217 0.0
C813 C 0.86015 0.56078 0.81881 0.0
C814 C 0.87626 0.53854 0.80504 0.0
C815 C 0.91729 0.5117 0.83341 0.0
C816 C 0.94295 0.50843 0.86872 0.0
C817 C 0.90268 0.53537 0.83574 0.0
C818 C 0.95391 0.52907 0.90569 0.0
C819 C 0.93958 0.55261 0.90777 0.0
H820 H 0.98573 0.17144 0.89794 0.0
H821 H 0.06528 0.16438 1.00129 0.0
H822 H 0.07264 0.12133 0.95249 0.0
H823 H 0.05279 0.0829 0.89736 0.0
H824 H 0.9743 0.09055 0.78869 0.0
H825 H 0.97034 0.13596 0.82088 0.0
C826 C 1.00532 0.16104 0.90629 0.0
C827 C 0.02521 0.17146 0.95196 0.0
C828 C 0.0093 0.136 0.87837 0.0
C829 C 0.05005 0.15722 0.96452 0.0
C830 C 0.05402 0.13232 0.93774 0.0
C831 C 0.03529 0.09477 0.87892 0.0
C832 C 0.01386 0.08341 0.84076 0.0
C833 C 0.03329 0.12107 0.89711 0.0
C834 C 0.99113 0.09892 0.81777 0.0
C835 C 0.98879 0.12488 0.83656 0.0
H836 H 0.37264 0.1053 0.95478 0.0
H837 H 0.34453 0.03775 0.06291 0.0
H838 H 0.37832 0.01122 0.99753 0.0
H839 H 0.41556 0.00685 0.90913 0.0
H840 H 0.44562 0.07383 0.80352 0.0
H841 H 0.41167 0.10104 0.86903 0.0
C842 C 0.37385 0.08477 0.96394 0.0
C843 C 0.35557 0.07356 0.01301 0.0
C844 C 0.39387 0.06957 0.92708 0.0
C845 C 0.35759 0.04688 0.02402 0.0
C846 C 0.3772 0.03169 0.98731 0.0
C847 C 0.41485 0.02747 0.90113 0.0
C848 C 0.43311 0.03842 0.85214 0.0
C849 C 0.39539 0.0428 0.93878 0.0
C850 C 0.43208 0.06509 0.842 0.0
C851 C 0.41249 0.08055 0.8789 0.0
H852 H 0.5391 0.33369 0.96742 0.0
H853 H 0.45037 0.34199 0.96052 0.0
H854 H 0.45339 0.37968 0.88228 0.0
H855 H 0.48192 0.41424 0.82945 0.0
H856 H 0.57104 0.40506 0.84296 0.0
H857 H 0.5671 0.36456 0.90405 0.0
C858 C 0.52042 0.34296 0.94575 0.0
C859 C 0.49456 0.33446 0.96825 0.0
C860 C 0.52238 0.36537 0.90362 0.0
C861 C 0.47055 0.34752 0.94214 0.0
C862 C 0.47232 0.36951 0.89862 0.0
C863 C 0.50044 0.40331 0.84533 0.0
C864 C 0.52672 0.4134 0.83192 0.0
C865 C 0.49819 0.37934 0.88133 0.0
C866 C 0.5504 0.39844 0.85262 0.0
C867 C 0.54828 0.37495 0.88768 0.0
H868 H 0.18008 0.45253 0.97759 0.0
H869 H 0.13537 0.38314 0.00392 0.0
H870 H 0.0974 0.40122 0.9309 0.0
H871 H 0.07516 0.43855 0.86568 0.0
H872 H 0.12252 0.50666 0.83881 0.0
H873 H 0.16075 0.48702 0.90382 0.0
C874 C 0.16246 0.44097 0.96597 0.0
C875 C 0.16064 0.41665 0.99755 0.0
C876 C 0.14066 0.45142 0.92394 0.0
C877 C 0.13724 0.40223 0.9819 0.0
C878 C 0.11541 0.41254 0.93993 0.0
C879 C 0.09384 0.44902 0.87399 0.0
C880 C 0.09534 0.47434 0.84792 0.0
C881 C 0.1165 0.43749 0.91205 0.0
C882 C 0.12012 0.48735 0.85866 0.0
C883 C 0.14234 0.47611 0.89593 0.0
H884 H 0.97094 0.85164 0.48426 0.0
H885 H 0.05071 0.81425 0.5214 0.0
H886 H 0.0629 0.84863 0.60319 0.0
H887 H 0.05316 0.89186 0.65191 0.0
H888 H 0.97322 0.92925 0.6169 0.0
H889 H 0.95878 0.89237 0.54685 0.0
C890 C 0.99075 0.8507 0.51165 0.0
C891 C 0.00992 0.83026 0.49646 0.0
C892 C 0.99774 0.87078 0.5581 0.0
C893 C 0.03546 0.82943 0.53252 0.0
C894 C 0.04255 0.84931 0.57869 0.0
C895 C 0.03238 0.89182 0.62996 0.0
C896 C 0.0144 0.91356 0.63916 0.0
C897 C 0.02422 0.87047 0.59005 0.0
C898 C 0.98749 0.91291 0.61091 0.0
C899 C 0.97929 0.89183 0.57045 0.0
H900 H 0.67709 0.95265 0.47559 0.0
H901 H 0.62479 0.89021 0.42241 0.0
H902 H 0.58857 0.90794 0.50023 0.0
H903 H 0.57042 0.94283 0.58028 0.0
H904 H 0.62574 0.00256 0.63887 0.0
H905 H 0.66165 0.98378 0.56452 0.0
C906 C 0.65814 0.94243 0.48196 0.0
C907 C 0.65383 0.92035 0.4412 0.0
C908 C 0.63747 0.95235 0.52828 0.0
C909 C 0.62868 0.90776 0.45073 0.0
C910 C 0.60785 0.91778 0.49592 0.0
C911 C 0.59036 0.95161 0.5771 0.0
C912 C 0.59478 0.97444 0.61486 0.0
C913 C 0.61173 0.94043 0.53414 0.0
C914 C 0.62113 0.98521 0.61034 0.0
C915 C 0.642 0.97448 0.56754 0.0
H916 H 0.46074 0.65717 0.48504 0.0
H917 H 0.54867 0.6636 0.50793 0.0
H918 H 0.55057 0.62659 0.58959 0.0
H919 H 0.52767 0.58836 0.64174 0.0
H920 H 0.43942 0.58275 0.61358 0.0
H921 H 0.43737 0.6227 0.54692 0.0
C922 C 0.48008 0.65131 0.51098 0.0
C923 C 0.50437 0.66377 0.49205 0.0
C924 C 0.48116 0.62924 0.55505 0.0
C925 C 0.52949 0.65506 0.52357 0.0
C926 C 0.53067 0.63341 0.56894 0.0
C927 C 0.50804 0.59597 0.62123 0.0
C928 C 0.4838 0.58216 0.63263 0.0
C929 C 0.50677 0.61962 0.58282 0.0
C930 C 0.4585 0.5927 0.60614 0.0
C931 C 0.45719 0.61573 0.56784 0.0
H932 H 0.86413 0.53732 0.3905 0.0
H933 H 0.84661 0.60146 0.52881 0.0
H934 H 0.87973 0.58371 0.61803 0.0
H935 H 0.91513 0.54966 0.65525 0.0
H936 H 0.93271 0.48684 0.5111 0.0
H937 H 0.8988 0.50433 0.42589 0.0
C938 C 0.86709 0.54704 0.44104 0.0
C939 C 0.85227 0.57016 0.45424 0.0
C940 C 0.88688 0.5372 0.49045 0.0
C941 C 0.85713 0.58317 0.5186 0.0
C942 C 0.87639 0.57318 0.56908 0.0
C943 C 0.91191 0.54021 0.60447 0.0
C944 C 0.92694 0.51718 0.58893 0.0
C945 C 0.89178 0.55031 0.55525 0.0
C946 C 0.92182 0.50476 0.52384 0.0
C947 C 0.9022 0.51462 0.47523 0.0
loop_
_geom_bond_atom_site_label_1
_geom_bond_atom_site_label_2
_geom_bond_distance
_geom_bond_site_symmetry_2
_ccdc_geom_bond_type
C0 C1 1.391 . S
C0 C4 1.391 . S
C0 H42 0.948 . S
C1 C0 1.391 . S
C1 C2 1.391 . S
C2 C1 1.391 . S
C2 H58 0.947 . S
C2 C59 1.392 . S
C3 C4 1.391 . S
C3 C7 1.397 . S
C3 C59 1.419 . S
C4 C0 1.391 . S
C4 C3 1.391 . S
C4 C5 1.399 . S
C5 C4 1.399 . S
C5 C8 1.396 . S
C5 C17 1.453 . S
C5 C18 1.684 . S
H6 C30 0.948 . S
C7 C3 1.397 . S
C7 C8 1.394 . S
C7 C26 1.723 . S
C8 C5 1.396 . S
C8 C7 1.394 . S
C8 C38 1.723 . S
H9 C32 0.947 . S
H10 C33 0.948 . S
H11 C39 0.982 . S
H12 C40 0.979 . S
H13 C40 0.980 . S
H14 C40 0.983 . S
H15 C39 0.979 . S
H16 C39 0.977 . S
C17 C5 1.453 . S
C17 H46 0.982 . S
C17 H47 0.979 . S
C17 H48 0.977 . S
C18 C5 1.684 . S
C18 H43 0.979 . S
C18 H44 0.980 . S
C18 H45 0.983 . S
C19 C20 1.391 . S
C19 C24 1.399 . S
C19 H49 0.948 . S
C20 C19 1.391 . S
C20 C21 1.391 . S
C21 C20 1.391 . S
C21 C22 1.392 . S
C21 H50 0.947 . S
C22 C21 1.392 . S
C22 C23 1.419 . S
C22 H51 0.948 . S
C23 C22 1.419 . S
C23 C24 1.395 . S
C23 C27 1.397 1_556 S
C24 C19 1.399 . S
C24 C23 1.395 . S
C24 C25 1.388 1_556 S
C25 C24 1.388 1_554 S
C25 C26 1.396 . S
C25 C28 1.453 . S
C25 C29 1.684 . S
C26 C7 1.723 . S
C26 C25 1.396 . S
C26 C27 1.394 . S
C27 C23 1.397 1_554 S
C27 C26 1.394 . S
C27 C37 1.723 . S
C28 C25 1.453 . S
C28 H52 0.982 . S
C28 H53 0.979 . S
C28 H54 0.977 . S
C29 C25 1.684 . S
C29 H55 0.979 . S
C29 H56 0.980 . S
C29 H57 0.983 . S
C30 H6 0.948 . S
C30 C31 1.391 1_556 S
C30 C35 1.391 1_556 S
C31 C30 1.391 1_554 S
C31 C32 1.391 . S
C32 H9 0.947 . S
C32 C31 1.391 . S
C32 C33 1.392 . S
C33 H10 0.948 . S
C33 C32 1.392 . S
C33 C34 1.419 . S
C34 C33 1.419 . S
C34 C35 1.391 . S
C34 C38 1.397 . S
C35 C30 1.391 1_554 S
C35 C34 1.391 . S
C35 C36 1.399 1_554 S
C36 C35 1.399 1_556 S
C36 C37 1.396 1_556 S
C36 C39 1.453 . S
C36 C40 1.684 . S
C37 C27 1.723 . S
C37 C36 1.396 1_554 S
C37 C38 1.394 . S
C38 C8 1.723 . S
C38 C34 1.397 . S
C38 C37 1.394 . S
C39 H11 0.982 . S
C39 H15 0.979 . S
C39 H16 0.977 . S
C39 C36 1.453 . S
C40 H12 0.979 . S
C40 H13 0.980 . S
C40 H14 0.983 . S
C40 C36 1.684 . S
H41 C59 0.948 . S
H42 C0 0.948 . S
H43 C18 0.979 . S
H44 C18 0.980 . S
H45 C18 0.983 . S
H46 C17 0.982 . S
H47 C17 0.979 . S
H48 C17 0.977 . S
H49 C19 0.948 . S
H50 C21 0.947 . S
H51 C22 0.948 . S
H52 C28 0.982 . S
H53 C28 0.979 . S
H54 C28 0.977 . S
H55 C29 0.979 . S
H56 C29 0.980 . S
H57 C29 0.983 . S
H58 C2 0.947 . S
C59 C2 1.392 . S
C59 C3 1.419 . S
C59 H41 0.948 . S
C60 C61 1.391 . S
C60 C64 1.391 . S
C60 H102 0.948 . S
C61 C60 1.391 . S
C61 C62 1.391 . S
C62 C61 1.391 . S
C62 H118 0.947 . S
C62 C119 1.392 1_556 S
C63 C64 1.391 1_554 S
C63 C67 1.397 1_655 S
C63 C119 1.419 . S
C64 C60 1.391 . S
C64 C63 1.391 1_556 S
C64 C65 1.399 . S
C65 C64 1.399 . S
C65 C68 1.396 1_656 S
C65 C77 1.453 1_655 S
C65 C78 1.684 . S
H66 C90 0.948 . S
C67 C63 1.397 1_455 S
C67 C68 1.394 . S
C67 C86 1.723 . S
C68 C65 1.396 1_454 S
C68 C67 1.394 . S
C68 C98 1.723 . S
H69 C92 0.947 . S
H70 C93 0.948 . S
H71 C99 0.982 . S
H72 C100 0.979 . S
H73 C100 0.980 . S
H74 C100 0.983 . S
H75 C99 0.979 . S
H76 C99 0.977 . S
C77 C65 1.453 1_455 S
C77 H106 0.982 . S
C77 H107 0.979 . S
C77 H108 0.977 . S
C78 C65 1.684 . S
C78 H103 0.979 . S
C78 H104 0.980 . S
C78 H105 0.983 . S
C79 C80 1.391 . S
C79 C84 1.391 . S
C79 H109 0.948 . S
C80 C79 1.391 . S
C80 C81 1.391 . S
C81 C80 1.391 . S
C81 C82 1.392 . S
C81 H110 0.947 . S
C82 C81 1.392 . S
C82 C83 1.419 . S
C82 H111 0.948 . S
C83 C82 1.419 . S
C83 C84 1.391 . S
C83 C87 1.397 1_655 S
C84 C79 1.391 . S
C84 C83 1.391 . S
C84 C85 1.399 . S
C85 C84 1.399 . S
C85 C86 1.396 1_655 S
C85 C88 1.453 1_655 S
C85 C89 1.684 . S
C86 C67 1.723 . S
C86 C85 1.396 1_455 S
C86 C87 1.394 . S
C87 C83 1.397 1_455 S
C87 C86 1.394 . S
C87 C97 1.723 . S
C88 C85 1.453 1_455 S
C88 H112 0.982 . S
C88 H113 0.979 . S
C88 H114 0.977 . S
C89 C85 1.684 . S
C89 H115 0.979 . S
C89 H116 0.980 . S
C89 H117 0.983 . S
C90 H66 0.948 . S
C90 C91 1.391 . S
C90 C95 1.391 . S
C91 C90 1.391 . S
C91 C92 1.391 1_554 S
C92 H69 0.947 . S
C92 C91 1.391 1_556 S
C92 C93 1.392 . S
C93 H70 0.948 . S
C93 C92 1.392 . S
C93 C94 1.419 1_556 S
C94 C93 1.419 1_554 S
C94 C95 1.391 . S
C94 C98 1.397 1_655 S
C95 C90 1.391 . S
C95 C94 1.391 . S
C95 C96 1.399 . S
C96 C95 1.399 . S
C96 C97 1.396 1_655 S
C96 C99 1.453 1_655 S
C96 C100 1.684 . S
C97 C87 1.723 . S
C97 C96 1.396 1_455 S
C97 C98 1.394 . S
C98 C68 1.723 . S
C98 C94 1.397 1_455 S
C98 C97 1.394 . S
C99 H71 0.982 . S
C99 H75 0.979 . S
C99 H76 0.977 . S
C99 C96 1.453 1_455 S
C100 H72 0.979 . S
C100 H73 0.980 . S
C100 H74 0.983 . S
C100 C96 1.684 . S
H101 C119 0.948 . S
H102 C60 0.948 . S
H103 C78 0.979 . S
H104 C78 0.980 . S
H105 C78 0.983 . S
H106 C77 0.982 . S
H107 C77 0.979 . S
H108 C77 0.977 . S
H109 C79 0.948 . S
H110 C81 0.947 . S
H111 C82 0.948 . S
H112 C88 0.982 . S
H113 C88 0.979 . S
H114 C88 0.977 . S
H115 C89 0.979 . S
H116 C89 0.980 . S
H117 C89 0.983 . S
H118 C62 0.947 . S
C119 C62 1.392 1_554 S
C119 C63 1.419 . S
C119 H101 0.948 . S
C120 C121 1.391 . S
C120 C124 1.391 . S
C120 H162 0.948 . S
C121 C120 1.391 . S
C121 C122 1.391 1_554 S
C122 C121 1.391 1_556 S
C122 H178 0.947 . S
C122 C179 1.392 . S
C123 C124 1.391 . S
C123 C127 1.397 . S
C123 C179 1.419 1_554 S
C124 C120 1.391 . S
C124 C123 1.391 . S
C124 C125 1.399 . S
C125 C124 1.399 . S
C125 C128 1.396 . S
C125 C137 1.453 . S
C125 C138 1.684 . S
H126 C150 0.948 . S
C127 C123 1.397 . S
C127 C128 1.394 . S
C127 C146 1.723 . S
C128 C125 1.396 . S
C128 C127 1.394 . S
C128 C158 1.723 . S
H129 C152 0.947 . S
H130 C153 0.948 . S
H131 C159 0.982 . S
H132 C160 0.979 . S
H133 C160 0.980 . S
H134 C160 0.983 . S
H135 C159 0.979 . S
H136 C159 0.977 . S
C137 C125 1.453 . S
C137 H166 0.982 . S
C137 H167 0.979 . S
C137 H168 0.977 . S
C138 C125 1.684 . S
C138 H163 0.979 . S
C138 H164 0.980 . S
C138 H165 0.983 . S
C139 C140 1.391 . S
C139 C144 1.391 . S
C139 H169 0.948 . S
C140 C139 1.391 . S
C140 C141 1.391 . S
C141 C140 1.391 . S
C141 C142 1.392 1_556 S
C141 H170 0.947 . S
C142 C141 1.392 1_554 S
C142 C143 1.419 . S
C142 H171 0.948 . S
C143 C142 1.419 . S
C143 C144 1.391 1_554 S
C143 C147 1.397 . S
C144 C139 1.391 . S
C144 C143 1.391 1_556 S
C144 C145 1.399 . S
C145 C144 1.399 . S
C145 C146 1.396 1_556 S
C145 C148 1.453 . S
C145 C149 1.684 . S
C146 C127 1.723 . S
C146 C145 1.396 1_554 S
C146 C147 1.394 . S
C147 C143 1.397 . S
C147 C146 1.394 . S
C147 C157 1.723 . S
C148 C145 1.453 . S
C148 H172 0.982 . S
C148 H173 0.979 . S
C148 H174 0.977 . S
C149 C145 1.684 . S
C149 H175 0.979 . S
C149 H176 0.980 . S
C149 H177 0.983 . S
C150 H126 0.948 . S
C150 C151 1.391 . S
C150 C155 1.391 . S
C151 C150 1.391 . S
C151 C152 1.391 . S
C152 H129 0.947 . S
C152 C151 1.391 . S
C152 C153 1.392 . S
C153 H130 0.948 . S
C153 C152 1.392 . S
C153 C154 1.419 . S
C154 C153 1.419 . S
C154 C155 1.391 . S
C154 C158 1.397 . S
C155 C150 1.391 . S
C155 C154 1.391 . S
C155 C156 1.399 . S
C156 C155 1.399 . S
C156 C157 1.396 . S
C156 C159 1.453 . S
C156 C160 1.684 . S
C157 C147 1.723 . S
C157 C156 1.396 . S
C157 C158 1.394 . S
C158 C128 1.723 . S
C158 C154 1.397 . S
C158 C157 1.394 . S
C159 H131 0.982 . S
C159 H135 0.979 . S
C159 H136 0.977 . S
C159 C156 1.453 . S
C160 H132 0.979 . S
C160 H133 0.980 . S
C160 H134 0.983 . S
C160 C156 1.684 . S
H161 C179 0.948 . S
H162 C120 0.948 . S
H163 C138 0.979 . S
H164 C138 0.980 . S
H165 C138 0.983 . S
H166 C137 0.982 . S
H167 C137 0.979 . S
H168 C137 0.977 . S
H169 C139 0.948 . S
H170 C141 0.947 . S
H171 C142 0.948 . S
H172 C148 0.982 . S
H173 C148 0.979 . S
H174 C148 0.977 . S
H175 C149 0.979 . S
H176 C149 0.980 . S
H177 C149 0.983 . S
H178 C122 0.947 . S
C179 C122 1.392 . S
C179 C123 1.419 1_556 S
C179 H161 0.948 . S
C180 C181 1.391 . S
C180 C184 1.391 . S
C180 H222 0.948 . S
C181 C180 1.391 . S
C181 C182 1.391 . S
C182 C181 1.391 . S
C182 H238 0.947 . S
C182 C239 1.392 . S
C183 C184 1.391 . S
C183 C187 1.397 . S
C183 C239 1.419 . S
C184 C180 1.391 . S
C184 C183 1.391 . S
C184 C185 1.399 . S
C185 C184 1.399 . S
C185 C188 1.396 . S
C185 C197 1.453 . S
C185 C198 1.684 . S
H186 C210 0.948 1_556 S
C187 C183 1.397 . S
C187 C188 1.394 . S
C187 C206 1.723 . S
C188 C185 1.396 . S
C188 C187 1.394 . S
C188 C218 1.723 . S
H189 C212 0.947 . S
H190 C213 0.948 . S
H191 C219 0.982 . S
H192 C220 0.979 . S
H193 C220 0.980 . S
H194 C220 0.983 . S
H195 C219 0.979 . S
H196 C219 0.977 . S
C197 C185 1.453 . S
C197 H226 0.982 . S
C197 H227 0.979 . S
C197 H228 0.977 . S
C198 C185 1.684 . S
C198 H223 0.979 . S
C198 H224 0.980 . S
C198 H225 0.983 . S
C199 C200 1.391 . S
C199 C204 1.391 1_556 S
C199 H229 0.948 . S
C200 C199 1.391 . S
C200 C201 1.391 . S
C201 C200 1.391 . S
C201 C202 1.392 . S
C201 H230 0.947 . S
C202 C201 1.392 . S
C202 C203 1.425 . S
C202 H231 0.948 . S
C203 C202 1.425 . S
C203 C204 1.389 1_556 S
C203 C207 1.391 1_556 S
C204 C199 1.391 1_554 S
C204 C203 1.389 1_554 S
C204 C205 1.399 . S
C205 C204 1.399 . S
C205 C206 1.396 . S
C205 C208 1.453 . S
C205 C209 1.684 . S
C206 C187 1.723 . S
C206 C205 1.396 . S
C206 C207 1.394 . S
C207 C203 1.391 1_554 S
C207 C206 1.394 . S
C207 C217 1.723 . S
C208 C205 1.453 . S
C208 H232 0.982 . S
C208 H233 0.979 . S
C208 H234 0.977 . S
C209 C205 1.684 . S
C209 H235 0.979 . S
C209 H236 0.980 . S
C209 H237 0.983 . S
C210 H186 0.948 1_554 S
C210 C211 1.391 . S
C210 C215 1.391 . S
C211 C210 1.391 . S
C211 C212 1.391 . S
C212 H189 0.947 . S
C212 C211 1.391 . S
C212 C213 1.392 . S
C213 H190 0.948 . S
C213 C212 1.392 . S
C213 C214 1.419 . S
C214 C213 1.419 . S
C214 C215 1.391 . S
C214 C218 1.397 . S
C215 C210 1.391 . S
C215 C214 1.391 . S
C215 C216 1.399 . S
C216 C215 1.399 . S
C216 C217 1.396 . S
C216 C219 1.453 1_554 S
C216 C220 1.684 1_554 S
C217 C207 1.723 . S
C217 C216 1.396 . S
C217 C218 1.394 . S
C218 C188 1.723 . S
C218 C214 1.397 . S
C218 C217 1.394 . S
C219 H191 0.982 . S
C219 H195 0.979 . S
C219 H196 0.977 . S
C219 C216 1.453 1_556 S
C220 H192 0.979 . S
C220 H193 0.980 . S
C220 H194 0.983 . S
C220 C216 1.684 1_556 S
H221 C239 0.948 . S
H222 C180 0.948 . S
H223 C198 0.979 . S
H224 C198 0.980 . S
H225 C198 0.983 . S
H226 C197 0.982 . S
H227 C197 0.979 . S
H228 C197 0.977 . S
H229 C199 0.948 . S
H230 C201 0.947 . S
H231 C202 0.948 . S
H232 C208 0.982 . S
H233 C208 0.979 . S
H234 C208 0.977 . S
H235 C209 0.979 . S
H236 C209 0.980 . S
H237 C209 0.983 . S
H238 C182 0.947 . S
C239 C182 1.392 . S
C239 C183 1.419 . S
C239 H221 0.948 . S
C240 C241 1.391 . S
C240 C244 1.391 . S
C240 H282 0.948 . S
C241 C240 1.391 . S
C241 C242 1.391 . S
C242 C241 1.391 . S
C242 H298 0.947 . S
C242 C299 1.392 . S
C243 C244 1.391 . S
C243 C247 1.397 . S
C243 C299 1.419 . S
C244 C240 1.391 . S
C244 C243 1.391 . S
C244 C245 1.399 . S
C245 C244 1.399 . S
C245 C248 1.396 . S
C245 C257 1.453 . S
C245 C258 1.684 . S
H246 C270 0.948 . S
C247 C243 1.397 . S
C247 C248 1.394 . S
C247 C266 1.723 . S
C248 C245 1.396 . S
C248 C247 1.394 . S
C248 C278 1.723 . S
H249 C272 0.947 . S
H250 C273 0.948 . S
H251 C279 0.982 . S
H252 C280 0.979 . S
H253 C280 0.980 . S
H254 C280 0.983 . S
H255 C279 0.979 . S
H256 C279 0.977 . S
C257 C245 1.453 . S
C257 H286 0.982 . S
C257 H287 0.979 . S
C257 H288 0.977 . S
C258 C245 1.684 . S
C258 H283 0.979 . S
C258 H284 0.980 . S
C258 H285 0.983 . S
C259 C260 1.391 . S
C259 C264 1.391 . S
C259 H289 0.948 . S
C260 C259 1.391 . S
C260 C261 1.391 . S
C261 C260 1.391 . S
C261 C262 1.392 . S
C261 H290 0.947 . S
C262 C261 1.392 . S
C262 C263 1.419 . S
C262 H291 0.948 . S
C263 C262 1.419 . S
C263 C264 1.391 . S
C263 C267 1.397 . S
C264 C259 1.391 . S
C264 C263 1.391 . S
C264 C265 1.399 . S
C265 C264 1.399 . S
C265 C266 1.396 . S
C265 C268 1.453 . S
C265 C269 1.684 . S
C266 C247 1.723 . S
C266 C265 1.396 . S
C266 C267 1.394 . S
C267 C263 1.397 . S
C267 C266 1.394 . S
C267 C277 1.723 . S
C268 C265 1.453 . S
C268 H292 0.982 . S
C268 H293 0.979 . S
C268 H294 0.977 . S
C269 C265 1.684 . S
C269 H295 0.979 . S
C269 H296 0.980 . S
C269 H297 0.983 . S
C270 H246 0.948 . S
C270 C271 1.391 . S
C270 C275 1.391 . S
C271 C270 1.391 . S
C271 C272 1.391 . S
C272 H249 0.947 . S
C272 C271 1.391 . S
C272 C273 1.392 . S
C273 H250 0.948 . S
C273 C272 1.392 . S
C273 C274 1.419 . S
C274 C273 1.419 . S
C274 C275 1.391 . S
C274 C278 1.397 . S
C275 C270 1.391 . S
C275 C274 1.391 . S
C275 C276 1.399 . S
C276 C275 1.399 . S
C276 C277 1.396 . S
C276 C279 1.453 . S
C276 C280 1.684 . S
C277 C267 1.723 . S
C277 C276 1.396 . S
C277 C278 1.394 . S
C278 C248 1.723 . S
C278 C274 1.397 . S
C278 C277 1.394 . S
C279 H251 0.982 . S
C279 H255 0.979 . S
C279 H256 0.977 . S
C279 C276 1.453 . S
C280 H252 0.979 . S
C280 H253 0.980 . S
C280 H254 0.983 . S
C280 C276 1.684 . S
H281 C299 0.948 . S
H282 C240 0.948 . S
H283 C258 0.979 . S
H284 C258 0.980 . S
H285 C258 0.983 . S
H286 C257 0.982 . S
H287 C257 0.979 . S
H288 C257 0.977 . S
H289 C259 0.948 . S
H290 C261 0.947 . S
H291 C262 0.948 . S
H292 C268 0.982 . S
H293 C268 0.979 . S
H294 C268 0.977 . S
H295 C269 0.979 . S
H296 C269 0.980 . S
H297 C269 0.983 . S
H298 C242 0.947 . S
C299 C242 1.392 . S
C299 C243 1.419 . S
C299 H281 0.948 . S
C300 C301 1.391 . S
C300 C304 1.391 . S
C300 H342 0.948 . S
C301 C300 1.391 . S
C301 C302 1.391 . S
C302 C301 1.391 . S
C302 H358 0.947 . S
C302 C359 1.392 . S
C303 C304 1.391 . S
C303 C307 1.396 1_655 S
C303 C359 1.419 . S
C304 C300 1.391 . S
C304 C303 1.391 . S
C304 C305 1.399 . S
C305 C304 1.399 . S
C305 C308 1.396 1_655 S
C305 C317 1.453 1_655 S
C305 C318 1.684 . S
H306 C330 0.948 . S
C307 C303 1.396 1_455 S
C307 C308 1.395 . S
C307 C326 1.723 . S
C308 C305 1.396 1_455 S
C308 C307 1.395 . S
C308 C338 1.723 . S
H309 C332 0.947 . S
H310 C333 0.948 . S
H311 C339 0.982 . S
H312 C340 0.979 . S
H313 C340 0.980 . S
H314 C340 0.983 . S
H315 C339 0.979 . S
H316 C339 0.977 . S
C317 C305 1.453 1_455 S
C317 H346 0.982 . S
C317 H347 0.979 . S
C317 H348 0.977 . S
C318 C305 1.684 . S
C318 H343 0.979 . S
C318 H344 0.980 . S
C318 H345 0.983 . S
C319 C320 1.391 . S
C319 C324 1.391 . S
C319 H349 0.948 . S
C320 C319 1.391 . S
C320 C321 1.391 . S
C321 C320 1.391 . S
C321 C322 1.392 . S
C321 H350 0.956 . S
C322 C321 1.392 . S
C322 C323 1.419 . S
C322 H351 0.948 . S
C323 C322 1.419 . S
C323 C324 1.391 . S
C323 C327 1.396 1_655 S
C324 C319 1.391 . S
C324 C323 1.391 . S
C324 C325 1.399 . S
C325 C324 1.399 . S
C325 C326 1.396 1_655 S
C325 C328 1.453 1_655 S
C325 C329 1.684 . S
C326 C307 1.723 . S
C326 C325 1.396 1_455 S
C326 C327 1.394 . S
C327 C323 1.396 1_455 S
C327 C326 1.394 . S
C327 C337 1.723 . S
C328 C325 1.453 1_455 S
C328 H352 0.982 . S
C328 H353 0.979 . S
C328 H354 0.977 . S
C329 C325 1.684 . S
C329 H355 0.979 . S
C329 H356 0.980 . S
C329 H357 0.983 . S
C330 H306 0.948 . S
C330 C331 1.391 . S
C330 C335 1.391 . S
C331 C330 1.391 . S
C331 C332 1.391 . S
C332 H309 0.947 . S
C332 C331 1.391 . S
C332 C333 1.392 . S
C333 H310 0.948 . S
C333 C332 1.392 . S
C333 C334 1.419 . S
C334 C333 1.419 . S
C334 C335 1.391 . S
C334 C338 1.397 1_655 S
C335 C330 1.391 . S
C335 C334 1.391 . S
C335 C336 1.399 . S
C336 C335 1.399 . S
C336 C337 1.396 1_655 S
C336 C339 1.453 1_655 S
C336 C340 1.684 . S
C337 C327 1.723 . S
C337 C336 1.396 1_455 S
C337 C338 1.395 . S
C338 C308 1.723 . S
C338 C334 1.397 1_455 S
C338 C337 1.395 . S
C339 H311 0.982 . S
C339 H315 0.979 . S
C339 H316 0.977 . S
C339 C336 1.453 1_455 S
C340 H312 0.979 . S
C340 H313 0.980 . S
C340 H314 0.983 . S
C340 C336 1.684 . S
H341 C359 0.948 . S
H342 C300 0.948 . S
H343 C318 0.979 . S
H344 C318 0.980 . S
H345 C318 0.983 . S
H346 C317 0.982 . S
H347 C317 0.979 . S
H348 C317 0.977 . S
H349 C319 0.948 . S
H350 C321 0.956 . S
H351 C322 0.948 . S
H352 C328 0.982 . S
H353 C328 0.979 . S
H354 C328 0.977 . S
H355 C329 0.979 . S
H356 C329 0.980 . S
H357 C329 0.983 . S
H358 C302 0.947 . S
C359 C302 1.392 . S
C359 C303 1.419 . S
C359 H341 0.948 . S
C360 C361 1.391 . S
C360 C364 1.391 . S
C360 H402 0.948 . S
C361 C360 1.391 . S
C361 C362 1.391 . S
C362 C361 1.391 . S
C362 H418 0.947 . S
C362 C419 1.392 . S
C363 C364 1.391 . S
C363 C367 1.397 . S
C363 C419 1.419 . S
C364 C360 1.391 . S
C364 C363 1.391 . S
C364 C365 1.399 . S
C365 C364 1.399 . S
C365 C368 1.396 . S
C365 C377 1.453 . S
C365 C378 1.684 . S
H366 C390 0.948 . S
C367 C363 1.397 . S
C367 C368 1.394 . S
C367 C386 1.723 . S
C368 C365 1.396 . S
C368 C367 1.394 . S
C368 C398 1.723 . S
H369 C392 0.947 . S
H370 C393 0.948 . S
H371 C399 0.982 . S
H372 C400 0.979 . S
H373 C400 0.980 . S
H374 C400 0.983 . S
H375 C399 0.979 . S
H376 C399 0.977 . S
C377 C365 1.453 . S
C377 H406 0.982 . S
C377 H407 0.979 . S
C377 H408 0.977 . S
C378 C365 1.684 . S
C378 H403 0.979 . S
C378 H404 0.980 . S
C378 H405 0.983 . S
C379 C380 1.391 . S
C379 C384 1.391 . S
C379 H409 0.948 . S
C380 C379 1.391 . S
C380 C381 1.391 . S
C381 C380 1.391 . S
C381 C382 1.392 . S
C381 H410 0.947 . S
C382 C381 1.392 . S
C382 C383 1.419 . S
C382 H411 0.948 . S
C383 C382 1.419 . S
C383 C384 1.391 . S
C383 C387 1.397 . S
C384 C379 1.391 . S
C384 C383 1.391 . S
C384 C385 1.399 . S
C385 C384 1.399 . S
C385 C386 1.396 . S
C385 C388 1.453 . S
C385 C389 1.684 . S
C386 C367 1.723 . S
C386 C385 1.396 . S
C386 C387 1.394 . S
C387 C383 1.397 . S
C387 C386 1.394 . S
C387 C397 1.723 . S
C388 C385 1.453 . S
C388 H412 0.982 . S
C388 H413 0.979 . S
C388 H414 0.977 . S
C389 C385 1.684 . S
C389 H415 0.979 . S
C389 H416 0.980 . S
C389 H417 0.983 . S
C390 H366 0.948 . S
C390 C391 1.391 . S
C390 C395 1.391 . S
C391 C390 1.391 . S
C391 C392 1.391 . S
C392 H369 0.947 . S
C392 C391 1.391 . S
C392 C393 1.392 . S
C393 H370 0.948 . S
C393 C392 1.392 . S
C393 C394 1.419 . S
C394 C393 1.419 . S
C394 C395 1.391 . S
C394 C398 1.397 . S
C395 C390 1.391 . S
C395 C394 1.391 . S
C395 C396 1.399 . S
C396 C395 1.399 . S
C396 C397 1.396 . S
C396 C399 1.453 . S
C396 C400 1.684 . S
C397 C387 1.723 . S
C397 C396 1.396 . S
C397 C398 1.394 . S
C398 C368 1.723 . S
C398 C394 1.397 . S
C398 C397 1.394 . S
C399 H371 0.982 . S
C399 H375 0.979 . S
C399 H376 0.977 . S
C399 C396 1.453 . S
C400 H372 0.979 . S
C400 H373 0.980 . S
C400 H374 0.983 . S
C400 C396 1.684 . S
H401 C419 0.948 . S
H402 C360 0.948 . S
H403 C378 0.979 . S
H404 C378 0.980 . S
H405 C378 0.983 . S
H406 C377 0.982 . S
H407 C377 0.979 . S
H408 C377 0.977 . S
H409 C379 0.948 . S
H410 C381 0.947 . S
H411 C382 0.948 . S
H412 C388 0.982 . S
H413 C388 0.979 . S
H414 C388 0.977 . S
H415 C389 0.979 . S
H416 C389 0.980 . S
H417 C389 0.983 . S
H418 C362 0.947 . S
C419 C362 1.392 . S
C419 C363 1.419 . S
C419 H401 0.948 . S
C420 C421 1.391 . S
C420 C424 1.391 . S
C420 H462 0.948 . S
C421 C420 1.391 . S
C421 C422 1.391 . S
C422 C421 1.391 . S
C422 H478 0.947 . S
C422 C479 1.392 . S
C423 C424 1.391 . S
C423 C427 1.397 . S
C423 C479 1.419 . S
C424 C420 1.391 . S
C424 C423 1.391 . S
C424 C425 1.399 . S
C425 C424 1.399 . S
C425 C428 1.396 . S
C425 C437 1.453 . S
C425 C438 1.684 . S
H426 C450 0.948 . S
C427 C423 1.397 . S
C427 C428 1.394 . S
C427 C446 1.723 . S
C428 C425 1.396 . S
C428 C427 1.394 . S
C428 C458 1.723 . S
H429 C452 0.947 . S
H430 C453 0.948 . S
H431 C459 0.982 . S
H432 C460 0.979 . S
H433 C460 0.980 . S
H434 C460 0.983 . S
H435 C459 0.979 . S
H436 C459 0.977 . S
C437 C425 1.453 . S
C437 H466 0.982 . S
C437 H467 0.979 . S
C437 H468 0.977 . S
C438 C425 1.684 . S
C438 H463 0.979 . S
C438 H464 0.980 . S
C438 H465 0.983 . S
C439 C440 1.391 . S
C439 C444 1.391 . S
C439 H469 0.948 . S
C440 C439 1.391 . S
C440 C441 1.391 . S
C441 C440 1.391 . S
C441 C442 1.392 . S
C441 H470 0.947 . S
C442 C441 1.392 . S
C442 C443 1.419 . S
C442 H471 0.948 . S
C443 C442 1.419 . S
C443 C444 1.391 . S
C443 C447 1.397 . S
C444 C439 1.391 . S
C444 C443 1.391 . S
C444 C445 1.399 . S
C445 C444 1.399 . S
C445 C446 1.396 . S
C445 C448 1.453 . S
C445 C449 1.684 . S
C446 C427 1.723 . S
C446 C445 1.396 . S
C446 C447 1.394 . S
C447 C443 1.397 . S
C447 C446 1.394 . S
C447 C457 1.723 . S
C448 C445 1.453 . S
C448 H472 0.982 . S
C448 H473 0.979 . S
C448 H474 0.977 . S
C449 C445 1.684 . S
C449 H475 0.979 . S
C449 H476 0.980 . S
C449 H477 0.983 . S
C450 H426 0.948 . S
C450 C451 1.391 . S
C450 C455 1.391 . S
C451 C450 1.391 . S
C451 C452 1.391 . S
C452 H429 0.947 . S
C452 C451 1.391 . S
C452 C453 1.392 . S
C453 H430 0.948 . S
C453 C452 1.392 . S
C453 C454 1.419 . S
C454 C453 1.419 . S
C454 C455 1.391 . S
C454 C458 1.397 . S
C455 C450 1.391 . S
C455 C454 1.391 . S
C455 C456 1.399 . S
C456 C455 1.399 . S
C456 C457 1.396 . S
C456 C459 1.453 . S
C456 C460 1.684 . S
C457 C447 1.723 . S
C457 C456 1.396 . S
C457 C458 1.394 . S
C458 C428 1.723 . S
C458 C454 1.397 . S
C458 C457 1.394 . S
C459 H431 0.982 . S
C459 H435 0.979 . S
C459 H436 0.977 . S
C459 C456 1.453 . S
C460 H432 0.979 . S
C460 H433 0.980 . S
C460 H434 0.983 . S
C460 C456 1.684 . S
H461 C479 0.948 . S
H462 C420 0.948 . S
H463 C438 0.979 . S
H464 C438 0.980 . S
H465 C438 0.983 . S
H466 C437 0.982 . S
H467 C437 0.979 . S
H468 C437 0.977 . S
H469 C439 0.948 . S
H470 C441 0.947 . S
H471 C442 0.948 . S
H472 C448 0.982 . S
H473 C448 0.979 . S
H474 C448 0.977 . S
H475 C449 0.979 . S
H476 C449 0.980 . S
H477 C449 0.983 . S
H478 C422 0.947 . S
C479 C422 1.392 . S
C479 C423 1.419 . S
C479 H461 0.948 . S
O480 Mg481 1.990 . S
O480 C494 1.253 . S
Mg481 O480 1.990 . S
Mg481 O484 2.180 1_565 S
Mg481 O485 2.117 . S
Mg481 O499 2.030 . S
O482 Mg483 2.072 1_465 S
O482 C494 1.260 . S
Mg483 O482 2.072 1_645 S
Mg483 O484 2.099 1_655 S
Mg483 O486 2.079 . S
Mg483 O487 2.072 1_655 S
Mg483 O489 2.099 . S
Mg483 O500 2.079 1_545 S
O484 Mg481 2.180 1_545 S
O484 Mg483 2.099 1_455 S
O484 C495 1.279 . S
O485 Mg481 2.117 . S
O485 C495 1.250 1_565 S
O486 Mg483 2.079 . S
O486 C496 1.264 . S
O487 Mg483 2.072 1_455 S
O487 C497 1.260 . S
Mg488 O489 2.180 . S
Mg488 O490 2.030 . S
Mg488 O491 1.990 . S
Mg488 O492 2.117 . S
O489 Mg483 2.099 . S
O489 Mg488 2.180 . S
O489 C498 1.279 . S
O490 Mg488 2.030 . S
O490 C496 1.248 . S
O491 Mg488 1.990 . S
O491 C497 1.253 1_655 S
O492 Mg488 2.117 . S
O492 C498 1.250 . S
C493 O499 1.248 1_655 S
C493 O500 1.264 . S
C494 O480 1.253 . S
C494 O482 1.260 . S
C495 O484 1.279 . S
C495 O485 1.250 1_545 S
C496 O486 1.264 . S
C496 O490 1.248 . S
C497 O487 1.260 . S
C497 O491 1.253 1_455 S
C498 O489 1.279 . S
C498 O492 1.250 . S
O499 Mg481 2.030 . S
O499 C493 1.248 1_455 S
O500 Mg483 2.079 1_565 S
O500 C493 1.264 . S
O501 Mg502 1.990 1_545 S
O501 C515 1.253 . S
Mg502 O501 1.990 1_565 S
Mg502 O505 2.180 . S
Mg502 O506 2.117 . S
Mg502 O520 2.030 1_565 S
O503 Mg504 2.072 . S
O503 C515 1.260 . S
Mg504 O503 2.072 . S
Mg504 O505 2.099 1_545 S
Mg504 O507 2.079 1_545 S
Mg504 O508 2.072 1_545 S
Mg504 O510 2.099 . S
Mg504 O521 2.079 . S
O505 Mg502 2.180 . S
O505 Mg504 2.099 1_565 S
O505 C516 1.279 . S
O506 Mg502 2.117 . S
O506 C516 1.250 . S
O507 Mg504 2.079 1_565 S
O507 C517 1.264 . S
O508 Mg504 2.072 1_565 S
O508 C518 1.260 1_565 S
Mg509 O510 2.180 . S
Mg509 O511 2.030 1_545 S
Mg509 O512 1.990 . S
Mg509 O513 2.117 . S
O510 Mg504 2.099 . S
O510 Mg509 2.180 . S
O510 C519 1.279 . S
O511 Mg509 2.030 1_565 S
O511 C517 1.248 . S
O512 Mg509 1.990 . S
O512 C518 1.253 . S
O513 Mg509 2.117 . S
O513 C519 1.250 . S
C514 O520 1.248 . S
C514 O521 1.264 . S
C515 O501 1.253 . S
C515 O503 1.260 . S
C516 O505 1.279 . S
C516 O506 1.250 . S
C517 O507 1.264 . S
C517 O511 1.248 . S
C518 O508 1.260 1_545 S
C518 O512 1.253 . S
C519 O510 1.279 . S
C519 O513 1.250 . S
O520 Mg502 2.030 1_545 S
O520 C514 1.248 . S
O521 Mg504 2.079 . S
O521 C514 1.264 . S
O522 Mg523 1.990 . S
O522 C536 1.253 . S
Mg523 O522 1.990 . S
Mg523 O526 2.180 . S
Mg523 O527 2.117 . S
Mg523 O541 2.030 . S
O524 Mg525 2.072 . S
O524 C536 1.260 . S
Mg525 O524 2.072 . S
Mg525 O526 2.099 . S
Mg525 O528 2.079 . S
Mg525 O529 2.072 . S
Mg525 O531 2.099 . S
Mg525 O542 2.079 . S
O526 Mg523 2.180 . S
O526 Mg525 2.099 . S
O526 C537 1.279 . S
O527 Mg523 2.117 . S
O527 C537 1.250 . S
O528 Mg525 2.079 . S
O528 C538 1.264 . S
O529 Mg525 2.072 . S
O529 C539 1.260 . S
Mg530 O531 2.180 . S
Mg530 O532 2.030 . S
Mg530 O533 1.990 . S
Mg530 O534 2.117 . S
O531 Mg525 2.099 . S
O531 Mg530 2.180 . S
O531 C540 1.279 . S
O532 Mg530 2.030 . S
O532 C538 1.248 . S
O533 Mg530 1.990 . S
O533 C539 1.253 . S
O534 Mg530 2.117 . S
O534 C540 1.250 . S
C535 O541 1.248 . S
C535 O542 1.264 . S
C536 O522 1.253 . S
C536 O524 1.260 . S
C537 O526 1.279 . S
C537 O527 1.250 . S
C538 O528 1.264 . S
C538 O532 1.248 . S
C539 O529 1.260 . S
C539 O533 1.253 . S
C540 O531 1.279 . S
C540 O534 1.250 . S
O541 Mg523 2.030 . S
O541 C535 1.248 . S
O542 Mg525 2.079 . S
O542 C535 1.264 . S
O543 Mg544 1.990 . S
O543 C557 1.253 . S
Mg544 O543 1.990 . S
Mg544 O547 2.180 . S
Mg544 O548 2.117 . S
Mg544 O562 2.030 . S
O545 Mg546 2.072 1_655 S
O545 C557 1.260 . S
Mg546 O545 2.072 1_455 S
Mg546 O547 2.099 1_455 S
Mg546 O549 2.079 . S
Mg546 O550 2.072 . S
Mg546 O552 2.099 . S
Mg546 O563 2.079 1_455 S
O547 Mg544 2.180 . S
O547 Mg546 2.099 1_655 S
O547 C558 1.279 . S
O548 Mg544 2.117 . S
O548 C558 1.250 . S
O549 Mg546 2.079 . S
O549 C559 1.264 . S
O550 Mg546 2.072 . S
O550 C560 1.260 . S
Mg551 O552 2.180 . S
Mg551 O553 2.030 . S
Mg551 O554 1.990 . S
Mg551 O555 2.117 . S
O552 Mg546 2.099 . S
O552 Mg551 2.180 . S
O552 C561 1.279 . S
O553 Mg551 2.030 . S
O553 C559 1.248 . S
O554 Mg551 1.990 . S
O554 C560 1.253 . S
O555 Mg551 2.117 . S
O555 C561 1.250 . S
C556 O562 1.248 . S
C556 O563 1.264 . S
C557 O543 1.253 . S
C557 O545 1.260 . S
C558 O547 1.279 . S
C558 O548 1.250 . S
C559 O549 1.264 . S
C559 O553 1.248 . S
C560 O550 1.260 . S
C560 O554 1.253 . S
C561 O552 1.279 . S
C561 O555 1.250 . S
O562 Mg544 2.030 . S
O562 C556 1.248 . S
O563 Mg546 2.079 1_655 S
O563 C556 1.264 . S
H564 C570 0.930 . S
H565 C573 0.930 . S
H566 C574 0.930 . S
H567 C575 0.930 . S
H568 C578 0.930 . S
H569 C579 0.930 . S
C570 H564 0.930 . S
C570 C571 1.355 . S
C570 C572 1.415 . S
C571 C570 1.355 . S
C571 C573 1.419 . S
C572 C570 1.415 . S
C572 C577 1.425 . S
C572 C579 1.409 . S
C573 H565 0.930 . S
C573 C571 1.419 . S
C573 C574 1.362 . S
C574 H566 0.930 . S
C574 C573 1.362 . S
C574 C577 1.409 . S
C575 H567 0.930 . S
C575 C576 1.355 . S
C575 C577 1.415 . S
C576 C575 1.355 . S
C576 C578 1.419 . S
C577 C572 1.425 . S
C577 C574 1.409 . S
C577 C575 1.415 . S
C578 H568 0.930 . S
C578 C576 1.419 . S
C578 C579 1.362 . S
C579 H569 0.930 . S
C579 C572 1.409 . S
C579 C578 1.362 . S
H580 C586 0.930 . S
H581 C589 0.930 . S
H582 C590 0.930 . S
H583 C591 0.930 . S
H584 C594 0.930 . S
H585 C595 0.930 . S
C586 H580 0.930 . S
C586 C587 1.355 . S
C586 C588 1.415 . S
C587 C586 1.355 . S
C587 C589 1.419 . S
C588 C586 1.415 . S
C588 C593 1.425 . S
C588 C595 1.409 . S
C589 H581 0.930 . S
C589 C587 1.419 . S
C589 C590 1.362 . S
C590 H582 0.930 . S
C590 C589 1.362 . S
C590 C593 1.409 . S
C591 H583 0.930 . S
C591 C592 1.355 . S
C591 C593 1.415 . S
C592 C591 1.355 . S
C592 C594 1.419 . S
C593 C588 1.425 . S
C593 C590 1.409 . S
C593 C591 1.415 . S
C594 H584 0.930 . S
C594 C592 1.419 . S
C594 C595 1.362 . S
C595 H585 0.930 . S
C595 C588 1.409 . S
C595 C594 1.362 . S
H596 C602 0.930 . S
H597 C605 0.930 . S
H598 C606 0.930 . S
H599 C607 0.930 . S
H600 C610 0.930 . S
H601 C611 0.930 . S
C602 H596 0.930 . S
C602 C603 1.355 . S
C602 C604 1.415 . S
C603 C602 1.355 . S
C603 C605 1.419 . S
C604 C602 1.415 . S
C604 C609 1.425 . S
C604 C611 1.409 . S
C605 H597 0.930 . S
C605 C603 1.419 . S
C605 C606 1.362 . S
C606 H598 0.930 . S
C606 C605 1.362 . S
C606 C609 1.409 . S
C607 H599 0.930 . S
C607 C608 1.355 . S
C607 C609 1.415 . S
C608 C607 1.355 . S
C608 C610 1.419 . S
C609 C604 1.425 . S
C609 C606 1.409 . S
C609 C607 1.415 . S
C610 H600 0.930 . S
C610 C608 1.419 . S
C610 C611 1.362 . S
C611 H601 0.930 . S
C611 C604 1.409 . S
C611 C610 1.362 . S
H612 C618 0.930 . S
H613 C621 0.930 . S
H614 C622 0.930 . S
H615 C623 0.930 . S
H616 C626 0.930 . S
H617 C627 0.930 . S
C618 H612 0.930 . S
C618 C619 1.355 1_455 S
C618 C620 1.415 . S
C619 C618 1.355 1_655 S
C619 C621 1.419 . S
C620 C618 1.415 . S
C620 C625 1.425 1_455 S
C620 C627 1.409 . S
C621 H613 0.930 . S
C621 C619 1.419 . S
C621 C622 1.362 . S
C622 H614 0.930 . S
C622 C621 1.362 . S
C622 C625 1.409 . S
C623 H615 0.930 . S
C623 C624 1.355 . S
C623 C625 1.415 . S
C624 C623 1.355 . S
C624 C626 1.419 1_655 S
C625 C620 1.425 1_655 S
C625 C622 1.409 . S
C625 C623 1.415 . S
C626 H616 0.930 . S
C626 C624 1.419 1_455 S
C626 C627 1.362 . S
C627 H617 0.930 . S
C627 C620 1.409 . S
C627 C626 1.362 . S
H628 C634 0.930 . S
H629 C637 0.930 . S
H630 C638 0.930 1_554 S
H631 C639 0.930 . S
H632 C642 0.930 . S
H633 C643 0.930 . S
C634 H628 0.930 . S
C634 C635 1.355 . S
C634 C636 1.415 . S
C635 C634 1.355 . S
C635 C637 1.419 1_556 S
C636 C634 1.415 . S
C636 C641 1.425 . S
C636 C643 1.409 . S
C637 H629 0.930 . S
C637 C635 1.419 1_554 S
C637 C638 1.362 1_554 S
C638 H630 0.930 1_556 S
C638 C637 1.362 1_556 S
C638 C641 1.409 . S
C639 H631 0.930 . S
C639 C640 1.355 . S
C639 C641 1.415 . S
C640 C639 1.355 . S
C640 C642 1.419 . S
C641 C636 1.425 . S
C641 C638 1.409 . S
C641 C639 1.415 . S
C642 H632 0.930 . S
C642 C640 1.419 . S
C642 C643 1.362 . S
C643 H633 0.930 . S
C643 C636 1.409 . S
C643 C642 1.362 . S
H644 C650 0.930 . S
H645 C653 0.930 . S
H646 C654 0.930 . S
H647 C655 0.930 . S
H648 C658 0.930 . S
H649 C659 0.930 . S
C650 H644 0.930 . S
C650 C651 1.355 1_556 S
C650 C652 1.415 . S
C651 C650 1.355 1_554 S
C651 C653 1.419 . S
C652 C650 1.415 . S
C652 C657 1.425 . S
C652 C659 1.409 . S
C653 H645 0.930 . S
C653 C651 1.419 . S
C653 C654 1.362 1_554 S
C654 H646 0.930 . S
C654 C653 1.362 1_556 S
C654 C657 1.409 . S
C655 H647 0.930 . S
C655 C656 1.355 . S
C655 C657 1.415 . S
C656 C655 1.355 . S
C656 C658 1.419 . S
C657 C652 1.425 . S
C657 C654 1.409 . S
C657 C655 1.415 . S
C658 H648 0.930 . S
C658 C656 1.419 . S
C658 C659 1.362 . S
C659 H649 0.930 . S
C659 C652 1.409 . S
C659 C658 1.362 . S
H660 C666 0.930 . S
H661 C669 0.930 . S
H662 C670 0.930 . S
H663 C671 0.930 . S
H664 C674 0.930 . S
H665 C675 0.930 . S
C666 H660 0.930 . S
C666 C667 1.355 . S
C666 C668 1.415 . S
C667 C666 1.355 . S
C667 C669 1.419 1_556 S
C668 C666 1.415 . S
C668 C673 1.425 . S
C668 C675 1.409 . S
C669 H661 0.930 . S
C669 C667 1.419 1_554 S
C669 C670 1.362 1_554 S
C670 H662 0.930 . S
C670 C669 1.362 1_556 S
C670 C673 1.409 . S
C671 H663 0.930 . S
C671 C672 1.355 . S
C671 C673 1.415 . S
C672 C671 1.355 . S
C672 C674 1.419 . S
C673 C668 1.425 . S
C673 C670 1.409 . S
C673 C671 1.415 . S
C674 H664 0.930 . S
C674 C672 1.419 . S
C674 C675 1.362 . S
C675 H665 0.930 . S
C675 C668 1.409 . S
C675 C674 1.362 . S
H676 C682 0.930 1_554 S
H677 C685 0.930 1_554 S
H678 C686 0.930 . S
H679 C687 0.930 . S
H680 C690 0.930 . S
H681 C691 0.930 . S
C682 H676 0.930 1_556 S
C682 C683 1.355 1_656 S
C682 C684 1.415 . S
C683 C682 1.355 1_454 S
C683 C685 1.419 1_554 S
C684 C682 1.415 . S
C684 C689 1.425 1_655 S
C684 C691 1.409 . S
C685 H677 0.930 1_556 S
C685 C683 1.419 1_556 S
C685 C686 1.362 . S
C686 H678 0.930 . S
C686 C685 1.362 . S
C686 C689 1.409 . S
C687 H679 0.930 . S
C687 C688 1.355 . S
C687 C689 1.415 . S
C688 C687 1.355 . S
C688 C690 1.419 1_455 S
C689 C684 1.425 1_455 S
C689 C686 1.409 . S
C689 C687 1.415 . S
C690 H680 0.930 . S
C690 C688 1.419 1_655 S
C690 C691 1.362 . S
C691 H681 0.930 . S
C691 C684 1.409 . S
C691 C690 1.362 . S
H692 C698 0.930 . S
H693 C701 0.930 . S
H694 C702 0.930 . S
H695 C703 0.930 . S
H696 C706 0.930 . S
H697 C707 0.930 . S
C698 H692 0.930 . S
C698 C699 1.355 1_455 S
C698 C700 1.415 . S
C699 C698 1.355 1_655 S
C699 C701 1.419 . S
C700 C698 1.415 . S
C700 C705 1.425 1_455 S
C700 C707 1.409 . S
C701 H693 0.930 . S
C701 C699 1.419 . S
C701 C702 1.362 . S
C702 H694 0.930 . S
C702 C701 1.362 . S
C702 C705 1.409 . S
C703 H695 0.930 . S
C703 C704 1.355 . S
C703 C705 1.415 . S
C704 C703 1.355 . S
C704 C706 1.419 1_655 S
C705 C700 1.425 1_655 S
C705 C702 1.409 . S
C705 C703 1.415 . S
C706 H696 0.930 . S
C706 C704 1.419 1_455 S
C706 C707 1.362 . S
C707 H697 0.930 . S
C707 C700 1.409 . S
C707 C706 1.362 . S
H708 C714 0.930 . S
H709 C717 0.930 . S
H710 C718 0.930 . S
H711 C719 0.930 . S
H712 C722 0.930 . S
H713 C723 0.930 . S
C714 H708 0.930 . S
C714 C715 1.355 . S
C714 C716 1.415 . S
C715 C714 1.355 . S
C715 C717 1.419 . S
C716 C714 1.415 . S
C716 C721 1.425 . S
C716 C723 1.409 . S
C717 H709 0.930 . S
C717 C715 1.419 . S
C717 C718 1.362 . S
C718 H710 0.930 . S
C718 C717 1.362 . S
C718 C721 1.409 . S
C719 H711 0.930 . S
C719 C720 1.355 . S
C719 C721 1.415 . S
C720 C719 1.355 . S
C720 C722 1.419 . S
C721 C716 1.425 . S
C721 C718 1.409 . S
C721 C719 1.415 . S
C722 H712 0.930 . S
C722 C720 1.419 . S
C722 C723 1.362 . S
C723 H713 0.930 . S
C723 C716 1.409 . S
C723 C722 1.362 . S
H724 C730 0.930 . S
H725 C733 0.930 . S
H726 C734 0.930 . S
H727 C735 0.930 . S
H728 C738 0.930 . S
H729 C739 0.930 . S
C730 H724 0.930 . S
C730 C731 1.355 . S
C730 C732 1.415 . S
C731 C730 1.355 . S
C731 C733 1.419 . S
C732 C730 1.415 . S
C732 C737 1.425 . S
C732 C739 1.409 . S
C733 H725 0.930 . S
C733 C731 1.419 . S
C733 C734 1.362 . S
C734 H726 0.930 . S
C734 C733 1.362 . S
C734 C737 1.409 . S
C735 H727 0.930 . S
C735 C736 1.355 . S
C735 C737 1.415 . S
C736 C735 1.355 . S
C736 C738 1.419 . S
C737 C732 1.425 . S
C737 C734 1.409 . S
C737 C735 1.415 . S
C738 H728 0.930 . S
C738 C736 1.419 . S
C738 C739 1.362 . S
C739 H729 0.930 . S
C739 C732 1.409 . S
C739 C738 1.362 . S
H740 C746 0.930 . S
H741 C749 0.930 . S
H742 C750 0.930 . S
H743 C751 0.930 . S
H744 C754 0.930 . S
H745 C755 0.930 . S
C746 H740 0.930 . S
C746 C747 1.355 . S
C746 C748 1.415 . S
C747 C746 1.355 . S
C747 C749 1.419 . S
C748 C746 1.415 . S
C748 C753 1.425 . S
C748 C755 1.409 . S
C749 H741 0.930 . S
C749 C747 1.419 . S
C749 C750 1.362 . S
C750 H742 0.930 . S
C750 C749 1.362 . S
C750 C753 1.409 . S
C751 H743 0.930 . S
C751 C752 1.355 . S
C751 C753 1.415 . S
C752 C751 1.355 . S
C752 C754 1.419 . S
C753 C748 1.425 . S
C753 C750 1.409 . S
C753 C751 1.415 . S
C754 H744 0.930 . S
C754 C752 1.419 . S
C754 C755 1.362 . S
C755 H745 0.930 . S
C755 C748 1.409 . S
C755 C754 1.362 . S
H756 C762 0.930 . S
H757 C765 0.930 . S
H758 C766 0.930 . S
H759 C767 0.930 . S
H760 C770 0.930 . S
H761 C771 0.930 1_655 S
C762 H756 0.930 . S
C762 C763 1.355 . S
C762 C764 1.415 1_655 S
C763 C762 1.355 . S
C763 C765 1.419 1_655 S
C764 C762 1.415 1_455 S
C764 C769 1.425 . S
C764 C771 1.409 . S
C765 H757 0.930 . S
C765 C763 1.419 1_455 S
C765 C766 1.362 . S
C766 H758 0.930 . S
C766 C765 1.362 . S
C766 C769 1.409 . S
C767 H759 0.930 . S
C767 C768 1.355 . S
C767 C769 1.415 . S
C768 C767 1.355 . S
C768 C770 1.419 . S
C769 C764 1.425 . S
C769 C766 1.409 . S
C769 C767 1.415 . S
C770 H760 0.930 . S
C770 C768 1.419 . S
C770 C771 1.362 . S
C771 H761 0.930 1_455 S
C771 C764 1.409 . S
C771 C770 1.362 . S
H772 C778 0.930 . S
H773 C781 0.930 . S
H774 C782 0.930 . S
H775 C783 0.930 1_545 S
H776 C786 0.930 . S
H777 C787 0.930 . S
C778 H772 0.930 . S
C778 C779 1.355 . S
C778 C780 1.415 . S
C779 C778 1.355 . S
C779 C781 1.419 . S
C780 C778 1.415 . S
C780 C785 1.425 . S
C780 C787 1.409 . S
C781 H773 0.930 . S
C781 C779 1.419 . S
C781 C782 1.362 . S
C782 H774 0.930 . S
C782 C781 1.362 . S
C782 C785 1.409 . S
C783 H775 0.930 1_565 S
C783 C784 1.355 . S
C783 C785 1.415 . S
C784 C783 1.355 . S
C784 C786 1.419 . S
C785 C780 1.425 . S
C785 C782 1.409 . S
C785 C783 1.415 . S
C786 H776 0.930 . S
C786 C784 1.419 . S
C786 C787 1.362 . S
C787 H777 0.930 . S
C787 C780 1.409 . S
C787 C786 1.362 . S
H788 C794 0.930 . S
H789 C797 0.930 . S
H790 C798 0.930 . S
H791 C799 0.930 . S
H792 C802 0.930 . S
H793 C803 0.930 . S
C794 H788 0.930 . S
C794 C795 1.355 . S
C794 C796 1.415 . S
C795 C794 1.355 . S
C795 C797 1.419 . S
C796 C794 1.415 . S
C796 C801 1.425 . S
C796 C803 1.409 . S
C797 H789 0.930 . S
C797 C795 1.419 . S
C797 C798 1.362 . S
C798 H790 0.930 . S
C798 C797 1.362 . S
C798 C801 1.409 . S
C799 H791 0.930 . S
C799 C800 1.355 . S
C799 C801 1.415 . S
C800 C799 1.355 . S
C800 C802 1.419 . S
C801 C796 1.425 . S
C801 C798 1.409 . S
C801 C799 1.415 . S
C802 H792 0.930 . S
C802 C800 1.419 . S
C802 C803 1.362 . S
C803 H793 0.930 . S
C803 C796 1.409 . S
C803 C802 1.362 . S
H804 C810 0.930 . S
H805 C813 0.930 . S
H806 C814 0.930 . S
H807 C815 0.930 . S
H808 C818 0.930 . S
H809 C819 0.930 . S
C810 H804 0.930 . S
C810 C811 1.355 . S
C810 C812 1.415 . S
C811 C810 1.355 . S
C811 C813 1.419 . S
C812 C810 1.415 . S
C812 C817 1.425 . S
C812 C819 1.409 . S
C813 H805 0.930 . S
C813 C811 1.419 . S
C813 C814 1.362 . S
C814 H806 0.930 . S
C814 C813 1.362 . S
C814 C817 1.409 . S
C815 H807 0.930 . S
C815 C816 1.355 . S
C815 C817 1.415 . S
C816 C815 1.355 . S
C816 C818 1.419 . S
C817 C812 1.425 . S
C817 C814 1.409 . S
C817 C815 1.415 . S
C818 H808 0.930 . S
C818 C816 1.419 . S
C818 C819 1.362 . S
C819 H809 0.930 . S
C819 C812 1.409 . S
C819 C818 1.362 . S
H820 C826 0.930 . S
H821 C829 0.930 . S
H822 C830 0.930 . S
H823 C831 0.930 . S
H824 C834 0.930 . S
H825 C835 0.930 . S
C826 H820 0.930 . S
C826 C827 1.355 1_655 S
C826 C828 1.415 . S
C827 C826 1.355 1_455 S
C827 C829 1.419 1_556 S
C828 C826 1.415 . S
C828 C833 1.425 1_655 S
C828 C835 1.409 . S
C829 H821 0.930 . S
C829 C827 1.419 1_554 S
C829 C830 1.362 . S
C830 H822 0.930 . S
C830 C829 1.362 . S
C830 C833 1.409 1_554 S
C831 H823 0.930 . S
C831 C832 1.355 . S
C831 C833 1.415 . S
C832 C831 1.355 . S
C832 C834 1.419 1_455 S
C833 C828 1.425 1_455 S
C833 C830 1.409 1_556 S
C833 C831 1.415 . S
C834 H824 0.930 . S
C834 C832 1.419 1_655 S
C834 C835 1.362 . S
C835 H825 0.930 . S
C835 C828 1.409 . S
C835 C834 1.362 . S
H836 C842 0.930 . S
H837 C845 0.930 . S
H838 C846 0.930 . S
H839 C847 0.930 . S
H840 C850 0.930 . S
H841 C851 0.930 . S
C842 H836 0.930 . S
C842 C843 1.355 . S
C842 C844 1.415 . S
C843 C842 1.355 . S
C843 C845 1.419 1_556 S
C844 C842 1.415 . S
C844 C849 1.425 . S
C844 C851 1.409 . S
C845 H837 0.930 . S
C845 C843 1.419 1_554 S
C845 C846 1.362 . S
C846 H838 0.930 . S
C846 C845 1.362 . S
C846 C849 1.409 1_554 S
C847 H839 0.930 . S
C847 C848 1.355 . S
C847 C849 1.415 . S
C848 C847 1.355 . S
C848 C850 1.419 . S
C849 C844 1.425 . S
C849 C846 1.409 1_556 S
C849 C847 1.415 . S
C850 H840 0.930 . S
C850 C848 1.419 . S
C850 C851 1.362 . S
C851 H841 0.930 . S
C851 C844 1.409 . S
C851 C850 1.362 . S
H852 C858 0.930 . S
H853 C861 0.930 1_554 S
H854 C862 0.930 . S
H855 C863 0.930 . S
H856 C866 0.930 . S
H857 C867 0.930 . S
C858 H852 0.930 . S
C858 C859 1.355 . S
C858 C860 1.415 . S
C859 C858 1.355 . S
C859 C861 1.419 . S
C860 C858 1.415 . S
C860 C865 1.425 . S
C860 C867 1.409 . S
C861 H853 0.930 1_556 S
C861 C859 1.419 . S
C861 C862 1.362 . S
C862 H854 0.930 . S
C862 C861 1.362 . S
C862 C865 1.409 . S
C863 H855 0.930 . S
C863 C864 1.355 . S
C863 C865 1.415 . S
C864 C863 1.355 . S
C864 C866 1.419 . S
C865 C860 1.425 . S
C865 C862 1.409 . S
C865 C863 1.415 . S
C866 H856 0.930 . S
C866 C864 1.419 . S
C866 C867 1.362 . S
C867 H857 0.930 . S
C867 C860 1.409 . S
C867 C866 1.362 . S
H868 C874 0.930 . S
H869 C877 0.930 . S
H870 C878 0.930 . S
H871 C879 0.930 . S
H872 C882 0.930 . S
H873 C883 0.930 . S
C874 H868 0.930 . S
C874 C875 1.355 . S
C874 C876 1.415 . S
C875 C874 1.355 . S
C875 C877 1.419 . S
C876 C874 1.415 . S
C876 C881 1.425 . S
C876 C883 1.409 . S
C877 H869 0.930 . S
C877 C875 1.419 . S
C877 C878 1.362 . S
C878 H870 0.930 . S
C878 C877 1.362 . S
C878 C881 1.409 . S
C879 H871 0.930 . S
C879 C880 1.355 . S
C879 C881 1.415 . S
C880 C879 1.355 . S
C880 C882 1.419 . S
C881 C876 1.425 . S
C881 C878 1.409 . S
C881 C879 1.415 . S
C882 H872 0.930 . S
C882 C880 1.419 . S
C882 C883 1.362 . S
C883 H873 0.930 . S
C883 C876 1.409 . S
C883 C882 1.362 . S
H884 C890 0.930 . S
H885 C893 0.930 . S
H886 C894 0.930 . S
H887 C895 0.930 . S
H888 C898 0.930 . S
H889 C899 0.930 . S
C890 H884 0.930 . S
C890 C891 1.333 1_655 S
C890 C892 1.415 . S
C891 C890 1.333 1_455 S
C891 C893 1.445 . S
C892 C890 1.415 . S
C892 C897 1.425 1_655 S
C892 C899 1.409 . S
C893 H885 0.930 . S
C893 C891 1.445 . S
C893 C894 1.362 . S
C894 H886 0.930 . S
C894 C893 1.362 . S
C894 C897 1.409 . S
C895 H887 0.930 . S
C895 C896 1.355 1_455 S
C895 C897 1.415 . S
C896 C895 1.355 1_655 S
C896 C898 1.419 . S
C897 C892 1.425 1_455 S
C897 C894 1.409 . S
C897 C895 1.415 . S
C898 H888 0.930 . S
C898 C896 1.419 . S
C898 C899 1.362 . S
C899 H889 0.930 . S
C899 C892 1.409 . S
C899 C898 1.362 . S
H900 C906 0.930 . S
H901 C909 0.930 . S
H902 C910 0.930 . S
H903 C911 0.930 . S
H904 C914 0.930 . S
H905 C915 0.930 . S
C906 H900 0.930 . S
C906 C907 1.355 . S
C906 C908 1.415 . S
C907 C906 1.355 . S
C907 C909 1.419 . S
C908 C906 1.415 . S
C908 C913 1.425 . S
C908 C915 1.409 . S
C909 H901 0.930 . S
C909 C907 1.419 . S
C909 C910 1.362 . S
C910 H902 0.930 . S
C910 C909 1.362 . S
C910 C913 1.409 . S
C911 H903 0.930 . S
C911 C912 1.355 . S
C911 C913 1.415 . S
C912 C911 1.355 . S
C912 C914 1.419 . S
C913 C908 1.425 . S
C913 C910 1.409 . S
C913 C911 1.415 . S
C914 H904 0.930 . S
C914 C912 1.419 . S
C914 C915 1.362 . S
C915 H905 0.930 . S
C915 C908 1.409 . S
C915 C914 1.362 . S
H916 C922 0.930 . S
H917 C925 0.930 . S
H918 C926 0.930 . S
H919 C927 0.930 . S
H920 C930 0.930 . S
H921 C931 0.930 . S
C922 H916 0.930 . S
C922 C923 1.355 . S
C922 C924 1.415 . S
C923 C922 1.355 . S
C923 C925 1.419 . S
C924 C922 1.415 . S
C924 C929 1.425 . S
C924 C931 1.409 . S
C925 H917 0.930 . S
C925 C923 1.419 . S
C925 C926 1.362 . S
C926 H918 0.930 . S
C926 C925 1.362 . S
C926 C929 1.409 . S
C927 H919 0.930 . S
C927 C928 1.355 . S
C927 C929 1.415 . S
C928 C927 1.355 . S
C928 C930 1.419 . S
C929 C924 1.425 . S
C929 C926 1.409 . S
C929 C927 1.415 . S
C930 H920 0.930 . S
C930 C928 1.419 . S
C930 C931 1.362 . S
C931 H921 0.930 . S
C931 C924 1.409 . S
C931 C930 1.362 . S
H932 C938 0.930 . S
H933 C941 0.930 . S
H934 C942 0.930 . S
H935 C943 0.930 . S
H936 C946 0.930 . S
H937 C947 0.930 . S
C938 H932 0.930 . S
C938 C939 1.355 . S
C938 C940 1.415 . S
C939 C938 1.355 . S
C939 C941 1.419 . S
C940 C938 1.415 . S
C940 C945 1.425 . S
C940 C947 1.409 . S
C941 H933 0.930 . S
C941 C939 1.419 . S
C941 C942 1.362 . S
C942 H934 0.930 . S
C942 C941 1.362 . S
C942 C945 1.409 . S
C943 H935 0.930 . S
C943 C944 1.355 . S
C943 C945 1.415 . S
C944 C943 1.355 . S
C944 C946 1.419 . S
C945 C940 1.425 . S
C945 C942 1.409 . S
C945 C943 1.415 . S
C946 H936 0.930 . S
C946 C944 1.419 . S
C946 C947 1.362 . S
C947 H937 0.930 . S
C947 C940 1.409 . S
C947 C946 1.362 . S
C571 C391 2.085 . S
C576 C495 2.010 . S
C592 C519 1.390 . S
C587 C451 1.685 . S
C608 C540 1.953 . S
C603 C241 1.767 . S
C624 C558 1.547 . S
C619 C331 1.558 . S
C640 C498 1.874 1_565 S
C635 C121 1.883 1_556 S
C651 C211 1.568 . S
C656 C516 1.261 . S
C667 C31 1.886 1_556 S
C672 C537 1.825 . S
C683 C91 1.449 1_455 S
C688 C561 1.422 . S
C704 C496 0.625 . S
C699 C301 0.666 . S
C720 C514 0.896 . S
C715 C380 0.876 . S
C736 C535 0.440 . S
C731 C440 0.404 . S
C747 C260 0.735 . S
C752 C559 0.887 . S
C763 C61 0.749 . S
C768 C494 0.659 . S
C784 C518 1.036 1_565 S
C779 C140 0.970 . S
C800 C539 0.526 . S
C795 C200 0.583 . S
C811 C20 0.858 . S
C816 C557 1.025 . S
C827 C320 2.018 1_456 S
C832 C497 1.953 . S
C843 C361 1.991 1_556 S
C848 C515 2.204 . S
C864 C536 1.909 . S
C859 C421 1.711 1_556 S
C880 C560 2.203 . S
C875 C271 2.209 1_556 S
C891 C80 1.907 1_455 S
C896 C493 1.860 . S
C912 C517 2.035 . S
C907 C151 2.141 . S
C928 C538 1.794 . S
C923 C181 1.698 . S
C939 C1 1.885 . S
C944 C556 2.085 . S
