# Generated by pormake.
# Topology bwt, (3,3)-cn, num edge types: 1
# Building blocks:
#     Node 0, Type 0, BuildingBlock: WUSLED_clean_sbu_0, # of connection points: 3
#     Node 1, Type 0, BuildingBlock: WUSLED_clean_sbu_0, # of connection points: 3
#     Node 2, Type 0, BuildingBlock: WUSLED_clean_sbu_0, # of connection points: 3
#     Node 3, Type 0, BuildingBlock: WUSLED_clean_sbu_0, # of connection points: 3
#     Node 4, Type 0, BuildingBlock: WUSLED_clean_sbu_0, # of connection points: 3
#     Node 5, Type 0, BuildingBlock: WUSLED_clean_sbu_0, # of connection points: 3
#     Node 6, Type 0, BuildingBlock: WUSLED_clean_sbu_0, # of connection points: 3
#     Node 7, Type 0, BuildingBlock: WUSLED_clean_sbu_0, # of connection points: 3
#     Node 8, Type 0, BuildingBlock: WUSLED_clean_sbu_0, # of connection points: 3
#     Node 9, Type 0, BuildingBlock: WUSLED_clean_sbu_0, # of connection points: 3
#     Node 10, Type 0, BuildingBlock: WUSLED_clean_sbu_0, # of connection points: 3
#     Node 11, Type 0, BuildingBlock: WUSLED_clean_sbu_0, # of connection points: 3
#     Node 12, Type 0, BuildingBlock: WUSLED_clean_sbu_0, # of connection points: 3
#     Node 13, Type 0, BuildingBlock: WUSLED_clean_sbu_0, # of connection points: 3
#     Node 14, Type 0, BuildingBlock: WUSLED_clean_sbu_0, # of connection points: 3
#     Node 15, Type 0, BuildingBlock: WUSLED_clean_sbu_0, # of connection points: 3
#     Node 16, Type 0, BuildingBlock: WUSLED_clean_sbu_0, # of connection points: 3
#     Node 17, Type 0, BuildingBlock: WUSLED_clean_sbu_0, # of connection points: 3
#     Node 18, Type 0, BuildingBlock: WUSLED_clean_sbu_0, # of connection points: 3
#     Node 19, Type 0, BuildingBlock: WUSLED_clean_sbu_0, # of connection points: 3
#     Node 20, Type 0, BuildingBlock: WUSLED_clean_sbu_0, # of connection points: 3
#     Node 21, Type 0, BuildingBlock: WUSLED_clean_sbu_0, # of connection points: 3
#     Node 22, Type 0, BuildingBlock: WUSLED_clean_sbu_0, # of connection points: 3
#     Node 23, Type 0, BuildingBlock: WUSLED_clean_sbu_0, # of connection points: 3
#     Node 24, Type 1, BuildingBlock: BETDIP_clean_linker_0, # of connection points: 3
#     Node 25, Type 1, BuildingBlock: BETDIP_clean_linker_0, # of connection points: 3
#     Node 26, Type 1, BuildingBlock: BETDIP_clean_linker_0, # of connection points: 3
#     Node 27, Type 1, BuildingBlock: BETDIP_clean_linker_0, # of connection points: 3
#     Node 28, Type 1, BuildingBlock: BETDIP_clean_linker_0, # of connection points: 3
#     Node 29, Type 1, BuildingBlock: BETDIP_clean_linker_0, # of connection points: 3
#     Node 30, Type 1, BuildingBlock: BETDIP_clean_linker_0, # of connection points: 3
#     Node 31, Type 1, BuildingBlock: BETDIP_clean_linker_0, # of connection points: 3
#     Node 32, Type 1, BuildingBlock: BETDIP_clean_linker_0, # of connection points: 3
#     Node 33, Type 1, BuildingBlock: BETDIP_clean_linker_0, # of connection points: 3
#     Node 34, Type 1, BuildingBlock: BETDIP_clean_linker_0, # of connection points: 3
#     Node 35, Type 1, BuildingBlock: BETDIP_clean_linker_0, # of connection points: 3
#     Node 36, Type 1, BuildingBlock: BETDIP_clean_linker_0, # of connection points: 3
#     Node 37, Type 1, BuildingBlock: BETDIP_clean_linker_0, # of connection points: 3
#     Node 38, Type 1, BuildingBlock: BETDIP_clean_linker_0, # of connection points: 3
#     Node 39, Type 1, BuildingBlock: BETDIP_clean_linker_0, # of connection points: 3
#     Node 40, Type 1, BuildingBlock: BETDIP_clean_linker_0, # of connection points: 3
#     Node 41, Type 1, BuildingBlock: BETDIP_clean_linker_0, # of connection points: 3
#     Node 42, Type 1, BuildingBlock: BETDIP_clean_linker_0, # of connection points: 3
#     Node 43, Type 1, BuildingBlock: BETDIP_clean_linker_0, # of connection points: 3
#     Node 44, Type 1, BuildingBlock: BETDIP_clean_linker_0, # of connection points: 3
#     Node 45, Type 1, BuildingBlock: BETDIP_clean_linker_0, # of connection points: 3
#     Node 46, Type 1, BuildingBlock: BETDIP_clean_linker_0, # of connection points: 3
#     Node 47, Type 1, BuildingBlock: BETDIP_clean_linker_0, # of connection points: 3
#     Edge 48, Type (0, 1), BuildingBlock: ZUJKAS_clean_linker_0, # of connection points: 2
#     Edge 49, Type (0, 1), BuildingBlock: ZUJKAS_clean_linker_0, # of connection points: 2
#     Edge 50, Type (0, 1), BuildingBlock: ZUJKAS_clean_linker_0, # of connection points: 2
#     Edge 51, Type (0, 1), BuildingBlock: ZUJKAS_clean_linker_0, # of connection points: 2
#     Edge 52, Type (0, 1), BuildingBlock: ZUJKAS_clean_linker_0, # of connection points: 2
#     Edge 53, Type (0, 1), BuildingBlock: ZUJKAS_clean_linker_0, # of connection points: 2
#     Edge 54, Type (0, 1), BuildingBlock: ZUJKAS_clean_linker_0, # of connection points: 2
#     Edge 55, Type (0, 1), BuildingBlock: ZUJKAS_clean_linker_0, # of connection points: 2
#     Edge 56, Type (0, 1), BuildingBlock: ZUJKAS_clean_linker_0, # of connection points: 2
#     Edge 57, Type (0, 1), BuildingBlock: ZUJKAS_clean_linker_0, # of connection points: 2
#     Edge 58, Type (0, 1), BuildingBlock: ZUJKAS_clean_linker_0, # of connection points: 2
#     Edge 59, Type (0, 1), BuildingBlock: ZUJKAS_clean_linker_0, # of connection points: 2
#     Edge 60, Type (0, 1), BuildingBlock: ZUJKAS_clean_linker_0, # of connection points: 2
#     Edge 61, Type (0, 1), BuildingBlock: ZUJKAS_clean_linker_0, # of connection points: 2
#     Edge 62, Type (0, 1), BuildingBlock: ZUJKAS_clean_linker_0, # of connection points: 2
#     Edge 63, Type (0, 1), BuildingBlock: ZUJKAS_clean_linker_0, # of connection points: 2
#     Edge 64, Type (0, 1), BuildingBlock: ZUJKAS_clean_linker_0, # of connection points: 2
#     Edge 65, Type (0, 1), BuildingBlock: ZUJKAS_clean_linker_0, # of connection points: 2
#     Edge 66, Type (0, 1), BuildingBlock: ZUJKAS_clean_linker_0, # of connection points: 2
#     Edge 67, Type (0, 1), BuildingBlock: ZUJKAS_clean_linker_0, # of connection points: 2
#     Edge 68, Type (0, 1), BuildingBlock: ZUJKAS_clean_linker_0, # of connection points: 2
#     Edge 69, Type (0, 1), BuildingBlock: ZUJKAS_clean_linker_0, # of connection points: 2
#     Edge 70, Type (0, 1), BuildingBlock: ZUJKAS_clean_linker_0, # of connection points: 2
#     Edge 71, Type (0, 1), BuildingBlock: ZUJKAS_clean_linker_0, # of connection points: 2
#     Edge 72, Type (0, 1), BuildingBlock: ZUJKAS_clean_linker_0, # of connection points: 2
#     Edge 73, Type (0, 1), BuildingBlock: ZUJKAS_clean_linker_0, # of connection points: 2
#     Edge 74, Type (0, 1), BuildingBlock: ZUJKAS_clean_linker_0, # of connection points: 2
#     Edge 75, Type (0, 1), BuildingBlock: ZUJKAS_clean_linker_0, # of connection points: 2
#     Edge 76, Type (0, 1), BuildingBlock: ZUJKAS_clean_linker_0, # of connection points: 2
#     Edge 77, Type (0, 1), BuildingBlock: ZUJKAS_clean_linker_0, # of connection points: 2
#     Edge 78, Type (0, 1), BuildingBlock: ZUJKAS_clean_linker_0, # of connection points: 2
#     Edge 79, Type (0, 1), BuildingBlock: ZUJKAS_clean_linker_0, # of connection points: 2
#     Edge 80, Type (0, 1), BuildingBlock: ZUJKAS_clean_linker_0, # of connection points: 2
#     Edge 81, Type (0, 1), BuildingBlock: ZUJKAS_clean_linker_0, # of connection points: 2
#     Edge 82, Type (0, 1), BuildingBlock: ZUJKAS_clean_linker_0, # of connection points: 2
#     Edge 83, Type (0, 1), BuildingBlock: ZUJKAS_clean_linker_0, # of connection points: 2
#     Edge 84, Type (0, 1), BuildingBlock: ZUJKAS_clean_linker_0, # of connection points: 2
#     Edge 85, Type (0, 1), BuildingBlock: ZUJKAS_clean_linker_0, # of connection points: 2
#     Edge 86, Type (0, 1), BuildingBlock: ZUJKAS_clean_linker_0, # of connection points: 2
#     Edge 87, Type (0, 1), BuildingBlock: ZUJKAS_clean_linker_0, # of connection points: 2
#     Edge 88, Type (0, 1), BuildingBlock: ZUJKAS_clean_linker_0, # of connection points: 2
#     Edge 89, Type (0, 1), BuildingBlock: ZUJKAS_clean_linker_0, # of connection points: 2
#     Edge 90, Type (0, 1), BuildingBlock: ZUJKAS_clean_linker_0, # of connection points: 2
#     Edge 91, Type (0, 1), BuildingBlock: ZUJKAS_clean_linker_0, # of connection points: 2
#     Edge 92, Type (0, 1), BuildingBlock: ZUJKAS_clean_linker_0, # of connection points: 2
#     Edge 93, Type (0, 1), BuildingBlock: ZUJKAS_clean_linker_0, # of connection points: 2
#     Edge 94, Type (0, 1), BuildingBlock: ZUJKAS_clean_linker_0, # of connection points: 2
#     Edge 95, Type (0, 1), BuildingBlock: ZUJKAS_clean_linker_0, # of connection points: 2
#     Edge 96, Type (0, 1), BuildingBlock: ZUJKAS_clean_linker_0, # of connection points: 2
#     Edge 97, Type (0, 1), BuildingBlock: ZUJKAS_clean_linker_0, # of connection points: 2
#     Edge 98, Type (0, 1), BuildingBlock: ZUJKAS_clean_linker_0, # of connection points: 2
#     Edge 99, Type (0, 1), BuildingBlock: ZUJKAS_clean_linker_0, # of connection points: 2
#     Edge 100, Type (0, 1), BuildingBlock: ZUJKAS_clean_linker_0, # of connection points: 2
#     Edge 101, Type (0, 1), BuildingBlock: ZUJKAS_clean_linker_0, # of connection points: 2
#     Edge 102, Type (0, 1), BuildingBlock: ZUJKAS_clean_linker_0, # of connection points: 2
#     Edge 103, Type (0, 1), BuildingBlock: ZUJKAS_clean_linker_0, # of connection points: 2
#     Edge 104, Type (0, 1), BuildingBlock: ZUJKAS_clean_linker_0, # of connection points: 2
#     Edge 105, Type (0, 1), BuildingBlock: ZUJKAS_clean_linker_0, # of connection points: 2
#     Edge 106, Type (0, 1), BuildingBlock: ZUJKAS_clean_linker_0, # of connection points: 2
#     Edge 107, Type (0, 1), BuildingBlock: ZUJKAS_clean_linker_0, # of connection points: 2
#     Edge 108, Type (0, 1), BuildingBlock: ZUJKAS_clean_linker_0, # of connection points: 2
#     Edge 109, Type (0, 1), BuildingBlock: ZUJKAS_clean_linker_0, # of connection points: 2
#     Edge 110, Type (0, 1), BuildingBlock: ZUJKAS_clean_linker_0, # of connection points: 2
#     Edge 111, Type (0, 1), BuildingBlock: ZUJKAS_clean_linker_0, # of connection points: 2
#     Edge 112, Type (0, 1), BuildingBlock: ZUJKAS_clean_linker_0, # of connection points: 2
#     Edge 113, Type (0, 1), BuildingBlock: ZUJKAS_clean_linker_0, # of connection points: 2
#     Edge 114, Type (0, 1), BuildingBlock: ZUJKAS_clean_linker_0, # of connection points: 2
#     Edge 115, Type (0, 1), BuildingBlock: ZUJKAS_clean_linker_0, # of connection points: 2
#     Edge 116, Type (0, 1), BuildingBlock: ZUJKAS_clean_linker_0, # of connection points: 2
#     Edge 117, Type (0, 1), BuildingBlock: ZUJKAS_clean_linker_0, # of connection points: 2
#     Edge 118, Type (0, 1), BuildingBlock: ZUJKAS_clean_linker_0, # of connection points: 2
#     Edge 119, Type (0, 1), BuildingBlock: ZUJKAS_clean_linker_0, # of connection points: 2
# Relax obj value: 0.121
# Max RMSD: 0.173
# Mean RMSD: 0.083
data_MOF--net-bwt--node1-WUSLED_clean_sbu_0--node2-BETDIP_clean_linker_0--edge1-ZUJKAS_clean_linker_0
_symmetry_space_group_name_H-M    P1
_symmetry_Int_Tables_number       1
_symmetry_cell_setting            triclinic
loop_
_symmetry_equiv_pos_as_xyz
'x, y, z'
_cell_length_a     84.794663
_cell_length_b     84.801045
_cell_length_c     84.786214
_cell_angle_alpha  95.441424
_cell_angle_beta   95.435332
_cell_angle_gamma 95.436743
loop_
_atom_site_label
_atom_site_type_symbol
_atom_site_fract_x
_atom_site_fract_y
_atom_site_fract_z
_atom_type_partial_charge
C0 C 0.3086 0.64463 0.34454 0.0
C1 C 0.32068 0.63907 0.35434 0.0
C2 C 0.33938 0.64348 0.33474 0.0
C3 C 0.3359 0.6385 0.3495 0.0
C4 C 0.32723 0.64914 0.32496 0.0
C5 C 0.31194 0.64972 0.32985 0.0
U6 U 0.28154 0.63383 0.37489 0.0
O7 O 0.26352 0.64632 0.38656 0.0
O8 O 0.25678 0.62283 0.37309 0.0
C9 C 0.25189 0.63525 0.38096 0.0
C10 C 0.29253 0.64462 0.34968 0.0
C11 C 0.23727 0.64088 0.3738 0.0
C12 C 0.22348 0.65744 0.35633 0.0
C13 C 0.23766 0.65216 0.36271 0.0
C14 C 0.20847 0.64005 0.37192 0.0
C15 C 0.20871 0.6515 0.36093 0.0
C16 C 0.22261 0.63484 0.3783 0.0
C17 C 0.30074 0.61383 0.40944 0.0
C18 C 0.28595 0.60259 0.42962 0.0
C19 C 0.31481 0.60469 0.43253 0.0
C20 C 0.31502 0.61141 0.41814 0.0
C21 C 0.30029 0.60025 0.43847 0.0
C22 C 0.28618 0.60939 0.41522 0.0
C23 C 0.30133 0.62112 0.39446 0.0
O24 O 0.28484 0.63037 0.34941 0.0
O25 O 0.29164 0.65377 0.36291 0.0
O26 O 0.29982 0.63644 0.39545 0.0
O27 O 0.29303 0.61303 0.3819 0.0
H28 H 0.31827 0.63498 0.36568 0.0
H29 H 0.34484 0.63379 0.35719 0.0
H30 H 0.32956 0.65316 0.31358 0.0
H31 H 0.30273 0.65403 0.32215 0.0
H32 H 0.2241 0.66632 0.34797 0.0
H33 H 0.2489 0.65692 0.35907 0.0
H34 H 0.19733 0.63495 0.37548 0.0
H35 H 0.22209 0.62605 0.38677 0.0
H36 H 0.27459 0.59945 0.43397 0.0
H37 H 0.32604 0.60286 0.43897 0.0
H38 H 0.32636 0.61475 0.4138 0.0
H39 H 0.27503 0.61125 0.40865 0.0
C40 C 0.19784 0.32762 0.76274 0.0
C41 C 0.18814 0.33566 0.77257 0.0
C42 C 0.16438 0.32182 0.75709 0.0
C43 C 0.1716 0.33279 0.7698 0.0
C44 C 0.17416 0.31371 0.74727 0.0
C45 C 0.19079 0.31658 0.7501 0.0
U46 U 0.23223 0.3538 0.78492 0.0
O47 O 0.25546 0.34888 0.79637 0.0
O48 O 0.25435 0.36527 0.77776 0.0
C49 C 0.26347 0.35775 0.7873 0.0
C50 C 0.21522 0.33131 0.76552 0.0
C51 C 0.27727 0.35119 0.78074 0.0
C52 C 0.29266 0.34507 0.75854 0.0
C53 C 0.27836 0.34882 0.76426 0.0
C54 C 0.30462 0.34513 0.78565 0.0
C55 C 0.3061 0.34367 0.76921 0.0
C56 C 0.29037 0.34889 0.79134 0.0
C57 C 0.22232 0.38716 0.8143 0.0
C58 C 0.2433 0.40525 0.82974 0.0
C59 C 0.21561 0.40887 0.83237 0.0
C60 C 0.21089 0.39564 0.82122 0.0
C61 C 0.23188 0.41381 0.83678 0.0
C62 C 0.23855 0.39204 0.81858 0.0
C63 C 0.21725 0.37336 0.80254 0.0
O64 O 0.22062 0.34502 0.76097 0.0
O65 O 0.2215 0.32898 0.77979 0.0
O66 O 0.22109 0.35962 0.80684 0.0
O67 O 0.22002 0.37547 0.78787 0.0
H68 H 0.19339 0.34435 0.78231 0.0
H69 H 0.16446 0.33948 0.7774 0.0
H70 H 0.16896 0.30513 0.73744 0.0
H71 H 0.19813 0.31031 0.74236 0.0
H72 H 0.29343 0.3441 0.74582 0.0
H73 H 0.26841 0.3505 0.75581 0.0
H74 H 0.31466 0.34386 0.79416 0.0
H75 H 0.28979 0.35064 0.80409 0.0
H76 H 0.25591 0.40886 0.83272 0.0
H77 H 0.20654 0.41508 0.83771 0.0
H78 H 0.19831 0.392 0.81803 0.0
H79 H 0.24753 0.38564 0.81326 0.0
C80 C 0.70347 0.96237 0.64745 0.0
C81 C 0.7165 0.96644 0.63908 0.0
C82 C 0.73483 0.96129 0.66142 0.0
C83 C 0.73202 0.96592 0.64599 0.0
C84 C 0.7217 0.95731 0.66982 0.0
C85 C 0.70613 0.95783 0.66285 0.0
U86 U 0.67735 0.96945 0.6113 0.0
O87 O 0.6553 0.95629 0.59894 0.0
O88 O 0.65572 0.98155 0.60778 0.0
C89 C 0.64707 0.96857 0.601 0.0
C90 C 0.68722 0.96267 0.63985 0.0
C91 C 0.6314 0.96536 0.60672 0.0
C92 C 0.61459 0.9625 0.62815 0.0
C93 C 0.62977 0.96422 0.6229 0.0
C94 C 0.60264 0.96255 0.60103 0.0
C95 C 0.60087 0.96195 0.61729 0.0
C96 C 0.61778 0.96425 0.59581 0.0
C97 C 0.69761 0.98176 0.57581 0.0
C98 C 0.68186 0.98507 0.55114 0.0
C99 C 0.71068 0.98939 0.55305 0.0
C100 C 0.71155 0.98585 0.56885 0.0
C101 C 0.69583 0.98889 0.54397 0.0
C102 C 0.68274 0.98153 0.56694 0.0
C103 C 0.69863 0.97744 0.59217 0.0
O104 O 0.68345 0.97687 0.63691 0.0
O105 O 0.683 0.95174 0.62774 0.0
O106 O 0.69344 0.96259 0.59359 0.0
O107 O 0.69359 0.98772 0.60264 0.0
H108 H 0.71465 0.97001 0.62716 0.0
H109 H 0.74184 0.96932 0.63929 0.0
H110 H 0.72346 0.95358 0.68167 0.0
H111 H 0.69618 0.9546 0.66945 0.0
H112 H 0.61361 0.9622 0.64077 0.0
H113 H 0.64021 0.96507 0.63148 0.0
H114 H 0.59231 0.96193 0.59235 0.0
H115 H 0.61885 0.96505 0.58327 0.0
H116 H 0.67025 0.98437 0.54442 0.0
H117 H 0.72164 0.99248 0.54793 0.0
H118 H 0.72311 0.98614 0.57559 0.0
H119 H 0.67186 0.97838 0.57218 0.0
C120 C 0.782 0.01381 0.2772 0.0
C121 C 0.76953 0.00922 0.26508 0.0
C122 C 0.75017 0.01016 0.28444 0.0
C123 C 0.75379 0.00746 0.26864 0.0
C124 C 0.76271 0.01471 0.29662 0.0
C125 C 0.77854 0.01655 0.29301 0.0
U126 U 0.8091 0.00499 0.24639 0.0
O127 O 0.82882 0.01917 0.23747 0.0
O128 O 0.83271 0.99633 0.24671 0.0
C129 C 0.83919 0.00923 0.24135 0.0
C130 C 0.79851 0.01515 0.27313 0.0
C131 C 0.85485 0.01638 0.24933 0.0
C132 C 0.87881 0.03437 0.2485 0.0
C133 C 0.86309 0.02886 0.2427 0.0
C134 C 0.87823 0.01541 0.26811 0.0
C135 C 0.88672 0.02742 0.26099 0.0
C136 C 0.86246 0.00993 0.26234 0.0
C137 C 0.78766 0.98261 0.20766 0.0
C138 C 0.80042 0.97693 0.1836 0.0
C139 C 0.77259 0.96767 0.18439 0.0
C140 C 0.77342 0.97446 0.20013 0.0
C141 C 0.78605 0.96891 0.1759 0.0
C142 C 0.80123 0.98372 0.1994 0.0
C143 C 0.78796 0.99012 0.22399 0.0
O144 O 0.80459 0.0015 0.27105 0.0
O145 O 0.80118 0.02438 0.26184 0.0
O146 O 0.79133 0.00567 0.22592 0.0
O147 O 0.79528 0.98287 0.23512 0.0
H148 H 0.77199 0.00686 0.25281 0.0
H149 H 0.74445 0.00367 0.25903 0.0
H150 H 0.76027 0.01696 0.30889 0.0
H151 H 0.78804 0.02003 0.30252 0.0
H152 H 0.88492 0.0438 0.2429 0.0
H153 H 0.85754 0.034 0.23263 0.0
H154 H 0.884 0.00968 0.27764 0.0
H155 H 0.85648 0.00024 0.26768 0.0
H156 H 0.81102 0.97797 0.17742 0.0
H157 H 0.76128 0.96183 0.17875 0.0
H158 H 0.76283 0.97355 0.20636 0.0
H159 H 0.81235 0.98995 0.20512 0.0
C160 C 0.3444 0.31214 0.64263 0.0
C161 C 0.34957 0.32183 0.6312 0.0
C162 C 0.33388 0.34255 0.64092 0.0
C163 C 0.34431 0.33684 0.6303 0.0
C164 C 0.32888 0.33292 0.65253 0.0
C165 C 0.33408 0.31778 0.65333 0.0
U166 U 0.37561 0.285 0.63379 0.0
O167 O 0.38691 0.26757 0.64759 0.0
O168 O 0.37418 0.25996 0.62392 0.0
C169 C 0.38131 0.25551 0.63698 0.0
C170 C 0.35018 0.29641 0.6436 0.0
C171 C 0.37369 0.24113 0.64304 0.0
C172 C 0.3721 0.22314 0.66376 0.0
C173 C 0.3782 0.23745 0.65856 0.0
C174 C 0.35674 0.21596 0.63811 0.0
C175 C 0.36143 0.21214 0.65353 0.0
C176 C 0.36282 0.23024 0.63292 0.0
C177 C 0.41028 0.30277 0.61298 0.0
C178 C 0.43011 0.2873 0.60197 0.0
C179 C 0.43366 0.31613 0.60364 0.0
C180 C 0.4193 0.3168 0.61036 0.0
C181 C 0.43926 0.30138 0.59941 0.0
C182 C 0.41574 0.28799 0.60877 0.0
C183 C 0.3953 0.30386 0.62017 0.0
O184 O 0.3501 0.28783 0.62983 0.0
O185 O 0.36344 0.2964 0.65298 0.0
O186 O 0.39623 0.30315 0.63564 0.0
O187 O 0.38272 0.2953 0.61239 0.0
H188 H 0.35775 0.31779 0.62299 0.0
H189 H 0.34858 0.34409 0.62143 0.0
H190 H 0.32082 0.337 0.66083 0.0
H191 H 0.33007 0.31051 0.66231 0.0
H192 H 0.37588 0.22061 0.67574 0.0
H193 H 0.3867 0.24547 0.66659 0.0
H194 H 0.3488 0.20765 0.6298 0.0
H195 H 0.35928 0.23252 0.62081 0.0
H196 H 0.43419 0.27577 0.59899 0.0
H197 H 0.44033 0.32717 0.60164 0.0
H198 H 0.41522 0.3283 0.61351 0.0
H199 H 0.40893 0.27703 0.61079 0.0
C200 C 0.27483 0.78157 0.01848 0.0
C201 C 0.26291 0.76872 0.01731 0.0
C202 C 0.28276 0.74995 0.01535 0.0
C203 C 0.26683 0.75309 0.01584 0.0
C204 C 0.29472 0.76285 0.01656 0.0
C205 C 0.29077 0.77856 0.01814 0.0
U206 U 0.24274 0.80724 0.00958 0.0
O207 O 0.23403 0.82751 0.02317 0.0
O208 O 0.24177 0.83004 0.99942 0.0
C209 C 0.23681 0.83712 0.01224 0.0
C210 C 0.27028 0.79791 0.01903 0.0
C211 C 0.24474 0.85308 0.01801 0.0
C212 C 0.2679 0.87278 0.02156 0.0
C213 C 0.26111 0.85704 0.01741 0.0
C214 C 0.24215 0.88051 0.02752 0.0
C215 C 0.25843 0.88475 0.02642 0.0
C216 C 0.2354 0.86484 0.02335 0.0
C217 C 0.20354 0.78415 0.99023 0.0
C218 C 0.17787 0.79469 0.98825 0.0
C219 C 0.18094 0.76914 0.97409 0.0
C220 C 0.197 0.77071 0.98002 0.0
C221 C 0.17111 0.78099 0.97834 0.0
C222 C 0.19398 0.79627 0.99414 0.0
C223 C 0.22024 0.78505 0.99692 0.0
O224 O 0.26722 0.803 0.005 0.0
O225 O 0.25956 0.80103 0.0288 0.0
O226 O 0.22304 0.78929 0.01233 0.0
O227 O 0.23069 0.79199 0.98862 0.0
H228 H 0.25049 0.77077 0.01727 0.0
H229 H 0.25732 0.74344 0.01465 0.0
H230 H 0.30711 0.76077 0.0163 0.0
H231 H 0.30011 0.78834 0.01889 0.0
H232 H 0.2805 0.87563 0.02073 0.0
H233 H 0.26855 0.84808 0.01339 0.0
H234 H 0.23443 0.88943 0.03095 0.0
H235 H 0.22273 0.86201 0.02384 0.0
H236 H 0.17061 0.80397 0.99185 0.0
H237 H 0.17619 0.75859 0.96625 0.0
H238 H 0.20427 0.76131 0.97679 0.0
H239 H 0.1989 0.80679 0.00196 0.0
C240 C 0.75682 0.20075 0.32193 0.0
C241 C 0.76565 0.18961 0.32899 0.0
C242 C 0.74624 0.16798 0.31646 0.0
C243 C 0.76044 0.17336 0.32624 0.0
C244 C 0.73764 0.1792 0.30912 0.0
C245 C 0.7429 0.19546 0.31185 0.0
U246 U 0.78247 0.23381 0.34784 0.0
O247 O 0.79428 0.2567 0.34243 0.0
O248 O 0.77669 0.25626 0.35987 0.0
C249 C 0.78596 0.26507 0.35182 0.0
C250 C 0.76155 0.21788 0.32593 0.0
C251 C 0.77891 0.27854 0.34524 0.0
C252 C 0.75616 0.2905 0.33372 0.0
C253 C 0.76315 0.27702 0.3381 0.0
C254 C 0.78086 0.30695 0.3429 0.0
C255 C 0.76485 0.30567 0.33638 0.0
C256 C 0.7878 0.29351 0.3473 0.0
C257 C 0.81174 0.22353 0.38079 0.0
C258 C 0.82428 0.2442 0.40107 0.0
C259 C 0.83253 0.21757 0.40037 0.0
C260 C 0.82144 0.21269 0.3871 0.0
C261 C 0.83405 0.23339 0.40754 0.0
C262 C 0.81328 0.23933 0.38778 0.0
C263 C 0.79987 0.21833 0.36708 0.0
O264 O 0.75788 0.22364 0.33989 0.0
O265 O 0.77611 0.22286 0.3232 0.0
O266 O 0.80407 0.22195 0.35323 0.0
O267 O 0.78527 0.2213 0.36929 0.0
H268 H 0.77637 0.19352 0.33694 0.0
H269 H 0.76722 0.16508 0.33227 0.0
H270 H 0.72675 0.17541 0.30141 0.0
H271 H 0.73593 0.20393 0.30635 0.0
H272 H 0.74386 0.28909 0.32857 0.0
H273 H 0.75611 0.26553 0.33635 0.0
H274 H 0.78784 0.31845 0.34532 0.0
H275 H 0.79997 0.2949 0.35285 0.0
H276 H 0.82493 0.25639 0.40641 0.0
H277 H 0.84001 0.209 0.4049 0.0
H278 H 0.82042 0.20045 0.38178 0.0
H279 H 0.80585 0.24786 0.38305 0.0
C280 C 0.64981 0.70564 0.96238 0.0
C281 C 0.64149 0.71891 0.9656 0.0
C282 C 0.66519 0.73672 0.96324 0.0
C283 C 0.6491 0.7343 0.96602 0.0
C284 C 0.67349 0.72336 0.95999 0.0
C285 C 0.66584 0.70792 0.95958 0.0
U286 U 0.61189 0.68022 0.96531 0.0
O287 O 0.60029 0.65848 0.95096 0.0
O288 O 0.60634 0.65848 0.97673 0.0
C289 C 0.60077 0.65005 0.9632 0.0
C290 C 0.64156 0.68954 0.96173 0.0
C291 C 0.60656 0.63435 0.96063 0.0
C292 C 0.62813 0.6175 0.95957 0.0
C293 C 0.62287 0.63269 0.96064 0.0
C294 C 0.60081 0.60561 0.958 0.0
C295 C 0.61716 0.60381 0.95856 0.0
C296 C 0.59558 0.62075 0.95904 0.0
C297 C 0.57558 0.70084 0.97396 0.0
C298 C 0.54958 0.68574 0.97203 0.0
C299 C 0.55305 0.71348 0.98293 0.0
C300 C 0.5692 0.71427 0.98063 0.0
C301 C 0.54304 0.69923 0.9785 0.0
C302 C 0.56573 0.68652 0.96983 0.0
C303 C 0.59248 0.70178 0.97139 0.0
O304 O 0.63692 0.68566 0.97535 0.0
O305 O 0.63048 0.68577 0.94968 0.0
O306 O 0.59541 0.69684 0.95689 0.0
O307 O 0.60177 0.69644 0.98253 0.0
H308 H 0.62906 0.71734 0.96769 0.0
H309 H 0.64228 0.7443 0.9683 0.0
H310 H 0.68594 0.72483 0.95796 0.0
H311 H 0.67242 0.69778 0.95707 0.0
H312 H 0.64081 0.6165 0.96017 0.0
H313 H 0.6315 0.64311 0.96188 0.0
H314 H 0.59206 0.5953 0.95701 0.0
H315 H 0.58294 0.62186 0.95898 0.0
H316 H 0.5422 0.67455 0.9687 0.0
H317 H 0.5483 0.72409 0.98783 0.0
H318 H 0.57669 0.7254 0.98394 0.0
H319 H 0.57053 0.67598 0.96482 0.0
C320 C 0.64694 0.34525 0.31104 0.0
C321 C 0.64106 0.3554 0.32261 0.0
C322 C 0.64624 0.33709 0.34247 0.0
C323 C 0.64072 0.35137 0.33817 0.0
C324 C 0.65233 0.32703 0.33085 0.0
C325 C 0.65268 0.3311 0.31525 0.0
U326 U 0.63392 0.37247 0.2812 0.0
O327 O 0.64532 0.38245 0.26155 0.0
O328 O 0.62224 0.36783 0.2567 0.0
C329 C 0.63428 0.37513 0.25064 0.0
C330 C 0.64633 0.3492 0.29452 0.0
C331 C 0.63969 0.3665 0.23646 0.0
C332 C 0.66063 0.35872 0.22044 0.0
C333 C 0.65595 0.36612 0.23448 0.0
C334 C 0.63294 0.35178 0.21027 0.0
C335 C 0.64916 0.35152 0.20816 0.0
C336 C 0.62827 0.35923 0.22421 0.0
C337 C 0.61183 0.40703 0.29733 0.0
C338 C 0.60571 0.42956 0.28302 0.0
C339 C 0.5942 0.42553 0.30761 0.0
C340 C 0.60206 0.41188 0.3089 0.0
C341 C 0.59603 0.43459 0.29473 0.0
C342 C 0.61352 0.41584 0.28428 0.0
C343 C 0.62026 0.39288 0.29925 0.0
O344 O 0.63193 0.34766 0.28693 0.0
O345 O 0.65472 0.36258 0.29249 0.0
O346 O 0.63554 0.39449 0.29744 0.0
O347 O 0.6128 0.37937 0.29229 0.0
H348 H 0.63646 0.36633 0.31953 0.0
H349 H 0.6357 0.35926 0.3467 0.0
H350 H 0.6568 0.31602 0.33382 0.0
H351 H 0.65723 0.32312 0.30643 0.0
H352 H 0.67321 0.35865 0.21919 0.0
H353 H 0.66506 0.37168 0.24365 0.0
H354 H 0.6238 0.3466 0.20093 0.0
H355 H 0.61568 0.35954 0.22531 0.0
H356 H 0.60722 0.43621 0.27287 0.0
H357 H 0.587 0.42919 0.31693 0.0
H358 H 0.60063 0.4052 0.31904 0.0
H359 H 0.62094 0.41218 0.27517 0.0
C360 C 0.01012 0.28134 0.77963 0.0
C361 C 0.01345 0.26999 0.76754 0.0
C362 C 0.00583 0.28717 0.74736 0.0
C363 C 0.01144 0.27293 0.7516 0.0
C364 C 0.00275 0.29865 0.75949 0.0
C365 C 0.00492 0.29576 0.7755 0.0
U366 U 0.00213 0.25023 0.80692 0.0
O367 O 0.01519 0.24349 0.82848 0.0
O368 O 0.99079 0.2501 0.82922 0.0
C369 C 0.00365 0.24637 0.83735 0.0
C370 C 0.01044 0.27741 0.79623 0.0
C371 C 0.00819 0.2554 0.85314 0.0
C372 C 0.02766 0.27097 0.87295 0.0
C373 C 0.0233 0.2639 0.85733 0.0
C374 C 0.00174 0.26156 0.88021 0.0
C375 C 0.01698 0.26972 0.88461 0.0
C376 C 0.99742 0.25447 0.86467 0.0
C377 C 0.98523 0.20936 0.78522 0.0
C378 C 0.98573 0.18342 0.79511 0.0
C379 C 0.96796 0.18665 0.77177 0.0
C380 C 0.97348 0.2028 0.77303 0.0
C381 C 0.97416 0.17674 0.78267 0.0
C382 C 0.99118 0.19964 0.79642 0.0
C383 C 0.99134 0.22622 0.78563 0.0
O384 O 0.99633 0.27388 0.80096 0.0
O385 O 0.02079 0.26754 0.80043 0.0
O386 O 0.00656 0.22991 0.79046 0.0
O387 O 0.98222 0.23654 0.79142 0.0
H388 H 0.01719 0.25863 0.77036 0.0
H389 H 0.01371 0.26377 0.74254 0.0
H390 H 0.99851 0.30978 0.75659 0.0
H391 H 0.00213 0.30459 0.78463 0.0
H392 H 0.03944 0.27728 0.87594 0.0
H393 H 0.03185 0.26483 0.84866 0.0
H394 H 0.9933 0.26012 0.88892 0.0
H395 H 0.98577 0.24786 0.86176 0.0
H396 H 0.99061 0.1761 0.80376 0.0
H397 H 0.9592 0.18183 0.76195 0.0
H398 H 0.96876 0.21014 0.76429 0.0
H399 H 1.00017 0.20452 0.80601 0.0
C400 C 0.32827 0.7574 0.20045 0.0
C401 C 0.33299 0.76738 0.1891 0.0
C402 C 0.3206 0.7477 0.16766 0.0
C403 C 0.32915 0.76261 0.17286 0.0
C404 C 0.31552 0.73791 0.17912 0.0
C405 C 0.31934 0.74274 0.1954 0.0
U406 U 0.35669 0.78277 0.23142 0.0
O407 O 0.354 0.79437 0.25519 0.0
O408 O 0.37131 0.77682 0.25245 0.0
C409 C 0.36446 0.78619 0.26235 0.0
C410 C 0.33385 0.7617 0.21739 0.0
C411 C 0.36019 0.77954 0.27695 0.0
C412 C 0.34115 0.7671 0.29293 0.0
C413 C 0.34474 0.77272 0.27851 0.0
C414 C 0.36847 0.77484 0.30412 0.0
C415 C 0.35297 0.76827 0.30596 0.0
C416 C 0.372 0.78043 0.28979 0.0
C417 C 0.38691 0.81292 0.21787 0.0
C418 C 0.40922 0.82555 0.23624 0.0
C419 C 0.4036 0.8354 0.2106 0.0
C420 C 0.39065 0.8237 0.2069 0.0
C421 C 0.41304 0.83641 0.2253 0.0
C422 C 0.39623 0.81395 0.23259 0.0
C423 C 0.37325 0.80071 0.21401 0.0
O424 O 0.34832 0.75817 0.22153 0.0
O425 O 0.33132 0.77606 0.22325 0.0
O426 O 0.35989 0.80453 0.21929 0.0
O427 O 0.37626 0.78617 0.21645 0.0
H428 H 0.34009 0.77868 0.19279 0.0
H429 H 0.33348 0.77032 0.16438 0.0
H430 H 0.30881 0.72642 0.1755 0.0
H431 H 0.31567 0.73485 0.20401 0.0
H432 H 0.3291 0.76213 0.29398 0.0
H433 H 0.33546 0.77189 0.26867 0.0
H434 H 0.37794 0.77559 0.31375 0.0
H435 H 0.38402 0.78557 0.28876 0.0
H436 H 0.4161 0.8262 0.24776 0.0
H437 H 0.40631 0.84356 0.20191 0.0
H438 H 0.38354 0.82307 0.1955 0.0
H439 H 0.39341 0.8058 0.24127 0.0
C440 C 0.96542 0.6447 0.70132 0.0
C441 C 0.96216 0.63584 0.71402 0.0
C442 C 0.96338 0.66024 0.73186 0.0
C443 C 0.96107 0.64353 0.72912 0.0
C444 C 0.96665 0.66909 0.7191 0.0
C445 C 0.96763 0.66136 0.70392 0.0
U446 U 0.97356 0.60724 0.67793 0.0
O447 O 0.96246 0.59447 0.6552 0.0
O448 O 0.98808 0.60242 0.65822 0.0
C449 C 0.97578 0.59579 0.64844 0.0
C450 C 0.96726 0.63643 0.68565 0.0
C451 C 0.97458 0.60113 0.63245 0.0
C452 C 0.97209 0.62186 0.61473 0.0
C453 C 0.9725 0.61699 0.63008 0.0
C454 C 0.97553 0.595 0.60405 0.0
C455 C 0.9738 0.61094 0.60156 0.0
C456 C 0.97592 0.59017 0.61935 0.0
C457 C 0.98142 0.57228 0.70138 0.0
C458 C 0.98837 0.54751 0.6884 0.0
C459 C 0.98348 0.54934 0.7162 0.0
C460 C 0.98056 0.56522 0.71559 0.0
C461 C 0.98733 0.54026 0.70259 0.0
C462 C 0.98541 0.56338 0.6878 0.0
C463 C 0.97782 0.58879 0.70077 0.0
O464 O 0.98173 0.63274 0.68384 0.0
O465 O 0.95615 0.62469 0.68051 0.0
O466 O 0.96373 0.59048 0.69365 0.0
O467 O 0.98929 0.59856 0.69658 0.0
H468 H 0.96064 0.62294 0.7123 0.0
H469 H 0.95881 0.63637 0.73874 0.0
H470 H 0.96842 0.68198 0.72085 0.0
H471 H 0.97027 0.66837 0.69428 0.0
H472 H 0.97089 0.63424 0.61323 0.0
H473 H 0.97145 0.6256 0.64011 0.0
H474 H 0.97664 0.58626 0.59415 0.0
H475 H 0.97745 0.57786 0.62099 0.0
H476 H 0.99147 0.54091 0.67777 0.0
H477 H 0.98233 0.54407 0.72723 0.0
H478 H 0.97743 0.57194 0.72615 0.0
H479 H 0.98613 0.5687 0.67673 0.0
C480 C 0.68745 0.34307 0.64587 0.0
C481 C 0.67466 0.34312 0.63409 0.0
C482 C 0.65629 0.34524 0.65439 0.0
C483 C 0.65924 0.34411 0.63829 0.0
C484 C 0.66906 0.34469 0.66614 0.0
C485 C 0.68453 0.34365 0.6619 0.0
U486 U 0.7166 0.35528 0.61759 0.0
O487 O 0.74126 0.36654 0.62119 0.0
O488 O 0.73563 0.34329 0.60699 0.0
C489 C 0.74684 0.35439 0.61353 0.0
C490 C 0.70389 0.34355 0.64151 0.0
C491 C 0.76116 0.34877 0.62142 0.0
C492 C 0.77708 0.34294 0.64514 0.0
C493 C 0.76286 0.34731 0.63783 0.0
C494 C 0.78782 0.34098 0.61963 0.0
C495 C 0.7898 0.33988 0.63613 0.0
C496 C 0.77365 0.3454 0.61237 0.0
C497 C 0.6992 0.37663 0.58294 0.0
C498 C 0.71464 0.39168 0.5656 0.0
C499 C 0.68609 0.38572 0.55929 0.0
C500 C 0.68535 0.37771 0.57288 0.0
C501 C 0.70073 0.39284 0.5555 0.0
C502 C 0.71389 0.38358 0.5792 0.0
C503 C 0.69792 0.36852 0.59739 0.0
O504 O 0.70576 0.3348 0.62829 0.0
O505 O 0.71153 0.35791 0.64265 0.0
O506 O 0.70535 0.3762 0.6106 0.0
O507 O 0.69969 0.35324 0.59593 0.0
H508 H 0.67664 0.34273 0.62162 0.0
H509 H 0.64964 0.34424 0.62893 0.0
H510 H 0.66721 0.34565 0.67864 0.0
H511 H 0.69427 0.3437 0.67116 0.0
H512 H 0.77816 0.34203 0.65784 0.0
H513 H 0.75329 0.34978 0.64502 0.0
H514 H 0.79742 0.33894 0.61237 0.0
H515 H 0.77256 0.3465 0.59969 0.0
H516 H 0.72611 0.3969 0.56291 0.0
H517 H 0.67514 0.38658 0.55188 0.0
H518 H 0.67391 0.37245 0.57563 0.0
H519 H 0.72473 0.3828 0.58683 0.0
C520 C 0.80214 0.6767 0.2447 0.0
C521 C 0.81079 0.6775 0.23141 0.0
C522 C 0.83577 0.68074 0.24867 0.0
C523 C 0.82742 0.67962 0.23339 0.0
C524 C 0.82705 0.68043 0.26198 0.0
C525 C 0.81039 0.67846 0.26 0.0
U526 U 0.76638 0.65091 0.22353 0.0
O527 O 0.74546 0.63872 0.23228 0.0
O528 O 0.74228 0.65621 0.21498 0.0
C529 C 0.73545 0.64686 0.22444 0.0
C530 C 0.78472 0.67258 0.2427 0.0
C531 C 0.72313 0.65349 0.23342 0.0
C532 C 0.71278 0.66156 0.2584 0.0
C533 C 0.72541 0.65709 0.25006 0.0
C534 C 0.69578 0.65969 0.23353 0.0
C535 C 0.69774 0.6626 0.25025 0.0
C536 C 0.70834 0.65515 0.22523 0.0
C537 C 0.77343 0.61879 0.19141 0.0
C538 C 0.75245 0.59809 0.18049 0.0
C539 C 0.7776 0.60013 0.16905 0.0
C540 C 0.78317 0.61323 0.18011 0.0
C541 C 0.76219 0.59236 0.16915 0.0
C542 C 0.758 0.61122 0.19149 0.0
C543 C 0.77953 0.63229 0.20323 0.0
O544 O 0.7772 0.67566 0.22921 0.0
O545 O 0.77997 0.65851 0.24687 0.0
O546 O 0.77853 0.62961 0.21813 0.0
O547 O 0.77506 0.64617 0.20004 0.0
H548 H 0.80474 0.67608 0.21945 0.0
H549 H 0.83372 0.68009 0.22289 0.0
H550 H 0.83306 0.68105 0.27391 0.0
H551 H 0.80395 0.67774 0.2704 0.0
H552 H 0.71469 0.66388 0.27126 0.0
H553 H 0.73677 0.65601 0.25664 0.0
H554 H 0.6843 0.66015 0.22689 0.0
H555 H 0.70634 0.65238 0.21241 0.0
H556 H 0.7406 0.59229 0.18104 0.0
H557 H 0.78532 0.5962 0.16033 0.0
H558 H 0.7951 0.61899 0.17987 0.0
H559 H 0.75033 0.61538 0.20016 0.0
C560 C 0.30054 0.02172 0.35974 0.0
C561 C 0.28826 0.01493 0.36772 0.0
C562 C 0.2685 0.02056 0.34684 0.0
C563 C 0.27242 0.01433 0.36133 0.0
C564 C 0.28086 0.02739 0.33887 0.0
C565 C 0.29679 0.02794 0.34528 0.0
U566 U 0.32775 0.01858 0.39619 0.0
O567 O 0.35014 0.00792 0.40061 0.0
O568 O 0.34928 0.0334 0.40761 0.0
C569 C 0.35822 0.0216 0.40629 0.0
C570 C 0.31708 0.02288 0.36708 0.0
C571 C 0.37342 0.02508 0.39972 0.0
C572 C 0.38864 0.02882 0.37727 0.0
C573 C 0.37396 0.0267 0.38347 0.0
C574 C 0.4023 0.02814 0.4036 0.0
C575 C 0.403 0.02933 0.38724 0.0
C576 C 0.38764 0.02602 0.40976 0.0
C577 C 0.3072 0.0078 0.43245 0.0
C578 C 0.32146 0.00875 0.45878 0.0
C579 C 0.29319 0.99993 0.45454 0.0
C580 C 0.29317 0.00211 0.43842 0.0
C581 C 0.30728 0.00346 0.46496 0.0
C582 C 0.32141 0.0109 0.44263 0.0
C583 C 0.30672 0.01096 0.41572 0.0
O584 O 0.32084 0.03467 0.37844 0.0
O585 O 0.32192 0.00935 0.37097 0.0
O586 O 0.31255 0.00037 0.4062 0.0
O587 O 0.31127 0.02573 0.41338 0.0
H588 H 0.29092 0.01027 0.37902 0.0
H589 H 0.2632 0.00927 0.36793 0.0
H590 H 0.27822 0.03221 0.32765 0.0
H591 H 0.30613 0.03332 0.33903 0.0
H592 H 0.38877 0.02987 0.36465 0.0
H593 H 0.36305 0.02603 0.37556 0.0
H594 H 0.41309 0.02825 0.41157 0.0
H595 H 0.3874 0.02473 0.42234 0.0
H596 H 0.33246 0.01174 0.46651 0.0
H597 H 0.28214 0.99562 0.45888 0.0
H598 H 0.28212 0.99958 0.43066 0.0
H599 H 0.33237 0.01529 0.43815 0.0
C600 C 0.21959 0.99016 0.72089 0.0
C601 C 0.22984 0.00376 0.72715 0.0
C602 C 0.25156 0.99355 0.7139 0.0
C603 C 0.24561 0.00548 0.72362 0.0
C604 C 0.24123 0.98 0.70752 0.0
C605 C 0.22536 0.97834 0.71096 0.0
U606 U 0.19377 0.99612 0.75366 0.0
O607 O 0.16977 0.00347 0.755 0.0
O608 O 0.17527 0.9804 0.76275 0.0
C609 C 0.16427 0.99003 0.76006 0.0
C610 C 0.20352 0.98763 0.72607 0.0
C611 C 0.14876 0.98263 0.75225 0.0
C612 C 0.12883 0.97758 0.72928 0.0
C613 C 0.14434 0.98314 0.73593 0.0
C614 C 0.12227 0.97031 0.75502 0.0
C615 C 0.11753 0.97137 0.73883 0.0
C616 C 0.13772 0.9759 0.76164 0.0
C617 C 0.21555 0.01802 0.79232 0.0
C618 C 0.20232 0.02515 0.81576 0.0
C619 C 0.23111 0.02929 0.81693 0.0
C620 C 0.2303 0.02322 0.80096 0.0
C621 C 0.21715 0.0303 0.82455 0.0
C622 C 0.20153 0.01903 0.79975 0.0
C623 C 0.21511 0.01128 0.7757 0.0
O624 O 0.20233 0.97793 0.7372 0.0
O625 O 0.1964 0.00059 0.72886 0.0
O626 O 0.20689 0.0185 0.76516 0.0
O627 O 0.2126 0.99568 0.77326 0.0
H628 H 0.22578 0.01291 0.73514 0.0
H629 H 0.2533 0.01592 0.72897 0.0
H630 H 0.24544 0.97062 0.7 0.0
H631 H 0.21772 0.96766 0.70618 0.0
H632 H 0.1256 0.97841 0.71674 0.0
H633 H 0.15273 0.98822 0.72845 0.0
H634 H 0.11384 0.96583 0.76277 0.0
H635 H 0.14091 0.97546 0.77426 0.0
H636 H 0.19135 0.02587 0.82124 0.0
H637 H 0.24273 0.03284 0.8234 0.0
H638 H 0.24122 0.02242 0.79539 0.0
H639 H 0.19003 0.01502 0.7932 0.0
C640 C 0.6469 0.68845 0.34818 0.0
C641 C 0.63845 0.67753 0.35653 0.0
C642 C 0.65408 0.65657 0.34712 0.0
C643 C 0.64201 0.66177 0.35603 0.0
C644 C 0.66231 0.6675 0.33849 0.0
C645 C 0.65873 0.68333 0.33902 0.0
U646 U 0.62132 0.71914 0.36319 0.0
O647 O 0.62713 0.74357 0.3749 0.0
O648 O 0.6113 0.73915 0.35252 0.0
C649 C 0.61926 0.74985 0.36336 0.0
C650 C 0.64338 0.70514 0.34929 0.0
C651 C 0.62746 0.76414 0.35774 0.0
C652 C 0.63425 0.78027 0.33657 0.0
C653 C 0.62773 0.76594 0.34144 0.0
C654 C 0.64067 0.79103 0.36416 0.0
C655 C 0.64065 0.79304 0.34788 0.0
C656 C 0.63411 0.77678 0.36901 0.0
C657 C 0.58744 0.70424 0.38665 0.0
C658 C 0.57237 0.72151 0.40258 0.0
C659 C 0.56315 0.69346 0.39651 0.0
C660 C 0.57623 0.69134 0.38797 0.0
C661 C 0.56106 0.70857 0.40395 0.0
C662 C 0.58543 0.71937 0.39396 0.0
C663 C 0.60107 0.70165 0.37758 0.0
O664 O 0.62976 0.70761 0.34165 0.0
O665 O 0.64583 0.71261 0.36376 0.0
O666 O 0.61506 0.70804 0.38446 0.0
O667 O 0.59888 0.70357 0.36236 0.0
H668 H 0.62923 0.68128 0.36362 0.0
H669 H 0.63559 0.65377 0.36299 0.0
H670 H 0.67153 0.66383 0.33137 0.0
H671 H 0.66527 0.69159 0.33239 0.0
H672 H 0.63416 0.78141 0.32395 0.0
H673 H 0.62266 0.75644 0.33244 0.0
H674 H 0.64525 0.80069 0.37319 0.0
H675 H 0.63387 0.77578 0.38164 0.0
H676 H 0.57123 0.73326 0.40827 0.0
H677 H 0.55454 0.6833 0.39704 0.0
H678 H 0.57756 0.67959 0.38232 0.0
H679 H 0.59397 0.7295 0.39302 0.0
C680 C 0.71863 0.2238 0.99632 0.0
C681 C 0.7298 0.23559 0.99213 0.0
C682 C 0.71243 0.256 0.99842 0.0
C683 C 0.72669 0.25149 0.99306 0.0
C684 C 0.70123 0.24419 0.00258 0.0
C685 C 0.70429 0.22819 0.00149 0.0
U686 U 0.75052 0.1974 0.00367 0.0
O687 O 0.75217 0.17597 0.01628 0.0
O688 O 0.75679 0.17537 0.99114 0.0
C689 C 0.7554 0.1673 0.00353 0.0
C690 C 0.72269 0.20731 0.99669 0.0
C691 C 0.74701 0.15116 0.00039 0.0
C692 C 0.72642 0.1317 0.98607 0.0
C693 C 0.7333 0.14751 0.98952 0.0
C694 C 0.74673 0.12325 0.00456 0.0
C695 C 0.73315 0.11937 0.99349 0.0
C696 C 0.75355 0.13896 0.00797 0.0
C697 C 0.79179 0.21947 0.01639 0.0
C698 C 0.81573 0.206 0.01961 0.0
C699 C 0.81682 0.23436 0.02746 0.0
C700 C 0.80056 0.23386 0.02272 0.0
C701 C 0.82461 0.22045 0.02594 0.0
C702 C 0.79941 0.2055 0.01491 0.0
C703 C 0.77472 0.21927 0.01154 0.0
O704 O 0.73169 0.20245 0.98576 0.0
O705 O 0.72741 0.20356 0.01096 0.0
O706 O 0.76529 0.21414 0.02181 0.0
O707 O 0.76993 0.21351 0.99674 0.0
H708 H 0.74113 0.23257 0.98843 0.0
H709 H 0.73565 0.26033 0.99 0.0
H710 H 0.69011 0.2473 0.00669 0.0
H711 H 0.69561 0.21931 0.00496 0.0
H712 H 0.71591 0.12913 0.97758 0.0
H713 H 0.72807 0.15681 0.98356 0.0
H714 H 0.75243 0.11407 0.01027 0.0
H715 H 0.7642 0.14155 0.0163 0.0
H716 H 0.82138 0.19507 0.01841 0.0
H717 H 0.82337 0.24571 0.03206 0.0
H718 H 0.79482 0.24474 0.02392 0.0
H719 H 0.79274 0.19426 0.01013 0.0
C720 C 0.24132 0.80452 0.67346 0.0
C721 C 0.23167 0.81408 0.66502 0.0
C722 C 0.24699 0.83797 0.67876 0.0
C723 C 0.23447 0.83064 0.66763 0.0
C724 C 0.25655 0.82831 0.68734 0.0
C725 C 0.25372 0.81169 0.6847 0.0
U726 U 0.21889 0.76935 0.64841 0.0
O727 O 0.22641 0.74751 0.63678 0.0
O728 O 0.20893 0.74589 0.65428 0.0
C729 C 0.21801 0.73821 0.64515 0.0
C730 C 0.23867 0.78714 0.67002 0.0
C731 C 0.2264 0.72575 0.65222 0.0
C732 C 0.25081 0.71557 0.66234 0.0
C733 C 0.24273 0.72823 0.65754 0.0
C734 C 0.22616 0.69808 0.6574 0.0
C735 C 0.24266 0.70027 0.662 0.0
C736 C 0.21813 0.7107 0.65252 0.0
C737 C 0.18803 0.77757 0.61555 0.0
C738 C 0.171 0.75609 0.59962 0.0
C739 C 0.17205 0.78288 0.59173 0.0
C740 C 0.18299 0.78824 0.60497 0.0
C741 C 0.16594 0.76674 0.58891 0.0
C742 C 0.18201 0.76145 0.61281 0.0
C743 C 0.19995 0.78325 0.62908 0.0
O744 O 0.22465 0.78073 0.67295 0.0
O745 O 0.24276 0.78165 0.65613 0.0
O746 O 0.21469 0.7811 0.62659 0.0
O747 O 0.19628 0.77947 0.64306 0.0
H748 H 0.2221 0.80871 0.6562 0.0
H749 H 0.22707 0.83768 0.66061 0.0
H750 H 0.26621 0.83361 0.69607 0.0
H751 H 0.26128 0.80444 0.6913 0.0
H752 H 0.26349 0.71765 0.66597 0.0
H753 H 0.24932 0.73981 0.6575 0.0
H754 H 0.21957 0.68642 0.6568 0.0
H755 H 0.20553 0.70857 0.64843 0.0
H756 H 0.16667 0.74356 0.59766 0.0
H757 H 0.16825 0.79138 0.58378 0.0
H758 H 0.18759 0.80072 0.60691 0.0
H759 H 0.18593 0.75302 0.62079 0.0
C760 C 0.36697 0.30004 0.02486 0.0
C761 C 0.37536 0.28788 0.01849 0.0
C762 C 0.35495 0.26783 0.02447 0.0
C763 C 0.36941 0.27196 0.01828 0.0
C764 C 0.34658 0.28007 0.0309 0.0
C765 C 0.35255 0.29608 0.03107 0.0
U766 U 0.4019 0.32815 0.01888 0.0
O767 O 0.4046 0.35049 0.00785 0.0
O768 O 0.41353 0.35004 0.03297 0.0
C769 C 0.41092 0.35882 0.0212 0.0
C770 C 0.37376 0.3167 0.02544 0.0
C771 C 0.40399 0.37372 0.02517 0.0
C772 C 0.381 0.38837 0.028 0.0
C773 C 0.38753 0.37389 0.02577 0.0
C774 C 0.40739 0.40259 0.02972 0.0
C775 C 0.39083 0.4029 0.0297 0.0
C776 C 0.41389 0.38811 0.02744 0.0
C777 C 0.43775 0.3088 0.00504 0.0
C778 C 0.46392 0.32322 0.00531 0.0
C779 C 0.45889 0.29578 0.99359 0.0
C780 C 0.44313 0.29539 0.99718 0.0
C781 C 0.46955 0.30961 0.99787 0.0
C782 C 0.44812 0.32283 0.00884 0.0
C783 C 0.42146 0.30781 0.00959 0.0
O784 O 0.38585 0.32085 0.0364 0.0
O785 O 0.37636 0.3215 0.01152 0.0
O786 O 0.41088 0.31324 0.99972 0.0
O787 O 0.42018 0.31232 0.02464 0.0
H788 H 0.38662 0.29073 0.01379 0.0
H789 H 0.37632 0.26285 0.01352 0.0
H790 H 0.33536 0.27727 0.03568 0.0
H791 H 0.34598 0.30534 0.03611 0.0
H792 H 0.36823 0.38822 0.02811 0.0
H793 H 0.37973 0.36285 0.0241 0.0
H794 H 0.41527 0.41355 0.0308 0.0
H795 H 0.42663 0.38817 0.02698 0.0
H796 H 0.47185 0.334 0.00892 0.0
H797 H 0.46278 0.28519 0.98763 0.0
H798 H 0.43521 0.28451 0.99405 0.0
H799 H 0.4441 0.33332 0.01487 0.0
C800 C 0.3463 0.64849 0.6893 0.0
C801 C 0.35425 0.63985 0.67817 0.0
C802 C 0.34664 0.65709 0.65798 0.0
C803 C 0.35444 0.6441 0.66268 0.0
C804 C 0.33846 0.66558 0.66914 0.0
C805 C 0.33828 0.66129 0.68469 0.0
U806 U 0.3591 0.62066 0.71862 0.0
O807 O 0.36929 0.62442 0.74365 0.0
O808 O 0.34673 0.60922 0.73695 0.0
C809 C 0.35716 0.61613 0.74861 0.0
C810 C 0.34649 0.64402 0.70564 0.0
C811 C 0.35054 0.62351 0.76259 0.0
C812 C 0.34302 0.64662 0.77824 0.0
C813 C 0.34831 0.63975 0.76427 0.0
C814 C 0.34166 0.62097 0.78871 0.0
C815 C 0.33979 0.63733 0.7907 0.0
C816 C 0.347 0.61416 0.77481 0.0
C817 C 0.38241 0.58715 0.70226 0.0
C818 C 0.39788 0.57058 0.71824 0.0
C819 C 0.39143 0.5631 0.6899 0.0
C820 C 0.38333 0.57659 0.68872 0.0
C821 C 0.39881 0.55993 0.70466 0.0
C822 C 0.38968 0.58406 0.71706 0.0
C823 C 0.3739 0.60131 0.70057 0.0
O824 O 0.33835 0.63031 0.70697 0.0
O825 O 0.36065 0.64576 0.71377 0.0
O826 O 0.38086 0.61471 0.70829 0.0
O827 O 0.35849 0.59927 0.7016 0.0
H828 H 0.36047 0.62989 0.68152 0.0
H829 H 0.36105 0.63745 0.6545 0.0
H830 H 0.33218 0.67552 0.66585 0.0
H831 H 0.33197 0.668 0.69312 0.0
H832 H 0.34155 0.65921 0.77934 0.0
H833 H 0.3509 0.64716 0.75491 0.0
H834 H 0.33953 0.61351 0.79814 0.0
H835 H 0.34868 0.60161 0.77373 0.0
H836 H 0.40331 0.56836 0.7298 0.0
H837 H 0.39209 0.55523 0.67919 0.0
H838 H 0.37781 0.57882 0.6772 0.0
H839 H 0.389 0.59205 0.72768 0.0
C840 C 0.99657 0.7159 0.21788 0.0
C841 C 0.00973 0.72335 0.22813 0.0
C842 C 0.00042 0.70993 0.25011 0.0
C843 C 0.01169 0.7203 0.24405 0.0
C844 C 0.98745 0.70221 0.23978 0.0
C845 C 0.98554 0.70517 0.22378 0.0
U846 U 0.99843 0.7487 0.1916 0.0
O847 O 0.00564 0.75093 0.16766 0.0
O848 O 0.98144 0.75554 0.17277 0.0
C849 C 0.99146 0.75412 0.16192 0.0
C850 C 0.99348 0.72063 0.20168 0.0
C851 C 0.98495 0.74562 0.14636 0.0
C852 C 0.98437 0.72372 0.12553 0.0
C853 C 0.98928 0.73057 0.14111 0.0
C854 C 0.97014 0.74651 0.12056 0.0
C855 C 0.97499 0.73177 0.11498 0.0
C856 C 0.9751 0.75336 0.13608 0.0
C857 C 0.01514 0.78946 0.2132 0.0
C858 C 0.0228 0.8129 0.20016 0.0
C859 C 0.01989 0.81543 0.22843 0.0
C860 C 0.01581 0.79903 0.22768 0.0
C861 C 0.02339 0.82255 0.21468 0.0
C862 C 0.01861 0.79645 0.1994 0.0
C863 C 0.01061 0.77229 0.21282 0.0
O864 O 0.98226 0.73021 0.20009 0.0
O865 O 0.00619 0.72507 0.19475 0.0
O866 O 0.01932 0.76294 0.20492 0.0
O867 O 0.99526 0.76779 0.21011 0.0
H868 H 0.01827 0.73192 0.22397 0.0
H869 H 0.02171 0.72652 0.25178 0.0
H870 H 0.97874 0.69401 0.24415 0.0
H871 H 0.97523 0.69941 0.21614 0.0
H872 H 0.98815 0.71227 0.12164 0.0
H873 H 0.99681 0.72432 0.14888 0.0
H874 H 0.96311 0.75314 0.11271 0.0
H875 H 0.97167 0.765 0.13989 0.0
H876 H 0.02532 0.81809 0.18936 0.0
H877 H 0.02045 0.82253 0.23983 0.0
H878 H 0.01317 0.79381 0.23844 0.0
H879 H 0.01804 0.78922 0.18808 0.0
C880 C 0.67706 0.23673 0.80165 0.0
C881 C 0.67775 0.22314 0.80988 0.0
C882 C 0.68174 0.23973 0.83528 0.0
C883 C 0.68018 0.22464 0.82649 0.0
C884 C 0.68157 0.25334 0.82698 0.0
C885 C 0.67927 0.25184 0.81032 0.0
U886 U 0.64997 0.21684 0.7663 0.0
O887 O 0.63765 0.22615 0.74577 0.0
O888 O 0.65432 0.20816 0.74193 0.0
C889 C 0.64518 0.218 0.73543 0.0
C890 C 0.67252 0.23523 0.7843 0.0
C891 C 0.65185 0.22685 0.72307 0.0
C892 C 0.66309 0.25133 0.7138 0.0
C893 C 0.65814 0.24289 0.7262 0.0
C894 C 0.6561 0.2276 0.69525 0.0
C895 C 0.66191 0.24382 0.69814 0.0
C896 C 0.65111 0.21923 0.7076 0.0
C897 C 0.61761 0.18522 0.7744 0.0
C898 C 0.59576 0.17457 0.7545 0.0
C899 C 0.59958 0.16266 0.77928 0.0
C900 C 0.61282 0.17371 0.78425 0.0
C901 C 0.59087 0.163 0.76437 0.0
C902 C 0.60906 0.18556 0.75945 0.0
C903 C 0.6314 0.19688 0.7799 0.0
O904 O 0.67502 0.22175 0.77636 0.0
O905 O 0.65853 0.23989 0.78005 0.0
O906 O 0.62894 0.21185 0.77897 0.0
O907 O 0.645 0.19338 0.77495 0.0
H908 H 0.67597 0.21131 0.80352 0.0
H909 H 0.68053 0.21392 0.83246 0.0
H910 H 0.68253 0.26514 0.83334 0.0
H911 H 0.67865 0.26246 0.80422 0.0
H912 H 0.66764 0.26377 0.71642 0.0
H913 H 0.65891 0.24898 0.73811 0.0
H914 H 0.65479 0.22151 0.68331 0.0
H915 H 0.64626 0.20687 0.70497 0.0
H916 H 0.58941 0.175 0.74286 0.0
H917 H 0.59602 0.15399 0.78721 0.0
H918 H 0.61929 0.17331 0.79584 0.0
H919 H 0.61267 0.19434 0.75164 0.0
C920 C 0.04088 0.36141 0.29626 0.0
C921 C 0.03841 0.37105 0.28389 0.0
C922 C 0.04348 0.34956 0.2645 0.0
C923 C 0.03971 0.3652 0.26816 0.0
C924 C 0.0459 0.33991 0.27697 0.0
C925 C 0.04463 0.34582 0.29275 0.0
U926 U 0.03213 0.39564 0.32412 0.0
O927 O 0.01863 0.39736 0.34495 0.0
O928 O 0.04398 0.40641 0.34741 0.0
C929 C 0.03117 0.40347 0.35469 0.0
C930 C 0.03954 0.36779 0.31275 0.0
C931 C 0.03353 0.39625 0.36969 0.0
C932 C 0.03403 0.37309 0.38445 0.0
C933 C 0.03296 0.37969 0.36992 0.0
C934 C 0.03679 0.39958 0.3986 0.0
C935 C 0.03574 0.38297 0.39897 0.0
C936 C 0.03567 0.40614 0.38409 0.0
C937 C 0.02122 0.43275 0.30556 0.0
C938 C 0.01344 0.4555 0.32147 0.0
C939 C 0.01841 0.45753 0.294 0.0
C940 C 0.02184 0.4417 0.29256 0.0
C941 C 0.01428 0.46467 0.30851 0.0
C942 C 0.01692 0.43968 0.32001 0.0
C943 C 0.02559 0.4164 0.30405 0.0
O944 O 0.05026 0.37971 0.31839 0.0
O945 O 0.02503 0.37035 0.31583 0.0
O946 O 0.0149 0.40548 0.30772 0.0
O947 O 0.04015 0.41476 0.31002 0.0
H948 H 0.03544 0.38312 0.2864 0.0
H949 H 0.0375 0.37285 0.25885 0.0
H950 H 0.04895 0.32786 0.27456 0.0
H951 H 0.0466 0.33824 0.30219 0.0
H952 H 0.03336 0.36027 0.38434 0.0
H953 H 0.03139 0.37188 0.35888 0.0
H954 H 0.03789 0.40751 0.40953 0.0
H955 H 0.0361 0.41896 0.38411 0.0
H956 H 0.01015 0.46058 0.33275 0.0
H957 H 0.01946 0.4643 0.28388 0.0
H958 H 0.02523 0.43653 0.28135 0.0
H959 H 0.01642 0.43289 0.33019 0.0
H960 H 0.30093 0.53918 0.6384 0.0
H961 H 0.30536 0.52172 0.58979 0.0
H962 H 0.30251 0.57144 0.60221 0.0
H963 H 0.29365 0.49912 0.59703 0.0
C964 C 0.29871 0.49866 0.6092 0.0
C965 C 0.30187 0.54139 0.62613 0.0
C966 C 0.30194 0.55699 0.62178 0.0
C967 C 0.30278 0.52853 0.61467 0.0
C968 C 0.30411 0.53138 0.59871 0.0
C969 C 0.30424 0.5469 0.59422 0.0
C970 C 0.30313 0.55956 0.60581 0.0
N971 N 0.30257 0.51294 0.61963 0.0
H972 H 0.32351 0.55683 0.99742 0.0
H973 H 0.28657 0.55545 0.95855 0.0
H974 H 0.30804 0.51299 0.96817 0.0
H975 H 0.32654 0.58298 0.99455 0.0
C976 C 0.31489 0.58619 0.99041 0.0
C977 C 0.31598 0.5504 0.98741 0.0
C978 C 0.31718 0.53408 0.98372 0.0
C979 C 0.30507 0.55821 0.97812 0.0
C980 C 0.2951 0.54946 0.96551 0.0
C981 C 0.29602 0.53311 0.9619 0.0
C982 C 0.30716 0.52559 0.97101 0.0
N983 N 0.30348 0.57473 0.98123 0.0
H984 H 0.68122 0.96705 0.329 0.0
H985 H 0.68473 0.00239 0.36938 0.0
H986 H 0.6798 0.95278 0.3763 0.0
H987 H 0.66903 0.01449 0.34785 0.0
C988 C 0.67903 0.01339 0.34083 0.0
C989 C 0.68141 0.97003 0.34171 0.0
C990 C 0.68042 0.95788 0.35188 0.0
C991 C 0.68268 0.98609 0.34794 0.0
C992 C 0.68314 0.99001 0.36446 0.0
C993 C 0.68239 0.97804 0.37477 0.0
C994 C 0.6809 0.96205 0.36837 0.0
N995 N 0.6845 0.99821 0.33761 0.0
H996 H 0.72055 0.94092 0.96652 0.0
H997 H 0.74007 0.91428 0.00305 0.0
H998 H 0.74038 0.96499 0.01206 0.0
H999 H 0.74778 0.90105 0.97762 0.0
C1000 C 0.73518 0.89875 0.97336 0.0
C1001 C 0.72626 0.94063 0.97846 0.0
C1002 C 0.73051 0.95485 0.98853 0.0
C1003 C 0.72998 0.92602 0.98355 0.0
C1004 C 0.73744 0.92558 0.99902 0.0
C1005 C 0.74128 0.9396 0.00939 0.0
C1006 C 0.7378 0.95415 0.004 0.0
N1007 N 0.72576 0.91175 0.97321 0.0
H1008 H 0.63938 0.3043 0.53829 0.0
H1009 H 0.59035 0.3065 0.5208 0.0
H1010 H 0.60311 0.30398 0.57054 0.0
H1011 H 0.59819 0.29464 0.49831 0.0
C1012 C 0.61002 0.3006 0.49779 0.0
C1013 C 0.62703 0.30465 0.54051 0.0
C1014 C 0.62274 0.30441 0.55611 0.0
C1015 C 0.61544 0.30505 0.52764 0.0
C1016 C 0.59938 0.30562 0.53049 0.0
C1017 C 0.59493 0.3055 0.54601 0.0
C1018 C 0.60666 0.30484 0.55867 0.0
N1019 N 0.62033 0.30516 0.51205 0.0
H1020 H 0.9639 0.71119 0.93541 0.0
H1021 H 0.00144 0.73574 0.9134 0.0
H1022 H 0.00583 0.73439 0.96406 0.0
H1023 H 0.97778 0.74073 0.8969 0.0
C1024 C 0.97368 0.7281 0.89457 0.0
C1025 C 0.97536 0.71826 0.93644 0.0
C1026 C 0.98414 0.7222 0.95144 0.0
C1027 C 0.98139 0.72334 0.9227 0.0
C1028 C 0.99646 0.73218 0.92398 0.0
C1029 C 0.00528 0.73623 0.93888 0.0
C1030 C 0.999 0.7313 0.95252 0.0
N1031 N 0.97257 0.7188 0.90758 0.0
H1032 H 0.99301 0.32388 0.553 0.0
H1033 H 0.94913 0.29343 0.55212 0.0
H1034 H 0.96223 0.31262 0.50951 0.0
H1035 H 0.9941 0.32451 0.57893 0.0
C1036 C 0.98576 0.31533 0.58246 0.0
C1037 C 0.98208 0.31787 0.54675 0.0
C1038 C 0.97867 0.31959 0.5305 0.0
C1039 C 0.97128 0.30852 0.55466 0.0
C1040 C 0.95739 0.30061 0.54602 0.0
C1041 C 0.9539 0.3022 0.52978 0.0
C1042 C 0.96462 0.3117 0.52217 0.0
N1043 N 0.97379 0.3067 0.57119 0.0
H1044 H 0.32714 0.69175 0.96373 0.0
H1045 H 0.36919 0.6971 0.9971 0.0
H1046 H 0.37338 0.69021 0.94692 0.0
H1047 H 0.34872 0.67953 0.00956 0.0
C1048 C 0.34141 0.68939 0.00931 0.0
C1049 C 0.33997 0.69228 0.96605 0.0
C1050 C 0.34944 0.69098 0.95332 0.0
C1051 C 0.34705 0.69409 0.98184 0.0
C1052 C 0.36371 0.69505 0.98492 0.0
C1053 C 0.37333 0.69397 0.97238 0.0
C1054 C 0.36606 0.69176 0.95665 0.0
N1055 N 0.33741 0.69553 0.9946 0.0
H1056 H 0.53409 0.63419 0.30045 0.0
H1057 H 0.51582 0.58527 0.3019 0.0
H1058 H 0.56584 0.59752 0.30028 0.0
H1059 H 0.49358 0.59347 0.28997 0.0
C1060 C 0.49319 0.60532 0.29594 0.0
C1061 C 0.53611 0.62177 0.30065 0.0
C1062 C 0.55164 0.61729 0.3007 0.0
C1063 C 0.52306 0.61031 0.30071 0.0
C1064 C 0.52567 0.59418 0.3012 0.0
C1065 C 0.54113 0.58951 0.30127 0.0
C1066 C 0.55398 0.60114 0.30093 0.0
N1067 N 0.50755 0.61542 0.30066 0.0
H1068 H 0.93878 0.96538 0.71479 0.0
H1069 H 0.91698 0.00664 0.73174 0.0
H1070 H 0.96771 0.0094 0.73132 0.0
H1071 H 0.90006 0.98585 0.74047 0.0
C1072 C 0.8979 0.97901 0.72882 0.0
C1073 C 0.93989 0.97774 0.71974 0.0
C1074 C 0.95495 0.98661 0.72241 0.0
C1075 C 0.9262 0.98478 0.72345 0.0
C1076 C 0.92757 0.00093 0.72955 0.0
C1077 C 0.94249 0.00997 0.73219 0.0
C1078 C 0.95609 0.00265 0.72874 0.0
N1079 N 0.91106 0.97569 0.72028 0.0
H1080 H 0.55701 0.99366 0.32329 0.0
H1081 H 0.55423 0.95533 0.28548 0.0
H1082 H 0.51186 0.96794 0.30544 0.0
H1083 H 0.58275 0.99001 0.3264 0.0
C1084 C 0.58605 0.98526 0.31498 0.0
C1085 C 0.55021 0.98423 0.31526 0.0
C1086 C 0.53366 0.9817 0.31579 0.0
C1087 C 0.55774 0.97453 0.30444 0.0
C1088 C 0.54848 0.96267 0.29391 0.0
C1089 C 0.53191 0.96035 0.29411 0.0
C1090 C 0.52465 0.96984 0.30512 0.0
N1091 N 0.57445 0.97647 0.30344 0.0
H1092 H 0.95842 0.32671 0.70552 0.0
H1093 H 0.99457 0.36632 0.71661 0.0
H1094 H 0.94772 0.37393 0.69671 0.0
H1095 H 0.99522 0.34786 0.74112 0.0
C1096 C 0.99875 0.33938 0.73201 0.0
C1097 C 0.96209 0.33932 0.70569 0.0
C1098 C 0.95109 0.34965 0.70053 0.0
C1099 C 0.97761 0.34542 0.71195 0.0
C1100 C 0.98241 0.36177 0.71227 0.0
C1101 C 0.97179 0.3721 0.70651 0.0
C1102 C 0.95612 0.36595 0.70083 0.0
N1103 N 0.98849 0.33507 0.71772 0.0
H1104 H 0.7022 0.46542 0.362 0.0
H1105 H 0.69417 0.48207 0.40994 0.0
H1106 H 0.70467 0.43407 0.39899 0.0
H1107 H 0.67951 0.49857 0.39746 0.0
C1108 C 0.68576 0.50166 0.38741 0.0
C1109 C 0.70138 0.46325 0.3743 0.0
C1110 C 0.7037 0.44816 0.37913 0.0
C1111 C 0.69748 0.47546 0.38517 0.0
C1112 C 0.69662 0.47269 0.40124 0.0
C1113 C 0.69894 0.45767 0.40619 0.0
C1114 C 0.70243 0.44553 0.39507 0.0
N1115 N 0.69457 0.49035 0.3796 0.0
H1116 H 0.67965 0.45158 0.00186 0.0
H1117 H 0.7061 0.45152 0.04788 0.0
H1118 H 0.68741 0.4942 0.03416 0.0
H1119 H 0.67793 0.42559 0.00109 0.0
C1120 C 0.68698 0.42195 0.0095 0.0
C1121 C 0.68452 0.45753 0.01337 0.0
C1122 C 0.68228 0.47362 0.01694 0.0
C1123 C 0.69294 0.44943 0.02468 0.0
C1124 C 0.69956 0.45776 0.03925 0.0
C1125 C 0.69749 0.47388 0.04289 0.0
C1126 C 0.68876 0.48165 0.03166 0.0
N1127 N 0.69509 0.43299 0.02198 0.0
H1128 H 0.30084 0.04328 0.67787 0.0
H1129 H 0.28785 0.0083 0.63744 0.0
H1130 H 0.31729 0.05127 0.6325 0.0
H1131 H 0.2623 0.00849 0.65444 0.0
C1132 C 0.27126 0.00448 0.66274 0.0
C1133 C 0.30138 0.03942 0.66539 0.0
C1134 C 0.30998 0.04912 0.65594 0.0
C1135 C 0.29329 0.02477 0.65872 0.0
C1136 C 0.29401 0.01967 0.64257 0.0
C1137 C 0.30271 0.02914 0.63304 0.0
C1138 C 0.31068 0.04381 0.63984 0.0
N1139 N 0.28512 0.01488 0.66855 0.0
H1140 H 0.29639 0.06339 0.02902 0.0
H1141 H 0.28046 0.08712 0.98871 0.0
H1142 H 0.26234 0.03863 0.99192 0.0
H1143 H 0.30931 0.09544 0.99345 0.0
C1144 C 0.3081 0.1003 0.00557 0.0
C1145 C 0.28896 0.06327 0.01787 0.0
C1146 C 0.27893 0.0495 0.01163 0.0
C1147 C 0.28973 0.07677 0.00951 0.0
C1148 C 0.28016 0.07657 0.99499 0.0
C1149 C 0.27012 0.06291 0.98859 0.0
C1150 C 0.26954 0.04947 0.99706 0.0
N1151 N 0.30018 0.09051 0.01572 0.0
H1152 H 0.36528 0.71343 0.47019 0.0
H1153 H 0.41319 0.70765 0.48909 0.0
H1154 H 0.40471 0.7261 0.44399 0.0
H1155 H 0.40055 0.68945 0.50251 0.0
C1156 C 0.38993 0.69473 0.50557 0.0
C1157 C 0.37797 0.7144 0.46912 0.0
C1158 C 0.38385 0.72058 0.4558 0.0
C1159 C 0.3884 0.70954 0.48115 0.0
C1160 C 0.40492 0.71091 0.47975 0.0
C1161 C 0.41092 0.71701 0.4664 0.0
C1162 C 0.40027 0.72182 0.45455 0.0
N1163 N 0.38195 0.70389 0.49473 0.0
H1164 H 0.03234 0.2921 0.06411 0.0
H1165 H 0.99383 0.2672 0.08445 0.0
H1166 H 0.9909 0.27021 0.03398 0.0
H1167 H 0.03706 0.30516 0.08933 0.0
C1168 C 0.03275 0.29707 0.09753 0.0
C1169 C 0.0207 0.28539 0.06277 0.0
C1170 C 0.01239 0.28178 0.04749 0.0
C1171 C 0.01384 0.28025 0.07616 0.0
C1172 C 0.99896 0.27122 0.0741 0.0
C1173 C 0.99055 0.26759 0.05895 0.0
C1174 C 0.99737 0.27291 0.04573 0.0
N1175 N 0.0213 0.28392 0.09197 0.0
H1176 H 0.00736 0.67319 0.44507 0.0
H1177 H 0.05017 0.70504 0.44515 0.0
H1178 H 0.04037 0.6829 0.4872 0.0
H1179 H 0.00609 0.67253 0.41885 0.0
C1180 C 0.01339 0.68263 0.41549 0.0
C1181 C 0.01851 0.67909 0.45097 0.0
C1182 C 0.02291 0.67664 0.46688 0.0
C1183 C 0.02855 0.68916 0.44298 0.0
C1184 C 0.04258 0.69716 0.45125 0.0
C1185 C 0.04705 0.69481 0.46714 0.0
C1186 C 0.0372 0.68444 0.47478 0.0
N1187 N 0.02507 0.69172 0.42673 0.0
H1188 H 0.67464 0.28378 0.04135 0.0
H1189 H 0.63632 0.28015 0.00368 0.0
H1190 H 0.63405 0.30984 0.04717 0.0
H1191 H 0.64641 0.25207 0.0023 0.0
C1192 C 0.65739 0.25878 1.00004 0.0
C1193 C 0.66317 0.28707 0.03677 0.0
C1194 C 0.65511 0.29758 0.04613 0.0
C1195 C 0.65641 0.28075 0.02146 0.0
C1196 C 0.64154 0.28501 0.0155 0.0
C1197 C 0.63339 0.2955 0.0247 0.0
C1198 C 0.64034 0.30182 0.03993 0.0
N1199 N 0.66503 0.27079 0.01184 0.0
H1200 H 0.46998 0.36619 0.71318 0.0
H1201 H 0.48569 0.41315 0.70145 0.0
H1202 H 0.44013 0.40415 0.71878 0.0
H1203 H 0.50018 0.39942 0.68522 0.0
C1204 C 0.50395 0.38983 0.69183 0.0
C1205 C 0.46792 0.3785 0.71225 0.0
C1206 C 0.45376 0.38402 0.7168 0.0
C1207 C 0.47949 0.38883 0.70653 0.0
C1208 C 0.47682 0.4049 0.70552 0.0
C1209 C 0.46251 0.41041 0.7097 0.0
C1210 C 0.45115 0.39992 0.71542 0.0
N1211 N 0.49372 0.38274 0.70214 0.0
H1212 H 0.06544 0.02818 0.28991 0.0
H1213 H 0.08357 0.98515 0.27167 0.0
H1214 H 0.0351 0.99294 0.25807 0.0
H1215 H 0.09614 0.98945 0.29814 0.0
C1216 C 0.10112 0.00159 0.29726 0.0
C1217 C 0.06368 0.01692 0.28246 0.0
C1218 C 0.04877 0.01178 0.27391 0.0
C1219 C 0.07625 0.00731 0.28178 0.0
C1220 C 0.07392 0.99261 0.27223 0.0
C1221 C 0.05908 0.9873 0.2637 0.0
C1222 C 0.04665 0.99704 0.26449 0.0
N1223 N 0.09112 0.01248 0.29086 0.0
H1224 H 0.44694 0.99892 0.68116 0.0
H1225 H 0.44847 0.0424 0.71241 0.0
H1226 H 0.49103 0.02853 0.69362 0.0
H1227 H 0.42093 0.0008 0.67778 0.0
C1228 C 0.41752 0.0076 0.68817 0.0
C1229 C 0.45337 0.00965 0.68743 0.0
C1230 C 0.46975 0.01265 0.68619 0.0
C1231 C 0.44556 0.0206 0.69669 0.0
C1232 C 0.45442 0.03414 0.70508 0.0
C1233 C 0.47087 0.037 0.70418 0.0
C1234 C 0.47836 0.02628 0.69458 0.0
N1235 N 0.42895 0.01839 0.69815 0.0
H1236 H 0.04205 0.67455 0.29217 0.0
H1237 H 0.00567 0.63495 0.28717 0.0
H1238 H 0.05067 0.63195 0.314 0.0
H1239 H 0.00357 0.64753 0.25944 0.0
C1240 C 0.00087 0.65761 0.26726 0.0
C1241 C 0.03806 0.66261 0.29467 0.0
C1242 C 0.04817 0.65412 0.30399 0.0
C1243 C 0.02282 0.65565 0.28841 0.0
C1244 C 0.01759 0.64018 0.29166 0.0
C1245 C 0.02747 0.63166 0.30112 0.0
C1246 C 0.04272 0.63873 0.30723 0.0
N1247 N 0.01248 0.66467 0.27972 0.0
H1248 H 0.20007 0.65736 0.33015 0.0
H1249 H 0.17428 0.66435 0.31895 0.0
H1250 H 0.15699 0.66404 0.36516 0.0
H1251 H 0.18285 0.65782 0.37656 0.0
H1252 H 0.14664 0.64627 0.31747 0.0
H1253 H 0.14062 0.70392 0.35131 0.0
H1254 H 0.15941 0.69554 0.35118 0.0
H1255 H 0.1452 0.68925 0.36444 0.0
C1256 C 0.19091 0.65919 0.33802 0.0
C1257 C 0.19352 0.65695 0.35425 0.0
C1258 C 0.17615 0.66312 0.33158 0.0
C1259 C 0.16375 0.66497 0.34125 0.0
C1260 C 0.16645 0.66308 0.35752 0.0
H1261 H 0.06351 0.65497 0.33384 0.0
H1262 H 0.09218 0.66066 0.3417 0.0
C1263 C 0.1812 0.65924 0.36397 0.0
C1264 C 0.14751 0.66721 0.33416 0.0
H1265 H 0.11598 0.68877 0.33939 0.0
C1266 C 0.14006 0.65577 0.32201 0.0
C1267 C 0.13891 0.67962 0.34008 0.0
C1268 C 0.14653 0.69286 0.35235 0.0
C1269 C 0.12399 0.65587 0.3163 0.0
C1270 C 0.11519 0.6678 0.3228 0.0
C1271 C 0.12278 0.67962 0.33447 0.0
C1272 C 0.09778 0.66715 0.31865 0.0
C1273 C 0.11629 0.64271 0.30393 0.0
C1274 C 0.09141 0.66954 0.30327 0.0
C1275 C 0.07502 0.66633 0.29876 0.0
C1276 C 0.06483 0.6606 0.30956 0.0
C1277 C 0.07114 0.65923 0.32525 0.0
C1278 C 0.08748 0.66252 0.32976 0.0
H1279 H 0.12422 0.63322 0.30167 0.0
H1280 H 0.10504 0.63725 0.30776 0.0
H1281 H 0.11329 0.64776 0.29255 0.0
H1282 H 0.0992 0.6732 0.29457 0.0
H1283 H 0.07047 0.66741 0.28658 0.0
H1284 H 0.33455 0.35965 0.78178 0.0
H1285 H 0.36032 0.35902 0.77142 0.0
H1286 H 0.33956 0.32406 0.73299 0.0
H1287 H 0.31349 0.3247 0.7433 0.0
H1288 H 0.37945 0.33496 0.76575 0.0
H1289 H 0.35918 0.35932 0.70937 0.0
H1290 H 0.34732 0.3591 0.72594 0.0
H1291 H 0.34848 0.34106 0.71336 0.0
C1292 C 0.33546 0.35161 0.77127 0.0
C1293 C 0.32195 0.34222 0.76337 0.0
C1294 C 0.35022 0.35131 0.76533 0.0
C1295 C 0.35184 0.34164 0.75133 0.0
C1296 C 0.33851 0.33184 0.74364 0.0
H1297 H 0.43824 0.35607 0.70193 0.0
H1298 H 0.4143 0.34133 0.7098 0.0
C1299 C 0.32365 0.3322 0.74955 0.0
C1300 C 0.36744 0.34257 0.74468 0.0
H1301 H 0.38637 0.35665 0.71425 0.0
C1302 C 0.38094 0.33945 0.75436 0.0
C1303 C 0.36937 0.34834 0.72977 0.0
C1304 C 0.35538 0.35227 0.71901 0.0
C1305 C 0.39634 0.34272 0.74992 0.0
C1306 C 0.3983 0.3494 0.73549 0.0
C1307 C 0.3848 0.35151 0.72531 0.0
C1308 C 0.41403 0.35641 0.73182 0.0
C1309 C 0.41044 0.33952 0.76095 0.0
C1310 C 0.42187 0.3696 0.74169 0.0
C1311 C 0.43536 0.37803 0.73718 0.0
C1312 C 0.4413 0.3734 0.72274 0.0
C1313 C 0.43395 0.35973 0.71321 0.0
C1314 C 0.42029 0.35138 0.71765 0.0
H1315 H 0.40712 0.33 0.76854 0.0
H1316 H 0.42034 0.33598 0.75416 0.0
H1317 H 0.41479 0.35052 0.76892 0.0
H1318 H 0.41708 0.37389 0.75251 0.0
H1319 H 0.4408 0.38857 0.74468 0.0
H1320 H 0.5884 0.94431 0.63962 0.0
H1321 H 0.56232 0.9455 0.64976 0.0
H1322 H 0.5514 0.98094 0.61824 0.0
H1323 H 0.57719 0.97971 0.60804 0.0
H1324 H 0.55178 0.97053 0.66525 0.0
H1325 H 0.51047 0.95223 0.61102 0.0
H1326 H 0.53127 0.94898 0.61207 0.0
H1327 H 0.525 0.96792 0.60752 0.0
C1328 C 0.58034 0.95223 0.63477 0.0
C1329 C 0.5848 0.96182 0.62294 0.0
C1330 C 0.56543 0.95283 0.64049 0.0
C1331 C 0.55473 0.96302 0.63449 0.0
C1332 C 0.55918 0.97255 0.62266 0.0
H1333 H 0.48625 0.01988 0.6616 0.0
H1334 H 0.50464 0.00374 0.64847 0.0
C1335 C 0.57399 0.97189 0.61688 0.0
C1336 C 0.53962 0.96506 0.6416 0.0
H1337 H 0.50038 0.96942 0.6317 0.0
C1338 C 0.54044 0.96984 0.658 0.0
C1339 C 0.52478 0.96407 0.63217 0.0
C1340 C 0.5228 0.95784 0.61475 0.0
C1341 C 0.52715 0.97486 0.66495 0.0
C1342 C 0.51267 0.97504 0.65525 0.0
C1343 C 0.51154 0.96932 0.63908 0.0
C1344 C 0.49951 0.98328 0.66126 0.0
C1345 C 0.52892 0.98099 0.68239 0.0
C1346 C 0.49015 0.97685 0.67237 0.0
C1347 C 0.4795 0.98604 0.67979 0.0
C1348 C 0.47828 0.00175 0.67625 0.0
C1349 C 0.48702 0.00778 0.66449 0.0
C1350 C 0.49748 0.99858 0.65699 0.0
H1351 H 0.54127 0.98093 0.68807 0.0
H1352 H 0.52554 0.99334 0.6839 0.0
H1353 H 0.52076 0.97346 0.68877 0.0
H1354 H 0.49158 0.96504 0.67578 0.0
H1355 H 0.47295 0.98122 0.68893 0.0
H1356 H 0.90298 0.03129 0.29101 0.0
H1357 H 0.93192 0.03555 0.29792 0.0
H1358 H 0.93858 0.03686 0.24825 0.0
H1359 H 0.90989 0.03259 0.24127 0.0
H1360 H 0.95274 0.01543 0.28821 0.0
H1361 H 0.96935 0.07424 0.26819 0.0
H1362 H 0.94906 0.0674 0.27097 0.0
H1363 H 0.95725 0.06139 0.25276 0.0
C1364 C 0.91062 0.03268 0.28159 0.0
C1365 C 0.90409 0.03166 0.26559 0.0
C1366 C 0.92714 0.0352 0.28557 0.0
C1367 C 0.93742 0.03685 0.27364 0.0
C1368 C 0.9309 0.03616 0.25772 0.0
H1369 H 0.0278 0.0195 0.25022 0.0
H1370 H 0.00172 0.02891 0.25302 0.0
C1371 C 0.91445 0.03366 0.25374 0.0
C1372 C 0.95493 0.03741 0.27743 0.0
H1373 H 0.99019 0.05648 0.26953 0.0
C1374 C 0.96096 0.02461 0.28451 0.0
C1375 C 0.96565 0.04941 0.27261 0.0
C1376 C 0.95998 0.06396 0.26586 0.0
C1377 C 0.97732 0.02289 0.28584 0.0
C1378 C 0.98794 0.0344 0.28014 0.0
C1379 C 0.98202 0.04766 0.27386 0.0
C1380 C 0.00479 0.03173 0.2788 0.0
C1381 C 0.98299 0.00821 0.29237 0.0
C1382 C 0.01543 0.03091 0.29236 0.0
C1383 C 0.03037 0.02552 0.29077 0.0
C1384 C 0.03481 0.02086 0.2756 0.0
C1385 C 0.0246 0.02287 0.26205 0.0
C1386 C 0.00974 0.02829 0.26364 0.0
H1387 H 0.97294 0.99934 0.29409 0.0
H1388 H 0.99077 0.00243 0.28425 0.0
H1389 H 0.99008 0.01167 0.30407 0.0
H1390 H 0.01188 0.0337 0.30416 0.0
H1391 H 0.03798 0.02402 0.30141 0.0
H1392 H 0.37879 0.19247 0.67041 0.0
H1393 H 0.37051 0.16516 0.67561 0.0
H1394 H 0.32357 0.16848 0.6526 0.0
H1395 H 0.3316 0.1959 0.64761 0.0
H1396 H 0.34207 0.15062 0.69082 0.0
H1397 H 0.34382 0.13164 0.62641 0.0
H1398 H 0.35369 0.15038 0.63597 0.0
H1399 H 0.33248 0.14804 0.63104 0.0
C1400 C 0.36658 0.18755 0.6668 0.0
C1401 C 0.3559 0.19633 0.65844 0.0
C1402 C 0.3619 0.17193 0.66975 0.0
C1403 C 0.3465 0.16482 0.66435 0.0
C1404 C 0.33556 0.17377 0.65673 0.0
H1405 H 0.29639 0.07271 0.67222 0.0
H1406 H 0.30656 0.10096 0.67702 0.0
C1407 C 0.34021 0.18938 0.65381 0.0
C1408 C 0.34229 0.14764 0.66535 0.0
H1409 H 0.3344 0.11211 0.64221 0.0
C1410 C 0.34041 0.14215 0.68024 0.0
C1411 C 0.34035 0.13666 0.65152 0.0
C1412 C 0.34279 0.14188 0.63531 0.0
C1413 C 0.33633 0.12589 0.68159 0.0
C1414 C 0.33404 0.11497 0.66768 0.0
C1415 C 0.33617 0.1205 0.65286 0.0
C1416 C 0.32918 0.09774 0.66793 0.0
C1417 C 0.33466 0.12049 0.69784 0.0
C1418 C 0.33865 0.08653 0.66158 0.0
C1419 C 0.33284 0.07045 0.65877 0.0
C1420 C 0.31742 0.06529 0.66222 0.0
C1421 C 0.30837 0.07634 0.66961 0.0
C1422 C 0.31418 0.09248 0.67237 0.0
H1423 H 0.34064 0.12946 0.70749 0.0
H1424 H 0.32184 0.11869 0.69959 0.0
H1425 H 0.33974 0.109 0.69895 0.0
H1426 H 0.35025 0.09034 0.65808 0.0
H1427 H 0.3401 0.06214 0.65318 0.0
H1428 H 0.25242 0.90754 0.04967 0.0
H1429 H 0.2593 0.93635 0.05086 0.0
H1430 H 0.28632 0.92942 0.01064 0.0
H1431 H 0.27909 0.90067 0.009 0.0
H1432 H 0.28858 0.95745 0.05268 0.0
H1433 H 0.25016 0.95583 0.9955 0.0
H1434 H 0.25002 0.9392 0.00729 0.0
H1435 H 0.26588 0.94305 0.99509 0.0
C1436 C 0.25995 0.91213 0.04116 0.0
C1437 C 0.26498 0.90181 0.02907 0.0
C1438 C 0.26397 0.92858 0.04195 0.0
C1439 C 0.27309 0.935 0.03069 0.0
C1440 C 0.27911 0.92468 0.01933 0.0
H1441 H 0.30453 0.03423 0.02134 0.0
H1442 H 0.30392 0.00682 0.02846 0.0
C1443 C 0.27506 0.90823 0.01849 0.0
C1444 C 0.27485 0.95242 0.02976 0.0
H1445 H 0.26367 0.98064 0.00609 0.0
C1446 C 0.28319 0.96257 0.0425 0.0
C1447 C 0.26756 0.95903 0.01657 0.0
C1448 C 0.25778 0.94876 0.00288 0.0
C1449 C 0.28455 0.97923 0.04231 0.0
C1450 C 0.27745 0.98578 0.02898 0.0
C1451 C 0.2691 0.97558 0.0163 0.0
C1452 C 0.27824 0.00316 0.02778 0.0
C1453 C 0.29324 0.98967 0.05645 0.0
C1454 C 0.26405 0.0103 0.02535 0.0
C1455 C 0.26438 0.02584 0.02118 0.0
C1456 C 0.27891 0.03456 0.01938 0.0
C1457 C 0.29319 0.02782 0.02285 0.0
C1458 C 0.29285 0.01217 0.02692 0.0
H1459 H 0.29461 0.98312 0.06716 0.0
H1460 H 0.30531 0.99391 0.05356 0.0
H1461 H 0.28688 0.00027 0.05934 0.0
H1462 H 0.25265 0.00355 0.02594 0.0
H1463 H 0.25321 0.03079 0.01862 0.0
H1464 H 0.73531 0.31229 0.34362 0.0
H1465 H 0.72401 0.33764 0.34313 0.0
H1466 H 0.7654 0.3578 0.32328 0.0
H1467 H 0.77681 0.33236 0.3237 0.0
H1468 H 0.75941 0.37512 0.3501 0.0
H1469 H 0.70366 0.3625 0.30964 0.0
H1470 H 0.70493 0.34857 0.32424 0.0
H1471 H 0.71916 0.34927 0.30977 0.0
C1472 C 0.7418 0.32194 0.33867 0.0
C1473 C 0.75699 0.32029 0.33374 0.0
C1474 C 0.73529 0.33645 0.33836 0.0
C1475 C 0.74375 0.34959 0.33297 0.0
C1476 C 0.75862 0.3478 0.32741 0.0
H1477 H 0.72578 0.44938 0.35748 0.0
H1478 H 0.73537 0.42668 0.34239 0.0
C1479 C 0.76516 0.33328 0.32774 0.0
C1480 C 0.73803 0.36557 0.3352 0.0
H1481 H 0.70512 0.38543 0.32925 0.0
C1482 C 0.74768 0.37753 0.34524 0.0
C1483 C 0.72271 0.36866 0.32889 0.0
C1484 C 0.71209 0.35661 0.31741 0.0
C1485 C 0.74207 0.39209 0.35001 0.0
C1486 C 0.72646 0.39491 0.34429 0.0
C1487 C 0.71708 0.38326 0.33361 0.0
C1488 C 0.71906 0.40894 0.35084 0.0
C1489 C 0.75252 0.40388 0.36196 0.0
C1490 C 0.70613 0.40655 0.3598 0.0
C1491 C 0.70055 0.41944 0.36823 0.0
C1492 C 0.7078 0.43501 0.3679 0.0
C1493 C 0.71999 0.43752 0.35799 0.0
C1494 C 0.72557 0.42456 0.3495 0.0
H1495 H 0.763 0.39862 0.36735 0.0
H1496 H 0.75697 0.41422 0.35593 0.0
H1497 H 0.74566 0.40834 0.37168 0.0
H1498 H 0.70085 0.39461 0.36093 0.0
H1499 H 0.69092 0.41717 0.37553 0.0
H1500 H 0.64068 0.59107 0.94287 0.0
H1501 H 0.65074 0.56514 0.9455 0.0
H1502 H 0.61666 0.55486 0.97878 0.0
H1503 H 0.60653 0.58049 0.97611 0.0
H1504 H 0.6646 0.55537 0.97181 0.0
H1505 H 0.61143 0.51335 0.95101 0.0
H1506 H 0.61268 0.53401 0.94721 0.0
H1507 H 0.60682 0.52816 0.96589 0.0
C1508 C 0.63525 0.58317 0.95061 0.0
C1509 C 0.62274 0.58777 0.9592 0.0
C1510 C 0.64094 0.56835 0.95203 0.0
C1511 C 0.6342 0.55787 0.96204 0.0
C1512 C 0.62167 0.56245 0.97054 0.0
H1513 H 0.65732 0.49047 0.02212 0.0
H1514 H 0.64549 0.50874 0.00489 0.0
C1515 C 0.61593 0.57717 0.96906 0.0
C1516 C 0.64124 0.54293 0.96504 0.0
H1517 H 0.63107 0.50385 0.96983 0.0
C1518 C 0.65738 0.544 0.97094 0.0
C1519 C 0.63185 0.52805 0.96384 0.0
C1520 C 0.61478 0.5258 0.95647 0.0
C1521 C 0.66405 0.53092 0.97683 0.0
C1522 C 0.65432 0.51642 0.97673 0.0
C1523 C 0.63846 0.51503 0.96993 0.0
C1524 C 0.65984 0.50349 0.98566 0.0
C1525 C 0.68116 0.53296 0.9841 0.0
C1526 C 0.67144 0.49414 0.98028 0.0
C1527 C 0.67815 0.48359 0.99008 0.0
C1528 C 0.67341 0.48245 0.00541 0.0
C1529 C 0.66121 0.49122 0.01038 0.0
C1530 C 0.65443 0.5016 0.00055 0.0
H1531 H 0.68682 0.54532 0.98414 0.0
H1532 H 0.68184 0.52981 0.99655 0.0
H1533 H 0.68811 0.52476 0.97728 0.0
H1534 H 0.67572 0.49546 0.96878 0.0
H1535 H 0.68761 0.477 0.98605 0.0
H1536 H 0.6367 0.32344 0.19102 0.0
H1537 H 0.64234 0.31315 0.16444 0.0
H1538 H 0.67775 0.35307 0.164 0.0
H1539 H 0.67217 0.36345 0.19061 0.0
H1540 H 0.63768 0.32945 0.13829 0.0
H1541 H 0.70039 0.31552 0.1466 0.0
H1542 H 0.68843 0.31825 0.16299 0.0
H1543 H 0.69731 0.33523 0.15464 0.0
C1544 C 0.64581 0.32994 0.18533 0.0
C1545 C 0.65393 0.34431 0.19288 0.0
C1546 C 0.64908 0.324 0.17019 0.0
C1547 C 0.66056 0.33226 0.16229 0.0
C1548 C 0.66908 0.34632 0.17 0.0
H1549 H 0.65825 0.32817 0.06005 0.0
H1550 H 0.66205 0.33689 0.08865 0.0
C1551 C 0.66585 0.35226 0.1852 0.0
C1552 C 0.66232 0.32704 0.1454 0.0
H1553 H 0.68887 0.31544 0.11977 0.0
C1554 C 0.64886 0.32632 0.13428 0.0
C1555 C 0.6769 0.32289 0.14019 0.0
C1556 C 0.69156 0.32285 0.15173 0.0
C1557 C 0.6496 0.32176 0.11807 0.0
C1558 C 0.66426 0.31805 0.11277 0.0
C1559 C 0.6777 0.31849 0.12388 0.0
C1560 C 0.66551 0.31349 0.09568 0.0
C1561 C 0.6346 0.3208 0.10673 0.0
C1562 C 0.66711 0.29764 0.09019 0.0
C1563 C 0.66501 0.29264 0.07383 0.0
C1564 C 0.66123 0.30345 0.06282 0.0
C1565 C 0.66097 0.31957 0.06833 0.0
C1566 C 0.66314 0.32456 0.08462 0.0
H1567 H 0.62374 0.32066 0.11312 0.0
H1568 H 0.63507 0.33134 0.0999 0.0
H1569 H 0.63353 0.30996 0.0981 0.0
H1570 H 0.66896 0.28894 0.09857 0.0
H1571 H 0.6652 0.28014 0.0699 0.0
H1572 H 0.04545 0.26803 0.90232 0.0
H1573 H 0.05198 0.27523 0.93102 0.0
H1574 H 0.00587 0.29214 0.93397 0.0
H1575 H 0.99944 0.28548 0.90526 0.0
H1576 H 0.03111 0.31141 0.95348 0.0
H1577 H 0.03091 0.24694 0.9616 0.0
H1578 H 0.04443 0.25471 0.94845 0.0
H1579 H 0.02333 0.2537 0.94309 0.0
C1580 C 0.03685 0.27364 0.90901 0.0
C1581 C 0.02183 0.276 0.90153 0.0
C1582 C 0.04055 0.27761 0.92544 0.0
C1583 C 0.02929 0.28394 0.93466 0.0
C1584 C 0.01469 0.28718 0.92709 0.0
H1585 H 0.99803 0.29742 0.02455 0.0
H1586 H 0.00632 0.30067 0.99819 0.0
C1587 C 0.01099 0.28324 0.9107 0.0
C1588 C 0.032 0.28603 0.9523 0.0
H1589 H 0.0333 0.26485 0.98459 0.0
C1590 C 0.03185 0.30127 0.96032 0.0
C1591 C 0.03305 0.2728 0.9612 0.0
C1592 C 0.03284 0.25608 0.95322 0.0
C1593 C 0.03208 0.30354 0.97698 0.0
C1594 C 0.03218 0.29018 0.98578 0.0
C1595 C 0.03327 0.27509 0.97784 0.0
C1596 C 0.02889 0.29107 0.00272 0.0
C1597 C 0.03187 0.32018 0.98494 0.0
C1598 C 0.03887 0.28472 0.01416 0.0
C1599 C 0.03407 0.28275 0.02928 0.0
C1600 C 0.01912 0.2869 0.03306 0.0
C1601 C 0.00959 0.29409 0.02191 0.0
C1602 C 0.0144 0.2961 0.00689 0.0
H1603 H 0.0377 0.32916 0.97804 0.0
H1604 H 0.01933 0.32276 0.98549 0.0
H1605 H 0.03794 0.32156 0.99726 0.0
H1606 H 0.05003 0.28062 0.01114 0.0
H1607 H 0.04155 0.27707 0.03762 0.0
H1608 H 0.36313 0.78298 0.33569 0.0
H1609 H 0.36018 0.77262 0.3612 0.0
H1610 H 0.33113 0.73116 0.33727 0.0
H1611 H 0.33463 0.74118 0.31147 0.0
H1612 H 0.33457 0.76397 0.37731 0.0
H1613 H 0.36697 0.71155 0.36103 0.0
H1614 H 0.36631 0.72801 0.34908 0.0
H1615 H 0.34922 0.71363 0.34838 0.0
C1616 C 0.35616 0.77162 0.33581 0.0
C1617 C 0.3494 0.76274 0.3215 0.0
C1618 C 0.35434 0.76578 0.35043 0.0
C1619 C 0.34568 0.75098 0.35114 0.0
C1620 C 0.33813 0.74247 0.33698 0.0
H1621 H 0.35854 0.70271 0.43823 0.0
H1622 H 0.34437 0.70908 0.41333 0.0
C1623 C 0.34002 0.74828 0.32226 0.0
C1624 C 0.34561 0.74428 0.36669 0.0
H1625 H 0.36124 0.71577 0.3874 0.0
C1626 C 0.34014 0.75326 0.37947 0.0
C1627 C 0.3528 0.73026 0.36949 0.0
C1628 C 0.35928 0.72031 0.35634 0.0
C1629 C 0.34247 0.74908 0.39509 0.0
C1630 C 0.35057 0.73567 0.398 0.0
C1631 C 0.35501 0.72605 0.38511 0.0
C1632 C 0.35673 0.73273 0.4143 0.0
C1633 C 0.33673 0.75937 0.40842 0.0
C1634 C 0.36815 0.744 0.42319 0.0
C1635 C 0.37628 0.74036 0.43724 0.0
C1636 C 0.37311 0.72538 0.44271 0.0
C1637 C 0.36105 0.7144 0.43432 0.0
C1638 C 0.35302 0.718 0.42011 0.0
H1639 H 0.32645 0.76555 0.40402 0.0
H1640 H 0.33319 0.75224 0.41808 0.0
H1641 H 0.34649 0.76862 0.41351 0.0
H1642 H 0.37146 0.7553 0.41878 0.0
H1643 H 0.38556 0.74899 0.44349 0.0
H1644 H 0.95515 0.63115 0.5868 0.0
H1645 H 0.95707 0.6403 0.56039 0.0
H1646 H 0.99608 0.61205 0.55366 0.0
H1647 H 0.99421 0.60288 0.57986 0.0
H1648 H 0.98207 0.65715 0.55027 0.0
H1649 H 0.96887 0.60026 0.51179 0.0
H1650 H 0.9646 0.60231 0.53231 0.0
H1651 H 0.98433 0.59899 0.52743 0.0
C1652 C 0.96408 0.62685 0.57964 0.0
C1653 C 0.97445 0.6162 0.58539 0.0
C1654 C 0.96509 0.632 0.56452 0.0
C1655 C 0.97646 0.62656 0.55488 0.0
C1656 C 0.98685 0.61599 0.56063 0.0
H1657 H 0.03124 0.65222 0.48328 0.0
H1658 H 0.01621 0.63921 0.50256 0.0
C1659 C 0.9858 0.6108 0.57567 0.0
C1660 C 0.97854 0.63292 0.5394 0.0
H1661 H 0.98407 0.62151 0.50075 0.0
C1662 C 0.98211 0.64941 0.53934 0.0
C1663 C 0.97851 0.62281 0.52512 0.0
C1664 C 0.9737 0.60513 0.52412 0.0
C1665 C 0.98679 0.65594 0.52569 0.0
C1666 C 0.98776 0.6457 0.51172 0.0
C1667 C 0.98334 0.62932 0.5115 0.0
C1668 C 0.99534 0.65159 0.49807 0.0
C1669 C 0.99166 0.67362 0.5266 0.0
C1670 C 0.98829 0.66236 0.48871 0.0
C1671 C 0.99685 0.66976 0.4776 0.0
C1672 C 0.01257 0.66651 0.47584 0.0
C1673 C 0.01916 0.65496 0.48449 0.0
C1674 C 0.01059 0.64751 0.49546 0.0
H1675 H 0.99196 0.67962 0.53887 0.0
H1676 H 0.00362 0.67588 0.52243 0.0
H1677 H 0.98307 0.67913 0.51867 0.0
H1678 H 0.97647 0.66555 0.4905 0.0
H1679 H 0.99157 0.6787 0.47113 0.0
H1680 H 0.80924 0.31792 0.62556 0.0
H1681 H 0.83596 0.31402 0.63719 0.0
H1682 H 0.83245 0.35018 0.67568 0.0
H1683 H 0.8058 0.35415 0.66416 0.0
H1684 H 0.86165 0.33628 0.64169 0.0
H1685 H 0.84969 0.3153 0.69962 0.0
H1686 H 0.83414 0.31547 0.68355 0.0
H1687 H 0.84104 0.33339 0.69644 0.0
C1688 C 0.81411 0.32495 0.63658 0.0
C1689 C 0.80537 0.33635 0.64394 0.0
C1690 C 0.82935 0.32265 0.64325 0.0
C1691 C 0.83613 0.33162 0.65744 0.0
C1692 C 0.82732 0.34279 0.66496 0.0
H1693 H 0.92484 0.36243 0.70984 0.0
H1694 H 0.8971 0.35507 0.6991 0.0
C1695 C 0.81207 0.34507 0.65833 0.0
C1696 C 0.8529 0.33039 0.66366 0.0
H1697 H 0.87666 0.3261 0.69751 0.0
C1698 C 0.86493 0.33375 0.6538 0.0
C1699 C 0.85717 0.32704 0.67944 0.0
C1700 C 0.84481 0.32243 0.69032 0.0
C1701 C 0.88112 0.33477 0.65957 0.0
C1702 C 0.88538 0.33214 0.67558 0.0
C1703 C 0.87336 0.32812 0.68524 0.0
C1704 C 0.90209 0.33528 0.68295 0.0
C1705 C 0.89352 0.33953 0.64878 0.0
C1706 C 0.91408 0.3263 0.67774 0.0
C1707 C 0.93004 0.33053 0.68386 0.0
C1708 C 0.93418 0.34382 0.69522 0.0
C1709 C 0.92203 0.35229 0.7009 0.0
C1710 C 0.90617 0.34804 0.69485 0.0
H1711 H 0.88817 0.34361 0.6376 0.0
H1712 H 0.90231 0.34922 0.65497 0.0
H1713 H 0.90005 0.32915 0.64555 0.0
H1714 H 0.91114 0.31626 0.66872 0.0
H1715 H 0.93917 0.32379 0.6793 0.0
H1716 H 0.68963 0.64932 0.27686 0.0
H1717 H 0.66426 0.64953 0.2883 0.0
H1718 H 0.64848 0.68147 0.25487 0.0
H1719 H 0.67391 0.68138 0.24335 0.0
H1720 H 0.64514 0.67351 0.30102 0.0
H1721 H 0.61786 0.64011 0.24363 0.0
H1722 H 0.63912 0.64314 0.24889 0.0
H1723 H 0.62862 0.65916 0.24234 0.0
C1724 C 0.68096 0.65676 0.27223 0.0
C1725 C 0.68369 0.66516 0.25904 0.0
C1726 C 0.66645 0.65684 0.27877 0.0
C1727 C 0.65442 0.66528 0.27223 0.0
C1728 C 0.65754 0.67467 0.25989 0.0
H1729 H 0.55353 0.64122 0.28121 0.0
H1730 H 0.57764 0.65725 0.27592 0.0
C1731 C 0.67204 0.67456 0.25331 0.0
C1732 C 0.63813 0.66266 0.27706 0.0
H1733 H 0.60131 0.64368 0.26388 0.0
C1734 C 0.63547 0.66718 0.29286 0.0
C1735 C 0.62555 0.65441 0.26638 0.0
C1736 C 0.62786 0.64879 0.24939 0.0
C1737 C 0.62059 0.66337 0.29835 0.0
C1738 C 0.60823 0.6545 0.28786 0.0
C1739 C 0.61075 0.65056 0.2719 0.0
C1740 C 0.59326 0.64754 0.29337 0.0
C1741 C 0.61833 0.66882 0.31535 0.0
C1742 C 0.59393 0.63711 0.30526 0.0
C1743 C 0.58017 0.62806 0.30838 0.0
C1744 C 0.56548 0.62908 0.29953 0.0
C1745 C 0.56464 0.64023 0.2883 0.0
C1746 C 0.57843 0.64935 0.28522 0.0
H1747 H 0.62551 0.68038 0.31932 0.0
H1748 H 0.60566 0.67019 0.31691 0.0
H1749 H 0.62251 0.65994 0.32316 0.0
H1750 H 0.60524 0.63526 0.31151 0.0
H1751 H 0.58116 0.6197 0.31724 0.0
H1752 H 0.43129 0.04643 0.39977 0.0
H1753 H 0.45743 0.04529 0.38986 0.0
H1754 H 0.43614 0.01244 0.3499 0.0
H1755 H 0.41012 0.01342 0.35971 0.0
H1756 H 0.47326 0.01906 0.38613 0.0
H1757 H 0.46399 0.04337 0.32824 0.0
H1758 H 0.45068 0.04601 0.34349 0.0
H1759 H 0.44852 0.02793 0.33013 0.0
C1760 C 0.43217 0.03907 0.38879 0.0
C1761 C 0.41859 0.03004 0.38051 0.0
C1762 C 0.4471 0.03851 0.38311 0.0
C1763 C 0.44871 0.029 0.369 0.0
C1764 C 0.43513 0.02022 0.36057 0.0
H1765 H 0.51367 0.97052 0.3362 0.0
H1766 H 0.49612 0.98547 0.35162 0.0
C1767 C 0.42023 0.02078 0.36621 0.0
C1768 C 0.46466 0.02694 0.36376 0.0
H1769 H 0.48455 0.02536 0.3306 0.0
C1770 C 0.47589 0.02078 0.3741 0.0
C1771 C 0.46828 0.02951 0.3482 0.0
C1772 C 0.45728 0.03724 0.33695 0.0
C1773 C 0.49004 0.0159 0.36886 0.0
C1774 C 0.49287 0.01695 0.3528 0.0
C1775 C 0.48229 0.02435 0.34287 0.0
C1776 C 0.50535 0.00853 0.34547 0.0
C1777 C 0.50157 0.00916 0.38043 0.0
C1778 C 0.51646 0.0165 0.33688 0.0
C1779 C 0.52651 0.0079 0.32797 0.0
C1780 C 0.52538 0.99121 0.32734 0.0
C1781 C 0.51475 0.98338 0.33649 0.0
C1782 C 0.50482 0.99194 0.34542 0.0
H1783 H 0.50097 0.01449 0.39282 0.0
H1784 H 0.49834 0.99613 0.38007 0.0
H1785 H 0.51401 0.01126 0.37742 0.0
H1786 H 0.51695 0.02929 0.33664 0.0
H1787 H 0.53452 0.01418 0.32089 0.0
H1788 H 0.09705 0.94596 0.74451 0.0
H1789 H 0.06819 0.94175 0.73733 0.0
H1790 H 0.07068 0.98347 0.71192 0.0
H1791 H 0.09941 0.98781 0.71909 0.0
H1792 H 0.04834 0.96325 0.74712 0.0
H1793 H 0.04006 0.95247 0.6814 0.0
H1794 H 0.05872 0.95058 0.69288 0.0
H1795 H 0.05357 0.96986 0.68829 0.0
C1796 C 0.09147 0.9541 0.73718 0.0
C1797 C 0.10053 0.96727 0.73243 0.0
C1798 C 0.075 0.95162 0.73302 0.0
C1799 C 0.06729 0.96218 0.72392 0.0
C1800 C 0.0764 0.97493 0.71859 0.0
H1801 H 0.97969 0.9992 0.70765 0.0
H1802 H 0.00592 0.98974 0.70668 0.0
C1803 C 0.09286 0.97741 0.72273 0.0
C1804 C 0.04964 0.9612 0.72179 0.0
H1805 H 0.01789 0.96204 0.69403 0.0
C1806 C 0.0416 0.96261 0.7355 0.0
C1807 C 0.0409 0.96041 0.70663 0.0
C1808 C 0.04874 0.95808 0.69146 0.0
C1809 C 0.02525 0.9643 0.73453 0.0
C1810 C 0.01663 0.96424 0.71939 0.0
C1811 C 0.02451 0.96206 0.70563 0.0
C1812 C 0.99997 0.96832 0.71778 0.0
C1813 C 0.01759 0.96716 0.74978 0.0
C1814 C 0.98769 0.95908 0.72376 0.0
C1815 C 0.97268 0.96456 0.72448 0.0
C1816 C 0.96973 0.97933 0.71917 0.0
C1817 C 0.98171 0.98792 0.71212 0.0
C1818 C 0.99667 0.98248 0.71144 0.0
H1819 H 0.02654 0.96977 0.76038 0.0
H1820 H 0.01019 0.97726 0.74923 0.0
H1821 H 0.00971 0.95637 0.75145 0.0
H1822 H 0.98992 0.94797 0.72845 0.0
H1823 H 0.96368 0.95767 0.72995 0.0
H1824 H 0.62708 0.80904 0.3244 0.0
H1825 H 0.63516 0.8361 0.31828 0.0
H1826 H 0.67501 0.83982 0.35451 0.0
H1827 H 0.66728 0.81268 0.36037 0.0
H1828 H 0.63636 0.86251 0.33968 0.0
H1829 H 0.69555 0.85861 0.31815 0.0
H1830 H 0.68174 0.84122 0.31911 0.0
H1831 H 0.69412 0.85024 0.33668 0.0
C1832 C 0.63781 0.81546 0.33076 0.0
C1833 C 0.64652 0.80871 0.3429 0.0
C1834 C 0.64237 0.83095 0.3273 0.0
C1835 C 0.6558 0.83992 0.33579 0.0
C1836 C 0.6648 0.83302 0.34756 0.0
H1837 H 0.69593 0.934 0.36349 0.0
H1838 H 0.68981 0.90539 0.35616 0.0
C1839 C 0.66024 0.81757 0.35104 0.0
C1840 C 0.65946 0.85701 0.33366 0.0
H1841 H 0.68976 0.88482 0.32815 0.0
C1842 C 0.64792 0.86738 0.33682 0.0
C1843 C 0.67455 0.86333 0.32994 0.0
C1844 C 0.68714 0.85274 0.32562 0.0
C1845 C 0.65136 0.88395 0.33735 0.0
C1846 C 0.6667 0.89032 0.33433 0.0
C1847 C 0.67801 0.87992 0.33045 0.0
C1848 C 0.67172 0.90769 0.33698 0.0
C1849 C 0.63888 0.89453 0.34209 0.0
C1850 C 0.664 0.91853 0.32823 0.0
C1851 C 0.66739 0.93496 0.3325 0.0
C1852 C 0.67857 0.94077 0.34558 0.0
C1853 C 0.68702 0.92988 0.35358 0.0
C1854 C 0.68362 0.91352 0.34933 0.0
H1855 H 0.62877 0.88781 0.3468 0.0
H1856 H 0.64413 0.90427 0.35131 0.0
H1857 H 0.63408 0.90002 0.33153 0.0
H1858 H 0.65497 0.91427 0.31846 0.0
H1859 H 0.66073 0.94306 0.32608 0.0
H1860 H 0.72967 0.09625 0.01364 0.0
H1861 H 0.72355 0.06767 0.00651 0.0
H1862 H 0.71502 0.07529 0.95698 0.0
H1863 H 0.72201 0.10397 0.96396 0.0
H1864 H 0.69844 0.04798 0.99158 0.0
H1865 H 0.75027 0.04646 0.95592 0.0
H1866 H 0.74695 0.06399 0.96841 0.0
H1867 H 0.73522 0.0587 0.94953 0.0
C1868 C 0.7265 0.09188 0.00121 0.0
C1869 C 0.7267 0.10239 0.98934 0.0
C1870 C 0.72284 0.07553 0.99716 0.0
C1871 C 0.71917 0.06928 0.98117 0.0
C1872 C 0.71819 0.07981 0.96936 0.0
H1873 H 0.70352 0.96355 0.9723 0.0
H1874 H 0.69832 0.99054 0.9664 0.0
C1875 C 0.722 0.09623 0.9734 0.0
C1876 C 0.71768 0.05174 0.97709 0.0
H1877 H 0.73718 0.02204 0.96029 0.0
C1878 C 0.7067 0.04225 0.98449 0.0
C1879 C 0.72853 0.04432 0.96787 0.0
C1880 C 0.741 0.05383 0.96005 0.0
C1881 C 0.70696 0.02566 0.98381 0.0
C1882 C 0.71826 0.01833 0.97516 0.0
C1883 C 0.7285 0.0277 0.96686 0.0
C1884 C 0.72151 0.00163 0.97676 0.0
C1885 C 0.69592 0.01629 0.99331 0.0
C1886 C 0.73647 0.99881 0.98383 0.0
C1887 C 0.73951 0.98351 0.98698 0.0
C1888 C 0.72763 0.97062 0.98321 0.0
C1889 C 0.71288 0.97326 0.97538 0.0
C1890 C 0.70985 0.98868 0.97215 0.0
H1891 H 0.68966 0.02415 0.00131 0.0
H1892 H 0.68679 0.00861 0.98503 0.0
H1893 H 0.70262 0.00847 0.00065 0.0
H1894 H 0.74569 0.00858 0.9874 0.0
H1895 H 0.7511 0.98181 0.99274 0.0
H1896 H 0.27077 0.69335 0.65115 0.0
H1897 H 0.28287 0.66838 0.652 0.0
H1898 H 0.2465 0.65046 0.6799 0.0
H1899 H 0.23426 0.67545 0.67908 0.0
H1900 H 0.29423 0.64983 0.67625 0.0
H1901 H 0.24029 0.61974 0.63879 0.0
H1902 H 0.24421 0.64113 0.64223 0.0
H1903 H 0.23686 0.62998 0.65748 0.0
C1904 C 0.26557 0.68427 0.65782 0.0
C1905 C 0.25144 0.68629 0.66488 0.0
C1906 C 0.27248 0.66999 0.65826 0.0
C1907 C 0.26541 0.65749 0.66576 0.0
C1908 C 0.25196 0.65987 0.67379 0.0
H1909 H 0.28067 0.55783 0.64413 0.0
H1910 H 0.27324 0.58151 0.65931 0.0
C1911 C 0.24498 0.67413 0.6733 0.0
C1912 C 0.27121 0.64157 0.66372 0.0
H1913 H 0.26109 0.6043 0.64446 0.0
C1914 C 0.28694 0.63979 0.66949 0.0
C1915 C 0.26166 0.6285 0.65487 0.0
C1916 C 0.24486 0.62987 0.64786 0.0
C1917 C 0.29348 0.62533 0.66638 0.0
C1918 C 0.28414 0.61248 0.65699 0.0
C1919 C 0.26822 0.61411 0.65176 0.0
C1920 C 0.29091 0.59787 0.65084 0.0
C1921 C 0.31036 0.62407 0.6731 0.0
C1922 C 0.30367 0.59912 0.64147 0.0
C1923 C 0.30803 0.5856 0.63294 0.0
C1924 C 0.29957 0.57059 0.6334 0.0
C1925 C 0.28749 0.5692 0.6436 0.0
C1926 C 0.28317 0.58274 0.65221 0.0
H1927 H 0.31334 0.63178 0.68452 0.0
H1928 H 0.31233 0.61164 0.67516 0.0
H1929 H 0.31863 0.62825 0.66461 0.0
H1930 H 0.30963 0.61065 0.63993 0.0
H1931 H 0.31753 0.58702 0.62533 0.0
H1932 H 0.36468 0.41001 0.01156 0.0
H1933 H 0.35455 0.43587 0.0103 0.0
H1934 H 0.39097 0.45672 0.04734 0.0
H1935 H 0.40127 0.43075 0.04864 0.0
H1936 H 0.34323 0.45665 0.03276 0.0
H1937 H 0.39832 0.48391 0.01088 0.0
H1938 H 0.39448 0.46273 0.01173 0.0
H1939 H 0.40076 0.47573 0.02965 0.0
C1940 C 0.37038 0.42001 0.01965 0.0
C1941 C 0.38382 0.41833 0.03016 0.0
C1942 C 0.36461 0.43481 0.01887 0.0
C1943 C 0.37214 0.44827 0.02856 0.0
C1944 C 0.38518 0.44655 0.03953 0.0
H1945 H 0.3222 0.53408 0.01618 0.0
H1946 H 0.33776 0.51601 0.03077 0.0
C1947 C 0.39103 0.43172 0.04027 0.0
C1948 C 0.36657 0.46407 0.02648 0.0
H1949 H 0.37676 0.49923 0.01159 0.0
C1950 C 0.35061 0.4661 0.0284 0.0
C1951 C 0.37626 0.47633 0.02074 0.0
C1952 C 0.39338 0.47462 0.01799 0.0
C1953 C 0.3438 0.47967 0.0239 0.0
C1954 C 0.35334 0.49168 0.01761 0.0
C1955 C 0.36954 0.49005 0.01653 0.0
C1956 C 0.34617 0.50456 0.0097 0.0
C1957 C 0.32621 0.48051 0.02488 0.0
C1958 C 0.34652 0.50472 0.99321 0.0
C1959 C 0.33786 0.51506 0.98496 0.0
C1960 C 0.32864 0.52547 0.99302 0.0
C1961 C 0.32919 0.52615 0.00969 0.0
C1962 C 0.33793 0.51575 0.018 0.0
H1963 H 0.3201 0.46908 0.02768 0.0
H1964 H 0.32452 0.48992 0.0344 0.0
H1965 H 0.32037 0.48361 0.01347 0.0
H1966 H 0.35287 0.49626 0.98658 0.0
H1967 H 0.33783 0.51446 0.97213 0.0
H1968 H 0.31745 0.62551 0.80911 0.0
H1969 H 0.31269 0.63608 0.83592 0.0
H1970 H 0.34759 0.67612 0.83408 0.0
H1971 H 0.35247 0.66562 0.80735 0.0
H1972 H 0.33546 0.64018 0.86135 0.0
H1973 H 0.31172 0.69768 0.85281 0.0
H1974 H 0.31221 0.68242 0.83653 0.0
H1975 H 0.32981 0.69564 0.84376 0.0
C1976 C 0.32399 0.63666 0.81435 0.0
C1977 C 0.33539 0.6447 0.8061 0.0
C1978 C 0.32118 0.64273 0.82963 0.0
C1979 C 0.32962 0.65699 0.83694 0.0
C1980 C 0.34063 0.6653 0.82854 0.0
H1981 H 0.35914 0.70538 0.92795 0.0
H1982 H 0.351 0.69716 0.89975 0.0
C1983 C 0.34343 0.65926 0.81325 0.0
C1984 C 0.32831 0.66225 0.85393 0.0
H1985 H 0.32266 0.69441 0.87943 0.0
C1986 C 0.33235 0.65192 0.86531 0.0
C1987 C 0.32429 0.67758 0.85906 0.0
C1988 C 0.31911 0.68891 0.84738 0.0
C1989 C 0.33336 0.65681 0.88169 0.0
C1990 C 0.3299 0.67236 0.88685 0.0
C1991 C 0.32525 0.68249 0.87547 0.0
C1992 C 0.33278 0.67881 0.90388 0.0
C1993 C 0.33903 0.64559 0.89331 0.0
C1994 C 0.32475 0.6717 0.91558 0.0
C1995 C 0.32949 0.6763 0.93178 0.0
C1996 C 0.3423 0.68812 0.93647 0.0
C1997 C 0.34944 0.69603 0.92469 0.0
C1998 C 0.34473 0.69141 0.90857 0.0
H1999 H 0.34412 0.6353 0.8873 0.0
H2000 H 0.34822 0.6519 0.90255 0.0
H2001 H 0.32883 0.64086 0.89938 0.0
H2002 H 0.31527 0.66216 0.9122 0.0
H2003 H 0.32374 0.67001 0.94057 0.0
H2004 H 0.99499 0.7185 0.0953 0.0
H2005 H 0.99035 0.71191 0.06645 0.0
H2006 H 0.94239 0.72477 0.0669 0.0
H2007 H 0.94691 0.73138 0.09585 0.0
H2008 H 0.96715 0.69121 0.04552 0.0
H2009 H 0.96316 0.75532 0.03803 0.0
H2010 H 0.97044 0.74872 0.05672 0.0
H2011 H 0.94946 0.74636 0.05035 0.0
C2012 C 0.98332 0.71958 0.08935 0.0
C2013 C 0.97137 0.72562 0.09787 0.0
C2014 C 0.98071 0.71586 0.07284 0.0
C2015 C 0.96613 0.71811 0.06452 0.0
C2016 C 0.95384 0.72324 0.07307 0.0
H2017 H 0.95474 0.72525 0.96156 0.0
H2018 H 0.9467 0.72122 0.98809 0.0
C2019 C 0.95645 0.72701 0.08959 0.0
C2020 C 0.96437 0.71626 0.04686 0.0
H2021 H 0.96238 0.73784 0.01486 0.0
C2022 C 0.96589 0.70135 0.03877 0.0
C2023 C 0.96266 0.7295 0.03809 0.0
C2024 C 0.96144 0.74592 0.04618 0.0
C2025 C 0.96623 0.69942 0.02217 0.0
C2026 C 0.96532 0.71282 0.01351 0.0
C2027 C 0.96301 0.72755 0.02151 0.0
C2028 C 0.96876 0.71245 0.99664 0.0
C2029 C 0.96782 0.68309 0.01411 0.0
C2030 C 0.98367 0.70856 0.99254 0.0
C2031 C 0.98824 0.71083 0.97748 0.0
C2032 C 0.97805 0.71716 0.96622 0.0
C2033 C 0.96278 0.72025 0.96998 0.0
C2034 C 0.95821 0.71801 0.98513 0.0
H2035 H 0.96262 0.67361 0.02084 0.0
H2036 H 0.96189 0.68145 0.00173 0.0
H2037 H 0.98064 0.68158 0.01371 0.0
H2038 H 0.99216 0.7046 0.00129 0.0
H2039 H 1.00005 0.70826 0.97485 0.0
H2040 H 0.67749 0.23464 0.67246 0.0
H2041 H 0.67901 0.24768 0.64804 0.0
H2042 H 0.65571 0.28656 0.66855 0.0
H2043 H 0.654 0.27355 0.69291 0.0
H2044 H 0.65173 0.25273 0.6303 0.0
H2045 H 0.69036 0.30914 0.64565 0.0
H2046 H 0.68931 0.29381 0.65896 0.0
H2047 H 0.67459 0.3078 0.65835 0.0
C2048 C 0.67292 0.2461 0.67187 0.0
C2049 C 0.66548 0.25299 0.68457 0.0
C2050 C 0.6739 0.25357 0.65795 0.0
C2051 C 0.66757 0.26814 0.65651 0.0
C2052 C 0.66097 0.27549 0.66951 0.0
H2053 H 0.62556 0.31948 0.58641 0.0
H2054 H 0.64029 0.31146 0.61 0.0
C2055 C 0.65997 0.26801 0.68344 0.0
C2056 C 0.66564 0.27438 0.64077 0.0
H2057 H 0.6715 0.30793 0.62184 0.0
C2058 C 0.65634 0.26468 0.62832 0.0
C2059 C 0.67155 0.29001 0.63829 0.0
C2060 C 0.68213 0.30072 0.65102 0.0
C2061 C 0.65204 0.27044 0.61374 0.0
C2062 C 0.65756 0.28626 0.61138 0.0
C2063 C 0.66735 0.2958 0.62364 0.0
C2064 C 0.65178 0.29343 0.59691 0.0
C2065 C 0.64081 0.25983 0.60139 0.0
C2066 C 0.65409 0.28661 0.58166 0.0
C2067 C 0.64546 0.29099 0.56815 0.0
C2068 C 0.63454 0.30239 0.56971 0.0
C2069 C 0.63358 0.31036 0.58487 0.0
C2070 C 0.64209 0.30589 0.59835 0.0
H2071 H 0.63509 0.24936 0.60642 0.0
H2072 H 0.63129 0.26652 0.59623 0.0
H2073 H 0.64754 0.25533 0.59161 0.0
H2074 H 0.6618 0.27721 0.58027 0.0
H2075 H 0.64654 0.28466 0.55666 0.0
H2076 H 0.05417 0.39289 0.4272 0.0
H2077 H 0.05147 0.38303 0.45317 0.0
H2078 H 0.01345 0.34798 0.43164 0.0
H2079 H 0.01608 0.3577 0.40577 0.0
H2080 H 0.02577 0.38343 0.4694 0.0
H2081 H 0.03961 0.3213 0.45866 0.0
H2082 H 0.04453 0.3361 0.44543 0.0
H2083 H 0.02482 0.32563 0.44359 0.0
C2084 C 0.04536 0.38296 0.42799 0.0
C2085 C 0.03536 0.37604 0.41441 0.0
C2086 C 0.04388 0.37731 0.44282 0.0
C2087 C 0.03245 0.36459 0.44432 0.0
C2088 C 0.02268 0.35749 0.43072 0.0
H2089 H 0.97107 0.34212 0.51121 0.0
H2090 H 0.98775 0.3548 0.49315 0.0
C2091 C 0.02417 0.36309 0.41591 0.0
C2092 C 0.02957 0.35965 0.46022 0.0
H2093 H 0.02256 0.32664 0.47962 0.0
C2094 C 0.02542 0.37106 0.47178 0.0
C2095 C 0.02945 0.3436 0.46353 0.0
C2096 C 0.03502 0.33101 0.45219 0.0
C2097 C 0.01992 0.36663 0.486 0.0
C2098 C 0.01823 0.35034 0.48854 0.0
C2099 C 0.02362 0.33912 0.47759 0.0
C2100 C 0.00906 0.34442 0.50123 0.0
C2101 C 0.01553 0.37941 0.49792 0.0
C2102 C 0.01546 0.33433 0.51184 0.0
C2103 C 0.00584 0.32693 0.52214 0.0
C2104 C 0.98965 0.32936 0.5218 0.0
C2105 C 0.9835 0.34 0.51167 0.0
C2106 C 0.99308 0.34738 0.50146 0.0
H2107 H 0.02285 0.39089 0.49741 0.0
H2108 H 0.00287 0.38136 0.49503 0.0
H2109 H 0.01711 0.376 0.51026 0.0
H2110 H 0.02773 0.33177 0.51176 0.0
H2111 H 0.01082 0.31868 0.52974 0.0
H2112 H 0.31933 0.6104 0.46602 0.0
H2113 H 0.31942 0.59919 0.49155 0.0
H2114 H 0.28091 0.56391 0.47177 0.0
H2115 H 0.28093 0.57489 0.44602 0.0
H2116 H 0.29272 0.59582 0.51011 0.0
H2117 H 0.31537 0.53791 0.49239 0.0
H2118 H 0.31768 0.55475 0.48095 0.0
H2119 H 0.29869 0.5432 0.47997 0.0
C2120 C 0.311 0.60014 0.46704 0.0
C2121 C 0.30018 0.59347 0.45398 0.0
C2122 C 0.31102 0.59381 0.48164 0.0
C2123 C 0.30031 0.58062 0.48346 0.0
C2124 C 0.28942 0.57395 0.47051 0.0
H2125 H 0.28696 0.5307 0.56769 0.0
H2126 H 0.28572 0.5381 0.54034 0.0
C2127 C 0.28934 0.58033 0.45588 0.0
C2128 C 0.30029 0.57427 0.49912 0.0
H2129 H 0.30891 0.54232 0.51883 0.0
C2130 C 0.29623 0.58412 0.51203 0.0
C2131 C 0.30474 0.55895 0.5015 0.0
C2132 C 0.30948 0.54807 0.48803 0.0
C2133 C 0.2966 0.5791 0.52733 0.0
C2134 C 0.30153 0.56396 0.52984 0.0
C2135 C 0.30523 0.55395 0.51686 0.0
C2136 C 0.30328 0.55859 0.54598 0.0
C2137 C 0.29157 0.59 0.54065 0.0
C2138 C 0.31398 0.56732 0.55802 0.0
C2139 C 0.3147 0.56314 0.57358 0.0
C2140 C 0.30484 0.55005 0.57736 0.0
C2141 C 0.29474 0.5408 0.5651 0.0
C2142 C 0.29397 0.54505 0.54951 0.0
H2143 H 0.28397 0.59886 0.536 0.0
H2144 H 0.28493 0.58313 0.54888 0.0
H2145 H 0.30233 0.59664 0.54756 0.0
H2146 H 0.32156 0.57757 0.55544 0.0
H2147 H 0.32279 0.57032 0.58273 0.0
H2148 H 0.25587 0.41663 0.86111 0.0
H2149 H 0.26426 0.43951 0.88087 0.0
H2150 H 0.2278 0.46531 0.85953 0.0
H2151 H 0.21936 0.44247 0.83962 0.0
H2152 H 0.27507 0.4707 0.87577 0.0
H2153 H 0.22016 0.46866 0.90691 0.0
H2154 H 0.22459 0.45223 0.89347 0.0
H2155 H 0.21726 0.46945 0.88573 0.0
C2156 C 0.24969 0.4272 0.86054 0.0
C2157 C 0.23693 0.42772 0.8488 0.0
C2158 C 0.25446 0.44024 0.87188 0.0
C2159 C 0.24653 0.45402 0.87176 0.0
C2160 C 0.23387 0.45467 0.86001 0.0
H2161 H 0.28951 0.54092 0.93149 0.0
H2162 H 0.27563 0.52357 0.90855 0.0
C2163 C 0.22907 0.44161 0.84865 0.0
C2164 C 0.25179 0.46773 0.88388 0.0
H2165 H 0.24046 0.4893 0.91621 0.0
C2166 C 0.26748 0.47489 0.88453 0.0
C2167 C 0.24185 0.47305 0.89532 0.0
C2168 C 0.22506 0.46541 0.89549 0.0
C2169 C 0.27365 0.487 0.89657 0.0
C2170 C 0.26375 0.49227 0.90809 0.0
C2171 C 0.24794 0.48535 0.90724 0.0
C2172 C 0.27013 0.5037 0.92204 0.0
C2173 C 0.29093 0.49352 0.89728 0.0
C2174 C 0.27092 0.49853 0.93729 0.0
C2175 C 0.27867 0.50842 0.95036 0.0
C2176 C 0.28578 0.52369 0.94844 0.0
C2177 C 0.28414 0.52922 0.93332 0.0
C2178 C 0.27636 0.51928 0.9202 0.0
H2179 H 0.29764 0.48609 0.88935 0.0
H2180 H 0.29167 0.50571 0.89346 0.0
H2181 H 0.29682 0.4943 0.90964 0.0
H2182 H 0.2661 0.48658 0.93898 0.0
H2183 H 0.27951 0.50394 0.96193 0.0
H2184 H 0.71446 0.97781 0.52172 0.0
H2185 H 0.71199 0.98074 0.49328 0.0
H2186 H 0.67248 0.00856 0.49887 0.0
H2187 H 0.67491 0.00573 0.52748 0.0
H2188 H 0.66606 0.98436 0.47462 0.0
H2189 H 0.72383 0.01843 0.46904 0.0
H2190 H 0.72627 0.00107 0.47919 0.0
H2191 H 0.71606 0.01682 0.48799 0.0
C2192 C 0.70546 0.98486 0.51699 0.0
C2193 C 0.69492 0.99159 0.52687 0.0
C2194 C 0.70409 0.98654 0.50072 0.0
C2195 C 0.69224 0.9951 0.49402 0.0
C2196 C 0.68178 0.00199 0.50385 0.0
H2197 H 0.66698 1.0001 0.39141 0.0
H2198 H 0.66878 0.00639 0.42045 0.0
C2199 C 0.68313 0.00029 0.52015 0.0
C2200 C 0.69008 0.99572 0.47656 0.0
H2201 H 0.71028 0.00407 0.44487 0.0
C2202 C 0.6756 0.98895 0.46812 0.0
C2203 C 0.70254 0.00178 0.46812 0.0
C2204 C 0.71799 0.01008 0.47657 0.0
C2205 C 0.67358 0.98725 0.45141 0.0
C2206 C 0.68634 0.99256 0.443 0.0
C2207 C 0.70057 0.99994 0.45141 0.0
C2208 C 0.68556 0.98939 0.42551 0.0
C2209 C 0.65814 0.97909 0.44281 0.0
C2210 C 0.69458 0.97794 0.41886 0.0
C2211 C 0.69357 0.97432 0.40238 0.0
C2212 C 0.68359 0.98218 0.39225 0.0
C2213 C 0.6748 0.9939 0.39894 0.0
C2214 C 0.67575 0.99744 0.41548 0.0
H2215 H 0.65009 0.97408 0.4511 0.0
H2216 H 0.65189 0.98779 0.43623 0.0
H2217 H 0.66054 0.96933 0.43395 0.0
H2218 H 0.70226 0.97165 0.42646 0.0
H2219 H 0.70066 0.96541 0.39755 0.0
H2220 H 0.77039 0.94061 0.16182 0.0
H2221 H 0.76542 0.93173 0.13332 0.0
H2222 H 0.79356 0.97382 0.12292 0.0
H2223 H 0.79843 0.98289 0.15135 0.0
H2224 H 0.74979 0.94955 0.11175 0.0
H2225 H 0.80933 0.93807 0.0941 0.0
H2226 H 0.80479 0.9391 0.11455 0.0
H2227 H 0.80895 0.95706 0.10534 0.0
C2228 C 0.77564 0.94791 0.15348 0.0
C2229 C 0.78473 0.9625 0.15885 0.0
C2230 C 0.77287 0.94276 0.13722 0.0
C2231 C 0.77925 0.95203 0.12605 0.0
C2232 C 0.78881 0.96632 0.13138 0.0
H2233 H 0.76514 0.96023 0.02617 0.0
H2234 H 0.77465 0.96137 0.05442 0.0
C2235 C 0.79158 0.97149 0.14764 0.0
C2236 C 0.7745 0.9477 0.10882 0.0
H2237 H 0.78911 0.94027 0.073 0.0
C2238 C 0.75834 0.94728 0.10328 0.0
C2239 C 0.78572 0.94487 0.09784 0.0
C2240 C 0.80316 0.94464 0.10324 0.0
C2241 C 0.75313 0.94473 0.08696 0.0
C2242 C 0.76437 0.94214 0.07592 0.0
C2243 C 0.78051 0.94221 0.08149 0.0
C2244 C 0.75968 0.94036 0.05853 0.0
C2245 C 0.73573 0.94555 0.08167 0.0
C2246 C 0.74844 0.9279 0.05138 0.0
C2247 C 0.7428 0.92734 0.03528 0.0
C2248 C 0.74843 0.93917 0.02602 0.0
C2249 C 0.76032 0.95113 0.03305 0.0
C2250 C 0.76588 0.95172 0.04915 0.0
H2251 H 0.72949 0.95127 0.09127 0.0
H2252 H 0.73432 0.95229 0.07111 0.0
H2253 H 0.7298 0.9333 0.07833 0.0
H2254 H 0.74373 0.91883 0.05835 0.0
H2255 H 0.73361 0.918 0.03026 0.0
H2256 H 0.46717 0.31993 0.60929 0.0
H2257 H 0.49258 0.31932 0.59795 0.0
H2258 H 0.47198 0.28073 0.56312 0.0
H2259 H 0.44634 0.28144 0.57424 0.0
H2260 H 0.51063 0.2921 0.59462 0.0
H2261 H 0.49292 0.3147 0.53665 0.0
H2262 H 0.4817 0.31744 0.55361 0.0
H2263 H 0.48034 0.29831 0.54227 0.0
C2264 C 0.46798 0.31142 0.5991 0.0
C2265 C 0.45472 0.30079 0.5926 0.0
C2266 C 0.48252 0.31104 0.5927 0.0
C2267 C 0.48408 0.30012 0.57959 0.0
C2268 C 0.47093 0.2894 0.5731 0.0
H2269 H 0.56879 0.28758 0.52969 0.0
H2270 H 0.54137 0.28559 0.53695 0.0
C2271 C 0.45636 0.28972 0.57956 0.0
C2272 C 0.49966 0.29978 0.57312 0.0
H2273 H 0.51938 0.30845 0.54119 0.0
C2274 C 0.51254 0.29561 0.58292 0.0
C2275 C 0.50204 0.30422 0.55779 0.0
C2276 C 0.48858 0.30903 0.54694 0.0
C2277 C 0.52784 0.29597 0.57789 0.0
C2278 C 0.53037 0.30099 0.5628 0.0
C2279 C 0.51739 0.3047 0.55278 0.0
C2280 C 0.54655 0.30304 0.55757 0.0
C2281 C 0.54115 0.29091 0.58877 0.0
C2282 C 0.55836 0.31392 0.56643 0.0
C2283 C 0.57394 0.31509 0.56232 0.0
C2284 C 0.57801 0.30549 0.54918 0.0
C2285 C 0.56599 0.29517 0.53984 0.0
C2286 C 0.55036 0.29396 0.544 0.0
H2287 H 0.53649 0.28316 0.59751 0.0
H2288 H 0.54946 0.28441 0.58187 0.0
H2289 H 0.54797 0.30164 0.59555 0.0
H2290 H 0.55556 0.32133 0.5767 0.0
H2291 H 0.58289 0.32335 0.56957 0.0
H2292 H 0.15189 0.80307 0.96797 0.0
H2293 H 0.12304 0.79916 0.96034 0.0
H2294 H 0.12248 0.74973 0.96863 0.0
H2295 H 0.15106 0.75361 0.97675 0.0
H2296 H 0.10477 0.77785 0.93611 0.0
H2297 H 0.08914 0.76626 0.99623 0.0
H2298 H 0.10861 0.77499 0.99277 0.0
H2299 H 0.10348 0.75379 0.98912 0.0
C2300 C 0.14559 0.79141 0.96828 0.0
C2301 C 0.15377 0.77867 0.97303 0.0
C2302 C 0.12915 0.78917 0.96382 0.0
C2303 C 0.12063 0.77422 0.96415 0.0
C2304 C 0.12881 0.76143 0.96854 0.0
H2305 H 0.02995 0.7296 0.92178 0.0
H2306 H 0.05763 0.74146 0.9269 0.0
C2307 C 0.14519 0.76364 0.973 0.0
C2308 C 0.10316 0.77184 0.96006 0.0
H2309 H 0.06876 0.75874 0.97469 0.0
C2310 C 0.09683 0.77386 0.94457 0.0
C2311 C 0.09283 0.76693 0.97122 0.0
C2312 C 0.09882 0.76552 0.98831 0.0
C2313 C 0.08046 0.77038 0.93972 0.0
C2314 C 0.07028 0.76447 0.95061 0.0
C2315 C 0.07657 0.76314 0.96629 0.0
C2316 C 0.05323 0.75886 0.94595 0.0
C2317 C 0.07425 0.77303 0.92302 0.0
C2318 C 0.04154 0.76466 0.95496 0.0
C2319 C 0.02579 0.75775 0.95219 0.0
C2320 C 0.02143 0.74494 0.94034 0.0
C2321 C 0.03297 0.7396 0.93085 0.0
C2322 C 0.04877 0.74643 0.93372 0.0
H2323 H 0.08211 0.78226 0.91822 0.0
H2324 H 0.07396 0.76177 0.91512 0.0
H2325 H 0.06201 0.77671 0.92257 0.0
H2326 H 0.04472 0.77422 0.96448 0.0
H2327 H 0.01708 0.76215 0.95959 0.0
H2328 H 0.85283 0.26178 0.41414 0.0
H2329 H 0.87124 0.27085 0.43789 0.0
H2330 H 0.86053 0.22604 0.4567 0.0
H2331 H 0.84167 0.21696 0.43314 0.0
H2332 H 0.86242 0.27102 0.47214 0.0
H2333 H 0.91127 0.23445 0.45705 0.0
H2334 H 0.89674 0.23953 0.44188 0.0
H2335 H 0.8911 0.22507 0.45496 0.0
C2336 C 0.85424 0.25388 0.42337 0.0
C2337 C 0.8457 0.23865 0.42174 0.0
C2338 C 0.86483 0.25906 0.43689 0.0
C2339 C 0.86723 0.24908 0.44896 0.0
C2340 C 0.8589 0.23384 0.4474 0.0
H2341 H 0.94119 0.27126 0.52998 0.0
H2342 H 0.91837 0.25717 0.51261 0.0
C2343 C 0.8482 0.22866 0.4339 0.0
C2344 C 0.87838 0.25486 0.46324 0.0
H2345 H 0.91618 0.25267 0.48004 0.0
C2346 C 0.87411 0.26691 0.474 0.0
C2347 C 0.89352 0.2493 0.46567 0.0
C2348 C 0.89858 0.23641 0.4543 0.0
C2349 C 0.88482 0.27393 0.48695 0.0
C2350 C 0.90031 0.26901 0.4889 0.0
C2351 C 0.90431 0.25644 0.47852 0.0
C2352 C 0.913 0.27773 0.5006 0.0
C2353 C 0.87947 0.28664 0.49832 0.0
C2354 C 0.91746 0.29394 0.49966 0.0
C2355 C 0.93035 0.30199 0.50957 0.0
C2356 C 0.9392 0.29395 0.52053 0.0
C2357 C 0.9345 0.27779 0.52176 0.0
C2358 C 0.92154 0.26972 0.51179 0.0
H2359 H 0.86634 0.28508 0.49863 0.0
H2360 H 0.88531 0.28654 0.5106 0.0
H2361 H 0.88262 0.29849 0.49426 0.0
H2362 H 0.91128 0.30029 0.49088 0.0
H2363 H 0.9336 0.31447 0.50844 0.0
H2364 H 0.51859 0.68606 0.95666 0.0
H2365 H 0.49004 0.68547 0.95892 0.0
H2366 H 0.49982 0.71007 0.00627 0.0
H2367 H 0.52849 0.71088 0.004 0.0
H2368 H 0.47179 0.67216 0.98005 0.0
H2369 H 0.46971 0.73775 0.98448 0.0
H2370 H 0.48687 0.72845 0.97875 0.0
H2371 H 0.48325 0.73097 0.99934 0.0
C2372 C 0.51466 0.69126 0.96759 0.0
C2373 C 0.52575 0.69857 0.98013 0.0
C2374 C 0.49836 0.69095 0.96886 0.0
C2375 C 0.49281 0.69791 0.98268 0.0
C2376 C 0.50384 0.70494 0.99537 0.0
H2377 H 0.39115 0.68111 0.99572 0.0
H2378 H 0.4202 0.68254 0.00033 0.0
C2379 C 0.5202 0.70537 0.99406 0.0
C2380 C 0.47545 0.69777 0.9836 0.0
H2381 H 0.44563 0.72196 0.98623 0.0
C2382 C 0.46605 0.68304 0.9815 0.0
C2383 C 0.46803 0.712 0.98537 0.0
C2384 C 0.47743 0.72821 0.98697 0.0
C2385 C 0.44939 0.68213 0.98075 0.0
C2386 C 0.44197 0.69635 0.98253 0.0
C2387 C 0.45138 0.71108 0.98498 0.0
C2388 C 0.42442 0.69628 0.98061 0.0
C2389 C 0.43988 0.66598 0.97737 0.0
C2390 C 0.4172 0.70405 0.9684 0.0
C2391 C 0.40065 0.70351 0.96592 0.0
C2392 C 0.39096 0.69514 0.97558 0.0
C2393 C 0.39825 0.68771 0.9881 0.0
C2394 C 0.41485 0.68835 0.99064 0.0
H2395 H 0.44715 0.65671 0.9727 0.0
H2396 H 0.43556 0.66235 0.98857 0.0
H2397 H 0.42936 0.66636 0.96861 0.0
H2398 H 0.42438 0.71034 0.96059 0.0
H2399 H 0.39545 0.70965 0.9564 0.0
H2400 H 0.60893 0.46327 0.28698 0.0
H2401 H 0.5968 0.48833 0.28742 0.0
H2402 H 0.55354 0.46483 0.301 0.0
H2403 H 0.56561 0.4397 0.30062 0.0
H2404 H 0.56942 0.49677 0.27097 0.0
H2405 H 0.56516 0.50164 0.33623 0.0
H2406 H 0.57678 0.48763 0.32647 0.0
H2407 H 0.5555 0.48352 0.3254 0.0
C2408 C 0.59677 0.46338 0.28987 0.0
C2409 C 0.58827 0.44953 0.29388 0.0
C2410 C 0.58987 0.47772 0.29018 0.0
C2411 C 0.57438 0.47849 0.29451 0.0
C2412 C 0.56565 0.46457 0.29798 0.0
H2413 H 0.52399 0.56346 0.2839 0.0
H2414 H 0.53033 0.53578 0.28234 0.0
C2415 C 0.57256 0.45023 0.29774 0.0
C2416 C 0.56755 0.49396 0.2957 0.0
H2417 H 0.55446 0.52151 0.32208 0.0
C2418 C 0.56605 0.50216 0.28211 0.0
C2419 C 0.56334 0.50101 0.31032 0.0
C2420 C 0.56539 0.4931 0.32549 0.0
C2421 C 0.5606 0.51732 0.28275 0.0
C2422 C 0.55628 0.52431 0.29734 0.0
C2423 C 0.55762 0.51604 0.31089 0.0
C2424 C 0.55154 0.54071 0.29908 0.0
C2425 C 0.56009 0.52595 0.26798 0.0
C2426 C 0.56097 0.5525 0.3095 0.0
C2427 C 0.55727 0.56823 0.31057 0.0
C2428 C 0.54405 0.5725 0.30124 0.0
C2429 C 0.53423 0.56054 0.29127 0.0
C2430 C 0.53794 0.54476 0.29023 0.0
H2431 H 0.56702 0.52045 0.25882 0.0
H2432 H 0.54755 0.52552 0.2627 0.0
H2433 H 0.56486 0.53866 0.27091 0.0
H2434 H 0.57145 0.5496 0.31653 0.0
H2435 H 0.56491 0.57711 0.31856 0.0
H2436 H 0.9931 0.15255 0.78467 0.0
H2437 H 0.98527 0.124 0.77806 0.0
H2438 H 0.93622 0.13306 0.76891 0.0
H2439 H 0.94398 0.16167 0.77544 0.0
H2440 H 0.96393 0.10202 0.78991 0.0
H2441 H 0.94553 0.11 0.72671 0.0
H2442 H 0.95674 0.12562 0.74033 0.0
H2443 H 0.93567 0.12131 0.74107 0.0
C2444 C 0.98061 0.14844 0.78152 0.0
C2445 C 0.96917 0.15936 0.78043 0.0
C2446 C 0.97617 0.13214 0.7777 0.0
C2447 C 0.96022 0.12647 0.77272 0.0
C2448 C 0.94864 0.13724 0.77238 0.0
H2449 H 0.9271 0.02428 0.75586 0.0
H2450 H 0.93007 0.05253 0.76615 0.0
C2451 C 0.95309 0.15356 0.77612 0.0
C2452 C 0.95591 0.10938 0.76717 0.0
H2453 H 0.94193 0.08392 0.73413 0.0
C2454 C 0.95902 0.09803 0.77775 0.0
C2455 C 0.9497 0.10426 0.75123 0.0
C2456 C 0.94683 0.11589 0.73911 0.0
C2457 C 0.95623 0.08164 0.77278 0.0
C2458 C 0.94993 0.07653 0.75687 0.0
C2459 C 0.94664 0.0879 0.74635 0.0
C2460 C 0.94767 0.0595 0.75054 0.0
C2461 C 0.96057 0.06995 0.78441 0.0
C2462 C 0.95622 0.05417 0.73806 0.0
C2463 C 0.95441 0.03815 0.73204 0.0
C2464 C 0.94397 0.02709 0.73837 0.0
C2465 C 0.93518 0.03251 0.75069 0.0
C2466 C 0.937 0.0486 0.75671 0.0
H2467 H 0.96843 0.07581 0.79499 0.0
H2468 H 0.94955 0.06444 0.78862 0.0
H2469 H 0.96669 0.06029 0.77862 0.0
H2470 H 0.96444 0.06242 0.73306 0.0
H2471 H 0.96113 0.03442 0.72235 0.0
H2472 H 0.41383 0.868 0.22098 0.0
H2473 H 0.43569 0.889 0.22947 0.0
H2474 H 0.46457 0.85429 0.24781 0.0
H2475 H 0.44286 0.8332 0.23918 0.0
H2476 H 0.44927 0.89577 0.26227 0.0
H2477 H 0.49448 0.8808 0.22141 0.0
H2478 H 0.47357 0.87384 0.21695 0.0
H2479 H 0.48581 0.86458 0.23106 0.0
C2480 C 0.42495 0.8648 0.22654 0.0
C2481 C 0.42663 0.84896 0.22943 0.0
C2482 C 0.43738 0.8768 0.23143 0.0
C2483 C 0.45178 0.87314 0.23909 0.0
C2484 C 0.45364 0.85731 0.24169 0.0
H2485 H 0.53599 0.92875 0.28906 0.0
H2486 H 0.51693 0.90752 0.27443 0.0
C2487 C 0.44117 0.84531 0.2369 0.0
C2488 C 0.46432 0.88606 0.24559 0.0
H2489 H 0.50275 0.90085 0.24287 0.0
C2490 C 0.46093 0.89698 0.25796 0.0
C2491 C 0.47954 0.88742 0.24004 0.0
C2492 C 0.48362 0.87613 0.22655 0.0
C2493 C 0.47245 0.90912 0.26515 0.0
C2494 C 0.48765 0.91065 0.25949 0.0
C2495 C 0.49107 0.89969 0.24712 0.0
C2496 C 0.50011 0.9235 0.26648 0.0
C2497 C 0.46836 0.91993 0.27905 0.0
C2498 C 0.49725 0.93951 0.26625 0.0
C2499 C 0.50801 0.95156 0.27465 0.0
C2500 C 0.52194 0.94783 0.28322 0.0
C2501 C 0.52535 0.93191 0.28252 0.0
C2502 C 0.51447 0.9198 0.27421 0.0
H2503 H 0.45806 0.91454 0.28459 0.0
H2504 H 0.47866 0.92269 0.28833 0.0
H2505 H 0.4651 0.93128 0.27479 0.0
H2506 H 0.48643 0.94264 0.26001 0.0
H2507 H 0.50523 0.96378 0.27484 0.0
H2508 H 0.00293 0.52618 0.72647 0.0
H2509 H 0.00477 0.4977 0.72791 0.0
H2510 H 0.97866 0.48722 0.68134 0.0
H2511 H 0.97656 0.51556 0.67986 0.0
H2512 H 0.97865 0.47469 0.72645 0.0
H2513 H 0.01637 0.46057 0.67817 0.0
H2514 H 0.01522 0.48069 0.68681 0.0
H2515 H 0.99984 0.4711 0.672 0.0
C2516 C 0.99763 0.51781 0.71651 0.0
C2517 C 0.98959 0.52315 0.70305 0.0
C2518 C 0.99879 0.50157 0.71732 0.0
C2519 C 0.99206 0.4904 0.70464 0.0
C2520 C 0.98428 0.49569 0.69109 0.0
H2521 H 0.96508 0.39106 0.68297 0.0
H2522 H 0.97185 0.41978 0.68363 0.0
C2523 C 0.98308 0.5119 0.69027 0.0
C2524 C 0.99194 0.47313 0.70605 0.0
H2525 H 0.00145 0.43841 0.68732 0.0
C2526 C 0.98385 0.46675 0.71807 0.0
C2527 C 0.99873 0.46286 0.69507 0.0
C2528 C 0.00816 0.46915 0.68237 0.0
C2529 C 0.98166 0.45027 0.71893 0.0
C2530 C 0.98802 0.43994 0.70763 0.0
C2531 C 0.99657 0.44637 0.69594 0.0
C2532 C 0.98491 0.42242 0.70708 0.0
C2533 C 0.97191 0.444 0.73143 0.0
C2534 C 0.99029 0.41436 0.71993 0.0
C2535 C 0.98628 0.39795 0.71967 0.0
C2536 C 0.9769 0.38934 0.7065 0.0
C2537 C 0.97204 0.3974 0.69342 0.0
C2538 C 0.97602 0.41378 0.69371 0.0
H2539 H 0.96514 0.45326 0.73699 0.0
H2540 H 0.96337 0.43366 0.72622 0.0
H2541 H 0.97997 0.43996 0.74097 0.0
H2542 H 0.99738 0.42079 0.73025 0.0
H2543 H 0.99017 0.39209 0.72994 0.0
H2544 H 0.68527 0.38374 0.52583 0.0
H2545 H 0.68544 0.39833 0.50233 0.0
H2546 H 0.71757 0.43611 0.52899 0.0
H2547 H 0.71746 0.42154 0.55261 0.0
H2548 H 0.67612 0.4287 0.49906 0.0
H2549 H 0.73975 0.42603 0.48891 0.0
H2550 H 0.72991 0.41354 0.5019 0.0
H2551 H 0.73617 0.43414 0.50845 0.0
C2552 C 0.69235 0.39517 0.52671 0.0
C2553 C 0.70135 0.40148 0.54109 0.0
C2554 C 0.69247 0.40347 0.51327 0.0
C2555 C 0.70162 0.41823 0.51387 0.0
C2556 C 0.71066 0.4246 0.52818 0.0
H2557 H 0.7132 0.47538 0.43342 0.0
H2558 H 0.71333 0.46823 0.46087 0.0
C2559 C 0.71059 0.41626 0.54165 0.0
C2560 C 0.70134 0.42697 0.49953 0.0
H2561 H 0.72425 0.43963 0.47121 0.0
C2562 C 0.68667 0.43119 0.49303 0.0
C2563 C 0.71514 0.43033 0.49176 0.0
C2564 C 0.73114 0.4257 0.49799 0.0
C2565 C 0.68534 0.43831 0.47875 0.0
C2566 C 0.69901 0.4411 0.47067 0.0
C2567 C 0.7138 0.43749 0.47748 0.0
C2568 C 0.69793 0.44627 0.45444 0.0
C2569 C 0.66929 0.44263 0.47234 0.0
C2570 C 0.68919 0.43633 0.44181 0.0
C2571 C 0.68913 0.44035 0.42623 0.0
C2572 C 0.69783 0.45439 0.42295 0.0
C2573 C 0.70626 0.46457 0.43565 0.0
C2574 C 0.70642 0.46047 0.45128 0.0
H2575 H 0.66134 0.44423 0.48193 0.0
H2576 H 0.67049 0.45374 0.4664 0.0
H2577 H 0.66348 0.43288 0.46342 0.0
H2578 H 0.68278 0.42519 0.44395 0.0
H2579 H 0.68247 0.43232 0.41668 0.0
H2580 H 0.73234 0.58519 0.15323 0.0
H2581 H 0.72267 0.56219 0.13403 0.0
H2582 H 0.76894 0.54501 0.139 0.0
H2583 H 0.77869 0.56782 0.15852 0.0
H2584 H 0.75552 0.54621 0.1069 0.0
H2585 H 0.7132 0.51506 0.14256 0.0
H2586 H 0.71088 0.53581 0.1417 0.0
H2587 H 0.72891 0.53006 0.15141 0.0
C2588 C 0.74041 0.5764 0.15046 0.0
C2589 C 0.75629 0.57834 0.15748 0.0
C2590 C 0.73486 0.56327 0.13947 0.0
C2591 C 0.74504 0.5518 0.1353 0.0
C2592 C 0.7609 0.55371 0.14216 0.0
H2593 H 0.72743 0.47326 0.05808 0.0
H2594 H 0.73993 0.49037 0.08176 0.0
C2595 C 0.76646 0.56681 0.15321 0.0
C2596 C 0.73925 0.53825 0.12319 0.0
H2597 H 0.71088 0.50646 0.11474 0.0
C2598 C 0.74592 0.53737 0.10865 0.0
C2599 C 0.72673 0.52678 0.12557 0.0
C2600 C 0.71958 0.52683 0.14121 0.0
C2601 C 0.73986 0.52573 0.09611 0.0
C2602 C 0.72704 0.51448 0.09834 0.0
C2603 C 0.72072 0.51508 0.11307 0.0
C2604 C 0.7192 0.50285 0.08512 0.0
C2605 C 0.74673 0.52607 0.08033 0.0
C2606 C 0.7032 0.50369 0.07967 0.0
C2607 C 0.69598 0.49382 0.06633 0.0
C2608 C 0.70464 0.48291 0.05816 0.0
C2609 C 0.72045 0.48153 0.06412 0.0
C2610 C 0.72766 0.49141 0.07753 0.0
H2611 H 0.75412 0.53746 0.07958 0.0
H2612 H 0.7544 0.51625 0.07884 0.0
H2613 H 0.7371 0.52433 0.0703 0.0
H2614 H 0.69641 0.51234 0.08544 0.0
H2615 H 0.68369 0.49495 0.06222 0.0
H2616 H 0.28464 0.01291 0.48359 0.0
H2617 H 0.28494 0.01321 0.51242 0.0
H2618 H 0.32957 0.9926 0.51466 0.0
H2619 H 0.32933 0.99212 0.48568 0.0
H2620 H 0.28679 0.98858 0.53294 0.0
H2621 H 0.33899 0.03471 0.54429 0.0
H2622 H 0.32782 0.03007 0.52494 0.0
H2623 H 0.34162 0.01687 0.53201 0.0
C2624 C 0.29439 0.00816 0.49014 0.0
C2625 C 0.307 0.00255 0.48234 0.0
C2626 C 0.29457 0.0084 0.50663 0.0
C2627 C 0.30736 0.0031 0.51565 0.0
C2628 C 0.31972 0.99698 0.5079 0.0
H2629 H 0.30723 0.99954 0.61926 0.0
H2630 H 0.30884 0.99145 0.59093 0.0
C2631 C 0.31957 0.99675 0.49137 0.0
C2632 C 0.30798 0.00479 0.53323 0.0
H2633 H 0.32753 0.02626 0.56663 0.0
C2634 C 0.29579 0.99666 0.54037 0.0
C2635 C 0.31967 0.01546 0.5428 0.0
C2636 C 0.33273 0.0249 0.53568 0.0
C2637 C 0.29477 0.99923 0.55683 0.0
C2638 C 0.30633 0.01009 0.56633 0.0
C2639 C 0.31875 0.01789 0.55926 0.0
C2640 C 0.30506 0.0146 0.58341 0.0
C2641 C 0.28099 0.99086 0.56383 0.0
C2642 C 0.30253 0.03029 0.5885 0.0
C2643 C 0.30159 0.03492 0.60457 0.0
C2644 C 0.30327 0.02396 0.61591 0.0
C2645 C 0.30571 0.00819 0.61077 0.0
C2646 C 0.30665 0.00356 0.59463 0.0
H2647 H 0.27168 0.98494 0.55448 0.0
H2648 H 0.28541 0.98163 0.57106 0.0
H2649 H 0.27548 0.99941 0.5718 0.0
H2650 H 0.30122 0.03896 0.57999 0.0
H2651 H 0.29946 0.04708 0.60812 0.0
H2652 H 0.2 0.01851 0.84745 0.0
H2653 H 0.20376 0.02655 0.87615 0.0
H2654 H 0.24115 0.06265 0.86929 0.0
H2655 H 0.23697 0.05521 0.84061 0.0
H2656 H 0.23051 0.02427 0.89476 0.0
H2657 H 0.21739 0.08703 0.90061 0.0
H2658 H 0.21163 0.07388 0.88254 0.0
H2659 H 0.23158 0.08373 0.88658 0.0
C2660 C 0.2087 0.02847 0.852 0.0
C2661 C 0.21823 0.03617 0.84174 0.0
C2662 C 0.21089 0.03299 0.86842 0.0
C2663 C 0.2226 0.04533 0.87486 0.0
C2664 C 0.2318 0.05334 0.86459 0.0
H2665 H 0.28014 0.07472 0.96189 0.0
H2666 H 0.26623 0.07124 0.935 0.0
C2667 C 0.22956 0.0489 0.8482 0.0
C2668 C 0.22647 0.04867 0.89235 0.0
H2669 H 0.23375 0.07879 0.92267 0.0
C2670 C 0.2309 0.03613 0.90092 0.0
C2671 C 0.227 0.06416 0.90038 0.0
C2672 C 0.22148 0.07792 0.89207 0.0
C2673 C 0.23662 0.0388 0.91712 0.0
C2674 C 0.2378 0.0544 0.92495 0.0
C2675 C 0.23287 0.06686 0.91657 0.0
C2676 C 0.24516 0.05807 0.94155 0.0
C2677 C 0.24206 0.02507 0.92556 0.0
C2678 C 0.23769 0.05217 0.95416 0.0
C2679 C 0.24555 0.05423 0.96958 0.0
C2680 C 0.26103 0.06222 0.97262 0.0
C2681 C 0.26817 0.06867 0.96002 0.0
C2682 C 0.26028 0.06665 0.94463 0.0
H2683 H 0.24257 0.01427 0.91719 0.0
H2684 H 0.25403 0.02845 0.93219 0.0
H2685 H 0.23365 0.02201 0.93434 0.0
H2686 H 0.22594 0.04566 0.952 0.0
H2687 H 0.23961 0.04935 0.97908 0.0
H2688 H 0.54723 0.68852 0.42348 0.0
H2689 H 0.52289 0.69127 0.43636 0.0
H2690 H 0.519 0.73666 0.41811 0.0
H2691 H 0.5429 0.7337 0.40459 0.0
H2692 H 0.51458 0.71413 0.45884 0.0
H2693 H 0.47619 0.71199 0.40173 0.0
H2694 H 0.4964 0.70685 0.40266 0.0
H2695 H 0.49253 0.72741 0.40416 0.0
C2696 C 0.54113 0.69903 0.42208 0.0
C2697 C 0.54694 0.71079 0.4128 0.0
C2698 C 0.5273 0.70065 0.42958 0.0
C2699 C 0.51898 0.71403 0.42796 0.0
C2700 C 0.52506 0.72608 0.41925 0.0
H2701 H 0.42932 0.74151 0.4563 0.0
H2702 H 0.45643 0.74137 0.44878 0.0
C2703 C 0.53885 0.72445 0.41168 0.0
C2704 C 0.50371 0.71515 0.435 0.0
H2705 H 0.46415 0.71799 0.42533 0.0
C2706 C 0.50354 0.71495 0.45153 0.0
C2707 C 0.4893 0.7161 0.42541 0.0
C2708 C 0.48852 0.71545 0.40749 0.0
C2709 C 0.48936 0.71598 0.45877 0.0
C2710 C 0.47503 0.71709 0.44918 0.0
C2711 C 0.47521 0.71726 0.43266 0.0
C2712 C 0.45956 0.71792 0.45585 0.0
C2713 C 0.48984 0.71612 0.47661 0.0
C2714 C 0.45245 0.7049 0.4626 0.0
C2715 C 0.43689 0.70491 0.46685 0.0
C2716 C 0.42817 0.71791 0.46429 0.0
C2717 C 0.43564 0.73123 0.45821 0.0
C2718 C 0.45115 0.7312 0.45397 0.0
H2719 H 0.50218 0.71878 0.48257 0.0
H2720 H 0.48237 0.72507 0.48153 0.0
H2721 H 0.48501 0.70424 0.47951 0.0
H2722 H 0.45864 0.69442 0.46391 0.0
H2723 H 0.4314 0.69441 0.47135 0.0
H2724 H 0.84685 0.20633 0.00974 0.0
H2725 H 0.87581 0.20959 0.01635 0.0
H2726 H 0.87058 0.24005 0.05884 0.0
H2727 H 0.84167 0.23653 0.05254 0.0
H2728 H 0.89403 0.23885 0.01904 0.0
H2729 H 0.90254 0.21058 0.0751 0.0
H2730 H 0.88436 0.20684 0.06178 0.0
H2731 H 0.888 0.22465 0.07547 0.0
C2732 C 0.85186 0.21341 0.02068 0.0
C2733 C 0.84199 0.22122 0.0306 0.0
C2734 C 0.86839 0.21531 0.0244 0.0
C2735 C 0.87531 0.2249 0.03818 0.0
C2736 C 0.86547 0.23234 0.04832 0.0
H2737 H 0.96595 0.27258 0.07676 0.0
H2738 H 0.93844 0.26019 0.07165 0.0
C2739 C 0.84897 0.23049 0.0446 0.0
C2740 C 0.89283 0.22846 0.04115 0.0
H2741 H 0.9245 0.2282 0.06913 0.0
C2742 C 0.90076 0.2363 0.02987 0.0
C2743 C 0.90151 0.22519 0.05533 0.0
C2744 C 0.8937 0.21621 0.06755 0.0
C2745 C 0.91705 0.24158 0.03268 0.0
C2746 C 0.92568 0.23862 0.04702 0.0
C2747 C 0.91784 0.23043 0.05815 0.0
C2748 C 0.94266 0.24475 0.051 0.0
C2749 C 0.92471 0.25088 0.02057 0.0
C2750 C 0.95421 0.2398 0.04136 0.0
C2751 C 0.96991 0.24687 0.04423 0.0
C2752 C 0.97434 0.25891 0.05689 0.0
C2753 C 0.96291 0.26327 0.06699 0.0
C2754 C 0.94719 0.25624 0.06407 0.0
H2755 H 0.91572 0.25514 0.01202 0.0
H2756 H 0.93267 0.26133 0.02653 0.0
H2757 H 0.93201 0.24312 0.01368 0.0
H2758 H 0.951 0.2307 0.03142 0.0
H2759 H 0.97854 0.24309 0.03642 0.0
H2760 H 0.16702 0.77409 0.55827 0.0
H2761 H 0.14795 0.76442 0.53502 0.0
H2762 H 0.11998 0.73655 0.5644 0.0
H2763 H 0.13881 0.74634 0.58772 0.0
H2764 H 0.13881 0.7318 0.5224 0.0
H2765 H 0.08761 0.76249 0.54105 0.0
H2766 H 0.10784 0.7684 0.54973 0.0
H2767 H 0.09658 0.75148 0.55597 0.0
C2768 C 0.15671 0.76604 0.5598 0.0
C2769 C 0.15438 0.76101 0.57482 0.0
C2770 C 0.14589 0.76048 0.5465 0.0
C2771 C 0.13249 0.74994 0.54806 0.0
C2772 C 0.13015 0.74486 0.56302 0.0
H2773 H 0.06967 0.68259 0.48602 0.0
H2774 H 0.09175 0.69731 0.50367 0.0
C2775 C 0.14098 0.75035 0.57628 0.0
C2776 C 0.12112 0.74383 0.53401 0.0
H2777 H 0.08189 0.74159 0.51976 0.0
C2778 C 0.1264 0.73408 0.5217 0.0
C2779 C 0.10502 0.74703 0.53304 0.0
C2780 C 0.09891 0.75804 0.54557 0.0
C2781 C 0.11578 0.72681 0.50877 0.0
C2782 C 0.09949 0.72929 0.50829 0.0
C2783 C 0.09438 0.73965 0.52021 0.0
C2784 C 0.08732 0.72035 0.49623 0.0
C2785 C 0.12203 0.71639 0.49587 0.0
C2786 C 0.07752 0.72843 0.48618 0.0
C2787 C 0.06484 0.72004 0.47611 0.0
C2788 C 0.06166 0.70347 0.47612 0.0
C2789 C 0.07181 0.69537 0.48584 0.0
C2790 C 0.0845 0.70374 0.49582 0.0
H2791 H 0.13501 0.71942 0.49545 0.0
H2792 H 0.12009 0.70377 0.49832 0.0
H2793 H 0.11571 0.71751 0.484 0.0
H2794 H 0.07944 0.74127 0.48644 0.0
H2795 H 0.05711 0.72658 0.46885 0.0
H2796 H 0.48966 0.33326 0.98806 0.0
H2797 H 0.51845 0.33363 0.98671 0.0
H2798 H 0.51689 0.28626 0.00145 0.0
H2799 H 0.48834 0.28582 0.00295 0.0
H2800 H 0.54039 0.33142 0.01177 0.0
H2801 H 0.54427 0.28259 0.96483 0.0
H2802 H 0.52605 0.29156 0.96732 0.0
H2803 H 0.53168 0.27618 0.97934 0.0
C2804 C 0.49545 0.32287 0.99088 0.0
C2805 C 0.48669 0.30949 0.99557 0.0
C2806 C 0.51186 0.32307 0.99 0.0
C2807 C 0.51975 0.30986 0.99368 0.0
C2808 C 0.51098 0.2964 0.99808 0.0
H2809 H 0.60739 0.29693 0.04115 0.0
H2810 H 0.58085 0.30295 0.03152 0.0
C2811 C 0.49463 0.29618 0.99896 0.0
C2812 C 0.53734 0.31059 0.99467 0.0
H2813 H 0.56738 0.28884 0.98447 0.0
C2814 C 0.54634 0.32232 0.00553 0.0
C2815 C 0.54515 0.2989 0.98632 0.0
C2816 C 0.53628 0.28671 0.97367 0.0
C2817 C 0.56276 0.32192 0.00918 0.0
C2818 C 0.57027 0.30933 0.00197 0.0
C2819 C 0.56153 0.29834 0.99018 0.0
C2820 C 0.58665 0.30642 0.00769 0.0
C2821 C 0.57183 0.3347 0.02111 0.0
C2822 C 0.59863 0.30602 0.99736 0.0
C2823 C 0.61389 0.3026 0.00287 0.0
C2824 C 0.61734 0.29941 0.01875 0.0
C2825 C 0.60523 0.2997 0.02897 0.0
C2826 C 0.59006 0.30314 0.02349 0.0
H2827 H 0.56594 0.34587 0.02149 0.0
H2828 H 0.57219 0.33056 0.03316 0.0
H2829 H 0.58427 0.33737 0.01829 0.0
H2830 H 0.59617 0.30838 0.98509 0.0
H2831 H 0.62301 0.30256 0.99474 0.0
H2832 H 0.38912 0.52975 0.69085 0.0
H2833 H 0.40343 0.50613 0.69204 0.0
H2834 H 0.44222 0.53385 0.72196 0.0
H2835 H 0.42788 0.55758 0.7209 0.0
H2836 H 0.43282 0.50128 0.68211 0.0
H2837 H 0.43295 0.49595 0.74701 0.0
H2838 H 0.42045 0.50865 0.73676 0.0
H2839 H 0.44131 0.51484 0.74194 0.0
C2840 C 0.40071 0.53083 0.69767 0.0
C2841 C 0.40737 0.54552 0.7058 0.0
C2842 C 0.40885 0.51732 0.69837 0.0
C2843 C 0.42381 0.51818 0.70721 0.0
C2844 C 0.43054 0.53283 0.71533 0.0
H2845 H 0.48133 0.43813 0.72058 0.0
H2846 H 0.47422 0.46552 0.71943 0.0
C2847 C 0.42235 0.54637 0.71471 0.0
C2848 C 0.43236 0.50373 0.70758 0.0
H2849 H 0.44587 0.47711 0.73214 0.0
C2850 C 0.43577 0.49606 0.69307 0.0
C2851 C 0.4363 0.49698 0.7219 0.0
C2852 C 0.43247 0.50442 0.73779 0.0
C2853 C 0.44264 0.48163 0.69244 0.0
C2854 C 0.44606 0.47463 0.70667 0.0
C2855 C 0.44326 0.48258 0.72126 0.0
C2856 C 0.45102 0.45835 0.70649 0.0
C2857 C 0.44596 0.47385 0.67652 0.0
C2858 C 0.44033 0.44536 0.69958 0.0
C2859 C 0.44431 0.42984 0.70029 0.0
C2860 C 0.45906 0.427 0.70792 0.0
C2861 C 0.46994 0.44003 0.71452 0.0
C2862 C 0.46587 0.45562 0.71393 0.0
H2863 H 0.44676 0.48255 0.66755 0.0
H2864 H 0.45723 0.46815 0.67761 0.0
H2865 H 0.43612 0.46445 0.67205 0.0
H2866 H 0.42873 0.44722 0.69397 0.0
H2867 H 0.43574 0.42001 0.69504 0.0
H2868 H 0.04757 0.83873 0.20155 0.0
H2869 H 0.05534 0.8676 0.20475 0.0
H2870 H 0.01661 0.87447 0.23333 0.0
H2871 H 0.00864 0.8458 0.22998 0.0
H2872 H 0.02079 0.89645 0.20911 0.0
H2873 H 0.0764 0.8915 0.24824 0.0
H2874 H 0.0732 0.87956 0.22928 0.0
H2875 H 0.06046 0.87549 0.24444 0.0
C2876 C 0.04061 0.84644 0.20834 0.0
C2877 C 0.02759 0.84002 0.21565 0.0
C2878 C 0.04512 0.86288 0.21024 0.0
C2879 C 0.03664 0.87308 0.21942 0.0
C2880 C 0.02334 0.86675 0.22626 0.0
H2881 H 0.03324 0.96552 0.26344 0.0
H2882 H 0.02873 0.93861 0.24985 0.0
C2883 C 0.01887 0.85037 0.22443 0.0
C2884 C 0.04178 0.89034 0.22252 0.0
H2885 H 0.06949 0.9172 0.24496 0.0
C2886 C 0.03155 0.90103 0.21676 0.0
C2887 C 0.05588 0.89622 0.2324 0.0
C2888 C 0.06714 0.88517 0.23907 0.0
C2889 C 0.03475 0.91747 0.2211 0.0
C2890 C 0.04836 0.92329 0.23175 0.0
C2891 C 0.05904 0.91268 0.23683 0.0
C2892 C 0.05087 0.94003 0.23903 0.0
C2893 C 0.02339 0.92844 0.21448 0.0
C2894 C 0.06499 0.94966 0.23774 0.0
C2895 C 0.06762 0.96513 0.24554 0.0
C2896 C 0.0562 0.97115 0.25483 0.0
C2897 C 0.0421 0.96141 0.25608 0.0
C2898 C 0.03949 0.94601 0.2483 0.0
H2899 H 0.01698 0.92313 0.20287 0.0
H2900 H 0.01435 0.93045 0.2229 0.0
H2901 H 0.02971 0.94015 0.21283 0.0
H2902 H 0.07399 0.94519 0.23077 0.0
H2903 H 0.07857 0.97237 0.24429 0.0
H2904 H 0.58802 0.13102 0.76695 0.0
H2905 H 0.56492 0.11163 0.7581 0.0
H2906 H 0.53877 0.14904 0.74128 0.0
H2907 H 0.5619 0.1685 0.75002 0.0
H2908 H 0.53422 0.11024 0.7669 0.0
H2909 H 0.53435 0.11648 0.7022 0.0
H2910 H 0.55089 0.12446 0.7166 0.0
H2911 H 0.53331 0.13468 0.71455 0.0
C2912 C 0.57732 0.13513 0.76144 0.0
C2913 C 0.5768 0.15127 0.75911 0.0
C2914 C 0.56415 0.12404 0.75636 0.0
C2915 C 0.55021 0.12886 0.74884 0.0
C2916 C 0.54953 0.14501 0.74673 0.0
H2917 H 0.46447 0.0681 0.70537 0.0
H2918 H 0.48197 0.09168 0.71775 0.0
C2919 C 0.56274 0.1561 0.75173 0.0
C2920 C 0.53645 0.11689 0.74324 0.0
H2921 H 0.5138 0.09896 0.70974 0.0
C2922 C 0.52969 0.10784 0.75441 0.0
C2923 C 0.53052 0.11382 0.72695 0.0
C2924 C 0.5377 0.12276 0.71433 0.0
C2925 C 0.51734 0.0956 0.74969 0.0
C2926 C 0.51174 0.09226 0.73337 0.0
C2927 C 0.5181 0.10164 0.72226 0.0
C2928 C 0.50037 0.07818 0.72735 0.0
C2929 C 0.51049 0.08624 0.76217 0.0
C2930 C 0.50491 0.06286 0.72877 0.0
C2931 C 0.49503 0.04948 0.7217 0.0
C2932 C 0.48041 0.05117 0.71307 0.0
C2933 C 0.47562 0.06649 0.71208 0.0
C2934 C 0.4856 0.07992 0.71907 0.0
H2935 H 0.51272 0.09299 0.77419 0.0
H2936 H 0.49746 0.08307 0.75925 0.0
H2937 H 0.51621 0.07504 0.76262 0.0
H2938 H 0.51637 0.06128 0.73489 0.0
H2939 H 0.49897 0.0378 0.72271 0.0
H2940 H 0.02434 0.48679 0.33399 0.0
H2941 H 0.02243 0.51544 0.33582 0.0
H2942 H 0.99746 0.5102 0.28858 0.0
H2943 H 0.99869 0.48144 0.28691 0.0
H2944 H 0.03626 0.53468 0.31633 0.0
H2945 H 0.97156 0.54064 0.31209 0.0
H2946 H 0.97967 0.52244 0.31656 0.0
H2947 H 0.97689 0.52719 0.29631 0.0
C2948 C 0.01802 0.49164 0.32417 0.0
C2949 C 0.01171 0.48181 0.31027 0.0
C2950 C 0.01702 0.50805 0.32521 0.0
C2951 C 0.00965 0.51494 0.31242 0.0
C2952 C 0.00291 0.50511 0.29873 0.0
H2953 H 0.01215 0.60759 0.27979 0.0
H2954 H 0.00637 0.57957 0.28406 0.0
C2955 C 0.00384 0.4887 0.2977 0.0
C2956 C 0.01063 0.5325 0.31265 0.0
H2957 H 0.98855 0.56356 0.30707 0.0
C2958 C 0.02581 0.54103 0.31455 0.0
C2959 C 0.99698 0.54072 0.31023 0.0
C2960 C 0.98035 0.5323 0.30884 0.0
C2961 C 0.02777 0.55748 0.31357 0.0
C2962 C 0.01416 0.56565 0.31083 0.0
C2963 C 0.99894 0.55721 0.30918 0.0
C2964 C 0.01568 0.58286 0.30893 0.0
C2965 C 0.04443 0.5659 0.31489 0.0
C2966 C 0.02234 0.59401 0.32165 0.0
C2967 C 0.02564 0.61 0.31926 0.0
C2968 C 0.02227 0.6151 0.30411 0.0
C2969 C 0.01481 0.60403 0.29161 0.0
C2970 C 0.01153 0.58803 0.29402 0.0
H2971 H 0.05356 0.5574 0.3138 0.0
H2972 H 0.04552 0.57416 0.30555 0.0
H2973 H 0.04706 0.57303 0.32667 0.0
H2974 H 0.0254 0.59025 0.33332 0.0
H2975 H 0.03112 0.61832 0.32919 0.0
H2976 H 0.34707 0.63332 0.30501 0.0
H2977 H 0.3735 0.62866 0.29726 0.0
H2978 H 0.39448 0.64564 0.34486 0.0
H2979 H 0.36821 0.65063 0.35265 0.0
H2980 H 0.40381 0.65026 0.30026 0.0
H2981 H 0.40587 0.59854 0.33588 0.0
H2982 H 0.38754 0.60674 0.33011 0.0
H2983 H 0.40121 0.61676 0.34621 0.0
C2984 C 0.35733 0.63637 0.31375 0.0
C2985 C 0.3555 0.64218 0.3295 0.0
C2986 C 0.3724 0.63363 0.30932 0.0
C2987 C 0.38585 0.63661 0.32056 0.0
C2988 C 0.38418 0.64306 0.33608 0.0
H2989 H 0.48656 0.63451 0.30935 0.0
H2990 H 0.46035 0.64255 0.31447 0.0
C2991 C 0.36916 0.64583 0.34052 0.0
C2992 C 0.40152 0.63221 0.31635 0.0
H2993 H 0.42912 0.60642 0.32411 0.0
C2994 C 0.40938 0.64068 0.30543 0.0
C2995 C 0.4086 0.61959 0.32302 0.0
C2996 C 0.40037 0.60976 0.33437 0.0
C2997 C 0.42434 0.63698 0.3012 0.0
C2998 C 0.43157 0.62458 0.30815 0.0
C2999 C 0.42358 0.61599 0.31888 0.0
C3000 C 0.44736 0.62012 0.30434 0.0
C3001 C 0.43219 0.64619 0.28917 0.0
C3002 C 0.44874 0.60479 0.29713 0.0
C3003 C 0.46367 0.60017 0.29423 0.0
C3004 C 0.47749 0.61073 0.29862 0.0
C3005 C 0.47611 0.62612 0.30579 0.0
C3006 C 0.46114 0.63076 0.30863 0.0
H3007 H 0.42362 0.65282 0.28237 0.0
H3008 H 0.44183 0.65495 0.29546 0.0
H3009 H 0.43761 0.6381 0.28065 0.0
H3010 H 0.43825 0.59638 0.29381 0.0
H3011 H 0.46443 0.58824 0.28872 0.0
H3012 H 0.14625 0.31914 0.72821 0.0
H3013 H 0.1172 0.31841 0.72339 0.0
H3014 H 0.11358 0.31897 0.77378 0.0
H3015 H 0.14253 0.31935 0.77874 0.0
H3016 H 0.08977 0.29539 0.73897 0.0
H3017 H 0.09569 0.36137 0.75328 0.0
H3018 H 0.11137 0.35121 0.74512 0.0
H3019 H 0.10766 0.34971 0.76541 0.0
C3020 C 0.13926 0.31872 0.73824 0.0
C3021 C 0.14672 0.31946 0.75388 0.0
C3022 C 0.12268 0.31835 0.73545 0.0
C3023 C 0.11335 0.3187 0.74825 0.0
C3024 C 0.12065 0.31872 0.76378 0.0
H3025 H 0.01778 0.34137 0.75965 0.0
H3026 H 0.04514 0.33438 0.76366 0.0
C3027 C 0.13718 0.31906 0.76658 0.0
C3028 C 0.09617 0.32046 0.7456 0.0
H3029 H 0.06977 0.34831 0.74787 0.0
C3030 C 0.08533 0.30693 0.74082 0.0
C3031 C 0.09054 0.33553 0.74818 0.0
C3032 C 0.10184 0.35037 0.75323 0.0
C3033 C 0.06885 0.30812 0.73871 0.0
C3034 C 0.06321 0.32324 0.74121 0.0
C3035 C 0.07412 0.33674 0.74596 0.0
C3036 C 0.04605 0.32549 0.73902 0.0
C3037 C 0.05755 0.29321 0.7343 0.0
C3038 C 0.03745 0.32266 0.72387 0.0
C3039 C 0.02182 0.32667 0.72157 0.0
C3040 C 0.01459 0.33355 0.7344 0.0
C3041 C 0.02309 0.33603 0.7496 0.0
C3042 C 0.03868 0.33202 0.7519 0.0
H3043 H 0.06352 0.28227 0.7359 0.0
H3044 H 0.0474 0.29329 0.74166 0.0
H3045 H 0.05274 0.29272 0.72161 0.0
H3046 H 0.04301 0.31794 0.71371 0.0
H3047 H 0.01564 0.32491 0.70967 0.0
H3048 H 0.75974 0.95008 0.64708 0.0
H3049 H 0.78738 0.95059 0.65852 0.0
H3050 H 0.77519 0.9718 0.70341 0.0
H3051 H 0.74751 0.97144 0.69204 0.0
H3052 H 0.80761 0.97747 0.67105 0.0
H3053 H 0.8001 0.93525 0.71658 0.0
H3054 H 0.7849 0.93655 0.70046 0.0
H3055 H 0.78734 0.95098 0.71771 0.0
C3056 C 0.76293 0.95485 0.6594 0.0
C3057 C 0.75142 0.96075 0.66865 0.0
C3058 C 0.77871 0.95505 0.66593 0.0
C3059 C 0.7833 0.96104 0.68186 0.0
C3060 C 0.77183 0.96679 0.69119 0.0
H3061 H 0.87126 0.98489 0.74244 0.0
H3062 H 0.84356 0.97948 0.73058 0.0
C3063 C 0.75602 0.96659 0.68467 0.0
C3064 C 0.80025 0.96213 0.68842 0.0
H3065 H 0.82531 0.95067 0.71818 0.0
C3066 C 0.81152 0.97149 0.68126 0.0
C3067 C 0.80529 0.95433 0.70175 0.0
C3068 C 0.79381 0.94359 0.70951 0.0
C3069 C 0.82765 0.97365 0.68735 0.0
C3070 C 0.83266 0.96601 0.7008 0.0
C3071 C 0.82142 0.95649 0.70785 0.0
C3072 C 0.8494 0.96835 0.70814 0.0
C3073 C 0.83907 0.98454 0.67968 0.0
C3074 C 0.86183 0.96356 0.69957 0.0
C3075 C 0.87766 0.96666 0.70633 0.0
C3076 C 0.88127 0.97451 0.72179 0.0
C3077 C 0.86878 0.97883 0.7305 0.0
C3078 C 0.85298 0.97575 0.72375 0.0
H3079 H 0.83274 0.99222 0.67185 0.0
H3080 H 0.84728 0.99228 0.68884 0.0
H3081 H 0.84636 0.97724 0.67227 0.0
H3082 H 0.85928 0.95758 0.68761 0.0
H3083 H 0.88705 0.96313 0.69936 0.0
H3084 H 0.73826 0.9953 0.30876 0.0
H3085 H 0.71036 0.99055 0.31379 0.0
H3086 H 0.69616 0.01476 0.27308 0.0
H3087 H 0.72405 0.01994 0.26825 0.0
H3088 H 0.68097 0.02397 0.29765 0.0
H3089 H 0.67653 0.95793 0.29068 0.0
H3090 H 0.69317 0.96702 0.30418 0.0
H3091 H 0.69235 0.97021 0.28351 0.0
C3092 C 0.7292 0.99971 0.30096 0.0
C3093 C 0.73335 0.0079 0.28804 0.0
C3094 C 0.71323 0.99675 0.30368 0.0
C3095 C 0.70112 0.00195 0.29358 0.0
C3096 C 0.70528 0.01048 0.28093 0.0
H3097 H 0.59944 0.97469 0.28817 0.0
H3098 H 0.62744 0.97874 0.28332 0.0
C3099 C 0.72122 0.01339 0.27816 0.0
C3100 C 0.68416 0.999 0.29648 0.0
H3101 H 0.65502 0.96969 0.30136 0.0
C3102 C 0.6753 0.0121 0.29843 0.0
C3103 C 0.67666 0.98347 0.29715 0.0
C3104 C 0.68507 0.96882 0.29361 0.0
C3105 C 0.65934 0.01015 0.30163 0.0
C3106 C 0.65207 0.99471 0.30299 0.0
C3107 C 0.66075 0.98155 0.30061 0.0
C3108 C 0.63524 0.99195 0.30626 0.0
C3109 C 0.65025 0.02458 0.30325 0.0
C3110 C 0.63042 0.99786 0.32086 0.0
C3111 C 0.61441 0.9956 0.32367 0.0
C3112 C 0.603 0.98732 0.31195 0.0
C3113 C 0.60792 0.98117 0.29743 0.0
C3114 C 0.62392 0.98344 0.29464 0.0
H3115 H 0.65686 0.03529 0.29945 0.0
H3116 H 0.63848 0.02221 0.29604 0.0
H3117 H 0.64809 0.02726 0.31587 0.0
H3118 H 0.63904 0.00424 0.33008 0.0
H3119 H 0.61093 0.00038 0.33498 0.0
H3120 H 0.32318 0.35534 0.6141 0.0
H3121 H 0.31573 0.38229 0.61194 0.0
H3122 H 0.32454 0.39287 0.66294 0.0
H3123 H 0.33219 0.36589 0.66521 0.0
H3124 H 0.29121 0.39843 0.6282 0.0
H3125 H 0.35311 0.42788 0.64322 0.0
H3126 H 0.349 0.40689 0.63656 0.0
H3127 H 0.34568 0.41416 0.6564 0.0
C3128 C 0.32355 0.36341 0.62486 0.0
C3129 C 0.32839 0.35855 0.63981 0.0
C3130 C 0.31922 0.37875 0.62361 0.0
C3131 C 0.31975 0.38957 0.63726 0.0
C3132 C 0.3242 0.3847 0.65226 0.0
H3133 H 0.30939 0.49167 0.63921 0.0
H3134 H 0.31329 0.46529 0.64757 0.0
C3135 C 0.32845 0.36928 0.65354 0.0
C3136 C 0.31595 0.40604 0.63559 0.0
H3137 H 0.33313 0.44425 0.63672 0.0
C3138 C 0.30032 0.4085 0.63018 0.0
C3139 C 0.32787 0.41911 0.63829 0.0
C3140 C 0.3449 0.41699 0.64386 0.0
C3141 C 0.29632 0.42369 0.62715 0.0
C3142 C 0.30838 0.43667 0.6292 0.0
C3143 C 0.32391 0.43429 0.63512 0.0
C3144 C 0.30536 0.45258 0.62439 0.0
C3145 C 0.2792 0.42567 0.62181 0.0
C3146 C 0.29978 0.45421 0.60857 0.0
C3147 C 0.29749 0.46921 0.6038 0.0
C3148 C 0.30091 0.4829 0.61471 0.0
C3149 C 0.3066 0.48132 0.63054 0.0
C3150 C 0.30884 0.46627 0.63533 0.0
H3151 H 0.27091 0.4163 0.62585 0.0
H3152 H 0.27598 0.43752 0.6264 0.0
H3153 H 0.27745 0.42459 0.6086 0.0
H3154 H 0.29744 0.44388 0.59981 0.0
H3155 H 0.29321 0.47013 0.5915 0.0
H3156 H 0.30304 0.73746 0.99544 0.0
H3157 H 0.30836 0.70969 0.99081 0.0
H3158 H 0.2761 0.69682 0.02504 0.0
H3159 H 0.27117 0.72466 0.03007 0.0
H3160 H 0.30075 0.68249 0.02972 0.0
H3161 H 0.28288 0.67357 0.96482 0.0
H3162 H 0.29842 0.68957 0.96984 0.0
H3163 H 0.27923 0.69119 0.97699 0.0
C3164 C 0.29718 0.72871 0.00206 0.0
C3165 C 0.28663 0.73323 0.01307 0.0
C3166 C 0.29999 0.71277 0.99918 0.0
C3167 C 0.29235 0.70102 0.00728 0.0
C3168 C 0.28206 0.7056 0.01853 0.0
H3169 H 0.28706 0.59906 0.98246 0.0
H3170 H 0.282 0.62695 0.98697 0.0
C3171 C 0.27921 0.72152 0.02137 0.0
C3172 C 0.29555 0.68408 0.00459 0.0
H3173 H 0.29703 0.65342 0.97573 0.0
C3174 C 0.29988 0.67615 0.0179 0.0
C3175 C 0.29417 0.67565 0.98918 0.0
C3176 C 0.28825 0.68289 0.97443 0.0
C3177 C 0.30326 0.66023 0.01626 0.0
C3178 C 0.30245 0.65204 0.00084 0.0
C3179 C 0.29787 0.65983 0.98753 0.0
C3180 C 0.30568 0.63516 0.99829 0.0
C3181 C 0.30726 0.65221 0.03106 0.0
C3182 C 0.32073 0.63055 0.00305 0.0
C3183 C 0.32364 0.61458 0.00056 0.0
C3184 C 0.31161 0.60301 0.99312 0.0
C3185 C 0.29659 0.60768 0.98823 0.0
C3186 C 0.29368 0.62362 0.99078 0.0
H3187 H 0.30411 0.65907 0.04194 0.0
H3188 H 0.30094 0.64001 0.03001 0.0
H3189 H 0.32025 0.65117 0.0326 0.0
H3190 H 0.33026 0.63931 0.00857 0.0
H3191 H 0.33533 0.61129 0.00434 0.0
H3192 H 0.76286 0.14191 0.31225 0.0
H3193 H 0.75277 0.11383 0.31196 0.0
H3194 H 0.70559 0.12733 0.31702 0.0
H3195 H 0.71554 0.15531 0.31731 0.0
H3196 H 0.73942 0.10052 0.33604 0.0
H3197 H 0.69641 0.09088 0.28194 0.0
H3198 H 0.71129 0.10787 0.28575 0.0
H3199 H 0.69296 0.10791 0.29488 0.0
C3200 C 0.7503 0.13887 0.31315 0.0
C3201 C 0.73999 0.15085 0.31476 0.0
C3202 C 0.74455 0.12283 0.31291 0.0
C3203 C 0.72837 0.11845 0.3142 0.0
C3204 C 0.71802 0.13037 0.31554 0.0
H3205 H 0.66732 0.04182 0.33948 0.0
H3206 H 0.68029 0.06628 0.33115 0.0
C3207 C 0.72374 0.14639 0.31574 0.0
C3208 C 0.72254 0.10165 0.31565 0.0
H3209 H 0.69302 0.07212 0.30132 0.0
C3210 C 0.72947 0.09418 0.32827 0.0
C3211 C 0.70956 0.09339 0.30549 0.0
C3212 C 0.70223 0.10037 0.29116 0.0
C3213 C 0.72324 0.07904 0.33153 0.0
C3214 C 0.70983 0.07111 0.32179 0.0
C3215 C 0.70326 0.07829 0.3088 0.0
C3216 C 0.70175 0.05592 0.32566 0.0
C3217 C 0.73056 0.07198 0.34583 0.0
C3218 C 0.70945 0.04197 0.32514 0.0
C3219 C 0.70207 0.02803 0.32996 0.0
C3220 C 0.6868 0.0278 0.33513 0.0
C3221 C 0.67905 0.0417 0.33543 0.0
C3222 C 0.68641 0.05562 0.33062 0.0
H3223 H 0.73906 0.08081 0.35367 0.0
H3224 H 0.72116 0.0673 0.35295 0.0
H3225 H 0.73711 0.06189 0.34173 0.0
H3226 H 0.72125 0.04194 0.32124 0.0
H3227 H 0.70844 0.01758 0.32998 0.0
H3228 H 0.68585 0.74819 0.943 0.0
H3229 H 0.6986 0.77544 0.94361 0.0
H3230 H 0.67484 0.78977 0.98459 0.0
H3231 H 0.66248 0.76252 0.9844 0.0
H3232 H 0.68418 0.80361 0.94109 0.0
H3233 H 0.72149 0.80581 0.9988 0.0
H3234 H 0.71204 0.78739 0.98813 0.0
H3235 H 0.70074 0.8 0.99992 0.0
C3236 C 0.68353 0.75709 0.95229 0.0
C3237 C 0.67319 0.75316 0.96369 0.0
C3238 C 0.69072 0.77267 0.95254 0.0
C3239 C 0.6878 0.78457 0.96425 0.0
C3240 C 0.67745 0.78071 0.9756 0.0
H3241 H 0.70353 0.88741 0.96619 0.0
H3242 H 0.6922 0.85948 0.96275 0.0
C3243 C 0.67027 0.76516 0.97536 0.0
C3244 C 0.69534 0.80109 0.96448 0.0
H3245 H 0.71946 0.83045 0.98786 0.0
C3246 C 0.69198 0.80947 0.95126 0.0
C3247 C 0.70564 0.80863 0.97769 0.0
C3248 C 0.71034 0.79997 0.99188 0.0
C3249 C 0.69839 0.82534 0.95105 0.0
C3250 C 0.70821 0.83306 0.96452 0.0
C3251 C 0.71182 0.82455 0.97759 0.0
C3252 C 0.715 0.84994 0.96538 0.0
C3253 C 0.69474 0.83362 0.93635 0.0
C3254 C 0.73155 0.85385 0.96813 0.0
C3255 C 0.73801 0.86977 0.97023 0.0
C3256 C 0.72807 0.88206 0.96965 0.0
C3257 C 0.71151 0.87817 0.96657 0.0
C3258 C 0.70502 0.86221 0.96452 0.0
H3259 H 0.69086 0.82495 0.92571 0.0
H3260 H 0.68493 0.84114 0.93825 0.0
H3261 H 0.70529 0.84143 0.93386 0.0
H3262 H 0.73946 0.84458 0.96889 0.0
H3263 H 0.75081 0.87248 0.97265 0.0
H3264 H 0.63706 0.3076 0.35132 0.0
H3265 H 0.63263 0.30071 0.37807 0.0
H3266 H 0.64771 0.34926 0.39733 0.0
H3267 H 0.65242 0.35623 0.37071 0.0
H3268 H 0.65375 0.30474 0.40781 0.0
H3269 H 0.60158 0.3397 0.40985 0.0
H3270 H 0.60983 0.33402 0.39154 0.0
H3271 H 0.61958 0.35035 0.4051 0.0
C3272 C 0.63972 0.31676 0.36128 0.0
C3273 C 0.64495 0.33251 0.35885 0.0
C3274 C 0.63711 0.31281 0.37654 0.0
C3275 C 0.63962 0.32454 0.3896 0.0
C3276 C 0.64544 0.34011 0.38734 0.0
H3277 H 0.63901 0.31417 0.49079 0.0
H3278 H 0.64666 0.31932 0.46444 0.0
C3279 C 0.64808 0.34406 0.37211 0.0
C3280 C 0.63554 0.32066 0.40549 0.0
H3281 H 0.61005 0.32859 0.43336 0.0
C3282 C 0.64421 0.30994 0.41343 0.0
C3283 C 0.62295 0.32732 0.41265 0.0
C3284 C 0.61283 0.33839 0.40434 0.0
C3285 C 0.64075 0.30588 0.42851 0.0
C3286 C 0.62838 0.31283 0.43582 0.0
C3287 C 0.6196 0.32338 0.42777 0.0
C3288 C 0.62412 0.30912 0.45171 0.0
C3289 C 0.65013 0.29399 0.43639 0.0
C3290 C 0.60885 0.30187 0.45329 0.0
C3291 C 0.60445 0.29897 0.4683 0.0
C3292 C 0.61518 0.30337 0.48201 0.0
C3293 C 0.6305 0.31059 0.48043 0.0
C3294 C 0.63492 0.31346 0.46538 0.0
H3295 H 0.65667 0.28713 0.42779 0.0
H3296 H 0.65898 0.30042 0.44588 0.0
H3297 H 0.64218 0.28552 0.44203 0.0
H3298 H 0.60032 0.29851 0.4429 0.0
H3299 H 0.59257 0.29341 0.46921 0.0
H3300 H 0.98002 0.29907 0.7327 0.0
H3301 H 0.97469 0.30268 0.70445 0.0
H3302 H 0.01939 0.28506 0.69538 0.0
H3303 H 0.02437 0.28066 0.72337 0.0
H3304 H 0.99127 0.32176 0.68686 0.0
H3305 H 0.98939 0.25917 0.66081 0.0
H3306 H 0.98886 0.26453 0.68185 0.0
H3307 H 0.00754 0.2657 0.67331 0.0
C3308 C 0.9887 0.29595 0.72467 0.0
C3309 C 0.0027 0.28971 0.7303 0.0
C3310 C 0.98561 0.29797 0.70854 0.0
C3311 C 0.99655 0.29399 0.69776 0.0
C3312 C 0.01058 0.28786 0.70337 0.0
H3313 H 0.00729 0.32949 0.60654 0.0
H3314 H 0.00909 0.3247 0.63469 0.0
C3315 C 0.01351 0.28552 0.71942 0.0
C3316 C 0.99363 0.29691 0.6808 0.0
H3317 H 0.99186 0.27909 0.64276 0.0
C3318 C 0.99126 0.3124 0.67723 0.0
C3319 C 0.99338 0.28465 0.66821 0.0
C3320 C 0.99476 0.26755 0.67122 0.0
C3321 C 0.98909 0.31606 0.66142 0.0
C3322 C 0.9897 0.30398 0.64885 0.0
C3323 C 0.99161 0.28839 0.65241 0.0
C3324 C 0.98843 0.3072 0.63191 0.0
C3325 C 0.98598 0.33279 0.65837 0.0
C3326 C 0.97648 0.29868 0.62093 0.0
C3327 C 0.97554 0.30128 0.60485 0.0
C3328 C 0.98659 0.31243 0.59945 0.0
C3329 C 0.99858 0.3209 0.61042 0.0
C3330 C 0.99954 0.31826 0.62651 0.0
H3331 H 0.98122 0.33912 0.66869 0.0
H3332 H 0.99733 0.3396 0.65639 0.0
H3333 H 0.9774 0.33278 0.64762 0.0
H3334 H 0.96784 0.29002 0.62482 0.0
H3335 H 0.96616 0.29454 0.59669 0.0
H3336 H 0.32389 0.71802 0.15353 0.0
H3337 H 0.32289 0.7095 0.12507 0.0
H3338 H 0.31099 0.75586 0.11418 0.0
H3339 H 0.3119 0.7645 0.14269 0.0
H3340 H 0.29905 0.70875 0.09885 0.0
H3341 H 0.35248 0.7507 0.09359 0.0
H3342 H 0.34644 0.74607 0.11261 0.0
H3343 H 0.33595 0.75945 0.10136 0.0
C3344 C 0.32073 0.72632 0.1451 0.0
C3345 C 0.31811 0.74199 0.15039 0.0
C3346 C 0.32023 0.72144 0.12883 0.0
C3347 C 0.31713 0.73213 0.11754 0.0
C3348 C 0.31371 0.74753 0.12272 0.0
H3349 H 0.33046 0.71847 0.01589 0.0
H3350 H 0.32172 0.72926 0.04111 0.0
C3351 C 0.31425 0.75244 0.139 0.0
C3352 C 0.31846 0.72734 0.10049 0.0
H3353 H 0.34163 0.73426 0.07054 0.0
C3354 C 0.30827 0.71439 0.0926 0.0
C3355 C 0.33047 0.73479 0.09236 0.0
C3356 C 0.34207 0.74845 0.10039 0.0
C3357 C 0.30999 0.70849 0.07687 0.0
C3358 C 0.32236 0.71557 0.06899 0.0
C3359 C 0.33215 0.72888 0.07665 0.0
C3360 C 0.32621 0.7086 0.05333 0.0
C3361 C 0.29861 0.69472 0.06878 0.0
C3362 C 0.33177 0.69351 0.05191 0.0
C3363 C 0.33665 0.68733 0.03753 0.0
C3364 C 0.33593 0.69607 0.02429 0.0
C3365 C 0.33056 0.71125 0.02575 0.0
C3366 C 0.3257 0.71747 0.04017 0.0
H3367 H 0.28762 0.69313 0.07488 0.0
H3368 H 0.29522 0.69651 0.05615 0.0
H3369 H 0.30448 0.68358 0.06896 0.0
H3370 H 0.33266 0.68665 0.06205 0.0
H3371 H 0.34101 0.67571 0.03675 0.0
H3372 H 0.94175 0.65373 0.75295 0.0
H3373 H 0.94204 0.66566 0.78045 0.0
H3374 H 0.98407 0.69668 0.77509 0.0
H3375 H 0.98401 0.68465 0.74764 0.0
H3376 H 0.98577 0.67928 0.80282 0.0
H3377 H 0.93148 0.7111 0.79654 0.0
H3378 H 0.92914 0.69053 0.78844 0.0
H3379 H 0.94178 0.70475 0.77973 0.0
C3380 C 0.95102 0.66313 0.75762 0.0
C3381 C 0.96286 0.66826 0.74813 0.0
C3382 C 0.95109 0.67001 0.77327 0.0
C3383 C 0.96299 0.68214 0.77973 0.0
C3384 C 0.97473 0.6874 0.77027 0.0
H3385 H 0.97355 0.74358 0.86815 0.0
H3386 H 0.97022 0.73203 0.84027 0.0
C3387 C 0.97462 0.68059 0.75457 0.0
C3388 C 0.96364 0.6888 0.79659 0.0
H3389 H 0.94375 0.71047 0.82275 0.0
C3390 C 0.9766 0.6861 0.8072 0.0
C3391 C 0.95168 0.69774 0.80219 0.0
C3392 C 0.93777 0.70135 0.79115 0.0
C3393 C 0.97786 0.69203 0.82335 0.0
C3394 C 0.96578 0.70078 0.82901 0.0
C3395 C 0.95289 0.70361 0.81837 0.0
C3396 C 0.96673 0.70765 0.84582 0.0
C3397 C 0.99223 0.68915 0.83419 0.0
C3398 C 0.96555 0.69776 0.85812 0.0
C3399 C 0.96736 0.70433 0.87404 0.0
C3400 C 0.97041 0.7209 0.87786 0.0
C3401 C 0.97119 0.73078 0.8655 0.0
C3402 C 0.96929 0.72421 0.84961 0.0
H3403 H 0.00181 0.68476 0.82742 0.0
H3404 H 0.99709 0.70025 0.8418 0.0
H3405 H 0.98866 0.68008 0.84215 0.0
H3406 H 0.96341 0.68494 0.85539 0.0
H3407 H 0.9667 0.69642 0.88332 0.0
H3408 H 0.63613 0.36518 0.64192 0.0
H3409 H 0.60986 0.37024 0.64945 0.0
H3410 H 0.61355 0.33677 0.68454 0.0
H3411 H 0.63998 0.33162 0.67705 0.0
H3412 H 0.58261 0.34936 0.64857 0.0
H3413 H 0.60228 0.37652 0.71045 0.0
H3414 H 0.61607 0.37339 0.69578 0.0
H3415 H 0.60809 0.35697 0.70553 0.0
C3416 C 0.63132 0.35877 0.65115 0.0
C3417 C 0.64015 0.34797 0.65887 0.0
C3418 C 0.61632 0.36174 0.6555 0.0
C3419 C 0.60981 0.35405 0.66769 0.0
C3420 C 0.61848 0.3431 0.67533 0.0
H3421 H 0.5184 0.36616 0.70593 0.0
H3422 H 0.54372 0.35613 0.70025 0.0
C3423 C 0.63356 0.34015 0.67101 0.0
C3424 C 0.59388 0.35748 0.67215 0.0
H3425 H 0.57467 0.37387 0.70235 0.0
C3426 C 0.58086 0.35465 0.66035 0.0
C3427 C 0.59161 0.36433 0.68755 0.0
C3428 C 0.60525 0.36812 0.70055 0.0
C3429 C 0.5657 0.35868 0.66345 0.0
C3430 C 0.56353 0.36593 0.67871 0.0
C3431 C 0.5764 0.36832 0.69067 0.0
C3432 C 0.54821 0.37188 0.68218 0.0
C3433 C 0.55212 0.3552 0.65036 0.0
C3434 C 0.54249 0.3842 0.67406 0.0
C3435 C 0.52811 0.38996 0.6773 0.0
C3436 C 0.51918 0.38353 0.68872 0.0
C3437 C 0.52498 0.37129 0.69699 0.0
C3438 C 0.53943 0.36557 0.69378 0.0
H3439 H 0.5546 0.34591 0.64103 0.0
H3440 H 0.54086 0.35121 0.65519 0.0
H3441 H 0.55036 0.36622 0.64462 0.0
H3442 H 0.54923 0.38945 0.66528 0.0
H3443 H 0.52396 0.39946 0.67084 0.0
H3444 H 0.85461 0.6645 0.22978 0.0
H3445 H 0.88346 0.66413 0.23365 0.0
H3446 H 0.88594 0.69689 0.2761 0.0
H3447 H 0.85704 0.69782 0.27209 0.0
H3448 H 0.90963 0.69479 0.24035 0.0
H3449 H 0.90552 0.65222 0.28644 0.0
H3450 H 0.88924 0.65306 0.27128 0.0
H3451 H 0.89377 0.66887 0.28711 0.0
C3452 C 0.86126 0.67193 0.23976 0.0
C3453 C 0.85345 0.68123 0.25062 0.0
C3454 C 0.87775 0.67161 0.24199 0.0
C3455 C 0.88672 0.68044 0.25515 0.0
C3456 C 0.87912 0.68996 0.26588 0.0
H3457 H 0.98546 0.67277 0.29012 0.0
H3458 H 0.95831 0.68051 0.28734 0.0
C3459 C 0.86262 0.69038 0.26362 0.0
C3460 C 0.90396 0.67907 0.25796 0.0
H3461 H 0.93091 0.65944 0.2788 0.0
C3462 C 0.91436 0.68714 0.24879 0.0
C3463 C 0.90998 0.66919 0.26908 0.0
C3464 C 0.89913 0.66025 0.27908 0.0
C3465 C 0.93073 0.68542 0.25037 0.0
C3466 C 0.93668 0.67507 0.26111 0.0
C3467 C 0.92629 0.66732 0.27054 0.0
C3468 C 0.95353 0.67163 0.2624 0.0
C3469 C 0.94159 0.69493 0.24086 0.0
C3470 C 0.95977 0.66391 0.24934 0.0
C3471 C 0.97531 0.65961 0.2509 0.0
C3472 C 0.98483 0.66298 0.2655 0.0
C3473 C 0.97853 0.67054 0.27859 0.0
C3474 C 0.963 0.67484 0.27705 0.0
H3475 H 0.93557 0.7044 0.23527 0.0
H3476 H 0.95227 0.70057 0.24867 0.0
H3477 H 0.94562 0.68694 0.23126 0.0
H3478 H 0.95249 0.66088 0.23806 0.0
H3479 H 0.97984 0.65353 0.24073 0.0
H3480 H 0.25351 0.04412 0.33345 0.0
H3481 H 0.22502 0.04383 0.32478 0.0
H3482 H 0.21674 0.99578 0.33711 0.0
H3483 H 0.24509 0.99592 0.34564 0.0
H3484 H 0.20437 0.02261 0.30171 0.0
H3485 H 0.18621 0.02052 0.36265 0.0
H3486 H 0.20653 0.02595 0.35892 0.0
H3487 H 0.19861 0.00534 0.35707 0.0
C3488 C 0.24564 0.03343 0.33412 0.0
C3489 C 0.25152 0.0201 0.3404 0.0
C3490 C 0.22937 0.03332 0.32925 0.0
C3491 C 0.21876 0.01991 0.33064 0.0
C3492 C 0.22469 0.00639 0.33632 0.0
H3493 H 0.12161 0.98301 0.31049 0.0
H3494 H 0.15014 0.98937 0.31855 0.0
C3495 C 0.24089 0.00649 0.34118 0.0
C3496 C 0.20142 0.01992 0.32627 0.0
H3497 H 0.16553 0.01436 0.34117 0.0
C3498 C 0.19584 0.02104 0.31034 0.0
C3499 C 0.19038 0.01796 0.33762 0.0
C3500 C 0.19571 0.01753 0.35505 0.0
C3501 C 0.17944 0.01941 0.30529 0.0
C3502 C 0.16842 0.01681 0.31654 0.0
C3503 C 0.17402 0.01629 0.33257 0.0
C3504 C 0.15108 0.01338 0.31178 0.0
C3505 C 0.17403 0.01973 0.28787 0.0
C3506 C 0.14211 0.02487 0.3055 0.0
C3507 C 0.12575 0.02126 0.30091 0.0
C3508 C 0.11818 0.00611 0.30259 0.0
C3509 C 0.12717 0.99477 0.30908 0.0
C3510 C 0.14344 0.99838 0.31368 0.0
H3511 H 0.18404 0.01906 0.28035 0.0
H3512 H 0.16478 0.00967 0.28363 0.0
H3513 H 0.16868 0.03097 0.28618 0.0
H3514 H 0.14775 0.0366 0.30417 0.0
H3515 H 0.1191 0.03024 0.29595 0.0
H3516 H 0.27204 0.97041 0.71391 0.0
H3517 H 0.30034 0.97323 0.71006 0.0
H3518 H 0.29816 0.02297 0.70415 0.0
H3519 H 0.26974 0.0201 0.70738 0.0
H3520 H 0.31412 0.00933 0.68213 0.0
H3521 H 0.33722 0.99307 0.74102 0.0
H3522 H 0.32295 0.97788 0.73039 0.0
H3523 H 0.31684 0.99707 0.73658 0.0
C3524 C 0.27756 0.98193 0.71171 0.0
C3525 C 0.26864 0.99506 0.71103 0.0
C3526 C 0.29382 0.98359 0.70978 0.0
C3527 C 0.30148 0.9984 0.70718 0.0
C3528 C 0.29255 0.01146 0.7063 0.0
H3529 H 0.40385 0.02299 0.71257 0.0
H3530 H 0.37564 0.0211 0.7168 0.0
C3531 C 0.27631 0.00981 0.7082 0.0
C3532 C 0.31866 1.00017 0.70477 0.0
H3533 H 0.35565 0.99442 0.72149 0.0
C3534 C 0.32316 0.00607 0.69074 0.0
C3535 C 0.33056 0.99625 0.71617 0.0
C3536 C 0.32669 0.99088 0.73195 0.0
C3537 C 0.33914 0.0078 0.68761 0.0
C3538 C 0.35095 0.00326 0.69871 0.0
C3539 C 0.34653 0.99769 0.7129 0.0
C3540 C 0.368 0.00442 0.69595 0.0
C3541 C 0.34325 0.01471 0.67257 0.0
C3542 C 0.37308 0.99551 0.68292 0.0
C3543 C 0.38921 0.99656 0.68046 0.0
C3544 C 0.40052 0.00648 0.69103 0.0
C3545 C 0.39543 0.01527 0.70417 0.0
C3546 C 0.37931 0.0142 0.70662 0.0
H3547 H 0.33359 0.02132 0.66751 0.0
H3548 H 0.35444 0.02288 0.67481 0.0
H3549 H 0.34502 0.00489 0.6635 0.0
H3550 H 0.36459 0.98765 0.67472 0.0
H3551 H 0.39285 0.98961 0.6703 0.0
H3552 H 0.63415 0.62899 0.34585 0.0
H3553 H 0.64148 0.60243 0.3503 0.0
H3554 H 0.69121 0.61997 0.3535 0.0
H3555 H 0.684 0.64672 0.34962 0.0
H3556 H 0.65992 0.58133 0.33463 0.0
H3557 H 0.68678 0.60215 0.39635 0.0
H3558 H 0.67454 0.61404 0.38475 0.0
H3559 H 0.69491 0.61265 0.38104 0.0
C3560 C 0.64665 0.62721 0.3475 0.0
C3561 C 0.65849 0.64004 0.34762 0.0
C3562 C 0.65082 0.61199 0.34991 0.0
C3563 C 0.66688 0.6093 0.35253 0.0
C3564 C 0.67874 0.62186 0.35179 0.0
H3565 H 0.69825 0.51421 0.36181 0.0
H3566 H 0.69449 0.54026 0.35251 0.0
C3567 C 0.67459 0.63711 0.3494 0.0
C3568 C 0.67111 0.59356 0.35685 0.0
H3569 H 0.68803 0.57519 0.38738 0.0
C3570 C 0.66616 0.57997 0.34611 0.0
C3571 C 0.67908 0.59182 0.37193 0.0
C3572 C 0.68404 0.60589 0.38427 0.0
C3573 C 0.66887 0.56466 0.35009 0.0
C3574 C 0.6769 0.56295 0.36514 0.0
C3575 C 0.68198 0.57656 0.3758 0.0
C3576 C 0.67926 0.54711 0.37052 0.0
C3577 C 0.66263 0.5504 0.3384 0.0
C3578 C 0.67221 0.54245 0.3839 0.0
C3579 C 0.6744 0.52766 0.38926 0.0
C3580 C 0.68373 0.51726 0.38141 0.0
C3581 C 0.69092 0.52194 0.36807 0.0
C3582 C 0.68871 0.53679 0.36269 0.0
H3583 H 0.6539 0.55349 0.32886 0.0
H3584 H 0.67271 0.54568 0.3327 0.0
H3585 H 0.65685 0.54078 0.34457 0.0
H3586 H 0.66491 0.55025 0.39016 0.0
H3587 H 0.66876 0.52435 0.39959 0.0
H3588 H 0.70063 0.27306 0.02294 0.0
H3589 H 0.69589 0.3012 0.02499 0.0
H3590 H 0.71275 0.30547 0.979 0.0
H3591 H 0.71765 0.27746 0.97695 0.0
H3592 H 0.72565 0.32968 0.00041 0.0
H3593 H 0.67157 0.30513 0.99807 0.0
H3594 H 0.66024 0.32167 0.0024 0.0
H3595 H 0.67103 0.31348 0.01833 0.0
C3596 C 0.70321 0.27998 0.01323 0.0
C3597 C 0.70945 0.27303 0.99976 0.0
C3598 C 0.70044 0.29604 0.01439 0.0
C3599 C 0.70372 0.30538 0.00203 0.0
C3600 C 0.7101 0.29849 0.98866 0.0
H3601 H 0.67299 0.39824 0.98752 0.0
H3602 H 0.67736 0.36997 0.98559 0.0
C3603 C 0.71298 0.2825 0.98755 0.0
C3604 C 0.70109 0.3225 0.00319 0.0
H3605 H 0.67285 0.34826 0.00779 0.0
C3606 C 0.71408 0.33373 0.00197 0.0
C3607 C 0.68597 0.32778 0.00508 0.0
C3608 C 0.67138 0.31635 0.00588 0.0
C3609 C 0.71241 0.35008 0.00271 0.0
C3610 C 0.69739 0.35537 0.00502 0.0
C3611 C 0.68437 0.34416 0.00611 0.0
C3612 C 0.69491 0.37249 0.00618 0.0
C3613 C 0.72666 0.36151 0.0007 0.0
C3614 C 0.70322 0.38322 0.01846 0.0
C3615 C 0.70079 0.39934 0.01955 0.0
C3616 C 0.68989 0.40497 0.00842 0.0
C3617 C 0.68149 0.3942 0.99621 0.0
C3618 C 0.68395 0.37808 0.99512 0.0
H3619 H 0.73595 0.35535 0.99492 0.0
H3620 H 0.72314 0.3711 0.99345 0.0
H3621 H 0.73203 0.36713 0.01259 0.0
H3622 H 0.7115 0.37909 0.0273 0.0
H3623 H 0.70738 0.40733 0.02916 0.0
H3624 H 0.27605 0.8557 0.68184 0.0
H3625 H 0.28138 0.88464 0.68262 0.0
H3626 H 0.23095 0.88896 0.68011 0.0
H3627 H 0.22556 0.86015 0.67995 0.0
H3628 H 0.27124 0.90192 0.65883 0.0
H3629 H 0.24834 0.924 0.71498 0.0
H3630 H 0.2522 0.90354 0.71065 0.0
H3631 H 0.23405 0.91032 0.70232 0.0
C3632 C 0.26612 0.86284 0.68189 0.0
C3633 C 0.25037 0.85561 0.6808 0.0
C3634 C 0.26918 0.87937 0.68223 0.0
C3635 C 0.25658 0.88897 0.68159 0.0
C3636 C 0.24088 0.88183 0.68093 0.0
H3637 H 0.2438 0.98516 0.66202 0.0
H3638 H 0.24081 0.95707 0.66721 0.0
C3639 C 0.23781 0.86533 0.68062 0.0
C3640 C 0.25971 0.90624 0.68016 0.0
H3641 H 0.25282 0.94307 0.69635 0.0
C3642 C 0.26738 0.91093 0.66714 0.0
C3643 C 0.25461 0.91797 0.69099 0.0
C3644 C 0.24698 0.91373 0.70561 0.0
C3645 C 0.26967 0.92699 0.66437 0.0
C3646 C 0.26428 0.93866 0.67501 0.0
C3647 C 0.25683 0.93405 0.68818 0.0
C3648 C 0.26608 0.9557 0.67246 0.0
C3649 C 0.27742 0.93133 0.64985 0.0
C3650 C 0.28126 0.96416 0.67378 0.0
C3651 C 0.28296 0.98014 0.67089 0.0
C3652 C 0.2695 0.9879 0.6667 0.0
C3653 C 0.25432 0.97943 0.66537 0.0
C3654 C 0.25262 0.96345 0.66833 0.0
H3655 H 0.27809 0.92074 0.64126 0.0
H3656 H 0.27077 0.94005 0.64368 0.0
H3657 H 0.28973 0.93697 0.65359 0.0
H3658 H 0.29178 0.95839 0.67701 0.0
H3659 H 0.29481 0.9863 0.67164 0.0
H3660 H 0.35473 0.24398 0.00041 0.0
H3661 H 0.34663 0.21561 0.00074 0.0
H3662 H 0.33333 0.22457 0.04836 0.0
H3663 H 0.3416 0.25307 0.0482 0.0
H3664 H 0.35953 0.19588 0.02332 0.0
H3665 H 0.29399 0.19709 0.0235 0.0
H3666 H 0.30665 0.2134 0.01765 0.0
H3667 H 0.30652 0.21043 0.03831 0.0
C3668 C 0.35009 0.23994 0.01097 0.0
C3669 C 0.34888 0.25078 0.02431 0.0
C3670 C 0.34541 0.22373 0.01111 0.0
C3671 C 0.33932 0.21802 0.02453 0.0
C3672 C 0.3378 0.22879 0.03779 0.0
H3673 H 0.30507 0.11831 0.03378 0.0
H3674 H 0.31356 0.14686 0.04058 0.0
C3675 C 0.3425 0.24506 0.03767 0.0
C3676 C 0.33518 0.20068 0.0247 0.0
H3677 H 0.30384 0.17205 0.02363 0.0
C3678 C 0.34737 0.19066 0.02351 0.0
C3679 C 0.31934 0.19395 0.02511 0.0
C3680 C 0.3058 0.2042 0.02611 0.0
C3681 C 0.34409 0.17405 0.02232 0.0
C3682 C 0.32815 0.16728 0.02202 0.0
C3683 C 0.31604 0.17729 0.02385 0.0
C3684 C 0.32368 0.1499 0.01844 0.0
C3685 C 0.3577 0.16388 0.02125 0.0
C3686 C 0.32648 0.14222 0.00373 0.0
C3687 C 0.32167 0.12602 0.99984 0.0
C3688 C 0.31389 0.11719 0.01054 0.0
C3689 C 0.31114 0.12482 0.02534 0.0
C3690 C 0.31594 0.1411 0.02922 0.0
H3691 H 0.36918 0.17056 0.02655 0.0
H3692 H 0.3556 0.15299 0.02738 0.0
H3693 H 0.35884 0.16019 0.00854 0.0
H3694 H 0.33212 0.14884 0.99509 0.0
H3695 H 0.3238 0.12043 0.98831 0.0
H3696 H 0.35138 0.68739 0.6494 0.0
H3697 H 0.35563 0.69537 0.62301 0.0
H3698 H 0.34953 0.64605 0.60357 0.0
H3699 H 0.34466 0.63802 0.62975 0.0
H3700 H 0.37985 0.68772 0.60612 0.0
H3701 H 0.32242 0.66602 0.5706 0.0
H3702 H 0.32473 0.66787 0.59211 0.0
H3703 H 0.3308 0.65077 0.58094 0.0
C3704 C 0.35053 0.67826 0.63943 0.0
C3705 C 0.34771 0.66206 0.64171 0.0
C3706 C 0.35307 0.68284 0.62437 0.0
C3707 C 0.35274 0.67133 0.61126 0.0
C3708 C 0.34954 0.65517 0.61342 0.0
H3709 H 0.40226 0.67697 0.52758 0.0
H3710 H 0.39275 0.67205 0.55323 0.0
C3711 C 0.34696 0.65059 0.62845 0.0
C3712 C 0.35706 0.67608 0.59568 0.0
H3713 H 0.34461 0.67216 0.55584 0.0
C3714 C 0.37206 0.68446 0.59515 0.0
C3715 C 0.34684 0.67199 0.58138 0.0
C3716 C 0.33024 0.66381 0.58127 0.0
C3717 C 0.37735 0.6884 0.58069 0.0
C3718 C 0.36748 0.68356 0.5663 0.0
C3719 C 0.35224 0.67568 0.56686 0.0
C3720 C 0.37295 0.68626 0.55057 0.0
C3721 C 0.39345 0.69773 0.58095 0.0
C3722 C 0.36471 0.6955 0.54034 0.0
C3723 C 0.37007 0.69824 0.52562 0.0
C3724 C 0.38373 0.69169 0.52087 0.0
C3725 C 0.39177 0.68223 0.531 0.0
C3726 C 0.3864 0.67948 0.54568 0.0
H3727 H 0.39739 0.70435 0.59283 0.0
H3728 H 0.40238 0.68938 0.57825 0.0
H3729 H 0.39328 0.70635 0.57187 0.0
H3730 H 0.35425 0.70076 0.54384 0.0
H3731 H 0.3636 0.70557 0.51805 0.0
H3732 H 0.97745 0.71173 0.27046 0.0
H3733 H 0.97991 0.70833 0.29893 0.0
H3734 H 0.02919 0.70026 0.29705 0.0
H3735 H 0.02673 0.70344 0.26852 0.0
H3736 H 0.01247 0.67758 0.31188 0.0
H3737 H 0.00209 0.73819 0.3366 0.0
H3738 H 0.9867 0.72895 0.32167 0.0
H3739 H 0.00648 0.73376 0.31633 0.0
C3740 C 0.9888 0.70923 0.27615 0.0
C3741 C 0.00188 0.70776 0.2673 0.0
C3742 C 0.99026 0.70752 0.29244 0.0
C3743 C 0.00478 0.7042 0.30014 0.0
C3744 C 0.01788 0.70282 0.29134 0.0
H3745 H 0.03015 0.70617 0.40187 0.0
H3746 H 0.0281 0.71094 0.37381 0.0
C3747 C 0.01647 0.70466 0.27507 0.0
C3748 C 0.00612 0.70133 0.31718 0.0
H3749 H 0.00225 0.71828 0.35458 0.0
C3750 C 0.01034 0.6865 0.32122 0.0
C3751 C 0.0034 0.71303 0.32936 0.0
C3752 C 0.99956 0.72943 0.32584 0.0
C3753 C 0.01182 0.68299 0.33709 0.0
C3754 C 0.00861 0.69451 0.34924 0.0
C3755 C 0.00455 0.70941 0.34523 0.0
C3756 C 0.00973 0.69149 0.36623 0.0
C3757 C 0.01709 0.66709 0.34071 0.0
C3758 C 0.99993 0.67909 0.37132 0.0
C3759 C 0.00109 0.67631 0.38738 0.0
C3760 C 0.01201 0.68593 0.3986 0.0
C3761 C 0.02164 0.69849 0.39352 0.0
C3762 C 0.02048 0.70126 0.37748 0.0
H3763 H 0.02305 0.66148 0.33081 0.0
H3764 H 0.02541 0.66835 0.3518 0.0
H3765 H 0.00652 0.65892 0.34241 0.0
H3766 H 0.99132 0.67161 0.3629 0.0
H3767 H 0.99348 0.66661 0.39101 0.0
H3768 H 0.69951 0.26231 0.85695 0.0
H3769 H 0.69899 0.26554 0.88592 0.0
H3770 H 0.6652 0.22376 0.8826 0.0
H3771 H 0.66528 0.22064 0.85374 0.0
H3772 H 0.67067 0.26929 0.9015 0.0
H3773 H 0.69971 0.21656 0.91858 0.0
H3774 H 0.70187 0.22463 0.89983 0.0
H3775 H 0.68406 0.21233 0.90247 0.0
C3776 C 0.69198 0.25379 0.86238 0.0
C3777 C 0.68248 0.24118 0.85298 0.0
C3778 C 0.6918 0.2556 0.87894 0.0
C3779 C 0.68226 0.24474 0.88639 0.0
C3780 C 0.67294 0.23204 0.8771 0.0
H3781 H 0.64914 0.23367 0.97762 0.0
H3782 H 0.65669 0.23065 0.95035 0.0
C3783 C 0.67304 0.23027 0.86058 0.0
C3784 C 0.681 0.24729 0.90371 0.0
H3785 H 0.68573 0.22971 0.9382 0.0
C3786 C 0.67415 0.26077 0.9096 0.0
C3787 C 0.68546 0.23607 0.91416 0.0
C3788 C 0.69332 0.22164 0.90851 0.0
C3789 C 0.67104 0.26304 0.92557 0.0
C3790 C 0.67528 0.25168 0.93601 0.0
C3791 C 0.68248 0.23838 0.93018 0.0
C3792 C 0.67168 0.25307 0.95282 0.0
C3793 C 0.66259 0.27719 0.93092 0.0
C3794 C 0.67783 0.2665 0.96332 0.0
C3795 C 0.67339 0.26827 0.97878 0.0
C3796 C 0.66303 0.2565 0.98413 0.0
C3797 C 0.65723 0.24286 0.97378 0.0
C3798 C 0.66157 0.24112 0.95826 0.0
H3799 H 0.65659 0.28233 0.92067 0.0
H3800 H 0.65355 0.27387 0.93901 0.0
H3801 H 0.67142 0.28661 0.93748 0.0
H3802 H 0.68583 0.27575 0.95946 0.0
H3803 H 0.6777 0.27907 0.98638 0.0
H3804 H 0.03202 0.32018 0.24933 0.0
H3805 H 0.03261 0.3106 0.22125 0.0
H3806 H 0.0574 0.35551 0.21342 0.0
H3807 H 0.05728 0.36501 0.24154 0.0
H3808 H 0.0188 0.32451 0.19549 0.0
H3809 H 0.08374 0.32306 0.1922 0.0
H3810 H 0.07502 0.32411 0.21086 0.0
H3811 H 0.07822 0.34167 0.20079 0.0
C3812 C 0.03788 0.3279 0.24171 0.0
C3813 C 0.0446 0.34336 0.24768 0.0
C3814 C 0.03813 0.32244 0.22565 0.0
C3815 C 0.04521 0.33227 0.2153 0.0
C3816 C 0.05212 0.34762 0.22125 0.0
H3817 H 0.04875 0.3246 0.1125 0.0
H3818 H 0.05241 0.33317 0.14124 0.0
C3819 C 0.05187 0.3531 0.23729 0.0
C3820 C 0.04443 0.32685 0.19807 0.0
H3821 H 0.06722 0.31945 0.16758 0.0
C3822 C 0.02938 0.3233 0.1894 0.0
C3823 C 0.05827 0.32544 0.19015 0.0
C3824 C 0.07474 0.32863 0.19898 0.0
C3825 C 0.02776 0.31854 0.17298 0.0
C3826 C 0.04158 0.31699 0.16507 0.0
C3827 C 0.05666 0.32063 0.1737 0.0
C3828 C 0.04052 0.31142 0.14786 0.0
C3829 C 0.01126 0.31553 0.16418 0.0
C3830 C 0.03308 0.2962 0.14215 0.0
C3831 C 0.03096 0.29133 0.12582 0.0
C3832 C 0.03635 0.30157 0.1149 0.0
C3833 C 0.04444 0.31652 0.12067 0.0
C3834 C 0.04653 0.32141 0.13705 0.0
H3835 H 0.00234 0.32121 0.17097 0.0
H3836 H 0.011 0.32007 0.15231 0.0
H3837 H 0.00762 0.30251 0.16236 0.0
H3838 H 0.02868 0.28817 0.15032 0.0
H3839 H 0.02485 0.27964 0.12179 0.0
loop_
_geom_bond_atom_site_label_1
_geom_bond_atom_site_label_2
_geom_bond_distance
_geom_bond_site_symmetry_2
_ccdc_geom_bond_type
C0 C1 1.264 . S
C0 C5 1.479 . S
C0 C10 1.465 . S
C1 C0 1.264 . S
C1 C3 1.339 . S
C1 H28 0.931 . S
C2 C3 1.395 . S
C2 C4 1.320 . S
C3 C1 1.339 . S
C3 C2 1.395 . S
C3 H29 0.929 . S
C4 C2 1.320 . S
C4 C5 1.405 . S
C4 H30 0.930 . S
C5 C0 1.479 . S
C5 C4 1.405 . S
C5 H31 0.931 . S
U6 O7 2.454 . S
U6 O8 2.458 . S
U6 C9 2.984 . S
U6 C10 2.847 . S
U6 C23 2.882 . S
U6 O24 2.441 . S
U6 O25 2.420 . S
U6 O26 2.455 . S
U6 O27 2.449 . S
O7 U6 2.454 . S
O7 C9 1.353 . S
O8 U6 2.458 . S
O8 C9 1.286 . S
C9 U6 2.984 . S
C9 O7 1.353 . S
C9 O8 1.286 . S
C9 C11 1.363 . S
C10 C0 1.465 . S
C10 U6 2.847 . S
C10 O24 1.249 . S
C10 O25 1.202 . S
C11 C9 1.363 . S
C11 C13 1.408 . S
C11 C16 1.342 . S
C12 C13 1.310 . S
C12 C15 1.461 . S
C12 H32 0.932 . S
C13 C11 1.408 . S
C13 C12 1.310 . S
C13 H33 0.930 . S
C14 C15 1.474 . S
C14 C16 1.285 . S
C14 H34 0.929 . S
C15 C12 1.461 . S
C15 C14 1.474 . S
C16 C11 1.342 . S
C16 C14 1.285 . S
C16 H35 0.930 . S
C17 C20 1.424 . S
C17 C22 1.245 . S
C17 C23 1.428 . S
C18 C21 1.260 . S
C18 C22 1.477 . S
C18 H36 0.932 . S
C19 C20 1.384 . S
C19 C21 1.479 . S
C19 H37 0.929 . S
C20 C17 1.424 . S
C20 C19 1.384 . S
C20 H38 0.928 . S
C21 C18 1.260 . S
C21 C19 1.479 . S
C22 C17 1.245 . S
C22 C18 1.477 . S
C22 H39 0.932 . S
C23 U6 2.882 . S
C23 C17 1.428 . S
C23 O26 1.301 . S
C23 O27 1.282 . S
O24 U6 2.441 . S
O24 C10 1.249 . S
O25 U6 2.420 . S
O25 C10 1.202 . S
O26 U6 2.455 . S
O26 C23 1.301 . S
O27 U6 2.449 . S
O27 C23 1.282 . S
H28 C1 0.931 . S
H29 C3 0.929 . S
H30 C4 0.930 . S
H31 C5 0.931 . S
H32 C12 0.932 . S
H33 C13 0.930 . S
H34 C14 0.929 . S
H35 C16 0.930 . S
H36 C18 0.932 . S
H37 C19 0.929 . S
H38 C20 0.928 . S
H39 C22 0.932 . S
C40 C41 1.264 . S
C40 C45 1.479 . S
C40 C50 1.465 . S
C41 C40 1.264 . S
C41 C43 1.339 . S
C41 H68 0.931 . S
C42 C43 1.395 . S
C42 C44 1.320 . S
C43 C41 1.339 . S
C43 C42 1.395 . S
C43 H69 0.929 . S
C44 C42 1.320 . S
C44 C45 1.405 . S
C44 H70 0.930 . S
C45 C40 1.479 . S
C45 C44 1.405 . S
C45 H71 0.931 . S
U46 O47 2.454 . S
U46 O48 2.458 . S
U46 C49 2.984 . S
U46 C50 2.847 . S
U46 C63 2.882 . S
U46 O64 2.441 . S
U46 O65 2.420 . S
U46 O66 2.455 . S
U46 O67 2.449 . S
O47 U46 2.454 . S
O47 C49 1.353 . S
O48 U46 2.458 . S
O48 C49 1.286 . S
C49 U46 2.984 . S
C49 O47 1.353 . S
C49 O48 1.286 . S
C49 C51 1.363 . S
C50 C40 1.465 . S
C50 U46 2.847 . S
C50 O64 1.249 . S
C50 O65 1.202 . S
C51 C49 1.363 . S
C51 C53 1.408 . S
C51 C56 1.342 . S
C52 C53 1.310 . S
C52 C55 1.461 . S
C52 H72 0.932 . S
C53 C51 1.408 . S
C53 C52 1.310 . S
C53 H73 0.930 . S
C54 C55 1.474 . S
C54 C56 1.285 . S
C54 H74 0.929 . S
C55 C52 1.461 . S
C55 C54 1.474 . S
C56 C51 1.342 . S
C56 C54 1.285 . S
C56 H75 0.930 . S
C57 C60 1.424 . S
C57 C62 1.245 . S
C57 C63 1.428 . S
C58 C61 1.260 . S
C58 C62 1.477 . S
C58 H76 0.932 . S
C59 C60 1.384 . S
C59 C61 1.479 . S
C59 H77 0.929 . S
C60 C57 1.424 . S
C60 C59 1.384 . S
C60 H78 0.928 . S
C61 C58 1.260 . S
C61 C59 1.479 . S
C62 C57 1.245 . S
C62 C58 1.477 . S
C62 H79 0.932 . S
C63 U46 2.882 . S
C63 C57 1.428 . S
C63 O66 1.301 . S
C63 O67 1.282 . S
O64 U46 2.441 . S
O64 C50 1.249 . S
O65 U46 2.420 . S
O65 C50 1.202 . S
O66 U46 2.455 . S
O66 C63 1.301 . S
O67 U46 2.449 . S
O67 C63 1.282 . S
H68 C41 0.931 . S
H69 C43 0.929 . S
H70 C44 0.930 . S
H71 C45 0.931 . S
H72 C52 0.932 . S
H73 C53 0.930 . S
H74 C54 0.929 . S
H75 C56 0.930 . S
H76 C58 0.932 . S
H77 C59 0.929 . S
H78 C60 0.928 . S
H79 C62 0.932 . S
C80 C81 1.264 . S
C80 C85 1.479 . S
C80 C90 1.465 . S
C81 C80 1.264 . S
C81 C83 1.339 . S
C81 H108 0.931 . S
C82 C83 1.395 . S
C82 C84 1.320 . S
C83 C81 1.339 . S
C83 C82 1.395 . S
C83 H109 0.929 . S
C84 C82 1.320 . S
C84 C85 1.405 . S
C84 H110 0.925 1_565 S
C85 C80 1.479 . S
C85 C84 1.405 . S
C85 H111 0.931 . S
U86 O87 2.454 . S
U86 O88 2.458 . S
U86 C89 2.984 . S
U86 C90 2.847 . S
U86 C103 2.882 . S
U86 O104 2.441 . S
U86 O105 2.420 . S
U86 O106 2.455 . S
U86 O107 2.449 . S
O87 U86 2.454 . S
O87 C89 1.353 . S
O88 U86 2.458 . S
O88 C89 1.286 . S
C89 U86 2.984 . S
C89 O87 1.353 . S
C89 O88 1.286 . S
C89 C91 1.363 . S
C90 C80 1.465 . S
C90 U86 2.847 . S
C90 O104 1.249 . S
C90 O105 1.202 . S
C91 C89 1.363 . S
C91 C93 1.408 . S
C91 C96 1.363 . S
C92 C93 1.310 . S
C92 C95 1.461 . S
C92 H112 0.930 . S
C93 C91 1.408 . S
C93 C92 1.310 . S
C93 H113 0.930 . S
C94 C95 1.473 1_545 S
C94 C96 1.277 1_545 S
C94 H114 0.932 . S
C95 C92 1.461 . S
C95 C94 1.473 1_565 S
C96 C91 1.363 . S
C96 C94 1.277 1_565 S
C96 H115 0.926 . S
C97 C100 1.424 . S
C97 C102 1.245 . S
C97 C103 1.428 . S
C98 C101 1.260 . S
C98 C102 1.477 . S
C98 H116 0.932 . S
C99 C100 1.384 . S
C99 C101 1.479 . S
C99 H117 0.929 . S
C100 C97 1.424 . S
C100 C99 1.384 . S
C100 H118 0.928 . S
C101 C98 1.260 . S
C101 C99 1.479 . S
C102 C97 1.245 . S
C102 C98 1.477 . S
C102 H119 0.932 . S
C103 U86 2.882 . S
C103 C97 1.428 . S
C103 O106 1.301 . S
C103 O107 1.282 . S
O104 U86 2.441 . S
O104 C90 1.249 . S
O105 U86 2.420 . S
O105 C90 1.202 . S
O106 U86 2.455 . S
O106 C103 1.301 . S
O107 U86 2.449 . S
O107 C103 1.282 . S
H108 C81 0.931 . S
H109 C83 0.929 . S
H110 C84 0.925 1_545 S
H111 C85 0.931 . S
H112 C92 0.930 . S
H113 C93 0.930 . S
H114 C94 0.932 . S
H115 C96 0.926 . S
H116 C98 0.932 . S
H117 C99 0.929 . S
H118 C100 0.928 . S
H119 C102 0.932 . S
C120 C121 1.264 . S
C120 C125 1.479 . S
C120 C130 1.465 . S
C121 C120 1.264 . S
C121 C123 1.339 . S
C121 H148 0.931 . S
C122 C123 1.395 . S
C122 C124 1.320 . S
C123 C121 1.339 . S
C123 C122 1.395 . S
C123 H149 0.929 . S
C124 C122 1.320 . S
C124 C125 1.405 . S
C124 H150 0.930 . S
C125 C120 1.479 . S
C125 C124 1.405 . S
C125 H151 0.931 . S
U126 O127 2.454 . S
U126 O128 2.458 . S
U126 C129 2.984 . S
U126 C130 2.847 . S
U126 C143 2.882 . S
U126 O144 2.441 . S
U126 O145 2.420 . S
U126 O146 2.455 . S
U126 O147 2.449 . S
O127 U126 2.454 . S
O127 C129 1.353 . S
O128 U126 2.458 . S
O128 C129 1.286 . S
C129 U126 2.984 . S
C129 O127 1.353 . S
C129 O128 1.286 . S
C129 C131 1.363 . S
C130 C120 1.465 . S
C130 U126 2.847 . S
C130 O144 1.249 . S
C130 O145 1.202 . S
C131 C129 1.363 . S
C131 C133 1.408 . S
C131 C136 1.342 . S
C132 C133 1.310 . S
C132 C135 1.461 . S
C132 H152 0.932 . S
C133 C131 1.408 . S
C133 C132 1.310 . S
C133 H153 0.930 . S
C134 C135 1.474 . S
C134 C136 1.285 . S
C134 H154 0.929 . S
C135 C132 1.461 . S
C135 C134 1.474 . S
C136 C131 1.342 . S
C136 C134 1.285 . S
C136 H155 0.930 . S
C137 C140 1.424 . S
C137 C142 1.245 . S
C137 C143 1.428 1_565 S
C138 C141 1.260 . S
C138 C142 1.477 . S
C138 H156 0.932 . S
C139 C140 1.384 . S
C139 C141 1.479 . S
C139 H157 0.929 . S
C140 C137 1.424 . S
C140 C139 1.384 . S
C140 H158 0.928 . S
C141 C138 1.260 . S
C141 C139 1.479 . S
C142 C137 1.245 . S
C142 C138 1.477 . S
C142 H159 0.932 . S
C143 U126 2.882 . S
C143 C137 1.428 1_545 S
C143 O146 1.301 . S
C143 O147 1.282 . S
O144 U126 2.441 . S
O144 C130 1.249 . S
O145 U126 2.420 . S
O145 C130 1.202 . S
O146 U126 2.455 . S
O146 C143 1.301 . S
O147 U126 2.449 . S
O147 C143 1.282 . S
H148 C121 0.931 . S
H149 C123 0.929 . S
H150 C124 0.930 . S
H151 C125 0.931 . S
H152 C132 0.932 . S
H153 C133 0.930 . S
H154 C134 0.929 . S
H155 C136 0.930 . S
H156 C138 0.932 . S
H157 C139 0.929 . S
H158 C140 0.928 . S
H159 C142 0.932 . S
C160 C161 1.264 . S
C160 C165 1.479 . S
C160 C170 1.465 . S
C161 C160 1.264 . S
C161 C163 1.339 . S
C161 H188 0.931 . S
C162 C163 1.395 . S
C162 C164 1.320 . S
C163 C161 1.339 . S
C163 C162 1.395 . S
C163 H189 0.929 . S
C164 C162 1.320 . S
C164 C165 1.405 . S
C164 H190 0.930 . S
C165 C160 1.479 . S
C165 C164 1.405 . S
C165 H191 0.931 . S
U166 O167 2.454 . S
U166 O168 2.458 . S
U166 C169 2.984 . S
U166 C170 2.847 . S
U166 C183 2.882 . S
U166 O184 2.441 . S
U166 O185 2.420 . S
U166 O186 2.455 . S
U166 O187 2.449 . S
O167 U166 2.454 . S
O167 C169 1.353 . S
O168 U166 2.458 . S
O168 C169 1.286 . S
C169 U166 2.984 . S
C169 O167 1.353 . S
C169 O168 1.286 . S
C169 C171 1.363 . S
C170 C160 1.465 . S
C170 U166 2.847 . S
C170 O184 1.249 . S
C170 O185 1.202 . S
C171 C169 1.363 . S
C171 C173 1.408 . S
C171 C176 1.342 . S
C172 C173 1.310 . S
C172 C175 1.461 . S
C172 H192 0.932 . S
C173 C171 1.408 . S
C173 C172 1.310 . S
C173 H193 0.930 . S
C174 C175 1.474 . S
C174 C176 1.285 . S
C174 H194 0.929 . S
C175 C172 1.461 . S
C175 C174 1.474 . S
C176 C171 1.342 . S
C176 C174 1.285 . S
C176 H195 0.930 . S
C177 C180 1.424 . S
C177 C182 1.245 . S
C177 C183 1.428 . S
C178 C181 1.260 . S
C178 C182 1.477 . S
C178 H196 0.932 . S
C179 C180 1.384 . S
C179 C181 1.479 . S
C179 H197 0.929 . S
C180 C177 1.424 . S
C180 C179 1.384 . S
C180 H198 0.928 . S
C181 C178 1.260 . S
C181 C179 1.479 . S
C182 C177 1.245 . S
C182 C178 1.477 . S
C182 H199 0.932 . S
C183 U166 2.882 . S
C183 C177 1.428 . S
C183 O186 1.301 . S
C183 O187 1.282 . S
O184 U166 2.441 . S
O184 C170 1.249 . S
O185 U166 2.420 . S
O185 C170 1.202 . S
O186 U166 2.455 . S
O186 C183 1.301 . S
O187 U166 2.449 . S
O187 C183 1.282 . S
H188 C161 0.931 . S
H189 C163 0.929 . S
H190 C164 0.930 . S
H191 C165 0.931 . S
H192 C172 0.932 . S
H193 C173 0.930 . S
H194 C174 0.929 . S
H195 C176 0.930 . S
H196 C178 0.932 . S
H197 C179 0.929 . S
H198 C180 0.928 . S
H199 C182 0.932 . S
C200 C201 1.264 . S
C200 C205 1.479 . S
C200 C210 1.465 . S
C201 C200 1.264 . S
C201 C203 1.339 . S
C201 H228 0.931 . S
C202 C203 1.395 . S
C202 C204 1.320 . S
C203 C201 1.339 . S
C203 C202 1.395 . S
C203 H229 0.929 . S
C204 C202 1.320 . S
C204 C205 1.405 . S
C204 H230 0.930 . S
C205 C200 1.479 . S
C205 C204 1.405 . S
C205 H231 0.931 . S
U206 O207 2.454 . S
U206 O208 2.458 . S
U206 C209 2.984 . S
U206 C210 2.847 . S
U206 C223 2.882 . S
U206 O224 2.441 . S
U206 O225 2.420 . S
U206 O226 2.455 . S
U206 O227 2.449 . S
O207 U206 2.454 . S
O207 C209 1.353 . S
O208 U206 2.458 . S
O208 C209 1.286 . S
C209 U206 2.984 . S
C209 O207 1.353 . S
C209 O208 1.286 . S
C209 C211 1.363 . S
C210 C200 1.465 . S
C210 U206 2.847 . S
C210 O224 1.249 . S
C210 O225 1.202 . S
C211 C209 1.363 . S
C211 C213 1.408 . S
C211 C216 1.342 . S
C212 C213 1.310 . S
C212 C215 1.461 . S
C212 H232 0.932 . S
C213 C211 1.408 . S
C213 C212 1.310 . S
C213 H233 0.930 . S
C214 C215 1.474 . S
C214 C216 1.285 . S
C214 H234 0.929 . S
C215 C212 1.461 . S
C215 C214 1.474 . S
C216 C211 1.342 . S
C216 C214 1.285 . S
C216 H235 0.930 . S
C217 C220 1.424 . S
C217 C222 1.245 . S
C217 C223 1.428 1_556 S
C218 C221 1.260 . S
C218 C222 1.477 . S
C218 H236 0.932 . S
C219 C220 1.384 . S
C219 C221 1.479 . S
C219 H237 0.929 . S
C220 C217 1.424 . S
C220 C219 1.384 . S
C220 H238 0.928 . S
C221 C218 1.260 . S
C221 C219 1.479 . S
C222 C217 1.245 . S
C222 C218 1.477 . S
C222 H239 0.932 . S
C223 U206 2.882 . S
C223 C217 1.428 1_554 S
C223 O226 1.301 . S
C223 O227 1.282 . S
O224 U206 2.441 . S
O224 C210 1.249 . S
O225 U206 2.420 . S
O225 C210 1.202 . S
O226 U206 2.455 . S
O226 C223 1.301 . S
O227 U206 2.449 . S
O227 C223 1.282 . S
H228 C201 0.931 . S
H229 C203 0.929 . S
H230 C204 0.930 . S
H231 C205 0.931 . S
H232 C212 0.932 . S
H233 C213 0.930 . S
H234 C214 0.929 . S
H235 C216 0.930 . S
H236 C218 0.932 . S
H237 C219 0.929 . S
H238 C220 0.928 . S
H239 C222 0.932 . S
C240 C241 1.264 . S
C240 C245 1.479 . S
C240 C250 1.465 . S
C241 C240 1.264 . S
C241 C243 1.339 . S
C241 H268 0.931 . S
C242 C243 1.395 . S
C242 C244 1.320 . S
C243 C241 1.339 . S
C243 C242 1.395 . S
C243 H269 0.929 . S
C244 C242 1.320 . S
C244 C245 1.405 . S
C244 H270 0.930 . S
C245 C240 1.479 . S
C245 C244 1.405 . S
C245 H271 0.931 . S
U246 O247 2.454 . S
U246 O248 2.458 . S
U246 C249 2.984 . S
U246 C250 2.847 . S
U246 C263 2.882 . S
U246 O264 2.441 . S
U246 O265 2.420 . S
U246 O266 2.455 . S
U246 O267 2.449 . S
O247 U246 2.454 . S
O247 C249 1.353 . S
O248 U246 2.458 . S
O248 C249 1.286 . S
C249 U246 2.984 . S
C249 O247 1.353 . S
C249 O248 1.286 . S
C249 C251 1.363 . S
C250 C240 1.465 . S
C250 U246 2.847 . S
C250 O264 1.249 . S
C250 O265 1.202 . S
C251 C249 1.363 . S
C251 C253 1.408 . S
C251 C256 1.342 . S
C252 C253 1.310 . S
C252 C255 1.461 . S
C252 H272 0.932 . S
C253 C251 1.408 . S
C253 C252 1.310 . S
C253 H273 0.930 . S
C254 C255 1.474 . S
C254 C256 1.285 . S
C254 H274 0.929 . S
C255 C252 1.461 . S
C255 C254 1.474 . S
C256 C251 1.342 . S
C256 C254 1.285 . S
C256 H275 0.930 . S
C257 C260 1.424 . S
C257 C262 1.245 . S
C257 C263 1.428 . S
C258 C261 1.260 . S
C258 C262 1.477 . S
C258 H276 0.932 . S
C259 C260 1.384 . S
C259 C261 1.479 . S
C259 H277 0.929 . S
C260 C257 1.424 . S
C260 C259 1.384 . S
C260 H278 0.928 . S
C261 C258 1.260 . S
C261 C259 1.479 . S
C262 C257 1.245 . S
C262 C258 1.477 . S
C262 H279 0.932 . S
C263 U246 2.882 . S
C263 C257 1.428 . S
C263 O266 1.301 . S
C263 O267 1.282 . S
O264 U246 2.441 . S
O264 C250 1.249 . S
O265 U246 2.420 . S
O265 C250 1.202 . S
O266 U246 2.455 . S
O266 C263 1.301 . S
O267 U246 2.449 . S
O267 C263 1.282 . S
H268 C241 0.931 . S
H269 C243 0.929 . S
H270 C244 0.930 . S
H271 C245 0.931 . S
H272 C252 0.932 . S
H273 C253 0.930 . S
H274 C254 0.929 . S
H275 C256 0.930 . S
H276 C258 0.932 . S
H277 C259 0.929 . S
H278 C260 0.928 . S
H279 C262 0.932 . S
C280 C281 1.264 . S
C280 C285 1.479 . S
C280 C290 1.465 . S
C281 C280 1.264 . S
C281 C283 1.339 . S
C281 H308 0.931 . S
C282 C283 1.395 . S
C282 C284 1.320 . S
C283 C281 1.339 . S
C283 C282 1.395 . S
C283 H309 0.929 . S
C284 C282 1.320 . S
C284 C285 1.405 . S
C284 H310 0.925 1_556 S
C285 C280 1.479 . S
C285 C284 1.405 . S
C285 H311 0.931 . S
U286 O287 2.454 . S
U286 O288 2.458 . S
U286 C289 2.984 . S
U286 C290 2.847 . S
U286 C303 2.882 . S
U286 O304 2.441 . S
U286 O305 2.420 . S
U286 O306 2.455 . S
U286 O307 2.449 . S
O287 U286 2.454 . S
O287 C289 1.353 . S
O288 U286 2.458 . S
O288 C289 1.286 . S
C289 U286 2.984 . S
C289 O287 1.353 . S
C289 O288 1.286 . S
C289 C291 1.363 . S
C290 C280 1.465 . S
C290 U286 2.847 . S
C290 O304 1.249 . S
C290 O305 1.202 . S
C291 C289 1.363 . S
C291 C293 1.408 . S
C291 C296 1.363 . S
C292 C293 1.310 . S
C292 C295 1.461 . S
C292 H312 0.930 . S
C293 C291 1.408 . S
C293 C292 1.310 . S
C293 H313 0.930 . S
C294 C295 1.473 1_554 S
C294 C296 1.277 1_554 S
C294 H314 0.932 . S
C295 C292 1.461 . S
C295 C294 1.473 1_556 S
C296 C291 1.363 . S
C296 C294 1.277 1_556 S
C296 H315 0.926 . S
C297 C300 1.424 . S
C297 C302 1.245 . S
C297 C303 1.428 . S
C298 C301 1.260 . S
C298 C302 1.477 . S
C298 H316 0.932 . S
C299 C300 1.384 . S
C299 C301 1.479 . S
C299 H317 0.929 . S
C300 C297 1.424 . S
C300 C299 1.384 . S
C300 H318 0.928 . S
C301 C298 1.260 . S
C301 C299 1.479 . S
C302 C297 1.245 . S
C302 C298 1.477 . S
C302 H319 0.932 . S
C303 U286 2.882 . S
C303 C297 1.428 . S
C303 O306 1.301 . S
C303 O307 1.282 . S
O304 U286 2.441 . S
O304 C290 1.249 . S
O305 U286 2.420 . S
O305 C290 1.202 . S
O306 U286 2.455 . S
O306 C303 1.301 . S
O307 U286 2.449 . S
O307 C303 1.282 . S
H308 C281 0.931 . S
H309 C283 0.929 . S
H310 C284 0.925 1_554 S
H311 C285 0.931 . S
H312 C292 0.930 . S
H313 C293 0.930 . S
H314 C294 0.932 . S
H315 C296 0.926 . S
H316 C298 0.932 . S
H317 C299 0.929 . S
H318 C300 0.928 . S
H319 C302 0.932 . S
C320 C321 1.264 . S
C320 C325 1.479 . S
C320 C330 1.465 . S
C321 C320 1.264 . S
C321 C323 1.339 . S
C321 H348 0.931 . S
C322 C323 1.395 . S
C322 C324 1.320 . S
C323 C321 1.339 . S
C323 C322 1.395 . S
C323 H349 0.929 . S
C324 C322 1.320 . S
C324 C325 1.405 . S
C324 H350 0.930 . S
C325 C320 1.479 . S
C325 C324 1.405 . S
C325 H351 0.931 . S
U326 O327 2.454 . S
U326 O328 2.458 . S
U326 C329 2.984 . S
U326 C330 2.847 . S
U326 C343 2.882 . S
U326 O344 2.441 . S
U326 O345 2.420 . S
U326 O346 2.455 . S
U326 O347 2.449 . S
O327 U326 2.454 . S
O327 C329 1.353 . S
O328 U326 2.458 . S
O328 C329 1.286 . S
C329 U326 2.984 . S
C329 O327 1.353 . S
C329 O328 1.286 . S
C329 C331 1.363 . S
C330 C320 1.465 . S
C330 U326 2.847 . S
C330 O344 1.249 . S
C330 O345 1.202 . S
C331 C329 1.363 . S
C331 C333 1.408 . S
C331 C336 1.342 . S
C332 C333 1.310 . S
C332 C335 1.461 . S
C332 H352 0.932 . S
C333 C331 1.408 . S
C333 C332 1.310 . S
C333 H353 0.930 . S
C334 C335 1.474 . S
C334 C336 1.285 . S
C334 H354 0.929 . S
C335 C332 1.461 . S
C335 C334 1.474 . S
C336 C331 1.342 . S
C336 C334 1.285 . S
C336 H355 0.930 . S
C337 C340 1.424 . S
C337 C342 1.245 . S
C337 C343 1.428 . S
C338 C341 1.260 . S
C338 C342 1.477 . S
C338 H356 0.932 . S
C339 C340 1.384 . S
C339 C341 1.479 . S
C339 H357 0.929 . S
C340 C337 1.424 . S
C340 C339 1.384 . S
C340 H358 0.928 . S
C341 C338 1.260 . S
C341 C339 1.479 . S
C342 C337 1.245 . S
C342 C338 1.477 . S
C342 H359 0.932 . S
C343 U326 2.882 . S
C343 C337 1.428 . S
C343 O346 1.301 . S
C343 O347 1.282 . S
O344 U326 2.441 . S
O344 C330 1.249 . S
O345 U326 2.420 . S
O345 C330 1.202 . S
O346 U326 2.455 . S
O346 C343 1.301 . S
O347 U326 2.449 . S
O347 C343 1.282 . S
H348 C321 0.931 . S
H349 C323 0.929 . S
H350 C324 0.930 . S
H351 C325 0.931 . S
H352 C332 0.932 . S
H353 C333 0.930 . S
H354 C334 0.929 . S
H355 C336 0.930 . S
H356 C338 0.932 . S
H357 C339 0.929 . S
H358 C340 0.928 . S
H359 C342 0.932 . S
C360 C361 1.264 . S
C360 C365 1.479 . S
C360 C370 1.465 . S
C361 C360 1.264 . S
C361 C363 1.339 . S
C361 H388 0.931 . S
C362 C363 1.395 . S
C362 C364 1.320 . S
C363 C361 1.339 . S
C363 C362 1.395 . S
C363 H389 0.929 . S
C364 C362 1.320 . S
C364 C365 1.405 . S
C364 H390 0.930 . S
C365 C360 1.479 . S
C365 C364 1.405 . S
C365 H391 0.931 . S
U366 O367 2.454 . S
U366 O368 2.458 . S
U366 C369 2.984 . S
U366 C370 2.847 . S
U366 C383 2.882 . S
U366 O384 2.441 . S
U366 O385 2.420 . S
U366 O386 2.455 . S
U366 O387 2.449 . S
O367 U366 2.454 . S
O367 C369 1.353 . S
O368 U366 2.458 . S
O368 C369 1.286 . S
C369 U366 2.984 . S
C369 O367 1.353 . S
C369 O368 1.286 . S
C369 C371 1.363 . S
C370 C360 1.465 . S
C370 U366 2.847 . S
C370 O384 1.249 . S
C370 O385 1.202 . S
C371 C369 1.363 . S
C371 C373 1.408 . S
C371 C376 1.342 . S
C372 C373 1.310 . S
C372 C375 1.461 . S
C372 H392 0.932 . S
C373 C371 1.408 . S
C373 C372 1.310 . S
C373 H393 0.930 . S
C374 C375 1.474 . S
C374 C376 1.285 . S
C374 H394 0.929 . S
C375 C372 1.461 . S
C375 C374 1.474 . S
C376 C371 1.342 . S
C376 C374 1.285 . S
C376 H395 0.930 . S
C377 C380 1.424 . S
C377 C382 1.245 . S
C377 C383 1.428 1_655 S
C378 C381 1.260 . S
C378 C382 1.477 . S
C378 H396 0.932 . S
C379 C380 1.384 . S
C379 C381 1.479 . S
C379 H397 0.929 . S
C380 C377 1.424 . S
C380 C379 1.384 . S
C380 H398 0.928 . S
C381 C378 1.260 . S
C381 C379 1.479 . S
C382 C377 1.245 . S
C382 C378 1.477 . S
C382 H399 0.932 . S
C383 U366 2.882 . S
C383 C377 1.428 1_455 S
C383 O386 1.301 . S
C383 O387 1.282 . S
O384 U366 2.441 . S
O384 C370 1.249 . S
O385 U366 2.420 . S
O385 C370 1.202 . S
O386 U366 2.455 . S
O386 C383 1.301 . S
O387 U366 2.449 . S
O387 C383 1.282 . S
H388 C361 0.931 . S
H389 C363 0.929 . S
H390 C364 0.930 . S
H391 C365 0.931 . S
H392 C372 0.932 . S
H393 C373 0.930 . S
H394 C374 0.929 . S
H395 C376 0.930 . S
H396 C378 0.932 . S
H397 C379 0.929 . S
H398 C380 0.928 . S
H399 C382 0.932 . S
C400 C401 1.264 . S
C400 C405 1.479 . S
C400 C410 1.465 . S
C401 C400 1.264 . S
C401 C403 1.339 . S
C401 H428 0.931 . S
C402 C403 1.395 . S
C402 C404 1.320 . S
C403 C401 1.339 . S
C403 C402 1.395 . S
C403 H429 0.929 . S
C404 C402 1.320 . S
C404 C405 1.405 . S
C404 H430 0.930 . S
C405 C400 1.479 . S
C405 C404 1.405 . S
C405 H431 0.931 . S
U406 O407 2.454 . S
U406 O408 2.458 . S
U406 C409 2.984 . S
U406 C410 2.847 . S
U406 C423 2.882 . S
U406 O424 2.441 . S
U406 O425 2.420 . S
U406 O426 2.455 . S
U406 O427 2.449 . S
O407 U406 2.454 . S
O407 C409 1.353 . S
O408 U406 2.458 . S
O408 C409 1.286 . S
C409 U406 2.984 . S
C409 O407 1.353 . S
C409 O408 1.286 . S
C409 C411 1.363 . S
C410 C400 1.465 . S
C410 U406 2.847 . S
C410 O424 1.249 . S
C410 O425 1.202 . S
C411 C409 1.363 . S
C411 C413 1.408 . S
C411 C416 1.342 . S
C412 C413 1.310 . S
C412 C415 1.461 . S
C412 H432 0.932 . S
C413 C411 1.408 . S
C413 C412 1.310 . S
C413 H433 0.930 . S
C414 C415 1.474 . S
C414 C416 1.285 . S
C414 H434 0.929 . S
C415 C412 1.461 . S
C415 C414 1.474 . S
C416 C411 1.342 . S
C416 C414 1.285 . S
C416 H435 0.930 . S
C417 C420 1.424 . S
C417 C422 1.245 . S
C417 C423 1.428 . S
C418 C421 1.260 . S
C418 C422 1.477 . S
C418 H436 0.932 . S
C419 C420 1.384 . S
C419 C421 1.479 . S
C419 H437 0.929 . S
C420 C417 1.424 . S
C420 C419 1.384 . S
C420 H438 0.928 . S
C421 C418 1.260 . S
C421 C419 1.479 . S
C422 C417 1.245 . S
C422 C418 1.477 . S
C422 H439 0.932 . S
C423 U406 2.882 . S
C423 C417 1.428 . S
C423 O426 1.301 . S
C423 O427 1.282 . S
O424 U406 2.441 . S
O424 C410 1.249 . S
O425 U406 2.420 . S
O425 C410 1.202 . S
O426 U406 2.455 . S
O426 C423 1.301 . S
O427 U406 2.449 . S
O427 C423 1.282 . S
H428 C401 0.931 . S
H429 C403 0.929 . S
H430 C404 0.930 . S
H431 C405 0.931 . S
H432 C412 0.932 . S
H433 C413 0.930 . S
H434 C414 0.929 . S
H435 C416 0.930 . S
H436 C418 0.932 . S
H437 C419 0.929 . S
H438 C420 0.928 . S
H439 C422 0.932 . S
C440 C441 1.264 . S
C440 C445 1.479 . S
C440 C450 1.465 . S
C441 C440 1.264 . S
C441 C443 1.339 . S
C441 H468 0.931 . S
C442 C443 1.395 . S
C442 C444 1.320 . S
C443 C441 1.339 . S
C443 C442 1.395 . S
C443 H469 0.929 . S
C444 C442 1.320 . S
C444 C445 1.405 . S
C444 H470 0.925 1_655 S
C445 C440 1.479 . S
C445 C444 1.405 . S
C445 H471 0.931 . S
U446 O447 2.454 . S
U446 O448 2.458 . S
U446 C449 2.984 . S
U446 C450 2.847 . S
U446 C463 2.882 . S
U446 O464 2.441 . S
U446 O465 2.420 . S
U446 O466 2.455 . S
U446 O467 2.449 . S
O447 U446 2.454 . S
O447 C449 1.353 . S
O448 U446 2.458 . S
O448 C449 1.286 . S
C449 U446 2.984 . S
C449 O447 1.353 . S
C449 O448 1.286 . S
C449 C451 1.363 . S
C450 C440 1.465 . S
C450 U446 2.847 . S
C450 O464 1.249 . S
C450 O465 1.202 . S
C451 C449 1.363 . S
C451 C453 1.408 . S
C451 C456 1.363 . S
C452 C453 1.310 . S
C452 C455 1.461 . S
C452 H472 0.930 . S
C453 C451 1.408 . S
C453 C452 1.310 . S
C453 H473 0.930 . S
C454 C455 1.473 1_455 S
C454 C456 1.277 1_455 S
C454 H474 0.932 . S
C455 C452 1.461 . S
C455 C454 1.473 1_655 S
C456 C451 1.363 . S
C456 C454 1.277 1_655 S
C456 H475 0.926 . S
C457 C460 1.424 . S
C457 C462 1.245 . S
C457 C463 1.428 . S
C458 C461 1.260 . S
C458 C462 1.477 . S
C458 H476 0.932 . S
C459 C460 1.384 . S
C459 C461 1.479 . S
C459 H477 0.929 . S
C460 C457 1.424 . S
C460 C459 1.384 . S
C460 H478 0.928 . S
C461 C458 1.260 . S
C461 C459 1.479 . S
C462 C457 1.245 . S
C462 C458 1.477 . S
C462 H479 0.932 . S
C463 U446 2.882 . S
C463 C457 1.428 . S
C463 O466 1.301 . S
C463 O467 1.282 . S
O464 U446 2.441 . S
O464 C450 1.249 . S
O465 U446 2.420 . S
O465 C450 1.202 . S
O466 U446 2.455 . S
O466 C463 1.301 . S
O467 U446 2.449 . S
O467 C463 1.282 . S
H468 C441 0.931 . S
H469 C443 0.929 . S
H470 C444 0.925 1_455 S
H471 C445 0.931 . S
H472 C452 0.930 . S
H473 C453 0.930 . S
H474 C454 0.932 . S
H475 C456 0.926 . S
H476 C458 0.932 . S
H477 C459 0.929 . S
H478 C460 0.928 . S
H479 C462 0.932 . S
C480 C481 1.264 . S
C480 C485 1.479 . S
C480 C490 1.465 . S
C481 C480 1.264 . S
C481 C483 1.339 . S
C481 H508 0.931 . S
C482 C483 1.395 . S
C482 C484 1.320 . S
C483 C481 1.339 . S
C483 C482 1.395 . S
C483 H509 0.929 . S
C484 C482 1.320 . S
C484 C485 1.405 . S
C484 H510 0.930 . S
C485 C480 1.479 . S
C485 C484 1.405 . S
C485 H511 0.931 . S
U486 O487 2.454 . S
U486 O488 2.458 . S
U486 C489 2.984 . S
U486 C490 2.847 . S
U486 C503 2.882 . S
U486 O504 2.441 . S
U486 O505 2.420 . S
U486 O506 2.455 . S
U486 O507 2.449 . S
O487 U486 2.454 . S
O487 C489 1.353 . S
O488 U486 2.458 . S
O488 C489 1.286 . S
C489 U486 2.984 . S
C489 O487 1.353 . S
C489 O488 1.286 . S
C489 C491 1.363 . S
C490 C480 1.465 . S
C490 U486 2.847 . S
C490 O504 1.249 . S
C490 O505 1.202 . S
C491 C489 1.363 . S
C491 C493 1.408 . S
C491 C496 1.342 . S
C492 C493 1.310 . S
C492 C495 1.461 . S
C492 H512 0.932 . S
C493 C491 1.408 . S
C493 C492 1.310 . S
C493 H513 0.930 . S
C494 C495 1.474 . S
C494 C496 1.285 . S
C494 H514 0.929 . S
C495 C492 1.461 . S
C495 C494 1.474 . S
C496 C491 1.342 . S
C496 C494 1.285 . S
C496 H515 0.930 . S
C497 C500 1.424 . S
C497 C502 1.245 . S
C497 C503 1.428 . S
C498 C501 1.260 . S
C498 C502 1.477 . S
C498 H516 0.932 . S
C499 C500 1.384 . S
C499 C501 1.479 . S
C499 H517 0.929 . S
C500 C497 1.424 . S
C500 C499 1.384 . S
C500 H518 0.928 . S
C501 C498 1.260 . S
C501 C499 1.479 . S
C502 C497 1.245 . S
C502 C498 1.477 . S
C502 H519 0.932 . S
C503 U486 2.882 . S
C503 C497 1.428 . S
C503 O506 1.301 . S
C503 O507 1.282 . S
O504 U486 2.441 . S
O504 C490 1.249 . S
O505 U486 2.420 . S
O505 C490 1.202 . S
O506 U486 2.455 . S
O506 C503 1.301 . S
O507 U486 2.449 . S
O507 C503 1.282 . S
H508 C481 0.931 . S
H509 C483 0.929 . S
H510 C484 0.930 . S
H511 C485 0.931 . S
H512 C492 0.932 . S
H513 C493 0.930 . S
H514 C494 0.929 . S
H515 C496 0.930 . S
H516 C498 0.932 . S
H517 C499 0.929 . S
H518 C500 0.928 . S
H519 C502 0.932 . S
C520 C521 1.264 . S
C520 C525 1.479 . S
C520 C530 1.465 . S
C521 C520 1.264 . S
C521 C523 1.339 . S
C521 H548 0.931 . S
C522 C523 1.395 . S
C522 C524 1.320 . S
C523 C521 1.339 . S
C523 C522 1.395 . S
C523 H549 0.929 . S
C524 C522 1.320 . S
C524 C525 1.405 . S
C524 H550 0.930 . S
C525 C520 1.479 . S
C525 C524 1.405 . S
C525 H551 0.931 . S
U526 O527 2.454 . S
U526 O528 2.458 . S
U526 C529 2.984 . S
U526 C530 2.847 . S
U526 C543 2.882 . S
U526 O544 2.441 . S
U526 O545 2.420 . S
U526 O546 2.455 . S
U526 O547 2.449 . S
O527 U526 2.454 . S
O527 C529 1.353 . S
O528 U526 2.458 . S
O528 C529 1.286 . S
C529 U526 2.984 . S
C529 O527 1.353 . S
C529 O528 1.286 . S
C529 C531 1.363 . S
C530 C520 1.465 . S
C530 U526 2.847 . S
C530 O544 1.249 . S
C530 O545 1.202 . S
C531 C529 1.363 . S
C531 C533 1.408 . S
C531 C536 1.342 . S
C532 C533 1.310 . S
C532 C535 1.461 . S
C532 H552 0.932 . S
C533 C531 1.408 . S
C533 C532 1.310 . S
C533 H553 0.930 . S
C534 C535 1.474 . S
C534 C536 1.285 . S
C534 H554 0.929 . S
C535 C532 1.461 . S
C535 C534 1.474 . S
C536 C531 1.342 . S
C536 C534 1.285 . S
C536 H555 0.930 . S
C537 C540 1.424 . S
C537 C542 1.245 . S
C537 C543 1.428 . S
C538 C541 1.260 . S
C538 C542 1.477 . S
C538 H556 0.932 . S
C539 C540 1.384 . S
C539 C541 1.479 . S
C539 H557 0.929 . S
C540 C537 1.424 . S
C540 C539 1.384 . S
C540 H558 0.928 . S
C541 C538 1.260 . S
C541 C539 1.479 . S
C542 C537 1.245 . S
C542 C538 1.477 . S
C542 H559 0.932 . S
C543 U526 2.882 . S
C543 C537 1.428 . S
C543 O546 1.301 . S
C543 O547 1.282 . S
O544 U526 2.441 . S
O544 C530 1.249 . S
O545 U526 2.420 . S
O545 C530 1.202 . S
O546 U526 2.455 . S
O546 C543 1.301 . S
O547 U526 2.449 . S
O547 C543 1.282 . S
H548 C521 0.931 . S
H549 C523 0.929 . S
H550 C524 0.930 . S
H551 C525 0.931 . S
H552 C532 0.932 . S
H553 C533 0.930 . S
H554 C534 0.929 . S
H555 C536 0.930 . S
H556 C538 0.932 . S
H557 C539 0.929 . S
H558 C540 0.928 . S
H559 C542 0.932 . S
C560 C561 1.264 . S
C560 C565 1.479 . S
C560 C570 1.465 . S
C561 C560 1.264 . S
C561 C563 1.339 . S
C561 H588 0.931 . S
C562 C563 1.395 . S
C562 C564 1.320 . S
C563 C561 1.339 . S
C563 C562 1.395 . S
C563 H589 0.929 . S
C564 C562 1.320 . S
C564 C565 1.405 . S
C564 H590 0.921 1_565 S
C565 C560 1.479 . S
C565 C564 1.405 . S
C565 H591 0.931 . S
U566 O567 2.454 . S
U566 O568 2.458 . S
U566 C569 2.984 . S
U566 C570 2.847 . S
U566 C583 2.882 . S
U566 O584 2.441 . S
U566 O585 2.420 . S
U566 O586 2.455 . S
U566 O587 2.449 . S
O567 U566 2.454 . S
O567 C569 1.353 . S
O568 U566 2.458 . S
O568 C569 1.286 . S
C569 U566 2.984 . S
C569 O567 1.353 . S
C569 O568 1.286 . S
C569 C571 1.363 . S
C570 C560 1.465 . S
C570 U566 2.847 . S
C570 O584 1.249 . S
C570 O585 1.202 . S
C571 C569 1.363 . S
C571 C573 1.408 . S
C571 C576 1.342 . S
C572 C573 1.310 . S
C572 C575 1.460 . S
C572 H592 0.932 . S
C573 C571 1.408 . S
C573 C572 1.310 . S
C573 H593 0.930 . S
C574 C575 1.475 1_545 S
C574 C576 1.286 1_545 S
C574 H594 0.930 . S
C575 C572 1.460 . S
C575 C574 1.475 1_565 S
C576 C571 1.342 . S
C576 C574 1.286 1_565 S
C576 H595 0.929 . S
C577 C580 1.424 . S
C577 C582 1.245 . S
C577 C583 1.428 . S
C578 C581 1.260 . S
C578 C582 1.477 . S
C578 H596 0.932 . S
C579 C580 1.384 . S
C579 C581 1.479 . S
C579 H597 0.929 . S
C580 C577 1.424 . S
C580 C579 1.384 . S
C580 H598 0.928 . S
C581 C578 1.260 . S
C581 C579 1.479 . S
C582 C577 1.245 . S
C582 C578 1.477 . S
C582 H599 0.932 . S
C583 U566 2.882 . S
C583 C577 1.428 . S
C583 O586 1.301 . S
C583 O587 1.282 . S
O584 U566 2.441 . S
O584 C570 1.249 . S
O585 U566 2.420 . S
O585 C570 1.202 . S
O586 U566 2.455 . S
O586 C583 1.301 . S
O587 U566 2.449 . S
O587 C583 1.282 . S
H588 C561 0.931 . S
H589 C563 0.929 . S
H590 C564 0.921 1_545 S
H591 C565 0.931 . S
H592 C572 0.932 . S
H593 C573 0.930 . S
H594 C574 0.930 . S
H595 C576 0.929 . S
H596 C578 0.932 . S
H597 C579 0.929 . S
H598 C580 0.928 . S
H599 C582 0.932 . S
C600 C601 1.264 1_565 S
C600 C605 1.477 . S
C600 C610 1.467 1_565 S
C601 C600 1.264 1_545 S
C601 C603 1.339 1_545 S
C601 H628 0.931 . S
C602 C603 1.395 . S
C602 C604 1.320 . S
C603 C601 1.339 1_565 S
C603 C602 1.395 . S
C603 H629 0.926 1_565 S
C604 C602 1.320 . S
C604 C605 1.405 . S
C604 H630 0.930 . S
C605 C600 1.477 . S
C605 C604 1.405 . S
C605 H631 0.931 . S
U606 O607 2.454 1_545 S
U606 O608 2.458 . S
U606 C609 2.984 1_545 S
U606 C610 2.847 . S
U606 C623 2.882 . S
U606 O624 2.441 . S
U606 O625 2.420 . S
U606 O626 2.455 . S
U606 O627 2.449 . S
O607 U606 2.454 1_565 S
O607 C609 1.354 . S
O608 U606 2.458 . S
O608 C609 1.285 1_545 S
C609 U606 2.984 1_565 S
C609 O607 1.354 . S
C609 O608 1.285 1_565 S
C609 C611 1.363 . S
C610 C600 1.467 1_545 S
C610 U606 2.847 . S
C610 O624 1.249 . S
C610 O625 1.202 . S
C611 C609 1.363 . S
C611 C613 1.408 . S
C611 C616 1.342 . S
C612 C613 1.310 . S
C612 C615 1.461 . S
C612 H632 0.932 . S
C613 C611 1.408 . S
C613 C612 1.310 . S
C613 H633 0.930 . S
C614 C615 1.474 . S
C614 C616 1.285 . S
C614 H634 0.929 . S
C615 C612 1.461 . S
C615 C614 1.474 . S
C616 C611 1.342 . S
C616 C614 1.285 . S
C616 H635 0.934 . S
C617 C620 1.424 . S
C617 C622 1.245 . S
C617 C623 1.428 . S
C618 C621 1.260 . S
C618 C622 1.477 . S
C618 H636 0.932 . S
C619 C620 1.384 . S
C619 C621 1.479 . S
C619 H637 0.929 . S
C620 C617 1.424 . S
C620 C619 1.384 . S
C620 H638 0.928 . S
C621 C618 1.260 . S
C621 C619 1.479 . S
C622 C617 1.245 . S
C622 C618 1.477 . S
C622 H639 0.932 . S
C623 U606 2.882 . S
C623 C617 1.428 . S
C623 O626 1.301 . S
C623 O627 1.282 . S
O624 U606 2.441 . S
O624 C610 1.249 . S
O625 U606 2.420 . S
O625 C610 1.202 . S
O626 U606 2.455 . S
O626 C623 1.301 . S
O627 U606 2.449 . S
O627 C623 1.282 . S
H628 C601 0.931 . S
H629 C603 0.926 1_545 S
H630 C604 0.930 . S
H631 C605 0.931 . S
H632 C612 0.932 . S
H633 C613 0.930 . S
H634 C614 0.929 . S
H635 C616 0.934 . S
H636 C618 0.932 . S
H637 C619 0.929 . S
H638 C620 0.928 . S
H639 C622 0.932 . S
C640 C641 1.264 . S
C640 C645 1.479 . S
C640 C650 1.465 . S
C641 C640 1.264 . S
C641 C643 1.339 . S
C641 H668 0.931 . S
C642 C643 1.395 . S
C642 C644 1.320 . S
C643 C641 1.339 . S
C643 C642 1.395 . S
C643 H669 0.929 . S
C644 C642 1.320 . S
C644 C645 1.405 . S
C644 H670 0.930 . S
C645 C640 1.479 . S
C645 C644 1.405 . S
C645 H671 0.931 . S
U646 O647 2.454 . S
U646 O648 2.458 . S
U646 C649 2.984 . S
U646 C650 2.847 . S
U646 C663 2.882 . S
U646 O664 2.441 . S
U646 O665 2.420 . S
U646 O666 2.455 . S
U646 O667 2.449 . S
O647 U646 2.454 . S
O647 C649 1.353 . S
O648 U646 2.458 . S
O648 C649 1.286 . S
C649 U646 2.984 . S
C649 O647 1.353 . S
C649 O648 1.286 . S
C649 C651 1.363 . S
C650 C640 1.465 . S
C650 U646 2.847 . S
C650 O664 1.249 . S
C650 O665 1.202 . S
C651 C649 1.363 . S
C651 C653 1.408 . S
C651 C656 1.342 . S
C652 C653 1.310 . S
C652 C655 1.461 . S
C652 H672 0.932 . S
C653 C651 1.408 . S
C653 C652 1.310 . S
C653 H673 0.930 . S
C654 C655 1.474 . S
C654 C656 1.285 . S
C654 H674 0.929 . S
C655 C652 1.461 . S
C655 C654 1.474 . S
C656 C651 1.342 . S
C656 C654 1.285 . S
C656 H675 0.930 . S
C657 C660 1.424 . S
C657 C662 1.245 . S
C657 C663 1.428 . S
C658 C661 1.260 . S
C658 C662 1.477 . S
C658 H676 0.932 . S
C659 C660 1.384 . S
C659 C661 1.479 . S
C659 H677 0.929 . S
C660 C657 1.424 . S
C660 C659 1.384 . S
C660 H678 0.928 . S
C661 C658 1.260 . S
C661 C659 1.479 . S
C662 C657 1.245 . S
C662 C658 1.477 . S
C662 H679 0.932 . S
C663 U646 2.882 . S
C663 C657 1.428 . S
C663 O666 1.301 . S
C663 O667 1.282 . S
O664 U646 2.441 . S
O664 C650 1.249 . S
O665 U646 2.420 . S
O665 C650 1.202 . S
O666 U646 2.455 . S
O666 C663 1.301 . S
O667 U646 2.449 . S
O667 C663 1.282 . S
H668 C641 0.931 . S
H669 C643 0.929 . S
H670 C644 0.930 . S
H671 C645 0.931 . S
H672 C652 0.932 . S
H673 C653 0.930 . S
H674 C654 0.929 . S
H675 C656 0.930 . S
H676 C658 0.932 . S
H677 C659 0.929 . S
H678 C660 0.928 . S
H679 C662 0.932 . S
C680 C681 1.264 1_556 S
C680 C685 1.477 . S
C680 C690 1.467 1_556 S
C681 C680 1.264 1_554 S
C681 C683 1.339 1_554 S
C681 H708 0.931 . S
C682 C683 1.395 . S
C682 C684 1.320 . S
C683 C681 1.339 1_556 S
C683 C682 1.395 . S
C683 H709 0.926 1_556 S
C684 C682 1.320 . S
C684 C685 1.405 . S
C684 H710 0.930 . S
C685 C680 1.477 . S
C685 C684 1.405 . S
C685 H711 0.931 . S
U686 O687 2.454 1_554 S
U686 O688 2.458 . S
U686 C689 2.984 1_554 S
U686 C690 2.847 . S
U686 C703 2.882 . S
U686 O704 2.441 . S
U686 O705 2.420 . S
U686 O706 2.455 . S
U686 O707 2.449 . S
O687 U686 2.454 1_556 S
O687 C689 1.354 . S
O688 U686 2.458 . S
O688 C689 1.285 1_554 S
C689 U686 2.984 1_556 S
C689 O687 1.354 . S
C689 O688 1.285 1_556 S
C689 C691 1.363 . S
C690 C680 1.467 1_554 S
C690 U686 2.847 . S
C690 O704 1.249 . S
C690 O705 1.202 . S
C691 C689 1.363 . S
C691 C693 1.408 . S
C691 C696 1.342 . S
C692 C693 1.310 . S
C692 C695 1.461 . S
C692 H712 0.932 . S
C693 C691 1.408 . S
C693 C692 1.310 . S
C693 H713 0.930 . S
C694 C695 1.474 . S
C694 C696 1.285 . S
C694 H714 0.929 . S
C695 C692 1.461 . S
C695 C694 1.474 . S
C696 C691 1.342 . S
C696 C694 1.285 . S
C696 H715 0.934 . S
C697 C700 1.424 . S
C697 C702 1.245 . S
C697 C703 1.428 . S
C698 C701 1.260 . S
C698 C702 1.477 . S
C698 H716 0.932 . S
C699 C700 1.384 . S
C699 C701 1.479 . S
C699 H717 0.929 . S
C700 C697 1.424 . S
C700 C699 1.384 . S
C700 H718 0.928 . S
C701 C698 1.260 . S
C701 C699 1.479 . S
C702 C697 1.245 . S
C702 C698 1.477 . S
C702 H719 0.932 . S
C703 U686 2.882 . S
C703 C697 1.428 . S
C703 O706 1.301 . S
C703 O707 1.282 . S
O704 U686 2.441 . S
O704 C690 1.249 . S
O705 U686 2.420 . S
O705 C690 1.202 . S
O706 U686 2.455 . S
O706 C703 1.301 . S
O707 U686 2.449 . S
O707 C703 1.282 . S
H708 C681 0.931 . S
H709 C683 0.926 1_554 S
H710 C684 0.930 . S
H711 C685 0.931 . S
H712 C692 0.932 . S
H713 C693 0.930 . S
H714 C694 0.929 . S
H715 C696 0.934 . S
H716 C698 0.932 . S
H717 C699 0.929 . S
H718 C700 0.928 . S
H719 C702 0.932 . S
C720 C721 1.264 . S
C720 C725 1.479 . S
C720 C730 1.465 . S
C721 C720 1.264 . S
C721 C723 1.339 . S
C721 H748 0.931 . S
C722 C723 1.395 . S
C722 C724 1.320 . S
C723 C721 1.339 . S
C723 C722 1.395 . S
C723 H749 0.929 . S
C724 C722 1.320 . S
C724 C725 1.405 . S
C724 H750 0.930 . S
C725 C720 1.479 . S
C725 C724 1.405 . S
C725 H751 0.931 . S
U726 O727 2.454 . S
U726 O728 2.458 . S
U726 C729 2.984 . S
U726 C730 2.847 . S
U726 C743 2.882 . S
U726 O744 2.441 . S
U726 O745 2.420 . S
U726 O746 2.455 . S
U726 O747 2.449 . S
O727 U726 2.454 . S
O727 C729 1.353 . S
O728 U726 2.458 . S
O728 C729 1.286 . S
C729 U726 2.984 . S
C729 O727 1.353 . S
C729 O728 1.286 . S
C729 C731 1.363 . S
C730 C720 1.465 . S
C730 U726 2.847 . S
C730 O744 1.249 . S
C730 O745 1.202 . S
C731 C729 1.363 . S
C731 C733 1.408 . S
C731 C736 1.342 . S
C732 C733 1.310 . S
C732 C735 1.461 . S
C732 H752 0.932 . S
C733 C731 1.408 . S
C733 C732 1.310 . S
C733 H753 0.930 . S
C734 C735 1.474 . S
C734 C736 1.285 . S
C734 H754 0.929 . S
C735 C732 1.461 . S
C735 C734 1.474 . S
C736 C731 1.342 . S
C736 C734 1.285 . S
C736 H755 0.930 . S
C737 C740 1.424 . S
C737 C742 1.245 . S
C737 C743 1.428 . S
C738 C741 1.260 . S
C738 C742 1.477 . S
C738 H756 0.932 . S
C739 C740 1.384 . S
C739 C741 1.479 . S
C739 H757 0.929 . S
C740 C737 1.424 . S
C740 C739 1.384 . S
C740 H758 0.928 . S
C741 C738 1.260 . S
C741 C739 1.479 . S
C742 C737 1.245 . S
C742 C738 1.477 . S
C742 H759 0.932 . S
C743 U726 2.882 . S
C743 C737 1.428 . S
C743 O746 1.301 . S
C743 O747 1.282 . S
O744 U726 2.441 . S
O744 C730 1.249 . S
O745 U726 2.420 . S
O745 C730 1.202 . S
O746 U726 2.455 . S
O746 C743 1.301 . S
O747 U726 2.449 . S
O747 C743 1.282 . S
H748 C721 0.931 . S
H749 C723 0.929 . S
H750 C724 0.930 . S
H751 C725 0.931 . S
H752 C732 0.932 . S
H753 C733 0.930 . S
H754 C734 0.929 . S
H755 C736 0.930 . S
H756 C738 0.932 . S
H757 C739 0.929 . S
H758 C740 0.928 . S
H759 C742 0.932 . S
C760 C761 1.264 . S
C760 C765 1.479 . S
C760 C770 1.465 . S
C761 C760 1.264 . S
C761 C763 1.339 . S
C761 H788 0.931 . S
C762 C763 1.395 . S
C762 C764 1.320 . S
C763 C761 1.339 . S
C763 C762 1.395 . S
C763 H789 0.929 . S
C764 C762 1.320 . S
C764 C765 1.405 . S
C764 H790 0.921 1_556 S
C765 C760 1.479 . S
C765 C764 1.405 . S
C765 H791 0.931 . S
U766 O767 2.454 . S
U766 O768 2.458 . S
U766 C769 2.984 . S
U766 C770 2.847 . S
U766 C783 2.882 . S
U766 O784 2.441 . S
U766 O785 2.420 . S
U766 O786 2.455 . S
U766 O787 2.449 . S
O767 U766 2.454 . S
O767 C769 1.353 . S
O768 U766 2.458 . S
O768 C769 1.286 . S
C769 U766 2.984 . S
C769 O767 1.353 . S
C769 O768 1.286 . S
C769 C771 1.363 . S
C770 C760 1.465 . S
C770 U766 2.847 . S
C770 O784 1.249 . S
C770 O785 1.202 . S
C771 C769 1.363 . S
C771 C773 1.408 . S
C771 C776 1.342 . S
C772 C773 1.310 . S
C772 C775 1.460 . S
C772 H792 0.932 . S
C773 C771 1.408 . S
C773 C772 1.310 . S
C773 H793 0.930 . S
C774 C775 1.475 1_554 S
C774 C776 1.286 1_554 S
C774 H794 0.930 . S
C775 C772 1.460 . S
C775 C774 1.475 1_556 S
C776 C771 1.342 . S
C776 C774 1.286 1_556 S
C776 H795 0.929 . S
C777 C780 1.424 . S
C777 C782 1.245 . S
C777 C783 1.428 . S
C778 C781 1.260 . S
C778 C782 1.477 . S
C778 H796 0.932 . S
C779 C780 1.384 . S
C779 C781 1.479 . S
C779 H797 0.929 . S
C780 C777 1.424 . S
C780 C779 1.384 . S
C780 H798 0.928 . S
C781 C778 1.260 . S
C781 C779 1.479 . S
C782 C777 1.245 . S
C782 C778 1.477 . S
C782 H799 0.932 . S
C783 U766 2.882 . S
C783 C777 1.428 . S
C783 O786 1.301 . S
C783 O787 1.282 . S
O784 U766 2.441 . S
O784 C770 1.249 . S
O785 U766 2.420 . S
O785 C770 1.202 . S
O786 U766 2.455 . S
O786 C783 1.301 . S
O787 U766 2.449 . S
O787 C783 1.282 . S
H788 C761 0.931 . S
H789 C763 0.929 . S
H790 C764 0.921 1_554 S
H791 C765 0.931 . S
H792 C772 0.932 . S
H793 C773 0.930 . S
H794 C774 0.930 . S
H795 C776 0.929 . S
H796 C778 0.932 . S
H797 C779 0.929 . S
H798 C780 0.928 . S
H799 C782 0.932 . S
C800 C801 1.264 . S
C800 C805 1.479 . S
C800 C810 1.465 . S
C801 C800 1.264 . S
C801 C803 1.339 . S
C801 H828 0.931 . S
C802 C803 1.395 . S
C802 C804 1.320 . S
C803 C801 1.339 . S
C803 C802 1.395 . S
C803 H829 0.929 . S
C804 C802 1.320 . S
C804 C805 1.405 . S
C804 H830 0.930 . S
C805 C800 1.479 . S
C805 C804 1.405 . S
C805 H831 0.931 . S
U806 O807 2.454 . S
U806 O808 2.458 . S
U806 C809 2.984 . S
U806 C810 2.847 . S
U806 C823 2.882 . S
U806 O824 2.441 . S
U806 O825 2.420 . S
U806 O826 2.455 . S
U806 O827 2.449 . S
O807 U806 2.454 . S
O807 C809 1.353 . S
O808 U806 2.458 . S
O808 C809 1.286 . S
C809 U806 2.984 . S
C809 O807 1.353 . S
C809 O808 1.286 . S
C809 C811 1.363 . S
C810 C800 1.465 . S
C810 U806 2.847 . S
C810 O824 1.249 . S
C810 O825 1.202 . S
C811 C809 1.363 . S
C811 C813 1.408 . S
C811 C816 1.342 . S
C812 C813 1.310 . S
C812 C815 1.461 . S
C812 H832 0.932 . S
C813 C811 1.408 . S
C813 C812 1.310 . S
C813 H833 0.930 . S
C814 C815 1.474 . S
C814 C816 1.285 . S
C814 H834 0.929 . S
C815 C812 1.461 . S
C815 C814 1.474 . S
C816 C811 1.342 . S
C816 C814 1.285 . S
C816 H835 0.930 . S
C817 C820 1.424 . S
C817 C822 1.245 . S
C817 C823 1.428 . S
C818 C821 1.260 . S
C818 C822 1.477 . S
C818 H836 0.932 . S
C819 C820 1.384 . S
C819 C821 1.479 . S
C819 H837 0.929 . S
C820 C817 1.424 . S
C820 C819 1.384 . S
C820 H838 0.928 . S
C821 C818 1.260 . S
C821 C819 1.479 . S
C822 C817 1.245 . S
C822 C818 1.477 . S
C822 H839 0.932 . S
C823 U806 2.882 . S
C823 C817 1.428 . S
C823 O826 1.301 . S
C823 O827 1.282 . S
O824 U806 2.441 . S
O824 C810 1.249 . S
O825 U806 2.420 . S
O825 C810 1.202 . S
O826 U806 2.455 . S
O826 C823 1.301 . S
O827 U806 2.449 . S
O827 C823 1.282 . S
H828 C801 0.931 . S
H829 C803 0.929 . S
H830 C804 0.930 . S
H831 C805 0.931 . S
H832 C812 0.932 . S
H833 C813 0.930 . S
H834 C814 0.929 . S
H835 C816 0.930 . S
H836 C818 0.932 . S
H837 C819 0.929 . S
H838 C820 0.928 . S
H839 C822 0.932 . S
C840 C841 1.264 1_655 S
C840 C845 1.477 . S
C840 C850 1.467 1_655 S
C841 C840 1.264 1_455 S
C841 C843 1.339 1_455 S
C841 H868 0.931 . S
C842 C843 1.395 . S
C842 C844 1.320 . S
C843 C841 1.339 1_655 S
C843 C842 1.395 . S
C843 H869 0.926 1_655 S
C844 C842 1.320 . S
C844 C845 1.405 . S
C844 H870 0.930 . S
C845 C840 1.477 . S
C845 C844 1.405 . S
C845 H871 0.931 . S
U846 O847 2.454 1_455 S
U846 O848 2.458 . S
U846 C849 2.984 1_455 S
U846 C850 2.847 . S
U846 C863 2.882 . S
U846 O864 2.441 . S
U846 O865 2.420 . S
U846 O866 2.455 . S
U846 O867 2.449 . S
O847 U846 2.454 1_655 S
O847 C849 1.354 . S
O848 U846 2.458 . S
O848 C849 1.285 1_455 S
C849 U846 2.984 1_655 S
C849 O847 1.354 . S
C849 O848 1.285 1_655 S
C849 C851 1.363 . S
C850 C840 1.467 1_455 S
C850 U846 2.847 . S
C850 O864 1.249 . S
C850 O865 1.202 . S
C851 C849 1.363 . S
C851 C853 1.408 . S
C851 C856 1.342 . S
C852 C853 1.310 . S
C852 C855 1.461 . S
C852 H872 0.932 . S
C853 C851 1.408 . S
C853 C852 1.310 . S
C853 H873 0.930 . S
C854 C855 1.474 . S
C854 C856 1.285 . S
C854 H874 0.929 . S
C855 C852 1.461 . S
C855 C854 1.474 . S
C856 C851 1.342 . S
C856 C854 1.285 . S
C856 H875 0.934 . S
C857 C860 1.424 . S
C857 C862 1.245 . S
C857 C863 1.428 . S
C858 C861 1.260 . S
C858 C862 1.477 . S
C858 H876 0.932 . S
C859 C860 1.384 . S
C859 C861 1.479 . S
C859 H877 0.929 . S
C860 C857 1.424 . S
C860 C859 1.384 . S
C860 H878 0.928 . S
C861 C858 1.260 . S
C861 C859 1.479 . S
C862 C857 1.245 . S
C862 C858 1.477 . S
C862 H879 0.932 . S
C863 U846 2.882 . S
C863 C857 1.428 . S
C863 O866 1.301 . S
C863 O867 1.282 . S
O864 U846 2.441 . S
O864 C850 1.249 . S
O865 U846 2.420 . S
O865 C850 1.202 . S
O866 U846 2.455 . S
O866 C863 1.301 . S
O867 U846 2.449 . S
O867 C863 1.282 . S
H868 C841 0.931 . S
H869 C843 0.926 1_455 S
H870 C844 0.930 . S
H871 C845 0.931 . S
H872 C852 0.932 . S
H873 C853 0.930 . S
H874 C854 0.929 . S
H875 C856 0.934 . S
H876 C858 0.932 . S
H877 C859 0.929 . S
H878 C860 0.928 . S
H879 C862 0.932 . S
C880 C881 1.264 . S
C880 C885 1.479 . S
C880 C890 1.465 . S
C881 C880 1.264 . S
C881 C883 1.339 . S
C881 H908 0.931 . S
C882 C883 1.395 . S
C882 C884 1.320 . S
C883 C881 1.339 . S
C883 C882 1.395 . S
C883 H909 0.929 . S
C884 C882 1.320 . S
C884 C885 1.405 . S
C884 H910 0.930 . S
C885 C880 1.479 . S
C885 C884 1.405 . S
C885 H911 0.931 . S
U886 O887 2.454 . S
U886 O888 2.458 . S
U886 C889 2.984 . S
U886 C890 2.847 . S
U886 C903 2.882 . S
U886 O904 2.441 . S
U886 O905 2.420 . S
U886 O906 2.455 . S
U886 O907 2.449 . S
O887 U886 2.454 . S
O887 C889 1.353 . S
O888 U886 2.458 . S
O888 C889 1.286 . S
C889 U886 2.984 . S
C889 O887 1.353 . S
C889 O888 1.286 . S
C889 C891 1.363 . S
C890 C880 1.465 . S
C890 U886 2.847 . S
C890 O904 1.249 . S
C890 O905 1.202 . S
C891 C889 1.363 . S
C891 C893 1.408 . S
C891 C896 1.342 . S
C892 C893 1.310 . S
C892 C895 1.461 . S
C892 H912 0.932 . S
C893 C891 1.408 . S
C893 C892 1.310 . S
C893 H913 0.930 . S
C894 C895 1.474 . S
C894 C896 1.285 . S
C894 H914 0.929 . S
C895 C892 1.461 . S
C895 C894 1.474 . S
C896 C891 1.342 . S
C896 C894 1.285 . S
C896 H915 0.930 . S
C897 C900 1.424 . S
C897 C902 1.245 . S
C897 C903 1.428 . S
C898 C901 1.260 . S
C898 C902 1.477 . S
C898 H916 0.932 . S
C899 C900 1.384 . S
C899 C901 1.479 . S
C899 H917 0.929 . S
C900 C897 1.424 . S
C900 C899 1.384 . S
C900 H918 0.928 . S
C901 C898 1.260 . S
C901 C899 1.479 . S
C902 C897 1.245 . S
C902 C898 1.477 . S
C902 H919 0.932 . S
C903 U886 2.882 . S
C903 C897 1.428 . S
C903 O906 1.301 . S
C903 O907 1.282 . S
O904 U886 2.441 . S
O904 C890 1.249 . S
O905 U886 2.420 . S
O905 C890 1.202 . S
O906 U886 2.455 . S
O906 C903 1.301 . S
O907 U886 2.449 . S
O907 C903 1.282 . S
H908 C881 0.931 . S
H909 C883 0.929 . S
H910 C884 0.930 . S
H911 C885 0.931 . S
H912 C892 0.932 . S
H913 C893 0.930 . S
H914 C894 0.929 . S
H915 C896 0.930 . S
H916 C898 0.932 . S
H917 C899 0.929 . S
H918 C900 0.928 . S
H919 C902 0.932 . S
C920 C921 1.264 . S
C920 C925 1.479 . S
C920 C930 1.465 . S
C921 C920 1.264 . S
C921 C923 1.339 . S
C921 H948 0.931 . S
C922 C923 1.395 . S
C922 C924 1.320 . S
C923 C921 1.339 . S
C923 C922 1.395 . S
C923 H949 0.929 . S
C924 C922 1.320 . S
C924 C925 1.405 . S
C924 H950 0.921 1_655 S
C925 C920 1.479 . S
C925 C924 1.405 . S
C925 H951 0.931 . S
U926 O927 2.454 . S
U926 O928 2.458 . S
U926 C929 2.984 . S
U926 C930 2.847 . S
U926 C943 2.882 . S
U926 O944 2.441 . S
U926 O945 2.420 . S
U926 O946 2.455 . S
U926 O947 2.449 . S
O927 U926 2.454 . S
O927 C929 1.353 . S
O928 U926 2.458 . S
O928 C929 1.286 . S
C929 U926 2.984 . S
C929 O927 1.353 . S
C929 O928 1.286 . S
C929 C931 1.363 . S
C930 C920 1.465 . S
C930 U926 2.847 . S
C930 O944 1.249 . S
C930 O945 1.202 . S
C931 C929 1.363 . S
C931 C933 1.408 . S
C931 C936 1.342 . S
C932 C933 1.310 . S
C932 C935 1.460 . S
C932 H952 0.932 . S
C933 C931 1.408 . S
C933 C932 1.310 . S
C933 H953 0.930 . S
C934 C935 1.475 1_455 S
C934 C936 1.286 1_455 S
C934 H954 0.930 . S
C935 C932 1.460 . S
C935 C934 1.475 1_655 S
C936 C931 1.342 . S
C936 C934 1.286 1_655 S
C936 H955 0.929 . S
C937 C940 1.424 . S
C937 C942 1.245 . S
C937 C943 1.428 . S
C938 C941 1.260 . S
C938 C942 1.477 . S
C938 H956 0.932 . S
C939 C940 1.384 . S
C939 C941 1.479 . S
C939 H957 0.929 . S
C940 C937 1.424 . S
C940 C939 1.384 . S
C940 H958 0.928 . S
C941 C938 1.260 . S
C941 C939 1.479 . S
C942 C937 1.245 . S
C942 C938 1.477 . S
C942 H959 0.932 . S
C943 U926 2.882 . S
C943 C937 1.428 . S
C943 O946 1.301 . S
C943 O947 1.282 . S
O944 U926 2.441 . S
O944 C930 1.249 . S
O945 U926 2.420 . S
O945 C930 1.202 . S
O946 U926 2.455 . S
O946 C943 1.301 . S
O947 U926 2.449 . S
O947 C943 1.282 . S
H948 C921 0.931 . S
H949 C923 0.929 . S
H950 C924 0.921 1_455 S
H951 C925 0.931 . S
H952 C932 0.932 . S
H953 C933 0.930 . S
H954 C934 0.930 . S
H955 C936 0.929 . S
H956 C938 0.932 . S
H957 C939 0.929 . S
H958 C940 0.928 . S
H959 C942 0.932 . S
H960 C965 0.930 . S
H961 C968 0.930 . S
H962 C970 0.930 . S
H963 C964 1.016 . S
C964 H963 1.016 . S
C964 N971 1.286 . S
C965 H960 0.930 . S
C965 C966 1.397 . S
C965 C967 1.361 . S
C966 C965 1.397 . S
C966 C970 1.390 . S
C967 C965 1.361 . S
C967 C968 1.393 . S
C967 N971 1.413 . S
C968 H961 0.930 . S
C968 C967 1.393 . S
C968 C969 1.399 . S
C969 C968 1.399 . S
C969 C970 1.381 . S
C970 H962 0.930 . S
C970 C966 1.390 . S
C970 C969 1.381 . S
N971 C964 1.286 . S
N971 C967 1.413 . S
H972 C977 0.930 . S
H973 C980 0.930 . S
H974 C982 0.930 . S
H975 C976 1.016 1_556 S
C976 H975 1.016 1_554 S
C976 N983 1.286 . S
C977 H972 0.930 . S
C977 C978 1.397 . S
C977 C979 1.361 . S
C978 C977 1.397 . S
C978 C982 1.390 1_554 S
C979 C977 1.361 . S
C979 C980 1.393 1_554 S
C979 N983 1.413 . S
C980 H973 0.930 . S
C980 C979 1.393 1_556 S
C980 C981 1.399 . S
C981 C980 1.399 . S
C981 C982 1.381 . S
C982 H974 0.930 . S
C982 C978 1.390 1_556 S
C982 C981 1.381 . S
N983 C976 1.286 . S
N983 C979 1.413 . S
H984 C989 0.930 . S
H985 C992 0.930 . S
H986 C994 0.930 . S
H987 C988 1.016 . S
C988 H987 1.016 . S
C988 N995 1.286 . S
C989 H984 0.930 . S
C989 C990 1.397 . S
C989 C991 1.361 1_565 S
C990 C989 1.397 . S
C990 C994 1.390 . S
C991 C989 1.361 1_545 S
C991 C992 1.393 . S
C991 N995 1.413 . S
C992 H985 0.930 . S
C992 C991 1.393 . S
C992 C993 1.399 1_545 S
C993 C992 1.399 1_565 S
C993 C994 1.381 . S
C994 H986 0.930 . S
C994 C990 1.390 . S
C994 C993 1.381 . S
N995 C988 1.286 . S
N995 C991 1.413 . S
H996 C1001 0.930 . S
H997 C1004 0.930 . S
H998 C1006 0.930 . S
H999 C1000 1.071 . S
C1000 H999 1.071 . S
C1000 N1007 1.286 . S
C1001 H996 0.930 . S
C1001 C1002 1.397 . S
C1001 C1003 1.361 . S
C1002 C1001 1.397 . S
C1002 C1006 1.390 1_556 S
C1003 C1001 1.361 . S
C1003 C1004 1.393 1_556 S
C1003 N1007 1.413 . S
C1004 H997 0.930 . S
C1004 C1003 1.393 1_554 S
C1004 C1005 1.399 . S
C1005 C1004 1.399 . S
C1005 C1006 1.381 . S
C1006 H998 0.930 . S
C1006 C1002 1.390 1_554 S
C1006 C1005 1.381 . S
N1007 C1000 1.286 . S
N1007 C1003 1.413 . S
H1008 C1013 0.930 . S
H1009 C1016 0.930 . S
H1010 C1018 0.930 . S
H1011 C1012 1.016 . S
C1012 H1011 1.016 . S
C1012 N1019 1.286 . S
C1013 H1008 0.930 . S
C1013 C1014 1.397 . S
C1013 C1015 1.361 . S
C1014 C1013 1.397 . S
C1014 C1018 1.390 . S
C1015 C1013 1.361 . S
C1015 C1016 1.393 . S
C1015 N1019 1.413 . S
C1016 H1009 0.930 . S
C1016 C1015 1.393 . S
C1016 C1017 1.399 . S
C1017 C1016 1.399 . S
C1017 C1018 1.381 . S
C1018 H1010 0.930 . S
C1018 C1014 1.390 . S
C1018 C1017 1.381 . S
N1019 C1012 1.286 . S
N1019 C1015 1.413 . S
H1020 C1025 0.930 . S
H1021 C1028 0.930 . S
H1022 C1030 0.930 . S
H1023 C1024 1.071 . S
C1024 H1023 1.071 . S
C1024 N1031 1.286 . S
C1025 H1020 0.930 . S
C1025 C1026 1.397 . S
C1025 C1027 1.361 . S
C1026 C1025 1.397 . S
C1026 C1030 1.390 1_655 S
C1027 C1025 1.361 . S
C1027 C1028 1.393 1_655 S
C1027 N1031 1.413 . S
C1028 H1021 0.930 . S
C1028 C1027 1.393 1_455 S
C1028 C1029 1.399 . S
C1029 C1028 1.399 . S
C1029 C1030 1.381 . S
C1030 H1022 0.930 . S
C1030 C1026 1.390 1_455 S
C1030 C1029 1.381 . S
N1031 C1024 1.286 . S
N1031 C1027 1.413 . S
H1032 C1037 0.930 . S
H1033 C1040 0.930 . S
H1034 C1042 0.930 . S
H1035 C1036 1.016 1_655 S
C1036 H1035 1.016 1_455 S
C1036 N1043 1.286 . S
C1037 H1032 0.930 . S
C1037 C1038 1.397 . S
C1037 C1039 1.361 . S
C1038 C1037 1.397 . S
C1038 C1042 1.390 1_455 S
C1039 C1037 1.361 . S
C1039 C1040 1.393 1_455 S
C1039 N1043 1.413 . S
C1040 H1033 0.930 . S
C1040 C1039 1.393 1_655 S
C1040 C1041 1.399 . S
C1041 C1040 1.399 . S
C1041 C1042 1.381 . S
C1042 H1034 0.930 . S
C1042 C1038 1.390 1_655 S
C1042 C1041 1.381 . S
N1043 C1036 1.286 . S
N1043 C1039 1.413 . S
H1044 C1049 0.930 . S
H1045 C1052 0.930 . S
H1046 C1054 0.930 . S
H1047 C1048 1.016 . S
C1048 H1047 1.016 . S
C1048 N1055 1.286 . S
C1049 H1044 0.930 . S
C1049 C1050 1.397 . S
C1049 C1051 1.361 1_556 S
C1050 C1049 1.397 . S
C1050 C1054 1.390 . S
C1051 C1049 1.361 1_554 S
C1051 C1052 1.393 . S
C1051 N1055 1.413 . S
C1052 H1045 0.930 . S
C1052 C1051 1.393 . S
C1052 C1053 1.399 1_554 S
C1053 C1052 1.399 1_556 S
C1053 C1054 1.381 . S
C1054 H1046 0.930 . S
C1054 C1050 1.390 . S
C1054 C1053 1.381 . S
N1055 C1048 1.286 . S
N1055 C1051 1.413 . S
H1056 C1061 0.930 . S
H1057 C1064 0.930 . S
H1058 C1066 0.930 . S
H1059 C1060 1.016 . S
C1060 H1059 1.016 . S
C1060 N1067 1.286 . S
C1061 H1056 0.930 . S
C1061 C1062 1.397 . S
C1061 C1063 1.361 . S
C1062 C1061 1.397 . S
C1062 C1066 1.390 . S
C1063 C1061 1.361 . S
C1063 C1064 1.393 . S
C1063 N1067 1.413 . S
C1064 H1057 0.930 . S
C1064 C1063 1.393 . S
C1064 C1065 1.399 . S
C1065 C1064 1.399 . S
C1065 C1066 1.381 . S
C1066 H1058 0.930 . S
C1066 C1062 1.390 . S
C1066 C1065 1.381 . S
N1067 C1060 1.286 . S
N1067 C1063 1.413 . S
H1068 C1073 0.930 . S
H1069 C1076 0.930 . S
H1070 C1078 0.930 . S
H1071 C1072 1.071 . S
C1072 H1071 1.071 . S
C1072 N1079 1.286 . S
C1073 H1068 0.930 . S
C1073 C1074 1.397 . S
C1073 C1075 1.361 . S
C1074 C1073 1.397 . S
C1074 C1078 1.390 1_565 S
C1075 C1073 1.361 . S
C1075 C1076 1.393 1_565 S
C1075 N1079 1.413 . S
C1076 H1069 0.930 . S
C1076 C1075 1.393 1_545 S
C1076 C1077 1.399 . S
C1077 C1076 1.399 . S
C1077 C1078 1.381 . S
C1078 H1070 0.930 . S
C1078 C1074 1.390 1_545 S
C1078 C1077 1.381 . S
N1079 C1072 1.286 . S
N1079 C1075 1.413 . S
H1080 C1085 0.930 . S
H1081 C1088 0.930 . S
H1082 C1090 0.930 . S
H1083 C1084 1.016 1_565 S
C1084 H1083 1.016 1_545 S
C1084 N1091 1.286 . S
C1085 H1080 0.930 . S
C1085 C1086 1.397 . S
C1085 C1087 1.361 . S
C1086 C1085 1.397 . S
C1086 C1090 1.390 1_545 S
C1087 C1085 1.361 . S
C1087 C1088 1.393 1_545 S
C1087 N1091 1.413 . S
C1088 H1081 0.930 . S
C1088 C1087 1.393 1_565 S
C1088 C1089 1.399 . S
C1089 C1088 1.399 . S
C1089 C1090 1.381 . S
C1090 H1082 0.930 . S
C1090 C1086 1.390 1_565 S
C1090 C1089 1.381 . S
N1091 C1084 1.286 . S
N1091 C1087 1.413 . S
H1092 C1097 0.930 . S
H1093 C1100 0.930 . S
H1094 C1102 0.930 . S
H1095 C1096 1.016 . S
C1096 H1095 1.016 . S
C1096 N1103 1.286 . S
C1097 H1092 0.930 . S
C1097 C1098 1.397 . S
C1097 C1099 1.361 1_655 S
C1098 C1097 1.397 . S
C1098 C1102 1.390 . S
C1099 C1097 1.361 1_455 S
C1099 C1100 1.393 . S
C1099 N1103 1.413 . S
C1100 H1093 0.930 . S
C1100 C1099 1.393 . S
C1100 C1101 1.399 1_455 S
C1101 C1100 1.399 1_655 S
C1101 C1102 1.381 . S
C1102 H1094 0.930 . S
C1102 C1098 1.390 . S
C1102 C1101 1.381 . S
N1103 C1096 1.286 . S
N1103 C1099 1.413 . S
H1104 C1109 0.930 . S
H1105 C1112 0.930 . S
H1106 C1114 0.930 . S
H1107 C1108 1.016 . S
C1108 H1107 1.016 . S
C1108 N1115 1.286 . S
C1109 H1104 0.930 . S
C1109 C1110 1.397 . S
C1109 C1111 1.361 . S
C1110 C1109 1.397 . S
C1110 C1114 1.390 . S
C1111 C1109 1.361 . S
C1111 C1112 1.393 . S
C1111 N1115 1.413 . S
C1112 H1105 0.930 . S
C1112 C1111 1.393 . S
C1112 C1113 1.399 . S
C1113 C1112 1.399 . S
C1113 C1114 1.381 . S
C1114 H1106 0.930 . S
C1114 C1110 1.390 . S
C1114 C1113 1.381 . S
N1115 C1108 1.286 . S
N1115 C1111 1.413 . S
H1116 C1121 0.930 . S
H1117 C1124 0.930 . S
H1118 C1126 0.930 . S
H1119 C1120 1.016 1_554 S
C1120 H1119 1.016 1_556 S
C1120 N1127 1.286 . S
C1121 H1116 0.930 . S
C1121 C1122 1.397 . S
C1121 C1123 1.361 . S
C1122 C1121 1.397 . S
C1122 C1126 1.390 1_556 S
C1123 C1121 1.361 . S
C1123 C1124 1.393 1_556 S
C1123 N1127 1.413 . S
C1124 H1117 0.930 . S
C1124 C1123 1.393 1_554 S
C1124 C1125 1.399 . S
C1125 C1124 1.399 . S
C1125 C1126 1.381 . S
C1126 H1118 0.930 . S
C1126 C1122 1.390 1_554 S
C1126 C1125 1.381 . S
N1127 C1120 1.286 . S
N1127 C1123 1.413 . S
H1128 C1133 0.930 . S
H1129 C1136 0.930 . S
H1130 C1138 0.930 . S
H1131 C1132 1.016 . S
C1132 H1131 1.016 . S
C1132 N1139 1.286 . S
C1133 H1128 0.930 . S
C1133 C1134 1.397 . S
C1133 C1135 1.361 1_545 S
C1134 C1133 1.397 . S
C1134 C1138 1.390 . S
C1135 C1133 1.361 1_565 S
C1135 C1136 1.393 . S
C1135 N1139 1.413 . S
C1136 H1129 0.930 . S
C1136 C1135 1.393 . S
C1136 C1137 1.399 1_565 S
C1137 C1136 1.399 1_545 S
C1137 C1138 1.381 . S
C1138 H1130 0.930 . S
C1138 C1134 1.390 . S
C1138 C1137 1.381 . S
N1139 C1132 1.286 . S
N1139 C1135 1.413 . S
H1140 C1145 0.930 . S
H1141 C1148 0.930 . S
H1142 C1150 0.930 . S
H1143 C1144 1.016 1_556 S
C1144 H1143 1.016 1_554 S
C1144 N1151 1.286 . S
C1145 H1140 0.930 . S
C1145 C1146 1.397 . S
C1145 C1147 1.361 . S
C1146 C1145 1.397 . S
C1146 C1150 1.390 1_554 S
C1147 C1145 1.361 . S
C1147 C1148 1.393 1_554 S
C1147 N1151 1.413 . S
C1148 H1141 0.930 . S
C1148 C1147 1.393 1_556 S
C1148 C1149 1.399 . S
C1149 C1148 1.399 . S
C1149 C1150 1.381 . S
C1150 H1142 0.930 . S
C1150 C1146 1.390 1_556 S
C1150 C1149 1.381 . S
N1151 C1144 1.286 . S
N1151 C1147 1.413 . S
H1152 C1157 0.930 . S
H1153 C1160 0.930 . S
H1154 C1162 0.930 . S
H1155 C1156 1.016 . S
C1156 H1155 1.016 . S
C1156 N1163 1.286 . S
C1157 H1152 0.930 . S
C1157 C1158 1.397 . S
C1157 C1159 1.361 . S
C1158 C1157 1.397 . S
C1158 C1162 1.390 . S
C1159 C1157 1.361 . S
C1159 C1160 1.393 . S
C1159 N1163 1.413 . S
C1160 H1153 0.930 . S
C1160 C1159 1.393 . S
C1160 C1161 1.399 . S
C1161 C1160 1.399 . S
C1161 C1162 1.381 . S
C1162 H1154 0.930 . S
C1162 C1158 1.390 . S
C1162 C1161 1.381 . S
N1163 C1156 1.286 . S
N1163 C1159 1.413 . S
H1164 C1169 0.930 . S
H1165 C1172 0.930 . S
H1166 C1174 0.930 . S
H1167 C1168 1.016 1_655 S
C1168 H1167 1.016 1_455 S
C1168 N1175 1.286 . S
C1169 H1164 0.930 . S
C1169 C1170 1.397 . S
C1169 C1171 1.361 . S
C1170 C1169 1.397 . S
C1170 C1174 1.390 1_455 S
C1171 C1169 1.361 . S
C1171 C1172 1.393 1_455 S
C1171 N1175 1.413 . S
C1172 H1165 0.930 . S
C1172 C1171 1.393 1_655 S
C1172 C1173 1.399 . S
C1173 C1172 1.399 . S
C1173 C1174 1.381 . S
C1174 H1166 0.930 . S
C1174 C1170 1.390 1_655 S
C1174 C1173 1.381 . S
N1175 C1168 1.286 . S
N1175 C1171 1.413 . S
H1176 C1181 0.930 . S
H1177 C1184 0.930 . S
H1178 C1186 0.930 . S
H1179 C1180 1.016 1_455 S
C1180 H1179 1.016 1_655 S
C1180 N1187 1.286 . S
C1181 H1176 0.930 . S
C1181 C1182 1.397 . S
C1181 C1183 1.361 . S
C1182 C1181 1.397 . S
C1182 C1186 1.390 1_655 S
C1183 C1181 1.361 . S
C1183 C1184 1.393 1_655 S
C1183 N1187 1.413 . S
C1184 H1177 0.930 . S
C1184 C1183 1.393 1_455 S
C1184 C1185 1.399 . S
C1185 C1184 1.399 . S
C1185 C1186 1.381 . S
C1186 H1178 0.930 . S
C1186 C1182 1.390 1_455 S
C1186 C1185 1.381 . S
N1187 C1180 1.286 . S
N1187 C1183 1.413 . S
H1188 C1193 0.930 . S
H1189 C1196 0.930 . S
H1190 C1198 0.930 . S
H1191 C1192 1.016 . S
C1192 H1191 1.016 . S
C1192 N1199 1.286 . S
C1193 H1188 0.930 . S
C1193 C1194 1.397 . S
C1193 C1195 1.361 1_554 S
C1194 C1193 1.397 . S
C1194 C1198 1.390 . S
C1195 C1193 1.361 1_556 S
C1195 C1196 1.393 . S
C1195 N1199 1.413 . S
C1196 H1189 0.930 . S
C1196 C1195 1.393 . S
C1196 C1197 1.399 1_556 S
C1197 C1196 1.399 1_554 S
C1197 C1198 1.381 . S
C1198 H1190 0.930 . S
C1198 C1194 1.390 . S
C1198 C1197 1.381 . S
N1199 C1192 1.286 . S
N1199 C1195 1.413 . S
H1200 C1205 0.930 . S
H1201 C1208 0.930 . S
H1202 C1210 0.930 . S
H1203 C1204 1.016 . S
C1204 H1203 1.016 . S
C1204 N1211 1.286 . S
C1205 H1200 0.930 . S
C1205 C1206 1.397 . S
C1205 C1207 1.361 . S
C1206 C1205 1.397 . S
C1206 C1210 1.390 . S
C1207 C1205 1.361 . S
C1207 C1208 1.393 . S
C1207 N1211 1.413 . S
C1208 H1201 0.930 . S
C1208 C1207 1.393 . S
C1208 C1209 1.399 . S
C1209 C1208 1.399 . S
C1209 C1210 1.381 . S
C1210 H1202 0.930 . S
C1210 C1206 1.390 . S
C1210 C1209 1.381 . S
N1211 C1204 1.286 . S
N1211 C1207 1.413 . S
H1212 C1217 0.930 . S
H1213 C1220 0.930 . S
H1214 C1222 0.930 . S
H1215 C1216 1.016 1_565 S
C1216 H1215 1.016 1_545 S
C1216 N1223 1.286 . S
C1217 H1212 0.930 . S
C1217 C1218 1.397 . S
C1217 C1219 1.361 . S
C1218 C1217 1.397 . S
C1218 C1222 1.390 1_545 S
C1219 C1217 1.361 . S
C1219 C1220 1.393 1_545 S
C1219 N1223 1.413 . S
C1220 H1213 0.930 . S
C1220 C1219 1.393 1_565 S
C1220 C1221 1.399 . S
C1221 C1220 1.399 . S
C1221 C1222 1.381 . S
C1222 H1214 0.930 . S
C1222 C1218 1.390 1_565 S
C1222 C1221 1.381 . S
N1223 C1216 1.286 . S
N1223 C1219 1.413 . S
H1224 C1229 0.930 . S
H1225 C1232 0.930 . S
H1226 C1234 0.930 . S
H1227 C1228 1.016 1_545 S
C1228 H1227 1.016 1_565 S
C1228 N1235 1.286 . S
C1229 H1224 0.930 . S
C1229 C1230 1.397 . S
C1229 C1231 1.361 . S
C1230 C1229 1.397 . S
C1230 C1234 1.390 1_565 S
C1231 C1229 1.361 . S
C1231 C1232 1.393 1_565 S
C1231 N1235 1.413 . S
C1232 H1225 0.930 . S
C1232 C1231 1.393 1_545 S
C1232 C1233 1.399 . S
C1233 C1232 1.399 . S
C1233 C1234 1.381 . S
C1234 H1226 0.930 . S
C1234 C1230 1.390 1_545 S
C1234 C1233 1.381 . S
N1235 C1228 1.286 . S
N1235 C1231 1.413 . S
H1236 C1241 0.930 . S
H1237 C1244 0.930 . S
H1238 C1246 0.930 . S
H1239 C1240 1.016 . S
C1240 H1239 1.016 . S
C1240 N1247 1.286 . S
C1241 H1236 0.930 . S
C1241 C1242 1.397 . S
C1241 C1243 1.361 1_455 S
C1242 C1241 1.397 . S
C1242 C1246 1.390 . S
C1243 C1241 1.361 1_655 S
C1243 C1244 1.393 . S
C1243 N1247 1.413 . S
C1244 H1237 0.930 . S
C1244 C1243 1.393 . S
C1244 C1245 1.399 1_655 S
C1245 C1244 1.399 1_455 S
C1245 C1246 1.381 . S
C1246 H1238 0.930 . S
C1246 C1242 1.390 . S
C1246 C1245 1.381 . S
N1247 C1240 1.286 . S
N1247 C1243 1.413 . S
H1248 C1256 0.929 . S
H1249 C1258 0.930 . S
H1250 C1260 0.930 . S
H1251 C1263 0.929 . S
H1252 C1266 0.930 . S
H1253 C1268 0.960 . S
H1254 C1268 0.960 . S
H1255 C1268 0.960 . S
C1256 H1248 0.929 . S
C1256 C1257 1.377 . S
C1256 C1258 1.384 . S
C1257 C1256 1.377 . S
C1257 C1263 1.390 . S
C1258 H1249 0.930 . S
C1258 C1256 1.384 . S
C1258 C1259 1.372 . S
C1259 C1258 1.372 . S
C1259 C1260 1.400 . S
C1259 C1264 1.490 . S
C1260 H1250 0.930 . S
C1260 C1259 1.400 . S
C1260 C1263 1.386 . S
H1261 C1277 0.930 . S
H1262 C1278 0.931 . S
C1263 H1251 0.929 . S
C1263 C1257 1.390 . S
C1263 C1260 1.386 . S
C1264 C1259 1.490 . S
C1264 C1266 1.395 . S
C1264 C1267 1.403 . S
H1265 C1271 0.930 . S
C1266 H1252 0.930 . S
C1266 C1264 1.395 . S
C1266 C1269 1.403 . S
C1267 C1264 1.403 . S
C1267 C1268 1.524 . S
C1267 C1271 1.400 . S
C1268 H1253 0.960 . S
C1268 H1254 0.960 . S
C1268 H1255 0.960 . S
C1268 C1267 1.524 . S
C1269 C1266 1.403 . S
C1269 C1270 1.392 . S
C1269 C1273 1.495 . S
C1270 C1269 1.392 . S
C1270 C1271 1.385 . S
C1270 C1272 1.478 . S
C1271 H1265 0.930 . S
C1271 C1267 1.400 . S
C1271 C1270 1.385 . S
C1272 C1270 1.478 . S
C1272 C1274 1.381 . S
C1272 C1278 1.383 . S
C1273 C1269 1.495 . S
C1273 H1279 0.959 . S
C1273 H1280 0.961 . S
C1273 H1281 0.960 . S
C1274 C1272 1.381 . S
C1274 C1275 1.394 . S
C1274 H1282 0.930 . S
C1275 C1274 1.394 . S
C1275 C1276 1.383 . S
C1275 H1283 0.929 . S
C1276 C1275 1.383 . S
C1276 C1277 1.377 . S
C1277 H1261 0.930 . S
C1277 C1276 1.377 . S
C1277 C1278 1.379 . S
C1278 H1262 0.931 . S
C1278 C1272 1.383 . S
C1278 C1277 1.379 . S
H1279 C1273 0.959 . S
H1280 C1273 0.961 . S
H1281 C1273 0.960 . S
H1282 C1274 0.930 . S
H1283 C1275 0.929 . S
H1284 C1292 0.929 . S
H1285 C1294 0.930 . S
H1286 C1296 0.930 . S
H1287 C1299 0.929 . S
H1288 C1302 0.930 . S
H1289 C1304 0.960 . S
H1290 C1304 0.960 . S
H1291 C1304 0.960 . S
C1292 H1284 0.929 . S
C1292 C1293 1.377 . S
C1292 C1294 1.384 . S
C1293 C1292 1.377 . S
C1293 C1299 1.390 . S
C1294 H1285 0.930 . S
C1294 C1292 1.384 . S
C1294 C1295 1.372 . S
C1295 C1294 1.372 . S
C1295 C1296 1.400 . S
C1295 C1300 1.490 . S
C1296 H1286 0.930 . S
C1296 C1295 1.400 . S
C1296 C1299 1.386 . S
H1297 C1313 0.930 . S
H1298 C1314 0.931 . S
C1299 H1287 0.929 . S
C1299 C1293 1.390 . S
C1299 C1296 1.386 . S
C1300 C1295 1.490 . S
C1300 C1302 1.395 . S
C1300 C1303 1.403 . S
H1301 C1307 0.930 . S
C1302 H1288 0.930 . S
C1302 C1300 1.395 . S
C1302 C1305 1.403 . S
C1303 C1300 1.403 . S
C1303 C1304 1.524 . S
C1303 C1307 1.400 . S
C1304 H1289 0.960 . S
C1304 H1290 0.960 . S
C1304 H1291 0.960 . S
C1304 C1303 1.524 . S
C1305 C1302 1.403 . S
C1305 C1306 1.392 . S
C1305 C1309 1.495 . S
C1306 C1305 1.392 . S
C1306 C1307 1.385 . S
C1306 C1308 1.478 . S
C1307 H1301 0.930 . S
C1307 C1303 1.400 . S
C1307 C1306 1.385 . S
C1308 C1306 1.478 . S
C1308 C1310 1.381 . S
C1308 C1314 1.383 . S
C1309 C1305 1.495 . S
C1309 H1315 0.959 . S
C1309 H1316 0.961 . S
C1309 H1317 0.960 . S
C1310 C1308 1.381 . S
C1310 C1311 1.394 . S
C1310 H1318 0.930 . S
C1311 C1310 1.394 . S
C1311 C1312 1.383 . S
C1311 H1319 0.929 . S
C1312 C1311 1.383 . S
C1312 C1313 1.377 . S
C1313 H1297 0.930 . S
C1313 C1312 1.377 . S
C1313 C1314 1.379 . S
C1314 H1298 0.931 . S
C1314 C1308 1.383 . S
C1314 C1313 1.379 . S
H1315 C1309 0.959 . S
H1316 C1309 0.961 . S
H1317 C1309 0.960 . S
H1318 C1310 0.930 . S
H1319 C1311 0.929 . S
H1320 C1328 0.929 . S
H1321 C1330 0.930 . S
H1322 C1332 0.930 . S
H1323 C1335 0.929 . S
H1324 C1338 0.930 . S
H1325 C1340 0.960 . S
H1326 C1340 0.960 . S
H1327 C1340 0.960 1_545 S
C1328 H1320 0.929 . S
C1328 C1329 1.379 1_565 S
C1328 C1330 1.384 . S
C1329 C1328 1.379 1_545 S
C1329 C1335 1.388 . S
C1330 H1321 0.930 . S
C1330 C1328 1.384 . S
C1330 C1331 1.372 . S
C1331 C1330 1.372 . S
C1331 C1332 1.400 1_565 S
C1331 C1336 1.490 . S
C1332 H1322 0.930 . S
C1332 C1331 1.400 1_545 S
C1332 C1335 1.386 . S
H1333 C1349 0.972 . S
H1334 C1350 0.931 . S
C1335 H1323 0.929 . S
C1335 C1329 1.388 . S
C1335 C1332 1.386 . S
C1336 C1331 1.490 . S
C1336 C1338 1.395 . S
C1336 C1339 1.403 . S
H1337 C1343 0.930 . S
C1338 H1324 0.930 . S
C1338 C1336 1.395 . S
C1338 C1341 1.403 . S
C1339 C1336 1.403 . S
C1339 C1340 1.524 . S
C1339 C1343 1.400 . S
C1340 H1325 0.960 . S
C1340 H1326 0.960 . S
C1340 H1327 0.960 1_565 S
C1340 C1339 1.524 . S
C1341 C1338 1.403 . S
C1341 C1342 1.392 . S
C1341 C1345 1.495 . S
C1342 C1341 1.392 . S
C1342 C1343 1.385 . S
C1342 C1344 1.478 . S
C1343 H1337 0.930 . S
C1343 C1339 1.400 . S
C1343 C1342 1.385 . S
C1344 C1342 1.478 . S
C1344 C1346 1.381 . S
C1344 C1350 1.383 1_565 S
C1345 C1341 1.495 . S
C1345 H1351 0.959 . S
C1345 H1352 0.942 1_565 S
C1345 H1353 0.960 . S
C1346 C1344 1.381 . S
C1346 C1347 1.394 . S
C1346 H1354 0.930 . S
C1347 C1346 1.394 . S
C1347 C1348 1.383 . S
C1347 H1355 0.929 . S
C1348 C1347 1.383 . S
C1348 C1349 1.334 1_565 S
C1349 H1333 0.972 . S
C1349 C1348 1.334 1_545 S
C1349 C1350 1.382 . S
C1350 H1334 0.931 . S
C1350 C1344 1.383 1_545 S
C1350 C1349 1.382 . S
H1351 C1345 0.959 . S
H1352 C1345 0.942 1_545 S
H1353 C1345 0.960 . S
H1354 C1346 0.930 . S
H1355 C1347 0.929 . S
H1356 C1364 0.929 . S
H1357 C1366 0.930 . S
H1358 C1368 0.930 . S
H1359 C1371 0.929 . S
H1360 C1374 0.930 1_565 S
H1361 C1376 0.960 . S
H1362 C1376 0.960 . S
H1363 C1376 0.960 . S
C1364 H1356 0.929 . S
C1364 C1365 1.377 1_565 S
C1364 C1366 1.384 . S
C1365 C1364 1.377 1_545 S
C1365 C1371 1.390 . S
C1366 H1357 0.930 . S
C1366 C1364 1.384 . S
C1366 C1367 1.372 1_565 S
C1367 C1366 1.372 1_545 S
C1367 C1368 1.400 . S
C1367 C1372 1.490 . S
C1368 H1358 0.930 . S
C1368 C1367 1.400 . S
C1368 C1371 1.386 . S
H1369 C1385 0.930 . S
H1370 C1386 0.931 . S
C1371 H1359 0.929 . S
C1371 C1365 1.390 . S
C1371 C1368 1.386 . S
C1372 C1367 1.490 . S
C1372 C1374 1.395 . S
C1372 C1375 1.403 . S
H1373 C1379 0.930 . S
C1374 H1360 0.930 1_545 S
C1374 C1372 1.395 . S
C1374 C1377 1.413 . S
C1375 C1372 1.403 . S
C1375 C1376 1.524 . S
C1375 C1379 1.400 . S
C1376 H1361 0.960 . S
C1376 H1362 0.960 . S
C1376 H1363 0.960 . S
C1376 C1375 1.524 . S
C1377 C1374 1.413 . S
C1377 C1378 1.415 . S
C1377 C1381 1.468 1_545 S
C1378 C1377 1.415 . S
C1378 C1379 1.385 . S
C1378 C1380 1.478 1_655 S
C1379 H1373 0.930 . S
C1379 C1375 1.400 . S
C1379 C1378 1.385 . S
C1380 C1378 1.478 1_455 S
C1380 C1382 1.381 1_545 S
C1380 C1386 1.383 . S
C1381 C1377 1.468 1_565 S
C1381 H1387 0.959 . S
C1381 H1388 0.995 . S
C1381 H1389 0.960 . S
C1382 C1380 1.381 1_565 S
C1382 C1383 1.394 . S
C1382 H1390 0.930 . S
C1383 C1382 1.394 . S
C1383 C1384 1.383 1_565 S
C1383 H1391 0.929 . S
C1384 C1383 1.383 1_545 S
C1384 C1385 1.377 . S
C1385 H1369 0.930 . S
C1385 C1384 1.377 . S
C1385 C1386 1.379 . S
C1386 H1370 0.931 . S
C1386 C1380 1.383 . S
C1386 C1385 1.379 . S
H1387 C1381 0.959 . S
H1388 C1381 0.995 . S
H1389 C1381 0.960 . S
H1390 C1382 0.930 . S
H1391 C1383 0.929 . S
H1392 C1400 0.929 . S
H1393 C1402 0.930 . S
H1394 C1404 0.930 . S
H1395 C1407 0.929 . S
H1396 C1410 0.930 . S
H1397 C1412 0.960 . S
H1398 C1412 0.960 . S
H1399 C1412 0.960 . S
C1400 H1392 0.929 . S
C1400 C1401 1.377 . S
C1400 C1402 1.384 . S
C1401 C1400 1.377 . S
C1401 C1407 1.390 . S
C1402 H1393 0.930 . S
C1402 C1400 1.384 . S
C1402 C1403 1.372 . S
C1403 C1402 1.372 . S
C1403 C1404 1.400 . S
C1403 C1408 1.490 . S
C1404 H1394 0.930 . S
C1404 C1403 1.400 . S
C1404 C1407 1.386 . S
H1405 C1421 0.930 . S
H1406 C1422 0.931 . S
C1407 H1395 0.929 . S
C1407 C1401 1.390 . S
C1407 C1404 1.386 . S
C1408 C1403 1.490 . S
C1408 C1410 1.395 . S
C1408 C1411 1.403 . S
H1409 C1415 0.930 . S
C1410 H1396 0.930 . S
C1410 C1408 1.395 . S
C1410 C1413 1.403 . S
C1411 C1408 1.403 . S
C1411 C1412 1.524 . S
C1411 C1415 1.400 . S
C1412 H1397 0.960 . S
C1412 H1398 0.960 . S
C1412 H1399 0.960 . S
C1412 C1411 1.524 . S
C1413 C1410 1.403 . S
C1413 C1414 1.392 . S
C1413 C1417 1.495 . S
C1414 C1413 1.392 . S
C1414 C1415 1.385 . S
C1414 C1416 1.478 . S
C1415 H1409 0.930 . S
C1415 C1411 1.400 . S
C1415 C1414 1.385 . S
C1416 C1414 1.478 . S
C1416 C1418 1.381 . S
C1416 C1422 1.383 . S
C1417 C1413 1.495 . S
C1417 H1423 0.959 . S
C1417 H1424 0.961 . S
C1417 H1425 0.960 . S
C1418 C1416 1.381 . S
C1418 C1419 1.394 . S
C1418 H1426 0.930 . S
C1419 C1418 1.394 . S
C1419 C1420 1.383 . S
C1419 H1427 0.929 . S
C1420 C1419 1.383 . S
C1420 C1421 1.377 . S
C1421 H1405 0.930 . S
C1421 C1420 1.377 . S
C1421 C1422 1.379 . S
C1422 H1406 0.931 . S
C1422 C1416 1.383 . S
C1422 C1421 1.379 . S
H1423 C1417 0.959 . S
H1424 C1417 0.961 . S
H1425 C1417 0.960 . S
H1426 C1418 0.930 . S
H1427 C1419 0.929 . S
H1428 C1436 0.929 . S
H1429 C1438 0.930 . S
H1430 C1440 0.877 1_556 S
H1431 C1443 0.891 1_556 S
H1432 C1446 0.930 . S
H1433 C1448 0.960 . S
H1434 C1448 0.960 . S
H1435 C1448 0.960 . S
C1436 H1428 0.929 . S
C1436 C1437 1.377 . S
C1436 C1438 1.384 . S
C1437 C1436 1.377 . S
C1437 C1443 1.435 . S
C1438 H1429 0.930 . S
C1438 C1436 1.384 . S
C1438 C1439 1.372 . S
C1439 C1438 1.372 . S
C1439 C1440 1.448 . S
C1439 C1444 1.490 . S
C1440 H1430 0.877 1_554 S
C1440 C1439 1.448 . S
C1440 C1443 1.387 . S
H1441 C1457 0.930 1_556 S
H1442 C1458 0.931 1_556 S
C1443 H1431 0.891 1_554 S
C1443 C1437 1.435 . S
C1443 C1440 1.387 . S
C1444 C1439 1.490 . S
C1444 C1446 1.395 . S
C1444 C1447 1.403 1_554 S
H1445 C1451 0.933 1_556 S
C1446 H1432 0.930 . S
C1446 C1444 1.395 . S
C1446 C1449 1.403 . S
C1447 C1444 1.403 1_556 S
C1447 C1448 1.524 . S
C1447 C1451 1.400 1_556 S
C1448 H1433 0.960 . S
C1448 H1434 0.960 . S
C1448 H1435 0.960 . S
C1448 C1447 1.524 . S
C1449 C1446 1.403 . S
C1449 C1450 1.392 . S
C1449 C1453 1.495 . S
C1450 C1449 1.392 . S
C1450 C1451 1.383 . S
C1450 C1452 1.478 1_565 S
C1451 H1445 0.933 1_554 S
C1451 C1447 1.400 1_554 S
C1451 C1450 1.383 . S
C1452 C1450 1.478 1_545 S
C1452 C1454 1.381 . S
C1452 C1458 1.383 . S
C1453 C1449 1.495 . S
C1453 H1459 0.959 . S
C1453 H1460 0.961 1_565 S
C1453 H1461 0.960 1_565 S
C1454 C1452 1.381 . S
C1454 C1455 1.394 . S
C1454 H1462 0.930 . S
C1455 C1454 1.394 . S
C1455 C1456 1.383 . S
C1455 H1463 0.929 . S
C1456 C1455 1.383 . S
C1456 C1457 1.377 . S
C1457 H1441 0.930 1_554 S
C1457 C1456 1.377 . S
C1457 C1458 1.379 . S
C1458 H1442 0.931 1_554 S
C1458 C1452 1.383 . S
C1458 C1457 1.379 . S
H1459 C1453 0.959 . S
H1460 C1453 0.961 1_545 S
H1461 C1453 0.960 1_545 S
H1462 C1454 0.930 . S
H1463 C1455 0.929 . S
H1464 C1472 0.929 . S
H1465 C1474 0.930 . S
H1466 C1476 0.930 . S
H1467 C1479 0.929 . S
H1468 C1482 0.930 . S
H1469 C1484 0.960 . S
H1470 C1484 0.960 . S
H1471 C1484 0.960 . S
C1472 H1464 0.929 . S
C1472 C1473 1.377 . S
C1472 C1474 1.384 . S
C1473 C1472 1.377 . S
C1473 C1479 1.390 . S
C1474 H1465 0.930 . S
C1474 C1472 1.384 . S
C1474 C1475 1.372 . S
C1475 C1474 1.372 . S
C1475 C1476 1.400 . S
C1475 C1480 1.490 . S
C1476 H1466 0.930 . S
C1476 C1475 1.400 . S
C1476 C1479 1.386 . S
H1477 C1493 0.930 . S
H1478 C1494 0.931 . S
C1479 H1467 0.929 . S
C1479 C1473 1.390 . S
C1479 C1476 1.386 . S
C1480 C1475 1.490 . S
C1480 C1482 1.395 . S
C1480 C1483 1.403 . S
H1481 C1487 0.930 . S
C1482 H1468 0.930 . S
C1482 C1480 1.395 . S
C1482 C1485 1.403 . S
C1483 C1480 1.403 . S
C1483 C1484 1.524 . S
C1483 C1487 1.400 . S
C1484 H1469 0.960 . S
C1484 H1470 0.960 . S
C1484 H1471 0.960 . S
C1484 C1483 1.524 . S
C1485 C1482 1.403 . S
C1485 C1486 1.392 . S
C1485 C1489 1.495 . S
C1486 C1485 1.392 . S
C1486 C1487 1.385 . S
C1486 C1488 1.478 . S
C1487 H1481 0.930 . S
C1487 C1483 1.400 . S
C1487 C1486 1.385 . S
C1488 C1486 1.478 . S
C1488 C1490 1.381 . S
C1488 C1494 1.383 . S
C1489 C1485 1.495 . S
C1489 H1495 0.959 . S
C1489 H1496 0.961 . S
C1489 H1497 0.960 . S
C1490 C1488 1.381 . S
C1490 C1491 1.394 . S
C1490 H1498 0.930 . S
C1491 C1490 1.394 . S
C1491 C1492 1.383 . S
C1491 H1499 0.929 . S
C1492 C1491 1.383 . S
C1492 C1493 1.377 . S
C1493 H1477 0.930 . S
C1493 C1492 1.377 . S
C1493 C1494 1.379 . S
C1494 H1478 0.931 . S
C1494 C1488 1.383 . S
C1494 C1493 1.379 . S
H1495 C1489 0.959 . S
H1496 C1489 0.961 . S
H1497 C1489 0.960 . S
H1498 C1490 0.930 . S
H1499 C1491 0.929 . S
H1500 C1508 0.929 . S
H1501 C1510 0.930 . S
H1502 C1512 0.930 . S
H1503 C1515 0.929 . S
H1504 C1518 0.930 . S
H1505 C1520 0.960 . S
H1506 C1520 0.960 . S
H1507 C1520 0.960 1_554 S
C1508 H1500 0.929 . S
C1508 C1509 1.379 1_556 S
C1508 C1510 1.384 . S
C1509 C1508 1.379 1_554 S
C1509 C1515 1.388 . S
C1510 H1501 0.930 . S
C1510 C1508 1.384 . S
C1510 C1511 1.372 . S
C1511 C1510 1.372 . S
C1511 C1512 1.400 1_556 S
C1511 C1516 1.490 . S
C1512 H1502 0.930 . S
C1512 C1511 1.400 1_554 S
C1512 C1515 1.386 . S
H1513 C1529 0.974 . S
H1514 C1530 0.931 . S
C1515 H1503 0.929 . S
C1515 C1509 1.388 . S
C1515 C1512 1.386 . S
C1516 C1511 1.490 . S
C1516 C1518 1.395 . S
C1516 C1519 1.403 . S
H1517 C1523 0.930 . S
C1518 H1504 0.930 . S
C1518 C1516 1.395 . S
C1518 C1521 1.403 . S
C1519 C1516 1.403 . S
C1519 C1520 1.524 . S
C1519 C1523 1.400 . S
C1520 H1505 0.960 . S
C1520 H1506 0.960 . S
C1520 H1507 0.960 1_556 S
C1520 C1519 1.524 . S
C1521 C1518 1.403 . S
C1521 C1522 1.392 . S
C1521 C1525 1.495 . S
C1522 C1521 1.392 . S
C1522 C1523 1.385 . S
C1522 C1524 1.478 . S
C1523 H1517 0.930 . S
C1523 C1519 1.400 . S
C1523 C1522 1.385 . S
C1524 C1522 1.478 . S
C1524 C1526 1.381 . S
C1524 C1530 1.383 1_556 S
C1525 C1521 1.495 . S
C1525 H1531 0.959 . S
C1525 H1532 0.962 1_556 S
C1525 H1533 0.960 . S
C1526 C1524 1.381 . S
C1526 C1527 1.394 . S
C1526 H1534 0.930 . S
C1527 C1526 1.394 . S
C1527 C1528 1.383 . S
C1527 H1535 0.929 . S
C1528 C1527 1.383 . S
C1528 C1529 1.332 1_556 S
C1529 H1513 0.974 . S
C1529 C1528 1.332 1_554 S
C1529 C1530 1.382 . S
C1530 H1514 0.931 . S
C1530 C1524 1.383 1_554 S
C1530 C1529 1.382 . S
H1531 C1525 0.959 . S
H1532 C1525 0.962 1_554 S
H1533 C1525 0.960 . S
H1534 C1526 0.930 . S
H1535 C1527 0.929 . S
H1536 C1544 0.929 . S
H1537 C1546 0.930 . S
H1538 C1548 0.930 . S
H1539 C1551 0.929 . S
H1540 C1554 0.930 . S
H1541 C1556 0.960 . S
H1542 C1556 0.960 . S
H1543 C1556 0.960 . S
C1544 H1536 0.929 . S
C1544 C1545 1.377 . S
C1544 C1546 1.384 . S
C1545 C1544 1.377 . S
C1545 C1551 1.390 . S
C1546 H1537 0.930 . S
C1546 C1544 1.384 . S
C1546 C1547 1.372 . S
C1547 C1546 1.372 . S
C1547 C1548 1.400 . S
C1547 C1552 1.490 . S
C1548 H1538 0.930 . S
C1548 C1547 1.400 . S
C1548 C1551 1.386 . S
H1549 C1565 0.930 . S
H1550 C1566 0.931 . S
C1551 H1539 0.929 . S
C1551 C1545 1.390 . S
C1551 C1548 1.386 . S
C1552 C1547 1.490 . S
C1552 C1554 1.395 . S
C1552 C1555 1.403 . S
H1553 C1559 0.930 . S
C1554 H1540 0.930 . S
C1554 C1552 1.395 . S
C1554 C1557 1.403 . S
C1555 C1552 1.403 . S
C1555 C1556 1.524 . S
C1555 C1559 1.400 . S
C1556 H1541 0.960 . S
C1556 H1542 0.960 . S
C1556 H1543 0.960 . S
C1556 C1555 1.524 . S
C1557 C1554 1.403 . S
C1557 C1558 1.392 . S
C1557 C1561 1.495 . S
C1558 C1557 1.392 . S
C1558 C1559 1.385 . S
C1558 C1560 1.478 . S
C1559 H1553 0.930 . S
C1559 C1555 1.400 . S
C1559 C1558 1.385 . S
C1560 C1558 1.478 . S
C1560 C1562 1.381 . S
C1560 C1566 1.383 . S
C1561 C1557 1.495 . S
C1561 H1567 0.959 . S
C1561 H1568 0.961 . S
C1561 H1569 0.960 . S
C1562 C1560 1.381 . S
C1562 C1563 1.394 . S
C1562 H1570 0.930 . S
C1563 C1562 1.394 . S
C1563 C1564 1.383 . S
C1563 H1571 0.929 . S
C1564 C1563 1.383 . S
C1564 C1565 1.377 . S
C1565 H1549 0.930 . S
C1565 C1564 1.377 . S
C1565 C1566 1.379 . S
C1566 H1550 0.931 . S
C1566 C1560 1.383 . S
C1566 C1565 1.379 . S
H1567 C1561 0.959 . S
H1568 C1561 0.961 . S
H1569 C1561 0.960 . S
H1570 C1562 0.930 . S
H1571 C1563 0.929 . S
H1572 C1580 0.929 . S
H1573 C1582 0.930 . S
H1574 C1584 0.930 . S
H1575 C1587 0.929 . S
H1576 C1590 0.930 . S
H1577 C1592 0.959 1_655 S
H1578 C1592 0.964 . S
H1579 C1592 0.957 1_655 S
C1580 H1572 0.929 . S
C1580 C1581 1.377 . S
C1580 C1582 1.384 . S
C1581 C1580 1.377 . S
C1581 C1587 1.390 1_455 S
C1582 H1573 0.930 . S
C1582 C1580 1.384 . S
C1582 C1583 1.372 . S
C1583 C1582 1.372 . S
C1583 C1584 1.400 1_455 S
C1583 C1588 1.490 . S
C1584 H1574 0.930 . S
C1584 C1583 1.400 1_655 S
C1584 C1587 1.386 . S
H1585 C1601 0.930 . S
H1586 C1602 0.931 . S
C1587 H1575 0.929 . S
C1587 C1581 1.390 1_655 S
C1587 C1584 1.386 . S
C1588 C1583 1.490 . S
C1588 C1590 1.395 . S
C1588 C1591 1.403 . S
H1589 C1595 0.930 . S
C1590 H1576 0.930 . S
C1590 C1588 1.395 . S
C1590 C1593 1.403 . S
C1591 C1588 1.403 . S
C1591 C1592 1.525 . S
C1591 C1595 1.400 . S
C1592 H1577 0.959 1_455 S
C1592 H1578 0.964 . S
C1592 H1579 0.957 1_455 S
C1592 C1591 1.525 . S
C1593 C1590 1.403 . S
C1593 C1594 1.392 . S
C1593 C1597 1.495 . S
C1594 C1593 1.392 . S
C1594 C1595 1.385 . S
C1594 C1596 1.478 1_556 S
C1595 H1589 0.930 . S
C1595 C1591 1.400 . S
C1595 C1594 1.385 . S
C1596 C1594 1.478 1_554 S
C1596 C1598 1.381 . S
C1596 C1602 1.383 1_455 S
C1597 C1593 1.495 . S
C1597 H1603 0.959 . S
C1597 H1604 0.961 1_556 S
C1597 H1605 0.960 1_556 S
C1598 C1596 1.381 . S
C1598 C1599 1.394 . S
C1598 H1606 0.930 . S
C1599 C1598 1.394 . S
C1599 C1600 1.383 . S
C1599 H1607 0.929 . S
C1600 C1599 1.383 . S
C1600 C1601 1.377 1_455 S
C1601 H1585 0.930 . S
C1601 C1600 1.377 1_655 S
C1601 C1602 1.379 . S
C1602 H1586 0.931 . S
C1602 C1596 1.383 1_655 S
C1602 C1601 1.379 . S
H1603 C1597 0.959 . S
H1604 C1597 0.961 1_554 S
H1605 C1597 0.960 1_554 S
H1606 C1598 0.930 . S
H1607 C1599 0.929 . S
H1608 C1616 0.929 . S
H1609 C1618 0.930 . S
H1610 C1620 0.930 . S
H1611 C1623 0.929 . S
H1612 C1626 0.930 . S
H1613 C1628 0.960 . S
H1614 C1628 0.960 . S
H1615 C1628 0.960 . S
C1616 H1608 0.929 . S
C1616 C1617 1.377 . S
C1616 C1618 1.384 . S
C1617 C1616 1.377 . S
C1617 C1623 1.390 . S
C1618 H1609 0.930 . S
C1618 C1616 1.384 . S
C1618 C1619 1.372 . S
C1619 C1618 1.372 . S
C1619 C1620 1.400 . S
C1619 C1624 1.490 . S
C1620 H1610 0.930 . S
C1620 C1619 1.400 . S
C1620 C1623 1.386 . S
H1621 C1637 0.930 . S
H1622 C1638 0.931 . S
C1623 H1611 0.929 . S
C1623 C1617 1.390 . S
C1623 C1620 1.386 . S
C1624 C1619 1.490 . S
C1624 C1626 1.395 . S
C1624 C1627 1.403 . S
H1625 C1631 0.930 . S
C1626 H1612 0.930 . S
C1626 C1624 1.395 . S
C1626 C1629 1.403 . S
C1627 C1624 1.403 . S
C1627 C1628 1.524 . S
C1627 C1631 1.400 . S
C1628 H1613 0.960 . S
C1628 H1614 0.960 . S
C1628 H1615 0.960 . S
C1628 C1627 1.524 . S
C1629 C1626 1.403 . S
C1629 C1630 1.392 . S
C1629 C1633 1.495 . S
C1630 C1629 1.392 . S
C1630 C1631 1.385 . S
C1630 C1632 1.478 . S
C1631 H1625 0.930 . S
C1631 C1627 1.400 . S
C1631 C1630 1.385 . S
C1632 C1630 1.478 . S
C1632 C1634 1.381 . S
C1632 C1638 1.383 . S
C1633 C1629 1.495 . S
C1633 H1639 0.959 . S
C1633 H1640 0.961 . S
C1633 H1641 0.960 . S
C1634 C1632 1.381 . S
C1634 C1635 1.394 . S
C1634 H1642 0.930 . S
C1635 C1634 1.394 . S
C1635 C1636 1.383 . S
C1635 H1643 0.929 . S
C1636 C1635 1.383 . S
C1636 C1637 1.377 . S
C1637 H1621 0.930 . S
C1637 C1636 1.377 . S
C1637 C1638 1.379 . S
C1638 H1622 0.931 . S
C1638 C1632 1.383 . S
C1638 C1637 1.379 . S
H1639 C1633 0.959 . S
H1640 C1633 0.961 . S
H1641 C1633 0.960 . S
H1642 C1634 0.930 . S
H1643 C1635 0.929 . S
H1644 C1652 0.929 . S
H1645 C1654 0.930 . S
H1646 C1656 0.930 . S
H1647 C1659 0.929 . S
H1648 C1662 0.930 . S
H1649 C1664 0.960 . S
H1650 C1664 0.960 . S
H1651 C1664 0.960 . S
C1652 H1644 0.929 . S
C1652 C1653 1.370 1_655 S
C1652 C1654 1.384 . S
C1653 C1652 1.370 1_455 S
C1653 C1659 1.397 . S
C1654 H1645 0.930 . S
C1654 C1652 1.384 . S
C1654 C1655 1.372 . S
C1655 C1654 1.372 . S
C1655 C1656 1.400 1_655 S
C1655 C1660 1.490 . S
C1656 H1646 0.930 . S
C1656 C1655 1.400 1_455 S
C1656 C1659 1.386 . S
H1657 C1673 0.914 1_455 S
H1658 C1674 0.958 . S
C1659 H1647 0.929 . S
C1659 C1653 1.397 . S
C1659 C1656 1.386 . S
C1660 C1655 1.490 . S
C1660 C1662 1.395 . S
C1660 C1663 1.403 1_655 S
H1661 C1667 0.935 . S
C1662 H1648 0.930 . S
C1662 C1660 1.395 . S
C1662 C1665 1.403 . S
C1663 C1660 1.403 1_455 S
C1663 C1664 1.524 . S
C1663 C1667 1.401 . S
C1664 H1649 0.960 . S
C1664 H1650 0.960 . S
C1664 H1651 0.960 . S
C1664 C1663 1.524 . S
C1665 C1662 1.403 . S
C1665 C1666 1.392 . S
C1665 C1669 1.495 . S
C1666 C1665 1.392 . S
C1666 C1667 1.380 1_655 S
C1666 C1668 1.478 . S
C1667 H1661 0.935 . S
C1667 C1663 1.401 . S
C1667 C1666 1.380 1_455 S
C1668 C1666 1.478 . S
C1668 C1670 1.381 . S
C1668 C1674 1.356 1_655 S
C1669 C1665 1.495 . S
C1669 H1675 0.959 . S
C1669 H1676 0.961 . S
C1669 H1677 0.960 . S
C1670 C1668 1.381 . S
C1670 C1671 1.394 . S
C1670 H1678 0.930 . S
C1671 C1670 1.394 . S
C1671 C1672 1.383 . S
C1671 H1679 0.929 . S
C1672 C1671 1.383 . S
C1672 C1673 1.392 . S
C1673 H1657 0.914 1_655 S
C1673 C1672 1.392 . S
C1673 C1674 1.381 1_655 S
C1674 H1658 0.958 . S
C1674 C1668 1.356 1_455 S
C1674 C1673 1.381 1_455 S
H1675 C1669 0.959 . S
H1676 C1669 0.961 . S
H1677 C1669 0.960 . S
H1678 C1670 0.930 . S
H1679 C1671 0.929 . S
H1680 C1688 0.929 . S
H1681 C1690 0.930 . S
H1682 C1692 0.930 . S
H1683 C1695 0.929 . S
H1684 C1698 0.930 . S
H1685 C1700 0.960 . S
H1686 C1700 0.960 . S
H1687 C1700 0.960 . S
C1688 H1680 0.929 . S
C1688 C1689 1.377 . S
C1688 C1690 1.384 . S
C1689 C1688 1.377 . S
C1689 C1695 1.390 . S
C1690 H1681 0.930 . S
C1690 C1688 1.384 . S
C1690 C1691 1.372 . S
C1691 C1690 1.372 . S
C1691 C1692 1.400 . S
C1691 C1696 1.490 . S
C1692 H1682 0.930 . S
C1692 C1691 1.400 . S
C1692 C1695 1.386 . S
H1693 C1709 0.930 . S
H1694 C1710 0.931 . S
C1695 H1683 0.929 . S
C1695 C1689 1.390 . S
C1695 C1692 1.386 . S
C1696 C1691 1.490 . S
C1696 C1698 1.395 . S
C1696 C1699 1.403 . S
H1697 C1703 0.930 . S
C1698 H1684 0.930 . S
C1698 C1696 1.395 . S
C1698 C1701 1.403 . S
C1699 C1696 1.403 . S
C1699 C1700 1.524 . S
C1699 C1703 1.400 . S
C1700 H1685 0.960 . S
C1700 H1686 0.960 . S
C1700 H1687 0.960 . S
C1700 C1699 1.524 . S
C1701 C1698 1.403 . S
C1701 C1702 1.392 . S
C1701 C1705 1.495 . S
C1702 C1701 1.392 . S
C1702 C1703 1.385 . S
C1702 C1704 1.478 . S
C1703 H1697 0.930 . S
C1703 C1699 1.400 . S
C1703 C1702 1.385 . S
C1704 C1702 1.478 . S
C1704 C1706 1.381 . S
C1704 C1710 1.383 . S
C1705 C1701 1.495 . S
C1705 H1711 0.959 . S
C1705 H1712 0.961 . S
C1705 H1713 0.960 . S
C1706 C1704 1.381 . S
C1706 C1707 1.394 . S
C1706 H1714 0.930 . S
C1707 C1706 1.394 . S
C1707 C1708 1.383 . S
C1707 H1715 0.929 . S
C1708 C1707 1.383 . S
C1708 C1709 1.377 . S
C1709 H1693 0.930 . S
C1709 C1708 1.377 . S
C1709 C1710 1.379 . S
C1710 H1694 0.931 . S
C1710 C1704 1.383 . S
C1710 C1709 1.379 . S
H1711 C1705 0.959 . S
H1712 C1705 0.961 . S
H1713 C1705 0.960 . S
H1714 C1706 0.930 . S
H1715 C1707 0.929 . S
H1716 C1724 0.929 . S
H1717 C1726 0.930 . S
H1718 C1728 0.930 . S
H1719 C1731 0.929 . S
H1720 C1734 0.930 . S
H1721 C1736 0.960 . S
H1722 C1736 0.960 . S
H1723 C1736 0.960 . S
C1724 H1716 0.929 . S
C1724 C1725 1.377 . S
C1724 C1726 1.384 . S
C1725 C1724 1.377 . S
C1725 C1731 1.390 . S
C1726 H1717 0.930 . S
C1726 C1724 1.384 . S
C1726 C1727 1.372 . S
C1727 C1726 1.372 . S
C1727 C1728 1.400 . S
C1727 C1732 1.490 . S
C1728 H1718 0.930 . S
C1728 C1727 1.400 . S
C1728 C1731 1.386 . S
H1729 C1745 0.930 . S
H1730 C1746 0.931 . S
C1731 H1719 0.929 . S
C1731 C1725 1.390 . S
C1731 C1728 1.386 . S
C1732 C1727 1.490 . S
C1732 C1734 1.395 . S
C1732 C1735 1.403 . S
H1733 C1739 0.930 . S
C1734 H1720 0.930 . S
C1734 C1732 1.395 . S
C1734 C1737 1.403 . S
C1735 C1732 1.403 . S
C1735 C1736 1.524 . S
C1735 C1739 1.400 . S
C1736 H1721 0.960 . S
C1736 H1722 0.960 . S
C1736 H1723 0.960 . S
C1736 C1735 1.524 . S
C1737 C1734 1.403 . S
C1737 C1738 1.392 . S
C1737 C1741 1.495 . S
C1738 C1737 1.392 . S
C1738 C1739 1.385 . S
C1738 C1740 1.478 . S
C1739 H1733 0.930 . S
C1739 C1735 1.400 . S
C1739 C1738 1.385 . S
C1740 C1738 1.478 . S
C1740 C1742 1.381 . S
C1740 C1746 1.383 . S
C1741 C1737 1.495 . S
C1741 H1747 0.959 . S
C1741 H1748 0.961 . S
C1741 H1749 0.960 . S
C1742 C1740 1.381 . S
C1742 C1743 1.394 . S
C1742 H1750 0.930 . S
C1743 C1742 1.394 . S
C1743 C1744 1.383 . S
C1743 H1751 0.929 . S
C1744 C1743 1.383 . S
C1744 C1745 1.377 . S
C1745 H1729 0.930 . S
C1745 C1744 1.377 . S
C1745 C1746 1.379 . S
C1746 H1730 0.931 . S
C1746 C1740 1.383 . S
C1746 C1745 1.379 . S
H1747 C1741 0.959 . S
H1748 C1741 0.961 . S
H1749 C1741 0.960 . S
H1750 C1742 0.930 . S
H1751 C1743 0.929 . S
H1752 C1760 0.929 . S
H1753 C1762 0.930 . S
H1754 C1764 0.930 . S
H1755 C1767 0.929 . S
H1756 C1770 0.930 . S
H1757 C1772 0.960 . S
H1758 C1772 0.960 . S
H1759 C1772 0.917 1_565 S
C1760 H1752 0.929 . S
C1760 C1761 1.379 1_545 S
C1760 C1762 1.384 . S
C1761 C1760 1.379 1_565 S
C1761 C1767 1.388 . S
C1762 H1753 0.930 . S
C1762 C1760 1.384 . S
C1762 C1763 1.372 . S
C1763 C1762 1.372 . S
C1763 C1764 1.400 1_545 S
C1763 C1768 1.490 . S
C1764 H1754 0.930 . S
C1764 C1763 1.400 1_565 S
C1764 C1767 1.386 . S
H1765 C1781 0.947 . S
H1766 C1782 0.931 . S
C1767 H1755 0.929 . S
C1767 C1761 1.388 . S
C1767 C1764 1.386 . S
C1768 C1763 1.490 . S
C1768 C1770 1.395 . S
C1768 C1771 1.403 . S
H1769 C1775 0.930 . S
C1770 H1756 0.930 . S
C1770 C1768 1.395 . S
C1770 C1773 1.403 . S
C1771 C1768 1.403 . S
C1771 C1772 1.524 . S
C1771 C1775 1.400 . S
C1772 H1757 0.960 . S
C1772 H1758 0.960 . S
C1772 H1759 0.917 1_545 S
C1772 C1771 1.524 . S
C1773 C1770 1.403 . S
C1773 C1774 1.392 . S
C1773 C1777 1.495 . S
C1774 C1773 1.392 . S
C1774 C1775 1.385 . S
C1774 C1776 1.478 . S
C1775 H1769 0.930 . S
C1775 C1771 1.400 . S
C1775 C1774 1.385 . S
C1776 C1774 1.478 . S
C1776 C1778 1.381 . S
C1776 C1782 1.383 1_545 S
C1777 C1773 1.495 . S
C1777 H1783 0.959 . S
C1777 H1784 0.961 1_545 S
C1777 H1785 0.960 . S
C1778 C1776 1.381 . S
C1778 C1779 1.394 . S
C1778 H1786 0.930 . S
C1779 C1778 1.394 . S
C1779 C1780 1.383 . S
C1779 H1787 0.929 . S
C1780 C1779 1.383 . S
C1780 C1781 1.358 1_545 S
C1781 H1765 0.947 . S
C1781 C1780 1.358 1_565 S
C1781 C1782 1.381 . S
C1782 H1766 0.931 . S
C1782 C1776 1.383 1_565 S
C1782 C1781 1.381 . S
H1783 C1777 0.959 . S
H1784 C1777 0.961 1_565 S
H1785 C1777 0.960 . S
H1786 C1778 0.930 . S
H1787 C1779 0.929 . S
H1788 C1796 0.929 . S
H1789 C1798 0.930 . S
H1790 C1800 0.930 1_545 S
H1791 C1803 0.929 1_545 S
H1792 C1806 0.930 . S
H1793 C1808 0.960 . S
H1794 C1808 0.960 . S
H1795 C1808 0.960 . S
C1796 H1788 0.929 . S
C1796 C1797 1.377 . S
C1796 C1798 1.384 . S
C1797 C1796 1.377 . S
C1797 C1803 1.390 . S
C1798 H1789 0.930 . S
C1798 C1796 1.384 . S
C1798 C1799 1.372 . S
C1799 C1798 1.372 . S
C1799 C1800 1.400 . S
C1799 C1804 1.490 . S
C1800 H1790 0.930 1_565 S
C1800 C1799 1.400 . S
C1800 C1803 1.386 . S
H1801 C1817 0.982 . S
H1802 C1818 0.931 . S
C1803 H1791 0.929 1_565 S
C1803 C1797 1.390 . S
C1803 C1800 1.386 . S
C1804 C1799 1.490 . S
C1804 C1806 1.395 . S
C1804 C1807 1.403 . S
H1805 C1811 0.930 . S
C1806 H1792 0.930 . S
C1806 C1804 1.395 . S
C1806 C1809 1.403 . S
C1807 C1804 1.403 . S
C1807 C1808 1.524 . S
C1807 C1811 1.400 . S
C1808 H1793 0.960 . S
C1808 H1794 0.960 . S
C1808 H1795 0.960 . S
C1808 C1807 1.524 . S
C1809 C1806 1.403 . S
C1809 C1810 1.392 . S
C1809 C1813 1.495 . S
C1810 C1809 1.392 . S
C1810 C1811 1.385 . S
C1810 C1812 1.478 1_455 S
C1811 H1805 0.930 . S
C1811 C1807 1.400 . S
C1811 C1810 1.385 . S
C1812 C1810 1.478 1_655 S
C1812 C1814 1.381 . S
C1812 C1818 1.383 1_565 S
C1813 C1809 1.495 . S
C1813 H1819 0.962 . S
C1813 H1820 0.961 1_565 S
C1813 H1821 0.960 . S
C1814 C1812 1.381 . S
C1814 C1815 1.394 . S
C1814 H1822 0.930 . S
C1815 C1814 1.394 . S
C1815 C1816 1.383 . S
C1815 H1823 0.929 . S
C1816 C1815 1.383 . S
C1816 C1817 1.333 1_565 S
C1817 H1801 0.982 . S
C1817 C1816 1.333 1_545 S
C1817 C1818 1.375 . S
C1818 H1802 0.931 . S
C1818 C1812 1.383 1_545 S
C1818 C1817 1.375 . S
H1819 C1813 0.962 . S
H1820 C1813 0.961 1_545 S
H1821 C1813 0.960 . S
H1822 C1814 0.930 . S
H1823 C1815 0.929 . S
H1824 C1832 0.929 . S
H1825 C1834 0.930 . S
H1826 C1836 0.930 . S
H1827 C1839 0.929 . S
H1828 C1842 0.930 . S
H1829 C1844 0.960 . S
H1830 C1844 0.960 . S
H1831 C1844 0.960 . S
C1832 H1824 0.929 . S
C1832 C1833 1.377 . S
C1832 C1834 1.384 . S
C1833 C1832 1.377 . S
C1833 C1839 1.390 . S
C1834 H1825 0.930 . S
C1834 C1832 1.384 . S
C1834 C1835 1.372 . S
C1835 C1834 1.372 . S
C1835 C1836 1.400 . S
C1835 C1840 1.490 . S
C1836 H1826 0.930 . S
C1836 C1835 1.400 . S
C1836 C1839 1.386 . S
H1837 C1853 0.930 . S
H1838 C1854 0.931 . S
C1839 H1827 0.929 . S
C1839 C1833 1.390 . S
C1839 C1836 1.386 . S
C1840 C1835 1.490 . S
C1840 C1842 1.395 . S
C1840 C1843 1.403 . S
H1841 C1847 0.930 . S
C1842 H1828 0.930 . S
C1842 C1840 1.395 . S
C1842 C1845 1.403 . S
C1843 C1840 1.403 . S
C1843 C1844 1.524 . S
C1843 C1847 1.400 . S
C1844 H1829 0.960 . S
C1844 H1830 0.960 . S
C1844 H1831 0.960 . S
C1844 C1843 1.524 . S
C1845 C1842 1.403 . S
C1845 C1846 1.392 . S
C1845 C1849 1.495 . S
C1846 C1845 1.392 . S
C1846 C1847 1.385 . S
C1846 C1848 1.478 . S
C1847 H1841 0.930 . S
C1847 C1843 1.400 . S
C1847 C1846 1.385 . S
C1848 C1846 1.478 . S
C1848 C1850 1.381 . S
C1848 C1854 1.383 . S
C1849 C1845 1.495 . S
C1849 H1855 0.959 . S
C1849 H1856 0.961 . S
C1849 H1857 0.960 . S
C1850 C1848 1.381 . S
C1850 C1851 1.394 . S
C1850 H1858 0.930 . S
C1851 C1850 1.394 . S
C1851 C1852 1.383 . S
C1851 H1859 0.929 . S
C1852 C1851 1.383 . S
C1852 C1853 1.377 . S
C1853 H1837 0.930 . S
C1853 C1852 1.377 . S
C1853 C1854 1.379 . S
C1854 H1838 0.931 . S
C1854 C1848 1.383 . S
C1854 C1853 1.379 . S
H1855 C1849 0.959 . S
H1856 C1849 0.961 . S
H1857 C1849 0.960 . S
H1858 C1850 0.930 . S
H1859 C1851 0.929 . S
H1860 C1868 0.929 1_554 S
H1861 C1870 0.930 1_554 S
H1862 C1872 0.930 . S
H1863 C1875 0.929 . S
H1864 C1878 0.930 . S
H1865 C1880 0.960 . S
H1866 C1880 0.960 . S
H1867 C1880 0.960 . S
C1868 H1860 0.929 1_556 S
C1868 C1869 1.377 . S
C1868 C1870 1.384 . S
C1869 C1868 1.377 . S
C1869 C1875 1.390 . S
C1870 H1861 0.930 1_556 S
C1870 C1868 1.384 . S
C1870 C1871 1.372 . S
C1871 C1870 1.372 . S
C1871 C1872 1.400 . S
C1871 C1876 1.490 . S
C1872 H1862 0.930 . S
C1872 C1871 1.400 . S
C1872 C1875 1.386 . S
H1873 C1889 0.930 . S
H1874 C1890 0.931 . S
C1875 H1863 0.929 . S
C1875 C1869 1.390 . S
C1875 C1872 1.386 . S
C1876 C1871 1.490 . S
C1876 C1878 1.395 1_556 S
C1876 C1879 1.403 . S
H1877 C1883 0.930 . S
C1878 H1864 0.930 . S
C1878 C1876 1.395 1_554 S
C1878 C1881 1.403 . S
C1879 C1876 1.403 . S
C1879 C1880 1.524 . S
C1879 C1883 1.400 . S
C1880 H1865 0.960 . S
C1880 H1866 0.960 . S
C1880 H1867 0.960 . S
C1880 C1879 1.524 . S
C1881 C1878 1.403 . S
C1881 C1882 1.392 1_554 S
C1881 C1885 1.495 . S
C1882 C1881 1.392 1_556 S
C1882 C1883 1.385 . S
C1882 C1884 1.478 1_545 S
C1883 H1877 0.930 . S
C1883 C1879 1.400 . S
C1883 C1882 1.385 . S
C1884 C1882 1.478 1_565 S
C1884 C1886 1.380 1_556 S
C1884 C1890 1.383 . S
C1885 C1881 1.495 . S
C1885 H1891 0.959 . S
C1885 H1892 0.961 . S
C1885 H1893 0.960 . S
C1886 C1884 1.380 1_554 S
C1886 C1887 1.398 1_554 S
C1886 H1894 0.931 . S
C1887 C1886 1.398 1_556 S
C1887 C1888 1.412 . S
C1887 H1895 0.902 1_556 S
C1888 C1887 1.412 . S
C1888 C1889 1.377 . S
C1889 H1873 0.930 . S
C1889 C1888 1.377 . S
C1889 C1890 1.379 . S
C1890 H1874 0.931 . S
C1890 C1884 1.383 . S
C1890 C1889 1.379 . S
H1891 C1885 0.959 . S
H1892 C1885 0.961 . S
H1893 C1885 0.960 . S
H1894 C1886 0.931 . S
H1895 C1887 0.902 1_554 S
H1896 C1904 0.929 . S
H1897 C1906 0.930 . S
H1898 C1908 0.930 . S
H1899 C1911 0.929 . S
H1900 C1914 0.930 . S
H1901 C1916 0.960 . S
H1902 C1916 0.960 . S
H1903 C1916 0.960 . S
C1904 H1896 0.929 . S
C1904 C1905 1.377 . S
C1904 C1906 1.384 . S
C1905 C1904 1.377 . S
C1905 C1911 1.390 . S
C1906 H1897 0.930 . S
C1906 C1904 1.384 . S
C1906 C1907 1.372 . S
C1907 C1906 1.372 . S
C1907 C1908 1.400 . S
C1907 C1912 1.490 . S
C1908 H1898 0.930 . S
C1908 C1907 1.400 . S
C1908 C1911 1.386 . S
H1909 C1925 0.930 . S
H1910 C1926 0.931 . S
C1911 H1899 0.929 . S
C1911 C1905 1.390 . S
C1911 C1908 1.386 . S
C1912 C1907 1.490 . S
C1912 C1914 1.395 . S
C1912 C1915 1.403 . S
H1913 C1919 0.930 . S
C1914 H1900 0.930 . S
C1914 C1912 1.395 . S
C1914 C1917 1.403 . S
C1915 C1912 1.403 . S
C1915 C1916 1.524 . S
C1915 C1919 1.400 . S
C1916 H1901 0.960 . S
C1916 H1902 0.960 . S
C1916 H1903 0.960 . S
C1916 C1915 1.524 . S
C1917 C1914 1.403 . S
C1917 C1918 1.392 . S
C1917 C1921 1.495 . S
C1918 C1917 1.392 . S
C1918 C1919 1.385 . S
C1918 C1920 1.478 . S
C1919 H1913 0.930 . S
C1919 C1915 1.400 . S
C1919 C1918 1.385 . S
C1920 C1918 1.478 . S
C1920 C1922 1.381 . S
C1920 C1926 1.383 . S
C1921 C1917 1.495 . S
C1921 H1927 0.959 . S
C1921 H1928 0.961 . S
C1921 H1929 0.960 . S
C1922 C1920 1.381 . S
C1922 C1923 1.394 . S
C1922 H1930 0.930 . S
C1923 C1922 1.394 . S
C1923 C1924 1.383 . S
C1923 H1931 0.929 . S
C1924 C1923 1.383 . S
C1924 C1925 1.377 . S
C1925 H1909 0.930 . S
C1925 C1924 1.377 . S
C1925 C1926 1.379 . S
C1926 H1910 0.931 . S
C1926 C1920 1.383 . S
C1926 C1925 1.379 . S
H1927 C1921 0.959 . S
H1928 C1921 0.961 . S
H1929 C1921 0.960 . S
H1930 C1922 0.930 . S
H1931 C1923 0.929 . S
H1932 C1940 0.929 . S
H1933 C1942 0.930 . S
H1934 C1944 0.930 . S
H1935 C1947 0.929 . S
H1936 C1950 0.936 . S
H1937 C1952 0.960 . S
H1938 C1952 0.960 . S
H1939 C1952 0.960 . S
C1940 H1932 0.929 . S
C1940 C1941 1.404 . S
C1940 C1942 1.384 . S
C1941 C1940 1.404 . S
C1941 C1947 1.362 1_556 S
C1942 H1933 0.930 . S
C1942 C1940 1.384 . S
C1942 C1943 1.372 1_556 S
C1943 C1942 1.372 1_554 S
C1943 C1944 1.400 . S
C1943 C1948 1.490 . S
C1944 H1934 0.930 . S
C1944 C1943 1.400 . S
C1944 C1947 1.386 . S
H1945 C1961 0.930 . S
H1946 C1962 0.931 . S
C1947 H1935 0.929 . S
C1947 C1941 1.362 1_554 S
C1947 C1944 1.386 . S
C1948 C1943 1.490 . S
C1948 C1950 1.391 1_554 S
C1948 C1951 1.403 . S
H1949 C1955 0.930 . S
C1950 H1936 0.936 . S
C1950 C1948 1.391 1_556 S
C1950 C1953 1.403 1_556 S
C1951 C1948 1.403 . S
C1951 C1952 1.524 . S
C1951 C1955 1.400 . S
C1952 H1937 0.960 . S
C1952 H1938 0.960 . S
C1952 H1939 0.960 . S
C1952 C1951 1.524 . S
C1953 C1950 1.403 1_554 S
C1953 C1954 1.410 . S
C1953 C1957 1.486 1_554 S
C1954 C1953 1.410 . S
C1954 C1955 1.385 . S
C1954 C1956 1.478 . S
C1955 H1949 0.930 . S
C1955 C1951 1.400 . S
C1955 C1954 1.385 . S
C1956 C1954 1.478 . S
C1956 C1958 1.381 1_554 S
C1956 C1962 1.383 . S
C1957 C1953 1.486 1_556 S
C1957 H1963 0.959 . S
C1957 H1964 0.961 1_556 S
C1957 H1965 0.960 . S
C1958 C1956 1.381 1_556 S
C1958 C1959 1.394 . S
C1958 H1966 0.930 . S
C1959 C1958 1.394 . S
C1959 C1960 1.383 1_556 S
C1959 H1967 0.929 . S
C1960 C1959 1.383 1_554 S
C1960 C1961 1.377 . S
C1961 H1945 0.930 . S
C1961 C1960 1.377 . S
C1961 C1962 1.379 . S
C1962 H1946 0.931 . S
C1962 C1956 1.383 . S
C1962 C1961 1.379 . S
H1963 C1957 0.959 . S
H1964 C1957 0.961 1_554 S
H1965 C1957 0.960 . S
H1966 C1958 0.930 . S
H1967 C1959 0.929 . S
H1968 C1976 0.929 . S
H1969 C1978 0.930 . S
H1970 C1980 0.930 . S
H1971 C1983 0.929 . S
H1972 C1986 0.930 . S
H1973 C1988 0.960 . S
H1974 C1988 0.960 . S
H1975 C1988 0.960 . S
C1976 H1968 0.929 . S
C1976 C1977 1.377 . S
C1976 C1978 1.384 . S
C1977 C1976 1.377 . S
C1977 C1983 1.390 . S
C1978 H1969 0.930 . S
C1978 C1976 1.384 . S
C1978 C1979 1.372 . S
C1979 C1978 1.372 . S
C1979 C1980 1.400 . S
C1979 C1984 1.490 . S
C1980 H1970 0.930 . S
C1980 C1979 1.400 . S
C1980 C1983 1.386 . S
H1981 C1997 0.930 . S
H1982 C1998 0.931 . S
C1983 H1971 0.929 . S
C1983 C1977 1.390 . S
C1983 C1980 1.386 . S
C1984 C1979 1.490 . S
C1984 C1986 1.395 . S
C1984 C1987 1.403 . S
H1985 C1991 0.930 . S
C1986 H1972 0.930 . S
C1986 C1984 1.395 . S
C1986 C1989 1.403 . S
C1987 C1984 1.403 . S
C1987 C1988 1.524 . S
C1987 C1991 1.400 . S
C1988 H1973 0.960 . S
C1988 H1974 0.960 . S
C1988 H1975 0.960 . S
C1988 C1987 1.524 . S
C1989 C1986 1.403 . S
C1989 C1990 1.392 . S
C1989 C1993 1.495 . S
C1990 C1989 1.392 . S
C1990 C1991 1.385 . S
C1990 C1992 1.478 . S
C1991 H1985 0.930 . S
C1991 C1987 1.400 . S
C1991 C1990 1.385 . S
C1992 C1990 1.478 . S
C1992 C1994 1.381 . S
C1992 C1998 1.383 . S
C1993 C1989 1.495 . S
C1993 H1999 0.959 . S
C1993 H2000 0.961 . S
C1993 H2001 0.960 . S
C1994 C1992 1.381 . S
C1994 C1995 1.394 . S
C1994 H2002 0.930 . S
C1995 C1994 1.394 . S
C1995 C1996 1.383 . S
C1995 H2003 0.929 . S
C1996 C1995 1.383 . S
C1996 C1997 1.377 . S
C1997 H1981 0.930 . S
C1997 C1996 1.377 . S
C1997 C1998 1.379 . S
C1998 H1982 0.931 . S
C1998 C1992 1.383 . S
C1998 C1997 1.379 . S
H1999 C1993 0.959 . S
H2000 C1993 0.961 . S
H2001 C1993 0.960 . S
H2002 C1994 0.930 . S
H2003 C1995 0.929 . S
H2004 C2012 0.929 . S
H2005 C2014 0.930 . S
H2006 C2016 0.930 . S
H2007 C2019 0.929 . S
H2008 C2022 0.930 . S
H2009 C2024 0.960 . S
H2010 C2024 0.960 . S
H2011 C2024 0.960 . S
C2012 H2004 0.929 . S
C2012 C2013 1.377 1_455 S
C2012 C2014 1.384 . S
C2013 C2012 1.377 1_655 S
C2013 C2019 1.390 . S
C2014 H2005 0.930 . S
C2014 C2012 1.384 . S
C2014 C2015 1.372 1_455 S
C2015 C2014 1.372 1_655 S
C2015 C2016 1.400 . S
C2015 C2020 1.490 . S
C2016 H2006 0.930 . S
C2016 C2015 1.400 . S
C2016 C2019 1.386 . S
H2017 C2033 0.930 . S
H2018 C2034 0.931 . S
C2019 H2007 0.929 . S
C2019 C2013 1.390 . S
C2019 C2016 1.386 . S
C2020 C2015 1.490 . S
C2020 C2022 1.395 . S
C2020 C2023 1.403 . S
H2021 C2027 0.930 . S
C2022 H2008 0.930 . S
C2022 C2020 1.395 . S
C2022 C2025 1.403 . S
C2023 C2020 1.403 . S
C2023 C2024 1.524 . S
C2023 C2027 1.400 . S
C2024 H2009 0.960 . S
C2024 H2010 0.960 . S
C2024 H2011 0.960 . S
C2024 C2023 1.524 . S
C2025 C2022 1.403 . S
C2025 C2026 1.392 . S
C2025 C2029 1.495 . S
C2026 C2025 1.392 . S
C2026 C2027 1.385 . S
C2026 C2028 1.478 1_554 S
C2027 H2021 0.930 . S
C2027 C2023 1.400 . S
C2027 C2026 1.385 . S
C2028 C2026 1.478 1_556 S
C2028 C2030 1.381 1_655 S
C2028 C2034 1.383 . S
C2029 C2025 1.495 . S
C2029 H2035 0.959 . S
C2029 H2036 0.961 1_554 S
C2029 H2037 0.960 1_654 S
C2030 C2028 1.381 1_455 S
C2030 C2031 1.394 . S
C2030 H2038 0.930 . S
C2031 C2030 1.394 . S
C2031 C2032 1.383 1_455 S
C2031 H2039 0.929 . S
C2032 C2031 1.383 1_655 S
C2032 C2033 1.377 . S
C2033 H2017 0.930 . S
C2033 C2032 1.377 . S
C2033 C2034 1.379 . S
C2034 H2018 0.931 . S
C2034 C2028 1.383 . S
C2034 C2033 1.379 . S
H2035 C2029 0.959 . S
H2036 C2029 0.961 1_556 S
H2037 C2029 0.960 1_456 S
H2038 C2030 0.930 . S
H2039 C2031 0.929 . S
H2040 C2048 0.929 . S
H2041 C2050 0.930 . S
H2042 C2052 0.930 . S
H2043 C2055 0.929 . S
H2044 C2058 0.930 . S
H2045 C2060 0.960 . S
H2046 C2060 0.960 . S
H2047 C2060 0.960 . S
C2048 H2040 0.929 . S
C2048 C2049 1.377 . S
C2048 C2050 1.384 . S
C2049 C2048 1.377 . S
C2049 C2055 1.390 . S
C2050 H2041 0.930 . S
C2050 C2048 1.384 . S
C2050 C2051 1.372 . S
C2051 C2050 1.372 . S
C2051 C2052 1.400 . S
C2051 C2056 1.490 . S
C2052 H2042 0.930 . S
C2052 C2051 1.400 . S
C2052 C2055 1.386 . S
H2053 C2069 0.930 . S
H2054 C2070 0.931 . S
C2055 H2043 0.929 . S
C2055 C2049 1.390 . S
C2055 C2052 1.386 . S
C2056 C2051 1.490 . S
C2056 C2058 1.395 . S
C2056 C2059 1.403 . S
H2057 C2063 0.930 . S
C2058 H2044 0.930 . S
C2058 C2056 1.395 . S
C2058 C2061 1.403 . S
C2059 C2056 1.403 . S
C2059 C2060 1.524 . S
C2059 C2063 1.400 . S
C2060 H2045 0.960 . S
C2060 H2046 0.960 . S
C2060 H2047 0.960 . S
C2060 C2059 1.524 . S
C2061 C2058 1.403 . S
C2061 C2062 1.392 . S
C2061 C2065 1.495 . S
C2062 C2061 1.392 . S
C2062 C2063 1.385 . S
C2062 C2064 1.478 . S
C2063 H2057 0.930 . S
C2063 C2059 1.400 . S
C2063 C2062 1.385 . S
C2064 C2062 1.478 . S
C2064 C2066 1.381 . S
C2064 C2070 1.383 . S
C2065 C2061 1.495 . S
C2065 H2071 0.959 . S
C2065 H2072 0.961 . S
C2065 H2073 0.960 . S
C2066 C2064 1.381 . S
C2066 C2067 1.394 . S
C2066 H2074 0.930 . S
C2067 C2066 1.394 . S
C2067 C2068 1.383 . S
C2067 H2075 0.929 . S
C2068 C2067 1.383 . S
C2068 C2069 1.377 . S
C2069 H2053 0.930 . S
C2069 C2068 1.377 . S
C2069 C2070 1.379 . S
C2070 H2054 0.931 . S
C2070 C2064 1.383 . S
C2070 C2069 1.379 . S
H2071 C2065 0.959 . S
H2072 C2065 0.961 . S
H2073 C2065 0.960 . S
H2074 C2066 0.930 . S
H2075 C2067 0.929 . S
H2076 C2084 0.929 . S
H2077 C2086 0.930 . S
H2078 C2088 0.930 . S
H2079 C2091 0.929 . S
H2080 C2094 0.930 . S
H2081 C2096 0.960 . S
H2082 C2096 0.960 . S
H2083 C2096 0.960 1_655 S
C2084 H2076 0.929 . S
C2084 C2085 1.378 1_455 S
C2084 C2086 1.384 . S
C2085 C2084 1.378 1_655 S
C2085 C2091 1.389 . S
C2086 H2077 0.930 . S
C2086 C2084 1.384 . S
C2086 C2087 1.372 . S
C2087 C2086 1.372 . S
C2087 C2088 1.400 1_455 S
C2087 C2092 1.490 . S
C2088 H2078 0.930 . S
C2088 C2087 1.400 1_655 S
C2088 C2091 1.386 . S
H2089 C2105 0.930 . S
H2090 C2106 0.931 . S
C2091 H2079 0.929 . S
C2091 C2085 1.389 . S
C2091 C2088 1.386 . S
C2092 C2087 1.490 . S
C2092 C2094 1.395 . S
C2092 C2095 1.403 . S
H2093 C2099 0.930 . S
C2094 H2080 0.930 . S
C2094 C2092 1.395 . S
C2094 C2097 1.403 . S
C2095 C2092 1.403 . S
C2095 C2096 1.524 . S
C2095 C2099 1.400 . S
C2096 H2081 0.960 . S
C2096 H2082 0.960 . S
C2096 H2083 0.960 1_455 S
C2096 C2095 1.524 . S
C2097 C2094 1.403 . S
C2097 C2098 1.392 . S
C2097 C2101 1.495 . S
C2098 C2097 1.392 . S
C2098 C2099 1.385 . S
C2098 C2100 1.478 . S
C2099 H2093 0.930 . S
C2099 C2095 1.400 . S
C2099 C2098 1.385 . S
C2100 C2098 1.478 . S
C2100 C2102 1.381 . S
C2100 C2106 1.383 1_455 S
C2101 C2097 1.495 . S
C2101 H2107 0.959 . S
C2101 H2108 0.961 . S
C2101 H2109 0.960 . S
C2102 C2100 1.381 . S
C2102 C2103 1.394 . S
C2102 H2110 0.930 . S
C2103 C2102 1.394 . S
C2103 C2104 1.383 . S
C2103 H2111 0.929 . S
C2104 C2103 1.383 . S
C2104 C2105 1.377 1_455 S
C2105 H2089 0.930 . S
C2105 C2104 1.377 1_655 S
C2105 C2106 1.379 . S
C2106 H2090 0.931 . S
C2106 C2100 1.383 1_655 S
C2106 C2105 1.379 . S
H2107 C2101 0.959 . S
H2108 C2101 0.961 . S
H2109 C2101 0.960 . S
H2110 C2102 0.930 . S
H2111 C2103 0.929 . S
H2112 C2120 0.929 . S
H2113 C2122 0.930 . S
H2114 C2124 0.930 . S
H2115 C2127 0.929 . S
H2116 C2130 0.930 . S
H2117 C2132 0.960 . S
H2118 C2132 0.960 . S
H2119 C2132 0.960 . S
C2120 H2112 0.929 . S
C2120 C2121 1.377 . S
C2120 C2122 1.384 . S
C2121 C2120 1.377 . S
C2121 C2127 1.390 . S
C2122 H2113 0.930 . S
C2122 C2120 1.384 . S
C2122 C2123 1.372 . S
C2123 C2122 1.372 . S
C2123 C2124 1.400 . S
C2123 C2128 1.490 . S
C2124 H2114 0.930 . S
C2124 C2123 1.400 . S
C2124 C2127 1.386 . S
H2125 C2141 0.930 . S
H2126 C2142 0.931 . S
C2127 H2115 0.929 . S
C2127 C2121 1.390 . S
C2127 C2124 1.386 . S
C2128 C2123 1.490 . S
C2128 C2130 1.395 . S
C2128 C2131 1.403 . S
H2129 C2135 0.930 . S
C2130 H2116 0.930 . S
C2130 C2128 1.395 . S
C2130 C2133 1.403 . S
C2131 C2128 1.403 . S
C2131 C2132 1.524 . S
C2131 C2135 1.400 . S
C2132 H2117 0.960 . S
C2132 H2118 0.960 . S
C2132 H2119 0.960 . S
C2132 C2131 1.524 . S
C2133 C2130 1.403 . S
C2133 C2134 1.392 . S
C2133 C2137 1.495 . S
C2134 C2133 1.392 . S
C2134 C2135 1.385 . S
C2134 C2136 1.478 . S
C2135 H2129 0.930 . S
C2135 C2131 1.400 . S
C2135 C2134 1.385 . S
C2136 C2134 1.478 . S
C2136 C2138 1.381 . S
C2136 C2142 1.383 . S
C2137 C2133 1.495 . S
C2137 H2143 0.959 . S
C2137 H2144 0.961 . S
C2137 H2145 0.960 . S
C2138 C2136 1.381 . S
C2138 C2139 1.394 . S
C2138 H2146 0.930 . S
C2139 C2138 1.394 . S
C2139 C2140 1.383 . S
C2139 H2147 0.929 . S
C2140 C2139 1.383 . S
C2140 C2141 1.377 . S
C2141 H2125 0.930 . S
C2141 C2140 1.377 . S
C2141 C2142 1.379 . S
C2142 H2126 0.931 . S
C2142 C2136 1.383 . S
C2142 C2141 1.379 . S
H2143 C2137 0.959 . S
H2144 C2137 0.961 . S
H2145 C2137 0.960 . S
H2146 C2138 0.930 . S
H2147 C2139 0.929 . S
H2148 C2156 0.929 . S
H2149 C2158 0.930 . S
H2150 C2160 0.930 . S
H2151 C2163 0.929 . S
H2152 C2166 0.930 . S
H2153 C2168 0.960 . S
H2154 C2168 0.960 . S
H2155 C2168 0.960 . S
C2156 H2148 0.929 . S
C2156 C2157 1.377 . S
C2156 C2158 1.384 . S
C2157 C2156 1.377 . S
C2157 C2163 1.390 . S
C2158 H2149 0.930 . S
C2158 C2156 1.384 . S
C2158 C2159 1.372 . S
C2159 C2158 1.372 . S
C2159 C2160 1.400 . S
C2159 C2164 1.490 . S
C2160 H2150 0.930 . S
C2160 C2159 1.400 . S
C2160 C2163 1.386 . S
H2161 C2177 0.930 . S
H2162 C2178 0.931 . S
C2163 H2151 0.929 . S
C2163 C2157 1.390 . S
C2163 C2160 1.386 . S
C2164 C2159 1.490 . S
C2164 C2166 1.395 . S
C2164 C2167 1.403 . S
H2165 C2171 0.930 . S
C2166 H2152 0.930 . S
C2166 C2164 1.395 . S
C2166 C2169 1.403 . S
C2167 C2164 1.403 . S
C2167 C2168 1.524 . S
C2167 C2171 1.400 . S
C2168 H2153 0.960 . S
C2168 H2154 0.960 . S
C2168 H2155 0.960 . S
C2168 C2167 1.524 . S
C2169 C2166 1.403 . S
C2169 C2170 1.392 . S
C2169 C2173 1.495 . S
C2170 C2169 1.392 . S
C2170 C2171 1.385 . S
C2170 C2172 1.478 . S
C2171 H2165 0.930 . S
C2171 C2167 1.400 . S
C2171 C2170 1.385 . S
C2172 C2170 1.478 . S
C2172 C2174 1.381 . S
C2172 C2178 1.383 . S
C2173 C2169 1.495 . S
C2173 H2179 0.959 . S
C2173 H2180 0.961 . S
C2173 H2181 0.960 . S
C2174 C2172 1.381 . S
C2174 C2175 1.394 . S
C2174 H2182 0.930 . S
C2175 C2174 1.394 . S
C2175 C2176 1.383 . S
C2175 H2183 0.929 . S
C2176 C2175 1.383 . S
C2176 C2177 1.377 . S
C2177 H2161 0.930 . S
C2177 C2176 1.377 . S
C2177 C2178 1.379 . S
C2178 H2162 0.931 . S
C2178 C2172 1.383 . S
C2178 C2177 1.379 . S
H2179 C2173 0.959 . S
H2180 C2173 0.961 . S
H2181 C2173 0.960 . S
H2182 C2174 0.930 . S
H2183 C2175 0.929 . S
H2184 C2192 0.929 . S
H2185 C2194 0.930 . S
H2186 C2196 0.930 . S
H2187 C2199 0.929 . S
H2188 C2202 0.930 . S
H2189 C2204 0.960 . S
H2190 C2204 0.960 . S
H2191 C2204 0.960 . S
C2192 H2184 0.929 . S
C2192 C2193 1.384 1_565 S
C2192 C2194 1.384 . S
C2193 C2192 1.384 1_545 S
C2193 C2199 1.383 . S
C2194 H2185 0.930 . S
C2194 C2192 1.384 . S
C2194 C2195 1.372 . S
C2195 C2194 1.372 . S
C2195 C2196 1.400 1_565 S
C2195 C2200 1.490 . S
C2196 H2186 0.930 . S
C2196 C2195 1.400 1_545 S
C2196 C2199 1.386 . S
H2197 C2213 0.930 . S
H2198 C2214 0.931 . S
C2199 H2187 0.929 . S
C2199 C2193 1.383 . S
C2199 C2196 1.386 . S
C2200 C2195 1.490 . S
C2200 C2202 1.395 . S
C2200 C2203 1.403 1_565 S
H2201 C2207 0.930 . S
C2202 H2188 0.930 . S
C2202 C2200 1.395 . S
C2202 C2205 1.403 . S
C2203 C2200 1.403 1_545 S
C2203 C2204 1.524 . S
C2203 C2207 1.400 . S
C2204 H2189 0.960 . S
C2204 H2190 0.960 . S
C2204 H2191 0.960 . S
C2204 C2203 1.524 . S
C2205 C2202 1.403 . S
C2205 C2206 1.392 . S
C2205 C2209 1.495 . S
C2206 C2205 1.392 . S
C2206 C2207 1.385 1_565 S
C2206 C2208 1.478 . S
C2207 H2201 0.930 . S
C2207 C2203 1.400 . S
C2207 C2206 1.385 1_545 S
C2208 C2206 1.478 . S
C2208 C2210 1.381 . S
C2208 C2214 1.383 1_565 S
C2209 C2205 1.495 . S
C2209 H2215 0.959 . S
C2209 H2216 0.961 . S
C2209 H2217 0.960 . S
C2210 C2208 1.381 . S
C2210 C2211 1.394 . S
C2210 H2218 0.930 . S
C2211 C2210 1.394 . S
C2211 C2212 1.383 . S
C2211 H2219 0.929 . S
C2212 C2211 1.383 . S
C2212 C2213 1.377 1_565 S
C2213 H2197 0.930 . S
C2213 C2212 1.377 1_545 S
C2213 C2214 1.379 . S
C2214 H2198 0.931 . S
C2214 C2208 1.383 1_545 S
C2214 C2213 1.379 . S
H2215 C2209 0.959 . S
H2216 C2209 0.961 . S
H2217 C2209 0.960 . S
H2218 C2210 0.930 . S
H2219 C2211 0.929 . S
H2220 C2228 0.929 . S
H2221 C2230 0.930 . S
H2222 C2232 0.930 . S
H2223 C2235 0.929 . S
H2224 C2238 0.930 . S
H2225 C2240 0.960 . S
H2226 C2240 0.960 . S
H2227 C2240 0.960 . S
C2228 H2220 0.929 . S
C2228 C2229 1.377 . S
C2228 C2230 1.384 . S
C2229 C2228 1.377 . S
C2229 C2235 1.390 . S
C2230 H2221 0.930 . S
C2230 C2228 1.384 . S
C2230 C2231 1.372 . S
C2231 C2230 1.372 . S
C2231 C2232 1.400 . S
C2231 C2236 1.490 . S
C2232 H2222 0.930 . S
C2232 C2231 1.400 . S
C2232 C2235 1.386 . S
H2233 C2249 0.930 . S
H2234 C2250 0.931 . S
C2235 H2223 0.929 . S
C2235 C2229 1.390 . S
C2235 C2232 1.386 . S
C2236 C2231 1.490 . S
C2236 C2238 1.395 . S
C2236 C2239 1.403 . S
H2237 C2243 0.930 . S
C2238 H2224 0.930 . S
C2238 C2236 1.395 . S
C2238 C2241 1.403 . S
C2239 C2236 1.403 . S
C2239 C2240 1.524 . S
C2239 C2243 1.400 . S
C2240 H2225 0.960 . S
C2240 H2226 0.960 . S
C2240 H2227 0.960 . S
C2240 C2239 1.524 . S
C2241 C2238 1.403 . S
C2241 C2242 1.392 . S
C2241 C2245 1.495 . S
C2242 C2241 1.392 . S
C2242 C2243 1.385 . S
C2242 C2244 1.478 . S
C2243 H2237 0.930 . S
C2243 C2239 1.400 . S
C2243 C2242 1.385 . S
C2244 C2242 1.478 . S
C2244 C2246 1.381 . S
C2244 C2250 1.383 . S
C2245 C2241 1.495 . S
C2245 H2251 0.959 . S
C2245 H2252 0.961 . S
C2245 H2253 0.960 . S
C2246 C2244 1.381 . S
C2246 C2247 1.394 . S
C2246 H2254 0.930 . S
C2247 C2246 1.394 . S
C2247 C2248 1.383 . S
C2247 H2255 0.929 . S
C2248 C2247 1.383 . S
C2248 C2249 1.377 . S
C2249 H2233 0.930 . S
C2249 C2248 1.377 . S
C2249 C2250 1.379 . S
C2250 H2234 0.931 . S
C2250 C2244 1.383 . S
C2250 C2249 1.379 . S
H2251 C2245 0.959 . S
H2252 C2245 0.961 . S
H2253 C2245 0.960 . S
H2254 C2246 0.930 . S
H2255 C2247 0.929 . S
H2256 C2264 0.929 . S
H2257 C2266 0.930 . S
H2258 C2268 0.930 . S
H2259 C2271 0.929 . S
H2260 C2274 0.930 . S
H2261 C2276 0.960 . S
H2262 C2276 0.960 . S
H2263 C2276 0.960 . S
C2264 H2256 0.929 . S
C2264 C2265 1.377 . S
C2264 C2266 1.384 . S
C2265 C2264 1.377 . S
C2265 C2271 1.390 . S
C2266 H2257 0.930 . S
C2266 C2264 1.384 . S
C2266 C2267 1.372 . S
C2267 C2266 1.372 . S
C2267 C2268 1.400 . S
C2267 C2272 1.490 . S
C2268 H2258 0.930 . S
C2268 C2267 1.400 . S
C2268 C2271 1.386 . S
H2269 C2285 0.930 . S
H2270 C2286 0.931 . S
C2271 H2259 0.929 . S
C2271 C2265 1.390 . S
C2271 C2268 1.386 . S
C2272 C2267 1.490 . S
C2272 C2274 1.395 . S
C2272 C2275 1.403 . S
H2273 C2279 0.930 . S
C2274 H2260 0.930 . S
C2274 C2272 1.395 . S
C2274 C2277 1.403 . S
C2275 C2272 1.403 . S
C2275 C2276 1.524 . S
C2275 C2279 1.400 . S
C2276 H2261 0.960 . S
C2276 H2262 0.960 . S
C2276 H2263 0.960 . S
C2276 C2275 1.524 . S
C2277 C2274 1.403 . S
C2277 C2278 1.392 . S
C2277 C2281 1.495 . S
C2278 C2277 1.392 . S
C2278 C2279 1.385 . S
C2278 C2280 1.478 . S
C2279 H2273 0.930 . S
C2279 C2275 1.400 . S
C2279 C2278 1.385 . S
C2280 C2278 1.478 . S
C2280 C2282 1.381 . S
C2280 C2286 1.383 . S
C2281 C2277 1.495 . S
C2281 H2287 0.959 . S
C2281 H2288 0.961 . S
C2281 H2289 0.960 . S
C2282 C2280 1.381 . S
C2282 C2283 1.394 . S
C2282 H2290 0.930 . S
C2283 C2282 1.394 . S
C2283 C2284 1.383 . S
C2283 H2291 0.929 . S
C2284 C2283 1.383 . S
C2284 C2285 1.377 . S
C2285 H2269 0.930 . S
C2285 C2284 1.377 . S
C2285 C2286 1.379 . S
C2286 H2270 0.931 . S
C2286 C2280 1.383 . S
C2286 C2285 1.379 . S
H2287 C2281 0.959 . S
H2288 C2281 0.961 . S
H2289 C2281 0.960 . S
H2290 C2282 0.930 . S
H2291 C2283 0.929 . S
H2292 C2300 0.929 . S
H2293 C2302 0.930 . S
H2294 C2304 0.930 . S
H2295 C2307 0.929 . S
H2296 C2310 0.930 . S
H2297 C2312 0.960 . S
H2298 C2312 0.960 . S
H2299 C2312 0.960 . S
C2300 H2292 0.929 . S
C2300 C2301 1.377 . S
C2300 C2302 1.384 . S
C2301 C2300 1.377 . S
C2301 C2307 1.390 . S
C2302 H2293 0.930 . S
C2302 C2300 1.384 . S
C2302 C2303 1.372 . S
C2303 C2302 1.372 . S
C2303 C2304 1.400 . S
C2303 C2308 1.490 . S
C2304 H2294 0.930 . S
C2304 C2303 1.400 . S
C2304 C2307 1.386 . S
H2305 C2321 0.930 . S
H2306 C2322 0.931 . S
C2307 H2295 0.929 . S
C2307 C2301 1.390 . S
C2307 C2304 1.386 . S
C2308 C2303 1.490 . S
C2308 C2310 1.395 . S
C2308 C2311 1.403 . S
H2309 C2315 0.930 . S
C2310 H2296 0.930 . S
C2310 C2308 1.395 . S
C2310 C2313 1.403 . S
C2311 C2308 1.403 . S
C2311 C2312 1.524 . S
C2311 C2315 1.400 . S
C2312 H2297 0.960 . S
C2312 H2298 0.960 . S
C2312 H2299 0.960 . S
C2312 C2311 1.524 . S
C2313 C2310 1.403 . S
C2313 C2314 1.392 . S
C2313 C2317 1.495 . S
C2314 C2313 1.392 . S
C2314 C2315 1.385 . S
C2314 C2316 1.478 . S
C2315 H2309 0.930 . S
C2315 C2311 1.400 . S
C2315 C2314 1.385 . S
C2316 C2314 1.478 . S
C2316 C2318 1.381 . S
C2316 C2322 1.383 . S
C2317 C2313 1.495 . S
C2317 H2323 0.959 . S
C2317 H2324 0.961 . S
C2317 H2325 0.960 . S
C2318 C2316 1.381 . S
C2318 C2319 1.394 . S
C2318 H2326 0.930 . S
C2319 C2318 1.394 . S
C2319 C2320 1.383 . S
C2319 H2327 0.929 . S
C2320 C2319 1.383 . S
C2320 C2321 1.377 . S
C2321 H2305 0.930 . S
C2321 C2320 1.377 . S
C2321 C2322 1.379 . S
C2322 H2306 0.931 . S
C2322 C2316 1.383 . S
C2322 C2321 1.379 . S
H2323 C2317 0.959 . S
H2324 C2317 0.961 . S
H2325 C2317 0.960 . S
H2326 C2318 0.930 . S
H2327 C2319 0.929 . S
H2328 C2336 0.929 . S
H2329 C2338 0.930 . S
H2330 C2340 0.930 . S
H2331 C2343 0.929 . S
H2332 C2346 0.930 . S
H2333 C2348 0.960 . S
H2334 C2348 0.960 . S
H2335 C2348 0.960 . S
C2336 H2328 0.929 . S
C2336 C2337 1.377 . S
C2336 C2338 1.384 . S
C2337 C2336 1.377 . S
C2337 C2343 1.390 . S
C2338 H2329 0.930 . S
C2338 C2336 1.384 . S
C2338 C2339 1.372 . S
C2339 C2338 1.372 . S
C2339 C2340 1.400 . S
C2339 C2344 1.490 . S
C2340 H2330 0.930 . S
C2340 C2339 1.400 . S
C2340 C2343 1.386 . S
H2341 C2357 0.930 . S
H2342 C2358 0.931 . S
C2343 H2331 0.929 . S
C2343 C2337 1.390 . S
C2343 C2340 1.386 . S
C2344 C2339 1.490 . S
C2344 C2346 1.395 . S
C2344 C2347 1.403 . S
H2345 C2351 0.930 . S
C2346 H2332 0.930 . S
C2346 C2344 1.395 . S
C2346 C2349 1.403 . S
C2347 C2344 1.403 . S
C2347 C2348 1.524 . S
C2347 C2351 1.400 . S
C2348 H2333 0.960 . S
C2348 H2334 0.960 . S
C2348 H2335 0.960 . S
C2348 C2347 1.524 . S
C2349 C2346 1.403 . S
C2349 C2350 1.392 . S
C2349 C2353 1.495 . S
C2350 C2349 1.392 . S
C2350 C2351 1.385 . S
C2350 C2352 1.478 . S
C2351 H2345 0.930 . S
C2351 C2347 1.400 . S
C2351 C2350 1.385 . S
C2352 C2350 1.478 . S
C2352 C2354 1.381 . S
C2352 C2358 1.383 . S
C2353 C2349 1.495 . S
C2353 H2359 0.959 . S
C2353 H2360 0.961 . S
C2353 H2361 0.960 . S
C2354 C2352 1.381 . S
C2354 C2355 1.394 . S
C2354 H2362 0.930 . S
C2355 C2354 1.394 . S
C2355 C2356 1.383 . S
C2355 H2363 0.929 . S
C2356 C2355 1.383 . S
C2356 C2357 1.377 . S
C2357 H2341 0.930 . S
C2357 C2356 1.377 . S
C2357 C2358 1.379 . S
C2358 H2342 0.931 . S
C2358 C2352 1.383 . S
C2358 C2357 1.379 . S
H2359 C2353 0.959 . S
H2360 C2353 0.961 . S
H2361 C2353 0.960 . S
H2362 C2354 0.930 . S
H2363 C2355 0.929 . S
H2364 C2372 0.929 . S
H2365 C2374 0.930 . S
H2366 C2376 0.930 . S
H2367 C2379 0.929 . S
H2368 C2382 0.930 . S
H2369 C2384 0.960 . S
H2370 C2384 0.960 1_556 S
H2371 C2384 0.960 . S
C2372 H2364 0.929 . S
C2372 C2373 1.377 . S
C2372 C2374 1.384 . S
C2373 C2372 1.377 . S
C2373 C2379 1.390 1_556 S
C2374 H2365 0.930 . S
C2374 C2372 1.384 . S
C2374 C2375 1.372 . S
C2375 C2374 1.372 . S
C2375 C2376 1.400 1_556 S
C2375 C2380 1.490 . S
C2376 H2366 0.930 . S
C2376 C2375 1.400 1_554 S
C2376 C2379 1.386 . S
H2377 C2393 0.930 . S
H2378 C2394 0.931 . S
C2379 H2367 0.929 . S
C2379 C2373 1.390 1_554 S
C2379 C2376 1.386 . S
C2380 C2375 1.490 . S
C2380 C2382 1.395 . S
C2380 C2383 1.400 1_556 S
H2381 C2387 0.934 . S
C2382 H2368 0.930 . S
C2382 C2380 1.395 . S
C2382 C2385 1.403 . S
C2383 C2380 1.400 1_554 S
C2383 C2384 1.524 . S
C2383 C2387 1.401 . S
C2384 H2369 0.960 . S
C2384 H2370 0.960 1_554 S
C2384 H2371 0.960 . S
C2384 C2383 1.524 . S
C2385 C2382 1.403 . S
C2385 C2386 1.392 . S
C2385 C2389 1.495 . S
C2386 C2385 1.392 . S
C2386 C2387 1.385 1_556 S
C2386 C2388 1.478 . S
C2387 H2381 0.934 . S
C2387 C2383 1.401 . S
C2387 C2386 1.385 1_554 S
C2388 C2386 1.478 . S
C2388 C2390 1.381 . S
C2388 C2394 1.383 1_556 S
C2389 C2385 1.495 . S
C2389 H2395 0.959 . S
C2389 H2396 0.961 1_556 S
C2389 H2397 0.960 . S
C2390 C2388 1.381 . S
C2390 C2391 1.394 . S
C2390 H2398 0.930 . S
C2391 C2390 1.394 . S
C2391 C2392 1.383 . S
C2391 H2399 0.929 . S
C2392 C2391 1.383 . S
C2392 C2393 1.377 1_556 S
C2393 H2377 0.930 . S
C2393 C2392 1.377 1_554 S
C2393 C2394 1.379 . S
C2394 H2378 0.931 . S
C2394 C2388 1.383 1_554 S
C2394 C2393 1.379 . S
H2395 C2389 0.959 . S
H2396 C2389 0.961 1_554 S
H2397 C2389 0.960 . S
H2398 C2390 0.930 . S
H2399 C2391 0.929 . S
H2400 C2408 0.929 . S
H2401 C2410 0.930 . S
H2402 C2412 0.930 . S
H2403 C2415 0.929 . S
H2404 C2418 0.930 . S
H2405 C2420 0.960 . S
H2406 C2420 0.960 . S
H2407 C2420 0.960 . S
C2408 H2400 0.929 . S
C2408 C2409 1.377 . S
C2408 C2410 1.384 . S
C2409 C2408 1.377 . S
C2409 C2415 1.390 . S
C2410 H2401 0.930 . S
C2410 C2408 1.384 . S
C2410 C2411 1.372 . S
C2411 C2410 1.372 . S
C2411 C2412 1.400 . S
C2411 C2416 1.490 . S
C2412 H2402 0.930 . S
C2412 C2411 1.400 . S
C2412 C2415 1.386 . S
H2413 C2429 0.930 . S
H2414 C2430 0.931 . S
C2415 H2403 0.929 . S
C2415 C2409 1.390 . S
C2415 C2412 1.386 . S
C2416 C2411 1.490 . S
C2416 C2418 1.395 . S
C2416 C2419 1.403 . S
H2417 C2423 0.930 . S
C2418 H2404 0.930 . S
C2418 C2416 1.395 . S
C2418 C2421 1.403 . S
C2419 C2416 1.403 . S
C2419 C2420 1.524 . S
C2419 C2423 1.400 . S
C2420 H2405 0.960 . S
C2420 H2406 0.960 . S
C2420 H2407 0.960 . S
C2420 C2419 1.524 . S
C2421 C2418 1.403 . S
C2421 C2422 1.392 . S
C2421 C2425 1.495 . S
C2422 C2421 1.392 . S
C2422 C2423 1.385 . S
C2422 C2424 1.478 . S
C2423 H2417 0.930 . S
C2423 C2419 1.400 . S
C2423 C2422 1.385 . S
C2424 C2422 1.478 . S
C2424 C2426 1.381 . S
C2424 C2430 1.383 . S
C2425 C2421 1.495 . S
C2425 H2431 0.959 . S
C2425 H2432 0.961 . S
C2425 H2433 0.960 . S
C2426 C2424 1.381 . S
C2426 C2427 1.394 . S
C2426 H2434 0.930 . S
C2427 C2426 1.394 . S
C2427 C2428 1.383 . S
C2427 H2435 0.929 . S
C2428 C2427 1.383 . S
C2428 C2429 1.377 . S
C2429 H2413 0.930 . S
C2429 C2428 1.377 . S
C2429 C2430 1.379 . S
C2430 H2414 0.931 . S
C2430 C2424 1.383 . S
C2430 C2429 1.379 . S
H2431 C2425 0.959 . S
H2432 C2425 0.961 . S
H2433 C2425 0.960 . S
H2434 C2426 0.930 . S
H2435 C2427 0.929 . S
H2436 C2444 0.929 . S
H2437 C2446 0.930 . S
H2438 C2448 0.930 . S
H2439 C2451 0.929 . S
H2440 C2454 0.930 . S
H2441 C2456 0.960 . S
H2442 C2456 0.960 . S
H2443 C2456 0.960 . S
C2444 H2436 0.929 . S
C2444 C2445 1.377 . S
C2444 C2446 1.384 . S
C2445 C2444 1.377 . S
C2445 C2451 1.390 . S
C2446 H2437 0.930 . S
C2446 C2444 1.384 . S
C2446 C2447 1.372 . S
C2447 C2446 1.372 . S
C2447 C2448 1.400 . S
C2447 C2452 1.490 . S
C2448 H2438 0.930 . S
C2448 C2447 1.400 . S
C2448 C2451 1.386 . S
H2449 C2465 0.930 . S
H2450 C2466 0.931 . S
C2451 H2439 0.929 . S
C2451 C2445 1.390 . S
C2451 C2448 1.386 . S
C2452 C2447 1.490 . S
C2452 C2454 1.395 . S
C2452 C2455 1.403 . S
H2453 C2459 0.930 . S
C2454 H2440 0.930 . S
C2454 C2452 1.395 . S
C2454 C2457 1.403 . S
C2455 C2452 1.403 . S
C2455 C2456 1.524 . S
C2455 C2459 1.400 . S
C2456 H2441 0.960 . S
C2456 H2442 0.960 . S
C2456 H2443 0.960 . S
C2456 C2455 1.524 . S
C2457 C2454 1.403 . S
C2457 C2458 1.392 . S
C2457 C2461 1.495 . S
C2458 C2457 1.392 . S
C2458 C2459 1.385 . S
C2458 C2460 1.478 . S
C2459 H2453 0.930 . S
C2459 C2455 1.400 . S
C2459 C2458 1.385 . S
C2460 C2458 1.478 . S
C2460 C2462 1.381 . S
C2460 C2466 1.383 . S
C2461 C2457 1.495 . S
C2461 H2467 0.959 . S
C2461 H2468 0.961 . S
C2461 H2469 0.960 . S
C2462 C2460 1.381 . S
C2462 C2463 1.394 . S
C2462 H2470 0.930 . S
C2463 C2462 1.394 . S
C2463 C2464 1.383 . S
C2463 H2471 0.929 . S
C2464 C2463 1.383 . S
C2464 C2465 1.377 . S
C2465 H2449 0.930 . S
C2465 C2464 1.377 . S
C2465 C2466 1.379 . S
C2466 H2450 0.931 . S
C2466 C2460 1.383 . S
C2466 C2465 1.379 . S
H2467 C2461 0.959 . S
H2468 C2461 0.961 . S
H2469 C2461 0.960 . S
H2470 C2462 0.930 . S
H2471 C2463 0.929 . S
H2472 C2480 0.929 . S
H2473 C2482 0.930 . S
H2474 C2484 0.930 . S
H2475 C2487 0.929 . S
H2476 C2490 0.930 . S
H2477 C2492 0.960 . S
H2478 C2492 0.960 . S
H2479 C2492 0.960 . S
C2480 H2472 0.929 . S
C2480 C2481 1.377 . S
C2480 C2482 1.384 . S
C2481 C2480 1.377 . S
C2481 C2487 1.390 . S
C2482 H2473 0.930 . S
C2482 C2480 1.384 . S
C2482 C2483 1.372 . S
C2483 C2482 1.372 . S
C2483 C2484 1.400 . S
C2483 C2488 1.490 . S
C2484 H2474 0.930 . S
C2484 C2483 1.400 . S
C2484 C2487 1.386 . S
H2485 C2501 0.930 . S
H2486 C2502 0.931 . S
C2487 H2475 0.929 . S
C2487 C2481 1.390 . S
C2487 C2484 1.386 . S
C2488 C2483 1.490 . S
C2488 C2490 1.395 . S
C2488 C2491 1.403 . S
H2489 C2495 0.930 . S
C2490 H2476 0.930 . S
C2490 C2488 1.395 . S
C2490 C2493 1.403 . S
C2491 C2488 1.403 . S
C2491 C2492 1.524 . S
C2491 C2495 1.400 . S
C2492 H2477 0.960 . S
C2492 H2478 0.960 . S
C2492 H2479 0.960 . S
C2492 C2491 1.524 . S
C2493 C2490 1.403 . S
C2493 C2494 1.392 . S
C2493 C2497 1.495 . S
C2494 C2493 1.392 . S
C2494 C2495 1.385 . S
C2494 C2496 1.478 . S
C2495 H2489 0.930 . S
C2495 C2491 1.400 . S
C2495 C2494 1.385 . S
C2496 C2494 1.478 . S
C2496 C2498 1.381 . S
C2496 C2502 1.383 . S
C2497 C2493 1.495 . S
C2497 H2503 0.959 . S
C2497 H2504 0.961 . S
C2497 H2505 0.960 . S
C2498 C2496 1.381 . S
C2498 C2499 1.394 . S
C2498 H2506 0.930 . S
C2499 C2498 1.394 . S
C2499 C2500 1.383 . S
C2499 H2507 0.929 . S
C2500 C2499 1.383 . S
C2500 C2501 1.377 . S
C2501 H2485 0.930 . S
C2501 C2500 1.377 . S
C2501 C2502 1.379 . S
C2502 H2486 0.931 . S
C2502 C2496 1.383 . S
C2502 C2501 1.379 . S
H2503 C2497 0.959 . S
H2504 C2497 0.961 . S
H2505 C2497 0.960 . S
H2506 C2498 0.930 . S
H2507 C2499 0.929 . S
H2508 C2516 0.929 . S
H2509 C2518 0.930 . S
H2510 C2520 0.930 . S
H2511 C2523 0.929 . S
H2512 C2526 0.930 . S
H2513 C2528 0.960 . S
H2514 C2528 0.960 . S
H2515 C2528 0.960 1_655 S
C2516 H2508 0.929 . S
C2516 C2517 1.392 . S
C2516 C2518 1.384 . S
C2517 C2516 1.392 . S
C2517 C2523 1.377 1_455 S
C2518 H2509 0.930 . S
C2518 C2516 1.384 . S
C2518 C2519 1.389 . S
C2519 C2518 1.389 . S
C2519 C2520 1.381 1_455 S
C2519 C2524 1.492 . S
C2520 H2510 0.930 . S
C2520 C2519 1.381 1_655 S
C2520 C2523 1.386 . S
H2521 C2537 0.930 . S
H2522 C2538 0.931 . S
C2523 H2511 0.929 . S
C2523 C2517 1.377 1_655 S
C2523 C2520 1.386 . S
C2524 C2519 1.492 . S
C2524 C2526 1.395 1_455 S
C2524 C2527 1.403 . S
H2525 C2531 0.941 . S
C2526 H2512 0.930 . S
C2526 C2524 1.395 1_655 S
C2526 C2529 1.403 . S
C2527 C2524 1.403 . S
C2527 C2528 1.524 . S
C2527 C2531 1.400 . S
C2528 H2513 0.960 . S
C2528 H2514 0.960 . S
C2528 H2515 0.960 1_455 S
C2528 C2527 1.524 . S
C2529 C2526 1.403 . S
C2529 C2530 1.392 . S
C2529 C2533 1.495 . S
C2530 C2529 1.392 . S
C2530 C2531 1.378 1_655 S
C2530 C2532 1.478 . S
C2531 H2525 0.941 . S
C2531 C2527 1.400 . S
C2531 C2530 1.378 1_455 S
C2532 C2530 1.478 . S
C2532 C2534 1.381 1_655 S
C2532 C2538 1.383 . S
C2533 C2529 1.495 . S
C2533 H2539 0.959 . S
C2533 H2540 0.961 . S
C2533 H2541 0.960 1_655 S
C2534 C2532 1.381 1_455 S
C2534 C2535 1.394 . S
C2534 H2542 0.930 . S
C2535 C2534 1.394 . S
C2535 C2536 1.383 1_455 S
C2535 H2543 0.929 . S
C2536 C2535 1.383 1_655 S
C2536 C2537 1.377 . S
C2537 H2521 0.930 . S
C2537 C2536 1.377 . S
C2537 C2538 1.379 . S
C2538 H2522 0.931 . S
C2538 C2532 1.383 . S
C2538 C2537 1.379 . S
H2539 C2533 0.959 . S
H2540 C2533 0.961 . S
H2541 C2533 0.960 1_455 S
H2542 C2534 0.930 . S
H2543 C2535 0.929 . S
H2544 C2552 0.929 . S
H2545 C2554 0.930 . S
H2546 C2556 0.930 . S
H2547 C2559 0.929 . S
H2548 C2562 0.930 . S
H2549 C2564 0.960 . S
H2550 C2564 0.960 . S
H2551 C2564 0.960 . S
C2552 H2544 0.929 . S
C2552 C2553 1.377 . S
C2552 C2554 1.384 . S
C2553 C2552 1.377 . S
C2553 C2559 1.390 . S
C2554 H2545 0.930 . S
C2554 C2552 1.384 . S
C2554 C2555 1.372 . S
C2555 C2554 1.372 . S
C2555 C2556 1.400 . S
C2555 C2560 1.490 . S
C2556 H2546 0.930 . S
C2556 C2555 1.400 . S
C2556 C2559 1.386 . S
H2557 C2573 0.930 . S
H2558 C2574 0.931 . S
C2559 H2547 0.929 . S
C2559 C2553 1.390 . S
C2559 C2556 1.386 . S
C2560 C2555 1.490 . S
C2560 C2562 1.395 . S
C2560 C2563 1.403 . S
H2561 C2567 0.930 . S
C2562 H2548 0.930 . S
C2562 C2560 1.395 . S
C2562 C2565 1.403 . S
C2563 C2560 1.403 . S
C2563 C2564 1.524 . S
C2563 C2567 1.400 . S
C2564 H2549 0.960 . S
C2564 H2550 0.960 . S
C2564 H2551 0.960 . S
C2564 C2563 1.524 . S
C2565 C2562 1.403 . S
C2565 C2566 1.392 . S
C2565 C2569 1.495 . S
C2566 C2565 1.392 . S
C2566 C2567 1.385 . S
C2566 C2568 1.478 . S
C2567 H2561 0.930 . S
C2567 C2563 1.400 . S
C2567 C2566 1.385 . S
C2568 C2566 1.478 . S
C2568 C2570 1.381 . S
C2568 C2574 1.383 . S
C2569 C2565 1.495 . S
C2569 H2575 0.959 . S
C2569 H2576 0.961 . S
C2569 H2577 0.960 . S
C2570 C2568 1.381 . S
C2570 C2571 1.394 . S
C2570 H2578 0.930 . S
C2571 C2570 1.394 . S
C2571 C2572 1.383 . S
C2571 H2579 0.929 . S
C2572 C2571 1.383 . S
C2572 C2573 1.377 . S
C2573 H2557 0.930 . S
C2573 C2572 1.377 . S
C2573 C2574 1.379 . S
C2574 H2558 0.931 . S
C2574 C2568 1.383 . S
C2574 C2573 1.379 . S
H2575 C2569 0.959 . S
H2576 C2569 0.961 . S
H2577 C2569 0.960 . S
H2578 C2570 0.930 . S
H2579 C2571 0.929 . S
H2580 C2588 0.929 . S
H2581 C2590 0.930 . S
H2582 C2592 0.930 . S
H2583 C2595 0.929 . S
H2584 C2598 0.930 . S
H2585 C2600 0.960 . S
H2586 C2600 0.960 . S
H2587 C2600 0.960 . S
C2588 H2580 0.929 . S
C2588 C2589 1.377 . S
C2588 C2590 1.384 . S
C2589 C2588 1.377 . S
C2589 C2595 1.390 . S
C2590 H2581 0.930 . S
C2590 C2588 1.384 . S
C2590 C2591 1.372 . S
C2591 C2590 1.372 . S
C2591 C2592 1.400 . S
C2591 C2596 1.490 . S
C2592 H2582 0.930 . S
C2592 C2591 1.400 . S
C2592 C2595 1.386 . S
H2593 C2609 0.930 . S
H2594 C2610 0.931 . S
C2595 H2583 0.929 . S
C2595 C2589 1.390 . S
C2595 C2592 1.386 . S
C2596 C2591 1.490 . S
C2596 C2598 1.395 . S
C2596 C2599 1.403 . S
H2597 C2603 0.930 . S
C2598 H2584 0.930 . S
C2598 C2596 1.395 . S
C2598 C2601 1.403 . S
C2599 C2596 1.403 . S
C2599 C2600 1.524 . S
C2599 C2603 1.400 . S
C2600 H2585 0.960 . S
C2600 H2586 0.960 . S
C2600 H2587 0.960 . S
C2600 C2599 1.524 . S
C2601 C2598 1.403 . S
C2601 C2602 1.392 . S
C2601 C2605 1.495 . S
C2602 C2601 1.392 . S
C2602 C2603 1.385 . S
C2602 C2604 1.478 . S
C2603 H2597 0.930 . S
C2603 C2599 1.400 . S
C2603 C2602 1.385 . S
C2604 C2602 1.478 . S
C2604 C2606 1.381 . S
C2604 C2610 1.383 . S
C2605 C2601 1.495 . S
C2605 H2611 0.959 . S
C2605 H2612 0.961 . S
C2605 H2613 0.960 . S
C2606 C2604 1.381 . S
C2606 C2607 1.394 . S
C2606 H2614 0.930 . S
C2607 C2606 1.394 . S
C2607 C2608 1.383 . S
C2607 H2615 0.929 . S
C2608 C2607 1.383 . S
C2608 C2609 1.377 . S
C2609 H2593 0.930 . S
C2609 C2608 1.377 . S
C2609 C2610 1.379 . S
C2610 H2594 0.931 . S
C2610 C2604 1.383 . S
C2610 C2609 1.379 . S
H2611 C2605 0.959 . S
H2612 C2605 0.961 . S
H2613 C2605 0.960 . S
H2614 C2606 0.930 . S
H2615 C2607 0.929 . S
H2616 C2624 0.929 . S
H2617 C2626 0.930 . S
H2618 C2628 0.930 . S
H2619 C2631 0.929 . S
H2620 C2634 0.930 . S
H2621 C2636 0.960 . S
H2622 C2636 0.960 . S
H2623 C2636 0.960 1_565 S
C2624 H2616 0.929 . S
C2624 C2625 1.378 . S
C2624 C2626 1.384 . S
C2625 C2624 1.378 . S
C2625 C2631 1.389 1_545 S
C2626 H2617 0.930 . S
C2626 C2624 1.384 . S
C2626 C2627 1.372 . S
C2627 C2626 1.372 . S
C2627 C2628 1.400 1_545 S
C2627 C2632 1.490 . S
C2628 H2618 0.930 . S
C2628 C2627 1.400 1_565 S
C2628 C2631 1.386 . S
H2629 C2645 0.930 . S
H2630 C2646 0.931 . S
C2631 H2619 0.929 . S
C2631 C2625 1.389 1_565 S
C2631 C2628 1.386 . S
C2632 C2627 1.490 . S
C2632 C2634 1.395 . S
C2632 C2635 1.403 . S
H2633 C2639 0.930 . S
C2634 H2620 0.930 . S
C2634 C2632 1.395 . S
C2634 C2637 1.403 . S
C2635 C2632 1.403 . S
C2635 C2636 1.524 . S
C2635 C2639 1.400 . S
C2636 H2621 0.960 . S
C2636 H2622 0.960 . S
C2636 H2623 0.960 1_545 S
C2636 C2635 1.524 . S
C2637 C2634 1.403 . S
C2637 C2638 1.392 . S
C2637 C2641 1.495 . S
C2638 C2637 1.392 . S
C2638 C2639 1.385 . S
C2638 C2640 1.478 . S
C2639 H2633 0.930 . S
C2639 C2635 1.400 . S
C2639 C2638 1.385 . S
C2640 C2638 1.478 . S
C2640 C2642 1.381 . S
C2640 C2646 1.383 1_545 S
C2641 C2637 1.495 . S
C2641 H2647 0.959 . S
C2641 H2648 0.961 1_545 S
C2641 H2649 0.960 . S
C2642 C2640 1.381 . S
C2642 C2643 1.394 . S
C2642 H2650 0.930 . S
C2643 C2642 1.394 . S
C2643 C2644 1.383 . S
C2643 H2651 0.929 . S
C2644 C2643 1.383 . S
C2644 C2645 1.377 1_545 S
C2645 H2629 0.930 . S
C2645 C2644 1.377 1_565 S
C2645 C2646 1.379 . S
C2646 H2630 0.931 . S
C2646 C2640 1.383 1_565 S
C2646 C2645 1.379 . S
H2647 C2641 0.959 . S
H2648 C2641 0.961 1_565 S
H2649 C2641 0.960 . S
H2650 C2642 0.930 . S
H2651 C2643 0.929 . S
H2652 C2660 0.929 . S
H2653 C2662 0.930 . S
H2654 C2664 0.930 . S
H2655 C2667 0.929 . S
H2656 C2670 0.930 . S
H2657 C2672 0.960 . S
H2658 C2672 0.960 . S
H2659 C2672 0.960 . S
C2660 H2652 0.929 . S
C2660 C2661 1.377 . S
C2660 C2662 1.384 . S
C2661 C2660 1.377 . S
C2661 C2667 1.390 . S
C2662 H2653 0.930 . S
C2662 C2660 1.384 . S
C2662 C2663 1.372 . S
C2663 C2662 1.372 . S
C2663 C2664 1.400 . S
C2663 C2668 1.490 . S
C2664 H2654 0.930 . S
C2664 C2663 1.400 . S
C2664 C2667 1.386 . S
H2665 C2681 0.930 . S
H2666 C2682 0.931 . S
C2667 H2655 0.929 . S
C2667 C2661 1.390 . S
C2667 C2664 1.386 . S
C2668 C2663 1.490 . S
C2668 C2670 1.395 . S
C2668 C2671 1.403 . S
H2669 C2675 0.930 . S
C2670 H2656 0.930 . S
C2670 C2668 1.395 . S
C2670 C2673 1.403 . S
C2671 C2668 1.403 . S
C2671 C2672 1.524 . S
C2671 C2675 1.400 . S
C2672 H2657 0.960 . S
C2672 H2658 0.960 . S
C2672 H2659 0.960 . S
C2672 C2671 1.524 . S
C2673 C2670 1.403 . S
C2673 C2674 1.392 . S
C2673 C2677 1.495 . S
C2674 C2673 1.392 . S
C2674 C2675 1.385 . S
C2674 C2676 1.478 . S
C2675 H2669 0.930 . S
C2675 C2671 1.400 . S
C2675 C2674 1.385 . S
C2676 C2674 1.478 . S
C2676 C2678 1.381 . S
C2676 C2682 1.383 . S
C2677 C2673 1.495 . S
C2677 H2683 0.959 . S
C2677 H2684 0.961 . S
C2677 H2685 0.960 . S
C2678 C2676 1.381 . S
C2678 C2679 1.394 . S
C2678 H2686 0.930 . S
C2679 C2678 1.394 . S
C2679 C2680 1.383 . S
C2679 H2687 0.929 . S
C2680 C2679 1.383 . S
C2680 C2681 1.377 . S
C2681 H2665 0.930 . S
C2681 C2680 1.377 . S
C2681 C2682 1.379 . S
C2682 H2666 0.931 . S
C2682 C2676 1.383 . S
C2682 C2681 1.379 . S
H2683 C2677 0.959 . S
H2684 C2677 0.961 . S
H2685 C2677 0.960 . S
H2686 C2678 0.930 . S
H2687 C2679 0.929 . S
H2688 C2696 0.929 . S
H2689 C2698 0.930 . S
H2690 C2700 0.930 . S
H2691 C2703 0.929 . S
H2692 C2706 0.930 . S
H2693 C2708 0.960 . S
H2694 C2708 0.960 . S
H2695 C2708 0.960 . S
C2696 H2688 0.929 . S
C2696 C2697 1.377 . S
C2696 C2698 1.384 . S
C2697 C2696 1.377 . S
C2697 C2703 1.390 . S
C2698 H2689 0.930 . S
C2698 C2696 1.384 . S
C2698 C2699 1.372 . S
C2699 C2698 1.372 . S
C2699 C2700 1.400 . S
C2699 C2704 1.490 . S
C2700 H2690 0.930 . S
C2700 C2699 1.400 . S
C2700 C2703 1.386 . S
H2701 C2717 0.930 . S
H2702 C2718 0.931 . S
C2703 H2691 0.929 . S
C2703 C2697 1.390 . S
C2703 C2700 1.386 . S
C2704 C2699 1.490 . S
C2704 C2706 1.395 . S
C2704 C2707 1.403 . S
H2705 C2711 0.930 . S
C2706 H2692 0.930 . S
C2706 C2704 1.395 . S
C2706 C2709 1.403 . S
C2707 C2704 1.403 . S
C2707 C2708 1.524 . S
C2707 C2711 1.400 . S
C2708 H2693 0.960 . S
C2708 H2694 0.960 . S
C2708 H2695 0.960 . S
C2708 C2707 1.524 . S
C2709 C2706 1.403 . S
C2709 C2710 1.392 . S
C2709 C2713 1.495 . S
C2710 C2709 1.392 . S
C2710 C2711 1.385 . S
C2710 C2712 1.478 . S
C2711 H2705 0.930 . S
C2711 C2707 1.400 . S
C2711 C2710 1.385 . S
C2712 C2710 1.478 . S
C2712 C2714 1.381 . S
C2712 C2718 1.383 . S
C2713 C2709 1.495 . S
C2713 H2719 0.959 . S
C2713 H2720 0.961 . S
C2713 H2721 0.960 . S
C2714 C2712 1.381 . S
C2714 C2715 1.394 . S
C2714 H2722 0.930 . S
C2715 C2714 1.394 . S
C2715 C2716 1.383 . S
C2715 H2723 0.929 . S
C2716 C2715 1.383 . S
C2716 C2717 1.377 . S
C2717 H2701 0.930 . S
C2717 C2716 1.377 . S
C2717 C2718 1.379 . S
C2718 H2702 0.931 . S
C2718 C2712 1.383 . S
C2718 C2717 1.379 . S
H2719 C2713 0.959 . S
H2720 C2713 0.961 . S
H2721 C2713 0.960 . S
H2722 C2714 0.930 . S
H2723 C2715 0.929 . S
H2724 C2732 0.929 . S
H2725 C2734 0.930 . S
H2726 C2736 0.930 . S
H2727 C2739 0.929 . S
H2728 C2742 0.930 . S
H2729 C2744 0.960 . S
H2730 C2744 0.960 . S
H2731 C2744 0.960 . S
C2732 H2724 0.929 . S
C2732 C2733 1.377 . S
C2732 C2734 1.384 . S
C2733 C2732 1.377 . S
C2733 C2739 1.390 . S
C2734 H2725 0.930 . S
C2734 C2732 1.384 . S
C2734 C2735 1.372 . S
C2735 C2734 1.372 . S
C2735 C2736 1.400 . S
C2735 C2740 1.490 . S
C2736 H2726 0.930 . S
C2736 C2735 1.400 . S
C2736 C2739 1.386 . S
H2737 C2753 0.930 . S
H2738 C2754 0.931 . S
C2739 H2727 0.929 . S
C2739 C2733 1.390 . S
C2739 C2736 1.386 . S
C2740 C2735 1.490 . S
C2740 C2742 1.395 . S
C2740 C2743 1.403 . S
H2741 C2747 0.930 . S
C2742 H2728 0.930 . S
C2742 C2740 1.395 . S
C2742 C2745 1.403 . S
C2743 C2740 1.403 . S
C2743 C2744 1.524 . S
C2743 C2747 1.400 . S
C2744 H2729 0.960 . S
C2744 H2730 0.960 . S
C2744 H2731 0.960 . S
C2744 C2743 1.524 . S
C2745 C2742 1.403 . S
C2745 C2746 1.392 . S
C2745 C2749 1.495 . S
C2746 C2745 1.392 . S
C2746 C2747 1.385 . S
C2746 C2748 1.478 . S
C2747 H2741 0.930 . S
C2747 C2743 1.400 . S
C2747 C2746 1.385 . S
C2748 C2746 1.478 . S
C2748 C2750 1.381 . S
C2748 C2754 1.383 . S
C2749 C2745 1.495 . S
C2749 H2755 0.959 . S
C2749 H2756 0.961 . S
C2749 H2757 0.960 . S
C2750 C2748 1.381 . S
C2750 C2751 1.394 . S
C2750 H2758 0.930 . S
C2751 C2750 1.394 . S
C2751 C2752 1.383 . S
C2751 H2759 0.929 . S
C2752 C2751 1.383 . S
C2752 C2753 1.377 . S
C2753 H2737 0.930 . S
C2753 C2752 1.377 . S
C2753 C2754 1.379 . S
C2754 H2738 0.931 . S
C2754 C2748 1.383 . S
C2754 C2753 1.379 . S
H2755 C2749 0.959 . S
H2756 C2749 0.961 . S
H2757 C2749 0.960 . S
H2758 C2750 0.930 . S
H2759 C2751 0.929 . S
H2760 C2768 0.929 . S
H2761 C2770 0.930 . S
H2762 C2772 0.930 . S
H2763 C2775 0.929 . S
H2764 C2778 0.930 . S
H2765 C2780 0.960 . S
H2766 C2780 0.960 . S
H2767 C2780 0.960 . S
C2768 H2760 0.929 . S
C2768 C2769 1.377 . S
C2768 C2770 1.384 . S
C2769 C2768 1.377 . S
C2769 C2775 1.390 . S
C2770 H2761 0.930 . S
C2770 C2768 1.384 . S
C2770 C2771 1.372 . S
C2771 C2770 1.372 . S
C2771 C2772 1.400 . S
C2771 C2776 1.490 . S
C2772 H2762 0.930 . S
C2772 C2771 1.400 . S
C2772 C2775 1.386 . S
H2773 C2789 0.930 . S
H2774 C2790 0.931 . S
C2775 H2763 0.929 . S
C2775 C2769 1.390 . S
C2775 C2772 1.386 . S
C2776 C2771 1.490 . S
C2776 C2778 1.395 . S
C2776 C2779 1.403 . S
H2777 C2783 0.930 . S
C2778 H2764 0.930 . S
C2778 C2776 1.395 . S
C2778 C2781 1.403 . S
C2779 C2776 1.403 . S
C2779 C2780 1.524 . S
C2779 C2783 1.400 . S
C2780 H2765 0.960 . S
C2780 H2766 0.960 . S
C2780 H2767 0.960 . S
C2780 C2779 1.524 . S
C2781 C2778 1.403 . S
C2781 C2782 1.392 . S
C2781 C2785 1.495 . S
C2782 C2781 1.392 . S
C2782 C2783 1.385 . S
C2782 C2784 1.478 . S
C2783 H2777 0.930 . S
C2783 C2779 1.400 . S
C2783 C2782 1.385 . S
C2784 C2782 1.478 . S
C2784 C2786 1.381 . S
C2784 C2790 1.383 . S
C2785 C2781 1.495 . S
C2785 H2791 0.959 . S
C2785 H2792 0.961 . S
C2785 H2793 0.960 . S
C2786 C2784 1.381 . S
C2786 C2787 1.394 . S
C2786 H2794 0.930 . S
C2787 C2786 1.394 . S
C2787 C2788 1.383 . S
C2787 H2795 0.929 . S
C2788 C2787 1.383 . S
C2788 C2789 1.377 . S
C2789 H2773 0.930 . S
C2789 C2788 1.377 . S
C2789 C2790 1.379 . S
C2790 H2774 0.931 . S
C2790 C2784 1.383 . S
C2790 C2789 1.379 . S
H2791 C2785 0.959 . S
H2792 C2785 0.961 . S
H2793 C2785 0.960 . S
H2794 C2786 0.930 . S
H2795 C2787 0.929 . S
H2796 C2804 0.929 . S
H2797 C2806 0.930 . S
H2798 C2808 0.930 . S
H2799 C2811 0.929 . S
H2800 C2814 0.930 . S
H2801 C2816 0.960 . S
H2802 C2816 0.960 . S
H2803 C2816 0.960 . S
C2804 H2796 0.929 . S
C2804 C2805 1.393 . S
C2804 C2806 1.384 . S
C2805 C2804 1.393 . S
C2805 C2811 1.376 1_556 S
C2806 H2797 0.930 . S
C2806 C2804 1.384 . S
C2806 C2807 1.384 . S
C2807 C2806 1.384 . S
C2807 C2808 1.387 1_556 S
C2807 C2812 1.491 1_556 S
C2808 H2798 0.930 . S
C2808 C2807 1.387 1_554 S
C2808 C2811 1.386 . S
H2809 C2825 0.930 . S
H2810 C2826 0.931 . S
C2811 H2799 0.929 . S
C2811 C2805 1.376 1_554 S
C2811 C2808 1.386 . S
C2812 C2807 1.491 1_554 S
C2812 C2814 1.395 . S
C2812 C2815 1.402 1_554 S
H2813 C2819 0.930 . S
C2814 H2800 0.930 . S
C2814 C2812 1.395 . S
C2814 C2817 1.403 . S
C2815 C2812 1.402 1_556 S
C2815 C2816 1.524 . S
C2815 C2819 1.400 . S
C2816 H2801 0.960 . S
C2816 H2802 0.960 . S
C2816 H2803 0.960 . S
C2816 C2815 1.524 . S
C2817 C2814 1.403 . S
C2817 C2818 1.392 . S
C2817 C2821 1.495 . S
C2818 C2817 1.392 . S
C2818 C2819 1.385 1_554 S
C2818 C2820 1.478 . S
C2819 H2813 0.930 . S
C2819 C2815 1.400 . S
C2819 C2818 1.385 1_556 S
C2820 C2818 1.478 . S
C2820 C2822 1.381 1_554 S
C2820 C2826 1.383 . S
C2821 C2817 1.495 . S
C2821 H2827 0.959 . S
C2821 H2828 0.961 . S
C2821 H2829 0.960 . S
C2822 C2820 1.381 1_556 S
C2822 C2823 1.394 . S
C2822 H2830 0.930 . S
C2823 C2822 1.394 . S
C2823 C2824 1.383 1_556 S
C2823 H2831 0.929 . S
C2824 C2823 1.383 1_554 S
C2824 C2825 1.377 . S
C2825 H2809 0.930 . S
C2825 C2824 1.377 . S
C2825 C2826 1.379 . S
C2826 H2810 0.931 . S
C2826 C2820 1.383 . S
C2826 C2825 1.379 . S
H2827 C2821 0.959 . S
H2828 C2821 0.961 . S
H2829 C2821 0.960 . S
H2830 C2822 0.930 . S
H2831 C2823 0.929 . S
H2832 C2840 0.929 . S
H2833 C2842 0.930 . S
H2834 C2844 0.930 . S
H2835 C2847 0.929 . S
H2836 C2850 0.930 . S
H2837 C2852 0.960 . S
H2838 C2852 0.960 . S
H2839 C2852 0.960 . S
C2840 H2832 0.929 . S
C2840 C2841 1.377 . S
C2840 C2842 1.384 . S
C2841 C2840 1.377 . S
C2841 C2847 1.390 . S
C2842 H2833 0.930 . S
C2842 C2840 1.384 . S
C2842 C2843 1.372 . S
C2843 C2842 1.372 . S
C2843 C2844 1.400 . S
C2843 C2848 1.490 . S
C2844 H2834 0.930 . S
C2844 C2843 1.400 . S
C2844 C2847 1.386 . S
H2845 C2861 0.930 . S
H2846 C2862 0.931 . S
C2847 H2835 0.929 . S
C2847 C2841 1.390 . S
C2847 C2844 1.386 . S
C2848 C2843 1.490 . S
C2848 C2850 1.395 . S
C2848 C2851 1.403 . S
H2849 C2855 0.930 . S
C2850 H2836 0.930 . S
C2850 C2848 1.395 . S
C2850 C2853 1.403 . S
C2851 C2848 1.403 . S
C2851 C2852 1.524 . S
C2851 C2855 1.400 . S
C2852 H2837 0.960 . S
C2852 H2838 0.960 . S
C2852 H2839 0.960 . S
C2852 C2851 1.524 . S
C2853 C2850 1.403 . S
C2853 C2854 1.392 . S
C2853 C2857 1.495 . S
C2854 C2853 1.392 . S
C2854 C2855 1.385 . S
C2854 C2856 1.478 . S
C2855 H2849 0.930 . S
C2855 C2851 1.400 . S
C2855 C2854 1.385 . S
C2856 C2854 1.478 . S
C2856 C2858 1.381 . S
C2856 C2862 1.383 . S
C2857 C2853 1.495 . S
C2857 H2863 0.959 . S
C2857 H2864 0.961 . S
C2857 H2865 0.960 . S
C2858 C2856 1.381 . S
C2858 C2859 1.394 . S
C2858 H2866 0.930 . S
C2859 C2858 1.394 . S
C2859 C2860 1.383 . S
C2859 H2867 0.929 . S
C2860 C2859 1.383 . S
C2860 C2861 1.377 . S
C2861 H2845 0.930 . S
C2861 C2860 1.377 . S
C2861 C2862 1.379 . S
C2862 H2846 0.931 . S
C2862 C2856 1.383 . S
C2862 C2861 1.379 . S
H2863 C2857 0.959 . S
H2864 C2857 0.961 . S
H2865 C2857 0.960 . S
H2866 C2858 0.930 . S
H2867 C2859 0.929 . S
H2868 C2876 0.929 . S
H2869 C2878 0.930 . S
H2870 C2880 0.930 . S
H2871 C2883 0.929 . S
H2872 C2886 0.930 . S
H2873 C2888 0.960 . S
H2874 C2888 0.960 . S
H2875 C2888 0.960 . S
C2876 H2868 0.929 . S
C2876 C2877 1.377 . S
C2876 C2878 1.384 . S
C2877 C2876 1.377 . S
C2877 C2883 1.390 . S
C2878 H2869 0.930 . S
C2878 C2876 1.384 . S
C2878 C2879 1.372 . S
C2879 C2878 1.372 . S
C2879 C2880 1.400 . S
C2879 C2884 1.490 . S
C2880 H2870 0.930 . S
C2880 C2879 1.400 . S
C2880 C2883 1.386 . S
H2881 C2897 0.930 . S
H2882 C2898 0.931 . S
C2883 H2871 0.929 . S
C2883 C2877 1.390 . S
C2883 C2880 1.386 . S
C2884 C2879 1.490 . S
C2884 C2886 1.395 . S
C2884 C2887 1.403 . S
H2885 C2891 0.930 . S
C2886 H2872 0.930 . S
C2886 C2884 1.395 . S
C2886 C2889 1.403 . S
C2887 C2884 1.403 . S
C2887 C2888 1.524 . S
C2887 C2891 1.400 . S
C2888 H2873 0.960 . S
C2888 H2874 0.960 . S
C2888 H2875 0.960 . S
C2888 C2887 1.524 . S
C2889 C2886 1.403 . S
C2889 C2890 1.392 . S
C2889 C2893 1.495 . S
C2890 C2889 1.392 . S
C2890 C2891 1.385 . S
C2890 C2892 1.478 . S
C2891 H2885 0.930 . S
C2891 C2887 1.400 . S
C2891 C2890 1.385 . S
C2892 C2890 1.478 . S
C2892 C2894 1.381 . S
C2892 C2898 1.383 . S
C2893 C2889 1.495 . S
C2893 H2899 0.959 . S
C2893 H2900 0.961 . S
C2893 H2901 0.960 . S
C2894 C2892 1.381 . S
C2894 C2895 1.394 . S
C2894 H2902 0.930 . S
C2895 C2894 1.394 . S
C2895 C2896 1.383 . S
C2895 H2903 0.929 . S
C2896 C2895 1.383 . S
C2896 C2897 1.377 . S
C2897 H2881 0.930 . S
C2897 C2896 1.377 . S
C2897 C2898 1.379 . S
C2898 H2882 0.931 . S
C2898 C2892 1.383 . S
C2898 C2897 1.379 . S
H2899 C2893 0.959 . S
H2900 C2893 0.961 . S
H2901 C2893 0.960 . S
H2902 C2894 0.930 . S
H2903 C2895 0.929 . S
H2904 C2912 0.929 . S
H2905 C2914 0.930 . S
H2906 C2916 0.930 . S
H2907 C2919 0.929 . S
H2908 C2922 0.930 . S
H2909 C2924 0.960 . S
H2910 C2924 0.960 . S
H2911 C2924 0.960 . S
C2912 H2904 0.929 . S
C2912 C2913 1.377 . S
C2912 C2914 1.384 . S
C2913 C2912 1.377 . S
C2913 C2919 1.390 . S
C2914 H2905 0.930 . S
C2914 C2912 1.384 . S
C2914 C2915 1.372 . S
C2915 C2914 1.372 . S
C2915 C2916 1.400 . S
C2915 C2920 1.490 . S
C2916 H2906 0.930 . S
C2916 C2915 1.400 . S
C2916 C2919 1.386 . S
H2917 C2933 0.930 . S
H2918 C2934 0.931 . S
C2919 H2907 0.929 . S
C2919 C2913 1.390 . S
C2919 C2916 1.386 . S
C2920 C2915 1.490 . S
C2920 C2922 1.395 . S
C2920 C2923 1.403 . S
H2921 C2927 0.930 . S
C2922 H2908 0.930 . S
C2922 C2920 1.395 . S
C2922 C2925 1.403 . S
C2923 C2920 1.403 . S
C2923 C2924 1.524 . S
C2923 C2927 1.400 . S
C2924 H2909 0.960 . S
C2924 H2910 0.960 . S
C2924 H2911 0.960 . S
C2924 C2923 1.524 . S
C2925 C2922 1.403 . S
C2925 C2926 1.392 . S
C2925 C2929 1.495 . S
C2926 C2925 1.392 . S
C2926 C2927 1.385 . S
C2926 C2928 1.478 . S
C2927 H2921 0.930 . S
C2927 C2923 1.400 . S
C2927 C2926 1.385 . S
C2928 C2926 1.478 . S
C2928 C2930 1.381 . S
C2928 C2934 1.383 . S
C2929 C2925 1.495 . S
C2929 H2935 0.959 . S
C2929 H2936 0.961 . S
C2929 H2937 0.960 . S
C2930 C2928 1.381 . S
C2930 C2931 1.394 . S
C2930 H2938 0.930 . S
C2931 C2930 1.394 . S
C2931 C2932 1.383 . S
C2931 H2939 0.929 . S
C2932 C2931 1.383 . S
C2932 C2933 1.377 . S
C2933 H2917 0.930 . S
C2933 C2932 1.377 . S
C2933 C2934 1.379 . S
C2934 H2918 0.931 . S
C2934 C2928 1.383 . S
C2934 C2933 1.379 . S
H2935 C2929 0.959 . S
H2936 C2929 0.961 . S
H2937 C2929 0.960 . S
H2938 C2930 0.930 . S
H2939 C2931 0.929 . S
H2940 C2948 0.929 . S
H2941 C2950 0.930 . S
H2942 C2952 0.930 . S
H2943 C2955 0.929 . S
H2944 C2958 0.930 . S
H2945 C2960 0.960 . S
H2946 C2960 0.960 . S
H2947 C2960 0.960 . S
C2948 H2940 0.929 . S
C2948 C2949 1.381 1_455 S
C2948 C2950 1.384 . S
C2949 C2948 1.381 1_655 S
C2949 C2955 1.386 . S
C2950 H2941 0.930 . S
C2950 C2948 1.384 . S
C2950 C2951 1.372 . S
C2951 C2950 1.372 . S
C2951 C2952 1.400 1_455 S
C2951 C2956 1.490 . S
C2952 H2942 0.930 . S
C2952 C2951 1.400 1_655 S
C2952 C2955 1.386 . S
H2953 C2969 0.930 . S
H2954 C2970 0.931 . S
C2955 H2943 0.929 . S
C2955 C2949 1.386 . S
C2955 C2952 1.386 . S
C2956 C2951 1.490 . S
C2956 C2958 1.395 . S
C2956 C2959 1.403 1_455 S
H2957 C2963 0.930 . S
C2958 H2944 0.930 . S
C2958 C2956 1.395 . S
C2958 C2961 1.403 . S
C2959 C2956 1.403 1_655 S
C2959 C2960 1.524 . S
C2959 C2963 1.400 . S
C2960 H2945 0.960 . S
C2960 H2946 0.960 . S
C2960 H2947 0.960 . S
C2960 C2959 1.524 . S
C2961 C2958 1.403 . S
C2961 C2962 1.392 . S
C2961 C2965 1.495 . S
C2962 C2961 1.392 . S
C2962 C2963 1.385 1_455 S
C2962 C2964 1.478 . S
C2963 H2957 0.930 . S
C2963 C2959 1.400 . S
C2963 C2962 1.385 1_655 S
C2964 C2962 1.478 . S
C2964 C2966 1.381 . S
C2964 C2970 1.383 1_455 S
C2965 C2961 1.495 . S
C2965 H2971 0.959 . S
C2965 H2972 0.961 . S
C2965 H2973 0.960 . S
C2966 C2964 1.381 . S
C2966 C2967 1.394 . S
C2966 H2974 0.930 . S
C2967 C2966 1.394 . S
C2967 C2968 1.383 . S
C2967 H2975 0.929 . S
C2968 C2967 1.383 . S
C2968 C2969 1.377 1_455 S
C2969 H2953 0.930 . S
C2969 C2968 1.377 1_655 S
C2969 C2970 1.379 . S
C2970 H2954 0.931 . S
C2970 C2964 1.383 1_655 S
C2970 C2969 1.379 . S
H2971 C2965 0.959 . S
H2972 C2965 0.961 . S
H2973 C2965 0.960 . S
H2974 C2966 0.930 . S
H2975 C2967 0.929 . S
H2976 C2984 0.929 . S
H2977 C2986 0.930 . S
H2978 C2988 0.930 . S
H2979 C2991 0.929 . S
H2980 C2994 0.930 . S
H2981 C2996 0.960 . S
H2982 C2996 0.960 . S
H2983 C2996 0.960 . S
C2984 H2976 0.929 . S
C2984 C2985 1.377 . S
C2984 C2986 1.384 . S
C2985 C2984 1.377 . S
C2985 C2991 1.390 . S
C2986 H2977 0.930 . S
C2986 C2984 1.384 . S
C2986 C2987 1.372 . S
C2987 C2986 1.372 . S
C2987 C2988 1.400 . S
C2987 C2992 1.490 . S
C2988 H2978 0.930 . S
C2988 C2987 1.400 . S
C2988 C2991 1.386 . S
H2989 C3005 0.930 . S
H2990 C3006 0.931 . S
C2991 H2979 0.929 . S
C2991 C2985 1.390 . S
C2991 C2988 1.386 . S
C2992 C2987 1.490 . S
C2992 C2994 1.395 . S
C2992 C2995 1.403 . S
H2993 C2999 0.930 . S
C2994 H2980 0.930 . S
C2994 C2992 1.395 . S
C2994 C2997 1.403 . S
C2995 C2992 1.403 . S
C2995 C2996 1.524 . S
C2995 C2999 1.400 . S
C2996 H2981 0.960 . S
C2996 H2982 0.960 . S
C2996 H2983 0.960 . S
C2996 C2995 1.524 . S
C2997 C2994 1.403 . S
C2997 C2998 1.392 . S
C2997 C3001 1.495 . S
C2998 C2997 1.392 . S
C2998 C2999 1.385 . S
C2998 C3000 1.478 . S
C2999 H2993 0.930 . S
C2999 C2995 1.400 . S
C2999 C2998 1.385 . S
C3000 C2998 1.478 . S
C3000 C3002 1.381 . S
C3000 C3006 1.383 . S
C3001 C2997 1.495 . S
C3001 H3007 0.959 . S
C3001 H3008 0.961 . S
C3001 H3009 0.960 . S
C3002 C3000 1.381 . S
C3002 C3003 1.394 . S
C3002 H3010 0.930 . S
C3003 C3002 1.394 . S
C3003 C3004 1.383 . S
C3003 H3011 0.929 . S
C3004 C3003 1.383 . S
C3004 C3005 1.377 . S
C3005 H2989 0.930 . S
C3005 C3004 1.377 . S
C3005 C3006 1.379 . S
C3006 H2990 0.931 . S
C3006 C3000 1.383 . S
C3006 C3005 1.379 . S
H3007 C3001 0.959 . S
H3008 C3001 0.961 . S
H3009 C3001 0.960 . S
H3010 C3002 0.930 . S
H3011 C3003 0.929 . S
H3012 C3020 0.929 . S
H3013 C3022 0.930 . S
H3014 C3024 0.930 . S
H3015 C3027 0.929 . S
H3016 C3030 0.930 . S
H3017 C3032 0.960 . S
H3018 C3032 0.960 . S
H3019 C3032 0.960 . S
C3020 H3012 0.929 . S
C3020 C3021 1.377 . S
C3020 C3022 1.384 . S
C3021 C3020 1.377 . S
C3021 C3027 1.390 . S
C3022 H3013 0.930 . S
C3022 C3020 1.384 . S
C3022 C3023 1.372 . S
C3023 C3022 1.372 . S
C3023 C3024 1.400 . S
C3023 C3028 1.490 . S
C3024 H3014 0.930 . S
C3024 C3023 1.400 . S
C3024 C3027 1.386 . S
H3025 C3041 0.930 . S
H3026 C3042 0.931 . S
C3027 H3015 0.929 . S
C3027 C3021 1.390 . S
C3027 C3024 1.386 . S
C3028 C3023 1.490 . S
C3028 C3030 1.395 . S
C3028 C3031 1.403 . S
H3029 C3035 0.930 . S
C3030 H3016 0.930 . S
C3030 C3028 1.395 . S
C3030 C3033 1.403 . S
C3031 C3028 1.403 . S
C3031 C3032 1.524 . S
C3031 C3035 1.400 . S
C3032 H3017 0.960 . S
C3032 H3018 0.960 . S
C3032 H3019 0.960 . S
C3032 C3031 1.524 . S
C3033 C3030 1.403 . S
C3033 C3034 1.392 . S
C3033 C3037 1.495 . S
C3034 C3033 1.392 . S
C3034 C3035 1.385 . S
C3034 C3036 1.478 . S
C3035 H3029 0.930 . S
C3035 C3031 1.400 . S
C3035 C3034 1.385 . S
C3036 C3034 1.478 . S
C3036 C3038 1.381 . S
C3036 C3042 1.383 . S
C3037 C3033 1.495 . S
C3037 H3043 0.959 . S
C3037 H3044 0.961 . S
C3037 H3045 0.960 . S
C3038 C3036 1.381 . S
C3038 C3039 1.394 . S
C3038 H3046 0.930 . S
C3039 C3038 1.394 . S
C3039 C3040 1.383 . S
C3039 H3047 0.929 . S
C3040 C3039 1.383 . S
C3040 C3041 1.377 . S
C3041 H3025 0.930 . S
C3041 C3040 1.377 . S
C3041 C3042 1.379 . S
C3042 H3026 0.931 . S
C3042 C3036 1.383 . S
C3042 C3041 1.379 . S
H3043 C3037 0.959 . S
H3044 C3037 0.961 . S
H3045 C3037 0.960 . S
H3046 C3038 0.930 . S
H3047 C3039 0.929 . S
H3048 C3056 0.929 . S
H3049 C3058 0.930 . S
H3050 C3060 0.930 . S
H3051 C3063 0.929 . S
H3052 C3066 0.930 . S
H3053 C3068 0.960 . S
H3054 C3068 0.960 . S
H3055 C3068 0.960 1_545 S
C3056 H3048 0.929 . S
C3056 C3057 1.441 . S
C3056 C3058 1.384 . S
C3057 C3056 1.441 . S
C3057 C3063 1.347 1_565 S
C3058 H3049 0.930 . S
C3058 C3056 1.384 . S
C3058 C3059 1.372 . S
C3059 C3058 1.372 . S
C3059 C3060 1.400 1_565 S
C3059 C3064 1.490 . S
C3060 H3050 0.930 . S
C3060 C3059 1.400 1_545 S
C3060 C3063 1.386 . S
H3061 C3077 0.962 . S
H3062 C3078 0.931 . S
C3063 H3051 0.929 . S
C3063 C3057 1.347 1_545 S
C3063 C3060 1.386 . S
C3064 C3059 1.490 . S
C3064 C3066 1.395 . S
C3064 C3067 1.403 . S
H3065 C3071 0.930 . S
C3066 H3052 0.930 . S
C3066 C3064 1.395 . S
C3066 C3069 1.403 . S
C3067 C3064 1.403 . S
C3067 C3068 1.524 . S
C3067 C3071 1.400 . S
C3068 H3053 0.960 . S
C3068 H3054 0.960 . S
C3068 H3055 0.960 1_565 S
C3068 C3067 1.524 . S
C3069 C3066 1.403 . S
C3069 C3070 1.392 . S
C3069 C3073 1.495 . S
C3070 C3069 1.392 . S
C3070 C3071 1.385 . S
C3070 C3072 1.478 . S
C3071 H3065 0.930 . S
C3071 C3067 1.400 . S
C3071 C3070 1.385 . S
C3072 C3070 1.478 . S
C3072 C3074 1.381 . S
C3072 C3078 1.383 1_565 S
C3073 C3069 1.495 . S
C3073 H3079 0.959 . S
C3073 H3080 0.963 . S
C3073 H3081 0.960 . S
C3074 C3072 1.381 . S
C3074 C3075 1.394 . S
C3074 H3082 0.930 . S
C3075 C3074 1.394 . S
C3075 C3076 1.383 . S
C3075 H3083 0.929 . S
C3076 C3075 1.383 . S
C3076 C3077 1.335 1_565 S
C3077 H3061 0.962 . S
C3077 C3076 1.335 1_545 S
C3077 C3078 1.391 . S
C3078 H3062 0.931 . S
C3078 C3072 1.383 1_545 S
C3078 C3077 1.391 . S
H3079 C3073 0.959 . S
H3080 C3073 0.963 . S
H3081 C3073 0.960 . S
H3082 C3074 0.930 . S
H3083 C3075 0.929 . S
H3084 C3092 0.929 1_565 S
H3085 C3094 0.930 1_565 S
H3086 C3096 0.930 . S
H3087 C3099 0.929 . S
H3088 C3102 0.930 . S
H3089 C3104 0.960 . S
H3090 C3104 0.960 . S
H3091 C3104 0.960 1_545 S
C3092 H3084 0.929 1_545 S
C3092 C3093 1.377 . S
C3092 C3094 1.384 . S
C3093 C3092 1.377 . S
C3093 C3099 1.390 . S
C3094 H3085 0.930 1_545 S
C3094 C3092 1.384 . S
C3094 C3095 1.372 . S
C3095 C3094 1.372 . S
C3095 C3096 1.400 . S
C3095 C3100 1.490 . S
C3096 H3086 0.930 . S
C3096 C3095 1.400 . S
C3096 C3099 1.386 . S
H3097 C3113 0.930 . S
H3098 C3114 0.931 . S
C3099 H3087 0.929 . S
C3099 C3093 1.390 . S
C3099 C3096 1.386 . S
C3100 C3095 1.490 . S
C3100 C3102 1.395 . S
C3100 C3103 1.403 . S
H3101 C3107 0.936 . S
C3102 H3088 0.930 . S
C3102 C3100 1.395 . S
C3102 C3105 1.403 . S
C3103 C3100 1.403 . S
C3103 C3104 1.524 1_545 S
C3103 C3107 1.400 . S
C3104 H3089 0.960 . S
C3104 H3090 0.960 . S
C3104 H3091 0.960 1_565 S
C3104 C3103 1.524 1_565 S
C3105 C3102 1.403 . S
C3105 C3106 1.392 . S
C3105 C3109 1.495 . S
C3106 C3105 1.392 . S
C3106 C3107 1.385 . S
C3106 C3108 1.478 . S
C3107 H3101 0.936 . S
C3107 C3103 1.400 . S
C3107 C3106 1.385 . S
C3108 C3106 1.478 . S
C3108 C3110 1.338 1_545 S
C3108 C3114 1.383 . S
C3109 C3105 1.495 . S
C3109 H3115 0.959 . S
C3109 H3116 0.961 . S
C3109 H3117 0.960 . S
C3110 C3108 1.338 1_565 S
C3110 C3111 1.395 . S
C3110 H3118 0.977 . S
C3111 C3110 1.395 . S
C3111 C3112 1.383 1_565 S
C3111 H3119 0.929 . S
C3112 C3111 1.383 1_545 S
C3112 C3113 1.377 . S
C3113 H3097 0.930 . S
C3113 C3112 1.377 . S
C3113 C3114 1.379 . S
C3114 H3098 0.931 . S
C3114 C3108 1.383 . S
C3114 C3113 1.379 . S
H3115 C3109 0.959 . S
H3116 C3109 0.961 . S
H3117 C3109 0.960 . S
H3118 C3110 0.977 . S
H3119 C3111 0.929 . S
H3120 C3128 0.929 . S
H3121 C3130 0.930 . S
H3122 C3132 0.930 . S
H3123 C3135 0.929 . S
H3124 C3138 0.930 . S
H3125 C3140 0.960 . S
H3126 C3140 0.960 . S
H3127 C3140 0.960 . S
C3128 H3120 0.929 . S
C3128 C3129 1.377 . S
C3128 C3130 1.384 . S
C3129 C3128 1.377 . S
C3129 C3135 1.390 . S
C3130 H3121 0.930 . S
C3130 C3128 1.384 . S
C3130 C3131 1.372 . S
C3131 C3130 1.372 . S
C3131 C3132 1.400 . S
C3131 C3136 1.490 . S
C3132 H3122 0.930 . S
C3132 C3131 1.400 . S
C3132 C3135 1.386 . S
H3133 C3149 0.930 . S
H3134 C3150 0.931 . S
C3135 H3123 0.929 . S
C3135 C3129 1.390 . S
C3135 C3132 1.386 . S
C3136 C3131 1.490 . S
C3136 C3138 1.395 . S
C3136 C3139 1.403 . S
H3137 C3143 0.930 . S
C3138 H3124 0.930 . S
C3138 C3136 1.395 . S
C3138 C3141 1.403 . S
C3139 C3136 1.403 . S
C3139 C3140 1.524 . S
C3139 C3143 1.400 . S
C3140 H3125 0.960 . S
C3140 H3126 0.960 . S
C3140 H3127 0.960 . S
C3140 C3139 1.524 . S
C3141 C3138 1.403 . S
C3141 C3142 1.392 . S
C3141 C3145 1.495 . S
C3142 C3141 1.392 . S
C3142 C3143 1.385 . S
C3142 C3144 1.478 . S
C3143 H3137 0.930 . S
C3143 C3139 1.400 . S
C3143 C3142 1.385 . S
C3144 C3142 1.478 . S
C3144 C3146 1.381 . S
C3144 C3150 1.383 . S
C3145 C3141 1.495 . S
C3145 H3151 0.959 . S
C3145 H3152 0.961 . S
C3145 H3153 0.960 . S
C3146 C3144 1.381 . S
C3146 C3147 1.394 . S
C3146 H3154 0.930 . S
C3147 C3146 1.394 . S
C3147 C3148 1.383 . S
C3147 H3155 0.929 . S
C3148 C3147 1.383 . S
C3148 C3149 1.377 . S
C3149 H3133 0.930 . S
C3149 C3148 1.377 . S
C3149 C3150 1.379 . S
C3150 H3134 0.931 . S
C3150 C3144 1.383 . S
C3150 C3149 1.379 . S
H3151 C3145 0.959 . S
H3152 C3145 0.961 . S
H3153 C3145 0.960 . S
H3154 C3146 0.930 . S
H3155 C3147 0.929 . S
H3156 C3164 0.929 . S
H3157 C3166 0.930 . S
H3158 C3168 0.930 . S
H3159 C3171 0.929 . S
H3160 C3174 0.930 . S
H3161 C3176 0.960 . S
H3162 C3176 0.960 . S
H3163 C3176 0.960 . S
C3164 H3156 0.929 . S
C3164 C3165 1.377 1_556 S
C3164 C3166 1.384 . S
C3165 C3164 1.377 1_554 S
C3165 C3171 1.390 . S
C3166 H3157 0.930 . S
C3166 C3164 1.384 . S
C3166 C3167 1.372 1_556 S
C3167 C3166 1.372 1_554 S
C3167 C3168 1.400 . S
C3167 C3172 1.490 . S
C3168 H3158 0.930 . S
C3168 C3167 1.400 . S
C3168 C3171 1.386 . S
H3169 C3185 0.930 . S
H3170 C3186 0.931 . S
C3171 H3159 0.929 . S
C3171 C3165 1.390 . S
C3171 C3168 1.386 . S
C3172 C3167 1.490 . S
C3172 C3174 1.395 . S
C3172 C3175 1.403 . S
H3173 C3179 0.930 . S
C3174 H3160 0.930 . S
C3174 C3172 1.395 . S
C3174 C3177 1.403 . S
C3175 C3172 1.403 . S
C3175 C3176 1.524 . S
C3175 C3179 1.400 . S
C3176 H3161 0.960 . S
C3176 H3162 0.960 . S
C3176 H3163 0.960 . S
C3176 C3175 1.524 . S
C3177 C3174 1.403 . S
C3177 C3178 1.392 . S
C3177 C3181 1.495 . S
C3178 C3177 1.392 . S
C3178 C3179 1.385 . S
C3178 C3180 1.478 . S
C3179 H3173 0.930 . S
C3179 C3175 1.400 . S
C3179 C3178 1.385 . S
C3180 C3178 1.478 . S
C3180 C3182 1.381 1_554 S
C3180 C3186 1.383 . S
C3181 C3177 1.495 . S
C3181 H3187 0.959 . S
C3181 H3188 0.961 . S
C3181 H3189 0.960 1_554 S
C3182 C3180 1.381 1_556 S
C3182 C3183 1.394 . S
C3182 H3190 0.930 . S
C3183 C3182 1.394 . S
C3183 C3184 1.383 1_556 S
C3183 H3191 0.929 . S
C3184 C3183 1.383 1_554 S
C3184 C3185 1.377 . S
C3185 H3169 0.930 . S
C3185 C3184 1.377 . S
C3185 C3186 1.379 . S
C3186 H3170 0.931 . S
C3186 C3180 1.383 . S
C3186 C3185 1.379 . S
H3187 C3181 0.959 . S
H3188 C3181 0.961 . S
H3189 C3181 0.960 1_556 S
H3190 C3182 0.930 . S
H3191 C3183 0.929 . S
H3192 C3200 0.929 . S
H3193 C3202 0.930 . S
H3194 C3204 0.930 . S
H3195 C3207 0.929 . S
H3196 C3210 0.930 . S
H3197 C3212 0.960 . S
H3198 C3212 0.960 . S
H3199 C3212 0.960 . S
C3200 H3192 0.929 . S
C3200 C3201 1.377 . S
C3200 C3202 1.384 . S
C3201 C3200 1.377 . S
C3201 C3207 1.390 . S
C3202 H3193 0.930 . S
C3202 C3200 1.384 . S
C3202 C3203 1.372 . S
C3203 C3202 1.372 . S
C3203 C3204 1.400 . S
C3203 C3208 1.490 . S
C3204 H3194 0.930 . S
C3204 C3203 1.400 . S
C3204 C3207 1.386 . S
H3205 C3221 0.930 . S
H3206 C3222 0.931 . S
C3207 H3195 0.929 . S
C3207 C3201 1.390 . S
C3207 C3204 1.386 . S
C3208 C3203 1.490 . S
C3208 C3210 1.395 . S
C3208 C3211 1.403 . S
H3209 C3215 0.930 . S
C3210 H3196 0.930 . S
C3210 C3208 1.395 . S
C3210 C3213 1.403 . S
C3211 C3208 1.403 . S
C3211 C3212 1.524 . S
C3211 C3215 1.400 . S
C3212 H3197 0.960 . S
C3212 H3198 0.960 . S
C3212 H3199 0.960 . S
C3212 C3211 1.524 . S
C3213 C3210 1.403 . S
C3213 C3214 1.392 . S
C3213 C3217 1.495 . S
C3214 C3213 1.392 . S
C3214 C3215 1.385 . S
C3214 C3216 1.478 . S
C3215 H3209 0.930 . S
C3215 C3211 1.400 . S
C3215 C3214 1.385 . S
C3216 C3214 1.478 . S
C3216 C3218 1.381 . S
C3216 C3222 1.383 . S
C3217 C3213 1.495 . S
C3217 H3223 0.959 . S
C3217 H3224 0.961 . S
C3217 H3225 0.960 . S
C3218 C3216 1.381 . S
C3218 C3219 1.394 . S
C3218 H3226 0.930 . S
C3219 C3218 1.394 . S
C3219 C3220 1.383 . S
C3219 H3227 0.929 . S
C3220 C3219 1.383 . S
C3220 C3221 1.377 . S
C3221 H3205 0.930 . S
C3221 C3220 1.377 . S
C3221 C3222 1.379 . S
C3222 H3206 0.931 . S
C3222 C3216 1.383 . S
C3222 C3221 1.379 . S
H3223 C3217 0.959 . S
H3224 C3217 0.961 . S
H3225 C3217 0.960 . S
H3226 C3218 0.930 . S
H3227 C3219 0.929 . S
H3228 C3236 0.932 . S
H3229 C3238 0.930 . S
H3230 C3240 0.930 . S
H3231 C3243 0.942 . S
H3232 C3246 0.930 . S
H3233 C3248 0.960 . S
H3234 C3248 0.960 . S
H3235 C3248 0.960 . S
C3236 H3228 0.932 . S
C3236 C3237 1.383 . S
C3236 C3238 1.384 . S
C3237 C3236 1.383 . S
C3237 C3243 1.393 . S
C3238 H3229 0.930 . S
C3238 C3236 1.384 . S
C3238 C3239 1.372 . S
C3239 C3238 1.372 . S
C3239 C3240 1.400 . S
C3239 C3244 1.490 . S
C3240 H3230 0.930 . S
C3240 C3239 1.400 . S
C3240 C3243 1.386 . S
H3241 C3257 0.930 . S
H3242 C3258 0.931 . S
C3243 H3231 0.942 . S
C3243 C3237 1.393 . S
C3243 C3240 1.386 . S
C3244 C3239 1.490 . S
C3244 C3246 1.395 . S
C3244 C3247 1.403 1_556 S
H3245 C3251 0.930 . S
C3246 H3232 0.930 . S
C3246 C3244 1.395 . S
C3246 C3249 1.403 . S
C3247 C3244 1.403 1_554 S
C3247 C3248 1.524 . S
C3247 C3251 1.400 . S
C3248 H3233 0.960 . S
C3248 H3234 0.960 . S
C3248 H3235 0.960 . S
C3248 C3247 1.524 . S
C3249 C3246 1.403 . S
C3249 C3250 1.392 . S
C3249 C3253 1.495 . S
C3250 C3249 1.392 . S
C3250 C3251 1.385 1_556 S
C3250 C3252 1.478 . S
C3251 H3245 0.930 . S
C3251 C3247 1.400 . S
C3251 C3250 1.385 1_554 S
C3252 C3250 1.478 . S
C3252 C3254 1.381 . S
C3252 C3258 1.383 . S
C3253 C3249 1.495 . S
C3253 H3259 0.959 . S
C3253 H3260 0.961 . S
C3253 H3261 0.960 . S
C3254 C3252 1.381 . S
C3254 C3255 1.394 . S
C3254 H3262 0.930 . S
C3255 C3254 1.394 . S
C3255 C3256 1.383 . S
C3255 H3263 0.929 . S
C3256 C3255 1.383 . S
C3256 C3257 1.377 . S
C3257 H3241 0.930 . S
C3257 C3256 1.377 . S
C3257 C3258 1.379 . S
C3258 H3242 0.931 . S
C3258 C3252 1.383 . S
C3258 C3257 1.379 . S
H3259 C3253 0.959 . S
H3260 C3253 0.961 . S
H3261 C3253 0.960 . S
H3262 C3254 0.930 . S
H3263 C3255 0.929 . S
H3264 C3272 0.929 . S
H3265 C3274 0.930 . S
H3266 C3276 0.930 . S
H3267 C3279 0.929 . S
H3268 C3282 0.930 . S
H3269 C3284 0.960 . S
H3270 C3284 0.960 . S
H3271 C3284 0.960 . S
C3272 H3264 0.929 . S
C3272 C3273 1.377 . S
C3272 C3274 1.384 . S
C3273 C3272 1.377 . S
C3273 C3279 1.390 . S
C3274 H3265 0.930 . S
C3274 C3272 1.384 . S
C3274 C3275 1.372 . S
C3275 C3274 1.372 . S
C3275 C3276 1.400 . S
C3275 C3280 1.490 . S
C3276 H3266 0.930 . S
C3276 C3275 1.400 . S
C3276 C3279 1.386 . S
H3277 C3293 0.930 . S
H3278 C3294 0.931 . S
C3279 H3267 0.929 . S
C3279 C3273 1.390 . S
C3279 C3276 1.386 . S
C3280 C3275 1.490 . S
C3280 C3282 1.395 . S
C3280 C3283 1.403 . S
H3281 C3287 0.930 . S
C3282 H3268 0.930 . S
C3282 C3280 1.395 . S
C3282 C3285 1.403 . S
C3283 C3280 1.403 . S
C3283 C3284 1.524 . S
C3283 C3287 1.400 . S
C3284 H3269 0.960 . S
C3284 H3270 0.960 . S
C3284 H3271 0.960 . S
C3284 C3283 1.524 . S
C3285 C3282 1.403 . S
C3285 C3286 1.392 . S
C3285 C3289 1.495 . S
C3286 C3285 1.392 . S
C3286 C3287 1.385 . S
C3286 C3288 1.478 . S
C3287 H3281 0.930 . S
C3287 C3283 1.400 . S
C3287 C3286 1.385 . S
C3288 C3286 1.478 . S
C3288 C3290 1.381 . S
C3288 C3294 1.383 . S
C3289 C3285 1.495 . S
C3289 H3295 0.959 . S
C3289 H3296 0.961 . S
C3289 H3297 0.960 . S
C3290 C3288 1.381 . S
C3290 C3291 1.394 . S
C3290 H3298 0.930 . S
C3291 C3290 1.394 . S
C3291 C3292 1.383 . S
C3291 H3299 0.929 . S
C3292 C3291 1.383 . S
C3292 C3293 1.377 . S
C3293 H3277 0.930 . S
C3293 C3292 1.377 . S
C3293 C3294 1.379 . S
C3294 H3278 0.931 . S
C3294 C3288 1.383 . S
C3294 C3293 1.379 . S
H3295 C3289 0.959 . S
H3296 C3289 0.961 . S
H3297 C3289 0.960 . S
H3298 C3290 0.930 . S
H3299 C3291 0.929 . S
H3300 C3308 0.936 . S
H3301 C3310 0.930 . S
H3302 C3312 0.930 . S
H3303 C3315 0.929 . S
H3304 C3318 0.930 . S
H3305 C3320 0.960 . S
H3306 C3320 0.960 . S
H3307 C3320 0.960 . S
C3308 H3300 0.936 . S
C3308 C3309 1.371 1_655 S
C3308 C3310 1.384 . S
C3309 C3308 1.371 1_455 S
C3309 C3315 1.390 . S
C3310 H3301 0.930 . S
C3310 C3308 1.384 . S
C3310 C3311 1.372 1_655 S
C3311 C3310 1.372 1_455 S
C3311 C3312 1.400 . S
C3311 C3316 1.490 . S
C3312 H3302 0.930 . S
C3312 C3311 1.400 . S
C3312 C3315 1.386 . S
H3313 C3329 0.930 . S
H3314 C3330 0.931 . S
C3315 H3303 0.929 . S
C3315 C3309 1.390 . S
C3315 C3312 1.386 . S
C3316 C3311 1.490 . S
C3316 C3318 1.395 1_455 S
C3316 C3319 1.403 . S
H3317 C3323 0.930 . S
C3318 H3304 0.930 . S
C3318 C3316 1.395 1_655 S
C3318 C3321 1.403 . S
C3319 C3316 1.403 . S
C3319 C3320 1.524 . S
C3319 C3323 1.400 . S
C3320 H3305 0.960 . S
C3320 H3306 0.960 . S
C3320 H3307 0.960 . S
C3320 C3319 1.524 . S
C3321 C3318 1.403 . S
C3321 C3322 1.392 1_655 S
C3321 C3325 1.495 . S
C3322 C3321 1.392 1_455 S
C3322 C3323 1.385 . S
C3322 C3324 1.478 . S
C3323 H3317 0.930 . S
C3323 C3319 1.400 . S
C3323 C3322 1.385 . S
C3324 C3322 1.478 . S
C3324 C3326 1.381 1_455 S
C3324 C3330 1.383 . S
C3325 C3321 1.495 . S
C3325 H3331 0.959 . S
C3325 H3332 0.961 . S
C3325 H3333 0.960 . S
C3326 C3324 1.381 1_655 S
C3326 C3327 1.394 . S
C3326 H3334 0.930 . S
C3327 C3326 1.394 . S
C3327 C3328 1.383 1_655 S
C3327 H3335 0.929 . S
C3328 C3327 1.383 1_455 S
C3328 C3329 1.377 . S
C3329 H3313 0.930 . S
C3329 C3328 1.377 . S
C3329 C3330 1.379 . S
C3330 H3314 0.931 . S
C3330 C3324 1.383 . S
C3330 C3329 1.379 . S
H3331 C3325 0.959 . S
H3332 C3325 0.961 . S
H3333 C3325 0.960 . S
H3334 C3326 0.930 . S
H3335 C3327 0.929 . S
H3336 C3344 0.929 . S
H3337 C3346 0.930 . S
H3338 C3348 0.930 . S
H3339 C3351 0.929 . S
H3340 C3354 0.930 . S
H3341 C3356 0.960 . S
H3342 C3356 0.960 . S
H3343 C3356 0.960 . S
C3344 H3336 0.929 . S
C3344 C3345 1.377 . S
C3344 C3346 1.384 . S
C3345 C3344 1.377 . S
C3345 C3351 1.390 . S
C3346 H3337 0.930 . S
C3346 C3344 1.384 . S
C3346 C3347 1.372 . S
C3347 C3346 1.372 . S
C3347 C3348 1.400 . S
C3347 C3352 1.490 . S
C3348 H3338 0.930 . S
C3348 C3347 1.400 . S
C3348 C3351 1.386 . S
H3349 C3365 0.930 . S
H3350 C3366 0.931 . S
C3351 H3339 0.929 . S
C3351 C3345 1.390 . S
C3351 C3348 1.386 . S
C3352 C3347 1.490 . S
C3352 C3354 1.395 . S
C3352 C3355 1.403 . S
H3353 C3359 0.930 . S
C3354 H3340 0.930 . S
C3354 C3352 1.395 . S
C3354 C3357 1.403 . S
C3355 C3352 1.403 . S
C3355 C3356 1.524 . S
C3355 C3359 1.400 . S
C3356 H3341 0.960 . S
C3356 H3342 0.960 . S
C3356 H3343 0.960 . S
C3356 C3355 1.524 . S
C3357 C3354 1.403 . S
C3357 C3358 1.392 . S
C3357 C3361 1.495 . S
C3358 C3357 1.392 . S
C3358 C3359 1.385 . S
C3358 C3360 1.478 . S
C3359 H3353 0.930 . S
C3359 C3355 1.400 . S
C3359 C3358 1.385 . S
C3360 C3358 1.478 . S
C3360 C3362 1.381 . S
C3360 C3366 1.383 . S
C3361 C3357 1.495 . S
C3361 H3367 0.959 . S
C3361 H3368 0.961 . S
C3361 H3369 0.960 . S
C3362 C3360 1.381 . S
C3362 C3363 1.394 . S
C3362 H3370 0.930 . S
C3363 C3362 1.394 . S
C3363 C3364 1.383 . S
C3363 H3371 0.929 . S
C3364 C3363 1.383 . S
C3364 C3365 1.377 . S
C3365 H3349 0.930 . S
C3365 C3364 1.377 . S
C3365 C3366 1.379 . S
C3366 H3350 0.931 . S
C3366 C3360 1.383 . S
C3366 C3365 1.379 . S
H3367 C3361 0.959 . S
H3368 C3361 0.961 . S
H3369 C3361 0.960 . S
H3370 C3362 0.930 . S
H3371 C3363 0.929 . S
H3372 C3380 0.929 . S
H3373 C3382 0.930 . S
H3374 C3384 0.930 . S
H3375 C3387 0.929 1_455 S
H3376 C3390 0.930 . S
H3377 C3392 0.960 . S
H3378 C3392 0.960 . S
H3379 C3392 0.960 . S
C3380 H3372 0.929 . S
C3380 C3381 1.393 . S
C3380 C3382 1.384 . S
C3381 C3380 1.393 . S
C3381 C3387 1.396 . S
C3382 H3373 0.930 . S
C3382 C3380 1.384 . S
C3382 C3383 1.372 . S
C3383 C3382 1.372 . S
C3383 C3384 1.400 . S
C3383 C3388 1.490 . S
C3384 H3374 0.930 . S
C3384 C3383 1.400 . S
C3384 C3387 1.386 . S
H3385 C3401 0.930 . S
H3386 C3402 0.931 . S
C3387 H3375 0.929 1_655 S
C3387 C3381 1.396 . S
C3387 C3384 1.386 . S
C3388 C3383 1.490 . S
C3388 C3390 1.395 1_655 S
C3388 C3391 1.403 . S
H3389 C3395 0.930 . S
C3390 H3376 0.930 . S
C3390 C3388 1.395 1_455 S
C3390 C3393 1.403 . S
C3391 C3388 1.403 . S
C3391 C3392 1.524 . S
C3391 C3395 1.400 . S
C3392 H3377 0.960 . S
C3392 H3378 0.960 . S
C3392 H3379 0.960 . S
C3392 C3391 1.524 . S
C3393 C3390 1.403 . S
C3393 C3394 1.392 1_455 S
C3393 C3397 1.495 . S
C3394 C3393 1.392 1_655 S
C3394 C3395 1.385 . S
C3394 C3396 1.478 . S
C3395 H3389 0.930 . S
C3395 C3391 1.400 . S
C3395 C3394 1.385 . S
C3396 C3394 1.478 . S
C3396 C3398 1.381 . S
C3396 C3402 1.383 . S
C3397 C3393 1.495 . S
C3397 H3403 0.959 . S
C3397 H3404 0.961 . S
C3397 H3405 0.960 . S
C3398 C3396 1.381 . S
C3398 C3399 1.394 . S
C3398 H3406 0.930 . S
C3399 C3398 1.394 . S
C3399 C3400 1.383 . S
C3399 H3407 0.929 . S
C3400 C3399 1.383 . S
C3400 C3401 1.377 . S
C3401 H3385 0.930 . S
C3401 C3400 1.377 . S
C3401 C3402 1.379 . S
C3402 H3386 0.931 . S
C3402 C3396 1.383 . S
C3402 C3401 1.379 . S
H3403 C3397 0.959 . S
H3404 C3397 0.961 . S
H3405 C3397 0.960 . S
H3406 C3398 0.930 . S
H3407 C3399 0.929 . S
H3408 C3416 0.929 . S
H3409 C3418 0.930 . S
H3410 C3420 0.930 . S
H3411 C3423 0.929 . S
H3412 C3426 0.930 . S
H3413 C3428 0.960 . S
H3414 C3428 0.960 . S
H3415 C3428 0.960 . S
C3416 H3408 0.929 . S
C3416 C3417 1.377 . S
C3416 C3418 1.384 . S
C3417 C3416 1.377 . S
C3417 C3423 1.390 . S
C3418 H3409 0.930 . S
C3418 C3416 1.384 . S
C3418 C3419 1.372 . S
C3419 C3418 1.372 . S
C3419 C3420 1.400 . S
C3419 C3424 1.490 . S
C3420 H3410 0.930 . S
C3420 C3419 1.400 . S
C3420 C3423 1.386 . S
H3421 C3437 0.930 . S
H3422 C3438 0.931 . S
C3423 H3411 0.929 . S
C3423 C3417 1.390 . S
C3423 C3420 1.386 . S
C3424 C3419 1.490 . S
C3424 C3426 1.395 . S
C3424 C3427 1.403 . S
H3425 C3431 0.930 . S
C3426 H3412 0.930 . S
C3426 C3424 1.395 . S
C3426 C3429 1.403 . S
C3427 C3424 1.403 . S
C3427 C3428 1.524 . S
C3427 C3431 1.400 . S
C3428 H3413 0.960 . S
C3428 H3414 0.960 . S
C3428 H3415 0.960 . S
C3428 C3427 1.524 . S
C3429 C3426 1.403 . S
C3429 C3430 1.392 . S
C3429 C3433 1.495 . S
C3430 C3429 1.392 . S
C3430 C3431 1.385 . S
C3430 C3432 1.478 . S
C3431 H3425 0.930 . S
C3431 C3427 1.400 . S
C3431 C3430 1.385 . S
C3432 C3430 1.478 . S
C3432 C3434 1.381 . S
C3432 C3438 1.383 . S
C3433 C3429 1.495 . S
C3433 H3439 0.959 . S
C3433 H3440 0.961 . S
C3433 H3441 0.960 . S
C3434 C3432 1.381 . S
C3434 C3435 1.394 . S
C3434 H3442 0.930 . S
C3435 C3434 1.394 . S
C3435 C3436 1.383 . S
C3435 H3443 0.929 . S
C3436 C3435 1.383 . S
C3436 C3437 1.377 . S
C3437 H3421 0.930 . S
C3437 C3436 1.377 . S
C3437 C3438 1.379 . S
C3438 H3422 0.931 . S
C3438 C3432 1.383 . S
C3438 C3437 1.379 . S
H3439 C3433 0.959 . S
H3440 C3433 0.961 . S
H3441 C3433 0.960 . S
H3442 C3434 0.930 . S
H3443 C3435 0.929 . S
H3444 C3452 0.929 . S
H3445 C3454 0.930 . S
H3446 C3456 0.930 . S
H3447 C3459 0.929 . S
H3448 C3462 0.930 . S
H3449 C3464 0.960 . S
H3450 C3464 0.960 . S
H3451 C3464 0.960 . S
C3452 H3444 0.929 . S
C3452 C3453 1.377 . S
C3452 C3454 1.384 . S
C3453 C3452 1.377 . S
C3453 C3459 1.390 . S
C3454 H3445 0.930 . S
C3454 C3452 1.384 . S
C3454 C3455 1.372 . S
C3455 C3454 1.372 . S
C3455 C3456 1.400 . S
C3455 C3460 1.490 . S
C3456 H3446 0.930 . S
C3456 C3455 1.400 . S
C3456 C3459 1.386 . S
H3457 C3473 0.930 . S
H3458 C3474 0.931 . S
C3459 H3447 0.929 . S
C3459 C3453 1.390 . S
C3459 C3456 1.386 . S
C3460 C3455 1.490 . S
C3460 C3462 1.395 . S
C3460 C3463 1.403 . S
H3461 C3467 0.930 . S
C3462 H3448 0.930 . S
C3462 C3460 1.395 . S
C3462 C3465 1.403 . S
C3463 C3460 1.403 . S
C3463 C3464 1.524 . S
C3463 C3467 1.400 . S
C3464 H3449 0.960 . S
C3464 H3450 0.960 . S
C3464 H3451 0.960 . S
C3464 C3463 1.524 . S
C3465 C3462 1.403 . S
C3465 C3466 1.392 . S
C3465 C3469 1.495 . S
C3466 C3465 1.392 . S
C3466 C3467 1.385 . S
C3466 C3468 1.478 . S
C3467 H3461 0.930 . S
C3467 C3463 1.400 . S
C3467 C3466 1.385 . S
C3468 C3466 1.478 . S
C3468 C3470 1.381 . S
C3468 C3474 1.383 . S
C3469 C3465 1.495 . S
C3469 H3475 0.959 . S
C3469 H3476 0.961 . S
C3469 H3477 0.960 . S
C3470 C3468 1.381 . S
C3470 C3471 1.394 . S
C3470 H3478 0.930 . S
C3471 C3470 1.394 . S
C3471 C3472 1.383 . S
C3471 H3479 0.929 . S
C3472 C3471 1.383 . S
C3472 C3473 1.377 . S
C3473 H3457 0.930 . S
C3473 C3472 1.377 . S
C3473 C3474 1.379 . S
C3474 H3458 0.931 . S
C3474 C3468 1.383 . S
C3474 C3473 1.379 . S
H3475 C3469 0.959 . S
H3476 C3469 0.961 . S
H3477 C3469 0.960 . S
H3478 C3470 0.930 . S
H3479 C3471 0.929 . S
H3480 C3488 0.929 . S
H3481 C3490 0.930 . S
H3482 C3492 0.930 . S
H3483 C3495 0.929 . S
H3484 C3498 0.930 . S
H3485 C3500 0.960 . S
H3486 C3500 0.960 . S
H3487 C3500 0.960 1_565 S
C3488 H3480 0.929 . S
C3488 C3489 1.444 . S
C3488 C3490 1.384 . S
C3489 C3488 1.444 . S
C3489 C3495 1.344 1_545 S
C3490 H3481 0.930 . S
C3490 C3488 1.384 . S
C3490 C3491 1.372 . S
C3491 C3490 1.372 . S
C3491 C3492 1.400 1_545 S
C3491 C3496 1.490 . S
C3492 H3482 0.930 . S
C3492 C3491 1.400 1_565 S
C3492 C3495 1.386 . S
H3493 C3509 0.968 . S
H3494 C3510 0.931 . S
C3495 H3483 0.929 . S
C3495 C3489 1.344 1_565 S
C3495 C3492 1.386 . S
C3496 C3491 1.490 . S
C3496 C3498 1.395 . S
C3496 C3499 1.403 . S
H3497 C3503 0.930 . S
C3498 H3484 0.930 . S
C3498 C3496 1.395 . S
C3498 C3501 1.403 . S
C3499 C3496 1.403 . S
C3499 C3500 1.524 . S
C3499 C3503 1.400 . S
C3500 H3485 0.960 . S
C3500 H3486 0.960 . S
C3500 H3487 0.960 1_545 S
C3500 C3499 1.524 . S
C3501 C3498 1.403 . S
C3501 C3502 1.392 . S
C3501 C3505 1.495 . S
C3502 C3501 1.392 . S
C3502 C3503 1.385 . S
C3502 C3504 1.478 . S
C3503 H3497 0.930 . S
C3503 C3499 1.400 . S
C3503 C3502 1.385 . S
C3504 C3502 1.478 . S
C3504 C3506 1.381 . S
C3504 C3510 1.383 1_545 S
C3505 C3501 1.495 . S
C3505 H3511 0.959 . S
C3505 H3512 1.009 . S
C3505 H3513 0.960 . S
C3506 C3504 1.381 . S
C3506 C3507 1.394 . S
C3506 H3514 0.930 . S
C3507 C3506 1.394 . S
C3507 C3508 1.383 . S
C3507 H3515 0.929 . S
C3508 C3507 1.383 . S
C3508 C3509 1.327 1_545 S
C3509 H3493 0.968 . S
C3509 C3508 1.327 1_565 S
C3509 C3510 1.392 . S
C3510 H3494 0.931 . S
C3510 C3504 1.383 1_565 S
C3510 C3509 1.392 . S
H3511 C3505 0.959 . S
H3512 C3505 1.009 . S
H3513 C3505 0.960 . S
H3514 C3506 0.930 . S
H3515 C3507 0.929 . S
H3516 C3524 0.929 . S
H3517 C3526 0.930 . S
H3518 C3528 0.930 . S
H3519 C3531 0.971 . S
H3520 C3534 0.930 . S
H3521 C3536 0.960 . S
H3522 C3536 0.960 . S
H3523 C3536 0.960 . S
C3524 H3516 0.929 . S
C3524 C3525 1.377 . S
C3524 C3526 1.384 . S
C3525 C3524 1.377 . S
C3525 C3531 1.351 1_565 S
C3526 H3517 0.930 . S
C3526 C3524 1.384 . S
C3526 C3527 1.372 . S
C3527 C3526 1.372 . S
C3527 C3528 1.400 1_565 S
C3527 C3532 1.490 . S
C3528 H3518 0.930 . S
C3528 C3527 1.400 1_545 S
C3528 C3531 1.384 . S
H3529 C3545 0.930 . S
H3530 C3546 0.931 . S
C3531 H3519 0.971 . S
C3531 C3525 1.351 1_545 S
C3531 C3528 1.384 . S
C3532 C3527 1.490 . S
C3532 C3534 1.395 . S
C3532 C3535 1.403 1_565 S
H3533 C3539 0.947 . S
C3534 H3520 0.930 . S
C3534 C3532 1.395 . S
C3534 C3537 1.403 . S
C3535 C3532 1.403 1_545 S
C3535 C3536 1.524 . S
C3535 C3539 1.403 . S
C3536 H3521 0.960 . S
C3536 H3522 0.960 . S
C3536 H3523 0.960 . S
C3536 C3535 1.524 . S
C3537 C3534 1.403 . S
C3537 C3538 1.392 . S
C3537 C3541 1.495 . S
C3538 C3537 1.392 . S
C3538 C3539 1.366 1_565 S
C3538 C3540 1.478 . S
C3539 H3533 0.947 . S
C3539 C3535 1.403 . S
C3539 C3538 1.366 1_545 S
C3540 C3538 1.478 . S
C3540 C3542 1.381 . S
C3540 C3546 1.383 1_565 S
C3541 C3537 1.495 . S
C3541 H3547 0.959 . S
C3541 H3548 0.961 . S
C3541 H3549 0.960 . S
C3542 C3540 1.381 . S
C3542 C3543 1.394 . S
C3542 H3550 0.930 . S
C3543 C3542 1.394 . S
C3543 C3544 1.383 . S
C3543 H3551 0.929 . S
C3544 C3543 1.383 . S
C3544 C3545 1.377 1_565 S
C3545 H3529 0.930 . S
C3545 C3544 1.377 1_545 S
C3545 C3546 1.379 . S
C3546 H3530 0.931 . S
C3546 C3540 1.383 1_545 S
C3546 C3545 1.379 . S
H3547 C3541 0.959 . S
H3548 C3541 0.961 . S
H3549 C3541 0.960 . S
H3550 C3542 0.930 . S
H3551 C3543 0.929 . S
H3552 C3560 0.929 . S
H3553 C3562 0.930 . S
H3554 C3564 0.930 . S
H3555 C3567 0.929 . S
H3556 C3570 0.930 . S
H3557 C3572 0.960 . S
H3558 C3572 0.960 . S
H3559 C3572 0.960 . S
C3560 H3552 0.929 . S
C3560 C3561 1.377 . S
C3560 C3562 1.384 . S
C3561 C3560 1.377 . S
C3561 C3567 1.390 . S
C3562 H3553 0.930 . S
C3562 C3560 1.384 . S
C3562 C3563 1.372 . S
C3563 C3562 1.372 . S
C3563 C3564 1.400 . S
C3563 C3568 1.490 . S
C3564 H3554 0.930 . S
C3564 C3563 1.400 . S
C3564 C3567 1.386 . S
H3565 C3581 0.930 . S
H3566 C3582 0.931 . S
C3567 H3555 0.929 . S
C3567 C3561 1.390 . S
C3567 C3564 1.386 . S
C3568 C3563 1.490 . S
C3568 C3570 1.395 . S
C3568 C3571 1.403 . S
H3569 C3575 0.930 . S
C3570 H3556 0.930 . S
C3570 C3568 1.395 . S
C3570 C3573 1.403 . S
C3571 C3568 1.403 . S
C3571 C3572 1.524 . S
C3571 C3575 1.400 . S
C3572 H3557 0.960 . S
C3572 H3558 0.960 . S
C3572 H3559 0.960 . S
C3572 C3571 1.524 . S
C3573 C3570 1.403 . S
C3573 C3574 1.392 . S
C3573 C3577 1.495 . S
C3574 C3573 1.392 . S
C3574 C3575 1.385 . S
C3574 C3576 1.478 . S
C3575 H3569 0.930 . S
C3575 C3571 1.400 . S
C3575 C3574 1.385 . S
C3576 C3574 1.478 . S
C3576 C3578 1.381 . S
C3576 C3582 1.383 . S
C3577 C3573 1.495 . S
C3577 H3583 0.959 . S
C3577 H3584 0.961 . S
C3577 H3585 0.960 . S
C3578 C3576 1.381 . S
C3578 C3579 1.394 . S
C3578 H3586 0.930 . S
C3579 C3578 1.394 . S
C3579 C3580 1.383 . S
C3579 H3587 0.929 . S
C3580 C3579 1.383 . S
C3580 C3581 1.377 . S
C3581 H3565 0.930 . S
C3581 C3580 1.377 . S
C3581 C3582 1.379 . S
C3582 H3566 0.931 . S
C3582 C3576 1.383 . S
C3582 C3581 1.379 . S
H3583 C3577 0.959 . S
H3584 C3577 0.961 . S
H3585 C3577 0.960 . S
H3586 C3578 0.930 . S
H3587 C3579 0.929 . S
H3588 C3596 0.929 . S
H3589 C3598 0.930 . S
H3590 C3600 0.930 . S
H3591 C3603 0.929 . S
H3592 C3606 0.930 1_554 S
H3593 C3608 0.960 . S
H3594 C3608 0.960 . S
H3595 C3608 0.960 . S
C3596 H3588 0.929 . S
C3596 C3597 1.377 1_554 S
C3596 C3598 1.384 . S
C3597 C3596 1.377 1_556 S
C3597 C3603 1.390 . S
C3598 H3589 0.930 . S
C3598 C3596 1.384 . S
C3598 C3599 1.372 1_554 S
C3599 C3598 1.372 1_556 S
C3599 C3600 1.400 . S
C3599 C3604 1.490 . S
C3600 H3590 0.930 . S
C3600 C3599 1.400 . S
C3600 C3603 1.386 . S
H3601 C3617 0.930 . S
H3602 C3618 0.931 . S
C3603 H3591 0.929 . S
C3603 C3597 1.390 . S
C3603 C3600 1.386 . S
C3604 C3599 1.490 . S
C3604 C3606 1.395 . S
C3604 C3607 1.403 . S
H3605 C3611 0.930 . S
C3606 H3592 0.930 1_556 S
C3606 C3604 1.395 . S
C3606 C3609 1.403 . S
C3607 C3604 1.403 . S
C3607 C3608 1.524 . S
C3607 C3611 1.400 . S
C3608 H3593 0.960 . S
C3608 H3594 0.960 . S
C3608 H3595 0.960 . S
C3608 C3607 1.524 . S
C3609 C3606 1.403 . S
C3609 C3610 1.393 . S
C3609 C3613 1.495 1_556 S
C3610 C3609 1.393 . S
C3610 C3611 1.385 . S
C3610 C3612 1.478 . S
C3611 H3605 0.930 . S
C3611 C3607 1.400 . S
C3611 C3610 1.385 . S
C3612 C3610 1.478 . S
C3612 C3614 1.381 1_556 S
C3612 C3618 1.383 . S
C3613 C3609 1.495 1_554 S
C3613 H3619 0.959 . S
C3613 H3620 0.983 . S
C3613 H3621 0.960 . S
C3614 C3612 1.381 1_554 S
C3614 C3615 1.394 . S
C3614 H3622 0.930 . S
C3615 C3614 1.394 . S
C3615 C3616 1.383 1_554 S
C3615 H3623 0.929 . S
C3616 C3615 1.383 1_556 S
C3616 C3617 1.377 . S
C3617 H3601 0.930 . S
C3617 C3616 1.377 . S
C3617 C3618 1.379 . S
C3618 H3602 0.931 . S
C3618 C3612 1.383 . S
C3618 C3617 1.379 . S
H3619 C3613 0.959 . S
H3620 C3613 0.983 . S
H3621 C3613 0.960 . S
H3622 C3614 0.930 . S
H3623 C3615 0.929 . S
H3624 C3632 0.929 . S
H3625 C3634 0.930 . S
H3626 C3636 0.930 . S
H3627 C3639 0.929 . S
H3628 C3642 0.930 . S
H3629 C3644 0.960 . S
H3630 C3644 0.960 . S
H3631 C3644 0.960 . S
C3632 H3624 0.929 . S
C3632 C3633 1.377 . S
C3632 C3634 1.384 . S
C3633 C3632 1.377 . S
C3633 C3639 1.390 . S
C3634 H3625 0.930 . S
C3634 C3632 1.384 . S
C3634 C3635 1.372 . S
C3635 C3634 1.372 . S
C3635 C3636 1.400 . S
C3635 C3640 1.490 . S
C3636 H3626 0.930 . S
C3636 C3635 1.400 . S
C3636 C3639 1.386 . S
H3637 C3653 0.930 . S
H3638 C3654 0.931 . S
C3639 H3627 0.929 . S
C3639 C3633 1.390 . S
C3639 C3636 1.386 . S
C3640 C3635 1.490 . S
C3640 C3642 1.395 . S
C3640 C3643 1.403 . S
H3641 C3647 0.930 . S
C3642 H3628 0.930 . S
C3642 C3640 1.395 . S
C3642 C3645 1.403 . S
C3643 C3640 1.403 . S
C3643 C3644 1.524 . S
C3643 C3647 1.400 . S
C3644 H3629 0.960 . S
C3644 H3630 0.960 . S
C3644 H3631 0.960 . S
C3644 C3643 1.524 . S
C3645 C3642 1.403 . S
C3645 C3646 1.392 . S
C3645 C3649 1.495 . S
C3646 C3645 1.392 . S
C3646 C3647 1.385 . S
C3646 C3648 1.478 . S
C3647 H3641 0.930 . S
C3647 C3643 1.400 . S
C3647 C3646 1.385 . S
C3648 C3646 1.478 . S
C3648 C3650 1.381 . S
C3648 C3654 1.383 . S
C3649 C3645 1.495 . S
C3649 H3655 0.959 . S
C3649 H3656 0.961 . S
C3649 H3657 0.960 . S
C3650 C3648 1.381 . S
C3650 C3651 1.394 . S
C3650 H3658 0.930 . S
C3651 C3650 1.394 . S
C3651 C3652 1.383 . S
C3651 H3659 0.929 . S
C3652 C3651 1.383 . S
C3652 C3653 1.377 . S
C3653 H3637 0.930 . S
C3653 C3652 1.377 . S
C3653 C3654 1.379 . S
C3654 H3638 0.931 . S
C3654 C3648 1.383 . S
C3654 C3653 1.379 . S
H3655 C3649 0.959 . S
H3656 C3649 0.961 . S
H3657 C3649 0.960 . S
H3658 C3650 0.930 . S
H3659 C3651 0.929 . S
H3660 C3668 0.929 . S
H3661 C3670 0.930 . S
H3662 C3672 0.930 . S
H3663 C3675 0.929 . S
H3664 C3678 0.930 . S
H3665 C3680 0.960 . S
H3666 C3680 0.960 . S
H3667 C3680 0.960 1_554 S
C3668 H3660 0.929 . S
C3668 C3669 1.361 1_556 S
C3668 C3670 1.384 . S
C3669 C3668 1.361 1_554 S
C3669 C3675 1.414 . S
C3670 H3661 0.930 . S
C3670 C3668 1.384 . S
C3670 C3671 1.372 1_556 S
C3671 C3670 1.372 1_554 S
C3671 C3672 1.400 . S
C3671 C3676 1.490 . S
C3672 H3662 0.930 . S
C3672 C3671 1.400 . S
C3672 C3675 1.386 . S
H3673 C3689 0.930 . S
H3674 C3690 0.931 . S
C3675 H3663 0.929 . S
C3675 C3669 1.414 . S
C3675 C3672 1.386 . S
C3676 C3671 1.490 . S
C3676 C3678 1.395 . S
C3676 C3679 1.403 . S
H3677 C3683 0.930 . S
C3678 H3664 0.930 . S
C3678 C3676 1.395 . S
C3678 C3681 1.403 . S
C3679 C3676 1.403 . S
C3679 C3680 1.524 1_554 S
C3679 C3683 1.400 . S
C3680 H3665 0.960 . S
C3680 H3666 0.960 . S
C3680 H3667 0.960 1_556 S
C3680 C3679 1.524 1_556 S
C3681 C3678 1.403 . S
C3681 C3682 1.392 . S
C3681 C3685 1.495 . S
C3682 C3681 1.392 . S
C3682 C3683 1.385 . S
C3682 C3684 1.478 . S
C3683 H3677 0.930 . S
C3683 C3679 1.400 . S
C3683 C3682 1.385 . S
C3684 C3682 1.478 . S
C3684 C3686 1.381 . S
C3684 C3690 1.383 . S
C3685 C3681 1.495 . S
C3685 H3691 0.959 . S
C3685 H3692 0.961 . S
C3685 H3693 0.960 . S
C3686 C3684 1.381 . S
C3686 C3687 1.394 . S
C3686 H3694 0.930 1_554 S
C3687 C3686 1.394 . S
C3687 C3688 1.383 . S
C3687 H3695 0.929 1_554 S
C3688 C3687 1.383 . S
C3688 C3689 1.377 . S
C3689 H3673 0.930 . S
C3689 C3688 1.377 . S
C3689 C3690 1.379 . S
C3690 H3674 0.931 . S
C3690 C3684 1.383 . S
C3690 C3689 1.379 . S
H3691 C3685 0.959 . S
H3692 C3685 0.961 . S
H3693 C3685 0.960 . S
H3694 C3686 0.930 1_556 S
H3695 C3687 0.929 1_556 S
H3696 C3704 0.929 . S
H3697 C3706 0.930 . S
H3698 C3708 0.930 . S
H3699 C3711 0.929 . S
H3700 C3714 0.930 . S
H3701 C3716 0.960 . S
H3702 C3716 0.960 . S
H3703 C3716 0.960 . S
C3704 H3696 0.929 . S
C3704 C3705 1.377 . S
C3704 C3706 1.384 . S
C3705 C3704 1.377 . S
C3705 C3711 1.390 . S
C3706 H3697 0.930 . S
C3706 C3704 1.384 . S
C3706 C3707 1.372 . S
C3707 C3706 1.372 . S
C3707 C3708 1.400 . S
C3707 C3712 1.490 . S
C3708 H3698 0.930 . S
C3708 C3707 1.400 . S
C3708 C3711 1.386 . S
H3709 C3725 0.930 . S
H3710 C3726 0.931 . S
C3711 H3699 0.929 . S
C3711 C3705 1.390 . S
C3711 C3708 1.386 . S
C3712 C3707 1.490 . S
C3712 C3714 1.395 . S
C3712 C3715 1.403 . S
H3713 C3719 0.930 . S
C3714 H3700 0.930 . S
C3714 C3712 1.395 . S
C3714 C3717 1.403 . S
C3715 C3712 1.403 . S
C3715 C3716 1.524 . S
C3715 C3719 1.400 . S
C3716 H3701 0.960 . S
C3716 H3702 0.960 . S
C3716 H3703 0.960 . S
C3716 C3715 1.524 . S
C3717 C3714 1.403 . S
C3717 C3718 1.392 . S
C3717 C3721 1.495 . S
C3718 C3717 1.392 . S
C3718 C3719 1.385 . S
C3718 C3720 1.478 . S
C3719 H3713 0.930 . S
C3719 C3715 1.400 . S
C3719 C3718 1.385 . S
C3720 C3718 1.478 . S
C3720 C3722 1.381 . S
C3720 C3726 1.383 . S
C3721 C3717 1.495 . S
C3721 H3727 0.959 . S
C3721 H3728 0.961 . S
C3721 H3729 0.960 . S
C3722 C3720 1.381 . S
C3722 C3723 1.394 . S
C3722 H3730 0.930 . S
C3723 C3722 1.394 . S
C3723 C3724 1.383 . S
C3723 H3731 0.929 . S
C3724 C3723 1.383 . S
C3724 C3725 1.377 . S
C3725 H3709 0.930 . S
C3725 C3724 1.377 . S
C3725 C3726 1.379 . S
C3726 H3710 0.931 . S
C3726 C3720 1.383 . S
C3726 C3725 1.379 . S
H3727 C3721 0.959 . S
H3728 C3721 0.961 . S
H3729 C3721 0.960 . S
H3730 C3722 0.930 . S
H3731 C3723 0.929 . S
H3732 C3740 0.929 . S
H3733 C3742 0.930 . S
H3734 C3744 0.930 . S
H3735 C3747 0.929 . S
H3736 C3750 0.930 . S
H3737 C3752 0.960 . S
H3738 C3752 0.960 1_655 S
H3739 C3752 0.960 . S
C3740 H3732 0.929 . S
C3740 C3741 1.377 . S
C3740 C3742 1.384 . S
C3741 C3740 1.377 . S
C3741 C3747 1.390 1_655 S
C3742 H3733 0.930 . S
C3742 C3740 1.384 . S
C3742 C3743 1.372 . S
C3743 C3742 1.372 . S
C3743 C3744 1.400 1_655 S
C3743 C3748 1.490 . S
C3744 H3734 0.930 . S
C3744 C3743 1.400 1_455 S
C3744 C3747 1.386 . S
H3745 C3761 0.930 . S
H3746 C3762 0.931 . S
C3747 H3735 0.929 . S
C3747 C3741 1.390 1_455 S
C3747 C3744 1.386 . S
C3748 C3743 1.490 . S
C3748 C3750 1.395 . S
C3748 C3751 1.403 . S
H3749 C3755 0.932 1_455 S
C3750 H3736 0.930 . S
C3750 C3748 1.395 . S
C3750 C3753 1.403 . S
C3751 C3748 1.403 . S
C3751 C3752 1.524 1_655 S
C3751 C3755 1.400 . S
C3752 H3737 0.960 . S
C3752 H3738 0.960 1_455 S
C3752 H3739 0.960 . S
C3752 C3751 1.524 1_455 S
C3753 C3750 1.403 . S
C3753 C3754 1.392 . S
C3753 C3757 1.495 . S
C3754 C3753 1.392 . S
C3754 C3755 1.385 . S
C3754 C3756 1.478 . S
C3755 H3749 0.932 1_655 S
C3755 C3751 1.400 . S
C3755 C3754 1.385 . S
C3756 C3754 1.478 . S
C3756 C3758 1.381 . S
C3756 C3762 1.383 1_655 S
C3757 C3753 1.495 . S
C3757 H3763 0.959 . S
C3757 H3764 0.961 . S
C3757 H3765 0.960 . S
C3758 C3756 1.381 . S
C3758 C3759 1.394 . S
C3758 H3766 0.930 . S
C3759 C3758 1.394 . S
C3759 C3760 1.383 . S
C3759 H3767 0.929 . S
C3760 C3759 1.383 . S
C3760 C3761 1.377 1_655 S
C3761 H3745 0.930 . S
C3761 C3760 1.377 1_455 S
C3761 C3762 1.379 . S
C3762 H3746 0.931 . S
C3762 C3756 1.383 1_455 S
C3762 C3761 1.379 . S
H3763 C3757 0.959 . S
H3764 C3757 0.961 . S
H3765 C3757 0.960 . S
H3766 C3758 0.930 . S
H3767 C3759 0.929 . S
H3768 C3776 0.929 . S
H3769 C3778 0.930 . S
H3770 C3780 0.930 . S
H3771 C3783 0.929 . S
H3772 C3786 0.930 . S
H3773 C3788 0.960 . S
H3774 C3788 0.960 . S
H3775 C3788 0.960 . S
C3776 H3768 0.929 . S
C3776 C3777 1.377 . S
C3776 C3778 1.384 . S
C3777 C3776 1.377 . S
C3777 C3783 1.390 . S
C3778 H3769 0.930 . S
C3778 C3776 1.384 . S
C3778 C3779 1.372 . S
C3779 C3778 1.372 . S
C3779 C3780 1.400 . S
C3779 C3784 1.490 . S
C3780 H3770 0.930 . S
C3780 C3779 1.400 . S
C3780 C3783 1.386 . S
H3781 C3797 0.930 . S
H3782 C3798 0.931 . S
C3783 H3771 0.929 . S
C3783 C3777 1.390 . S
C3783 C3780 1.386 . S
C3784 C3779 1.490 . S
C3784 C3786 1.395 . S
C3784 C3787 1.403 . S
H3785 C3791 0.930 . S
C3786 H3772 0.930 . S
C3786 C3784 1.395 . S
C3786 C3789 1.403 . S
C3787 C3784 1.403 . S
C3787 C3788 1.524 . S
C3787 C3791 1.400 . S
C3788 H3773 0.960 . S
C3788 H3774 0.960 . S
C3788 H3775 0.960 . S
C3788 C3787 1.524 . S
C3789 C3786 1.403 . S
C3789 C3790 1.392 . S
C3789 C3793 1.495 . S
C3790 C3789 1.392 . S
C3790 C3791 1.385 . S
C3790 C3792 1.478 . S
C3791 H3785 0.930 . S
C3791 C3787 1.400 . S
C3791 C3790 1.385 . S
C3792 C3790 1.478 . S
C3792 C3794 1.381 . S
C3792 C3798 1.383 . S
C3793 C3789 1.495 . S
C3793 H3799 0.959 . S
C3793 H3800 0.961 . S
C3793 H3801 0.960 . S
C3794 C3792 1.381 . S
C3794 C3795 1.394 . S
C3794 H3802 0.930 . S
C3795 C3794 1.394 . S
C3795 C3796 1.383 . S
C3795 H3803 0.929 . S
C3796 C3795 1.383 . S
C3796 C3797 1.377 . S
C3797 H3781 0.930 . S
C3797 C3796 1.377 . S
C3797 C3798 1.379 . S
C3798 H3782 0.931 . S
C3798 C3792 1.383 . S
C3798 C3797 1.379 . S
H3799 C3793 0.959 . S
H3800 C3793 0.961 . S
H3801 C3793 0.960 . S
H3802 C3794 0.930 . S
H3803 C3795 0.929 . S
H3804 C3812 0.935 . S
H3805 C3814 0.930 . S
H3806 C3816 0.930 . S
H3807 C3819 0.929 . S
H3808 C3822 0.930 . S
H3809 C3824 0.960 . S
H3810 C3824 0.960 . S
H3811 C3824 0.960 . S
C3812 H3804 0.935 . S
C3812 C3813 1.388 . S
C3812 C3814 1.384 . S
C3813 C3812 1.388 . S
C3813 C3819 1.400 . S
C3814 H3805 0.930 . S
C3814 C3812 1.384 . S
C3814 C3815 1.372 . S
C3815 C3814 1.372 . S
C3815 C3816 1.400 . S
C3815 C3820 1.490 . S
C3816 H3806 0.930 . S
C3816 C3815 1.400 . S
C3816 C3819 1.386 . S
H3817 C3833 0.930 . S
H3818 C3834 0.931 . S
C3819 H3807 0.929 . S
C3819 C3813 1.400 . S
C3819 C3816 1.386 . S
C3820 C3815 1.490 . S
C3820 C3822 1.395 1_455 S
C3820 C3823 1.403 . S
H3821 C3827 0.930 . S
C3822 H3808 0.930 . S
C3822 C3820 1.395 1_655 S
C3822 C3825 1.403 . S
C3823 C3820 1.403 . S
C3823 C3824 1.524 . S
C3823 C3827 1.400 . S
C3824 H3809 0.960 . S
C3824 H3810 0.960 . S
C3824 H3811 0.960 . S
C3824 C3823 1.524 . S
C3825 C3822 1.403 . S
C3825 C3826 1.392 1_655 S
C3825 C3829 1.495 . S
C3826 C3825 1.392 1_455 S
C3826 C3827 1.385 . S
C3826 C3828 1.478 . S
C3827 H3821 0.930 . S
C3827 C3823 1.400 . S
C3827 C3826 1.385 . S
C3828 C3826 1.478 . S
C3828 C3830 1.381 . S
C3828 C3834 1.383 . S
C3829 C3825 1.495 . S
C3829 H3835 0.959 . S
C3829 H3836 0.961 . S
C3829 H3837 0.960 . S
C3830 C3828 1.381 . S
C3830 C3831 1.394 . S
C3830 H3838 0.930 . S
C3831 C3830 1.394 . S
C3831 C3832 1.383 . S
C3831 H3839 0.929 . S
C3832 C3831 1.383 . S
C3832 C3833 1.377 . S
C3833 H3817 0.930 . S
C3833 C3832 1.377 . S
C3833 C3834 1.379 . S
C3834 H3818 0.931 . S
C3834 C3828 1.383 . S
C3834 C3833 1.379 . S
H3835 C3829 0.959 . S
H3836 C3829 0.961 . S
H3837 C3829 0.960 . S
H3838 C3830 0.930 . S
H3839 C3831 0.929 . S
C1276 C1242 1.769 . S
C1257 C15 1.857 . S
C1312 C1206 1.348 . S
C1293 C55 1.326 . S
C1348 C1230 0.599 . S
C1329 C95 0.577 1_545 S
C1384 C1218 1.399 . S
C1365 C135 1.424 . S
C1420 C1134 1.804 . S
C1401 C175 1.855 . S
C1437 C215 1.417 . S
C1456 C1146 1.428 . S
C1492 C1110 1.332 . S
C1473 C255 1.334 . S
C1509 C295 0.577 1_554 S
C1528 C1122 0.599 . S
C1564 C1194 1.768 . S
C1545 C335 1.856 . S
C1581 C375 1.419 . S
C1600 C1170 1.413 . S
C1617 C415 1.325 . S
C1636 C1158 1.371 . S
C1672 C1182 0.662 . S
C1653 C455 0.577 1_455 S
C1708 C1098 1.762 . S
C1689 C495 1.855 . S
C1725 C535 1.319 . S
C1744 C1062 1.369 . S
C1780 C1086 0.694 . S
C1761 C575 0.579 . S
C1797 C615 1.423 . S
C1816 C1074 1.388 . S
C1852 C990 1.790 . S
C1833 C655 1.855 . S
C1888 C1002 1.357 . S
C1869 C695 1.417 . S
C1905 C735 1.317 . S
C1924 C966 1.358 . S
C1941 C775 0.579 . S
C1960 C978 0.573 . S
C1977 C815 1.848 . S
C1996 C1050 1.785 . S
C2013 C855 1.417 . S
C2032 C1026 1.374 . S
C2068 C1014 1.335 . S
C2049 C895 1.327 . S
C2085 C935 0.579 . S
C2104 C1038 0.707 . S
C2140 C969 1.653 . S
C2121 C21 1.709 . S
C2176 C981 1.600 . S
C2157 C61 1.674 . S
C2193 C101 0.652 1_545 S
C2212 C993 0.641 . S
C2229 C141 0.787 . S
C2248 C1005 0.741 . S
C2284 C1017 1.653 . S
C2265 C181 1.710 . S
C2301 C221 0.785 . S
C2320 C1029 0.808 . S
C2356 C1041 1.605 . S
C2337 C261 1.673 . S
C2392 C1053 0.655 . S
C2373 C301 0.647 . S
C2428 C1065 1.666 . S
C2409 C341 1.710 . S
C2445 C381 0.780 . S
C2464 C1077 0.792 . S
C2481 C421 1.675 . S
C2500 C1089 1.573 . S
C2517 C461 0.654 1_455 S
C2536 C1101 0.645 . S
C2553 C501 1.679 . S
C2572 C1113 1.688 . S
C2589 C541 1.560 . S
C2608 C1125 1.601 . S
C2625 C581 0.660 1_545 S
C2644 C1137 0.661 . S
C2661 C621 0.786 . S
C2680 C1149 0.743 . S
C2697 C661 1.676 . S
C2716 C1161 1.685 . S
C2752 C1173 0.752 . S
C2733 C701 0.778 . S
C2788 C1185 1.634 . S
C2769 C741 1.558 . S
C2824 C1197 0.638 . S
C2805 C781 0.652 . S
C2860 C1209 1.679 . S
C2841 C821 1.678 . S
C2877 C861 0.775 . S
C2896 C1221 0.778 . S
C2913 C901 1.566 . S
C2932 C1233 1.627 . S
C2949 C941 0.658 . S
C2968 C1245 0.641 . S
C2985 C2 1.671 . S
C3004 C1060 1.648 . S
C3040 C1096 1.761 . S
C3021 C42 1.795 . S
C3057 C82 1.507 . S
C3076 C1072 1.465 . S
C3112 C1084 1.478 . S
C3093 C122 1.465 . S
C3129 C162 1.670 . S
C3148 C964 1.632 . S
C3165 C202 1.463 . S
C3184 C976 1.470 . S
C3201 C242 1.806 . S
C3220 C988 1.714 . S
C3237 C282 1.515 . S
C3256 C1000 1.486 . S
C3292 C1012 1.647 . S
C3273 C322 1.671 . S
C3328 C1036 1.456 . S
C3309 C362 1.461 . S
C3345 C402 1.804 . S
C3364 C1048 1.740 . S
C3381 C442 1.508 . S
C3400 C1024 1.440 . S
C3436 C1204 1.639 . S
C3417 C482 1.646 . S
C3472 C1240 1.719 . S
C3453 C522 1.712 . S
C3489 C562 1.512 1_545 S
C3508 C1216 1.451 . S
C3544 C1228 1.487 . S
C3525 C602 1.452 . S
C3561 C642 1.647 . S
C3580 C1108 1.650 . S
C3597 C682 1.454 . S
C3616 C1120 1.462 . S
C3633 C722 1.728 . S
C3652 C1132 1.713 . S
C3688 C1144 1.466 . S
C3669 C762 1.520 1_554 S
C3724 C1156 1.622 . S
C3705 C802 1.649 . S
C3760 C1180 1.483 . S
C3741 C842 1.455 . S
C3777 C882 1.730 . S
C3796 C1192 1.740 . S
C3832 C1168 1.424 . S
C3813 C922 1.512 1_455 S
