# Generated by pormake.
# Topology the, (3,8)-cn, num edge types: 1
# Building blocks:
#     Node 0, Type 0, BuildingBlock: QEWDON_clean_linker_0, # of connection points: 3
#     Node 1, Type 0, BuildingBlock: QEWDON_clean_linker_0, # of connection points: 3
#     Node 2, Type 0, BuildingBlock: QEWDON_clean_linker_0, # of connection points: 3
#     Node 3, Type 0, BuildingBlock: QEWDON_clean_linker_0, # of connection points: 3
#     Node 4, Type 0, BuildingBlock: QEWDON_clean_linker_0, # of connection points: 3
#     Node 5, Type 0, BuildingBlock: QEWDON_clean_linker_0, # of connection points: 3
#     Node 6, Type 0, BuildingBlock: QEWDON_clean_linker_0, # of connection points: 3
#     Node 7, Type 0, BuildingBlock: QEWDON_clean_linker_0, # of connection points: 3
#     Node 8, Type 1, BuildingBlock: GIZVER_clean_sbu_0, # of connection points: 8
#     Node 9, Type 1, BuildingBlock: GIZVER_clean_sbu_0, # of connection points: 8
#     Node 10, Type 1, BuildingBlock: GIZVER_clean_sbu_0, # of connection points: 8
#     Edge 11, Type (0, 1), BuildingBlock: MIFKUJ_clean_linker_0, # of connection points: 2
#     Edge 12, Type (0, 1), BuildingBlock: MIFKUJ_clean_linker_0, # of connection points: 2
#     Edge 13, Type (0, 1), BuildingBlock: MIFKUJ_clean_linker_0, # of connection points: 2
#     Edge 14, Type (0, 1), BuildingBlock: MIFKUJ_clean_linker_0, # of connection points: 2
#     Edge 15, Type (0, 1), BuildingBlock: MIFKUJ_clean_linker_0, # of connection points: 2
#     Edge 16, Type (0, 1), BuildingBlock: MIFKUJ_clean_linker_0, # of connection points: 2
#     Edge 17, Type (0, 1), BuildingBlock: MIFKUJ_clean_linker_0, # of connection points: 2
#     Edge 18, Type (0, 1), BuildingBlock: MIFKUJ_clean_linker_0, # of connection points: 2
#     Edge 19, Type (0, 1), BuildingBlock: MIFKUJ_clean_linker_0, # of connection points: 2
#     Edge 20, Type (0, 1), BuildingBlock: MIFKUJ_clean_linker_0, # of connection points: 2
#     Edge 21, Type (0, 1), BuildingBlock: MIFKUJ_clean_linker_0, # of connection points: 2
#     Edge 22, Type (0, 1), BuildingBlock: MIFKUJ_clean_linker_0, # of connection points: 2
#     Edge 23, Type (0, 1), BuildingBlock: MIFKUJ_clean_linker_0, # of connection points: 2
#     Edge 24, Type (0, 1), BuildingBlock: MIFKUJ_clean_linker_0, # of connection points: 2
#     Edge 25, Type (0, 1), BuildingBlock: MIFKUJ_clean_linker_0, # of connection points: 2
#     Edge 26, Type (0, 1), BuildingBlock: MIFKUJ_clean_linker_0, # of connection points: 2
#     Edge 27, Type (0, 1), BuildingBlock: MIFKUJ_clean_linker_0, # of connection points: 2
#     Edge 28, Type (0, 1), BuildingBlock: MIFKUJ_clean_linker_0, # of connection points: 2
#     Edge 29, Type (0, 1), BuildingBlock: MIFKUJ_clean_linker_0, # of connection points: 2
#     Edge 30, Type (0, 1), BuildingBlock: MIFKUJ_clean_linker_0, # of connection points: 2
#     Edge 31, Type (0, 1), BuildingBlock: MIFKUJ_clean_linker_0, # of connection points: 2
#     Edge 32, Type (0, 1), BuildingBlock: MIFKUJ_clean_linker_0, # of connection points: 2
#     Edge 33, Type (0, 1), BuildingBlock: MIFKUJ_clean_linker_0, # of connection points: 2
#     Edge 34, Type (0, 1), BuildingBlock: MIFKUJ_clean_linker_0, # of connection points: 2
# Relax obj value: 0.102
# Max RMSD: 0.269
# Mean RMSD: 0.190
data_MOF--net-the--node1-GIZVER_clean_sbu_0--node2-QEWDON_clean_linker_0--edge1-MIFKUJ_clean_linker_0
_symmetry_space_group_name_H-M    P1
_symmetry_Int_Tables_number       1
_symmetry_cell_setting            triclinic
loop_
_symmetry_equiv_pos_as_xyz
'x, y, z'
_cell_length_a     52.277174
_cell_length_b     49.614968
_cell_length_c     48.524768
_cell_angle_alpha  87.183661
_cell_angle_beta   93.72546
_cell_angle_gamma 109.86352
loop_
_atom_site_label
_atom_site_type_symbol
_atom_site_fract_x
_atom_site_fract_y
_atom_site_fract_z
_atom_type_partial_charge
H0 H 0.36258 0.26894 0.419 0.0
C1 C 0.37021 0.28288 0.40127 0.0
C2 C 0.39542 0.28493 0.39127 0.0
C3 C 0.35396 0.29747 0.38785 0.0
H4 H 0.42364 0.30347 0.35936 0.0
C5 C 0.40444 0.30217 0.36755 0.0
C6 C 0.38837 0.31687 0.35371 0.0
C7 C 0.36317 0.31459 0.36416 0.0
C8 C 0.32616 0.29196 0.39712 0.0
H9 H 0.35037 0.32535 0.35341 0.0
C10 C 0.31798 0.31416 0.40631 0.0
C11 C 0.29201 0.30781 0.41698 0.0
C12 C 0.30797 0.26363 0.39791 0.0
H13 H 0.31385 0.24628 0.39087 0.0
C14 C 0.2821 0.25739 0.40776 0.0
H15 H 0.33209 0.33599 0.4061 0.0
C16 C 0.27417 0.27923 0.41731 0.0
H17 H 0.25389 0.27375 0.42478 0.0
H18 H 0.26818 0.23551 0.40814 0.0
H19 H 0.79024 0.33842 0.32434 0.0
C20 C 0.78011 0.31541 0.32392 0.0
C21 C 0.79357 0.29678 0.33485 0.0
C22 C 0.75296 0.30475 0.31385 0.0
H23 H 0.78951 0.25253 0.34364 0.0
C24 C 0.77929 0.26709 0.33539 0.0
C25 C 0.75157 0.25613 0.32663 0.0
C26 C 0.73879 0.27521 0.31516 0.0
C27 C 0.73842 0.32481 0.30528 0.0
H28 H 0.71725 0.2675 0.30916 0.0
C29 C 0.72746 0.32527 0.27812 0.0
C30 C 0.71311 0.34405 0.27048 0.0
C31 C 0.73515 0.34337 0.32464 0.0
H32 H 0.74347 0.34325 0.34567 0.0
C33 C 0.72072 0.36186 0.3171 0.0
H34 H 0.73007 0.3111 0.26306 0.0
C35 C 0.70964 0.36215 0.2902 0.0
H36 H 0.69869 0.37682 0.28463 0.0
H37 H 0.71813 0.376 0.33215 0.0
H38 H 0.76299 0.67897 0.39377 0.0
C39 C 0.75718 0.67382 0.3723 0.0
C40 C 0.7719 0.66065 0.35758 0.0
C41 C 0.73335 0.67764 0.36032 0.0
H42 H 0.77358 0.64123 0.31912 0.0
C43 C 0.76271 0.65186 0.33044 0.0
C44 C 0.73932 0.65622 0.31795 0.0
C45 C 0.72494 0.66936 0.33299 0.0
C46 C 0.7136 0.68293 0.37806 0.0
H47 H 0.70596 0.67115 0.32416 0.0
C48 C 0.71594 0.71055 0.38658 0.0
C49 C 0.69596 0.71413 0.40307 0.0
C50 C 0.69143 0.65918 0.38606 0.0
H51 H 0.6893 0.63786 0.37968 0.0
C52 C 0.67176 0.66261 0.40215 0.0
H53 H 0.73303 0.72893 0.38044 0.0
C54 C 0.67388 0.68976 0.41049 0.0
H55 H 0.6578 0.69168 0.42241 0.0
H56 H 0.65463 0.64415 0.408 0.0
H57 H 0.39809 0.74233 0.30088 0.0
C58 C 0.37809 0.72872 0.30694 0.0
C59 C 0.36828 0.73341 0.33181 0.0
C60 C 0.36168 0.70736 0.28926 0.0
H61 H 0.33471 0.72017 0.35842 0.0
C62 C 0.34202 0.71652 0.33902 0.0
C63 C 0.3253 0.69498 0.32161 0.0
C64 C 0.33545 0.6903 0.29678 0.0
C65 C 0.37064 0.70555 0.26142 0.0
H66 H 0.32256 0.67444 0.28267 0.0
C67 C 0.37878 0.6826 0.25437 0.0
C68 C 0.38733 0.6815 0.22759 0.0
C69 C 0.3711 0.72733 0.24171 0.0
H70 H 0.36493 0.74515 0.24687 0.0
C71 C 0.37933 0.72621 0.21518 0.0
H72 H 0.37848 0.6658 0.26962 0.0
C73 C 0.38739 0.7035 0.20811 0.0
H74 H 0.39418 0.70343 0.1875 0.0
H75 H 0.37962 0.74309 0.20007 0.0
H76 H 0.42859 0.70662 0.72481 0.0
C77 C 0.40672 0.69932 0.7206 0.0
C78 C 0.39386 0.71881 0.71047 0.0
C79 C 0.39179 0.66993 0.72277 0.0
H80 H 0.35574 0.72344 0.69547 0.0
C81 C 0.36568 0.70866 0.70385 0.0
C82 C 0.35068 0.6793 0.70573 0.0
C83 C 0.36386 0.6601 0.71546 0.0
C84 C 0.40572 0.64883 0.72877 0.0
H85 H 0.3526 0.63727 0.71634 0.0
C86 C 0.41663 0.64551 0.75541 0.0
C87 C 0.42804 0.62376 0.7612 0.0
C88 C 0.40681 0.63085 0.70777 0.0
H89 H 0.39841 0.63314 0.68712 0.0
C90 C 0.41868 0.60977 0.71324 0.0
H91 H 0.41531 0.65906 0.77173 0.0
C92 C 0.42914 0.60612 0.73978 0.0
H93 H 0.43823 0.58956 0.74354 0.0
H94 H 0.41957 0.59606 0.69691 0.0
H95 H 0.37432 0.32758 0.72443 0.0
C96 C 0.38519 0.31551 0.71521 0.0
C97 C 0.4111 0.31632 0.72639 0.0
C98 C 0.37245 0.298 0.69295 0.0
H99 H 0.44437 0.30037 0.72205 0.0
C100 C 0.42461 0.30014 0.7137 0.0
C101 C 0.41246 0.28304 0.69074 0.0
C102 C 0.38629 0.28215 0.68086 0.0
C103 C 0.34324 0.29264 0.68461 0.0
H104 H 0.37591 0.26806 0.66425 0.0
C105 C 0.33289 0.31497 0.67668 0.0
C106 C 0.30497 0.3085 0.66854 0.0
C107 C 0.3254 0.26412 0.68453 0.0
H108 H 0.33269 0.24663 0.69082 0.0
C109 C 0.29802 0.25772 0.6765 0.0
H110 H 0.34643 0.33705 0.67674 0.0
C111 C 0.28789 0.2796 0.66847 0.0
H112 H 0.26657 0.27379 0.66179 0.0
H113 H 0.28458 0.23562 0.67637 0.0
H114 H 0.84256 0.33499 0.76541 0.0
C115 C 0.82743 0.31889 0.75311 0.0
C116 C 0.82905 0.31939 0.72434 0.0
C117 C 0.80604 0.29803 0.7661 0.0
H118 H 0.81056 0.29859 0.68652 0.0
C119 C 0.80901 0.29867 0.70868 0.0
C120 C 0.78761 0.27743 0.72154 0.0
C121 C 0.78624 0.27729 0.75038 0.0
C122 C 0.80415 0.29856 0.79614 0.0
H123 H 0.76964 0.26134 0.76059 0.0
C124 C 0.78969 0.31446 0.80693 0.0
C125 C 0.78919 0.31665 0.83564 0.0
C126 C 0.81788 0.28445 0.81406 0.0
H127 H 0.82923 0.27222 0.80594 0.0
C128 C 0.81727 0.28634 0.84262 0.0
H129 H 0.77944 0.32569 0.79295 0.0
C130 C 0.80314 0.30247 0.85341 0.0
H131 H 0.80291 0.30368 0.87562 0.0
H132 H 0.82791 0.27544 0.85643 0.0
H133 H 0.81948 0.7026 0.6432 0.0
C134 C 0.80791 0.69107 0.66044 0.0
C135 C 0.80945 0.66423 0.6692 0.0
C136 C 0.79222 0.70373 0.67412 0.0
H137 H 0.79648 0.62964 0.69955 0.0
C138 C 0.79478 0.64992 0.69197 0.0
C139 C 0.77878 0.66223 0.70581 0.0
C140 C 0.77717 0.68894 0.69644 0.0
C141 C 0.79514 0.73404 0.66742 0.0
H142 H 0.7658 0.69908 0.70767 0.0
C143 C 0.77284 0.74238 0.65774 0.0
C144 C 0.77696 0.77125 0.64973 0.0
C145 C 0.82123 0.75483 0.6699 0.0
H146 H 0.83861 0.74887 0.67743 0.0
C147 C 0.8252 0.78342 0.66275 0.0
H148 H 0.75272 0.72638 0.65545 0.0
C149 C 0.80331 0.7916 0.65264 0.0
H150 H 0.80699 0.81399 0.64716 0.0
H151 H 0.84537 0.79928 0.66485 0.0
Co152 Co 0.11942 0.49619 0.5321 0.0
Co153 Co 0.08766 0.475 0.48866 0.0
Co154 Co 0.06479 0.51868 0.51389 0.0
O155 O 0.08116 0.48769 0.52225 0.0
H156 H 0.06964 0.47192 0.53308 0.0
O157 O 0.04772 0.54924 0.50579 0.0
Co158 Co 1.00869 0.53946 0.49774 0.0
Co159 Co 0.04188 0.56172 0.53988 0.0
H160 H 0.05863 0.565 0.49443 0.0
O161 O 0.09428 0.44079 0.48511 0.0
O162 O 0.12503 0.4838 0.49532 0.0
O163 O 0.08328 0.49673 0.45578 0.0
O164 O 0.08678 0.53453 0.48025 0.0
O165 O 0.03565 0.4912 0.49079 0.0
O166 O 0.97375 0.53369 0.4889 0.0
O167 O 1.00904 0.57473 0.48431 0.0
O168 O 1.00258 0.50094 0.5095 0.0
O169 O 0.04308 0.5031 0.54756 0.0
O170 O 0.04964 0.54136 0.57244 0.0
O171 O 1.00402 0.54965 0.53564 0.0
O172 O 0.03234 0.59415 0.54463 0.0
C173 C 0.14346 0.47426 0.55091 0.0
C174 C 0.11945 0.55054 0.5337 0.0
C175 C 0.08964 0.52361 0.45779 0.0
C176 C 0.11949 0.45723 0.48868 0.0
C177 C 0.98292 0.56055 0.4811 0.0
C178 C 1.0105 0.48491 0.49501 0.0
C179 C 0.04234 0.51439 0.57048 0.0
C180 C 1.00785 0.57558 0.54322 0.0
O181 O 0.15408 0.50086 0.54252 0.0
O182 O 0.11718 0.46135 0.54735 0.0
O183 O 0.09431 0.5459 0.53704 0.0
O184 O 0.12636 0.53417 0.5186 0.0
Co185 Co 0.58504 0.95333 0.51864 0.0
Co186 Co 0.60482 0.98236 0.56321 0.0
Co187 Co 0.56278 0.00869 0.53282 0.0
O188 O 0.5928 0.99255 0.52861 0.0
H189 H 0.60786 0.00572 0.519 0.0
O190 O 0.53306 0.02536 0.53693 0.0
Co191 Co 0.54159 0.06489 0.54735 0.0
Co192 Co 0.52177 0.03667 0.50256 0.0
H193 H 0.5178 0.01227 0.54637 0.0
O194 O 0.63803 0.97638 0.56962 0.0
O195 O 0.59797 0.94386 0.55609 0.0
O196 O 0.58364 0.98343 0.59398 0.0
O197 O 0.5481 0.98394 0.56645 0.0
O198 O 0.58849 0.03854 0.55684 0.0
O199 O 0.54672 0.10008 0.5589 0.0
O200 O 0.50854 0.06136 0.56027 0.0
O201 O 0.57756 0.07387 0.53615 0.0
O202 O 0.57761 0.03323 0.4991 0.0
O203 O 0.54219 0.03423 0.47165 0.0
O204 O 0.52972 0.07531 0.50978 0.0
O205 O 0.48916 0.04363 0.49599 0.0
C206 C 0.6055 0.93027 0.50067 0.0
C207 C 0.533 0.95165 0.51391 0.0
C208 C 0.5583 0.97875 0.58996 0.0
C209 C 0.62339 0.94998 0.56462 0.0
C210 C 0.52166 0.08822 0.56587 0.0
C211 C 0.59363 0.06526 0.55207 0.0
C212 C 0.5673 0.03756 0.47538 0.0
C213 C 0.50453 0.06989 0.50065 0.0
O214 O 0.58061 0.91817 0.5081 0.0
O215 O 0.61788 0.95756 0.50496 0.0
O216 O 0.53705 0.97826 0.50899 0.0
O217 O 0.54941 0.94414 0.53043 0.0
Co218 Co 0.5389 0.49363 0.08024 0.0
Co219 Co 0.52245 0.44348 0.05869 0.0
Co220 Co 0.57116 0.4889 0.02379 0.0
O221 O 0.53643 0.48034 0.04334 0.0
H222 H 0.52254 0.48479 0.03179 0.0
O223 O 0.60633 0.49804 1.00519 0.0
Co224 Co 0.6079 0.48353 0.97018 0.0
Co225 Co 0.61929 0.53421 0.9886 0.0
H226 H 0.62035 0.49557 0.01803 0.0
O227 O 0.48645 0.42675 0.07071 0.0
O228 O 0.52295 0.4542 0.0951 0.0
O229 O 0.54685 0.42208 0.05871 0.0
O230 O 0.58305 0.45867 0.04533 0.0
O231 O 0.5503 0.45983 0.99532 0.0
O232 O 0.61205 0.46886 0.93909 0.0
O233 O 0.64126 0.48067 0.97632 0.0
O234 O 0.57272 0.48381 0.95977 0.0
O235 O 0.559 0.5184 1.0017 0.0
O236 O 0.59382 0.55444 0.98507 0.0
O237 O 0.6234 0.52279 0.95356 0.0
O238 O 0.65575 0.553 0.98095 0.0
C239 C 0.51537 0.50873 0.10296 0.0
C240 C 0.59278 0.51113 0.07756 0.0
C241 C 0.57229 0.43328 0.05558 0.0
C242 C 0.49757 0.43796 0.09402 0.0
C243 C 0.63465 0.46917 0.95213 0.0
C244 C 0.55221 0.46437 0.96923 0.0
C245 C 0.56867 0.54279 0.98924 0.0
C246 C 0.64787 0.54123 0.95715 0.0
O247 O 0.53844 0.50719 0.1133 0.0
O248 O 0.50651 0.49915 0.0783 0.0
O249 O 0.59213 0.51812 0.05194 0.0
O250 O 0.57342 0.49025 0.08677 0.0
H251 H 0.29743 0.36108 0.39413 0.0
H252 H 0.27688 0.39522 0.4092 0.0
H253 H 0.24483 0.33911 0.47884 0.0
H254 H 0.2659 0.30554 0.46438 0.0
H255 H 0.22452 0.38518 0.4108 0.0
H256 H 0.23292 0.37423 0.53055 0.0
H257 H 0.26601 0.36968 0.56744 0.0
H258 H 0.3318 0.4108 0.51463 0.0
H259 H 0.29911 0.41574 0.4774 0.0
H260 H 0.11475 0.40386 0.47216 0.0
H261 H 0.15118 0.38611 0.46203 0.0
H262 H 0.21114 0.46683 0.48524 0.0
H263 H 0.17468 0.48516 0.49478 0.0
H264 H 0.22495 0.41899 0.50544 0.0
H265 H 0.19889 0.4563 0.42006 0.0
H266 H 0.16665 0.46316 0.3833 0.0
H267 H 0.13925 0.37327 0.36687 0.0
H268 H 0.17104 0.36579 0.40386 0.0
C269 C 0.28661 0.35644 0.41304 0.0
C270 C 0.28303 0.33048 0.42788 0.0
C271 C 0.27476 0.37588 0.42157 0.0
C272 C 0.25936 0.36985 0.44524 0.0
C273 C 0.25691 0.34456 0.46078 0.0
C274 C 0.26871 0.32518 0.45227 0.0
C275 C 0.24321 0.38803 0.45198 0.0
C276 C 0.22483 0.39272 0.43147 0.0
C277 C 0.24368 0.39821 0.47888 0.0
C278 C 0.26352 0.39527 0.50114 0.0
C279 C 0.25444 0.38249 0.52685 0.0
C280 C 0.27313 0.37981 0.54783 0.0
C281 C 0.30098 0.39002 0.54343 0.0
C282 C 0.31021 0.40286 0.518 0.0
C283 C 0.2916 0.40552 0.49691 0.0
C284 C 0.13565 0.41788 0.47522 0.0
C285 C 0.14176 0.446 0.48419 0.0
C286 C 0.15646 0.40768 0.46941 0.0
C287 C 0.18384 0.42523 0.47268 0.0
C288 C 0.19013 0.45296 0.48256 0.0
C289 C 0.16926 0.46338 0.48797 0.0
C290 C 0.20561 0.41472 0.46461 0.0
C291 C 0.2249 0.41153 0.4848 0.0
C292 C 0.20614 0.40602 0.4374 0.0
C293 C 0.18724 0.41046 0.41486 0.0
C294 C 0.18587 0.43796 0.40873 0.0
C295 C 0.16769 0.44197 0.38784 0.0
C296 C 0.15088 0.41866 0.37278 0.0
C297 C 0.15228 0.3913 0.37855 0.0
C298 C 0.1704 0.38718 0.39946 0.0
H299 H 0.13681 0.42179 0.35662 0.0
H300 H 0.31541 0.38794 0.55972 0.0
H301 H 0.70818 0.21988 0.29619 0.0
H302 H 0.676 0.17394 0.31193 0.0
H303 H 0.72525 0.17756 0.38734 0.0
H304 H 0.75673 0.22371 0.37258 0.0
H305 H 0.70209 0.12145 0.36624 0.0
H306 H 0.67672 0.20386 0.38702 0.0
H307 H 0.66468 0.24702 0.37465 0.0
H308 H 0.59696 0.19717 0.32299 0.0
H309 H 0.60893 0.15378 0.33468 0.0
H310 H 0.62293 0.05786 0.47843 0.0
H311 H 0.65303 0.08585 0.44347 0.0
H312 H 0.58393 0.07548 0.38614 0.0
H313 H 0.55344 0.04804 0.42142 0.0
H314 H 0.61348 0.12914 0.38817 0.0
H315 H 0.63339 0.04438 0.37564 0.0
H316 H 0.64498 1.00127 0.38943 0.0
H317 H 0.72181 0.05392 0.42555 0.0
H318 H 0.71054 0.09735 0.41237 0.0
C319 C 0.71234 0.21078 0.31601 0.0
C320 C 0.73499 0.22578 0.33319 0.0
C321 C 0.69403 0.18443 0.32484 0.0
C322 C 0.69821 0.17253 0.35086 0.0
C323 C 0.72178 0.18632 0.3671 0.0
C324 C 0.73987 0.21275 0.35849 0.0
C325 C 0.67669 0.14779 0.36289 0.0
C326 C 0.68263 0.12295 0.371 0.0
C327 C 0.65111 0.14962 0.36843 0.0
C328 C 0.64397 0.1757 0.36136 0.0
C329 C 0.65944 0.20217 0.37278 0.0
C330 C 0.6526 0.22666 0.36594 0.0
C331 C 0.63013 0.22486 0.34796 0.0
C332 C 0.61442 0.19855 0.33684 0.0
C333 C 0.62123 0.17401 0.34354 0.0
C334 C 0.6141 0.06104 0.45825 0.0
C335 C 0.58572 0.05088 0.45283 0.0
C336 C 0.63141 0.07692 0.43814 0.0
C337 C 0.62081 0.08257 0.41201 0.0
C338 C 0.59258 0.07138 0.40613 0.0
C339 C 0.5752 0.05567 0.42634 0.0
C340 C 0.63894 0.10273 0.39217 0.0
C341 C 0.63247 0.12696 0.38272 0.0
C342 C 0.66396 0.10021 0.38538 0.0
C343 C 0.67104 0.07416 0.3931 0.0
C344 C 0.6527 0.04678 0.38666 0.0
C345 C 0.65922 0.02227 0.39436 0.0
C346 C 0.6841 0.02485 0.40839 0.0
C347 C 0.70254 0.05195 0.41468 0.0
C348 C 0.69612 0.07653 0.40704 0.0
H349 H 0.68909 0.00585 0.41436 0.0
H350 H 0.62484 0.24383 0.34271 0.0
H351 H 0.81671 0.69598 0.3865 0.0
H352 H 0.85473 0.68337 0.40938 0.0
H353 H 0.81704 0.59626 0.38338 0.0
H354 H 0.77943 0.60882 0.36016 0.0
H355 H 0.83484 0.60275 0.44137 0.0
H356 H 0.86768 0.63532 0.35028 0.0
H357 H 0.88021 0.67052 0.31151 0.0
H358 H 0.93918 0.73013 0.36472 0.0
H359 H 0.92669 0.6954 0.40394 0.0
H360 H 0.93094 0.53398 0.46155 0.0
H361 H 0.89754 0.55532 0.44355 0.0
H362 H 0.95575 0.6398 0.4572 0.0
H363 H 0.98993 0.61829 0.47463 0.0
H364 H 0.9292 0.64044 0.40976 0.0
H365 H 0.89919 0.60922 0.50038 0.0
H366 H 0.88585 0.57643 0.54085 0.0
H367 H 0.82225 0.51737 0.49161 0.0
H368 H 0.83499 0.54981 0.4508 0.0
C369 C 0.81663 0.67418 0.38565 0.0
C370 C 0.79518 0.65344 0.37138 0.0
C371 C 0.83836 0.66702 0.39864 0.0
C372 C 0.83877 0.63887 0.39803 0.0
C373 C 0.8172 0.6181 0.38409 0.0
C374 C 0.7958 0.62535 0.3707 0.0
C375 C 0.86139 0.63071 0.41212 0.0
C376 C 0.85544 0.61083 0.43437 0.0
C377 C 0.88849 0.64208 0.40367 0.0
C378 C 0.89601 0.66292 0.38012 0.0
C379 C 0.88312 0.65605 0.35379 0.0
C380 C 0.89026 0.67588 0.33171 0.0
C381 C 0.91041 0.70259 0.33567 0.0
C382 C 0.92353 0.70947 0.3617 0.0
C383 C 0.91644 0.68971 0.38385 0.0
C384 C 0.93676 0.55714 0.46082 0.0
C385 C 0.96318 0.57441 0.46962 0.0
C386 C 0.91745 0.56936 0.45068 0.0
C387 C 0.92371 0.59925 0.44956 0.0
C388 C 0.95025 0.61668 0.45798 0.0
C389 C 0.96982 0.60438 0.46791 0.0
C390 C 0.90259 0.61184 0.43878 0.0
C391 C 0.90874 0.63258 0.41713 0.0
C392 C 0.87568 0.60161 0.44807 0.0
C393 C 0.86819 0.58185 0.47247 0.0
C394 C 0.88249 0.58915 0.49812 0.0
C395 C 0.87501 0.57067 0.52114 0.0
C396 C 0.85339 0.54479 0.51879 0.0
C397 C 0.83904 0.5374 0.49341 0.0
C398 C 0.84629 0.55588 0.47034 0.0
H399 H 0.8477 0.53053 0.53666 0.0
H400 H 0.91592 0.71791 0.31855 0.0
H401 H 0.35593 0.77956 0.34605 0.0
H402 H 0.38246 0.81778 0.37729 0.0
H403 H 0.44353 0.77731 0.39027 0.0
H404 H 0.41743 0.7395 0.35827 0.0
H405 H 0.4181 0.79466 0.44082 0.0
H406 H 0.46437 0.82856 0.35545 0.0
H407 H 0.46544 0.84192 0.30581 0.0
H408 H 0.42937 0.90561 0.31995 0.0
H409 H 0.42769 0.89227 0.36966 0.0
H410 H 0.52629 0.89482 0.51298 0.0
H411 H 0.49591 0.85896 0.4828 0.0
H412 H 0.46162 0.92139 0.44722 0.0
H413 H 0.49331 0.95814 0.47674 0.0
H414 H 0.46998 0.8933 0.40797 0.0
H415 H 0.42651 0.86406 0.4927 0.0
H416 H 0.42197 0.85068 0.54222 0.0
H417 H 0.44787 0.77889 0.53039 0.0
H418 H 0.45302 0.79208 0.48088 0.0
C419 C 0.37512 0.77903 0.35547 0.0
C420 C 0.38479 0.7568 0.34985 0.0
C421 C 0.39018 0.80075 0.37323 0.0
C422 C 0.41484 0.80023 0.38602 0.0
C423 C 0.4245 0.77797 0.38054 0.0
C424 C 0.40973 0.75656 0.36226 0.0
C425 C 0.43036 0.82282 0.40538 0.0
C426 C 0.42976 0.81618 0.43377 0.0
C427 C 0.44448 0.85106 0.39601 0.0
C428 C 0.44558 0.85916 0.36619 0.0
C429 C 0.45638 0.84518 0.34793 0.0
C430 C 0.45717 0.8528 0.31979 0.0
C431 C 0.44739 0.87453 0.30972 0.0
C432 C 0.43689 0.88874 0.32778 0.0
C433 C 0.43603 0.88117 0.35593 0.0
C434 C 0.51221 0.90102 0.49893 0.0
C435 C 0.51235 0.92945 0.49726 0.0
C436 C 0.49459 0.88031 0.48176 0.0
C437 C 0.47606 0.88722 0.46295 0.0
C438 C 0.47569 0.91548 0.46159 0.0
C439 C 0.49373 0.93645 0.47854 0.0
C440 C 0.45828 0.86523 0.44381 0.0
C441 C 0.45828 0.87192 0.41532 0.0
C442 C 0.44318 0.8371 0.45319 0.0
C443 C 0.44028 0.82917 0.48305 0.0
C444 C 0.43144 0.84554 0.50068 0.0
C445 C 0.4287 0.83795 0.52874 0.0
C446 C 0.43454 0.8139 0.53941 0.0
C447 C 0.44326 0.79746 0.52207 0.0
C448 C 0.44608 0.80497 0.494 0.0
H449 H 0.43236 0.80802 0.56113 0.0
H450 H 0.44803 0.88041 0.28793 0.0
H451 H 0.33012 0.63621 0.66968 0.0
H452 H 0.28595 0.62201 0.64441 0.0
H453 H 0.26361 0.68399 0.68752 0.0
H454 H 0.30821 0.69856 0.7131 0.0
H455 H 0.22119 0.62076 0.67759 0.0
H456 H 0.27791 0.70783 0.63348 0.0
H457 H 0.32126 0.73972 0.61557 0.0
H458 H 0.31985 0.67604 0.55813 0.0
H459 H 0.27675 0.64353 0.57609 0.0
H460 H 0.11279 0.58658 0.57177 0.0
H461 H 0.14791 0.61676 0.60385 0.0
H462 H 0.20851 0.59017 0.56785 0.0
H463 H 0.17397 0.56043 0.53593 0.0
H464 H 0.22751 0.64674 0.57752 0.0
H465 H 0.17866 0.55762 0.62588 0.0
H466 H 0.13758 0.52164 0.64428 0.0
H467 H 0.12555 0.58558 0.69344 0.0
H468 H 0.16641 0.62204 0.675 0.0
C469 C 0.3156 0.64636 0.67435 0.0
C470 C 0.32253 0.66842 0.69343 0.0
C471 C 0.29046 0.63833 0.65979 0.0
C472 C 0.27173 0.65208 0.66411 0.0
C473 C 0.27791 0.67317 0.68404 0.0
C474 C 0.30332 0.68151 0.69848 0.0
C475 C 0.24682 0.64553 0.64592 0.0
C476 C 0.2222 0.6271 0.65586 0.0
C477 C 0.24854 0.65346 0.61755 0.0
C478 C 0.27417 0.67318 0.60627 0.0
C479 C 0.28695 0.70054 0.61718 0.0
C480 C 0.31147 0.71874 0.607 0.0
C481 C 0.32332 0.7099 0.58575 0.0
C482 C 0.31064 0.68286 0.57459 0.0
C483 C 0.28615 0.66455 0.58475 0.0
C484 C 0.13368 0.5875 0.57048 0.0
C485 C 0.14059 0.57106 0.5513 0.0
C486 C 0.15366 0.60468 0.58885 0.0
C487 C 0.18075 0.60556 0.58828 0.0
C488 C 0.18775 0.58991 0.56856 0.0
C489 C 0.16792 0.57285 0.5503 0.0
C490 C 0.20192 0.62129 0.60898 0.0
C491 C 0.226 0.64131 0.59944 0.0
C492 C 0.19976 0.61452 0.63762 0.0
C493 C 0.17533 0.59261 0.6488 0.0
C494 C 0.16712 0.56405 0.64044 0.0
C495 C 0.1439 0.54357 0.6509 0.0
C496 C 0.1289 0.55135 0.66993 0.0
C497 C 0.13715 0.57961 0.67863 0.0
C498 C 0.16033 0.60019 0.66819 0.0
H499 H 0.11093 0.53546 0.67801 0.0
H500 H 0.34231 0.72401 0.5779 0.0
H501 H 0.44599 0.25488 0.71566 0.0
H502 H 0.46514 0.22266 0.69445 0.0
H503 H 0.42745 0.2355 0.61568 0.0
H504 H 0.40973 0.26913 0.63601 0.0
H505 H 0.41798 0.17375 0.63703 0.0
H506 H 0.48777 0.26537 0.61792 0.0
H507 H 0.522 0.31163 0.63105 0.0
H508 H 0.56476 0.26767 0.68431 0.0
H509 H 0.5305 0.22115 0.67183 0.0
H510 H 0.47365 0.09728 0.55103 0.0
H511 H 0.45546 0.13081 0.57143 0.0
H512 H 0.52186 0.15114 0.63341 0.0
H513 H 0.54114 0.11969 0.61135 0.0
H514 H 0.51593 0.19672 0.62113 0.0
H515 H 0.44891 0.10621 0.64388 0.0
H516 H 0.41487 0.0585 0.63523 0.0
H517 H 0.36716 0.09688 0.58194 0.0
H518 H 0.40107 0.14481 0.59004 0.0
C519 C 0.44221 0.25149 0.6937 0.0
C520 C 0.42596 0.2647 0.67777 0.0
C521 C 0.453 0.23275 0.68165 0.0
C522 C 0.44749 0.22643 0.65353 0.0
C523 C 0.4317 0.23978 0.63749 0.0
C524 C 0.42142 0.25894 0.64931 0.0
C525 C 0.45786 0.20563 0.64081 0.0
C526 C 0.43937 0.17877 0.63329 0.0
C527 C 0.48582 0.21185 0.6367 0.0
C528 C 0.50638 0.23981 0.64421 0.0
C529 C 0.50429 0.26558 0.63267 0.0
C530 C 0.52374 0.29185 0.63994 0.0
C531 C 0.54549 0.2926 0.65858 0.0
C532 C 0.54787 0.26707 0.66993 0.0
C533 C 0.52845 0.24075 0.66276 0.0
C534 C 0.48412 0.10877 0.56917 0.0
C535 C 0.50864 0.10573 0.57981 0.0
C536 C 0.47363 0.12787 0.58102 0.0
C537 C 0.48683 0.14341 0.60454 0.0
C538 C 0.51113 0.13974 0.61533 0.0
C539 C 0.52209 0.12152 0.60287 0.0
C540 C 0.47611 0.16418 0.61742 0.0
C541 C 0.49452 0.19126 0.62494 0.0
C542 C 0.44811 0.15781 0.62223 0.0
C543 C 0.42765 0.12905 0.61737 0.0
C544 C 0.43123 0.10445 0.63019 0.0
C545 C 0.41195 0.07737 0.6254 0.0
C546 C 0.3889 0.07465 0.60799 0.0
C547 C 0.38504 0.09902 0.59539 0.0
C548 C 0.40426 0.12614 0.6001 0.0
H549 H 0.374 0.05367 0.6043 0.0
H550 H 0.56054 0.31295 0.66416 0.0
H551 H 0.88323 0.3356 0.73929 0.0
H552 H 0.9209 0.37088 0.71593 0.0
H553 H 0.86377 0.38822 0.65544 0.0
H554 H 0.82609 0.35244 0.67843 0.0
H555 H 0.90382 0.38368 0.63034 0.0
H556 H 0.89671 0.43634 0.70687 0.0
H557 H 0.89364 0.44579 0.75575 0.0
H558 H 0.97272 0.43923 0.77478 0.0
H559 H 0.97611 0.42936 0.72605 0.0
H560 H 0.01669 0.53025 0.61081 0.0
H561 H 0.98217 0.49851 0.6401 0.0
H562 H 0.99714 0.42523 0.60965 0.0
H563 H 0.03103 0.45686 0.57939 0.0
H564 H 0.97654 0.46051 0.67988 0.0
H565 H 0.93813 0.3713 0.59874 0.0
H566 H 0.93767 0.36662 0.5483 0.0
H567 H 0.94293 0.45458 0.53574 0.0
H568 H 0.94297 0.45965 0.58604 0.0
C569 C 0.87874 0.34715 0.72114 0.0
C570 C 0.85178 0.34135 0.71065 0.0
C571 C 0.90025 0.36735 0.70785 0.0
C572 C 0.89517 0.38247 0.6841 0.0
C573 C 0.8682 0.37678 0.67369 0.0
C574 C 0.84671 0.35635 0.6868 0.0
C575 C 0.91803 0.40349 0.66957 0.0
C576 C 0.91969 0.40047 0.64121 0.0
C577 C 0.93844 0.42586 0.68355 0.0
C578 C 0.93655 0.43185 0.71286 0.0
C579 C 0.91336 0.4367 0.72152 0.0
C580 C 0.91158 0.44217 0.74919 0.0
C581 C 0.93295 0.44304 0.76837 0.0
C582 C 0.95617 0.43852 0.7599 0.0
C583 C 0.95805 0.43301 0.73226 0.0
C584 C 0.01311 0.50743 0.61078 0.0
C585 C 0.02635 0.49599 0.59254 0.0
C586 C 0.9933 0.48929 0.62754 0.0
C587 C 0.98658 0.45946 0.62654 0.0
C588 C 1.00151 0.44817 0.61019 0.0
C589 C 0.02099 0.46625 0.59306 0.0
C590 C 0.96261 0.4402 0.64086 0.0
C591 C 0.9607 0.44363 0.6691 0.0
C592 C 0.94139 0.41887 0.62655 0.0
C593 C 0.94084 0.4159 0.59619 0.0
C594 C 0.93906 0.38959 0.5852 0.0
C595 C 0.93889 0.38688 0.55664 0.0
C596 C 0.94036 0.4103 0.53883 0.0
C597 C 0.94189 0.43647 0.54954 0.0
C598 C 0.94199 0.43928 0.57808 0.0
H599 H 0.94024 0.4081 0.51675 0.0
H600 H 0.93153 0.44727 0.78978 0.0
H601 H 0.72596 0.75957 0.66915 0.0
H602 H 0.69149 0.78094 0.65248 0.0
H603 H 0.74337 0.82655 0.58764 0.0
H604 H 0.77728 0.80491 0.60372 0.0
H605 H 0.69717 0.83643 0.65141 0.0
H606 H 0.70993 0.83938 0.53369 0.0
H607 H 0.71772 0.80879 0.4989 0.0
H608 H 0.67948 0.73385 0.54905 0.0
H609 H 0.67112 0.76401 0.58394 0.0
H610 H 0.67388 0.95507 0.58746 0.0
H611 H 0.69242 0.91693 0.59982 0.0
H612 H 0.61877 0.85425 0.56696 0.0
H613 H 0.59991 0.89245 0.5545 0.0
H614 H 0.66465 0.84294 0.55378 0.0
H615 H 0.62673 0.86025 0.6343 0.0
H616 H 0.61771 0.88934 0.66974 0.0
H617 H 0.70261 0.91987 0.69537 0.0
H618 H 0.71223 0.8913 0.65976 0.0
C619 C 0.72963 0.77362 0.65095 0.0
C620 C 0.75437 0.78074 0.63785 0.0
C621 C 0.71004 0.78594 0.64154 0.0
C622 C 0.71473 0.80525 0.61868 0.0
C623 C 0.739 0.81141 0.60501 0.0
C624 C 0.75852 0.79922 0.6144 0.0
C625 C 0.69569 0.82105 0.61038 0.0
C626 C 0.68993 0.83769 0.63008 0.0
C627 C 0.68571 0.82233 0.58268 0.0
C628 C 0.68983 0.80398 0.56136 0.0
C629 C 0.70282 0.81637 0.53708 0.0
C630 C 0.70747 0.79911 0.51742 0.0
C631 C 0.69914 0.7694 0.52179 0.0
C632 C 0.68598 0.75688 0.54574 0.0
C633 C 0.68131 0.77405 0.56547 0.0
C634 C 0.66159 0.93323 0.5827 0.0
C635 C 0.63523 0.92684 0.57026 0.0
C636 C 0.67221 0.9114 0.58989 0.0
C637 C 0.6568 0.88267 0.58478 0.0
C638 C 0.63095 0.87625 0.57128 0.0
C639 C 0.62018 0.89813 0.56424 0.0
C640 C 0.66769 0.85958 0.59444 0.0
C641 C 0.67179 0.84156 0.57507 0.0
C642 C 0.67592 0.8568 0.62251 0.0
C643 C 0.67022 0.87373 0.64425 0.0
C644 C 0.64351 0.87329 0.64738 0.0
C645 C 0.63829 0.88968 0.66751 0.0
C646 C 0.65958 0.90647 0.68478 0.0
C647 C 0.68614 0.90685 0.68198 0.0
C648 C 0.69148 0.89053 0.66185 0.0
H649 H 0.6555 0.91916 0.70034 0.0
H650 H 0.70289 0.75607 0.50663 0.0
H651 H 0.42023 0.25311 0.3658 0.0
H652 H 0.44129 0.21971 0.38737 0.0
H653 H 0.42655 0.24257 0.46799 0.0
H654 H 0.40541 0.27603 0.44652 0.0
H655 H 0.48358 0.22288 0.42221 0.0
H656 H 0.40854 0.18168 0.50992 0.0
H657 H 0.3614 0.17687 0.51958 0.0
H658 H 0.33967 0.17421 0.43263 0.0
H659 H 0.38653 0.17852 0.42248 0.0
H660 H 0.53002 0.12738 0.50904 0.0
H661 H 0.51351 0.16665 0.49412 0.0
H662 H 0.43911 0.10565 0.46048 0.0
H663 H 0.45508 0.06637 0.47596 0.0
H664 H 0.42773 0.14581 0.48421 0.0
H665 H 0.49286 0.14328 0.41957 0.0
H666 H 0.53754 0.14443 0.40494 0.0
H667 H 0.57504 0.2285 0.43757 0.0
H668 H 0.53061 0.22768 0.45273 0.0
C669 C 0.42195 0.25147 0.38813 0.0
C670 C 0.41099 0.26712 0.40443 0.0
C671 C 0.43393 0.23228 0.40045 0.0
C672 C 0.43517 0.2283 0.4293 0.0
C673 C 0.42539 0.24488 0.44568 0.0
C674 C 0.41331 0.26399 0.43338 0.0
C675 C 0.44545 0.20581 0.44205 0.0
C676 C 0.47144 0.20615 0.43592 0.0
C677 C 0.42946 0.18365 0.45958 0.0
C678 C 0.40115 0.18083 0.46545 0.0
C679 C 0.39368 0.18001 0.49287 0.0
C680 C 0.36701 0.17735 0.49843 0.0
C681 C 0.34759 0.17536 0.47673 0.0
C682 C 0.35476 0.17588 0.44942 0.0
C683 C 0.38138 0.17846 0.44375 0.0
C684 C 0.51005 0.12231 0.49866 0.0
C685 C 0.49398 0.09371 0.49348 0.0
C686 C 0.50068 0.14481 0.49004 0.0
C687 C 0.47524 0.13918 0.47574 0.0
C688 C 0.45882 0.11059 0.47142 0.0
C689 C 0.46805 0.08811 0.48022 0.0
C690 C 0.4659 0.16288 0.46443 0.0
C691 C 0.44005 0.16278 0.47083 0.0
C692 C 0.48173 0.1848 0.44656 0.0
C693 C 0.50847 0.18528 0.43755 0.0
C694 C 0.51067 0.16191 0.42383 0.0
C695 C 0.53595 0.16252 0.4154 0.0
C696 C 0.55913 0.18649 0.42038 0.0
C697 C 0.55708 0.20992 0.43377 0.0
C698 C 0.53186 0.2094 0.44227 0.0
H699 H 0.57867 0.18694 0.41381 0.0
H700 H 0.32696 0.17334 0.48108 0.0
H701 H 0.81346 0.27679 0.38238 0.0
H702 H 0.85515 0.3011 0.40939 0.0
H703 H 0.87677 0.36953 0.34765 0.0
H704 H 0.83619 0.34422 0.31937 0.0
H705 H 0.92109 0.36433 0.37006 0.0
H706 H 0.83913 0.37089 0.40436 0.0
H707 H 0.79285 0.3522 0.4217 0.0
H708 H 0.82165 0.3103 0.49023 0.0
H709 H 0.86806 0.32844 0.47305 0.0
H710 H 0.95666 0.47632 0.48428 0.0
H711 H 0.92375 0.43832 0.45786 0.0
H712 H 0.98465 0.39882 0.44923 0.0
H713 H 0.01828 0.43796 0.47458 0.0
H714 H 0.90115 0.38461 0.46393 0.0
H715 H 0.97283 0.36479 0.38803 0.0
H716 H 0.0171 0.3904 0.36792 0.0
H717 H 1.00547 0.47094 0.37775 0.0
H718 H 0.96101 0.44578 0.39758 0.0
C719 C 0.82752 0.29644 0.37393 0.0
C720 C 0.82112 0.30877 0.34882 0.0
C721 C 0.85125 0.31053 0.38965 0.0
C722 C 0.86867 0.33757 0.38098 0.0
C723 C 0.8635 0.34882 0.35494 0.0
C724 C 0.84007 0.33447 0.33893 0.0
C725 C 0.89045 0.35555 0.40008 0.0
C726 C 0.91681 0.36856 0.39069 0.0
C727 C 0.88479 0.36156 0.42682 0.0
C728 C 0.85695 0.3507 0.43724 0.0
C729 C 0.83554 0.35752 0.42302 0.0
C730 C 0.8093 0.34705 0.43283 0.0
C731 C 0.8043 0.32999 0.457 0.0
C732 C 0.82555 0.32345 0.47147 0.0
C733 C 0.85182 0.33381 0.46171 0.0
C734 C 0.9631 0.45956 0.47683 0.0
C735 C 0.99013 0.46029 0.48124 0.0
C736 C 0.94419 0.43772 0.46179 0.0
C737 C 0.95176 0.41585 0.45121 0.0
C738 C 0.97847 0.41578 0.45668 0.0
C739 C 0.99762 0.43806 0.47125 0.0
C740 C 0.93169 0.3939 0.43374 0.0
C741 C 0.90563 0.38001 0.44351 0.0
C742 C 0.93733 0.3881 0.40693 0.0
C743 C 0.96379 0.40342 0.39459 0.0
C744 C 0.97971 0.38795 0.38581 0.0
C745 C 1.00482 0.40239 0.37447 0.0
C746 C 0.01414 0.43228 0.37166 0.0
C747 C 0.99828 0.4478 0.38004 0.0
C748 C 0.97314 0.43346 0.39134 0.0
H749 H 0.03361 0.44342 0.36293 0.0
H750 H 0.78397 0.32191 0.46457 0.0
H751 H 0.68418 0.72775 0.45353 0.0
H752 H 0.67567 0.77102 0.46542 0.0
H753 H 0.70189 0.80962 0.38613 0.0
H754 H 0.70901 0.76543 0.37319 0.0
H755 H 0.71608 0.84061 0.45531 0.0
H756 H 0.65225 0.80557 0.37189 0.0
H757 H 0.62129 0.76457 0.3459 0.0
H758 H 0.57736 0.73132 0.41889 0.0
H759 H 0.60832 0.772 0.44532 0.0
H760 H 0.65349 0.94777 0.47351 0.0
H761 H 0.67524 0.91719 0.45309 0.0
H762 H 0.61126 0.84193 0.48139 0.0
H763 H 0.58923 0.87208 0.50084 0.0
H764 H 0.62043 0.83402 0.43163 0.0
H765 H 0.67547 0.87018 0.51275 0.0
H766 H 0.70589 0.90557 0.54468 0.0
H767 H 0.76633 0.93282 0.48389 0.0
H768 H 0.73613 0.89763 0.4515 0.0
C769 C 0.68842 0.74547 0.4386 0.0
C770 C 0.69681 0.74282 0.41215 0.0
C771 C 0.68387 0.77036 0.44565 0.0
C772 C 0.68822 0.79352 0.42676 0.0
C773 C 0.69849 0.79195 0.40105 0.0
C774 C 0.70269 0.76674 0.39375 0.0
C775 C 0.67872 0.81745 0.4331 0.0
C776 C 0.69544 0.83981 0.44956 0.0
C777 C 0.65151 0.81564 0.42651 0.0
C778 C 0.63264 0.79161 0.41054 0.0
C779 C 0.63607 0.78941 0.38238 0.0
C780 C 0.61852 0.76626 0.36758 0.0
C781 C 0.5974 0.74532 0.38075 0.0
C782 C 0.59374 0.74754 0.40872 0.0
C783 C 0.61125 0.77063 0.4236 0.0
C784 C 0.64411 0.9247 0.47531 0.0
C785 C 0.61954 0.91241 0.48868 0.0
C786 C 0.65658 0.90722 0.46368 0.0
C787 C 0.64496 0.87713 0.46566 0.0
C788 C 0.62056 0.865 0.47925 0.0
C789 C 0.60799 0.88235 0.49049 0.0
C790 C 0.65782 0.85788 0.45381 0.0
C791 C 0.64146 0.83585 0.4367 0.0
C792 C 0.68531 0.85993 0.46025 0.0
C793 C 0.70336 0.88142 0.47958 0.0
C794 C 0.69513 0.88387 0.50609 0.0
C795 C 0.71236 0.90386 0.52431 0.0
C796 C 0.73799 0.92152 0.51629 0.0
C797 C 0.74645 0.91915 0.49006 0.0
C798 C 0.72928 0.89914 0.47178 0.0
H799 H 0.75132 0.93699 0.53043 0.0
H800 H 0.58385 0.72741 0.36927 0.0
H801 H 0.29785 0.63723 0.31655 0.0
H802 H 0.25285 0.60953 0.33322 0.0
H803 H 0.24431 0.6871 0.36105 0.0
H804 H 0.28877 0.71492 0.34399 0.0
H805 H 0.23634 0.6447 0.40168 0.0
H806 H 0.20606 0.65435 0.30715 0.0
H807 H 0.20607 0.65026 0.25672 0.0
H808 H 0.18621 0.55906 0.26654 0.0
H809 H 0.18648 0.56266 0.31709 0.0
H810 H 0.10715 0.58231 0.45361 0.0
H811 H 0.14246 0.61315 0.42435 0.0
H812 H 0.14698 0.53866 0.38545 0.0
H813 H 0.11114 0.50781 0.41385 0.0
H814 H 0.15603 0.58079 0.34884 0.0
H815 H 0.19119 0.56978 0.44094 0.0
H816 H 0.19553 0.57155 0.49173 0.0
H817 H 0.20928 0.66202 0.48704 0.0
H818 H 0.20497 0.66074 0.43612 0.0
C819 C 0.28614 0.64844 0.32572 0.0
C820 C 0.29708 0.67823 0.3293 0.0
C821 C 0.26045 0.63259 0.33524 0.0
C822 C 0.24529 0.64629 0.3484 0.0
C823 C 0.25575 0.67611 0.3511 0.0
C824 C 0.28126 0.69193 0.3415 0.0
C825 C 0.21957 0.62948 0.36141 0.0
C826 C 0.21858 0.63114 0.39004 0.0
C827 C 0.19682 0.61103 0.34633 0.0
C828 C 0.19654 0.60882 0.31594 0.0
C829 C 0.20193 0.63345 0.29858 0.0
C830 C 0.20184 0.63122 0.26997 0.0
C831 C 0.19621 0.60443 0.25844 0.0
C832 C 0.1906 0.5798 0.2755 0.0
C833 C 0.19069 0.58193 0.30413 0.0
C834 C 0.11518 0.57253 0.43837 0.0
C835 C 0.10653 0.54254 0.43638 0.0
C836 C 0.13553 0.59018 0.42178 0.0
C837 C 0.14794 0.57818 0.40323 0.0
C838 C 0.13788 0.54844 0.39973 0.0
C839 C 0.11733 0.5308 0.41605 0.0
C840 C 0.17272 0.59621 0.38916 0.0
C841 C 0.17365 0.59464 0.36042 0.0
C842 C 0.19573 0.61443 0.40417 0.0
C843 C 0.19745 0.6151 0.43477 0.0
C844 C 0.19485 0.58998 0.45076 0.0
C845 C 0.19736 0.59092 0.47957 0.0
C846 C 0.20256 0.61688 0.49263 0.0
C847 C 0.2052 0.64193 0.47689 0.0
C848 C 0.20277 0.64113 0.44806 0.0
H849 H 0.20475 0.61768 0.51491 0.0
H850 H 0.19615 0.60274 0.23628 0.0
H851 H 0.43577 0.75676 0.74084 0.0
H852 H 0.46399 0.80549 0.72658 0.0
H853 H 0.41713 0.79681 0.64898 0.0
H854 H 0.38943 0.74834 0.66275 0.0
H855 H 0.4715 0.81644 0.64189 0.0
H856 H 0.40825 0.8373 0.6985 0.0
H857 H 0.38469 0.83568 0.74127 0.0
H858 H 0.46134 0.87741 0.78448 0.0
H859 H 0.48541 0.8789 0.74203 0.0
H860 H 0.50317 0.95282 0.58387 0.0
H861 H 0.47509 0.91345 0.61239 0.0
H862 H 0.54289 0.92388 0.67122 0.0
H863 H 0.57151 0.96324 0.64263 0.0
H864 H 0.48136 0.90494 0.69148 0.0
H865 H 0.54469 0.87906 0.63759 0.0
H866 H 0.56926 0.88221 0.59527 0.0
H867 H 0.49324 0.85103 0.54795 0.0
H868 H 0.46819 0.84797 0.59019 0.0
C869 C 0.43149 0.76537 0.72082 0.0
C870 C 0.41022 0.74885 0.70305 0.0
C871 C 0.44748 0.7932 0.71277 0.0
C872 C 0.4425 0.80478 0.68679 0.0
C873 C 0.42125 0.78832 0.66914 0.0
C874 C 0.40527 0.7607 0.67717 0.0
C875 C 0.45994 0.83359 0.67723 0.0
C876 C 0.47347 0.83571 0.65274 0.0
C877 C 0.4631 0.85875 0.69168 0.0
C878 C 0.44865 0.85791 0.71718 0.0
C879 C 0.42011 0.84589 0.71719 0.0
C880 C 0.40665 0.84505 0.74135 0.0
C881 C 0.42152 0.85636 0.7656 0.0
C882 C 0.44986 0.86861 0.7657 0.0
C883 C 0.46342 0.86948 0.74159 0.0
C884 C 0.51198 0.94749 0.60329 0.0
C885 C 0.53977 0.96085 0.61069 0.0
C886 C 0.49583 0.925 0.6196 0.0
C887 C 0.50706 0.91577 0.64372 0.0
C888 C 0.53393 0.93088 0.65269 0.0
C889 C 0.55025 0.95325 0.63623 0.0
C890 C 0.49239 0.88745 0.65621 0.0
C891 C 0.47947 0.88548 0.681 0.0
C892 C 0.48986 0.86229 0.64227 0.0
C893 C 0.50462 0.86338 0.61695 0.0
C894 C 0.53323 0.87298 0.61813 0.0
C895 C 0.54724 0.87473 0.59418 0.0
C896 C 0.53282 0.86678 0.56891 0.0
C897 C 0.50435 0.85707 0.56757 0.0
C898 C 0.49023 0.85527 0.59152 0.0
H899 H 0.54373 0.8681 0.55041 0.0
H900 H 0.41106 0.85569 0.78429 0.0
H901 H 0.32541 0.35521 0.63312 0.0
H902 H 0.30124 0.38676 0.61266 0.0
H903 H 0.23269 0.34317 0.66196 0.0
H904 H 0.25679 0.31236 0.68286 0.0
H905 H 0.21874 0.34539 0.60518 0.0
H906 H 0.27175 0.40959 0.6767 0.0
H907 H 0.31463 0.43841 0.70082 0.0
H908 H 0.3412 0.48613 0.62558 0.0
H909 H 0.29861 0.4573 0.60092 0.0
H910 H 0.12965 0.42451 0.58252 0.0
H911 H 0.15979 0.39918 0.60195 0.0
H912 H 0.22798 0.46235 0.5639 0.0
H913 H 0.19825 0.4886 0.54598 0.0
H914 H 0.24525 0.45091 0.61089 0.0
H915 H 0.19353 0.39205 0.53923 0.0
H916 H 0.15355 0.36286 0.51135 0.0
H917 H 0.12724 0.30492 0.58061 0.0
H918 H 0.16708 0.33378 0.60898 0.0
C919 C 0.30548 0.35288 0.64008 0.0
C920 C 0.29292 0.33101 0.65939 0.0
C921 C 0.2916 0.37078 0.62824 0.0
C922 C 0.26496 0.36707 0.63552 0.0
C923 C 0.25304 0.34621 0.65575 0.0
C924 C 0.26689 0.3286 0.66768 0.0
C925 C 0.24865 0.38362 0.62129 0.0
C926 C 0.22432 0.36845 0.60667 0.0
C927 C 0.2566 0.4138 0.62208 0.0
C928 C 0.28214 0.43111 0.63693 0.0
C929 C 0.28684 0.42606 0.66525 0.0
C930 C 0.31107 0.44243 0.67903 0.0
C931 C 0.33066 0.46404 0.66472 0.0
C932 C 0.32603 0.46936 0.63662 0.0
C933 C 0.30185 0.45303 0.62275 0.0
C934 C 0.15108 0.43301 0.57838 0.0
C935 C 0.16151 0.45857 0.56271 0.0
C936 C 0.16833 0.41838 0.58931 0.0
C937 C 0.19627 0.42845 0.58408 0.0
C938 C 0.20663 0.45404 0.56841 0.0
C939 C 0.18954 0.46903 0.55807 0.0
C940 C 0.21469 0.41261 0.59527 0.0
C941 C 0.23953 0.42788 0.60919 0.0
C942 C 0.20753 0.38249 0.59321 0.0
C943 C 0.18331 0.36521 0.57629 0.0
C944 C 0.1792 0.37317 0.54857 0.0
C945 C 0.15655 0.35667 0.53266 0.0
C946 C 0.13782 0.33212 0.54421 0.0
C947 C 0.14176 0.32396 0.57168 0.0
C948 C 0.16442 0.34035 0.58767 0.0
H949 H 0.12029 0.31938 0.53185 0.0
H950 H 0.34939 0.4767 0.67543 0.0
H951 H 0.7615 0.28513 0.67273 0.0
H952 H 0.72895 0.24832 0.64415 0.0
H953 H 0.73452 0.18296 0.70387 0.0
H954 H 0.76748 0.21966 0.73237 0.0
H955 H 0.73845 0.16884 0.65053 0.0
H956 H 0.67961 0.20288 0.70032 0.0
H957 H 0.66218 0.23894 0.7175 0.0
H958 H 0.64533 0.26379 0.63416 0.0
H959 H 0.66306 0.22816 0.61646 0.0
H960 H 0.62412 0.0553 0.59687 0.0
H961 H 0.65791 0.09096 0.62543 0.0
H962 H 0.64772 0.15868 0.57135 0.0
H963 H 0.61337 0.12323 0.54318 0.0
H964 H 0.6462 0.17115 0.62272 0.0
H965 H 0.70552 0.13841 0.57243 0.0
H966 H 0.72282 0.10259 0.5545 0.0
H967 H 0.73911 0.07598 0.63738 0.0
H968 H 0.72156 0.11141 0.65581 0.0
C969 C 0.75583 0.2629 0.67974 0.0
C970 C 0.76702 0.25525 0.70479 0.0
C971 C 0.7371 0.24194 0.6635 0.0
C972 C 0.72921 0.21295 0.67201 0.0
C973 C 0.74033 0.20523 0.69699 0.0
C974 C 0.75896 0.22621 0.71333 0.0
C975 C 0.70969 0.19068 0.65455 0.0
C976 C 0.71813 0.16907 0.64472 0.0
C977 C 0.68347 0.19149 0.64646 0.0
C978 C 0.67293 0.21304 0.65707 0.0
C979 C 0.67244 0.21622 0.68565 0.0
C980 C 0.66245 0.23655 0.69548 0.0
C981 C 0.65272 0.25369 0.67693 0.0
C982 C 0.65291 0.25052 0.64851 0.0
C983 C 0.66291 0.23025 0.63856 0.0
C984 C 0.62931 0.07777 0.59087 0.0
C985 C 0.61603 0.08645 0.5678 0.0
C986 C 0.64869 0.09814 0.60719 0.0
C987 C 0.6555 0.12751 0.60044 0.0
C988 C 0.64273 0.13615 0.57701 0.0
C989 C 0.62316 0.11585 0.56087 0.0
C990 C 0.67499 0.14936 0.61844 0.0
C991 C 0.66653 0.17088 0.62844 0.0
C992 C 0.70124 0.14857 0.62653 0.0
C993 C 0.71198 0.12738 0.6155 0.0
C994 C 0.7126 0.12478 0.58683 0.0
C995 C 0.72249 0.10457 0.57658 0.0
C996 C 0.73199 0.08697 0.59479 0.0
C997 C 0.73171 0.08961 0.6233 0.0
C998 C 0.72182 0.10977 0.63366 0.0
H999 H 0.73962 0.07133 0.58681 0.0
H1000 H 0.64496 0.26939 0.68459 0.0
H1001 H 0.86147 0.6926 0.65444 0.0
H1002 H 0.89123 0.67408 0.6304 0.0
H1003 H 0.82926 0.59036 0.62908 0.0
H1004 H 0.79923 0.60888 0.65347 0.0
H1005 H 0.87829 0.58572 0.6411 0.0
H1006 H 0.84093 0.63292 0.57044 0.0
H1007 H 0.82726 0.67178 0.54761 0.0
H1008 H 0.91079 0.72707 0.54933 0.0
H1009 H 0.92494 0.68866 0.57254 0.0
H1010 H 0.95479 0.5407 0.54729 0.0
H1011 H 0.91765 0.55253 0.56587 0.0
H1012 H 0.97129 0.63943 0.57786 0.0
H1013 H 1.00844 0.62787 0.55918 0.0
H1014 H 0.92149 0.63767 0.55694 0.0
H1015 H 0.95723 0.58872 0.63107 0.0
H1016 H 0.96927 0.54765 0.65107 0.0
H1017 H 0.88602 0.49285 0.63968 0.0
H1018 H 0.87356 0.53351 0.61917 0.0
C1019 C 0.85403 0.67028 0.64886 0.0
C1020 C 0.8278 0.65231 0.65551 0.0
C1021 C 0.8711 0.6597 0.6351 0.0
C1022 C 0.86231 0.63095 0.62737 0.0
C1023 C 0.83643 0.61266 0.63468 0.0
C1024 C 0.81932 0.62325 0.64864 0.0
C1025 C 0.88038 0.62033 0.61171 0.0
C1026 C 0.88738 0.59679 0.62245 0.0
C1027 C 0.89236 0.63475 0.58737 0.0
C1028 C 0.88396 0.65797 0.57345 0.0
C1029 C 0.85637 0.65344 0.56616 0.0
C1030 C 0.84853 0.67537 0.55311 0.0
C1031 C 0.86814 0.7019 0.54708 0.0
C1032 C 0.89563 0.70652 0.55404 0.0
C1033 C 0.90357 0.68466 0.56711 0.0
C1034 C 0.95863 0.56241 0.55366 0.0
C1035 C 0.98468 0.58328 0.55201 0.0
C1036 C 0.9374 0.56909 0.56439 0.0
C1037 C 0.9418 0.59676 0.57368 0.0
C1038 C 0.96745 0.61791 0.57096 0.0
C1039 C 0.9887 0.61124 0.56031 0.0
C1040 C 0.92004 0.60376 0.58684 0.0
C1041 C 0.91227 0.62655 0.57553 0.0
C1042 C 0.90712 0.58836 0.61038 0.0
C1043 C 0.91451 0.56411 0.62337 0.0
C1044 C 0.94152 0.56788 0.6327 0.0
C1045 C 0.94842 0.54468 0.64413 0.0
C1046 C 0.92844 0.51764 0.64659 0.0
C1047 C 0.90149 0.5138 0.63773 0.0
C1048 C 0.89449 0.53692 0.62622 0.0
H1049 H 0.93381 0.49969 0.6554 0.0
H1050 H 0.86203 0.71885 0.53697 0.0
H1051 H 0.35848 0.31326 0.30483 0.0
H1052 H 0.37412 0.33632 0.26022 0.0
H1053 H 0.45379 0.37896 0.29805 0.0
H1054 H 0.43829 0.35584 0.3427 0.0
H1055 H 0.43313 0.41477 0.26134 0.0
H1056 H 0.44567 0.32246 0.26345 0.0
H1057 H 0.4302 0.26977 0.26876 0.0
H1058 H 0.37121 0.26244 0.20118 0.0
H1059 H 0.38606 0.31516 0.19574 0.0
H1060 H 0.51631 0.45573 0.14631 0.0
H1061 H 0.49418 0.43838 0.1895 0.0
H1062 H 0.42317 0.38394 0.14421 0.0
H1063 H 0.4455 0.40087 0.10076 0.0
H1064 H 0.4361 0.35407 0.18422 0.0
H1065 H 0.42311 0.44402 0.17921 0.0
H1066 H 0.43192 0.49599 0.17579 0.0
H1067 H 0.48618 0.50822 0.24798 0.0
H1068 H 0.47803 0.45623 0.25161 0.0
C1069 C 0.37921 0.32787 0.30371 0.0
C1070 C 0.39717 0.33276 0.32725 0.0
C1071 C 0.38816 0.34086 0.27819 0.0
C1072 C 0.41517 0.35918 0.27579 0.0
C1073 C 0.43289 0.36486 0.29945 0.0
C1074 C 0.42405 0.35158 0.32489 0.0
C1075 C 0.42523 0.37175 0.24848 0.0
C1076 C 0.43417 0.40162 0.24452 0.0
C1077 C 0.42552 0.35443 0.22629 0.0
C1078 C 0.41678 0.32275 0.22938 0.0
C1079 C 0.42925 0.30962 0.24987 0.0
C1080 C 0.42062 0.27975 0.25288 0.0
C1081 C 0.39969 0.26277 0.23537 0.0
C1082 C 0.38739 0.27563 0.21475 0.0
C1083 C 0.39592 0.3055 0.21169 0.0
C1084 C 0.49584 0.44032 0.14542 0.0
C1085 C 0.48277 0.42958 0.11997 0.0
C1086 C 0.4831 0.43052 0.17023 0.0
C1087 C 0.45686 0.4099 0.17027 0.0
C1088 C 0.44343 0.39978 0.14481 0.0
C1089 C 0.45621 0.40956 0.11994 0.0
C1090 C 0.44441 0.39743 0.19687 0.0
C1091 C 0.43505 0.36745 0.20083 0.0
C1092 C 0.44338 0.4147 0.21893 0.0
C1093 C 0.45007 0.4462 0.21558 0.0
C1094 C 0.43726 0.45781 0.19411 0.0
C1095 C 0.44203 0.48729 0.19223 0.0
C1096 C 0.45943 0.50539 0.21179 0.0
C1097 C 0.47258 0.49414 0.23293 0.0
C1098 C 0.46791 0.46466 0.2349 0.0
H1099 H 0.46269 0.52814 0.21065 0.0
H1100 H 0.39303 0.23965 0.23773 0.0
H1101 H 0.46034 0.66384 0.797 0.0
H1102 H 0.48032 0.65505 0.84224 0.0
H1103 H 0.43941 0.56406 0.83412 0.0
H1104 H 0.41907 0.57272 0.78926 0.0
H1105 H 0.43875 0.58136 0.88712 0.0
H1106 H 0.50375 0.59325 0.81687 0.0
H1107 H 0.53238 0.61904 0.77897 0.0
H1108 H 0.57359 0.6889 0.83233 0.0
H1109 H 0.54491 0.66366 0.87045 0.0
H1110 H 0.51832 0.51396 0.96715 0.0
H1111 H 0.49084 0.53274 0.93452 0.0
H1112 H 0.54787 0.61846 0.94549 0.0
H1113 H 0.57644 0.5993 0.97699 0.0
H1114 H 0.53947 0.60977 0.89442 0.0
H1115 H 0.47833 0.59407 0.96729 0.0
H1116 H 0.45025 0.56692 1.005 0.0
H1117 H 0.40197 0.50392 0.94776 0.0
H1118 H 0.42992 0.53049 0.90975 0.0
C1119 C 0.45528 0.64203 0.80511 0.0
C1120 C 0.43844 0.61894 0.78949 0.0
C1121 C 0.46676 0.63703 0.83085 0.0
C1122 C 0.46153 0.60888 0.84136 0.0
C1123 C 0.44372 0.58593 0.82637 0.0
C1124 C 0.43236 0.59089 0.80064 0.0
C1125 C 0.47602 0.60299 0.86693 0.0
C1126 C 0.46077 0.58752 0.88884 0.0
C1127 C 0.50475 0.61158 0.86928 0.0
C1128 C 0.52197 0.62675 0.84638 0.0
C1129 C 0.51875 0.61423 0.82043 0.0
C1130 C 0.53502 0.62872 0.79893 0.0
C1131 C 0.55473 0.65564 0.80321 0.0
C1132 C 0.55827 0.66808 0.82903 0.0
C1133 C 0.54202 0.65369 0.85059 0.0
C1134 C 0.52462 0.53692 0.96324 0.0
C1135 C 0.54948 0.55523 0.97465 0.0
C1136 C 0.50878 0.5477 0.9446 0.0
C1137 C 0.51701 0.57715 0.93771 0.0
C1138 C 0.54107 0.59567 0.95043 0.0
C1139 C 0.55732 0.58477 0.96852 0.0
C1140 C 0.50229 0.58796 0.91495 0.0
C1141 C 0.51749 0.60418 0.8933 0.0
C1142 C 0.47352 0.58006 0.91294 0.0
C1143 C 0.45635 0.56423 0.93568 0.0
C1144 C 0.4618 0.57436 0.96276 0.0
C1145 C 0.44589 0.55907 0.98419 0.0
C1146 C 0.42436 0.53369 0.97878 0.0
C1147 C 0.41864 0.52359 0.95192 0.0
C1148 C 0.43448 0.53879 0.93041 0.0
H1149 H 0.41209 0.52187 0.99541 0.0
H1150 H 0.56732 0.66681 0.78655 0.0
H1151 H 0.46539 0.34453 0.74133 0.0
H1152 H 0.48481 0.36772 0.78481 0.0
H1153 H 0.40427 0.34977 0.81341 0.0
H1154 H 0.38453 0.32503 0.77084 0.0
H1155 H 0.44413 0.40915 0.8234 0.0
H1156 H 0.43296 0.30863 0.83803 0.0
H1157 H 0.43846 0.26321 0.82621 0.0
H1158 H 0.52541 0.30337 0.83095 0.0
H1159 H 0.5204 0.34919 0.84236 0.0
H1160 H 0.49627 0.44912 0.96211 0.0
H1161 H 0.46733 0.42192 0.92357 0.0
H1162 H 0.53769 0.40951 0.89193 0.0
H1163 H 0.56576 0.43525 0.9304 0.0
H1164 H 0.49751 0.36319 0.88545 0.0
H1165 H 0.51143 0.46313 0.8666 0.0
H1166 H 0.50941 0.51061 0.87663 0.0
H1167 H 0.42224 0.47521 0.87741 0.0
H1168 H 0.42377 0.42736 0.8678 0.0
C1169 C 0.45166 0.34517 0.75684 0.0
C1170 C 0.42322 0.33258 0.75221 0.0
C1171 C 0.46287 0.35878 0.78166 0.0
C1172 C 0.446 0.36056 0.80239 0.0
C1173 C 0.41769 0.34892 0.79763 0.0
C1174 C 0.40644 0.33486 0.77304 0.0
C1175 C 0.45802 0.37301 0.8296 0.0
C1176 C 0.45546 0.39893 0.83721 0.0
C1177 C 0.47323 0.35999 0.8474 0.0
C1178 C 0.47628 0.3324 0.84079 0.0
C1179 C 0.45324 0.30784 0.83631 0.0
C1180 C 0.45627 0.28201 0.82973 0.0
C1181 C 0.48227 0.28042 0.82776 0.0
C1182 C 0.50529 0.30464 0.83245 0.0
C1183 C 0.50236 0.33054 0.83899 0.0
C1184 C 0.50526 0.43998 0.94718 0.0
C1185 C 0.53336 0.44458 0.9491 0.0
C1186 C 0.48884 0.42475 0.92498 0.0
C1187 C 0.50035 0.41399 0.90439 0.0
C1188 C 0.52817 0.41757 0.90727 0.0
C1189 C 0.54437 0.43261 0.92926 0.0
C1190 C 0.4842 0.39978 0.87925 0.0
C1191 C 0.48595 0.3734 0.87192 0.0
C1192 C 0.46878 0.41277 0.8615 0.0
C1193 C 0.46773 0.44159 0.8668 0.0
C1194 C 0.49184 0.46542 0.86908 0.0
C1195 C 0.49079 0.49241 0.87467 0.0
C1196 C 0.46572 0.49591 0.87771 0.0
C1197 C 0.44164 0.47245 0.87509 0.0
C1198 C 0.44259 0.44539 0.86956 0.0
H1199 H 0.46497 0.51683 0.88202 0.0
H1200 H 0.48458 0.2604 0.82266 0.0
H1201 H 0.80779 0.35703 0.8751 0.0
H1202 H 0.78344 0.38574 0.89384 0.0
H1203 H 0.71291 0.3438 0.84076 0.0
H1204 H 0.73755 0.31568 0.82141 0.0
H1205 H 0.71975 0.39812 0.8416 0.0
H1206 H 0.71749 0.32536 0.91081 0.0
H1207 H 0.73647 0.29653 0.94347 0.0
H1208 H 0.7831 0.37239 0.98697 0.0
H1209 H 0.76466 0.40174 0.95431 0.0
H1210 H 0.61957 0.42958 0.9123 0.0
H1211 H 0.6474 0.40566 0.89231 0.0
H1212 H 0.71711 0.45497 0.94278 0.0
H1213 H 0.6889 0.47832 0.96377 0.0
H1214 H 0.71268 0.39956 0.94292 0.0
H1215 H 0.70346 0.46943 0.87534 0.0
H1216 H 0.67985 0.49362 0.84264 0.0
H1217 H 0.6481 0.41749 0.79523 0.0
H1218 H 0.67107 0.39255 0.82795 0.0
C1219 C 0.78706 0.35391 0.86754 0.0
C1220 C 0.77445 0.33402 0.84698 0.0
C1221 C 0.77315 0.37029 0.87824 0.0
C1222 C 0.74617 0.36663 0.86902 0.0
C1223 C 0.73371 0.34703 0.84818 0.0
C1224 C 0.74775 0.33094 0.83719 0.0
C1225 C 0.73078 0.38288 0.88135 0.0
C1226 C 0.71788 0.39819 0.86372 0.0
C1227 C 0.7288 0.38336 0.91026 0.0
C1228 C 0.73993 0.36578 0.92993 0.0
C1229 C 0.73196 0.33592 0.92721 0.0
C1230 C 0.74259 0.31948 0.94574 0.0
C1231 C 0.76104 0.33263 0.96723 0.0
C1232 C 0.76884 0.36224 0.97028 0.0
C1233 C 0.7583 0.37879 0.95177 0.0
C1234 C 0.64088 0.43548 0.91905 0.0
C1235 C 0.65216 0.45592 0.93948 0.0
C1236 C 0.65675 0.42179 0.90759 0.0
C1237 C 0.68441 0.42883 0.91575 0.0
C1238 C 0.69578 0.44926 0.93617 0.0
C1239 C 0.67973 0.46264 0.94806 0.0
C1240 C 0.70133 0.41456 0.90317 0.0
C1241 C 0.7146 0.39966 0.92077 0.0
C1242 C 0.70292 0.41386 0.87415 0.0
C1243 C 0.68919 0.42907 0.85423 0.0
C1244 C 0.69148 0.45777 0.85799 0.0
C1245 C 0.67812 0.47163 0.83945 0.0
C1246 C 0.66255 0.45714 0.81682 0.0
C1247 C 0.66024 0.42873 0.81274 0.0
C1248 C 0.67345 0.41472 0.8313 0.0
H1249 H 0.65225 0.46793 0.80248 0.0
H1250 H 0.76925 0.31987 0.98157 0.0
H1251 H 0.72513 0.64585 0.71777 0.0
H1252 H 0.70465 0.62409 0.76111 0.0
H1253 H 0.78399 0.62826 0.79604 0.0
H1254 H 0.804 0.64832 0.75222 0.0
H1255 H 0.75154 0.58204 0.81254 0.0
H1256 H 0.74928 0.67733 0.8109 0.0
H1257 H 0.73872 0.71961 0.79196 0.0
H1258 H 0.6532 0.67126 0.79086 0.0
H1259 H 0.66327 0.62855 0.80943 0.0
H1260 H 0.68897 0.59246 0.95119 0.0
H1261 H 0.71401 0.61233 0.9098 0.0
H1262 H 0.67115 0.53429 0.86722 0.0
H1263 H 0.64524 0.51458 0.90824 0.0
H1264 H 0.68804 0.61927 0.85697 0.0
H1265 H 0.73138 0.53057 0.82392 0.0
H1266 H 0.75074 0.49534 0.84545 0.0
H1267 H 0.76352 0.53784 0.92263 0.0
H1268 H 0.74614 0.57453 0.90118 0.0
C1269 C 0.73805 0.64191 0.73473 0.0
C1270 C 0.76607 0.64864 0.73172 0.0
C1271 C 0.72642 0.6297 0.75958 0.0
C1272 C 0.74278 0.62492 0.78223 0.0
C1273 C 0.77082 0.63157 0.77901 0.0
C1274 C 0.78229 0.64309 0.75398 0.0
C1275 C 0.73083 0.61295 0.80922 0.0
C1276 C 0.73751 0.59005 0.82218 0.0
C1277 C 0.71319 0.62399 0.82234 0.0
C1278 C 0.70705 0.64967 0.81131 0.0
C1279 C 0.72823 0.67566 0.80645 0.0
C1280 C 0.72233 0.69971 0.7958 0.0
C1281 C 0.69531 0.6981 0.79014 0.0
C1282 C 0.67412 0.67246 0.7952 0.0
C1283 C 0.67991 0.64833 0.80581 0.0
C1284 C 0.68507 0.57934 0.93316 0.0
C1285 C 0.66508 0.55189 0.93307 0.0
C1286 C 0.69933 0.59079 0.90949 0.0
C1287 C 0.69451 0.57475 0.88549 0.0
C1288 C 0.67533 0.54693 0.8856 0.0
C1289 C 0.66053 0.53572 0.90907 0.0
C1290 C 0.70821 0.58788 0.85982 0.0
C1291 C 0.70184 0.61103 0.84717 0.0
C1292 C 0.72681 0.5776 0.8475 0.0
C1293 C 0.73659 0.55502 0.86101 0.0
C1294 C 0.7384 0.53256 0.84546 0.0
C1295 C 0.74936 0.51248 0.85759 0.0
C1296 C 0.75808 0.51416 0.88546 0.0
C1297 C 0.75643 0.53633 0.90112 0.0
C1298 C 0.74609 0.55688 0.88892 0.0
H1299 H 0.76622 0.49836 0.89489 0.0
H1300 H 0.69078 0.71674 0.78189 0.0
H1301 H 0.7253 0.68402 0.27238 0.0
H1302 H 0.70508 0.6636 0.22779 0.0
H1303 H 0.70602 0.58055 0.25791 0.0
H1304 H 0.72763 0.60138 0.3017 0.0
H1305 H 0.71774 0.58419 0.20908 0.0
H1306 H 0.64685 0.60387 0.25231 0.0
H1307 H 0.62291 0.63168 0.27412 0.0
H1308 H 0.62872 0.6849 0.20068 0.0
H1309 H 0.65314 0.65772 0.17859 0.0
H1310 H 0.60838 0.49323 0.12738 0.0
H1311 H 0.63776 0.52214 0.1638 0.0
H1312 H 0.65289 0.59782 0.11101 0.0
H1313 H 0.6233 0.56869 0.07401 0.0
H1314 H 0.63591 0.60211 0.16658 0.0
H1315 H 0.70514 0.57463 0.12401 0.0
H1316 H 0.72044 0.53801 0.10446 0.0
H1317 H 0.70747 0.48982 0.1813 0.0
H1318 H 0.69249 0.52625 0.20137 0.0
C1319 C 0.72135 0.66146 0.26928 0.0
C1320 C 0.72812 0.64431 0.29043 0.0
C1321 C 0.70956 0.64969 0.24386 0.0
C1322 C 0.70343 0.62028 0.23938 0.0
C1323 C 0.71053 0.60328 0.26055 0.0
C1324 C 0.7229 0.61518 0.28565 0.0
C1325 C 0.68961 0.60701 0.21286 0.0
C1326 C 0.6998 0.58819 0.20002 0.0
C1327 C 0.66622 0.61213 0.20044 0.0
C1328 C 0.65224 0.62905 0.21397 0.0
C1329 C 0.64335 0.62175 0.24094 0.0
C1330 C 0.62963 0.63736 0.25333 0.0
C1331 C 0.62443 0.66014 0.23885 0.0
C1332 C 0.6329 0.66735 0.21193 0.0
C1333 C 0.6467 0.65186 0.19947 0.0
C1334 C 0.61823 0.51598 0.1233 0.0
C1335 C 0.61353 0.52868 0.09778 0.0
C1336 C 0.63507 0.53247 0.14417 0.0
C1337 C 0.64761 0.56213 0.14014 0.0
C1338 C 0.64344 0.57494 0.11451 0.0
C1339 C 0.62673 0.55827 0.09335 0.0
C1340 C 0.66404 0.57949 0.16336 0.0
C1341 C 0.65425 0.59886 0.17555 0.0
C1342 C 0.68715 0.57416 0.17574 0.0
C1343 C 0.69777 0.55318 0.16419 0.0
C1344 C 0.70575 0.55629 0.13677 0.0
C1345 C 0.71441 0.53558 0.12561 0.0
C1346 C 0.71508 0.51164 0.14167 0.0
C1347 C 0.70726 0.50848 0.16896 0.0
C1348 C 0.69882 0.52922 0.18029 0.0
H1349 H 0.72157 0.4955 0.13295 0.0
H1350 H 0.61371 0.67213 0.24843 0.0
H1351 H 0.37386 0.65089 0.18049 0.0
H1352 H 0.39392 0.61691 0.16475 0.0
H1353 H 0.44288 0.62531 0.24102 0.0
H1354 H 0.42309 0.65988 0.25672 0.0
H1355 H 0.47337 0.63126 0.19712 0.0
H1356 H 0.39179 0.56306 0.22787 0.0
H1357 H 0.34247 0.54037 0.23341 0.0
H1358 H 0.32928 0.52782 0.14602 0.0
H1359 H 0.3785 0.55082 0.13988 0.0
H1360 H 0.52647 0.52647 0.1561 0.0
H1361 H 0.50355 0.55195 0.18148 0.0
H1362 H 0.4465 0.54685 0.11189 0.0
H1363 H 0.46927 0.52096 0.08638 0.0
H1364 H 0.42056 0.53708 0.15741 0.0
H1365 H 0.50343 0.60955 0.12787 0.0
H1366 H 0.55316 0.63093 0.1241 0.0
H1367 H 0.56439 0.63355 0.2125 0.0
H1368 H 0.51472 0.61188 0.2168 0.0
C1369 C 0.38872 0.6453 0.19402 0.0
C1370 C 0.397 0.65814 0.21978 0.0
C1371 C 0.40003 0.62571 0.1851 0.0
C1372 C 0.41982 0.61841 0.20175 0.0
C1373 C 0.42761 0.63059 0.22785 0.0
C1374 C 0.41615 0.65015 0.23688 0.0
C1375 C 0.43351 0.59961 0.19091 0.0
C1376 C 0.4619 0.61036 0.189 0.0
C1377 C 0.41853 0.57255 0.1799 0.0
C1378 C 0.38884 0.55891 0.18339 0.0
C1379 C 0.37835 0.55571 0.20979 0.0
C1380 C 0.35041 0.54274 0.21305 0.0
C1381 C 0.33274 0.53272 0.19008 0.0
C1382 C 0.34299 0.53562 0.16379 0.0
C1383 C 0.37092 0.5486 0.16042 0.0
C1384 C 0.50896 0.53062 0.14619 0.0
C1385 C 0.49985 0.52191 0.11908 0.0
C1386 C 0.49594 0.54538 0.16071 0.0
C1387 C 0.47357 0.55187 0.14846 0.0
C1388 C 0.4638 0.54224 0.12177 0.0
C1389 C 0.47682 0.52742 0.10719 0.0
C1390 C 0.46042 0.5688 0.16333 0.0
C1391 C 0.43212 0.55775 0.16592 0.0
C1392 C 0.47555 0.59541 0.17527 0.0
C1393 C 0.50538 0.60886 0.17266 0.0
C1394 C 0.51652 0.61456 0.14651 0.0
C1395 C 0.54469 0.62674 0.14428 0.0
C1396 C 0.56194 0.63353 0.16805 0.0
C1397 C 0.55102 0.62826 0.19411 0.0
C1398 C 0.52286 0.61606 0.19645 0.0
H1399 H 0.58374 0.64291 0.16628 0.0
H1400 H 0.31112 0.52266 0.19264 0.0
H1401 H 0.74116 0.35802 0.22349 0.0
H1402 H 0.72335 0.36723 0.17709 0.0
H1403 H 0.64252 0.34248 0.20724 0.0
H1404 H 0.66033 0.33395 0.2536 0.0
H1405 H 0.64721 0.32234 0.15124 0.0
H1406 H 0.67716 0.40832 0.20891 0.0
H1407 H 0.71349 0.44363 0.23632 0.0
H1408 H 0.76266 0.4669 0.16564 0.0
H1409 H 0.72676 0.43131 0.13797 0.0
H1410 H 0.55837 0.38554 0.08943 0.0
H1411 H 0.58866 0.3653 0.11598 0.0
H1412 H 0.65777 0.42564 0.07668 0.0
H1413 H 0.62739 0.44703 0.05065 0.0
H1414 H 0.66921 0.42605 0.12813 0.0
H1415 H 0.63692 0.35044 0.06674 0.0
H1416 H 0.60436 0.31364 0.0375 0.0
H1417 H 0.56466 0.26938 0.10952 0.0
H1418 H 0.59671 0.30614 0.13921 0.0
C1419 C 0.71953 0.354 0.21993 0.0
C1420 C 0.70203 0.34541 0.24191 0.0
C1421 C 0.70942 0.35924 0.19355 0.0
C1422 C 0.68166 0.3555 0.18886 0.0
C1423 C 0.66397 0.34529 0.21047 0.0
C1424 C 0.67412 0.34058 0.23689 0.0
C1425 C 0.67124 0.36523 0.16258 0.0
C1426 C 0.65196 0.34496 0.14598 0.0
C1427 C 0.67853 0.39468 0.15518 0.0
C1428 C 0.69948 0.41691 0.17151 0.0
C1429 C 0.6958 0.42084 0.19929 0.0
C1430 C 0.71632 0.44086 0.21488 0.0
C1431 C 0.74048 0.45732 0.2028 0.0
C1432 C 0.74403 0.45398 0.17503 0.0
C1433 C 0.7236 0.43391 0.15938 0.0
C1434 C 0.57993 0.39422 0.0859 0.0
C1435 C 0.59041 0.41803 0.06794 0.0
C1436 C 0.59732 0.38241 0.10104 0.0
C1437 C 0.62558 0.3936 0.09814 0.0
C1438 C 0.63605 0.41657 0.07927 0.0
C1439 C 0.61864 0.42872 0.06434 0.0
C1440 C 0.64397 0.38315 0.11709 0.0
C1441 C 0.66482 0.40332 0.13252 0.0
C1442 C 0.6386 0.3535 0.12291 0.0
C1443 C 0.61922 0.33117 0.10522 0.0
C1444 C 0.62115 0.33297 0.07635 0.0
C1445 C 0.60278 0.31209 0.05969 0.0
C1446 C 0.58244 0.2892 0.07164 0.0
C1447 C 0.58045 0.28712 0.10029 0.0
C1448 C 0.59875 0.30794 0.11706 0.0
H1449 H 0.56824 0.27306 0.0587 0.0
H1450 H 0.75633 0.47284 0.21489 0.0
loop_
_geom_bond_atom_site_label_1
_geom_bond_atom_site_label_2
_geom_bond_distance
_geom_bond_site_symmetry_2
_ccdc_geom_bond_type
H0 C1 0.949 . S
C1 H0 0.949 . S
C1 C2 1.395 . S
C1 C3 1.391 . S
C2 C1 1.395 . S
C2 C5 1.390 . S
C3 C1 1.391 . S
C3 C7 1.387 . S
C3 C8 1.491 . S
H4 C5 0.950 . S
C5 C2 1.390 . S
C5 H4 0.950 . S
C5 C6 1.378 . S
C6 C5 1.378 . S
C6 C7 1.409 . S
C7 C3 1.387 . S
C7 C6 1.409 . S
C7 H9 0.951 . S
C8 C3 1.491 . S
C8 C10 1.382 . S
C8 C12 1.404 . S
H9 C7 0.951 . S
C10 C8 1.382 . S
C10 C11 1.390 . S
C10 H15 0.949 . S
C11 C10 1.390 . S
C11 C16 1.399 . S
C12 C8 1.404 . S
C12 H13 0.950 . S
C12 C14 1.375 . S
H13 C12 0.950 . S
C14 C12 1.375 . S
C14 C16 1.382 . S
C14 H18 0.950 . S
H15 C10 0.949 . S
C16 C11 1.399 . S
C16 C14 1.382 . S
C16 H17 0.952 . S
H17 C16 0.952 . S
H18 C14 0.950 . S
H19 C20 0.949 . S
C20 H19 0.949 . S
C20 C21 1.395 . S
C20 C22 1.391 . S
C21 C20 1.395 . S
C21 C24 1.390 . S
C22 C20 1.391 . S
C22 C26 1.387 . S
C22 C27 1.491 . S
H23 C24 0.950 . S
C24 C21 1.390 . S
C24 H23 0.950 . S
C24 C25 1.378 . S
C25 C24 1.378 . S
C25 C26 1.409 . S
C26 C22 1.387 . S
C26 C25 1.409 . S
C26 H28 0.951 . S
C27 C22 1.491 . S
C27 C29 1.382 . S
C27 C31 1.404 . S
H28 C26 0.951 . S
C29 C27 1.382 . S
C29 C30 1.390 . S
C29 H34 0.949 . S
C30 C29 1.390 . S
C30 C35 1.399 . S
C31 C27 1.404 . S
C31 H32 0.950 . S
C31 C33 1.375 . S
H32 C31 0.950 . S
C33 C31 1.375 . S
C33 C35 1.382 . S
C33 H37 0.950 . S
H34 C29 0.949 . S
C35 C30 1.399 . S
C35 C33 1.382 . S
C35 H36 0.952 . S
H36 C35 0.952 . S
H37 C33 0.950 . S
H38 C39 0.949 . S
C39 H38 0.949 . S
C39 C40 1.395 . S
C39 C41 1.391 . S
C40 C39 1.395 . S
C40 C43 1.390 . S
C41 C39 1.391 . S
C41 C45 1.387 . S
C41 C46 1.491 . S
H42 C43 0.950 . S
C43 C40 1.390 . S
C43 H42 0.950 . S
C43 C44 1.378 . S
C44 C43 1.378 . S
C44 C45 1.409 . S
C45 C41 1.387 . S
C45 C44 1.409 . S
C45 H47 0.951 . S
C46 C41 1.491 . S
C46 C48 1.382 . S
C46 C50 1.404 . S
H47 C45 0.951 . S
C48 C46 1.382 . S
C48 C49 1.390 . S
C48 H53 0.949 . S
C49 C48 1.390 . S
C49 C54 1.399 . S
C50 C46 1.404 . S
C50 H51 0.950 . S
C50 C52 1.375 . S
H51 C50 0.950 . S
C52 C50 1.375 . S
C52 C54 1.382 . S
C52 H56 0.950 . S
H53 C48 0.949 . S
C54 C49 1.399 . S
C54 C52 1.382 . S
C54 H55 0.952 . S
H55 C54 0.952 . S
H56 C52 0.950 . S
H57 C58 0.949 . S
C58 H57 0.949 . S
C58 C59 1.395 . S
C58 C60 1.391 . S
C59 C58 1.395 . S
C59 C62 1.390 . S
C60 C58 1.391 . S
C60 C64 1.387 . S
C60 C65 1.491 . S
H61 C62 0.950 . S
C62 C59 1.390 . S
C62 H61 0.950 . S
C62 C63 1.378 . S
C63 C62 1.378 . S
C63 C64 1.409 . S
C64 C60 1.387 . S
C64 C63 1.409 . S
C64 H66 0.951 . S
C65 C60 1.491 . S
C65 C67 1.382 . S
C65 C69 1.404 . S
H66 C64 0.951 . S
C67 C65 1.382 . S
C67 C68 1.390 . S
C67 H72 0.949 . S
C68 C67 1.390 . S
C68 C73 1.399 . S
C69 C65 1.404 . S
C69 H70 0.950 . S
C69 C71 1.375 . S
H70 C69 0.950 . S
C71 C69 1.375 . S
C71 C73 1.382 . S
C71 H75 0.950 . S
H72 C67 0.949 . S
C73 C68 1.399 . S
C73 C71 1.382 . S
C73 H74 0.952 . S
H74 C73 0.952 . S
H75 C71 0.950 . S
H76 C77 0.949 . S
C77 H76 0.949 . S
C77 C78 1.395 . S
C77 C79 1.391 . S
C78 C77 1.395 . S
C78 C81 1.390 . S
C79 C77 1.391 . S
C79 C83 1.387 . S
C79 C84 1.491 . S
H80 C81 0.950 . S
C81 C78 1.390 . S
C81 H80 0.950 . S
C81 C82 1.378 . S
C82 C81 1.378 . S
C82 C83 1.409 . S
C83 C79 1.387 . S
C83 C82 1.409 . S
C83 H85 0.951 . S
C84 C79 1.491 . S
C84 C86 1.382 . S
C84 C88 1.404 . S
H85 C83 0.951 . S
C86 C84 1.382 . S
C86 C87 1.390 . S
C86 H91 0.949 . S
C87 C86 1.390 . S
C87 C92 1.399 . S
C88 C84 1.404 . S
C88 H89 0.950 . S
C88 C90 1.375 . S
H89 C88 0.950 . S
C90 C88 1.375 . S
C90 C92 1.382 . S
C90 H94 0.950 . S
H91 C86 0.949 . S
C92 C87 1.399 . S
C92 C90 1.382 . S
C92 H93 0.952 . S
H93 C92 0.952 . S
H94 C90 0.950 . S
H95 C96 0.949 . S
C96 H95 0.949 . S
C96 C97 1.395 . S
C96 C98 1.391 . S
C97 C96 1.395 . S
C97 C100 1.390 . S
C98 C96 1.391 . S
C98 C102 1.387 . S
C98 C103 1.491 . S
H99 C100 0.950 . S
C100 C97 1.390 . S
C100 H99 0.950 . S
C100 C101 1.378 . S
C101 C100 1.378 . S
C101 C102 1.409 . S
C102 C98 1.387 . S
C102 C101 1.409 . S
C102 H104 0.951 . S
C103 C98 1.491 . S
C103 C105 1.382 . S
C103 C107 1.404 . S
H104 C102 0.951 . S
C105 C103 1.382 . S
C105 C106 1.390 . S
C105 H110 0.949 . S
C106 C105 1.390 . S
C106 C111 1.399 . S
C107 C103 1.404 . S
C107 H108 0.950 . S
C107 C109 1.375 . S
H108 C107 0.950 . S
C109 C107 1.375 . S
C109 C111 1.382 . S
C109 H113 0.950 . S
H110 C105 0.949 . S
C111 C106 1.399 . S
C111 C109 1.382 . S
C111 H112 0.952 . S
H112 C111 0.952 . S
H113 C109 0.950 . S
H114 C115 0.949 . S
C115 H114 0.949 . S
C115 C116 1.395 . S
C115 C117 1.391 . S
C116 C115 1.395 . S
C116 C119 1.390 . S
C117 C115 1.391 . S
C117 C121 1.387 . S
C117 C122 1.491 . S
H118 C119 0.950 . S
C119 C116 1.390 . S
C119 H118 0.950 . S
C119 C120 1.378 . S
C120 C119 1.378 . S
C120 C121 1.409 . S
C121 C117 1.387 . S
C121 C120 1.409 . S
C121 H123 0.951 . S
C122 C117 1.491 . S
C122 C124 1.382 . S
C122 C126 1.404 . S
H123 C121 0.951 . S
C124 C122 1.382 . S
C124 C125 1.390 . S
C124 H129 0.949 . S
C125 C124 1.390 . S
C125 C130 1.399 . S
C126 C122 1.404 . S
C126 H127 0.950 . S
C126 C128 1.375 . S
H127 C126 0.950 . S
C128 C126 1.375 . S
C128 C130 1.382 . S
C128 H132 0.950 . S
H129 C124 0.949 . S
C130 C125 1.399 . S
C130 C128 1.382 . S
C130 H131 0.952 . S
H131 C130 0.952 . S
H132 C128 0.950 . S
H133 C134 0.949 . S
C134 H133 0.949 . S
C134 C135 1.395 . S
C134 C136 1.391 . S
C135 C134 1.395 . S
C135 C138 1.390 . S
C136 C134 1.391 . S
C136 C140 1.387 . S
C136 C141 1.491 . S
H137 C138 0.950 . S
C138 C135 1.390 . S
C138 H137 0.950 . S
C138 C139 1.378 . S
C139 C138 1.378 . S
C139 C140 1.409 . S
C140 C136 1.387 . S
C140 C139 1.409 . S
C140 H142 0.951 . S
C141 C136 1.491 . S
C141 C143 1.382 . S
C141 C145 1.404 . S
H142 C140 0.951 . S
C143 C141 1.382 . S
C143 C144 1.390 . S
C143 H148 0.949 . S
C144 C143 1.390 . S
C144 C149 1.399 . S
C145 C141 1.404 . S
C145 H146 0.950 . S
C145 C147 1.375 . S
H146 C145 0.950 . S
C147 C145 1.375 . S
C147 C149 1.382 . S
C147 H151 0.950 . S
H148 C143 0.949 . S
C149 C144 1.399 . S
C149 C147 1.382 . S
C149 H150 0.952 . S
H150 C149 0.952 . S
H151 C147 0.950 . S
Co152 O155 2.042 . S
Co152 O162 2.264 . S
Co152 O181 2.286 . S
Co152 O182 2.069 . S
Co152 O184 2.015 . S
Co153 O155 2.122 . S
Co153 O161 2.073 . S
Co153 O162 2.327 . S
Co153 O163 1.976 . S
Co154 O155 2.087 . S
Co154 O157 2.087 . S
Co154 O164 2.111 . S
Co154 O165 2.143 . S
Co154 O169 2.111 . S
Co154 O183 2.143 . S
O155 Co152 2.042 . S
O155 Co153 2.122 . S
O155 Co154 2.087 . S
O155 H156 0.980 . S
H156 O155 0.980 . S
O157 Co154 2.087 . S
O157 Co158 2.042 1_455 S
O157 Co159 2.114 1_455 S
O157 H160 0.980 . S
Co158 O157 2.042 1_655 S
Co158 O166 2.286 . S
Co158 O167 2.069 . S
Co158 O168 2.015 . S
Co158 O171 2.264 . S
Co159 O157 2.114 1_655 S
Co159 O170 1.980 . S
Co159 O171 2.341 . S
Co159 O172 2.079 1_655 S
H160 O157 0.980 . S
O161 Co153 2.073 . S
O161 C176 1.245 . S
O162 Co152 2.264 . S
O162 Co153 2.327 . S
O162 C176 1.257 . S
O163 Co153 1.976 . S
O163 C175 1.251 . S
O164 Co154 2.111 . S
O164 C175 1.274 . S
O165 Co154 2.143 . S
O165 C178 1.246 1_455 S
O166 Co158 2.286 . S
O166 C177 1.259 . S
O167 Co158 2.069 . S
O167 C177 1.289 . S
O168 Co158 2.015 . S
O168 C178 1.257 . S
O169 Co154 2.111 . S
O169 C179 1.274 1_455 S
O170 Co159 1.980 . S
O170 C179 1.251 . S
O171 Co158 2.264 . S
O171 Co159 2.341 . S
O171 C180 1.257 . S
O172 Co159 2.079 1_455 S
O172 C180 1.245 1_455 S
C173 O181 1.259 . S
C173 O182 1.289 . S
C174 O183 1.246 . S
C174 O184 1.257 . S
C175 O163 1.251 . S
C175 O164 1.274 . S
C176 O161 1.245 . S
C176 O162 1.257 . S
C177 O166 1.259 . S
C177 O167 1.289 . S
C178 O165 1.246 1_655 S
C178 O168 1.257 . S
C179 O169 1.274 1_655 S
C179 O170 1.251 . S
C180 O171 1.257 . S
C180 O172 1.245 1_655 S
O181 Co152 2.286 . S
O181 C173 1.259 . S
O182 Co152 2.069 . S
O182 C173 1.289 . S
O183 Co154 2.143 . S
O183 C174 1.246 . S
O184 Co152 2.015 . S
O184 C174 1.257 . S
Co185 O188 2.042 . S
Co185 O195 2.264 . S
Co185 O214 2.286 . S
Co185 O215 2.069 . S
Co185 O217 2.015 . S
Co186 O188 2.122 . S
Co186 O194 2.073 . S
Co186 O195 2.327 . S
Co186 O196 1.976 . S
Co187 O188 2.087 1_545 S
Co187 O190 2.087 . S
Co187 O197 2.111 1_545 S
Co187 O198 2.143 . S
Co187 O202 2.111 . S
Co187 O216 2.143 1_545 S
O188 Co185 2.042 . S
O188 Co186 2.122 . S
O188 Co187 2.087 1_565 S
O188 H189 0.980 1_565 S
H189 O188 0.980 1_545 S
O190 Co187 2.087 . S
O190 Co191 2.042 . S
O190 Co192 2.122 . S
O190 H193 0.980 . S
Co191 O190 2.042 . S
Co191 O199 2.286 . S
Co191 O200 2.069 . S
Co191 O201 2.015 . S
Co191 O204 2.264 . S
Co192 O190 2.122 . S
Co192 O203 1.976 . S
Co192 O204 2.327 . S
Co192 O205 2.073 . S
H193 O190 0.980 . S
O194 Co186 2.073 . S
O194 C209 1.245 . S
O195 Co185 2.264 . S
O195 Co186 2.327 . S
O195 C209 1.257 . S
O196 Co186 1.976 . S
O196 C208 1.251 . S
O197 Co187 2.111 1_565 S
O197 C208 1.274 . S
O198 Co187 2.143 . S
O198 C211 1.246 . S
O199 Co191 2.286 . S
O199 C210 1.259 . S
O200 Co191 2.069 . S
O200 C210 1.289 . S
O201 Co191 2.015 . S
O201 C211 1.257 . S
O202 Co187 2.111 . S
O202 C212 1.274 . S
O203 Co192 1.976 . S
O203 C212 1.251 . S
O204 Co191 2.264 . S
O204 Co192 2.327 . S
O204 C213 1.257 . S
O205 Co192 2.073 . S
O205 C213 1.245 . S
C206 O214 1.259 . S
C206 O215 1.289 . S
C207 O216 1.246 . S
C207 O217 1.257 . S
C208 O196 1.251 . S
C208 O197 1.274 . S
C209 O194 1.245 . S
C209 O195 1.257 . S
C210 O199 1.259 . S
C210 O200 1.289 . S
C211 O198 1.246 . S
C211 O201 1.257 . S
C212 O202 1.274 . S
C212 O203 1.251 . S
C213 O204 1.257 . S
C213 O205 1.245 . S
O214 Co185 2.286 . S
O214 C206 1.259 . S
O215 Co185 2.069 . S
O215 C206 1.289 . S
O216 Co187 2.143 1_565 S
O216 C207 1.246 . S
O217 Co185 2.015 . S
O217 C207 1.257 . S
Co218 O221 2.042 . S
Co218 O228 2.264 . S
Co218 O247 2.286 . S
Co218 O248 2.069 . S
Co218 O250 2.015 . S
Co219 O221 2.122 . S
Co219 O227 2.073 . S
Co219 O228 2.327 . S
Co219 O229 1.976 . S
Co220 O221 2.087 . S
Co220 O223 2.087 1_554 S
Co220 O230 2.111 . S
Co220 O231 2.143 1_554 S
Co220 O235 2.111 . S
Co220 O249 2.143 . S
O221 Co218 2.042 . S
O221 Co219 2.122 . S
O221 Co220 2.087 . S
O221 H222 0.980 . S
H222 O221 0.980 . S
O223 Co220 2.087 1_556 S
O223 Co224 2.042 . S
O223 Co225 2.122 . S
O223 H226 0.980 . S
Co224 O223 2.042 . S
Co224 O232 2.286 . S
Co224 O233 2.069 . S
Co224 O234 2.015 . S
Co224 O237 2.264 . S
Co225 O223 2.122 . S
Co225 O236 1.976 . S
Co225 O237 2.327 . S
Co225 O238 2.073 . S
H226 O223 0.980 . S
O227 Co219 2.073 . S
O227 C242 1.245 . S
O228 Co218 2.264 . S
O228 Co219 2.327 . S
O228 C242 1.257 . S
O229 Co219 1.976 . S
O229 C241 1.251 . S
O230 Co220 2.111 . S
O230 C241 1.274 . S
O231 Co220 2.143 1_556 S
O231 C244 1.246 . S
O232 Co224 2.286 . S
O232 C243 1.259 . S
O233 Co224 2.069 . S
O233 C243 1.289 . S
O234 Co224 2.015 . S
O234 C244 1.257 . S
O235 Co220 2.111 . S
O235 C245 1.274 1_554 S
O236 Co225 1.976 . S
O236 C245 1.251 . S
O237 Co224 2.264 . S
O237 Co225 2.327 . S
O237 C246 1.257 . S
O238 Co225 2.073 . S
O238 C246 1.245 . S
C239 O247 1.259 . S
C239 O248 1.289 . S
C240 O249 1.246 . S
C240 O250 1.257 . S
C241 O229 1.251 . S
C241 O230 1.274 . S
C242 O227 1.245 . S
C242 O228 1.257 . S
C243 O232 1.259 . S
C243 O233 1.289 . S
C244 O231 1.246 . S
C244 O234 1.257 . S
C245 O235 1.274 1_556 S
C245 O236 1.251 . S
C246 O237 1.257 . S
C246 O238 1.245 . S
O247 Co218 2.286 . S
O247 C239 1.259 . S
O248 Co218 2.069 . S
O248 C239 1.289 . S
O249 Co220 2.143 . S
O249 C240 1.246 . S
O250 Co218 2.015 . S
O250 C240 1.257 . S
H251 C269 0.951 . S
H252 C271 0.951 . S
H253 C273 0.950 . S
H254 C274 0.950 . S
H255 C276 0.950 . S
H256 C279 0.950 . S
H257 C280 0.950 . S
H258 C282 0.950 . S
H259 C283 0.950 . S
H260 C284 0.951 . S
H261 C286 0.951 . S
H262 C288 0.950 . S
H263 C289 0.950 . S
H264 C291 0.950 . S
H265 C294 0.950 . S
H266 C295 0.950 . S
H267 C297 0.950 . S
H268 C298 0.950 . S
C269 H251 0.951 . S
C269 C270 1.366 . S
C269 C271 1.388 . S
C270 C269 1.366 . S
C270 C274 1.385 . S
C271 H252 0.951 . S
C271 C269 1.388 . S
C271 C272 1.366 . S
C272 C271 1.366 . S
C272 C273 1.414 . S
C272 C275 1.499 . S
C273 H253 0.950 . S
C273 C272 1.414 . S
C273 C274 1.374 . S
C274 H254 0.950 . S
C274 C270 1.385 . S
C274 C273 1.374 . S
C275 C272 1.499 . S
C275 C276 1.373 . S
C275 C277 1.389 . S
C276 H255 0.950 . S
C276 C275 1.373 . S
C276 C292 1.377 . S
C277 C275 1.389 . S
C277 C278 1.524 . S
C277 C291 1.377 . S
C278 C277 1.524 . S
C278 C279 1.397 . S
C278 C283 1.363 . S
C279 H256 0.950 . S
C279 C278 1.397 . S
C279 C280 1.334 . S
C280 H257 0.950 . S
C280 C279 1.334 . S
C280 C281 1.287 . S
C281 C280 1.287 . S
C281 C282 1.524 . S
C281 H300 0.913 . S
C282 H258 0.950 . S
C282 C281 1.524 . S
C282 C283 1.415 . S
C283 H259 0.950 . S
C283 C278 1.363 . S
C283 C282 1.415 . S
C284 H260 0.951 . S
C284 C285 1.366 . S
C284 C286 1.388 . S
C285 C284 1.366 . S
C285 C289 1.385 . S
C286 H261 0.951 . S
C286 C284 1.388 . S
C286 C287 1.366 . S
C287 C286 1.366 . S
C287 C288 1.414 . S
C287 C290 1.499 . S
C288 H262 0.950 . S
C288 C287 1.414 . S
C288 C289 1.374 . S
C289 H263 0.950 . S
C289 C285 1.385 . S
C289 C288 1.374 . S
C290 C287 1.499 . S
C290 C291 1.373 . S
C290 C292 1.389 . S
C291 H264 0.950 . S
C291 C277 1.377 . S
C291 C290 1.373 . S
C292 C276 1.377 . S
C292 C290 1.389 . S
C292 C293 1.524 . S
C293 C292 1.524 . S
C293 C294 1.397 . S
C293 C298 1.363 . S
C294 H265 0.950 . S
C294 C293 1.397 . S
C294 C295 1.334 . S
C295 H266 0.950 . S
C295 C294 1.334 . S
C295 C296 1.287 . S
C296 C295 1.287 . S
C296 C297 1.524 . S
C296 H299 0.999 . S
C297 H267 0.950 . S
C297 C296 1.524 . S
C297 C298 1.415 . S
C298 H268 0.950 . S
C298 C293 1.363 . S
C298 C297 1.415 . S
H299 C296 0.999 . S
H300 C281 0.913 . S
H301 C319 0.951 . S
H302 C321 0.951 . S
H303 C323 0.950 . S
H304 C324 0.950 . S
H305 C326 0.950 . S
H306 C329 0.950 . S
H307 C330 0.950 . S
H308 C332 0.950 . S
H309 C333 0.950 . S
H310 C334 0.951 . S
H311 C336 0.951 . S
H312 C338 0.950 . S
H313 C339 0.950 . S
H314 C341 0.950 . S
H315 C344 0.950 . S
H316 C345 0.950 . S
H317 C347 0.950 . S
H318 C348 0.950 . S
C319 H301 0.951 . S
C319 C320 1.366 . S
C319 C321 1.388 . S
C320 C319 1.366 . S
C320 C324 1.385 . S
C321 H302 0.951 . S
C321 C319 1.388 . S
C321 C322 1.366 . S
C322 C321 1.366 . S
C322 C323 1.414 . S
C322 C325 1.499 . S
C323 H303 0.950 . S
C323 C322 1.414 . S
C323 C324 1.374 . S
C324 H304 0.950 . S
C324 C320 1.385 . S
C324 C323 1.374 . S
C325 C322 1.499 . S
C325 C326 1.373 . S
C325 C327 1.389 . S
C326 H305 0.950 . S
C326 C325 1.373 . S
C326 C342 1.377 . S
C327 C325 1.389 . S
C327 C328 1.524 . S
C327 C341 1.377 . S
C328 C327 1.524 . S
C328 C329 1.397 . S
C328 C333 1.363 . S
C329 H306 0.950 . S
C329 C328 1.397 . S
C329 C330 1.334 . S
C330 H307 0.950 . S
C330 C329 1.334 . S
C330 C331 1.287 . S
C331 C330 1.287 . S
C331 C332 1.524 . S
C331 H350 0.913 . S
C332 H308 0.950 . S
C332 C331 1.524 . S
C332 C333 1.415 . S
C333 H309 0.950 . S
C333 C328 1.363 . S
C333 C332 1.415 . S
C334 H310 0.951 . S
C334 C335 1.366 . S
C334 C336 1.388 . S
C335 C334 1.366 . S
C335 C339 1.385 . S
C336 H311 0.951 . S
C336 C334 1.388 . S
C336 C337 1.366 . S
C337 C336 1.366 . S
C337 C338 1.414 . S
C337 C340 1.499 . S
C338 H312 0.950 . S
C338 C337 1.414 . S
C338 C339 1.374 . S
C339 H313 0.950 . S
C339 C335 1.385 . S
C339 C338 1.374 . S
C340 C337 1.499 . S
C340 C341 1.373 . S
C340 C342 1.389 . S
C341 H314 0.950 . S
C341 C327 1.377 . S
C341 C340 1.373 . S
C342 C326 1.377 . S
C342 C340 1.389 . S
C342 C343 1.524 . S
C343 C342 1.524 . S
C343 C344 1.397 . S
C343 C348 1.363 . S
C344 H315 0.950 . S
C344 C343 1.397 . S
C344 C345 1.334 . S
C345 H316 0.950 . S
C345 C344 1.334 . S
C345 C346 1.287 . S
C346 C345 1.287 . S
C346 C347 1.524 . S
C346 H349 0.999 . S
C347 H317 0.950 . S
C347 C346 1.524 . S
C347 C348 1.415 . S
C348 H318 0.950 . S
C348 C343 1.363 . S
C348 C347 1.415 . S
H349 C346 0.999 . S
H350 C331 0.913 . S
H351 C369 0.951 . S
H352 C371 0.951 . S
H353 C373 0.950 . S
H354 C374 0.950 . S
H355 C376 0.950 . S
H356 C379 0.950 . S
H357 C380 0.950 . S
H358 C382 0.950 . S
H359 C383 0.950 . S
H360 C384 0.951 . S
H361 C386 0.951 . S
H362 C388 0.950 . S
H363 C389 0.950 . S
H364 C391 0.950 . S
H365 C394 0.950 . S
H366 C395 0.950 . S
H367 C397 0.950 . S
H368 C398 0.950 . S
C369 H351 0.951 . S
C369 C370 1.366 . S
C369 C371 1.388 . S
C370 C369 1.366 . S
C370 C374 1.385 . S
C371 H352 0.951 . S
C371 C369 1.388 . S
C371 C372 1.366 . S
C372 C371 1.366 . S
C372 C373 1.414 . S
C372 C375 1.499 . S
C373 H353 0.950 . S
C373 C372 1.414 . S
C373 C374 1.374 . S
C374 H354 0.950 . S
C374 C370 1.385 . S
C374 C373 1.374 . S
C375 C372 1.499 . S
C375 C376 1.373 . S
C375 C377 1.389 . S
C376 H355 0.950 . S
C376 C375 1.373 . S
C376 C392 1.377 . S
C377 C375 1.389 . S
C377 C378 1.524 . S
C377 C391 1.377 . S
C378 C377 1.524 . S
C378 C379 1.397 . S
C378 C383 1.363 . S
C379 H356 0.950 . S
C379 C378 1.397 . S
C379 C380 1.334 . S
C380 H357 0.950 . S
C380 C379 1.334 . S
C380 C381 1.287 . S
C381 C380 1.287 . S
C381 C382 1.524 . S
C381 H400 0.913 . S
C382 H358 0.950 . S
C382 C381 1.524 . S
C382 C383 1.415 . S
C383 H359 0.950 . S
C383 C378 1.363 . S
C383 C382 1.415 . S
C384 H360 0.951 . S
C384 C385 1.366 . S
C384 C386 1.388 . S
C385 C384 1.366 . S
C385 C389 1.385 . S
C386 H361 0.951 . S
C386 C384 1.388 . S
C386 C387 1.366 . S
C387 C386 1.366 . S
C387 C388 1.414 . S
C387 C390 1.499 . S
C388 H362 0.950 . S
C388 C387 1.414 . S
C388 C389 1.374 . S
C389 H363 0.950 . S
C389 C385 1.385 . S
C389 C388 1.374 . S
C390 C387 1.499 . S
C390 C391 1.373 . S
C390 C392 1.389 . S
C391 H364 0.950 . S
C391 C377 1.377 . S
C391 C390 1.373 . S
C392 C376 1.377 . S
C392 C390 1.389 . S
C392 C393 1.524 . S
C393 C392 1.524 . S
C393 C394 1.397 . S
C393 C398 1.363 . S
C394 H365 0.950 . S
C394 C393 1.397 . S
C394 C395 1.334 . S
C395 H366 0.950 . S
C395 C394 1.334 . S
C395 C396 1.287 . S
C396 C395 1.287 . S
C396 C397 1.524 . S
C396 H399 0.999 . S
C397 H367 0.950 . S
C397 C396 1.524 . S
C397 C398 1.415 . S
C398 H368 0.950 . S
C398 C393 1.363 . S
C398 C397 1.415 . S
H399 C396 0.999 . S
H400 C381 0.913 . S
H401 C419 0.951 . S
H402 C421 0.951 . S
H403 C423 0.950 . S
H404 C424 0.950 . S
H405 C426 0.950 . S
H406 C429 0.950 . S
H407 C430 0.950 . S
H408 C432 0.950 . S
H409 C433 0.950 . S
H410 C434 0.951 . S
H411 C436 0.951 . S
H412 C438 0.950 . S
H413 C439 0.950 . S
H414 C441 0.950 . S
H415 C444 0.950 . S
H416 C445 0.950 . S
H417 C447 0.950 . S
H418 C448 0.950 . S
C419 H401 0.951 . S
C419 C420 1.366 . S
C419 C421 1.388 . S
C420 C419 1.366 . S
C420 C424 1.385 . S
C421 H402 0.951 . S
C421 C419 1.388 . S
C421 C422 1.366 . S
C422 C421 1.366 . S
C422 C423 1.414 . S
C422 C425 1.499 . S
C423 H403 0.950 . S
C423 C422 1.414 . S
C423 C424 1.374 . S
C424 H404 0.950 . S
C424 C420 1.385 . S
C424 C423 1.374 . S
C425 C422 1.499 . S
C425 C426 1.373 . S
C425 C427 1.389 . S
C426 H405 0.950 . S
C426 C425 1.373 . S
C426 C442 1.377 . S
C427 C425 1.389 . S
C427 C428 1.524 . S
C427 C441 1.377 . S
C428 C427 1.524 . S
C428 C429 1.397 . S
C428 C433 1.363 . S
C429 H406 0.950 . S
C429 C428 1.397 . S
C429 C430 1.334 . S
C430 H407 0.950 . S
C430 C429 1.334 . S
C430 C431 1.287 . S
C431 C430 1.287 . S
C431 C432 1.524 . S
C431 H450 0.913 . S
C432 H408 0.950 . S
C432 C431 1.524 . S
C432 C433 1.415 . S
C433 H409 0.950 . S
C433 C428 1.363 . S
C433 C432 1.415 . S
C434 H410 0.951 . S
C434 C435 1.366 . S
C434 C436 1.388 . S
C435 C434 1.366 . S
C435 C439 1.385 . S
C436 H411 0.951 . S
C436 C434 1.388 . S
C436 C437 1.366 . S
C437 C436 1.366 . S
C437 C438 1.414 . S
C437 C440 1.499 . S
C438 H412 0.950 . S
C438 C437 1.414 . S
C438 C439 1.374 . S
C439 H413 0.950 . S
C439 C435 1.385 . S
C439 C438 1.374 . S
C440 C437 1.499 . S
C440 C441 1.373 . S
C440 C442 1.389 . S
C441 H414 0.950 . S
C441 C427 1.377 . S
C441 C440 1.373 . S
C442 C426 1.377 . S
C442 C440 1.389 . S
C442 C443 1.524 . S
C443 C442 1.524 . S
C443 C444 1.397 . S
C443 C448 1.363 . S
C444 H415 0.950 . S
C444 C443 1.397 . S
C444 C445 1.334 . S
C445 H416 0.950 . S
C445 C444 1.334 . S
C445 C446 1.287 . S
C446 C445 1.287 . S
C446 C447 1.524 . S
C446 H449 0.999 . S
C447 H417 0.950 . S
C447 C446 1.524 . S
C447 C448 1.415 . S
C448 H418 0.950 . S
C448 C443 1.363 . S
C448 C447 1.415 . S
H449 C446 0.999 . S
H450 C431 0.913 . S
H451 C469 0.951 . S
H452 C471 0.951 . S
H453 C473 0.950 . S
H454 C474 0.950 . S
H455 C476 0.950 . S
H456 C479 0.950 . S
H457 C480 0.950 . S
H458 C482 0.950 . S
H459 C483 0.950 . S
H460 C484 0.951 . S
H461 C486 0.951 . S
H462 C488 0.950 . S
H463 C489 0.950 . S
H464 C491 0.950 . S
H465 C494 0.950 . S
H466 C495 0.950 . S
H467 C497 0.950 . S
H468 C498 0.950 . S
C469 H451 0.951 . S
C469 C470 1.366 . S
C469 C471 1.388 . S
C470 C469 1.366 . S
C470 C474 1.385 . S
C471 H452 0.951 . S
C471 C469 1.388 . S
C471 C472 1.366 . S
C472 C471 1.366 . S
C472 C473 1.414 . S
C472 C475 1.499 . S
C473 H453 0.950 . S
C473 C472 1.414 . S
C473 C474 1.374 . S
C474 H454 0.950 . S
C474 C470 1.385 . S
C474 C473 1.374 . S
C475 C472 1.499 . S
C475 C476 1.373 . S
C475 C477 1.389 . S
C476 H455 0.950 . S
C476 C475 1.373 . S
C476 C492 1.377 . S
C477 C475 1.389 . S
C477 C478 1.524 . S
C477 C491 1.377 . S
C478 C477 1.524 . S
C478 C479 1.397 . S
C478 C483 1.363 . S
C479 H456 0.950 . S
C479 C478 1.397 . S
C479 C480 1.334 . S
C480 H457 0.950 . S
C480 C479 1.334 . S
C480 C481 1.287 . S
C481 C480 1.287 . S
C481 C482 1.524 . S
C481 H500 0.913 . S
C482 H458 0.950 . S
C482 C481 1.524 . S
C482 C483 1.415 . S
C483 H459 0.950 . S
C483 C478 1.363 . S
C483 C482 1.415 . S
C484 H460 0.951 . S
C484 C485 1.366 . S
C484 C486 1.388 . S
C485 C484 1.366 . S
C485 C489 1.385 . S
C486 H461 0.951 . S
C486 C484 1.388 . S
C486 C487 1.366 . S
C487 C486 1.366 . S
C487 C488 1.414 . S
C487 C490 1.499 . S
C488 H462 0.950 . S
C488 C487 1.414 . S
C488 C489 1.374 . S
C489 H463 0.950 . S
C489 C485 1.385 . S
C489 C488 1.374 . S
C490 C487 1.499 . S
C490 C491 1.373 . S
C490 C492 1.389 . S
C491 H464 0.950 . S
C491 C477 1.377 . S
C491 C490 1.373 . S
C492 C476 1.377 . S
C492 C490 1.389 . S
C492 C493 1.524 . S
C493 C492 1.524 . S
C493 C494 1.397 . S
C493 C498 1.363 . S
C494 H465 0.950 . S
C494 C493 1.397 . S
C494 C495 1.334 . S
C495 H466 0.950 . S
C495 C494 1.334 . S
C495 C496 1.287 . S
C496 C495 1.287 . S
C496 C497 1.524 . S
C496 H499 0.999 . S
C497 H467 0.950 . S
C497 C496 1.524 . S
C497 C498 1.415 . S
C498 H468 0.950 . S
C498 C493 1.363 . S
C498 C497 1.415 . S
H499 C496 0.999 . S
H500 C481 0.913 . S
H501 C519 0.951 . S
H502 C521 0.951 . S
H503 C523 0.950 . S
H504 C524 0.950 . S
H505 C526 0.950 . S
H506 C529 0.950 . S
H507 C530 0.950 . S
H508 C532 0.950 . S
H509 C533 0.950 . S
H510 C534 0.951 . S
H511 C536 0.951 . S
H512 C538 0.950 . S
H513 C539 0.950 . S
H514 C541 0.950 . S
H515 C544 0.950 . S
H516 C545 0.950 . S
H517 C547 0.950 . S
H518 C548 0.950 . S
C519 H501 0.951 . S
C519 C520 1.366 . S
C519 C521 1.388 . S
C520 C519 1.366 . S
C520 C524 1.385 . S
C521 H502 0.951 . S
C521 C519 1.388 . S
C521 C522 1.366 . S
C522 C521 1.366 . S
C522 C523 1.414 . S
C522 C525 1.499 . S
C523 H503 0.950 . S
C523 C522 1.414 . S
C523 C524 1.374 . S
C524 H504 0.950 . S
C524 C520 1.385 . S
C524 C523 1.374 . S
C525 C522 1.499 . S
C525 C526 1.373 . S
C525 C527 1.389 . S
C526 H505 0.950 . S
C526 C525 1.373 . S
C526 C542 1.377 . S
C527 C525 1.389 . S
C527 C528 1.524 . S
C527 C541 1.377 . S
C528 C527 1.524 . S
C528 C529 1.397 . S
C528 C533 1.363 . S
C529 H506 0.950 . S
C529 C528 1.397 . S
C529 C530 1.334 . S
C530 H507 0.950 . S
C530 C529 1.334 . S
C530 C531 1.287 . S
C531 C530 1.287 . S
C531 C532 1.524 . S
C531 H550 0.913 . S
C532 H508 0.950 . S
C532 C531 1.524 . S
C532 C533 1.415 . S
C533 H509 0.950 . S
C533 C528 1.363 . S
C533 C532 1.415 . S
C534 H510 0.951 . S
C534 C535 1.366 . S
C534 C536 1.388 . S
C535 C534 1.366 . S
C535 C539 1.385 . S
C536 H511 0.951 . S
C536 C534 1.388 . S
C536 C537 1.366 . S
C537 C536 1.366 . S
C537 C538 1.414 . S
C537 C540 1.499 . S
C538 H512 0.950 . S
C538 C537 1.414 . S
C538 C539 1.374 . S
C539 H513 0.950 . S
C539 C535 1.385 . S
C539 C538 1.374 . S
C540 C537 1.499 . S
C540 C541 1.373 . S
C540 C542 1.389 . S
C541 H514 0.950 . S
C541 C527 1.377 . S
C541 C540 1.373 . S
C542 C526 1.377 . S
C542 C540 1.389 . S
C542 C543 1.524 . S
C543 C542 1.524 . S
C543 C544 1.397 . S
C543 C548 1.363 . S
C544 H515 0.950 . S
C544 C543 1.397 . S
C544 C545 1.334 . S
C545 H516 0.950 . S
C545 C544 1.334 . S
C545 C546 1.287 . S
C546 C545 1.287 . S
C546 C547 1.524 . S
C546 H549 0.999 . S
C547 H517 0.950 . S
C547 C546 1.524 . S
C547 C548 1.415 . S
C548 H518 0.950 . S
C548 C543 1.363 . S
C548 C547 1.415 . S
H549 C546 0.999 . S
H550 C531 0.913 . S
H551 C569 0.951 . S
H552 C571 0.951 . S
H553 C573 0.950 . S
H554 C574 0.950 . S
H555 C576 0.950 . S
H556 C579 0.950 . S
H557 C580 0.950 . S
H558 C582 0.950 . S
H559 C583 0.950 . S
H560 C584 0.951 . S
H561 C586 0.951 . S
H562 C588 0.950 . S
H563 C589 0.950 1_455 S
H564 C591 0.950 . S
H565 C594 0.950 . S
H566 C595 0.950 . S
H567 C597 0.950 . S
H568 C598 0.950 . S
C569 H551 0.951 . S
C569 C570 1.366 . S
C569 C571 1.388 . S
C570 C569 1.366 . S
C570 C574 1.385 . S
C571 H552 0.951 . S
C571 C569 1.388 . S
C571 C572 1.366 . S
C572 C571 1.366 . S
C572 C573 1.414 . S
C572 C575 1.499 . S
C573 H553 0.950 . S
C573 C572 1.414 . S
C573 C574 1.374 . S
C574 H554 0.950 . S
C574 C570 1.385 . S
C574 C573 1.374 . S
C575 C572 1.499 . S
C575 C576 1.373 . S
C575 C577 1.389 . S
C576 H555 0.950 . S
C576 C575 1.373 . S
C576 C592 1.377 . S
C577 C575 1.389 . S
C577 C578 1.524 . S
C577 C591 1.377 . S
C578 C577 1.524 . S
C578 C579 1.397 . S
C578 C583 1.363 . S
C579 H556 0.950 . S
C579 C578 1.397 . S
C579 C580 1.334 . S
C580 H557 0.950 . S
C580 C579 1.334 . S
C580 C581 1.287 . S
C581 C580 1.287 . S
C581 C582 1.524 . S
C581 H600 0.913 . S
C582 H558 0.950 . S
C582 C581 1.524 . S
C582 C583 1.415 . S
C583 H559 0.950 . S
C583 C578 1.363 . S
C583 C582 1.415 . S
C584 H560 0.951 . S
C584 C585 1.366 . S
C584 C586 1.388 . S
C585 C584 1.366 . S
C585 C589 1.385 . S
C586 H561 0.951 . S
C586 C584 1.388 . S
C586 C587 1.366 . S
C587 C586 1.366 . S
C587 C588 1.414 . S
C587 C590 1.499 . S
C588 H562 0.950 . S
C588 C587 1.414 . S
C588 C589 1.374 . S
C589 H563 0.950 1_655 S
C589 C585 1.385 . S
C589 C588 1.374 . S
C590 C587 1.499 . S
C590 C591 1.373 . S
C590 C592 1.389 . S
C591 H564 0.950 . S
C591 C577 1.377 . S
C591 C590 1.373 . S
C592 C576 1.377 . S
C592 C590 1.389 . S
C592 C593 1.524 . S
C593 C592 1.524 . S
C593 C594 1.397 . S
C593 C598 1.363 . S
C594 H565 0.950 . S
C594 C593 1.397 . S
C594 C595 1.334 . S
C595 H566 0.950 . S
C595 C594 1.334 . S
C595 C596 1.287 . S
C596 C595 1.287 . S
C596 C597 1.524 . S
C596 H599 0.999 . S
C597 H567 0.950 . S
C597 C596 1.524 . S
C597 C598 1.415 . S
C598 H568 0.950 . S
C598 C593 1.363 . S
C598 C597 1.415 . S
H599 C596 0.999 . S
H600 C581 0.913 . S
H601 C619 0.951 . S
H602 C621 0.951 . S
H603 C623 0.950 . S
H604 C624 0.950 . S
H605 C626 0.950 . S
H606 C629 0.950 . S
H607 C630 0.950 . S
H608 C632 0.950 . S
H609 C633 0.950 . S
H610 C634 0.951 . S
H611 C636 0.951 . S
H612 C638 0.950 . S
H613 C639 0.950 . S
H614 C641 0.950 . S
H615 C644 0.950 . S
H616 C645 0.950 . S
H617 C647 0.950 . S
H618 C648 0.950 . S
C619 H601 0.951 . S
C619 C620 1.366 . S
C619 C621 1.388 . S
C620 C619 1.366 . S
C620 C624 1.385 . S
C621 H602 0.951 . S
C621 C619 1.388 . S
C621 C622 1.366 . S
C622 C621 1.366 . S
C622 C623 1.414 . S
C622 C625 1.499 . S
C623 H603 0.950 . S
C623 C622 1.414 . S
C623 C624 1.374 . S
C624 H604 0.950 . S
C624 C620 1.385 . S
C624 C623 1.374 . S
C625 C622 1.499 . S
C625 C626 1.373 . S
C625 C627 1.389 . S
C626 H605 0.950 . S
C626 C625 1.373 . S
C626 C642 1.377 . S
C627 C625 1.389 . S
C627 C628 1.524 . S
C627 C641 1.377 . S
C628 C627 1.524 . S
C628 C629 1.397 . S
C628 C633 1.363 . S
C629 H606 0.950 . S
C629 C628 1.397 . S
C629 C630 1.334 . S
C630 H607 0.950 . S
C630 C629 1.334 . S
C630 C631 1.287 . S
C631 C630 1.287 . S
C631 C632 1.524 . S
C631 H650 0.913 . S
C632 H608 0.950 . S
C632 C631 1.524 . S
C632 C633 1.415 . S
C633 H609 0.950 . S
C633 C628 1.363 . S
C633 C632 1.415 . S
C634 H610 0.951 . S
C634 C635 1.366 . S
C634 C636 1.388 . S
C635 C634 1.366 . S
C635 C639 1.385 . S
C636 H611 0.951 . S
C636 C634 1.388 . S
C636 C637 1.366 . S
C637 C636 1.366 . S
C637 C638 1.414 . S
C637 C640 1.499 . S
C638 H612 0.950 . S
C638 C637 1.414 . S
C638 C639 1.374 . S
C639 H613 0.950 . S
C639 C635 1.385 . S
C639 C638 1.374 . S
C640 C637 1.499 . S
C640 C641 1.373 . S
C640 C642 1.389 . S
C641 H614 0.950 . S
C641 C627 1.377 . S
C641 C640 1.373 . S
C642 C626 1.377 . S
C642 C640 1.389 . S
C642 C643 1.524 . S
C643 C642 1.524 . S
C643 C644 1.397 . S
C643 C648 1.363 . S
C644 H615 0.950 . S
C644 C643 1.397 . S
C644 C645 1.334 . S
C645 H616 0.950 . S
C645 C644 1.334 . S
C645 C646 1.287 . S
C646 C645 1.287 . S
C646 C647 1.524 . S
C646 H649 0.999 . S
C647 H617 0.950 . S
C647 C646 1.524 . S
C647 C648 1.415 . S
C648 H618 0.950 . S
C648 C643 1.363 . S
C648 C647 1.415 . S
H649 C646 0.999 . S
H650 C631 0.913 . S
H651 C669 0.951 . S
H652 C671 0.951 . S
H653 C673 0.950 . S
H654 C674 0.950 . S
H655 C676 0.950 . S
H656 C679 0.950 . S
H657 C680 0.950 . S
H658 C682 0.950 . S
H659 C683 0.950 . S
H660 C684 0.951 . S
H661 C686 0.951 . S
H662 C688 0.950 . S
H663 C689 0.950 . S
H664 C691 0.950 . S
H665 C694 0.950 . S
H666 C695 0.950 . S
H667 C697 0.950 . S
H668 C698 0.950 . S
C669 H651 0.951 . S
C669 C670 1.366 . S
C669 C671 1.388 . S
C670 C669 1.366 . S
C670 C674 1.385 . S
C671 H652 0.951 . S
C671 C669 1.388 . S
C671 C672 1.366 . S
C672 C671 1.366 . S
C672 C673 1.414 . S
C672 C675 1.499 . S
C673 H653 0.950 . S
C673 C672 1.414 . S
C673 C674 1.374 . S
C674 H654 0.950 . S
C674 C670 1.385 . S
C674 C673 1.374 . S
C675 C672 1.499 . S
C675 C676 1.373 . S
C675 C677 1.389 . S
C676 H655 0.950 . S
C676 C675 1.373 . S
C676 C692 1.377 . S
C677 C675 1.389 . S
C677 C678 1.524 . S
C677 C691 1.377 . S
C678 C677 1.524 . S
C678 C679 1.397 . S
C678 C683 1.363 . S
C679 H656 0.950 . S
C679 C678 1.397 . S
C679 C680 1.334 . S
C680 H657 0.950 . S
C680 C679 1.334 . S
C680 C681 1.287 . S
C681 C680 1.287 . S
C681 C682 1.524 . S
C681 H700 0.913 . S
C682 H658 0.950 . S
C682 C681 1.524 . S
C682 C683 1.415 . S
C683 H659 0.950 . S
C683 C678 1.363 . S
C683 C682 1.415 . S
C684 H660 0.951 . S
C684 C685 1.366 . S
C684 C686 1.388 . S
C685 C684 1.366 . S
C685 C689 1.385 . S
C686 H661 0.951 . S
C686 C684 1.388 . S
C686 C687 1.366 . S
C687 C686 1.366 . S
C687 C688 1.414 . S
C687 C690 1.499 . S
C688 H662 0.950 . S
C688 C687 1.414 . S
C688 C689 1.374 . S
C689 H663 0.950 . S
C689 C685 1.385 . S
C689 C688 1.374 . S
C690 C687 1.499 . S
C690 C691 1.373 . S
C690 C692 1.389 . S
C691 H664 0.950 . S
C691 C677 1.377 . S
C691 C690 1.373 . S
C692 C676 1.377 . S
C692 C690 1.389 . S
C692 C693 1.524 . S
C693 C692 1.524 . S
C693 C694 1.397 . S
C693 C698 1.363 . S
C694 H665 0.950 . S
C694 C693 1.397 . S
C694 C695 1.334 . S
C695 H666 0.950 . S
C695 C694 1.334 . S
C695 C696 1.287 . S
C696 C695 1.287 . S
C696 C697 1.524 . S
C696 H699 0.999 . S
C697 H667 0.950 . S
C697 C696 1.524 . S
C697 C698 1.415 . S
C698 H668 0.950 . S
C698 C693 1.363 . S
C698 C697 1.415 . S
H699 C696 0.999 . S
H700 C681 0.913 . S
H701 C719 0.951 . S
H702 C721 0.951 . S
H703 C723 0.950 . S
H704 C724 0.950 . S
H705 C726 0.950 . S
H706 C729 0.950 . S
H707 C730 0.950 . S
H708 C732 0.950 . S
H709 C733 0.950 . S
H710 C734 0.951 . S
H711 C736 0.951 . S
H712 C738 0.950 . S
H713 C739 0.950 . S
H714 C741 0.950 . S
H715 C744 0.950 . S
H716 C745 0.950 . S
H717 C747 0.950 . S
H718 C748 0.950 . S
C719 H701 0.951 . S
C719 C720 1.366 . S
C719 C721 1.388 . S
C720 C719 1.366 . S
C720 C724 1.385 . S
C721 H702 0.951 . S
C721 C719 1.388 . S
C721 C722 1.366 . S
C722 C721 1.366 . S
C722 C723 1.414 . S
C722 C725 1.499 . S
C723 H703 0.950 . S
C723 C722 1.414 . S
C723 C724 1.374 . S
C724 H704 0.950 . S
C724 C720 1.385 . S
C724 C723 1.374 . S
C725 C722 1.499 . S
C725 C726 1.373 . S
C725 C727 1.389 . S
C726 H705 0.950 . S
C726 C725 1.373 . S
C726 C742 1.377 . S
C727 C725 1.389 . S
C727 C728 1.524 . S
C727 C741 1.377 . S
C728 C727 1.524 . S
C728 C729 1.397 . S
C728 C733 1.363 . S
C729 H706 0.950 . S
C729 C728 1.397 . S
C729 C730 1.334 . S
C730 H707 0.950 . S
C730 C729 1.334 . S
C730 C731 1.287 . S
C731 C730 1.287 . S
C731 C732 1.524 . S
C731 H750 0.913 . S
C732 H708 0.950 . S
C732 C731 1.524 . S
C732 C733 1.415 . S
C733 H709 0.950 . S
C733 C728 1.363 . S
C733 C732 1.415 . S
C734 H710 0.951 . S
C734 C735 1.366 . S
C734 C736 1.388 . S
C735 C734 1.366 . S
C735 C739 1.385 . S
C736 H711 0.951 . S
C736 C734 1.388 . S
C736 C737 1.366 . S
C737 C736 1.366 . S
C737 C738 1.414 . S
C737 C740 1.499 . S
C738 H712 0.950 . S
C738 C737 1.414 . S
C738 C739 1.374 . S
C739 H713 0.950 . S
C739 C735 1.385 . S
C739 C738 1.374 . S
C740 C737 1.499 . S
C740 C741 1.373 . S
C740 C742 1.389 . S
C741 H714 0.950 . S
C741 C727 1.377 . S
C741 C740 1.373 . S
C742 C726 1.377 . S
C742 C740 1.389 . S
C742 C743 1.524 . S
C743 C742 1.524 . S
C743 C744 1.397 . S
C743 C748 1.363 . S
C744 H715 0.950 . S
C744 C743 1.397 . S
C744 C745 1.334 . S
C745 H716 0.950 . S
C745 C744 1.334 . S
C745 C746 1.287 . S
C746 C745 1.287 . S
C746 C747 1.524 . S
C746 H749 0.999 1_655 S
C747 H717 0.950 . S
C747 C746 1.524 . S
C747 C748 1.415 . S
C748 H718 0.950 . S
C748 C743 1.363 . S
C748 C747 1.415 . S
H749 C746 0.999 1_455 S
H750 C731 0.913 . S
H751 C769 0.951 . S
H752 C771 0.951 . S
H753 C773 0.950 . S
H754 C774 0.950 . S
H755 C776 0.950 . S
H756 C779 0.950 . S
H757 C780 0.950 . S
H758 C782 0.950 . S
H759 C783 0.950 . S
H760 C784 0.951 . S
H761 C786 0.951 . S
H762 C788 0.950 . S
H763 C789 0.950 . S
H764 C791 0.950 . S
H765 C794 0.950 . S
H766 C795 0.950 . S
H767 C797 0.950 1_545 S
H768 C798 0.950 . S
C769 H751 0.951 . S
C769 C770 1.366 . S
C769 C771 1.388 . S
C770 C769 1.366 . S
C770 C774 1.385 . S
C771 H752 0.951 . S
C771 C769 1.388 . S
C771 C772 1.366 . S
C772 C771 1.366 . S
C772 C773 1.414 . S
C772 C775 1.499 . S
C773 H753 0.950 . S
C773 C772 1.414 . S
C773 C774 1.374 . S
C774 H754 0.950 . S
C774 C770 1.385 . S
C774 C773 1.374 . S
C775 C772 1.499 . S
C775 C776 1.373 . S
C775 C777 1.389 . S
C776 H755 0.950 . S
C776 C775 1.373 . S
C776 C792 1.377 . S
C777 C775 1.389 . S
C777 C778 1.524 . S
C777 C791 1.377 . S
C778 C777 1.524 . S
C778 C779 1.397 . S
C778 C783 1.363 . S
C779 H756 0.950 . S
C779 C778 1.397 . S
C779 C780 1.334 . S
C780 H757 0.950 . S
C780 C779 1.334 . S
C780 C781 1.287 . S
C781 C780 1.287 . S
C781 C782 1.524 . S
C781 H800 0.913 . S
C782 H758 0.950 . S
C782 C781 1.524 . S
C782 C783 1.415 . S
C783 H759 0.950 . S
C783 C778 1.363 . S
C783 C782 1.415 . S
C784 H760 0.951 . S
C784 C785 1.366 . S
C784 C786 1.388 . S
C785 C784 1.366 . S
C785 C789 1.385 . S
C786 H761 0.951 . S
C786 C784 1.388 . S
C786 C787 1.366 . S
C787 C786 1.366 . S
C787 C788 1.414 . S
C787 C790 1.499 . S
C788 H762 0.950 . S
C788 C787 1.414 . S
C788 C789 1.374 . S
C789 H763 0.950 . S
C789 C785 1.385 . S
C789 C788 1.374 . S
C790 C787 1.499 . S
C790 C791 1.373 . S
C790 C792 1.389 . S
C791 H764 0.950 . S
C791 C777 1.377 . S
C791 C790 1.373 . S
C792 C776 1.377 . S
C792 C790 1.389 . S
C792 C793 1.524 . S
C793 C792 1.524 . S
C793 C794 1.397 . S
C793 C798 1.363 . S
C794 H765 0.950 . S
C794 C793 1.397 . S
C794 C795 1.334 . S
C795 H766 0.950 . S
C795 C794 1.334 . S
C795 C796 1.287 . S
C796 C795 1.287 . S
C796 C797 1.524 . S
C796 H799 0.999 1_565 S
C797 H767 0.950 1_565 S
C797 C796 1.524 . S
C797 C798 1.415 . S
C798 H768 0.950 . S
C798 C793 1.363 . S
C798 C797 1.415 . S
H799 C796 0.999 1_545 S
H800 C781 0.913 . S
H801 C819 0.951 . S
H802 C821 0.951 . S
H803 C823 0.950 . S
H804 C824 0.950 . S
H805 C826 0.950 . S
H806 C829 0.950 . S
H807 C830 0.950 . S
H808 C832 0.950 . S
H809 C833 0.950 . S
H810 C834 0.951 . S
H811 C836 0.951 . S
H812 C838 0.950 . S
H813 C839 0.950 . S
H814 C841 0.950 . S
H815 C844 0.950 . S
H816 C845 0.950 . S
H817 C847 0.950 . S
H818 C848 0.950 . S
C819 H801 0.951 . S
C819 C820 1.366 . S
C819 C821 1.388 . S
C820 C819 1.366 . S
C820 C824 1.385 . S
C821 H802 0.951 . S
C821 C819 1.388 . S
C821 C822 1.366 . S
C822 C821 1.366 . S
C822 C823 1.414 . S
C822 C825 1.499 . S
C823 H803 0.950 . S
C823 C822 1.414 . S
C823 C824 1.374 . S
C824 H804 0.950 . S
C824 C820 1.385 . S
C824 C823 1.374 . S
C825 C822 1.499 . S
C825 C826 1.373 . S
C825 C827 1.389 . S
C826 H805 0.950 . S
C826 C825 1.373 . S
C826 C842 1.377 . S
C827 C825 1.389 . S
C827 C828 1.524 . S
C827 C841 1.377 . S
C828 C827 1.524 . S
C828 C829 1.397 . S
C828 C833 1.363 . S
C829 H806 0.950 . S
C829 C828 1.397 . S
C829 C830 1.334 . S
C830 H807 0.950 . S
C830 C829 1.334 . S
C830 C831 1.287 . S
C831 C830 1.287 . S
C831 C832 1.524 . S
C831 H850 0.913 . S
C832 H808 0.950 . S
C832 C831 1.524 . S
C832 C833 1.415 . S
C833 H809 0.950 . S
C833 C828 1.363 . S
C833 C832 1.415 . S
C834 H810 0.951 . S
C834 C835 1.366 . S
C834 C836 1.388 . S
C835 C834 1.366 . S
C835 C839 1.385 . S
C836 H811 0.951 . S
C836 C834 1.388 . S
C836 C837 1.366 . S
C837 C836 1.366 . S
C837 C838 1.414 . S
C837 C840 1.499 . S
C838 H812 0.950 . S
C838 C837 1.414 . S
C838 C839 1.374 . S
C839 H813 0.950 . S
C839 C835 1.385 . S
C839 C838 1.374 . S
C840 C837 1.499 . S
C840 C841 1.373 . S
C840 C842 1.389 . S
C841 H814 0.950 . S
C841 C827 1.377 . S
C841 C840 1.373 . S
C842 C826 1.377 . S
C842 C840 1.389 . S
C842 C843 1.524 . S
C843 C842 1.524 . S
C843 C844 1.397 . S
C843 C848 1.363 . S
C844 H815 0.950 . S
C844 C843 1.397 . S
C844 C845 1.334 . S
C845 H816 0.950 . S
C845 C844 1.334 . S
C845 C846 1.287 . S
C846 C845 1.287 . S
C846 C847 1.524 . S
C846 H849 0.999 . S
C847 H817 0.950 . S
C847 C846 1.524 . S
C847 C848 1.415 . S
C848 H818 0.950 . S
C848 C843 1.363 . S
C848 C847 1.415 . S
H849 C846 0.999 . S
H850 C831 0.913 . S
H851 C869 0.951 . S
H852 C871 0.951 . S
H853 C873 0.950 . S
H854 C874 0.950 . S
H855 C876 0.950 . S
H856 C879 0.950 . S
H857 C880 0.950 . S
H858 C882 0.950 . S
H859 C883 0.950 . S
H860 C884 0.951 . S
H861 C886 0.951 . S
H862 C888 0.950 . S
H863 C889 0.950 . S
H864 C891 0.950 . S
H865 C894 0.950 . S
H866 C895 0.950 . S
H867 C897 0.950 . S
H868 C898 0.950 . S
C869 H851 0.951 . S
C869 C870 1.366 . S
C869 C871 1.388 . S
C870 C869 1.366 . S
C870 C874 1.385 . S
C871 H852 0.951 . S
C871 C869 1.388 . S
C871 C872 1.366 . S
C872 C871 1.366 . S
C872 C873 1.414 . S
C872 C875 1.499 . S
C873 H853 0.950 . S
C873 C872 1.414 . S
C873 C874 1.374 . S
C874 H854 0.950 . S
C874 C870 1.385 . S
C874 C873 1.374 . S
C875 C872 1.499 . S
C875 C876 1.373 . S
C875 C877 1.389 . S
C876 H855 0.950 . S
C876 C875 1.373 . S
C876 C892 1.377 . S
C877 C875 1.389 . S
C877 C878 1.524 . S
C877 C891 1.377 . S
C878 C877 1.524 . S
C878 C879 1.397 . S
C878 C883 1.363 . S
C879 H856 0.950 . S
C879 C878 1.397 . S
C879 C880 1.334 . S
C880 H857 0.950 . S
C880 C879 1.334 . S
C880 C881 1.287 . S
C881 C880 1.287 . S
C881 C882 1.524 . S
C881 H900 0.913 . S
C882 H858 0.950 . S
C882 C881 1.524 . S
C882 C883 1.415 . S
C883 H859 0.950 . S
C883 C878 1.363 . S
C883 C882 1.415 . S
C884 H860 0.951 . S
C884 C885 1.366 . S
C884 C886 1.388 . S
C885 C884 1.366 . S
C885 C889 1.385 . S
C886 H861 0.951 . S
C886 C884 1.388 . S
C886 C887 1.366 . S
C887 C886 1.366 . S
C887 C888 1.414 . S
C887 C890 1.499 . S
C888 H862 0.950 . S
C888 C887 1.414 . S
C888 C889 1.374 . S
C889 H863 0.950 . S
C889 C885 1.385 . S
C889 C888 1.374 . S
C890 C887 1.499 . S
C890 C891 1.373 . S
C890 C892 1.389 . S
C891 H864 0.950 . S
C891 C877 1.377 . S
C891 C890 1.373 . S
C892 C876 1.377 . S
C892 C890 1.389 . S
C892 C893 1.524 . S
C893 C892 1.524 . S
C893 C894 1.397 . S
C893 C898 1.363 . S
C894 H865 0.950 . S
C894 C893 1.397 . S
C894 C895 1.334 . S
C895 H866 0.950 . S
C895 C894 1.334 . S
C895 C896 1.287 . S
C896 C895 1.287 . S
C896 C897 1.524 . S
C896 H899 0.999 . S
C897 H867 0.950 . S
C897 C896 1.524 . S
C897 C898 1.415 . S
C898 H868 0.950 . S
C898 C893 1.363 . S
C898 C897 1.415 . S
H899 C896 0.999 . S
H900 C881 0.913 . S
H901 C919 0.951 . S
H902 C921 0.951 . S
H903 C923 0.950 . S
H904 C924 0.950 . S
H905 C926 0.950 . S
H906 C929 0.950 . S
H907 C930 0.950 . S
H908 C932 0.950 . S
H909 C933 0.950 . S
H910 C934 0.951 . S
H911 C936 0.951 . S
H912 C938 0.950 . S
H913 C939 0.950 . S
H914 C941 0.950 . S
H915 C944 0.950 . S
H916 C945 0.950 . S
H917 C947 0.950 . S
H918 C948 0.950 . S
C919 H901 0.951 . S
C919 C920 1.366 . S
C919 C921 1.388 . S
C920 C919 1.366 . S
C920 C924 1.385 . S
C921 H902 0.951 . S
C921 C919 1.388 . S
C921 C922 1.366 . S
C922 C921 1.366 . S
C922 C923 1.414 . S
C922 C925 1.499 . S
C923 H903 0.950 . S
C923 C922 1.414 . S
C923 C924 1.374 . S
C924 H904 0.950 . S
C924 C920 1.385 . S
C924 C923 1.374 . S
C925 C922 1.499 . S
C925 C926 1.373 . S
C925 C927 1.389 . S
C926 H905 0.950 . S
C926 C925 1.373 . S
C926 C942 1.377 . S
C927 C925 1.389 . S
C927 C928 1.524 . S
C927 C941 1.377 . S
C928 C927 1.524 . S
C928 C929 1.397 . S
C928 C933 1.363 . S
C929 H906 0.950 . S
C929 C928 1.397 . S
C929 C930 1.334 . S
C930 H907 0.950 . S
C930 C929 1.334 . S
C930 C931 1.287 . S
C931 C930 1.287 . S
C931 C932 1.524 . S
C931 H950 0.913 . S
C932 H908 0.950 . S
C932 C931 1.524 . S
C932 C933 1.415 . S
C933 H909 0.950 . S
C933 C928 1.363 . S
C933 C932 1.415 . S
C934 H910 0.951 . S
C934 C935 1.366 . S
C934 C936 1.388 . S
C935 C934 1.366 . S
C935 C939 1.385 . S
C936 H911 0.951 . S
C936 C934 1.388 . S
C936 C937 1.366 . S
C937 C936 1.366 . S
C937 C938 1.414 . S
C937 C940 1.499 . S
C938 H912 0.950 . S
C938 C937 1.414 . S
C938 C939 1.374 . S
C939 H913 0.950 . S
C939 C935 1.385 . S
C939 C938 1.374 . S
C940 C937 1.499 . S
C940 C941 1.373 . S
C940 C942 1.389 . S
C941 H914 0.950 . S
C941 C927 1.377 . S
C941 C940 1.373 . S
C942 C926 1.377 . S
C942 C940 1.389 . S
C942 C943 1.524 . S
C943 C942 1.524 . S
C943 C944 1.397 . S
C943 C948 1.363 . S
C944 H915 0.950 . S
C944 C943 1.397 . S
C944 C945 1.334 . S
C945 H916 0.950 . S
C945 C944 1.334 . S
C945 C946 1.287 . S
C946 C945 1.287 . S
C946 C947 1.524 . S
C946 H949 0.999 . S
C947 H917 0.950 . S
C947 C946 1.524 . S
C947 C948 1.415 . S
C948 H918 0.950 . S
C948 C943 1.363 . S
C948 C947 1.415 . S
H949 C946 0.999 . S
H950 C931 0.913 . S
H951 C969 0.951 . S
H952 C971 0.951 . S
H953 C973 0.950 . S
H954 C974 0.950 . S
H955 C976 0.950 . S
H956 C979 0.950 . S
H957 C980 0.950 . S
H958 C982 0.950 . S
H959 C983 0.950 . S
H960 C984 0.951 . S
H961 C986 0.951 . S
H962 C988 0.950 . S
H963 C989 0.950 . S
H964 C991 0.950 . S
H965 C994 0.950 . S
H966 C995 0.950 . S
H967 C997 0.950 . S
H968 C998 0.950 . S
C969 H951 0.951 . S
C969 C970 1.366 . S
C969 C971 1.388 . S
C970 C969 1.366 . S
C970 C974 1.385 . S
C971 H952 0.951 . S
C971 C969 1.388 . S
C971 C972 1.366 . S
C972 C971 1.366 . S
C972 C973 1.414 . S
C972 C975 1.499 . S
C973 H953 0.950 . S
C973 C972 1.414 . S
C973 C974 1.374 . S
C974 H954 0.950 . S
C974 C970 1.385 . S
C974 C973 1.374 . S
C975 C972 1.499 . S
C975 C976 1.373 . S
C975 C977 1.389 . S
C976 H955 0.950 . S
C976 C975 1.373 . S
C976 C992 1.377 . S
C977 C975 1.389 . S
C977 C978 1.524 . S
C977 C991 1.377 . S
C978 C977 1.524 . S
C978 C979 1.397 . S
C978 C983 1.363 . S
C979 H956 0.950 . S
C979 C978 1.397 . S
C979 C980 1.334 . S
C980 H957 0.950 . S
C980 C979 1.334 . S
C980 C981 1.287 . S
C981 C980 1.287 . S
C981 C982 1.524 . S
C981 H1000 0.913 . S
C982 H958 0.950 . S
C982 C981 1.524 . S
C982 C983 1.415 . S
C983 H959 0.950 . S
C983 C978 1.363 . S
C983 C982 1.415 . S
C984 H960 0.951 . S
C984 C985 1.366 . S
C984 C986 1.388 . S
C985 C984 1.366 . S
C985 C989 1.385 . S
C986 H961 0.951 . S
C986 C984 1.388 . S
C986 C987 1.366 . S
C987 C986 1.366 . S
C987 C988 1.414 . S
C987 C990 1.499 . S
C988 H962 0.950 . S
C988 C987 1.414 . S
C988 C989 1.374 . S
C989 H963 0.950 . S
C989 C985 1.385 . S
C989 C988 1.374 . S
C990 C987 1.499 . S
C990 C991 1.373 . S
C990 C992 1.389 . S
C991 H964 0.950 . S
C991 C977 1.377 . S
C991 C990 1.373 . S
C992 C976 1.377 . S
C992 C990 1.389 . S
C992 C993 1.524 . S
C993 C992 1.524 . S
C993 C994 1.397 . S
C993 C998 1.363 . S
C994 H965 0.950 . S
C994 C993 1.397 . S
C994 C995 1.334 . S
C995 H966 0.950 . S
C995 C994 1.334 . S
C995 C996 1.287 . S
C996 C995 1.287 . S
C996 C997 1.524 . S
C996 H999 0.999 . S
C997 H967 0.950 . S
C997 C996 1.524 . S
C997 C998 1.415 . S
C998 H968 0.950 . S
C998 C993 1.363 . S
C998 C997 1.415 . S
H999 C996 0.999 . S
H1000 C981 0.913 . S
H1001 C1019 0.951 . S
H1002 C1021 0.951 . S
H1003 C1023 0.950 . S
H1004 C1024 0.950 . S
H1005 C1026 0.950 . S
H1006 C1029 0.950 . S
H1007 C1030 0.950 . S
H1008 C1032 0.950 . S
H1009 C1033 0.950 . S
H1010 C1034 0.951 . S
H1011 C1036 0.951 . S
H1012 C1038 0.950 . S
H1013 C1039 0.950 1_455 S
H1014 C1041 0.950 . S
H1015 C1044 0.950 . S
H1016 C1045 0.950 . S
H1017 C1047 0.950 . S
H1018 C1048 0.950 . S
C1019 H1001 0.951 . S
C1019 C1020 1.366 . S
C1019 C1021 1.388 . S
C1020 C1019 1.366 . S
C1020 C1024 1.385 . S
C1021 H1002 0.951 . S
C1021 C1019 1.388 . S
C1021 C1022 1.366 . S
C1022 C1021 1.366 . S
C1022 C1023 1.414 . S
C1022 C1025 1.499 . S
C1023 H1003 0.950 . S
C1023 C1022 1.414 . S
C1023 C1024 1.374 . S
C1024 H1004 0.950 . S
C1024 C1020 1.385 . S
C1024 C1023 1.374 . S
C1025 C1022 1.499 . S
C1025 C1026 1.373 . S
C1025 C1027 1.389 . S
C1026 H1005 0.950 . S
C1026 C1025 1.373 . S
C1026 C1042 1.377 . S
C1027 C1025 1.389 . S
C1027 C1028 1.524 . S
C1027 C1041 1.377 . S
C1028 C1027 1.524 . S
C1028 C1029 1.397 . S
C1028 C1033 1.363 . S
C1029 H1006 0.950 . S
C1029 C1028 1.397 . S
C1029 C1030 1.334 . S
C1030 H1007 0.950 . S
C1030 C1029 1.334 . S
C1030 C1031 1.287 . S
C1031 C1030 1.287 . S
C1031 C1032 1.524 . S
C1031 H1050 0.913 . S
C1032 H1008 0.950 . S
C1032 C1031 1.524 . S
C1032 C1033 1.415 . S
C1033 H1009 0.950 . S
C1033 C1028 1.363 . S
C1033 C1032 1.415 . S
C1034 H1010 0.951 . S
C1034 C1035 1.366 . S
C1034 C1036 1.388 . S
C1035 C1034 1.366 . S
C1035 C1039 1.385 . S
C1036 H1011 0.951 . S
C1036 C1034 1.388 . S
C1036 C1037 1.366 . S
C1037 C1036 1.366 . S
C1037 C1038 1.414 . S
C1037 C1040 1.499 . S
C1038 H1012 0.950 . S
C1038 C1037 1.414 . S
C1038 C1039 1.374 . S
C1039 H1013 0.950 1_655 S
C1039 C1035 1.385 . S
C1039 C1038 1.374 . S
C1040 C1037 1.499 . S
C1040 C1041 1.373 . S
C1040 C1042 1.389 . S
C1041 H1014 0.950 . S
C1041 C1027 1.377 . S
C1041 C1040 1.373 . S
C1042 C1026 1.377 . S
C1042 C1040 1.389 . S
C1042 C1043 1.524 . S
C1043 C1042 1.524 . S
C1043 C1044 1.397 . S
C1043 C1048 1.363 . S
C1044 H1015 0.950 . S
C1044 C1043 1.397 . S
C1044 C1045 1.334 . S
C1045 H1016 0.950 . S
C1045 C1044 1.334 . S
C1045 C1046 1.287 . S
C1046 C1045 1.287 . S
C1046 C1047 1.524 . S
C1046 H1049 0.999 . S
C1047 H1017 0.950 . S
C1047 C1046 1.524 . S
C1047 C1048 1.415 . S
C1048 H1018 0.950 . S
C1048 C1043 1.363 . S
C1048 C1047 1.415 . S
H1049 C1046 0.999 . S
H1050 C1031 0.913 . S
H1051 C1069 0.951 . S
H1052 C1071 0.951 . S
H1053 C1073 0.950 . S
H1054 C1074 0.950 . S
H1055 C1076 0.950 . S
H1056 C1079 0.950 . S
H1057 C1080 0.950 . S
H1058 C1082 0.950 . S
H1059 C1083 0.950 . S
H1060 C1084 0.951 . S
H1061 C1086 0.951 . S
H1062 C1088 0.950 . S
H1063 C1089 0.950 . S
H1064 C1091 0.950 . S
H1065 C1094 0.950 . S
H1066 C1095 0.950 . S
H1067 C1097 0.950 . S
H1068 C1098 0.950 . S
C1069 H1051 0.951 . S
C1069 C1070 1.366 . S
C1069 C1071 1.388 . S
C1070 C1069 1.366 . S
C1070 C1074 1.385 . S
C1071 H1052 0.951 . S
C1071 C1069 1.388 . S
C1071 C1072 1.366 . S
C1072 C1071 1.366 . S
C1072 C1073 1.414 . S
C1072 C1075 1.499 . S
C1073 H1053 0.950 . S
C1073 C1072 1.414 . S
C1073 C1074 1.374 . S
C1074 H1054 0.950 . S
C1074 C1070 1.385 . S
C1074 C1073 1.374 . S
C1075 C1072 1.499 . S
C1075 C1076 1.373 . S
C1075 C1077 1.389 . S
C1076 H1055 0.950 . S
C1076 C1075 1.373 . S
C1076 C1092 1.377 . S
C1077 C1075 1.389 . S
C1077 C1078 1.524 . S
C1077 C1091 1.377 . S
C1078 C1077 1.524 . S
C1078 C1079 1.397 . S
C1078 C1083 1.363 . S
C1079 H1056 0.950 . S
C1079 C1078 1.397 . S
C1079 C1080 1.334 . S
C1080 H1057 0.950 . S
C1080 C1079 1.334 . S
C1080 C1081 1.287 . S
C1081 C1080 1.287 . S
C1081 C1082 1.524 . S
C1081 H1100 0.913 . S
C1082 H1058 0.950 . S
C1082 C1081 1.524 . S
C1082 C1083 1.415 . S
C1083 H1059 0.950 . S
C1083 C1078 1.363 . S
C1083 C1082 1.415 . S
C1084 H1060 0.951 . S
C1084 C1085 1.366 . S
C1084 C1086 1.388 . S
C1085 C1084 1.366 . S
C1085 C1089 1.385 . S
C1086 H1061 0.951 . S
C1086 C1084 1.388 . S
C1086 C1087 1.366 . S
C1087 C1086 1.366 . S
C1087 C1088 1.414 . S
C1087 C1090 1.499 . S
C1088 H1062 0.950 . S
C1088 C1087 1.414 . S
C1088 C1089 1.374 . S
C1089 H1063 0.950 . S
C1089 C1085 1.385 . S
C1089 C1088 1.374 . S
C1090 C1087 1.499 . S
C1090 C1091 1.373 . S
C1090 C1092 1.389 . S
C1091 H1064 0.950 . S
C1091 C1077 1.377 . S
C1091 C1090 1.373 . S
C1092 C1076 1.377 . S
C1092 C1090 1.389 . S
C1092 C1093 1.524 . S
C1093 C1092 1.524 . S
C1093 C1094 1.397 . S
C1093 C1098 1.363 . S
C1094 H1065 0.950 . S
C1094 C1093 1.397 . S
C1094 C1095 1.334 . S
C1095 H1066 0.950 . S
C1095 C1094 1.334 . S
C1095 C1096 1.287 . S
C1096 C1095 1.287 . S
C1096 C1097 1.524 . S
C1096 H1099 0.999 . S
C1097 H1067 0.950 . S
C1097 C1096 1.524 . S
C1097 C1098 1.415 . S
C1098 H1068 0.950 . S
C1098 C1093 1.363 . S
C1098 C1097 1.415 . S
H1099 C1096 0.999 . S
H1100 C1081 0.913 . S
H1101 C1119 0.951 . S
H1102 C1121 0.951 . S
H1103 C1123 0.950 . S
H1104 C1124 0.950 . S
H1105 C1126 0.950 . S
H1106 C1129 0.950 . S
H1107 C1130 0.950 . S
H1108 C1132 0.950 . S
H1109 C1133 0.950 . S
H1110 C1134 0.951 . S
H1111 C1136 0.951 . S
H1112 C1138 0.950 . S
H1113 C1139 0.950 . S
H1114 C1141 0.950 . S
H1115 C1144 0.950 . S
H1116 C1145 0.950 . S
H1117 C1147 0.950 . S
H1118 C1148 0.950 . S
C1119 H1101 0.951 . S
C1119 C1120 1.366 . S
C1119 C1121 1.388 . S
C1120 C1119 1.366 . S
C1120 C1124 1.385 . S
C1121 H1102 0.951 . S
C1121 C1119 1.388 . S
C1121 C1122 1.366 . S
C1122 C1121 1.366 . S
C1122 C1123 1.414 . S
C1122 C1125 1.499 . S
C1123 H1103 0.950 . S
C1123 C1122 1.414 . S
C1123 C1124 1.374 . S
C1124 H1104 0.950 . S
C1124 C1120 1.385 . S
C1124 C1123 1.374 . S
C1125 C1122 1.499 . S
C1125 C1126 1.373 . S
C1125 C1127 1.389 . S
C1126 H1105 0.950 . S
C1126 C1125 1.373 . S
C1126 C1142 1.377 . S
C1127 C1125 1.389 . S
C1127 C1128 1.524 . S
C1127 C1141 1.377 . S
C1128 C1127 1.524 . S
C1128 C1129 1.397 . S
C1128 C1133 1.363 . S
C1129 H1106 0.950 . S
C1129 C1128 1.397 . S
C1129 C1130 1.334 . S
C1130 H1107 0.950 . S
C1130 C1129 1.334 . S
C1130 C1131 1.287 . S
C1131 C1130 1.287 . S
C1131 C1132 1.524 . S
C1131 H1150 0.913 . S
C1132 H1108 0.950 . S
C1132 C1131 1.524 . S
C1132 C1133 1.415 . S
C1133 H1109 0.950 . S
C1133 C1128 1.363 . S
C1133 C1132 1.415 . S
C1134 H1110 0.951 . S
C1134 C1135 1.366 . S
C1134 C1136 1.388 . S
C1135 C1134 1.366 . S
C1135 C1139 1.385 . S
C1136 H1111 0.951 . S
C1136 C1134 1.388 . S
C1136 C1137 1.366 . S
C1137 C1136 1.366 . S
C1137 C1138 1.414 . S
C1137 C1140 1.499 . S
C1138 H1112 0.950 . S
C1138 C1137 1.414 . S
C1138 C1139 1.374 . S
C1139 H1113 0.950 . S
C1139 C1135 1.385 . S
C1139 C1138 1.374 . S
C1140 C1137 1.499 . S
C1140 C1141 1.373 . S
C1140 C1142 1.389 . S
C1141 H1114 0.950 . S
C1141 C1127 1.377 . S
C1141 C1140 1.373 . S
C1142 C1126 1.377 . S
C1142 C1140 1.389 . S
C1142 C1143 1.524 . S
C1143 C1142 1.524 . S
C1143 C1144 1.397 . S
C1143 C1148 1.363 . S
C1144 H1115 0.950 . S
C1144 C1143 1.397 . S
C1144 C1145 1.334 . S
C1145 H1116 0.950 . S
C1145 C1144 1.334 . S
C1145 C1146 1.287 . S
C1146 C1145 1.287 . S
C1146 C1147 1.524 . S
C1146 H1149 0.999 . S
C1147 H1117 0.950 . S
C1147 C1146 1.524 . S
C1147 C1148 1.415 . S
C1148 H1118 0.950 . S
C1148 C1143 1.363 . S
C1148 C1147 1.415 . S
H1149 C1146 0.999 . S
H1150 C1131 0.913 . S
H1151 C1169 0.951 . S
H1152 C1171 0.951 . S
H1153 C1173 0.950 . S
H1154 C1174 0.950 . S
H1155 C1176 0.950 . S
H1156 C1179 0.950 . S
H1157 C1180 0.950 . S
H1158 C1182 0.950 . S
H1159 C1183 0.950 . S
H1160 C1184 0.951 . S
H1161 C1186 0.951 . S
H1162 C1188 0.950 . S
H1163 C1189 0.950 . S
H1164 C1191 0.950 . S
H1165 C1194 0.950 . S
H1166 C1195 0.950 . S
H1167 C1197 0.950 . S
H1168 C1198 0.950 . S
C1169 H1151 0.951 . S
C1169 C1170 1.366 . S
C1169 C1171 1.388 . S
C1170 C1169 1.366 . S
C1170 C1174 1.385 . S
C1171 H1152 0.951 . S
C1171 C1169 1.388 . S
C1171 C1172 1.366 . S
C1172 C1171 1.366 . S
C1172 C1173 1.414 . S
C1172 C1175 1.499 . S
C1173 H1153 0.950 . S
C1173 C1172 1.414 . S
C1173 C1174 1.374 . S
C1174 H1154 0.950 . S
C1174 C1170 1.385 . S
C1174 C1173 1.374 . S
C1175 C1172 1.499 . S
C1175 C1176 1.373 . S
C1175 C1177 1.389 . S
C1176 H1155 0.950 . S
C1176 C1175 1.373 . S
C1176 C1192 1.377 . S
C1177 C1175 1.389 . S
C1177 C1178 1.524 . S
C1177 C1191 1.377 . S
C1178 C1177 1.524 . S
C1178 C1179 1.397 . S
C1178 C1183 1.363 . S
C1179 H1156 0.950 . S
C1179 C1178 1.397 . S
C1179 C1180 1.334 . S
C1180 H1157 0.950 . S
C1180 C1179 1.334 . S
C1180 C1181 1.287 . S
C1181 C1180 1.287 . S
C1181 C1182 1.524 . S
C1181 H1200 0.913 . S
C1182 H1158 0.950 . S
C1182 C1181 1.524 . S
C1182 C1183 1.415 . S
C1183 H1159 0.950 . S
C1183 C1178 1.363 . S
C1183 C1182 1.415 . S
C1184 H1160 0.951 . S
C1184 C1185 1.366 . S
C1184 C1186 1.388 . S
C1185 C1184 1.366 . S
C1185 C1189 1.385 . S
C1186 H1161 0.951 . S
C1186 C1184 1.388 . S
C1186 C1187 1.366 . S
C1187 C1186 1.366 . S
C1187 C1188 1.414 . S
C1187 C1190 1.499 . S
C1188 H1162 0.950 . S
C1188 C1187 1.414 . S
C1188 C1189 1.374 . S
C1189 H1163 0.950 . S
C1189 C1185 1.385 . S
C1189 C1188 1.374 . S
C1190 C1187 1.499 . S
C1190 C1191 1.373 . S
C1190 C1192 1.389 . S
C1191 H1164 0.950 . S
C1191 C1177 1.377 . S
C1191 C1190 1.373 . S
C1192 C1176 1.377 . S
C1192 C1190 1.389 . S
C1192 C1193 1.524 . S
C1193 C1192 1.524 . S
C1193 C1194 1.397 . S
C1193 C1198 1.363 . S
C1194 H1165 0.950 . S
C1194 C1193 1.397 . S
C1194 C1195 1.334 . S
C1195 H1166 0.950 . S
C1195 C1194 1.334 . S
C1195 C1196 1.287 . S
C1196 C1195 1.287 . S
C1196 C1197 1.524 . S
C1196 H1199 0.999 . S
C1197 H1167 0.950 . S
C1197 C1196 1.524 . S
C1197 C1198 1.415 . S
C1198 H1168 0.950 . S
C1198 C1193 1.363 . S
C1198 C1197 1.415 . S
H1199 C1196 0.999 . S
H1200 C1181 0.913 . S
H1201 C1219 0.951 . S
H1202 C1221 0.951 . S
H1203 C1223 0.950 . S
H1204 C1224 0.950 . S
H1205 C1226 0.950 . S
H1206 C1229 0.950 . S
H1207 C1230 0.950 . S
H1208 C1232 0.950 . S
H1209 C1233 0.950 . S
H1210 C1234 0.951 . S
H1211 C1236 0.951 . S
H1212 C1238 0.950 . S
H1213 C1239 0.950 . S
H1214 C1241 0.950 . S
H1215 C1244 0.950 . S
H1216 C1245 0.950 . S
H1217 C1247 0.950 . S
H1218 C1248 0.950 . S
C1219 H1201 0.951 . S
C1219 C1220 1.366 . S
C1219 C1221 1.388 . S
C1220 C1219 1.366 . S
C1220 C1224 1.385 . S
C1221 H1202 0.951 . S
C1221 C1219 1.388 . S
C1221 C1222 1.366 . S
C1222 C1221 1.366 . S
C1222 C1223 1.414 . S
C1222 C1225 1.499 . S
C1223 H1203 0.950 . S
C1223 C1222 1.414 . S
C1223 C1224 1.374 . S
C1224 H1204 0.950 . S
C1224 C1220 1.385 . S
C1224 C1223 1.374 . S
C1225 C1222 1.499 . S
C1225 C1226 1.373 . S
C1225 C1227 1.389 . S
C1226 H1205 0.950 . S
C1226 C1225 1.373 . S
C1226 C1242 1.377 . S
C1227 C1225 1.389 . S
C1227 C1228 1.524 . S
C1227 C1241 1.377 . S
C1228 C1227 1.524 . S
C1228 C1229 1.397 . S
C1228 C1233 1.363 . S
C1229 H1206 0.950 . S
C1229 C1228 1.397 . S
C1229 C1230 1.334 . S
C1230 H1207 0.950 . S
C1230 C1229 1.334 . S
C1230 C1231 1.287 . S
C1231 C1230 1.287 . S
C1231 C1232 1.524 . S
C1231 H1250 0.913 . S
C1232 H1208 0.950 . S
C1232 C1231 1.524 . S
C1232 C1233 1.415 . S
C1233 H1209 0.950 . S
C1233 C1228 1.363 . S
C1233 C1232 1.415 . S
C1234 H1210 0.951 . S
C1234 C1235 1.366 . S
C1234 C1236 1.388 . S
C1235 C1234 1.366 . S
C1235 C1239 1.385 . S
C1236 H1211 0.951 . S
C1236 C1234 1.388 . S
C1236 C1237 1.366 . S
C1237 C1236 1.366 . S
C1237 C1238 1.414 . S
C1237 C1240 1.499 . S
C1238 H1212 0.950 . S
C1238 C1237 1.414 . S
C1238 C1239 1.374 . S
C1239 H1213 0.950 . S
C1239 C1235 1.385 . S
C1239 C1238 1.374 . S
C1240 C1237 1.499 . S
C1240 C1241 1.373 . S
C1240 C1242 1.389 . S
C1241 H1214 0.950 . S
C1241 C1227 1.377 . S
C1241 C1240 1.373 . S
C1242 C1226 1.377 . S
C1242 C1240 1.389 . S
C1242 C1243 1.524 . S
C1243 C1242 1.524 . S
C1243 C1244 1.397 . S
C1243 C1248 1.363 . S
C1244 H1215 0.950 . S
C1244 C1243 1.397 . S
C1244 C1245 1.334 . S
C1245 H1216 0.950 . S
C1245 C1244 1.334 . S
C1245 C1246 1.287 . S
C1246 C1245 1.287 . S
C1246 C1247 1.524 . S
C1246 H1249 0.999 . S
C1247 H1217 0.950 . S
C1247 C1246 1.524 . S
C1247 C1248 1.415 . S
C1248 H1218 0.950 . S
C1248 C1243 1.363 . S
C1248 C1247 1.415 . S
H1249 C1246 0.999 . S
H1250 C1231 0.913 . S
H1251 C1269 0.951 . S
H1252 C1271 0.951 . S
H1253 C1273 0.950 . S
H1254 C1274 0.950 . S
H1255 C1276 0.950 . S
H1256 C1279 0.950 . S
H1257 C1280 0.950 . S
H1258 C1282 0.950 . S
H1259 C1283 0.950 . S
H1260 C1284 0.951 . S
H1261 C1286 0.951 . S
H1262 C1288 0.950 . S
H1263 C1289 0.950 . S
H1264 C1291 0.950 . S
H1265 C1294 0.950 . S
H1266 C1295 0.950 . S
H1267 C1297 0.950 . S
H1268 C1298 0.950 . S
C1269 H1251 0.951 . S
C1269 C1270 1.366 . S
C1269 C1271 1.388 . S
C1270 C1269 1.366 . S
C1270 C1274 1.385 . S
C1271 H1252 0.951 . S
C1271 C1269 1.388 . S
C1271 C1272 1.366 . S
C1272 C1271 1.366 . S
C1272 C1273 1.414 . S
C1272 C1275 1.499 . S
C1273 H1253 0.950 . S
C1273 C1272 1.414 . S
C1273 C1274 1.374 . S
C1274 H1254 0.950 . S
C1274 C1270 1.385 . S
C1274 C1273 1.374 . S
C1275 C1272 1.499 . S
C1275 C1276 1.373 . S
C1275 C1277 1.389 . S
C1276 H1255 0.950 . S
C1276 C1275 1.373 . S
C1276 C1292 1.377 . S
C1277 C1275 1.389 . S
C1277 C1278 1.524 . S
C1277 C1291 1.377 . S
C1278 C1277 1.524 . S
C1278 C1279 1.397 . S
C1278 C1283 1.363 . S
C1279 H1256 0.950 . S
C1279 C1278 1.397 . S
C1279 C1280 1.334 . S
C1280 H1257 0.950 . S
C1280 C1279 1.334 . S
C1280 C1281 1.287 . S
C1281 C1280 1.287 . S
C1281 C1282 1.524 . S
C1281 H1300 0.913 . S
C1282 H1258 0.950 . S
C1282 C1281 1.524 . S
C1282 C1283 1.415 . S
C1283 H1259 0.950 . S
C1283 C1278 1.363 . S
C1283 C1282 1.415 . S
C1284 H1260 0.951 . S
C1284 C1285 1.366 . S
C1284 C1286 1.388 . S
C1285 C1284 1.366 . S
C1285 C1289 1.385 . S
C1286 H1261 0.951 . S
C1286 C1284 1.388 . S
C1286 C1287 1.366 . S
C1287 C1286 1.366 . S
C1287 C1288 1.414 . S
C1287 C1290 1.499 . S
C1288 H1262 0.950 . S
C1288 C1287 1.414 . S
C1288 C1289 1.374 . S
C1289 H1263 0.950 . S
C1289 C1285 1.385 . S
C1289 C1288 1.374 . S
C1290 C1287 1.499 . S
C1290 C1291 1.373 . S
C1290 C1292 1.389 . S
C1291 H1264 0.950 . S
C1291 C1277 1.377 . S
C1291 C1290 1.373 . S
C1292 C1276 1.377 . S
C1292 C1290 1.389 . S
C1292 C1293 1.524 . S
C1293 C1292 1.524 . S
C1293 C1294 1.397 . S
C1293 C1298 1.363 . S
C1294 H1265 0.950 . S
C1294 C1293 1.397 . S
C1294 C1295 1.334 . S
C1295 H1266 0.950 . S
C1295 C1294 1.334 . S
C1295 C1296 1.287 . S
C1296 C1295 1.287 . S
C1296 C1297 1.524 . S
C1296 H1299 0.999 . S
C1297 H1267 0.950 . S
C1297 C1296 1.524 . S
C1297 C1298 1.415 . S
C1298 H1268 0.950 . S
C1298 C1293 1.363 . S
C1298 C1297 1.415 . S
H1299 C1296 0.999 . S
H1300 C1281 0.913 . S
H1301 C1319 0.951 . S
H1302 C1321 0.951 . S
H1303 C1323 0.950 . S
H1304 C1324 0.950 . S
H1305 C1326 0.950 . S
H1306 C1329 0.950 . S
H1307 C1330 0.950 . S
H1308 C1332 0.950 . S
H1309 C1333 0.950 . S
H1310 C1334 0.951 . S
H1311 C1336 0.951 . S
H1312 C1338 0.950 . S
H1313 C1339 0.950 . S
H1314 C1341 0.950 . S
H1315 C1344 0.950 . S
H1316 C1345 0.950 . S
H1317 C1347 0.950 . S
H1318 C1348 0.950 . S
C1319 H1301 0.951 . S
C1319 C1320 1.366 . S
C1319 C1321 1.388 . S
C1320 C1319 1.366 . S
C1320 C1324 1.385 . S
C1321 H1302 0.951 . S
C1321 C1319 1.388 . S
C1321 C1322 1.366 . S
C1322 C1321 1.366 . S
C1322 C1323 1.414 . S
C1322 C1325 1.499 . S
C1323 H1303 0.950 . S
C1323 C1322 1.414 . S
C1323 C1324 1.374 . S
C1324 H1304 0.950 . S
C1324 C1320 1.385 . S
C1324 C1323 1.374 . S
C1325 C1322 1.499 . S
C1325 C1326 1.373 . S
C1325 C1327 1.389 . S
C1326 H1305 0.950 . S
C1326 C1325 1.373 . S
C1326 C1342 1.377 . S
C1327 C1325 1.389 . S
C1327 C1328 1.524 . S
C1327 C1341 1.377 . S
C1328 C1327 1.524 . S
C1328 C1329 1.397 . S
C1328 C1333 1.363 . S
C1329 H1306 0.950 . S
C1329 C1328 1.397 . S
C1329 C1330 1.334 . S
C1330 H1307 0.950 . S
C1330 C1329 1.334 . S
C1330 C1331 1.287 . S
C1331 C1330 1.287 . S
C1331 C1332 1.524 . S
C1331 H1350 0.913 . S
C1332 H1308 0.950 . S
C1332 C1331 1.524 . S
C1332 C1333 1.415 . S
C1333 H1309 0.950 . S
C1333 C1328 1.363 . S
C1333 C1332 1.415 . S
C1334 H1310 0.951 . S
C1334 C1335 1.366 . S
C1334 C1336 1.388 . S
C1335 C1334 1.366 . S
C1335 C1339 1.385 . S
C1336 H1311 0.951 . S
C1336 C1334 1.388 . S
C1336 C1337 1.366 . S
C1337 C1336 1.366 . S
C1337 C1338 1.414 . S
C1337 C1340 1.499 . S
C1338 H1312 0.950 . S
C1338 C1337 1.414 . S
C1338 C1339 1.374 . S
C1339 H1313 0.950 . S
C1339 C1335 1.385 . S
C1339 C1338 1.374 . S
C1340 C1337 1.499 . S
C1340 C1341 1.373 . S
C1340 C1342 1.389 . S
C1341 H1314 0.950 . S
C1341 C1327 1.377 . S
C1341 C1340 1.373 . S
C1342 C1326 1.377 . S
C1342 C1340 1.389 . S
C1342 C1343 1.524 . S
C1343 C1342 1.524 . S
C1343 C1344 1.397 . S
C1343 C1348 1.363 . S
C1344 H1315 0.950 . S
C1344 C1343 1.397 . S
C1344 C1345 1.334 . S
C1345 H1316 0.950 . S
C1345 C1344 1.334 . S
C1345 C1346 1.287 . S
C1346 C1345 1.287 . S
C1346 C1347 1.524 . S
C1346 H1349 0.999 . S
C1347 H1317 0.950 . S
C1347 C1346 1.524 . S
C1347 C1348 1.415 . S
C1348 H1318 0.950 . S
C1348 C1343 1.363 . S
C1348 C1347 1.415 . S
H1349 C1346 0.999 . S
H1350 C1331 0.913 . S
H1351 C1369 0.951 . S
H1352 C1371 0.951 . S
H1353 C1373 0.950 . S
H1354 C1374 0.950 . S
H1355 C1376 0.950 . S
H1356 C1379 0.950 . S
H1357 C1380 0.950 . S
H1358 C1382 0.950 . S
H1359 C1383 0.950 . S
H1360 C1384 0.951 . S
H1361 C1386 0.951 . S
H1362 C1388 0.950 . S
H1363 C1389 0.950 . S
H1364 C1391 0.950 . S
H1365 C1394 0.950 . S
H1366 C1395 0.950 . S
H1367 C1397 0.950 . S
H1368 C1398 0.950 . S
C1369 H1351 0.951 . S
C1369 C1370 1.366 . S
C1369 C1371 1.388 . S
C1370 C1369 1.366 . S
C1370 C1374 1.385 . S
C1371 H1352 0.951 . S
C1371 C1369 1.388 . S
C1371 C1372 1.366 . S
C1372 C1371 1.366 . S
C1372 C1373 1.414 . S
C1372 C1375 1.499 . S
C1373 H1353 0.950 . S
C1373 C1372 1.414 . S
C1373 C1374 1.374 . S
C1374 H1354 0.950 . S
C1374 C1370 1.385 . S
C1374 C1373 1.374 . S
C1375 C1372 1.499 . S
C1375 C1376 1.373 . S
C1375 C1377 1.389 . S
C1376 H1355 0.950 . S
C1376 C1375 1.373 . S
C1376 C1392 1.377 . S
C1377 C1375 1.389 . S
C1377 C1378 1.524 . S
C1377 C1391 1.377 . S
C1378 C1377 1.524 . S
C1378 C1379 1.397 . S
C1378 C1383 1.363 . S
C1379 H1356 0.950 . S
C1379 C1378 1.397 . S
C1379 C1380 1.334 . S
C1380 H1357 0.950 . S
C1380 C1379 1.334 . S
C1380 C1381 1.287 . S
C1381 C1380 1.287 . S
C1381 C1382 1.524 . S
C1381 H1400 0.913 . S
C1382 H1358 0.950 . S
C1382 C1381 1.524 . S
C1382 C1383 1.415 . S
C1383 H1359 0.950 . S
C1383 C1378 1.363 . S
C1383 C1382 1.415 . S
C1384 H1360 0.951 . S
C1384 C1385 1.366 . S
C1384 C1386 1.388 . S
C1385 C1384 1.366 . S
C1385 C1389 1.385 . S
C1386 H1361 0.951 . S
C1386 C1384 1.388 . S
C1386 C1387 1.366 . S
C1387 C1386 1.366 . S
C1387 C1388 1.414 . S
C1387 C1390 1.499 . S
C1388 H1362 0.950 . S
C1388 C1387 1.414 . S
C1388 C1389 1.374 . S
C1389 H1363 0.950 . S
C1389 C1385 1.385 . S
C1389 C1388 1.374 . S
C1390 C1387 1.499 . S
C1390 C1391 1.373 . S
C1390 C1392 1.389 . S
C1391 H1364 0.950 . S
C1391 C1377 1.377 . S
C1391 C1390 1.373 . S
C1392 C1376 1.377 . S
C1392 C1390 1.389 . S
C1392 C1393 1.524 . S
C1393 C1392 1.524 . S
C1393 C1394 1.397 . S
C1393 C1398 1.363 . S
C1394 H1365 0.950 . S
C1394 C1393 1.397 . S
C1394 C1395 1.334 . S
C1395 H1366 0.950 . S
C1395 C1394 1.334 . S
C1395 C1396 1.287 . S
C1396 C1395 1.287 . S
C1396 C1397 1.524 . S
C1396 H1399 0.999 . S
C1397 H1367 0.950 . S
C1397 C1396 1.524 . S
C1397 C1398 1.415 . S
C1398 H1368 0.950 . S
C1398 C1393 1.363 . S
C1398 C1397 1.415 . S
H1399 C1396 0.999 . S
H1400 C1381 0.913 . S
H1401 C1419 0.951 . S
H1402 C1421 0.951 . S
H1403 C1423 0.950 . S
H1404 C1424 0.950 . S
H1405 C1426 0.950 . S
H1406 C1429 0.950 . S
H1407 C1430 0.950 . S
H1408 C1432 0.950 . S
H1409 C1433 0.950 . S
H1410 C1434 0.951 . S
H1411 C1436 0.951 . S
H1412 C1438 0.950 . S
H1413 C1439 0.950 . S
H1414 C1441 0.950 . S
H1415 C1444 0.950 . S
H1416 C1445 0.950 . S
H1417 C1447 0.950 . S
H1418 C1448 0.950 . S
C1419 H1401 0.951 . S
C1419 C1420 1.366 . S
C1419 C1421 1.388 . S
C1420 C1419 1.366 . S
C1420 C1424 1.385 . S
C1421 H1402 0.951 . S
C1421 C1419 1.388 . S
C1421 C1422 1.366 . S
C1422 C1421 1.366 . S
C1422 C1423 1.414 . S
C1422 C1425 1.499 . S
C1423 H1403 0.950 . S
C1423 C1422 1.414 . S
C1423 C1424 1.374 . S
C1424 H1404 0.950 . S
C1424 C1420 1.385 . S
C1424 C1423 1.374 . S
C1425 C1422 1.499 . S
C1425 C1426 1.373 . S
C1425 C1427 1.389 . S
C1426 H1405 0.950 . S
C1426 C1425 1.373 . S
C1426 C1442 1.377 . S
C1427 C1425 1.389 . S
C1427 C1428 1.524 . S
C1427 C1441 1.377 . S
C1428 C1427 1.524 . S
C1428 C1429 1.397 . S
C1428 C1433 1.363 . S
C1429 H1406 0.950 . S
C1429 C1428 1.397 . S
C1429 C1430 1.334 . S
C1430 H1407 0.950 . S
C1430 C1429 1.334 . S
C1430 C1431 1.287 . S
C1431 C1430 1.287 . S
C1431 C1432 1.524 . S
C1431 H1450 0.913 . S
C1432 H1408 0.950 . S
C1432 C1431 1.524 . S
C1432 C1433 1.415 . S
C1433 H1409 0.950 . S
C1433 C1428 1.363 . S
C1433 C1432 1.415 . S
C1434 H1410 0.951 . S
C1434 C1435 1.366 . S
C1434 C1436 1.388 . S
C1435 C1434 1.366 . S
C1435 C1439 1.385 . S
C1436 H1411 0.951 . S
C1436 C1434 1.388 . S
C1436 C1437 1.366 . S
C1437 C1436 1.366 . S
C1437 C1438 1.414 . S
C1437 C1440 1.499 . S
C1438 H1412 0.950 . S
C1438 C1437 1.414 . S
C1438 C1439 1.374 . S
C1439 H1413 0.950 . S
C1439 C1435 1.385 . S
C1439 C1438 1.374 . S
C1440 C1437 1.499 . S
C1440 C1441 1.373 . S
C1440 C1442 1.389 . S
C1441 H1414 0.950 . S
C1441 C1427 1.377 . S
C1441 C1440 1.373 . S
C1442 C1426 1.377 . S
C1442 C1440 1.389 . S
C1442 C1443 1.524 . S
C1443 C1442 1.524 . S
C1443 C1444 1.397 . S
C1443 C1448 1.363 . S
C1444 H1415 0.950 . S
C1444 C1443 1.397 . S
C1444 C1445 1.334 . S
C1445 H1416 0.950 . S
C1445 C1444 1.334 . S
C1445 C1446 1.287 . S
C1446 C1445 1.287 . S
C1446 C1447 1.524 . S
C1446 H1449 0.999 . S
C1447 H1417 0.950 . S
C1447 C1446 1.524 . S
C1447 C1448 1.415 . S
C1448 H1418 0.950 . S
C1448 C1443 1.363 . S
C1448 C1447 1.415 . S
H1449 C1446 0.999 . S
H1450 C1431 0.913 . S
C285 C176 1.408 . S
C270 C11 1.358 . S
C335 C212 1.111 . S
C320 C25 1.174 . S
C385 C177 1.927 . S
C370 C40 1.923 . S
C435 C207 1.581 . S
C420 C59 1.651 . S
C485 C174 1.352 . S
C470 C82 1.419 . S
C520 C101 2.205 . S
C535 C210 2.198 . S
C570 C116 0.298 . S
C585 C179 0.590 . S
C635 C209 1.498 . S
C620 C144 1.371 . S
C685 C213 2.080 . S
C670 C2 2.109 . S
C735 C178 0.824 . S
C720 C21 0.834 . S
C785 C206 1.705 . S
C770 C49 1.470 . S
C835 C175 1.083 . S
C820 C63 1.200 . S
C885 C208 1.833 . S
C870 C78 1.960 . S
C920 C106 1.349 . S
C935 C173 1.383 . S
C970 C120 0.875 . S
C985 C211 0.863 . S
C1035 C180 1.667 . S
C1020 C135 1.730 . S
C1085 C242 2.224 . S
C1070 C6 2.313 . S
C1120 C87 1.679 . S
C1135 C245 1.731 . S
C1185 C244 2.371 . S
C1170 C97 2.428 . S
C1220 C125 0.785 . S
C1235 C243 0.793 . S
C1285 C246 2.262 . S
C1270 C139 2.401 . S
C1320 C44 2.209 . S
C1335 C240 2.122 . S
C1385 C239 2.002 . S
C1370 C68 1.925 . S
C1420 C30 0.654 . S
C1435 C241 0.591 . S
