# Generated by pormake.
# Topology ctn, (3,4)-cn, num edge types: 1
# Building blocks:
#     Node 0, Type 0, BuildingBlock: PAMTOO_clean_linker_0, # of connection points: 3
#     Node 1, Type 0, BuildingBlock: PAMTOO_clean_linker_0, # of connection points: 3
#     Node 2, Type 0, BuildingBlock: PAMTOO_clean_linker_0, # of connection points: 3
#     Node 3, Type 0, BuildingBlock: PAMTOO_clean_linker_0, # of connection points: 3
#     Node 4, Type 0, BuildingBlock: PAMTOO_clean_linker_0, # of connection points: 3
#     Node 5, Type 0, BuildingBlock: PAMTOO_clean_linker_0, # of connection points: 3
#     Node 6, Type 0, BuildingBlock: PAMTOO_clean_linker_0, # of connection points: 3
#     Node 7, Type 0, BuildingBlock: PAMTOO_clean_linker_0, # of connection points: 3
#     Node 8, Type 0, BuildingBlock: PAMTOO_clean_linker_0, # of connection points: 3
#     Node 9, Type 0, BuildingBlock: PAMTOO_clean_linker_0, # of connection points: 3
#     Node 10, Type 0, BuildingBlock: PAMTOO_clean_linker_0, # of connection points: 3
#     Node 11, Type 0, BuildingBlock: PAMTOO_clean_linker_0, # of connection points: 3
#     Node 12, Type 0, BuildingBlock: PAMTOO_clean_linker_0, # of connection points: 3
#     Node 13, Type 0, BuildingBlock: PAMTOO_clean_linker_0, # of connection points: 3
#     Node 14, Type 0, BuildingBlock: PAMTOO_clean_linker_0, # of connection points: 3
#     Node 15, Type 0, BuildingBlock: PAMTOO_clean_linker_0, # of connection points: 3
#     Node 16, Type 1, BuildingBlock: NAHDIM_clean_sbu_0, # of connection points: 4
#     Node 17, Type 1, BuildingBlock: NAHDIM_clean_sbu_0, # of connection points: 4
#     Node 18, Type 1, BuildingBlock: NAHDIM_clean_sbu_0, # of connection points: 4
#     Node 19, Type 1, BuildingBlock: NAHDIM_clean_sbu_0, # of connection points: 4
#     Node 20, Type 1, BuildingBlock: NAHDIM_clean_sbu_0, # of connection points: 4
#     Node 21, Type 1, BuildingBlock: NAHDIM_clean_sbu_0, # of connection points: 4
#     Node 22, Type 1, BuildingBlock: NAHDIM_clean_sbu_0, # of connection points: 4
#     Node 23, Type 1, BuildingBlock: NAHDIM_clean_sbu_0, # of connection points: 4
#     Node 24, Type 1, BuildingBlock: NAHDIM_clean_sbu_0, # of connection points: 4
#     Node 25, Type 1, BuildingBlock: NAHDIM_clean_sbu_0, # of connection points: 4
#     Node 26, Type 1, BuildingBlock: NAHDIM_clean_sbu_0, # of connection points: 4
#     Node 27, Type 1, BuildingBlock: NAHDIM_clean_sbu_0, # of connection points: 4
#     Edge 28, Type (0, 1), BuildingBlock: KIFKEQ_clean_linker_1, # of connection points: 2
#     Edge 29, Type (0, 1), BuildingBlock: KIFKEQ_clean_linker_1, # of connection points: 2
#     Edge 30, Type (0, 1), BuildingBlock: KIFKEQ_clean_linker_1, # of connection points: 2
#     Edge 31, Type (0, 1), BuildingBlock: KIFKEQ_clean_linker_1, # of connection points: 2
#     Edge 32, Type (0, 1), BuildingBlock: KIFKEQ_clean_linker_1, # of connection points: 2
#     Edge 33, Type (0, 1), BuildingBlock: KIFKEQ_clean_linker_1, # of connection points: 2
#     Edge 34, Type (0, 1), BuildingBlock: KIFKEQ_clean_linker_1, # of connection points: 2
#     Edge 35, Type (0, 1), BuildingBlock: KIFKEQ_clean_linker_1, # of connection points: 2
#     Edge 36, Type (0, 1), BuildingBlock: KIFKEQ_clean_linker_1, # of connection points: 2
#     Edge 37, Type (0, 1), BuildingBlock: KIFKEQ_clean_linker_1, # of connection points: 2
#     Edge 38, Type (0, 1), BuildingBlock: KIFKEQ_clean_linker_1, # of connection points: 2
#     Edge 39, Type (0, 1), BuildingBlock: KIFKEQ_clean_linker_1, # of connection points: 2
#     Edge 40, Type (0, 1), BuildingBlock: KIFKEQ_clean_linker_1, # of connection points: 2
#     Edge 41, Type (0, 1), BuildingBlock: KIFKEQ_clean_linker_1, # of connection points: 2
#     Edge 42, Type (0, 1), BuildingBlock: KIFKEQ_clean_linker_1, # of connection points: 2
#     Edge 43, Type (0, 1), BuildingBlock: KIFKEQ_clean_linker_1, # of connection points: 2
#     Edge 44, Type (0, 1), BuildingBlock: KIFKEQ_clean_linker_1, # of connection points: 2
#     Edge 45, Type (0, 1), BuildingBlock: KIFKEQ_clean_linker_1, # of connection points: 2
#     Edge 46, Type (0, 1), BuildingBlock: KIFKEQ_clean_linker_1, # of connection points: 2
#     Edge 47, Type (0, 1), BuildingBlock: KIFKEQ_clean_linker_1, # of connection points: 2
#     Edge 48, Type (0, 1), BuildingBlock: KIFKEQ_clean_linker_1, # of connection points: 2
#     Edge 49, Type (0, 1), BuildingBlock: KIFKEQ_clean_linker_1, # of connection points: 2
#     Edge 50, Type (0, 1), BuildingBlock: KIFKEQ_clean_linker_1, # of connection points: 2
#     Edge 51, Type (0, 1), BuildingBlock: KIFKEQ_clean_linker_1, # of connection points: 2
#     Edge 52, Type (0, 1), BuildingBlock: KIFKEQ_clean_linker_1, # of connection points: 2
#     Edge 53, Type (0, 1), BuildingBlock: KIFKEQ_clean_linker_1, # of connection points: 2
#     Edge 54, Type (0, 1), BuildingBlock: KIFKEQ_clean_linker_1, # of connection points: 2
#     Edge 55, Type (0, 1), BuildingBlock: KIFKEQ_clean_linker_1, # of connection points: 2
#     Edge 56, Type (0, 1), BuildingBlock: KIFKEQ_clean_linker_1, # of connection points: 2
#     Edge 57, Type (0, 1), BuildingBlock: KIFKEQ_clean_linker_1, # of connection points: 2
#     Edge 58, Type (0, 1), BuildingBlock: KIFKEQ_clean_linker_1, # of connection points: 2
#     Edge 59, Type (0, 1), BuildingBlock: KIFKEQ_clean_linker_1, # of connection points: 2
#     Edge 60, Type (0, 1), BuildingBlock: KIFKEQ_clean_linker_1, # of connection points: 2
#     Edge 61, Type (0, 1), BuildingBlock: KIFKEQ_clean_linker_1, # of connection points: 2
#     Edge 62, Type (0, 1), BuildingBlock: KIFKEQ_clean_linker_1, # of connection points: 2
#     Edge 63, Type (0, 1), BuildingBlock: KIFKEQ_clean_linker_1, # of connection points: 2
#     Edge 64, Type (0, 1), BuildingBlock: KIFKEQ_clean_linker_1, # of connection points: 2
#     Edge 65, Type (0, 1), BuildingBlock: KIFKEQ_clean_linker_1, # of connection points: 2
#     Edge 66, Type (0, 1), BuildingBlock: KIFKEQ_clean_linker_1, # of connection points: 2
#     Edge 67, Type (0, 1), BuildingBlock: KIFKEQ_clean_linker_1, # of connection points: 2
#     Edge 68, Type (0, 1), BuildingBlock: KIFKEQ_clean_linker_1, # of connection points: 2
#     Edge 69, Type (0, 1), BuildingBlock: KIFKEQ_clean_linker_1, # of connection points: 2
#     Edge 70, Type (0, 1), BuildingBlock: KIFKEQ_clean_linker_1, # of connection points: 2
#     Edge 71, Type (0, 1), BuildingBlock: KIFKEQ_clean_linker_1, # of connection points: 2
#     Edge 72, Type (0, 1), BuildingBlock: KIFKEQ_clean_linker_1, # of connection points: 2
#     Edge 73, Type (0, 1), BuildingBlock: KIFKEQ_clean_linker_1, # of connection points: 2
#     Edge 74, Type (0, 1), BuildingBlock: KIFKEQ_clean_linker_1, # of connection points: 2
#     Edge 75, Type (0, 1), BuildingBlock: KIFKEQ_clean_linker_1, # of connection points: 2
# Relax obj value: 0.063
# Max RMSD: 0.181
# Mean RMSD: 0.112
data_MOF--net-ctn--node1-NAHDIM_clean_sbu_0--node2-PAMTOO_clean_linker_0--edge1-KIFKEQ_clean_linker_1
_symmetry_space_group_name_H-M    P1
_symmetry_Int_Tables_number       1
_symmetry_cell_setting            triclinic
loop_
_symmetry_equiv_pos_as_xyz
'x, y, z'
_cell_length_a     54.402234
_cell_length_b     55.050077
_cell_length_c     55.404532
_cell_angle_alpha  86.113576
_cell_angle_beta   92.300662
_cell_angle_gamma 99.6876
loop_
_atom_site_label
_atom_site_type_symbol
_atom_site_fract_x
_atom_site_fract_y
_atom_site_fract_z
_atom_type_partial_charge
H0 H 0.00908 0.09508 0.05422 0.0
H1 H 0.04358 0.03269 0.07947 0.0
H2 H 0.06053 0.06847 0.00954 0.0
H3 H 0.05007 0.0145 0.0122 0.0
C4 C 0.06053 0.01076 0.02937 0.0
O5 O 0.06893 0.03251 0.04032 0.0
H6 H 0.04752 0.99825 0.0415 0.0
C7 C 0.02159 0.0822 0.05147 0.0
C8 C 0.03439 0.08413 0.02972 0.0
C9 C 0.02477 0.06382 0.06967 0.0
C10 C 0.04079 0.047 0.06571 0.0
C11 C 0.0536 0.04875 0.04405 0.0
C12 C 0.0506 0.06741 0.02624 0.0
H13 H 0.31172 0.68679 0.26781 0.0
H14 H 0.27174 0.70412 0.20198 0.0
H15 H 0.33036 0.75802 0.22941 0.0
H16 H 0.28993 0.78049 0.20846 0.0
C17 C 0.28108 0.76589 0.19647 0.0
O18 O 0.29667 0.74872 0.19497 0.0
H19 H 0.26308 0.75671 0.20432 0.0
C20 C 0.30849 0.69983 0.25296 0.0
C21 C 0.32354 0.7233 0.25096 0.0
C22 C 0.28989 0.69267 0.23528 0.0
C23 C 0.28613 0.70927 0.21567 0.0
C24 C 0.30063 0.73278 0.21377 0.0
C25 C 0.31936 0.7397 0.2312 0.0
H26 H 0.97326 0.50917 0.09455 0.0
H27 H 0.95597 0.47825 0.02533 0.0
H28 H 0.01611 0.45713 0.06924 0.0
H29 H 0.02535 0.46476 0.0185 0.0
C30 C 0.00666 0.45698 0.01086 0.0
O31 O 0.99009 0.45003 0.02927 0.0
H32 H 0.99996 0.47152 0.99861 0.0
C33 C 0.97732 0.49745 0.08081 0.0
C34 C 0.99685 0.48357 0.08486 0.0
C35 C 0.96246 0.49584 0.05938 0.0
C36 C 0.96701 0.47974 0.04205 0.0
C37 C 0.98616 0.46575 0.04588 0.0
C38 C 1.00104 0.46774 0.06706 0.0
H39 H 0.71274 0.83861 0.25702 0.0
H40 H 0.69122 0.76683 0.22875 0.0
H41 H 0.75697 0.81415 0.20355 0.0
H42 H 0.72095 0.79085 0.16699 0.0
C43 C 0.7182 0.77177 0.17565 0.0
O44 O 0.72805 0.77186 0.199 0.0
H45 H 0.6978 0.76479 0.17616 0.0
C46 C 0.7163 0.82451 0.24551 0.0
C47 C 0.7371 0.82924 0.23057 0.0
C48 C 0.69955 0.80207 0.2451 0.0
C49 C 0.70373 0.78432 0.22932 0.0
C50 C 0.72427 0.7889 0.21428 0.0
C51 C 0.74096 0.81114 0.21505 0.0
H52 H 0.09018 0.96636 0.50818 0.0
H53 H 0.0211 0.94655 0.4679 0.0
H54 H 0.07294 0.01004 0.44407 0.0
H55 H 0.02192 0.01784 0.44286 0.0
C56 C 0.01218 0.99927 0.4381 0.0
O57 O 0.02934 0.98378 0.43596 0.0
H58 H 0.99921 0.99161 0.45281 0.0
C59 C 0.07793 0.96962 0.49283 0.0
C60 C 0.08465 0.99023 0.47652 0.0
C61 C 0.05506 0.95364 0.48996 0.0
C62 C 0.03874 0.95864 0.47063 0.0
C63 C 0.0452 0.97907 0.45439 0.0
C64 C 0.06813 0.9946 0.45715 0.0
H65 H 0.18645 0.77312 0.81187 0.0
H66 H 0.20562 0.71667 0.76946 0.0
H67 H 0.25312 0.74202 0.82924 0.0
H68 H 0.27963 0.73327 0.78731 0.0
C69 C 0.26633 0.71774 0.77989 0.0
O70 O 0.24617 0.71145 0.79471 0.0
H71 H 0.25993 0.724 0.76153 0.0
C72 C 0.19893 0.76048 0.80829 0.0
C73 C 0.22041 0.75963 0.82316 0.0
C74 C 0.19342 0.74527 0.78872 0.0
C75 C 0.20961 0.72881 0.78423 0.0
C76 C 0.23095 0.72764 0.79896 0.0
C77 C 0.23631 0.74296 0.81831 0.0
H78 H 0.95095 0.5644 0.51562 0.0
H79 H 0.978 0.52734 0.45854 0.0
H80 H 0.02355 0.5909 0.48666 0.0
H81 H 0.0317 0.58786 0.43489 0.0
C82 C 0.02287 0.56829 0.43326 0.0
O83 O 0.02094 0.55637 0.45601 0.0
H84 H 0.00396 0.56807 0.42467 0.0
C85 C 0.96513 0.56314 0.50279 0.0
C86 C 0.9874 0.58035 0.50287 0.0
C87 C 0.96142 0.54379 0.48699 0.0
C88 C 0.98043 0.54184 0.47112 0.0
C89 C 1.00273 0.55874 0.47115 0.0
C90 C 0.00625 0.57785 0.48702 0.0
H91 H 0.76869 0.80575 0.85278 0.0
H92 H 0.82759 0.77281 0.82535 0.0
H93 H 0.79695 0.82818 0.78169 0.0
H94 H 0.80874 0.78815 0.75355 0.0
C95 C 0.82298 0.7815 0.76614 0.0
O96 O 0.82946 0.7981 0.78383 0.0
H97 H 0.81467 0.76311 0.77442 0.0
C98 C 0.78134 0.80427 0.83854 0.0
C99 C 0.78077 0.81934 0.817 0.0
C100 C 0.79802 0.78725 0.84183 0.0
C101 C 0.81434 0.78551 0.82321 0.0
C102 C 0.81383 0.80022 0.80165 0.0
C103 C 0.79722 0.81712 0.7986 0.0
H104 H 0.26816 0.30608 0.35332 0.0
H105 H 0.32563 0.27025 0.32735 0.0
H106 H 0.29768 0.32645 0.28237 0.0
H107 H 0.30847 0.28512 0.25587 0.0
C108 C 0.32311 0.27888 0.26824 0.0
O109 O 0.3295 0.29564 0.28581 0.0
H110 H 0.31536 0.26042 0.27673 0.0
C111 C 0.28048 0.30361 0.33912 0.0
C112 C 0.2806 0.31839 0.31735 0.0
C113 C 0.29657 0.2861 0.34304 0.0
C114 C 0.31324 0.28376 0.32493 0.0
C115 C 0.31357 0.29832 0.30319 0.0
C116 C 0.29737 0.31558 0.29944 0.0
H117 H 0.47371 0.01407 0.59825 0.0
H118 H 0.45319 0.98583 0.52827 0.0
H119 H 0.50822 0.95589 0.57297 0.0
H120 H 0.51959 0.96641 0.52125 0.0
C121 C 0.50056 0.96053 0.5133 0.0
O122 O 0.48372 0.9538 0.5315 0.0
H123 H 0.49539 0.97649 0.50197 0.0
C124 C 0.47571 1.00153 0.58448 0.0
C125 C 0.49282 0.98501 0.5884 0.0
C126 C 0.46118 0.00202 0.5629 0.0
C127 C 0.46393 0.98564 0.54516 0.0
C128 C 0.48104 0.96929 0.54878 0.0
C129 C 0.49533 0.96892 0.57033 0.0
H130 H 0.2181 0.34681 0.75486 0.0
H131 H 0.19388 0.27325 0.73181 0.0
H132 H 0.25875 0.31793 0.70128 0.0
H133 H 0.2176 0.29058 0.66928 0.0
C134 C 0.2181 0.27224 0.67896 0.0
O135 O 0.22984 0.27506 0.70138 0.0
H136 H 0.19846 0.26299 0.68135 0.0
C137 C 0.2203 0.33214 0.74345 0.0
C138 C 0.24051 0.33536 0.72785 0.0
C139 C 0.20327 0.3099 0.74504 0.0
C140 C 0.20686 0.29051 0.73101 0.0
C141 C 0.22682 0.29354 0.71528 0.0
C142 C 0.24358 0.31584 0.71375 0.0
H143 H 0.80615 0.18675 0.76713 0.0
H144 H 0.76246 0.20785 0.70506 0.0
H145 H 0.82341 0.25961 0.73184 0.0
H146 H 0.77894 0.28126 0.71637 0.0
C147 C 0.7712 0.26835 0.7023 0.0
O148 O 0.78764 0.2524 0.69903 0.0
H149 H 0.75308 0.25782 0.70866 0.0
C150 C 0.80218 0.2005 0.75325 0.0
C151 C 0.81737 0.2239 0.7517 0.0
C152 C 0.78237 0.19441 0.73646 0.0
C153 C 0.7778 0.21203 0.71802 0.0
C154 C 0.79253 0.23545 0.71655 0.0
C155 C 0.8123 0.24132 0.73321 0.0
H156 H 0.51199 0.59184 0.55619 0.0
H157 H 0.54854 0.52915 0.57465 0.0
H158 H 0.56261 0.57059 0.50688 0.0
H159 H 0.55551 0.51709 0.5043 0.0
C160 C 0.56434 0.51193 0.52196 0.0
O161 O 0.57263 0.53279 0.53437 0.0
H162 H 0.54999 0.49927 0.53258 0.0
C163 C 0.52464 0.57965 0.55176 0.0
C164 C 0.53679 0.58375 0.52959 0.0
C165 C 0.5287 0.5601 0.56831 0.0
C166 C 0.54496 0.54428 0.5622 0.0
C167 C 0.55703 0.54809 0.54007 0.0
C168 C 0.55315 0.56789 0.52394 0.0
H169 H 0.59123 0.46586 0.01338 0.0
H170 H 0.52467 0.44989 0.96843 0.0
H171 H 0.57618 0.51674 0.95423 0.0
H172 H 0.52355 0.52245 0.95085 0.0
C173 C 0.51508 0.50397 0.94473 0.0
O174 O 0.53377 0.49062 0.94104 0.0
H175 H 0.5026 0.49432 0.95908 0.0
C176 C 0.57948 0.4708 0.9982 0.0
C177 C 0.58669 0.49309 0.9844 0.0
C178 C 0.55711 0.45499 0.99272 0.0
C179 C 0.54192 0.46178 0.97313 0.0
C180 C 0.54885 0.484 0.95941 0.0
C181 C 0.57123 0.49947 0.96488 0.0
H182 H 0.68697 0.27908 0.30936 0.0
H183 H 0.70435 0.21955 0.26998 0.0
H184 H 0.75172 0.24595 0.32957 0.0
H185 H 0.7787 0.23513 0.28846 0.0
C186 C 0.76486 0.22011 0.28088 0.0
O187 O 0.74464 0.21445 0.29569 0.0
H188 H 0.75876 0.22687 0.26258 0.0
C189 C 0.69883 0.2656 0.30661 0.0
C190 C 0.71995 0.26454 0.32188 0.0
C191 C 0.6929 0.2495 0.28779 0.0
C192 C 0.70856 0.23225 0.28426 0.0
C193 C 0.72968 0.23106 0.29932 0.0
C194 C 0.73522 0.24699 0.31818 0.0
H195 H 0.44871 0.06063 0.02065 0.0
H196 H 0.47287 0.02204 0.96327 0.0
H197 H 0.52013 0.08613 0.98875 0.0
H198 H 0.52399 0.08272 0.93604 0.0
C199 C 0.51624 0.06279 0.93501 0.0
O200 O 0.5155 0.0514 0.95801 0.0
H201 H 0.497 0.06121 0.92689 0.0
C202 C 0.46271 0.05859 0.0079 0.0
C203 C 0.48499 0.07575 0.00686 0.0
C204 C 0.45805 0.03913 0.99231 0.0
C205 C 0.47591 0.03709 0.97526 0.0
C206 C 0.49813 0.05409 0.97396 0.0
C207 C 0.50267 0.07335 0.9897 0.0
C208 C 0.20338 0.92447 0.99064 0.0
O209 O 0.2068 0.9195 0.96828 0.0
O210 O 0.23784 0.87747 0.97346 0.0
Zn211 Zn 0.24503 0.8977 0.00295 0.0
O212 O 0.2776 0.9215 0.99882 0.0
C213 C 0.25419 0.85445 0.03407 0.0
O214 O 0.26048 0.84605 0.01399 0.0
O215 O 0.21736 0.91713 0.00758 0.0
C216 C 0.29756 0.91772 0.01012 0.0
O217 O 0.29705 0.89799 0.02491 0.0
C218 C 0.25561 0.87057 0.9629 0.0
O219 O 0.27859 0.87695 0.97123 0.0
O220 O 0.24706 0.87535 0.03335 0.0
C221 C 0.16522 0.44533 0.29753 0.0
O222 O 0.15366 0.45047 0.31643 0.0
O223 O 0.12431 0.49062 0.30197 0.0
Zn224 Zn 0.14433 0.48661 0.27283 0.0
O225 O 0.16964 0.51773 0.26747 0.0
C226 C 0.1122 0.50072 0.2335 0.0
O227 O 0.1195 0.52265 0.2418 0.0
O228 O 0.16328 0.45782 0.27757 0.0
C229 C 0.17826 0.52616 0.24704 0.0
O230 O 0.17075 0.51422 0.22763 0.0
C231 C 0.13365 0.5048 0.31838 0.0
O232 O 0.15707 0.51552 0.31704 0.0
O233 O 0.12038 0.48219 0.24383 0.0
C234 C 0.82785 0.60058 0.02152 0.0
O235 O 0.8139 0.59712 1.00173 0.0
O236 O 0.80128 0.65859 0.99887 0.0
Zn237 Zn 0.79439 0.63459 0.02809 0.0
O238 O 0.76358 0.6099 0.02018 0.0
C239 C 0.79706 0.67518 0.06015 0.0
O240 O 0.81349 0.68692 0.04487 0.0
O241 O 0.82333 0.6163 0.03583 0.0
C242 C 0.74238 0.61159 0.02818 0.0
O243 O 0.74053 0.62958 0.04207 0.0
C244 C 0.78573 0.67305 0.99323 0.0
O245 O 0.76624 0.67204 0.00674 0.0
O246 O 0.78746 0.65289 0.0569 0.0
C247 C 0.84999 0.0714 0.26889 0.0
O248 O 0.85066 0.05531 0.28744 0.0
O249 O 0.89948 0.0358 0.27878 0.0
Zn250 Zn 0.87851 0.03904 0.24824 0.0
O251 O 0.85319 0.00784 0.24618 0.0
C252 C 0.92154 0.05685 0.2184 0.0
O253 O 0.92967 0.06957 0.23719 0.0
O254 O 0.86075 0.06833 0.24963 0.0
C255 C 0.85776 0.99009 0.23448 0.0
O256 O 0.87904 0.99244 0.22345 0.0
C257 C 0.91647 0.02245 0.28015 0.0
O258 O 0.92071 0.01093 0.26113 0.0
O259 O 0.90024 0.04319 0.21902 0.0
C260 C 0.33844 0.12093 0.53318 0.0
O261 O 0.34545 0.1431 0.52288 0.0
O262 O 0.29647 0.15829 0.50087 0.0
Zn263 Zn 0.28791 0.13355 0.52936 0.0
O264 O 0.25692 0.1093 0.52118 0.0
C265 C 0.29355 0.17053 0.56567 0.0
O266 O 0.31477 0.17908 0.55519 0.0
O267 O 0.31555 0.11374 0.53772 0.0
C268 C 0.24568 0.10881 0.50059 0.0
O269 O 0.25444 0.1247 0.483 0.0
C270 C 0.28361 0.17553 0.49704 0.0
O271 O 0.26576 0.17688 0.51194 0.0
O272 O 0.27992 0.15132 0.55807 0.0
C273 C 0.35707 0.5724 0.77048 0.0
O274 O 0.35719 0.55597 0.78881 0.0
O275 O 0.40841 0.53762 0.77998 0.0
Zn276 Zn 0.38718 0.5412 0.74953 0.0
O277 O 0.36203 0.50991 0.74558 0.0
C278 C 0.42828 0.53632 0.72 0.0
O279 O 0.43224 0.52019 0.73771 0.0
O280 O 0.36874 0.56994 0.75159 0.0
C281 C 0.36286 0.49518 0.729 0.0
O282 O 0.38049 0.50037 0.71306 0.0
C283 C 0.40336 0.51978 0.79578 0.0
O284 O 0.38332 0.50318 0.79264 0.0
O285 O 0.40994 0.54778 0.72105 0.0
C286 C 0.70883 0.4246 0.49117 0.0
O287 O 0.71438 0.42118 0.46892 0.0
O288 O 0.74413 0.37644 0.4768 0.0
Zn289 Zn 0.75093 0.3993 0.50425 0.0
O290 O 0.78192 0.42442 0.49793 0.0
C291 C 0.73958 0.36322 0.5443 0.0
O292 O 0.71746 0.35969 0.53346 0.0
O293 O 0.72176 0.41679 0.50872 0.0
C294 C 0.80321 0.41846 0.50294 0.0
O295 O 0.80448 0.39599 0.51195 0.0
C296 C 0.75261 0.38282 0.45584 0.0
O297 O 0.76556 0.40502 0.4518 0.0
O298 O 0.75678 0.37925 0.53507 0.0
C299 C 0.66285 0.94404 0.79933 0.0
O300 O 0.6503 0.94815 0.81798 0.0
O301 O 0.62097 0.9886 0.80366 0.0
Zn302 Zn 0.64125 0.98498 0.77452 0.0
O303 O 0.66563 0.01675 0.76853 0.0
C304 C 0.59996 0.99168 0.74217 0.0
O305 O 0.59716 0.00758 0.75807 0.0
O306 O 0.66126 0.95702 0.77961 0.0
C307 C 0.66661 0.03024 0.74891 0.0
O308 O 0.65131 0.02341 0.73076 0.0
C309 C 0.62972 0.00351 0.81966 0.0
O310 O 0.65275 0.01526 0.81796 0.0
O311 O 0.61771 0.97931 0.74541 0.0
C312 C 0.00782 0.22127 0.90603 0.0
O313 O 0.99321 0.21677 0.88684 0.0
O314 O 0.98535 0.26303 0.86263 0.0
Zn315 Zn 0.01586 0.27144 0.88429 0.0
O316 O 0.01314 0.30196 0.90172 0.0
C317 C 0.06001 0.29709 0.8586 0.0
O318 O 0.05527 0.31698 0.86808 0.0
O319 O 0.019 0.24317 0.90878 0.0
C320 C 0.02769 0.30864 0.91946 0.0
O321 O 0.04527 0.29571 0.92622 0.0
C322 C 0.96347 0.2642 0.86915 0.0
O323 O 0.96033 0.27104 0.89092 0.0
O324 O 0.04598 0.27653 0.86323 0.0
C325 C 0.50884 0.73649 0.42779 0.0
O326 O 0.4925 0.74955 0.43455 0.0
O327 O 0.48671 0.76771 0.36712 0.0
Zn328 Zn 0.51701 0.77499 0.38927 0.0
O329 O 0.51373 0.80199 0.41136 0.0
C330 C 0.55104 0.76917 0.35379 0.0
O331 O 0.53558 0.74811 0.35309 0.0
O332 O 0.52141 0.74388 0.40908 0.0
C333 C 0.5082 0.82257 0.40312 0.0
O334 O 0.50462 0.82636 0.37967 0.0
C335 C 0.46452 0.76856 0.37291 0.0
O336 O 0.46039 0.77484 0.39466 0.0
O337 O 0.54706 0.78478 0.36846 0.0
C338 C 0.00666 0.80084 0.60084 0.0
O339 O 0.98498 0.78666 0.59746 0.0
O340 O 0.98058 0.76756 0.65703 0.0
Zn341 Zn 0.01072 0.76345 0.63848 0.0
O342 O 1.00263 0.73501 0.61656 0.0
C343 C 0.04482 0.77009 0.68005 0.0
O344 O 0.03167 0.78714 0.68456 0.0
O345 O 0.02132 0.79467 0.61773 0.0
C346 C 0.00957 0.71432 0.62197 0.0
O347 O 0.02138 0.711 0.64277 0.0
C348 C 0.9723 0.75288 0.67467 0.0
O349 O 0.98339 0.73388 0.681 0.0
O350 O 0.0392 0.75775 0.66147 0.0
C351 C 0.5057 0.29925 0.09876 0.0
O352 O 0.4846 0.28449 0.09441 0.0
O353 O 0.47892 0.26627 0.15599 0.0
Zn354 Zn 0.50926 0.26256 0.13745 0.0
O355 O 0.50188 0.23392 0.11578 0.0
C356 C 0.54405 0.27104 0.17815 0.0
O357 O 0.53141 0.28881 0.18154 0.0
O358 O 0.5196 0.29371 0.11656 0.0
C359 C 0.50739 0.21289 0.12248 0.0
O360 O 0.51704 0.20951 0.14432 0.0
C361 C 0.4718 0.25235 0.17453 0.0
O362 O 0.48417 0.23447 0.18168 0.0
O363 O 0.53784 0.25746 0.16052 0.0
H364 H 0.24056 0.74919 0.86821 0.0
H365 H 0.21331 0.80776 0.82456 0.0
H366 H 0.24943 0.77627 0.90168 0.0
H367 H 0.22129 0.83432 0.85841 0.0
H368 H 0.21272 0.86145 0.93508 0.0
H369 H 0.20449 0.83471 0.90114 0.0
H370 H 0.27864 0.8167 0.91031 0.0
H371 H 0.28702 0.84352 0.94405 0.0
C372 C 0.2366 0.76783 0.86563 0.0
C373 C 0.22612 0.77618 0.84361 0.0
C374 C 0.24158 0.78329 0.88488 0.0
C375 C 0.23592 0.80733 0.88266 0.0
C376 C 0.2255 0.81574 0.86072 0.0
C377 C 0.22084 0.80043 0.84137 0.0
C378 C 0.22726 0.8518 0.92983 0.0
C379 C 0.25052 0.85461 0.94222 0.0
C380 C 0.22258 0.8366 0.91036 0.0
C381 C 0.24093 0.82363 0.90315 0.0
C382 C 0.26411 0.82634 0.91562 0.0
C383 C 0.26893 0.84181 0.93483 0.0
H384 H 0.07016 0.55889 0.44326 0.0
H385 H 0.01159 0.55094 0.38815 0.0
H386 H 0.09687 0.54083 0.41748 0.0
H387 H 0.03837 0.53367 0.36198 0.0
H388 H 0.08467 0.48577 0.32697 0.0
H389 H 0.05788 0.49865 0.35625 0.0
H390 H 0.11976 0.55175 0.38137 0.0
H391 H 0.14663 0.53838 0.35268 0.0
C392 C 0.06302 0.55313 0.42565 0.0
C393 C 0.03879 0.55607 0.41777 0.0
C394 C 0.07832 0.54297 0.4108 0.0
C395 C 0.06981 0.53576 0.3876 0.0
C396 C 0.04543 0.53858 0.37986 0.0
C397 C 0.03011 0.54862 0.39477 0.0
C398 C 0.09261 0.50001 0.33893 0.0
C399 C 0.11778 0.51111 0.3374 0.0
C400 C 0.0772 0.50752 0.35561 0.0
C401 C 0.08657 0.52638 0.3711 0.0
C402 C 0.11193 0.53697 0.36998 0.0
C403 C 0.12735 0.52938 0.35339 0.0
H404 H 0.80272 0.73832 0.84664 0.0
H405 H 0.79349 0.79948 0.88846 0.0
H406 H 0.80147 0.7115 0.8836 0.0
H407 H 0.79187 0.77252 0.92535 0.0
H408 H 0.75845 0.70915 0.97929 0.0
H409 H 0.76288 0.73711 0.94317 0.0
H410 H 0.82516 0.70478 0.92205 0.0
H411 H 0.82063 0.67653 0.95821 0.0
C412 C 0.80072 0.74614 0.86373 0.0
C413 C 0.7981 0.77107 0.86451 0.0
C414 C 0.79998 0.73074 0.88492 0.0
C415 C 0.79648 0.73986 0.9074 0.0
C416 C 0.79421 0.76485 0.90826 0.0
C417 C 0.79508 0.78028 0.88709 0.0
C418 C 0.77315 0.70801 0.96701 0.0
C419 C 0.78914 0.69055 0.97162 0.0
C420 C 0.77578 0.72417 0.94637 0.0
C421 C 0.79438 0.72318 0.92975 0.0
C422 C 0.8105 0.70583 0.93441 0.0
C423 C 0.80798 0.68975 0.95518 0.0
H424 H 0.03117 0.012 0.39317 0.0
H425 H 0.9615 0.99376 0.43008 0.0
H426 H 0.00836 0.0179 0.35478 0.0
H427 H 0.93864 0.99955 0.39179 0.0
H428 H 0.909 0.03944 0.32408 0.0
H429 H 0.93231 0.03383 0.36201 0.0
H430 H 0.97976 0.99295 0.32614 0.0
H431 H 0.95659 0.99868 0.28812 0.0
C432 C 0.01096 0.00904 0.39295 0.0
C433 C 0.99805 0.00208 0.41443 0.0
C434 C 0.99792 0.01237 0.37104 0.0
C435 C 0.97171 0.00914 0.37027 0.0
C436 C 0.95884 0.00238 0.39185 0.0
C437 C 0.97188 0.99889 0.41371 0.0
C438 C 0.92444 0.02931 0.32425 0.0
C439 C 0.93092 0.01948 0.30307 0.0
C440 C 0.93769 0.02597 0.34602 0.0
C441 C 0.95782 0.01289 0.34707 0.0
C442 C 0.96448 0.0033 0.32584 0.0
C443 C 0.95111 0.00648 0.3041 0.0
H444 H 0.21601 0.22218 0.68283 0.0
H445 H 0.25058 0.28782 0.64232 0.0
H446 H 0.23624 0.19678 0.6578 0.0
H447 H 0.27029 0.26261 0.61678 0.0
H448 H 0.31747 0.21241 0.58607 0.0
H449 H 0.30125 0.2363 0.61546 0.0
H450 H 0.23248 0.18394 0.61704 0.0
H451 H 0.24889 0.1598 0.58823 0.0
C452 C 0.22795 0.23109 0.66851 0.0
C453 C 0.23144 0.25683 0.66417 0.0
C454 C 0.23943 0.21661 0.6541 0.0
C455 C 0.25474 0.22761 0.63509 0.0
C456 C 0.25883 0.2535 0.63135 0.0
C457 C 0.2474 0.26796 0.64582 0.0
C458 C 0.29898 0.20588 0.59287 0.0
C459 C 0.28447 0.18422 0.58471 0.0
C460 C 0.28961 0.21967 0.60961 0.0
C461 C 0.26549 0.21214 0.61857 0.0
C462 C 0.25125 0.19015 0.61081 0.0
C463 C 0.26062 0.17636 0.59414 0.0
H464 H 0.5209 0.59533 0.59837 0.0
H465 H 0.50733 0.51644 0.59145 0.0
H466 H 0.49743 0.58963 0.63543 0.0
H467 H 0.48415 0.51076 0.62885 0.0
H468 H 0.4646 0.51028 0.70919 0.0
H469 H 0.49008 0.51592 0.67331 0.0
H470 H 0.45309 0.5762 0.64622 0.0
H471 H 0.4277 0.57072 0.68209 0.0
C472 C 0.51284 0.57677 0.6047 0.0
C473 C 0.5158 0.55636 0.59178 0.0
C474 C 0.49943 0.57352 0.62596 0.0
C475 C 0.4888 0.54977 0.63495 0.0
C476 C 0.49231 0.52928 0.62246 0.0
C477 C 0.50563 0.53254 0.60107 0.0
C478 C 0.46196 0.5248 0.69563 0.0
C479 C 0.44413 0.54007 0.69851 0.0
C480 C 0.47646 0.52792 0.67502 0.0
C481 C 0.4736 0.5465 0.65697 0.0
C482 C 0.45592 0.5619 0.65995 0.0
C483 C 0.44129 0.55867 0.68045 0.0
H484 H 0.78948 0.31661 0.68849 0.0
H485 H 0.74356 0.25117 0.66299 0.0
H486 H 0.78186 0.33928 0.65021 0.0
H487 H 0.73632 0.27353 0.62435 0.0
H488 H 0.70661 0.32901 0.56991 0.0
H489 H 0.71447 0.30608 0.60784 0.0
H490 H 0.79157 0.34172 0.60791 0.0
H491 H 0.78359 0.36505 0.57029 0.0
C492 C 0.77778 0.30712 0.6746 0.0
C493 C 0.76679 0.28231 0.67869 0.0
C494 C 0.77355 0.32 0.65263 0.0
C495 C 0.7584 0.30825 0.63422 0.0
C496 C 0.74773 0.28326 0.63827 0.0
C497 C 0.75193 0.27041 0.66028 0.0
C498 C 0.72524 0.33195 0.57801 0.0
C499 C 0.74444 0.34892 0.5671 0.0
C500 C 0.72979 0.31869 0.59969 0.0
C501 C 0.75365 0.32207 0.61095 0.0
C502 C 0.77289 0.33893 0.59992 0.0
C503 C 0.76833 0.35221 0.57827 0.0
H504 H 0.4778 0.98739 0.63464 0.0
H505 H 0.54247 0.98189 0.59389 0.0
H506 H 0.50305 0.98774 0.67202 0.0
H507 H 0.56778 0.98238 0.63125 0.0
H508 H 0.60089 0.96118 0.70519 0.0
H509 H 0.57448 0.95832 0.66849 0.0
H510 H 0.53596 0.01452 0.69234 0.0
H511 H 0.56191 0.01698 0.72919 0.0
C512 C 0.49746 0.98642 0.63365 0.0
C513 C 0.50813 0.9847 0.61126 0.0
C514 C 0.51194 0.98662 0.65508 0.0
C515 C 0.53749 0.98515 0.65467 0.0
C516 C 0.5481 0.98317 0.6323 0.0
C517 C 0.53359 0.98292 0.61086 0.0
C518 C 0.5867 0.97283 0.70265 0.0
C519 C 0.58353 0.98931 0.72015 0.0
C520 C 0.57166 0.97131 0.68153 0.0
C521 C 0.5531 0.98622 0.67741 0.0
C522 C 0.54982 0.00251 0.69505 0.0
C523 C 0.56482 0.00402 0.71614 0.0
H524 H 0.81861 0.21277 0.80066 0.0
H525 H 0.86421 0.24889 0.74232 0.0
H526 H 0.85381 0.22204 0.82913 0.0
H527 H 0.89905 0.25901 0.77091 0.0
H528 H 0.96362 0.24837 0.82346 0.0
H529 H 0.92822 0.23851 0.7955 0.0
H530 H 0.87899 0.25672 0.8483 0.0
H531 H 0.91438 0.26613 0.87653 0.0
C532 C 0.83615 0.22268 0.79391 0.0
C533 C 0.83861 0.23004 0.7692 0.0
C534 C 0.85623 0.22824 0.81028 0.0
C535 C 0.87926 0.24125 0.80231 0.0
C536 C 0.88167 0.24871 0.77762 0.0
C537 C 0.8616 0.24317 0.76127 0.0
C538 C 0.94525 0.25026 0.82915 0.0
C539 C 0.94185 0.25808 0.85224 0.0
C540 C 0.92496 0.24474 0.81304 0.0
C541 C 0.90077 0.24691 0.81961 0.0
C542 C 0.89734 0.25459 0.84277 0.0
C543 C 0.91765 0.26011 0.8589 0.0
H544 H 0.53176 0.92613 0.51696 0.0
H545 H 0.46891 0.94648 0.47528 0.0
H546 H 0.53283 0.89232 0.49078 0.0
H547 H 0.46945 0.91235 0.4493 0.0
H548 H 0.49785 0.86891 0.3913 0.0
H549 H 0.49516 0.90132 0.41843 0.0
H550 H 0.51031 0.85272 0.47975 0.0
H551 H 0.51353 0.82044 0.45256 0.0
C552 C 0.51813 0.92323 0.5022 0.0
C553 C 0.50058 0.93912 0.49776 0.0
C554 C 0.51858 0.90379 0.48732 0.0
C555 C 0.50134 0.8997 0.46779 0.0
C556 C 0.48331 0.91525 0.46386 0.0
C557 C 0.48289 0.9347 0.47875 0.0
C558 C 0.50058 0.8651 0.41057 0.0
C559 C 0.506 0.84209 0.41973 0.0
C560 C 0.49887 0.88366 0.42616 0.0
C561 C 0.50251 0.87966 0.4513 0.0
C562 C 0.50773 0.85656 0.46047 0.0
C563 C 0.50945 0.838 0.44487 0.0
H564 H 0.17234 0.34323 0.75036 0.0
H565 H 0.18555 0.27065 0.77623 0.0
H566 H 0.13785 0.3398 0.77774 0.0
H567 H 0.15119 0.26729 0.80398 0.0
H568 H 0.07234 0.26037 0.8329 0.0
H569 H 0.10648 0.26307 0.8052 0.0
H570 H 0.13017 0.33967 0.82007 0.0
H571 H 0.0956 0.33715 0.84725 0.0
C572 C 0.16796 0.3266 0.76206 0.0
C573 C 0.18174 0.30726 0.76123 0.0
C574 C 0.14823 0.32465 0.77781 0.0
C575 C 0.14182 0.30335 0.79323 0.0
C576 C 0.15542 0.28385 0.79217 0.0
C577 C 0.17512 0.28576 0.7763 0.0
C578 C 0.08484 0.2778 0.83028 0.0
C579 C 0.08118 0.29858 0.84224 0.0
C580 C 0.10452 0.2793 0.81449 0.0
C581 C 0.12108 0.30159 0.81033 0.0
C582 C 0.11754 0.3223 0.82251 0.0
C583 C 0.09779 0.32083 0.83823 0.0
H584 H 0.57146 0.61683 0.50469 0.0
H585 H 0.49233 0.59832 0.51638 0.0
H586 H 0.56454 0.65322 0.47929 0.0
H587 H 0.48535 0.63451 0.49089 0.0
H588 H 0.48639 0.7164 0.46946 0.0
H589 H 0.49313 0.67889 0.49285 0.0
H590 H 0.54636 0.66667 0.44102 0.0
H591 H 0.54003 0.70451 0.41787 0.0
C592 C 0.55256 0.62035 0.50153 0.0
C593 C 0.53246 0.60482 0.51268 0.0
C594 C 0.54858 0.64119 0.48699 0.0
C595 C 0.52441 0.64691 0.48321 0.0
C596 C 0.50426 0.63095 0.49383 0.0
C597 C 0.50824 0.61018 0.50839 0.0
C598 C 0.49951 0.70572 0.46302 0.0
C599 C 0.51269 0.71349 0.44182 0.0
C600 C 0.50327 0.68411 0.47636 0.0
C601 C 0.52025 0.66972 0.46878 0.0
C602 C 0.53337 0.67747 0.44752 0.0
C603 C 0.52964 0.6991 0.43419 0.0
H604 H 0.83214 0.79134 0.71774 0.0
H605 H 0.86478 0.76466 0.78447 0.0
H606 H 0.86821 0.78453 0.69585 0.0
H607 H 0.90134 0.75841 0.7628 0.0
H608 H 0.94872 0.72432 0.71202 0.0
H609 H 0.91313 0.73179 0.7341 0.0
H610 H 0.91182 0.79968 0.69045 0.0
H611 H 0.94699 0.79189 0.66798 0.0
C612 C 0.84722 0.78424 0.72773 0.0
C613 C 0.84578 0.77856 0.75277 0.0
C614 C 0.86795 0.78045 0.71524 0.0
C615 C 0.88774 0.7709 0.72753 0.0
C616 C 0.88632 0.76545 0.75269 0.0
C617 C 0.86554 0.7692 0.76515 0.0
C618 C 0.94083 0.74083 0.70711 0.0
C619 C 0.95069 0.75746 0.68817 0.0
C620 C 0.92051 0.74521 0.7199 0.0
C621 C 0.90957 0.76637 0.7141 0.0
C622 C 0.91952 0.78303 0.6952 0.0
C623 C 0.93979 0.77861 0.68238 0.0
H624 H 0.00972 0.93661 0.50996 0.0
H625 H 0.0849 0.92117 0.50864 0.0
H626 H 0.99819 0.90015 0.53721 0.0
H627 H 0.07336 0.88464 0.53584 0.0
H628 H 0.0497 0.83463 0.60325 0.0
H629 H 0.06142 0.87202 0.57724 0.0
H630 H 0.9919 0.85555 0.53647 0.0
H631 H 0.97996 0.81849 0.56273 0.0
C632 C 0.02374 0.92534 0.51537 0.0
C633 C 0.0482 0.93176 0.50707 0.0
C634 C 0.01714 0.90443 0.53098 0.0
C635 C 0.03483 0.88941 0.53865 0.0
C636 C 0.05936 0.89598 0.53055 0.0
C637 C 0.06598 0.91692 0.51495 0.0
C638 C 0.0369 0.83901 0.58876 0.0
C639 C 0.01388 0.82357 0.58509 0.0
C640 C 0.04368 0.86038 0.57377 0.0
C641 C 0.0276 0.8668 0.55477 0.0
C642 C 0.00457 0.85135 0.55115 0.0
C643 C 0.99779 0.83 0.56613 0.0
H644 H 0.14646 0.74912 0.80233 0.0
H645 H 0.18958 0.74537 0.73929 0.0
H646 H 0.11026 0.75426 0.77629 0.0
H647 H 0.15332 0.75043 0.71323 0.0
H648 H 0.07629 0.73691 0.67529 0.0
H649 H 0.11155 0.72955 0.70174 0.0
H650 H 0.09706 0.78563 0.74763 0.0
H651 H 0.06157 0.79275 0.72143 0.0
C652 C 0.14824 0.74948 0.7829 0.0
C653 C 0.17096 0.74698 0.77288 0.0
C654 C 0.12749 0.75244 0.76798 0.0
C655 C 0.12893 0.7529 0.74267 0.0
C656 C 0.1515 0.74988 0.73266 0.0
C657 C 0.17228 0.74696 0.74759 0.0
C658 C 0.08058 0.74765 0.69105 0.0
C659 C 0.06611 0.76545 0.69623 0.0
C660 C 0.10088 0.7435 0.70614 0.0
C661 C 0.10713 0.757 0.72679 0.0
C662 C 0.09255 0.77469 0.73204 0.0
C663 C 0.07229 0.77888 0.71693 0.0
H664 H 0.95358 0.60929 0.51361 0.0
H665 H 0.02903 0.59733 0.53024 0.0
H666 H 0.95856 0.64145 0.54246 0.0
H667 H 0.03428 0.63004 0.55857 0.0
H668 H 0.02433 0.66915 0.62707 0.0
H669 H 0.01902 0.63724 0.59801 0.0
H670 H 0.98104 0.68316 0.54811 0.0
H671 H 0.98603 0.715 0.57732 0.0
C672 C 0.97125 0.61355 0.52342 0.0
C673 C 0.99088 0.60067 0.5197 0.0
C674 C 0.97418 0.63216 0.53977 0.0
C675 C 0.99679 0.63828 0.55286 0.0
C676 C 0.01652 0.62557 0.54898 0.0
C677 C 0.01361 0.60702 0.53255 0.0
C678 C 0.01477 0.67244 0.60994 0.0
C679 C 0.0056 0.69465 0.60454 0.0
C680 C 0.01189 0.6542 0.5932 0.0
C681 C 0.99971 0.65768 0.57069 0.0
C682 C 0.99031 0.67979 0.56538 0.0
C683 C 0.99325 0.69809 0.5821 0.0
H684 H 0.75453 0.85518 0.27 0.0
H685 H 0.75921 0.8574 0.19217 0.0
H686 H 0.78308 0.89438 0.27068 0.0
H687 H 0.78801 0.89641 0.19295 0.0
H688 H 0.86042 0.95037 0.20834 0.0
H689 H 0.83107 0.91175 0.20739 0.0
H690 H 0.78458 0.93858 0.25747 0.0
H691 H 0.81407 0.97722 0.25863 0.0
C692 C 0.76148 0.86411 0.25302 0.0
C693 C 0.75458 0.8531 0.23103 0.0
C694 C 0.77785 0.88656 0.25343 0.0
C695 C 0.7878 0.89847 0.23188 0.0
C696 C 0.78092 0.88751 0.2099 0.0
C697 C 0.76446 0.86512 0.20946 0.0
C698 C 0.84393 0.94808 0.21913 0.0
C699 C 0.8396 0.96687 0.23358 0.0
C700 C 0.82704 0.92599 0.21848 0.0
C701 C 0.80551 0.92212 0.23235 0.0
C702 C 0.80114 0.94093 0.24677 0.0
C703 C 0.81797 0.9631 0.24732 0.0
H704 H 0.76074 0.18891 0.2438 0.0
H705 H 0.79545 0.20052 0.31434 0.0
H706 H 0.78074 0.15262 0.24091 0.0
H707 H 0.81578 0.16441 0.31149 0.0
H708 H 0.82704 0.08413 0.30803 0.0
H709 H 0.80585 0.11942 0.31093 0.0
H710 H 0.82266 0.14276 0.23655 0.0
H711 H 0.84359 0.10725 0.23351 0.0
C712 C 0.77277 0.18369 0.25862 0.0
C713 C 0.7769 0.19762 0.27915 0.0
C714 C 0.7843 0.16302 0.25695 0.0
C715 C 0.79999 0.1557 0.2759 0.0
C716 C 0.80367 0.16942 0.29665 0.0
C717 C 0.7922 0.19015 0.29826 0.0
C718 C 0.8262 0.09675 0.29226 0.0
C719 C 0.83703 0.09285 0.27053 0.0
C720 C 0.81416 0.11707 0.29398 0.0
C721 C 0.81258 0.13394 0.27399 0.0
C722 C 0.82329 0.12996 0.25221 0.0
C723 C 0.83542 0.10968 0.25051 0.0
H724 H 0.43652 0.01682 0.03349 0.0
H725 H 0.42692 0.02007 0.95564 0.0
H726 H 0.3977 0.9876 0.03711 0.0
H727 H 0.38823 0.99025 0.95924 0.0
H728 H 0.30628 0.95897 0.97902 0.0
H729 H 0.34528 0.98797 0.9741 0.0
H730 H 0.3813 0.9447 0.02829 0.0
H731 H 0.34241 0.91595 0.03343 0.0
C732 C 0.42608 0.01129 0.01714 0.0
C733 C 0.43472 0.02081 0.99428 0.0
C734 C 0.40397 0.99437 0.0192 0.0
C735 C 0.38992 0.98658 0.99846 0.0
C736 C 0.39855 0.99606 0.97556 0.0
C737 C 0.4208 0.01292 0.97349 0.0
C738 C 0.32253 0.95565 0.98987 0.0
C739 C 0.32119 0.9352 0.00669 0.0
C740 C 0.3449 0.97217 0.98693 0.0
C741 C 0.36634 0.96866 1.00086 0.0
C742 C 0.36502 0.9481 0.01752 0.0
C743 C 0.34273 0.93155 0.02037 0.0
H744 H 0.23171 0.31281 0.33016 0.0
H745 H 0.28987 0.36525 0.29561 0.0
H746 H 0.20353 0.34293 0.32494 0.0
H747 H 0.2615 0.39525 0.29011 0.0
H748 H 0.19563 0.4334 0.26349 0.0
H749 H 0.22299 0.40239 0.26757 0.0
H750 H 0.19891 0.38266 0.34067 0.0
H751 H 0.17138 0.41348 0.33656 0.0
C752 C 0.23857 0.33081 0.32158 0.0
C753 C 0.26316 0.3366 0.31343 0.0
C754 C 0.22237 0.34807 0.31856 0.0
C755 C 0.23027 0.37153 0.30717 0.0
C756 C 0.25473 0.37724 0.29869 0.0
C757 C 0.27099 0.36001 0.30182 0.0
C758 C 0.19607 0.42238 0.2804 0.0
C759 C 0.18128 0.42595 0.2997 0.0
C760 C 0.21189 0.40472 0.28278 0.0
C761 C 0.21317 0.39007 0.30445 0.0
C762 C 0.19817 0.39344 0.32364 0.0
C763 C 0.18247 0.41121 0.32132 0.0
H764 H 0.13033 0.97869 0.49129 0.0
H765 H 0.09339 0.04067 0.46948 0.0
H766 H 0.16949 0.00697 0.49705 0.0
H767 H 0.13266 0.06873 0.47466 0.0
H768 H 0.21313 0.10747 0.46164 0.0
H769 H 0.17457 0.07844 0.4556 0.0
H770 H 0.18732 0.04054 0.5246 0.0
H771 H 0.22594 0.06953 0.53071 0.0
C772 C 0.13049 0.99831 0.48785 0.0
C773 C 0.10865 0.00736 0.47988 0.0
C774 C 0.15295 0.01449 0.49109 0.0
C775 C 0.15414 0.04003 0.48622 0.0
C776 C 0.13239 0.04909 0.4782 0.0
C777 C 0.1099 0.03297 0.47517 0.0
C778 C 0.20778 0.09291 0.4755 0.0
C779 C 0.22259 0.09084 0.49668 0.0
C780 C 0.18562 0.07637 0.47208 0.0
C781 C 0.17792 0.05727 0.48965 0.0
C782 C 0.19289 0.05497 0.51067 0.0
C783 C 0.21493 0.07165 0.5142 0.0
H784 H 0.76171 0.16944 0.77696 0.0
H785 H 0.76678 0.16385 0.70004 0.0
H786 H 0.73425 0.12956 0.77982 0.0
H787 H 0.7398 0.12368 0.70288 0.0
H788 H 0.66919 0.06632 0.71229 0.0
H789 H 0.69749 0.1056 0.70941 0.0
H790 H 0.73311 0.08632 0.77753 0.0
H791 H 0.70421 0.04739 0.78079 0.0
C792 C 0.75719 0.1595 0.76071 0.0
C793 C 0.76633 0.16977 0.73827 0.0
C794 C 0.7415 0.13661 0.76234 0.0
C795 C 0.73475 0.12335 0.74157 0.0
C796 C 0.74421 0.13355 0.71917 0.0
C797 C 0.75973 0.15653 0.71753 0.0
C798 C 0.6831 0.07044 0.72663 0.0
C799 C 0.6844 0.05374 0.74679 0.0
C800 C 0.69945 0.09293 0.72491 0.0
C801 C 0.71763 0.09919 0.74323 0.0
C802 C 0.7191 0.08232 0.76327 0.0
C803 C 0.70262 0.05991 0.76507 0.0
H804 H 0.41356 0.99321 0.54378 0.0
H805 H 0.46833 0.05085 0.5728 0.0
H806 H 0.38434 0.02224 0.53681 0.0
H807 H 0.43882 0.0797 0.56651 0.0
H808 H 0.38882 0.13013 0.5261 0.0
H809 H 0.41851 0.10158 0.53343 0.0
H810 H 0.35923 0.04488 0.55983 0.0
H811 H 0.32951 0.07322 0.55222 0.0
C812 C 0.41938 0.01209 0.54864 0.0
C813 C 0.44328 0.0197 0.55885 0.0
C814 C 0.40253 0.02867 0.54489 0.0
C815 C 0.40921 0.05329 0.55117 0.0
C816 C 0.43315 0.06093 0.56129 0.0
C817 C 0.44997 0.04432 0.56514 0.0
C818 C 0.38213 0.1116 0.53353 0.0
C819 C 0.35675 0.10397 0.5385 0.0
C820 C 0.39918 0.09526 0.53784 0.0
C821 C 0.39124 0.0709 0.54713 0.0
C822 C 0.36591 0.06339 0.55233 0.0
C823 C 0.34889 0.07972 0.5481 0.0
H824 H 0.59799 0.52257 0.48587 0.0
H825 H 0.57973 0.47324 0.54875 0.0
H826 H 0.63329 0.50197 0.4786 0.0
H827 H 0.61458 0.45216 0.54134 0.0
H828 H 0.6938 0.43652 0.53477 0.0
H829 H 0.65955 0.4581 0.54234 0.0
H830 H 0.64171 0.46313 0.46566 0.0
H831 H 0.67633 0.44204 0.45803 0.0
C832 C 0.60151 0.50717 0.498 0.0
C833 C 0.58599 0.49916 0.5176 0.0
C834 C 0.62159 0.49529 0.49382 0.0
C835 C 0.62668 0.47527 0.50928 0.0
C836 C 0.61135 0.46762 0.52917 0.0
C837 C 0.59128 0.47953 0.53335 0.0
C838 C 0.68259 0.44223 0.51951 0.0
C839 C 0.68784 0.43755 0.49578 0.0
C840 C 0.66284 0.4545 0.52387 0.0
C841 C 0.64783 0.46235 0.50462 0.0
C842 C 0.6531 0.45766 0.48089 0.0
C843 C 0.67287 0.44542 0.47652 0.0
H844 H 0.73497 0.25435 0.36874 0.0
H845 H 0.7185 0.31402 0.31935 0.0
H846 H 0.74372 0.28285 0.40116 0.0
H847 H 0.72647 0.34227 0.35183 0.0
H848 H 0.76752 0.39104 0.40906 0.0
H849 H 0.76077 0.36234 0.37692 0.0
H850 H 0.72097 0.30645 0.42605 0.0
H851 H 0.72804 0.33504 0.45837 0.0
C852 C 0.73333 0.27356 0.36479 0.0
C853 C 0.72597 0.28191 0.3415 0.0
C854 C 0.73808 0.28983 0.38341 0.0
C855 C 0.73571 0.31482 0.3791 0.0
C856 C 0.72867 0.32319 0.35572 0.0
C857 C 0.72385 0.30694 0.33716 0.0
C858 C 0.75733 0.37264 0.41304 0.0
C859 C 0.74828 0.36537 0.43629 0.0
C860 C 0.75337 0.35621 0.39457 0.0
C861 C 0.74031 0.3321 0.39891 0.0
C862 C 0.73136 0.32479 0.42219 0.0
C863 C 0.73527 0.34124 0.44067 0.0
H864 H 0.50528 0.04481 0.89011 0.0
H865 H 0.5644 0.05572 0.94449 0.0
H866 H 0.53275 0.02871 0.86374 0.0
H867 H 0.59183 0.03884 0.91851 0.0
H868 H 0.64148 0.03784 0.85343 0.0
H869 H 0.61405 0.05031 0.88213 0.0
H870 H 0.5539 0.9948 0.85798 0.0
H871 H 0.58123 0.98279 0.82868 0.0
C872 C 0.52408 0.04339 0.89654 0.0
C873 C 0.53268 0.0513 0.9194 0.0
C874 C 0.53981 0.03402 0.88151 0.0
C875 C 0.56454 0.03237 0.88898 0.0
C876 C 0.57301 0.04007 0.91203 0.0
C877 C 0.55729 0.04956 0.927 0.0
C878 C 0.62246 0.02813 0.85434 0.0
C879 C 0.61354 0.00939 0.83864 0.0
C880 C 0.60673 0.03521 0.87095 0.0
C881 C 0.58168 0.02365 0.87237 0.0
C882 C 0.57296 0.00439 0.85712 0.0
C883 C 0.58868 0.99738 0.84043 0.0
H884 H 0.25518 0.26342 0.36707 0.0
H885 H 0.33564 0.27224 0.37055 0.0
H886 H 0.25323 0.23745 0.4045 0.0
H887 H 0.33367 0.2461 0.40811 0.0
H888 H 0.3165 0.17621 0.46058 0.0
H889 H 0.32037 0.20315 0.42354 0.0
H890 H 0.26309 0.2409 0.4474 0.0
H891 H 0.25892 0.21384 0.48409 0.0
C892 C 0.27248 0.26003 0.37595 0.0
C893 C 0.29557 0.27006 0.36586 0.0
C894 C 0.27137 0.24511 0.39743 0.0
C895 C 0.29331 0.2398 0.4094 0.0
C896 C 0.31642 0.24962 0.39922 0.0
C897 C 0.31754 0.2646 0.3777 0.0
C898 C 0.30483 0.19035 0.45797 0.0
C899 C 0.28729 0.19276 0.47524 0.0
C900 C 0.30713 0.20586 0.43678 0.0
C901 C 0.2919 0.22406 0.43241 0.0
C902 C 0.27479 0.22679 0.44998 0.0
C903 C 0.27251 0.21134 0.47111 0.0
H904 H 0.50379 0.5463 0.92102 0.0
H905 H 0.49116 0.46714 0.91741 0.0
H906 H 0.47699 0.55007 0.88501 0.0
H907 H 0.46487 0.47078 0.88091 0.0
H908 H 0.39726 0.48481 0.83346 0.0
H909 H 0.42464 0.4811 0.86891 0.0
H910 H 0.47507 0.54553 0.84196 0.0
H911 H 0.44737 0.5496 0.80678 0.0
C912 C 0.49549 0.52974 0.91228 0.0
C913 C 0.49968 0.50644 0.92179 0.0
C914 C 0.48024 0.53187 0.8916 0.0
C915 C 0.46879 0.51073 0.88 0.0
C916 C 0.47313 0.48742 0.88953 0.0
C917 C 0.48833 0.4853 0.91027 0.0
C918 C 0.41417 0.49821 0.8351 0.0
C919 C 0.42008 0.51754 0.8173 0.0
C920 C 0.42998 0.49598 0.85536 0.0
C921 C 0.45211 0.51299 0.85829 0.0
C922 C 0.45803 0.53229 0.84045 0.0
C923 C 0.44219 0.53455 0.82021 0.0
H924 H 0.76775 0.77761 0.16593 0.0
H925 H 0.69742 0.73091 0.15164 0.0
H926 H 0.78862 0.75336 0.14022 0.0
H927 H 0.71791 0.70707 0.12544 0.0
H928 H 0.76409 0.65611 0.09532 0.0
H929 H 0.74657 0.67837 0.12513 0.0
H930 H 0.79098 0.74659 0.09798 0.0
H931 H 0.809 0.72422 0.06861 0.0
C932 C 0.75685 0.76205 0.15732 0.0
C933 C 0.73107 0.75601 0.1608 0.0
C934 C 0.7687 0.74828 0.14249 0.0
C935 C 0.75496 0.72825 0.13072 0.0
C936 C 0.72917 0.7221 0.1345 0.0
C937 C 0.71736 0.73583 0.14939 0.0
C938 C 0.77032 0.67582 0.09586 0.0
C939 C 0.78789 0.68839 0.0795 0.0
C940 C 0.76013 0.68863 0.11287 0.0
C941 C 0.76719 0.71433 0.11387 0.0
C942 C 0.7853 0.72677 0.09793 0.0
C943 C 0.79556 0.71395 0.08098 0.0
H944 H 1.0003 0.02249 0.09425 0.0
H945 H 0.01843 0.10174 0.0969 0.0
H946 H 0.97636 0.02039 0.13095 0.0
H947 H 0.99393 0.09974 0.13307 0.0
H948 H 0.96756 0.08458 0.21073 0.0
H949 H 0.99366 0.08552 0.17578 0.0
H950 H 0.93722 0.03211 0.14276 0.0
H951 H 0.91129 0.03085 0.17782 0.0
C952 C 0.99931 0.03943 0.10276 0.0
C953 C 0.01117 0.06229 0.09261 0.0
C954 C 0.98538 0.03827 0.12362 0.0
C955 C 0.98313 0.05992 0.13487 0.0
C956 C 0.99544 0.0827 0.12498 0.0
C957 C 0.00926 0.08387 0.1041 0.0
C958 C 0.96071 0.07303 0.19602 0.0
C959 C 0.9373 0.05769 0.19706 0.0
C960 C 0.97564 0.07364 0.17595 0.0
C961 C 0.96754 0.05887 0.15648 0.0
C962 C 0.94417 0.04346 0.15758 0.0
C963 C 0.92921 0.0429 0.17762 0.0
H964 H 0.31448 0.78055 0.16026 0.0
H965 H 0.23767 0.77932 0.17777 0.0
H966 H 0.30715 0.80117 0.12077 0.0
H967 H 0.23032 0.80006 0.1383 0.0
H968 H 0.23812 0.86367 0.07817 0.0
H969 H 0.24414 0.84161 0.11712 0.0
H970 H 0.28251 0.79173 0.08208 0.0
H971 H 0.27657 0.81376 0.04311 0.0
C972 C 0.29595 0.78441 0.1555 0.0
C973 C 0.27645 0.77777 0.17178 0.0
C974 C 0.29176 0.79619 0.13293 0.0
C975 C 0.26811 0.80204 0.1264 0.0
C976 C 0.24874 0.79581 0.14287 0.0
C977 C 0.25288 0.78382 0.16535 0.0
C978 C 0.24775 0.84794 0.07875 0.0
C979 C 0.2569 0.84049 0.05754 0.0
C980 C 0.25108 0.83524 0.10104 0.0
C981 C 0.26384 0.81499 0.10263 0.0
C982 C 0.27283 0.80743 0.08142 0.0
C983 C 0.26928 0.81997 0.05909 0.0
H984 H 0.01876 0.44754 0.11011 0.0
H985 H 0.01175 0.52457 0.11105 0.0
H986 H 0.04693 0.45174 0.14508 0.0
H987 H 0.03777 0.52806 0.14753 0.0
H988 H 0.1057 0.5356 0.19771 0.0
H989 H 0.07814 0.53117 0.16211 0.0
H990 H 0.05121 0.45524 0.18618 0.0
H991 H 0.08015 0.45945 0.22093 0.0
C992 C 0.02309 0.4654 0.11776 0.0
C993 C 0.01297 0.48575 0.10739 0.0
C994 C 0.03898 0.46769 0.13825 0.0
C995 C 0.04484 0.49027 0.14938 0.0
C996 C 0.03424 0.51046 0.13934 0.0
C997 C 0.01879 0.50831 0.11854 0.0
C998 C 0.09389 0.51796 0.19532 0.0
C999 C 0.0951 0.49787 0.21207 0.0
C1000 C 0.07786 0.51543 0.17496 0.0
C1001 C 0.06214 0.49285 0.1711 0.0
C1002 C 0.06327 0.4728 0.18811 0.0
C1003 C 0.07976 0.47521 0.20819 0.0
H1004 H 0.32272 0.71419 0.30026 0.0
H1005 H 0.3705 0.74868 0.24283 0.0
H1006 H 0.3566 0.72502 0.32981 0.0
H1007 H 0.4039 0.76048 0.27242 0.0
H1008 H 0.46667 0.75237 0.32766 0.0
H1009 H 0.43243 0.74154 0.29871 0.0
H1010 H 0.38072 0.76009 0.34891 0.0
H1011 H 0.415 0.77039 0.37821 0.0
C1012 C 0.34043 0.7241 0.29394 0.0
C1013 C 0.34389 0.7305 0.26915 0.0
C1014 C 0.35976 0.73058 0.31092 0.0
C1015 C 0.383 0.7436 0.30351 0.0
C1016 C 0.38636 0.75018 0.27874 0.0
C1017 C 0.36708 0.74368 0.26179 0.0
C1018 C 0.44801 0.75417 0.33256 0.0
C1019 C 0.44359 0.76227 0.35527 0.0
C1020 C 0.42838 0.74809 0.31587 0.0
C1021 C 0.40381 0.75003 0.32142 0.0
C1022 C 0.39937 0.75811 0.34415 0.0
C1023 C 0.41904 0.76416 0.3609 0.0
H1024 H 0.02191 0.41429 0.02858 0.0
H1025 H 0.99741 0.45008 0.96245 0.0
H1026 H 0.0266 0.37831 0.00666 0.0
H1027 H 0.00277 0.41456 0.94025 0.0
H1028 H 0.99078 0.33687 0.91289 0.0
H1029 H 0.98525 0.37221 0.93508 0.0
H1030 H 0.05248 0.36561 0.97752 0.0
H1031 H 0.0576 0.32986 0.95579 0.0
C1032 C 0.01758 0.41438 0.00932 0.0
C1033 C 0.00917 0.43481 0.99721 0.0
C1034 C 0.02043 0.39392 0.99671 0.0
C1035 C 0.0151 0.3935 0.97164 0.0
C1036 C 0.0067 0.41405 0.95958 0.0
C1037 C 0.00375 0.43447 0.97224 0.0
C1038 C 0.0044 0.34297 0.92695 0.0
C1039 C 0.02463 0.3305 0.93257 0.0
C1040 C 1.0013 0.36334 0.9396 0.0
C1041 C 0.01841 0.37181 0.95813 0.0
C1042 C 0.03871 0.35939 0.96364 0.0
C1043 C 0.04175 0.33896 0.95105 0.0
H1044 H 0.65161 0.78094 0.23369 0.0
H1045 H 0.69796 0.8126 0.29254 0.0
H1046 H 0.61571 0.77343 0.25976 0.0
H1047 H 0.66207 0.80509 0.31863 0.0
H1048 H 0.5868 0.81069 0.35043 0.0
H1049 H 0.62244 0.81894 0.32394 0.0
H1050 H 0.60018 0.74741 0.29488 0.0
H1051 H 0.56438 0.73935 0.32094 0.0
C1052 C 0.65419 0.7861 0.25225 0.0
C1053 C 0.67766 0.79735 0.26103 0.0
C1054 C 0.63361 0.78182 0.2672 0.0
C1055 C 0.63601 0.78866 0.29129 0.0
C1056 C 0.65948 0.79994 0.30006 0.0
C1057 C 0.68006 0.80422 0.28511 0.0
C1058 C 0.5895 0.79675 0.33835 0.0
C1059 C 0.57272 0.77437 0.33779 0.0
C1060 C 0.61 0.80142 0.32327 0.0
C1061 C 0.61417 0.78384 0.30728 0.0
C1062 C 0.59734 0.76149 0.30672 0.0
C1063 C 0.57688 0.75682 0.32179 0.0
H1064 H 0.9903 0.09675 0.01244 0.0
H1065 H 0.06997 0.11538 0.00419 0.0
H1066 H 0.98401 0.1298 0.98231 0.0
H1067 H 0.06366 0.1483 0.97378 0.0
H1068 H 0.04183 0.2227 0.94386 0.0
H1069 H 0.04845 0.18905 0.97312 0.0
H1070 H 0.98939 0.14024 0.93794 0.0
H1071 H 0.98267 0.17385 0.90868 0.0
C1072 C 0.00645 0.10793 0.00415 0.0
C1073 C 0.03063 0.10357 0.01071 0.0
C1074 C 0.00284 0.12669 0.98678 0.0
C1075 C 0.02334 0.14165 0.97573 0.0
C1076 C 0.04753 0.1372 0.98216 0.0
C1077 C 0.05113 0.11824 0.99938 0.0
C1078 C 0.03023 0.20481 0.94237 0.0
C1079 C 0.0117 0.20096 0.92395 0.0
C1080 C 0.03415 0.1855 0.95903 0.0
C1081 C 0.01947 0.16202 0.95778 0.0
C1082 C 1.00086 0.1582 0.93945 0.0
C1083 C 0.99709 0.17743 0.92265 0.0
H1084 H 0.36654 0.26497 0.28613 0.0
H1085 H 0.33038 0.28666 0.21935 0.0
H1086 H 0.40288 0.2593 0.26383 0.0
H1087 H 0.36625 0.28038 0.19685 0.0
H1088 H 0.44421 0.28954 0.16652 0.0
H1089 H 0.40918 0.29693 0.18945 0.0
H1090 H 0.41507 0.23195 0.2362 0.0
H1091 H 0.45051 0.22492 0.21365 0.0
C1092 C 0.36648 0.26858 0.26666 0.0
C1093 C 0.34581 0.27642 0.25447 0.0
C1094 C 0.38715 0.26514 0.25384 0.0
C1095 C 0.38752 0.26933 0.22849 0.0
C1096 C 0.3668 0.27732 0.21637 0.0
C1097 C 0.34619 0.28082 0.22921 0.0
C1098 C 0.43804 0.27681 0.18169 0.0
C1099 C 0.45019 0.25662 0.18822 0.0
C1100 C 0.41785 0.281 0.19478 0.0
C1101 C 0.40924 0.26505 0.21471 0.0
C1102 C 0.4214 0.24484 0.2212 0.0
C1103 C 0.44164 0.2407 0.20815 0.0
H1104 H 0.58633 0.42153 0.01045 0.0
H1105 H 0.51059 0.43584 0.00902 0.0
H1106 H 0.57393 0.38383 0.03583 0.0
H1107 H 0.49818 0.39815 0.03438 0.0
H1108 H 0.48036 0.31622 0.05926 0.0
H1109 H 0.49285 0.35339 0.0332 0.0
H1110 H 0.56031 0.37103 0.07683 0.0
H1111 H 0.54807 0.33364 0.10265 0.0
C1112 C 0.56706 0.41671 0.01568 0.0
C1113 C 0.54945 0.43171 0.00772 0.0
C1114 C 0.55996 0.39511 0.03024 0.0
C1115 C 0.53507 0.38799 0.03717 0.0
C1116 C 0.51743 0.40291 0.02908 0.0
C1117 C 0.52454 0.42451 0.01453 0.0
C1118 C 0.49787 0.32801 0.0633 0.0
C1119 C 0.51322 0.32194 0.08304 0.0
C1120 C 0.50496 0.3494 0.04843 0.0
C1121 C 0.52757 0.36519 0.05293 0.0
C1122 C 0.54293 0.3591 0.07267 0.0
C1123 C 0.53583 0.33773 0.08756 0.0
H1124 H 0.64642 0.25546 0.3009 0.0
H1125 H 0.6887 0.24701 0.23853 0.0
H1126 H 0.61025 0.25995 0.27461 0.0
H1127 H 0.65244 0.2514 0.21221 0.0
H1128 H 0.57478 0.23681 0.17534 0.0
H1129 H 0.61022 0.23046 0.20201 0.0
H1130 H 0.59744 0.29005 0.24424 0.0
H1131 H 0.5618 0.29619 0.21784 0.0
C1132 C 0.64803 0.25468 0.28156 0.0
C1133 C 0.67051 0.25102 0.27181 0.0
C1134 C 0.6273 0.25725 0.26649 0.0
C1135 C 0.62849 0.25617 0.2413 0.0
C1136 C 0.65081 0.25205 0.23157 0.0
C1137 C 0.67159 0.24951 0.24665 0.0
C1138 C 0.57949 0.24853 0.19035 0.0
C1139 C 0.56545 0.26702 0.19445 0.0
C1140 C 0.59989 0.24497 0.20554 0.0
C1141 C 0.60666 0.25975 0.22524 0.0
C1142 C 0.59253 0.27814 0.22941 0.0
C1143 C 0.57217 0.28175 0.21418 0.0
H1144 H 0.47589 0.07249 0.05519 0.0
H1145 H 0.50439 0.12457 0.99705 0.0
H1146 H 0.48112 0.10568 0.08279 0.0
H1147 H 0.51043 0.15778 0.02495 0.0
H1148 H 0.4899 0.21414 0.0754 0.0
H1149 H 0.48532 0.18114 0.04745 0.0
H1150 H 0.51357 0.1334 0.10312 0.0
H1151 H 0.51774 0.16616 0.13115 0.0
C1152 C 0.48332 0.09105 0.04831 0.0
C1153 C 0.48958 0.09591 0.02387 0.0
C1154 C 0.48656 0.11004 0.0642 0.0
C1155 C 0.49616 0.13441 0.05609 0.0
C1156 C 0.50272 0.13926 0.03171 0.0
C1157 C 0.49954 0.1202 0.01579 0.0
C1158 C 0.49506 0.19658 0.0817 0.0
C1159 C 0.50411 0.19278 0.10555 0.0
C1160 C 0.49262 0.17773 0.06561 0.0
C1161 C 0.49911 0.15463 0.07302 0.0
C1162 C 0.50811 0.15086 0.09689 0.0
C1163 C 0.51059 0.16969 0.11295 0.0
H1164 H 0.23002 0.38229 0.72808 0.0
H1165 H 0.29141 0.3421 0.72464 0.0
H1166 H 0.25935 0.421 0.7279 0.0
H1167 H 0.32069 0.38093 0.72405 0.0
H1168 H 0.36247 0.45767 0.69905 0.0
H1169 H 0.33273 0.41927 0.69779 0.0
H1170 H 0.29225 0.44184 0.75552 0.0
H1171 H 0.32187 0.48035 0.75674 0.0
C1172 C 0.24977 0.38168 0.72739 0.0
C1173 C 0.25836 0.35904 0.72653 0.0
C1174 C 0.26656 0.40388 0.72725 0.0
C1175 C 0.29232 0.40399 0.72606 0.0
C1176 C 0.30091 0.38144 0.72472 0.0
C1177 C 0.28413 0.35921 0.72501 0.0
C1178 C 0.34719 0.4545 0.71144 0.0
C1179 C 0.34454 0.47208 0.728 0.0
C1180 C 0.33025 0.43243 0.71079 0.0
C1181 C 0.31017 0.42754 0.72656 0.0
C1182 C 0.30739 0.44521 0.74297 0.0
C1183 C 0.32443 0.46721 0.74374 0.0
H1184 H 0.26472 0.68692 0.7427 0.0
H1185 H 0.29669 0.69909 0.81423 0.0
H1186 H 0.2862 0.65152 0.7405 0.0
H1187 H 0.31849 0.66386 0.81207 0.0
H1188 H 0.33239 0.5842 0.80896 0.0
H1189 H 0.30999 0.61877 0.81124 0.0
H1190 H 0.32886 0.64307 0.73753 0.0
H1191 H 0.351 0.60832 0.7351 0.0
C1192 C 0.27647 0.68203 0.75789 0.0
C1193 C 0.27937 0.69584 0.77851 0.0
C1194 C 0.28885 0.66186 0.75662 0.0
C1195 C 0.30419 0.65495 0.77605 0.0
C1196 C 0.30668 0.66857 0.79686 0.0
C1197 C 0.29437 0.68879 0.79808 0.0
C1198 C 0.33176 0.59689 0.79321 0.0
C1199 C 0.34351 0.59347 0.77184 0.0
C1200 C 0.31902 0.61679 0.79458 0.0
C1201 C 0.31764 0.6337 0.77458 0.0
C1202 C 0.32932 0.63022 0.75317 0.0
C1203 C 0.34214 0.61038 0.75184 0.0
H1204 H 0.95586 0.49382 0.48262 0.0
H1205 H 0.91371 0.55213 0.49251 0.0
H1206 H 0.91763 0.46372 0.48438 0.0
H1207 H 0.87571 0.52184 0.49578 0.0
H1208 H 0.80801 0.46427 0.47933 0.0
H1209 H 0.84607 0.49429 0.47366 0.0
H1210 H 0.88844 0.44406 0.51324 0.0
H1211 H 0.85061 0.41381 0.51815 0.0
C1212 C 0.93844 0.50026 0.48507 0.0
C1213 C 0.93793 0.52544 0.48748 0.0
C1214 C 0.91652 0.48292 0.48642 0.0
C1215 C 0.89354 0.49027 0.4904 0.0
C1216 C 0.89299 0.5155 0.49247 0.0
C1217 C 0.91488 0.53286 0.49094 0.0
C1218 C 0.82548 0.45963 0.48674 0.0
C1219 C 0.82628 0.43666 0.4992 0.0
C1220 C 0.8473 0.47689 0.4836 0.0
C1221 C 0.87038 0.47166 0.49301 0.0
C1222 C 0.87111 0.4486 0.50538 0.0
C1223 C 0.84936 0.43129 0.50834 0.0
H1224 H 0.78929 0.86658 0.7963 0.0
H1225 H 0.73194 0.81279 0.83036 0.0
H1226 H 0.76042 0.89612 0.7916 0.0
H1227 H 0.7032 0.84244 0.82588 0.0
H1228 H 0.66926 0.91184 0.83805 0.0
H1229 H 0.69745 0.8816 0.84192 0.0
H1230 H 0.72202 0.90296 0.76923 0.0
H1231 H 0.69407 0.9334 0.76542 0.0
C1232 C 0.77047 0.86095 0.80259 0.0
C1233 C 0.76301 0.83728 0.81377 0.0
C1234 C 0.75392 0.87791 0.79991 0.0
C1235 C 0.72951 0.87167 0.8084 0.0
C1236 C 0.72199 0.84798 0.81947 0.0
C1237 C 0.7385 0.83099 0.82207 0.0
C1238 C 0.68062 0.91006 0.82286 0.0
C1239 C 0.6794 0.92509 0.80144 0.0
C1240 C 0.69669 0.89262 0.82504 0.0
C1241 C 0.71203 0.88987 0.8059 0.0
C1242 C 0.71069 0.90481 0.78443 0.0
C1243 C 0.69454 0.92216 0.7822 0.0
H1244 H 0.60373 0.50678 0.02934 0.0
H1245 H 0.62222 0.51757 0.95385 0.0
H1246 H 0.64183 0.53468 0.03991 0.0
H1247 H 0.66012 0.54597 0.96439 0.0
H1248 H 0.73839 0.57476 0.99664 0.0
H1249 H 0.70107 0.54565 0.98604 0.0
H1250 H 0.65824 0.57923 0.03442 0.0
H1251 H 0.69545 0.60813 0.04518 0.0
C1252 C 0.61601 0.51502 0.01502 0.0
C1253 C 0.61 0.50995 0.99076 0.0
C1254 C 0.6377 0.53119 0.02105 0.0
C1255 C 0.65395 0.54257 0.00298 0.0
C1256 C 0.64807 0.53733 0.97873 0.0
C1257 C 0.62627 0.52127 0.97268 0.0
C1258 C 0.72102 0.57589 0.00505 0.0
C1259 C 0.71991 0.59375 0.02178 0.0
C1260 C 0.69962 0.55931 0.99887 0.0
C1261 C 0.67672 0.56013 0.00942 0.0
C1262 C 0.67567 0.57794 0.0262 0.0
C1263 C 0.69699 0.59458 0.03226 0.0
H1264 H 0.2818 0.65879 0.20103 0.0
H1265 H 0.26327 0.67072 0.27376 0.0
H1266 H 0.25624 0.61789 0.20391 0.0
H1267 H 0.23656 0.63041 0.27643 0.0
H1268 H 0.20746 0.54864 0.28296 0.0
H1269 H 0.23561 0.58799 0.28012 0.0
H1270 H 0.2153 0.59725 0.20415 0.0
H1271 H 0.18828 0.55722 0.20685 0.0
C1272 C 0.27201 0.65265 0.21756 0.0
C1273 C 0.27446 0.66781 0.23718 0.0
C1274 C 0.25722 0.62928 0.21921 0.0
C1275 C 0.24414 0.6207 0.24039 0.0
C1276 C 0.24667 0.63605 0.26 0.0
C1277 C 0.26184 0.65923 0.25848 0.0
C1278 C 0.20916 0.55906 0.26563 0.0
C1279 C 0.1957 0.54984 0.24512 0.0
C1280 C 0.22517 0.58176 0.26402 0.0
C1281 C 0.22775 0.59605 0.24192 0.0
C1282 C 0.21424 0.58668 0.22139 0.0
C1283 C 0.19859 0.56375 0.22293 0.0
H1284 H 0.9642 0.54447 0.06831 0.0
H1285 H 0.91536 0.48188 0.04028 0.0
H1286 H 0.93192 0.56994 0.05957 0.0
H1287 H 0.88307 0.50728 0.03164 0.0
H1288 H 0.84221 0.566 0.99447 0.0
H1289 H 0.87461 0.54103 0.00414 0.0
H1290 H 0.8911 0.57605 0.07171 0.0
H1291 H 0.85896 0.60147 0.06179 0.0
C1292 C 0.94646 0.53606 0.06055 0.0
C1293 C 0.94241 0.51114 0.05492 0.0
C1294 C 0.92795 0.55068 0.05554 0.0
C1295 C 0.90491 0.54072 0.04478 0.0
C1296 C 0.90075 0.5157 0.03949 0.0
C1297 C 0.91926 0.50111 0.04447 0.0
C1298 C 0.85276 0.56845 0.01138 0.0
C1299 C 0.84795 0.58575 0.02735 0.0
C1300 C 0.87125 0.55398 0.017 0.0
C1301 C 0.88541 0.5564 0.03877 0.0
C1302 C 0.88074 0.57386 0.05468 0.0
C1303 C 0.86222 0.58837 0.04904 0.0
H1304 H 0.09141 0.02134 0.99099 0.0
H1305 H 0.07902 0.97361 0.05584 0.0
H1306 H 0.12668 1.00153 0.98168 0.0
H1307 H 0.11385 0.95334 0.04644 0.0
H1308 H 0.19222 0.93863 0.03474 0.0
H1309 H 0.15871 0.96039 0.04417 0.0
H1310 H 0.13486 0.96244 0.96884 0.0
H1311 H 0.16876 0.94112 0.9593 0.0
C1312 C 0.09623 0.00649 0.00314 0.0
C1313 C 0.08235 0.99868 0.02389 0.0
C1314 C 0.1163 0.99506 0.99779 0.0
C1315 C 0.12302 0.97571 0.01321 0.0
C1316 C 0.10936 0.96831 0.03427 0.0
C1317 C 0.08931 0.97975 0.03959 0.0
C1318 C 0.17989 0.94377 0.02015 0.0
C1319 C 0.18318 0.93807 0.99625 0.0
C1320 C 0.16056 0.95614 0.0256 0.0
C1321 C 0.144 0.96311 0.00729 0.0
C1322 C 0.14744 0.95761 0.98334 0.0
C1323 C 0.1668 0.94525 0.97789 0.0
loop_
_geom_bond_atom_site_label_1
_geom_bond_atom_site_label_2
_geom_bond_distance
_geom_bond_site_symmetry_2
_ccdc_geom_bond_type
H0 C7 0.929 1_655 S
H1 C10 0.930 . S
H2 C12 0.944 . S
H3 C4 0.969 1_565 S
C4 H3 0.969 1_545 S
C4 O5 1.550 . S
C4 H6 0.973 . S
O5 C4 1.550 . S
O5 C11 1.412 . S
H6 C4 0.973 . S
C7 H0 0.929 1_455 S
C7 C8 1.400 . S
C7 C9 1.364 . S
C8 C7 1.400 . S
C8 C12 1.377 . S
C9 C7 1.364 . S
C9 C10 1.374 . S
C10 H1 0.930 . S
C10 C9 1.374 . S
C10 C11 1.383 . S
C11 O5 1.412 . S
C11 C10 1.383 . S
C11 C12 1.394 . S
C12 H2 0.944 . S
C12 C8 1.377 . S
C12 C11 1.394 . S
H13 C20 0.929 . S
H14 C23 0.930 . S
H15 C25 0.929 . S
H16 C17 0.969 . S
C17 H16 0.969 . S
C17 O18 1.550 . S
C17 H19 0.973 . S
O18 C17 1.550 . S
O18 C24 1.412 . S
H19 C17 0.973 . S
C20 H13 0.929 . S
C20 C21 1.400 . S
C20 C22 1.364 . S
C21 C20 1.400 . S
C21 C25 1.377 . S
C22 C20 1.364 . S
C22 C23 1.374 . S
C23 H14 0.930 . S
C23 C22 1.374 . S
C23 C24 1.383 . S
C24 O18 1.412 . S
C24 C23 1.383 . S
C24 C25 1.394 . S
C25 H15 0.929 . S
C25 C21 1.377 . S
C25 C24 1.394 . S
H26 C33 0.929 . S
H27 C36 0.930 . S
H28 C38 0.929 1_455 S
H29 C30 0.969 . S
C30 H29 0.969 . S
C30 O31 1.550 . S
C30 H32 0.973 . S
O31 C30 1.550 . S
O31 C37 1.412 . S
H32 C30 0.973 . S
C33 H26 0.929 . S
C33 C34 1.400 . S
C33 C35 1.364 . S
C34 C33 1.400 . S
C34 C38 1.377 . S
C35 C33 1.364 . S
C35 C36 1.374 . S
C36 H27 0.930 . S
C36 C35 1.374 . S
C36 C37 1.383 . S
C37 O31 1.412 . S
C37 C36 1.383 . S
C37 C38 1.394 . S
C38 H28 0.929 1_655 S
C38 C34 1.377 . S
C38 C37 1.394 . S
H39 C46 0.929 . S
H40 C49 0.930 . S
H41 C51 0.929 . S
H42 C43 0.969 . S
C43 H42 0.969 . S
C43 O44 1.550 . S
C43 H45 0.973 . S
O44 C43 1.550 . S
O44 C50 1.412 . S
H45 C43 0.973 . S
C46 H39 0.929 . S
C46 C47 1.400 . S
C46 C48 1.364 . S
C47 C46 1.400 . S
C47 C51 1.377 . S
C48 C46 1.364 . S
C48 C49 1.374 . S
C49 H40 0.930 . S
C49 C48 1.374 . S
C49 C50 1.383 . S
C50 O44 1.412 . S
C50 C49 1.383 . S
C50 C51 1.394 . S
C51 H41 0.929 . S
C51 C47 1.377 . S
C51 C50 1.394 . S
H52 C59 0.929 . S
H53 C62 0.930 . S
H54 C64 0.929 . S
H55 C56 0.969 1_655 S
C56 H55 0.969 1_455 S
C56 O57 1.550 . S
C56 H58 0.973 . S
O57 C56 1.550 . S
O57 C63 1.412 . S
H58 C56 0.973 . S
C59 H52 0.929 . S
C59 C60 1.400 . S
C59 C61 1.364 . S
C60 C59 1.400 . S
C60 C64 1.377 1_565 S
C61 C59 1.364 . S
C61 C62 1.374 . S
C62 H53 0.930 . S
C62 C61 1.374 . S
C62 C63 1.383 . S
C63 O57 1.412 . S
C63 C62 1.383 . S
C63 C64 1.394 1_565 S
C64 H54 0.929 . S
C64 C60 1.377 1_545 S
C64 C63 1.394 1_545 S
H65 C72 0.929 . S
H66 C75 0.930 . S
H67 C77 0.929 . S
H68 C69 0.969 . S
C69 H68 0.969 . S
C69 O70 1.550 . S
C69 H71 0.973 . S
O70 C69 1.550 . S
O70 C76 1.412 . S
H71 C69 0.973 . S
C72 H65 0.929 . S
C72 C73 1.400 . S
C72 C74 1.364 . S
C73 C72 1.400 . S
C73 C77 1.377 . S
C74 C72 1.364 . S
C74 C75 1.374 . S
C75 H66 0.930 . S
C75 C74 1.374 . S
C75 C76 1.383 . S
C76 O70 1.412 . S
C76 C75 1.383 . S
C76 C77 1.394 . S
C77 H67 0.929 . S
C77 C73 1.377 . S
C77 C76 1.394 . S
H78 C85 0.929 . S
H79 C88 0.930 . S
H80 C90 0.929 1_455 S
H81 C82 0.996 . S
C82 H81 0.996 . S
C82 O83 1.550 . S
C82 H84 0.973 . S
O83 C82 1.550 . S
O83 C89 1.412 1_455 S
H84 C82 0.973 . S
C85 H78 0.929 . S
C85 C86 1.400 . S
C85 C87 1.364 . S
C86 C85 1.400 . S
C86 C90 1.377 . S
C87 C85 1.364 . S
C87 C88 1.374 . S
C88 H79 0.930 . S
C88 C87 1.374 . S
C88 C89 1.383 . S
C89 O83 1.412 1_655 S
C89 C88 1.383 . S
C89 C90 1.394 . S
C90 H80 0.929 1_655 S
C90 C86 1.377 . S
C90 C89 1.394 . S
H91 C98 0.929 . S
H92 C101 0.930 . S
H93 C103 0.929 . S
H94 C95 0.969 . S
C95 H94 0.969 . S
C95 O96 1.550 . S
C95 H97 0.973 . S
O96 C95 1.550 . S
O96 C102 1.412 . S
H97 C95 0.973 . S
C98 H91 0.929 . S
C98 C99 1.400 . S
C98 C100 1.364 . S
C99 C98 1.400 . S
C99 C103 1.377 . S
C100 C98 1.364 . S
C100 C101 1.374 . S
C101 H92 0.930 . S
C101 C100 1.374 . S
C101 C102 1.383 . S
C102 O96 1.412 . S
C102 C101 1.383 . S
C102 C103 1.394 . S
C103 H93 0.929 . S
C103 C99 1.377 . S
C103 C102 1.394 . S
H104 C111 0.929 . S
H105 C114 0.930 . S
H106 C116 0.929 . S
H107 C108 0.969 . S
C108 H107 0.969 . S
C108 O109 1.550 . S
C108 H110 0.973 . S
O109 C108 1.550 . S
O109 C115 1.412 . S
H110 C108 0.973 . S
C111 H104 0.929 . S
C111 C112 1.400 . S
C111 C113 1.364 . S
C112 C111 1.400 . S
C112 C116 1.377 . S
C113 C111 1.364 . S
C113 C114 1.374 . S
C114 H105 0.930 . S
C114 C113 1.374 . S
C114 C115 1.383 . S
C115 O109 1.412 . S
C115 C114 1.383 . S
C115 C116 1.394 . S
C116 H106 0.929 . S
C116 C112 1.377 . S
C116 C115 1.394 . S
H117 C124 0.929 . S
H118 C127 0.930 . S
H119 C129 0.929 . S
H120 C121 0.969 . S
C121 H120 0.969 . S
C121 O122 1.550 . S
C121 H123 0.973 . S
O122 C121 1.550 . S
O122 C128 1.412 . S
H123 C121 0.973 . S
C124 H117 0.929 . S
C124 C125 1.400 . S
C124 C126 1.364 . S
C125 C124 1.400 . S
C125 C129 1.377 . S
C126 C124 1.364 . S
C126 C127 1.374 . S
C127 H118 0.930 . S
C127 C126 1.374 . S
C127 C128 1.383 . S
C128 O122 1.412 . S
C128 C127 1.383 . S
C128 C129 1.394 . S
C129 H119 0.929 . S
C129 C125 1.377 . S
C129 C128 1.394 . S
H130 C137 0.929 . S
H131 C140 0.930 . S
H132 C142 0.929 . S
H133 C134 0.969 . S
C134 H133 0.969 . S
C134 O135 1.550 . S
C134 H136 0.973 . S
O135 C134 1.550 . S
O135 C141 1.412 . S
H136 C134 0.973 . S
C137 H130 0.929 . S
C137 C138 1.400 . S
C137 C139 1.364 . S
C138 C137 1.400 . S
C138 C142 1.377 . S
C139 C137 1.364 . S
C139 C140 1.374 . S
C140 H131 0.930 . S
C140 C139 1.374 . S
C140 C141 1.383 . S
C141 O135 1.412 . S
C141 C140 1.383 . S
C141 C142 1.394 . S
C142 H132 0.929 . S
C142 C138 1.377 . S
C142 C141 1.394 . S
H143 C150 0.929 . S
H144 C153 0.930 . S
H145 C155 0.929 . S
H146 C147 0.969 . S
C147 H146 0.969 . S
C147 O148 1.550 . S
C147 H149 0.973 . S
O148 C147 1.550 . S
O148 C154 1.412 . S
H149 C147 0.973 . S
C150 H143 0.929 . S
C150 C151 1.400 . S
C150 C152 1.364 . S
C151 C150 1.400 . S
C151 C155 1.377 . S
C152 C150 1.364 . S
C152 C153 1.374 . S
C153 H144 0.930 . S
C153 C152 1.374 . S
C153 C154 1.383 . S
C154 O148 1.412 . S
C154 C153 1.383 . S
C154 C155 1.394 . S
C155 H145 0.929 . S
C155 C151 1.377 . S
C155 C154 1.394 . S
H156 C163 0.929 . S
H157 C166 0.930 . S
H158 C168 0.929 . S
H159 C160 0.969 . S
C160 H159 0.969 . S
C160 O161 1.550 . S
C160 H162 0.973 . S
O161 C160 1.550 . S
O161 C167 1.412 . S
H162 C160 0.973 . S
C163 H156 0.929 . S
C163 C164 1.400 . S
C163 C165 1.364 . S
C164 C163 1.400 . S
C164 C168 1.377 . S
C165 C163 1.364 . S
C165 C166 1.374 . S
C166 H157 0.930 . S
C166 C165 1.374 . S
C166 C167 1.383 . S
C167 O161 1.412 . S
C167 C166 1.383 . S
C167 C168 1.394 . S
C168 H158 0.929 . S
C168 C164 1.377 . S
C168 C167 1.394 . S
H169 C176 0.929 . S
H170 C179 0.930 . S
H171 C181 0.929 . S
H172 C173 0.969 . S
C173 H172 0.969 . S
C173 O174 1.550 . S
C173 H175 0.973 . S
O174 C173 1.550 . S
O174 C180 1.412 . S
H175 C173 0.973 . S
C176 H169 0.929 . S
C176 C177 1.400 . S
C176 C178 1.364 . S
C177 C176 1.400 . S
C177 C181 1.377 . S
C178 C176 1.364 . S
C178 C179 1.374 . S
C179 H170 0.930 . S
C179 C178 1.374 . S
C179 C180 1.383 . S
C180 O174 1.412 . S
C180 C179 1.383 . S
C180 C181 1.394 . S
C181 H171 0.929 . S
C181 C177 1.377 . S
C181 C180 1.394 . S
H182 C189 0.929 . S
H183 C192 0.930 . S
H184 C194 0.929 . S
H185 C186 0.969 . S
C186 H185 0.969 . S
C186 O187 1.550 . S
C186 H188 0.973 . S
O187 C186 1.550 . S
O187 C193 1.412 . S
H188 C186 0.973 . S
C189 H182 0.929 . S
C189 C190 1.400 . S
C189 C191 1.364 . S
C190 C189 1.400 . S
C190 C194 1.377 . S
C191 C189 1.364 . S
C191 C192 1.374 . S
C192 H183 0.930 . S
C192 C191 1.374 . S
C192 C193 1.383 . S
C193 O187 1.412 . S
C193 C192 1.383 . S
C193 C194 1.394 . S
C194 H184 0.929 . S
C194 C190 1.377 . S
C194 C193 1.394 . S
H195 C202 0.929 . S
H196 C205 0.930 . S
H197 C207 0.929 . S
H198 C199 0.969 . S
C199 H198 0.969 . S
C199 O200 1.550 . S
C199 H201 0.973 . S
O200 C199 1.550 . S
O200 C206 1.412 . S
H201 C199 0.973 . S
C202 H195 0.929 . S
C202 C203 1.400 . S
C202 C204 1.364 1_554 S
C203 C202 1.400 . S
C203 C207 1.377 1_554 S
C204 C202 1.364 1_556 S
C204 C205 1.374 . S
C205 H196 0.930 . S
C205 C204 1.374 . S
C205 C206 1.383 . S
C206 O200 1.412 . S
C206 C205 1.383 . S
C206 C207 1.394 . S
C207 H197 0.929 . S
C207 C203 1.377 1_556 S
C207 C206 1.394 . S
C208 O209 1.182 . S
C208 O215 1.170 1_556 S
O209 C208 1.182 . S
O210 Zn211 1.899 1_556 S
O210 C218 1.284 . S
Zn211 O210 1.899 1_554 S
Zn211 O212 2.032 1_554 S
Zn211 O215 2.086 . S
Zn211 O220 1.977 . S
O212 Zn211 2.032 1_556 S
O212 C216 1.280 . S
C213 O214 1.203 . S
C213 O220 1.267 . S
O214 C213 1.203 . S
O215 C208 1.170 1_554 S
O215 Zn211 2.086 . S
C216 O212 1.280 . S
C216 O217 1.206 1_556 S
O217 C216 1.206 1_554 S
C218 O210 1.284 . S
C218 O219 1.273 . S
O219 C218 1.273 . S
O220 Zn211 1.977 . S
O220 C213 1.267 . S
C221 O222 1.160 . S
C221 O228 1.185 . S
O222 C221 1.160 . S
O223 Zn224 1.899 . S
O223 C231 1.284 . S
Zn224 O223 1.899 . S
Zn224 O225 2.032 . S
Zn224 O228 2.086 . S
Zn224 O233 1.977 . S
O225 Zn224 2.032 . S
O225 C229 1.278 . S
C226 O227 1.203 . S
C226 O233 1.267 . S
O227 C226 1.203 . S
O228 C221 1.185 . S
O228 Zn224 2.086 . S
C229 O225 1.278 . S
C229 O230 1.211 . S
O230 C229 1.211 . S
C231 O223 1.284 . S
C231 O232 1.273 . S
O232 C231 1.273 . S
O233 Zn224 1.977 . S
O233 C226 1.267 . S
C234 O235 1.160 . S
C234 O241 1.185 . S
O235 C234 1.160 . S
O236 Zn237 1.899 . S
O236 C244 1.284 1_554 S
Zn237 O236 1.899 . S
Zn237 O238 2.032 . S
Zn237 O241 2.086 . S
Zn237 O246 1.977 . S
O238 Zn237 2.032 . S
O238 C242 1.278 . S
C239 O240 1.203 . S
C239 O246 1.267 . S
O240 C239 1.203 . S
O241 C234 1.185 . S
O241 Zn237 2.086 . S
C242 O238 1.278 . S
C242 O243 1.211 . S
O243 C242 1.211 . S
C244 O236 1.284 1_556 S
C244 O245 1.273 . S
O245 C244 1.273 . S
O246 Zn237 1.977 . S
O246 C239 1.267 . S
C247 O248 1.160 . S
C247 O254 1.185 . S
O248 C247 1.160 . S
O249 Zn250 1.899 . S
O249 C257 1.284 . S
Zn250 O249 1.899 . S
Zn250 O251 2.032 . S
Zn250 O254 2.086 . S
Zn250 O259 1.977 . S
O251 Zn250 2.032 . S
O251 C255 1.278 1_545 S
C252 O253 1.203 . S
C252 O259 1.267 . S
O253 C252 1.203 . S
O254 C247 1.185 . S
O254 Zn250 2.086 . S
C255 O251 1.278 1_565 S
C255 O256 1.211 . S
O256 C255 1.211 . S
C257 O249 1.284 . S
C257 O258 1.273 1_545 S
O258 C257 1.273 1_565 S
O259 Zn250 1.977 . S
O259 C252 1.267 . S
C260 O261 1.160 . S
C260 O267 1.185 . S
O261 C260 1.160 . S
O262 Zn263 1.899 . S
O262 C270 1.284 . S
Zn263 O262 1.899 . S
Zn263 O264 2.032 . S
Zn263 O267 2.086 . S
Zn263 O272 1.977 . S
O264 Zn263 2.032 . S
O264 C268 1.278 . S
C265 O266 1.203 . S
C265 O272 1.267 . S
O266 C265 1.203 . S
O267 C260 1.185 . S
O267 Zn263 2.086 . S
C268 O264 1.278 . S
C268 O269 1.211 . S
O269 C268 1.211 . S
C270 O262 1.284 . S
C270 O271 1.273 . S
O271 C270 1.273 . S
O272 Zn263 1.977 . S
O272 C265 1.267 . S
C273 O274 1.160 . S
C273 O280 1.185 . S
O274 C273 1.160 . S
O275 Zn276 1.899 . S
O275 C283 1.284 . S
Zn276 O275 1.899 . S
Zn276 O277 2.032 . S
Zn276 O280 2.086 . S
Zn276 O285 1.977 . S
O277 Zn276 2.032 . S
O277 C281 1.278 . S
C278 O279 1.203 . S
C278 O285 1.267 . S
O279 C278 1.203 . S
O280 C273 1.185 . S
O280 Zn276 2.086 . S
C281 O277 1.278 . S
C281 O282 1.211 . S
O282 C281 1.211 . S
C283 O275 1.284 . S
C283 O284 1.273 . S
O284 C283 1.273 . S
O285 Zn276 1.977 . S
O285 C278 1.267 . S
C286 O287 1.160 . S
C286 O293 1.185 . S
O287 C286 1.160 . S
O288 Zn289 1.899 . S
O288 C296 1.284 . S
Zn289 O288 1.899 . S
Zn289 O290 2.032 . S
Zn289 O293 2.086 . S
Zn289 O298 1.977 . S
O290 Zn289 2.032 . S
O290 C294 1.278 . S
C291 O292 1.203 . S
C291 O298 1.267 . S
O292 C291 1.203 . S
O293 C286 1.185 . S
O293 Zn289 2.086 . S
C294 O290 1.278 . S
C294 O295 1.211 . S
O295 C294 1.211 . S
C296 O288 1.284 . S
C296 O297 1.273 . S
O297 C296 1.273 . S
O298 Zn289 1.977 . S
O298 C291 1.267 . S
C299 O300 1.160 . S
C299 O306 1.185 . S
O300 C299 1.160 . S
O301 Zn302 1.899 . S
O301 C309 1.284 1_565 S
Zn302 O301 1.899 . S
Zn302 O303 2.032 1_565 S
Zn302 O306 2.086 . S
Zn302 O311 1.977 . S
O303 Zn302 2.032 1_545 S
O303 C307 1.278 . S
C304 O305 1.203 1_565 S
C304 O311 1.267 . S
O305 C304 1.203 1_545 S
O306 C299 1.185 . S
O306 Zn302 2.086 . S
C307 O303 1.278 . S
C307 O308 1.211 . S
O308 C307 1.211 . S
C309 O301 1.284 1_545 S
C309 O310 1.273 . S
O310 C309 1.273 . S
O311 Zn302 1.977 . S
O311 C304 1.267 . S
C312 O313 1.160 . S
C312 O319 1.185 1_655 S
O313 C312 1.160 . S
O314 Zn315 1.899 1_655 S
O314 C322 1.284 . S
Zn315 O314 1.899 1_455 S
Zn315 O316 2.032 1_455 S
Zn315 O319 2.086 . S
Zn315 O324 1.977 . S
O316 Zn315 2.032 1_655 S
O316 C320 1.278 1_655 S
C317 O318 1.203 . S
C317 O324 1.267 . S
O318 C317 1.203 . S
O319 C312 1.185 1_455 S
O319 Zn315 2.086 . S
C320 O316 1.278 1_455 S
C320 O321 1.211 . S
O321 C320 1.211 . S
C322 O314 1.284 . S
C322 O323 1.273 . S
O323 C322 1.273 . S
O324 Zn315 1.977 . S
O324 C317 1.267 . S
C325 O326 1.160 . S
C325 O332 1.185 . S
O326 C325 1.160 . S
O327 Zn328 1.899 . S
O327 C335 1.284 . S
Zn328 O327 1.899 . S
Zn328 O329 2.032 . S
Zn328 O332 2.086 . S
Zn328 O337 1.977 . S
O329 Zn328 2.032 . S
O329 C333 1.278 . S
C330 O331 1.203 . S
C330 O337 1.267 . S
O331 C330 1.203 . S
O332 C325 1.185 . S
O332 Zn328 2.086 . S
C333 O329 1.278 . S
C333 O334 1.211 . S
O334 C333 1.211 . S
C335 O327 1.284 . S
C335 O336 1.273 . S
O336 C335 1.273 . S
O337 Zn328 1.977 . S
O337 C330 1.267 . S
C338 O339 1.160 . S
C338 O345 1.185 . S
O339 C338 1.160 . S
O340 Zn341 1.899 . S
O340 C348 1.284 1_455 S
Zn341 O340 1.899 . S
Zn341 O342 2.032 . S
Zn341 O345 2.086 . S
Zn341 O350 1.977 . S
O342 Zn341 2.032 . S
O342 C346 1.278 . S
C343 O344 1.203 . S
C343 O350 1.267 . S
O344 C343 1.203 . S
O345 C338 1.185 . S
O345 Zn341 2.086 . S
C346 O342 1.278 . S
C346 O347 1.211 . S
O347 C346 1.211 . S
C348 O340 1.284 1_655 S
C348 O349 1.273 . S
O349 C348 1.273 . S
O350 Zn341 1.977 . S
O350 C343 1.267 . S
C351 O352 1.160 . S
C351 O358 1.185 . S
O352 C351 1.160 . S
O353 Zn354 1.899 . S
O353 C361 1.284 . S
Zn354 O353 1.899 . S
Zn354 O355 2.032 . S
Zn354 O358 2.086 . S
Zn354 O363 1.977 . S
O355 Zn354 2.032 . S
O355 C359 1.278 . S
C356 O357 1.203 . S
C356 O363 1.267 . S
O357 C356 1.203 . S
O358 C351 1.185 . S
O358 Zn354 2.086 . S
C359 O355 1.278 . S
C359 O360 1.211 . S
O360 C359 1.211 . S
C361 O353 1.284 . S
C361 O362 1.273 . S
O362 C361 1.273 . S
O363 Zn354 1.977 . S
O363 C356 1.267 . S
H364 C372 0.950 . S
H365 C377 0.950 . S
H366 C374 0.950 . S
H367 C376 0.950 . S
H368 C378 0.950 . S
H369 C380 0.950 . S
H370 C382 0.950 . S
H371 C383 0.950 . S
C372 H364 0.950 . S
C372 C373 1.386 . S
C372 C374 1.391 . S
C373 C372 1.386 . S
C373 C377 1.393 . S
C374 H366 0.950 . S
C374 C372 1.391 . S
C374 C375 1.400 . S
C375 C374 1.400 . S
C375 C376 1.398 . S
C375 C381 1.491 . S
C376 H367 0.950 . S
C376 C375 1.398 . S
C376 C377 1.391 . S
C377 H365 0.950 . S
C377 C373 1.393 . S
C377 C376 1.391 . S
C378 H368 0.950 . S
C378 C379 1.386 . S
C378 C380 1.391 . S
C379 C378 1.386 . S
C379 C383 1.393 . S
C380 H369 0.950 . S
C380 C378 1.391 . S
C380 C381 1.400 . S
C381 C375 1.491 . S
C381 C380 1.400 . S
C381 C382 1.398 . S
C382 H370 0.950 . S
C382 C381 1.398 . S
C382 C383 1.391 . S
C383 H371 0.950 . S
C383 C379 1.393 . S
C383 C382 1.391 . S
H384 C392 0.950 . S
H385 C397 0.950 . S
H386 C394 0.950 . S
H387 C396 0.950 . S
H388 C398 0.950 . S
H389 C400 0.950 . S
H390 C402 0.950 . S
H391 C403 0.950 . S
C392 H384 0.950 . S
C392 C393 1.386 . S
C392 C394 1.391 . S
C393 C392 1.386 . S
C393 C397 1.393 . S
C394 H386 0.950 . S
C394 C392 1.391 . S
C394 C395 1.400 . S
C395 C394 1.400 . S
C395 C396 1.398 . S
C395 C401 1.491 . S
C396 H387 0.950 . S
C396 C395 1.398 . S
C396 C397 1.391 . S
C397 H385 0.950 . S
C397 C393 1.393 . S
C397 C396 1.391 . S
C398 H388 0.950 . S
C398 C399 1.386 . S
C398 C400 1.391 . S
C399 C398 1.386 . S
C399 C403 1.393 . S
C400 H389 0.950 . S
C400 C398 1.391 . S
C400 C401 1.400 . S
C401 C395 1.491 . S
C401 C400 1.400 . S
C401 C402 1.398 . S
C402 H390 0.950 . S
C402 C401 1.398 . S
C402 C403 1.391 . S
C403 H391 0.950 . S
C403 C399 1.393 . S
C403 C402 1.391 . S
H404 C412 0.950 . S
H405 C417 0.950 . S
H406 C414 0.950 . S
H407 C416 0.950 . S
H408 C418 0.950 . S
H409 C420 0.950 . S
H410 C422 0.950 . S
H411 C423 0.950 . S
C412 H404 0.950 . S
C412 C413 1.386 . S
C412 C414 1.391 . S
C413 C412 1.386 . S
C413 C417 1.393 . S
C414 H406 0.950 . S
C414 C412 1.391 . S
C414 C415 1.400 . S
C415 C414 1.400 . S
C415 C416 1.398 . S
C415 C421 1.491 . S
C416 H407 0.950 . S
C416 C415 1.398 . S
C416 C417 1.391 . S
C417 H405 0.950 . S
C417 C413 1.393 . S
C417 C416 1.391 . S
C418 H408 0.950 . S
C418 C419 1.386 . S
C418 C420 1.391 . S
C419 C418 1.386 . S
C419 C423 1.393 . S
C420 H409 0.950 . S
C420 C418 1.391 . S
C420 C421 1.400 . S
C421 C415 1.491 . S
C421 C420 1.400 . S
C421 C422 1.398 . S
C422 H410 0.950 . S
C422 C421 1.398 . S
C422 C423 1.391 . S
C423 H411 0.950 . S
C423 C419 1.393 . S
C423 C422 1.391 . S
H424 C432 0.950 . S
H425 C437 0.950 . S
H426 C434 0.950 . S
H427 C436 0.950 . S
H428 C438 0.950 . S
H429 C440 0.950 . S
H430 C442 0.950 1_565 S
H431 C443 0.950 . S
C432 H424 0.950 . S
C432 C433 1.386 1_455 S
C432 C434 1.391 1_455 S
C433 C432 1.386 1_655 S
C433 C437 1.393 1_565 S
C434 H426 0.950 . S
C434 C432 1.391 1_655 S
C434 C435 1.400 1_565 S
C435 C434 1.400 1_545 S
C435 C436 1.398 . S
C435 C441 1.491 . S
C436 H427 0.950 . S
C436 C435 1.398 . S
C436 C437 1.391 . S
C437 H425 0.950 . S
C437 C433 1.393 1_545 S
C437 C436 1.391 . S
C438 H428 0.950 . S
C438 C439 1.386 . S
C438 C440 1.391 . S
C439 C438 1.386 . S
C439 C443 1.393 . S
C440 H429 0.950 . S
C440 C438 1.391 . S
C440 C441 1.400 . S
C441 C435 1.491 . S
C441 C440 1.400 . S
C441 C442 1.398 . S
C442 H430 0.950 1_545 S
C442 C441 1.398 . S
C442 C443 1.391 . S
C443 H431 0.950 . S
C443 C439 1.393 . S
C443 C442 1.391 . S
H444 C452 0.950 . S
H445 C457 0.950 . S
H446 C454 0.950 . S
H447 C456 0.950 . S
H448 C458 0.950 . S
H449 C460 0.950 . S
H450 C462 0.950 . S
H451 C463 0.950 . S
C452 H444 0.950 . S
C452 C453 1.386 . S
C452 C454 1.391 . S
C453 C452 1.386 . S
C453 C457 1.393 . S
C454 H446 0.950 . S
C454 C452 1.391 . S
C454 C455 1.400 . S
C455 C454 1.400 . S
C455 C456 1.398 . S
C455 C461 1.491 . S
C456 H447 0.950 . S
C456 C455 1.398 . S
C456 C457 1.391 . S
C457 H445 0.950 . S
C457 C453 1.393 . S
C457 C456 1.391 . S
C458 H448 0.950 . S
C458 C459 1.386 . S
C458 C460 1.391 . S
C459 C458 1.386 . S
C459 C463 1.393 . S
C460 H449 0.950 . S
C460 C458 1.391 . S
C460 C461 1.400 . S
C461 C455 1.491 . S
C461 C460 1.400 . S
C461 C462 1.398 . S
C462 H450 0.950 . S
C462 C461 1.398 . S
C462 C463 1.391 . S
C463 H451 0.950 . S
C463 C459 1.393 . S
C463 C462 1.391 . S
H464 C472 0.950 . S
H465 C477 0.950 . S
H466 C474 0.950 . S
H467 C476 0.950 . S
H468 C478 0.950 . S
H469 C480 0.950 . S
H470 C482 0.950 . S
H471 C483 0.950 . S
C472 H464 0.950 . S
C472 C473 1.386 . S
C472 C474 1.391 . S
C473 C472 1.386 . S
C473 C477 1.393 . S
C474 H466 0.950 . S
C474 C472 1.391 . S
C474 C475 1.400 . S
C475 C474 1.400 . S
C475 C476 1.398 . S
C475 C481 1.491 . S
C476 H467 0.950 . S
C476 C475 1.398 . S
C476 C477 1.391 . S
C477 H465 0.950 . S
C477 C473 1.393 . S
C477 C476 1.391 . S
C478 H468 0.950 . S
C478 C479 1.386 . S
C478 C480 1.391 . S
C479 C478 1.386 . S
C479 C483 1.393 . S
C480 H469 0.950 . S
C480 C478 1.391 . S
C480 C481 1.400 . S
C481 C475 1.491 . S
C481 C480 1.400 . S
C481 C482 1.398 . S
C482 H470 0.950 . S
C482 C481 1.398 . S
C482 C483 1.391 . S
C483 H471 0.950 . S
C483 C479 1.393 . S
C483 C482 1.391 . S
H484 C492 0.950 . S
H485 C497 0.950 . S
H486 C494 0.950 . S
H487 C496 0.950 . S
H488 C498 0.950 . S
H489 C500 0.950 . S
H490 C502 0.950 . S
H491 C503 0.950 . S
C492 H484 0.950 . S
C492 C493 1.386 . S
C492 C494 1.391 . S
C493 C492 1.386 . S
C493 C497 1.393 . S
C494 H486 0.950 . S
C494 C492 1.391 . S
C494 C495 1.400 . S
C495 C494 1.400 . S
C495 C496 1.398 . S
C495 C501 1.491 . S
C496 H487 0.950 . S
C496 C495 1.398 . S
C496 C497 1.391 . S
C497 H485 0.950 . S
C497 C493 1.393 . S
C497 C496 1.391 . S
C498 H488 0.950 . S
C498 C499 1.386 . S
C498 C500 1.391 . S
C499 C498 1.386 . S
C499 C503 1.393 . S
C500 H489 0.950 . S
C500 C498 1.391 . S
C500 C501 1.400 . S
C501 C495 1.491 . S
C501 C500 1.400 . S
C501 C502 1.398 . S
C502 H490 0.950 . S
C502 C501 1.398 . S
C502 C503 1.391 . S
C503 H491 0.950 . S
C503 C499 1.393 . S
C503 C502 1.391 . S
H504 C512 0.950 . S
H505 C517 0.950 . S
H506 C514 0.950 . S
H507 C516 0.950 . S
H508 C518 0.950 . S
H509 C520 0.950 . S
H510 C522 0.950 . S
H511 C523 0.950 . S
C512 H504 0.950 . S
C512 C513 1.386 . S
C512 C514 1.391 . S
C513 C512 1.386 . S
C513 C517 1.393 . S
C514 H506 0.950 . S
C514 C512 1.391 . S
C514 C515 1.400 . S
C515 C514 1.400 . S
C515 C516 1.398 . S
C515 C521 1.491 . S
C516 H507 0.950 . S
C516 C515 1.398 . S
C516 C517 1.391 . S
C517 H505 0.950 . S
C517 C513 1.393 . S
C517 C516 1.391 . S
C518 H508 0.950 . S
C518 C519 1.386 . S
C518 C520 1.391 . S
C519 C518 1.386 . S
C519 C523 1.393 . S
C520 H509 0.950 . S
C520 C518 1.391 . S
C520 C521 1.400 . S
C521 C515 1.491 . S
C521 C520 1.400 . S
C521 C522 1.398 . S
C522 H510 0.950 . S
C522 C521 1.398 . S
C522 C523 1.391 . S
C523 H511 0.950 . S
C523 C519 1.393 . S
C523 C522 1.391 . S
H524 C532 0.950 . S
H525 C537 0.950 . S
H526 C534 0.950 . S
H527 C536 0.950 . S
H528 C538 0.950 . S
H529 C540 0.950 . S
H530 C542 0.950 . S
H531 C543 0.950 . S
C532 H524 0.950 . S
C532 C533 1.386 . S
C532 C534 1.391 . S
C533 C532 1.386 . S
C533 C537 1.393 . S
C534 H526 0.950 . S
C534 C532 1.391 . S
C534 C535 1.400 . S
C535 C534 1.400 . S
C535 C536 1.398 . S
C535 C541 1.491 . S
C536 H527 0.950 . S
C536 C535 1.398 . S
C536 C537 1.391 . S
C537 H525 0.950 . S
C537 C533 1.393 . S
C537 C536 1.391 . S
C538 H528 0.950 . S
C538 C539 1.386 . S
C538 C540 1.391 . S
C539 C538 1.386 . S
C539 C543 1.393 . S
C540 H529 0.950 . S
C540 C538 1.391 . S
C540 C541 1.400 . S
C541 C535 1.491 . S
C541 C540 1.400 . S
C541 C542 1.398 . S
C542 H530 0.950 . S
C542 C541 1.398 . S
C542 C543 1.391 . S
C543 H531 0.950 . S
C543 C539 1.393 . S
C543 C542 1.391 . S
H544 C552 0.950 . S
H545 C557 0.950 . S
H546 C554 0.950 . S
H547 C556 0.950 . S
H548 C558 0.950 . S
H549 C560 0.950 . S
H550 C562 0.950 . S
H551 C563 0.950 . S
C552 H544 0.950 . S
C552 C553 1.386 . S
C552 C554 1.391 . S
C553 C552 1.386 . S
C553 C557 1.393 . S
C554 H546 0.950 . S
C554 C552 1.391 . S
C554 C555 1.400 . S
C555 C554 1.400 . S
C555 C556 1.398 . S
C555 C561 1.491 . S
C556 H547 0.950 . S
C556 C555 1.398 . S
C556 C557 1.391 . S
C557 H545 0.950 . S
C557 C553 1.393 . S
C557 C556 1.391 . S
C558 H548 0.950 . S
C558 C559 1.386 . S
C558 C560 1.391 . S
C559 C558 1.386 . S
C559 C563 1.393 . S
C560 H549 0.950 . S
C560 C558 1.391 . S
C560 C561 1.400 . S
C561 C555 1.491 . S
C561 C560 1.400 . S
C561 C562 1.398 . S
C562 H550 0.950 . S
C562 C561 1.398 . S
C562 C563 1.391 . S
C563 H551 0.950 . S
C563 C559 1.393 . S
C563 C562 1.391 . S
H564 C572 0.950 . S
H565 C577 0.950 . S
H566 C574 0.950 . S
H567 C576 0.950 . S
H568 C578 0.950 . S
H569 C580 0.950 . S
H570 C582 0.950 . S
H571 C583 0.950 . S
C572 H564 0.950 . S
C572 C573 1.386 . S
C572 C574 1.391 . S
C573 C572 1.386 . S
C573 C577 1.393 . S
C574 H566 0.950 . S
C574 C572 1.391 . S
C574 C575 1.400 . S
C575 C574 1.400 . S
C575 C576 1.398 . S
C575 C581 1.491 . S
C576 H567 0.950 . S
C576 C575 1.398 . S
C576 C577 1.391 . S
C577 H565 0.950 . S
C577 C573 1.393 . S
C577 C576 1.391 . S
C578 H568 0.950 . S
C578 C579 1.386 . S
C578 C580 1.391 . S
C579 C578 1.386 . S
C579 C583 1.393 . S
C580 H569 0.950 . S
C580 C578 1.391 . S
C580 C581 1.400 . S
C581 C575 1.491 . S
C581 C580 1.400 . S
C581 C582 1.398 . S
C582 H570 0.950 . S
C582 C581 1.398 . S
C582 C583 1.391 . S
C583 H571 0.950 . S
C583 C579 1.393 . S
C583 C582 1.391 . S
H584 C592 0.950 . S
H585 C597 0.950 . S
H586 C594 0.950 . S
H587 C596 0.950 . S
H588 C598 0.950 . S
H589 C600 0.950 . S
H590 C602 0.950 . S
H591 C603 0.950 . S
C592 H584 0.950 . S
C592 C593 1.386 . S
C592 C594 1.391 . S
C593 C592 1.386 . S
C593 C597 1.393 . S
C594 H586 0.950 . S
C594 C592 1.391 . S
C594 C595 1.400 . S
C595 C594 1.400 . S
C595 C596 1.398 . S
C595 C601 1.491 . S
C596 H587 0.950 . S
C596 C595 1.398 . S
C596 C597 1.391 . S
C597 H585 0.950 . S
C597 C593 1.393 . S
C597 C596 1.391 . S
C598 H588 0.950 . S
C598 C599 1.386 . S
C598 C600 1.391 . S
C599 C598 1.386 . S
C599 C603 1.393 . S
C600 H589 0.950 . S
C600 C598 1.391 . S
C600 C601 1.400 . S
C601 C595 1.491 . S
C601 C600 1.400 . S
C601 C602 1.398 . S
C602 H590 0.950 . S
C602 C601 1.398 . S
C602 C603 1.391 . S
C603 H591 0.950 . S
C603 C599 1.393 . S
C603 C602 1.391 . S
H604 C612 0.950 . S
H605 C617 0.950 . S
H606 C614 0.950 . S
H607 C616 0.950 . S
H608 C618 0.950 . S
H609 C620 0.950 . S
H610 C622 0.950 . S
H611 C623 0.950 . S
C612 H604 0.950 . S
C612 C613 1.386 . S
C612 C614 1.391 . S
C613 C612 1.386 . S
C613 C617 1.393 . S
C614 H606 0.950 . S
C614 C612 1.391 . S
C614 C615 1.400 . S
C615 C614 1.400 . S
C615 C616 1.398 . S
C615 C621 1.491 . S
C616 H607 0.950 . S
C616 C615 1.398 . S
C616 C617 1.391 . S
C617 H605 0.950 . S
C617 C613 1.393 . S
C617 C616 1.391 . S
C618 H608 0.950 . S
C618 C619 1.386 . S
C618 C620 1.391 . S
C619 C618 1.386 . S
C619 C623 1.393 . S
C620 H609 0.950 . S
C620 C618 1.391 . S
C620 C621 1.400 . S
C621 C615 1.491 . S
C621 C620 1.400 . S
C621 C622 1.398 . S
C622 H610 0.950 . S
C622 C621 1.398 . S
C622 C623 1.391 . S
C623 H611 0.950 . S
C623 C619 1.393 . S
C623 C622 1.391 . S
H624 C632 0.950 . S
H625 C637 0.950 . S
H626 C634 0.950 . S
H627 C636 0.950 . S
H628 C638 0.950 . S
H629 C640 0.950 . S
H630 C642 0.944 1_655 S
H631 C643 0.950 1_655 S
C632 H624 0.950 . S
C632 C633 1.386 . S
C632 C634 1.391 . S
C633 C632 1.386 . S
C633 C637 1.393 . S
C634 H626 0.950 . S
C634 C632 1.391 . S
C634 C635 1.400 . S
C635 C634 1.400 . S
C635 C636 1.398 . S
C635 C641 1.491 . S
C636 H627 0.950 . S
C636 C635 1.398 . S
C636 C637 1.391 . S
C637 H625 0.950 . S
C637 C633 1.393 . S
C637 C636 1.391 . S
C638 H628 0.950 . S
C638 C639 1.386 . S
C638 C640 1.391 . S
C639 C638 1.386 . S
C639 C643 1.393 . S
C640 H629 0.950 . S
C640 C638 1.391 . S
C640 C641 1.400 . S
C641 C635 1.491 . S
C641 C640 1.400 . S
C641 C642 1.398 . S
C642 H630 0.944 1_455 S
C642 C641 1.398 . S
C642 C643 1.391 . S
C643 H631 0.950 1_455 S
C643 C639 1.393 . S
C643 C642 1.391 . S
H644 C652 0.950 . S
H645 C657 0.950 . S
H646 C654 0.950 . S
H647 C656 0.950 . S
H648 C658 0.950 . S
H649 C660 0.950 . S
H650 C662 0.950 . S
H651 C663 0.950 . S
C652 H644 0.950 . S
C652 C653 1.386 . S
C652 C654 1.391 . S
C653 C652 1.386 . S
C653 C657 1.393 . S
C654 H646 0.950 . S
C654 C652 1.391 . S
C654 C655 1.400 . S
C655 C654 1.400 . S
C655 C656 1.398 . S
C655 C661 1.491 . S
C656 H647 0.950 . S
C656 C655 1.398 . S
C656 C657 1.391 . S
C657 H645 0.950 . S
C657 C653 1.393 . S
C657 C656 1.391 . S
C658 H648 0.950 . S
C658 C659 1.386 . S
C658 C660 1.391 . S
C659 C658 1.386 . S
C659 C663 1.393 . S
C660 H649 0.950 . S
C660 C658 1.391 . S
C660 C661 1.400 . S
C661 C655 1.491 . S
C661 C660 1.400 . S
C661 C662 1.398 . S
C662 H650 0.950 . S
C662 C661 1.398 . S
C662 C663 1.391 . S
C663 H651 0.950 . S
C663 C659 1.393 . S
C663 C662 1.391 . S
H664 C672 0.950 . S
H665 C677 0.950 . S
H666 C674 0.950 . S
H667 C676 0.950 . S
H668 C678 0.950 . S
H669 C680 0.950 . S
H670 C682 0.950 . S
H671 C683 0.950 . S
C672 H664 0.950 . S
C672 C673 1.386 . S
C672 C674 1.391 . S
C673 C672 1.386 . S
C673 C677 1.393 1_655 S
C674 H666 0.950 . S
C674 C672 1.391 . S
C674 C675 1.400 . S
C675 C674 1.400 . S
C675 C676 1.398 1_655 S
C675 C681 1.491 . S
C676 H667 0.950 . S
C676 C675 1.398 1_455 S
C676 C677 1.391 . S
C677 H665 0.950 . S
C677 C673 1.393 1_455 S
C677 C676 1.391 . S
C678 H668 0.950 . S
C678 C679 1.386 . S
C678 C680 1.391 . S
C679 C678 1.386 . S
C679 C683 1.393 1_455 S
C680 H669 0.950 . S
C680 C678 1.391 . S
C680 C681 1.400 1_455 S
C681 C675 1.491 . S
C681 C680 1.400 1_655 S
C681 C682 1.398 . S
C682 H670 0.950 . S
C682 C681 1.398 . S
C682 C683 1.391 . S
C683 H671 0.950 . S
C683 C679 1.393 1_655 S
C683 C682 1.391 . S
H684 C692 0.950 . S
H685 C697 0.950 . S
H686 C694 0.950 . S
H687 C696 0.950 . S
H688 C698 0.950 . S
H689 C700 0.950 . S
H690 C702 0.950 . S
H691 C703 0.950 . S
C692 H684 0.950 . S
C692 C693 1.386 . S
C692 C694 1.391 . S
C693 C692 1.386 . S
C693 C697 1.393 . S
C694 H686 0.950 . S
C694 C692 1.391 . S
C694 C695 1.400 . S
C695 C694 1.400 . S
C695 C696 1.398 . S
C695 C701 1.491 . S
C696 H687 0.950 . S
C696 C695 1.398 . S
C696 C697 1.391 . S
C697 H685 0.950 . S
C697 C693 1.393 . S
C697 C696 1.391 . S
C698 H688 0.950 . S
C698 C699 1.386 . S
C698 C700 1.391 . S
C699 C698 1.386 . S
C699 C703 1.393 . S
C700 H689 0.950 . S
C700 C698 1.391 . S
C700 C701 1.400 . S
C701 C695 1.491 . S
C701 C700 1.400 . S
C701 C702 1.398 . S
C702 H690 0.950 . S
C702 C701 1.398 . S
C702 C703 1.391 . S
C703 H691 0.950 . S
C703 C699 1.393 . S
C703 C702 1.391 . S
H704 C712 0.950 . S
H705 C717 0.950 . S
H706 C714 0.950 . S
H707 C716 0.950 . S
H708 C718 0.950 . S
H709 C720 0.950 . S
H710 C722 0.950 . S
H711 C723 0.950 . S
C712 H704 0.950 . S
C712 C713 1.386 . S
C712 C714 1.391 . S
C713 C712 1.386 . S
C713 C717 1.393 . S
C714 H706 0.950 . S
C714 C712 1.391 . S
C714 C715 1.400 . S
C715 C714 1.400 . S
C715 C716 1.398 . S
C715 C721 1.491 . S
C716 H707 0.950 . S
C716 C715 1.398 . S
C716 C717 1.391 . S
C717 H705 0.950 . S
C717 C713 1.393 . S
C717 C716 1.391 . S
C718 H708 0.950 . S
C718 C719 1.386 . S
C718 C720 1.391 . S
C719 C718 1.386 . S
C719 C723 1.393 . S
C720 H709 0.950 . S
C720 C718 1.391 . S
C720 C721 1.400 . S
C721 C715 1.491 . S
C721 C720 1.400 . S
C721 C722 1.398 . S
C722 H710 0.950 . S
C722 C721 1.398 . S
C722 C723 1.391 . S
C723 H711 0.950 . S
C723 C719 1.393 . S
C723 C722 1.391 . S
H724 C732 0.950 1_565 S
H725 C737 0.950 . S
H726 C734 0.950 . S
H727 C736 0.950 . S
H728 C738 0.950 . S
H729 C740 0.950 1_545 S
H730 C742 0.950 . S
H731 C743 0.950 . S
C732 H724 0.950 1_545 S
C732 C733 1.386 1_554 S
C732 C734 1.391 1_545 S
C733 C732 1.386 1_556 S
C733 C737 1.393 . S
C734 H726 0.950 . S
C734 C732 1.391 1_565 S
C734 C735 1.400 1_554 S
C735 C734 1.400 1_556 S
C735 C736 1.398 1_565 S
C735 C741 1.491 . S
C736 H727 0.950 . S
C736 C735 1.398 1_545 S
C736 C737 1.391 . S
C737 H725 0.950 . S
C737 C733 1.393 . S
C737 C736 1.391 . S
C738 H728 0.950 . S
C738 C739 1.386 . S
C738 C740 1.391 . S
C739 C738 1.386 . S
C739 C743 1.393 1_556 S
C740 H729 0.950 1_565 S
C740 C738 1.391 . S
C740 C741 1.400 . S
C741 C735 1.491 . S
C741 C740 1.400 . S
C741 C742 1.398 1_556 S
C742 H730 0.950 . S
C742 C741 1.398 1_554 S
C742 C743 1.391 . S
C743 H731 0.950 . S
C743 C739 1.393 1_554 S
C743 C742 1.391 . S
H744 C752 0.950 . S
H745 C757 0.950 . S
H746 C754 0.950 . S
H747 C756 0.950 . S
H748 C758 0.950 . S
H749 C760 0.950 . S
H750 C762 0.950 . S
H751 C763 0.950 . S
C752 H744 0.950 . S
C752 C753 1.386 . S
C752 C754 1.391 . S
C753 C752 1.386 . S
C753 C757 1.393 . S
C754 H746 0.950 . S
C754 C752 1.391 . S
C754 C755 1.400 . S
C755 C754 1.400 . S
C755 C756 1.398 . S
C755 C761 1.491 . S
C756 H747 0.950 . S
C756 C755 1.398 . S
C756 C757 1.391 . S
C757 H745 0.950 . S
C757 C753 1.393 . S
C757 C756 1.391 . S
C758 H748 0.950 . S
C758 C759 1.386 . S
C758 C760 1.391 . S
C759 C758 1.386 . S
C759 C763 1.393 . S
C760 H749 0.950 . S
C760 C758 1.391 . S
C760 C761 1.400 . S
C761 C755 1.491 . S
C761 C760 1.400 . S
C761 C762 1.398 . S
C762 H750 0.950 . S
C762 C761 1.398 . S
C762 C763 1.391 . S
C763 H751 0.950 . S
C763 C759 1.393 . S
C763 C762 1.391 . S
H764 C772 0.950 1_565 S
H765 C777 0.950 . S
H766 C774 0.950 . S
H767 C776 0.950 . S
H768 C778 0.950 . S
H769 C780 0.950 . S
H770 C782 0.950 . S
H771 C783 0.950 . S
C772 H764 0.950 1_545 S
C772 C773 1.386 . S
C772 C774 1.391 . S
C773 C772 1.386 . S
C773 C777 1.393 . S
C774 H766 0.950 . S
C774 C772 1.391 . S
C774 C775 1.400 . S
C775 C774 1.400 . S
C775 C776 1.398 . S
C775 C781 1.491 . S
C776 H767 0.950 . S
C776 C775 1.398 . S
C776 C777 1.391 . S
C777 H765 0.950 . S
C777 C773 1.393 . S
C777 C776 1.391 . S
C778 H768 0.950 . S
C778 C779 1.386 . S
C778 C780 1.391 . S
C779 C778 1.386 . S
C779 C783 1.393 . S
C780 H769 0.950 . S
C780 C778 1.391 . S
C780 C781 1.400 . S
C781 C775 1.491 . S
C781 C780 1.400 . S
C781 C782 1.398 . S
C782 H770 0.950 . S
C782 C781 1.398 . S
C782 C783 1.391 . S
C783 H771 0.950 . S
C783 C779 1.393 . S
C783 C782 1.391 . S
H784 C792 0.950 . S
H785 C797 0.950 . S
H786 C794 0.950 . S
H787 C796 0.950 . S
H788 C798 0.950 . S
H789 C800 0.950 . S
H790 C802 0.950 . S
H791 C803 0.950 . S
C792 H784 0.950 . S
C792 C793 1.386 . S
C792 C794 1.391 . S
C793 C792 1.386 . S
C793 C797 1.393 . S
C794 H786 0.950 . S
C794 C792 1.391 . S
C794 C795 1.400 . S
C795 C794 1.400 . S
C795 C796 1.398 . S
C795 C801 1.491 . S
C796 H787 0.950 . S
C796 C795 1.398 . S
C796 C797 1.391 . S
C797 H785 0.950 . S
C797 C793 1.393 . S
C797 C796 1.391 . S
C798 H788 0.950 . S
C798 C799 1.386 . S
C798 C800 1.391 . S
C799 C798 1.386 . S
C799 C803 1.393 . S
C800 H789 0.950 . S
C800 C798 1.391 . S
C800 C801 1.400 . S
C801 C795 1.491 . S
C801 C800 1.400 . S
C801 C802 1.398 . S
C802 H790 0.950 . S
C802 C801 1.398 . S
C802 C803 1.391 . S
C803 H791 0.950 . S
C803 C799 1.393 . S
C803 C802 1.391 . S
H804 C812 0.950 . S
H805 C817 0.950 . S
H806 C814 0.950 . S
H807 C816 0.950 . S
H808 C818 0.950 . S
H809 C820 0.950 . S
H810 C822 0.950 . S
H811 C823 0.950 . S
C812 H804 0.950 . S
C812 C813 1.386 . S
C812 C814 1.391 1_565 S
C813 C812 1.386 . S
C813 C817 1.388 1_565 S
C814 H806 0.950 . S
C814 C812 1.391 1_545 S
C814 C815 1.400 . S
C815 C814 1.400 . S
C815 C816 1.398 . S
C815 C821 1.491 . S
C816 H807 0.950 . S
C816 C815 1.398 . S
C816 C817 1.391 . S
C817 H805 0.950 . S
C817 C813 1.388 1_545 S
C817 C816 1.391 . S
C818 H808 0.950 . S
C818 C819 1.386 . S
C818 C820 1.391 . S
C819 C818 1.386 . S
C819 C823 1.393 . S
C820 H809 0.950 . S
C820 C818 1.391 . S
C820 C821 1.400 . S
C821 C815 1.491 . S
C821 C820 1.400 . S
C821 C822 1.398 . S
C822 H810 0.950 . S
C822 C821 1.398 . S
C822 C823 1.391 . S
C823 H811 0.950 . S
C823 C819 1.393 . S
C823 C822 1.391 . S
H824 C832 0.950 . S
H825 C837 0.950 . S
H826 C834 0.950 . S
H827 C836 0.950 . S
H828 C838 0.950 . S
H829 C840 0.950 . S
H830 C842 0.950 . S
H831 C843 0.950 . S
C832 H824 0.950 . S
C832 C833 1.386 . S
C832 C834 1.391 . S
C833 C832 1.386 . S
C833 C837 1.393 . S
C834 H826 0.950 . S
C834 C832 1.391 . S
C834 C835 1.400 . S
C835 C834 1.400 . S
C835 C836 1.398 . S
C835 C841 1.491 . S
C836 H827 0.950 . S
C836 C835 1.398 . S
C836 C837 1.391 . S
C837 H825 0.950 . S
C837 C833 1.393 . S
C837 C836 1.391 . S
C838 H828 0.950 . S
C838 C839 1.386 . S
C838 C840 1.391 . S
C839 C838 1.386 . S
C839 C843 1.393 . S
C840 H829 0.950 . S
C840 C838 1.391 . S
C840 C841 1.400 . S
C841 C835 1.491 . S
C841 C840 1.400 . S
C841 C842 1.398 . S
C842 H830 0.950 . S
C842 C841 1.398 . S
C842 C843 1.391 . S
C843 H831 0.950 . S
C843 C839 1.393 . S
C843 C842 1.391 . S
H844 C852 0.950 . S
H845 C857 0.950 . S
H846 C854 0.950 . S
H847 C856 0.950 . S
H848 C858 0.950 . S
H849 C860 0.950 . S
H850 C862 0.950 . S
H851 C863 0.950 . S
C852 H844 0.950 . S
C852 C853 1.386 . S
C852 C854 1.391 . S
C853 C852 1.386 . S
C853 C857 1.393 . S
C854 H846 0.950 . S
C854 C852 1.391 . S
C854 C855 1.400 . S
C855 C854 1.400 . S
C855 C856 1.398 . S
C855 C861 1.491 . S
C856 H847 0.950 . S
C856 C855 1.398 . S
C856 C857 1.391 . S
C857 H845 0.950 . S
C857 C853 1.393 . S
C857 C856 1.391 . S
C858 H848 0.950 . S
C858 C859 1.386 . S
C858 C860 1.391 . S
C859 C858 1.386 . S
C859 C863 1.393 . S
C860 H849 0.950 . S
C860 C858 1.391 . S
C860 C861 1.400 . S
C861 C855 1.491 . S
C861 C860 1.400 . S
C861 C862 1.398 . S
C862 H850 0.950 . S
C862 C861 1.398 . S
C862 C863 1.391 . S
C863 H851 0.950 . S
C863 C859 1.393 . S
C863 C862 1.391 . S
H864 C872 0.950 . S
H865 C877 0.950 . S
H866 C874 0.950 . S
H867 C876 0.950 . S
H868 C878 0.950 . S
H869 C880 0.950 . S
H870 C882 0.950 . S
H871 C883 0.950 . S
C872 H864 0.950 . S
C872 C873 1.386 . S
C872 C874 1.391 . S
C873 C872 1.386 . S
C873 C877 1.393 . S
C874 H866 0.950 . S
C874 C872 1.391 . S
C874 C875 1.400 . S
C875 C874 1.400 . S
C875 C876 1.398 . S
C875 C881 1.491 . S
C876 H867 0.950 . S
C876 C875 1.398 . S
C876 C877 1.391 . S
C877 H865 0.950 . S
C877 C873 1.393 . S
C877 C876 1.391 . S
C878 H868 0.950 . S
C878 C879 1.386 . S
C878 C880 1.391 . S
C879 C878 1.386 . S
C879 C883 1.393 . S
C880 H869 0.950 . S
C880 C878 1.391 . S
C880 C881 1.400 . S
C881 C875 1.491 . S
C881 C880 1.400 . S
C881 C882 1.398 . S
C882 H870 0.950 . S
C882 C881 1.398 . S
C882 C883 1.391 . S
C883 H871 0.950 . S
C883 C879 1.393 . S
C883 C882 1.391 . S
H884 C892 0.950 . S
H885 C897 0.950 . S
H886 C894 0.950 . S
H887 C896 0.950 . S
H888 C898 0.950 . S
H889 C900 0.950 . S
H890 C902 0.950 . S
H891 C903 0.950 . S
C892 H884 0.950 . S
C892 C893 1.386 . S
C892 C894 1.391 . S
C893 C892 1.386 . S
C893 C897 1.393 . S
C894 H886 0.950 . S
C894 C892 1.391 . S
C894 C895 1.400 . S
C895 C894 1.400 . S
C895 C896 1.398 . S
C895 C901 1.491 . S
C896 H887 0.950 . S
C896 C895 1.398 . S
C896 C897 1.391 . S
C897 H885 0.950 . S
C897 C893 1.393 . S
C897 C896 1.391 . S
C898 H888 0.950 . S
C898 C899 1.386 . S
C898 C900 1.391 . S
C899 C898 1.386 . S
C899 C903 1.393 . S
C900 H889 0.950 . S
C900 C898 1.391 . S
C900 C901 1.400 . S
C901 C895 1.491 . S
C901 C900 1.400 . S
C901 C902 1.398 . S
C902 H890 0.950 . S
C902 C901 1.398 . S
C902 C903 1.391 . S
C903 H891 0.950 . S
C903 C899 1.393 . S
C903 C902 1.391 . S
H904 C912 0.950 . S
H905 C917 0.950 . S
H906 C914 0.950 . S
H907 C916 0.950 . S
H908 C918 0.950 . S
H909 C920 0.950 . S
H910 C922 0.950 . S
H911 C923 0.950 . S
C912 H904 0.950 . S
C912 C913 1.386 . S
C912 C914 1.391 . S
C913 C912 1.386 . S
C913 C917 1.393 . S
C914 H906 0.950 . S
C914 C912 1.391 . S
C914 C915 1.400 . S
C915 C914 1.400 . S
C915 C916 1.398 . S
C915 C921 1.491 . S
C916 H907 0.950 . S
C916 C915 1.398 . S
C916 C917 1.391 . S
C917 H905 0.950 . S
C917 C913 1.393 . S
C917 C916 1.391 . S
C918 H908 0.950 . S
C918 C919 1.386 . S
C918 C920 1.391 . S
C919 C918 1.386 . S
C919 C923 1.393 . S
C920 H909 0.950 . S
C920 C918 1.391 . S
C920 C921 1.400 . S
C921 C915 1.491 . S
C921 C920 1.400 . S
C921 C922 1.398 . S
C922 H910 0.950 . S
C922 C921 1.398 . S
C922 C923 1.391 . S
C923 H911 0.950 . S
C923 C919 1.393 . S
C923 C922 1.391 . S
H924 C932 0.950 . S
H925 C937 0.950 . S
H926 C934 0.950 . S
H927 C936 0.950 . S
H928 C938 0.950 . S
H929 C940 0.950 . S
H930 C942 0.950 . S
H931 C943 0.950 . S
C932 H924 0.950 . S
C932 C933 1.386 . S
C932 C934 1.391 . S
C933 C932 1.386 . S
C933 C937 1.393 . S
C934 H926 0.950 . S
C934 C932 1.391 . S
C934 C935 1.400 . S
C935 C934 1.400 . S
C935 C936 1.398 . S
C935 C941 1.491 . S
C936 H927 0.950 . S
C936 C935 1.398 . S
C936 C937 1.391 . S
C937 H925 0.950 . S
C937 C933 1.393 . S
C937 C936 1.391 . S
C938 H928 0.950 . S
C938 C939 1.386 . S
C938 C940 1.391 . S
C939 C938 1.386 . S
C939 C943 1.393 . S
C940 H929 0.950 . S
C940 C938 1.391 . S
C940 C941 1.400 . S
C941 C935 1.491 . S
C941 C940 1.400 . S
C941 C942 1.398 . S
C942 H930 0.950 . S
C942 C941 1.398 . S
C942 C943 1.391 . S
C943 H931 0.950 . S
C943 C939 1.393 . S
C943 C942 1.391 . S
H944 C952 0.950 . S
H945 C957 0.952 . S
H946 C954 0.950 . S
H947 C956 0.950 . S
H948 C958 0.950 . S
H949 C960 0.950 . S
H950 C962 0.950 . S
H951 C963 0.950 . S
C952 H944 0.950 . S
C952 C953 1.386 . S
C952 C954 1.391 . S
C953 C952 1.386 . S
C953 C957 1.393 1_655 S
C954 H946 0.950 . S
C954 C952 1.391 . S
C954 C955 1.400 . S
C955 C954 1.400 . S
C955 C956 1.398 . S
C955 C961 1.491 . S
C956 H947 0.950 . S
C956 C955 1.398 . S
C956 C957 1.388 1_655 S
C957 H945 0.952 . S
C957 C953 1.393 1_455 S
C957 C956 1.388 1_455 S
C958 H948 0.950 . S
C958 C959 1.386 . S
C958 C960 1.391 . S
C959 C958 1.386 . S
C959 C963 1.393 . S
C960 H949 0.950 . S
C960 C958 1.391 . S
C960 C961 1.400 . S
C961 C955 1.491 . S
C961 C960 1.400 . S
C961 C962 1.398 . S
C962 H950 0.950 . S
C962 C961 1.398 . S
C962 C963 1.391 . S
C963 H951 0.950 . S
C963 C959 1.393 . S
C963 C962 1.391 . S
H964 C972 0.950 . S
H965 C977 0.950 . S
H966 C974 0.950 . S
H967 C976 0.950 . S
H968 C978 0.950 . S
H969 C980 0.950 . S
H970 C982 0.950 . S
H971 C983 0.950 . S
C972 H964 0.950 . S
C972 C973 1.386 . S
C972 C974 1.391 . S
C973 C972 1.386 . S
C973 C977 1.393 . S
C974 H966 0.950 . S
C974 C972 1.391 . S
C974 C975 1.400 . S
C975 C974 1.400 . S
C975 C976 1.398 . S
C975 C981 1.491 . S
C976 H967 0.950 . S
C976 C975 1.398 . S
C976 C977 1.391 . S
C977 H965 0.950 . S
C977 C973 1.393 . S
C977 C976 1.391 . S
C978 H968 0.950 . S
C978 C979 1.386 . S
C978 C980 1.391 . S
C979 C978 1.386 . S
C979 C983 1.393 . S
C980 H969 0.950 . S
C980 C978 1.391 . S
C980 C981 1.400 . S
C981 C975 1.491 . S
C981 C980 1.400 . S
C981 C982 1.398 . S
C982 H970 0.950 . S
C982 C981 1.398 . S
C982 C983 1.391 . S
C983 H971 0.950 . S
C983 C979 1.393 . S
C983 C982 1.391 . S
H984 C992 0.950 1_655 S
H985 C997 0.950 . S
H986 C994 0.950 . S
H987 C996 0.950 . S
H988 C998 0.950 . S
H989 C1000 0.950 . S
H990 C1002 0.950 . S
H991 C1003 0.950 . S
C992 H984 0.950 1_455 S
C992 C993 1.386 . S
C992 C994 1.391 . S
C993 C992 1.386 . S
C993 C997 1.393 . S
C994 H986 0.950 . S
C994 C992 1.391 . S
C994 C995 1.400 . S
C995 C994 1.400 . S
C995 C996 1.398 . S
C995 C1001 1.491 . S
C996 H987 0.950 . S
C996 C995 1.398 . S
C996 C997 1.391 . S
C997 H985 0.950 . S
C997 C993 1.393 . S
C997 C996 1.391 . S
C998 H988 0.950 . S
C998 C999 1.386 . S
C998 C1000 1.391 . S
C999 C998 1.386 . S
C999 C1003 1.393 . S
C1000 H989 0.950 . S
C1000 C998 1.391 . S
C1000 C1001 1.400 . S
C1001 C995 1.491 . S
C1001 C1000 1.400 . S
C1001 C1002 1.398 . S
C1002 H990 0.950 . S
C1002 C1001 1.398 . S
C1002 C1003 1.391 . S
C1003 H991 0.950 . S
C1003 C999 1.393 . S
C1003 C1002 1.391 . S
H1004 C1012 0.950 . S
H1005 C1017 0.950 . S
H1006 C1014 0.950 . S
H1007 C1016 0.950 . S
H1008 C1018 0.950 . S
H1009 C1020 0.950 . S
H1010 C1022 0.950 . S
H1011 C1023 0.950 . S
C1012 H1004 0.950 . S
C1012 C1013 1.386 . S
C1012 C1014 1.391 . S
C1013 C1012 1.386 . S
C1013 C1017 1.393 . S
C1014 H1006 0.950 . S
C1014 C1012 1.391 . S
C1014 C1015 1.400 . S
C1015 C1014 1.400 . S
C1015 C1016 1.398 . S
C1015 C1021 1.491 . S
C1016 H1007 0.950 . S
C1016 C1015 1.398 . S
C1016 C1017 1.391 . S
C1017 H1005 0.950 . S
C1017 C1013 1.393 . S
C1017 C1016 1.391 . S
C1018 H1008 0.950 . S
C1018 C1019 1.386 . S
C1018 C1020 1.391 . S
C1019 C1018 1.386 . S
C1019 C1023 1.393 . S
C1020 H1009 0.950 . S
C1020 C1018 1.391 . S
C1020 C1021 1.400 . S
C1021 C1015 1.491 . S
C1021 C1020 1.400 . S
C1021 C1022 1.398 . S
C1022 H1010 0.950 . S
C1022 C1021 1.398 . S
C1022 C1023 1.391 . S
C1023 H1011 0.950 . S
C1023 C1019 1.393 . S
C1023 C1022 1.391 . S
H1024 C1032 0.950 1_554 S
H1025 C1037 0.950 . S
H1026 C1034 0.950 . S
H1027 C1036 0.950 . S
H1028 C1038 0.950 . S
H1029 C1040 0.950 . S
H1030 C1042 0.950 . S
H1031 C1043 0.950 . S
C1032 H1024 0.950 1_556 S
C1032 C1033 1.386 1_456 S
C1032 C1034 1.391 . S
C1033 C1032 1.386 1_654 S
C1033 C1037 1.393 . S
C1034 H1026 0.950 . S
C1034 C1032 1.391 . S
C1034 C1035 1.400 1_455 S
C1035 C1034 1.400 1_655 S
C1035 C1036 1.398 . S
C1035 C1041 1.491 . S
C1036 H1027 0.950 . S
C1036 C1035 1.398 . S
C1036 C1037 1.391 1_556 S
C1037 H1025 0.950 . S
C1037 C1033 1.393 . S
C1037 C1036 1.391 1_554 S
C1038 H1028 0.950 . S
C1038 C1039 1.386 . S
C1038 C1040 1.391 . S
C1039 C1038 1.386 . S
C1039 C1043 1.393 1_655 S
C1040 H1029 0.950 . S
C1040 C1038 1.391 . S
C1040 C1041 1.400 . S
C1041 C1035 1.491 . S
C1041 C1040 1.400 . S
C1041 C1042 1.398 1_655 S
C1042 H1030 0.950 . S
C1042 C1041 1.398 1_455 S
C1042 C1043 1.391 . S
C1043 H1031 0.950 . S
C1043 C1039 1.393 1_455 S
C1043 C1042 1.391 . S
H1044 C1052 0.950 . S
H1045 C1057 0.950 . S
H1046 C1054 0.950 . S
H1047 C1056 0.950 . S
H1048 C1058 0.950 . S
H1049 C1060 0.950 . S
H1050 C1062 0.950 . S
H1051 C1063 0.950 . S
C1052 H1044 0.950 . S
C1052 C1053 1.386 . S
C1052 C1054 1.391 . S
C1053 C1052 1.386 . S
C1053 C1057 1.393 . S
C1054 H1046 0.950 . S
C1054 C1052 1.391 . S
C1054 C1055 1.400 . S
C1055 C1054 1.400 . S
C1055 C1056 1.398 . S
C1055 C1061 1.491 . S
C1056 H1047 0.950 . S
C1056 C1055 1.398 . S
C1056 C1057 1.391 . S
C1057 H1045 0.950 . S
C1057 C1053 1.393 . S
C1057 C1056 1.391 . S
C1058 H1048 0.950 . S
C1058 C1059 1.386 . S
C1058 C1060 1.391 . S
C1059 C1058 1.386 . S
C1059 C1063 1.393 . S
C1060 H1049 0.950 . S
C1060 C1058 1.391 . S
C1060 C1061 1.400 . S
C1061 C1055 1.491 . S
C1061 C1060 1.400 . S
C1061 C1062 1.398 . S
C1062 H1050 0.950 . S
C1062 C1061 1.398 . S
C1062 C1063 1.391 . S
C1063 H1051 0.950 . S
C1063 C1059 1.393 . S
C1063 C1062 1.391 . S
H1064 C1072 0.950 . S
H1065 C1077 0.950 . S
H1066 C1074 0.950 . S
H1067 C1076 0.950 . S
H1068 C1078 0.950 . S
H1069 C1080 0.950 . S
H1070 C1082 0.950 . S
H1071 C1083 0.950 . S
C1072 H1064 0.950 . S
C1072 C1073 1.386 1_656 S
C1072 C1074 1.391 . S
C1073 C1072 1.386 1_454 S
C1073 C1077 1.393 . S
C1074 H1066 0.950 . S
C1074 C1072 1.391 . S
C1074 C1075 1.400 1_655 S
C1075 C1074 1.400 1_455 S
C1075 C1076 1.398 . S
C1075 C1081 1.491 . S
C1076 H1067 0.950 . S
C1076 C1075 1.398 . S
C1076 C1077 1.391 1_556 S
C1077 H1065 0.950 . S
C1077 C1073 1.393 . S
C1077 C1076 1.391 1_554 S
C1078 H1068 0.950 . S
C1078 C1079 1.386 . S
C1078 C1080 1.391 . S
C1079 C1078 1.386 . S
C1079 C1083 1.393 1_455 S
C1080 H1069 0.950 . S
C1080 C1078 1.391 . S
C1080 C1081 1.400 . S
C1081 C1075 1.491 . S
C1081 C1080 1.400 . S
C1081 C1082 1.398 1_455 S
C1082 H1070 0.950 . S
C1082 C1081 1.398 1_655 S
C1082 C1083 1.391 . S
C1083 H1071 0.950 . S
C1083 C1079 1.393 1_655 S
C1083 C1082 1.391 . S
H1084 C1092 0.950 . S
H1085 C1097 0.950 . S
H1086 C1094 0.950 . S
H1087 C1096 0.950 . S
H1088 C1098 0.950 . S
H1089 C1100 0.950 . S
H1090 C1102 0.950 . S
H1091 C1103 0.950 . S
C1092 H1084 0.950 . S
C1092 C1093 1.386 . S
C1092 C1094 1.391 . S
C1093 C1092 1.386 . S
C1093 C1097 1.393 . S
C1094 H1086 0.950 . S
C1094 C1092 1.391 . S
C1094 C1095 1.400 . S
C1095 C1094 1.400 . S
C1095 C1096 1.398 . S
C1095 C1101 1.491 . S
C1096 H1087 0.950 . S
C1096 C1095 1.398 . S
C1096 C1097 1.391 . S
C1097 H1085 0.950 . S
C1097 C1093 1.393 . S
C1097 C1096 1.391 . S
C1098 H1088 0.950 . S
C1098 C1099 1.386 . S
C1098 C1100 1.391 . S
C1099 C1098 1.386 . S
C1099 C1103 1.393 . S
C1100 H1089 0.950 . S
C1100 C1098 1.391 . S
C1100 C1101 1.400 . S
C1101 C1095 1.491 . S
C1101 C1100 1.400 . S
C1101 C1102 1.398 . S
C1102 H1090 0.950 . S
C1102 C1101 1.398 . S
C1102 C1103 1.391 . S
C1103 H1091 0.950 . S
C1103 C1099 1.393 . S
C1103 C1102 1.391 . S
H1104 C1112 0.950 . S
H1105 C1117 0.950 . S
H1106 C1114 0.950 . S
H1107 C1116 0.950 . S
H1108 C1118 0.950 . S
H1109 C1120 0.950 . S
H1110 C1122 0.950 . S
H1111 C1123 0.950 . S
C1112 H1104 0.950 . S
C1112 C1113 1.386 1_554 S
C1112 C1114 1.391 . S
C1113 C1112 1.386 1_556 S
C1113 C1117 1.393 . S
C1114 H1106 0.950 . S
C1114 C1112 1.391 . S
C1114 C1115 1.400 . S
C1115 C1114 1.400 . S
C1115 C1116 1.398 . S
C1115 C1121 1.491 . S
C1116 H1107 0.950 . S
C1116 C1115 1.398 . S
C1116 C1117 1.391 1_554 S
C1117 H1105 0.950 . S
C1117 C1113 1.393 . S
C1117 C1116 1.391 1_556 S
C1118 H1108 0.950 . S
C1118 C1119 1.386 . S
C1118 C1120 1.391 . S
C1119 C1118 1.386 . S
C1119 C1123 1.393 . S
C1120 H1109 0.950 . S
C1120 C1118 1.391 . S
C1120 C1121 1.400 . S
C1121 C1115 1.491 . S
C1121 C1120 1.400 . S
C1121 C1122 1.398 . S
C1122 H1110 0.950 . S
C1122 C1121 1.398 . S
C1122 C1123 1.391 . S
C1123 H1111 0.950 . S
C1123 C1119 1.393 . S
C1123 C1122 1.391 . S
H1124 C1132 0.950 . S
H1125 C1137 0.950 . S
H1126 C1134 0.950 . S
H1127 C1136 0.950 . S
H1128 C1138 0.950 . S
H1129 C1140 0.950 . S
H1130 C1142 0.950 . S
H1131 C1143 0.950 . S
C1132 H1124 0.950 . S
C1132 C1133 1.386 . S
C1132 C1134 1.391 . S
C1133 C1132 1.386 . S
C1133 C1137 1.393 . S
C1134 H1126 0.950 . S
C1134 C1132 1.391 . S
C1134 C1135 1.400 . S
C1135 C1134 1.400 . S
C1135 C1136 1.398 . S
C1135 C1141 1.491 . S
C1136 H1127 0.950 . S
C1136 C1135 1.398 . S
C1136 C1137 1.391 . S
C1137 H1125 0.950 . S
C1137 C1133 1.393 . S
C1137 C1136 1.391 . S
C1138 H1128 0.950 . S
C1138 C1139 1.386 . S
C1138 C1140 1.391 . S
C1139 C1138 1.386 . S
C1139 C1143 1.393 . S
C1140 H1129 0.950 . S
C1140 C1138 1.391 . S
C1140 C1141 1.400 . S
C1141 C1135 1.491 . S
C1141 C1140 1.400 . S
C1141 C1142 1.398 . S
C1142 H1130 0.950 . S
C1142 C1141 1.398 . S
C1142 C1143 1.391 . S
C1143 H1131 0.950 . S
C1143 C1139 1.393 . S
C1143 C1142 1.391 . S
H1144 C1152 0.950 . S
H1145 C1157 0.950 1_556 S
H1146 C1154 0.950 . S
H1147 C1156 0.950 . S
H1148 C1158 0.950 . S
H1149 C1160 0.950 . S
H1150 C1162 0.950 . S
H1151 C1163 0.950 . S
C1152 H1144 0.950 . S
C1152 C1153 1.386 . S
C1152 C1154 1.391 . S
C1153 C1152 1.386 . S
C1153 C1157 1.393 . S
C1154 H1146 0.950 . S
C1154 C1152 1.391 . S
C1154 C1155 1.400 . S
C1155 C1154 1.400 . S
C1155 C1156 1.398 . S
C1155 C1161 1.491 . S
C1156 H1147 0.950 . S
C1156 C1155 1.398 . S
C1156 C1157 1.391 . S
C1157 H1145 0.950 1_554 S
C1157 C1153 1.393 . S
C1157 C1156 1.391 . S
C1158 H1148 0.950 . S
C1158 C1159 1.386 . S
C1158 C1160 1.391 . S
C1159 C1158 1.386 . S
C1159 C1163 1.393 . S
C1160 H1149 0.950 . S
C1160 C1158 1.391 . S
C1160 C1161 1.400 . S
C1161 C1155 1.491 . S
C1161 C1160 1.400 . S
C1161 C1162 1.398 . S
C1162 H1150 0.950 . S
C1162 C1161 1.398 . S
C1162 C1163 1.391 . S
C1163 H1151 0.950 . S
C1163 C1159 1.393 . S
C1163 C1162 1.391 . S
H1164 C1172 0.950 . S
H1165 C1177 0.950 . S
H1166 C1174 0.950 . S
H1167 C1176 0.950 . S
H1168 C1178 0.950 . S
H1169 C1180 0.950 . S
H1170 C1182 0.950 . S
H1171 C1183 0.950 . S
C1172 H1164 0.950 . S
C1172 C1173 1.386 . S
C1172 C1174 1.391 . S
C1173 C1172 1.386 . S
C1173 C1177 1.393 . S
C1174 H1166 0.950 . S
C1174 C1172 1.391 . S
C1174 C1175 1.400 . S
C1175 C1174 1.400 . S
C1175 C1176 1.398 . S
C1175 C1181 1.491 . S
C1176 H1167 0.950 . S
C1176 C1175 1.398 . S
C1176 C1177 1.391 . S
C1177 H1165 0.950 . S
C1177 C1173 1.393 . S
C1177 C1176 1.391 . S
C1178 H1168 0.950 . S
C1178 C1179 1.386 . S
C1178 C1180 1.391 . S
C1179 C1178 1.386 . S
C1179 C1183 1.393 . S
C1180 H1169 0.950 . S
C1180 C1178 1.391 . S
C1180 C1181 1.400 . S
C1181 C1175 1.491 . S
C1181 C1180 1.400 . S
C1181 C1182 1.398 . S
C1182 H1170 0.950 . S
C1182 C1181 1.398 . S
C1182 C1183 1.391 . S
C1183 H1171 0.950 . S
C1183 C1179 1.393 . S
C1183 C1182 1.391 . S
H1184 C1192 0.950 . S
H1185 C1197 0.950 . S
H1186 C1194 0.950 . S
H1187 C1196 0.950 . S
H1188 C1198 0.950 . S
H1189 C1200 0.950 . S
H1190 C1202 0.950 . S
H1191 C1203 0.950 . S
C1192 H1184 0.950 . S
C1192 C1193 1.386 . S
C1192 C1194 1.391 . S
C1193 C1192 1.386 . S
C1193 C1197 1.393 . S
C1194 H1186 0.950 . S
C1194 C1192 1.391 . S
C1194 C1195 1.400 . S
C1195 C1194 1.400 . S
C1195 C1196 1.398 . S
C1195 C1201 1.491 . S
C1196 H1187 0.950 . S
C1196 C1195 1.398 . S
C1196 C1197 1.391 . S
C1197 H1185 0.950 . S
C1197 C1193 1.393 . S
C1197 C1196 1.391 . S
C1198 H1188 0.950 . S
C1198 C1199 1.386 . S
C1198 C1200 1.391 . S
C1199 C1198 1.386 . S
C1199 C1203 1.393 . S
C1200 H1189 0.950 . S
C1200 C1198 1.391 . S
C1200 C1201 1.400 . S
C1201 C1195 1.491 . S
C1201 C1200 1.400 . S
C1201 C1202 1.398 . S
C1202 H1190 0.950 . S
C1202 C1201 1.398 . S
C1202 C1203 1.391 . S
C1203 H1191 0.950 . S
C1203 C1199 1.393 . S
C1203 C1202 1.391 . S
H1204 C1212 0.950 . S
H1205 C1217 0.950 . S
H1206 C1214 0.950 . S
H1207 C1216 0.950 . S
H1208 C1218 0.950 . S
H1209 C1220 0.950 . S
H1210 C1222 0.950 . S
H1211 C1223 0.950 . S
C1212 H1204 0.950 . S
C1212 C1213 1.386 . S
C1212 C1214 1.391 . S
C1213 C1212 1.386 . S
C1213 C1217 1.393 . S
C1214 H1206 0.950 . S
C1214 C1212 1.391 . S
C1214 C1215 1.400 . S
C1215 C1214 1.400 . S
C1215 C1216 1.398 . S
C1215 C1221 1.491 . S
C1216 H1207 0.950 . S
C1216 C1215 1.398 . S
C1216 C1217 1.391 . S
C1217 H1205 0.950 . S
C1217 C1213 1.393 . S
C1217 C1216 1.391 . S
C1218 H1208 0.950 . S
C1218 C1219 1.386 . S
C1218 C1220 1.391 . S
C1219 C1218 1.386 . S
C1219 C1223 1.393 . S
C1220 H1209 0.950 . S
C1220 C1218 1.391 . S
C1220 C1221 1.400 . S
C1221 C1215 1.491 . S
C1221 C1220 1.400 . S
C1221 C1222 1.398 . S
C1222 H1210 0.950 . S
C1222 C1221 1.398 . S
C1222 C1223 1.391 . S
C1223 H1211 0.950 . S
C1223 C1219 1.393 . S
C1223 C1222 1.391 . S
H1224 C1232 0.950 . S
H1225 C1237 0.950 . S
H1226 C1234 0.950 . S
H1227 C1236 0.950 . S
H1228 C1238 0.950 . S
H1229 C1240 0.950 . S
H1230 C1242 0.950 . S
H1231 C1243 0.950 . S
C1232 H1224 0.950 . S
C1232 C1233 1.386 . S
C1232 C1234 1.391 . S
C1233 C1232 1.386 . S
C1233 C1237 1.393 . S
C1234 H1226 0.950 . S
C1234 C1232 1.391 . S
C1234 C1235 1.400 . S
C1235 C1234 1.400 . S
C1235 C1236 1.398 . S
C1235 C1241 1.491 . S
C1236 H1227 0.950 . S
C1236 C1235 1.398 . S
C1236 C1237 1.391 . S
C1237 H1225 0.950 . S
C1237 C1233 1.393 . S
C1237 C1236 1.391 . S
C1238 H1228 0.950 . S
C1238 C1239 1.386 . S
C1238 C1240 1.391 . S
C1239 C1238 1.386 . S
C1239 C1243 1.393 . S
C1240 H1229 0.950 . S
C1240 C1238 1.391 . S
C1240 C1241 1.400 . S
C1241 C1235 1.491 . S
C1241 C1240 1.400 . S
C1241 C1242 1.398 . S
C1242 H1230 0.950 . S
C1242 C1241 1.398 . S
C1242 C1243 1.391 . S
C1243 H1231 0.950 . S
C1243 C1239 1.393 . S
C1243 C1242 1.391 . S
H1244 C1252 0.950 . S
H1245 C1257 0.950 . S
H1246 C1254 0.950 1_554 S
H1247 C1256 0.950 . S
H1248 C1258 0.950 1_556 S
H1249 C1260 0.950 . S
H1250 C1262 0.950 . S
H1251 C1263 0.950 . S
C1252 H1244 0.950 . S
C1252 C1253 1.386 . S
C1252 C1254 1.391 . S
C1253 C1252 1.386 . S
C1253 C1257 1.393 . S
C1254 H1246 0.950 1_556 S
C1254 C1252 1.391 . S
C1254 C1255 1.400 . S
C1255 C1254 1.400 . S
C1255 C1256 1.398 . S
C1255 C1261 1.491 1_556 S
C1256 H1247 0.950 . S
C1256 C1255 1.398 . S
C1256 C1257 1.391 . S
C1257 H1245 0.950 . S
C1257 C1253 1.393 . S
C1257 C1256 1.391 . S
C1258 H1248 0.950 1_554 S
C1258 C1259 1.386 . S
C1258 C1260 1.391 1_554 S
C1259 C1258 1.386 . S
C1259 C1263 1.393 . S
C1260 H1249 0.950 . S
C1260 C1258 1.391 1_556 S
C1260 C1261 1.401 1_556 S
C1261 C1255 1.491 1_554 S
C1261 C1260 1.401 1_554 S
C1261 C1262 1.397 . S
C1262 H1250 0.950 . S
C1262 C1261 1.397 . S
C1262 C1263 1.391 . S
C1263 H1251 0.950 . S
C1263 C1259 1.393 . S
C1263 C1262 1.391 . S
H1264 C1272 0.950 . S
H1265 C1277 0.950 . S
H1266 C1274 0.950 . S
H1267 C1276 0.950 . S
H1268 C1278 0.950 . S
H1269 C1280 0.950 . S
H1270 C1282 0.950 . S
H1271 C1283 0.950 . S
C1272 H1264 0.950 . S
C1272 C1273 1.386 . S
C1272 C1274 1.391 . S
C1273 C1272 1.386 . S
C1273 C1277 1.393 . S
C1274 H1266 0.950 . S
C1274 C1272 1.391 . S
C1274 C1275 1.400 . S
C1275 C1274 1.400 . S
C1275 C1276 1.398 . S
C1275 C1281 1.491 . S
C1276 H1267 0.950 . S
C1276 C1275 1.398 . S
C1276 C1277 1.391 . S
C1277 H1265 0.950 . S
C1277 C1273 1.393 . S
C1277 C1276 1.391 . S
C1278 H1268 0.950 . S
C1278 C1279 1.386 . S
C1278 C1280 1.391 . S
C1279 C1278 1.386 . S
C1279 C1283 1.393 . S
C1280 H1269 0.950 . S
C1280 C1278 1.391 . S
C1280 C1281 1.400 . S
C1281 C1275 1.491 . S
C1281 C1280 1.400 . S
C1281 C1282 1.398 . S
C1282 H1270 0.950 . S
C1282 C1281 1.398 . S
C1282 C1283 1.391 . S
C1283 H1271 0.950 . S
C1283 C1279 1.393 . S
C1283 C1282 1.391 . S
H1284 C1292 0.950 . S
H1285 C1297 0.950 . S
H1286 C1294 0.950 . S
H1287 C1296 0.950 . S
H1288 C1298 0.950 . S
H1289 C1300 0.950 . S
H1290 C1302 0.950 . S
H1291 C1303 0.950 . S
C1292 H1284 0.950 . S
C1292 C1293 1.386 . S
C1292 C1294 1.391 . S
C1293 C1292 1.386 . S
C1293 C1297 1.393 . S
C1294 H1286 0.950 . S
C1294 C1292 1.391 . S
C1294 C1295 1.400 . S
C1295 C1294 1.400 . S
C1295 C1296 1.398 . S
C1295 C1301 1.491 . S
C1296 H1287 0.950 . S
C1296 C1295 1.398 . S
C1296 C1297 1.391 . S
C1297 H1285 0.950 . S
C1297 C1293 1.393 . S
C1297 C1296 1.391 . S
C1298 H1288 0.950 . S
C1298 C1299 1.386 . S
C1298 C1300 1.391 . S
C1299 C1298 1.386 . S
C1299 C1303 1.393 . S
C1300 H1289 0.950 . S
C1300 C1298 1.391 . S
C1300 C1301 1.400 . S
C1301 C1295 1.491 . S
C1301 C1300 1.400 . S
C1301 C1302 1.398 . S
C1302 H1290 0.950 . S
C1302 C1301 1.398 . S
C1302 C1303 1.391 . S
C1303 H1291 0.950 . S
C1303 C1299 1.393 . S
C1303 C1302 1.391 . S
H1304 C1312 0.950 1_556 S
H1305 C1317 0.968 . S
H1306 C1314 0.950 1_556 S
H1307 C1316 0.950 . S
H1308 C1318 0.950 . S
H1309 C1320 0.950 . S
H1310 C1322 0.950 . S
H1311 C1323 0.950 . S
C1312 H1304 0.950 1_554 S
C1312 C1313 1.404 . S
C1312 C1314 1.391 . S
C1313 C1312 1.404 . S
C1313 C1317 1.397 1_565 S
C1314 H1306 0.950 1_554 S
C1314 C1312 1.391 . S
C1314 C1315 1.400 . S
C1315 C1314 1.400 . S
C1315 C1316 1.398 . S
C1315 C1321 1.491 . S
C1316 H1307 0.950 . S
C1316 C1315 1.398 . S
C1316 C1317 1.371 1_565 S
C1317 H1305 0.968 . S
C1317 C1313 1.397 1_545 S
C1317 C1316 1.371 1_545 S
C1318 H1308 0.950 . S
C1318 C1319 1.386 . S
C1318 C1320 1.391 . S
C1319 C1318 1.386 . S
C1319 C1323 1.393 1_554 S
C1320 H1309 0.950 . S
C1320 C1318 1.391 . S
C1320 C1321 1.400 . S
C1321 C1315 1.491 . S
C1321 C1320 1.400 . S
C1321 C1322 1.398 1_554 S
C1322 H1310 0.950 . S
C1322 C1321 1.398 1_556 S
C1322 C1323 1.391 . S
C1323 H1311 0.950 . S
C1323 C1319 1.393 1_556 S
C1323 C1322 1.391 . S
C379 C218 1.663 . S
C373 C73 1.678 . S
C399 C231 1.348 . S
C393 C82 1.319 . S
C413 C100 1.817 . S
C419 C244 1.780 . S
C439 C257 1.355 . S
C433 C56 1.312 1_655 S
C459 C265 1.351 . S
C453 C134 1.358 . S
C479 C278 1.600 . S
C473 C165 1.628 . S
C493 C147 1.201 . S
C499 C291 1.220 . S
C519 C304 1.793 . S
C513 C125 1.826 . S
C533 C151 1.329 . S
C539 C322 1.322 . S
C559 C333 1.463 . S
C553 C121 1.453 . S
C573 C139 1.726 . S
C579 C317 1.712 . S
C599 C325 1.286 . S
C593 C164 1.298 . S
C613 C95 1.331 . S
C619 C348 1.384 . S
C633 C61 1.493 . S
C639 C338 1.471 . S
C653 C74 1.439 . S
C659 C343 1.408 . S
C673 C86 1.804 . S
C679 C346 1.766 . S
C693 C47 1.346 . S
C699 C255 1.328 . S
C713 C186 1.207 . S
C719 C247 1.235 . S
C739 C216 1.525 . S
C733 C204 1.569 . S
C759 C221 1.875 . S
C753 C112 1.891 . S
C773 C60 1.421 1_545 S
C779 C268 1.386 . S
C799 C307 1.419 . S
C793 C152 1.445 . S
C819 C260 1.841 . S
C813 C126 1.886 . S
C839 C286 1.242 . S
C833 C160 1.256 . S
C859 C296 1.661 . S
C853 C190 1.679 . S
C873 C199 1.328 . S
C879 C309 1.369 . S
C893 C113 1.815 . S
C899 C270 1.793 . S
C919 C283 1.339 . S
C913 C173 1.333 . S
C933 C43 1.374 . S
C939 C239 1.328 . S
C959 C252 1.613 . S
C953 C9 1.632 1_655 S
C979 C213 1.215 . S
C973 C17 1.185 . S
C999 C226 1.792 . S
C993 C34 1.826 1_455 S
C1013 C21 1.329 . S
C1019 C335 1.320 . S
C1033 C30 1.457 . S
C1039 C320 1.467 1_655 S
C1053 C48 1.725 . S
C1059 C330 1.702 . S
C1073 C8 1.296 . S
C1079 C312 1.270 1_455 S
C1099 C361 1.388 . S
C1093 C108 1.317 . S
C1119 C351 1.483 . S
C1113 C178 1.487 . S
C1139 C356 1.409 . S
C1133 C191 1.439 . S
C1153 C203 1.803 . S
C1159 C359 1.772 . S
C1173 C138 1.350 . S
C1179 C281 1.312 . S
C1199 C273 1.236 . S
C1193 C69 1.209 . S
C1219 C294 1.521 . S
C1213 C87 1.569 . S
C1239 C299 1.875 . S
C1233 C99 1.889 . S
C1253 C177 1.418 . S
C1259 C242 1.393 . S
C1279 C229 1.409 . S
C1273 C22 1.442 . S
C1293 C35 1.888 . S
C1299 C234 1.850 . S
C1319 C208 1.231 1_554 S
C1313 C4 1.244 1_565 S
