# Generated by pormake.
# Topology eea, (3,6)-cn, num edge types: 1
# Building blocks:
#     Node 0, Type 0, BuildingBlock: CUQRIR_clean_linker_1, # of connection points: 3
#     Node 1, Type 0, BuildingBlock: CUQRIR_clean_linker_1, # of connection points: 3
#     Node 2, Type 0, BuildingBlock: CUQRIR_clean_linker_1, # of connection points: 3
#     Node 3, Type 0, BuildingBlock: CUQRIR_clean_linker_1, # of connection points: 3
#     Node 4, Type 0, BuildingBlock: CUQRIR_clean_linker_1, # of connection points: 3
#     Node 5, Type 0, BuildingBlock: CUQRIR_clean_linker_1, # of connection points: 3
#     Node 6, Type 0, BuildingBlock: CUQRIR_clean_linker_1, # of connection points: 3
#     Node 7, Type 0, BuildingBlock: CUQRIR_clean_linker_1, # of connection points: 3
#     Node 8, Type 0, BuildingBlock: CUQRIR_clean_linker_1, # of connection points: 3
#     Node 9, Type 0, BuildingBlock: CUQRIR_clean_linker_1, # of connection points: 3
#     Node 10, Type 0, BuildingBlock: CUQRIR_clean_linker_1, # of connection points: 3
#     Node 11, Type 0, BuildingBlock: CUQRIR_clean_linker_1, # of connection points: 3
#     Node 12, Type 0, BuildingBlock: CUQRIR_clean_linker_1, # of connection points: 3
#     Node 13, Type 0, BuildingBlock: CUQRIR_clean_linker_1, # of connection points: 3
#     Node 14, Type 0, BuildingBlock: CUQRIR_clean_linker_1, # of connection points: 3
#     Node 15, Type 0, BuildingBlock: CUQRIR_clean_linker_1, # of connection points: 3
#     Node 16, Type 0, BuildingBlock: CUQRIR_clean_linker_1, # of connection points: 3
#     Node 17, Type 0, BuildingBlock: CUQRIR_clean_linker_1, # of connection points: 3
#     Node 18, Type 1, BuildingBlock: KUMBOL_clean_sbu_0, # of connection points: 6
#     Node 19, Type 1, BuildingBlock: KUMBOL_clean_sbu_0, # of connection points: 6
#     Node 20, Type 1, BuildingBlock: KUMBOL_clean_sbu_0, # of connection points: 6
#     Node 21, Type 1, BuildingBlock: KUMBOL_clean_sbu_0, # of connection points: 6
#     Node 22, Type 1, BuildingBlock: KUMBOL_clean_sbu_0, # of connection points: 6
#     Node 23, Type 1, BuildingBlock: KUMBOL_clean_sbu_0, # of connection points: 6
#     Node 24, Type 1, BuildingBlock: KUMBOL_clean_sbu_0, # of connection points: 6
#     Node 25, Type 1, BuildingBlock: KUMBOL_clean_sbu_0, # of connection points: 6
#     Node 26, Type 1, BuildingBlock: KUMBOL_clean_sbu_0, # of connection points: 6
#     Edge 27, Type (0, 1), BuildingBlock: TEMPAE_clean_linker_10, # of connection points: 2
#     Edge 28, Type (0, 1), BuildingBlock: TEMPAE_clean_linker_10, # of connection points: 2
#     Edge 29, Type (0, 1), BuildingBlock: TEMPAE_clean_linker_10, # of connection points: 2
#     Edge 30, Type (0, 1), BuildingBlock: TEMPAE_clean_linker_10, # of connection points: 2
#     Edge 31, Type (0, 1), BuildingBlock: TEMPAE_clean_linker_10, # of connection points: 2
#     Edge 32, Type (0, 1), BuildingBlock: TEMPAE_clean_linker_10, # of connection points: 2
#     Edge 33, Type (0, 1), BuildingBlock: TEMPAE_clean_linker_10, # of connection points: 2
#     Edge 34, Type (0, 1), BuildingBlock: TEMPAE_clean_linker_10, # of connection points: 2
#     Edge 35, Type (0, 1), BuildingBlock: TEMPAE_clean_linker_10, # of connection points: 2
#     Edge 36, Type (0, 1), BuildingBlock: TEMPAE_clean_linker_10, # of connection points: 2
#     Edge 37, Type (0, 1), BuildingBlock: TEMPAE_clean_linker_10, # of connection points: 2
#     Edge 38, Type (0, 1), BuildingBlock: TEMPAE_clean_linker_10, # of connection points: 2
#     Edge 39, Type (0, 1), BuildingBlock: TEMPAE_clean_linker_10, # of connection points: 2
#     Edge 40, Type (0, 1), BuildingBlock: TEMPAE_clean_linker_10, # of connection points: 2
#     Edge 41, Type (0, 1), BuildingBlock: TEMPAE_clean_linker_10, # of connection points: 2
#     Edge 42, Type (0, 1), BuildingBlock: TEMPAE_clean_linker_10, # of connection points: 2
#     Edge 43, Type (0, 1), BuildingBlock: TEMPAE_clean_linker_10, # of connection points: 2
#     Edge 44, Type (0, 1), BuildingBlock: TEMPAE_clean_linker_10, # of connection points: 2
#     Edge 45, Type (0, 1), BuildingBlock: TEMPAE_clean_linker_10, # of connection points: 2
#     Edge 46, Type (0, 1), BuildingBlock: TEMPAE_clean_linker_10, # of connection points: 2
#     Edge 47, Type (0, 1), BuildingBlock: TEMPAE_clean_linker_10, # of connection points: 2
#     Edge 48, Type (0, 1), BuildingBlock: TEMPAE_clean_linker_10, # of connection points: 2
#     Edge 49, Type (0, 1), BuildingBlock: TEMPAE_clean_linker_10, # of connection points: 2
#     Edge 50, Type (0, 1), BuildingBlock: TEMPAE_clean_linker_10, # of connection points: 2
#     Edge 51, Type (0, 1), BuildingBlock: TEMPAE_clean_linker_10, # of connection points: 2
#     Edge 52, Type (0, 1), BuildingBlock: TEMPAE_clean_linker_10, # of connection points: 2
#     Edge 53, Type (0, 1), BuildingBlock: TEMPAE_clean_linker_10, # of connection points: 2
#     Edge 54, Type (0, 1), BuildingBlock: TEMPAE_clean_linker_10, # of connection points: 2
#     Edge 55, Type (0, 1), BuildingBlock: TEMPAE_clean_linker_10, # of connection points: 2
#     Edge 56, Type (0, 1), BuildingBlock: TEMPAE_clean_linker_10, # of connection points: 2
#     Edge 57, Type (0, 1), BuildingBlock: TEMPAE_clean_linker_10, # of connection points: 2
#     Edge 58, Type (0, 1), BuildingBlock: TEMPAE_clean_linker_10, # of connection points: 2
#     Edge 59, Type (0, 1), BuildingBlock: TEMPAE_clean_linker_10, # of connection points: 2
#     Edge 60, Type (0, 1), BuildingBlock: TEMPAE_clean_linker_10, # of connection points: 2
#     Edge 61, Type (0, 1), BuildingBlock: TEMPAE_clean_linker_10, # of connection points: 2
#     Edge 62, Type (0, 1), BuildingBlock: TEMPAE_clean_linker_10, # of connection points: 2
#     Edge 63, Type (0, 1), BuildingBlock: TEMPAE_clean_linker_10, # of connection points: 2
#     Edge 64, Type (0, 1), BuildingBlock: TEMPAE_clean_linker_10, # of connection points: 2
#     Edge 65, Type (0, 1), BuildingBlock: TEMPAE_clean_linker_10, # of connection points: 2
#     Edge 66, Type (0, 1), BuildingBlock: TEMPAE_clean_linker_10, # of connection points: 2
#     Edge 67, Type (0, 1), BuildingBlock: TEMPAE_clean_linker_10, # of connection points: 2
#     Edge 68, Type (0, 1), BuildingBlock: TEMPAE_clean_linker_10, # of connection points: 2
#     Edge 69, Type (0, 1), BuildingBlock: TEMPAE_clean_linker_10, # of connection points: 2
#     Edge 70, Type (0, 1), BuildingBlock: TEMPAE_clean_linker_10, # of connection points: 2
#     Edge 71, Type (0, 1), BuildingBlock: TEMPAE_clean_linker_10, # of connection points: 2
#     Edge 72, Type (0, 1), BuildingBlock: TEMPAE_clean_linker_10, # of connection points: 2
#     Edge 73, Type (0, 1), BuildingBlock: TEMPAE_clean_linker_10, # of connection points: 2
#     Edge 74, Type (0, 1), BuildingBlock: TEMPAE_clean_linker_10, # of connection points: 2
#     Edge 75, Type (0, 1), BuildingBlock: TEMPAE_clean_linker_10, # of connection points: 2
#     Edge 76, Type (0, 1), BuildingBlock: TEMPAE_clean_linker_10, # of connection points: 2
#     Edge 77, Type (0, 1), BuildingBlock: TEMPAE_clean_linker_10, # of connection points: 2
#     Edge 78, Type (0, 1), BuildingBlock: TEMPAE_clean_linker_10, # of connection points: 2
#     Edge 79, Type (0, 1), BuildingBlock: TEMPAE_clean_linker_10, # of connection points: 2
#     Edge 80, Type (0, 1), BuildingBlock: TEMPAE_clean_linker_10, # of connection points: 2
# Relax obj value: 0.040
# Max RMSD: 0.205
# Mean RMSD: 0.146
data_MOF--net-eea--node1-KUMBOL_clean_sbu_0--node2-CUQRIR_clean_linker_1--edge1-TEMPAE_clean_linker_10
_symmetry_space_group_name_H-M    P1
_symmetry_Int_Tables_number       1
_symmetry_cell_setting            triclinic
loop_
_symmetry_equiv_pos_as_xyz
'x, y, z'
_cell_length_a     48.31203
_cell_length_b     51.878765
_cell_length_c     64.121812
_cell_angle_alpha  82.988345
_cell_angle_beta   90.008755
_cell_angle_gamma 118.54831
loop_
_atom_site_label
_atom_site_type_symbol
_atom_site_fract_x
_atom_site_fract_y
_atom_site_fract_z
_atom_type_partial_charge
C0 C 0.21003 0.1012 0.41247 0.0
N1 N 0.21865 0.12235 0.42532 0.0
N2 N 0.21134 0.0772 0.42226 0.0
C3 C 0.1984 0.10312 0.39087 0.0
C4 C 0.22102 0.08442 0.44154 0.0
N5 N 0.22509 0.11173 0.44354 0.0
C6 C 0.22938 0.06593 0.45757 0.0
H7 H 0.18576 0.11628 0.3899 0.0
H8 H 0.18243 0.08073 0.38678 0.0
H9 H 0.21896 0.11426 0.37914 0.0
H10 H 0.23551 0.05106 0.44997 0.0
H11 H 0.20874 0.05206 0.46895 0.0
H12 H 0.24959 0.08018 0.46638 0.0
C13 C 0.90541 0.11413 0.41132 0.0
N14 N 0.91869 0.13589 0.42381 0.0
N15 N 0.879 0.09055 0.42112 0.0
C16 C 0.91934 0.11473 0.39016 0.0
C17 C 0.87673 0.09855 0.44011 0.0
N18 N 0.90085 0.12589 0.44187 0.0
C19 C 0.85011 0.08006 0.45662 0.0
H20 H 0.91007 0.12477 0.37771 0.0
H21 H 0.9126 0.09195 0.38709 0.0
H22 H 0.94548 0.12805 0.38922 0.0
H23 H 0.8278 0.06691 0.44919 0.0
H24 H 0.84649 0.09389 0.46705 0.0
H25 H 0.85595 0.06443 0.46649 0.0
C26 C 0.91846 0.84912 0.41701 0.0
N27 N 0.93485 0.83865 0.42926 0.0
N28 N 0.89021 0.84144 0.42684 0.0
C29 C 0.92886 0.86487 0.39475 0.0
C30 C 0.89023 0.82654 0.44565 0.0
N31 N 0.91705 0.82448 0.44706 0.0
C32 C 0.86225 0.8108 0.4616 0.0
H33 H 0.94897 0.88736 0.395 0.0
H34 H 0.91014 0.86795 0.38672 0.0
H35 H 0.9367 0.85257 0.38544 0.0
H36 H 0.84226 0.79304 0.45462 0.0
H37 H 0.85454 0.82654 0.46586 0.0
H38 H 0.86772 0.80106 0.47634 0.0
C39 C 0.07522 0.15815 0.63914 0.0
N40 N 0.10213 0.17247 0.62645 0.0
N41 N 0.04969 0.15288 0.62791 0.0
C42 C 0.07374 0.15015 0.66269 0.0
C43 C 0.06225 0.16318 0.60775 0.0
N44 N 0.09403 0.17525 0.60688 0.0
C45 C 0.04375 0.16398 0.58902 0.0
H46 H 0.05462 0.12728 0.66766 0.0
H47 H 0.06866 0.16542 0.67063 0.0
H48 H 0.0959 0.15101 0.6681 0.0
H49 H 0.04964 0.18724 0.58342 0.0
H50 H 0.01795 0.15034 0.59291 0.0
H51 H 0.05057 0.15555 0.57594 0.0
C52 C 0.80471 0.90929 0.63717 0.0
N53 N 0.79789 0.88913 0.62371 0.0
N54 N 0.80187 0.93279 0.62801 0.0
C55 C 0.81438 0.9062 0.65922 0.0
C56 C 0.79291 0.92615 0.6085 0.0
N57 N 0.79051 0.89965 0.60584 0.0
C58 C 0.78403 0.94436 0.59261 0.0
H59 H 0.79285 0.89351 0.67004 0.0
H60 H 0.82877 0.92824 0.66436 0.0
H61 H 0.82798 0.89391 0.66032 0.0
H62 H 0.79758 0.96826 0.59403 0.0
H63 H 0.75858 0.93722 0.59546 0.0
H64 H 0.78802 0.941 0.57635 0.0
C65 C 0.10512 0.91224 0.64463 0.0
N66 N 0.09198 0.89018 0.63234 0.0
N67 N 0.13068 0.93628 0.63438 0.0
C68 C 0.09155 0.91156 0.66594 0.0
C69 C 0.13258 0.92826 0.61533 0.0
N70 N 0.10894 0.90049 0.6139 0.0
C71 C 0.15929 0.94661 0.59884 0.0
H72 H 0.09726 0.93422 0.66874 0.0
H73 H 0.10207 0.90269 0.67828 0.0
H74 H 0.06553 0.89726 0.6674 0.0
H75 H 0.18097 0.96178 0.60604 0.0
H76 H 0.15234 0.96017 0.58758 0.0
H77 H 0.16468 0.93229 0.58997 0.0
C78 C 0.87304 0.42871 0.74899 0.0
N79 N 0.88292 0.45082 0.76109 0.0
N80 N 0.87676 0.40589 0.75857 0.0
C81 C 0.85986 0.4294 0.72784 0.0
C82 C 0.88948 0.41502 0.77685 0.0
N83 N 0.8932 0.44229 0.77842 0.0
C84 C 0.90051 0.39828 0.79241 0.0
H85 H 0.84654 0.44193 0.72723 0.0
H86 H 0.84424 0.40662 0.72428 0.0
H87 H 0.8797 0.44078 0.71559 0.0
H88 H 0.88474 0.37406 0.79356 0.0
H89 H 0.90162 0.40513 0.80826 0.0
H90 H 0.9245 0.40306 0.78695 0.0
C91 C 0.56619 0.44778 0.74466 0.0
N92 N 0.58265 0.4678 0.75803 0.0
N93 N 0.53976 0.42447 0.75467 0.0
C94 C 0.57446 0.45161 0.72141 0.0
C95 C 0.54002 0.43111 0.77442 0.0
N96 N 0.56561 0.45743 0.77651 0.0
C97 C 0.51426 0.41261 0.79149 0.0
H98 H 0.55296 0.44189 0.71255 0.0
H99 H 0.58784 0.43974 0.71879 0.0
H100 H 0.58877 0.47534 0.71487 0.0
H101 H 0.50207 0.38888 0.78942 0.0
H102 H 0.49649 0.42042 0.79083 0.0
H103 H 0.52396 0.41497 0.80726 0.0
C104 C 0.57192 0.15847 0.74723 0.0
N105 N 0.59429 0.15832 0.75985 0.0
N106 N 0.5544 0.16825 0.75665 0.0
C107 C 0.56403 0.14454 0.72721 0.0
C108 C 0.56657 0.17348 0.77566 0.0
N109 N 0.59067 0.16719 0.77779 0.0
C110 C 0.55454 0.18394 0.79262 0.0
H111 H 0.57448 0.16208 0.71342 0.0
H112 H 0.53808 0.13238 0.72601 0.0
H113 H 0.57348 0.12889 0.72661 0.0
H114 H 0.53666 0.16444 0.80326 0.0
H115 H 0.54356 0.1973 0.78576 0.0
H116 H 0.57413 0.19738 0.80219 0.0
C117 C 0.76197 0.53497 0.98324 0.0
N118 N 0.7858 0.53793 0.97038 0.0
N119 N 0.73452 0.5236 0.97367 0.0
C120 C 0.76673 0.5483 1.00345 0.0
C121 C 0.74269 0.52021 0.95442 0.0
N122 N 0.77404 0.52962 0.95209 0.0
C123 C 0.72054 0.50922 0.93716 0.0
H124 H 0.75903 0.53051 0.01708 0.0
H125 H 0.75238 0.55966 1.00435 0.0
H126 H 0.79191 0.56456 1.00463 0.0
H127 H 0.72216 0.52845 0.92644 0.0
H128 H 0.69579 0.495 0.94369 0.0
H129 H 0.72755 0.49645 0.92772 0.0
C130 C 0.46893 0.24715 0.97023 0.0
N131 N 0.4594 0.22583 0.95751 0.0
N132 N 0.46354 0.26945 0.96188 0.0
C133 C 0.48324 0.2461 0.99092 0.0
C134 C 0.45021 0.26089 0.94365 0.0
N135 N 0.44764 0.23432 0.94095 0.0
C136 C 0.43746 0.27735 0.92931 0.0
H137 H 0.46397 0.23328 1.00344 0.0
H138 H 0.498 0.26873 0.99503 0.0
H139 H 0.49777 0.23483 0.99039 0.0
H140 H 0.45206 0.30162 0.92894 0.0
H141 H 0.41318 0.27091 0.93534 0.0
H142 H 0.43652 0.27184 0.91305 0.0
C143 C 0.7819 0.25105 0.97623 0.0
N144 N 0.76847 0.22833 0.96452 0.0
N145 N 0.80777 0.27449 0.96565 0.0
C146 C 0.76856 0.25149 0.99729 0.0
C147 C 0.80952 0.26531 0.94703 0.0
N148 N 0.78565 0.23752 0.94625 0.0
C149 C 0.83551 0.28295 0.92999 0.0
H150 H 0.77463 0.27444 0.9995 0.0
H151 H 0.77894 0.24292 0.00993 0.0
H152 H 0.74251 0.2374 0.99885 0.0
H153 H 0.83923 0.26832 0.92041 0.0
H154 H 0.85797 0.29727 0.93684 0.0
H155 H 0.82884 0.29738 0.91942 0.0
C156 C 0.54301 0.77083 0.07937 0.0
N157 N 0.55475 0.79308 0.09144 0.0
N158 N 0.55016 0.74926 0.08682 0.0
C159 C 0.52694 0.77124 0.05934 0.0
C160 C 0.56667 0.75917 0.10382 0.0
N161 N 0.5698 0.78592 0.1065 0.0
C162 C 0.57756 0.74157 0.11871 0.0
H163 H 0.5012 0.76145 0.06318 0.0
H164 H 0.53061 0.75799 0.04839 0.0
H165 H 0.5359 0.79426 0.05137 0.0
H166 H 0.60208 0.74747 0.11367 0.0
H167 H 0.56233 0.71743 0.11859 0.0
H168 H 0.57732 0.74659 0.13502 0.0
C169 C 0.24639 0.78398 0.07678 0.0
N170 N 0.26002 0.80622 0.08889 0.0
N171 N 0.21968 0.76097 0.08673 0.0
C172 C 0.25994 0.78363 0.05576 0.0
C173 C 0.21756 0.76975 0.10542 0.0
N174 N 0.24202 0.79702 0.10686 0.0
C175 C 0.19052 0.75276 0.12185 0.0
H176 H 0.25049 0.79318 0.0431 0.0
H177 H 0.25295 0.76058 0.05322 0.0
H178 H 0.28609 0.79683 0.05459 0.0
H179 H 0.17322 0.73082 0.11775 0.0
H180 H 0.17817 0.76579 0.12369 0.0
H181 H 0.19986 0.74981 0.13725 0.0
C182 C 0.26678 0.53354 0.09086 0.0
N183 N 0.27643 0.51559 0.10172 0.0
N184 N 0.23843 0.52843 0.09892 0.0
C185 C 0.2842 0.55501 0.07143 0.0
C186 C 0.2321 0.50776 0.11595 0.0
N187 N 0.25502 0.49987 0.11755 0.0
C188 C 0.20125 0.49213 0.12917 0.0
H189 H 0.27755 0.57286 0.06911 0.0
H190 H 0.27824 0.5434 0.05734 0.0
H191 H 0.31007 0.56478 0.07279 0.0
H192 H 0.1824 0.47709 0.11982 0.0
H193 H 0.19457 0.50845 0.13368 0.0
H194 H 0.20265 0.47907 0.14378 0.0
C195 C 0.41574 0.83239 0.30437 0.0
N196 N 0.44242 0.84971 0.29191 0.0
N197 N 0.39155 0.83654 0.29735 0.0
C198 C 0.41343 0.81147 0.32359 0.0
C199 C 0.40444 0.85665 0.27975 0.0
N200 N 0.43526 0.8645 0.27646 0.0
C201 C 0.38776 0.8709 0.26713 0.0
H202 H 0.38868 0.7936 0.32728 0.0
H203 H 0.42154 0.82371 0.33731 0.0
H204 H 0.42892 0.80165 0.32102 0.0
H205 H 0.37811 0.88054 0.27769 0.0
H206 H 0.36768 0.85382 0.25978 0.0
H207 H 0.4034 0.88842 0.25438 0.0
C208 C 0.12492 0.57274 0.30879 0.0
N209 N 0.11908 0.55278 0.29528 0.0
N210 N 0.12291 0.59646 0.2992 0.0
C211 C 0.13463 0.5701 0.33091 0.0
C212 C 0.11574 0.59036 0.27938 0.0
N213 N 0.11383 0.56398 0.27685 0.0
C214 C 0.10767 0.60888 0.26316 0.0
H215 H 0.11313 0.55727 0.34173 0.0
H216 H 0.14867 0.59226 0.33595 0.0
H217 H 0.14871 0.55828 0.33219 0.0
H218 H 0.12888 0.62359 0.25242 0.0
H219 H 0.10012 0.62289 0.27065 0.0
H220 H 0.08851 0.59464 0.25364 0.0
C221 C 0.44084 0.5798 0.31059 0.0
N222 N 0.42749 0.55758 0.29845 0.0
N223 N 0.4669 0.60337 0.30038 0.0
C224 C 0.42718 0.57968 0.3317 0.0
C225 C 0.46894 0.59483 0.28156 0.0
N226 N 0.44488 0.56725 0.28021 0.0
C227 C 0.49617 0.61241 0.26531 0.0
H228 H 0.43343 0.60253 0.33432 0.0
H229 H 0.43714 0.5705 0.34424 0.0
H230 H 0.40109 0.56583 0.33298 0.0
H231 H 0.5013 0.59755 0.25689 0.0
H232 H 0.51781 0.62739 0.27265 0.0
H233 H 0.48997 0.62613 0.25363 0.0
Gd234 Gd 0.52589 0.03175 0.05163 0.0
Gd235 Gd 0.50856 1.00131 1.00168 0.0
C236 C 0.40897 0.92655 0.99358 0.0
C237 C 0.41949 0.88649 0.98808 0.0
C238 C 0.46271 0.93477 0.99306 0.0
C239 C 0.44157 0.94536 0.99532 0.0
C240 C 0.45194 0.90545 0.98891 0.0
C241 C 0.39807 0.89704 0.99036 0.0
C242 C 0.38819 0.93799 0.99476 0.0
C243 C 0.39986 0.9674 0.99767 0.0
N244 N 0.45279 0.97405 0.99864 0.0
C245 C 0.43216 0.98519 0.99946 0.0
H246 H 0.43946 1.00744 1.0022 0.0
C247 C 0.5158 0.94533 0.98843 0.0
N248 N 0.49397 0.95353 0.99375 0.0
C249 C 0.50628 0.91649 0.98445 0.0
C250 C 0.47417 0.89628 0.98505 0.0
H251 H 0.54071 0.96106 0.98777 0.0
H252 H 0.37312 0.88232 0.98926 0.0
H253 H 0.59445 0.02967 0.05391 0.0
H254 H 0.36316 0.92443 0.99314 0.0
H255 H 0.3839 0.97645 0.99865 0.0
H256 H 0.41079 0.86385 0.98515 0.0
H257 H 0.48781 0.06852 0.06223 0.0
H258 H 0.66817 0.11597 0.0612 0.0
H259 H 0.65052 0.0636 0.05761 0.0
H260 H 0.61379 0.17206 0.06539 0.0
H261 H 0.52371 0.90993 0.98087 0.0
H262 H 0.4668 0.87396 0.98184 0.0
H263 H 0.65455 0.15674 0.06296 0.0
H264 H 0.50048 0.11918 0.0681 0.0
N265 N 0.58027 0.0627 0.0544 0.0
C266 C 0.64354 0.10133 0.05912 0.0
C267 C 0.63361 0.07172 0.05728 0.0
C268 C 0.6214 0.11146 0.05899 0.0
C269 C 0.58945 0.09125 0.05683 0.0
C270 C 0.60168 0.05251 0.0552 0.0
N271 N 0.53591 0.07916 0.05775 0.0
C272 C 0.56657 0.09983 0.05832 0.0
C273 C 0.5193 0.11407 0.0653 0.0
C274 C 0.55081 0.13602 0.06492 0.0
C275 C 0.51221 0.08545 0.06203 0.0
C276 C 0.57492 0.1289 0.06183 0.0
H277 H 0.55625 0.15813 0.06759 0.0
O278 O 0.50111 0.02503 0.08181 0.0
O279 O 0.49091 0.99523 0.03509 0.0
O280 O 0.49194 0.03524 1.00258 0.0
O281 O 0.52143 0.06494 0.02739 0.0
O282 O 0.47328 0.01472 0.05344 0.0
O283 O 0.537 0.0115 0.07957 0.0
O284 O 0.52655 0.03941 0.97688 0.0
O285 O 0.5438 0.0359 0.01896 0.0
O286 O 0.53927 0.9951 0.05273 0.0
O287 O 0.52009 0.97054 0.02343 0.0
O288 O 0.56041 0.01411 1.00256 0.0
O289 O 0.51479 0.99658 0.96896 0.0
C290 C 0.46561 0.99369 0.04212 0.0
C291 C 0.60687 0.14954 0.0629 0.0
C292 C 0.63007 0.14081 0.06155 0.0
C293 C 0.5175 0.01423 0.092 0.0
C294 C 0.5299 0.0254 0.11181 0.0
C295 C 0.55259 0.05505 0.11215 0.0
C296 C 0.52 1.00554 0.13057 0.0
C297 C 0.53282 0.01505 0.14965 0.0
C298 C 0.56542 0.06467 0.13104 0.0
C299 C 0.55573 0.04479 0.1497 0.0
C300 C 0.50341 0.06003 0.01117 0.0
C301 C 0.56879 0.03615 0.013 0.0
C302 C 0.52838 0.02478 0.96239 0.0
C303 C 0.55922 0.03781 0.95018 0.0
C304 C 0.58154 0.0286 0.95585 0.0
C305 C 0.56661 0.05976 0.93269 0.0
C306 C 0.59631 0.07288 0.92128 0.0
C307 C 0.61146 0.04259 0.94545 0.0
C308 C 0.61899 0.06478 0.92846 0.0
C309 C 0.53303 0.97306 0.04179 0.0
H310 H 0.56059 0.07065 0.09789 0.0
H311 H 0.50276 0.98251 0.13023 0.0
H312 H 0.58298 0.08758 0.13119 0.0
H313 H 0.56582 0.05273 0.16421 0.0
H314 H 0.57604 0.0105 0.96822 0.0
H315 H 0.54879 0.06573 0.92762 0.0
H316 H 0.62876 0.03586 0.95039 0.0
H317 H 0.64239 0.07511 0.92065 0.0
Gd318 Gd 0.99282 0.5087 0.05009 0.0
Gd319 Gd 0.03281 0.53233 0.99617 0.0
C320 C 0.12609 0.53222 0.98455 0.0
C321 C 0.16242 0.58455 0.97389 0.0
C322 C 0.10673 0.56769 0.98192 0.0
C323 C 0.10115 0.53885 0.98635 0.0
C324 C 0.13728 0.59083 0.97517 0.0
C325 C 0.15685 0.55529 0.97863 0.0
C326 C 0.11928 0.5026 0.98855 0.0
C327 C 0.08811 0.48043 0.99361 0.0
N328 N 0.07121 0.51721 0.99223 0.0
C329 C 0.06418 0.48814 0.99511 0.0
H330 H 0.04026 0.47077 0.99916 0.0
C331 C 0.08554 0.60051 0.97691 0.0
N332 N 0.08197 0.57295 0.98352 0.0
C333 C 0.11539 0.62424 0.97014 0.0
C334 C 0.14147 0.61947 0.96954 0.0
H335 H 0.06543 0.60429 0.97747 0.0
H336 H 0.17637 0.55068 0.97736 0.0
H337 H 0.98827 0.57066 0.05333 0.0
H338 H 0.13779 0.49658 0.98745 0.0
H339 H 0.08251 0.45741 0.99643 0.0
H340 H 0.18614 0.60207 0.96896 0.0
H341 H 0.95792 0.4354 0.064 0.0
H342 H 0.89179 0.54657 0.0674 0.0
H343 H 0.94772 0.58495 0.06031 0.0
H344 H 0.83939 0.44043 0.07628 0.0
H345 H 0.11826 0.64618 0.96544 0.0
H346 H 0.16458 0.63788 0.9643 0.0
H347 H 0.85137 0.49255 0.0729 0.0
H348 H 0.90418 0.39363 0.07406 0.0
N349 N 0.95564 0.52459 0.05578 0.0
C350 C 0.90947 0.54013 0.06417 0.0
C351 C 0.94104 0.56184 0.06029 0.0
C352 C 0.90126 0.51029 0.06457 0.0
C353 C 0.92525 0.50312 0.06045 0.0
C354 C 0.96399 0.55362 0.0563 0.0
N355 N 0.94281 0.46794 0.06045 0.0
C356 C 0.91858 0.47383 0.06276 0.0
C357 C 0.90789 0.41607 0.07087 0.0
C358 C 0.88242 0.42161 0.07241 0.0
C359 C 0.93823 0.4397 0.06524 0.0
C360 C 0.88768 0.45082 0.06879 0.0
H361 H 0.85898 0.4033 0.07696 0.0
O362 O 1.00232 0.48882 0.07913 0.0
O363 O 0.03327 0.51631 0.02964 0.0
O364 O 0.99755 0.4825 1.00251 0.0
O365 O 0.96088 0.47687 0.02871 0.0
O366 O 0.01519 0.47898 0.05134 0.0
O367 O 0.00815 0.53324 0.0767 0.0
O368 O 0.01653 0.547 0.96795 0.0
O369 O 0.99345 0.52617 0.01701 0.0
O370 O 0.02915 0.55828 0.04526 0.0
O371 O 0.06284 0.56828 0.01545 0.0
O372 O 0.01147 0.56295 0.99471 0.0
O373 O 0.02036 0.50693 0.96982 0.0
C374 C 0.03809 0.49551 0.03741 0.0
C375 C 0.86335 0.45779 0.07178 0.0
C376 C 0.87017 0.48747 0.06983 0.0
C377 C 0.00877 0.51147 0.08891 0.0
C378 C 0.99414 0.50477 0.11038 0.0
C379 C 0.96161 0.49426 0.1137 0.0
C380 C 0.013 0.50955 0.12772 0.0
C381 C 0.9995 0.50438 0.1483 0.0
C382 C 0.94805 0.48877 0.13406 0.0
C383 C 0.96682 0.49391 0.15126 0.0
C384 C 0.96912 0.46756 0.01267 0.0
C385 C 0.99007 0.54805 0.00986 0.0
C386 C 0.0141 0.52561 0.95808 0.0
C387 C 0.02715 0.53422 0.93609 0.0
C388 C 0.0594 0.55361 0.9311 0.0
C389 C 0.00682 0.52381 0.91982 0.0
C390 C 0.01852 0.53317 0.8986 0.0
C391 C 0.07115 0.56293 0.91009 0.0
C392 C 0.05086 0.55295 0.89391 0.0
C393 C 0.05575 0.57531 0.03317 0.0
H394 H 0.94677 0.49049 0.10058 0.0
H395 H 0.03822 0.51797 0.12517 0.0
H396 H 0.92292 0.48068 0.13652 0.0
H397 H 0.9558 0.48962 0.16692 0.0
H398 H 0.07545 0.5617 0.94337 0.0
H399 H 0.98186 0.50886 0.92365 0.0
H400 H 0.09606 0.57797 0.90634 0.0
H401 H 0.06052 0.56029 0.87773 0.0
Gd402 Gd 0.48275 0.51094 1.00238 0.0
Gd403 Gd 0.49601 0.4883 0.05737 0.0
C404 C 0.5912 0.49381 0.07126 0.0
C405 C 0.57728 0.44182 0.07887 0.0
C406 C 0.53685 0.45589 0.07041 0.0
C407 C 0.55939 0.48546 0.06774 0.0
C408 C 0.54539 0.43372 0.07641 0.0
C409 C 0.60013 0.47183 0.0764 0.0
C410 C 0.61282 0.52397 0.07033 0.0
C411 C 0.60228 0.54481 0.0667 0.0
N412 N 0.54982 0.50607 0.06313 0.0
C413 C 0.57045 0.53541 0.06331 0.0
H414 H 0.56269 0.55179 0.0604 0.0
C415 C 0.48263 0.42037 0.07352 0.0
N416 N 0.50623 0.44893 0.06838 0.0
C417 C 0.48992 0.39753 0.07926 0.0
C418 C 0.52148 0.40418 0.08046 0.0
H419 H 0.45823 0.4152 0.07245 0.0
H420 H 0.6245 0.47781 0.079 0.0
H421 H 0.41393 0.44399 1.00364 0.0
H422 H 0.63747 0.53132 0.07297 0.0
H423 H 0.61868 0.56816 0.06635 0.0
H424 H 0.58438 0.42511 0.0833 0.0
H425 H 0.51688 0.58166 0.98032 0.0
H426 H 0.33758 0.46283 0.99694 0.0
H427 H 0.35753 0.42688 1.00283 0.0
H428 H 0.38831 0.56821 0.97924 0.0
H429 H 0.47123 0.37484 0.08275 0.0
H430 H 0.52706 0.38647 0.08503 0.0
H431 H 0.34926 0.51558 0.98849 0.0
H432 H 0.50139 0.62012 0.96904 0.0
N433 N 0.42743 0.4902 0.99883 0.0
C434 C 0.36277 0.47074 0.99719 0.0
C435 C 0.37395 0.45041 1.00049 0.0
C436 C 0.38427 0.50101 0.99352 0.0
C437 C 0.41686 0.51018 0.99419 0.0
C438 C 0.40643 0.46047 1.00093 0.0
N439 N 0.46984 0.54789 0.98935 0.0
C440 C 0.43874 0.53989 0.98933 0.0
C441 C 0.48353 0.5977 0.97486 0.0
C442 C 0.45171 0.59038 0.97632 0.0
C443 C 0.4922 0.57594 0.98119 0.0
C444 C 0.4288 0.56107 0.98321 0.0
H445 H 0.44503 0.60729 0.97147 0.0
O446 O 0.50256 0.492 0.98205 0.0
O447 O 0.5154 0.50705 0.02469 0.0
O448 O 0.50793 0.53676 0.05307 0.0
O449 O 0.49353 0.5497 0.02002 0.0
O450 O 0.53437 0.54464 1.0034 0.0
O451 O 0.48831 0.52292 0.96812 0.0
O452 O 0.46592 0.46786 0.08638 0.0
O453 O 0.46371 0.49508 0.03575 0.0
O454 O 0.46635 0.46152 0.00903 0.0
O455 O 0.49597 0.45639 0.03646 0.0
O456 O 0.44388 0.45716 0.0572 0.0
O457 O 0.5038 0.5131 0.08369 0.0
C458 C 0.54096 0.52961 0.01821 0.0
C459 C 0.39641 0.55219 0.98354 0.0
C460 C 0.37419 0.52223 0.98876 0.0
C461 C 0.50168 0.50717 0.96467 0.0
C462 C 0.53052 0.52161 0.95 0.0
C463 C 0.55798 0.54591 0.95523 0.0
C464 C 0.53078 0.51137 0.93052 0.0
C465 C 0.55837 0.5253 0.91658 0.0
C466 C 0.58531 0.55922 0.9419 0.0
C467 C 0.58569 0.5489 0.92292 0.0
C468 C 0.50355 0.55537 0.03908 0.0
C469 C 0.4378 0.47329 0.043 0.0
C470 C 0.48132 0.49104 0.09597 0.0
C471 C 0.48924 0.48572 0.11772 0.0
C472 C 0.50954 0.4737 0.1218 0.0
C473 C 0.47748 0.49385 0.13446 0.0
C474 C 0.48654 0.49049 0.15511 0.0
C475 C 0.51823 0.46998 0.14224 0.0
C476 C 0.507 0.47844 0.15877 0.0
C477 C 0.47916 0.44698 0.02002 0.0
H478 H 0.5586 0.55494 0.96952 0.0
H479 H 0.50943 0.49308 0.9261 0.0
H480 H 0.60639 0.57775 0.94632 0.0
H481 H 0.60761 0.55955 0.9132 0.0
H482 H 0.51889 0.46744 0.10918 0.0
H483 H 0.46208 0.50349 0.13132 0.0
H484 H 0.53397 0.46073 0.14527 0.0
H485 H 0.51425 0.47549 0.17447 0.0
Gd486 Gd 0.18817 0.35804 0.38526 0.0
Gd487 Gd 0.16472 0.32585 0.33613 0.0
C488 C 0.07288 0.24192 0.32977 0.0
C489 C 0.09158 0.20718 0.32417 0.0
C490 C 0.12892 0.25786 0.32881 0.0
C491 C 0.10428 0.26396 0.3313 0.0
C492 C 0.1229 0.22955 0.32486 0.0
C493 C 0.06662 0.21338 0.32656 0.0
C494 C 0.04875 0.24939 0.33109 0.0
C495 C 0.05622 0.27828 0.33368 0.0
N496 N 0.1111 0.29176 0.3344 0.0
C497 C 0.08771 0.29938 0.33513 0.0
H498 H 0.09315 0.32163 0.33708 0.0
C499 C 0.18408 0.27608 0.32446 0.0
N500 N 0.15893 0.28008 0.32926 0.0
C501 C 0.17929 0.24829 0.32072 0.0
C502 C 0.14857 0.22482 0.32116 0.0
H503 H 0.20788 0.29412 0.32413 0.0
H504 H 0.04261 0.19608 0.32557 0.0
H505 H 0.25754 0.35705 0.38335 0.0
H506 H 0.02439 0.23318 0.32971 0.0
H507 H 0.03774 0.28435 0.3345 0.0
H508 H 0.08645 0.18522 0.32132 0.0
H509 H 0.15054 0.39417 0.398 0.0
H510 H 0.33099 0.44163 0.39401 0.0
H511 H 0.31348 0.39044 0.3872 0.0
H512 H 0.27662 0.4966 0.40307 0.0
H513 H 0.19928 0.24499 0.31749 0.0
H514 H 0.14492 0.20334 0.31815 0.0
H515 H 0.31736 0.48172 0.39859 0.0
H516 H 0.16331 0.44408 0.40568 0.0
N517 N 0.24287 0.38914 0.38704 0.0
C518 C 0.30632 0.42727 0.3918 0.0
C519 C 0.29648 0.3983 0.38816 0.0
C520 C 0.28412 0.43713 0.39313 0.0
C521 C 0.2521 0.41714 0.39097 0.0
C522 C 0.26451 0.37937 0.386 0.0
N523 N 0.19858 0.40482 0.39315 0.0
C524 C 0.22924 0.42534 0.39387 0.0
C525 C 0.1821 0.43914 0.40235 0.0
C526 C 0.21362 0.46088 0.40238 0.0
C527 C 0.17495 0.41091 0.39803 0.0
C528 C 0.23766 0.45397 0.39849 0.0
H529 H 0.21911 0.48267 0.40589 0.0
O530 O 0.16721 0.35034 0.41697 0.0
O531 O 0.15045 0.32272 0.36971 0.0
O532 O 0.14781 0.35946 0.33923 0.0
O533 O 0.18129 0.39063 0.362 0.0
O534 O 0.13567 0.34163 0.39031 0.0
O535 O 0.19918 0.33344 0.41051 0.0
O536 O 0.19248 0.34192 0.30634 0.0
O537 O 0.20131 0.36245 0.35152 0.0
O538 O 0.20368 0.32344 0.38138 0.0
O539 O 0.16826 0.29206 0.35972 0.0
O540 O 0.2178 0.34403 0.33166 0.0
O541 O 0.1458 0.33809 0.30812 0.0
C542 C 0.12607 0.32135 0.3782 0.0
C543 C 0.26964 0.47443 0.39967 0.0
C544 C 0.29283 0.46596 0.39713 0.0
C545 C 0.18224 0.33654 0.42479 0.0
C546 C 0.19695 0.34438 0.44468 0.0
C547 C 0.22339 0.37198 0.44582 0.0
C548 C 0.18522 0.32301 0.46261 0.0
C549 C 0.19987 0.32888 0.48169 0.0
C550 C 0.2381 0.378 0.46473 0.0
C551 C 0.22655 0.35653 0.48258 0.0
C552 C 0.16109 0.38499 0.34699 0.0
C553 C 0.22628 0.36482 0.3433 0.0
C554 C 0.17041 0.34418 0.29597 0.0
C555 C 0.16482 0.33245 0.27579 0.0
C556 C 0.14767 0.30195 0.27479 0.0
C557 C 0.17906 0.35221 0.25729 0.0
C558 C 0.17679 0.34169 0.23785 0.0
C559 C 0.14533 0.29134 0.25549 0.0
C560 C 0.16003 0.31107 0.23708 0.0
C561 C 0.18871 0.29739 0.37442 0.0
H562 H 0.23279 0.38869 0.43213 0.0
H563 H 0.16501 0.30154 0.46159 0.0
H564 H 0.25856 0.39931 0.46554 0.0
H565 H 0.23817 0.36167 0.49712 0.0
H566 H 0.13643 0.28638 0.28885 0.0
H567 H 0.19255 0.37579 0.25808 0.0
H568 H 0.13221 0.26776 0.25481 0.0
H569 H 0.15791 0.30251 0.22224 0.0
Gd570 Gd 0.64967 0.84098 0.38338 0.0
Gd571 Gd 0.69156 0.86254 0.3303 0.0
C572 C 0.78193 0.85692 0.31971 0.0
C573 C 0.82115 0.9088 0.3109 0.0
C574 C 0.76599 0.89478 0.31814 0.0
C575 C 0.75833 0.86527 0.32165 0.0
C576 C 0.79736 0.91688 0.31226 0.0
C577 C 0.81345 0.87887 0.31465 0.0
C578 C 0.77308 0.82674 0.32268 0.0
C579 C 0.74129 0.80578 0.32696 0.0
N580 N 0.72767 0.84467 0.32665 0.0
C581 C 0.71873 0.81516 0.32862 0.0
H582 H 0.6943 0.79867 0.33202 0.0
C583 C 0.74817 0.93023 0.31375 0.0
N584 N 0.74246 0.90179 0.31964 0.0
C585 C 0.77892 0.95297 0.30794 0.0
C586 C 0.80372 0.94633 0.30746 0.0
H587 H 0.72904 0.93544 0.31418 0.0
H588 H 0.83195 0.8729 0.31328 0.0
H589 H 0.654 0.90983 0.38056 0.0
H590 H 0.7905 0.8194 0.32138 0.0
H591 H 0.73414 0.78237 0.32903 0.0
H592 H 0.84545 0.92548 0.30661 0.0
H593 H 0.60533 0.76861 0.40049 0.0
H594 H 0.56051 0.89655 0.38817 0.0
H595 H 0.61789 0.92994 0.38187 0.0
H596 H 0.4968 0.7914 0.40315 0.0
H597 H 0.78349 0.97558 0.30385 0.0
H598 H 0.82752 0.96397 0.30293 0.0
H599 H 0.51563 0.84496 0.39598 0.0
H600 H 0.549 0.73238 0.40957 0.0
N601 N 0.618 0.86433 0.38588 0.0
C602 C 0.57636 0.88728 0.38773 0.0
C603 C 0.60872 0.90617 0.38421 0.0
C604 C 0.56487 0.85666 0.39105 0.0
C605 C 0.58649 0.84566 0.39021 0.0
C606 C 0.6293 0.89437 0.38357 0.0
N607 N 0.59698 0.80542 0.39373 0.0
C608 C 0.57572 0.81539 0.39414 0.0
C609 C 0.55614 0.75561 0.40516 0.0
C610 C 0.53366 0.76527 0.40444 0.0
C611 C 0.58793 0.77614 0.40005 0.0
C612 C 0.54334 0.79549 0.39925 0.0
H613 H 0.50901 0.74932 0.4084 0.0
O614 O 0.68471 0.85984 0.40652 0.0
O615 O 0.68872 0.84422 0.36368 0.0
O616 O 0.65408 0.81362 0.33429 0.0
O617 O 0.62044 0.80513 0.36356 0.0
O618 O 0.66517 0.80607 0.38428 0.0
O619 O 0.63876 0.82388 0.41681 0.0
O620 O 0.68012 0.88098 0.3015 0.0
O621 O 0.6507 0.85691 0.34967 0.0
O622 O 0.68688 0.88995 0.37846 0.0
O623 O 0.72255 0.89596 0.3511 0.0
O624 O 0.67246 0.89477 0.32821 0.0
O625 O 0.67969 0.83886 0.30306 0.0
C626 C 0.68946 0.82107 0.37112 0.0
C627 C 0.52177 0.80636 0.39947 0.0
C628 C 0.53251 0.83686 0.3954 0.0
C629 C 0.66686 0.84095 0.42237 0.0
C630 C 0.68121 0.82663 0.4367 0.0
C631 C 0.68078 0.80052 0.43253 0.0
C632 C 0.69454 0.8385 0.45516 0.0
C633 C 0.70788 0.82466 0.46904 0.0
C634 C 0.69518 0.78761 0.44553 0.0
C635 C 0.70896 0.79972 0.46346 0.0
C636 C 0.62731 0.79732 0.34618 0.0
C637 C 0.64879 0.87937 0.3418 0.0
C638 C 0.67647 0.85948 0.29128 0.0
C639 C 0.69113 0.86827 0.26971 0.0
C640 C 0.72387 0.88613 0.26581 0.0
C641 C 0.6719 0.85958 0.25271 0.0
C642 C 0.6852 0.86903 0.23183 0.0
C643 C 0.73721 0.89555 0.24517 0.0
C644 C 0.71805 0.88721 0.22826 0.0
C645 C 0.71488 0.90482 0.36769 0.0
H646 H 0.66893 0.7896 0.41947 0.0
H647 H 0.69353 0.85782 0.45897 0.0
H648 H 0.69521 0.76781 0.44186 0.0
H649 H 0.72011 0.78917 0.47312 0.0
H650 H 0.73907 0.89296 0.27866 0.0
H651 H 0.64656 0.84587 0.25571 0.0
H652 H 0.7625 0.90938 0.24226 0.0
H653 H 0.72898 0.89454 0.21238 0.0
Gd654 Gd 0.15917 0.84742 0.33432 0.0
Gd655 Gd 0.16594 0.82174 0.39018 0.0
C656 C 0.2548 0.81642 0.40827 0.0
C657 C 0.23416 0.76342 0.41813 0.0
C658 C 0.19886 0.78307 0.40743 0.0
C659 C 0.22403 0.81143 0.40432 0.0
C660 C 0.20346 0.75875 0.41482 0.0
C661 C 0.25981 0.79221 0.41482 0.0
C662 C 0.27951 0.8456 0.40575 0.0
C663 C 0.27302 0.86892 0.40008 0.0
N664 N 0.21829 0.83422 0.39784 0.0
C665 C 0.24205 0.86282 0.39644 0.0
H666 H 0.23756 0.88111 0.39194 0.0
C667 C 0.14353 0.7523 0.40916 0.0
N668 N 0.16962 0.77942 0.40401 0.0
C669 C 0.14684 0.72744 0.41644 0.0
C670 C 0.17698 0.73061 0.41902 0.0
H671 H 0.12023 0.74978 0.40695 0.0
H672 H 0.28333 0.79557 0.41771 0.0
H673 H 0.08816 0.79059 0.32839 0.0
H674 H 0.30352 0.85039 0.4085 0.0
H675 H 0.29187 0.89161 0.39841 0.0
H676 H 0.23825 0.74499 0.42359 0.0
H677 H 0.20789 0.92015 0.32127 0.0
H678 H 0.02621 0.8252 0.30912 0.0
H679 H 0.03578 0.78249 0.31797 0.0
H680 H 0.09371 0.93034 0.30135 0.0
H681 H 0.12617 0.70586 0.41998 0.0
H682 H 0.17949 0.71133 0.42467 0.0
H683 H 0.04782 0.88044 0.30358 0.0
H684 H 0.20431 0.96562 0.3096 0.0
N685 N 0.1082 0.83746 0.32542 0.0
C686 C 0.04934 0.82892 0.31356 0.0
C687 C 0.05468 0.80476 0.31848 0.0
C688 C 0.07417 0.85764 0.31383 0.0
C689 C 0.10386 0.86124 0.31955 0.0
C690 C 0.08443 0.80946 0.32443 0.0
N691 N 0.15829 0.89166 0.32219 0.0
C692 C 0.1297 0.88925 0.31796 0.0
C693 C 0.18313 0.94429 0.31196 0.0
C694 C 0.15369 0.94234 0.30847 0.0
C695 C 0.1851 0.91852 0.31851 0.0
C696 C 0.12656 0.91454 0.31108 0.0
H697 H 0.15225 0.96231 0.30329 0.0
O698 O 0.19417 0.86225 0.30808 0.0
O699 O 0.18743 0.83693 0.35751 0.0
O700 O 0.18558 0.87191 0.38313 0.0
O701 O 0.15925 0.87992 0.35464 0.0
O702 O 0.21182 0.87459 0.33631 0.0
O703 O 0.14823 0.82446 0.30662 0.0
O704 O 0.13391 0.80546 0.41835 0.0
O705 O 0.1374 0.83071 0.36671 0.0
O706 O 0.13901 0.79709 0.34049 0.0
O707 O 0.16058 0.78641 0.37097 0.0
O708 O 0.113 0.7947 0.38833 0.0
O709 O 0.17465 0.84902 0.41516 0.0
C710 C 0.21473 0.85722 0.35129 0.0
C711 C 0.09668 0.91117 0.30649 0.0
C712 C 0.07054 0.88276 0.30779 0.0
C713 C 0.17556 0.84256 0.29662 0.0
C714 C 0.17554 0.85373 0.27425 0.0
C715 C 0.16436 0.87398 0.26899 0.0
C716 C 0.18841 0.84555 0.25807 0.0
C717 C 0.19077 0.85826 0.2369 0.0
C718 C 0.16646 0.88639 0.2481 0.0
C719 C 0.17978 0.87881 0.23219 0.0
C720 C 0.17511 0.88815 0.3716 0.0
C721 C 0.10973 0.81145 0.37302 0.0
C722 C 0.15064 0.82883 0.42743 0.0
C723 C 0.15698 0.82353 0.44965 0.0
C724 C 0.17643 0.81081 0.45473 0.0
C725 C 0.14454 0.83204 0.46584 0.0
C726 C 0.15219 0.82836 0.48688 0.0
C727 C 0.18368 0.80678 0.47552 0.0
C728 C 0.17184 0.81561 0.49146 0.0
C729 C 0.14681 0.77954 0.35311 0.0
H730 H 0.15433 0.88048 0.28106 0.0
H731 H 0.19717 0.82995 0.26196 0.0
H732 H 0.1579 0.90213 0.24423 0.0
H733 H 0.18119 0.88878 0.21608 0.0
H734 H 0.18625 0.80422 0.44261 0.0
H735 H 0.12972 0.84215 0.46201 0.0
H736 H 0.19877 0.79699 0.47926 0.0
H737 H 0.178 0.81244 0.50746 0.0
Gd738 Gd 0.85309 0.68773 0.71952 0.0
Gd739 Gd 0.83325 0.65673 0.66994 0.0
C740 C 0.74332 0.57089 0.66392 0.0
C741 C 0.76382 0.53729 0.65893 0.0
C742 C 0.79975 0.58867 0.66272 0.0
C743 C 0.77439 0.59375 0.66523 0.0
C744 C 0.7948 0.56056 0.65907 0.0
C745 C 0.73813 0.54245 0.66134 0.0
C746 C 0.71854 0.57762 0.66437 0.0
C747 C 0.72522 0.60676 0.66527 0.0
N748 N 0.78024 0.62153 0.66755 0.0
C749 C 0.75641 0.6286 0.66678 0.0
H750 H 0.7613 0.65104 0.66757 0.0
C751 C 0.85515 0.60865 0.65801 0.0
N752 N 0.82939 0.61167 0.66291 0.0
C753 C 0.85142 0.58115 0.65438 0.0
C754 C 0.82113 0.55691 0.65517 0.0
H755 H 0.87864 0.62722 0.65741 0.0
H756 H 0.71439 0.52452 0.66058 0.0
H757 H 0.92251 0.68656 0.71918 0.0
H758 H 0.69435 0.56072 0.66333 0.0
H759 H 0.70636 0.6124 0.66492 0.0
H760 H 0.75952 0.51544 0.6564 0.0
H761 H 0.81506 0.72356 0.73203 0.0
H762 H 0.9958 0.77184 0.72871 0.0
H763 H 0.97843 0.72032 0.72278 0.0
H764 H 0.94078 0.82637 0.73743 0.0
H765 H 0.8719 0.57867 0.651 0.0
H766 H 0.81833 0.53565 0.65233 0.0
H767 H 0.98177 0.81172 0.73318 0.0
H768 H 0.82748 0.77342 0.73968 0.0
N769 N 0.90766 0.71869 0.72223 0.0
C770 C 0.97109 0.75724 0.72678 0.0
C771 C 0.96134 0.72811 0.72359 0.0
C772 C 0.94874 0.76693 0.72803 0.0
C773 C 0.91675 0.74675 0.72595 0.0
C774 C 0.92938 0.70895 0.72157 0.0
N775 N 0.8632 0.73432 0.72765 0.0
C776 C 0.89378 0.75491 0.72853 0.0
C777 C 0.84637 0.76854 0.73653 0.0
C778 C 0.87783 0.79037 0.73668 0.0
C779 C 0.83943 0.74034 0.73225 0.0
C780 C 0.90201 0.78356 0.733 0.0
H781 H 0.88318 0.81216 0.74009 0.0
O782 O 0.8311 0.68018 0.75084 0.0
O783 O 0.81664 0.65311 0.70299 0.0
O784 O 0.81574 0.69026 0.67202 0.0
O785 O 0.847 0.72061 0.69601 0.0
O786 O 0.80035 0.67154 0.72275 0.0
O787 O 0.86184 0.66171 0.74497 0.0
O788 O 0.86377 0.67684 0.64143 0.0
O789 O 0.86849 0.69307 0.68616 0.0
O790 O 0.8688 0.65288 0.71673 0.0
O791 O 0.83594 0.62249 0.69354 0.0
O792 O 0.88632 0.67445 0.66745 0.0
O793 O 0.81461 0.66612 0.64075 0.0
C794 C 0.7916 0.65169 0.71033 0.0
C795 C 0.93395 0.80417 0.73418 0.0
C796 C 0.95727 0.79583 0.73178 0.0
C797 C 0.8451 0.66551 0.75896 0.0
C798 C 0.85967 0.67309 0.77888 0.0
C799 C 0.88296 0.70197 0.78091 0.0
C800 C 0.85087 0.65051 0.79591 0.0
C801 C 0.86483 0.65655 0.8152 0.0
C802 C 0.89725 0.70814 0.79993 0.0
C803 C 0.88826 0.68563 0.81702 0.0
C804 C 0.82819 0.71552 0.68018 0.0
C805 C 0.89396 0.69539 0.67888 0.0
C806 C 0.84139 0.67607 0.62987 0.0
C807 C 0.84089 0.66583 0.60954 0.0
C808 C 0.8278 0.63565 0.60763 0.0
C809 C 0.85681 0.68714 0.59207 0.0
C810 C 0.86016 0.67864 0.57269 0.0
C811 C 0.83109 0.62701 0.58837 0.0
C812 C 0.84739 0.64838 0.57097 0.0
C813 C 0.85501 0.62726 0.70905 0.0
H814 H 0.89013 0.7196 0.76787 0.0
H815 H 0.83322 0.62813 0.79405 0.0
H816 H 0.91518 0.73047 0.80149 0.0
H817 H 0.89913 0.69114 0.83175 0.0
H818 H 0.81551 0.6189 0.621 0.0
H819 H 0.86724 0.71048 0.59367 0.0
H820 H 0.8211 0.60371 0.58695 0.0
H821 H 0.84952 0.64132 0.55612 0.0
Gd822 Gd 0.31135 0.17354 0.71826 0.0
Gd823 Gd 0.35304 0.19519 0.66502 0.0
C824 C 0.44406 0.19047 0.65502 0.0
C825 C 0.48284 0.24243 0.64585 0.0
C826 C 0.42758 0.22795 0.65316 0.0
C827 C 0.42032 0.19859 0.65724 0.0
C828 C 0.45878 0.25019 0.64694 0.0
C829 C 0.47547 0.2126 0.6498 0.0
C830 C 0.43529 0.16034 0.65721 0.0
C831 C 0.40344 0.13924 0.66072 0.0
N832 N 0.38964 0.17783 0.66176 0.0
C833 C 0.38077 0.14843 0.66276 0.0
H834 H 0.35629 0.13183 0.66559 0.0
C835 C 0.40882 0.2626 0.64715 0.0
N836 N 0.40364 0.23451 0.65384 0.0
C837 C 0.43941 0.2855 0.64104 0.0
C838 C 0.46459 0.27935 0.64122 0.0
H839 H 0.38942 0.26745 0.64712 0.0
H840 H 0.49407 0.20681 0.6482 0.0
H841 H 0.30598 0.23612 0.71568 0.0
H842 H 0.45278 0.15315 0.65559 0.0
H843 H 0.39632 0.11588 0.662 0.0
H844 H 0.50702 0.25921 0.64129 0.0
H845 H 0.27683 0.10123 0.73639 0.0
H846 H 0.2088 0.21237 0.72623 0.0
H847 H 0.26462 0.25071 0.71816 0.0
H848 H 0.15763 0.10656 0.74328 0.0
H849 H 0.44355 0.30786 0.63625 0.0
H850 H 0.48824 0.29708 0.63638 0.0
H851 H 0.16895 0.15846 0.73536 0.0
H852 H 0.22323 0.06004 0.74761 0.0
N853 N 0.27394 0.18984 0.72177 0.0
C854 C 0.22688 0.2058 0.72519 0.0
C855 C 0.25837 0.22751 0.72066 0.0
C856 C 0.21921 0.17592 0.72878 0.0
C857 C 0.24364 0.16858 0.72711 0.0
C858 C 0.28179 0.21911 0.7193 0.0
N859 N 0.26151 0.13344 0.73009 0.0
C860 C 0.23721 0.13943 0.73134 0.0
C861 C 0.22681 0.08224 0.74297 0.0
C862 C 0.20119 0.08776 0.74318 0.0
C863 C 0.25709 0.10557 0.73666 0.0
C864 C 0.20627 0.11672 0.73765 0.0
H865 H 0.17776 0.06966 0.74808 0.0
O866 O 0.32718 0.15849 0.74653 0.0
O867 O 0.35134 0.17898 0.69847 0.0
O868 O 0.31598 0.14582 0.67086 0.0
O869 O 0.28025 0.13878 0.69849 0.0
O870 O 0.33198 0.14223 0.72071 0.0
O871 O 0.32174 0.19764 0.74531 0.0
O872 O 0.34384 0.21323 0.63504 0.0
O873 O 0.3128 0.1902 0.68454 0.0
O874 O 0.34769 0.22294 0.71221 0.0
O875 O 0.38425 0.22893 0.68559 0.0
O876 O 0.33357 0.22716 0.6623 0.0
O877 O 0.3369 0.16842 0.63961 0.0
C878 C 0.35456 0.15727 0.70628 0.0
C879 C 0.18164 0.12373 0.73868 0.0
C880 C 0.18809 0.15329 0.73422 0.0
C881 C 0.3286 0.17917 0.75679 0.0
C882 C 0.3153 0.16936 0.77873 0.0
C883 C 0.28269 0.15146 0.78334 0.0
C884 C 0.33569 0.17637 0.79528 0.0
C885 C 0.32366 0.16495 0.81632 0.0
C886 C 0.27063 0.14021 0.80417 0.0
C887 C 0.29095 0.14669 0.82057 0.0
C888 C 0.28824 0.13016 0.68193 0.0
C889 C 0.31046 0.21235 0.67637 0.0
C890 C 0.33684 0.18958 0.62638 0.0
C891 C 0.35148 0.19433 0.60519 0.0
C892 C 0.38417 0.20559 0.60204 0.0
C893 C 0.33243 0.18674 0.588 0.0
C894 C 0.34591 0.18989 0.56775 0.0
C895 C 0.3977 0.20909 0.58196 0.0
C896 C 0.37874 0.20118 0.56492 0.0
C897 C 0.37596 0.23802 0.7018 0.0
H898 H 0.26663 0.1459 0.77085 0.0
H899 H 0.36094 0.19011 0.79177 0.0
H900 H 0.24545 0.12628 0.80761 0.0
H901 H 0.28108 0.13779 0.83662 0.0
H902 H 0.39915 0.21145 0.61508 0.0
H903 H 0.3071 0.17768 0.59048 0.0
H904 H 0.42295 0.21777 0.57962 0.0
H905 H 0.38974 0.20397 0.54949 0.0
Gd906 Gd 0.82491 0.17612 0.67094 0.0
Gd907 Gd 0.83432 0.14966 0.72594 0.0
C908 C 0.92251 0.14261 0.74261 0.0
C909 C 0.90176 0.08929 0.74994 0.0
C910 C 0.86668 0.10971 0.74068 0.0
C911 C 0.89197 0.13804 0.73838 0.0
C912 C 0.87113 0.085 0.74686 0.0
C913 C 0.92741 0.11807 0.74787 0.0
C914 C 0.94694 0.17168 0.7422 0.0
C915 C 0.94036 0.1952 0.73821 0.0
N916 N 0.88636 0.16119 0.73323 0.0
C917 C 0.90977 0.18953 0.73369 0.0
H918 H 0.90513 0.20794 0.73031 0.0
C919 C 0.8113 0.07918 0.74203 0.0
N920 N 0.83745 0.10643 0.73773 0.0
C921 C 0.8145 0.05395 0.74804 0.0
C922 C 0.84459 0.05681 0.75022 0.0
H923 H 0.78801 0.07682 0.74022 0.0
H924 H 0.95078 0.12112 0.75091 0.0
H925 H 0.75339 0.11808 0.66793 0.0
H926 H 0.97071 0.17616 0.74546 0.0
H927 H 0.95895 0.21775 0.73825 0.0
H928 H 0.90573 0.07057 0.75448 0.0
H929 H 0.87152 0.24844 0.65531 0.0
H930 H 0.68757 0.15053 0.6561 0.0
H931 H 0.6989 0.1086 0.66254 0.0
H932 H 0.75381 0.25603 0.64477 0.0
H933 H 0.79379 0.03231 0.75095 0.0
H934 H 0.847 0.03724 0.75492 0.0
H935 H 0.70823 0.20571 0.64991 0.0
H936 H 0.86604 0.29323 0.64466 0.0
N937 N 0.77264 0.16487 0.66479 0.0
C938 C 0.71155 0.15483 0.65836 0.0
C939 C 0.71787 0.13111 0.66191 0.0
C940 C 0.73644 0.18386 0.65703 0.0
C941 C 0.76718 0.18818 0.6601 0.0
C942 C 0.7488 0.13657 0.66495 0.0
N943 N 0.82201 0.21944 0.65929 0.0
C944 C 0.79271 0.21641 0.65715 0.0
C945 C 0.84522 0.27176 0.64821 0.0
C946 C 0.81514 0.26922 0.64698 0.0
C947 C 0.84827 0.24643 0.65415 0.0
C948 C 0.7884 0.24123 0.65116 0.0
H949 H 0.81285 0.28888 0.64238 0.0
O950 O 0.85826 0.19106 0.64373 0.0
O951 O 0.85443 0.16721 0.69342 0.0
O952 O 0.8532 0.19998 0.72 0.0
O953 O 0.82768 0.20935 0.6914 0.0
O954 O 0.87819 0.20323 0.67167 0.0
O955 O 0.8122 0.15296 0.64334 0.0
O956 O 0.80032 0.13464 0.75272 0.0
O957 O 0.80428 0.1585 0.70363 0.0
O958 O 0.80665 0.12593 0.67673 0.0
O959 O 0.83316 0.11735 0.70504 0.0
O960 O 0.7817 0.12068 0.72464 0.0
O961 O 0.84589 0.17342 0.75322 0.0
C962 C 0.88191 0.1864 0.6867 0.0
C963 C 0.75768 0.23721 0.64912 0.0
C964 C 0.73173 0.20856 0.65205 0.0
C965 C 0.83897 0.1711 0.63271 0.0
C966 C 0.83766 0.18188 0.6105 0.0
C967 C 0.82574 0.20165 0.60564 0.0
C968 C 0.8501 0.17383 0.59403 0.0
C969 C 0.85129 0.18614 0.57293 0.0
C970 C 0.82673 0.2137 0.58478 0.0
C971 C 0.83962 0.20622 0.56855 0.0
C972 C 0.84325 0.21679 0.70857 0.0
C973 C 0.77738 0.13743 0.70992 0.0
C974 C 0.81904 0.15507 0.76365 0.0
C975 C 0.82002 0.14512 0.78605 0.0
C976 C 0.8268 0.12189 0.79188 0.0
C977 C 0.81228 0.15778 0.80181 0.0
C978 C 0.81041 0.14663 0.82324 0.0
C979 C 0.82518 0.11095 0.81311 0.0
C980 C 0.81678 0.12302 0.8287 0.0
C981 C 0.8174 0.1096 0.68794 0.0
H982 H 0.81601 0.20803 0.61797 0.0
H983 H 0.85941 0.1586 0.59763 0.0
H984 H 0.81764 0.22907 0.58119 0.0
H985 H 0.84021 0.2159 0.55249 0.0
H986 H 0.8329 0.11194 0.78005 0.0
H987 H 0.80699 0.17573 0.7974 0.0
H988 H 0.83026 0.09289 0.81749 0.0
H989 H 0.81563 0.11418 0.84507 0.0
C990 C 0.29172 0.8507 0.06291 0.0
C991 C 0.28808 0.83469 0.08295 0.0
C992 C 0.32039 0.87603 0.05544 0.0
C993 C 0.34601 0.88661 0.0686 0.0
C994 C 0.34193 0.87142 0.0893 0.0
C995 C 0.31324 0.84544 0.09609 0.0
C996 C 0.3236 0.8905 0.03306 0.0
C997 C 0.36802 0.88243 0.10423 0.0
C998 C 0.43107 0.93794 0.04537 0.0
C999 C 0.4346 0.96608 0.04696 0.0
C1000 C 0.40216 0.91196 0.05168 0.0
C1001 C 0.37663 0.91398 0.06089 0.0
C1002 C 0.38034 0.94238 0.06275 0.0
C1003 C 0.40896 0.96792 0.05553 0.0
C1004 C 0.399 0.88236 0.04854 0.0
C1005 C 0.35417 0.94581 0.0727 0.0
H1006 H 0.27223 0.84282 0.05278 0.0
H1007 H 0.31089 0.83306 0.11144 0.0
H1008 H 0.33493 0.91495 0.03211 0.0
H1009 H 0.33893 0.88525 0.02352 0.0
H1010 H 0.30045 0.88246 0.02592 0.0
H1011 H 0.36052 0.86932 0.12018 0.0
H1012 H 0.3887 0.88126 0.09793 0.0
H1013 H 0.37586 0.90601 0.10565 0.0
H1014 H 0.45097 0.9362 0.03935 0.0
H1015 H 0.41156 0.98954 0.05707 0.0
H1016 H 0.37795 0.87018 0.03965 0.0
H1017 H 0.39545 0.86871 0.06404 0.0
H1018 H 0.42013 0.88465 0.03986 0.0
H1019 H 0.33305 0.93658 0.06337 0.0
H1020 H 0.36118 0.96934 0.07377 0.0
H1021 H 0.34718 0.93313 0.08878 0.0
C1022 C 0.19431 0.53926 0.09489 0.0
C1023 C 0.21443 0.53016 0.08659 0.0
C1024 C 0.16657 0.53451 0.08521 0.0
C1025 C 0.15982 0.52154 0.06636 0.0
C1026 C 0.18143 0.51462 0.057 0.0
C1027 C 0.20808 0.51829 0.06754 0.0
C1028 C 0.14369 0.54178 0.09575 0.0
C1029 C 0.17572 0.50217 0.03636 0.0
C1030 C 0.07401 0.47861 0.05443 0.0
C1031 C 0.07015 0.50049 0.04178 0.0
C1032 C 0.1033 0.48507 0.06244 0.0
C1033 C 0.12939 0.51378 0.057 0.0
C1034 C 0.12609 0.53533 0.04324 0.0
C1035 C 0.09633 0.52864 0.03637 0.0
C1036 C 0.10593 0.46172 0.07752 0.0
C1037 C 0.15362 0.56584 0.03637 0.0
H1038 H 0.19951 0.54862 0.10952 0.0
H1039 H 0.22315 0.51045 0.0614 0.0
H1040 H 0.13884 0.55716 0.08477 0.0
H1041 H 0.12086 0.52123 0.10001 0.0
H1042 H 0.15269 0.55203 0.11024 0.0
H1043 H 0.19652 0.50104 0.03014 0.0
H1044 H 0.15518 0.47953 0.0385 0.0
H1045 H 0.17001 0.51599 0.02441 0.0
H1046 H 0.05376 0.45693 0.05897 0.0
H1047 H 0.09368 0.54595 0.02721 0.0
H1048 H 0.11293 0.46981 0.09293 0.0
H1049 H 0.12457 0.45736 0.07146 0.0
H1050 H 0.08339 0.44051 0.08011 0.0
H1051 H 0.16003 0.57881 0.04978 0.0
H1052 H 0.14806 0.5783 0.02322 0.0
H1053 H 0.17463 0.56424 0.03128 0.0
C1054 C 0.51197 0.70183 0.07542 0.0
C1055 C 0.54317 0.72246 0.07833 0.0
C1056 C 0.5048 0.67481 0.06838 0.0
C1057 C 0.5295 0.66838 0.06416 0.0
C1058 C 0.56114 0.68953 0.06667 0.0
C1059 C 0.56756 0.71631 0.07372 0.0
C1060 C 0.47078 0.65288 0.06588 0.0
C1061 C 0.58819 0.68367 0.06227 0.0
C1062 C 0.51103 0.58797 0.06676 0.0
C1063 C 0.5103 0.58437 0.04538 0.0
C1064 C 0.5169 0.61504 0.07308 0.0
C1065 C 0.52228 0.63925 0.05766 0.0
C1066 C 0.52155 0.63578 0.03607 0.0
C1067 C 0.51567 0.60845 0.03023 0.0
C1068 C 0.51741 0.61776 0.09627 0.0
C1069 C 0.5273 0.66103 0.01912 0.0
H1070 H 0.49318 0.70664 0.07914 0.0
H1071 H 0.5917 0.7325 0.0758 0.0
H1072 H 0.46795 0.64693 0.04968 0.0
H1073 H 0.46368 0.63218 0.07687 0.0
H1074 H 0.4545 0.66169 0.06903 0.0
H1075 H 0.61148 0.70276 0.06441 0.0
H1076 H 0.58535 0.66394 0.07295 0.0
H1077 H 0.58807 0.67873 0.0459 0.0
H1078 H 0.5067 0.56951 0.07867 0.0
H1079 H 0.51583 0.60621 0.01374 0.0
H1080 H 0.49971 0.62432 0.10072 0.0
H1081 H 0.5409 0.63539 0.09974 0.0
H1082 H 0.51232 0.59674 0.10629 0.0
H1083 H 0.51039 0.66927 0.02175 0.0
H1084 H 0.52486 0.65444 1.00309 0.0
H1085 H 0.5514 0.67974 0.01982 0.0
C1086 C 0.83689 0.32938 0.96105 0.0
C1087 C 0.82967 0.30212 0.97291 0.0
C1088 C 0.85915 0.3564 0.96746 0.0
C1089 C 0.87483 0.35626 0.98615 0.0
C1090 C 0.86736 0.32869 0.99826 0.0
C1091 C 0.84485 0.30202 0.99153 0.0
C1092 C 0.866 0.38513 0.95414 0.0
C1093 C 0.8835 0.32734 0.0182 0.0
C1094 C 0.95391 0.42454 0.99222 0.0
C1095 C 0.94518 0.43909 1.00581 0.0
C1096 C 0.93137 0.39762 0.98579 0.0
C1097 C 0.89914 0.38488 0.99295 0.0
C1098 C 0.89018 0.3996 1.00655 0.0
C1099 C 0.91319 0.4264 0.01277 0.0
C1100 C 0.9421 0.38274 0.97136 0.0
C1101 C 0.8562 0.38712 0.0145 0.0
H1102 H 0.82501 0.32947 0.94673 0.0
H1103 H 0.83953 0.28096 1.00059 0.0
H1104 H 0.86152 0.39931 0.96376 0.0
H1105 H 0.89128 0.39751 0.94844 0.0
H1106 H 0.85138 0.38154 0.94032 0.0
H1107 H 0.8748 0.30424 0.02599 0.0
H1108 H 0.90935 0.33769 0.01458 0.0
H1109 H 0.87962 0.34012 0.02945 0.0
H1110 H 0.97847 0.43406 0.9867 0.0
H1111 H 0.90593 0.43758 0.02296 0.0
H1112 H 0.9297 0.38043 0.95658 0.0
H1113 H 0.93589 0.36009 0.97895 0.0
H1114 H 0.96797 0.39528 0.96731 0.0
H1115 H 0.84128 0.38522 1.00101 0.0
H1116 H 0.8531 0.40109 0.02512 0.0
H1117 H 0.84739 0.3645 0.02317 0.0
C1118 C 0.69064 0.53447 0.96809 0.0
C1119 C 0.70536 0.52156 0.98097 0.0
C1120 C 0.66332 0.53426 0.97547 0.0
C1121 C 0.65182 0.52265 0.99667 0.0
C1122 C 0.66682 0.50993 0.00987 0.0
C1123 C 0.69296 0.50877 1.00162 0.0
C1124 C 0.64685 0.54649 0.96058 0.0
C1125 C 0.65588 0.49839 0.03277 0.0
C1126 C 0.59944 0.55175 0.01572 0.0
C1127 C 0.56965 0.52724 0.01535 0.0
C1128 C 0.62672 0.54979 0.01127 0.0
C1129 C 0.62372 0.52348 1.00477 0.0
C1130 C 0.59355 0.49879 1.00417 0.0
C1131 C 0.56692 0.50085 0.00984 0.0
C1132 C 0.65866 0.57602 0.01308 0.0
C1133 C 0.5892 0.4709 0.99621 0.0
H1134 H 0.70078 0.54522 0.95236 0.0
H1135 H 0.70432 0.49861 0.01147 0.0
H1136 H 0.62149 0.52993 0.96066 0.0
H1137 H 0.64816 0.56659 0.96586 0.0
H1138 H 0.65738 0.55236 0.94416 0.0
H1139 H 0.67018 0.48914 0.04088 0.0
H1140 H 0.65748 0.51665 0.04095 0.0
H1141 H 0.6308 0.48093 0.03429 0.0
H1142 H 0.60132 0.57223 0.0197 0.0
H1143 H 0.54383 0.48229 0.00869 0.0
H1144 H 0.6702 0.58676 0.99715 0.0
H1145 H 0.67416 0.56865 0.02167 0.0
H1146 H 0.65686 0.59278 0.0214 0.0
H1147 H 0.59771 0.47613 0.97936 0.0
H1148 H 0.56411 0.45324 0.99772 0.0
H1149 H 0.60338 0.46207 1.00491 0.0
C1150 C 0.48382 0.19523 0.95108 0.0
C1151 C 0.46076 0.19859 0.96175 0.0
C1152 C 0.48979 0.17162 0.95779 0.0
C1153 C 0.47246 0.15113 0.97577 0.0
C1154 C 0.44827 0.1539 0.9861 0.0
C1155 C 0.44278 0.17767 0.97896 0.0
C1156 C 0.5157 0.16947 0.94627 0.0
C1157 C 0.42922 0.13261 1.00529 0.0
C1158 C 0.47349 0.07773 0.98663 0.0
C1159 C 0.49584 0.08349 1.0019 0.0
C1160 C 0.46579 0.09952 0.97791 0.0
C1161 C 0.4808 0.12788 0.98453 0.0
C1162 C 0.50368 0.13399 0.99971 0.0
C1163 C 0.51105 0.11184 1.00808 0.0
C1164 C 0.44143 0.09214 0.96169 0.0
C1165 C 0.52033 0.16395 1.00721 0.0
H1166 H 0.4983 0.21201 0.93818 0.0
H1167 H 0.42534 0.18076 0.98734 0.0
H1168 H 0.53551 0.17407 0.9566 0.0
H1169 H 0.50698 0.14673 0.94234 0.0
H1170 H 0.52493 0.18541 0.93152 0.0
H1171 H 0.40987 0.1366 0.0106 0.0
H1172 H 0.41883 0.10943 1.00194 0.0
H1173 H 0.44489 0.13491 0.01839 0.0
H1174 H 0.46182 0.05611 0.98146 0.0
H1175 H 0.52897 0.11689 0.01938 0.0
H1176 H 0.45185 0.10777 0.94691 0.0
H1177 H 0.42136 0.09473 0.96744 0.0
H1178 H 0.43216 0.06917 0.95802 0.0
H1179 H 0.53315 0.18143 0.99367 0.0
H1180 H 0.53743 0.16513 0.01913 0.0
H1181 H 0.50276 0.169 0.0142 0.0
C1182 C 0.71657 0.18706 0.95733 0.0
C1183 C 0.74121 0.19936 0.97073 0.0
C1184 C 0.68934 0.15963 0.96372 0.0
C1185 C 0.686 0.14456 0.98435 0.0
C1186 C 0.71109 0.15672 0.99779 0.0
C1187 C 0.73844 0.18359 0.9907 0.0
C1188 C 0.66391 0.147 0.94847 0.0
C1189 C 0.70863 0.14249 0.02015 0.0
C1190 C 0.60171 0.09185 1.00749 0.0
C1191 C 0.59926 0.06389 1.00685 0.0
C1192 C 0.62996 0.11813 1.00085 0.0
C1193 C 0.656 0.11665 0.99206 0.0
C1194 C 0.65332 0.08847 0.99072 0.0
C1195 C 0.62524 0.06252 0.9984 0.0
C1196 C 0.63192 0.14749 1.00336 0.0
C1197 C 0.68007 0.08575 0.98099 0.0
H1198 H 0.71818 0.19922 0.94202 0.0
H1199 H 0.75757 0.19262 1.00101 0.0
H1200 H 0.65744 0.12359 0.94752 0.0
H1201 H 0.64234 0.14719 0.95415 0.0
H1202 H 0.67142 0.15972 0.9324 0.0
H1203 H 0.73228 0.14937 0.02632 0.0
H1204 H 0.69572 0.14982 0.03014 0.0
H1205 H 0.69549 0.11795 0.0217 0.0
H1206 H 0.58147 0.09327 0.01319 0.0
H1207 H 0.62338 0.04104 0.99741 0.0
H1208 H 0.63564 0.16079 0.98769 0.0
H1209 H 0.65246 0.16027 0.01249 0.0
H1210 H 0.61024 0.1448 0.01155 0.0
H1211 H 0.6864 0.09771 0.96468 0.0
H1212 H 0.674 0.0623 0.98051 0.0
H1213 H 0.70129 0.0962 0.99009 0.0
C1214 C 0.81646 0.52653 0.99699 0.0
C1215 C 0.81559 0.5409 0.97716 0.0
C1216 C 0.84465 0.52869 1.00421 0.0
C1217 C 0.87236 0.54374 0.99068 0.0
C1218 C 0.87165 0.55742 0.97035 0.0
C1219 C 0.84351 0.5567 0.96412 0.0
C1220 C 0.84481 0.51525 0.02643 0.0
C1221 C 0.90036 0.57225 0.95497 0.0
C1222 C 0.95469 0.57037 0.00935 0.0
C1223 C 0.95896 0.54589 1.00775 0.0
C1224 C 0.92566 0.56921 1.00525 0.0
C1225 C 0.90176 0.54407 0.99744 0.0
C1226 C 0.90642 0.51958 0.99525 0.0
C1227 C 0.93476 0.52054 1.00096 0.0
C1228 C 0.92066 0.59484 0.00916 0.0
C1229 C 0.88224 0.49302 0.98591 0.0
H1230 H 0.79491 0.51335 1.00692 0.0
H1231 H 0.84382 0.56857 0.94905 0.0
H1232 H 0.85464 0.49982 0.02655 0.0
H1233 H 0.86025 0.53318 0.03549 0.0
H1234 H 0.82086 0.5031 0.03462 0.0
H1235 H 0.8949 0.57903 0.93906 0.0
H1236 H 0.91903 0.59223 0.96079 0.0
H1237 H 0.91017 0.55702 0.95353 0.0
H1238 H 0.97387 0.59017 0.01416 0.0
H1239 H 0.93875 0.50216 0.9988 0.0
H1240 H 0.89772 0.58656 0.01819 0.0
H1241 H 0.91987 0.60711 0.99396 0.0
H1242 H 0.93978 0.61056 0.01803 0.0
H1243 H 0.85953 0.48225 0.99555 0.0
H1244 H 0.89004 0.47623 0.98481 0.0
H1245 H 0.87764 0.5003 0.96989 0.0
C1246 C 0.4487 0.29006 0.98972 0.0
C1247 C 0.46708 0.29444 0.97144 0.0
C1248 C 0.45065 0.31426 0.99863 0.0
C1249 C 0.47161 0.34348 0.989 0.0
C1250 C 0.49079 0.34791 0.97076 0.0
C1251 C 0.48825 0.32326 0.9622 0.0
C1252 C 0.42985 0.30859 0.01806 0.0
C1253 C 0.51357 0.37867 0.9601 0.0
C1254 C 0.45485 0.40607 0.99769 0.0
C1255 C 0.47617 0.41971 0.01278 0.0
C1256 C 0.45286 0.38103 0.99004 0.0
C1257 C 0.47278 0.3694 0.99757 0.0
C1258 C 0.49419 0.38293 0.01291 0.0
C1259 C 0.49565 0.4079 0.0203 0.0
C1260 C 0.42966 0.36722 0.97372 0.0
C1261 C 0.51598 0.37137 0.02126 0.0
H1262 H 0.43236 0.26762 0.99673 0.0
H1263 H 0.50256 0.32637 0.94814 0.0
H1264 H 0.44445 0.32014 0.03073 0.0
H1265 H 0.41347 0.31768 0.01447 0.0
H1266 H 0.41569 0.2846 0.02406 0.0
H1267 H 0.52765 0.3783 0.94656 0.0
H1268 H 0.50037 0.39042 0.95434 0.0
H1269 H 0.52998 0.3917 0.97153 0.0
H1270 H 0.43976 0.41502 0.99173 0.0
H1271 H 0.51264 0.41856 0.03165 0.0
H1272 H 0.41351 0.34347 0.97942 0.0
H1273 H 0.44252 0.36826 0.95903 0.0
H1274 H 0.41528 0.37845 0.9699 0.0
H1275 H 0.50215 0.34752 0.02763 0.0
H1276 H 0.53021 0.38357 0.03386 0.0
H1277 H 0.53232 0.37337 1.00824 0.0
C1278 C 0.18068 0.7369 0.06096 0.0
C1279 C 0.19713 0.73461 0.07845 0.0
C1280 C 0.15775 0.71144 0.05316 0.0
C1281 C 0.15133 0.68293 0.06294 0.0
C1282 C 0.16843 0.68061 0.08043 0.0
C1283 C 0.19101 0.70648 0.08801 0.0
C1284 C 0.14007 0.71504 0.0346 0.0
C1285 C 0.16274 0.65079 0.09119 0.0
C1286 C 0.07196 0.61565 0.05624 0.0
C1287 C 0.07976 0.60342 0.04033 0.0
C1288 C 0.09487 0.64159 0.06357 0.0
C1289 C 0.12658 0.65557 0.05503 0.0
C1290 C 0.13459 0.64329 0.039 0.0
C1291 C 0.11115 0.61757 0.0318 0.0
C1292 C 0.08516 0.65401 0.08053 0.0
C1293 C 0.16806 0.65706 0.02961 0.0
H1294 H 0.18545 0.75872 0.05366 0.0
H1295 H 0.20393 0.70485 0.10147 0.0
H1296 H 0.14344 0.70436 0.02157 0.0
H1297 H 0.11439 0.70378 0.03914 0.0
H1298 H 0.14794 0.73868 0.02868 0.0
H1299 H 0.17858 0.65278 0.10417 0.0
H1300 H 0.1379 0.63754 0.09774 0.0
H1301 H 0.16643 0.6383 0.0796 0.0
H1302 H 0.04786 0.60498 0.06298 0.0
H1303 H 0.11769 0.60821 0.01973 0.0
H1304 H 0.09099 0.67725 0.07495 0.0
H1305 H 0.09851 0.6543 0.09465 0.0
H1306 H 0.0595 0.64095 0.08523 0.0
H1307 H 0.17633 0.68045 0.0228 0.0
H1308 H 0.17036 0.64502 0.01709 0.0
H1309 H 0.18396 0.65715 0.04211 0.0
C1310 C 0.29067 0.49547 0.0735 0.0
C1311 C 0.29697 0.5064 0.09287 0.0
C1312 C 0.31142 0.48835 0.06367 0.0
C1313 C 0.33843 0.49124 0.07391 0.0
C1314 C 0.34404 0.50084 0.09402 0.0
C1315 C 0.32323 0.50858 0.10323 0.0
C1316 C 0.30506 0.47875 0.04206 0.0
C1317 C 0.3724 0.5036 0.10554 0.0
C1318 C 0.38258 0.45258 0.05743 0.0
C1319 C 0.40973 0.47655 0.0469 0.0
C1320 C 0.35854 0.45681 0.06585 0.0
C1321 C 0.36164 0.48557 0.06319 0.0
C1322 C 0.38796 0.50941 0.05126 0.0
C1323 C 0.41204 0.50472 0.04367 0.0
C1324 C 0.33091 0.43097 0.07872 0.0
C1325 C 0.39156 0.54021 0.04743 0.0
H1326 H 0.26969 0.49308 0.06591 0.0
H1327 H 0.3277 0.51688 0.11826 0.0
H1328 H 0.32446 0.49507 0.03053 0.0
H1329 H 0.30449 0.45712 0.04209 0.0
H1330 H 0.28238 0.47676 0.0366 0.0
H1331 H 0.37194 0.50912 0.1217 0.0
H1332 H 0.37346 0.48258 0.10661 0.0
H1333 H 0.39435 0.52121 0.09665 0.0
H1334 H 0.38102 0.43087 0.06014 0.0
H1335 H 0.43327 0.52347 0.03598 0.0
H1336 H 0.30829 0.42907 0.07331 0.0
H1337 H 0.33198 0.43471 0.09545 0.0
H1338 H 0.33078 0.40965 0.07787 0.0
H1339 H 0.36959 0.53942 0.0416 0.0
H1340 H 0.41153 0.55532 0.03581 0.0
H1341 H 0.3958 0.5497 0.06245 0.0
C1342 C 0.52384 0.81943 0.08548 0.0
C1343 C 0.55307 0.82031 0.08787 0.0
C1344 C 0.52189 0.84551 0.07984 0.0
C1345 C 0.5499 0.87322 0.07667 0.0
C1346 C 0.57941 0.8743 0.08009 0.0
C1347 C 0.58064 0.84778 0.08556 0.0
C1348 C 0.48994 0.84327 0.07638 0.0
C1349 C 0.6098 0.90333 0.07707 0.0
C1350 C 0.54596 0.93252 0.03767 0.0
C1351 C 0.54023 0.94932 0.05087 0.0
C1352 C 0.54983 0.9082 0.04587 0.0
C1353 C 0.54836 0.90054 0.06796 0.0
C1354 C 0.54393 0.91814 0.08146 0.0
C1355 C 0.53992 0.94233 0.07276 0.0
C1356 C 0.55466 0.89021 0.03084 0.0
C1357 C 0.54243 0.91086 0.10509 0.0
H1358 H 0.50255 0.79815 0.08757 0.0
H1359 H 0.60324 0.84838 0.08729 0.0
H1360 H 0.48636 0.8583 0.08562 0.0
H1361 H 0.48871 0.85038 0.05952 0.0
H1362 H 0.47032 0.82035 0.08088 0.0
H1363 H 0.63022 0.90076 0.08266 0.0
H1364 H 0.61468 0.9125 0.06011 0.0
H1365 H 0.60771 0.91976 0.08559 0.0
H1366 H 0.54742 0.93834 0.02083 0.0
H1367 H 0.53556 0.95518 0.08313 0.0
H1368 H 0.53465 0.86725 0.03319 0.0
H1369 H 0.5765 0.88883 0.03406 0.0
H1370 H 0.55638 0.89974 0.0141 0.0
H1371 H 0.52113 0.88931 0.11035 0.0
H1372 H 0.54149 0.92806 0.11337 0.0
H1373 H 0.56327 0.9085 0.1099 0.0
C1374 C 0.95005 0.18139 0.39869 0.0
C1375 C 0.94662 0.16453 0.41831 0.0
C1376 C 0.97859 0.20701 0.39152 0.0
C1377 C 0.00449 0.21674 0.40451 0.0
C1378 C 1.00048 0.2008 0.42494 0.0
C1379 C 0.97181 0.17469 0.43145 0.0
C1380 C 0.98073 0.22238 0.36956 0.0
C1381 C 0.02659 0.21118 0.43989 0.0
C1382 C 0.08989 0.26589 0.38153 0.0
C1383 C 0.09452 0.29444 0.38297 0.0
C1384 C 0.06048 0.24053 0.38777 0.0
C1385 C 0.03558 0.24355 0.3969 0.0
C1386 C 0.04041 0.27233 0.39872 0.0
C1387 C 0.06954 0.2973 0.39153 0.0
C1388 C 0.05597 0.21053 0.3844 0.0
C1389 C 0.01477 0.27675 0.40839 0.0
H1390 H 0.93048 0.174 0.3886 0.0
H1391 H 0.96948 0.16172 0.44655 0.0
H1392 H 1.00054 0.24534 0.36665 0.0
H1393 H 0.9838 0.20937 0.35814 0.0
H1394 H 0.95839 0.22291 0.36637 0.0
H1395 H 0.01886 0.19795 0.45579 0.0
H1396 H 0.04696 0.20952 0.43356 0.0
H1397 H 0.035 0.23482 0.44143 0.0
H1398 H 0.10928 0.26329 0.37568 0.0
H1399 H 0.07304 0.31924 0.39303 0.0
H1400 H 0.03539 0.19965 0.37481 0.0
H1401 H 0.0508 0.19612 0.39972 0.0
H1402 H 0.07711 0.21201 0.37627 0.0
H1403 H 0.99423 0.26894 0.39848 0.0
H1404 H 0.02286 0.30034 0.40998 0.0
H1405 H 0.0065 0.26337 0.4242 0.0
C1406 C 0.85259 0.82441 0.3994 0.0
C1407 C 0.86239 0.83897 0.41718 0.0
C1408 C 0.82469 0.82034 0.39037 0.0
C1409 C 0.80509 0.82909 0.40036 0.0
C1410 C 0.81423 0.84275 0.41884 0.0
C1411 C 0.84341 0.84848 0.42659 0.0
C1412 C 0.81672 0.80756 0.36989 0.0
C1413 C 0.79319 0.85122 0.43043 0.0
C1414 C 0.74795 0.84795 0.37171 0.0
C1415 C 0.71944 0.82142 0.37595 0.0
C1416 C 0.77633 0.85003 0.37828 0.0
C1417 C 0.77586 0.82557 0.3909 0.0
C1418 C 0.74723 0.79863 0.39548 0.0
C1419 C 0.71935 0.79666 0.38749 0.0
C1420 C 0.80661 0.87875 0.37221 0.0
C1421 C 0.74575 0.77256 0.40976 0.0
H1422 H 0.86696 0.81637 0.39249 0.0
H1423 H 0.85119 0.85989 0.44025 0.0
H1424 H 0.79249 0.78849 0.37121 0.0
H1425 H 0.81732 0.82463 0.35737 0.0
H1426 H 0.83355 0.80023 0.36487 0.0
H1427 H 0.80162 0.85748 0.44611 0.0
H1428 H 0.79242 0.87026 0.42106 0.0
H1429 H 0.76867 0.83255 0.43266 0.0
H1430 H 0.74822 0.86749 0.3636 0.0
H1431 H 0.69723 0.77628 0.39118 0.0
H1432 H 0.82466 0.87429 0.36525 0.0
H1433 H 0.81619 0.88953 0.38637 0.0
H1434 H 0.8031 0.8946 0.3607 0.0
H1435 H 0.76266 0.76605 0.40368 0.0
H1436 H 0.72174 0.75302 0.41142 0.0
H1437 H 0.75277 0.77895 0.42561 0.0
C1438 C 0.22174 0.05169 0.3958 0.0
C1439 C 0.20488 0.05042 0.41399 0.0
C1440 C 0.21683 0.02564 0.3882 0.0
C1441 C 0.19434 0.99773 0.399 0.0
C1442 C 0.17678 0.99645 0.41717 0.0
C1443 C 0.18241 0.02286 0.4245 0.0
C1444 C 0.23614 0.02796 0.36886 0.0
C1445 C 0.15234 0.96718 0.42899 0.0
C1446 C 0.16302 0.93014 0.37029 0.0
C1447 C 0.18058 0.91648 0.3783 0.0
C1448 C 0.16732 0.95661 0.3768 0.0
C1449 C 0.18978 0.96985 0.39167 0.0
C1450 C 0.20767 0.95624 0.39975 0.0
C1451 C 0.20276 0.92966 0.39304 0.0
C1452 C 0.1475 0.97018 0.36796 0.0
C1453 C 0.23197 0.96973 0.41553 0.0
H1454 H 0.23927 0.07312 0.38786 0.0
H1455 H 0.16935 0.0221 0.4385 0.0
H1456 H 0.25071 0.01702 0.37295 0.0
H1457 H 0.22033 0.01624 0.35671 0.0
H1458 H 0.25202 0.05132 0.36196 0.0
H1459 H 0.13988 0.97005 0.44234 0.0
H1460 H 0.13461 0.95414 0.41819 0.0
H1461 H 0.16379 0.95397 0.43524 0.0
H1462 H 0.14547 0.91991 0.35915 0.0
H1463 H 0.21643 0.91929 0.39932 0.0
H1464 H 0.16292 0.99342 0.36068 0.0
H1465 H 0.13256 0.97069 0.38088 0.0
H1466 H 0.13192 0.9577 0.35595 0.0
H1467 H 0.24978 0.99264 0.40896 0.0
H1468 H 0.24435 0.95671 0.41998 0.0
H1469 H 0.22045 0.97115 0.42999 0.0
C1470 C 0.49504 0.65816 0.29606 0.0
C1471 C 0.48829 0.63097 0.30783 0.0
C1472 C 0.5171 0.68524 0.30244 0.0
C1473 C 0.53307 0.68522 0.321 0.0
C1474 C 0.526 0.65773 0.33307 0.0
C1475 C 0.50363 0.63098 0.32638 0.0
C1476 C 0.52351 0.71388 0.28919 0.0
C1477 C 0.54251 0.65656 0.35286 0.0
C1478 C 0.61201 0.75406 0.32607 0.0
C1479 C 0.60343 0.76858 0.33976 0.0
C1480 C 0.58949 0.72687 0.32002 0.0
C1481 C 0.55741 0.71392 0.32761 0.0
C1482 C 0.5486 0.72864 0.3413 0.0
C1483 C 0.57162 0.75566 0.34719 0.0
C1484 C 0.60005 0.71196 0.30551 0.0
C1485 C 0.51475 0.71601 0.3496 0.0
H1486 H 0.48304 0.65811 0.28178 0.0
H1487 H 0.49863 0.60996 0.33535 0.0
H1488 H 0.51924 0.72806 0.29894 0.0
H1489 H 0.54865 0.72633 0.28318 0.0
H1490 H 0.50848 0.71017 0.27557 0.0
H1491 H 0.53402 0.63351 0.36067 0.0
H1492 H 0.56833 0.66701 0.34904 0.0
H1493 H 0.53875 0.66934 0.36416 0.0
H1494 H 0.63645 0.76379 0.3202 0.0
H1495 H 0.56451 0.76694 0.35738 0.0
H1496 H 0.5874 0.70953 0.29082 0.0
H1497 H 0.594 0.68935 0.3131 0.0
H1498 H 0.62586 0.72455 0.30127 0.0
H1499 H 0.49949 0.71394 0.33628 0.0
H1500 H 0.51179 0.72997 0.36029 0.0
H1501 H 0.50622 0.69344 0.35829 0.0
C1502 C 0.36653 0.83856 0.33 0.0
C1503 C 0.36381 0.83077 0.30961 0.0
C1504 C 0.34133 0.83855 0.34072 0.0
C1505 C 0.31359 0.83233 0.33024 0.0
C1506 C 0.30999 0.82278 0.31016 0.0
C1507 C 0.335 0.82136 0.30032 0.0
C1508 C 0.34519 0.84713 0.36264 0.0
C1509 C 0.28088 0.81646 0.29831 0.0
C1510 C 0.23816 0.8233 0.35486 0.0
C1511 C 0.24201 0.85196 0.34994 0.0
C1512 C 0.26232 0.817 0.35014 0.0
C1513 C 0.2902 0.83953 0.33891 0.0
C1514 C 0.29469 0.86875 0.33431 0.0
C1515 C 0.27069 0.87471 0.34029 0.0
C1516 C 0.25727 0.78593 0.35628 0.0
C1517 C 0.32388 0.89325 0.32183 0.0
H1518 H 0.38894 0.84635 0.33712 0.0
H1519 H 0.33281 0.8147 0.28478 0.0
H1520 H 0.34949 0.87022 0.36197 0.0
H1521 H 0.32337 0.83261 0.3729 0.0
H1522 H 0.36536 0.84572 0.36997 0.0
H1523 H 0.28135 0.80816 0.28322 0.0
H1524 H 0.25932 0.79984 0.30804 0.0
H1525 H 0.27901 0.83705 0.29484 0.0
H1526 H 0.21595 0.8054 0.36177 0.0
H1527 H 0.27359 0.89682 0.33624 0.0
H1528 H 0.27891 0.78642 0.36252 0.0
H1529 H 0.25188 0.77422 0.34224 0.0
H1530 H 0.23731 0.77289 0.36834 0.0
H1531 H 0.34536 0.89631 0.32985 0.0
H1532 H 0.32367 0.91473 0.31965 0.0
H1533 H 0.3257 0.88716 0.30608 0.0
C1534 C 0.1032 0.50496 0.31724 0.0
C1535 C 0.12058 0.52556 0.29971 0.0
C1536 C 0.10815 0.48079 0.32396 0.0
C1537 C 0.13095 0.47703 0.31275 0.0
C1538 C 0.14731 0.49692 0.2943 0.0
C1539 C 0.1419 0.52101 0.288 0.0
C1540 C 0.09006 0.46009 0.34362 0.0
C1541 C 0.17159 0.4936 0.2818 0.0
C1542 C 0.16989 0.43712 0.34377 0.0
C1543 C 0.15331 0.40847 0.3382 0.0
C1544 C 0.16293 0.45958 0.33554 0.0
C1545 C 0.13901 0.45345 0.32114 0.0
C1546 C 0.12243 0.42471 0.31523 0.0
C1547 C 0.12972 0.40258 0.32384 0.0
C1548 C 0.18115 0.48988 0.34233 0.0
C1549 C 0.09686 0.4173 0.2999 0.0
H1550 H 0.08649 0.50847 0.32611 0.0
H1551 H 0.1554 0.53711 0.27451 0.0
H1552 H 0.07854 0.43676 0.34049 0.0
H1553 H 0.10662 0.46217 0.35611 0.0
H1554 H 0.07169 0.46487 0.34968 0.0
H1555 H 0.18009 0.50918 0.26685 0.0
H1556 H 0.19214 0.49785 0.29133 0.0
H1557 H 0.16163 0.47062 0.27807 0.0
H1558 H 0.18856 0.44217 0.3545 0.0
H1559 H 0.11682 0.3806 0.31931 0.0
H1560 H 0.16466 0.49584 0.3498 0.0
H1561 H 0.19341 0.50677 0.32839 0.0
H1562 H 0.19896 0.49103 0.35368 0.0
H1563 H 0.07756 0.42048 0.30634 0.0
H1564 H 0.08671 0.39412 0.2965 0.0
H1565 H 0.10644 0.43251 0.28487 0.0
C1566 C 0.39686 0.51231 0.32395 0.0
C1567 C 0.39979 0.52884 0.30428 0.0
C1568 C 0.36918 0.48567 0.33085 0.0
C1569 C 0.34372 0.47461 0.31757 0.0
C1570 C 0.3471 0.49058 0.29725 0.0
C1571 C 0.3749 0.51762 0.29095 0.0
C1572 C 0.36688 0.47046 0.35284 0.0
C1573 C 0.32121 0.47922 0.28221 0.0
C1574 C 0.28277 0.39229 0.32907 0.0
C1575 C 0.2568 0.39294 0.3383 0.0
C1576 C 0.31097 0.41857 0.32219 0.0
C1577 C 0.31372 0.4464 0.32489 0.0
C1578 C 0.28778 0.44715 0.33461 0.0
C1579 C 0.25946 0.42056 0.34067 0.0
C1580 C 0.33783 0.41657 0.31188 0.0
C1581 C 0.2899 0.47607 0.33865 0.0
H1582 H 0.41622 0.52057 0.33417 0.0
H1583 H 0.37693 0.53032 0.27577 0.0
H1584 H 0.35445 0.4776 0.36339 0.0
H1585 H 0.35338 0.44599 0.35384 0.0
H1586 H 0.39058 0.47668 0.35874 0.0
H1587 H 0.32816 0.4932 0.26657 0.0
H1588 H 0.31491 0.4562 0.28001 0.0
H1589 H 0.29971 0.47863 0.28889 0.0
H1590 H 0.28083 0.37111 0.32688 0.0
H1591 H 0.23935 0.42149 0.34715 0.0
H1592 H 0.35876 0.42581 0.32138 0.0
H1593 H 0.34474 0.43003 0.29606 0.0
H1594 H 0.33162 0.39341 0.31015 0.0
H1595 H 0.3106 0.48803 0.34788 0.0
H1596 H 0.26834 0.47279 0.34739 0.0
H1597 H 0.29345 0.49042 0.32349 0.0
C1598 C 0.48236 0.87026 0.31731 0.0
C1599 C 0.47371 0.85851 0.29837 0.0
C1600 C 0.5115 0.87631 0.32518 0.0
C1601 C 0.5327 0.8712 0.31343 0.0
C1602 C 0.52481 0.86104 0.2936 0.0
C1603 C 0.49508 0.85451 0.28637 0.0
C1604 C 0.51875 0.88651 0.34655 0.0
C1605 C 0.54725 0.85602 0.28045 0.0
C1606 C 0.61804 0.90359 0.32718 0.0
C1607 C 0.61842 0.87841 0.33756 0.0
C1608 C 0.59012 0.90176 0.31943 0.0
C1609 C 0.562 0.87423 0.32261 0.0
C1610 C 0.56198 0.84911 0.334 0.0
C1611 C 0.59039 0.85137 0.34086 0.0
C1612 C 0.59101 0.92886 0.30704 0.0
C1613 C 0.53222 0.81958 0.33836 0.0
H1614 H 0.46577 0.87386 0.32624 0.0
H1615 H 0.48813 0.84548 0.27171 0.0
H1616 H 0.51816 0.86835 0.35794 0.0
H1617 H 0.54279 0.90573 0.34608 0.0
H1618 H 0.50144 0.89271 0.35247 0.0
H1619 H 0.53896 0.85119 0.2645 0.0
H1620 H 0.57105 0.87578 0.27876 0.0
H1621 H 0.5497 0.83706 0.28843 0.0
H1622 H 0.63988 0.92441 0.32433 0.0
H1623 H 0.59067 0.83168 0.34832 0.0
H1624 H 0.57288 0.93337 0.31381 0.0
H1625 H 0.58532 0.92483 0.29058 0.0
H1626 H 0.61447 0.94887 0.30677 0.0
H1627 H 0.51326 0.82229 0.34588 0.0
H1628 H 0.53592 0.8029 0.3488 0.0
H1629 H 0.52376 0.81082 0.32334 0.0
C1630 C 0.14928 0.65044 0.29895 0.0
C1631 C 0.12666 0.62204 0.30806 0.0
C1632 C 0.15242 0.67573 0.30683 0.0
C1633 C 0.13214 0.67243 0.32409 0.0
C1634 C 0.10937 0.64367 0.33343 0.0
C1635 C 0.10703 0.61877 0.32534 0.0
C1636 C 0.17729 0.70595 0.29662 0.0
C1637 C 0.0872 0.63923 0.35175 0.0
C1638 C 0.1579 0.73695 0.3554 0.0
C1639 C 0.14146 0.75124 0.34641 0.0
C1640 C 0.15486 0.71116 0.34845 0.0
C1641 C 0.13465 0.69913 0.33222 0.0
C1642 C 0.1175 0.71311 0.32334 0.0
C1643 C 0.12127 0.73912 0.33044 0.0
C1644 C 0.17394 0.69726 0.35815 0.0
C1645 C 0.09546 0.70078 0.30615 0.0
H1646 H 0.16444 0.65271 0.28561 0.0
H1647 H 0.08942 0.59669 0.33218 0.0
H1648 H 0.16593 0.71909 0.29006 0.0
H1649 H 0.19323 0.71818 0.30854 0.0
H1650 H 0.19174 0.70464 0.28373 0.0
H1651 H 0.07104 0.61542 0.35734 0.0
H1652 H 0.10088 0.64974 0.36505 0.0
H1653 H 0.0728 0.65018 0.34708 0.0
H1654 H 0.17391 0.74632 0.36755 0.0
H1655 H 0.10846 0.74999 0.32343 0.0
H1656 H 0.19067 0.69801 0.34593 0.0
H1657 H 0.15817 0.67361 0.36431 0.0
H1658 H 0.18762 0.70871 0.37119 0.0
H1659 H 0.10899 0.70116 0.29203 0.0
H1660 H 0.08283 0.71352 0.30153 0.0
H1661 H 0.07775 0.67733 0.31141 0.0
C1662 C 0.8425 0.06615 0.39412 0.0
C1663 C 0.85694 0.06404 0.41273 0.0
C1664 C 0.81984 0.0406 0.38626 0.0
C1665 C 0.81151 0.01215 0.39721 0.0
C1666 C 0.8265 0.00997 0.41586 0.0
C1667 C 0.84891 0.03592 0.42343 0.0
C1668 C 0.80437 0.04407 0.36644 0.0
C1669 C 0.81868 0.98019 0.42794 0.0
C1670 C 0.73142 0.94659 0.38942 0.0
C1671 C 0.73943 0.93261 0.37493 0.0
C1672 C 0.75453 0.97252 0.39663 0.0
C1673 C 0.78664 0.98475 0.38942 0.0
C1674 C 0.79491 0.97067 0.37486 0.0
C1675 C 0.77129 0.94491 0.3678 0.0
C1676 C 0.74454 0.98685 0.41201 0.0
C1677 C 0.82879 0.98262 0.36688 0.0
H1678 H 0.84851 0.08791 0.38598 0.0
H1679 H 0.86026 0.03434 0.43774 0.0
H1680 H 0.80787 0.03192 0.3545 0.0
H1681 H 0.77855 0.03424 0.36993 0.0
H1682 H 0.81391 0.06765 0.35954 0.0
H1683 H 0.83313 0.98222 0.44174 0.0
H1684 H 0.79336 0.96808 0.43356 0.0
H1685 H 0.82259 0.96655 0.41746 0.0
H1686 H 0.70699 0.93735 0.39514 0.0
H1687 H 0.77797 0.93412 0.3569 0.0
H1688 H 0.75185 0.01014 0.40541 0.0
H1689 H 0.7565 0.98737 0.42684 0.0
H1690 H 0.71861 0.97498 0.4158 0.0
H1691 H 0.83847 1.00583 0.35915 0.0
H1692 H 0.8313 0.96928 0.35545 0.0
H1693 H 0.84338 0.98286 0.3803 0.0
C1694 C 0.98871 0.86376 0.41207 0.0
C1695 C 0.96307 0.83807 0.42253 0.0
C1696 C 0.01359 0.86249 0.40184 0.0
C1697 C 0.01478 0.83552 0.40439 0.0
C1698 C 0.99068 0.81032 0.41705 0.0
C1699 C 0.96424 0.81144 0.42466 0.0
C1700 C 0.03788 0.89011 0.3882 0.0
C1701 C 0.99194 0.78175 0.42257 0.0
C1702 C 0.05603 0.80692 0.37114 0.0
C1703 C 0.08671 0.82113 0.37758 0.0
C1704 C 0.03337 0.81422 0.37787 0.0
C1705 C 0.0405 0.83306 0.39368 0.0
C1706 C 0.07153 0.84696 0.40059 0.0
C1707 C 0.09448 0.84174 0.39173 0.0
C1708 C 1.00165 0.80063 0.36847 0.0
C1709 C 0.08092 0.86633 0.41792 0.0
H1710 H 0.98875 0.88473 0.41114 0.0
H1711 H 0.94435 0.79108 0.43181 0.0
H1712 H 0.0549 0.90532 0.39839 0.0
H1713 H 0.05106 0.88542 0.3764 0.0
H1714 H 0.02639 0.90207 0.37972 0.0
H1715 H 0.98239 0.77187 0.43906 0.0
H1716 H 0.97664 0.76548 0.41232 0.0
H1717 H 0.01622 0.78479 0.42093 0.0
H1718 H 0.04941 0.78963 0.3613 0.0
H1719 H 0.1181 0.85208 0.39722 0.0
H1720 H 0.98826 0.81261 0.37071 0.0
H1721 H 0.98746 0.77718 0.37567 0.0
H1722 H 0.00473 0.80051 0.35134 0.0
H1723 H 0.09308 0.88992 0.41071 0.0
H1724 H 0.09804 0.86281 0.42781 0.0
H1725 H 0.06056 0.86226 0.42837 0.0
C1726 C 0.20028 0.15725 0.43313 0.0
C1727 C 0.21888 0.15034 0.42061 0.0
C1728 C 0.19711 0.18266 0.42715 0.0
C1729 C 0.21298 0.20151 0.40822 0.0
C1730 C 0.23306 0.1953 0.39613 0.0
C1731 C 0.23577 0.16978 0.40251 0.0
C1732 C 0.17556 0.18851 0.44052 0.0
C1733 C 0.25057 0.21485 0.37594 0.0
C1734 C 0.17615 0.24424 0.37855 0.0
C1735 C 0.19505 0.27305 0.38335 0.0
C1736 C 0.18167 0.22086 0.38663 0.0
C1737 C 0.20655 0.22621 0.40008 0.0
C1738 C 0.22548 0.25512 0.40528 0.0
C1739 C 0.21952 0.27821 0.39684 0.0
C1740 C 0.1609 0.19041 0.38064 0.0
C1741 C 0.25218 0.26169 0.41959 0.0
H1742 H 0.18719 0.14205 0.44709 0.0
H1743 H 0.25045 0.16447 0.39305 0.0
H1744 H 0.18772 0.21178 0.44379 0.0
H1745 H 0.15452 0.18533 0.43185 0.0
H1746 H 0.16746 0.17351 0.45574 0.0
H1747 H 0.26712 0.20828 0.36928 0.0
H1748 H 0.2334 0.21359 0.36407 0.0
H1749 H 0.2641 0.23831 0.37867 0.0
H1750 H 0.1568 0.23979 0.36848 0.0
H1751 H 0.23418 0.30032 0.40075 0.0
H1752 H 0.14929 0.1742 0.395 0.0
H1753 H 0.1755 0.18301 0.37241 0.0
H1754 H 0.14235 0.1899 0.37018 0.0
H1755 H 0.24315 0.24709 0.4349 0.0
H1756 H 0.26417 0.28513 0.42256 0.0
H1757 H 0.26989 0.25693 0.41247 0.0
C1758 C 0.62209 0.52063 0.76091 0.0
C1759 C 0.61392 0.49372 0.75341 0.0
C1760 C 0.65206 0.54577 0.75558 0.0
C1761 C 0.67352 0.54518 0.74062 0.0
C1762 C 0.66512 0.51805 0.7329 0.0
C1763 C 0.6367 0.49257 0.74048 0.0
C1764 C 0.66005 0.57257 0.76632 0.0
C1765 C 0.6854 0.51531 0.71628 0.0
C1766 C 0.73253 0.62267 0.71291 0.0
C1767 C 0.76164 0.62364 0.71616 0.0
C1768 C 0.70384 0.59693 0.71984 0.0
C1769 C 0.7041 0.57265 0.73267 0.0
C1770 C 0.73385 0.57458 0.73723 0.0
C1771 C 0.76203 0.59945 0.72825 0.0
C1772 C 0.67351 0.59621 0.71324 0.0
C1773 C 0.73677 0.55108 0.75193 0.0
H1774 H 0.60519 0.52248 0.77079 0.0
H1775 H 0.63192 0.47171 0.73555 0.0
H1776 H 0.68535 0.58948 0.76399 0.0
H1777 H 0.64539 0.58274 0.76043 0.0
H1778 H 0.65384 0.56561 0.78351 0.0
H1779 H 0.6704 0.49975 0.70547 0.0
H1780 H 0.70142 0.53679 0.70667 0.0
H1781 H 0.69972 0.50586 0.72402 0.0
H1782 H 0.73215 0.64182 0.70429 0.0
H1783 H 0.78456 0.60065 0.73172 0.0
H1784 H 0.66504 0.60517 0.72508 0.0
H1785 H 0.65477 0.57341 0.71175 0.0
H1786 H 0.67731 0.61043 0.69794 0.0
H1787 H 0.71473 0.53574 0.76172 0.0
H1788 H 0.75596 0.56162 0.76262 0.0
H1789 H 0.74366 0.53816 0.74258 0.0
C1790 C 0.49881 0.1564 0.76135 0.0
C1791 C 0.52711 0.16943 0.74881 0.0
C1792 C 0.4716 0.15586 0.75336 0.0
C1793 C 0.4724 0.16705 0.73197 0.0
C1794 C 0.50086 0.18003 0.71918 0.0
C1795 C 0.52813 0.18181 0.72797 0.0
C1796 C 0.44202 0.14314 0.76777 0.0
C1797 C 0.50227 0.19106 0.69611 0.0
C1798 C 0.39118 0.13621 0.71086 0.0
C1799 C 0.38583 0.16046 0.7102 0.0
C1800 C 0.42035 0.13875 0.71644 0.0
C1801 C 0.44341 0.16538 0.72313 0.0
C1802 C 0.4378 0.18977 0.72281 0.0
C1803 C 0.40923 0.18712 0.716 0.0
C1804 C 0.42628 0.11286 0.71549 0.0
C1805 C 0.46104 0.21802 0.73085 0.0
H1806 H 0.49778 0.14614 0.77728 0.0
H1807 H 0.55018 0.1922 0.7184 0.0
H1808 H 0.43244 0.15886 0.76688 0.0
H1809 H 0.42363 0.12233 0.76272 0.0
H1810 H 0.44636 0.13826 0.78444 0.0
H1811 H 0.52654 0.20142 0.68852 0.0
H1812 H 0.48655 0.1722 0.68785 0.0
H1813 H 0.49361 0.20745 0.69393 0.0
H1814 H 0.37269 0.11544 0.70677 0.0
H1815 H 0.40448 0.20538 0.71652 0.0
H1816 H 0.42653 0.10263 0.73166 0.0
H1817 H 0.44971 0.1205 0.70734 0.0
H1818 H 0.4079 0.0956 0.70713 0.0
H1819 H 0.4636 0.21314 0.74787 0.0
H1820 H 0.45348 0.23527 0.72875 0.0
H1821 H 0.48469 0.22721 0.72263 0.0
C1822 C 0.84817 0.35157 0.7606 0.0
C1823 C 0.8712 0.37919 0.75055 0.0
C1824 C 0.84355 0.32519 0.75367 0.0
C1825 C 0.86253 0.32654 0.73627 0.0
C1826 C 0.88556 0.35455 0.72588 0.0
C1827 C 0.88953 0.38057 0.73313 0.0
C1828 C 0.81853 0.29587 0.76506 0.0
C1829 C 0.90624 0.35701 0.70728 0.0
C1830 C 0.87026 0.25776 0.73082 0.0
C1831 C 0.84888 0.24514 0.71553 0.0
C1832 C 0.87517 0.28438 0.73757 0.0
C1833 C 0.85817 0.29865 0.72893 0.0
C1834 C 0.83653 0.28596 0.71352 0.0
C1835 C 0.83212 0.25943 0.70707 0.0
C1836 C 0.89848 0.29719 0.75402 0.0
C1837 C 0.81772 0.30023 0.70397 0.0
H1838 H 0.83397 0.35075 0.774 0.0
H1839 H 0.90736 0.40207 0.72548 0.0
H1840 H 0.80143 0.28308 0.75385 0.0
H1841 H 0.82957 0.28248 0.77171 0.0
H1842 H 0.80541 0.29865 0.77805 0.0
H1843 H 0.92278 0.38041 0.70082 0.0
H1844 H 0.92018 0.34563 0.71202 0.0
H1845 H 0.8914 0.3458 0.69459 0.0
H1846 H 0.88327 0.2469 0.7375 0.0
H1847 H 0.81505 0.24964 0.69557 0.0
H1848 H 0.88625 0.29858 0.76814 0.0
H1849 H 0.91685 0.32007 0.74786 0.0
H1850 H 0.91025 0.28374 0.75891 0.0
H1851 H 0.8027 0.30147 0.71647 0.0
H1852 H 0.80232 0.28785 0.69185 0.0
H1853 H 0.83389 0.32325 0.6966 0.0
C1854 C 0.16738 0.96369 0.66046 0.0
C1855 C 0.15176 0.96381 0.64206 0.0
C1856 C 0.18925 0.99038 0.66748 0.0
C1857 C 0.19554 0.01795 0.6559 0.0
C1858 C 0.17931 0.01808 0.63747 0.0
C1859 C 0.15776 0.99105 0.63076 0.0
C1860 C 0.20607 0.98908 0.68709 0.0
C1861 C 0.1849 0.04679 0.62474 0.0
C1862 C 0.23293 0.08755 0.68311 0.0
C1863 C 0.26471 0.10128 0.67543 0.0
C1864 C 0.21029 0.06053 0.67698 0.0
C1865 C 0.21946 0.04661 0.6628 0.0
C1866 C 0.25151 0.0603 0.65504 0.0
C1867 C 0.27364 0.08744 0.66134 0.0
C1868 C 0.17643 0.04704 0.68554 0.0
C1869 C 0.26247 0.04624 0.64003 0.0
H1870 H 0.16296 0.94264 0.66908 0.0
H1871 H 0.14554 0.99111 0.6166 0.0
H1872 H 0.2319 1.00009 0.68314 0.0
H1873 H 0.20198 1.00127 0.69873 0.0
H1874 H 0.19813 0.96597 0.69455 0.0
H1875 H 0.16975 0.04314 0.61118 0.0
H1876 H 0.18018 0.06032 0.63488 0.0
H1877 H 0.20999 0.05989 0.61866 0.0
H1878 H 0.22552 0.09814 0.69374 0.0
H1879 H 0.29805 0.09772 0.65528 0.0
H1880 H 0.16844 0.02435 0.69382 0.0
H1881 H 0.16095 0.04508 0.67237 0.0
H1882 H 0.17318 0.06038 0.69664 0.0
H1883 H 0.25694 0.02361 0.64724 0.0
H1884 H 0.28825 0.05933 0.63572 0.0
H1885 H 0.24968 0.044 0.62542 0.0
C1886 C 0.01551 0.17552 0.6297 0.0
C1887 C 0.02151 0.152 0.63622 0.0
C1888 C 0.99054 0.17728 0.63909 0.0
C1889 C 0.97286 0.15648 0.65679 0.0
C1890 C 0.97854 0.13246 0.66346 0.0
C1891 C 1.00205 0.1299 0.65247 0.0
C1892 C 0.98346 0.20169 0.63013 0.0
C1893 C 0.96051 0.10958 0.68224 0.0
C1894 C 0.93614 0.19176 0.68702 0.0
C1895 C 0.90474 0.17651 0.68203 0.0
C1896 C 0.9579 0.18294 0.68098 0.0
C1897 C 0.94856 0.16043 0.66786 0.0
C1898 C 0.91683 0.14512 0.66267 0.0
C1899 C 0.89532 0.15326 0.66997 0.0
C1900 C 0.99105 0.19822 0.68811 0.0
C1901 C 0.90589 0.12135 0.64844 0.0
H1902 H 0.03084 0.19304 0.61748 0.0
H1903 H 0.00584 0.11112 0.65707 0.0
H1904 H 0.95767 0.19283 0.62886 0.0
H1905 H 0.99142 0.21898 0.64068 0.0
H1906 H 0.99557 0.21241 0.61428 0.0
H1907 H 0.97671 0.10388 0.69155 0.0
H1908 H 0.94835 0.11696 0.69282 0.0
H1909 H 0.94264 0.08895 0.67662 0.0
H1910 H 0.94383 0.21083 0.69525 0.0
H1911 H 0.87149 0.14271 0.66498 0.0
H1912 H 0.00752 0.21392 0.67488 0.0
H1913 H 0.99898 0.18171 0.69323 0.0
H1914 H 0.99274 0.21082 0.70131 0.0
H1915 H 0.92086 0.12992 0.63345 0.0
H1916 H 0.88084 0.1132 0.64472 0.0
H1917 H 0.90822 0.10225 0.65618 0.0
C1918 C 0.77666 0.83972 0.64452 0.0
C1919 C 0.79748 0.86102 0.6284 0.0
C1920 C 0.77958 0.81455 0.65205 0.0
C1921 C 0.80389 0.81055 0.64316 0.0
C1922 C 0.82411 0.83144 0.6262 0.0
C1923 C 0.82085 0.8566 0.6192 0.0
C1924 C 0.75768 0.79308 0.67024 0.0
C1925 C 0.8502 0.82803 0.61615 0.0
C1926 C 0.83657 0.76751 0.67766 0.0
C1927 C 0.82136 0.73952 0.67088 0.0
C1928 C 0.83083 0.79058 0.66894 0.0
C1929 C 0.80974 0.7859 0.65268 0.0
C1930 C 0.79451 0.75781 0.64559 0.0
C1931 C 0.80038 0.73496 0.65481 0.0
C1932 C 0.84749 0.82006 0.67712 0.0
C1933 C 0.77215 0.75197 0.62815 0.0
H1934 H 0.75892 0.8435 0.65179 0.0
H1935 H 0.83764 0.8736 0.60729 0.0
H1936 H 0.74679 0.77008 0.66645 0.0
H1937 H 0.77136 0.79398 0.6843 0.0
H1938 H 0.73859 0.79811 0.67434 0.0
H1939 H 0.86154 0.84427 0.60172 0.0
H1940 H 0.86854 0.8313 0.62751 0.0
H1941 H 0.84089 0.80533 0.61198 0.0
H1942 H 0.85333 0.77164 0.6897 0.0
H1943 H 0.7886 0.71354 0.6493 0.0
H1944 H 0.82993 0.82614 0.68271 0.0
H1945 H 0.86272 0.83763 0.66424 0.0
H1946 H 0.86239 0.81983 0.69028 0.0
H1947 H 0.75233 0.75569 0.63273 0.0
H1948 H 0.76229 0.72902 0.62433 0.0
H1949 H 0.78461 0.76773 0.61372 0.0
C1950 C 0.03978 0.84929 0.62512 0.0
C1951 C 0.06486 0.86104 0.63826 0.0
C1952 C 0.01241 0.82196 0.63162 0.0
C1953 C 0.00957 0.80634 0.652 0.0
C1954 C 0.03514 0.81796 0.66511 0.0
C1955 C 0.06251 0.84475 0.65794 0.0
C1956 C 0.98636 0.80996 0.61675 0.0
C1957 C 0.03319 0.8031 0.6872 0.0
C1958 C 0.92598 0.75126 0.67571 0.0
C1959 C 0.92407 0.72384 0.67363 0.0
C1960 C 0.95384 0.77814 0.66935 0.0
C1961 C 0.98002 0.77786 0.65957 0.0
C1962 C 0.978 0.75023 0.65713 0.0
C1963 C 0.95031 0.72368 0.66438 0.0
C1964 C 0.9552 0.80686 0.67312 0.0
C1965 C 0.00507 0.74873 0.64665 0.0
H1966 H 0.04128 0.86178 0.60995 0.0
H1967 H 0.08203 0.85338 0.668 0.0
H1968 H 0.98033 0.78693 0.61481 0.0
H1969 H 0.96477 0.80922 0.62343 0.0
H1970 H 0.993 0.82363 0.601 0.0
H1971 H 0.05685 0.811 0.69356 0.0
H1972 H 0.01877 0.80848 0.69749 0.0
H1973 H 0.02164 0.77865 0.68803 0.0
H1974 H 0.90564 0.75181 0.68219 0.0
H1975 H 0.94893 0.70265 0.6624 0.0
H1976 H 0.95826 0.82084 0.65786 0.0
H1977 H 0.97589 0.8194 0.68219 0.0
H1978 H 0.93353 0.80323 0.68191 0.0
H1979 H 0.01142 0.76191 0.63074 0.0
H1980 H 0.99936 0.72564 0.6451 0.0
H1981 H 0.02619 0.75856 0.65592 0.0
C1982 C 0.14303 0.20098 0.64984 0.0
C1983 C 0.13406 0.18491 0.63274 0.0
C1984 C 0.17251 0.20922 0.65803 0.0
C1985 C 0.19413 0.20293 0.6479 0.0
C1986 C 0.18642 0.18964 0.6292 0.0
C1987 C 0.15614 0.18023 0.62208 0.0
C1988 C 0.17935 0.22237 0.67838 0.0
C1989 C 0.20948 0.18387 0.61738 0.0
C1990 C 0.27959 0.23633 0.66149 0.0
C1991 C 0.28 0.21151 0.67256 0.0
C1992 C 0.25153 0.23428 0.65379 0.0
C1993 C 0.22323 0.20702 0.65795 0.0
C1994 C 0.2232 0.18249 0.67031 0.0
C1995 C 0.25177 0.18479 0.67679 0.0
C1996 C 0.25262 0.26057 0.64003 0.0
C1997 C 0.19326 0.15334 0.67585 0.0
H1998 H 0.12631 0.20577 0.65746 0.0
H1999 H 0.14928 0.16827 0.60862 0.0
H2000 H 0.17704 0.2051 0.69138 0.0
H2001 H 0.20384 0.24091 0.67777 0.0
H2002 H 0.16269 0.23047 0.68224 0.0
H2003 H 0.20181 0.17794 0.60151 0.0
H2004 H 0.23327 0.20367 0.61557 0.0
H2005 H 0.21165 0.16533 0.62639 0.0
H2006 H 0.30154 0.2569 0.65783 0.0
H2007 H 0.25197 0.16527 0.6846 0.0
H2008 H 0.23368 0.26506 0.64531 0.0
H2009 H 0.24843 0.25553 0.62362 0.0
H2010 H 0.27574 0.28091 0.63998 0.0
H2011 H 0.17441 0.15709 0.68238 0.0
H2012 H 0.19684 0.1377 0.68753 0.0
H2013 H 0.18479 0.14272 0.66146 0.0
C2014 C 0.78404 0.95332 0.65443 0.0
C2015 C 0.80472 0.9577 0.63745 0.0
C2016 C 0.78576 0.97749 0.6633 0.0
C2017 C 0.80878 1.0067 0.65496 0.0
C2018 C 0.8301 0.0111 0.63801 0.0
C2019 C 0.82785 0.98649 0.62951 0.0
C2020 C 0.76274 0.97182 0.68142 0.0
C2021 C 0.85519 0.0418 0.6288 0.0
C2022 C 0.79473 0.07109 0.66349 0.0
C2023 C 0.81397 0.08251 0.68004 0.0
C2024 C 0.79267 0.04632 0.6553 0.0
C2025 C 0.81032 0.03266 0.66379 0.0
C2026 C 0.82969 0.04404 0.68054 0.0
C2027 C 0.83132 0.06879 0.6884 0.0
C2028 C 0.77184 0.03496 0.63737 0.0
C2029 C 0.84913 0.03038 0.68997 0.0
H2030 H 0.76624 0.93094 0.66049 0.0
H2031 H 0.84402 0.98962 0.61654 0.0
H2032 H 0.77576 0.98167 0.69513 0.0
H2033 H 0.74821 0.98265 0.67688 0.0
H2034 H 0.74674 0.94779 0.68636 0.0
H2035 H 0.86923 0.04149 0.61521 0.0
H2036 H 0.84419 0.05579 0.62356 0.0
H2037 H 0.87147 0.05249 0.64103 0.0
H2038 H 0.78136 0.08157 0.65683 0.0
H2039 H 0.84677 0.07771 0.70089 0.0
H2040 H 0.75406 0.01134 0.64191 0.0
H2041 H 0.78628 0.03615 0.62347 0.0
H2042 H 0.7593 0.04777 0.63271 0.0
H2043 H 0.83384 1.00631 0.69505 0.0
H2044 H 0.86154 0.0408 0.70371 0.0
H2045 H 0.86701 0.03286 0.67791 0.0
C2046 C 0.49625 0.39988 0.73163 0.0
C2047 C 0.51679 0.39821 0.74648 0.0
C2048 C 0.4735 0.37431 0.72382 0.0
C2049 C 0.47067 0.34625 0.73146 0.0
C2050 C 0.49127 0.34452 0.74666 0.0
C2051 C 0.51422 0.37055 0.75383 0.0
C2052 C 0.45248 0.37732 0.70739 0.0
C2053 C 0.48883 0.31513 0.75555 0.0
C2054 C 0.39254 0.27686 0.72618 0.0
C2055 C 0.39992 0.26608 0.70913 0.0
C2056 C 0.41529 0.30276 0.73363 0.0
C2057 C 0.44616 0.31872 0.72364 0.0
C2058 C 0.45369 0.30808 0.70635 0.0
C2059 C 0.43072 0.28178 0.69955 0.0
C2060 C 0.40637 0.31286 0.75241 0.0
C2061 C 0.48612 0.32442 0.69504 0.0
H2062 H 0.49802 0.42126 0.72619 0.0
H2063 H 0.53008 0.36937 0.7654 0.0
H2064 H 0.4547 0.3679 0.69324 0.0
H2065 H 0.42743 0.36456 0.71357 0.0
H2066 H 0.45834 0.40077 0.70255 0.0
H2067 H 0.50633 0.31751 0.76743 0.0
H2068 H 0.46478 0.30005 0.76302 0.0
H2069 H 0.49256 0.30438 0.7427 0.0
H2070 H 0.36901 0.26489 0.73392 0.0
H2071 H 0.43715 0.27343 0.68678 0.0
H2072 H 0.40947 0.33548 0.74804 0.0
H2073 H 0.42222 0.31398 0.7652 0.0
H2074 H 0.38155 0.29783 0.7586 0.0
H2075 H 0.49214 0.34773 0.6895 0.0
H2076 H 0.48781 0.31401 0.68129 0.0
H2077 H 0.50407 0.32496 0.70602 0.0
C2078 C 0.63329 0.14016 0.76517 0.0
C2079 C 0.62173 0.15667 0.75286 0.0
C2080 C 0.65953 0.13828 0.75775 0.0
C2081 C 0.67317 0.15176 0.7371 0.0
C2082 C 0.66145 0.16824 0.72458 0.0
C2083 C 0.63672 0.17139 0.73294 0.0
C2084 C 0.67253 0.12179 0.77197 0.0
C2085 C 0.67443 0.18186 0.70217 0.0
C2086 C 0.7562 0.16845 0.72173 0.0
C2087 C 0.75069 0.14271 0.71355 0.0
C2088 C 0.73119 0.17159 0.72965 0.0
C2089 C 0.69987 0.14887 0.72855 0.0
C2090 C 0.69412 0.1234 0.71939 0.0
C2091 C 0.71976 0.12009 0.71277 0.0
C2092 C 0.73843 0.19844 0.74021 0.0
C2093 C 0.66099 0.09953 0.71681 0.0
H2094 H 0.62172 0.12829 0.78037 0.0
H2095 H 0.62855 0.18499 0.72365 0.0
H2096 H 0.66791 0.10116 0.76578 0.0
H2097 H 0.69851 0.13547 0.77234 0.0
H2098 H 0.66177 0.11582 0.78834 0.0
H2099 H 0.66177 0.19305 0.69429 0.0
H2100 H 0.69985 0.19827 0.70178 0.0
H2101 H 0.67246 0.1644 0.6929 0.0
H2102 H 0.78018 0.18531 0.7233 0.0
H2103 H 0.7157 0.09987 0.70697 0.0
H2104 H 0.72918 0.19123 0.75694 0.0
H2105 H 0.72652 0.21049 0.73262 0.0
H2106 H 0.76417 0.21411 0.73966 0.0
H2107 H 0.64905 0.08771 0.73247 0.0
H2108 H 0.66074 0.08308 0.70712 0.0
H2109 H 0.64702 0.10953 0.70927 0.0
C2110 C 0.90232 0.49918 0.73897 0.0
C2111 C 0.88302 0.4787 0.75597 0.0
C2112 C 0.90009 0.52494 0.73228 0.0
C2113 C 0.87794 0.53026 0.74288 0.0
C2114 C 0.85908 0.50996 0.76051 0.0
C2115 C 0.86166 0.48428 0.7667 0.0
C2116 C 0.92047 0.54581 0.71334 0.0
C2117 C 0.83516 0.51466 0.77228 0.0
C2118 C 0.88388 0.60699 0.73279 0.0
C2119 C 0.86121 0.60274 0.71796 0.0
C2120 C 0.88958 0.58365 0.74113 0.0
C2121 C 0.8724 0.55545 0.73437 0.0
C2122 C 0.84946 0.55107 0.71948 0.0
C2123 C 0.84396 0.57457 0.71167 0.0
C2124 C 0.91393 0.58912 0.75719 0.0
C2125 C 0.83063 0.52148 0.71171 0.0
H2126 H 0.91856 0.49452 0.7306 0.0
H2127 H 0.84606 0.46789 0.77938 0.0
H2128 H 0.90536 0.54555 0.70024 0.0
H2129 H 0.93312 0.56884 0.71708 0.0
H2130 H 0.93809 0.53971 0.70783 0.0
H2131 H 0.82476 0.49857 0.78688 0.0
H2132 H 0.84621 0.53744 0.77651 0.0
H2133 H 0.8158 0.51221 0.76201 0.0
H2134 H 0.89722 0.62855 0.7379 0.0
H2135 H 0.82587 0.57068 0.70065 0.0
H2136 H 0.93266 0.58478 0.75124 0.0
H2137 H 0.9028 0.57359 0.77193 0.0
H2138 H 0.92508 0.61217 0.76097 0.0
H2139 H 0.84683 0.51525 0.70418 0.0
H2140 H 0.8136 0.52169 0.70014 0.0
H2141 H 0.81735 0.50401 0.72516 0.0
C2142 C 0.46629 0.91707 0.26217 0.0
C2143 C 0.45727 0.88745 0.26079 0.0
C2144 C 0.4824 0.93915 0.24503 0.0
C2145 C 0.48982 0.93122 0.22626 0.0
C2146 C 0.48275 0.90153 0.22548 0.0
C2147 C 0.46625 0.87989 0.24278 0.0
C2148 C 0.48934 0.97048 0.24648 0.0
C2149 C 0.49066 0.89224 0.20591 0.0
C2150 C 0.48976 0.97528 0.17457 0.0
C2151 C 0.52209 0.99391 0.16943 0.0
C2152 C 0.47905 0.95497 0.1931 0.0
C2153 C 0.50125 0.95303 0.20674 0.0
C2154 C 0.53396 0.97174 0.20164 0.0
C2155 C 0.54401 0.99213 0.18307 0.0
C2156 C 0.44392 0.93559 0.19809 0.0
C2157 C 0.55826 0.97 0.21569 0.0
H2158 H 0.45899 0.92252 0.27623 0.0
H2159 H 0.45887 0.8568 0.24189 0.0
H2160 H 0.51406 0.98646 0.24069 0.0
H2161 H 0.47368 0.97585 0.23632 0.0
H2162 H 0.48549 0.97364 0.26285 0.0
H2163 H 0.4877 0.86948 0.20887 0.0
H2164 H 0.4749 0.8928 0.19347 0.0
H2165 H 0.51531 0.90783 0.19973 0.0
H2166 H 0.47278 0.97685 0.16416 0.0
H2167 H 0.56905 1.00634 0.17901 0.0
H2168 H 0.43706 0.93895 0.21363 0.0
H2169 H 0.43768 0.91191 0.19911 0.0
H2170 H 0.42981 0.94028 0.18603 0.0
H2171 H 0.55446 0.97419 0.23172 0.0
H2172 H 0.58279 0.98621 0.20953 0.0
H2173 H 0.5556 0.94738 0.21725 0.0
C2174 C 0.11853 0.56461 0.23864 0.0
C2175 C 0.1037 0.54935 0.25841 0.0
C2176 C 0.10419 0.55483 0.22005 0.0
C2177 C 0.07457 0.52877 0.22132 0.0
C2178 C 0.0612 0.51162 0.24123 0.0
C2179 C 0.07587 0.52226 0.25961 0.0
C2180 C 0.11932 0.57395 0.19927 0.0
C2181 C 0.03007 0.48334 0.24329 0.0
C2182 C 0.01673 0.52806 0.18096 0.0
C2183 C 0.01934 0.5108 0.16668 0.0
C2184 C 0.0347 0.53409 0.19867 0.0
C2185 C 0.05551 0.52217 0.20245 0.0
C2186 C 0.05825 0.50467 0.1881 0.0
C2187 C 0.04033 0.49942 0.17024 0.0
C2188 C 0.03149 0.55339 0.21329 0.0
C2189 C 0.0798 0.49125 0.19174 0.0
H2190 H 0.14027 0.58543 0.23784 0.0
H2191 H 0.06441 0.51054 0.27493 0.0
H2192 H 0.11876 0.56026 0.18711 0.0
H2193 H 0.10581 0.58548 0.1937 0.0
H2194 H 0.14419 0.59094 0.2006 0.0
H2195 H 0.02575 0.4701 0.25909 0.0
H2196 H 0.01062 0.4888 0.24086 0.0
H2197 H 0.02925 0.46957 0.23111 0.0
H2198 H 1.00078 0.53716 0.17811 0.0
H2199 H 0.04221 0.4859 0.15929 0.0
H2200 H 0.05486 0.57288 0.21454 0.0
H2201 H 0.02308 0.54083 0.22933 0.0
H2202 H 0.01475 0.56141 0.20787 0.0
H2203 H 0.10444 0.50892 0.19262 0.0
H2204 H 0.0793 0.47819 0.17911 0.0
H2205 H 0.07273 0.47654 0.20706 0.0
C2206 C 0.4407 0.56451 0.24221 0.0
C2207 C 0.44068 0.55111 0.26256 0.0
C2208 C 0.44395 0.55277 0.22432 0.0
C2209 C 0.44649 0.52648 0.22683 0.0
C2210 C 0.44362 0.51143 0.24742 0.0
C2211 C 0.44104 0.52409 0.26507 0.0
C2212 C 0.44719 0.56983 0.20281 0.0
C2213 C 0.44535 0.48297 0.25086 0.0
C2214 C 0.44365 0.49019 0.17774 0.0
C2215 C 0.47584 0.50034 0.17289 0.0
C2216 C 0.43356 0.49808 0.19541 0.0
C2217 C 0.45625 0.51707 0.20823 0.0
C2218 C 0.48879 0.52784 0.20304 0.0
C2219 C 0.49811 0.51912 0.18562 0.0
C2220 C 0.39868 0.48575 0.20055 0.0
C2221 C 0.51388 0.54869 0.21589 0.0
H2222 H 0.44006 0.58526 0.24034 0.0
H2223 H 0.44111 0.51377 0.2808 0.0
H2224 H 0.47192 0.57977 0.19617 0.0
H2225 H 0.4318 0.55487 0.19187 0.0
H2226 H 0.44116 0.58789 0.20339 0.0
H2227 H 0.43764 0.47162 0.26729 0.0
H2228 H 0.43044 0.46764 0.23992 0.0
H2229 H 0.47004 0.48783 0.24753 0.0
H2230 H 0.42635 0.47546 0.16804 0.0
H2231 H 0.52302 0.52721 0.18182 0.0
H2232 H 0.39303 0.50408 0.2008 0.0
H2233 H 0.39198 0.4727 0.21651 0.0
H2234 H 0.38404 0.47131 0.18904 0.0
H2235 H 0.51135 0.56878 0.21637 0.0
H2236 H 0.53815 0.55566 0.20946 0.0
H2237 H 0.51093 0.53783 0.23236 0.0
C2238 C 0.94296 0.46954 0.79482 0.0
C2239 C 0.9108 0.46076 0.79383 0.0
C2240 C 0.95967 0.48319 0.81171 0.0
C2241 C 0.94388 0.48867 0.82781 0.0
C2242 C 0.91169 0.48118 0.82628 0.0
C2243 C 0.89538 0.46682 0.80943 0.0
C2244 C 0.99378 0.49037 0.81285 0.0
C2245 C 0.89416 0.48717 0.84285 0.0
C2246 C 0.97772 0.49149 0.88153 0.0
C2247 C 0.99733 0.52199 0.88129 0.0
C2248 C 0.95956 0.48039 0.86444 0.0
C2249 C 0.96062 0.50034 0.84685 0.0
C2250 C 0.97936 0.53124 0.84695 0.0
C2251 C 0.99775 0.54168 0.86408 0.0
C2252 C 0.94022 0.44727 0.86485 0.0
C2253 C 0.98054 0.55321 0.82874 0.0
H2254 H 0.95458 0.46445 0.78276 0.0
H2255 H 0.8703 0.4592 0.80894 0.0
H2256 H 0.00879 0.51403 0.81464 0.0
H2257 H 0.99623 0.47699 0.82689 0.0
H2258 H 0.00289 0.48577 0.79864 0.0
H2259 H 0.87074 0.48378 0.8379 0.0
H2260 H 0.89048 0.47209 0.85766 0.0
H2261 H 0.90819 0.51021 0.84639 0.0
H2262 H 0.97752 0.47622 0.89477 0.0
H2263 H 0.01264 0.56531 0.86399 0.0
H2264 H 0.94915 0.44027 0.85189 0.0
H2265 H 0.91523 0.44102 0.86223 0.0
H2266 H 0.94103 0.43481 0.88001 0.0
H2267 H 0.99192 0.5511 0.8145 0.0
H2268 H 0.99394 0.57644 0.83207 0.0
H2269 H 0.95626 0.54847 0.82501 0.0
C2270 C 0.59188 0.47461 0.80906 0.0
C2271 C 0.56951 0.47269 0.79459 0.0
C2272 C 0.59135 0.48403 0.82875 0.0
C2273 C 0.56755 0.49119 0.83416 0.0
C2274 C 0.5456 0.49014 0.81919 0.0
C2275 C 0.54702 0.48112 0.79961 0.0
C2276 C 0.61561 0.48542 0.84402 0.0
C2277 C 0.51974 0.49737 0.82414 0.0
C2278 C 0.54406 0.48622 0.89224 0.0
C2279 C 0.55942 0.51613 0.89534 0.0
C2280 C 0.54666 0.47776 0.87251 0.0
C2281 C 0.56528 0.49963 0.85544 0.0
C2282 C 0.58063 0.52981 0.85844 0.0
C2283 C 0.57723 0.53765 0.87814 0.0
C2284 C 0.52947 0.44535 0.86993 0.0
C2285 C 0.6007 0.55392 0.84078 0.0
H2286 H 0.60895 0.46767 0.80525 0.0
H2287 H 0.52956 0.47927 0.78843 0.0
H2288 H 0.62765 0.50757 0.84935 0.0
H2289 H 0.60376 0.46885 0.85818 0.0
H2290 H 0.63369 0.48102 0.837 0.0
H2291 H 0.50501 0.49616 0.8106 0.0
H2292 H 0.50421 0.48165 0.83775 0.0
H2293 H 0.53004 0.51995 0.82867 0.0
H2294 H 0.53046 0.46933 0.90532 0.0
H2295 H 0.58861 0.5609 0.88002 0.0
H2296 H 0.54661 0.43828 0.86518 0.0
H2297 H 0.51296 0.44172 0.85721 0.0
H2298 H 0.51588 0.43104 0.88463 0.0
H2299 H 0.61237 0.57622 0.84591 0.0
H2300 H 0.5859 0.55419 0.82762 0.0
H2301 H 0.61917 0.54945 0.83452 0.0
C2302 C 0.57547 0.12857 0.80785 0.0
C2303 C 0.5973 0.15673 0.79793 0.0
C2304 C 0.57914 0.11821 0.82827 0.0
C2305 C 0.60546 0.13654 0.83906 0.0
C2306 C 0.62804 0.16495 0.82891 0.0
C2307 C 0.62357 0.17484 0.80836 0.0
C2308 C 0.55452 0.08777 0.83837 0.0
C2309 C 0.65655 0.18491 0.83986 0.0
C2310 C 0.59069 0.11284 0.89809 0.0
C2311 C 0.60285 0.09301 0.90103 0.0
C2312 C 0.59335 0.12895 0.87821 0.0
C2313 C 0.60882 0.12536 0.8609 0.0
C2314 C 0.62314 0.1071 0.8641 0.0
C2315 C 0.61974 0.09096 0.88402 0.0
C2316 C 0.57781 0.14828 0.87545 0.0
C2317 C 0.6401 0.10283 0.84614 0.0
H2318 H 0.55513 0.11491 0.79957 0.0
H2319 H 0.64017 0.19672 0.80055 0.0
H2320 H 0.56572 0.07373 0.84282 0.0
H2321 H 0.54366 0.08951 0.85301 0.0
H2322 H 0.53548 0.07642 0.82777 0.0
H2323 H 0.67254 0.20577 0.82951 0.0
H2324 H 0.64886 0.19059 0.85411 0.0
H2325 H 0.67002 0.17325 0.84516 0.0
H2326 H 0.57829 0.1152 0.91119 0.0
H2327 H 0.62899 0.07553 0.88588 0.0
H2328 H 0.55659 0.13768 0.86636 0.0
H2329 H 0.59404 0.17015 0.86636 0.0
H2330 H 0.5704 0.1518 0.89078 0.0
H2331 H 0.62252 0.0886 0.83574 0.0
H2332 H 0.6544 0.09213 0.85181 0.0
H2333 H 0.65585 0.12435 0.83644 0.0
C2334 C 0.1187 0.18788 0.57092 0.0
C2335 C 0.11479 0.19671 0.58993 0.0
C2336 C 0.13564 0.20904 0.55344 0.0
C2337 C 0.14847 0.23958 0.55515 0.0
C2338 C 0.14567 0.24846 0.57471 0.0
C2339 C 0.12885 0.22683 0.5919 0.0
C2340 C 0.13849 0.19873 0.53293 0.0
C2341 C 0.15882 0.28074 0.57718 0.0
C2342 C 0.20697 0.29869 0.51275 0.0
C2343 C 0.18703 0.30609 0.50056 0.0
C2344 C 0.19475 0.27667 0.53041 0.0
C2345 C 0.16193 0.2621 0.53608 0.0
C2346 C 0.14176 0.26961 0.52383 0.0
C2347 C 0.15455 0.29141 0.50618 0.0
C2348 C 0.21686 0.26896 0.54296 0.0
C2349 C 0.10668 0.25483 0.52951 0.0
H2350 H 0.10773 0.16444 0.56964 0.0
H2351 H 0.12539 0.23333 0.6067 0.0
H2352 H 0.12402 0.20361 0.52132 0.0
H2353 H 0.16333 0.21083 0.52627 0.0
H2354 H 0.13041 0.17456 0.53486 0.0
H2355 H 0.15708 0.28395 0.59385 0.0
H2356 H 0.18394 0.29357 0.57116 0.0
H2357 H 0.14562 0.29007 0.56773 0.0
H2358 H 0.23205 0.3098 0.50827 0.0
H2359 H 0.13915 0.29732 0.49688 0.0
H2360 H 0.20924 0.24502 0.54349 0.0
H2361 H 0.216 0.27312 0.55945 0.0
H2362 H 0.24167 0.28196 0.53624 0.0
H2363 H 0.09609 0.23051 0.52981 0.0
H2364 H 0.09426 0.26309 0.51826 0.0
H2365 H 0.10242 0.2588 0.54553 0.0
C2366 C 0.74616 0.87532 0.58388 0.0
C2367 C 0.77761 0.8841 0.58811 0.0
C2368 C 0.73443 0.86529 0.56473 0.0
C2369 C 0.75459 0.86354 0.54957 0.0
C2370 C 0.78612 0.87134 0.55417 0.0
C2371 C 0.79739 0.88199 0.57328 0.0
C2372 C 0.70085 0.85768 0.56041 0.0
C2373 C 0.80822 0.86925 0.53866 0.0
C2374 C 0.71554 0.81437 0.5074 0.0
C2375 C 0.71962 0.83506 0.48968 0.0
C2376 C 0.72724 0.82336 0.52677 0.0
C2377 C 0.74271 0.85383 0.52886 0.0
C2378 C 0.74638 0.87489 0.51127 0.0
C2379 C 0.73505 0.8653 0.49187 0.0
C2380 C 0.72309 0.80017 0.54503 0.0
C2381 C 0.76228 0.90759 0.51296 0.0
H2382 H 0.73117 0.87756 0.59529 0.0
H2383 H 0.82199 0.88983 0.57625 0.0
H2384 H 0.70077 0.87262 0.54648 0.0
H2385 H 0.68766 0.8347 0.55664 0.0
H2386 H 0.6881 0.85974 0.57399 0.0
H2387 H 0.83118 0.874 0.54526 0.0
H2388 H 0.79721 0.84677 0.53387 0.0
H2389 H 0.81278 0.88525 0.52424 0.0
H2390 H 0.70292 0.79089 0.50623 0.0
H2391 H 0.73866 0.88156 0.47836 0.0
H2392 H 0.70852 0.80071 0.55816 0.0
H2393 H 0.7464 0.80503 0.55103 0.0
H2394 H 0.71161 0.77745 0.54061 0.0
H2395 H 0.74994 0.91173 0.52567 0.0
H2396 H 0.76253 0.92107 0.49803 0.0
H2397 H 0.78698 0.91526 0.51723 0.0
C2398 C 0.10617 0.85849 0.59762 0.0
C2399 C 0.10465 0.88494 0.59589 0.0
C2400 C 0.10887 0.84673 0.57949 0.0
C2401 C 0.11065 0.86209 0.55919 0.0
C2402 C 0.10687 0.8877 0.5575 0.0
C2403 C 0.10359 0.89858 0.57586 0.0
C2404 C 0.11198 0.81896 0.58209 0.0
C2405 C 0.10885 0.90505 0.53635 0.0
C2406 C 0.16303 0.85781 0.51683 0.0
C2407 C 0.141 0.83848 0.50425 0.0
C2408 C 0.15337 0.86588 0.53446 0.0
C2409 C 0.12072 0.8539 0.54004 0.0
C2410 C 0.09828 0.83459 0.52724 0.0
C2411 C 0.1087 0.82732 0.50937 0.0
C2412 C 0.17821 0.88709 0.54725 0.0
C2413 C 0.06331 0.82102 0.53274 0.0
H2414 H 0.10707 0.84798 0.61309 0.0
H2415 H 0.10211 0.9189 0.57458 0.0
H2416 H 0.0971 0.80366 0.57113 0.0
H2417 H 0.13685 0.82481 0.57819 0.0
H2418 H 0.10513 0.80716 0.59846 0.0
H2419 H 0.10166 0.92222 0.53759 0.0
H2420 H 0.13352 0.91618 0.52941 0.0
H2421 H 0.09373 0.89009 0.52531 0.0
H2422 H 0.18802 0.86656 0.51287 0.0
H2423 H 0.0916 0.81212 0.49981 0.0
H2424 H 0.17619 0.87599 0.56353 0.0
H2425 H 0.1745 0.90643 0.54834 0.0
H2426 H 0.20255 0.89528 0.54038 0.0
H2427 H 0.05717 0.80705 0.54834 0.0
H2428 H 0.04887 0.80716 0.5209 0.0
H2429 H 0.05682 0.83862 0.53401 0.0
C2430 C 0.57067 0.81177 0.13658 0.0
C2431 C 0.58624 0.80317 0.12283 0.0
C2432 C 0.58539 0.8252 0.15417 0.0
C2433 C 0.61614 0.82966 0.15812 0.0
C2434 C 0.63237 0.82215 0.14366 0.0
C2435 C 0.61729 0.80928 0.1261 0.0
C2436 C 0.56756 0.83346 0.16895 0.0
C2437 C 0.66512 0.82644 0.14722 0.0
C2438 C 0.66894 0.88 0.19611 0.0
C2439 C 0.66512 0.85946 0.21377 0.0
C2440 C 0.65186 0.87085 0.17825 0.0
C2441 C 0.63086 0.84037 0.17793 0.0
C2442 C 0.62614 0.81968 0.19599 0.0
C2443 C 0.64318 0.82951 0.21374 0.0
C2444 C 0.65709 0.89365 0.15948 0.0
C2445 C 0.60421 0.78695 0.19623 0.0
H2446 H 0.5466 0.80695 0.13399 0.0
H2447 H 0.62935 0.80298 0.11518 0.0
H2448 H 0.56089 0.81829 0.18404 0.0
H2449 H 0.58271 0.85628 0.17259 0.0
H2450 H 0.54573 0.83207 0.1623 0.0
H2451 H 0.6749 0.82049 0.13405 0.0
H2452 H 0.68141 0.84982 0.14914 0.0
H2453 H 0.6645 0.81248 0.16197 0.0
H2454 H 0.68557 0.90325 0.19619 0.0
H2455 H 0.64031 0.81355 0.2273 0.0
H2456 H 0.63413 0.8908 0.154 0.0
H2457 H 0.66954 0.89055 0.14627 0.0
H2458 H 0.67137 0.91666 0.16308 0.0
H2459 H 0.58048 0.78305 0.19175 0.0
H2460 H 0.6017 0.774 0.2119 0.0
H2461 H 0.61338 0.77843 0.18444 0.0
C2462 C 0.25898 0.81005 0.14202 0.0
C2463 C 0.24453 0.81379 0.12381 0.0
C2464 C 0.25443 0.81938 0.16087 0.0
C2465 C 0.23394 0.83176 0.16175 0.0
C2466 C 0.22023 0.83655 0.1431 0.0
C2467 C 0.2259 0.8277 0.12436 0.0
C2468 C 0.27021 0.8145 0.18011 0.0
C2469 C 0.19782 0.84915 0.14325 0.0
C2470 C 0.18915 0.82172 0.21393 0.0
C2471 C 0.20435 0.85044 0.21938 0.0
C2472 C 0.19893 0.81522 0.19545 0.0
C2473 C 0.22502 0.83782 0.18233 0.0
C2474 C 0.24137 0.86651 0.18841 0.0
C2475 C 0.23057 0.87257 0.20665 0.0
C2476 C 0.18045 0.78444 0.18949 0.0
C2477 C 0.26976 0.89105 0.17531 0.0
H2478 H 0.27255 0.79844 0.14174 0.0
H2479 H 0.21396 0.82968 0.11043 0.0
H2480 H 0.28102 0.83463 0.18805 0.0
H2481 H 0.25232 0.79618 0.19151 0.0
H2482 H 0.28877 0.80872 0.17615 0.0
H2483 H 0.19053 0.85302 0.12725 0.0
H2484 H 0.17636 0.83359 0.15353 0.0
H2485 H 0.2089 0.87039 0.14984 0.0
H2486 H 0.16866 0.80469 0.22359 0.0
H2487 H 0.24233 0.89482 0.21082 0.0
H2488 H 0.19637 0.775 0.18728 0.0
H2489 H 0.16984 0.7855 0.17427 0.0
H2490 H 0.16126 0.76919 0.20156 0.0
H2491 H 0.28705 0.88346 0.17204 0.0
H2492 H 0.28169 0.91121 0.1832 0.0
H2493 H 0.26239 0.89709 0.15992 0.0
C2494 C 0.22859 0.4462 0.12814 0.0
C2495 C 0.25263 0.4744 0.13077 0.0
C2496 C 0.21958 0.42225 0.14418 0.0
C2497 C 0.2355 0.42676 0.16304 0.0
C2498 C 0.2622 0.45452 0.16465 0.0
C2499 C 0.27024 0.47822 0.14849 0.0
C2500 C 0.1909 0.39316 0.14181 0.0
C2501 C 0.28033 0.46004 0.18425 0.0
C2502 C 0.18498 0.38634 0.21364 0.0
C2503 C 0.19164 0.36292 0.21846 0.0
C2504 C 0.19905 0.40709 0.19558 0.0
C2505 C 0.22077 0.40464 0.18219 0.0
C2506 C 0.22776 0.3811 0.18704 0.0
C2507 C 0.21281 0.36026 0.20508 0.0
C2508 C 0.19049 0.43157 0.19078 0.0
C2509 C 0.25122 0.37817 0.17334 0.0
H2510 H 0.21514 0.44361 0.11428 0.0
H2511 H 0.28875 0.50022 0.15037 0.0
H2512 H 0.19483 0.37422 0.14764 0.0
H2513 H 0.17052 0.39086 0.15141 0.0
H2514 H 0.18456 0.39174 0.12518 0.0
H2515 H 0.30372 0.48033 0.18139 0.0
H2516 H 0.26662 0.46288 0.19681 0.0
H2517 H 0.28392 0.44091 0.19015 0.0
H2518 H 0.16842 0.3882 0.22395 0.0
H2519 H 0.21813 0.34223 0.20898 0.0
H2520 H 0.1807 0.4307 0.17506 0.0
H2521 H 0.21192 0.45347 0.19027 0.0
H2522 H 0.17283 0.43003 0.20265 0.0
H2523 H 0.2436 0.37622 0.15703 0.0
H2524 H 0.25406 0.3586 0.17931 0.0
H2525 H 0.27458 0.39838 0.17255 0.0
C2526 C 0.7992 0.57493 0.92724 0.0
C2527 C 0.79105 0.54508 0.93229 0.0
C2528 C 0.81357 0.59062 0.90757 0.0
C2529 C 0.81954 0.57589 0.89243 0.0
C2530 C 0.81188 0.54574 0.89759 0.0
C2531 C 0.79751 0.53054 0.91761 0.0
C2532 C 0.82132 0.62271 0.9028 0.0
C2533 C 0.81789 0.5294 0.88178 0.0
C2534 C 0.82136 0.61331 0.83785 0.0
C2535 C 0.85376 0.6329 0.83363 0.0
C2536 C 0.81006 0.59278 0.85624 0.0
C2537 C 0.83164 0.59196 0.87087 0.0
C2538 C 0.86449 0.61036 0.86613 0.0
C2539 C 0.87518 0.63067 0.84754 0.0
C2540 C 0.77482 0.57355 0.86072 0.0
C2541 C 0.8882 0.60997 0.88132 0.0
H2542 H 0.79372 0.58574 0.93878 0.0
H2543 H 0.79076 0.50731 0.92168 0.0
H2544 H 0.84654 0.63676 0.89724 0.0
H2545 H 0.80699 0.62525 0.88999 0.0
H2546 H 0.81662 0.63116 0.91674 0.0
H2547 H 0.81362 0.50709 0.88892 0.0
H2548 H 0.80214 0.52677 0.86869 0.0
H2549 H 0.84256 0.54231 0.87485 0.0
H2550 H 0.80459 0.61501 0.8273 0.0
H2551 H 0.90029 0.64531 0.84415 0.0
H2552 H 0.76662 0.58164 0.87336 0.0
H2553 H 0.76889 0.55031 0.86639 0.0
H2554 H 0.76158 0.57382 0.8466 0.0
H2555 H 0.88716 0.62053 0.89513 0.0
H2556 H 0.9127 0.62209 0.87399 0.0
H2557 H 0.88253 0.58686 0.88725 0.0
C2558 C 0.44554 0.21257 0.90851 0.0
C2559 C 0.42997 0.21651 0.92522 0.0
C2560 C 0.42947 0.20094 0.89075 0.0
C2561 C 0.39736 0.19395 0.88954 0.0
C2562 C 0.38126 0.19661 0.90692 0.0
C2563 C 0.39772 0.20757 0.92462 0.0
C2564 C 0.44731 0.19774 0.87283 0.0
C2565 C 0.34722 0.18985 0.90629 0.0
C2566 C 0.36516 0.20188 0.83634 0.0
C2567 C 0.3449 0.17227 0.83396 0.0
C2568 C 0.38305 0.20921 0.85408 0.0
C2569 C 0.38118 0.18634 0.86958 0.0
C2570 C 0.36191 0.15637 0.86668 0.0
C2571 C 0.34367 0.14969 0.84905 0.0
C2572 C 0.40287 0.24145 0.8567 0.0
C2573 C 0.35991 0.13137 0.88248 0.0
H2574 H 0.47063 0.22008 0.90883 0.0
H2575 H 0.38594 0.21096 0.93756 0.0
H2576 H 0.43302 0.17614 0.86705 0.0
H2577 H 0.45213 0.21542 0.85951 0.0
H2578 H 0.47021 0.19945 0.87753 0.0
H2579 H 0.33768 0.19146 0.92155 0.0
H2580 H 0.34525 0.20567 0.89388 0.0
H2581 H 0.33228 0.16726 0.90221 0.0
H2582 H 0.36599 0.21934 0.82475 0.0
H2583 H 0.32822 0.12676 0.8471 0.0
H2584 H 0.42767 0.24668 0.85896 0.0
H2585 H 0.39391 0.24599 0.87099 0.0
H2586 H 0.40259 0.25655 0.84293 0.0
H2587 H 0.38395 0.13514 0.886 0.0
H2588 H 0.34667 0.10952 0.87681 0.0
H2589 H 0.34791 0.1306 0.89748 0.0
C2590 C 0.79748 0.2027 0.93059 0.0
C2591 C 0.7824 0.22 0.9297 0.0
C2592 C 0.79953 0.1897 0.91305 0.0
C2593 C 0.7856 0.19371 0.8943 0.0
C2594 C 0.76898 0.21007 0.89377 0.0
C2595 C 0.76818 0.22355 0.91135 0.0
C2596 C 0.81794 0.17293 0.91424 0.0
C2597 C 0.75296 0.21417 0.87441 0.0
C2598 C 0.82175 0.18909 0.84293 0.0
C2599 C 0.80218 0.15951 0.84013 0.0
C2600 C 0.81631 0.20062 0.8603 0.0
C2601 C 0.79018 0.18233 0.87495 0.0
C2602 C 0.76947 0.15281 0.87158 0.0
C2603 C 0.77602 0.14163 0.8544 0.0
C2604 C 0.83923 0.23206 0.86342 0.0
C2605 C 0.74079 0.13287 0.88636 0.0
H2606 H 0.80899 0.20062 0.94472 0.0
H2607 H 0.75699 0.2374 0.91071 0.0
H2608 H 0.80312 0.15036 0.91009 0.0
H2609 H 0.83866 0.18443 0.90265 0.0
H2610 H 0.82643 0.17097 0.93016 0.0
H2611 H 0.73806 0.2245 0.87737 0.0
H2612 H 0.77101 0.22851 0.86149 0.0
H2613 H 0.73793 0.19252 0.86888 0.0
H2614 H 0.8421 0.20283 0.83198 0.0
H2615 H 0.76079 0.11877 0.85217 0.0
H2616 H 0.85056 0.23205 0.87848 0.0
H2617 H 0.82652 0.24492 0.86449 0.0
H2618 H 0.85801 0.24355 0.85042 0.0
H2619 H 0.74832 0.12805 0.90203 0.0
H2620 H 0.72548 0.11153 0.88047 0.0
H2621 H 0.72661 0.1441 0.88861 0.0
C2622 C 0.22438 0.11385 0.48165 0.0
C2623 C 0.23755 0.12754 0.46126 0.0
C2624 C 0.23979 0.12597 0.49938 0.0
C2625 C 0.26877 0.15281 0.49659 0.0
C2626 C 0.28068 0.16803 0.47599 0.0
C2627 C 0.26503 0.15505 0.45853 0.0
C2628 C 0.22628 0.10887 0.52098 0.0
C2629 C 0.31109 0.197 0.47232 0.0
C2630 C 0.3035 0.19 0.54505 0.0
C2631 C 0.32582 0.18047 0.54968 0.0
C2632 C 0.28497 0.18157 0.52765 0.0
C2633 C 0.28849 0.16275 0.51487 0.0
C2634 C 0.31073 0.1528 0.5197 0.0
C2635 C 0.32926 0.16196 0.53692 0.0
C2636 C 0.26187 0.19298 0.52282 0.0
C2637 C 0.31484 0.13226 0.50675 0.0
H2638 H 0.20283 0.09277 0.48365 0.0
H2639 H 0.27523 0.16555 0.44274 0.0
H2640 H 0.24149 0.09959 0.52743 0.0
H2641 H 0.22591 0.12366 0.53196 0.0
H2642 H 0.20193 0.0903 0.52062 0.0
H2643 H 0.31446 0.20821 0.45589 0.0
H2644 H 0.31158 0.21217 0.48328 0.0
H2645 H 0.33131 0.19285 0.47544 0.0
H2646 H 0.30097 0.20448 0.55483 0.0
H2647 H 0.34622 0.15429 0.54062 0.0
H2648 H 0.23758 0.17416 0.52317 0.0
H2649 H 0.26756 0.20552 0.50671 0.0
H2650 H 0.26215 0.20765 0.53417 0.0
H2651 H 0.29202 0.11168 0.50666 0.0
H2652 H 0.33274 0.12612 0.51283 0.0
H2653 H 0.3222 0.14296 0.49018 0.0
C2654 C 0.88628 0.15738 0.45967 0.0
C2655 C 0.90347 0.14207 0.4592 0.0
C2656 C 0.88088 0.16622 0.47848 0.0
C2657 C 0.89343 0.15998 0.49727 0.0
C2658 C 0.91255 0.14615 0.49647 0.0
C2659 C 0.91684 0.1369 0.47754 0.0
C2660 C 0.85993 0.18039 0.47855 0.0
C2661 C 0.92711 0.13972 0.51587 0.0
C2662 C 0.89133 0.20011 0.54294 0.0
C2663 C 0.86434 0.17833 0.55518 0.0
C2664 C 0.90191 0.19411 0.52458 0.0
C2665 C 0.88452 0.1659 0.51789 0.0
C2666 C 0.85755 0.14365 0.53048 0.0
C2667 C 0.848 0.15005 0.54908 0.0
C2668 C 0.93124 0.2182 0.51206 0.0
C2669 C 0.83796 0.11344 0.52384 0.0
H2670 H 0.87522 0.16053 0.44558 0.0
H2671 H 0.92943 0.12436 0.47723 0.0
H2672 H 0.83785 0.16529 0.48841 0.0
H2673 H 0.87177 0.20127 0.48557 0.0
H2674 H 0.85359 0.18535 0.46246 0.0
H2675 H 0.94481 0.13282 0.51203 0.0
H2676 H 0.93869 0.15953 0.52411 0.0
H2677 H 0.90837 0.12167 0.52697 0.0
H2678 H 0.90392 0.22203 0.54762 0.0
H2679 H 0.82691 0.13333 0.55838 0.0
H2680 H 0.92483 0.2253 0.49663 0.0
H2681 H 0.94772 0.20967 0.50882 0.0
H2682 H 0.94373 0.23788 0.52036 0.0
H2683 H 0.82827 0.11569 0.50845 0.0
H2684 H 0.81803 0.09844 0.53551 0.0
H2685 H 0.85291 0.10296 0.5217 0.0
C2686 C 0.94069 0.81383 0.4787 0.0
C2687 C 0.92068 0.8039 0.46238 0.0
C2688 C 0.93808 0.79388 0.49651 0.0
C2689 C 0.91458 0.76373 0.49786 0.0
C2690 C 0.89656 0.75335 0.4804 0.0
C2691 C 0.89992 0.77363 0.46285 0.0
C2692 C 0.95837 0.80556 0.51458 0.0
C2693 C 0.87119 0.72149 0.48109 0.0
C2694 C 0.90031 0.70202 0.54194 0.0
C2695 C 0.87606 0.70155 0.55426 0.0
C2696 C 0.91484 0.72353 0.52418 0.0
C2697 C 0.9042 0.74439 0.51848 0.0
C2698 C 0.8803 0.74441 0.53127 0.0
C2699 C 0.86669 0.72309 0.54907 0.0
C2700 C 0.94077 0.72335 0.5112 0.0
C2701 C 0.86785 0.76594 0.52558 0.0
H2702 H 0.95671 0.83733 0.47814 0.0
H2703 H 0.88464 0.76632 0.45001 0.0
H2704 H 0.94456 0.80883 0.52682 0.0
H2705 H 0.96579 0.78953 0.52194 0.0
H2706 H 0.97975 0.82714 0.5094 0.0
H2707 H 0.86228 0.71633 0.46532 0.0
H2708 H 0.88015 0.70615 0.48722 0.0
H2709 H 0.85104 0.71714 0.49191 0.0
H2710 H 0.90785 0.68558 0.54619 0.0
H2711 H 0.84786 0.72262 0.55858 0.0
H2712 H 0.9607 0.74617 0.50714 0.0
H2713 H 0.93166 0.71488 0.4962 0.0
H2714 H 0.94982 0.70912 0.51955 0.0
H2715 H 0.88757 0.78902 0.52299 0.0
H2716 H 0.85079 0.76429 0.53797 0.0
H2717 H 0.85583 0.76145 0.51066 0.0
loop_
_geom_bond_atom_site_label_1
_geom_bond_atom_site_label_2
_geom_bond_distance
_geom_bond_site_symmetry_2
_ccdc_geom_bond_type
C0 N1 1.317 . S
C0 N2 1.348 . S
C0 C3 1.485 . S
N1 C0 1.317 . S
N1 N5 1.370 . S
N2 C0 1.348 . S
N2 C4 1.346 . S
C3 C0 1.485 . S
C3 H7 0.960 . S
C3 H8 0.961 . S
C3 H9 0.960 . S
C4 N2 1.346 . S
C4 N5 1.307 . S
C4 C6 1.486 . S
N5 N1 1.370 . S
N5 C4 1.307 . S
C6 C4 1.486 . S
C6 H10 0.960 . S
C6 H11 0.960 . S
C6 H12 0.959 . S
H7 C3 0.960 . S
H8 C3 0.961 . S
H9 C3 0.960 . S
H10 C6 0.960 . S
H11 C6 0.960 . S
H12 C6 0.959 . S
C13 N14 1.317 . S
C13 N15 1.348 . S
C13 C16 1.485 . S
N14 C13 1.317 . S
N14 N18 1.370 . S
N15 C13 1.348 . S
N15 C17 1.346 . S
C16 C13 1.485 . S
C16 H20 0.960 . S
C16 H21 0.961 . S
C16 H22 0.960 . S
C17 N15 1.346 . S
C17 N18 1.307 . S
C17 C19 1.486 . S
N18 N14 1.370 . S
N18 C17 1.307 . S
C19 C17 1.486 . S
C19 H23 0.960 . S
C19 H24 0.960 . S
C19 H25 0.959 . S
H20 C16 0.960 . S
H21 C16 0.961 . S
H22 C16 0.960 . S
H23 C19 0.960 . S
H24 C19 0.960 . S
H25 C19 0.959 . S
C26 N27 1.317 . S
C26 N28 1.348 . S
C26 C29 1.485 . S
N27 C26 1.317 . S
N27 N31 1.370 . S
N28 C26 1.348 . S
N28 C30 1.346 . S
C29 C26 1.485 . S
C29 H33 0.960 . S
C29 H34 0.961 . S
C29 H35 0.960 . S
C30 N28 1.346 . S
C30 N31 1.307 . S
C30 C32 1.486 . S
N31 N27 1.370 . S
N31 C30 1.307 . S
C32 C30 1.486 . S
C32 H36 0.960 . S
C32 H37 0.960 . S
C32 H38 0.959 . S
H33 C29 0.960 . S
H34 C29 0.961 . S
H35 C29 0.960 . S
H36 C32 0.960 . S
H37 C32 0.960 . S
H38 C32 0.959 . S
C39 N40 1.317 . S
C39 N41 1.348 . S
C39 C42 1.485 . S
N40 C39 1.317 . S
N40 N44 1.370 . S
N41 C39 1.348 . S
N41 C43 1.346 . S
C42 C39 1.485 . S
C42 H46 0.960 . S
C42 H47 0.961 . S
C42 H48 0.960 . S
C43 N41 1.346 . S
C43 N44 1.307 . S
C43 C45 1.486 . S
N44 N40 1.370 . S
N44 C43 1.307 . S
C45 C43 1.486 . S
C45 H49 0.960 . S
C45 H50 0.960 . S
C45 H51 0.959 . S
H46 C42 0.960 . S
H47 C42 0.961 . S
H48 C42 0.960 . S
H49 C45 0.960 . S
H50 C45 0.960 . S
H51 C45 0.959 . S
C52 N53 1.317 . S
C52 N54 1.348 . S
C52 C55 1.485 . S
N53 C52 1.317 . S
N53 N57 1.370 . S
N54 C52 1.348 . S
N54 C56 1.346 . S
C55 C52 1.485 . S
C55 H59 0.960 . S
C55 H60 0.961 . S
C55 H61 0.960 . S
C56 N54 1.346 . S
C56 N57 1.307 . S
C56 C58 1.486 . S
N57 N53 1.370 . S
N57 C56 1.307 . S
C58 C56 1.486 . S
C58 H62 0.960 . S
C58 H63 0.960 . S
C58 H64 0.959 . S
H59 C55 0.960 . S
H60 C55 0.961 . S
H61 C55 0.960 . S
H62 C58 0.960 . S
H63 C58 0.960 . S
H64 C58 0.959 . S
C65 N66 1.317 . S
C65 N67 1.348 . S
C65 C68 1.485 . S
N66 C65 1.317 . S
N66 N70 1.370 . S
N67 C65 1.348 . S
N67 C69 1.346 . S
C68 C65 1.485 . S
C68 H72 0.960 . S
C68 H73 0.961 . S
C68 H74 0.960 . S
C69 N67 1.346 . S
C69 N70 1.307 . S
C69 C71 1.486 . S
N70 N66 1.370 . S
N70 C69 1.307 . S
C71 C69 1.486 . S
C71 H75 0.960 . S
C71 H76 0.960 . S
C71 H77 0.959 . S
H72 C68 0.960 . S
H73 C68 0.961 . S
H74 C68 0.960 . S
H75 C71 0.960 . S
H76 C71 0.960 . S
H77 C71 0.959 . S
C78 N79 1.317 . S
C78 N80 1.348 . S
C78 C81 1.485 . S
N79 C78 1.317 . S
N79 N83 1.370 . S
N80 C78 1.348 . S
N80 C82 1.346 . S
C81 C78 1.485 . S
C81 H85 0.960 . S
C81 H86 0.961 . S
C81 H87 0.960 . S
C82 N80 1.346 . S
C82 N83 1.307 . S
C82 C84 1.486 . S
N83 N79 1.370 . S
N83 C82 1.307 . S
C84 C82 1.486 . S
C84 H88 0.960 . S
C84 H89 0.960 . S
C84 H90 0.959 . S
H85 C81 0.960 . S
H86 C81 0.961 . S
H87 C81 0.960 . S
H88 C84 0.960 . S
H89 C84 0.960 . S
H90 C84 0.959 . S
C91 N92 1.317 . S
C91 N93 1.348 . S
C91 C94 1.485 . S
N92 C91 1.317 . S
N92 N96 1.370 . S
N93 C91 1.348 . S
N93 C95 1.346 . S
C94 C91 1.485 . S
C94 H98 0.960 . S
C94 H99 0.961 . S
C94 H100 0.960 . S
C95 N93 1.346 . S
C95 N96 1.307 . S
C95 C97 1.486 . S
N96 N92 1.370 . S
N96 C95 1.307 . S
C97 C95 1.486 . S
C97 H101 0.960 . S
C97 H102 0.960 . S
C97 H103 0.959 . S
H98 C94 0.960 . S
H99 C94 0.961 . S
H100 C94 0.960 . S
H101 C97 0.960 . S
H102 C97 0.960 . S
H103 C97 0.959 . S
C104 N105 1.317 . S
C104 N106 1.348 . S
C104 C107 1.485 . S
N105 C104 1.317 . S
N105 N109 1.370 . S
N106 C104 1.348 . S
N106 C108 1.346 . S
C107 C104 1.485 . S
C107 H111 0.960 . S
C107 H112 0.961 . S
C107 H113 0.960 . S
C108 N106 1.346 . S
C108 N109 1.307 . S
C108 C110 1.486 . S
N109 N105 1.370 . S
N109 C108 1.307 . S
C110 C108 1.486 . S
C110 H114 0.960 . S
C110 H115 0.960 . S
C110 H116 0.959 . S
H111 C107 0.960 . S
H112 C107 0.961 . S
H113 C107 0.960 . S
H114 C110 0.960 . S
H115 C110 0.960 . S
H116 C110 0.959 . S
C117 N118 1.317 . S
C117 N119 1.348 . S
C117 C120 1.485 . S
N118 C117 1.317 . S
N118 N122 1.370 . S
N119 C117 1.348 . S
N119 C121 1.346 . S
C120 C117 1.485 . S
C120 H124 0.960 . S
C120 H125 0.961 1_556 S
C120 H126 0.960 . S
C121 N119 1.346 . S
C121 N122 1.307 . S
C121 C123 1.486 . S
N122 N118 1.370 . S
N122 C121 1.307 . S
C123 C121 1.486 . S
C123 H127 0.960 . S
C123 H128 0.960 . S
C123 H129 0.959 . S
H124 C120 0.960 . S
H125 C120 0.961 1_554 S
H126 C120 0.960 . S
H127 C123 0.960 . S
H128 C123 0.960 . S
H129 C123 0.959 . S
C130 N131 1.317 . S
C130 N132 1.348 . S
C130 C133 1.464 1_556 S
N131 C130 1.317 . S
N131 N135 1.370 . S
N132 C130 1.348 . S
N132 C134 1.346 . S
C133 C130 1.464 1_554 S
C133 H137 0.976 . S
C133 H138 0.970 . S
C133 H139 0.957 1_554 S
C134 N132 1.346 . S
C134 N135 1.307 . S
C134 C136 1.486 . S
N135 N131 1.370 . S
N135 C134 1.307 . S
C136 C134 1.486 . S
C136 H140 0.960 . S
C136 H141 0.960 . S
C136 H142 0.959 . S
H137 C133 0.976 . S
H138 C133 0.970 . S
H139 C133 0.957 1_556 S
H140 C136 0.960 . S
H141 C136 0.960 . S
H142 C136 0.959 . S
C143 N144 1.317 . S
C143 N145 1.348 . S
C143 C146 1.485 1_556 S
N144 C143 1.317 . S
N144 N148 1.370 . S
N145 C143 1.348 . S
N145 C147 1.346 . S
C146 C143 1.485 1_554 S
C146 H150 0.960 . S
C146 H151 0.961 . S
C146 H152 0.960 . S
C147 N145 1.346 . S
C147 N148 1.307 . S
C147 C149 1.486 . S
N148 N144 1.370 . S
N148 C147 1.307 . S
C149 C147 1.486 . S
C149 H153 0.960 . S
C149 H154 0.960 . S
C149 H155 0.959 . S
H150 C146 0.960 . S
H151 C146 0.961 . S
H152 C146 0.960 . S
H153 C149 0.960 . S
H154 C149 0.960 . S
H155 C149 0.959 . S
C156 N157 1.317 . S
C156 N158 1.348 . S
C156 C159 1.485 . S
N157 C156 1.317 . S
N157 N161 1.370 . S
N158 C156 1.348 . S
N158 C160 1.346 . S
C159 C156 1.485 . S
C159 H163 0.960 . S
C159 H164 0.961 . S
C159 H165 0.960 . S
C160 N158 1.346 . S
C160 N161 1.307 . S
C160 C162 1.486 . S
N161 N157 1.370 . S
N161 C160 1.307 . S
C162 C160 1.486 . S
C162 H166 0.960 . S
C162 H167 0.960 . S
C162 H168 0.959 . S
H163 C159 0.960 . S
H164 C159 0.961 . S
H165 C159 0.960 . S
H166 C162 0.960 . S
H167 C162 0.960 . S
H168 C162 0.959 . S
C169 N170 1.317 . S
C169 N171 1.348 . S
C169 C172 1.485 . S
N170 C169 1.317 . S
N170 N174 1.370 . S
N171 C169 1.348 . S
N171 C173 1.346 . S
C172 C169 1.485 . S
C172 H176 0.960 . S
C172 H177 0.961 . S
C172 H178 0.960 . S
C173 N171 1.346 . S
C173 N174 1.307 . S
C173 C175 1.486 . S
N174 N170 1.370 . S
N174 C173 1.307 . S
C175 C173 1.486 . S
C175 H179 0.960 . S
C175 H180 0.960 . S
C175 H181 0.959 . S
H176 C172 0.960 . S
H177 C172 0.961 . S
H178 C172 0.960 . S
H179 C175 0.960 . S
H180 C175 0.960 . S
H181 C175 0.959 . S
C182 N183 1.317 . S
C182 N184 1.348 . S
C182 C185 1.485 . S
N183 C182 1.317 . S
N183 N187 1.370 . S
N184 C182 1.348 . S
N184 C186 1.346 . S
C185 C182 1.485 . S
C185 H189 0.960 . S
C185 H190 0.961 . S
C185 H191 0.960 . S
C186 N184 1.346 . S
C186 N187 1.307 . S
C186 C188 1.486 . S
N187 N183 1.370 . S
N187 C186 1.307 . S
C188 C186 1.486 . S
C188 H192 0.960 . S
C188 H193 0.960 . S
C188 H194 0.959 . S
H189 C185 0.960 . S
H190 C185 0.961 . S
H191 C185 0.960 . S
H192 C188 0.960 . S
H193 C188 0.960 . S
H194 C188 0.959 . S
C195 N196 1.317 . S
C195 N197 1.348 . S
C195 C198 1.485 . S
N196 C195 1.317 . S
N196 N200 1.370 . S
N197 C195 1.348 . S
N197 C199 1.346 . S
C198 C195 1.485 . S
C198 H202 0.960 . S
C198 H203 0.961 . S
C198 H204 0.960 . S
C199 N197 1.346 . S
C199 N200 1.307 . S
C199 C201 1.486 . S
N200 N196 1.370 . S
N200 C199 1.307 . S
C201 C199 1.486 . S
C201 H205 0.960 . S
C201 H206 0.960 . S
C201 H207 0.959 . S
H202 C198 0.960 . S
H203 C198 0.961 . S
H204 C198 0.960 . S
H205 C201 0.960 . S
H206 C201 0.960 . S
H207 C201 0.959 . S
C208 N209 1.317 . S
C208 N210 1.348 . S
C208 C211 1.485 . S
N209 C208 1.317 . S
N209 N213 1.370 . S
N210 C208 1.348 . S
N210 C212 1.346 . S
C211 C208 1.485 . S
C211 H215 0.960 . S
C211 H216 0.961 . S
C211 H217 0.960 . S
C212 N210 1.346 . S
C212 N213 1.307 . S
C212 C214 1.486 . S
N213 N209 1.370 . S
N213 C212 1.307 . S
C214 C212 1.486 . S
C214 H218 0.960 . S
C214 H219 0.960 . S
C214 H220 0.959 . S
H215 C211 0.960 . S
H216 C211 0.961 . S
H217 C211 0.960 . S
H218 C214 0.960 . S
H219 C214 0.960 . S
H220 C214 0.959 . S
C221 N222 1.317 . S
C221 N223 1.348 . S
C221 C224 1.485 . S
N222 C221 1.317 . S
N222 N226 1.370 . S
N223 C221 1.348 . S
N223 C225 1.346 . S
C224 C221 1.485 . S
C224 H228 0.960 . S
C224 H229 0.961 . S
C224 H230 0.960 . S
C225 N223 1.346 . S
C225 N226 1.307 . S
C225 C227 1.486 . S
N226 N222 1.370 . S
N226 C225 1.307 . S
C227 C225 1.486 . S
C227 H231 0.960 . S
C227 H232 0.960 . S
C227 H233 0.959 . S
H228 C224 0.960 . S
H229 C224 0.961 . S
H230 C224 0.960 . S
H231 C227 0.960 . S
H232 C227 0.960 . S
H233 C227 0.959 . S
Gd234 N265 2.661 . S
Gd234 N271 2.601 . S
Gd234 O278 2.545 . S
Gd234 O279 2.606 1_545 S
Gd234 O281 2.429 . S
Gd234 O282 2.545 1_545 S
Gd234 O283 2.412 1_545 S
Gd234 O285 2.362 . S
Gd234 O286 2.324 1_545 S
Gd234 C293 2.828 1_545 S
Gd235 N244 2.661 . S
Gd235 N248 2.601 . S
Gd235 O279 2.362 1_556 S
Gd235 O280 2.324 1_565 S
Gd235 O284 2.545 . S
Gd235 O285 2.606 1_566 S
Gd235 O287 2.429 1_556 S
Gd235 O288 2.545 1_565 S
Gd235 O289 2.412 1_565 S
Gd235 C302 2.828 1_565 S
C236 C239 1.417 . S
C236 C241 1.431 . S
C236 C242 1.412 . S
C237 C240 1.437 . S
C237 C241 1.317 . S
C237 H256 0.929 . S
C238 C239 1.426 . S
C238 C240 1.413 . S
C238 N248 1.359 . S
C239 C236 1.417 . S
C239 C238 1.426 . S
C239 N244 1.350 . S
C240 C237 1.437 . S
C240 C238 1.413 . S
C240 C250 1.391 . S
C241 C236 1.431 . S
C241 C237 1.317 . S
C241 H252 0.930 . S
C242 C236 1.412 . S
C242 C243 1.355 . S
C242 H254 0.930 . S
C243 C242 1.355 . S
C243 C245 1.402 . S
C243 H255 0.930 . S
N244 Gd235 2.661 . S
N244 C239 1.350 . S
N244 C245 1.307 . S
C245 C243 1.402 . S
C245 N244 1.307 . S
C245 H246 0.930 1_565 S
H246 C245 0.930 1_545 S
C247 N248 1.334 . S
C247 C249 1.394 . S
C247 H251 0.930 . S
N248 Gd235 2.601 . S
N248 C238 1.359 . S
N248 C247 1.334 . S
C249 C247 1.394 . S
C249 C250 1.359 . S
C249 H261 0.930 . S
C250 C240 1.391 . S
C250 C249 1.359 . S
C250 H262 0.929 . S
H251 C247 0.930 . S
H252 C241 0.930 . S
H253 C270 0.930 . S
H254 C242 0.930 . S
H255 C243 0.930 . S
H256 C237 0.929 . S
H257 C275 0.930 . S
H258 C266 0.930 . S
H259 C267 0.930 . S
H260 C291 0.929 . S
H261 C249 0.930 . S
H262 C250 0.929 . S
H263 C292 0.930 . S
H264 C273 0.930 . S
N265 Gd234 2.661 . S
N265 C269 1.350 . S
N265 C270 1.307 . S
C266 H258 0.930 . S
C266 C267 1.355 . S
C266 C268 1.412 . S
C267 H259 0.930 . S
C267 C266 1.355 . S
C267 C270 1.402 . S
C268 C266 1.412 . S
C268 C269 1.417 . S
C268 C292 1.431 . S
C269 N265 1.350 . S
C269 C268 1.417 . S
C269 C272 1.426 . S
C270 H253 0.930 . S
C270 N265 1.307 . S
C270 C267 1.402 . S
N271 Gd234 2.601 . S
N271 C272 1.359 . S
N271 C275 1.334 . S
C272 C269 1.426 . S
C272 N271 1.359 . S
C272 C276 1.413 . S
C273 H264 0.930 . S
C273 C274 1.359 . S
C273 C275 1.394 . S
C274 C273 1.359 . S
C274 C276 1.391 . S
C274 H277 0.929 . S
C275 H257 0.930 . S
C275 N271 1.334 . S
C275 C273 1.394 . S
C276 C272 1.413 . S
C276 C274 1.391 . S
C276 C291 1.437 . S
H277 C274 0.929 . S
O278 Gd234 2.545 . S
O278 C293 1.258 1_545 S
O279 Gd234 2.606 1_565 S
O279 Gd235 2.362 1_554 S
O279 C290 1.284 . S
O280 Gd235 2.324 1_545 S
O280 C300 1.254 1_556 S
O281 Gd234 2.429 . S
O281 C300 1.268 . S
O282 Gd234 2.545 1_565 S
O282 C290 1.250 . S
O283 Gd234 2.412 1_565 S
O283 C293 1.252 . S
O284 Gd235 2.545 . S
O284 C302 1.258 1_565 S
O285 Gd234 2.362 . S
O285 Gd235 2.606 1_544 S
O285 C301 1.284 . S
O286 Gd234 2.324 1_565 S
O286 C309 1.254 . S
O287 Gd235 2.429 1_554 S
O287 C309 1.268 . S
O288 Gd235 2.545 1_545 S
O288 C301 1.250 1_556 S
O289 Gd235 2.412 1_545 S
O289 C302 1.252 . S
C290 O279 1.284 . S
C290 O282 1.250 . S
C291 H260 0.929 . S
C291 C276 1.437 . S
C291 C292 1.317 . S
C292 H263 0.930 . S
C292 C268 1.431 . S
C292 C291 1.317 . S
C293 Gd234 2.828 1_565 S
C293 O278 1.258 1_565 S
C293 O283 1.252 . S
C293 C294 1.497 . S
C294 C293 1.497 . S
C294 C295 1.395 . S
C294 C296 1.380 . S
C295 C294 1.395 . S
C295 C298 1.398 . S
C295 H310 0.930 1_565 S
C296 C294 1.380 . S
C296 C297 1.391 . S
C296 H311 0.930 . S
C297 C296 1.391 . S
C297 C299 1.387 . S
C298 C295 1.398 . S
C298 C299 1.380 . S
C298 H312 0.930 . S
C299 C297 1.387 . S
C299 C298 1.380 . S
C299 H313 0.930 . S
C300 O280 1.254 1_554 S
C300 O281 1.268 . S
C301 O285 1.284 . S
C301 O288 1.250 1_554 S
C302 Gd235 2.828 1_545 S
C302 O284 1.258 1_545 S
C302 O289 1.252 . S
C302 C303 1.497 . S
C303 C302 1.497 . S
C303 C304 1.395 . S
C303 C305 1.380 . S
C304 C303 1.395 . S
C304 C307 1.398 . S
C304 H314 0.930 1_545 S
C305 C303 1.380 . S
C305 C306 1.391 . S
C305 H315 0.930 . S
C306 C305 1.391 . S
C306 C308 1.387 . S
C307 C304 1.398 . S
C307 C308 1.380 . S
C307 H316 0.930 . S
C308 C306 1.387 . S
C308 C307 1.380 . S
C308 H317 0.930 . S
C309 O286 1.254 . S
C309 O287 1.268 . S
H310 C295 0.930 1_545 S
H311 C296 0.930 . S
H312 C298 0.930 . S
H313 C299 0.930 . S
H314 C304 0.930 1_565 S
H315 C305 0.930 . S
H316 C307 0.930 . S
H317 C308 0.930 . S
Gd318 N349 2.661 . S
Gd318 N355 2.601 . S
Gd318 O362 2.545 . S
Gd318 O363 2.606 1_655 S
Gd318 O365 2.429 . S
Gd318 O366 2.545 1_655 S
Gd318 O367 2.411 1_655 S
Gd318 O369 2.362 . S
Gd318 O370 2.324 1_655 S
Gd318 C377 2.828 . S
Gd319 N328 2.661 . S
Gd319 N332 2.601 . S
Gd319 O363 2.362 1_556 S
Gd319 O364 2.324 1_455 S
Gd319 O368 2.545 . S
Gd319 O369 2.606 1_456 S
Gd319 O371 2.429 . S
Gd319 O372 2.545 1_455 S
Gd319 O373 2.412 . S
Gd319 C386 2.828 . S
C320 C323 1.417 . S
C320 C325 1.431 . S
C320 C326 1.412 . S
C321 C324 1.437 . S
C321 C325 1.317 . S
C321 H340 0.929 . S
C322 C323 1.426 . S
C322 C324 1.413 . S
C322 N332 1.359 . S
C323 C320 1.417 . S
C323 C322 1.426 . S
C323 N328 1.350 . S
C324 C321 1.437 . S
C324 C322 1.413 . S
C324 C334 1.391 . S
C325 C320 1.431 . S
C325 C321 1.317 . S
C325 H336 0.930 . S
C326 C320 1.412 . S
C326 C327 1.355 . S
C326 H338 0.930 . S
C327 C326 1.355 . S
C327 C329 1.402 . S
C327 H339 0.930 . S
N328 Gd319 2.661 . S
N328 C323 1.350 . S
N328 C329 1.307 . S
C329 C327 1.402 . S
C329 N328 1.307 . S
C329 H330 0.930 . S
H330 C329 0.930 . S
C331 N332 1.334 . S
C331 C333 1.394 . S
C331 H335 0.930 . S
N332 Gd319 2.601 . S
N332 C322 1.359 . S
N332 C331 1.334 . S
C333 C331 1.394 . S
C333 C334 1.359 . S
C333 H345 0.930 . S
C334 C324 1.391 . S
C334 C333 1.359 . S
C334 H346 0.929 . S
H335 C331 0.930 . S
H336 C325 0.930 . S
H337 C354 0.930 . S
H338 C326 0.930 . S
H339 C327 0.930 . S
H340 C321 0.929 . S
H341 C359 0.930 . S
H342 C350 0.930 . S
H343 C351 0.930 . S
H344 C375 0.929 . S
H345 C333 0.930 . S
H346 C334 0.929 . S
H347 C376 0.930 . S
H348 C357 0.930 . S
N349 Gd318 2.661 . S
N349 C353 1.350 . S
N349 C354 1.307 . S
C350 H342 0.930 . S
C350 C351 1.355 . S
C350 C352 1.412 . S
C351 H343 0.930 . S
C351 C350 1.355 . S
C351 C354 1.402 . S
C352 C350 1.412 . S
C352 C353 1.417 . S
C352 C376 1.431 . S
C353 N349 1.350 . S
C353 C352 1.417 . S
C353 C356 1.426 . S
C354 H337 0.930 . S
C354 N349 1.307 . S
C354 C351 1.402 . S
N355 Gd318 2.601 . S
N355 C356 1.359 . S
N355 C359 1.334 . S
C356 C353 1.426 . S
C356 N355 1.359 . S
C356 C360 1.413 . S
C357 H348 0.930 . S
C357 C358 1.359 . S
C357 C359 1.394 . S
C358 C357 1.359 . S
C358 C360 1.391 . S
C358 H361 0.929 . S
C359 H341 0.930 . S
C359 N355 1.334 . S
C359 C357 1.394 . S
C360 C356 1.413 . S
C360 C358 1.391 . S
C360 C375 1.437 . S
H361 C358 0.929 . S
O362 Gd318 2.545 . S
O362 C377 1.258 . S
O363 Gd318 2.606 1_455 S
O363 Gd319 2.362 1_554 S
O363 C374 1.284 . S
O364 Gd319 2.324 1_655 S
O364 C384 1.254 1_556 S
O365 Gd318 2.429 . S
O365 C384 1.268 . S
O366 Gd318 2.545 1_455 S
O366 C374 1.250 . S
O367 Gd318 2.411 1_455 S
O367 C377 1.260 1_455 S
O368 Gd319 2.545 . S
O368 C386 1.258 . S
O369 Gd318 2.362 . S
O369 Gd319 2.606 1_654 S
O369 C385 1.284 1_554 S
O370 Gd318 2.324 1_455 S
O370 C393 1.254 . S
O371 Gd319 2.429 . S
O371 C393 1.268 1_556 S
O372 Gd319 2.545 1_655 S
O372 C385 1.250 . S
O373 Gd319 2.412 . S
O373 C386 1.252 . S
C374 O363 1.284 . S
C374 O366 1.250 . S
C375 H344 0.929 . S
C375 C360 1.437 . S
C375 C376 1.317 . S
C376 H347 0.930 . S
C376 C352 1.431 . S
C376 C375 1.317 . S
C377 Gd318 2.828 . S
C377 O362 1.258 . S
C377 O367 1.260 1_655 S
C377 C378 1.497 . S
C378 C377 1.497 . S
C378 C379 1.395 . S
C378 C380 1.380 1_655 S
C379 C378 1.395 . S
C379 C382 1.398 . S
C379 H394 0.930 . S
C380 C378 1.380 1_455 S
C380 C381 1.391 . S
C380 H395 0.930 . S
C381 C380 1.391 . S
C381 C383 1.387 . S
C382 C379 1.398 . S
C382 C383 1.380 1_655 S
C382 H396 0.930 . S
C383 C381 1.387 . S
C383 C382 1.380 1_455 S
C383 H397 0.930 . S
C384 O364 1.254 1_554 S
C384 O365 1.268 . S
C385 O369 1.284 1_556 S
C385 O372 1.250 . S
C386 Gd319 2.828 . S
C386 O368 1.258 . S
C386 O373 1.252 . S
C386 C387 1.497 . S
C387 C386 1.497 . S
C387 C388 1.395 . S
C387 C389 1.380 1_455 S
C388 C387 1.395 . S
C388 C391 1.398 . S
C388 H398 0.930 . S
C389 C387 1.380 1_655 S
C389 C390 1.391 . S
C389 H399 0.930 . S
C390 C389 1.391 . S
C390 C392 1.387 1_655 S
C391 C388 1.398 . S
C391 C392 1.380 . S
C391 H400 0.930 . S
C392 C390 1.387 1_455 S
C392 C391 1.380 . S
C392 H401 0.930 . S
C393 O370 1.254 . S
C393 O371 1.268 1_554 S
H394 C379 0.930 . S
H395 C380 0.930 . S
H396 C382 0.930 . S
H397 C383 0.930 . S
H398 C388 0.930 . S
H399 C389 0.930 . S
H400 C391 0.930 . S
H401 C392 0.930 . S
Gd402 N433 2.665 . S
Gd402 N439 2.608 . S
Gd402 O446 2.569 . S
Gd402 O447 2.590 1_556 S
Gd402 O449 2.413 1_556 S
Gd402 O450 2.551 . S
Gd402 O451 2.439 . S
Gd402 O453 2.336 1_556 S
Gd402 O454 2.320 1_556 S
Gd402 C461 2.856 . S
Gd403 N412 2.661 . S
Gd403 N416 2.601 . S
Gd403 O447 2.362 . S
Gd403 O448 2.324 . S
Gd403 O452 2.545 . S
Gd403 O453 2.606 . S
Gd403 O455 2.429 . S
Gd403 O456 2.545 . S
Gd403 O457 2.412 . S
Gd403 C470 2.828 . S
C404 C407 1.417 . S
C404 C409 1.431 . S
C404 C410 1.412 . S
C405 C408 1.437 . S
C405 C409 1.317 . S
C405 H424 0.929 . S
C406 C407 1.426 . S
C406 C408 1.413 . S
C406 N416 1.359 . S
C407 C404 1.417 . S
C407 C406 1.426 . S
C407 N412 1.350 . S
C408 C405 1.437 . S
C408 C406 1.413 . S
C408 C418 1.391 . S
C409 C404 1.431 . S
C409 C405 1.317 . S
C409 H420 0.930 . S
C410 C404 1.412 . S
C410 C411 1.355 . S
C410 H422 0.930 . S
C411 C410 1.355 . S
C411 C413 1.402 . S
C411 H423 0.930 . S
N412 Gd403 2.661 . S
N412 C407 1.350 . S
N412 C413 1.307 . S
C413 C411 1.402 . S
C413 N412 1.307 . S
C413 H414 0.930 . S
H414 C413 0.930 . S
C415 N416 1.334 . S
C415 C417 1.394 . S
C415 H419 0.930 . S
N416 Gd403 2.601 . S
N416 C406 1.359 . S
N416 C415 1.334 . S
C417 C415 1.394 . S
C417 C418 1.359 . S
C417 H429 0.930 . S
C418 C408 1.391 . S
C418 C417 1.359 . S
C418 H430 0.929 . S
H419 C415 0.930 . S
H420 C409 0.930 . S
H421 C438 0.930 . S
H422 C410 0.930 . S
H423 C411 0.930 . S
H424 C405 0.929 . S
H425 C443 0.930 . S
H426 C434 0.930 . S
H427 C435 0.932 . S
H428 C459 0.929 . S
H429 C417 0.930 . S
H430 C418 0.929 . S
H431 C460 0.930 . S
H432 C441 0.930 . S
N433 Gd402 2.665 . S
N433 C437 1.350 . S
N433 C438 1.307 1_556 S
C434 H426 0.930 . S
C434 C435 1.351 1_556 S
C434 C436 1.412 . S
C435 H427 0.932 . S
C435 C434 1.351 1_554 S
C435 C438 1.404 . S
C436 C434 1.412 . S
C436 C437 1.417 . S
C436 C460 1.431 . S
C437 N433 1.350 . S
C437 C436 1.417 . S
C437 C440 1.426 . S
C438 H421 0.930 . S
C438 N433 1.307 1_554 S
C438 C435 1.404 . S
N439 Gd402 2.608 . S
N439 C440 1.359 . S
N439 C443 1.334 . S
C440 C437 1.426 . S
C440 N439 1.359 . S
C440 C444 1.413 . S
C441 H432 0.930 . S
C441 C442 1.359 . S
C441 C443 1.394 . S
C442 C441 1.359 . S
C442 C444 1.391 . S
C442 H445 0.929 . S
C443 H425 0.930 . S
C443 N439 1.334 . S
C443 C441 1.394 . S
C444 C440 1.413 . S
C444 C442 1.391 . S
C444 C459 1.437 . S
H445 C442 0.929 . S
O446 Gd402 2.569 . S
O446 C461 1.258 . S
O447 Gd402 2.590 1_554 S
O447 Gd403 2.362 . S
O447 C458 1.284 . S
O448 Gd403 2.324 . S
O448 C468 1.254 . S
O449 Gd402 2.413 1_554 S
O449 C468 1.268 . S
O450 Gd402 2.551 . S
O450 C458 1.250 1_556 S
O451 Gd402 2.439 . S
O451 C461 1.252 . S
O452 Gd403 2.545 . S
O452 C470 1.258 . S
O453 Gd402 2.336 1_554 S
O453 Gd403 2.606 . S
O453 C469 1.284 . S
O454 Gd402 2.320 1_554 S
O454 C477 1.254 . S
O455 Gd403 2.429 . S
O455 C477 1.268 . S
O456 Gd403 2.545 . S
O456 C469 1.250 . S
O457 Gd403 2.412 . S
O457 C470 1.252 . S
C458 O447 1.284 . S
C458 O450 1.250 1_554 S
C459 H428 0.929 . S
C459 C444 1.437 . S
C459 C460 1.317 . S
C460 H431 0.930 . S
C460 C436 1.431 . S
C460 C459 1.317 . S
C461 Gd402 2.856 . S
C461 O446 1.258 . S
C461 O451 1.252 . S
C461 C462 1.497 . S
C462 C461 1.497 . S
C462 C463 1.395 . S
C462 C464 1.380 . S
C463 C462 1.395 . S
C463 C466 1.398 . S
C463 H478 0.930 . S
C464 C462 1.380 . S
C464 C465 1.391 . S
C464 H479 0.930 . S
C465 C464 1.391 . S
C465 C467 1.387 . S
C466 C463 1.398 . S
C466 C467 1.380 . S
C466 H480 0.930 . S
C467 C465 1.387 . S
C467 C466 1.380 . S
C467 H481 0.930 . S
C468 O448 1.254 . S
C468 O449 1.268 . S
C469 O453 1.284 . S
C469 O456 1.250 . S
C470 Gd403 2.828 . S
C470 O452 1.258 . S
C470 O457 1.252 . S
C470 C471 1.497 . S
C471 C470 1.497 . S
C471 C472 1.395 . S
C471 C473 1.380 . S
C472 C471 1.395 . S
C472 C475 1.398 . S
C472 H482 0.930 . S
C473 C471 1.380 . S
C473 C474 1.391 . S
C473 H483 0.930 . S
C474 C473 1.391 . S
C474 C476 1.387 . S
C475 C472 1.398 . S
C475 C476 1.380 . S
C475 H484 0.930 . S
C476 C474 1.387 . S
C476 C475 1.380 . S
C476 H485 0.930 . S
C477 O454 1.254 . S
C477 O455 1.268 . S
H478 C463 0.930 . S
H479 C464 0.930 . S
H480 C466 0.930 . S
H481 C467 0.930 . S
H482 C472 0.930 . S
H483 C473 0.930 . S
H484 C475 0.930 . S
H485 C476 0.930 . S
Gd486 N517 2.661 . S
Gd486 N523 2.601 . S
Gd486 O530 2.545 . S
Gd486 O531 2.606 . S
Gd486 O533 2.429 . S
Gd486 O534 2.545 . S
Gd486 O535 2.412 . S
Gd486 O537 2.362 . S
Gd486 O538 2.324 . S
Gd486 C545 2.828 . S
Gd487 N496 2.661 . S
Gd487 N500 2.601 . S
Gd487 O531 2.362 . S
Gd487 O532 2.324 . S
Gd487 O536 2.545 . S
Gd487 O537 2.606 . S
Gd487 O539 2.429 . S
Gd487 O540 2.545 . S
Gd487 O541 2.412 . S
Gd487 C554 2.828 . S
C488 C491 1.417 . S
C488 C493 1.431 . S
C488 C494 1.412 . S
C489 C492 1.437 . S
C489 C493 1.317 . S
C489 H508 0.929 . S
C490 C491 1.426 . S
C490 C492 1.413 . S
C490 N500 1.359 . S
C491 C488 1.417 . S
C491 C490 1.426 . S
C491 N496 1.350 . S
C492 C489 1.437 . S
C492 C490 1.413 . S
C492 C502 1.391 . S
C493 C488 1.431 . S
C493 C489 1.317 . S
C493 H504 0.930 . S
C494 C488 1.412 . S
C494 C495 1.355 . S
C494 H506 0.930 . S
C495 C494 1.355 . S
C495 C497 1.402 . S
C495 H507 0.930 . S
N496 Gd487 2.661 . S
N496 C491 1.350 . S
N496 C497 1.307 . S
C497 C495 1.402 . S
C497 N496 1.307 . S
C497 H498 0.930 . S
H498 C497 0.930 . S
C499 N500 1.334 . S
C499 C501 1.394 . S
C499 H503 0.930 . S
N500 Gd487 2.601 . S
N500 C490 1.359 . S
N500 C499 1.334 . S
C501 C499 1.394 . S
C501 C502 1.359 . S
C501 H513 0.930 . S
C502 C492 1.391 . S
C502 C501 1.359 . S
C502 H514 0.929 . S
H503 C499 0.930 . S
H504 C493 0.930 . S
H505 C522 0.930 . S
H506 C494 0.930 . S
H507 C495 0.930 . S
H508 C489 0.929 . S
H509 C527 0.930 . S
H510 C518 0.930 . S
H511 C519 0.930 . S
H512 C543 0.929 . S
H513 C501 0.930 . S
H514 C502 0.929 . S
H515 C544 0.930 . S
H516 C525 0.930 . S
N517 Gd486 2.661 . S
N517 C521 1.350 . S
N517 C522 1.307 . S
C518 H510 0.930 . S
C518 C519 1.355 . S
C518 C520 1.412 . S
C519 H511 0.930 . S
C519 C518 1.355 . S
C519 C522 1.402 . S
C520 C518 1.412 . S
C520 C521 1.417 . S
C520 C544 1.431 . S
C521 N517 1.350 . S
C521 C520 1.417 . S
C521 C524 1.426 . S
C522 H505 0.930 . S
C522 N517 1.307 . S
C522 C519 1.402 . S
N523 Gd486 2.601 . S
N523 C524 1.359 . S
N523 C527 1.334 . S
C524 C521 1.426 . S
C524 N523 1.359 . S
C524 C528 1.413 . S
C525 H516 0.930 . S
C525 C526 1.359 . S
C525 C527 1.394 . S
C526 C525 1.359 . S
C526 C528 1.391 . S
C526 H529 0.929 . S
C527 H509 0.930 . S
C527 N523 1.334 . S
C527 C525 1.394 . S
C528 C524 1.413 . S
C528 C526 1.391 . S
C528 C543 1.437 . S
H529 C526 0.929 . S
O530 Gd486 2.545 . S
O530 C545 1.258 . S
O531 Gd486 2.606 . S
O531 Gd487 2.362 . S
O531 C542 1.284 . S
O532 Gd487 2.324 . S
O532 C552 1.254 . S
O533 Gd486 2.429 . S
O533 C552 1.268 . S
O534 Gd486 2.545 . S
O534 C542 1.250 . S
O535 Gd486 2.412 . S
O535 C545 1.252 . S
O536 Gd487 2.545 . S
O536 C554 1.258 . S
O537 Gd486 2.362 . S
O537 Gd487 2.606 . S
O537 C553 1.284 . S
O538 Gd486 2.324 . S
O538 C561 1.254 . S
O539 Gd487 2.429 . S
O539 C561 1.268 . S
O540 Gd487 2.545 . S
O540 C553 1.250 . S
O541 Gd487 2.412 . S
O541 C554 1.252 . S
C542 O531 1.284 . S
C542 O534 1.250 . S
C543 H512 0.929 . S
C543 C528 1.437 . S
C543 C544 1.317 . S
C544 H515 0.930 . S
C544 C520 1.431 . S
C544 C543 1.317 . S
C545 Gd486 2.828 . S
C545 O530 1.258 . S
C545 O535 1.252 . S
C545 C546 1.497 . S
C546 C545 1.497 . S
C546 C547 1.395 . S
C546 C548 1.380 . S
C547 C546 1.395 . S
C547 C550 1.398 . S
C547 H562 0.930 . S
C548 C546 1.380 . S
C548 C549 1.391 . S
C548 H563 0.930 . S
C549 C548 1.391 . S
C549 C551 1.387 . S
C550 C547 1.398 . S
C550 C551 1.380 . S
C550 H564 0.930 . S
C551 C549 1.387 . S
C551 C550 1.380 . S
C551 H565 0.930 . S
C552 O532 1.254 . S
C552 O533 1.268 . S
C553 O537 1.284 . S
C553 O540 1.250 . S
C554 Gd487 2.828 . S
C554 O536 1.258 . S
C554 O541 1.252 . S
C554 C555 1.497 . S
C555 C554 1.497 . S
C555 C556 1.395 . S
C555 C557 1.380 . S
C556 C555 1.395 . S
C556 C559 1.398 . S
C556 H566 0.930 . S
C557 C555 1.380 . S
C557 C558 1.391 . S
C557 H567 0.930 . S
C558 C557 1.391 . S
C558 C560 1.387 . S
C559 C556 1.398 . S
C559 C560 1.380 . S
C559 H568 0.930 . S
C560 C558 1.387 . S
C560 C559 1.380 . S
C560 H569 0.930 . S
C561 O538 1.254 . S
C561 O539 1.268 . S
H562 C547 0.930 . S
H563 C548 0.930 . S
H564 C550 0.930 . S
H565 C551 0.930 . S
H566 C556 0.930 . S
H567 C557 0.930 . S
H568 C559 0.930 . S
H569 C560 0.930 . S
Gd570 N601 2.661 . S
Gd570 N607 2.601 . S
Gd570 O614 2.545 . S
Gd570 O615 2.606 . S
Gd570 O617 2.429 . S
Gd570 O618 2.545 . S
Gd570 O619 2.412 . S
Gd570 O621 2.362 . S
Gd570 O622 2.324 . S
Gd570 C629 2.828 . S
Gd571 N580 2.661 . S
Gd571 N584 2.601 . S
Gd571 O615 2.362 . S
Gd571 O616 2.324 . S
Gd571 O620 2.545 . S
Gd571 O621 2.606 . S
Gd571 O623 2.429 . S
Gd571 O624 2.545 . S
Gd571 O625 2.412 . S
Gd571 C638 2.828 . S
C572 C575 1.417 . S
C572 C577 1.431 . S
C572 C578 1.412 . S
C573 C576 1.437 . S
C573 C577 1.317 . S
C573 H592 0.929 . S
C574 C575 1.426 . S
C574 C576 1.413 . S
C574 N584 1.359 . S
C575 C572 1.417 . S
C575 C574 1.426 . S
C575 N580 1.350 . S
C576 C573 1.437 . S
C576 C574 1.413 . S
C576 C586 1.391 . S
C577 C572 1.431 . S
C577 C573 1.317 . S
C577 H588 0.930 . S
C578 C572 1.412 . S
C578 C579 1.355 . S
C578 H590 0.930 . S
C579 C578 1.355 . S
C579 C581 1.402 . S
C579 H591 0.930 . S
N580 Gd571 2.661 . S
N580 C575 1.350 . S
N580 C581 1.307 . S
C581 C579 1.402 . S
C581 N580 1.307 . S
C581 H582 0.930 . S
H582 C581 0.930 . S
C583 N584 1.334 . S
C583 C585 1.394 . S
C583 H587 0.930 . S
N584 Gd571 2.601 . S
N584 C574 1.359 . S
N584 C583 1.334 . S
C585 C583 1.394 . S
C585 C586 1.359 . S
C585 H597 0.930 . S
C586 C576 1.391 . S
C586 C585 1.359 . S
C586 H598 0.929 . S
H587 C583 0.930 . S
H588 C577 0.930 . S
H589 C606 0.930 . S
H590 C578 0.930 . S
H591 C579 0.930 . S
H592 C573 0.929 . S
H593 C611 0.930 . S
H594 C602 0.930 . S
H595 C603 0.930 . S
H596 C627 0.929 . S
H597 C585 0.930 . S
H598 C586 0.929 . S
H599 C628 0.930 . S
H600 C609 0.930 . S
N601 Gd570 2.661 . S
N601 C605 1.350 . S
N601 C606 1.307 . S
C602 H594 0.930 . S
C602 C603 1.355 . S
C602 C604 1.412 . S
C603 H595 0.930 . S
C603 C602 1.355 . S
C603 C606 1.402 . S
C604 C602 1.412 . S
C604 C605 1.417 . S
C604 C628 1.431 . S
C605 N601 1.350 . S
C605 C604 1.417 . S
C605 C608 1.426 . S
C606 H589 0.930 . S
C606 N601 1.307 . S
C606 C603 1.402 . S
N607 Gd570 2.601 . S
N607 C608 1.359 . S
N607 C611 1.334 . S
C608 C605 1.426 . S
C608 N607 1.359 . S
C608 C612 1.413 . S
C609 H600 0.930 . S
C609 C610 1.359 . S
C609 C611 1.394 . S
C610 C609 1.359 . S
C610 C612 1.391 . S
C610 H613 0.929 . S
C611 H593 0.930 . S
C611 N607 1.334 . S
C611 C609 1.394 . S
C612 C608 1.413 . S
C612 C610 1.391 . S
C612 C627 1.437 . S
H613 C610 0.929 . S
O614 Gd570 2.545 . S
O614 C629 1.258 . S
O615 Gd570 2.606 . S
O615 Gd571 2.362 . S
O615 C626 1.284 . S
O616 Gd571 2.324 . S
O616 C636 1.254 . S
O617 Gd570 2.429 . S
O617 C636 1.268 . S
O618 Gd570 2.545 . S
O618 C626 1.250 . S
O619 Gd570 2.412 . S
O619 C629 1.252 . S
O620 Gd571 2.545 . S
O620 C638 1.258 . S
O621 Gd570 2.362 . S
O621 Gd571 2.606 . S
O621 C637 1.284 . S
O622 Gd570 2.324 . S
O622 C645 1.254 . S
O623 Gd571 2.429 . S
O623 C645 1.268 . S
O624 Gd571 2.545 . S
O624 C637 1.250 . S
O625 Gd571 2.412 . S
O625 C638 1.252 . S
C626 O615 1.284 . S
C626 O618 1.250 . S
C627 H596 0.929 . S
C627 C612 1.437 . S
C627 C628 1.317 . S
C628 H599 0.930 . S
C628 C604 1.431 . S
C628 C627 1.317 . S
C629 Gd570 2.828 . S
C629 O614 1.258 . S
C629 O619 1.252 . S
C629 C630 1.497 . S
C630 C629 1.497 . S
C630 C631 1.395 . S
C630 C632 1.380 . S
C631 C630 1.395 . S
C631 C634 1.398 . S
C631 H646 0.930 . S
C632 C630 1.380 . S
C632 C633 1.391 . S
C632 H647 0.930 . S
C633 C632 1.391 . S
C633 C635 1.387 . S
C634 C631 1.398 . S
C634 C635 1.380 . S
C634 H648 0.930 . S
C635 C633 1.387 . S
C635 C634 1.380 . S
C635 H649 0.930 . S
C636 O616 1.254 . S
C636 O617 1.268 . S
C637 O621 1.284 . S
C637 O624 1.250 . S
C638 Gd571 2.828 . S
C638 O620 1.258 . S
C638 O625 1.252 . S
C638 C639 1.497 . S
C639 C638 1.497 . S
C639 C640 1.395 . S
C639 C641 1.380 . S
C640 C639 1.395 . S
C640 C643 1.398 . S
C640 H650 0.930 . S
C641 C639 1.380 . S
C641 C642 1.391 . S
C641 H651 0.930 . S
C642 C641 1.391 . S
C642 C644 1.387 . S
C643 C640 1.398 . S
C643 C644 1.380 . S
C643 H652 0.930 . S
C644 C642 1.387 . S
C644 C643 1.380 . S
C644 H653 0.930 . S
C645 O622 1.254 . S
C645 O623 1.268 . S
H646 C631 0.930 . S
H647 C632 0.930 . S
H648 C634 0.930 . S
H649 C635 0.930 . S
H650 C640 0.930 . S
H651 C641 0.930 . S
H652 C643 0.930 . S
H653 C644 0.930 . S
Gd654 N685 2.661 . S
Gd654 N691 2.601 . S
Gd654 O698 2.545 . S
Gd654 O699 2.606 . S
Gd654 O701 2.429 . S
Gd654 O702 2.545 . S
Gd654 O703 2.412 . S
Gd654 O705 2.362 . S
Gd654 O706 2.324 . S
Gd654 C713 2.828 . S
Gd655 N664 2.661 . S
Gd655 N668 2.601 . S
Gd655 O699 2.362 . S
Gd655 O700 2.324 . S
Gd655 O704 2.545 . S
Gd655 O705 2.606 . S
Gd655 O707 2.429 . S
Gd655 O708 2.545 . S
Gd655 O709 2.412 . S
Gd655 C722 2.828 . S
C656 C659 1.417 . S
C656 C661 1.431 . S
C656 C662 1.412 . S
C657 C660 1.437 . S
C657 C661 1.317 . S
C657 H676 0.929 . S
C658 C659 1.426 . S
C658 C660 1.413 . S
C658 N668 1.359 . S
C659 C656 1.417 . S
C659 C658 1.426 . S
C659 N664 1.350 . S
C660 C657 1.437 . S
C660 C658 1.413 . S
C660 C670 1.391 . S
C661 C656 1.431 . S
C661 C657 1.317 . S
C661 H672 0.930 . S
C662 C656 1.412 . S
C662 C663 1.355 . S
C662 H674 0.930 . S
C663 C662 1.355 . S
C663 C665 1.402 . S
C663 H675 0.930 . S
N664 Gd655 2.661 . S
N664 C659 1.350 . S
N664 C665 1.307 . S
C665 C663 1.402 . S
C665 N664 1.307 . S
C665 H666 0.930 . S
H666 C665 0.930 . S
C667 N668 1.334 . S
C667 C669 1.394 . S
C667 H671 0.930 . S
N668 Gd655 2.601 . S
N668 C658 1.359 . S
N668 C667 1.334 . S
C669 C667 1.394 . S
C669 C670 1.359 . S
C669 H681 0.930 . S
C670 C660 1.391 . S
C670 C669 1.359 . S
C670 H682 0.929 . S
H671 C667 0.930 . S
H672 C661 0.930 . S
H673 C690 0.930 . S
H674 C662 0.930 . S
H675 C663 0.930 . S
H676 C657 0.929 . S
H677 C695 0.930 . S
H678 C686 0.930 . S
H679 C687 0.930 . S
H680 C711 0.929 . S
H681 C669 0.930 . S
H682 C670 0.929 . S
H683 C712 0.930 . S
H684 C693 0.930 . S
N685 Gd654 2.661 . S
N685 C689 1.350 . S
N685 C690 1.307 . S
C686 H678 0.930 . S
C686 C687 1.355 . S
C686 C688 1.412 . S
C687 H679 0.930 . S
C687 C686 1.355 . S
C687 C690 1.402 . S
C688 C686 1.412 . S
C688 C689 1.417 . S
C688 C712 1.431 . S
C689 N685 1.350 . S
C689 C688 1.417 . S
C689 C692 1.426 . S
C690 H673 0.930 . S
C690 N685 1.307 . S
C690 C687 1.402 . S
N691 Gd654 2.601 . S
N691 C692 1.359 . S
N691 C695 1.334 . S
C692 C689 1.426 . S
C692 N691 1.359 . S
C692 C696 1.413 . S
C693 H684 0.930 . S
C693 C694 1.359 . S
C693 C695 1.394 . S
C694 C693 1.359 . S
C694 C696 1.391 . S
C694 H697 0.929 . S
C695 H677 0.930 . S
C695 N691 1.334 . S
C695 C693 1.394 . S
C696 C692 1.413 . S
C696 C694 1.391 . S
C696 C711 1.437 . S
H697 C694 0.929 . S
O698 Gd654 2.545 . S
O698 C713 1.258 . S
O699 Gd654 2.606 . S
O699 Gd655 2.362 . S
O699 C710 1.284 . S
O700 Gd655 2.324 . S
O700 C720 1.254 . S
O701 Gd654 2.429 . S
O701 C720 1.268 . S
O702 Gd654 2.545 . S
O702 C710 1.250 . S
O703 Gd654 2.412 . S
O703 C713 1.252 . S
O704 Gd655 2.545 . S
O704 C722 1.258 . S
O705 Gd654 2.362 . S
O705 Gd655 2.606 . S
O705 C721 1.284 . S
O706 Gd654 2.324 . S
O706 C729 1.254 . S
O707 Gd655 2.429 . S
O707 C729 1.268 . S
O708 Gd655 2.545 . S
O708 C721 1.250 . S
O709 Gd655 2.412 . S
O709 C722 1.252 . S
C710 O699 1.284 . S
C710 O702 1.250 . S
C711 H680 0.929 . S
C711 C696 1.437 . S
C711 C712 1.317 . S
C712 H683 0.930 . S
C712 C688 1.431 . S
C712 C711 1.317 . S
C713 Gd654 2.828 . S
C713 O698 1.258 . S
C713 O703 1.252 . S
C713 C714 1.497 . S
C714 C713 1.497 . S
C714 C715 1.395 . S
C714 C716 1.380 . S
C715 C714 1.395 . S
C715 C718 1.398 . S
C715 H730 0.930 . S
C716 C714 1.380 . S
C716 C717 1.391 . S
C716 H731 0.930 . S
C717 C716 1.391 . S
C717 C719 1.387 . S
C718 C715 1.398 . S
C718 C719 1.380 . S
C718 H732 0.930 . S
C719 C717 1.387 . S
C719 C718 1.380 . S
C719 H733 0.930 . S
C720 O700 1.254 . S
C720 O701 1.268 . S
C721 O705 1.284 . S
C721 O708 1.250 . S
C722 Gd655 2.828 . S
C722 O704 1.258 . S
C722 O709 1.252 . S
C722 C723 1.497 . S
C723 C722 1.497 . S
C723 C724 1.395 . S
C723 C725 1.380 . S
C724 C723 1.395 . S
C724 C727 1.398 . S
C724 H734 0.930 . S
C725 C723 1.380 . S
C725 C726 1.391 . S
C725 H735 0.930 . S
C726 C725 1.391 . S
C726 C728 1.387 . S
C727 C724 1.398 . S
C727 C728 1.380 . S
C727 H736 0.930 . S
C728 C726 1.387 . S
C728 C727 1.380 . S
C728 H737 0.930 . S
C729 O706 1.254 . S
C729 O707 1.268 . S
H730 C715 0.930 . S
H731 C716 0.930 . S
H732 C718 0.930 . S
H733 C719 0.930 . S
H734 C724 0.930 . S
H735 C725 0.930 . S
H736 C727 0.930 . S
H737 C728 0.930 . S
Gd738 N769 2.661 . S
Gd738 N775 2.601 . S
Gd738 O782 2.545 . S
Gd738 O783 2.606 . S
Gd738 O785 2.429 . S
Gd738 O786 2.545 . S
Gd738 O787 2.412 . S
Gd738 O789 2.362 . S
Gd738 O790 2.324 . S
Gd738 C797 2.828 . S
Gd739 N748 2.661 . S
Gd739 N752 2.601 . S
Gd739 O783 2.362 . S
Gd739 O784 2.324 . S
Gd739 O788 2.545 . S
Gd739 O789 2.606 . S
Gd739 O791 2.429 . S
Gd739 O792 2.545 . S
Gd739 O793 2.412 . S
Gd739 C806 2.828 . S
C740 C743 1.417 . S
C740 C745 1.431 . S
C740 C746 1.412 . S
C741 C744 1.437 . S
C741 C745 1.317 . S
C741 H760 0.929 . S
C742 C743 1.426 . S
C742 C744 1.413 . S
C742 N752 1.359 . S
C743 C740 1.417 . S
C743 C742 1.426 . S
C743 N748 1.350 . S
C744 C741 1.437 . S
C744 C742 1.413 . S
C744 C754 1.391 . S
C745 C740 1.431 . S
C745 C741 1.317 . S
C745 H756 0.930 . S
C746 C740 1.412 . S
C746 C747 1.355 . S
C746 H758 0.930 . S
C747 C746 1.355 . S
C747 C749 1.402 . S
C747 H759 0.930 . S
N748 Gd739 2.661 . S
N748 C743 1.350 . S
N748 C749 1.307 . S
C749 C747 1.402 . S
C749 N748 1.307 . S
C749 H750 0.930 . S
H750 C749 0.930 . S
C751 N752 1.334 . S
C751 C753 1.394 . S
C751 H755 0.930 . S
N752 Gd739 2.601 . S
N752 C742 1.359 . S
N752 C751 1.334 . S
C753 C751 1.394 . S
C753 C754 1.359 . S
C753 H765 0.930 . S
C754 C744 1.391 . S
C754 C753 1.359 . S
C754 H766 0.929 . S
H755 C751 0.930 . S
H756 C745 0.930 . S
H757 C774 0.930 . S
H758 C746 0.930 . S
H759 C747 0.930 . S
H760 C741 0.929 . S
H761 C779 0.930 . S
H762 C770 0.930 1_455 S
H763 C771 0.930 . S
H764 C795 0.929 . S
H765 C753 0.930 . S
H766 C754 0.929 . S
H767 C796 0.930 . S
H768 C777 0.930 . S
N769 Gd738 2.661 . S
N769 C773 1.350 . S
N769 C774 1.307 . S
C770 H762 0.930 1_655 S
C770 C771 1.355 . S
C770 C772 1.412 . S
C771 H763 0.930 . S
C771 C770 1.355 . S
C771 C774 1.402 . S
C772 C770 1.412 . S
C772 C773 1.417 . S
C772 C796 1.431 . S
C773 N769 1.350 . S
C773 C772 1.417 . S
C773 C776 1.426 . S
C774 H757 0.930 . S
C774 N769 1.307 . S
C774 C771 1.402 . S
N775 Gd738 2.601 . S
N775 C776 1.359 . S
N775 C779 1.334 . S
C776 C773 1.426 . S
C776 N775 1.359 . S
C776 C780 1.413 . S
C777 H768 0.930 . S
C777 C778 1.359 . S
C777 C779 1.394 . S
C778 C777 1.359 . S
C778 C780 1.391 . S
C778 H781 0.929 . S
C779 H761 0.930 . S
C779 N775 1.334 . S
C779 C777 1.394 . S
C780 C776 1.413 . S
C780 C778 1.391 . S
C780 C795 1.437 . S
H781 C778 0.929 . S
O782 Gd738 2.545 . S
O782 C797 1.258 . S
O783 Gd738 2.606 . S
O783 Gd739 2.362 . S
O783 C794 1.284 . S
O784 Gd739 2.324 . S
O784 C804 1.254 . S
O785 Gd738 2.429 . S
O785 C804 1.268 . S
O786 Gd738 2.545 . S
O786 C794 1.250 . S
O787 Gd738 2.412 . S
O787 C797 1.252 . S
O788 Gd739 2.545 . S
O788 C806 1.258 . S
O789 Gd738 2.362 . S
O789 Gd739 2.606 . S
O789 C805 1.284 . S
O790 Gd738 2.324 . S
O790 C813 1.254 . S
O791 Gd739 2.429 . S
O791 C813 1.268 . S
O792 Gd739 2.545 . S
O792 C805 1.250 . S
O793 Gd739 2.412 . S
O793 C806 1.252 . S
C794 O783 1.284 . S
C794 O786 1.250 . S
C795 H764 0.929 . S
C795 C780 1.437 . S
C795 C796 1.317 . S
C796 H767 0.930 . S
C796 C772 1.431 . S
C796 C795 1.317 . S
C797 Gd738 2.828 . S
C797 O782 1.258 . S
C797 O787 1.252 . S
C797 C798 1.497 . S
C798 C797 1.497 . S
C798 C799 1.395 . S
C798 C800 1.380 . S
C799 C798 1.395 . S
C799 C802 1.398 . S
C799 H814 0.930 . S
C800 C798 1.380 . S
C800 C801 1.391 . S
C800 H815 0.930 . S
C801 C800 1.391 . S
C801 C803 1.387 . S
C802 C799 1.398 . S
C802 C803 1.380 . S
C802 H816 0.930 . S
C803 C801 1.387 . S
C803 C802 1.380 . S
C803 H817 0.930 . S
C804 O784 1.254 . S
C804 O785 1.268 . S
C805 O789 1.284 . S
C805 O792 1.250 . S
C806 Gd739 2.828 . S
C806 O788 1.258 . S
C806 O793 1.252 . S
C806 C807 1.497 . S
C807 C806 1.497 . S
C807 C808 1.395 . S
C807 C809 1.380 . S
C808 C807 1.395 . S
C808 C811 1.398 . S
C808 H818 0.930 . S
C809 C807 1.380 . S
C809 C810 1.391 . S
C809 H819 0.930 . S
C810 C809 1.391 . S
C810 C812 1.387 . S
C811 C808 1.398 . S
C811 C812 1.380 . S
C811 H820 0.930 . S
C812 C810 1.387 . S
C812 C811 1.380 . S
C812 H821 0.930 . S
C813 O790 1.254 . S
C813 O791 1.268 . S
H814 C799 0.930 . S
H815 C800 0.930 . S
H816 C802 0.930 . S
H817 C803 0.930 . S
H818 C808 0.930 . S
H819 C809 0.930 . S
H820 C811 0.930 . S
H821 C812 0.930 . S
Gd822 N853 2.661 . S
Gd822 N859 2.601 . S
Gd822 O866 2.545 . S
Gd822 O867 2.606 . S
Gd822 O869 2.429 . S
Gd822 O870 2.545 . S
Gd822 O871 2.412 . S
Gd822 O873 2.362 . S
Gd822 O874 2.324 . S
Gd822 C881 2.828 . S
Gd823 N832 2.661 . S
Gd823 N836 2.601 . S
Gd823 O867 2.362 . S
Gd823 O868 2.324 . S
Gd823 O872 2.545 . S
Gd823 O873 2.606 . S
Gd823 O875 2.429 . S
Gd823 O876 2.545 . S
Gd823 O877 2.412 . S
Gd823 C890 2.828 . S
C824 C827 1.417 . S
C824 C829 1.431 . S
C824 C830 1.412 . S
C825 C828 1.437 . S
C825 C829 1.317 . S
C825 H844 0.929 . S
C826 C827 1.426 . S
C826 C828 1.413 . S
C826 N836 1.359 . S
C827 C824 1.417 . S
C827 C826 1.426 . S
C827 N832 1.350 . S
C828 C825 1.437 . S
C828 C826 1.413 . S
C828 C838 1.391 . S
C829 C824 1.431 . S
C829 C825 1.317 . S
C829 H840 0.930 . S
C830 C824 1.412 . S
C830 C831 1.355 . S
C830 H842 0.930 . S
C831 C830 1.355 . S
C831 C833 1.402 . S
C831 H843 0.930 . S
N832 Gd823 2.661 . S
N832 C827 1.350 . S
N832 C833 1.307 . S
C833 C831 1.402 . S
C833 N832 1.307 . S
C833 H834 0.930 . S
H834 C833 0.930 . S
C835 N836 1.334 . S
C835 C837 1.394 . S
C835 H839 0.930 . S
N836 Gd823 2.601 . S
N836 C826 1.359 . S
N836 C835 1.334 . S
C837 C835 1.394 . S
C837 C838 1.359 . S
C837 H849 0.930 . S
C838 C828 1.391 . S
C838 C837 1.359 . S
C838 H850 0.929 . S
H839 C835 0.930 . S
H840 C829 0.930 . S
H841 C858 0.930 . S
H842 C830 0.930 . S
H843 C831 0.930 . S
H844 C825 0.929 . S
H845 C863 0.930 . S
H846 C854 0.930 . S
H847 C855 0.930 . S
H848 C879 0.929 . S
H849 C837 0.930 . S
H850 C838 0.929 . S
H851 C880 0.930 . S
H852 C861 0.930 . S
N853 Gd822 2.661 . S
N853 C857 1.350 . S
N853 C858 1.307 . S
C854 H846 0.930 . S
C854 C855 1.355 . S
C854 C856 1.412 . S
C855 H847 0.930 . S
C855 C854 1.355 . S
C855 C858 1.402 . S
C856 C854 1.412 . S
C856 C857 1.417 . S
C856 C880 1.431 . S
C857 N853 1.350 . S
C857 C856 1.417 . S
C857 C860 1.426 . S
C858 H841 0.930 . S
C858 N853 1.307 . S
C858 C855 1.402 . S
N859 Gd822 2.601 . S
N859 C860 1.359 . S
N859 C863 1.334 . S
C860 C857 1.426 . S
C860 N859 1.359 . S
C860 C864 1.413 . S
C861 H852 0.930 . S
C861 C862 1.359 . S
C861 C863 1.394 . S
C862 C861 1.359 . S
C862 C864 1.391 . S
C862 H865 0.929 . S
C863 H845 0.930 . S
C863 N859 1.334 . S
C863 C861 1.394 . S
C864 C860 1.413 . S
C864 C862 1.391 . S
C864 C879 1.437 . S
H865 C862 0.929 . S
O866 Gd822 2.545 . S
O866 C881 1.258 . S
O867 Gd822 2.606 . S
O867 Gd823 2.362 . S
O867 C878 1.284 . S
O868 Gd823 2.324 . S
O868 C888 1.254 . S
O869 Gd822 2.429 . S
O869 C888 1.268 . S
O870 Gd822 2.545 . S
O870 C878 1.250 . S
O871 Gd822 2.412 . S
O871 C881 1.252 . S
O872 Gd823 2.545 . S
O872 C890 1.258 . S
O873 Gd822 2.362 . S
O873 Gd823 2.606 . S
O873 C889 1.284 . S
O874 Gd822 2.324 . S
O874 C897 1.254 . S
O875 Gd823 2.429 . S
O875 C897 1.268 . S
O876 Gd823 2.545 . S
O876 C889 1.250 . S
O877 Gd823 2.412 . S
O877 C890 1.252 . S
C878 O867 1.284 . S
C878 O870 1.250 . S
C879 H848 0.929 . S
C879 C864 1.437 . S
C879 C880 1.317 . S
C880 H851 0.930 . S
C880 C856 1.431 . S
C880 C879 1.317 . S
C881 Gd822 2.828 . S
C881 O866 1.258 . S
C881 O871 1.252 . S
C881 C882 1.497 . S
C882 C881 1.497 . S
C882 C883 1.395 . S
C882 C884 1.380 . S
C883 C882 1.395 . S
C883 C886 1.398 . S
C883 H898 0.930 . S
C884 C882 1.380 . S
C884 C885 1.391 . S
C884 H899 0.930 . S
C885 C884 1.391 . S
C885 C887 1.387 . S
C886 C883 1.398 . S
C886 C887 1.380 . S
C886 H900 0.930 . S
C887 C885 1.387 . S
C887 C886 1.380 . S
C887 H901 0.930 . S
C888 O868 1.254 . S
C888 O869 1.268 . S
C889 O873 1.284 . S
C889 O876 1.250 . S
C890 Gd823 2.828 . S
C890 O872 1.258 . S
C890 O877 1.252 . S
C890 C891 1.497 . S
C891 C890 1.497 . S
C891 C892 1.395 . S
C891 C893 1.380 . S
C892 C891 1.395 . S
C892 C895 1.398 . S
C892 H902 0.930 . S
C893 C891 1.380 . S
C893 C894 1.391 . S
C893 H903 0.930 . S
C894 C893 1.391 . S
C894 C896 1.387 . S
C895 C892 1.398 . S
C895 C896 1.380 . S
C895 H904 0.930 . S
C896 C894 1.387 . S
C896 C895 1.380 . S
C896 H905 0.930 . S
C897 O874 1.254 . S
C897 O875 1.268 . S
H898 C883 0.930 . S
H899 C884 0.930 . S
H900 C886 0.930 . S
H901 C887 0.930 . S
H902 C892 0.930 . S
H903 C893 0.930 . S
H904 C895 0.930 . S
H905 C896 0.930 . S
Gd906 N937 2.661 . S
Gd906 N943 2.601 . S
Gd906 O950 2.545 . S
Gd906 O951 2.606 . S
Gd906 O953 2.429 . S
Gd906 O954 2.545 . S
Gd906 O955 2.412 . S
Gd906 O957 2.362 . S
Gd906 O958 2.324 . S
Gd906 C965 2.828 . S
Gd907 N916 2.661 . S
Gd907 N920 2.601 . S
Gd907 O951 2.362 . S
Gd907 O952 2.324 . S
Gd907 O956 2.545 . S
Gd907 O957 2.606 . S
Gd907 O959 2.429 . S
Gd907 O960 2.545 . S
Gd907 O961 2.412 . S
Gd907 C974 2.828 . S
C908 C911 1.417 . S
C908 C913 1.431 . S
C908 C914 1.412 . S
C909 C912 1.437 . S
C909 C913 1.317 . S
C909 H928 0.929 . S
C910 C911 1.426 . S
C910 C912 1.413 . S
C910 N920 1.359 . S
C911 C908 1.417 . S
C911 C910 1.426 . S
C911 N916 1.350 . S
C912 C909 1.437 . S
C912 C910 1.413 . S
C912 C922 1.391 . S
C913 C908 1.431 . S
C913 C909 1.317 . S
C913 H924 0.930 . S
C914 C908 1.412 . S
C914 C915 1.355 . S
C914 H926 0.930 . S
C915 C914 1.355 . S
C915 C917 1.402 . S
C915 H927 0.930 . S
N916 Gd907 2.661 . S
N916 C911 1.350 . S
N916 C917 1.307 . S
C917 C915 1.402 . S
C917 N916 1.307 . S
C917 H918 0.930 . S
H918 C917 0.930 . S
C919 N920 1.334 . S
C919 C921 1.394 . S
C919 H923 0.930 . S
N920 Gd907 2.601 . S
N920 C910 1.359 . S
N920 C919 1.334 . S
C921 C919 1.394 . S
C921 C922 1.359 . S
C921 H933 0.930 . S
C922 C912 1.391 . S
C922 C921 1.359 . S
C922 H934 0.929 . S
H923 C919 0.930 . S
H924 C913 0.930 . S
H925 C942 0.930 . S
H926 C914 0.930 . S
H927 C915 0.930 . S
H928 C909 0.929 . S
H929 C947 0.930 . S
H930 C938 0.930 . S
H931 C939 0.930 . S
H932 C963 0.929 . S
H933 C921 0.930 . S
H934 C922 0.929 . S
H935 C964 0.930 . S
H936 C945 0.930 . S
N937 Gd906 2.661 . S
N937 C941 1.350 . S
N937 C942 1.307 . S
C938 H930 0.930 . S
C938 C939 1.355 . S
C938 C940 1.412 . S
C939 H931 0.930 . S
C939 C938 1.355 . S
C939 C942 1.402 . S
C940 C938 1.412 . S
C940 C941 1.417 . S
C940 C964 1.431 . S
C941 N937 1.350 . S
C941 C940 1.417 . S
C941 C944 1.426 . S
C942 H925 0.930 . S
C942 N937 1.307 . S
C942 C939 1.402 . S
N943 Gd906 2.601 . S
N943 C944 1.359 . S
N943 C947 1.334 . S
C944 C941 1.426 . S
C944 N943 1.359 . S
C944 C948 1.413 . S
C945 H936 0.930 . S
C945 C946 1.359 . S
C945 C947 1.394 . S
C946 C945 1.359 . S
C946 C948 1.391 . S
C946 H949 0.929 . S
C947 H929 0.930 . S
C947 N943 1.334 . S
C947 C945 1.394 . S
C948 C944 1.413 . S
C948 C946 1.391 . S
C948 C963 1.437 . S
H949 C946 0.929 . S
O950 Gd906 2.545 . S
O950 C965 1.258 . S
O951 Gd906 2.606 . S
O951 Gd907 2.362 . S
O951 C962 1.284 . S
O952 Gd907 2.324 . S
O952 C972 1.254 . S
O953 Gd906 2.429 . S
O953 C972 1.268 . S
O954 Gd906 2.545 . S
O954 C962 1.250 . S
O955 Gd906 2.412 . S
O955 C965 1.252 . S
O956 Gd907 2.545 . S
O956 C974 1.258 . S
O957 Gd906 2.362 . S
O957 Gd907 2.606 . S
O957 C973 1.284 . S
O958 Gd906 2.324 . S
O958 C981 1.254 . S
O959 Gd907 2.429 . S
O959 C981 1.268 . S
O960 Gd907 2.545 . S
O960 C973 1.250 . S
O961 Gd907 2.412 . S
O961 C974 1.252 . S
C962 O951 1.284 . S
C962 O954 1.250 . S
C963 H932 0.929 . S
C963 C948 1.437 . S
C963 C964 1.317 . S
C964 H935 0.930 . S
C964 C940 1.431 . S
C964 C963 1.317 . S
C965 Gd906 2.828 . S
C965 O950 1.258 . S
C965 O955 1.252 . S
C965 C966 1.497 . S
C966 C965 1.497 . S
C966 C967 1.395 . S
C966 C968 1.380 . S
C967 C966 1.395 . S
C967 C970 1.398 . S
C967 H982 0.930 . S
C968 C966 1.380 . S
C968 C969 1.391 . S
C968 H983 0.930 . S
C969 C968 1.391 . S
C969 C971 1.387 . S
C970 C967 1.398 . S
C970 C971 1.380 . S
C970 H984 0.930 . S
C971 C969 1.387 . S
C971 C970 1.380 . S
C971 H985 0.930 . S
C972 O952 1.254 . S
C972 O953 1.268 . S
C973 O957 1.284 . S
C973 O960 1.250 . S
C974 Gd907 2.828 . S
C974 O956 1.258 . S
C974 O961 1.252 . S
C974 C975 1.497 . S
C975 C974 1.497 . S
C975 C976 1.395 . S
C975 C977 1.380 . S
C976 C975 1.395 . S
C976 C979 1.398 . S
C976 H986 0.930 . S
C977 C975 1.380 . S
C977 C978 1.391 . S
C977 H987 0.930 . S
C978 C977 1.391 . S
C978 C980 1.387 . S
C979 C976 1.398 . S
C979 C980 1.380 . S
C979 H988 0.930 . S
C980 C978 1.387 . S
C980 C979 1.380 . S
C980 H989 0.930 . S
C981 O958 1.254 . S
C981 O959 1.268 . S
H982 C967 0.930 . S
H983 C968 0.930 . S
H984 C970 0.930 . S
H985 C971 0.930 . S
H986 C976 0.930 . S
H987 C977 0.930 . S
H988 C979 0.930 . S
H989 C980 0.930 . S
C990 C991 1.391 . S
C990 C992 1.394 . S
C990 H1006 0.931 . S
C991 C990 1.391 . S
C991 C995 1.376 . S
C992 C990 1.394 . S
C992 C993 1.369 . S
C992 C996 1.531 . S
C993 C992 1.369 . S
C993 C994 1.410 . S
C993 C1001 1.503 . S
C994 C993 1.410 . S
C994 C995 1.392 . S
C994 C997 1.511 . S
C995 C991 1.376 . S
C995 C994 1.392 . S
C995 H1007 0.929 . S
C996 C992 1.531 . S
C996 H1008 0.960 . S
C996 H1009 0.962 . S
C996 H1010 0.960 . S
C997 C994 1.511 . S
C997 H1011 0.961 . S
C997 H1012 0.961 . S
C997 H1013 0.961 . S
C998 C999 1.370 . S
C998 C1000 1.363 . S
C998 H1014 0.931 . S
C999 C998 1.370 . S
C999 C1003 1.408 . S
C1000 C998 1.363 . S
C1000 C1001 1.370 . S
C1000 C1004 1.524 . S
C1001 C993 1.503 . S
C1001 C1000 1.370 . S
C1001 C1002 1.403 . S
C1002 C1001 1.403 . S
C1002 C1003 1.404 . S
C1002 C1005 1.539 . S
C1003 C999 1.408 . S
C1003 C1002 1.404 . S
C1003 H1015 0.930 . S
C1004 C1000 1.524 . S
C1004 H1016 0.956 . S
C1004 H1017 0.961 . S
C1004 H1018 0.961 . S
C1005 C1002 1.539 . S
C1005 H1019 0.958 . S
C1005 H1020 0.961 . S
C1005 H1021 0.960 . S
H1006 C990 0.931 . S
H1007 C995 0.929 . S
H1008 C996 0.960 . S
H1009 C996 0.962 . S
H1010 C996 0.960 . S
H1011 C997 0.961 . S
H1012 C997 0.961 . S
H1013 C997 0.961 . S
H1014 C998 0.931 . S
H1015 C1003 0.930 . S
H1016 C1004 0.956 . S
H1017 C1004 0.961 . S
H1018 C1004 0.961 . S
H1019 C1005 0.958 . S
H1020 C1005 0.961 . S
H1021 C1005 0.960 . S
C1022 C1023 1.391 . S
C1022 C1024 1.394 . S
C1022 H1038 0.931 . S
C1023 C1022 1.391 . S
C1023 C1027 1.376 . S
C1024 C1022 1.394 . S
C1024 C1025 1.369 . S
C1024 C1028 1.531 . S
C1025 C1024 1.369 . S
C1025 C1026 1.410 . S
C1025 C1033 1.503 . S
C1026 C1025 1.410 . S
C1026 C1027 1.392 . S
C1026 C1029 1.511 . S
C1027 C1023 1.376 . S
C1027 C1026 1.392 . S
C1027 H1039 0.929 . S
C1028 C1024 1.531 . S
C1028 H1040 0.960 . S
C1028 H1041 0.962 . S
C1028 H1042 0.960 . S
C1029 C1026 1.511 . S
C1029 H1043 0.961 . S
C1029 H1044 0.961 . S
C1029 H1045 0.961 . S
C1030 C1031 1.370 . S
C1030 C1032 1.363 . S
C1030 H1046 0.931 . S
C1031 C1030 1.370 . S
C1031 C1035 1.408 . S
C1032 C1030 1.363 . S
C1032 C1033 1.370 . S
C1032 C1036 1.524 . S
C1033 C1025 1.503 . S
C1033 C1032 1.370 . S
C1033 C1034 1.403 . S
C1034 C1033 1.403 . S
C1034 C1035 1.404 . S
C1034 C1037 1.539 . S
C1035 C1031 1.408 . S
C1035 C1034 1.404 . S
C1035 H1047 0.930 . S
C1036 C1032 1.524 . S
C1036 H1048 0.956 . S
C1036 H1049 0.961 . S
C1036 H1050 0.961 . S
C1037 C1034 1.539 . S
C1037 H1051 0.958 . S
C1037 H1052 0.961 . S
C1037 H1053 0.960 . S
H1038 C1022 0.931 . S
H1039 C1027 0.929 . S
H1040 C1028 0.960 . S
H1041 C1028 0.962 . S
H1042 C1028 0.960 . S
H1043 C1029 0.961 . S
H1044 C1029 0.961 . S
H1045 C1029 0.961 . S
H1046 C1030 0.931 . S
H1047 C1035 0.930 . S
H1048 C1036 0.956 . S
H1049 C1036 0.961 . S
H1050 C1036 0.961 . S
H1051 C1037 0.958 . S
H1052 C1037 0.961 . S
H1053 C1037 0.960 . S
C1054 C1055 1.391 . S
C1054 C1056 1.394 . S
C1054 H1070 0.931 . S
C1055 C1054 1.391 . S
C1055 C1059 1.376 . S
C1056 C1054 1.394 . S
C1056 C1057 1.369 . S
C1056 C1060 1.531 . S
C1057 C1056 1.369 . S
C1057 C1058 1.410 . S
C1057 C1065 1.503 . S
C1058 C1057 1.410 . S
C1058 C1059 1.392 . S
C1058 C1061 1.511 . S
C1059 C1055 1.376 . S
C1059 C1058 1.392 . S
C1059 H1071 0.929 . S
C1060 C1056 1.531 . S
C1060 H1072 0.960 . S
C1060 H1073 0.962 . S
C1060 H1074 0.960 . S
C1061 C1058 1.511 . S
C1061 H1075 0.961 . S
C1061 H1076 0.961 . S
C1061 H1077 0.961 . S
C1062 C1063 1.370 . S
C1062 C1064 1.363 . S
C1062 H1078 0.931 . S
C1063 C1062 1.370 . S
C1063 C1067 1.408 . S
C1064 C1062 1.363 . S
C1064 C1065 1.370 . S
C1064 C1068 1.524 . S
C1065 C1057 1.503 . S
C1065 C1064 1.370 . S
C1065 C1066 1.403 . S
C1066 C1065 1.403 . S
C1066 C1067 1.404 . S
C1066 C1069 1.539 . S
C1067 C1063 1.408 . S
C1067 C1066 1.404 . S
C1067 H1079 0.930 . S
C1068 C1064 1.524 . S
C1068 H1080 0.956 . S
C1068 H1081 0.961 . S
C1068 H1082 0.961 . S
C1069 C1066 1.539 . S
C1069 H1083 0.958 . S
C1069 H1084 0.961 . S
C1069 H1085 0.960 . S
H1070 C1054 0.931 . S
H1071 C1059 0.929 . S
H1072 C1060 0.960 . S
H1073 C1060 0.962 . S
H1074 C1060 0.960 . S
H1075 C1061 0.961 . S
H1076 C1061 0.961 . S
H1077 C1061 0.961 . S
H1078 C1062 0.931 . S
H1079 C1067 0.930 . S
H1080 C1068 0.956 . S
H1081 C1068 0.961 . S
H1082 C1068 0.961 . S
H1083 C1069 0.958 . S
H1084 C1069 0.961 . S
H1085 C1069 0.960 . S
C1086 C1087 1.391 . S
C1086 C1088 1.394 . S
C1086 H1102 0.933 . S
C1087 C1086 1.391 . S
C1087 C1091 1.376 . S
C1088 C1086 1.394 . S
C1088 C1089 1.369 . S
C1088 C1092 1.531 1_556 S
C1089 C1088 1.369 . S
C1089 C1090 1.410 . S
C1089 C1097 1.503 . S
C1090 C1089 1.410 . S
C1090 C1091 1.392 . S
C1090 C1093 1.511 . S
C1091 C1087 1.376 . S
C1091 C1090 1.392 . S
C1091 H1103 0.929 . S
C1092 C1088 1.531 1_554 S
C1092 H1104 0.960 . S
C1092 H1105 0.962 . S
C1092 H1106 0.960 . S
C1093 C1090 1.511 . S
C1093 H1107 0.961 . S
C1093 H1108 0.961 . S
C1093 H1109 0.961 . S
C1094 C1095 1.370 . S
C1094 C1096 1.363 . S
C1094 H1110 0.931 . S
C1095 C1094 1.370 . S
C1095 C1099 1.408 1_556 S
C1096 C1094 1.363 . S
C1096 C1097 1.370 . S
C1096 C1100 1.524 . S
C1097 C1089 1.503 . S
C1097 C1096 1.370 . S
C1097 C1098 1.403 1_556 S
C1098 C1097 1.403 1_554 S
C1098 C1099 1.404 . S
C1098 C1101 1.539 . S
C1099 C1095 1.408 1_554 S
C1099 C1098 1.404 . S
C1099 H1111 0.930 . S
C1100 C1096 1.524 . S
C1100 H1112 0.956 . S
C1100 H1113 0.961 . S
C1100 H1114 0.961 . S
C1101 C1098 1.539 . S
C1101 H1115 0.958 . S
C1101 H1116 0.961 . S
C1101 H1117 0.960 . S
H1102 C1086 0.933 . S
H1103 C1091 0.929 . S
H1104 C1092 0.960 . S
H1105 C1092 0.962 . S
H1106 C1092 0.960 . S
H1107 C1093 0.961 . S
H1108 C1093 0.961 . S
H1109 C1093 0.961 . S
H1110 C1094 0.931 . S
H1111 C1099 0.930 . S
H1112 C1100 0.956 . S
H1113 C1100 0.961 . S
H1114 C1100 0.961 . S
H1115 C1101 0.958 . S
H1116 C1101 0.961 . S
H1117 C1101 0.960 . S
C1118 C1119 1.391 . S
C1118 C1120 1.394 . S
C1118 H1134 0.931 . S
C1119 C1118 1.391 . S
C1119 C1123 1.376 . S
C1120 C1118 1.394 . S
C1120 C1121 1.369 . S
C1120 C1124 1.531 . S
C1121 C1120 1.369 . S
C1121 C1122 1.410 . S
C1121 C1129 1.503 . S
C1122 C1121 1.410 . S
C1122 C1123 1.392 . S
C1122 C1125 1.500 1_556 S
C1123 C1119 1.376 . S
C1123 C1122 1.392 . S
C1123 H1135 0.929 . S
C1124 C1120 1.531 . S
C1124 H1136 0.960 . S
C1124 H1137 0.962 . S
C1124 H1138 0.960 . S
C1125 C1122 1.500 1_554 S
C1125 H1139 0.972 . S
C1125 H1140 0.979 . S
C1125 H1141 0.944 1_554 S
C1126 C1127 1.370 . S
C1126 C1128 1.363 . S
C1126 H1142 0.931 . S
C1127 C1126 1.370 . S
C1127 C1131 1.408 1_554 S
C1128 C1126 1.363 . S
C1128 C1129 1.370 1_554 S
C1128 C1132 1.524 . S
C1129 C1121 1.503 . S
C1129 C1128 1.370 1_556 S
C1129 C1130 1.403 . S
C1130 C1129 1.403 . S
C1130 C1131 1.404 . S
C1130 C1133 1.539 . S
C1131 C1127 1.408 1_556 S
C1131 C1130 1.404 . S
C1131 H1143 0.930 . S
C1132 C1128 1.524 . S
C1132 H1144 0.956 . S
C1132 H1145 0.961 . S
C1132 H1146 0.961 . S
C1133 C1130 1.539 . S
C1133 H1147 0.958 . S
C1133 H1148 0.961 . S
C1133 H1149 0.960 . S
H1134 C1118 0.931 . S
H1135 C1123 0.929 . S
H1136 C1124 0.960 . S
H1137 C1124 0.962 . S
H1138 C1124 0.960 . S
H1139 C1125 0.972 . S
H1140 C1125 0.979 . S
H1141 C1125 0.944 1_556 S
H1142 C1126 0.931 . S
H1143 C1131 0.930 . S
H1144 C1132 0.956 . S
H1145 C1132 0.961 . S
H1146 C1132 0.961 . S
H1147 C1133 0.958 . S
H1148 C1133 0.961 . S
H1149 C1133 0.960 . S
C1150 C1151 1.391 . S
C1150 C1152 1.394 . S
C1150 H1166 0.931 . S
C1151 C1150 1.391 . S
C1151 C1155 1.376 . S
C1152 C1150 1.394 . S
C1152 C1153 1.369 . S
C1152 C1156 1.531 . S
C1153 C1152 1.369 . S
C1153 C1154 1.410 . S
C1153 C1161 1.503 . S
C1154 C1153 1.410 . S
C1154 C1155 1.392 . S
C1154 C1157 1.511 1_556 S
C1155 C1151 1.376 . S
C1155 C1154 1.392 . S
C1155 H1167 0.929 . S
C1156 C1152 1.531 . S
C1156 H1168 0.960 . S
C1156 H1169 0.962 . S
C1156 H1170 0.960 . S
C1157 C1154 1.511 1_554 S
C1157 H1171 0.961 . S
C1157 H1172 0.961 . S
C1157 H1173 0.961 . S
C1158 C1159 1.370 1_556 S
C1158 C1160 1.363 . S
C1158 H1174 0.931 . S
C1159 C1158 1.370 1_554 S
C1159 C1163 1.408 . S
C1160 C1158 1.363 . S
C1160 C1161 1.370 . S
C1160 C1164 1.524 . S
C1161 C1153 1.503 . S
C1161 C1160 1.370 . S
C1161 C1162 1.403 1_556 S
C1162 C1161 1.403 1_554 S
C1162 C1163 1.404 . S
C1162 C1165 1.539 . S
C1163 C1159 1.408 . S
C1163 C1162 1.404 . S
C1163 H1175 0.930 . S
C1164 C1160 1.524 . S
C1164 H1176 0.956 . S
C1164 H1177 0.961 . S
C1164 H1178 0.961 . S
C1165 C1162 1.539 . S
C1165 H1179 0.958 . S
C1165 H1180 0.961 . S
C1165 H1181 0.960 . S
H1166 C1150 0.931 . S
H1167 C1155 0.929 . S
H1168 C1156 0.960 . S
H1169 C1156 0.962 . S
H1170 C1156 0.960 . S
H1171 C1157 0.961 . S
H1172 C1157 0.961 . S
H1173 C1157 0.961 . S
H1174 C1158 0.931 . S
H1175 C1163 0.930 . S
H1176 C1164 0.956 . S
H1177 C1164 0.961 . S
H1178 C1164 0.961 . S
H1179 C1165 0.958 . S
H1180 C1165 0.961 . S
H1181 C1165 0.960 . S
C1182 C1183 1.391 . S
C1182 C1184 1.394 . S
C1182 H1198 0.931 . S
C1183 C1182 1.391 . S
C1183 C1187 1.376 . S
C1184 C1182 1.394 . S
C1184 C1185 1.369 . S
C1184 C1188 1.531 . S
C1185 C1184 1.369 . S
C1185 C1186 1.410 . S
C1185 C1193 1.503 . S
C1186 C1185 1.410 . S
C1186 C1187 1.392 . S
C1186 C1189 1.511 . S
C1187 C1183 1.376 . S
C1187 C1186 1.392 . S
C1187 H1199 0.929 . S
C1188 C1184 1.531 . S
C1188 H1200 0.960 . S
C1188 H1201 0.962 . S
C1188 H1202 0.960 . S
C1189 C1186 1.511 . S
C1189 H1203 0.961 . S
C1189 H1204 0.961 . S
C1189 H1205 0.961 . S
C1190 C1191 1.370 . S
C1190 C1192 1.363 . S
C1190 H1206 0.931 . S
C1191 C1190 1.370 . S
C1191 C1195 1.408 1_554 S
C1192 C1190 1.363 . S
C1192 C1193 1.370 1_554 S
C1192 C1196 1.524 . S
C1193 C1185 1.503 . S
C1193 C1192 1.370 1_556 S
C1193 C1194 1.403 . S
C1194 C1193 1.403 . S
C1194 C1195 1.404 . S
C1194 C1197 1.539 . S
C1195 C1191 1.408 1_556 S
C1195 C1194 1.404 . S
C1195 H1207 0.930 . S
C1196 C1192 1.524 . S
C1196 H1208 0.956 . S
C1196 H1209 0.961 . S
C1196 H1210 0.961 . S
C1197 C1194 1.539 . S
C1197 H1211 0.958 . S
C1197 H1212 0.961 . S
C1197 H1213 0.960 . S
H1198 C1182 0.931 . S
H1199 C1187 0.929 . S
H1200 C1188 0.960 . S
H1201 C1188 0.962 . S
H1202 C1188 0.960 . S
H1203 C1189 0.961 . S
H1204 C1189 0.961 . S
H1205 C1189 0.961 . S
H1206 C1190 0.931 . S
H1207 C1195 0.930 . S
H1208 C1196 0.956 . S
H1209 C1196 0.961 . S
H1210 C1196 0.961 . S
H1211 C1197 0.958 . S
H1212 C1197 0.961 . S
H1213 C1197 0.960 . S
C1214 C1215 1.391 . S
C1214 C1216 1.394 . S
C1214 H1230 0.931 . S
C1215 C1214 1.391 . S
C1215 C1219 1.376 . S
C1216 C1214 1.394 . S
C1216 C1217 1.369 . S
C1216 C1220 1.531 1_556 S
C1217 C1216 1.369 . S
C1217 C1218 1.410 . S
C1217 C1225 1.503 . S
C1218 C1217 1.410 . S
C1218 C1219 1.392 . S
C1218 C1221 1.511 . S
C1219 C1215 1.376 . S
C1219 C1218 1.392 . S
C1219 H1231 0.929 . S
C1220 C1216 1.531 1_554 S
C1220 H1232 0.960 . S
C1220 H1233 0.962 . S
C1220 H1234 0.960 . S
C1221 C1218 1.511 . S
C1221 H1235 0.961 . S
C1221 H1236 0.961 . S
C1221 H1237 0.961 . S
C1222 C1223 1.370 . S
C1222 C1224 1.363 . S
C1222 H1238 0.931 . S
C1223 C1222 1.370 . S
C1223 C1227 1.408 . S
C1224 C1222 1.363 . S
C1224 C1225 1.370 . S
C1224 C1228 1.524 . S
C1225 C1217 1.503 . S
C1225 C1224 1.370 . S
C1225 C1226 1.403 . S
C1226 C1225 1.403 . S
C1226 C1227 1.404 . S
C1226 C1229 1.539 . S
C1227 C1223 1.408 . S
C1227 C1226 1.404 . S
C1227 H1239 0.930 . S
C1228 C1224 1.524 . S
C1228 H1240 0.956 . S
C1228 H1241 0.961 . S
C1228 H1242 0.961 . S
C1229 C1226 1.539 . S
C1229 H1243 0.958 . S
C1229 H1244 0.961 . S
C1229 H1245 0.960 . S
H1230 C1214 0.931 . S
H1231 C1219 0.929 . S
H1232 C1220 0.960 . S
H1233 C1220 0.962 . S
H1234 C1220 0.960 . S
H1235 C1221 0.961 . S
H1236 C1221 0.961 . S
H1237 C1221 0.961 . S
H1238 C1222 0.931 . S
H1239 C1227 0.930 . S
H1240 C1228 0.956 . S
H1241 C1228 0.961 . S
H1242 C1228 0.961 . S
H1243 C1229 0.958 . S
H1244 C1229 0.961 . S
H1245 C1229 0.960 . S
C1246 C1247 1.391 . S
C1246 C1248 1.410 . S
C1246 H1262 0.931 . S
C1247 C1246 1.391 . S
C1247 C1251 1.376 . S
C1248 C1246 1.410 . S
C1248 C1249 1.371 . S
C1248 C1252 1.517 1_556 S
C1249 C1248 1.371 . S
C1249 C1250 1.431 . S
C1249 C1257 1.484 1_556 S
C1250 C1249 1.431 . S
C1250 C1251 1.392 . S
C1250 C1253 1.511 . S
C1251 C1247 1.376 . S
C1251 C1250 1.392 . S
C1251 H1263 0.929 . S
C1252 C1248 1.517 1_554 S
C1252 H1264 0.960 . S
C1252 H1265 0.962 1_554 S
C1252 H1266 0.960 . S
C1253 C1250 1.511 . S
C1253 H1267 0.961 . S
C1253 H1268 0.961 . S
C1253 H1269 0.961 1_556 S
C1254 C1255 1.370 1_556 S
C1254 C1256 1.363 . S
C1254 H1270 0.931 . S
C1255 C1254 1.370 1_554 S
C1255 C1259 1.408 . S
C1256 C1254 1.363 . S
C1256 C1257 1.370 1_556 S
C1256 C1260 1.524 . S
C1257 C1249 1.484 1_554 S
C1257 C1256 1.370 1_554 S
C1257 C1258 1.403 . S
C1258 C1257 1.403 . S
C1258 C1259 1.404 . S
C1258 C1261 1.539 . S
C1259 C1255 1.408 . S
C1259 C1258 1.404 . S
C1259 H1271 0.930 . S
C1260 C1256 1.524 . S
C1260 H1272 0.956 . S
C1260 H1273 0.961 . S
C1260 H1274 0.961 . S
C1261 C1258 1.539 . S
C1261 H1275 0.958 . S
C1261 H1276 0.961 . S
C1261 H1277 0.960 . S
H1262 C1246 0.931 . S
H1263 C1251 0.929 . S
H1264 C1252 0.960 . S
H1265 C1252 0.962 1_556 S
H1266 C1252 0.960 . S
H1267 C1253 0.961 . S
H1268 C1253 0.961 . S
H1269 C1253 0.961 1_554 S
H1270 C1254 0.931 . S
H1271 C1259 0.930 . S
H1272 C1260 0.956 . S
H1273 C1260 0.961 . S
H1274 C1260 0.961 . S
H1275 C1261 0.958 . S
H1276 C1261 0.961 . S
H1277 C1261 0.960 . S
C1278 C1279 1.391 . S
C1278 C1280 1.394 . S
C1278 H1294 0.931 . S
C1279 C1278 1.391 . S
C1279 C1283 1.376 . S
C1280 C1278 1.394 . S
C1280 C1281 1.369 . S
C1280 C1284 1.531 . S
C1281 C1280 1.369 . S
C1281 C1282 1.410 . S
C1281 C1289 1.503 . S
C1282 C1281 1.410 . S
C1282 C1283 1.392 . S
C1282 C1285 1.511 . S
C1283 C1279 1.376 . S
C1283 C1282 1.392 . S
C1283 H1295 0.929 . S
C1284 C1280 1.531 . S
C1284 H1296 0.960 . S
C1284 H1297 0.962 . S
C1284 H1298 0.960 . S
C1285 C1282 1.511 . S
C1285 H1299 0.961 . S
C1285 H1300 0.961 . S
C1285 H1301 0.961 . S
C1286 C1287 1.370 . S
C1286 C1288 1.363 . S
C1286 H1302 0.931 . S
C1287 C1286 1.370 . S
C1287 C1291 1.408 . S
C1288 C1286 1.363 . S
C1288 C1289 1.370 . S
C1288 C1292 1.524 . S
C1289 C1281 1.503 . S
C1289 C1288 1.370 . S
C1289 C1290 1.403 . S
C1290 C1289 1.403 . S
C1290 C1291 1.404 . S
C1290 C1293 1.539 1_554 S
C1291 C1287 1.408 . S
C1291 C1290 1.404 . S
C1291 H1303 0.930 1_554 S
C1292 C1288 1.524 . S
C1292 H1304 0.956 . S
C1292 H1305 0.961 . S
C1292 H1306 0.961 . S
C1293 C1290 1.539 1_556 S
C1293 H1307 0.958 . S
C1293 H1308 0.961 . S
C1293 H1309 0.960 1_556 S
H1294 C1278 0.931 . S
H1295 C1283 0.929 . S
H1296 C1284 0.960 . S
H1297 C1284 0.962 . S
H1298 C1284 0.960 . S
H1299 C1285 0.961 . S
H1300 C1285 0.961 . S
H1301 C1285 0.961 . S
H1302 C1286 0.931 . S
H1303 C1291 0.930 1_556 S
H1304 C1292 0.956 . S
H1305 C1292 0.961 . S
H1306 C1292 0.961 . S
H1307 C1293 0.958 . S
H1308 C1293 0.961 . S
H1309 C1293 0.960 1_554 S
C1310 C1311 1.391 . S
C1310 C1312 1.394 . S
C1310 H1326 0.931 . S
C1311 C1310 1.391 . S
C1311 C1315 1.376 . S
C1312 C1310 1.394 . S
C1312 C1313 1.369 . S
C1312 C1316 1.531 . S
C1313 C1312 1.369 . S
C1313 C1314 1.410 . S
C1313 C1321 1.503 . S
C1314 C1313 1.410 . S
C1314 C1315 1.392 . S
C1314 C1317 1.511 . S
C1315 C1311 1.376 . S
C1315 C1314 1.392 . S
C1315 H1327 0.929 . S
C1316 C1312 1.531 . S
C1316 H1328 0.960 . S
C1316 H1329 0.962 . S
C1316 H1330 0.960 . S
C1317 C1314 1.511 . S
C1317 H1331 0.961 . S
C1317 H1332 0.961 . S
C1317 H1333 0.961 . S
C1318 C1319 1.370 . S
C1318 C1320 1.363 . S
C1318 H1334 0.931 . S
C1319 C1318 1.370 . S
C1319 C1323 1.408 . S
C1320 C1318 1.363 . S
C1320 C1321 1.370 . S
C1320 C1324 1.524 . S
C1321 C1313 1.503 . S
C1321 C1320 1.370 . S
C1321 C1322 1.403 . S
C1322 C1321 1.403 . S
C1322 C1323 1.404 . S
C1322 C1325 1.539 . S
C1323 C1319 1.408 . S
C1323 C1322 1.404 . S
C1323 H1335 0.930 . S
C1324 C1320 1.524 . S
C1324 H1336 0.956 . S
C1324 H1337 0.961 . S
C1324 H1338 0.961 . S
C1325 C1322 1.539 . S
C1325 H1339 0.958 . S
C1325 H1340 0.961 . S
C1325 H1341 0.960 . S
H1326 C1310 0.931 . S
H1327 C1315 0.929 . S
H1328 C1316 0.960 . S
H1329 C1316 0.962 . S
H1330 C1316 0.960 . S
H1331 C1317 0.961 . S
H1332 C1317 0.961 . S
H1333 C1317 0.961 . S
H1334 C1318 0.931 . S
H1335 C1323 0.930 . S
H1336 C1324 0.956 . S
H1337 C1324 0.961 . S
H1338 C1324 0.961 . S
H1339 C1325 0.958 . S
H1340 C1325 0.961 . S
H1341 C1325 0.960 . S
C1342 C1343 1.391 . S
C1342 C1344 1.394 . S
C1342 H1358 0.931 . S
C1343 C1342 1.391 . S
C1343 C1347 1.376 . S
C1344 C1342 1.394 . S
C1344 C1345 1.369 . S
C1344 C1348 1.531 . S
C1345 C1344 1.369 . S
C1345 C1346 1.410 . S
C1345 C1353 1.503 . S
C1346 C1345 1.410 . S
C1346 C1347 1.392 . S
C1346 C1349 1.511 . S
C1347 C1343 1.376 . S
C1347 C1346 1.392 . S
C1347 H1359 0.929 . S
C1348 C1344 1.531 . S
C1348 H1360 0.960 . S
C1348 H1361 0.962 . S
C1348 H1362 0.960 . S
C1349 C1346 1.511 . S
C1349 H1363 0.961 . S
C1349 H1364 0.961 . S
C1349 H1365 0.961 . S
C1350 C1351 1.370 . S
C1350 C1352 1.363 . S
C1350 H1366 0.931 . S
C1351 C1350 1.370 . S
C1351 C1355 1.408 . S
C1352 C1350 1.363 . S
C1352 C1353 1.370 . S
C1352 C1356 1.524 . S
C1353 C1345 1.503 . S
C1353 C1352 1.370 . S
C1353 C1354 1.403 . S
C1354 C1353 1.403 . S
C1354 C1355 1.404 . S
C1354 C1357 1.539 . S
C1355 C1351 1.408 . S
C1355 C1354 1.404 . S
C1355 H1367 0.930 . S
C1356 C1352 1.524 . S
C1356 H1368 0.956 . S
C1356 H1369 0.961 . S
C1356 H1370 0.961 . S
C1357 C1354 1.539 . S
C1357 H1371 0.958 . S
C1357 H1372 0.961 . S
C1357 H1373 0.960 . S
H1358 C1342 0.931 . S
H1359 C1347 0.929 . S
H1360 C1348 0.960 . S
H1361 C1348 0.962 . S
H1362 C1348 0.960 . S
H1363 C1349 0.961 . S
H1364 C1349 0.961 . S
H1365 C1349 0.961 . S
H1366 C1350 0.931 . S
H1367 C1355 0.930 . S
H1368 C1356 0.956 . S
H1369 C1356 0.961 . S
H1370 C1356 0.961 . S
H1371 C1357 0.958 . S
H1372 C1357 0.961 . S
H1373 C1357 0.960 . S
C1374 C1375 1.391 . S
C1374 C1376 1.394 . S
C1374 H1390 0.931 . S
C1375 C1374 1.391 . S
C1375 C1379 1.376 . S
C1376 C1374 1.394 . S
C1376 C1377 1.369 . S
C1376 C1380 1.531 . S
C1377 C1376 1.369 . S
C1377 C1378 1.410 . S
C1377 C1385 1.503 1_655 S
C1378 C1377 1.410 . S
C1378 C1379 1.392 . S
C1378 C1381 1.511 1_655 S
C1379 C1375 1.376 . S
C1379 C1378 1.392 . S
C1379 H1391 0.929 . S
C1380 C1376 1.531 . S
C1380 H1392 0.960 1_655 S
C1380 H1393 0.962 . S
C1380 H1394 0.960 . S
C1381 C1378 1.511 1_455 S
C1381 H1395 0.961 . S
C1381 H1396 0.961 . S
C1381 H1397 0.961 . S
C1382 C1383 1.370 . S
C1382 C1384 1.363 . S
C1382 H1398 0.931 . S
C1383 C1382 1.370 . S
C1383 C1387 1.408 . S
C1384 C1382 1.363 . S
C1384 C1385 1.370 . S
C1384 C1388 1.524 . S
C1385 C1377 1.503 1_455 S
C1385 C1384 1.370 . S
C1385 C1386 1.403 . S
C1386 C1385 1.403 . S
C1386 C1387 1.404 . S
C1386 C1389 1.539 . S
C1387 C1383 1.408 . S
C1387 C1386 1.404 . S
C1387 H1399 0.930 . S
C1388 C1384 1.524 . S
C1388 H1400 0.956 . S
C1388 H1401 0.961 . S
C1388 H1402 0.961 . S
C1389 C1386 1.539 . S
C1389 H1403 0.958 . S
C1389 H1404 0.961 . S
C1389 H1405 0.960 . S
H1390 C1374 0.931 . S
H1391 C1379 0.929 . S
H1392 C1380 0.960 1_455 S
H1393 C1380 0.962 . S
H1394 C1380 0.960 . S
H1395 C1381 0.961 . S
H1396 C1381 0.961 . S
H1397 C1381 0.961 . S
H1398 C1382 0.931 . S
H1399 C1387 0.930 . S
H1400 C1388 0.956 . S
H1401 C1388 0.961 . S
H1402 C1388 0.961 . S
H1403 C1389 0.958 . S
H1404 C1389 0.961 . S
H1405 C1389 0.960 . S
C1406 C1407 1.391 . S
C1406 C1408 1.394 . S
C1406 H1422 0.931 . S
C1407 C1406 1.391 . S
C1407 C1411 1.376 . S
C1408 C1406 1.394 . S
C1408 C1409 1.369 . S
C1408 C1412 1.531 . S
C1409 C1408 1.369 . S
C1409 C1410 1.410 . S
C1409 C1417 1.503 . S
C1410 C1409 1.410 . S
C1410 C1411 1.392 . S
C1410 C1413 1.511 . S
C1411 C1407 1.376 . S
C1411 C1410 1.392 . S
C1411 H1423 0.929 . S
C1412 C1408 1.531 . S
C1412 H1424 0.960 . S
C1412 H1425 0.962 . S
C1412 H1426 0.960 . S
C1413 C1410 1.511 . S
C1413 H1427 0.961 . S
C1413 H1428 0.961 . S
C1413 H1429 0.961 . S
C1414 C1415 1.370 . S
C1414 C1416 1.363 . S
C1414 H1430 0.931 . S
C1415 C1414 1.370 . S
C1415 C1419 1.408 . S
C1416 C1414 1.363 . S
C1416 C1417 1.370 . S
C1416 C1420 1.524 . S
C1417 C1409 1.503 . S
C1417 C1416 1.370 . S
C1417 C1418 1.403 . S
C1418 C1417 1.403 . S
C1418 C1419 1.404 . S
C1418 C1421 1.539 . S
C1419 C1415 1.408 . S
C1419 C1418 1.404 . S
C1419 H1431 0.930 . S
C1420 C1416 1.524 . S
C1420 H1432 0.956 . S
C1420 H1433 0.961 . S
C1420 H1434 0.961 . S
C1421 C1418 1.539 . S
C1421 H1435 0.958 . S
C1421 H1436 0.961 . S
C1421 H1437 0.960 . S
H1422 C1406 0.931 . S
H1423 C1411 0.929 . S
H1424 C1412 0.960 . S
H1425 C1412 0.962 . S
H1426 C1412 0.960 . S
H1427 C1413 0.961 . S
H1428 C1413 0.961 . S
H1429 C1413 0.961 . S
H1430 C1414 0.931 . S
H1431 C1419 0.930 . S
H1432 C1420 0.956 . S
H1433 C1420 0.961 . S
H1434 C1420 0.961 . S
H1435 C1421 0.958 . S
H1436 C1421 0.961 . S
H1437 C1421 0.960 . S
C1438 C1439 1.391 . S
C1438 C1440 1.394 . S
C1438 H1454 0.931 . S
C1439 C1438 1.391 . S
C1439 C1443 1.376 . S
C1440 C1438 1.394 . S
C1440 C1441 1.369 1_545 S
C1440 C1444 1.531 . S
C1441 C1440 1.369 1_565 S
C1441 C1442 1.410 . S
C1441 C1449 1.503 . S
C1442 C1441 1.410 . S
C1442 C1443 1.392 1_565 S
C1442 C1445 1.511 . S
C1443 C1439 1.376 . S
C1443 C1442 1.392 1_545 S
C1443 H1455 0.929 . S
C1444 C1440 1.531 . S
C1444 H1456 0.960 1_545 S
C1444 H1457 0.962 . S
C1444 H1458 0.960 . S
C1445 C1442 1.511 . S
C1445 H1459 0.961 . S
C1445 H1460 0.961 . S
C1445 H1461 0.961 . S
C1446 C1447 1.370 . S
C1446 C1448 1.363 . S
C1446 H1462 0.931 . S
C1447 C1446 1.370 . S
C1447 C1451 1.408 . S
C1448 C1446 1.363 . S
C1448 C1449 1.370 . S
C1448 C1452 1.524 . S
C1449 C1441 1.503 . S
C1449 C1448 1.370 . S
C1449 C1450 1.403 . S
C1450 C1449 1.403 . S
C1450 C1451 1.404 . S
C1450 C1453 1.539 . S
C1451 C1447 1.408 . S
C1451 C1450 1.404 . S
C1451 H1463 0.930 . S
C1452 C1448 1.524 . S
C1452 H1464 0.956 . S
C1452 H1465 0.961 . S
C1452 H1466 0.961 . S
C1453 C1450 1.539 . S
C1453 H1467 0.958 . S
C1453 H1468 0.961 . S
C1453 H1469 0.960 . S
H1454 C1438 0.931 . S
H1455 C1443 0.929 . S
H1456 C1444 0.960 1_565 S
H1457 C1444 0.962 . S
H1458 C1444 0.960 . S
H1459 C1445 0.961 . S
H1460 C1445 0.961 . S
H1461 C1445 0.961 . S
H1462 C1446 0.931 . S
H1463 C1451 0.930 . S
H1464 C1452 0.956 . S
H1465 C1452 0.961 . S
H1466 C1452 0.961 . S
H1467 C1453 0.958 . S
H1468 C1453 0.961 . S
H1469 C1453 0.960 . S
C1470 C1471 1.391 . S
C1470 C1472 1.394 . S
C1470 H1486 0.931 . S
C1471 C1470 1.391 . S
C1471 C1475 1.376 . S
C1472 C1470 1.394 . S
C1472 C1473 1.369 . S
C1472 C1476 1.531 . S
C1473 C1472 1.369 . S
C1473 C1474 1.410 . S
C1473 C1481 1.503 . S
C1474 C1473 1.410 . S
C1474 C1475 1.392 . S
C1474 C1477 1.511 . S
C1475 C1471 1.376 . S
C1475 C1474 1.392 . S
C1475 H1487 0.929 . S
C1476 C1472 1.531 . S
C1476 H1488 0.960 . S
C1476 H1489 0.962 . S
C1476 H1490 0.960 . S
C1477 C1474 1.511 . S
C1477 H1491 0.961 . S
C1477 H1492 0.961 . S
C1477 H1493 0.961 . S
C1478 C1479 1.370 . S
C1478 C1480 1.363 . S
C1478 H1494 0.931 . S
C1479 C1478 1.370 . S
C1479 C1483 1.408 . S
C1480 C1478 1.363 . S
C1480 C1481 1.370 . S
C1480 C1484 1.524 . S
C1481 C1473 1.503 . S
C1481 C1480 1.370 . S
C1481 C1482 1.403 . S
C1482 C1481 1.403 . S
C1482 C1483 1.404 . S
C1482 C1485 1.539 . S
C1483 C1479 1.408 . S
C1483 C1482 1.404 . S
C1483 H1495 0.930 . S
C1484 C1480 1.524 . S
C1484 H1496 0.956 . S
C1484 H1497 0.961 . S
C1484 H1498 0.961 . S
C1485 C1482 1.539 . S
C1485 H1499 0.958 . S
C1485 H1500 0.961 . S
C1485 H1501 0.960 . S
H1486 C1470 0.931 . S
H1487 C1475 0.929 . S
H1488 C1476 0.960 . S
H1489 C1476 0.962 . S
H1490 C1476 0.960 . S
H1491 C1477 0.961 . S
H1492 C1477 0.961 . S
H1493 C1477 0.961 . S
H1494 C1478 0.931 . S
H1495 C1483 0.930 . S
H1496 C1484 0.956 . S
H1497 C1484 0.961 . S
H1498 C1484 0.961 . S
H1499 C1485 0.958 . S
H1500 C1485 0.961 . S
H1501 C1485 0.960 . S
C1502 C1503 1.391 . S
C1502 C1504 1.394 . S
C1502 H1518 0.931 . S
C1503 C1502 1.391 . S
C1503 C1507 1.376 . S
C1504 C1502 1.394 . S
C1504 C1505 1.369 . S
C1504 C1508 1.531 . S
C1505 C1504 1.369 . S
C1505 C1506 1.410 . S
C1505 C1513 1.503 . S
C1506 C1505 1.410 . S
C1506 C1507 1.392 . S
C1506 C1509 1.511 . S
C1507 C1503 1.376 . S
C1507 C1506 1.392 . S
C1507 H1519 0.929 . S
C1508 C1504 1.531 . S
C1508 H1520 0.960 . S
C1508 H1521 0.962 . S
C1508 H1522 0.960 . S
C1509 C1506 1.511 . S
C1509 H1523 0.961 . S
C1509 H1524 0.961 . S
C1509 H1525 0.961 . S
C1510 C1511 1.370 . S
C1510 C1512 1.363 . S
C1510 H1526 0.931 . S
C1511 C1510 1.370 . S
C1511 C1515 1.408 . S
C1512 C1510 1.363 . S
C1512 C1513 1.370 . S
C1512 C1516 1.524 . S
C1513 C1505 1.503 . S
C1513 C1512 1.370 . S
C1513 C1514 1.403 . S
C1514 C1513 1.403 . S
C1514 C1515 1.404 . S
C1514 C1517 1.539 . S
C1515 C1511 1.408 . S
C1515 C1514 1.404 . S
C1515 H1527 0.930 . S
C1516 C1512 1.524 . S
C1516 H1528 0.956 . S
C1516 H1529 0.961 . S
C1516 H1530 0.961 . S
C1517 C1514 1.539 . S
C1517 H1531 0.958 . S
C1517 H1532 0.961 . S
C1517 H1533 0.960 . S
H1518 C1502 0.931 . S
H1519 C1507 0.929 . S
H1520 C1508 0.960 . S
H1521 C1508 0.962 . S
H1522 C1508 0.960 . S
H1523 C1509 0.961 . S
H1524 C1509 0.961 . S
H1525 C1509 0.961 . S
H1526 C1510 0.931 . S
H1527 C1515 0.930 . S
H1528 C1516 0.956 . S
H1529 C1516 0.961 . S
H1530 C1516 0.961 . S
H1531 C1517 0.958 . S
H1532 C1517 0.961 . S
H1533 C1517 0.960 . S
C1534 C1535 1.391 . S
C1534 C1536 1.394 . S
C1534 H1550 0.931 . S
C1535 C1534 1.391 . S
C1535 C1539 1.376 . S
C1536 C1534 1.394 . S
C1536 C1537 1.369 . S
C1536 C1540 1.531 . S
C1537 C1536 1.369 . S
C1537 C1538 1.410 . S
C1537 C1545 1.503 . S
C1538 C1537 1.410 . S
C1538 C1539 1.392 . S
C1538 C1541 1.511 . S
C1539 C1535 1.376 . S
C1539 C1538 1.392 . S
C1539 H1551 0.929 . S
C1540 C1536 1.531 . S
C1540 H1552 0.960 . S
C1540 H1553 0.962 . S
C1540 H1554 0.960 . S
C1541 C1538 1.511 . S
C1541 H1555 0.961 . S
C1541 H1556 0.961 . S
C1541 H1557 0.961 . S
C1542 C1543 1.370 . S
C1542 C1544 1.363 . S
C1542 H1558 0.931 . S
C1543 C1542 1.370 . S
C1543 C1547 1.408 . S
C1544 C1542 1.363 . S
C1544 C1545 1.370 . S
C1544 C1548 1.524 . S
C1545 C1537 1.503 . S
C1545 C1544 1.370 . S
C1545 C1546 1.403 . S
C1546 C1545 1.403 . S
C1546 C1547 1.404 . S
C1546 C1549 1.539 . S
C1547 C1543 1.408 . S
C1547 C1546 1.404 . S
C1547 H1559 0.930 . S
C1548 C1544 1.524 . S
C1548 H1560 0.956 . S
C1548 H1561 0.961 . S
C1548 H1562 0.961 . S
C1549 C1546 1.539 . S
C1549 H1563 0.958 . S
C1549 H1564 0.961 . S
C1549 H1565 0.960 . S
H1550 C1534 0.931 . S
H1551 C1539 0.929 . S
H1552 C1540 0.960 . S
H1553 C1540 0.962 . S
H1554 C1540 0.960 . S
H1555 C1541 0.961 . S
H1556 C1541 0.961 . S
H1557 C1541 0.961 . S
H1558 C1542 0.931 . S
H1559 C1547 0.930 . S
H1560 C1548 0.956 . S
H1561 C1548 0.961 . S
H1562 C1548 0.961 . S
H1563 C1549 0.958 . S
H1564 C1549 0.961 . S
H1565 C1549 0.960 . S
C1566 C1567 1.391 . S
C1566 C1568 1.394 . S
C1566 H1582 0.931 . S
C1567 C1566 1.391 . S
C1567 C1571 1.376 . S
C1568 C1566 1.394 . S
C1568 C1569 1.369 . S
C1568 C1572 1.531 . S
C1569 C1568 1.369 . S
C1569 C1570 1.410 . S
C1569 C1577 1.503 . S
C1570 C1569 1.410 . S
C1570 C1571 1.392 . S
C1570 C1573 1.511 . S
C1571 C1567 1.376 . S
C1571 C1570 1.392 . S
C1571 H1583 0.929 . S
C1572 C1568 1.531 . S
C1572 H1584 0.960 . S
C1572 H1585 0.962 . S
C1572 H1586 0.960 . S
C1573 C1570 1.511 . S
C1573 H1587 0.961 . S
C1573 H1588 0.961 . S
C1573 H1589 0.961 . S
C1574 C1575 1.370 . S
C1574 C1576 1.363 . S
C1574 H1590 0.931 . S
C1575 C1574 1.370 . S
C1575 C1579 1.408 . S
C1576 C1574 1.363 . S
C1576 C1577 1.370 . S
C1576 C1580 1.524 . S
C1577 C1569 1.503 . S
C1577 C1576 1.370 . S
C1577 C1578 1.403 . S
C1578 C1577 1.403 . S
C1578 C1579 1.404 . S
C1578 C1581 1.539 . S
C1579 C1575 1.408 . S
C1579 C1578 1.404 . S
C1579 H1591 0.930 . S
C1580 C1576 1.524 . S
C1580 H1592 0.956 . S
C1580 H1593 0.961 . S
C1580 H1594 0.961 . S
C1581 C1578 1.539 . S
C1581 H1595 0.958 . S
C1581 H1596 0.961 . S
C1581 H1597 0.960 . S
H1582 C1566 0.931 . S
H1583 C1571 0.929 . S
H1584 C1572 0.960 . S
H1585 C1572 0.962 . S
H1586 C1572 0.960 . S
H1587 C1573 0.961 . S
H1588 C1573 0.961 . S
H1589 C1573 0.961 . S
H1590 C1574 0.931 . S
H1591 C1579 0.930 . S
H1592 C1580 0.956 . S
H1593 C1580 0.961 . S
H1594 C1580 0.961 . S
H1595 C1581 0.958 . S
H1596 C1581 0.961 . S
H1597 C1581 0.960 . S
C1598 C1599 1.391 . S
C1598 C1600 1.394 . S
C1598 H1614 0.931 . S
C1599 C1598 1.391 . S
C1599 C1603 1.376 . S
C1600 C1598 1.394 . S
C1600 C1601 1.369 . S
C1600 C1604 1.531 . S
C1601 C1600 1.369 . S
C1601 C1602 1.410 . S
C1601 C1609 1.503 . S
C1602 C1601 1.410 . S
C1602 C1603 1.392 . S
C1602 C1605 1.511 . S
C1603 C1599 1.376 . S
C1603 C1602 1.392 . S
C1603 H1615 0.929 . S
C1604 C1600 1.531 . S
C1604 H1616 0.960 . S
C1604 H1617 0.962 . S
C1604 H1618 0.960 . S
C1605 C1602 1.511 . S
C1605 H1619 0.961 . S
C1605 H1620 0.961 . S
C1605 H1621 0.961 . S
C1606 C1607 1.370 . S
C1606 C1608 1.363 . S
C1606 H1622 0.931 . S
C1607 C1606 1.370 . S
C1607 C1611 1.408 . S
C1608 C1606 1.363 . S
C1608 C1609 1.370 . S
C1608 C1612 1.524 . S
C1609 C1601 1.503 . S
C1609 C1608 1.370 . S
C1609 C1610 1.403 . S
C1610 C1609 1.403 . S
C1610 C1611 1.404 . S
C1610 C1613 1.539 . S
C1611 C1607 1.408 . S
C1611 C1610 1.404 . S
C1611 H1623 0.930 . S
C1612 C1608 1.524 . S
C1612 H1624 0.956 . S
C1612 H1625 0.961 . S
C1612 H1626 0.961 . S
C1613 C1610 1.539 . S
C1613 H1627 0.958 . S
C1613 H1628 0.961 . S
C1613 H1629 0.960 . S
H1614 C1598 0.931 . S
H1615 C1603 0.929 . S
H1616 C1604 0.960 . S
H1617 C1604 0.962 . S
H1618 C1604 0.960 . S
H1619 C1605 0.961 . S
H1620 C1605 0.961 . S
H1621 C1605 0.961 . S
H1622 C1606 0.931 . S
H1623 C1611 0.930 . S
H1624 C1612 0.956 . S
H1625 C1612 0.961 . S
H1626 C1612 0.961 . S
H1627 C1613 0.958 . S
H1628 C1613 0.961 . S
H1629 C1613 0.960 . S
C1630 C1631 1.391 . S
C1630 C1632 1.394 . S
C1630 H1646 0.931 . S
C1631 C1630 1.391 . S
C1631 C1635 1.376 . S
C1632 C1630 1.394 . S
C1632 C1633 1.369 . S
C1632 C1636 1.531 . S
C1633 C1632 1.369 . S
C1633 C1634 1.410 . S
C1633 C1641 1.503 . S
C1634 C1633 1.410 . S
C1634 C1635 1.392 . S
C1634 C1637 1.511 . S
C1635 C1631 1.376 . S
C1635 C1634 1.392 . S
C1635 H1647 0.929 . S
C1636 C1632 1.531 . S
C1636 H1648 0.960 . S
C1636 H1649 0.962 . S
C1636 H1650 0.960 . S
C1637 C1634 1.511 . S
C1637 H1651 0.961 . S
C1637 H1652 0.961 . S
C1637 H1653 0.961 . S
C1638 C1639 1.370 . S
C1638 C1640 1.363 . S
C1638 H1654 0.931 . S
C1639 C1638 1.370 . S
C1639 C1643 1.408 . S
C1640 C1638 1.363 . S
C1640 C1641 1.370 . S
C1640 C1644 1.524 . S
C1641 C1633 1.503 . S
C1641 C1640 1.370 . S
C1641 C1642 1.403 . S
C1642 C1641 1.403 . S
C1642 C1643 1.404 . S
C1642 C1645 1.539 . S
C1643 C1639 1.408 . S
C1643 C1642 1.404 . S
C1643 H1655 0.930 . S
C1644 C1640 1.524 . S
C1644 H1656 0.956 . S
C1644 H1657 0.961 . S
C1644 H1658 0.961 . S
C1645 C1642 1.539 . S
C1645 H1659 0.958 . S
C1645 H1660 0.961 . S
C1645 H1661 0.960 . S
H1646 C1630 0.931 . S
H1647 C1635 0.929 . S
H1648 C1636 0.960 . S
H1649 C1636 0.962 . S
H1650 C1636 0.960 . S
H1651 C1637 0.961 . S
H1652 C1637 0.961 . S
H1653 C1637 0.961 . S
H1654 C1638 0.931 . S
H1655 C1643 0.930 . S
H1656 C1644 0.956 . S
H1657 C1644 0.961 . S
H1658 C1644 0.961 . S
H1659 C1645 0.958 . S
H1660 C1645 0.961 . S
H1661 C1645 0.960 . S
C1662 C1663 1.391 . S
C1662 C1664 1.394 . S
C1662 H1678 0.931 . S
C1663 C1662 1.391 . S
C1663 C1667 1.376 . S
C1664 C1662 1.394 . S
C1664 C1665 1.369 . S
C1664 C1668 1.531 . S
C1665 C1664 1.369 . S
C1665 C1666 1.410 . S
C1665 C1673 1.503 1_545 S
C1666 C1665 1.410 . S
C1666 C1667 1.392 . S
C1666 C1669 1.511 1_545 S
C1667 C1663 1.376 . S
C1667 C1666 1.392 . S
C1667 H1679 0.929 . S
C1668 C1664 1.531 . S
C1668 H1680 0.960 . S
C1668 H1681 0.962 . S
C1668 H1682 0.960 . S
C1669 C1666 1.511 1_565 S
C1669 H1683 0.961 . S
C1669 H1684 0.961 . S
C1669 H1685 0.961 . S
C1670 C1671 1.370 . S
C1670 C1672 1.363 . S
C1670 H1686 0.931 . S
C1671 C1670 1.370 . S
C1671 C1675 1.408 . S
C1672 C1670 1.363 . S
C1672 C1673 1.370 . S
C1672 C1676 1.524 . S
C1673 C1665 1.503 1_565 S
C1673 C1672 1.370 . S
C1673 C1674 1.403 . S
C1674 C1673 1.403 . S
C1674 C1675 1.404 . S
C1674 C1677 1.539 . S
C1675 C1671 1.408 . S
C1675 C1674 1.404 . S
C1675 H1687 0.930 . S
C1676 C1672 1.524 . S
C1676 H1688 0.956 . S
C1676 H1689 0.961 . S
C1676 H1690 0.961 . S
C1677 C1674 1.539 . S
C1677 H1691 0.958 1_565 S
C1677 H1692 0.961 . S
C1677 H1693 0.948 1_565 S
H1678 C1662 0.931 . S
H1679 C1667 0.929 . S
H1680 C1668 0.960 . S
H1681 C1668 0.962 . S
H1682 C1668 0.960 . S
H1683 C1669 0.961 . S
H1684 C1669 0.961 . S
H1685 C1669 0.961 . S
H1686 C1670 0.931 . S
H1687 C1675 0.930 . S
H1688 C1676 0.956 . S
H1689 C1676 0.961 . S
H1690 C1676 0.961 . S
H1691 C1677 0.958 1_545 S
H1692 C1677 0.961 . S
H1693 C1677 0.948 1_545 S
C1694 C1695 1.391 . S
C1694 C1696 1.394 1_655 S
C1694 H1710 0.931 . S
C1695 C1694 1.391 . S
C1695 C1699 1.376 . S
C1696 C1694 1.394 1_455 S
C1696 C1697 1.369 . S
C1696 C1700 1.531 . S
C1697 C1696 1.369 . S
C1697 C1698 1.410 . S
C1697 C1705 1.503 . S
C1698 C1697 1.410 . S
C1698 C1699 1.392 1_455 S
C1698 C1701 1.511 . S
C1699 C1695 1.376 . S
C1699 C1698 1.392 1_655 S
C1699 H1711 0.929 . S
C1700 C1696 1.531 . S
C1700 H1712 0.960 . S
C1700 H1713 0.962 . S
C1700 H1714 0.960 . S
C1701 C1698 1.511 . S
C1701 H1715 0.961 . S
C1701 H1716 0.961 . S
C1701 H1717 0.961 . S
C1702 C1703 1.370 . S
C1702 C1704 1.363 . S
C1702 H1718 0.931 . S
C1703 C1702 1.370 . S
C1703 C1707 1.408 . S
C1704 C1702 1.363 . S
C1704 C1705 1.370 . S
C1704 C1708 1.505 1_455 S
C1705 C1697 1.503 . S
C1705 C1704 1.370 . S
C1705 C1706 1.403 . S
C1706 C1705 1.403 . S
C1706 C1707 1.404 . S
C1706 C1709 1.539 . S
C1707 C1703 1.408 . S
C1707 C1706 1.404 . S
C1707 H1719 0.930 . S
C1708 C1704 1.505 1_655 S
C1708 H1720 0.975 . S
C1708 H1721 0.972 . S
C1708 H1722 0.950 . S
C1709 C1706 1.539 . S
C1709 H1723 0.958 . S
C1709 H1724 0.961 . S
C1709 H1725 0.960 . S
H1710 C1694 0.931 . S
H1711 C1699 0.929 . S
H1712 C1700 0.960 . S
H1713 C1700 0.962 . S
H1714 C1700 0.960 . S
H1715 C1701 0.961 . S
H1716 C1701 0.961 . S
H1717 C1701 0.961 . S
H1718 C1702 0.931 . S
H1719 C1707 0.930 . S
H1720 C1708 0.975 . S
H1721 C1708 0.972 . S
H1722 C1708 0.950 . S
H1723 C1709 0.958 . S
H1724 C1709 0.961 . S
H1725 C1709 0.960 . S
C1726 C1727 1.391 . S
C1726 C1728 1.394 . S
C1726 H1742 0.931 . S
C1727 C1726 1.391 . S
C1727 C1731 1.376 . S
C1728 C1726 1.394 . S
C1728 C1729 1.369 . S
C1728 C1732 1.531 . S
C1729 C1728 1.369 . S
C1729 C1730 1.410 . S
C1729 C1737 1.503 . S
C1730 C1729 1.410 . S
C1730 C1731 1.392 . S
C1730 C1733 1.511 . S
C1731 C1727 1.376 . S
C1731 C1730 1.392 . S
C1731 H1743 0.929 . S
C1732 C1728 1.531 . S
C1732 H1744 0.960 . S
C1732 H1745 0.962 . S
C1732 H1746 0.960 . S
C1733 C1730 1.511 . S
C1733 H1747 0.961 . S
C1733 H1748 0.961 . S
C1733 H1749 0.961 . S
C1734 C1735 1.370 . S
C1734 C1736 1.363 . S
C1734 H1750 0.931 . S
C1735 C1734 1.370 . S
C1735 C1739 1.408 . S
C1736 C1734 1.363 . S
C1736 C1737 1.370 . S
C1736 C1740 1.524 . S
C1737 C1729 1.503 . S
C1737 C1736 1.370 . S
C1737 C1738 1.403 . S
C1738 C1737 1.403 . S
C1738 C1739 1.404 . S
C1738 C1741 1.539 . S
C1739 C1735 1.408 . S
C1739 C1738 1.404 . S
C1739 H1751 0.930 . S
C1740 C1736 1.524 . S
C1740 H1752 0.956 . S
C1740 H1753 0.961 . S
C1740 H1754 0.961 . S
C1741 C1738 1.539 . S
C1741 H1755 0.958 . S
C1741 H1756 0.961 . S
C1741 H1757 0.960 . S
H1742 C1726 0.931 . S
H1743 C1731 0.929 . S
H1744 C1732 0.960 . S
H1745 C1732 0.962 . S
H1746 C1732 0.960 . S
H1747 C1733 0.961 . S
H1748 C1733 0.961 . S
H1749 C1733 0.961 . S
H1750 C1734 0.931 . S
H1751 C1739 0.930 . S
H1752 C1740 0.956 . S
H1753 C1740 0.961 . S
H1754 C1740 0.961 . S
H1755 C1741 0.958 . S
H1756 C1741 0.961 . S
H1757 C1741 0.960 . S
C1758 C1759 1.391 . S
C1758 C1760 1.394 . S
C1758 H1774 0.931 . S
C1759 C1758 1.391 . S
C1759 C1763 1.376 . S
C1760 C1758 1.394 . S
C1760 C1761 1.369 . S
C1760 C1764 1.531 . S
C1761 C1760 1.369 . S
C1761 C1762 1.410 . S
C1761 C1769 1.503 . S
C1762 C1761 1.410 . S
C1762 C1763 1.392 . S
C1762 C1765 1.511 . S
C1763 C1759 1.376 . S
C1763 C1762 1.392 . S
C1763 H1775 0.929 . S
C1764 C1760 1.531 . S
C1764 H1776 0.960 . S
C1764 H1777 0.962 . S
C1764 H1778 0.960 . S
C1765 C1762 1.511 . S
C1765 H1779 0.961 . S
C1765 H1780 0.961 . S
C1765 H1781 0.961 . S
C1766 C1767 1.370 . S
C1766 C1768 1.363 . S
C1766 H1782 0.931 . S
C1767 C1766 1.370 . S
C1767 C1771 1.408 . S
C1768 C1766 1.363 . S
C1768 C1769 1.370 . S
C1768 C1772 1.524 . S
C1769 C1761 1.503 . S
C1769 C1768 1.370 . S
C1769 C1770 1.403 . S
C1770 C1769 1.403 . S
C1770 C1771 1.404 . S
C1770 C1773 1.539 . S
C1771 C1767 1.408 . S
C1771 C1770 1.404 . S
C1771 H1783 0.930 . S
C1772 C1768 1.524 . S
C1772 H1784 0.956 . S
C1772 H1785 0.961 . S
C1772 H1786 0.961 . S
C1773 C1770 1.539 . S
C1773 H1787 0.958 . S
C1773 H1788 0.961 . S
C1773 H1789 0.960 . S
H1774 C1758 0.931 . S
H1775 C1763 0.929 . S
H1776 C1764 0.960 . S
H1777 C1764 0.962 . S
H1778 C1764 0.960 . S
H1779 C1765 0.961 . S
H1780 C1765 0.961 . S
H1781 C1765 0.961 . S
H1782 C1766 0.931 . S
H1783 C1771 0.930 . S
H1784 C1772 0.956 . S
H1785 C1772 0.961 . S
H1786 C1772 0.961 . S
H1787 C1773 0.958 . S
H1788 C1773 0.961 . S
H1789 C1773 0.960 . S
C1790 C1791 1.391 . S
C1790 C1792 1.394 . S
C1790 H1806 0.931 . S
C1791 C1790 1.391 . S
C1791 C1795 1.376 . S
C1792 C1790 1.394 . S
C1792 C1793 1.369 . S
C1792 C1796 1.531 . S
C1793 C1792 1.369 . S
C1793 C1794 1.410 . S
C1793 C1801 1.503 . S
C1794 C1793 1.410 . S
C1794 C1795 1.392 . S
C1794 C1797 1.511 . S
C1795 C1791 1.376 . S
C1795 C1794 1.392 . S
C1795 H1807 0.929 . S
C1796 C1792 1.531 . S
C1796 H1808 0.960 . S
C1796 H1809 0.962 . S
C1796 H1810 0.960 . S
C1797 C1794 1.511 . S
C1797 H1811 0.961 . S
C1797 H1812 0.961 . S
C1797 H1813 0.961 . S
C1798 C1799 1.370 . S
C1798 C1800 1.363 . S
C1798 H1814 0.931 . S
C1799 C1798 1.370 . S
C1799 C1803 1.408 . S
C1800 C1798 1.363 . S
C1800 C1801 1.370 . S
C1800 C1804 1.524 . S
C1801 C1793 1.503 . S
C1801 C1800 1.370 . S
C1801 C1802 1.403 . S
C1802 C1801 1.403 . S
C1802 C1803 1.404 . S
C1802 C1805 1.539 . S
C1803 C1799 1.408 . S
C1803 C1802 1.404 . S
C1803 H1815 0.930 . S
C1804 C1800 1.524 . S
C1804 H1816 0.956 . S
C1804 H1817 0.961 . S
C1804 H1818 0.961 . S
C1805 C1802 1.539 . S
C1805 H1819 0.958 . S
C1805 H1820 0.961 . S
C1805 H1821 0.960 . S
H1806 C1790 0.931 . S
H1807 C1795 0.929 . S
H1808 C1796 0.960 . S
H1809 C1796 0.962 . S
H1810 C1796 0.960 . S
H1811 C1797 0.961 . S
H1812 C1797 0.961 . S
H1813 C1797 0.961 . S
H1814 C1798 0.931 . S
H1815 C1803 0.930 . S
H1816 C1804 0.956 . S
H1817 C1804 0.961 . S
H1818 C1804 0.961 . S
H1819 C1805 0.958 . S
H1820 C1805 0.961 . S
H1821 C1805 0.960 . S
C1822 C1823 1.391 . S
C1822 C1824 1.394 . S
C1822 H1838 0.931 . S
C1823 C1822 1.391 . S
C1823 C1827 1.376 . S
C1824 C1822 1.394 . S
C1824 C1825 1.369 . S
C1824 C1828 1.531 . S
C1825 C1824 1.369 . S
C1825 C1826 1.410 . S
C1825 C1833 1.503 . S
C1826 C1825 1.410 . S
C1826 C1827 1.392 . S
C1826 C1829 1.511 . S
C1827 C1823 1.376 . S
C1827 C1826 1.392 . S
C1827 H1839 0.929 . S
C1828 C1824 1.531 . S
C1828 H1840 0.960 . S
C1828 H1841 0.962 . S
C1828 H1842 0.960 . S
C1829 C1826 1.511 . S
C1829 H1843 0.961 . S
C1829 H1844 0.961 . S
C1829 H1845 0.961 . S
C1830 C1831 1.370 . S
C1830 C1832 1.363 . S
C1830 H1846 0.931 . S
C1831 C1830 1.370 . S
C1831 C1835 1.408 . S
C1832 C1830 1.363 . S
C1832 C1833 1.370 . S
C1832 C1836 1.524 . S
C1833 C1825 1.503 . S
C1833 C1832 1.370 . S
C1833 C1834 1.403 . S
C1834 C1833 1.403 . S
C1834 C1835 1.404 . S
C1834 C1837 1.539 . S
C1835 C1831 1.408 . S
C1835 C1834 1.404 . S
C1835 H1847 0.930 . S
C1836 C1832 1.524 . S
C1836 H1848 0.956 . S
C1836 H1849 0.961 . S
C1836 H1850 0.961 . S
C1837 C1834 1.539 . S
C1837 H1851 0.958 . S
C1837 H1852 0.961 . S
C1837 H1853 0.960 . S
H1838 C1822 0.931 . S
H1839 C1827 0.929 . S
H1840 C1828 0.960 . S
H1841 C1828 0.962 . S
H1842 C1828 0.960 . S
H1843 C1829 0.961 . S
H1844 C1829 0.961 . S
H1845 C1829 0.961 . S
H1846 C1830 0.931 . S
H1847 C1835 0.930 . S
H1848 C1836 0.956 . S
H1849 C1836 0.961 . S
H1850 C1836 0.961 . S
H1851 C1837 0.958 . S
H1852 C1837 0.961 . S
H1853 C1837 0.960 . S
C1854 C1855 1.391 . S
C1854 C1856 1.394 . S
C1854 H1870 0.931 . S
C1855 C1854 1.391 . S
C1855 C1859 1.376 . S
C1856 C1854 1.394 . S
C1856 C1857 1.369 1_565 S
C1856 C1860 1.531 . S
C1857 C1856 1.369 1_545 S
C1857 C1858 1.410 . S
C1857 C1865 1.503 . S
C1858 C1857 1.410 . S
C1858 C1859 1.392 1_545 S
C1858 C1861 1.511 . S
C1859 C1855 1.376 . S
C1859 C1858 1.392 1_565 S
C1859 H1871 0.929 . S
C1860 C1856 1.531 . S
C1860 H1872 0.960 1_565 S
C1860 H1873 0.962 . S
C1860 H1874 0.960 . S
C1861 C1858 1.511 . S
C1861 H1875 0.961 . S
C1861 H1876 0.961 . S
C1861 H1877 0.961 . S
C1862 C1863 1.370 . S
C1862 C1864 1.363 . S
C1862 H1878 0.931 . S
C1863 C1862 1.370 . S
C1863 C1867 1.408 . S
C1864 C1862 1.363 . S
C1864 C1865 1.370 . S
C1864 C1868 1.524 . S
C1865 C1857 1.503 . S
C1865 C1864 1.370 . S
C1865 C1866 1.403 . S
C1866 C1865 1.403 . S
C1866 C1867 1.404 . S
C1866 C1869 1.539 . S
C1867 C1863 1.408 . S
C1867 C1866 1.404 . S
C1867 H1879 0.930 . S
C1868 C1864 1.524 . S
C1868 H1880 0.956 . S
C1868 H1881 0.961 . S
C1868 H1882 0.961 . S
C1869 C1866 1.539 . S
C1869 H1883 0.958 . S
C1869 H1884 0.961 . S
C1869 H1885 0.960 . S
H1870 C1854 0.931 . S
H1871 C1859 0.929 . S
H1872 C1860 0.960 1_545 S
H1873 C1860 0.962 . S
H1874 C1860 0.960 . S
H1875 C1861 0.961 . S
H1876 C1861 0.961 . S
H1877 C1861 0.961 . S
H1878 C1862 0.931 . S
H1879 C1867 0.930 . S
H1880 C1868 0.956 . S
H1881 C1868 0.961 . S
H1882 C1868 0.961 . S
H1883 C1869 0.958 . S
H1884 C1869 0.961 . S
H1885 C1869 0.960 . S
C1886 C1887 1.391 . S
C1886 C1888 1.394 1_455 S
C1886 H1902 0.931 . S
C1887 C1886 1.391 . S
C1887 C1891 1.376 . S
C1888 C1886 1.394 1_655 S
C1888 C1889 1.369 . S
C1888 C1892 1.531 . S
C1889 C1888 1.369 . S
C1889 C1890 1.410 . S
C1889 C1897 1.503 . S
C1890 C1889 1.410 . S
C1890 C1891 1.392 1_655 S
C1890 C1893 1.511 . S
C1891 C1887 1.376 . S
C1891 C1890 1.392 1_455 S
C1891 H1903 0.929 . S
C1892 C1888 1.531 . S
C1892 H1904 0.960 . S
C1892 H1905 0.962 . S
C1892 H1906 0.960 . S
C1893 C1890 1.511 . S
C1893 H1907 0.961 . S
C1893 H1908 0.961 . S
C1893 H1909 0.961 . S
C1894 C1895 1.370 . S
C1894 C1896 1.363 . S
C1894 H1910 0.931 . S
C1895 C1894 1.370 . S
C1895 C1899 1.408 . S
C1896 C1894 1.363 . S
C1896 C1897 1.370 . S
C1896 C1900 1.524 . S
C1897 C1889 1.503 . S
C1897 C1896 1.370 . S
C1897 C1898 1.403 . S
C1898 C1897 1.403 . S
C1898 C1899 1.404 . S
C1898 C1901 1.539 . S
C1899 C1895 1.408 . S
C1899 C1898 1.404 . S
C1899 H1911 0.930 . S
C1900 C1896 1.524 . S
C1900 H1912 0.956 . S
C1900 H1913 0.961 . S
C1900 H1914 0.961 . S
C1901 C1898 1.539 . S
C1901 H1915 0.958 . S
C1901 H1916 0.961 . S
C1901 H1917 0.960 . S
H1902 C1886 0.931 . S
H1903 C1891 0.929 . S
H1904 C1892 0.960 . S
H1905 C1892 0.962 . S
H1906 C1892 0.960 . S
H1907 C1893 0.961 . S
H1908 C1893 0.961 . S
H1909 C1893 0.961 . S
H1910 C1894 0.931 . S
H1911 C1899 0.930 . S
H1912 C1900 0.956 . S
H1913 C1900 0.961 . S
H1914 C1900 0.961 . S
H1915 C1901 0.958 . S
H1916 C1901 0.961 . S
H1917 C1901 0.960 . S
C1918 C1919 1.391 . S
C1918 C1920 1.394 . S
C1918 H1934 0.931 . S
C1919 C1918 1.391 . S
C1919 C1923 1.376 . S
C1920 C1918 1.394 . S
C1920 C1921 1.369 . S
C1920 C1924 1.531 . S
C1921 C1920 1.369 . S
C1921 C1922 1.410 . S
C1921 C1929 1.503 . S
C1922 C1921 1.410 . S
C1922 C1923 1.392 . S
C1922 C1925 1.511 . S
C1923 C1919 1.376 . S
C1923 C1922 1.392 . S
C1923 H1935 0.929 . S
C1924 C1920 1.531 . S
C1924 H1936 0.960 . S
C1924 H1937 0.962 . S
C1924 H1938 0.960 . S
C1925 C1922 1.511 . S
C1925 H1939 0.961 . S
C1925 H1940 0.961 . S
C1925 H1941 0.961 . S
C1926 C1927 1.370 . S
C1926 C1928 1.363 . S
C1926 H1942 0.931 . S
C1927 C1926 1.370 . S
C1927 C1931 1.408 . S
C1928 C1926 1.363 . S
C1928 C1929 1.370 . S
C1928 C1932 1.524 . S
C1929 C1921 1.503 . S
C1929 C1928 1.370 . S
C1929 C1930 1.403 . S
C1930 C1929 1.403 . S
C1930 C1931 1.404 . S
C1930 C1933 1.539 . S
C1931 C1927 1.408 . S
C1931 C1930 1.404 . S
C1931 H1943 0.930 . S
C1932 C1928 1.524 . S
C1932 H1944 0.956 . S
C1932 H1945 0.961 . S
C1932 H1946 0.961 . S
C1933 C1930 1.539 . S
C1933 H1947 0.958 . S
C1933 H1948 0.961 . S
C1933 H1949 0.960 . S
H1934 C1918 0.931 . S
H1935 C1923 0.929 . S
H1936 C1924 0.960 . S
H1937 C1924 0.962 . S
H1938 C1924 0.960 . S
H1939 C1925 0.961 . S
H1940 C1925 0.961 . S
H1941 C1925 0.961 . S
H1942 C1926 0.931 . S
H1943 C1931 0.930 . S
H1944 C1932 0.956 . S
H1945 C1932 0.961 . S
H1946 C1932 0.961 . S
H1947 C1933 0.958 . S
H1948 C1933 0.961 . S
H1949 C1933 0.960 . S
C1950 C1951 1.391 . S
C1950 C1952 1.394 . S
C1950 H1966 0.931 . S
C1951 C1950 1.391 . S
C1951 C1955 1.376 . S
C1952 C1950 1.394 . S
C1952 C1953 1.369 . S
C1952 C1956 1.531 . S
C1953 C1952 1.369 . S
C1953 C1954 1.410 . S
C1953 C1961 1.503 . S
C1954 C1953 1.410 . S
C1954 C1955 1.392 . S
C1954 C1957 1.511 . S
C1955 C1951 1.376 . S
C1955 C1954 1.392 . S
C1955 H1967 0.929 . S
C1956 C1952 1.531 . S
C1956 H1968 0.960 . S
C1956 H1969 0.962 . S
C1956 H1970 0.960 . S
C1957 C1954 1.511 . S
C1957 H1971 0.961 . S
C1957 H1972 0.961 . S
C1957 H1973 0.961 . S
C1958 C1959 1.370 . S
C1958 C1960 1.363 . S
C1958 H1974 0.931 . S
C1959 C1958 1.370 . S
C1959 C1963 1.408 . S
C1960 C1958 1.363 . S
C1960 C1961 1.370 1_655 S
C1960 C1964 1.524 . S
C1961 C1953 1.503 . S
C1961 C1960 1.370 1_455 S
C1961 C1962 1.403 1_455 S
C1962 C1961 1.403 1_655 S
C1962 C1963 1.404 . S
C1962 C1965 1.539 1_655 S
C1963 C1959 1.408 . S
C1963 C1962 1.404 . S
C1963 H1975 0.930 . S
C1964 C1960 1.524 . S
C1964 H1976 0.956 . S
C1964 H1977 0.961 1_655 S
C1964 H1978 0.961 . S
C1965 C1962 1.539 1_455 S
C1965 H1979 0.958 . S
C1965 H1980 0.961 . S
C1965 H1981 0.960 . S
H1966 C1950 0.931 . S
H1967 C1955 0.929 . S
H1968 C1956 0.960 . S
H1969 C1956 0.962 . S
H1970 C1956 0.960 . S
H1971 C1957 0.961 . S
H1972 C1957 0.961 . S
H1973 C1957 0.961 . S
H1974 C1958 0.931 . S
H1975 C1963 0.930 . S
H1976 C1964 0.956 . S
H1977 C1964 0.961 1_455 S
H1978 C1964 0.961 . S
H1979 C1965 0.958 . S
H1980 C1965 0.961 . S
H1981 C1965 0.960 . S
C1982 C1983 1.391 . S
C1982 C1984 1.394 . S
C1982 H1998 0.931 . S
C1983 C1982 1.391 . S
C1983 C1987 1.376 . S
C1984 C1982 1.394 . S
C1984 C1985 1.369 . S
C1984 C1988 1.531 . S
C1985 C1984 1.369 . S
C1985 C1986 1.410 . S
C1985 C1993 1.503 . S
C1986 C1985 1.410 . S
C1986 C1987 1.392 . S
C1986 C1989 1.511 . S
C1987 C1983 1.376 . S
C1987 C1986 1.392 . S
C1987 H1999 0.929 . S
C1988 C1984 1.531 . S
C1988 H2000 0.960 . S
C1988 H2001 0.962 . S
C1988 H2002 0.960 . S
C1989 C1986 1.511 . S
C1989 H2003 0.961 . S
C1989 H2004 0.961 . S
C1989 H2005 0.961 . S
C1990 C1991 1.370 . S
C1990 C1992 1.363 . S
C1990 H2006 0.931 . S
C1991 C1990 1.370 . S
C1991 C1995 1.408 . S
C1992 C1990 1.363 . S
C1992 C1993 1.370 . S
C1992 C1996 1.524 . S
C1993 C1985 1.503 . S
C1993 C1992 1.370 . S
C1993 C1994 1.403 . S
C1994 C1993 1.403 . S
C1994 C1995 1.404 . S
C1994 C1997 1.539 . S
C1995 C1991 1.408 . S
C1995 C1994 1.404 . S
C1995 H2007 0.930 . S
C1996 C1992 1.524 . S
C1996 H2008 0.956 . S
C1996 H2009 0.961 . S
C1996 H2010 0.961 . S
C1997 C1994 1.539 . S
C1997 H2011 0.958 . S
C1997 H2012 0.961 . S
C1997 H2013 0.960 . S
H1998 C1982 0.931 . S
H1999 C1987 0.929 . S
H2000 C1988 0.960 . S
H2001 C1988 0.962 . S
H2002 C1988 0.960 . S
H2003 C1989 0.961 . S
H2004 C1989 0.961 . S
H2005 C1989 0.961 . S
H2006 C1990 0.931 . S
H2007 C1995 0.930 . S
H2008 C1996 0.956 . S
H2009 C1996 0.961 . S
H2010 C1996 0.961 . S
H2011 C1997 0.958 . S
H2012 C1997 0.961 . S
H2013 C1997 0.960 . S
C2014 C2015 1.391 . S
C2014 C2016 1.394 . S
C2014 H2030 0.931 . S
C2015 C2014 1.391 . S
C2015 C2019 1.376 . S
C2016 C2014 1.394 . S
C2016 C2017 1.369 . S
C2016 C2020 1.531 . S
C2017 C2016 1.369 . S
C2017 C2018 1.410 . S
C2017 C2025 1.503 1_565 S
C2018 C2017 1.410 . S
C2018 C2019 1.392 . S
C2018 C2021 1.511 1_565 S
C2019 C2015 1.376 . S
C2019 C2018 1.392 . S
C2019 H2031 0.929 . S
C2020 C2016 1.531 . S
C2020 H2032 0.960 . S
C2020 H2033 0.962 . S
C2020 H2034 0.960 . S
C2021 C2018 1.511 1_545 S
C2021 H2035 0.961 . S
C2021 H2036 0.961 . S
C2021 H2037 0.961 . S
C2022 C2023 1.370 . S
C2022 C2024 1.363 . S
C2022 H2038 0.931 . S
C2023 C2022 1.370 . S
C2023 C2027 1.408 . S
C2024 C2022 1.363 . S
C2024 C2025 1.370 . S
C2024 C2028 1.524 . S
C2025 C2017 1.503 1_545 S
C2025 C2024 1.370 . S
C2025 C2026 1.403 . S
C2026 C2025 1.403 . S
C2026 C2027 1.404 . S
C2026 C2029 1.539 . S
C2027 C2023 1.408 . S
C2027 C2026 1.404 . S
C2027 H2039 0.930 . S
C2028 C2024 1.524 . S
C2028 H2040 0.956 1_545 S
C2028 H2041 0.961 . S
C2028 H2042 0.961 . S
C2029 C2026 1.539 . S
C2029 H2043 0.958 . S
C2029 H2044 0.961 . S
C2029 H2045 0.960 . S
H2030 C2014 0.931 . S
H2031 C2019 0.929 . S
H2032 C2020 0.960 . S
H2033 C2020 0.962 . S
H2034 C2020 0.960 . S
H2035 C2021 0.961 . S
H2036 C2021 0.961 . S
H2037 C2021 0.961 . S
H2038 C2022 0.931 . S
H2039 C2027 0.930 . S
H2040 C2028 0.956 1_565 S
H2041 C2028 0.961 . S
H2042 C2028 0.961 . S
H2043 C2029 0.958 . S
H2044 C2029 0.961 . S
H2045 C2029 0.960 . S
C2046 C2047 1.391 . S
C2046 C2048 1.394 . S
C2046 H2062 0.931 . S
C2047 C2046 1.391 . S
C2047 C2051 1.376 . S
C2048 C2046 1.394 . S
C2048 C2049 1.369 . S
C2048 C2052 1.531 . S
C2049 C2048 1.369 . S
C2049 C2050 1.410 . S
C2049 C2057 1.503 . S
C2050 C2049 1.410 . S
C2050 C2051 1.392 . S
C2050 C2053 1.511 . S
C2051 C2047 1.376 . S
C2051 C2050 1.392 . S
C2051 H2063 0.929 . S
C2052 C2048 1.531 . S
C2052 H2064 0.960 . S
C2052 H2065 0.962 . S
C2052 H2066 0.960 . S
C2053 C2050 1.511 . S
C2053 H2067 0.961 . S
C2053 H2068 0.961 . S
C2053 H2069 0.961 . S
C2054 C2055 1.370 . S
C2054 C2056 1.363 . S
C2054 H2070 0.931 . S
C2055 C2054 1.370 . S
C2055 C2059 1.408 . S
C2056 C2054 1.363 . S
C2056 C2057 1.370 . S
C2056 C2060 1.524 . S
C2057 C2049 1.503 . S
C2057 C2056 1.370 . S
C2057 C2058 1.403 . S
C2058 C2057 1.403 . S
C2058 C2059 1.404 . S
C2058 C2061 1.539 . S
C2059 C2055 1.408 . S
C2059 C2058 1.404 . S
C2059 H2071 0.930 . S
C2060 C2056 1.524 . S
C2060 H2072 0.956 . S
C2060 H2073 0.961 . S
C2060 H2074 0.961 . S
C2061 C2058 1.539 . S
C2061 H2075 0.958 . S
C2061 H2076 0.961 . S
C2061 H2077 0.960 . S
H2062 C2046 0.931 . S
H2063 C2051 0.929 . S
H2064 C2052 0.960 . S
H2065 C2052 0.962 . S
H2066 C2052 0.960 . S
H2067 C2053 0.961 . S
H2068 C2053 0.961 . S
H2069 C2053 0.961 . S
H2070 C2054 0.931 . S
H2071 C2059 0.930 . S
H2072 C2060 0.956 . S
H2073 C2060 0.961 . S
H2074 C2060 0.961 . S
H2075 C2061 0.958 . S
H2076 C2061 0.961 . S
H2077 C2061 0.960 . S
C2078 C2079 1.391 . S
C2078 C2080 1.394 . S
C2078 H2094 0.931 . S
C2079 C2078 1.391 . S
C2079 C2083 1.376 . S
C2080 C2078 1.394 . S
C2080 C2081 1.369 . S
C2080 C2084 1.531 . S
C2081 C2080 1.369 . S
C2081 C2082 1.410 . S
C2081 C2089 1.503 . S
C2082 C2081 1.410 . S
C2082 C2083 1.392 . S
C2082 C2085 1.511 . S
C2083 C2079 1.376 . S
C2083 C2082 1.392 . S
C2083 H2095 0.929 . S
C2084 C2080 1.531 . S
C2084 H2096 0.960 . S
C2084 H2097 0.962 . S
C2084 H2098 0.960 . S
C2085 C2082 1.511 . S
C2085 H2099 0.961 . S
C2085 H2100 0.961 . S
C2085 H2101 0.961 . S
C2086 C2087 1.370 . S
C2086 C2088 1.363 . S
C2086 H2102 0.931 . S
C2087 C2086 1.370 . S
C2087 C2091 1.408 . S
C2088 C2086 1.363 . S
C2088 C2089 1.370 . S
C2088 C2092 1.524 . S
C2089 C2081 1.503 . S
C2089 C2088 1.370 . S
C2089 C2090 1.403 . S
C2090 C2089 1.403 . S
C2090 C2091 1.404 . S
C2090 C2093 1.539 . S
C2091 C2087 1.408 . S
C2091 C2090 1.404 . S
C2091 H2103 0.930 . S
C2092 C2088 1.524 . S
C2092 H2104 0.956 . S
C2092 H2105 0.961 . S
C2092 H2106 0.961 . S
C2093 C2090 1.539 . S
C2093 H2107 0.958 . S
C2093 H2108 0.961 . S
C2093 H2109 0.960 . S
H2094 C2078 0.931 . S
H2095 C2083 0.929 . S
H2096 C2084 0.960 . S
H2097 C2084 0.962 . S
H2098 C2084 0.960 . S
H2099 C2085 0.961 . S
H2100 C2085 0.961 . S
H2101 C2085 0.961 . S
H2102 C2086 0.931 . S
H2103 C2091 0.930 . S
H2104 C2092 0.956 . S
H2105 C2092 0.961 . S
H2106 C2092 0.961 . S
H2107 C2093 0.958 . S
H2108 C2093 0.961 . S
H2109 C2093 0.960 . S
C2110 C2111 1.391 . S
C2110 C2112 1.394 . S
C2110 H2126 0.931 . S
C2111 C2110 1.391 . S
C2111 C2115 1.376 . S
C2112 C2110 1.394 . S
C2112 C2113 1.369 . S
C2112 C2116 1.531 . S
C2113 C2112 1.369 . S
C2113 C2114 1.410 . S
C2113 C2121 1.503 . S
C2114 C2113 1.410 . S
C2114 C2115 1.392 . S
C2114 C2117 1.511 . S
C2115 C2111 1.376 . S
C2115 C2114 1.392 . S
C2115 H2127 0.929 . S
C2116 C2112 1.531 . S
C2116 H2128 0.960 . S
C2116 H2129 0.962 . S
C2116 H2130 0.960 . S
C2117 C2114 1.511 . S
C2117 H2131 0.961 . S
C2117 H2132 0.961 . S
C2117 H2133 0.961 . S
C2118 C2119 1.370 . S
C2118 C2120 1.363 . S
C2118 H2134 0.931 . S
C2119 C2118 1.370 . S
C2119 C2123 1.408 . S
C2120 C2118 1.363 . S
C2120 C2121 1.370 . S
C2120 C2124 1.524 . S
C2121 C2113 1.503 . S
C2121 C2120 1.370 . S
C2121 C2122 1.403 . S
C2122 C2121 1.403 . S
C2122 C2123 1.404 . S
C2122 C2125 1.539 . S
C2123 C2119 1.408 . S
C2123 C2122 1.404 . S
C2123 H2135 0.930 . S
C2124 C2120 1.524 . S
C2124 H2136 0.956 . S
C2124 H2137 0.961 . S
C2124 H2138 0.961 . S
C2125 C2122 1.539 . S
C2125 H2139 0.958 . S
C2125 H2140 0.961 . S
C2125 H2141 0.960 . S
H2126 C2110 0.931 . S
H2127 C2115 0.929 . S
H2128 C2116 0.960 . S
H2129 C2116 0.962 . S
H2130 C2116 0.960 . S
H2131 C2117 0.961 . S
H2132 C2117 0.961 . S
H2133 C2117 0.961 . S
H2134 C2118 0.931 . S
H2135 C2123 0.930 . S
H2136 C2124 0.956 . S
H2137 C2124 0.961 . S
H2138 C2124 0.961 . S
H2139 C2125 0.958 . S
H2140 C2125 0.961 . S
H2141 C2125 0.960 . S
C2142 C2143 1.391 . S
C2142 C2144 1.394 . S
C2142 H2158 0.931 . S
C2143 C2142 1.391 . S
C2143 C2147 1.376 . S
C2144 C2142 1.394 . S
C2144 C2145 1.369 . S
C2144 C2148 1.531 . S
C2145 C2144 1.369 . S
C2145 C2146 1.410 . S
C2145 C2153 1.503 . S
C2146 C2145 1.410 . S
C2146 C2147 1.392 . S
C2146 C2149 1.511 . S
C2147 C2143 1.376 . S
C2147 C2146 1.392 . S
C2147 H2159 0.929 . S
C2148 C2144 1.531 . S
C2148 H2160 0.960 . S
C2148 H2161 0.962 . S
C2148 H2162 0.960 . S
C2149 C2146 1.511 . S
C2149 H2163 0.961 . S
C2149 H2164 0.961 . S
C2149 H2165 0.961 . S
C2150 C2151 1.370 . S
C2150 C2152 1.363 . S
C2150 H2166 0.931 . S
C2151 C2150 1.370 . S
C2151 C2155 1.408 . S
C2152 C2150 1.363 . S
C2152 C2153 1.370 . S
C2152 C2156 1.524 . S
C2153 C2145 1.503 . S
C2153 C2152 1.370 . S
C2153 C2154 1.403 . S
C2154 C2153 1.403 . S
C2154 C2155 1.404 . S
C2154 C2157 1.539 . S
C2155 C2151 1.408 . S
C2155 C2154 1.404 . S
C2155 H2167 0.930 . S
C2156 C2152 1.524 . S
C2156 H2168 0.956 . S
C2156 H2169 0.961 . S
C2156 H2170 0.961 . S
C2157 C2154 1.539 . S
C2157 H2171 0.958 . S
C2157 H2172 0.961 . S
C2157 H2173 0.960 . S
H2158 C2142 0.931 . S
H2159 C2147 0.929 . S
H2160 C2148 0.960 . S
H2161 C2148 0.962 . S
H2162 C2148 0.960 . S
H2163 C2149 0.961 . S
H2164 C2149 0.961 . S
H2165 C2149 0.961 . S
H2166 C2150 0.931 . S
H2167 C2155 0.930 . S
H2168 C2156 0.956 . S
H2169 C2156 0.961 . S
H2170 C2156 0.961 . S
H2171 C2157 0.958 . S
H2172 C2157 0.961 . S
H2173 C2157 0.960 . S
C2174 C2175 1.391 . S
C2174 C2176 1.394 . S
C2174 H2190 0.931 . S
C2175 C2174 1.391 . S
C2175 C2179 1.376 . S
C2176 C2174 1.394 . S
C2176 C2177 1.369 . S
C2176 C2180 1.531 . S
C2177 C2176 1.369 . S
C2177 C2178 1.410 . S
C2177 C2185 1.503 . S
C2178 C2177 1.410 . S
C2178 C2179 1.392 . S
C2178 C2181 1.511 . S
C2179 C2175 1.376 . S
C2179 C2178 1.392 . S
C2179 H2191 0.929 . S
C2180 C2176 1.531 . S
C2180 H2192 0.960 . S
C2180 H2193 0.962 . S
C2180 H2194 0.960 . S
C2181 C2178 1.511 . S
C2181 H2195 0.961 . S
C2181 H2196 0.961 . S
C2181 H2197 0.961 . S
C2182 C2183 1.370 . S
C2182 C2184 1.363 . S
C2182 H2198 0.931 . S
C2183 C2182 1.370 . S
C2183 C2187 1.408 . S
C2184 C2182 1.363 . S
C2184 C2185 1.370 . S
C2184 C2188 1.524 . S
C2185 C2177 1.503 . S
C2185 C2184 1.370 . S
C2185 C2186 1.403 . S
C2186 C2185 1.403 . S
C2186 C2187 1.404 . S
C2186 C2189 1.539 . S
C2187 C2183 1.408 . S
C2187 C2186 1.404 . S
C2187 H2199 0.930 . S
C2188 C2184 1.524 . S
C2188 H2200 0.956 . S
C2188 H2201 0.961 . S
C2188 H2202 0.961 1_455 S
C2189 C2186 1.539 . S
C2189 H2203 0.958 . S
C2189 H2204 0.961 . S
C2189 H2205 0.960 . S
H2190 C2174 0.931 . S
H2191 C2179 0.929 . S
H2192 C2180 0.960 . S
H2193 C2180 0.962 . S
H2194 C2180 0.960 . S
H2195 C2181 0.961 . S
H2196 C2181 0.961 . S
H2197 C2181 0.961 . S
H2198 C2182 0.931 . S
H2199 C2187 0.930 . S
H2200 C2188 0.956 . S
H2201 C2188 0.961 . S
H2202 C2188 0.961 1_655 S
H2203 C2189 0.958 . S
H2204 C2189 0.961 . S
H2205 C2189 0.960 . S
C2206 C2207 1.391 . S
C2206 C2208 1.394 . S
C2206 H2222 0.931 . S
C2207 C2206 1.391 . S
C2207 C2211 1.376 . S
C2208 C2206 1.394 . S
C2208 C2209 1.369 . S
C2208 C2212 1.531 . S
C2209 C2208 1.369 . S
C2209 C2210 1.410 . S
C2209 C2217 1.503 . S
C2210 C2209 1.410 . S
C2210 C2211 1.392 . S
C2210 C2213 1.511 . S
C2211 C2207 1.376 . S
C2211 C2210 1.392 . S
C2211 H2223 0.929 . S
C2212 C2208 1.531 . S
C2212 H2224 0.960 . S
C2212 H2225 0.962 . S
C2212 H2226 0.960 . S
C2213 C2210 1.511 . S
C2213 H2227 0.961 . S
C2213 H2228 0.961 . S
C2213 H2229 0.961 . S
C2214 C2215 1.370 . S
C2214 C2216 1.363 . S
C2214 H2230 0.931 . S
C2215 C2214 1.370 . S
C2215 C2219 1.408 . S
C2216 C2214 1.363 . S
C2216 C2217 1.370 . S
C2216 C2220 1.524 . S
C2217 C2209 1.503 . S
C2217 C2216 1.370 . S
C2217 C2218 1.403 . S
C2218 C2217 1.403 . S
C2218 C2219 1.404 . S
C2218 C2221 1.539 . S
C2219 C2215 1.408 . S
C2219 C2218 1.404 . S
C2219 H2231 0.930 . S
C2220 C2216 1.524 . S
C2220 H2232 0.956 . S
C2220 H2233 0.961 . S
C2220 H2234 0.961 . S
C2221 C2218 1.539 . S
C2221 H2235 0.958 . S
C2221 H2236 0.961 . S
C2221 H2237 0.960 . S
H2222 C2206 0.931 . S
H2223 C2211 0.929 . S
H2224 C2212 0.960 . S
H2225 C2212 0.962 . S
H2226 C2212 0.960 . S
H2227 C2213 0.961 . S
H2228 C2213 0.961 . S
H2229 C2213 0.961 . S
H2230 C2214 0.931 . S
H2231 C2219 0.930 . S
H2232 C2220 0.956 . S
H2233 C2220 0.961 . S
H2234 C2220 0.961 . S
H2235 C2221 0.958 . S
H2236 C2221 0.961 . S
H2237 C2221 0.960 . S
C2238 C2239 1.391 . S
C2238 C2240 1.394 . S
C2238 H2254 0.931 . S
C2239 C2238 1.391 . S
C2239 C2243 1.376 . S
C2240 C2238 1.394 . S
C2240 C2241 1.369 . S
C2240 C2244 1.531 1_655 S
C2241 C2240 1.369 . S
C2241 C2242 1.410 . S
C2241 C2249 1.503 . S
C2242 C2241 1.410 . S
C2242 C2243 1.392 . S
C2242 C2245 1.511 . S
C2243 C2239 1.376 . S
C2243 C2242 1.392 . S
C2243 H2255 0.929 . S
C2244 C2240 1.531 1_455 S
C2244 H2256 0.960 . S
C2244 H2257 0.962 . S
C2244 H2258 0.960 . S
C2245 C2242 1.511 . S
C2245 H2259 0.961 . S
C2245 H2260 0.961 . S
C2245 H2261 0.961 . S
C2246 C2247 1.370 . S
C2246 C2248 1.363 . S
C2246 H2262 0.931 . S
C2247 C2246 1.370 . S
C2247 C2251 1.408 . S
C2248 C2246 1.363 . S
C2248 C2249 1.370 . S
C2248 C2252 1.524 . S
C2249 C2241 1.503 . S
C2249 C2248 1.370 . S
C2249 C2250 1.403 . S
C2250 C2249 1.403 . S
C2250 C2251 1.404 . S
C2250 C2253 1.539 . S
C2251 C2247 1.408 . S
C2251 C2250 1.404 . S
C2251 H2263 0.930 . S
C2252 C2248 1.524 . S
C2252 H2264 0.956 . S
C2252 H2265 0.961 . S
C2252 H2266 0.961 . S
C2253 C2250 1.539 . S
C2253 H2267 0.958 . S
C2253 H2268 0.961 . S
C2253 H2269 0.960 . S
H2254 C2238 0.931 . S
H2255 C2243 0.929 . S
H2256 C2244 0.960 . S
H2257 C2244 0.962 . S
H2258 C2244 0.960 . S
H2259 C2245 0.961 . S
H2260 C2245 0.961 . S
H2261 C2245 0.961 . S
H2262 C2246 0.931 . S
H2263 C2251 0.930 . S
H2264 C2252 0.956 . S
H2265 C2252 0.961 . S
H2266 C2252 0.961 . S
H2267 C2253 0.958 . S
H2268 C2253 0.961 . S
H2269 C2253 0.960 . S
C2270 C2271 1.391 . S
C2270 C2272 1.394 . S
C2270 H2286 0.931 . S
C2271 C2270 1.391 . S
C2271 C2275 1.376 . S
C2272 C2270 1.394 . S
C2272 C2273 1.369 . S
C2272 C2276 1.531 . S
C2273 C2272 1.369 . S
C2273 C2274 1.410 . S
C2273 C2281 1.503 . S
C2274 C2273 1.410 . S
C2274 C2275 1.392 . S
C2274 C2277 1.511 . S
C2275 C2271 1.376 . S
C2275 C2274 1.392 . S
C2275 H2287 0.929 . S
C2276 C2272 1.531 . S
C2276 H2288 0.960 . S
C2276 H2289 0.962 . S
C2276 H2290 0.960 . S
C2277 C2274 1.511 . S
C2277 H2291 0.961 . S
C2277 H2292 0.961 . S
C2277 H2293 0.961 . S
C2278 C2279 1.370 . S
C2278 C2280 1.363 . S
C2278 H2294 0.931 . S
C2279 C2278 1.370 . S
C2279 C2283 1.408 . S
C2280 C2278 1.363 . S
C2280 C2281 1.370 . S
C2280 C2284 1.524 . S
C2281 C2273 1.503 . S
C2281 C2280 1.370 . S
C2281 C2282 1.403 . S
C2282 C2281 1.403 . S
C2282 C2283 1.404 . S
C2282 C2285 1.539 . S
C2283 C2279 1.408 . S
C2283 C2282 1.404 . S
C2283 H2295 0.930 . S
C2284 C2280 1.524 . S
C2284 H2296 0.956 . S
C2284 H2297 0.961 . S
C2284 H2298 0.961 . S
C2285 C2282 1.539 . S
C2285 H2299 0.958 . S
C2285 H2300 0.961 . S
C2285 H2301 0.960 . S
H2286 C2270 0.931 . S
H2287 C2275 0.929 . S
H2288 C2276 0.960 . S
H2289 C2276 0.962 . S
H2290 C2276 0.960 . S
H2291 C2277 0.961 . S
H2292 C2277 0.961 . S
H2293 C2277 0.961 . S
H2294 C2278 0.931 . S
H2295 C2283 0.930 . S
H2296 C2284 0.956 . S
H2297 C2284 0.961 . S
H2298 C2284 0.961 . S
H2299 C2285 0.958 . S
H2300 C2285 0.961 . S
H2301 C2285 0.960 . S
C2302 C2303 1.391 . S
C2302 C2304 1.394 . S
C2302 H2318 0.931 . S
C2303 C2302 1.391 . S
C2303 C2307 1.376 . S
C2304 C2302 1.394 . S
C2304 C2305 1.369 . S
C2304 C2308 1.531 . S
C2305 C2304 1.369 . S
C2305 C2306 1.410 . S
C2305 C2313 1.503 . S
C2306 C2305 1.410 . S
C2306 C2307 1.392 . S
C2306 C2309 1.511 . S
C2307 C2303 1.376 . S
C2307 C2306 1.392 . S
C2307 H2319 0.929 . S
C2308 C2304 1.531 . S
C2308 H2320 0.960 . S
C2308 H2321 0.962 . S
C2308 H2322 0.960 . S
C2309 C2306 1.511 . S
C2309 H2323 0.961 . S
C2309 H2324 0.961 . S
C2309 H2325 0.961 . S
C2310 C2311 1.370 . S
C2310 C2312 1.363 . S
C2310 H2326 0.931 . S
C2311 C2310 1.370 . S
C2311 C2315 1.408 . S
C2312 C2310 1.363 . S
C2312 C2313 1.370 . S
C2312 C2316 1.524 . S
C2313 C2305 1.503 . S
C2313 C2312 1.370 . S
C2313 C2314 1.403 . S
C2314 C2313 1.403 . S
C2314 C2315 1.404 . S
C2314 C2317 1.539 . S
C2315 C2311 1.408 . S
C2315 C2314 1.404 . S
C2315 H2327 0.930 . S
C2316 C2312 1.524 . S
C2316 H2328 0.956 . S
C2316 H2329 0.961 . S
C2316 H2330 0.961 . S
C2317 C2314 1.539 . S
C2317 H2331 0.958 . S
C2317 H2332 0.961 . S
C2317 H2333 0.960 . S
H2318 C2302 0.931 . S
H2319 C2307 0.929 . S
H2320 C2308 0.960 . S
H2321 C2308 0.962 . S
H2322 C2308 0.960 . S
H2323 C2309 0.961 . S
H2324 C2309 0.961 . S
H2325 C2309 0.961 . S
H2326 C2310 0.931 . S
H2327 C2315 0.930 . S
H2328 C2316 0.956 . S
H2329 C2316 0.961 . S
H2330 C2316 0.961 . S
H2331 C2317 0.958 . S
H2332 C2317 0.961 . S
H2333 C2317 0.960 . S
C2334 C2335 1.391 . S
C2334 C2336 1.394 . S
C2334 H2350 0.931 . S
C2335 C2334 1.391 . S
C2335 C2339 1.376 . S
C2336 C2334 1.394 . S
C2336 C2337 1.369 . S
C2336 C2340 1.531 . S
C2337 C2336 1.369 . S
C2337 C2338 1.410 . S
C2337 C2345 1.503 . S
C2338 C2337 1.410 . S
C2338 C2339 1.392 . S
C2338 C2341 1.511 . S
C2339 C2335 1.376 . S
C2339 C2338 1.392 . S
C2339 H2351 0.929 . S
C2340 C2336 1.531 . S
C2340 H2352 0.960 . S
C2340 H2353 0.962 . S
C2340 H2354 0.960 . S
C2341 C2338 1.511 . S
C2341 H2355 0.961 . S
C2341 H2356 0.961 . S
C2341 H2357 0.961 . S
C2342 C2343 1.370 . S
C2342 C2344 1.363 . S
C2342 H2358 0.931 . S
C2343 C2342 1.370 . S
C2343 C2347 1.408 . S
C2344 C2342 1.363 . S
C2344 C2345 1.370 . S
C2344 C2348 1.524 . S
C2345 C2337 1.503 . S
C2345 C2344 1.370 . S
C2345 C2346 1.403 . S
C2346 C2345 1.403 . S
C2346 C2347 1.404 . S
C2346 C2349 1.539 . S
C2347 C2343 1.408 . S
C2347 C2346 1.404 . S
C2347 H2359 0.930 . S
C2348 C2344 1.524 . S
C2348 H2360 0.956 . S
C2348 H2361 0.961 . S
C2348 H2362 0.961 . S
C2349 C2346 1.539 . S
C2349 H2363 0.958 . S
C2349 H2364 0.961 . S
C2349 H2365 0.960 . S
H2350 C2334 0.931 . S
H2351 C2339 0.929 . S
H2352 C2340 0.960 . S
H2353 C2340 0.962 . S
H2354 C2340 0.960 . S
H2355 C2341 0.961 . S
H2356 C2341 0.961 . S
H2357 C2341 0.961 . S
H2358 C2342 0.931 . S
H2359 C2347 0.930 . S
H2360 C2348 0.956 . S
H2361 C2348 0.961 . S
H2362 C2348 0.961 . S
H2363 C2349 0.958 . S
H2364 C2349 0.961 . S
H2365 C2349 0.960 . S
C2366 C2367 1.391 . S
C2366 C2368 1.394 . S
C2366 H2382 0.931 . S
C2367 C2366 1.391 . S
C2367 C2371 1.376 . S
C2368 C2366 1.394 . S
C2368 C2369 1.369 . S
C2368 C2372 1.531 . S
C2369 C2368 1.369 . S
C2369 C2370 1.410 . S
C2369 C2377 1.503 . S
C2370 C2369 1.410 . S
C2370 C2371 1.392 . S
C2370 C2373 1.511 . S
C2371 C2367 1.376 . S
C2371 C2370 1.392 . S
C2371 H2383 0.929 . S
C2372 C2368 1.531 . S
C2372 H2384 0.960 . S
C2372 H2385 0.962 . S
C2372 H2386 0.960 . S
C2373 C2370 1.511 . S
C2373 H2387 0.961 . S
C2373 H2388 0.961 . S
C2373 H2389 0.961 . S
C2374 C2375 1.370 . S
C2374 C2376 1.363 . S
C2374 H2390 0.931 . S
C2375 C2374 1.370 . S
C2375 C2379 1.408 . S
C2376 C2374 1.363 . S
C2376 C2377 1.370 . S
C2376 C2380 1.524 . S
C2377 C2369 1.503 . S
C2377 C2376 1.370 . S
C2377 C2378 1.403 . S
C2378 C2377 1.403 . S
C2378 C2379 1.404 . S
C2378 C2381 1.539 . S
C2379 C2375 1.408 . S
C2379 C2378 1.404 . S
C2379 H2391 0.930 . S
C2380 C2376 1.524 . S
C2380 H2392 0.956 . S
C2380 H2393 0.961 . S
C2380 H2394 0.961 . S
C2381 C2378 1.539 . S
C2381 H2395 0.958 . S
C2381 H2396 0.961 . S
C2381 H2397 0.960 . S
H2382 C2366 0.931 . S
H2383 C2371 0.929 . S
H2384 C2372 0.960 . S
H2385 C2372 0.962 . S
H2386 C2372 0.960 . S
H2387 C2373 0.961 . S
H2388 C2373 0.961 . S
H2389 C2373 0.961 . S
H2390 C2374 0.931 . S
H2391 C2379 0.930 . S
H2392 C2380 0.956 . S
H2393 C2380 0.961 . S
H2394 C2380 0.961 . S
H2395 C2381 0.958 . S
H2396 C2381 0.961 . S
H2397 C2381 0.960 . S
C2398 C2399 1.391 . S
C2398 C2400 1.394 . S
C2398 H2414 0.931 . S
C2399 C2398 1.391 . S
C2399 C2403 1.376 . S
C2400 C2398 1.394 . S
C2400 C2401 1.369 . S
C2400 C2404 1.531 . S
C2401 C2400 1.369 . S
C2401 C2402 1.410 . S
C2401 C2409 1.503 . S
C2402 C2401 1.410 . S
C2402 C2403 1.392 . S
C2402 C2405 1.511 . S
C2403 C2399 1.376 . S
C2403 C2402 1.392 . S
C2403 H2415 0.929 . S
C2404 C2400 1.531 . S
C2404 H2416 0.960 . S
C2404 H2417 0.962 . S
C2404 H2418 0.960 . S
C2405 C2402 1.511 . S
C2405 H2419 0.961 . S
C2405 H2420 0.961 . S
C2405 H2421 0.961 . S
C2406 C2407 1.370 . S
C2406 C2408 1.363 . S
C2406 H2422 0.931 . S
C2407 C2406 1.370 . S
C2407 C2411 1.408 . S
C2408 C2406 1.363 . S
C2408 C2409 1.370 . S
C2408 C2412 1.524 . S
C2409 C2401 1.503 . S
C2409 C2408 1.370 . S
C2409 C2410 1.403 . S
C2410 C2409 1.403 . S
C2410 C2411 1.404 . S
C2410 C2413 1.539 . S
C2411 C2407 1.408 . S
C2411 C2410 1.404 . S
C2411 H2423 0.930 . S
C2412 C2408 1.524 . S
C2412 H2424 0.956 . S
C2412 H2425 0.961 . S
C2412 H2426 0.961 . S
C2413 C2410 1.539 . S
C2413 H2427 0.958 . S
C2413 H2428 0.961 . S
C2413 H2429 0.960 . S
H2414 C2398 0.931 . S
H2415 C2403 0.929 . S
H2416 C2404 0.960 . S
H2417 C2404 0.962 . S
H2418 C2404 0.960 . S
H2419 C2405 0.961 . S
H2420 C2405 0.961 . S
H2421 C2405 0.961 . S
H2422 C2406 0.931 . S
H2423 C2411 0.930 . S
H2424 C2412 0.956 . S
H2425 C2412 0.961 . S
H2426 C2412 0.961 . S
H2427 C2413 0.958 . S
H2428 C2413 0.961 . S
H2429 C2413 0.960 . S
C2430 C2431 1.391 . S
C2430 C2432 1.394 . S
C2430 H2446 0.931 . S
C2431 C2430 1.391 . S
C2431 C2435 1.376 . S
C2432 C2430 1.394 . S
C2432 C2433 1.369 . S
C2432 C2436 1.531 . S
C2433 C2432 1.369 . S
C2433 C2434 1.410 . S
C2433 C2441 1.503 . S
C2434 C2433 1.410 . S
C2434 C2435 1.392 . S
C2434 C2437 1.511 . S
C2435 C2431 1.376 . S
C2435 C2434 1.392 . S
C2435 H2447 0.929 . S
C2436 C2432 1.531 . S
C2436 H2448 0.960 . S
C2436 H2449 0.962 . S
C2436 H2450 0.960 . S
C2437 C2434 1.511 . S
C2437 H2451 0.961 . S
C2437 H2452 0.961 . S
C2437 H2453 0.961 . S
C2438 C2439 1.370 . S
C2438 C2440 1.363 . S
C2438 H2454 0.931 . S
C2439 C2438 1.370 . S
C2439 C2443 1.408 . S
C2440 C2438 1.363 . S
C2440 C2441 1.370 . S
C2440 C2444 1.524 . S
C2441 C2433 1.503 . S
C2441 C2440 1.370 . S
C2441 C2442 1.403 . S
C2442 C2441 1.403 . S
C2442 C2443 1.404 . S
C2442 C2445 1.539 . S
C2443 C2439 1.408 . S
C2443 C2442 1.404 . S
C2443 H2455 0.930 . S
C2444 C2440 1.524 . S
C2444 H2456 0.956 . S
C2444 H2457 0.961 . S
C2444 H2458 0.961 . S
C2445 C2442 1.539 . S
C2445 H2459 0.958 . S
C2445 H2460 0.961 . S
C2445 H2461 0.960 . S
H2446 C2430 0.931 . S
H2447 C2435 0.929 . S
H2448 C2436 0.960 . S
H2449 C2436 0.962 . S
H2450 C2436 0.960 . S
H2451 C2437 0.961 . S
H2452 C2437 0.961 . S
H2453 C2437 0.961 . S
H2454 C2438 0.931 . S
H2455 C2443 0.930 . S
H2456 C2444 0.956 . S
H2457 C2444 0.961 . S
H2458 C2444 0.961 . S
H2459 C2445 0.958 . S
H2460 C2445 0.961 . S
H2461 C2445 0.960 . S
C2462 C2463 1.391 . S
C2462 C2464 1.394 . S
C2462 H2478 0.931 . S
C2463 C2462 1.391 . S
C2463 C2467 1.376 . S
C2464 C2462 1.394 . S
C2464 C2465 1.369 . S
C2464 C2468 1.531 . S
C2465 C2464 1.369 . S
C2465 C2466 1.410 . S
C2465 C2473 1.503 . S
C2466 C2465 1.410 . S
C2466 C2467 1.392 . S
C2466 C2469 1.511 . S
C2467 C2463 1.376 . S
C2467 C2466 1.392 . S
C2467 H2479 0.929 . S
C2468 C2464 1.531 . S
C2468 H2480 0.960 . S
C2468 H2481 0.962 . S
C2468 H2482 0.960 . S
C2469 C2466 1.511 . S
C2469 H2483 0.961 . S
C2469 H2484 0.961 . S
C2469 H2485 0.961 . S
C2470 C2471 1.370 . S
C2470 C2472 1.363 . S
C2470 H2486 0.931 . S
C2471 C2470 1.370 . S
C2471 C2475 1.408 . S
C2472 C2470 1.363 . S
C2472 C2473 1.370 . S
C2472 C2476 1.524 . S
C2473 C2465 1.503 . S
C2473 C2472 1.370 . S
C2473 C2474 1.403 . S
C2474 C2473 1.403 . S
C2474 C2475 1.404 . S
C2474 C2477 1.539 . S
C2475 C2471 1.408 . S
C2475 C2474 1.404 . S
C2475 H2487 0.930 . S
C2476 C2472 1.524 . S
C2476 H2488 0.956 . S
C2476 H2489 0.961 . S
C2476 H2490 0.961 . S
C2477 C2474 1.539 . S
C2477 H2491 0.958 . S
C2477 H2492 0.961 . S
C2477 H2493 0.960 . S
H2478 C2462 0.931 . S
H2479 C2467 0.929 . S
H2480 C2468 0.960 . S
H2481 C2468 0.962 . S
H2482 C2468 0.960 . S
H2483 C2469 0.961 . S
H2484 C2469 0.961 . S
H2485 C2469 0.961 . S
H2486 C2470 0.931 . S
H2487 C2475 0.930 . S
H2488 C2476 0.956 . S
H2489 C2476 0.961 . S
H2490 C2476 0.961 . S
H2491 C2477 0.958 . S
H2492 C2477 0.961 . S
H2493 C2477 0.960 . S
C2494 C2495 1.391 . S
C2494 C2496 1.394 . S
C2494 H2510 0.931 . S
C2495 C2494 1.391 . S
C2495 C2499 1.376 . S
C2496 C2494 1.394 . S
C2496 C2497 1.369 . S
C2496 C2500 1.531 . S
C2497 C2496 1.369 . S
C2497 C2498 1.410 . S
C2497 C2505 1.503 . S
C2498 C2497 1.410 . S
C2498 C2499 1.392 . S
C2498 C2501 1.511 . S
C2499 C2495 1.376 . S
C2499 C2498 1.392 . S
C2499 H2511 0.929 . S
C2500 C2496 1.531 . S
C2500 H2512 0.960 . S
C2500 H2513 0.962 . S
C2500 H2514 0.960 . S
C2501 C2498 1.511 . S
C2501 H2515 0.961 . S
C2501 H2516 0.961 . S
C2501 H2517 0.961 . S
C2502 C2503 1.370 . S
C2502 C2504 1.363 . S
C2502 H2518 0.931 . S
C2503 C2502 1.370 . S
C2503 C2507 1.408 . S
C2504 C2502 1.363 . S
C2504 C2505 1.370 . S
C2504 C2508 1.524 . S
C2505 C2497 1.503 . S
C2505 C2504 1.370 . S
C2505 C2506 1.403 . S
C2506 C2505 1.403 . S
C2506 C2507 1.404 . S
C2506 C2509 1.539 . S
C2507 C2503 1.408 . S
C2507 C2506 1.404 . S
C2507 H2519 0.930 . S
C2508 C2504 1.524 . S
C2508 H2520 0.956 . S
C2508 H2521 0.961 . S
C2508 H2522 0.961 . S
C2509 C2506 1.539 . S
C2509 H2523 0.958 . S
C2509 H2524 0.961 . S
C2509 H2525 0.960 . S
H2510 C2494 0.931 . S
H2511 C2499 0.929 . S
H2512 C2500 0.960 . S
H2513 C2500 0.962 . S
H2514 C2500 0.960 . S
H2515 C2501 0.961 . S
H2516 C2501 0.961 . S
H2517 C2501 0.961 . S
H2518 C2502 0.931 . S
H2519 C2507 0.930 . S
H2520 C2508 0.956 . S
H2521 C2508 0.961 . S
H2522 C2508 0.961 . S
H2523 C2509 0.958 . S
H2524 C2509 0.961 . S
H2525 C2509 0.960 . S
C2526 C2527 1.391 . S
C2526 C2528 1.394 . S
C2526 H2542 0.931 . S
C2527 C2526 1.391 . S
C2527 C2531 1.376 . S
C2528 C2526 1.394 . S
C2528 C2529 1.369 . S
C2528 C2532 1.531 . S
C2529 C2528 1.369 . S
C2529 C2530 1.410 . S
C2529 C2537 1.503 . S
C2530 C2529 1.410 . S
C2530 C2531 1.392 . S
C2530 C2533 1.511 . S
C2531 C2527 1.376 . S
C2531 C2530 1.392 . S
C2531 H2543 0.929 . S
C2532 C2528 1.531 . S
C2532 H2544 0.960 . S
C2532 H2545 0.962 . S
C2532 H2546 0.960 . S
C2533 C2530 1.511 . S
C2533 H2547 0.961 . S
C2533 H2548 0.961 . S
C2533 H2549 0.961 . S
C2534 C2535 1.370 . S
C2534 C2536 1.363 . S
C2534 H2550 0.931 . S
C2535 C2534 1.370 . S
C2535 C2539 1.408 . S
C2536 C2534 1.363 . S
C2536 C2537 1.370 . S
C2536 C2540 1.524 . S
C2537 C2529 1.503 . S
C2537 C2536 1.370 . S
C2537 C2538 1.403 . S
C2538 C2537 1.403 . S
C2538 C2539 1.404 . S
C2538 C2541 1.539 . S
C2539 C2535 1.408 . S
C2539 C2538 1.404 . S
C2539 H2551 0.930 . S
C2540 C2536 1.524 . S
C2540 H2552 0.956 . S
C2540 H2553 0.961 . S
C2540 H2554 0.961 . S
C2541 C2538 1.539 . S
C2541 H2555 0.958 . S
C2541 H2556 0.961 . S
C2541 H2557 0.960 . S
H2542 C2526 0.931 . S
H2543 C2531 0.929 . S
H2544 C2532 0.960 . S
H2545 C2532 0.962 . S
H2546 C2532 0.960 . S
H2547 C2533 0.961 . S
H2548 C2533 0.961 . S
H2549 C2533 0.961 . S
H2550 C2534 0.931 . S
H2551 C2539 0.930 . S
H2552 C2540 0.956 . S
H2553 C2540 0.961 . S
H2554 C2540 0.961 . S
H2555 C2541 0.958 . S
H2556 C2541 0.961 . S
H2557 C2541 0.960 . S
C2558 C2559 1.391 . S
C2558 C2560 1.394 . S
C2558 H2574 0.931 . S
C2559 C2558 1.391 . S
C2559 C2563 1.376 . S
C2560 C2558 1.394 . S
C2560 C2561 1.369 . S
C2560 C2564 1.531 . S
C2561 C2560 1.369 . S
C2561 C2562 1.410 . S
C2561 C2569 1.503 . S
C2562 C2561 1.410 . S
C2562 C2563 1.392 . S
C2562 C2565 1.511 . S
C2563 C2559 1.376 . S
C2563 C2562 1.392 . S
C2563 H2575 0.929 . S
C2564 C2560 1.531 . S
C2564 H2576 0.960 . S
C2564 H2577 0.962 . S
C2564 H2578 0.960 . S
C2565 C2562 1.511 . S
C2565 H2579 0.961 . S
C2565 H2580 0.961 . S
C2565 H2581 0.961 . S
C2566 C2567 1.370 . S
C2566 C2568 1.363 . S
C2566 H2582 0.931 . S
C2567 C2566 1.370 . S
C2567 C2571 1.408 . S
C2568 C2566 1.363 . S
C2568 C2569 1.370 . S
C2568 C2572 1.524 . S
C2569 C2561 1.503 . S
C2569 C2568 1.370 . S
C2569 C2570 1.403 . S
C2570 C2569 1.403 . S
C2570 C2571 1.404 . S
C2570 C2573 1.539 . S
C2571 C2567 1.408 . S
C2571 C2570 1.404 . S
C2571 H2583 0.930 . S
C2572 C2568 1.524 . S
C2572 H2584 0.956 . S
C2572 H2585 0.961 . S
C2572 H2586 0.961 . S
C2573 C2570 1.539 . S
C2573 H2587 0.958 . S
C2573 H2588 0.961 . S
C2573 H2589 0.960 . S
H2574 C2558 0.931 . S
H2575 C2563 0.929 . S
H2576 C2564 0.960 . S
H2577 C2564 0.962 . S
H2578 C2564 0.960 . S
H2579 C2565 0.961 . S
H2580 C2565 0.961 . S
H2581 C2565 0.961 . S
H2582 C2566 0.931 . S
H2583 C2571 0.930 . S
H2584 C2572 0.956 . S
H2585 C2572 0.961 . S
H2586 C2572 0.961 . S
H2587 C2573 0.958 . S
H2588 C2573 0.961 . S
H2589 C2573 0.960 . S
C2590 C2591 1.391 . S
C2590 C2592 1.394 . S
C2590 H2606 0.931 . S
C2591 C2590 1.391 . S
C2591 C2595 1.376 . S
C2592 C2590 1.394 . S
C2592 C2593 1.369 . S
C2592 C2596 1.531 . S
C2593 C2592 1.369 . S
C2593 C2594 1.410 . S
C2593 C2601 1.503 . S
C2594 C2593 1.410 . S
C2594 C2595 1.392 . S
C2594 C2597 1.511 . S
C2595 C2591 1.376 . S
C2595 C2594 1.392 . S
C2595 H2607 0.929 . S
C2596 C2592 1.531 . S
C2596 H2608 0.960 . S
C2596 H2609 0.962 . S
C2596 H2610 0.960 . S
C2597 C2594 1.511 . S
C2597 H2611 0.961 . S
C2597 H2612 0.961 . S
C2597 H2613 0.961 . S
C2598 C2599 1.370 . S
C2598 C2600 1.363 . S
C2598 H2614 0.931 . S
C2599 C2598 1.370 . S
C2599 C2603 1.408 . S
C2600 C2598 1.363 . S
C2600 C2601 1.370 . S
C2600 C2604 1.524 . S
C2601 C2593 1.503 . S
C2601 C2600 1.370 . S
C2601 C2602 1.403 . S
C2602 C2601 1.403 . S
C2602 C2603 1.404 . S
C2602 C2605 1.539 . S
C2603 C2599 1.408 . S
C2603 C2602 1.404 . S
C2603 H2615 0.930 . S
C2604 C2600 1.524 . S
C2604 H2616 0.956 . S
C2604 H2617 0.961 . S
C2604 H2618 0.961 . S
C2605 C2602 1.539 . S
C2605 H2619 0.958 . S
C2605 H2620 0.961 . S
C2605 H2621 0.960 . S
H2606 C2590 0.931 . S
H2607 C2595 0.929 . S
H2608 C2596 0.960 . S
H2609 C2596 0.962 . S
H2610 C2596 0.960 . S
H2611 C2597 0.961 . S
H2612 C2597 0.961 . S
H2613 C2597 0.961 . S
H2614 C2598 0.931 . S
H2615 C2603 0.930 . S
H2616 C2604 0.956 . S
H2617 C2604 0.961 . S
H2618 C2604 0.961 . S
H2619 C2605 0.958 . S
H2620 C2605 0.961 . S
H2621 C2605 0.960 . S
C2622 C2623 1.391 . S
C2622 C2624 1.394 . S
C2622 H2638 0.931 . S
C2623 C2622 1.391 . S
C2623 C2627 1.376 . S
C2624 C2622 1.394 . S
C2624 C2625 1.369 . S
C2624 C2628 1.531 . S
C2625 C2624 1.369 . S
C2625 C2626 1.410 . S
C2625 C2633 1.503 . S
C2626 C2625 1.410 . S
C2626 C2627 1.392 . S
C2626 C2629 1.511 . S
C2627 C2623 1.376 . S
C2627 C2626 1.392 . S
C2627 H2639 0.929 . S
C2628 C2624 1.531 . S
C2628 H2640 0.960 . S
C2628 H2641 0.962 . S
C2628 H2642 0.960 . S
C2629 C2626 1.511 . S
C2629 H2643 0.961 . S
C2629 H2644 0.961 . S
C2629 H2645 0.961 . S
C2630 C2631 1.370 . S
C2630 C2632 1.363 . S
C2630 H2646 0.931 . S
C2631 C2630 1.370 . S
C2631 C2635 1.408 . S
C2632 C2630 1.363 . S
C2632 C2633 1.370 . S
C2632 C2636 1.524 . S
C2633 C2625 1.503 . S
C2633 C2632 1.370 . S
C2633 C2634 1.403 . S
C2634 C2633 1.403 . S
C2634 C2635 1.404 . S
C2634 C2637 1.539 . S
C2635 C2631 1.408 . S
C2635 C2634 1.404 . S
C2635 H2647 0.930 . S
C2636 C2632 1.524 . S
C2636 H2648 0.956 . S
C2636 H2649 0.961 . S
C2636 H2650 0.961 . S
C2637 C2634 1.539 . S
C2637 H2651 0.958 . S
C2637 H2652 0.961 . S
C2637 H2653 0.960 . S
H2638 C2622 0.931 . S
H2639 C2627 0.929 . S
H2640 C2628 0.960 . S
H2641 C2628 0.962 . S
H2642 C2628 0.960 . S
H2643 C2629 0.961 . S
H2644 C2629 0.961 . S
H2645 C2629 0.961 . S
H2646 C2630 0.931 . S
H2647 C2635 0.930 . S
H2648 C2636 0.956 . S
H2649 C2636 0.961 . S
H2650 C2636 0.961 . S
H2651 C2637 0.958 . S
H2652 C2637 0.961 . S
H2653 C2637 0.960 . S
C2654 C2655 1.391 . S
C2654 C2656 1.394 . S
C2654 H2670 0.931 . S
C2655 C2654 1.391 . S
C2655 C2659 1.376 . S
C2656 C2654 1.394 . S
C2656 C2657 1.369 . S
C2656 C2660 1.531 . S
C2657 C2656 1.369 . S
C2657 C2658 1.410 . S
C2657 C2665 1.503 . S
C2658 C2657 1.410 . S
C2658 C2659 1.392 . S
C2658 C2661 1.511 . S
C2659 C2655 1.376 . S
C2659 C2658 1.392 . S
C2659 H2671 0.929 . S
C2660 C2656 1.531 . S
C2660 H2672 0.960 . S
C2660 H2673 0.962 . S
C2660 H2674 0.960 . S
C2661 C2658 1.511 . S
C2661 H2675 0.961 . S
C2661 H2676 0.961 . S
C2661 H2677 0.961 . S
C2662 C2663 1.370 . S
C2662 C2664 1.363 . S
C2662 H2678 0.931 . S
C2663 C2662 1.370 . S
C2663 C2667 1.408 . S
C2664 C2662 1.363 . S
C2664 C2665 1.370 . S
C2664 C2668 1.524 . S
C2665 C2657 1.503 . S
C2665 C2664 1.370 . S
C2665 C2666 1.403 . S
C2666 C2665 1.403 . S
C2666 C2667 1.404 . S
C2666 C2669 1.539 . S
C2667 C2663 1.408 . S
C2667 C2666 1.404 . S
C2667 H2679 0.930 . S
C2668 C2664 1.524 . S
C2668 H2680 0.956 . S
C2668 H2681 0.961 . S
C2668 H2682 0.961 . S
C2669 C2666 1.539 . S
C2669 H2683 0.958 . S
C2669 H2684 0.961 . S
C2669 H2685 0.960 . S
H2670 C2654 0.931 . S
H2671 C2659 0.929 . S
H2672 C2660 0.960 . S
H2673 C2660 0.962 . S
H2674 C2660 0.960 . S
H2675 C2661 0.961 . S
H2676 C2661 0.961 . S
H2677 C2661 0.961 . S
H2678 C2662 0.931 . S
H2679 C2667 0.930 . S
H2680 C2668 0.956 . S
H2681 C2668 0.961 . S
H2682 C2668 0.961 . S
H2683 C2669 0.958 . S
H2684 C2669 0.961 . S
H2685 C2669 0.960 . S
C2686 C2687 1.391 . S
C2686 C2688 1.394 . S
C2686 H2702 0.931 . S
C2687 C2686 1.391 . S
C2687 C2691 1.376 . S
C2688 C2686 1.394 . S
C2688 C2689 1.369 . S
C2688 C2692 1.531 . S
C2689 C2688 1.369 . S
C2689 C2690 1.410 . S
C2689 C2697 1.503 . S
C2690 C2689 1.410 . S
C2690 C2691 1.392 . S
C2690 C2693 1.511 . S
C2691 C2687 1.376 . S
C2691 C2690 1.392 . S
C2691 H2703 0.929 . S
C2692 C2688 1.531 . S
C2692 H2704 0.960 . S
C2692 H2705 0.962 . S
C2692 H2706 0.960 . S
C2693 C2690 1.511 . S
C2693 H2707 0.961 . S
C2693 H2708 0.961 . S
C2693 H2709 0.961 . S
C2694 C2695 1.370 . S
C2694 C2696 1.363 . S
C2694 H2710 0.931 . S
C2695 C2694 1.370 . S
C2695 C2699 1.408 . S
C2696 C2694 1.363 . S
C2696 C2697 1.370 . S
C2696 C2700 1.524 . S
C2697 C2689 1.503 . S
C2697 C2696 1.370 . S
C2697 C2698 1.403 . S
C2698 C2697 1.403 . S
C2698 C2699 1.404 . S
C2698 C2701 1.539 . S
C2699 C2695 1.408 . S
C2699 C2698 1.404 . S
C2699 H2711 0.930 . S
C2700 C2696 1.524 . S
C2700 H2712 0.956 . S
C2700 H2713 0.961 . S
C2700 H2714 0.961 . S
C2701 C2698 1.539 . S
C2701 H2715 0.958 . S
C2701 H2716 0.961 . S
C2701 H2717 0.960 . S
H2702 C2686 0.931 . S
H2703 C2691 0.929 . S
H2704 C2692 0.960 . S
H2705 C2692 0.962 . S
H2706 C2692 0.960 . S
H2707 C2693 0.961 . S
H2708 C2693 0.961 . S
H2709 C2693 0.961 . S
H2710 C2694 0.931 . S
H2711 C2699 0.930 . S
H2712 C2700 0.956 . S
H2713 C2700 0.961 . S
H2714 C2700 0.961 . S
H2715 C2701 0.958 . S
H2716 C2701 0.961 . S
H2717 C2701 0.960 . S
C991 N170 1.986 . S
C999 C290 1.893 . S
C1023 N184 0.980 . S
C1031 C374 0.943 . S
C1055 N158 1.563 . S
C1063 C468 1.521 . S
C1087 N145 1.539 . S
C1095 C384 1.498 1_556 S
C1127 C458 0.873 . S
C1119 N119 0.914 . S
C1151 N131 1.919 . S
C1159 C300 1.897 . S
C1191 C301 1.564 . S
C1183 N144 1.645 . S
C1223 C385 1.338 . S
C1215 N118 1.381 . S
C1247 N132 1.437 . S
C1255 C477 1.430 . S
C1279 N171 1.422 . S
C1287 C393 1.414 . S
C1311 N183 1.324 . S
C1319 C469 1.299 . S
C1351 C309 1.577 . S
C1343 N157 1.593 . S
C1383 C542 1.894 . S
C1375 N14 1.983 . S
C1407 N28 0.928 . S
C1415 C626 0.919 . S
C1439 N2 1.546 . S
C1447 C720 1.535 . S
C1471 N223 1.537 . S
C1479 C636 1.498 . S
C1503 N197 0.879 . S
C1511 C710 0.875 . S
C1535 N209 1.943 . S
C1543 C552 1.895 . S
C1567 N222 1.634 . S
C1575 C553 1.581 . S
C1599 N196 1.358 . S
C1607 C637 1.354 . S
C1639 C729 1.421 . S
C1631 N210 1.442 . S
C1663 N15 1.416 . S
C1671 C645 1.418 . S
C1703 C721 1.290 . S
C1695 N27 1.334 . S
C1727 N1 1.594 . S
C1735 C561 1.576 . S
C1767 C794 1.903 . S
C1759 N92 1.969 . S
C1791 N106 0.976 . S
C1799 C878 0.937 . S
C1831 C972 1.540 . S
C1823 N80 1.548 . S
C1863 C888 1.506 . S
C1855 N67 1.528 . S
C1895 C962 0.891 . S
C1887 N41 0.930 . S
C1919 N53 1.947 . S
C1927 C804 1.891 . S
C1951 N66 1.648 . S
C1959 C805 1.568 . S
C1983 N40 1.373 . S
C1991 C889 1.346 . S
C2023 C981 1.435 . S
C2015 N54 1.427 . S
C2047 N93 1.416 . S
C2055 C897 1.417 . S
C2079 N105 1.291 . S
C2087 C973 1.302 . S
C2111 N79 1.602 . S
C2119 C813 1.557 . S
C2143 N200 1.244 . S
C2151 C297 1.125 . S
C2183 C381 1.614 . S
C2175 N213 1.774 . S
C2207 N226 1.486 . S
C2215 C474 1.374 . S
C2239 N83 1.538 . S
C2247 C390 1.392 . S
C2271 N96 1.766 . S
C2279 C465 1.568 . S
C2311 C306 1.151 . S
C2303 N109 1.266 . S
C2335 N44 1.222 . S
C2343 C549 1.113 . S
C2367 N57 1.762 . S
C2375 C633 1.620 . S
C2399 N70 1.508 . S
C2407 C726 1.372 . S
C2431 N161 1.515 . S
C2439 C642 1.402 . S
C2471 C717 1.572 . S
C2463 N174 1.774 . S
C2495 N187 1.280 . S
C2503 C558 1.163 . S
C2527 N122 1.237 . S
C2535 C801 1.119 . S
C2559 N135 1.795 . S
C2567 C885 1.583 . S
C2599 C978 1.375 . S
C2591 N148 1.508 . S
C2623 N5 1.520 . S
C2631 C894 1.392 . S
C2655 N18 1.738 . S
C2663 C969 1.604 . S
C2687 N31 1.262 . S
C2695 C810 1.194 . S
