# Generated by pormake.
# Topology tsx, (6,3)-cn, num edge types: 1
# Building blocks:
#     Node 0, Type 0, BuildingBlock: VOLQOD_clean_sbu_1, # of connection points: 6
#     Node 1, Type 0, BuildingBlock: VOLQOD_clean_sbu_1, # of connection points: 6
#     Node 2, Type 1, BuildingBlock: BETDAH_clean_linker_0, # of connection points: 3
#     Node 3, Type 1, BuildingBlock: BETDAH_clean_linker_0, # of connection points: 3
#     Node 4, Type 1, BuildingBlock: BETDAH_clean_linker_0, # of connection points: 3
#     Node 5, Type 1, BuildingBlock: BETDAH_clean_linker_0, # of connection points: 3
#     Edge 6, Type (0, 1), BuildingBlock: UVAHIK_clean_linker_0, # of connection points: 2
#     Edge 7, Type (0, 1), BuildingBlock: UVAHIK_clean_linker_0, # of connection points: 2
#     Edge 8, Type (0, 1), BuildingBlock: UVAHIK_clean_linker_0, # of connection points: 2
#     Edge 9, Type (0, 1), BuildingBlock: UVAHIK_clean_linker_0, # of connection points: 2
#     Edge 10, Type (0, 1), BuildingBlock: UVAHIK_clean_linker_0, # of connection points: 2
#     Edge 11, Type (0, 1), BuildingBlock: UVAHIK_clean_linker_0, # of connection points: 2
#     Edge 12, Type (0, 1), BuildingBlock: UVAHIK_clean_linker_0, # of connection points: 2
#     Edge 13, Type (0, 1), BuildingBlock: UVAHIK_clean_linker_0, # of connection points: 2
#     Edge 14, Type (0, 1), BuildingBlock: UVAHIK_clean_linker_0, # of connection points: 2
#     Edge 15, Type (0, 1), BuildingBlock: UVAHIK_clean_linker_0, # of connection points: 2
#     Edge 16, Type (0, 1), BuildingBlock: UVAHIK_clean_linker_0, # of connection points: 2
#     Edge 17, Type (0, 1), BuildingBlock: UVAHIK_clean_linker_0, # of connection points: 2
# Relax obj value: 0.053
# Max RMSD: 0.114
# Mean RMSD: 0.101
data_MOF--net-tsx--node1-VOLQOD_clean_sbu_1--node2-BETDAH_clean_linker_0--edge1-UVAHIK_clean_linker_0
_symmetry_space_group_name_H-M    P1
_symmetry_Int_Tables_number       1
_symmetry_cell_setting            triclinic
loop_
_symmetry_equiv_pos_as_xyz
'x, y, z'
_cell_length_a     27.09753
_cell_length_b     28.039994
_cell_length_c     48.32184
_cell_angle_alpha  90.445026
_cell_angle_beta   97.734281
_cell_angle_gamma 90.256831
loop_
_atom_site_label
_atom_site_type_symbol
_atom_site_fract_x
_atom_site_fract_y
_atom_site_fract_z
_atom_type_partial_charge
O0 O 0.04429 0.02425 0.07057 0.0
Zn1 Zn 0.05755 0.02196 0.03016 0.0
O2 O 0.99597 0.03117 0.00433 0.0
Zn3 Zn 0.98492 0.9765 0.97899 0.0
Zn4 Zn 0.93995 0.03626 0.02547 0.0
Zn5 Zn 9e-05 0.08971 0.98288 0.0
O6 O 0.97984 0.99695 0.9388 0.0
O7 O 0.99692 0.07454 0.94171 0.0
O8 O 0.09145 0.95992 0.0225 0.0
O9 O 0.04231 0.931 0.98569 0.0
O10 O 0.92414 0.93855 0.98554 0.0
O11 O 0.89593 0.97807 0.02008 0.0
O12 O 0.89871 0.09407 0.01482 0.0
O13 O 0.10616 0.07486 0.02549 0.0
O14 O 0.94323 0.13437 0.98745 0.0
O15 O 0.0647 0.12442 0.99514 0.0
C16 C 0.00532 0.0349 0.0814 0.0
C17 C 0.98732 0.03658 0.92727 0.0
C18 C 0.89352 0.94274 0.00323 0.0
C19 C 0.08114 0.92808 0.00362 0.0
C20 C 0.9053 0.13063 0.00029 0.0
C21 C 0.10367 0.11337 0.01157 0.0
O22 O 0.96382 0.04206 0.06634 0.0
O23 O 0.55813 0.51038 0.57026 0.0
Zn24 Zn 0.56846 0.51303 0.52922 0.0
O25 O 0.5058 0.52524 0.50479 0.0
Zn26 Zn 0.49081 0.4734 0.47795 0.0
Zn27 Zn 0.45213 0.5292 0.52745 0.0
Zn28 Zn 0.50984 0.5849 0.48451 0.0
O29 O 0.48147 0.49698 0.43836 0.0
O30 O 0.50437 0.57306 0.44281 0.0
O31 O 0.60092 0.45243 0.51768 0.0
O32 O 0.54844 0.42887 0.48076 0.0
O33 O 0.43141 0.43434 0.48556 0.0
O34 O 0.40692 0.472 0.52181 0.0
O35 O 0.41154 0.58775 0.51899 0.0
O36 O 0.61696 0.56676 0.52572 0.0
O37 O 0.45407 0.62917 0.49108 0.0
O38 O 0.57493 0.61828 0.49685 0.0
C39 C 0.52044 0.52175 0.58209 0.0
C40 C 0.49085 0.53677 0.42757 0.0
C41 C 0.40262 0.43768 0.50425 0.0
C42 C 0.58874 0.42375 0.49728 0.0
C43 C 0.41739 0.62493 0.50485 0.0
C44 C 0.61419 0.60625 0.51272 0.0
O45 O 0.47887 0.53185 0.56791 0.0
H46 H 0.06409 0.95716 0.38104 0.0
H47 H 0.91447 0.01174 0.37616 0.0
H48 H 0.97964 0.93692 0.44903 0.0
C49 C 0.02991 0.96242 0.38998 0.0
C50 C 0.02656 0.94444 0.41663 0.0
C51 C 0.98954 0.98612 0.37472 0.0
C52 C 0.94649 0.99428 0.3875 0.0
C53 C 0.94341 0.97692 0.41445 0.0
C54 C 0.98307 0.95159 0.42868 0.0
N55 N 0.89953 0.98189 0.427 0.0
C56 C 0.87713 0.02574 0.42938 0.0
H57 H 0.96404 0.94792 0.62722 0.0
H58 H 0.11065 0.01146 0.6402 0.0
H59 H 0.06386 0.92888 0.5661 0.0
C60 C -0.00051 0.95539 0.62004 0.0
C61 C 0.00917 0.9361 0.59447 0.0
C62 C 0.03608 0.98183 0.63713 0.0
C63 C 0.08163 0.99166 0.6273 0.0
C64 C 0.09125 0.97284 0.60156 0.0
C65 C 0.05552 0.94438 0.58556 0.0
N66 N 0.13836 0.97891 0.59261 0.0
C67 C 0.15387 0.02287 0.58398 0.0
H68 H 0.56902 0.4716 0.88947 0.0
H69 H 0.4158 0.51447 0.87163 0.0
H70 H 0.4743 0.47123 0.95428 0.0
C71 C 0.53346 0.47889 0.89644 0.0
C72 C 0.52693 0.46937 0.92428 0.0
C73 C 0.49389 0.49542 0.87713 0.0
C74 C 0.44749 0.50353 0.88626 0.0
C75 C 0.44091 0.4956 0.9141 0.0
C76 C 0.48045 0.47864 0.93304 0.0
N77 N 0.39281 0.49921 0.9221 0.0
C78 C 0.37837 0.53886 0.93628 0.0
H79 H 0.45738 0.45276 0.12688 0.0
H80 H 0.60486 0.51456 0.13893 0.0
H81 H 0.55554 0.43235 0.06505 0.0
C82 C 0.49275 0.45974 0.1195 0.0
C83 C 0.50164 0.44025 0.09383 0.0
C84 C 0.52998 0.48579 0.13639 0.0
C85 C 0.57535 0.49507 0.12622 0.0
C86 C 0.58417 0.47609 0.10036 0.0
C87 C 0.54783 0.44797 0.0846 0.0
N88 N 0.63103 0.48167 0.09102 0.0
C89 C 0.64729 0.52564 0.08282 0.0
C90 C 0.19488 0.12892 0.02371 0.0
C91 C 0.14685 0.14621 0.01492 0.0
C92 C 0.2356 0.16006 0.0278 0.0
C93 C 0.27494 0.28528 0.01504 0.0
H94 H 0.37641 0.25845 0.07744 0.0
C95 C 0.41412 0.42306 0.07225 0.0
C96 C 0.46397 0.4086 0.07801 0.0
C97 C 0.37758 0.39116 0.06011 0.0
C98 C 0.34865 0.26607 0.05973 0.0
H99 H 0.10367 0.20954 0.0033 0.0
H100 H 0.17415 0.2643 0.01172 0.0
H101 H 0.30808 0.20244 0.06547 0.0
H102 H 0.51514 0.35021 0.07504 0.0
H103 H 0.45092 0.29402 0.05429 0.0
H104 H 0.31479 0.35053 0.01059 0.0
C105 C 0.18095 0.22653 0.0146 0.0
C106 C 0.30951 0.23386 0.05273 0.0
C107 C 0.14037 0.19519 0.00995 0.0
C108 C 0.47698 0.36225 0.07061 0.0
C109 C 0.44033 0.33012 0.05892 0.0
C110 C 0.31371 0.31797 0.02242 0.0
C111 C 0.2291 0.20944 0.02381 0.0
C112 C 0.27194 0.24305 0.03035 0.0
C113 C 0.39023 0.34409 0.05402 0.0
C114 C 0.35077 0.30863 0.04488 0.0
H115 H 0.20109 0.0912 0.02733 0.0
H116 H 0.27216 0.14529 0.03418 0.0
H117 H 0.24733 0.29326 0.99737 0.0
H118 H 0.40331 0.4587 0.07772 0.0
H119 H 0.33912 0.40262 0.05667 0.0
C120 C 0.16274 0.88653 0.01768 0.0
C121 C 0.11508 0.8871 0.00199 0.0
C122 C 0.19517 0.84849 0.01505 0.0
C123 C 0.19741 0.72288 0.99156 0.0
H124 H 0.33354 0.75029 0.98006 0.0
C125 C 0.33219 0.57202 0.97235 0.0
C126 C 0.35836 0.57911 0.94963 0.0
C127 C 0.30752 0.61008 0.98325 0.0
C128 C 0.29566 0.74208 0.9833 0.0
H129 H 0.06389 0.84757 0.97165 0.0
H130 H 0.12019 0.78158 0.96718 0.0
H131 H 0.27912 0.81546 0.99053 0.0
H132 H 0.38103 0.63066 0.92073 0.0
H133 H 0.33774 0.69749 0.9396 0.0
H134 H 0.21314 0.64987 0.9834 0.0
C135 C 0.13248 0.81035 0.9816 0.0
C136 C 0.26466 0.77933 0.98955 0.0
C137 C 0.10032 0.84842 0.98404 0.0
C138 C 0.36121 0.62478 0.93846 0.0
C139 C 0.33663 0.66293 0.94935 0.0
C140 C 0.2284 0.68568 0.98546 0.0
C141 C 0.18037 0.81004 0.99693 0.0
C142 C 0.21489 0.77021 0.99318 0.0
C143 C 0.30861 0.65579 0.9715 0.0
C144 C 0.27762 0.69492 0.98076 0.0
H145 H 0.17531 0.91577 0.03168 0.0
H146 H 0.23175 0.84907 0.02726 0.0
H147 H 0.1594 0.71466 0.99457 0.0
H148 H 0.3296 0.53681 0.98116 0.0
H149 H 0.28679 0.60354 0.00052 0.0
C150 C 0.82817 0.90445 0.02795 0.0
C151 C 0.85757 0.90364 0.00608 0.0
C152 C 0.79912 0.86495 0.03296 0.0
C153 C 0.79503 0.73504 0.0219 0.0
H154 H 0.66783 0.74438 0.04991 0.0
C155 C 0.68543 0.56803 0.04686 0.0
C156 C 0.6654 0.56911 0.07208 0.0
C157 C 0.70448 0.60964 0.03652 0.0
C158 C 0.70347 0.74127 0.04227 0.0
H159 H 0.87707 0.86158 0.97129 0.0
H160 H 0.82575 0.79304 0.97976 0.0
H161 H 0.70745 0.81629 0.03475 0.0
H162 H 0.64826 0.61344 0.10629 0.0
H163 H 0.68207 0.68666 0.0884 0.0
H164 H 0.79147 0.66026 0.0297 0.0
C165 C 0.82606 0.82386 0.99343 0.0
C166 C 0.72615 0.78243 0.03356 0.0
C167 C 0.85523 0.86331 0.98846 0.0
C168 C 0.66371 0.61218 0.08674 0.0
C169 C 0.68271 0.65394 0.0764 0.0
C170 C 0.77233 0.69397 0.03052 0.0
C171 C 0.79863 0.82375 0.01616 0.0
C172 C 0.77244 0.77984 0.02351 0.0
C173 C 0.70375 0.65301 0.05129 0.0
C174 C 0.72652 0.69663 0.04104 0.0
H175 H 0.829 0.93489 0.04195 0.0
H176 H 0.77882 0.86599 0.05079 0.0
H177 H 0.83112 0.73181 0.0148 0.0
H178 H 0.68669 0.53494 0.03524 0.0
H179 H 0.71978 0.60785 0.01696 0.0
C180 C 0.87631 0.21243 0.98497 0.0
C181 C 0.86796 0.16933 0.99834 0.0
C182 C 0.84051 0.24846 0.98281 0.0
C183 C 0.70648 0.26513 0.98067 0.0
H184 H 0.74056 0.3991 0.99132 0.0
C185 C 0.55497 0.40606 0.95927 0.0
C186 C 0.56688 0.44448 0.9428 0.0
C187 C 0.59239 0.37667 0.97237 0.0
C188 C 0.73045 0.36186 0.98815 0.0
H189 H 0.81568 0.13074 0.02035 0.0
H190 H 0.75329 0.19344 0.01635 0.0
H191 H 0.80533 0.33878 0.00103 0.0
H192 H 0.62788 0.48484 0.92952 0.0
H193 H 0.69286 0.43256 0.95132 0.0
H194 H 0.63232 0.28768 0.96669 0.0
C195 C 0.78745 0.19923 0.00747 0.0
C196 C 0.76754 0.32737 0.99372 0.0
C197 C 0.82331 0.16337 0.00981 0.0
C198 C 0.61733 0.45491 0.94153 0.0
C199 C 0.65472 0.4252 0.95437 0.0
C200 C 0.66956 0.2995 0.97489 0.0
C201 C 0.79549 0.242 0.99379 0.0
C202 C 0.75599 0.27869 0.98971 0.0
C203 C 0.64254 0.38465 0.96906 0.0
C204 C 0.68111 0.34836 0.97822 0.0
H205 H 0.91035 0.21827 0.976 0.0
H206 H 0.84749 0.28087 0.97188 0.0
H207 H 0.69655 0.22793 0.977 0.0
H208 H 0.51657 0.3968 0.96071 0.0
H209 H 0.58176 0.34644 0.98412 0.0
C210 C 0.70545 0.6219 0.5251 0.0
C211 C 0.65734 0.63913 0.51642 0.0
C212 C 0.74611 0.65314 0.52915 0.0
C213 C 0.78485 0.77827 0.51589 0.0
H214 H 0.88683 0.75273 0.57823 0.0
C215 C 0.92218 0.91784 0.57246 0.0
C216 C 0.97219 0.90399 0.5785 0.0
C217 C 0.88618 0.88541 0.56035 0.0
C218 C 0.85894 0.75997 0.56053 0.0
H219 H 0.61398 0.70251 0.50509 0.0
H220 H 0.68432 0.75731 0.5134 0.0
H221 H 0.81891 0.6961 0.56658 0.0
H222 H 0.02421 0.84616 0.57602 0.0
H223 H 0.96092 0.78903 0.5553 0.0
H224 H 0.8241 0.84372 0.5111 0.0
C225 C 0.69122 0.71955 0.51621 0.0
C226 C 0.82004 0.72742 0.55372 0.0
C227 C 0.65072 0.68816 0.51164 0.0
C228 C 0.98592 0.85773 0.57137 0.0
C229 C 0.9498 0.82507 0.5597 0.0
C230 C 0.82338 0.81126 0.52306 0.0
C231 C 0.73947 0.70251 0.52517 0.0
C232 C 0.78224 0.73622 0.53141 0.0
C233 C 0.89954 0.83841 0.55456 0.0
C234 C 0.86058 0.80242 0.54552 0.0
H235 H 0.71176 0.58417 0.5286 0.0
H236 H 0.78275 0.63846 0.53542 0.0
H237 H 0.75705 0.7859 0.49824 0.0
H238 H 0.91083 0.9534 0.57774 0.0
H239 H 0.84759 0.89639 0.55674 0.0
C240 C 0.61134 0.35629 0.46748 0.0
C241 C 0.62263 0.38465 0.49166 0.0
C242 C 0.64374 0.3206 0.4612 0.0
C243 C 0.74256 0.2417 0.49226 0.0
H244 H 0.76791 0.22672 0.41553 0.0
C245 C 0.87296 0.09598 0.45937 0.0
C246 C 0.85485 0.07045 0.43509 0.0
C247 C 0.8493 0.13769 0.46629 0.0
C248 C 0.76095 0.23027 0.437 0.0
H249 H 0.67669 0.3972 0.52841 0.0
H250 H 0.7334 0.33422 0.5174 0.0
H251 H 0.71777 0.29337 0.42826 0.0
H252 H 0.79908 0.06753 0.39866 0.0
H253 H 0.75709 0.14051 0.41071 0.0
H254 H 0.78483 0.17801 0.5009 0.0
C255 C 0.69929 0.33991 0.50338 0.0
C256 C 0.73232 0.26843 0.44429 0.0
C257 C 0.6669 0.37598 0.50963 0.0
C258 C 0.81358 0.0872 0.41742 0.0
C259 C 0.78985 0.12895 0.42429 0.0
C260 C 0.77115 0.20343 0.48495 0.0
C261 C 0.68816 0.31219 0.47895 0.0
C262 C 0.72214 0.27408 0.47189 0.0
C263 C 0.80713 0.15435 0.44898 0.0
C264 C 0.77999 0.19691 0.45715 0.0
H265 H 0.57758 0.36183 0.45315 0.0
H266 H 0.63373 0.29925 0.44249 0.0
H267 H 0.73492 0.24494 0.51363 0.0
H268 H 0.90489 0.08325 0.47323 0.0
H269 H 0.86384 0.15674 0.48525 0.0
C270 C 0.33825 0.39936 0.52964 0.0
C271 C 0.36633 0.39893 0.50719 0.0
C272 C 0.30855 0.36027 0.53449 0.0
C273 C 0.30029 0.23104 0.52141 0.0
H274 H 0.17558 0.24215 0.55196 0.0
C275 C 0.18925 0.06549 0.54712 0.0
C276 C 0.17133 0.06636 0.57295 0.0
C277 C 0.2081 0.10702 0.53659 0.0
C278 C 0.21051 0.23854 0.54358 0.0
H279 H 0.38289 0.35802 0.47129 0.0
H280 H 0.33044 0.29014 0.47953 0.0
H281 H 0.21601 0.3137 0.53692 0.0
H282 H 0.15764 0.11026 0.60806 0.0
H283 H 0.19111 0.18334 0.58984 0.0
H284 H 0.29526 0.1561 0.52839 0.0
C285 C 0.33226 0.32036 0.49373 0.0
C286 C 0.23365 0.27948 0.53495 0.0
C287 C 0.3621 0.35942 0.48891 0.0
C288 C 0.17143 0.10918 0.58803 0.0
C289 C 0.19023 0.15086 0.5775 0.0
C290 C 0.27713 0.19018 0.52995 0.0
C291 C 0.30607 0.31986 0.51696 0.0
C292 C 0.27912 0.27626 0.52404 0.0
C293 C 0.20929 0.1501 0.55179 0.0
C294 C 0.23225 0.19348 0.54141 0.0
H295 H 0.34053 0.42919 0.54415 0.0
H296 H 0.28927 0.36096 0.55272 0.0
H297 H 0.33573 0.22728 0.51361 0.0
H298 H 0.18913 0.03258 0.53518 0.0
H299 H 0.22187 0.10539 0.51657 0.0
C300 C 0.33565 0.65594 0.51557 0.0
C301 C 0.37961 0.66296 0.50359 0.0
C302 C 0.29792 0.68987 0.51233 0.0
C303 C 0.21417 0.74534 0.47959 0.0
H304 H 0.23415 0.88247 0.48395 0.0
C305 C 0.08498 0.87644 0.4164 0.0
C306 C 0.06704 0.91489 0.4308 0.0
C307 C 0.12222 0.84735 0.42965 0.0
C308 C 0.22805 0.84425 0.48301 0.0
H309 H 0.41957 0.71239 0.48018 0.0
H310 H 0.35337 0.77164 0.47448 0.0
H311 H 0.30316 0.8292 0.50084 0.0
H312 H 0.07392 0.95368 0.47011 0.0
H313 H 0.14056 0.90286 0.49332 0.0
H314 H 0.13985 0.76019 0.46077 0.0
C315 C 0.34834 0.73986 0.48642 0.0
C316 C 0.26743 0.8139 0.49246 0.0
C317 C 0.38602 0.70574 0.48948 0.0
C318 C 0.08725 0.92409 0.45867 0.0
C319 C 0.12526 0.8953 0.47184 0.0
C320 C 0.17515 0.77558 0.46986 0.0
C321 C 0.30351 0.73166 0.49725 0.0
C322 C 0.26098 0.76418 0.49038 0.0
C323 C 0.14261 0.85648 0.45744 0.0
C324 C 0.18208 0.82519 0.47098 0.0
H325 H 0.32963 0.62355 0.52675 0.0
H326 H 0.26383 0.68294 0.52107 0.0
H327 H 0.20831 0.70717 0.4775 0.0
H328 H 0.06962 0.86846 0.39498 0.0
H329 H 0.13542 0.81783 0.41808 0.0
C330 C 0.0441 0.01464 0.12994 0.0
C331 C 0.00754 0.03875 0.11207 0.0
C332 C 0.04374 0.01601 0.15886 0.0
C333 C 0.95885 0.04177 0.21162 0.0
H334 H 0.08072 0.03011 0.26318 0.0
C335 C 0.9686 0.04031 0.33314 0.0
C336 C 0.99181 -0.00096 0.34502 0.0
C337 C 0.97111 0.0515 0.30514 0.0
C338 C 0.04646 0.03368 0.24896 0.0
H339 H 0.94343 0.08518 0.1105 0.0
H340 H 0.94402 0.08928 0.16079 0.0
H341 H 0.08518 0.03929 0.21341 0.0
H342 H 0.03414 0.93632 0.33602 0.0
H343 H 0.04032 0.95722 0.28803 0.0
H344 H 0.92045 0.03658 0.24753 0.0
C345 C 0.97189 0.06774 0.15262 0.0
C346 C 0.0489 0.03848 0.22043 0.0
C347 C 0.97172 0.06564 0.12373 0.0
C348 C 0.01726 0.96928 0.32811 0.0
C349 C 0.0206 0.98098 0.30047 0.0
C350 C 0.95653 0.03782 0.24023 0.0
C351 C 0.00733 0.04227 0.17059 0.0
C352 C 0.00507 0.0415 0.20126 0.0
C353 C -0.0024 0.02208 0.28872 0.0
C354 C 0.00025 0.0327 0.25904 0.0
H355 H 0.07202 0.99344 0.12154 0.0
H356 H 0.07119 0.99526 0.17189 0.0
H357 H 0.92421 0.04322 0.19759 0.0
H358 H 0.94896 0.06423 0.3455 0.0
H359 H 0.95296 0.08338 0.2964 0.0
C360 C 0.97141 -0.00213 0.87995 0.0
C361 C 0.98673 0.03804 0.89654 0.0
C362 C 0.97304 -0.00175 0.85119 0.0
C363 C 0.03699 0.05502 0.79779 0.0
H364 H 0.93113 0.99589 0.74684 0.0
C365 C 0.04298 0.03927 0.67804 0.0
C366 C 0.02807 0.99473 0.6661 0.0
C367 C 0.03537 0.0503 0.7055 0.0
C368 C 0.96114 0.01233 0.7608 0.0
H369 H 0.01522 0.11043 0.89573 0.0
H370 H 0.01815 0.11092 0.84541 0.0
H371 H 0.92186 0.00458 0.79608 0.0
H372 H 0.99537 0.92622 0.6741 0.0
H373 H 0.98213 0.94536 0.72152 0.0
H374 H 0.07683 0.06159 0.76256 0.0
C375 C 0.00508 0.0791 0.85479 0.0
C376 C 0.95579 0.01732 0.789 0.0
C377 C 0.00311 0.07887 0.88358 0.0
C378 C 0.00601 0.96139 0.68231 0.0
C379 C -0.0016 0.97236 0.70957 0.0
C380 C 0.04244 0.04987 0.76952 0.0
C381 C 0.99026 0.0387 0.83831 0.0
C382 C 0.99405 0.03781 0.80793 0.0
C383 C 0.01275 0.01696 0.72151 0.0
C384 C 0.00501 0.02749 0.75083 0.0
H385 H 0.95861 0.9658 0.88919 0.0
H386 H 0.96196 0.96633 0.83913 0.0
H387 H 0.06729 0.07066 0.8119 0.0
H388 H 0.05998 0.06574 0.66607 0.0
H389 H 0.04668 0.08506 0.71409 0.0
C390 C 0.49044 0.55164 0.62551 0.0
C391 C 0.52393 0.52333 0.61289 0.0
C392 C 0.4907 0.5514 0.65437 0.0
C393 C 0.56427 0.51424 0.72139 0.0
H394 H 0.43519 0.52135 0.74751 0.0
C395 C 0.52952 0.46899 0.83403 0.0
C396 C 0.50029 0.50131 0.84718 0.0
C397 C 0.53501 0.47393 0.80587 0.0
C398 C 0.47152 0.51982 0.74054 0.0
H399 H 0.58481 0.47333 0.62069 0.0
H400 H 0.58422 0.47147 0.67125 0.0
H401 H 0.44036 0.52469 0.69772 0.0
H402 H 0.45442 0.56455 0.8408 0.0
H403 H 0.46283 0.57216 0.79132 0.0
H404 H 0.59491 0.50763 0.7645 0.0
C405 C 0.55838 0.49473 0.65886 0.0
C406 C 0.47462 0.52191 0.71198 0.0
C407 C 0.55865 0.49559 0.62987 0.0
C408 C 0.47662 0.53863 0.83133 0.0
C409 C 0.48159 0.54315 0.80303 0.0
C410 C 0.56104 0.51149 0.75 0.0
C411 C 0.52385 0.52215 0.67142 0.0
C412 C 0.52104 0.51945 0.70198 0.0
C413 C 0.5108 0.5108 0.79004 0.0
C414 C 0.51463 0.51445 0.75983 0.0
H415 H 0.46374 0.57402 0.61303 0.0
H416 H 0.46458 0.5741 0.66326 0.0
H417 H 0.60068 0.51286 0.71456 0.0
H418 H 0.54736 0.4391 0.84529 0.0
H419 H 0.55712 0.44808 0.79626 0.0
C420 C 0.46981 0.50143 0.37961 0.0
C421 C 0.48838 0.53996 0.39677 0.0
C422 C 0.47034 0.50287 0.35078 0.0
C423 C 0.5361 0.55812 0.29756 0.0
H424 H 0.42696 0.50404 0.24669 0.0
C425 C 0.53921 0.5431 0.17745 0.0
C426 C 0.52272 0.49898 0.16547 0.0
C427 C 0.53245 0.55436 0.20503 0.0
C428 C 0.45785 0.51912 0.26063 0.0
H429 H 0.52123 0.61072 0.39685 0.0
H430 H 0.5221 0.61312 0.34636 0.0
H431 H 0.41883 0.51265 0.29609 0.0
H432 H 0.48804 0.43147 0.17356 0.0
H433 H 0.47606 0.45113 0.22111 0.0
H434 H 0.57556 0.56344 0.2621 0.0
C435 C 0.50742 0.5817 0.35537 0.0
C436 C 0.45317 0.52405 0.28893 0.0
C437 C 0.50662 0.5804 0.38427 0.0
C438 C 0.49988 0.46634 0.18176 0.0
C439 C 0.49303 0.47759 0.20911 0.0
C440 C 0.54082 0.55311 0.26918 0.0
C441 C 0.4896 0.54278 0.33833 0.0
C442 C 0.49264 0.54259 0.30784 0.0
C443 C 0.50902 0.52174 0.22109 0.0
C444 C 0.50216 0.53248 0.25052 0.0
H445 H 0.4555 0.4697 0.38848 0.0
H446 H 0.45692 0.47202 0.33832 0.0
H447 H 0.56733 0.57222 0.31163 0.0
H448 H 0.55683 0.56907 0.16544 0.0
H449 H 0.54506 0.58875 0.21366 0.0
loop_
_geom_bond_atom_site_label_1
_geom_bond_atom_site_label_2
_geom_bond_distance
_geom_bond_site_symmetry_2
_ccdc_geom_bond_type
O0 Zn1 1.953 1_565 S
O0 C16 1.225 1_565 S
Zn1 O0 1.953 1_545 S
Zn1 O2 1.949 . S
Zn1 O8 1.919 1_545 S
Zn1 O13 1.924 . S
O2 Zn1 1.949 . S
O2 Zn3 1.923 1_444 S
O2 Zn4 1.950 1_455 S
O2 Zn5 1.945 1_554 S
Zn3 O2 1.923 1_666 S
Zn3 O6 1.933 . S
Zn3 O9 1.941 1_655 S
Zn3 O10 1.965 . S
Zn4 O2 1.950 1_655 S
Zn4 O11 1.938 1_545 S
Zn4 O12 1.906 . S
Zn4 O22 1.953 . S
Zn5 O2 1.945 1_556 S
Zn5 O7 1.932 . S
Zn5 O14 1.977 1_455 S
Zn5 O15 1.910 . S
O6 Zn3 1.933 . S
O6 C17 1.226 1_665 S
O7 Zn5 1.932 . S
O7 C17 1.307 . S
O8 Zn1 1.919 1_565 S
O8 C19 1.253 . S
O9 Zn3 1.941 1_455 S
O9 C19 1.283 1_556 S
O10 Zn3 1.965 . S
O10 C18 1.303 1_556 S
O11 Zn4 1.938 1_565 S
O11 C18 1.247 . S
O12 Zn4 1.906 . S
O12 C20 1.304 1_554 S
O13 Zn1 1.924 . S
O13 C21 1.311 . S
O14 Zn5 1.977 1_655 S
O14 C20 1.272 . S
O15 Zn5 1.910 . S
O15 C21 1.231 1_556 S
C16 O0 1.225 1_545 S
C16 O22 1.298 1_455 S
C17 O6 1.226 1_445 S
C17 O7 1.307 . S
C18 O10 1.303 1_554 S
C18 O11 1.247 . S
C19 O8 1.253 . S
C19 O9 1.283 1_554 S
C20 O12 1.304 1_556 S
C20 O14 1.272 . S
C21 O13 1.311 . S
C21 O15 1.231 1_554 S
O22 Zn4 1.953 . S
O22 C16 1.298 1_655 S
O23 Zn24 1.953 . S
O23 C39 1.225 . S
Zn24 O23 1.953 . S
Zn24 O25 1.949 . S
Zn24 O31 1.919 . S
Zn24 O36 1.924 . S
O25 Zn24 1.949 . S
O25 Zn26 1.923 . S
O25 Zn27 1.950 . S
O25 Zn28 1.945 . S
Zn26 O25 1.923 . S
Zn26 O29 1.933 . S
Zn26 O32 1.941 . S
Zn26 O33 1.965 . S
Zn27 O25 1.950 . S
Zn27 O34 1.938 . S
Zn27 O35 1.906 . S
Zn27 O45 1.953 . S
Zn28 O25 1.945 . S
Zn28 O30 1.932 . S
Zn28 O37 1.977 . S
Zn28 O38 1.910 . S
O29 Zn26 1.933 . S
O29 C40 1.226 . S
O30 Zn28 1.932 . S
O30 C40 1.307 . S
O31 Zn24 1.919 . S
O31 C42 1.253 . S
O32 Zn26 1.941 . S
O32 C42 1.283 . S
O33 Zn26 1.965 . S
O33 C41 1.303 . S
O34 Zn27 1.938 . S
O34 C41 1.247 . S
O35 Zn27 1.906 . S
O35 C43 1.304 . S
O36 Zn24 1.924 . S
O36 C44 1.311 . S
O37 Zn28 1.977 . S
O37 C43 1.272 . S
O38 Zn28 1.910 . S
O38 C44 1.231 . S
C39 O23 1.225 . S
C39 O45 1.298 . S
C40 O29 1.226 . S
C40 O30 1.307 . S
C41 O33 1.303 . S
C41 O34 1.247 . S
C42 O31 1.253 . S
C42 O32 1.283 . S
C43 O35 1.304 . S
C43 O37 1.272 . S
C44 O36 1.311 . S
C44 O38 1.231 . S
O45 Zn27 1.953 . S
O45 C39 1.298 . S
H46 C49 0.929 . S
H47 C52 0.929 . S
H48 C54 0.930 . S
C49 H46 0.929 . S
C49 C50 1.398 . S
C49 C51 1.396 1_565 S
C50 C49 1.398 . S
C50 C54 1.407 . S
C51 C49 1.396 1_545 S
C51 C52 1.394 1_455 S
C52 H47 0.929 . S
C52 C51 1.394 1_655 S
C52 C53 1.382 . S
C53 C52 1.382 . S
C53 C54 1.392 1_645 S
C53 N55 1.420 . S
C54 H48 0.930 . S
C54 C50 1.407 . S
C54 C53 1.392 1_465 S
N55 C53 1.420 . S
N55 C56 1.244 . S
C56 N55 1.244 . S
H57 C60 0.929 . S
H58 C63 0.929 . S
H59 C65 0.931 1_455 S
C60 H57 0.929 . S
C60 C61 1.398 . S
C60 C62 1.396 1_665 S
C61 C60 1.398 . S
C61 C65 1.406 . S
C62 C60 1.396 1_445 S
C62 C63 1.394 . S
C63 H58 0.929 . S
C63 C62 1.394 . S
C63 C64 1.382 . S
C64 C63 1.382 . S
C64 C65 1.393 1_445 S
C64 N66 1.420 . S
C65 H59 0.931 1_655 S
C65 C61 1.406 . S
C65 C64 1.393 1_665 S
N66 C64 1.420 . S
N66 C67 1.244 . S
C67 N66 1.244 . S
H68 C71 0.929 . S
H69 C74 0.929 . S
H70 C76 0.930 . S
C71 H68 0.929 . S
C71 C72 1.398 . S
C71 C73 1.396 . S
C72 C71 1.398 . S
C72 C76 1.407 . S
C73 C71 1.396 . S
C73 C74 1.394 . S
C74 H69 0.929 . S
C74 C73 1.394 . S
C74 C75 1.382 . S
C75 C74 1.382 . S
C75 C76 1.392 . S
C75 N77 1.420 . S
C76 H70 0.930 . S
C76 C72 1.407 . S
C76 C75 1.392 . S
N77 C75 1.420 . S
N77 C78 1.244 . S
C78 N77 1.244 . S
H79 C82 0.929 . S
H80 C85 0.929 . S
H81 C87 0.930 . S
C82 H79 0.929 . S
C82 C83 1.398 . S
C82 C84 1.396 . S
C83 C82 1.398 . S
C83 C87 1.407 . S
C84 C82 1.396 . S
C84 C85 1.394 . S
C85 H80 0.929 . S
C85 C84 1.394 . S
C85 C86 1.382 . S
C86 C85 1.382 . S
C86 C87 1.392 . S
C86 N88 1.420 . S
C87 H81 0.930 . S
C87 C83 1.407 . S
C87 C86 1.392 . S
N88 C86 1.420 . S
N88 C89 1.244 . S
C89 N88 1.244 . S
C90 C91 1.349 . S
C90 C92 1.327 . S
C90 H115 0.950 . S
C91 C90 1.349 . S
C91 C107 1.349 . S
C92 C90 1.327 . S
C92 C111 1.429 . S
C92 H116 0.950 . S
C93 C110 1.574 . S
C93 C112 1.368 . S
C93 H117 0.949 . S
H94 C98 0.949 . S
C95 C96 1.349 . S
C95 C97 1.327 . S
C95 H118 0.950 . S
C96 C95 1.349 . S
C96 C108 1.349 . S
C97 C95 1.327 . S
C97 C113 1.429 . S
C97 H119 0.950 . S
C98 H94 0.949 . S
C98 C106 1.574 . S
C98 C114 1.368 . S
H99 C107 0.950 . S
H100 C105 0.950 . S
H101 C106 0.949 . S
H102 C108 0.950 . S
H103 C109 0.950 . S
H104 C110 0.949 . S
C105 H100 0.950 . S
C105 C107 1.327 . S
C105 C111 1.429 . S
C106 C98 1.574 . S
C106 H101 0.949 . S
C106 C112 1.368 . S
C107 C91 1.349 . S
C107 H99 0.950 . S
C107 C105 1.327 . S
C108 C96 1.349 . S
C108 H102 0.950 . S
C108 C109 1.327 . S
C109 H103 0.950 . S
C109 C108 1.327 . S
C109 C113 1.429 . S
C110 C93 1.574 . S
C110 H104 0.949 . S
C110 C114 1.368 . S
C111 C92 1.429 . S
C111 C105 1.429 . S
C111 C112 1.523 . S
C112 C93 1.368 . S
C112 C106 1.368 . S
C112 C111 1.523 . S
C113 C97 1.429 . S
C113 C109 1.429 . S
C113 C114 1.523 . S
C114 C98 1.368 . S
C114 C110 1.368 . S
C114 C113 1.523 . S
H115 C90 0.950 . S
H116 C92 0.950 . S
H117 C93 0.949 . S
H118 C95 0.950 . S
H119 C97 0.950 . S
C120 C121 1.349 . S
C120 C122 1.327 . S
C120 H145 0.950 . S
C121 C120 1.349 . S
C121 C137 1.343 1_556 S
C122 C120 1.327 . S
C122 C141 1.429 . S
C122 H146 0.950 . S
C123 C140 1.574 . S
C123 C142 1.368 . S
C123 H147 0.949 . S
H124 C128 0.949 . S
C125 C126 1.349 . S
C125 C127 1.327 . S
C125 H148 0.950 . S
C126 C125 1.349 . S
C126 C138 1.349 . S
C127 C125 1.327 . S
C127 C143 1.429 . S
C127 H149 0.950 . S
C128 H124 0.949 . S
C128 C136 1.574 . S
C128 C144 1.368 . S
H129 C137 0.964 . S
H130 C135 0.951 . S
H131 C136 0.949 . S
H132 C138 0.950 . S
H133 C139 0.950 . S
H134 C140 0.949 . S
C135 H130 0.951 . S
C135 C137 1.320 1_556 S
C135 C141 1.429 . S
C136 C128 1.574 . S
C136 H131 0.949 . S
C136 C142 1.368 . S
C137 C121 1.343 1_554 S
C137 H129 0.964 . S
C137 C135 1.320 1_554 S
C138 C126 1.349 . S
C138 H132 0.950 . S
C138 C139 1.327 . S
C139 H133 0.950 . S
C139 C138 1.327 . S
C139 C143 1.429 . S
C140 C123 1.574 . S
C140 H134 0.949 . S
C140 C144 1.368 . S
C141 C122 1.429 . S
C141 C135 1.429 . S
C141 C142 1.523 . S
C142 C123 1.368 . S
C142 C136 1.368 . S
C142 C141 1.523 . S
C143 C127 1.429 . S
C143 C139 1.429 . S
C143 C144 1.523 . S
C144 C128 1.368 . S
C144 C140 1.368 . S
C144 C143 1.523 . S
H145 C120 0.950 . S
H146 C122 0.950 . S
H147 C123 0.949 . S
H148 C125 0.950 . S
H149 C127 0.950 . S
C150 C151 1.349 . S
C150 C152 1.327 . S
C150 H175 0.950 . S
C151 C150 1.349 . S
C151 C167 1.349 . S
C152 C150 1.327 . S
C152 C171 1.429 . S
C152 H176 0.950 . S
C153 C170 1.574 . S
C153 C172 1.368 . S
C153 H177 0.949 . S
H154 C158 0.949 . S
C155 C156 1.349 . S
C155 C157 1.327 . S
C155 H178 0.950 . S
C156 C155 1.349 . S
C156 C168 1.349 . S
C157 C155 1.327 . S
C157 C173 1.429 . S
C157 H179 0.950 . S
C158 H154 0.949 . S
C158 C166 1.574 . S
C158 C174 1.368 . S
H159 C167 0.950 1_556 S
H160 C165 0.950 . S
H161 C166 0.949 . S
H162 C168 0.950 . S
H163 C169 0.950 . S
H164 C170 0.949 . S
C165 H160 0.950 . S
C165 C167 1.327 . S
C165 C171 1.429 . S
C166 C158 1.574 . S
C166 H161 0.949 . S
C166 C172 1.368 . S
C167 C151 1.349 . S
C167 H159 0.950 1_554 S
C167 C165 1.327 . S
C168 C156 1.349 . S
C168 H162 0.950 . S
C168 C169 1.327 . S
C169 H163 0.950 . S
C169 C168 1.327 . S
C169 C173 1.429 . S
C170 C153 1.574 . S
C170 H164 0.949 . S
C170 C174 1.368 . S
C171 C152 1.429 . S
C171 C165 1.429 . S
C171 C172 1.523 . S
C172 C153 1.368 . S
C172 C166 1.368 . S
C172 C171 1.523 . S
C173 C157 1.429 . S
C173 C169 1.429 . S
C173 C174 1.523 . S
C174 C158 1.368 . S
C174 C170 1.368 . S
C174 C173 1.523 . S
H175 C150 0.950 . S
H176 C152 0.950 . S
H177 C153 0.949 . S
H178 C155 0.950 . S
H179 C157 0.950 . S
C180 C181 1.349 . S
C180 C182 1.327 . S
C180 H205 0.950 1_556 S
C181 C180 1.349 . S
C181 C197 1.349 . S
C182 C180 1.327 . S
C182 C201 1.429 . S
C182 H206 0.942 1_556 S
C183 C200 1.574 . S
C183 C202 1.368 . S
C183 H207 0.949 . S
H184 C188 0.949 . S
C185 C186 1.349 . S
C185 C187 1.327 . S
C185 H208 0.950 . S
C186 C185 1.349 . S
C186 C198 1.349 . S
C187 C185 1.327 . S
C187 C203 1.429 . S
C187 H209 0.950 . S
C188 H184 0.949 . S
C188 C196 1.574 . S
C188 C204 1.368 . S
H189 C197 0.950 . S
H190 C195 0.950 . S
H191 C196 0.949 . S
H192 C198 0.950 . S
H193 C199 0.950 . S
H194 C200 0.949 . S
C195 H190 0.950 . S
C195 C197 1.327 . S
C195 C201 1.429 . S
C196 C188 1.574 . S
C196 H191 0.949 . S
C196 C202 1.368 . S
C197 C181 1.349 . S
C197 H189 0.950 . S
C197 C195 1.327 . S
C198 C186 1.349 . S
C198 H192 0.950 . S
C198 C199 1.327 . S
C199 H193 0.950 . S
C199 C198 1.327 . S
C199 C203 1.429 . S
C200 C183 1.574 . S
C200 H194 0.949 . S
C200 C204 1.368 . S
C201 C182 1.429 . S
C201 C195 1.429 . S
C201 C202 1.523 . S
C202 C183 1.368 . S
C202 C196 1.368 . S
C202 C201 1.523 . S
C203 C187 1.429 . S
C203 C199 1.429 . S
C203 C204 1.523 . S
C204 C188 1.368 . S
C204 C200 1.368 . S
C204 C203 1.523 . S
H205 C180 0.950 1_554 S
H206 C182 0.942 1_554 S
H207 C183 0.949 . S
H208 C185 0.950 . S
H209 C187 0.950 . S
C210 C211 1.349 . S
C210 C212 1.327 . S
C210 H235 0.950 . S
C211 C210 1.349 . S
C211 C227 1.349 . S
C212 C210 1.327 . S
C212 C231 1.429 . S
C212 H236 0.950 . S
C213 C230 1.574 . S
C213 C232 1.368 . S
C213 H237 0.949 . S
H214 C218 0.949 . S
C215 C216 1.349 . S
C215 C217 1.327 . S
C215 H238 0.950 . S
C216 C215 1.349 . S
C216 C228 1.349 . S
C217 C215 1.327 . S
C217 C233 1.429 . S
C217 H239 0.950 . S
C218 H214 0.949 . S
C218 C226 1.574 . S
C218 C234 1.368 . S
H219 C227 0.950 . S
H220 C225 0.950 . S
H221 C226 0.949 . S
H222 C228 0.950 . S
H223 C229 0.950 . S
H224 C230 0.949 . S
C225 H220 0.950 . S
C225 C227 1.327 . S
C225 C231 1.429 . S
C226 C218 1.574 . S
C226 H221 0.949 . S
C226 C232 1.368 . S
C227 C211 1.349 . S
C227 H219 0.950 . S
C227 C225 1.327 . S
C228 C216 1.349 . S
C228 H222 0.950 . S
C228 C229 1.327 . S
C229 H223 0.950 . S
C229 C228 1.327 . S
C229 C233 1.429 . S
C230 C213 1.574 . S
C230 H224 0.949 . S
C230 C234 1.368 . S
C231 C212 1.429 . S
C231 C225 1.429 . S
C231 C232 1.523 . S
C232 C213 1.368 . S
C232 C226 1.368 . S
C232 C231 1.523 . S
C233 C217 1.429 . S
C233 C229 1.429 . S
C233 C234 1.523 . S
C234 C218 1.368 . S
C234 C230 1.368 . S
C234 C233 1.523 . S
H235 C210 0.950 . S
H236 C212 0.950 . S
H237 C213 0.949 . S
H238 C215 0.950 . S
H239 C217 0.950 . S
C240 C241 1.349 . S
C240 C242 1.327 . S
C240 H265 0.950 . S
C241 C240 1.349 . S
C241 C257 1.349 . S
C242 C240 1.327 . S
C242 C261 1.429 . S
C242 H266 0.950 . S
C243 C260 1.574 . S
C243 C262 1.368 . S
C243 H267 0.949 . S
H244 C248 0.949 . S
C245 C246 1.349 . S
C245 C247 1.327 . S
C245 H268 0.950 . S
C246 C245 1.349 . S
C246 C258 1.349 . S
C247 C245 1.327 . S
C247 C263 1.429 . S
C247 H269 0.950 . S
C248 H244 0.949 . S
C248 C256 1.574 . S
C248 C264 1.368 . S
H249 C257 0.950 . S
H250 C255 0.950 . S
H251 C256 0.949 . S
H252 C258 0.950 . S
H253 C259 0.950 . S
H254 C260 0.949 . S
C255 H250 0.950 . S
C255 C257 1.327 . S
C255 C261 1.429 . S
C256 C248 1.574 . S
C256 H251 0.949 . S
C256 C262 1.368 . S
C257 C241 1.349 . S
C257 H249 0.950 . S
C257 C255 1.327 . S
C258 C246 1.349 . S
C258 H252 0.950 . S
C258 C259 1.327 . S
C259 H253 0.950 . S
C259 C258 1.327 . S
C259 C263 1.429 . S
C260 C243 1.574 . S
C260 H254 0.949 . S
C260 C264 1.368 . S
C261 C242 1.429 . S
C261 C255 1.429 . S
C261 C262 1.523 . S
C262 C243 1.368 . S
C262 C256 1.368 . S
C262 C261 1.523 . S
C263 C247 1.429 . S
C263 C259 1.429 . S
C263 C264 1.523 . S
C264 C248 1.368 . S
C264 C260 1.368 . S
C264 C263 1.523 . S
H265 C240 0.950 . S
H266 C242 0.950 . S
H267 C243 0.949 . S
H268 C245 0.950 . S
H269 C247 0.950 . S
C270 C271 1.349 . S
C270 C272 1.327 . S
C270 H295 0.950 . S
C271 C270 1.349 . S
C271 C287 1.349 . S
C272 C270 1.327 . S
C272 C291 1.429 . S
C272 H296 0.950 . S
C273 C290 1.574 . S
C273 C292 1.368 . S
C273 H297 0.949 . S
H274 C278 0.949 . S
C275 C276 1.349 . S
C275 C277 1.327 . S
C275 H298 0.950 . S
C276 C275 1.349 . S
C276 C288 1.349 . S
C277 C275 1.327 . S
C277 C293 1.429 . S
C277 H299 0.950 . S
C278 H274 0.949 . S
C278 C286 1.574 . S
C278 C294 1.368 . S
H279 C287 0.950 . S
H280 C285 0.950 . S
H281 C286 0.949 . S
H282 C288 0.950 . S
H283 C289 0.950 . S
H284 C290 0.949 . S
C285 H280 0.950 . S
C285 C287 1.327 . S
C285 C291 1.429 . S
C286 C278 1.574 . S
C286 H281 0.949 . S
C286 C292 1.368 . S
C287 C271 1.349 . S
C287 H279 0.950 . S
C287 C285 1.327 . S
C288 C276 1.349 . S
C288 H282 0.950 . S
C288 C289 1.327 . S
C289 H283 0.950 . S
C289 C288 1.327 . S
C289 C293 1.429 . S
C290 C273 1.574 . S
C290 H284 0.949 . S
C290 C294 1.368 . S
C291 C272 1.429 . S
C291 C285 1.429 . S
C291 C292 1.523 . S
C292 C273 1.368 . S
C292 C286 1.368 . S
C292 C291 1.523 . S
C293 C277 1.429 . S
C293 C289 1.429 . S
C293 C294 1.523 . S
C294 C278 1.368 . S
C294 C290 1.368 . S
C294 C293 1.523 . S
H295 C270 0.950 . S
H296 C272 0.950 . S
H297 C273 0.949 . S
H298 C275 0.950 . S
H299 C277 0.950 . S
C300 C301 1.349 . S
C300 C302 1.327 . S
C300 H325 0.950 . S
C301 C300 1.349 . S
C301 C317 1.349 . S
C302 C300 1.327 . S
C302 C321 1.429 . S
C302 H326 0.950 . S
C303 C320 1.574 . S
C303 C322 1.368 . S
C303 H327 0.949 . S
H304 C308 0.949 . S
C305 C306 1.349 . S
C305 C307 1.327 . S
C305 H328 0.950 . S
C306 C305 1.349 . S
C306 C318 1.349 . S
C307 C305 1.327 . S
C307 C323 1.429 . S
C307 H329 0.950 . S
C308 H304 0.949 . S
C308 C316 1.574 . S
C308 C324 1.368 . S
H309 C317 0.950 . S
H310 C315 0.950 . S
H311 C316 0.949 . S
H312 C318 0.950 . S
H313 C319 0.950 . S
H314 C320 0.949 . S
C315 H310 0.950 . S
C315 C317 1.327 . S
C315 C321 1.429 . S
C316 C308 1.574 . S
C316 H311 0.949 . S
C316 C322 1.368 . S
C317 C301 1.349 . S
C317 H309 0.950 . S
C317 C315 1.327 . S
C318 C306 1.349 . S
C318 H312 0.950 . S
C318 C319 1.327 . S
C319 H313 0.950 . S
C319 C318 1.327 . S
C319 C323 1.429 . S
C320 C303 1.574 . S
C320 H314 0.949 . S
C320 C324 1.368 . S
C321 C302 1.429 . S
C321 C315 1.429 . S
C321 C322 1.523 . S
C322 C303 1.368 . S
C322 C316 1.368 . S
C322 C321 1.523 . S
C323 C307 1.429 . S
C323 C319 1.429 . S
C323 C324 1.523 . S
C324 C308 1.368 . S
C324 C320 1.368 . S
C324 C323 1.523 . S
H325 C300 0.950 . S
H326 C302 0.950 . S
H327 C303 0.949 . S
H328 C305 0.950 . S
H329 C307 0.950 . S
C330 C331 1.349 1_565 S
C330 C332 1.327 . S
C330 H355 0.950 . S
C331 C330 1.349 1_545 S
C331 C347 1.349 1_455 S
C332 C330 1.327 . S
C332 C351 1.429 1_565 S
C332 H356 0.950 . S
C333 C350 1.574 . S
C333 C352 1.368 1_655 S
C333 H357 0.949 . S
H334 C338 0.949 . S
C335 C336 1.349 1_655 S
C335 C337 1.327 . S
C335 H358 0.950 . S
C336 C335 1.349 1_455 S
C336 C348 1.349 1_545 S
C337 C335 1.327 . S
C337 C353 1.429 1_655 S
C337 H359 0.950 . S
C338 H334 0.949 . S
C338 C346 1.574 . S
C338 C354 1.368 1_565 S
H339 C347 0.950 . S
H340 C345 0.950 . S
H341 C346 0.949 . S
H342 C348 0.950 . S
H343 C349 0.950 . S
H344 C350 0.949 . S
C345 H340 0.950 . S
C345 C347 1.327 . S
C345 C351 1.429 1_655 S
C346 C338 1.574 . S
C346 H341 0.949 . S
C346 C352 1.368 1_565 S
C347 C331 1.349 1_655 S
C347 H339 0.950 . S
C347 C345 1.327 . S
C348 C336 1.349 1_565 S
C348 H342 0.950 . S
C348 C349 1.327 . S
C349 H343 0.950 . S
C349 C348 1.327 . S
C349 C353 1.429 1_565 S
C350 C333 1.574 . S
C350 H344 0.949 . S
C350 C354 1.368 1_655 S
C351 C332 1.429 1_545 S
C351 C345 1.429 1_455 S
C351 C352 1.523 . S
C352 C333 1.368 1_455 S
C352 C346 1.368 1_545 S
C352 C351 1.523 . S
C353 C337 1.429 1_455 S
C353 C349 1.429 1_545 S
C353 C354 1.523 . S
C354 C338 1.368 1_545 S
C354 C350 1.368 1_455 S
C354 C353 1.523 . S
H355 C330 0.950 . S
H356 C332 0.950 . S
H357 C333 0.949 . S
H358 C335 0.950 . S
H359 C337 0.950 . S
C360 C361 1.349 1_665 S
C360 C362 1.327 . S
C360 H385 0.950 . S
C361 C360 1.349 1_445 S
C361 C377 1.349 . S
C362 C360 1.327 . S
C362 C381 1.429 1_665 S
C362 H386 0.950 . S
C363 C380 1.574 . S
C363 C382 1.368 . S
C363 H387 0.949 . S
H364 C368 0.949 . S
C365 C366 1.349 . S
C365 C367 1.327 . S
C365 H388 0.950 . S
C366 C365 1.349 . S
C366 C378 1.349 1_445 S
C367 C365 1.327 . S
C367 C383 1.429 . S
C367 H389 0.950 . S
C368 H364 0.949 . S
C368 C376 1.574 . S
C368 C384 1.368 1_665 S
H369 C377 0.950 . S
H370 C375 0.950 . S
H371 C376 0.949 . S
H372 C378 0.950 . S
H373 C379 0.950 . S
H374 C380 0.949 . S
C375 H370 0.950 . S
C375 C377 1.327 . S
C375 C381 1.429 . S
C376 C368 1.574 . S
C376 H371 0.949 . S
C376 C382 1.368 1_665 S
C377 C361 1.349 . S
C377 H369 0.950 . S
C377 C375 1.327 . S
C378 C366 1.349 1_665 S
C378 H372 0.950 . S
C378 C379 1.327 . S
C379 H373 0.950 . S
C379 C378 1.327 . S
C379 C383 1.429 1_665 S
C380 C363 1.574 . S
C380 H374 0.949 . S
C380 C384 1.368 . S
C381 C362 1.429 1_445 S
C381 C375 1.429 . S
C381 C382 1.523 . S
C382 C363 1.368 . S
C382 C376 1.368 1_445 S
C382 C381 1.523 . S
C383 C367 1.429 . S
C383 C379 1.429 1_445 S
C383 C384 1.523 . S
C384 C368 1.368 1_445 S
C384 C380 1.368 . S
C384 C383 1.523 . S
H385 C360 0.950 . S
H386 C362 0.950 . S
H387 C363 0.949 . S
H388 C365 0.950 . S
H389 C367 0.950 . S
C390 C391 1.349 . S
C390 C392 1.327 . S
C390 H415 0.950 . S
C391 C390 1.349 . S
C391 C407 1.349 . S
C392 C390 1.327 . S
C392 C411 1.429 . S
C392 H416 0.950 . S
C393 C410 1.574 . S
C393 C412 1.368 . S
C393 H417 0.949 . S
H394 C398 0.949 . S
C395 C396 1.349 . S
C395 C397 1.327 . S
C395 H418 0.950 . S
C396 C395 1.349 . S
C396 C408 1.349 . S
C397 C395 1.327 . S
C397 C413 1.429 . S
C397 H419 0.950 . S
C398 H394 0.949 . S
C398 C406 1.574 . S
C398 C414 1.368 . S
H399 C407 0.950 . S
H400 C405 0.950 . S
H401 C406 0.949 . S
H402 C408 0.950 . S
H403 C409 0.950 . S
H404 C410 0.949 . S
C405 H400 0.950 . S
C405 C407 1.327 . S
C405 C411 1.429 . S
C406 C398 1.574 . S
C406 H401 0.949 . S
C406 C412 1.368 . S
C407 C391 1.349 . S
C407 H399 0.950 . S
C407 C405 1.327 . S
C408 C396 1.349 . S
C408 H402 0.950 . S
C408 C409 1.327 . S
C409 H403 0.950 . S
C409 C408 1.327 . S
C409 C413 1.429 . S
C410 C393 1.574 . S
C410 H404 0.949 . S
C410 C414 1.368 . S
C411 C392 1.429 . S
C411 C405 1.429 . S
C411 C412 1.523 . S
C412 C393 1.368 . S
C412 C406 1.368 . S
C412 C411 1.523 . S
C413 C397 1.429 . S
C413 C409 1.429 . S
C413 C414 1.523 . S
C414 C398 1.368 . S
C414 C410 1.368 . S
C414 C413 1.523 . S
H415 C390 0.950 . S
H416 C392 0.950 . S
H417 C393 0.949 . S
H418 C395 0.950 . S
H419 C397 0.950 . S
C420 C421 1.349 . S
C420 C422 1.327 . S
C420 H445 0.950 . S
C421 C420 1.349 . S
C421 C437 1.349 . S
C422 C420 1.327 . S
C422 C441 1.429 . S
C422 H446 0.950 . S
C423 C440 1.574 . S
C423 C442 1.368 . S
C423 H447 0.949 . S
H424 C428 0.949 . S
C425 C426 1.349 . S
C425 C427 1.327 . S
C425 H448 0.950 . S
C426 C425 1.349 . S
C426 C438 1.349 . S
C427 C425 1.327 . S
C427 C443 1.429 . S
C427 H449 0.950 . S
C428 H424 0.949 . S
C428 C436 1.574 . S
C428 C444 1.368 . S
H429 C437 0.950 . S
H430 C435 0.950 . S
H431 C436 0.949 . S
H432 C438 0.950 . S
H433 C439 0.950 . S
H434 C440 0.949 . S
C435 H430 0.950 . S
C435 C437 1.327 . S
C435 C441 1.429 . S
C436 C428 1.574 . S
C436 H431 0.949 . S
C436 C442 1.368 . S
C437 C421 1.349 . S
C437 H429 0.950 . S
C437 C435 1.327 . S
C438 C426 1.349 . S
C438 H432 0.950 . S
C438 C439 1.327 . S
C439 H433 0.950 . S
C439 C438 1.327 . S
C439 C443 1.429 . S
C440 C423 1.574 . S
C440 H434 0.949 . S
C440 C444 1.368 . S
C441 C422 1.429 . S
C441 C435 1.429 . S
C441 C442 1.523 . S
C442 C423 1.368 . S
C442 C436 1.368 . S
C442 C441 1.523 . S
C443 C427 1.429 . S
C443 C439 1.429 . S
C443 C444 1.523 . S
C444 C428 1.368 . S
C444 C440 1.368 . S
C444 C443 1.523 . S
H445 C420 0.950 . S
H446 C422 0.950 . S
H447 C423 0.949 . S
H448 C425 0.950 . S
H449 C427 0.950 . S
C96 C83 1.522 . S
C91 C21 1.522 . S
C121 C19 1.377 1_556 S
C126 C78 1.362 . S
C151 C18 1.342 . S
C156 C89 1.340 . S
C181 C20 1.503 . S
C186 C72 1.507 . S
C211 C44 1.522 . S
C216 C61 1.522 . S
C241 C42 1.377 . S
C246 C56 1.362 . S
C276 C67 1.340 . S
C271 C41 1.342 . S
C306 C50 1.507 . S
C301 C43 1.503 . S
C331 C16 1.529 . S
C336 C51 1.523 . S
C361 C17 1.488 . S
C366 C62 1.482 . S
C396 C73 1.523 . S
C391 C39 1.529 . S
C421 C40 1.488 . S
C426 C84 1.482 . S
