# Generated by pormake.
# Topology anh, (6,3)-cn, num edge types: 1
# Building blocks:
#     Node 0, Type 0, BuildingBlock: CUKXOW_clean_sbu_0, # of connection points: 6
#     Node 1, Type 0, BuildingBlock: CUKXOW_clean_sbu_0, # of connection points: 6
#     Node 2, Type 0, BuildingBlock: CUKXOW_clean_sbu_0, # of connection points: 6
#     Node 3, Type 1, BuildingBlock: VETTIZ_charged_linker_0, # of connection points: 3
#     Node 4, Type 1, BuildingBlock: VETTIZ_charged_linker_0, # of connection points: 3
#     Node 5, Type 1, BuildingBlock: VETTIZ_charged_linker_0, # of connection points: 3
#     Node 6, Type 1, BuildingBlock: VETTIZ_charged_linker_0, # of connection points: 3
#     Node 7, Type 1, BuildingBlock: VETTIZ_charged_linker_0, # of connection points: 3
#     Node 8, Type 1, BuildingBlock: VETTIZ_charged_linker_0, # of connection points: 3
#     Edge 9, Type (0, 1), BuildingBlock: TEMPAE_clean_linker_10, # of connection points: 2
#     Edge 10, Type (0, 1), BuildingBlock: TEMPAE_clean_linker_10, # of connection points: 2
#     Edge 11, Type (0, 1), BuildingBlock: TEMPAE_clean_linker_10, # of connection points: 2
#     Edge 12, Type (0, 1), BuildingBlock: TEMPAE_clean_linker_10, # of connection points: 2
#     Edge 13, Type (0, 1), BuildingBlock: TEMPAE_clean_linker_10, # of connection points: 2
#     Edge 14, Type (0, 1), BuildingBlock: TEMPAE_clean_linker_10, # of connection points: 2
#     Edge 15, Type (0, 1), BuildingBlock: TEMPAE_clean_linker_10, # of connection points: 2
#     Edge 16, Type (0, 1), BuildingBlock: TEMPAE_clean_linker_10, # of connection points: 2
#     Edge 17, Type (0, 1), BuildingBlock: TEMPAE_clean_linker_10, # of connection points: 2
#     Edge 18, Type (0, 1), BuildingBlock: TEMPAE_clean_linker_10, # of connection points: 2
#     Edge 19, Type (0, 1), BuildingBlock: TEMPAE_clean_linker_10, # of connection points: 2
#     Edge 20, Type (0, 1), BuildingBlock: TEMPAE_clean_linker_10, # of connection points: 2
#     Edge 21, Type (0, 1), BuildingBlock: TEMPAE_clean_linker_10, # of connection points: 2
#     Edge 22, Type (0, 1), BuildingBlock: TEMPAE_clean_linker_10, # of connection points: 2
#     Edge 23, Type (0, 1), BuildingBlock: TEMPAE_clean_linker_10, # of connection points: 2
#     Edge 24, Type (0, 1), BuildingBlock: TEMPAE_clean_linker_10, # of connection points: 2
#     Edge 25, Type (0, 1), BuildingBlock: TEMPAE_clean_linker_10, # of connection points: 2
#     Edge 26, Type (0, 1), BuildingBlock: TEMPAE_clean_linker_10, # of connection points: 2
# Relax obj value: 0.137
# Max RMSD: 0.196
# Mean RMSD: 0.142
data_MOF--net-anh--node1-CUKXOW_clean_sbu_0--node2-VETTIZ_charged_linker_0--edge1-TEMPAE_clean_linker_10
_symmetry_space_group_name_H-M    P1
_symmetry_Int_Tables_number       1
_symmetry_cell_setting            triclinic
loop_
_symmetry_equiv_pos_as_xyz
'x, y, z'
_cell_length_a     34.88391
_cell_length_b     33.74264
_cell_length_c     66.123214
_cell_angle_alpha  95.172514
_cell_angle_beta   90.468755
_cell_angle_gamma 114.41848
loop_
_atom_site_label
_atom_site_type_symbol
_atom_site_fract_x
_atom_site_fract_y
_atom_site_fract_z
_atom_type_partial_charge
Tb0 Tb 0.07714 0.534 0.15533 0.0
C1 C 0.04154 0.49056 0.19407 0.0
Tb2 Tb 1.01968 0.43825 0.15012 0.0
O3 O 0.02602 0.55064 0.16688 0.0
O4 O 1.01246 0.49641 0.14584 0.0
O5 O 0.07396 0.52239 0.18696 0.0
C6 C 0.95002 0.36363 0.14805 0.0
O7 O 1.01351 0.45733 0.18209 0.0
C8 C 0.10107 0.45499 0.14902 0.0
C9 C 0.05423 0.48309 0.11119 0.0
O10 O 0.98384 0.3723 0.1593 0.0
O11 O 0.9559 0.39659 0.13796 0.0
O12 O 0.07079 0.42023 0.13989 0.0
O13 O 0.08436 0.47578 0.15991 0.0
O14 O 0.02382 0.44963 0.11843 0.0
O15 O 0.08176 0.51657 0.12315 0.0
C16 C 0.14239 0.61171 0.1547 0.0
O17 O 0.10525 0.60068 0.14624 0.0
O18 O 0.14251 0.57934 0.16383 0.0
C19 C 0.9959 0.51647 0.1573 0.0
Tb20 Tb 0.49421 0.97903 0.49322 0.0
C21 C 0.54502 0.01377 0.45437 0.0
Tb22 Tb 0.59012 0.04893 0.49865 0.0
O23 O 0.46624 0.028 0.49466 0.0
O24 O 0.52949 0.04534 0.49791 0.0
O25 O 0.51185 0.98257 0.46172 0.0
C26 C 0.65756 0.12456 0.49994 0.0
O27 O 0.57733 0.04375 0.46588 0.0
C28 C 0.57527 0.96635 0.49997 0.0
C29 C 0.53847 0.01764 0.53738 0.0
O30 O 0.65764 0.08631 0.49516 0.0
O31 O 0.61971 0.12 0.50394 0.0
O32 O 0.60798 0.99869 0.50916 0.0
O33 O 0.55537 0.98146 0.48935 0.0
O34 O 0.5713 0.04873 0.52987 0.0
O35 O 0.50767 0.98576 0.52594 0.0
C36 C 0.42914 0.90165 0.49208 0.0
O37 O 0.46343 0.91401 0.50343 0.0
O38 O 0.43151 0.93287 0.48125 0.0
C39 C 0.503 0.06114 0.49693 0.0
Tb40 Tb 0.56302 0.58422 0.83407 0.0
C41 C 0.60905 0.59012 0.87689 0.0
Tb42 Tb 0.65341 0.59169 0.83546 0.0
O43 O 0.53825 0.51367 0.82383 0.0
O44 O 0.5938 0.54506 0.84172 0.0
O45 O 0.5779 0.59441 0.86691 0.0
C46 C 0.7129 0.56371 0.82713 0.0
O47 O 0.63974 0.58348 0.8674 0.0
C48 C 0.6466 0.66651 0.83766 0.0
C49 C 0.60488 0.58254 0.79265 0.0
O50 O 0.71817 0.59782 0.83967 0.0
O51 O 0.67458 0.54576 0.81955 0.0
O52 O 0.6798 0.66269 0.84467 0.0
O53 O 0.62302 0.63092 0.82777 0.0
O54 O 0.63712 0.58047 0.80264 0.0
O55 O 0.57444 0.58932 0.80209 0.0
C56 C 0.50003 0.60875 0.83737 0.0
O57 O 0.49586 0.56949 0.83108 0.0
O58 O 0.53925 0.63353 0.84232 0.0
C59 C 0.57085 0.50975 0.83152 0.0
C60 C 0.63516 0.11523 0.175 0.0
C61 C 0.67042 0.14995 0.18514 0.0
C62 C 0.67311 0.15552 0.20655 0.0
C63 C 0.60728 0.09204 0.20756 0.0
C64 C 0.60372 0.08688 0.18655 0.0
C65 C 0.56348 0.04847 0.17865 0.0
H66 H 0.38407 0.87803 0.20123 0.0
C67 C 0.5709 0.05652 0.21519 0.0
C68 C 0.54471 0.03075 0.19839 0.0
H69 H 0.42102 0.91728 0.14149 0.0
H70 H 0.48617 0.97602 0.15634 0.0
H71 H 0.46974 0.88436 0.21602 0.0
H72 H 0.41146 0.9741 0.22416 0.0
H73 H 0.43432 0.97373 0.2479 0.0
H74 H 0.39427 0.92374 0.23567 0.0
H75 H 0.43308 0.88006 0.23543 0.0
H76 H 0.48898 0.91294 0.24003 0.0
C77 C 0.57509 0.01544 0.16528 0.0
C78 C 0.53581 0.06613 0.16734 0.0
C79 C 0.56374 0.04293 0.29116 0.0
C80 C 0.53592 0.01095 0.30257 0.0
C81 C 0.50131 0.97529 0.29268 0.0
C82 C 0.49426 0.97154 0.27161 0.0
C83 C 0.52239 1.0036 0.26028 0.0
C84 C 0.55663 0.0383 0.27003 0.0
C85 C 0.58432 0.06779 0.25536 0.0
C86 C 0.56078 0.04518 0.23522 0.0
C87 C 0.52443 0.00806 0.23828 0.0
C88 C 0.62827 0.06668 0.25706 0.0
C89 C 0.58459 0.11375 0.2602 0.0
C90 C 0.4058 0.89967 0.19131 0.0
C91 C 0.39706 0.89381 0.17027 0.0
C92 C 0.42698 0.92159 0.15781 0.0
C93 C 0.46457 0.95565 0.16647 0.0
C94 C 0.47226 0.96154 0.18774 0.0
C95 C 0.44304 0.93332 0.19963 0.0
C96 C 0.45595 0.94289 0.22179 0.0
C97 C 0.49727 0.98258 0.22153 0.0
C98 C 0.50709 0.99363 0.20161 0.0
C99 C 0.46206 0.90309 0.22885 0.0
C100 C 0.42232 0.95398 0.23314 0.0
H101 H 0.64621 0.1329 0.23398 0.0
H102 H 0.63215 0.11041 0.15855 0.0
H103 H 0.53738 0.09702 0.17562 0.0
H104 H 0.50211 0.04356 0.16629 0.0
H105 H 0.54665 0.07322 0.15179 0.0
H106 H 0.60188 0.01133 0.17259 0.0
H107 H 0.58465 0.02694 0.15013 0.0
H108 H 0.54912 0.98244 0.1631 0.0
H109 H 0.59086 0.07039 0.29846 0.0
H110 H 0.47944 0.9505 0.30133 0.0
H111 H 0.46715 0.9438 0.26502 0.0
H112 H 0.62545 0.03408 0.26076 0.0
H113 H 0.64881 0.09143 0.26924 0.0
H114 H 0.6447 0.07163 0.24268 0.0
H115 H 0.55366 0.11121 0.26569 0.0
H116 H 0.5893 0.13198 0.24669 0.0
H117 H 0.60911 0.13371 0.27223 0.0
H118 H 0.70016 0.18157 0.21471 0.0
C119 C 0.64186 0.12692 0.21776 0.0
C120 C 0.53484 0.62655 0.51236 0.0
C121 C 0.53315 0.66418 0.52289 0.0
C122 C 0.53692 0.66946 0.54426 0.0
C123 C 0.54365 0.60115 0.54462 0.0
C124 C 0.53963 0.59503 0.52363 0.0
C125 C 0.54075 0.5519 0.51562 0.0
H126 H 0.5555 0.36526 0.54017 0.0
C127 C 0.54861 0.56371 0.55212 0.0
C128 C 0.54665 0.53403 0.53531 0.0
H129 H 0.54153 0.39636 0.47936 0.0
H130 H 0.54108 0.46578 0.49336 0.0
H131 H 0.62537 0.4556 0.55501 0.0
H132 H 0.49147 0.39639 0.56029 0.0
H133 H 0.51247 0.42568 0.58401 0.0
H134 H 0.52708 0.38225 0.5746 0.0
H135 H 0.60105 0.41776 0.5733 0.0
H136 H 0.61744 0.47594 0.57917 0.0
C137 C 0.57881 0.56151 0.50214 0.0
C138 C 0.49812 0.52269 0.5043 0.0
C139 C 0.57157 0.5641 0.62819 0.0
C140 C 0.57727 0.53408 0.63995 0.0
C141 C 0.57711 0.49517 0.63018 0.0
C142 C 0.57116 0.48614 0.60906 0.0
C143 C 0.56541 0.51637 0.59747 0.0
C144 C 0.56573 0.55455 0.60706 0.0
C145 C 0.55896 0.58266 0.59229 0.0
C146 C 0.55493 0.55512 0.5722 0.0
C147 C 0.55868 0.51654 0.57541 0.0
C148 C 0.5989 0.62653 0.5938 0.0
C149 C 0.51734 0.58708 0.59723 0.0
C150 C 0.55304 0.38701 0.52964 0.0
C151 C 0.54943 0.37542 0.50861 0.0
C152 C 0.5446 0.40448 0.49569 0.0
C153 C 0.54441 0.44474 0.50383 0.0
C154 C 0.54883 0.45583 0.52507 0.0
C155 C 0.55315 0.42675 0.53739 0.0
C156 C 0.55841 0.44264 0.55945 0.0
C157 C 0.55602 0.48606 0.55874 0.0
C158 C 0.55024 0.49431 0.53866 0.0
C159 C 0.60261 0.44809 0.56732 0.0
C160 C 0.52073 0.41014 0.57033 0.0
H161 H 0.54496 0.645 0.5713 0.0
H162 H 0.53205 0.62167 0.49591 0.0
H163 H 0.47158 0.52286 0.51347 0.0
H164 H 0.49325 0.4882 0.50154 0.0
H165 H 0.49554 0.53472 0.48948 0.0
H166 H 0.60756 0.58813 0.50986 0.0
H167 H 0.57293 0.57208 0.48743 0.0
H168 H 0.58637 0.53296 0.49897 0.0
H169 H 0.57101 0.59406 0.63528 0.0
H170 H 0.58196 0.47177 0.63889 0.0
H171 H 0.57126 0.45586 0.60265 0.0
H172 H 0.62784 0.62107 0.59637 0.0
H173 H 0.59765 0.64946 0.60666 0.0
H174 H 0.60411 0.64289 0.57971 0.0
H175 H 0.49535 0.55871 0.60478 0.0
H176 H 0.4992 0.58714 0.58343 0.0
H177 H 0.52345 0.61709 0.60758 0.0
H178 H 0.53658 0.69836 0.55272 0.0
C179 C 0.54212 0.63841 0.55509 0.0
C180 C 0.21363 0.63858 0.85459 0.0
C181 C 0.24807 0.66191 0.86859 0.0
C182 C 0.24007 0.672 0.88885 0.0
C183 C 0.16617 0.6257 0.88216 0.0
C184 C 0.17284 0.62129 0.8617 0.0
C185 C 0.13235 0.59457 0.84934 0.0
H186 H 0.92239 0.47376 0.84955 0.0
C187 C 0.122 0.59748 0.8853 0.0
C188 C 0.10151 0.58008 0.86612 0.0
H189 H 0.99613 0.52371 0.79786 0.0
H190 H 0.06003 0.55207 0.81951 0.0
H191 H 0.99091 0.44074 0.86966 0.0
H192 H 0.96213 0.55303 0.8789 0.0
H193 H 0.97109 0.53969 0.90308 0.0
H194 H 0.92856 0.50045 0.88651 0.0
H195 H 0.9467 0.43979 0.88357 0.0
H196 H 0.99828 0.45695 0.89586 0.0
C197 C 0.13641 0.5552 0.8372 0.0
C198 C 0.12281 0.6251 0.83589 0.0
C199 C 0.08113 0.552 0.95572 0.0
C200 C 0.04399 0.52165 0.96307 0.0
C201 C 1.00759 0.50118 0.95006 0.0
C202 C 1.00877 0.50949 0.92964 0.0
C203 C 0.04671 0.53867 0.92227 0.0
C204 C 0.08182 0.56001 0.93534 0.0
C205 C 0.11927 0.59025 0.92495 0.0
C206 C 0.10128 0.5819 0.90319 0.0
C207 C 0.059 0.55157 0.90176 0.0
C208 C 0.15514 0.57496 0.92723 0.0
C209 C 0.13088 0.63796 0.93423 0.0
C210 C 0.95221 0.48923 0.84254 0.0
C211 C 0.95393 0.49675 0.82191 0.0
C212 C 0.99376 0.51806 0.81376 0.0
C213 C 0.03072 0.53491 0.82637 0.0
C214 C 0.02774 0.53036 0.84729 0.0
C215 C 0.98909 0.50655 0.85489 0.0
C216 C 0.9914 0.50612 0.87756 0.0
C217 C 0.03725 0.53634 0.88249 0.0
C218 C 0.05849 0.55012 0.86474 0.0
C219 C 0.98107 0.45854 0.88207 0.0
C220 C 0.96162 0.52551 0.88715 0.0
H221 H 0.19521 0.66069 0.91149 0.0
H222 H 0.21835 0.63114 0.8388 0.0
H223 H 0.13903 0.66004 0.84216 0.0
H224 H 0.08893 0.61835 0.83514 0.0
H225 H 0.13335 0.62244 0.82022 0.0
H226 H 0.1502 0.53905 0.84715 0.0
H227 H 0.15721 0.56591 0.82429 0.0
H228 H 0.10573 0.52969 0.83109 0.0
H229 H 0.10919 0.56888 0.96563 0.0
H230 H 0.97859 0.47787 0.95556 0.0
H231 H 0.98026 0.49249 0.92035 0.0
H232 H 0.14352 0.53938 0.92225 0.0
H233 H 0.1671 0.58055 0.94332 0.0
H234 H 0.18229 0.59176 0.91809 0.0
H235 H 0.105 0.64099 0.94302 0.0
H236 H 0.13641 0.66063 0.92233 0.0
H237 H 0.1593 0.6501 0.94473 0.0
H238 H 0.26574 0.69177 0.89973 0.0
C239 C 0.19924 0.65384 0.89571 0.0
C240 C 0.92081 0.42682 0.4679 0.0
C241 C 0.88088 0.3997 0.45854 0.0
C242 C 0.86942 0.40974 0.43979 0.0
C243 C 0.93887 0.46755 0.43839 0.0
C244 C 0.94906 0.46093 0.45764 0.0
C245 C 0.99248 0.4938 0.46523 0.0
H246 H 0.17964 0.65187 0.44348 0.0
C247 C 0.97588 0.50251 0.43096 0.0
C248 C 1.00722 0.51905 0.44676 0.0
H249 H 0.14247 0.60457 0.50192 0.0
H250 H 0.07269 0.55615 0.48728 0.0
H251 H 0.13227 0.55617 0.41626 0.0
H252 H 0.10079 0.66478 0.43317 0.0
H253 H 0.07783 0.64362 0.40863 0.0
H254 H 0.13445 0.66572 0.41269 0.0
H255 H 0.15886 0.60918 0.40745 0.0
H256 H 0.11199 0.56817 0.39437 0.0
C257 C 1.01936 0.46873 0.46996 0.0
C258 C 0.98797 0.52295 0.48372 0.0
C259 C 0.98282 0.51808 0.35537 0.0
C260 C 1.01481 0.54459 0.3436 0.0
C261 C 0.05118 0.5784 0.35327 0.0
C262 C 0.05684 0.58389 0.37449 0.0
C263 C 0.02585 0.55515 0.38607 0.0
C264 C 0.98885 0.52413 0.37656 0.0
C265 C 0.9586 0.49794 0.3914 0.0
C266 C 0.98481 0.51661 0.41128 0.0
C267 C 0.02431 0.54949 0.40796 0.0
C268 C 0.9492 0.4491 0.38585 0.0
C269 C 0.91899 0.50794 0.39079 0.0
C270 C 0.15669 0.6305 0.45305 0.0
C271 C 0.16656 0.63109 0.4737 0.0
C272 C 0.13548 0.60412 0.48589 0.0
C273 C 0.09513 0.57629 0.47739 0.0
C274 C 0.08588 0.576 0.45659 0.0
C275 C 0.1164 0.60324 0.44491 0.0
C276 C 0.10097 0.60035 0.42337 0.0
C277 C 0.05576 0.5672 0.42399 0.0
C278 C 0.04721 0.55239 0.44336 0.0
C279 C 0.12733 0.58282 0.40948 0.0
C280 C 0.10381 0.6459 0.41905 0.0
H281 H 0.88791 0.44859 0.41528 0.0
H282 H 0.93042 0.42091 0.48252 0.0
H283 H 0.957 0.52509 0.48296 0.0
H284 H 1.0116 0.55726 0.48427 0.0
H285 H 0.99036 0.50975 0.49824 0.0
H286 H 1.0159 0.44343 0.45721 0.0
H287 H 1.00922 0.45198 0.48395 0.0
H288 H 0.05334 0.49002 0.47197 0.0
H289 H 0.95426 0.49244 0.34817 0.0
H290 H 0.0761 0.59923 0.34437 0.0
H291 H 0.08575 0.60935 0.38099 0.0
H292 H 0.97907 0.44503 0.38394 0.0
H293 H 0.92985 0.43615 0.37137 0.0
H294 H 0.93234 0.42796 0.39753 0.0
H295 H 0.92457 0.53783 0.38319 0.0
H296 H 0.90962 0.51471 0.40626 0.0
H297 H 0.89185 0.48052 0.3824 0.0
H298 H 0.83824 0.39109 0.43267 0.0
C299 C 0.89817 0.44334 0.42969 0.0
C300 C 0.60974 0.97282 0.81792 0.0
C301 C 0.60706 0.93248 0.80836 0.0
C302 C 0.59173 0.91991 0.788 0.0
C303 C 0.58501 0.98797 0.78622 0.0
C304 C 0.59868 1.0003 0.80644 0.0
C305 C 0.60051 0.04524 0.81332 0.0
H306 H 0.58337 0.22819 0.78506 0.0
C307 C 0.57798 0.02373 0.77802 0.0
C308 C 0.58684 0.05781 0.79375 0.0
H309 H 0.61426 0.20874 0.8456 0.0
H310 H 0.60669 0.13511 0.83346 0.0
H311 H 0.63797 0.1872 0.76172 0.0
H312 H 0.50802 0.13758 0.77639 0.0
H313 H 0.50803 0.11251 0.75199 0.0
H314 H 0.528 0.1714 0.75613 0.0
H315 H 0.59997 0.20035 0.74883 0.0
H316 H 0.60973 0.1533 0.74013 0.0
C317 C 0.64634 0.076 0.82042 0.0
C318 C 0.56865 0.04029 0.83002 0.0
C319 C 0.54069 0.01067 0.70244 0.0
C320 C 0.53515 0.03965 0.68992 0.0
C321 C 0.53666 0.07982 0.69888 0.0
C322 C 0.54467 0.09145 0.71981 0.0
C323 C 0.55157 0.06284 0.73204 0.0
C324 C 0.54888 0.02296 0.72338 0.0
C325 C 0.55757 0.99706 0.73873 0.0
C326 C 0.5664 0.0283 0.75802 0.0
C327 C 0.56305 0.06667 0.75392 0.0
C328 C 0.5971 0.98979 0.73234 0.0
C329 C 0.51704 0.9545 0.73987 0.0
C330 C 0.58909 0.20843 0.79573 0.0
C331 C 0.6003 0.22458 0.81616 0.0
C332 C 0.60599 0.19709 0.82968 0.0
C333 C 0.60163 0.15449 0.8226 0.0
C334 C 0.59091 0.13916 0.80187 0.0
C335 C 0.58439 0.16624 0.78903 0.0
C336 C 0.57179 0.14541 0.76773 0.0
C337 C 0.57198 0.10123 0.76954 0.0
C338 C 0.58353 0.09718 0.78948 0.0
C339 C 0.60627 0.17287 0.75372 0.0
C340 C 0.5268 0.14166 0.76259 0.0
H341 H 0.56957 0.93544 0.76151 0.0
H342 H 0.62115 0.98308 0.83363 0.0
H343 H 0.5383 0.01162 0.82566 0.0
H344 H 0.56081 0.06879 0.83244 0.0
H345 H 0.58091 0.03521 0.84467 0.0
H346 H 0.66859 0.07298 0.80907 0.0
H347 H 0.65493 0.06766 0.83517 0.0
H348 H 0.6518 0.11074 0.82214 0.0
H349 H 0.53931 0.97936 0.69607 0.0
H350 H 0.5331 0.10306 0.68959 0.0
H351 H 0.54615 0.12283 0.72553 0.0
H352 H 0.6199 0.0185 0.72529 0.0
H353 H 0.58844 0.96067 0.72103 0.0
H354 H 0.61529 0.98634 0.74527 0.0
H355 H 0.48823 0.9595 0.73627 0.0
H356 H 0.51259 0.94359 0.7553 0.0
H357 H 0.51697 0.92753 0.7289 0.0
H358 H 0.58868 0.88877 0.78048 0.0
C359 C 0.58058 0.94715 0.77698 0.0
C360 C 0.65974 0.48421 0.14885 0.0
C361 C 0.69492 0.48196 0.13869 0.0
C362 C 0.69195 0.47437 0.11741 0.0
C363 C 0.62439 0.47856 0.11608 0.0
C364 C 0.62411 0.4818 0.13704 0.0
C365 C 0.58232 0.48234 0.1439 0.0
H366 H 0.39776 0.49605 0.11159 0.0
C367 C 0.5868 0.48232 0.10772 0.0
C368 C 0.56061 0.48367 0.12371 0.0
H369 H 0.42528 0.47751 0.17285 0.0
H370 H 0.49339 0.47847 0.16254 0.0
H371 H 0.48528 0.56839 0.10634 0.0
H372 H 0.4274 0.43029 0.0887 0.0
H373 H 0.45455 0.45454 0.06768 0.0
H374 H 0.41351 0.46916 0.07728 0.0
H375 H 0.45195 0.54591 0.08369 0.0
H376 H 0.50823 0.56204 0.08353 0.0
C377 C 0.5911 0.52335 0.15867 0.0
C378 C 0.55733 0.43977 0.15354 0.0
C379 C 0.58683 0.51114 0.03356 0.0
C380 C 0.56097 0.52374 0.02181 0.0
C381 C 0.52479 0.52582 0.03009 0.0
C382 C 0.51466 0.51583 0.05 0.0
C383 C 0.54148 0.50446 0.06192 0.0
C384 C 0.57679 0.50228 0.05361 0.0
C385 C 0.60285 0.49205 0.06872 0.0
C386 C 0.57758 0.48899 0.08768 0.0
C387 C 0.54157 0.49568 0.08348 0.0
C388 C 0.64682 0.53136 0.07112 0.0
C389 C 0.60336 0.44738 0.06098 0.0
C390 C 0.41812 0.49257 0.12309 0.0
C391 C 0.40562 0.48726 0.14312 0.0
C392 C 0.4336 0.4816 0.15719 0.0
C393 C 0.47307 0.48203 0.15122 0.0
C394 C 0.48471 0.48758 0.1309 0.0
C395 C 0.45679 0.49277 0.11746 0.0
C396 C 0.47251 0.49905 0.0966 0.0
C397 C 0.5135 0.49449 0.09899 0.0
C398 C 0.522 0.48828 0.11915 0.0
C399 C 0.47969 0.54603 0.09212 0.0
C400 C 0.44041 0.46165 0.08164 0.0
H401 H 0.65818 0.46765 0.09007 0.0
H402 H 0.66049 0.48878 0.16528 0.0
H403 H 0.55455 0.41086 0.14309 0.0
H404 H 0.52502 0.43573 0.15674 0.0
H405 H 0.57347 0.43925 0.16801 0.0
H406 H 0.61132 0.55333 0.15164 0.0
H407 H 0.60758 0.52235 0.17294 0.0
H408 H 0.56157 0.52623 0.16268 0.0
H409 H 0.61502 0.50966 0.0275 0.0
H410 H 0.50433 0.53516 0.02111 0.0
H411 H 0.48645 0.51768 0.05529 0.0
H412 H 0.64364 0.56287 0.0712 0.0
H413 H 0.66668 0.52953 0.05834 0.0
H414 H 0.66435 0.5344 0.08551 0.0
H415 H 0.57659 0.42767 0.0499 0.0
H416 H 0.5995 0.42623 0.0734 0.0
H417 H 0.63287 0.45192 0.05329 0.0
H418 H 0.71762 0.47135 0.10926 0.0
C419 C 0.65721 0.47239 0.10621 0.0
C420 C 0.1758 0.49239 0.16492 0.0
C421 C 0.14659 0.46206 0.15018 0.0
C422 C 0.21839 0.49792 0.16617 0.0
C423 C 0.2327 0.473 0.15219 0.0
C424 C 0.20321 0.4425 0.13726 0.0
C425 C 0.16083 0.43726 0.13654 0.0
C426 C 0.24814 0.53051 0.18249 0.0
C427 C 0.21658 0.4157 0.12173 0.0
C428 C 0.34912 0.51541 0.13913 0.0
C429 C 0.36337 0.48748 0.14834 0.0
C430 C 0.30748 0.51182 0.14073 0.0
C431 C 0.27869 0.48016 0.15231 0.0
C432 C 0.29348 0.4537 0.16276 0.0
C433 C 0.33534 0.45748 0.16059 0.0
C434 C 0.29379 0.54075 0.12916 0.0
C435 C 0.26456 0.42018 0.17569 0.0
H436 H 0.16526 0.51154 0.17565 0.0
H437 H 0.13873 0.41379 0.12506 0.0
H438 H 0.263 0.51417 0.19166 0.0
H439 H 0.27385 0.55673 0.17544 0.0
H440 H 0.23196 0.54582 0.1928 0.0
H441 H 0.18999 0.39311 0.11122 0.0
H442 H 0.24166 0.43773 0.11263 0.0
H443 H 0.23001 0.39616 0.1295 0.0
H444 H 0.3704 0.53968 0.13007 0.0
H445 H 0.34547 0.43563 0.16783 0.0
H446 H 0.28 0.55849 0.13953 0.0
H447 H 0.26891 0.52028 0.1174 0.0
H448 H 0.32027 0.56508 0.12157 0.0
H449 H 0.24863 0.43521 0.18628 0.0
H450 H 0.28168 0.40571 0.18465 0.0
H451 H 0.23964 0.39347 0.16582 0.0
C452 C 0.73452 0.16966 0.49774 0.0
C453 C 0.69346 0.16689 0.49875 0.0
C454 C 0.76822 0.20925 0.49452 0.0
C455 C 0.76017 0.24627 0.49166 0.0
C456 C 0.71896 0.24403 0.49365 0.0
C457 C 0.68613 0.20436 0.49738 0.0
C458 C 0.81199 0.21083 0.49311 0.0
C459 C 0.70875 0.28235 0.49025 0.0
C460 C 0.84772 0.35948 0.48865 0.0
C461 C 0.85157 0.36004 0.46754 0.0
C462 C 0.81907 0.3221 0.49689 0.0
C463 C 0.79312 0.28499 0.48367 0.0
C464 C 0.7973 0.28518 0.46243 0.0
C465 C 0.82694 0.32228 0.45469 0.0
C466 C 0.81598 0.32256 0.51965 0.0
C467 C 0.7698 0.24647 0.44776 0.0
H468 H 0.74016 0.14069 0.49905 0.0
H469 H 0.65428 0.20212 0.49814 0.0
H470 H 0.82072 0.21165 0.47702 0.0
H471 H 0.83541 0.24097 0.5018 0.0
H472 H 0.81416 0.18193 0.49895 0.0
H473 H 0.73302 0.31333 0.49784 0.0
H474 H 0.70832 0.2857 0.47371 0.0
H475 H 0.67753 0.27803 0.49591 0.0
H476 H 0.86644 0.38845 0.49873 0.0
H477 H 0.83064 0.32167 0.43843 0.0
H478 H 0.81855 0.29332 0.52482 0.0
H479 H 0.78476 0.32108 0.52391 0.0
H480 H 0.84088 0.35239 0.52789 0.0
H481 H 0.77453 0.21701 0.45087 0.0
H482 H 0.77658 0.25229 0.43164 0.0
H483 H 0.73609 0.23915 0.44984 0.0
C484 C 0.61024 0.70974 0.82448 0.0
C485 C 0.6417 0.70805 0.83724 0.0
C486 C 0.60582 0.74894 0.82319 0.0
C487 C 0.63399 0.78784 0.8347 0.0
C488 C 0.66519 0.78613 0.84803 0.0
C489 C 0.66872 0.74623 0.84912 0.0
C490 C 0.57172 0.74895 0.80896 0.0
C491 C 0.69555 0.82667 0.8607 0.0
C492 C 0.64995 0.88933 0.80917 0.0
C493 C 0.6208 0.90274 0.81859 0.0
C494 C 0.65637 0.85362 0.81515 0.0
C495 C 0.63313 0.83058 0.83103 0.0
C496 C 0.60579 0.84588 0.84159 0.0
C497 C 0.6 0.88197 0.83525 0.0
C498 C 0.6857 0.83857 0.80337 0.0
C499 C 0.58125 0.82287 0.85892 0.0
H500 H 0.5895 0.68047 0.81511 0.0
H501 H 0.69299 0.74504 0.85907 0.0
H502 H 0.55205 0.76315 0.81724 0.0
H503 H 0.58627 0.76966 0.79659 0.0
H504 H 0.55084 0.71553 0.80202 0.0
H505 H 0.71546 0.81924 0.87161 0.0
H506 H 0.71646 0.85019 0.85062 0.0
H507 H 0.67806 0.8431 0.86929 0.0
H508 H 0.66607 0.90542 0.79628 0.0
H509 H 0.57731 0.89217 0.84248 0.0
H510 H 0.66702 0.80672 0.79438 0.0
H511 H 0.70778 0.83347 0.81389 0.0
H512 H 0.70434 0.86234 0.79278 0.0
H513 H 0.56336 0.78743 0.85417 0.0
H514 H 0.55888 0.83661 0.86454 0.0
H515 H 0.60345 0.82591 0.87169 0.0
C516 C 0.92136 0.48156 0.14154 0.0
C517 C 0.94995 0.50729 0.15756 0.0
C518 C 0.87882 0.47605 0.141 0.0
C519 C 0.86382 0.49591 0.15709 0.0
C520 C 0.89219 0.52003 0.1738 0.0
C521 C 0.93476 0.52588 0.17369 0.0
C522 C 0.85031 0.45033 0.12276 0.0
C523 C 0.87782 0.5406 0.19165 0.0
C524 C 0.77267 0.526 0.14353 0.0
C525 C 0.73679 0.49007 0.14866 0.0
C526 C 0.81376 0.52868 0.14669 0.0
C527 C 0.81995 0.49486 0.15553 0.0
C528 C 0.78402 0.45969 0.16192 0.0
C529 C 0.74294 0.45742 0.15819 0.0
C530 C 0.85044 0.56657 0.1393 0.0
C531 C 0.78872 0.42328 0.17183 0.0
H532 H 0.93264 0.46699 0.129 0.0
H533 H 0.95636 0.54534 0.1863 0.0
H534 H 0.82157 0.42374 0.12766 0.0
H535 H 0.84001 0.47208 0.11476 0.0
H536 H 0.86607 0.43566 0.11185 0.0
H537 H 0.90191 0.55366 0.20448 0.0
H538 H 0.87111 0.56786 0.18687 0.0
H539 H 0.84817 0.5163 0.19712 0.0
H540 H 0.76828 0.55084 0.13571 0.0
H541 H 0.71558 0.42892 0.1617 0.0
H542 H 0.8655 0.55418 0.12707 0.0
H543 H 0.87465 0.58343 0.15183 0.0
H544 H 0.84068 0.59087 0.13328 0.0
H545 H 0.79691 0.40246 0.16029 0.0
H546 H 0.75923 0.40226 0.17876 0.0
H547 H 0.81468 0.4368 0.18375 0.0
C548 C 0.39302 0.8287 0.50498 0.0
C549 C 0.3927 0.85922 0.49202 0.0
C550 C 0.35814 0.78836 0.50527 0.0
C551 C 0.32248 0.7784 0.49209 0.0
C552 C 0.32212 0.8093 0.47901 0.0
C553 C 0.35727 0.84941 0.47916 0.0
C554 C 0.36 0.75633 0.51935 0.0
C555 C 0.28468 0.79989 0.46471 0.0
C556 C 0.24459 0.66509 0.47216 0.0
C557 C 0.20855 0.66239 0.48225 0.0
C558 C 0.28328 0.7012 0.47654 0.0
C559 C 0.28569 0.73537 0.49126 0.0
C560 C 0.25042 0.7307 0.50288 0.0
C561 C 0.21206 0.69406 0.49822 0.0
C562 C 0.32047 0.70453 0.46417 0.0
C563 C 0.25221 0.76609 0.51902 0.0
H564 H 0.42053 0.83638 0.51495 0.0
H565 H 0.35705 0.87308 0.46917 0.0
H566 H 0.32904 0.73859 0.52588 0.0
H567 H 0.36857 0.73173 0.51066 0.0
H568 H 0.38407 0.77291 0.53201 0.0
H569 H 0.28921 0.82772 0.45577 0.0
H570 H 0.27904 0.77059 0.45396 0.0
H571 H 0.2559 0.7926 0.47342 0.0
H572 H 0.24186 0.64019 0.45996 0.0
H573 H 0.18414 0.69194 0.50601 0.0
H574 H 0.34937 0.71513 0.47418 0.0
H575 H 0.32627 0.72955 0.45338 0.0
H576 H 0.31512 0.67295 0.45531 0.0
H577 H 0.28128 0.77718 0.52897 0.0
H578 H 0.22441 0.75486 0.5286 0.0
H579 H 0.2532 0.79477 0.51167 0.0
C580 C 0.61042 0.46784 0.84289 0.0
C581 C 0.57742 0.46899 0.83101 0.0
C582 C 0.61743 0.42965 0.84261 0.0
C583 C 0.59082 0.39158 0.83011 0.0
C584 C 0.55733 0.39256 0.81813 0.0
C585 C 0.55098 0.43122 0.81877 0.0
C586 C 0.65355 0.4302 0.85554 0.0
C587 C 0.5285 0.35288 0.80442 0.0
C588 C 0.62747 0.30394 0.81111 0.0
C589 C 0.60442 0.26963 0.82269 0.0
C590 C 0.62492 0.3445 0.81404 0.0
C591 C 0.59862 0.35107 0.82893 0.0
C592 C 0.5775 0.31757 0.8416 0.0
C593 C 0.58067 0.27719 0.83834 0.0
C594 C 0.6485 0.37938 0.80035 0.0
C595 C 0.54974 0.32354 0.85788 0.0
H596 H 0.63092 0.49694 0.85245 0.0
H597 H 0.52549 0.43198 0.80956 0.0
H598 H 0.64194 0.40314 0.86543 0.0
H599 H 0.6769 0.42489 0.84567 0.0
H600 H 0.66985 0.46163 0.86527 0.0
H601 H 0.50361 0.35873 0.7963 0.0
H602 H 0.54713 0.34342 0.793 0.0
H603 H 0.51313 0.32476 0.81345 0.0
H604 H 0.64618 0.29832 0.7991 0.0
H605 H 0.56262 0.25073 0.84723 0.0
H606 H 0.66708 0.41102 0.80948 0.0
H607 H 0.62565 0.38449 0.79031 0.0
H608 H 0.67021 0.37048 0.79067 0.0
H609 H 0.56673 0.35497 0.86747 0.0
H610 H 0.53912 0.29647 0.8678 0.0
H611 H 0.52151 0.32487 0.85067 0.0
C612 C 0.5856 0.90598 0.51492 0.0
C613 C 0.56531 0.91933 0.50039 0.0
C614 C 0.57672 0.86155 0.51557 0.0
C615 C 0.54729 0.82962 0.5011 0.0
C616 C 0.52706 0.84305 0.4862 0.0
C617 C 0.53606 0.88774 0.48614 0.0
C618 C 0.59838 0.84871 0.53201 0.0
C619 C 0.49551 0.81041 0.47048 0.0
C620 C 0.55877 0.72194 0.49868 0.0
C621 C 0.52921 0.69978 0.51254 0.0
C622 C 0.56274 0.76298 0.4934 0.0
C623 C 0.5369 0.78228 0.50239 0.0
C624 C 0.50449 0.75805 0.51488 0.0
C625 C 0.50084 0.717 0.51965 0.0
C626 C 0.59661 0.78708 0.4794 0.0
C627 C 0.47589 0.77697 0.52461 0.0
H628 H 0.60813 0.93031 0.52598 0.0
H629 H 0.52038 0.89799 0.47482 0.0
H630 H 0.57449 0.82608 0.54141 0.0
H631 H 0.6165 0.83109 0.52507 0.0
H632 H 0.62026 0.87745 0.54215 0.0
H633 H 0.49018 0.82645 0.45745 0.0
H634 H 0.50603 0.78485 0.46465 0.0
H635 H 0.46489 0.7939 0.47751 0.0
H636 H 0.58075 0.70881 0.49314 0.0
H637 H 0.47756 0.69961 0.53016 0.0
H638 H 0.62278 0.81442 0.48835 0.0
H639 H 0.58403 0.80144 0.468 0.0
H640 H 0.60958 0.76536 0.47131 0.0
H641 H 0.49468 0.8059 0.53543 0.0
H642 H 0.45071 0.75293 0.53296 0.0
H643 H 0.46093 0.78821 0.51288 0.0
C644 C 0.73906 0.51944 0.8039 0.0
C645 C 0.74509 0.54779 0.82167 0.0
C646 C 0.76967 0.50437 0.79815 0.0
C647 C 0.80625 0.51667 0.81096 0.0
C648 C 0.81188 0.54456 0.8292 0.0
C649 C 0.78147 0.5604 0.83415 0.0
C650 C 0.76229 0.47522 0.77848 0.0
C651 C 0.85 0.55763 0.84358 0.0
C652 C 0.87583 0.45776 0.81531 0.0
C653 C 0.91442 0.49096 0.81084 0.0
C654 C 0.83824 0.46302 0.81325 0.0
C655 C 0.83942 0.50135 0.80569 0.0
C656 C 0.87655 0.5301 0.79728 0.0
C657 C 0.91398 0.52498 0.80022 0.0
C658 C 0.79877 0.43073 0.82169 0.0
C659 C 0.87797 0.56946 0.7876 0.0
H660 H 0.71067 0.50959 0.79426 0.0
H661 H 0.78578 0.58202 0.84796 0.0
H662 H 0.79222 0.47846 0.77161 0.0
H663 H 0.74453 0.44064 0.78148 0.0
H664 H 0.74299 0.48267 0.76724 0.0
H665 H 0.84801 0.57688 0.85776 0.0
H666 H 0.85344 0.52808 0.84774 0.0
H667 H 0.87893 0.57765 0.83601 0.0
H668 H 0.87569 0.4302 0.82262 0.0
H669 H 0.94331 0.55043 0.79621 0.0
H670 H 0.77116 0.42244 0.81108 0.0
H671 H 0.79265 0.44569 0.83625 0.0
H672 H 0.80155 0.40006 0.82457 0.0
H673 H 0.84868 0.56102 0.77814 0.0
H674 H 0.90552 0.58263 0.77797 0.0
H675 H 0.88045 0.59562 0.79966 0.0
C676 C 0.17782 0.6835 0.14043 0.0
C677 C 0.17904 0.65377 0.15364 0.0
C678 C 0.21257 0.72379 0.13948 0.0
C679 C 0.24892 0.73472 0.15233 0.0
C680 C 0.25043 0.70433 0.16543 0.0
C681 C 0.21557 0.66406 0.1658 0.0
C682 C 0.21012 0.75494 0.12504 0.0
C683 C 0.28837 0.7149 0.17957 0.0
C684 C 0.35668 0.82615 0.14667 0.0
C685 C 0.35693 0.85775 0.162 0.0
C686 C 0.32046 0.78683 0.1422 0.0
C687 C 0.28411 0.77911 0.15349 0.0
C688 C 0.28331 0.8125 0.16782 0.0
C689 C 0.3196 0.85151 0.17176 0.0
C690 C 0.32215 0.75239 0.12646 0.0
C691 C 0.24533 0.80573 0.18023 0.0
H692 H 0.14968 0.67529 0.13085 0.0
H693 H 0.2166 0.64094 0.17593 0.0
H694 H 0.20973 0.78439 0.13379 0.0
H695 H 0.23835 0.76611 0.11578 0.0
H696 H 0.18146 0.7398 0.11466 0.0
H697 H 0.28507 0.68714 0.18832 0.0
H698 H 0.31721 0.72362 0.17081 0.0
H699 H 0.29299 0.74368 0.19049 0.0
H700 H 0.38548 0.83088 0.13911 0.0
H701 H 0.31959 0.87629 0.1834 0.0
H702 H 0.2927 0.73756 0.11667 0.0
H703 H 0.32504 0.72583 0.13419 0.0
H704 H 0.34941 0.76599 0.1167 0.0
H705 H 0.21625 0.79338 0.17024 0.0
H706 H 0.24836 0.83632 0.18932 0.0
H707 H 0.24143 0.78072 0.1908 0.0
C708 C 0.54296 0.13312 0.48354 0.0
C709 C 0.51162 0.10751 0.49583 0.0
C710 C 0.55088 0.17716 0.48208 0.0
C711 C 0.52774 0.19628 0.49369 0.0
C712 C 0.49598 0.17026 0.50612 0.0
C713 C 0.4877 0.12592 0.50667 0.0
C714 C 0.58375 0.20309 0.46802 0.0
C715 C 0.47165 0.18959 0.51937 0.0
C716 C 0.57631 0.3177 0.51119 0.0
C717 C 0.54981 0.33245 0.50109 0.0
C718 C 0.57052 0.27389 0.50834 0.0
C719 C 0.53868 0.24415 0.49426 0.0
C720 C 0.51493 0.25982 0.48233 0.0
C721 C 0.52034 0.30371 0.48608 0.0
C722 C 0.59613 0.25887 0.52175 0.0
C723 C 0.48221 0.2297 0.46639 0.0
H724 H 0.56071 0.11844 0.47475 0.0
H725 H 0.46336 0.1059 0.5161 0.0
H726 H 0.56838 0.21277 0.45581 0.0
H727 H 0.60723 0.23364 0.47634 0.0
H728 H 0.60062 0.18419 0.46091 0.0
H729 H 0.44845 0.16512 0.52836 0.0
H730 H 0.49379 0.21702 0.53003 0.0
H731 H 0.45457 0.20314 0.50987 0.0
H732 H 0.60018 0.33998 0.52235 0.0
H733 H 0.49992 0.31471 0.47806 0.0
H734 H 0.60807 0.23736 0.5128 0.0
H735 H 0.57567 0.23946 0.53328 0.0
H736 H 0.62336 0.28677 0.5298 0.0
H737 H 0.49456 0.20872 0.45724 0.0
H738 H 0.47216 0.24815 0.45602 0.0
H739 H 0.45406 0.20781 0.47389 0.0
C740 C 0.424 0.59315 0.83515 0.0
C741 C 0.46592 0.62343 0.83861 0.0
C742 C 0.39107 0.60631 0.83786 0.0
C743 C 0.40056 0.6508 0.84409 0.0
C744 C 0.44299 0.68198 0.84629 0.0
C745 C 0.47529 0.66781 0.84366 0.0
C746 C 0.34613 0.57211 0.83525 0.0
C747 C 0.45462 0.72979 0.85266 0.0
C748 C 0.30503 0.67705 0.84343 0.0
C749 C 0.29138 0.66863 0.86314 0.0
C750 C 0.34229 0.6742 0.83722 0.0
C751 C 0.36623 0.66284 0.85109 0.0
C752 C 0.35447 0.65789 0.87142 0.0
C753 C 0.3171 0.66053 0.87715 0.0
C754 C 0.35472 0.68081 0.81557 0.0
C755 C 0.37967 0.64653 0.88678 0.0
H756 H 0.41689 0.55892 0.831 0.0
H757 H 0.50788 0.6914 0.84601 0.0
H758 H 0.33189 0.56765 0.85029 0.0
H759 H 0.327 0.5829 0.8255 0.0
H760 H 0.34409 0.53996 0.8284 0.0
H761 H 0.48556 0.75068 0.84689 0.0
H762 H 0.43057 0.74036 0.84715 0.0
H763 H 0.45717 0.73542 0.86951 0.0
H764 H 0.2858 0.68419 0.83264 0.0
H765 H 0.30678 0.65325 0.89232 0.0
H766 H 0.34958 0.64888 0.80718 0.0
H767 H 0.38873 0.70261 0.81517 0.0
H768 H 0.33611 0.69506 0.80751 0.0
H769 H 0.37734 0.61304 0.8824 0.0
H770 H 0.36839 0.64774 0.90239 0.0
H771 H 0.41346 0.66939 0.88702 0.0
C772 C 0.87529 0.32122 0.13569 0.0
C773 C 0.90898 0.32612 0.14889 0.0
C774 C 0.83441 0.28971 0.13804 0.0
C775 C 0.82709 0.26298 0.15415 0.0
C776 C 0.86145 0.26641 0.1669 0.0
C777 C 0.90212 0.29787 0.16403 0.0
C778 C 0.79881 0.2868 0.12399 0.0
C779 C 0.85488 0.23869 0.18435 0.0
C780 C 0.72359 0.22477 0.18013 0.0
C781 C 0.70583 0.1797 0.17402 0.0
C782 C 0.76212 0.2526 0.17295 0.0
C783 C 0.78328 0.23495 0.1592 0.0
C784 C 0.76394 0.19006 0.15175 0.0
C785 C 0.72534 0.16283 0.1593 0.0
C786 C 0.78138 0.30039 0.18112 0.0
C787 C 0.78512 0.17034 0.13672 0.0
H788 H 0.88059 0.34305 0.12392 0.0
H789 H 0.92816 0.30174 0.17426 0.0
H790 H 0.77777 0.25215 0.11901 0.0
H791 H 0.77956 0.30163 0.13219 0.0
H792 H 0.81057 0.30428 0.11033 0.0
H793 H 0.88515 0.243 0.19186 0.0
H794 H 0.83606 0.24767 0.19585 0.0
H795 H 0.83687 0.20359 0.17894 0.0
H796 H 0.70816 0.23796 0.19127 0.0
H797 H 0.71172 0.12798 0.15458 0.0
H798 H 0.79071 0.32139 0.16846 0.0
H799 H 0.81035 0.30767 0.1906 0.0
H800 H 0.75945 0.30952 0.19052 0.0
H801 H 0.7967 0.191 0.12403 0.0
H802 H 0.76358 0.13669 0.13035 0.0
H803 H 0.81289 0.1689 0.14436 0.0
C804 C 0.07828 0.52494 0.08114 0.0
C805 C 0.05552 0.48499 0.089 0.0
C806 C 0.07623 0.52857 0.06028 0.0
C807 C 0.05134 0.4912 0.04697 0.0
C808 C 0.02959 0.45039 0.05468 0.0
C809 C 0.0317 0.44783 0.07568 0.0
C810 C 0.09963 0.57273 0.05258 0.0
C811 C 1.00338 0.40974 0.04083 0.0
C812 C 1.01324 0.51314 -0.00283 0.0
C813 C 0.04387 0.51084 0.98418 0.0
C814 C 1.01474 0.50583 0.01763 0.0
C815 C 0.04728 0.49537 0.02504 0.0
C816 C 0.07733 0.49139 0.01175 0.0
C817 C 0.07543 0.49951 0.99146 0.0
C818 C 0.98244 0.51081 0.03148 0.0
C819 C 0.11203 0.4796 0.01907 0.0
H820 H 0.09658 0.55386 0.09135 0.0
H821 H 1.01424 0.41681 0.08167 0.0
H822 H 0.12128 0.57064 0.04077 0.0
H823 H 0.07687 0.58309 0.0454 0.0
H824 H 0.11827 0.59835 0.06491 0.0
H825 H 0.99063 0.38003 0.04908 0.0
H826 H 0.97659 0.41382 0.03362 0.0
H827 H 1.02254 0.40453 0.02842 0.0
H828 H 0.98898 0.52209 0.99147 0.0
H829 H 0.09877 0.49722 0.98126 0.0
H830 H 0.99838 0.53827 0.04348 0.0
H831 H 0.96643 0.48079 0.03921 0.0
H832 H 0.95821 0.5173 0.02313 0.0
H833 H 0.13349 0.50604 0.03034 0.0
H834 H 0.1309 0.47461 0.00644 0.0
H835 H 0.09853 0.44928 0.02682 0.0
C836 C 0.58482 0.03461 0.42297 0.0
C837 C 0.54626 0.01489 0.43215 0.0
C838 C 0.58626 0.03574 0.40184 0.0
C839 C 0.54818 0.01752 0.38974 0.0
C840 C 0.50914 0.9982 0.39897 0.0
C841 C 0.50869 0.99672 0.42006 0.0
C842 C 0.62847 0.05587 0.39243 0.0
C843 C 0.46783 0.97915 0.38656 0.0
C844 C 0.54464 0.05146 0.3369 0.0
C845 C 0.54265 0.01439 0.32479 0.0
C846 C 0.54734 0.0534 0.35816 0.0
C847 C 0.54891 0.01774 0.36734 0.0
C848 C 0.54871 0.98102 0.35508 0.0
C849 C 0.54509 0.97959 0.3339 0.0
C850 C 0.54678 0.09274 0.37078 0.0
C851 C 0.55122 0.9428 0.36435 0.0
H852 H 0.61396 0.04853 0.43228 0.0
H853 H 0.47879 0.98192 0.42714 0.0
H854 H 0.63257 0.0311 0.38152 0.0
H855 H 0.62991 0.08303 0.38374 0.0
H856 H 0.65516 0.06871 0.404 0.0
H857 H 0.44018 0.96683 0.39618 0.0
H858 H 0.46523 1.0043 0.37762 0.0
H859 H 0.46659 0.95172 0.37558 0.0
H860 H 0.5425 0.07819 0.32973 0.0
H861 H 0.5439 0.95113 0.3244 0.0
H862 H 0.57413 0.10693 0.38192 0.0
H863 H 0.51786 0.08255 0.37955 0.0
H864 H 0.54753 0.11858 0.36129 0.0
H865 H 0.57861 0.95446 0.37544 0.0
H866 H 0.55416 0.91849 0.35269 0.0
H867 H 0.52248 0.92612 0.37276 0.0
C868 C 0.57298 0.58649 0.7594 0.0
C869 C 0.60353 0.57871 0.77021 0.0
C870 C 0.57006 0.58123 0.73812 0.0
C871 C 0.59826 0.56775 0.72742 0.0
C872 C 0.62969 0.56064 0.73819 0.0
C873 C 0.632 0.56628 0.7595 0.0
C874 C 0.53622 0.58925 0.7271 0.0
C875 C 0.66023 0.54612 0.72722 0.0
C876 C 0.56159 0.50944 0.6746 0.0
C877 C 0.58291 0.5429 0.66235 0.0
C878 C 0.56665 0.51704 0.69582 0.0
C879 C 0.59357 0.55918 0.70497 0.0
C880 C 0.6152 0.59314 0.69272 0.0
C881 C 0.60961 0.58458 0.6715 0.0
C882 C 0.54292 0.48008 0.70844 0.0
C883 C 0.64414 0.63847 0.70202 0.0
H884 H 0.551 0.59637 0.76754 0.0
H885 H 0.65566 0.56014 0.76774 0.0
H886 H 0.5505 0.61343 0.716 0.0
H887 H 0.51403 0.55843 0.71839 0.0
H888 H 0.51799 0.60147 0.73766 0.0
H889 H 0.68396 0.54385 0.73782 0.0
H890 H 0.64272 0.51358 0.71859 0.0
H891 H 0.67698 0.56929 0.71606 0.0
H892 H 0.54044 0.47735 0.66758 0.0
H893 H 0.6265 0.61037 0.66206 0.0
H894 H 0.52152 0.48893 0.71834 0.0
H895 H 0.56533 0.47444 0.71854 0.0
H896 H 0.52389 0.44902 0.69892 0.0
H897 H 0.62631 0.65229 0.712 0.0
H898 H 0.65885 0.66115 0.69034 0.0
H899 H 0.66951 0.63686 0.71168 0.0
C900 C 0.56243 0.05532 0.57244 0.0
C901 C 0.53597 0.01831 0.55971 0.0
C902 C 0.56035 0.05635 0.59363 0.0
C903 C 0.53133 0.01934 0.60227 0.0
C904 C 0.50466 0.9818 0.58954 0.0
C905 C 0.50718 0.98178 0.56839 0.0
C906 C 0.58913 0.0971 0.60676 0.0
C907 C 0.4736 0.94162 0.59827 0.0
C908 C 0.55641 0.01252 0.65736 0.0
C909 C 0.53065 0.02978 0.66749 0.0
C910 C 0.55583 1.00742 0.63607 0.0
C911 C 0.52906 0.02017 0.62469 0.0
C912 C 0.50185 0.03606 0.63479 0.0
C913 C 0.50287 0.04053 0.65609 0.0
C914 C 0.58508 0.99006 0.62578 0.0
C915 C 0.47278 0.04985 0.62313 0.0
H916 H 0.58463 0.08375 0.56587 0.0
H917 H 0.48679 0.95289 0.55868 0.0
H918 H 0.57014 0.11017 0.61633 0.0
H919 H 0.60937 0.08908 0.61719 0.0
H920 H 0.60973 0.12316 0.59764 0.0
H921 H 0.45519 0.91504 0.58626 0.0
H922 H 0.49054 0.92906 0.60842 0.0
H923 H 0.45134 0.95015 0.60764 0.0
H924 H 0.5783 1.00461 0.66606 0.0
H925 H 0.48241 0.05322 0.66386 0.0
H926 H 0.60933 0.01626 0.61802 0.0
H927 H 0.56734 0.96279 0.61398 0.0
H928 H 0.6013 0.97825 0.63672 0.0
H929 H 0.4917 0.07825 0.61485 0.0
H930 H 0.4519 0.05915 0.63323 0.0
H931 H 0.45289 0.02298 0.61162 0.0
C932 C 0.56549 0.57061 0.90707 0.0
C933 C 0.60534 0.58537 0.89883 0.0
C934 C 0.56038 0.56175 0.92739 0.0
C935 C 0.59615 0.5689 0.93993 0.0
C936 C 0.63669 0.58514 0.93191 0.0
C937 C 0.64075 0.59264 0.91132 0.0
C938 C 0.51652 0.54356 0.93527 0.0
C939 C 0.67562 0.59416 0.94501 0.0
C940 C 0.57915 0.57784 -0.00364 0.0
C941 C 0.57221 0.53591 0.00114 0.0
C942 C 0.58893 0.58972 0.97665 0.0
C943 C 0.59065 0.55845 0.96133 0.0
C944 C 0.58416 0.51616 0.9662 0.0
C945 C 0.57551 0.50556 0.98618 0.0
C946 C 0.59661 0.6354 0.97213 0.0
C947 C 0.58481 0.48165 0.95016 0.0
H948 H 0.53791 0.56438 0.89742 0.0
H949 H 0.6716 0.60416 0.90499 0.0
H950 H 0.50926 0.51119 0.94073 0.0
H951 H 0.51458 0.56544 0.94839 0.0
H952 H 0.492 0.53963 0.92347 0.0
H953 H 0.70501 0.60918 0.93677 0.0
H954 H 0.67733 0.61638 0.95875 0.0
H955 H 0.67401 0.56323 0.95026 0.0
H956 H 0.57699 0.60133 0.00811 0.0
H957 H 0.57003 0.47313 0.99001 0.0
H958 H 0.57106 0.63405 0.96162 0.0
H959 H 0.62669 0.65043 0.96445 0.0
H960 H 0.59787 0.65689 0.98611 0.0
H961 H 0.5592 0.47402 0.9384 0.0
H962 H 0.58061 0.4509 0.95661 0.0
H963 H 0.61502 0.49397 0.94244 0.0
C964 C 0.99387 0.48153 0.2227 0.0
C965 C 0.03478 0.49427 0.21591 0.0
C966 C 0.98719 0.48862 0.24334 0.0
C967 C 1.02227 0.50776 0.25744 0.0
C968 C 0.06359 0.51948 0.25068 0.0
C969 C 0.06937 0.51318 0.2299 0.0
C970 C 0.94281 0.47675 0.24997 0.0
C971 C 0.1017 0.53894 0.26535 0.0
C972 C 1.01768 0.5664 0.30838 0.0
C973 C 1.0124 0.53423 0.32138 0.0
C974 C 1.01896 0.55754 0.28733 0.0
C975 C 1.01608 0.51597 0.27931 0.0
C976 C 1.00998 0.48315 0.29241 0.0
C977 C 1.00776 0.49259 0.31331 0.0
C978 C 0.02452 0.59297 0.27373 0.0
C979 C 1.00776 0.43881 0.28448 0.0
H980 H 0.96718 0.46752 0.21177 0.0
H981 H 0.10099 0.5229 0.22457 0.0
H982 H 0.9353 0.45313 0.26154 0.0
H983 H 0.94005 0.5064 0.25717 0.0
H984 H 0.91901 0.46218 0.23706 0.0
H985 H 0.13142 0.54418 0.25771 0.0
H986 H 0.10447 0.57083 0.27285 0.0
H987 H 0.09808 0.51712 0.27747 0.0
H988 H 1.02115 0.59854 0.31474 0.0
H989 H 1.00419 0.46796 0.3235 0.0
H990 H 1.00033 0.58012 0.26097 0.0
H991 H 0.05582 0.60378 0.26701 0.0
H992 H 1.02221 0.6219 0.2821 0.0
H993 H 0.98298 0.42344 0.27207 0.0
H994 H 1.00101 0.41632 0.29656 0.0
H995 H 0.03819 0.44267 0.27798 0.0
loop_
_geom_bond_atom_site_label_1
_geom_bond_atom_site_label_2
_geom_bond_distance
_geom_bond_site_symmetry_2
_ccdc_geom_bond_type
Tb0 O3 2.453 1_455 S
Tb0 O4 2.596 1_455 S
Tb0 O5 2.374 . S
Tb0 O13 2.343 . S
Tb0 O15 2.353 . S
Tb0 O17 2.427 . S
Tb0 O18 2.513 . S
C1 O5 1.251 . S
C1 O7 1.263 . S
Tb2 O4 2.343 1_455 S
Tb2 O7 2.353 . S
Tb2 O10 2.427 1_455 S
Tb2 O11 2.513 1_455 S
Tb2 O12 2.453 . S
Tb2 O13 2.596 . S
Tb2 O14 2.374 . S
O3 Tb0 2.453 1_655 S
O3 C19 1.245 . S
O4 Tb0 2.596 1_655 S
O4 Tb2 2.343 1_655 S
O4 C19 1.259 . S
O5 Tb0 2.374 . S
O5 C1 1.251 . S
C6 O10 1.275 . S
C6 O11 1.246 . S
O7 C1 1.263 . S
O7 Tb2 2.353 . S
C8 O12 1.245 . S
C8 O13 1.259 . S
C9 O14 1.250 . S
C9 O15 1.263 . S
O10 Tb2 2.427 1_655 S
O10 C6 1.275 . S
O11 Tb2 2.513 1_655 S
O11 C6 1.246 . S
O12 Tb2 2.453 . S
O12 C8 1.245 . S
O13 Tb0 2.343 . S
O13 Tb2 2.596 . S
O13 C8 1.259 . S
O14 Tb2 2.374 . S
O14 C9 1.250 . S
O15 Tb0 2.353 . S
O15 C9 1.263 . S
C16 O17 1.275 . S
C16 O18 1.246 . S
O17 Tb0 2.427 . S
O17 C16 1.275 . S
O18 Tb0 2.513 . S
O18 C16 1.246 . S
C19 O3 1.245 . S
C19 O4 1.259 . S
Tb20 O23 2.453 . S
Tb20 O24 2.596 . S
Tb20 O25 2.374 . S
Tb20 O33 2.343 1_545 S
Tb20 O35 2.353 . S
Tb20 O37 2.427 1_545 S
Tb20 O38 2.513 1_545 S
C21 O25 1.251 . S
C21 O27 1.263 . S
Tb22 O24 2.343 . S
Tb22 O27 2.353 . S
Tb22 O30 2.427 . S
Tb22 O31 2.513 . S
Tb22 O32 2.453 1_545 S
Tb22 O33 2.596 1_545 S
Tb22 O34 2.374 . S
O23 Tb20 2.453 . S
O23 C39 1.245 . S
O24 Tb20 2.596 . S
O24 Tb22 2.343 . S
O24 C39 1.259 . S
O25 Tb20 2.374 . S
O25 C21 1.251 . S
C26 O30 1.275 . S
C26 O31 1.246 . S
O27 C21 1.263 . S
O27 Tb22 2.353 . S
C28 O32 1.245 . S
C28 O33 1.259 . S
C29 O34 1.250 . S
C29 O35 1.263 . S
O30 Tb22 2.427 . S
O30 C26 1.275 . S
O31 Tb22 2.513 . S
O31 C26 1.246 . S
O32 Tb22 2.453 1_565 S
O32 C28 1.245 . S
O33 Tb20 2.343 1_565 S
O33 Tb22 2.596 1_565 S
O33 C28 1.259 . S
O34 Tb22 2.374 . S
O34 C29 1.250 . S
O35 Tb20 2.353 . S
O35 C29 1.263 . S
C36 O37 1.275 . S
C36 O38 1.246 . S
O37 Tb20 2.427 1_565 S
O37 C36 1.275 . S
O38 Tb20 2.513 1_565 S
O38 C36 1.246 . S
C39 O23 1.245 . S
C39 O24 1.259 . S
Tb40 O43 2.453 . S
Tb40 O44 2.596 . S
Tb40 O45 2.374 . S
Tb40 O53 2.343 . S
Tb40 O55 2.353 . S
Tb40 O57 2.427 . S
Tb40 O58 2.513 . S
C41 O45 1.251 . S
C41 O47 1.263 . S
Tb42 O44 2.343 . S
Tb42 O47 2.353 . S
Tb42 O50 2.427 . S
Tb42 O51 2.513 . S
Tb42 O52 2.453 . S
Tb42 O53 2.596 . S
Tb42 O54 2.374 . S
O43 Tb40 2.453 . S
O43 C59 1.245 . S
O44 Tb40 2.596 . S
O44 Tb42 2.343 . S
O44 C59 1.259 . S
O45 Tb40 2.374 . S
O45 C41 1.251 . S
C46 O50 1.275 . S
C46 O51 1.246 . S
O47 C41 1.263 . S
O47 Tb42 2.353 . S
C48 O52 1.245 . S
C48 O53 1.259 . S
C49 O54 1.250 . S
C49 O55 1.263 . S
O50 Tb42 2.427 . S
O50 C46 1.275 . S
O51 Tb42 2.513 . S
O51 C46 1.246 . S
O52 Tb42 2.453 . S
O52 C48 1.245 . S
O53 Tb40 2.343 . S
O53 Tb42 2.596 . S
O53 C48 1.259 . S
O54 Tb42 2.374 . S
O54 C49 1.250 . S
O55 Tb40 2.353 . S
O55 C49 1.263 . S
C56 O57 1.275 . S
C56 O58 1.246 . S
O57 Tb40 2.427 . S
O57 C56 1.275 . S
O58 Tb40 2.513 . S
O58 C56 1.246 . S
C59 O43 1.245 . S
C59 O44 1.259 . S
C60 C61 1.391 . S
C60 C64 1.391 . S
C60 H102 0.948 . S
C61 C60 1.391 . S
C61 C62 1.391 . S
C62 C61 1.391 . S
C62 H118 0.947 . S
C62 C119 1.392 . S
C63 C64 1.391 . S
C63 C67 1.397 . S
C63 C119 1.419 . S
C64 C60 1.391 . S
C64 C63 1.391 . S
C64 C65 1.399 . S
C65 C64 1.399 . S
C65 C68 1.396 . S
C65 C77 1.453 . S
C65 C78 1.684 . S
H66 C90 0.948 . S
C67 C63 1.397 . S
C67 C68 1.394 . S
C67 C86 1.723 . S
C68 C65 1.396 . S
C68 C67 1.394 . S
C68 C98 1.723 . S
H69 C92 0.947 . S
H70 C93 0.948 . S
H71 C99 0.982 . S
H72 C100 0.979 . S
H73 C100 0.980 . S
H74 C100 0.983 . S
H75 C99 0.979 . S
H76 C99 0.977 . S
C77 C65 1.453 . S
C77 H106 0.982 . S
C77 H107 0.979 . S
C77 H108 0.977 . S
C78 C65 1.684 . S
C78 H103 0.979 . S
C78 H104 0.980 . S
C78 H105 0.983 . S
C79 C80 1.391 . S
C79 C84 1.391 . S
C79 H109 0.948 . S
C80 C79 1.391 . S
C80 C81 1.391 . S
C81 C80 1.391 . S
C81 C82 1.392 . S
C81 H110 0.947 1_545 S
C82 C81 1.392 . S
C82 C83 1.419 . S
C82 H111 0.948 1_545 S
C83 C82 1.419 . S
C83 C84 1.391 . S
C83 C87 1.397 . S
C84 C79 1.391 . S
C84 C83 1.391 . S
C84 C85 1.399 . S
C85 C84 1.399 . S
C85 C86 1.396 . S
C85 C88 1.453 . S
C85 C89 1.684 . S
C86 C67 1.723 . S
C86 C85 1.396 . S
C86 C87 1.394 . S
C87 C83 1.397 . S
C87 C86 1.394 . S
C87 C97 1.723 1_545 S
C88 C85 1.453 . S
C88 H112 0.982 . S
C88 H113 0.979 . S
C88 H114 0.977 . S
C89 C85 1.684 . S
C89 H115 0.979 . S
C89 H116 0.980 . S
C89 H117 0.983 . S
C90 H66 0.948 . S
C90 C91 1.391 . S
C90 C95 1.391 . S
C91 C90 1.391 . S
C91 C92 1.391 . S
C92 H69 0.947 . S
C92 C91 1.391 . S
C92 C93 1.392 . S
C93 H70 0.948 . S
C93 C92 1.392 . S
C93 C94 1.419 . S
C94 C93 1.419 . S
C94 C95 1.391 . S
C94 C98 1.397 1_565 S
C95 C90 1.391 . S
C95 C94 1.391 . S
C95 C96 1.399 . S
C96 C95 1.399 . S
C96 C97 1.396 . S
C96 C99 1.453 . S
C96 C100 1.684 . S
C97 C87 1.723 1_565 S
C97 C96 1.396 . S
C97 C98 1.394 1_565 S
C98 C68 1.723 . S
C98 C94 1.397 1_545 S
C98 C97 1.394 1_545 S
C99 H71 0.982 . S
C99 H75 0.979 . S
C99 H76 0.977 . S
C99 C96 1.453 . S
C100 H72 0.979 . S
C100 H73 0.980 . S
C100 H74 0.983 . S
C100 C96 1.684 . S
H101 C119 0.948 . S
H102 C60 0.948 . S
H103 C78 0.979 . S
H104 C78 0.980 . S
H105 C78 0.983 . S
H106 C77 0.982 . S
H107 C77 0.979 . S
H108 C77 0.977 . S
H109 C79 0.948 . S
H110 C81 0.947 1_565 S
H111 C82 0.948 1_565 S
H112 C88 0.982 . S
H113 C88 0.979 . S
H114 C88 0.977 . S
H115 C89 0.979 . S
H116 C89 0.980 . S
H117 C89 0.983 . S
H118 C62 0.947 . S
C119 C62 1.392 . S
C119 C63 1.419 . S
C119 H101 0.948 . S
C120 C121 1.391 . S
C120 C124 1.391 . S
C120 H162 0.948 . S
C121 C120 1.391 . S
C121 C122 1.391 . S
C122 C121 1.391 . S
C122 H178 0.947 . S
C122 C179 1.392 . S
C123 C124 1.391 . S
C123 C127 1.397 . S
C123 C179 1.419 . S
C124 C120 1.391 . S
C124 C123 1.391 . S
C124 C125 1.399 . S
C125 C124 1.399 . S
C125 C128 1.396 . S
C125 C137 1.453 . S
C125 C138 1.684 . S
H126 C150 0.948 . S
C127 C123 1.397 . S
C127 C128 1.394 . S
C127 C146 1.723 . S
C128 C125 1.396 . S
C128 C127 1.394 . S
C128 C158 1.723 . S
H129 C152 0.947 . S
H130 C153 0.948 . S
H131 C159 0.982 . S
H132 C160 0.979 . S
H133 C160 0.980 . S
H134 C160 0.983 . S
H135 C159 0.979 . S
H136 C159 0.977 . S
C137 C125 1.453 . S
C137 H166 0.982 . S
C137 H167 0.979 . S
C137 H168 0.977 . S
C138 C125 1.684 . S
C138 H163 0.979 . S
C138 H164 0.980 . S
C138 H165 0.983 . S
C139 C140 1.391 . S
C139 C144 1.391 . S
C139 H169 0.948 . S
C140 C139 1.391 . S
C140 C141 1.391 . S
C141 C140 1.391 . S
C141 C142 1.392 . S
C141 H170 0.947 . S
C142 C141 1.392 . S
C142 C143 1.419 . S
C142 H171 0.948 . S
C143 C142 1.419 . S
C143 C144 1.391 . S
C143 C147 1.397 . S
C144 C139 1.391 . S
C144 C143 1.391 . S
C144 C145 1.399 . S
C145 C144 1.399 . S
C145 C146 1.396 . S
C145 C148 1.453 . S
C145 C149 1.684 . S
C146 C127 1.723 . S
C146 C145 1.396 . S
C146 C147 1.394 . S
C147 C143 1.397 . S
C147 C146 1.394 . S
C147 C157 1.723 . S
C148 C145 1.453 . S
C148 H172 0.982 . S
C148 H173 0.979 . S
C148 H174 0.977 . S
C149 C145 1.684 . S
C149 H175 0.979 . S
C149 H176 0.980 . S
C149 H177 0.983 . S
C150 H126 0.948 . S
C150 C151 1.391 . S
C150 C155 1.391 . S
C151 C150 1.391 . S
C151 C152 1.391 . S
C152 H129 0.947 . S
C152 C151 1.391 . S
C152 C153 1.392 . S
C153 H130 0.948 . S
C153 C152 1.392 . S
C153 C154 1.419 . S
C154 C153 1.419 . S
C154 C155 1.391 . S
C154 C158 1.397 . S
C155 C150 1.391 . S
C155 C154 1.391 . S
C155 C156 1.399 . S
C156 C155 1.399 . S
C156 C157 1.396 . S
C156 C159 1.453 . S
C156 C160 1.684 . S
C157 C147 1.723 . S
C157 C156 1.396 . S
C157 C158 1.394 . S
C158 C128 1.723 . S
C158 C154 1.397 . S
C158 C157 1.394 . S
C159 H131 0.982 . S
C159 H135 0.979 . S
C159 H136 0.977 . S
C159 C156 1.453 . S
C160 H132 0.979 . S
C160 H133 0.980 . S
C160 H134 0.983 . S
C160 C156 1.684 . S
H161 C179 0.948 . S
H162 C120 0.948 . S
H163 C138 0.979 . S
H164 C138 0.980 . S
H165 C138 0.983 . S
H166 C137 0.982 . S
H167 C137 0.979 . S
H168 C137 0.977 . S
H169 C139 0.948 . S
H170 C141 0.947 . S
H171 C142 0.948 . S
H172 C148 0.982 . S
H173 C148 0.979 . S
H174 C148 0.977 . S
H175 C149 0.979 . S
H176 C149 0.980 . S
H177 C149 0.983 . S
H178 C122 0.947 . S
C179 C122 1.392 . S
C179 C123 1.419 . S
C179 H161 0.948 . S
C180 C181 1.391 . S
C180 C184 1.391 . S
C180 H222 0.948 . S
C181 C180 1.391 . S
C181 C182 1.391 . S
C182 C181 1.391 . S
C182 H238 0.947 . S
C182 C239 1.392 . S
C183 C184 1.391 . S
C183 C187 1.397 . S
C183 C239 1.419 . S
C184 C180 1.391 . S
C184 C183 1.391 . S
C184 C185 1.399 . S
C185 C184 1.399 . S
C185 C188 1.396 . S
C185 C197 1.453 . S
C185 C198 1.684 . S
H186 C210 0.948 . S
C187 C183 1.397 . S
C187 C188 1.394 . S
C187 C206 1.723 . S
C188 C185 1.396 . S
C188 C187 1.394 . S
C188 C218 1.723 . S
H189 C212 0.947 . S
H190 C213 0.948 . S
H191 C219 0.982 . S
H192 C220 0.976 1_455 S
H193 C220 0.980 . S
H194 C220 0.983 . S
H195 C219 0.979 . S
H196 C219 0.977 . S
C197 C185 1.453 . S
C197 H226 0.982 . S
C197 H227 0.979 . S
C197 H228 0.977 . S
C198 C185 1.684 . S
C198 H223 0.979 . S
C198 H224 0.980 . S
C198 H225 0.983 . S
C199 C200 1.391 . S
C199 C204 1.391 . S
C199 H229 0.948 . S
C200 C199 1.391 . S
C200 C201 1.391 . S
C201 C200 1.391 . S
C201 C202 1.392 . S
C201 H230 0.947 . S
C202 C201 1.392 . S
C202 C203 1.419 . S
C202 H231 0.948 . S
C203 C202 1.419 . S
C203 C204 1.391 . S
C203 C207 1.397 . S
C204 C199 1.391 . S
C204 C203 1.391 . S
C204 C205 1.399 . S
C205 C204 1.399 . S
C205 C206 1.396 . S
C205 C208 1.453 . S
C205 C209 1.684 . S
C206 C187 1.723 . S
C206 C205 1.396 . S
C206 C207 1.394 . S
C207 C203 1.397 . S
C207 C206 1.394 . S
C207 C217 1.723 . S
C208 C205 1.453 . S
C208 H232 0.982 . S
C208 H233 0.979 . S
C208 H234 0.977 . S
C209 C205 1.684 . S
C209 H235 0.979 . S
C209 H236 0.980 . S
C209 H237 0.983 . S
C210 H186 0.948 . S
C210 C211 1.391 . S
C210 C215 1.391 . S
C211 C210 1.391 . S
C211 C212 1.391 . S
C212 H189 0.947 . S
C212 C211 1.391 . S
C212 C213 1.392 1_655 S
C213 H190 0.948 . S
C213 C212 1.392 1_455 S
C213 C214 1.419 . S
C214 C213 1.419 . S
C214 C215 1.391 1_455 S
C214 C218 1.397 . S
C215 C210 1.391 . S
C215 C214 1.391 1_655 S
C215 C216 1.399 . S
C216 C215 1.399 . S
C216 C217 1.396 1_655 S
C216 C219 1.453 . S
C216 C220 1.684 . S
C217 C207 1.723 . S
C217 C216 1.396 1_455 S
C217 C218 1.394 . S
C218 C188 1.723 . S
C218 C214 1.397 . S
C218 C217 1.394 . S
C219 H191 0.982 . S
C219 H195 0.979 . S
C219 H196 0.977 . S
C219 C216 1.453 . S
C220 H192 0.976 1_655 S
C220 H193 0.980 . S
C220 H194 0.983 . S
C220 C216 1.684 . S
H221 C239 0.948 . S
H222 C180 0.948 . S
H223 C198 0.979 . S
H224 C198 0.980 . S
H225 C198 0.983 . S
H226 C197 0.982 . S
H227 C197 0.979 . S
H228 C197 0.977 . S
H229 C199 0.948 . S
H230 C201 0.947 . S
H231 C202 0.948 . S
H232 C208 0.982 . S
H233 C208 0.979 . S
H234 C208 0.977 . S
H235 C209 0.979 . S
H236 C209 0.980 . S
H237 C209 0.983 . S
H238 C182 0.947 . S
C239 C182 1.392 . S
C239 C183 1.419 . S
C239 H221 0.948 . S
C240 C241 1.391 . S
C240 C244 1.391 . S
C240 H282 0.948 . S
C241 C240 1.391 . S
C241 C242 1.391 . S
C242 C241 1.391 . S
C242 H298 0.947 . S
C242 C299 1.392 . S
C243 C244 1.391 . S
C243 C247 1.397 . S
C243 C299 1.419 . S
C244 C240 1.391 . S
C244 C243 1.391 . S
C244 C245 1.399 . S
C245 C244 1.399 . S
C245 C248 1.396 . S
C245 C257 1.453 . S
C245 C258 1.684 . S
H246 C270 0.948 . S
C247 C243 1.397 . S
C247 C248 1.394 . S
C247 C266 1.723 . S
C248 C245 1.396 . S
C248 C247 1.394 . S
C248 C278 1.723 1_655 S
H249 C272 0.947 . S
H250 C273 0.948 . S
H251 C279 0.982 . S
H252 C280 0.979 . S
H253 C280 0.980 . S
H254 C280 0.983 . S
H255 C279 0.979 . S
H256 C279 0.977 . S
C257 C245 1.453 . S
C257 H286 0.982 1_655 S
C257 H287 0.979 . S
C257 H288 0.977 1_655 S
C258 C245 1.684 . S
C258 H283 0.979 . S
C258 H284 0.980 . S
C258 H285 0.983 . S
C259 C260 1.391 1_655 S
C259 C264 1.391 . S
C259 H289 0.948 . S
C260 C259 1.391 1_455 S
C260 C261 1.391 . S
C261 C260 1.391 . S
C261 C262 1.392 . S
C261 H290 0.947 . S
C262 C261 1.392 . S
C262 C263 1.419 . S
C262 H291 0.948 . S
C263 C262 1.419 . S
C263 C264 1.391 1_455 S
C263 C267 1.397 . S
C264 C259 1.391 . S
C264 C263 1.391 1_655 S
C264 C265 1.399 . S
C265 C264 1.399 . S
C265 C266 1.396 . S
C265 C268 1.453 . S
C265 C269 1.684 . S
C266 C247 1.723 . S
C266 C265 1.396 . S
C266 C267 1.394 1_655 S
C267 C263 1.397 . S
C267 C266 1.394 1_455 S
C267 C277 1.723 . S
C268 C265 1.453 . S
C268 H292 0.982 . S
C268 H293 0.979 . S
C268 H294 0.977 . S
C269 C265 1.684 . S
C269 H295 0.979 . S
C269 H296 0.980 . S
C269 H297 0.983 . S
C270 H246 0.948 . S
C270 C271 1.391 . S
C270 C275 1.391 . S
C271 C270 1.391 . S
C271 C272 1.391 . S
C272 H249 0.947 . S
C272 C271 1.391 . S
C272 C273 1.392 . S
C273 H250 0.948 . S
C273 C272 1.392 . S
C273 C274 1.419 . S
C274 C273 1.419 . S
C274 C275 1.391 . S
C274 C278 1.397 . S
C275 C270 1.391 . S
C275 C274 1.391 . S
C275 C276 1.399 . S
C276 C275 1.399 . S
C276 C277 1.396 . S
C276 C279 1.453 . S
C276 C280 1.684 . S
C277 C267 1.723 . S
C277 C276 1.396 . S
C277 C278 1.394 . S
C278 C248 1.723 1_455 S
C278 C274 1.397 . S
C278 C277 1.394 . S
C279 H251 0.982 . S
C279 H255 0.979 . S
C279 H256 0.977 . S
C279 C276 1.453 . S
C280 H252 0.979 . S
C280 H253 0.980 . S
C280 H254 0.983 . S
C280 C276 1.684 . S
H281 C299 0.948 . S
H282 C240 0.948 . S
H283 C258 0.979 . S
H284 C258 0.980 . S
H285 C258 0.983 . S
H286 C257 0.982 1_455 S
H287 C257 0.979 . S
H288 C257 0.977 1_455 S
H289 C259 0.948 . S
H290 C261 0.947 . S
H291 C262 0.948 . S
H292 C268 0.982 . S
H293 C268 0.979 . S
H294 C268 0.977 . S
H295 C269 0.979 . S
H296 C269 0.980 . S
H297 C269 0.983 . S
H298 C242 0.947 . S
C299 C242 1.392 . S
C299 C243 1.419 . S
C299 H281 0.948 . S
C300 C301 1.391 . S
C300 C304 1.391 . S
C300 H342 0.948 . S
C301 C300 1.391 . S
C301 C302 1.391 . S
C302 C301 1.391 . S
C302 H358 0.947 . S
C302 C359 1.392 . S
C303 C304 1.391 . S
C303 C307 1.397 . S
C303 C359 1.419 . S
C304 C300 1.391 . S
C304 C303 1.391 . S
C304 C305 1.399 . S
C305 C304 1.399 . S
C305 C308 1.396 1_565 S
C305 C317 1.453 1_565 S
C305 C318 1.684 . S
H306 C330 0.948 . S
C307 C303 1.397 . S
C307 C308 1.394 1_565 S
C307 C326 1.723 . S
C308 C305 1.396 1_545 S
C308 C307 1.394 1_545 S
C308 C338 1.723 . S
H309 C332 0.947 . S
H310 C333 0.948 . S
H311 C339 0.982 . S
H312 C340 0.979 . S
H313 C340 0.980 . S
H314 C340 0.983 . S
H315 C339 0.979 . S
H316 C339 0.977 . S
C317 C305 1.453 1_545 S
C317 H346 0.982 . S
C317 H347 0.979 . S
C317 H348 0.977 . S
C318 C305 1.684 . S
C318 H343 0.979 . S
C318 H344 0.980 1_565 S
C318 H345 0.983 . S
C319 C320 1.391 1_565 S
C319 C324 1.391 . S
C319 H349 0.948 . S
C320 C319 1.391 1_545 S
C320 C321 1.391 . S
C321 C320 1.391 . S
C321 C322 1.392 . S
C321 H350 0.947 . S
C322 C321 1.392 . S
C322 C323 1.419 . S
C322 H351 0.948 . S
C323 C322 1.419 . S
C323 C324 1.391 1_545 S
C323 C327 1.397 . S
C324 C319 1.391 . S
C324 C323 1.391 1_565 S
C324 C325 1.399 . S
C325 C324 1.399 . S
C325 C326 1.396 . S
C325 C328 1.453 . S
C325 C329 1.684 . S
C326 C307 1.723 . S
C326 C325 1.396 . S
C326 C327 1.394 1_565 S
C327 C323 1.397 . S
C327 C326 1.394 1_545 S
C327 C337 1.723 . S
C328 C325 1.453 . S
C328 H352 0.982 . S
C328 H353 0.979 . S
C328 H354 0.977 . S
C329 C325 1.684 . S
C329 H355 0.979 . S
C329 H356 0.980 . S
C329 H357 0.983 . S
C330 H306 0.948 . S
C330 C331 1.391 . S
C330 C335 1.391 . S
C331 C330 1.391 . S
C331 C332 1.391 . S
C332 H309 0.947 . S
C332 C331 1.391 . S
C332 C333 1.392 . S
C333 H310 0.948 . S
C333 C332 1.392 . S
C333 C334 1.419 . S
C334 C333 1.419 . S
C334 C335 1.391 . S
C334 C338 1.397 . S
C335 C330 1.391 . S
C335 C334 1.391 . S
C335 C336 1.399 . S
C336 C335 1.399 . S
C336 C337 1.396 . S
C336 C339 1.453 . S
C336 C340 1.684 . S
C337 C327 1.723 . S
C337 C336 1.396 . S
C337 C338 1.394 . S
C338 C308 1.723 . S
C338 C334 1.397 . S
C338 C337 1.394 . S
C339 H311 0.982 . S
C339 H315 0.979 . S
C339 H316 0.977 . S
C339 C336 1.453 . S
C340 H312 0.979 . S
C340 H313 0.980 . S
C340 H314 0.983 . S
C340 C336 1.684 . S
H341 C359 0.948 . S
H342 C300 0.948 . S
H343 C318 0.979 . S
H344 C318 0.980 1_545 S
H345 C318 0.983 . S
H346 C317 0.982 . S
H347 C317 0.979 . S
H348 C317 0.977 . S
H349 C319 0.948 . S
H350 C321 0.947 . S
H351 C322 0.948 . S
H352 C328 0.982 . S
H353 C328 0.979 . S
H354 C328 0.977 . S
H355 C329 0.979 . S
H356 C329 0.980 . S
H357 C329 0.983 . S
H358 C302 0.947 . S
C359 C302 1.392 . S
C359 C303 1.419 . S
C359 H341 0.948 . S
C360 C361 1.391 . S
C360 C364 1.391 . S
C360 H402 0.948 . S
C361 C360 1.391 . S
C361 C362 1.391 . S
C362 C361 1.391 . S
C362 H418 0.947 . S
C362 C419 1.392 . S
C363 C364 1.391 . S
C363 C367 1.397 . S
C363 C419 1.419 . S
C364 C360 1.391 . S
C364 C363 1.391 . S
C364 C365 1.399 . S
C365 C364 1.399 . S
C365 C368 1.396 . S
C365 C377 1.453 . S
C365 C378 1.684 . S
H366 C390 0.948 . S
C367 C363 1.397 . S
C367 C368 1.394 . S
C367 C386 1.723 . S
C368 C365 1.396 . S
C368 C367 1.394 . S
C368 C398 1.723 . S
H369 C392 0.947 . S
H370 C393 0.948 . S
H371 C399 0.982 . S
H372 C400 0.979 . S
H373 C400 0.980 . S
H374 C400 0.983 . S
H375 C399 0.979 . S
H376 C399 0.977 . S
C377 C365 1.453 . S
C377 H406 0.982 . S
C377 H407 0.979 . S
C377 H408 0.977 . S
C378 C365 1.684 . S
C378 H403 0.979 . S
C378 H404 0.980 . S
C378 H405 0.983 . S
C379 C380 1.391 . S
C379 C384 1.391 . S
C379 H409 0.948 . S
C380 C379 1.391 . S
C380 C381 1.391 . S
C381 C380 1.391 . S
C381 C382 1.392 . S
C381 H410 0.947 . S
C382 C381 1.392 . S
C382 C383 1.419 . S
C382 H411 0.948 . S
C383 C382 1.419 . S
C383 C384 1.391 . S
C383 C387 1.397 . S
C384 C379 1.391 . S
C384 C383 1.391 . S
C384 C385 1.399 . S
C385 C384 1.399 . S
C385 C386 1.396 . S
C385 C388 1.453 . S
C385 C389 1.684 . S
C386 C367 1.723 . S
C386 C385 1.396 . S
C386 C387 1.394 . S
C387 C383 1.397 . S
C387 C386 1.394 . S
C387 C397 1.723 . S
C388 C385 1.453 . S
C388 H412 0.982 . S
C388 H413 0.979 . S
C388 H414 0.977 . S
C389 C385 1.684 . S
C389 H415 0.979 . S
C389 H416 0.980 . S
C389 H417 0.983 . S
C390 H366 0.948 . S
C390 C391 1.391 . S
C390 C395 1.391 . S
C391 C390 1.391 . S
C391 C392 1.391 . S
C392 H369 0.947 . S
C392 C391 1.391 . S
C392 C393 1.392 . S
C393 H370 0.948 . S
C393 C392 1.392 . S
C393 C394 1.419 . S
C394 C393 1.419 . S
C394 C395 1.391 . S
C394 C398 1.397 . S
C395 C390 1.391 . S
C395 C394 1.391 . S
C395 C396 1.399 . S
C396 C395 1.399 . S
C396 C397 1.396 . S
C396 C399 1.453 . S
C396 C400 1.684 . S
C397 C387 1.723 . S
C397 C396 1.396 . S
C397 C398 1.394 . S
C398 C368 1.723 . S
C398 C394 1.397 . S
C398 C397 1.394 . S
C399 H371 0.982 . S
C399 H375 0.979 . S
C399 H376 0.977 . S
C399 C396 1.453 . S
C400 H372 0.979 . S
C400 H373 0.980 . S
C400 H374 0.983 . S
C400 C396 1.684 . S
H401 C419 0.948 . S
H402 C360 0.948 . S
H403 C378 0.979 . S
H404 C378 0.980 . S
H405 C378 0.983 . S
H406 C377 0.982 . S
H407 C377 0.979 . S
H408 C377 0.977 . S
H409 C379 0.948 . S
H410 C381 0.947 . S
H411 C382 0.948 . S
H412 C388 0.982 . S
H413 C388 0.979 . S
H414 C388 0.977 . S
H415 C389 0.979 . S
H416 C389 0.980 . S
H417 C389 0.983 . S
H418 C362 0.947 . S
C419 C362 1.392 . S
C419 C363 1.419 . S
C419 H401 0.948 . S
C420 C421 1.391 . S
C420 C422 1.394 . S
C420 H436 0.931 . S
C421 C420 1.391 . S
C421 C425 1.376 . S
C422 C420 1.394 . S
C422 C423 1.369 . S
C422 C426 1.531 . S
C423 C422 1.369 . S
C423 C424 1.410 . S
C423 C431 1.503 . S
C424 C423 1.410 . S
C424 C425 1.392 . S
C424 C427 1.511 . S
C425 C421 1.376 . S
C425 C424 1.392 . S
C425 H437 0.929 . S
C426 C422 1.531 . S
C426 H438 0.960 . S
C426 H439 0.962 . S
C426 H440 0.960 . S
C427 C424 1.511 . S
C427 H441 0.961 . S
C427 H442 0.961 . S
C427 H443 0.961 . S
C428 C429 1.370 . S
C428 C430 1.363 . S
C428 H444 0.931 . S
C429 C428 1.370 . S
C429 C433 1.408 . S
C430 C428 1.363 . S
C430 C431 1.370 . S
C430 C434 1.524 . S
C431 C423 1.503 . S
C431 C430 1.370 . S
C431 C432 1.403 . S
C432 C431 1.403 . S
C432 C433 1.404 . S
C432 C435 1.539 . S
C433 C429 1.408 . S
C433 C432 1.404 . S
C433 H445 0.930 . S
C434 C430 1.524 . S
C434 H446 0.956 . S
C434 H447 0.961 . S
C434 H448 0.961 . S
C435 C432 1.539 . S
C435 H449 0.958 . S
C435 H450 0.961 . S
C435 H451 0.960 . S
H436 C420 0.931 . S
H437 C425 0.929 . S
H438 C426 0.960 . S
H439 C426 0.962 . S
H440 C426 0.960 . S
H441 C427 0.961 . S
H442 C427 0.961 . S
H443 C427 0.961 . S
H444 C428 0.931 . S
H445 C433 0.930 . S
H446 C434 0.956 . S
H447 C434 0.961 . S
H448 C434 0.961 . S
H449 C435 0.958 . S
H450 C435 0.961 . S
H451 C435 0.960 . S
C452 C453 1.391 . S
C452 C454 1.394 . S
C452 H468 0.931 . S
C453 C452 1.391 . S
C453 C457 1.376 . S
C454 C452 1.394 . S
C454 C455 1.369 . S
C454 C458 1.531 . S
C455 C454 1.369 . S
C455 C456 1.410 . S
C455 C463 1.503 . S
C456 C455 1.410 . S
C456 C457 1.392 . S
C456 C459 1.511 . S
C457 C453 1.376 . S
C457 C456 1.392 . S
C457 H469 0.929 . S
C458 C454 1.531 . S
C458 H470 0.960 . S
C458 H471 0.962 . S
C458 H472 0.960 . S
C459 C456 1.511 . S
C459 H473 0.961 . S
C459 H474 0.961 . S
C459 H475 0.961 . S
C460 C461 1.370 . S
C460 C462 1.363 . S
C460 H476 0.931 . S
C461 C460 1.370 . S
C461 C465 1.408 . S
C462 C460 1.363 . S
C462 C463 1.370 . S
C462 C466 1.524 . S
C463 C455 1.503 . S
C463 C462 1.370 . S
C463 C464 1.403 . S
C464 C463 1.403 . S
C464 C465 1.404 . S
C464 C467 1.539 . S
C465 C461 1.408 . S
C465 C464 1.404 . S
C465 H477 0.930 . S
C466 C462 1.524 . S
C466 H478 0.956 . S
C466 H479 0.961 . S
C466 H480 0.961 . S
C467 C464 1.539 . S
C467 H481 0.958 . S
C467 H482 0.961 . S
C467 H483 0.960 . S
H468 C452 0.931 . S
H469 C457 0.929 . S
H470 C458 0.960 . S
H471 C458 0.962 . S
H472 C458 0.960 . S
H473 C459 0.961 . S
H474 C459 0.961 . S
H475 C459 0.961 . S
H476 C460 0.931 . S
H477 C465 0.930 . S
H478 C466 0.956 . S
H479 C466 0.961 . S
H480 C466 0.961 . S
H481 C467 0.958 . S
H482 C467 0.961 . S
H483 C467 0.960 . S
C484 C485 1.391 . S
C484 C486 1.394 . S
C484 H500 0.931 . S
C485 C484 1.391 . S
C485 C489 1.376 . S
C486 C484 1.394 . S
C486 C487 1.369 . S
C486 C490 1.531 . S
C487 C486 1.369 . S
C487 C488 1.410 . S
C487 C495 1.503 . S
C488 C487 1.410 . S
C488 C489 1.392 . S
C488 C491 1.511 . S
C489 C485 1.376 . S
C489 C488 1.392 . S
C489 H501 0.929 . S
C490 C486 1.531 . S
C490 H502 0.960 . S
C490 H503 0.962 . S
C490 H504 0.960 . S
C491 C488 1.511 . S
C491 H505 0.961 . S
C491 H506 0.961 . S
C491 H507 0.961 . S
C492 C493 1.370 . S
C492 C494 1.363 . S
C492 H508 0.931 . S
C493 C492 1.370 . S
C493 C497 1.408 . S
C494 C492 1.363 . S
C494 C495 1.370 . S
C494 C498 1.524 . S
C495 C487 1.503 . S
C495 C494 1.370 . S
C495 C496 1.403 . S
C496 C495 1.403 . S
C496 C497 1.404 . S
C496 C499 1.539 . S
C497 C493 1.408 . S
C497 C496 1.404 . S
C497 H509 0.930 . S
C498 C494 1.524 . S
C498 H510 0.956 . S
C498 H511 0.961 . S
C498 H512 0.961 . S
C499 C496 1.539 . S
C499 H513 0.958 . S
C499 H514 0.961 . S
C499 H515 0.960 . S
H500 C484 0.931 . S
H501 C489 0.929 . S
H502 C490 0.960 . S
H503 C490 0.962 . S
H504 C490 0.960 . S
H505 C491 0.961 . S
H506 C491 0.961 . S
H507 C491 0.961 . S
H508 C492 0.931 . S
H509 C497 0.930 . S
H510 C498 0.956 . S
H511 C498 0.961 . S
H512 C498 0.961 . S
H513 C499 0.958 . S
H514 C499 0.961 . S
H515 C499 0.960 . S
C516 C517 1.391 . S
C516 C518 1.394 . S
C516 H532 0.931 . S
C517 C516 1.391 . S
C517 C521 1.376 . S
C518 C516 1.394 . S
C518 C519 1.369 . S
C518 C522 1.531 . S
C519 C518 1.369 . S
C519 C520 1.410 . S
C519 C527 1.503 . S
C520 C519 1.410 . S
C520 C521 1.392 . S
C520 C523 1.511 . S
C521 C517 1.376 . S
C521 C520 1.392 . S
C521 H533 0.929 . S
C522 C518 1.531 . S
C522 H534 0.960 . S
C522 H535 0.962 . S
C522 H536 0.960 . S
C523 C520 1.511 . S
C523 H537 0.961 . S
C523 H538 0.961 . S
C523 H539 0.961 . S
C524 C525 1.370 . S
C524 C526 1.363 . S
C524 H540 0.931 . S
C525 C524 1.370 . S
C525 C529 1.408 . S
C526 C524 1.363 . S
C526 C527 1.370 . S
C526 C530 1.524 . S
C527 C519 1.503 . S
C527 C526 1.370 . S
C527 C528 1.403 . S
C528 C527 1.403 . S
C528 C529 1.404 . S
C528 C531 1.539 . S
C529 C525 1.408 . S
C529 C528 1.404 . S
C529 H541 0.930 . S
C530 C526 1.524 . S
C530 H542 0.956 . S
C530 H543 0.961 . S
C530 H544 0.961 . S
C531 C528 1.539 . S
C531 H545 0.958 . S
C531 H546 0.961 . S
C531 H547 0.960 . S
H532 C516 0.931 . S
H533 C521 0.929 . S
H534 C522 0.960 . S
H535 C522 0.962 . S
H536 C522 0.960 . S
H537 C523 0.961 . S
H538 C523 0.961 . S
H539 C523 0.961 . S
H540 C524 0.931 . S
H541 C529 0.930 . S
H542 C530 0.956 . S
H543 C530 0.961 . S
H544 C530 0.961 . S
H545 C531 0.958 . S
H546 C531 0.961 . S
H547 C531 0.960 . S
C548 C549 1.391 . S
C548 C550 1.394 . S
C548 H564 0.931 . S
C549 C548 1.391 . S
C549 C553 1.376 . S
C550 C548 1.394 . S
C550 C551 1.369 . S
C550 C554 1.531 . S
C551 C550 1.369 . S
C551 C552 1.410 . S
C551 C559 1.503 . S
C552 C551 1.410 . S
C552 C553 1.392 . S
C552 C555 1.511 . S
C553 C549 1.376 . S
C553 C552 1.392 . S
C553 H565 0.929 . S
C554 C550 1.531 . S
C554 H566 0.960 . S
C554 H567 0.962 . S
C554 H568 0.960 . S
C555 C552 1.511 . S
C555 H569 0.961 . S
C555 H570 0.961 . S
C555 H571 0.961 . S
C556 C557 1.370 . S
C556 C558 1.363 . S
C556 H572 0.931 . S
C557 C556 1.370 . S
C557 C561 1.408 . S
C558 C556 1.363 . S
C558 C559 1.370 . S
C558 C562 1.524 . S
C559 C551 1.503 . S
C559 C558 1.370 . S
C559 C560 1.403 . S
C560 C559 1.403 . S
C560 C561 1.404 . S
C560 C563 1.539 . S
C561 C557 1.408 . S
C561 C560 1.404 . S
C561 H573 0.930 . S
C562 C558 1.524 . S
C562 H574 0.956 . S
C562 H575 0.961 . S
C562 H576 0.961 . S
C563 C560 1.539 . S
C563 H577 0.958 . S
C563 H578 0.961 . S
C563 H579 0.960 . S
H564 C548 0.931 . S
H565 C553 0.929 . S
H566 C554 0.960 . S
H567 C554 0.962 . S
H568 C554 0.960 . S
H569 C555 0.961 . S
H570 C555 0.961 . S
H571 C555 0.961 . S
H572 C556 0.931 . S
H573 C561 0.930 . S
H574 C562 0.956 . S
H575 C562 0.961 . S
H576 C562 0.961 . S
H577 C563 0.958 . S
H578 C563 0.961 . S
H579 C563 0.960 . S
C580 C581 1.391 . S
C580 C582 1.394 . S
C580 H596 0.931 . S
C581 C580 1.391 . S
C581 C585 1.376 . S
C582 C580 1.394 . S
C582 C583 1.369 . S
C582 C586 1.531 . S
C583 C582 1.369 . S
C583 C584 1.410 . S
C583 C591 1.503 . S
C584 C583 1.410 . S
C584 C585 1.392 . S
C584 C587 1.511 . S
C585 C581 1.376 . S
C585 C584 1.392 . S
C585 H597 0.929 . S
C586 C582 1.531 . S
C586 H598 0.960 . S
C586 H599 0.962 . S
C586 H600 0.960 . S
C587 C584 1.511 . S
C587 H601 0.961 . S
C587 H602 0.961 . S
C587 H603 0.961 . S
C588 C589 1.370 . S
C588 C590 1.363 . S
C588 H604 0.931 . S
C589 C588 1.370 . S
C589 C593 1.408 . S
C590 C588 1.363 . S
C590 C591 1.370 . S
C590 C594 1.524 . S
C591 C583 1.503 . S
C591 C590 1.370 . S
C591 C592 1.403 . S
C592 C591 1.403 . S
C592 C593 1.404 . S
C592 C595 1.539 . S
C593 C589 1.408 . S
C593 C592 1.404 . S
C593 H605 0.930 . S
C594 C590 1.524 . S
C594 H606 0.956 . S
C594 H607 0.961 . S
C594 H608 0.961 . S
C595 C592 1.539 . S
C595 H609 0.958 . S
C595 H610 0.961 . S
C595 H611 0.960 . S
H596 C580 0.931 . S
H597 C585 0.929 . S
H598 C586 0.960 . S
H599 C586 0.962 . S
H600 C586 0.960 . S
H601 C587 0.961 . S
H602 C587 0.961 . S
H603 C587 0.961 . S
H604 C588 0.931 . S
H605 C593 0.930 . S
H606 C594 0.956 . S
H607 C594 0.961 . S
H608 C594 0.961 . S
H609 C595 0.958 . S
H610 C595 0.961 . S
H611 C595 0.960 . S
C612 C613 1.391 . S
C612 C614 1.394 . S
C612 H628 0.931 . S
C613 C612 1.391 . S
C613 C617 1.376 . S
C614 C612 1.394 . S
C614 C615 1.369 . S
C614 C618 1.531 . S
C615 C614 1.369 . S
C615 C616 1.410 . S
C615 C623 1.503 . S
C616 C615 1.410 . S
C616 C617 1.392 . S
C616 C619 1.511 . S
C617 C613 1.376 . S
C617 C616 1.392 . S
C617 H629 0.929 . S
C618 C614 1.531 . S
C618 H630 0.960 . S
C618 H631 0.962 . S
C618 H632 0.960 . S
C619 C616 1.511 . S
C619 H633 0.961 . S
C619 H634 0.961 . S
C619 H635 0.961 . S
C620 C621 1.370 . S
C620 C622 1.363 . S
C620 H636 0.931 . S
C621 C620 1.370 . S
C621 C625 1.408 . S
C622 C620 1.363 . S
C622 C623 1.370 . S
C622 C626 1.524 . S
C623 C615 1.503 . S
C623 C622 1.370 . S
C623 C624 1.403 . S
C624 C623 1.403 . S
C624 C625 1.404 . S
C624 C627 1.539 . S
C625 C621 1.408 . S
C625 C624 1.404 . S
C625 H637 0.930 . S
C626 C622 1.524 . S
C626 H638 0.956 . S
C626 H639 0.961 . S
C626 H640 0.961 . S
C627 C624 1.539 . S
C627 H641 0.958 . S
C627 H642 0.961 . S
C627 H643 0.960 . S
H628 C612 0.931 . S
H629 C617 0.929 . S
H630 C618 0.960 . S
H631 C618 0.962 . S
H632 C618 0.960 . S
H633 C619 0.961 . S
H634 C619 0.961 . S
H635 C619 0.961 . S
H636 C620 0.931 . S
H637 C625 0.930 . S
H638 C626 0.956 . S
H639 C626 0.961 . S
H640 C626 0.961 . S
H641 C627 0.958 . S
H642 C627 0.961 . S
H643 C627 0.960 . S
C644 C645 1.391 . S
C644 C646 1.394 . S
C644 H660 0.931 . S
C645 C644 1.391 . S
C645 C649 1.376 . S
C646 C644 1.394 . S
C646 C647 1.369 . S
C646 C650 1.531 . S
C647 C646 1.369 . S
C647 C648 1.410 . S
C647 C655 1.503 . S
C648 C647 1.410 . S
C648 C649 1.392 . S
C648 C651 1.511 . S
C649 C645 1.376 . S
C649 C648 1.392 . S
C649 H661 0.929 . S
C650 C646 1.531 . S
C650 H662 0.960 . S
C650 H663 0.962 . S
C650 H664 0.960 . S
C651 C648 1.511 . S
C651 H665 0.961 . S
C651 H666 0.961 . S
C651 H667 0.961 . S
C652 C653 1.370 . S
C652 C654 1.363 . S
C652 H668 0.931 . S
C653 C652 1.370 . S
C653 C657 1.408 . S
C654 C652 1.363 . S
C654 C655 1.370 . S
C654 C658 1.524 . S
C655 C647 1.503 . S
C655 C654 1.370 . S
C655 C656 1.403 . S
C656 C655 1.403 . S
C656 C657 1.404 . S
C656 C659 1.539 . S
C657 C653 1.408 . S
C657 C656 1.404 . S
C657 H669 0.930 . S
C658 C654 1.524 . S
C658 H670 0.956 . S
C658 H671 0.961 . S
C658 H672 0.961 . S
C659 C656 1.539 . S
C659 H673 0.958 . S
C659 H674 0.961 . S
C659 H675 0.960 . S
H660 C644 0.931 . S
H661 C649 0.929 . S
H662 C650 0.960 . S
H663 C650 0.962 . S
H664 C650 0.960 . S
H665 C651 0.961 . S
H666 C651 0.961 . S
H667 C651 0.961 . S
H668 C652 0.931 . S
H669 C657 0.930 . S
H670 C658 0.956 . S
H671 C658 0.961 . S
H672 C658 0.961 . S
H673 C659 0.958 . S
H674 C659 0.961 . S
H675 C659 0.960 . S
C676 C677 1.391 . S
C676 C678 1.394 . S
C676 H692 0.931 . S
C677 C676 1.391 . S
C677 C681 1.376 . S
C678 C676 1.394 . S
C678 C679 1.369 . S
C678 C682 1.531 . S
C679 C678 1.369 . S
C679 C680 1.410 . S
C679 C687 1.503 . S
C680 C679 1.410 . S
C680 C681 1.392 . S
C680 C683 1.511 . S
C681 C677 1.376 . S
C681 C680 1.392 . S
C681 H693 0.929 . S
C682 C678 1.531 . S
C682 H694 0.960 . S
C682 H695 0.962 . S
C682 H696 0.960 . S
C683 C680 1.511 . S
C683 H697 0.961 . S
C683 H698 0.961 . S
C683 H699 0.961 . S
C684 C685 1.370 . S
C684 C686 1.363 . S
C684 H700 0.931 . S
C685 C684 1.370 . S
C685 C689 1.408 . S
C686 C684 1.363 . S
C686 C687 1.370 . S
C686 C690 1.524 . S
C687 C679 1.503 . S
C687 C686 1.370 . S
C687 C688 1.403 . S
C688 C687 1.403 . S
C688 C689 1.404 . S
C688 C691 1.539 . S
C689 C685 1.408 . S
C689 C688 1.404 . S
C689 H701 0.930 . S
C690 C686 1.524 . S
C690 H702 0.956 . S
C690 H703 0.961 . S
C690 H704 0.961 . S
C691 C688 1.539 . S
C691 H705 0.958 . S
C691 H706 0.961 . S
C691 H707 0.960 . S
H692 C676 0.931 . S
H693 C681 0.929 . S
H694 C682 0.960 . S
H695 C682 0.962 . S
H696 C682 0.960 . S
H697 C683 0.961 . S
H698 C683 0.961 . S
H699 C683 0.961 . S
H700 C684 0.931 . S
H701 C689 0.930 . S
H702 C690 0.956 . S
H703 C690 0.961 . S
H704 C690 0.961 . S
H705 C691 0.958 . S
H706 C691 0.961 . S
H707 C691 0.960 . S
C708 C709 1.391 . S
C708 C710 1.394 . S
C708 H724 0.931 . S
C709 C708 1.391 . S
C709 C713 1.376 . S
C710 C708 1.394 . S
C710 C711 1.369 . S
C710 C714 1.531 . S
C711 C710 1.369 . S
C711 C712 1.410 . S
C711 C719 1.503 . S
C712 C711 1.410 . S
C712 C713 1.392 . S
C712 C715 1.511 . S
C713 C709 1.376 . S
C713 C712 1.392 . S
C713 H725 0.929 . S
C714 C710 1.531 . S
C714 H726 0.960 . S
C714 H727 0.962 . S
C714 H728 0.960 . S
C715 C712 1.511 . S
C715 H729 0.961 . S
C715 H730 0.961 . S
C715 H731 0.961 . S
C716 C717 1.370 . S
C716 C718 1.363 . S
C716 H732 0.931 . S
C717 C716 1.370 . S
C717 C721 1.408 . S
C718 C716 1.363 . S
C718 C719 1.370 . S
C718 C722 1.524 . S
C719 C711 1.503 . S
C719 C718 1.370 . S
C719 C720 1.403 . S
C720 C719 1.403 . S
C720 C721 1.404 . S
C720 C723 1.539 . S
C721 C717 1.408 . S
C721 C720 1.404 . S
C721 H733 0.930 . S
C722 C718 1.524 . S
C722 H734 0.956 . S
C722 H735 0.961 . S
C722 H736 0.961 . S
C723 C720 1.539 . S
C723 H737 0.958 . S
C723 H738 0.961 . S
C723 H739 0.960 . S
H724 C708 0.931 . S
H725 C713 0.929 . S
H726 C714 0.960 . S
H727 C714 0.962 . S
H728 C714 0.960 . S
H729 C715 0.961 . S
H730 C715 0.961 . S
H731 C715 0.961 . S
H732 C716 0.931 . S
H733 C721 0.930 . S
H734 C722 0.956 . S
H735 C722 0.961 . S
H736 C722 0.961 . S
H737 C723 0.958 . S
H738 C723 0.961 . S
H739 C723 0.960 . S
C740 C741 1.391 . S
C740 C742 1.394 . S
C740 H756 0.931 . S
C741 C740 1.391 . S
C741 C745 1.376 . S
C742 C740 1.394 . S
C742 C743 1.369 . S
C742 C746 1.531 . S
C743 C742 1.369 . S
C743 C744 1.410 . S
C743 C751 1.503 . S
C744 C743 1.410 . S
C744 C745 1.392 . S
C744 C747 1.511 . S
C745 C741 1.376 . S
C745 C744 1.392 . S
C745 H757 0.929 . S
C746 C742 1.531 . S
C746 H758 0.960 . S
C746 H759 0.962 . S
C746 H760 0.960 . S
C747 C744 1.511 . S
C747 H761 0.961 . S
C747 H762 0.961 . S
C747 H763 0.961 . S
C748 C749 1.370 . S
C748 C750 1.363 . S
C748 H764 0.931 . S
C749 C748 1.370 . S
C749 C753 1.408 . S
C750 C748 1.363 . S
C750 C751 1.370 . S
C750 C754 1.524 . S
C751 C743 1.503 . S
C751 C750 1.370 . S
C751 C752 1.403 . S
C752 C751 1.403 . S
C752 C753 1.404 . S
C752 C755 1.539 . S
C753 C749 1.408 . S
C753 C752 1.404 . S
C753 H765 0.930 . S
C754 C750 1.524 . S
C754 H766 0.956 . S
C754 H767 0.961 . S
C754 H768 0.961 . S
C755 C752 1.539 . S
C755 H769 0.958 . S
C755 H770 0.961 . S
C755 H771 0.960 . S
H756 C740 0.931 . S
H757 C745 0.929 . S
H758 C746 0.960 . S
H759 C746 0.962 . S
H760 C746 0.960 . S
H761 C747 0.961 . S
H762 C747 0.961 . S
H763 C747 0.961 . S
H764 C748 0.931 . S
H765 C753 0.930 . S
H766 C754 0.956 . S
H767 C754 0.961 . S
H768 C754 0.961 . S
H769 C755 0.958 . S
H770 C755 0.961 . S
H771 C755 0.960 . S
C772 C773 1.391 . S
C772 C774 1.394 . S
C772 H788 0.931 . S
C773 C772 1.391 . S
C773 C777 1.376 . S
C774 C772 1.394 . S
C774 C775 1.369 . S
C774 C778 1.531 . S
C775 C774 1.369 . S
C775 C776 1.410 . S
C775 C783 1.503 . S
C776 C775 1.410 . S
C776 C777 1.392 . S
C776 C779 1.511 . S
C777 C773 1.376 . S
C777 C776 1.392 . S
C777 H789 0.929 . S
C778 C774 1.531 . S
C778 H790 0.960 . S
C778 H791 0.962 . S
C778 H792 0.960 . S
C779 C776 1.511 . S
C779 H793 0.961 . S
C779 H794 0.961 . S
C779 H795 0.961 . S
C780 C781 1.370 . S
C780 C782 1.363 . S
C780 H796 0.931 . S
C781 C780 1.370 . S
C781 C785 1.408 . S
C782 C780 1.363 . S
C782 C783 1.370 . S
C782 C786 1.524 . S
C783 C775 1.503 . S
C783 C782 1.370 . S
C783 C784 1.403 . S
C784 C783 1.403 . S
C784 C785 1.404 . S
C784 C787 1.539 . S
C785 C781 1.408 . S
C785 C784 1.404 . S
C785 H797 0.930 . S
C786 C782 1.524 . S
C786 H798 0.956 . S
C786 H799 0.961 . S
C786 H800 0.961 . S
C787 C784 1.539 . S
C787 H801 0.958 . S
C787 H802 0.961 . S
C787 H803 0.960 . S
H788 C772 0.931 . S
H789 C777 0.929 . S
H790 C778 0.960 . S
H791 C778 0.962 . S
H792 C778 0.960 . S
H793 C779 0.961 . S
H794 C779 0.961 . S
H795 C779 0.961 . S
H796 C780 0.931 . S
H797 C785 0.930 . S
H798 C786 0.956 . S
H799 C786 0.961 . S
H800 C786 0.961 . S
H801 C787 0.958 . S
H802 C787 0.961 . S
H803 C787 0.960 . S
C804 C805 1.391 . S
C804 C806 1.394 . S
C804 H820 0.931 . S
C805 C804 1.391 . S
C805 C809 1.376 . S
C806 C804 1.394 . S
C806 C807 1.369 . S
C806 C810 1.531 . S
C807 C806 1.369 . S
C807 C808 1.410 . S
C807 C815 1.503 . S
C808 C807 1.410 . S
C808 C809 1.392 . S
C808 C811 1.511 1_455 S
C809 C805 1.376 . S
C809 C808 1.392 . S
C809 H821 0.929 1_455 S
C810 C806 1.531 . S
C810 H822 0.960 . S
C810 H823 0.962 . S
C810 H824 0.960 . S
C811 C808 1.511 1_655 S
C811 H825 0.961 . S
C811 H826 0.961 . S
C811 H827 0.961 . S
C812 C813 1.370 1_554 S
C812 C814 1.363 . S
C812 H828 0.931 . S
C813 C812 1.370 1_556 S
C813 C817 1.405 1_556 S
C814 C812 1.363 . S
C814 C815 1.370 . S
C814 C818 1.524 . S
C815 C807 1.503 . S
C815 C814 1.370 . S
C815 C816 1.403 . S
C816 C815 1.403 . S
C816 C817 1.414 . S
C816 C819 1.539 . S
C817 C813 1.405 1_554 S
C817 C816 1.414 . S
C817 H829 0.923 1_554 S
C818 C814 1.524 . S
C818 H830 0.956 . S
C818 H831 0.961 . S
C818 H832 0.961 . S
C819 C816 1.539 . S
C819 H833 0.958 . S
C819 H834 0.961 . S
C819 H835 0.960 . S
H820 C804 0.931 . S
H821 C809 0.929 1_655 S
H822 C810 0.960 . S
H823 C810 0.962 . S
H824 C810 0.960 . S
H825 C811 0.961 . S
H826 C811 0.961 . S
H827 C811 0.961 . S
H828 C812 0.931 . S
H829 C817 0.923 1_556 S
H830 C818 0.956 . S
H831 C818 0.961 . S
H832 C818 0.961 . S
H833 C819 0.958 . S
H834 C819 0.961 . S
H835 C819 0.960 . S
C836 C837 1.391 . S
C836 C838 1.394 . S
C836 H852 0.931 . S
C837 C836 1.391 . S
C837 C841 1.376 . S
C838 C836 1.394 . S
C838 C839 1.369 . S
C838 C842 1.526 1_545 S
C839 C838 1.369 . S
C839 C840 1.410 . S
C839 C847 1.503 . S
C840 C839 1.410 . S
C840 C841 1.392 . S
C840 C843 1.511 . S
C841 C837 1.376 . S
C841 C840 1.392 . S
C841 H853 0.929 . S
C842 C838 1.526 1_565 S
C842 H854 0.960 . S
C842 H855 0.960 1_565 S
C842 H856 0.967 . S
C843 C840 1.511 . S
C843 H857 0.961 . S
C843 H858 0.961 . S
C843 H859 0.961 . S
C844 C845 1.370 . S
C844 C846 1.363 . S
C844 H860 0.931 . S
C845 C844 1.370 . S
C845 C849 1.408 . S
C846 C844 1.363 . S
C846 C847 1.370 . S
C846 C850 1.524 . S
C847 C839 1.503 . S
C847 C846 1.370 . S
C847 C848 1.403 . S
C848 C847 1.403 . S
C848 C849 1.404 . S
C848 C851 1.539 1_545 S
C849 C845 1.408 . S
C849 C848 1.404 . S
C849 H861 0.930 1_545 S
C850 C846 1.524 . S
C850 H862 0.956 . S
C850 H863 0.961 . S
C850 H864 0.961 . S
C851 C848 1.539 1_565 S
C851 H865 0.958 . S
C851 H866 0.961 . S
C851 H867 0.960 . S
H852 C836 0.931 . S
H853 C841 0.929 . S
H854 C842 0.960 . S
H855 C842 0.960 1_545 S
H856 C842 0.967 . S
H857 C843 0.961 . S
H858 C843 0.961 . S
H859 C843 0.961 . S
H860 C844 0.931 . S
H861 C849 0.930 1_565 S
H862 C850 0.956 . S
H863 C850 0.961 . S
H864 C850 0.961 . S
H865 C851 0.958 . S
H866 C851 0.961 . S
H867 C851 0.960 . S
C868 C869 1.391 . S
C868 C870 1.394 . S
C868 H884 0.931 . S
C869 C868 1.391 . S
C869 C873 1.376 . S
C870 C868 1.394 . S
C870 C871 1.369 . S
C870 C874 1.531 . S
C871 C870 1.369 . S
C871 C872 1.410 . S
C871 C879 1.503 . S
C872 C871 1.410 . S
C872 C873 1.392 . S
C872 C875 1.511 . S
C873 C869 1.376 . S
C873 C872 1.392 . S
C873 H885 0.929 . S
C874 C870 1.531 . S
C874 H886 0.960 . S
C874 H887 0.962 . S
C874 H888 0.960 . S
C875 C872 1.511 . S
C875 H889 0.961 . S
C875 H890 0.961 . S
C875 H891 0.961 . S
C876 C877 1.370 . S
C876 C878 1.363 . S
C876 H892 0.931 . S
C877 C876 1.370 . S
C877 C881 1.408 . S
C878 C876 1.363 . S
C878 C879 1.370 . S
C878 C882 1.524 . S
C879 C871 1.503 . S
C879 C878 1.370 . S
C879 C880 1.403 . S
C880 C879 1.403 . S
C880 C881 1.404 . S
C880 C883 1.539 . S
C881 C877 1.408 . S
C881 C880 1.404 . S
C881 H893 0.930 . S
C882 C878 1.524 . S
C882 H894 0.956 . S
C882 H895 0.961 . S
C882 H896 0.961 . S
C883 C880 1.539 . S
C883 H897 0.958 . S
C883 H898 0.961 . S
C883 H899 0.960 . S
H884 C868 0.931 . S
H885 C873 0.929 . S
H886 C874 0.960 . S
H887 C874 0.962 . S
H888 C874 0.960 . S
H889 C875 0.961 . S
H890 C875 0.961 . S
H891 C875 0.961 . S
H892 C876 0.931 . S
H893 C881 0.930 . S
H894 C882 0.956 . S
H895 C882 0.961 . S
H896 C882 0.961 . S
H897 C883 0.958 . S
H898 C883 0.961 . S
H899 C883 0.960 . S
C900 C901 1.391 . S
C900 C902 1.394 . S
C900 H916 0.931 . S
C901 C900 1.391 . S
C901 C905 1.376 . S
C902 C900 1.394 . S
C902 C903 1.369 . S
C902 C906 1.531 . S
C903 C902 1.369 . S
C903 C904 1.410 . S
C903 C911 1.503 . S
C904 C903 1.410 . S
C904 C905 1.392 . S
C904 C907 1.511 1_545 S
C905 C901 1.376 . S
C905 C904 1.392 . S
C905 H917 0.929 1_545 S
C906 C902 1.531 . S
C906 H918 0.960 . S
C906 H919 0.962 . S
C906 H920 0.960 . S
C907 C904 1.511 1_565 S
C907 H921 0.961 . S
C907 H922 0.961 . S
C907 H923 0.961 1_565 S
C908 C909 1.370 1_565 S
C908 C910 1.363 . S
C908 H924 0.931 . S
C909 C908 1.370 1_545 S
C909 C913 1.408 . S
C910 C908 1.363 . S
C910 C911 1.370 1_565 S
C910 C914 1.524 . S
C911 C903 1.503 . S
C911 C910 1.370 1_545 S
C911 C912 1.403 . S
C912 C911 1.403 . S
C912 C913 1.404 . S
C912 C915 1.539 . S
C913 C909 1.408 . S
C913 C912 1.404 . S
C913 H925 0.930 . S
C914 C910 1.524 . S
C914 H926 0.956 . S
C914 H927 0.961 . S
C914 H928 0.961 . S
C915 C912 1.539 . S
C915 H929 0.958 . S
C915 H930 0.961 . S
C915 H931 0.960 . S
H916 C900 0.931 . S
H917 C905 0.929 1_565 S
H918 C906 0.960 . S
H919 C906 0.962 . S
H920 C906 0.960 . S
H921 C907 0.961 . S
H922 C907 0.961 . S
H923 C907 0.961 1_545 S
H924 C908 0.931 . S
H925 C913 0.930 . S
H926 C914 0.956 . S
H927 C914 0.961 . S
H928 C914 0.961 . S
H929 C915 0.958 . S
H930 C915 0.961 . S
H931 C915 0.960 . S
C932 C933 1.391 . S
C932 C934 1.394 . S
C932 H948 0.931 . S
C933 C932 1.391 . S
C933 C937 1.376 . S
C934 C932 1.394 . S
C934 C935 1.369 . S
C934 C938 1.531 . S
C935 C934 1.369 . S
C935 C936 1.410 . S
C935 C943 1.503 . S
C936 C935 1.410 . S
C936 C937 1.392 . S
C936 C939 1.511 . S
C937 C933 1.376 . S
C937 C936 1.392 . S
C937 H949 0.929 . S
C938 C934 1.531 . S
C938 H950 0.960 . S
C938 H951 0.962 . S
C938 H952 0.960 . S
C939 C936 1.511 . S
C939 H953 0.961 . S
C939 H954 0.961 . S
C939 H955 0.961 . S
C940 C941 1.370 1_556 S
C940 C942 1.363 . S
C940 H956 0.917 1_556 S
C941 C940 1.370 1_554 S
C941 C945 1.408 1_554 S
C942 C940 1.363 . S
C942 C943 1.370 . S
C942 C946 1.524 . S
C943 C935 1.503 . S
C943 C942 1.370 . S
C943 C944 1.403 . S
C944 C943 1.403 . S
C944 C945 1.404 . S
C944 C947 1.539 . S
C945 C941 1.408 1_556 S
C945 C944 1.404 . S
C945 H957 0.930 . S
C946 C942 1.524 . S
C946 H958 0.956 . S
C946 H959 0.961 . S
C946 H960 0.961 . S
C947 C944 1.539 . S
C947 H961 0.958 . S
C947 H962 0.961 . S
C947 H963 0.960 . S
H948 C932 0.931 . S
H949 C937 0.929 . S
H950 C938 0.960 . S
H951 C938 0.962 . S
H952 C938 0.960 . S
H953 C939 0.961 . S
H954 C939 0.961 . S
H955 C939 0.961 . S
H956 C940 0.917 1_554 S
H957 C945 0.930 . S
H958 C946 0.956 . S
H959 C946 0.961 . S
H960 C946 0.961 . S
H961 C947 0.958 . S
H962 C947 0.961 . S
H963 C947 0.960 . S
C964 C965 1.391 1_655 S
C964 C966 1.394 . S
C964 H980 0.931 . S
C965 C964 1.391 1_455 S
C965 C969 1.376 . S
C966 C964 1.394 . S
C966 C967 1.369 1_655 S
C966 C970 1.531 . S
C967 C966 1.369 1_455 S
C967 C968 1.410 . S
C967 C975 1.503 . S
C968 C967 1.410 . S
C968 C969 1.392 . S
C968 C971 1.511 . S
C969 C965 1.376 . S
C969 C968 1.392 . S
C969 H981 0.929 . S
C970 C966 1.531 . S
C970 H982 0.960 . S
C970 H983 0.962 . S
C970 H984 0.960 . S
C971 C968 1.511 . S
C971 H985 0.961 . S
C971 H986 0.961 . S
C971 H987 0.961 . S
C972 C973 1.371 . S
C972 C974 1.365 . S
C972 H988 0.925 1_455 S
C973 C972 1.371 . S
C973 C977 1.412 . S
C974 C972 1.365 . S
C974 C975 1.370 . S
C974 C978 1.524 . S
C975 C967 1.503 . S
C975 C974 1.370 . S
C975 C976 1.403 . S
C976 C975 1.403 . S
C976 C977 1.404 . S
C976 C979 1.539 . S
C977 C973 1.412 . S
C977 C976 1.404 . S
C977 H989 0.930 . S
C978 C974 1.524 . S
C978 H990 0.956 1_455 S
C978 H991 0.961 . S
C978 H992 0.961 . S
C979 C976 1.539 . S
C979 H993 0.958 1_455 S
C979 H994 0.961 . S
C979 H995 0.960 . S
H980 C964 0.931 . S
H981 C969 0.929 . S
H982 C970 0.960 . S
H983 C970 0.962 . S
H984 C970 0.960 . S
H985 C971 0.961 . S
H986 C971 0.961 . S
H987 C971 0.961 . S
H988 C972 0.925 1_655 S
H989 C977 0.930 . S
H990 C978 0.956 1_655 S
H991 C978 0.961 . S
H992 C978 0.961 . S
H993 C979 0.958 1_655 S
H994 C979 0.961 . S
H995 C979 0.960 . S
C421 C8 1.996 . S
C429 C391 2.124 . S
C453 C26 1.326 . S
C461 C241 1.262 . S
C485 C48 1.497 . S
C493 C301 1.473 . S
C517 C19 1.851 . S
C525 C361 1.782 . S
C557 C271 1.568 . S
C549 C36 1.503 . S
C589 C331 1.816 . S
C581 C59 1.702 . S
C613 C28 1.552 . S
C621 C121 1.471 . S
C645 C46 1.203 . S
C653 C211 1.264 . S
C677 C16 1.561 . S
C685 C91 1.649 . S
C717 C151 1.774 . S
C709 C39 1.703 . S
C749 C181 0.974 . S
C741 C56 0.986 . S
C773 C6 1.377 . S
C781 C61 1.332 . S
C813 C200 1.424 . S
C805 C9 1.421 . S
C837 C21 1.487 . S
C845 C80 1.473 . S
C869 C49 1.478 . S
C877 C140 1.461 . S
C909 C320 1.423 . S
C901 C29 1.446 . S
C941 C380 1.577 . S
C933 C41 1.583 . S
C965 C1 1.492 . S
C973 C260 1.489 . S
