# Generated by pormake.
# Topology nom, (4,4)-cn, num edge types: 1
# Building blocks:
#     Node 0, Type 0, BuildingBlock: MIFKUJ_clean_linker_1, # of connection points: 4
#     Node 1, Type 0, BuildingBlock: MIFKUJ_clean_linker_1, # of connection points: 4
#     Node 2, Type 0, BuildingBlock: MIFKUJ_clean_linker_1, # of connection points: 4
#     Node 3, Type 0, BuildingBlock: MIFKUJ_clean_linker_1, # of connection points: 4
#     Node 4, Type 0, BuildingBlock: MIFKUJ_clean_linker_1, # of connection points: 4
#     Node 5, Type 0, BuildingBlock: MIFKUJ_clean_linker_1, # of connection points: 4
#     Node 6, Type 1, BuildingBlock: AZAVOO_clean_sbu_0, # of connection points: 4
#     Node 7, Type 1, BuildingBlock: AZAVOO_clean_sbu_0, # of connection points: 4
#     Node 8, Type 1, BuildingBlock: AZAVOO_clean_sbu_0, # of connection points: 4
#     Node 9, Type 1, BuildingBlock: AZAVOO_clean_sbu_0, # of connection points: 4
#     Node 10, Type 1, BuildingBlock: AZAVOO_clean_sbu_0, # of connection points: 4
#     Node 11, Type 1, BuildingBlock: AZAVOO_clean_sbu_0, # of connection points: 4
#     Edge 12, Type (0, 1), BuildingBlock: AJUNOK_clean_linker_0, # of connection points: 2
#     Edge 13, Type (0, 1), BuildingBlock: AJUNOK_clean_linker_0, # of connection points: 2
#     Edge 14, Type (0, 1), BuildingBlock: AJUNOK_clean_linker_0, # of connection points: 2
#     Edge 15, Type (0, 1), BuildingBlock: AJUNOK_clean_linker_0, # of connection points: 2
#     Edge 16, Type (0, 1), BuildingBlock: AJUNOK_clean_linker_0, # of connection points: 2
#     Edge 17, Type (0, 1), BuildingBlock: AJUNOK_clean_linker_0, # of connection points: 2
#     Edge 18, Type (0, 1), BuildingBlock: AJUNOK_clean_linker_0, # of connection points: 2
#     Edge 19, Type (0, 1), BuildingBlock: AJUNOK_clean_linker_0, # of connection points: 2
#     Edge 20, Type (0, 1), BuildingBlock: AJUNOK_clean_linker_0, # of connection points: 2
#     Edge 21, Type (0, 1), BuildingBlock: AJUNOK_clean_linker_0, # of connection points: 2
#     Edge 22, Type (0, 1), BuildingBlock: AJUNOK_clean_linker_0, # of connection points: 2
#     Edge 23, Type (0, 1), BuildingBlock: AJUNOK_clean_linker_0, # of connection points: 2
#     Edge 24, Type (0, 1), BuildingBlock: AJUNOK_clean_linker_0, # of connection points: 2
#     Edge 25, Type (0, 1), BuildingBlock: AJUNOK_clean_linker_0, # of connection points: 2
#     Edge 26, Type (0, 1), BuildingBlock: AJUNOK_clean_linker_0, # of connection points: 2
#     Edge 27, Type (0, 1), BuildingBlock: AJUNOK_clean_linker_0, # of connection points: 2
#     Edge 28, Type (0, 1), BuildingBlock: AJUNOK_clean_linker_0, # of connection points: 2
#     Edge 29, Type (0, 1), BuildingBlock: AJUNOK_clean_linker_0, # of connection points: 2
#     Edge 30, Type (0, 1), BuildingBlock: AJUNOK_clean_linker_0, # of connection points: 2
#     Edge 31, Type (0, 1), BuildingBlock: AJUNOK_clean_linker_0, # of connection points: 2
#     Edge 32, Type (0, 1), BuildingBlock: AJUNOK_clean_linker_0, # of connection points: 2
#     Edge 33, Type (0, 1), BuildingBlock: AJUNOK_clean_linker_0, # of connection points: 2
#     Edge 34, Type (0, 1), BuildingBlock: AJUNOK_clean_linker_0, # of connection points: 2
#     Edge 35, Type (0, 1), BuildingBlock: AJUNOK_clean_linker_0, # of connection points: 2
# Relax obj value: 0.035
# Max RMSD: 0.157
# Mean RMSD: 0.124
data_MOF--net-nom--node1-AZAVOO_clean_sbu_0--node2-MIFKUJ_clean_linker_1--edge1-AJUNOK_clean_linker_0
_symmetry_space_group_name_H-M    P1
_symmetry_Int_Tables_number       1
_symmetry_cell_setting            triclinic
loop_
_symmetry_equiv_pos_as_xyz
'x, y, z'
_cell_length_a     41.912862
_cell_length_b     42.271614
_cell_length_c     42.390391
_cell_angle_alpha  91.398376
_cell_angle_beta   91.363297
_cell_angle_gamma 120.09355
loop_
_atom_site_label
_atom_site_type_symbol
_atom_site_fract_x
_atom_site_fract_y
_atom_site_fract_z
_atom_type_partial_charge
H0 H 0.95866 0.43007 0.28062 0.0
H1 H 0.91645 0.40749 0.23414 0.0
H2 H 0.8851 0.48879 0.25348 0.0
H3 H 0.92665 0.51045 0.30095 0.0
H4 H 0.01806 0.51173 0.28829 0.0
H5 H 0.90169 0.41851 0.3337 0.0
H6 H 0.83807 0.4018 0.34415 0.0
H7 H 0.87825 0.49602 0.40843 0.0
H8 H 0.94135 0.51462 0.39565 0.0
H9 H 0.03754 0.55691 0.42224 0.0
H10 H 0.08368 0.57541 0.46586 0.0
H11 H 0.13563 0.52412 0.41607 0.0
H12 H 0.08926 0.50526 0.37265 0.0
H13 H 0.98664 0.49246 0.40086 0.0
H14 H 0.07918 0.59442 0.35663 0.0
H15 H 0.13878 0.64163 0.33836 0.0
H16 H 0.1428 0.56137 0.27622 0.0
H17 H 0.08314 0.51398 0.29473 0.0
C18 C 0.94588 0.47199 0.29411 0.0
C19 C 0.94242 0.44279 0.27504 0.0
C20 C 0.91847 0.4301 0.24838 0.0
C21 C 0.89809 0.44694 0.23969 0.0
C22 C 0.90051 0.47534 0.25951 0.0
C23 C 0.92429 0.48781 0.28652 0.0
C24 C 0.97399 0.48705 0.32057 0.0
C25 C 0.0112 0.50697 0.3129 0.0
C26 C 0.96486 0.48317 0.35277 0.0
C27 C 0.92642 0.46869 0.36279 0.0
C28 C 0.89685 0.43586 0.3497 0.0
C29 C 0.86049 0.42595 0.35614 0.0
C30 C 0.85326 0.44827 0.37637 0.0
C31 C 0.88298 0.47904 0.39185 0.0
C32 C 0.91913 0.48942 0.38481 0.0
C33 C 0.05983 0.5296 0.39418 0.0
C34 C 0.0589 0.54971 0.42066 0.0
C35 C 0.08539 0.56049 0.44544 0.0
C36 C 0.11301 0.55096 0.44437 0.0
C37 C 0.11438 0.53148 0.41761 0.0
C38 C 0.08806 0.52092 0.39273 0.0
C39 C 0.03068 0.51655 0.36851 0.0
C40 C 0.99347 0.49682 0.37623 0.0
C41 C 0.03947 0.52317 0.33649 0.0
C42 C 0.07699 0.5506 0.32731 0.0
C43 C 0.09322 0.5868 0.33953 0.0
C44 C 0.12704 0.61378 0.32893 0.0
C45 C 0.14531 0.60499 0.30607 0.0
C46 C 0.1294 0.56865 0.2942 0.0
C47 C 0.09536 0.54168 0.30463 0.0
H48 H 0.4122 0.9449 0.53682 0.0
H49 H 0.37002 0.88071 0.54718 0.0
H50 H 0.44372 0.85082 0.50349 0.0
H51 H 0.48643 0.91562 0.49343 0.0
H52 H 0.48733 0.99174 0.5551 0.0
H53 H 0.41222 0.92595 0.45863 0.0
H54 H 0.39512 0.88121 0.41472 0.0
H55 H 0.50632 0.94153 0.38221 0.0
H56 H 0.52405 0.98412 0.42775 0.0
H57 H 0.56159 0.09045 0.45045 0.0
H58 H 0.57596 0.15082 0.43319 0.0
H59 H 0.50335 0.15446 0.50196 0.0
H60 H 0.48754 0.09336 0.51802 0.0
H61 H 0.50122 0.03048 0.44448 0.0
H62 H 0.57875 0.09804 0.53053 0.0
H63 H 0.60798 0.14092 0.57611 0.0
H64 H 0.50888 0.08086 0.62756 0.0
H65 H 0.47886 0.03892 0.58162 0.0
C66 C 0.45228 0.93496 0.51417 0.0
C67 C 0.41948 0.92461 0.52968 0.0
C68 C 0.39521 0.88793 0.53524 0.0
C69 C 0.40329 0.86082 0.52549 0.0
C70 C 0.43677 0.87124 0.51096 0.0
C71 C 0.46111 0.90812 0.50525 0.0
C72 C 0.4757 0.97373 0.50617 0.0
C73 C 0.49036 0.00048 0.53097 0.0
C74 C 0.48143 0.98469 0.47454 0.0
C75 C 0.4697 0.95808 0.44703 0.0
C76 C 0.43312 0.92919 0.44241 0.0
C77 C 0.42317 0.90394 0.41686 0.0
C78 C 0.44925 0.90784 0.39466 0.0
C79 C 0.48561 0.93731 0.39901 0.0
C80 C 0.49571 0.96198 0.4249 0.0
C81 C 0.52351 0.08727 0.48558 0.0
C82 C 0.54883 0.10427 0.46189 0.0
C83 C 0.55721 0.13886 0.45218 0.0
C84 C 0.54039 0.15713 0.46594 0.0
C85 C 0.51614 0.14072 0.49047 0.0
C86 C 0.50753 0.106 0.49999 0.0
C87 C 0.51143 0.04891 0.49351 0.0
C88 C 0.4989 0.02217 0.46872 0.0
C89 C 0.50896 0.03806 0.52515 0.0
C90 C 0.52635 0.06516 0.55236 0.0
C91 C 0.56287 0.09446 0.55129 0.0
C92 C 0.57969 0.11889 0.57734 0.0
C93 C 0.56063 0.11399 0.60521 0.0
C94 C 0.52413 0.08501 0.60631 0.0
C95 C 0.50709 0.06096 0.58011 0.0
H96 H 0.56358 0.59351 0.70062 0.0
H97 H 0.54512 0.61658 0.74616 0.0
H98 H 0.43107 0.53548 0.7245 0.0
H99 H 0.44974 0.51186 0.6796 0.0
H100 H 0.55164 0.52271 0.69027 0.0
H101 H 0.50748 0.59947 0.64216 0.0
H102 H 0.45715 0.61234 0.63317 0.0
H103 H 0.39272 0.50737 0.58365 0.0
H104 H 0.44167 0.49355 0.59447 0.0
H105 H 0.49606 0.45356 0.56552 0.0
H106 H 0.51475 0.43159 0.51951 0.0
H107 H 0.62914 0.50072 0.54965 0.0
H108 H 0.61041 0.52305 0.59551 0.0
H109 H 0.50845 0.51925 0.57967 0.0
H110 H 0.52517 0.4329 0.63157 0.0
H111 H 0.54819 0.39531 0.65443 0.0
H112 H 0.64159 0.49242 0.69732 0.0
H113 H 0.61777 0.52989 0.67508 0.0
C114 C 0.50801 0.55123 0.68652 0.0
C115 C 0.53461 0.58065 0.70577 0.0
C116 C 0.52406 0.59386 0.73169 0.0
C117 C 0.48672 0.57761 0.73906 0.0
C118 C 0.46012 0.5481 0.71977 0.0
C119 C 0.47069 0.53488 0.69387 0.0
C120 C 0.51961 0.53693 0.65947 0.0
C121 C 0.5429 0.52275 0.66597 0.0
C122 C 0.50613 0.53473 0.62801 0.0
C123 C 0.47804 0.54512 0.61975 0.0
C124 C 0.48242 0.57913 0.62957 0.0
C125 C 0.45385 0.58664 0.6241 0.0
C126 C 0.42073 0.56049 0.60833 0.0
C127 C 0.4175 0.52759 0.59667 0.0
C128 C 0.44568 0.51987 0.60256 0.0
C129 C 0.55182 0.4899 0.584 0.0
C130 C 0.52516 0.46379 0.56237 0.0
C131 C 0.53582 0.45102 0.53627 0.0
C132 C 0.57336 0.46427 0.53123 0.0
C133 C 0.60002 0.49005 0.55308 0.0
C134 C 0.58934 0.50264 0.57932 0.0
C135 C 0.54055 0.50521 0.61053 0.0
C136 C 0.51773 0.51985 0.60391 0.0
C137 C 0.55234 0.50568 0.64211 0.0
C138 C 0.56979 0.4842 0.65163 0.0
C139 C 0.55103 0.44621 0.64532 0.0
C140 C 0.56418 0.42473 0.65843 0.0
C141 C 0.59632 0.44086 0.67812 0.0
C142 C 0.61623 0.47916 0.6829 0.0
C143 C 0.60286 0.50061 0.67002 0.0
H144 H 0.04755 0.60483 0.77496 0.0
H145 H 0.08845 0.62535 0.73019 0.0
H146 H 0.11868 0.54354 0.74846 0.0
H147 H 0.07777 0.52311 0.79311 0.0
H148 H 0.98729 0.52536 0.78182 0.0
H149 H 0.11062 0.61804 0.83096 0.0
H150 H 0.17469 0.6328 0.84044 0.0
H151 H 0.1365 0.5335 0.89105 0.0
H152 H 0.07283 0.51797 0.88025 0.0
H153 H 0.98548 0.48636 0.91378 0.0
H154 H 0.94475 0.46832 0.9583 0.0
H155 H 0.88327 0.51358 0.91447 0.0
H156 H 0.92468 0.5325 0.87022 0.0
H157 H 0.03189 0.54693 0.89393 0.0
H158 H 0.93212 0.44621 0.85136 0.0
H159 H 0.87249 0.39657 0.83147 0.0
H160 H 0.86524 0.46816 0.76436 0.0
H161 H 0.92435 0.51875 0.78565 0.0
C162 C 0.05998 0.5627 0.78734 0.0
C163 C 0.06305 0.59139 0.76926 0.0
C164 C 0.08633 0.60308 0.74382 0.0
C165 C 0.10631 0.58574 0.73581 0.0
C166 C 0.10309 0.55694 0.75392 0.0
C167 C 0.08004 0.54546 0.77949 0.0
C168 C 0.03477 0.5501 0.81379 0.0
C169 C 0.99673 0.53082 0.80646 0.0
C170 C 0.04765 0.55423 0.8456 0.0
C171 C 0.08681 0.56659 0.85445 0.0
C172 C 0.11607 0.59954 0.84418 0.0
C173 C 0.15268 0.60819 0.84997 0.0
C174 C 0.16054 0.58427 0.86651 0.0
C175 C 0.13126 0.5523 0.87806 0.0
C176 C 0.09485 0.54355 0.87207 0.0
C177 C 0.95818 0.51082 0.88862 0.0
C178 C 0.96345 0.49272 0.91383 0.0
C179 C 0.94014 0.48233 0.9392 0.0
C180 C 0.91123 0.49002 0.93999 0.0
C181 C 0.90584 0.50801 0.91475 0.0
C182 C 0.92915 0.51836 0.88928 0.0
C183 C 0.98382 0.5229 0.8622 0.0
C184 C 0.02196 0.54216 0.86943 0.0
C185 C 0.97107 0.51524 0.83013 0.0
C186 C 0.93268 0.48658 0.82042 0.0
C187 C 0.91738 0.45171 0.83299 0.0
C188 C 0.88361 0.423 0.82104 0.0
C189 C 0.86467 0.42818 0.79573 0.0
C190 C 0.87937 0.46329 0.78371 0.0
C191 C 0.91311 0.4922 0.79589 0.0
H192 H 0.58836 0.09878 0.98738 0.0
H193 H 0.63288 0.16039 0.00717 0.0
H194 H 0.55191 0.15929 0.06901 0.0
H195 H 0.5064 0.09822 0.04741 0.0
H196 H 0.50892 0.03884 0.05343 0.0
H197 H 0.56618 0.05965 0.93352 0.0
H198 H 0.58465 0.10161 0.89023 0.0
H199 H 0.49546 0.12203 0.90935 0.0
H200 H 0.47944 0.08246 0.95443 0.0
H201 H 0.42001 0.93723 0.94857 0.0
H202 H 0.39998 0.87532 0.92754 0.0
H203 H 0.48496 0.87306 0.98549 0.0
H204 H 0.50421 0.93449 0.00697 0.0
H205 H 0.48678 0.996 0.94085 0.0
H206 H 0.41287 0.93783 0.02855 0.0
H207 H 0.38915 0.8955 0.07188 0.0
H208 H 0.4986 0.94712 0.11584 0.0
H209 H 0.52237 0.9889 0.07238 0.0
C210 C 0.54357 0.09416 0.0151 0.0
C211 C 0.57959 0.11223 0.00422 0.0
C212 C 0.60534 0.14722 0.01612 0.0
C213 C 0.59595 0.16475 0.03967 0.0
C214 C 0.55982 0.1468 0.05049 0.0
C215 C 0.53385 0.11185 0.03825 0.0
C216 C 0.518 0.05526 0.00527 0.0
C217 C 0.50372 0.0295 0.02879 0.0
C218 C 0.51052 0.04288 0.97323 0.0
C219 C 0.5218 0.06844 0.94724 0.0
C220 C 0.55086 0.07344 0.92841 0.0
C221 C 0.56092 0.09694 0.90331 0.0
C222 C 0.54101 0.11463 0.89572 0.0
C223 C 0.51154 0.10907 0.91457 0.0
C224 C 0.50227 0.08645 0.94029 0.0
C225 C 0.46339 0.94037 0.97952 0.0
C226 C 0.43381 0.92307 0.95719 0.0
C227 C 0.42251 0.88779 0.94512 0.0
C228 C 0.44079 0.86922 0.95493 0.0
C229 C 0.46974 0.88622 0.97797 0.0
C230 C 0.48085 0.92142 0.99021 0.0
C231 C 0.47865 0.97948 0.9891 0.0
C232 C 0.49119 0.00526 0.9655 0.0
C233 C 0.48396 0.99182 0.02112 0.0
C234 C 0.46945 0.96616 0.04709 0.0
C235 C 0.43176 0.93987 0.04744 0.0
C236 C 0.41818 0.91606 0.07229 0.0
C237 C 0.44216 0.91816 0.09698 0.0
C238 C 0.47969 0.9449 0.09688 0.0
C239 C 0.49322 0.96873 0.07215 0.0
H240 H 0.44691 0.42439 0.19418 0.0
H241 H 0.46596 0.39649 0.235 0.0
H242 H 0.57254 0.49541 0.24461 0.0
H243 H 0.55392 0.52207 0.20247 0.0
H244 H 0.45929 0.50688 0.19892 0.0
H245 H 0.50021 0.427 0.149 0.0
H246 H 0.55028 0.41372 0.14468 0.0
H247 H 0.61846 0.51956 0.10566 0.0
H248 H 0.56964 0.5341 0.11307 0.0
H249 H 0.51267 0.56881 0.07458 0.0
H250 H 0.49185 0.58718 0.02767 0.0
H251 H 0.38007 0.52966 0.05877 0.0
H252 H 0.40071 0.51048 0.10528 0.0
H253 H 0.50147 0.50778 0.0905 0.0
H254 H 0.48965 0.59653 0.13955 0.0
H255 H 0.47665 0.6409 0.16487 0.0
H256 H 0.38943 0.55481 0.21557 0.0
H257 H 0.4014 0.50982 0.18897 0.0
C258 C 0.49926 0.47498 0.19522 0.0
C259 C 0.47424 0.44004 0.20538 0.0
C260 C 0.48504 0.42433 0.22891 0.0
C261 C 0.52072 0.44379 0.24317 0.0
C262 C 0.54502 0.47954 0.23382 0.0
C263 C 0.53446 0.4949 0.2099 0.0
C264 C 0.4889 0.49031 0.16865 0.0
C265 C 0.46734 0.50621 0.17488 0.0
C266 C 0.50296 0.49243 0.1383 0.0
C267 C 0.53127 0.48188 0.132 0.0
C268 C 0.5261 0.44759 0.13997 0.0
C269 C 0.55461 0.43974 0.13691 0.0
C270 C 0.58843 0.4655 0.12463 0.0
C271 C 0.593 0.49928 0.11561 0.0
C272 C 0.56485 0.50742 0.11941 0.0
C273 C 0.45827 0.53797 0.09346 0.0
C274 C 0.48367 0.56018 0.0714 0.0
C275 C 0.47182 0.57091 0.04471 0.0
C276 C 0.43429 0.55943 0.03938 0.0
C277 C 0.40908 0.53838 0.06202 0.0
C278 C 0.42094 0.52772 0.08876 0.0
C279 C 0.47019 0.52356 0.12024 0.0
C280 C 0.49221 0.50778 0.11417 0.0
C281 C 0.45938 0.5245 0.15152 0.0
C282 C 0.44634 0.54967 0.1621 0.0
C283 C 0.4669 0.58683 0.15528 0.0
C284 C 0.46004 0.61235 0.17036 0.0
C285 C 0.43289 0.60139 0.19297 0.0
C286 C 0.41086 0.564 0.19854 0.0
C287 C 0.4176 0.53833 0.18327 0.0
Mg288 Mg 0.61389 0.35903 0.36565 0.0
O289 O 0.60713 0.39098 0.40684 0.0
O290 O 0.63014 0.44889 0.39335 0.0
Mg291 Mg 0.65103 0.45395 0.34323 0.0
C292 C 0.61461 0.42373 0.41311 0.0
C293 C 0.56936 0.29203 0.40805 0.0
O294 O 0.54342 0.29994 0.40151 0.0
O295 O 0.67561 0.38561 0.37767 0.0
O296 O 0.69571 0.4419 0.3608 0.0
O297 O 0.55959 0.34786 0.34338 0.0
O298 O 0.61392 0.39524 0.33387 0.0
C299 C 0.70181 0.41785 0.37265 0.0
C300 C 0.57879 0.37809 0.32908 0.0
O301 O 0.60121 0.31185 0.3974 0.0
Mg302 Mg 0.27137 0.64896 0.60845 0.0
O303 O 0.23204 0.6188 0.56524 0.0
O304 O 0.19651 0.56064 0.57835 0.0
Mg305 Mg 0.21015 0.55423 0.6296 0.0
C306 C 0.20643 0.58589 0.55853 0.0
C307 C 0.29834 0.71446 0.56325 0.0
O308 O 0.26275 0.70266 0.56174 0.0
O309 O 0.3046 0.62056 0.59914 0.0
O310 O 0.26737 0.56504 0.61668 0.0
O311 O 0.23144 0.66414 0.62819 0.0
O312 O 0.23132 0.613 0.63787 0.0
C313 C 0.2981 0.58862 0.60581 0.0
C314 C 0.21622 0.63283 0.64132 0.0
O315 O 0.31005 0.69723 0.57952 0.0
Mg316 Mg 0.6323 0.27484 0.76458 0.0
O317 O 0.62188 0.23383 0.72316 0.0
O318 O 0.64509 0.19924 0.73932 0.0
Mg319 Mg 0.66894 0.21675 0.79005 0.0
C320 C 0.62832 0.20758 0.7185 0.0
C321 C 0.63001 0.34202 0.7455 0.0
O322 O 0.64511 0.35005 0.77422 0.0
O323 O 0.69353 0.30833 0.75623 0.0
O324 O 0.71496 0.27395 0.77645 0.0
O325 O 0.57832 0.23579 0.78504 0.0
O326 O 0.63119 0.23797 0.79643 0.0
C327 C 0.72026 0.30357 0.76441 0.0
C328 C 0.59623 0.22265 0.79979 0.0
O329 O 0.62083 0.31088 0.73288 0.0
Mg330 Mg 0.39864 0.65821 0.87016 0.0
O331 O 0.4029 0.62728 0.91266 0.0
O332 O 0.37378 0.56803 0.89764 0.0
Mg333 Mg 0.35422 0.56132 0.84563 0.0
C334 C 0.39149 0.59381 0.91852 0.0
C335 C 0.40931 0.73331 0.8888 0.0
O336 O 0.39858 0.72858 0.85882 0.0
O337 O 0.33747 0.63618 0.8773 0.0
O338 O 0.312 0.57869 0.85812 0.0
O339 O 0.45195 0.66647 0.85155 0.0
O340 O 0.39735 0.6184 0.83927 0.0
C341 C 0.3091 0.60534 0.86956 0.0
C342 C 0.43257 0.635 0.83671 0.0
O343 O 0.41309 0.70851 0.90172 0.0
Mg344 Mg 0.74716 0.39882 0.07079 0.0
O345 O 0.78562 0.4079 0.11475 0.0
O346 O 0.8194 0.38309 0.09988 0.0
Mg347 Mg 0.80473 0.35992 0.04903 0.0
C348 C 0.81102 0.40011 0.12034 0.0
C349 C 0.7118 0.44193 0.10262 0.0
O350 O 0.7426 0.4707 0.09467 0.0
O351 O 0.71136 0.33807 0.07871 0.0
O352 O 0.74604 0.31563 0.0609 0.0
O353 O 0.78946 0.45188 0.05073 0.0
O354 O 0.78545 0.39867 0.04083 0.0
C355 C 0.71576 0.31109 0.07142 0.0
C356 C 0.80207 0.4332 0.03649 0.0
O357 O 0.70789 0.41031 0.09847 0.0
Mg358 Mg 0.36002 0.75363 0.2265 0.0
O359 O 0.3861 0.79156 0.27072 0.0
O360 O 0.447 0.82331 0.26493 0.0
Mg361 Mg 0.45908 0.81011 0.21539 0.0
C362 C 0.41867 0.81502 0.28098 0.0
C363 C 0.27889 0.71807 0.25168 0.0
O364 O 0.27717 0.74306 0.23508 0.0
O365 O 0.3835 0.71732 0.2394 0.0
O366 O 0.44245 0.75121 0.22687 0.0
O367 O 0.35232 0.79639 0.20241 0.0
O368 O 0.4015 0.79059 0.19931 0.0
C369 C 0.41534 0.72119 0.2355 0.0
C370 C 0.38463 0.8076 0.19126 0.0
O371 O 0.30867 0.71715 0.25295 0.0
C372 C 0.18153 0.66522 0.28111 0.0
C373 C 0.18012 0.63407 0.29362 0.0
C374 C 0.2137 0.69244 0.26796 0.0
C375 C 0.24579 0.6897 0.26712 0.0
H376 H 0.1573 0.66819 0.28088 0.0
H377 H 0.21324 0.71565 0.25818 0.0
S378 S 0.2566 0.61413 0.29879 0.0
N379 N 0.21355 0.60248 0.30568 0.0
N380 N 0.27423 0.65352 0.28121 0.0
C381 C 0.24487 0.65892 0.28032 0.0
C382 C 0.21197 0.63112 0.29345 0.0
C383 C 0.58333 0.22025 0.44817 0.0
C384 C 0.54715 0.19251 0.45366 0.0
C385 C 0.59023 0.25273 0.4343 0.0
C386 C 0.56122 0.2588 0.42532 0.0
H387 H 0.60653 0.21667 0.45434 0.0
H388 H 0.61859 0.27297 0.43016 0.0
S389 S 0.46131 0.19463 0.43488 0.0
N390 N 0.48188 0.17314 0.44917 0.0
N391 N 0.49477 0.23438 0.42364 0.0
C392 C 0.5249 0.23162 0.43145 0.0
C393 C 0.5179 0.19846 0.44548 0.0
C394 C 0.39311 0.59958 0.5953 0.0
C395 C 0.38873 0.56639 0.60579 0.0
C396 C 0.36336 0.60605 0.59421 0.0
C397 C 0.3281 0.57961 0.60372 0.0
H398 H 0.41979 0.62081 0.58807 0.0
H399 H 0.36835 0.63232 0.58648 0.0
S400 S 0.30256 0.48803 0.63333 0.0
N401 N 0.34678 0.50692 0.62617 0.0
N402 N 0.29075 0.51841 0.62353 0.0
C403 C 0.32333 0.54593 0.61369 0.0
C404 C 0.35364 0.53951 0.6149 0.0
C405 C 0.7983 0.40125 0.77796 0.0
C406 C 0.82927 0.39704 0.78255 0.0
C407 C 0.76347 0.37114 0.7696 0.0
C408 C 0.75825 0.33561 0.76573 0.0
H409 H 0.80054 0.42765 0.78246 0.0
H410 H 0.74013 0.37551 0.76813 0.0
S411 S 0.83186 0.31128 0.76903 0.0
N412 N 0.85359 0.35567 0.7779 0.0
N413 N 0.78799 0.29891 0.76298 0.0
C414 C 0.78952 0.33153 0.76798 0.0
C415 C 0.82502 0.36225 0.77623 0.0
C416 C 0.428 0.8298 0.90597 0.0
C417 C 0.4317 0.83369 0.93912 0.0
C418 C 0.42071 0.79727 0.89012 0.0
C419 C 0.41701 0.76724 0.90669 0.0
H420 H 0.43141 0.85236 0.89203 0.0
H421 H 0.41841 0.79593 0.86455 0.0
S422 S 0.42208 0.76255 0.9939 0.0
N423 N 0.42942 0.80414 0.98817 0.0
N424 N 0.41631 0.74306 0.95837 0.0
C425 C 0.42033 0.77057 0.93992 0.0
C426 C 0.42756 0.80375 0.95611 0.0
C427 C 0.65575 0.48496 0.12921 0.0
C428 C 0.61912 0.45759 0.12115 0.0
C429 C 0.68549 0.47929 0.12408 0.0
C430 C 0.67978 0.44581 0.11119 0.0
H431 H 0.66161 0.51123 0.13926 0.0
H432 H 0.71321 0.50149 0.12994 0.0
S433 S 0.58937 0.36516 0.0859 0.0
N434 N 0.579 0.39581 0.09916 0.0
N435 N 0.63461 0.38463 0.09073 0.0
C436 C 0.64323 0.41776 0.10391 0.0
C437 C 0.61299 0.42376 0.10862 0.0
C438 C 0.38855 0.80101 0.548 0.0
C439 C 0.37685 0.82191 0.53128 0.0
C440 C 0.36311 0.76567 0.55711 0.0
C441 C 0.325 0.74989 0.54978 0.0
H442 H 0.41736 0.81262 0.55524 0.0
H443 H 0.37337 0.75122 0.57097 0.0
S444 S 0.28132 0.79171 0.50214 0.0
N445 N 0.32553 0.82315 0.50473 0.0
N446 N 0.27759 0.75684 0.5218 0.0
C447 C 0.31333 0.76985 0.53144 0.0
C448 C 0.33927 0.80582 0.52224 0.0
C449 C 0.6075 0.38785 0.67946 0.0
C450 C 0.60727 0.41736 0.69534 0.0
C451 C 0.61518 0.3638 0.69577 0.0
C452 C 0.62304 0.36841 0.72859 0.0
H453 H 0.6015 0.38321 0.65422 0.0
H454 H 0.61488 0.3414 0.68253 0.0
S455 S 0.62423 0.44045 0.78141 0.0
N456 N 0.61422 0.44903 0.74591 0.0
N457 N 0.62943 0.40448 0.77646 0.0
C458 C 0.62315 0.39798 0.74471 0.0
C459 C 0.6151 0.42229 0.72813 0.0
C460 C 0.20498 0.5618 0.86088 0.0
C461 C 0.19867 0.5905 0.86934 0.0
C462 C 0.24055 0.56671 0.86199 0.0
C463 C 0.27154 0.60061 0.87156 0.0
H464 H 0.18227 0.53542 0.85257 0.0
H465 H 0.24367 0.54372 0.85462 0.0
S466 S 0.26943 0.68397 0.89825 0.0
N467 N 0.22583 0.65347 0.88923 0.0
N468 N 0.29305 0.6631 0.89112 0.0
C469 C 0.2655 0.62941 0.88088 0.0
C470 C 0.22905 0.62431 0.8797 0.0
C471 C 0.6602 0.20805 0.06063 0.0
C472 C 0.62443 0.20137 0.05296 0.0
C473 C 0.68911 0.24336 0.06889 0.0
C474 C 0.68341 0.27344 0.07007 0.0
H475 H 0.66622 0.18596 0.05921 0.0
H476 H 0.7165 0.2473 0.07309 0.0
S477 S 0.59405 0.27008 0.05491 0.0
N478 N 0.5843 0.22735 0.04904 0.0
N479 N 0.63841 0.29367 0.06527 0.0
C480 C 0.64718 0.26675 0.06463 0.0
C481 C 0.61775 0.23074 0.05589 0.0
C482 C 0.39258 0.6255 0.21158 0.0
C483 C 0.42779 0.62924 0.21042 0.0
C484 C 0.38819 0.65442 0.22303 0.0
C485 C 0.41893 0.68813 0.23348 0.0
H486 H 0.36859 0.601 0.20169 0.0
H487 H 0.36091 0.65125 0.22123 0.0
S488 S 0.51572 0.70842 0.24207 0.0
N489 N 0.49289 0.66655 0.22594 0.0
N490 N 0.48478 0.72122 0.24684 0.0
C491 C 0.45372 0.6908 0.23531 0.0
C492 C 0.45813 0.6613 0.22385 0.0
C493 C 0.7856 0.40619 0.38349 0.0
C494 C 0.81514 0.44156 0.37887 0.0
C495 C 0.74907 0.39901 0.38306 0.0
C496 C 0.74074 0.42693 0.37776 0.0
H497 H 0.7907 0.38377 0.38692 0.0
H498 H 0.72718 0.3711 0.38577 0.0
S499 S 0.80872 0.52472 0.36559 0.0
N500 N 0.83386 0.50494 0.3694 0.0
N501 N 0.76571 0.49194 0.36959 0.0
C502 C 0.77034 0.46276 0.37433 0.0
C503 C 0.80737 0.46994 0.3746 0.0
C504 C 0.15954 0.59597 0.48464 0.0
C505 C 0.13916 0.5599 0.47187 0.0
C506 C 0.18255 0.60447 0.51188 0.0
C507 C 0.1855 0.57706 0.52771 0.0
H508 H 0.15735 0.61772 0.47364 0.0
H509 H 0.19707 0.6325 0.52121 0.0
S510 S 0.13865 0.47846 0.50308 0.0
N511 N 0.12418 0.4968 0.47645 0.0
N512 N 0.16711 0.51252 0.52765 0.0
C513 C 0.16585 0.541 0.51469 0.0
C514 C 0.1428 0.53249 0.48678 0.0
C515 C 0.59127 0.17555 0.63374 0.0
C516 C 0.57928 0.13795 0.63369 0.0
C517 C 0.60748 0.1981 0.66114 0.0
C518 C 0.61305 0.18397 0.68919 0.0
H519 H 0.58734 0.18739 0.61265 0.0
H520 H 0.61567 0.22678 0.66037 0.0
S521 S 0.58723 0.08721 0.7006 0.0
N522 N 0.5744 0.0876 0.66355 0.0
N523 N 0.60544 0.12975 0.71478 0.0
C524 C 0.60183 0.14645 0.68905 0.0
C525 C 0.58478 0.12351 0.66138 0.0
C526 C 0.48846 0.62981 0.77008 0.0
C527 C 0.47539 0.59203 0.76629 0.0
C528 C 0.47588 0.64371 0.79413 0.0
C529 C 0.44965 0.62032 0.81512 0.0
H530 H 0.50751 0.64863 0.75362 0.0
H531 H 0.48546 0.67277 0.79537 0.0
S532 S 0.41188 0.5203 0.81884 0.0
N533 N 0.43836 0.53215 0.78807 0.0
N534 N 0.41476 0.55837 0.83315 0.0
C535 C 0.43798 0.58285 0.81272 0.0
C536 C 0.45083 0.56868 0.78832 0.0
C537 C 0.86914 0.4407 0.9747 0.0
C538 C 0.88556 0.47735 0.96631 0.0
C539 C 0.8432 0.42718 0.99817 0.0
C540 C 0.83273 0.4498 0.01443 0.0
H541 H 0.87553 0.42195 0.96233 0.0
H542 H 0.83054 0.3984 1.00281 0.0
S543 S 0.87019 0.5489 1.00297 0.0
N544 N 0.89146 0.53679 0.97718 0.0
N545 N 0.84256 0.51145 0.02148 0.0
C546 C 0.84992 0.48693 0.00698 0.0
C547 C 0.87629 0.50066 0.98285 0.0
C548 C 0.39863 0.88565 0.13984 0.0
C549 C 0.42858 0.89106 0.12183 0.0
C550 C 0.38507 0.85924 0.16293 0.0
C551 C 0.40092 0.83727 0.16859 0.0
H552 H 0.38565 0.90195 0.13602 0.0
H553 H 0.36182 0.85577 0.17616 0.0
S554 S 0.47833 0.83937 0.12565 0.0
N555 N 0.4727 0.87169 0.11004 0.0
N556 N 0.44729 0.82186 0.15289 0.0
C557 C 0.43082 0.84245 0.15042 0.0
C558 C 0.44461 0.86938 0.12715 0.0
C559 C 0.56917 0.43038 0.26233 0.0
C560 C 0.53397 0.42615 0.26577 0.0
C561 C 0.58302 0.41456 0.28299 0.0
C562 C 0.56206 0.39326 0.30769 0.0
H563 H 0.58619 0.44585 0.24328 0.0
H564 H 0.61036 0.41878 0.27932 0.0
S565 S 0.4687 0.37432 0.32772 0.0
N566 N 0.47875 0.39991 0.29657 0.0
N567 N 0.50457 0.36893 0.33489 0.0
C568 C 0.52666 0.38827 0.31136 0.0
C569 C 0.51265 0.40498 0.29051 0.0
C570 C 0.46361 0.8698 0.35752 0.0
C571 C 0.43909 0.88161 0.36693 0.0
C572 C 0.45633 0.8475 0.33017 0.0
C573 C 0.42388 0.83544 0.3114 0.0
H574 H 0.48894 0.87821 0.37121 0.0
H575 H 0.47645 0.83988 0.32355 0.0
S576 S 0.35069 0.85855 0.3251 0.0
N577 N 0.38118 0.87985 0.35463 0.0
N578 N 0.36686 0.83671 0.30404 0.0
C579 C 0.39856 0.84605 0.32092 0.0
C580 C 0.40628 0.86936 0.34847 0.0
C581 C 0.60978 0.47971 0.48251 0.0
C582 C 0.58474 0.45296 0.50219 0.0
C583 C 0.6194 0.46995 0.45396 0.0
C584 C 0.60465 0.43299 0.44406 0.0
H585 H 0.6214 0.5085 0.48887 0.0
H586 H 0.6385 0.49169 0.43951 0.0
S587 S 0.53919 0.35241 0.48826 0.0
N588 N 0.54633 0.38805 0.51067 0.0
N589 N 0.56434 0.36942 0.45709 0.0
C590 C 0.58011 0.4059 0.464 0.0
C591 C 0.57013 0.41595 0.49298 0.0
C592 C 0.15901 0.63506 0.70787 0.0
C593 C 0.13123 0.59814 0.70906 0.0
C594 C 0.1853 0.64655 0.68452 0.0
C595 C 0.18461 0.62147 0.66174 0.0
H596 H 0.16139 0.65484 0.72588 0.0
H597 H 0.20737 0.67484 0.68532 0.0
S598 S 0.11314 0.52349 0.65096 0.0
N599 N 0.10162 0.53769 0.68306 0.0
N600 N 0.15073 0.55947 0.63895 0.0
C601 C 0.15549 0.5851 0.6614 0.0
C602 C 0.12884 0.57338 0.68515 0.0
C603 C 0.55225 0.17354 0.87322 0.0
C604 C 0.55196 0.14017 0.86926 0.0
C605 C 0.5648 0.1993 0.8497 0.0
C606 C 0.57808 0.19292 0.82164 0.0
H607 H 0.54398 0.18049 0.89512 0.0
H608 H 0.56569 0.2251 0.85409 0.0
S609 S 0.57963 0.10901 0.79756 0.0
N610 N 0.5626 0.10091 0.83312 0.0
N611 N 0.58823 0.15061 0.78983 0.0
C612 C 0.57708 0.15956 0.81675 0.0
C613 C 0.5635 0.13286 0.84035 0.0
C614 C 0.4388 0.60402 0.99913 0.0
C615 C 0.42142 0.56798 0.00947 0.0
C616 C 0.42831 0.61227 0.97015 0.0
C617 C 0.40033 0.5847 0.95011 0.0
H618 H 0.46082 0.62602 0.01352 0.0
H619 H 0.44287 0.6404 0.96313 0.0
S620 S 0.34603 0.4858 0.96663 0.0
N621 N 0.37476 0.50452 0.99765 0.0
N622 N 0.35486 0.51976 0.94337 0.0
C623 C 0.38242 0.54855 0.96047 0.0
C624 C 0.39297 0.54027 0.99007 0.0
C625 C 0.83953 0.42898 0.20736 0.0
C626 C 0.8762 0.43611 0.20909 0.0
C627 C 0.81852 0.4177 0.1786 0.0
C628 C 0.83338 0.41294 0.15061 0.0
H629 H 0.82678 0.43153 0.22847 0.0
H630 H 0.79028 0.41203 0.17843 0.0
S631 S 0.92967 0.43285 0.14178 0.0
N632 N 0.92748 0.44114 0.17966 0.0
N633 N 0.88819 0.41942 0.12613 0.0
C634 C 0.87039 0.42111 0.15197 0.0
C635 C 0.89172 0.43281 0.18103 0.0
loop_
_geom_bond_atom_site_label_1
_geom_bond_atom_site_label_2
_geom_bond_distance
_geom_bond_site_symmetry_2
_ccdc_geom_bond_type
H0 C19 0.949 . S
H1 C20 0.950 . S
H2 C22 0.950 . S
H3 C23 0.950 . S
H4 C25 0.950 . S
H5 C28 0.950 . S
H6 C29 0.950 . S
H7 C31 0.951 . S
H8 C32 0.949 . S
H9 C34 0.949 . S
H10 C35 0.950 . S
H11 C37 0.950 . S
H12 C38 0.950 . S
H13 C40 0.950 . S
H14 C43 0.950 . S
H15 C44 0.950 . S
H16 C46 0.951 . S
H17 C47 0.949 . S
C18 C19 1.376 . S
C18 C23 1.386 . S
C18 C24 1.483 . S
C19 H0 0.949 . S
C19 C18 1.376 . S
C19 C20 1.397 . S
C20 H1 0.950 . S
C20 C19 1.397 . S
C20 C21 1.391 . S
C21 C20 1.391 . S
C21 C22 1.405 . S
C22 H2 0.950 . S
C22 C21 1.405 . S
C22 C23 1.367 . S
C23 H3 0.950 . S
C23 C18 1.386 . S
C23 C22 1.367 . S
C24 C18 1.483 . S
C24 C25 1.382 1_655 S
C24 C26 1.403 . S
C25 H4 0.950 . S
C25 C24 1.382 1_455 S
C25 C41 1.411 . S
C26 C24 1.403 . S
C26 C27 1.489 . S
C26 C40 1.411 . S
C27 C26 1.489 . S
C27 C28 1.383 . S
C27 C32 1.382 . S
C28 H5 0.950 . S
C28 C27 1.383 . S
C28 C29 1.395 . S
C29 H6 0.950 . S
C29 C28 1.395 . S
C29 C30 1.288 . S
C30 C29 1.288 . S
C30 C31 1.392 . S
C31 H7 0.951 . S
C31 C30 1.392 . S
C31 C32 1.392 . S
C32 H8 0.949 . S
C32 C27 1.382 . S
C32 C31 1.392 . S
C33 C34 1.376 . S
C33 C38 1.386 . S
C33 C39 1.483 . S
C34 H9 0.949 . S
C34 C33 1.376 . S
C34 C35 1.397 . S
C35 H10 0.950 . S
C35 C34 1.397 . S
C35 C36 1.391 . S
C36 C35 1.391 . S
C36 C37 1.405 . S
C37 H11 0.950 . S
C37 C36 1.405 . S
C37 C38 1.367 . S
C38 H12 0.950 . S
C38 C33 1.386 . S
C38 C37 1.367 . S
C39 C33 1.483 . S
C39 C40 1.382 1_455 S
C39 C41 1.403 . S
C40 H13 0.950 . S
C40 C26 1.411 . S
C40 C39 1.382 1_655 S
C41 C25 1.411 . S
C41 C39 1.403 . S
C41 C42 1.489 . S
C42 C41 1.489 . S
C42 C43 1.383 . S
C42 C47 1.382 . S
C43 H14 0.950 . S
C43 C42 1.383 . S
C43 C44 1.395 . S
C44 H15 0.950 . S
C44 C43 1.395 . S
C44 C45 1.288 . S
C45 C44 1.288 . S
C45 C46 1.392 . S
C46 H16 0.951 . S
C46 C45 1.392 . S
C46 C47 1.392 . S
C47 H17 0.949 . S
C47 C42 1.382 . S
C47 C46 1.392 . S
H48 C67 0.949 . S
H49 C68 0.950 . S
H50 C70 0.950 . S
H51 C71 0.950 . S
H52 C73 0.950 1_565 S
H53 C76 0.950 . S
H54 C77 0.950 . S
H55 C79 0.951 . S
H56 C80 0.949 . S
H57 C82 0.949 . S
H58 C83 0.950 . S
H59 C85 0.950 . S
H60 C86 0.950 . S
H61 C88 0.950 . S
H62 C91 0.950 . S
H63 C92 0.950 . S
H64 C94 0.951 . S
H65 C95 0.949 . S
C66 C67 1.376 . S
C66 C71 1.386 . S
C66 C72 1.483 . S
C67 H48 0.949 . S
C67 C66 1.376 . S
C67 C68 1.397 . S
C68 H49 0.950 . S
C68 C67 1.397 . S
C68 C69 1.391 . S
C69 C68 1.391 . S
C69 C70 1.405 . S
C70 H50 0.950 . S
C70 C69 1.405 . S
C70 C71 1.367 . S
C71 H51 0.950 . S
C71 C66 1.386 . S
C71 C70 1.367 . S
C72 C66 1.483 . S
C72 C73 1.382 1_565 S
C72 C74 1.403 . S
C73 H52 0.950 1_545 S
C73 C72 1.382 1_545 S
C73 C89 1.411 . S
C74 C72 1.403 . S
C74 C75 1.489 . S
C74 C88 1.411 1_565 S
C75 C74 1.489 . S
C75 C76 1.383 . S
C75 C80 1.382 . S
C76 H53 0.950 . S
C76 C75 1.383 . S
C76 C77 1.395 . S
C77 H54 0.950 . S
C77 C76 1.395 . S
C77 C78 1.288 . S
C78 C77 1.288 . S
C78 C79 1.392 . S
C79 H55 0.951 . S
C79 C78 1.392 . S
C79 C80 1.392 . S
C80 H56 0.949 . S
C80 C75 1.382 . S
C80 C79 1.392 . S
C81 C82 1.376 . S
C81 C86 1.386 . S
C81 C87 1.483 . S
C82 H57 0.949 . S
C82 C81 1.376 . S
C82 C83 1.397 . S
C83 H58 0.950 . S
C83 C82 1.397 . S
C83 C84 1.391 . S
C84 C83 1.391 . S
C84 C85 1.405 . S
C85 H59 0.950 . S
C85 C84 1.405 . S
C85 C86 1.367 . S
C86 H60 0.950 . S
C86 C81 1.386 . S
C86 C85 1.367 . S
C87 C81 1.483 . S
C87 C88 1.382 . S
C87 C89 1.403 . S
C88 H61 0.950 . S
C88 C74 1.411 1_545 S
C88 C87 1.382 . S
C89 C73 1.411 . S
C89 C87 1.403 . S
C89 C90 1.489 . S
C90 C89 1.489 . S
C90 C91 1.383 . S
C90 C95 1.382 . S
C91 H62 0.950 . S
C91 C90 1.383 . S
C91 C92 1.395 . S
C92 H63 0.950 . S
C92 C91 1.395 . S
C92 C93 1.288 . S
C93 C92 1.288 . S
C93 C94 1.392 . S
C94 H64 0.951 . S
C94 C93 1.392 . S
C94 C95 1.392 . S
C95 H65 0.949 . S
C95 C90 1.382 . S
C95 C94 1.392 . S
H96 C115 0.949 . S
H97 C116 0.950 . S
H98 C118 0.950 . S
H99 C119 0.950 . S
H100 C121 0.950 . S
H101 C124 0.950 . S
H102 C125 0.950 . S
H103 C127 0.951 . S
H104 C128 0.949 . S
H105 C130 0.949 . S
H106 C131 0.950 . S
H107 C133 0.950 . S
H108 C134 0.950 . S
H109 C136 0.950 . S
H110 C139 0.950 . S
H111 C140 0.950 . S
H112 C142 0.951 . S
H113 C143 0.949 . S
C114 C115 1.376 . S
C114 C119 1.386 . S
C114 C120 1.483 . S
C115 H96 0.949 . S
C115 C114 1.376 . S
C115 C116 1.397 . S
C116 H97 0.950 . S
C116 C115 1.397 . S
C116 C117 1.391 . S
C117 C116 1.391 . S
C117 C118 1.405 . S
C118 H98 0.950 . S
C118 C117 1.405 . S
C118 C119 1.367 . S
C119 H99 0.950 . S
C119 C114 1.386 . S
C119 C118 1.367 . S
C120 C114 1.483 . S
C120 C121 1.382 . S
C120 C122 1.403 . S
C121 H100 0.950 . S
C121 C120 1.382 . S
C121 C137 1.411 . S
C122 C120 1.403 . S
C122 C123 1.489 . S
C122 C136 1.411 . S
C123 C122 1.489 . S
C123 C124 1.383 . S
C123 C128 1.382 . S
C124 H101 0.950 . S
C124 C123 1.383 . S
C124 C125 1.395 . S
C125 H102 0.950 . S
C125 C124 1.395 . S
C125 C126 1.288 . S
C126 C125 1.288 . S
C126 C127 1.392 . S
C127 H103 0.951 . S
C127 C126 1.392 . S
C127 C128 1.392 . S
C128 H104 0.949 . S
C128 C123 1.382 . S
C128 C127 1.392 . S
C129 C130 1.376 . S
C129 C134 1.386 . S
C129 C135 1.483 . S
C130 H105 0.949 . S
C130 C129 1.376 . S
C130 C131 1.397 . S
C131 H106 0.950 . S
C131 C130 1.397 . S
C131 C132 1.391 . S
C132 C131 1.391 . S
C132 C133 1.405 . S
C133 H107 0.950 . S
C133 C132 1.405 . S
C133 C134 1.367 . S
C134 H108 0.950 . S
C134 C129 1.386 . S
C134 C133 1.367 . S
C135 C129 1.483 . S
C135 C136 1.382 . S
C135 C137 1.403 . S
C136 H109 0.950 . S
C136 C122 1.411 . S
C136 C135 1.382 . S
C137 C121 1.411 . S
C137 C135 1.403 . S
C137 C138 1.489 . S
C138 C137 1.489 . S
C138 C139 1.383 . S
C138 C143 1.382 . S
C139 H110 0.950 . S
C139 C138 1.383 . S
C139 C140 1.395 . S
C140 H111 0.950 . S
C140 C139 1.395 . S
C140 C141 1.288 . S
C141 C140 1.288 . S
C141 C142 1.392 . S
C142 H112 0.951 . S
C142 C141 1.392 . S
C142 C143 1.392 . S
C143 H113 0.949 . S
C143 C138 1.382 . S
C143 C142 1.392 . S
H144 C163 0.949 . S
H145 C164 0.950 . S
H146 C166 0.950 . S
H147 C167 0.950 . S
H148 C169 0.950 . S
H149 C172 0.950 . S
H150 C173 0.950 . S
H151 C175 0.951 . S
H152 C176 0.949 . S
H153 C178 0.949 . S
H154 C179 0.950 . S
H155 C181 0.950 . S
H156 C182 0.950 . S
H157 C184 0.950 . S
H158 C187 0.950 . S
H159 C188 0.950 . S
H160 C190 0.951 . S
H161 C191 0.949 . S
C162 C163 1.376 . S
C162 C167 1.386 . S
C162 C168 1.483 . S
C163 H144 0.949 . S
C163 C162 1.376 . S
C163 C164 1.397 . S
C164 H145 0.950 . S
C164 C163 1.397 . S
C164 C165 1.391 . S
C165 C164 1.391 . S
C165 C166 1.405 . S
C166 H146 0.950 . S
C166 C165 1.405 . S
C166 C167 1.367 . S
C167 H147 0.950 . S
C167 C162 1.386 . S
C167 C166 1.367 . S
C168 C162 1.483 . S
C168 C169 1.382 1_455 S
C168 C170 1.403 . S
C169 H148 0.950 . S
C169 C168 1.382 1_655 S
C169 C185 1.411 . S
C170 C168 1.403 . S
C170 C171 1.489 . S
C170 C184 1.411 . S
C171 C170 1.489 . S
C171 C172 1.383 . S
C171 C176 1.382 . S
C172 H149 0.950 . S
C172 C171 1.383 . S
C172 C173 1.395 . S
C173 H150 0.950 . S
C173 C172 1.395 . S
C173 C174 1.288 . S
C174 C173 1.288 . S
C174 C175 1.392 . S
C175 H151 0.951 . S
C175 C174 1.392 . S
C175 C176 1.392 . S
C176 H152 0.949 . S
C176 C171 1.382 . S
C176 C175 1.392 . S
C177 C178 1.376 . S
C177 C182 1.386 . S
C177 C183 1.483 . S
C178 H153 0.949 . S
C178 C177 1.376 . S
C178 C179 1.397 . S
C179 H154 0.950 . S
C179 C178 1.397 . S
C179 C180 1.391 . S
C180 C179 1.391 . S
C180 C181 1.405 . S
C181 H155 0.950 . S
C181 C180 1.405 . S
C181 C182 1.367 . S
C182 H156 0.950 . S
C182 C177 1.386 . S
C182 C181 1.367 . S
C183 C177 1.483 . S
C183 C184 1.382 1_655 S
C183 C185 1.403 . S
C184 H157 0.950 . S
C184 C170 1.411 . S
C184 C183 1.382 1_455 S
C185 C169 1.411 . S
C185 C183 1.403 . S
C185 C186 1.489 . S
C186 C185 1.489 . S
C186 C187 1.383 . S
C186 C191 1.382 . S
C187 H158 0.950 . S
C187 C186 1.383 . S
C187 C188 1.395 . S
C188 H159 0.950 . S
C188 C187 1.395 . S
C188 C189 1.288 . S
C189 C188 1.288 . S
C189 C190 1.392 . S
C190 H160 0.951 . S
C190 C189 1.392 . S
C190 C191 1.392 . S
C191 H161 0.949 . S
C191 C186 1.382 . S
C191 C190 1.392 . S
H192 C211 0.949 . S
H193 C212 0.950 . S
H194 C214 0.950 . S
H195 C215 0.949 1_556 S
H196 C217 0.950 . S
H197 C220 0.950 . S
H198 C221 0.950 . S
H199 C223 0.951 . S
H200 C224 0.949 . S
H201 C226 0.949 . S
H202 C227 0.950 . S
H203 C229 0.950 . S
H204 C230 0.950 . S
H205 C232 0.950 1_565 S
H206 C235 0.950 . S
H207 C236 0.950 . S
H208 C238 0.951 . S
H209 C239 0.949 . S
C210 C211 1.376 . S
C210 C215 1.386 . S
C210 C216 1.483 1_554 S
C211 H192 0.949 . S
C211 C210 1.376 . S
C211 C212 1.397 . S
C212 H193 0.950 . S
C212 C211 1.397 . S
C212 C213 1.391 . S
C213 C212 1.391 . S
C213 C214 1.405 . S
C214 H194 0.950 . S
C214 C213 1.405 . S
C214 C215 1.368 . S
C215 H195 0.949 1_554 S
C215 C210 1.386 . S
C215 C214 1.368 . S
C216 C210 1.483 1_556 S
C216 C217 1.382 1_556 S
C216 C218 1.403 . S
C217 H196 0.950 . S
C217 C216 1.382 1_554 S
C217 C233 1.411 1_545 S
C218 C216 1.403 . S
C218 C219 1.489 . S
C218 C232 1.411 . S
C219 C218 1.489 . S
C219 C220 1.383 . S
C219 C224 1.382 . S
C220 H197 0.950 . S
C220 C219 1.383 . S
C220 C221 1.395 . S
C221 H198 0.950 . S
C221 C220 1.395 . S
C221 C222 1.288 . S
C222 C221 1.288 . S
C222 C223 1.392 . S
C223 H199 0.951 . S
C223 C222 1.392 . S
C223 C224 1.392 . S
C224 H200 0.949 . S
C224 C219 1.382 . S
C224 C223 1.392 . S
C225 C226 1.376 . S
C225 C230 1.386 . S
C225 C231 1.483 . S
C226 H201 0.949 . S
C226 C225 1.376 . S
C226 C227 1.397 . S
C227 H202 0.950 . S
C227 C226 1.397 . S
C227 C228 1.391 . S
C228 C227 1.391 . S
C228 C229 1.405 . S
C229 H203 0.950 . S
C229 C228 1.405 . S
C229 C230 1.367 . S
C230 H204 0.950 . S
C230 C225 1.386 . S
C230 C229 1.367 . S
C231 C225 1.483 . S
C231 C232 1.382 1_565 S
C231 C233 1.403 1_556 S
C232 H205 0.950 1_545 S
C232 C218 1.411 . S
C232 C231 1.382 1_545 S
C233 C217 1.411 1_565 S
C233 C231 1.403 1_554 S
C233 C234 1.489 . S
C234 C233 1.489 . S
C234 C235 1.383 . S
C234 C239 1.382 . S
C235 H206 0.950 . S
C235 C234 1.383 . S
C235 C236 1.395 . S
C236 H207 0.950 . S
C236 C235 1.395 . S
C236 C237 1.288 . S
C237 C236 1.288 . S
C237 C238 1.392 . S
C238 H208 0.951 . S
C238 C237 1.392 . S
C238 C239 1.392 . S
C239 H209 0.949 . S
C239 C234 1.382 . S
C239 C238 1.392 . S
H240 C259 0.949 . S
H241 C260 0.950 . S
H242 C262 0.950 . S
H243 C263 0.950 . S
H244 C265 0.950 . S
H245 C268 0.950 . S
H246 C269 0.950 . S
H247 C271 0.951 . S
H248 C272 0.949 . S
H249 C274 0.949 . S
H250 C275 0.950 . S
H251 C277 0.950 . S
H252 C278 0.950 . S
H253 C280 0.950 . S
H254 C283 0.950 . S
H255 C284 0.950 . S
H256 C286 0.951 . S
H257 C287 0.949 . S
C258 C259 1.376 . S
C258 C263 1.386 . S
C258 C264 1.483 . S
C259 H240 0.949 . S
C259 C258 1.376 . S
C259 C260 1.397 . S
C260 H241 0.950 . S
C260 C259 1.397 . S
C260 C261 1.391 . S
C261 C260 1.391 . S
C261 C262 1.405 . S
C262 H242 0.950 . S
C262 C261 1.405 . S
C262 C263 1.367 . S
C263 H243 0.950 . S
C263 C258 1.386 . S
C263 C262 1.367 . S
C264 C258 1.483 . S
C264 C265 1.382 . S
C264 C266 1.403 . S
C265 H244 0.950 . S
C265 C264 1.382 . S
C265 C281 1.411 . S
C266 C264 1.403 . S
C266 C267 1.489 . S
C266 C280 1.411 . S
C267 C266 1.489 . S
C267 C268 1.383 . S
C267 C272 1.382 . S
C268 H245 0.950 . S
C268 C267 1.383 . S
C268 C269 1.395 . S
C269 H246 0.950 . S
C269 C268 1.395 . S
C269 C270 1.288 . S
C270 C269 1.288 . S
C270 C271 1.392 . S
C271 H247 0.951 . S
C271 C270 1.392 . S
C271 C272 1.392 . S
C272 H248 0.949 . S
C272 C267 1.382 . S
C272 C271 1.392 . S
C273 C274 1.376 . S
C273 C278 1.386 . S
C273 C279 1.483 . S
C274 H249 0.949 . S
C274 C273 1.376 . S
C274 C275 1.397 . S
C275 H250 0.950 . S
C275 C274 1.397 . S
C275 C276 1.391 . S
C276 C275 1.391 . S
C276 C277 1.405 . S
C277 H251 0.950 . S
C277 C276 1.405 . S
C277 C278 1.367 . S
C278 H252 0.950 . S
C278 C273 1.386 . S
C278 C277 1.367 . S
C279 C273 1.483 . S
C279 C280 1.382 . S
C279 C281 1.403 . S
C280 H253 0.950 . S
C280 C266 1.411 . S
C280 C279 1.382 . S
C281 C265 1.411 . S
C281 C279 1.403 . S
C281 C282 1.489 . S
C282 C281 1.489 . S
C282 C283 1.383 . S
C282 C287 1.382 . S
C283 H254 0.950 . S
C283 C282 1.383 . S
C283 C284 1.395 . S
C284 H255 0.950 . S
C284 C283 1.395 . S
C284 C285 1.288 . S
C285 C284 1.288 . S
C285 C286 1.392 . S
C286 H256 0.951 . S
C286 C285 1.392 . S
C286 C287 1.392 . S
C287 H257 0.949 . S
C287 C282 1.382 . S
C287 C286 1.392 . S
Mg288 O289 2.028 . S
Mg288 O295 1.986 . S
Mg288 O297 2.114 . S
Mg288 O298 2.251 . S
Mg288 O301 2.010 . S
O289 Mg288 2.028 . S
O289 C292 1.250 . S
O290 Mg291 2.028 . S
O290 C292 1.248 . S
Mg291 O290 2.028 . S
Mg291 O296 2.032 . S
Mg291 O298 2.079 . S
C292 O289 1.250 . S
C292 O290 1.248 . S
C293 O294 1.264 . S
C293 O301 1.249 . S
O294 C293 1.264 . S
O295 Mg288 1.986 . S
O295 C299 1.246 . S
O296 Mg291 2.032 . S
O296 C299 1.259 . S
O297 Mg288 2.114 . S
O297 C300 1.252 . S
O298 Mg288 2.251 . S
O298 Mg291 2.079 . S
O298 C300 1.273 . S
C299 O295 1.246 . S
C299 O296 1.259 . S
C300 O297 1.252 . S
C300 O298 1.273 . S
O301 Mg288 2.010 . S
O301 C293 1.249 . S
Mg302 O303 2.028 . S
Mg302 O309 1.986 . S
Mg302 O311 2.114 . S
Mg302 O312 2.251 . S
Mg302 O315 2.010 . S
O303 Mg302 2.028 . S
O303 C306 1.250 . S
O304 Mg305 2.028 . S
O304 C306 1.248 . S
Mg305 O304 2.028 . S
Mg305 O310 2.032 . S
Mg305 O312 2.079 . S
C306 O303 1.250 . S
C306 O304 1.248 . S
C307 O308 1.264 . S
C307 O315 1.249 . S
O308 C307 1.264 . S
O309 Mg302 1.986 . S
O309 C313 1.246 . S
O310 Mg305 2.032 . S
O310 C313 1.259 . S
O311 Mg302 2.114 . S
O311 C314 1.252 . S
O312 Mg302 2.251 . S
O312 Mg305 2.079 . S
O312 C314 1.273 . S
C313 O309 1.246 . S
C313 O310 1.259 . S
C314 O311 1.252 . S
C314 O312 1.273 . S
O315 Mg302 2.010 . S
O315 C307 1.249 . S
Mg316 O317 2.028 . S
Mg316 O323 1.986 . S
Mg316 O325 2.114 . S
Mg316 O326 2.251 . S
Mg316 O329 2.010 . S
O317 Mg316 2.028 . S
O317 C320 1.250 . S
O318 Mg319 2.028 . S
O318 C320 1.248 . S
Mg319 O318 2.028 . S
Mg319 O324 2.032 . S
Mg319 O326 2.079 . S
C320 O317 1.250 . S
C320 O318 1.248 . S
C321 O322 1.264 . S
C321 O329 1.249 . S
O322 C321 1.264 . S
O323 Mg316 1.986 . S
O323 C327 1.246 . S
O324 Mg319 2.032 . S
O324 C327 1.259 . S
O325 Mg316 2.114 . S
O325 C328 1.252 . S
O326 Mg316 2.251 . S
O326 Mg319 2.079 . S
O326 C328 1.273 . S
C327 O323 1.246 . S
C327 O324 1.259 . S
C328 O325 1.252 . S
C328 O326 1.273 . S
O329 Mg316 2.010 . S
O329 C321 1.249 . S
Mg330 O331 2.028 . S
Mg330 O337 1.986 . S
Mg330 O339 2.114 . S
Mg330 O340 2.251 . S
Mg330 O343 2.010 . S
O331 Mg330 2.028 . S
O331 C334 1.250 . S
O332 Mg333 2.028 . S
O332 C334 1.248 . S
Mg333 O332 2.028 . S
Mg333 O338 2.032 . S
Mg333 O340 2.079 . S
C334 O331 1.250 . S
C334 O332 1.248 . S
C335 O336 1.264 . S
C335 O343 1.249 . S
O336 C335 1.264 . S
O337 Mg330 1.986 . S
O337 C341 1.246 . S
O338 Mg333 2.032 . S
O338 C341 1.259 . S
O339 Mg330 2.114 . S
O339 C342 1.252 . S
O340 Mg330 2.251 . S
O340 Mg333 2.079 . S
O340 C342 1.273 . S
C341 O337 1.246 . S
C341 O338 1.259 . S
C342 O339 1.252 . S
C342 O340 1.273 . S
O343 Mg330 2.010 . S
O343 C335 1.249 . S
Mg344 O345 2.028 . S
Mg344 O351 1.986 . S
Mg344 O353 2.114 . S
Mg344 O354 2.251 . S
Mg344 O357 2.010 . S
O345 Mg344 2.028 . S
O345 C348 1.250 . S
O346 Mg347 2.028 . S
O346 C348 1.248 . S
Mg347 O346 2.028 . S
Mg347 O352 2.032 . S
Mg347 O354 2.079 . S
C348 O345 1.250 . S
C348 O346 1.248 . S
C349 O350 1.264 . S
C349 O357 1.249 . S
O350 C349 1.264 . S
O351 Mg344 1.986 . S
O351 C355 1.246 . S
O352 Mg347 2.032 . S
O352 C355 1.259 . S
O353 Mg344 2.114 . S
O353 C356 1.252 . S
O354 Mg344 2.251 . S
O354 Mg347 2.079 . S
O354 C356 1.273 . S
C355 O351 1.246 . S
C355 O352 1.259 . S
C356 O353 1.252 . S
C356 O354 1.273 . S
O357 Mg344 2.010 . S
O357 C349 1.249 . S
Mg358 O359 2.028 . S
Mg358 O365 1.986 . S
Mg358 O367 2.114 . S
Mg358 O368 2.251 . S
Mg358 O371 2.010 . S
O359 Mg358 2.028 . S
O359 C362 1.250 . S
O360 Mg361 2.028 . S
O360 C362 1.248 . S
Mg361 O360 2.028 . S
Mg361 O366 2.032 . S
Mg361 O368 2.079 . S
C362 O359 1.250 . S
C362 O360 1.248 . S
C363 O364 1.264 . S
C363 O371 1.249 . S
O364 C363 1.264 . S
O365 Mg358 1.986 . S
O365 C369 1.246 . S
O366 Mg361 2.032 . S
O366 C369 1.259 . S
O367 Mg358 2.114 . S
O367 C370 1.252 . S
O368 Mg358 2.251 . S
O368 Mg361 2.079 . S
O368 C370 1.273 . S
C369 O365 1.246 . S
C369 O366 1.259 . S
C370 O367 1.252 . S
C370 O368 1.273 . S
O371 Mg358 2.010 . S
O371 C363 1.249 . S
C372 C373 1.369 . S
C372 C374 1.419 . S
C372 H376 0.930 . S
C373 C372 1.369 . S
C373 C382 1.429 . S
C374 C372 1.419 . S
C374 C375 1.363 . S
C374 H377 0.929 . S
C375 C374 1.363 . S
C375 C381 1.428 . S
H376 C372 0.930 . S
H377 C374 0.929 . S
S378 N379 1.613 . S
S378 N380 1.610 . S
N379 S378 1.613 . S
N379 C382 1.350 . S
N380 S378 1.610 . S
N380 C381 1.351 . S
C381 C375 1.428 . S
C381 N380 1.351 . S
C381 C382 1.434 . S
C382 C373 1.429 . S
C382 N379 1.350 . S
C382 C381 1.434 . S
C383 C384 1.369 . S
C383 C385 1.419 . S
C383 H387 0.930 . S
C384 C383 1.369 . S
C384 C393 1.429 . S
C385 C383 1.419 . S
C385 C386 1.363 . S
C385 H388 0.929 . S
C386 C385 1.363 . S
C386 C392 1.428 . S
H387 C383 0.930 . S
H388 C385 0.929 . S
S389 N390 1.613 . S
S389 N391 1.610 . S
N390 S389 1.613 . S
N390 C393 1.350 . S
N391 S389 1.610 . S
N391 C392 1.351 . S
C392 C386 1.428 . S
C392 N391 1.351 . S
C392 C393 1.434 . S
C393 C384 1.429 . S
C393 N390 1.350 . S
C393 C392 1.434 . S
C394 C395 1.369 . S
C394 C396 1.419 . S
C394 H398 0.930 . S
C395 C394 1.369 . S
C395 C404 1.429 . S
C396 C394 1.419 . S
C396 C397 1.363 . S
C396 H399 0.929 . S
C397 C396 1.363 . S
C397 C403 1.428 . S
H398 C394 0.930 . S
H399 C396 0.929 . S
S400 N401 1.613 . S
S400 N402 1.610 . S
N401 S400 1.613 . S
N401 C404 1.350 . S
N402 S400 1.610 . S
N402 C403 1.351 . S
C403 C397 1.428 . S
C403 N402 1.351 . S
C403 C404 1.434 . S
C404 C395 1.429 . S
C404 N401 1.350 . S
C404 C403 1.434 . S
C405 C406 1.369 . S
C405 C407 1.419 . S
C405 H409 0.930 . S
C406 C405 1.369 . S
C406 C415 1.429 . S
C407 C405 1.419 . S
C407 C408 1.363 . S
C407 H410 0.929 . S
C408 C407 1.363 . S
C408 C414 1.428 . S
H409 C405 0.930 . S
H410 C407 0.929 . S
S411 N412 1.613 . S
S411 N413 1.610 . S
N412 S411 1.613 . S
N412 C415 1.350 . S
N413 S411 1.610 . S
N413 C414 1.351 . S
C414 C408 1.428 . S
C414 N413 1.351 . S
C414 C415 1.434 . S
C415 C406 1.429 . S
C415 N412 1.350 . S
C415 C414 1.434 . S
C416 C417 1.369 . S
C416 C418 1.419 . S
C416 H420 0.930 . S
C417 C416 1.369 . S
C417 C426 1.429 . S
C418 C416 1.419 . S
C418 C419 1.363 . S
C418 H421 0.929 . S
C419 C418 1.363 . S
C419 C425 1.428 . S
H420 C416 0.930 . S
H421 C418 0.929 . S
S422 N423 1.613 . S
S422 N424 1.610 . S
N423 S422 1.613 . S
N423 C426 1.350 . S
N424 S422 1.610 . S
N424 C425 1.351 . S
C425 C419 1.428 . S
C425 N424 1.351 . S
C425 C426 1.434 . S
C426 C417 1.429 . S
C426 N423 1.350 . S
C426 C425 1.434 . S
C427 C428 1.369 . S
C427 C429 1.419 . S
C427 H431 0.930 . S
C428 C427 1.369 . S
C428 C437 1.429 . S
C429 C427 1.419 . S
C429 C430 1.363 . S
C429 H432 0.929 . S
C430 C429 1.363 . S
C430 C436 1.428 . S
H431 C427 0.930 . S
H432 C429 0.929 . S
S433 N434 1.613 . S
S433 N435 1.610 . S
N434 S433 1.613 . S
N434 C437 1.350 . S
N435 S433 1.610 . S
N435 C436 1.351 . S
C436 C430 1.428 . S
C436 N435 1.351 . S
C436 C437 1.434 . S
C437 C428 1.429 . S
C437 N434 1.350 . S
C437 C436 1.434 . S
C438 C439 1.369 . S
C438 C440 1.419 . S
C438 H442 0.930 . S
C439 C438 1.369 . S
C439 C448 1.429 . S
C440 C438 1.419 . S
C440 C441 1.363 . S
C440 H443 0.929 . S
C441 C440 1.363 . S
C441 C447 1.428 . S
H442 C438 0.930 . S
H443 C440 0.929 . S
S444 N445 1.613 . S
S444 N446 1.610 . S
N445 S444 1.613 . S
N445 C448 1.350 . S
N446 S444 1.610 . S
N446 C447 1.351 . S
C447 C441 1.428 . S
C447 N446 1.351 . S
C447 C448 1.434 . S
C448 C439 1.429 . S
C448 N445 1.350 . S
C448 C447 1.434 . S
C449 C450 1.369 . S
C449 C451 1.419 . S
C449 H453 0.930 . S
C450 C449 1.369 . S
C450 C459 1.429 . S
C451 C449 1.419 . S
C451 C452 1.363 . S
C451 H454 0.929 . S
C452 C451 1.363 . S
C452 C458 1.428 . S
H453 C449 0.930 . S
H454 C451 0.929 . S
S455 N456 1.613 . S
S455 N457 1.610 . S
N456 S455 1.613 . S
N456 C459 1.350 . S
N457 S455 1.610 . S
N457 C458 1.351 . S
C458 C452 1.428 . S
C458 N457 1.351 . S
C458 C459 1.434 . S
C459 C450 1.429 . S
C459 N456 1.350 . S
C459 C458 1.434 . S
C460 C461 1.369 . S
C460 C462 1.419 . S
C460 H464 0.930 . S
C461 C460 1.369 . S
C461 C470 1.429 . S
C462 C460 1.419 . S
C462 C463 1.363 . S
C462 H465 0.929 . S
C463 C462 1.363 . S
C463 C469 1.428 . S
H464 C460 0.930 . S
H465 C462 0.929 . S
S466 N467 1.613 . S
S466 N468 1.610 . S
N467 S466 1.613 . S
N467 C470 1.350 . S
N468 S466 1.610 . S
N468 C469 1.351 . S
C469 C463 1.428 . S
C469 N468 1.351 . S
C469 C470 1.434 . S
C470 C461 1.429 . S
C470 N467 1.350 . S
C470 C469 1.434 . S
C471 C472 1.369 . S
C471 C473 1.419 . S
C471 H475 0.930 . S
C472 C471 1.369 . S
C472 C481 1.429 . S
C473 C471 1.419 . S
C473 C474 1.363 . S
C473 H476 0.929 . S
C474 C473 1.363 . S
C474 C480 1.428 . S
H475 C471 0.930 . S
H476 C473 0.929 . S
S477 N478 1.613 . S
S477 N479 1.610 . S
N478 S477 1.613 . S
N478 C481 1.350 . S
N479 S477 1.610 . S
N479 C480 1.351 . S
C480 C474 1.428 . S
C480 N479 1.351 . S
C480 C481 1.434 . S
C481 C472 1.429 . S
C481 N478 1.350 . S
C481 C480 1.434 . S
C482 C483 1.369 . S
C482 C484 1.419 . S
C482 H486 0.930 . S
C483 C482 1.369 . S
C483 C492 1.429 . S
C484 C482 1.419 . S
C484 C485 1.363 . S
C484 H487 0.929 . S
C485 C484 1.363 . S
C485 C491 1.428 . S
H486 C482 0.930 . S
H487 C484 0.929 . S
S488 N489 1.613 . S
S488 N490 1.610 . S
N489 S488 1.613 . S
N489 C492 1.350 . S
N490 S488 1.610 . S
N490 C491 1.351 . S
C491 C485 1.428 . S
C491 N490 1.351 . S
C491 C492 1.434 . S
C492 C483 1.429 . S
C492 N489 1.350 . S
C492 C491 1.434 . S
C493 C494 1.369 . S
C493 C495 1.419 . S
C493 H497 0.930 . S
C494 C493 1.369 . S
C494 C503 1.429 . S
C495 C493 1.419 . S
C495 C496 1.363 . S
C495 H498 0.929 . S
C496 C495 1.363 . S
C496 C502 1.428 . S
H497 C493 0.930 . S
H498 C495 0.929 . S
S499 N500 1.613 . S
S499 N501 1.610 . S
N500 S499 1.613 . S
N500 C503 1.350 . S
N501 S499 1.610 . S
N501 C502 1.351 . S
C502 C496 1.428 . S
C502 N501 1.351 . S
C502 C503 1.434 . S
C503 C494 1.429 . S
C503 N500 1.350 . S
C503 C502 1.434 . S
C504 C505 1.369 . S
C504 C506 1.419 . S
C504 H508 0.930 . S
C505 C504 1.369 . S
C505 C514 1.429 . S
C506 C504 1.419 . S
C506 C507 1.363 . S
C506 H509 0.929 . S
C507 C506 1.363 . S
C507 C513 1.428 . S
H508 C504 0.930 . S
H509 C506 0.929 . S
S510 N511 1.613 . S
S510 N512 1.610 . S
N511 S510 1.613 . S
N511 C514 1.350 . S
N512 S510 1.610 . S
N512 C513 1.351 . S
C513 C507 1.428 . S
C513 N512 1.351 . S
C513 C514 1.434 . S
C514 C505 1.429 . S
C514 N511 1.350 . S
C514 C513 1.434 . S
C515 C516 1.369 . S
C515 C517 1.419 . S
C515 H519 0.930 . S
C516 C515 1.369 . S
C516 C525 1.429 . S
C517 C515 1.419 . S
C517 C518 1.363 . S
C517 H520 0.929 . S
C518 C517 1.363 . S
C518 C524 1.428 . S
H519 C515 0.930 . S
H520 C517 0.929 . S
S521 N522 1.613 . S
S521 N523 1.610 . S
N522 S521 1.613 . S
N522 C525 1.350 . S
N523 S521 1.610 . S
N523 C524 1.351 . S
C524 C518 1.428 . S
C524 N523 1.351 . S
C524 C525 1.434 . S
C525 C516 1.429 . S
C525 N522 1.350 . S
C525 C524 1.434 . S
C526 C527 1.369 . S
C526 C528 1.419 . S
C526 H530 0.930 . S
C527 C526 1.369 . S
C527 C536 1.429 . S
C528 C526 1.419 . S
C528 C529 1.363 . S
C528 H531 0.929 . S
C529 C528 1.363 . S
C529 C535 1.428 . S
H530 C526 0.930 . S
H531 C528 0.929 . S
S532 N533 1.613 . S
S532 N534 1.610 . S
N533 S532 1.613 . S
N533 C536 1.350 . S
N534 S532 1.610 . S
N534 C535 1.351 . S
C535 C529 1.428 . S
C535 N534 1.351 . S
C535 C536 1.434 . S
C536 C527 1.429 . S
C536 N533 1.350 . S
C536 C535 1.434 . S
C537 C538 1.369 . S
C537 C539 1.419 . S
C537 H541 0.930 . S
C538 C537 1.369 . S
C538 C547 1.429 . S
C539 C537 1.419 . S
C539 C540 1.363 . S
C539 H542 0.929 1_556 S
C540 C539 1.363 . S
C540 C546 1.428 . S
H541 C537 0.930 . S
H542 C539 0.929 1_554 S
S543 N544 1.613 . S
S543 N545 1.610 . S
N544 S543 1.613 . S
N544 C547 1.350 . S
N545 S543 1.610 . S
N545 C546 1.351 . S
C546 C540 1.428 . S
C546 N545 1.351 . S
C546 C547 1.434 . S
C547 C538 1.429 . S
C547 N544 1.350 . S
C547 C546 1.434 . S
C548 C549 1.369 . S
C548 C550 1.419 . S
C548 H552 0.930 . S
C549 C548 1.369 . S
C549 C558 1.429 . S
C550 C548 1.419 . S
C550 C551 1.363 . S
C550 H553 0.929 . S
C551 C550 1.363 . S
C551 C557 1.428 . S
H552 C548 0.930 . S
H553 C550 0.929 . S
S554 N555 1.613 . S
S554 N556 1.610 . S
N555 S554 1.613 . S
N555 C558 1.350 . S
N556 S554 1.610 . S
N556 C557 1.351 . S
C557 C551 1.428 . S
C557 N556 1.351 . S
C557 C558 1.434 . S
C558 C549 1.429 . S
C558 N555 1.350 . S
C558 C557 1.434 . S
C559 C560 1.369 . S
C559 C561 1.419 . S
C559 H563 0.930 . S
C560 C559 1.369 . S
C560 C569 1.429 . S
C561 C559 1.419 . S
C561 C562 1.363 . S
C561 H564 0.929 . S
C562 C561 1.363 . S
C562 C568 1.428 . S
H563 C559 0.930 . S
H564 C561 0.929 . S
S565 N566 1.613 . S
S565 N567 1.610 . S
N566 S565 1.613 . S
N566 C569 1.350 . S
N567 S565 1.610 . S
N567 C568 1.351 . S
C568 C562 1.428 . S
C568 N567 1.351 . S
C568 C569 1.434 . S
C569 C560 1.429 . S
C569 N566 1.350 . S
C569 C568 1.434 . S
C570 C571 1.369 . S
C570 C572 1.419 . S
C570 H574 0.930 . S
C571 C570 1.369 . S
C571 C580 1.429 . S
C572 C570 1.419 . S
C572 C573 1.363 . S
C572 H575 0.929 . S
C573 C572 1.363 . S
C573 C579 1.428 . S
H574 C570 0.930 . S
H575 C572 0.929 . S
S576 N577 1.613 . S
S576 N578 1.610 . S
N577 S576 1.613 . S
N577 C580 1.350 . S
N578 S576 1.610 . S
N578 C579 1.351 . S
C579 C573 1.428 . S
C579 N578 1.351 . S
C579 C580 1.434 . S
C580 C571 1.429 . S
C580 N577 1.350 . S
C580 C579 1.434 . S
C581 C582 1.369 . S
C581 C583 1.419 . S
C581 H585 0.930 . S
C582 C581 1.369 . S
C582 C591 1.429 . S
C583 C581 1.419 . S
C583 C584 1.363 . S
C583 H586 0.929 . S
C584 C583 1.363 . S
C584 C590 1.428 . S
H585 C581 0.930 . S
H586 C583 0.929 . S
S587 N588 1.613 . S
S587 N589 1.610 . S
N588 S587 1.613 . S
N588 C591 1.350 . S
N589 S587 1.610 . S
N589 C590 1.351 . S
C590 C584 1.428 . S
C590 N589 1.351 . S
C590 C591 1.434 . S
C591 C582 1.429 . S
C591 N588 1.350 . S
C591 C590 1.434 . S
C592 C593 1.369 . S
C592 C594 1.419 . S
C592 H596 0.930 . S
C593 C592 1.369 . S
C593 C602 1.429 . S
C594 C592 1.419 . S
C594 C595 1.363 . S
C594 H597 0.929 . S
C595 C594 1.363 . S
C595 C601 1.428 . S
H596 C592 0.930 . S
H597 C594 0.929 . S
S598 N599 1.613 . S
S598 N600 1.610 . S
N599 S598 1.613 . S
N599 C602 1.350 . S
N600 S598 1.610 . S
N600 C601 1.351 . S
C601 C595 1.428 . S
C601 N600 1.351 . S
C601 C602 1.434 . S
C602 C593 1.429 . S
C602 N599 1.350 . S
C602 C601 1.434 . S
C603 C604 1.369 . S
C603 C605 1.419 . S
C603 H607 0.930 . S
C604 C603 1.369 . S
C604 C613 1.429 . S
C605 C603 1.419 . S
C605 C606 1.363 . S
C605 H608 0.929 . S
C606 C605 1.363 . S
C606 C612 1.428 . S
H607 C603 0.930 . S
H608 C605 0.929 . S
S609 N610 1.613 . S
S609 N611 1.610 . S
N610 S609 1.613 . S
N610 C613 1.350 . S
N611 S609 1.610 . S
N611 C612 1.351 . S
C612 C606 1.428 . S
C612 N611 1.351 . S
C612 C613 1.434 . S
C613 C604 1.429 . S
C613 N610 1.350 . S
C613 C612 1.434 . S
C614 C615 1.369 . S
C614 C616 1.419 1_554 S
C614 H618 0.930 . S
C615 C614 1.369 . S
C615 C624 1.429 1_554 S
C616 C614 1.419 1_556 S
C616 C617 1.363 . S
C616 H619 0.929 . S
C617 C616 1.363 . S
C617 C623 1.428 . S
H618 C614 0.930 . S
H619 C616 0.929 . S
S620 N621 1.613 . S
S620 N622 1.610 . S
N621 S620 1.613 . S
N621 C624 1.350 . S
N622 S620 1.610 . S
N622 C623 1.351 . S
C623 C617 1.428 . S
C623 N622 1.351 . S
C623 C624 1.434 . S
C624 C615 1.429 1_556 S
C624 N621 1.350 . S
C624 C623 1.434 . S
C625 C626 1.369 . S
C625 C627 1.419 . S
C625 H629 0.930 . S
C626 C625 1.369 . S
C626 C635 1.429 . S
C627 C625 1.419 . S
C627 C628 1.363 . S
C627 H630 0.929 . S
C628 C627 1.363 . S
C628 C634 1.428 . S
H629 C625 0.930 . S
H630 C627 0.929 . S
S631 N632 1.613 . S
S631 N633 1.610 . S
N632 S631 1.613 . S
N632 C635 1.350 . S
N633 S631 1.610 . S
N633 C634 1.351 . S
C634 C628 1.428 . S
C634 N633 1.351 . S
C634 C635 1.434 . S
C635 C626 1.429 . S
C635 N632 1.350 . S
C635 C634 1.434 . S
C375 C363 1.324 . S
C373 C45 1.602 . S
C384 C84 1.617 . S
C386 C293 1.354 . S
C395 C126 1.543 . S
C397 C313 1.626 . S
C406 C189 1.551 . S
C408 C327 1.565 . S
C419 C335 1.296 . S
C417 C228 1.567 . S
C428 C270 1.530 . S
C430 C349 1.293 . S
C439 C69 1.579 . S
C441 C307 1.334 . S
C450 C141 1.579 . S
C452 C321 1.294 . S
C461 C174 1.485 . S
C463 C341 1.555 . S
C474 C355 1.601 . S
C472 C213 1.547 . S
C485 C369 1.605 . S
C483 C285 1.589 . S
C496 C299 1.622 . S
C494 C30 1.539 . S
C505 C36 1.487 . S
C507 C306 1.458 . S
C516 C93 1.489 . S
C518 C320 1.461 . S
C529 C342 1.477 . S
C527 C117 1.477 . S
C538 C180 1.492 . S
C540 C356 1.491 1_556 S
C551 C370 1.454 . S
C549 C237 1.463 . S
C562 C300 1.448 . S
C560 C261 1.445 . S
C573 C362 1.449 . S
C571 C78 1.465 . S
C582 C132 1.484 . S
C584 C292 1.458 . S
C595 C314 1.475 . S
C593 C165 1.474 . S
C604 C222 1.466 . S
C606 C328 1.473 . S
C615 C276 1.521 . S
C617 C334 1.495 . S
C626 C21 1.502 . S
C628 C348 1.481 . S
