# Generated by pormake.
# Topology tsx, (6,3)-cn, num edge types: 1
# Building blocks:
#     Node 0, Type 0, BuildingBlock: VOLQOD_clean_sbu_1, # of connection points: 6
#     Node 1, Type 0, BuildingBlock: VOLQOD_clean_sbu_1, # of connection points: 6
#     Node 2, Type 1, BuildingBlock: MIDCAF_clean_linker_0, # of connection points: 3
#     Node 3, Type 1, BuildingBlock: MIDCAF_clean_linker_0, # of connection points: 3
#     Node 4, Type 1, BuildingBlock: MIDCAF_clean_linker_0, # of connection points: 3
#     Node 5, Type 1, BuildingBlock: MIDCAF_clean_linker_0, # of connection points: 3
#     Edge 6, Type (0, 1), BuildingBlock: XIVTED_clean_linker_0, # of connection points: 2
#     Edge 7, Type (0, 1), BuildingBlock: XIVTED_clean_linker_0, # of connection points: 2
#     Edge 8, Type (0, 1), BuildingBlock: XIVTED_clean_linker_0, # of connection points: 2
#     Edge 9, Type (0, 1), BuildingBlock: XIVTED_clean_linker_0, # of connection points: 2
#     Edge 10, Type (0, 1), BuildingBlock: XIVTED_clean_linker_0, # of connection points: 2
#     Edge 11, Type (0, 1), BuildingBlock: XIVTED_clean_linker_0, # of connection points: 2
#     Edge 12, Type (0, 1), BuildingBlock: XIVTED_clean_linker_0, # of connection points: 2
#     Edge 13, Type (0, 1), BuildingBlock: XIVTED_clean_linker_0, # of connection points: 2
#     Edge 14, Type (0, 1), BuildingBlock: XIVTED_clean_linker_0, # of connection points: 2
#     Edge 15, Type (0, 1), BuildingBlock: XIVTED_clean_linker_0, # of connection points: 2
#     Edge 16, Type (0, 1), BuildingBlock: XIVTED_clean_linker_0, # of connection points: 2
#     Edge 17, Type (0, 1), BuildingBlock: XIVTED_clean_linker_0, # of connection points: 2
# Relax obj value: 0.076
# Max RMSD: 0.108
# Mean RMSD: 0.083
data_MOF--net-tsx--node1-VOLQOD_clean_sbu_1--node2-MIDCAF_clean_linker_0--edge1-XIVTED_clean_linker_0
_symmetry_space_group_name_H-M    P1
_symmetry_Int_Tables_number       1
_symmetry_cell_setting            triclinic
loop_
_symmetry_equiv_pos_as_xyz
'x, y, z'
_cell_length_a     24.849245
_cell_length_b     25.751865
_cell_length_c     49.188629
_cell_angle_alpha  90.386031
_cell_angle_beta   90.020715
_cell_angle_gamma 90.366132
loop_
_atom_site_label
_atom_site_type_symbol
_atom_site_fract_x
_atom_site_fract_y
_atom_site_fract_z
_atom_type_partial_charge
O0 O 0.0563 0.03768 0.07199 0.0
Zn1 Zn 0.06188 0.03752 0.03086 0.0
O2 O 0.99223 0.04868 0.0136 0.0
Zn3 Zn 0.97732 0.99231 0.98834 0.0
Zn4 Zn 0.93734 0.04853 0.04155 0.0
Zn5 Zn 0.99101 0.11454 0.99393 0.0
O6 O 0.95947 0.01822 0.95137 0.0
O7 O 0.97746 0.10265 0.95353 0.0
O8 O 0.09643 0.9711 0.01801 0.0
O9 O 0.04195 0.94735 0.98428 0.0
O10 O 0.91823 0.9454 0.00155 0.0
O11 O 0.89593 0.98123 0.0411 0.0
O12 O 0.88636 0.10756 0.03634 0.0
O13 O 0.11181 0.09557 0.02059 0.0
O14 O 0.92963 0.15899 0.00737 0.0
O15 O 0.06202 0.15272 0.99817 0.0
C16 C 0.01715 0.04789 0.08784 0.0
C17 C 0.9634 0.06233 0.94004 0.0
C18 C 0.89138 0.9449 0.02356 0.0
C19 C 0.08477 0.94137 0.99805 0.0
C20 C 0.88994 0.14976 0.02309 0.0
C21 C 0.10678 0.13875 0.0084 0.0
O22 O 0.97 0.05551 0.07864 0.0
O23 O 0.55224 0.45106 0.57768 0.0
Zn24 Zn 0.57983 0.45074 0.53918 0.0
O25 O 0.52126 0.46249 0.5135 0.0
Zn26 Zn 0.50591 0.39894 0.49287 0.0
Zn27 Zn 0.45727 0.48448 0.5334 0.0
Zn28 Zn 0.54264 0.51661 0.48832 0.0
O29 O 0.5134 0.4105 0.45239 0.0
O30 O 0.55041 0.4891 0.45029 0.0
O31 O 0.61476 0.38167 0.53205 0.0
O32 O 0.55959 0.34364 0.50233 0.0
O33 O 0.43098 0.37221 0.50041 0.0
O34 O 0.39639 0.43419 0.52659 0.0
O35 O 0.4322 0.5553 0.52167 0.0
O36 O 0.63639 0.50736 0.53655 0.0
O37 O 0.48745 0.57302 0.48746 0.0
O38 O 0.61166 0.5508 0.49985 0.0
C39 C 0.50882 0.46741 0.58841 0.0
C40 C 0.5345 0.44731 0.43879 0.0
C41 C 0.39175 0.39128 0.51374 0.0
C42 C 0.60123 0.34267 0.51745 0.0
C43 C 0.44728 0.5846 0.50231 0.0
C44 C 0.64387 0.54392 0.51959 0.0
O45 O 0.47027 0.48421 0.57389 0.0
C46 C 0.86847 0.0767 0.4366 0.0
C47 C 0.87131 0.08219 0.465 0.0
C48 C 0.91747 0.06483 0.47864 0.0
C49 C 0.96037 0.04339 0.46405 0.0
H50 H 0.082 0.9205 0.46331 0.0
H51 H 0.14958 0.86221 0.48142 0.0
H52 H 0.26186 0.91332 0.41981 0.0
H53 H 0.19323 0.96952 0.40093 0.0
H54 H 0.13662 0.00529 0.34323 0.0
H55 H 0.13795 0.01728 0.29415 0.0
H56 H 0.96746 0.0497 0.29545 0.0
H57 H 0.96659 0.0397 0.34444 0.0
H58 H 0.90804 0.05312 0.40011 0.0
H59 H 0.83382 0.0904 0.42543 0.0
H60 H 0.92065 0.06837 0.50054 0.0
H61 H 0.99579 0.03121 0.47508 0.0
N62 N 0.04577 0.9954 0.43201 0.0
N63 N 0.09108 0.98854 0.39027 0.0
N64 N 0.00719 0.02919 0.39244 0.0
C65 C 0.08904 0.97925 0.41741 0.0
C66 C 0.05019 0.01336 0.37761 0.0
C67 C 0.00479 0.02071 0.41964 0.0
C68 C 0.1321 0.94903 0.43048 0.0
C69 C 0.12134 0.91966 0.45384 0.0
C70 C 0.16029 0.88639 0.46432 0.0
C71 C 0.21115 0.88242 0.45191 0.0
C72 C 0.22271 0.91417 0.42946 0.0
C73 C 0.18348 0.94669 0.41871 0.0
C74 C 0.05152 0.02159 0.34782 0.0
C75 C 0.09947 0.0152 0.33304 0.0
C76 C 0.10017 0.02181 0.30484 0.0
C77 C 0.05283 0.03449 0.29072 0.0
C78 C 0.00496 0.04098 0.3056 0.0
C79 C 0.00438 0.03492 0.33378 0.0
C80 C 0.95812 0.03955 0.43551 0.0
C81 C 0.91136 0.05577 0.42203 0.0
C82 C 0.86326 0.85528 0.60464 0.0
C83 C 0.8697 0.84433 0.57683 0.0
C84 C 0.8954 0.88127 0.5603 0.0
C85 C 0.91432 0.92813 0.57141 0.0
H86 H 0.00711 0.05902 0.55423 0.0
H87 H 0.06616 0.11781 0.52915 0.0
H88 H 0.07607 0.21877 0.59951 0.0
H89 H 0.0168 0.16112 0.62431 0.0
H90 H 0.9927 0.11277 0.68242 0.0
H91 H 0.98819 0.1211 0.73169 0.0
H92 H 0.86555 0.00142 0.73386 0.0
H93 H 0.87132 0.99186 0.68476 0.0
H94 H 0.87598 0.9089 0.63724 0.0
H95 H 0.84273 0.82812 0.61785 0.0
H96 H 0.90121 0.87383 0.5388 0.0
H97 H 0.93404 0.9557 0.55812 0.0
N98 N 0.95557 0.02335 0.59617 0.0
N99 N 0.96706 0.07684 0.63458 0.0
N100 N 0.91983 -0.00166 0.63825 0.0
C101 C 0.97518 0.06781 0.60763 0.0
C102 C 0.93927 0.04241 0.65 0.0
C103 C 0.92775 0.98841 0.61139 0.0
C104 C 0.0075 0.105 0.59143 0.0
C105 C 0.02143 0.09404 0.56426 0.0
C106 C 0.05543 0.1276 0.54989 0.0
C107 C 0.07587 0.17292 0.56233 0.0
C108 C 0.06046 0.18461 0.58915 0.0
C109 C 0.02672 0.15116 0.60349 0.0
C110 C 0.93285 0.05118 0.67963 0.0
C111 C 0.96442 0.08853 0.69337 0.0
C112 C 0.96162 0.09353 0.72166 0.0
C113 C 0.9269 0.06157 0.73682 0.0
C114 C 0.89366 0.02584 0.72291 0.0
C115 C 0.89679 0.02053 0.69469 0.0
C116 C 0.90768 0.93908 0.59927 0.0
C117 C 0.88196 0.90199 0.61572 0.0
C118 C 0.30209 0.61515 0.91998 0.0
C119 C 0.31576 0.64097 0.94433 0.0
C120 C 0.35936 0.62263 0.95969 0.0
C121 C 0.3892 0.58015 0.95059 0.0
H122 H 0.51332 0.47959 0.97167 0.0
H123 H 0.57652 0.43365 0.001 0.0
H124 H 0.57868 0.30545 0.94404 0.0
H125 H 0.51649 0.35144 0.91446 0.0
H126 H 0.5266 0.42455 0.84837 0.0
H127 H 0.53589 0.42186 0.79911 0.0
H128 H 0.37519 0.48328 0.79073 0.0
H129 H 0.36707 0.48816 0.83991 0.0
H130 H 0.32106 0.55466 0.8917 0.0
H131 H 0.26791 0.62729 0.90798 0.0
H132 H 0.3714 0.64188 0.97838 0.0
H133 H 0.4232 0.56759 0.9626 0.0
N134 N 0.44267 0.48612 0.93202 0.0
N135 N 0.47532 0.43788 0.89493 0.0
N136 N 0.41047 0.50219 0.88812 0.0
C137 C 0.47488 0.44808 0.9221 0.0
C138 C 0.44314 0.46491 0.87782 0.0
C139 C 0.41009 0.51305 0.91515 0.0
C140 C 0.51036 0.41923 0.94065 0.0
C141 C 0.52693 0.4414 0.96553 0.0
C142 C 0.56303 0.41527 0.9823 0.0
C143 C 0.58205 0.36608 0.97477 0.0
C144 C 0.56403 0.34316 0.95041 0.0
C145 C 0.52888 0.36967 0.93338 0.0
C146 C 0.4463 0.45702 0.84804 0.0
C147 C 0.49306 0.43693 0.83598 0.0
C148 C 0.49828 0.43524 0.80767 0.0
C149 C 0.45654 0.45293 0.7908 0.0
C150 C 0.40879 0.47067 0.80299 0.0
C151 C 0.40392 0.47309 0.83124 0.0
C152 C 0.37644 0.55557 0.9258 0.0
C153 C 0.33233 0.57323 0.91071 0.0
C154 C 0.40493 0.37142 0.08218 0.0
C155 C 0.41438 0.36175 0.0545 0.0
C156 C 0.46475 0.37426 0.04329 0.0
C157 C 0.50472 0.39723 0.05956 0.0
H158 H 0.63409 0.51093 0.05711 0.0
H159 H 0.68863 0.58251 0.03952 0.0
H160 H 0.70833 0.6423 0.12133 0.0
H161 H 0.65657 0.57039 0.13879 0.0
H162 H 0.61371 0.514 0.18734 0.0
H163 H 0.60869 0.50569 0.23623 0.0
H164 H 0.51913 0.36214 0.22692 0.0
H165 H 0.52229 0.3717 0.17761 0.0
H166 H 0.43633 0.40024 0.11977 0.0
H167 H 0.36661 0.36136 0.09132 0.0
H168 H 0.47291 0.36672 0.022 0.0
H169 H 0.54313 0.40712 0.05051 0.0
N170 N 0.57154 0.46657 0.09398 0.0
N171 N 0.60492 0.485 0.13758 0.0
N172 N 0.53569 0.42393 0.13208 0.0
C173 C 0.60601 0.4934 0.11039 0.0
C174 C 0.5703 0.45016 0.14861 0.0
C175 C 0.5362 0.43186 0.10476 0.0
C176 C 0.64109 0.5348 0.09936 0.0
C177 C 0.65063 0.53918 0.07129 0.0
C178 C 0.68162 0.58037 0.0612 0.0
C179 C 0.70315 0.61823 0.07898 0.0
C180 C 0.6937 0.61336 0.10702 0.0
C181 C 0.66353 0.57206 0.11707 0.0
C182 C 0.56846 0.44347 0.17848 0.0
C183 C 0.59313 0.48045 0.19562 0.0
C184 C 0.59055 0.47547 0.22379 0.0
C185 C 0.56387 0.43299 0.23567 0.0
C186 C 0.53947 0.3957 0.21853 0.0
C187 C 0.54152 0.40102 0.19024 0.0
C188 C 0.49521 0.40657 0.08737 0.0
C189 C 0.44504 0.39314 0.09849 0.0
H190 H 0.21257 0.11217 0.01091 0.0
H191 H 0.3109 0.39318 0.04771 0.0
H192 H 0.10845 0.24469 0.00289 0.0
H193 H 0.42119 0.2718 0.02518 0.0
H194 H 0.23663 0.3417 0.02868 0.0
H195 H 0.29 0.17064 0.01383 0.0
C196 C 0.20608 0.15363 0.00953 0.0
C197 C 0.15397 0.17371 0.00704 0.0
C198 C 0.27718 0.32675 0.02734 0.0
C199 C 0.2424 0.24085 0.0106 0.0
C200 C 0.31944 0.35606 0.03821 0.0
C201 C 0.37187 0.33629 0.03815 0.0
C202 C 0.28739 0.27687 0.01696 0.0
C203 C 0.38119 0.28822 0.02559 0.0
C204 C 0.25035 0.18697 0.01101 0.0
C205 C 0.14795 0.22767 0.00497 0.0
N206 N 0.3391 0.25957 0.01596 0.0
N207 N 0.19161 0.2595 0.0073 0.0
H208 H 0.09214 0.89317 0.94886 0.0
H209 H 0.28813 0.67045 0.99643 0.0
H210 H 0.16081 0.89349 0.02951 0.0
H211 H 0.27393 0.71788 0.91264 0.0
H212 H 0.23546 0.74629 0.01008 0.0
H213 H 0.15139 0.82194 0.93619 0.0
C214 C 0.11971 0.87819 0.96392 0.0
C215 C 0.12155 0.89914 0.99029 0.0
C216 C 0.24421 0.74 0.98875 0.0
C217 C 0.18916 0.81744 0.97595 0.0
C218 C 0.27439 0.69688 0.98091 0.0
C219 C 0.28512 0.68735 0.95328 0.0
C220 C 0.2241 0.77333 0.96879 0.0
C221 C 0.26557 0.72271 0.93409 0.0
C222 C 0.15368 0.83775 0.95662 0.0
C223 C 0.15831 0.87848 0.00893 0.0
N224 N 0.23566 0.76384 0.9422 0.0
N225 N 0.19047 0.8383 0.00147 0.0
H226 H 0.84612 0.87415 0.98829 0.0
H227 H 0.78988 0.66734 0.10249 0.0
H228 H 0.86401 0.90957 0.07374 0.0
H229 H 0.68677 0.67335 0.03181 0.0
H230 H 0.83264 0.74805 0.08825 0.0
H231 H 0.80009 0.79268 0.00032 0.0
C232 C 0.83998 0.86499 0.00953 0.0
C233 C 0.85875 0.89861 0.03008 0.0
C234 C 0.80067 0.73152 0.07589 0.0
C235 C 0.80789 0.80555 0.04377 0.0
C236 C 0.77605 0.68553 0.08401 0.0
C237 C 0.73375 0.66383 0.06865 0.0
C238 C 0.78386 0.75558 0.05192 0.0
C239 C 0.71924 0.6884 0.04428 0.0
C240 C 0.81381 0.81868 0.01631 0.0
C241 C 0.84986 0.88496 0.05727 0.0
N242 N 0.74429 0.73311 0.03664 0.0
N243 N 0.82568 0.83911 0.06333 0.0
H244 H 0.78782 0.13242 0.0418 0.0
H245 H 0.67807 0.40637 0.99168 0.0
H246 H 0.88905 0.25129 0.00672 0.0
H247 H 0.5816 0.26667 0.99365 0.0
H248 H 0.75374 0.3581 0.01091 0.0
H249 H 0.7106 0.19015 0.03762 0.0
C250 C 0.79404 0.17096 0.03365 0.0
C251 C 0.84484 0.18681 0.0242 0.0
C252 C 0.71568 0.33833 0.00756 0.0
C253 C 0.75676 0.25289 0.01957 0.0
C254 C 0.67253 0.36583 0.9968 0.0
C255 C 0.624 0.34011 0.99086 0.0
C256 C 0.7098 0.28505 0.01266 0.0
C257 C 0.61875 0.28756 0.99766 0.0
C258 C 0.74991 0.20374 0.03121 0.0
C259 C 0.85047 0.23723 0.01388 0.0
N260 N 0.66135 0.26157 0.00805 0.0
N261 N 0.80682 0.26842 0.01166 0.0
H262 H 0.67153 0.62694 0.48788 0.0
H263 H 0.87334 0.74656 0.59847 0.0
H264 H 0.71618 0.54858 0.56183 0.0
H265 H 0.8154 0.83037 0.52875 0.0
H266 H 0.82733 0.66859 0.58171 0.0
H267 H 0.73573 0.69595 0.49878 0.0
C268 C 0.69524 0.62386 0.50628 0.0
C269 C 0.68782 0.58212 0.52416 0.0
C270 C 0.82509 0.7039 0.56994 0.0
C271 C 0.76133 0.66142 0.53681 0.0
C272 C 0.85115 0.7485 0.57955 0.0
C273 C 0.84758 0.7953 0.56519 0.0
C274 C 0.79509 0.70604 0.54579 0.0
C275 C 0.81935 0.79518 0.54047 0.0
C276 C 0.73188 0.66342 0.5125 0.0
C277 C 0.72013 0.58018 0.54755 0.0
N278 N 0.79373 0.75139 0.5317 0.0
N279 N 0.75506 0.61956 0.55334 0.0
H280 H 0.69875 0.32929 0.54261 0.0
H281 H 0.76239 0.07108 0.45836 0.0
H282 H 0.58475 0.25115 0.48986 0.0
H283 H 0.8812 0.15655 0.50479 0.0
H284 H 0.69249 0.12746 0.4768 0.0
H285 H 0.7613 0.25756 0.53592 0.0
C286 C 0.68654 0.29681 0.52988 0.0
C287 C 0.63668 0.29671 0.51643 0.0
C288 C 0.73374 0.1335 0.48325 0.0
C289 C 0.70825 0.21453 0.50865 0.0
C290 C 0.77366 0.10138 0.47269 0.0
C291 C 0.82779 0.10971 0.4797 0.0
C292 C 0.74805 0.17449 0.50084 0.0
C293 C 0.83999 0.14879 0.4988 0.0
C294 C 0.72235 0.25587 0.52606 0.0
C295 C 0.623 0.25331 0.50036 0.0
N296 N 0.80051 0.18023 0.50841 0.0
N297 N 0.65879 0.21427 0.49671 0.0
H298 H 0.29604 0.42421 0.53505 0.0
H299 H 0.16161 0.14273 0.53101 0.0
H300 H 0.37028 0.29162 0.4965 0.0
H301 H 0.0822 0.27926 0.56223 0.0
H302 H 0.23435 0.19781 0.51394 0.0
H303 H 0.2142 0.37315 0.54142 0.0
C304 C 0.29507 0.38443 0.52775 0.0
C305 C 0.34041 0.36202 0.51549 0.0
C306 C 0.2007 0.21579 0.52424 0.0
C307 C 0.24661 0.30312 0.52287 0.0
C308 C 0.15893 0.18438 0.53383 0.0
C309 C 0.11604 0.20634 0.5484 0.0
C310 C 0.19972 0.26951 0.52936 0.0
C311 C 0.11505 0.26053 0.55165 0.0
C312 C 0.24818 0.35529 0.53135 0.0
C313 C 0.33646 0.31044 0.50621 0.0
N314 N 0.15653 0.29016 0.54249 0.0
N315 N 0.29058 0.28256 0.51036 0.0
H316 H 0.45657 0.6468 0.45776 0.0
H317 H 0.23154 0.84876 0.5041 0.0
H318 H 0.36849 0.6312 0.533 0.0
H319 H 0.28024 0.82484 0.42063 0.0
H320 H 0.29188 0.77879 0.51772 0.0
H321 H 0.40315 0.72291 0.44684 0.0
C322 C 0.42621 0.6595 0.47209 0.0
C323 C 0.41674 0.63227 0.49626 0.0
C324 C 0.28941 0.78926 0.49647 0.0
C325 C 0.35553 0.71962 0.48383 0.0
C326 C 0.25484 0.82903 0.48862 0.0
C327 C 0.25051 0.84289 0.46111 0.0
C328 C 0.32029 0.76356 0.47672 0.0
C329 C 0.2827 0.81644 0.44211 0.0
C330 C 0.39563 0.70291 0.46577 0.0
C331 C 0.37686 0.65075 0.51403 0.0
N332 N 0.3161 0.77813 0.45028 0.0
N333 N 0.34762 0.69333 0.50745 0.0
H334 H 0.95214 0.09178 0.12623 0.0
H335 H 0.10974 0.97793 0.25282 0.0
H336 H 0.10164 0.00889 0.11724 0.0
H337 H 0.99578 0.10333 0.25965 0.0
H338 H 0.10532 0.98489 0.20335 0.0
H339 H 0.96446 0.09189 0.17542 0.0
C340 C 0.98767 0.07368 0.1346 0.0
C341 C 0.02585 0.05013 0.11758 0.0
C342 C 0.08159 0.01105 0.21574 0.0
C343 C 0.03998 0.04985 0.17399 0.0
C344 C 0.08425 0.00732 0.24402 0.0
C345 C 0.05281 0.03988 0.26059 0.0
C346 C 0.0468 0.04715 0.20388 0.0
C347 C 0.01986 0.07658 0.24783 0.0
C348 C 0.99477 0.07396 0.1627 0.0
C349 C 0.07126 0.02757 0.1296 0.0
N350 N 0.01742 0.07892 0.22029 0.0
N351 N 0.07684 0.02756 0.15712 0.0
H352 H 0.9708 0.14789 0.90674 0.0
H353 H 0.91937 0.97981 0.77186 0.0
H354 H 0.93295 0.98392 0.90565 0.0
H355 H 0.93699 0.14674 0.77088 0.0
H356 H 0.92349 0.98194 0.82118 0.0
H357 H 0.95813 0.14971 0.85729 0.0
C358 C 0.95958 0.11239 0.89619 0.0
C359 C 0.95324 0.06563 0.91042 0.0
C360 C 0.92617 0.01823 0.81025 0.0
C361 C 0.93892 0.06745 0.85395 0.0
C362 C 0.9234 0.01709 0.78199 0.0
C363 C 0.92754 0.0632 0.76707 0.0
C364 C 0.93358 0.06579 0.82391 0.0
C365 C 0.93419 0.11015 0.78149 0.0
C366 C 0.95236 0.11347 0.86797 0.0
C367 C 0.93858 0.02087 0.89564 0.0
N368 N 0.93717 0.11024 0.80912 0.0
N369 N 0.9322 0.0229 0.8683 0.0
H370 H 0.56933 0.41353 0.62514 0.0
H371 H 0.41916 0.52664 0.75546 0.0
H372 H 0.43376 0.51705 0.61983 0.0
H373 H 0.51049 0.38445 0.75729 0.0
H374 H 0.43152 0.52998 0.70638 0.0
H375 H 0.55659 0.40947 0.6744 0.0
C376 C 0.53704 0.43559 0.63432 0.0
C377 C 0.50251 0.46566 0.61831 0.0
C378 C 0.44867 0.49797 0.71754 0.0
C379 C 0.48795 0.46126 0.67464 0.0
C380 C 0.44133 0.49574 0.74561 0.0
C381 C 0.46346 0.45493 0.76072 0.0
C382 C 0.479 0.45958 0.70439 0.0
C383 C 0.49319 0.41701 0.74668 0.0
C384 C 0.52966 0.43301 0.66241 0.0
C385 C 0.46121 0.49322 0.63134 0.0
N386 N 0.50024 0.42036 0.71933 0.0
N387 N 0.45523 0.49053 0.65875 0.0
H388 H 0.60291 0.50091 0.40573 0.0
H389 H 0.47982 0.39673 0.26701 0.0
H390 H 0.48042 0.38128 0.4041 0.0
H391 H 0.64112 0.45932 0.27336 0.0
H392 H 0.47429 0.39569 0.31667 0.0
H393 H 0.61182 0.4929 0.35646 0.0
C394 C 0.57786 0.47294 0.395 0.0
C395 C 0.54081 0.44175 0.40903 0.0
C396 C 0.51094 0.40931 0.30709 0.0
C397 C 0.5506 0.43269 0.3526 0.0
C398 C 0.51431 0.4097 0.27874 0.0
C399 C 0.56086 0.42864 0.26582 0.0
C400 C 0.55407 0.42865 0.32263 0.0
C401 C 0.60387 0.44563 0.28226 0.0
C402 C 0.5832 0.46821 0.3669 0.0
C403 C 0.50962 0.40595 0.39407 0.0
N404 N 0.59922 0.44571 0.30975 0.0
N405 N 0.51485 0.40271 0.36658 0.0
loop_
_geom_bond_atom_site_label_1
_geom_bond_atom_site_label_2
_geom_bond_distance
_geom_bond_site_symmetry_2
_ccdc_geom_bond_type
O0 Zn1 1.953 . S
O0 C16 1.225 1_565 S
Zn1 O0 1.953 . S
Zn1 O2 1.949 1_565 S
Zn1 O8 1.919 . S
Zn1 O13 1.924 1_565 S
O2 Zn1 1.949 1_545 S
O2 Zn3 1.923 1_444 S
O2 Zn4 1.950 1_455 S
O2 Zn5 1.945 1_554 S
Zn3 O2 1.923 1_666 S
Zn3 O6 1.933 . S
Zn3 O9 1.941 1_655 S
Zn3 O10 1.959 1_556 S
Zn4 O2 1.950 1_655 S
Zn4 O11 1.938 1_545 S
Zn4 O12 1.906 . S
Zn4 O22 1.953 . S
Zn5 O2 1.945 1_556 S
Zn5 O7 1.932 . S
Zn5 O14 1.977 1_455 S
Zn5 O15 1.910 1_556 S
O6 Zn3 1.933 . S
O6 C17 1.226 1_665 S
O7 Zn5 1.932 . S
O7 C17 1.307 . S
O8 Zn1 1.919 . S
O8 C19 1.253 . S
O9 Zn3 1.941 1_455 S
O9 C19 1.283 1_556 S
O10 Zn3 1.959 1_554 S
O10 C18 1.325 . S
O11 Zn4 1.938 1_565 S
O11 C18 1.247 . S
O12 Zn4 1.906 . S
O12 C20 1.304 . S
O13 Zn1 1.924 1_545 S
O13 C21 1.311 . S
O14 Zn5 1.977 1_655 S
O14 C20 1.272 1_556 S
O15 Zn5 1.910 1_554 S
O15 C21 1.231 . S
C16 O0 1.225 1_545 S
C16 O22 1.298 1_455 S
C17 O6 1.226 1_445 S
C17 O7 1.307 . S
C18 O10 1.325 . S
C18 O11 1.247 . S
C19 O8 1.253 . S
C19 O9 1.283 1_554 S
C20 O12 1.304 . S
C20 O14 1.272 1_554 S
C21 O13 1.311 . S
C21 O15 1.231 . S
O22 Zn4 1.953 . S
O22 C16 1.298 1_655 S
O23 Zn24 1.953 . S
O23 C39 1.225 . S
Zn24 O23 1.953 . S
Zn24 O25 1.949 . S
Zn24 O31 1.919 . S
Zn24 O36 1.924 . S
O25 Zn24 1.949 . S
O25 Zn26 1.923 . S
O25 Zn27 1.950 . S
O25 Zn28 1.945 . S
Zn26 O25 1.923 . S
Zn26 O29 1.933 . S
Zn26 O32 1.941 . S
Zn26 O33 1.965 . S
Zn27 O25 1.950 . S
Zn27 O34 1.938 . S
Zn27 O35 1.906 . S
Zn27 O45 1.953 . S
Zn28 O25 1.945 . S
Zn28 O30 1.932 . S
Zn28 O37 1.977 . S
Zn28 O38 1.910 . S
O29 Zn26 1.933 . S
O29 C40 1.226 . S
O30 Zn28 1.932 . S
O30 C40 1.307 . S
O31 Zn24 1.919 . S
O31 C42 1.253 . S
O32 Zn26 1.941 . S
O32 C42 1.283 . S
O33 Zn26 1.965 . S
O33 C41 1.303 . S
O34 Zn27 1.938 . S
O34 C41 1.247 . S
O35 Zn27 1.906 . S
O35 C43 1.304 . S
O36 Zn24 1.924 . S
O36 C44 1.311 . S
O37 Zn28 1.977 . S
O37 C43 1.272 . S
O38 Zn28 1.910 . S
O38 C44 1.231 . S
C39 O23 1.225 . S
C39 O45 1.298 . S
C40 O29 1.226 . S
C40 O30 1.307 . S
C41 O33 1.303 . S
C41 O34 1.247 . S
C42 O31 1.253 . S
C42 O32 1.283 . S
C43 O35 1.304 . S
C43 O37 1.272 . S
C44 O36 1.311 . S
C44 O38 1.231 . S
O45 Zn27 1.953 . S
O45 C39 1.298 . S
C46 C47 1.384 . S
C46 H59 0.947 . S
C46 C81 1.382 . S
C47 C46 1.384 . S
C47 C48 1.378 . S
C48 C47 1.378 . S
C48 C49 1.378 . S
C48 H60 0.952 . S
C49 C48 1.378 . S
C49 H61 0.950 . S
C49 C80 1.383 . S
H50 C69 0.947 . S
H51 C70 0.946 . S
H52 C72 0.953 . S
H53 C73 0.945 . S
H54 C75 0.952 . S
H55 C76 0.949 . S
H56 C78 0.950 . S
H57 C79 0.948 . S
H58 C81 0.951 . S
H59 C46 0.947 . S
H60 C48 0.952 . S
H61 C49 0.950 . S
N62 C65 1.382 1_545 S
N62 C67 1.363 1_455 S
N63 C65 1.371 . S
N63 C66 1.372 1_565 S
N64 C66 1.361 1_655 S
N64 C67 1.377 . S
C65 N62 1.382 1_565 S
C65 N63 1.371 . S
C65 C68 1.480 . S
C66 N63 1.372 1_545 S
C66 N64 1.361 1_455 S
C66 C74 1.457 . S
C67 N62 1.363 1_655 S
C67 N64 1.377 . S
C67 C80 1.479 . S
C68 C65 1.480 . S
C68 C69 1.383 . S
C68 C73 1.385 . S
C69 H50 0.947 . S
C69 C68 1.383 . S
C69 C70 1.388 . S
C70 H51 0.946 . S
C70 C69 1.388 . S
C70 C71 1.384 . S
C71 C70 1.384 . S
C71 C72 1.377 . S
C72 H52 0.953 . S
C72 C71 1.377 . S
C72 C73 1.369 . S
C73 H53 0.945 . S
C73 C68 1.385 . S
C73 C72 1.369 . S
C74 C66 1.457 . S
C74 C75 1.372 1_545 S
C74 C79 1.364 1_455 S
C75 H54 0.952 . S
C75 C74 1.372 1_565 S
C75 C76 1.389 . S
C76 H55 0.949 . S
C76 C75 1.389 . S
C76 C77 1.387 1_565 S
C77 C76 1.387 1_545 S
C77 C78 1.372 1_455 S
C78 H56 0.950 . S
C78 C77 1.372 1_655 S
C78 C79 1.379 . S
C79 H57 0.948 . S
C79 C74 1.364 1_655 S
C79 C78 1.379 . S
C80 C49 1.383 . S
C80 C67 1.479 . S
C80 C81 1.398 . S
C81 C46 1.382 . S
C81 H58 0.951 . S
C81 C80 1.398 . S
C82 C83 1.384 . S
C82 H95 0.947 . S
C82 C117 1.382 . S
C83 C82 1.384 . S
C83 C84 1.378 . S
C84 C83 1.378 . S
C84 C85 1.378 . S
C84 H96 0.952 . S
C85 C84 1.378 . S
C85 H97 0.950 . S
C85 C116 1.383 . S
H86 C105 0.947 . S
H87 C106 0.946 . S
H88 C108 0.953 . S
H89 C109 0.945 . S
H90 C111 0.952 . S
H91 C112 0.949 . S
H92 C114 0.950 . S
H93 C115 0.948 . S
H94 C117 0.951 . S
H95 C82 0.947 . S
H96 C84 0.952 . S
H97 C85 0.950 . S
N98 C101 1.382 1_565 S
N98 C103 1.363 1_455 S
N99 C101 1.371 . S
N99 C102 1.372 1_545 S
N100 C102 1.361 1_655 S
N100 C103 1.377 . S
C101 N98 1.382 1_545 S
C101 N99 1.371 . S
C101 C104 1.480 . S
C102 N99 1.372 1_565 S
C102 N100 1.361 1_455 S
C102 C110 1.457 . S
C103 N98 1.363 1_655 S
C103 N100 1.377 . S
C103 C116 1.479 . S
C104 C101 1.480 . S
C104 C105 1.383 . S
C104 C109 1.385 . S
C105 H86 0.947 . S
C105 C104 1.383 . S
C105 C106 1.388 . S
C106 H87 0.946 . S
C106 C105 1.388 . S
C106 C107 1.384 . S
C107 C106 1.384 . S
C107 C108 1.377 . S
C108 H88 0.953 . S
C108 C107 1.377 . S
C108 C109 1.369 . S
C109 H89 0.945 . S
C109 C104 1.385 . S
C109 C108 1.369 . S
C110 C102 1.457 . S
C110 C111 1.372 1_565 S
C110 C115 1.364 1_455 S
C111 H90 0.952 . S
C111 C110 1.372 1_545 S
C111 C112 1.389 . S
C112 H91 0.949 . S
C112 C111 1.389 . S
C112 C113 1.382 1_545 S
C113 C112 1.382 1_565 S
C113 C114 1.377 1_455 S
C114 H92 0.950 . S
C114 C113 1.377 1_655 S
C114 C115 1.379 . S
C115 H93 0.948 . S
C115 C110 1.364 1_655 S
C115 C114 1.379 . S
C116 C85 1.383 . S
C116 C103 1.479 . S
C116 C117 1.398 . S
C117 C82 1.382 . S
C117 H94 0.951 . S
C117 C116 1.398 . S
C118 C119 1.384 . S
C118 H131 0.947 . S
C118 C153 1.382 . S
C119 C118 1.384 . S
C119 C120 1.378 . S
C120 C119 1.378 . S
C120 C121 1.378 . S
C120 H132 0.952 . S
C121 C120 1.378 . S
C121 H133 0.950 . S
C121 C152 1.383 . S
H122 C141 0.947 . S
H123 C142 0.946 . S
H124 C144 0.953 . S
H125 C145 0.945 . S
H126 C147 0.952 . S
H127 C148 0.949 . S
H128 C150 0.950 . S
H129 C151 0.948 . S
H130 C153 0.951 . S
H131 C118 0.947 . S
H132 C120 0.952 . S
H133 C121 0.950 . S
N134 C137 1.382 . S
N134 C139 1.363 . S
N135 C137 1.371 . S
N135 C138 1.372 . S
N136 C138 1.361 . S
N136 C139 1.377 . S
C137 N134 1.382 . S
C137 N135 1.371 . S
C137 C140 1.480 . S
C138 N135 1.372 . S
C138 N136 1.361 . S
C138 C146 1.457 . S
C139 N134 1.363 . S
C139 N136 1.377 . S
C139 C152 1.479 . S
C140 C137 1.480 . S
C140 C141 1.383 . S
C140 C145 1.385 . S
C141 H122 0.947 . S
C141 C140 1.383 . S
C141 C142 1.388 . S
C142 H123 0.946 . S
C142 C141 1.388 . S
C142 C143 1.384 . S
C143 C142 1.384 . S
C143 C144 1.377 . S
C144 H124 0.953 . S
C144 C143 1.377 . S
C144 C145 1.369 . S
C145 H125 0.945 . S
C145 C140 1.385 . S
C145 C144 1.369 . S
C146 C138 1.457 . S
C146 C147 1.372 . S
C146 C151 1.364 . S
C147 H126 0.952 . S
C147 C146 1.372 . S
C147 C148 1.389 . S
C148 H127 0.949 . S
C148 C147 1.389 . S
C148 C149 1.387 . S
C149 C148 1.387 . S
C149 C150 1.372 . S
C150 H128 0.950 . S
C150 C149 1.372 . S
C150 C151 1.379 . S
C151 H129 0.948 . S
C151 C146 1.364 . S
C151 C150 1.379 . S
C152 C121 1.383 . S
C152 C139 1.479 . S
C152 C153 1.398 . S
C153 C118 1.382 . S
C153 H130 0.951 . S
C153 C152 1.398 . S
C154 C155 1.384 . S
C154 H167 0.947 . S
C154 C189 1.382 . S
C155 C154 1.384 . S
C155 C156 1.378 . S
C156 C155 1.378 . S
C156 C157 1.378 . S
C156 H168 0.952 . S
C157 C156 1.378 . S
C157 H169 0.950 . S
C157 C188 1.383 . S
H158 C177 0.947 . S
H159 C178 0.946 . S
H160 C180 0.953 . S
H161 C181 0.945 . S
H162 C183 0.952 . S
H163 C184 0.949 . S
H164 C186 0.950 . S
H165 C187 0.948 . S
H166 C189 0.951 . S
H167 C154 0.947 . S
H168 C156 0.952 . S
H169 C157 0.950 . S
N170 C173 1.382 . S
N170 C175 1.363 . S
N171 C173 1.371 . S
N171 C174 1.372 . S
N172 C174 1.361 . S
N172 C175 1.377 . S
C173 N170 1.382 . S
C173 N171 1.371 . S
C173 C176 1.480 . S
C174 N171 1.372 . S
C174 N172 1.361 . S
C174 C182 1.457 . S
C175 N170 1.363 . S
C175 N172 1.377 . S
C175 C188 1.479 . S
C176 C173 1.480 . S
C176 C177 1.383 . S
C176 C181 1.385 . S
C177 H158 0.947 . S
C177 C176 1.383 . S
C177 C178 1.388 . S
C178 H159 0.946 . S
C178 C177 1.388 . S
C178 C179 1.384 . S
C179 C178 1.384 . S
C179 C180 1.377 . S
C180 H160 0.953 . S
C180 C179 1.377 . S
C180 C181 1.369 . S
C181 H161 0.945 . S
C181 C176 1.385 . S
C181 C180 1.369 . S
C182 C174 1.457 . S
C182 C183 1.372 . S
C182 C187 1.364 . S
C183 H162 0.952 . S
C183 C182 1.372 . S
C183 C184 1.389 . S
C184 H163 0.949 . S
C184 C183 1.389 . S
C184 C185 1.387 . S
C185 C184 1.387 . S
C185 C186 1.372 . S
C186 H164 0.950 . S
C186 C185 1.372 . S
C186 C187 1.379 . S
C187 H165 0.948 . S
C187 C182 1.364 . S
C187 C186 1.379 . S
C188 C157 1.383 . S
C188 C175 1.479 . S
C188 C189 1.398 . S
C189 C154 1.382 . S
C189 H166 0.951 . S
C189 C188 1.398 . S
H190 C196 0.930 . S
H191 C200 0.930 . S
H192 C205 0.929 . S
H193 C203 0.929 . S
H194 C198 0.929 . S
H195 C204 0.929 . S
C196 H190 0.930 . S
C196 C197 1.367 . S
C196 C204 1.378 . S
C197 C196 1.367 . S
C197 C205 1.433 . S
C198 H194 0.929 . S
C198 C200 1.378 . S
C198 C202 1.350 . S
C199 C202 1.463 . S
C199 C204 1.350 . S
C199 N207 1.427 . S
C200 H191 0.930 . S
C200 C198 1.378 . S
C200 C201 1.367 . S
C201 C200 1.367 . S
C201 C203 1.433 . S
C202 C198 1.350 . S
C202 C199 1.463 . S
C202 N206 1.427 . S
C203 H193 0.929 . S
C203 C201 1.433 . S
C203 N206 1.384 . S
C204 H195 0.929 . S
C204 C196 1.378 . S
C204 C199 1.350 . S
C205 H192 0.929 . S
C205 C197 1.433 . S
C205 N207 1.384 . S
N206 C202 1.427 . S
N206 C203 1.384 . S
N207 C199 1.427 . S
N207 C205 1.384 . S
H208 C214 0.930 . S
H209 C218 0.930 1_554 S
H210 C223 0.929 . S
H211 C221 0.929 . S
H212 C216 0.929 1_554 S
H213 C222 0.929 . S
C214 H208 0.930 . S
C214 C215 1.367 . S
C214 C222 1.378 . S
C215 C214 1.367 . S
C215 C223 1.433 1_556 S
C216 H212 0.929 1_556 S
C216 C218 1.378 . S
C216 C220 1.350 . S
C217 C220 1.463 . S
C217 C222 1.350 . S
C217 N225 1.427 1_556 S
C218 H209 0.930 1_556 S
C218 C216 1.378 . S
C218 C219 1.367 . S
C219 C218 1.367 . S
C219 C221 1.433 . S
C220 C216 1.350 . S
C220 C217 1.463 . S
C220 N224 1.427 . S
C221 H211 0.929 . S
C221 C219 1.433 . S
C221 N224 1.384 . S
C222 H213 0.929 . S
C222 C214 1.378 . S
C222 C217 1.350 . S
C223 H210 0.929 . S
C223 C215 1.433 1_554 S
C223 N225 1.384 . S
N224 C220 1.427 . S
N224 C221 1.384 . S
N225 C217 1.427 1_554 S
N225 C223 1.384 . S
H226 C232 0.930 1_556 S
H227 C236 0.930 . S
H228 C241 0.929 . S
H229 C239 0.929 . S
H230 C234 0.929 . S
H231 C240 0.929 . S
C232 H226 0.930 1_554 S
C232 C233 1.367 . S
C232 C240 1.378 . S
C233 C232 1.367 . S
C233 C241 1.433 . S
C234 H230 0.929 . S
C234 C236 1.378 . S
C234 C238 1.350 . S
C235 C238 1.463 . S
C235 C240 1.350 . S
C235 N243 1.427 . S
C236 H227 0.930 . S
C236 C234 1.378 . S
C236 C237 1.367 . S
C237 C236 1.367 . S
C237 C239 1.433 . S
C238 C234 1.350 . S
C238 C235 1.463 . S
C238 N242 1.427 . S
C239 H229 0.929 . S
C239 C237 1.433 . S
C239 N242 1.384 . S
C240 H231 0.929 . S
C240 C232 1.378 . S
C240 C235 1.350 . S
C241 H228 0.929 . S
C241 C233 1.433 . S
C241 N243 1.384 . S
N242 C238 1.427 . S
N242 C239 1.384 . S
N243 C235 1.427 . S
N243 C241 1.384 . S
H244 C250 0.930 . S
H245 C254 0.930 . S
H246 C259 0.929 . S
H247 C257 0.929 . S
H248 C252 0.929 . S
H249 C258 0.929 . S
C250 H244 0.930 . S
C250 C251 1.367 . S
C250 C258 1.378 . S
C251 C250 1.367 . S
C251 C259 1.433 1_556 S
C252 H248 0.929 . S
C252 C254 1.378 . S
C252 C256 1.350 . S
C253 C256 1.463 . S
C253 C258 1.350 . S
C253 N261 1.427 . S
C254 H245 0.930 . S
C254 C252 1.378 . S
C254 C255 1.367 . S
C255 C254 1.367 . S
C255 C257 1.433 . S
C256 C252 1.350 . S
C256 C253 1.463 . S
C256 N260 1.427 . S
C257 H247 0.929 . S
C257 C255 1.433 . S
C257 N260 1.384 . S
C258 H249 0.929 . S
C258 C250 1.378 . S
C258 C253 1.350 . S
C259 H246 0.929 . S
C259 C251 1.433 1_554 S
C259 N261 1.384 1_554 S
N260 C256 1.427 . S
N260 C257 1.384 . S
N261 C253 1.427 . S
N261 C259 1.384 1_556 S
H262 C268 0.930 . S
H263 C272 0.930 . S
H264 C277 0.929 . S
H265 C275 0.929 . S
H266 C270 0.929 . S
H267 C276 0.929 . S
C268 H262 0.930 . S
C268 C269 1.367 . S
C268 C276 1.378 . S
C269 C268 1.367 . S
C269 C277 1.433 . S
C270 H266 0.929 . S
C270 C272 1.378 . S
C270 C274 1.350 . S
C271 C274 1.463 . S
C271 C276 1.350 . S
C271 N279 1.427 . S
C272 H263 0.930 . S
C272 C270 1.378 . S
C272 C273 1.367 . S
C273 C272 1.367 . S
C273 C275 1.433 . S
C274 C270 1.350 . S
C274 C271 1.463 . S
C274 N278 1.427 . S
C275 H265 0.929 . S
C275 C273 1.433 . S
C275 N278 1.384 . S
C276 H267 0.929 . S
C276 C268 1.378 . S
C276 C271 1.350 . S
C277 H264 0.929 . S
C277 C269 1.433 . S
C277 N279 1.384 . S
N278 C274 1.427 . S
N278 C275 1.384 . S
N279 C271 1.427 . S
N279 C277 1.384 . S
H280 C286 0.930 . S
H281 C290 0.930 . S
H282 C295 0.929 . S
H283 C293 0.929 . S
H284 C288 0.929 . S
H285 C294 0.929 . S
C286 H280 0.930 . S
C286 C287 1.367 . S
C286 C294 1.378 . S
C287 C286 1.367 . S
C287 C295 1.433 . S
C288 H284 0.929 . S
C288 C290 1.378 . S
C288 C292 1.350 . S
C289 C292 1.463 . S
C289 C294 1.350 . S
C289 N297 1.427 . S
C290 H281 0.930 . S
C290 C288 1.378 . S
C290 C291 1.367 . S
C291 C290 1.367 . S
C291 C293 1.433 . S
C292 C288 1.350 . S
C292 C289 1.463 . S
C292 N296 1.427 . S
C293 H283 0.929 . S
C293 C291 1.433 . S
C293 N296 1.384 . S
C294 H285 0.929 . S
C294 C286 1.378 . S
C294 C289 1.350 . S
C295 H282 0.929 . S
C295 C287 1.433 . S
C295 N297 1.384 . S
N296 C292 1.427 . S
N296 C293 1.384 . S
N297 C289 1.427 . S
N297 C295 1.384 . S
H298 C304 0.930 . S
H299 C308 0.930 . S
H300 C313 0.929 . S
H301 C311 0.929 . S
H302 C306 0.929 . S
H303 C312 0.929 . S
C304 H298 0.930 . S
C304 C305 1.367 . S
C304 C312 1.378 . S
C305 C304 1.367 . S
C305 C313 1.433 . S
C306 H302 0.929 . S
C306 C308 1.378 . S
C306 C310 1.350 . S
C307 C310 1.463 . S
C307 C312 1.350 . S
C307 N315 1.427 . S
C308 H299 0.930 . S
C308 C306 1.378 . S
C308 C309 1.367 . S
C309 C308 1.367 . S
C309 C311 1.433 . S
C310 C306 1.350 . S
C310 C307 1.463 . S
C310 N314 1.427 . S
C311 H301 0.929 . S
C311 C309 1.433 . S
C311 N314 1.384 . S
C312 H303 0.929 . S
C312 C304 1.378 . S
C312 C307 1.350 . S
C313 H300 0.929 . S
C313 C305 1.433 . S
C313 N315 1.384 . S
N314 C310 1.427 . S
N314 C311 1.384 . S
N315 C307 1.427 . S
N315 C313 1.384 . S
H316 C322 0.930 . S
H317 C326 0.930 . S
H318 C331 0.929 . S
H319 C329 0.929 . S
H320 C324 0.929 . S
H321 C330 0.929 . S
C322 H316 0.930 . S
C322 C323 1.367 . S
C322 C330 1.378 . S
C323 C322 1.367 . S
C323 C331 1.433 . S
C324 H320 0.929 . S
C324 C326 1.378 . S
C324 C328 1.350 . S
C325 C328 1.463 . S
C325 C330 1.350 . S
C325 N333 1.427 . S
C326 H317 0.930 . S
C326 C324 1.378 . S
C326 C327 1.367 . S
C327 C326 1.367 . S
C327 C329 1.433 . S
C328 C324 1.350 . S
C328 C325 1.463 . S
C328 N332 1.427 . S
C329 H319 0.929 . S
C329 C327 1.433 . S
C329 N332 1.384 . S
C330 H321 0.929 . S
C330 C322 1.378 . S
C330 C325 1.350 . S
C331 H318 0.929 . S
C331 C323 1.433 . S
C331 N333 1.384 . S
N332 C328 1.427 . S
N332 C329 1.384 . S
N333 C325 1.427 . S
N333 C331 1.384 . S
H334 C340 0.930 . S
H335 C344 0.930 . S
H336 C349 0.929 . S
H337 C347 0.929 . S
H338 C342 0.929 . S
H339 C348 0.929 . S
C340 H334 0.930 . S
C340 C341 1.367 1_655 S
C340 C348 1.378 . S
C341 C340 1.367 1_455 S
C341 C349 1.433 1_545 S
C342 H338 0.929 . S
C342 C344 1.378 . S
C342 C346 1.341 1_565 S
C343 C346 1.463 . S
C343 C348 1.350 1_455 S
C343 N351 1.427 1_545 S
C344 H335 0.930 . S
C344 C342 1.378 . S
C344 C345 1.379 . S
C345 C344 1.379 . S
C345 C347 1.421 1_465 S
C346 C342 1.341 1_545 S
C346 C343 1.463 . S
C346 N350 1.436 1_455 S
C347 H337 0.929 . S
C347 C345 1.421 1_645 S
C347 N350 1.384 . S
C348 H339 0.929 . S
C348 C340 1.378 . S
C348 C343 1.350 1_655 S
C349 H336 0.929 . S
C349 C341 1.433 1_565 S
C349 N351 1.384 . S
N350 C346 1.436 1_655 S
N350 C347 1.384 . S
N351 C343 1.427 1_565 S
N351 C349 1.384 . S
H352 C358 0.930 . S
H353 C362 0.930 . S
H354 C367 0.929 . S
H355 C365 0.929 . S
H356 C360 0.929 . S
H357 C366 0.929 . S
C358 H352 0.930 . S
C358 C359 1.367 . S
C358 C366 1.378 . S
C359 C358 1.367 . S
C359 C367 1.433 1_445 S
C360 H356 0.929 . S
C360 C362 1.378 . S
C360 C364 1.350 1_665 S
C361 C364 1.463 . S
C361 C366 1.350 . S
C361 N369 1.427 1_445 S
C362 H353 0.930 . S
C362 C360 1.378 . S
C362 C363 1.367 1_665 S
C363 C362 1.367 1_445 S
C363 C365 1.433 . S
C364 C360 1.350 1_445 S
C364 C361 1.463 . S
C364 N368 1.427 . S
C365 H355 0.929 . S
C365 C363 1.433 . S
C365 N368 1.384 . S
C366 H357 0.929 . S
C366 C358 1.378 . S
C366 C361 1.350 . S
C367 H354 0.929 . S
C367 C359 1.433 1_665 S
C367 N369 1.384 . S
N368 C364 1.427 . S
N368 C365 1.384 . S
N369 C361 1.427 1_665 S
N369 C367 1.384 . S
H370 C376 0.930 . S
H371 C380 0.930 . S
H372 C385 0.929 . S
H373 C383 0.929 . S
H374 C378 0.929 . S
H375 C384 0.929 . S
C376 H370 0.930 . S
C376 C377 1.367 . S
C376 C384 1.378 . S
C377 C376 1.367 . S
C377 C385 1.433 . S
C378 H374 0.929 . S
C378 C380 1.378 . S
C378 C382 1.350 . S
C379 C382 1.463 . S
C379 C384 1.350 . S
C379 N387 1.427 . S
C380 H371 0.930 . S
C380 C378 1.378 . S
C380 C381 1.367 . S
C381 C380 1.367 . S
C381 C383 1.433 . S
C382 C378 1.350 . S
C382 C379 1.463 . S
C382 N386 1.427 . S
C383 H373 0.929 . S
C383 C381 1.433 . S
C383 N386 1.384 . S
C384 H375 0.929 . S
C384 C376 1.378 . S
C384 C379 1.350 . S
C385 H372 0.929 . S
C385 C377 1.433 . S
C385 N387 1.384 . S
N386 C382 1.427 . S
N386 C383 1.384 . S
N387 C379 1.427 . S
N387 C385 1.384 . S
H388 C394 0.930 . S
H389 C398 0.930 . S
H390 C403 0.929 . S
H391 C401 0.929 . S
H392 C396 0.929 . S
H393 C402 0.929 . S
C394 H388 0.930 . S
C394 C395 1.367 . S
C394 C402 1.378 . S
C395 C394 1.367 . S
C395 C403 1.433 . S
C396 H392 0.929 . S
C396 C398 1.378 . S
C396 C400 1.350 . S
C397 C400 1.463 . S
C397 C402 1.350 . S
C397 N405 1.427 . S
C398 H389 0.930 . S
C398 C396 1.378 . S
C398 C399 1.367 . S
C399 C398 1.367 . S
C399 C401 1.433 . S
C400 C396 1.350 . S
C400 C397 1.463 . S
C400 N404 1.427 . S
C401 H391 0.929 . S
C401 C399 1.433 . S
C401 N404 1.384 . S
C402 H393 0.929 . S
C402 C394 1.378 . S
C402 C397 1.350 . S
C403 H390 0.929 . S
C403 C395 1.433 . S
C403 N405 1.384 . S
N404 C400 1.427 . S
N404 C401 1.384 . S
N405 C397 1.427 . S
N405 C403 1.384 . S
C201 C155 1.449 . S
C197 C21 1.446 . S
C215 C19 1.444 1_556 S
C219 C119 1.447 . S
C233 C18 1.408 . S
C237 C179 1.398 . S
C251 C20 1.438 1_556 S
C255 C143 1.415 . S
C269 C44 1.447 . S
C273 C83 1.447 . S
C287 C42 1.438 . S
C291 C47 1.442 . S
C309 C107 1.407 . S
C305 C41 1.411 . S
C327 C71 1.419 . S
C323 C43 1.438 . S
C341 C16 1.493 . S
C345 C77 1.488 1_565 S
C359 C17 1.457 . S
C363 C113 1.453 1_545 S
C381 C149 1.486 . S
C377 C39 1.492 . S
C395 C40 1.458 . S
C399 C185 1.454 . S
