# Generated by pormake.
# Topology anh, (6,3)-cn, num edge types: 1
# Building blocks:
#     Node 0, Type 0, BuildingBlock: BETDAH_clean_sbu_0, # of connection points: 6
#     Node 1, Type 0, BuildingBlock: BETDAH_clean_sbu_0, # of connection points: 6
#     Node 2, Type 0, BuildingBlock: BETDAH_clean_sbu_0, # of connection points: 6
#     Node 3, Type 1, BuildingBlock: MIDCAF_clean_linker_0, # of connection points: 3
#     Node 4, Type 1, BuildingBlock: MIDCAF_clean_linker_0, # of connection points: 3
#     Node 5, Type 1, BuildingBlock: MIDCAF_clean_linker_0, # of connection points: 3
#     Node 6, Type 1, BuildingBlock: MIDCAF_clean_linker_0, # of connection points: 3
#     Node 7, Type 1, BuildingBlock: MIDCAF_clean_linker_0, # of connection points: 3
#     Node 8, Type 1, BuildingBlock: MIDCAF_clean_linker_0, # of connection points: 3
#     Edge 9, Type (0, 1), BuildingBlock: KIFKEQ_clean_linker_1, # of connection points: 2
#     Edge 10, Type (0, 1), BuildingBlock: KIFKEQ_clean_linker_1, # of connection points: 2
#     Edge 11, Type (0, 1), BuildingBlock: KIFKEQ_clean_linker_1, # of connection points: 2
#     Edge 12, Type (0, 1), BuildingBlock: KIFKEQ_clean_linker_1, # of connection points: 2
#     Edge 13, Type (0, 1), BuildingBlock: KIFKEQ_clean_linker_1, # of connection points: 2
#     Edge 14, Type (0, 1), BuildingBlock: KIFKEQ_clean_linker_1, # of connection points: 2
#     Edge 15, Type (0, 1), BuildingBlock: KIFKEQ_clean_linker_1, # of connection points: 2
#     Edge 16, Type (0, 1), BuildingBlock: KIFKEQ_clean_linker_1, # of connection points: 2
#     Edge 17, Type (0, 1), BuildingBlock: KIFKEQ_clean_linker_1, # of connection points: 2
#     Edge 18, Type (0, 1), BuildingBlock: KIFKEQ_clean_linker_1, # of connection points: 2
#     Edge 19, Type (0, 1), BuildingBlock: KIFKEQ_clean_linker_1, # of connection points: 2
#     Edge 20, Type (0, 1), BuildingBlock: KIFKEQ_clean_linker_1, # of connection points: 2
#     Edge 21, Type (0, 1), BuildingBlock: KIFKEQ_clean_linker_1, # of connection points: 2
#     Edge 22, Type (0, 1), BuildingBlock: KIFKEQ_clean_linker_1, # of connection points: 2
#     Edge 23, Type (0, 1), BuildingBlock: KIFKEQ_clean_linker_1, # of connection points: 2
#     Edge 24, Type (0, 1), BuildingBlock: KIFKEQ_clean_linker_1, # of connection points: 2
#     Edge 25, Type (0, 1), BuildingBlock: KIFKEQ_clean_linker_1, # of connection points: 2
#     Edge 26, Type (0, 1), BuildingBlock: KIFKEQ_clean_linker_1, # of connection points: 2
# Relax obj value: 0.181
# Max RMSD: 0.210
# Mean RMSD: 0.156
data_MOF--net-anh--node1-BETDAH_clean_sbu_0--node2-MIDCAF_clean_linker_0--edge1-KIFKEQ_clean_linker_1
_symmetry_space_group_name_H-M    P1
_symmetry_Int_Tables_number       1
_symmetry_cell_setting            triclinic
loop_
_symmetry_equiv_pos_as_xyz
'x, y, z'
_cell_length_a     36.983942
_cell_length_b     44.290647
_cell_length_c     67.308394
_cell_angle_alpha  92.996078
_cell_angle_beta   88.741467
_cell_angle_gamma 128.58309
loop_
_atom_site_label
_atom_site_type_symbol
_atom_site_fract_x
_atom_site_fract_y
_atom_site_fract_z
_atom_type_partial_charge
Ho0 Ho 0.09945 0.51484 0.14409 0.0
Ho1 Ho 1.04699 0.54232 0.15993 0.0
C2 C 0.15437 0.60781 0.15385 0.0
C3 C 0.15434 0.50613 0.12568 0.0
C4 C 0.20253 0.52234 0.13004 0.0
C5 C 0.24014 0.56057 0.12571 0.0
C6 C 0.28517 0.57612 0.13125 0.0
C7 C 0.2932 0.55384 0.14138 0.0
C8 C 0.25571 0.51561 0.14549 0.0
C9 C 0.21096 0.49996 0.13977 0.0
C10 C 0.09016 0.5133 0.18397 0.0
C11 C 0.99352 0.45039 0.15021 0.0
C12 C 0.99283 0.55004 0.18016 0.0
C13 C 0.94785 0.52151 0.18933 0.0
C14 C 0.93749 0.4881 0.19709 0.0
C15 C 0.89199 0.4573 0.20175 0.0
C16 C 0.85612 0.45932 0.19859 0.0
C17 C 0.86738 0.49417 0.19247 0.0
C18 C 0.91291 0.52498 0.18784 0.0
C19 C 1.05875 0.54458 0.12013 0.0
O20 O 0.15427 0.58025 0.14504 0.0
O21 O 0.11718 0.59993 0.16258 0.0
O22 O 0.12376 0.48193 0.13846 0.0
O23 O 0.14751 0.53018 0.12019 0.0
O24 O 0.09144 0.48888 0.17328 0.0
O25 O 0.09805 0.53924 0.17326 0.0
O26 O 0.99645 0.47693 0.16186 0.0
O27 O 1.02773 0.46001 0.13832 0.0
O28 O 0.99257 0.54755 0.16071 0.0
O29 O 1.0283 0.55496 0.18798 0.0
O30 O 1.06041 0.57071 0.13081 0.0
O31 O 1.04861 0.51788 0.13084 0.0
H32 H 0.23483 0.57859 0.1182 0.0
H33 H 0.31366 0.60555 0.12772 0.0
H34 H 0.26112 0.49746 0.1528 0.0
H35 H 0.18282 0.47033 0.14315 0.0
H36 H 0.96397 0.48478 0.19842 0.0
H37 H 0.88445 0.43097 0.20659 0.0
H38 H 0.84057 0.49657 0.18963 0.0
H39 H 0.92026 0.55051 0.18184 0.0
Ho40 Ho 0.61131 0.00984 0.48311 0.0
Ho41 Ho 0.54999 0.03074 0.47266 0.0
C42 C 0.50066 0.9416 0.47426 0.0
C43 C 0.64715 0.98157 0.4988 0.0
C44 C 0.63619 0.94343 0.50022 0.0
C45 C 0.59315 0.91127 0.50698 0.0
C46 C 0.58449 0.87592 0.50881 0.0
C47 C 0.61854 0.87194 0.5038 0.0
C48 C 0.66122 0.90402 0.49672 0.0
C49 C 0.66995 0.93937 0.49502 0.0
C50 C 0.6062 0.0174 0.44402 0.0
C51 C 0.66157 0.09891 0.47892 0.0
C52 C 0.51395 0.06033 0.45895 0.0
C53 C 0.52102 0.09706 0.46245 0.0
C54 C 0.56202 0.13272 0.45696 0.0
C55 C 0.56824 0.16708 0.46093 0.0
C56 C 0.53365 0.16662 0.47049 0.0
C57 C 0.49249 0.13079 0.47574 0.0
C58 C 0.48621 0.0965 0.47169 0.0
C59 C 0.55687 0.0241 0.51181 0.0
O60 O 0.53844 0.9524 0.48373 0.0
O61 O 0.49962 0.96704 0.46542 0.0
O62 O 0.6578 0.9957 0.48115 0.0
O63 O 0.62091 0.98751 0.50856 0.0
O64 O 0.64287 0.02658 0.45284 0.0
O65 O 0.57298 1.00187 0.45595 0.0
O66 O 0.62221 0.08744 0.47088 0.0
O67 O 0.66462 0.07443 0.48761 0.0
O68 O 0.49663 0.03722 0.47373 0.0
O69 O 0.54681 0.06193 0.44994 0.0
O70 O 0.51955 0.01392 0.50325 0.0
O71 O 0.58931 0.03963 0.49956 0.0
H72 H 0.56631 0.91345 0.51099 0.0
H73 H 0.55109 0.85165 0.51411 0.0
H74 H 0.68837 0.90209 0.49297 0.0
H75 H 0.70342 0.96377 0.48982 0.0
H76 H 0.58945 0.13421 0.44967 0.0
H77 H 0.60011 0.19398 0.4564 0.0
H78 H 0.46534 0.1292 0.48341 0.0
H79 H 0.45421 0.06946 0.47603 0.0
Ho80 Ho 0.63652 0.57036 0.83457 0.0
Ho81 Ho 0.57136 0.48378 0.8394 0.0
C82 C 0.52453 0.52505 0.8397 0.0
C83 C 0.67775 0.63991 0.82344 0.0
C84 C 0.66708 0.66664 0.82121 0.0
C85 C 0.62482 0.65404 0.81304 0.0
C86 C 0.61648 0.68042 0.81046 0.0
C87 C 0.65015 0.71991 0.81605 0.0
C88 C 0.69199 0.7321 0.82461 0.0
C89 C 0.70034 0.70577 0.8271 0.0
C90 C 0.62436 0.54757 0.87207 0.0
C91 C 0.68428 0.5301 0.83632 0.0
C92 C 0.53052 0.41392 0.8499 0.0
C93 C 0.53724 0.38438 0.84685 0.0
C94 C 0.57946 0.39236 0.85137 0.0
C95 C 0.58495 0.36395 0.84789 0.0
C96 C 0.54835 0.32697 0.83981 0.0
C97 C 0.50612 0.31917 0.83542 0.0
C98 C 0.50065 0.34749 0.83895 0.0
C99 C 0.58275 0.50524 0.80157 0.0
O100 O 0.56483 0.55539 0.83287 0.0
O101 O 0.52033 0.49509 0.84601 0.0
O102 O 0.6798 0.63205 0.84163 0.0
O103 O 0.65707 0.60951 0.81108 0.0
O104 O 0.66395 0.57679 0.86548 0.0
O105 O 0.59353 0.53337 0.85888 0.0
O106 O 0.64286 0.49877 0.84157 0.0
O107 O 0.68976 0.5609 0.83049 0.0
O108 O 0.51875 0.42204 0.83408 0.0
O109 O 0.56072 0.44473 0.86119 0.0
O110 O 0.54421 0.4756 0.80852 0.0
O111 O 0.61427 0.52057 0.81463 0.0
H112 H 0.59846 0.62394 0.80843 0.0
H113 H 0.58406 0.66997 0.80364 0.0
H114 H 0.71837 0.76205 0.82947 0.0
H115 H 0.73306 0.71607 0.83355 0.0
H116 H 0.60828 0.42052 0.85754 0.0
H117 H 0.61778 0.3709 0.85166 0.0
H118 H 0.47742 0.29135 0.82885 0.0
H119 H 0.46781 0.34066 0.83529 0.0
C120 C 0.47875 0.88512 0.18801 0.0
C121 C 0.45275 0.88165 0.17186 0.0
C122 C 0.46603 0.91575 0.16348 0.0
C123 C 0.5034 0.95237 0.17158 0.0
H124 H 0.63162 0.08266 0.16356 0.0
H125 H 0.69162 0.14714 0.15098 0.0
H126 H 0.75763 0.18643 0.20898 0.0
H127 H 0.69855 0.1236 0.22146 0.0
H128 H 0.62666 0.08537 0.25895 0.0
H129 H 0.62509 0.08308 0.29518 0.0
H130 H 0.54704 0.95927 0.28987 0.0
H131 H 0.54824 0.96129 0.2537 0.0
H132 H 0.53338 0.92274 0.20911 0.0
H133 H 0.4694 0.85973 0.19506 0.0
H134 H 0.44695 0.9141 0.15093 0.0
H135 H 0.51176 0.9781 0.16538 0.0
N136 N 0.59215 0.0269 0.19088 0.0
N137 N 0.62042 0.05845 0.22251 0.0
N138 N 0.56001 0.99211 0.21996 0.0
C139 C 0.62264 0.06002 0.20235 0.0
C140 C 0.58925 0.02479 0.23143 0.0
C141 C 0.56084 0.99269 0.1998 0.0
C142 C 0.65953 0.09787 0.19363 0.0
C143 C 0.65905 0.10512 0.17355 0.0
C144 C 0.69352 0.14202 0.16634 0.0
C145 C 0.72906 0.17228 0.17907 0.0
C146 C 0.73019 0.16433 0.19886 0.0
C147 C 0.69607 0.12794 0.20602 0.0
C148 C 0.5877 0.02352 0.25341 0.0
C149 C 0.60907 0.05763 0.26549 0.0
C150 C 0.60792 0.05634 0.28623 0.0
C151 C 0.58598 0.02101 0.29529 0.0
C152 C 0.56446 0.98692 0.28325 0.0
C153 C 0.56502 0.98811 0.26254 0.0
C154 C 0.52755 0.95544 0.1884 0.0
C155 C 0.51541 0.92139 0.19617 0.0
C156 C 0.57111 0.40366 0.54516 0.0
C157 C 0.57632 0.404 0.52444 0.0
C158 C 0.58898 0.43649 0.51453 0.0
C159 C 0.59554 0.46774 0.52518 0.0
H160 H 0.61446 0.57646 0.52145 0.0
H161 H 0.61124 0.62509 0.50774 0.0
H162 H 0.57469 0.64509 0.5655 0.0
H163 H 0.57802 0.59722 0.57914 0.0
H164 H 0.61209 0.58112 0.61682 0.0
H165 H 0.61532 0.58106 0.65292 0.0
H166 H 0.61871 0.48526 0.64754 0.0
H167 H 0.6146 0.48468 0.6115 0.0
H168 H 0.57381 0.43334 0.57175 0.0
H169 H 0.56194 0.37927 0.55324 0.0
H170 H 0.59314 0.43745 0.49854 0.0
H171 H 0.60498 0.49227 0.51718 0.0
N172 N 0.59608 0.52644 0.54898 0.0
N173 N 0.60571 0.55671 0.58037 0.0
N174 N 0.60313 0.50261 0.57778 0.0
C175 C 0.60005 0.55485 0.56033 0.0
C176 C 0.60761 0.53092 0.58921 0.0
C177 C 0.59735 0.50001 0.55773 0.0
C178 C 0.59672 0.58303 0.55141 0.0
C179 C 0.60549 0.59112 0.53115 0.0
C180 C 0.60385 0.61903 0.52333 0.0
C181 C 0.59251 0.63876 0.53554 0.0
C182 C 0.58298 0.63009 0.55566 0.0
C183 C 0.58529 0.6028 0.5635 0.0
C184 C 0.61261 0.53265 0.61117 0.0
C185 C 0.61379 0.56014 0.62329 0.0
C186 C 0.61596 0.56032 0.64402 0.0
C187 C 0.61699 0.53301 0.65313 0.0
C188 C 0.61719 0.50628 0.64101 0.0
C189 C 0.615 0.50607 0.6203 0.0
C190 C 0.5904 0.46733 0.54597 0.0
C191 C 0.57827 0.43491 0.55578 0.0
C192 C 1.00587 0.57042 0.86377 0.0
C193 C 0.96928 0.53992 0.85151 0.0
C194 C 0.97273 0.51111 0.84435 0.0
C195 C 1.01017 0.51202 0.85 0.0
H196 H 0.1643 0.52789 0.83851 0.0
H197 H 0.22711 0.52496 0.82895 0.0
H198 H 0.26621 0.54037 0.89073 0.0
H199 H 0.20535 0.543 0.90013 0.0
H200 H 0.16105 0.54689 0.93432 0.0
H201 H 0.15504 0.54929 0.97032 0.0
H202 H 1.02633 0.53067 0.96405 0.0
H203 H 1.0331 0.52956 0.92802 0.0
H204 H 0.06861 0.59414 0.87976 0.0
H205 H 1.00499 0.59293 0.87006 0.0
H206 H 0.94593 0.48725 0.8347 0.0
H207 H 1.01004 0.48823 0.84518 0.0
N208 N 0.1104 0.53658 0.86558 0.0
N209 N 0.13422 0.53594 0.89765 0.0
N210 N 0.07371 0.53854 0.8943 0.0
C211 C 0.13955 0.53564 0.87759 0.0
C212 C 0.10172 0.53725 0.90614 0.0
C213 C 0.07721 0.53816 0.87416 0.0
C214 C 0.17842 0.53517 0.87019 0.0
C215 C 0.18634 0.53067 0.85002 0.0
C216 C 0.2226 0.52908 0.84453 0.0
C217 C 0.25173 0.53165 0.85907 0.0
C218 C 0.24423 0.53711 0.87902 0.0
C219 C 0.20875 0.53882 0.88442 0.0
C220 C 0.09759 0.53807 0.92817 0.0
C221 C 0.1314 0.54328 0.94057 0.0
C222 C 0.12782 0.54444 0.96129 0.0
C223 C 0.09016 0.54013 0.97021 0.0
C224 C 1.05623 0.53474 0.95778 0.0
C225 C 1.05998 0.53386 0.93705 0.0
C226 C 1.04543 0.54181 0.86294 0.0
C227 C 1.04289 0.57123 0.86937 0.0
C228 C 0.18918 0.6572 0.43909 0.0
C229 C 0.21649 0.66161 0.45491 0.0
C230 C 0.20567 0.62817 0.46303 0.0
C231 C 0.16863 0.59114 0.45522 0.0
H232 H 1.04722 0.45544 0.46236 0.0
H233 H 0.98582 0.3931 0.47674 0.0
H234 H 0.89213 0.36871 0.4298 0.0
H235 H 0.95294 0.42984 0.41532 0.0
H236 H 1.00055 0.46601 0.37182 0.0
H237 H 1.00137 0.46562 0.33537 0.0
H238 H 0.14751 0.56159 0.33728 0.0
H239 H 0.14679 0.5626 0.37357 0.0
H240 H 0.13368 0.6184 0.41853 0.0
H241 H 0.19682 0.68226 0.43234 0.0
H242 H 0.2261 0.63072 0.47526 0.0
H243 H 0.16155 0.56585 0.46137 0.0
N244 N 0.0758 0.5166 0.43818 0.0
N245 N 1.04118 0.48291 0.40744 0.0
N246 N 0.10647 0.54802 0.40815 0.0
C247 C 1.04202 0.48326 0.42766 0.0
C248 C 0.07365 0.51502 0.39759 0.0
C249 C 0.10783 0.54929 0.42833 0.0
C250 C 1.00495 0.44751 0.43769 0.0
C251 C 1.01334 0.43682 0.45527 0.0
C252 C 0.97839 0.40114 0.46342 0.0
C253 C 0.93419 0.37613 0.4544 0.0
C254 C 0.92568 0.38746 0.43717 0.0
C255 C 0.96065 0.42245 0.42883 0.0
C256 C 0.0736 0.51434 0.37557 0.0
C257 C 1.03282 0.48702 0.36445 0.0
C258 C 1.03319 0.48691 0.34364 0.0
C259 C 0.07452 0.51355 0.3336 0.0
C260 C 0.11527 0.54064 0.34469 0.0
C261 C 0.11474 0.54128 0.36545 0.0
C262 C 0.14272 0.58714 0.43886 0.0
C263 C 0.1531 0.62056 0.43111 0.0
C264 C 0.56398 0.11461 0.76888 0.0
C265 C 0.57606 0.12399 0.78915 0.0
C266 C 0.59272 0.10721 0.79867 0.0
C267 C 0.59664 0.08116 0.7881 0.0
H268 H 0.61584 0.99349 0.79237 0.0
H269 H 0.62089 0.94638 0.80664 0.0
H270 H 0.58464 0.88478 0.74943 0.0
H271 H 0.57942 0.93117 0.73525 0.0
H272 H 0.59014 0.97208 0.69658 0.0
H273 H 0.58572 0.97169 0.66045 0.0
H274 H 0.58753 0.07023 0.66602 0.0
H275 H 0.59095 0.07025 0.702 0.0
H276 H 0.55874 0.08287 0.7427 0.0
H277 H 0.55161 0.12741 0.76106 0.0
H278 H 0.6022 0.11388 0.81431 0.0
H279 H 0.60944 0.06858 0.79579 0.0
N280 N 0.59278 0.02013 0.7648 0.0
N281 N 0.59452 0.99553 0.73327 0.0
N282 N 0.58899 0.0453 0.73578 0.0
C283 C 0.59514 0.99495 0.75345 0.0
C284 C 0.59171 0.02073 0.72431 0.0
C285 C 0.58943 0.04533 0.75595 0.0
C286 C 0.59735 0.9663 0.76263 0.0
C287 C 0.60873 0.96977 0.78288 0.0
C288 C 0.61184 0.94291 0.79103 0.0
C289 C 0.60296 0.91174 0.77918 0.0
C290 C 0.59107 0.90811 0.75904 0.0
C291 C 0.58847 0.93503 0.75088 0.0
C292 C 0.59062 0.02105 0.70228 0.0
C293 C 0.58969 0.99373 0.69012 0.0
C294 C 0.58741 0.99362 0.66938 0.0
C295 C 0.58601 0.02079 0.66034 0.0
C296 C 0.58771 0.04845 0.67249 0.0
C297 C 0.58992 0.04855 0.69318 0.0
C298 C 0.58475 0.07204 0.76774 0.0
C299 C 0.56842 0.08918 0.75833 0.0
C300 C 0.57455 0.32964 0.11276 0.0
C301 C 0.5772 0.33464 0.13368 0.0
C302 C 0.5608 0.35318 0.14288 0.0
C303 C 0.54645 0.36945 0.13156 0.0
H304 H 0.52661 0.44808 0.13979 0.0
H305 H 0.51523 0.49077 0.15775 0.0
H306 H 0.51979 0.53792 0.1023 0.0
H307 H 0.53187 0.49599 0.0844 0.0
H308 H 0.4806 0.41042 0.04382 0.0
H309 H 0.49236 0.42524 0.00887 0.0
H310 H 0.622 0.44407 0.01091 0.0
H311 H 0.60805 0.42645 0.04567 0.0
H312 H 0.56172 0.34412 0.08529 0.0
H313 H 0.58568 0.31462 0.10513 0.0
H314 H 0.56243 0.3581 0.15887 0.0
H315 H 0.53638 0.38515 0.13935 0.0
N316 N 0.53685 0.4166 0.10923 0.0
N317 N 0.53463 0.43977 0.0793 0.0
N318 N 0.54452 0.39221 0.07899 0.0
C319 C 0.53341 0.44065 0.09944 0.0
C320 C 0.54012 0.41574 0.06903 0.0
C321 C 0.54207 0.39212 0.09922 0.0
C322 C 0.5294 0.46812 0.11058 0.0
C323 C 0.52573 0.46787 0.13144 0.0
C324 C 0.51936 0.4924 0.14177 0.0
C325 C 0.5167 0.51775 0.13147 0.0
C326 C 0.52249 0.51921 0.11074 0.0
C327 C 0.52874 0.49469 0.10042 0.0
C328 C 0.54344 0.41736 0.04728 0.0
C329 C 0.51093 0.41673 0.03656 0.0
C330 C 0.51812 0.42579 0.01662 0.0
C331 C 0.55883 0.437 0.00712 0.0
C332 C 0.59016 0.43546 0.01764 0.0
C333 C 0.58228 0.42538 0.03754 0.0
C334 C 0.54858 0.36813 0.11069 0.0
C335 C 0.56067 0.34646 0.10136 0.0
H336 H 0.36689 0.58879 0.11677 0.0
H337 H 0.3258 0.55119 0.17668 0.0
H338 H 0.43644 0.59536 0.12133 0.0
H339 H 0.39634 0.55876 0.18159 0.0
H340 H 0.54923 0.59208 0.12676 0.0
H341 H 0.50866 0.61797 0.13581 0.0
H342 H 0.40784 0.51489 0.16738 0.0
H343 H 0.44828 0.48958 0.15857 0.0
C344 C 0.37382 0.58356 0.13122 0.0
C345 C 0.34061 0.56857 0.1462 0.0
C346 C 0.4139 0.58751 0.13392 0.0
C347 C 0.42149 0.57672 0.15172 0.0
C348 C 0.39093 0.56639 0.16755 0.0
C349 C 0.35061 0.56206 0.16476 0.0
C350 C 0.51913 0.57559 0.13613 0.0
C351 C 0.50128 0.53842 0.14156 0.0
C352 C 0.49595 0.59041 0.14132 0.0
C353 C 0.45443 0.56817 0.15192 0.0
C354 C 0.43983 0.53304 0.1593 0.0
C355 C 0.46304 0.51835 0.15418 0.0
H356 H 0.74788 0.1382 0.49654 0.0
H357 H 0.66888 0.15374 0.45829 0.0
H358 H 0.81493 0.20641 0.49373 0.0
H359 H 0.73537 0.22064 0.45498 0.0
H360 H 0.84585 0.34702 0.46293 0.0
H361 H 0.78151 0.28149 0.47162 0.0
H362 H 0.87308 0.25199 0.47126 0.0
H363 H 0.93791 0.3184 0.46333 0.0
C364 C 0.74476 0.15606 0.48755 0.0
C365 C 0.70276 0.14037 0.47776 0.0
C366 C 0.78329 0.19517 0.48585 0.0
C367 C 0.78074 0.21943 0.47426 0.0
C368 C 0.73866 0.20344 0.46447 0.0
C369 C 0.70034 0.1647 0.46626 0.0
C370 C 0.85228 0.32663 0.46498 0.0
C371 C 0.8968 0.33774 0.46231 0.0
C372 C 0.81533 0.2889 0.46981 0.0
C373 C 0.82162 0.26091 0.47175 0.0
C374 C 0.86676 0.27261 0.47 0.0
C375 C 0.90398 0.31068 0.46543 0.0
H376 H 0.71293 0.79404 0.80391 0.0
H377 H 0.56954 0.71064 0.82005 0.0
H378 H 0.70011 0.84027 0.79744 0.0
H379 H 0.55665 0.7569 0.81321 0.0
H380 H 0.54391 0.833 0.77347 0.0
H381 H 0.55457 0.78708 0.78395 0.0
H382 H 0.68202 0.8804 0.81406 0.0
H383 H 0.67175 0.92652 0.80321 0.0
C384 C 0.67878 0.78567 0.80636 0.0
C385 C 0.6423 0.74847 0.81254 0.0
C386 C 0.67145 0.81226 0.80262 0.0
C387 C 0.62738 0.80235 0.80484 0.0
C388 C 0.59092 0.76531 0.81115 0.0
C389 C 0.5983 0.73874 0.815 0.0
C390 C 0.57412 0.8437 0.7824 0.0
C391 C 0.60716 0.88345 0.78739 0.0
C392 C 0.58002 0.81733 0.78856 0.0
C393 C 0.61928 0.83007 0.79976 0.0
C394 C 0.65166 0.8697 0.80525 0.0
C395 C 0.64556 0.89607 0.79921 0.0
H396 H 0.82312 0.38935 0.18207 0.0
H397 H 0.77865 0.44938 0.21195 0.0
H398 H 0.74433 0.33797 0.17059 0.0
H399 H 0.69973 0.39844 0.20006 0.0
H400 H 0.56444 0.31269 0.17258 0.0
H401 H 0.62568 0.32757 0.1947 0.0
H402 H 0.7132 0.35488 0.14406 0.0
H403 H 0.65413 0.34256 0.12225 0.0
C404 C 0.79614 0.39061 0.18701 0.0
C405 C 0.80723 0.42364 0.19761 0.0
C406 C 0.751 0.36128 0.18032 0.0
C407 C 0.7161 0.36452 0.18414 0.0
C408 C 0.72593 0.39507 0.19691 0.0
C409 C 0.77123 0.4245 0.20355 0.0
C410 C 0.59642 0.32111 0.1661 0.0
C411 C 0.60487 0.32797 0.14566 0.0
C412 C 0.63124 0.32925 0.1788 0.0
C413 C 0.67442 0.34309 0.17114 0.0
C414 C 0.68021 0.34418 0.15043 0.0
C415 C 0.64594 0.33693 0.13782 0.0
H416 H 0.48732 0.88054 0.49167 0.0
H417 H 0.41976 0.90829 0.45387 0.0
H418 H 0.41852 0.8126 0.48972 0.0
H419 H 0.35186 0.84063 0.45149 0.0
H420 H 0.22003 0.72426 0.46371 0.0
H421 H 0.28834 0.7912 0.47021 0.0
H422 H 0.37429 0.75607 0.46736 0.0
H423 H 0.30542 0.68879 0.4613 0.0
C424 C 0.45792 0.8722 0.48289 0.0
C425 C 0.45917 0.90004 0.47297 0.0
C426 C 0.41848 0.83314 0.4817 0.0
C427 C 0.37929 0.82094 0.47056 0.0
C428 C 0.38083 0.84888 0.46058 0.0
C429 C 0.42009 0.88781 0.46181 0.0
C430 C 0.25348 0.73081 0.46471 0.0
C431 C 0.25734 0.70126 0.46185 0.0
C432 C 0.29276 0.76925 0.46829 0.0
C433 C 0.33714 0.77935 0.46895 0.0
C434 C 0.34077 0.74949 0.46707 0.0
C435 C 0.30128 0.71086 0.46361 0.0
H436 H 0.62456 0.3364 0.82503 0.0
H437 H 0.48527 0.24897 0.84487 0.0
H438 H 0.63166 0.28632 0.81572 0.0
H439 H 0.49224 0.199 0.83526 0.0
H440 H 0.50219 0.12364 0.7886 0.0
H441 H 0.49681 0.17222 0.80314 0.0
H442 H 0.63387 0.2355 0.82863 0.0
H443 H 0.63943 0.18678 0.81376 0.0
C444 C 0.5957 0.30662 0.82771 0.0
C445 C 0.55415 0.2968 0.83553 0.0
C446 C 0.5998 0.27788 0.82236 0.0
C447 C 0.56239 0.23863 0.82461 0.0
C448 C 0.52143 0.22891 0.83302 0.0
C449 C 0.51741 0.2576 0.83847 0.0
C450 C 0.53106 0.14778 0.79742 0.0
C451 C 0.57133 0.15151 0.79995 0.0
C452 C 0.52785 0.17548 0.80589 0.0
C453 C 0.56495 0.20781 0.81702 0.0
C454 C 0.60485 0.21109 0.82 0.0
C455 C 0.60789 0.18305 0.81165 0.0
H456 H 0.57892 0.82575 0.5355 0.0
H457 H 0.64025 0.83484 0.47856 0.0
H458 H 0.56979 0.76754 0.54119 0.0
H459 H 0.6303 0.77599 0.48402 0.0
H460 H 0.65751 0.69887 0.5128 0.0
H461 H 0.66094 0.75325 0.50369 0.0
H462 H 0.52892 0.70144 0.53152 0.0
H463 H 0.52635 0.64779 0.54104 0.0
C464 C 0.58971 0.8149 0.52403 0.0
C465 C 0.61038 0.83499 0.5066 0.0
C466 C 0.58439 0.78139 0.52726 0.0
C467 C 0.59927 0.76686 0.51306 0.0
C468 C 0.61912 0.78659 0.49543 0.0
C469 C 0.62473 0.8203 0.49227 0.0
C470 C 0.62894 0.69889 0.51668 0.0
C471 C 0.59188 0.66926 0.52778 0.0
C472 C 0.63082 0.73004 0.51145 0.0
C473 C 0.59544 0.7321 0.51705 0.0
C474 C 0.55736 0.70143 0.52737 0.0
C475 C 0.55572 0.67053 0.53274 0.0
H476 H 0.69018 0.47699 0.85223 0.0
H477 H 0.77302 0.58459 0.82265 0.0
H478 H 0.75712 0.47885 0.85492 0.0
H479 H 0.83977 0.58595 0.82462 0.0
H480 H 0.96498 0.59981 0.84761 0.0
H481 H 0.89778 0.59688 0.84397 0.0
H482 H 0.80963 0.47214 0.84076 0.0
H483 H 0.87689 0.47515 0.84573 0.0
C484 C 0.72254 0.50094 0.84606 0.0
C485 C 0.72558 0.53063 0.83722 0.0
C486 C 0.76134 0.50194 0.8475 0.0
C487 C 0.80492 0.53261 0.84005 0.0
C488 C 0.80765 0.56207 0.83097 0.0
C489 C 0.7689 0.56118 0.82967 0.0
C490 C 0.93137 0.57158 0.84636 0.0
C491 C 0.92731 0.53775 0.84724 0.0
C492 C 0.89232 0.56987 0.84393 0.0
C493 C 0.84719 0.53424 0.84207 0.0
C494 C 0.84317 0.50034 0.84246 0.0
C495 C 0.8823 0.50206 0.84501 0.0
H496 H 0.17014 0.67217 0.17188 0.0
H497 H 0.23754 0.63602 0.13683 0.0
H498 H 0.24201 0.73834 0.17357 0.0
H499 H 0.30913 0.70241 0.13811 0.0
H500 H 0.44098 0.81411 0.16699 0.0
H501 H 0.36907 0.74886 0.1612 0.0
H502 H 0.29585 0.79484 0.15513 0.0
H503 H 0.36773 0.86019 0.16179 0.0
C504 C 0.20014 0.67832 0.16438 0.0
C505 C 0.19791 0.64854 0.15431 0.0
C506 C 0.2414 0.71647 0.16521 0.0
C507 C 0.28163 0.72597 0.15597 0.0
C508 C 0.27915 0.69623 0.14564 0.0
C509 C 0.23791 0.65807 0.14483 0.0
C510 C 0.4096 0.81037 0.16434 0.0
C511 C 0.41022 0.84251 0.16507 0.0
C512 C 0.36829 0.77285 0.16082 0.0
C513 C 0.32631 0.76632 0.15787 0.0
C514 C 0.32728 0.79862 0.15769 0.0
C515 C 0.3687 0.83622 0.16122 0.0
H516 H 0.46969 0.17905 0.46906 0.0
H517 H 0.61346 0.23742 0.48322 0.0
H518 H 0.47949 0.23722 0.47976 0.0
H519 H 0.62331 0.29583 0.49348 0.0
H520 H 0.63181 0.40408 0.49669 0.0
H521 H 0.62182 0.34786 0.4812 0.0
H522 H 0.49364 0.27186 0.51252 0.0
H523 H 0.50349 0.32777 0.5278 0.0
C524 C 0.50341 0.20423 0.47443 0.0
C525 C 0.54064 0.20323 0.47545 0.0
C526 C 0.50903 0.23764 0.48049 0.0
C527 C 0.55212 0.27109 0.48755 0.0
C528 C 0.58979 0.27067 0.4879 0.0
C529 C 0.5841 0.23712 0.48199 0.0
C530 C 0.60122 0.37532 0.49999 0.0
C531 C 0.56853 0.37029 0.51351 0.0
C532 C 0.59568 0.34318 0.49127 0.0
C533 C 0.557 0.30541 0.49568 0.0
C534 C 0.52361 0.30051 0.50868 0.0
C535 C 0.52941 0.33254 0.51754 0.0
H536 H 0.51932 0.58245 0.83002 0.0
H537 H 0.43623 0.468 0.85251 0.0
H538 H 0.45365 0.58297 0.83326 0.0
H539 H 0.37055 0.46806 0.85532 0.0
H540 H 0.27596 0.49418 0.8794 0.0
H541 H 0.34029 0.4932 0.87415 0.0
H542 H 0.37852 0.55946 0.82197 0.0
H543 H 0.31432 0.56159 0.82776 0.0
C544 C 0.48704 0.55722 0.83556 0.0
C545 C 0.48373 0.52526 0.8411 0.0
C546 C 0.44897 0.55741 0.83731 0.0
C547 C 0.40606 0.52566 0.84471 0.0
C548 C 0.40278 0.49353 0.84994 0.0
C549 C 0.44073 0.49336 0.8482 0.0
C550 C 0.29802 0.50879 0.8668 0.0
C551 C 0.28955 0.52833 0.85417 0.0
C552 C 0.33504 0.50782 0.86361 0.0
C553 C 0.36547 0.52623 0.84758 0.0
C554 C 0.35661 0.54524 0.83466 0.0
C555 C 0.31921 0.54609 0.83783 0.0
H556 H 0.90911 0.42137 0.1656 0.0
H557 H 0.98371 0.38569 0.13726 0.0
H558 H 0.84298 0.35377 0.16974 0.0
H559 H 0.9179 0.31802 0.14219 0.0
H560 H 0.77667 0.19596 0.14365 0.0
H561 H 0.83822 0.26246 0.13426 0.0
H562 H 0.82406 0.3054 0.1906 0.0
H563 H 0.76191 0.23991 0.1994 0.0
C564 C 0.91149 0.39916 0.16029 0.0
C565 C 0.95199 0.40907 0.15128 0.0
C566 C 0.87361 0.36041 0.16279 0.0
C567 C 0.8752 0.3304 0.1567 0.0
C568 C 0.91514 0.34022 0.147 0.0
C569 C 0.95301 0.3791 0.14425 0.0
C570 C 0.78631 0.21973 0.15384 0.0
C571 C 0.76449 0.21246 0.17235 0.0
C572 C 0.82198 0.25785 0.14857 0.0
C573 C 0.83638 0.28956 0.16164 0.0
C574 C 0.81375 0.28204 0.17995 0.0
C575 C 0.77831 0.24423 0.18515 0.0
H576 H 0.08472 0.60167 0.09535 0.0
H577 H 1.0461 0.48749 0.09578 0.0
H578 H 0.09394 0.60148 0.05932 0.0
H579 H 1.05361 0.4865 0.05973 0.0
H580 H 0.11302 0.51047 -0.00239 0.0
H581 H 0.10792 0.51321 0.03365 0.0
H582 H 1.05082 0.57305 0.02907 0.0
H583 H 1.05858 0.5724 0.9931 0.0
C584 C 0.07796 0.57644 0.08769 0.0
C585 C 0.06458 0.54457 0.09833 0.0
C586 C 0.08294 0.57618 0.06701 0.0
C587 C 0.07437 0.54391 0.05649 0.0
C588 C 1.06117 0.5121 0.06728 0.0
C589 C 1.05652 0.51251 0.08795 0.0
C590 C 0.1 0.52472 0.00427 0.0
C591 C 0.0863 0.54126 0.99233 0.0
C592 C 0.09645 0.52582 0.02499 0.0
C593 C 0.07882 0.54326 0.03439 0.0
C594 C 0.06511 0.55978 0.02245 0.0
C595 C 0.06892 0.5589 0.00173 0.0
H596 H 0.53323 1.00187 0.42314 0.0
H597 H 0.67037 0.03589 0.4162 0.0
H598 H 0.52694 1.0029 0.38699 0.0
H599 H 0.66381 0.03635 0.38024 0.0
H600 H 0.60903 0.98465 0.31669 0.0
H601 H 0.61253 0.98385 0.35286 0.0
H602 H 0.56839 0.05391 0.3596 0.0
H603 H 0.56499 0.05482 0.32329 0.0
C604 C 0.56197 0.00962 0.41389 0.0
C605 C 0.60223 0.01871 0.4224 0.0
C606 C 0.55843 0.01031 0.39327 0.0
C607 C 0.5948 0.01948 0.38086 0.0
C608 C 0.63508 0.02877 0.38945 0.0
C609 C 0.63888 0.02865 0.41002 0.0
C610 C 0.59976 0.99964 0.3259 0.0
C611 C 0.58678 0.01982 0.31723 0.0
C612 C 0.60205 0.9994 0.34656 0.0
C613 C 0.59084 0.01891 0.35897 0.0
C614 C 0.57699 0.0385 0.35033 0.0
C615 C 0.57537 0.03923 0.32962 0.0
H616 H 0.51703 0.47101 0.77264 0.0
H617 H 0.66429 0.55755 0.78243 0.0
H618 H 0.5275 0.47994 0.73704 0.0
H619 H 0.67501 0.56627 0.74647 0.0
H620 H 0.66375 0.593 0.68145 0.0
H621 H 0.65714 0.58895 0.71767 0.0
H622 H 0.56061 0.46435 0.71062 0.0
H623 H 0.566 0.46836 0.67467 0.0
C624 C 0.55171 0.49204 0.76715 0.0
C625 C 0.5899 0.51333 0.78025 0.0
C626 C 0.55773 0.497 0.74674 0.0
C627 C 0.60214 0.52339 0.7389 0.0
C628 C 0.64035 0.54576 0.75208 0.0
C629 C 0.63427 0.54072 0.77262 0.0
C630 C 0.64102 0.56478 0.68768 0.0
C631 C 0.61534 0.531 0.67516 0.0
C632 C 0.63758 0.56247 0.7084 0.0
C633 C 0.6081 0.52636 0.717 0.0
C634 C 0.58313 0.49265 0.70446 0.0
C635 C 0.58666 0.49494 0.68384 0.0
H636 H 0.48844 0.98989 0.53898 0.0
H637 H 0.63547 0.05255 0.53291 0.0
H638 H 0.49533 0.98716 0.57464 0.0
H639 H 0.64272 0.05059 0.5688 0.0
H640 H 0.63001 0.00853 0.63157 0.0
H641 H 0.62262 0.00722 0.59547 0.0
H642 H 0.52652 0.03138 0.60345 0.0
H643 H 0.53242 0.03112 0.63932 0.0
C644 C 0.52228 0.00314 0.54532 0.0
C645 C 0.56146 0.02163 0.53325 0.0
C646 C 0.52629 1.00176 0.56576 0.0
C647 C 0.56964 0.01895 0.57462 0.0
C648 C 0.60877 0.03679 0.56243 0.0
C649 C 0.6047 0.03811 0.54192 0.0
C650 C 0.60695 0.01315 0.62558 0.0
C651 C 0.58187 0.02 0.63835 0.0
C652 C 0.6031 0.01281 0.60491 0.0
C653 C 0.57395 0.01916 0.59656 0.0
C654 C 0.54885 0.0259 0.60935 0.0
C655 C 0.55269 0.02625 0.62996 0.0
H656 H 0.54195 0.49831 0.88996 0.0
H657 H 0.68848 0.55977 0.89808 0.0
H658 H 0.52753 0.47104 0.92253 0.0
H659 H 0.67376 0.53161 0.93066 0.0
H660 H 0.60458 0.42968 0.97663 0.0
H661 H 0.62316 0.45732 0.94386 0.0
H662 H 0.5556 0.50688 0.95898 0.0
H663 H 0.53919 0.4815 0.9919 0.0
C664 C 0.57102 0.50586 0.89871 0.0
C665 C 0.61634 0.53134 0.89167 0.0
C666 C 0.56276 0.49027 0.91729 0.0
C667 C 0.59957 0.4993 0.92899 0.0
C668 C 0.64488 0.52415 0.9218 0.0
C669 C 0.65327 0.5404 0.90332 0.0
C670 C 0.59417 0.44686 0.9731 0.0
C671 C 0.56977 0.45282 0.98693 0.0
C672 C 0.60473 0.46254 0.95433 0.0
C673 C 0.59044 0.48388 0.94897 0.0
C674 C 0.56639 0.49003 0.96272 0.0
C675 C 0.55661 0.47507 0.98153 0.0
H676 H 0.09368 0.56572 0.20918 0.0
H677 H 0.08004 0.46147 0.20818 0.0
H678 H 0.0873 0.56478 0.24552 0.0
H679 H 0.0755 0.46144 0.24445 0.0
H680 H 0.13182 0.51004 0.30945 0.0
H681 H 0.13454 0.50985 0.27306 0.0
H682 H 1.02299 0.51642 0.2718 0.0
H683 H 1.01972 0.51593 0.30828 0.0
C684 C 0.08889 0.54247 0.21669 0.0
C685 C 0.0868 0.51343 0.20586 0.0
C686 C 0.0854 0.54201 0.23745 0.0
C687 C 0.08088 0.51302 0.24771 0.0
C688 C 0.07917 0.48419 0.23687 0.0
C689 C 0.08174 0.48423 0.21614 0.0
C690 C 0.10789 0.51141 0.30136 0.0
C691 C 0.07553 0.51295 0.31159 0.0
C692 C 0.10932 0.51115 0.28061 0.0
C693 C 0.079 0.51317 0.2697 0.0
C694 C 1.04686 0.51504 0.27991 0.0
C695 C 1.0448 0.51451 0.3007 0.0
loop_
_geom_bond_atom_site_label_1
_geom_bond_atom_site_label_2
_geom_bond_distance
_geom_bond_site_symmetry_2
_ccdc_geom_bond_type
Ho0 C3 2.811 . S
Ho0 O20 2.322 . S
Ho0 O22 2.378 . S
Ho0 O23 2.524 . S
Ho0 O24 2.381 . S
Ho0 O25 2.669 . S
Ho0 O27 2.346 1_455 S
Ho0 O31 2.305 . S
Ho1 C12 2.811 . S
Ho1 O21 2.346 1_655 S
Ho1 O25 2.305 1_655 S
Ho1 O26 2.322 . S
Ho1 O28 2.378 . S
Ho1 O29 2.524 . S
Ho1 O30 2.381 1_655 S
Ho1 O31 2.669 1_655 S
C2 O20 1.259 . S
C2 O21 1.268 . S
C3 Ho0 2.811 . S
C3 C4 1.488 . S
C3 O22 1.215 . S
C3 O23 1.289 . S
C4 C3 1.488 . S
C4 C5 1.348 . S
C4 C9 1.413 . S
C5 C4 1.348 . S
C5 C6 1.442 . S
C5 H32 0.930 . S
C6 C5 1.442 . S
C6 C7 1.381 . S
C6 H33 0.931 . S
C7 C6 1.381 . S
C7 C8 1.321 . S
C8 C7 1.321 . S
C8 C9 1.403 . S
C8 H34 0.934 . S
C9 C4 1.413 . S
C9 C8 1.403 . S
C9 H35 0.930 . S
C10 O24 1.275 . S
C10 O25 1.256 . S
C11 O26 1.259 . S
C11 O27 1.268 . S
C12 Ho1 2.811 . S
C12 C13 1.488 . S
C12 O28 1.215 . S
C12 O29 1.289 . S
C13 C12 1.488 . S
C13 C14 1.348 . S
C13 C18 1.413 . S
C14 C13 1.348 . S
C14 C15 1.442 . S
C14 H36 0.930 . S
C15 C14 1.442 . S
C15 C16 1.381 . S
C15 H37 0.931 . S
C16 C15 1.381 . S
C16 C17 1.321 . S
C17 C16 1.321 . S
C17 C18 1.403 . S
C17 H38 0.934 . S
C18 C13 1.413 . S
C18 C17 1.403 . S
C18 H39 0.930 . S
C19 O30 1.275 . S
C19 O31 1.256 . S
O20 Ho0 2.322 . S
O20 C2 1.259 . S
O21 Ho1 2.346 1_455 S
O21 C2 1.268 . S
O22 Ho0 2.378 . S
O22 C3 1.215 . S
O23 Ho0 2.524 . S
O23 C3 1.289 . S
O24 Ho0 2.381 . S
O24 C10 1.275 . S
O25 Ho0 2.669 . S
O25 Ho1 2.305 1_455 S
O25 C10 1.256 . S
O26 Ho1 2.322 . S
O26 C11 1.259 . S
O27 Ho0 2.346 1_655 S
O27 C11 1.268 . S
O28 Ho1 2.378 . S
O28 C12 1.215 . S
O29 Ho1 2.524 . S
O29 C12 1.289 . S
O30 Ho1 2.381 1_455 S
O30 C19 1.275 . S
O31 Ho0 2.305 . S
O31 Ho1 2.669 1_455 S
O31 C19 1.256 . S
H32 C5 0.930 . S
H33 C6 0.931 . S
H34 C8 0.934 . S
H35 C9 0.930 . S
H36 C14 0.930 . S
H37 C15 0.931 . S
H38 C17 0.934 . S
H39 C18 0.930 . S
Ho40 C43 2.811 . S
Ho40 O60 2.322 . S
Ho40 O62 2.378 . S
Ho40 O63 2.524 . S
Ho40 O64 2.381 . S
Ho40 O65 2.669 1_565 S
Ho40 O67 2.346 1_565 S
Ho40 O71 2.295 1_565 S
Ho41 C52 2.811 . S
Ho41 O61 2.346 1_545 S
Ho41 O65 2.305 . S
Ho41 O66 2.322 . S
Ho41 O68 2.378 . S
Ho41 O69 2.524 . S
Ho41 O70 2.381 . S
Ho41 O71 2.684 . S
C42 O60 1.259 . S
C42 O61 1.268 . S
C43 Ho40 2.811 . S
C43 C44 1.488 . S
C43 O62 1.215 . S
C43 O63 1.289 . S
C44 C43 1.488 . S
C44 C45 1.348 . S
C44 C49 1.413 . S
C45 C44 1.348 . S
C45 C46 1.442 . S
C45 H72 0.930 . S
C46 C45 1.442 . S
C46 C47 1.381 . S
C46 H73 0.931 . S
C47 C46 1.381 . S
C47 C48 1.321 . S
C48 C47 1.321 . S
C48 C49 1.403 . S
C48 H74 0.934 . S
C49 C44 1.413 . S
C49 C48 1.403 . S
C49 H75 0.930 . S
C50 O64 1.275 1_545 S
C50 O65 1.256 . S
C51 O66 1.259 . S
C51 O67 1.268 . S
C52 Ho41 2.811 . S
C52 C53 1.488 . S
C52 O68 1.215 . S
C52 O69 1.289 . S
C53 C52 1.488 . S
C53 C54 1.348 . S
C53 C58 1.413 . S
C54 C53 1.348 . S
C54 C55 1.442 . S
C54 H76 0.930 . S
C55 C54 1.442 . S
C55 C56 1.381 . S
C55 H77 0.931 . S
C56 C55 1.381 . S
C56 C57 1.321 . S
C57 C56 1.321 . S
C57 C58 1.403 . S
C57 H78 0.934 . S
C58 C53 1.413 . S
C58 C57 1.403 . S
C58 H79 0.930 . S
C59 O70 1.275 . S
C59 O71 1.265 . S
O60 Ho40 2.322 . S
O60 C42 1.259 . S
O61 Ho41 2.346 1_565 S
O61 C42 1.268 . S
O62 Ho40 2.378 . S
O62 C43 1.215 . S
O63 Ho40 2.524 . S
O63 C43 1.289 . S
O64 Ho40 2.381 . S
O64 C50 1.275 1_565 S
O65 Ho40 2.669 1_545 S
O65 Ho41 2.305 . S
O65 C50 1.256 . S
O66 Ho41 2.322 . S
O66 C51 1.259 . S
O67 Ho40 2.346 1_545 S
O67 C51 1.268 . S
O68 Ho41 2.378 . S
O68 C52 1.215 . S
O69 Ho41 2.524 . S
O69 C52 1.289 . S
O70 Ho41 2.381 . S
O70 C59 1.275 . S
O71 Ho40 2.295 1_545 S
O71 Ho41 2.684 . S
O71 C59 1.265 . S
H72 C45 0.930 . S
H73 C46 0.931 . S
H74 C48 0.934 . S
H75 C49 0.930 . S
H76 C54 0.930 . S
H77 C55 0.931 . S
H78 C57 0.934 . S
H79 C58 0.930 . S
Ho80 C83 2.811 . S
Ho80 O100 2.322 . S
Ho80 O102 2.378 . S
Ho80 O103 2.524 . S
Ho80 O104 2.381 . S
Ho80 O105 2.669 . S
Ho80 O107 2.346 . S
Ho80 O111 2.305 . S
Ho81 C92 2.811 . S
Ho81 O101 2.346 . S
Ho81 O105 2.305 . S
Ho81 O106 2.322 . S
Ho81 O108 2.378 . S
Ho81 O109 2.524 . S
Ho81 O110 2.381 . S
Ho81 O111 2.669 . S
C82 O100 1.259 . S
C82 O101 1.268 . S
C83 Ho80 2.811 . S
C83 C84 1.488 . S
C83 O102 1.215 . S
C83 O103 1.289 . S
C84 C83 1.488 . S
C84 C85 1.348 . S
C84 C89 1.413 . S
C85 C84 1.348 . S
C85 C86 1.442 . S
C85 H112 0.930 . S
C86 C85 1.442 . S
C86 C87 1.381 . S
C86 H113 0.931 . S
C87 C86 1.381 . S
C87 C88 1.321 . S
C88 C87 1.321 . S
C88 C89 1.403 . S
C88 H114 0.934 . S
C89 C84 1.413 . S
C89 C88 1.403 . S
C89 H115 0.930 . S
C90 O104 1.275 . S
C90 O105 1.256 . S
C91 O106 1.259 . S
C91 O107 1.268 . S
C92 Ho81 2.811 . S
C92 C93 1.488 . S
C92 O108 1.215 . S
C92 O109 1.289 . S
C93 C92 1.488 . S
C93 C94 1.348 . S
C93 C98 1.413 . S
C94 C93 1.348 . S
C94 C95 1.442 . S
C94 H116 0.930 . S
C95 C94 1.442 . S
C95 C96 1.381 . S
C95 H117 0.931 . S
C96 C95 1.381 . S
C96 C97 1.321 . S
C97 C96 1.321 . S
C97 C98 1.403 . S
C97 H118 0.934 . S
C98 C93 1.413 . S
C98 C97 1.403 . S
C98 H119 0.930 . S
C99 O110 1.275 . S
C99 O111 1.256 . S
O100 Ho80 2.322 . S
O100 C82 1.259 . S
O101 Ho81 2.346 . S
O101 C82 1.268 . S
O102 Ho80 2.378 . S
O102 C83 1.215 . S
O103 Ho80 2.524 . S
O103 C83 1.289 . S
O104 Ho80 2.381 . S
O104 C90 1.275 . S
O105 Ho80 2.669 . S
O105 Ho81 2.305 . S
O105 C90 1.256 . S
O106 Ho81 2.322 . S
O106 C91 1.259 . S
O107 Ho80 2.346 . S
O107 C91 1.268 . S
O108 Ho81 2.378 . S
O108 C92 1.215 . S
O109 Ho81 2.524 . S
O109 C92 1.289 . S
O110 Ho81 2.381 . S
O110 C99 1.275 . S
O111 Ho80 2.305 . S
O111 Ho81 2.669 . S
O111 C99 1.256 . S
H112 C85 0.930 . S
H113 C86 0.931 . S
H114 C88 0.934 . S
H115 C89 0.930 . S
H116 C94 0.930 . S
H117 C95 0.931 . S
H118 C97 0.934 . S
H119 C98 0.930 . S
C120 C121 1.384 . S
C120 H133 0.947 . S
C120 C155 1.382 . S
C121 C120 1.384 . S
C121 C122 1.378 . S
C122 C121 1.378 . S
C122 C123 1.378 . S
C122 H134 0.952 . S
C123 C122 1.378 . S
C123 H135 0.950 . S
C123 C154 1.383 . S
H124 C143 0.947 . S
H125 C144 0.946 . S
H126 C146 0.953 . S
H127 C147 0.945 . S
H128 C149 0.952 . S
H129 C150 0.949 . S
H130 C152 0.950 . S
H131 C153 0.948 . S
H132 C155 0.951 . S
H133 C120 0.947 . S
H134 C122 0.952 . S
H135 C123 0.950 . S
N136 C139 1.382 . S
N136 C141 1.363 1_545 S
N137 C139 1.371 . S
N137 C140 1.372 . S
N138 C140 1.361 1_565 S
N138 C141 1.377 . S
C139 N136 1.382 . S
C139 N137 1.371 . S
C139 C142 1.480 . S
C140 N137 1.372 . S
C140 N138 1.361 1_545 S
C140 C148 1.457 . S
C141 N136 1.363 1_565 S
C141 N138 1.377 . S
C141 C154 1.479 . S
C142 C139 1.480 . S
C142 C143 1.383 . S
C142 C147 1.385 . S
C143 H124 0.947 . S
C143 C142 1.383 . S
C143 C144 1.388 . S
C144 H125 0.946 . S
C144 C143 1.388 . S
C144 C145 1.384 . S
C145 C144 1.384 . S
C145 C146 1.377 . S
C146 H126 0.953 . S
C146 C145 1.377 . S
C146 C147 1.369 . S
C147 H127 0.945 . S
C147 C142 1.385 . S
C147 C146 1.369 . S
C148 C140 1.457 . S
C148 C149 1.372 . S
C148 C153 1.364 1_545 S
C149 H128 0.952 . S
C149 C148 1.372 . S
C149 C150 1.389 . S
C150 H129 0.949 . S
C150 C149 1.389 . S
C150 C151 1.387 . S
C151 C150 1.387 . S
C151 C152 1.372 1_545 S
C152 H130 0.950 . S
C152 C151 1.372 1_565 S
C152 C153 1.379 . S
C153 H131 0.948 . S
C153 C148 1.364 1_565 S
C153 C152 1.379 . S
C154 C123 1.383 . S
C154 C141 1.479 . S
C154 C155 1.398 . S
C155 C120 1.382 . S
C155 H132 0.951 . S
C155 C154 1.398 . S
C156 C157 1.384 . S
C156 H169 0.947 . S
C156 C191 1.382 . S
C157 C156 1.384 . S
C157 C158 1.378 . S
C158 C157 1.378 . S
C158 C159 1.378 . S
C158 H170 0.952 . S
C159 C158 1.378 . S
C159 H171 0.950 . S
C159 C190 1.383 . S
H160 C179 0.947 . S
H161 C180 0.946 . S
H162 C182 0.953 . S
H163 C183 0.945 . S
H164 C185 0.952 . S
H165 C186 0.949 . S
H166 C188 0.950 . S
H167 C189 0.948 . S
H168 C191 0.951 . S
H169 C156 0.947 . S
H170 C158 0.952 . S
H171 C159 0.950 . S
N172 C175 1.382 . S
N172 C177 1.363 . S
N173 C175 1.371 . S
N173 C176 1.372 . S
N174 C176 1.361 . S
N174 C177 1.377 . S
C175 N172 1.382 . S
C175 N173 1.371 . S
C175 C178 1.480 . S
C176 N173 1.372 . S
C176 N174 1.361 . S
C176 C184 1.457 . S
C177 N172 1.363 . S
C177 N174 1.377 . S
C177 C190 1.479 . S
C178 C175 1.480 . S
C178 C179 1.383 . S
C178 C183 1.385 . S
C179 H160 0.947 . S
C179 C178 1.383 . S
C179 C180 1.388 . S
C180 H161 0.946 . S
C180 C179 1.388 . S
C180 C181 1.384 . S
C181 C180 1.384 . S
C181 C182 1.377 . S
C182 H162 0.953 . S
C182 C181 1.377 . S
C182 C183 1.369 . S
C183 H163 0.945 . S
C183 C178 1.385 . S
C183 C182 1.369 . S
C184 C176 1.457 . S
C184 C185 1.372 . S
C184 C189 1.364 . S
C185 H164 0.952 . S
C185 C184 1.372 . S
C185 C186 1.389 . S
C186 H165 0.949 . S
C186 C185 1.389 . S
C186 C187 1.387 . S
C187 C186 1.387 . S
C187 C188 1.372 . S
C188 H166 0.950 . S
C188 C187 1.372 . S
C188 C189 1.379 . S
C189 H167 0.948 . S
C189 C184 1.364 . S
C189 C188 1.379 . S
C190 C159 1.383 . S
C190 C177 1.479 . S
C190 C191 1.398 . S
C191 C156 1.382 . S
C191 H168 0.951 . S
C191 C190 1.398 . S
C192 C193 1.384 . S
C192 H205 0.947 . S
C192 C227 1.382 . S
C193 C192 1.384 . S
C193 C194 1.378 . S
C194 C193 1.378 . S
C194 C195 1.378 . S
C194 H206 0.952 . S
C195 C194 1.378 . S
C195 H207 0.950 1_655 S
C195 C226 1.383 . S
H196 C215 0.947 . S
H197 C216 0.946 . S
H198 C218 0.953 . S
H199 C219 0.945 . S
H200 C221 0.952 . S
H201 C222 0.949 . S
H202 C224 0.950 1_655 S
H203 C225 0.948 1_655 S
H204 C227 0.951 . S
H205 C192 0.947 . S
H206 C194 0.952 . S
H207 C195 0.950 1_455 S
N208 C211 1.382 . S
N208 C213 1.363 . S
N209 C211 1.371 . S
N209 C212 1.372 . S
N210 C212 1.361 . S
N210 C213 1.377 . S
C211 N208 1.382 . S
C211 N209 1.371 . S
C211 C214 1.480 . S
C212 N209 1.372 . S
C212 N210 1.361 . S
C212 C220 1.457 . S
C213 N208 1.363 . S
C213 N210 1.377 . S
C213 C226 1.479 1_455 S
C214 C211 1.480 . S
C214 C215 1.383 . S
C214 C219 1.385 . S
C215 H196 0.947 . S
C215 C214 1.383 . S
C215 C216 1.388 . S
C216 H197 0.946 . S
C216 C215 1.388 . S
C216 C217 1.384 . S
C217 C216 1.384 . S
C217 C218 1.377 . S
C218 H198 0.953 . S
C218 C217 1.377 . S
C218 C219 1.369 . S
C219 H199 0.945 . S
C219 C214 1.385 . S
C219 C218 1.369 . S
C220 C212 1.457 . S
C220 C221 1.372 . S
C220 C225 1.364 . S
C221 H200 0.952 . S
C221 C220 1.372 . S
C221 C222 1.389 . S
C222 H201 0.949 . S
C222 C221 1.389 . S
C222 C223 1.387 . S
C223 C222 1.387 . S
C223 C224 1.372 . S
C224 H202 0.950 1_455 S
C224 C223 1.372 . S
C224 C225 1.379 . S
C225 H203 0.948 1_455 S
C225 C220 1.364 . S
C225 C224 1.379 . S
C226 C195 1.383 . S
C226 C213 1.479 1_655 S
C226 C227 1.398 . S
C227 C192 1.382 . S
C227 H204 0.951 . S
C227 C226 1.398 . S
C228 C229 1.384 . S
C228 H241 0.947 . S
C228 C263 1.382 . S
C229 C228 1.384 . S
C229 C230 1.378 . S
C230 C229 1.378 . S
C230 C231 1.378 . S
C230 H242 0.952 . S
C231 C230 1.378 . S
C231 H243 0.950 . S
C231 C262 1.383 . S
H232 C251 0.947 . S
H233 C252 0.946 . S
H234 C254 0.953 . S
H235 C255 0.945 . S
H236 C257 0.952 . S
H237 C258 0.949 . S
H238 C260 0.950 . S
H239 C261 0.948 . S
H240 C263 0.951 . S
H241 C228 0.947 . S
H242 C230 0.952 . S
H243 C231 0.950 . S
N244 C247 1.382 1_455 S
N244 C249 1.363 . S
N245 C247 1.371 . S
N245 C248 1.372 1_655 S
N246 C248 1.361 . S
N246 C249 1.377 . S
C247 N244 1.382 1_655 S
C247 N245 1.371 . S
C247 C250 1.480 . S
C248 N245 1.372 1_455 S
C248 N246 1.361 . S
C248 C256 1.457 . S
C249 N244 1.363 . S
C249 N246 1.377 . S
C249 C262 1.479 . S
C250 C247 1.480 . S
C250 C251 1.383 . S
C250 C255 1.385 . S
C251 H232 0.947 . S
C251 C250 1.383 . S
C251 C252 1.388 . S
C252 H233 0.946 . S
C252 C251 1.388 . S
C252 C253 1.384 . S
C253 C252 1.384 . S
C253 C254 1.377 . S
C254 H234 0.953 . S
C254 C253 1.377 . S
C254 C255 1.369 . S
C255 H235 0.945 . S
C255 C250 1.385 . S
C255 C254 1.369 . S
C256 C248 1.457 . S
C256 C257 1.372 1_455 S
C256 C261 1.364 . S
C257 H236 0.952 . S
C257 C256 1.372 1_655 S
C257 C258 1.389 . S
C258 H237 0.949 . S
C258 C257 1.389 . S
C258 C259 1.387 1_655 S
C259 C258 1.387 1_455 S
C259 C260 1.372 . S
C260 H238 0.950 . S
C260 C259 1.372 . S
C260 C261 1.379 . S
C261 H239 0.948 . S
C261 C256 1.364 . S
C261 C260 1.379 . S
C262 C231 1.383 . S
C262 C249 1.479 . S
C262 C263 1.398 . S
C263 C228 1.382 . S
C263 H240 0.951 . S
C263 C262 1.398 . S
C264 C265 1.384 . S
C264 H277 0.947 . S
C264 C299 1.382 . S
C265 C264 1.384 . S
C265 C266 1.378 . S
C266 C265 1.378 . S
C266 C267 1.378 . S
C266 H278 0.952 . S
C267 C266 1.378 . S
C267 H279 0.950 . S
C267 C298 1.383 . S
H268 C287 0.947 . S
H269 C288 0.946 . S
H270 C290 0.953 . S
H271 C291 0.945 . S
H272 C293 0.952 . S
H273 C294 0.949 . S
H274 C296 0.950 . S
H275 C297 0.948 . S
H276 C299 0.951 . S
H277 C264 0.947 . S
H278 C266 0.952 . S
H279 C267 0.950 . S
N280 C283 1.382 1_545 S
N280 C285 1.363 . S
N281 C283 1.371 . S
N281 C284 1.372 1_565 S
N282 C284 1.361 . S
N282 C285 1.377 . S
C283 N280 1.382 1_565 S
C283 N281 1.371 . S
C283 C286 1.480 . S
C284 N281 1.372 1_545 S
C284 N282 1.361 . S
C284 C292 1.457 . S
C285 N280 1.363 . S
C285 N282 1.377 . S
C285 C298 1.479 . S
C286 C283 1.480 . S
C286 C287 1.383 . S
C286 C291 1.385 . S
C287 H268 0.947 . S
C287 C286 1.383 . S
C287 C288 1.388 . S
C288 H269 0.946 . S
C288 C287 1.388 . S
C288 C289 1.384 . S
C289 C288 1.384 . S
C289 C290 1.377 . S
C290 H270 0.953 . S
C290 C289 1.377 . S
C290 C291 1.369 . S
C291 H271 0.945 . S
C291 C286 1.385 . S
C291 C290 1.369 . S
C292 C284 1.457 . S
C292 C293 1.372 1_545 S
C292 C297 1.364 . S
C293 H272 0.952 . S
C293 C292 1.372 1_565 S
C293 C294 1.389 . S
C294 H273 0.949 . S
C294 C293 1.389 . S
C294 C295 1.387 . S
C295 C294 1.387 . S
C295 C296 1.372 1_565 S
C296 H274 0.950 . S
C296 C295 1.372 1_545 S
C296 C297 1.379 . S
C297 H275 0.948 . S
C297 C292 1.364 . S
C297 C296 1.379 . S
C298 C267 1.383 . S
C298 C285 1.479 . S
C298 C299 1.398 . S
C299 C264 1.382 . S
C299 H276 0.951 . S
C299 C298 1.398 . S
C300 C301 1.384 . S
C300 H313 0.947 . S
C300 C335 1.382 . S
C301 C300 1.384 . S
C301 C302 1.378 . S
C302 C301 1.378 . S
C302 C303 1.378 . S
C302 H314 0.952 . S
C303 C302 1.378 . S
C303 H315 0.950 . S
C303 C334 1.383 . S
H304 C323 0.947 . S
H305 C324 0.946 . S
H306 C326 0.953 . S
H307 C327 0.945 . S
H308 C329 0.952 . S
H309 C330 0.949 . S
H310 C332 0.950 . S
H311 C333 0.948 . S
H312 C335 0.951 . S
H313 C300 0.947 . S
H314 C302 0.952 . S
H315 C303 0.950 . S
N316 C319 1.382 . S
N316 C321 1.363 . S
N317 C319 1.371 . S
N317 C320 1.372 . S
N318 C320 1.361 . S
N318 C321 1.377 . S
C319 N316 1.382 . S
C319 N317 1.371 . S
C319 C322 1.480 . S
C320 N317 1.372 . S
C320 N318 1.361 . S
C320 C328 1.457 . S
C321 N316 1.363 . S
C321 N318 1.377 . S
C321 C334 1.479 . S
C322 C319 1.480 . S
C322 C323 1.383 . S
C322 C327 1.385 . S
C323 H304 0.947 . S
C323 C322 1.383 . S
C323 C324 1.388 . S
C324 H305 0.946 . S
C324 C323 1.388 . S
C324 C325 1.384 . S
C325 C324 1.384 . S
C325 C326 1.377 . S
C326 H306 0.953 . S
C326 C325 1.377 . S
C326 C327 1.369 . S
C327 H307 0.945 . S
C327 C322 1.385 . S
C327 C326 1.369 . S
C328 C320 1.457 . S
C328 C329 1.372 . S
C328 C333 1.364 . S
C329 H308 0.952 . S
C329 C328 1.372 . S
C329 C330 1.389 . S
C330 H309 0.949 . S
C330 C329 1.389 . S
C330 C331 1.387 . S
C331 C330 1.387 . S
C331 C332 1.372 . S
C332 H310 0.950 . S
C332 C331 1.372 . S
C332 C333 1.379 . S
C333 H311 0.948 . S
C333 C328 1.364 . S
C333 C332 1.379 . S
C334 C303 1.383 . S
C334 C321 1.479 . S
C334 C335 1.398 . S
C335 C300 1.382 . S
C335 H312 0.951 . S
C335 C334 1.398 . S
H336 C344 0.950 . S
H337 C349 0.950 . S
H338 C346 0.950 . S
H339 C348 0.950 . S
H340 C350 0.950 . S
H341 C352 0.950 . S
H342 C354 0.950 . S
H343 C355 0.950 . S
C344 H336 0.950 . S
C344 C345 1.386 . S
C344 C346 1.391 . S
C345 C344 1.386 . S
C345 C349 1.393 . S
C346 H338 0.950 . S
C346 C344 1.391 . S
C346 C347 1.400 . S
C347 C346 1.400 . S
C347 C348 1.398 . S
C347 C353 1.491 . S
C348 H339 0.950 . S
C348 C347 1.398 . S
C348 C349 1.391 . S
C349 H337 0.950 . S
C349 C345 1.393 . S
C349 C348 1.391 . S
C350 H340 0.950 . S
C350 C351 1.386 . S
C350 C352 1.391 . S
C351 C350 1.386 . S
C351 C355 1.393 . S
C352 H341 0.950 . S
C352 C350 1.391 . S
C352 C353 1.400 . S
C353 C347 1.491 . S
C353 C352 1.400 . S
C353 C354 1.398 . S
C354 H342 0.950 . S
C354 C353 1.398 . S
C354 C355 1.391 . S
C355 H343 0.950 . S
C355 C351 1.393 . S
C355 C354 1.391 . S
H356 C364 0.950 . S
H357 C369 0.950 . S
H358 C366 0.950 . S
H359 C368 0.950 . S
H360 C370 0.950 . S
H361 C372 0.950 . S
H362 C374 0.950 . S
H363 C375 0.950 . S
C364 H356 0.950 . S
C364 C365 1.386 . S
C364 C366 1.391 . S
C365 C364 1.386 . S
C365 C369 1.393 . S
C366 H358 0.950 . S
C366 C364 1.391 . S
C366 C367 1.400 . S
C367 C366 1.400 . S
C367 C368 1.398 . S
C367 C373 1.491 . S
C368 H359 0.950 . S
C368 C367 1.398 . S
C368 C369 1.391 . S
C369 H357 0.950 . S
C369 C365 1.393 . S
C369 C368 1.391 . S
C370 H360 0.950 . S
C370 C371 1.386 . S
C370 C372 1.391 . S
C371 C370 1.386 . S
C371 C375 1.393 . S
C372 H361 0.950 . S
C372 C370 1.391 . S
C372 C373 1.400 . S
C373 C367 1.491 . S
C373 C372 1.400 . S
C373 C374 1.398 . S
C374 H362 0.950 . S
C374 C373 1.398 . S
C374 C375 1.391 . S
C375 H363 0.950 . S
C375 C371 1.393 . S
C375 C374 1.391 . S
H376 C384 0.950 . S
H377 C389 0.950 . S
H378 C386 0.950 . S
H379 C388 0.950 . S
H380 C390 0.950 . S
H381 C392 0.950 . S
H382 C394 0.950 . S
H383 C395 0.950 . S
C384 H376 0.950 . S
C384 C385 1.386 . S
C384 C386 1.391 . S
C385 C384 1.386 . S
C385 C389 1.393 . S
C386 H378 0.950 . S
C386 C384 1.391 . S
C386 C387 1.400 . S
C387 C386 1.400 . S
C387 C388 1.398 . S
C387 C393 1.491 . S
C388 H379 0.950 . S
C388 C387 1.398 . S
C388 C389 1.391 . S
C389 H377 0.950 . S
C389 C385 1.393 . S
C389 C388 1.391 . S
C390 H380 0.950 . S
C390 C391 1.386 . S
C390 C392 1.391 . S
C391 C390 1.386 . S
C391 C395 1.393 . S
C392 H381 0.950 . S
C392 C390 1.391 . S
C392 C393 1.400 . S
C393 C387 1.491 . S
C393 C392 1.400 . S
C393 C394 1.398 . S
C394 H382 0.950 . S
C394 C393 1.398 . S
C394 C395 1.391 . S
C395 H383 0.950 . S
C395 C391 1.393 . S
C395 C394 1.391 . S
H396 C404 0.950 . S
H397 C409 0.950 . S
H398 C406 0.950 . S
H399 C408 0.950 . S
H400 C410 0.950 . S
H401 C412 0.950 . S
H402 C414 0.950 . S
H403 C415 0.950 . S
C404 H396 0.950 . S
C404 C405 1.386 . S
C404 C406 1.391 . S
C405 C404 1.386 . S
C405 C409 1.393 . S
C406 H398 0.950 . S
C406 C404 1.391 . S
C406 C407 1.400 . S
C407 C406 1.400 . S
C407 C408 1.398 . S
C407 C413 1.491 . S
C408 H399 0.950 . S
C408 C407 1.398 . S
C408 C409 1.391 . S
C409 H397 0.950 . S
C409 C405 1.393 . S
C409 C408 1.391 . S
C410 H400 0.950 . S
C410 C411 1.386 . S
C410 C412 1.391 . S
C411 C410 1.386 . S
C411 C415 1.393 . S
C412 H401 0.950 . S
C412 C410 1.391 . S
C412 C413 1.400 . S
C413 C407 1.491 . S
C413 C412 1.400 . S
C413 C414 1.398 . S
C414 H402 0.950 . S
C414 C413 1.398 . S
C414 C415 1.391 . S
C415 H403 0.950 . S
C415 C411 1.393 . S
C415 C414 1.391 . S
H416 C424 0.950 . S
H417 C429 0.950 . S
H418 C426 0.950 . S
H419 C428 0.950 . S
H420 C430 0.950 . S
H421 C432 0.950 . S
H422 C434 0.950 . S
H423 C435 0.950 . S
C424 H416 0.950 . S
C424 C425 1.386 . S
C424 C426 1.391 . S
C425 C424 1.386 . S
C425 C429 1.393 . S
C426 H418 0.950 . S
C426 C424 1.391 . S
C426 C427 1.400 . S
C427 C426 1.400 . S
C427 C428 1.398 . S
C427 C433 1.491 . S
C428 H419 0.950 . S
C428 C427 1.398 . S
C428 C429 1.391 . S
C429 H417 0.950 . S
C429 C425 1.393 . S
C429 C428 1.391 . S
C430 H420 0.950 . S
C430 C431 1.386 . S
C430 C432 1.391 . S
C431 C430 1.386 . S
C431 C435 1.393 . S
C432 H421 0.950 . S
C432 C430 1.391 . S
C432 C433 1.400 . S
C433 C427 1.491 . S
C433 C432 1.400 . S
C433 C434 1.398 . S
C434 H422 0.950 . S
C434 C433 1.398 . S
C434 C435 1.391 . S
C435 H423 0.950 . S
C435 C431 1.393 . S
C435 C434 1.391 . S
H436 C444 0.950 . S
H437 C449 0.950 . S
H438 C446 0.950 . S
H439 C448 0.950 . S
H440 C450 0.950 . S
H441 C452 0.950 . S
H442 C454 0.950 . S
H443 C455 0.950 . S
C444 H436 0.950 . S
C444 C445 1.386 . S
C444 C446 1.391 . S
C445 C444 1.386 . S
C445 C449 1.393 . S
C446 H438 0.950 . S
C446 C444 1.391 . S
C446 C447 1.400 . S
C447 C446 1.400 . S
C447 C448 1.398 . S
C447 C453 1.491 . S
C448 H439 0.950 . S
C448 C447 1.398 . S
C448 C449 1.391 . S
C449 H437 0.950 . S
C449 C445 1.393 . S
C449 C448 1.391 . S
C450 H440 0.950 . S
C450 C451 1.386 . S
C450 C452 1.391 . S
C451 C450 1.386 . S
C451 C455 1.393 . S
C452 H441 0.950 . S
C452 C450 1.391 . S
C452 C453 1.400 . S
C453 C447 1.491 . S
C453 C452 1.400 . S
C453 C454 1.398 . S
C454 H442 0.950 . S
C454 C453 1.398 . S
C454 C455 1.391 . S
C455 H443 0.950 . S
C455 C451 1.393 . S
C455 C454 1.391 . S
H456 C464 0.950 . S
H457 C469 0.950 . S
H458 C466 0.950 . S
H459 C468 0.950 . S
H460 C470 0.950 . S
H461 C472 0.950 . S
H462 C474 0.950 . S
H463 C475 0.950 . S
C464 H456 0.950 . S
C464 C465 1.386 . S
C464 C466 1.391 . S
C465 C464 1.386 . S
C465 C469 1.393 . S
C466 H458 0.950 . S
C466 C464 1.391 . S
C466 C467 1.400 . S
C467 C466 1.400 . S
C467 C468 1.398 . S
C467 C473 1.491 . S
C468 H459 0.950 . S
C468 C467 1.398 . S
C468 C469 1.391 . S
C469 H457 0.950 . S
C469 C465 1.393 . S
C469 C468 1.391 . S
C470 H460 0.950 . S
C470 C471 1.386 . S
C470 C472 1.391 . S
C471 C470 1.386 . S
C471 C475 1.393 . S
C472 H461 0.950 . S
C472 C470 1.391 . S
C472 C473 1.400 . S
C473 C467 1.491 . S
C473 C472 1.400 . S
C473 C474 1.398 . S
C474 H462 0.950 . S
C474 C473 1.398 . S
C474 C475 1.391 . S
C475 H463 0.950 . S
C475 C471 1.393 . S
C475 C474 1.391 . S
H476 C484 0.950 . S
H477 C489 0.950 . S
H478 C486 0.950 . S
H479 C488 0.950 . S
H480 C490 0.950 . S
H481 C492 0.950 . S
H482 C494 0.950 . S
H483 C495 0.950 . S
C484 H476 0.950 . S
C484 C485 1.386 . S
C484 C486 1.391 . S
C485 C484 1.386 . S
C485 C489 1.393 . S
C486 H478 0.950 . S
C486 C484 1.391 . S
C486 C487 1.400 . S
C487 C486 1.400 . S
C487 C488 1.398 . S
C487 C493 1.491 . S
C488 H479 0.950 . S
C488 C487 1.398 . S
C488 C489 1.391 . S
C489 H477 0.950 . S
C489 C485 1.393 . S
C489 C488 1.391 . S
C490 H480 0.950 . S
C490 C491 1.386 . S
C490 C492 1.391 . S
C491 C490 1.386 . S
C491 C495 1.393 . S
C492 H481 0.950 . S
C492 C490 1.391 . S
C492 C493 1.400 . S
C493 C487 1.491 . S
C493 C492 1.400 . S
C493 C494 1.398 . S
C494 H482 0.950 . S
C494 C493 1.398 . S
C494 C495 1.391 . S
C495 H483 0.950 . S
C495 C491 1.393 . S
C495 C494 1.391 . S
H496 C504 0.950 . S
H497 C509 0.950 . S
H498 C506 0.950 . S
H499 C508 0.950 . S
H500 C510 0.950 . S
H501 C512 0.950 . S
H502 C514 0.950 . S
H503 C515 0.950 . S
C504 H496 0.950 . S
C504 C505 1.386 . S
C504 C506 1.391 . S
C505 C504 1.386 . S
C505 C509 1.393 . S
C506 H498 0.950 . S
C506 C504 1.391 . S
C506 C507 1.400 . S
C507 C506 1.400 . S
C507 C508 1.398 . S
C507 C513 1.491 . S
C508 H499 0.950 . S
C508 C507 1.398 . S
C508 C509 1.391 . S
C509 H497 0.950 . S
C509 C505 1.393 . S
C509 C508 1.391 . S
C510 H500 0.950 . S
C510 C511 1.386 . S
C510 C512 1.391 . S
C511 C510 1.386 . S
C511 C515 1.393 . S
C512 H501 0.950 . S
C512 C510 1.391 . S
C512 C513 1.400 . S
C513 C507 1.491 . S
C513 C512 1.400 . S
C513 C514 1.398 . S
C514 H502 0.950 . S
C514 C513 1.398 . S
C514 C515 1.391 . S
C515 H503 0.950 . S
C515 C511 1.393 . S
C515 C514 1.391 . S
H516 C524 0.950 . S
H517 C529 0.950 . S
H518 C526 0.950 . S
H519 C528 0.950 . S
H520 C530 0.950 . S
H521 C532 0.950 . S
H522 C534 0.950 . S
H523 C535 0.950 . S
C524 H516 0.950 . S
C524 C525 1.386 . S
C524 C526 1.391 . S
C525 C524 1.386 . S
C525 C529 1.393 . S
C526 H518 0.950 . S
C526 C524 1.391 . S
C526 C527 1.400 . S
C527 C526 1.400 . S
C527 C528 1.398 . S
C527 C533 1.491 . S
C528 H519 0.950 . S
C528 C527 1.398 . S
C528 C529 1.391 . S
C529 H517 0.950 . S
C529 C525 1.393 . S
C529 C528 1.391 . S
C530 H520 0.950 . S
C530 C531 1.386 . S
C530 C532 1.391 . S
C531 C530 1.386 . S
C531 C535 1.393 . S
C532 H521 0.950 . S
C532 C530 1.391 . S
C532 C533 1.400 . S
C533 C527 1.491 . S
C533 C532 1.400 . S
C533 C534 1.398 . S
C534 H522 0.950 . S
C534 C533 1.398 . S
C534 C535 1.391 . S
C535 H523 0.950 . S
C535 C531 1.393 . S
C535 C534 1.391 . S
H536 C544 0.950 . S
H537 C549 0.950 . S
H538 C546 0.950 . S
H539 C548 0.950 . S
H540 C550 0.950 . S
H541 C552 0.950 . S
H542 C554 0.950 . S
H543 C555 0.950 . S
C544 H536 0.950 . S
C544 C545 1.386 . S
C544 C546 1.391 . S
C545 C544 1.386 . S
C545 C549 1.393 . S
C546 H538 0.950 . S
C546 C544 1.391 . S
C546 C547 1.400 . S
C547 C546 1.400 . S
C547 C548 1.398 . S
C547 C553 1.491 . S
C548 H539 0.950 . S
C548 C547 1.398 . S
C548 C549 1.391 . S
C549 H537 0.950 . S
C549 C545 1.393 . S
C549 C548 1.391 . S
C550 H540 0.950 . S
C550 C551 1.386 . S
C550 C552 1.391 . S
C551 C550 1.386 . S
C551 C555 1.393 . S
C552 H541 0.950 . S
C552 C550 1.391 . S
C552 C553 1.400 . S
C553 C547 1.491 . S
C553 C552 1.400 . S
C553 C554 1.398 . S
C554 H542 0.950 . S
C554 C553 1.398 . S
C554 C555 1.391 . S
C555 H543 0.950 . S
C555 C551 1.393 . S
C555 C554 1.391 . S
H556 C564 0.950 . S
H557 C569 0.950 . S
H558 C566 0.950 . S
H559 C568 0.950 . S
H560 C570 0.950 . S
H561 C572 0.950 . S
H562 C574 0.950 . S
H563 C575 0.950 . S
C564 H556 0.950 . S
C564 C565 1.386 . S
C564 C566 1.391 . S
C565 C564 1.386 . S
C565 C569 1.393 . S
C566 H558 0.950 . S
C566 C564 1.391 . S
C566 C567 1.400 . S
C567 C566 1.400 . S
C567 C568 1.398 . S
C567 C573 1.491 . S
C568 H559 0.950 . S
C568 C567 1.398 . S
C568 C569 1.391 . S
C569 H557 0.950 . S
C569 C565 1.393 . S
C569 C568 1.391 . S
C570 H560 0.950 . S
C570 C571 1.386 . S
C570 C572 1.391 . S
C571 C570 1.386 . S
C571 C575 1.393 . S
C572 H561 0.950 . S
C572 C570 1.391 . S
C572 C573 1.400 . S
C573 C567 1.491 . S
C573 C572 1.400 . S
C573 C574 1.398 . S
C574 H562 0.950 . S
C574 C573 1.398 . S
C574 C575 1.391 . S
C575 H563 0.950 . S
C575 C571 1.393 . S
C575 C574 1.391 . S
H576 C584 0.950 . S
H577 C589 0.950 . S
H578 C586 0.950 . S
H579 C588 0.950 . S
H580 C590 0.981 . S
H581 C592 0.950 . S
H582 C594 0.950 . S
H583 C595 0.950 . S
C584 H576 0.950 . S
C584 C585 1.386 . S
C584 C586 1.391 . S
C585 C584 1.386 . S
C585 C589 1.393 . S
C586 H578 0.950 . S
C586 C584 1.391 . S
C586 C587 1.400 . S
C587 C586 1.400 . S
C587 C588 1.398 . S
C587 C593 1.491 . S
C588 H579 0.950 . S
C588 C587 1.398 . S
C588 C589 1.391 . S
C589 H577 0.950 . S
C589 C585 1.393 . S
C589 C588 1.391 . S
C590 H580 0.981 . S
C590 C591 1.386 1_554 S
C590 C592 1.391 . S
C591 C590 1.386 1_556 S
C591 C595 1.393 1_556 S
C592 H581 0.950 . S
C592 C590 1.391 . S
C592 C593 1.400 . S
C593 C587 1.491 . S
C593 C592 1.400 . S
C593 C594 1.398 . S
C594 H582 0.950 . S
C594 C593 1.398 . S
C594 C595 1.391 . S
C595 H583 0.950 . S
C595 C591 1.393 1_554 S
C595 C594 1.391 . S
H596 C604 0.950 . S
H597 C609 0.950 . S
H598 C606 0.950 . S
H599 C608 0.950 . S
H600 C610 0.950 . S
H601 C612 0.950 . S
H602 C614 0.950 . S
H603 C615 0.950 . S
C604 H596 0.950 . S
C604 C605 1.386 . S
C604 C606 1.391 . S
C605 C604 1.386 . S
C605 C609 1.393 . S
C606 H598 0.950 . S
C606 C604 1.391 . S
C606 C607 1.400 . S
C607 C606 1.400 . S
C607 C608 1.398 . S
C607 C613 1.491 . S
C608 H599 0.950 . S
C608 C607 1.398 . S
C608 C609 1.391 . S
C609 H597 0.950 . S
C609 C605 1.393 . S
C609 C608 1.391 . S
C610 H600 0.950 . S
C610 C611 1.386 . S
C610 C612 1.391 . S
C611 C610 1.386 . S
C611 C615 1.393 . S
C612 H601 0.950 . S
C612 C610 1.391 . S
C612 C613 1.400 . S
C613 C607 1.491 . S
C613 C612 1.400 . S
C613 C614 1.398 . S
C614 H602 0.950 . S
C614 C613 1.398 . S
C614 C615 1.391 . S
C615 H603 0.950 . S
C615 C611 1.393 . S
C615 C614 1.391 . S
H616 C624 0.950 . S
H617 C629 0.950 . S
H618 C626 0.950 . S
H619 C628 0.950 . S
H620 C630 0.950 . S
H621 C632 0.950 . S
H622 C634 0.950 . S
H623 C635 0.950 . S
C624 H616 0.950 . S
C624 C625 1.386 . S
C624 C626 1.391 . S
C625 C624 1.386 . S
C625 C629 1.393 . S
C626 H618 0.950 . S
C626 C624 1.391 . S
C626 C627 1.400 . S
C627 C626 1.400 . S
C627 C628 1.398 . S
C627 C633 1.491 . S
C628 H619 0.950 . S
C628 C627 1.398 . S
C628 C629 1.391 . S
C629 H617 0.950 . S
C629 C625 1.393 . S
C629 C628 1.391 . S
C630 H620 0.950 . S
C630 C631 1.386 . S
C630 C632 1.391 . S
C631 C630 1.386 . S
C631 C635 1.393 . S
C632 H621 0.950 . S
C632 C630 1.391 . S
C632 C633 1.400 . S
C633 C627 1.491 . S
C633 C632 1.400 . S
C633 C634 1.398 . S
C634 H622 0.950 . S
C634 C633 1.398 . S
C634 C635 1.391 . S
C635 H623 0.950 . S
C635 C631 1.393 . S
C635 C634 1.391 . S
H636 C644 0.950 . S
H637 C649 0.950 . S
H638 C646 0.950 . S
H639 C648 0.950 . S
H640 C650 0.950 . S
H641 C652 0.950 . S
H642 C654 0.950 . S
H643 C655 0.950 . S
C644 H636 0.950 . S
C644 C645 1.386 1_565 S
C644 C646 1.391 . S
C645 C644 1.386 1_545 S
C645 C649 1.393 . S
C646 H638 0.950 . S
C646 C644 1.391 . S
C646 C647 1.411 1_565 S
C647 C646 1.411 1_545 S
C647 C648 1.390 . S
C647 C653 1.489 . S
C648 H639 0.950 . S
C648 C647 1.390 . S
C648 C649 1.391 . S
C649 H637 0.950 . S
C649 C645 1.393 . S
C649 C648 1.391 . S
C650 H640 0.950 . S
C650 C651 1.386 1_545 S
C650 C652 1.391 . S
C651 C650 1.386 1_565 S
C651 C655 1.393 . S
C652 H641 0.950 . S
C652 C650 1.391 . S
C652 C653 1.399 . S
C653 C647 1.489 . S
C653 C652 1.399 . S
C653 C654 1.399 1_545 S
C654 H642 0.950 . S
C654 C653 1.399 1_565 S
C654 C655 1.391 . S
C655 H643 0.950 . S
C655 C651 1.393 . S
C655 C654 1.391 . S
H656 C664 0.950 . S
H657 C669 0.950 . S
H658 C666 0.950 . S
H659 C668 0.950 . S
H660 C670 0.950 . S
H661 C672 0.950 . S
H662 C674 0.950 . S
H663 C675 0.950 . S
C664 H656 0.950 . S
C664 C665 1.386 . S
C664 C666 1.391 . S
C665 C664 1.386 . S
C665 C669 1.393 . S
C666 H658 0.950 . S
C666 C664 1.391 . S
C666 C667 1.400 . S
C667 C666 1.400 . S
C667 C668 1.398 . S
C667 C673 1.491 . S
C668 H659 0.950 . S
C668 C667 1.398 . S
C668 C669 1.391 . S
C669 H657 0.950 . S
C669 C665 1.393 . S
C669 C668 1.391 . S
C670 H660 0.950 . S
C670 C671 1.386 . S
C670 C672 1.391 . S
C671 C670 1.386 . S
C671 C675 1.393 . S
C672 H661 0.950 . S
C672 C670 1.391 . S
C672 C673 1.400 . S
C673 C667 1.491 . S
C673 C672 1.400 . S
C673 C674 1.398 . S
C674 H662 0.950 . S
C674 C673 1.398 . S
C674 C675 1.391 . S
C675 H663 0.950 . S
C675 C671 1.393 . S
C675 C674 1.391 . S
H676 C684 0.950 . S
H677 C689 0.950 . S
H678 C686 0.950 . S
H679 C688 0.950 . S
H680 C690 0.950 . S
H681 C692 0.950 . S
H682 C694 0.950 . S
H683 C695 0.950 . S
C684 H676 0.950 . S
C684 C685 1.386 1_655 S
C684 C686 1.391 . S
C685 C684 1.386 1_455 S
C685 C689 1.393 . S
C686 H678 0.950 . S
C686 C684 1.391 . S
C686 C687 1.400 1_655 S
C687 C686 1.400 1_455 S
C687 C688 1.398 . S
C687 C693 1.491 . S
C688 H679 0.950 . S
C688 C687 1.398 . S
C688 C689 1.391 . S
C689 H677 0.950 . S
C689 C685 1.393 . S
C689 C688 1.391 . S
C690 H680 0.950 . S
C690 C691 1.386 . S
C690 C692 1.391 . S
C691 C690 1.386 . S
C691 C695 1.393 1_455 S
C692 H681 0.950 . S
C692 C690 1.391 . S
C692 C693 1.400 . S
C693 C687 1.491 . S
C693 C692 1.400 . S
C693 C694 1.398 1_455 S
C694 H682 0.950 . S
C694 C693 1.398 1_655 S
C694 C695 1.391 . S
C695 H683 0.950 . S
C695 C691 1.393 1_655 S
C695 C694 1.391 . S
C345 C7 0.627 . S
C351 C325 0.601 . S
C365 C51 1.924 . S
C371 C253 1.866 . S
C385 C87 1.223 . S
C391 C289 1.233 . S
C405 C16 0.442 . S
C411 C301 0.343 . S
C431 C229 1.992 . S
C425 C42 2.043 . S
C451 C265 1.314 . S
C445 C96 1.317 . S
C465 C47 1.218 . S
C471 C181 1.206 . S
C485 C91 3.112 . S
C491 C193 3.069 . S
C505 C2 2.064 . S
C511 C121 2.044 . S
C531 C157 1.315 . S
C525 C56 1.287 . S
C551 C217 2.945 . S
C545 C82 3.010 . S
C565 C11 1.918 . S
C571 C145 1.855 . S
C591 C223 1.764 . S
C585 C19 1.715 . S
C605 C50 1.343 . S
C611 C151 1.369 . S
C625 C99 1.474 . S
C631 C187 1.504 . S
C651 C295 1.479 . S
C645 C59 1.461 . S
C671 C331 1.104 1_556 S
C665 C90 1.101 . S
C685 C10 1.333 . S
C691 C259 1.360 . S
