# Generated by pormake.
# Topology zzz, (3,6)-cn, num edge types: 1
# Building blocks:
#     Node 0, Type 0, BuildingBlock: INOVEN_clean_linker_0, # of connection points: 3
#     Node 1, Type 0, BuildingBlock: INOVEN_clean_linker_0, # of connection points: 3
#     Node 2, Type 0, BuildingBlock: INOVEN_clean_linker_0, # of connection points: 3
#     Node 3, Type 0, BuildingBlock: INOVEN_clean_linker_0, # of connection points: 3
#     Node 4, Type 0, BuildingBlock: INOVEN_clean_linker_0, # of connection points: 3
#     Node 5, Type 0, BuildingBlock: INOVEN_clean_linker_0, # of connection points: 3
#     Node 6, Type 0, BuildingBlock: INOVEN_clean_linker_0, # of connection points: 3
#     Node 7, Type 0, BuildingBlock: INOVEN_clean_linker_0, # of connection points: 3
#     Node 8, Type 1, BuildingBlock: FUNLAD_clean_sbu_0, # of connection points: 6
#     Node 9, Type 1, BuildingBlock: FUNLAD_clean_sbu_0, # of connection points: 6
#     Node 10, Type 1, BuildingBlock: FUNLAD_clean_sbu_0, # of connection points: 6
#     Node 11, Type 1, BuildingBlock: FUNLAD_clean_sbu_0, # of connection points: 6
#     Edge 12, Type (0, 1), BuildingBlock: OJICUG_clean_linker_0, # of connection points: 2
#     Edge 13, Type (0, 1), BuildingBlock: OJICUG_clean_linker_0, # of connection points: 2
#     Edge 14, Type (0, 1), BuildingBlock: OJICUG_clean_linker_0, # of connection points: 2
#     Edge 15, Type (0, 1), BuildingBlock: OJICUG_clean_linker_0, # of connection points: 2
#     Edge 16, Type (0, 1), BuildingBlock: OJICUG_clean_linker_0, # of connection points: 2
#     Edge 17, Type (0, 1), BuildingBlock: OJICUG_clean_linker_0, # of connection points: 2
#     Edge 18, Type (0, 1), BuildingBlock: OJICUG_clean_linker_0, # of connection points: 2
#     Edge 19, Type (0, 1), BuildingBlock: OJICUG_clean_linker_0, # of connection points: 2
#     Edge 20, Type (0, 1), BuildingBlock: OJICUG_clean_linker_0, # of connection points: 2
#     Edge 21, Type (0, 1), BuildingBlock: OJICUG_clean_linker_0, # of connection points: 2
#     Edge 22, Type (0, 1), BuildingBlock: OJICUG_clean_linker_0, # of connection points: 2
#     Edge 23, Type (0, 1), BuildingBlock: OJICUG_clean_linker_0, # of connection points: 2
#     Edge 24, Type (0, 1), BuildingBlock: OJICUG_clean_linker_0, # of connection points: 2
#     Edge 25, Type (0, 1), BuildingBlock: OJICUG_clean_linker_0, # of connection points: 2
#     Edge 26, Type (0, 1), BuildingBlock: OJICUG_clean_linker_0, # of connection points: 2
#     Edge 27, Type (0, 1), BuildingBlock: OJICUG_clean_linker_0, # of connection points: 2
#     Edge 28, Type (0, 1), BuildingBlock: OJICUG_clean_linker_0, # of connection points: 2
#     Edge 29, Type (0, 1), BuildingBlock: OJICUG_clean_linker_0, # of connection points: 2
#     Edge 30, Type (0, 1), BuildingBlock: OJICUG_clean_linker_0, # of connection points: 2
#     Edge 31, Type (0, 1), BuildingBlock: OJICUG_clean_linker_0, # of connection points: 2
#     Edge 32, Type (0, 1), BuildingBlock: OJICUG_clean_linker_0, # of connection points: 2
#     Edge 33, Type (0, 1), BuildingBlock: OJICUG_clean_linker_0, # of connection points: 2
#     Edge 34, Type (0, 1), BuildingBlock: OJICUG_clean_linker_0, # of connection points: 2
#     Edge 35, Type (0, 1), BuildingBlock: OJICUG_clean_linker_0, # of connection points: 2
# Relax obj value: 0.113
# Max RMSD: 0.176
# Mean RMSD: 0.095
data_MOF--net-zzz--node1-FUNLAD_clean_sbu_0--node2-INOVEN_clean_linker_0--edge1-OJICUG_clean_linker_0
_symmetry_space_group_name_H-M    P1
_symmetry_Int_Tables_number       1
_symmetry_cell_setting            triclinic
loop_
_symmetry_equiv_pos_as_xyz
'x, y, z'
_cell_length_a     37.08098
_cell_length_b     43.203313
_cell_length_c     13.177554
_cell_angle_alpha  83.245004
_cell_angle_beta   82.633637
_cell_angle_gamma 89.459652
loop_
_atom_site_label
_atom_site_type_symbol
_atom_site_fract_x
_atom_site_fract_y
_atom_site_fract_z
_atom_type_partial_charge
H0 H 0.81586 0.50336 0.46295 0.0
H1 H 0.92902 0.47854 0.41361 0.0
H2 H 0.86421 0.47866 0.16763 0.0
N3 N 0.80199 0.49628 0.27047 0.0
N4 N 0.8021 0.50343 0.17572 0.0
C5 C 0.83891 0.49539 0.41383 0.0
C6 C 0.87283 0.4908 0.45066 0.0
C7 C 0.83553 0.49071 0.31122 0.0
C8 C 0.86619 0.48141 0.24742 0.0
C9 C 0.89987 0.47724 0.28405 0.0
C10 C 0.9027 0.48128 0.38585 0.0
H11 H 0.99102 0.76812 0.30116 0.0
H12 H 0.04176 0.85718 0.28645 0.0
H13 H 0.04382 0.8122 0.01082 0.0
N14 N 1.01544 0.75748 0.11121 0.0
N15 N 0.02671 0.75383 0.02004 0.0
C16 C 1.00663 0.78735 0.25683 0.0
C17 C 1.01385 0.81365 0.30318 0.0
C18 C 0.0197 0.78591 0.15269 0.0
C19 C 0.03679 0.81243 0.09294 0.0
C20 C 0.04346 0.8393 0.13963 0.0
C21 C 0.03485 0.83794 0.24659 0.0
H22 H 0.77679 1.00348 0.3278 0.0
H23 H 0.67038 0.02119 0.23734 0.0
H24 H 0.76125 0.01546 0.00546 0.0
N25 N 0.81239 0.00629 0.13512 0.0
N26 N 0.82457 1.00079 0.04616 0.0
C27 C 0.75937 0.00822 0.26788 0.0
C28 C 0.72169 0.01228 0.29421 0.0
C29 C 0.77421 0.00977 0.16304 0.0
C30 C 0.75075 0.01494 0.08625 0.0
C31 C 0.71356 0.01966 0.11351 0.0
C32 C 0.6995 0.01864 0.2167 0.0
H33 H 0.56561 0.69766 0.30694 0.0
H34 H 0.53752 0.6064 0.24178 0.0
H35 H 0.5183 0.68637 0.03062 0.0
N36 N 0.54597 0.72883 0.13494 0.0
N37 N 0.5353 0.74091 0.05328 0.0
C38 C 0.55455 0.68287 0.25743 0.0
C39 C 0.55275 0.65042 0.28463 0.0
C40 C 0.54239 0.69613 0.1651 0.0
C41 C 0.52769 0.67656 0.10202 0.0
C42 C 0.52556 0.64422 0.12957 0.0
C43 C 0.53825 0.63146 0.22076 0.0
H44 H 0.27021 0.50762 0.05601 0.0
H45 H 0.15689 0.53226 0.10021 0.0
H46 H 0.22093 0.53596 0.34564 0.0
N47 N 0.28392 0.51769 0.24617 0.0
N48 N 0.28664 0.52488 0.33403 0.0
C49 C 0.24705 0.5161 0.10348 0.0
C50 C 0.21324 0.52013 0.06555 0.0
C51 C 0.2504 0.52269 0.20437 0.0
C52 C 0.21944 0.53248 0.26619 0.0
C53 C 0.18573 0.53545 0.22927 0.0
C54 C 0.18318 0.53016 0.12845 0.0
H55 H 0.09589 0.24274 0.21377 0.0
H56 H 0.04508 0.15372 0.22815 0.0
H57 H 0.04298 0.19863 0.50391 0.0
N58 N 0.07142 0.25334 0.40376 0.0
N59 N 0.0601 0.25696 0.49492 0.0
C60 C 0.08025 0.22352 0.25802 0.0
C61 C 0.07302 0.19724 0.21158 0.0
C62 C 0.06715 0.22493 0.36215 0.0
C63 C 0.05003 0.19842 0.42179 0.0
C64 C 0.04334 0.17158 0.37502 0.0
C65 C 0.05198 0.17295 0.26807 0.0
H66 H 0.3099 0.0089 0.18571 0.0
H67 H 0.41647 0.9913 0.27511 0.0
H68 H 0.3256 0.9958 0.50788 0.0
N69 N 0.27439 1.00536 0.37863 0.0
N70 N 0.26223 0.01059 0.46789 0.0
C71 C 0.32737 1.00402 0.24545 0.0
C72 C 0.36507 1.00023 0.21879 0.0
C73 C 0.31257 1.00204 0.35039 0.0
C74 C 0.33608 0.99665 0.42698 0.0
C75 C 0.37331 0.99218 0.39939 0.0
C76 C 0.38734 0.99366 0.29603 0.0
H77 H 0.52554 0.31415 0.19372 0.0
H78 H 0.55181 0.40539 0.26297 0.0
H79 H 0.56787 0.32521 0.47747 0.0
N80 N 0.54252 0.28309 0.36914 0.0
N81 N 0.53891 0.2723 0.46207 0.0
C82 C 0.53561 0.32895 0.24491 0.0
C83 C 0.53732 0.36142 0.21836 0.0
C84 C 0.5459 0.31577 0.33972 0.0
C85 C 0.5594 0.33523 0.40505 0.0
C86 C 0.56233 0.36754 0.37689 0.0
C87 C 0.55084 0.38033 0.28404 0.0
C88 C 0.06531 0.95719 0.88954 0.0
N89 N 0.02119 0.95574 0.61993 0.0
C90 C 0.04748 0.93453 0.59771 0.0
C91 C 0.03864 0.90597 0.5685 0.0
C92 C 1.00214 0.89837 0.56427 0.0
C93 C 0.97555 0.9211 0.58399 0.0
C94 C 0.98575 0.94984 0.61126 0.0
Zn95 Zn 0.0359 0.99055 0.69986 0.0
C96 C 0.97394 1.00155 0.86775 0.0
N97 N 0.06566 0.05518 0.89477 0.0
C98 C 0.10111 0.06105 0.90349 0.0
C99 C 0.03938 0.0764 0.91699 0.0
C100 C 0.04824 0.10495 0.94623 0.0
C101 C 0.08474 0.11253 0.95049 0.0
C102 C 0.11132 0.08978 0.93079 0.0
Zn103 Zn 0.05095 0.02036 0.81485 0.0
O104 O 0.05355 0.95484 0.80462 0.0
C105 C 0.11291 0.00939 0.64695 0.0
O106 O 0.06784 0.98394 0.91964 0.0
H107 H 1.01152 0.07206 0.90684 0.0
H108 H 0.07534 0.93888 0.60785 0.0
H109 H 0.1218 0.04414 0.8845 0.0
O110 O 0.08898 0.99376 0.61394 0.0
O111 O 0.10411 0.02253 0.72791 0.0
H112 H 0.96504 0.96674 0.63028 0.0
O113 O 0.03331 0.05608 0.71005 0.0
O114 O 1.01899 0.02695 0.5951 0.0
O115 O 0.99788 0.01718 0.90071 0.0
O116 O 0.98273 0.98837 0.78684 0.0
C117 C 0.02153 0.05371 0.62517 0.0
H118 H 0.0605 0.88998 0.55008 0.0
H119 H 0.94707 0.91654 0.58111 0.0
H120 H 0.0264 0.12095 0.96463 0.0
H121 H 0.1398 0.09433 0.9337 0.0
C122 C 0.49365 0.99618 0.62749 0.0
N123 N 0.5395 0.07902 0.69097 0.0
C124 C 0.53717 0.08738 0.58916 0.0
C125 C 0.5359 0.11873 0.54961 0.0
C126 C 0.53802 0.14209 0.61448 0.0
C127 C 0.54085 0.13271 0.71932 0.0
C128 C 0.5412 0.10098 0.75617 0.0
Zn129 Zn 0.54164 0.03221 0.74177 0.0
C130 C 0.48263 0.00994 0.90003 0.0
N131 N 0.54708 0.93366 0.82194 0.0
C132 C 0.55188 0.91199 0.75453 0.0
C133 C 0.54268 0.92504 0.92554 0.0
C134 C 0.54236 0.89361 0.96509 0.0
C135 C 0.54673 0.87061 0.8976 0.0
C136 C 0.55186 0.88022 0.79084 0.0
Zn137 Zn 0.54508 0.98034 0.77136 0.0
O138 O 0.50399 0.02301 0.64257 0.0
C139 C 0.60401 1.00283 0.61276 0.0
O140 O 0.50864 0.97204 0.66769 0.0
H141 H 0.5389 0.94261 0.97794 0.0
H142 H 0.53636 0.06969 0.53791 0.0
H143 H 0.55543 0.91934 0.6725 0.0
O144 O 0.58731 0.02802 0.62884 0.0
O145 O 0.59109 0.97709 0.65942 0.0
H146 H 0.54321 0.09393 0.83675 0.0
O147 O 0.58181 0.9892 0.8734 0.0
O148 O 0.57894 0.04023 0.8433 0.0
O149 O 0.49869 0.98465 0.88188 0.0
O150 O 0.49626 0.03572 0.8557 0.0
C151 C 0.59299 0.01599 0.88617 0.0
H152 H 0.53301 0.12443 0.46889 0.0
H153 H 0.54334 0.14959 0.77254 0.0
H154 H 0.53781 0.88743 0.04778 0.0
H155 H 0.55586 0.86338 0.73577 0.0
C156 C 0.5731 0.46405 0.62462 0.0
N157 N 0.46977 0.50355 0.66532 0.0
C158 C 0.47486 0.50736 0.56036 0.0
C159 C 0.44527 0.50884 0.50447 0.0
C160 C 0.40979 0.50623 0.55657 0.0
C161 C 0.4053 0.50146 0.66518 0.0
C162 C 0.43579 0.50027 0.71826 0.0
Zn163 Zn 0.51585 0.50477 0.73669 0.0
C164 C 0.52519 0.45478 0.89175 0.0
N165 N 0.61973 0.50895 0.83973 0.0
C166 C 0.65408 0.50846 0.78935 0.0
C167 C 0.6139 0.50939 0.94374 0.0
C168 C 0.64296 0.50979 0.00099 0.0
C169 C 0.6788 0.50897 0.95191 0.0
C170 C 0.68411 0.50827 0.8442 0.0
Zn171 Zn 0.57376 0.50748 0.76743 0.0
O172 O 0.54038 0.47319 0.63846 0.0
C173 C 0.56472 0.55754 0.61256 0.0
O174 O 0.59717 0.47558 0.66965 0.0
H175 H 0.58649 0.50921 0.98324 0.0
H176 H 0.50205 0.50994 0.51936 0.0
H177 H 0.65821 0.5078 0.70687 0.0
O178 O 0.53365 0.54441 0.6315 0.0
O179 O 0.59108 0.54593 0.65692 0.0
H180 H 0.43231 0.49717 0.8016 0.0
O181 O 0.54913 0.53992 0.86271 0.0
O182 O 0.49199 0.53582 0.83694 0.0
O183 O 0.55588 0.46857 0.87485 0.0
O184 O 0.49903 0.46567 0.84508 0.0
C185 C 0.51618 0.54825 0.87911 0.0
H186 H 0.45024 0.513 0.42121 0.0
H187 H 0.37849 0.49885 0.70886 0.0
H188 H 0.63715 0.5109 0.08309 0.0
H189 H 0.71111 0.50703 0.80259 0.0
C190 C 0.07272 0.52681 0.56203 0.0
N191 N 0.05098 0.4358 0.70546 0.0
C192 C 0.04095 0.43099 0.61277 0.0
C193 C 0.04413 0.40156 0.5791 0.0
C194 C 0.05756 0.37663 0.64149 0.0
C195 C 0.06729 0.38208 0.73751 0.0
C196 C 0.06392 0.41206 0.76795 0.0
Zn197 Zn 0.0462 0.48012 0.74677 0.0
C198 C 0.11314 0.50332 0.81138 0.0
N199 N 0.03561 0.57485 0.81033 0.0
C200 C 0.02255 0.59856 0.74798 0.0
C201 C 0.0458 0.57971 0.90281 0.0
C202 C 0.04266 0.60915 0.93639 0.0
C203 C 0.02912 0.63406 0.87412 0.0
C204 C 1.01923 0.62856 0.77833 0.0
Zn205 Zn 0.04037 0.53052 0.76904 0.0
O206 O 0.0683 0.49816 0.59616 0.0
C207 C 0.97344 0.50719 0.70458 0.0
O208 O 0.06259 0.54758 0.6198 0.0
H209 H 0.05639 0.56066 0.95096 0.0
H210 H 0.03044 0.45006 0.56451 0.0
H211 H 1.01456 0.59419 0.67481 0.0
O212 O 0.99286 0.48277 0.70582 0.0
O213 O 0.98669 0.53241 0.72544 0.0
H214 H 0.07178 0.41641 0.84129 0.0
O215 O 1.01843 0.51255 0.91955 0.0
O216 O 0.02371 0.46309 0.89599 0.0
O217 O 0.09388 0.52785 0.80962 0.0
O218 O 0.09974 0.47813 0.79088 0.0
C219 C 1.01372 0.48393 0.95366 0.0
H220 H 0.03572 0.39829 0.50531 0.0
H221 H 0.07791 0.3635 0.78771 0.0
H222 H 0.05119 0.61245 0.01 0.0
H223 H 1.00851 0.64712 0.72824 0.0
C224 C 0.2147 0.02372 0.59918 0.0
C225 C 0.22456 0.0123 0.50449 0.0
H226 H 0.17202 0.03221 0.71768 0.0
C227 C 0.19727 1.00085 0.4536 0.0
H228 H 0.23542 0.03241 0.63969 0.0
C229 C 0.16079 1.00024 0.49889 0.0
C230 C 0.15101 0.01134 0.59503 0.0
H231 H 0.2042 0.99159 0.38077 0.0
H232 H 0.14034 0.99073 0.45931 0.0
C233 C 0.17842 0.02352 0.64367 0.0
C234 C 0.52295 0.22986 0.59751 0.0
C235 C 0.53736 0.23984 0.49568 0.0
H236 H 0.51024 0.19149 0.71387 0.0
C237 C 0.55177 0.21774 0.43182 0.0
H238 H 0.51184 0.24669 0.6477 0.0
C239 C 0.55217 0.18613 0.47034 0.0
C240 C 0.53751 0.17585 0.5729 0.0
H241 H 0.56368 0.22495 0.35329 0.0
H242 H 0.56474 0.16994 0.41998 0.0
C243 C 0.52253 0.19825 0.63547 0.0
C244 C 0.31756 0.5311 0.48065 0.0
C245 C 0.31803 0.51995 0.38501 0.0
H246 H 0.34594 0.53604 0.60895 0.0
C247 C 0.34858 0.50364 0.34541 0.0
H248 H 0.29412 0.54365 0.51211 0.0
C249 C 0.37824 0.49874 0.4016 0.0
C250 C 0.37786 0.5101 0.49794 0.0
H251 H 0.34943 0.49453 0.27205 0.0
H252 H 0.40132 0.4858 0.36997 0.0
C253 C 0.34707 0.52638 0.53643 0.0
C254 C 0.07569 0.313 0.46667 0.0
C255 C 0.06265 0.28632 0.53235 0.0
H256 H 0.08466 0.36229 0.45039 0.0
C257 C 0.0499 0.2892 0.63558 0.0
H258 H 0.0858 0.31157 0.38657 0.0
C259 C 0.04922 0.31837 0.67232 0.0
C260 C 0.06105 0.34523 0.60583 0.0
H261 H 0.03966 0.26892 0.6871 0.0
H262 H 0.03826 0.32005 0.75171 0.0
C263 C 0.07484 0.34211 0.50308 0.0
C264 C 0.88953 0.01047 0.06054 0.0
C265 C 0.86225 0.99894 0.00983 0.0
H266 H 0.94647 0.02055 0.05483 0.0
C267 C 0.87213 0.9873 0.91551 0.0
H268 H 0.88259 0.0199 0.13308 0.0
C269 C 0.90843 0.98738 0.87118 0.0
C270 C 0.93583 0.99966 0.91961 0.0
H271 H 0.85142 0.97854 0.87513 0.0
H272 H 0.91484 0.97854 0.79743 0.0
C273 C 0.92603 0.01096 0.01542 0.0
C274 C 0.5566 0.79416 0.06837 0.0
C275 C 0.53872 0.77319 0.01763 0.0
H276 H 0.57383 0.84134 0.06892 0.0
C277 C 0.5241 0.7842 0.92752 0.0
H278 H 0.56838 0.7862 0.13781 0.0
C279 C 0.52691 0.81567 0.88832 0.0
C280 C 0.54468 0.8369 0.93843 0.0
H281 H 0.51024 0.76829 0.88766 0.0
H282 H 0.51456 0.82341 0.81966 0.0
C283 C 0.55957 0.82574 0.02896 0.0
C284 C 0.73691 0.49308 0.17175 0.0
C285 C 0.77017 0.50679 0.12657 0.0
H286 H 0.68252 0.4819 0.15111 0.0
C287 C 0.7731 0.52168 0.02561 0.0
H288 H 0.7342 0.48087 0.24898 0.0
C289 C 0.74343 0.52292 0.96974 0.0
C290 C 0.71017 0.5086 0.01305 0.0
H291 H 0.7987 0.53216 -0.01044 0.0
H292 H 0.74671 0.53511 0.89251 0.0
C293 C 0.7073 0.49378 0.11527 0.0
C294 C 1.01121 0.69776 0.04873 0.0
C295 C 0.02416 0.72444 0.98282 0.0
H296 H 1.0023 0.64846 0.06536 0.0
C297 C 0.03678 0.72151 0.87954 0.0
H298 H 1.00121 0.69923 0.12889 0.0
C299 C 0.03742 0.69232 0.84295 0.0
C300 C 0.02568 0.66548 0.90966 0.0
H301 H 0.04693 0.74179 0.82783 0.0
H302 H 0.04827 0.69061 0.76351 0.0
C303 C 1.01204 0.66863 0.01249 0.0
C304 C 0.04274 0.11272 0.3962 0.0
C305 C 0.0317 0.14092 0.43563 0.0
H306 H 0.04608 0.06311 0.42338 0.0
C307 C 1.0122 0.13904 0.53514 0.0
H308 H 0.05923 0.1124 0.32252 0.0
C309 C 1.00621 0.11012 0.59519 0.0
C310 C 1.0184 0.08248 0.55564 0.0
H311 H 1.00263 0.15981 0.56837 0.0
H312 H 0.99339 0.10944 0.6741 0.0
C313 C 0.03538 0.08397 0.45443 0.0
C314 C 0.42355 0.96486 0.48101 0.0
C315 C 0.39937 0.99006 0.47487 0.0
H316 H 0.47277 0.94697 0.53467 0.0
C317 C 0.4054 0.01637 0.52304 0.0
H318 H 0.41954 0.94458 0.44246 0.0
C319 C 0.43626 0.01821 0.57212 0.0
C320 C 0.46131 0.99356 0.57512 0.0
H321 H 0.38746 0.03627 0.51722 0.0
H322 H 0.44069 0.03917 0.60676 0.0
C323 C 0.45414 0.96643 0.53208 0.0
C324 C 0.59536 0.41523 0.40902 0.0
C325 C 0.57379 0.38869 0.44763 0.0
H326 H 0.61265 0.4605 0.43689 0.0
C327 C 0.55852 0.3851 0.55137 0.0
H328 H 0.60785 0.41836 0.32952 0.0
C329 C 0.5616 0.40896 0.61218 0.0
C330 C 0.58025 0.43658 0.57061 0.0
H331 H 0.54158 0.36511 0.58315 0.0
H332 H 0.5471 0.40681 0.68958 0.0
C333 C 0.59849 0.43916 0.47028 0.0
C334 C 0.1241 0.51669 0.30609 0.0
C335 C 0.15227 0.53858 0.30079 0.0
H336 H 0.07601 0.49616 0.39392 0.0
C337 C 0.14998 0.56043 0.37211 0.0
H338 H 0.12532 0.49942 0.25241 0.0
C339 C 0.12132 0.55882 0.4524 0.0
C340 C 0.0952 0.53493 0.46299 0.0
H341 H 0.17132 0.57761 0.36885 0.0
H342 H 0.12141 0.57447 0.51089 0.0
C343 C 0.09589 0.51477 0.38696 0.0
C344 C 0.07459 0.87184 0.97949 0.0
C345 C 0.05507 0.86995 0.07898 0.0
H346 H 0.09343 0.90145 0.84057 0.0
C347 C 0.04402 0.89815 0.1184 0.0
H348 H 0.08415 0.85106 0.94625 0.0
C349 C 0.0514 0.92691 0.06021 0.0
C350 C 0.06842 0.9284 0.95904 0.0
H351 H 0.02751 0.89847 0.19206 0.0
H352 H 0.0407 0.94776 0.09126 0.0
C353 C 0.0806 0.90076 0.91947 0.0
C354 C 0.68057 0.99488 -0.00683 0.0
C355 C 0.68753 0.02161 0.03805 0.0
H356 H 0.64447 0.97192 0.91231 0.0
C357 C 0.66411 0.04728 0.02929 0.0
H358 H 0.69791 0.97463 0.00119 0.0
C359 C 0.63341 0.04583 0.97862 0.0
C360 C 0.62534 0.01837 0.93871 0.0
H361 H 0.6688 0.06789 0.06547 0.0
H362 H 0.6154 0.06569 0.97382 0.0
C363 C 0.64959 0.99317 0.94452 0.0
C364 C 0.49346 0.59605 0.09721 0.0
C365 C 0.51419 0.62307 0.05873 0.0
H366 H 0.4772 0.55059 0.06827 0.0
C367 C 0.52899 0.62719 0.95457 0.0
H368 H 0.48141 0.59248 0.17707 0.0
C369 C 0.52631 0.60346 0.89304 0.0
C370 C 0.50851 0.57543 0.93427 0.0
H371 H 0.54534 0.64754 0.92287 0.0
H372 H 0.5405 0.60606 0.81525 0.0
C373 C 0.49069 0.57226 0.03515 0.0
C374 C 0.93472 0.45212 0.14016 0.0
C375 C 0.93313 0.47371 0.21225 0.0
H376 H 0.96314 0.43771 0.00174 0.0
C377 C 0.96213 0.49467 0.2086 0.0
H378 H 0.91272 0.43564 0.14222 0.0
C379 C 0.99065 0.49595 0.1287 0.0
C380 C 0.99082 0.47605 0.05207 0.0
H381 H 0.96145 0.51169 0.263 0.0
H382 H 1.01127 0.51392 0.12292 0.0
C383 C 0.96369 0.45307 0.06088 0.0
C384 C 0.06973 0.19287 0.02926 0.0
C385 C 0.091 0.19094 0.11018 0.0
H386 H 0.05222 0.16955 0.90992 0.0
C387 C 0.11926 0.16907 0.11194 0.0
H388 H 0.04803 0.20977 0.02563 0.0
C389 C 0.12011 0.1447 0.05087 0.0
C390 C 0.09375 0.143 0.98399 0.0
H391 H 0.13615 0.16732 0.17368 0.0
H392 H 0.13834 0.12549 0.06616 0.0
C393 C 0.07143 0.16914 0.9654 0.0
C394 C 0.39812 0.97784 0.07068 0.0
C395 C 0.38403 1.00444 0.11274 0.0
H396 H 0.44068 0.95865 0.97228 0.0
C397 C 0.39994 0.03362 0.07493 0.0
H398 H 0.38698 0.95501 0.10077 0.0
C399 C 0.4313 0.03578 0.00264 0.0
C400 C 0.4474 0.0087 0.96794 0.0
H401 H 0.39023 0.05432 0.10867 0.0
H402 H 0.44409 0.05835 0.97879 0.0
C403 C 0.4295 0.97992 -0.00079 0.0
C404 C 0.49634 0.39656 0.12311 0.0
C405 C 0.52693 0.37698 0.12088 0.0
H406 H 0.47128 0.4368 0.04958 0.0
C407 C 0.55315 0.37993 0.03388 0.0
H408 H 0.47625 0.39504 0.19091 0.0
C409 C 0.5508 0.40414 0.95506 0.0
C410 C 0.52195 0.42546 0.96145 0.0
H411 H 0.57727 0.36555 0.03166 0.0
H412 H 0.57284 0.40745 0.89221 0.0
C413 C 0.49364 0.42053 0.04301 0.0
C414 C 0.19662 0.53632 0.89336 0.0
C415 C 0.20569 0.51178 0.96508 0.0
H416 H 0.15911 0.55293 0.7891 0.0
C417 C 0.19084 0.48203 0.96338 0.0
H418 H 0.20739 0.55952 0.89401 0.0
C419 C 0.16284 0.47822 0.90379 0.0
C420 C 0.1495 0.50418 0.84578 0.0
H421 H 0.19701 0.46285 0.01909 0.0
H422 H 0.14902 0.4559 0.9125 0.0
C423 C 0.16837 0.53267 0.83511 0.0
C424 C 0.96765 0.84181 0.40287 0.0
C425 C 0.99592 0.81994 0.40463 0.0
H426 H 0.94855 0.88539 0.44863 0.0
C427 C 1.01719 0.81803 0.48551 0.0
H428 H 0.95075 0.84354 0.34114 0.0
C429 C 1.01549 0.84176 0.54935 0.0
C430 C 0.99315 0.8679 0.53078 0.0
H431 H 0.03891 0.80114 0.48914 0.0
H432 H 0.03471 0.84137 0.60482 0.0
C433 C 0.96678 0.86618 0.46392 0.0
C434 C 0.68803 0.03518 0.44038 0.0
C435 C 0.70267 0.00846 0.4002 0.0
H436 H 0.64502 0.05442 0.53717 0.0
C437 C 0.68724 0.97923 0.43977 0.0
H438 H 0.69881 0.05803 0.40894 0.0
C439 C 0.65585 0.97707 0.51195 0.0
C440 C 0.63922 1.00419 0.54473 0.0
H441 H 0.69737 0.9584 0.40751 0.0
H442 H 0.64346 0.95441 0.53723 0.0
C443 C 0.65661 0.0331 0.51169 0.0
C444 C 0.59359 0.61463 0.37825 0.0
C445 C 0.56367 0.63495 0.38163 0.0
H446 H 0.61793 0.57396 0.45147 0.0
C447 C 0.53813 0.63284 0.47016 0.0
H448 H 0.61312 0.61548 0.30936 0.0
C449 C 0.54033 0.60875 0.54947 0.0
C450 C 0.5684 0.58672 0.5421 0.0
H451 H 0.51449 0.6478 0.47335 0.0
H452 H 0.51869 0.60608 0.61354 0.0
C453 C 0.59619 0.59079 0.45885 0.0
C454 C 0.89507 0.52836 0.555 0.0
C455 C 0.88078 0.49851 0.55152 0.0
H456 H 0.9365 0.55466 0.60701 0.0
C457 C 0.89047 0.47372 0.62132 0.0
H458 H 0.8884 0.54774 0.50074 0.0
C459 C 0.91872 0.4774 0.67956 0.0
C460 C 0.93704 0.50612 0.67055 0.0
H461 H 0.88014 0.45045 0.61923 0.0
H462 H 0.92841 0.45704 0.72416 0.0
C463 C 0.92312 0.53217 0.61443 0.0
loop_
_geom_bond_atom_site_label_1
_geom_bond_atom_site_label_2
_geom_bond_distance
_geom_bond_site_symmetry_2
_ccdc_geom_bond_type
H0 C5 0.929 . S
H1 C10 0.931 . S
H2 C8 0.930 . S
N3 N4 1.234 . S
N3 C7 1.453 . S
N4 N3 1.234 . S
C5 H0 0.929 . S
C5 C6 1.373 . S
C5 C7 1.368 . S
C6 C5 1.373 . S
C6 C10 1.397 . S
C7 N3 1.453 . S
C7 C5 1.368 . S
C7 C8 1.373 . S
C8 H2 0.930 . S
C8 C7 1.373 . S
C8 C9 1.371 . S
C9 C8 1.371 . S
C9 C10 1.383 . S
C10 H1 0.931 . S
C10 C6 1.397 . S
C10 C9 1.383 . S
H11 C16 0.929 . S
H12 C21 0.931 . S
H13 C19 0.930 . S
N14 N15 1.234 1_554 S
N14 C18 1.453 . S
N15 N14 1.234 1_556 S
C16 H11 0.929 . S
C16 C17 1.373 . S
C16 C18 1.368 . S
C17 C16 1.373 . S
C17 C21 1.397 . S
C18 N14 1.453 . S
C18 C16 1.368 . S
C18 C19 1.373 1_554 S
C19 H13 0.930 . S
C19 C18 1.373 1_556 S
C19 C20 1.371 . S
C20 C19 1.371 . S
C20 C21 1.383 1_556 S
C21 H12 0.931 . S
C21 C17 1.397 . S
C21 C20 1.383 1_554 S
H22 C27 0.929 . S
H23 C32 0.931 . S
H24 C30 0.930 1_556 S
N25 N26 1.221 1_545 S
N25 C29 1.453 . S
N26 N25 1.221 1_565 S
C27 H22 0.929 . S
C27 C28 1.373 . S
C27 C29 1.368 . S
C28 C27 1.373 . S
C28 C32 1.397 1_545 S
C29 N25 1.453 . S
C29 C27 1.368 . S
C29 C30 1.373 . S
C30 H24 0.930 1_554 S
C30 C29 1.373 . S
C30 C31 1.374 . S
C31 C30 1.374 . S
C31 C32 1.384 1_545 S
C32 H23 0.931 . S
C32 C28 1.397 1_565 S
C32 C31 1.384 1_565 S
H33 C38 0.929 . S
H34 C43 0.931 . S
H35 C41 0.930 1_556 S
N36 N37 1.234 . S
N36 C40 1.453 . S
N37 N36 1.234 . S
C38 H33 0.929 . S
C38 C39 1.373 . S
C38 C40 1.368 . S
C39 C38 1.373 . S
C39 C43 1.397 . S
C40 N36 1.453 . S
C40 C38 1.368 . S
C40 C41 1.373 . S
C41 H35 0.930 1_554 S
C41 C40 1.373 . S
C41 C42 1.371 . S
C42 C41 1.371 . S
C42 C43 1.383 . S
C43 H34 0.931 . S
C43 C39 1.397 . S
C43 C42 1.383 . S
H44 C49 0.929 . S
H45 C54 0.931 . S
H46 C52 0.930 . S
N47 N48 1.234 . S
N47 C51 1.453 . S
N48 N47 1.234 . S
C49 H44 0.929 . S
C49 C50 1.373 . S
C49 C51 1.368 . S
C50 C49 1.373 . S
C50 C54 1.397 . S
C51 N47 1.453 . S
C51 C49 1.368 . S
C51 C52 1.373 . S
C52 H46 0.930 . S
C52 C51 1.373 . S
C52 C53 1.371 . S
C53 C52 1.371 . S
C53 C54 1.383 . S
C54 H45 0.931 . S
C54 C50 1.397 . S
C54 C53 1.383 . S
H55 C60 0.929 . S
H56 C65 0.931 . S
H57 C63 0.930 . S
N58 N59 1.234 . S
N58 C62 1.453 . S
N59 N58 1.234 . S
C60 H55 0.929 . S
C60 C61 1.373 . S
C60 C62 1.368 . S
C61 C60 1.373 . S
C61 C65 1.397 . S
C62 N58 1.453 . S
C62 C60 1.368 . S
C62 C63 1.373 . S
C63 H57 0.930 . S
C63 C62 1.373 . S
C63 C64 1.371 . S
C64 C63 1.371 . S
C64 C65 1.383 . S
C65 H56 0.931 . S
C65 C61 1.397 . S
C65 C64 1.383 . S
H66 C71 0.929 . S
H67 C76 0.931 . S
H68 C74 0.930 . S
N69 N70 1.229 1_545 S
N69 C73 1.453 . S
N70 N69 1.229 1_565 S
C71 H66 0.929 . S
C71 C72 1.373 . S
C71 C73 1.368 . S
C72 C71 1.373 . S
C72 C76 1.397 1_545 S
C73 N69 1.453 . S
C73 C71 1.368 . S
C73 C74 1.373 . S
C74 H68 0.930 . S
C74 C73 1.373 . S
C74 C75 1.375 . S
C75 C74 1.375 . S
C75 C76 1.378 1_545 S
C76 H67 0.931 . S
C76 C72 1.397 1_565 S
C76 C75 1.378 1_565 S
H77 C82 0.929 . S
H78 C87 0.931 . S
H79 C85 0.930 . S
N80 N81 1.234 . S
N80 C84 1.453 . S
N81 N80 1.234 . S
C82 H77 0.929 . S
C82 C83 1.373 . S
C82 C84 1.368 . S
C83 C82 1.373 . S
C83 C87 1.397 . S
C84 N80 1.453 . S
C84 C82 1.368 . S
C84 C85 1.373 . S
C85 H79 0.930 . S
C85 C84 1.373 . S
C85 C86 1.371 . S
C86 C85 1.371 . S
C86 C87 1.383 . S
C87 H78 0.931 . S
C87 C83 1.397 . S
C87 C86 1.383 . S
C88 O104 1.251 . S
C88 O106 1.254 . S
N89 C90 1.333 . S
N89 C94 1.307 1_455 S
N89 Zn95 2.020 . S
C90 N89 1.333 . S
C90 C91 1.379 . S
C90 H108 0.952 . S
C91 C90 1.379 . S
C91 C92 1.390 1_455 S
C91 H118 0.949 . S
C92 C91 1.390 1_655 S
C92 C93 1.357 . S
C93 C92 1.357 . S
C93 C94 1.370 . S
C93 H119 0.950 . S
C94 N89 1.307 1_655 S
C94 C93 1.370 . S
C94 H112 0.948 1_565 S
Zn95 N89 2.020 . S
Zn95 O104 2.039 . S
Zn95 O110 2.034 . S
Zn95 O114 2.025 1_565 S
Zn95 O116 2.024 1_455 S
C96 O115 1.246 . S
C96 O116 1.249 1_545 S
N97 C98 1.315 . S
N97 C99 1.334 . S
N97 Zn103 2.010 1_554 S
C98 N97 1.315 . S
C98 C102 1.370 . S
C98 H109 0.948 1_545 S
C99 N97 1.334 . S
C99 C100 1.379 . S
C99 H107 0.952 1_554 S
C100 C99 1.379 . S
C100 C101 1.390 . S
C100 H120 0.949 . S
C101 C100 1.390 . S
C101 C102 1.357 . S
C102 C98 1.370 . S
C102 C101 1.357 . S
C102 H121 0.950 . S
Zn103 N97 2.010 1_556 S
Zn103 O106 2.025 1_545 S
Zn103 O111 2.024 . S
Zn103 O113 2.039 . S
Zn103 O115 2.034 1_455 S
O104 C88 1.251 . S
O104 Zn95 2.039 . S
C105 O110 1.246 . S
C105 O111 1.249 1_565 S
O106 C88 1.254 . S
O106 Zn103 2.025 1_565 S
H107 C99 0.952 1_556 S
H108 C90 0.952 . S
H109 C98 0.948 1_565 S
O110 Zn95 2.034 . S
O110 C105 1.246 . S
O111 Zn103 2.024 . S
O111 C105 1.249 1_545 S
H112 C94 0.948 1_545 S
O113 Zn103 2.039 . S
O113 C117 1.251 . S
O114 Zn95 2.025 1_545 S
O114 C117 1.254 . S
O115 C96 1.246 . S
O115 Zn103 2.034 1_655 S
O116 Zn95 2.024 1_655 S
O116 C96 1.249 1_565 S
C117 O113 1.251 . S
C117 O114 1.254 . S
H118 C91 0.949 . S
H119 C93 0.950 . S
H120 C100 0.949 . S
H121 C102 0.950 . S
C122 O138 1.251 1_565 S
C122 O140 1.254 . S
N123 C124 1.333 . S
N123 C128 1.307 . S
N123 Zn129 2.020 . S
C124 N123 1.333 . S
C124 C125 1.379 . S
C124 H142 0.952 . S
C125 C124 1.379 . S
C125 C126 1.390 . S
C125 H152 0.949 . S
C126 C125 1.390 . S
C126 C127 1.357 . S
C127 C126 1.357 . S
C127 C128 1.370 . S
C127 H153 0.950 . S
C128 N123 1.307 . S
C128 C127 1.370 . S
C128 H146 0.948 . S
Zn129 N123 2.020 . S
Zn129 O138 2.039 . S
Zn129 O144 2.034 . S
Zn129 O148 2.025 . S
Zn129 O150 2.024 . S
C130 O149 1.246 1_545 S
C130 O150 1.249 . S
N131 C132 1.307 . S
N131 C133 1.333 . S
N131 Zn137 2.020 . S
C132 N131 1.307 . S
C132 C136 1.370 . S
C132 H143 0.948 . S
C133 N131 1.333 . S
C133 C134 1.379 . S
C133 H141 0.952 . S
C134 C133 1.379 . S
C134 C135 1.390 . S
C134 H154 0.949 1_556 S
C135 C134 1.390 . S
C135 C136 1.357 . S
C136 C132 1.370 . S
C136 C135 1.357 . S
C136 H155 0.950 . S
Zn137 N131 2.020 . S
Zn137 O140 2.025 . S
Zn137 O145 2.024 . S
Zn137 O147 2.039 . S
Zn137 O149 2.034 . S
O138 C122 1.251 1_545 S
O138 Zn129 2.039 . S
C139 O144 1.246 1_565 S
C139 O145 1.249 . S
O140 C122 1.254 . S
O140 Zn137 2.025 . S
H141 C133 0.952 . S
H142 C124 0.952 . S
H143 C132 0.948 . S
O144 Zn129 2.034 . S
O144 C139 1.246 1_545 S
O145 Zn137 2.024 . S
O145 C139 1.249 . S
H146 C128 0.948 . S
O147 Zn137 2.039 . S
O147 C151 1.251 1_565 S
O148 Zn129 2.025 . S
O148 C151 1.254 . S
O149 C130 1.246 1_565 S
O149 Zn137 2.034 . S
O150 Zn129 2.024 . S
O150 C130 1.249 . S
C151 O147 1.251 1_545 S
C151 O148 1.254 . S
H152 C125 0.949 . S
H153 C127 0.950 . S
H154 C134 0.949 1_554 S
H155 C136 0.950 . S
C156 O172 1.251 . S
C156 O174 1.254 . S
N157 C158 1.333 . S
N157 C162 1.307 . S
N157 Zn163 2.020 . S
C158 N157 1.333 . S
C158 C159 1.379 . S
C158 H176 0.952 . S
C159 C158 1.379 . S
C159 C160 1.390 . S
C159 H186 0.949 . S
C160 C159 1.390 . S
C160 C161 1.357 . S
C161 C160 1.357 . S
C161 C162 1.370 . S
C161 H187 0.950 . S
C162 N157 1.307 . S
C162 C161 1.370 . S
C162 H180 0.948 . S
Zn163 N157 2.020 . S
Zn163 O172 2.039 . S
Zn163 O178 2.034 . S
Zn163 O182 2.025 . S
Zn163 O184 2.024 . S
C164 O183 1.246 . S
C164 O184 1.249 . S
N165 C166 1.307 . S
N165 C167 1.333 . S
N165 Zn171 2.020 . S
C166 N165 1.307 . S
C166 C170 1.370 . S
C166 H177 0.948 . S
C167 N165 1.333 . S
C167 C168 1.379 . S
C167 H175 0.952 . S
C168 C167 1.379 . S
C168 C169 1.390 . S
C168 H188 0.949 . S
C169 C168 1.390 . S
C169 C170 1.357 . S
C170 C166 1.370 . S
C170 C169 1.357 . S
C170 H189 0.950 . S
Zn171 N165 2.020 . S
Zn171 O174 2.025 . S
Zn171 O179 2.024 . S
Zn171 O181 2.039 . S
Zn171 O183 2.034 . S
O172 C156 1.251 . S
O172 Zn163 2.039 . S
C173 O178 1.246 . S
C173 O179 1.249 . S
O174 C156 1.254 . S
O174 Zn171 2.025 . S
H175 C167 0.952 . S
H176 C158 0.952 . S
H177 C166 0.948 . S
O178 Zn163 2.034 . S
O178 C173 1.246 . S
O179 Zn171 2.024 . S
O179 C173 1.249 . S
H180 C162 0.948 . S
O181 Zn171 2.039 . S
O181 C185 1.251 . S
O182 Zn163 2.025 . S
O182 C185 1.254 . S
O183 C164 1.246 . S
O183 Zn171 2.034 . S
O184 Zn163 2.024 . S
O184 C164 1.249 . S
C185 O181 1.251 . S
C185 O182 1.254 . S
H186 C159 0.949 . S
H187 C161 0.950 . S
H188 C168 0.949 . S
H189 C170 0.950 . S
C190 O206 1.251 . S
C190 O208 1.254 . S
N191 C192 1.333 . S
N191 C196 1.307 . S
N191 Zn197 2.020 . S
C192 N191 1.333 . S
C192 C193 1.379 . S
C192 H210 0.952 . S
C193 C192 1.379 . S
C193 C194 1.390 . S
C193 H220 0.949 . S
C194 C193 1.390 . S
C194 C195 1.357 . S
C195 C194 1.357 . S
C195 C196 1.370 . S
C195 H221 0.950 . S
C196 N191 1.307 . S
C196 C195 1.370 . S
C196 H214 0.948 . S
Zn197 N191 2.020 . S
Zn197 O206 2.039 . S
Zn197 O212 2.034 1_455 S
Zn197 O216 2.025 1_455 S
Zn197 O218 2.024 . S
C198 O217 1.246 . S
C198 O218 1.249 . S
N199 C200 1.307 . S
N199 C201 1.333 . S
N199 Zn205 2.020 . S
C200 N199 1.307 . S
C200 C204 1.370 . S
C200 H211 0.948 . S
C201 N199 1.333 . S
C201 C202 1.379 1_455 S
C201 H209 0.952 1_455 S
C202 C201 1.379 1_655 S
C202 C203 1.390 1_655 S
C202 H222 0.949 . S
C203 C202 1.390 1_455 S
C203 C204 1.357 . S
C204 C200 1.370 . S
C204 C203 1.357 . S
C204 H223 0.950 . S
Zn205 N199 2.020 . S
Zn205 O208 2.025 . S
Zn205 O213 2.024 1_455 S
Zn205 O215 2.039 1_455 S
Zn205 O217 2.034 . S
O206 C190 1.251 . S
O206 Zn197 2.039 . S
C207 O212 1.246 . S
C207 O213 1.249 . S
O208 C190 1.254 . S
O208 Zn205 2.025 . S
H209 C201 0.952 1_655 S
H210 C192 0.952 . S
H211 C200 0.948 . S
O212 Zn197 2.034 1_655 S
O212 C207 1.246 . S
O213 Zn205 2.024 1_655 S
O213 C207 1.249 . S
H214 C196 0.948 . S
O215 Zn205 2.039 1_655 S
O215 C219 1.251 . S
O216 Zn197 2.025 1_655 S
O216 C219 1.254 . S
O217 C198 1.246 . S
O217 Zn205 2.034 . S
O218 Zn197 2.024 . S
O218 C198 1.249 . S
C219 O215 1.251 . S
C219 O216 1.254 . S
H220 C193 0.949 . S
H221 C195 0.950 . S
H222 C202 0.949 . S
H223 C204 0.950 . S
C224 C225 1.387 . S
C224 H228 0.950 . S
C224 C233 1.390 . S
C225 C224 1.387 . S
C225 C227 1.387 1_565 S
H226 C233 0.950 . S
C227 C225 1.387 1_545 S
C227 C229 1.390 . S
C227 H231 0.950 . S
H228 C224 0.950 . S
C229 C227 1.390 . S
C229 C230 1.387 1_545 S
C229 H232 0.950 . S
C230 C229 1.387 1_565 S
C230 C233 1.387 . S
H231 C227 0.950 . S
H232 C229 0.950 . S
C233 C224 1.390 . S
C233 H226 0.950 . S
C233 C230 1.387 . S
C234 C235 1.387 . S
C234 H238 0.950 . S
C234 C243 1.390 . S
C235 C234 1.387 . S
C235 C237 1.387 . S
H236 C243 0.950 . S
C237 C235 1.387 . S
C237 C239 1.390 . S
C237 H241 0.950 . S
H238 C234 0.950 . S
C239 C237 1.390 . S
C239 C240 1.387 . S
C239 H242 0.950 . S
C240 C239 1.387 . S
C240 C243 1.387 . S
H241 C237 0.950 . S
H242 C239 0.950 . S
C243 C234 1.390 . S
C243 H236 0.950 . S
C243 C240 1.387 . S
C244 C245 1.387 . S
C244 H248 0.950 . S
C244 C253 1.390 . S
C245 C244 1.387 . S
C245 C247 1.387 . S
H246 C253 0.950 . S
C247 C245 1.387 . S
C247 C249 1.390 . S
C247 H251 0.950 . S
H248 C244 0.950 . S
C249 C247 1.390 . S
C249 C250 1.387 . S
C249 H252 0.950 . S
C250 C249 1.387 . S
C250 C253 1.387 . S
H251 C247 0.950 . S
H252 C249 0.950 . S
C253 C244 1.390 . S
C253 H246 0.950 . S
C253 C250 1.387 . S
C254 C255 1.387 . S
C254 H258 0.950 . S
C254 C263 1.390 . S
C255 C254 1.387 . S
C255 C257 1.387 . S
H256 C263 0.950 . S
C257 C255 1.387 . S
C257 C259 1.390 . S
C257 H261 0.950 . S
H258 C254 0.950 . S
C259 C257 1.390 . S
C259 C260 1.387 . S
C259 H262 0.950 . S
C260 C259 1.387 . S
C260 C263 1.387 . S
H261 C257 0.950 . S
H262 C259 0.950 . S
C263 C254 1.390 . S
C263 H256 0.950 . S
C263 C260 1.387 . S
C264 C265 1.387 . S
C264 H268 0.950 . S
C264 C273 1.390 . S
C265 C264 1.387 . S
C265 C267 1.387 1_545 S
H266 C273 0.950 . S
C267 C265 1.387 1_565 S
C267 C269 1.390 . S
C267 H271 0.950 . S
H268 C264 0.950 . S
C269 C267 1.390 . S
C269 C270 1.387 1_565 S
C269 H272 0.950 . S
C270 C269 1.387 1_545 S
C270 C273 1.387 . S
H271 C267 0.950 . S
H272 C269 0.950 . S
C273 C264 1.390 . S
C273 H266 0.950 . S
C273 C270 1.387 . S
C274 C275 1.387 . S
C274 H278 0.950 . S
C274 C283 1.390 . S
C275 C274 1.387 . S
C275 C277 1.387 1_554 S
H276 C283 0.950 . S
C277 C275 1.387 1_556 S
C277 C279 1.390 . S
C277 H281 0.950 . S
H278 C274 0.950 . S
C279 C277 1.390 . S
C279 C280 1.387 . S
C279 H282 0.950 . S
C280 C279 1.387 . S
C280 C283 1.387 1_556 S
H281 C277 0.950 . S
H282 C279 0.950 . S
C283 C274 1.390 . S
C283 H276 0.950 . S
C283 C280 1.387 1_554 S
C284 C285 1.387 . S
C284 H288 0.950 . S
C284 C293 1.390 1_554 S
C285 C284 1.387 . S
C285 C287 1.387 . S
H286 C293 0.950 . S
C287 C285 1.387 . S
C287 C289 1.390 1_554 S
C287 H291 0.950 . S
H288 C284 0.950 . S
C289 C287 1.390 1_556 S
C289 C290 1.387 . S
C289 H292 0.950 . S
C290 C289 1.387 . S
C290 C293 1.387 . S
H291 C287 0.950 . S
H292 C289 0.950 . S
C293 C284 1.390 1_556 S
C293 H286 0.950 . S
C293 C290 1.387 . S
C294 C295 1.387 . S
C294 H298 0.950 . S
C294 C303 1.390 . S
C295 C294 1.387 . S
C295 C297 1.387 1_655 S
H296 C303 0.950 . S
C297 C295 1.387 1_455 S
C297 C299 1.390 . S
C297 H301 0.950 . S
H298 C294 0.950 . S
C299 C297 1.390 . S
C299 C300 1.387 . S
C299 H302 0.950 . S
C300 C299 1.387 . S
C300 C303 1.387 1_455 S
H301 C297 0.950 . S
H302 C299 0.950 . S
C303 C294 1.390 . S
C303 H296 0.950 . S
C303 C300 1.387 1_655 S
C304 C305 1.387 . S
C304 H308 0.950 . S
C304 C313 1.390 . S
C305 C304 1.387 . S
C305 C307 1.387 . S
H306 C313 0.950 . S
C307 C305 1.387 . S
C307 C309 1.390 . S
C307 H311 0.950 . S
H308 C304 0.950 . S
C309 C307 1.390 . S
C309 C310 1.387 . S
C309 H312 0.950 . S
C310 C309 1.387 . S
C310 C313 1.387 . S
H311 C307 0.950 . S
H312 C309 0.950 . S
C313 C304 1.390 . S
C313 H306 0.950 . S
C313 C310 1.387 . S
C314 C315 1.407 . S
C314 H318 0.950 . S
C314 C323 1.390 . S
C315 C314 1.407 . S
C315 C317 1.369 1_565 S
H316 C323 0.950 . S
C317 C315 1.369 1_545 S
C317 C319 1.390 . S
C317 H321 0.950 . S
H318 C314 0.950 . S
C319 C317 1.390 . S
C319 C320 1.387 1_545 S
C319 H322 0.950 . S
C320 C319 1.387 1_565 S
C320 C323 1.387 . S
H321 C317 0.950 . S
H322 C319 0.950 . S
C323 C314 1.390 . S
C323 H316 0.950 . S
C323 C320 1.387 . S
C324 C325 1.387 . S
C324 H328 0.950 . S
C324 C333 1.390 . S
C325 C324 1.387 . S
C325 C327 1.387 . S
H326 C333 0.950 . S
C327 C325 1.387 . S
C327 C329 1.390 . S
C327 H331 0.950 . S
H328 C324 0.950 . S
C329 C327 1.390 . S
C329 C330 1.387 . S
C329 H332 0.950 . S
C330 C329 1.387 . S
C330 C333 1.387 . S
H331 C327 0.950 . S
H332 C329 0.950 . S
C333 C324 1.390 . S
C333 H326 0.950 . S
C333 C330 1.387 . S
C334 C335 1.387 . S
C334 H338 0.950 . S
C334 C343 1.390 . S
C335 C334 1.387 . S
C335 C337 1.387 . S
H336 C343 0.950 . S
C337 C335 1.387 . S
C337 C339 1.390 . S
C337 H341 0.950 . S
H338 C334 0.950 . S
C339 C337 1.390 . S
C339 C340 1.387 . S
C339 H342 0.950 . S
C340 C339 1.387 . S
C340 C343 1.387 . S
H341 C337 0.950 . S
H342 C339 0.950 . S
C343 C334 1.390 . S
C343 H336 0.950 . S
C343 C340 1.387 . S
C344 C345 1.387 . S
C344 H348 0.950 . S
C344 C353 1.390 1_655 S
C345 C344 1.387 . S
C345 C347 1.387 . S
H346 C353 0.950 . S
C347 C345 1.387 . S
C347 C349 1.390 . S
C347 H351 0.950 1_556 S
H348 C344 0.950 . S
C349 C347 1.390 . S
C349 C350 1.387 1_655 S
C349 H352 0.951 1_556 S
C350 C349 1.387 1_455 S
C350 C353 1.387 . S
H351 C347 0.950 1_554 S
H352 C349 0.951 1_554 S
C353 C344 1.390 1_455 S
C353 H346 0.950 . S
C353 C350 1.387 . S
C354 C355 1.361 1_566 S
C354 H358 0.950 . S
C354 C363 1.390 . S
C355 C354 1.361 1_544 S
C355 C357 1.414 1_554 S
H356 C363 0.950 . S
C357 C355 1.414 1_556 S
C357 C359 1.390 . S
C357 H361 0.950 1_556 S
H358 C354 0.950 . S
C359 C357 1.390 . S
C359 C360 1.387 . S
C359 H362 0.950 . S
C360 C359 1.387 . S
C360 C363 1.387 1_545 S
H361 C357 0.950 1_554 S
H362 C359 0.950 . S
C363 C354 1.390 . S
C363 H356 0.950 . S
C363 C360 1.387 1_565 S
C364 C365 1.387 . S
C364 H368 0.950 . S
C364 C373 1.390 . S
C365 C364 1.387 . S
C365 C367 1.387 1_554 S
H366 C373 0.950 . S
C367 C365 1.387 1_556 S
C367 C369 1.390 . S
C367 H371 0.950 . S
H368 C364 0.950 . S
C369 C367 1.390 . S
C369 C370 1.387 . S
C369 H372 0.950 . S
C370 C369 1.387 . S
C370 C373 1.387 1_556 S
H371 C367 0.950 . S
H372 C369 0.950 . S
C373 C364 1.390 . S
C373 H366 0.950 . S
C373 C370 1.387 1_554 S
C374 C375 1.387 . S
C374 H378 0.950 . S
C374 C383 1.390 1_554 S
C375 C374 1.387 . S
C375 C377 1.387 . S
H376 C383 0.950 . S
C377 C375 1.387 . S
C377 C379 1.390 1_554 S
C377 H381 0.950 . S
H378 C374 0.950 . S
C379 C377 1.390 1_556 S
C379 C380 1.387 . S
C379 H382 0.950 . S
C380 C379 1.387 . S
C380 C383 1.387 . S
H381 C377 0.950 . S
H382 C379 0.950 . S
C383 C374 1.390 1_556 S
C383 H376 0.950 . S
C383 C380 1.387 . S
C384 C385 1.387 . S
C384 H388 0.950 . S
C384 C393 1.390 . S
C385 C384 1.387 . S
C385 C387 1.387 . S
H386 C393 0.950 . S
C387 C385 1.387 . S
C387 C389 1.390 . S
C387 H391 0.950 . S
H388 C384 0.950 . S
C389 C387 1.390 . S
C389 C390 1.387 . S
C389 H392 0.950 . S
C390 C389 1.387 . S
C390 C393 1.387 . S
H391 C387 0.950 . S
H392 C389 0.950 . S
C393 C384 1.390 . S
C393 H386 0.950 . S
C393 C390 1.387 . S
C394 C395 1.357 1_565 S
C394 H398 0.950 . S
C394 C403 1.390 . S
C395 C394 1.357 1_545 S
C395 C397 1.417 . S
H396 C403 0.950 . S
C397 C395 1.417 . S
C397 C399 1.390 . S
C397 H401 0.950 . S
H398 C394 0.950 . S
C399 C397 1.390 . S
C399 C400 1.387 . S
C399 H402 0.950 . S
C400 C399 1.387 . S
C400 C403 1.387 1_545 S
H401 C397 0.950 . S
H402 C399 0.950 . S
C403 C394 1.390 . S
C403 H396 0.950 . S
C403 C400 1.387 1_565 S
C404 C405 1.387 . S
C404 H408 0.950 . S
C404 C413 1.390 . S
C405 C404 1.387 . S
C405 C407 1.387 . S
H406 C413 0.950 . S
C407 C405 1.387 . S
C407 C409 1.390 . S
C407 H411 0.950 . S
H408 C404 0.950 . S
C409 C407 1.390 . S
C409 C410 1.387 . S
C409 H412 0.950 . S
C410 C409 1.387 . S
C410 C413 1.387 . S
H411 C407 0.950 . S
H412 C409 0.950 . S
C413 C404 1.390 . S
C413 H406 0.950 . S
C413 C410 1.387 . S
C414 C415 1.387 . S
C414 H418 0.950 . S
C414 C423 1.390 . S
C415 C414 1.387 . S
C415 C417 1.387 . S
H416 C423 0.950 1_556 S
C417 C415 1.387 . S
C417 C419 1.390 . S
C417 H421 0.950 . S
H418 C414 0.950 . S
C419 C417 1.390 . S
C419 C420 1.387 1_554 S
C419 H422 0.950 . S
C420 C419 1.387 1_556 S
C420 C423 1.387 1_556 S
H421 C417 0.950 . S
H422 C419 0.950 . S
C423 C414 1.390 . S
C423 H416 0.950 1_554 S
C423 C420 1.387 1_554 S
C424 C425 1.387 . S
C424 H428 0.950 . S
C424 C433 1.390 . S
C425 C424 1.387 . S
C425 C427 1.387 1_655 S
H426 C433 0.950 . S
C427 C425 1.387 1_455 S
C427 C429 1.390 . S
C427 H431 0.950 . S
H428 C424 0.950 . S
C429 C427 1.390 . S
C429 C430 1.387 1_455 S
C429 H432 0.950 . S
C430 C429 1.387 1_655 S
C430 C433 1.387 . S
H431 C427 0.950 . S
H432 C429 0.950 . S
C433 C424 1.390 . S
C433 H426 0.950 . S
C433 C430 1.387 . S
C434 C435 1.363 1_545 S
C434 H438 0.950 . S
C434 C443 1.390 . S
C435 C434 1.363 1_565 S
C435 C437 1.411 . S
H436 C443 0.950 . S
C437 C435 1.411 . S
C437 C439 1.390 . S
C437 H441 0.950 . S
H438 C434 0.950 . S
C439 C437 1.390 . S
C439 C440 1.387 . S
C439 H442 0.950 . S
C440 C439 1.387 . S
C440 C443 1.387 1_565 S
H441 C437 0.950 . S
H442 C439 0.950 . S
C443 C434 1.390 . S
C443 H436 0.950 . S
C443 C440 1.387 1_545 S
C444 C445 1.387 . S
C444 H448 0.950 . S
C444 C453 1.390 . S
C445 C444 1.387 . S
C445 C447 1.387 . S
H446 C453 0.950 . S
C447 C445 1.387 . S
C447 C449 1.390 . S
C447 H451 0.950 . S
H448 C444 0.950 . S
C449 C447 1.390 . S
C449 C450 1.387 . S
C449 H452 0.950 . S
C450 C449 1.387 . S
C450 C453 1.387 . S
H451 C447 0.950 . S
H452 C449 0.950 . S
C453 C444 1.390 . S
C453 H446 0.950 . S
C453 C450 1.387 . S
C454 C455 1.387 . S
C454 H458 0.950 . S
C454 C463 1.390 . S
C455 C454 1.387 . S
C455 C457 1.387 . S
H456 C463 0.950 . S
C457 C455 1.387 . S
C457 C459 1.390 . S
C457 H461 0.950 . S
H458 C454 0.950 . S
C459 C457 1.390 . S
C459 C460 1.387 . S
C459 H462 0.950 . S
C460 C459 1.387 . S
C460 C463 1.387 . S
H461 C457 0.950 . S
H462 C459 0.950 . S
C463 C454 1.390 . S
C463 H456 0.950 . S
C463 C460 1.387 . S
C225 N70 1.840 . S
C230 C105 1.873 . S
C240 C126 1.531 . S
C235 N81 1.498 . S
C250 C160 1.473 . S
C245 N48 1.415 . S
C260 C194 1.554 . S
C255 N59 1.527 . S
C270 C96 1.872 . S
C265 N26 1.840 1_546 S
C275 N37 1.508 . S
C280 C135 1.536 . S
C285 N4 1.412 . S
C290 C169 1.469 . S
C295 N15 1.537 . S
C300 C203 1.556 . S
C310 C117 0.885 . S
C305 C64 0.829 . S
C320 C122 1.284 . S
C315 C75 1.250 1_565 S
C330 C156 1.193 . S
C325 C86 1.176 . S
C335 C53 0.629 . S
C340 C190 0.632 . S
C345 C20 0.826 . S
C350 C88 0.889 . S
C360 C151 1.284 . S
C355 C31 1.246 . S
C370 C185 1.195 . S
C365 C42 1.169 . S
C375 C9 0.630 . S
C380 C219 0.632 . S
C385 C61 1.348 . S
C390 C101 1.382 . S
C395 C72 1.720 . S
C400 C130 1.764 1_554 S
C410 C164 1.543 1_554 S
C405 C83 1.518 . S
C420 C198 1.605 . S
C415 C50 1.559 . S
C425 C17 1.340 . S
C430 C92 1.388 . S
C440 C139 1.765 . S
C435 C28 1.722 1_565 S
C450 C173 1.543 . S
C445 C39 1.514 . S
C455 C6 1.564 . S
C460 C207 1.605 . S
