# Generated by pormake.
# Topology rtl, (3,6)-cn, num edge types: 1
# Building blocks:
#     Node 0, Type 0, BuildingBlock: BETDAH_clean_linker_0, # of connection points: 3
#     Node 1, Type 0, BuildingBlock: BETDAH_clean_linker_0, # of connection points: 3
#     Node 2, Type 0, BuildingBlock: BETDAH_clean_linker_0, # of connection points: 3
#     Node 3, Type 0, BuildingBlock: BETDAH_clean_linker_0, # of connection points: 3
#     Node 4, Type 1, BuildingBlock: FUNLAD_clean_sbu_0, # of connection points: 6
#     Node 5, Type 1, BuildingBlock: FUNLAD_clean_sbu_0, # of connection points: 6
#     Edge 6, Type (0, 1), BuildingBlock: EZIPEK_clean_linker_0, # of connection points: 2
#     Edge 7, Type (0, 1), BuildingBlock: EZIPEK_clean_linker_0, # of connection points: 2
#     Edge 8, Type (0, 1), BuildingBlock: EZIPEK_clean_linker_0, # of connection points: 2
#     Edge 9, Type (0, 1), BuildingBlock: EZIPEK_clean_linker_0, # of connection points: 2
#     Edge 10, Type (0, 1), BuildingBlock: EZIPEK_clean_linker_0, # of connection points: 2
#     Edge 11, Type (0, 1), BuildingBlock: EZIPEK_clean_linker_0, # of connection points: 2
#     Edge 12, Type (0, 1), BuildingBlock: EZIPEK_clean_linker_0, # of connection points: 2
#     Edge 13, Type (0, 1), BuildingBlock: EZIPEK_clean_linker_0, # of connection points: 2
#     Edge 14, Type (0, 1), BuildingBlock: EZIPEK_clean_linker_0, # of connection points: 2
#     Edge 15, Type (0, 1), BuildingBlock: EZIPEK_clean_linker_0, # of connection points: 2
#     Edge 16, Type (0, 1), BuildingBlock: EZIPEK_clean_linker_0, # of connection points: 2
#     Edge 17, Type (0, 1), BuildingBlock: EZIPEK_clean_linker_0, # of connection points: 2
# Relax obj value: 0.003
# Max RMSD: 0.037
# Mean RMSD: 0.024
data_MOF--net-rtl--node1-FUNLAD_clean_sbu_0--node2-BETDAH_clean_linker_0--edge1-EZIPEK_clean_linker_0
_symmetry_space_group_name_H-M    P1
_symmetry_Int_Tables_number       1
_symmetry_cell_setting            triclinic
loop_
_symmetry_equiv_pos_as_xyz
'x, y, z'
_cell_length_a     30.694476
_cell_length_b     30.689244
_cell_length_c     15.037906
_cell_angle_alpha  91.39985
_cell_angle_beta   92.510418
_cell_angle_gamma 89.943114
loop_
_atom_site_label
_atom_site_type_symbol
_atom_site_fract_x
_atom_site_fract_y
_atom_site_fract_z
_atom_type_partial_charge
H0 H 0.10267 0.91123 0.02466 0.0
H1 H 0.15047 0.803 0.17348 0.0
H2 H 0.15689 0.79828 0.89189 0.0
C3 C 0.11966 0.88028 0.02513 0.0
C4 C 0.13365 0.86094 0.94492 0.0
C5 C 0.12664 0.86043 0.10739 0.0
C6 C 0.14575 0.81911 0.11042 0.0
C7 C 0.15614 0.79724 0.03174 0.0
C8 C 0.15002 0.81777 0.94965 0.0
N9 N 0.16706 0.75252 0.03447 0.0
C10 C 0.2096 0.73763 0.02937 0.0
H11 H 0.59803 0.59508 0.51724 0.0
H12 H 0.66722 0.69878 0.39645 0.0
H13 H 0.64468 0.70443 0.67689 0.0
C14 C 0.61619 0.62541 0.52304 0.0
C15 C 0.62165 0.6464 0.6063 0.0
C16 C 0.6323 0.644 0.44674 0.0
C17 C 0.65553 0.68361 0.45516 0.0
C18 C 0.65964 0.70561 0.53831 0.0
C19 C 0.64261 0.68689 0.61339 0.0
N20 N 0.67381 0.74945 0.54512 0.0
C21 C 0.71571 0.76294 0.52802 0.0
H22 H 0.91708 0.0966 0.0145 0.0
H23 H 0.87376 0.20703 0.16697 0.0
H24 H 0.85193 0.20294 0.88217 0.0
C25 C 0.90012 0.12761 0.0173 0.0
C26 C 0.88536 0.1471 0.93818 0.0
C27 C 0.8951 0.14842 0.09993 0.0
C28 C 0.87566 0.18969 0.10359 0.0
C29 C 0.8593 0.20906 0.02555 0.0
C30 C 0.86318 0.18729 0.94278 0.0
N31 N 0.84529 0.25294 0.03044 0.0
C32 C 0.80315 0.26622 0.00722 0.0
H33 H 0.42874 0.39606 0.53353 0.0
H34 H 0.31042 0.34016 0.62297 0.0
H35 H 0.33089 0.34855 0.34294 0.0
C36 C 0.39834 0.37876 0.51887 0.0
C37 C 0.38363 0.3723 0.43027 0.0
C38 C 0.37189 0.36791 0.58854 0.0
C39 C 0.33181 0.34676 0.56955 0.0
C40 C 0.31759 0.33859 0.48045 0.0
C41 C 0.34319 0.35225 0.41139 0.0
N42 N 0.27486 0.32348 0.45825 0.0
C43 C 0.25753 0.28506 0.48864 0.0
C44 C 0.05482 0.95746 0.4027 0.0
N45 N 0.08385 0.07353 0.54726 0.0
C46 C 0.1268 0.06216 0.54906 0.0
C47 C 0.15908 0.09426 0.54688 0.0
C48 C 0.14679 0.13819 0.54271 0.0
C49 C 0.10254 0.14913 0.54367 0.0
C50 C 0.07143 0.11613 0.54608 0.0
Zn51 Zn 0.03586 0.02688 0.53697 0.0
C52 C 0.9684 0.05075 0.39441 0.0
N53 N 0.93219 0.93352 0.50809 0.0
C54 C 0.9428 0.8904 0.50672 0.0
C55 C 0.88977 0.94665 0.50548 0.0
C56 C 0.85616 0.91594 0.50398 0.0
C57 C 0.86638 0.87145 0.50457 0.0
C58 C 0.91018 0.85859 0.50481 0.0
Zn59 Zn 0.98074 0.97966 0.51941 0.0
O60 O 0.07139 0.99111 0.44162 0.0
C61 C 0.04967 0.95607 0.66181 0.0
O62 O 0.01703 0.94529 0.42332 0.0
H63 H 0.88196 0.98102 0.50627 0.0
H64 H 0.13599 0.02813 0.54956 0.0
H65 H 0.97659 0.88063 0.50877 0.0
O66 O 0.06718 0.99076 0.63612 0.0
O67 O 0.01285 0.94419 0.62681 0.0
H68 H 0.03723 0.12455 0.54417 0.0
O69 O 0.94466 0.01593 0.61219 0.0
O70 O 0.99963 0.06107 0.6343 0.0
O71 O 0.95046 0.01536 0.41528 0.0
O72 O 0.00369 0.06288 0.43483 0.0
C73 C 0.96121 0.0494 0.65174 0.0
H74 H 0.19309 0.08491 0.54545 0.0
H75 H 0.09214 0.18281 0.53981 0.0
H76 H 0.82255 0.92675 0.50409 0.0
H77 H 0.91898 0.82441 0.50573 0.0
C78 C 0.45616 0.45698 0.88845 0.0
N79 N 0.58323 0.43388 0.99502 0.0
C80 C 0.57331 0.39059 0.99221 0.0
C81 C 0.60637 0.35932 0.98796 0.0
C82 C 0.64996 0.37284 0.98732 0.0
C83 C 0.65934 0.41755 0.98871 0.0
C84 C 0.62529 0.44771 0.99243 0.0
Zn85 Zn 0.5341 0.47889 0.00702 0.0
C86 C 0.54183 0.55256 0.88527 0.0
N87 N 0.43105 0.5717 0.03511 0.0
C88 C 0.38901 0.5575 0.03442 0.0
C89 C 0.44061 0.61507 0.038 0.0
C90 C 0.40718 0.64605 0.03876 0.0
C91 C 0.36369 0.63208 0.03639 0.0
C92 C 0.35464 0.58734 0.03489 0.0
Zn93 Zn 0.48028 0.52679 0.02432 0.0
O94 O 0.49408 0.44316 0.91086 0.0
C95 C 0.47286 0.45454 0.14805 0.0
O96 O 0.44238 0.49175 0.92524 0.0
H97 H 0.47419 0.6257 0.03815 0.0
H98 H 0.53973 0.38025 0.99441 0.0
H99 H 0.38206 0.52295 0.03196 0.0
O100 O 0.50835 0.44293 0.11367 0.0
O101 O 0.45336 0.48854 0.12085 0.0
H102 H 0.63251 0.4822 0.99445 0.0
O103 O 0.51823 0.56004 0.12478 0.0
O104 O 0.57334 0.51614 0.10181 0.0
O105 O 0.50896 0.56545 0.92718 0.0
O106 O 0.55884 0.5158 0.90306 0.0
C107 C 0.55738 0.54867 0.14313 0.0
H108 H 0.59816 0.32499 0.98689 0.0
H109 H 0.69272 0.42894 0.98819 0.0
H110 H 0.41505 0.68046 0.03983 0.0
H111 H 0.3213 0.57569 0.03302 0.0
C112 C 0.21051 0.22498 0.42851 0.0
C113 C 0.23367 0.24504 0.50233 0.0
C114 C 0.20203 0.19326 0.60313 0.0
C115 C 0.1795 0.17274 0.52902 0.0
N116 N 0.16859 0.16287 0.37009 0.0
N117 N 0.25861 0.24414 0.65618 0.0
C118 C 0.18577 0.18671 0.44128 0.0
C119 C 0.23169 0.22783 0.58864 0.0
N120 N 0.211 0.24338 0.34654 0.0
N121 N 0.19391 0.18058 0.68734 0.0
H122 H 0.2805 0.26944 0.64718 0.0
H123 H 0.2619 0.2305 0.71881 0.0
H124 H 0.17336 0.1546 0.69996 0.0
H125 H 0.20539 0.19722 0.74477 0.0
H126 H 0.19045 0.23375 0.29276 0.0
H127 H 0.23015 0.27031 0.33325 0.0
H128 H 0.17584 0.16845 0.30437 0.0
H129 H 0.14972 0.13498 0.37686 0.0
C130 C 0.26623 0.69722 0.94831 0.0
C131 C 0.2521 0.71685 0.02831 0.0
C132 C 0.31303 0.68375 0.11307 0.0
C133 C 0.32731 0.66405 0.03306 0.0
N134 N 0.32358 0.65854 0.87278 0.0
N135 N 0.26605 0.73725 0.18245 0.0
C136 C 0.30576 0.6729 0.94997 0.0
C137 C 0.27691 0.71286 0.10936 0.0
N138 N 0.2411 0.70075 0.87143 0.0
N139 N 0.33292 0.6732 0.19283 0.0
H140 H 0.23961 0.75868 0.18163 0.0
H141 H 0.28512 0.73915 0.24136 0.0
H142 H 0.36004 0.65276 0.19791 0.0
H143 H 0.32107 0.68239 0.25431 0.0
H144 H 0.24662 0.68305 0.81308 0.0
H145 H 0.21306 0.71998 0.86716 0.0
H146 H 0.31203 0.66739 0.80967 0.0
H147 H 0.35228 0.64032 0.87179 0.0
C148 C 0.77728 0.80373 0.6015 0.0
C149 C 0.75769 0.78439 0.52296 0.0
C150 C 0.81167 0.81908 0.43228 0.0
C151 C 0.83112 0.83868 0.51081 0.0
N152 N 0.83876 0.84327 0.67097 0.0
N153 N 0.76025 0.76572 0.36709 0.0
C154 C 0.81589 0.82889 0.59579 0.0
C155 C 0.77627 0.7895 0.43931 0.0
N156 N 0.75802 0.79929 0.68116 0.0
N157 N 0.82615 0.82997 0.35104 0.0
H158 H 0.73427 0.74403 0.37077 0.0
H159 H 0.77462 0.7647 0.30568 0.0
H160 H 0.85277 0.85049 0.34381 0.0
H161 H 0.81055 0.82072 0.2907 0.0
H162 H 0.7672 0.81702 0.73881 0.0
H163 H 0.73103 0.7793 0.68888 0.0
H164 H 0.83222 0.83356 0.73484 0.0
H165 H 0.86671 0.86249 0.66931 0.0
C166 C 0.73296 0.28832 0.06833 0.0
C167 C 0.76055 0.28646 0.99536 0.0
C168 C 0.71011 0.33334 0.91042 0.0
C169 C 0.68609 0.34044 0.98809 0.0
N170 N 0.67648 0.32787 0.14392 0.0
N171 N 0.77711 0.30714 0.84725 0.0
C172 C 0.69766 0.31837 0.06768 0.0
C173 C 0.74942 0.30865 0.91603 0.0
N174 N 0.74052 0.26119 0.13815 0.0
N175 N 0.6948 0.34959 0.83117 0.0
H176 H 0.80506 0.28772 0.84792 0.0
H177 H 0.7737 0.32663 0.79169 0.0
H178 H 0.66607 0.36766 0.82498 0.0
H179 H 0.7084 0.34223 0.77041 0.0
H180 H 0.71917 0.25782 0.18948 0.0
H181 H 0.76626 0.23893 0.14046 0.0
H182 H 0.68666 0.31667 0.20624 0.0
H183 H 0.65055 0.34977 0.14655 0.0
C184 C 0.08149 0.86451 0.24376 0.0
C185 C 0.11268 0.88338 0.18975 0.0
C186 C 0.10737 0.95213 0.27485 0.0
C187 C 0.07883 0.93194 0.33413 0.0
N188 N 0.05487 0.86334 0.39164 0.0
N189 N 0.16546 0.94046 0.1731 0.0
C190 C 0.0708 0.88638 0.32376 0.0
C191 C 0.12898 0.92568 0.21168 0.0
N192 N 0.06053 0.82678 0.21769 0.0
N193 N 0.11235 0.99636 0.27385 0.0
H194 H 0.18295 0.92136 0.12872 0.0
H195 H 0.18093 0.96955 0.19292 0.0
H196 H 0.09663 0.01827 0.31509 0.0
H197 H 0.12911 0.01185 0.22473 0.0
H198 H 0.03472 0.81429 0.25206 0.0
H199 H 0.06558 0.81058 0.1573 0.0
H200 H 0.05144 0.82953 0.38876 0.0
H201 H 0.05123 0.87717 0.45469 0.0
C202 C 0.62787 0.60567 0.74939 0.0
C203 C 0.60163 0.62723 0.68433 0.0
C204 C 0.53554 0.60154 0.75183 0.0
C205 C 0.56174 0.58103 0.81925 0.0
N206 N 0.63207 0.57619 0.89725 0.0
N207 N 0.53143 0.65548 0.6367 0.0
C208 C 0.60776 0.58678 0.8225 0.0
C209 C 0.55573 0.62832 0.68991 0.0
N210 N 0.67183 0.60207 0.74012 0.0
N211 N 0.49173 0.59383 0.7434 0.0
H212 H 0.54519 0.67557 0.59046 0.0
H213 H 0.49835 0.66128 0.6444 0.0
H214 H 0.47509 0.57498 0.78704 0.0
H215 H 0.47229 0.60336 0.68877 0.0
H216 H 0.69178 0.58237 0.78005 0.0
H217 H 0.68787 0.61611 0.68821 0.0
H218 H 0.66517 0.58331 0.90621 0.0
H219 H 0.61827 0.56505 0.95463 0.0
C220 C 0.88599 0.11122 0.24586 0.0
C221 C 0.91369 0.12764 0.18132 0.0
C222 C 0.97598 0.09052 0.25228 0.0
C223 C 0.94929 0.07731 0.3215 0.0
N224 N 0.88105 0.08395 0.3949 0.0
N225 N 0.98668 0.1424 0.13685 0.0
C226 C 0.90484 0.09022 0.32154 0.0
C227 C 0.95927 0.12039 0.18915 0.0
N228 N 0.84173 0.11407 0.23335 0.0
N229 N 0.01634 0.07256 0.24331 0.0
H230 H 0.9756 0.16531 0.09095 0.0
H231 H 0.02053 0.14128 0.14571 0.0
H232 H 0.02864 0.04828 0.28452 0.0
H233 H 0.03537 0.07802 0.18895 0.0
H234 H 0.82006 0.09838 0.27333 0.0
H235 H 0.8266 0.12907 0.17872 0.0
H236 H 0.84982 0.09658 0.40161 0.0
H237 H 0.89405 0.07001 0.4528 0.0
C238 C 0.40842 0.36394 0.74138 0.0
C239 C 0.38336 0.3874 0.67768 0.0
C240 C 0.40391 0.45617 0.7529 0.0
C241 C 0.42845 0.43301 0.81913 0.0
N242 N 0.44159 0.3641 0.89029 0.0
N243 N 0.34548 0.45346 0.63953 0.0
C244 C 0.42698 0.38656 0.81765 0.0
C245 C 0.37688 0.4327 0.68988 0.0
N246 N 0.41544 0.32039 0.72789 0.0
N247 N 0.40885 0.50008 0.74467 0.0
H248 H 0.32512 0.43695 0.59266 0.0
H249 H 0.33665 0.48584 0.6511 0.0
H250 H 0.43031 0.51874 0.78471 0.0
H251 H 0.39529 0.51729 0.69135 0.0
H252 H 0.43766 0.30253 0.76665 0.0
H253 H 0.4006 0.30275 0.67462 0.0
H254 H 0.43801 0.33053 0.89561 0.0
H255 H 0.45261 0.37965 0.94927 0.0
C256 C 0.63264 0.57797 0.34538 0.0
C257 C 0.62129 0.62241 0.35862 0.0
C258 C 0.58076 0.61994 0.21474 0.0
C259 C 0.58376 0.57377 0.2122 0.0
N260 N 0.60821 0.50805 0.28568 0.0
N261 N 0.57772 0.68406 0.31011 0.0
C262 C 0.60907 0.5524 0.27959 0.0
C263 C 0.59387 0.64326 0.29402 0.0
N264 N 0.66557 0.56012 0.39652 0.0
N265 N 0.56606 0.64165 0.14108 0.0
H266 H 0.58444 0.70192 0.36885 0.0
H267 H 0.55404 0.69837 0.26844 0.0
H268 H 0.55845 0.62577 0.08022 0.0
H269 H 0.56656 0.67553 0.1377 0.0
H270 H 0.67761 0.52883 0.38469 0.0
H271 H 0.68379 0.57834 0.44442 0.0
H272 H 0.62277 0.49171 0.33917 0.0
H273 H 0.58926 0.48774 0.2432 0.0
C274 C 0.88522 0.08086 0.83783 0.0
C275 C 0.89651 0.12535 0.85224 0.0
C276 C 0.93835 0.12156 0.71741 0.0
C277 C 0.93576 0.07535 0.71651 0.0
N278 N 0.91125 0.01051 0.78893 0.0
N279 N 0.94077 0.18647 0.81096 0.0
C280 C 0.90992 0.05467 0.77944 0.0
C281 C 0.92464 0.14559 0.793 0.0
N282 N 0.85143 0.0635 0.88128 0.0
N283 N 0.95272 0.1427 0.64539 0.0
H284 H 0.93363 0.20489 0.86751 0.0
H285 H 0.96479 0.20031 0.77365 0.0
H286 H 0.95986 0.12639 0.58612 0.0
H287 H 0.95204 0.17654 0.64081 0.0
H288 H 0.83966 0.03207 0.86776 0.0
H289 H 0.83237 0.08226 0.92349 0.0
H290 H 0.89585 0.99487 0.83969 0.0
H291 H 0.93162 0.98992 0.75362 0.0
C292 C 0.42847 0.36549 0.29398 0.0
C293 C 0.40808 0.39213 0.35837 0.0
C294 C 0.44096 0.45673 0.2974 0.0
C295 C 0.45525 0.43131 0.22426 0.0
N296 N 0.45921 0.36096 0.14864 0.0
N297 N 0.38753 0.46426 0.40956 0.0
C298 C 0.44845 0.3854 0.22151 0.0
C299 C 0.41226 0.43811 0.35684 0.0
N300 N 0.42969 0.32131 0.30321 0.0
N301 N 0.45607 0.4983 0.31211 0.0
H302 H 0.3645 0.45207 0.45138 0.0
H303 H 0.38652 0.49806 0.40443 0.0
H304 H 0.47939 0.51226 0.27313 0.0
H305 H 0.44954 0.51677 0.36907 0.0
H306 H 0.44809 0.3006 0.26375 0.0
H307 H 0.41536 0.30568 0.35539 0.0
H308 H 0.44995 0.32851 0.13851 0.0
H309 H 0.47481 0.3737 0.09516 0.0
C310 C 0.12276 0.93196 0.86472 0.0
C311 C 0.12619 0.88597 0.85939 0.0
C312 C 0.08306 0.88563 0.71859 0.0
C313 C 0.07308 0.93062 0.73238 0.0
N314 N 0.07951 0.99519 0.82765 0.0
N315 N 0.13882 0.83189 0.74543 0.0
C316 C 0.09244 0.95362 0.8073 0.0
C317 C 0.11416 0.86532 0.77686 0.0
N318 N 0.15033 0.95486 0.92212 0.0
N319 N 0.06386 0.86205 0.64956 0.0
H320 H 0.17007 0.82625 0.7727 0.0
H321 H 0.13325 0.81705 0.6829 0.0
H322 H 0.04186 0.87515 0.60323 0.0
H323 H 0.06717 0.82831 0.6432 0.0
H324 H 0.1523 0.98877 0.92396 0.0
H325 H 0.1746 0.93925 0.96043 0.0
H326 H 0.08966 0.01179 0.88618 0.0
H327 H 0.05484 0.01125 0.79149 0.0
loop_
_geom_bond_atom_site_label_1
_geom_bond_atom_site_label_2
_geom_bond_distance
_geom_bond_site_symmetry_2
_ccdc_geom_bond_type
H0 C3 0.929 . S
H1 C6 0.929 . S
H2 C8 0.930 . S
C3 H0 0.929 . S
C3 C4 1.398 1_554 S
C3 C5 1.396 . S
C4 C3 1.398 1_556 S
C4 C8 1.407 . S
C5 C3 1.396 . S
C5 C6 1.394 . S
C6 H1 0.929 . S
C6 C5 1.394 . S
C6 C7 1.382 . S
C7 C6 1.382 . S
C7 C8 1.392 1_554 S
C7 N9 1.420 1_554 S
C8 H2 0.930 . S
C8 C4 1.407 . S
C8 C7 1.392 1_556 S
N9 C7 1.420 1_556 S
N9 C10 1.244 1_556 S
C10 N9 1.244 1_554 S
H11 C14 0.929 . S
H12 C17 0.929 . S
H13 C19 0.930 . S
C14 H11 0.929 . S
C14 C15 1.398 . S
C14 C16 1.396 . S
C15 C14 1.398 . S
C15 C19 1.407 . S
C16 C14 1.396 . S
C16 C17 1.394 . S
C17 H12 0.929 . S
C17 C16 1.394 . S
C17 C18 1.382 . S
C18 C17 1.382 . S
C18 C19 1.392 . S
C18 N20 1.420 . S
C19 H13 0.930 . S
C19 C15 1.407 . S
C19 C18 1.392 . S
N20 C18 1.420 . S
N20 C21 1.244 . S
C21 N20 1.244 . S
H22 C25 0.929 . S
H23 C28 0.929 . S
H24 C30 0.930 . S
C25 H22 0.929 . S
C25 C26 1.398 1_554 S
C25 C27 1.396 . S
C26 C25 1.398 1_556 S
C26 C30 1.407 . S
C27 C25 1.396 . S
C27 C28 1.394 . S
C28 H23 0.929 . S
C28 C27 1.394 . S
C28 C29 1.382 1_554 S
C29 C28 1.382 1_556 S
C29 C30 1.392 . S
C29 N31 1.420 . S
C30 H24 0.930 . S
C30 C26 1.407 . S
C30 C29 1.392 . S
N31 C29 1.420 . S
N31 C32 1.244 1_556 S
C32 N31 1.244 1_554 S
H33 C36 0.929 . S
H34 C39 0.929 . S
H35 C41 0.930 . S
C36 H33 0.929 . S
C36 C37 1.398 . S
C36 C38 1.396 . S
C37 C36 1.398 . S
C37 C41 1.407 . S
C38 C36 1.396 . S
C38 C39 1.394 . S
C39 H34 0.929 . S
C39 C38 1.394 . S
C39 C40 1.382 . S
C40 C39 1.382 . S
C40 C41 1.392 . S
C40 N42 1.420 . S
C41 H35 0.930 . S
C41 C37 1.407 . S
C41 C40 1.392 . S
N42 C40 1.420 . S
N42 C43 1.244 . S
C43 N42 1.244 . S
C44 O60 1.251 . S
C44 O62 1.254 . S
N45 C46 1.333 . S
N45 C50 1.307 . S
N45 Zn51 2.020 . S
C46 N45 1.333 . S
C46 C47 1.379 . S
C46 H64 0.952 . S
C47 C46 1.379 . S
C47 C48 1.390 . S
C47 H74 0.949 . S
C48 C47 1.390 . S
C48 C49 1.357 . S
C49 C48 1.357 . S
C49 C50 1.370 . S
C49 H75 0.950 . S
C50 N45 1.307 . S
C50 C49 1.370 . S
C50 H68 0.948 . S
Zn51 N45 2.020 . S
Zn51 O60 2.039 1_545 S
Zn51 O66 2.034 1_545 S
Zn51 O70 2.025 1_455 S
Zn51 O72 2.024 1_455 S
C52 O71 1.246 . S
C52 O72 1.249 . S
N53 C54 1.307 . S
N53 C55 1.333 . S
N53 Zn59 2.020 . S
C54 N53 1.307 . S
C54 C58 1.370 . S
C54 H65 0.948 . S
C55 N53 1.333 . S
C55 C56 1.379 . S
C55 H63 0.952 . S
C56 C55 1.379 . S
C56 C57 1.390 . S
C56 H76 0.949 . S
C57 C56 1.390 . S
C57 C58 1.357 . S
C58 C54 1.370 . S
C58 C57 1.357 . S
C58 H77 0.950 . S
Zn59 N53 2.020 . S
Zn59 O62 2.025 1_655 S
Zn59 O67 2.024 1_655 S
Zn59 O69 2.039 1_565 S
Zn59 O71 2.034 1_565 S
O60 C44 1.251 . S
O60 Zn51 2.039 1_565 S
C61 O66 1.246 . S
C61 O67 1.249 . S
O62 C44 1.254 . S
O62 Zn59 2.025 1_455 S
H63 C55 0.952 . S
H64 C46 0.952 . S
H65 C54 0.948 . S
O66 Zn51 2.034 1_565 S
O66 C61 1.246 . S
O67 Zn59 2.024 1_455 S
O67 C61 1.249 . S
H68 C50 0.948 . S
O69 Zn59 2.039 1_545 S
O69 C73 1.251 . S
O70 Zn51 2.025 1_655 S
O70 C73 1.254 . S
O71 C52 1.246 . S
O71 Zn59 2.034 1_545 S
O72 Zn51 2.024 1_655 S
O72 C52 1.249 . S
C73 O69 1.251 . S
C73 O70 1.254 . S
H74 C47 0.949 . S
H75 C49 0.950 . S
H76 C56 0.949 . S
H77 C58 0.950 . S
C78 O94 1.251 . S
C78 O96 1.254 . S
N79 C80 1.333 . S
N79 C84 1.307 . S
N79 Zn85 2.020 . S
C80 N79 1.333 . S
C80 C81 1.379 . S
C80 H98 0.952 1_554 S
C81 C80 1.379 . S
C81 C82 1.390 . S
C81 H108 0.949 1_554 S
C82 C81 1.390 . S
C82 C83 1.357 . S
C83 C82 1.357 . S
C83 C84 1.370 . S
C83 H109 0.950 . S
C84 N79 1.307 . S
C84 C83 1.370 . S
C84 H102 0.948 . S
Zn85 N79 2.020 . S
Zn85 O94 2.039 1_554 S
Zn85 O100 2.034 . S
Zn85 O104 2.025 . S
Zn85 O106 2.024 1_554 S
C86 O105 1.246 . S
C86 O106 1.249 . S
N87 C88 1.307 . S
N87 C89 1.333 . S
N87 Zn93 2.020 . S
C88 N87 1.307 . S
C88 C92 1.370 . S
C88 H99 0.948 1_554 S
C89 N87 1.333 . S
C89 C90 1.379 . S
C89 H97 0.952 . S
C90 C89 1.379 . S
C90 C91 1.390 . S
C90 H110 0.949 . S
C91 C90 1.390 . S
C91 C92 1.357 . S
C92 C88 1.370 . S
C92 C91 1.357 . S
C92 H111 0.950 1_554 S
Zn93 N87 2.020 . S
Zn93 O96 2.025 1_554 S
Zn93 O101 2.024 . S
Zn93 O103 2.039 . S
Zn93 O105 2.034 1_554 S
O94 C78 1.251 . S
O94 Zn85 2.039 1_556 S
C95 O100 1.246 . S
C95 O101 1.249 . S
O96 C78 1.254 . S
O96 Zn93 2.025 1_556 S
H97 C89 0.952 . S
H98 C80 0.952 1_556 S
H99 C88 0.948 1_556 S
O100 Zn85 2.034 . S
O100 C95 1.246 . S
O101 Zn93 2.024 . S
O101 C95 1.249 . S
H102 C84 0.948 . S
O103 Zn93 2.039 . S
O103 C107 1.251 . S
O104 Zn85 2.025 . S
O104 C107 1.254 . S
O105 C86 1.246 . S
O105 Zn93 2.034 1_556 S
O106 Zn85 2.024 1_556 S
O106 C86 1.249 . S
C107 O103 1.251 . S
C107 O104 1.254 . S
H108 C81 0.949 1_556 S
H109 C83 0.950 . S
H110 C90 0.949 . S
H111 C92 0.950 1_556 S
C112 C113 1.363 . S
C112 C118 1.379 . S
C112 N120 1.356 . S
C113 C112 1.363 . S
C113 C119 1.363 . S
C114 C115 1.363 . S
C114 C119 1.379 . S
C114 N121 1.356 . S
C115 C114 1.363 . S
C115 C118 1.363 . S
N116 C118 1.356 . S
N116 H128 0.984 . S
N116 H129 0.985 . S
N117 C119 1.356 . S
N117 H122 0.984 . S
N117 H123 0.985 . S
C118 C112 1.379 . S
C118 C115 1.363 . S
C118 N116 1.356 . S
C119 C113 1.363 . S
C119 C114 1.379 . S
C119 N117 1.356 . S
N120 C112 1.356 . S
N120 H126 0.984 . S
N120 H127 0.984 . S
N121 C114 1.356 . S
N121 H124 0.984 . S
N121 H125 0.985 . S
H122 N117 0.984 . S
H123 N117 0.985 . S
H124 N121 0.984 . S
H125 N121 0.985 . S
H126 N120 0.984 . S
H127 N120 0.984 . S
H128 N116 0.984 . S
H129 N116 0.985 . S
C130 C131 1.363 1_556 S
C130 C136 1.379 . S
C130 N138 1.356 . S
C131 C130 1.363 1_554 S
C131 C137 1.363 . S
C132 C133 1.363 . S
C132 C137 1.379 . S
C132 N139 1.356 . S
C133 C132 1.363 . S
C133 C136 1.363 1_554 S
N134 C136 1.356 . S
N134 H146 0.984 . S
N134 H147 0.985 . S
N135 C137 1.356 . S
N135 H140 0.984 . S
N135 H141 0.985 . S
C136 C130 1.379 . S
C136 C133 1.363 1_556 S
C136 N134 1.356 . S
C137 C131 1.363 . S
C137 C132 1.379 . S
C137 N135 1.356 . S
N138 C130 1.356 . S
N138 H144 0.984 . S
N138 H145 0.984 . S
N139 C132 1.356 . S
N139 H142 0.984 . S
N139 H143 0.985 . S
H140 N135 0.984 . S
H141 N135 0.985 . S
H142 N139 0.984 . S
H143 N139 0.985 . S
H144 N138 0.984 . S
H145 N138 0.984 . S
H146 N134 0.984 . S
H147 N134 0.985 . S
C148 C149 1.363 . S
C148 C154 1.379 . S
C148 N156 1.356 . S
C149 C148 1.363 . S
C149 C155 1.363 . S
C150 C151 1.363 . S
C150 C155 1.379 . S
C150 N157 1.356 . S
C151 C150 1.363 . S
C151 C154 1.363 . S
N152 C154 1.356 . S
N152 H164 0.984 . S
N152 H165 0.985 . S
N153 C155 1.356 . S
N153 H158 0.984 . S
N153 H159 0.985 . S
C154 C148 1.379 . S
C154 C151 1.363 . S
C154 N152 1.356 . S
C155 C149 1.363 . S
C155 C150 1.379 . S
C155 N153 1.356 . S
N156 C148 1.356 . S
N156 H162 0.984 . S
N156 H163 0.984 . S
N157 C150 1.356 . S
N157 H160 0.984 . S
N157 H161 0.985 . S
H158 N153 0.984 . S
H159 N153 0.985 . S
H160 N157 0.984 . S
H161 N157 0.985 . S
H162 N156 0.984 . S
H163 N156 0.984 . S
H164 N152 0.984 . S
H165 N152 0.985 . S
C166 C167 1.363 . S
C166 C172 1.379 . S
C166 N174 1.356 . S
C167 C166 1.363 . S
C167 C173 1.363 1_554 S
C168 C169 1.363 1_556 S
C168 C173 1.379 . S
C168 N175 1.356 . S
C169 C168 1.363 1_554 S
C169 C172 1.363 . S
N170 C172 1.356 . S
N170 H182 0.984 . S
N170 H183 0.985 . S
N171 C173 1.356 . S
N171 H176 0.984 . S
N171 H177 0.985 . S
C172 C166 1.379 . S
C172 C169 1.363 . S
C172 N170 1.356 . S
C173 C167 1.363 1_556 S
C173 C168 1.379 . S
C173 N171 1.356 . S
N174 C166 1.356 . S
N174 H180 0.984 . S
N174 H181 0.984 . S
N175 C168 1.356 . S
N175 H178 0.984 . S
N175 H179 0.985 . S
H176 N171 0.984 . S
H177 N171 0.985 . S
H178 N175 0.984 . S
H179 N175 0.985 . S
H180 N174 0.984 . S
H181 N174 0.984 . S
H182 N170 0.984 . S
H183 N170 0.985 . S
C184 C185 1.363 . S
C184 C190 1.379 . S
C184 N192 1.356 . S
C185 C184 1.363 . S
C185 C191 1.363 . S
C186 C187 1.363 . S
C186 C191 1.379 . S
C186 N193 1.356 1_565 S
C187 C186 1.363 . S
C187 C190 1.363 . S
N188 C190 1.356 . S
N188 H200 0.984 . S
N188 H201 0.985 . S
N189 C191 1.356 . S
N189 H194 0.984 . S
N189 H195 0.985 . S
C190 C184 1.379 . S
C190 C187 1.363 . S
C190 N188 1.356 . S
C191 C185 1.363 . S
C191 C186 1.379 . S
C191 N189 1.356 . S
N192 C184 1.356 . S
N192 H198 0.984 . S
N192 H199 0.984 . S
N193 C186 1.356 1_545 S
N193 H196 0.984 . S
N193 H197 0.985 . S
H194 N189 0.984 . S
H195 N189 0.985 . S
H196 N193 0.984 . S
H197 N193 0.985 . S
H198 N192 0.984 . S
H199 N192 0.984 . S
H200 N188 0.984 . S
H201 N188 0.985 . S
C202 C203 1.363 . S
C202 C208 1.379 . S
C202 N210 1.356 . S
C203 C202 1.363 . S
C203 C209 1.363 . S
C204 C205 1.363 . S
C204 C209 1.379 . S
C204 N211 1.356 . S
C205 C204 1.363 . S
C205 C208 1.363 . S
N206 C208 1.356 . S
N206 H218 0.984 . S
N206 H219 0.985 . S
N207 C209 1.356 . S
N207 H212 0.984 . S
N207 H213 0.985 . S
C208 C202 1.379 . S
C208 C205 1.363 . S
C208 N206 1.356 . S
C209 C203 1.363 . S
C209 C204 1.379 . S
C209 N207 1.356 . S
N210 C202 1.356 . S
N210 H216 0.984 . S
N210 H217 0.984 . S
N211 C204 1.356 . S
N211 H214 0.984 . S
N211 H215 0.985 . S
H212 N207 0.984 . S
H213 N207 0.985 . S
H214 N211 0.984 . S
H215 N211 0.985 . S
H216 N210 0.984 . S
H217 N210 0.984 . S
H218 N206 0.984 . S
H219 N206 0.985 . S
C220 C221 1.363 . S
C220 C226 1.379 . S
C220 N228 1.356 . S
C221 C220 1.363 . S
C221 C227 1.363 . S
C222 C223 1.363 . S
C222 C227 1.379 . S
C222 N229 1.356 . S
C223 C222 1.363 . S
C223 C226 1.363 . S
N224 C226 1.356 . S
N224 H236 0.984 . S
N224 H237 0.985 . S
N225 C227 1.356 . S
N225 H230 0.984 . S
N225 H231 0.985 . S
C226 C220 1.379 . S
C226 C223 1.363 . S
C226 N224 1.356 . S
C227 C221 1.363 . S
C227 C222 1.379 . S
C227 N225 1.356 . S
N228 C220 1.356 . S
N228 H234 0.984 . S
N228 H235 0.984 . S
N229 C222 1.356 . S
N229 H232 0.984 . S
N229 H233 0.985 1_655 S
H230 N225 0.984 . S
H231 N225 0.985 . S
H232 N229 0.984 . S
H233 N229 0.985 1_455 S
H234 N228 0.984 . S
H235 N228 0.984 . S
H236 N224 0.984 . S
H237 N224 0.985 . S
C238 C239 1.363 . S
C238 C244 1.379 . S
C238 N246 1.356 . S
C239 C238 1.363 . S
C239 C245 1.363 . S
C240 C241 1.363 . S
C240 C245 1.379 . S
C240 N247 1.356 . S
C241 C240 1.363 . S
C241 C244 1.363 . S
N242 C244 1.356 . S
N242 H254 0.984 . S
N242 H255 0.985 . S
N243 C245 1.356 . S
N243 H248 0.984 . S
N243 H249 0.985 . S
C244 C238 1.379 . S
C244 C241 1.363 . S
C244 N242 1.356 . S
C245 C239 1.363 . S
C245 C240 1.379 . S
C245 N243 1.356 . S
N246 C238 1.356 . S
N246 H252 0.984 . S
N246 H253 0.984 . S
N247 C240 1.356 . S
N247 H250 0.984 . S
N247 H251 0.985 . S
H248 N243 0.984 . S
H249 N243 0.985 . S
H250 N247 0.984 . S
H251 N247 0.985 . S
H252 N246 0.984 . S
H253 N246 0.984 . S
H254 N242 0.984 . S
H255 N242 0.985 . S
C256 C257 1.363 . S
C256 C262 1.379 . S
C256 N264 1.356 . S
C257 C256 1.363 . S
C257 C263 1.363 . S
C258 C259 1.363 . S
C258 C263 1.379 . S
C258 N265 1.356 . S
C259 C258 1.363 . S
C259 C262 1.363 . S
N260 C262 1.356 . S
N260 H272 0.984 . S
N260 H273 0.985 . S
N261 C263 1.356 . S
N261 H266 0.984 . S
N261 H267 0.985 . S
C262 C256 1.379 . S
C262 C259 1.363 . S
C262 N260 1.356 . S
C263 C257 1.363 . S
C263 C258 1.379 . S
C263 N261 1.356 . S
N264 C256 1.356 . S
N264 H270 0.984 . S
N264 H271 0.984 . S
N265 C258 1.356 . S
N265 H268 0.984 . S
N265 H269 0.985 . S
H266 N261 0.984 . S
H267 N261 0.985 . S
H268 N265 0.984 . S
H269 N265 0.985 . S
H270 N264 0.984 . S
H271 N264 0.984 . S
H272 N260 0.984 . S
H273 N260 0.985 . S
C274 C275 1.363 . S
C274 C280 1.379 . S
C274 N282 1.356 . S
C275 C274 1.363 . S
C275 C281 1.363 . S
C276 C277 1.363 . S
C276 C281 1.379 . S
C276 N283 1.356 . S
C277 C276 1.363 . S
C277 C280 1.363 . S
N278 C280 1.356 . S
N278 H290 0.984 1_545 S
N278 H291 0.985 . S
N279 C281 1.356 . S
N279 H284 0.984 . S
N279 H285 0.985 . S
C280 C274 1.379 . S
C280 C277 1.363 . S
C280 N278 1.356 . S
C281 C275 1.363 . S
C281 C276 1.379 . S
C281 N279 1.356 . S
N282 C274 1.356 . S
N282 H288 0.984 . S
N282 H289 0.984 . S
N283 C276 1.356 . S
N283 H286 0.984 . S
N283 H287 0.985 . S
H284 N279 0.984 . S
H285 N279 0.985 . S
H286 N283 0.984 . S
H287 N283 0.985 . S
H288 N282 0.984 . S
H289 N282 0.984 . S
H290 N278 0.984 1_565 S
H291 N278 0.985 . S
C292 C293 1.363 . S
C292 C298 1.379 . S
C292 N300 1.356 . S
C293 C292 1.363 . S
C293 C299 1.363 . S
C294 C295 1.363 . S
C294 C299 1.379 . S
C294 N301 1.356 . S
C295 C294 1.363 . S
C295 C298 1.363 . S
N296 C298 1.356 . S
N296 H308 0.984 . S
N296 H309 0.985 . S
N297 C299 1.356 . S
N297 H302 0.984 . S
N297 H303 0.985 . S
C298 C292 1.379 . S
C298 C295 1.363 . S
C298 N296 1.356 . S
C299 C293 1.363 . S
C299 C294 1.379 . S
C299 N297 1.356 . S
N300 C292 1.356 . S
N300 H306 0.984 . S
N300 H307 0.984 . S
N301 C294 1.356 . S
N301 H304 0.984 . S
N301 H305 0.985 . S
H302 N297 0.984 . S
H303 N297 0.985 . S
H304 N301 0.984 . S
H305 N301 0.985 . S
H306 N300 0.984 . S
H307 N300 0.984 . S
H308 N296 0.984 . S
H309 N296 0.985 . S
C310 C311 1.363 . S
C310 C316 1.379 . S
C310 N318 1.356 . S
C311 C310 1.363 . S
C311 C317 1.363 . S
C312 C313 1.363 . S
C312 C317 1.379 . S
C312 N319 1.356 . S
C313 C312 1.363 . S
C313 C316 1.363 . S
N314 C316 1.356 . S
N314 H326 0.984 1_565 S
N314 H327 0.985 . S
N315 C317 1.356 . S
N315 H320 0.984 . S
N315 H321 0.985 . S
C316 C310 1.379 . S
C316 C313 1.363 . S
C316 N314 1.356 . S
C317 C311 1.363 . S
C317 C312 1.379 . S
C317 N315 1.356 . S
N318 C310 1.356 . S
N318 H324 0.984 . S
N318 H325 0.984 . S
N319 C312 1.356 . S
N319 H322 0.984 . S
N319 H323 0.985 . S
H320 N315 0.984 . S
H321 N315 0.985 . S
H322 N319 0.984 . S
H323 N319 0.985 . S
H324 N318 0.984 . S
H325 N318 0.984 . S
H326 N314 0.984 1_545 S
H327 N314 0.985 . S
C115 C48 1.505 . S
C113 C43 1.507 . S
C131 C10 1.508 . S
C133 C91 1.508 . S
C149 C21 1.502 . S
C151 C57 1.508 . S
C167 C32 1.505 . S
C169 C82 1.505 . S
C187 C44 1.556 . S
C185 C5 1.529 . S
C205 C86 1.535 . S
C203 C15 1.533 . S
C221 C27 1.532 . S
C223 C52 1.551 . S
C239 C38 1.515 . S
C241 C78 1.537 . S
C259 C107 1.478 . S
C257 C16 1.459 . S
C277 C73 1.464 . S
C275 C26 1.458 . S
C295 C95 1.477 . S
C293 C37 1.474 . S
C311 C4 1.460 . S
C313 C61 1.463 . S
