# Generated by pormake.
# Topology ctn, (3,4)-cn, num edge types: 1
# Building blocks:
#     Node 0, Type 0, BuildingBlock: CUQRIR_clean_linker_1, # of connection points: 3
#     Node 1, Type 0, BuildingBlock: CUQRIR_clean_linker_1, # of connection points: 3
#     Node 2, Type 0, BuildingBlock: CUQRIR_clean_linker_1, # of connection points: 3
#     Node 3, Type 0, BuildingBlock: CUQRIR_clean_linker_1, # of connection points: 3
#     Node 4, Type 0, BuildingBlock: CUQRIR_clean_linker_1, # of connection points: 3
#     Node 5, Type 0, BuildingBlock: CUQRIR_clean_linker_1, # of connection points: 3
#     Node 6, Type 0, BuildingBlock: CUQRIR_clean_linker_1, # of connection points: 3
#     Node 7, Type 0, BuildingBlock: CUQRIR_clean_linker_1, # of connection points: 3
#     Node 8, Type 0, BuildingBlock: CUQRIR_clean_linker_1, # of connection points: 3
#     Node 9, Type 0, BuildingBlock: CUQRIR_clean_linker_1, # of connection points: 3
#     Node 10, Type 0, BuildingBlock: CUQRIR_clean_linker_1, # of connection points: 3
#     Node 11, Type 0, BuildingBlock: CUQRIR_clean_linker_1, # of connection points: 3
#     Node 12, Type 0, BuildingBlock: CUQRIR_clean_linker_1, # of connection points: 3
#     Node 13, Type 0, BuildingBlock: CUQRIR_clean_linker_1, # of connection points: 3
#     Node 14, Type 0, BuildingBlock: CUQRIR_clean_linker_1, # of connection points: 3
#     Node 15, Type 0, BuildingBlock: CUQRIR_clean_linker_1, # of connection points: 3
#     Node 16, Type 1, BuildingBlock: NAHDIM_clean_sbu_0, # of connection points: 4
#     Node 17, Type 1, BuildingBlock: NAHDIM_clean_sbu_0, # of connection points: 4
#     Node 18, Type 1, BuildingBlock: NAHDIM_clean_sbu_0, # of connection points: 4
#     Node 19, Type 1, BuildingBlock: NAHDIM_clean_sbu_0, # of connection points: 4
#     Node 20, Type 1, BuildingBlock: NAHDIM_clean_sbu_0, # of connection points: 4
#     Node 21, Type 1, BuildingBlock: NAHDIM_clean_sbu_0, # of connection points: 4
#     Node 22, Type 1, BuildingBlock: NAHDIM_clean_sbu_0, # of connection points: 4
#     Node 23, Type 1, BuildingBlock: NAHDIM_clean_sbu_0, # of connection points: 4
#     Node 24, Type 1, BuildingBlock: NAHDIM_clean_sbu_0, # of connection points: 4
#     Node 25, Type 1, BuildingBlock: NAHDIM_clean_sbu_0, # of connection points: 4
#     Node 26, Type 1, BuildingBlock: NAHDIM_clean_sbu_0, # of connection points: 4
#     Node 27, Type 1, BuildingBlock: NAHDIM_clean_sbu_0, # of connection points: 4
#     Edge 28, Type (0, 1), None
#     Edge 29, Type (0, 1), None
#     Edge 30, Type (0, 1), None
#     Edge 31, Type (0, 1), None
#     Edge 32, Type (0, 1), None
#     Edge 33, Type (0, 1), None
#     Edge 34, Type (0, 1), None
#     Edge 35, Type (0, 1), None
#     Edge 36, Type (0, 1), None
#     Edge 37, Type (0, 1), None
#     Edge 38, Type (0, 1), None
#     Edge 39, Type (0, 1), None
#     Edge 40, Type (0, 1), None
#     Edge 41, Type (0, 1), None
#     Edge 42, Type (0, 1), None
#     Edge 43, Type (0, 1), None
#     Edge 44, Type (0, 1), None
#     Edge 45, Type (0, 1), None
#     Edge 46, Type (0, 1), None
#     Edge 47, Type (0, 1), None
#     Edge 48, Type (0, 1), None
#     Edge 49, Type (0, 1), None
#     Edge 50, Type (0, 1), None
#     Edge 51, Type (0, 1), None
#     Edge 52, Type (0, 1), None
#     Edge 53, Type (0, 1), None
#     Edge 54, Type (0, 1), None
#     Edge 55, Type (0, 1), None
#     Edge 56, Type (0, 1), None
#     Edge 57, Type (0, 1), None
#     Edge 58, Type (0, 1), None
#     Edge 59, Type (0, 1), None
#     Edge 60, Type (0, 1), None
#     Edge 61, Type (0, 1), None
#     Edge 62, Type (0, 1), None
#     Edge 63, Type (0, 1), None
#     Edge 64, Type (0, 1), None
#     Edge 65, Type (0, 1), None
#     Edge 66, Type (0, 1), None
#     Edge 67, Type (0, 1), None
#     Edge 68, Type (0, 1), None
#     Edge 69, Type (0, 1), None
#     Edge 70, Type (0, 1), None
#     Edge 71, Type (0, 1), None
#     Edge 72, Type (0, 1), None
#     Edge 73, Type (0, 1), None
#     Edge 74, Type (0, 1), None
#     Edge 75, Type (0, 1), None
# Relax obj value: 0.094
# Max RMSD: 0.210
# Mean RMSD: 0.125
data_MOF--net-ctn--node1-NAHDIM_clean_sbu_0--node2-CUQRIR_clean_linker_1--edge1-none
_symmetry_space_group_name_H-M    P1
_symmetry_Int_Tables_number       1
_symmetry_cell_setting            triclinic
loop_
_symmetry_equiv_pos_as_xyz
'x, y, z'
_cell_length_a     19.934827
_cell_length_b     19.111493
_cell_length_c     18.92757
_cell_angle_alpha  98.766884
_cell_angle_beta   90.997718
_cell_angle_gamma 97.270545
loop_
_atom_site_label
_atom_site_type_symbol
_atom_site_fract_x
_atom_site_fract_y
_atom_site_fract_z
_atom_type_partial_charge
C0 C 0.04879 0.96739 0.1078 0.0
N1 N 0.0765 -0.00291 0.05242 0.0
N2 N 0.98829 0.98966 0.12295 0.0
C3 C 0.0742 0.90607 0.13822 0.0
C4 C 0.97655 0.02811 0.07023 0.0
N5 N 0.03172 0.0358 0.02885 0.0
C6 C 0.90992 0.05513 0.05751 0.0
H7 H 0.03225 0.87112 0.15785 0.0
H8 H 0.11145 0.92766 0.18294 0.0
H9 H 0.09846 0.87097 0.09693 0.0
H10 H 0.91287 0.11196 0.08239 0.0
H11 H 0.86718 0.02351 0.07967 0.0
H12 H 0.89771 0.05039 0.99947 0.0
C13 C 0.266 0.75084 0.20474 0.0
N14 N 0.27734 0.71094 0.25599 0.0
N15 N 0.32392 0.79131 0.19154 0.0
C16 C 0.20298 0.73717 0.15537 0.0
C17 C 0.37179 0.77287 0.23478 0.0
N18 N 0.3435 0.72321 0.27424 0.0
C19 C 0.44297 0.81193 0.24744 0.0
H20 H 0.17904 0.68096 0.14934 0.0
H21 H 0.2145 0.74603 0.10016 0.0
H22 H 0.16584 0.77277 0.17701 0.0
H23 H 0.45144 0.86052 0.22211 0.0
H24 H 0.47973 0.77534 0.22706 0.0
H25 H 0.45392 0.82957 0.30555 0.0
C26 C 0.98847 0.51428 0.08631 0.0
N27 N 0.02239 0.45925 0.09913 0.0
N28 N 0.92866 0.48891 0.04897 0.0
C29 C 0.01485 0.59237 0.10791 0.0
C30 C 0.92782 0.417 0.04016 0.0
N31 N 0.98672 0.39938 0.06498 0.0
C32 C 0.86572 0.36341 0.01676 0.0
H33 H 0.99683 0.61142 0.16172 0.0
H34 H 0.99786 0.62535 0.06956 0.0
H35 H 0.07085 0.60122 0.10939 0.0
H36 H 0.86125 0.35235 0.95743 0.0
H37 H 0.81917 0.38397 0.03764 0.0
H38 H 0.86787 0.3127 0.03791 0.0
C39 C 0.70414 0.70893 0.24777 0.0
N40 N 0.75242 0.75412 0.22167 0.0
N41 N 0.67259 0.74373 0.30274 0.0
C42 C 0.69249 0.6288 0.22521 0.0
C43 C 0.70642 0.81137 0.31265 0.0
N44 N 0.75669 0.81701 0.26489 0.0
C45 C 0.68781 0.87361 0.36481 0.0
H46 H 0.65574 0.61561 0.17893 0.0
H47 H 0.67246 0.60093 0.26918 0.0
H48 H 0.74052 0.60769 0.21062 0.0
H49 H 0.72736 0.88845 0.40839 0.0
H50 H 0.63812 0.86348 0.38861 0.0
H51 H 0.68547 0.92044 0.33714 0.0
C52 C 1.00405 0.97327 0.52375 0.0
N53 N 0.06806 0.96653 0.54506 0.0
N54 N 1.00371 0.00219 0.46277 0.0
C55 C 0.94229 0.96055 0.56795 0.0
C56 C 0.07086 0.01909 0.45107 0.0
N57 N 0.1103 0.00012 0.5031 0.0
C58 C 0.09828 0.04951 0.38657 0.0
H59 H 0.91682 0.90519 0.55145 0.0
H60 H 0.90584 -0.00154 0.56088 0.0
H61 H 0.95642 0.96863 0.62585 0.0
H62 H 0.10511 0.1087 0.39875 0.0
H63 H 0.06445 0.0325 0.33864 0.0
H64 H 0.14751 0.03124 0.37195 0.0
C65 C 0.16597 0.75372 0.84352 0.0
N66 N 0.21723 0.73418 0.88133 0.0
N67 N 0.15414 0.71043 0.77993 0.0
C68 C 0.11986 0.80755 0.87342 0.0
C69 C 0.1957 0.65993 0.78231 0.0
N70 N 0.23547 0.67511 0.84336 0.0
C71 C 0.19098 0.59109 0.72957 0.0
H72 H 0.11572 0.8106 0.93214 0.0
H73 H 0.06763 0.79276 0.85079 0.0
H74 H 0.13971 0.86088 0.86063 0.0
H75 H 0.21832 0.60126 0.68082 0.0
H76 H 0.13752 0.57024 0.71405 0.0
H77 H 0.21153 0.54767 0.75209 0.0
C78 C 0.98848 0.50241 0.4305 0.0
N79 N 0.03326 0.56363 0.44261 0.0
N80 N 0.94235 0.50276 0.48204 0.0
C81 C 0.9814 0.44982 0.36126 0.0
C82 C 0.96009 0.56505 0.52622 0.0
N83 N 1.01354 0.60402 0.50091 0.0
C84 C 0.93446 0.57996 0.60166 0.0
H85 H 0.99395 0.47726 0.31468 0.0
H86 H 0.92922 0.4224 0.34997 0.0
H87 H 0.01617 0.40923 0.36398 0.0
H88 H 0.91561 0.53011 0.62226 0.0
H89 H 0.89297 0.61363 0.60192 0.0
H90 H 0.9751 0.6074 0.64042 0.0
C91 C 0.76958 0.81082 0.87139 0.0
N92 N 0.82107 0.77066 0.85682 0.0
N93 N 0.7667 0.85698 0.82407 0.0
C94 C 0.71404 0.79579 0.92291 0.0
C95 C 0.81826 0.84445 0.77986 0.0
N96 N 0.85144 0.79133 0.79901 0.0
C97 C 0.84475 0.89375 0.72782 0.0
H98 H 0.69972 0.73746 0.92075 0.0
H99 H 0.66706 0.81739 0.91019 0.0
H100 H 0.73222 0.81942 0.9782 0.0
H101 H 0.89983 0.91069 0.73787 0.0
H102 H 0.8221 0.94395 0.73244 0.0
H103 H 0.83609 0.86513 0.67219 0.0
C104 C 0.26958 0.31082 0.37139 0.0
N105 N 0.32107 0.27066 0.35682 0.0
N106 N 0.2667 0.35698 0.32407 0.0
C107 C 0.21404 0.29579 0.42291 0.0
C108 C 0.31826 0.34445 0.27986 0.0
N109 N 0.35144 0.29133 0.29901 0.0
C110 C 0.34475 0.39375 0.22782 0.0
H111 H 0.19972 0.23746 0.42075 0.0
H112 H 0.16706 0.31739 0.41019 0.0
H113 H 0.23222 0.31942 0.4782 0.0
H114 H 0.39983 0.41069 0.23787 0.0
H115 H 0.3221 0.44395 0.23244 0.0
H116 H 0.33609 0.36513 0.17219 0.0
C117 C 0.48847 0.01428 0.58631 0.0
N118 N 0.52239 0.95925 0.59913 0.0
N119 N 0.42866 0.98891 0.54897 0.0
C120 C 0.51485 0.09237 0.60791 0.0
C121 C 0.42782 0.917 0.54016 0.0
N122 N 0.48672 0.89938 0.56498 0.0
C123 C 0.36572 0.86341 0.51676 0.0
H124 H 0.49683 0.11142 0.66172 0.0
H125 H 0.49786 0.12535 0.56956 0.0
H126 H 0.57085 0.10122 0.60939 0.0
H127 H 0.36125 0.85235 0.45743 0.0
H128 H 0.31917 0.88397 0.53764 0.0
H129 H 0.36787 0.8127 0.53791 0.0
C130 C 0.20414 0.20893 0.74777 0.0
N131 N 0.25242 0.25412 0.72167 0.0
N132 N 0.17259 0.24373 0.80274 0.0
C133 C 0.19249 0.1288 0.72521 0.0
C134 C 0.20642 0.31137 0.81265 0.0
N135 N 0.25669 0.31701 0.76489 0.0
C136 C 0.18781 0.37361 0.86481 0.0
H137 H 0.15574 0.11561 0.67893 0.0
H138 H 0.17246 0.10093 0.76918 0.0
H139 H 0.24052 0.10769 0.71062 0.0
H140 H 0.22736 0.38845 0.90839 0.0
H141 H 0.13812 0.36348 0.8886 0.0
H142 H 0.18547 0.42044 0.83714 0.0
C143 C 0.766 0.25084 0.70474 0.0
N144 N 0.77734 0.21094 0.75599 0.0
N145 N 0.82392 0.29131 0.69154 0.0
C146 C 0.70298 0.23717 0.65537 0.0
C147 C 0.87179 0.27287 0.73478 0.0
N148 N 0.8435 0.22321 0.77424 0.0
C149 C 0.94297 0.31193 0.74744 0.0
H150 H 0.67904 0.18096 0.64934 0.0
H151 H 0.7145 0.24603 0.60016 0.0
H152 H 0.66584 0.27277 0.67701 0.0
H153 H 0.95144 0.36052 0.72211 0.0
H154 H 0.97973 0.27534 0.72706 0.0
H155 H 0.95392 0.32957 0.80555 0.0
C156 C 0.54879 0.46739 0.6078 0.0
N157 N 0.5765 0.49709 0.55242 0.0
N158 N 0.48829 0.48966 0.62295 0.0
C159 C 0.5742 0.40607 0.63822 0.0
C160 C 0.47655 0.52811 0.57023 0.0
N161 N 0.53172 0.5358 0.52885 0.0
C162 C 0.40992 0.55513 0.55751 0.0
H163 H 0.53225 0.37112 0.65785 0.0
H164 H 0.61145 0.42766 0.68294 0.0
H165 H 0.59846 0.37097 0.59693 0.0
H166 H 0.41287 0.61196 0.58239 0.0
H167 H 0.36718 0.52351 0.57967 0.0
H168 H 0.39771 0.55039 0.49947 0.0
C169 C 0.50405 0.47327 0.02375 0.0
N170 N 0.56806 0.46653 0.04506 0.0
N171 N 0.50371 0.50219 0.96277 0.0
C172 C 0.44229 0.46055 0.06795 0.0
C173 C 0.57086 0.51909 0.95107 0.0
N174 N 0.6103 0.50012 1.0031 0.0
C175 C 0.59828 0.54951 0.88657 0.0
H176 H 0.41682 0.40519 0.05145 0.0
H177 H 0.40584 0.49846 0.06088 0.0
H178 H 0.45642 0.46863 0.12585 0.0
H179 H 0.60511 0.6087 0.89875 0.0
H180 H 0.56445 0.5325 0.83864 0.0
H181 H 0.64751 0.53124 0.87195 0.0
C182 C 0.66597 0.25372 0.34352 0.0
N183 N 0.71723 0.23418 0.38133 0.0
N184 N 0.65414 0.21043 0.27993 0.0
C185 C 0.61986 0.30755 0.37342 0.0
C186 C 0.6957 0.15993 0.28231 0.0
N187 N 0.73547 0.17511 0.34336 0.0
C188 C 0.69098 0.09109 0.22957 0.0
H189 H 0.61572 0.3106 0.43214 0.0
H190 H 0.56763 0.29276 0.35079 0.0
H191 H 0.63971 0.36088 0.36063 0.0
H192 H 0.71832 0.10126 0.18082 0.0
H193 H 0.63752 0.07024 0.21405 0.0
H194 H 0.71153 0.04767 0.25209 0.0
C195 C 0.48848 0.00241 0.9305 0.0
N196 N 0.53326 0.06363 0.94261 0.0
N197 N 0.44235 0.00276 0.98204 0.0
C198 C 0.4814 0.94982 0.86126 0.0
C199 C 0.46009 0.06505 0.02622 0.0
N200 N 0.51354 0.10402 1.00091 0.0
C201 C 0.43446 0.07996 0.10166 0.0
H202 H 0.49395 0.97726 0.81468 0.0
H203 H 0.42922 0.9224 0.84997 0.0
H204 H 0.51617 0.90923 0.86398 0.0
H205 H 0.41561 0.03011 0.12226 0.0
H206 H 0.39297 0.11363 0.10192 0.0
H207 H 0.4751 0.1074 0.14042 0.0
C208 C 0.13793 0.98483 0.02559 0.0
O209 O 0.14913 0.9839 0.95732 0.0
O210 O 0.23411 0.83846 0.95843 0.0
Zn211 Zn 0.26012 0.91121 0.0423 0.0
O212 O 0.33898 0.9753 0.02518 0.0
C213 C 0.32967 0.83871 0.14426 0.0
O214 O 0.38743 0.85619 0.11509 0.0
O215 O 0.18057 0.96306 0.06524 0.0
C216 C 0.3869 0.95519 0.9875 0.0
O217 O 0.38261 0.88864 0.95581 0.0
C218 C 0.24943 0.77589 0.94034 0.0
O219 O 0.29663 0.7541 0.97749 0.0
O220 O 0.27658 0.86094 0.12324 0.0
C221 C 0.22456 0.40811 0.32457 0.0
O222 O 0.20075 0.43667 0.38501 0.0
O223 O 0.10637 0.52873 0.35731 0.0
Zn224 Zn 0.16648 0.52115 0.27305 0.0
O225 O 0.24516 0.59984 0.28307 0.0
C226 C 0.07296 0.46082 0.15038 0.0
O227 O 0.08393 0.40151 0.1731 0.0
O228 O 0.21101 0.43199 0.26761 0.0
C229 C 0.22987 0.6605 0.27588 0.0
O230 O 0.16534 0.6678 0.27134 0.0
C231 C 0.0859 0.57933 0.39976 0.0
O232 O 0.11104 0.64545 0.39656 0.0
O233 O 0.10404 0.51937 0.18367 0.0
C234 C 0.87949 0.52467 0.02458 0.0
O235 O 0.8289 0.49007 0.98277 0.0
O236 O 0.81169 0.71439 0.95586 0.0
Zn237 Zn 0.7965 0.63712 0.02108 0.0
O238 O 0.71078 0.56816 0.98334 0.0
C239 C 0.77909 0.74115 0.15495 0.0
O240 O 0.80642 0.79346 0.12288 0.0
O241 O 0.88012 0.59134 0.04267 0.0
C242 C 0.67713 0.52669 0.02077 0.0
O243 O 0.70362 0.52071 0.08316 0.0
C244 C 0.83348 0.71578 0.89275 0.0
O245 O 0.85816 0.65966 0.85975 0.0
O246 O 0.77 0.67857 0.11942 0.0
C247 C 0.78635 0.1376 0.35877 0.0
O248 O 0.79642 0.1239 0.42372 0.0
O249 O 0.95067 0.0381 0.36779 0.0
Zn250 Zn 0.86956 0.02359 0.2978 0.0
O251 O 0.8025 0.93429 0.30187 0.0
C252 C 0.95544 0.98629 0.18532 0.0
O253 O 0.98165 0.95824 0.23684 0.0
O254 O 0.81568 0.10505 0.30713 0.0
C255 C 0.80743 0.87318 0.26624 0.0
O256 O 0.86407 0.86387 0.23416 0.0
C257 C 0.94758 0.00442 0.42055 0.0
O258 O 0.88968 0.96669 0.43058 0.0
O259 O 0.9044 0.01852 0.19898 0.0
C260 C 0.37949 0.02467 0.52458 0.0
O261 O 0.3289 0.99007 0.48277 0.0
O262 O 0.31169 0.21439 0.45586 0.0
Zn263 Zn 0.2965 0.13712 0.52108 0.0
O264 O 0.21078 0.06816 0.48334 0.0
C265 C 0.27909 0.24115 0.65495 0.0
O266 O 0.30642 0.29346 0.62288 0.0
O267 O 0.38012 0.09134 0.54267 0.0
C268 C 0.17713 0.02669 0.52077 0.0
O269 O 0.20362 0.02071 0.58316 0.0
C270 C 0.33348 0.21578 0.39275 0.0
O271 O 0.35816 0.15966 0.35975 0.0
O272 O 0.27 0.17857 0.61942 0.0
C273 C 0.28635 0.6376 0.85877 0.0
O274 O 0.29642 0.6239 0.92372 0.0
O275 O 0.45067 0.5381 0.86779 0.0
Zn276 Zn 0.36956 0.52359 0.7978 0.0
O277 O 0.3025 0.43429 0.80187 0.0
C278 C 0.45544 0.48629 0.68532 0.0
O279 O 0.48165 0.45824 0.73684 0.0
O280 O 0.31568 0.60505 0.80713 0.0
C281 C 0.30743 0.37318 0.76624 0.0
O282 O 0.36407 0.36387 0.73416 0.0
C283 C 0.44758 0.50442 0.92055 0.0
O284 O 0.38968 0.46669 0.93058 0.0
O285 O 0.4044 0.51852 0.69898 0.0
C286 C 0.63793 0.48483 0.52559 0.0
O287 O 0.64913 0.4839 0.45732 0.0
O288 O 0.73411 0.33846 0.45843 0.0
Zn289 Zn 0.76012 0.41121 0.5423 0.0
O290 O 0.83898 0.4753 0.52518 0.0
C291 C 0.82967 0.33871 0.64426 0.0
O292 O 0.88743 0.35619 0.61509 0.0
O293 O 0.68057 0.46306 0.56524 0.0
C294 C 0.8869 0.45519 0.4875 0.0
O295 O 0.88261 0.38864 0.45581 0.0
C296 C 0.74943 0.27589 0.44034 0.0
O297 O 0.79663 0.2541 0.47749 0.0
O298 O 0.77658 0.36094 0.62324 0.0
C299 C 0.72456 0.90811 0.82457 0.0
O300 O 0.70075 0.93667 0.88501 0.0
O301 O 0.60637 0.02873 0.85731 0.0
Zn302 Zn 0.66648 0.02115 0.77305 0.0
O303 O 0.74516 0.09984 0.78307 0.0
C304 C 0.57296 0.96082 0.65038 0.0
O305 O 0.58393 0.90151 0.6731 0.0
O306 O 0.71101 0.93199 0.76761 0.0
C307 C 0.72987 0.1605 0.77588 0.0
O308 O 0.66534 0.1678 0.77133 0.0
C309 C 0.5859 0.07933 0.89976 0.0
O310 O 0.61104 0.14545 0.89656 0.0
O311 O 0.60404 0.01937 0.68367 0.0
C312 C 0.04394 0.08617 0.98415 0.0
O313 O 0.10569 0.10648 0.96571 0.0
O314 O 0.93952 0.20913 0.8367 0.0
Zn315 Zn 1.00368 0.21186 0.92333 0.0
O316 O 0.97647 0.29034 0.99449 0.0
C317 C 0.1152 0.21696 0.83353 0.0
O318 O 0.07473 0.16238 0.79895 0.0
O319 O 0.99705 0.12143 0.96855 0.0
C320 C 1.01304 0.33846 0.0373 0.0
O321 O 0.07851 0.33583 0.04126 0.0
C322 C 0.87503 0.19966 0.82979 0.0
O323 O 0.83964 0.17609 0.88123 0.0
O324 O 0.09754 0.24575 0.89391 0.0
C325 C 0.54394 0.58617 0.48415 0.0
O326 O 0.60569 0.60648 0.46571 0.0
O327 O 0.43952 0.70913 0.3367 0.0
Zn328 Zn 0.50368 0.71186 0.42333 0.0
O329 O 0.47647 0.79034 0.49449 0.0
C330 C 0.6152 0.71696 0.33353 0.0
O331 O 0.57473 0.66238 0.29895 0.0
O332 O 0.49705 0.62143 0.46855 0.0
C333 C 0.51304 0.83846 0.5373 0.0
O334 O 0.57851 0.83583 0.54126 0.0
C335 C 0.37503 0.69966 0.32979 0.0
O336 O 0.33964 0.67609 0.38123 0.0
O337 O 0.59754 0.74575 0.39391 0.0
C338 C 0.08266 0.91561 0.58502 0.0
O339 O 0.14241 0.89345 0.58366 0.0
O340 O 0.92968 0.79235 0.71082 0.0
Zn341 Zn 0.01753 0.78941 0.65571 0.0
O342 O 1.00357 0.70534 0.57744 0.0
C343 C 0.11269 0.71925 0.72503 0.0
O344 O 0.09825 0.66852 0.67026 0.0
O345 O 0.03416 0.87968 0.61204 0.0
C346 C 0.03938 0.67166 0.5323 0.0
O347 O 0.10273 0.69761 0.52575 0.0
C348 C 0.90989 0.77094 0.76883 0.0
O349 O 0.94931 0.73529 0.8018 0.0
O350 O 0.08893 0.7779 0.7255 0.0
C351 C 0.58266 0.41561 0.08502 0.0
O352 O 0.64241 0.39345 0.08366 0.0
O353 O 0.42968 0.29235 0.21082 0.0
Zn354 Zn 0.51753 0.28941 0.15571 0.0
O355 O 0.50357 0.20534 0.07744 0.0
C356 C 0.61269 0.21925 0.22503 0.0
O357 O 0.59825 0.16852 0.17026 0.0
O358 O 0.53416 0.37968 0.11204 0.0
C359 C 0.53938 0.17166 0.0323 0.0
O360 O 0.60273 0.19761 0.02575 0.0
C361 C 0.40989 0.27094 0.26883 0.0
O362 O 0.44931 0.23529 0.3018 0.0
O363 O 0.58893 0.2779 0.2255 0.0
loop_
_geom_bond_atom_site_label_1
_geom_bond_atom_site_label_2
_geom_bond_distance
_geom_bond_site_symmetry_2
_ccdc_geom_bond_type
C0 N1 1.317 1_565 S
C0 N2 1.348 1_465 S
C0 C3 1.485 . S
N1 C0 1.317 1_545 S
N1 N5 1.370 . S
N2 C0 1.348 1_645 S
N2 C4 1.346 . S
C3 C0 1.485 . S
C3 H7 0.960 . S
C3 H8 0.961 . S
C3 H9 0.960 . S
C4 N2 1.346 . S
C4 N5 1.307 1_655 S
C4 C6 1.486 . S
N5 N1 1.370 . S
N5 C4 1.307 1_455 S
C6 C4 1.486 . S
C6 H10 0.960 . S
C6 H11 0.960 . S
C6 H12 0.959 . S
H7 C3 0.960 . S
H8 C3 0.961 . S
H9 C3 0.960 . S
H10 C6 0.960 . S
H11 C6 0.960 . S
H12 C6 0.959 . S
C13 N14 1.317 . S
C13 N15 1.348 . S
C13 C16 1.485 . S
N14 C13 1.317 . S
N14 N18 1.370 . S
N15 C13 1.348 . S
N15 C17 1.346 . S
C16 C13 1.485 . S
C16 H20 0.960 . S
C16 H21 0.961 . S
C16 H22 0.960 . S
C17 N15 1.346 . S
C17 N18 1.307 . S
C17 C19 1.486 . S
N18 N14 1.370 . S
N18 C17 1.307 . S
C19 C17 1.486 . S
C19 H23 0.960 . S
C19 H24 0.960 . S
C19 H25 0.959 . S
H20 C16 0.960 . S
H21 C16 0.961 . S
H22 C16 0.960 . S
H23 C19 0.960 . S
H24 C19 0.960 . S
H25 C19 0.959 . S
C26 N27 1.317 1_655 S
C26 N28 1.348 . S
C26 C29 1.485 . S
N27 C26 1.317 1_455 S
N27 N31 1.370 1_455 S
N28 C26 1.348 . S
N28 C30 1.346 . S
C29 C26 1.485 . S
C29 H33 0.960 . S
C29 H34 0.961 . S
C29 H35 0.960 1_655 S
C30 N28 1.346 . S
C30 N31 1.307 . S
C30 C32 1.486 1_554 S
N31 N27 1.370 1_655 S
N31 C30 1.307 . S
C32 C30 1.486 1_556 S
C32 H36 0.960 . S
C32 H37 0.960 . S
C32 H38 0.959 . S
H33 C29 0.960 . S
H34 C29 0.961 . S
H35 C29 0.960 1_455 S
H36 C32 0.960 . S
H37 C32 0.960 . S
H38 C32 0.959 . S
C39 N40 1.317 . S
C39 N41 1.348 . S
C39 C42 1.485 . S
N40 C39 1.317 . S
N40 N44 1.370 . S
N41 C39 1.348 . S
N41 C43 1.346 . S
C42 C39 1.485 . S
C42 H46 0.960 . S
C42 H47 0.961 . S
C42 H48 0.960 . S
C43 N41 1.346 . S
C43 N44 1.307 . S
C43 C45 1.486 . S
N44 N40 1.370 . S
N44 C43 1.307 . S
C45 C43 1.486 . S
C45 H49 0.960 . S
C45 H50 0.960 . S
C45 H51 0.959 . S
H46 C42 0.960 . S
H47 C42 0.961 . S
H48 C42 0.960 . S
H49 C45 0.960 . S
H50 C45 0.960 . S
H51 C45 0.959 . S
C52 N53 1.317 1_655 S
C52 N54 1.348 . S
C52 C55 1.485 . S
N53 C52 1.317 1_455 S
N53 N57 1.370 1_565 S
N54 C52 1.348 . S
N54 C56 1.346 1_665 S
C55 C52 1.485 . S
C55 H59 0.960 . S
C55 H60 0.961 . S
C55 H61 0.960 . S
C56 N54 1.346 1_445 S
C56 N57 1.307 . S
C56 C58 1.486 . S
N57 N53 1.370 1_545 S
N57 C56 1.307 . S
C58 C56 1.486 . S
C58 H62 0.960 . S
C58 H63 0.960 . S
C58 H64 0.959 . S
H59 C55 0.960 . S
H60 C55 0.961 . S
H61 C55 0.960 . S
H62 C58 0.960 . S
H63 C58 0.960 . S
H64 C58 0.959 . S
C65 N66 1.317 . S
C65 N67 1.348 . S
C65 C68 1.485 . S
N66 C65 1.317 . S
N66 N70 1.370 . S
N67 C65 1.348 . S
N67 C69 1.346 . S
C68 C65 1.485 . S
C68 H72 0.960 . S
C68 H73 0.961 . S
C68 H74 0.960 . S
C69 N67 1.346 . S
C69 N70 1.307 . S
C69 C71 1.486 . S
N70 N66 1.370 . S
N70 C69 1.307 . S
C71 C69 1.486 . S
C71 H75 0.960 . S
C71 H76 0.960 . S
C71 H77 0.959 . S
H72 C68 0.960 . S
H73 C68 0.961 . S
H74 C68 0.960 . S
H75 C71 0.960 . S
H76 C71 0.960 . S
H77 C71 0.959 . S
C78 N79 1.317 . S
C78 N80 1.348 . S
C78 C81 1.485 . S
N79 C78 1.317 . S
N79 N83 1.370 . S
N80 C78 1.348 . S
N80 C82 1.346 . S
C81 C78 1.485 . S
C81 H85 0.960 . S
C81 H86 0.961 . S
C81 H87 0.960 1_655 S
C82 N80 1.346 . S
C82 N83 1.307 . S
C82 C84 1.486 . S
N83 N79 1.370 . S
N83 C82 1.307 . S
C84 C82 1.486 . S
C84 H88 0.960 . S
C84 H89 0.960 . S
C84 H90 0.959 . S
H85 C81 0.960 . S
H86 C81 0.961 . S
H87 C81 0.960 1_455 S
H88 C84 0.960 . S
H89 C84 0.960 . S
H90 C84 0.959 . S
C91 N92 1.317 . S
C91 N93 1.348 . S
C91 C94 1.485 . S
N92 C91 1.317 . S
N92 N96 1.370 . S
N93 C91 1.348 . S
N93 C95 1.346 . S
C94 C91 1.485 . S
C94 H98 0.960 . S
C94 H99 0.961 . S
C94 H100 0.960 . S
C95 N93 1.346 . S
C95 N96 1.307 . S
C95 C97 1.486 . S
N96 N92 1.370 . S
N96 C95 1.307 . S
C97 C95 1.486 . S
C97 H101 0.960 . S
C97 H102 0.960 . S
C97 H103 0.959 . S
H98 C94 0.960 . S
H99 C94 0.961 . S
H100 C94 0.960 . S
H101 C97 0.960 . S
H102 C97 0.960 . S
H103 C97 0.959 . S
C104 N105 1.317 . S
C104 N106 1.348 . S
C104 C107 1.485 . S
N105 C104 1.317 . S
N105 N109 1.370 . S
N106 C104 1.348 . S
N106 C108 1.346 . S
C107 C104 1.485 . S
C107 H111 0.960 . S
C107 H112 0.961 . S
C107 H113 0.960 . S
C108 N106 1.346 . S
C108 N109 1.307 . S
C108 C110 1.486 . S
N109 N105 1.370 . S
N109 C108 1.307 . S
C110 C108 1.486 . S
C110 H114 0.960 . S
C110 H115 0.960 . S
C110 H116 0.959 . S
H111 C107 0.960 . S
H112 C107 0.961 . S
H113 C107 0.960 . S
H114 C110 0.960 . S
H115 C110 0.960 . S
H116 C110 0.959 . S
C117 N118 1.317 1_545 S
C117 N119 1.348 . S
C117 C120 1.485 . S
N118 C117 1.317 1_565 S
N118 N122 1.370 . S
N119 C117 1.348 . S
N119 C121 1.346 1_545 S
C120 C117 1.485 . S
C120 H124 0.960 . S
C120 H125 0.961 . S
C120 H126 0.960 . S
C121 N119 1.346 1_565 S
C121 N122 1.307 . S
C121 C123 1.486 . S
N122 N118 1.370 . S
N122 C121 1.307 . S
C123 C121 1.486 . S
C123 H127 0.960 . S
C123 H128 0.960 . S
C123 H129 0.959 . S
H124 C120 0.960 . S
H125 C120 0.961 . S
H126 C120 0.960 . S
H127 C123 0.960 . S
H128 C123 0.960 . S
H129 C123 0.959 . S
C130 N131 1.317 . S
C130 N132 1.348 . S
C130 C133 1.485 . S
N131 C130 1.317 . S
N131 N135 1.370 . S
N132 C130 1.348 . S
N132 C134 1.346 . S
C133 C130 1.485 . S
C133 H137 0.960 . S
C133 H138 0.961 . S
C133 H139 0.960 . S
C134 N132 1.346 . S
C134 N135 1.307 . S
C134 C136 1.486 . S
N135 N131 1.370 . S
N135 C134 1.307 . S
C136 C134 1.486 . S
C136 H140 0.960 . S
C136 H141 0.960 . S
C136 H142 0.959 . S
H137 C133 0.960 . S
H138 C133 0.961 . S
H139 C133 0.960 . S
H140 C136 0.960 . S
H141 C136 0.960 . S
H142 C136 0.959 . S
C143 N144 1.317 . S
C143 N145 1.348 . S
C143 C146 1.485 . S
N144 C143 1.317 . S
N144 N148 1.370 . S
N145 C143 1.348 . S
N145 C147 1.346 . S
C146 C143 1.485 . S
C146 H150 0.960 . S
C146 H151 0.961 . S
C146 H152 0.960 . S
C147 N145 1.346 . S
C147 N148 1.307 . S
C147 C149 1.486 . S
N148 N144 1.370 . S
N148 C147 1.307 . S
C149 C147 1.486 . S
C149 H153 0.960 . S
C149 H154 0.960 . S
C149 H155 0.959 . S
H150 C146 0.960 . S
H151 C146 0.961 . S
H152 C146 0.960 . S
H153 C149 0.960 . S
H154 C149 0.960 . S
H155 C149 0.959 . S
C156 N157 1.317 . S
C156 N158 1.348 . S
C156 C159 1.485 . S
N157 C156 1.317 . S
N157 N161 1.370 . S
N158 C156 1.348 . S
N158 C160 1.346 . S
C159 C156 1.485 . S
C159 H163 0.960 . S
C159 H164 0.961 . S
C159 H165 0.960 . S
C160 N158 1.346 . S
C160 N161 1.307 . S
C160 C162 1.486 . S
N161 N157 1.370 . S
N161 C160 1.307 . S
C162 C160 1.486 . S
C162 H166 0.960 . S
C162 H167 0.960 . S
C162 H168 0.959 . S
H163 C159 0.960 . S
H164 C159 0.961 . S
H165 C159 0.960 . S
H166 C162 0.960 . S
H167 C162 0.960 . S
H168 C162 0.959 . S
C169 N170 1.317 1_556 S
C169 N171 1.348 . S
C169 C172 1.485 . S
N170 C169 1.317 1_554 S
N170 N174 1.370 1_554 S
N171 C169 1.348 . S
N171 C173 1.346 . S
C172 C169 1.485 . S
C172 H176 0.960 . S
C172 H177 0.961 . S
C172 H178 0.960 1_556 S
C173 N171 1.346 . S
C173 N174 1.307 . S
C173 C175 1.486 . S
N174 N170 1.370 1_556 S
N174 C173 1.307 . S
C175 C173 1.486 . S
C175 H179 0.960 . S
C175 H180 0.960 . S
C175 H181 0.959 . S
H176 C172 0.960 . S
H177 C172 0.961 . S
H178 C172 0.960 1_554 S
H179 C175 0.960 . S
H180 C175 0.960 . S
H181 C175 0.959 . S
C182 N183 1.317 . S
C182 N184 1.348 . S
C182 C185 1.485 . S
N183 C182 1.317 . S
N183 N187 1.370 . S
N184 C182 1.348 . S
N184 C186 1.346 . S
C185 C182 1.485 . S
C185 H189 0.960 . S
C185 H190 0.961 . S
C185 H191 0.960 . S
C186 N184 1.346 . S
C186 N187 1.307 . S
C186 C188 1.486 . S
N187 N183 1.370 . S
N187 C186 1.307 . S
C188 C186 1.486 . S
C188 H192 0.960 . S
C188 H193 0.960 . S
C188 H194 0.959 . S
H189 C185 0.960 . S
H190 C185 0.961 . S
H191 C185 0.960 . S
H192 C188 0.960 . S
H193 C188 0.960 . S
H194 C188 0.959 . S
C195 N196 1.317 1_565 S
C195 N197 1.349 . S
C195 C198 1.485 . S
N196 C195 1.317 1_545 S
N196 N200 1.370 1_556 S
N197 C195 1.349 . S
N197 C199 1.337 1_566 S
C198 C195 1.485 . S
C198 H202 0.960 . S
C198 H203 0.961 . S
C198 H204 0.960 . S
C199 N197 1.337 1_544 S
C199 N200 1.307 . S
C199 C201 1.486 . S
N200 N196 1.370 1_554 S
N200 C199 1.307 . S
C201 C199 1.486 . S
C201 H205 0.960 . S
C201 H206 0.960 . S
C201 H207 0.959 . S
H202 C198 0.960 . S
H203 C198 0.961 . S
H204 C198 0.960 . S
H205 C201 0.960 . S
H206 C201 0.960 . S
H207 C201 0.959 . S
C208 O209 1.160 1_554 S
C208 O215 1.185 . S
O209 C208 1.160 1_556 S
O210 Zn211 1.899 1_556 S
O210 C218 1.284 . S
Zn211 O210 1.899 1_554 S
Zn211 O212 2.032 . S
Zn211 O215 2.086 . S
Zn211 O220 1.977 . S
O212 Zn211 2.032 . S
O212 C216 1.278 . S
C213 O214 1.203 . S
C213 O220 1.267 . S
O214 C213 1.203 . S
O215 C208 1.185 . S
O215 Zn211 2.086 . S
C216 O212 1.278 . S
C216 O217 1.211 . S
O217 C216 1.211 . S
C218 O210 1.284 . S
C218 O219 1.273 . S
O219 C218 1.273 . S
O220 Zn211 1.977 . S
O220 C213 1.267 . S
C221 O222 1.160 . S
C221 O228 1.185 . S
O222 C221 1.160 . S
O223 Zn224 1.899 . S
O223 C231 1.284 . S
Zn224 O223 1.899 . S
Zn224 O225 2.032 . S
Zn224 O228 2.086 . S
Zn224 O233 1.977 . S
O225 Zn224 2.032 . S
O225 C229 1.278 . S
C226 O227 1.203 . S
C226 O233 1.267 . S
O227 C226 1.203 . S
O228 C221 1.185 . S
O228 Zn224 2.086 . S
C229 O225 1.278 . S
C229 O230 1.211 . S
O230 C229 1.211 . S
C231 O223 1.284 . S
C231 O232 1.273 . S
O232 C231 1.273 . S
O233 Zn224 1.977 . S
O233 C226 1.267 . S
C234 O235 1.160 1_554 S
C234 O241 1.185 . S
O235 C234 1.160 1_556 S
O236 Zn237 1.899 1_556 S
O236 C244 1.284 . S
Zn237 O236 1.899 1_554 S
Zn237 O238 2.032 1_554 S
Zn237 O241 2.086 . S
Zn237 O246 1.977 . S
O238 Zn237 2.032 1_556 S
O238 C242 1.278 . S
C239 O240 1.203 . S
C239 O246 1.267 . S
O240 C239 1.203 . S
O241 C234 1.185 . S
O241 Zn237 2.086 . S
C242 O238 1.278 . S
C242 O243 1.211 1_556 S
O243 C242 1.211 1_554 S
C244 O236 1.284 . S
C244 O245 1.273 . S
O245 C244 1.273 . S
O246 Zn237 1.977 . S
O246 C239 1.267 . S
C247 O248 1.160 . S
C247 O254 1.185 . S
O248 C247 1.160 . S
O249 Zn250 1.899 . S
O249 C257 1.284 1_545 S
Zn250 O249 1.899 . S
Zn250 O251 2.032 1_545 S
Zn250 O254 2.086 . S
Zn250 O259 1.977 . S
O251 Zn250 2.032 1_565 S
O251 C255 1.278 . S
C252 O253 1.203 1_545 S
C252 O259 1.267 . S
O253 C252 1.203 1_565 S
O254 C247 1.185 . S
O254 Zn250 2.086 . S
C255 O251 1.278 . S
C255 O256 1.211 . S
O256 C255 1.211 . S
C257 O249 1.284 1_565 S
C257 O258 1.273 . S
O258 C257 1.273 . S
O259 Zn250 1.977 . S
O259 C252 1.267 . S
C260 O261 1.160 . S
C260 O267 1.185 . S
O261 C260 1.160 . S
O262 Zn263 1.899 . S
O262 C270 1.284 . S
Zn263 O262 1.899 . S
Zn263 O264 2.032 . S
Zn263 O267 2.086 . S
Zn263 O272 1.977 . S
O264 Zn263 2.032 . S
O264 C268 1.278 . S
C265 O266 1.203 . S
C265 O272 1.267 . S
O266 C265 1.203 . S
O267 C260 1.185 . S
O267 Zn263 2.086 . S
C268 O264 1.278 . S
C268 O269 1.211 . S
O269 C268 1.211 . S
C270 O262 1.284 . S
C270 O271 1.273 . S
O271 C270 1.273 . S
O272 Zn263 1.977 . S
O272 C265 1.267 . S
C273 O274 1.160 . S
C273 O280 1.185 . S
O274 C273 1.160 . S
O275 Zn276 1.899 . S
O275 C283 1.284 . S
Zn276 O275 1.899 . S
Zn276 O277 2.032 . S
Zn276 O280 2.086 . S
Zn276 O285 1.977 . S
O277 Zn276 2.032 . S
O277 C281 1.278 . S
C278 O279 1.203 . S
C278 O285 1.267 . S
O279 C278 1.203 . S
O280 C273 1.185 . S
O280 Zn276 2.086 . S
C281 O277 1.278 . S
C281 O282 1.211 . S
O282 C281 1.211 . S
C283 O275 1.284 . S
C283 O284 1.273 . S
O284 C283 1.273 . S
O285 Zn276 1.977 . S
O285 C278 1.267 . S
C286 O287 1.160 . S
C286 O293 1.185 . S
O287 C286 1.160 . S
O288 Zn289 1.899 . S
O288 C296 1.284 . S
Zn289 O288 1.899 . S
Zn289 O290 2.032 . S
Zn289 O293 2.086 . S
Zn289 O298 1.977 . S
O290 Zn289 2.032 . S
O290 C294 1.278 . S
C291 O292 1.203 . S
C291 O298 1.267 . S
O292 C291 1.203 . S
O293 C286 1.185 . S
O293 Zn289 2.086 . S
C294 O290 1.278 . S
C294 O295 1.211 . S
O295 C294 1.211 . S
C296 O288 1.284 . S
C296 O297 1.273 . S
O297 C296 1.273 . S
O298 Zn289 1.977 . S
O298 C291 1.267 . S
C299 O300 1.160 . S
C299 O306 1.185 . S
O300 C299 1.160 . S
O301 Zn302 1.899 . S
O301 C309 1.284 1_565 S
Zn302 O301 1.899 . S
Zn302 O303 2.032 1_565 S
Zn302 O306 2.086 . S
Zn302 O311 1.977 . S
O303 Zn302 2.032 1_545 S
O303 C307 1.278 . S
C304 O305 1.203 1_565 S
C304 O311 1.267 . S
O305 C304 1.203 1_545 S
O306 C299 1.185 . S
O306 Zn302 2.086 . S
C307 O303 1.278 . S
C307 O308 1.211 . S
O308 C307 1.211 . S
C309 O301 1.284 1_545 S
C309 O310 1.273 . S
O310 C309 1.273 . S
O311 Zn302 1.977 . S
O311 C304 1.267 . S
C312 O313 1.160 . S
C312 O319 1.185 1_655 S
O313 C312 1.160 . S
O314 Zn315 1.899 1_655 S
O314 C322 1.284 . S
Zn315 O314 1.899 1_455 S
Zn315 O316 2.032 1_455 S
Zn315 O319 2.086 . S
Zn315 O324 1.977 . S
O316 Zn315 2.032 1_655 S
O316 C320 1.278 1_655 S
C317 O318 1.203 . S
C317 O324 1.267 . S
O318 C317 1.203 . S
O319 C312 1.185 1_455 S
O319 Zn315 2.086 . S
C320 O316 1.278 1_455 S
C320 O321 1.211 . S
O321 C320 1.211 . S
C322 O314 1.284 . S
C322 O323 1.273 . S
O323 C322 1.273 . S
O324 Zn315 1.977 . S
O324 C317 1.267 . S
C325 O326 1.160 . S
C325 O332 1.185 . S
O326 C325 1.160 . S
O327 Zn328 1.899 . S
O327 C335 1.284 . S
Zn328 O327 1.899 . S
Zn328 O329 2.032 . S
Zn328 O332 2.086 . S
Zn328 O337 1.977 . S
O329 Zn328 2.032 . S
O329 C333 1.278 . S
C330 O331 1.203 . S
C330 O337 1.267 . S
O331 C330 1.203 . S
O332 C325 1.185 . S
O332 Zn328 2.086 . S
C333 O329 1.278 . S
C333 O334 1.211 . S
O334 C333 1.211 . S
C335 O327 1.284 . S
C335 O336 1.273 . S
O336 C335 1.273 . S
O337 Zn328 1.977 . S
O337 C330 1.267 . S
C338 O339 1.160 1_455 S
C338 O345 1.185 . S
O339 C338 1.160 1_655 S
O340 Zn341 1.899 1_655 S
O340 C348 1.284 . S
Zn341 O340 1.899 1_455 S
Zn341 O342 2.032 . S
Zn341 O345 2.086 . S
Zn341 O350 1.977 . S
O342 Zn341 2.032 . S
O342 C346 1.278 . S
C343 O344 1.203 . S
C343 O350 1.267 . S
O344 C343 1.203 . S
O345 C338 1.185 . S
O345 Zn341 2.086 . S
C346 O342 1.278 . S
C346 O347 1.211 . S
O347 C346 1.211 . S
C348 O340 1.284 . S
C348 O349 1.273 . S
O349 C348 1.273 . S
O350 Zn341 1.977 . S
O350 C343 1.267 . S
C351 O352 1.160 . S
C351 O358 1.185 . S
O352 C351 1.160 . S
O353 Zn354 1.899 . S
O353 C361 1.284 . S
Zn354 O353 1.899 . S
Zn354 O355 2.032 . S
Zn354 O358 2.086 . S
Zn354 O363 1.977 . S
O355 Zn354 2.032 . S
O355 C359 1.278 . S
C356 O357 1.203 . S
C356 O363 1.267 . S
O357 C356 1.203 . S
O358 C351 1.185 . S
O358 Zn354 2.086 . S
C359 O355 1.278 . S
C359 O360 1.211 . S
O360 C359 1.211 . S
C361 O353 1.284 . S
C361 O362 1.273 . S
O362 C361 1.273 . S
O363 Zn354 1.977 . S
O363 C356 1.267 . S
C218 N66 1.155 . S
C231 N79 1.664 1_455 S
N92 C244 1.734 . S
C257 N54 1.432 . S
C265 N131 1.553 . S
C278 N158 1.155 . S
N145 C291 1.580 . S
C304 N118 1.688 . S
N148 C322 1.844 . S
C333 N122 1.569 . S
N132 C317 1.207 . S
C325 N161 1.510 . S
N96 C348 1.863 . S
N53 C338 1.614 . S
N67 C343 1.129 . S
N83 C346 1.386 1_655 S
N44 C255 1.305 . S
N187 C247 1.572 . S
C216 N197 1.308 1_554 S
C221 N106 1.410 . S
N57 C268 1.749 . S
C307 N144 1.500 . S
C260 N119 1.507 . S
C286 N157 1.620 . S
C296 N183 1.155 . S
N196 C309 1.664 . S
N105 C270 1.734 . S
C283 N171 1.432 . S
N40 C239 1.553 . S
C252 N2 1.155 . S
C213 N15 1.580 . S
C226 N27 1.688 . S
N18 C335 1.844 . S
N31 C320 1.569 1_654 S
N41 C330 1.207 . S
N5 C312 1.510 1_454 S
C361 N109 1.863 . S
C351 N170 1.614 . S
C356 N184 1.129 . S
N200 C359 1.386 . S
N135 C281 1.305 . S
C273 N70 1.572 . S
C294 N80 1.302 . S
C299 N93 1.410 . S
N174 C242 1.749 . S
C229 N14 1.500 . S
N28 C234 1.507 . S
C208 N1 1.620 1_565 S
