# Generated by pormake.
# Topology pyr, (3,6)-cn, num edge types: 1
# Building blocks:
#     Node 0, Type 0, BuildingBlock: VETTIZ_charged_linker_0, # of connection points: 3
#     Node 1, Type 0, BuildingBlock: VETTIZ_charged_linker_0, # of connection points: 3
#     Node 2, Type 0, BuildingBlock: VETTIZ_charged_linker_0, # of connection points: 3
#     Node 3, Type 0, BuildingBlock: VETTIZ_charged_linker_0, # of connection points: 3
#     Node 4, Type 0, BuildingBlock: VETTIZ_charged_linker_0, # of connection points: 3
#     Node 5, Type 0, BuildingBlock: VETTIZ_charged_linker_0, # of connection points: 3
#     Node 6, Type 0, BuildingBlock: VETTIZ_charged_linker_0, # of connection points: 3
#     Node 7, Type 0, BuildingBlock: VETTIZ_charged_linker_0, # of connection points: 3
#     Node 8, Type 1, BuildingBlock: PAMTOO_clean_sbu_0, # of connection points: 6
#     Node 9, Type 1, BuildingBlock: PAMTOO_clean_sbu_0, # of connection points: 6
#     Node 10, Type 1, BuildingBlock: PAMTOO_clean_sbu_0, # of connection points: 6
#     Node 11, Type 1, BuildingBlock: PAMTOO_clean_sbu_0, # of connection points: 6
#     Edge 12, Type (0, 1), BuildingBlock: MIFKUJ_clean_linker_0, # of connection points: 2
#     Edge 13, Type (0, 1), BuildingBlock: MIFKUJ_clean_linker_0, # of connection points: 2
#     Edge 14, Type (0, 1), BuildingBlock: MIFKUJ_clean_linker_0, # of connection points: 2
#     Edge 15, Type (0, 1), BuildingBlock: MIFKUJ_clean_linker_0, # of connection points: 2
#     Edge 16, Type (0, 1), BuildingBlock: MIFKUJ_clean_linker_0, # of connection points: 2
#     Edge 17, Type (0, 1), BuildingBlock: MIFKUJ_clean_linker_0, # of connection points: 2
#     Edge 18, Type (0, 1), BuildingBlock: MIFKUJ_clean_linker_0, # of connection points: 2
#     Edge 19, Type (0, 1), BuildingBlock: MIFKUJ_clean_linker_0, # of connection points: 2
#     Edge 20, Type (0, 1), BuildingBlock: MIFKUJ_clean_linker_0, # of connection points: 2
#     Edge 21, Type (0, 1), BuildingBlock: MIFKUJ_clean_linker_0, # of connection points: 2
#     Edge 22, Type (0, 1), BuildingBlock: MIFKUJ_clean_linker_0, # of connection points: 2
#     Edge 23, Type (0, 1), BuildingBlock: MIFKUJ_clean_linker_0, # of connection points: 2
#     Edge 24, Type (0, 1), BuildingBlock: MIFKUJ_clean_linker_0, # of connection points: 2
#     Edge 25, Type (0, 1), BuildingBlock: MIFKUJ_clean_linker_0, # of connection points: 2
#     Edge 26, Type (0, 1), BuildingBlock: MIFKUJ_clean_linker_0, # of connection points: 2
#     Edge 27, Type (0, 1), BuildingBlock: MIFKUJ_clean_linker_0, # of connection points: 2
#     Edge 28, Type (0, 1), BuildingBlock: MIFKUJ_clean_linker_0, # of connection points: 2
#     Edge 29, Type (0, 1), BuildingBlock: MIFKUJ_clean_linker_0, # of connection points: 2
#     Edge 30, Type (0, 1), BuildingBlock: MIFKUJ_clean_linker_0, # of connection points: 2
#     Edge 31, Type (0, 1), BuildingBlock: MIFKUJ_clean_linker_0, # of connection points: 2
#     Edge 32, Type (0, 1), BuildingBlock: MIFKUJ_clean_linker_0, # of connection points: 2
#     Edge 33, Type (0, 1), BuildingBlock: MIFKUJ_clean_linker_0, # of connection points: 2
#     Edge 34, Type (0, 1), BuildingBlock: MIFKUJ_clean_linker_0, # of connection points: 2
#     Edge 35, Type (0, 1), BuildingBlock: MIFKUJ_clean_linker_0, # of connection points: 2
# Relax obj value: 0.071
# Max RMSD: 0.145
# Mean RMSD: 0.065
data_MOF--net-pyr--node1-PAMTOO_clean_sbu_0--node2-VETTIZ_charged_linker_0--edge1-MIFKUJ_clean_linker_0
_symmetry_space_group_name_H-M    P1
_symmetry_Int_Tables_number       1
_symmetry_cell_setting            triclinic
loop_
_symmetry_equiv_pos_as_xyz
'x, y, z'
_cell_length_a     55.669134
_cell_length_b     58.261865
_cell_length_c     59.070179
_cell_angle_alpha  89.812684
_cell_angle_beta   89.994811
_cell_angle_gamma 100.94188
loop_
_atom_site_label
_atom_site_type_symbol
_atom_site_fract_x
_atom_site_fract_y
_atom_site_fract_z
_atom_type_partial_charge
C0 C 0.28066 0.22642 0.28016 0.0
C1 C 0.26343 0.23707 0.29151 0.0
C2 C 0.25565 0.25629 0.28126 0.0
C3 C 0.28026 0.25253 0.24814 0.0
C4 C 0.28881 0.23444 0.25861 0.0
C5 C 0.30628 0.22444 0.24385 0.0
H6 H 0.36132 0.22096 0.14217 0.0
C7 C 0.2908 0.25535 0.22512 0.0
C8 C 0.30628 0.23915 0.22257 0.0
H9 H 0.36784 0.17945 0.202 0.0
H10 H 0.34173 0.20046 0.22257 0.0
H11 H 0.36352 0.27125 0.16819 0.0
H12 H 0.30422 0.21714 0.14636 0.0
H13 H 0.29536 0.24402 0.14129 0.0
H14 H 0.32165 0.23728 0.12675 0.0
H15 H 0.35644 0.2652 0.1389 0.0
H16 H 0.34126 0.28451 0.15494 0.0
C17 C 0.33165 0.22881 0.25557 0.0
C18 C 0.29523 0.19833 0.23956 0.0
C19 C 0.26101 0.31065 0.17013 0.0
C20 C 0.26496 0.31525 0.14693 0.0
C21 C 0.28198 0.30451 0.13531 0.0
C22 C 0.29458 0.28916 0.14663 0.0
C23 C 0.28986 0.28424 0.16972 0.0
C24 C 0.27344 0.29512 0.18107 0.0
C25 C 0.26976 0.28719 0.20524 0.0
C26 C 0.28666 0.26968 0.20662 0.0
C27 C 0.29842 0.268 0.18581 0.0
C28 C 0.27841 0.30856 0.22076 0.0
C29 C 0.24251 0.27541 0.20827 0.0
C30 C 0.35711 0.21634 0.15969 0.0
C31 C 0.36684 0.19849 0.17041 0.0
C32 C 0.36104 0.19334 0.19336 0.0
C33 C 0.34563 0.20544 0.20527 0.0
C34 C 0.33564 0.22279 0.19416 0.0
C35 C 0.34156 0.22814 0.1718 0.0
C36 C 0.32875 0.24675 0.16265 0.0
C37 C 0.31446 0.2519 0.18331 0.0
C38 C 0.31847 0.23768 0.20166 0.0
C39 C 0.34838 0.26809 0.15561 0.0
C40 C 0.31168 0.23597 0.14313 0.0
H41 H 0.25704 0.27853 0.25269 0.0
H42 H 0.28691 0.21151 0.28744 0.0
H43 H 0.27507 0.1958 0.23717 0.0
H44 H 0.30214 0.19145 0.22398 0.0
H45 H 0.29871 0.18728 0.2541 0.0
H46 H 0.33456 0.2452 0.26566 0.0
H47 H 0.33341 0.21426 0.26728 0.0
H48 H 0.34699 0.23137 0.24337 0.0
H49 H 0.24767 0.31821 0.17944 0.0
H50 H 0.28538 0.30787 0.11744 0.0
H51 H 0.30719 0.2814 0.13687 0.0
H52 H 0.29391 0.32094 0.21295 0.0
H53 H 0.26344 0.31833 0.22387 0.0
H54 H 0.28561 0.3037 0.23718 0.0
H55 H 0.23545 0.26546 0.19283 0.0
H56 H 0.23948 0.26237 0.22205 0.0
H57 H 0.23091 0.28864 0.21133 0.0
H58 H 0.24277 0.2651 0.2898 0.0
C59 C 0.26401 0.2641 0.25971 0.0
C60 C 0.15325 0.80293 0.65616 0.0
C61 C 0.1434 0.82092 0.66634 0.0
C62 C 0.14904 0.82656 0.68917 0.0
C63 C 0.17503 0.79765 0.69081 0.0
C64 C 0.16893 0.79155 0.66868 0.0
C65 C 0.18167 0.77261 0.66027 0.0
H66 H 0.26574 0.70452 0.67861 0.0
C67 C 0.19262 0.78336 0.69873 0.0
C68 C 0.19637 0.76839 0.68103 0.0
H69 H 0.22427 0.70964 0.61754 0.0
H70 H 0.20217 0.73619 0.63627 0.0
H71 H 0.27608 0.75829 0.68913 0.0
H72 H 0.22101 0.70166 0.71361 0.0
H73 H 0.22903 0.72058 0.73661 0.0
H74 H 0.25189 0.70644 0.72386 0.0
H75 H 0.28272 0.73588 0.70773 0.0
H76 H 0.27367 0.76181 0.71848 0.0
C77 C 0.19835 0.78262 0.64016 0.0
C78 C 0.16199 0.75093 0.65434 0.0
C79 C 0.23516 0.80142 0.77435 0.0
C80 C 0.25344 0.79212 0.78556 0.0
C81 C 0.26055 0.77194 0.77686 0.0
C82 C 0.25068 0.76203 0.75652 0.0
C83 C 0.23359 0.77247 0.74471 0.0
C84 C 0.22546 0.79131 0.75407 0.0
C85 C 0.20679 0.79974 0.73943 0.0
C86 C 0.2058 0.78343 0.71931 0.0
C87 C 0.22179 0.76776 0.72237 0.0
C88 C 0.21702 0.82552 0.73282 0.0
C89 C 0.18218 0.79594 0.7525 0.0
C90 C 0.25151 0.7109 0.66938 0.0
C91 C 0.24666 0.70488 0.6466 0.0
C92 C 0.22844 0.71413 0.63507 0.0
C93 C 0.21566 0.72954 0.64598 0.0
C94 C 0.22137 0.736 0.66856 0.0
C95 C 0.23882 0.72642 0.67993 0.0
C96 C 0.24325 0.73574 0.70353 0.0
C97 C 0.2256 0.75257 0.70455 0.0
C98 C 0.2129 0.75278 0.68401 0.0
C99 C 0.27032 0.74851 0.70505 0.0
C100 C 0.23614 0.71513 0.72041 0.0
H101 H 0.16855 0.82039 0.7186 0.0
H102 H 0.14905 0.79795 0.63874 0.0
H103 H 0.1466 0.74873 0.66667 0.0
H104 H 0.16895 0.73443 0.65525 0.0
H105 H 0.15428 0.75268 0.63721 0.0
H106 H 0.2067 0.80129 0.64309 0.0
H107 H 0.18778 0.78167 0.62413 0.0
H108 H 0.21402 0.7738 0.63777 0.0
H109 H 0.22907 0.8167 0.7809 0.0
H110 H 0.27462 0.76449 0.78523 0.0
H111 H 0.25736 0.74711 0.75038 0.0
H112 H 0.23681 0.82793 0.72852 0.0
H113 H 0.21509 0.83749 0.74702 0.0
H114 H 0.20825 0.83136 0.71768 0.0
H115 H 0.18077 0.78128 0.76486 0.0
H116 H 0.16618 0.79083 0.74124 0.0
H117 H 0.18015 0.81182 0.76211 0.0
H118 H 0.142 0.84051 0.69739 0.0
C119 C 0.16468 0.81498 0.70144 0.0
C120 C 0.62726 0.28174 0.87012 0.0
C121 C 0.606 0.26721 0.86183 0.0
C122 C 0.59521 0.27435 0.84195 0.0
C123 C 0.62619 0.31011 0.83986 0.0
C124 C 0.6368 0.30286 0.85912 0.0
C125 C 0.65889 0.32011 0.86657 0.0
H126 H 0.73662 0.42356 0.85509 0.0
C127 C 0.6407 0.33341 0.83307 0.0
C128 C 0.65978 0.33919 0.8489 0.0
H129 H 0.73736 0.36897 0.90482 0.0
H130 H 0.70195 0.34578 0.88785 0.0
H131 H 0.67894 0.42103 0.85511 0.0
H132 H 0.72342 0.38704 0.81151 0.0
H133 H 0.70259 0.39888 0.79475 0.0
H134 H 0.72484 0.4181 0.81144 0.0
H135 H 0.69752 0.43661 0.8331 0.0
H136 H 0.66684 0.42098 0.82765 0.0
C137 C 0.65368 0.32872 0.8906 0.0
C138 C 0.68143 0.30807 0.86499 0.0
C139 C 0.61842 0.37697 0.76271 0.0
C140 C 0.62801 0.3992 0.7532 0.0
C141 C 0.64765 0.41347 0.76467 0.0
C142 C 0.65788 0.40577 0.78436 0.0
C143 C 0.64839 0.38353 0.7933 0.0
C144 C 0.6287 0.36963 0.78274 0.0
C145 C 0.62024 0.34699 0.79556 0.0
C146 C 0.63852 0.34936 0.81505 0.0
C147 C 0.65512 0.37087 0.81353 0.0
C148 C 0.59388 0.34656 0.80403 0.0
C149 C 0.62265 0.32641 0.77984 0.0
C150 C 0.7292 0.40655 0.86222 0.0
C151 C 0.73981 0.39839 0.88169 0.0
C152 C 0.72939 0.37611 0.89031 0.0
C153 C 0.7088 0.36246 0.88024 0.0
C154 C 0.69819 0.3709 0.86112 0.0
C155 C 0.70842 0.39252 0.85226 0.0
C156 C 0.69452 0.3983 0.83166 0.0
C157 C 0.67438 0.37656 0.82973 0.0
C158 C 0.6767 0.3607 0.84714 0.0
C159 C 0.68397 0.42047 0.83691 0.0
C160 C 0.71215 0.4009 0.81117 0.0
H161 H 0.59606 0.30006 0.816 0.0
H162 H 0.63656 0.27679 0.88494 0.0
H163 H 0.6792 0.2949 0.85117 0.0
H164 H 0.69849 0.32039 0.86067 0.0
H165 H 0.68417 0.29886 0.88101 0.0
H166 H 0.63403 0.32977 0.89255 0.0
H167 H 0.65813 0.31664 0.90387 0.0
H168 H 0.66363 0.34659 0.89422 0.0
H169 H 0.60339 0.36532 0.75471 0.0
H170 H 0.65508 0.43094 0.75868 0.0
H171 H 0.67278 0.41758 0.79199 0.0
H172 H 0.59177 0.36419 0.80993 0.0
H173 H 0.58036 0.34122 0.7903 0.0
H174 H 0.58895 0.33491 0.81874 0.0
H175 H 0.64043 0.33008 0.77066 0.0
H176 H 0.6224 0.30993 0.78917 0.0
H177 H 0.60778 0.32351 0.76703 0.0
H178 H 0.57878 0.26371 0.83508 0.0
C179 C 0.60517 0.29562 0.83095 0.0
C180 C 0.9052 0.74698 0.35158 0.0
C181 C 0.89703 0.75728 0.37116 0.0
C182 C 0.87691 0.74443 0.38313 0.0
C183 C 0.87248 0.71289 0.35584 0.0
C184 C 0.89266 0.72477 0.34428 0.0
C185 C 0.89861 0.71082 0.32408 0.0
H186 H 0.86711 0.6146 0.25619 0.0
C187 C 0.86307 0.69062 0.34395 0.0
C188 C 0.87829 0.68908 0.32525 0.0
H189 H 0.9307 0.66964 0.25028 0.0
H190 H 0.91814 0.68859 0.28359 0.0
H191 H 0.87281 0.6085 0.30956 0.0
H192 H 0.82716 0.64758 0.27233 0.0
H193 H 0.80964 0.63045 0.29338 0.0
H194 H 0.82331 0.61628 0.27112 0.0
H195 H 0.84576 0.59425 0.29504 0.0
H196 H 0.84449 0.60518 0.3235 0.0
C197 C 0.92417 0.70472 0.3279 0.0
C198 C 0.89676 0.72533 0.30243 0.0
C199 C 0.78609 0.63822 0.37421 0.0
C200 C 0.77254 0.61617 0.36801 0.0
C201 C 0.78046 0.60515 0.34879 0.0
C202 C 0.80117 0.6158 0.33623 0.0
C203 C 0.81451 0.63774 0.3429 0.0
C204 C 0.80688 0.6484 0.36173 0.0
C205 C 0.82349 0.67122 0.36703 0.0
C206 C 0.84237 0.67269 0.34824 0.0
C207 C 0.83703 0.65316 0.33394 0.0
C208 C 0.83491 0.66903 0.39075 0.0
C209 C 0.80828 0.69085 0.36498 0.0
C210 C 0.87817 0.63084 0.262 0.0
C211 C 0.8998 0.64077 0.25041 0.0
C212 C 0.91397 0.66166 0.25885 0.0
C213 C 0.90663 0.67264 0.27821 0.0
C214 C 0.88501 0.6625 0.28967 0.0
C215 C 0.87134 0.64175 0.28164 0.0
C216 C 0.84977 0.63265 0.29677 0.0
C217 C 0.85236 0.65152 0.31485 0.0
C218 C 0.87298 0.66923 0.31056 0.0
C219 C 0.85312 0.60881 0.3067 0.0
C220 C 0.82611 0.63149 0.28276 0.0
H221 H 0.8494 0.71418 0.38555 0.0
H222 H 0.92069 0.75609 0.34197 0.0
H223 H 0.87986 0.7329 0.3028 0.0
H224 H 0.89561 0.71481 0.28685 0.0
H225 H 0.91267 0.74 0.30097 0.0
H226 H 0.92701 0.70103 0.3461 0.0
H227 H 0.93891 0.71942 0.32266 0.0
H228 H 0.92655 0.68871 0.31894 0.0
H229 H 0.78065 0.64766 0.38848 0.0
H230 H 0.77092 0.58805 0.34358 0.0
H231 H 0.8061 0.60647 0.32185 0.0
H232 H 0.83601 0.65058 0.39474 0.0
H233 H 0.82389 0.67525 0.40429 0.0
H234 H 0.85405 0.67856 0.39191 0.0
H235 H 0.79517 0.68738 0.35061 0.0
H236 H 0.81952 0.70818 0.36127 0.0
H237 H 0.7975 0.69203 0.38061 0.0
H238 H 0.87056 0.75116 0.39864 0.0
C239 C 0.86465 0.72261 0.37559 0.0
C240 C 0.73394 0.70976 0.88522 0.0
C241 C 0.75257 0.69913 0.87629 0.0
C242 C 0.76014 0.70399 0.85371 0.0
C243 C 0.73268 0.73136 0.85017 0.0
C244 C 0.72426 0.72576 0.87187 0.0
C245 C 0.70523 0.73955 0.87897 0.0
H246 H 0.65011 0.8317 0.86003 0.0
C247 C 0.72069 0.75014 0.84156 0.0
C248 C 0.7043 0.75486 0.8582 0.0
H249 H 0.63953 0.78394 0.91679 0.0
H250 H 0.66558 0.76027 0.89899 0.0
H251 H 0.64412 0.79226 0.82235 0.0
H252 H 0.70787 0.83335 0.85349 0.0
H253 H 0.71277 0.83333 0.82407 0.0
H254 H 0.68773 0.84536 0.83505 0.0
H255 H 0.65587 0.82178 0.81365 0.0
H256 H 0.66678 0.79732 0.80129 0.0
C257 C 0.68072 0.72232 0.88286 0.0
C258 C 0.71497 0.7541 0.90007 0.0
C259 C 0.7512 0.79176 0.76851 0.0
C260 C 0.74553 0.81134 0.75727 0.0
C261 C 0.7261 0.82141 0.76538 0.0
C262 C 0.71328 0.81277 0.78499 0.0
C263 C 0.72001 0.79392 0.79669 0.0
C264 C 0.73826 0.78337 0.78807 0.0
C265 C 0.74291 0.7635 0.80266 0.0
C266 C 0.72462 0.76402 0.82163 0.0
C267 C 0.71153 0.78207 0.8182 0.0
C268 C 0.73682 0.74063 0.7887 0.0
C269 C 0.76973 0.76968 0.81113 0.0
C270 C 0.65346 0.81612 0.86857 0.0
C271 C 0.64319 0.80977 0.88991 0.0
C272 C 0.64739 0.78913 0.90035 0.0
C273 C 0.6626 0.77555 0.89007 0.0
C274 C 0.67364 0.7827 0.86914 0.0
C275 C 0.66839 0.8023 0.85845 0.0
C276 C 0.68091 0.8068 0.8359 0.0
C277 C 0.69496 0.78692 0.83499 0.0
C278 C 0.69101 0.77311 0.85468 0.0
C279 C 0.66104 0.80463 0.81723 0.0
C280 C 0.69817 0.831 0.83695 0.0
H281 H 0.75718 0.72319 0.82376 0.0
H282 H 0.72744 0.70611 0.90238 0.0
H283 H 0.73449 0.76249 0.89767 0.0
H284 H 0.70525 0.76852 0.90353 0.0
H285 H 0.71377 0.74284 0.9154 0.0
H286 H 0.67937 0.70656 0.87199 0.0
H287 H 0.67884 0.71628 0.90074 0.0
H288 H 0.66466 0.72994 0.87815 0.0
H289 H 0.7658 0.78342 0.76248 0.0
H290 H 0.72146 0.83659 0.75706 0.0
H291 H 0.69907 0.82153 0.79062 0.0
H292 H 0.72249 0.74162 0.77578 0.0
H293 H 0.75321 0.73712 0.77963 0.0
H294 H 0.72905 0.72527 0.79922 0.0
H295 H 0.77472 0.78855 0.81549 0.0
H296 H 0.77306 0.76038 0.82675 0.0
H297 H 0.78268 0.76607 0.79789 0.0
H298 H 0.77461 0.69631 0.84642 0.0
C299 C 0.7502 0.71988 0.8406 0.0
C300 C 0.85854 0.22237 0.38339 0.0
C301 C 0.86654 0.2032 0.37356 0.0
C302 C 0.85939 0.19657 0.35131 0.0
C303 C 0.83514 0.22687 0.34949 0.0
C304 C 0.84271 0.23383 0.37112 0.0
C305 C 0.83074 0.25332 0.37953 0.0
H306 H 0.74497 0.32009 0.36384 0.0
C307 C 0.81738 0.24114 0.34196 0.0
C308 C 0.81474 0.25678 0.35942 0.0
H309 H 0.79153 0.31863 0.42223 0.0
H310 H 0.81236 0.29135 0.40314 0.0
H311 H 0.73409 0.26692 0.35545 0.0
H312 H 0.78817 0.3215 0.32613 0.0
H313 H 0.77718 0.30209 0.30415 0.0
H314 H 0.75639 0.31734 0.31869 0.0
H315 H 0.72647 0.28752 0.3353 0.0
H316 H 0.73537 0.26077 0.32648 0.0
C317 C 0.81539 0.24441 0.40077 0.0
C318 C 0.85097 0.27507 0.38372 0.0
C319 C 0.77317 0.22256 0.26719 0.0
C320 C 0.754 0.23109 0.25658 0.0
C321 C 0.74572 0.25029 0.26622 0.0
C322 C 0.75568 0.26018 0.28655 0.0
C323 C 0.77402 0.25069 0.29749 0.0
C324 C 0.78277 0.23249 0.28756 0.0
C325 C 0.80194 0.2243 0.30175 0.0
C326 C 0.80312 0.24048 0.32196 0.0
C327 C 0.78666 0.25577 0.31944 0.0
C328 C 0.79225 0.19836 0.30829 0.0
C329 C 0.82623 0.22865 0.28821 0.0
C330 C 0.76002 0.31438 0.3724 0.0
C331 C 0.76658 0.32158 0.3946 0.0
C332 C 0.78593 0.31317 0.40521 0.0
C333 C 0.798 0.29734 0.3941 0.0
C334 C 0.79051 0.28965 0.37221 0.0
C335 C 0.77212 0.29854 0.36161 0.0
C336 C 0.76617 0.28827 0.33855 0.0
C337 C 0.78386 0.27153 0.33707 0.0
C338 C 0.79798 0.27223 0.35687 0.0
C339 C 0.73911 0.27528 0.3387 0.0
C340 C 0.77205 0.30823 0.32083 0.0
H341 H 0.83892 0.2023 0.3224 0.0
H342 H 0.86364 0.22766 0.40056 0.0
H343 H 0.86554 0.2765 0.37061 0.0
H344 H 0.84414 0.29164 0.38253 0.0
H345 H 0.85972 0.27406 0.4005 0.0
H346 H 0.80647 0.22575 0.39877 0.0
H347 H 0.82707 0.24573 0.41614 0.0
H348 H 0.80021 0.25371 0.40384 0.0
H349 H 0.78024 0.20807 0.26007 0.0
H350 H 0.73088 0.25713 0.2585 0.0
H351 H 0.74822 0.27441 0.29328 0.0
H352 H 0.772 0.19478 0.31026 0.0
H353 H 0.79685 0.18634 0.29512 0.0
H354 H 0.79912 0.19349 0.32482 0.0
H355 H 0.82817 0.24501 0.27803 0.0
H356 H 0.84257 0.23125 0.2992 0.0
H357 H 0.82699 0.21407 0.27632 0.0
H358 H 0.86557 0.18195 0.34341 0.0
C359 C 0.84391 0.2084 0.33917 0.0
C360 C 0.40057 0.65395 0.27183 0.0
C361 C 0.38924 0.63383 0.28394 0.0
C362 C 0.36703 0.62087 0.27559 0.0
C363 C 0.36766 0.64777 0.24393 0.0
C364 C 0.38932 0.66075 0.2521 0.0
C365 C 0.39807 0.68227 0.23772 0.0
H366 H 0.37623 0.75152 0.14952 0.0
C367 C 0.36039 0.6596 0.2234 0.0
C368 C 0.37802 0.68014 0.21982 0.0
H369 H 0.43982 0.76229 0.19311 0.0
H370 H 0.4231 0.72685 0.21365 0.0
H371 H 0.33613 0.73388 0.18663 0.0
H372 H 0.37714 0.69885 0.14116 0.0
H373 H 0.34803 0.68112 0.14258 0.0
H374 H 0.35126 0.71065 0.13199 0.0
H375 H 0.32998 0.73142 0.15684 0.0
H376 H 0.31564 0.70934 0.17662 0.0
C377 C 0.3989 0.70409 0.25271 0.0
C378 C 0.42304 0.68029 0.22726 0.0
C379 C 0.28505 0.62206 0.17729 0.0
C380 C 0.27384 0.62947 0.15777 0.0
C381 C 0.28331 0.65192 0.14894 0.0
C382 C 0.30383 0.66618 0.15849 0.0
C383 C 0.3153 0.65827 0.17736 0.0
C384 C 0.30567 0.63676 0.18679 0.0
C385 C 0.31984 0.63202 0.2076 0.0
C386 C 0.34012 0.65374 0.20832 0.0
C387 C 0.33728 0.66894 0.19047 0.0
C388 C 0.30259 0.63058 0.22837 0.0
C389 C 0.33019 0.60958 0.20343 0.0
C390 C 0.38693 0.74634 0.16325 0.0
C391 C 0.40957 0.76016 0.16942 0.0
C392 C 0.4222 0.75247 0.18795 0.0
C393 C 0.41253 0.73168 0.19984 0.0
C394 C 0.38996 0.7181 0.19319 0.0
C395 C 0.37779 0.72554 0.17499 0.0
C396 C 0.35475 0.70865 0.16923 0.0
C397 C 0.35473 0.6899 0.18712 0.0
C398 C 0.37521 0.69546 0.20143 0.0
C399 C 0.33288 0.72136 0.17227 0.0
C400 C 0.35767 0.69935 0.14497 0.0
H401 H 0.33952 0.61682 0.25029 0.0
H402 H 0.41752 0.66443 0.27786 0.0
H403 H 0.42307 0.66203 0.22181 0.0
H404 H 0.42733 0.69107 0.21186 0.0
H405 H 0.43807 0.68527 0.23971 0.0
H406 H 0.38221 0.70214 0.26345 0.0
H407 H 0.41505 0.70666 0.26412 0.0
H408 H 0.39932 0.72023 0.2428 0.0
H409 H 0.27824 0.6051 0.1848 0.0
H410 H 0.27474 0.65868 0.13458 0.0
H411 H 0.31 0.68289 0.15068 0.0
H412 H 0.28812 0.64112 0.2257 0.0
H413 H 0.29329 0.61227 0.23177 0.0
H414 H 0.31224 0.63795 0.24385 0.0
H415 H 0.33846 0.60998 0.18625 0.0
H416 H 0.34488 0.60752 0.21536 0.0
H417 H 0.31549 0.59379 0.20456 0.0
H418 H 0.35801 0.60524 0.28438 0.0
C419 C 0.35632 0.6276 0.25572 0.0
C420 C 0.11034 0.27547 0.68346 0.0
C421 C 0.1194 0.26431 0.6649 0.0
C422 C 0.14069 0.276 0.65385 0.0
C423 C 0.144 0.3088 0.6796 0.0
C424 C 0.1231 0.29765 0.69063 0.0
C425 C 0.11703 0.31206 0.71046 0.0
H426 H 0.1469 0.41133 0.7745 0.0
C427 C 0.15315 0.33144 0.69093 0.0
C428 C 0.13755 0.33363 0.70918 0.0
H429 H 0.0858 0.35403 0.78408 0.0
H430 H 0.09839 0.33449 0.75142 0.0
H431 H 0.14095 0.41392 0.71974 0.0
H432 H 0.18721 0.37953 0.76147 0.0
H433 H 0.20475 0.39441 0.73922 0.0
H434 H 0.19098 0.4108 0.75966 0.0
H435 H 0.16648 0.43 0.73513 0.0
H436 H 0.17022 0.41819 0.70743 0.0
C437 C 0.09166 0.31832 0.70616 0.0
C438 C 0.11846 0.29785 0.7324 0.0
C439 C 0.22916 0.3838 0.65897 0.0
C440 C 0.24239 0.40616 0.66446 0.0
C441 C 0.23438 0.41779 0.6832 0.0
C442 C 0.21372 0.40743 0.69599 0.0
C443 C 0.20067 0.38511 0.69006 0.0
C444 C 0.20854 0.37382 0.67175 0.0
C445 C 0.19251 0.35047 0.66743 0.0
C446 C 0.17359 0.34947 0.68612 0.0
C447 C 0.1784 0.3697 0.69951 0.0
C448 C 0.18098 0.3513 0.64357 0.0
C449 C 0.20831 0.33141 0.67051 0.0
C450 C 0.13603 0.39467 0.76955 0.0
C451 C 0.11529 0.38435 0.78232 0.0
C452 C 0.10208 0.3624 0.77509 0.0
C453 C 0.10934 0.35105 0.75592 0.0
C454 C 0.13016 0.36155 0.74354 0.0
C455 C 0.14306 0.38309 0.75043 0.0
C456 C 0.16462 0.39183 0.73518 0.0
C457 C 0.16277 0.37197 0.71821 0.0
C458 C 0.14246 0.35411 0.7231 0.0
C459 C 0.16062 0.41478 0.7238 0.0
C460 C 0.18824 0.39448 0.74952 0.0
H461 H 0.16895 0.30563 0.65169 0.0
H462 H 0.09408 0.26696 0.6924 0.0
H463 H 0.13442 0.28891 0.73185 0.0
H464 H 0.12118 0.30887 0.74767 0.0
H465 H 0.10171 0.28424 0.73463 0.0
H466 H 0.08993 0.32351 0.68818 0.0
H467 H 0.07679 0.30313 0.70975 0.0
H468 H 0.08852 0.33336 0.71627 0.0
H469 H 0.2348 0.37397 0.64506 0.0
H470 H 0.24384 0.43512 0.68783 0.0
H471 H 0.20863 0.41724 0.70995 0.0
H472 H 0.17789 0.36917 0.6395 0.0
H473 H 0.19309 0.34635 0.63023 0.0
H474 H 0.16268 0.34007 0.64216 0.0
H475 H 0.22269 0.33662 0.68359 0.0
H476 H 0.19768 0.3146 0.67673 0.0
H477 H 0.21767 0.32838 0.6545 0.0
H478 H 0.14789 0.26817 0.63935 0.0
C479 C 0.15291 0.29797 0.66101 0.0
Dy480 Dy 0.03596 0.01805 0.49984 0.0
Dy481 Dy 0.98449 1.008 0.52849 0.0
C482 C 0.02643 0.05197 0.54008 0.0
O483 O 0.03689 0.98591 0.51987 0.0
O484 O 0.01066 0.99116 0.54846 0.0
O485 O 0.07541 0.02289 0.49909 0.0
O486 O 0.05495 0.02394 0.46796 0.0
O487 O 0.98337 0.97517 0.50855 0.0
O488 O 0.01106 0.98965 0.48071 0.0
O489 O 0.97728 0.02596 0.4965 0.0
O490 O 0.01596 0.04628 0.48986 0.0
O491 O 0.94525 0.99683 0.53014 0.0
O492 O 0.96555 1.01096 0.55988 0.0
C493 C 0.02795 0.98106 0.54022 0.0
O494 O 0.04242 0.04089 0.53077 0.0
O495 O 1.00286 0.04465 0.537 0.0
C496 C 0.094 0.04767 0.46993 0.0
C497 C 0.12679 0.0867 0.45295 0.0
C498 C 0.10453 0.08944 0.46289 0.0
C499 C 0.08827 0.07005 0.47137 0.0
C500 C 0.11637 0.04492 0.46057 0.0
C501 C 0.13266 0.06427 0.45215 0.0
C502 C 0.07653 0.02696 0.47735 0.0
C503 C 0.99341 0.97324 0.48865 0.0
C504 C 0.99223 0.04342 0.48698 0.0
C505 C 0.93009 0.98197 0.56609 0.0
C506 C 0.90135 0.94789 0.59385 0.0
C507 C 0.90054 0.94561 0.57017 0.0
C508 C 0.91479 0.96248 0.55641 0.0
C509 C 0.93085 0.9842 0.58976 0.0
C510 C 0.91674 0.9673 0.60349 0.0
C511 C 0.94444 1.00058 0.55187 0.0
H512 H 0.09962 0.10652 0.46393 0.0
H513 H 0.07106 0.07243 0.47869 0.0
H514 H 0.12101 0.02773 0.45933 0.0
H515 H 0.14948 0.06153 0.44432 0.0
H516 H 0.88893 0.93076 0.5623 0.0
H517 H 0.91364 0.96032 0.53821 0.0
H518 H 0.94217 0.9992 0.59769 0.0
H519 H 0.91743 0.96973 0.62167 0.0
Dy520 Dy 0.48147 1.00878 1.00035 0.0
Dy521 Dy 0.53219 0.01955 0.03009 0.0
C522 C 0.4903 0.97464 0.04167 0.0
O523 O 0.47891 0.0397 0.02169 0.0
O524 O 0.50516 0.0346 0.05036 0.0
O525 O 0.44205 1.00353 0.99795 0.0
O526 O 0.46427 1.00505 0.9676 0.0
O527 O 0.53083 0.05251 1.01088 0.0
O528 O 0.50864 0.03521 0.981 0.0
O529 O 0.5394 0.99926 0.99956 0.0
O530 O 0.50057 0.97961 0.99231 0.0
O531 O 0.57126 0.03208 0.03062 0.0
O532 O 0.5522 0.01823 0.06117 0.0
C533 C 0.48733 0.04406 0.04229 0.0
O534 O 0.47434 0.98337 0.02946 0.0
O535 O 0.51377 0.98389 0.04157 0.0
C536 C 0.42539 0.9811 0.96658 0.0
C537 C 0.39522 0.94378 0.94435 0.0
C538 C 0.4154 0.93987 0.95711 0.0
C539 C 0.43044 0.95845 0.96814 0.0
C540 C 0.40479 0.98489 0.95465 0.0
C541 C 0.38978 0.96638 0.94364 0.0
C542 C 0.4422 1.00118 0.97599 0.0
C543 C 0.52346 0.05322 0.98983 0.0
C544 C 0.52432 0.98155 0.99059 0.0
C545 C 0.58679 0.04852 0.06578 0.0
C546 C 0.6154 0.08403 0.09189 0.0
C547 C 0.61497 0.08588 0.06817 0.0
C548 C 0.60084 0.06827 0.05522 0.0
C549 C 0.58699 0.04686 0.08949 0.0
C550 C 0.601 0.06446 0.1024 0.0
C551 C 0.57278 0.02908 0.05244 0.0
H552 H 0.42013 0.92269 0.95782 0.0
H553 H 0.44637 0.9553 0.97731 0.0
H554 H 0.40064 1.00228 0.95337 0.0
H555 H 0.37415 0.96985 0.93423 0.0
H556 H 0.62607 0.10061 0.05956 0.0
H557 H 0.60123 0.07001 0.03696 0.0
H558 H 0.57646 0.03179 0.09809 0.0
H559 H 0.60062 0.06269 0.12066 0.0
Dy560 Dy 0.50468 0.4895 0.5043 0.0
Dy561 Dy 0.51049 0.53921 0.53054 0.0
C562 C 0.53069 0.4971 0.55328 0.0
O563 O 0.46674 0.49066 0.51654 0.0
O564 O 0.4785 0.5153 0.54623 0.0
O565 O 0.49574 0.45172 0.50456 0.0
O566 O 0.50755 0.47023 0.47354 0.0
O567 O 0.48314 0.5405 0.50268 0.0
O568 O 0.49705 0.51556 0.47849 0.0
O569 O 0.54209 0.54385 0.50628 0.0
O570 O 0.54447 0.50536 0.50123 0.0
O571 O 0.51631 0.57691 0.5295 0.0
O572 O 0.50977 0.55869 0.56155 0.0
C573 C 0.46207 0.49943 0.5362 0.0
O574 O 0.51575 0.483 0.53999 0.0
O575 O 0.53555 0.51977 0.54945 0.0
C576 C 0.52315 0.43651 0.48103 0.0
C577 C 0.56433 0.41628 0.47246 0.0
C578 C 0.56188 0.42722 0.49327 0.0
C579 C 0.54155 0.4374 0.49746 0.0
C580 C 0.52508 0.42488 0.46059 0.0
C581 C 0.54552 0.41484 0.45631 0.0
C582 C 0.50371 0.45015 0.48397 0.0
C583 C 0.48527 0.5327 0.48207 0.0
C584 C 0.55375 0.52772 0.49888 0.0
C585 C 0.49115 0.59119 0.55612 0.0
C586 C 0.45078 0.61128 0.56834 0.0
C587 C 0.45194 0.60138 0.5468 0.0
C588 C 0.47186 0.59129 0.54079 0.0
C589 C 0.49037 0.60161 0.57739 0.0
C590 C 0.47033 0.61154 0.58348 0.0
C591 C 0.51091 0.57847 0.55086 0.0
H592 H 0.57619 0.42883 0.50592 0.0
H593 H 0.54067 0.44668 0.51321 0.0
H594 H 0.51119 0.42424 0.44764 0.0
H595 H 0.54684 0.40631 0.44022 0.0
H596 H 0.43702 0.60067 0.53489 0.0
H597 H 0.47183 0.58305 0.52438 0.0
H598 H 0.50499 0.60155 0.58949 0.0
H599 H 0.47002 0.61924 0.60012 0.0
Dy600 Dy 0.01166 0.5365 1.00421 0.0
Dy601 Dy 1.00612 0.48723 0.03187 0.0
C602 C 0.98697 0.53091 0.05313 0.0
O603 O 0.04435 0.54152 0.02711 0.0
O604 O 0.04566 0.50327 0.03579 0.0
O605 O 0.01742 0.57421 1.00462 0.0
O606 O 0.00966 0.55559 0.97303 0.0
O607 O 0.01932 0.48 0.99704 0.0
O608 O 0.03598 0.51698 0.98464 0.0
O609 O 0.96833 0.48809 1.01898 0.0
O610 O 0.98037 0.51192 0.98866 0.0
O611 O 0.99774 0.44943 0.03255 0.0
O612 O 1.00752 0.46872 0.06345 0.0
C613 C 0.05542 0.52564 0.03608 0.0
O614 O 0.9846 0.53819 0.03231 0.0
O615 O 0.99882 0.51387 0.05703 0.0
C616 C 0.9904 0.5875 0.97901 0.0
C617 C 0.94809 0.60533 0.9685 0.0
C618 C 0.95165 0.59736 0.99047 0.0
C619 C 0.97253 0.58838 0.99566 0.0
C620 C 0.98723 0.5961 0.95725 0.0
C621 C 0.96622 0.6049 0.952 0.0
C622 C 0.01087 0.57541 0.98351 0.0
C623 C 0.03271 0.4941 0.98245 0.0
C624 C 0.96389 0.4963 0.99897 0.0
C625 C 0.02398 0.43504 0.05832 0.0
C626 C 0.06515 0.4156 0.06928 0.0
C627 C 0.06112 0.42195 0.04685 0.0
C628 C 0.04081 0.43176 0.04143 0.0
C629 C 0.02752 0.4279 0.08056 0.0
C630 C 0.04798 0.41834 0.08603 0.0
C631 C 1.00461 0.44844 0.05358 0.0
H632 H 0.93786 0.59726 1.00344 0.0
H633 H 0.97431 0.58151 1.01251 0.0
H634 H 1.00068 0.59538 0.94414 0.0
H635 H 0.96402 0.61115 0.93498 0.0
H636 H 0.07418 0.42021 0.03367 0.0
H637 H 0.03876 0.43749 0.02419 0.0
H638 H 0.01489 0.43048 0.09385 0.0
H639 H 0.05056 0.41336 0.10342 0.0
H640 H 0.286 0.22005 0.32749 0.0
H641 H 0.26638 0.19925 0.36072 0.0
H642 H 0.19612 0.2105 0.33736 0.0
H643 H 0.21544 0.23099 0.30408 0.0
H644 H 0.20074 0.21524 0.38353 0.0
H645 H 0.21406 0.16055 0.32551 0.0
H646 H 0.23921 0.14287 0.29872 0.0
H647 H 0.28251 0.12484 0.35381 0.0
H648 H 0.25782 0.14276 0.3809 0.0
H649 H 0.11383 0.12046 0.42596 0.0
H650 H 0.14085 0.1509 0.40474 0.0
H651 H 0.20381 0.1286 0.43371 0.0
H652 H 0.1768 0.09801 0.45504 0.0
H653 H 0.20751 0.1317 0.38904 0.0
H654 H 0.18944 0.18161 0.4478 0.0
H655 H 0.16333 0.19884 0.474 0.0
H656 H 0.12808 0.22542 0.41768 0.0
H657 H 0.15374 0.20807 0.39112 0.0
C658 C 0.26639 0.21822 0.32952 0.0
C659 C 0.25226 0.22703 0.31305 0.0
C660 C 0.25524 0.20644 0.34855 0.0
C661 C 0.22978 0.20316 0.35136 0.0
C662 C 0.21581 0.21294 0.33556 0.0
C663 C 0.22692 0.2247 0.31655 0.0
C664 C 0.21731 0.18789 0.36959 0.0
C665 C 0.20213 0.19696 0.38476 0.0
C666 C 0.21959 0.16418 0.37143 0.0
C667 C 0.2343 0.15324 0.35519 0.0
C668 C 0.22907 0.15298 0.33188 0.0
C669 C 0.24322 0.14289 0.31665 0.0
C670 C 0.26249 0.13281 0.32455 0.0
C671 C 0.26761 0.13272 0.34771 0.0
C672 C 0.25355 0.14283 0.36301 0.0
C673 C 0.13342 0.12239 0.42825 0.0
C674 C 0.14319 0.1068 0.44214 0.0
C675 C 0.14886 0.13982 0.41611 0.0
C676 C 0.17437 0.14216 0.41778 0.0
C677 C 0.18418 0.12709 0.43218 0.0
C678 C 0.16874 0.1096 0.44428 0.0
C679 C 0.19061 0.15892 0.40294 0.0
C680 C 0.20645 0.15009 0.38825 0.0
C681 C 0.18883 0.1828 0.40154 0.0
C682 C 0.17343 0.19339 0.41746 0.0
C683 C 0.17601 0.19099 0.44099 0.0
C684 C 0.16131 0.2008 0.45591 0.0
C685 C 0.14404 0.21318 0.44751 0.0
C686 C 0.14147 0.21582 0.42417 0.0
C687 C 0.15612 0.20603 0.40917 0.0
H688 H 0.13266 0.22076 0.45909 0.0
H689 H 0.27342 0.125 0.31273 0.0
H690 H 0.26497 0.77423 0.82633 0.0
H691 H 0.28961 0.79548 0.85696 0.0
H692 H 0.29714 0.85936 0.81828 0.0
H693 H 0.27256 0.83842 0.78788 0.0
H694 H 0.34206 0.84834 0.83523 0.0
H695 H 0.25973 0.85322 0.85968 0.0
H696 H 0.21741 0.83648 0.87111 0.0
H697 H 0.24426 0.79987 0.92594 0.0
H698 H 0.28679 0.81616 0.91462 0.0
H699 H 0.38017 0.94678 0.90085 0.0
H700 H 0.35696 0.91594 0.87754 0.0
H701 H 0.35502 0.86685 0.93265 0.0
H702 H 0.37802 0.89801 0.95645 0.0
H703 H 0.31004 0.86336 0.91108 0.0
H704 H 0.39211 0.86273 0.89044 0.0
H705 H 0.43463 0.87913 0.87945 0.0
H706 H 0.40934 0.90613 0.81801 0.0
H707 H 0.3666 0.8902 0.82878 0.0
C708 C 0.27178 0.79284 0.82452 0.0
C709 C 0.26677 0.80475 0.80485 0.0
C710 C 0.28576 0.80491 0.84197 0.0
C711 C 0.29515 0.82892 0.83978 0.0
C712 C 0.29004 0.84081 0.82022 0.0
C713 C 0.27584 0.82888 0.80299 0.0
C714 C 0.31086 0.84188 0.85747 0.0
C715 C 0.3351 0.85169 0.85181 0.0
C716 C 0.30194 0.84542 0.87934 0.0
C717 C 0.27642 0.83564 0.88612 0.0
C718 C 0.25661 0.8414 0.87403 0.0
C719 C 0.23259 0.83205 0.88052 0.0
C720 C 0.22815 0.81705 0.89919 0.0
C721 C 0.24773 0.81144 0.91145 0.0
C722 C 0.27179 0.82073 0.90501 0.0
C723 C 0.3746 0.9295 0.90815 0.0
C724 C 0.38082 0.92483 0.93052 0.0
C725 C 0.36155 0.91183 0.89472 0.0
C726 C 0.35456 0.88907 0.90329 0.0
C727 C 0.36039 0.88431 0.92572 0.0
C728 C 0.37361 0.90205 0.93921 0.0
C729 C 0.34102 0.87054 0.88853 0.0
C730 C 0.31723 0.85963 0.89471 0.0
C731 C 0.35041 0.86579 0.86715 0.0
C732 C 0.37611 0.87537 0.8605 0.0
C733 C 0.39558 0.87231 0.87466 0.0
C734 C 0.41974 0.8815 0.86846 0.0
C735 C 0.42468 0.89369 0.84806 0.0
C736 C 0.40548 0.89668 0.83381 0.0
C737 C 0.38128 0.88754 0.83994 0.0
H738 H 0.44339 0.90079 0.84329 0.0
H739 H 0.20954 0.80983 0.9042 0.0
H740 H 0.65213 0.42937 0.7206 0.0
H741 H 0.63526 0.44548 0.68741 0.0
H742 H 0.56437 0.40393 0.70183 0.0
H743 H 0.58056 0.38873 0.73614 0.0
H744 H 0.58544 0.40511 0.65227 0.0
H745 H 0.56588 0.45364 0.71387 0.0
H746 H 0.57644 0.47888 0.74722 0.0
H747 H 0.62843 0.52642 0.70761 0.0
H748 H 0.61844 0.50124 0.67409 0.0
H749 H 0.51429 0.45478 0.57359 0.0
H750 H 0.53051 0.43812 0.60683 0.0
H751 H 0.58782 0.49916 0.61189 0.0
H752 H 0.57073 0.51649 0.57912 0.0
H753 H 0.5746 0.4877 0.65187 0.0
H754 H 0.59613 0.44272 0.59083 0.0
H755 H 0.58976 0.41851 0.5564 0.0
H756 H 0.54041 0.36539 0.59263 0.0
H757 H 0.54616 0.38945 0.6272 0.0
C758 C 0.63281 0.42383 0.71719 0.0
C759 C 0.6178 0.40783 0.7317 0.0
C760 C 0.62326 0.43295 0.69789 0.0
C761 C 0.59852 0.42602 0.69208 0.0
C762 C 0.58356 0.40952 0.7059 0.0
C763 C 0.59298 0.4007 0.72555 0.0
C764 C 0.58834 0.43652 0.67188 0.0
C765 C 0.58268 0.42305 0.65225 0.0
C766 C 0.58573 0.46022 0.67146 0.0
C767 C 0.59161 0.47543 0.69155 0.0
C768 C 0.57974 0.46935 0.71233 0.0
C769 C 0.58558 0.48367 0.73125 0.0
C770 C 0.60315 0.5042 0.72956 0.0
C771 C 0.61485 0.51049 0.70891 0.0
C772 C 0.6091 0.49621 0.68994 0.0
C773 C 0.53041 0.46469 0.58168 0.0
C774 C 0.54127 0.48698 0.57346 0.0
C775 C 0.53984 0.45502 0.60073 0.0
C776 C 0.56088 0.46698 0.61185 0.0
C777 C 0.57165 0.48938 0.60376 0.0
C778 C 0.5619 0.49929 0.5849 0.0
C779 C 0.57129 0.45626 0.63201 0.0
C780 C 0.57719 0.46972 0.65169 0.0
C781 C 0.57471 0.43267 0.63225 0.0
C782 C 0.5714 0.418 0.61157 0.0
C783 C 0.5838 0.42594 0.59143 0.0
C784 C 0.58031 0.41224 0.57188 0.0
C785 C 0.56465 0.39045 0.57231 0.0
C786 C 0.55251 0.38228 0.59231 0.0
C787 C 0.55589 0.39594 0.6119 0.0
H788 H 0.56196 0.37988 0.55716 0.0
H789 H 0.60764 0.51527 0.74422 0.0
H790 H 0.94254 0.62499 0.2441 0.0
H791 H 0.95603 0.60632 0.21062 0.0
H792 H 0.88944 0.6133 0.17607 0.0
H793 H 0.87526 0.63041 0.21033 0.0
H794 H 0.89836 0.57572 0.16289 0.0
H795 H 0.951 0.6501 0.16642 0.0
H796 H 0.98003 0.68292 0.18313 0.0
H797 H 0.03225 0.63826 0.1933 0.0
H798 H 1.00339 0.60509 0.17692 0.0
H799 H 0.95177 0.5586 0.05298 0.0
H800 H 0.93586 0.57739 0.0855 0.0
H801 H 0.98405 0.54879 0.13002 0.0
H802 H 0.99954 0.52955 0.09786 0.0
H803 H 0.98396 0.59868 0.13599 0.0
H804 H 0.92749 0.52419 0.13084 0.0
H805 H 0.89783 0.49449 0.11057 0.0
H806 H 0.85188 0.54477 0.09884 0.0
H807 H 0.88145 0.57487 0.11879 0.0
C808 C 0.93079 0.62248 0.22934 0.0
C809 C 0.90789 0.62931 0.22984 0.0
C810 C 0.93861 0.61198 0.21 0.0
C811 C 0.92422 0.60882 0.19018 0.0
C812 C 0.90113 0.61545 0.19086 0.0
C813 C 0.893 0.62534 0.21047 0.0
C814 C 0.9331 0.59848 0.16899 0.0
C815 C 0.91701 0.58114 0.15696 0.0
C816 C 0.95749 0.60515 0.16081 0.0
C817 C 0.97493 0.62505 0.17064 0.0
C818 C 0.96861 0.64724 0.17236 0.0
C819 C 0.98504 0.66591 0.18175 0.0
C820 C 0.00794 0.66266 0.18932 0.0
C821 C 0.01449 0.64075 0.18745 0.0
C822 C 0.99811 0.62201 0.1781 0.0
C823 C 0.95892 0.55623 0.0697 0.0
C824 C 0.9769 0.5424 0.07271 0.0
C825 C 0.94978 0.56699 0.08831 0.0
C826 C 0.9587 0.56454 0.11032 0.0
C827 C 0.97684 0.551 0.11328 0.0
C828 C 0.98561 0.53989 0.09481 0.0
C829 C 0.94929 0.57602 0.13033 0.0
C830 C 0.96531 0.59351 0.14204 0.0
C831 C 0.92472 0.57001 0.13778 0.0
C832 C 0.90679 0.55183 0.12611 0.0
C833 C 0.91115 0.52896 0.12379 0.0
C834 C 0.89434 0.51204 0.11239 0.0
C835 C 0.87302 0.51776 0.10337 0.0
C836 C 0.86842 0.54038 0.10581 0.0
C837 C 0.88518 0.55736 0.11718 0.0
H838 H 0.86004 0.50465 0.09452 0.0
H839 H 0.02064 0.67714 0.19659 0.0
H840 H 0.36093 0.1836 0.12647 0.0
H841 H 0.38401 0.15866 0.10611 0.0
H842 H 0.42902 0.1553 0.16502 0.0
H843 H 0.4069 0.18144 0.18517 0.0
H844 H 0.45623 0.15812 0.12815 0.0
H845 H 0.38132 0.11057 0.15229 0.0
H846 H 0.33667 0.09905 0.15723 0.0
H847 H 0.32718 0.09531 0.08511 0.0
H848 H 0.37177 0.10714 0.07972 0.0
H849 H 0.49854 0.0569 0.08629 0.0
H850 H 0.4803 0.08379 0.10955 0.0
H851 H 0.43439 0.09565 0.05355 0.0
H852 H 0.45213 0.06864 0.03036 0.0
H853 H 0.40863 0.08704 0.09203 0.0
H854 H 0.48553 0.13616 0.06923 0.0
H855 H 0.53051 0.14615 0.06628 0.0
H856 H 0.53653 0.14439 0.13871 0.0
H857 H 0.49159 0.13416 0.14207 0.0
C858 C 0.37605 0.17801 0.13501 0.0
C859 C 0.38191 0.18445 0.15756 0.0
C860 C 0.38905 0.16347 0.12341 0.0
C861 C 0.4079 0.15468 0.1342 0.0
C862 C 0.41441 0.16171 0.15641 0.0
C863 C 0.40156 0.17647 0.16798 0.0
C864 C 0.42024 0.13764 0.12246 0.0
C865 C 0.44586 0.14242 0.1205 0.0
C866 C 0.40672 0.11715 0.11244 0.0
C867 C 0.37988 0.10995 0.1156 0.0
C868 C 0.3697 0.10746 0.13748 0.0
C869 C 0.34441 0.10085 0.14036 0.0
C870 C 0.3291 0.0965 0.1215 0.0
C871 C 0.33906 0.09871 0.09971 0.0
C872 C 0.36435 0.10534 0.09673 0.0
C873 C 0.4846 0.06527 0.07891 0.0
C874 C 0.47677 0.06057 0.05646 0.0
C875 C 0.47429 0.08072 0.0922 0.0
C876 C 0.45613 0.09186 0.08321 0.0
C877 C 0.44837 0.08723 0.06082 0.0
C878 C 0.45858 0.07178 0.04758 0.0
C879 C 0.44453 0.10784 0.09717 0.0
C880 C 0.41901 0.10274 0.0997 0.0
C881 C 0.4582 0.12779 0.10795 0.0
C882 C 0.48521 0.13418 0.10589 0.0
C883 C 0.49645 0.13776 0.08451 0.0
C884 C 0.52195 0.14351 0.08277 0.0
C885 C 0.53638 0.14587 0.10229 0.0
C886 C 0.52534 0.14256 0.1236 0.0
C887 C 0.49986 0.13682 0.12543 0.0
H888 H 0.55611 0.1503 0.10092 0.0
H889 H 0.30952 0.09138 0.12376 0.0
H890 H 0.10233 0.83681 0.67984 0.0
H891 H 0.08045 0.86286 0.65911 0.0
H892 H 0.12848 0.86205 0.60192 0.0
H893 H 0.151 0.83675 0.62283 0.0
H894 H 0.12449 0.90557 0.61235 0.0
H895 H 0.06868 0.83267 0.60126 0.0
H896 H 0.04185 0.79593 0.61314 0.0
H897 H 0.99768 0.83474 0.65151 0.0
H898 H 0.02447 0.87172 0.64011 0.0
H899 H 0.06325 0.95674 0.52817 0.0
H900 H 0.08017 0.92864 0.55076 0.0
H901 H 0.03204 0.9374 0.60596 0.0
H902 H 0.01466 0.9656 0.58329 0.0
H903 H 0.03493 0.89088 0.59869 0.0
H904 H 0.09006 0.96376 0.60889 0.0
H905 H 0.11667 1.00049 0.5967 0.0
H906 H 0.16214 0.96159 0.56006 0.0
H907 H 0.13558 0.92461 0.57175 0.0
C908 C 0.10821 0.84215 0.66284 0.0
C909 C 0.12847 0.83474 0.65302 0.0
C910 C 0.09553 0.85687 0.65093 0.0
C911 C 0.10274 0.86431 0.62891 0.0
C912 C 0.12259 0.85651 0.61889 0.0
C913 C 0.1353 0.84185 0.63079 0.0
C914 C 0.09049 0.88119 0.61672 0.0
C915 C 0.10495 0.90219 0.60912 0.0
C916 C 0.06488 0.87715 0.61318 0.0
C917 C 0.04874 0.85494 0.62002 0.0
C918 C 0.05337 0.83336 0.61239 0.0
C919 C 0.03814 0.8125 0.619 0.0
C920 C 0.01811 0.813 0.63312 0.0
C921 C 0.01323 0.83438 0.6406 0.0
C922 C 0.02841 0.85529 0.63406 0.0
C923 C 0.05616 0.95276 0.5451 0.0
C924 C 0.03771 0.96362 0.55399 0.0
C925 C 0.06592 0.93668 0.558 0.0
C926 C 0.05759 0.93119 0.58012 0.0
C927 C 0.03877 0.94149 0.58893 0.0
C928 C 0.02894 0.95766 0.57599 0.0
C929 C 0.06903 0.91497 0.59403 0.0
C930 C 0.05445 0.89422 0.60202 0.0
C931 C 0.09456 0.9192 0.59797 0.0
C932 C 0.1107 0.94141 0.59105 0.0
C933 C 0.10563 0.96304 0.5981 0.0
C934 C 0.12072 0.98391 0.5913 0.0
C935 C 0.14105 0.98338 0.57758 0.0
C936 C 0.14637 0.96197 0.57067 0.0
C937 C 0.13132 0.94105 0.5774 0.0
H938 H 0.15271 0.99955 0.57233 0.0
H939 H 1.00634 0.79683 0.63822 0.0
H940 H 0.78067 0.42578 0.86238 0.0
H941 H 0.81798 0.44542 0.88154 0.0
H942 H 0.78636 0.42164 0.9461 0.0
H943 H 0.74879 0.40304 0.92725 0.0
H944 H 0.81151 0.46375 0.95104 0.0
H945 H 0.82761 0.39328 0.91662 0.0
H946 H 0.83032 0.36607 0.88523 0.0
H947 H 0.88217 0.41892 0.85119 0.0
H948 H 0.87952 0.44655 0.88226 0.0
H949 H 0.92148 0.46954 1.01607 0.0
H950 H 0.88308 0.45526 0.99573 0.0
H951 H 0.91484 0.48847 0.93456 0.0
H952 H 0.95299 0.50286 0.95463 0.0
H953 H 0.89022 0.44332 0.92709 0.0
H954 H 0.87636 0.51266 0.96382 0.0
H955 H 0.87501 0.53843 0.99658 0.0
H956 H 0.81903 0.48681 0.02722 0.0
H957 H 0.8206 0.46038 0.99493 0.0
C958 C 0.78148 0.4251 0.88068 0.0
C959 C 0.76176 0.41245 0.89318 0.0
C960 C 0.80298 0.43614 0.89164 0.0
C961 C 0.80535 0.43462 0.91532 0.0
C962 C 0.78522 0.42297 0.92785 0.0
C963 C 0.76376 0.41209 0.91696 0.0
C964 C 0.82891 0.4443 0.92711 0.0
C965 C 0.82865 0.45907 0.94589 0.0
C966 C 0.85152 0.43864 0.92031 0.0
C967 C 0.85315 0.42205 0.90163 0.0
C968 C 0.83944 0.39915 0.90236 0.0
C969 C 0.84099 0.38364 0.88464 0.0
C970 C 0.85635 0.39078 0.8662 0.0
C971 C 0.87024 0.41343 0.86547 0.0
C972 C 0.86873 0.42901 0.88313 0.0
C973 C 0.92028 0.47381 0.9983 0.0
C974 C 0.94036 0.48744 0.98707 0.0
C975 C 0.89829 0.46569 0.9867 0.0
C976 C 0.896 0.47087 0.9636 0.0
C977 C 0.91612 0.48421 0.95233 0.0
C978 C 0.93793 0.49253 0.96393 0.0
C979 C 0.8727 0.46249 0.95107 0.0
C980 C 0.87306 0.44803 0.93216 0.0
C981 C 0.8502 0.46832 0.95785 0.0
C982 C 0.84882 0.4844 0.97706 0.0
C983 C 0.86396 0.50667 0.97765 0.0
C984 C 0.86318 0.52139 0.99616 0.0
C985 C 0.84699 0.51423 1.01401 0.0
C986 C 0.83158 0.49232 1.01339 0.0
C987 C 0.83245 0.47743 0.99501 0.0
H988 H 0.84634 0.5257 0.02828 0.0
H989 H 0.85753 0.37875 0.8525 0.0
H990 H 0.73046 0.58657 0.35333 0.0
H991 H 0.69471 0.56895 0.37542 0.0
H992 H 0.72749 0.6037 0.43533 0.0
H993 H 0.76415 0.61963 0.4139 0.0
H994 H 0.70547 0.56451 0.44816 0.0
H995 H 0.68003 0.6227 0.40156 0.0
H996 H 0.67337 0.64327 0.36622 0.0
H997 H 0.62659 0.58128 0.34141 0.0
H998 H 0.63322 0.56025 0.37651 0.0
H999 H 0.58553 0.56993 0.50056 0.0
H1000 H 0.62328 0.58234 0.47866 0.0
H1001 H 0.61254 0.51494 0.44646 0.0
H1002 H 0.57524 0.50207 0.46882 0.0
H1003 H 0.62258 0.569 0.4199 0.0
H1004 H 0.65056 0.51217 0.47102 0.0
H1005 H 0.65598 0.49718 0.5094 0.0
H1006 H 0.69778 0.56398 0.52852 0.0
H1007 H 0.69197 0.57957 0.49043 0.0
C1008 C 0.73039 0.59021 0.37127 0.0
C1009 C 0.75045 0.60491 0.38156 0.0
C1010 C 0.70959 0.58035 0.38391 0.0
C1011 C 0.70786 0.58534 0.4071 0.0
C1012 C 0.72804 0.59958 0.4175 0.0
C1013 C 0.74902 0.60905 0.405 0.0
C1014 C 0.68516 0.57594 0.42054 0.0
C1015 C 0.68743 0.56565 0.44187 0.0
C1016 C 0.66133 0.57727 0.41268 0.0
C1017 C 0.65734 0.58983 0.39155 0.0
C1018 C 0.66847 0.61341 0.3885 0.0
C1019 C 0.66468 0.62516 0.36852 0.0
C1020 C 0.64963 0.61357 0.35156 0.0
C1021 C 0.63828 0.59022 0.35455 0.0
C1022 C 0.64203 0.57838 0.37449 0.0
C1023 C 0.59132 0.55764 0.489 0.0
C1024 C 0.57738 0.53495 0.48657 0.0
C1025 C 0.61289 0.56478 0.47649 0.0
C1026 C 0.62078 0.54954 0.461 0.0
C1027 C 0.60689 0.52693 0.45844 0.0
C1028 C 0.58561 0.51959 0.4713 0.0
C1029 C 0.64313 0.55752 0.44707 0.0
C1030 C 0.64071 0.56769 0.42584 0.0
C1031 C 0.6668 0.55663 0.45523 0.0
C1032 C 0.67053 0.54712 0.47798 0.0
C1033 C 0.66062 0.52375 0.48349 0.0
C1034 C 0.66383 0.51512 0.50517 0.0
C1035 C 0.67719 0.52962 0.52139 0.0
C1036 C 0.6874 0.55278 0.51596 0.0
C1037 C 0.68413 0.56152 0.49434 0.0
H1038 H 0.67968 0.52289 0.53815 0.0
H1039 H 0.64671 0.62269 0.33611 0.0
H1040 H 0.24121 0.30626 0.10649 0.0
H1041 H 0.21073 0.32677 0.09023 0.0
H1042 H 0.22365 0.37722 0.14429 0.0
H1043 H 0.25413 0.35682 0.16059 0.0
H1044 H 0.17612 0.35761 0.14079 0.0
H1045 H 0.24005 0.39268 0.08984 0.0
H1046 H 0.27281 0.39295 0.0617 0.0
H1047 H 0.22131 0.35318 1.01588 0.0
H1048 H 0.18828 0.35239 0.04388 0.0
H1049 H 0.09631 0.43027 0.10408 0.0
H1050 H 0.13334 0.41599 0.11456 0.0
H1051 H 0.12203 0.36753 0.05873 0.0
H1052 H 0.08513 0.38212 0.04793 0.0
H1053 H 0.16934 0.38666 0.06246 0.0
H1054 H 0.1063 0.34939 0.11289 0.0
H1055 H 0.07287 0.34754 0.14063 0.0
H1056 H 0.1221 0.3892 0.18703 0.0
H1057 H 0.15577 0.39157 0.15943 0.0
C1058 C 0.23805 0.32211 0.11453 0.0
C1059 C 0.2499 0.32985 0.1349 0.0
C1060 C 0.2206 0.33379 0.10525 0.0
C1061 C 0.2149 0.3535 0.11608 0.0
C1062 C 0.22769 0.36197 0.13573 0.0
C1063 C 0.24506 0.3503 0.14503 0.0
C1064 C 0.19395 0.36385 0.10836 0.0
C1065 C 0.17487 0.36435 0.12377 0.0
C1066 C 0.1919 0.37182 0.08592 0.0
C1067 C 0.21173 0.37229 0.06906 0.0
C1068 C 0.23574 0.38382 0.07385 0.0
C1069 C 0.25436 0.3841 0.0579 0.0
C1070 C 0.24916 0.37304 0.03704 0.0
C1071 C 0.22532 0.36172 0.03206 0.0
C1072 C 0.20664 0.36137 0.04795 0.0
C1073 C 0.10165 0.41647 0.09414 0.0
C1074 C 0.0877 0.40704 0.07539 0.0
C1075 C 0.12283 0.40836 0.1001 0.0
C1076 C 0.13023 0.39041 0.08765 0.0
C1077 C 0.11665 0.38137 0.06858 0.0
C1078 C 0.09557 0.38966 0.06246 0.0
C1079 C 0.1517 0.38062 0.09498 0.0
C1080 C 0.17074 0.38007 0.07951 0.0
C1081 C 0.15367 0.37233 0.11732 0.0
C1082 C 0.13349 0.37084 0.13401 0.0
C1083 C 0.10995 0.35829 0.12894 0.0
C1084 C 0.09097 0.35713 0.14465 0.0
C1085 C 0.09534 0.36829 0.16556 0.0
C1086 C 0.11873 0.38059 0.17082 0.0
C1087 C 0.13778 0.38183 0.15516 0.0
H1088 H 0.08062 0.36737 0.17769 0.0
H1089 H 0.2636 0.37328 0.02471 0.0
H1090 H 0.60372 0.25921 0.90776 0.0
H1091 H 0.5894 0.22257 0.92785 0.0
H1092 H 0.56894 0.18782 0.86453 0.0
H1093 H 0.58389 0.22447 0.84406 0.0
H1094 H 0.53364 0.17494 0.89837 0.0
H1095 H 0.62032 0.18025 0.89001 0.0
H1096 H 0.6637 0.19934 0.89289 0.0
H1097 H 0.65665 0.20401 0.96503 0.0
H1098 H 0.61311 0.18525 0.96255 0.0
H1099 H 0.51651 0.05965 0.94432 0.0
H1100 H 0.52977 0.09504 0.92174 0.0
H1101 H 0.56178 0.13133 0.98121 0.0
H1102 H 0.54921 0.0958 1.00372 0.0
H1103 H 0.59148 0.1429 0.94775 0.0
H1104 H 0.50542 0.1395 0.95704 0.0
H1105 H 0.46157 0.12178 0.95528 0.0
H1106 H 0.46661 0.11493 0.88316 0.0
H1107 H 0.5106 0.13233 0.88453 0.0
C1108 C 0.59643 0.2438 0.89795 0.0
C1109 C 0.5954 0.24493 0.87412 0.0
C1110 C 0.5881 0.22279 0.90956 0.0
C1111 C 0.57838 0.20224 0.89776 0.0
C1112 C 0.57642 0.20339 0.87405 0.0
C1113 C 0.58492 0.22444 0.86236 0.0
C1114 C 0.57077 0.17961 0.91025 0.0
C1115 C 0.54637 0.16773 0.90889 0.0
C1116 C 0.58715 0.17043 0.9245 0.0
C1117 C 0.61339 0.18153 0.92606 0.0
C1118 C 0.62797 0.1855 0.90647 0.0
C1119 C 0.6526 0.19624 0.90803 0.0
C1120 C 0.66291 0.20293 0.92912 0.0
C1121 C 0.64863 0.19884 0.9487 0.0
C1122 C 0.62398 0.18814 0.94723 0.0
C1123 C 0.52638 0.07515 0.95263 0.0
C1124 C 0.53169 0.07477 0.97592 0.0
C1125 C 0.53386 0.09551 0.93968 0.0
C1126 C 0.54651 0.11619 0.94972 0.0
C1127 C 0.55205 0.11574 0.97294 0.0
C1128 C 0.54477 0.09534 0.98585 0.0
C1129 C 0.55421 0.13818 0.93609 0.0
C1130 C 0.57868 0.14999 0.93721 0.0
C1131 C 0.53781 0.14741 0.92181 0.0
C1132 C 0.51136 0.13699 0.92092 0.0
C1133 C 0.49722 0.13405 0.94082 0.0
C1134 C 0.47233 0.12409 0.93989 0.0
C1135 C 0.46133 0.11717 0.91913 0.0
C1136 C 0.47517 0.12026 0.89924 0.0
C1137 C 0.50008 0.13019 0.90008 0.0
H1138 H 0.44206 0.10946 0.91844 0.0
H1139 H 0.68198 0.21125 0.9303 0.0
H1140 H 0.87464 0.79048 0.39057 0.0
H1141 H 0.89318 0.82706 0.40811 0.0
H1142 H 0.96461 0.81671 0.38731 0.0
H1143 H 0.9461 0.77873 0.37101 0.0
H1144 H 0.96877 0.83302 0.42771 0.0
H1145 H 0.93304 0.85886 0.36183 0.0
H1146 H 0.90121 0.86114 0.33333 0.0
H1147 H 0.85641 0.88458 0.38422 0.0
H1148 H 0.88782 0.88212 0.4131 0.0
H1149 H 0.01807 0.95459 0.45517 0.0
H1150 H 1.00396 0.91889 0.43314 0.0
H1151 H 0.93497 0.90789 0.46843 0.0
H1152 H 0.94916 0.94315 0.49096 0.0
H1153 H 0.93293 0.90415 0.4179 0.0
H1154 H 0.97036 0.87566 0.4838 0.0
H1155 H 1.00446 0.87507 0.51031 0.0
H1156 H 0.0492 0.85888 0.45562 0.0
H1157 H 0.01547 0.85975 0.42871 0.0
C1158 C 0.89435 0.79569 0.38982 0.0
C1159 C 0.90878 0.78119 0.37952 0.0
C1160 C 0.90498 0.81704 0.39961 0.0
C1161 C 0.9304 0.82516 0.39887 0.0
C1162 C 0.94494 0.81103 0.38816 0.0
C1163 C 0.93428 0.78935 0.37858 0.0
C1164 C 0.94152 0.84795 0.40996 0.0
C1165 C 0.96114 0.84863 0.42515 0.0
C1166 C 0.93168 0.86856 0.40699 0.0
C1167 C 0.91273 0.87013 0.38967 0.0
C1168 C 0.91633 0.86435 0.36698 0.0
C1169 C 0.89837 0.86569 0.35075 0.0
C1170 C 0.87678 0.87296 0.35697 0.0
C1171 C 0.87313 0.87894 0.37943 0.0
C1172 C 0.89103 0.87761 0.39573 0.0
C1173 C 0.99988 0.9446 0.45824 0.0
C1174 C 0.98477 0.95179 0.47488 0.0
C1175 C 0.99186 0.92414 0.44566 0.0
C1176 C 0.96839 0.91065 0.4491 0.0
C1177 C 0.95314 0.91799 0.46544 0.0
C1178 C 0.96133 0.93813 0.47837 0.0
C1179 C 0.95968 0.88889 0.43575 0.0
C1180 C 0.94058 0.8885 0.42018 0.0
C1181 C 0.9703 0.86877 0.43801 0.0
C1182 C 0.9905 0.86805 0.4542 0.0
C1183 C 0.98755 0.8722 0.47739 0.0
C1184 C 1.00679 0.87177 0.4925 0.0
C1185 C 0.02901 0.86701 0.48464 0.0
C1186 C 0.032 0.86261 0.46167 0.0
C1187 C 0.01282 0.86306 0.44649 0.0
H1188 H 0.04388 0.86669 0.49636 0.0
H1189 H 0.8629 0.87398 0.34438 0.0
H1190 H 0.26156 0.66564 0.66217 0.0
H1191 H 0.29354 0.64709 0.6461 0.0
H1192 H 0.29894 0.69319 0.58831 0.0
H1193 H 0.26718 0.71213 0.60445 0.0
H1194 H 0.30467 0.64607 0.57797 0.0
H1195 H 0.33588 0.70944 0.62887 0.0
H1196 H 0.33684 0.73062 0.66503 0.0
H1197 H 0.35373 0.67122 0.70049 0.0
H1198 H 0.3524 0.64951 0.66456 0.0
H1199 H 0.42569 0.63913 0.54403 0.0
H1200 H 0.38856 0.65292 0.55527 0.0
H1201 H 0.3887 0.61709 0.61932 0.0
H1202 H 0.42596 0.60356 0.60829 0.0
H1203 H 0.37935 0.65895 0.62577 0.0
H1204 H 0.3489 0.59537 0.57587 0.0
H1205 H 0.34663 0.57286 0.5404 0.0
H1206 H 0.32767 0.63066 0.50376 0.0
H1207 H 0.33015 0.65365 0.53898 0.0
C1208 C 0.2693 0.6716 0.64588 0.0
C1209 C 0.26213 0.69058 0.63474 0.0
C1210 C 0.28747 0.66093 0.63669 0.0
C1211 C 0.29881 0.66904 0.61622 0.0
C1212 C 0.29037 0.68671 0.60415 0.0
C1213 C 0.27219 0.69747 0.61337 0.0
C1214 C 0.32118 0.66094 0.60884 0.0
C1215 C 0.32112 0.64906 0.58824 0.0
C1216 C 0.34243 0.66455 0.62251 0.0
C1217 C 0.34381 0.67778 0.64406 0.0
C1218 C 0.33964 0.70084 0.64439 0.0
C1219 C 0.34025 0.71294 0.66485 0.0
C1220 C 0.34529 0.70226 0.68505 0.0
C1221 C 0.3498 0.67947 0.68483 0.0
C1222 C 0.34913 0.66725 0.66443 0.0
C1223 C 0.41774 0.63416 0.56048 0.0
C1224 C 0.42873 0.6203 0.5753 0.0
C1225 C 0.39649 0.64198 0.56686 0.0
C1226 C 0.38564 0.63577 0.58802 0.0
C1227 C 0.39674 0.62212 0.60292 0.0
C1228 C 0.41808 0.61447 0.59663 0.0
C1229 C 0.36294 0.64379 0.59488 0.0
C1230 C 0.36296 0.65582 0.61542 0.0
C1231 C 0.34164 0.64015 0.5812 0.0
C1232 C 0.33995 0.62631 0.56003 0.0
C1233 C 0.34442 0.60335 0.56022 0.0
C1234 C 0.34307 0.59049 0.54017 0.0
C1235 C 0.33707 0.60035 0.51983 0.0
C1236 C 0.33234 0.62306 0.51952 0.0
C1237 C 0.33369 0.636 0.53953 0.0
H1238 H 0.33604 0.59037 0.50432 0.0
H1239 H 0.34574 0.71165 0.70087 0.0
H1240 H 0.79525 0.82024 0.75499 0.0
H1241 H 0.82113 0.8408 0.72508 0.0
H1242 H 0.75697 0.84836 0.68702 0.0
H1243 H 0.73081 0.82749 0.71691 0.0
H1244 H 0.79557 0.83574 0.66035 0.0
H1245 H 0.78293 0.89275 0.71565 0.0
H1246 H 0.78242 0.90896 0.75411 0.0
H1247 H 0.85952 0.91041 0.76054 0.0
H1248 H 0.86042 0.89386 0.72222 0.0
H1249 H 0.85302 0.92867 0.58808 0.0
H1250 H 0.82642 0.9025 0.61396 0.0
H1251 H 0.88758 0.90199 0.65872 0.0
H1252 H 0.91421 0.92827 0.63297 0.0
H1253 H 0.84953 0.9105 0.68153 0.0
H1254 H 0.86303 0.85404 0.62667 0.0
H1255 H 0.86422 0.83713 0.58858 0.0
H1256 H 0.78688 0.83384 0.58141 0.0
H1257 H 0.78528 0.85105 0.61937 0.0
C1258 C 0.78662 0.8259 0.74008 0.0
C1259 C 0.761 0.82229 0.73827 0.0
C1260 C 0.80143 0.83776 0.72309 0.0
C1261 C 0.79091 0.84622 0.70398 0.0
C1262 C 0.76537 0.84195 0.70169 0.0
C1263 C 0.7505 0.83021 0.7188 0.0
C1264 C 0.80669 0.86054 0.68704 0.0
C1265 C 0.80716 0.85225 0.66482 0.0
C1266 C 0.82215 0.88176 0.69314 0.0
C1267 C 0.82169 0.89184 0.71615 0.0
C1268 C 0.79974 0.89633 0.72533 0.0
C1269 C 0.79938 0.90562 0.7471 0.0
C1270 C 0.82091 0.91065 0.75978 0.0
C1271 C 0.84285 0.90647 0.75071 0.0
C1272 C 0.8433 0.89716 0.72896 0.0
C1273 C 0.86086 0.92265 0.60325 0.0
C1274 C 0.88567 0.93055 0.60855 0.0
C1275 C 0.84566 0.90769 0.61802 0.0
C1276 C 0.85505 0.90018 0.63821 0.0
C1277 C 0.87994 0.90764 0.64327 0.0
C1278 C 0.89511 0.92268 0.62858 0.0
C1279 C 0.8387 0.88567 0.65473 0.0
C1280 C 0.83802 0.89398 0.67694 0.0
C1281 C 0.82319 0.86442 0.6486 0.0
C1282 C 0.82408 0.85406 0.62578 0.0
C1283 C 0.84631 0.8499 0.6169 0.0
C1284 C 0.84705 0.84022 0.59535 0.0
C1285 C 0.82565 0.83447 0.58256 0.0
C1286 C 0.80345 0.83834 0.59133 0.0
C1287 C 0.80261 0.84803 0.61287 0.0
H1288 H 0.82627 0.82698 0.56588 0.0
H1289 H 0.8206 0.91785 0.77663 0.0
H1290 H 0.7418 0.18414 0.24954 0.0
H1291 H 0.72091 0.16383 0.21707 0.0
H1292 H 0.71632 0.2299 0.18589 0.0
H1293 H 0.73765 0.25055 0.21843 0.0
H1294 H 0.67271 0.19818 0.18388 0.0
H1295 H 0.75618 0.19956 0.16513 0.0
H1296 H 0.79868 0.19481 0.17184 0.0
H1297 H 0.774 0.12144 0.18407 0.0
H1298 H 0.7313 0.12579 0.17777 0.0
H1299 H 0.62392 0.13176 0.08664 0.0
H1300 H 0.65013 0.16103 0.10995 0.0
H1301 H 0.66846 0.10608 0.1519 0.0
H1302 H 0.64329 0.07685 0.12822 0.0
H1303 H 0.70805 0.13815 0.14291 0.0
H1304 H 0.62458 0.13809 0.16721 0.0
H1305 H 0.58185 0.14244 0.16093 0.0
H1306 H 0.60655 0.21316 0.13849 0.0
H1307 H 0.64946 0.20911 0.14431 0.0
C1308 C 0.73676 0.19443 0.23564 0.0
C1309 C 0.74166 0.21899 0.23646 0.0
C1310 C 0.72473 0.18277 0.21711 0.0
C1311 C 0.71739 0.19537 0.19894 0.0
C1312 C 0.72193 0.21988 0.19974 0.0
C1313 C 0.73405 0.23162 0.21833 0.0
C1314 C 0.70454 0.18261 0.17946 0.0
C1315 C 0.68059 0.1854 0.17455 0.0
C1316 C 0.71479 0.1658 0.1675 0.0
C1317 C 0.7405 0.16304 0.17108 0.0
C1318 C 0.75979 0.18243 0.16939 0.0
C1319 C 0.78393 0.17981 0.1731 0.0
C1320 C 0.78903 0.15784 0.1784 0.0
C1321 C 0.77002 0.13844 0.17995 0.0
C1322 C 0.74584 0.14097 0.17628 0.0
C1323 C 0.63377 0.12594 0.10068 0.0
C1324 C 0.63136 0.10199 0.1057 0.0
C1325 C 0.64857 0.14268 0.11407 0.0
C1326 C 0.66103 0.13573 0.1328 0.0
C1327 C 0.65898 0.11184 0.13756 0.0
C1328 C 0.64434 0.09515 0.12416 0.0
C1329 C 0.67592 0.15311 0.14789 0.0
C1330 C 0.7003 0.15123 0.15193 0.0
C1331 C 0.66603 0.17068 0.15907 0.0
C1332 C 0.64022 0.17321 0.15595 0.0
C1333 C 0.6209 0.15452 0.1608 0.0
C1334 C 0.59665 0.15693 0.15733 0.0
C1335 C 0.59149 0.17804 0.14925 0.0
C1336 C 0.61057 0.1968 0.14471 0.0
C1337 C 0.63485 0.19446 0.14809 0.0
H1338 H 0.57272 0.17988 0.14657 0.0
H1339 H 0.80773 0.15585 0.18128 0.0
H1340 H 0.43638 0.62762 0.29137 0.0
H1341 H 0.45293 0.61183 0.32544 0.0
H1342 H 0.38328 0.60696 0.35876 0.0
H1343 H 0.36655 0.62225 0.32466 0.0
H1344 H 0.42588 0.62592 0.38676 0.0
H1345 H 0.39476 0.55969 0.33888 0.0
H1346 H 0.39163 0.53754 0.30316 0.0
H1347 H 0.4686 0.53693 0.30548 0.0
H1348 H 0.47226 0.5594 0.34107 0.0
H1349 H 0.44591 0.55506 0.48093 0.0
H1350 H 0.42933 0.57272 0.44818 0.0
H1351 H 0.48641 0.55475 0.40613 0.0
H1352 H 0.50174 0.53561 0.43842 0.0
H1353 H 0.44991 0.54835 0.38212 0.0
H1354 H 0.48309 0.6142 0.42849 0.0
H1355 H 0.48866 0.63763 0.46346 0.0
H1356 H 0.4124 0.64153 0.46325 0.0
H1357 H 0.40632 0.61788 0.42841 0.0
C1358 C 0.42469 0.62341 0.30604 0.0
C1359 C 0.40011 0.62613 0.30523 0.0
C1360 C 0.43413 0.6143 0.32549 0.0
C1361 C 0.41936 0.60809 0.34473 0.0
C1362 C 0.39508 0.6116 0.34422 0.0
C1363 C 0.38551 0.62026 0.32465 0.0
C1364 C 0.42883 0.59706 0.36501 0.0
C1365 C 0.43096 0.60887 0.38583 0.0
C1366 C 0.43605 0.57507 0.3638 0.0
C1367 C 0.43383 0.56144 0.3425 0.0
C1368 C 0.41106 0.55501 0.33167 0.0
C1369 C 0.40918 0.54237 0.31147 0.0
C1370 C 0.42991 0.53589 0.30202 0.0
C1371 C 0.45256 0.54199 0.3128 0.0
C1372 C 0.45454 0.55467 0.33299 0.0
C1373 C 0.45486 0.55485 0.46466 0.0
C1374 C 0.47515 0.54387 0.46234 0.0
C1375 C 0.44551 0.56521 0.44588 0.0
C1376 C 0.4568 0.56574 0.42443 0.0
C1377 C 0.47713 0.55472 0.42225 0.0
C1378 C 0.48599 0.54377 0.44083 0.0
C1379 C 0.44739 0.57726 0.40418 0.0
C1380 C 0.4451 0.5655 0.38325 0.0
C1381 C 0.44054 0.59955 0.40523 0.0
C1382 C 0.44421 0.61409 0.42596 0.0
C1383 C 0.46749 0.61997 0.43596 0.0
C1384 C 0.47074 0.63329 0.45576 0.0
C1385 C 0.45088 0.64101 0.46561 0.0
C1386 C 0.42776 0.63551 0.45562 0.0
C1387 C 0.4244 0.62218 0.43583 0.0
H1388 H 0.45342 0.65128 0.48095 0.0
H1389 H 0.42842 0.5261 0.28638 0.0
H1390 H 0.11736 0.43158 0.78975 0.0
H1391 H 0.10458 0.45067 0.82326 0.0
H1392 H 0.08221 0.38355 0.8555 0.0
H1393 H 0.09519 0.36433 0.82218 0.0
H1394 H 0.04837 0.40947 0.86234 0.0
H1395 H 0.13582 0.42232 0.87043 0.0
H1396 H 0.17865 0.43565 0.85847 0.0
H1397 H 0.16624 0.50587 0.85166 0.0
H1398 H 0.12322 0.49289 0.8633 0.0
H1399 H 0.03287 0.44775 0.9741 0.0
H1400 H 0.04765 0.43027 0.94062 0.0
H1401 H 0.07079 0.49874 0.91128 0.0
H1402 H 0.05639 0.51647 0.94505 0.0
H1403 H 0.10403 0.47304 0.90233 0.0
H1404 H 0.01711 0.46087 0.89438 0.0
H1405 H 0.97409 0.44805 0.90599 0.0
H1406 H 0.98505 0.37728 0.9118 0.0
H1407 H 0.02826 0.38973 0.90053 0.0
C1408 C 0.11001 0.4208 0.80402 0.0
C1409 C 0.10745 0.39625 0.803 0.0
C1410 C 0.10262 0.43181 0.82328 0.0
C1411 C 0.09255 0.41869 0.84223 0.0
C1412 C 0.0898 0.3942 0.84121 0.0
C1413 C 0.0972 0.38317 0.82198 0.0
C1414 C 0.08468 0.43034 0.86299 0.0
C1415 C 0.06071 0.42315 0.87122 0.0
C1416 C 0.10037 0.44873 0.87443 0.0
C1417 C 0.12624 0.45658 0.86752 0.0
C1418 C 0.14218 0.44057 0.86622 0.0
C1419 C 0.16649 0.44807 0.85953 0.0
C1420 C 0.17515 0.47158 0.85425 0.0
C1421 C 0.15951 0.48766 0.85572 0.0
C1422 C 0.13516 0.48024 0.86238 0.0
C1423 C 0.04117 0.45921 0.96061 0.0
C1424 C 0.04323 0.48363 0.9624 0.0
C1425 C 0.04954 0.4491 0.9413 0.0
C1426 C 0.06 0.46303 0.92298 0.0
C1427 C 0.06274 0.48747 0.92499 0.0
C1428 C 0.05444 0.49763 0.9444 0.0
C1429 C 0.06777 0.45205 0.90178 0.0
C1430 C 0.09169 0.45938 0.89345 0.0
C1431 C 0.052 0.43386 0.89016 0.0
C1432 C 0.02599 0.42627 0.89681 0.0
C1433 C 0.01039 0.4426 0.89829 0.0
C1434 C 0.98597 0.43539 0.90479 0.0
C1435 C 0.97686 0.41187 0.90968 0.0
C1436 C 0.99214 0.3955 0.90803 0.0
C1437 C 0.0166 0.40261 0.90157 0.0
H1438 H 0.95794 0.40633 0.91471 0.0
H1439 H 0.19398 0.47736 0.84907 0.0
H1440 H 0.59729 0.79855 0.90823 0.0
H1441 H 0.57403 0.82528 0.92667 0.0
H1442 H 0.63478 0.88249 0.91665 0.0
H1443 H 0.6578 0.85606 0.89794 0.0
H1444 H 0.61307 0.8779 0.96209 0.0
H1445 H 0.59134 0.87962 0.88224 0.0
H1446 H 0.57496 0.86128 0.84649 0.0
H1447 H 0.5062 0.83481 0.87893 0.0
H1448 H 0.52234 0.85271 0.915 0.0
H1449 H 0.57165 0.98231 0.97798 0.0
H1450 H 0.58879 0.95037 0.96201 0.0
H1451 H 0.5173 0.906 0.96279 0.0
H1452 H 0.49984 0.93812 0.97828 0.0
H1453 H 0.54071 0.89973 0.92473 0.0
H1454 H 0.55883 0.89948 1.00291 0.0
H1455 H 0.57332 0.91591 0.03996 0.0
H1456 H 0.64606 0.93632 1.01335 0.0
H1457 H 0.63192 0.92028 0.97603 0.0
C1458 C 0.60561 0.81683 0.91009 0.0
C1459 C 0.6292 0.82536 0.90162 0.0
C1460 C 0.59235 0.83202 0.92052 0.0
C1461 C 0.60275 0.85579 0.92292 0.0
C1462 C 0.62651 0.86418 0.91493 0.0
C1463 C 0.63954 0.84914 0.90417 0.0
C1464 C 0.58888 0.87224 0.9334 0.0
C1465 C 0.59734 0.88282 0.9539 0.0
C1466 C 0.56784 0.8779 0.92306 0.0
C1467 C 0.55814 0.86724 0.90137 0.0
C1468 C 0.57281 0.86969 0.88181 0.0
C1469 C 0.56356 0.85942 0.86147 0.0
C1470 C 0.53958 0.84682 0.86045 0.0
C1471 C 0.52478 0.84453 0.87975 0.0
C1472 C 0.53398 0.85473 0.90014 0.0
C1473 C 0.55952 0.96582 0.97464 0.0
C1474 C 0.5344 0.96274 0.97949 0.0
C1475 C 0.56937 0.94753 0.96561 0.0
C1476 C 0.5544 0.92567 0.9616 0.0
C1477 C 0.52919 0.9227 0.96582 0.0
C1478 C 0.51926 0.94109 0.97467 0.0
C1479 C 0.56528 0.90596 0.9532 0.0
C1480 C 0.55625 0.89468 0.93313 0.0
C1481 C 0.58554 0.89931 0.96417 0.0
C1482 C 0.59426 0.90883 0.98662 0.0
C1483 C 0.57788 0.90761 1.00492 0.0
C1484 C 0.58604 0.91683 0.02598 0.0
C1485 C 0.61059 0.9272 0.029 0.0
C1486 C 0.62705 0.92829 1.01098 0.0
C1487 C 0.61897 0.91911 0.98987 0.0
H1488 H 0.61688 0.93434 0.04531 0.0
H1489 H 0.53244 0.83889 0.84469 0.0
H1490 H 0.90952 0.21808 0.39627 0.0
H1491 H 0.93381 0.19368 0.41701 0.0
H1492 H 0.87979 0.13231 0.40157 0.0
H1493 H 0.85582 0.15643 0.3806 0.0
H1494 H 0.89591 0.13711 0.44855 0.0
H1495 H 0.92747 0.14068 0.37142 0.0
H1496 H 0.94622 0.16159 0.33754 0.0
H1497 H 0.00882 0.19285 0.37673 0.0
H1498 H 0.99024 0.17237 0.41094 0.0
H1499 H 0.94628 0.03873 0.46953 0.0
H1500 H 0.92781 0.06872 0.45128 0.0
H1501 H 0.99563 0.11829 0.45805 0.0
H1502 H 0.01454 0.08802 0.47573 0.0
H1503 H 0.97559 0.12419 0.41864 0.0
H1504 H 0.94762 0.11885 0.49471 0.0
H1505 H 0.92994 0.0995 0.52971 0.0
H1506 H 0.86219 0.07452 0.4952 0.0
H1507 H 0.87957 0.09343 0.45988 0.0
C1508 C 0.90289 0.19939 0.39743 0.0
C1509 C 0.88096 0.18903 0.38678 0.0
C1510 C 0.91674 0.18553 0.40918 0.0
C1511 C 0.90855 0.16124 0.41071 0.0
C1512 C 0.88636 0.15102 0.40055 0.0
C1513 C 0.87279 0.16476 0.38851 0.0
C1514 C 0.92312 0.14617 0.42254 0.0
C1515 C 0.91328 0.13416 0.44201 0.0
C1516 C 0.94615 0.14304 0.41436 0.0
C1517 C 0.95733 0.15524 0.39378 0.0
C1518 C 0.94512 0.15219 0.37286 0.0
C1519 C 0.95574 0.16392 0.35358 0.0
C1520 C 0.97866 0.1786 0.35499 0.0
C1521 C 0.99105 0.18151 0.37567 0.0
C1522 C 0.98048 0.16985 0.395 0.0
C1523 C 0.95734 0.05597 0.46701 0.0
C1524 C 0.9818 0.06107 0.47424 0.0
C1525 C 0.94671 0.07314 0.45668 0.0
C1526 C 0.96014 0.09594 0.45382 0.0
C1527 C 0.98487 0.10088 0.46024 0.0
C1528 C 0.99564 0.08356 0.47032 0.0
C1529 C 0.94808 0.11454 0.44444 0.0
C1530 C 0.9584 0.1273 0.42546 0.0
C1531 C 0.92564 0.11867 0.45331 0.0
C1532 C 0.91498 0.10744 0.47459 0.0
C1533 C 0.929 0.10911 0.49454 0.0
C1534 C 0.91902 0.09823 0.51444 0.0
C1535 C 0.89497 0.08575 0.51467 0.0
C1536 C 0.88082 0.08419 0.495 0.0
C1537 C 0.89072 0.09501 0.47503 0.0
H1538 H 0.88729 0.07733 0.53009 0.0
H1539 H 0.98686 0.18766 0.34005 0.0
H1540 H 0.264 0.62558 0.11226 0.0
H1541 H 0.22712 0.60503 0.09367 0.0
H1542 H 0.19839 0.57724 0.15789 0.0
H1543 H 0.23495 0.59881 0.17705 0.0
H1544 H 0.19353 0.54422 0.1151 0.0
H1545 H 0.17512 0.61682 0.14434 0.0
H1546 H 0.18414 0.6595 0.1501 0.0
H1547 H 0.18595 0.67046 0.07815 0.0
H1548 H 0.17733 0.62781 0.07198 0.0
H1549 H 0.07212 0.50589 0.07344 0.0
H1550 H 0.10888 0.52058 0.09552 0.0
H1551 H 0.12933 0.57699 0.04752 0.0
H1552 H 0.09154 0.56325 0.02645 0.0
H1553 H 0.13822 0.59452 0.08506 0.0
H1554 H 0.15829 0.52448 0.05387 0.0
H1555 H 0.15194 0.48234 0.04536 0.0
H1556 H 0.14998 0.46643 0.11644 0.0
H1557 H 0.1561 0.50851 0.12538 0.0
C1558 C 0.24986 0.61529 0.12262 0.0
C1559 C 0.25242 0.61439 0.14635 0.0
C1560 C 0.22884 0.60331 0.11184 0.0
C1561 C 0.20994 0.5897 0.12437 0.0
C1562 C 0.21282 0.58761 0.14788 0.0
C1563 C 0.2338 0.59993 0.1588 0.0
C1564 C 0.18662 0.57923 0.11286 0.0
C1565 C 0.18115 0.55507 0.10881 0.0
C1566 C 0.17095 0.5935 0.10402 0.0
C1567 C 0.17581 0.61914 0.10771 0.0
C1568 C 0.17765 0.62833 0.12975 0.0
C1569 C 0.18265 0.65251 0.13309 0.0
C1570 C 0.18568 0.66768 0.1145 0.0
C1571 C 0.18363 0.65869 0.09253 0.0
C1572 C 0.17867 0.63452 0.08911 0.0
C1573 C 0.08461 0.52131 0.06749 0.0
C1574 C 0.07899 0.53336 0.04813 0.0
C1575 C 0.1058 0.52965 0.08009 0.0
C1576 C 0.12244 0.54977 0.07314 0.0
C1577 C 0.11696 0.5615 0.05346 0.0
C1578 C 0.09537 0.55358 0.04128 0.0
C1579 C 0.14491 0.55926 0.08678 0.0
C1580 C 0.15034 0.58339 0.09129 0.0
C1581 C 0.16077 0.54494 0.09559 0.0
C1582 C 0.15744 0.51964 0.09029 0.0
C1583 C 0.15639 0.512 0.06768 0.0
C1584 C 0.15285 0.48812 0.06279 0.0
C1585 C 0.15051 0.47172 0.08035 0.0
C1586 C 0.15179 0.47917 0.10286 0.0
C1587 C 0.15533 0.50303 0.10785 0.0
H1588 H 0.14778 0.45326 0.0765 0.0
H1589 H 0.18955 0.6864 0.11711 0.0
H1590 H 0.28524 0.4345 0.67877 0.0
H1591 H 0.32113 0.45128 0.65612 0.0
H1592 H 0.28574 0.41899 0.59625 0.0
H1593 H 0.24952 0.40278 0.6185 0.0
H1594 H 0.33319 0.41209 0.59992 0.0
H1595 H 0.29091 0.47662 0.60407 0.0
H1596 H 0.27087 0.50553 0.62316 0.0
H1597 H 0.33757 0.53287 0.65842 0.0
H1598 H 0.35792 0.50388 0.63978 0.0
H1599 H 0.42109 0.46947 0.52037 0.0
H1600 H 0.38299 0.4546 0.54084 0.0
H1601 H 0.41177 0.49397 0.59978 0.0
H1602 H 0.44936 0.50942 0.57928 0.0
H1603 H 0.36665 0.49719 0.59584 0.0
H1604 H 0.40881 0.43266 0.59398 0.0
H1605 H 0.42971 0.40356 0.57629 0.0
H1606 H 0.36468 0.37583 0.53875 0.0
H1607 H 0.34348 0.40499 0.55601 0.0
C1608 C 0.28484 0.43122 0.66073 0.0
C1609 C 0.26428 0.41711 0.65063 0.0
C1610 C 0.30551 0.44077 0.64779 0.0
C1611 C 0.30621 0.43646 0.6244 0.0
C1612 C 0.28577 0.42247 0.61425 0.0
C1613 C 0.26505 0.41308 0.62712 0.0
C1614 C 0.32833 0.44621 0.61056 0.0
C1615 C 0.34031 0.43073 0.59878 0.0
C1616 C 0.33808 0.47049 0.60946 0.0
C1617 C 0.32586 0.48791 0.6207 0.0
C1618 C 0.30125 0.48866 0.61605 0.0
C1619 C 0.28984 0.50509 0.62676 0.0
C1620 C 0.30292 0.52099 0.64204 0.0
C1621 C 0.32745 0.52052 0.64661 0.0
C1622 C 0.33893 0.5041 0.63596 0.0
C1623 C 0.41928 0.47503 0.53766 0.0
C1624 C 0.43844 0.49063 0.54812 0.0
C1625 C 0.39748 0.46638 0.54945 0.0
C1626 C 0.39446 0.4728 0.5721 0.0
C1627 C 0.41346 0.48866 0.58238 0.0
C1628 C 0.43508 0.49747 0.57058 0.0
C1629 C 0.37171 0.46306 0.58524 0.0
C1630 C 0.35957 0.47854 0.59691 0.0
C1631 C 0.36198 0.43875 0.58647 0.0
C1632 C 0.37465 0.42117 0.5761 0.0
C1633 C 0.39903 0.42047 0.58183 0.0
C1634 C 0.41092 0.40395 0.5719 0.0
C1635 C 0.39855 0.3879 0.55635 0.0
C1636 C 0.37424 0.3883 0.55076 0.0
C1637 C 0.36228 0.40481 0.56062 0.0
H1638 H 0.40779 0.37512 0.54869 0.0
H1639 H 0.29406 0.5337 0.65031 0.0
H1640 H 0.76721 0.70734 0.9202 0.0
H1641 H 0.79529 0.68805 0.9416 0.0
H1642 H 0.79739 0.64036 0.88625 0.0
H1643 H 0.76847 0.6589 0.86512 0.0
H1644 H 0.80015 0.61877 0.92649 0.0
H1645 H 0.83951 0.69073 0.89024 0.0
H1646 H 0.8457 0.73299 0.88208 0.0
H1647 H 0.85989 0.74818 0.95244 0.0
H1648 H 0.85343 0.70596 0.96106 0.0
H1649 H 0.91927 0.59325 0.9315 0.0
H1650 H 0.88142 0.60637 0.92151 0.0
H1651 H 0.88684 0.64791 0.98227 0.0
H1652 H 0.92492 0.63497 0.99228 0.0
H1653 H 0.87823 0.67242 0.94432 0.0
H1654 H 0.84221 0.60054 0.98017 0.0
H1655 H 0.83559 0.55835 0.98845 0.0
H1656 H 0.8164 0.54295 0.91899 0.0
H1657 H 0.82269 0.58516 0.91034 0.0
C1658 C 0.773 0.69227 0.91285 0.0
C1659 C 0.76588 0.68486 0.8908 0.0
C1660 C 0.78924 0.68141 0.92504 0.0
C1661 C 0.79886 0.66314 0.91529 0.0
C1662 C 0.79035 0.65456 0.89402 0.0
C1663 C 0.77399 0.66531 0.88188 0.0
C1664 C 0.81947 0.6545 0.92611 0.0
C1665 C 0.81725 0.63047 0.93031 0.0
C1666 C 0.84164 0.66984 0.93151 0.0
C1667 C 0.84571 0.69521 0.92633 0.0
C1668 C 0.84378 0.70309 0.90399 0.0
C1669 C 0.84736 0.72703 0.89928 0.0
C1670 C 0.85311 0.74326 0.91674 0.0
C1671 C 0.85538 0.73558 0.93894 0.0
C1672 C 0.85177 0.71166 0.94375 0.0
C1673 C 0.91243 0.60523 0.94269 0.0
C1674 C 0.92509 0.61321 0.96259 0.0
C1675 C 0.89067 0.61249 0.93711 0.0
C1676 C 0.88121 0.62789 0.95129 0.0
C1677 C 0.89379 0.63589 0.97119 0.0
C1678 C 0.91546 0.62847 0.97689 0.0
C1679 C 0.859 0.63668 0.94451 0.0
C1680 C 0.86099 0.66076 0.9409 0.0
C1681 C 0.83671 0.62138 0.9396 0.0
C1682 C 0.8331 0.59599 0.94459 0.0
C1683 C 0.83675 0.58815 0.96663 0.0
C1684 C 0.833 0.56423 0.9714 0.0
C1685 C 0.82574 0.54794 0.95423 0.0
C1686 C 0.82206 0.55558 0.93227 0.0
C1687 C 0.8256 0.57951 0.92745 0.0
H1688 H 0.82285 0.52942 0.95795 0.0
H1689 H 0.85588 0.76179 0.91307 0.0
H1690 H 0.43878 0.80107 0.18488 0.0
H1691 H 0.45411 0.8369 0.1638 0.0
H1692 H 0.41741 0.80624 0.10377 0.0
H1693 H 0.40397 0.76974 0.12405 0.0
H1694 H 0.45685 0.83039 0.09054 0.0
H1695 H 0.39533 0.84822 0.14077 0.0
H1696 H 0.37491 0.85141 0.17737 0.0
H1697 H 0.43856 0.89842 0.20154 0.0
H1698 H 0.45947 0.89528 0.16516 0.0
H1699 H 0.45027 0.93978 0.03474 0.0
H1700 H 0.43773 0.90366 0.05682 0.0
H1701 H 0.4983 0.92508 0.10228 0.0
H1702 H 0.51139 0.96083 0.07994 0.0
H1703 H 0.44756 0.9067 0.12285 0.0
H1704 H 0.50794 0.8882 0.07042 0.0
H1705 H 0.52519 0.88645 0.03218 0.0
H1706 H 0.45912 0.84129 1.01053 0.0
H1707 H 0.44129 0.8431 0.04861 0.0
C1708 C 0.43426 0.80167 0.1671 0.0
C1709 C 0.41969 0.78225 0.15647 0.0
C1710 C 0.44276 0.82249 0.15507 0.0
C1711 C 0.43645 0.82479 0.13218 0.0
C1712 C 0.42247 0.80525 0.1214 0.0
C1713 C 0.4144 0.78432 0.13326 0.0
C1714 C 0.44424 0.8474 0.11943 0.0
C1715 C 0.45449 0.84695 0.09764 0.0
C1716 C 0.44158 0.86937 0.12847 0.0
C1717 C 0.42905 0.87132 0.15033 0.0
C1718 C 0.40502 0.85911 0.15395 0.0
C1719 C 0.39335 0.86093 0.17464 0.0
C1720 C 0.40545 0.87505 0.19179 0.0
C1721 C 0.42922 0.88745 0.18825 0.0
C1722 C 0.44099 0.88568 0.1676 0.0
C1723 C 0.46085 0.93686 0.0495 0.0
C1724 C 0.48186 0.95321 0.05555 0.0
C1725 C 0.45369 0.91619 0.06208 0.0
C1726 C 0.46707 0.91166 0.08123 0.0
C1727 C 0.48768 0.92821 0.08762 0.0
C1728 C 0.49518 0.9486 0.07476 0.0
C1729 C 0.45993 0.88941 0.09425 0.0
C1730 C 0.44984 0.89001 0.11596 0.0
C1731 C 0.46231 0.86759 0.08502 0.0
C1732 C 0.47319 0.86599 0.06229 0.0
C1733 C 0.49701 0.87804 0.05746 0.0
C1734 C 0.50691 0.87702 0.03582 0.0
C1735 C 0.49324 0.86382 1.0189 0.0
C1736 C 0.46967 0.85153 0.02364 0.0
C1737 C 0.45967 0.85254 0.04526 0.0
H1738 H 0.50092 0.86309 1.00214 0.0
H1739 H 0.39639 0.87644 0.2078 0.0
H1740 H 0.14127 0.22751 0.65465 0.0
H1741 H 0.12363 0.19127 0.63532 0.0
H1742 H 0.05283 0.21102 0.63604 0.0
H1743 H 0.07054 0.24756 0.65567 0.0
H1744 H 0.04893 0.16379 0.64341 0.0
H1745 H 0.08824 0.2193 0.58872 0.0
H1746 H 0.12212 0.24813 0.57253 0.0
H1747 H 0.16659 0.19557 0.56874 0.0
H1748 H 0.13309 0.1665 0.58524 0.0
H1749 H 0.99913 0.08235 0.55764 0.0
H1750 H 0.01309 0.11752 0.58003 0.0
H1751 H 0.08709 0.10545 0.5769 0.0
H1752 H 0.07331 0.07054 0.55393 0.0
H1753 H 0.08784 0.14971 0.57048 0.0
H1754 H 0.04914 0.09436 0.62599 0.0
H1755 H 0.01552 0.06547 0.64251 0.0
H1756 H 0.97012 0.11733 0.64487 0.0
H1757 H 1.00338 0.14647 0.62809 0.0
C1758 C 0.12187 0.2241 0.6509 0.0
C1759 C 0.1074 0.24065 0.65648 0.0
C1760 C 0.1118 0.20334 0.63975 0.0
C1761 C 0.08697 0.19853 0.63363 0.0
C1762 C 0.07208 0.21433 0.64037 0.0
C1763 C 0.08219 0.2352 0.65169 0.0
C1764 C 0.07709 0.17756 0.61939 0.0
C1765 C 0.05722 0.16089 0.62731 0.0
C1766 C 0.0881 0.17337 0.59852 0.0
C1767 C 0.10821 0.19077 0.5884 0.0
C1768 C 0.1053 0.21393 0.58458 0.0
C1769 C 0.12443 0.23031 0.57533 0.0
C1770 C 0.14651 0.2237 0.56966 0.0
C1771 C 0.14948 0.20067 0.57317 0.0
C1772 C 0.13042 0.18423 0.58245 0.0
C1773 C 0.01839 0.08708 0.56174 0.0
C1774 C 0.03504 0.0734 0.55398 0.0
C1775 C 0.02636 0.10724 0.57472 0.0
C1776 C 0.05117 0.11415 0.58062 0.0
C1777 C 0.06785 0.10061 0.57272 0.0
C1778 C 0.05992 0.08054 0.55958 0.0
C1779 C 0.05984 0.13567 0.59459 0.0
C1780 C 0.07949 0.15254 0.58657 0.0
C1781 C 0.04863 0.13997 0.61536 0.0
C1782 C 0.02867 0.12253 0.62558 0.0
C1783 C 0.03193 0.09956 0.62989 0.0
C1784 C 0.01295 0.08315 0.63932 0.0
C1785 C 0.99067 0.08954 0.64468 0.0
C1786 C 0.98737 0.11239 0.64068 0.0
C1787 C 1.00629 0.12887 0.63123 0.0
H1788 H 0.976 0.07681 0.65197 0.0
H1789 H 0.1613 0.23641 0.5625 0.0
H1790 H 0.75108 0.31714 0.43869 0.0
H1791 H 0.72113 0.33677 0.45684 0.0
H1792 H 0.7175 0.3776 0.3963 0.0
H1793 H 0.74832 0.35891 0.37846 0.0
H1794 H 0.71241 0.40302 0.43248 0.0
H1795 H 0.67733 0.32596 0.40564 0.0
H1796 H 0.67339 0.28319 0.40273 0.0
H1797 H 0.65937 0.27611 0.47415 0.0
H1798 H 0.66359 0.31892 0.47753 0.0
H1799 H 0.5909 0.42276 0.43342 0.0
H1800 H 0.62893 0.40942 0.4248 0.0
H1801 H 0.6276 0.37756 0.49093 0.0
H1802 H 0.58927 0.39063 0.49959 0.0
H1803 H 0.63698 0.34848 0.45647 0.0
H1804 H 0.66715 0.42696 0.48108 0.0
H1805 H 0.66977 0.46963 0.48169 0.0
H1806 H 0.69119 0.47409 0.41176 0.0
H1807 H 0.68842 0.43134 0.41063 0.0
C1808 C 0.7445 0.33081 0.42948 0.0
C1809 C 0.7518 0.3362 0.40698 0.0
C1810 C 0.72718 0.34185 0.4398 0.0
C1811 C 0.71663 0.35823 0.42772 0.0
C1812 C 0.72522 0.36487 0.40589 0.0
C1813 C 0.74267 0.354 0.39563 0.0
C1814 C 0.6952 0.36691 0.43687 0.0
C1815 C 0.69589 0.39111 0.43765 0.0
C1816 C 0.67373 0.35137 0.4439 0.0
C1817 C 0.67106 0.32564 0.44189 0.0
C1818 C 0.67359 0.31529 0.42075 0.0
C1819 C 0.67129 0.29105 0.41901 0.0
C1820 C 0.66621 0.27695 0.43826 0.0
C1821 C 0.66336 0.28706 0.45927 0.0
C1822 C 0.6657 0.31131 0.46111 0.0
C1823 C 0.59859 0.41274 0.44606 0.0
C1824 C 0.58706 0.40763 0.46714 0.0
C1825 C 0.62045 0.40537 0.44121 0.0
C1826 C 0.63122 0.39277 0.45734 0.0
C1827 C 0.61964 0.3874 0.47832 0.0
C1828 C 0.59782 0.39492 0.48325 0.0
C1829 C 0.65412 0.38455 0.4519 0.0
C1830 C 0.65365 0.36041 0.45169 0.0
C1831 C 0.67561 0.40015 0.44509 0.0
C1832 C 0.6774 0.4259 0.44573 0.0
C1833 C 0.67224 0.437 0.46578 0.0
C1834 C 0.67378 0.46123 0.46622 0.0
C1835 C 0.68059 0.47458 0.44677 0.0
C1836 C 0.68591 0.46373 0.42682 0.0
C1837 C 0.6844 0.4395 0.42628 0.0
H1838 H 0.6818 0.49334 0.44715 0.0
H1839 H 0.66443 0.25818 0.43688 0.0
loop_
_geom_bond_atom_site_label_1
_geom_bond_atom_site_label_2
_geom_bond_distance
_geom_bond_site_symmetry_2
_ccdc_geom_bond_type
C0 C1 1.391 . S
C0 C4 1.391 . S
C0 H42 0.948 . S
C1 C0 1.391 . S
C1 C2 1.391 . S
C2 C1 1.391 . S
C2 H58 0.947 . S
C2 C59 1.392 . S
C3 C4 1.391 . S
C3 C7 1.397 . S
C3 C59 1.419 . S
C4 C0 1.391 . S
C4 C3 1.391 . S
C4 C5 1.399 . S
C5 C4 1.399 . S
C5 C8 1.396 . S
C5 C17 1.453 . S
C5 C18 1.684 . S
H6 C30 0.948 . S
C7 C3 1.397 . S
C7 C8 1.394 . S
C7 C26 1.723 . S
C8 C5 1.396 . S
C8 C7 1.394 . S
C8 C38 1.723 . S
H9 C32 0.947 . S
H10 C33 0.948 . S
H11 C39 0.982 . S
H12 C40 0.979 . S
H13 C40 0.980 . S
H14 C40 0.983 . S
H15 C39 0.979 . S
H16 C39 0.977 . S
C17 C5 1.453 . S
C17 H46 0.982 . S
C17 H47 0.979 . S
C17 H48 0.977 . S
C18 C5 1.684 . S
C18 H43 0.979 . S
C18 H44 0.980 . S
C18 H45 0.983 . S
C19 C20 1.391 . S
C19 C24 1.391 . S
C19 H49 0.948 . S
C20 C19 1.391 . S
C20 C21 1.391 . S
C21 C20 1.391 . S
C21 C22 1.392 . S
C21 H50 0.947 . S
C22 C21 1.392 . S
C22 C23 1.419 . S
C22 H51 0.948 . S
C23 C22 1.419 . S
C23 C24 1.391 . S
C23 C27 1.397 . S
C24 C19 1.391 . S
C24 C23 1.391 . S
C24 C25 1.399 . S
C25 C24 1.399 . S
C25 C26 1.396 . S
C25 C28 1.453 . S
C25 C29 1.684 . S
C26 C7 1.723 . S
C26 C25 1.396 . S
C26 C27 1.394 . S
C27 C23 1.397 . S
C27 C26 1.394 . S
C27 C37 1.723 . S
C28 C25 1.453 . S
C28 H52 0.982 . S
C28 H53 0.979 . S
C28 H54 0.977 . S
C29 C25 1.684 . S
C29 H55 0.979 . S
C29 H56 0.980 . S
C29 H57 0.983 . S
C30 H6 0.948 . S
C30 C31 1.391 . S
C30 C35 1.391 . S
C31 C30 1.391 . S
C31 C32 1.391 . S
C32 H9 0.947 . S
C32 C31 1.391 . S
C32 C33 1.392 . S
C33 H10 0.948 . S
C33 C32 1.392 . S
C33 C34 1.419 . S
C34 C33 1.419 . S
C34 C35 1.391 . S
C34 C38 1.397 . S
C35 C30 1.391 . S
C35 C34 1.391 . S
C35 C36 1.399 . S
C36 C35 1.399 . S
C36 C37 1.396 . S
C36 C39 1.453 . S
C36 C40 1.684 . S
C37 C27 1.723 . S
C37 C36 1.396 . S
C37 C38 1.394 . S
C38 C8 1.723 . S
C38 C34 1.397 . S
C38 C37 1.394 . S
C39 H11 0.982 . S
C39 H15 0.979 . S
C39 H16 0.977 . S
C39 C36 1.453 . S
C40 H12 0.979 . S
C40 H13 0.980 . S
C40 H14 0.983 . S
C40 C36 1.684 . S
H41 C59 0.948 . S
H42 C0 0.948 . S
H43 C18 0.979 . S
H44 C18 0.980 . S
H45 C18 0.983 . S
H46 C17 0.982 . S
H47 C17 0.979 . S
H48 C17 0.977 . S
H49 C19 0.948 . S
H50 C21 0.947 . S
H51 C22 0.948 . S
H52 C28 0.982 . S
H53 C28 0.979 . S
H54 C28 0.977 . S
H55 C29 0.979 . S
H56 C29 0.980 . S
H57 C29 0.983 . S
H58 C2 0.947 . S
C59 C2 1.392 . S
C59 C3 1.419 . S
C59 H41 0.948 . S
C60 C61 1.391 . S
C60 C64 1.391 . S
C60 H102 0.948 . S
C61 C60 1.391 . S
C61 C62 1.391 . S
C62 C61 1.391 . S
C62 H118 0.947 . S
C62 C119 1.392 . S
C63 C64 1.391 . S
C63 C67 1.397 . S
C63 C119 1.419 . S
C64 C60 1.391 . S
C64 C63 1.391 . S
C64 C65 1.399 . S
C65 C64 1.399 . S
C65 C68 1.396 . S
C65 C77 1.453 . S
C65 C78 1.684 . S
H66 C90 0.948 . S
C67 C63 1.397 . S
C67 C68 1.394 . S
C67 C86 1.723 . S
C68 C65 1.396 . S
C68 C67 1.394 . S
C68 C98 1.723 . S
H69 C92 0.947 . S
H70 C93 0.948 . S
H71 C99 0.982 . S
H72 C100 0.979 . S
H73 C100 0.980 . S
H74 C100 0.983 . S
H75 C99 0.979 . S
H76 C99 0.977 . S
C77 C65 1.453 . S
C77 H106 0.982 . S
C77 H107 0.979 . S
C77 H108 0.977 . S
C78 C65 1.684 . S
C78 H103 0.979 . S
C78 H104 0.980 . S
C78 H105 0.983 . S
C79 C80 1.391 . S
C79 C84 1.391 . S
C79 H109 0.948 . S
C80 C79 1.391 . S
C80 C81 1.391 . S
C81 C80 1.391 . S
C81 C82 1.392 . S
C81 H110 0.947 . S
C82 C81 1.392 . S
C82 C83 1.419 . S
C82 H111 0.948 . S
C83 C82 1.419 . S
C83 C84 1.391 . S
C83 C87 1.397 . S
C84 C79 1.391 . S
C84 C83 1.391 . S
C84 C85 1.399 . S
C85 C84 1.399 . S
C85 C86 1.396 . S
C85 C88 1.453 . S
C85 C89 1.684 . S
C86 C67 1.723 . S
C86 C85 1.396 . S
C86 C87 1.394 . S
C87 C83 1.397 . S
C87 C86 1.394 . S
C87 C97 1.723 . S
C88 C85 1.453 . S
C88 H112 0.982 . S
C88 H113 0.979 . S
C88 H114 0.977 . S
C89 C85 1.684 . S
C89 H115 0.979 . S
C89 H116 0.980 . S
C89 H117 0.983 . S
C90 H66 0.948 . S
C90 C91 1.391 . S
C90 C95 1.391 . S
C91 C90 1.391 . S
C91 C92 1.391 . S
C92 H69 0.947 . S
C92 C91 1.391 . S
C92 C93 1.392 . S
C93 H70 0.948 . S
C93 C92 1.392 . S
C93 C94 1.419 . S
C94 C93 1.419 . S
C94 C95 1.391 . S
C94 C98 1.397 . S
C95 C90 1.391 . S
C95 C94 1.391 . S
C95 C96 1.399 . S
C96 C95 1.399 . S
C96 C97 1.396 . S
C96 C99 1.453 . S
C96 C100 1.684 . S
C97 C87 1.723 . S
C97 C96 1.396 . S
C97 C98 1.394 . S
C98 C68 1.723 . S
C98 C94 1.397 . S
C98 C97 1.394 . S
C99 H71 0.982 . S
C99 H75 0.979 . S
C99 H76 0.977 . S
C99 C96 1.453 . S
C100 H72 0.979 . S
C100 H73 0.980 . S
C100 H74 0.983 . S
C100 C96 1.684 . S
H101 C119 0.948 . S
H102 C60 0.948 . S
H103 C78 0.979 . S
H104 C78 0.980 . S
H105 C78 0.983 . S
H106 C77 0.982 . S
H107 C77 0.979 . S
H108 C77 0.977 . S
H109 C79 0.948 . S
H110 C81 0.947 . S
H111 C82 0.948 . S
H112 C88 0.982 . S
H113 C88 0.979 . S
H114 C88 0.977 . S
H115 C89 0.979 . S
H116 C89 0.980 . S
H117 C89 0.983 . S
H118 C62 0.947 . S
C119 C62 1.392 . S
C119 C63 1.419 . S
C119 H101 0.948 . S
C120 C121 1.391 . S
C120 C124 1.391 . S
C120 H162 0.948 . S
C121 C120 1.391 . S
C121 C122 1.391 . S
C122 C121 1.391 . S
C122 H178 0.947 . S
C122 C179 1.392 . S
C123 C124 1.391 . S
C123 C127 1.397 . S
C123 C179 1.419 . S
C124 C120 1.391 . S
C124 C123 1.391 . S
C124 C125 1.399 . S
C125 C124 1.399 . S
C125 C128 1.396 . S
C125 C137 1.453 . S
C125 C138 1.684 . S
H126 C150 0.948 . S
C127 C123 1.397 . S
C127 C128 1.394 . S
C127 C146 1.723 . S
C128 C125 1.396 . S
C128 C127 1.394 . S
C128 C158 1.723 . S
H129 C152 0.947 . S
H130 C153 0.948 . S
H131 C159 0.982 . S
H132 C160 0.979 . S
H133 C160 0.980 . S
H134 C160 0.983 . S
H135 C159 0.979 . S
H136 C159 0.977 . S
C137 C125 1.453 . S
C137 H166 0.982 . S
C137 H167 0.979 . S
C137 H168 0.977 . S
C138 C125 1.684 . S
C138 H163 0.979 . S
C138 H164 0.980 . S
C138 H165 0.983 . S
C139 C140 1.391 . S
C139 C144 1.391 . S
C139 H169 0.948 . S
C140 C139 1.391 . S
C140 C141 1.391 . S
C141 C140 1.391 . S
C141 C142 1.392 . S
C141 H170 0.947 . S
C142 C141 1.392 . S
C142 C143 1.419 . S
C142 H171 0.948 . S
C143 C142 1.419 . S
C143 C144 1.391 . S
C143 C147 1.397 . S
C144 C139 1.391 . S
C144 C143 1.391 . S
C144 C145 1.399 . S
C145 C144 1.399 . S
C145 C146 1.396 . S
C145 C148 1.453 . S
C145 C149 1.684 . S
C146 C127 1.723 . S
C146 C145 1.396 . S
C146 C147 1.394 . S
C147 C143 1.397 . S
C147 C146 1.394 . S
C147 C157 1.723 . S
C148 C145 1.453 . S
C148 H172 0.982 . S
C148 H173 0.979 . S
C148 H174 0.977 . S
C149 C145 1.684 . S
C149 H175 0.979 . S
C149 H176 0.980 . S
C149 H177 0.983 . S
C150 H126 0.948 . S
C150 C151 1.391 . S
C150 C155 1.391 . S
C151 C150 1.391 . S
C151 C152 1.391 . S
C152 H129 0.947 . S
C152 C151 1.391 . S
C152 C153 1.392 . S
C153 H130 0.948 . S
C153 C152 1.392 . S
C153 C154 1.419 . S
C154 C153 1.419 . S
C154 C155 1.391 . S
C154 C158 1.397 . S
C155 C150 1.391 . S
C155 C154 1.391 . S
C155 C156 1.399 . S
C156 C155 1.399 . S
C156 C157 1.396 . S
C156 C159 1.453 . S
C156 C160 1.684 . S
C157 C147 1.723 . S
C157 C156 1.396 . S
C157 C158 1.394 . S
C158 C128 1.723 . S
C158 C154 1.397 . S
C158 C157 1.394 . S
C159 H131 0.982 . S
C159 H135 0.979 . S
C159 H136 0.977 . S
C159 C156 1.453 . S
C160 H132 0.979 . S
C160 H133 0.980 . S
C160 H134 0.983 . S
C160 C156 1.684 . S
H161 C179 0.948 . S
H162 C120 0.948 . S
H163 C138 0.979 . S
H164 C138 0.980 . S
H165 C138 0.983 . S
H166 C137 0.982 . S
H167 C137 0.979 . S
H168 C137 0.977 . S
H169 C139 0.948 . S
H170 C141 0.947 . S
H171 C142 0.948 . S
H172 C148 0.982 . S
H173 C148 0.979 . S
H174 C148 0.977 . S
H175 C149 0.979 . S
H176 C149 0.980 . S
H177 C149 0.983 . S
H178 C122 0.947 . S
C179 C122 1.392 . S
C179 C123 1.419 . S
C179 H161 0.948 . S
C180 C181 1.391 . S
C180 C184 1.391 . S
C180 H222 0.948 . S
C181 C180 1.391 . S
C181 C182 1.391 . S
C182 C181 1.391 . S
C182 H238 0.947 . S
C182 C239 1.392 . S
C183 C184 1.391 . S
C183 C187 1.397 . S
C183 C239 1.419 . S
C184 C180 1.391 . S
C184 C183 1.391 . S
C184 C185 1.399 . S
C185 C184 1.399 . S
C185 C188 1.396 . S
C185 C197 1.453 . S
C185 C198 1.684 . S
H186 C210 0.948 . S
C187 C183 1.397 . S
C187 C188 1.394 . S
C187 C206 1.723 . S
C188 C185 1.396 . S
C188 C187 1.394 . S
C188 C218 1.723 . S
H189 C212 0.947 . S
H190 C213 0.948 . S
H191 C219 0.982 . S
H192 C220 0.979 . S
H193 C220 0.980 . S
H194 C220 0.983 . S
H195 C219 0.979 . S
H196 C219 0.977 . S
C197 C185 1.453 . S
C197 H226 0.982 . S
C197 H227 0.979 . S
C197 H228 0.977 . S
C198 C185 1.684 . S
C198 H223 0.979 . S
C198 H224 0.980 . S
C198 H225 0.983 . S
C199 C200 1.391 . S
C199 C204 1.391 . S
C199 H229 0.948 . S
C200 C199 1.391 . S
C200 C201 1.391 . S
C201 C200 1.391 . S
C201 C202 1.392 . S
C201 H230 0.947 . S
C202 C201 1.392 . S
C202 C203 1.419 . S
C202 H231 0.948 . S
C203 C202 1.419 . S
C203 C204 1.391 . S
C203 C207 1.397 . S
C204 C199 1.391 . S
C204 C203 1.391 . S
C204 C205 1.399 . S
C205 C204 1.399 . S
C205 C206 1.396 . S
C205 C208 1.453 . S
C205 C209 1.684 . S
C206 C187 1.723 . S
C206 C205 1.396 . S
C206 C207 1.394 . S
C207 C203 1.397 . S
C207 C206 1.394 . S
C207 C217 1.723 . S
C208 C205 1.453 . S
C208 H232 0.982 . S
C208 H233 0.979 . S
C208 H234 0.977 . S
C209 C205 1.684 . S
C209 H235 0.979 . S
C209 H236 0.980 . S
C209 H237 0.983 . S
C210 H186 0.948 . S
C210 C211 1.391 . S
C210 C215 1.391 . S
C211 C210 1.391 . S
C211 C212 1.391 . S
C212 H189 0.947 . S
C212 C211 1.391 . S
C212 C213 1.392 . S
C213 H190 0.948 . S
C213 C212 1.392 . S
C213 C214 1.419 . S
C214 C213 1.419 . S
C214 C215 1.391 . S
C214 C218 1.397 . S
C215 C210 1.391 . S
C215 C214 1.391 . S
C215 C216 1.399 . S
C216 C215 1.399 . S
C216 C217 1.396 . S
C216 C219 1.453 . S
C216 C220 1.684 . S
C217 C207 1.723 . S
C217 C216 1.396 . S
C217 C218 1.394 . S
C218 C188 1.723 . S
C218 C214 1.397 . S
C218 C217 1.394 . S
C219 H191 0.982 . S
C219 H195 0.979 . S
C219 H196 0.977 . S
C219 C216 1.453 . S
C220 H192 0.979 . S
C220 H193 0.980 . S
C220 H194 0.983 . S
C220 C216 1.684 . S
H221 C239 0.948 . S
H222 C180 0.948 . S
H223 C198 0.979 . S
H224 C198 0.980 . S
H225 C198 0.983 . S
H226 C197 0.982 . S
H227 C197 0.979 . S
H228 C197 0.977 . S
H229 C199 0.948 . S
H230 C201 0.947 . S
H231 C202 0.948 . S
H232 C208 0.982 . S
H233 C208 0.979 . S
H234 C208 0.977 . S
H235 C209 0.979 . S
H236 C209 0.980 . S
H237 C209 0.983 . S
H238 C182 0.947 . S
C239 C182 1.392 . S
C239 C183 1.419 . S
C239 H221 0.948 . S
C240 C241 1.391 . S
C240 C244 1.391 . S
C240 H282 0.948 . S
C241 C240 1.391 . S
C241 C242 1.391 . S
C242 C241 1.391 . S
C242 H298 0.947 . S
C242 C299 1.392 . S
C243 C244 1.391 . S
C243 C247 1.397 . S
C243 C299 1.419 . S
C244 C240 1.391 . S
C244 C243 1.391 . S
C244 C245 1.399 . S
C245 C244 1.399 . S
C245 C248 1.396 . S
C245 C257 1.453 . S
C245 C258 1.684 . S
H246 C270 0.948 . S
C247 C243 1.397 . S
C247 C248 1.394 . S
C247 C266 1.723 . S
C248 C245 1.396 . S
C248 C247 1.394 . S
C248 C278 1.723 . S
H249 C272 0.947 . S
H250 C273 0.948 . S
H251 C279 0.982 . S
H252 C280 0.979 . S
H253 C280 0.980 . S
H254 C280 0.983 . S
H255 C279 0.979 . S
H256 C279 0.977 . S
C257 C245 1.453 . S
C257 H286 0.982 . S
C257 H287 0.979 . S
C257 H288 0.977 . S
C258 C245 1.684 . S
C258 H283 0.979 . S
C258 H284 0.980 . S
C258 H285 0.983 . S
C259 C260 1.391 . S
C259 C264 1.391 . S
C259 H289 0.948 . S
C260 C259 1.391 . S
C260 C261 1.391 . S
C261 C260 1.391 . S
C261 C262 1.392 . S
C261 H290 0.947 . S
C262 C261 1.392 . S
C262 C263 1.419 . S
C262 H291 0.948 . S
C263 C262 1.419 . S
C263 C264 1.391 . S
C263 C267 1.397 . S
C264 C259 1.391 . S
C264 C263 1.391 . S
C264 C265 1.399 . S
C265 C264 1.399 . S
C265 C266 1.396 . S
C265 C268 1.453 . S
C265 C269 1.684 . S
C266 C247 1.723 . S
C266 C265 1.396 . S
C266 C267 1.394 . S
C267 C263 1.397 . S
C267 C266 1.394 . S
C267 C277 1.723 . S
C268 C265 1.453 . S
C268 H292 0.982 . S
C268 H293 0.979 . S
C268 H294 0.977 . S
C269 C265 1.684 . S
C269 H295 0.979 . S
C269 H296 0.980 . S
C269 H297 0.983 . S
C270 H246 0.948 . S
C270 C271 1.391 . S
C270 C275 1.391 . S
C271 C270 1.391 . S
C271 C272 1.391 . S
C272 H249 0.947 . S
C272 C271 1.391 . S
C272 C273 1.392 . S
C273 H250 0.948 . S
C273 C272 1.392 . S
C273 C274 1.419 . S
C274 C273 1.419 . S
C274 C275 1.391 . S
C274 C278 1.397 . S
C275 C270 1.391 . S
C275 C274 1.391 . S
C275 C276 1.399 . S
C276 C275 1.399 . S
C276 C277 1.396 . S
C276 C279 1.453 . S
C276 C280 1.684 . S
C277 C267 1.723 . S
C277 C276 1.396 . S
C277 C278 1.394 . S
C278 C248 1.723 . S
C278 C274 1.397 . S
C278 C277 1.394 . S
C279 H251 0.982 . S
C279 H255 0.979 . S
C279 H256 0.977 . S
C279 C276 1.453 . S
C280 H252 0.979 . S
C280 H253 0.980 . S
C280 H254 0.983 . S
C280 C276 1.684 . S
H281 C299 0.948 . S
H282 C240 0.948 . S
H283 C258 0.979 . S
H284 C258 0.980 . S
H285 C258 0.983 . S
H286 C257 0.982 . S
H287 C257 0.979 . S
H288 C257 0.977 . S
H289 C259 0.948 . S
H290 C261 0.947 . S
H291 C262 0.948 . S
H292 C268 0.982 . S
H293 C268 0.979 . S
H294 C268 0.977 . S
H295 C269 0.979 . S
H296 C269 0.980 . S
H297 C269 0.983 . S
H298 C242 0.947 . S
C299 C242 1.392 . S
C299 C243 1.419 . S
C299 H281 0.948 . S
C300 C301 1.391 . S
C300 C304 1.391 . S
C300 H342 0.948 . S
C301 C300 1.391 . S
C301 C302 1.391 . S
C302 C301 1.391 . S
C302 H358 0.947 . S
C302 C359 1.392 . S
C303 C304 1.391 . S
C303 C307 1.397 . S
C303 C359 1.419 . S
C304 C300 1.391 . S
C304 C303 1.391 . S
C304 C305 1.399 . S
C305 C304 1.399 . S
C305 C308 1.396 . S
C305 C317 1.453 . S
C305 C318 1.684 . S
H306 C330 0.948 . S
C307 C303 1.397 . S
C307 C308 1.394 . S
C307 C326 1.723 . S
C308 C305 1.396 . S
C308 C307 1.394 . S
C308 C338 1.723 . S
H309 C332 0.947 . S
H310 C333 0.948 . S
H311 C339 0.982 . S
H312 C340 0.979 . S
H313 C340 0.980 . S
H314 C340 0.983 . S
H315 C339 0.979 . S
H316 C339 0.977 . S
C317 C305 1.453 . S
C317 H346 0.982 . S
C317 H347 0.979 . S
C317 H348 0.977 . S
C318 C305 1.684 . S
C318 H343 0.979 . S
C318 H344 0.980 . S
C318 H345 0.983 . S
C319 C320 1.391 . S
C319 C324 1.391 . S
C319 H349 0.948 . S
C320 C319 1.391 . S
C320 C321 1.391 . S
C321 C320 1.391 . S
C321 C322 1.392 . S
C321 H350 0.947 . S
C322 C321 1.392 . S
C322 C323 1.419 . S
C322 H351 0.948 . S
C323 C322 1.419 . S
C323 C324 1.391 . S
C323 C327 1.397 . S
C324 C319 1.391 . S
C324 C323 1.391 . S
C324 C325 1.399 . S
C325 C324 1.399 . S
C325 C326 1.396 . S
C325 C328 1.453 . S
C325 C329 1.684 . S
C326 C307 1.723 . S
C326 C325 1.396 . S
C326 C327 1.394 . S
C327 C323 1.397 . S
C327 C326 1.394 . S
C327 C337 1.723 . S
C328 C325 1.453 . S
C328 H352 0.982 . S
C328 H353 0.979 . S
C328 H354 0.977 . S
C329 C325 1.684 . S
C329 H355 0.979 . S
C329 H356 0.980 . S
C329 H357 0.983 . S
C330 H306 0.948 . S
C330 C331 1.391 . S
C330 C335 1.391 . S
C331 C330 1.391 . S
C331 C332 1.391 . S
C332 H309 0.947 . S
C332 C331 1.391 . S
C332 C333 1.392 . S
C333 H310 0.948 . S
C333 C332 1.392 . S
C333 C334 1.419 . S
C334 C333 1.419 . S
C334 C335 1.391 . S
C334 C338 1.397 . S
C335 C330 1.391 . S
C335 C334 1.391 . S
C335 C336 1.399 . S
C336 C335 1.399 . S
C336 C337 1.396 . S
C336 C339 1.453 . S
C336 C340 1.684 . S
C337 C327 1.723 . S
C337 C336 1.396 . S
C337 C338 1.394 . S
C338 C308 1.723 . S
C338 C334 1.397 . S
C338 C337 1.394 . S
C339 H311 0.982 . S
C339 H315 0.979 . S
C339 H316 0.977 . S
C339 C336 1.453 . S
C340 H312 0.979 . S
C340 H313 0.980 . S
C340 H314 0.983 . S
C340 C336 1.684 . S
H341 C359 0.948 . S
H342 C300 0.948 . S
H343 C318 0.979 . S
H344 C318 0.980 . S
H345 C318 0.983 . S
H346 C317 0.982 . S
H347 C317 0.979 . S
H348 C317 0.977 . S
H349 C319 0.948 . S
H350 C321 0.947 . S
H351 C322 0.948 . S
H352 C328 0.982 . S
H353 C328 0.979 . S
H354 C328 0.977 . S
H355 C329 0.979 . S
H356 C329 0.980 . S
H357 C329 0.983 . S
H358 C302 0.947 . S
C359 C302 1.392 . S
C359 C303 1.419 . S
C359 H341 0.948 . S
C360 C361 1.391 . S
C360 C364 1.391 . S
C360 H402 0.948 . S
C361 C360 1.391 . S
C361 C362 1.391 . S
C362 C361 1.391 . S
C362 H418 0.947 . S
C362 C419 1.392 . S
C363 C364 1.391 . S
C363 C367 1.397 . S
C363 C419 1.419 . S
C364 C360 1.391 . S
C364 C363 1.391 . S
C364 C365 1.399 . S
C365 C364 1.399 . S
C365 C368 1.396 . S
C365 C377 1.453 . S
C365 C378 1.684 . S
H366 C390 0.948 . S
C367 C363 1.397 . S
C367 C368 1.394 . S
C367 C386 1.723 . S
C368 C365 1.396 . S
C368 C367 1.394 . S
C368 C398 1.723 . S
H369 C392 0.947 . S
H370 C393 0.948 . S
H371 C399 0.982 . S
H372 C400 0.979 . S
H373 C400 0.980 . S
H374 C400 0.983 . S
H375 C399 0.979 . S
H376 C399 0.977 . S
C377 C365 1.453 . S
C377 H406 0.982 . S
C377 H407 0.979 . S
C377 H408 0.977 . S
C378 C365 1.684 . S
C378 H403 0.979 . S
C378 H404 0.980 . S
C378 H405 0.983 . S
C379 C380 1.391 . S
C379 C384 1.391 . S
C379 H409 0.948 . S
C380 C379 1.391 . S
C380 C381 1.391 . S
C381 C380 1.391 . S
C381 C382 1.392 . S
C381 H410 0.947 . S
C382 C381 1.392 . S
C382 C383 1.419 . S
C382 H411 0.948 . S
C383 C382 1.419 . S
C383 C384 1.391 . S
C383 C387 1.397 . S
C384 C379 1.391 . S
C384 C383 1.391 . S
C384 C385 1.399 . S
C385 C384 1.399 . S
C385 C386 1.396 . S
C385 C388 1.453 . S
C385 C389 1.684 . S
C386 C367 1.723 . S
C386 C385 1.396 . S
C386 C387 1.394 . S
C387 C383 1.397 . S
C387 C386 1.394 . S
C387 C397 1.723 . S
C388 C385 1.453 . S
C388 H412 0.982 . S
C388 H413 0.979 . S
C388 H414 0.977 . S
C389 C385 1.684 . S
C389 H415 0.979 . S
C389 H416 0.980 . S
C389 H417 0.983 . S
C390 H366 0.948 . S
C390 C391 1.391 . S
C390 C395 1.391 . S
C391 C390 1.391 . S
C391 C392 1.391 . S
C392 H369 0.947 . S
C392 C391 1.391 . S
C392 C393 1.392 . S
C393 H370 0.948 . S
C393 C392 1.392 . S
C393 C394 1.419 . S
C394 C393 1.419 . S
C394 C395 1.391 . S
C394 C398 1.397 . S
C395 C390 1.391 . S
C395 C394 1.391 . S
C395 C396 1.399 . S
C396 C395 1.399 . S
C396 C397 1.396 . S
C396 C399 1.453 . S
C396 C400 1.684 . S
C397 C387 1.723 . S
C397 C396 1.396 . S
C397 C398 1.394 . S
C398 C368 1.723 . S
C398 C394 1.397 . S
C398 C397 1.394 . S
C399 H371 0.982 . S
C399 H375 0.979 . S
C399 H376 0.977 . S
C399 C396 1.453 . S
C400 H372 0.979 . S
C400 H373 0.980 . S
C400 H374 0.983 . S
C400 C396 1.684 . S
H401 C419 0.948 . S
H402 C360 0.948 . S
H403 C378 0.979 . S
H404 C378 0.980 . S
H405 C378 0.983 . S
H406 C377 0.982 . S
H407 C377 0.979 . S
H408 C377 0.977 . S
H409 C379 0.948 . S
H410 C381 0.947 . S
H411 C382 0.948 . S
H412 C388 0.982 . S
H413 C388 0.979 . S
H414 C388 0.977 . S
H415 C389 0.979 . S
H416 C389 0.980 . S
H417 C389 0.983 . S
H418 C362 0.947 . S
C419 C362 1.392 . S
C419 C363 1.419 . S
C419 H401 0.948 . S
C420 C421 1.391 . S
C420 C424 1.391 . S
C420 H462 0.948 . S
C421 C420 1.391 . S
C421 C422 1.391 . S
C422 C421 1.391 . S
C422 H478 0.947 . S
C422 C479 1.392 . S
C423 C424 1.391 . S
C423 C427 1.397 . S
C423 C479 1.419 . S
C424 C420 1.391 . S
C424 C423 1.391 . S
C424 C425 1.399 . S
C425 C424 1.399 . S
C425 C428 1.396 . S
C425 C437 1.453 . S
C425 C438 1.684 . S
H426 C450 0.948 . S
C427 C423 1.397 . S
C427 C428 1.394 . S
C427 C446 1.723 . S
C428 C425 1.396 . S
C428 C427 1.394 . S
C428 C458 1.723 . S
H429 C452 0.947 . S
H430 C453 0.948 . S
H431 C459 0.982 . S
H432 C460 0.979 . S
H433 C460 0.980 . S
H434 C460 0.983 . S
H435 C459 0.979 . S
H436 C459 0.977 . S
C437 C425 1.453 . S
C437 H466 0.982 . S
C437 H467 0.979 . S
C437 H468 0.977 . S
C438 C425 1.684 . S
C438 H463 0.979 . S
C438 H464 0.980 . S
C438 H465 0.983 . S
C439 C440 1.391 . S
C439 C444 1.391 . S
C439 H469 0.948 . S
C440 C439 1.391 . S
C440 C441 1.391 . S
C441 C440 1.391 . S
C441 C442 1.392 . S
C441 H470 0.947 . S
C442 C441 1.392 . S
C442 C443 1.419 . S
C442 H471 0.948 . S
C443 C442 1.419 . S
C443 C444 1.391 . S
C443 C447 1.397 . S
C444 C439 1.391 . S
C444 C443 1.391 . S
C444 C445 1.399 . S
C445 C444 1.399 . S
C445 C446 1.396 . S
C445 C448 1.453 . S
C445 C449 1.684 . S
C446 C427 1.723 . S
C446 C445 1.396 . S
C446 C447 1.394 . S
C447 C443 1.397 . S
C447 C446 1.394 . S
C447 C457 1.723 . S
C448 C445 1.453 . S
C448 H472 0.982 . S
C448 H473 0.979 . S
C448 H474 0.977 . S
C449 C445 1.684 . S
C449 H475 0.979 . S
C449 H476 0.980 . S
C449 H477 0.983 . S
C450 H426 0.948 . S
C450 C451 1.391 . S
C450 C455 1.391 . S
C451 C450 1.391 . S
C451 C452 1.391 . S
C452 H429 0.947 . S
C452 C451 1.391 . S
C452 C453 1.392 . S
C453 H430 0.948 . S
C453 C452 1.392 . S
C453 C454 1.419 . S
C454 C453 1.419 . S
C454 C455 1.391 . S
C454 C458 1.397 . S
C455 C450 1.391 . S
C455 C454 1.391 . S
C455 C456 1.399 . S
C456 C455 1.399 . S
C456 C457 1.396 . S
C456 C459 1.453 . S
C456 C460 1.684 . S
C457 C447 1.723 . S
C457 C456 1.396 . S
C457 C458 1.394 . S
C458 C428 1.723 . S
C458 C454 1.397 . S
C458 C457 1.394 . S
C459 H431 0.982 . S
C459 H435 0.979 . S
C459 H436 0.977 . S
C459 C456 1.453 . S
C460 H432 0.979 . S
C460 H433 0.980 . S
C460 H434 0.983 . S
C460 C456 1.684 . S
H461 C479 0.948 . S
H462 C420 0.948 . S
H463 C438 0.979 . S
H464 C438 0.980 . S
H465 C438 0.983 . S
H466 C437 0.982 . S
H467 C437 0.979 . S
H468 C437 0.977 . S
H469 C439 0.948 . S
H470 C441 0.947 . S
H471 C442 0.948 . S
H472 C448 0.982 . S
H473 C448 0.979 . S
H474 C448 0.977 . S
H475 C449 0.979 . S
H476 C449 0.980 . S
H477 C449 0.983 . S
H478 C422 0.947 . S
C479 C422 1.392 . S
C479 C423 1.419 . S
C479 H461 0.948 . S
Dy480 O483 2.307 1_545 S
Dy480 O485 2.395 . S
Dy480 O486 2.379 . S
Dy480 O488 2.339 1_545 S
Dy480 O490 2.298 1_455 S
Dy480 O494 2.275 . S
Dy480 C502 2.738 . S
Dy481 O484 2.298 1_655 S
Dy481 O487 2.275 . S
Dy481 O489 2.307 1_565 S
Dy481 O491 2.395 . S
Dy481 O492 2.379 . S
Dy481 O495 2.339 1_565 S
Dy481 C511 2.738 . S
C482 O494 1.254 . S
C482 O495 1.257 1_455 S
O483 Dy480 2.307 1_565 S
O483 C493 1.266 . S
O484 Dy481 2.298 1_455 S
O484 C493 1.236 . S
O485 Dy480 2.395 . S
O485 C502 1.255 . S
O486 Dy480 2.379 . S
O486 C502 1.249 . S
O487 Dy481 2.275 . S
O487 C503 1.254 . S
O488 Dy480 2.339 1_565 S
O488 C503 1.257 1_455 S
O489 Dy481 2.307 1_545 S
O489 C504 1.266 . S
O490 Dy480 2.298 1_655 S
O490 C504 1.236 . S
O491 Dy481 2.395 . S
O491 C511 1.255 . S
O492 Dy481 2.379 . S
O492 C511 1.249 . S
C493 O483 1.266 . S
C493 O484 1.236 . S
O494 Dy480 2.275 . S
O494 C482 1.254 . S
O495 Dy481 2.339 1_545 S
O495 C482 1.257 1_655 S
C496 C499 1.344 . S
C496 C500 1.328 . S
C496 C502 1.516 . S
C497 C498 1.304 . S
C497 C501 1.323 . S
C498 C497 1.304 . S
C498 C499 1.371 . S
C498 H512 0.930 . S
C499 C496 1.344 . S
C499 C498 1.371 . S
C499 H513 0.931 . S
C500 C496 1.328 . S
C500 C501 1.433 . S
C500 H514 0.931 . S
C501 C497 1.323 . S
C501 C500 1.433 . S
C501 H515 0.933 . S
C502 Dy480 2.738 . S
C502 O485 1.255 . S
C502 O486 1.249 . S
C502 C496 1.516 . S
C503 O487 1.254 . S
C503 O488 1.257 1_655 S
C504 O489 1.266 . S
C504 O490 1.236 . S
C505 C508 1.344 . S
C505 C509 1.328 . S
C505 C511 1.516 . S
C506 C507 1.304 . S
C506 C510 1.323 . S
C507 C506 1.304 . S
C507 C508 1.371 . S
C507 H516 0.930 . S
C508 C505 1.344 . S
C508 C507 1.371 . S
C508 H517 0.931 . S
C509 C505 1.328 . S
C509 C510 1.433 . S
C509 H518 0.931 . S
C510 C506 1.323 . S
C510 C509 1.433 . S
C510 H519 0.933 . S
C511 Dy481 2.738 . S
C511 O491 1.255 . S
C511 O492 1.249 . S
C511 C505 1.516 . S
H512 C498 0.930 . S
H513 C499 0.931 . S
H514 C500 0.931 . S
H515 C501 0.933 . S
H516 C507 0.930 . S
H517 C508 0.931 . S
H518 C509 0.931 . S
H519 C510 0.933 . S
Dy520 O523 2.307 1_566 S
Dy520 O525 2.395 . S
Dy520 O526 2.379 . S
Dy520 O528 2.339 1_565 S
Dy520 O530 2.298 . S
Dy520 O534 2.275 1_556 S
Dy520 C542 2.738 . S
Dy521 O524 2.298 . S
Dy521 O527 2.275 1_554 S
Dy521 O529 2.307 1_544 S
Dy521 O531 2.395 . S
Dy521 O532 2.379 . S
Dy521 O535 2.339 1_545 S
Dy521 C551 2.738 . S
C522 O534 1.254 . S
C522 O535 1.257 . S
O523 Dy520 2.307 1_544 S
O523 C533 1.266 . S
O524 Dy521 2.298 . S
O524 C533 1.236 . S
O525 Dy520 2.395 . S
O525 C542 1.255 . S
O526 Dy520 2.379 . S
O526 C542 1.249 . S
O527 Dy521 2.275 1_556 S
O527 C543 1.254 . S
O528 Dy520 2.339 1_545 S
O528 C543 1.257 . S
O529 Dy521 2.307 1_566 S
O529 C544 1.266 . S
O530 Dy520 2.298 . S
O530 C544 1.236 . S
O531 Dy521 2.395 . S
O531 C551 1.255 . S
O532 Dy521 2.379 . S
O532 C551 1.249 . S
C533 O523 1.266 . S
C533 O524 1.236 . S
O534 Dy520 2.275 1_554 S
O534 C522 1.254 . S
O535 Dy521 2.339 1_565 S
O535 C522 1.257 . S
C536 C539 1.344 . S
C536 C540 1.328 . S
C536 C542 1.516 . S
C537 C538 1.304 . S
C537 C541 1.323 . S
C538 C537 1.304 . S
C538 C539 1.371 . S
C538 H552 0.930 . S
C539 C536 1.344 . S
C539 C538 1.371 . S
C539 H553 0.931 . S
C540 C536 1.328 . S
C540 C541 1.433 . S
C540 H554 0.931 . S
C541 C537 1.323 . S
C541 C540 1.433 . S
C541 H555 0.933 . S
C542 Dy520 2.738 . S
C542 O525 1.255 . S
C542 O526 1.249 . S
C542 C536 1.516 . S
C543 O527 1.254 . S
C543 O528 1.257 . S
C544 O529 1.266 . S
C544 O530 1.236 . S
C545 C548 1.344 . S
C545 C549 1.328 . S
C545 C551 1.516 . S
C546 C547 1.304 . S
C546 C550 1.323 . S
C547 C546 1.304 . S
C547 C548 1.371 . S
C547 H556 0.930 . S
C548 C545 1.344 . S
C548 C547 1.371 . S
C548 H557 0.931 . S
C549 C545 1.328 . S
C549 C550 1.433 . S
C549 H558 0.931 . S
C550 C546 1.323 . S
C550 C549 1.433 . S
C550 H559 0.933 . S
C551 Dy521 2.738 . S
C551 O531 1.255 . S
C551 O532 1.249 . S
C551 C545 1.516 . S
H552 C538 0.930 . S
H553 C539 0.931 . S
H554 C540 0.931 . S
H555 C541 0.933 . S
H556 C547 0.930 . S
H557 C548 0.931 . S
H558 C549 0.931 . S
H559 C550 0.933 . S
Dy560 O563 2.307 . S
Dy560 O565 2.395 . S
Dy560 O566 2.379 . S
Dy560 O568 2.339 . S
Dy560 O570 2.298 . S
Dy560 O574 2.275 . S
Dy560 C582 2.738 . S
Dy561 O564 2.298 . S
Dy561 O567 2.275 . S
Dy561 O569 2.307 . S
Dy561 O571 2.395 . S
Dy561 O572 2.379 . S
Dy561 O575 2.339 . S
Dy561 C591 2.738 . S
C562 O574 1.254 . S
C562 O575 1.257 . S
O563 Dy560 2.307 . S
O563 C573 1.266 . S
O564 Dy561 2.298 . S
O564 C573 1.236 . S
O565 Dy560 2.395 . S
O565 C582 1.255 . S
O566 Dy560 2.379 . S
O566 C582 1.249 . S
O567 Dy561 2.275 . S
O567 C583 1.254 . S
O568 Dy560 2.339 . S
O568 C583 1.257 . S
O569 Dy561 2.307 . S
O569 C584 1.266 . S
O570 Dy560 2.298 . S
O570 C584 1.236 . S
O571 Dy561 2.395 . S
O571 C591 1.255 . S
O572 Dy561 2.379 . S
O572 C591 1.249 . S
C573 O563 1.266 . S
C573 O564 1.236 . S
O574 Dy560 2.275 . S
O574 C562 1.254 . S
O575 Dy561 2.339 . S
O575 C562 1.257 . S
C576 C579 1.344 . S
C576 C580 1.328 . S
C576 C582 1.516 . S
C577 C578 1.304 . S
C577 C581 1.323 . S
C578 C577 1.304 . S
C578 C579 1.371 . S
C578 H592 0.930 . S
C579 C576 1.344 . S
C579 C578 1.371 . S
C579 H593 0.931 . S
C580 C576 1.328 . S
C580 C581 1.433 . S
C580 H594 0.931 . S
C581 C577 1.323 . S
C581 C580 1.433 . S
C581 H595 0.933 . S
C582 Dy560 2.738 . S
C582 O565 1.255 . S
C582 O566 1.249 . S
C582 C576 1.516 . S
C583 O567 1.254 . S
C583 O568 1.257 . S
C584 O569 1.266 . S
C584 O570 1.236 . S
C585 C588 1.344 . S
C585 C589 1.328 . S
C585 C591 1.516 . S
C586 C587 1.304 . S
C586 C590 1.323 . S
C587 C586 1.304 . S
C587 C588 1.371 . S
C587 H596 0.930 . S
C588 C585 1.344 . S
C588 C587 1.371 . S
C588 H597 0.931 . S
C589 C585 1.328 . S
C589 C590 1.433 . S
C589 H598 0.931 . S
C590 C586 1.323 . S
C590 C589 1.433 . S
C590 H599 0.933 . S
C591 Dy561 2.738 . S
C591 O571 1.255 . S
C591 O572 1.249 . S
C591 C585 1.516 . S
H592 C578 0.930 . S
H593 C579 0.931 . S
H594 C580 0.931 . S
H595 C581 0.933 . S
H596 C587 0.930 . S
H597 C588 0.931 . S
H598 C589 0.931 . S
H599 C590 0.933 . S
Dy600 O603 2.305 1_656 S
Dy600 O605 2.395 . S
Dy600 O606 2.379 . S
Dy600 O608 2.339 1_655 S
Dy600 O610 2.298 . S
Dy600 O614 2.275 1_556 S
Dy600 C622 2.738 . S
Dy601 O604 2.298 . S
Dy601 O607 2.275 1_554 S
Dy601 O609 2.307 1_455 S
Dy601 O611 2.395 . S
Dy601 O612 2.379 . S
Dy601 O615 2.339 1_455 S
Dy601 C631 2.738 . S
C602 O614 1.254 . S
C602 O615 1.257 . S
O603 Dy600 2.305 1_454 S
O603 C613 1.269 . S
O604 Dy601 2.298 . S
O604 C613 1.236 . S
O605 Dy600 2.395 . S
O605 C622 1.255 . S
O606 Dy600 2.379 . S
O606 C622 1.249 . S
O607 Dy601 2.275 1_556 S
O607 C623 1.254 . S
O608 Dy600 2.339 1_455 S
O608 C623 1.257 . S
O609 Dy601 2.307 1_655 S
O609 C624 1.267 1_554 S
O610 Dy600 2.298 . S
O610 C624 1.236 . S
O611 Dy601 2.395 . S
O611 C631 1.255 . S
O612 Dy601 2.379 . S
O612 C631 1.249 . S
C613 O603 1.269 . S
C613 O604 1.236 . S
O614 Dy600 2.275 1_554 S
O614 C602 1.254 . S
O615 Dy601 2.339 1_655 S
O615 C602 1.257 . S
C616 C619 1.344 . S
C616 C620 1.328 . S
C616 C622 1.516 . S
C617 C618 1.304 . S
C617 C621 1.323 . S
C618 C617 1.304 . S
C618 C619 1.371 . S
C618 H632 0.930 . S
C619 C616 1.344 . S
C619 C618 1.371 . S
C619 H633 0.931 . S
C620 C616 1.328 . S
C620 C621 1.433 . S
C620 H634 0.931 . S
C621 C617 1.323 . S
C621 C620 1.433 . S
C621 H635 0.933 . S
C622 Dy600 2.738 . S
C622 O605 1.255 . S
C622 O606 1.249 . S
C622 C616 1.516 . S
C623 O607 1.254 . S
C623 O608 1.257 . S
C624 O609 1.267 1_556 S
C624 O610 1.236 . S
C625 C628 1.344 . S
C625 C629 1.328 . S
C625 C631 1.516 . S
C626 C627 1.304 . S
C626 C630 1.323 . S
C627 C626 1.304 . S
C627 C628 1.371 . S
C627 H636 0.930 . S
C628 C625 1.344 . S
C628 C627 1.371 . S
C628 H637 0.931 . S
C629 C625 1.328 . S
C629 C630 1.433 . S
C629 H638 0.931 . S
C630 C626 1.323 . S
C630 C629 1.433 . S
C630 H639 0.933 . S
C631 Dy601 2.738 . S
C631 O611 1.255 . S
C631 O612 1.249 . S
C631 C625 1.516 . S
H632 C618 0.930 . S
H633 C619 0.931 . S
H634 C620 0.931 . S
H635 C621 0.933 . S
H636 C627 0.930 . S
H637 C628 0.931 . S
H638 C629 0.931 . S
H639 C630 0.933 . S
H640 C658 0.951 . S
H641 C660 0.951 . S
H642 C662 0.950 . S
H643 C663 0.950 . S
H644 C665 0.950 . S
H645 C668 0.950 . S
H646 C669 0.950 . S
H647 C671 0.950 . S
H648 C672 0.950 . S
H649 C673 0.951 . S
H650 C675 0.951 . S
H651 C677 0.950 . S
H652 C678 0.950 . S
H653 C680 0.950 . S
H654 C683 0.950 . S
H655 C684 0.950 . S
H656 C686 0.950 . S
H657 C687 0.950 . S
C658 H640 0.951 . S
C658 C659 1.366 . S
C658 C660 1.388 . S
C659 C658 1.366 . S
C659 C663 1.385 . S
C660 H641 0.951 . S
C660 C658 1.388 . S
C660 C661 1.366 . S
C661 C660 1.366 . S
C661 C662 1.414 . S
C661 C664 1.499 . S
C662 H642 0.950 . S
C662 C661 1.414 . S
C662 C663 1.374 . S
C663 H643 0.950 . S
C663 C659 1.385 . S
C663 C662 1.374 . S
C664 C661 1.499 . S
C664 C665 1.373 . S
C664 C666 1.389 . S
C665 H644 0.950 . S
C665 C664 1.373 . S
C665 C681 1.377 . S
C666 C664 1.389 . S
C666 C667 1.524 . S
C666 C680 1.377 . S
C667 C666 1.524 . S
C667 C668 1.397 . S
C667 C672 1.363 . S
C668 H645 0.950 . S
C668 C667 1.397 . S
C668 C669 1.334 . S
C669 H646 0.950 . S
C669 C668 1.334 . S
C669 C670 1.287 . S
C670 C669 1.287 . S
C670 C671 1.524 . S
C670 H689 0.913 . S
C671 H647 0.950 . S
C671 C670 1.524 . S
C671 C672 1.415 . S
C672 H648 0.950 . S
C672 C667 1.363 . S
C672 C671 1.415 . S
C673 H649 0.951 . S
C673 C674 1.366 . S
C673 C675 1.388 . S
C674 C673 1.366 . S
C674 C678 1.385 . S
C675 H650 0.951 . S
C675 C673 1.388 . S
C675 C676 1.366 . S
C676 C675 1.366 . S
C676 C677 1.414 . S
C676 C679 1.499 . S
C677 H651 0.950 . S
C677 C676 1.414 . S
C677 C678 1.374 . S
C678 H652 0.950 . S
C678 C674 1.385 . S
C678 C677 1.374 . S
C679 C676 1.499 . S
C679 C680 1.373 . S
C679 C681 1.389 . S
C680 H653 0.950 . S
C680 C666 1.377 . S
C680 C679 1.373 . S
C681 C665 1.377 . S
C681 C679 1.389 . S
C681 C682 1.524 . S
C682 C681 1.524 . S
C682 C683 1.397 . S
C682 C687 1.363 . S
C683 H654 0.950 . S
C683 C682 1.397 . S
C683 C684 1.334 . S
C684 H655 0.950 . S
C684 C683 1.334 . S
C684 C685 1.287 . S
C685 C684 1.287 . S
C685 C686 1.524 . S
C685 H688 0.999 . S
C686 H656 0.950 . S
C686 C685 1.524 . S
C686 C687 1.415 . S
C687 H657 0.950 . S
C687 C682 1.363 . S
C687 C686 1.415 . S
H688 C685 0.999 . S
H689 C670 0.913 . S
H690 C708 0.951 . S
H691 C710 0.951 . S
H692 C712 0.950 . S
H693 C713 0.950 . S
H694 C715 0.950 . S
H695 C718 0.950 . S
H696 C719 0.950 . S
H697 C721 0.950 . S
H698 C722 0.950 . S
H699 C723 0.951 . S
H700 C725 0.951 . S
H701 C727 0.950 . S
H702 C728 0.950 . S
H703 C730 0.950 . S
H704 C733 0.950 . S
H705 C734 0.950 . S
H706 C736 0.950 . S
H707 C737 0.950 . S
C708 H690 0.951 . S
C708 C709 1.366 . S
C708 C710 1.388 . S
C709 C708 1.366 . S
C709 C713 1.385 . S
C710 H691 0.951 . S
C710 C708 1.388 . S
C710 C711 1.366 . S
C711 C710 1.366 . S
C711 C712 1.414 . S
C711 C714 1.499 . S
C712 H692 0.950 . S
C712 C711 1.414 . S
C712 C713 1.374 . S
C713 H693 0.950 . S
C713 C709 1.385 . S
C713 C712 1.374 . S
C714 C711 1.499 . S
C714 C715 1.373 . S
C714 C716 1.389 . S
C715 H694 0.950 . S
C715 C714 1.373 . S
C715 C731 1.377 . S
C716 C714 1.389 . S
C716 C717 1.524 . S
C716 C730 1.377 . S
C717 C716 1.524 . S
C717 C718 1.397 . S
C717 C722 1.363 . S
C718 H695 0.950 . S
C718 C717 1.397 . S
C718 C719 1.334 . S
C719 H696 0.950 . S
C719 C718 1.334 . S
C719 C720 1.287 . S
C720 C719 1.287 . S
C720 C721 1.524 . S
C720 H739 0.913 . S
C721 H697 0.950 . S
C721 C720 1.524 . S
C721 C722 1.415 . S
C722 H698 0.950 . S
C722 C717 1.363 . S
C722 C721 1.415 . S
C723 H699 0.951 . S
C723 C724 1.366 . S
C723 C725 1.388 . S
C724 C723 1.366 . S
C724 C728 1.385 . S
C725 H700 0.951 . S
C725 C723 1.388 . S
C725 C726 1.366 . S
C726 C725 1.366 . S
C726 C727 1.414 . S
C726 C729 1.499 . S
C727 H701 0.950 . S
C727 C726 1.414 . S
C727 C728 1.374 . S
C728 H702 0.950 . S
C728 C724 1.385 . S
C728 C727 1.374 . S
C729 C726 1.499 . S
C729 C730 1.373 . S
C729 C731 1.389 . S
C730 H703 0.950 . S
C730 C716 1.377 . S
C730 C729 1.373 . S
C731 C715 1.377 . S
C731 C729 1.389 . S
C731 C732 1.524 . S
C732 C731 1.524 . S
C732 C733 1.397 . S
C732 C737 1.363 . S
C733 H704 0.950 . S
C733 C732 1.397 . S
C733 C734 1.334 . S
C734 H705 0.950 . S
C734 C733 1.334 . S
C734 C735 1.287 . S
C735 C734 1.287 . S
C735 C736 1.524 . S
C735 H738 0.999 . S
C736 H706 0.950 . S
C736 C735 1.524 . S
C736 C737 1.415 . S
C737 H707 0.950 . S
C737 C732 1.363 . S
C737 C736 1.415 . S
H738 C735 0.999 . S
H739 C720 0.913 . S
H740 C758 0.951 . S
H741 C760 0.951 . S
H742 C762 0.950 . S
H743 C763 0.950 . S
H744 C765 0.950 . S
H745 C768 0.950 . S
H746 C769 0.950 . S
H747 C771 0.950 . S
H748 C772 0.950 . S
H749 C773 0.951 . S
H750 C775 0.951 . S
H751 C777 0.950 . S
H752 C778 0.950 . S
H753 C780 0.950 . S
H754 C783 0.950 . S
H755 C784 0.950 . S
H756 C786 0.950 . S
H757 C787 0.950 . S
C758 H740 0.951 . S
C758 C759 1.366 . S
C758 C760 1.388 . S
C759 C758 1.366 . S
C759 C763 1.385 . S
C760 H741 0.951 . S
C760 C758 1.388 . S
C760 C761 1.366 . S
C761 C760 1.366 . S
C761 C762 1.414 . S
C761 C764 1.499 . S
C762 H742 0.950 . S
C762 C761 1.414 . S
C762 C763 1.374 . S
C763 H743 0.950 . S
C763 C759 1.385 . S
C763 C762 1.374 . S
C764 C761 1.499 . S
C764 C765 1.373 . S
C764 C766 1.389 . S
C765 H744 0.950 . S
C765 C764 1.373 . S
C765 C781 1.377 . S
C766 C764 1.389 . S
C766 C767 1.524 . S
C766 C780 1.377 . S
C767 C766 1.524 . S
C767 C768 1.397 . S
C767 C772 1.363 . S
C768 H745 0.950 . S
C768 C767 1.397 . S
C768 C769 1.334 . S
C769 H746 0.950 . S
C769 C768 1.334 . S
C769 C770 1.287 . S
C770 C769 1.287 . S
C770 C771 1.524 . S
C770 H789 0.913 . S
C771 H747 0.950 . S
C771 C770 1.524 . S
C771 C772 1.415 . S
C772 H748 0.950 . S
C772 C767 1.363 . S
C772 C771 1.415 . S
C773 H749 0.951 . S
C773 C774 1.366 . S
C773 C775 1.388 . S
C774 C773 1.366 . S
C774 C778 1.385 . S
C775 H750 0.951 . S
C775 C773 1.388 . S
C775 C776 1.366 . S
C776 C775 1.366 . S
C776 C777 1.414 . S
C776 C779 1.499 . S
C777 H751 0.950 . S
C777 C776 1.414 . S
C777 C778 1.374 . S
C778 H752 0.950 . S
C778 C774 1.385 . S
C778 C777 1.374 . S
C779 C776 1.499 . S
C779 C780 1.373 . S
C779 C781 1.389 . S
C780 H753 0.950 . S
C780 C766 1.377 . S
C780 C779 1.373 . S
C781 C765 1.377 . S
C781 C779 1.389 . S
C781 C782 1.524 . S
C782 C781 1.524 . S
C782 C783 1.397 . S
C782 C787 1.363 . S
C783 H754 0.950 . S
C783 C782 1.397 . S
C783 C784 1.334 . S
C784 H755 0.950 . S
C784 C783 1.334 . S
C784 C785 1.287 . S
C785 C784 1.287 . S
C785 C786 1.524 . S
C785 H788 0.999 . S
C786 H756 0.950 . S
C786 C785 1.524 . S
C786 C787 1.415 . S
C787 H757 0.950 . S
C787 C782 1.363 . S
C787 C786 1.415 . S
H788 C785 0.999 . S
H789 C770 0.913 . S
H790 C808 0.951 . S
H791 C810 0.951 . S
H792 C812 0.950 . S
H793 C813 0.950 . S
H794 C815 0.950 . S
H795 C818 0.950 . S
H796 C819 0.950 . S
H797 C821 0.950 . S
H798 C822 0.950 . S
H799 C823 0.951 . S
H800 C825 0.951 . S
H801 C827 0.950 . S
H802 C828 0.950 . S
H803 C830 0.950 . S
H804 C833 0.950 . S
H805 C834 0.950 . S
H806 C836 0.950 . S
H807 C837 0.950 . S
C808 H790 0.951 . S
C808 C809 1.366 . S
C808 C810 1.388 . S
C809 C808 1.366 . S
C809 C813 1.385 . S
C810 H791 0.951 . S
C810 C808 1.388 . S
C810 C811 1.366 . S
C811 C810 1.366 . S
C811 C812 1.414 . S
C811 C814 1.499 . S
C812 H792 0.950 . S
C812 C811 1.414 . S
C812 C813 1.374 . S
C813 H793 0.950 . S
C813 C809 1.385 . S
C813 C812 1.374 . S
C814 C811 1.499 . S
C814 C815 1.373 . S
C814 C816 1.389 . S
C815 H794 0.950 . S
C815 C814 1.373 . S
C815 C831 1.377 . S
C816 C814 1.389 . S
C816 C817 1.524 . S
C816 C830 1.377 . S
C817 C816 1.524 . S
C817 C818 1.397 . S
C817 C822 1.363 . S
C818 H795 0.950 . S
C818 C817 1.397 . S
C818 C819 1.334 . S
C819 H796 0.950 . S
C819 C818 1.334 . S
C819 C820 1.323 . S
C820 C819 1.323 . S
C820 C821 1.507 1_655 S
C820 H839 0.893 1_655 S
C821 H797 0.950 . S
C821 C820 1.507 1_455 S
C821 C822 1.415 1_455 S
C822 H798 0.950 . S
C822 C817 1.363 . S
C822 C821 1.415 1_655 S
C823 H799 0.951 . S
C823 C824 1.366 . S
C823 C825 1.388 . S
C824 C823 1.366 . S
C824 C828 1.385 . S
C825 H800 0.951 . S
C825 C823 1.388 . S
C825 C826 1.366 . S
C826 C825 1.366 . S
C826 C827 1.414 . S
C826 C829 1.499 . S
C827 H801 0.950 . S
C827 C826 1.414 . S
C827 C828 1.374 . S
C828 H802 0.950 . S
C828 C824 1.385 . S
C828 C827 1.374 . S
C829 C826 1.499 . S
C829 C830 1.373 . S
C829 C831 1.389 . S
C830 H803 0.950 . S
C830 C816 1.377 . S
C830 C829 1.373 . S
C831 C815 1.377 . S
C831 C829 1.389 . S
C831 C832 1.524 . S
C832 C831 1.524 . S
C832 C833 1.397 . S
C832 C837 1.363 . S
C833 H804 0.950 . S
C833 C832 1.397 . S
C833 C834 1.334 . S
C834 H805 0.950 . S
C834 C833 1.334 . S
C834 C835 1.287 . S
C835 C834 1.287 . S
C835 C836 1.524 . S
C835 H838 0.999 . S
C836 H806 0.950 . S
C836 C835 1.524 . S
C836 C837 1.415 . S
C837 H807 0.950 . S
C837 C832 1.363 . S
C837 C836 1.415 . S
H838 C835 0.999 . S
H839 C820 0.893 1_455 S
H840 C858 0.951 . S
H841 C860 0.951 . S
H842 C862 0.950 . S
H843 C863 0.950 . S
H844 C865 0.950 . S
H845 C868 0.950 . S
H846 C869 0.950 . S
H847 C871 0.950 . S
H848 C872 0.950 . S
H849 C873 0.951 . S
H850 C875 0.951 . S
H851 C877 0.950 . S
H852 C878 0.950 . S
H853 C880 0.950 . S
H854 C883 0.950 . S
H855 C884 0.950 . S
H856 C886 0.950 . S
H857 C887 0.950 . S
C858 H840 0.951 . S
C858 C859 1.366 . S
C858 C860 1.388 . S
C859 C858 1.366 . S
C859 C863 1.385 . S
C860 H841 0.951 . S
C860 C858 1.388 . S
C860 C861 1.366 . S
C861 C860 1.366 . S
C861 C862 1.414 . S
C861 C864 1.499 . S
C862 H842 0.950 . S
C862 C861 1.414 . S
C862 C863 1.374 . S
C863 H843 0.950 . S
C863 C859 1.385 . S
C863 C862 1.374 . S
C864 C861 1.499 . S
C864 C865 1.373 . S
C864 C866 1.389 . S
C865 H844 0.950 . S
C865 C864 1.373 . S
C865 C881 1.377 . S
C866 C864 1.389 . S
C866 C867 1.524 . S
C866 C880 1.377 . S
C867 C866 1.524 . S
C867 C868 1.397 . S
C867 C872 1.363 . S
C868 H845 0.950 . S
C868 C867 1.397 . S
C868 C869 1.334 . S
C869 H846 0.950 . S
C869 C868 1.334 . S
C869 C870 1.287 . S
C870 C869 1.287 . S
C870 C871 1.524 . S
C870 H889 0.913 . S
C871 H847 0.950 . S
C871 C870 1.524 . S
C871 C872 1.415 . S
C872 H848 0.950 . S
C872 C867 1.363 . S
C872 C871 1.415 . S
C873 H849 0.951 . S
C873 C874 1.366 . S
C873 C875 1.388 . S
C874 C873 1.366 . S
C874 C878 1.385 . S
C875 H850 0.951 . S
C875 C873 1.388 . S
C875 C876 1.366 . S
C876 C875 1.366 . S
C876 C877 1.414 . S
C876 C879 1.499 . S
C877 H851 0.950 . S
C877 C876 1.414 . S
C877 C878 1.374 . S
C878 H852 0.950 . S
C878 C874 1.385 . S
C878 C877 1.374 . S
C879 C876 1.499 . S
C879 C880 1.373 . S
C879 C881 1.389 . S
C880 H853 0.950 . S
C880 C866 1.377 . S
C880 C879 1.373 . S
C881 C865 1.377 . S
C881 C879 1.389 . S
C881 C882 1.524 . S
C882 C881 1.524 . S
C882 C883 1.397 . S
C882 C887 1.363 . S
C883 H854 0.950 . S
C883 C882 1.397 . S
C883 C884 1.334 . S
C884 H855 0.950 . S
C884 C883 1.334 . S
C884 C885 1.287 . S
C885 C884 1.287 . S
C885 C886 1.524 . S
C885 H888 0.999 . S
C886 H856 0.950 . S
C886 C885 1.524 . S
C886 C887 1.415 . S
C887 H857 0.950 . S
C887 C882 1.363 . S
C887 C886 1.415 . S
H888 C885 0.999 . S
H889 C870 0.913 . S
H890 C908 0.951 . S
H891 C910 0.951 . S
H892 C912 0.950 . S
H893 C913 0.950 . S
H894 C915 0.950 . S
H895 C918 0.950 . S
H896 C919 0.950 . S
H897 C921 0.986 . S
H898 C922 0.950 . S
H899 C923 0.951 . S
H900 C925 0.951 . S
H901 C927 0.950 . S
H902 C928 0.950 . S
H903 C930 0.950 . S
H904 C933 0.950 . S
H905 C934 0.950 . S
H906 C936 0.950 . S
H907 C937 0.950 . S
C908 H890 0.951 . S
C908 C909 1.366 . S
C908 C910 1.388 . S
C909 C908 1.366 . S
C909 C913 1.385 . S
C910 H891 0.951 . S
C910 C908 1.388 . S
C910 C911 1.366 . S
C911 C910 1.366 . S
C911 C912 1.414 . S
C911 C914 1.499 . S
C912 H892 0.950 . S
C912 C911 1.414 . S
C912 C913 1.374 . S
C913 H893 0.950 . S
C913 C909 1.385 . S
C913 C912 1.374 . S
C914 C911 1.499 . S
C914 C915 1.373 . S
C914 C916 1.389 . S
C915 H894 0.950 . S
C915 C914 1.373 . S
C915 C931 1.377 . S
C916 C914 1.389 . S
C916 C917 1.524 . S
C916 C930 1.377 . S
C917 C916 1.524 . S
C917 C918 1.397 . S
C917 C922 1.363 . S
C918 H895 0.950 . S
C918 C917 1.397 . S
C918 C919 1.334 . S
C919 H896 0.950 . S
C919 C918 1.334 . S
C919 C920 1.287 . S
C920 C919 1.287 . S
C920 C921 1.511 1_455 S
C920 H939 0.913 1_455 S
C921 H897 0.986 . S
C921 C920 1.511 1_655 S
C921 C922 1.389 1_655 S
C922 H898 0.950 . S
C922 C917 1.363 . S
C922 C921 1.389 1_455 S
C923 H899 0.951 . S
C923 C924 1.366 . S
C923 C925 1.388 . S
C924 C923 1.366 . S
C924 C928 1.385 . S
C925 H900 0.951 . S
C925 C923 1.388 . S
C925 C926 1.366 . S
C926 C925 1.366 . S
C926 C927 1.414 . S
C926 C929 1.499 . S
C927 H901 0.950 . S
C927 C926 1.414 . S
C927 C928 1.374 . S
C928 H902 0.950 . S
C928 C924 1.385 . S
C928 C927 1.374 . S
C929 C926 1.499 . S
C929 C930 1.373 . S
C929 C931 1.389 . S
C930 H903 0.950 . S
C930 C916 1.377 . S
C930 C929 1.373 . S
C931 C915 1.377 . S
C931 C929 1.389 . S
C931 C932 1.524 . S
C932 C931 1.524 . S
C932 C933 1.397 . S
C932 C937 1.363 . S
C933 H904 0.950 . S
C933 C932 1.397 . S
C933 C934 1.334 . S
C934 H905 0.950 . S
C934 C933 1.334 . S
C934 C935 1.287 . S
C935 C934 1.287 . S
C935 C936 1.524 . S
C935 H938 0.999 . S
C936 H906 0.950 . S
C936 C935 1.524 . S
C936 C937 1.415 . S
C937 H907 0.950 . S
C937 C932 1.363 . S
C937 C936 1.415 . S
H938 C935 0.999 . S
H939 C920 0.913 1_655 S
H940 C958 0.951 . S
H941 C960 0.951 . S
H942 C962 0.950 . S
H943 C963 0.950 . S
H944 C965 0.950 . S
H945 C968 0.950 . S
H946 C969 0.950 . S
H947 C971 0.950 . S
H948 C972 0.950 . S
H949 C973 0.951 . S
H950 C975 0.951 . S
H951 C977 0.950 . S
H952 C978 0.950 . S
H953 C980 0.950 . S
H954 C983 0.950 . S
H955 C984 0.950 . S
H956 C986 0.950 . S
H957 C987 0.950 . S
C958 H940 0.951 . S
C958 C959 1.366 . S
C958 C960 1.388 . S
C959 C958 1.366 . S
C959 C963 1.385 . S
C960 H941 0.951 . S
C960 C958 1.388 . S
C960 C961 1.366 . S
C961 C960 1.366 . S
C961 C962 1.414 . S
C961 C964 1.499 . S
C962 H942 0.950 . S
C962 C961 1.414 . S
C962 C963 1.374 . S
C963 H943 0.950 . S
C963 C959 1.385 . S
C963 C962 1.374 . S
C964 C961 1.499 . S
C964 C965 1.373 . S
C964 C966 1.389 . S
C965 H944 0.950 . S
C965 C964 1.373 . S
C965 C981 1.377 . S
C966 C964 1.389 . S
C966 C967 1.524 . S
C966 C980 1.377 . S
C967 C966 1.524 . S
C967 C968 1.397 . S
C967 C972 1.363 . S
C968 H945 0.950 . S
C968 C967 1.397 . S
C968 C969 1.334 . S
C969 H946 0.950 . S
C969 C968 1.334 . S
C969 C970 1.287 . S
C970 C969 1.287 . S
C970 C971 1.524 . S
C970 H989 0.913 . S
C971 H947 0.950 . S
C971 C970 1.524 . S
C971 C972 1.415 . S
C972 H948 0.950 . S
C972 C967 1.363 . S
C972 C971 1.415 . S
C973 H949 0.951 . S
C973 C974 1.366 . S
C973 C975 1.388 . S
C974 C973 1.366 . S
C974 C978 1.385 . S
C975 H950 0.951 . S
C975 C973 1.388 . S
C975 C976 1.366 . S
C976 C975 1.366 . S
C976 C977 1.414 . S
C976 C979 1.499 . S
C977 H951 0.950 . S
C977 C976 1.414 . S
C977 C978 1.374 . S
C978 H952 0.950 . S
C978 C974 1.385 . S
C978 C977 1.374 . S
C979 C976 1.499 . S
C979 C980 1.373 . S
C979 C981 1.389 . S
C980 H953 0.950 . S
C980 C966 1.377 . S
C980 C979 1.373 . S
C981 C965 1.377 . S
C981 C979 1.389 . S
C981 C982 1.524 . S
C982 C981 1.524 . S
C982 C983 1.397 . S
C982 C987 1.363 . S
C983 H954 0.950 . S
C983 C982 1.397 . S
C983 C984 1.334 . S
C984 H955 0.950 . S
C984 C983 1.334 . S
C984 C985 1.287 1_556 S
C985 C984 1.287 1_554 S
C985 C986 1.524 . S
C985 H988 0.999 . S
C986 H956 0.950 . S
C986 C985 1.524 . S
C986 C987 1.415 1_554 S
C987 H957 0.950 . S
C987 C982 1.363 . S
C987 C986 1.415 1_556 S
H988 C985 0.999 . S
H989 C970 0.913 . S
H990 C1008 0.951 . S
H991 C1010 0.951 . S
H992 C1012 0.950 . S
H993 C1013 0.950 . S
H994 C1015 0.950 . S
H995 C1018 0.950 . S
H996 C1019 0.950 . S
H997 C1021 0.950 . S
H998 C1022 0.950 . S
H999 C1023 0.951 . S
H1000 C1025 0.951 . S
H1001 C1027 0.950 . S
H1002 C1028 0.950 . S
H1003 C1030 0.950 . S
H1004 C1033 0.950 . S
H1005 C1034 0.950 . S
H1006 C1036 0.950 . S
H1007 C1037 0.950 . S
C1008 H990 0.951 . S
C1008 C1009 1.366 . S
C1008 C1010 1.388 . S
C1009 C1008 1.366 . S
C1009 C1013 1.385 . S
C1010 H991 0.951 . S
C1010 C1008 1.388 . S
C1010 C1011 1.366 . S
C1011 C1010 1.366 . S
C1011 C1012 1.414 . S
C1011 C1014 1.499 . S
C1012 H992 0.950 . S
C1012 C1011 1.414 . S
C1012 C1013 1.374 . S
C1013 H993 0.950 . S
C1013 C1009 1.385 . S
C1013 C1012 1.374 . S
C1014 C1011 1.499 . S
C1014 C1015 1.373 . S
C1014 C1016 1.389 . S
C1015 H994 0.950 . S
C1015 C1014 1.373 . S
C1015 C1031 1.377 . S
C1016 C1014 1.389 . S
C1016 C1017 1.524 . S
C1016 C1030 1.377 . S
C1017 C1016 1.524 . S
C1017 C1018 1.397 . S
C1017 C1022 1.363 . S
C1018 H995 0.950 . S
C1018 C1017 1.397 . S
C1018 C1019 1.334 . S
C1019 H996 0.950 . S
C1019 C1018 1.334 . S
C1019 C1020 1.287 . S
C1020 C1019 1.287 . S
C1020 C1021 1.524 . S
C1020 H1039 0.913 . S
C1021 H997 0.950 . S
C1021 C1020 1.524 . S
C1021 C1022 1.415 . S
C1022 H998 0.950 . S
C1022 C1017 1.363 . S
C1022 C1021 1.415 . S
C1023 H999 0.951 . S
C1023 C1024 1.366 . S
C1023 C1025 1.388 . S
C1024 C1023 1.366 . S
C1024 C1028 1.385 . S
C1025 H1000 0.951 . S
C1025 C1023 1.388 . S
C1025 C1026 1.366 . S
C1026 C1025 1.366 . S
C1026 C1027 1.414 . S
C1026 C1029 1.499 . S
C1027 H1001 0.950 . S
C1027 C1026 1.414 . S
C1027 C1028 1.374 . S
C1028 H1002 0.950 . S
C1028 C1024 1.385 . S
C1028 C1027 1.374 . S
C1029 C1026 1.499 . S
C1029 C1030 1.373 . S
C1029 C1031 1.389 . S
C1030 H1003 0.950 . S
C1030 C1016 1.377 . S
C1030 C1029 1.373 . S
C1031 C1015 1.377 . S
C1031 C1029 1.389 . S
C1031 C1032 1.524 . S
C1032 C1031 1.524 . S
C1032 C1033 1.397 . S
C1032 C1037 1.363 . S
C1033 H1004 0.950 . S
C1033 C1032 1.397 . S
C1033 C1034 1.334 . S
C1034 H1005 0.950 . S
C1034 C1033 1.334 . S
C1034 C1035 1.287 . S
C1035 C1034 1.287 . S
C1035 C1036 1.524 . S
C1035 H1038 0.999 . S
C1036 H1006 0.950 . S
C1036 C1035 1.524 . S
C1036 C1037 1.415 . S
C1037 H1007 0.950 . S
C1037 C1032 1.363 . S
C1037 C1036 1.415 . S
H1038 C1035 0.999 . S
H1039 C1020 0.913 . S
H1040 C1058 0.951 . S
H1041 C1060 0.951 . S
H1042 C1062 0.950 . S
H1043 C1063 0.950 . S
H1044 C1065 0.950 . S
H1045 C1068 0.950 . S
H1046 C1069 0.950 . S
H1047 C1071 0.950 . S
H1048 C1072 0.950 . S
H1049 C1073 0.951 . S
H1050 C1075 0.951 . S
H1051 C1077 0.950 . S
H1052 C1078 0.950 . S
H1053 C1080 0.950 . S
H1054 C1083 0.950 . S
H1055 C1084 0.950 . S
H1056 C1086 0.950 . S
H1057 C1087 0.950 . S
C1058 H1040 0.951 . S
C1058 C1059 1.366 . S
C1058 C1060 1.388 . S
C1059 C1058 1.366 . S
C1059 C1063 1.385 . S
C1060 H1041 0.951 . S
C1060 C1058 1.388 . S
C1060 C1061 1.366 . S
C1061 C1060 1.366 . S
C1061 C1062 1.414 . S
C1061 C1064 1.499 . S
C1062 H1042 0.950 . S
C1062 C1061 1.414 . S
C1062 C1063 1.374 . S
C1063 H1043 0.950 . S
C1063 C1059 1.385 . S
C1063 C1062 1.374 . S
C1064 C1061 1.499 . S
C1064 C1065 1.373 . S
C1064 C1066 1.389 . S
C1065 H1044 0.950 . S
C1065 C1064 1.373 . S
C1065 C1081 1.377 . S
C1066 C1064 1.389 . S
C1066 C1067 1.524 . S
C1066 C1080 1.377 . S
C1067 C1066 1.524 . S
C1067 C1068 1.397 . S
C1067 C1072 1.363 . S
C1068 H1045 0.950 . S
C1068 C1067 1.397 . S
C1068 C1069 1.334 . S
C1069 H1046 0.950 . S
C1069 C1068 1.334 . S
C1069 C1070 1.287 . S
C1070 C1069 1.287 . S
C1070 C1071 1.524 . S
C1070 H1089 0.913 . S
C1071 H1047 0.950 . S
C1071 C1070 1.524 . S
C1071 C1072 1.415 . S
C1072 H1048 0.950 . S
C1072 C1067 1.363 . S
C1072 C1071 1.415 . S
C1073 H1049 0.951 . S
C1073 C1074 1.366 . S
C1073 C1075 1.388 . S
C1074 C1073 1.366 . S
C1074 C1078 1.385 . S
C1075 H1050 0.951 . S
C1075 C1073 1.388 . S
C1075 C1076 1.366 . S
C1076 C1075 1.366 . S
C1076 C1077 1.414 . S
C1076 C1079 1.499 . S
C1077 H1051 0.950 . S
C1077 C1076 1.414 . S
C1077 C1078 1.374 . S
C1078 H1052 0.950 . S
C1078 C1074 1.385 . S
C1078 C1077 1.374 . S
C1079 C1076 1.499 . S
C1079 C1080 1.373 . S
C1079 C1081 1.389 . S
C1080 H1053 0.950 . S
C1080 C1066 1.377 . S
C1080 C1079 1.373 . S
C1081 C1065 1.377 . S
C1081 C1079 1.389 . S
C1081 C1082 1.524 . S
C1082 C1081 1.524 . S
C1082 C1083 1.397 . S
C1082 C1087 1.363 . S
C1083 H1054 0.950 . S
C1083 C1082 1.397 . S
C1083 C1084 1.334 . S
C1084 H1055 0.950 . S
C1084 C1083 1.334 . S
C1084 C1085 1.287 . S
C1085 C1084 1.287 . S
C1085 C1086 1.524 . S
C1085 H1088 0.999 . S
C1086 H1056 0.950 . S
C1086 C1085 1.524 . S
C1086 C1087 1.415 . S
C1087 H1057 0.950 . S
C1087 C1082 1.363 . S
C1087 C1086 1.415 . S
H1088 C1085 0.999 . S
H1089 C1070 0.913 . S
H1090 C1108 0.951 . S
H1091 C1110 0.951 . S
H1092 C1112 0.950 . S
H1093 C1113 0.950 . S
H1094 C1115 0.950 . S
H1095 C1118 0.950 . S
H1096 C1119 0.950 . S
H1097 C1121 0.950 . S
H1098 C1122 0.950 . S
H1099 C1123 0.951 . S
H1100 C1125 0.951 . S
H1101 C1127 0.950 . S
H1102 C1128 0.950 . S
H1103 C1130 0.950 . S
H1104 C1133 0.950 . S
H1105 C1134 0.950 . S
H1106 C1136 0.950 . S
H1107 C1137 0.950 . S
C1108 H1090 0.951 . S
C1108 C1109 1.366 . S
C1108 C1110 1.388 . S
C1109 C1108 1.366 . S
C1109 C1113 1.385 . S
C1110 H1091 0.951 . S
C1110 C1108 1.388 . S
C1110 C1111 1.366 . S
C1111 C1110 1.366 . S
C1111 C1112 1.414 . S
C1111 C1114 1.499 . S
C1112 H1092 0.950 . S
C1112 C1111 1.414 . S
C1112 C1113 1.374 . S
C1113 H1093 0.950 . S
C1113 C1109 1.385 . S
C1113 C1112 1.374 . S
C1114 C1111 1.499 . S
C1114 C1115 1.373 . S
C1114 C1116 1.389 . S
C1115 H1094 0.950 . S
C1115 C1114 1.373 . S
C1115 C1131 1.377 . S
C1116 C1114 1.389 . S
C1116 C1117 1.524 . S
C1116 C1130 1.377 . S
C1117 C1116 1.524 . S
C1117 C1118 1.397 . S
C1117 C1122 1.363 . S
C1118 H1095 0.950 . S
C1118 C1117 1.397 . S
C1118 C1119 1.334 . S
C1119 H1096 0.950 . S
C1119 C1118 1.334 . S
C1119 C1120 1.287 . S
C1120 C1119 1.287 . S
C1120 C1121 1.524 . S
C1120 H1139 0.913 . S
C1121 H1097 0.950 . S
C1121 C1120 1.524 . S
C1121 C1122 1.415 . S
C1122 H1098 0.950 . S
C1122 C1117 1.363 . S
C1122 C1121 1.415 . S
C1123 H1099 0.951 . S
C1123 C1124 1.366 . S
C1123 C1125 1.388 . S
C1124 C1123 1.366 . S
C1124 C1128 1.385 . S
C1125 H1100 0.951 . S
C1125 C1123 1.388 . S
C1125 C1126 1.366 . S
C1126 C1125 1.366 . S
C1126 C1127 1.414 . S
C1126 C1129 1.499 . S
C1127 H1101 0.950 . S
C1127 C1126 1.414 . S
C1127 C1128 1.374 . S
C1128 H1102 0.950 . S
C1128 C1124 1.385 . S
C1128 C1127 1.374 . S
C1129 C1126 1.499 . S
C1129 C1130 1.373 . S
C1129 C1131 1.389 . S
C1130 H1103 0.950 . S
C1130 C1116 1.377 . S
C1130 C1129 1.373 . S
C1131 C1115 1.377 . S
C1131 C1129 1.389 . S
C1131 C1132 1.524 . S
C1132 C1131 1.524 . S
C1132 C1133 1.397 . S
C1132 C1137 1.363 . S
C1133 H1104 0.950 . S
C1133 C1132 1.397 . S
C1133 C1134 1.334 . S
C1134 H1105 0.950 . S
C1134 C1133 1.334 . S
C1134 C1135 1.287 . S
C1135 C1134 1.287 . S
C1135 C1136 1.524 . S
C1135 H1138 0.999 . S
C1136 H1106 0.950 . S
C1136 C1135 1.524 . S
C1136 C1137 1.415 . S
C1137 H1107 0.950 . S
C1137 C1132 1.363 . S
C1137 C1136 1.415 . S
H1138 C1135 0.999 . S
H1139 C1120 0.913 . S
H1140 C1158 0.951 . S
H1141 C1160 0.951 . S
H1142 C1162 0.950 . S
H1143 C1163 0.950 . S
H1144 C1165 0.950 . S
H1145 C1168 0.950 . S
H1146 C1169 0.950 . S
H1147 C1171 0.950 . S
H1148 C1172 0.950 . S
H1149 C1173 0.951 1_455 S
H1150 C1175 0.951 . S
H1151 C1177 0.950 . S
H1152 C1178 0.950 . S
H1153 C1180 0.950 . S
H1154 C1183 0.950 . S
H1155 C1184 0.950 . S
H1156 C1186 0.946 . S
H1157 C1187 0.950 . S
C1158 H1140 0.951 . S
C1158 C1159 1.366 . S
C1158 C1160 1.388 . S
C1159 C1158 1.366 . S
C1159 C1163 1.385 . S
C1160 H1141 0.951 . S
C1160 C1158 1.388 . S
C1160 C1161 1.366 . S
C1161 C1160 1.366 . S
C1161 C1162 1.414 . S
C1161 C1164 1.499 . S
C1162 H1142 0.950 . S
C1162 C1161 1.414 . S
C1162 C1163 1.374 . S
C1163 H1143 0.950 . S
C1163 C1159 1.385 . S
C1163 C1162 1.374 . S
C1164 C1161 1.499 . S
C1164 C1165 1.373 . S
C1164 C1166 1.389 . S
C1165 H1144 0.950 . S
C1165 C1164 1.373 . S
C1165 C1181 1.377 . S
C1166 C1164 1.389 . S
C1166 C1167 1.524 . S
C1166 C1180 1.377 . S
C1167 C1166 1.524 . S
C1167 C1168 1.397 . S
C1167 C1172 1.363 . S
C1168 H1145 0.950 . S
C1168 C1167 1.397 . S
C1168 C1169 1.334 . S
C1169 H1146 0.950 . S
C1169 C1168 1.334 . S
C1169 C1170 1.287 . S
C1170 C1169 1.287 . S
C1170 C1171 1.524 . S
C1170 H1189 0.913 . S
C1171 H1147 0.950 . S
C1171 C1170 1.524 . S
C1171 C1172 1.415 . S
C1172 H1148 0.950 . S
C1172 C1167 1.363 . S
C1172 C1171 1.415 . S
C1173 H1149 0.951 1_655 S
C1173 C1174 1.366 . S
C1173 C1175 1.388 . S
C1174 C1173 1.366 . S
C1174 C1178 1.385 . S
C1175 H1150 0.951 . S
C1175 C1173 1.388 . S
C1175 C1176 1.366 . S
C1176 C1175 1.366 . S
C1176 C1177 1.414 . S
C1176 C1179 1.499 . S
C1177 H1151 0.950 . S
C1177 C1176 1.414 . S
C1177 C1178 1.374 . S
C1178 H1152 0.950 . S
C1178 C1174 1.385 . S
C1178 C1177 1.374 . S
C1179 C1176 1.499 . S
C1179 C1180 1.373 . S
C1179 C1181 1.389 . S
C1180 H1153 0.950 . S
C1180 C1166 1.377 . S
C1180 C1179 1.373 . S
C1181 C1165 1.377 . S
C1181 C1179 1.389 . S
C1181 C1182 1.524 . S
C1182 C1181 1.524 . S
C1182 C1183 1.397 . S
C1182 C1187 1.363 . S
C1183 H1154 0.950 . S
C1183 C1182 1.397 . S
C1183 C1184 1.334 . S
C1184 H1155 0.950 . S
C1184 C1183 1.334 . S
C1184 C1185 1.287 . S
C1185 C1184 1.287 . S
C1185 C1186 1.524 . S
C1185 H1188 0.999 . S
C1186 H1156 0.946 . S
C1186 C1185 1.524 . S
C1186 C1187 1.415 . S
C1187 H1157 0.950 . S
C1187 C1182 1.363 . S
C1187 C1186 1.415 . S
H1188 C1185 0.999 . S
H1189 C1170 0.913 . S
H1190 C1208 0.951 . S
H1191 C1210 0.951 . S
H1192 C1212 0.950 . S
H1193 C1213 0.950 . S
H1194 C1215 0.950 . S
H1195 C1218 0.950 . S
H1196 C1219 0.950 . S
H1197 C1221 0.950 . S
H1198 C1222 0.950 . S
H1199 C1223 0.951 . S
H1200 C1225 0.951 . S
H1201 C1227 0.950 . S
H1202 C1228 0.950 . S
H1203 C1230 0.950 . S
H1204 C1233 0.950 . S
H1205 C1234 0.950 . S
H1206 C1236 0.950 . S
H1207 C1237 0.950 . S
C1208 H1190 0.951 . S
C1208 C1209 1.366 . S
C1208 C1210 1.388 . S
C1209 C1208 1.366 . S
C1209 C1213 1.385 . S
C1210 H1191 0.951 . S
C1210 C1208 1.388 . S
C1210 C1211 1.366 . S
C1211 C1210 1.366 . S
C1211 C1212 1.414 . S
C1211 C1214 1.499 . S
C1212 H1192 0.950 . S
C1212 C1211 1.414 . S
C1212 C1213 1.374 . S
C1213 H1193 0.950 . S
C1213 C1209 1.385 . S
C1213 C1212 1.374 . S
C1214 C1211 1.499 . S
C1214 C1215 1.373 . S
C1214 C1216 1.389 . S
C1215 H1194 0.950 . S
C1215 C1214 1.373 . S
C1215 C1231 1.377 . S
C1216 C1214 1.389 . S
C1216 C1217 1.524 . S
C1216 C1230 1.377 . S
C1217 C1216 1.524 . S
C1217 C1218 1.397 . S
C1217 C1222 1.363 . S
C1218 H1195 0.950 . S
C1218 C1217 1.397 . S
C1218 C1219 1.334 . S
C1219 H1196 0.950 . S
C1219 C1218 1.334 . S
C1219 C1220 1.287 . S
C1220 C1219 1.287 . S
C1220 C1221 1.524 . S
C1220 H1239 0.913 . S
C1221 H1197 0.950 . S
C1221 C1220 1.524 . S
C1221 C1222 1.415 . S
C1222 H1198 0.950 . S
C1222 C1217 1.363 . S
C1222 C1221 1.415 . S
C1223 H1199 0.951 . S
C1223 C1224 1.366 . S
C1223 C1225 1.388 . S
C1224 C1223 1.366 . S
C1224 C1228 1.385 . S
C1225 H1200 0.951 . S
C1225 C1223 1.388 . S
C1225 C1226 1.366 . S
C1226 C1225 1.366 . S
C1226 C1227 1.414 . S
C1226 C1229 1.499 . S
C1227 H1201 0.950 . S
C1227 C1226 1.414 . S
C1227 C1228 1.374 . S
C1228 H1202 0.950 . S
C1228 C1224 1.385 . S
C1228 C1227 1.374 . S
C1229 C1226 1.499 . S
C1229 C1230 1.373 . S
C1229 C1231 1.389 . S
C1230 H1203 0.950 . S
C1230 C1216 1.377 . S
C1230 C1229 1.373 . S
C1231 C1215 1.377 . S
C1231 C1229 1.389 . S
C1231 C1232 1.524 . S
C1232 C1231 1.524 . S
C1232 C1233 1.397 . S
C1232 C1237 1.363 . S
C1233 H1204 0.950 . S
C1233 C1232 1.397 . S
C1233 C1234 1.334 . S
C1234 H1205 0.950 . S
C1234 C1233 1.334 . S
C1234 C1235 1.287 . S
C1235 C1234 1.287 . S
C1235 C1236 1.524 . S
C1235 H1238 0.999 . S
C1236 H1206 0.950 . S
C1236 C1235 1.524 . S
C1236 C1237 1.415 . S
C1237 H1207 0.950 . S
C1237 C1232 1.363 . S
C1237 C1236 1.415 . S
H1238 C1235 0.999 . S
H1239 C1220 0.913 . S
H1240 C1258 0.951 . S
H1241 C1260 0.951 . S
H1242 C1262 0.950 . S
H1243 C1263 0.950 . S
H1244 C1265 0.950 . S
H1245 C1268 0.950 . S
H1246 C1269 0.950 . S
H1247 C1271 0.950 . S
H1248 C1272 0.950 . S
H1249 C1273 0.951 . S
H1250 C1275 0.951 . S
H1251 C1277 0.950 . S
H1252 C1278 0.950 . S
H1253 C1280 0.950 . S
H1254 C1283 0.950 . S
H1255 C1284 0.950 . S
H1256 C1286 0.950 . S
H1257 C1287 0.950 . S
C1258 H1240 0.951 . S
C1258 C1259 1.366 . S
C1258 C1260 1.388 . S
C1259 C1258 1.366 . S
C1259 C1263 1.385 . S
C1260 H1241 0.951 . S
C1260 C1258 1.388 . S
C1260 C1261 1.366 . S
C1261 C1260 1.366 . S
C1261 C1262 1.414 . S
C1261 C1264 1.499 . S
C1262 H1242 0.950 . S
C1262 C1261 1.414 . S
C1262 C1263 1.374 . S
C1263 H1243 0.950 . S
C1263 C1259 1.385 . S
C1263 C1262 1.374 . S
C1264 C1261 1.499 . S
C1264 C1265 1.373 . S
C1264 C1266 1.389 . S
C1265 H1244 0.950 . S
C1265 C1264 1.373 . S
C1265 C1281 1.377 . S
C1266 C1264 1.389 . S
C1266 C1267 1.524 . S
C1266 C1280 1.377 . S
C1267 C1266 1.524 . S
C1267 C1268 1.397 . S
C1267 C1272 1.363 . S
C1268 H1245 0.950 . S
C1268 C1267 1.397 . S
C1268 C1269 1.334 . S
C1269 H1246 0.950 . S
C1269 C1268 1.334 . S
C1269 C1270 1.287 . S
C1270 C1269 1.287 . S
C1270 C1271 1.524 . S
C1270 H1289 0.913 . S
C1271 H1247 0.950 . S
C1271 C1270 1.524 . S
C1271 C1272 1.415 . S
C1272 H1248 0.950 . S
C1272 C1267 1.363 . S
C1272 C1271 1.415 . S
C1273 H1249 0.951 . S
C1273 C1274 1.366 . S
C1273 C1275 1.388 . S
C1274 C1273 1.366 . S
C1274 C1278 1.385 . S
C1275 H1250 0.951 . S
C1275 C1273 1.388 . S
C1275 C1276 1.366 . S
C1276 C1275 1.366 . S
C1276 C1277 1.414 . S
C1276 C1279 1.499 . S
C1277 H1251 0.950 . S
C1277 C1276 1.414 . S
C1277 C1278 1.374 . S
C1278 H1252 0.950 . S
C1278 C1274 1.385 . S
C1278 C1277 1.374 . S
C1279 C1276 1.499 . S
C1279 C1280 1.373 . S
C1279 C1281 1.389 . S
C1280 H1253 0.950 . S
C1280 C1266 1.377 . S
C1280 C1279 1.373 . S
C1281 C1265 1.377 . S
C1281 C1279 1.389 . S
C1281 C1282 1.524 . S
C1282 C1281 1.524 . S
C1282 C1283 1.397 . S
C1282 C1287 1.363 . S
C1283 H1254 0.950 . S
C1283 C1282 1.397 . S
C1283 C1284 1.334 . S
C1284 H1255 0.950 . S
C1284 C1283 1.334 . S
C1284 C1285 1.287 . S
C1285 C1284 1.287 . S
C1285 C1286 1.524 . S
C1285 H1288 0.999 . S
C1286 H1256 0.950 . S
C1286 C1285 1.524 . S
C1286 C1287 1.415 . S
C1287 H1257 0.950 . S
C1287 C1282 1.363 . S
C1287 C1286 1.415 . S
H1288 C1285 0.999 . S
H1289 C1270 0.913 . S
H1290 C1308 0.951 . S
H1291 C1310 0.951 . S
H1292 C1312 0.950 . S
H1293 C1313 0.950 . S
H1294 C1315 0.950 . S
H1295 C1318 0.950 . S
H1296 C1319 0.950 . S
H1297 C1321 0.950 . S
H1298 C1322 0.950 . S
H1299 C1323 0.951 . S
H1300 C1325 0.951 . S
H1301 C1327 0.950 . S
H1302 C1328 0.950 . S
H1303 C1330 0.950 . S
H1304 C1333 0.950 . S
H1305 C1334 0.950 . S
H1306 C1336 0.950 . S
H1307 C1337 0.950 . S
C1308 H1290 0.951 . S
C1308 C1309 1.366 . S
C1308 C1310 1.388 . S
C1309 C1308 1.366 . S
C1309 C1313 1.385 . S
C1310 H1291 0.951 . S
C1310 C1308 1.388 . S
C1310 C1311 1.366 . S
C1311 C1310 1.366 . S
C1311 C1312 1.414 . S
C1311 C1314 1.499 . S
C1312 H1292 0.950 . S
C1312 C1311 1.414 . S
C1312 C1313 1.374 . S
C1313 H1293 0.950 . S
C1313 C1309 1.385 . S
C1313 C1312 1.374 . S
C1314 C1311 1.499 . S
C1314 C1315 1.373 . S
C1314 C1316 1.389 . S
C1315 H1294 0.950 . S
C1315 C1314 1.373 . S
C1315 C1331 1.377 . S
C1316 C1314 1.389 . S
C1316 C1317 1.524 . S
C1316 C1330 1.377 . S
C1317 C1316 1.524 . S
C1317 C1318 1.397 . S
C1317 C1322 1.363 . S
C1318 H1295 0.950 . S
C1318 C1317 1.397 . S
C1318 C1319 1.334 . S
C1319 H1296 0.950 . S
C1319 C1318 1.334 . S
C1319 C1320 1.287 . S
C1320 C1319 1.287 . S
C1320 C1321 1.524 . S
C1320 H1339 0.913 . S
C1321 H1297 0.950 . S
C1321 C1320 1.524 . S
C1321 C1322 1.415 . S
C1322 H1298 0.950 . S
C1322 C1317 1.363 . S
C1322 C1321 1.415 . S
C1323 H1299 0.951 . S
C1323 C1324 1.366 . S
C1323 C1325 1.388 . S
C1324 C1323 1.366 . S
C1324 C1328 1.385 . S
C1325 H1300 0.951 . S
C1325 C1323 1.388 . S
C1325 C1326 1.366 . S
C1326 C1325 1.366 . S
C1326 C1327 1.414 . S
C1326 C1329 1.499 . S
C1327 H1301 0.950 . S
C1327 C1326 1.414 . S
C1327 C1328 1.374 . S
C1328 H1302 0.950 . S
C1328 C1324 1.385 . S
C1328 C1327 1.374 . S
C1329 C1326 1.499 . S
C1329 C1330 1.373 . S
C1329 C1331 1.389 . S
C1330 H1303 0.950 . S
C1330 C1316 1.377 . S
C1330 C1329 1.373 . S
C1331 C1315 1.377 . S
C1331 C1329 1.389 . S
C1331 C1332 1.524 . S
C1332 C1331 1.524 . S
C1332 C1333 1.397 . S
C1332 C1337 1.363 . S
C1333 H1304 0.950 . S
C1333 C1332 1.397 . S
C1333 C1334 1.334 . S
C1334 H1305 0.950 . S
C1334 C1333 1.334 . S
C1334 C1335 1.287 . S
C1335 C1334 1.287 . S
C1335 C1336 1.524 . S
C1335 H1338 0.999 . S
C1336 H1306 0.950 . S
C1336 C1335 1.524 . S
C1336 C1337 1.415 . S
C1337 H1307 0.950 . S
C1337 C1332 1.363 . S
C1337 C1336 1.415 . S
H1338 C1335 0.999 . S
H1339 C1320 0.913 . S
H1340 C1358 0.951 . S
H1341 C1360 0.951 . S
H1342 C1362 0.950 . S
H1343 C1363 0.950 . S
H1344 C1365 0.950 . S
H1345 C1368 0.950 . S
H1346 C1369 0.950 . S
H1347 C1371 0.950 . S
H1348 C1372 0.950 . S
H1349 C1373 0.951 . S
H1350 C1375 0.951 . S
H1351 C1377 0.950 . S
H1352 C1378 0.950 . S
H1353 C1380 0.950 . S
H1354 C1383 0.950 . S
H1355 C1384 0.950 . S
H1356 C1386 0.950 . S
H1357 C1387 0.950 . S
C1358 H1340 0.951 . S
C1358 C1359 1.366 . S
C1358 C1360 1.388 . S
C1359 C1358 1.366 . S
C1359 C1363 1.385 . S
C1360 H1341 0.951 . S
C1360 C1358 1.388 . S
C1360 C1361 1.366 . S
C1361 C1360 1.366 . S
C1361 C1362 1.414 . S
C1361 C1364 1.499 . S
C1362 H1342 0.950 . S
C1362 C1361 1.414 . S
C1362 C1363 1.374 . S
C1363 H1343 0.950 . S
C1363 C1359 1.385 . S
C1363 C1362 1.374 . S
C1364 C1361 1.499 . S
C1364 C1365 1.373 . S
C1364 C1366 1.389 . S
C1365 H1344 0.950 . S
C1365 C1364 1.373 . S
C1365 C1381 1.377 . S
C1366 C1364 1.389 . S
C1366 C1367 1.524 . S
C1366 C1380 1.377 . S
C1367 C1366 1.524 . S
C1367 C1368 1.397 . S
C1367 C1372 1.363 . S
C1368 H1345 0.950 . S
C1368 C1367 1.397 . S
C1368 C1369 1.334 . S
C1369 H1346 0.950 . S
C1369 C1368 1.334 . S
C1369 C1370 1.287 . S
C1370 C1369 1.287 . S
C1370 C1371 1.524 . S
C1370 H1389 0.913 . S
C1371 H1347 0.950 . S
C1371 C1370 1.524 . S
C1371 C1372 1.415 . S
C1372 H1348 0.950 . S
C1372 C1367 1.363 . S
C1372 C1371 1.415 . S
C1373 H1349 0.951 . S
C1373 C1374 1.366 . S
C1373 C1375 1.388 . S
C1374 C1373 1.366 . S
C1374 C1378 1.385 . S
C1375 H1350 0.951 . S
C1375 C1373 1.388 . S
C1375 C1376 1.366 . S
C1376 C1375 1.366 . S
C1376 C1377 1.414 . S
C1376 C1379 1.499 . S
C1377 H1351 0.950 . S
C1377 C1376 1.414 . S
C1377 C1378 1.374 . S
C1378 H1352 0.950 . S
C1378 C1374 1.385 . S
C1378 C1377 1.374 . S
C1379 C1376 1.499 . S
C1379 C1380 1.373 . S
C1379 C1381 1.389 . S
C1380 H1353 0.950 . S
C1380 C1366 1.377 . S
C1380 C1379 1.373 . S
C1381 C1365 1.377 . S
C1381 C1379 1.389 . S
C1381 C1382 1.524 . S
C1382 C1381 1.524 . S
C1382 C1383 1.397 . S
C1382 C1387 1.363 . S
C1383 H1354 0.950 . S
C1383 C1382 1.397 . S
C1383 C1384 1.334 . S
C1384 H1355 0.950 . S
C1384 C1383 1.334 . S
C1384 C1385 1.287 . S
C1385 C1384 1.287 . S
C1385 C1386 1.524 . S
C1385 H1388 0.999 . S
C1386 H1356 0.950 . S
C1386 C1385 1.524 . S
C1386 C1387 1.415 . S
C1387 H1357 0.950 . S
C1387 C1382 1.363 . S
C1387 C1386 1.415 . S
H1388 C1385 0.999 . S
H1389 C1370 0.913 . S
H1390 C1408 0.951 . S
H1391 C1410 0.951 . S
H1392 C1412 0.950 . S
H1393 C1413 0.950 . S
H1394 C1415 0.950 . S
H1395 C1418 0.950 . S
H1396 C1419 0.950 . S
H1397 C1421 0.950 . S
H1398 C1422 0.950 . S
H1399 C1423 0.951 . S
H1400 C1425 0.951 . S
H1401 C1427 0.950 . S
H1402 C1428 0.950 . S
H1403 C1430 0.950 . S
H1404 C1433 0.950 . S
H1405 C1434 0.950 1_655 S
H1406 C1436 0.950 . S
H1407 C1437 0.950 . S
C1408 H1390 0.951 . S
C1408 C1409 1.366 . S
C1408 C1410 1.388 . S
C1409 C1408 1.366 . S
C1409 C1413 1.385 . S
C1410 H1391 0.951 . S
C1410 C1408 1.388 . S
C1410 C1411 1.366 . S
C1411 C1410 1.366 . S
C1411 C1412 1.414 . S
C1411 C1414 1.499 . S
C1412 H1392 0.950 . S
C1412 C1411 1.414 . S
C1412 C1413 1.374 . S
C1413 H1393 0.950 . S
C1413 C1409 1.385 . S
C1413 C1412 1.374 . S
C1414 C1411 1.499 . S
C1414 C1415 1.373 . S
C1414 C1416 1.389 . S
C1415 H1394 0.950 . S
C1415 C1414 1.373 . S
C1415 C1431 1.377 . S
C1416 C1414 1.389 . S
C1416 C1417 1.524 . S
C1416 C1430 1.377 . S
C1417 C1416 1.524 . S
C1417 C1418 1.397 . S
C1417 C1422 1.363 . S
C1418 H1395 0.950 . S
C1418 C1417 1.397 . S
C1418 C1419 1.334 . S
C1419 H1396 0.950 . S
C1419 C1418 1.334 . S
C1419 C1420 1.287 . S
C1420 C1419 1.287 . S
C1420 C1421 1.524 . S
C1420 H1439 0.913 . S
C1421 H1397 0.950 . S
C1421 C1420 1.524 . S
C1421 C1422 1.415 . S
C1422 H1398 0.950 . S
C1422 C1417 1.363 . S
C1422 C1421 1.415 . S
C1423 H1399 0.951 . S
C1423 C1424 1.366 . S
C1423 C1425 1.388 . S
C1424 C1423 1.366 . S
C1424 C1428 1.385 . S
C1425 H1400 0.951 . S
C1425 C1423 1.388 . S
C1425 C1426 1.366 . S
C1426 C1425 1.366 . S
C1426 C1427 1.414 . S
C1426 C1429 1.499 . S
C1427 H1401 0.950 . S
C1427 C1426 1.414 . S
C1427 C1428 1.374 . S
C1428 H1402 0.950 . S
C1428 C1424 1.385 . S
C1428 C1427 1.374 . S
C1429 C1426 1.499 . S
C1429 C1430 1.373 . S
C1429 C1431 1.389 . S
C1430 H1403 0.950 . S
C1430 C1416 1.377 . S
C1430 C1429 1.373 . S
C1431 C1415 1.377 . S
C1431 C1429 1.389 . S
C1431 C1432 1.524 . S
C1432 C1431 1.524 . S
C1432 C1433 1.397 . S
C1432 C1437 1.363 . S
C1433 H1404 0.950 . S
C1433 C1432 1.397 . S
C1433 C1434 1.334 . S
C1434 H1405 0.950 1_455 S
C1434 C1433 1.334 . S
C1434 C1435 1.287 . S
C1435 C1434 1.287 . S
C1435 C1436 1.524 . S
C1435 H1438 0.999 . S
C1436 H1406 0.950 . S
C1436 C1435 1.524 . S
C1436 C1437 1.415 . S
C1437 H1407 0.950 . S
C1437 C1432 1.363 . S
C1437 C1436 1.415 . S
H1438 C1435 0.999 . S
H1439 C1420 0.913 . S
H1440 C1458 0.951 . S
H1441 C1460 0.951 . S
H1442 C1462 0.950 . S
H1443 C1463 0.950 . S
H1444 C1465 0.950 . S
H1445 C1468 0.950 . S
H1446 C1469 0.950 . S
H1447 C1471 0.950 . S
H1448 C1472 0.950 . S
H1449 C1473 0.951 . S
H1450 C1475 0.951 . S
H1451 C1477 0.950 . S
H1452 C1478 0.950 . S
H1453 C1480 0.950 . S
H1454 C1483 0.950 . S
H1455 C1484 0.983 . S
H1456 C1486 0.950 . S
H1457 C1487 0.950 . S
C1458 H1440 0.951 . S
C1458 C1459 1.366 . S
C1458 C1460 1.388 . S
C1459 C1458 1.366 . S
C1459 C1463 1.385 . S
C1460 H1441 0.951 . S
C1460 C1458 1.388 . S
C1460 C1461 1.366 . S
C1461 C1460 1.366 . S
C1461 C1462 1.414 . S
C1461 C1464 1.499 . S
C1462 H1442 0.950 . S
C1462 C1461 1.414 . S
C1462 C1463 1.374 . S
C1463 H1443 0.950 . S
C1463 C1459 1.385 . S
C1463 C1462 1.374 . S
C1464 C1461 1.499 . S
C1464 C1465 1.373 . S
C1464 C1466 1.389 . S
C1465 H1444 0.950 . S
C1465 C1464 1.373 . S
C1465 C1481 1.377 . S
C1466 C1464 1.389 . S
C1466 C1467 1.524 . S
C1466 C1480 1.377 . S
C1467 C1466 1.524 . S
C1467 C1468 1.397 . S
C1467 C1472 1.363 . S
C1468 H1445 0.950 . S
C1468 C1467 1.397 . S
C1468 C1469 1.334 . S
C1469 H1446 0.950 . S
C1469 C1468 1.334 . S
C1469 C1470 1.287 . S
C1470 C1469 1.287 . S
C1470 C1471 1.524 . S
C1470 H1489 0.913 . S
C1471 H1447 0.950 . S
C1471 C1470 1.524 . S
C1471 C1472 1.415 . S
C1472 H1448 0.950 . S
C1472 C1467 1.363 . S
C1472 C1471 1.415 . S
C1473 H1449 0.951 . S
C1473 C1474 1.366 . S
C1473 C1475 1.388 . S
C1474 C1473 1.366 . S
C1474 C1478 1.385 . S
C1475 H1450 0.951 . S
C1475 C1473 1.388 . S
C1475 C1476 1.366 . S
C1476 C1475 1.366 . S
C1476 C1477 1.414 . S
C1476 C1479 1.499 . S
C1477 H1451 0.950 . S
C1477 C1476 1.414 . S
C1477 C1478 1.374 . S
C1478 H1452 0.950 . S
C1478 C1474 1.385 . S
C1478 C1477 1.374 . S
C1479 C1476 1.499 . S
C1479 C1480 1.373 . S
C1479 C1481 1.389 . S
C1480 H1453 0.950 . S
C1480 C1466 1.377 . S
C1480 C1479 1.373 . S
C1481 C1465 1.377 . S
C1481 C1479 1.389 . S
C1481 C1482 1.524 . S
C1482 C1481 1.524 . S
C1482 C1483 1.397 . S
C1482 C1487 1.363 . S
C1483 H1454 0.950 . S
C1483 C1482 1.397 . S
C1483 C1484 1.334 . S
C1484 H1455 0.983 . S
C1484 C1483 1.334 . S
C1484 C1485 1.287 . S
C1485 C1484 1.287 . S
C1485 C1486 1.524 . S
C1485 H1488 0.999 . S
C1486 H1456 0.950 . S
C1486 C1485 1.524 . S
C1486 C1487 1.415 . S
C1487 H1457 0.950 . S
C1487 C1482 1.363 . S
C1487 C1486 1.415 . S
H1488 C1485 0.999 . S
H1489 C1470 0.913 . S
H1490 C1508 0.951 . S
H1491 C1510 0.951 . S
H1492 C1512 0.950 . S
H1493 C1513 0.950 . S
H1494 C1515 0.950 . S
H1495 C1518 0.950 . S
H1496 C1519 0.950 . S
H1497 C1521 0.974 . S
H1498 C1522 0.950 . S
H1499 C1523 0.951 . S
H1500 C1525 0.951 . S
H1501 C1527 0.950 . S
H1502 C1528 0.950 . S
H1503 C1530 0.950 . S
H1504 C1533 0.950 . S
H1505 C1534 0.950 . S
H1506 C1536 0.950 . S
H1507 C1537 0.950 . S
C1508 H1490 0.951 . S
C1508 C1509 1.366 . S
C1508 C1510 1.388 . S
C1509 C1508 1.366 . S
C1509 C1513 1.385 . S
C1510 H1491 0.951 . S
C1510 C1508 1.388 . S
C1510 C1511 1.366 . S
C1511 C1510 1.366 . S
C1511 C1512 1.414 . S
C1511 C1514 1.499 . S
C1512 H1492 0.950 . S
C1512 C1511 1.414 . S
C1512 C1513 1.374 . S
C1513 H1493 0.950 . S
C1513 C1509 1.385 . S
C1513 C1512 1.374 . S
C1514 C1511 1.499 . S
C1514 C1515 1.373 . S
C1514 C1516 1.389 . S
C1515 H1494 0.950 . S
C1515 C1514 1.373 . S
C1515 C1531 1.377 . S
C1516 C1514 1.389 . S
C1516 C1517 1.524 . S
C1516 C1530 1.377 . S
C1517 C1516 1.524 . S
C1517 C1518 1.397 . S
C1517 C1522 1.363 . S
C1518 H1495 0.950 . S
C1518 C1517 1.397 . S
C1518 C1519 1.334 . S
C1519 H1496 0.950 . S
C1519 C1518 1.334 . S
C1519 C1520 1.287 . S
C1520 C1519 1.287 . S
C1520 C1521 1.514 1_655 S
C1520 H1539 0.915 1_655 S
C1521 H1497 0.974 . S
C1521 C1520 1.514 1_455 S
C1521 C1522 1.398 1_455 S
C1522 H1498 0.950 . S
C1522 C1517 1.363 . S
C1522 C1521 1.398 1_655 S
C1523 H1499 0.951 . S
C1523 C1524 1.366 . S
C1523 C1525 1.388 . S
C1524 C1523 1.366 . S
C1524 C1528 1.385 . S
C1525 H1500 0.951 . S
C1525 C1523 1.388 . S
C1525 C1526 1.366 . S
C1526 C1525 1.366 . S
C1526 C1527 1.414 . S
C1526 C1529 1.499 . S
C1527 H1501 0.950 . S
C1527 C1526 1.414 . S
C1527 C1528 1.374 . S
C1528 H1502 0.950 . S
C1528 C1524 1.385 . S
C1528 C1527 1.374 . S
C1529 C1526 1.499 . S
C1529 C1530 1.373 . S
C1529 C1531 1.389 . S
C1530 H1503 0.950 . S
C1530 C1516 1.377 . S
C1530 C1529 1.373 . S
C1531 C1515 1.377 . S
C1531 C1529 1.389 . S
C1531 C1532 1.524 . S
C1532 C1531 1.524 . S
C1532 C1533 1.397 . S
C1532 C1537 1.363 . S
C1533 H1504 0.950 . S
C1533 C1532 1.397 . S
C1533 C1534 1.334 . S
C1534 H1505 0.950 . S
C1534 C1533 1.334 . S
C1534 C1535 1.287 . S
C1535 C1534 1.287 . S
C1535 C1536 1.524 . S
C1535 H1538 0.999 . S
C1536 H1506 0.950 . S
C1536 C1535 1.524 . S
C1536 C1537 1.415 . S
C1537 H1507 0.950 . S
C1537 C1532 1.363 . S
C1537 C1536 1.415 . S
H1538 C1535 0.999 . S
H1539 C1520 0.915 1_455 S
H1540 C1558 0.951 . S
H1541 C1560 0.951 . S
H1542 C1562 0.950 . S
H1543 C1563 0.950 . S
H1544 C1565 0.950 . S
H1545 C1568 0.950 . S
H1546 C1569 0.950 . S
H1547 C1571 0.950 . S
H1548 C1572 0.950 . S
H1549 C1573 0.951 . S
H1550 C1575 0.951 . S
H1551 C1577 0.950 . S
H1552 C1578 0.950 1_556 S
H1553 C1580 0.950 . S
H1554 C1583 0.950 . S
H1555 C1584 0.950 . S
H1556 C1586 0.950 . S
H1557 C1587 0.950 . S
C1558 H1540 0.951 . S
C1558 C1559 1.366 . S
C1558 C1560 1.388 . S
C1559 C1558 1.366 . S
C1559 C1563 1.385 . S
C1560 H1541 0.951 . S
C1560 C1558 1.388 . S
C1560 C1561 1.366 . S
C1561 C1560 1.366 . S
C1561 C1562 1.414 . S
C1561 C1564 1.499 . S
C1562 H1542 0.950 . S
C1562 C1561 1.414 . S
C1562 C1563 1.374 . S
C1563 H1543 0.950 . S
C1563 C1559 1.385 . S
C1563 C1562 1.374 . S
C1564 C1561 1.499 . S
C1564 C1565 1.373 . S
C1564 C1566 1.389 . S
C1565 H1544 0.950 . S
C1565 C1564 1.373 . S
C1565 C1581 1.377 . S
C1566 C1564 1.389 . S
C1566 C1567 1.524 . S
C1566 C1580 1.377 . S
C1567 C1566 1.524 . S
C1567 C1568 1.397 . S
C1567 C1572 1.363 . S
C1568 H1545 0.950 . S
C1568 C1567 1.397 . S
C1568 C1569 1.334 . S
C1569 H1546 0.950 . S
C1569 C1568 1.334 . S
C1569 C1570 1.287 . S
C1570 C1569 1.287 . S
C1570 C1571 1.524 . S
C1570 H1589 0.913 . S
C1571 H1547 0.950 . S
C1571 C1570 1.524 . S
C1571 C1572 1.415 . S
C1572 H1548 0.950 . S
C1572 C1567 1.363 . S
C1572 C1571 1.415 . S
C1573 H1549 0.951 . S
C1573 C1574 1.366 . S
C1573 C1575 1.388 . S
C1574 C1573 1.366 . S
C1574 C1578 1.385 . S
C1575 H1550 0.951 . S
C1575 C1573 1.388 . S
C1575 C1576 1.366 . S
C1576 C1575 1.366 . S
C1576 C1577 1.414 . S
C1576 C1579 1.499 . S
C1577 H1551 0.950 . S
C1577 C1576 1.414 . S
C1577 C1578 1.374 . S
C1578 H1552 0.950 1_554 S
C1578 C1574 1.385 . S
C1578 C1577 1.374 . S
C1579 C1576 1.499 . S
C1579 C1580 1.373 . S
C1579 C1581 1.389 . S
C1580 H1553 0.950 . S
C1580 C1566 1.377 . S
C1580 C1579 1.373 . S
C1581 C1565 1.377 . S
C1581 C1579 1.389 . S
C1581 C1582 1.524 . S
C1582 C1581 1.524 . S
C1582 C1583 1.397 . S
C1582 C1587 1.363 . S
C1583 H1554 0.950 . S
C1583 C1582 1.397 . S
C1583 C1584 1.334 . S
C1584 H1555 0.950 . S
C1584 C1583 1.334 . S
C1584 C1585 1.287 . S
C1585 C1584 1.287 . S
C1585 C1586 1.524 . S
C1585 H1588 0.999 . S
C1586 H1556 0.950 . S
C1586 C1585 1.524 . S
C1586 C1587 1.415 . S
C1587 H1557 0.950 . S
C1587 C1582 1.363 . S
C1587 C1586 1.415 . S
H1588 C1585 0.999 . S
H1589 C1570 0.913 . S
H1590 C1608 0.951 . S
H1591 C1610 0.951 . S
H1592 C1612 0.950 . S
H1593 C1613 0.950 . S
H1594 C1615 0.950 . S
H1595 C1618 0.950 . S
H1596 C1619 0.950 . S
H1597 C1621 0.950 . S
H1598 C1622 0.950 . S
H1599 C1623 0.951 . S
H1600 C1625 0.951 . S
H1601 C1627 0.950 . S
H1602 C1628 0.950 . S
H1603 C1630 0.950 . S
H1604 C1633 0.950 . S
H1605 C1634 0.950 . S
H1606 C1636 0.950 . S
H1607 C1637 0.950 . S
C1608 H1590 0.951 . S
C1608 C1609 1.366 . S
C1608 C1610 1.388 . S
C1609 C1608 1.366 . S
C1609 C1613 1.385 . S
C1610 H1591 0.951 . S
C1610 C1608 1.388 . S
C1610 C1611 1.366 . S
C1611 C1610 1.366 . S
C1611 C1612 1.414 . S
C1611 C1614 1.499 . S
C1612 H1592 0.950 . S
C1612 C1611 1.414 . S
C1612 C1613 1.374 . S
C1613 H1593 0.950 . S
C1613 C1609 1.385 . S
C1613 C1612 1.374 . S
C1614 C1611 1.499 . S
C1614 C1615 1.373 . S
C1614 C1616 1.389 . S
C1615 H1594 0.950 . S
C1615 C1614 1.373 . S
C1615 C1631 1.377 . S
C1616 C1614 1.389 . S
C1616 C1617 1.524 . S
C1616 C1630 1.377 . S
C1617 C1616 1.524 . S
C1617 C1618 1.397 . S
C1617 C1622 1.363 . S
C1618 H1595 0.950 . S
C1618 C1617 1.397 . S
C1618 C1619 1.334 . S
C1619 H1596 0.950 . S
C1619 C1618 1.334 . S
C1619 C1620 1.287 . S
C1620 C1619 1.287 . S
C1620 C1621 1.524 . S
C1620 H1639 0.913 . S
C1621 H1597 0.950 . S
C1621 C1620 1.524 . S
C1621 C1622 1.415 . S
C1622 H1598 0.950 . S
C1622 C1617 1.363 . S
C1622 C1621 1.415 . S
C1623 H1599 0.951 . S
C1623 C1624 1.366 . S
C1623 C1625 1.388 . S
C1624 C1623 1.366 . S
C1624 C1628 1.385 . S
C1625 H1600 0.951 . S
C1625 C1623 1.388 . S
C1625 C1626 1.366 . S
C1626 C1625 1.366 . S
C1626 C1627 1.414 . S
C1626 C1629 1.499 . S
C1627 H1601 0.950 . S
C1627 C1626 1.414 . S
C1627 C1628 1.374 . S
C1628 H1602 0.950 . S
C1628 C1624 1.385 . S
C1628 C1627 1.374 . S
C1629 C1626 1.499 . S
C1629 C1630 1.373 . S
C1629 C1631 1.389 . S
C1630 H1603 0.950 . S
C1630 C1616 1.377 . S
C1630 C1629 1.373 . S
C1631 C1615 1.377 . S
C1631 C1629 1.389 . S
C1631 C1632 1.524 . S
C1632 C1631 1.524 . S
C1632 C1633 1.397 . S
C1632 C1637 1.363 . S
C1633 H1604 0.950 . S
C1633 C1632 1.397 . S
C1633 C1634 1.334 . S
C1634 H1605 0.950 . S
C1634 C1633 1.334 . S
C1634 C1635 1.287 . S
C1635 C1634 1.287 . S
C1635 C1636 1.524 . S
C1635 H1638 0.999 . S
C1636 H1606 0.950 . S
C1636 C1635 1.524 . S
C1636 C1637 1.415 . S
C1637 H1607 0.950 . S
C1637 C1632 1.363 . S
C1637 C1636 1.415 . S
H1638 C1635 0.999 . S
H1639 C1620 0.913 . S
H1640 C1658 0.951 . S
H1641 C1660 0.951 . S
H1642 C1662 0.950 . S
H1643 C1663 0.950 . S
H1644 C1665 0.950 . S
H1645 C1668 0.950 . S
H1646 C1669 0.950 . S
H1647 C1671 0.950 . S
H1648 C1672 0.950 . S
H1649 C1673 0.951 . S
H1650 C1675 0.951 . S
H1651 C1677 0.950 . S
H1652 C1678 0.950 . S
H1653 C1680 0.950 . S
H1654 C1683 0.950 . S
H1655 C1684 0.950 . S
H1656 C1686 0.950 . S
H1657 C1687 0.950 . S
C1658 H1640 0.951 . S
C1658 C1659 1.366 . S
C1658 C1660 1.388 . S
C1659 C1658 1.366 . S
C1659 C1663 1.385 . S
C1660 H1641 0.951 . S
C1660 C1658 1.388 . S
C1660 C1661 1.366 . S
C1661 C1660 1.366 . S
C1661 C1662 1.414 . S
C1661 C1664 1.499 . S
C1662 H1642 0.950 . S
C1662 C1661 1.414 . S
C1662 C1663 1.374 . S
C1663 H1643 0.950 . S
C1663 C1659 1.385 . S
C1663 C1662 1.374 . S
C1664 C1661 1.499 . S
C1664 C1665 1.373 . S
C1664 C1666 1.389 . S
C1665 H1644 0.950 . S
C1665 C1664 1.373 . S
C1665 C1681 1.377 . S
C1666 C1664 1.389 . S
C1666 C1667 1.524 . S
C1666 C1680 1.377 . S
C1667 C1666 1.524 . S
C1667 C1668 1.397 . S
C1667 C1672 1.363 . S
C1668 H1645 0.950 . S
C1668 C1667 1.397 . S
C1668 C1669 1.334 . S
C1669 H1646 0.950 . S
C1669 C1668 1.334 . S
C1669 C1670 1.287 . S
C1670 C1669 1.287 . S
C1670 C1671 1.524 . S
C1670 H1689 0.913 . S
C1671 H1647 0.950 . S
C1671 C1670 1.524 . S
C1671 C1672 1.415 . S
C1672 H1648 0.950 . S
C1672 C1667 1.363 . S
C1672 C1671 1.415 . S
C1673 H1649 0.951 . S
C1673 C1674 1.366 . S
C1673 C1675 1.388 . S
C1674 C1673 1.366 . S
C1674 C1678 1.385 . S
C1675 H1650 0.951 . S
C1675 C1673 1.388 . S
C1675 C1676 1.366 . S
C1676 C1675 1.366 . S
C1676 C1677 1.414 . S
C1676 C1679 1.499 . S
C1677 H1651 0.950 . S
C1677 C1676 1.414 . S
C1677 C1678 1.374 . S
C1678 H1652 0.950 . S
C1678 C1674 1.385 . S
C1678 C1677 1.374 . S
C1679 C1676 1.499 . S
C1679 C1680 1.373 . S
C1679 C1681 1.389 . S
C1680 H1653 0.950 . S
C1680 C1666 1.377 . S
C1680 C1679 1.373 . S
C1681 C1665 1.377 . S
C1681 C1679 1.389 . S
C1681 C1682 1.524 . S
C1682 C1681 1.524 . S
C1682 C1683 1.397 . S
C1682 C1687 1.363 . S
C1683 H1654 0.950 . S
C1683 C1682 1.397 . S
C1683 C1684 1.334 . S
C1684 H1655 0.950 . S
C1684 C1683 1.334 . S
C1684 C1685 1.287 . S
C1685 C1684 1.287 . S
C1685 C1686 1.524 . S
C1685 H1688 0.999 . S
C1686 H1656 0.950 . S
C1686 C1685 1.524 . S
C1686 C1687 1.415 . S
C1687 H1657 0.950 . S
C1687 C1682 1.363 . S
C1687 C1686 1.415 . S
H1688 C1685 0.999 . S
H1689 C1670 0.913 . S
H1690 C1708 0.951 . S
H1691 C1710 0.951 . S
H1692 C1712 0.950 . S
H1693 C1713 0.950 . S
H1694 C1715 0.950 . S
H1695 C1718 0.950 . S
H1696 C1719 0.950 . S
H1697 C1721 0.950 . S
H1698 C1722 0.950 . S
H1699 C1723 0.951 . S
H1700 C1725 0.951 . S
H1701 C1727 0.950 . S
H1702 C1728 0.950 . S
H1703 C1730 0.950 . S
H1704 C1733 0.950 . S
H1705 C1734 0.950 . S
H1706 C1736 0.950 1_556 S
H1707 C1737 0.950 . S
C1708 H1690 0.951 . S
C1708 C1709 1.366 . S
C1708 C1710 1.388 . S
C1709 C1708 1.366 . S
C1709 C1713 1.385 . S
C1710 H1691 0.951 . S
C1710 C1708 1.388 . S
C1710 C1711 1.366 . S
C1711 C1710 1.366 . S
C1711 C1712 1.414 . S
C1711 C1714 1.499 . S
C1712 H1692 0.950 . S
C1712 C1711 1.414 . S
C1712 C1713 1.374 . S
C1713 H1693 0.950 . S
C1713 C1709 1.385 . S
C1713 C1712 1.374 . S
C1714 C1711 1.499 . S
C1714 C1715 1.373 . S
C1714 C1716 1.389 . S
C1715 H1694 0.950 . S
C1715 C1714 1.373 . S
C1715 C1731 1.377 . S
C1716 C1714 1.389 . S
C1716 C1717 1.524 . S
C1716 C1730 1.377 . S
C1717 C1716 1.524 . S
C1717 C1718 1.397 . S
C1717 C1722 1.363 . S
C1718 H1695 0.950 . S
C1718 C1717 1.397 . S
C1718 C1719 1.334 . S
C1719 H1696 0.950 . S
C1719 C1718 1.334 . S
C1719 C1720 1.287 . S
C1720 C1719 1.287 . S
C1720 C1721 1.524 . S
C1720 H1739 0.913 . S
C1721 H1697 0.950 . S
C1721 C1720 1.524 . S
C1721 C1722 1.415 . S
C1722 H1698 0.950 . S
C1722 C1717 1.363 . S
C1722 C1721 1.415 . S
C1723 H1699 0.951 . S
C1723 C1724 1.366 . S
C1723 C1725 1.388 . S
C1724 C1723 1.366 . S
C1724 C1728 1.385 . S
C1725 H1700 0.951 . S
C1725 C1723 1.388 . S
C1725 C1726 1.366 . S
C1726 C1725 1.366 . S
C1726 C1727 1.414 . S
C1726 C1729 1.499 . S
C1727 H1701 0.950 . S
C1727 C1726 1.414 . S
C1727 C1728 1.374 . S
C1728 H1702 0.950 . S
C1728 C1724 1.385 . S
C1728 C1727 1.374 . S
C1729 C1726 1.499 . S
C1729 C1730 1.373 . S
C1729 C1731 1.389 . S
C1730 H1703 0.950 . S
C1730 C1716 1.377 . S
C1730 C1729 1.373 . S
C1731 C1715 1.377 . S
C1731 C1729 1.389 . S
C1731 C1732 1.524 . S
C1732 C1731 1.524 . S
C1732 C1733 1.397 . S
C1732 C1737 1.363 . S
C1733 H1704 0.950 . S
C1733 C1732 1.397 . S
C1733 C1734 1.334 . S
C1734 H1705 0.950 . S
C1734 C1733 1.334 . S
C1734 C1735 1.287 . S
C1735 C1734 1.287 . S
C1735 C1736 1.524 . S
C1735 H1738 0.999 1_554 S
C1736 H1706 0.950 1_554 S
C1736 C1735 1.524 . S
C1736 C1737 1.415 . S
C1737 H1707 0.950 . S
C1737 C1732 1.363 . S
C1737 C1736 1.415 . S
H1738 C1735 0.999 1_556 S
H1739 C1720 0.913 . S
H1740 C1758 0.951 . S
H1741 C1760 0.951 . S
H1742 C1762 0.950 . S
H1743 C1763 0.950 . S
H1744 C1765 0.950 . S
H1745 C1768 0.950 . S
H1746 C1769 0.950 . S
H1747 C1771 0.950 . S
H1748 C1772 0.950 . S
H1749 C1773 0.951 . S
H1750 C1775 0.951 . S
H1751 C1777 0.950 . S
H1752 C1778 0.950 . S
H1753 C1780 0.950 . S
H1754 C1783 0.950 1_455 S
H1755 C1784 0.950 . S
H1756 C1786 0.950 . S
H1757 C1787 0.950 1_455 S
C1758 H1740 0.951 . S
C1758 C1759 1.366 . S
C1758 C1760 1.388 . S
C1759 C1758 1.366 . S
C1759 C1763 1.385 . S
C1760 H1741 0.951 . S
C1760 C1758 1.388 . S
C1760 C1761 1.366 . S
C1761 C1760 1.366 . S
C1761 C1762 1.414 . S
C1761 C1764 1.499 . S
C1762 H1742 0.950 . S
C1762 C1761 1.414 . S
C1762 C1763 1.374 . S
C1763 H1743 0.950 . S
C1763 C1759 1.385 . S
C1763 C1762 1.374 . S
C1764 C1761 1.499 . S
C1764 C1765 1.373 . S
C1764 C1766 1.389 . S
C1765 H1744 0.950 . S
C1765 C1764 1.373 . S
C1765 C1781 1.377 . S
C1766 C1764 1.389 . S
C1766 C1767 1.524 . S
C1766 C1780 1.377 . S
C1767 C1766 1.524 . S
C1767 C1768 1.397 . S
C1767 C1772 1.363 . S
C1768 H1745 0.950 . S
C1768 C1767 1.397 . S
C1768 C1769 1.334 . S
C1769 H1746 0.950 . S
C1769 C1768 1.334 . S
C1769 C1770 1.287 . S
C1770 C1769 1.287 . S
C1770 C1771 1.524 . S
C1770 H1789 0.913 . S
C1771 H1747 0.950 . S
C1771 C1770 1.524 . S
C1771 C1772 1.415 . S
C1772 H1748 0.950 . S
C1772 C1767 1.363 . S
C1772 C1771 1.415 . S
C1773 H1749 0.951 . S
C1773 C1774 1.366 . S
C1773 C1775 1.388 . S
C1774 C1773 1.366 . S
C1774 C1778 1.385 . S
C1775 H1750 0.951 . S
C1775 C1773 1.388 . S
C1775 C1776 1.366 . S
C1776 C1775 1.366 . S
C1776 C1777 1.414 . S
C1776 C1779 1.499 . S
C1777 H1751 0.950 . S
C1777 C1776 1.414 . S
C1777 C1778 1.374 . S
C1778 H1752 0.950 . S
C1778 C1774 1.385 . S
C1778 C1777 1.374 . S
C1779 C1776 1.499 . S
C1779 C1780 1.373 . S
C1779 C1781 1.389 . S
C1780 H1753 0.950 . S
C1780 C1766 1.377 . S
C1780 C1779 1.373 . S
C1781 C1765 1.377 . S
C1781 C1779 1.389 . S
C1781 C1782 1.524 . S
C1782 C1781 1.524 . S
C1782 C1783 1.397 1_455 S
C1782 C1787 1.363 1_455 S
C1783 H1754 0.950 1_655 S
C1783 C1782 1.397 1_655 S
C1783 C1784 1.334 . S
C1784 H1755 0.950 . S
C1784 C1783 1.334 . S
C1784 C1785 1.287 . S
C1785 C1784 1.287 . S
C1785 C1786 1.524 . S
C1785 H1788 0.999 . S
C1786 H1756 0.950 . S
C1786 C1785 1.524 . S
C1786 C1787 1.415 . S
C1787 H1757 0.950 1_655 S
C1787 C1782 1.363 1_655 S
C1787 C1786 1.415 . S
H1788 C1785 0.999 . S
H1789 C1770 0.913 . S
H1790 C1808 0.951 . S
H1791 C1810 0.951 . S
H1792 C1812 0.950 . S
H1793 C1813 0.950 . S
H1794 C1815 0.950 . S
H1795 C1818 0.950 . S
H1796 C1819 0.950 . S
H1797 C1821 0.950 . S
H1798 C1822 0.950 . S
H1799 C1823 0.951 . S
H1800 C1825 0.951 . S
H1801 C1827 0.950 . S
H1802 C1828 0.950 . S
H1803 C1830 0.950 . S
H1804 C1833 0.950 . S
H1805 C1834 0.950 . S
H1806 C1836 0.950 . S
H1807 C1837 0.950 . S
C1808 H1790 0.951 . S
C1808 C1809 1.366 . S
C1808 C1810 1.388 . S
C1809 C1808 1.366 . S
C1809 C1813 1.385 . S
C1810 H1791 0.951 . S
C1810 C1808 1.388 . S
C1810 C1811 1.366 . S
C1811 C1810 1.366 . S
C1811 C1812 1.414 . S
C1811 C1814 1.499 . S
C1812 H1792 0.950 . S
C1812 C1811 1.414 . S
C1812 C1813 1.374 . S
C1813 H1793 0.950 . S
C1813 C1809 1.385 . S
C1813 C1812 1.374 . S
C1814 C1811 1.499 . S
C1814 C1815 1.373 . S
C1814 C1816 1.389 . S
C1815 H1794 0.950 . S
C1815 C1814 1.373 . S
C1815 C1831 1.377 . S
C1816 C1814 1.389 . S
C1816 C1817 1.524 . S
C1816 C1830 1.377 . S
C1817 C1816 1.524 . S
C1817 C1818 1.397 . S
C1817 C1822 1.363 . S
C1818 H1795 0.950 . S
C1818 C1817 1.397 . S
C1818 C1819 1.334 . S
C1819 H1796 0.950 . S
C1819 C1818 1.334 . S
C1819 C1820 1.287 . S
C1820 C1819 1.287 . S
C1820 C1821 1.524 . S
C1820 H1839 0.913 . S
C1821 H1797 0.950 . S
C1821 C1820 1.524 . S
C1821 C1822 1.415 . S
C1822 H1798 0.950 . S
C1822 C1817 1.363 . S
C1822 C1821 1.415 . S
C1823 H1799 0.951 . S
C1823 C1824 1.366 . S
C1823 C1825 1.388 . S
C1824 C1823 1.366 . S
C1824 C1828 1.385 . S
C1825 H1800 0.951 . S
C1825 C1823 1.388 . S
C1825 C1826 1.366 . S
C1826 C1825 1.366 . S
C1826 C1827 1.414 . S
C1826 C1829 1.499 . S
C1827 H1801 0.950 . S
C1827 C1826 1.414 . S
C1827 C1828 1.374 . S
C1828 H1802 0.950 . S
C1828 C1824 1.385 . S
C1828 C1827 1.374 . S
C1829 C1826 1.499 . S
C1829 C1830 1.373 . S
C1829 C1831 1.389 . S
C1830 H1803 0.950 . S
C1830 C1816 1.377 . S
C1830 C1829 1.373 . S
C1831 C1815 1.377 . S
C1831 C1829 1.389 . S
C1831 C1832 1.524 . S
C1832 C1831 1.524 . S
C1832 C1833 1.397 . S
C1832 C1837 1.363 . S
C1833 H1804 0.950 . S
C1833 C1832 1.397 . S
C1833 C1834 1.334 . S
C1834 H1805 0.950 . S
C1834 C1833 1.334 . S
C1834 C1835 1.287 . S
C1835 C1834 1.287 . S
C1835 C1836 1.524 . S
C1835 H1838 0.999 . S
C1836 H1806 0.950 . S
C1836 C1835 1.524 . S
C1836 C1837 1.415 . S
C1837 H1807 0.950 . S
C1837 C1832 1.363 . S
C1837 C1836 1.415 . S
H1838 C1835 0.999 . S
H1839 C1820 0.913 . S
C659 C1 1.114 . S
C674 C497 1.185 . S
C709 C80 1.159 . S
C724 C537 1.185 . S
C774 C562 2.334 . S
C759 C140 2.347 . S
C809 C211 2.362 . S
C824 C602 2.335 . S
C874 C533 1.786 . S
C859 C31 1.660 . S
C924 C493 1.786 . S
C909 C61 1.731 . S
C974 C624 1.588 . S
C959 C151 1.556 . S
C1024 C584 1.588 . S
C1009 C200 1.601 . S
C1059 C20 1.248 . S
C1074 C626 1.285 . S
C1124 C543 2.107 . S
C1109 C121 2.129 . S
C1159 C181 2.082 . S
C1174 C503 2.106 . S
C1209 C91 1.295 . S
C1224 C586 1.286 . S
C1274 C506 1.185 . S
C1259 C260 1.143 . S
C1309 C320 1.159 . S
C1324 C546 1.185 . S
C1359 C361 2.359 . S
C1374 C583 2.334 . S
C1409 C451 2.362 . S
C1424 C623 2.335 . S
C1459 C271 1.693 . S
C1474 C544 1.786 . S
C1524 C504 1.786 . S
C1509 C301 1.732 . S
C1574 C613 1.588 . S
C1559 C380 1.559 . S
C1624 C573 1.588 . S
C1609 C440 1.601 . S
C1659 C241 1.197 . S
C1674 C617 1.286 . S
C1724 C522 2.107 . S
C1709 C391 2.140 . S
C1774 C482 2.107 . S
C1759 C421 2.083 . S
C1809 C331 1.295 . S
C1824 C577 1.286 . S
