# Generated by pormake.
# Topology anh, (6,3)-cn, num edge types: 1
# Building blocks:
#     Node 0, Type 0, BuildingBlock: HISSIN_clean_sbu_0, # of connection points: 6
#     Node 1, Type 0, BuildingBlock: HISSIN_clean_sbu_0, # of connection points: 6
#     Node 2, Type 0, BuildingBlock: HISSIN_clean_sbu_0, # of connection points: 6
#     Node 3, Type 1, BuildingBlock: QEWDON_clean_linker_0, # of connection points: 3
#     Node 4, Type 1, BuildingBlock: QEWDON_clean_linker_0, # of connection points: 3
#     Node 5, Type 1, BuildingBlock: QEWDON_clean_linker_0, # of connection points: 3
#     Node 6, Type 1, BuildingBlock: QEWDON_clean_linker_0, # of connection points: 3
#     Node 7, Type 1, BuildingBlock: QEWDON_clean_linker_0, # of connection points: 3
#     Node 8, Type 1, BuildingBlock: QEWDON_clean_linker_0, # of connection points: 3
#     Edge 9, Type (0, 1), BuildingBlock: KIFKEQ_clean_linker_1, # of connection points: 2
#     Edge 10, Type (0, 1), BuildingBlock: KIFKEQ_clean_linker_1, # of connection points: 2
#     Edge 11, Type (0, 1), BuildingBlock: KIFKEQ_clean_linker_1, # of connection points: 2
#     Edge 12, Type (0, 1), BuildingBlock: KIFKEQ_clean_linker_1, # of connection points: 2
#     Edge 13, Type (0, 1), BuildingBlock: KIFKEQ_clean_linker_1, # of connection points: 2
#     Edge 14, Type (0, 1), BuildingBlock: KIFKEQ_clean_linker_1, # of connection points: 2
#     Edge 15, Type (0, 1), BuildingBlock: KIFKEQ_clean_linker_1, # of connection points: 2
#     Edge 16, Type (0, 1), BuildingBlock: KIFKEQ_clean_linker_1, # of connection points: 2
#     Edge 17, Type (0, 1), BuildingBlock: KIFKEQ_clean_linker_1, # of connection points: 2
#     Edge 18, Type (0, 1), BuildingBlock: KIFKEQ_clean_linker_1, # of connection points: 2
#     Edge 19, Type (0, 1), BuildingBlock: KIFKEQ_clean_linker_1, # of connection points: 2
#     Edge 20, Type (0, 1), BuildingBlock: KIFKEQ_clean_linker_1, # of connection points: 2
#     Edge 21, Type (0, 1), BuildingBlock: KIFKEQ_clean_linker_1, # of connection points: 2
#     Edge 22, Type (0, 1), BuildingBlock: KIFKEQ_clean_linker_1, # of connection points: 2
#     Edge 23, Type (0, 1), BuildingBlock: KIFKEQ_clean_linker_1, # of connection points: 2
#     Edge 24, Type (0, 1), BuildingBlock: KIFKEQ_clean_linker_1, # of connection points: 2
#     Edge 25, Type (0, 1), BuildingBlock: KIFKEQ_clean_linker_1, # of connection points: 2
#     Edge 26, Type (0, 1), BuildingBlock: KIFKEQ_clean_linker_1, # of connection points: 2
# Relax obj value: 0.211
# Max RMSD: 0.135
# Mean RMSD: 0.120
data_MOF--net-anh--node1-HISSIN_clean_sbu_0--node2-QEWDON_clean_linker_0--edge1-KIFKEQ_clean_linker_1
_symmetry_space_group_name_H-M    P1
_symmetry_Int_Tables_number       1
_symmetry_cell_setting            triclinic
loop_
_symmetry_equiv_pos_as_xyz
'x, y, z'
_cell_length_a     32.039068
_cell_length_b     32.075999
_cell_length_c     49.53391
_cell_angle_alpha  95.84405
_cell_angle_beta   92.768013
_cell_angle_gamma 120.07941
loop_
_atom_site_label
_atom_site_type_symbol
_atom_site_fract_x
_atom_site_fract_y
_atom_site_fract_z
_atom_type_partial_charge
Eu0 Eu 0.16969 0.53243 0.15524 0.0
Eu1 Eu 0.23114 0.64984 0.15548 0.0
C2 C 0.21192 0.60552 0.21224 0.0
C3 C 1.06375 0.41188 0.13439 0.0
C4 C 1.02519 0.3765 0.14626 0.0
C5 C 1.00587 0.41367 0.10156 0.0
C6 C 0.97726 0.36103 0.13643 0.0
C7 C 1.05361 0.42888 0.11128 0.0
C8 C 0.96732 0.38109 0.11472 0.0
C9 C 1.11295 0.43873 0.14924 0.0
O10 O 0.29112 0.63157 0.15841 0.0
O11 O 0.2467 0.54767 0.15075 0.0
C12 C 0.28876 0.58913 0.15394 0.0
O13 O 0.1581 0.54849 0.11318 0.0
O14 O 0.28723 0.72399 0.17226 0.0
O15 O 0.23989 0.71069 0.13556 0.0
O16 O 0.23281 0.6147 0.1145 0.0
C17 C 0.19354 0.5785 0.10049 0.0
O18 O 1.11145 0.55324 0.15852 0.0
O19 O 0.15239 0.6301 0.14691 0.0
O20 O 0.2155 0.64042 0.19898 0.0
O21 O 0.1485 0.46016 0.13442 0.0
O22 O 1.11758 0.46727 0.17136 0.0
O23 O 0.20184 0.56308 0.1993 0.0
C24 C 0.32063 0.77354 0.13834 0.0
C25 C 0.34676 0.75471 0.12517 0.0
C26 C 0.37776 0.85361 0.12826 0.0
C27 C 0.38918 0.78565 0.11424 0.0
C28 C 0.33552 0.82271 0.13917 0.0
C29 C 0.40586 0.83574 0.11634 0.0
C30 C 0.2786 0.74246 0.15187 0.0
C31 C 1.11177 0.59194 0.15155 0.0
H32 H 1.03217 0.3635 0.16432 0.0
H33 H 0.99925 0.42938 0.08468 0.0
H34 H 0.94826 0.33622 0.14718 0.0
H35 H 1.08263 0.45649 0.10182 0.0
H36 H 0.33517 0.71645 0.12413 0.0
H37 H 0.38992 0.89209 0.13079 0.0
H38 H 0.40989 0.7708 0.10513 0.0
H39 H 0.31546 0.83759 0.14914 0.0
Eu40 Eu 0.77864 0.14082 0.49867 0.0
Eu41 Eu 0.72437 0.20348 0.4977 0.0
C42 C 0.74838 0.17457 0.55453 0.0
C43 C 0.77853 1.02692 0.49743 0.0
C44 C 0.75817 1.01141 0.52161 0.0
C45 C 0.71942 0.94716 0.47257 0.0
C46 C 0.71747 0.96527 0.52097 0.0
C47 C 0.76034 0.99336 0.47321 0.0
C48 C 0.69631 0.9335 0.49621 0.0
C49 C 0.80937 1.07956 0.49598 0.0
O50 O 0.80506 0.26288 0.50468 0.0
O51 O 0.8411 0.21683 0.49589 0.0
C52 C 0.84385 0.25952 0.50033 0.0
O53 O 0.75005 0.13635 0.45492 0.0
O54 O 0.70865 0.25897 0.51454 0.0
O55 O 0.66729 0.21047 0.47689 0.0
O56 O 0.75848 0.21121 0.45919 0.0
C57 C 0.75549 0.17408 0.44396 0.0
O58 O 0.701 1.08624 0.50427 0.0
O59 O 0.66523 0.12341 0.48453 0.0
O60 O 0.71944 0.18347 0.53983 0.0
O61 O 0.7982 0.09374 0.47446 0.0
O62 O 0.81718 0.10947 0.51811 0.0
O63 O 0.77941 0.16443 0.54356 0.0
C64 C 0.66983 0.28606 0.48406 0.0
C65 C 0.70275 0.33555 0.49337 0.0
C66 C 0.61466 0.30744 0.46282 0.0
C67 C 0.69056 0.37053 0.48844 0.0
C68 C 0.62693 0.27267 0.46762 0.0
C69 C 0.64507 0.35639 0.47447 0.0
C70 C 0.67481 0.24729 0.49454 0.0
C71 C 0.66202 1.08445 0.49318 0.0
H72 H 0.77113 1.03615 0.54067 0.0
H73 H 0.70455 0.92301 0.4533 0.0
H74 H 0.70053 0.95603 0.53956 0.0
H75 H 0.77539 1.00418 0.45428 0.0
H76 H 0.73637 0.34692 0.50588 0.0
H77 H 0.5792 0.29501 0.45217 0.0
H78 H 0.71519 0.40813 0.49725 0.0
H79 H 0.60097 0.23467 0.46024 0.0
Eu80 Eu 0.60155 0.60438 0.83072 0.0
Eu81 Eu 0.70935 0.65575 0.81303 0.0
C82 C 0.69216 0.64595 0.87544 0.0
C83 C 0.49535 0.6093 0.84811 0.0
C84 C 0.48141 0.61893 0.87331 0.0
C85 C 0.48747 0.67439 0.83194 0.0
C86 C 0.47123 0.65652 0.87792 0.0
C87 C 0.49767 0.63705 0.82736 0.0
C88 C 0.47485 0.68504 0.85737 0.0
C89 C 0.51597 0.57726 0.84508 0.0
O90 O 0.68378 0.57494 0.80664 0.0
O91 O 0.6199 0.54425 0.83245 0.0
C92 C 0.65223 0.53944 0.81897 0.0
O93 O 0.59342 0.58017 0.7858 0.0
O94 O 0.78858 0.69965 0.81956 0.0
O95 O 0.75158 0.66704 0.77864 0.0
O96 O 0.6581 0.65064 0.77809 0.0
C97 C 0.61595 0.61171 0.76934 0.0
O98 O 0.618 0.67885 0.82037 0.0
O99 O 0.70092 0.72029 0.82777 0.0
O100 O 0.71701 0.64096 0.85634 0.0
O101 O 0.52296 0.56609 0.82032 0.0
O102 O 0.55324 0.5897 0.86271 0.0
O103 O 0.65298 0.64732 0.86864 0.0
C104 C 0.82083 0.66381 0.7896 0.0
C105 C 0.84657 0.67047 0.7668 0.0
C106 C 0.83744 0.60068 0.79935 0.0
C107 C 0.86793 0.64248 0.76036 0.0
C108 C 0.81614 0.62853 0.80571 0.0
C109 C 0.86357 0.60726 0.7766 0.0
C110 C 0.79281 0.68802 0.79417 0.0
C111 C 0.65992 0.72036 0.82439 0.0
H112 H 0.48015 0.59859 0.88974 0.0
H113 H 0.49092 0.69592 0.81579 0.0
H114 H 0.46074 0.66342 0.89759 0.0
H115 H 0.50937 0.63142 0.80786 0.0
H116 H 0.84939 0.69668 0.75374 0.0
H117 H 0.83429 0.57474 0.81269 0.0
H118 H 0.88775 0.64831 0.74268 0.0
H119 H 0.79541 0.62201 0.82304 0.0
H120 H 0.68749 0.23955 0.25318 0.0
C121 C 0.67873 0.20903 0.23772 0.0
C122 C 0.68652 0.17172 0.24434 0.0
C123 C 0.65978 0.20704 0.21117 0.0
H124 H 0.68353 0.10503 0.22917 0.0
C125 C 0.67606 0.1329 0.22409 0.0
C126 C 0.65543 0.12934 0.19769 0.0
C127 C 0.64762 0.16682 0.19143 0.0
C128 C 0.65515 0.24803 0.20332 0.0
H129 H 0.6308 0.16436 0.17137 0.0
C130 C 0.67412 0.26715 0.17966 0.0
C131 C 0.67415 0.30835 0.17248 0.0
C132 C 0.63453 0.26979 0.2196 0.0
H133 H 0.61946 0.2556 0.23795 0.0
C134 C 0.63344 0.3103 0.21223 0.0
H135 H 0.6919 0.25171 0.16769 0.0
C136 C 0.65379 0.33003 0.18896 0.0
H137 H 0.65438 0.36247 0.18409 0.0
H138 H 0.61773 0.32708 0.22493 0.0
H139 H 0.41168 0.57982 0.57846 0.0
C140 C 0.42044 0.55537 0.56672 0.0
C141 C 0.45218 0.54265 0.5789 0.0
C142 C 0.40254 0.53905 0.53882 0.0
H143 H 0.49035 0.50395 0.57247 0.0
C144 C 0.46498 0.51286 0.56319 0.0
C145 C 0.44791 0.49681 0.53539 0.0
C146 C 0.41632 0.50966 0.52331 0.0
C147 C 0.37755 0.55996 0.52444 0.0
H148 H 0.40452 0.49895 0.50157 0.0
C149 C 0.40293 0.61003 0.52335 0.0
C150 C 0.38555 0.63028 0.50525 0.0
C151 C 0.33272 0.53015 0.50834 0.0
H152 H 0.31284 0.49121 0.50864 0.0
C153 C 0.31421 0.55042 0.49102 0.0
H154 H 0.43853 0.63265 0.53492 0.0
C155 C 0.34109 0.6001 0.48891 0.0
H156 H 0.32762 0.6148 0.47434 0.0
H157 H 0.27984 0.52726 0.47845 0.0
H158 H 0.19686 0.68384 0.92146 0.0
C159 C 0.17099 0.65918 0.90425 0.0
C160 C 0.14385 0.60912 0.90568 0.0
C161 C 0.16357 0.67794 0.88131 0.0
H162 H 1.0875 0.5388 0.88506 0.0
C163 C 1.10924 0.57737 0.88381 0.0
C164 C 1.10263 0.59552 0.86038 0.0
C165 C 1.1297 0.64585 0.85936 0.0
C166 C 0.19244 0.73087 0.88004 0.0
H167 H 1.1238 0.6602 0.84159 0.0
C168 C 0.24283 0.75539 0.88656 0.0
C169 C 0.27196 0.80476 0.88383 0.0
C170 C 0.17074 0.75666 0.87131 0.0
H171 H 1.13176 0.73857 0.86624 0.0
C172 C 0.19945 0.80615 0.86901 0.0
H173 H 0.25978 0.73503 0.8922 0.0
C174 C 0.25 0.83009 0.8749 0.0
H175 H 0.27191 0.86791 0.87212 0.0
H176 H 0.18255 0.82575 0.86214 0.0
H177 H 0.23147 0.62147 0.43049 0.0
C178 C 0.2613 0.65783 0.43792 0.0
C179 C 0.28614 0.68838 0.41874 0.0
C180 C 0.27495 0.67375 0.46625 0.0
H181 H 0.34633 0.75681 0.41253 0.0
C182 C 0.32644 0.73494 0.42776 0.0
C183 C 0.34215 0.75282 0.45572 0.0
C184 C 0.31551 0.72197 0.47479 0.0
C185 C 0.24883 0.63926 0.48665 0.0
H186 H 0.32614 0.73618 0.49628 0.0
C187 C 0.19987 0.59867 0.48095 0.0
C188 C 0.17866 0.56524 0.50001 0.0
C189 C 0.27461 0.64541 0.51202 0.0
H190 H 0.31214 0.67391 0.51726 0.0
C191 C 0.25352 0.61363 0.53091 0.0
H192 H 0.17851 0.5924 0.46179 0.0
C193 C 0.20639 0.57418 0.52504 0.0
H194 H 0.19153 0.55025 0.5403 0.0
H195 H 0.27432 0.61918 0.55018 0.0
H196 H 0.66974 0.10716 0.76043 0.0
C197 C 0.67069 0.14021 0.76863 0.0
C198 C 0.67794 0.17421 0.75093 0.0
C199 C 0.66227 0.14758 0.79596 0.0
H200 H 0.68085 0.24116 0.74606 0.0
C201 C 0.67662 0.21622 0.76034 0.0
C202 C 0.66992 0.2265 0.78751 0.0
C203 C 0.66304 0.19193 0.80524 0.0
C204 C 0.65044 0.10823 0.81415 0.0
H205 H 0.65922 0.20042 0.82631 0.0
C206 C 0.66288 1.07104 0.80921 0.0
C207 C 0.64994 1.03447 0.82651 0.0
C208 C 0.6241 0.10638 0.83646 0.0
H209 H 0.61133 0.13153 0.84068 0.0
C210 C 0.61218 1.07107 0.85359 0.0
H211 H 0.68313 1.07054 0.79247 0.0
C212 C 0.62507 1.03574 0.8488 0.0
H213 H 0.61461 1.00847 0.86234 0.0
H214 H 0.59207 1.0707 0.87061 0.0
H215 H 0.68944 0.61681 0.08545 0.0
C216 C 0.71783 0.60989 0.09197 0.0
C217 C 0.74954 0.61019 0.07309 0.0
C218 C 0.72392 0.60331 0.11931 0.0
H219 H 0.81235 0.60381 0.06725 0.0
C220 C 0.7886 0.60453 0.08189 0.0
C221 C 0.79732 0.59912 0.10908 0.0
C222 C 0.76376 0.597 0.12739 0.0
C223 C 0.69111 0.60667 0.13969 0.0
H224 H 0.76964 0.59146 0.14807 0.0
C225 C 0.64253 0.59615 0.13206 0.0
C226 C 0.61381 0.60067 0.15204 0.0
C227 C 0.70959 0.62285 0.16752 0.0
H228 H 0.74658 0.63377 0.17455 0.0
C229 C 0.68139 0.62684 0.18701 0.0
H230 H 0.62658 0.58366 0.11098 0.0
C231 C 0.63415 0.6157 0.17946 0.0
H232 H 0.61358 0.61979 0.19519 0.0
H233 H 0.69658 0.63928 0.20824 0.0
H234 H 0.30252 0.51022 0.14985 0.0
H235 H 0.38129 0.66618 0.15207 0.0
H236 H 0.37764 0.50912 0.14544 0.0
H237 H 0.45641 0.66514 0.14789 0.0
H238 H 0.58136 0.64664 0.11986 0.0
H239 H 0.50249 0.64243 0.11838 0.0
H240 H 0.45328 0.53122 0.1709 0.0
H241 H 0.53157 0.53548 0.17211 0.0
C242 C 0.33578 0.54439 0.14947 0.0
C243 C 0.33525 0.5883 0.15153 0.0
C244 C 0.37921 0.5438 0.14701 0.0
C245 C 0.42382 0.58704 0.14625 0.0
C246 C 0.42313 0.63088 0.14801 0.0
C247 C 0.37978 0.63153 0.1507 0.0
C248 C 0.55314 0.62031 0.1304 0.0
C249 C 0.56284 0.59092 0.14577 0.0
C250 C 0.508 0.61839 0.12996 0.0
C251 C 0.47091 0.58669 0.14471 0.0
C252 C 0.48015 0.55581 0.15903 0.0
C253 C 0.52527 0.55813 0.15968 0.0
H254 H 0.86943 0.35688 0.51054 0.0
H255 H 0.9285 0.26591 0.48603 0.0
H256 H 0.948 0.42948 0.50759 0.0
H257 H 1.00578 0.33759 0.48218 0.0
H258 H 0.1544 0.47298 0.50738 0.0
H259 H 1.07475 0.40191 0.50709 0.0
H260 H 1.00815 0.48144 0.4806 0.0
H261 H 1.08924 0.55405 0.48197 0.0
C262 C 0.89899 0.35216 0.50447 0.0
C263 C 0.89212 0.30494 0.49889 0.0
C264 C 0.94425 0.39406 0.50251 0.0
C265 C 0.9843 0.3903 0.49479 0.0
C266 C 0.97687 0.3429 0.48881 0.0
C267 C 0.93196 0.30127 0.49093 0.0
C268 C 1.12288 0.47544 0.50123 0.0
C269 C 1.12879 0.51977 0.49477 0.0
C270 C 1.07668 0.43415 0.50088 0.0
C271 C 1.03394 0.43498 0.49386 0.0
C272 C 1.03973 0.47898 0.48651 0.0
C273 C 1.08641 0.52065 0.48686 0.0
H274 H 0.58481 0.73475 0.80861 0.0
H275 H 0.7375 0.81431 0.83797 0.0
H276 H 0.58657 0.81152 0.80676 0.0
H277 H 0.73933 0.89109 0.83603 0.0
H278 H 0.70647 1.01584 0.86045 0.0
H279 H 0.71048 0.9415 0.85893 0.0
H280 H 0.61731 0.88333 0.78248 0.0
H281 H 0.61371 0.95835 0.78411 0.0
C282 C 0.61882 0.76854 0.81474 0.0
C283 C 0.66094 0.7678 0.82359 0.0
C284 C 0.61995 0.81283 0.81341 0.0
C285 C 0.66315 0.8581 0.82113 0.0
C286 C 0.70522 0.85731 0.83007 0.0
C287 C 0.70421 0.81302 0.83112 0.0
C288 C 0.68796 0.98775 0.84291 0.0
C289 C 0.66051 0.99365 0.82215 0.0
C290 C 0.69006 0.94483 0.84207 0.0
C291 C 0.66399 0.90571 0.82067 0.0
C292 C 0.63753 0.91218 0.79947 0.0
C293 C 0.63603 0.95558 0.80014 0.0
H294 H 1.01664 0.516 0.15034 0.0
H295 H 1.09977 0.66929 0.14433 0.0
H296 H 0.94129 0.51727 0.142 0.0
H297 H 1.02523 0.67098 0.1368 0.0
H298 H 0.88861 0.65339 0.0938 0.0
H299 H 0.96104 0.64975 0.10453 0.0
H300 H 0.88474 0.54052 0.15619 0.0
H301 H 0.81064 0.54271 0.14424 0.0
C302 C 1.01905 0.55015 0.14753 0.0
C303 C 1.0649 0.5925 0.14792 0.0
C304 C 0.97553 0.55094 0.14279 0.0
C305 C 0.97624 0.59409 0.13825 0.0
C306 C 1.02228 0.63654 0.13938 0.0
C307 C 1.06555 0.6357 0.14396 0.0
C308 C 0.88673 0.62813 0.1073 0.0
C309 C 0.84287 0.59804 0.11783 0.0
C310 C 0.92903 0.62654 0.11387 0.0
C311 C 0.92987 0.59509 0.13154 0.0
C312 C 0.88609 0.56509 0.14236 0.0
C313 C 0.84343 0.56672 0.13573 0.0
H314 H 0.57229 1.06417 0.47018 0.0
H315 H 0.64164 0.99655 0.50891 0.0
H316 H 0.49523 0.9876 0.46414 0.0
H317 H 0.56484 0.91978 0.50273 0.0
H318 H 0.41334 0.78677 0.50018 0.0
H319 H 0.48766 0.86614 0.5112 0.0
H320 H 0.44806 0.9124 0.44027 0.0
H321 H 0.3731 0.8352 0.43067 0.0
C322 C 0.5713 1.03291 0.47731 0.0
C323 C 0.61391 1.0371 0.48983 0.0
C324 C 0.52674 0.98831 0.47362 0.0
C325 C 0.52282 0.94582 0.48221 0.0
C326 C 0.5654 0.95064 0.49544 0.0
C327 C 0.61001 0.99518 0.49901 0.0
C328 C 0.42007 0.81414 0.48719 0.0
C329 C 0.38668 0.8033 0.4642 0.0
C330 C 0.46346 0.85997 0.49331 0.0
C331 C 0.47527 0.89694 0.47667 0.0
C332 C 0.44113 0.88619 0.45408 0.0
C333 C 0.39782 0.8408 0.44818 0.0
H334 H 0.5806 0.44536 0.82489 0.0
H335 H 0.73015 0.52903 0.81 0.0
H336 H 0.58551 0.37115 0.81965 0.0
H337 H 0.73642 0.45671 0.80654 0.0
H338 H 0.72679 0.31671 0.77202 0.0
H339 H 0.72061 0.38859 0.78011 0.0
H340 H 0.60972 0.31846 0.83315 0.0
H341 H 0.6134 0.24405 0.823 0.0
C342 C 0.61474 0.44812 0.82083 0.0
C343 C 0.65474 0.49351 0.81752 0.0
C344 C 0.6178 0.40536 0.81796 0.0
C345 C 0.66126 0.40662 0.81217 0.0
C346 C 0.70159 0.4527 0.80997 0.0
C347 C 0.69818 0.4949 0.81224 0.0
C348 C 0.70055 0.31597 0.78523 0.0
C349 C 0.67001 0.27339 0.79635 0.0
C350 C 0.69754 0.35821 0.79037 0.0
C351 C 0.66462 0.36066 0.80748 0.0
C352 C 0.63511 0.31859 0.81948 0.0
C353 C 0.63773 0.27576 0.814 0.0
H354 H 0.66402 0.86889 0.53285 0.0
H355 H 0.61898 0.89757 0.4567 0.0
H356 H 0.58224 0.80111 0.5334 0.0
H357 H 0.5367 0.8295 0.45728 0.0
H358 H 0.4165 0.6642 0.45759 0.0
H359 H 0.48982 0.74091 0.45353 0.0
H360 H 0.50233 0.78747 0.54002 0.0
H361 H 0.42971 0.71032 0.54403 0.0
C362 C 0.63662 0.86072 0.51622 0.0
C363 C 0.64802 0.88873 0.49481 0.0
C364 C 0.58959 0.82212 0.51663 0.0
C365 C 0.55267 0.81056 0.49566 0.0
C366 C 0.56436 0.8374 0.47368 0.0
C367 C 0.6116 0.87614 0.47327 0.0
C368 C 0.43399 0.69166 0.47548 0.0
C369 C 0.41818 0.68125 0.50121 0.0
C370 C 0.47615 0.73549 0.47322 0.0
C371 C 0.5028 0.76946 0.49665 0.0
C372 C 0.48356 0.76119 0.52178 0.0
C373 C 0.4417 0.71741 0.52404 0.0
H374 H 0.95546 0.6445 0.76274 0.0
H375 H 0.83329 0.51159 0.78066 0.0
H376 H 1.00813 0.61271 0.77072 0.0
H377 H 0.88666 0.47926 0.78888 0.0
H378 H 1.0078 0.53402 0.86526 0.0
H379 H 0.94122 0.50996 0.8304 0.0
H380 H 1.04217 0.56134 0.77006 0.0
H381 H 1.10924 0.58686 0.80557 0.0
C382 C 0.93934 0.60749 0.76714 0.0
C383 C 0.89064 0.58134 0.77213 0.0
C384 C 0.96968 0.58889 0.77163 0.0
C385 C 0.95194 0.54391 0.78137 0.0
C386 C 0.90166 0.5146 0.78214 0.0
C387 C 0.8712 0.53325 0.77762 0.0
C388 C 1.01552 0.53798 0.84431 0.0
C389 C 1.06351 0.56383 0.83817 0.0
C390 C 0.97722 0.5239 0.82413 0.0
C391 C 0.98661 0.53562 0.79759 0.0
C392 C 1.034 0.55332 0.79053 0.0
C393 C 1.07237 0.56795 0.81081 0.0
H394 H 0.43702 0.91868 0.09272 0.0
H395 H 0.48841 0.83296 0.12852 0.0
H396 H 0.51763 0.99029 0.10346 0.0
H397 H 0.56946 0.90402 0.13802 0.0
H398 H 0.65326 0.12017 0.14141 0.0
H399 H 0.6082 1.04469 0.10914 0.0
H400 H 0.57401 0.96199 0.17663 0.0
H401 H 0.61601 1.03591 0.20845 0.0
C402 C 0.46606 0.91461 0.10168 0.0
C403 C 0.45588 0.87087 0.111 0.0
C404 C 0.51252 0.95558 0.10754 0.0
C405 C 0.54929 0.95304 0.1226 0.0
C406 C 0.54131 0.90715 0.12703 0.0
C407 C 0.49475 0.86629 0.12145 0.0
C408 C 0.63655 1.08578 0.1493 0.0
C409 C 0.63763 1.08441 0.17766 0.0
C410 C 0.61136 1.04263 0.13077 0.0
C411 C 0.58765 0.99741 0.14029 0.0
C412 C 0.59266 0.99606 0.16847 0.0
C413 C 0.6169 1.03889 0.18689 0.0
H414 H 0.65551 0.41836 0.51943 0.0
H415 H 0.58649 0.36653 0.43613 0.0
H416 H 0.60485 0.45314 0.52868 0.0
H417 H 0.53468 0.40107 0.44594 0.0
H418 H 0.45459 0.41925 0.54666 0.0
H419 H 0.50637 0.3916 0.52695 0.0
H420 H 0.54077 0.49078 0.46781 0.0
H421 H 0.48925 0.51937 0.48791 0.0
C422 C 0.6309 0.41588 0.50274 0.0
C423 C 0.62469 0.38903 0.4771 0.0
C424 C 0.60144 0.43534 0.50821 0.0
C425 C 0.56534 0.42862 0.48817 0.0
C426 C 0.56213 0.40621 0.46172 0.0
C427 C 0.59164 0.38643 0.45621 0.0
C428 C 0.47233 0.4344 0.52909 0.0
C429 C 0.46842 0.47175 0.51899 0.0
C430 C 0.50203 0.41878 0.51791 0.0
C431 C 0.52807 0.43993 0.49631 0.0
C432 C 0.52106 0.47425 0.48456 0.0
C433 C 0.49141 0.49023 0.49592 0.0
H434 H 0.504 0.75426 0.90257 0.0
H435 H 0.42211 0.70618 0.8226 0.0
H436 H 0.47825 0.81384 0.91187 0.0
H437 H 0.39608 0.76451 0.83177 0.0
H438 H 0.33342 0.84775 0.84624 0.0
H439 H 0.40675 0.8438 0.84131 0.0
H440 H 0.40078 0.80025 0.92149 0.0
H441 H 0.32933 0.80659 0.92671 0.0
C442 C 0.48091 0.75679 0.88691 0.0
C443 C 0.46427 0.72498 0.86207 0.0
C444 C 0.46653 0.79115 0.89213 0.0
C445 C 0.43492 0.794 0.87267 0.0
C446 C 0.42118 0.76431 0.84713 0.0
C447 C 0.4357 0.73029 0.84191 0.0
C448 C 0.34967 0.84037 0.86344 0.0
C449 C 0.32507 0.82581 0.88647 0.0
C450 C 0.39132 0.83746 0.8605 0.0
C451 C 0.40813 0.81928 0.88041 0.0
C452 C 0.3886 0.81367 0.90551 0.0
C453 C 0.34741 0.81717 0.90855 0.0
H454 H 0.94297 0.44977 0.10764 0.0
H455 H 0.88062 0.29553 0.1089 0.0
H456 H 0.86267 0.44051 0.10862 0.0
H457 H 0.80074 0.28623 0.11029 0.0
H458 H 0.75011 0.4006 0.17592 0.0
H459 H 0.81728 0.42436 0.14853 0.0
H460 H 0.73127 0.29128 0.09205 0.0
H461 H 0.66423 0.26734 0.1199 0.0
C462 C 0.91187 0.41362 0.10719 0.0
C463 C 0.91803 0.3734 0.10866 0.0
C464 C 0.86594 0.4084 0.10784 0.0
C465 C 0.82537 0.36279 0.10975 0.0
C466 C 0.83105 0.32187 0.10853 0.0
C467 C 0.87694 0.32717 0.10809 0.0
C468 C 0.74461 0.37779 0.15683 0.0
C469 C 0.70268 0.33167 0.15032 0.0
C470 C 0.7832 0.39131 0.14107 0.0
C471 C 0.78009 0.35877 0.11865 0.0
C472 C 0.73507 0.31644 0.10964 0.0
C473 C 0.6966 0.30289 0.12544 0.0
H474 H 0.25403 0.64308 0.06905 0.0
H475 H 1.12018 0.50512 0.06398 0.0
H476 H 0.24171 0.64104 0.02023 0.0
H477 H 1.10866 0.50206 0.01458 0.0
H478 H 1.07436 0.55771 0.93769 0.0
H479 H 1.08717 0.54237 0.98374 0.0
H480 H 0.24035 0.60446 0.97625 0.0
H481 H 0.22743 0.62169 0.93072 0.0
C482 C 0.22235 0.61179 0.05742 0.0
C483 C 0.18788 0.57442 0.07043 0.0
C484 C 0.21547 0.61038 0.02928 0.0
C485 C 0.1742 0.57129 0.01337 0.0
C486 C 0.14052 0.533 0.02627 0.0
C487 C 0.14722 0.53464 0.05455 0.0
C488 C 1.11049 0.56702 0.94578 0.0
C489 C 0.15003 0.59127 0.93098 0.0
C490 C 1.11791 0.55813 0.97211 0.0
C491 C 0.16497 0.57289 0.98391 0.0
C492 C 0.20386 0.5938 0.96809 0.0
C493 C 0.19652 0.60335 0.94198 0.0
H494 H 0.7407 0.10084 0.40361 0.0
H495 H 0.76649 0.24762 0.41675 0.0
H496 H 0.73148 0.10025 0.35419 0.0
H497 H 0.75569 0.24639 0.36805 0.0
H498 H 0.76264 0.24637 0.27853 0.0
H499 H 0.78771 0.24639 0.32591 0.0
H500 H 0.67178 0.0968 0.32129 0.0
H501 H 0.64788 0.09661 0.27387 0.0
C502 C 0.74471 0.13298 0.39599 0.0
C503 C 0.75387 0.17404 0.4141 0.0
C504 C 0.73918 0.1326 0.36773 0.0
C505 C 0.74267 0.17324 0.35714 0.0
C506 C 0.75351 0.21474 0.37536 0.0
C507 C 0.75922 0.21521 0.40342 0.0
C508 C 0.74281 0.21354 0.28771 0.0
C509 C 0.70326 0.17161 0.27267 0.0
C510 C 0.75708 0.21346 0.31479 0.0
C511 C 0.73162 0.17162 0.32746 0.0
C512 C 0.69275 0.12935 0.3121 0.0
C513 C 0.67884 0.12933 0.28497 0.0
H514 H 0.64898 0.67322 0.73097 0.0
H515 H 0.52738 0.53679 0.74559 0.0
H516 H 0.60796 0.66389 0.68609 0.0
H517 H 0.48689 0.52706 0.70054 0.0
H518 H 0.5485 0.59126 0.59615 0.0
H519 H 0.58734 0.61193 0.64283 0.0
H520 H 0.44767 0.55982 0.67285 0.0
H521 H 0.4086 0.53807 0.62565 0.0
C522 C 0.61361 0.64114 0.72459 0.0
C523 C 0.59165 0.60558 0.7418 0.0
C524 C 0.59009 0.63581 0.69885 0.0
C525 C 0.54407 0.59478 0.68973 0.0
C526 C 0.52193 0.55949 0.70709 0.0
C527 C 0.54544 0.56482 0.73282 0.0
C528 C 0.52621 0.58485 0.61278 0.0
C529 C 0.47554 0.56264 0.60738 0.0
C530 C 0.54848 0.59697 0.63954 0.0
C531 C 0.52059 0.58714 0.66159 0.0
C532 C 0.47005 0.56717 0.65625 0.0
C533 C 0.44772 0.55521 0.62933 0.0
H534 H 0.71886 0.22677 0.5859 0.0
H535 H 0.76713 0.1236 0.5902 0.0
H536 H 0.70267 0.22311 0.6331 0.0
H537 H 0.7491 0.11839 0.63781 0.0
H538 H 0.74943 0.16017 0.7317 0.0
H539 H 0.7696 0.1594 0.68454 0.0
H540 H 0.6441 0.16849 0.6583 0.0
H541 H 0.62557 0.17121 0.7053 0.0
C542 C 0.72596 0.20313 0.59699 0.0
C543 C 0.7439 0.17516 0.58421 0.0
C544 C 0.71621 0.20065 0.62409 0.0
C545 C 0.72331 0.16948 0.63922 0.0
C546 C 0.74312 0.14278 0.62681 0.0
C547 C 0.75351 0.14575 0.59956 0.0
C548 C 0.72598 0.16135 0.71567 0.0
C549 C 0.68625 0.16625 0.72209 0.0
C550 C 0.73746 0.16088 0.68866 0.0
C551 C 0.70913 0.16494 0.66758 0.0
C552 C 0.66774 0.16692 0.67402 0.0
C553 C 0.65674 0.168 0.70092 0.0
H554 H 0.76628 0.63613 0.89865 0.0
H555 H 0.64677 0.65545 0.91885 0.0
H556 H 0.78145 0.62884 0.94644 0.0
H557 H 0.6621 0.64855 0.9662 0.0
H558 H 0.66409 0.57313 0.03959 0.0
H559 H 0.653 0.5845 -0.00758 0.0
H560 H 0.80825 0.67466 -0.00657 0.0
H561 H 0.81945 0.66399 0.04078 0.0
C562 C 0.74365 0.63941 0.91326 0.0
C563 C 0.70521 0.64622 0.90477 0.0
C564 C 0.75235 0.63528 0.94068 0.0
C565 C 0.72263 0.63755 0.96016 0.0
C566 C 0.68512 0.64567 0.95172 0.0
C567 C 0.6766 0.65001 0.92449 0.0
C568 C 0.6959 0.59585 0.02992 0.0
C569 C 0.74267 0.61753 0.04416 0.0
C570 C 0.68955 0.60232 0.00279 0.0
C571 C 0.72976 0.63054 -0.01095 0.0
C572 C 0.77652 0.65216 0.00321 0.0
C573 C 0.78288 0.64592 0.03041 0.0
H574 H 0.18511 0.53955 0.24873 0.0
H575 H 0.25886 0.69378 0.24463 0.0
H576 H 0.19883 0.55674 0.2986 0.0
H577 H 0.27481 0.71113 0.29399 0.0
H578 H 0.26259 0.73414 0.383 0.0
H579 H 0.24095 0.7116 0.3338 0.0
H580 H 0.25522 0.5851 0.33762 0.0
H581 H 0.27427 0.6068 0.3873 0.0
C582 C 0.20455 0.57713 0.25846 0.0
C583 C 0.22051 0.61524 0.24263 0.0
C584 C 0.21274 0.58708 0.28713 0.0
C585 C 0.23772 0.63545 0.30069 0.0
C586 C 0.25425 0.67339 0.28463 0.0
C587 C 0.2454 0.66343 0.25612 0.0
C588 C 0.2607 0.70132 0.37327 0.0
C589 C 0.27028 0.67234 0.38892 0.0
C590 C 0.24873 0.68851 0.34496 0.0
C591 C 0.247 0.6468 0.33131 0.0
C592 C 0.25561 0.61718 0.3472 0.0
C593 C 0.26676 0.62964 0.3757 0.0
loop_
_geom_bond_atom_site_label_1
_geom_bond_atom_site_label_2
_geom_bond_distance
_geom_bond_site_symmetry_2
_ccdc_geom_bond_type
Eu0 C9 2.828 . S
Eu0 O11 2.392 1_655 S
Eu0 O13 2.418 . S
Eu0 O18 2.373 . S
Eu0 O21 2.488 . S
Eu0 O22 2.471 . S
Eu0 O23 2.349 1_655 S
Eu1 O10 2.373 . S
Eu1 O14 2.488 . S
Eu1 O15 2.471 . S
Eu1 O16 2.349 . S
Eu1 O19 2.392 1_455 S
Eu1 O20 2.418 . S
Eu1 C30 2.828 . S
C2 O20 1.244 . S
C2 O23 1.265 . S
C3 C4 1.379 . S
C3 C7 1.373 . S
C3 C9 1.505 . S
C4 C3 1.379 . S
C4 C6 1.369 . S
C4 H32 0.930 . S
C5 C7 1.383 . S
C5 C8 1.382 . S
C5 H33 0.930 . S
C6 C4 1.369 . S
C6 C8 1.392 . S
C6 H34 0.930 . S
C7 C3 1.373 . S
C7 C5 1.383 . S
C7 H35 0.931 . S
C8 C5 1.382 . S
C8 C6 1.392 . S
C9 Eu0 2.828 . S
C9 C3 1.505 . S
C9 O21 1.249 . S
C9 O22 1.244 . S
O10 Eu1 2.373 . S
O10 C12 1.258 . S
O11 Eu0 2.392 1_455 S
O11 C12 1.242 . S
C12 O10 1.258 . S
C12 O11 1.242 . S
O13 Eu0 2.418 . S
O13 C17 1.244 1_655 S
O14 Eu1 2.488 . S
O14 C30 1.249 . S
O15 Eu1 2.471 . S
O15 C30 1.244 . S
O16 Eu1 2.349 . S
O16 C17 1.265 . S
C17 O13 1.244 1_455 S
C17 O16 1.265 . S
O18 Eu0 2.373 . S
O18 C31 1.258 . S
O19 Eu1 2.392 1_655 S
O19 C31 1.242 . S
O20 Eu1 2.418 . S
O20 C2 1.244 . S
O21 Eu0 2.488 . S
O21 C9 1.249 . S
O22 Eu0 2.471 . S
O22 C9 1.244 . S
O23 Eu0 2.349 1_455 S
O23 C2 1.265 . S
C24 C25 1.379 . S
C24 C28 1.373 . S
C24 C30 1.505 . S
C25 C24 1.379 . S
C25 C27 1.369 . S
C25 H36 0.930 . S
C26 C28 1.383 . S
C26 C29 1.382 . S
C26 H37 0.930 . S
C27 C25 1.369 . S
C27 C29 1.392 . S
C27 H38 0.930 . S
C28 C24 1.373 . S
C28 C26 1.383 . S
C28 H39 0.931 . S
C29 C26 1.382 . S
C29 C27 1.392 . S
C30 Eu1 2.828 . S
C30 O14 1.249 . S
C30 O15 1.244 . S
C30 C24 1.505 . S
C31 O18 1.258 . S
C31 O19 1.242 . S
H32 C4 0.930 . S
H33 C5 0.930 . S
H34 C6 0.930 . S
H35 C7 0.931 . S
H36 C25 0.930 . S
H37 C26 0.930 . S
H38 C27 0.930 . S
H39 C28 0.931 . S
Eu40 C49 2.828 1_545 S
Eu40 O51 2.392 . S
Eu40 O53 2.418 . S
Eu40 O58 2.373 1_545 S
Eu40 O61 2.488 1_545 S
Eu40 O62 2.471 1_545 S
Eu40 O63 2.349 . S
Eu41 O50 2.373 . S
Eu41 O54 2.488 . S
Eu41 O55 2.471 . S
Eu41 O56 2.349 . S
Eu41 O59 2.392 1_545 S
Eu41 O60 2.418 . S
Eu41 C70 2.828 . S
C42 O60 1.244 . S
C42 O63 1.265 . S
C43 C44 1.379 . S
C43 C47 1.373 . S
C43 C49 1.505 . S
C44 C43 1.379 . S
C44 C46 1.369 . S
C44 H72 0.930 . S
C45 C47 1.383 . S
C45 C48 1.382 . S
C45 H73 0.930 . S
C46 C44 1.369 . S
C46 C48 1.392 . S
C46 H74 0.930 . S
C47 C43 1.373 . S
C47 C45 1.383 . S
C47 H75 0.931 . S
C48 C45 1.382 . S
C48 C46 1.392 . S
C49 Eu40 2.828 1_565 S
C49 C43 1.505 . S
C49 O61 1.249 . S
C49 O62 1.244 . S
O50 Eu41 2.373 . S
O50 C52 1.258 . S
O51 Eu40 2.392 . S
O51 C52 1.242 . S
C52 O50 1.258 . S
C52 O51 1.242 . S
O53 Eu40 2.418 . S
O53 C57 1.244 . S
O54 Eu41 2.488 . S
O54 C70 1.249 . S
O55 Eu41 2.471 . S
O55 C70 1.244 . S
O56 Eu41 2.349 . S
O56 C57 1.265 . S
C57 O53 1.244 . S
C57 O56 1.265 . S
O58 Eu40 2.373 1_565 S
O58 C71 1.258 . S
O59 Eu41 2.392 1_565 S
O59 C71 1.242 . S
O60 Eu41 2.418 . S
O60 C42 1.244 . S
O61 Eu40 2.488 1_565 S
O61 C49 1.249 . S
O62 Eu40 2.471 1_565 S
O62 C49 1.244 . S
O63 Eu40 2.349 . S
O63 C42 1.265 . S
C64 C65 1.379 . S
C64 C68 1.373 . S
C64 C70 1.505 . S
C65 C64 1.379 . S
C65 C67 1.369 . S
C65 H76 0.930 . S
C66 C68 1.383 . S
C66 C69 1.382 . S
C66 H77 0.930 . S
C67 C65 1.369 . S
C67 C69 1.392 . S
C67 H78 0.930 . S
C68 C64 1.373 . S
C68 C66 1.383 . S
C68 H79 0.931 . S
C69 C66 1.382 . S
C69 C67 1.392 . S
C70 Eu41 2.828 . S
C70 O54 1.249 . S
C70 O55 1.244 . S
C70 C64 1.505 . S
C71 O58 1.258 . S
C71 O59 1.242 . S
H72 C44 0.930 . S
H73 C45 0.930 . S
H74 C46 0.930 . S
H75 C47 0.931 . S
H76 C65 0.930 . S
H77 C66 0.930 . S
H78 C67 0.930 . S
H79 C68 0.931 . S
Eu80 C89 2.828 . S
Eu80 O91 2.392 . S
Eu80 O93 2.418 . S
Eu80 O98 2.373 . S
Eu80 O101 2.488 . S
Eu80 O102 2.471 . S
Eu80 O103 2.349 . S
Eu81 O90 2.373 . S
Eu81 O94 2.488 . S
Eu81 O95 2.471 . S
Eu81 O96 2.349 . S
Eu81 O99 2.392 . S
Eu81 O100 2.418 . S
Eu81 C110 2.828 . S
C82 O100 1.244 . S
C82 O103 1.265 . S
C83 C84 1.379 . S
C83 C87 1.373 . S
C83 C89 1.505 . S
C84 C83 1.379 . S
C84 C86 1.369 . S
C84 H112 0.930 . S
C85 C87 1.383 . S
C85 C88 1.382 . S
C85 H113 0.930 . S
C86 C84 1.369 . S
C86 C88 1.392 . S
C86 H114 0.930 . S
C87 C83 1.373 . S
C87 C85 1.383 . S
C87 H115 0.931 . S
C88 C85 1.382 . S
C88 C86 1.392 . S
C89 Eu80 2.828 . S
C89 C83 1.505 . S
C89 O101 1.249 . S
C89 O102 1.244 . S
O90 Eu81 2.373 . S
O90 C92 1.258 . S
O91 Eu80 2.392 . S
O91 C92 1.242 . S
C92 O90 1.258 . S
C92 O91 1.242 . S
O93 Eu80 2.418 . S
O93 C97 1.244 . S
O94 Eu81 2.488 . S
O94 C110 1.249 . S
O95 Eu81 2.471 . S
O95 C110 1.244 . S
O96 Eu81 2.349 . S
O96 C97 1.265 . S
C97 O93 1.244 . S
C97 O96 1.265 . S
O98 Eu80 2.373 . S
O98 C111 1.258 . S
O99 Eu81 2.392 . S
O99 C111 1.242 . S
O100 Eu81 2.418 . S
O100 C82 1.244 . S
O101 Eu80 2.488 . S
O101 C89 1.249 . S
O102 Eu80 2.471 . S
O102 C89 1.244 . S
O103 Eu80 2.349 . S
O103 C82 1.265 . S
C104 C105 1.379 . S
C104 C108 1.373 . S
C104 C110 1.505 . S
C105 C104 1.379 . S
C105 C107 1.369 . S
C105 H116 0.930 . S
C106 C108 1.383 . S
C106 C109 1.382 . S
C106 H117 0.930 . S
C107 C105 1.369 . S
C107 C109 1.392 . S
C107 H118 0.930 . S
C108 C104 1.373 . S
C108 C106 1.383 . S
C108 H119 0.931 . S
C109 C106 1.382 . S
C109 C107 1.392 . S
C110 Eu81 2.828 . S
C110 O94 1.249 . S
C110 O95 1.244 . S
C110 C104 1.505 . S
C111 O98 1.258 . S
C111 O99 1.242 . S
H112 C84 0.930 . S
H113 C85 0.930 . S
H114 C86 0.930 . S
H115 C87 0.931 . S
H116 C105 0.930 . S
H117 C106 0.930 . S
H118 C107 0.930 . S
H119 C108 0.931 . S
H120 C121 0.949 . S
C121 H120 0.949 . S
C121 C122 1.395 . S
C121 C123 1.391 . S
C122 C121 1.395 . S
C122 C125 1.390 . S
C123 C121 1.391 . S
C123 C127 1.387 . S
C123 C128 1.491 . S
H124 C125 0.950 1_565 S
C125 C122 1.390 . S
C125 H124 0.950 1_545 S
C125 C126 1.378 1_545 S
C126 C125 1.378 1_565 S
C126 C127 1.409 1_565 S
C127 C123 1.387 . S
C127 C126 1.409 1_545 S
C127 H129 0.951 . S
C128 C123 1.491 . S
C128 C130 1.382 . S
C128 C132 1.404 . S
H129 C127 0.951 . S
C130 C128 1.382 . S
C130 C131 1.390 . S
C130 H135 0.949 . S
C131 C130 1.390 . S
C131 C136 1.399 . S
C132 C128 1.404 . S
C132 H133 0.950 . S
C132 C134 1.375 . S
H133 C132 0.950 . S
C134 C132 1.375 . S
C134 C136 1.382 . S
C134 H138 0.950 . S
H135 C130 0.949 . S
C136 C131 1.399 . S
C136 C134 1.382 . S
C136 H137 0.952 . S
H137 C136 0.952 . S
H138 C134 0.950 . S
H139 C140 0.949 . S
C140 H139 0.949 . S
C140 C141 1.395 . S
C140 C142 1.391 . S
C141 C140 1.395 . S
C141 C144 1.390 . S
C142 C140 1.391 . S
C142 C146 1.387 . S
C142 C147 1.491 . S
H143 C144 0.950 . S
C144 C141 1.390 . S
C144 H143 0.950 . S
C144 C145 1.378 . S
C145 C144 1.378 . S
C145 C146 1.409 . S
C146 C142 1.387 . S
C146 C145 1.409 . S
C146 H148 0.951 . S
C147 C142 1.491 . S
C147 C149 1.382 . S
C147 C151 1.404 . S
H148 C146 0.951 . S
C149 C147 1.382 . S
C149 C150 1.390 . S
C149 H154 0.949 . S
C150 C149 1.390 . S
C150 C155 1.399 . S
C151 C147 1.404 . S
C151 H152 0.950 . S
C151 C153 1.375 . S
H152 C151 0.950 . S
C153 C151 1.375 . S
C153 C155 1.382 . S
C153 H157 0.950 . S
H154 C149 0.949 . S
C155 C150 1.399 . S
C155 C153 1.382 . S
C155 H156 0.952 . S
H156 C155 0.952 . S
H157 C153 0.950 . S
H158 C159 0.949 . S
C159 H158 0.949 . S
C159 C160 1.395 . S
C159 C161 1.391 . S
C160 C159 1.395 . S
C160 C163 1.390 . S
C161 C159 1.391 . S
C161 C165 1.387 . S
C161 C166 1.491 . S
H162 C163 0.950 1_655 S
C163 C160 1.390 . S
C163 H162 0.950 1_455 S
C163 C164 1.377 1_455 S
C164 C163 1.377 1_655 S
C164 C165 1.396 1_655 S
C165 C161 1.387 . S
C165 C164 1.396 1_455 S
C165 H167 0.951 . S
C166 C161 1.491 . S
C166 C168 1.382 . S
C166 C170 1.404 . S
H167 C165 0.951 . S
C168 C166 1.382 . S
C168 C169 1.390 . S
C168 H173 0.949 . S
C169 C168 1.390 . S
C169 C174 1.399 . S
C170 C166 1.404 . S
C170 H171 0.950 . S
C170 C172 1.375 . S
H171 C170 0.950 . S
C172 C170 1.375 . S
C172 C174 1.382 . S
C172 H176 0.950 . S
H173 C168 0.949 . S
C174 C169 1.399 . S
C174 C172 1.382 . S
C174 H175 0.952 . S
H175 C174 0.952 . S
H176 C172 0.950 . S
H177 C178 0.949 1_655 S
C178 H177 0.949 1_455 S
C178 C179 1.395 . S
C178 C180 1.391 . S
C179 C178 1.395 . S
C179 C182 1.390 . S
C180 C178 1.391 . S
C180 C184 1.387 . S
C180 C185 1.491 1_455 S
H181 C182 0.950 . S
C182 C179 1.390 . S
C182 H181 0.950 . S
C182 C183 1.378 . S
C183 C182 1.378 . S
C183 C184 1.409 . S
C184 C180 1.387 . S
C184 C183 1.409 . S
C184 H186 0.951 . S
C185 C180 1.491 1_655 S
C185 C187 1.382 . S
C185 C189 1.404 . S
H186 C184 0.951 . S
C187 C185 1.382 . S
C187 C188 1.390 . S
C187 H192 0.949 . S
C188 C187 1.390 . S
C188 C193 1.399 . S
C189 C185 1.404 . S
C189 H190 0.950 . S
C189 C191 1.375 . S
H190 C189 0.950 . S
C191 C189 1.375 . S
C191 C193 1.382 . S
C191 H195 0.950 . S
H192 C187 0.949 . S
C193 C188 1.399 . S
C193 C191 1.382 . S
C193 H194 0.952 . S
H194 C193 0.952 . S
H195 C191 0.950 . S
H196 C197 0.949 . S
C197 H196 0.949 . S
C197 C198 1.395 . S
C197 C199 1.391 . S
C198 C197 1.395 . S
C198 C201 1.390 . S
C199 C197 1.391 . S
C199 C203 1.387 . S
C199 C204 1.491 . S
H200 C201 0.950 . S
C201 C198 1.390 . S
C201 H200 0.950 . S
C201 C202 1.378 . S
C202 C201 1.378 . S
C202 C203 1.409 . S
C203 C199 1.387 . S
C203 C202 1.409 . S
C203 H205 0.951 . S
C204 C199 1.491 . S
C204 C206 1.382 1_545 S
C204 C208 1.404 1_545 S
H205 C203 0.951 . S
C206 C204 1.382 1_565 S
C206 C207 1.390 . S
C206 H211 0.949 . S
C207 C206 1.390 . S
C207 C212 1.399 . S
C208 C204 1.404 1_565 S
C208 H209 0.950 1_565 S
C208 C210 1.375 . S
H209 C208 0.950 1_545 S
C210 C208 1.375 . S
C210 C212 1.382 . S
C210 H214 0.950 . S
H211 C206 0.949 . S
C212 C207 1.399 . S
C212 C210 1.382 . S
C212 H213 0.952 . S
H213 C212 0.952 . S
H214 C210 0.950 . S
H215 C216 0.949 . S
C216 H215 0.949 . S
C216 C217 1.395 . S
C216 C218 1.391 . S
C217 C216 1.395 . S
C217 C220 1.390 . S
C218 C216 1.391 . S
C218 C222 1.387 . S
C218 C223 1.491 . S
H219 C220 0.950 . S
C220 C217 1.390 . S
C220 H219 0.950 . S
C220 C221 1.378 . S
C221 C220 1.378 . S
C221 C222 1.409 . S
C222 C218 1.387 . S
C222 C221 1.409 . S
C222 H224 0.951 . S
C223 C218 1.491 . S
C223 C225 1.382 . S
C223 C227 1.404 . S
H224 C222 0.951 . S
C225 C223 1.382 . S
C225 C226 1.390 . S
C225 H230 0.949 . S
C226 C225 1.390 . S
C226 C231 1.399 . S
C227 C223 1.404 . S
C227 H228 0.950 . S
C227 C229 1.375 . S
H228 C227 0.950 . S
C229 C227 1.375 . S
C229 C231 1.382 . S
C229 H233 0.950 . S
H230 C225 0.949 . S
C231 C226 1.399 . S
C231 C229 1.382 . S
C231 H232 0.952 . S
H232 C231 0.952 . S
H233 C229 0.950 . S
H234 C242 0.950 . S
H235 C247 0.950 . S
H236 C244 0.950 . S
H237 C246 0.950 . S
H238 C248 0.950 . S
H239 C250 0.950 . S
H240 C252 0.950 . S
H241 C253 0.950 . S
C242 H234 0.950 . S
C242 C243 1.386 . S
C242 C244 1.391 . S
C243 C242 1.386 . S
C243 C247 1.393 . S
C244 H236 0.950 . S
C244 C242 1.391 . S
C244 C245 1.400 . S
C245 C244 1.400 . S
C245 C246 1.398 . S
C245 C251 1.491 . S
C246 H237 0.950 . S
C246 C245 1.398 . S
C246 C247 1.391 . S
C247 H235 0.950 . S
C247 C243 1.393 . S
C247 C246 1.391 . S
C248 H238 0.950 . S
C248 C249 1.386 . S
C248 C250 1.391 . S
C249 C248 1.386 . S
C249 C253 1.393 . S
C250 H239 0.950 . S
C250 C248 1.391 . S
C250 C251 1.400 . S
C251 C245 1.491 . S
C251 C250 1.400 . S
C251 C252 1.398 . S
C252 H240 0.950 . S
C252 C251 1.398 . S
C252 C253 1.391 . S
C253 H241 0.950 . S
C253 C249 1.393 . S
C253 C252 1.391 . S
H254 C262 0.950 . S
H255 C267 0.950 . S
H256 C264 0.950 . S
H257 C266 0.950 . S
H258 C268 0.950 . S
H259 C270 0.950 . S
H260 C272 0.950 . S
H261 C273 0.950 . S
C262 H254 0.950 . S
C262 C263 1.386 . S
C262 C264 1.391 . S
C263 C262 1.386 . S
C263 C267 1.393 . S
C264 H256 0.950 . S
C264 C262 1.391 . S
C264 C265 1.400 . S
C265 C264 1.400 . S
C265 C266 1.398 . S
C265 C271 1.491 . S
C266 H257 0.950 . S
C266 C265 1.398 . S
C266 C267 1.391 . S
C267 H255 0.950 . S
C267 C263 1.393 . S
C267 C266 1.391 . S
C268 H258 0.950 . S
C268 C269 1.386 . S
C268 C270 1.391 . S
C269 C268 1.386 . S
C269 C273 1.393 . S
C270 H259 0.950 . S
C270 C268 1.391 . S
C270 C271 1.400 . S
C271 C265 1.491 . S
C271 C270 1.400 . S
C271 C272 1.398 . S
C272 H260 0.950 . S
C272 C271 1.398 . S
C272 C273 1.391 . S
C273 H261 0.950 . S
C273 C269 1.393 . S
C273 C272 1.391 . S
H274 C282 0.950 . S
H275 C287 0.950 . S
H276 C284 0.950 . S
H277 C286 0.950 . S
H278 C288 0.950 . S
H279 C290 0.950 . S
H280 C292 0.950 . S
H281 C293 0.950 . S
C282 H274 0.950 . S
C282 C283 1.386 . S
C282 C284 1.391 . S
C283 C282 1.386 . S
C283 C287 1.393 . S
C284 H276 0.950 . S
C284 C282 1.391 . S
C284 C285 1.400 . S
C285 C284 1.400 . S
C285 C286 1.398 . S
C285 C291 1.491 . S
C286 H277 0.950 . S
C286 C285 1.398 . S
C286 C287 1.391 . S
C287 H275 0.950 . S
C287 C283 1.393 . S
C287 C286 1.391 . S
C288 H278 0.950 . S
C288 C289 1.386 . S
C288 C290 1.391 . S
C289 C288 1.386 . S
C289 C293 1.393 . S
C290 H279 0.950 . S
C290 C288 1.391 . S
C290 C291 1.400 . S
C291 C285 1.491 . S
C291 C290 1.400 . S
C291 C292 1.398 . S
C292 H280 0.950 . S
C292 C291 1.398 . S
C292 C293 1.391 . S
C293 H281 0.950 . S
C293 C289 1.393 . S
C293 C292 1.391 . S
H294 C302 0.950 . S
H295 C307 0.950 . S
H296 C304 0.950 . S
H297 C306 0.950 . S
H298 C308 0.950 . S
H299 C310 0.950 . S
H300 C312 0.950 . S
H301 C313 0.950 . S
C302 H294 0.950 . S
C302 C303 1.386 . S
C302 C304 1.391 . S
C303 C302 1.386 . S
C303 C307 1.393 . S
C304 H296 0.950 . S
C304 C302 1.391 . S
C304 C305 1.400 . S
C305 C304 1.400 . S
C305 C306 1.398 . S
C305 C311 1.491 . S
C306 H297 0.950 . S
C306 C305 1.398 . S
C306 C307 1.391 . S
C307 H295 0.950 . S
C307 C303 1.393 . S
C307 C306 1.391 . S
C308 H298 0.950 . S
C308 C309 1.386 . S
C308 C310 1.391 . S
C309 C308 1.386 . S
C309 C313 1.393 . S
C310 H299 0.950 . S
C310 C308 1.391 . S
C310 C311 1.400 . S
C311 C305 1.491 . S
C311 C310 1.400 . S
C311 C312 1.398 . S
C312 H300 0.950 . S
C312 C311 1.398 . S
C312 C313 1.391 . S
C313 H301 0.950 . S
C313 C309 1.393 . S
C313 C312 1.391 . S
H314 C322 0.950 . S
H315 C327 0.950 . S
H316 C324 0.950 . S
H317 C326 0.950 . S
H318 C328 0.950 . S
H319 C330 0.950 . S
H320 C332 0.950 . S
H321 C333 0.950 . S
C322 H314 0.950 . S
C322 C323 1.386 . S
C322 C324 1.391 . S
C323 C322 1.386 . S
C323 C327 1.393 . S
C324 H316 0.950 . S
C324 C322 1.391 . S
C324 C325 1.400 . S
C325 C324 1.400 . S
C325 C326 1.398 . S
C325 C331 1.491 . S
C326 H317 0.950 . S
C326 C325 1.398 . S
C326 C327 1.391 . S
C327 H315 0.950 . S
C327 C323 1.393 . S
C327 C326 1.391 . S
C328 H318 0.950 . S
C328 C329 1.386 . S
C328 C330 1.391 . S
C329 C328 1.386 . S
C329 C333 1.393 . S
C330 H319 0.950 . S
C330 C328 1.391 . S
C330 C331 1.400 . S
C331 C325 1.491 . S
C331 C330 1.400 . S
C331 C332 1.398 . S
C332 H320 0.950 . S
C332 C331 1.398 . S
C332 C333 1.391 . S
C333 H321 0.950 . S
C333 C329 1.393 . S
C333 C332 1.391 . S
H334 C342 0.950 . S
H335 C347 0.950 . S
H336 C344 0.950 . S
H337 C346 0.950 . S
H338 C348 0.950 . S
H339 C350 0.950 . S
H340 C352 0.950 . S
H341 C353 0.950 . S
C342 H334 0.950 . S
C342 C343 1.386 . S
C342 C344 1.391 . S
C343 C342 1.386 . S
C343 C347 1.393 . S
C344 H336 0.950 . S
C344 C342 1.391 . S
C344 C345 1.400 . S
C345 C344 1.400 . S
C345 C346 1.398 . S
C345 C351 1.491 . S
C346 H337 0.950 . S
C346 C345 1.398 . S
C346 C347 1.391 . S
C347 H335 0.950 . S
C347 C343 1.393 . S
C347 C346 1.391 . S
C348 H338 0.950 . S
C348 C349 1.386 . S
C348 C350 1.391 . S
C349 C348 1.386 . S
C349 C353 1.393 . S
C350 H339 0.950 . S
C350 C348 1.391 . S
C350 C351 1.400 . S
C351 C345 1.491 . S
C351 C350 1.400 . S
C351 C352 1.398 . S
C352 H340 0.950 . S
C352 C351 1.398 . S
C352 C353 1.391 . S
C353 H341 0.950 . S
C353 C349 1.393 . S
C353 C352 1.391 . S
H354 C362 0.950 . S
H355 C367 0.950 . S
H356 C364 0.950 . S
H357 C366 0.950 . S
H358 C368 0.950 . S
H359 C370 0.950 . S
H360 C372 0.950 . S
H361 C373 0.950 . S
C362 H354 0.950 . S
C362 C363 1.386 . S
C362 C364 1.391 . S
C363 C362 1.386 . S
C363 C367 1.393 . S
C364 H356 0.950 . S
C364 C362 1.391 . S
C364 C365 1.400 . S
C365 C364 1.400 . S
C365 C366 1.398 . S
C365 C371 1.491 . S
C366 H357 0.950 . S
C366 C365 1.398 . S
C366 C367 1.391 . S
C367 H355 0.950 . S
C367 C363 1.393 . S
C367 C366 1.391 . S
C368 H358 0.950 . S
C368 C369 1.386 . S
C368 C370 1.391 . S
C369 C368 1.386 . S
C369 C373 1.393 . S
C370 H359 0.950 . S
C370 C368 1.391 . S
C370 C371 1.400 . S
C371 C365 1.491 . S
C371 C370 1.400 . S
C371 C372 1.398 . S
C372 H360 0.950 . S
C372 C371 1.398 . S
C372 C373 1.391 . S
C373 H361 0.950 . S
C373 C369 1.393 . S
C373 C372 1.391 . S
H374 C382 0.950 . S
H375 C387 0.950 . S
H376 C384 0.950 . S
H377 C386 0.950 . S
H378 C388 0.950 . S
H379 C390 0.950 . S
H380 C392 0.950 . S
H381 C393 0.950 . S
C382 H374 0.950 . S
C382 C383 1.386 . S
C382 C384 1.391 . S
C383 C382 1.386 . S
C383 C387 1.393 . S
C384 H376 0.950 . S
C384 C382 1.391 . S
C384 C385 1.400 . S
C385 C384 1.400 . S
C385 C386 1.398 . S
C385 C391 1.491 . S
C386 H377 0.950 . S
C386 C385 1.398 . S
C386 C387 1.391 . S
C387 H375 0.950 . S
C387 C383 1.393 . S
C387 C386 1.391 . S
C388 H378 0.950 . S
C388 C389 1.386 . S
C388 C390 1.391 . S
C389 C388 1.386 . S
C389 C393 1.393 . S
C390 H379 0.950 . S
C390 C388 1.391 . S
C390 C391 1.400 . S
C391 C385 1.491 . S
C391 C390 1.400 . S
C391 C392 1.398 . S
C392 H380 0.950 . S
C392 C391 1.398 . S
C392 C393 1.391 . S
C393 H381 0.950 . S
C393 C389 1.393 . S
C393 C392 1.391 . S
H394 C402 0.950 . S
H395 C407 0.950 . S
H396 C404 0.950 . S
H397 C406 0.950 . S
H398 C408 0.950 . S
H399 C410 0.950 . S
H400 C412 0.950 . S
H401 C413 0.950 1_545 S
C402 H394 0.950 . S
C402 C403 1.386 . S
C402 C404 1.391 . S
C403 C402 1.386 . S
C403 C407 1.393 . S
C404 H396 0.950 . S
C404 C402 1.391 . S
C404 C405 1.400 . S
C405 C404 1.400 . S
C405 C406 1.398 . S
C405 C411 1.491 . S
C406 H397 0.950 . S
C406 C405 1.398 . S
C406 C407 1.391 . S
C407 H395 0.950 . S
C407 C403 1.393 . S
C407 C406 1.391 . S
C408 H398 0.950 . S
C408 C409 1.386 . S
C408 C410 1.391 . S
C409 C408 1.386 . S
C409 C413 1.393 . S
C410 H399 0.950 . S
C410 C408 1.391 . S
C410 C411 1.400 . S
C411 C405 1.491 . S
C411 C410 1.400 . S
C411 C412 1.398 . S
C412 H400 0.950 . S
C412 C411 1.398 . S
C412 C413 1.391 . S
C413 H401 0.950 1_565 S
C413 C409 1.393 . S
C413 C412 1.391 . S
H414 C422 0.950 . S
H415 C427 0.950 . S
H416 C424 0.950 . S
H417 C426 0.950 . S
H418 C428 0.950 . S
H419 C430 0.950 . S
H420 C432 0.950 . S
H421 C433 0.950 . S
C422 H414 0.950 . S
C422 C423 1.386 . S
C422 C424 1.391 . S
C423 C422 1.386 . S
C423 C427 1.393 . S
C424 H416 0.950 . S
C424 C422 1.391 . S
C424 C425 1.400 . S
C425 C424 1.400 . S
C425 C426 1.398 . S
C425 C431 1.491 . S
C426 H417 0.950 . S
C426 C425 1.398 . S
C426 C427 1.391 . S
C427 H415 0.950 . S
C427 C423 1.393 . S
C427 C426 1.391 . S
C428 H418 0.950 . S
C428 C429 1.386 . S
C428 C430 1.391 . S
C429 C428 1.386 . S
C429 C433 1.393 . S
C430 H419 0.950 . S
C430 C428 1.391 . S
C430 C431 1.400 . S
C431 C425 1.491 . S
C431 C430 1.400 . S
C431 C432 1.398 . S
C432 H420 0.950 . S
C432 C431 1.398 . S
C432 C433 1.391 . S
C433 H421 0.950 . S
C433 C429 1.393 . S
C433 C432 1.391 . S
H434 C442 0.950 . S
H435 C447 0.950 . S
H436 C444 0.950 . S
H437 C446 0.950 . S
H438 C448 0.950 . S
H439 C450 0.950 . S
H440 C452 0.950 . S
H441 C453 0.950 . S
C442 H434 0.950 . S
C442 C443 1.386 . S
C442 C444 1.391 . S
C443 C442 1.386 . S
C443 C447 1.393 . S
C444 H436 0.950 . S
C444 C442 1.391 . S
C444 C445 1.400 . S
C445 C444 1.400 . S
C445 C446 1.398 . S
C445 C451 1.491 . S
C446 H437 0.950 . S
C446 C445 1.398 . S
C446 C447 1.391 . S
C447 H435 0.950 . S
C447 C443 1.393 . S
C447 C446 1.391 . S
C448 H438 0.950 . S
C448 C449 1.386 . S
C448 C450 1.391 . S
C449 C448 1.386 . S
C449 C453 1.393 . S
C450 H439 0.950 . S
C450 C448 1.391 . S
C450 C451 1.400 . S
C451 C445 1.491 . S
C451 C450 1.400 . S
C451 C452 1.398 . S
C452 H440 0.950 . S
C452 C451 1.398 . S
C452 C453 1.391 . S
C453 H441 0.950 . S
C453 C449 1.393 . S
C453 C452 1.391 . S
H454 C462 0.950 . S
H455 C467 0.950 . S
H456 C464 0.950 . S
H457 C466 0.950 . S
H458 C468 0.950 . S
H459 C470 0.950 . S
H460 C472 0.950 . S
H461 C473 0.950 . S
C462 H454 0.950 . S
C462 C463 1.386 . S
C462 C464 1.391 . S
C463 C462 1.386 . S
C463 C467 1.393 . S
C464 H456 0.950 . S
C464 C462 1.391 . S
C464 C465 1.400 . S
C465 C464 1.400 . S
C465 C466 1.398 . S
C465 C471 1.491 . S
C466 H457 0.950 . S
C466 C465 1.398 . S
C466 C467 1.391 . S
C467 H455 0.950 . S
C467 C463 1.393 . S
C467 C466 1.391 . S
C468 H458 0.950 . S
C468 C469 1.386 . S
C468 C470 1.391 . S
C469 C468 1.386 . S
C469 C473 1.393 . S
C470 H459 0.950 . S
C470 C468 1.391 . S
C470 C471 1.400 . S
C471 C465 1.491 . S
C471 C470 1.400 . S
C471 C472 1.398 . S
C472 H460 0.950 . S
C472 C471 1.398 . S
C472 C473 1.391 . S
C473 H461 0.950 . S
C473 C469 1.393 . S
C473 C472 1.391 . S
H474 C482 0.950 . S
H475 C487 0.950 . S
H476 C484 0.950 . S
H477 C486 0.950 . S
H478 C488 0.950 1_655 S
H479 C490 0.930 1_655 S
H480 C492 0.950 1_554 S
H481 C493 0.950 . S
C482 H474 0.950 . S
C482 C483 1.386 . S
C482 C484 1.391 . S
C483 C482 1.386 . S
C483 C487 1.393 1_455 S
C484 H476 0.950 . S
C484 C482 1.391 . S
C484 C485 1.400 . S
C485 C484 1.400 . S
C485 C486 1.398 1_455 S
C485 C491 1.491 1_554 S
C486 H477 0.950 . S
C486 C485 1.398 1_655 S
C486 C487 1.391 . S
C487 H475 0.950 . S
C487 C483 1.393 1_655 S
C487 C486 1.391 . S
C488 H478 0.950 1_455 S
C488 C489 1.386 . S
C488 C490 1.397 . S
C489 C488 1.386 . S
C489 C493 1.393 . S
C490 H479 0.930 1_455 S
C490 C488 1.397 . S
C490 C491 1.413 . S
C491 C485 1.491 1_556 S
C491 C490 1.413 . S
C491 C492 1.398 . S
C492 H480 0.950 1_556 S
C492 C491 1.398 . S
C492 C493 1.391 . S
C493 H481 0.950 . S
C493 C489 1.393 . S
C493 C492 1.391 . S
H494 C502 0.950 . S
H495 C507 0.950 . S
H496 C504 0.952 1_565 S
H497 C506 0.950 . S
H498 C508 0.950 . S
H499 C510 0.950 . S
H500 C512 0.950 1_565 S
H501 C513 0.950 1_565 S
C502 H494 0.950 . S
C502 C503 1.386 1_565 S
C502 C504 1.392 1_565 S
C503 C502 1.386 1_545 S
C503 C507 1.393 . S
C504 H496 0.952 1_545 S
C504 C502 1.392 1_545 S
C504 C505 1.398 . S
C505 C504 1.398 . S
C505 C506 1.398 . S
C505 C511 1.491 . S
C506 H497 0.950 . S
C506 C505 1.398 . S
C506 C507 1.391 . S
C507 H495 0.950 . S
C507 C503 1.393 . S
C507 C506 1.391 . S
C508 H498 0.950 . S
C508 C509 1.386 . S
C508 C510 1.391 . S
C509 C508 1.386 . S
C509 C513 1.393 . S
C510 H499 0.950 . S
C510 C508 1.391 . S
C510 C511 1.400 . S
C511 C505 1.491 . S
C511 C510 1.400 . S
C511 C512 1.398 . S
C512 H500 0.950 1_545 S
C512 C511 1.398 . S
C512 C513 1.391 . S
C513 H501 0.950 1_545 S
C513 C509 1.393 . S
C513 C512 1.391 . S
H514 C522 0.950 . S
H515 C527 0.950 . S
H516 C524 0.950 . S
H517 C526 0.950 . S
H518 C528 0.950 . S
H519 C530 0.950 . S
H520 C532 0.950 . S
H521 C533 0.950 . S
C522 H514 0.950 . S
C522 C523 1.386 . S
C522 C524 1.391 . S
C523 C522 1.386 . S
C523 C527 1.393 . S
C524 H516 0.950 . S
C524 C522 1.391 . S
C524 C525 1.400 . S
C525 C524 1.400 . S
C525 C526 1.398 . S
C525 C531 1.491 . S
C526 H517 0.950 . S
C526 C525 1.398 . S
C526 C527 1.391 . S
C527 H515 0.950 . S
C527 C523 1.393 . S
C527 C526 1.391 . S
C528 H518 0.950 . S
C528 C529 1.386 . S
C528 C530 1.391 . S
C529 C528 1.386 . S
C529 C533 1.393 . S
C530 H519 0.950 . S
C530 C528 1.391 . S
C530 C531 1.400 . S
C531 C525 1.491 . S
C531 C530 1.400 . S
C531 C532 1.398 . S
C532 H520 0.950 . S
C532 C531 1.398 . S
C532 C533 1.391 . S
C533 H521 0.950 . S
C533 C529 1.393 . S
C533 C532 1.391 . S
H534 C542 0.950 . S
H535 C547 0.950 . S
H536 C544 0.950 . S
H537 C546 0.950 . S
H538 C548 0.950 . S
H539 C550 0.950 . S
H540 C552 0.950 . S
H541 C553 0.950 . S
C542 H534 0.950 . S
C542 C543 1.386 . S
C542 C544 1.391 . S
C543 C542 1.386 . S
C543 C547 1.393 . S
C544 H536 0.950 . S
C544 C542 1.391 . S
C544 C545 1.400 . S
C545 C544 1.400 . S
C545 C546 1.398 . S
C545 C551 1.491 . S
C546 H537 0.950 . S
C546 C545 1.398 . S
C546 C547 1.391 . S
C547 H535 0.950 . S
C547 C543 1.393 . S
C547 C546 1.391 . S
C548 H538 0.950 . S
C548 C549 1.386 . S
C548 C550 1.391 . S
C549 C548 1.386 . S
C549 C553 1.393 . S
C550 H539 0.950 . S
C550 C548 1.391 . S
C550 C551 1.400 . S
C551 C545 1.491 . S
C551 C550 1.400 . S
C551 C552 1.398 . S
C552 H540 0.950 . S
C552 C551 1.398 . S
C552 C553 1.391 . S
C553 H541 0.950 . S
C553 C549 1.393 . S
C553 C552 1.391 . S
H554 C562 0.950 . S
H555 C567 0.950 . S
H556 C564 0.950 . S
H557 C566 0.950 . S
H558 C568 0.950 . S
H559 C570 0.946 1_556 S
H560 C572 0.950 . S
H561 C573 0.950 . S
C562 H554 0.950 . S
C562 C563 1.386 . S
C562 C564 1.391 . S
C563 C562 1.386 . S
C563 C567 1.393 . S
C564 H556 0.950 . S
C564 C562 1.391 . S
C564 C565 1.400 . S
C565 C564 1.400 . S
C565 C566 1.398 . S
C565 C571 1.491 1_556 S
C566 H557 0.950 . S
C566 C565 1.398 . S
C566 C567 1.391 . S
C567 H555 0.950 . S
C567 C563 1.393 . S
C567 C566 1.391 . S
C568 H558 0.950 . S
C568 C569 1.386 . S
C568 C570 1.391 . S
C569 C568 1.386 . S
C569 C573 1.393 . S
C570 H559 0.946 1_554 S
C570 C568 1.391 . S
C570 C571 1.400 . S
C571 C565 1.491 1_554 S
C571 C570 1.400 . S
C571 C572 1.398 . S
C572 H560 0.950 . S
C572 C571 1.398 . S
C572 C573 1.391 . S
C573 H561 0.950 . S
C573 C569 1.393 . S
C573 C572 1.391 . S
H574 C582 0.950 . S
H575 C587 0.950 . S
H576 C584 0.950 . S
H577 C586 0.950 . S
H578 C588 0.950 . S
H579 C590 0.950 . S
H580 C592 0.950 . S
H581 C593 0.950 . S
C582 H574 0.950 . S
C582 C583 1.386 . S
C582 C584 1.391 . S
C583 C582 1.386 . S
C583 C587 1.393 . S
C584 H576 0.950 . S
C584 C582 1.391 . S
C584 C585 1.400 . S
C585 C584 1.400 . S
C585 C586 1.398 . S
C585 C591 1.491 . S
C586 H577 0.950 . S
C586 C585 1.398 . S
C586 C587 1.391 . S
C587 H575 0.950 . S
C587 C583 1.393 . S
C587 C586 1.391 . S
C588 H578 0.950 . S
C588 C589 1.386 . S
C588 C590 1.391 . S
C589 C588 1.386 . S
C589 C593 1.393 . S
C590 H579 0.950 . S
C590 C588 1.391 . S
C590 C591 1.400 . S
C591 C585 1.491 . S
C591 C590 1.400 . S
C591 C592 1.398 . S
C592 H580 0.950 . S
C592 C591 1.398 . S
C592 C593 1.391 . S
C593 H581 0.950 . S
C593 C589 1.393 . S
C593 C592 1.391 . S
C243 C12 3.089 . S
C249 C226 2.993 . S
C263 C52 3.088 . S
C269 C188 2.997 . S
C283 C111 3.115 . S
C289 C207 3.029 . S
C303 C31 3.039 . S
C309 C221 2.992 . S
C329 C183 2.997 . S
C323 C71 3.047 . S
C349 C202 2.960 . S
C343 C92 3.004 . S
C363 C48 0.685 . S
C369 C150 0.728 . S
C383 C109 0.289 . S
C389 C164 0.174 . S
C403 C29 0.250 . S
C409 C126 0.209 . S
C429 C145 0.305 . S
C423 C69 0.292 . S
C449 C169 0.525 . S
C443 C88 0.371 . S
C463 C8 0.406 . S
C469 C131 0.505 . S
C489 C160 1.341 . S
C483 C17 1.292 . S
C503 C57 1.297 . S
C509 C122 1.317 . S
C523 C97 1.327 . S
C529 C141 1.331 . S
C549 C198 1.712 . S
C543 C42 1.715 . S
C569 C217 1.734 . S
C563 C82 1.726 . S
C583 C2 1.737 . S
C589 C179 1.749 . S
