# Generated by pormake.
# Topology wbl, (4,4)-cn, num edge types: 1
# Building blocks:
#     Node 0, Type 0, BuildingBlock: MIFKUJ_clean_linker_1, # of connection points: 4
#     Node 1, Type 0, BuildingBlock: MIFKUJ_clean_linker_1, # of connection points: 4
#     Node 2, Type 0, BuildingBlock: MIFKUJ_clean_linker_1, # of connection points: 4
#     Node 3, Type 0, BuildingBlock: MIFKUJ_clean_linker_1, # of connection points: 4
#     Node 4, Type 0, BuildingBlock: MIFKUJ_clean_linker_1, # of connection points: 4
#     Node 5, Type 0, BuildingBlock: MIFKUJ_clean_linker_1, # of connection points: 4
#     Node 6, Type 0, BuildingBlock: MIFKUJ_clean_linker_1, # of connection points: 4
#     Node 7, Type 0, BuildingBlock: MIFKUJ_clean_linker_1, # of connection points: 4
#     Node 8, Type 1, BuildingBlock: CEKHIL_clean_sbu_0, # of connection points: 4
#     Node 9, Type 1, BuildingBlock: CEKHIL_clean_sbu_0, # of connection points: 4
#     Node 10, Type 1, BuildingBlock: CEKHIL_clean_sbu_0, # of connection points: 4
#     Node 11, Type 1, BuildingBlock: CEKHIL_clean_sbu_0, # of connection points: 4
#     Node 12, Type 1, BuildingBlock: CEKHIL_clean_sbu_0, # of connection points: 4
#     Node 13, Type 1, BuildingBlock: CEKHIL_clean_sbu_0, # of connection points: 4
#     Node 14, Type 1, BuildingBlock: CEKHIL_clean_sbu_0, # of connection points: 4
#     Node 15, Type 1, BuildingBlock: CEKHIL_clean_sbu_0, # of connection points: 4
#     Edge 16, Type (0, 1), BuildingBlock: CIFDUS_clean_linker_0, # of connection points: 2
#     Edge 17, Type (0, 1), BuildingBlock: CIFDUS_clean_linker_0, # of connection points: 2
#     Edge 18, Type (0, 1), BuildingBlock: CIFDUS_clean_linker_0, # of connection points: 2
#     Edge 19, Type (0, 1), BuildingBlock: CIFDUS_clean_linker_0, # of connection points: 2
#     Edge 20, Type (0, 1), BuildingBlock: CIFDUS_clean_linker_0, # of connection points: 2
#     Edge 21, Type (0, 1), BuildingBlock: CIFDUS_clean_linker_0, # of connection points: 2
#     Edge 22, Type (0, 1), BuildingBlock: CIFDUS_clean_linker_0, # of connection points: 2
#     Edge 23, Type (0, 1), BuildingBlock: CIFDUS_clean_linker_0, # of connection points: 2
#     Edge 24, Type (0, 1), BuildingBlock: CIFDUS_clean_linker_0, # of connection points: 2
#     Edge 25, Type (0, 1), BuildingBlock: CIFDUS_clean_linker_0, # of connection points: 2
#     Edge 26, Type (0, 1), BuildingBlock: CIFDUS_clean_linker_0, # of connection points: 2
#     Edge 27, Type (0, 1), BuildingBlock: CIFDUS_clean_linker_0, # of connection points: 2
#     Edge 28, Type (0, 1), BuildingBlock: CIFDUS_clean_linker_0, # of connection points: 2
#     Edge 29, Type (0, 1), BuildingBlock: CIFDUS_clean_linker_0, # of connection points: 2
#     Edge 30, Type (0, 1), BuildingBlock: CIFDUS_clean_linker_0, # of connection points: 2
#     Edge 31, Type (0, 1), BuildingBlock: CIFDUS_clean_linker_0, # of connection points: 2
#     Edge 32, Type (0, 1), BuildingBlock: CIFDUS_clean_linker_0, # of connection points: 2
#     Edge 33, Type (0, 1), BuildingBlock: CIFDUS_clean_linker_0, # of connection points: 2
#     Edge 34, Type (0, 1), BuildingBlock: CIFDUS_clean_linker_0, # of connection points: 2
#     Edge 35, Type (0, 1), BuildingBlock: CIFDUS_clean_linker_0, # of connection points: 2
#     Edge 36, Type (0, 1), BuildingBlock: CIFDUS_clean_linker_0, # of connection points: 2
#     Edge 37, Type (0, 1), BuildingBlock: CIFDUS_clean_linker_0, # of connection points: 2
#     Edge 38, Type (0, 1), BuildingBlock: CIFDUS_clean_linker_0, # of connection points: 2
#     Edge 39, Type (0, 1), BuildingBlock: CIFDUS_clean_linker_0, # of connection points: 2
#     Edge 40, Type (0, 1), BuildingBlock: CIFDUS_clean_linker_0, # of connection points: 2
#     Edge 41, Type (0, 1), BuildingBlock: CIFDUS_clean_linker_0, # of connection points: 2
#     Edge 42, Type (0, 1), BuildingBlock: CIFDUS_clean_linker_0, # of connection points: 2
#     Edge 43, Type (0, 1), BuildingBlock: CIFDUS_clean_linker_0, # of connection points: 2
#     Edge 44, Type (0, 1), BuildingBlock: CIFDUS_clean_linker_0, # of connection points: 2
#     Edge 45, Type (0, 1), BuildingBlock: CIFDUS_clean_linker_0, # of connection points: 2
#     Edge 46, Type (0, 1), BuildingBlock: CIFDUS_clean_linker_0, # of connection points: 2
#     Edge 47, Type (0, 1), BuildingBlock: CIFDUS_clean_linker_0, # of connection points: 2
# Relax obj value: 0.158
# Max RMSD: 0.159
# Mean RMSD: 0.138
data_MOF--net-wbl--node1-CEKHIL_clean_sbu_0--node2-MIFKUJ_clean_linker_1--edge1-CIFDUS_clean_linker_0
_symmetry_space_group_name_H-M    P1
_symmetry_Int_Tables_number       1
_symmetry_cell_setting            triclinic
loop_
_symmetry_equiv_pos_as_xyz
'x, y, z'
_cell_length_a     41.074491
_cell_length_b     41.249229
_cell_length_c     67.487273
_cell_angle_alpha  90.404111
_cell_angle_beta   90.060838
_cell_angle_gamma 90.075633
loop_
_atom_site_label
_atom_site_type_symbol
_atom_site_fract_x
_atom_site_fract_y
_atom_site_fract_z
_atom_type_partial_charge
H0 H 0.99907 0.09369 0.3477 0.0
H1 H 0.96186 0.1172 0.37221 0.0
H2 H 0.89904 0.03365 0.36636 0.0
H3 H 0.93619 0.01047 0.34151 0.0
H4 H 0.02554 0.02614 0.35565 0.0
H5 H 0.96289 0.08884 0.30822 0.0
H6 H 0.90852 0.10238 0.29632 0.0
H7 H 0.89618 0.00388 0.27525 0.0
H8 H 0.9498 0.99007 0.2883 0.0
H9 H 0.04065 0.9453 0.28604 0.0
H10 H 0.08653 0.91846 0.2692 0.0
H11 H 0.15039 0.99566 0.28871 0.0
H12 H 0.10482 0.02213 0.30534 0.0
H13 H 0.01189 0.00792 0.28334 0.0
H14 H 0.06017 0.94077 0.33005 0.0
H15 H 0.09543 0.91249 0.35325 0.0
H16 H 0.12582 0.00441 0.37827 0.0
H17 H 0.09012 0.03264 0.35503 0.0
C18 C 0.97024 0.05047 0.34282 0.0
C19 C 0.97688 0.08084 0.35136 0.0
C20 C 0.95556 0.09428 0.36526 0.0
C21 C 0.92761 0.07721 0.37114 0.0
C22 C 0.92044 0.04725 0.36206 0.0
C23 C 0.94153 0.03406 0.34788 0.0
C24 C 0.99507 0.03447 0.3303 0.0
C25 C 0.02301 0.02287 0.33975 0.0
C26 C 0.9905 0.02849 0.30982 0.0
C27 C 0.96007 0.03823 0.29964 0.0
C28 C 0.94847 0.07017 0.30102 0.0
C29 C 0.9175 0.07799 0.29396 0.0
C30 C 0.89773 0.05409 0.28507 0.0
C31 C 0.91044 0.02268 0.28243 0.0
C32 C 0.94126 0.01482 0.2897 0.0
C33 C 0.06945 0.98563 0.29692 0.0
C34 C 0.06448 0.95656 0.2864 0.0
C35 C 0.09067 0.94117 0.27696 0.0
C36 C 0.12196 0.95503 0.27764 0.0
C37 C 0.1265 0.9846 0.28774 0.0
C38 C 0.10053 0.99969 0.2973 0.0
C39 C 0.04299 1.0006 0.30867 0.0
C40 C 0.01478 0.01184 0.29915 0.0
C41 C 0.04656 0.00522 0.32932 0.0
C42 C 0.07249 0.98884 0.34081 0.0
C43 C 0.07521 0.95492 0.34008 0.0
C44 C 0.09544 0.93874 0.35337 0.0
C45 C 0.1132 0.95619 0.36773 0.0
C46 C 0.11205 0.99028 0.36757 0.0
C47 C 0.09176 0.00645 0.35428 0.0
H48 H 0.02169 0.44276 0.53727 0.0
H49 H 0.99728 0.39409 0.5229 0.0
H50 H 0.90152 0.43585 0.53064 0.0
H51 H 0.92633 0.48396 0.5458 0.0
H52 H 0.01719 0.51205 0.52841 0.0
H53 H 0.98607 0.43335 0.57934 0.0
H54 H 0.9526 0.40107 0.60199 0.0
H55 H 0.89808 0.48672 0.61782 0.0
H56 H 0.93073 0.51872 0.59481 0.0
H57 H 0.99573 0.58955 0.60095 0.0
H58 H 0.02525 0.62313 0.62486 0.0
H59 H 0.11645 0.59058 0.59979 0.0
H60 H 0.08688 0.55521 0.57708 0.0
H61 H 0.99491 0.52751 0.60011 0.0
H62 H 0.01047 0.60361 0.54854 0.0
H63 H 0.04384 0.64686 0.53473 0.0
H64 H 0.12067 0.57814 0.52267 0.0
H65 H 0.08661 0.53445 0.5364 0.0
C66 C 0.97584 0.46689 0.54262 0.0
C67 C 0.99547 0.44159 0.53557 0.0
C68 C 0.98138 0.41376 0.52731 0.0
C69 C 0.94729 0.41083 0.52561 0.0
C70 C 0.92776 0.43689 0.53203 0.0
C71 C 0.9419 0.46459 0.54051 0.0
C72 C 0.99076 0.49419 0.55377 0.0
C73 C 0.01247 0.51528 0.54411 0.0
C74 C 0.98366 0.49933 0.57405 0.0
C75 C 0.96085 0.47848 0.58533 0.0
C76 C 0.96618 0.44496 0.58714 0.0
C77 C 0.94711 0.42654 0.60007 0.0
C78 C 0.92291 0.44154 0.61158 0.0
C79 C 0.91664 0.47469 0.60906 0.0
C80 C 0.93534 0.49295 0.59601 0.0
C81 C 0.03898 0.56981 0.58712 0.0
C82 C 0.02209 0.58991 0.60047 0.0
C83 C 0.03905 0.60946 0.61401 0.0
C84 C 0.07332 0.60944 0.6144 0.0
C85 C 0.0901 0.59084 0.60015 0.0
C86 C 0.07314 0.57092 0.58688 0.0
C87 C 0.02119 0.54537 0.57488 0.0
C88 C 0.99925 0.52459 0.58434 0.0
C89 C 0.02712 0.54128 0.55438 0.0
C90 C 0.04606 0.56589 0.54342 0.0
C91 C 0.03422 0.5977 0.54255 0.0
C92 C 0.05333 0.62237 0.53467 0.0
C93 C 0.08485 0.61583 0.52763 0.0
C94 C 0.09649 0.58379 0.52806 0.0
C95 C 0.07701 0.55885 0.53569 0.0
H96 H 0.46925 0.57519 0.8314 0.0
H97 H 0.43629 0.60632 0.85491 0.0
H98 H 0.40202 0.51717 0.88086 0.0
H99 H 0.43467 0.48612 0.8571 0.0
H100 H 0.49923 0.4884 0.85711 0.0
H101 H 0.48243 0.56904 0.78848 0.0
H102 H 0.43573 0.59422 0.77145 0.0
H103 H 0.37483 0.5142 0.78933 0.0
H104 H 0.42095 0.48966 0.80634 0.0
H105 H 0.53951 0.43577 0.78142 0.0
H106 H 0.59109 0.41559 0.76737 0.0
H107 H 0.64423 0.48257 0.80481 0.0
H108 H 0.59309 0.50239 0.81867 0.0
H109 H 0.51127 0.50187 0.78442 0.0
H110 H 0.54316 0.413 0.82433 0.0
H111 H 0.57581 0.37703 0.84508 0.0
H112 H 0.59311 0.45629 0.88601 0.0
H113 H 0.56147 0.49223 0.8649 0.0
C114 C 0.45444 0.52831 0.84249 0.0
C115 C 0.45381 0.56231 0.8417 0.0
C116 C 0.43517 0.58009 0.85524 0.0
C117 C 0.41678 0.56418 0.86981 0.0
C118 C 0.41571 0.53011 0.8697 0.0
C119 C 0.43452 0.51233 0.85623 0.0
C120 C 0.47912 0.51002 0.83089 0.0
C121 C 0.50177 0.49124 0.84122 0.0
C122 C 0.48182 0.51285 0.81011 0.0
C123 C 0.45505 0.52746 0.79855 0.0
C124 C 0.45903 0.5569 0.7885 0.0
C125 C 0.43241 0.57132 0.77894 0.0
C126 C 0.4018 0.55601 0.77899 0.0
C127 C 0.39823 0.52632 0.78884 0.0
C128 C 0.42452 0.5123 0.79858 0.0
C129 C 0.56256 0.47065 0.801 0.0
C130 C 0.56232 0.44627 0.78637 0.0
C131 C 0.59172 0.43457 0.77854 0.0
C132 C 0.62164 0.44755 0.78499 0.0
C133 C 0.62158 0.47232 0.7994 0.0
C134 C 0.59239 0.48367 0.80733 0.0
C135 C 0.53219 0.48135 0.8109 0.0
C136 C 0.50866 0.49892 0.80029 0.0
C137 C 0.52791 0.47639 0.83143 0.0
C138 C 0.54999 0.45534 0.84304 0.0
C139 C 0.55463 0.42277 0.83754 0.0
C140 C 0.57304 0.40216 0.84949 0.0
C141 C 0.58706 0.41377 0.86719 0.0
C142 C 0.58311 0.44665 0.87233 0.0
C143 C 0.56474 0.46719 0.86038 0.0
H144 H 0.5099 0.94248 0.04266 0.0
H145 H 0.49161 0.89272 0.02647 0.0
H146 H 0.39182 0.92556 0.03069 0.0
H147 H 0.4105 0.97477 0.04768 0.0
H148 H 0.49982 0.01255 0.03612 0.0
H149 H 0.48073 0.92863 0.08643 0.0
H150 H 0.45183 0.88904 0.10696 0.0
H151 H 0.37219 0.9564 0.11391 0.0
H152 H 0.4013 0.99591 0.09357 0.0
H153 H 0.46266 0.08038 0.10918 0.0
H154 H 0.48533 0.10875 0.13797 0.0
H155 H 0.58202 0.07919 0.12048 0.0
H156 H 0.55924 0.05104 0.09162 0.0
H157 H 0.46753 0.01632 0.10693 0.0
H158 H 0.48736 0.10238 0.06369 0.0
H159 H 0.51643 0.14742 0.04847 0.0
H160 H 0.59111 0.08154 0.02816 0.0
H161 H 0.56172 0.03616 0.04354 0.0
C162 C 0.46155 0.96214 0.04639 0.0
C163 C 0.48417 0.9392 0.03971 0.0
C164 C 0.47357 0.91077 0.03038 0.0
C165 C 0.44012 0.90491 0.02732 0.0
C166 C 0.41767 0.92891 0.03311 0.0
C167 C 0.4283 0.95719 0.04265 0.0
C168 C 0.47242 0.98923 0.05923 0.0
C169 C 0.493 0.01335 0.05163 0.0
C170 C 0.46273 0.99082 0.07925 0.0
C171 C 0.44306 0.9651 0.08857 0.0
C172 C 0.45669 0.93447 0.09198 0.0
C173 C 0.44025 0.91198 0.1037 0.0
C174 C 0.40984 0.91974 0.11199 0.0
C175 C 0.39541 0.94968 0.1075 0.0
C176 C 0.41205 0.9723 0.09602 0.0
C177 C 0.50921 0.06339 0.09833 0.0
C178 C 0.48882 0.08078 0.11124 0.0
C179 C 0.50179 0.09689 0.12771 0.0
C180 C 0.5354 0.09574 0.13164 0.0
C181 C 0.55607 0.08068 0.11778 0.0
C182 C 0.54305 0.06456 0.10126 0.0
C183 C 0.49496 0.03995 0.08396 0.0
C184 C 0.474 0.0161 0.09134 0.0
C185 C 0.50401 0.03901 0.06376 0.0
C186 C 0.52247 0.06599 0.0548 0.0
C187 C 0.5101 0.0976 0.05609 0.0
C188 C 0.52661 0.12326 0.0473 0.0
C189 C 0.5559 0.11785 0.03709 0.0
C190 C 0.56863 0.08628 0.03603 0.0
C191 C 0.55182 0.06043 0.04468 0.0
H192 H 0.00781 0.59772 0.89681 0.0
H193 H 0.0431 0.63119 0.87609 0.0
H194 H 0.12471 0.56948 0.89005 0.0
H195 H 0.0892 0.53615 0.91101 0.0
H196 H 0.99923 0.52744 0.89031 0.0
H197 H 0.03856 0.60565 0.93906 0.0
H198 H 0.0871 0.63201 0.95233 0.0
H199 H 0.11893 0.54042 0.97639 0.0
H200 H 0.07137 0.51385 0.96179 0.0
H201 H 0.97868 0.44661 0.95716 0.0
H202 H 0.92981 0.4157 0.96676 0.0
H203 H 0.86964 0.49682 0.95004 0.0
H204 H 0.91799 0.52704 0.94028 0.0
H205 H 0.00395 0.51964 0.96369 0.0
H206 H 0.96929 0.44037 0.91665 0.0
H207 H 0.93447 0.4076 0.89511 0.0
H208 H 0.90141 0.49457 0.86598 0.0
H209 H 0.93489 0.5273 0.88838 0.0
C210 C 0.04594 0.56449 0.90534 0.0
C211 C 0.03339 0.59165 0.89558 0.0
C212 C 0.05361 0.6109 0.88393 0.0
C213 C 0.08663 0.60298 0.88157 0.0
C214 C 0.09933 0.57609 0.89167 0.0
C215 C 0.07914 0.55707 0.90358 0.0
C216 C 0.02378 0.54346 0.91679 0.0
C217 C 1.00007 0.52592 0.90635 0.0
C218 C 0.02594 0.54055 0.93764 0.0
C219 C 0.0518 0.55762 0.94898 0.0
C220 C 0.056 0.59127 0.94723 0.0
C221 C 0.08367 0.6064 0.95503 0.0
C222 C 0.10736 0.58828 0.96515 0.0
C223 C 0.10172 0.55498 0.96818 0.0
C224 C 0.07428 0.5398 0.96009 0.0
C225 C 0.95173 0.48889 0.94785 0.0
C226 C 0.95498 0.45798 0.95623 0.0
C227 C 0.92716 0.44037 0.96162 0.0
C228 C 0.89606 0.45372 0.95871 0.0
C229 C 0.89333 0.48579 0.95207 0.0
C230 C 0.92089 0.50316 0.94665 0.0
C231 C 0.97885 0.50434 0.93714 0.0
C232 C 0.00329 0.52097 0.94765 0.0
C233 C 0.97791 0.50595 0.91622 0.0
C234 C 0.95455 0.48636 0.90426 0.0
C235 C 0.95373 0.45248 0.90608 0.0
C236 C 0.93407 0.43371 0.89357 0.0
C237 C 0.91524 0.44837 0.8787 0.0
C238 C 0.9152 0.48243 0.87741 0.0
C239 C 0.93466 0.5012 0.89006 0.0
H240 H 0.52369 0.56808 0.20593 0.0
H241 H 0.50478 0.61791 0.22173 0.0
H242 H 0.40602 0.58111 0.22055 0.0
H243 H 0.42522 0.53217 0.20361 0.0
H244 H 0.51181 0.49583 0.21581 0.0
H245 H 0.49898 0.57787 0.16448 0.0
H246 H 0.47562 0.61638 0.14094 0.0
H247 H 0.3955 0.55059 0.1302 0.0
H248 H 0.41889 0.51236 0.15379 0.0
H249 H 0.47487 0.42385 0.14459 0.0
H250 H 0.49691 0.39325 0.11652 0.0
H251 H 0.59423 0.42201 0.13352 0.0
H252 H 0.57206 0.45221 0.16171 0.0
H253 H 0.48326 0.48876 0.14445 0.0
H254 H 0.49517 0.40572 0.19153 0.0
H255 H 0.52179 0.36025 0.20789 0.0
H256 H 0.60177 0.42262 0.22483 0.0
H257 H 0.57469 0.46852 0.20846 0.0
C258 C 0.47583 0.54662 0.20364 0.0
C259 C 0.49806 0.57066 0.20937 0.0
C260 C 0.48712 0.5991 0.21851 0.0
C261 C 0.45373 0.60379 0.22243 0.0
C262 C 0.43176 0.57878 0.21743 0.0
C263 C 0.4427 0.55061 0.20795 0.0
C264 C 0.48683 0.51881 0.19154 0.0
C265 C 0.50583 0.49436 0.20017 0.0
C266 C 0.4782 0.51638 0.17136 0.0
C267 C 0.46057 0.54236 0.16086 0.0
C268 C 0.47581 0.5723 0.15757 0.0
C269 C 0.46258 0.59414 0.14403 0.0
C270 C 0.43388 0.58637 0.13366 0.0
C271 C 0.41746 0.55739 0.13811 0.0
C272 C 0.43084 0.53547 0.15151 0.0
C273 C 0.52179 0.4405 0.15513 0.0
C274 C 0.50102 0.42269 0.14263 0.0
C275 C 0.51364 0.40533 0.12657 0.0
C276 C 0.54725 0.40573 0.12262 0.0
C277 C 0.56826 0.42109 0.13622 0.0
C278 C 0.5556 0.4384 0.15235 0.0
C279 C 0.50813 0.46555 0.16858 0.0
C280 C 0.48884 0.4898 0.16017 0.0
C281 C 0.51627 0.46752 0.18889 0.0
C282 C 0.53301 0.44039 0.1988 0.0
C283 C 0.51845 0.40964 0.19873 0.0
C284 C 0.53359 0.38376 0.20813 0.0
C285 C 0.56371 0.38807 0.21765 0.0
C286 C 0.57858 0.41877 0.21752 0.0
C287 C 0.56311 0.44491 0.20831 0.0
H288 H 0.49325 0.92188 0.40091 0.0
H289 H 0.45585 0.90122 0.37557 0.0
H290 H 0.38809 0.9779 0.38967 0.0
H291 H 0.42546 0.99801 0.41553 0.0
H292 H 0.50799 0.99906 0.39681 0.0
H293 H 0.46597 0.91136 0.43743 0.0
H294 H 0.41733 0.88719 0.45161 0.0
H295 H 0.40863 0.96914 0.49162 0.0
H296 H 0.45486 0.99483 0.47565 0.0
H297 H 0.54108 0.05866 0.47039 0.0
H298 H 0.59098 0.08205 0.48505 0.0
H299 H 0.64822 0.00929 0.45476 0.0
H300 H 0.5988 0.98649 0.44018 0.0
H301 H 0.51628 0.9865 0.46972 0.0
H302 H 0.54293 0.07696 0.42916 0.0
H303 H 0.57223 0.11515 0.40806 0.0
H304 H 0.6024 0.0358 0.37023 0.0
H305 H 0.57357 0.99771 0.39159 0.0
C306 C 0.46184 0.96115 0.4102 0.0
C307 C 0.46984 0.93354 0.399 0.0
C308 C 0.44842 0.92172 0.38461 0.0
C309 C 0.41904 0.9379 0.38076 0.0
C310 C 0.41052 0.96492 0.39247 0.0
C311 C 0.43173 0.97635 0.40721 0.0
C312 C 0.48717 0.97674 0.42257 0.0
C313 C 0.50999 0.996 0.41274 0.0
C314 C 0.48868 0.97369 0.44345 0.0
C315 C 0.4632 0.95578 0.45467 0.0
C316 C 0.45317 0.92448 0.44895 0.0
C317 C 0.42565 0.91025 0.45747 0.0
C318 C 0.40817 0.92652 0.47246 0.0
C319 C 0.42044 0.95637 0.47956 0.0
C320 C 0.44733 0.97098 0.47061 0.0
C321 C 0.56636 0.02071 0.45438 0.0
C322 C 0.56441 0.04759 0.46721 0.0
C323 C 0.59284 0.06106 0.47539 0.0
C324 C 0.62341 0.04737 0.47111 0.0
C325 C 0.625 0.0201 0.45854 0.0
C326 C 0.59681 0.00702 0.45021 0.0
C327 C 0.53739 0.00819 0.44376 0.0
C328 C 0.51413 0.98943 0.45382 0.0
C329 C 0.53469 0.01218 0.42309 0.0
C330 C 0.55619 0.03449 0.41197 0.0
C331 C 0.55663 0.0677 0.41664 0.0
C332 C 0.57314 0.08953 0.40449 0.0
C333 C 0.58952 0.07849 0.38746 0.0
C334 C 0.59034 0.04502 0.38337 0.0
C335 C 0.57369 0.02324 0.39547 0.0
H336 H 0.0004 0.07318 0.71422 0.0
H337 H 0.97478 0.12392 0.72476 0.0
H338 H 0.88176 0.08877 0.70393 0.0
H339 H 0.90763 0.03778 0.69326 0.0
H340 H 0.9903 0.00325 0.7199 0.0
H341 H 0.97573 0.08929 0.66715 0.0
H342 H 0.94367 0.12142 0.64366 0.0
H343 H 0.89556 0.0339 0.62348 0.0
H344 H 0.92679 0.00245 0.64721 0.0
H345 H 0.01599 0.91357 0.66903 0.0
H346 H 0.05403 0.88199 0.64847 0.0
H347 H 0.1041 0.97054 0.633 0.0
H348 H 0.06676 0.0014 0.6537 0.0
H349 H 0.99676 1.00052 0.64648 0.0
H350 H 0.9842 0.92873 0.71282 0.0
H351 H 0.01144 0.88202 0.72712 0.0
H352 H 0.10484 0.92739 0.71663 0.0
H353 H 0.07706 0.97351 0.70145 0.0
C354 C 0.95597 0.05179 0.70289 0.0
C355 C 0.97433 0.07594 0.71245 0.0
C356 C 0.95973 0.10499 0.71831 0.0
C357 C 0.9264 0.1103 0.71495 0.0
C358 C 0.90748 0.08519 0.70672 0.0
C359 C 0.92221 0.05614 0.70065 0.0
C360 C 0.97328 0.02491 0.69272 0.0
C361 C 0.99154 0.00256 0.70386 0.0
C362 C 0.9742 0.02312 0.6718 0.0
C363 C 0.95345 0.04353 0.65896 0.0
C364 C 0.95779 0.07725 0.6579 0.0
C365 C 0.93962 0.09551 0.6444 0.0
C366 C 0.91693 0.08028 0.63172 0.0
C367 C 0.91228 0.04659 0.63325 0.0
C368 C 0.93035 0.02847 0.64668 0.0
C369 C 0.03864 0.95979 0.66282 0.0
C370 C 0.0356 0.92594 0.66147 0.0
C371 C 0.05724 0.90799 0.64968 0.0
C372 C 0.08223 0.92369 0.63915 0.0
C373 C 0.08564 0.95749 0.64118 0.0
C374 C 0.06408 0.97529 0.65284 0.0
C375 C 0.01451 0.97986 0.67358 0.0
C376 C 0.99517 0.00101 0.66254 0.0
C377 C 0.01173 0.97962 0.69442 0.0
C378 C 0.02859 0.95457 0.70619 0.0
C379 C 0.01052 0.92887 0.714 0.0
C380 C 0.02625 0.90213 0.72221 0.0
C381 C 0.06051 0.90068 0.72305 0.0
C382 C 0.07851 0.92728 0.71594 0.0
C383 C 0.06269 0.95389 0.7075 0.0
Co384 Co 0.33521 0.66414 0.0052 0.0
O385 O 0.31068 0.62502 0.00085 0.0
O386 O 0.29407 0.67434 0.99279 0.0
C387 C 0.34944 0.65348 0.03675 0.0
O388 O 0.35312 0.71018 0.0081 0.0
Co389 Co 0.40953 0.66108 0.01398 0.0
O390 O 0.40562 0.70838 0.01784 0.0
C391 C 0.38581 0.65016 0.97322 0.0
C392 C 0.2882 0.64337 0.9934 0.0
C393 C 0.37987 0.72396 0.01354 0.0
O394 O 0.35671 0.65804 0.97845 0.0
O395 O 0.4096 0.64795 0.98539 0.0
O396 O 0.32105 0.66569 0.03282 0.0
O397 O 0.36687 0.6455 0.02156 0.0
Co398 Co 0.33044 0.83514 0.24353 0.0
O399 O 0.30224 0.87206 0.24447 0.0
O400 O 0.2873 0.822 0.25197 0.0
C401 C 0.35267 0.84619 0.21384 0.0
O402 O 0.35283 0.79106 0.24315 0.0
Co403 Co 0.40546 0.8462 0.24328 0.0
O404 O 0.40699 0.79847 0.23983 0.0
C405 C 0.36773 0.85981 0.27914 0.0
C406 C 0.27945 0.85241 0.25012 0.0
C407 C 0.38203 0.78018 0.24101 0.0
O408 O 0.3437 0.84345 0.272 0.0
O409 O 0.39309 0.86703 0.26912 0.0
O410 O 0.32451 0.83186 0.21478 0.0
O411 O 0.36448 0.85604 0.23055 0.0
Co412 Co 0.16811 0.84156 0.49683 0.0
O413 O 0.13205 0.81254 0.49407 0.0
O414 O 0.18214 0.79703 0.5014 0.0
C415 C 0.15711 0.87022 0.46927 0.0
O416 O 0.21158 0.86589 0.49962 0.0
Co417 Co 0.15306 0.91526 0.5028 0.0
O418 O 0.19987 0.91901 0.4966 0.0
C419 C 0.14437 0.8703 0.536 0.0
C420 C 0.15192 0.7891 0.49794 0.0
C421 C 0.2203 0.89583 0.4976 0.0
O422 O 0.15771 0.84714 0.52603 0.0
O423 O 0.13836 0.89834 0.52895 0.0
O424 O 0.17299 0.84306 0.46792 0.0
O425 O 0.14605 0.87715 0.48664 0.0
Co426 Co 0.1757 0.68664 0.75212 0.0
O427 O 0.13832 0.7145 0.75006 0.0
O428 O 0.18863 0.72871 0.74213 0.0
C429 C 0.16399 0.6675 0.78254 0.0
O430 O 0.2206 0.66501 0.75339 0.0
Co431 Co 0.16641 0.6116 0.75606 0.0
O432 O 0.21395 0.61196 0.76028 0.0
C433 C 0.15885 0.64249 0.71704 0.0
C434 C 0.15809 0.73666 0.74372 0.0
C435 C 0.23197 0.63661 0.75731 0.0
O436 O 0.16813 0.67014 0.72407 0.0
O437 O 0.15474 0.6172 0.72761 0.0
O438 O 0.17808 0.69556 0.78075 0.0
O439 O 0.1549 0.65385 0.76623 0.0
Co440 Co 0.84353 0.19144 0.49387 0.0
O441 O 0.87837 0.2225 0.49494 0.0
O442 O 0.82773 0.23245 0.50438 0.0
C443 C 0.85463 0.17302 0.46304 0.0
O444 O 0.80092 0.16547 0.49379 0.0
Co445 Co 0.86017 0.11789 0.48997 0.0
O446 O 0.81263 0.11341 0.48631 0.0
C447 C 0.86934 0.15126 0.52819 0.0
C448 C 0.85738 0.24295 0.50201 0.0
C449 C 0.79227 0.13603 0.48982 0.0
O450 O 0.85476 0.17658 0.5216 0.0
O451 O 0.87611 0.12642 0.51754 0.0
O452 O 0.83799 0.19952 0.46546 0.0
O453 O 0.86635 0.16059 0.47901 0.0
Co454 Co 0.83914 0.34956 0.74224 0.0
O455 O 0.80965 0.38429 0.74826 0.0
O456 O 0.79703 0.3323 0.75017 0.0
C457 C 0.85739 0.37216 0.71397 0.0
O458 O 0.86305 0.30689 0.73614 0.0
Co459 Co 0.91356 0.36203 0.73896 0.0
O460 O 0.9129 0.31983 0.72498 0.0
C461 C 0.88247 0.35865 0.77843 0.0
C462 C 0.78792 0.3624 0.75203 0.0
C463 C 0.89015 0.2993 0.72763 0.0
O464 O 0.85498 0.35029 0.7707 0.0
O465 O 0.90779 0.36569 0.76829 0.0
O466 O 0.8308 0.35504 0.71378 0.0
O467 O 0.87078 0.37626 0.73107 0.0
Co468 Co 0.67575 0.32 0.99267 0.0
O469 O 0.63956 0.29083 0.99352 0.0
O470 O 0.68901 0.2794 0.00455 0.0
C471 C 0.66773 0.33617 0.96127 0.0
O472 O 0.71927 0.34404 0.99318 0.0
Co473 Co 0.66211 0.39371 0.98675 0.0
O474 O 0.70972 0.39475 0.9823 0.0
C475 C 0.64488 0.36216 0.02421 0.0
C476 C 0.65901 0.27017 0.00175 0.0
C477 C 0.72902 0.37193 0.98709 0.0
O478 O 0.66292 0.33777 0.01957 0.0
O479 O 0.63879 0.38535 0.01227 0.0
O480 O 0.683 0.30919 0.96461 0.0
O481 O 0.65539 0.35034 0.97656 0.0
Co482 Co 0.66894 0.17821 0.26126 0.0
O483 O 0.63547 0.21043 0.26122 0.0
O484 O 0.68495 0.21743 0.24893 0.0
C485 C 0.66181 0.16288 0.29282 0.0
O486 O 0.71012 0.15077 0.25972 0.0
Co487 Co 0.65066 0.10591 0.2678 0.0
O488 O 0.69841 0.10056 0.27043 0.0
C489 C 0.63369 0.1378 0.23036 0.0
C490 C 0.65613 0.22927 0.25244 0.0
C491 C 0.7188 0.1221 0.26504 0.0
O492 O 0.65288 0.16149 0.23474 0.0
O493 O 0.62701 0.11495 0.24244 0.0
O494 O 0.67932 0.18833 0.289 0.0
O495 O 0.64707 0.1497 0.27795 0.0
H496 H 0.13958 0.89156 0.28083 0.0
H497 H 0.16814 0.98198 0.25415 0.0
H498 H 0.21861 0.95741 0.24242 0.0
H499 H 0.25613 0.91176 0.24175 0.0
H500 H 0.22889 0.82101 0.26848 0.0
H501 H 0.17611 0.84404 0.278 0.0
C502 C 0.15662 0.90563 0.27214 0.0
C503 C 0.15032 0.9386 0.26849 0.0
C504 C 0.18585 0.8914 0.26561 0.0
C505 C 0.1727 0.95669 0.25735 0.0
C506 C 0.20151 0.94266 0.25063 0.0
C507 C 0.23862 0.89689 0.24957 0.0
C508 C 0.24652 0.86485 0.2546 0.0
C509 C 0.20863 0.9103 0.25505 0.0
C510 C 0.2234 0.8458 0.26451 0.0
C511 C 0.19328 0.85898 0.26999 0.0
H512 H 0.06808 0.66213 0.50156 0.0
H513 H 0.14749 0.63073 0.53844 0.0
H514 H 0.17759 0.68062 0.53097 0.0
H515 H 0.17826 0.73616 0.51672 0.0
H516 H 0.09699 0.7667 0.48081 0.0
H517 H 0.07088 0.71437 0.48506 0.0
C518 C 0.09215 0.66609 0.50778 0.0
C519 C 0.10543 0.64305 0.52066 0.0
C520 C 0.10889 0.6949 0.50372 0.0
C521 C 0.13682 0.64815 0.52841 0.0
C522 C 0.1539 0.67677 0.52427 0.0
C523 C 0.15513 0.73106 0.50959 0.0
C524 C 0.13942 0.75546 0.49868 0.0
C525 C 0.13978 0.70078 0.51235 0.0
C526 C 0.10942 0.74854 0.48952 0.0
C527 C 0.09441 0.71857 0.49191 0.0
H528 H 0.37776 0.6175 0.78326 0.0
H529 H 0.36119 0.52656 0.75291 0.0
H530 H 0.30839 0.54565 0.74136 0.0
H531 H 0.26429 0.5849 0.74354 0.0
H532 H 0.2788 0.67582 0.7741 0.0
H533 H 0.3353 0.66046 0.78162 0.0
C534 C 0.36284 0.60228 0.77372 0.0
C535 C 0.37305 0.57049 0.76915 0.0
C536 C 0.3321 0.61329 0.76736 0.0
C537 C 0.35356 0.55091 0.75684 0.0
C538 C 0.32339 0.56179 0.75024 0.0
C539 C 0.28003 0.60159 0.75157 0.0
C540 C 0.26745 0.6312 0.7585 0.0
C541 C 0.31198 0.59241 0.75601 0.0
C542 C 0.28807 0.65288 0.76862 0.0
C543 C 0.32023 0.64396 0.77304 0.0
H544 H 0.38628 0.87032 0.0384 0.0
H545 H 0.46861 0.86721 -0.00138 0.0
H546 H 0.45558 0.81131 0.98984 0.0
H547 H 0.42422 0.76174 0.996 0.0
H548 H 0.34015 0.76513 0.03402 0.0
H549 H 0.34988 0.82299 0.04058 0.0
C550 C 0.40093 0.85783 0.0274 0.0
C551 C 0.42888 0.8729 0.01954 0.0
C552 C 0.39303 0.82573 0.02217 0.0
C553 C 0.44757 0.85601 0.00539 0.0
C554 C 0.44003 0.82406 0.00025 0.0
C555 C 0.40774 0.77541 0.00542 0.0
C556 C 0.38173 0.75949 0.01467 0.0
C557 C 0.41343 0.80844 0.00898 0.0
C558 C 0.36025 0.77716 0.02673 0.0
C559 C 0.36597 0.81009 0.03056 0.0
H560 H 0.16789 0.56154 0.96419 0.0
H561 H 0.11743 0.64979 0.98 0.0
H562 H 0.16917 0.67543 0.98867 0.0
H563 H 0.22888 0.67242 0.99244 0.0
H564 H 0.27815 0.58259 0.97919 0.0
H565 H 0.22666 0.55782 0.96906 0.0
C566 C 0.16799 0.58619 0.96987 0.0
C567 C 0.13863 0.60358 0.97144 0.0
C568 C 0.1977 0.60057 0.97523 0.0
C569 C 0.1396 0.63585 0.97837 0.0
C570 C 0.16919 0.65053 0.98343 0.0
C571 C 0.22827 0.64751 0.98719 0.0
C572 C 0.25717 0.62936 0.98644 0.0
C573 C 0.19841 0.63313 0.98191 0.0
C574 C 0.25613 0.59699 0.9799 0.0
C575 C 0.22673 0.58282 0.97413 0.0
H576 H 0.39687 0.6353 0.21371 0.0
H577 H 0.48379 0.64374 0.24956 0.0
H578 H 0.46829 0.69855 0.2592 0.0
H579 H 0.43234 0.74558 0.25542 0.0
H580 H 0.34367 0.73621 0.22163 0.0
H581 H 0.35707 0.67969 0.21376 0.0
C582 C 0.41211 0.64865 0.22404 0.0
C583 C 0.44189 0.63539 0.23052 0.0
C584 C 0.40274 0.68002 0.2299 0.0
C585 C 0.46128 0.65352 0.24378 0.0
C586 C 0.45232 0.68485 0.24946 0.0
C587 C 0.41578 0.73097 0.24654 0.0
C588 C 0.38729 0.74498 0.2389 0.0
C589 C 0.42354 0.6986 0.24223 0.0
C590 C 0.36572 0.72583 0.22768 0.0
C591 C 0.3735 0.69363 0.22309 0.0
H592 H 0.35549 0.9622 0.48313 0.0
H593 H 0.38723 0.86294 0.47673 0.0
H594 H 0.33225 0.84409 0.48457 0.0
H595 H 0.27398 0.85631 0.49176 0.0
H596 H 0.24552 0.95649 0.49969 0.0
H597 H 0.30064 0.97403 0.49344 0.0
C598 C 0.35098 0.93636 0.48399 0.0
C599 C 0.37583 0.9142 0.47929 0.0
C600 C 0.31962 0.92569 0.4888 0.0
C601 C 0.36864 0.88078 0.47994 0.0
C602 C 0.33716 0.86991 0.48455 0.0
C603 C 0.27997 0.88191 0.49236 0.0
C604 C 0.25524 0.90492 0.49592 0.0
C605 C 0.31224 0.89221 0.48875 0.0
C606 C 0.26365 0.93805 0.49671 0.0
C607 C 0.29532 0.94828 0.49314 0.0
H608 H 0.11725 0.87292 0.70975 0.0
H609 H 0.04122 0.86108 0.75334 0.0
H610 H 0.06459 0.80951 0.76326 0.0
H611 H 0.10527 0.76667 0.75886 0.0
H612 H 0.18385 0.77983 0.7174 0.0
H613 H 0.16121 0.83237 0.70767 0.0
C614 C 0.10608 0.85949 0.72171 0.0
C615 C 0.07706 0.87089 0.7305 0.0
C616 C 0.12007 0.83 0.72771 0.0
C617 C 0.06297 0.85269 0.74585 0.0
C618 C 0.07645 0.82321 0.75167 0.0
C619 C 0.11749 0.78111 0.74773 0.0
C620 C 0.14594 0.7693 0.73867 0.0
C621 C 0.10467 0.8114 0.7425 0.0
C622 C 0.16187 0.78844 0.72454 0.0
C623 C 0.14887 0.81841 0.71895 0.0
H624 H 0.64231 0.38487 0.78024 0.0
H625 H 0.67166 0.48424 0.77156 0.0
H626 H 0.72524 0.46642 0.76051 0.0
H627 H 0.76423 0.42324 0.75431 0.0
H628 H 0.73651 0.32341 0.76287 0.0
H629 H 0.68177 0.34073 0.77292 0.0
C630 C 0.66037 0.40251 0.77568 0.0
C631 C 0.6531 0.43586 0.77681 0.0
C632 C 0.69142 0.39205 0.76947 0.0
C633 C 0.67679 0.45849 0.77104 0.0
C634 C 0.70742 0.44833 0.7647 0.0
C635 C 0.74628 0.40514 0.75835 0.0
C636 C 0.75452 0.37207 0.75792 0.0
C637 C 0.7151 0.41525 0.76408 0.0
C638 C 0.73082 0.34904 0.76312 0.0
C639 C 0.69952 0.35895 0.76885 0.0
H640 H 0.61968 0.13606 0.03988 0.0
H641 H 0.52847 0.16106 0.01219 0.0
H642 H 0.55315 0.20932 0.99792 0.0
H643 H 0.59921 0.24587 0.99491 0.0
H644 H 0.69069 0.223 0.02298 0.0
H645 H 0.66748 0.17218 0.03537 0.0
C646 C 0.60546 0.15193 0.0305 0.0
C647 C 0.57227 0.14527 0.02719 0.0
C648 C 0.61975 0.17999 0.02254 0.0
C649 C 0.55394 0.166 0.01513 0.0
C650 C 0.56804 0.19353 0.00695 0.0
C651 C 0.61424 0.22975 0.00365 0.0
C652 C 0.64655 0.23829 0.00815 0.0
C653 C 0.60069 0.20103 0.01085 0.0
C654 C 0.66569 0.21698 0.01936 0.0
C655 C 0.65241 0.18798 0.02647 0.0
H656 H 0.87215 0.10933 0.26895 0.0
H657 H 0.84525 0.01475 0.29069 0.0
H658 H 0.7881 0.02681 0.28506 0.0
H659 H 0.7456 0.06489 0.27599 0.0
H660 H 0.7712 0.16063 0.25565 0.0
H661 H 0.82898 0.14743 0.25892 0.0
C662 C 0.85378 0.09137 0.27247 0.0
C663 C 0.86315 0.06111 0.28017 0.0
C664 C 0.82069 0.0987 0.2696 0.0
C665 C 0.83896 0.038 0.2844 0.0
C666 C 0.80616 0.04497 0.28137 0.0
C667 C 0.7637 0.08293 0.27213 0.0
C668 C 0.75392 0.11378 0.26566 0.0
C669 C 0.79675 0.07535 0.27423 0.0
C670 C 0.77793 0.13669 0.2607 0.0
C671 C 0.81101 0.12918 0.2626 0.0
H672 H 0.89099 0.38092 0.53763 0.0
H673 H 0.96992 0.37176 0.49567 0.0
H674 H 0.94874 0.31951 0.48472 0.0
H675 H 0.90924 0.27543 0.48781 0.0
H676 H 0.8283 0.28524 0.52802 0.0
H677 H 0.84842 0.3387 0.53854 0.0
C678 C 0.90328 0.36788 0.52582 0.0
C679 C 0.93241 0.38028 0.51774 0.0
C680 C 0.89061 0.33794 0.51927 0.0
C681 C 0.94801 0.36261 0.50258 0.0
C682 C 0.93578 0.33276 0.49618 0.0
C683 C 0.89589 0.28933 0.49882 0.0
C684 C 0.86752 0.27632 0.50729 0.0
C685 C 0.90741 0.32 0.5046 0.0
C686 C 0.85022 0.29477 0.5213 0.0
C687 C 0.86179 0.32525 0.52736 0.0
H688 H 0.64354 0.11071 0.47118 0.0
H689 H 0.67206 0.0147 0.48925 0.0
H690 H 0.72595 0.03469 0.49829 0.0
H691 H 0.76641 0.07776 0.49805 0.0
H692 H 0.73978 0.17413 0.47983 0.0
H693 H 0.68351 0.15592 0.47421 0.0
C694 C 0.66141 0.0944 0.47748 0.0
C695 C 0.65401 0.06118 0.47932 0.0
C696 C 0.69268 0.10605 0.48246 0.0
C697 C 0.67737 0.04024 0.48742 0.0
C698 C 0.70817 0.05165 0.4926 0.0
C699 C 0.74825 0.09492 0.49299 0.0
C700 C 0.75733 0.12711 0.48907 0.0
C701 C 0.71634 0.08423 0.48965 0.0
C702 C 0.73339 0.14918 0.48292 0.0
C703 C 0.70129 0.13871 0.4796 0.0
H704 H 0.94892 0.16583 0.69974 0.0
H705 H 0.87273 0.12804 0.73679 0.0
H706 H 0.85276 0.18336 0.74311 0.0
H707 H 0.85961 0.24308 0.73957 0.0
H708 H 0.93627 0.27895 0.70174 0.0
H709 H 0.95314 0.22393 0.69418 0.0
C710 C 0.92794 0.16976 0.70922 0.0
C711 C 0.91264 0.14314 0.71809 0.0
C712 C 0.91667 0.20134 0.71264 0.0
C713 C 0.885 0.14832 0.72993 0.0
C714 C 0.87366 0.17991 0.73355 0.0
C715 C 0.87971 0.23879 0.72949 0.0
C716 C 0.8969 0.26529 0.72151 0.0
C717 C 0.88962 0.20673 0.72519 0.0
C718 C 0.92285 0.25919 0.70839 0.0
C719 C 0.9326 0.22766 0.70401 0.0
H720 H 0.8757 0.41614 0.9898 0.0
H721 H 0.84992 0.44631 0.93073 0.0
H722 H 0.79702 0.42021 0.93373 0.0
H723 H 0.75604 0.39451 0.95422 0.0
H724 H 0.77962 0.36348 0.01328 0.0
H725 H 0.83567 0.38366 0.00922 0.0
C726 C 0.85859 0.41647 0.97755 0.0
C727 C 0.86623 0.43379 0.96027 0.0
C728 C 0.82789 0.40148 0.97943 0.0
C729 C 0.84413 0.43383 0.94436 0.0
C730 C 0.81396 0.41884 0.94602 0.0
C731 C 0.77364 0.39175 0.96609 0.0
C732 C 0.76392 0.37803 0.98406 0.0
C733 C 0.80525 0.40355 0.96367 0.0
C734 C 0.78681 0.37405 -0.0007 0.0
C735 C 0.81868 0.38577 0.99701 0.0
H736 H 0.62532 0.36455 0.21319 0.0
H737 H 0.53557 0.34952 0.24497 0.0
H738 H 0.55744 0.30021 0.2596 0.0
H739 H 0.60009 0.25961 0.26151 0.0
H740 H 0.68973 0.27242 0.22922 0.0
H741 H 0.67008 0.32459 0.21675 0.0
C742 C 0.61087 0.35064 0.22355 0.0
C743 C 0.57885 0.36038 0.22793 0.0
C744 C 0.62345 0.32192 0.23167 0.0
C745 C 0.56016 0.34219 0.24126 0.0
C746 C 0.57264 0.31406 0.24962 0.0
C747 C 0.6155 0.27385 0.25184 0.0
C748 C 0.64619 0.26205 0.24615 0.0
C749 C 0.60393 0.30337 0.2446 0.0
C750 C 0.66594 0.28096 0.23376 0.0
C751 C 0.65468 0.31073 0.22661 0.0
H752 H 0.11084 0.97198 0.40662 0.0
H753 H 0.15019 0.90071 0.36618 0.0
H754 H 0.16934 0.86846 0.3942 0.0
H755 H 0.17101 0.8587 0.4303 0.0
H756 H 0.13017 0.93018 0.47012 0.0
H757 H 0.11607 0.96443 0.44221 0.0
C758 C 0.12435 0.94983 0.40387 0.0
C759 C 0.1291 0.93881 0.38433 0.0
C760 C 0.13481 0.93129 0.41997 0.0
C761 C 0.146 0.90961 0.3811 0.0
C762 C 0.15695 0.89117 0.3971 0.0
C763 C 0.15934 0.88192 0.43283 0.0
C764 C 0.15141 0.89175 0.45224 0.0
C765 C 0.15084 0.90144 0.41662 0.0
C766 C 0.13634 0.92192 0.45533 0.0
C767 C 0.12824 0.94156 0.43937 0.0
H768 H 0.12584 0.58596 0.63387 0.0
H769 H 0.06056 0.66784 0.63301 0.0
H770 H 0.08477 0.68837 0.66381 0.0
H771 H 0.12018 0.67912 0.69312 0.0
H772 H 0.1833 0.59572 0.6936 0.0
H773 H 0.16518 0.58043 0.66042 0.0
C774 C 0.11747 0.60886 0.63998 0.0
C775 C 0.09122 0.62516 0.63113 0.0
C776 C 0.1312 0.62027 0.65771 0.0
C777 C 0.08038 0.65446 0.63966 0.0
C778 C 0.09429 0.66629 0.65725 0.0
C779 C 0.13052 0.65818 0.68564 0.0
C780 C 0.15293 0.63847 0.69567 0.0
C781 C 0.11908 0.64885 0.66674 0.0
C782 C 0.16594 0.61111 0.68608 0.0
C783 C 0.15548 0.60228 0.66718 0.0
H784 H 0.44623 0.61106 0.89135 0.0
H785 H 0.35618 0.55779 0.88653 0.0
H786 H 0.33656 0.58319 0.91723 0.0
H787 H 0.34767 0.61639 0.94723 0.0
H788 H 0.43986 0.66587 0.9526 0.0
H789 H 0.45574 0.64674 0.91973 0.0
C790 C 0.42197 0.60561 0.89673 0.0
C791 C 0.40264 0.58268 0.88667 0.0
C792 C 0.41135 0.61954 0.91459 0.0
C793 C 0.37155 0.5753 0.89409 0.0
C794 C 0.36036 0.5898 0.91163 0.0
C795 C 0.37091 0.62345 0.94096 0.0
C796 C 0.39264 0.6424 0.95227 0.0
C797 C 0.3804 0.61135 0.92228 0.0
C798 C 0.42287 0.65112 0.94417 0.0
C799 C 0.43198 0.64015 0.92541 0.0
H800 H 0.43986 0.8964 0.14433 0.0
H801 H 0.34698 0.8981 0.1146 0.0
H802 H 0.32148 0.8713 0.14295 0.0
H803 H 0.3248 0.85297 0.17763 0.0
H804 H 0.41719 0.85607 0.20802 0.0
H805 H 0.44389 0.87491 0.17792 0.0
C806 C 0.41421 0.89014 0.14388 0.0
C807 C 0.39529 0.89901 0.12745 0.0
C808 C 0.39963 0.87588 0.16044 0.0
C809 C 0.36194 0.89146 0.12716 0.0
C810 C 0.34739 0.87625 0.14336 0.0
C811 C 0.35086 0.85724 0.1775 0.0
C812 C 0.36904 0.85334 0.19497 0.0
C813 C 0.36585 0.86918 0.16031 0.0
C814 C 0.40271 0.85919 0.19475 0.0
C815 C 0.41797 0.86996 0.17756 0.0
H816 H 0.12263 0.57701 0.85216 0.0
H817 H 0.09401 0.6686 0.87778 0.0
H818 H 0.11996 0.69746 0.85036 0.0
H819 H 0.14525 0.696 0.81708 0.0
H820 H 0.16867 0.6036 0.79054 0.0
H821 H 0.15103 0.5757 0.82039 0.0
C822 C 0.1228 0.60331 0.85197 0.0
C823 C 0.10654 0.6207 0.86691 0.0
C824 C 0.13669 0.61956 0.83588 0.0
C825 C 0.10634 0.65476 0.86634 0.0
C826 C 0.1211 0.67122 0.85067 0.0
C827 C 0.14708 0.66984 0.8181 0.0
C828 C 0.15814 0.6518 0.80171 0.0
C829 C 0.13555 0.65382 0.83505 0.0
C830 C 0.16003 0.61791 0.80296 0.0
C831 C 0.14991 0.60194 0.82001 0.0
H832 H 0.37266 0.60674 0.12417 0.0
H833 H 0.47224 0.60834 0.10392 0.0
H834 H 0.45508 0.6318 0.07255 0.0
H835 H 0.41133 0.64626 0.04955 0.0
H836 H 0.31168 0.64566 0.06956 0.0
H837 H 0.32923 0.62749 0.10233 0.0
C838 C 0.39057 0.61268 0.11296 0.0
C839 C 0.42361 0.60568 0.11631 0.0
C840 C 0.3805 0.62596 0.09485 0.0
C841 C 0.44668 0.61377 0.10178 0.0
C842 C 0.43687 0.6269 0.08375 0.0
C843 C 0.39352 0.64247 0.06117 0.0
C844 C 0.36029 0.64677 0.05713 0.0
C845 C 0.40379 0.63223 0.07993 0.0
C846 C 0.33744 0.64235 0.07235 0.0
C847 C 0.34744 0.63186 0.09105 0.0
H848 H 0.39672 0.87831 0.36948 0.0
H849 H 0.40051 0.97829 0.35138 0.0
H850 H 0.38092 0.96318 0.31841 0.0
H851 H 0.37074 0.9206 0.29346 0.0
H852 H 0.36534 0.82076 0.31135 0.0
H853 H 0.37727 0.83656 0.34574 0.0
C854 C 0.39249 0.89678 0.35841 0.0
C855 C 0.40027 0.92929 0.36273 0.0
C856 C 0.38134 0.88787 0.33943 0.0
C857 C 0.39452 0.95313 0.34839 0.0
C858 C 0.38361 0.94447 0.32949 0.0
C859 C 0.37139 0.90251 0.30505 0.0
C860 C 0.36745 0.86967 0.30008 0.0
C861 C 0.37812 0.91182 0.32466 0.0
C862 C 0.36819 0.84622 0.31502 0.0
C863 C 0.37523 0.85524 0.33459 0.0
H864 H 0.06298 0.87712 0.61274 0.0
H865 H 0.1474 0.93106 0.63219 0.0
H866 H 0.17704 0.91385 0.60265 0.0
H867 H 0.1749 0.89242 0.56855 0.0
H868 H 0.09077 0.83877 0.54895 0.0
H869 H 0.0653 0.84603 0.58151 0.0
C870 C 0.08822 0.88419 0.6109 0.0
C871 C 0.10263 0.9061 0.62439 0.0
C872 C 0.10506 0.87443 0.59374 0.0
C873 C 0.13542 0.91496 0.62173 0.0
C874 C 0.15242 0.9051 0.60485 0.0
C875 C 0.15157 0.88126 0.57177 0.0
C876 C 0.13462 0.86505 0.55661 0.0
C877 C 0.13692 0.8862 0.59032 0.0
C878 C 0.10426 0.85101 0.56061 0.0
C879 C 0.0896 0.8555 0.57912 0.0
H880 H 0.64253 0.42475 0.88827 0.0
H881 H 0.56823 0.35263 0.87764 0.0
H882 H 0.59035 0.3193 0.90418 0.0
H883 H 0.62613 0.31433 0.93341 0.0
H884 H 0.69748 0.38846 0.94534 0.0
H885 H 0.68139 0.41733 0.91543 0.0
C886 C 0.63132 0.40163 0.89167 0.0
C887 C 0.60355 0.39142 0.88114 0.0
C888 C 0.64356 0.38305 0.90732 0.0
C889 C 0.58974 0.36104 0.88543 0.0
C890 C 0.6022 0.34206 0.90073 0.0
C891 C 0.63862 0.33636 0.92907 0.0
C892 C 0.66293 0.34937 0.94138 0.0
C893 C 0.62847 0.35329 0.91217 0.0
C894 C 0.67871 0.37813 0.93601 0.0
C895 C 0.66942 0.39466 0.91895 0.0
H896 H 0.59053 0.1307 0.14043 0.0
H897 H 0.50887 0.08187 0.1673 0.0
H898 H 0.5314 0.09207 0.20008 0.0
H899 H 0.57571 0.11135 0.22106 0.0
H900 H 0.65745 0.16121 0.19522 0.0
H901 H 0.63353 0.1542 0.16212 0.0
C902 C 0.57762 0.12259 0.1535 0.0
C903 C 0.54801 0.10563 0.1514 0.0
C904 C 0.59083 0.12845 0.17246 0.0
C905 C 0.53141 0.09541 0.16847 0.0
C906 C 0.54442 0.10097 0.18725 0.0
C907 C 0.58828 0.12078 0.20819 0.0
C908 C 0.6185 0.13631 0.21051 0.0
C909 C 0.57432 0.11692 0.18939 0.0
C910 C 0.63418 0.14904 0.19377 0.0
C911 C 0.62056 0.14494 0.17486 0.0
H912 H 0.90192 0.1374 0.37692 0.0
H913 H 0.91105 0.0434 0.40392 0.0
H914 H 0.8869 0.0643 0.43449 0.0
H915 H 0.86828 0.11047 0.45452 0.0
H916 H 0.85728 0.20428 0.4276 0.0
H917 H 0.87682 0.18234 0.39595 0.0
C918 C 0.89815 0.12149 0.38944 0.0
C919 C 0.90838 0.089 0.38827 0.0
C920 C 0.88421 0.13368 0.40698 0.0
C921 C 0.90315 0.06844 0.40446 0.0
C922 C 0.88959 0.08043 0.42198 0.0
C923 C 0.86983 0.126 0.44165 0.0
C924 C 0.86185 0.15898 0.44339 0.0
C925 C 0.8808 0.11317 0.42356 0.0
C926 C 0.8634 0.17879 0.42658 0.0
C927 C 0.8747 0.16629 0.40853 0.0
H928 H 0.92574 0.45825 0.64982 0.0
H929 H 0.88649 0.38563 0.61035 0.0
H930 H 0.86131 0.3577 0.63859 0.0
H931 H 0.85092 0.35433 0.67491 0.0
H932 H 0.89437 0.42596 0.7137 0.0
H933 H 0.91733 0.454 0.68539 0.0
C934 C 0.91147 0.43641 0.64743 0.0
C935 C 0.90747 0.42414 0.62817 0.0
C936 C 0.89789 0.42035 0.66363 0.0
C937 C 0.88963 0.39548 0.62515 0.0
C938 C 0.87528 0.37961 0.64126 0.0
C939 C 0.86535 0.3761 0.67705 0.0
C940 C 0.87088 0.38814 0.69632 0.0
C941 C 0.87925 0.39185 0.66062 0.0
C942 C 0.8899 0.41615 0.699 0.0
C943 C 0.903 0.43228 0.68283 0.0
H944 H 0.64756 0.07594 0.36787 0.0
H945 H 0.56013 0.13306 0.37384 0.0
H946 H 0.57716 0.16719 0.34638 0.0
H947 H 0.61353 0.17659 0.31808 0.0
H948 H 0.7002 0.11906 0.31131 0.0
H949 H 0.68707 0.08928 0.34164 0.0
C950 C 0.63247 0.09609 0.36327 0.0
C951 C 0.60255 0.10181 0.3728 0.0
C952 C 0.6422 0.11538 0.34725 0.0
C953 C 0.5834 0.12828 0.36688 0.0
C954 C 0.59298 0.14767 0.35106 0.0
C955 C 0.62985 0.15807 0.32363 0.0
C956 C 0.65776 0.14993 0.31279 0.0
C957 C 0.62186 0.1409 0.34082 0.0
C958 C 0.6787 0.1257 0.31969 0.0
C959 C 0.67108 0.10862 0.3369 0.0
H960 H 0.94215 0.12694 0.60772 0.0
H961 H 0.85361 0.07412 0.61967 0.0
H962 H 0.82917 0.09522 0.58944 0.0
H963 H 0.83591 0.12241 0.55733 0.0
H964 H 0.92415 0.17502 0.54523 0.0
H965 H 0.94557 0.16104 0.57802 0.0
C966 C 0.91718 0.12078 0.60405 0.0
C967 C 0.9 0.09843 0.61577 0.0
C968 C 0.90331 0.13287 0.58654 0.0
C969 C 0.86768 0.09064 0.61066 0.0
C970 C 0.85363 0.10276 0.5934 0.0
C971 C 0.85939 0.13155 0.56221 0.0
C972 C 0.87849 0.14977 0.54916 0.0
C973 C 0.87165 0.12291 0.58087 0.0
C974 C 0.90905 0.16123 0.55529 0.0
C975 C 0.92134 0.153 0.57392 0.0
H976 H 0.93857 0.394 0.86092 0.0
H977 H 0.85567 0.45815 0.86104 0.0
H978 H 0.83442 0.43118 0.83132 0.0
H979 H 0.84412 0.39496 0.80252 0.0
H980 H 0.92895 0.33363 0.80203 0.0
H981 H 0.94402 0.35287 0.83509 0.0
C982 C 0.91531 0.4015 0.85489 0.0
C983 C 0.89898 0.42837 0.8631 0.0
C984 C 0.90357 0.38628 0.83766 0.0
C985 C 0.8691 0.43795 0.85479 0.0
C986 C 0.85686 0.42246 0.83783 0.0
C987 C 0.86519 0.38503 0.81004 0.0
C988 C 0.88542 0.36292 0.80001 0.0
C989 C 0.87453 0.39738 0.8287 0.0
C990 C 0.91305 0.3506 0.8096 0.0
C991 C 0.92181 0.36181 0.8284 0.0
H992 H 0.60209 0.37027 0.11408 0.0
H993 H 0.52039 0.41854 0.08689 0.0
H994 H 0.54277 0.40778 0.0542 0.0
H995 H 0.58707 0.38848 0.03337 0.0
H996 H 0.66888 0.33917 0.05944 0.0
H997 H 0.64501 0.34648 0.09252 0.0
C998 C 0.58912 0.3781 0.10096 0.0
C999 C 0.55956 0.3951 0.10295 0.0
C1000 C 0.60227 0.37198 0.08204 0.0
C1001 C 0.54288 0.40496 0.08582 0.0
C1002 C 0.55581 0.39911 0.06708 0.0
C1003 C 0.59967 0.37925 0.04629 0.0
C1004 C 0.6299 0.36384 0.04407 0.0
C1005 C 0.58572 0.38324 0.06505 0.0
C1006 C 0.64561 0.3513 0.06085 0.0
C1007 C 0.63201 0.35555 0.07973 0.0
loop_
_geom_bond_atom_site_label_1
_geom_bond_atom_site_label_2
_geom_bond_distance
_geom_bond_site_symmetry_2
_ccdc_geom_bond_type
H0 C19 0.949 . S
H1 C20 0.950 . S
H2 C22 0.950 . S
H3 C23 0.950 . S
H4 C25 0.950 . S
H5 C28 0.950 . S
H6 C29 0.950 . S
H7 C31 0.951 . S
H8 C32 0.949 1_565 S
H9 C34 0.949 . S
H10 C35 0.950 . S
H11 C37 0.950 . S
H12 C38 0.950 . S
H13 C40 0.950 . S
H14 C43 0.950 . S
H15 C44 0.950 . S
H16 C46 0.951 . S
H17 C47 0.949 1_545 S
C18 C19 1.376 . S
C18 C23 1.386 . S
C18 C24 1.483 . S
C19 H0 0.949 . S
C19 C18 1.376 . S
C19 C20 1.397 . S
C20 H1 0.950 . S
C20 C19 1.397 . S
C20 C21 1.391 . S
C21 C20 1.391 . S
C21 C22 1.405 . S
C22 H2 0.950 . S
C22 C21 1.405 . S
C22 C23 1.367 . S
C23 H3 0.950 . S
C23 C18 1.386 . S
C23 C22 1.367 . S
C24 C18 1.483 . S
C24 C25 1.382 1_655 S
C24 C26 1.403 . S
C25 H4 0.950 . S
C25 C24 1.382 1_455 S
C25 C41 1.411 1_545 S
C26 C24 1.403 . S
C26 C27 1.489 . S
C26 C40 1.411 1_645 S
C27 C26 1.489 . S
C27 C28 1.383 . S
C27 C32 1.382 . S
C28 H5 0.950 . S
C28 C27 1.383 . S
C28 C29 1.395 . S
C29 H6 0.950 . S
C29 C28 1.395 . S
C29 C30 1.288 . S
C30 C29 1.288 . S
C30 C31 1.392 . S
C31 H7 0.951 . S
C31 C30 1.392 . S
C31 C32 1.392 . S
C32 H8 0.949 1_545 S
C32 C27 1.382 . S
C32 C31 1.392 . S
C33 C34 1.376 . S
C33 C38 1.386 . S
C33 C39 1.483 . S
C34 H9 0.949 . S
C34 C33 1.376 . S
C34 C35 1.397 . S
C35 H10 0.950 . S
C35 C34 1.397 . S
C35 C36 1.391 . S
C36 C35 1.391 . S
C36 C37 1.405 . S
C37 H11 0.950 . S
C37 C36 1.405 . S
C37 C38 1.367 . S
C38 H12 0.950 . S
C38 C33 1.386 . S
C38 C37 1.367 . S
C39 C33 1.483 . S
C39 C40 1.382 . S
C39 C41 1.403 . S
C40 H13 0.950 . S
C40 C26 1.411 1_465 S
C40 C39 1.382 . S
C41 C25 1.411 1_565 S
C41 C39 1.403 . S
C41 C42 1.489 . S
C42 C41 1.489 . S
C42 C43 1.383 . S
C42 C47 1.382 . S
C43 H14 0.950 . S
C43 C42 1.383 . S
C43 C44 1.395 . S
C44 H15 0.950 . S
C44 C43 1.395 . S
C44 C45 1.288 . S
C45 C44 1.288 . S
C45 C46 1.392 . S
C46 H16 0.951 . S
C46 C45 1.392 . S
C46 C47 1.392 . S
C47 H17 0.949 1_565 S
C47 C42 1.382 . S
C47 C46 1.392 . S
H48 C67 0.949 1_455 S
H49 C68 0.950 . S
H50 C70 0.950 . S
H51 C71 0.950 . S
H52 C73 0.950 . S
H53 C76 0.950 . S
H54 C77 0.950 . S
H55 C79 0.951 . S
H56 C80 0.949 . S
H57 C82 0.958 . S
H58 C83 0.950 . S
H59 C85 0.950 . S
H60 C86 0.950 . S
H61 C88 0.946 1_655 S
H62 C91 0.950 . S
H63 C92 0.950 . S
H64 C94 0.951 . S
H65 C95 0.949 . S
C66 C67 1.376 . S
C66 C71 1.386 . S
C66 C72 1.483 . S
C67 H48 0.949 1_655 S
C67 C66 1.376 . S
C67 C68 1.397 . S
C68 H49 0.950 . S
C68 C67 1.397 . S
C68 C69 1.391 . S
C69 C68 1.391 . S
C69 C70 1.405 . S
C70 H50 0.950 . S
C70 C69 1.405 . S
C70 C71 1.367 . S
C71 H51 0.950 . S
C71 C66 1.386 . S
C71 C70 1.367 . S
C72 C66 1.483 . S
C72 C73 1.382 1_655 S
C72 C74 1.403 . S
C73 H52 0.950 . S
C73 C72 1.382 1_455 S
C73 C89 1.411 . S
C74 C72 1.403 . S
C74 C75 1.489 . S
C74 C88 1.394 1_655 S
C75 C74 1.489 . S
C75 C76 1.383 . S
C75 C80 1.382 . S
C76 H53 0.950 . S
C76 C75 1.383 . S
C76 C77 1.395 . S
C77 H54 0.950 . S
C77 C76 1.395 . S
C77 C78 1.288 . S
C78 C77 1.288 . S
C78 C79 1.392 . S
C79 H55 0.951 . S
C79 C78 1.392 . S
C79 C80 1.392 . S
C80 H56 0.949 . S
C80 C75 1.382 . S
C80 C79 1.392 . S
C81 C82 1.376 . S
C81 C86 1.386 . S
C81 C87 1.483 . S
C82 H57 0.958 . S
C82 C81 1.376 . S
C82 C83 1.397 . S
C83 H58 0.950 . S
C83 C82 1.397 . S
C83 C84 1.391 . S
C84 C83 1.391 . S
C84 C85 1.405 . S
C85 H59 0.950 . S
C85 C84 1.405 . S
C85 C86 1.367 . S
C86 H60 0.950 . S
C86 C81 1.386 . S
C86 C85 1.367 . S
C87 C81 1.483 . S
C87 C88 1.404 . S
C87 C89 1.403 . S
C88 H61 0.946 1_455 S
C88 C74 1.394 1_455 S
C88 C87 1.404 . S
C89 C73 1.411 . S
C89 C87 1.403 . S
C89 C90 1.489 . S
C90 C89 1.489 . S
C90 C91 1.383 . S
C90 C95 1.382 . S
C91 H62 0.950 . S
C91 C90 1.383 . S
C91 C92 1.395 . S
C92 H63 0.950 . S
C92 C91 1.395 . S
C92 C93 1.288 . S
C93 C92 1.288 . S
C93 C94 1.392 . S
C94 H64 0.951 . S
C94 C93 1.392 . S
C94 C95 1.392 . S
C95 H65 0.949 . S
C95 C90 1.382 . S
C95 C94 1.392 . S
H96 C115 0.949 . S
H97 C116 0.950 . S
H98 C118 0.950 . S
H99 C119 0.950 . S
H100 C121 0.950 . S
H101 C124 0.950 . S
H102 C125 0.950 . S
H103 C127 0.951 . S
H104 C128 0.949 . S
H105 C130 0.949 . S
H106 C131 0.950 . S
H107 C133 0.950 . S
H108 C134 0.950 . S
H109 C136 0.950 . S
H110 C139 0.950 . S
H111 C140 0.950 . S
H112 C142 0.951 . S
H113 C143 0.949 . S
C114 C115 1.376 . S
C114 C119 1.386 . S
C114 C120 1.483 . S
C115 H96 0.949 . S
C115 C114 1.376 . S
C115 C116 1.397 . S
C116 H97 0.950 . S
C116 C115 1.397 . S
C116 C117 1.391 . S
C117 C116 1.391 . S
C117 C118 1.405 . S
C118 H98 0.950 . S
C118 C117 1.405 . S
C118 C119 1.367 . S
C119 H99 0.950 . S
C119 C114 1.386 . S
C119 C118 1.367 . S
C120 C114 1.483 . S
C120 C121 1.382 . S
C120 C122 1.403 . S
C121 H100 0.950 . S
C121 C120 1.382 . S
C121 C137 1.411 . S
C122 C120 1.403 . S
C122 C123 1.489 . S
C122 C136 1.411 . S
C123 C122 1.489 . S
C123 C124 1.383 . S
C123 C128 1.382 . S
C124 H101 0.950 . S
C124 C123 1.383 . S
C124 C125 1.395 . S
C125 H102 0.950 . S
C125 C124 1.395 . S
C125 C126 1.288 . S
C126 C125 1.288 . S
C126 C127 1.392 . S
C127 H103 0.951 . S
C127 C126 1.392 . S
C127 C128 1.392 . S
C128 H104 0.949 . S
C128 C123 1.382 . S
C128 C127 1.392 . S
C129 C130 1.376 . S
C129 C134 1.386 . S
C129 C135 1.483 . S
C130 H105 0.949 . S
C130 C129 1.376 . S
C130 C131 1.397 . S
C131 H106 0.950 . S
C131 C130 1.397 . S
C131 C132 1.391 . S
C132 C131 1.391 . S
C132 C133 1.405 . S
C133 H107 0.950 . S
C133 C132 1.405 . S
C133 C134 1.367 . S
C134 H108 0.950 . S
C134 C129 1.386 . S
C134 C133 1.367 . S
C135 C129 1.483 . S
C135 C136 1.382 . S
C135 C137 1.403 . S
C136 H109 0.950 . S
C136 C122 1.411 . S
C136 C135 1.382 . S
C137 C121 1.411 . S
C137 C135 1.403 . S
C137 C138 1.489 . S
C138 C137 1.489 . S
C138 C139 1.383 . S
C138 C143 1.382 . S
C139 H110 0.950 . S
C139 C138 1.383 . S
C139 C140 1.395 . S
C140 H111 0.950 . S
C140 C139 1.395 . S
C140 C141 1.288 . S
C141 C140 1.288 . S
C141 C142 1.392 . S
C142 H112 0.951 . S
C142 C141 1.392 . S
C142 C143 1.392 . S
C143 H113 0.949 . S
C143 C138 1.382 . S
C143 C142 1.392 . S
H144 C163 0.949 . S
H145 C164 0.950 . S
H146 C166 0.950 . S
H147 C167 0.950 . S
H148 C169 0.950 . S
H149 C172 0.950 . S
H150 C173 0.950 . S
H151 C175 0.951 . S
H152 C176 0.949 . S
H153 C178 0.949 . S
H154 C179 0.950 . S
H155 C181 0.950 . S
H156 C182 0.950 . S
H157 C184 0.950 . S
H158 C187 0.950 . S
H159 C188 0.950 . S
H160 C190 0.951 . S
H161 C191 0.949 . S
C162 C163 1.376 . S
C162 C167 1.386 . S
C162 C168 1.483 . S
C163 H144 0.949 . S
C163 C162 1.376 . S
C163 C164 1.397 . S
C164 H145 0.950 . S
C164 C163 1.397 . S
C164 C165 1.391 . S
C165 C164 1.391 . S
C165 C166 1.405 . S
C166 H146 0.950 . S
C166 C165 1.405 . S
C166 C167 1.367 . S
C167 H147 0.950 . S
C167 C162 1.386 . S
C167 C166 1.367 . S
C168 C162 1.483 . S
C168 C169 1.382 . S
C168 C170 1.403 . S
C169 H148 0.950 . S
C169 C168 1.382 . S
C169 C185 1.411 1_565 S
C170 C168 1.403 . S
C170 C171 1.489 . S
C170 C184 1.411 1_565 S
C171 C170 1.489 . S
C171 C172 1.383 . S
C171 C176 1.382 . S
C172 H149 0.950 . S
C172 C171 1.383 . S
C172 C173 1.395 . S
C173 H150 0.950 . S
C173 C172 1.395 . S
C173 C174 1.288 . S
C174 C173 1.288 . S
C174 C175 1.392 . S
C175 H151 0.951 . S
C175 C174 1.392 . S
C175 C176 1.392 . S
C176 H152 0.949 . S
C176 C171 1.382 . S
C176 C175 1.392 . S
C177 C178 1.376 . S
C177 C182 1.386 . S
C177 C183 1.483 . S
C178 H153 0.949 . S
C178 C177 1.376 . S
C178 C179 1.397 . S
C179 H154 0.950 . S
C179 C178 1.397 . S
C179 C180 1.391 . S
C180 C179 1.391 . S
C180 C181 1.405 . S
C181 H155 0.950 . S
C181 C180 1.405 . S
C181 C182 1.367 . S
C182 H156 0.950 . S
C182 C177 1.386 . S
C182 C181 1.367 . S
C183 C177 1.483 . S
C183 C184 1.382 . S
C183 C185 1.403 . S
C184 H157 0.950 . S
C184 C170 1.411 1_545 S
C184 C183 1.382 . S
C185 C169 1.411 1_545 S
C185 C183 1.403 . S
C185 C186 1.489 . S
C186 C185 1.489 . S
C186 C187 1.383 . S
C186 C191 1.382 . S
C187 H158 0.950 . S
C187 C186 1.383 . S
C187 C188 1.395 . S
C188 H159 0.950 . S
C188 C187 1.395 . S
C188 C189 1.288 . S
C189 C188 1.288 . S
C189 C190 1.392 . S
C190 H160 0.951 . S
C190 C189 1.392 . S
C190 C191 1.392 . S
C191 H161 0.949 . S
C191 C186 1.382 . S
C191 C190 1.392 . S
H192 C211 0.949 . S
H193 C212 0.950 . S
H194 C214 0.950 . S
H195 C215 0.950 . S
H196 C217 0.950 . S
H197 C220 0.950 . S
H198 C221 0.950 . S
H199 C223 0.951 . S
H200 C224 0.949 . S
H201 C226 0.949 . S
H202 C227 0.950 . S
H203 C229 0.950 . S
H204 C230 0.950 . S
H205 C232 0.950 . S
H206 C235 0.950 . S
H207 C236 0.950 . S
H208 C238 0.951 . S
H209 C239 0.949 . S
C210 C211 1.376 . S
C210 C215 1.386 . S
C210 C216 1.483 . S
C211 H192 0.949 . S
C211 C210 1.376 . S
C211 C212 1.397 . S
C212 H193 0.950 . S
C212 C211 1.397 . S
C212 C213 1.391 . S
C213 C212 1.391 . S
C213 C214 1.405 . S
C214 H194 0.950 . S
C214 C213 1.405 . S
C214 C215 1.367 . S
C215 H195 0.950 . S
C215 C210 1.386 . S
C215 C214 1.367 . S
C216 C210 1.483 . S
C216 C217 1.382 1_455 S
C216 C218 1.403 . S
C217 H196 0.950 . S
C217 C216 1.382 1_655 S
C217 C233 1.411 . S
C218 C216 1.403 . S
C218 C219 1.489 . S
C218 C232 1.411 . S
C219 C218 1.489 . S
C219 C220 1.383 . S
C219 C224 1.382 . S
C220 H197 0.950 . S
C220 C219 1.383 . S
C220 C221 1.395 . S
C221 H198 0.950 . S
C221 C220 1.395 . S
C221 C222 1.288 . S
C222 C221 1.288 . S
C222 C223 1.392 . S
C223 H199 0.951 . S
C223 C222 1.392 . S
C223 C224 1.392 . S
C224 H200 0.949 . S
C224 C219 1.382 . S
C224 C223 1.392 . S
C225 C226 1.376 . S
C225 C230 1.386 . S
C225 C231 1.483 . S
C226 H201 0.949 . S
C226 C225 1.376 . S
C226 C227 1.397 . S
C227 H202 0.950 . S
C227 C226 1.397 . S
C227 C228 1.391 . S
C228 C227 1.391 . S
C228 C229 1.405 . S
C229 H203 0.950 . S
C229 C228 1.405 . S
C229 C230 1.367 . S
C230 H204 0.950 . S
C230 C225 1.386 . S
C230 C229 1.367 . S
C231 C225 1.483 . S
C231 C232 1.382 1_655 S
C231 C233 1.403 . S
C232 H205 0.950 . S
C232 C218 1.411 . S
C232 C231 1.382 1_455 S
C233 C217 1.411 . S
C233 C231 1.403 . S
C233 C234 1.489 . S
C234 C233 1.489 . S
C234 C235 1.383 . S
C234 C239 1.382 . S
C235 H206 0.950 . S
C235 C234 1.383 . S
C235 C236 1.395 . S
C236 H207 0.950 . S
C236 C235 1.395 . S
C236 C237 1.288 . S
C237 C236 1.288 . S
C237 C238 1.392 . S
C238 H208 0.951 . S
C238 C237 1.392 . S
C238 C239 1.392 . S
C239 H209 0.949 . S
C239 C234 1.382 . S
C239 C238 1.392 . S
H240 C259 0.949 . S
H241 C260 0.950 . S
H242 C262 0.950 . S
H243 C263 0.950 . S
H244 C265 0.950 . S
H245 C268 0.950 . S
H246 C269 0.950 . S
H247 C271 0.951 . S
H248 C272 0.949 . S
H249 C274 0.949 . S
H250 C275 0.950 . S
H251 C277 0.950 . S
H252 C278 0.950 . S
H253 C280 0.950 . S
H254 C283 0.950 . S
H255 C284 0.950 . S
H256 C286 0.951 . S
H257 C287 0.949 . S
C258 C259 1.376 . S
C258 C263 1.386 . S
C258 C264 1.483 . S
C259 H240 0.949 . S
C259 C258 1.376 . S
C259 C260 1.397 . S
C260 H241 0.950 . S
C260 C259 1.397 . S
C260 C261 1.391 . S
C261 C260 1.391 . S
C261 C262 1.405 . S
C262 H242 0.950 . S
C262 C261 1.405 . S
C262 C263 1.367 . S
C263 H243 0.950 . S
C263 C258 1.386 . S
C263 C262 1.367 . S
C264 C258 1.483 . S
C264 C265 1.382 . S
C264 C266 1.403 . S
C265 H244 0.950 . S
C265 C264 1.382 . S
C265 C281 1.411 . S
C266 C264 1.403 . S
C266 C267 1.489 . S
C266 C280 1.411 . S
C267 C266 1.489 . S
C267 C268 1.383 . S
C267 C272 1.382 . S
C268 H245 0.950 . S
C268 C267 1.383 . S
C268 C269 1.395 . S
C269 H246 0.950 . S
C269 C268 1.395 . S
C269 C270 1.288 . S
C270 C269 1.288 . S
C270 C271 1.392 . S
C271 H247 0.951 . S
C271 C270 1.392 . S
C271 C272 1.392 . S
C272 H248 0.949 . S
C272 C267 1.382 . S
C272 C271 1.392 . S
C273 C274 1.376 . S
C273 C278 1.386 . S
C273 C279 1.483 . S
C274 H249 0.949 . S
C274 C273 1.376 . S
C274 C275 1.397 . S
C275 H250 0.950 . S
C275 C274 1.397 . S
C275 C276 1.391 . S
C276 C275 1.391 . S
C276 C277 1.405 . S
C277 H251 0.950 . S
C277 C276 1.405 . S
C277 C278 1.367 . S
C278 H252 0.950 . S
C278 C273 1.386 . S
C278 C277 1.367 . S
C279 C273 1.483 . S
C279 C280 1.382 . S
C279 C281 1.403 . S
C280 H253 0.950 . S
C280 C266 1.411 . S
C280 C279 1.382 . S
C281 C265 1.411 . S
C281 C279 1.403 . S
C281 C282 1.489 . S
C282 C281 1.489 . S
C282 C283 1.383 . S
C282 C287 1.382 . S
C283 H254 0.950 . S
C283 C282 1.383 . S
C283 C284 1.395 . S
C284 H255 0.950 . S
C284 C283 1.395 . S
C284 C285 1.288 . S
C285 C284 1.288 . S
C285 C286 1.392 . S
C286 H256 0.951 . S
C286 C285 1.392 . S
C286 C287 1.392 . S
C287 H257 0.949 . S
C287 C282 1.382 . S
C287 C286 1.392 . S
H288 C307 0.949 . S
H289 C308 0.950 . S
H290 C310 0.950 . S
H291 C311 0.950 . S
H292 C313 0.950 . S
H293 C316 0.950 . S
H294 C317 0.950 . S
H295 C319 0.951 . S
H296 C320 0.949 1_545 S
H297 C322 0.949 . S
H298 C323 0.950 . S
H299 C325 0.950 . S
H300 C326 0.950 . S
H301 C328 0.950 . S
H302 C331 0.950 . S
H303 C332 0.950 . S
H304 C334 0.951 . S
H305 C335 0.949 1_565 S
C306 C307 1.376 . S
C306 C311 1.386 . S
C306 C312 1.483 . S
C307 H288 0.949 . S
C307 C306 1.376 . S
C307 C308 1.397 . S
C308 H289 0.950 . S
C308 C307 1.397 . S
C308 C309 1.391 . S
C309 C308 1.391 . S
C309 C310 1.405 . S
C310 H290 0.950 . S
C310 C309 1.405 . S
C310 C311 1.367 . S
C311 H291 0.950 . S
C311 C306 1.386 . S
C311 C310 1.367 . S
C312 C306 1.483 . S
C312 C313 1.382 . S
C312 C314 1.403 . S
C313 H292 0.950 . S
C313 C312 1.382 . S
C313 C329 1.411 1_565 S
C314 C312 1.403 . S
C314 C315 1.489 . S
C314 C328 1.411 1_565 S
C315 C314 1.489 . S
C315 C316 1.383 . S
C315 C320 1.382 . S
C316 H293 0.950 . S
C316 C315 1.383 . S
C316 C317 1.395 . S
C317 H294 0.950 . S
C317 C316 1.395 . S
C317 C318 1.288 . S
C318 C317 1.288 . S
C318 C319 1.392 . S
C319 H295 0.951 . S
C319 C318 1.392 . S
C319 C320 1.392 . S
C320 H296 0.949 1_565 S
C320 C315 1.382 . S
C320 C319 1.392 . S
C321 C322 1.376 . S
C321 C326 1.386 . S
C321 C327 1.483 . S
C322 H297 0.949 . S
C322 C321 1.376 . S
C322 C323 1.397 . S
C323 H298 0.950 . S
C323 C322 1.397 . S
C323 C324 1.391 . S
C324 C323 1.391 . S
C324 C325 1.405 . S
C325 H299 0.950 . S
C325 C324 1.405 . S
C325 C326 1.367 . S
C326 H300 0.950 . S
C326 C321 1.386 . S
C326 C325 1.367 . S
C327 C321 1.483 . S
C327 C328 1.382 . S
C327 C329 1.403 . S
C328 H301 0.950 . S
C328 C314 1.411 1_545 S
C328 C327 1.382 . S
C329 C313 1.411 1_545 S
C329 C327 1.403 . S
C329 C330 1.489 . S
C330 C329 1.489 . S
C330 C331 1.383 . S
C330 C335 1.382 . S
C331 H302 0.950 . S
C331 C330 1.383 . S
C331 C332 1.395 . S
C332 H303 0.950 . S
C332 C331 1.395 . S
C332 C333 1.288 . S
C333 C332 1.288 . S
C333 C334 1.392 . S
C334 H304 0.951 . S
C334 C333 1.392 . S
C334 C335 1.392 . S
C335 H305 0.949 1_545 S
C335 C330 1.382 . S
C335 C334 1.392 . S
H336 C355 0.949 1_455 S
H337 C356 0.950 . S
H338 C358 0.950 . S
H339 C359 0.950 . S
H340 C361 0.950 . S
H341 C364 0.950 . S
H342 C365 0.950 . S
H343 C367 0.951 . S
H344 C368 0.949 . S
H345 C370 0.949 . S
H346 C371 0.950 . S
H347 C373 0.950 . S
H348 C374 0.950 . S
H349 C376 0.950 . S
H350 C379 0.950 . S
H351 C380 0.950 . S
H352 C382 0.951 . S
H353 C383 0.949 1_545 S
C354 C355 1.376 . S
C354 C359 1.386 . S
C354 C360 1.483 . S
C355 H336 0.949 1_655 S
C355 C354 1.376 . S
C355 C356 1.397 . S
C356 H337 0.950 . S
C356 C355 1.397 . S
C356 C357 1.391 . S
C357 C356 1.391 . S
C357 C358 1.405 . S
C358 H338 0.950 . S
C358 C357 1.405 . S
C358 C359 1.367 . S
C359 H339 0.950 . S
C359 C354 1.386 . S
C359 C358 1.367 . S
C360 C354 1.483 . S
C360 C361 1.382 1_655 S
C360 C362 1.403 . S
C361 H340 0.950 . S
C361 C360 1.382 1_455 S
C361 C377 1.411 1_545 S
C362 C360 1.403 . S
C362 C363 1.489 . S
C362 C376 1.411 1_655 S
C363 C362 1.489 . S
C363 C364 1.383 . S
C363 C368 1.382 . S
C364 H341 0.950 . S
C364 C363 1.383 . S
C364 C365 1.395 . S
C365 H342 0.950 . S
C365 C364 1.395 . S
C365 C366 1.288 . S
C366 C365 1.288 . S
C366 C367 1.392 . S
C367 H343 0.951 . S
C367 C366 1.392 . S
C367 C368 1.392 . S
C368 H344 0.949 . S
C368 C363 1.382 . S
C368 C367 1.392 . S
C369 C370 1.376 . S
C369 C374 1.386 . S
C369 C375 1.483 . S
C370 H345 0.949 . S
C370 C369 1.376 . S
C370 C371 1.397 . S
C371 H346 0.950 . S
C371 C370 1.397 . S
C371 C372 1.391 . S
C372 C371 1.391 . S
C372 C373 1.405 . S
C373 H347 0.950 . S
C373 C372 1.405 . S
C373 C374 1.367 . S
C374 H348 0.950 . S
C374 C369 1.386 . S
C374 C373 1.367 . S
C375 C369 1.483 . S
C375 C376 1.382 1_565 S
C375 C377 1.403 . S
C376 H349 0.950 . S
C376 C362 1.411 1_455 S
C376 C375 1.382 1_545 S
C377 C361 1.411 1_565 S
C377 C375 1.403 . S
C377 C378 1.489 . S
C378 C377 1.489 . S
C378 C379 1.383 . S
C378 C383 1.382 . S
C379 H350 0.950 . S
C379 C378 1.383 . S
C379 C380 1.395 . S
C380 H351 0.950 . S
C380 C379 1.395 . S
C380 C381 1.288 . S
C381 C380 1.288 . S
C381 C382 1.392 . S
C382 H352 0.951 . S
C382 C381 1.392 . S
C382 C383 1.392 . S
C383 H353 0.949 1_565 S
C383 C378 1.382 . S
C383 C382 1.392 . S
Co384 O385 2.216 1_554 S
Co384 O386 2.091 1_554 S
Co384 O388 2.004 . S
Co384 O394 2.021 1_554 S
Co384 O396 2.137 . S
Co384 O397 2.244 . S
O385 Co384 2.216 1_556 S
O385 C392 1.247 . S
O386 Co384 2.091 1_556 S
O386 C392 1.261 . S
C387 O396 1.247 . S
C387 O397 1.272 . S
O388 Co384 2.004 . S
O388 C393 1.259 . S
Co389 O390 2.061 . S
Co389 O395 2.052 1_554 S
Co389 O397 2.135 . S
O390 Co389 2.061 . S
O390 C393 1.235 . S
C391 O394 1.238 . S
C391 O395 1.241 . S
C392 O385 1.247 . S
C392 O386 1.261 . S
C393 O388 1.259 . S
C393 O390 1.235 . S
O394 Co384 2.021 1_556 S
O394 C391 1.238 . S
O395 Co389 2.052 1_556 S
O395 C391 1.241 . S
O396 Co384 2.137 . S
O396 C387 1.247 . S
O397 Co384 2.244 . S
O397 C387 1.272 . S
O397 Co389 2.135 . S
Co398 O399 2.216 . S
Co398 O400 2.091 . S
Co398 O402 2.004 . S
Co398 O408 2.021 . S
Co398 O410 2.137 . S
Co398 O411 2.244 . S
O399 Co398 2.216 . S
O399 C406 1.247 . S
O400 Co398 2.091 . S
O400 C406 1.261 . S
C401 O410 1.247 . S
C401 O411 1.272 . S
O402 Co398 2.004 . S
O402 C407 1.259 . S
Co403 O404 2.061 . S
Co403 O409 2.052 . S
Co403 O411 2.135 . S
O404 Co403 2.061 . S
O404 C407 1.235 . S
C405 O408 1.238 . S
C405 O409 1.241 . S
C406 O399 1.247 . S
C406 O400 1.261 . S
C407 O402 1.259 . S
C407 O404 1.235 . S
O408 Co398 2.021 . S
O408 C405 1.238 . S
O409 Co403 2.052 . S
O409 C405 1.241 . S
O410 Co398 2.137 . S
O410 C401 1.247 . S
O411 Co398 2.244 . S
O411 C401 1.272 . S
O411 Co403 2.135 . S
Co412 O413 2.216 . S
Co412 O414 2.091 . S
Co412 O416 2.004 . S
Co412 O422 2.021 . S
Co412 O424 2.137 . S
Co412 O425 2.244 . S
O413 Co412 2.216 . S
O413 C420 1.247 . S
O414 Co412 2.091 . S
O414 C420 1.261 . S
C415 O424 1.247 . S
C415 O425 1.272 . S
O416 Co412 2.004 . S
O416 C421 1.259 . S
Co417 O418 2.061 . S
Co417 O423 2.052 . S
Co417 O425 2.135 . S
O418 Co417 2.061 . S
O418 C421 1.235 . S
C419 O422 1.238 . S
C419 O423 1.241 . S
C420 O413 1.247 . S
C420 O414 1.261 . S
C421 O416 1.259 . S
C421 O418 1.235 . S
O422 Co412 2.021 . S
O422 C419 1.238 . S
O423 Co417 2.052 . S
O423 C419 1.241 . S
O424 Co412 2.137 . S
O424 C415 1.247 . S
O425 Co412 2.244 . S
O425 C415 1.272 . S
O425 Co417 2.135 . S
Co426 O427 2.216 . S
Co426 O428 2.091 . S
Co426 O430 2.004 . S
Co426 O436 2.021 . S
Co426 O438 2.137 . S
Co426 O439 2.244 . S
O427 Co426 2.216 . S
O427 C434 1.247 . S
O428 Co426 2.091 . S
O428 C434 1.261 . S
C429 O438 1.247 . S
C429 O439 1.272 . S
O430 Co426 2.004 . S
O430 C435 1.259 . S
Co431 O432 2.061 . S
Co431 O437 2.052 . S
Co431 O439 2.135 . S
O432 Co431 2.061 . S
O432 C435 1.235 . S
C433 O436 1.238 . S
C433 O437 1.241 . S
C434 O427 1.247 . S
C434 O428 1.261 . S
C435 O430 1.259 . S
C435 O432 1.235 . S
O436 Co426 2.021 . S
O436 C433 1.238 . S
O437 Co431 2.052 . S
O437 C433 1.241 . S
O438 Co426 2.137 . S
O438 C429 1.247 . S
O439 Co426 2.244 . S
O439 C429 1.272 . S
O439 Co431 2.135 . S
Co440 O441 2.216 . S
Co440 O442 2.091 . S
Co440 O444 2.004 . S
Co440 O450 2.021 . S
Co440 O452 2.137 . S
Co440 O453 2.244 . S
O441 Co440 2.216 . S
O441 C448 1.247 . S
O442 Co440 2.091 . S
O442 C448 1.261 . S
C443 O452 1.247 . S
C443 O453 1.272 . S
O444 Co440 2.004 . S
O444 C449 1.259 . S
Co445 O446 2.061 . S
Co445 O451 2.052 . S
Co445 O453 2.135 . S
O446 Co445 2.061 . S
O446 C449 1.235 . S
C447 O450 1.238 . S
C447 O451 1.241 . S
C448 O441 1.247 . S
C448 O442 1.261 . S
C449 O444 1.259 . S
C449 O446 1.235 . S
O450 Co440 2.021 . S
O450 C447 1.238 . S
O451 Co445 2.052 . S
O451 C447 1.241 . S
O452 Co440 2.137 . S
O452 C443 1.247 . S
O453 Co440 2.244 . S
O453 C443 1.272 . S
O453 Co445 2.135 . S
Co454 O455 2.216 . S
Co454 O456 2.091 . S
Co454 O458 2.004 . S
Co454 O464 2.021 . S
Co454 O466 2.137 . S
Co454 O467 2.244 . S
O455 Co454 2.216 . S
O455 C462 1.247 . S
O456 Co454 2.091 . S
O456 C462 1.261 . S
C457 O466 1.247 . S
C457 O467 1.272 . S
O458 Co454 2.004 . S
O458 C463 1.259 . S
Co459 O460 2.061 . S
Co459 O465 2.052 . S
Co459 O467 2.135 . S
O460 Co459 2.061 . S
O460 C463 1.235 . S
C461 O464 1.238 . S
C461 O465 1.241 . S
C462 O455 1.247 . S
C462 O456 1.261 . S
C463 O458 1.259 . S
C463 O460 1.235 . S
O464 Co454 2.021 . S
O464 C461 1.238 . S
O465 Co459 2.052 . S
O465 C461 1.241 . S
O466 Co454 2.137 . S
O466 C457 1.247 . S
O467 Co454 2.244 . S
O467 C457 1.272 . S
O467 Co459 2.135 . S
Co468 O469 2.216 1_556 S
Co468 O470 2.091 1_556 S
Co468 O472 2.004 . S
Co468 O478 2.021 1_556 S
Co468 O480 2.137 . S
Co468 O481 2.244 . S
O469 Co468 2.216 1_554 S
O469 C476 1.247 . S
O470 Co468 2.091 1_554 S
O470 C476 1.261 . S
C471 O480 1.247 . S
C471 O481 1.272 . S
O472 Co468 2.004 . S
O472 C477 1.259 . S
Co473 O474 2.061 . S
Co473 O479 2.052 1_556 S
Co473 O481 2.135 . S
O474 Co473 2.061 . S
O474 C477 1.235 . S
C475 O478 1.238 . S
C475 O479 1.241 . S
C476 O469 1.247 . S
C476 O470 1.261 . S
C477 O472 1.259 . S
C477 O474 1.235 . S
O478 Co468 2.021 1_554 S
O478 C475 1.238 . S
O479 Co473 2.052 1_554 S
O479 C475 1.241 . S
O480 Co468 2.137 . S
O480 C471 1.247 . S
O481 Co468 2.244 . S
O481 C471 1.272 . S
O481 Co473 2.135 . S
Co482 O483 2.216 . S
Co482 O484 2.091 . S
Co482 O486 2.004 . S
Co482 O492 2.021 . S
Co482 O494 2.137 . S
Co482 O495 2.244 . S
O483 Co482 2.216 . S
O483 C490 1.247 . S
O484 Co482 2.091 . S
O484 C490 1.261 . S
C485 O494 1.247 . S
C485 O495 1.272 . S
O486 Co482 2.004 . S
O486 C491 1.259 . S
Co487 O488 2.061 . S
Co487 O493 2.052 . S
Co487 O495 2.135 . S
O488 Co487 2.061 . S
O488 C491 1.235 . S
C489 O492 1.238 . S
C489 O493 1.241 . S
C490 O483 1.247 . S
C490 O484 1.261 . S
C491 O486 1.259 . S
C491 O488 1.235 . S
O492 Co482 2.021 . S
O492 C489 1.238 . S
O493 Co487 2.052 . S
O493 C489 1.241 . S
O494 Co482 2.137 . S
O494 C485 1.247 . S
O495 Co482 2.244 . S
O495 C485 1.272 . S
O495 Co487 2.135 . S
H496 C502 0.930 . S
H497 C505 0.930 . S
H498 C506 0.930 . S
H499 C507 0.930 . S
H500 C510 0.930 . S
H501 C511 0.930 . S
C502 H496 0.930 . S
C502 C503 1.355 . S
C502 C504 1.415 . S
C503 C502 1.355 . S
C503 C505 1.419 . S
C504 C502 1.415 . S
C504 C509 1.425 . S
C504 C511 1.409 . S
C505 H497 0.930 . S
C505 C503 1.419 . S
C505 C506 1.362 . S
C506 H498 0.930 . S
C506 C505 1.362 . S
C506 C509 1.409 . S
C507 H499 0.930 . S
C507 C508 1.355 . S
C507 C509 1.415 . S
C508 C507 1.355 . S
C508 C510 1.419 . S
C509 C504 1.425 . S
C509 C506 1.409 . S
C509 C507 1.415 . S
C510 H500 0.930 . S
C510 C508 1.419 . S
C510 C511 1.362 . S
C511 H501 0.930 . S
C511 C504 1.409 . S
C511 C510 1.362 . S
H512 C518 0.930 . S
H513 C521 0.930 . S
H514 C522 0.930 . S
H515 C523 0.930 . S
H516 C526 0.930 . S
H517 C527 0.930 . S
C518 H512 0.930 . S
C518 C519 1.355 . S
C518 C520 1.415 . S
C519 C518 1.355 . S
C519 C521 1.419 . S
C520 C518 1.415 . S
C520 C525 1.425 . S
C520 C527 1.409 . S
C521 H513 0.930 . S
C521 C519 1.419 . S
C521 C522 1.362 . S
C522 H514 0.930 . S
C522 C521 1.362 . S
C522 C525 1.409 . S
C523 H515 0.930 . S
C523 C524 1.355 . S
C523 C525 1.415 . S
C524 C523 1.355 . S
C524 C526 1.419 . S
C525 C520 1.425 . S
C525 C522 1.409 . S
C525 C523 1.415 . S
C526 H516 0.930 . S
C526 C524 1.419 . S
C526 C527 1.362 . S
C527 H517 0.930 . S
C527 C520 1.409 . S
C527 C526 1.362 . S
H528 C534 0.930 . S
H529 C537 0.930 . S
H530 C538 0.930 . S
H531 C539 0.930 . S
H532 C542 0.930 . S
H533 C543 0.930 . S
C534 H528 0.930 . S
C534 C535 1.355 . S
C534 C536 1.415 . S
C535 C534 1.355 . S
C535 C537 1.419 . S
C536 C534 1.415 . S
C536 C541 1.425 . S
C536 C543 1.409 . S
C537 H529 0.930 . S
C537 C535 1.419 . S
C537 C538 1.362 . S
C538 H530 0.930 . S
C538 C537 1.362 . S
C538 C541 1.409 . S
C539 H531 0.930 . S
C539 C540 1.355 . S
C539 C541 1.415 . S
C540 C539 1.355 . S
C540 C542 1.419 . S
C541 C536 1.425 . S
C541 C538 1.409 . S
C541 C539 1.415 . S
C542 H532 0.930 . S
C542 C540 1.419 . S
C542 C543 1.362 . S
C543 H533 0.930 . S
C543 C536 1.409 . S
C543 C542 1.362 . S
H544 C550 0.930 . S
H545 C553 0.930 . S
H546 C554 0.930 1_556 S
H547 C555 0.930 . S
H548 C558 0.930 . S
H549 C559 0.930 . S
C550 H544 0.930 . S
C550 C551 1.355 . S
C550 C552 1.415 . S
C551 C550 1.355 . S
C551 C553 1.419 . S
C552 C550 1.415 . S
C552 C557 1.425 . S
C552 C559 1.409 . S
C553 H545 0.930 . S
C553 C551 1.419 . S
C553 C554 1.362 . S
C554 H546 0.930 1_554 S
C554 C553 1.362 . S
C554 C557 1.409 . S
C555 H547 0.930 . S
C555 C556 1.355 . S
C555 C557 1.415 . S
C556 C555 1.355 . S
C556 C558 1.419 . S
C557 C552 1.425 . S
C557 C554 1.409 . S
C557 C555 1.415 . S
C558 H548 0.930 . S
C558 C556 1.419 . S
C558 C559 1.362 . S
C559 H549 0.930 . S
C559 C552 1.409 . S
C559 C558 1.362 . S
H560 C566 0.930 . S
H561 C569 0.930 1_554 S
H562 C570 0.930 . S
H563 C571 0.890 1_554 S
H564 C574 0.930 . S
H565 C575 0.930 . S
C566 H560 0.930 . S
C566 C567 1.355 . S
C566 C568 1.415 . S
C567 C566 1.355 . S
C567 C569 1.419 . S
C568 C566 1.415 . S
C568 C573 1.425 . S
C568 C575 1.409 . S
C569 H561 0.930 1_556 S
C569 C567 1.419 . S
C569 C570 1.362 1_556 S
C570 H562 0.930 . S
C570 C569 1.362 1_554 S
C570 C573 1.409 1_554 S
C571 H563 0.890 1_556 S
C571 C572 1.382 . S
C571 C573 1.429 . S
C572 C571 1.382 . S
C572 C574 1.419 . S
C573 C568 1.425 . S
C573 C570 1.409 1_556 S
C573 C571 1.429 . S
C574 H564 0.930 . S
C574 C572 1.419 . S
C574 C575 1.362 . S
C575 H565 0.930 . S
C575 C568 1.409 . S
C575 C574 1.362 . S
H576 C582 0.930 . S
H577 C585 0.930 . S
H578 C586 0.930 . S
H579 C587 0.930 . S
H580 C590 0.930 . S
H581 C591 0.930 . S
C582 H576 0.930 . S
C582 C583 1.355 . S
C582 C584 1.415 . S
C583 C582 1.355 . S
C583 C585 1.419 . S
C584 C582 1.415 . S
C584 C589 1.425 . S
C584 C591 1.409 . S
C585 H577 0.930 . S
C585 C583 1.419 . S
C585 C586 1.362 . S
C586 H578 0.930 . S
C586 C585 1.362 . S
C586 C589 1.409 . S
C587 H579 0.930 . S
C587 C588 1.355 . S
C587 C589 1.415 . S
C588 C587 1.355 . S
C588 C590 1.419 . S
C589 C584 1.425 . S
C589 C586 1.409 . S
C589 C587 1.415 . S
C590 H580 0.930 . S
C590 C588 1.419 . S
C590 C591 1.362 . S
C591 H581 0.930 . S
C591 C584 1.409 . S
C591 C590 1.362 . S
H592 C598 0.930 . S
H593 C601 0.930 . S
H594 C602 0.930 . S
H595 C603 0.930 . S
H596 C606 0.930 . S
H597 C607 0.930 . S
C598 H592 0.930 . S
C598 C599 1.355 . S
C598 C600 1.415 . S
C599 C598 1.355 . S
C599 C601 1.419 . S
C600 C598 1.415 . S
C600 C605 1.425 . S
C600 C607 1.409 . S
C601 H593 0.930 . S
C601 C599 1.419 . S
C601 C602 1.362 . S
C602 H594 0.930 . S
C602 C601 1.362 . S
C602 C605 1.409 . S
C603 H595 0.930 . S
C603 C604 1.355 . S
C603 C605 1.415 . S
C604 C603 1.355 . S
C604 C606 1.419 . S
C605 C600 1.425 . S
C605 C602 1.409 . S
C605 C603 1.415 . S
C606 H596 0.930 . S
C606 C604 1.419 . S
C606 C607 1.362 . S
C607 H597 0.930 . S
C607 C600 1.409 . S
C607 C606 1.362 . S
H608 C614 0.930 . S
H609 C617 0.930 . S
H610 C618 0.930 . S
H611 C619 0.930 . S
H612 C622 0.930 . S
H613 C623 0.930 . S
C614 H608 0.930 . S
C614 C615 1.355 . S
C614 C616 1.415 . S
C615 C614 1.355 . S
C615 C617 1.419 . S
C616 C614 1.415 . S
C616 C621 1.425 . S
C616 C623 1.409 . S
C617 H609 0.930 . S
C617 C615 1.419 . S
C617 C618 1.362 . S
C618 H610 0.930 . S
C618 C617 1.362 . S
C618 C621 1.409 . S
C619 H611 0.930 . S
C619 C620 1.355 . S
C619 C621 1.415 . S
C620 C619 1.355 . S
C620 C622 1.419 . S
C621 C616 1.425 . S
C621 C618 1.409 . S
C621 C619 1.415 . S
C622 H612 0.930 . S
C622 C620 1.419 . S
C622 C623 1.362 . S
C623 H613 0.930 . S
C623 C616 1.409 . S
C623 C622 1.362 . S
H624 C630 0.930 . S
H625 C633 0.930 . S
H626 C634 0.930 . S
H627 C635 0.930 . S
H628 C638 0.930 . S
H629 C639 0.930 . S
C630 H624 0.930 . S
C630 C631 1.355 . S
C630 C632 1.415 . S
C631 C630 1.355 . S
C631 C633 1.419 . S
C632 C630 1.415 . S
C632 C637 1.425 . S
C632 C639 1.409 . S
C633 H625 0.930 . S
C633 C631 1.419 . S
C633 C634 1.362 . S
C634 H626 0.930 . S
C634 C633 1.362 . S
C634 C637 1.409 . S
C635 H627 0.930 . S
C635 C636 1.355 . S
C635 C637 1.415 . S
C636 C635 1.355 . S
C636 C638 1.419 . S
C637 C632 1.425 . S
C637 C634 1.409 . S
C637 C635 1.415 . S
C638 H628 0.930 . S
C638 C636 1.419 . S
C638 C639 1.362 . S
C639 H629 0.930 . S
C639 C632 1.409 . S
C639 C638 1.362 . S
H640 C646 0.930 . S
H641 C649 0.930 . S
H642 C650 0.930 . S
H643 C651 0.930 . S
H644 C654 0.930 . S
H645 C655 0.946 . S
C646 H640 0.930 . S
C646 C647 1.355 . S
C646 C648 1.415 . S
C647 C646 1.355 . S
C647 C649 1.419 . S
C648 C646 1.415 . S
C648 C653 1.425 . S
C648 C655 1.393 1_554 S
C649 H641 0.930 . S
C649 C647 1.419 . S
C649 C650 1.362 . S
C650 H642 0.930 . S
C650 C649 1.362 . S
C650 C653 1.409 . S
C651 H643 0.930 . S
C651 C652 1.355 . S
C651 C653 1.415 . S
C652 C651 1.355 . S
C652 C654 1.419 1_554 S
C653 C648 1.425 . S
C653 C650 1.409 . S
C653 C651 1.415 . S
C654 H644 0.930 . S
C654 C652 1.419 1_556 S
C654 C655 1.364 . S
C655 H645 0.946 . S
C655 C648 1.393 1_556 S
C655 C654 1.364 . S
H656 C662 0.930 . S
H657 C665 0.930 . S
H658 C666 0.930 . S
H659 C667 0.930 . S
H660 C670 0.930 . S
H661 C671 0.930 . S
C662 H656 0.930 . S
C662 C663 1.355 . S
C662 C664 1.415 . S
C663 C662 1.355 . S
C663 C665 1.419 . S
C664 C662 1.415 . S
C664 C669 1.425 . S
C664 C671 1.409 . S
C665 H657 0.930 . S
C665 C663 1.419 . S
C665 C666 1.362 . S
C666 H658 0.930 . S
C666 C665 1.362 . S
C666 C669 1.409 . S
C667 H659 0.930 . S
C667 C668 1.355 . S
C667 C669 1.415 . S
C668 C667 1.355 . S
C668 C670 1.419 . S
C669 C664 1.425 . S
C669 C666 1.409 . S
C669 C667 1.415 . S
C670 H660 0.930 . S
C670 C668 1.419 . S
C670 C671 1.362 . S
C671 H661 0.930 . S
C671 C664 1.409 . S
C671 C670 1.362 . S
H672 C678 0.930 . S
H673 C681 0.930 . S
H674 C682 0.930 . S
H675 C683 0.930 . S
H676 C686 0.930 . S
H677 C687 0.930 . S
C678 H672 0.930 . S
C678 C679 1.355 . S
C678 C680 1.415 . S
C679 C678 1.355 . S
C679 C681 1.419 . S
C680 C678 1.415 . S
C680 C685 1.425 . S
C680 C687 1.409 . S
C681 H673 0.930 . S
C681 C679 1.419 . S
C681 C682 1.362 . S
C682 H674 0.930 . S
C682 C681 1.362 . S
C682 C685 1.409 . S
C683 H675 0.930 . S
C683 C684 1.355 . S
C683 C685 1.415 . S
C684 C683 1.355 . S
C684 C686 1.419 . S
C685 C680 1.425 . S
C685 C682 1.409 . S
C685 C683 1.415 . S
C686 H676 0.930 . S
C686 C684 1.419 . S
C686 C687 1.362 . S
C687 H677 0.930 . S
C687 C680 1.409 . S
C687 C686 1.362 . S
H688 C694 0.930 . S
H689 C697 0.930 . S
H690 C698 0.930 . S
H691 C699 0.930 . S
H692 C702 0.930 . S
H693 C703 0.930 . S
C694 H688 0.930 . S
C694 C695 1.355 . S
C694 C696 1.415 . S
C695 C694 1.355 . S
C695 C697 1.419 . S
C696 C694 1.415 . S
C696 C701 1.425 . S
C696 C703 1.409 . S
C697 H689 0.930 . S
C697 C695 1.419 . S
C697 C698 1.362 . S
C698 H690 0.930 . S
C698 C697 1.362 . S
C698 C701 1.409 . S
C699 H691 0.930 . S
C699 C700 1.355 . S
C699 C701 1.415 . S
C700 C699 1.355 . S
C700 C702 1.419 . S
C701 C696 1.425 . S
C701 C698 1.409 . S
C701 C699 1.415 . S
C702 H692 0.930 . S
C702 C700 1.419 . S
C702 C703 1.362 . S
C703 H693 0.930 . S
C703 C696 1.409 . S
C703 C702 1.362 . S
H704 C710 0.930 . S
H705 C713 0.930 . S
H706 C714 0.930 . S
H707 C715 0.930 . S
H708 C718 0.930 . S
H709 C719 0.930 . S
C710 H704 0.930 . S
C710 C711 1.355 . S
C710 C712 1.415 . S
C711 C710 1.355 . S
C711 C713 1.419 . S
C712 C710 1.415 . S
C712 C717 1.425 . S
C712 C719 1.409 . S
C713 H705 0.930 . S
C713 C711 1.419 . S
C713 C714 1.362 . S
C714 H706 0.930 . S
C714 C713 1.362 . S
C714 C717 1.409 . S
C715 H707 0.930 . S
C715 C716 1.355 . S
C715 C717 1.415 . S
C716 C715 1.355 . S
C716 C718 1.419 . S
C717 C712 1.425 . S
C717 C714 1.409 . S
C717 C715 1.415 . S
C718 H708 0.930 . S
C718 C716 1.419 . S
C718 C719 1.362 . S
C719 H709 0.930 . S
C719 C712 1.409 . S
C719 C718 1.362 . S
H720 C726 0.919 1_554 S
H721 C729 0.930 . S
H722 C730 0.930 . S
H723 C731 0.930 . S
H724 C734 0.930 . S
H725 C735 0.930 . S
C726 H720 0.919 1_556 S
C726 C727 1.355 . S
C726 C728 1.415 . S
C727 C726 1.355 . S
C727 C729 1.419 . S
C728 C726 1.415 . S
C728 C733 1.425 . S
C728 C735 1.409 1_556 S
C729 H721 0.930 . S
C729 C727 1.419 . S
C729 C730 1.362 . S
C730 H722 0.930 . S
C730 C729 1.362 . S
C730 C733 1.409 . S
C731 H723 0.930 . S
C731 C732 1.355 . S
C731 C733 1.415 . S
C732 C731 1.355 . S
C732 C734 1.419 1_556 S
C733 C728 1.425 . S
C733 C730 1.409 . S
C733 C731 1.415 . S
C734 H724 0.930 . S
C734 C732 1.419 1_554 S
C734 C735 1.362 . S
C735 H725 0.930 . S
C735 C728 1.409 1_554 S
C735 C734 1.362 . S
H736 C742 0.930 . S
H737 C745 0.930 . S
H738 C746 0.930 . S
H739 C747 0.930 . S
H740 C750 0.930 . S
H741 C751 0.930 . S
C742 H736 0.930 . S
C742 C743 1.355 . S
C742 C744 1.415 . S
C743 C742 1.355 . S
C743 C745 1.419 . S
C744 C742 1.415 . S
C744 C749 1.425 . S
C744 C751 1.409 . S
C745 H737 0.930 . S
C745 C743 1.419 . S
C745 C746 1.362 . S
C746 H738 0.930 . S
C746 C745 1.362 . S
C746 C749 1.409 . S
C747 H739 0.930 . S
C747 C748 1.355 . S
C747 C749 1.415 . S
C748 C747 1.355 . S
C748 C750 1.419 . S
C749 C744 1.425 . S
C749 C746 1.409 . S
C749 C747 1.415 . S
C750 H740 0.930 . S
C750 C748 1.419 . S
C750 C751 1.362 . S
C751 H741 0.930 . S
C751 C744 1.409 . S
C751 C750 1.362 . S
H752 C758 0.930 . S
H753 C761 0.930 . S
H754 C762 0.930 . S
H755 C763 0.930 . S
H756 C766 0.930 . S
H757 C767 0.930 . S
C758 H752 0.930 . S
C758 C759 1.355 . S
C758 C760 1.415 . S
C759 C758 1.355 . S
C759 C761 1.419 . S
C760 C758 1.415 . S
C760 C765 1.425 . S
C760 C767 1.409 . S
C761 H753 0.930 . S
C761 C759 1.419 . S
C761 C762 1.362 . S
C762 H754 0.930 . S
C762 C761 1.362 . S
C762 C765 1.409 . S
C763 H755 0.930 . S
C763 C764 1.355 . S
C763 C765 1.415 . S
C764 C763 1.355 . S
C764 C766 1.419 . S
C765 C760 1.425 . S
C765 C762 1.409 . S
C765 C763 1.415 . S
C766 H756 0.930 . S
C766 C764 1.419 . S
C766 C767 1.362 . S
C767 H757 0.930 . S
C767 C760 1.409 . S
C767 C766 1.362 . S
H768 C774 0.930 . S
H769 C777 0.930 . S
H770 C778 0.930 . S
H771 C779 0.930 . S
H772 C782 0.930 . S
H773 C783 0.930 . S
C774 H768 0.930 . S
C774 C775 1.355 . S
C774 C776 1.415 . S
C775 C774 1.355 . S
C775 C777 1.419 . S
C776 C774 1.415 . S
C776 C781 1.425 . S
C776 C783 1.409 . S
C777 H769 0.930 . S
C777 C775 1.419 . S
C777 C778 1.362 . S
C778 H770 0.930 . S
C778 C777 1.362 . S
C778 C781 1.409 . S
C779 H771 0.930 . S
C779 C780 1.355 . S
C779 C781 1.415 . S
C780 C779 1.355 . S
C780 C782 1.419 . S
C781 C776 1.425 . S
C781 C778 1.409 . S
C781 C779 1.415 . S
C782 H772 0.930 . S
C782 C780 1.419 . S
C782 C783 1.362 . S
C783 H773 0.930 . S
C783 C776 1.409 . S
C783 C782 1.362 . S
H784 C790 0.930 . S
H785 C793 0.930 . S
H786 C794 0.930 . S
H787 C795 0.930 . S
H788 C798 0.930 . S
H789 C799 0.930 . S
C790 H784 0.930 . S
C790 C791 1.355 . S
C790 C792 1.415 . S
C791 C790 1.355 . S
C791 C793 1.419 . S
C792 C790 1.415 . S
C792 C797 1.425 . S
C792 C799 1.409 . S
C793 H785 0.930 . S
C793 C791 1.419 . S
C793 C794 1.362 . S
C794 H786 0.930 . S
C794 C793 1.362 . S
C794 C797 1.409 . S
C795 H787 0.930 . S
C795 C796 1.355 . S
C795 C797 1.415 . S
C796 C795 1.355 . S
C796 C798 1.419 . S
C797 C792 1.425 . S
C797 C794 1.409 . S
C797 C795 1.415 . S
C798 H788 0.930 . S
C798 C796 1.419 . S
C798 C799 1.362 . S
C799 H789 0.930 . S
C799 C792 1.409 . S
C799 C798 1.362 . S
H800 C806 0.930 . S
H801 C809 0.930 . S
H802 C810 0.930 . S
H803 C811 0.930 . S
H804 C814 0.930 . S
H805 C815 0.930 . S
C806 H800 0.930 . S
C806 C807 1.355 . S
C806 C808 1.415 . S
C807 C806 1.355 . S
C807 C809 1.419 . S
C808 C806 1.415 . S
C808 C813 1.425 . S
C808 C815 1.409 . S
C809 H801 0.930 . S
C809 C807 1.419 . S
C809 C810 1.362 . S
C810 H802 0.930 . S
C810 C809 1.362 . S
C810 C813 1.409 . S
C811 H803 0.930 . S
C811 C812 1.355 . S
C811 C813 1.415 . S
C812 C811 1.355 . S
C812 C814 1.419 . S
C813 C808 1.425 . S
C813 C810 1.409 . S
C813 C811 1.415 . S
C814 H804 0.930 . S
C814 C812 1.419 . S
C814 C815 1.362 . S
C815 H805 0.930 . S
C815 C808 1.409 . S
C815 C814 1.362 . S
H816 C822 0.930 . S
H817 C825 0.930 . S
H818 C826 0.930 . S
H819 C827 0.930 . S
H820 C830 0.930 . S
H821 C831 0.930 . S
C822 H816 0.930 . S
C822 C823 1.355 . S
C822 C824 1.415 . S
C823 C822 1.355 . S
C823 C825 1.419 . S
C824 C822 1.415 . S
C824 C829 1.425 . S
C824 C831 1.409 . S
C825 H817 0.930 . S
C825 C823 1.419 . S
C825 C826 1.362 . S
C826 H818 0.930 . S
C826 C825 1.362 . S
C826 C829 1.409 . S
C827 H819 0.930 . S
C827 C828 1.355 . S
C827 C829 1.415 . S
C828 C827 1.355 . S
C828 C830 1.419 . S
C829 C824 1.425 . S
C829 C826 1.409 . S
C829 C827 1.415 . S
C830 H820 0.930 . S
C830 C828 1.419 . S
C830 C831 1.362 . S
C831 H821 0.930 . S
C831 C824 1.409 . S
C831 C830 1.362 . S
H832 C838 0.930 . S
H833 C841 0.930 . S
H834 C842 0.930 . S
H835 C843 0.930 . S
H836 C846 0.930 . S
H837 C847 0.930 . S
C838 H832 0.930 . S
C838 C839 1.355 . S
C838 C840 1.415 . S
C839 C838 1.355 . S
C839 C841 1.419 . S
C840 C838 1.415 . S
C840 C845 1.425 . S
C840 C847 1.409 . S
C841 H833 0.930 . S
C841 C839 1.419 . S
C841 C842 1.362 . S
C842 H834 0.930 . S
C842 C841 1.362 . S
C842 C845 1.409 . S
C843 H835 0.930 . S
C843 C844 1.355 . S
C843 C845 1.415 . S
C844 C843 1.355 . S
C844 C846 1.419 . S
C845 C840 1.425 . S
C845 C842 1.409 . S
C845 C843 1.415 . S
C846 H836 0.930 . S
C846 C844 1.419 . S
C846 C847 1.362 . S
C847 H837 0.930 . S
C847 C840 1.409 . S
C847 C846 1.362 . S
H848 C854 0.930 . S
H849 C857 0.930 . S
H850 C858 0.930 . S
H851 C859 0.930 . S
H852 C862 0.930 . S
H853 C863 0.930 . S
C854 H848 0.930 . S
C854 C855 1.355 . S
C854 C856 1.415 . S
C855 C854 1.355 . S
C855 C857 1.419 . S
C856 C854 1.415 . S
C856 C861 1.425 . S
C856 C863 1.409 . S
C857 H849 0.930 . S
C857 C855 1.419 . S
C857 C858 1.362 . S
C858 H850 0.930 . S
C858 C857 1.362 . S
C858 C861 1.409 . S
C859 H851 0.930 . S
C859 C860 1.355 . S
C859 C861 1.415 . S
C860 C859 1.355 . S
C860 C862 1.419 . S
C861 C856 1.425 . S
C861 C858 1.409 . S
C861 C859 1.415 . S
C862 H852 0.930 . S
C862 C860 1.419 . S
C862 C863 1.362 . S
C863 H853 0.930 . S
C863 C856 1.409 . S
C863 C862 1.362 . S
H864 C870 0.930 . S
H865 C873 0.930 . S
H866 C874 0.930 . S
H867 C875 0.930 . S
H868 C878 0.930 . S
H869 C879 0.930 . S
C870 H864 0.930 . S
C870 C871 1.355 . S
C870 C872 1.415 . S
C871 C870 1.355 . S
C871 C873 1.419 . S
C872 C870 1.415 . S
C872 C877 1.425 . S
C872 C879 1.409 . S
C873 H865 0.930 . S
C873 C871 1.419 . S
C873 C874 1.362 . S
C874 H866 0.930 . S
C874 C873 1.362 . S
C874 C877 1.409 . S
C875 H867 0.930 . S
C875 C876 1.355 . S
C875 C877 1.415 . S
C876 C875 1.355 . S
C876 C878 1.419 . S
C877 C872 1.425 . S
C877 C874 1.409 . S
C877 C875 1.415 . S
C878 H868 0.930 . S
C878 C876 1.419 . S
C878 C879 1.362 . S
C879 H869 0.930 . S
C879 C872 1.409 . S
C879 C878 1.362 . S
H880 C886 0.930 . S
H881 C889 0.930 . S
H882 C890 0.930 . S
H883 C891 0.930 . S
H884 C894 0.930 . S
H885 C895 0.930 . S
C886 H880 0.930 . S
C886 C887 1.355 . S
C886 C888 1.415 . S
C887 C886 1.355 . S
C887 C889 1.419 . S
C888 C886 1.415 . S
C888 C893 1.425 . S
C888 C895 1.409 . S
C889 H881 0.930 . S
C889 C887 1.419 . S
C889 C890 1.362 . S
C890 H882 0.930 . S
C890 C889 1.362 . S
C890 C893 1.409 . S
C891 H883 0.930 . S
C891 C892 1.355 . S
C891 C893 1.415 . S
C892 C891 1.355 . S
C892 C894 1.419 . S
C893 C888 1.425 . S
C893 C890 1.409 . S
C893 C891 1.415 . S
C894 H884 0.930 . S
C894 C892 1.419 . S
C894 C895 1.362 . S
C895 H885 0.930 . S
C895 C888 1.409 . S
C895 C894 1.362 . S
H896 C902 0.930 . S
H897 C905 0.930 . S
H898 C906 0.930 . S
H899 C907 0.930 . S
H900 C910 0.930 . S
H901 C911 0.930 . S
C902 H896 0.930 . S
C902 C903 1.355 . S
C902 C904 1.415 . S
C903 C902 1.355 . S
C903 C905 1.419 . S
C904 C902 1.415 . S
C904 C909 1.425 . S
C904 C911 1.409 . S
C905 H897 0.930 . S
C905 C903 1.419 . S
C905 C906 1.362 . S
C906 H898 0.930 . S
C906 C905 1.362 . S
C906 C909 1.409 . S
C907 H899 0.930 . S
C907 C908 1.355 . S
C907 C909 1.415 . S
C908 C907 1.355 . S
C908 C910 1.419 . S
C909 C904 1.425 . S
C909 C906 1.409 . S
C909 C907 1.415 . S
C910 H900 0.930 . S
C910 C908 1.419 . S
C910 C911 1.362 . S
C911 H901 0.930 . S
C911 C904 1.409 . S
C911 C910 1.362 . S
H912 C918 0.930 . S
H913 C921 0.930 . S
H914 C922 0.930 . S
H915 C923 0.930 . S
H916 C926 0.930 . S
H917 C927 0.930 . S
C918 H912 0.930 . S
C918 C919 1.355 . S
C918 C920 1.415 . S
C919 C918 1.355 . S
C919 C921 1.419 . S
C920 C918 1.415 . S
C920 C925 1.425 . S
C920 C927 1.409 . S
C921 H913 0.930 . S
C921 C919 1.419 . S
C921 C922 1.362 . S
C922 H914 0.930 . S
C922 C921 1.362 . S
C922 C925 1.409 . S
C923 H915 0.930 . S
C923 C924 1.355 . S
C923 C925 1.415 . S
C924 C923 1.355 . S
C924 C926 1.419 . S
C925 C920 1.425 . S
C925 C922 1.409 . S
C925 C923 1.415 . S
C926 H916 0.930 . S
C926 C924 1.419 . S
C926 C927 1.362 . S
C927 H917 0.930 . S
C927 C920 1.409 . S
C927 C926 1.362 . S
H928 C934 0.930 . S
H929 C937 0.930 . S
H930 C938 0.930 . S
H931 C939 0.930 . S
H932 C942 0.930 . S
H933 C943 0.930 . S
C934 H928 0.930 . S
C934 C935 1.355 . S
C934 C936 1.415 . S
C935 C934 1.355 . S
C935 C937 1.419 . S
C936 C934 1.415 . S
C936 C941 1.425 . S
C936 C943 1.409 . S
C937 H929 0.930 . S
C937 C935 1.419 . S
C937 C938 1.362 . S
C938 H930 0.930 . S
C938 C937 1.362 . S
C938 C941 1.409 . S
C939 H931 0.930 . S
C939 C940 1.355 . S
C939 C941 1.415 . S
C940 C939 1.355 . S
C940 C942 1.419 . S
C941 C936 1.425 . S
C941 C938 1.409 . S
C941 C939 1.415 . S
C942 H932 0.930 . S
C942 C940 1.419 . S
C942 C943 1.362 . S
C943 H933 0.930 . S
C943 C936 1.409 . S
C943 C942 1.362 . S
H944 C950 0.930 . S
H945 C953 0.930 . S
H946 C954 0.930 . S
H947 C955 0.930 . S
H948 C958 0.930 . S
H949 C959 0.930 . S
C950 H944 0.930 . S
C950 C951 1.355 . S
C950 C952 1.415 . S
C951 C950 1.355 . S
C951 C953 1.419 . S
C952 C950 1.415 . S
C952 C957 1.425 . S
C952 C959 1.409 . S
C953 H945 0.930 . S
C953 C951 1.419 . S
C953 C954 1.362 . S
C954 H946 0.930 . S
C954 C953 1.362 . S
C954 C957 1.409 . S
C955 H947 0.930 . S
C955 C956 1.355 . S
C955 C957 1.415 . S
C956 C955 1.355 . S
C956 C958 1.419 . S
C957 C952 1.425 . S
C957 C954 1.409 . S
C957 C955 1.415 . S
C958 H948 0.930 . S
C958 C956 1.419 . S
C958 C959 1.362 . S
C959 H949 0.930 . S
C959 C952 1.409 . S
C959 C958 1.362 . S
H960 C966 0.930 . S
H961 C969 0.930 . S
H962 C970 0.930 . S
H963 C971 0.930 . S
H964 C974 0.930 . S
H965 C975 0.930 . S
C966 H960 0.930 . S
C966 C967 1.355 . S
C966 C968 1.415 . S
C967 C966 1.355 . S
C967 C969 1.419 . S
C968 C966 1.415 . S
C968 C973 1.425 . S
C968 C975 1.409 . S
C969 H961 0.930 . S
C969 C967 1.419 . S
C969 C970 1.362 . S
C970 H962 0.930 . S
C970 C969 1.362 . S
C970 C973 1.409 . S
C971 H963 0.930 . S
C971 C972 1.355 . S
C971 C973 1.415 . S
C972 C971 1.355 . S
C972 C974 1.419 . S
C973 C968 1.425 . S
C973 C970 1.409 . S
C973 C971 1.415 . S
C974 H964 0.930 . S
C974 C972 1.419 . S
C974 C975 1.362 . S
C975 H965 0.930 . S
C975 C968 1.409 . S
C975 C974 1.362 . S
H976 C982 0.930 . S
H977 C985 0.930 . S
H978 C986 0.930 . S
H979 C987 0.930 . S
H980 C990 0.930 . S
H981 C991 0.930 . S
C982 H976 0.930 . S
C982 C983 1.355 . S
C982 C984 1.415 . S
C983 C982 1.355 . S
C983 C985 1.419 . S
C984 C982 1.415 . S
C984 C989 1.425 . S
C984 C991 1.409 . S
C985 H977 0.930 . S
C985 C983 1.419 . S
C985 C986 1.362 . S
C986 H978 0.930 . S
C986 C985 1.362 . S
C986 C989 1.409 . S
C987 H979 0.930 . S
C987 C988 1.355 . S
C987 C989 1.415 . S
C988 C987 1.355 . S
C988 C990 1.419 . S
C989 C984 1.425 . S
C989 C986 1.409 . S
C989 C987 1.415 . S
C990 H980 0.930 . S
C990 C988 1.419 . S
C990 C991 1.362 . S
C991 H981 0.930 . S
C991 C984 1.409 . S
C991 C990 1.362 . S
H992 C998 0.930 . S
H993 C1001 0.930 . S
H994 C1002 0.930 . S
H995 C1003 0.930 . S
H996 C1006 0.930 . S
H997 C1007 0.930 . S
C998 H992 0.930 . S
C998 C999 1.355 . S
C998 C1000 1.415 . S
C999 C998 1.355 . S
C999 C1001 1.419 . S
C1000 C998 1.415 . S
C1000 C1005 1.425 . S
C1000 C1007 1.409 . S
C1001 H993 0.930 . S
C1001 C999 1.419 . S
C1001 C1002 1.362 . S
C1002 H994 0.930 . S
C1002 C1001 1.362 . S
C1002 C1005 1.409 . S
C1003 H995 0.930 . S
C1003 C1004 1.355 . S
C1003 C1005 1.415 . S
C1004 C1003 1.355 . S
C1004 C1006 1.419 . S
C1005 C1000 1.425 . S
C1005 C1002 1.409 . S
C1005 C1003 1.415 . S
C1006 H996 0.930 . S
C1006 C1004 1.419 . S
C1006 C1007 1.362 . S
C1007 H997 0.930 . S
C1007 C1000 1.409 . S
C1007 C1006 1.362 . S
C508 C406 1.395 . S
C503 C36 1.327 . S
C524 C420 1.379 . S
C519 C93 1.355 . S
C540 C435 1.395 . S
C535 C126 1.371 . S
C551 C165 1.374 . S
C556 C393 1.333 . S
C567 C222 1.375 . S
C572 C392 1.379 . S
C583 C261 1.368 . S
C588 C407 1.356 . S
C604 C421 1.362 . S
C599 C318 1.402 . S
C620 C434 1.411 . S
C615 C381 1.404 . S
C631 C132 1.318 . S
C636 C462 1.384 . S
C652 C476 1.413 . S
C647 C189 1.360 . S
C663 C30 1.325 . S
C668 C491 1.387 . S
C684 C448 1.374 . S
C679 C69 1.325 . S
C695 C324 1.339 . S
C700 C449 1.398 . S
C711 C357 1.381 . S
C716 C463 1.336 . S
C732 C477 1.382 . S
C727 C228 1.322 . S
C743 C285 1.413 . S
C748 C490 1.423 . S
C764 C415 1.736 . S
C759 C45 1.744 . S
C780 C433 1.696 . S
C775 C84 1.749 . S
C791 C117 1.750 . S
C796 C391 1.694 . S
C807 C174 1.720 . S
C812 C401 1.743 . S
C823 C213 1.706 . S
C828 C429 1.715 . S
C844 C387 1.755 . S
C839 C270 1.723 . S
C860 C405 1.723 . S
C855 C309 1.702 . S
C876 C419 1.675 . S
C871 C372 1.739 . S
C892 C471 1.715 . S
C887 C141 1.738 . S
C908 C489 1.720 . S
C903 C180 1.710 . S
C919 C21 1.699 . S
C924 C443 1.727 . S
C940 C457 1.733 . S
C935 C78 1.719 . S
C956 C485 1.734 . S
C951 C333 1.734 . S
C967 C366 1.679 . S
C972 C447 1.719 . S
C988 C461 1.694 . S
C983 C237 1.754 . S
C1004 C475 1.729 . S
C999 C276 1.716 . S
