# Generated by pormake.
# Topology anh, (6,3)-cn, num edge types: 1
# Building blocks:
#     Node 0, Type 0, BuildingBlock: BETFEN_clean_sbu_0, # of connection points: 6
#     Node 1, Type 0, BuildingBlock: BETFEN_clean_sbu_0, # of connection points: 6
#     Node 2, Type 0, BuildingBlock: BETFEN_clean_sbu_0, # of connection points: 6
#     Node 3, Type 1, BuildingBlock: BETDAH_clean_linker_0, # of connection points: 3
#     Node 4, Type 1, BuildingBlock: BETDAH_clean_linker_0, # of connection points: 3
#     Node 5, Type 1, BuildingBlock: BETDAH_clean_linker_0, # of connection points: 3
#     Node 6, Type 1, BuildingBlock: BETDAH_clean_linker_0, # of connection points: 3
#     Node 7, Type 1, BuildingBlock: BETDAH_clean_linker_0, # of connection points: 3
#     Node 8, Type 1, BuildingBlock: BETDAH_clean_linker_0, # of connection points: 3
#     Edge 9, Type (0, 1), BuildingBlock: XUDNAN_clean_linker_2, # of connection points: 2
#     Edge 10, Type (0, 1), BuildingBlock: XUDNAN_clean_linker_2, # of connection points: 2
#     Edge 11, Type (0, 1), BuildingBlock: XUDNAN_clean_linker_2, # of connection points: 2
#     Edge 12, Type (0, 1), BuildingBlock: XUDNAN_clean_linker_2, # of connection points: 2
#     Edge 13, Type (0, 1), BuildingBlock: XUDNAN_clean_linker_2, # of connection points: 2
#     Edge 14, Type (0, 1), BuildingBlock: XUDNAN_clean_linker_2, # of connection points: 2
#     Edge 15, Type (0, 1), BuildingBlock: XUDNAN_clean_linker_2, # of connection points: 2
#     Edge 16, Type (0, 1), BuildingBlock: XUDNAN_clean_linker_2, # of connection points: 2
#     Edge 17, Type (0, 1), BuildingBlock: XUDNAN_clean_linker_2, # of connection points: 2
#     Edge 18, Type (0, 1), BuildingBlock: XUDNAN_clean_linker_2, # of connection points: 2
#     Edge 19, Type (0, 1), BuildingBlock: XUDNAN_clean_linker_2, # of connection points: 2
#     Edge 20, Type (0, 1), BuildingBlock: XUDNAN_clean_linker_2, # of connection points: 2
#     Edge 21, Type (0, 1), BuildingBlock: XUDNAN_clean_linker_2, # of connection points: 2
#     Edge 22, Type (0, 1), BuildingBlock: XUDNAN_clean_linker_2, # of connection points: 2
#     Edge 23, Type (0, 1), BuildingBlock: XUDNAN_clean_linker_2, # of connection points: 2
#     Edge 24, Type (0, 1), BuildingBlock: XUDNAN_clean_linker_2, # of connection points: 2
#     Edge 25, Type (0, 1), BuildingBlock: XUDNAN_clean_linker_2, # of connection points: 2
#     Edge 26, Type (0, 1), BuildingBlock: XUDNAN_clean_linker_2, # of connection points: 2
# Relax obj value: 0.152
# Max RMSD: 0.183
# Mean RMSD: 0.112
data_MOF--net-anh--node1-BETFEN_clean_sbu_0--node2-BETDAH_clean_linker_0--edge1-XUDNAN_clean_linker_2
_symmetry_space_group_name_H-M    P1
_symmetry_Int_Tables_number       1
_symmetry_cell_setting            triclinic
loop_
_symmetry_equiv_pos_as_xyz
'x, y, z'
_cell_length_a     30.186624
_cell_length_b     30.965003
_cell_length_c     49.197197
_cell_angle_alpha  91.55548
_cell_angle_beta   95.833149
_cell_angle_gamma 102.66399
loop_
_atom_site_label
_atom_site_type_symbol
_atom_site_fract_x
_atom_site_fract_y
_atom_site_fract_z
_atom_type_partial_charge
Pr0 Pr 1.02222 0.56867 0.15571 0.0
Pr1 Pr 1.03254 0.66781 0.15248 0.0
C2 C 0.99975 0.4836 0.16963 0.0
C3 C 0.96115 0.45465 0.18079 0.0
C4 C 0.93022 0.47262 0.19448 0.0
C5 C 0.89292 0.44474 0.20435 0.0
C6 C 0.88589 0.3984 0.20068 0.0
C7 C 0.91735 0.38066 0.18717 0.0
C8 C 0.9546 0.40858 0.1773 0.0
C9 C 1.02018 0.59795 0.10246 0.0
C10 C 0.92972 0.6118 0.153 0.0
C11 C 0.05705 0.75425 0.14235 0.0
C12 C 0.09936 0.78869 0.14881 0.0
C13 C 0.12583 0.7909 0.17423 0.0
C14 C 0.16735 0.82189 0.17955 0.0
C15 C 0.18348 0.85084 0.15943 0.0
C16 C 0.15679 0.84871 0.13407 0.0
C17 C 0.11502 0.81796 0.12884 0.0
C18 C 1.03147 0.63865 0.20533 0.0
C19 C 0.12538 0.62364 0.15071 0.0
O20 O 1.02444 0.51564 0.18617 0.0
O21 O 0.9917 0.49592 0.14476 0.0
O22 O 1.00034 0.61111 0.12133 0.0
O23 O 0.04062 0.56678 0.11028 0.0
O24 O 0.95357 0.64655 0.142 0.0
O25 O 0.95007 0.58157 0.16387 0.0
O26 O 0.05916 0.72257 0.12472 0.0
O27 O 0.0348 0.73982 0.16297 0.0
O28 O 0.05368 0.62567 0.18753 0.0
O29 O 1.00988 0.66817 0.19639 0.0
O30 O 0.1015 0.58514 0.15728 0.0
O31 O 0.10627 0.65777 0.14644 0.0
H32 H 0.93472 0.50819 0.19734 0.0
H33 H 0.86906 0.45953 0.21432 0.0
H34 H 0.91327 0.34515 0.1843 0.0
H35 H 0.97822 0.39417 0.16683 0.0
H36 H 0.11485 0.76817 0.18984 0.0
H37 H 0.18746 0.82234 0.19913 0.0
H38 H 0.16825 0.87082 0.11825 0.0
H39 H 0.09527 0.81656 0.10905 0.0
Pr40 Pr 0.60832 0.0856 0.51234 0.0
Pr41 Pr 0.51392 0.07299 0.5255 0.0
C42 C 0.68717 0.11288 0.48988 0.0
C43 C 0.71635 0.15532 0.48324 0.0
C44 C 0.69724 0.1901 0.47331 0.0
C45 C 0.72539 0.22998 0.46694 0.0
C46 C 0.77326 0.23601 0.47048 0.0
C47 C 0.79222 0.20122 0.48068 0.0
C48 C 0.76402 0.16129 0.48695 0.0
C49 C 0.60448 0.08475 0.56845 0.0
C50 C 0.56385 0.17664 0.52246 0.0
C51 C 0.42987 1.04382 0.54111 0.0
C52 C 0.39174 1.0054 0.5327 0.0
C53 C 0.38044 0.99056 0.50507 0.0
C54 C 0.34457 0.95384 0.4974 0.0
C55 C 0.31941 0.93087 0.51719 0.0
C56 C 0.33138 0.94556 0.54488 0.0
C57 C 0.36705 0.98246 0.55251 0.0
C58 C 0.5222 0.07092 0.46932 0.0
C59 C 0.56088 0.98255 0.52393 0.0
O60 O 0.64724 0.10039 0.47553 0.0
O61 O 0.68586 0.10527 0.5158 0.0
O62 O 0.58107 0.10493 0.55251 0.0
O63 O 0.62958 1.06413 0.55533 0.0
O64 O 0.53195 0.15052 0.53468 0.0
O65 O 0.59283 0.1587 0.50972 0.0
O66 O 0.46659 1.03505 0.5541 0.0
O67 O 0.43898 0.07407 0.52322 0.0
O68 O 0.54256 1.0513 0.48688 0.0
O69 O 0.4957 0.09228 0.48039 0.0
O70 O 0.5946 1.00658 0.51182 0.0
O71 O 0.52952 1.00178 0.53279 0.0
H72 H 0.66053 0.18646 0.47043 0.0
H73 H 0.70965 0.25629 0.45952 0.0
H74 H 0.82889 0.20456 0.4834 0.0
H75 H 0.77948 0.13492 0.4946 0.0
H76 H 0.39928 1.00738 0.48936 0.0
H77 H 0.33617 0.94393 0.47589 0.0
H78 H 0.31351 0.92828 0.5608 0.0
H79 H 0.37552 0.99296 0.57395 0.0
Pr80 Pr 0.46785 0.54591 0.83411 0.0
Pr81 Pr 0.48626 0.65211 0.83231 0.0
C82 C 0.47458 0.46117 0.83047 0.0
C83 C 0.51641 0.44404 0.83272 0.0
C84 C 0.51734 0.40355 0.81969 0.0
C85 C 0.55836 0.38933 0.82054 0.0
C86 C 0.59897 0.41587 0.83404 0.0
C87 C 0.59776 0.45611 0.8473 0.0
C88 C 0.55674 0.46982 0.8469 0.0
C89 C 0.47279 0.59233 0.88415 0.0
C90 C 0.57539 0.60619 0.83161 0.0
C91 C 0.50601 0.73949 0.84526 0.0
C92 C 0.54084 0.77626 0.83708 0.0
C93 C 0.55988 0.77257 0.8125 0.0
C94 C 0.59622 0.80553 0.80596 0.0
C95 C 0.61447 0.84257 0.82402 0.0
C96 C 0.59481 0.84637 0.84848 0.0
C97 C 0.55829 0.81342 0.85496 0.0
C98 C 0.47964 0.61406 0.77892 0.0
C99 C 0.3793 0.58951 0.83091 0.0
O100 O 0.46792 0.48355 0.80878 0.0
O101 O 0.46666 0.48017 0.85297 0.0
O102 O 0.49811 0.60379 0.86552 0.0
O103 O 0.44403 0.55489 0.87739 0.0
O104 O 0.56229 0.64408 0.83404 0.0
O105 O 0.54634 0.56728 0.83015 0.0
O106 O 0.47354 0.72066 0.82615 0.0
O107 O 0.522 0.71106 0.86038 0.0
O108 O 0.47501 0.59489 0.80095 0.0
O109 O 0.48724 0.65655 0.78406 0.0
O110 O 0.39392 0.55467 0.82241 0.0
O111 O 0.40802 0.62769 0.83935 0.0
H112 H 0.48663 0.38334 0.80858 0.0
H113 H 0.55866 0.35826 0.80997 0.0
H114 H 0.62853 0.47694 0.85798 0.0
H115 H 0.55671 0.5009 0.85749 0.0
H116 H 0.54722 0.74377 0.79859 0.0
H117 H 0.61012 0.80188 0.7868 0.0
H118 H 0.60846 0.87418 0.863 0.0
H119 H 0.54443 0.81639 0.87422 0.0
H120 H 0.45882 1.03792 0.26827 0.0
H121 H 0.5746 0.14663 0.26646 0.0
H122 H 0.48681 0.09948 0.19247 0.0
C123 C 0.47907 1.06293 0.25685 0.0
C124 C 0.4681 1.06435 0.22848 0.0
C125 C 0.51728 0.09258 0.27055 0.0
C126 C 0.54501 0.12397 0.25583 0.0
C127 C 0.5337 0.12639 0.22754 0.0
C128 C 0.4953 0.09688 0.21421 0.0
N129 N 0.55962 0.15796 0.21158 0.0
C130 C 0.60141 0.18612 0.22054 0.0
H131 H 0.53907 0.47408 0.59196 0.0
H132 H 0.55212 0.61468 0.58467 0.0
H133 H 0.57125 0.53346 0.51637 0.0
C134 C 0.54547 0.50293 0.57984 0.0
C135 C 0.55559 0.49756 0.55282 0.0
C136 C 0.54478 0.54478 0.59189 0.0
C137 C 0.5521 0.58234 0.57576 0.0
C138 C 0.56117 0.57868 0.54837 0.0
C139 C 0.56357 0.53623 0.53728 0.0
N140 N 0.5693 0.61671 0.53167 0.0
C141 C 0.565 0.66054 0.53778 0.0
H142 H 0.89302 0.62526 0.90729 0.0
H143 H 1.03169 0.62228 0.89534 0.0
H144 H 0.92968 0.60929 0.82601 0.0
C145 C 0.91854 0.62315 0.89361 0.0
C146 C 0.90542 0.61687 0.86533 0.0
C147 C 0.96388 0.62504 0.90462 0.0
C148 C 0.99668 0.62044 0.88697 0.0
C149 C 0.98443 0.6152 0.85848 0.0
C150 C 0.93891 0.61338 0.84795 0.0
N151 N 1.01677 0.61275 0.83963 0.0
C152 C 0.06083 0.60607 0.846 0.0
H153 H 0.10534 0.67696 0.40283 0.0
H154 H 1.02378 0.54596 0.4111 0.0
H155 H 0.08975 0.62589 0.48262 0.0
C156 C 0.09215 0.65012 0.41555 0.0
C157 C 0.10108 0.65632 0.44418 0.0
C158 C 0.06382 0.61051 0.4034 0.0
C159 C 0.04529 0.57661 0.42027 0.0
C160 C 0.05486 0.58213 0.44888 0.0
C161 C 0.08278 0.62179 0.46053 0.0
N162 N 0.03688 0.5489 0.4667 0.0
C163 C 1.00266 0.51129 0.45895 0.0
H164 H 0.75037 0.2515 0.75242 0.0
H165 H 0.80056 0.13178 0.74852 0.0
H166 H 0.8563 0.23178 0.81257 0.0
C167 C 0.77365 0.23129 0.75995 0.0
C168 C 0.80354 0.24617 0.78364 0.0
C169 C 0.77171 0.18985 0.74704 0.0
C170 C 0.80207 0.16433 0.75769 0.0
C171 C 0.83353 0.17997 0.78088 0.0
C172 C 0.83421 0.22102 0.79373 0.0
N173 N 0.86152 0.15293 0.79305 0.0
C174 C 0.84379 0.10806 0.79523 0.0
H175 H 0.61721 0.62334 0.07821 0.0
H176 H 0.47789 0.61877 0.09196 0.0
H177 H 0.57341 0.59462 0.15763 0.0
C178 C 0.59099 0.61954 0.09203 0.0
C179 C 0.60129 0.60911 0.11923 0.0
C180 C 0.54664 0.62297 0.08202 0.0
C181 C 0.51208 0.61617 0.09962 0.0
C182 C 0.5218 0.60599 0.12699 0.0
C183 C 0.56622 0.60231 0.13651 0.0
N184 N 0.48788 0.59875 0.14549 0.0
C185 C 0.44425 0.60682 0.14029 0.0
H186 H 0.17961 0.563 0.15976 0.0
H187 H 0.18303 0.69644 0.13357 0.0
H188 H 0.2641 0.70538 0.1265 0.0
H189 H 0.29211 0.58752 0.19668 0.0
H190 H 0.30455 0.53531 0.18685 0.0
H191 H 0.24639 0.53901 0.18938 0.0
H192 H 0.2238 0.50742 0.13936 0.0
H193 H 0.28197 0.50385 0.13663 0.0
H194 H 0.25383 0.5345 0.11244 0.0
H195 H 0.34526 0.70023 0.12223 0.0
H196 H 0.42141 0.68191 0.1232 0.0
H197 H 0.36605 0.55267 0.15252 0.0
C198 C 0.19734 0.59411 0.15253 0.0
C199 C 0.17465 0.62895 0.14719 0.0
C200 C 0.19939 0.66917 0.13784 0.0
C201 C 0.24555 0.67459 0.13367 0.0
C202 C 0.26677 0.63957 0.13897 0.0
C203 C 0.24359 0.60019 0.14834 0.0
C204 C 0.27475 0.5681 0.15302 0.0
C205 C 0.27975 0.55684 0.18328 0.0
C206 C 0.25755 0.52598 0.13424 0.0
C207 C 0.31905 0.59564 0.1449 0.0
C208 C 0.31363 0.6367 0.13671 0.0
C209 C 0.34986 0.66814 0.12854 0.0
C210 C 0.39286 0.65751 0.12907 0.0
C211 C 0.39908 0.61595 0.13772 0.0
C212 C 0.36178 0.58456 0.14558 0.0
H213 H 0.85295 0.28284 0.49936 0.0
H214 H 0.76151 0.28496 0.42565 0.0
H215 H 0.81124 0.35503 0.41393 0.0
H216 H 0.87918 0.39961 0.51556 0.0
H217 H 0.938 0.40211 0.528 0.0
H218 H 0.89547 0.35189 0.53024 0.0
H219 H 0.94246 0.30803 0.50349 0.0
H220 H 0.98511 0.35816 0.50111 0.0
H221 H 0.95822 0.32569 0.4705 0.0
H222 H 0.8714 0.42566 0.41039 0.0
H223 H 0.93597 0.49179 0.41632 0.0
H224 H 0.98769 0.44287 0.49199 0.0
C225 C 0.84357 0.29777 0.4806 0.0
C226 C 0.80327 0.27828 0.46341 0.0
C227 C 0.79191 0.29944 0.43931 0.0
C228 C 0.82011 0.33912 0.43238 0.0
C229 C 0.8596 0.35737 0.44977 0.0
C230 C 0.87124 0.33742 0.47343 0.0
C231 C 0.91499 0.36419 0.48895 0.0
C232 C 0.90637 0.38041 0.51737 0.0
C233 C 0.9524 0.33741 0.49113 0.0
C234 C 0.92622 0.40232 0.47035 0.0
C235 C 0.89396 0.3978 0.44778 0.0
C236 C 0.8969 0.42942 0.42792 0.0
C237 C 0.93358 0.46672 0.43137 0.0
C238 C 0.96651 0.47181 0.45444 0.0
C239 C 0.96292 0.43926 0.47405 0.0
H240 H 0.62895 0.93278 0.8321 0.0
H241 H 0.69037 0.82942 0.80153 0.0
H242 H 0.7567 0.88626 0.79088 0.0
H243 H 0.6651 1.01225 0.78308 0.0
H244 H 0.67591 1.05905 0.80732 0.0
H245 H 0.63327 1.01011 0.81229 0.0
H246 H 0.67393 1.00435 0.86065 0.0
H247 H 0.71673 1.05326 0.85582 0.0
H248 H 0.73352 1.00252 0.86448 0.0
H249 H 0.81656 0.95497 0.78346 0.0
H250 H 0.86451 1.03051 0.77986 0.0
H251 H 0.76423 0.08746 0.81627 0.0
C252 C 0.65649 0.922 0.82339 0.0
C253 C 0.65437 0.87665 0.81759 0.0
C254 C 0.6909 0.86404 0.80579 0.0
C255 C 0.72887 0.89603 0.79984 0.0
C256 C 0.72985 0.94045 0.80588 0.0
C257 C 0.69461 0.9534 0.81741 0.0
C258 C 0.70381 1.00319 0.82193 0.0
C259 C 0.66736 1.02225 0.80514 0.0
C260 C 0.70721 1.0166 0.85254 0.0
C261 C 0.74967 1.01628 0.81106 0.0
C262 C 0.76427 0.9797 0.8019 0.0
C263 C 0.80559 0.98383 0.79068 0.0
C264 C 0.83256 1.02658 0.78875 0.0
C265 C 0.8178 1.06401 0.79804 0.0
C266 C 0.7761 1.0589 0.8093 0.0
H267 H 0.8743 0.66135 0.12704 0.0
H268 H 0.87103 0.54826 0.1777 0.0
H269 H 0.78724 0.53677 0.17593 0.0
H270 H 0.78441 0.70207 0.15607 0.0
H271 H 0.76128 0.71823 0.12367 0.0
H272 H 0.82121 0.71849 0.12975 0.0
H273 H 0.81403 0.66667 0.08652 0.0
H274 H 0.7541 0.66618 0.08033 0.0
H275 H 0.77241 0.61472 0.08333 0.0
H276 H 0.70309 0.5364 0.16759 0.0
H277 H 0.62551 0.54643 0.15271 0.0
H278 H 0.68374 0.66018 0.1079 0.0
C279 C 0.85607 0.63436 0.13796 0.0
C280 C 0.87944 0.60578 0.15258 0.0
C281 C 0.85406 0.57064 0.16636 0.0
C282 C 0.80638 0.56386 0.16552 0.0
C283 C 0.78442 0.59247 0.1508 0.0
C284 C 0.80844 0.62702 0.13727 0.0
C285 C 0.77654 0.6523 0.12231 0.0
C286 C 0.78646 0.70064 0.13364 0.0
C287 C 0.77945 0.6498 0.09128 0.0
C288 C 0.73079 0.62642 0.12939 0.0
C289 C 0.73607 0.59217 0.14594 0.0
C290 C 0.6986 0.56332 0.15478 0.0
C291 C 0.65462 0.56948 0.14635 0.0
C292 C 0.64828 0.60417 0.12917 0.0
C293 C 0.68719 0.63308 0.12082 0.0
H294 H 0.31234 0.86528 0.4765 0.0
H295 H 0.23788 0.90865 0.5392 0.0
H296 H 0.17432 0.8441 0.5268 0.0
H297 H 0.21294 0.82641 0.42637 0.0
H298 H 0.2335 0.77995 0.41395 0.0
H299 H 0.27349 0.8297 0.42765 0.0
H300 H 0.31184 0.7838 0.46225 0.0
H301 H 0.27197 0.73395 0.44869 0.0
H302 H 0.27752 0.7492 0.4847 0.0
H303 H 0.11965 0.77407 0.50872 0.0
H304 H 0.07653 0.70365 0.48532 0.0
H305 H 0.18419 0.70648 0.43287 0.0
C306 C 0.28249 0.86161 0.48744 0.0
C307 C 0.28054 0.89215 0.50905 0.0
C308 C 0.24088 0.88545 0.52299 0.0
C309 C 0.20432 0.84901 0.51594 0.0
C310 C 0.20754 0.81956 0.49471 0.0
C311 C 0.24544 0.82551 0.48053 0.0
C312 C 0.24016 0.78869 0.4586 0.0
C313 C 0.24001 0.80731 0.42995 0.0
C314 C 0.2776 0.76235 0.46389 0.0
C315 C 0.19354 0.76093 0.46287 0.0
C316 C 0.17543 0.77941 0.48385 0.0
C317 C 0.13339 0.75938 0.4922 0.0
C318 C 0.10926 0.71928 0.47887 0.0
C319 C 0.12703 0.69954 0.45734 0.0
C320 C 0.16959 0.72099 0.4491 0.0
H321 H 0.61724 0.33615 0.84686 0.0
H322 H 0.67858 0.46489 0.81915 0.0
H323 H 0.74886 0.43912 0.81251 0.0
H324 H 0.7276 0.31188 0.88092 0.0
H325 H 0.70887 0.25405 0.87019 0.0
H326 H 0.66771 0.28553 0.87807 0.0
H327 H 0.62296 0.26317 0.83006 0.0
H328 H 0.66359 0.23152 0.82226 0.0
H329 H 0.65256 0.27425 0.80008 0.0
H330 H 0.80324 0.39439 0.79872 0.0
H331 H 0.83758 0.3352 0.78071 0.0
H332 H 0.74451 0.23751 0.82089 0.0
C333 C 0.64603 0.35912 0.84008 0.0
C334 C 0.64279 0.40232 0.83344 0.0
C335 C 0.68079 0.4317 0.82451 0.0
C336 C 0.72081 0.41738 0.82079 0.0
C337 C 0.72255 0.37398 0.82677 0.0
C338 C 0.68638 0.34553 0.8367 0.0
C339 C 0.69456 0.29927 0.83876 0.0
C340 C 0.70002 0.28698 0.86878 0.0
C341 C 0.65618 0.2651 0.82177 0.0
C342 C 0.73934 0.30525 0.82653 0.0
C343 C 0.75551 0.34874 0.82016 0.0
C344 C 0.79215 0.36064 0.80461 0.0
C345 C 0.81159 0.32703 0.79454 0.0
C346 C 0.79448 0.2825 0.80039 0.0
C347 C 0.75928 0.27181 0.81737 0.0
H348 H 0.61431 0.92315 0.50752 0.0
H349 H 0.49749 0.92879 0.55114 0.0
H350 H 0.48775 0.84985 0.55995 0.0
H351 H 0.56762 0.81261 0.47564 0.0
H352 H 0.62136 0.7958 0.47883 0.0
H353 H 0.62041 0.85351 0.47605 0.0
H354 H 0.67425 0.87276 0.52111 0.0
H355 H 0.67527 0.81508 0.52407 0.0
H356 H 0.65832 0.84517 0.55162 0.0
H357 H 0.4894 0.76866 0.56462 0.0
H358 H 0.50178 0.69211 0.56313 0.0
H359 H 0.61624 0.73493 0.51636 0.0
C360 C 0.58673 0.90786 0.51897 0.0
C361 C 0.55682 0.93337 0.52859 0.0
C362 C 0.52117 0.91109 0.5434 0.0
C363 C 0.51523 0.86576 0.54862 0.0
C364 C 0.54501 0.84178 0.539 0.0
C365 C 0.58005 0.86191 0.52437 0.0
C366 C 0.60668 0.82772 0.5161 0.0
C367 C 0.60384 0.82208 0.48479 0.0
C368 C 0.6566 0.84098 0.52899 0.0
C369 C 0.58111 0.78555 0.52826 0.0
C370 C 0.54573 0.79466 0.54151 0.0
C371 C 0.5171 0.76134 0.55431 0.0
C372 C 0.52441 0.71777 0.55344 0.0
C373 C 0.56007 0.70716 0.53986 0.0
C374 C 0.58884 0.74184 0.52714 0.0
H375 H 0.65215 0.66246 0.85891 0.0
H376 H 0.60877 0.54757 0.80226 0.0
H377 H 0.68879 0.54124 0.8023 0.0
H378 H 0.7624 0.708 0.83281 0.0
H379 H 0.79189 0.72442 0.86647 0.0
H380 H 0.73174 0.72303 0.85986 0.0
H381 H 0.71561 0.67055 0.89955 0.0
H382 H 0.77562 0.67162 0.9062 0.0
H383 H 0.73491 0.61942 0.89951 0.0
H384 H 0.77274 0.54425 0.81031 0.0
H385 H 0.85481 0.55571 0.82658 0.0
H386 H 0.84478 0.6667 0.87959 0.0
C387 C 0.65974 0.63658 0.84613 0.0
C388 C 0.62425 0.60583 0.83031 0.0
C389 C 0.63538 0.57162 0.81444 0.0
C390 C 0.68077 0.56771 0.81433 0.0
C391 C 0.71489 0.59788 0.83051 0.0
C392 C 0.70505 0.63162 0.8462 0.0
C393 C 0.74796 0.65767 0.86316 0.0
C394 C 0.75915 0.70616 0.85509 0.0
C395 C 0.74322 0.65462 0.89393 0.0
C396 C 0.78319 0.63307 0.85471 0.0
C397 C 0.76341 0.59901 0.83562 0.0
C398 C 0.78871 0.57109 0.82507 0.0
C399 C 0.83542 0.57799 0.83435 0.0
C400 C 0.85648 0.61221 0.85427 0.0
C401 C 0.82978 0.64018 0.86441 0.0
H402 H 0.21839 0.90481 0.20534 0.0
H403 H 0.25072 0.86707 0.12537 0.0
H404 H 0.32689 0.91758 0.13433 0.0
H405 H 0.27532 1.02021 0.20539 0.0
H406 H 0.29526 1.02416 0.24136 0.0
H407 H 0.24329 0.98512 0.2286 0.0
H408 H 0.27571 0.9213 0.24994 0.0
H409 H 0.32784 0.96012 0.26269 0.0
H410 H 0.32979 0.91263 0.24121 0.0
H411 H 0.40012 0.97017 0.15252 0.0
H412 H 0.46457 1.02375 0.1778 0.0
H413 H 0.38362 1.02959 0.2454 0.0
C414 C 0.24158 0.90712 0.18976 0.0
C415 C 0.22868 0.8821 0.16463 0.0
C416 C 0.25975 0.88634 0.14462 0.0
C417 C 0.30313 0.91472 0.14959 0.0
C418 C 0.31482 0.93879 0.1746 0.0
C419 C 0.28489 0.93553 0.1943 0.0
C420 C 0.30578 0.96543 0.21934 0.0
C421 C 0.27827 1.00083 0.22393 0.0
C422 C 0.31003 0.93824 0.2448 0.0
C423 C 0.35223 0.98584 0.2107 0.0
C424 C 0.35676 0.96988 0.18487 0.0
C425 C 0.39681 0.98327 0.17264 0.0
C426 C 0.43314 1.01401 0.18713 0.0
C427 C 0.42918 1.03142 0.21353 0.0
C428 C 0.38803 1.01684 0.22538 0.0
H429 H 0.513 0.22825 0.54844 0.0
H430 H 0.62402 0.23959 0.49773 0.0
H431 H 0.63182 0.32067 0.4981 0.0
H432 H 0.46304 0.315 0.51753 0.0
H433 H 0.44862 0.33523 0.54943 0.0
H434 H 0.451 0.27788 0.54479 0.0
H435 H 0.50911 0.28581 0.58806 0.0
H436 H 0.50681 0.34313 0.59285 0.0
H437 H 0.56091 0.32845 0.59047 0.0
H438 H 0.62822 0.40322 0.50454 0.0
H439 H 0.61565 0.47681 0.51793 0.0
H440 H 0.50619 0.41283 0.56386 0.0
C441 C 0.53891 0.24766 0.53731 0.0
C442 C 0.56781 0.22656 0.52296 0.0
C443 C 0.60125 0.25405 0.50888 0.0
C444 C 0.60596 0.30055 0.50894 0.0
C445 C 0.57705 0.32014 0.52321 0.0
C446 C 0.54417 0.29446 0.5372 0.0
C447 C 0.51795 0.32391 0.55134 0.0
C448 C 0.46713 0.3123 0.5401 0.0
C449 C 0.52406 0.32009 0.58253 0.0
C450 C 0.54128 0.37004 0.54332 0.0
C451 C 0.57516 0.36718 0.52696 0.0
C452 C 0.60159 0.40552 0.5173 0.0
C453 C 0.59387 0.44754 0.52487 0.0
C454 C 0.55998 0.45186 0.54217 0.0
C455 C 0.533 0.41181 0.55101 0.0
H456 H 0.33109 0.6543 0.84026 0.0
H457 H 0.31411 0.51216 0.82658 0.0
H458 H 0.23228 0.50144 0.83178 0.0
H459 H 0.25068 0.64991 0.89063 0.0
H460 H 0.22871 0.69603 0.87795 0.0
H461 H 0.28667 0.69311 0.87391 0.0
H462 H 0.27099 0.69931 0.82159 0.0
H463 H 0.21314 0.70265 0.82549 0.0
H464 H 0.22392 0.66066 0.80256 0.0
H465 H 0.15209 0.50531 0.83848 0.0
H466 H 0.07758 0.52461 0.84258 0.0
H467 H 0.14429 0.66397 0.85071 0.0
C468 C 0.31018 0.62093 0.83837 0.0
C469 C 0.32942 0.5841 0.83302 0.0
C470 C 0.30053 0.54103 0.83055 0.0
C471 C 0.25387 0.5345 0.83363 0.0
C472 C 0.23611 0.57132 0.83905 0.0
C473 C 0.26317 0.61377 0.84113 0.0
C474 C 0.23485 0.64767 0.84605 0.0
C475 C 0.25121 0.67319 0.87379 0.0
C476 C 0.23578 0.67944 0.82252 0.0
C477 C 0.18772 0.61763 0.84627 0.0
C478 C 0.18945 0.57365 0.84249 0.0
C479 C 0.15035 0.53961 0.84155 0.0
C480 C 0.10826 0.5508 0.84403 0.0
C481 C 0.10552 0.59555 0.84731 0.0
C482 C 0.14575 0.6294 0.84866 0.0
H483 H 0.83087 0.32411 0.17378 0.0
H484 H 0.84856 0.40579 0.24888 0.0
H485 H 0.77943 0.35757 0.26369 0.0
H486 H 0.71093 0.30474 0.16301 0.0
H487 H 0.70301 0.24836 0.14982 0.0
H488 H 0.75508 0.28797 0.14602 0.0
H489 H 0.80213 0.23652 0.17018 0.0
H490 H 0.75013 0.1967 0.17408 0.0
H491 H 0.79011 0.21805 0.20364 0.0
H492 H 0.70588 0.30164 0.26928 0.0
H493 H 0.63363 0.24372 0.26435 0.0
H494 H 0.66584 0.1989 0.18612 0.0
C495 C 0.82077 0.33146 0.19358 0.0
C496 C 0.84529 0.36868 0.21021 0.0
C497 C 0.83013 0.37769 0.23567 0.0
C498 C 0.79109 0.3503 0.24435 0.0
C499 C 0.76766 0.31397 0.22738 0.0
C500 C 0.78202 0.30454 0.20253 0.0
C501 C 0.74996 0.26465 0.18752 0.0
C502 C 0.72848 0.2772 0.15997 0.0
C503 C 0.77456 0.22674 0.18364 0.0
C504 C 0.71491 0.25337 0.20761 0.0
C505 C 0.72576 0.28195 0.2306 0.0
C506 C 0.69732 0.27883 0.2515 0.0
C507 C 0.65655 0.24596 0.24861 0.0
C508 C 0.64501 0.21701 0.22506 0.0
C509 C 0.67459 0.22048 0.2045 0.0
H510 H 0.04225 0.56048 0.05559 0.0
H511 H 0.98488 0.66721 0.08538 0.0
H512 H 0.97083 0.68951 0.03814 0.0
H513 H 0.09615 0.61955 -0.00121 0.0
H514 H 0.08213 0.57077 0.976 0.0
H515 H 0.09195 0.5655 0.0124 0.0
H516 H 1.01256 0.51216 0.01137 0.0
H517 H 1.00252 0.51724 0.97503 0.0
H518 H 0.9624 0.52981 0.99711 0.0
H519 H 0.95739 0.69698 0.98808 0.0
H520 H 0.94443 0.6886 0.9377 0.0
H521 H 1.00985 0.57704 0.93927 0.0
C522 C 1.02745 0.58897 0.05213 0.0
C523 C 1.01481 0.61227 0.07413 0.0
C524 C 0.99488 0.64896 0.06883 0.0
C525 C 0.98689 0.66197 0.04207 0.0
C526 C 0.99906 0.63801 0.02078 0.0
C527 C 1.01896 0.60232 0.02541 0.0
C528 C 1.02602 0.58067 -0.00141 0.0
C529 C 0.07711 0.58435 0.99632 0.0
C530 C 0.99927 0.5321 0.99534 0.0
C531 C 1.00605 0.60919 0.97824 0.0
C532 C 0.99112 0.6423 0.99157 0.0
C533 C 0.96933 0.67149 0.97738 0.0
C534 C 0.96197 0.66638 0.9488 0.0
C535 C 0.97626 0.63231 0.93464 0.0
C536 C 0.99928 0.60382 0.94958 0.0
H537 H 0.47342 0.10292 0.42754 0.0
H538 H 0.58543 1.03726 0.44488 0.0
H539 H 0.59938 1.03978 0.39626 0.0
H540 H 0.43088 1.04329 0.36296 0.0
H541 H 0.41401 0.08987 0.34713 0.0
H542 H 0.41463 0.08509 0.38355 0.0
H543 H 0.46838 0.16309 0.39142 0.0
H544 H 0.46818 0.16796 0.355 0.0
H545 H 0.52155 0.17446 0.37644 0.0
H546 H 0.60222 1.05106 0.34584 0.0
H547 H 0.58787 1.06249 0.29627 0.0
H548 H 0.47048 0.11519 0.3112 0.0
C549 C 0.50095 0.0892 0.42108 0.0
C550 C 0.52893 0.07064 0.44001 0.0
C551 C 0.56408 1.05228 0.43076 0.0
C552 C 0.57226 1.05357 0.4032 0.0
C553 C 0.54442 0.07258 0.38508 0.0
C554 C 0.50898 0.0894 0.39353 0.0
C555 C 0.48247 0.10574 0.36965 0.0
C556 C 0.43255 0.07942 0.36559 0.0
C557 C 0.48534 0.15579 0.37336 0.0
C558 C 0.50856 0.09554 0.34646 0.0
C559 C 0.54462 0.07704 0.35584 0.0
C560 C 0.57399 1.06535 0.33824 0.0
C561 C 0.5658 0.07208 0.31025 0.0
C562 C 0.52826 0.0897 0.30024 0.0
C563 C 0.49947 0.10174 0.31856 0.0
H564 H 0.46599 0.64409 0.7276 0.0
H565 H 0.51139 0.53915 0.77129 0.0
H566 H 0.53284 0.51029 0.7283 0.0
H567 H 0.41738 0.57527 0.66465 0.0
H568 H 0.43415 0.62019 0.64262 0.0
H569 H 0.42127 0.63163 0.67669 0.0
H570 H 0.5008 0.68485 0.68697 0.0
H571 H 0.51416 0.6731 0.65308 0.0
H572 H 0.55138 0.66462 0.68253 0.0
H573 H 0.55726 0.4984 0.68189 0.0
H574 H 0.57266 0.49629 0.63402 0.0
H575 H 0.50287 0.6035 0.61835 0.0
C576 C 0.47976 0.6146 0.72794 0.0
C577 C 0.48682 0.59358 0.75268 0.0
C578 C 0.50508 0.55526 0.75248 0.0
C579 C 0.51771 0.5389 0.7282 0.0
C580 C 0.51101 0.56078 0.7042 0.0
C581 C 0.49152 0.5972 0.70372 0.0
C582 C 0.48743 0.61407 0.67505 0.0
C583 C 0.43706 0.61003 0.66411 0.0
C584 C 0.5151 0.662 0.67439 0.0
C585 C 0.50853 0.58199 0.65959 0.0
C586 C 0.52234 0.55193 0.67693 0.0
C587 C 0.5453 0.52087 0.66794 0.0
C588 C 0.55346 0.51972 0.64042 0.0
C589 C 0.53771 0.54865 0.62163 0.0
C590 C 0.51531 0.58058 0.63173 0.0
H591 H 0.67952 0.07292 0.60001 0.0
H592 H 0.55881 0.12673 0.60267 0.0
H593 H 0.58537 0.1541 0.65076 0.0
H594 H 0.69251 1.04204 0.67141 0.0
H595 H 0.75389 1.05928 0.67403 0.0
H596 H 0.72194 1.03865 0.64159 0.0
H597 H 0.75932 0.11087 0.61954 0.0
H598 H 0.79118 0.13178 0.65186 0.0
H599 H 0.75499 0.16361 0.63416 0.0
H600 H 0.62773 0.17826 0.69786 0.0
H601 H 0.68346 0.20178 0.73849 0.0
H602 H 0.77973 0.13843 0.70199 0.0
C603 C 0.65801 0.08954 0.61085 0.0
C604 C 0.61679 0.09729 0.59782 0.0
C605 C 0.59028 0.12015 0.61248 0.0
C606 C 0.60508 0.13569 0.63973 0.0
C607 C 0.64656 0.12832 0.65176 0.0
C608 C 0.67268 0.10594 0.63768 0.0
C609 C 0.71798 0.10606 0.65399 0.0
C610 C 0.72178 1.05869 0.66065 0.0
C611 C 0.75822 0.12948 0.63899 0.0
C612 C 0.71377 0.13265 0.67941 0.0
C613 C 0.67203 0.14447 0.678 0.0
C614 C 0.6606 0.16941 0.69906 0.0
C615 C 0.69287 0.18309 0.72195 0.0
C616 C 0.73664 0.17275 0.72339 0.0
C617 C 0.74667 0.14668 0.70183 0.0
H618 H 0.43235 0.56081 0.92914 0.0
H619 H 0.54038 0.66356 0.90376 0.0
H620 H 0.56541 0.68842 0.95209 0.0
H621 H 0.40852 0.62354 0.98969 0.0
H622 H 0.39947 0.57494 0.00957 0.0
H623 H 0.38579 0.56958 0.97292 0.0
H624 H 0.43835 0.51414 0.9699 0.0
H625 H 0.45231 0.51945 0.00643 0.0
H626 H 0.49724 0.53043 0.98437 0.0
H627 H 0.58441 0.6962 0.00297 0.0
H628 H 0.59575 0.68665 0.05272 0.0
H629 H 0.47601 0.57827 0.04523 0.0
C630 C 0.46051 0.58929 0.93373 0.0
C631 C 0.4841 0.61067 0.91269 0.0
C632 C 0.5214 0.64717 0.91952 0.0
C633 C 0.53589 0.66148 0.94693 0.0
C634 C 0.51261 0.639 0.96725 0.0
C635 C 0.47553 0.60383 0.96099 0.0
C636 C 0.45901 0.58285 0.98668 0.0
C637 C 0.4103 0.58806 0.9899 0.0
C638 C 0.46193 0.53383 0.98684 0.0
C639 C 0.49343 0.61083 0.00833 0.0
C640 C 0.52373 0.64336 0.9967 0.0
C641 C 0.56048 0.67132 0.01234 0.0
C642 C 0.56678 0.66552 0.04053 0.0
C643 C 0.53658 0.63194 0.05281 0.0
C644 C 0.49902 0.60483 0.03649 0.0
H645 H 0.10197 0.6438 0.2458 0.0
H646 H 0.95524 0.60025 0.22739 0.0
H647 H 0.94851 0.58173 0.27564 0.0
H648 H 0.11799 0.56407 0.2994 0.0
H649 H 0.16024 0.60507 0.32031 0.0
H650 H 0.15435 0.60824 0.28363 0.0
H651 H 0.14287 0.68838 0.28903 0.0
H652 H 0.14827 0.68535 0.32566 0.0
H653 H 0.09808 0.6989 0.30812 0.0
H654 H 0.95684 0.57368 0.32612 0.0
H655 H 0.97899 0.57898 0.37597 0.0
H656 H 0.12022 0.63165 0.36269 0.0
C657 C 0.06873 0.62906 0.25191 0.0
C658 C 1.02913 0.6224 0.23304 0.0
C659 C 0.98588 0.60484 0.24169 0.0
C660 C 0.9818 0.59424 0.26897 0.0
C661 C 1.02131 0.60211 0.28738 0.0
C662 C 0.06398 0.61922 0.2793 0.0
C663 C 0.10027 0.62872 0.30374 0.0
C664 C 0.13528 0.59979 0.30164 0.0
C665 C 0.12374 0.67828 0.30681 0.0
C666 C 0.07121 0.6151 0.3268 0.0
C667 C 1.0259 0.59916 0.31683 0.0
C668 C 0.99229 0.58566 0.33416 0.0
C669 C 1.00523 0.58867 0.36245 0.0
C670 C 0.05135 0.60552 0.37325 0.0
C671 C 0.0847 0.61871 0.35506 0.0
loop_
_geom_bond_atom_site_label_1
_geom_bond_atom_site_label_2
_geom_bond_distance
_geom_bond_site_symmetry_2
_ccdc_geom_bond_type
Pr0 C2 2.880 . S
Pr0 O20 2.562 . S
Pr0 O21 2.490 . S
Pr0 O22 2.695 1_655 S
Pr0 O23 2.512 . S
Pr0 O25 2.437 . S
Pr0 O28 2.436 1_655 S
Pr0 O30 2.438 1_655 S
Pr1 C11 2.880 . S
Pr1 O22 2.436 . S
Pr1 O24 2.438 1_455 S
Pr1 O26 2.562 . S
Pr1 O27 2.490 . S
Pr1 O28 2.695 . S
Pr1 O29 2.512 . S
Pr1 O31 2.437 . S
C2 Pr0 2.880 . S
C2 C3 1.491 . S
C2 O20 1.254 . S
C2 O21 1.225 . S
C3 C2 1.491 . S
C3 C4 1.392 . S
C3 C8 1.356 . S
C4 C3 1.392 . S
C4 C5 1.368 . S
C4 H32 0.929 . S
C5 C4 1.368 . S
C5 C6 1.386 . S
C5 H33 0.929 . S
C6 C5 1.386 . S
C6 C7 1.373 . S
C7 C6 1.373 . S
C7 C8 1.409 . S
C7 H34 0.931 . S
C8 C3 1.356 . S
C8 C7 1.409 . S
C8 H35 0.930 . S
C9 O22 1.270 . S
C9 O23 1.248 1_455 S
C10 O24 1.267 . S
C10 O25 1.278 . S
C11 Pr1 2.880 . S
C11 C12 1.491 . S
C11 O26 1.254 . S
C11 O27 1.225 . S
C12 C11 1.491 . S
C12 C13 1.392 . S
C12 C17 1.356 . S
C13 C12 1.392 . S
C13 C14 1.368 . S
C13 H36 0.929 . S
C14 C13 1.368 . S
C14 C15 1.386 . S
C14 H37 0.929 . S
C15 C14 1.386 . S
C15 C16 1.373 . S
C16 C15 1.373 . S
C16 C17 1.409 . S
C16 H38 0.931 . S
C17 C12 1.356 . S
C17 C16 1.409 . S
C17 H39 0.930 . S
C18 O28 1.270 . S
C18 O29 1.248 . S
C19 O30 1.267 . S
C19 O31 1.278 . S
O20 Pr0 2.562 . S
O20 C2 1.254 . S
O21 Pr0 2.490 . S
O21 C2 1.225 . S
O22 Pr0 2.695 1_455 S
O22 Pr1 2.436 . S
O22 C9 1.270 . S
O23 Pr0 2.512 . S
O23 C9 1.248 1_655 S
O24 Pr1 2.438 1_655 S
O24 C10 1.267 . S
O25 Pr0 2.437 . S
O25 C10 1.278 . S
O26 Pr1 2.562 . S
O26 C11 1.254 . S
O27 Pr1 2.490 . S
O27 C11 1.225 . S
O28 Pr0 2.436 1_455 S
O28 Pr1 2.695 . S
O28 C18 1.270 . S
O29 Pr1 2.512 . S
O29 C18 1.248 . S
O30 Pr0 2.438 1_455 S
O30 C19 1.267 . S
O31 Pr1 2.437 . S
O31 C19 1.278 . S
H32 C4 0.929 . S
H33 C5 0.929 . S
H34 C7 0.931 . S
H35 C8 0.930 . S
H36 C13 0.929 . S
H37 C14 0.929 . S
H38 C16 0.931 . S
H39 C17 0.930 . S
Pr40 C42 2.880 . S
Pr40 O60 2.562 . S
Pr40 O61 2.490 . S
Pr40 O62 2.695 . S
Pr40 O63 2.512 . S
Pr40 O65 2.437 . S
Pr40 O68 2.436 . S
Pr40 O70 2.438 1_545 S
Pr41 C51 2.880 1_545 S
Pr41 O62 2.436 . S
Pr41 O64 2.438 . S
Pr41 O66 2.562 1_545 S
Pr41 O67 2.490 1_545 S
Pr41 O68 2.695 . S
Pr41 O69 2.512 . S
Pr41 O71 2.437 1_545 S
C42 Pr40 2.880 . S
C42 C43 1.491 . S
C42 O60 1.254 . S
C42 O61 1.225 . S
C43 C42 1.491 . S
C43 C44 1.392 . S
C43 C48 1.356 . S
C44 C43 1.392 . S
C44 C45 1.368 . S
C44 H72 0.929 . S
C45 C44 1.368 . S
C45 C46 1.386 . S
C45 H73 0.929 . S
C46 C45 1.386 . S
C46 C47 1.373 . S
C47 C46 1.373 . S
C47 C48 1.409 . S
C47 H74 0.931 . S
C48 C43 1.356 . S
C48 C47 1.409 . S
C48 H75 0.930 . S
C49 O62 1.270 . S
C49 O63 1.248 . S
C50 O64 1.267 . S
C50 O65 1.278 . S
C51 Pr41 2.880 1_565 S
C51 C52 1.491 . S
C51 O66 1.254 . S
C51 O67 1.225 . S
C52 C51 1.491 . S
C52 C53 1.392 . S
C52 C57 1.356 . S
C53 C52 1.392 . S
C53 C54 1.368 . S
C53 H76 0.929 . S
C54 C53 1.368 . S
C54 C55 1.386 . S
C54 H77 0.929 . S
C55 C54 1.386 . S
C55 C56 1.373 . S
C56 C55 1.373 . S
C56 C57 1.409 . S
C56 H78 0.931 . S
C57 C52 1.356 . S
C57 C56 1.409 . S
C57 H79 0.930 . S
C58 O68 1.270 . S
C58 O69 1.248 . S
C59 O70 1.267 . S
C59 O71 1.278 . S
O60 Pr40 2.562 . S
O60 C42 1.254 . S
O61 Pr40 2.490 . S
O61 C42 1.225 . S
O62 Pr40 2.695 . S
O62 Pr41 2.436 . S
O62 C49 1.270 . S
O63 Pr40 2.512 . S
O63 C49 1.248 . S
O64 Pr41 2.438 . S
O64 C50 1.267 . S
O65 Pr40 2.437 . S
O65 C50 1.278 . S
O66 Pr41 2.562 1_565 S
O66 C51 1.254 . S
O67 Pr41 2.490 1_565 S
O67 C51 1.225 . S
O68 Pr40 2.436 . S
O68 Pr41 2.695 . S
O68 C58 1.270 . S
O69 Pr41 2.512 . S
O69 C58 1.248 . S
O70 Pr40 2.438 1_565 S
O70 C59 1.267 . S
O71 Pr41 2.437 1_565 S
O71 C59 1.278 . S
H72 C44 0.929 . S
H73 C45 0.929 . S
H74 C47 0.931 . S
H75 C48 0.930 . S
H76 C53 0.929 . S
H77 C54 0.929 . S
H78 C56 0.931 . S
H79 C57 0.930 . S
Pr80 C82 2.880 . S
Pr80 O100 2.562 . S
Pr80 O101 2.490 . S
Pr80 O102 2.695 . S
Pr80 O103 2.512 . S
Pr80 O105 2.437 . S
Pr80 O108 2.436 . S
Pr80 O110 2.438 . S
Pr81 C91 2.880 . S
Pr81 O102 2.436 . S
Pr81 O104 2.438 . S
Pr81 O106 2.562 . S
Pr81 O107 2.490 . S
Pr81 O108 2.695 . S
Pr81 O109 2.512 . S
Pr81 O111 2.437 . S
C82 Pr80 2.880 . S
C82 C83 1.491 . S
C82 O100 1.254 . S
C82 O101 1.225 . S
C83 C82 1.491 . S
C83 C84 1.392 . S
C83 C88 1.356 . S
C84 C83 1.392 . S
C84 C85 1.368 . S
C84 H112 0.929 . S
C85 C84 1.368 . S
C85 C86 1.386 . S
C85 H113 0.929 . S
C86 C85 1.386 . S
C86 C87 1.373 . S
C87 C86 1.373 . S
C87 C88 1.409 . S
C87 H114 0.931 . S
C88 C83 1.356 . S
C88 C87 1.409 . S
C88 H115 0.930 . S
C89 O102 1.270 . S
C89 O103 1.248 . S
C90 O104 1.267 . S
C90 O105 1.278 . S
C91 Pr81 2.880 . S
C91 C92 1.491 . S
C91 O106 1.254 . S
C91 O107 1.225 . S
C92 C91 1.491 . S
C92 C93 1.392 . S
C92 C97 1.356 . S
C93 C92 1.392 . S
C93 C94 1.368 . S
C93 H116 0.929 . S
C94 C93 1.368 . S
C94 C95 1.386 . S
C94 H117 0.929 . S
C95 C94 1.386 . S
C95 C96 1.373 . S
C96 C95 1.373 . S
C96 C97 1.409 . S
C96 H118 0.931 . S
C97 C92 1.356 . S
C97 C96 1.409 . S
C97 H119 0.930 . S
C98 O108 1.270 . S
C98 O109 1.248 . S
C99 O110 1.267 . S
C99 O111 1.278 . S
O100 Pr80 2.562 . S
O100 C82 1.254 . S
O101 Pr80 2.490 . S
O101 C82 1.225 . S
O102 Pr80 2.695 . S
O102 Pr81 2.436 . S
O102 C89 1.270 . S
O103 Pr80 2.512 . S
O103 C89 1.248 . S
O104 Pr81 2.438 . S
O104 C90 1.267 . S
O105 Pr80 2.437 . S
O105 C90 1.278 . S
O106 Pr81 2.562 . S
O106 C91 1.254 . S
O107 Pr81 2.490 . S
O107 C91 1.225 . S
O108 Pr80 2.436 . S
O108 Pr81 2.695 . S
O108 C98 1.270 . S
O109 Pr81 2.512 . S
O109 C98 1.248 . S
O110 Pr80 2.438 . S
O110 C99 1.267 . S
O111 Pr81 2.437 . S
O111 C99 1.278 . S
H112 C84 0.929 . S
H113 C85 0.929 . S
H114 C87 0.931 . S
H115 C88 0.930 . S
H116 C93 0.929 . S
H117 C94 0.929 . S
H118 C96 0.931 . S
H119 C97 0.930 . S
H120 C123 0.929 . S
H121 C126 0.929 . S
H122 C128 0.930 . S
C123 H120 0.929 . S
C123 C124 1.398 . S
C123 C125 1.396 . S
C124 C123 1.398 . S
C124 C128 1.407 . S
C125 C123 1.396 . S
C125 C126 1.394 . S
C126 H121 0.929 . S
C126 C125 1.394 . S
C126 C127 1.382 . S
C127 C126 1.382 . S
C127 C128 1.392 . S
C127 N129 1.420 . S
C128 H122 0.930 . S
C128 C124 1.407 . S
C128 C127 1.392 . S
N129 C127 1.420 . S
N129 C130 1.244 . S
C130 N129 1.244 . S
H131 C134 0.929 . S
H132 C137 0.929 . S
H133 C139 0.930 . S
C134 H131 0.929 . S
C134 C135 1.398 . S
C134 C136 1.396 . S
C135 C134 1.398 . S
C135 C139 1.407 . S
C136 C134 1.396 . S
C136 C137 1.394 . S
C137 H132 0.929 . S
C137 C136 1.394 . S
C137 C138 1.382 . S
C138 C137 1.382 . S
C138 C139 1.392 . S
C138 N140 1.420 . S
C139 H133 0.930 . S
C139 C135 1.407 . S
C139 C138 1.392 . S
N140 C138 1.420 . S
N140 C141 1.244 . S
C141 N140 1.244 . S
H142 C145 0.929 . S
H143 C148 0.929 . S
H144 C150 0.930 . S
C145 H142 0.929 . S
C145 C146 1.398 . S
C145 C147 1.396 1_655 S
C146 C145 1.398 . S
C146 C150 1.407 1_655 S
C147 C145 1.396 1_455 S
C147 C148 1.394 . S
C148 H143 0.929 . S
C148 C147 1.394 . S
C148 C149 1.382 . S
C149 C148 1.382 . S
C149 C150 1.392 . S
C149 N151 1.420 . S
C150 H144 0.930 . S
C150 C146 1.407 1_455 S
C150 C149 1.392 . S
N151 C149 1.420 . S
N151 C152 1.244 . S
C152 N151 1.244 . S
H153 C156 0.929 . S
H154 C159 0.929 . S
H155 C161 0.930 . S
C156 H153 0.929 . S
C156 C157 1.398 . S
C156 C158 1.396 . S
C157 C156 1.398 . S
C157 C161 1.407 . S
C158 C156 1.396 . S
C158 C159 1.394 1_455 S
C159 H154 0.929 . S
C159 C158 1.394 1_655 S
C159 C160 1.382 1_655 S
C160 C159 1.382 1_455 S
C160 C161 1.392 . S
C160 N162 1.420 1_455 S
C161 H155 0.930 . S
C161 C157 1.407 . S
C161 C160 1.392 . S
N162 C160 1.420 1_655 S
N162 C163 1.244 . S
C163 N162 1.244 . S
H164 C167 0.929 . S
H165 C170 0.929 1_565 S
H166 C172 0.930 . S
C167 H164 0.929 . S
C167 C168 1.398 . S
C167 C169 1.396 . S
C168 C167 1.398 . S
C168 C172 1.407 . S
C169 C167 1.396 . S
C169 C170 1.394 . S
C170 H165 0.929 1_545 S
C170 C169 1.394 . S
C170 C171 1.382 . S
C171 C170 1.382 . S
C171 C172 1.392 . S
C171 N173 1.420 1_545 S
C172 H166 0.930 . S
C172 C168 1.407 . S
C172 C171 1.392 . S
N173 C171 1.420 1_565 S
N173 C174 1.244 . S
C174 N173 1.244 . S
H175 C178 0.929 . S
H176 C181 0.929 . S
H177 C183 0.930 . S
C178 H175 0.929 . S
C178 C179 1.398 . S
C178 C180 1.396 . S
C179 C178 1.398 . S
C179 C183 1.407 . S
C180 C178 1.396 . S
C180 C181 1.394 . S
C181 H176 0.929 . S
C181 C180 1.394 . S
C181 C182 1.382 . S
C182 C181 1.382 . S
C182 C183 1.392 . S
C182 N184 1.420 . S
C183 H177 0.930 . S
C183 C179 1.407 . S
C183 C182 1.392 . S
N184 C182 1.420 . S
N184 C185 1.244 . S
C185 N184 1.244 . S
H186 C198 0.930 . S
H187 C200 0.930 . S
H188 C201 0.930 . S
H189 C205 0.959 . S
H190 C205 0.959 . S
H191 C205 0.961 . S
H192 C206 0.960 . S
H193 C206 0.961 . S
H194 C206 0.959 . S
H195 C209 0.929 . S
H196 C210 0.931 . S
H197 C212 0.930 . S
C198 H186 0.930 . S
C198 C199 1.399 . S
C198 C203 1.399 . S
C199 C198 1.399 . S
C199 C200 1.376 . S
C200 H187 0.930 . S
C200 C199 1.376 . S
C200 C201 1.388 . S
C201 H188 0.930 . S
C201 C200 1.388 . S
C201 C202 1.390 . S
C202 C201 1.390 . S
C202 C203 1.394 . S
C202 C208 1.465 . S
C203 C198 1.399 . S
C203 C202 1.394 . S
C203 C204 1.516 . S
C204 C203 1.516 . S
C204 C205 1.502 . S
C204 C206 1.561 . S
C204 C207 1.526 . S
C205 H189 0.959 . S
C205 H190 0.959 . S
C205 H191 0.961 . S
C205 C204 1.502 . S
C206 H192 0.960 . S
C206 H193 0.961 . S
C206 H194 0.959 . S
C206 C204 1.561 . S
C207 C204 1.526 . S
C207 C208 1.396 . S
C207 C212 1.390 . S
C208 C202 1.465 . S
C208 C207 1.396 . S
C208 C209 1.399 . S
C209 H195 0.929 . S
C209 C208 1.399 . S
C209 C210 1.385 . S
C210 H196 0.931 . S
C210 C209 1.385 . S
C210 C211 1.389 . S
C211 C210 1.389 . S
C211 C212 1.387 . S
C212 H197 0.930 . S
C212 C207 1.390 . S
C212 C211 1.387 . S
H213 C225 0.930 . S
H214 C227 0.930 . S
H215 C228 0.930 . S
H216 C232 0.959 . S
H217 C232 0.959 . S
H218 C232 0.961 . S
H219 C233 0.960 . S
H220 C233 0.961 . S
H221 C233 0.959 . S
H222 C236 0.929 . S
H223 C237 0.931 . S
H224 C239 0.930 . S
C225 H213 0.930 . S
C225 C226 1.399 . S
C225 C230 1.399 . S
C226 C225 1.399 . S
C226 C227 1.376 . S
C227 H214 0.930 . S
C227 C226 1.376 . S
C227 C228 1.388 . S
C228 H215 0.930 . S
C228 C227 1.388 . S
C228 C229 1.390 . S
C229 C228 1.390 . S
C229 C230 1.394 . S
C229 C235 1.465 . S
C230 C225 1.399 . S
C230 C229 1.394 . S
C230 C231 1.516 . S
C231 C230 1.516 . S
C231 C232 1.502 . S
C231 C233 1.561 . S
C231 C234 1.526 . S
C232 H216 0.959 . S
C232 H217 0.959 . S
C232 H218 0.961 . S
C232 C231 1.502 . S
C233 H219 0.960 . S
C233 H220 0.961 . S
C233 H221 0.959 . S
C233 C231 1.561 . S
C234 C231 1.526 . S
C234 C235 1.396 . S
C234 C239 1.390 . S
C235 C229 1.465 . S
C235 C234 1.396 . S
C235 C236 1.399 . S
C236 H222 0.929 . S
C236 C235 1.399 . S
C236 C237 1.385 . S
C237 H223 0.931 . S
C237 C236 1.385 . S
C237 C238 1.389 . S
C238 C237 1.389 . S
C238 C239 1.387 . S
C239 H224 0.930 . S
C239 C234 1.390 . S
C239 C238 1.387 . S
H240 C252 0.930 . S
H241 C254 0.930 . S
H242 C255 0.930 . S
H243 C259 0.959 . S
H244 C259 0.959 . S
H245 C259 0.961 . S
H246 C260 0.960 . S
H247 C260 0.961 . S
H248 C260 0.959 . S
H249 C263 0.929 . S
H250 C264 0.931 . S
H251 C266 0.930 . S
C252 H240 0.930 . S
C252 C253 1.399 . S
C252 C257 1.399 . S
C253 C252 1.399 . S
C253 C254 1.376 . S
C254 H241 0.930 . S
C254 C253 1.376 . S
C254 C255 1.388 . S
C255 H242 0.930 . S
C255 C254 1.388 . S
C255 C256 1.390 . S
C256 C255 1.390 . S
C256 C257 1.394 . S
C256 C262 1.465 . S
C257 C252 1.399 . S
C257 C256 1.394 . S
C257 C258 1.516 . S
C258 C257 1.516 . S
C258 C259 1.502 . S
C258 C260 1.561 . S
C258 C261 1.526 . S
C259 H243 0.959 . S
C259 H244 0.959 . S
C259 H245 0.961 . S
C259 C258 1.502 . S
C260 H246 0.960 . S
C260 H247 0.961 . S
C260 H248 0.959 . S
C260 C258 1.561 . S
C261 C258 1.526 . S
C261 C262 1.396 . S
C261 C266 1.390 . S
C262 C256 1.465 . S
C262 C261 1.396 . S
C262 C263 1.399 . S
C263 H249 0.929 . S
C263 C262 1.399 . S
C263 C264 1.385 . S
C264 H250 0.931 . S
C264 C263 1.385 . S
C264 C265 1.389 . S
C265 C264 1.389 . S
C265 C266 1.387 . S
C266 H251 0.930 . S
C266 C261 1.390 . S
C266 C265 1.387 . S
H267 C279 0.930 . S
H268 C281 0.930 . S
H269 C282 0.930 . S
H270 C286 0.959 . S
H271 C286 0.959 . S
H272 C286 0.961 . S
H273 C287 0.960 . S
H274 C287 0.961 . S
H275 C287 0.959 . S
H276 C290 0.929 . S
H277 C291 0.931 . S
H278 C293 0.930 . S
C279 H267 0.930 . S
C279 C280 1.399 . S
C279 C284 1.399 . S
C280 C279 1.399 . S
C280 C281 1.376 . S
C281 H268 0.930 . S
C281 C280 1.376 . S
C281 C282 1.388 . S
C282 H269 0.930 . S
C282 C281 1.388 . S
C282 C283 1.390 . S
C283 C282 1.390 . S
C283 C284 1.394 . S
C283 C289 1.465 . S
C284 C279 1.399 . S
C284 C283 1.394 . S
C284 C285 1.516 . S
C285 C284 1.516 . S
C285 C286 1.502 . S
C285 C287 1.561 . S
C285 C288 1.526 . S
C286 H270 0.959 . S
C286 H271 0.959 . S
C286 H272 0.961 . S
C286 C285 1.502 . S
C287 H273 0.960 . S
C287 H274 0.961 . S
C287 H275 0.959 . S
C287 C285 1.561 . S
C288 C285 1.526 . S
C288 C289 1.396 . S
C288 C293 1.390 . S
C289 C283 1.465 . S
C289 C288 1.396 . S
C289 C290 1.399 . S
C290 H276 0.929 . S
C290 C289 1.399 . S
C290 C291 1.385 . S
C291 H277 0.931 . S
C291 C290 1.385 . S
C291 C292 1.389 . S
C292 C291 1.389 . S
C292 C293 1.387 . S
C293 H278 0.930 . S
C293 C288 1.390 . S
C293 C292 1.387 . S
H294 C306 0.930 . S
H295 C308 0.930 . S
H296 C309 0.930 . S
H297 C313 0.959 . S
H298 C313 0.959 . S
H299 C313 0.961 . S
H300 C314 0.960 . S
H301 C314 0.961 . S
H302 C314 0.959 . S
H303 C317 0.929 . S
H304 C318 0.931 . S
H305 C320 0.930 . S
C306 H294 0.930 . S
C306 C307 1.399 . S
C306 C311 1.399 . S
C307 C306 1.399 . S
C307 C308 1.376 . S
C308 H295 0.930 . S
C308 C307 1.376 . S
C308 C309 1.388 . S
C309 H296 0.930 . S
C309 C308 1.388 . S
C309 C310 1.390 . S
C310 C309 1.390 . S
C310 C311 1.394 . S
C310 C316 1.465 . S
C311 C306 1.399 . S
C311 C310 1.394 . S
C311 C312 1.516 . S
C312 C311 1.516 . S
C312 C313 1.502 . S
C312 C314 1.561 . S
C312 C315 1.526 . S
C313 H297 0.959 . S
C313 H298 0.959 . S
C313 H299 0.961 . S
C313 C312 1.502 . S
C314 H300 0.960 . S
C314 H301 0.961 . S
C314 H302 0.959 . S
C314 C312 1.561 . S
C315 C312 1.526 . S
C315 C316 1.396 . S
C315 C320 1.390 . S
C316 C310 1.465 . S
C316 C315 1.396 . S
C316 C317 1.399 . S
C317 H303 0.929 . S
C317 C316 1.399 . S
C317 C318 1.385 . S
C318 H304 0.931 . S
C318 C317 1.385 . S
C318 C319 1.389 . S
C319 C318 1.389 . S
C319 C320 1.387 . S
C320 H305 0.930 . S
C320 C315 1.390 . S
C320 C319 1.387 . S
H321 C333 0.930 . S
H322 C335 0.930 . S
H323 C336 0.930 . S
H324 C340 0.959 . S
H325 C340 0.959 . S
H326 C340 0.961 . S
H327 C341 0.960 . S
H328 C341 0.961 . S
H329 C341 0.959 . S
H330 C344 0.929 . S
H331 C345 0.931 . S
H332 C347 0.930 . S
C333 H321 0.930 . S
C333 C334 1.399 . S
C333 C338 1.399 . S
C334 C333 1.399 . S
C334 C335 1.376 . S
C335 H322 0.930 . S
C335 C334 1.376 . S
C335 C336 1.388 . S
C336 H323 0.930 . S
C336 C335 1.388 . S
C336 C337 1.390 . S
C337 C336 1.390 . S
C337 C338 1.394 . S
C337 C343 1.465 . S
C338 C333 1.399 . S
C338 C337 1.394 . S
C338 C339 1.516 . S
C339 C338 1.516 . S
C339 C340 1.502 . S
C339 C341 1.561 . S
C339 C342 1.526 . S
C340 H324 0.959 . S
C340 H325 0.959 . S
C340 H326 0.961 . S
C340 C339 1.502 . S
C341 H327 0.960 . S
C341 H328 0.961 . S
C341 H329 0.959 . S
C341 C339 1.561 . S
C342 C339 1.526 . S
C342 C343 1.396 . S
C342 C347 1.390 . S
C343 C337 1.465 . S
C343 C342 1.396 . S
C343 C344 1.399 . S
C344 H330 0.929 . S
C344 C343 1.399 . S
C344 C345 1.385 . S
C345 H331 0.931 . S
C345 C344 1.385 . S
C345 C346 1.389 . S
C346 C345 1.389 . S
C346 C347 1.387 . S
C347 H332 0.930 . S
C347 C342 1.390 . S
C347 C346 1.387 . S
H348 C360 0.930 . S
H349 C362 0.930 . S
H350 C363 0.930 . S
H351 C367 0.959 . S
H352 C367 0.959 . S
H353 C367 0.961 . S
H354 C368 0.960 . S
H355 C368 0.961 . S
H356 C368 0.959 . S
H357 C371 0.929 . S
H358 C372 0.931 . S
H359 C374 0.930 . S
C360 H348 0.930 . S
C360 C361 1.399 . S
C360 C365 1.399 . S
C361 C360 1.399 . S
C361 C362 1.376 . S
C362 H349 0.930 . S
C362 C361 1.376 . S
C362 C363 1.388 . S
C363 H350 0.930 . S
C363 C362 1.388 . S
C363 C364 1.390 . S
C364 C363 1.390 . S
C364 C365 1.394 . S
C364 C370 1.465 . S
C365 C360 1.399 . S
C365 C364 1.394 . S
C365 C366 1.516 . S
C366 C365 1.516 . S
C366 C367 1.502 . S
C366 C368 1.561 . S
C366 C369 1.526 . S
C367 H351 0.959 . S
C367 H352 0.959 . S
C367 H353 0.961 . S
C367 C366 1.502 . S
C368 H354 0.960 . S
C368 H355 0.961 . S
C368 H356 0.959 . S
C368 C366 1.561 . S
C369 C366 1.526 . S
C369 C370 1.396 . S
C369 C374 1.390 . S
C370 C364 1.465 . S
C370 C369 1.396 . S
C370 C371 1.399 . S
C371 H357 0.929 . S
C371 C370 1.399 . S
C371 C372 1.385 . S
C372 H358 0.931 . S
C372 C371 1.385 . S
C372 C373 1.389 . S
C373 C372 1.389 . S
C373 C374 1.387 . S
C374 H359 0.930 . S
C374 C369 1.390 . S
C374 C373 1.387 . S
H375 C387 0.930 . S
H376 C389 0.930 . S
H377 C390 0.930 . S
H378 C394 0.959 . S
H379 C394 0.959 . S
H380 C394 0.961 . S
H381 C395 0.960 . S
H382 C395 0.961 . S
H383 C395 0.959 . S
H384 C398 0.929 . S
H385 C399 0.931 . S
H386 C401 0.930 . S
C387 H375 0.930 . S
C387 C388 1.399 . S
C387 C392 1.399 . S
C388 C387 1.399 . S
C388 C389 1.376 . S
C389 H376 0.930 . S
C389 C388 1.376 . S
C389 C390 1.388 . S
C390 H377 0.930 . S
C390 C389 1.388 . S
C390 C391 1.390 . S
C391 C390 1.390 . S
C391 C392 1.394 . S
C391 C397 1.465 . S
C392 C387 1.399 . S
C392 C391 1.394 . S
C392 C393 1.516 . S
C393 C392 1.516 . S
C393 C394 1.502 . S
C393 C395 1.561 . S
C393 C396 1.526 . S
C394 H378 0.959 . S
C394 H379 0.959 . S
C394 H380 0.961 . S
C394 C393 1.502 . S
C395 H381 0.960 . S
C395 H382 0.961 . S
C395 H383 0.959 . S
C395 C393 1.561 . S
C396 C393 1.526 . S
C396 C397 1.396 . S
C396 C401 1.390 . S
C397 C391 1.465 . S
C397 C396 1.396 . S
C397 C398 1.399 . S
C398 H384 0.929 . S
C398 C397 1.399 . S
C398 C399 1.385 . S
C399 H385 0.931 . S
C399 C398 1.385 . S
C399 C400 1.389 . S
C400 C399 1.389 . S
C400 C401 1.387 . S
C401 H386 0.930 . S
C401 C396 1.390 . S
C401 C400 1.387 . S
H402 C414 0.930 . S
H403 C416 0.930 . S
H404 C417 0.930 . S
H405 C421 0.959 . S
H406 C421 0.959 . S
H407 C421 0.961 . S
H408 C422 0.960 . S
H409 C422 0.961 . S
H410 C422 0.959 . S
H411 C425 0.929 . S
H412 C426 0.931 . S
H413 C428 0.930 . S
C414 H402 0.930 . S
C414 C415 1.399 . S
C414 C419 1.399 . S
C415 C414 1.399 . S
C415 C416 1.376 . S
C416 H403 0.930 . S
C416 C415 1.376 . S
C416 C417 1.388 . S
C417 H404 0.930 . S
C417 C416 1.388 . S
C417 C418 1.390 . S
C418 C417 1.390 . S
C418 C419 1.394 . S
C418 C424 1.465 . S
C419 C414 1.399 . S
C419 C418 1.394 . S
C419 C420 1.516 . S
C420 C419 1.516 . S
C420 C421 1.502 . S
C420 C422 1.561 . S
C420 C423 1.526 . S
C421 H405 0.959 . S
C421 H406 0.959 . S
C421 H407 0.961 . S
C421 C420 1.502 . S
C422 H408 0.960 . S
C422 H409 0.961 . S
C422 H410 0.959 . S
C422 C420 1.561 . S
C423 C420 1.526 . S
C423 C424 1.396 . S
C423 C428 1.390 . S
C424 C418 1.465 . S
C424 C423 1.396 . S
C424 C425 1.399 . S
C425 H411 0.929 . S
C425 C424 1.399 . S
C425 C426 1.385 . S
C426 H412 0.931 . S
C426 C425 1.385 . S
C426 C427 1.389 . S
C427 C426 1.389 . S
C427 C428 1.387 . S
C428 H413 0.930 . S
C428 C423 1.390 . S
C428 C427 1.387 . S
H429 C441 0.930 . S
H430 C443 0.930 . S
H431 C444 0.930 . S
H432 C448 0.959 . S
H433 C448 0.959 . S
H434 C448 0.961 . S
H435 C449 0.960 . S
H436 C449 0.961 . S
H437 C449 0.959 . S
H438 C452 0.929 . S
H439 C453 0.931 . S
H440 C455 0.930 . S
C441 H429 0.930 . S
C441 C442 1.399 . S
C441 C446 1.399 . S
C442 C441 1.399 . S
C442 C443 1.376 . S
C443 H430 0.930 . S
C443 C442 1.376 . S
C443 C444 1.388 . S
C444 H431 0.930 . S
C444 C443 1.388 . S
C444 C445 1.390 . S
C445 C444 1.390 . S
C445 C446 1.394 . S
C445 C451 1.465 . S
C446 C441 1.399 . S
C446 C445 1.394 . S
C446 C447 1.516 . S
C447 C446 1.516 . S
C447 C448 1.502 . S
C447 C449 1.561 . S
C447 C450 1.526 . S
C448 H432 0.959 . S
C448 H433 0.959 . S
C448 H434 0.961 . S
C448 C447 1.502 . S
C449 H435 0.960 . S
C449 H436 0.961 . S
C449 H437 0.959 . S
C449 C447 1.561 . S
C450 C447 1.526 . S
C450 C451 1.396 . S
C450 C455 1.390 . S
C451 C445 1.465 . S
C451 C450 1.396 . S
C451 C452 1.399 . S
C452 H438 0.929 . S
C452 C451 1.399 . S
C452 C453 1.385 . S
C453 H439 0.931 . S
C453 C452 1.385 . S
C453 C454 1.389 . S
C454 C453 1.389 . S
C454 C455 1.387 . S
C455 H440 0.930 . S
C455 C450 1.390 . S
C455 C454 1.387 . S
H456 C468 0.930 . S
H457 C470 0.930 . S
H458 C471 0.930 . S
H459 C475 0.959 . S
H460 C475 0.959 . S
H461 C475 0.961 . S
H462 C476 0.960 . S
H463 C476 0.961 . S
H464 C476 0.959 . S
H465 C479 0.929 . S
H466 C480 0.931 . S
H467 C482 0.930 . S
C468 H456 0.930 . S
C468 C469 1.399 . S
C468 C473 1.399 . S
C469 C468 1.399 . S
C469 C470 1.376 . S
C470 H457 0.930 . S
C470 C469 1.376 . S
C470 C471 1.388 . S
C471 H458 0.930 . S
C471 C470 1.388 . S
C471 C472 1.390 . S
C472 C471 1.390 . S
C472 C473 1.394 . S
C472 C478 1.465 . S
C473 C468 1.399 . S
C473 C472 1.394 . S
C473 C474 1.516 . S
C474 C473 1.516 . S
C474 C475 1.502 . S
C474 C476 1.561 . S
C474 C477 1.526 . S
C475 H459 0.959 . S
C475 H460 0.959 . S
C475 H461 0.961 . S
C475 C474 1.502 . S
C476 H462 0.960 . S
C476 H463 0.961 . S
C476 H464 0.959 . S
C476 C474 1.561 . S
C477 C474 1.526 . S
C477 C478 1.396 . S
C477 C482 1.390 . S
C478 C472 1.465 . S
C478 C477 1.396 . S
C478 C479 1.399 . S
C479 H465 0.929 . S
C479 C478 1.399 . S
C479 C480 1.385 . S
C480 H466 0.931 . S
C480 C479 1.385 . S
C480 C481 1.389 . S
C481 C480 1.389 . S
C481 C482 1.387 . S
C482 H467 0.930 . S
C482 C477 1.390 . S
C482 C481 1.387 . S
H483 C495 0.930 . S
H484 C497 0.930 . S
H485 C498 0.930 . S
H486 C502 0.959 . S
H487 C502 0.959 . S
H488 C502 0.961 . S
H489 C503 0.960 . S
H490 C503 0.961 . S
H491 C503 0.959 . S
H492 C506 0.929 . S
H493 C507 0.931 . S
H494 C509 0.930 . S
C495 H483 0.930 . S
C495 C496 1.399 . S
C495 C500 1.399 . S
C496 C495 1.399 . S
C496 C497 1.376 . S
C497 H484 0.930 . S
C497 C496 1.376 . S
C497 C498 1.388 . S
C498 H485 0.930 . S
C498 C497 1.388 . S
C498 C499 1.390 . S
C499 C498 1.390 . S
C499 C500 1.394 . S
C499 C505 1.465 . S
C500 C495 1.399 . S
C500 C499 1.394 . S
C500 C501 1.516 . S
C501 C500 1.516 . S
C501 C502 1.502 . S
C501 C503 1.561 . S
C501 C504 1.526 . S
C502 H486 0.959 . S
C502 H487 0.959 . S
C502 H488 0.961 . S
C502 C501 1.502 . S
C503 H489 0.960 . S
C503 H490 0.961 . S
C503 H491 0.959 . S
C503 C501 1.561 . S
C504 C501 1.526 . S
C504 C505 1.396 . S
C504 C509 1.390 . S
C505 C499 1.465 . S
C505 C504 1.396 . S
C505 C506 1.399 . S
C506 H492 0.929 . S
C506 C505 1.399 . S
C506 C507 1.385 . S
C507 H493 0.931 . S
C507 C506 1.385 . S
C507 C508 1.389 . S
C508 C507 1.389 . S
C508 C509 1.387 . S
C509 H494 0.930 . S
C509 C504 1.390 . S
C509 C508 1.387 . S
H510 C522 0.930 . S
H511 C524 0.930 . S
H512 C525 0.930 . S
H513 C529 0.959 . S
H514 C529 0.959 . S
H515 C529 0.961 . S
H516 C530 0.960 . S
H517 C530 0.961 1_556 S
H518 C530 0.959 . S
H519 C533 0.929 . S
H520 C534 0.931 . S
H521 C536 0.930 . S
C522 H510 0.930 . S
C522 C523 1.399 . S
C522 C527 1.399 . S
C523 C522 1.399 . S
C523 C524 1.376 . S
C524 H511 0.930 . S
C524 C523 1.376 . S
C524 C525 1.388 . S
C525 H512 0.930 . S
C525 C524 1.388 . S
C525 C526 1.390 . S
C526 C525 1.390 . S
C526 C527 1.394 . S
C526 C532 1.465 1_554 S
C527 C522 1.399 . S
C527 C526 1.394 . S
C527 C528 1.516 . S
C528 C527 1.516 . S
C528 C529 1.502 . S
C528 C530 1.561 1_455 S
C528 C531 1.526 1_554 S
C529 H513 0.959 . S
C529 H514 0.959 . S
C529 H515 0.961 . S
C529 C528 1.502 . S
C530 H516 0.960 . S
C530 H517 0.961 1_554 S
C530 H518 0.959 . S
C530 C528 1.561 1_655 S
C531 C528 1.526 1_556 S
C531 C532 1.396 . S
C531 C536 1.390 . S
C532 C526 1.465 1_556 S
C532 C531 1.396 . S
C532 C533 1.399 . S
C533 H519 0.929 . S
C533 C532 1.399 . S
C533 C534 1.385 . S
C534 H520 0.931 . S
C534 C533 1.385 . S
C534 C535 1.389 . S
C535 C534 1.389 . S
C535 C536 1.387 . S
C536 H521 0.930 . S
C536 C531 1.390 . S
C536 C535 1.387 . S
H537 C549 0.930 . S
H538 C551 0.930 1_565 S
H539 C552 0.947 . S
H540 C556 0.959 . S
H541 C556 0.959 . S
H542 C556 0.961 . S
H543 C557 0.960 . S
H544 C557 0.961 . S
H545 C557 0.959 . S
H546 C560 0.929 1_565 S
H547 C561 0.931 1_565 S
H548 C563 0.930 . S
C549 H537 0.930 . S
C549 C550 1.399 . S
C549 C554 1.399 . S
C550 C549 1.399 . S
C550 C551 1.376 . S
C551 H538 0.930 1_545 S
C551 C550 1.376 . S
C551 C552 1.386 1_545 S
C552 H539 0.947 . S
C552 C551 1.386 1_565 S
C552 C553 1.375 1_565 S
C553 C552 1.375 1_545 S
C553 C554 1.394 . S
C553 C559 1.465 . S
C554 C549 1.399 . S
C554 C553 1.394 . S
C554 C555 1.516 . S
C555 C554 1.516 . S
C555 C556 1.502 . S
C555 C557 1.561 . S
C555 C558 1.526 . S
C556 H540 0.959 . S
C556 H541 0.959 . S
C556 H542 0.961 . S
C556 C555 1.502 . S
C557 H543 0.960 . S
C557 H544 0.961 . S
C557 H545 0.959 . S
C557 C555 1.561 . S
C558 C555 1.526 . S
C558 C559 1.396 . S
C558 C563 1.390 . S
C559 C553 1.465 . S
C559 C558 1.396 . S
C559 C560 1.399 . S
C560 H546 0.929 1_545 S
C560 C559 1.399 . S
C560 C561 1.385 . S
C561 H547 0.931 1_545 S
C561 C560 1.385 . S
C561 C562 1.389 . S
C562 C561 1.389 . S
C562 C563 1.387 . S
C563 H548 0.930 . S
C563 C558 1.390 . S
C563 C562 1.387 . S
H564 C576 0.930 . S
H565 C578 0.930 . S
H566 C579 0.930 . S
H567 C583 0.959 . S
H568 C583 0.959 . S
H569 C583 0.961 . S
H570 C584 0.960 . S
H571 C584 0.961 . S
H572 C584 0.959 . S
H573 C587 0.929 . S
H574 C588 0.931 . S
H575 C590 0.930 . S
C576 H564 0.930 . S
C576 C577 1.399 . S
C576 C581 1.399 . S
C577 C576 1.399 . S
C577 C578 1.376 . S
C578 H565 0.930 . S
C578 C577 1.376 . S
C578 C579 1.388 . S
C579 H566 0.930 . S
C579 C578 1.388 . S
C579 C580 1.390 . S
C580 C579 1.390 . S
C580 C581 1.394 . S
C580 C586 1.465 . S
C581 C576 1.399 . S
C581 C580 1.394 . S
C581 C582 1.516 . S
C582 C581 1.516 . S
C582 C583 1.502 . S
C582 C584 1.561 . S
C582 C585 1.526 . S
C583 H567 0.959 . S
C583 H568 0.959 . S
C583 H569 0.961 . S
C583 C582 1.502 . S
C584 H570 0.960 . S
C584 H571 0.961 . S
C584 H572 0.959 . S
C584 C582 1.561 . S
C585 C582 1.526 . S
C585 C586 1.396 . S
C585 C590 1.390 . S
C586 C580 1.465 . S
C586 C585 1.396 . S
C586 C587 1.399 . S
C587 H573 0.929 . S
C587 C586 1.399 . S
C587 C588 1.385 . S
C588 H574 0.931 . S
C588 C587 1.385 . S
C588 C589 1.389 . S
C589 C588 1.389 . S
C589 C590 1.387 . S
C590 H575 0.930 . S
C590 C585 1.390 . S
C590 C589 1.387 . S
H591 C603 0.930 . S
H592 C605 0.931 . S
H593 C606 0.930 1_565 S
H594 C610 0.959 . S
H595 C610 0.959 . S
H596 C610 0.961 . S
H597 C611 0.960 . S
H598 C611 0.961 . S
H599 C611 0.959 . S
H600 C614 0.929 . S
H601 C615 0.931 1_565 S
H602 C617 0.930 . S
C603 H591 0.930 . S
C603 C604 1.399 . S
C603 C608 1.399 . S
C604 C603 1.399 . S
C604 C605 1.376 . S
C605 H592 0.931 . S
C605 C604 1.376 . S
C605 C606 1.388 . S
C606 H593 0.930 1_545 S
C606 C605 1.388 . S
C606 C607 1.390 . S
C607 C606 1.390 . S
C607 C608 1.394 . S
C607 C613 1.465 . S
C608 C603 1.399 . S
C608 C607 1.394 . S
C608 C609 1.516 . S
C609 C608 1.516 . S
C609 C610 1.502 . S
C609 C611 1.561 . S
C609 C612 1.526 . S
C610 H594 0.959 . S
C610 H595 0.959 . S
C610 H596 0.961 . S
C610 C609 1.502 . S
C611 H597 0.960 . S
C611 H598 0.961 . S
C611 H599 0.959 . S
C611 C609 1.561 . S
C612 C609 1.526 . S
C612 C613 1.396 . S
C612 C617 1.390 . S
C613 C607 1.465 . S
C613 C612 1.396 . S
C613 C614 1.399 1_545 S
C614 H600 0.929 . S
C614 C613 1.399 1_565 S
C614 C615 1.385 1_565 S
C615 H601 0.931 1_545 S
C615 C614 1.385 1_545 S
C615 C616 1.389 . S
C616 C615 1.389 . S
C616 C617 1.387 . S
C617 H602 0.930 . S
C617 C612 1.390 . S
C617 C616 1.387 . S
H618 C630 0.930 . S
H619 C632 0.930 . S
H620 C633 0.930 . S
H621 C637 0.959 . S
H622 C637 0.959 1_554 S
H623 C637 0.961 . S
H624 C638 0.960 . S
H625 C638 0.961 1_554 S
H626 C638 0.959 1_554 S
H627 C641 0.929 . S
H628 C642 0.931 . S
H629 C644 0.930 . S
C630 H618 0.930 . S
C630 C631 1.399 . S
C630 C635 1.399 . S
C631 C630 1.399 . S
C631 C632 1.376 . S
C632 H619 0.930 . S
C632 C631 1.376 . S
C632 C633 1.388 . S
C633 H620 0.930 . S
C633 C632 1.388 . S
C633 C634 1.390 . S
C634 C633 1.390 . S
C634 C635 1.394 . S
C634 C640 1.465 1_556 S
C635 C630 1.399 . S
C635 C634 1.394 . S
C635 C636 1.516 . S
C636 C635 1.516 . S
C636 C637 1.502 . S
C636 C638 1.561 . S
C636 C639 1.526 1_556 S
C637 H621 0.959 . S
C637 H622 0.959 1_556 S
C637 H623 0.961 . S
C637 C636 1.502 . S
C638 H624 0.960 . S
C638 H625 0.961 1_556 S
C638 H626 0.959 1_556 S
C638 C636 1.561 . S
C639 C636 1.526 1_554 S
C639 C640 1.396 . S
C639 C644 1.390 . S
C640 C634 1.465 1_554 S
C640 C639 1.396 . S
C640 C641 1.399 . S
C641 H627 0.929 . S
C641 C640 1.399 . S
C641 C642 1.385 . S
C642 H628 0.931 . S
C642 C641 1.385 . S
C642 C643 1.389 . S
C643 C642 1.389 . S
C643 C644 1.387 . S
C644 H629 0.930 . S
C644 C639 1.390 . S
C644 C643 1.387 . S
H645 C657 0.930 . S
H646 C659 0.930 . S
H647 C660 0.930 . S
H648 C664 0.959 . S
H649 C664 0.959 . S
H650 C664 0.961 . S
H651 C665 0.960 . S
H652 C665 0.961 . S
H653 C665 0.959 . S
H654 C668 0.929 . S
H655 C669 0.931 . S
H656 C671 0.930 . S
C657 H645 0.930 . S
C657 C658 1.399 . S
C657 C662 1.399 . S
C658 C657 1.399 . S
C658 C659 1.376 . S
C659 H646 0.930 . S
C659 C658 1.376 . S
C659 C660 1.388 . S
C660 H647 0.930 . S
C660 C659 1.388 . S
C660 C661 1.390 . S
C661 C660 1.390 . S
C661 C662 1.394 . S
C661 C667 1.465 . S
C662 C657 1.399 . S
C662 C661 1.394 . S
C662 C663 1.516 . S
C663 C662 1.516 . S
C663 C664 1.502 1_455 S
C663 C665 1.561 . S
C663 C666 1.526 . S
C664 H648 0.959 . S
C664 H649 0.959 . S
C664 H650 0.961 . S
C664 C663 1.502 1_655 S
C665 H651 0.960 . S
C665 H652 0.961 . S
C665 H653 0.959 . S
C665 C663 1.561 . S
C666 C663 1.526 . S
C666 C667 1.396 . S
C666 C671 1.390 . S
C667 C661 1.465 . S
C667 C666 1.396 . S
C667 C668 1.399 . S
C668 H654 0.929 . S
C668 C667 1.399 . S
C668 C669 1.385 . S
C669 H655 0.931 . S
C669 C668 1.385 . S
C669 C670 1.389 . S
C670 C669 1.389 . S
C670 C671 1.387 . S
C671 H656 0.930 . S
C671 C666 1.390 . S
C671 C670 1.387 . S
C199 C19 1.953 . S
C211 C185 1.887 . S
C226 C46 1.286 . S
C238 C163 1.289 . S
C253 C95 0.392 . S
C265 C174 0.455 . S
C280 C10 1.875 . S
C292 C179 1.848 . S
C319 C157 1.184 . S
C307 C55 1.188 . S
C346 C168 0.437 . S
C334 C86 0.401 . S
C361 C59 3.152 . S
C373 C141 3.096 . S
C388 C90 1.908 . S
C400 C146 1.885 . S
C415 C15 1.170 . S
C427 C124 1.169 1_565 S
C454 C135 2.923 . S
C442 C50 2.941 . S
C481 C152 1.925 . S
C469 C99 1.937 . S
C496 C6 1.301 . S
C508 C130 1.306 . S
C535 C147 1.460 . S
C523 C9 1.438 . S
C550 C58 1.519 . S
C562 C125 1.522 . S
C577 C98 1.693 . S
C589 C136 1.741 . S
C616 C169 1.234 . S
C604 C49 1.233 . S
C643 C180 1.445 . S
C631 C89 1.449 . S
C658 C18 1.476 . S
C670 C158 1.501 . S
