# Generated by pormake.
# Topology ptr, (4,4)-cn, num edge types: 1
# Building blocks:
#     Node 0, Type 0, BuildingBlock: KUFVIS_clean_sbu_0, # of connection points: 4
#     Node 1, Type 0, BuildingBlock: KUFVIS_clean_sbu_0, # of connection points: 4
#     Node 2, Type 0, BuildingBlock: KUFVIS_clean_sbu_0, # of connection points: 4
#     Node 3, Type 0, BuildingBlock: KUFVIS_clean_sbu_0, # of connection points: 4
#     Node 4, Type 0, BuildingBlock: KUFVIS_clean_sbu_0, # of connection points: 4
#     Node 5, Type 0, BuildingBlock: KUFVIS_clean_sbu_0, # of connection points: 4
#     Node 6, Type 0, BuildingBlock: KUFVIS_clean_sbu_0, # of connection points: 4
#     Node 7, Type 0, BuildingBlock: KUFVIS_clean_sbu_0, # of connection points: 4
#     Node 8, Type 0, BuildingBlock: KUFVIS_clean_sbu_0, # of connection points: 4
#     Node 9, Type 0, BuildingBlock: KUFVIS_clean_sbu_0, # of connection points: 4
#     Node 10, Type 0, BuildingBlock: KUFVIS_clean_sbu_0, # of connection points: 4
#     Node 11, Type 0, BuildingBlock: KUFVIS_clean_sbu_0, # of connection points: 4
#     Node 12, Type 0, BuildingBlock: KUFVIS_clean_sbu_0, # of connection points: 4
#     Node 13, Type 0, BuildingBlock: KUFVIS_clean_sbu_0, # of connection points: 4
#     Node 14, Type 0, BuildingBlock: KUFVIS_clean_sbu_0, # of connection points: 4
#     Node 15, Type 0, BuildingBlock: KUFVIS_clean_sbu_0, # of connection points: 4
#     Node 16, Type 0, BuildingBlock: KUFVIS_clean_sbu_0, # of connection points: 4
#     Node 17, Type 0, BuildingBlock: KUFVIS_clean_sbu_0, # of connection points: 4
#     Node 18, Type 1, BuildingBlock: MIFKUJ_clean_linker_1, # of connection points: 4
#     Node 19, Type 1, BuildingBlock: MIFKUJ_clean_linker_1, # of connection points: 4
#     Node 20, Type 1, BuildingBlock: MIFKUJ_clean_linker_1, # of connection points: 4
#     Node 21, Type 1, BuildingBlock: MIFKUJ_clean_linker_1, # of connection points: 4
#     Node 22, Type 1, BuildingBlock: MIFKUJ_clean_linker_1, # of connection points: 4
#     Node 23, Type 1, BuildingBlock: MIFKUJ_clean_linker_1, # of connection points: 4
#     Node 24, Type 1, BuildingBlock: MIFKUJ_clean_linker_1, # of connection points: 4
#     Node 25, Type 1, BuildingBlock: MIFKUJ_clean_linker_1, # of connection points: 4
#     Node 26, Type 1, BuildingBlock: MIFKUJ_clean_linker_1, # of connection points: 4
#     Node 27, Type 1, BuildingBlock: MIFKUJ_clean_linker_1, # of connection points: 4
#     Node 28, Type 1, BuildingBlock: MIFKUJ_clean_linker_1, # of connection points: 4
#     Node 29, Type 1, BuildingBlock: MIFKUJ_clean_linker_1, # of connection points: 4
#     Node 30, Type 1, BuildingBlock: MIFKUJ_clean_linker_1, # of connection points: 4
#     Node 31, Type 1, BuildingBlock: MIFKUJ_clean_linker_1, # of connection points: 4
#     Node 32, Type 1, BuildingBlock: MIFKUJ_clean_linker_1, # of connection points: 4
#     Node 33, Type 1, BuildingBlock: MIFKUJ_clean_linker_1, # of connection points: 4
#     Node 34, Type 1, BuildingBlock: MIFKUJ_clean_linker_1, # of connection points: 4
#     Node 35, Type 1, BuildingBlock: MIFKUJ_clean_linker_1, # of connection points: 4
#     Edge 36, Type (0, 1), BuildingBlock: TEMPAE_clean_linker_10, # of connection points: 2
#     Edge 37, Type (0, 1), BuildingBlock: TEMPAE_clean_linker_10, # of connection points: 2
#     Edge 38, Type (0, 1), BuildingBlock: TEMPAE_clean_linker_10, # of connection points: 2
#     Edge 39, Type (0, 1), BuildingBlock: TEMPAE_clean_linker_10, # of connection points: 2
#     Edge 40, Type (0, 1), BuildingBlock: TEMPAE_clean_linker_10, # of connection points: 2
#     Edge 41, Type (0, 1), BuildingBlock: TEMPAE_clean_linker_10, # of connection points: 2
#     Edge 42, Type (0, 1), BuildingBlock: TEMPAE_clean_linker_10, # of connection points: 2
#     Edge 43, Type (0, 1), BuildingBlock: TEMPAE_clean_linker_10, # of connection points: 2
#     Edge 44, Type (0, 1), BuildingBlock: TEMPAE_clean_linker_10, # of connection points: 2
#     Edge 45, Type (0, 1), BuildingBlock: TEMPAE_clean_linker_10, # of connection points: 2
#     Edge 46, Type (0, 1), BuildingBlock: TEMPAE_clean_linker_10, # of connection points: 2
#     Edge 47, Type (0, 1), BuildingBlock: TEMPAE_clean_linker_10, # of connection points: 2
#     Edge 48, Type (0, 1), BuildingBlock: TEMPAE_clean_linker_10, # of connection points: 2
#     Edge 49, Type (0, 1), BuildingBlock: TEMPAE_clean_linker_10, # of connection points: 2
#     Edge 50, Type (0, 1), BuildingBlock: TEMPAE_clean_linker_10, # of connection points: 2
#     Edge 51, Type (0, 1), BuildingBlock: TEMPAE_clean_linker_10, # of connection points: 2
#     Edge 52, Type (0, 1), BuildingBlock: TEMPAE_clean_linker_10, # of connection points: 2
#     Edge 53, Type (0, 1), BuildingBlock: TEMPAE_clean_linker_10, # of connection points: 2
#     Edge 54, Type (0, 1), BuildingBlock: TEMPAE_clean_linker_10, # of connection points: 2
#     Edge 55, Type (0, 1), BuildingBlock: TEMPAE_clean_linker_10, # of connection points: 2
#     Edge 56, Type (0, 1), BuildingBlock: TEMPAE_clean_linker_10, # of connection points: 2
#     Edge 57, Type (0, 1), BuildingBlock: TEMPAE_clean_linker_10, # of connection points: 2
#     Edge 58, Type (0, 1), BuildingBlock: TEMPAE_clean_linker_10, # of connection points: 2
#     Edge 59, Type (0, 1), BuildingBlock: TEMPAE_clean_linker_10, # of connection points: 2
#     Edge 60, Type (0, 1), BuildingBlock: TEMPAE_clean_linker_10, # of connection points: 2
#     Edge 61, Type (0, 1), BuildingBlock: TEMPAE_clean_linker_10, # of connection points: 2
#     Edge 62, Type (0, 1), BuildingBlock: TEMPAE_clean_linker_10, # of connection points: 2
#     Edge 63, Type (0, 1), BuildingBlock: TEMPAE_clean_linker_10, # of connection points: 2
#     Edge 64, Type (0, 1), BuildingBlock: TEMPAE_clean_linker_10, # of connection points: 2
#     Edge 65, Type (0, 1), BuildingBlock: TEMPAE_clean_linker_10, # of connection points: 2
#     Edge 66, Type (0, 1), BuildingBlock: TEMPAE_clean_linker_10, # of connection points: 2
#     Edge 67, Type (0, 1), BuildingBlock: TEMPAE_clean_linker_10, # of connection points: 2
#     Edge 68, Type (0, 1), BuildingBlock: TEMPAE_clean_linker_10, # of connection points: 2
#     Edge 69, Type (0, 1), BuildingBlock: TEMPAE_clean_linker_10, # of connection points: 2
#     Edge 70, Type (0, 1), BuildingBlock: TEMPAE_clean_linker_10, # of connection points: 2
#     Edge 71, Type (0, 1), BuildingBlock: TEMPAE_clean_linker_10, # of connection points: 2
#     Edge 72, Type (0, 1), BuildingBlock: TEMPAE_clean_linker_10, # of connection points: 2
#     Edge 73, Type (0, 1), BuildingBlock: TEMPAE_clean_linker_10, # of connection points: 2
#     Edge 74, Type (0, 1), BuildingBlock: TEMPAE_clean_linker_10, # of connection points: 2
#     Edge 75, Type (0, 1), BuildingBlock: TEMPAE_clean_linker_10, # of connection points: 2
#     Edge 76, Type (0, 1), BuildingBlock: TEMPAE_clean_linker_10, # of connection points: 2
#     Edge 77, Type (0, 1), BuildingBlock: TEMPAE_clean_linker_10, # of connection points: 2
#     Edge 78, Type (0, 1), BuildingBlock: TEMPAE_clean_linker_10, # of connection points: 2
#     Edge 79, Type (0, 1), BuildingBlock: TEMPAE_clean_linker_10, # of connection points: 2
#     Edge 80, Type (0, 1), BuildingBlock: TEMPAE_clean_linker_10, # of connection points: 2
#     Edge 81, Type (0, 1), BuildingBlock: TEMPAE_clean_linker_10, # of connection points: 2
#     Edge 82, Type (0, 1), BuildingBlock: TEMPAE_clean_linker_10, # of connection points: 2
#     Edge 83, Type (0, 1), BuildingBlock: TEMPAE_clean_linker_10, # of connection points: 2
#     Edge 84, Type (0, 1), BuildingBlock: TEMPAE_clean_linker_10, # of connection points: 2
#     Edge 85, Type (0, 1), BuildingBlock: TEMPAE_clean_linker_10, # of connection points: 2
#     Edge 86, Type (0, 1), BuildingBlock: TEMPAE_clean_linker_10, # of connection points: 2
#     Edge 87, Type (0, 1), BuildingBlock: TEMPAE_clean_linker_10, # of connection points: 2
#     Edge 88, Type (0, 1), BuildingBlock: TEMPAE_clean_linker_10, # of connection points: 2
#     Edge 89, Type (0, 1), BuildingBlock: TEMPAE_clean_linker_10, # of connection points: 2
#     Edge 90, Type (0, 1), BuildingBlock: TEMPAE_clean_linker_10, # of connection points: 2
#     Edge 91, Type (0, 1), BuildingBlock: TEMPAE_clean_linker_10, # of connection points: 2
#     Edge 92, Type (0, 1), BuildingBlock: TEMPAE_clean_linker_10, # of connection points: 2
#     Edge 93, Type (0, 1), BuildingBlock: TEMPAE_clean_linker_10, # of connection points: 2
#     Edge 94, Type (0, 1), BuildingBlock: TEMPAE_clean_linker_10, # of connection points: 2
#     Edge 95, Type (0, 1), BuildingBlock: TEMPAE_clean_linker_10, # of connection points: 2
#     Edge 96, Type (0, 1), BuildingBlock: TEMPAE_clean_linker_10, # of connection points: 2
#     Edge 97, Type (0, 1), BuildingBlock: TEMPAE_clean_linker_10, # of connection points: 2
#     Edge 98, Type (0, 1), BuildingBlock: TEMPAE_clean_linker_10, # of connection points: 2
#     Edge 99, Type (0, 1), BuildingBlock: TEMPAE_clean_linker_10, # of connection points: 2
#     Edge 100, Type (0, 1), BuildingBlock: TEMPAE_clean_linker_10, # of connection points: 2
#     Edge 101, Type (0, 1), BuildingBlock: TEMPAE_clean_linker_10, # of connection points: 2
#     Edge 102, Type (0, 1), BuildingBlock: TEMPAE_clean_linker_10, # of connection points: 2
#     Edge 103, Type (0, 1), BuildingBlock: TEMPAE_clean_linker_10, # of connection points: 2
#     Edge 104, Type (0, 1), BuildingBlock: TEMPAE_clean_linker_10, # of connection points: 2
#     Edge 105, Type (0, 1), BuildingBlock: TEMPAE_clean_linker_10, # of connection points: 2
#     Edge 106, Type (0, 1), BuildingBlock: TEMPAE_clean_linker_10, # of connection points: 2
#     Edge 107, Type (0, 1), BuildingBlock: TEMPAE_clean_linker_10, # of connection points: 2
# Relax obj value: 0.041
# Max RMSD: 0.153
# Mean RMSD: 0.069
data_MOF--net-ptr--node1-KUFVIS_clean_sbu_0--node2-MIFKUJ_clean_linker_1--edge1-TEMPAE_clean_linker_10
_symmetry_space_group_name_H-M    P1
_symmetry_Int_Tables_number       1
_symmetry_cell_setting            triclinic
loop_
_symmetry_equiv_pos_as_xyz
'x, y, z'
_cell_length_a     90.147504
_cell_length_b     89.745764
_cell_length_c     62.527986
_cell_angle_alpha  89.754224
_cell_angle_beta   90.599844
_cell_angle_gamma 119.48637
loop_
_atom_site_label
_atom_site_type_symbol
_atom_site_fract_x
_atom_site_fract_y
_atom_site_fract_z
_atom_type_partial_charge
Mn0 Mn 0.99878 0.35304 0.00728 0.0
Mn1 Mn 0.03802 0.38779 0.00991 0.0
C2 C 0.00523 0.37683 0.98642 0.0
C3 C 0.97961 0.32625 0.9932 0.0
C4 C 0.01081 0.38002 0.04292 0.0
O5 O 0.01264 0.34361 0.02221 0.0
O6 O 0.03818 0.36751 0.02219 0.0
C7 C 0.05468 0.37569 0.97934 0.0
N8 N 0.05072 0.38781 0.98564 0.0
C9 C 0.06711 0.40662 0.95714 0.0
C10 C 0.07142 0.39437 0.95036 0.0
C11 C 0.06509 0.37879 0.96144 0.0
C12 C 0.05643 0.40267 0.97483 0.0
H13 H 0.04998 0.36378 0.98795 0.0
C14 C 0.02856 0.35165 0.02643 0.0
O15 O 0.97729 0.33111 0.0118 0.0
O16 O 0.9933 0.33681 0.98304 0.0
N17 N 0.04029 0.4086 0.99856 0.0
C18 C 0.03468 0.41891 0.00696 0.0
C19 C 0.04014 0.43515 0.99804 0.0
C20 C 0.05155 0.44072 0.98087 0.0
C21 C 0.05702 0.42984 0.97236 0.0
C22 C 0.05116 0.41381 0.98192 0.0
H23 H 0.02629 0.41487 0.02054 0.0
O24 O 0.98954 0.36569 0.99059 0.0
O25 O 0.01678 0.37353 0.99407 0.0
O26 O 0.99943 0.36611 0.0344 0.0
O27 O 0.02571 0.38902 0.03518 0.0
C28 C 0.06823 0.43433 0.95494 0.0
C29 C 0.07306 0.42263 0.94713 0.0
H30 H 0.07958 0.39679 0.93669 0.0
H31 H 0.06833 0.36926 0.9563 0.0
H32 H 0.03582 0.44346 0.00462 0.0
H33 H 0.05607 0.45343 0.9744 0.0
H34 H 0.07311 0.4467 0.94732 0.0
H35 H 0.08146 0.42612 0.93353 0.0
Mn36 Mn 0.64817 0.64395 0.02004 0.0
Mn37 Mn 0.65239 0.60866 0.01787 0.0
C38 C 0.63126 0.62069 0.04146 0.0
C39 C 0.65697 0.67127 0.03337 0.0
C40 C 0.63337 0.61751 0.98423 0.0
O41 O 0.67046 0.65219 0.00421 0.0
O42 O 0.67344 0.62877 0.00721 0.0
C43 C 0.67967 0.61841 0.0505 0.0
N44 N 0.66392 0.60704 0.0428 0.0
C45 C 0.66023 0.58655 0.07008 0.0
C46 C 0.67649 0.59797 0.0782 0.0
C47 C 0.6862 0.61403 0.06846 0.0
C48 C 0.65433 0.59174 0.05234 0.0
H49 H 0.68717 0.63072 0.04297 0.0
C50 C 0.67885 0.64433 0.00171 0.0
O51 O 0.64911 0.66629 0.01508 0.0
O52 O 0.65998 0.66045 0.04373 0.0
N53 N 0.63324 0.58803 0.02772 0.0
C54 C 0.61745 0.57894 0.01866 0.0
C55 C 0.60607 0.56261 0.02657 0.0
C56 C 0.61112 0.55571 0.04348 0.0
C57 C 0.62734 0.5654 0.05277 0.0
C58 C 0.63815 0.58157 0.04416 0.0
H59 H 0.61364 0.58402 0.00533 0.0
O60 O 0.62707 0.63232 0.03738 0.0
O61 O 0.64565 0.62329 0.0335 0.0
O62 O 0.63492 0.63084 0.99345 0.0
O63 O 0.63997 0.60876 0.99162 0.0
C64 C 0.63325 0.55964 0.07015 0.0
C65 C 0.64961 0.57028 0.07895 0.0
H66 H 0.68161 0.5946 0.09198 0.0
H67 H 0.69872 0.62296 0.07471 0.0
H68 H 0.59352 0.55525 0.01943 0.0
H69 H 0.60242 0.54297 0.04923 0.0
H70 H 0.62523 0.54713 0.07706 0.0
H71 H 0.65388 0.56584 0.09258 0.0
Mn72 Mn 0.35499 0.00589 0.01924 0.0
Mn73 Mn 0.3894 0.04547 0.0202 0.0
C74 C 0.37713 0.01235 0.0433 0.0
C75 C 0.32744 0.98647 0.03042 0.0
C76 C 0.3847 0.01862 0.98758 0.0
O77 O 0.34654 0.01971 0.00215 0.0
O78 O 0.37034 0.04528 0.0039 0.0
C79 C 0.37385 0.0613 0.04672 0.0
N80 N 0.38665 0.0577 0.04335 0.0
C81 C 0.40204 0.07391 0.07435 0.0
C82 C 0.38905 0.07784 0.07815 0.0
C83 C 0.37482 0.0714 0.06436 0.0
C84 C 0.40013 0.0634 0.05686 0.0
H85 H 0.36299 0.05656 0.03601 0.0
C86 C 0.35493 0.03563 0.99775 0.0
O87 O 0.33356 0.9841 0.01284 0.0
O88 O 0.33718 1.00027 0.04118 0.0
N89 N 0.40913 0.04828 0.03541 0.0
C90 C 0.42083 0.04381 0.02908 0.0
C91 C 0.43607 0.04966 0.04076 0.0
C92 C 0.43935 0.06045 0.05845 0.0
C93 C 0.42724 0.06507 0.06453 0.0
C94 C 0.4122 0.05869 0.05242 0.0
H95 H 0.41852 0.0358 0.01527 0.0
O96 O 0.36645 0.99661 0.03827 0.0
O97 O 0.37429 0.02393 0.03466 0.0
O98 O 0.37008 0.0071 0.99404 0.0
O99 O 0.39319 0.03335 0.99638 0.0
C100 C 0.42967 0.07608 0.08185 0.0
C101 C 0.41695 0.08025 0.08699 0.0
H102 H 0.38989 0.08584 0.09155 0.0
H103 H 0.36474 0.07437 0.06717 0.0
H104 H 0.44537 0.04606 0.03594 0.0
H105 H 0.45132 0.06529 0.06705 0.0
H106 H 0.44124 0.08133 0.09142 0.0
H107 H 0.41888 0.08855 0.1005 0.0
Mn108 Mn 0.00104 0.65194 0.0095 0.0
Mn109 Mn 0.039 0.65311 0.01345 0.0
C110 C 0.00621 0.63364 0.98876 0.0
C111 C 0.98349 0.66176 0.99497 0.0
C112 C 0.0108 0.63513 0.0457 0.0
O113 O 0.0159 0.67463 0.02472 0.0
O114 O 0.04067 0.67432 0.02544 0.0
C115 C 0.05808 0.68147 0.98304 0.0
N116 N 0.0528 0.66514 0.98957 0.0
C117 C 0.0693 0.66125 0.96244 0.0
C118 C 0.07497 0.67804 0.95543 0.0
C119 C 0.06925 0.68816 0.96569 0.0
C120 C 0.05796 0.65519 0.97956 0.0
H121 H 0.05385 0.68933 0.99106 0.0
C122 C 0.03169 0.68142 0.02947 0.0
O123 O 0.98048 0.65439 0.01356 0.0
O124 O 0.99694 0.6638 0.98505 0.0
N125 N 0.03981 0.63365 0.00266 0.0
C126 C 0.03269 0.61756 0.011 0.0
C127 C 0.03734 0.60591 0.00286 0.0
C128 C 0.0494 0.61099 0.98647 0.0
C129 C 0.05631 0.6275 0.97787 0.0
C130 C 0.05129 0.6386 0.98674 0.0
H131 H 0.02377 0.61374 0.024 0.0
O132 O 0.99077 0.63032 0.99261 0.0
O133 O 0.01836 0.64787 0.99677 0.0
O134 O 1.00012 0.63863 0.0367 0.0
O135 O 0.02571 0.64016 0.03845 0.0
C136 C 0.06809 0.63346 0.961 0.0
C137 C 0.07444 0.65026 0.95313 0.0
H138 H 0.08369 0.68329 0.94216 0.0
H139 H 0.07355 0.70113 0.96035 0.0
H140 H 0.03187 0.59313 0.00946 0.0
H141 H 0.05326 0.60209 0.98063 0.0
H142 H 0.07225 0.62519 0.95382 0.0
H143 H 0.08329 0.6546 0.93995 0.0
Mn144 Mn 0.35324 0.35598 0.01166 0.0
Mn145 Mn 0.38921 0.35323 0.00876 0.0
C146 C 0.37632 0.37298 0.03372 0.0
C147 C 0.32596 0.34657 0.0251 0.0
C148 C 0.3802 0.37307 0.97679 0.0
O149 O 0.34528 0.33361 0.99545 0.0
O150 O 0.36978 0.33279 0.99555 0.0
C151 C 0.37899 0.32378 0.03797 0.0
N152 N 0.39029 0.34015 0.03229 0.0
C153 C 0.40996 0.34236 0.06002 0.0
C154 C 0.39856 0.32549 0.06617 0.0
C155 C 0.38296 0.3162 0.05518 0.0
C156 C 0.40516 0.34931 0.04301 0.0
H157 H 0.36709 0.31655 0.02938 0.0
C158 C 0.35397 0.32638 0.9908 0.0
O159 O 0.33065 0.35452 0.00693 0.0
O160 O 0.33699 0.34378 0.03525 0.0
N161 N 0.40934 0.37187 0.02075 0.0
C162 C 0.41863 0.38815 0.0132 0.0
C163 C 0.43475 0.39906 0.02212 0.0
C164 C 0.44122 0.39304 0.03848 0.0
C165 C 0.4313 0.37635 0.04627 0.0
C166 C 0.41539 0.36603 0.03665 0.0
H167 H 0.41392 0.39269 1.00021 0.0
O168 O 0.36461 0.37704 0.02964 0.0
O169 O 0.37404 0.35879 0.02513 0.0
O170 O 0.3661 0.36989 0.98522 0.0
O171 O 0.38956 0.36721 0.9842 0.0
C172 C 0.43663 0.36947 0.06304 0.0
C173 C 0.42588 0.35255 0.07007 0.0
H174 H 0.40164 0.31956 0.07932 0.0
H175 H 0.37409 0.30319 0.05985 0.0
H176 H 0.44231 0.41197 0.01615 0.0
H177 H 0.45385 0.40137 0.04493 0.0
H178 H 0.4489 0.37712 0.07077 0.0
H179 H 0.43 0.3475 0.08319 0.0
Mn180 Mn 0.65037 0.9996 0.00718 0.0
Mn181 Mn 0.61645 0.95981 0.00798 0.0
C182 C 0.62681 0.9929 0.98579 0.0
C183 C 0.67689 0.01923 0.99394 0.0
C184 C 0.62331 0.98622 0.04222 0.0
O185 O 0.66003 0.98583 0.02172 0.0
O186 O 0.63666 0.9598 0.02069 0.0
C187 C 0.62936 0.94425 0.97687 0.0
N188 N 0.6171 0.94797 0.98302 0.0
C189 C 0.59929 0.93273 0.95295 0.0
C190 C 0.6117 0.92869 0.9463 0.0
C191 C 0.62686 0.93458 0.95823 0.0
C192 C 0.60269 0.94277 0.97135 0.0
H193 H 0.64094 0.9486 0.98615 0.0
C194 C 0.65229 0.96982 0.02564 0.0
O195 O 0.67207 0.02125 0.01268 0.0
O196 O 0.66653 0.00569 0.98314 0.0
N197 N 0.59577 0.95753 0.99623 0.0
C198 C 0.58496 0.96227 0.00508 0.0
C199 C 0.56911 0.95721 0.99527 0.0
C200 C 0.56433 0.94692 0.97685 0.0
C201 C 0.57555 0.94196 0.96824 0.0
C202 C 0.59128 0.94761 0.97852 0.0
H203 H 0.58838 0.96979 0.01956 0.0
O204 O 0.63751 0.0087 0.99059 0.0
O205 O 0.63042 0.98152 0.99325 0.0
O206 O 0.637 0.99814 0.03417 0.0
O207 O 0.61469 0.97138 0.0338 0.0
C208 C 0.57159 0.93131 0.95015 0.0
C209 C 0.58357 0.92696 0.94227 0.0
H210 H 0.60971 0.92102 0.9321 0.0
H211 H 0.63651 0.93153 0.9532 0.0
H212 H 0.56049 0.96102 0.00207 0.0
H213 H 0.55195 0.94278 0.96958 0.0
H214 H 0.55938 0.92645 0.9421 0.0
H215 H 0.58046 0.91898 0.92816 0.0
Mn216 Mn 0.66119 0.68507 0.3442 0.0
Mn217 Mn 0.69889 0.72167 0.34905 0.0
C218 C 0.66689 0.70844 0.32279 0.0
C219 C 0.64399 0.6579 0.32972 0.0
C220 C 0.66979 0.71147 0.37973 0.0
O221 O 0.67569 0.67715 0.36064 0.0
O222 O 0.70017 0.70219 0.36202 0.0
C223 C 0.719 0.71211 0.32072 0.0
N224 N 0.7135 0.72323 0.32623 0.0
C225 C 0.73117 0.7435 0.29966 0.0
C226 C 0.73707 0.73229 0.2937 0.0
C227 C 0.73087 0.71647 0.30419 0.0
C228 C 0.7191 0.7383 0.31595 0.0
H229 H 0.71443 0.70005 0.32894 0.0
C230 C 0.69135 0.68617 0.36597 0.0
O231 O 0.64051 0.66236 0.34789 0.0
O232 O 0.65776 0.6691 0.32022 0.0
N233 N 0.70008 0.7419 0.33725 0.0
C234 C 0.69279 0.75104 0.3446 0.0
C235 C 0.6979 0.76736 0.3362 0.0
C236 C 0.71063 0.77421 0.3206 0.0
C237 C 0.71774 0.76446 0.31298 0.0
C238 C 0.71221 0.74832 0.32205 0.0
H239 H 0.68343 0.74607 0.3571 0.0
O240 O 0.65135 0.6965 0.3262 0.0
O241 O 0.67882 0.70629 0.3317 0.0
O242 O 0.65945 0.69733 0.37082 0.0
O243 O 0.68476 0.72156 0.37299 0.0
C244 C 0.73025 0.77019 0.29697 0.0
C245 C 0.73681 0.75963 0.29013 0.0
H246 H 0.74634 0.73569 0.2811 0.0
H247 H 0.73534 0.70775 0.29967 0.0
H248 H 0.69229 0.77479 0.34205 0.0
H249 H 0.71484 0.78699 0.31457 0.0
H250 H 0.73482 0.78265 0.28968 0.0
H251 H 0.74623 0.76408 0.27759 0.0
Mn252 Mn 0.31693 0.98115 0.35151 0.0
Mn253 Mn 0.32065 0.94552 0.35241 0.0
C254 C 0.29834 0.95785 0.37178 0.0
C255 C 0.32489 0.00833 0.36451 0.0
C256 C 0.3038 0.95425 0.31591 0.0
O257 O 0.34036 0.98934 0.33868 0.0
O258 O 0.34208 0.96528 0.34216 0.0
C259 C 0.34662 0.95628 0.38695 0.0
N260 N 0.33113 0.94469 0.37875 0.0
C261 C 0.32602 0.92543 0.40813 0.0
C262 C 0.34197 0.93708 0.41683 0.0
C263 C 0.35227 0.95263 0.40626 0.0
C264 C 0.32097 0.9299 0.38902 0.0
H265 H 0.3546 0.96819 0.3788 0.0
C266 C 0.34836 0.98102 0.33691 0.0
O267 O 0.31865 0.00375 0.34533 0.0
O268 O 0.32685 0.99731 0.37592 0.0
N269 N 0.30111 0.92515 0.36208 0.0
C270 C 0.28585 0.91559 0.35192 0.0
C271 C 0.27405 0.89962 0.36037 0.0
C272 C 0.2782 0.89351 0.37892 0.0
C273 C 0.29394 0.90361 0.38916 0.0
C274 C 0.30517 0.91942 0.38002 0.0
H275 H 0.28277 0.92004 0.33736 0.0
O276 O 0.29454 0.96954 0.36629 0.0
O277 O 0.31322 0.96041 0.36587 0.0
O278 O 0.30558 0.96809 0.32396 0.0
O279 O 0.30933 0.9451 0.32496 0.0
C280 C 0.29902 0.89855 0.40798 0.0
C281 C 0.31493 0.90956 0.41763 0.0
H282 H 0.34642 0.93426 0.43164 0.0
H283 H 0.36457 0.96172 0.41292 0.0
H284 H 0.2619 0.89191 0.35243 0.0
H285 H 0.26921 0.88101 0.38511 0.0
H286 H 0.29071 0.88628 0.41529 0.0
H287 H 0.31855 0.90567 0.4323 0.0
Mn288 Mn 0.01821 0.33254 0.34403 0.0
Mn289 Mn 0.05283 0.37194 0.34243 0.0
C290 C 0.04154 0.33914 0.36603 0.0
C291 C 0.99124 0.31351 0.35744 0.0
C292 C 0.04607 0.34442 0.30983 0.0
O293 O 0.00907 0.34635 0.32836 0.0
O294 O 0.03305 0.37185 0.32812 0.0
C295 C 0.03945 0.38868 0.37105 0.0
N296 N 0.05186 0.38486 0.36604 0.0
C297 C 0.06942 0.40163 0.3955 0.0
C298 C 0.05686 0.40581 0.40097 0.0
C299 C 0.04176 0.39922 0.38876 0.0
C300 C 0.06625 0.39081 0.37794 0.0
H301 H 0.02789 0.38376 0.3616 0.0
C302 C 0.01731 0.36215 0.32336 0.0
O303 O 0.9962 0.31092 0.33908 0.0
O304 O 0.00178 0.32729 0.36771 0.0
N305 N 0.07324 0.3746 0.35554 0.0
C306 C 0.08394 0.3691 0.34834 0.0
C307 C 0.0999 0.37503 0.35827 0.0
C308 C 0.10476 0.3867 0.37529 0.0
C309 C 0.0934 0.39189 0.38275 0.0
C310 C 0.07774 0.38568 0.37209 0.0
H311 H 0.0804 0.36039 0.335 0.0
O312 O 0.03054 0.32336 0.36155 0.0
O313 O 0.03838 0.35069 0.35797 0.0
O314 O 0.03176 0.33311 0.31737 0.0
O315 O 0.05498 0.3593 0.31805 0.0
C316 C 0.09708 0.40316 0.40013 0.0
C317 C 0.08499 0.40783 0.4067 0.0
H318 H 0.05867 0.41406 0.41448 0.0
H319 H 0.03199 0.40236 0.39289 0.0
H320 H 0.10854 0.37083 0.35259 0.0
H321 H 0.11728 0.39162 0.3825 0.0
H322 H 0.10911 0.40823 0.40867 0.0
H323 H 0.08787 0.41632 0.42027 0.0
Mn324 Mn 0.67305 0.98147 0.33761 0.0
Mn325 Mn 0.71213 0.98535 0.34196 0.0
C326 C 0.68033 0.96482 0.31657 0.0
C327 C 0.65412 0.98954 0.32309 0.0
C328 C 0.68398 0.96553 0.3737 0.0
O329 O 0.68653 0.00423 0.35345 0.0
O330 O 0.71207 0.00555 0.35441 0.0
C331 C 0.72991 0.01464 0.31243 0.0
N332 N 0.72548 0.99835 0.31827 0.0
C333 C 0.74263 0.99628 0.29051 0.0
C334 C 0.74741 0.01305 0.28419 0.0
C335 C 0.7409 0.02222 0.29509 0.0
C336 C 0.73123 0.98923 0.30748 0.0
H337 H 0.72515 0.02183 0.32099 0.0
C338 C 0.70235 0.01181 0.35841 0.0
O339 O 0.65144 0.98198 0.34152 0.0
O340 O 0.66804 0.99282 0.31333 0.0
N341 N 0.71448 0.96691 0.33055 0.0
C342 C 0.70883 0.95098 0.33889 0.0
C343 C 0.7143 0.94019 0.32997 0.0
C344 C 0.72593 0.94609 0.31305 0.0
C345 C 0.73179 0.96264 0.30497 0.0
C346 C 0.72562 0.97268 0.3142 0.0
H347 H 0.70029 0.94655 0.35232 0.0
O348 O 0.66447 0.96016 0.32003 0.0
O349 O 0.69147 0.97924 0.32515 0.0
O350 O 0.67289 0.96834 0.36454 0.0
O351 O 0.69912 0.97142 0.36671 0.0
C352 C 0.74384 0.96974 0.28847 0.0
C353 C 0.74899 0.98641 0.28095 0.0
H354 H 0.75612 0.01904 0.27106 0.0
H355 H 0.74453 0.03517 0.29032 0.0
H356 H 0.70978 0.92747 0.33636 0.0
H357 H 0.73039 0.93786 0.30652 0.0
H358 H 0.74914 0.96243 0.28133 0.0
H359 H 0.75803 0.9916 0.268 0.0
Mn360 Mn 0.01739 0.68753 0.34156 0.0
Mn361 Mn 0.05199 0.68233 0.341 0.0
C362 C 0.0401 0.70335 0.36457 0.0
C363 C 0.99001 0.67918 0.35385 0.0
C364 C 0.04558 0.70342 0.30796 0.0
O365 O 0.00888 0.66521 0.32499 0.0
O366 O 0.03236 0.66251 0.32713 0.0
C367 C 0.03907 0.65282 0.37059 0.0
N368 N 0.05117 0.66903 0.36534 0.0
C369 C 0.06838 0.67079 0.39589 0.0
C370 C 0.05614 0.65409 0.40161 0.0
C371 C 0.04137 0.64512 0.38898 0.0
C372 C 0.0652 0.67794 0.37768 0.0
H373 H 0.02778 0.64583 0.36079 0.0
C374 C 0.0169 0.6571 0.32128 0.0
O375 O 0.99554 0.68752 0.33604 0.0
O376 O 1.00027 0.67545 0.36426 0.0
N377 N 0.07218 0.70036 0.35383 0.0
C378 C 0.08297 0.71615 0.34572 0.0
C379 C 0.09853 0.72666 0.35618 0.0
C380 C 0.10306 0.72066 0.3745 0.0
C381 C 0.09188 0.70426 0.38236 0.0
C382 C 0.07646 0.69443 0.37139 0.0
H383 H 0.07977 0.72067 0.33131 0.0
O384 O 0.0291 0.70829 0.36015 0.0
O385 O 0.0372 0.68901 0.35594 0.0
O386 O 0.03164 0.7013 0.31583 0.0
O387 O 0.05394 0.69659 0.31589 0.0
C388 C 0.0956 0.69711 0.40033 0.0
C389 C 0.08374 0.68051 0.40732 0.0
H390 H 0.05798 0.64802 0.41563 0.0
H391 H 0.03185 0.63223 0.39329 0.0
H392 H 0.10714 0.73926 0.34995 0.0
H393 H 0.11524 0.72868 0.38224 0.0
H394 H 0.10756 0.70428 0.40893 0.0
H395 H 0.08667 0.67525 0.42133 0.0
Mn396 Mn 0.31258 0.33423 0.33949 0.0
Mn397 Mn 0.27813 0.29473 0.34064 0.0
C398 C 0.28954 0.32747 0.31706 0.0
C399 C 0.33952 0.35356 0.32676 0.0
C400 C 0.28439 0.32206 0.37314 0.0
O401 O 0.32175 0.32063 0.35542 0.0
O402 O 0.29777 0.29511 0.35569 0.0
C403 C 0.29227 0.27819 0.31289 0.0
N404 N 0.27967 0.28189 0.31734 0.0
C405 C 0.26277 0.26507 0.2875 0.0
C406 C 0.27552 0.26102 0.28262 0.0
C407 C 0.29038 0.2677 0.2953 0.0
C408 C 0.26551 0.27584 0.30498 0.0
H409 H 0.30364 0.28318 0.32272 0.0
C410 C 0.31344 0.30489 0.36065 0.0
O411 O 0.33418 0.35596 0.34494 0.0
O412 O 0.32935 0.33975 0.31627 0.0
N413 N 0.25789 0.29188 0.32681 0.0
C414 C 0.24697 0.29726 0.33348 0.0
C415 C 0.23121 0.29126 0.32299 0.0
C416 C 0.22677 0.27964 0.30598 0.0
C417 C 0.23836 0.27455 0.2991 0.0
C418 C 0.25381 0.28084 0.31028 0.0
H419 H 0.25019 0.30594 0.3468 0.0
O420 O 0.3003 0.34328 0.32173 0.0
O421 O 0.29273 0.31598 0.32524 0.0
O422 O 0.29876 0.33337 0.36584 0.0
O423 O 0.27543 0.30727 0.36472 0.0
C424 C 0.2351 0.26331 0.28179 0.0
C425 C 0.2474 0.25877 0.27579 0.0
H426 H 0.27404 0.2528 0.26918 0.0
H427 H 0.3003 0.26466 0.29163 0.0
H428 H 0.22238 0.29537 0.32824 0.0
H429 H 0.2144 0.27468 0.29832 0.0
H430 H 0.22323 0.25818 0.27286 0.0
H431 H 0.24485 0.25031 0.26228 0.0
Mn432 Mn 0.33088 0.01825 0.67168 0.0
Mn433 Mn 0.37122 0.05108 0.67396 0.0
C434 C 0.33911 0.04184 0.64976 0.0
C435 C 0.31097 0.99162 0.6581 0.0
C436 C 0.34436 0.04533 0.7069 0.0
O437 O 0.34343 0.00812 0.68822 0.0
O438 O 0.37031 0.03009 0.68564 0.0
C439 C 0.38632 0.03801 0.64243 0.0
N440 N 0.38317 0.05058 0.64917 0.0
C441 C 0.39939 0.06902 0.62032 0.0
C442 C 0.40294 0.05633 0.61315 0.0
C443 C 0.39625 0.04069 0.62416 0.0
C444 C 0.38908 0.06544 0.63832 0.0
H445 H 0.3813 0.02604 0.65095 0.0
C446 C 0.35947 0.01483 0.69114 0.0
O447 O 0.30864 0.99709 0.67627 0.0
O448 O 0.32505 0.00142 0.64817 0.0
N449 N 0.37432 0.07237 0.66308 0.0
C450 C 0.36976 0.0833 0.67212 0.0
C451 C 0.37536 0.0995 0.66298 0.0
C452 C 0.38599 0.10449 0.64506 0.0
C453 C 0.39083 0.09317 0.63632 0.0
C454 C 0.3846 0.07708 0.64586 0.0
H455 H 0.36195 0.07972 0.68623 0.0
O456 O 0.32311 0.03152 0.65347 0.0
O457 O 0.34976 0.03774 0.6584 0.0
O458 O 0.33207 0.03237 0.69781 0.0
O459 O 0.3596 0.05283 0.6998 0.0
C460 C 0.40186 0.09734 0.61878 0.0
C461 C 0.40588 0.08517 0.61052 0.0
H462 H 0.41078 0.05845 0.59922 0.0
H463 H 0.39887 0.0308 0.61868 0.0
H464 H 0.37166 0.1082 0.66991 0.0
H465 H 0.39047 0.11708 0.63824 0.0
H466 H 0.40724 0.10985 0.6114 0.0
H467 H 0.41411 0.08842 0.59677 0.0
Mn468 Mn 0.97993 0.31622 0.68477 0.0
Mn469 Mn 0.9843 0.28101 0.68325 0.0
C470 C 0.9622 0.29265 0.70524 0.0
C471 C 0.98819 0.34325 0.69863 0.0
C472 C 0.96678 0.29047 0.64819 0.0
O473 O 0.00283 0.32468 0.67038 0.0
O474 O 0.00579 0.30127 0.67405 0.0
C475 C 0.01014 0.28999 0.71765 0.0
N476 N 0.99468 0.27886 0.70897 0.0
C477 C 0.98973 0.2578 0.73599 0.0
C478 C 0.00566 0.26897 0.74515 0.0
C479 C 0.01585 0.28519 0.73603 0.0
C480 C 0.98462 0.26338 0.71786 0.0
H481 H 0.01804 0.3024 0.71056 0.0
C482 C 0.01137 0.31689 0.66868 0.0
O483 O 0.98115 0.33872 0.67982 0.0
O484 O 0.99075 0.33221 0.70916 0.0
N485 N 0.96467 0.26026 0.6918 0.0
C486 C 0.94926 0.25145 0.68173 0.0
C487 C 0.93742 0.23506 0.68903 0.0
C488 C 0.94165 0.2278 0.70635 0.0
C489 C 0.95753 0.23718 0.7166 0.0
C490 C 0.96879 0.25345 0.70863 0.0
H491 H 0.94611 0.2568 0.66809 0.0
O492 O 0.95815 0.30433 0.70077 0.0
O493 O 0.97688 0.29538 0.69821 0.0
O494 O 0.9677 0.30353 0.65745 0.0
O495 O 0.97316 0.28169 0.65611 0.0
C496 C 0.96265 0.23102 0.73435 0.0
C497 C 0.97866 0.24138 0.74418 0.0
H498 H 0.01015 0.26528 0.75925 0.0
H499 H 0.02813 0.29392 0.74306 0.0
H500 H 0.92515 0.22793 0.68112 0.0
H501 H 0.9326 0.21503 0.71166 0.0
H502 H 0.95429 0.21839 0.74075 0.0
H503 H 0.98231 0.23664 0.75807 0.0
Mn504 Mn 0.68549 0.66837 0.67862 0.0
Mn505 Mn 0.71966 0.70791 0.67437 0.0
C506 C 0.70953 0.6759 0.69957 0.0
C507 C 0.65891 0.64978 0.6933 0.0
C508 C 0.71183 0.67942 0.64274 0.0
O509 O 0.67577 0.68152 0.66251 0.0
O510 O 0.69918 0.70748 0.6618 0.0
C511 C 0.70789 0.72544 0.7041 0.0
N512 N 0.71995 0.72138 0.69809 0.0
C513 C 0.73889 0.73856 0.72634 0.0
C514 C 0.72672 0.74299 0.7328 0.0
C515 C 0.7111 0.73631 0.7217 0.0
C516 C 0.73485 0.72744 0.70892 0.0
H517 H 0.69594 0.72044 0.69549 0.0
C518 C 0.68343 0.69735 0.65756 0.0
O519 O 0.66352 0.64655 0.67508 0.0
O520 O 0.66963 0.66393 0.70277 0.0
N521 N 0.74065 0.71075 0.68576 0.0
C522 C 0.7509 0.70501 0.67765 0.0
C523 C 0.76714 0.71073 0.68667 0.0
C524 C 0.77277 0.72252 0.70364 0.0
C525 C 0.76196 0.72817 0.7118 0.0
C526 C 0.74594 0.72204 0.70215 0.0
H527 H 0.7468 0.69629 0.66425 0.0
O528 O 0.69841 0.65995 0.69628 0.0
O529 O 0.706 0.68708 0.69109 0.0
O530 O 0.69835 0.66799 0.65182 0.0
O531 O 0.72053 0.69476 0.64967 0.0
C532 C 0.76653 0.7398 0.72896 0.0
C533 C 0.75491 0.7448 0.73643 0.0
H534 H 0.72921 0.75149 0.74626 0.0
H535 H 0.70162 0.73964 0.72661 0.0
H536 H 0.7754 0.70629 0.68034 0.0
H537 H 0.78547 0.72723 0.71018 0.0
H538 H 0.77891 0.74491 0.73664 0.0
H539 H 0.75847 0.75354 0.74983 0.0
Mn540 Mn 0.33694 0.31892 0.6699 0.0
Mn541 Mn 0.37671 0.32438 0.67116 0.0
C542 C 0.34374 0.3021 0.64851 0.0
C543 C 0.3173 0.32651 0.65675 0.0
C544 C 0.3505 0.30532 0.70554 0.0
O545 O 0.35065 0.34193 0.68499 0.0
O546 O 0.37695 0.3452 0.6821 0.0
C547 C 0.39182 0.35151 0.63826 0.0
N548 N 0.38835 0.33586 0.64575 0.0
C549 C 0.40398 0.3323 0.61718 0.0
C550 C 0.40785 0.34844 0.60923 0.0
C551 C 0.4016 0.35802 0.61972 0.0
C552 C 0.3938 0.3263 0.63538 0.0
H553 H 0.38716 0.35896 0.64641 0.0
C554 C 0.36678 0.35061 0.68746 0.0
O555 O 0.31536 0.3192 0.67526 0.0
O556 O 0.33079 0.32967 0.64605 0.0
N557 N 0.37879 0.30545 0.66096 0.0
C558 C 0.3738 0.29007 0.67061 0.0
C559 C 0.37899 0.27893 0.66214 0.0
C560 C 0.38966 0.28391 0.64426 0.0
C561 C 0.39479 0.29988 0.63473 0.0
C562 C 0.38896 0.31031 0.64364 0.0
H563 H 0.366 0.28637 0.68473 0.0
O564 O 0.32798 0.29729 0.65289 0.0
O565 O 0.355 0.31684 0.65622 0.0
O566 O 0.33836 0.30657 0.69669 0.0
O567 O 0.36547 0.31198 0.6977 0.0
C568 C 0.40573 0.306 0.61702 0.0
C569 C 0.41004 0.32204 0.60797 0.0
H570 H 0.41561 0.35361 0.59512 0.0
H571 H 0.40447 0.37046 0.61365 0.0
H572 H 0.37501 0.26665 0.66961 0.0
H573 H 0.39391 0.27541 0.63804 0.0
H574 H 0.41077 0.2984 0.61007 0.0
H575 H 0.41817 0.32644 0.59408 0.0
Mn576 Mn 0.68531 0.02098 0.68128 0.0
Mn577 Mn 0.71942 0.01514 0.67766 0.0
C578 C 0.70901 0.03653 0.70304 0.0
C579 C 0.65857 0.01314 0.69552 0.0
C580 C 0.71207 0.03642 0.64596 0.0
O581 O 0.67582 0.99859 0.66455 0.0
O582 O 0.69911 0.99552 0.66466 0.0
C583 C 0.70729 0.9856 0.70709 0.0
N584 N 0.71933 0.00175 0.70151 0.0
C585 C 0.73758 0.00323 0.73071 0.0
C586 C 0.7254 0.9866 0.73676 0.0
C587 C 0.71014 0.97779 0.72497 0.0
C588 C 0.73385 0.0105 0.71306 0.0
H589 H 0.69562 0.97873 0.69793 0.0
C590 C 0.68349 0.99031 0.65983 0.0
O591 O 0.66346 0.0213 0.67749 0.0
O592 O 0.66908 0.00924 0.70498 0.0
N593 N 0.74022 0.03298 0.68953 0.0
C594 C 0.75085 0.04873 0.68119 0.0
C595 C 0.76679 0.05911 0.6909 0.0
C596 C 0.77184 0.05301 0.70867 0.0
C597 C 0.76084 0.03662 0.71668 0.0
C598 C 0.74503 0.02694 0.70652 0.0
H599 H 0.74721 0.05332 0.66721 0.0
O600 O 0.69807 0.04174 0.69971 0.0
O601 O 0.7055 0.02212 0.69405 0.0
O602 O 0.69861 0.03459 0.65494 0.0
O603 O 0.72059 0.02944 0.65292 0.0
C604 C 0.76512 0.02933 0.73402 0.0
C605 C 0.75338 0.01278 0.74129 0.0
H606 H 0.72766 0.98044 0.75037 0.0
H607 H 0.70067 0.96495 0.72954 0.0
H608 H 0.77526 0.0717 0.68453 0.0
H609 H 0.78427 0.06096 0.71587 0.0
H610 H 0.7774 0.03635 0.74193 0.0
H611 H 0.75673 0.00742 0.75482 0.0
Mn612 Mn 0.98002 0.6686 0.66916 0.0
Mn613 Mn 0.94433 0.63009 0.67134 0.0
C614 C 0.95716 0.66259 0.64672 0.0
C615 C 0.00718 0.68668 0.65601 0.0
C616 C 0.95222 0.6584 0.703 0.0
O617 O 0.98823 0.6544 0.68557 0.0
O618 O 0.9635 0.6296 0.68652 0.0
C619 C 0.95685 0.61168 0.64425 0.0
N620 N 0.94488 0.6163 0.64851 0.0
C621 C 0.92715 0.59923 0.61933 0.0
C622 C 0.93925 0.59422 0.61465 0.0
C623 C 0.95421 0.60056 0.62709 0.0
C624 C 0.93064 0.61059 0.63637 0.0
H625 H 0.96828 0.61639 0.65391 0.0
C626 C 0.9793 0.63884 0.69127 0.0
O627 O 0.00224 0.68976 0.67409 0.0
O628 O 0.99647 0.67288 0.64588 0.0
N629 N 0.92445 0.62809 0.65747 0.0
C630 C 0.91427 0.63447 0.66382 0.0
C631 C 0.89849 0.62894 0.65356 0.0
C632 C 0.89329 0.61677 0.63708 0.0
C633 C 0.90415 0.61068 0.63046 0.0
C634 C 0.91964 0.61655 0.64141 0.0
H635 H 0.91807 0.64356 0.67676 0.0
O636 O 0.96852 0.67828 0.65102 0.0
O637 O 0.95964 0.65075 0.65532 0.0
O638 O 0.96676 0.66904 0.69544 0.0
O639 O 0.94261 0.64359 0.69497 0.0
C640 C 0.90013 0.59886 0.61363 0.0
C641 C 0.91173 0.59334 0.60786 0.0
H642 H 0.93718 0.58553 0.60156 0.0
H643 H 0.96362 0.59678 0.62357 0.0
H644 H 0.89025 0.63383 0.65858 0.0
H645 H 0.88091 0.61219 0.6296 0.0
H646 H 0.8882 0.59405 0.60489 0.0
H647 H 0.90861 0.58444 0.5947 0.0
H648 H 0.14849 0.34828 0.1745 0.0
H649 H 0.12657 0.34895 0.19678 0.0
H650 H 0.09512 0.29425 0.18969 0.0
H651 H 0.1169 0.29372 0.16671 0.0
H652 H 0.16333 0.32392 0.18366 0.0
H653 H 0.13647 0.34266 0.13168 0.0
H654 H 0.11099 0.34048 0.11481 0.0
H655 H 0.09695 0.28982 0.09194 0.0
H656 H 0.12262 0.29204 0.10924 0.0
H657 H 0.17441 0.30033 0.10018 0.0
H658 H 0.19863 0.3037 0.07921 0.0
H659 H 0.23191 0.34934 0.11532 0.0
H660 H 0.20758 0.34667 0.13474 0.0
H661 H 0.15855 0.31761 0.10465 0.0
H662 H 0.18544 0.29851 0.15699 0.0
H663 H 0.207 0.29818 0.18101 0.0
H664 H 0.2197 0.34826 0.20453 0.0
H665 H 0.19792 0.34842 0.18082 0.0
C666 C 0.13425 0.32097 0.16899 0.0
C667 C 0.13681 0.33647 0.17759 0.0
C668 C 0.12429 0.33685 0.19018 0.0
C669 C 0.1092 0.32166 0.1948 0.0
C670 C 0.10666 0.30611 0.18625 0.0
C671 C 0.11904 0.3058 0.17321 0.0
C672 C 0.14773 0.32069 0.15597 0.0
C673 C 0.16238 0.32267 0.16637 0.0
C674 C 0.14619 0.31854 0.13355 0.0
C675 C 0.13126 0.3174 0.122 0.0
C676 C 0.12784 0.33101 0.12322 0.0
C677 C 0.11323 0.32971 0.11365 0.0
C678 C 0.10181 0.31483 0.10242 0.0
C679 C 0.1055 0.30138 0.1006 0.0
C680 C 0.12014 0.30266 0.11039 0.0
C681 C 0.18915 0.32303 0.1194 0.0
C682 C 0.18691 0.31115 0.1034 0.0
C683 C 0.20085 0.313 0.09156 0.0
C684 C 0.21736 0.32676 0.09555 0.0
C685 C 0.21945 0.33871 0.11146 0.0
C686 C 0.20551 0.33701 0.12296 0.0
C687 C 0.17449 0.32107 0.13234 0.0
C688 C 0.15952 0.31864 0.12194 0.0
C689 C 0.17566 0.3227 0.1549 0.0
C690 C 0.19011 0.32347 0.16723 0.0
C691 C 0.19309 0.30954 0.16705 0.0
C692 C 0.20535 0.30935 0.18072 0.0
C693 C 0.21496 0.32322 0.19449 0.0
C694 C 0.21255 0.33752 0.19387 0.0
C695 C 0.20008 0.33757 0.18049 0.0
H696 H 0.71001 0.87142 0.19082 0.0
H697 H 0.70982 0.89229 0.21496 0.0
H698 H 0.6706 0.89404 0.17626 0.0
H699 H 0.66963 0.87162 0.15336 0.0
H700 H 0.68762 0.8412 0.18548 0.0
H701 H 0.7135 0.88919 0.13798 0.0
H702 H 0.71531 0.91363 0.11805 0.0
H703 H 0.67055 0.87925 0.08148 0.0
H704 H 0.66839 0.85501 0.1018 0.0
H705 H 0.65959 0.80626 0.10764 0.0
H706 H 0.6557 0.7807 0.08872 0.0
H707 H 0.70296 0.78779 0.11608 0.0
H708 H 0.70689 0.81347 0.13465 0.0
H709 H 0.68654 0.84064 0.10621 0.0
H710 H 0.65771 0.79613 0.16391 0.0
H711 H 0.65456 0.7744 0.19018 0.0
H712 H 0.70834 0.80403 0.20529 0.0
H713 H 0.71113 0.82591 0.17977 0.0
C714 C 0.68992 0.86993 0.17012 0.0
C715 C 0.70132 0.87625 0.1875 0.0
C716 C 0.70137 0.88847 0.20119 0.0
C717 C 0.6903 0.89514 0.1976 0.0
C718 C 0.67917 0.88913 0.1798 0.0
C719 C 0.67881 0.87648 0.16639 0.0
C720 C 0.68892 0.85558 0.15713 0.0
C721 C 0.68768 0.84135 0.16812 0.0
C722 C 0.6887 0.85545 0.13444 0.0
C723 C 0.69063 0.87026 0.12164 0.0
C724 C 0.70403 0.88692 0.12574 0.0
C725 C 0.70513 0.90086 0.1143 0.0
C726 C 0.69312 0.89828 0.0982 0.0
C727 C 0.68012 0.88156 0.09361 0.0
C728 C 0.67885 0.86771 0.10525 0.0
C729 C 0.68344 0.81163 0.12266 0.0
C730 C 0.66915 0.80235 0.10942 0.0
C731 C 0.66689 0.78771 0.09876 0.0
C732 C 0.67899 0.78221 0.10101 0.0
C733 C 0.69349 0.79178 0.11393 0.0
C734 C 0.69568 0.80636 0.12467 0.0
C735 C 0.68536 0.82664 0.13473 0.0
C736 C 0.68668 0.84083 0.12356 0.0
C737 C 0.68601 0.82702 0.15723 0.0
C738 C 0.68462 0.81259 0.17011 0.0
C739 C 0.66882 0.79772 0.17268 0.0
C740 C 0.66708 0.78532 0.18762 0.0
C741 C 0.68115 0.78763 0.20008 0.0
C742 C 0.69717 0.80206 0.19634 0.0
C743 C 0.69883 0.81451 0.18167 0.0
H744 H 0.12869 0.83652 0.18924 0.0
H745 H 0.10788 0.81375 0.21201 0.0
H746 H 0.11503 0.77652 0.17665 0.0
H747 H 0.1357 0.79937 0.15379 0.0
H748 H 0.1622 0.84482 0.18606 0.0
H749 H 0.11279 0.82366 0.13896 0.0
H750 H 0.0892 0.80004 0.11958 0.0
H751 H 0.12537 0.79363 0.08154 0.0
H752 H 0.14882 0.81679 0.10123 0.0
H753 H 0.20618 0.86091 0.13135 0.0
H754 H 0.23101 0.88171 0.1115 0.0
H755 H 0.20398 0.90871 0.09408 0.0
H756 H 0.17891 0.88721 0.11302 0.0
H757 H 0.16097 0.84908 0.10704 0.0
H758 H 0.19286 0.84927 0.18686 0.0
H759 H 0.21637 0.86761 0.21079 0.0
H760 H 0.21743 0.9123 0.18321 0.0
H761 H 0.19353 0.89384 0.15952 0.0
C762 C 0.13368 0.81965 0.16975 0.0
C763 C 0.12562 0.82342 0.18626 0.0
C764 C 0.11379 0.8104 0.19931 0.0
C765 C 0.10986 0.79332 0.19625 0.0
C766 C 0.1176 0.7895 0.17929 0.0
C767 C 0.12945 0.80256 0.16622 0.0
C768 C 0.14746 0.83376 0.15741 0.0
C769 C 0.16188 0.8458 0.16877 0.0
C770 C 0.14706 0.83489 0.13482 0.0
C771 C 0.13262 0.82187 0.12179 0.0
C772 C 0.11564 0.81717 0.12645 0.0
C773 C 0.10217 0.80372 0.11534 0.0
C774 C 0.10546 0.79501 0.09907 0.0
C775 C 0.12245 0.80024 0.09382 0.0
C776 C 0.13587 0.81349 0.10509 0.0
C777 C 0.19077 0.87258 0.12368 0.0
C778 C 0.20564 0.8713 0.12315 0.0
C779 C 0.21988 0.88331 0.11192 0.0
C780 C 0.21965 0.89705 0.1012 0.0
C781 C 0.20462 0.89821 0.10177 0.0
C782 C 0.19028 0.88599 0.11272 0.0
C783 C 0.17575 0.85991 0.13575 0.0
C784 C 0.16115 0.84817 0.12433 0.0
C785 C 0.17617 0.85866 0.15826 0.0
C786 C 0.19141 0.87014 0.17134 0.0
C787 C 0.19815 0.86301 0.18588 0.0
C788 C 0.21158 0.87349 0.19955 0.0
C789 C 0.21863 0.89135 0.19892 0.0
C790 C 0.21229 0.89857 0.1839 0.0
C791 C 0.19868 0.88804 0.17033 0.0
H792 H 0.29134 0.17398 0.82707 0.0
H793 H 0.29652 0.19828 0.80437 0.0
H794 H 0.34211 0.23068 0.84098 0.0
H795 H 0.33669 0.20633 0.86382 0.0
H796 H 0.3138 0.16169 0.82987 0.0
H797 H 0.28919 0.18567 0.87746 0.0
H798 H 0.29102 0.21 0.89733 0.0
H799 H 0.33204 0.21203 0.9358 0.0
H800 H 0.33044 0.18803 0.91569 0.0
H801 H 0.3379 0.13839 0.87895 0.0
H802 H 0.34022 0.11562 0.89745 0.0
H803 H 0.29078 0.09817 0.92552 0.0
H804 H 0.28853 0.12109 0.90685 0.0
H805 H 0.30889 0.15624 0.90877 0.0
H806 H 0.33812 0.15468 0.82853 0.0
H807 H 0.34252 0.13552 0.80516 0.0
H808 H 0.29833 0.0921 0.83186 0.0
H809 H 0.29367 0.11142 0.85501 0.0
C810 C 0.31359 0.18836 0.84716 0.0
C811 C 0.3023 0.18639 0.8304 0.0
C812 C 0.30534 0.20026 0.81738 0.0
C813 C 0.31983 0.21638 0.82073 0.0
C814 C 0.33076 0.21849 0.83809 0.0
C815 C 0.32768 0.20458 0.85115 0.0
C816 C 0.31158 0.17311 0.85895 0.0
C817 C 0.31257 0.16041 0.84712 0.0
C818 C 0.31013 0.17161 0.88147 0.0
C819 C 0.30984 0.18513 0.89485 0.0
C820 C 0.29857 0.19134 0.89018 0.0
C821 C 0.29959 0.20522 0.90156 0.0
C822 C 0.31169 0.21294 0.91809 0.0
C823 C 0.32245 0.20623 0.92333 0.0
C824 C 0.32155 0.1925 0.91182 0.0
C825 C 0.31293 0.1313 0.89128 0.0
C826 C 0.32748 0.12957 0.88891 0.0
C827 C 0.32875 0.11649 0.89943 0.0
C828 C 0.31559 0.10495 0.91276 0.0
C829 C 0.30114 0.10687 0.9154 0.0
C830 C 0.29984 0.11995 0.90476 0.0
C831 C 0.31148 0.14499 0.87965 0.0
C832 C 0.30982 0.15737 0.89149 0.0
C833 C 0.31288 0.14655 0.85712 0.0
C834 C 0.31556 0.13453 0.84355 0.0
C835 C 0.32929 0.14105 0.82932 0.0
C836 C 0.33182 0.1301 0.81599 0.0
C837 C 0.32072 0.11236 0.81666 0.0
C838 C 0.30713 0.10574 0.83115 0.0
C839 C 0.30448 0.11675 0.84436 0.0
H840 H 0.82955 0.12964 0.8343 0.0
H841 H 0.80976 0.10803 0.80992 0.0
H842 H 0.76797 0.11056 0.83997 0.0
H843 H 0.78826 0.13406 0.862 0.0
H844 H 0.8382 0.16042 0.83466 0.0
H845 H 0.81959 0.12104 0.89946 0.0
H846 H 0.79726 0.09922 0.92157 0.0
H847 H 0.77053 0.12828 0.92005 0.0
H848 H 0.79384 0.15067 0.8999 0.0
H849 H 0.84468 0.20129 0.90872 0.0
H850 H 0.86688 0.22569 0.92861 0.0
H851 H 0.90439 0.21264 0.90677 0.0
H852 H 0.8821 0.18806 0.88747 0.0
H853 H 0.83336 0.16681 0.9126 0.0
H854 H 0.85469 0.20775 0.85169 0.0
H855 H 0.87537 0.22795 0.82634 0.0
H856 H 0.89683 0.19444 0.81926 0.0
H857 H 0.87544 0.17397 0.8436 0.0
C858 C 0.81053 0.13347 0.85039 0.0
C859 C 0.81611 0.12557 0.83565 0.0
C860 C 0.8046 0.11288 0.82183 0.0
C861 C 0.787 0.10722 0.82277 0.0
C862 C 0.78136 0.11464 0.83825 0.0
C863 C 0.793 0.12785 0.8515 0.0
C864 C 0.82329 0.14862 0.86281 0.0
C865 C 0.83718 0.16156 0.85178 0.0
C866 C 0.82192 0.15067 0.88503 0.0
C867 C 0.8082 0.13731 0.89796 0.0
C868 C 0.80893 0.12266 0.90412 0.0
C869 C 0.796 0.11011 0.91661 0.0
C870 C 0.78184 0.11175 0.92267 0.0
C871 C 0.7813 0.12658 0.91631 0.0
C872 C 0.79453 0.13937 0.90451 0.0
C873 C 0.86177 0.19299 0.8964 0.0
C874 C 0.85769 0.20368 0.90828 0.0
C875 C 0.8704 0.21767 0.91951 0.0
C876 C 0.88741 0.22113 0.9192 0.0
C877 C 0.8914 0.21026 0.90748 0.0
C878 C 0.87871 0.19631 0.89623 0.0
C879 C 0.84834 0.17818 0.88443 0.0
C880 C 0.83433 0.16546 0.89552 0.0
C881 C 0.84966 0.1762 0.86228 0.0
C882 C 0.86356 0.18941 0.84935 0.0
C883 C 0.864 0.20492 0.84479 0.0
C884 C 0.8759 0.21647 0.83038 0.0
C885 C 0.88769 0.21277 0.8205 0.0
C886 C 0.88768 0.19754 0.82607 0.0
C887 C 0.87558 0.18588 0.84013 0.0
H888 H 0.80567 0.65592 0.83033 0.0
H889 H 0.78473 0.6569 0.80587 0.0
H890 H 0.79801 0.70703 0.82978 0.0
H891 H 0.81867 0.7058 0.85474 0.0
H892 H 0.84116 0.68044 0.8306 0.0
H893 H 0.79261 0.65791 0.87363 0.0
H894 H 0.7683 0.65588 0.89223 0.0
H895 H 0.8023 0.69605 0.9355 0.0
H896 H 0.82658 0.69946 0.91493 0.0
H897 H 0.873 0.70156 0.91488 0.0
H898 H 0.89484 0.69962 0.93636 0.0
H899 H 0.88617 0.65507 0.90006 0.0
H900 H 0.86361 0.65634 0.87999 0.0
H901 H 0.83941 0.68028 0.90987 0.0
H902 H 0.88684 0.70631 0.85658 0.0
H903 H 0.90952 0.7067 0.83448 0.0
H904 H 0.87518 0.65475 0.81464 0.0
H905 H 0.85247 0.6546 0.83602 0.0
C906 C 0.81365 0.68077 0.84435 0.0
C907 C 0.80391 0.66702 0.83049 0.0
C908 C 0.79192 0.66754 0.81665 0.0
C909 C 0.78978 0.68201 0.81606 0.0
C910 C 0.79944 0.69573 0.83003 0.0
C911 C 0.81119 0.69504 0.84425 0.0
C912 C 0.82699 0.68047 0.85808 0.0
C913 C 0.84071 0.68037 0.84795 0.0
C914 C 0.82644 0.6805 0.88072 0.0
C915 C 0.81153 0.6792 0.89237 0.0
C916 C 0.79488 0.66676 0.88658 0.0
C917 C 0.7809 0.66531 0.8977 0.0
C918 C 0.78317 0.6757 0.91562 0.0
C919 C 0.7999 0.68802 0.92158 0.0
C920 C 0.81388 0.68983 0.90998 0.0
C921 C 0.86689 0.67932 0.89548 0.0
C922 C 0.87575 0.69131 0.91171 0.0
C923 C 0.88837 0.69027 0.92383 0.0
C924 C 0.89241 0.67724 0.91992 0.0
C925 C 0.88333 0.66517 0.90378 0.0
C926 C 0.87059 0.66606 0.89195 0.0
C927 C 0.85365 0.68049 0.88234 0.0
C928 C 0.83995 0.68072 0.89255 0.0
C929 C 0.85401 0.68042 0.85976 0.0
C930 C 0.86806 0.68041 0.84787 0.0
C931 C 0.8843 0.695 0.84757 0.0
C932 C 0.89718 0.69521 0.83504 0.0
C933 C 0.89402 0.6807 0.82314 0.0
C934 C 0.8779 0.66599 0.82393 0.0
C935 C 0.86495 0.66593 0.83599 0.0
H936 H 0.82106 0.67896 0.51989 0.0
H937 H 0.80094 0.68021 0.54463 0.0
H938 H 0.76037 0.63345 0.51773 0.0
H939 H 0.78069 0.63196 0.49324 0.0
H940 H 0.83199 0.65742 0.5158 0.0
H941 H 0.80204 0.67675 0.47036 0.0
H942 H 0.77656 0.6755 0.45469 0.0
H943 H 0.76354 0.62722 0.42479 0.0
H944 H 0.78912 0.62846 0.44078 0.0
H945 H 0.84457 0.62915 0.44648 0.0
H946 H 0.86903 0.63231 0.42605 0.0
H947 H 0.89095 0.68734 0.42809 0.0
H948 H 0.86681 0.68399 0.44917 0.0
H949 H 0.82332 0.65198 0.4371 0.0
H950 H 0.85056 0.63102 0.48987 0.0
H951 H 0.87285 0.63124 0.51289 0.0
H952 H 0.89068 0.68424 0.52853 0.0
H953 H 0.86827 0.68391 0.50557 0.0
C954 C 0.80243 0.65543 0.50457 0.0
C955 C 0.80787 0.66888 0.51937 0.0
C956 C 0.79636 0.66959 0.53352 0.0
C957 C 0.7791 0.6569 0.53314 0.0
C958 C 0.77358 0.64347 0.51825 0.0
C959 C 0.78518 0.64264 0.50423 0.0
C960 C 0.81499 0.65483 0.4898 0.0
C961 C 0.83004 0.65634 0.4986 0.0
C962 C 0.81244 0.65308 0.46732 0.0
C963 C 0.79734 0.65257 0.45699 0.0
C964 C 0.79363 0.66581 0.46059 0.0
C965 C 0.77902 0.66503 0.45172 0.0
C966 C 0.76792 0.65111 0.4388 0.0
C967 C 0.77185 0.63806 0.43474 0.0
C968 C 0.78645 0.63878 0.44379 0.0
C969 C 0.85394 0.65634 0.44923 0.0
C970 C 0.85461 0.64186 0.4423 0.0
C971 C 0.86858 0.64371 0.43057 0.0
C972 C 0.88205 0.6601 0.42548 0.0
C973 C 0.881 0.67454 0.43203 0.0
C974 C 0.86714 0.67267 0.44389 0.0
C975 C 0.84013 0.65465 0.46331 0.0
C976 C 0.82501 0.65287 0.45434 0.0
C977 C 0.84258 0.6563 0.48563 0.0
C978 C 0.85785 0.65745 0.49609 0.0
C979 C 0.85958 0.64281 0.49778 0.0
C980 C 0.87224 0.64293 0.51093 0.0
C981 C 0.8834 0.65775 0.52246 0.0
C982 C 0.88234 0.67273 0.51963 0.0
C983 C 0.86953 0.67253 0.50665 0.0
H984 H 0.36642 0.2019 0.526 0.0
H985 H 0.36719 0.22334 0.54997 0.0
H986 H 0.32815 0.22595 0.51192 0.0
H987 H 0.32623 0.203 0.48914 0.0
H988 H 0.34417 0.17192 0.52004 0.0
H989 H 0.3704 0.22061 0.47367 0.0
H990 H 0.37254 0.2454 0.45427 0.0
H991 H 0.32736 0.21181 0.41779 0.0
H992 H 0.32502 0.18721 0.43747 0.0
H993 H 0.31512 0.13062 0.4545 0.0
H994 H 0.31349 0.10645 0.43505 0.0
H995 H 0.36864 0.13249 0.43221 0.0
H996 H 0.36992 0.15578 0.45368 0.0
H997 H 0.34418 0.17315 0.44081 0.0
H998 H 0.32205 0.12369 0.4914 0.0
H999 H 0.32424 0.10231 0.51307 0.0
H1000 H 0.36883 0.14272 0.54473 0.0
H1001 H 0.36789 0.16347 0.52087 0.0
C1002 C 0.34635 0.20081 0.5056 0.0
C1003 C 0.35792 0.20697 0.52283 0.0
C1004 C 0.35853 0.21953 0.5364 0.0
C1005 C 0.3479 0.2267 0.53285 0.0
C1006 C 0.33644 0.22069 0.51537 0.0
C1007 C 0.33551 0.20772 0.50206 0.0
C1008 C 0.34527 0.18662 0.49219 0.0
C1009 C 0.34436 0.17235 0.50269 0.0
C1010 C 0.34545 0.18705 0.46953 0.0
C1011 C 0.34738 0.20207 0.45725 0.0
C1012 C 0.36091 0.21861 0.46156 0.0
C1013 C 0.36218 0.23273 0.45043 0.0
C1014 C 0.35017 0.23049 0.43449 0.0
C1015 C 0.33695 0.21388 0.42979 0.0
C1016 C 0.33556 0.19982 0.44107 0.0
C1017 C 0.34262 0.14471 0.45591 0.0
C1018 C 0.32682 0.13097 0.44979 0.0
C1019 C 0.32597 0.11724 0.43835 0.0
C1020 C 0.34094 0.1173 0.43188 0.0
C1021 C 0.35679 0.1316 0.43731 0.0
C1022 C 0.3576 0.14507 0.44942 0.0
C1023 C 0.34336 0.1588 0.46881 0.0
C1024 C 0.34411 0.17293 0.45816 0.0
C1025 C 0.34386 0.15864 0.49139 0.0
C1026 C 0.34513 0.14519 0.50389 0.0
C1027 C 0.33279 0.12782 0.50219 0.0
C1028 C 0.3338 0.1156 0.51518 0.0
C1029 C 0.34675 0.12058 0.53085 0.0
C1030 C 0.35896 0.13808 0.53254 0.0
C1031 C 0.3583 0.15012 0.51904 0.0
H1032 H 0.77954 0.15102 0.49361 0.0
H1033 H 0.75896 0.12884 0.51756 0.0
H1034 H 0.79987 0.12407 0.54727 0.0
H1035 H 0.82021 0.14578 0.5232 0.0
H1036 H 0.82925 0.1777 0.52038 0.0
H1037 H 0.79058 0.16476 0.44181 0.0
H1038 H 0.76679 0.14049 0.42348 0.0
H1039 H 0.78098 0.10603 0.45418 0.0
H1040 H 0.80454 0.1302 0.47236 0.0
H1041 H 0.87446 0.19718 0.47155 0.0
H1042 H 0.89861 0.21794 0.45107 0.0
H1043 H 0.8649 0.22933 0.41341 0.0
H1044 H 0.84092 0.20946 0.43531 0.0
H1045 H 0.82585 0.1764 0.44119 0.0
H1046 H 0.86054 0.18375 0.52076 0.0
H1047 H 0.88324 0.20413 0.54412 0.0
H1048 H 0.88041 0.24583 0.51335 0.0
H1049 H 0.85733 0.22523 0.48997 0.0
C1050 C 0.80146 0.15011 0.50658 0.0
C1051 C 0.78403 0.14503 0.50509 0.0
C1052 C 0.77229 0.1324 0.51878 0.0
C1053 C 0.77787 0.12489 0.5344 0.0
C1054 C 0.79525 0.12984 0.53563 0.0
C1055 C 0.80688 0.14225 0.52186 0.0
C1056 C 0.81436 0.16398 0.4929 0.0
C1057 C 0.82858 0.17736 0.50303 0.0
C1058 C 0.81324 0.16377 0.4703 0.0
C1059 C 0.79917 0.14925 0.45868 0.0
C1060 C 0.78853 0.15196 0.44453 0.0
C1061 C 0.77495 0.1381 0.4341 0.0
C1062 C 0.77184 0.12131 0.43762 0.0
C1063 C 0.78274 0.11874 0.45154 0.0
C1064 C 0.79628 0.13255 0.46186 0.0
C1065 C 0.85586 0.20204 0.45544 0.0
C1066 C 0.87227 0.20438 0.45919 0.0
C1067 C 0.88609 0.21609 0.4471 0.0
C1068 C 0.88383 0.22543 0.43046 0.0
C1069 C 0.86727 0.22268 0.42632 0.0
C1070 C 0.85347 0.21116 0.43871 0.0
C1071 C 0.84123 0.18984 0.46873 0.0
C1072 C 0.82651 0.1769 0.45852 0.0
C1073 C 0.84213 0.19008 0.49138 0.0
C1074 C 0.85713 0.20294 0.50373 0.0
C1075 C 0.86481 0.19728 0.51894 0.0
C1076 C 0.87777 0.20892 0.53229 0.0
C1077 C 0.88339 0.2265 0.5307 0.0
C1078 C 0.87628 0.23232 0.51485 0.0
C1079 C 0.86314 0.22058 0.50151 0.0
H1080 H 0.94813 0.49956 0.16256 0.0
H1081 H 0.95239 0.52369 0.14 0.0
H1082 H 0.99823 0.5569 0.17566 0.0
H1083 H 0.99389 0.53276 0.19814 0.0
H1084 H 0.96957 0.48649 0.16637 0.0
H1085 H 0.94747 0.51347 0.21323 0.0
H1086 H 0.95033 0.53876 0.23181 0.0
H1087 H 0.99232 0.54168 0.26898 0.0
H1088 H 0.98975 0.51676 0.25008 0.0
H1089 H 0.99017 0.47563 0.24995 0.0
H1090 H 0.99288 0.45328 0.26899 0.0
H1091 H 0.95143 0.41468 0.23133 0.0
H1092 H 0.94849 0.43713 0.21254 0.0
H1093 H 0.96745 0.48489 0.2456 0.0
H1094 H 0.99503 0.46508 0.19773 0.0
H1095 H 1.00036 0.44633 0.17466 0.0
H1096 H 0.95423 0.43332 0.13902 0.0
H1097 H 0.94902 0.45218 0.16211 0.0
C1098 C 0.9706 0.51438 0.18215 0.0
C1099 C 0.95902 0.51208 0.16561 0.0
C1100 C 0.96149 0.52586 0.15272 0.0
C1101 C 0.97565 0.54221 0.15604 0.0
C1102 C 0.98705 0.54454 0.17289 0.0
C1103 C 0.9846 0.53074 0.18574 0.0
C1104 C 0.96862 0.49945 0.19475 0.0
C1105 C 0.96869 0.48593 0.18369 0.0
C1106 C 0.96815 0.4991 0.21739 0.0
C1107 C 0.96855 0.51331 0.23002 0.0
C1108 C 0.9573 0.51955 0.22538 0.0
C1109 C 0.9589 0.53396 0.23602 0.0
C1110 C 0.97156 0.54218 0.25181 0.0
C1111 C 0.98232 0.53549 0.25705 0.0
C1112 C 0.98086 0.52124 0.24625 0.0
C1113 C 0.96925 0.45812 0.22963 0.0
C1114 C 0.98145 0.46236 0.246 0.0
C1115 C 0.98298 0.44956 0.25689 0.0
C1116 C 0.97237 0.43222 0.25162 0.0
C1117 C 0.95988 0.42794 0.23558 0.0
C1118 C 0.95823 0.44077 0.22482 0.0
C1119 C 0.96855 0.47195 0.21719 0.0
C1120 C 0.96795 0.48525 0.22827 0.0
C1121 C 0.96906 0.4724 0.19456 0.0
C1122 C 0.97155 0.45993 0.18175 0.0
C1123 C 0.9859 0.45795 0.1852 0.0
C1124 C 0.98893 0.44721 0.17201 0.0
C1125 C 0.97774 0.43837 0.15497 0.0
C1126 C 0.9632 0.44012 0.15184 0.0
C1127 C 0.96017 0.45083 0.16505 0.0
H1128 H 0.49303 0.45278 0.17854 0.0
H1129 H 0.47235 0.43193 0.15347 0.0
H1130 H 0.43926 0.45345 0.16315 0.0
H1131 H 0.4597 0.47366 0.18905 0.0
H1132 H 0.50751 0.48911 0.17107 0.0
H1133 H 0.47831 0.44693 0.22458 0.0
H1134 H 0.45355 0.42568 0.24423 0.0
H1135 H 0.44245 0.46523 0.2639 0.0
H1136 H 0.46703 0.48638 0.24374 0.0
H1137 H 0.51301 0.53114 0.24369 0.0
H1138 H 0.53507 0.55587 0.26317 0.0
H1139 H 0.57261 0.5421 0.24374 0.0
H1140 H 0.55042 0.51711 0.22495 0.0
H1141 H 0.50061 0.49714 0.24806 0.0
H1142 H 0.5249 0.53705 0.18812 0.0
H1143 H 0.54626 0.55703 0.16333 0.0
H1144 H 0.56636 0.52233 0.15669 0.0
H1145 H 0.54426 0.50205 0.1805 0.0
C1146 C 0.47787 0.46473 0.1856 0.0
C1147 C 0.48115 0.45275 0.17553 0.0
C1148 C 0.46937 0.44095 0.16106 0.0
C1149 C 0.45422 0.44117 0.15594 0.0
C1150 C 0.45067 0.45276 0.16679 0.0
C1151 C 0.46237 0.46439 0.18155 0.0
C1152 C 0.49137 0.4787 0.19851 0.0
C1153 C 0.50613 0.49068 0.18801 0.0
C1154 C 0.48932 0.48101 0.2204 0.0
C1155 C 0.47439 0.4682 0.23249 0.0
C1156 C 0.47046 0.451 0.23297 0.0
C1157 C 0.45642 0.43891 0.2444 0.0
C1158 C 0.44606 0.44379 0.25561 0.0
C1159 C 0.45009 0.46106 0.25523 0.0
C1160 C 0.46418 0.47316 0.24384 0.0
C1161 C 0.53009 0.52239 0.23266 0.0
C1162 C 0.52598 0.53341 0.24375 0.0
C1163 C 0.53862 0.54761 0.25472 0.0
C1164 C 0.55562 0.55101 0.2549 0.0
C1165 C 0.55964 0.53978 0.24405 0.0
C1166 C 0.54699 0.52559 0.2331 0.0
C1167 C 0.51676 0.50757 0.22056 0.0
C1168 C 0.50202 0.49548 0.23117 0.0
C1169 C 0.51872 0.50515 0.19869 0.0
C1170 C 0.53303 0.51811 0.18601 0.0
C1171 C 0.53406 0.53389 0.18145 0.0
C1172 C 0.54637 0.54534 0.16736 0.0
C1173 C 0.558 0.54127 0.15777 0.0
C1174 C 0.55737 0.52574 0.1633 0.0
C1175 C 0.54486 0.51417 0.17705 0.0
H1176 H 0.55439 0.02774 0.1976 0.0
H1177 H 0.57511 0.02628 0.17373 0.0
H1178 H 0.53396 0.98402 0.14 0.0
H1179 H 0.51342 0.98528 0.16397 0.0
H1180 H 0.50635 0.01 0.16878 0.0
H1181 H 0.53996 0.02622 0.25178 0.0
H1182 H 0.56237 0.02361 0.27071 0.0
H1183 H 0.55265 0.98048 0.23069 0.0
H1184 H 0.52943 0.98237 0.21303 0.0
H1185 H 0.47123 0.98409 0.24554 0.0
H1186 H 0.4476 0.98354 0.26516 0.0
H1187 H 0.46335 0.03509 0.24434 0.0
H1188 H 0.48693 0.0355 0.22436 0.0
H1189 H 0.50706 0.00671 0.24791 0.0
H1190 H 0.45884 0.99055 0.2004 0.0
H1191 H 0.43737 0.99327 0.17935 0.0
H1192 H 0.47751 0.0352 0.14433 0.0
H1193 H 0.49866 0.0335 0.16683 0.0
C1194 C 0.53235 0.00657 0.18262 0.0
C1195 C 0.54987 0.01803 0.18524 0.0
C1196 C 0.56168 0.01721 0.17161 0.0
C1197 C 0.55609 0.00512 0.15495 0.0
C1198 C 0.53859 0.99362 0.15252 0.0
C1199 C 0.52686 0.99432 0.16622 0.0
C1200 C 0.51952 0.00759 0.1963 0.0
C1201 C 0.50656 0.00938 0.18611 0.0
C1202 C 0.51982 0.00669 0.21892 0.0
C1203 C 0.53315 0.00468 0.23071 0.0
C1204 C 0.54253 0.01607 0.24726 0.0
C1205 C 0.55552 0.01469 0.25791 0.0
C1206 C 0.55954 0.00195 0.25213 0.0
C1207 C 0.54988 0.99036 0.23579 0.0
C1208 C 0.53671 0.99157 0.22541 0.0
C1209 C 0.48074 0.00979 0.23346 0.0
C1210 C 0.4697 0.99533 0.24537 0.0
C1211 C 0.45617 0.99499 0.25642 0.0
C1212 C 0.45366 0.00924 0.25608 0.0
C1213 C 0.46508 0.02398 0.24481 0.0
C1214 C 0.47848 0.02421 0.23343 0.0
C1215 C 0.49405 0.00935 0.2203 0.0
C1216 C 0.50702 0.00757 0.2306 0.0
C1217 C 0.49379 0.01029 0.19772 0.0
C1218 C 0.48044 0.01205 0.18557 0.0
C1219 C 0.46299 0.0007 0.18867 0.0
C1220 C 0.45069 0.00206 0.17627 0.0
C1221 C 0.45557 0.01451 0.16005 0.0
C1222 C 0.47309 0.02575 0.15697 0.0
C1223 C 0.4853 0.02464 0.16969 0.0
H1224 H 0.48896 0.02406 0.85268 0.0
H1225 H 0.4677 0.02524 0.87573 0.0
H1226 H 0.43217 0.97239 0.86103 0.0
H1227 H 0.45335 0.97142 0.83733 0.0
H1228 H 0.49982 0.99688 0.85796 0.0
H1229 H 0.47383 0.01975 0.81003 0.0
H1230 H 0.4493 0.01875 0.79203 0.0
H1231 H 0.44028 0.97297 0.75843 0.0
H1232 H 0.46416 0.97337 0.77784 0.0
H1233 H 0.52204 0.97165 0.805 0.0
H1234 H 0.54599 0.97316 0.7849 0.0
H1235 H 0.5562 0.02183 0.7585 0.0
H1236 H 0.53245 0.02034 0.77878 0.0
H1237 H 0.49772 0.99609 0.77867 0.0
H1238 H 0.50697 0.97286 0.86056 0.0
H1239 H 0.52772 0.97104 0.88358 0.0
H1240 H 0.56848 0.01234 0.84851 0.0
H1241 H 0.54734 0.01523 0.82681 0.0
C1242 C 0.47265 0.99769 0.84328 0.0
C1243 C 0.47653 0.01279 0.85425 0.0
C1244 C 0.46439 0.01348 0.86729 0.0
C1245 C 0.44834 0.99893 0.87001 0.0
C1246 C 0.44447 0.98377 0.85909 0.0
C1247 C 0.4565 0.98321 0.84561 0.0
C1248 C 0.48582 0.997 0.83008 0.0
C1249 C 0.49939 0.99661 0.8406 0.0
C1250 C 0.48501 0.99651 0.80751 0.0
C1251 C 0.47064 0.99644 0.79564 0.0
C1252 C 0.46638 0.00931 0.79912 0.0
C1253 C 0.45247 0.00885 0.78852 0.0
C1254 C 0.44275 0.99576 0.77374 0.0
C1255 C 0.44726 0.98306 0.76998 0.0
C1256 C 0.46105 0.98339 0.78086 0.0
C1257 C 0.52557 0.99596 0.79352 0.0
C1258 C 0.52942 0.9826 0.79481 0.0
C1259 C 0.54304 0.98344 0.78325 0.0
C1260 C 0.55305 0.99768 0.77023 0.0
C1261 C 0.54888 0.01082 0.76862 0.0
C1262 C 0.53523 0.00992 0.78006 0.0
C1263 C 0.51184 0.9958 0.80658 0.0
C1264 C 0.49815 0.99613 0.79602 0.0
C1265 C 0.51228 0.99569 0.82924 0.0
C1266 C 0.52551 0.99408 0.84178 0.0
C1267 C 0.52037 0.98159 0.85782 0.0
C1268 C 0.53236 0.98039 0.87082 0.0
C1269 C 0.54992 0.99137 0.86783 0.0
C1270 C 0.5551 0.00374 0.85147 0.0
C1271 C 0.54301 0.00523 0.83876 0.0
H1272 H 0.03855 0.54684 0.85003 0.0
H1273 H 0.03916 0.56824 0.87451 0.0
H1274 H 0.98541 0.54905 0.86253 0.0
H1275 H 0.98531 0.52839 0.83699 0.0
H1276 H 0.01019 0.50792 0.85728 0.0
H1277 H 0.03581 0.55606 0.8086 0.0
H1278 H 0.03672 0.57996 0.78843 0.0
H1279 H 0.99045 0.54466 0.75507 0.0
H1280 H 0.98932 0.52093 0.77563 0.0
H1281 H 0.9845 0.46016 0.81024 0.0
H1282 H 0.98229 0.43566 0.791 0.0
H1283 H 0.02604 0.46957 0.75323 0.0
H1284 H 0.02897 0.49395 0.77383 0.0
H1285 H 0.01003 0.50803 0.77794 0.0
H1286 H 0.98382 0.47203 0.85514 0.0
H1287 H 0.98414 0.45034 0.87891 0.0
H1288 H 0.03393 0.46304 0.85573 0.0
H1289 H 0.03338 0.48444 0.83155 0.0
C1290 C 0.01192 0.53616 0.84171 0.0
C1291 C 0.02701 0.54753 0.8524 0.0
C1292 C 0.02726 0.55962 0.86656 0.0
C1293 C 0.01226 0.56023 0.87085 0.0
C1294 C 0.99725 0.54911 0.85952 0.0
C1295 C 0.99712 0.53723 0.84499 0.0
C1296 C 0.01127 0.52206 0.82892 0.0
C1297 C 0.01014 0.50793 0.83991 0.0
C1298 C 0.01136 0.5222 0.80634 0.0
C1299 C 0.01231 0.53674 0.79392 0.0
C1300 C 0.02573 0.5535 0.79718 0.0
C1301 C 0.02633 0.56712 0.78555 0.0
C1302 C 0.0137 0.56413 0.77016 0.0
C1303 C 1.00048 0.5473 0.76663 0.0
C1304 C 0.99978 0.53375 0.77842 0.0
C1305 C 0.00715 0.4789 0.79388 0.0
C1306 C 0.99384 0.46232 0.79813 0.0
C1307 C 0.99241 0.4483 0.78678 0.0
C1308 C 0.00399 0.45057 0.77049 0.0
C1309 C 0.01708 0.46726 0.76591 0.0
C1310 C 0.01866 0.48126 0.77753 0.0
C1311 C 0.00891 0.49378 0.8063 0.0
C1312 C 0.01015 0.50803 0.79529 0.0
C1313 C 0.009 0.49384 0.82891 0.0
C1314 C 0.00857 0.47976 0.84166 0.0
C1315 C 0.99466 0.46991 0.85494 0.0
C1316 C 0.9948 0.45751 0.86836 0.0
C1317 C 0.00904 0.45509 0.86901 0.0
C1318 C 0.02281 0.46471 0.85539 0.0
C1319 C 0.02251 0.47687 0.84164 0.0
H1320 H 0.45737 0.5056 0.85337 0.0
H1321 H 0.43634 0.48334 0.87665 0.0
H1322 H 0.44759 0.44627 0.84825 0.0
H1323 H 0.46862 0.4685 0.82528 0.0
H1324 H 0.49112 0.51698 0.85254 0.0
H1325 H 0.44542 0.49245 0.79856 0.0
H1326 H 0.42256 0.46745 0.77997 0.0
H1327 H 0.45912 0.45255 0.76007 0.0
H1328 H 0.48189 0.47759 0.77832 0.0
H1329 H 0.52679 0.52105 0.77526 0.0
H1330 H 0.55184 0.54183 0.75555 0.0
H1331 H 0.54546 0.58296 0.78104 0.0
H1332 H 0.52025 0.56208 0.80051 0.0
H1333 H 0.49384 0.51266 0.77377 0.0
H1334 H 0.53868 0.53453 0.82513 0.0
H1335 H 0.5618 0.55349 0.84918 0.0
H1336 H 0.52882 0.57006 0.87748 0.0
H1337 H 0.50572 0.55109 0.85327 0.0
C1338 C 0.46442 0.48871 0.83733 0.0
C1339 C 0.45517 0.49263 0.85203 0.0
C1340 C 0.44319 0.47992 0.86535 0.0
C1341 C 0.44025 0.46302 0.86424 0.0
C1342 C 0.44931 0.45907 0.84923 0.0
C1343 C 0.46134 0.47179 0.83604 0.0
C1344 C 0.47815 0.50246 0.82445 0.0
C1345 C 0.49149 0.51632 0.83525 0.0
C1346 C 0.47899 0.50121 0.802 0.0
C1347 C 0.46531 0.48682 0.78981 0.0
C1348 C 0.44849 0.48385 0.79003 0.0
C1349 C 0.43549 0.46964 0.77944 0.0
C1350 C 0.43912 0.45808 0.76879 0.0
C1351 C 0.456 0.46122 0.76836 0.0
C1352 C 0.46901 0.47555 0.77861 0.0
C1353 C 0.52169 0.54001 0.78946 0.0
C1354 C 0.53071 0.53453 0.77649 0.0
C1355 C 0.5451 0.54643 0.76537 0.0
C1356 C 0.55066 0.56404 0.76681 0.0
C1357 C 0.54142 0.56947 0.7795 0.0
C1358 C 0.52709 0.55757 0.79074 0.0
C1359 C 0.5068 0.52733 0.80188 0.0
C1360 C 0.49327 0.51365 0.791 0.0
C1361 C 0.50594 0.5286 0.82435 0.0
C1362 C 0.52049 0.54149 0.83726 0.0
C1363 C 0.53654 0.54256 0.83612 0.0
C1364 C 0.54975 0.5534 0.8499 0.0
C1365 C 0.54711 0.56322 0.86526 0.0
C1366 C 0.53118 0.5625 0.86596 0.0
C1367 C 0.51799 0.55172 0.85211 0.0
H1368 H 0.61518 0.83424 0.49739 0.0
H1369 H 0.6222 0.85819 0.47309 0.0
H1370 H 0.6677 0.88975 0.51028 0.0
H1371 H 0.66051 0.8658 0.53462 0.0
H1372 H 0.63483 0.81942 0.5035 0.0
H1373 H 0.61369 0.84892 0.54719 0.0
H1374 H 0.6164 0.87416 0.56576 0.0
H1375 H 0.656 0.87508 0.60614 0.0
H1376 H 0.65354 0.85019 0.58736 0.0
H1377 H 0.65291 0.80879 0.58825 0.0
H1378 H 0.65527 0.78632 0.60746 0.0
H1379 H 0.61353 0.74792 0.56995 0.0
H1380 H 0.61097 0.77052 0.55097 0.0
H1381 H 0.63074 0.8189 0.58254 0.0
H1382 H 0.65817 0.79725 0.53709 0.0
H1383 H 0.66291 0.77731 0.51557 0.0
H1384 H 0.61782 0.76523 0.4781 0.0
H1385 H 0.61289 0.78484 0.50008 0.0
C1386 C 0.63724 0.84825 0.51791 0.0
C1387 C 0.62655 0.84639 0.50045 0.0
C1388 C 0.63063 0.86006 0.48652 0.0
C1389 C 0.64558 0.87585 0.48966 0.0
C1390 C 0.656 0.87784 0.50754 0.0
C1391 C 0.6519 0.86415 0.52148 0.0
C1392 C 0.63392 0.83316 0.53113 0.0
C1393 C 0.6335 0.81912 0.52075 0.0
C1394 C 0.63284 0.83309 0.55372 0.0
C1395 C 0.63354 0.84772 0.5657 0.0
C1396 C 0.62299 0.85459 0.56 0.0
C1397 C 0.6245 0.86897 0.57064 0.0
C1398 C 0.63637 0.87655 0.58743 0.0
C1399 C 0.64656 0.86937 0.59348 0.0
C1400 C 0.64518 0.85514 0.58272 0.0
C1401 C 0.6319 0.7914 0.56796 0.0
C1402 C 0.64401 0.79554 0.58443 0.0
C1403 C 0.64534 0.78267 0.59542 0.0
C1404 C 0.63462 0.76535 0.59015 0.0
C1405 C 0.62208 0.76116 0.57419 0.0
C1406 C 0.62063 0.77407 0.56333 0.0
C1407 C 0.63187 0.80528 0.55487 0.0
C1408 C 0.63166 0.81904 0.56525 0.0
C1409 C 0.6329 0.80541 0.53229 0.0
C1410 C 0.63508 0.79241 0.5203 0.0
C1411 C 0.64912 0.79005 0.52452 0.0
C1412 C 0.6519 0.77877 0.51209 0.0
C1413 C 0.64075 0.76971 0.49512 0.0
C1414 C 0.6265 0.77184 0.49124 0.0
C1415 C 0.62374 0.78313 0.50366 0.0
H1416 H 0.15772 0.80292 0.49248 0.0
H1417 H 0.13798 0.78062 0.4687 0.0
H1418 H 0.09564 0.77934 0.50233 0.0
H1419 H 0.11571 0.80311 0.52471 0.0
H1420 H 0.16464 0.83333 0.49583 0.0
H1421 H 0.14226 0.786 0.54732 0.0
H1422 H 0.11907 0.7626 0.56708 0.0
H1423 H 0.10523 0.79843 0.59355 0.0
H1424 H 0.12816 0.82163 0.5735 0.0
H1425 H 0.18857 0.88182 0.54224 0.0
H1426 H 0.21148 0.9052 0.56212 0.0
H1427 H 0.21658 0.86855 0.60225 0.0
H1428 H 0.19458 0.84524 0.58108 0.0
H1429 H 0.16263 0.83387 0.575 0.0
H1430 H 0.17602 0.86999 0.49668 0.0
H1431 H 0.19892 0.89004 0.47327 0.0
H1432 H 0.23268 0.87349 0.50021 0.0
H1433 H 0.20985 0.85372 0.52397 0.0
C1434 C 0.13831 0.80471 0.51058 0.0
C1435 C 0.14418 0.79793 0.49471 0.0
C1436 C 0.13277 0.78488 0.48127 0.0
C1437 C 0.11505 0.77786 0.48361 0.0
C1438 C 0.10914 0.78447 0.49979 0.0
C1439 C 0.12065 0.79791 0.51292 0.0
C1440 C 0.15089 0.81939 0.52376 0.0
C1441 C 0.16413 0.83335 0.51317 0.0
C1442 C 0.15034 0.81965 0.54639 0.0
C1443 C 0.13677 0.80549 0.55877 0.0
C1444 C 0.13419 0.78877 0.55736 0.0
C1445 C 0.12104 0.77546 0.56876 0.0
C1446 C 0.11029 0.77869 0.58176 0.0
C1447 C 0.11316 0.79552 0.58343 0.0
C1448 C 0.12631 0.8088 0.57211 0.0
C1449 C 0.19005 0.86172 0.55981 0.0
C1450 C 0.19484 0.8788 0.55504 0.0
C1451 C 0.20778 0.89219 0.56673 0.0
C1452 C 0.21597 0.88884 0.58387 0.0
C1453 C 0.21083 0.87169 0.58894 0.0
C1454 C 0.19808 0.8583 0.57699 0.0
C1455 C 0.17661 0.84742 0.54703 0.0
C1456 C 0.16312 0.83371 0.55768 0.0
C1457 C 0.17704 0.84717 0.52445 0.0
C1458 C 0.19132 0.86047 0.51205 0.0
C1459 C 0.18846 0.87093 0.49779 0.0
C1460 C 0.20151 0.88239 0.48454 0.0
C1461 C 0.21749 0.88325 0.48502 0.0
C1462 C 0.22044 0.87302 0.49961 0.0
C1463 C 0.20748 0.8618 0.51316 0.0
H1464 H 0.13408 0.31686 0.50081 0.0
H1465 H 0.11312 0.3178 0.47635 0.0
H1466 H 0.12764 0.36867 0.49865 0.0
H1467 H 0.14837 0.36753 0.5235 0.0
H1468 H 0.16972 0.34096 0.4998 0.0
H1469 H 0.12202 0.32059 0.54477 0.0
H1470 H 0.09857 0.32044 0.56346 0.0
H1471 H 0.13448 0.36208 0.60358 0.0
H1472 H 0.15791 0.36345 0.58295 0.0
H1473 H 0.20293 0.36344 0.58345 0.0
H1474 H 0.22505 0.36164 0.60443 0.0
H1475 H 0.21568 0.31669 0.56851 0.0
H1476 H 0.19282 0.3178 0.54902 0.0
H1477 H 0.16956 0.34293 0.57907 0.0
H1478 H 0.21592 0.36732 0.52563 0.0
H1479 H 0.23857 0.36771 0.50349 0.0
H1480 H 0.20406 0.31595 0.48314 0.0
H1481 H 0.18136 0.31579 0.5046 0.0
C1482 C 0.14273 0.34211 0.51394 0.0
C1483 C 0.13257 0.32811 0.50062 0.0
C1484 C 0.12056 0.32861 0.4868 0.0
C1485 C 0.11878 0.34328 0.48572 0.0
C1486 C 0.12879 0.35721 0.49927 0.0
C1487 C 0.14058 0.35657 0.51342 0.0
C1488 C 0.15619 0.34189 0.52747 0.0
C1489 C 0.1696 0.3413 0.51715 0.0
C1490 C 0.15617 0.34266 0.55009 0.0
C1491 C 0.14181 0.34235 0.56196 0.0
C1492 C 0.12489 0.3301 0.55709 0.0
C1493 C 0.11141 0.32976 0.56823 0.0
C1494 C 0.11449 0.34118 0.58524 0.0
C1495 C 0.13149 0.35328 0.59035 0.0
C1496 C 0.14497 0.35393 0.57873 0.0
C1497 C 0.19643 0.34098 0.56431 0.0
C1498 C 0.20556 0.35311 0.58028 0.0
C1499 C 0.21834 0.35216 0.59211 0.0
C1500 C 0.2223 0.33907 0.58814 0.0
C1501 C 0.21292 0.32683 0.5723 0.0
C1502 C 0.2 0.32763 0.56078 0.0
C1503 C 0.18311 0.34212 0.55134 0.0
C1504 C 0.16974 0.34288 0.56173 0.0
C1505 C 0.18307 0.34154 0.52876 0.0
C1506 C 0.19704 0.34151 0.51669 0.0
C1507 C 0.21332 0.35605 0.51649 0.0
C1508 C 0.22618 0.35626 0.50394 0.0
C1509 C 0.22296 0.34181 0.49189 0.0
C1510 C 0.2068 0.32715 0.49253 0.0
C1511 C 0.19387 0.32708 0.50464 0.0
C1512 C 0.01798 0.40268 0.07073 0.0
C1513 C 0.0062 0.38677 0.0619 0.0
C1514 C 0.01331 0.41013 0.08714 0.0
C1515 C 0.99646 0.40147 0.095 0.0
C1516 C 0.98471 0.38511 0.08683 0.0
C1517 C 0.98971 0.37795 0.07038 0.0
C1518 C 0.02623 0.4276 0.09544 0.0
C1519 C 0.96665 0.37545 0.09488 0.0
C1520 C 0.98802 0.41751 0.14721 0.0
C1521 C 0.98173 0.42814 0.1398 0.0
C1522 C 0.99257 0.40846 0.13286 0.0
C1523 C 0.99085 0.41014 0.11058 0.0
C1524 C 0.98427 0.42065 0.10302 0.0
C1525 C 0.97981 0.42951 0.11771 0.0
C1526 C 0.99946 0.39731 0.14151 0.0
C1527 C 0.98231 0.42285 0.07938 0.0
H1528 H 0.03077 0.40962 0.06442 0.0
H1529 H 0.9805 0.36563 0.06378 0.0
H1530 H 0.0221 0.43703 0.09119 0.0
H1531 H 0.02712 0.4274 0.11314 0.0
H1532 H 0.03912 0.43209 0.08875 0.0
H1533 H 0.95953 0.36226 0.08826 0.0
H1534 H 0.96659 0.37468 0.11259 0.0
H1535 H 0.95977 0.38241 0.09031 0.0
H1536 H 0.98937 0.41626 0.16427 0.0
H1537 H 0.97522 0.43791 0.11183 0.0
H1538 H 0.01273 0.40225 0.13605 0.0
H1539 H 0.99181 0.38409 0.13521 0.0
H1540 H 0.99935 0.39681 0.15926 0.0
H1541 H 0.99496 0.42873 0.07162 0.0
H1542 H 0.97648 0.43105 0.07615 0.0
H1543 H 0.97425 0.4102 0.07175 0.0
C1544 C 0.60338 0.59918 0.05618 0.0
C1545 C 0.62118 0.60711 0.05698 0.0
C1546 C 0.59342 0.58805 0.07246 0.0
C1547 C 0.60148 0.58468 0.0899 0.0
C1548 C 0.61948 0.5924 0.09053 0.0
C1549 C 0.62914 0.60386 0.07429 0.0
C1550 C 0.57429 0.58038 0.07136 0.0
C1551 C 0.62854 0.58885 0.10858 0.0
C1552 C 0.57737 0.57047 0.14232 0.0
C1553 C 0.56993 0.55258 0.14104 0.0
C1554 C 0.58774 0.58107 0.12585 0.0
C1555 C 0.59105 0.57365 0.10786 0.0
C1556 C 0.58383 0.55567 0.10669 0.0
C1557 C 0.57331 0.54538 0.12315 0.0
C1558 C 0.59482 0.60017 0.12748 0.0
C1559 C 0.58725 0.54724 0.08809 0.0
H1560 H 0.59726 0.60204 0.04301 0.0
H1561 H 0.64293 0.61065 0.07543 0.0
H1562 H 0.56803 0.56621 0.07185 0.0
H1563 H 0.56986 0.58452 0.08546 0.0
H1564 H 0.57001 0.58419 0.05662 0.0
H1565 H 0.64255 0.59536 0.10628 0.0
H1566 H 0.62595 0.59319 0.12397 0.0
H1567 H 0.62365 0.57486 0.10993 0.0
H1568 H 0.57504 0.57621 0.15616 0.0
H1569 H 0.56739 0.5316 0.12169 0.0
H1570 H 0.59028 0.60471 0.11367 0.0
H1571 H 0.60893 0.60688 0.12682 0.0
H1572 H 0.59099 0.60392 0.14247 0.0
H1573 H 0.58439 0.5516 0.07276 0.0
H1574 H 0.57969 0.53305 0.08874 0.0
H1575 H 0.60094 0.55105 0.08825 0.0
C1576 C 0.40221 0.01125 0.05821 0.0
C1577 C 0.38962 0.01589 0.06061 0.0
C1578 C 0.41315 0.01288 0.07528 0.0
C1579 C 0.41037 0.01771 0.09576 0.0
C1580 C 0.39744 0.02219 0.09829 0.0
C1581 C 0.38749 0.02165 0.0805 0.0
C1582 C 0.42766 0.00939 0.07136 0.0
C1583 C 0.3938 0.02707 0.11987 0.0
C1584 C 0.42769 0.00069 0.13944 0.0
C1585 C 0.44269 0.01551 0.14575 0.0
C1586 C 0.41644 0.00147 0.12431 0.0
C1587 C 0.42059 0.01731 0.11452 0.0
C1588 C 0.4352 0.03239 0.12169 0.0
C1589 C 0.44586 0.03132 0.13737 0.0
C1590 C 0.40032 0.98524 0.1184 0.0
C1591 C 0.4405 0.04972 0.11228 0.0
H1592 H 0.40368 0.00662 0.04282 0.0
H1593 H 0.37746 0.02487 0.08238 0.0
H1594 H 0.43969 0.0199 0.07816 0.0
H1595 H 0.42514 0.99736 0.07945 0.0
H1596 H 0.4295 0.00817 0.05405 0.0
H1597 H 0.38246 0.02888 0.11946 0.0
H1598 H 0.39165 0.01701 0.13179 0.0
H1599 H 0.40493 0.03915 0.12545 0.0
H1600 H 0.42494 0.98834 0.14573 0.0
H1601 H 0.45698 0.043 0.14264 0.0
H1602 H 0.40167 0.98085 0.10235 0.0
H1603 H 0.38933 0.98759 0.11767 0.0
H1604 H 0.39744 0.97477 0.13001 0.0
H1605 H 0.45112 0.05302 0.10106 0.0
H1606 H 0.44531 0.05966 0.12499 0.0
H1607 H 0.42998 0.05013 0.10365 0.0
C1608 C 0.41028 0.02364 0.96672 0.0
C1609 C 0.39253 0.01467 0.96925 0.0
C1610 C 0.41807 0.01985 0.94993 0.0
C1611 C 0.40786 0.00717 0.93475 0.0
C1612 C 0.3899 0.9983 0.93687 0.0
C1613 C 0.38246 0.00197 0.95429 0.0
C1614 C 0.43729 0.02935 0.94858 0.0
C1615 C 0.37857 0.98508 0.92063 0.0
C1616 C 0.4309 0.01176 0.88259 0.0
C1617 C 0.43612 0.99951 0.88511 0.0
C1618 C 0.42075 0.01366 0.89803 0.0
C1619 C 0.41616 0.00339 0.9167 0.0
C1620 C 0.42099 0.99063 0.91895 0.0
C1621 C 0.43076 0.98872 0.90297 0.0
C1622 C 0.41551 0.02711 0.89476 0.0
C1623 C 0.4167 0.97969 0.93879 0.0
H1624 H 0.4182 0.03352 0.97807 0.0
H1625 H 0.36872 0.9951 0.95598 0.0
H1626 H 0.44211 0.02011 0.94825 0.0
H1627 H 0.44133 0.03683 0.93353 0.0
H1628 H 0.44341 0.03825 0.96224 0.0
H1629 H 0.36483 0.97958 0.9243 0.0
H1630 H 0.38095 0.99093 0.90447 0.0
H1631 H 0.38161 0.97453 0.92001 0.0
H1632 H 0.43501 0.02004 0.86868 0.0
H1633 H 0.43495 0.97934 0.90494 0.0
H1634 H 0.4225 0.03775 0.90626 0.0
H1635 H 0.4017 0.02166 0.89786 0.0
H1636 H 0.41822 0.03246 0.8783 0.0
H1637 H 0.42355 0.98788 0.95276 0.0
H1638 H 0.4203 0.96954 0.93739 0.0
H1639 H 0.40287 0.97356 0.94212 0.0
C1640 C 0.01854 0.39204 0.95262 0.0
C1641 C 0.00883 0.3904 0.9707 0.0
C1642 C 0.02008 0.40326 0.93598 0.0
C1643 C 0.01145 0.41282 0.9374 0.0
C1644 C 0.00201 0.41151 0.95597 0.0
C1645 C 0.00065 0.40014 0.97229 0.0
C1646 C 0.03033 0.40434 0.91654 0.0
C1647 C 0.99285 0.42167 0.95829 0.0
C1648 C 0.02345 0.45075 0.90046 0.0
C1649 C 0.01019 0.44382 0.8854 0.0
C1650 C 0.02408 0.44081 0.91739 0.0
C1651 C 0.01138 0.42339 0.91899 0.0
C1652 C 0.99817 0.41621 0.90339 0.0
C1653 C 0.9976 0.4266 0.8869 0.0
C1654 C 0.03806 0.4491 0.93386 0.0
C1655 C 0.98448 0.39765 0.90435 0.0
H1656 H 0.02443 0.38408 0.95116 0.0
H1657 H 0.99296 0.39865 0.98621 0.0
H1658 H 0.02174 0.39926 0.90239 0.0
H1659 H 0.03979 0.41787 0.9131 0.0
H1660 H 0.03719 0.39698 0.91859 0.0
H1661 H 0.98725 0.42025 0.97443 0.0
H1662 H 0.00173 0.43545 0.95534 0.0
H1663 H 0.98245 0.41734 0.9462 0.0
H1664 H 0.03303 0.46417 0.8994 0.0
H1665 H 0.98732 0.42132 0.87519 0.0
H1666 H 0.04516 0.44199 0.93484 0.0
H1667 H 0.0324 0.44844 0.94974 0.0
H1668 H 0.04716 0.4627 0.93014 0.0
H1669 H 0.99036 0.38932 0.90495 0.0
H1670 H 0.97563 0.39383 0.89039 0.0
H1671 H 0.97697 0.39528 0.91916 0.0
C1672 C 0.61589 0.6209 0.95508 0.0
C1673 C 0.62255 0.61123 0.96467 0.0
C1674 C 0.60447 0.61443 0.9377 0.0
C1675 C 0.5995 0.59786 0.92979 0.0
C1676 C 0.60659 0.58826 0.93891 0.0
C1677 C 0.61806 0.59508 0.95616 0.0
C1678 C 0.59729 0.62509 0.92825 0.0
C1679 C 0.60155 0.57051 0.93097 0.0
C1680 C 0.55618 0.57213 0.90313 0.0
C1681 C 0.5605 0.57319 0.88148 0.0
C1682 C 0.56874 0.5804 0.91894 0.0
C1683 C 0.58605 0.59003 0.91296 0.0
C1684 C 0.59047 0.59152 0.89109 0.0
C1685 C 0.57764 0.58302 0.87559 0.0
C1686 C 0.56351 0.57841 0.94211 0.0
C1687 C 0.60878 0.60181 0.88411 0.0
H1688 H 0.61934 0.63343 0.9614 0.0
H1689 H 0.62311 0.58748 0.96338 0.0
H1690 H 0.59888 0.62598 0.91064 0.0
H1691 H 0.58343 0.61886 0.93144 0.0
H1692 H 0.6035 0.63824 0.93501 0.0
H1693 H 0.60892 0.56511 0.93899 0.0
H1694 H 0.58779 0.56181 0.9339 0.0
H1695 H 0.60352 0.57071 0.91347 0.0
H1696 H 0.54299 0.56435 0.90781 0.0
H1697 H 0.58101 0.58399 0.85885 0.0
H1698 H 0.56831 0.59116 0.94962 0.0
H1699 H 0.56926 0.57175 0.951 0.0
H1700 H 0.54946 0.57101 0.94401 0.0
H1701 H 0.6146 0.61501 0.89058 0.0
H1702 H 0.61 0.6025 0.86642 0.0
H1703 H 0.61623 0.59597 0.89063 0.0
C1704 C 0.02047 0.63079 0.95622 0.0
C1705 C 0.00898 0.62309 0.97297 0.0
C1706 C 0.02183 0.62088 0.93981 0.0
C1707 C 0.01086 0.60292 0.93967 0.0
C1708 C 0.99909 0.59512 0.95648 0.0
C1709 C 0.99834 0.60531 0.97295 0.0
C1710 C 0.03481 0.62966 0.92247 0.0
C1711 C 0.987 0.57606 0.95681 0.0
C1712 C 0.00206 0.57954 0.8863 0.0
C1713 C 0.01209 0.57157 0.88811 0.0
C1714 C 0.0015 0.58973 0.90297 0.0
C1715 C 0.01141 0.59227 0.92175 0.0
C1716 C 0.02155 0.58431 0.92357 0.0
C1717 C 0.02168 0.57402 0.90688 0.0
C1718 C 0.99013 0.5976 0.90059 0.0
C1719 C 0.03256 0.58686 0.94298 0.0
H1720 H 0.0281 0.64462 0.95567 0.0
H1721 H 0.98917 0.5994 0.98567 0.0
H1722 H 0.0433 0.624 0.92152 0.0
H1723 H 0.0283 0.62761 0.90673 0.0
H1724 H 0.04274 0.64365 0.92528 0.0
H1725 H 0.9785 0.57201 0.97091 0.0
H1726 H 0.97901 0.57215 0.94207 0.0
H1727 H 0.9943 0.56908 0.95701 0.0
H1728 H 0.99468 0.57786 0.87184 0.0
H1729 H 0.02918 0.56766 0.90875 0.0
H1730 H 0.99786 0.61175 0.90162 0.0
H1731 H 0.98086 0.5933 0.91387 0.0
H1732 H 0.98299 0.59414 0.88517 0.0
H1733 H 0.04333 0.60015 0.94278 0.0
H1734 H 0.03787 0.578 0.94327 0.0
H1735 H 0.02529 0.58505 0.95786 0.0
C1736 C 0.40274 0.38938 0.94966 0.0
C1737 C 0.38677 0.385 0.95828 0.0
C1738 C 0.40997 0.4017 0.93349 0.0
C1739 C 0.40103 0.40985 0.92553 0.0
C1740 C 0.38468 0.40514 0.93359 0.0
C1741 C 0.37775 0.39279 0.94991 0.0
C1742 C 0.42746 0.40636 0.92538 0.0
C1743 C 0.37471 0.41346 0.92536 0.0
C1744 C 0.42947 0.45365 0.90141 0.0
C1745 C 0.42865 0.44977 0.87957 0.0
C1746 C 0.41995 0.4409 0.91644 0.0
C1747 C 0.40929 0.42383 0.90948 0.0
C1748 C 0.40782 0.41997 0.88737 0.0
C1749 C 0.41757 0.43297 0.87268 0.0
C1750 C 0.42197 0.44554 0.93988 0.0
C1751 C 0.39648 0.40198 0.87929 0.0
H1752 H 0.40987 0.38348 0.9559 0.0
H1753 H 0.3654 0.38952 0.95637 0.0
H1754 H 0.42707 0.40478 0.90776 0.0
H1755 H 0.43653 0.42001 0.92895 0.0
H1756 H 0.43248 0.39841 0.93272 0.0
H1757 H 0.36169 0.40752 0.93214 0.0
H1758 H 0.38153 0.42726 0.92956 0.0
H1759 H 0.37366 0.41257 0.90767 0.0
H1760 H 0.43814 0.46655 0.90688 0.0
H1761 H 0.41671 0.42994 0.85579 0.0
H1762 H 0.42832 0.43926 0.9483 0.0
H1763 H 0.40931 0.44083 0.9473 0.0
H1764 H 0.42966 0.45958 0.94253 0.0
H1765 H 0.40171 0.39366 0.88461 0.0
H1766 H 0.39542 0.40142 0.86156 0.0
H1767 H 0.38353 0.39661 0.88608 0.0
C1768 C 0.61671 0.98377 0.94864 0.0
C1769 C 0.61426 0.9892 0.96858 0.0
C1770 C 0.60681 0.98313 0.93081 0.0
C1771 C 0.59374 0.98741 0.9333 0.0
C1772 C 0.59061 0.99189 0.95382 0.0
C1773 C 0.60138 0.9934 0.97104 0.0
C1774 C 0.61126 0.97914 0.90917 0.0
C1775 C 0.57611 0.99541 0.95754 0.0
C1776 C 0.5775 0.00491 0.88896 0.0
C1777 C 0.5625 0.99018 0.88244 0.0
C1778 C 0.58838 0.00398 0.90453 0.0
C1779 C 0.58383 0.9881 0.91445 0.0
C1780 C 0.56915 0.97315 0.90728 0.0
C1781 C 0.55893 0.97431 0.89108 0.0
C1782 C 0.60446 0.0201 0.91084 0.0
C1783 C 0.56372 0.95602 0.91741 0.0
H1784 H 0.62704 0.98098 0.94673 0.0
H1785 H 0.59969 0.9978 0.98648 0.0
H1786 H 0.59974 0.97117 0.89933 0.0
H1787 H 0.61898 0.99132 0.90044 0.0
H1788 H 0.61884 0.97246 0.9106 0.0
H1789 H 0.57409 0.99653 0.97482 0.0
H1790 H 0.57878 0.00752 0.94952 0.0
H1791 H 0.56412 0.985 0.95052 0.0
H1792 H 0.58051 0.01729 0.8825 0.0
H1793 H 0.5478 0.96272 0.88562 0.0
H1794 H 0.61542 0.0177 0.91147 0.0
H1795 H 0.60302 0.02418 0.92704 0.0
H1796 H 0.60746 0.03078 0.89954 0.0
H1797 H 0.57425 0.95303 0.91677 0.0
H1798 H 0.55229 0.94548 0.90953 0.0
H1799 H 0.56077 0.95658 0.93444 0.0
C1800 C 0.60304 0.97662 0.07284 0.0
C1801 C 0.61633 0.98999 0.06154 0.0
C1802 C 0.59494 0.97999 0.08964 0.0
C1803 C 0.60014 0.99715 0.0952 0.0
C1804 C 0.61406 0.0107 0.08457 0.0
C1805 C 0.62205 0.00696 0.06791 0.0
C1806 C 0.58025 0.96517 0.10074 0.0
C1807 C 0.61993 0.02916 0.09001 0.0
C1808 C 0.56491 0.00363 0.11773 0.0
C1809 C 0.5683 0.00456 0.13975 0.0
C1810 C 0.57555 0.00183 0.10305 0.0
C1811 C 0.58988 0.00081 0.11059 0.0
C1812 C 0.59369 0.00227 0.13278 0.0
C1813 C 0.58286 0.00421 0.14713 0.0
C1814 C 0.57115 0.00052 0.0795 0.0
C1815 C 0.60881 0.00115 0.14139 0.0
H1816 H 0.59865 0.96346 0.06822 0.0
H1817 H 0.6323 0.01739 0.05929 0.0
H1818 H 0.582 0.96655 0.11835 0.0
H1819 H 0.56821 0.96512 0.09673 0.0
H1820 H 0.57888 0.95263 0.09599 0.0
H1821 H 0.63204 0.0381 0.08196 0.0
H1822 H 0.61001 0.0324 0.08497 0.0
H1823 H 0.62173 0.03124 0.10753 0.0
H1824 H 0.55379 0.00417 0.11199 0.0
H1825 H 0.58544 0.00485 0.16417 0.0
H1826 H 0.56798 0.98768 0.07345 0.0
H1827 H 0.58227 0.0101 0.07034 0.0
H1828 H 0.56015 0.00257 0.07619 0.0
H1829 H 0.60689 0.98812 0.13848 0.0
H1830 H 0.61077 0.00384 0.15882 0.0
H1831 H 0.62057 0.0103 0.13291 0.0
C1832 C 0.98859 0.61608 0.07212 0.0
C1833 C 0.00537 0.62357 0.06459 0.0
C1834 C 0.98291 0.60367 0.08839 0.0
C1835 C 0.99425 0.59859 0.09727 0.0
C1836 C 0.01137 0.60662 0.0904 0.0
C1837 C 0.01671 0.619 0.07421 0.0
C1838 C 0.96459 0.59547 0.09542 0.0
C1839 C 0.02388 0.60159 0.09947 0.0
C1840 C 0.98487 0.57314 0.14895 0.0
C1841 C 0.97912 0.55652 0.14118 0.0
C1842 C 0.98929 0.58692 0.13488 0.0
C1843 C 0.98801 0.58401 0.11253 0.0
C1844 C 0.9818 0.56718 0.10463 0.0
C1845 C 0.97742 0.55366 0.11903 0.0
C1846 C 0.99575 0.60465 0.14391 0.0
C1847 C 0.98034 0.56354 0.0809 0.0
H1848 H 0.97971 0.61952 0.06489 0.0
H1849 H 0.02973 0.62472 0.06866 0.0
H1850 H 0.95771 0.58187 0.09031 0.0
H1851 H 0.96391 0.59565 0.11312 0.0
H1852 H 0.95789 0.602 0.08855 0.0
H1853 H 0.037 0.60984 0.09344 0.0
H1854 H 0.02419 0.60235 0.11718 0.0
H1855 H 0.01975 0.58812 0.09511 0.0
H1856 H 0.98602 0.57539 0.16606 0.0
H1857 H 0.97321 0.54091 0.1129 0.0
H1858 H 0.9885 0.61055 0.13691 0.0
H1859 H 0.00931 0.61292 0.13955 0.0
H1860 H 0.99473 0.60457 0.1616 0.0
H1861 H 0.97264 0.56858 0.07301 0.0
H1862 H 0.9744 0.54964 0.07738 0.0
H1863 H 0.99319 0.57016 0.07366 0.0
C1864 C 0.39689 0.40049 0.05107 0.0
C1865 C 0.38936 0.38263 0.05025 0.0
C1866 C 0.40764 0.40986 0.06816 0.0
C1867 C 0.41102 0.40115 0.08482 0.0
C1868 C 0.40362 0.38311 0.08388 0.0
C1869 C 0.39257 0.37403 0.06683 0.0
C1870 C 0.41508 0.42905 0.06864 0.0
C1871 C 0.40714 0.37336 0.10104 0.0
C1872 C 0.45008 0.42776 0.11973 0.0
C1873 C 0.44291 0.4303 0.13821 0.0
C1874 C 0.43987 0.41817 0.10245 0.0
C1875 C 0.42197 0.41095 0.10342 0.0
C1876 C 0.41458 0.41348 0.12198 0.0
C1877 C 0.42512 0.42302 0.1392 0.0
C1878 C 0.44833 0.41563 0.08328 0.0
C1879 C 0.39557 0.40634 0.12351 0.0
H1880 H 0.39408 0.4071 0.03847 0.0
H1881 H 0.3861 0.36017 0.06673 0.0
H1882 H 0.41096 0.43284 0.08333 0.0
H1883 H 0.4292 0.43543 0.06917 0.0
H1884 H 0.41116 0.43386 0.05451 0.0
H1885 H 0.40085 0.35942 0.09759 0.0
H1886 H 0.42108 0.37838 0.10261 0.0
H1887 H 0.4026 0.37521 0.1167 0.0
H1888 H 0.4638 0.4336 0.11851 0.0
H1889 H 0.4194 0.42477 0.15345 0.0
H1890 H 0.44348 0.41843 0.06831 0.0
H1891 H 0.44521 0.40207 0.08285 0.0
H1892 H 0.46242 0.42378 0.08383 0.0
H1893 H 0.39109 0.41147 0.11028 0.0
H1894 H 0.39183 0.40955 0.13896 0.0
H1895 H 0.38888 0.39221 0.12173 0.0
C1896 C 0.65765 0.72882 0.39365 0.0
C1897 C 0.66369 0.71741 0.39764 0.0
C1898 C 0.65317 0.736 0.41053 0.0
C1899 C 0.65477 0.73158 0.43188 0.0
C1900 C 0.6604 0.71959 0.4359 0.0
C1901 C 0.66486 0.71265 0.41864 0.0
C1902 C 0.64725 0.74873 0.40554 0.0
C1903 C 0.6622 0.71453 0.45842 0.0
C1904 C 0.66117 0.7652 0.473 0.0
C1905 C 0.64457 0.75902 0.48056 0.0
C1906 C 0.66478 0.75605 0.45774 0.0
C1907 C 0.65146 0.74031 0.44985 0.0
C1908 C 0.63479 0.73367 0.458 0.0
C1909 C 0.63153 0.74313 0.47323 0.0
C1910 C 0.68271 0.7636 0.44938 0.0
C1911 C 0.62029 0.71687 0.45009 0.0
H1912 H 0.65671 0.73236 0.37729 0.0
H1913 H 0.66962 0.70383 0.42154 0.0
H1914 H 0.63473 0.74465 0.41304 0.0
H1915 H 0.65643 0.76142 0.41235 0.0
H1916 H 0.64604 0.75023 0.38807 0.0
H1917 H 0.66551 0.70413 0.45876 0.0
H1918 H 0.67232 0.72579 0.46704 0.0
H1919 H 0.65018 0.71024 0.46728 0.0
H1920 H 0.67126 0.77756 0.47838 0.0
H1921 H 0.61872 0.7382 0.47922 0.0
H1922 H 0.6829 0.7669 0.43222 0.0
H1923 H 0.68718 0.75411 0.45056 0.0
H1924 H 0.69183 0.77534 0.45822 0.0
H1925 H 0.61759 0.71808 0.43302 0.0
H1926 H 0.60844 0.71278 0.45933 0.0
H1927 H 0.62386 0.70669 0.45113 0.0
C1928 C 0.29408 0.94243 0.40632 0.0
C1929 C 0.28734 0.94446 0.38697 0.0
C1930 C 0.28335 0.93154 0.42234 0.0
C1931 C 0.26546 0.92279 0.419 0.0
C1932 C 0.25867 0.92448 0.39918 0.0
C1933 C 0.26971 0.93545 0.38349 0.0
C1934 C 0.29112 0.93001 0.44314 0.0
C1935 C 0.23972 0.91522 0.39483 0.0
C1936 C 0.23685 0.88587 0.45546 0.0
C1937 C 0.2305 0.89369 0.46908 0.0
C1938 C 0.24824 0.89516 0.43913 0.0
C1939 C 0.25375 0.91281 0.43668 0.0
C1940 C 0.24763 0.92086 0.45076 0.0
C1941 C 0.2359 0.91114 0.46666 0.0
C1942 C 0.25404 0.88598 0.42423 0.0
C1943 C 0.25328 0.93968 0.44884 0.0
H1944 H 0.3077 0.94985 0.40923 0.0
H1945 H 0.26454 0.93727 0.36859 0.0
H1946 H 0.28722 0.93556 0.4563 0.0
H1947 H 0.2864 0.91634 0.44704 0.0
H1948 H 0.30526 0.93669 0.44261 0.0
H1949 H 0.23662 0.91675 0.378 0.0
H1950 H 0.23416 0.90137 0.3983 0.0
H1951 H 0.23348 0.92027 0.40554 0.0
H1952 H 0.23245 0.8723 0.45717 0.0
H1953 H 0.23093 0.91715 0.47725 0.0
H1954 H 0.2681 0.8923 0.42472 0.0
H1955 H 0.2501 0.88684 0.40763 0.0
H1956 H 0.24879 0.87227 0.42843 0.0
H1957 H 0.26739 0.94733 0.44972 0.0
H1958 H 0.24787 0.94413 0.46157 0.0
H1959 H 0.24928 0.94227 0.43306 0.0
C1960 C 0.05624 0.3526 0.40039 0.0
C1961 C 0.05485 0.34282 0.38233 0.0
C1962 C 0.06724 0.35424 0.41744 0.0
C1963 C 0.07691 0.3457 0.41645 0.0
C1964 C 0.07585 0.33619 0.3979 0.0
C1965 C 0.06465 0.33467 0.3812 0.0
C1966 C 0.06797 0.36452 0.43685 0.0
C1967 C 0.08615 0.32715 0.39596 0.0
C1968 C 0.11447 0.35797 0.45444 0.0
C1969 C 0.10759 0.34454 0.4692 0.0
C1970 C 0.10461 0.35862 0.43735 0.0
C1971 C 0.08732 0.34577 0.43523 0.0
C1972 C 0.08016 0.33244 0.45058 0.0
C1973 C 0.09046 0.33186 0.46724 0.0
C1974 C 0.1129 0.37275 0.42121 0.0
C1975 C 0.06172 0.31861 0.44915 0.0
H1976 H 0.04826 0.35848 0.4015 0.0
H1977 H 0.06338 0.32693 0.3673 0.0
H1978 H 0.06272 0.35587 0.45083 0.0
H1979 H 0.08137 0.37405 0.44079 0.0
H1980 H 0.06063 0.37136 0.43446 0.0
H1981 H 0.08493 0.32148 0.37983 0.0
H1982 H 0.09982 0.3362 0.39924 0.0
H1983 H 0.08184 0.31677 0.40801 0.0
H1984 H 0.1278 0.36764 0.45581 0.0
H1985 H 0.08516 0.32148 0.47872 0.0
H1986 H 0.11237 0.36715 0.40526 0.0
H1987 H 0.12642 0.38191 0.42526 0.0
H1988 H 0.1058 0.37986 0.42023 0.0
H1989 H 0.05336 0.32444 0.4482 0.0
H1990 H 0.05784 0.3098 0.46307 0.0
H1991 H 0.05955 0.311 0.43435 0.0
C1992 C 0.04329 0.32561 0.27845 0.0
C1993 C 0.05335 0.33998 0.29128 0.0
C1994 C 0.05044 0.32121 0.26135 0.0
C1995 C 0.06813 0.33117 0.25735 0.0
C1996 C 0.07831 0.34567 0.27022 0.0
C1997 C 0.07077 0.35002 0.28676 0.0
C1998 C 0.03911 0.30592 0.2476 0.0
C1999 C 0.09728 0.35648 0.26679 0.0
C2000 C 0.093 0.31328 0.22891 0.0
C2001 C 0.09665 0.32211 0.20945 0.0
C2002 C 0.08303 0.31548 0.24435 0.0
C2003 C 0.07628 0.32649 0.23996 0.0
C2004 C 0.07907 0.33458 0.21974 0.0
C2005 C 0.08946 0.3325 0.20483 0.0
C2006 C 0.08069 0.30692 0.26584 0.0
C2007 C 0.07177 0.34608 0.21422 0.0
H2008 H 0.0298 0.31784 0.2817 0.0
H2009 H 0.07872 0.36118 0.29645 0.0
H2010 H 0.04033 0.30979 0.23055 0.0
H2011 H 0.04319 0.29613 0.24897 0.0
H2012 H 0.02549 0.29998 0.25217 0.0
H2013 H 0.10346 0.36706 0.2786 0.0
H2014 H 0.1034 0.34838 0.26803 0.0
H2015 H 0.09977 0.36208 0.2505 0.0
H2016 H 0.0987 0.30535 0.23248 0.0
H2017 H 0.09225 0.33924 0.18969 0.0
H2018 H 0.06704 0.30011 0.27028 0.0
H2019 H 0.08767 0.31679 0.27828 0.0
H2020 H 0.08549 0.29764 0.26608 0.0
H2021 H 0.05809 0.33984 0.21852 0.0
H2022 H 0.07304 0.34939 0.19695 0.0
H2023 H 0.07852 0.35812 0.22357 0.0
C2024 C 0.65949 0.72864 0.30462 0.0
C2025 C 0.67016 0.72145 0.30629 0.0
C2026 C 0.66096 0.73942 0.28747 0.0
C2027 C 0.67349 0.74316 0.27171 0.0
C2028 C 0.68442 0.73606 0.2735 0.0
C2029 C 0.68234 0.72495 0.29052 0.0
C2030 C 0.64896 0.74661 0.28604 0.0
C2031 C 0.69818 0.74003 0.25732 0.0
C2032 C 0.66841 0.7582 0.21643 0.0
C2033 C 0.67899 0.77598 0.21819 0.0
C2034 C 0.66633 0.74735 0.23381 0.0
C2035 C 0.67511 0.75446 0.25331 0.0
C2036 C 0.68552 0.7724 0.25518 0.0
C2037 C 0.68732 0.78289 0.23769 0.0
C2038 C 0.65472 0.72831 0.23134 0.0
C2039 C 0.69527 0.78063 0.27541 0.0
H2040 H 0.64979 0.72559 0.31659 0.0
H2041 H 0.68999 0.7187 0.29123 0.0
H2042 H 0.65632 0.7608 0.28632 0.0
H2043 H 0.64179 0.74276 0.27066 0.0
H2044 H 0.6397 0.74218 0.29937 0.0
H2045 H 0.70586 0.73377 0.26128 0.0
H2046 H 0.69243 0.73573 0.2412 0.0
H2047 H 0.70683 0.75407 0.25649 0.0
H2048 H 0.66191 0.75275 0.20142 0.0
H2049 H 0.69519 0.79664 0.23939 0.0
H2050 H 0.64481 0.72358 0.24389 0.0
H2051 H 0.66212 0.72153 0.23352 0.0
H2052 H 0.64832 0.72487 0.21542 0.0
H2053 H 0.68734 0.77476 0.28972 0.0
H2054 H 0.7 0.79463 0.27577 0.0
H2055 H 0.70642 0.7786 0.27628 0.0
C2056 C 0.29403 0.93451 0.28432 0.0
C2057 C 0.29365 0.94768 0.29591 0.0
C2058 C 0.28299 0.92673 0.26686 0.0
C2059 C 0.27112 0.93207 0.26102 0.0
C2060 C 0.27118 0.94585 0.27202 0.0
C2061 C 0.28252 0.95357 0.28925 0.0
C2062 C 0.28348 0.91224 0.25533 0.0
C2063 C 0.25861 0.95182 0.26641 0.0
C2064 C 0.24701 0.91671 0.2081 0.0
C2065 C 0.23199 0.90223 0.21465 0.0
C2066 C 0.2599 0.92665 0.223 0.0
C2067 C 0.25754 0.9221 0.24492 0.0
C2068 C 0.24222 0.90769 0.25162 0.0
C2069 C 0.22968 0.89789 0.23639 0.0
C2070 C 0.27615 0.94181 0.21526 0.0
C2071 C 0.23908 0.90254 0.27488 0.0
H2072 H 0.30269 0.92997 0.2892 0.0
H2073 H 0.28209 0.96369 0.29812 0.0
H2074 H 0.27172 0.90003 0.2588 0.0
H2075 H 0.28389 0.91425 0.23777 0.0
H2076 H 0.29466 0.91091 0.26022 0.0
H2077 H 0.2614 0.96372 0.27504 0.0
H2078 H 0.25866 0.95413 0.24896 0.0
H2079 H 0.24556 0.94168 0.27059 0.0
H2080 H 0.24883 0.92002 0.19127 0.0
H2081 H 0.21796 0.88684 0.24152 0.0
H2082 H 0.28713 0.93984 0.21896 0.0
H2083 H 0.27842 0.95359 0.22375 0.0
H2084 H 0.27583 0.94389 0.19777 0.0
H2085 H 0.2488 0.89932 0.28081 0.0
H2086 H 0.22625 0.89132 0.2775 0.0
H2087 H 0.24031 0.91338 0.28466 0.0
C2088 C 0.69124 0.9649 0.28029 0.0
C2089 C 0.68466 0.95634 0.2996 0.0
C2090 C 0.69286 0.95625 0.26256 0.0
C2091 C 0.68851 0.93882 0.26459 0.0
C2092 C 0.68274 0.93046 0.28454 0.0
C2093 C 0.68022 0.93913 0.30154 0.0
C2094 C 0.69815 0.96546 0.24139 0.0
C2095 C 0.67903 0.91228 0.28788 0.0
C2096 C 0.67484 0.90767 0.21782 0.0
C2097 C 0.69007 0.90773 0.21299 0.0
C2098 C 0.67437 0.91845 0.23375 0.0
C2099 C 0.6893 0.92906 0.24576 0.0
C2100 C 0.70476 0.92958 0.24046 0.0
C2101 C 0.70504 0.91927 0.22389 0.0
C2102 C 0.65778 0.91814 0.23807 0.0
C2103 C 0.72089 0.9404 0.25294 0.0
H2104 H 0.69424 0.97813 0.27872 0.0
H2105 H 0.67493 0.93251 0.31646 0.0
H2106 H 0.70795 0.96335 0.23362 0.0
H2107 H 0.68691 0.96025 0.23048 0.0
H2108 H 0.70319 0.97945 0.24314 0.0
H2109 H 0.67665 0.90839 0.30495 0.0
H2110 H 0.66765 0.90339 0.27835 0.0
H2111 H 0.6899 0.91083 0.2823 0.0
H2112 H 0.66312 0.89883 0.20967 0.0
H2113 H 0.71704 0.92002 0.21986 0.0
H2114 H 0.65988 0.93138 0.23917 0.0
H2115 H 0.65262 0.9118 0.25363 0.0
H2116 H 0.64805 0.91115 0.22544 0.0
H2117 H 0.73208 0.94005 0.24622 0.0
H2118 H 0.71909 0.93565 0.26961 0.0
H2119 H 0.72366 0.95386 0.25329 0.0
C2120 C 0.0455 0.7244 0.28113 0.0
C2121 C 0.05307 0.71513 0.28939 0.0
C2122 C 0.05336 0.73657 0.26482 0.0
C2123 C 0.06917 0.73956 0.25657 0.0
C2124 C 0.07658 0.72986 0.26432 0.0
C2125 C 0.06846 0.71778 0.28057 0.0
C2126 C 0.04505 0.74664 0.25692 0.0
C2127 C 0.09342 0.73263 0.25596 0.0
C2128 C 0.08656 0.76335 0.20417 0.0
C2129 C 0.09856 0.77974 0.21148 0.0
C2130 C 0.07653 0.75024 0.21862 0.0
C2131 C 0.07859 0.75358 0.24088 0.0
C2132 C 0.09042 0.77018 0.24831 0.0
C2133 C 0.10025 0.78302 0.23355 0.0
C2134 C 0.064 0.73273 0.21008 0.0
C2135 C 0.09308 0.77427 0.27192 0.0
H2136 H 0.03362 0.72248 0.28774 0.0
H2137 H 0.07445 0.71069 0.28669 0.0
H2138 H 0.05308 0.76031 0.2614 0.0
H2139 H 0.04397 0.74605 0.23922 0.0
H2140 H 0.03215 0.74187 0.2637 0.0
H2141 H 0.09698 0.72336 0.26275 0.0
H2142 H 0.09289 0.73147 0.23828 0.0
H2143 H 0.10363 0.74577 0.26 0.0
H2144 H 0.08503 0.76076 0.18714 0.0
H2145 H 0.10967 0.79555 0.23937 0.0
H2146 H 0.05113 0.7285 0.21658 0.0
H2147 H 0.06785 0.7233 0.2154 0.0
H2148 H 0.06319 0.73247 0.19233 0.0
H2149 H 0.08076 0.77086 0.27956 0.0
H2150 H 0.10214 0.78802 0.27504 0.0
H2151 H 0.0981 0.76652 0.27976 0.0
C2152 C 0.26668 0.33172 0.30077 0.0
C2153 C 0.27664 0.32373 0.30025 0.0
C2154 C 0.25593 0.33021 0.28354 0.0
C2155 C 0.25553 0.32088 0.26511 0.0
C2156 C 0.26535 0.31248 0.26474 0.0
C2157 C 0.27588 0.3141 0.28231 0.0
C2158 C 0.24541 0.33905 0.2848 0.0
C2159 C 0.26529 0.3024 0.24546 0.0
C2160 C 0.21888 0.30841 0.22576 0.0
C2161 C 0.22596 0.32197 0.21121 0.0
C2162 C 0.22841 0.30776 0.2432 0.0
C2163 C 0.24558 0.32076 0.24588 0.0
C2164 C 0.25298 0.33421 0.23073 0.0
C2165 C 0.24298 0.33479 0.21369 0.0
C2166 C 0.21988 0.29351 0.25914 0.0
C2167 C 0.27131 0.34819 0.23279 0.0
H2168 H 0.26748 0.33934 0.3146 0.0
H2169 H 0.28399 0.30835 0.28172 0.0
H2170 H 0.24994 0.34949 0.2728 0.0
H2171 H 0.23186 0.3299 0.28097 0.0
H2172 H 0.24612 0.34461 0.30087 0.0
H2173 H 0.27267 0.29565 0.24833 0.0
H2174 H 0.25205 0.29279 0.24095 0.0
H2175 H 0.27088 0.31116 0.23164 0.0
H2176 H 0.20562 0.29865 0.22397 0.0
H2177 H 0.2484 0.34528 0.20237 0.0
H2178 H 0.21973 0.29898 0.27495 0.0
H2179 H 0.22724 0.2867 0.26078 0.0
H2180 H 0.20658 0.28412 0.25447 0.0
H2181 H 0.27301 0.35574 0.24753 0.0
H2182 H 0.27546 0.35703 0.21889 0.0
H2183 H 0.27978 0.34251 0.23429 0.0
C2184 C 0.28805 0.33959 0.406 0.0
C2185 C 0.2774 0.32635 0.39199 0.0
C2186 C 0.28135 0.34367 0.42383 0.0
C2187 C 0.26356 0.33457 0.42735 0.0
C2188 C 0.25276 0.32129 0.41317 0.0
C2189 C 0.25983 0.31719 0.39589 0.0
C2190 C 0.29327 0.35761 0.43894 0.0
C2191 C 0.23367 0.31148 0.41612 0.0
C2192 C 0.24207 0.33074 0.48031 0.0
C2193 C 0.23589 0.34218 0.47736 0.0
C2194 C 0.25233 0.32912 0.46482 0.0
C2195 C 0.25598 0.3388 0.44572 0.0
C2196 C 0.25039 0.35096 0.44319 0.0
C2197 C 0.24052 0.35262 0.45921 0.0
C2198 C 0.2584 0.31633 0.46835 0.0
C2199 C 0.25371 0.36126 0.4229 0.0
H2200 H 0.30166 0.34663 0.4032 0.0
H2201 H 0.25149 0.30693 0.3852 0.0
H2202 H 0.28999 0.368 0.43944 0.0
H2203 H 0.2918 0.35242 0.4554 0.0
H2204 H 0.30683 0.36319 0.43424 0.0
H2205 H 0.22702 0.30195 0.40321 0.0
H2206 H 0.23058 0.30466 0.43167 0.0
H2207 H 0.22855 0.32047 0.41642 0.0
H2208 H 0.23843 0.32271 0.49445 0.0
H2209 H 0.23556 0.36135 0.45697 0.0
H2210 H 0.27204 0.32201 0.46408 0.0
H2211 H 0.25105 0.30506 0.45784 0.0
H2212 H 0.25676 0.31185 0.48519 0.0
H2213 H 0.26735 0.36735 0.41856 0.0
H2214 H 0.25008 0.37138 0.42437 0.0
H2215 H 0.24624 0.35262 0.40955 0.0
C2216 C 0.66221 0.94716 0.40084 0.0
C2217 C 0.67878 0.95412 0.39272 0.0
C2218 C 0.65669 0.93526 0.41767 0.0
C2219 C 0.66798 0.93016 0.42662 0.0
C2220 C 0.68487 0.93753 0.41901 0.0
C2221 C 0.69007 0.94941 0.40219 0.0
C2222 C 0.63858 0.92772 0.42538 0.0
C2223 C 0.69731 0.93244 0.42815 0.0
C2224 C 0.65777 0.90696 0.48013 0.0
C2225 C 0.65078 0.88983 0.47365 0.0
C2226 C 0.66329 0.92024 0.46503 0.0
C2227 C 0.66181 0.9163 0.44294 0.0
C2228 C 0.65464 0.89903 0.43631 0.0
C2229 C 0.64924 0.88604 0.45172 0.0
C2230 C 0.67082 0.93849 0.4727 0.0
C2231 C 0.65288 0.89429 0.4129 0.0
H2232 H 0.65337 0.95071 0.39377 0.0
H2233 H 0.7029 0.9547 0.39613 0.0
H2234 H 0.63145 0.91383 0.42165 0.0
H2235 H 0.63843 0.92904 0.443 0.0
H2236 H 0.63179 0.93392 0.41785 0.0
H2237 H 0.71028 0.94015 0.42143 0.0
H2238 H 0.69815 0.93396 0.44579 0.0
H2239 H 0.69273 0.91873 0.42468 0.0
H2240 H 0.65887 0.90997 0.49704 0.0
H2241 H 0.64414 0.87288 0.44656 0.0
H2242 H 0.66353 0.94439 0.46583 0.0
H2243 H 0.68413 0.94613 0.46708 0.0
H2244 H 0.67079 0.93939 0.49042 0.0
H2245 H 0.64521 0.89912 0.40445 0.0
H2246 H 0.64672 0.88023 0.4104 0.0
H2247 H 0.66563 0.90041 0.40539 0.0
C2248 C 0.06518 0.72911 0.37959 0.0
C2249 C 0.05266 0.71197 0.38182 0.0
C2250 C 0.07583 0.73821 0.39687 0.0
C2251 C 0.07295 0.73038 0.41729 0.0
C2252 C 0.06028 0.71296 0.41955 0.0
C2253 C 0.05049 0.70387 0.40163 0.0
C2254 C 0.08993 0.75634 0.39334 0.0
C2255 C 0.05605 0.7042 0.44105 0.0
C2256 C 0.10735 0.75246 0.45989 0.0
C2257 C 0.10304 0.76422 0.46858 0.0
C2258 C 0.0975 0.74111 0.4436 0.0
C2259 C 0.08249 0.74088 0.43629 0.0
C2260 C 0.07726 0.75168 0.44619 0.0
C2261 C 0.08774 0.76345 0.46189 0.0
C2262 C 0.10364 0.72995 0.43355 0.0
C2263 C 0.06084 0.75118 0.43976 0.0
H2264 H 0.06665 0.73538 0.36427 0.0
H2265 H 0.04043 0.69071 0.40341 0.0
H2266 H 0.08678 0.76541 0.40137 0.0
H2267 H 0.10205 0.75816 0.40044 0.0
H2268 H 0.09196 0.75966 0.37608 0.0
H2269 H 0.04936 0.69005 0.43936 0.0
H2270 H 0.06758 0.70825 0.45116 0.0
H2271 H 0.04752 0.70775 0.44963 0.0
H2272 H 0.11872 0.75237 0.46545 0.0
H2273 H 0.08416 0.7724 0.46832 0.0
H2274 H 0.10684 0.73381 0.41665 0.0
H2275 H 0.09341 0.71639 0.4338 0.0
H2276 H 0.11509 0.73096 0.44175 0.0
H2277 H 0.06213 0.75677 0.42358 0.0
H2278 H 0.05735 0.75846 0.45105 0.0
H2279 H 0.05026 0.73775 0.43904 0.0
C2280 C 0.32358 0.04778 0.73096 0.0
C2281 C 0.34053 0.05284 0.72574 0.0
C2282 C 0.31976 0.05615 0.74709 0.0
C2283 C 0.3332 0.06981 0.75845 0.0
C2284 C 0.3503 0.07441 0.75404 0.0
C2285 C 0.35377 0.06594 0.73767 0.0
C2286 C 0.30136 0.05095 0.75121 0.0
C2287 C 0.36498 0.08879 0.76598 0.0
C2288 C 0.32593 0.10509 0.78005 0.0
C2289 C 0.32324 0.10097 0.80183 0.0
C2290 C 0.32895 0.09491 0.76578 0.0
C2291 C 0.32945 0.08031 0.7735 0.0
C2292 C 0.32658 0.07596 0.79545 0.0
C2293 C 0.32338 0.0863 0.80936 0.0
C2294 C 0.33171 0.09986 0.74243 0.0
C2295 C 0.32718 0.06059 0.80427 0.0
H2296 H 0.31323 0.03769 0.72187 0.0
H2297 H 0.3669 0.06988 0.73391 0.0
H2298 H 0.29859 0.04878 0.76854 0.0
H2299 H 0.29892 0.06143 0.74621 0.0
H2300 H 0.29239 0.03914 0.74238 0.0
H2301 H 0.37738 0.08964 0.76219 0.0
H2302 H 0.3657 0.10115 0.76174 0.0
H2303 H 0.36294 0.08704 0.78349 0.0
H2304 H 0.3256 0.11631 0.77416 0.0
H2305 H 0.32142 0.08318 0.82623 0.0
H2306 H 0.32234 0.08909 0.73239 0.0
H2307 H 0.3446 0.10254 0.7376 0.0
H2308 H 0.33046 0.11134 0.73894 0.0
H2309 H 0.31787 0.04884 0.79565 0.0
H2310 H 0.32435 0.05877 0.82164 0.0
H2311 H 0.34 0.06208 0.8017 0.0
C2312 C 0.95918 0.27565 0.73818 0.0
C2313 C 0.95168 0.279 0.72046 0.0
C2314 C 0.94911 0.26412 0.75411 0.0
C2315 C 0.93113 0.25647 0.75278 0.0
C2316 C 0.92352 0.25999 0.73496 0.0
C2317 C 0.9339 0.27116 0.71896 0.0
C2318 C 0.95769 0.2604 0.77259 0.0
C2319 C 0.90444 0.25243 0.73315 0.0
C2320 C 0.90266 0.21702 0.78559 0.0
C2321 C 0.89924 0.22415 0.80353 0.0
C2322 C 0.91314 0.22737 0.76914 0.0
C2323 C 0.92028 0.24534 0.77039 0.0
C2324 C 0.91676 0.25267 0.78831 0.0
C2325 C 0.90643 0.24201 0.80476 0.0
C2326 C 0.91674 0.21902 0.75059 0.0
C2327 C 0.92371 0.27175 0.78996 0.0
H2328 H 0.97293 0.28241 0.73987 0.0
H2329 H 0.92814 0.27412 0.70548 0.0
H2330 H 0.95471 0.26461 0.78781 0.0
H2331 H 0.95275 0.2464 0.77382 0.0
H2332 H 0.97176 0.26693 0.77087 0.0
H2333 H 0.90054 0.25637 0.7182 0.0
H2334 H 0.89808 0.23825 0.73354 0.0
H2335 H 0.89972 0.25653 0.74701 0.0
H2336 H 0.8969 0.20325 0.78416 0.0
H2337 H 0.90402 0.24769 0.81861 0.0
H2338 H 0.93033 0.22252 0.75128 0.0
H2339 H 0.91442 0.22373 0.73519 0.0
H2340 H 0.90889 0.20484 0.75091 0.0
H2341 H 0.93784 0.2785 0.78998 0.0
H2342 H 0.91942 0.27538 0.80466 0.0
H2343 H 0.91955 0.27634 0.77584 0.0
C2344 C 0.73351 0.67232 0.71336 0.0
C2345 C 0.72355 0.68025 0.71499 0.0
C2346 C 0.74528 0.67425 0.72949 0.0
C2347 C 0.74676 0.68397 0.748 0.0
C2348 C 0.73699 0.69238 0.74943 0.0
C2349 C 0.7254 0.69032 0.73293 0.0
C2350 C 0.75565 0.66532 0.72709 0.0
C2351 C 0.73819 0.70291 0.76878 0.0
C2352 C 0.76122 0.6705 0.7983 0.0
C2353 C 0.77838 0.68319 0.7998 0.0
C2354 C 0.75064 0.67097 0.78194 0.0
C2355 C 0.75753 0.68419 0.76643 0.0
C2356 C 0.77486 0.69705 0.76809 0.0
C2357 C 0.78501 0.69652 0.78489 0.0
C2358 C 0.73219 0.65711 0.781 0.0
C2359 C 0.78286 0.71105 0.7517 0.0
H2360 H 0.73187 0.66435 0.69956 0.0
H2361 H 0.71731 0.69605 0.73444 0.0
H2362 H 0.75158 0.65495 0.73913 0.0
H2363 H 0.75419 0.65965 0.71092 0.0
H2364 H 0.76935 0.67443 0.73006 0.0
H2365 H 0.7308 0.70973 0.76665 0.0
H2366 H 0.73327 0.69444 0.78297 0.0
H2367 H 0.75168 0.71248 0.77222 0.0
H2368 H 0.75613 0.66019 0.80989 0.0
H2369 H 0.79836 0.70619 0.78594 0.0
H2370 H 0.72976 0.64943 0.76622 0.0
H2371 H 0.72381 0.66293 0.78037 0.0
H2372 H 0.72857 0.64838 0.79499 0.0
H2373 H 0.78275 0.70535 0.73596 0.0
H2374 H 0.79621 0.72065 0.75587 0.0
H2375 H 0.7753 0.71765 0.75014 0.0
C2376 C 0.7141 0.65741 0.62045 0.0
C2377 C 0.7186 0.67456 0.62409 0.0
C2378 C 0.72223 0.65302 0.60459 0.0
C2379 C 0.73502 0.66606 0.59194 0.0
C2380 C 0.73893 0.68326 0.59479 0.0
C2381 C 0.73076 0.6873 0.61087 0.0
C2382 C 0.71777 0.63455 0.60213 0.0
C2383 C 0.75233 0.69754 0.58147 0.0
C2384 C 0.77152 0.66122 0.57006 0.0
C2385 C 0.76704 0.65781 0.54838 0.0
C2386 C 0.76088 0.66329 0.58451 0.0
C2387 C 0.74542 0.66208 0.57709 0.0
C2388 C 0.74059 0.65816 0.55532 0.0
C2389 C 0.75143 0.65598 0.54122 0.0
C2390 C 0.76643 0.66726 0.60764 0.0
C2391 C 0.72429 0.65689 0.54677 0.0
H2392 H 0.70477 0.64748 0.63062 0.0
H2393 H 0.73422 0.70057 0.61341 0.0
H2394 H 0.7153 0.63065 0.58508 0.0
H2395 H 0.72869 0.63301 0.60756 0.0
H2396 H 0.7064 0.62576 0.61158 0.0
H2397 H 0.75274 0.70995 0.58428 0.0
H2398 H 0.76505 0.69911 0.5854 0.0
H2399 H 0.7499 0.69436 0.56421 0.0
H2400 H 0.78346 0.66239 0.57569 0.0
H2401 H 0.74798 0.65344 0.52444 0.0
H2402 H 0.7562 0.6581 0.61828 0.0
H2403 H 0.76876 0.68027 0.61169 0.0
H2404 H 0.77825 0.66668 0.61111 0.0
H2405 H 0.71332 0.64789 0.55662 0.0
H2406 H 0.72174 0.65252 0.52986 0.0
H2407 H 0.72506 0.66959 0.54779 0.0
C2408 C 0.34064 0.06833 0.63521 0.0
C2409 C 0.34391 0.05475 0.63286 0.0
C2410 C 0.34319 0.07953 0.61817 0.0
C2411 C 0.34774 0.07616 0.59784 0.0
C2412 C 0.3511 0.0624 0.59546 0.0
C2413 C 0.34947 0.05206 0.61319 0.0
C2414 C 0.34065 0.09473 0.62182 0.0
C2415 C 0.35507 0.05769 0.57396 0.0
C2416 C 0.332 0.09348 0.55279 0.0
C2417 C 0.34713 0.10793 0.5462 0.0
C2418 C 0.3322 0.08242 0.56862 0.0
C2419 C 0.34775 0.08634 0.57895 0.0
C2420 C 0.36306 0.10057 0.57201 0.0
C2421 C 0.36263 0.11084 0.55536 0.0
C2422 C 0.31566 0.06682 0.5747 0.0
C2423 C 0.37982 0.10549 0.58284 0.0
H2424 H 0.33611 0.07019 0.65042 0.0
H2425 H 0.35155 0.04121 0.61135 0.0
H2426 H 0.32881 0.09265 0.61362 0.0
H2427 H 0.33965 0.09694 0.63909 0.0
H2428 H 0.35141 0.10647 0.61498 0.0
H2429 H 0.36056 0.04903 0.57555 0.0
H2430 H 0.3431 0.05101 0.56443 0.0
H2431 H 0.36404 0.06918 0.56482 0.0
H2432 H 0.31985 0.09098 0.54616 0.0
H2433 H 0.37453 0.12145 0.54993 0.0
H2434 H 0.31165 0.06876 0.59067 0.0
H2435 H 0.31737 0.0554 0.57575 0.0
H2436 H 0.30526 0.06415 0.56304 0.0
H2437 H 0.37913 0.10858 0.59982 0.0
H2438 H 0.39068 0.11675 0.5753 0.0
H2439 H 0.38236 0.0946 0.58246 0.0
C2440 C 0.94562 0.29026 0.62163 0.0
C2441 C 0.95679 0.28434 0.628 0.0
C2442 C 0.93448 0.2829 0.60412 0.0
C2443 C 0.93461 0.26941 0.59265 0.0
C2444 C 0.94658 0.26412 0.59818 0.0
C2445 C 0.95746 0.27159 0.61583 0.0
C2446 C 0.92187 0.28887 0.59875 0.0
C2447 C 0.94724 0.24988 0.58621 0.0
C2448 C 0.89365 0.23447 0.56824 0.0
C2449 C 0.89605 0.23843 0.5464 0.0
C2450 C 0.90589 0.24479 0.58345 0.0
C2451 C 0.92098 0.25941 0.57665 0.0
C2452 C 0.92327 0.26379 0.55467 0.0
C2453 C 0.91069 0.25326 0.53976 0.0
C2454 C 0.90284 0.23976 0.60675 0.0
C2455 C 0.93924 0.27925 0.54686 0.0
H2456 H 0.945 0.30012 0.63088 0.0
H2457 H 0.96618 0.26706 0.62044 0.0
H2458 H 0.92169 0.29106 0.58131 0.0
H2459 H 0.90888 0.27878 0.60324 0.0
H2460 H 0.92481 0.30084 0.60734 0.0
H2461 H 0.95849 0.24862 0.5909 0.0
H2462 H 0.93555 0.23756 0.58951 0.0
H2463 H 0.94762 0.25213 0.56871 0.0
H2464 H 0.88219 0.22315 0.57342 0.0
H2465 H 0.91255 0.2563 0.52286 0.0
H2466 H 0.90407 0.25062 0.61649 0.0
H2467 H 0.91261 0.23659 0.61266 0.0
H2468 H 0.89004 0.22852 0.60947 0.0
H2469 H 0.94161 0.29081 0.55596 0.0
H2470 H 0.93849 0.28164 0.52954 0.0
H2471 H 0.95036 0.27733 0.54965 0.0
C2472 C 0.34309 0.27576 0.63502 0.0
C2473 C 0.34764 0.29292 0.63202 0.0
C2474 C 0.34481 0.26624 0.61842 0.0
C2475 C 0.35003 0.27373 0.59791 0.0
C2476 C 0.35471 0.29116 0.59489 0.0
C2477 C 0.35373 0.30064 0.61214 0.0
C2478 C 0.34077 0.24808 0.62277 0.0
C2479 C 0.3596 0.29955 0.5732 0.0
C2480 C 0.36408 0.25151 0.5578 0.0
C2481 C 0.34862 0.24 0.54781 0.0
C2482 C 0.36476 0.26265 0.57388 0.0
C2483 C 0.3498 0.263 0.57958 0.0
C2484 C 0.33436 0.25233 0.56849 0.0
C2485 C 0.33387 0.24074 0.55304 0.0
C2486 C 0.38141 0.2736 0.58527 0.0
C2487 C 0.31825 0.25286 0.57331 0.0
H2488 H 0.33822 0.26982 0.6504 0.0
H2489 H 0.35684 0.31384 0.60977 0.0
H2490 H 0.32901 0.23904 0.61397 0.0
H2491 H 0.35126 0.24607 0.61701 0.0
H2492 H 0.33886 0.24488 0.64007 0.0
H2493 H 0.36587 0.31372 0.57435 0.0
H2494 H 0.36822 0.29607 0.56478 0.0
H2495 H 0.34791 0.29497 0.5632 0.0
H2496 H 0.37572 0.25163 0.55338 0.0
H2497 H 0.3218 0.23194 0.54557 0.0
H2498 H 0.37981 0.27055 0.60256 0.0
H2499 H 0.38515 0.28727 0.58332 0.0
H2500 H 0.39188 0.27164 0.57925 0.0
H2501 H 0.31365 0.24747 0.58945 0.0
H2502 H 0.30794 0.24543 0.5615 0.0
H2503 H 0.32082 0.26629 0.57339 0.0
C2504 C 0.7316 0.04781 0.61462 0.0
C2505 C 0.71887 0.04798 0.62719 0.0
C2506 C 0.73948 0.05978 0.59819 0.0
C2507 C 0.73466 0.07237 0.59429 0.0
C2508 C 0.72135 0.0722 0.60631 0.0
C2509 C 0.71356 0.05996 0.62256 0.0
C2510 C 0.7535 0.05939 0.58561 0.0
C2511 C 0.7159 0.08546 0.60271 0.0
C2512 C 0.77001 0.11381 0.57164 0.0
C2513 C 0.76583 0.11212 0.54979 0.0
C2514 C 0.7596 0.10126 0.58635 0.0
C2515 C 0.74467 0.08656 0.57905 0.0
C2516 C 0.74007 0.08503 0.5571 0.0
C2517 C 0.75068 0.09791 0.54271 0.0
C2518 C 0.76488 0.1035 0.60965 0.0
C2519 C 0.72431 0.06951 0.54869 0.0
H2520 H 0.73571 0.03852 0.61789 0.0
H2521 H 0.70376 0.06023 0.63218 0.0
H2522 H 0.75113 0.05961 0.5682 0.0
H2523 H 0.76586 0.07095 0.58938 0.0
H2524 H 0.75468 0.04789 0.58926 0.0
H2525 H 0.70427 0.08257 0.61181 0.0
H2526 H 0.72633 0.09821 0.60779 0.0
H2527 H 0.71343 0.08635 0.58546 0.0
H2528 H 0.78159 0.12493 0.57719 0.0
H2529 H 0.74747 0.09654 0.52581 0.0
H2530 H 0.76791 0.09339 0.61451 0.0
H2531 H 0.75425 0.1021 0.61981 0.0
H2532 H 0.77622 0.11618 0.61293 0.0
H2533 H 0.72587 0.05804 0.55038 0.0
H2534 H 0.72176 0.0709 0.53159 0.0
H2535 H 0.71303 0.06715 0.55818 0.0
C2536 C 0.94293 0.6487 0.61241 0.0
C2537 C 0.94447 0.65921 0.62973 0.0
C2538 C 0.9326 0.64722 0.59466 0.0
C2539 C 0.92387 0.65673 0.59416 0.0
C2540 C 0.92515 0.66709 0.61189 0.0
C2541 C 0.9356 0.66834 0.62937 0.0
C2542 C 0.93153 0.63598 0.57616 0.0
C2543 C 0.91583 0.67719 0.61219 0.0
C2544 C 0.91166 0.66904 0.5412 0.0
C2545 C 0.89433 0.65687 0.53962 0.0
C2546 C 0.9216 0.6688 0.55854 0.0
C2547 C 0.91386 0.65636 0.57485 0.0
C2548 C 0.89637 0.64406 0.57314 0.0
C2549 C 0.88688 0.64434 0.55546 0.0
C2550 C 0.94026 0.68204 0.55964 0.0
C2551 C 0.88752 0.63088 0.59025 0.0
H2552 H 0.95026 0.64208 0.61244 0.0
H2553 H 0.93704 0.67666 0.6427 0.0
H2554 H 0.93711 0.64397 0.56172 0.0
H2555 H 0.93837 0.62876 0.57956 0.0
H2556 H 0.91803 0.6267 0.57236 0.0
H2557 H 0.91737 0.68381 0.6277 0.0
H2558 H 0.92068 0.68692 0.59928 0.0
H2559 H 0.90203 0.66861 0.60907 0.0
H2560 H 0.91738 0.67876 0.52893 0.0
H2561 H 0.87339 0.63511 0.5544 0.0
H2562 H 0.94807 0.67568 0.56165 0.0
H2563 H 0.94274 0.69041 0.57377 0.0
H2564 H 0.94453 0.69019 0.5451 0.0
H2565 H 0.88877 0.63737 0.60576 0.0
H2566 H 0.89371 0.62293 0.59187 0.0
H2567 H 0.87376 0.62235 0.5867 0.0
C2568 C 0.92832 0.65522 0.72585 0.0
C2569 C 0.94586 0.66348 0.72179 0.0
C2570 C 0.92189 0.65986 0.74332 0.0
C2571 C 0.93329 0.67277 0.75751 0.0
C2572 C 0.95104 0.68105 0.75372 0.0
C2573 C 0.95712 0.67645 0.73572 0.0
C2574 C 0.90283 0.65092 0.74655 0.0
C2575 C 0.96357 0.69459 0.7688 0.0
C2576 C 0.91192 0.69186 0.79074 0.0
C2577 C 0.90692 0.68104 0.80855 0.0
C2578 C 0.92149 0.69004 0.77443 0.0
C2579 C 0.92637 0.6773 0.77632 0.0
C2580 C 0.92246 0.66728 0.79514 0.0
C2581 C 0.91253 0.6691 0.81093 0.0
C2582 C 0.92512 0.70076 0.75447 0.0
C2583 C 0.92778 0.65386 0.79799 0.0
H2584 H 0.91952 0.6452 0.71521 0.0
H2585 H 0.9707 0.68278 0.73278 0.0
H2586 H 0.89956 0.64387 0.76194 0.0
H2587 H 0.89844 0.66048 0.74739 0.0
H2588 H 0.89569 0.64171 0.7335 0.0
H2589 H 0.97697 0.6998 0.7636 0.0
H2590 H 0.96078 0.70529 0.77001 0.0
H2591 H 0.96226 0.68911 0.78507 0.0
H2592 H 0.9074 0.70098 0.78891 0.0
H2593 H 0.90863 0.66078 0.82481 0.0
H2594 H 0.91713 0.69256 0.74109 0.0
H2595 H 0.93863 0.70617 0.74976 0.0
H2596 H 0.92234 0.71143 0.75658 0.0
H2597 H 0.91993 0.64281 0.78736 0.0
H2598 H 0.92616 0.64915 0.81473 0.0
H2599 H 0.9413 0.65903 0.79343 0.0
C2600 C 0.35905 0.29109 0.73396 0.0
C2601 C 0.34674 0.29464 0.72511 0.0
C2602 C 0.35507 0.27952 0.75098 0.0
C2603 C 0.3384 0.27131 0.75942 0.0
C2604 C 0.32615 0.27543 0.75127 0.0
C2605 C 0.33046 0.28702 0.73423 0.0
C2606 C 0.3685 0.2755 0.75926 0.0
C2607 C 0.30825 0.26699 0.7599 0.0
C2608 C 0.32239 0.22712 0.78322 0.0
C2609 C 0.32413 0.23053 0.80525 0.0
C2610 C 0.32688 0.24027 0.76822 0.0
C2611 C 0.33334 0.25732 0.77538 0.0
C2612 C 0.33507 0.26089 0.79759 0.0
C2613 C 0.33047 0.24744 0.81228 0.0
C2614 C 0.32489 0.23592 0.74467 0.0
C2615 C 0.34187 0.2789 0.8058 0.0
H2616 H 0.37169 0.29692 0.72715 0.0
H2617 H 0.32086 0.28972 0.72767 0.0
H2618 H 0.36953 0.27668 0.77694 0.0
H2619 H 0.36478 0.26207 0.75524 0.0
H2620 H 0.38123 0.28405 0.75233 0.0
H2621 H 0.30074 0.27275 0.75327 0.0
H2622 H 0.30157 0.25317 0.75581 0.0
H2623 H 0.30853 0.26799 0.77759 0.0
H2624 H 0.31783 0.21415 0.77764 0.0
H2625 H 0.33173 0.25015 0.82929 0.0
H2626 H 0.33745 0.24284 0.73675 0.0
H2627 H 0.31645 0.24015 0.73694 0.0
H2628 H 0.31945 0.22199 0.74176 0.0
H2629 H 0.35494 0.28724 0.79975 0.0
H2630 H 0.34222 0.27951 0.82355 0.0
H2631 H 0.33383 0.28423 0.79974 0.0
C2632 C 0.73499 0.0617 0.71759 0.0
C2633 C 0.72208 0.04472 0.71986 0.0
C2634 C 0.74631 0.07034 0.73454 0.0
C2635 C 0.7437 0.06228 0.75478 0.0
C2636 C 0.73061 0.04503 0.75708 0.0
C2637 C 0.72017 0.03636 0.73941 0.0
C2638 C 0.76082 0.08823 0.73089 0.0
C2639 C 0.72662 0.03611 0.77848 0.0
C2640 C 0.77854 0.08243 0.7974 0.0
C2641 C 0.77487 0.09441 0.80688 0.0
C2642 C 0.76851 0.07185 0.78058 0.0
C2643 C 0.75381 0.07242 0.77371 0.0
C2644 C 0.74924 0.08349 0.78424 0.0
C2645 C 0.76001 0.09464 0.80023 0.0
C2646 C 0.77408 0.06055 0.76963 0.0
C2647 C 0.73314 0.08386 0.7783 0.0
H2648 H 0.73626 0.06819 0.70249 0.0
H2649 H 0.70984 0.02333 0.74124 0.0
H2650 H 0.75828 0.09761 0.73923 0.0
H2651 H 0.77287 0.08954 0.73755 0.0
H2652 H 0.76264 0.09158 0.71362 0.0
H2653 H 0.71911 0.02197 0.77666 0.0
H2654 H 0.73832 0.03938 0.78786 0.0
H2655 H 0.71898 0.04034 0.78789 0.0
H2656 H 0.78948 0.08146 0.80278 0.0
H2657 H 0.75691 0.10383 0.807 0.0
H2658 H 0.77667 0.06435 0.75261 0.0
H2659 H 0.76376 0.04704 0.77019 0.0
H2660 H 0.78576 0.06141 0.77697 0.0
H2661 H 0.73461 0.08992 0.76239 0.0
H2662 H 0.73008 0.09116 0.79008 0.0
H2663 H 0.7222 0.07064 0.7772 0.0
C2664 C 0.05448 0.35129 0.03996 0.0
C2665 C 0.03675 0.34255 0.03674 0.0
C2666 C 0.0627 0.34353 0.05038 0.0
C2667 C 0.05303 0.3265 0.05776 0.0
C2668 C 0.03519 0.31734 0.05408 0.0
C2669 C 0.02722 0.32551 0.04363 0.0
C2670 C 0.08177 0.3538 0.05393 0.0
C2671 C 0.02452 0.29911 0.06158 0.0
C2672 C 0.08261 0.30907 0.07059 0.0
C2673 C 0.08651 0.31394 0.09208 0.0
C2674 C 0.0703 0.31147 0.05953 0.0
C2675 C 0.06183 0.31896 0.07027 0.0
C2676 C 0.06457 0.32233 0.09247 0.0
C2677 C 0.07688 0.31976 0.10311 0.0
C2678 C 0.06757 0.30747 0.03593 0.0
C2679 C 0.05574 0.33022 0.10459 0.0
H2680 H 0.06207 0.36439 0.03454 0.0
H2681 H 0.01353 0.31861 0.04114 0.0
H2682 H 0.0847 0.35526 0.07133 0.0
H2683 H 0.08805 0.34698 0.04699 0.0
H2684 H 0.08747 0.36675 0.04668 0.0
H2685 H 0.0112 0.29318 0.05547 0.0
H2686 H 0.03021 0.29124 0.05635 0.0
H2687 H 0.02426 0.29878 0.07931 0.0
H2688 H 0.08998 0.30449 0.06201 0.0
H2689 H 0.07959 0.32316 0.11988 0.0
H2690 H 0.07453 0.31953 0.02671 0.0
H2691 H 0.05387 0.30162 0.03158 0.0
H2692 H 0.07231 0.29869 0.03102 0.0
H2693 H 0.06136 0.3439 0.10006 0.0
H2694 H 0.05714 0.32949 0.12218 0.0
H2695 H 0.04198 0.32381 0.10043 0.0
C2696 C 0.65906 0.70004 0.03047 0.0
C2697 C 0.66164 0.68824 0.04242 0.0
C2698 C 0.66253 0.7158 0.0393 0.0
C2699 C 0.66861 0.71978 0.06064 0.0
C2700 C 0.67156 0.70806 0.07264 0.0
C2701 C 0.66809 0.69244 0.06336 0.0
C2702 C 0.65936 0.72803 0.02595 0.0
C2703 C 0.67798 0.71182 0.09547 0.0
C2704 C 0.68973 0.76597 0.07962 0.0
C2705 C 0.67631 0.76634 0.0903 0.0
C2706 C 0.68739 0.75094 0.06973 0.0
C2707 C 0.67128 0.73591 0.07069 0.0
C2708 C 0.65769 0.73623 0.08143 0.0
C2709 C 0.66036 0.75145 0.09105 0.0
C2710 C 0.70214 0.75113 0.05827 0.0
C2711 C 0.64036 0.72043 0.08294 0.0
H2712 H 0.65414 0.6969 0.01425 0.0
H2713 H 0.6701 0.68338 0.07269 0.0
H2714 H 0.64921 0.72983 0.03333 0.0
H2715 H 0.67103 0.74077 0.02546 0.0
H2716 H 0.65543 0.7234 0.0093 0.0
H2717 H 0.68015 0.70163 0.10237 0.0
H2718 H 0.69009 0.72417 0.09634 0.0
H2719 H 0.6686 0.71312 0.10552 0.0
H2720 H 0.70204 0.77751 0.07883 0.0
H2721 H 0.65002 0.75163 0.09954 0.0
H2722 H 0.69862 0.74733 0.04131 0.0
H2723 H 0.70516 0.74165 0.06563 0.0
H2724 H 0.71379 0.76392 0.05875 0.0
H2725 H 0.63515 0.71573 0.06668 0.0
H2726 H 0.63112 0.72284 0.09179 0.0
H2727 H 0.6415 0.71005 0.09117 0.0
C2728 C 0.30284 0.95657 0.03166 0.0
C2729 C 0.31056 0.97362 0.03861 0.0
C2730 C 0.28763 0.94394 0.04088 0.0
C2731 C 0.27979 0.94856 0.0571 0.0
C2732 C 0.28718 0.96589 0.06353 0.0
C2733 C 0.30257 0.97817 0.05438 0.0
C2734 C 0.28031 0.92556 0.03383 0.0
C2735 C 0.27904 0.97142 0.08043 0.0
C2736 C 0.23344 0.9177 0.07068 0.0
C2737 C 0.23506 0.91016 0.08968 0.0
C2738 C 0.24785 0.93025 0.05995 0.0
C2739 C 0.26433 0.93517 0.06812 0.0
C2740 C 0.26609 0.92748 0.08708 0.0
C2741 C 0.25148 0.91526 0.09773 0.0
C2742 C 0.24543 0.93834 0.03996 0.0
C2743 C 0.28345 0.93222 0.0962 0.0
H2744 H 0.30901 0.95296 0.01957 0.0
H2745 H 0.30843 0.99136 0.05971 0.0
H2746 H 0.28048 0.9177 0.04748 0.0
H2747 H 0.26683 0.92026 0.02872 0.0
H2748 H 0.28755 0.92417 0.02044 0.0
H2749 H 0.28569 0.98554 0.08247 0.0
H2750 H 0.2655 0.96692 0.07621 0.0
H2751 H 0.27922 0.96553 0.096 0.0
H2752 H 0.22089 0.91371 0.06403 0.0
H2753 H 0.25298 0.90987 0.11259 0.0
H2754 H 0.25168 0.93596 0.02625 0.0
H2755 H 0.25158 0.95242 0.04208 0.0
H2756 H 0.23176 0.93333 0.03589 0.0
H2757 H 0.2912 0.93036 0.08393 0.0
H2758 H 0.28266 0.92449 0.11051 0.0
H2759 H 0.2903 0.94595 0.10074 0.0
C2760 C 0.35605 0.06141 0.98078 0.0
C2761 C 0.34679 0.04377 0.98505 0.0
C2762 C 0.34897 0.06961 0.96879 0.0
C2763 C 0.33213 0.06001 0.96076 0.0
C2764 C 0.32259 0.04222 0.96503 0.0
C2765 C 0.33003 0.03429 0.97714 0.0
C2766 C 0.35963 0.0886 0.96461 0.0
C2767 C 0.30457 0.03161 0.95675 0.0
C2768 C 0.31336 0.08839 0.94617 0.0
C2769 C 0.31737 0.09141 0.9244 0.0
C2770 C 0.317 0.07719 0.95796 0.0
C2771 C 0.32485 0.06885 0.94774 0.0
C2772 C 0.32793 0.07102 0.92548 0.0
C2773 C 0.32417 0.08228 0.91409 0.0
C2774 C 0.31348 0.07521 0.98165 0.0
C2775 C 0.33621 0.06231 0.91393 0.0
H2776 H 0.36898 0.06896 0.98681 0.0
H2777 H 0.32274 0.02068 0.98035 0.0
H2778 H 0.36118 0.09101 0.94714 0.0
H2779 H 0.35311 0.09539 0.97089 0.0
H2780 H 0.37249 0.09423 0.97213 0.0
H2781 H 0.29876 0.01799 0.9617 0.0
H2782 H 0.29654 0.03689 0.96268 0.0
H2783 H 0.3044 0.03219 0.93903 0.0
H2784 H 0.30817 0.09544 0.95427 0.0
H2785 H 0.32697 0.08429 0.89717 0.0
H2786 H 0.3257 0.082 0.99066 0.0
H2787 H 0.30728 0.06153 0.98633 0.0
H2788 H 0.30523 0.08055 0.98656 0.0
H2789 H 0.34977 0.06814 0.91899 0.0
H2790 H 0.33571 0.06353 0.89628 0.0
H2791 H 0.32993 0.04853 0.91813 0.0
C2792 C 0.96902 0.30553 0.96268 0.0
C2793 C 0.96675 0.30986 0.98345 0.0
C2794 C 0.95637 0.29068 0.95259 0.0
C2795 C 0.9411 0.27988 0.96355 0.0
C2796 C 0.93892 0.28394 0.98472 0.0
C2797 C 0.95177 0.2989 0.99442 0.0
C2798 C 0.95918 0.28677 0.93 0.0
C2799 C 0.92285 0.2727 0.99696 0.0
C2800 C 0.90163 0.25201 0.93003 0.0
C2801 C 0.90098 0.23608 0.93094 0.0
C2802 C 0.91457 0.26633 0.94067 0.0
C2803 C 0.92715 0.26469 0.95254 0.0
C2804 C 0.9265 0.24863 0.95366 0.0
C2805 C 0.91344 0.23452 0.94283 0.0
C2806 C 0.91487 0.28327 0.93901 0.0
C2807 C 0.93964 0.24636 0.96625 0.0
H2808 H 0.98056 0.31393 0.9541 0.0
H2809 H 0.94994 0.30215 0.01048 0.0
H2810 H 0.95762 0.27373 0.92915 0.0
H2811 H 0.94947 0.28699 0.91916 0.0
H2812 H 0.97203 0.29609 0.92402 0.0
H2813 H 0.92348 0.2772 0.01364 0.0
H2814 H 0.91178 0.27249 0.98873 0.0
H2815 H 0.92046 0.25934 0.99738 0.0
H2816 H 0.89218 0.25335 0.92065 0.0
H2817 H 0.91288 0.22219 0.94382 0.0
H2818 H 0.92693 0.29293 0.93155 0.0
H2819 H 0.91443 0.28803 0.9552 0.0
H2820 H 0.90402 0.28235 0.92938 0.0
H2821 H 0.95253 0.25494 0.95984 0.0
H2822 H 0.93723 0.23297 0.96571 0.0
H2823 H 0.93972 0.25001 0.98319 0.0
C2824 C 0.69661 0.66041 0.97067 0.0
C2825 C 0.69537 0.65315 0.99088 0.0
C2826 C 0.71142 0.66604 0.95846 0.0
C2827 C 0.72539 0.66483 0.96706 0.0
C2828 C 0.72458 0.65868 0.98815 0.0
C2829 C 0.70943 0.65258 0.99965 0.0
C2830 C 0.71158 0.67204 0.93583 0.0
C2831 C 0.73939 0.65769 0.99816 0.0
C2832 C 0.75395 0.65679 0.93049 0.0
C2833 C 0.7682 0.67319 0.9284 0.0
C2834 C 0.73976 0.65409 0.94237 0.0
C2835 C 0.73999 0.66799 0.95326 0.0
C2836 C 0.75432 0.68455 0.95151 0.0
C2837 C 0.76813 0.68701 0.93883 0.0
C2838 C 0.72458 0.63625 0.94349 0.0
C2839 C 0.75518 0.69958 0.96336 0.0
H2840 H 0.68561 0.66064 0.96386 0.0
H2841 H 0.70843 0.64701 0.01534 0.0
H2842 H 0.72349 0.68419 0.93275 0.0
H2843 H 0.71117 0.66236 0.9245 0.0
H2844 H 0.70053 0.67398 0.93237 0.0
H2845 H 0.73764 0.65502 0.0156 0.0
H2846 H 0.74074 0.64733 0.99042 0.0
H2847 H 0.75145 0.66985 0.99567 0.0
H2848 H 0.75391 0.64587 0.92311 0.0
H2849 H 0.77886 0.6998 0.93714 0.0
H2850 H 0.71273 0.6365 0.9392 0.0
H2851 H 0.72312 0.6313 0.96007 0.0
H2852 H 0.72582 0.62716 0.93264 0.0
H2853 H 0.74431 0.70142 0.95861 0.0
H2854 H 0.76723 0.71166 0.96031 0.0
H2855 H 0.75415 0.697 0.98081 0.0
C2856 C 0.95913 0.66761 0.99728 0.0
C2857 C 0.97149 0.66656 0.98496 0.0
C2858 C 0.94679 0.67077 0.98768 0.0
C2859 C 0.94659 0.67255 0.96518 0.0
C2860 C 0.95931 0.67192 0.95273 0.0
C2861 C 0.97171 0.6691 0.9628 0.0
C2862 C 0.93367 0.67173 0.00155 0.0
C2863 C 0.9594 0.67348 0.92867 0.0
C2864 C 0.90425 0.66017 0.9379 0.0
C2865 C 0.90604 0.67617 0.93247 0.0
C2866 C 0.91731 0.65885 0.94858 0.0
C2867 C 0.93246 0.6739 0.95449 0.0
C2868 C 0.93419 0.69011 0.9497 0.0
C2869 C 0.92104 0.69106 0.93858 0.0
C2870 C 0.91501 0.6413 0.95323 0.0
C2871 C 0.95003 0.70645 0.95604 0.0
H2872 H 0.95898 0.66578 0.01444 0.0
H2873 H 0.98119 0.66822 0.95319 0.0
H2874 H 0.93303 0.68351 0.99787 0.0
H2875 H 0.92089 0.66066 0.99811 0.0
H2876 H 0.93651 0.67167 0.01887 0.0
H2877 H 0.9706 0.67351 0.9214 0.0
H2878 H 0.94764 0.66263 0.92186 0.0
H2879 H 0.95942 0.68543 0.92397 0.0
H2880 H 0.89259 0.64858 0.93376 0.0
H2881 H 0.9227 0.70349 0.93429 0.0
H2882 H 0.91604 0.63971 0.97069 0.0
H2883 H 0.92527 0.6399 0.94547 0.0
H2884 H 0.9025 0.63086 0.94746 0.0
H2885 H 0.95262 0.70632 0.97341 0.0
H2886 H 0.94894 0.718 0.95241 0.0
H2887 H 0.96119 0.70746 0.94744 0.0
C2888 C 0.35571 0.30347 0.97031 0.0
C2889 C 0.34563 0.30966 0.97946 0.0
C2890 C 0.34835 0.28751 0.96014 0.0
C2891 C 0.33039 0.27729 0.95916 0.0
C2892 C 0.32007 0.28347 0.9681 0.0
C2893 C 0.32781 0.29964 0.97808 0.0
C2894 C 0.35985 0.28149 0.95065 0.0
C2895 C 0.30088 0.27288 0.96744 0.0
C2896 C 0.31506 0.24235 0.91706 0.0
C2897 C 0.31392 0.22858 0.92904 0.0
C2898 C 0.31945 0.25806 0.92686 0.0
C2899 C 0.32268 0.26 0.94917 0.0
C2900 C 0.32055 0.24581 0.96151 0.0
C2901 C 0.31627 0.2303 0.95128 0.0
C2902 C 0.32169 0.27288 0.91311 0.0
C2903 C 0.32371 0.24729 0.98537 0.0
H2904 H 0.36948 0.31113 0.97108 0.0
H2905 H 0.31991 0.30427 0.98514 0.0
H2906 H 0.35776 0.26961 0.95877 0.0
H2907 H 0.35673 0.27841 0.93345 0.0
H2908 H 0.37355 0.29122 0.95216 0.0
H2909 H 0.29465 0.27974 0.97443 0.0
H2910 H 0.29634 0.26932 0.9507 0.0
H2911 H 0.29673 0.2608 0.97643 0.0
H2912 H 0.31339 0.24113 0.89984 0.0
H2913 H 0.31517 0.2196 0.96063 0.0
H2914 H 0.33544 0.28248 0.91217 0.0
H2915 H 0.31513 0.27933 0.92028 0.0
H2916 H 0.3167 0.26878 0.8966 0.0
H2917 H 0.33752 0.25563 0.98865 0.0
H2918 H 0.31956 0.23464 0.99296 0.0
H2919 H 0.31692 0.25332 0.99301 0.0
C2920 C 0.6931 0.03725 0.96328 0.0
C2921 C 0.69296 0.03231 0.98456 0.0
C2922 C 0.70802 0.05026 0.95415 0.0
C2923 C 0.72332 0.05796 0.96635 0.0
C2924 C 0.72333 0.05261 0.98771 0.0
C2925 C 0.708 0.04008 0.99675 0.0
C2926 C 0.70731 0.05603 0.93161 0.0
C2927 C 0.73954 0.06 0.00089 0.0
C2928 C 0.76317 0.08072 0.93273 0.0
C2929 C 0.76755 0.09799 0.93515 0.0
C2930 C 0.74938 0.06765 0.94372 0.0
C2931 C 0.73917 0.07179 0.95673 0.0
C2932 C 0.74352 0.08911 0.95945 0.0
C2933 C 0.75786 0.10199 0.94907 0.0
C2934 C 0.74548 0.04936 0.94099 0.0
C2935 C 0.73267 0.09403 0.9727 0.0
H2936 H 0.68136 0.03129 0.95399 0.0
H2937 H 0.70783 0.0361 0.01319 0.0
H2938 H 0.71181 0.06998 0.93146 0.0
H2939 H 0.7159 0.05382 0.92116 0.0
H2940 H 0.69424 0.0492 0.92465 0.0
H2941 H 0.73755 0.05374 0.01678 0.0
H2942 H 0.74941 0.05849 0.99224 0.0
H2943 H 0.7446 0.0739 0.00336 0.0
H2944 H 0.77023 0.07725 0.92184 0.0
H2945 H 0.76129 0.11522 0.95176 0.0
H2946 H 0.73358 0.04212 0.93149 0.0
H2947 H 0.74342 0.04299 0.95679 0.0
H2948 H 0.75589 0.04851 0.93271 0.0
H2949 H 0.71952 0.08788 0.96601 0.0
H2950 H 0.73777 0.10809 0.97317 0.0
H2951 H 0.73178 0.08934 0.98932 0.0
C2952 C 0.65205 0.94621 0.04686 0.0
C2953 C 0.66146 0.96213 0.03681 0.0
C2954 C 0.66012 0.93819 0.05702 0.0
C2955 C 0.67812 0.94619 0.05703 0.0
C2956 C 0.68779 0.96241 0.04726 0.0
C2957 C 0.67933 0.97027 0.03732 0.0
C2958 C 0.6493 0.92098 0.06747 0.0
C2959 C 0.707 0.97123 0.04688 0.0
C2960 C 0.6934 0.92623 0.09886 0.0
C2961 C 0.69323 0.91291 0.08704 0.0
C2962 C 0.68998 0.93828 0.08892 0.0
C2963 C 0.68643 0.93696 0.06667 0.0
C2964 C 0.68784 0.9245 0.05441 0.0
C2965 C 0.69112 0.91253 0.06479 0.0
C2966 C 0.68858 0.95135 0.10256 0.0
C2967 C 0.6844 0.92281 0.03062 0.0
H2968 H 0.63825 0.93992 0.04681 0.0
H2969 H 0.68668 0.98257 0.02957 0.0
H2970 H 0.65128 0.91111 0.05941 0.0
H2971 H 0.65313 0.92145 0.08448 0.0
H2972 H 0.63549 0.91685 0.06679 0.0
H2973 H 0.71269 0.98432 0.04002 0.0
H2974 H 0.71217 0.9721 0.06329 0.0
H2975 H 0.7111 0.9636 0.0372 0.0
H2976 H 0.695 0.92651 0.11609 0.0
H2977 H 0.69124 0.90236 0.05562 0.0
H2978 H 0.67492 0.9473 0.1049 0.0
H2979 H 0.69456 0.96403 0.0946 0.0
H2980 H 0.69463 0.95274 0.11854 0.0
H2981 H 0.67049 0.9171 0.02765 0.0
H2982 H 0.68877 0.91452 0.02297 0.0
H2983 H 0.69079 0.93555 0.02281 0.0
C2984 C 0.03288 0.70887 0.04108 0.0
C2985 C 0.04041 0.69841 0.04016 0.0
C2986 C 0.04155 0.7252 0.05059 0.0
C2987 C 0.05801 0.73109 0.05952 0.0
C2988 C 0.06549 0.72046 0.05897 0.0
C2989 C 0.05665 0.70433 0.04927 0.0
C2990 C 0.03323 0.73624 0.05079 0.0
C2991 C 0.08298 0.72617 0.06846 0.0
C2992 C 0.09142 0.7777 0.06624 0.0
C2993 C 0.0914 0.77977 0.08845 0.0
C2994 C 0.07972 0.76226 0.05635 0.0
C2995 C 0.06784 0.74851 0.06902 0.0
C2996 C 0.06709 0.7509 0.09128 0.0
C2997 C 0.07886 0.76654 0.10073 0.0
C2998 C 0.08083 0.76032 0.03254 0.0
C2999 C 0.05469 0.73654 0.10537 0.0
H3000 H 0.02036 0.70443 0.03405 0.0
H3001 H 0.06256 0.69634 0.04885 0.0
H3002 H 0.03262 0.74019 0.0674 0.0
H3003 H 0.04101 0.7481 0.04148 0.0
H3004 H 0.02013 0.72956 0.04389 0.0
H3005 H 0.08676 0.71615 0.0673 0.0
H3006 H 0.09261 0.73779 0.06006 0.0
H3007 H 0.08329 0.7296 0.08555 0.0
H3008 H 0.10096 0.788 0.05668 0.0
H3009 H 0.07887 0.76804 0.11793 0.0
H3010 H 0.06797 0.75443 0.02504 0.0
H3011 H 0.08612 0.75169 0.02949 0.0
H3012 H 0.08912 0.77279 0.02463 0.0
H3013 H 0.04171 0.73029 0.09819 0.0
H3014 H 0.05412 0.7411 0.12168 0.0
H3015 H 0.05864 0.72666 0.10682 0.0
C3016 C 0.29582 0.34055 0.02138 0.0
C3017 C 0.30913 0.34171 0.03436 0.0
C3018 C 0.28011 0.33691 0.03023 0.0
C3019 C 0.27783 0.33481 0.05264 0.0
C3020 C 0.29117 0.33573 0.06576 0.0
C3021 C 0.30658 0.33897 0.05642 0.0
C3022 C 0.26607 0.33561 0.01564 0.0
C3023 C 0.28939 0.33392 0.08976 0.0
C3024 C 0.24588 0.34503 0.0784 0.0
C3025 C 0.23242 0.32868 0.08343 0.0
C3026 C 0.26064 0.34717 0.06834 0.0
C3027 C 0.26189 0.3326 0.06254 0.0
C3028 C 0.24815 0.31604 0.06681 0.0
C3029 C 0.23368 0.31428 0.07739 0.0
C3030 C 0.27508 0.36507 0.06431 0.0
C3031 C 0.24886 0.30019 0.0605 0.0
H3032 H 0.29769 0.34254 0.00429 0.0
H3033 H 0.31686 0.33995 0.06654 0.0
H3034 H 0.25411 0.32346 0.01863 0.0
H3035 H 0.26349 0.34623 0.01905 0.0
H3036 H 0.26936 0.33616 0.99848 0.0
H3037 H 0.30077 0.33449 0.09764 0.0
H3038 H 0.28748 0.3443 0.09635 0.0
H3039 H 0.27803 0.32159 0.09397 0.0
H3040 H 0.24495 0.35627 0.08242 0.0
H3041 H 0.22353 0.30158 0.08135 0.0
H3042 H 0.2779 0.36697 0.04698 0.0
H3043 H 0.2868 0.36692 0.07263 0.0
H3044 H 0.27215 0.37506 0.06991 0.0
H3045 H 0.25198 0.30073 0.0433 0.0
H3046 H 0.23663 0.28828 0.06347 0.0
H3047 H 0.2591 0.29952 0.06969 0.0
C3048 C 0.71775 0.68785 0.38138 0.0
C3049 C 0.70023 0.67802 0.3769 0.0
C3050 C 0.72668 0.68075 0.39158 0.0
C3051 C 0.71795 0.6633 0.39755 0.0
C3052 C 0.7003 0.65318 0.39306 0.0
C3053 C 0.69161 0.66066 0.38275 0.0
C3054 C 0.74553 0.69202 0.39604 0.0
C3055 C 0.69062 0.63452 0.39922 0.0
C3056 C 0.7493 0.64747 0.40702 0.0
C3057 C 0.75275 0.65083 0.42892 0.0
C3058 C 0.7368 0.65002 0.39678 0.0
C3059 C 0.72759 0.65606 0.40878 0.0
C3060 C 0.73004 0.65806 0.4312 0.0
C3061 C 0.74262 0.65544 0.441 0.0
C3062 C 0.73453 0.64768 0.37286 0.0
C3063 C 0.72039 0.66435 0.44461 0.0
H3064 H 0.72464 0.70124 0.37688 0.0
H3065 H 0.6781 0.65294 0.37933 0.0
H3066 H 0.74807 0.69254 0.4135 0.0
H3067 H 0.75284 0.68659 0.38831 0.0
H3068 H 0.75043 0.70531 0.39014 0.0
H3069 H 0.67701 0.62832 0.39424 0.0
H3070 H 0.69654 0.62753 0.39179 0.0
H3071 H 0.69131 0.63321 0.4168 0.0
H3072 H 0.7571 0.6439 0.39761 0.0
H3073 H 0.74503 0.65769 0.45803 0.0
H3074 H 0.74071 0.66042 0.36501 0.0
H3075 H 0.72083 0.64113 0.36835 0.0
H3076 H 0.74033 0.64019 0.36652 0.0
H3077 H 0.72541 0.6782 0.44158 0.0
H3078 H 0.72169 0.66255 0.46199 0.0
H3079 H 0.70667 0.6576 0.44022 0.0
C3080 C 0.33576 0.03974 0.36088 0.0
C3081 C 0.32864 0.02497 0.37353 0.0
C3082 C 0.33909 0.05557 0.36944 0.0
C3083 C 0.33445 0.05637 0.39081 0.0
C3084 C 0.32708 0.04138 0.40353 0.0
C3085 C 0.3246 0.02592 0.39485 0.0
C3086 C 0.34762 0.0714 0.35568 0.0
C3087 C 0.32138 0.04154 0.42612 0.0
C3088 C 0.35267 0.09774 0.42264 0.0
C3089 C 0.33994 0.10236 0.42003 0.0
C3090 C 0.35147 0.0833 0.41233 0.0
C3091 C 0.33685 0.07275 0.39983 0.0
C3092 C 0.32404 0.07734 0.39692 0.0
C3093 C 0.32593 0.09227 0.4066 0.0
C3094 C 0.36569 0.07915 0.41525 0.0
C3095 C 0.30802 0.06618 0.38417 0.0
H3096 H 0.33898 0.03897 0.34442 0.0
H3097 H 0.31892 0.01441 0.40453 0.0
H3098 H 0.33886 0.07658 0.35287 0.0
H3099 H 0.35908 0.08149 0.36403 0.0
H3100 H 0.3515 0.06881 0.33994 0.0
H3101 H 0.31542 0.02866 0.43364 0.0
H3102 H 0.3324 0.05047 0.43615 0.0
H3103 H 0.31204 0.04621 0.42615 0.0
H3104 H 0.36345 0.10512 0.43315 0.0
H3105 H 0.31624 0.09586 0.40377 0.0
H3106 H 0.3695 0.07644 0.39954 0.0
H3107 H 0.36123 0.06748 0.42518 0.0
H3108 H 0.37709 0.08974 0.42313 0.0
H3109 H 0.31128 0.06467 0.36757 0.0
H3110 H 0.29919 0.07149 0.38357 0.0
H3111 H 0.30124 0.05321 0.39137 0.0
C3112 C 0.97209 0.30125 0.38887 0.0
C3113 C 0.97469 0.30099 0.36683 0.0
C3114 C 0.9569 0.28895 0.39839 0.0
C3115 C 0.94379 0.27626 0.38549 0.0
C3116 C 0.94615 0.27621 0.36312 0.0
C3117 C 0.96166 0.28846 0.35409 0.0
C3118 C 0.95507 0.28927 0.42234 0.0
C3119 C 0.93233 0.26315 0.34877 0.0
C3120 C 0.91225 0.23501 0.41315 0.0
C3121 C 0.89874 0.23806 0.41772 0.0
C3122 C 0.92685 0.24722 0.40246 0.0
C3123 C 0.92789 0.26276 0.39563 0.0
C3124 C 0.91408 0.26569 0.39942 0.0
C3125 C 0.89978 0.25342 0.41061 0.0
C3126 C 0.94138 0.24366 0.39898 0.0
C3127 C 0.91456 0.28197 0.39207 0.0
H3128 H 0.98216 0.31083 0.39883 0.0
H3129 H 0.96356 0.28826 0.33702 0.0
H3130 H 0.94369 0.29041 0.42622 0.0
H3131 H 0.95313 0.27708 0.42939 0.0
H3132 H 0.96641 0.30004 0.43008 0.0
H3133 H 0.93577 0.26544 0.3316 0.0
H3134 H 0.92985 0.25012 0.35304 0.0
H3135 H 0.92027 0.26341 0.35112 0.0
H3136 H 0.91149 0.22306 0.41803 0.0
H3137 H 0.8896 0.25611 0.41421 0.0
H3138 H 0.95302 0.25355 0.40724 0.0
H3139 H 0.94431 0.24439 0.3817 0.0
H3140 H 0.9385 0.23087 0.40503 0.0
H3141 H 0.92467 0.29305 0.40096 0.0
H3142 H 0.90223 0.28167 0.39459 0.0
H3143 H 0.91775 0.28416 0.37484 0.0
C3144 C 0.01825 0.38615 0.30198 0.0
C3145 C 0.00853 0.3701 0.31168 0.0
C3146 C 0.0105 0.3945 0.29177 0.0
C3147 C 0.99251 0.38671 0.29126 0.0
C3148 C 0.98255 0.37034 0.30058 0.0
C3149 C 0.99068 0.36218 0.31063 0.0
C3150 C 0.02163 0.41187 0.28186 0.0
C3151 C 0.96334 0.36168 0.3004 0.0
C3152 C 0.97776 0.41936 0.28438 0.0
C3153 C 0.97502 0.41885 0.26222 0.0
C3154 C 0.98237 0.40815 0.29428 0.0
C3155 C 0.98442 0.39622 0.28168 0.0
C3156 C 0.98078 0.39503 0.25946 0.0
C3157 C 0.97608 0.40634 0.25 0.0
C3158 C 0.98599 0.40974 0.31804 0.0
C3159 C 0.98289 0.38256 0.24545 0.0
H3160 H 0.03204 0.39233 0.30246 0.0
H3161 H 0.98307 0.34979 0.31809 0.0
H3162 H 0.01807 0.41176 0.2648 0.0
H3163 H 0.01963 0.42165 0.29011 0.0
H3164 H 0.03539 0.41583 0.28284 0.0
H3165 H 0.95741 0.34856 0.3072 0.0
H3166 H 0.95916 0.36936 0.30983 0.0
H3167 H 0.95852 0.36092 0.28382 0.0
H3168 H 0.97669 0.42884 0.29393 0.0
H3169 H 0.97408 0.40597 0.23283 0.0
H3170 H 0.99987 0.41513 0.32089 0.0
H3171 H 0.97941 0.39697 0.32575 0.0
H3172 H 0.9819 0.41819 0.3259 0.0
H3173 H 0.99665 0.38674 0.24395 0.0
H3174 H 0.97748 0.38166 0.22916 0.0
H3175 H 0.97667 0.36962 0.25274 0.0
C3176 C 0.63544 0.63719 0.29925 0.0
C3177 C 0.63218 0.64123 0.31969 0.0
C3178 C 0.62359 0.62208 0.28881 0.0
C3179 C 0.60812 0.61077 0.29906 0.0
C3180 C 0.60501 0.61452 0.31995 0.0
C3181 C 0.61707 0.6297 0.33001 0.0
C3182 C 0.62739 0.61849 0.26656 0.0
C3183 C 0.58869 0.60275 0.33144 0.0
C3184 C 0.56961 0.58212 0.26455 0.0
C3185 C 0.56914 0.56631 0.26619 0.0
C3186 C 0.58227 0.59669 0.27508 0.0
C3187 C 0.59482 0.59544 0.28755 0.0
C3188 C 0.59449 0.57954 0.28921 0.0
C3189 C 0.58165 0.56516 0.27851 0.0
C3190 C 0.58222 0.61343 0.27287 0.0
C3191 C 0.60762 0.5777 0.30239 0.0
H3192 H 0.6471 0.64603 0.29118 0.0
H3193 H 0.61447 0.63271 0.34583 0.0
H3194 H 0.62614 0.60557 0.26587 0.0
H3195 H 0.618 0.6186 0.25504 0.0
H3196 H 0.6404 0.62805 0.26131 0.0
H3197 H 0.58863 0.60702 0.34807 0.0
H3198 H 0.57769 0.60219 0.3226 0.0
H3199 H 0.58676 0.58956 0.33194 0.0
H3200 H 0.56015 0.58317 0.25479 0.0
H3201 H 0.58126 0.55294 0.28005 0.0
H3202 H 0.59446 0.62332 0.26602 0.0
H3203 H 0.58103 0.61804 0.28885 0.0
H3204 H 0.57163 0.61227 0.26248 0.0
H3205 H 0.62061 0.58679 0.29666 0.0
H3206 H 0.60578 0.56453 0.30172 0.0
H3207 H 0.60698 0.58096 0.31933 0.0
C3208 C 0.36967 0.00154 0.31096 0.0
C3209 C 0.3655 0.98943 0.32732 0.0
C3210 C 0.38481 0.00734 0.29936 0.0
C3211 C 0.39609 0.0011 0.3046 0.0
C3212 C 0.39247 0.98982 0.32212 0.0
C3213 C 0.37714 0.984 0.33312 0.0
C3214 C 0.38816 0.01923 0.28066 0.0
C3215 C 0.4043 0.98312 0.32851 0.0
C3216 C 0.42246 0.9948 0.26264 0.0
C3217 C 0.43881 0.00837 0.26708 0.0
C3218 C 0.40831 0.99287 0.274 0.0
C3219 C 0.41064 0.00464 0.29047 0.0
C3220 C 0.42706 0.01872 0.29451 0.0
C3221 C 0.44099 0.0205 0.28261 0.0
C3222 C 0.39098 0.97783 0.26893 0.0
C3223 C 0.43006 0.0314 0.31209 0.0
H3224 H 0.36065 0.0057 0.30638 0.0
H3225 H 0.37404 0.97478 0.34592 0.0
H3226 H 0.40151 0.02988 0.28102 0.0
H3227 H 0.38633 0.01208 0.26553 0.0
H3228 H 0.37945 0.02469 0.28044 0.0
H3229 H 0.40064 0.9761 0.34395 0.0
H3230 H 0.40406 0.97428 0.31598 0.0
H3231 H 0.4176 0.99379 0.32991 0.0
H3232 H 0.4208 0.98555 0.25042 0.0
H3233 H 0.45367 0.03097 0.28603 0.0
H3234 H 0.38151 0.9822 0.26653 0.0
H3235 H 0.38662 0.96876 0.28258 0.0
H3236 H 0.39109 0.97082 0.25438 0.0
H3237 H 0.42075 0.03607 0.3108 0.0
H3238 H 0.44315 0.04258 0.31172 0.0
H3239 H 0.42814 0.025 0.32784 0.0
C3240 C 0.64144 0.99595 0.29101 0.0
C3241 C 0.64133 0.99325 0.31312 0.0
C3242 C 0.6285 0.99795 0.28104 0.0
C3243 C 0.61532 0.99758 0.29356 0.0
C3244 C 0.61549 0.99547 0.31601 0.0
C3245 C 0.6284 0.99315 0.32549 0.0
C3246 C 0.62862 0.99991 0.25703 0.0
C3247 C 0.60186 0.99536 0.32996 0.0
C3248 C 0.58875 0.01576 0.26916 0.0
C3249 C 0.5738 0.00084 0.26297 0.0
C3250 C 0.60227 0.0149 0.27936 0.0
C3251 C 0.60101 0.99875 0.28309 0.0
C3252 C 0.58605 0.98366 0.27678 0.0
C3253 C 0.57259 0.98488 0.26702 0.0
C3254 C 0.61792 0.03128 0.2861 0.0
C3255 C 0.58427 0.96619 0.28028 0.0
H3256 H 0.65135 0.99592 0.28136 0.0
H3257 H 0.62831 0.99116 0.34261 0.0
H3258 H 0.61705 0.98898 0.24998 0.0
H3259 H 0.6283 0.01175 0.25273 0.0
H3260 H 0.64003 0.00041 0.24967 0.0
H3261 H 0.60442 0.99468 0.34725 0.0
H3262 H 0.60089 0.00706 0.32707 0.0
H3263 H 0.58931 0.98421 0.32582 0.0
H3264 H 0.59002 0.02819 0.26581 0.0
H3265 H 0.56103 0.97325 0.26272 0.0
H3266 H 0.62925 0.0326 0.27762 0.0
H3267 H 0.62033 0.03091 0.30349 0.0
H3268 H 0.61668 0.04278 0.28271 0.0
H3269 H 0.59488 0.96549 0.27239 0.0
H3270 H 0.57201 0.95573 0.27392 0.0
H3271 H 0.5851 0.96399 0.29761 0.0
C3272 C 0.01783 0.63391 0.30054 0.0
C3273 C 0.00813 0.64047 0.30982 0.0
C3274 C 0.01006 0.61784 0.2906 0.0
C3275 C 0.99207 0.60792 0.29002 0.0
C3276 C 0.98212 0.61456 0.29894 0.0
C3277 C 0.99028 0.63083 0.30865 0.0
C3278 C 0.02116 0.61135 0.28107 0.0
C3279 C 0.96291 0.60429 0.29871 0.0
C3280 C 0.97543 0.57176 0.24949 0.0
C3281 C 0.97428 0.55825 0.26205 0.0
C3282 C 0.98027 0.58781 0.25858 0.0
C3283 C 0.98393 0.59035 0.28078 0.0
C3284 C 0.98179 0.57645 0.29372 0.0
C3285 C 0.97707 0.56059 0.28418 0.0
C3286 C 0.98252 0.60232 0.24421 0.0
C3287 C 0.9854 0.57857 0.31747 0.0
H3288 H 0.03163 0.64132 0.30112 0.0
H3289 H 0.98269 0.63578 0.31583 0.0
H3290 H 0.01912 0.59965 0.28965 0.0
H3291 H 0.01762 0.6078 0.26406 0.0
H3292 H 0.03493 0.62098 0.28199 0.0
H3293 H 0.95701 0.61163 0.30522 0.0
H3294 H 0.95811 0.60019 0.28216 0.0
H3295 H 0.95867 0.59251 0.30839 0.0
H3296 H 0.9734 0.57004 0.23234 0.0
H3297 H 0.97597 0.5501 0.29397 0.0
H3298 H 0.99629 0.61169 0.24274 0.0
H3299 H 0.97631 0.60919 0.25119 0.0
H3300 H 0.97716 0.5978 0.22793 0.0
H3301 H 0.99929 0.58685 0.3203 0.0
H3302 H 0.98124 0.56612 0.32561 0.0
H3303 H 0.97889 0.58496 0.32493 0.0
C3304 C 0.36679 0.38147 0.32904 0.0
C3305 C 0.35608 0.36639 0.31777 0.0
C3306 C 0.38199 0.39421 0.32 0.0
C3307 C 0.38651 0.39182 0.29919 0.0
C3308 C 0.37593 0.37647 0.28795 0.0
C3309 C 0.36086 0.36393 0.29739 0.0
C3310 C 0.39301 0.41039 0.33251 0.0
C3311 C 0.38033 0.37345 0.26572 0.0
C3312 C 0.41537 0.43068 0.2658 0.0
C3313 C 0.43098 0.43086 0.26745 0.0
C3314 C 0.40086 0.41819 0.27631 0.0
C3315 C 0.402 0.40559 0.28881 0.0
C3316 C 0.41778 0.40585 0.29082 0.0
C3317 C 0.43208 0.41847 0.28008 0.0
C3318 C 0.38422 0.41827 0.27369 0.0
C3319 C 0.4195 0.39269 0.30412 0.0
H3320 H 0.36319 0.38344 0.34481 0.0
H3321 H 0.35265 0.35231 0.28858 0.0
H3322 H 0.40623 0.4126 0.33378 0.0
H3323 H 0.39361 0.42153 0.32397 0.0
H3324 H 0.38812 0.40992 0.34888 0.0
H3325 H 0.37104 0.36058 0.25943 0.0
H3326 H 0.38062 0.38327 0.25463 0.0
H3327 H 0.39321 0.37473 0.26574 0.0
H3328 H 0.4144 0.4401 0.25586 0.0
H3329 H 0.44417 0.41869 0.28163 0.0
H3330 H 0.37918 0.41886 0.28958 0.0
H3331 H 0.37462 0.40622 0.26589 0.0
H3332 H 0.3856 0.42924 0.26392 0.0
H3333 H 0.41535 0.39278 0.32073 0.0
H3334 H 0.43279 0.395 0.30459 0.0
H3335 H 0.41109 0.37971 0.29751 0.0
C3336 C 0.33984 0.30443 0.37318 0.0
C3337 C 0.32204 0.29714 0.37297 0.0
C3338 C 0.3477 0.29615 0.38361 0.0
C3339 C 0.33748 0.28037 0.3941 0.0
C3340 C 0.31958 0.27337 0.39463 0.0
C3341 C 0.31211 0.2818 0.38404 0.0
C3342 C 0.36681 0.30397 0.38275 0.0
C3343 C 0.3082 0.25665 0.40584 0.0
C3344 C 0.34803 0.2449 0.4013 0.0
C3345 C 0.35063 0.24535 0.42347 0.0
C3346 C 0.3453 0.25729 0.39112 0.0
C3347 C 0.34502 0.27034 0.40348 0.0
C3348 C 0.34905 0.27166 0.42558 0.0
C3349 C 0.35183 0.25912 0.43535 0.0
C3350 C 0.34125 0.25553 0.36747 0.0
C3351 C 0.34895 0.28541 0.43929 0.0
H3352 H 0.34758 0.31629 0.36467 0.0
H3353 H 0.29837 0.27621 0.38425 0.0
H3354 H 0.37212 0.3043 0.39894 0.0
H3355 H 0.3701 0.29596 0.37251 0.0
H3356 H 0.37306 0.31717 0.37617 0.0
H3357 H 0.29462 0.25343 0.40569 0.0
H3358 H 0.30912 0.24609 0.39792 0.0
H3359 H 0.3124 0.25723 0.4227 0.0
H3360 H 0.3474 0.23441 0.39205 0.0
H3361 H 0.35382 0.25949 0.45251 0.0
H3362 H 0.34827 0.26812 0.35939 0.0
H3363 H 0.32743 0.25081 0.36504 0.0
H3364 H 0.34448 0.24641 0.35966 0.0
H3365 H 0.35535 0.29798 0.43107 0.0
H3366 H 0.35532 0.28663 0.45501 0.0
H3367 H 0.33558 0.28219 0.44221 0.0
C3368 C 0.72787 0.03718 0.37387 0.0
C3369 C 0.71029 0.02871 0.36936 0.0
C3370 C 0.73586 0.05283 0.38471 0.0
C3371 C 0.72612 0.06043 0.39123 0.0
C3372 C 0.70845 0.05223 0.38643 0.0
C3373 C 0.7007 0.03641 0.37556 0.0
C3374 C 0.75475 0.06111 0.38949 0.0
C3375 C 0.69772 0.06005 0.39301 0.0
C3376 C 0.74803 0.09095 0.43717 0.0
C3377 C 0.75776 0.10645 0.42632 0.0
C3378 C 0.73654 0.07605 0.42613 0.0
C3379 C 0.73468 0.07667 0.40369 0.0
C3380 C 0.74343 0.09257 0.39291 0.0
C3381 C 0.75491 0.10728 0.40436 0.0
C3382 C 0.72742 0.05939 0.43827 0.0
C3383 C 0.7417 0.09381 0.36903 0.0
H3384 H 0.73551 0.03151 0.36908 0.0
H3385 H 0.68715 0.03004 0.37209 0.0
H3386 H 0.76148 0.07418 0.38259 0.0
H3387 H 0.75698 0.06239 0.40704 0.0
H3388 H 0.76053 0.05365 0.38299 0.0
H3389 H 0.68439 0.05261 0.38697 0.0
H3390 H 0.69748 0.06068 0.41071 0.0
H3391 H 0.70338 0.07336 0.38697 0.0
H3392 H 0.74986 0.09032 0.45425 0.0
H3393 H 0.76238 0.1192 0.39585 0.0
H3394 H 0.73319 0.05131 0.43438 0.0
H3395 H 0.71379 0.05218 0.43349 0.0
H3396 H 0.72829 0.06144 0.45586 0.0
H3397 H 0.74879 0.08835 0.36079 0.0
H3398 H 0.74688 0.10728 0.3637 0.0
H3399 H 0.72816 0.08632 0.3639 0.0
C3400 C 0.96663 0.66391 0.38026 0.0
C3401 C 0.97311 0.67481 0.36255 0.0
C3402 C 0.95122 0.66057 0.38967 0.0
C3403 C 0.94215 0.66849 0.38134 0.0
C3404 C 0.94842 0.67919 0.36314 0.0
C3405 C 0.96378 0.68215 0.35388 0.0
C3406 C 0.94486 0.6489 0.40889 0.0
C3407 C 0.93921 0.688 0.35389 0.0
C3408 C 0.89583 0.65113 0.39722 0.0
C3409 C 0.89738 0.66222 0.41395 0.0
C3410 C 0.91026 0.65298 0.38645 0.0
C3411 C 0.92664 0.66633 0.3924 0.0
C3412 C 0.9283 0.6776 0.40919 0.0
C3413 C 0.9137 0.67534 0.41982 0.0
C3414 C 0.908 0.64064 0.36873 0.0
C3415 C 0.94553 0.69202 0.41602 0.0
H3416 H 0.97372 0.65811 0.38697 0.0
H3417 H 0.96873 0.69062 0.34023 0.0
H3418 H 0.94498 0.6563 0.42312 0.0
H3419 H 0.93149 0.63868 0.40619 0.0
H3420 H 0.95276 0.64282 0.4125 0.0
H3421 H 0.94528 0.69522 0.33907 0.0
H3422 H 0.92575 0.67848 0.35022 0.0
H3423 H 0.93909 0.69705 0.36584 0.0
H3424 H 0.8833 0.64107 0.39238 0.0
H3425 H 0.91511 0.68377 0.43298 0.0
H3426 H 0.91533 0.63401 0.37256 0.0
H3427 H 0.9131 0.64772 0.35357 0.0
H3428 H 0.89442 0.63086 0.36614 0.0
H3429 H 0.9537 0.68676 0.42176 0.0
H3430 H 0.94459 0.69995 0.42897 0.0
H3431 H 0.95201 0.70042 0.40217 0.0
C3432 C 0.37808 0.00183 0.69214 0.0
C3433 C 0.36635 0.00519 0.70246 0.0
C3434 C 0.38841 0.99706 0.70383 0.0
C3435 C 0.38723 0.99609 0.72641 0.0
C3436 C 0.37446 0.99821 0.73672 0.0
C3437 C 0.36405 0.00266 0.72453 0.0
C3438 C 0.40161 0.99456 0.69216 0.0
C3439 C 0.3729 0.99746 0.76075 0.0
C3440 C 0.41328 0.98021 0.75743 0.0
C3441 C 0.42825 0.99565 0.76196 0.0
C3442 C 0.39971 0.98007 0.74599 0.0
C3443 C 0.40105 0.99574 0.73919 0.0
C3444 C 0.41601 0.01135 0.74397 0.0
C3445 C 0.42945 0.0111 0.75507 0.0
C3446 C 0.38404 0.96319 0.74095 0.0
C3447 C 0.41793 0.02838 0.7371 0.0
H3448 H 0.37982 0.00386 0.67503 0.0
H3449 H 0.35511 0.00554 0.73246 0.0
H3450 H 0.41437 0.00592 0.69473 0.0
H3451 H 0.40211 0.98324 0.69846 0.0
H3452 H 0.399 0.9929 0.67468 0.0
H3453 H 0.36075 0.9966 0.76597 0.0
H3454 H 0.37368 0.98636 0.76728 0.0
H3455 H 0.38362 0.00921 0.76779 0.0
H3456 H 0.41211 0.96822 0.76292 0.0
H3457 H 0.44105 0.02306 0.75805 0.0
H3458 H 0.38224 0.96154 0.72336 0.0
H3459 H 0.37255 0.96303 0.74741 0.0
H3460 H 0.38486 0.95214 0.74767 0.0
H3461 H 0.41769 0.02905 0.71939 0.0
H3462 H 0.43 0.03938 0.74305 0.0
H3463 H 0.40711 0.02974 0.74309 0.0
C3464 C 0.99283 0.37303 0.69542 0.0
C3465 C 0.99225 0.35988 0.70818 0.0
C3466 C 0.99572 0.38851 0.70457 0.0
C3467 C 0.99771 0.3907 0.72703 0.0
C3468 C 0.99738 0.37754 0.73994 0.0
C3469 C 0.99481 0.36235 0.73032 0.0
C3470 C 0.99635 0.4024 0.69026 0.0
C3471 C 0.99917 0.37928 0.76397 0.0
C3472 C 0.01704 0.43485 0.75234 0.0
C3473 C 0.00244 0.43554 0.75848 0.0
C3474 C 0.01571 0.42054 0.74157 0.0
C3475 C 0.9994 0.40642 0.73719 0.0
C3476 C 0.98462 0.40706 0.74316 0.0
C3477 C 0.98632 0.42167 0.7535 0.0
C3478 C 0.03175 0.42042 0.73516 0.0
C3479 C 0.967 0.39218 0.73897 0.0
H3480 H 0.99095 0.3712 0.67828 0.0
H3481 H 0.99429 0.35218 0.74027 0.0
H3482 H 0.98552 0.40454 0.69386 0.0
H3483 H 0.00825 0.41464 0.69334 0.0
H3484 H 0.99575 0.39916 0.67303 0.0
H3485 H 0.99904 0.36803 0.77166 0.0
H3486 H 0.01124 0.39093 0.76841 0.0
H3487 H 0.98858 0.38074 0.77058 0.0
H3488 H 0.02956 0.44535 0.75633 0.0
H3489 H 0.97495 0.42218 0.7577 0.0
H3490 H 0.03125 0.41746 0.71787 0.0
H3491 H 0.03278 0.41023 0.74405 0.0
H3492 H 0.0434 0.43285 0.73842 0.0
H3493 H 0.96509 0.38931 0.7216 0.0
H3494 H 0.9568 0.39471 0.74462 0.0
H3495 H 0.96559 0.38056 0.74715 0.0
C3496 C 0.63045 0.623 0.69219 0.0
C3497 C 0.64244 0.63764 0.70325 0.0
C3498 C 0.61511 0.61108 0.70184 0.0
C3499 C 0.61173 0.6138 0.72312 0.0
C3500 C 0.6237 0.62867 0.73426 0.0
C3501 C 0.63886 0.64044 0.72417 0.0
C3502 C 0.6026 0.59546 0.68937 0.0
C3503 C 0.62064 0.632 0.757 0.0
C3504 C 0.56631 0.59024 0.74396 0.0
C3505 C 0.56621 0.57669 0.75536 0.0
C3506 C 0.58096 0.6023 0.73318 0.0
C3507 C 0.59592 0.60088 0.73398 0.0
C3508 C 0.59589 0.58723 0.74547 0.0
C3509 C 0.58103 0.57528 0.75595 0.0
C3510 C 0.58044 0.61658 0.72094 0.0
C3511 C 0.61162 0.58534 0.74691 0.0
H3512 H 0.6331 0.62077 0.676 0.0
H3513 H 0.64806 0.6517 0.73285 0.0
H3514 H 0.60099 0.58373 0.69743 0.0
H3515 H 0.58992 0.59466 0.68889 0.0
H3516 H 0.60679 0.59556 0.67269 0.0
H3517 H 0.63104 0.64434 0.76329 0.0
H3518 H 0.60844 0.63217 0.75798 0.0
H3519 H 0.61953 0.62152 0.76752 0.0
H3520 H 0.55484 0.59129 0.74327 0.0
H3521 H 0.58109 0.56496 0.76496 0.0
H3522 H 0.58373 0.61626 0.70396 0.0
H3523 H 0.59008 0.62914 0.72758 0.0
H3524 H 0.56773 0.61571 0.72155 0.0
H3525 H 0.61578 0.58425 0.73064 0.0
H3526 H 0.60946 0.57395 0.75635 0.0
H3527 H 0.62222 0.59691 0.75445 0.0
C3528 C 0.68294 0.72092 0.63681 0.0
C3529 C 0.6739 0.70481 0.64659 0.0
C3530 C 0.67449 0.72886 0.62734 0.0
C3531 C 0.65648 0.72057 0.62767 0.0
C3532 C 0.64718 0.70414 0.63707 0.0
C3533 C 0.65601 0.6964 0.64637 0.0
C3534 C 0.68491 0.74631 0.61731 0.0
C3535 C 0.62797 0.69495 0.63776 0.0
C3536 C 0.64055 0.7524 0.62243 0.0
C3537 C 0.6374 0.75193 0.60037 0.0
C3538 C 0.6456 0.74135 0.63183 0.0
C3539 C 0.64768 0.72963 0.61882 0.0
C3540 C 0.64351 0.72839 0.59675 0.0
C3541 C 0.63839 0.73955 0.5878 0.0
C3542 C 0.64976 0.74298 0.65545 0.0
C3543 C 0.64559 0.71613 0.58231 0.0
H3544 H 0.69675 0.72748 0.63666 0.0
H3545 H 0.64892 0.68397 0.6539 0.0
H3546 H 0.68085 0.74608 0.60045 0.0
H3547 H 0.68275 0.75584 0.62594 0.0
H3548 H 0.69879 0.75071 0.61764 0.0
H3549 H 0.62259 0.68183 0.64446 0.0
H3550 H 0.62372 0.70233 0.64772 0.0
H3551 H 0.62262 0.69408 0.62146 0.0
H3552 H 0.63955 0.76178 0.63227 0.0
H3553 H 0.63608 0.7392 0.57071 0.0
H3554 H 0.66375 0.74881 0.65776 0.0
H3555 H 0.64374 0.73018 0.66311 0.0
H3556 H 0.64546 0.75108 0.66376 0.0
H3557 H 0.65936 0.72071 0.58001 0.0
H3558 H 0.63957 0.71498 0.56636 0.0
H3559 H 0.63996 0.70323 0.58967 0.0
C3560 C 0.29805 0.97259 0.62645 0.0
C3561 C 0.29772 0.97545 0.64842 0.0
C3562 C 0.28487 0.95801 0.61654 0.0
C3563 C 0.27122 0.94584 0.629 0.0
C3564 C 0.27113 0.94836 0.65133 0.0
C3565 C 0.28431 0.96326 0.66075 0.0
C3566 C 0.28529 0.95594 0.59263 0.0
C3567 C 0.25698 0.93547 0.6652 0.0
C3568 C 0.2291 0.91816 0.60035 0.0
C3569 C 0.22985 0.90317 0.59625 0.0
C3570 C 0.24242 0.93207 0.61111 0.0
C3571 C 0.2567 0.93087 0.61843 0.0
C3572 C 0.25736 0.91564 0.61495 0.0
C3573 C 0.24403 0.90206 0.60371 0.0
C3574 C 0.24134 0.94818 0.6143 0.0
C3575 C 0.27227 0.9138 0.62279 0.0
H3576 H 0.30834 0.98203 0.61681 0.0
H3577 H 0.28407 0.96539 0.67777 0.0
H3578 H 0.28455 0.94352 0.58886 0.0
H3579 H 0.27405 0.95582 0.58505 0.0
H3580 H 0.29701 0.96637 0.58533 0.0
H3581 H 0.2594 0.93874 0.68247 0.0
H3582 H 0.24476 0.9348 0.66058 0.0
H3583 H 0.25542 0.92253 0.66274 0.0
H3584 H 0.21808 0.91907 0.59512 0.0
H3585 H 0.24491 0.89068 0.60041 0.0
H3586 H 0.25228 0.95914 0.60645 0.0
H3587 H 0.24213 0.95124 0.63159 0.0
H3588 H 0.22934 0.94705 0.60766 0.0
H3589 H 0.28401 0.92306 0.61437 0.0
H3590 H 0.27028 0.9007 0.62015 0.0
H3591 H 0.27449 0.9168 0.64012 0.0
C3592 C 0.02967 0.33203 0.63772 0.0
C3593 C 0.02815 0.32568 0.65853 0.0
C3594 C 0.04455 0.3369 0.62596 0.0
C3595 C 0.05828 0.3358 0.63557 0.0
C3596 C 0.05726 0.33078 0.65724 0.0
C3597 C 0.04204 0.32543 0.66834 0.0
C3598 C 0.04494 0.34174 0.60274 0.0
C3599 C 0.07182 0.32996 0.66829 0.0
C3600 C 0.08547 0.3241 0.60141 0.0
C3601 C 0.10004 0.34006 0.59794 0.0
C3602 C 0.07167 0.3227 0.61306 0.0
C3603 C 0.07262 0.33752 0.62228 0.0
C3604 C 0.0873 0.35364 0.61921 0.0
C3605 C 0.10073 0.35476 0.60681 0.0
C3606 C 0.0561 0.30527 0.61566 0.0
C3607 C 0.08892 0.36964 0.62927 0.0
H3608 H 0.01877 0.33198 0.63012 0.0
H3609 H 0.0408 0.32052 0.68448 0.0
H3610 H 0.05714 0.35337 0.59893 0.0
H3611 H 0.04398 0.33121 0.59253 0.0
H3612 H 0.03426 0.34408 0.59848 0.0
H3613 H 0.0701 0.32855 0.68589 0.0
H3614 H 0.07269 0.31884 0.66214 0.0
H3615 H 0.0841 0.34164 0.66488 0.0
H3616 H 0.08487 0.31256 0.59525 0.0
H3617 H 0.11174 0.3672 0.60404 0.0
H3618 H 0.04447 0.30571 0.61063 0.0
H3619 H 0.05458 0.30143 0.63273 0.0
H3620 H 0.05687 0.29525 0.60614 0.0
H3621 H 0.0784 0.37177 0.62364 0.0
H3622 H 0.10125 0.38119 0.62553 0.0
H3623 H 0.0878 0.3681 0.6469 0.0
C3624 C 0.30345 0.33255 0.6257 0.0
C3625 C 0.30427 0.3303 0.64779 0.0
C3626 C 0.29036 0.33481 0.6167 0.0
C3627 C 0.27803 0.3352 0.63018 0.0
C3628 C 0.27919 0.3336 0.65259 0.0
C3629 C 0.2922 0.33096 0.66112 0.0
C3630 C 0.28939 0.33615 0.5927 0.0
C3631 C 0.26652 0.33435 0.66752 0.0
C3632 C 0.25133 0.3532 0.60573 0.0
C3633 C 0.23624 0.3382 0.60017 0.0
C3634 C 0.26485 0.35245 0.61612 0.0
C3635 C 0.26341 0.33633 0.62066 0.0
C3636 C 0.24816 0.32117 0.6154 0.0
C3637 C 0.23472 0.32229 0.6055 0.0
C3638 C 0.28079 0.3689 0.62185 0.0
C3639 C 0.24618 0.30371 0.61978 0.0
H3640 H 0.31271 0.33197 0.61533 0.0
H3641 H 0.29287 0.32936 0.67823 0.0
H3642 H 0.27735 0.32525 0.58656 0.0
H3643 H 0.28924 0.34807 0.58834 0.0
H3644 H 0.30024 0.3361 0.58451 0.0
H3645 H 0.27 0.33429 0.6846 0.0
H3646 H 0.26563 0.34607 0.66439 0.0
H3647 H 0.25368 0.32322 0.66461 0.0
H3648 H 0.25279 0.36557 0.60151 0.0
H3649 H 0.223 0.31062 0.60181 0.0
H3650 H 0.29164 0.37009 0.61234 0.0
H3651 H 0.2841 0.3688 0.63897 0.0
H3652 H 0.27938 0.38035 0.61881 0.0
H3653 H 0.25613 0.30232 0.61115 0.0
H3654 H 0.23348 0.29316 0.61475 0.0
H3655 H 0.24797 0.30228 0.63709 0.0
C3656 C 0.68342 0.96664 0.63897 0.0
C3657 C 0.67419 0.97377 0.6482 0.0
C3658 C 0.67518 0.95074 0.62867 0.0
C3659 C 0.65717 0.94156 0.62756 0.0
C3660 C 0.6477 0.94875 0.63642 0.0
C3661 C 0.65633 0.96483 0.6466 0.0
C3662 C 0.68581 0.94363 0.61929 0.0
C3663 C 0.62847 0.9393 0.63556 0.0
C3664 C 0.64072 0.90635 0.5858 0.0
C3665 C 0.63887 0.89241 0.59804 0.0
C3666 C 0.64555 0.92224 0.59541 0.0
C3667 C 0.64853 0.92418 0.61777 0.0
C3668 C 0.64555 0.90982 0.63035 0.0
C3669 C 0.64081 0.89413 0.62033 0.0
C3670 C 0.64864 0.93722 0.58141 0.0
C3671 C 0.64844 0.9113 0.65426 0.0
H3672 H 0.69722 0.97348 0.63987 0.0
H3673 H 0.64908 0.97022 0.65368 0.0
H3674 H 0.68293 0.93153 0.6275 0.0
H3675 H 0.6826 0.9406 0.6021 0.0
H3676 H 0.6997 0.95268 0.62081 0.0
H3677 H 0.62301 0.94703 0.64208 0.0
H3678 H 0.62393 0.93566 0.61883 0.0
H3679 H 0.6235 0.92727 0.64491 0.0
H3680 H 0.63932 0.90511 0.56856 0.0
H3681 H 0.6391 0.8833 0.62988 0.0
H3682 H 0.66255 0.94613 0.58026 0.0
H3683 H 0.64285 0.94445 0.58849 0.0
H3684 H 0.64341 0.93312 0.56499 0.0
H3685 H 0.6623 0.91894 0.65775 0.0
H3686 H 0.64346 0.89858 0.66202 0.0
H3687 H 0.64225 0.91807 0.66157 0.0
C3688 C 0.02786 0.69618 0.62592 0.0
C3689 C 0.02378 0.69893 0.64658 0.0
C3690 C 0.04269 0.70851 0.6158 0.0
C3691 C 0.05374 0.72392 0.62667 0.0
C3692 C 0.05008 0.72643 0.64788 0.0
C3693 C 0.03511 0.71391 0.65758 0.0
C3694 C 0.04615 0.70537 0.59315 0.0
C3695 C 0.06164 0.74264 0.66003 0.0
C3696 C 0.09813 0.75224 0.6045 0.0
C3697 C 0.09588 0.76455 0.59323 0.0
C3698 C 0.08456 0.73895 0.61558 0.0
C3699 C 0.06837 0.73793 0.61523 0.0
C3700 C 0.06603 0.75026 0.60377 0.0
C3701 C 0.07981 0.76342 0.59294 0.0
C3702 C 0.08754 0.72608 0.62774 0.0
C3703 C 0.04892 0.74952 0.60285 0.0
H3704 H 0.01918 0.68461 0.61733 0.0
H3705 H 0.03207 0.71608 0.67359 0.0
H3706 H 0.04524 0.71469 0.58225 0.0
H3707 H 0.05926 0.70736 0.5919 0.0
H3708 H 0.037 0.69223 0.58754 0.0
H3709 H 0.05779 0.74199 0.67698 0.0
H3710 H 0.075 0.74522 0.65963 0.0
H3711 H 0.06137 0.75366 0.65229 0.0
H3712 H 0.11058 0.75316 0.60491 0.0
H3713 H 0.07796 0.77276 0.58399 0.0
H3714 H 0.07886 0.71299 0.62162 0.0
H3715 H 0.08458 0.72623 0.64489 0.0
H3716 H 0.10088 0.72868 0.62643 0.0
H3717 H 0.03921 0.73716 0.59581 0.0
H3718 H 0.04924 0.7601 0.59322 0.0
H3719 H 0.04472 0.75021 0.61926 0.0
C3720 C 0.00497 0.63717 0.70417 0.0
C3721 C 0.98727 0.63068 0.70403 0.0
C3722 C 0.01222 0.62857 0.71519 0.0
C3723 C 0.0015 0.6133 0.7264 0.0
C3724 C 0.98373 0.60711 0.72694 0.0
C3725 C 0.97686 0.61582 0.71571 0.0
C3726 C 0.03122 0.63549 0.71426 0.0
C3727 C 0.97186 0.59096 0.73891 0.0
C3728 C 0.01066 0.57709 0.73617 0.0
C3729 C 0.01376 0.57845 0.75827 0.0
C3730 C 0.00805 0.58926 0.72518 0.0
C3731 C 0.00842 0.60301 0.73664 0.0
C3732 C 0.01276 0.60511 0.75867 0.0
C3733 C 0.01543 0.59279 0.76925 0.0
C3734 C 0.00364 0.58666 0.70163 0.0
C3735 C 0.01326 0.61958 0.77145 0.0
H3736 H 0.01308 0.64865 0.69517 0.0
H3737 H 0.9632 0.61086 0.71596 0.0
H3738 H 0.03655 0.63643 0.73058 0.0
H3739 H 0.03389 0.62657 0.70502 0.0
H3740 H 0.03794 0.64831 0.7066 0.0
H3741 H 0.95848 0.5884 0.73866 0.0
H3742 H 0.97214 0.57984 0.73168 0.0
H3743 H 0.9761 0.5919 0.75581 0.0
H3744 H 0.00967 0.56615 0.72761 0.0
H3745 H 0.0178 0.59384 0.78636 0.0
H3746 H 0.01098 0.59884 0.69277 0.0
H3747 H 0.98991 0.58244 0.69935 0.0
H3748 H 0.00622 0.57684 0.69451 0.0
H3749 H 0.02009 0.63185 0.76262 0.0
H3750 H 0.01952 0.62106 0.7873 0.0
H3751 H 1.00005 0.61701 0.77406 0.0
C3752 C 0.36605 0.37114 0.71396 0.0
C3753 C 0.37448 0.36766 0.69767 0.0
C3754 C 0.3745 0.38639 0.72589 0.0
C3755 C 0.39163 0.39846 0.72108 0.0
C3756 C 0.39975 0.39546 0.7037 0.0
C3757 C 0.39114 0.38005 0.69236 0.0
C3758 C 0.36548 0.38907 0.74441 0.0
C3759 C 0.41789 0.40813 0.69776 0.0
C3760 C 0.41483 0.44391 0.74275 0.0
C3761 C 0.42543 0.4426 0.75829 0.0
C3762 C 0.40308 0.42945 0.73109 0.0
C3763 C 0.40182 0.41336 0.73537 0.0
C3764 C 0.41184 0.41187 0.75195 0.0
C3765 C 0.42363 0.42654 0.76308 0.0
C3766 C 0.39275 0.43159 0.71341 0.0
C3767 C 0.4107 0.3949 0.75726 0.0
H3768 H 0.35319 0.36155 0.71815 0.0
H3769 H 0.39765 0.3775 0.67963 0.0
H3770 H 0.37109 0.38767 0.75965 0.0
H3771 H 0.36724 0.4022 0.74412 0.0
H3772 H 0.35162 0.3797 0.74432 0.0
H3773 H 0.42169 0.40473 0.68248 0.0
H3774 H 0.41955 0.42118 0.69625 0.0
H3775 H 0.4267 0.40856 0.71058 0.0
H3776 H 0.41627 0.45637 0.73906 0.0
H3777 H 0.4317 0.42553 0.77532 0.0
H3778 H 0.37916 0.42158 0.71448 0.0
H3779 H 0.39746 0.43005 0.6977 0.0
H3780 H 0.39362 0.44437 0.71385 0.0
H3781 H 0.39721 0.38488 0.75939 0.0
H3782 H 0.41797 0.39558 0.77203 0.0
H3783 H 0.41585 0.39083 0.74384 0.0
C3784 C 0.63052 0.01267 0.69457 0.0
C3785 C 0.64216 0.00918 0.70544 0.0
C3786 C 0.61543 0.00994 0.70439 0.0
C3787 C 0.61197 0.00373 0.72566 0.0
C3788 C 0.6235 0.99985 0.73654 0.0
C3789 C 0.63842 0.00256 0.72627 0.0
C3790 C 0.60338 0.01409 0.69219 0.0
C3791 C 0.62035 0.9933 0.75926 0.0
C3792 C 0.58357 0.01455 0.75912 0.0
C3793 C 0.56807 0.9991 0.75875 0.0
C3794 C 0.59791 0.0162 0.74842 0.0
C3795 C 0.59673 0.00209 0.73692 0.0
C3796 C 0.58111 0.98646 0.73643 0.0
C3797 C 0.56698 0.98512 0.74745 0.0
C3798 C 0.61437 0.03303 0.74955 0.0
C3799 C 0.57931 0.97117 0.72422 0.0
H3800 H 0.6333 0.01773 0.67845 0.0
H3801 H 0.64734 0.99984 0.73481 0.0
H3802 H 0.59032 0.00289 0.69218 0.0
H3803 H 0.60274 0.02478 0.70017 0.0
H3804 H 0.60738 0.01781 0.67537 0.0
H3805 H 0.63019 0.99022 0.76516 0.0
H3806 H 0.62026 0.00309 0.76997 0.0
H3807 H 0.60767 0.98164 0.76043 0.0
H3808 H 0.58455 0.02532 0.76808 0.0
H3809 H 0.55499 0.9732 0.74696 0.0
H3810 H 0.6185 0.03818 0.73321 0.0
H3811 H 0.62458 0.03105 0.75674 0.0
H3812 H 0.61318 0.04276 0.75917 0.0
H3813 H 0.58239 0.97457 0.70713 0.0
H3814 H 0.56626 0.96 0.72523 0.0
H3815 H 0.5885 0.96736 0.73054 0.0
loop_
_geom_bond_atom_site_label_1
_geom_bond_atom_site_label_2
_geom_bond_distance
_geom_bond_site_symmetry_2
_ccdc_geom_bond_type
Mn0 O5 2.095 1_655 S
Mn0 O15 2.162 . S
Mn0 O16 2.297 1_554 S
Mn0 O24 2.385 1_554 S
Mn0 O25 2.209 1_654 S
Mn0 O26 2.094 . S
Mn1 O6 2.121 . S
Mn1 N8 2.257 1_554 S
Mn1 N17 2.282 . S
Mn1 O25 2.215 1_554 S
Mn1 O27 2.117 . S
C2 O24 1.234 1_455 S
C2 O25 1.283 . S
C3 O15 1.281 1_556 S
C3 O16 1.236 . S
C4 O26 1.251 . S
C4 O27 1.238 1_655 S
O5 Mn0 2.095 1_455 S
O5 C14 1.250 . S
O6 Mn1 2.121 . S
O6 C14 1.258 . S
C7 N8 1.326 . S
C7 C11 1.460 . S
C7 H13 0.929 . S
N8 Mn1 2.257 1_556 S
N8 C7 1.326 . S
N8 C12 1.362 . S
C9 C10 1.258 . S
C9 C12 1.431 . S
C9 C29 1.449 . S
C10 C9 1.258 . S
C10 C11 1.477 . S
C10 H30 0.931 . S
C11 C7 1.460 . S
C11 C10 1.477 . S
C11 H31 0.930 . S
C12 N8 1.362 . S
C12 C9 1.431 . S
C12 C22 1.476 . S
H13 C7 0.929 . S
C14 O5 1.250 . S
C14 O6 1.258 . S
O15 Mn0 2.162 . S
O15 C3 1.281 1_554 S
O16 Mn0 2.297 1_556 S
O16 C3 1.236 . S
N17 Mn1 2.282 . S
N17 C18 1.328 . S
N17 C22 1.318 1_554 S
C18 N17 1.328 . S
C18 C19 1.457 1_554 S
C18 H23 0.929 . S
C19 C18 1.457 1_556 S
C19 C20 1.291 . S
C19 H32 0.931 1_556 S
C20 C19 1.291 . S
C20 C21 1.373 . S
C20 H33 0.929 . S
C21 C20 1.373 . S
C21 C22 1.396 . S
C21 C28 1.403 . S
C22 C12 1.476 . S
C22 N17 1.318 1_556 S
C22 C21 1.396 . S
H23 C18 0.929 . S
O24 Mn0 2.385 1_556 S
O24 C2 1.234 1_655 S
O25 Mn0 2.209 1_456 S
O25 Mn1 2.215 1_556 S
O25 C2 1.283 . S
O26 Mn0 2.094 . S
O26 C4 1.251 . S
O27 Mn1 2.117 . S
O27 C4 1.238 1_455 S
C28 C21 1.403 . S
C28 C29 1.399 . S
C28 H34 0.929 . S
C29 C9 1.449 . S
C29 C28 1.399 . S
C29 H35 0.930 . S
H30 C10 0.931 . S
H31 C11 0.930 . S
H32 C19 0.931 1_554 S
H33 C20 0.929 . S
H34 C28 0.929 . S
H35 C29 0.930 . S
Mn36 O41 2.095 1_554 S
Mn36 O51 2.162 . S
Mn36 O52 2.297 . S
Mn36 O60 2.385 . S
Mn36 O61 2.209 . S
Mn36 O62 2.094 1_554 S
Mn37 O42 2.121 . S
Mn37 N44 2.257 1_556 S
Mn37 N53 2.282 1_556 S
Mn37 O61 2.215 1_556 S
Mn37 O63 2.117 . S
C38 O60 1.234 . S
C38 O61 1.283 . S
C39 O51 1.281 . S
C39 O52 1.236 . S
C40 O62 1.240 . S
C40 O63 1.264 . S
O41 Mn36 2.095 1_556 S
O41 C50 1.250 . S
O42 Mn37 2.121 . S
O42 C50 1.258 . S
C43 N44 1.326 . S
C43 C47 1.460 . S
C43 H49 0.929 . S
N44 Mn37 2.257 1_554 S
N44 C43 1.326 . S
N44 C48 1.362 . S
C45 C46 1.258 . S
C45 C48 1.431 . S
C45 C65 1.449 . S
C46 C45 1.258 . S
C46 C47 1.477 . S
C46 H66 0.931 . S
C47 C43 1.460 . S
C47 C46 1.477 . S
C47 H67 0.930 . S
C48 N44 1.362 . S
C48 C45 1.431 . S
C48 C58 1.476 . S
H49 C43 0.929 . S
C50 O41 1.250 . S
C50 O42 1.258 . S
O51 Mn36 2.162 . S
O51 C39 1.281 . S
O52 Mn36 2.297 . S
O52 C39 1.236 . S
N53 Mn37 2.282 1_554 S
N53 C54 1.328 . S
N53 C58 1.318 . S
C54 N53 1.328 . S
C54 C55 1.457 . S
C54 H59 0.919 1_554 S
C55 C54 1.457 . S
C55 C56 1.291 . S
C55 H68 0.931 . S
C56 C55 1.291 . S
C56 C57 1.373 . S
C56 H69 0.929 . S
C57 C56 1.373 . S
C57 C58 1.396 . S
C57 C64 1.403 . S
C58 C48 1.476 . S
C58 N53 1.318 . S
C58 C57 1.396 . S
H59 C54 0.919 1_556 S
O60 Mn36 2.385 . S
O60 C38 1.234 . S
O61 Mn36 2.209 . S
O61 Mn37 2.215 1_554 S
O61 C38 1.283 . S
O62 Mn36 2.094 1_556 S
O62 C40 1.240 . S
O63 Mn37 2.117 . S
O63 C40 1.264 . S
C64 C57 1.403 . S
C64 C65 1.399 . S
C64 H70 0.929 . S
C65 C45 1.449 . S
C65 C64 1.399 . S
C65 H71 0.930 . S
H66 C46 0.931 . S
H67 C47 0.930 . S
H68 C55 0.931 . S
H69 C56 0.929 . S
H70 C64 0.929 . S
H71 C65 0.930 . S
Mn72 O77 2.095 1_564 S
Mn72 O87 2.162 . S
Mn72 O88 2.297 . S
Mn72 O96 2.385 . S
Mn72 O97 2.209 1_565 S
Mn72 O98 2.094 1_554 S
Mn73 O78 2.121 1_554 S
Mn73 N80 2.257 . S
Mn73 N89 2.282 . S
Mn73 O97 2.215 . S
Mn73 O99 2.117 1_554 S
C74 O96 1.234 1_545 S
C74 O97 1.283 . S
C75 O87 1.281 . S
C75 O88 1.236 . S
C76 O98 1.240 . S
C76 O99 1.264 1_565 S
O77 Mn72 2.095 1_546 S
O77 C86 1.250 . S
O78 Mn73 2.121 1_556 S
O78 C86 1.258 . S
C79 N80 1.326 . S
C79 C83 1.460 . S
C79 H85 0.929 . S
N80 Mn73 2.257 . S
N80 C79 1.326 . S
N80 C84 1.362 . S
C81 C82 1.258 . S
C81 C84 1.431 . S
C81 C101 1.449 . S
C82 C81 1.258 . S
C82 C83 1.477 . S
C82 H102 0.931 . S
C83 C79 1.460 . S
C83 C82 1.477 . S
C83 H103 0.930 . S
C84 N80 1.362 . S
C84 C81 1.431 . S
C84 C94 1.476 . S
H85 C79 0.929 . S
C86 O77 1.250 . S
C86 O78 1.258 . S
O87 Mn72 2.162 . S
O87 C75 1.281 . S
O88 Mn72 2.297 . S
O88 C75 1.236 . S
N89 Mn73 2.282 . S
N89 C90 1.328 . S
N89 C94 1.318 . S
C90 N89 1.328 . S
C90 C91 1.457 . S
C90 H95 0.929 . S
C91 C90 1.457 . S
C91 C92 1.291 . S
C91 H104 0.931 . S
C92 C91 1.291 . S
C92 C93 1.373 . S
C92 H105 0.929 . S
C93 C92 1.373 . S
C93 C94 1.396 . S
C93 C100 1.403 . S
C94 C84 1.476 . S
C94 N89 1.318 . S
C94 C93 1.396 . S
H95 C90 0.929 . S
O96 Mn72 2.385 . S
O96 C74 1.234 1_565 S
O97 Mn72 2.209 1_545 S
O97 Mn73 2.215 . S
O97 C74 1.283 . S
O98 Mn72 2.094 1_556 S
O98 C76 1.240 . S
O99 Mn73 2.117 1_556 S
O99 C76 1.264 1_545 S
C100 C93 1.403 . S
C100 C101 1.399 . S
C100 H106 0.929 . S
C101 C81 1.449 . S
C101 C100 1.399 . S
C101 H107 0.930 . S
H102 C82 0.931 . S
H103 C83 0.930 . S
H104 C91 0.931 . S
H105 C92 0.929 . S
H106 C100 0.929 . S
H107 C101 0.930 . S
Mn108 O113 2.095 1_655 S
Mn108 O123 2.162 . S
Mn108 O124 2.297 1_554 S
Mn108 O132 2.385 1_554 S
Mn108 O133 2.209 1_654 S
Mn108 O134 2.094 . S
Mn109 O114 2.121 . S
Mn109 N116 2.257 1_554 S
Mn109 N125 2.282 . S
Mn109 O133 2.215 1_554 S
Mn109 O135 2.117 . S
C110 O132 1.234 1_455 S
C110 O133 1.283 . S
C111 O123 1.281 1_556 S
C111 O124 1.236 . S
C112 O134 1.240 . S
C112 O135 1.264 1_655 S
O113 Mn108 2.095 1_455 S
O113 C122 1.250 . S
O114 Mn109 2.121 . S
O114 C122 1.258 . S
C115 N116 1.326 . S
C115 C119 1.460 . S
C115 H121 0.929 . S
N116 Mn109 2.257 1_556 S
N116 C115 1.326 . S
N116 C120 1.362 . S
C117 C118 1.258 . S
C117 C120 1.431 . S
C117 C137 1.449 . S
C118 C117 1.258 . S
C118 C119 1.477 . S
C118 H138 0.931 . S
C119 C115 1.460 . S
C119 C118 1.477 . S
C119 H139 0.930 . S
C120 N116 1.362 . S
C120 C117 1.431 . S
C120 C130 1.476 . S
H121 C115 0.929 . S
C122 O113 1.250 . S
C122 O114 1.258 . S
O123 Mn108 2.162 . S
O123 C111 1.281 1_554 S
O124 Mn108 2.297 1_556 S
O124 C111 1.236 . S
N125 Mn109 2.282 . S
N125 C126 1.328 . S
N125 C130 1.318 1_554 S
C126 N125 1.328 . S
C126 C127 1.457 1_554 S
C126 H131 0.929 . S
C127 C126 1.457 1_556 S
C127 C128 1.291 . S
C127 H140 0.929 1_556 S
C128 C127 1.291 . S
C128 C129 1.373 . S
C128 H141 0.929 . S
C129 C128 1.373 . S
C129 C130 1.396 . S
C129 C136 1.403 . S
C130 C120 1.476 . S
C130 N125 1.318 1_556 S
C130 C129 1.396 . S
H131 C126 0.929 . S
O132 Mn108 2.385 1_556 S
O132 C110 1.234 1_655 S
O133 Mn108 2.209 1_456 S
O133 Mn109 2.215 1_556 S
O133 C110 1.283 . S
O134 Mn108 2.094 . S
O134 C112 1.240 . S
O135 Mn109 2.117 . S
O135 C112 1.264 1_455 S
C136 C129 1.403 . S
C136 C137 1.399 . S
C136 H142 0.929 . S
C137 C117 1.449 . S
C137 C136 1.399 . S
C137 H143 0.930 . S
H138 C118 0.931 . S
H139 C119 0.930 . S
H140 C127 0.929 1_554 S
H141 C128 0.929 . S
H142 C136 0.929 . S
H143 C137 0.930 . S
Mn144 O149 2.095 1_554 S
Mn144 O159 2.162 . S
Mn144 O160 2.297 . S
Mn144 O168 2.385 . S
Mn144 O169 2.209 . S
Mn144 O170 2.094 1_554 S
Mn145 O150 2.121 1_554 S
Mn145 N152 2.259 . S
Mn145 N161 2.283 . S
Mn145 O169 2.217 . S
Mn145 O171 2.115 1_554 S
C146 O168 1.234 . S
C146 O169 1.283 . S
C147 O159 1.281 . S
C147 O160 1.236 . S
C148 O170 1.240 . S
C148 O171 1.264 . S
O149 Mn144 2.095 1_556 S
O149 C158 1.250 . S
O150 Mn145 2.121 1_556 S
O150 C158 1.258 . S
C151 N152 1.326 . S
C151 C155 1.460 . S
C151 H157 0.929 . S
N152 Mn145 2.259 . S
N152 C151 1.326 . S
N152 C156 1.362 . S
C153 C154 1.258 . S
C153 C156 1.431 . S
C153 C173 1.449 . S
C154 C153 1.258 . S
C154 C155 1.477 . S
C154 H174 0.931 . S
C155 C151 1.460 . S
C155 C154 1.477 . S
C155 H175 0.930 . S
C156 N152 1.362 . S
C156 C153 1.431 . S
C156 C166 1.476 . S
H157 C151 0.929 . S
C158 O149 1.250 . S
C158 O150 1.258 . S
O159 Mn144 2.162 . S
O159 C147 1.281 . S
O160 Mn144 2.297 . S
O160 C147 1.236 . S
N161 Mn145 2.283 . S
N161 C162 1.328 . S
N161 C166 1.318 . S
C162 N161 1.328 . S
C162 C163 1.457 . S
C162 H167 0.962 . S
C163 C162 1.457 . S
C163 C164 1.291 . S
C163 H176 0.931 . S
C164 C163 1.291 . S
C164 C165 1.373 . S
C164 H177 0.929 . S
C165 C164 1.373 . S
C165 C166 1.396 . S
C165 C172 1.403 . S
C166 C156 1.476 . S
C166 N161 1.318 . S
C166 C165 1.396 . S
H167 C162 0.962 . S
O168 Mn144 2.385 . S
O168 C146 1.234 . S
O169 Mn144 2.209 . S
O169 Mn145 2.217 . S
O169 C146 1.283 . S
O170 Mn144 2.094 1_556 S
O170 C148 1.240 . S
O171 Mn145 2.115 1_556 S
O171 C148 1.264 . S
C172 C165 1.403 . S
C172 C173 1.399 . S
C172 H178 0.929 . S
C173 C153 1.449 . S
C173 C172 1.399 . S
C173 H179 0.930 . S
H174 C154 0.931 . S
H175 C155 0.930 . S
H176 C163 0.931 . S
H177 C164 0.929 . S
H178 C172 0.929 . S
H179 C173 0.930 . S
Mn180 O185 2.095 1_545 S
Mn180 O195 2.162 . S
Mn180 O196 2.297 1_554 S
Mn180 O204 2.385 1_554 S
Mn180 O205 2.209 1_544 S
Mn180 O206 2.094 . S
Mn181 O186 2.121 . S
Mn181 N188 2.257 1_554 S
Mn181 N197 2.282 . S
Mn181 O205 2.215 1_554 S
Mn181 O207 2.117 . S
C182 O204 1.213 1_565 S
C182 O205 1.303 . S
C183 O195 1.281 1_556 S
C183 O196 1.236 . S
C184 O206 1.240 . S
C184 O207 1.264 1_545 S
O185 Mn180 2.095 1_565 S
O185 C194 1.250 . S
O186 Mn181 2.121 . S
O186 C194 1.258 . S
C187 N188 1.326 . S
C187 C191 1.460 . S
C187 H193 0.929 . S
N188 Mn181 2.257 1_556 S
N188 C187 1.326 . S
N188 C192 1.362 . S
C189 C190 1.258 . S
C189 C192 1.431 . S
C189 C209 1.449 . S
C190 C189 1.258 . S
C190 C191 1.477 . S
C190 H210 0.931 . S
C191 C187 1.460 . S
C191 C190 1.477 . S
C191 H211 0.930 . S
C192 N188 1.362 . S
C192 C189 1.431 . S
C192 C202 1.476 . S
H193 C187 0.929 . S
C194 O185 1.250 . S
C194 O186 1.258 . S
O195 Mn180 2.162 . S
O195 C183 1.281 1_554 S
O196 Mn180 2.297 1_556 S
O196 C183 1.236 . S
N197 Mn181 2.282 . S
N197 C198 1.328 . S
N197 C202 1.318 1_554 S
C198 N197 1.328 . S
C198 C199 1.457 1_554 S
C198 H203 0.929 . S
C199 C198 1.457 1_556 S
C199 C200 1.291 . S
C199 H212 0.930 . S
C200 C199 1.291 . S
C200 C201 1.373 . S
C200 H213 0.929 . S
C201 C200 1.373 . S
C201 C202 1.396 . S
C201 C208 1.403 . S
C202 C192 1.476 . S
C202 N197 1.318 1_556 S
C202 C201 1.396 . S
H203 C198 0.929 . S
O204 Mn180 2.385 1_556 S
O204 C182 1.213 1_545 S
O205 Mn180 2.209 1_566 S
O205 Mn181 2.215 1_556 S
O205 C182 1.303 . S
O206 Mn180 2.094 . S
O206 C184 1.240 . S
O207 Mn181 2.117 . S
O207 C184 1.264 1_565 S
C208 C201 1.403 . S
C208 C209 1.399 . S
C208 H214 0.929 . S
C209 C189 1.449 . S
C209 C208 1.399 . S
C209 H215 0.930 . S
H210 C190 0.931 . S
H211 C191 0.930 . S
H212 C199 0.930 . S
H213 C200 0.929 . S
H214 C208 0.929 . S
H215 C209 0.930 . S
Mn216 O221 2.095 . S
Mn216 O231 2.162 . S
Mn216 O232 2.297 . S
Mn216 O240 2.385 . S
Mn216 O241 2.209 . S
Mn216 O242 2.094 . S
Mn217 O222 2.121 . S
Mn217 N224 2.257 . S
Mn217 N233 2.282 . S
Mn217 O241 2.215 . S
Mn217 O243 2.117 . S
C218 O240 1.234 . S
C218 O241 1.283 . S
C219 O231 1.281 . S
C219 O232 1.236 . S
C220 O242 1.240 . S
C220 O243 1.264 . S
O221 Mn216 2.095 . S
O221 C230 1.250 . S
O222 Mn217 2.121 . S
O222 C230 1.258 . S
C223 N224 1.326 . S
C223 C227 1.460 . S
C223 H229 0.929 . S
N224 Mn217 2.257 . S
N224 C223 1.326 . S
N224 C228 1.362 . S
C225 C226 1.258 . S
C225 C228 1.431 . S
C225 C245 1.449 . S
C226 C225 1.258 . S
C226 C227 1.477 . S
C226 H246 0.931 . S
C227 C223 1.460 . S
C227 C226 1.477 . S
C227 H247 0.930 . S
C228 N224 1.362 . S
C228 C225 1.431 . S
C228 C238 1.476 . S
H229 C223 0.929 . S
C230 O221 1.250 . S
C230 O222 1.258 . S
O231 Mn216 2.162 . S
O231 C219 1.281 . S
O232 Mn216 2.297 . S
O232 C219 1.236 . S
N233 Mn217 2.282 . S
N233 C234 1.328 . S
N233 C238 1.318 . S
C234 N233 1.328 . S
C234 C235 1.457 . S
C234 H239 0.929 . S
C235 C234 1.457 . S
C235 C236 1.291 . S
C235 H248 0.931 . S
C236 C235 1.291 . S
C236 C237 1.373 . S
C236 H249 0.929 . S
C237 C236 1.373 . S
C237 C238 1.396 . S
C237 C244 1.403 . S
C238 C228 1.476 . S
C238 N233 1.318 . S
C238 C237 1.396 . S
H239 C234 0.929 . S
O240 Mn216 2.385 . S
O240 C218 1.234 . S
O241 Mn216 2.209 . S
O241 Mn217 2.215 . S
O241 C218 1.283 . S
O242 Mn216 2.094 . S
O242 C220 1.240 . S
O243 Mn217 2.117 . S
O243 C220 1.264 . S
C244 C237 1.403 . S
C244 C245 1.399 . S
C244 H250 0.929 . S
C245 C225 1.449 . S
C245 C244 1.399 . S
C245 H251 0.930 . S
H246 C226 0.931 . S
H247 C227 0.930 . S
H248 C235 0.931 . S
H249 C236 0.929 . S
H250 C244 0.929 . S
H251 C245 0.930 . S
Mn252 O257 2.095 . S
Mn252 O267 2.162 1_565 S
Mn252 O268 2.297 1_565 S
Mn252 O276 2.385 . S
Mn252 O277 2.209 . S
Mn252 O278 2.094 . S
Mn253 O258 2.121 . S
Mn253 N260 2.257 . S
Mn253 N269 2.282 . S
Mn253 O277 2.215 . S
Mn253 O279 2.117 . S
C254 O276 1.234 . S
C254 O277 1.283 . S
C255 O267 1.281 . S
C255 O268 1.236 . S
C256 O278 1.240 . S
C256 O279 1.264 . S
O257 Mn252 2.095 . S
O257 C266 1.250 . S
O258 Mn253 2.121 . S
O258 C266 1.258 . S
C259 N260 1.326 . S
C259 C263 1.460 . S
C259 H265 0.929 . S
N260 Mn253 2.257 . S
N260 C259 1.326 . S
N260 C264 1.362 . S
C261 C262 1.258 . S
C261 C264 1.431 . S
C261 C281 1.449 . S
C262 C261 1.258 . S
C262 C263 1.477 . S
C262 H282 0.931 . S
C263 C259 1.460 . S
C263 C262 1.477 . S
C263 H283 0.930 . S
C264 N260 1.362 . S
C264 C261 1.431 . S
C264 C274 1.476 . S
H265 C259 0.929 . S
C266 O257 1.250 . S
C266 O258 1.258 . S
O267 Mn252 2.162 1_545 S
O267 C255 1.281 . S
O268 Mn252 2.297 1_545 S
O268 C255 1.236 . S
N269 Mn253 2.282 . S
N269 C270 1.328 . S
N269 C274 1.318 . S
C270 N269 1.328 . S
C270 C271 1.457 . S
C270 H275 0.929 . S
C271 C270 1.457 . S
C271 C272 1.291 . S
C271 H284 0.931 . S
C272 C271 1.291 . S
C272 C273 1.373 . S
C272 H285 0.929 . S
C273 C272 1.373 . S
C273 C274 1.396 . S
C273 C280 1.403 . S
C274 C264 1.476 . S
C274 N269 1.318 . S
C274 C273 1.396 . S
H275 C270 0.929 . S
O276 Mn252 2.385 . S
O276 C254 1.234 . S
O277 Mn252 2.209 . S
O277 Mn253 2.215 . S
O277 C254 1.283 . S
O278 Mn252 2.094 . S
O278 C256 1.240 . S
O279 Mn253 2.117 . S
O279 C256 1.264 . S
C280 C273 1.403 . S
C280 C281 1.399 . S
C280 H286 0.929 . S
C281 C261 1.449 . S
C281 C280 1.399 . S
C281 H287 0.930 . S
H282 C262 0.931 . S
H283 C263 0.930 . S
H284 C271 0.931 . S
H285 C272 0.929 . S
H286 C280 0.929 . S
H287 C281 0.930 . S
Mn288 O293 2.095 . S
Mn288 O303 2.162 1_455 S
Mn288 O304 2.297 1_455 S
Mn288 O312 2.385 . S
Mn288 O313 2.209 . S
Mn288 O314 2.094 . S
Mn289 O294 2.121 . S
Mn289 N296 2.257 . S
Mn289 N305 2.282 . S
Mn289 O313 2.215 . S
Mn289 O315 2.117 . S
C290 O312 1.234 . S
C290 O313 1.283 . S
C291 O303 1.281 . S
C291 O304 1.236 . S
C292 O314 1.240 . S
C292 O315 1.264 . S
O293 Mn288 2.095 . S
O293 C302 1.250 . S
O294 Mn289 2.121 . S
O294 C302 1.258 . S
C295 N296 1.326 . S
C295 C299 1.460 . S
C295 H301 0.929 . S
N296 Mn289 2.257 . S
N296 C295 1.326 . S
N296 C300 1.362 . S
C297 C298 1.258 . S
C297 C300 1.431 . S
C297 C317 1.449 . S
C298 C297 1.258 . S
C298 C299 1.477 . S
C298 H318 0.931 . S
C299 C295 1.460 . S
C299 C298 1.477 . S
C299 H319 0.930 . S
C300 N296 1.362 . S
C300 C297 1.431 . S
C300 C310 1.476 . S
H301 C295 0.929 . S
C302 O293 1.250 . S
C302 O294 1.258 . S
O303 Mn288 2.162 1_655 S
O303 C291 1.281 . S
O304 Mn288 2.297 1_655 S
O304 C291 1.236 . S
N305 Mn289 2.282 . S
N305 C306 1.328 . S
N305 C310 1.318 . S
C306 N305 1.328 . S
C306 C307 1.457 . S
C306 H311 0.929 . S
C307 C306 1.457 . S
C307 C308 1.291 . S
C307 H320 0.931 . S
C308 C307 1.291 . S
C308 C309 1.373 . S
C308 H321 0.929 . S
C309 C308 1.373 . S
C309 C310 1.396 . S
C309 C316 1.403 . S
C310 C300 1.476 . S
C310 N305 1.318 . S
C310 C309 1.396 . S
H311 C306 0.929 . S
O312 Mn288 2.385 . S
O312 C290 1.234 . S
O313 Mn288 2.209 . S
O313 Mn289 2.215 . S
O313 C290 1.283 . S
O314 Mn288 2.094 . S
O314 C292 1.240 . S
O315 Mn289 2.117 . S
O315 C292 1.264 . S
C316 C309 1.403 . S
C316 C317 1.399 . S
C316 H322 0.929 . S
C317 C297 1.449 . S
C317 C316 1.399 . S
C317 H323 0.930 . S
H318 C298 0.931 . S
H319 C299 0.930 . S
H320 C307 0.931 . S
H321 C308 0.929 . S
H322 C316 0.929 . S
H323 C317 0.930 . S
Mn324 O329 2.110 . S
Mn324 O339 2.162 . S
Mn324 O340 2.297 . S
Mn324 O348 2.385 . S
Mn324 O349 2.209 . S
Mn324 O350 2.094 . S
Mn325 O330 2.121 1_565 S
Mn325 N332 2.257 . S
Mn325 N341 2.282 . S
Mn325 O349 2.215 . S
Mn325 O351 2.117 . S
C326 O348 1.234 . S
C326 O349 1.283 . S
C327 O339 1.281 . S
C327 O340 1.236 . S
C328 O350 1.240 . S
C328 O351 1.264 . S
O329 Mn324 2.110 . S
O329 C338 1.245 1_565 S
O330 Mn325 2.121 1_545 S
O330 C338 1.258 . S
C331 N332 1.326 1_545 S
C331 C335 1.460 . S
C331 H337 0.929 . S
N332 Mn325 2.257 . S
N332 C331 1.326 1_565 S
N332 C336 1.362 . S
C333 C334 1.303 . S
C333 C336 1.431 . S
C333 C353 1.449 . S
C334 C333 1.303 . S
C334 C335 1.419 1_565 S
C334 H354 0.945 1_565 S
C335 C331 1.460 . S
C335 C334 1.419 1_545 S
C335 H355 0.930 . S
C336 N332 1.362 . S
C336 C333 1.431 . S
C336 C346 1.476 . S
H337 C331 0.929 . S
C338 O329 1.245 1_545 S
C338 O330 1.258 . S
O339 Mn324 2.162 . S
O339 C327 1.281 . S
O340 Mn324 2.297 . S
O340 C327 1.236 . S
N341 Mn325 2.282 . S
N341 C342 1.328 . S
N341 C346 1.318 . S
C342 N341 1.328 . S
C342 C343 1.457 . S
C342 H347 0.929 . S
C343 C342 1.457 . S
C343 C344 1.291 . S
C343 H356 0.931 . S
C344 C343 1.291 . S
C344 C345 1.373 . S
C344 H357 0.929 . S
C345 C344 1.373 . S
C345 C346 1.396 . S
C345 C352 1.403 . S
C346 C336 1.476 . S
C346 N341 1.318 . S
C346 C345 1.396 . S
H347 C342 0.929 . S
O348 Mn324 2.385 . S
O348 C326 1.234 . S
O349 Mn324 2.209 . S
O349 Mn325 2.215 . S
O349 C326 1.283 . S
O350 Mn324 2.094 . S
O350 C328 1.240 . S
O351 Mn325 2.117 . S
O351 C328 1.264 . S
C352 C345 1.403 . S
C352 C353 1.399 . S
C352 H358 0.929 . S
C353 C333 1.449 . S
C353 C352 1.399 . S
C353 H359 0.930 . S
H354 C334 0.945 1_545 S
H355 C335 0.930 . S
H356 C343 0.931 . S
H357 C344 0.929 . S
H358 C352 0.929 . S
H359 C353 0.930 . S
Mn360 O365 2.095 . S
Mn360 O375 2.162 1_455 S
Mn360 O376 2.297 1_455 S
Mn360 O384 2.385 . S
Mn360 O385 2.209 . S
Mn360 O386 2.094 . S
Mn361 O366 2.121 . S
Mn361 N368 2.257 . S
Mn361 N377 2.282 . S
Mn361 O385 2.215 . S
Mn361 O387 2.117 . S
C362 O384 1.234 . S
C362 O385 1.283 . S
C363 O375 1.281 . S
C363 O376 1.236 . S
C364 O386 1.240 . S
C364 O387 1.264 . S
O365 Mn360 2.095 . S
O365 C374 1.250 . S
O366 Mn361 2.121 . S
O366 C374 1.258 . S
C367 N368 1.326 . S
C367 C371 1.460 . S
C367 H373 0.929 . S
N368 Mn361 2.257 . S
N368 C367 1.326 . S
N368 C372 1.362 . S
C369 C370 1.258 . S
C369 C372 1.431 . S
C369 C389 1.449 . S
C370 C369 1.258 . S
C370 C371 1.477 . S
C370 H390 0.931 . S
C371 C367 1.460 . S
C371 C370 1.477 . S
C371 H391 0.930 . S
C372 N368 1.362 . S
C372 C369 1.431 . S
C372 C382 1.476 . S
H373 C367 0.929 . S
C374 O365 1.250 . S
C374 O366 1.258 . S
O375 Mn360 2.162 1_655 S
O375 C363 1.281 . S
O376 Mn360 2.297 1_655 S
O376 C363 1.236 . S
N377 Mn361 2.282 . S
N377 C378 1.328 . S
N377 C382 1.318 . S
C378 N377 1.328 . S
C378 C379 1.457 . S
C378 H383 0.929 . S
C379 C378 1.457 . S
C379 C380 1.291 . S
C379 H392 0.931 . S
C380 C379 1.291 . S
C380 C381 1.373 . S
C380 H393 0.929 . S
C381 C380 1.373 . S
C381 C382 1.396 . S
C381 C388 1.403 . S
C382 C372 1.476 . S
C382 N377 1.318 . S
C382 C381 1.396 . S
H383 C378 0.929 . S
O384 Mn360 2.385 . S
O384 C362 1.234 . S
O385 Mn360 2.209 . S
O385 Mn361 2.215 . S
O385 C362 1.283 . S
O386 Mn360 2.094 . S
O386 C364 1.240 . S
O387 Mn361 2.117 . S
O387 C364 1.264 . S
C388 C381 1.403 . S
C388 C389 1.399 . S
C388 H394 0.929 . S
C389 C369 1.449 . S
C389 C388 1.399 . S
C389 H395 0.930 . S
H390 C370 0.931 . S
H391 C371 0.930 . S
H392 C379 0.931 . S
H393 C380 0.929 . S
H394 C388 0.929 . S
H395 C389 0.930 . S
Mn396 O401 2.095 . S
Mn396 O411 2.162 . S
Mn396 O412 2.297 . S
Mn396 O420 2.385 . S
Mn396 O421 2.209 . S
Mn396 O422 2.094 . S
Mn397 O402 2.121 . S
Mn397 N404 2.257 . S
Mn397 N413 2.282 . S
Mn397 O421 2.215 . S
Mn397 O423 2.117 . S
C398 O420 1.234 . S
C398 O421 1.283 . S
C399 O411 1.281 . S
C399 O412 1.236 . S
C400 O422 1.240 . S
C400 O423 1.264 . S
O401 Mn396 2.095 . S
O401 C410 1.250 . S
O402 Mn397 2.121 . S
O402 C410 1.258 . S
C403 N404 1.326 . S
C403 C407 1.460 . S
C403 H409 0.929 . S
N404 Mn397 2.257 . S
N404 C403 1.326 . S
N404 C408 1.362 . S
C405 C406 1.258 . S
C405 C408 1.431 . S
C405 C425 1.449 . S
C406 C405 1.258 . S
C406 C407 1.477 . S
C406 H426 0.931 . S
C407 C403 1.460 . S
C407 C406 1.477 . S
C407 H427 0.930 . S
C408 N404 1.362 . S
C408 C405 1.431 . S
C408 C418 1.476 . S
H409 C403 0.929 . S
C410 O401 1.250 . S
C410 O402 1.258 . S
O411 Mn396 2.162 . S
O411 C399 1.281 . S
O412 Mn396 2.297 . S
O412 C399 1.236 . S
N413 Mn397 2.282 . S
N413 C414 1.328 . S
N413 C418 1.318 . S
C414 N413 1.328 . S
C414 C415 1.457 . S
C414 H419 0.929 . S
C415 C414 1.457 . S
C415 C416 1.291 . S
C415 H428 0.931 . S
C416 C415 1.291 . S
C416 C417 1.373 . S
C416 H429 0.929 . S
C417 C416 1.373 . S
C417 C418 1.396 . S
C417 C424 1.403 . S
C418 C408 1.476 . S
C418 N413 1.318 . S
C418 C417 1.396 . S
H419 C414 0.929 . S
O420 Mn396 2.385 . S
O420 C398 1.234 . S
O421 Mn396 2.209 . S
O421 Mn397 2.215 . S
O421 C398 1.283 . S
O422 Mn396 2.094 . S
O422 C400 1.240 . S
O423 Mn397 2.117 . S
O423 C400 1.264 . S
C424 C417 1.403 . S
C424 C425 1.399 . S
C424 H430 0.929 . S
C425 C405 1.449 . S
C425 C424 1.399 . S
C425 H431 0.930 . S
H426 C406 0.931 . S
H427 C407 0.930 . S
H428 C415 0.931 . S
H429 C416 0.929 . S
H430 C424 0.929 . S
H431 C425 0.930 . S
Mn432 O437 2.095 . S
Mn432 O447 2.162 1_545 S
Mn432 O448 2.297 1_545 S
Mn432 O456 2.385 . S
Mn432 O457 2.209 . S
Mn432 O458 2.094 . S
Mn433 O438 2.121 . S
Mn433 N440 2.257 . S
Mn433 N449 2.282 . S
Mn433 O457 2.215 . S
Mn433 O459 2.117 . S
C434 O456 1.234 . S
C434 O457 1.283 . S
C435 O447 1.281 . S
C435 O448 1.236 . S
C436 O458 1.240 . S
C436 O459 1.264 . S
O437 Mn432 2.095 . S
O437 C446 1.250 . S
O438 Mn433 2.121 . S
O438 C446 1.258 . S
C439 N440 1.326 . S
C439 C443 1.460 . S
C439 H445 0.929 . S
N440 Mn433 2.257 . S
N440 C439 1.326 . S
N440 C444 1.362 . S
C441 C442 1.258 . S
C441 C444 1.431 . S
C441 C461 1.449 . S
C442 C441 1.258 . S
C442 C443 1.477 . S
C442 H462 0.931 . S
C443 C439 1.460 . S
C443 C442 1.477 . S
C443 H463 0.930 . S
C444 N440 1.362 . S
C444 C441 1.431 . S
C444 C454 1.476 . S
H445 C439 0.929 . S
C446 O437 1.250 . S
C446 O438 1.258 . S
O447 Mn432 2.162 1_565 S
O447 C435 1.281 . S
O448 Mn432 2.297 1_565 S
O448 C435 1.236 . S
N449 Mn433 2.282 . S
N449 C450 1.328 . S
N449 C454 1.318 . S
C450 N449 1.328 . S
C450 C451 1.457 . S
C450 H455 0.929 . S
C451 C450 1.457 . S
C451 C452 1.291 . S
C451 H464 0.931 . S
C452 C451 1.291 . S
C452 C453 1.373 . S
C452 H465 0.929 . S
C453 C452 1.373 . S
C453 C454 1.396 . S
C453 C460 1.403 . S
C454 C444 1.476 . S
C454 N449 1.318 . S
C454 C453 1.396 . S
H455 C450 0.929 . S
O456 Mn432 2.385 . S
O456 C434 1.234 . S
O457 Mn432 2.209 . S
O457 Mn433 2.215 . S
O457 C434 1.283 . S
O458 Mn432 2.094 . S
O458 C436 1.240 . S
O459 Mn433 2.117 . S
O459 C436 1.264 . S
C460 C453 1.403 . S
C460 C461 1.399 . S
C460 H466 0.929 . S
C461 C441 1.449 . S
C461 C460 1.399 . S
C461 H467 0.930 . S
H462 C442 0.931 . S
H463 C443 0.930 . S
H464 C451 0.931 . S
H465 C452 0.929 . S
H466 C460 0.929 . S
H467 C461 0.930 . S
Mn468 O473 2.095 . S
Mn468 O483 2.162 . S
Mn468 O484 2.297 . S
Mn468 O492 2.385 . S
Mn468 O493 2.209 . S
Mn468 O494 2.094 . S
Mn469 O474 2.121 1_655 S
Mn469 N476 2.257 . S
Mn469 N485 2.282 . S
Mn469 O493 2.215 . S
Mn469 O495 2.117 . S
C470 O492 1.234 . S
C470 O493 1.283 . S
C471 O483 1.281 . S
C471 O484 1.236 . S
C472 O494 1.240 . S
C472 O495 1.264 . S
O473 Mn468 2.095 . S
O473 C482 1.250 1_655 S
O474 Mn469 2.121 1_455 S
O474 C482 1.258 . S
C475 N476 1.326 1_455 S
C475 C479 1.460 . S
C475 H481 0.929 . S
N476 Mn469 2.257 . S
N476 C475 1.326 1_655 S
N476 C480 1.362 . S
C477 C478 1.258 . S
C477 C480 1.431 . S
C477 C497 1.449 . S
C478 C477 1.258 . S
C478 C479 1.477 1_655 S
C478 H498 0.931 1_655 S
C479 C475 1.460 . S
C479 C478 1.477 1_455 S
C479 H499 0.930 . S
C480 N476 1.362 . S
C480 C477 1.431 . S
C480 C490 1.476 . S
H481 C475 0.929 . S
C482 O473 1.250 1_455 S
C482 O474 1.258 . S
O483 Mn468 2.162 . S
O483 C471 1.281 . S
O484 Mn468 2.297 . S
O484 C471 1.236 . S
N485 Mn469 2.282 . S
N485 C486 1.328 . S
N485 C490 1.318 . S
C486 N485 1.328 . S
C486 C487 1.457 . S
C486 H491 0.929 . S
C487 C486 1.457 . S
C487 C488 1.291 . S
C487 H500 0.931 . S
C488 C487 1.291 . S
C488 C489 1.373 . S
C488 H501 0.929 . S
C489 C488 1.373 . S
C489 C490 1.396 . S
C489 C496 1.403 . S
C490 C480 1.476 . S
C490 N485 1.318 . S
C490 C489 1.396 . S
H491 C486 0.929 . S
O492 Mn468 2.385 . S
O492 C470 1.234 . S
O493 Mn468 2.209 . S
O493 Mn469 2.215 . S
O493 C470 1.283 . S
O494 Mn468 2.094 . S
O494 C472 1.240 . S
O495 Mn469 2.117 . S
O495 C472 1.264 . S
C496 C489 1.403 . S
C496 C497 1.399 . S
C496 H502 0.929 . S
C497 C477 1.449 . S
C497 C496 1.399 . S
C497 H503 0.930 . S
H498 C478 0.931 1_455 S
H499 C479 0.930 . S
H500 C487 0.931 . S
H501 C488 0.929 . S
H502 C496 0.929 . S
H503 C497 0.930 . S
Mn504 O509 2.095 . S
Mn504 O519 2.162 . S
Mn504 O520 2.297 . S
Mn504 O528 2.385 . S
Mn504 O529 2.209 . S
Mn504 O530 2.094 . S
Mn505 O510 2.121 . S
Mn505 N512 2.257 . S
Mn505 N521 2.282 . S
Mn505 O529 2.215 . S
Mn505 O531 2.117 . S
C506 O528 1.234 . S
C506 O529 1.283 . S
C507 O519 1.281 . S
C507 O520 1.236 . S
C508 O530 1.240 . S
C508 O531 1.264 . S
O509 Mn504 2.095 . S
O509 C518 1.250 . S
O510 Mn505 2.121 . S
O510 C518 1.258 . S
C511 N512 1.326 . S
C511 C515 1.460 . S
C511 H517 0.929 . S
N512 Mn505 2.257 . S
N512 C511 1.326 . S
N512 C516 1.362 . S
C513 C514 1.258 . S
C513 C516 1.431 . S
C513 C533 1.449 . S
C514 C513 1.258 . S
C514 C515 1.477 . S
C514 H534 0.931 . S
C515 C511 1.460 . S
C515 C514 1.477 . S
C515 H535 0.930 . S
C516 N512 1.362 . S
C516 C513 1.431 . S
C516 C526 1.476 . S
H517 C511 0.929 . S
C518 O509 1.250 . S
C518 O510 1.258 . S
O519 Mn504 2.162 . S
O519 C507 1.281 . S
O520 Mn504 2.297 . S
O520 C507 1.236 . S
N521 Mn505 2.282 . S
N521 C522 1.328 . S
N521 C526 1.318 . S
C522 N521 1.328 . S
C522 C523 1.457 . S
C522 H527 0.929 . S
C523 C522 1.457 . S
C523 C524 1.291 . S
C523 H536 0.931 . S
C524 C523 1.291 . S
C524 C525 1.373 . S
C524 H537 0.929 . S
C525 C524 1.373 . S
C525 C526 1.396 . S
C525 C532 1.403 . S
C526 C516 1.476 . S
C526 N521 1.318 . S
C526 C525 1.396 . S
H527 C522 0.929 . S
O528 Mn504 2.385 . S
O528 C506 1.234 . S
O529 Mn504 2.209 . S
O529 Mn505 2.215 . S
O529 C506 1.283 . S
O530 Mn504 2.094 . S
O530 C508 1.240 . S
O531 Mn505 2.117 . S
O531 C508 1.264 . S
C532 C525 1.403 . S
C532 C533 1.399 . S
C532 H538 0.929 . S
C533 C513 1.449 . S
C533 C532 1.399 . S
C533 H539 0.930 . S
H534 C514 0.931 . S
H535 C515 0.930 . S
H536 C523 0.931 . S
H537 C524 0.929 . S
H538 C532 0.929 . S
H539 C533 0.930 . S
Mn540 O545 2.095 . S
Mn540 O555 2.162 . S
Mn540 O556 2.297 . S
Mn540 O564 2.385 . S
Mn540 O565 2.209 . S
Mn540 O566 2.094 . S
Mn541 O546 2.121 . S
Mn541 N548 2.257 . S
Mn541 N557 2.282 . S
Mn541 O565 2.215 . S
Mn541 O567 2.117 . S
C542 O564 1.234 . S
C542 O565 1.283 . S
C543 O555 1.281 . S
C543 O556 1.236 . S
C544 O566 1.240 . S
C544 O567 1.264 . S
O545 Mn540 2.095 . S
O545 C554 1.250 . S
O546 Mn541 2.121 . S
O546 C554 1.258 . S
C547 N548 1.326 . S
C547 C551 1.460 . S
C547 H553 0.929 . S
N548 Mn541 2.257 . S
N548 C547 1.326 . S
N548 C552 1.362 . S
C549 C550 1.258 . S
C549 C552 1.431 . S
C549 C569 1.449 . S
C550 C549 1.258 . S
C550 C551 1.477 . S
C550 H570 0.931 . S
C551 C547 1.460 . S
C551 C550 1.477 . S
C551 H571 0.930 . S
C552 N548 1.362 . S
C552 C549 1.431 . S
C552 C562 1.476 . S
H553 C547 0.929 . S
C554 O545 1.250 . S
C554 O546 1.258 . S
O555 Mn540 2.162 . S
O555 C543 1.281 . S
O556 Mn540 2.297 . S
O556 C543 1.236 . S
N557 Mn541 2.282 . S
N557 C558 1.328 . S
N557 C562 1.318 . S
C558 N557 1.328 . S
C558 C559 1.457 . S
C558 H563 0.929 . S
C559 C558 1.457 . S
C559 C560 1.291 . S
C559 H572 0.931 . S
C560 C559 1.291 . S
C560 C561 1.373 . S
C560 H573 0.929 . S
C561 C560 1.373 . S
C561 C562 1.396 . S
C561 C568 1.403 . S
C562 C552 1.476 . S
C562 N557 1.318 . S
C562 C561 1.396 . S
H563 C558 0.929 . S
O564 Mn540 2.385 . S
O564 C542 1.234 . S
O565 Mn540 2.209 . S
O565 Mn541 2.215 . S
O565 C542 1.283 . S
O566 Mn540 2.094 . S
O566 C544 1.240 . S
O567 Mn541 2.117 . S
O567 C544 1.264 . S
C568 C561 1.403 . S
C568 C569 1.399 . S
C568 H574 0.929 . S
C569 C549 1.449 . S
C569 C568 1.399 . S
C569 H575 0.930 . S
H570 C550 0.931 . S
H571 C551 0.930 . S
H572 C559 0.931 . S
H573 C560 0.929 . S
H574 C568 0.929 . S
H575 C569 0.930 . S
Mn576 O581 2.076 1_545 S
Mn576 O591 2.162 . S
Mn576 O592 2.297 . S
Mn576 O600 2.385 . S
Mn576 O601 2.209 . S
Mn576 O602 2.094 . S
Mn577 O582 2.121 1_545 S
Mn577 N584 2.257 . S
Mn577 N593 2.282 . S
Mn577 O601 2.215 . S
Mn577 O603 2.117 . S
C578 O600 1.234 . S
C578 O601 1.283 . S
C579 O591 1.281 . S
C579 O592 1.236 . S
C580 O602 1.240 . S
C580 O603 1.264 . S
O581 Mn576 2.076 1_565 S
O581 C590 1.273 . S
O582 Mn577 2.121 1_565 S
O582 C590 1.258 . S
C583 N584 1.326 1_565 S
C583 C587 1.460 . S
C583 H589 0.929 . S
N584 Mn577 2.257 . S
N584 C583 1.326 1_545 S
N584 C588 1.362 . S
C585 C586 1.242 1_545 S
C585 C588 1.431 . S
C585 C605 1.449 . S
C586 C585 1.242 1_565 S
C586 C587 1.483 . S
C586 H606 0.941 . S
C587 C583 1.460 . S
C587 C586 1.483 . S
C587 H607 0.930 . S
C588 N584 1.362 . S
C588 C585 1.431 . S
C588 C598 1.476 . S
H589 C583 0.929 . S
C590 O581 1.273 . S
C590 O582 1.258 . S
O591 Mn576 2.162 . S
O591 C579 1.281 . S
O592 Mn576 2.297 . S
O592 C579 1.236 . S
N593 Mn577 2.282 . S
N593 C594 1.328 . S
N593 C598 1.318 . S
C594 N593 1.328 . S
C594 C595 1.457 . S
C594 H599 0.929 . S
C595 C594 1.457 . S
C595 C596 1.291 . S
C595 H608 0.931 . S
C596 C595 1.291 . S
C596 C597 1.373 . S
C596 H609 0.929 . S
C597 C596 1.373 . S
C597 C598 1.396 . S
C597 C604 1.403 . S
C598 C588 1.476 . S
C598 N593 1.318 . S
C598 C597 1.396 . S
H599 C594 0.929 . S
O600 Mn576 2.385 . S
O600 C578 1.234 . S
O601 Mn576 2.209 . S
O601 Mn577 2.215 . S
O601 C578 1.283 . S
O602 Mn576 2.094 . S
O602 C580 1.240 . S
O603 Mn577 2.117 . S
O603 C580 1.264 . S
C604 C597 1.403 . S
C604 C605 1.399 . S
C604 H610 0.929 . S
C605 C585 1.449 . S
C605 C604 1.399 . S
C605 H611 0.930 . S
H606 C586 0.941 . S
H607 C587 0.930 . S
H608 C595 0.931 . S
H609 C596 0.929 . S
H610 C604 0.929 . S
H611 C605 0.930 . S
Mn612 O617 2.095 . S
Mn612 O627 2.162 1_655 S
Mn612 O628 2.297 1_655 S
Mn612 O636 2.385 . S
Mn612 O637 2.209 . S
Mn612 O638 2.094 . S
Mn613 O618 2.121 . S
Mn613 N620 2.257 . S
Mn613 N629 2.282 . S
Mn613 O637 2.215 . S
Mn613 O639 2.117 . S
C614 O636 1.234 . S
C614 O637 1.283 . S
C615 O627 1.281 . S
C615 O628 1.236 . S
C616 O638 1.240 . S
C616 O639 1.264 . S
O617 Mn612 2.095 . S
O617 C626 1.250 . S
O618 Mn613 2.121 . S
O618 C626 1.258 . S
C619 N620 1.326 . S
C619 C623 1.460 . S
C619 H625 0.929 . S
N620 Mn613 2.257 . S
N620 C619 1.326 . S
N620 C624 1.362 . S
C621 C622 1.258 . S
C621 C624 1.431 . S
C621 C641 1.449 . S
C622 C621 1.258 . S
C622 C623 1.477 . S
C622 H642 0.931 . S
C623 C619 1.460 . S
C623 C622 1.477 . S
C623 H643 0.930 . S
C624 N620 1.362 . S
C624 C621 1.431 . S
C624 C634 1.476 . S
H625 C619 0.929 . S
C626 O617 1.250 . S
C626 O618 1.258 . S
O627 Mn612 2.162 1_455 S
O627 C615 1.281 . S
O628 Mn612 2.297 1_455 S
O628 C615 1.236 . S
N629 Mn613 2.282 . S
N629 C630 1.328 . S
N629 C634 1.318 . S
C630 N629 1.328 . S
C630 C631 1.457 . S
C630 H635 0.929 . S
C631 C630 1.457 . S
C631 C632 1.291 . S
C631 H644 0.931 . S
C632 C631 1.291 . S
C632 C633 1.373 . S
C632 H645 0.929 . S
C633 C632 1.373 . S
C633 C634 1.396 . S
C633 C640 1.403 . S
C634 C624 1.476 . S
C634 N629 1.318 . S
C634 C633 1.396 . S
H635 C630 0.929 . S
O636 Mn612 2.385 . S
O636 C614 1.234 . S
O637 Mn612 2.209 . S
O637 Mn613 2.215 . S
O637 C614 1.283 . S
O638 Mn612 2.094 . S
O638 C616 1.240 . S
O639 Mn613 2.117 . S
O639 C616 1.264 . S
C640 C633 1.403 . S
C640 C641 1.399 . S
C640 H646 0.929 . S
C641 C621 1.449 . S
C641 C640 1.399 . S
C641 H647 0.930 . S
H642 C622 0.931 . S
H643 C623 0.930 . S
H644 C631 0.931 . S
H645 C632 0.929 . S
H646 C640 0.929 . S
H647 C641 0.930 . S
H648 C667 0.949 . S
H649 C668 0.950 . S
H650 C670 0.950 . S
H651 C671 0.950 . S
H652 C673 0.950 . S
H653 C676 0.950 . S
H654 C677 0.950 . S
H655 C679 0.951 . S
H656 C680 0.949 . S
H657 C682 0.949 . S
H658 C683 0.950 . S
H659 C685 0.950 . S
H660 C686 0.950 . S
H661 C688 0.950 . S
H662 C691 0.950 . S
H663 C692 0.950 . S
H664 C694 0.951 . S
H665 C695 0.949 . S
C666 C667 1.376 . S
C666 C671 1.386 . S
C666 C672 1.483 . S
C667 H648 0.949 . S
C667 C666 1.376 . S
C667 C668 1.397 . S
C668 H649 0.950 . S
C668 C667 1.397 . S
C668 C669 1.391 . S
C669 C668 1.391 . S
C669 C670 1.405 . S
C670 H650 0.950 . S
C670 C669 1.405 . S
C670 C671 1.367 . S
C671 H651 0.950 . S
C671 C666 1.386 . S
C671 C670 1.367 . S
C672 C666 1.483 . S
C672 C673 1.382 . S
C672 C674 1.403 . S
C673 H652 0.950 . S
C673 C672 1.382 . S
C673 C689 1.411 . S
C674 C672 1.403 . S
C674 C675 1.489 . S
C674 C688 1.411 . S
C675 C674 1.489 . S
C675 C676 1.383 . S
C675 C680 1.382 . S
C676 H653 0.950 . S
C676 C675 1.383 . S
C676 C677 1.395 . S
C677 H654 0.950 . S
C677 C676 1.395 . S
C677 C678 1.288 . S
C678 C677 1.288 . S
C678 C679 1.392 . S
C679 H655 0.951 . S
C679 C678 1.392 . S
C679 C680 1.392 . S
C680 H656 0.949 . S
C680 C675 1.382 . S
C680 C679 1.392 . S
C681 C682 1.376 . S
C681 C686 1.386 . S
C681 C687 1.483 . S
C682 H657 0.949 . S
C682 C681 1.376 . S
C682 C683 1.397 . S
C683 H658 0.950 . S
C683 C682 1.397 . S
C683 C684 1.391 . S
C684 C683 1.391 . S
C684 C685 1.405 . S
C685 H659 0.950 . S
C685 C684 1.405 . S
C685 C686 1.367 . S
C686 H660 0.950 . S
C686 C681 1.386 . S
C686 C685 1.367 . S
C687 C681 1.483 . S
C687 C688 1.382 . S
C687 C689 1.403 . S
C688 H661 0.950 . S
C688 C674 1.411 . S
C688 C687 1.382 . S
C689 C673 1.411 . S
C689 C687 1.403 . S
C689 C690 1.489 . S
C690 C689 1.489 . S
C690 C691 1.383 . S
C690 C695 1.382 . S
C691 H662 0.950 . S
C691 C690 1.383 . S
C691 C692 1.395 . S
C692 H663 0.950 . S
C692 C691 1.395 . S
C692 C693 1.288 . S
C693 C692 1.288 . S
C693 C694 1.392 . S
C694 H664 0.951 . S
C694 C693 1.392 . S
C694 C695 1.392 . S
C695 H665 0.949 . S
C695 C690 1.382 . S
C695 C694 1.392 . S
H696 C715 0.949 . S
H697 C716 0.950 . S
H698 C718 0.950 . S
H699 C719 0.950 . S
H700 C721 0.950 . S
H701 C724 0.950 . S
H702 C725 0.950 . S
H703 C727 0.951 . S
H704 C728 0.949 . S
H705 C730 0.949 . S
H706 C731 0.950 . S
H707 C733 0.950 . S
H708 C734 0.950 . S
H709 C736 0.950 . S
H710 C739 0.950 . S
H711 C740 0.950 . S
H712 C742 0.951 . S
H713 C743 0.949 . S
C714 C715 1.376 . S
C714 C719 1.386 . S
C714 C720 1.483 . S
C715 H696 0.949 . S
C715 C714 1.376 . S
C715 C716 1.397 . S
C716 H697 0.950 . S
C716 C715 1.397 . S
C716 C717 1.391 . S
C717 C716 1.391 . S
C717 C718 1.405 . S
C718 H698 0.950 . S
C718 C717 1.405 . S
C718 C719 1.367 . S
C719 H699 0.950 . S
C719 C714 1.386 . S
C719 C718 1.367 . S
C720 C714 1.483 . S
C720 C721 1.382 . S
C720 C722 1.403 . S
C721 H700 0.950 . S
C721 C720 1.382 . S
C721 C737 1.411 . S
C722 C720 1.403 . S
C722 C723 1.489 . S
C722 C736 1.411 . S
C723 C722 1.489 . S
C723 C724 1.383 . S
C723 C728 1.382 . S
C724 H701 0.950 . S
C724 C723 1.383 . S
C724 C725 1.395 . S
C725 H702 0.950 . S
C725 C724 1.395 . S
C725 C726 1.288 . S
C726 C725 1.288 . S
C726 C727 1.392 . S
C727 H703 0.951 . S
C727 C726 1.392 . S
C727 C728 1.392 . S
C728 H704 0.949 . S
C728 C723 1.382 . S
C728 C727 1.392 . S
C729 C730 1.376 . S
C729 C734 1.386 . S
C729 C735 1.483 . S
C730 H705 0.949 . S
C730 C729 1.376 . S
C730 C731 1.397 . S
C731 H706 0.950 . S
C731 C730 1.397 . S
C731 C732 1.391 . S
C732 C731 1.391 . S
C732 C733 1.405 . S
C733 H707 0.950 . S
C733 C732 1.405 . S
C733 C734 1.367 . S
C734 H708 0.950 . S
C734 C729 1.386 . S
C734 C733 1.367 . S
C735 C729 1.483 . S
C735 C736 1.382 . S
C735 C737 1.403 . S
C736 H709 0.950 . S
C736 C722 1.411 . S
C736 C735 1.382 . S
C737 C721 1.411 . S
C737 C735 1.403 . S
C737 C738 1.489 . S
C738 C737 1.489 . S
C738 C739 1.383 . S
C738 C743 1.382 . S
C739 H710 0.950 . S
C739 C738 1.383 . S
C739 C740 1.395 . S
C740 H711 0.950 . S
C740 C739 1.395 . S
C740 C741 1.288 . S
C741 C740 1.288 . S
C741 C742 1.392 . S
C742 H712 0.951 . S
C742 C741 1.392 . S
C742 C743 1.392 . S
C743 H713 0.949 . S
C743 C738 1.382 . S
C743 C742 1.392 . S
H744 C763 0.949 . S
H745 C764 0.950 . S
H746 C766 0.950 . S
H747 C767 0.950 . S
H748 C769 0.950 . S
H749 C772 0.950 . S
H750 C773 0.950 . S
H751 C775 0.951 . S
H752 C776 0.949 . S
H753 C778 0.949 . S
H754 C779 0.950 . S
H755 C781 0.950 . S
H756 C782 0.950 . S
H757 C784 0.950 . S
H758 C787 0.950 . S
H759 C788 0.950 . S
H760 C790 0.951 . S
H761 C791 0.949 . S
C762 C763 1.376 . S
C762 C767 1.386 . S
C762 C768 1.483 . S
C763 H744 0.949 . S
C763 C762 1.376 . S
C763 C764 1.397 . S
C764 H745 0.950 . S
C764 C763 1.397 . S
C764 C765 1.391 . S
C765 C764 1.391 . S
C765 C766 1.405 . S
C766 H746 0.950 . S
C766 C765 1.405 . S
C766 C767 1.367 . S
C767 H747 0.950 . S
C767 C762 1.386 . S
C767 C766 1.367 . S
C768 C762 1.483 . S
C768 C769 1.382 . S
C768 C770 1.403 . S
C769 H748 0.950 . S
C769 C768 1.382 . S
C769 C785 1.411 . S
C770 C768 1.403 . S
C770 C771 1.489 . S
C770 C784 1.411 . S
C771 C770 1.489 . S
C771 C772 1.383 . S
C771 C776 1.382 . S
C772 H749 0.950 . S
C772 C771 1.383 . S
C772 C773 1.395 . S
C773 H750 0.950 . S
C773 C772 1.395 . S
C773 C774 1.288 . S
C774 C773 1.288 . S
C774 C775 1.392 . S
C775 H751 0.951 . S
C775 C774 1.392 . S
C775 C776 1.392 . S
C776 H752 0.949 . S
C776 C771 1.382 . S
C776 C775 1.392 . S
C777 C778 1.376 . S
C777 C782 1.386 . S
C777 C783 1.483 . S
C778 H753 0.949 . S
C778 C777 1.376 . S
C778 C779 1.397 . S
C779 H754 0.950 . S
C779 C778 1.397 . S
C779 C780 1.391 . S
C780 C779 1.391 . S
C780 C781 1.405 . S
C781 H755 0.950 . S
C781 C780 1.405 . S
C781 C782 1.367 . S
C782 H756 0.950 . S
C782 C777 1.386 . S
C782 C781 1.367 . S
C783 C777 1.483 . S
C783 C784 1.382 . S
C783 C785 1.403 . S
C784 H757 0.950 . S
C784 C770 1.411 . S
C784 C783 1.382 . S
C785 C769 1.411 . S
C785 C783 1.403 . S
C785 C786 1.489 . S
C786 C785 1.489 . S
C786 C787 1.383 . S
C786 C791 1.382 . S
C787 H758 0.950 . S
C787 C786 1.383 . S
C787 C788 1.395 . S
C788 H759 0.950 . S
C788 C787 1.395 . S
C788 C789 1.288 . S
C789 C788 1.288 . S
C789 C790 1.392 . S
C790 H760 0.951 . S
C790 C789 1.392 . S
C790 C791 1.392 . S
C791 H761 0.949 . S
C791 C786 1.382 . S
C791 C790 1.392 . S
H792 C811 0.949 . S
H793 C812 0.950 . S
H794 C814 0.950 . S
H795 C815 0.950 . S
H796 C817 0.950 . S
H797 C820 0.950 . S
H798 C821 0.950 . S
H799 C823 0.951 . S
H800 C824 0.949 . S
H801 C826 0.949 . S
H802 C827 0.950 . S
H803 C829 0.950 . S
H804 C830 0.950 . S
H805 C832 0.950 . S
H806 C835 0.950 . S
H807 C836 0.950 . S
H808 C838 0.951 . S
H809 C839 0.949 . S
C810 C811 1.376 . S
C810 C815 1.386 . S
C810 C816 1.483 . S
C811 H792 0.949 . S
C811 C810 1.376 . S
C811 C812 1.397 . S
C812 H793 0.950 . S
C812 C811 1.397 . S
C812 C813 1.391 . S
C813 C812 1.391 . S
C813 C814 1.405 . S
C814 H794 0.950 . S
C814 C813 1.405 . S
C814 C815 1.367 . S
C815 H795 0.950 . S
C815 C810 1.386 . S
C815 C814 1.367 . S
C816 C810 1.483 . S
C816 C817 1.382 . S
C816 C818 1.403 . S
C817 H796 0.950 . S
C817 C816 1.382 . S
C817 C833 1.411 . S
C818 C816 1.403 . S
C818 C819 1.489 . S
C818 C832 1.411 . S
C819 C818 1.489 . S
C819 C820 1.383 . S
C819 C824 1.382 . S
C820 H797 0.950 . S
C820 C819 1.383 . S
C820 C821 1.395 . S
C821 H798 0.950 . S
C821 C820 1.395 . S
C821 C822 1.288 . S
C822 C821 1.288 . S
C822 C823 1.392 . S
C823 H799 0.951 . S
C823 C822 1.392 . S
C823 C824 1.392 . S
C824 H800 0.949 . S
C824 C819 1.382 . S
C824 C823 1.392 . S
C825 C826 1.376 . S
C825 C830 1.386 . S
C825 C831 1.483 . S
C826 H801 0.949 . S
C826 C825 1.376 . S
C826 C827 1.397 . S
C827 H802 0.950 . S
C827 C826 1.397 . S
C827 C828 1.391 . S
C828 C827 1.391 . S
C828 C829 1.405 . S
C829 H803 0.950 . S
C829 C828 1.405 . S
C829 C830 1.367 . S
C830 H804 0.950 . S
C830 C825 1.386 . S
C830 C829 1.367 . S
C831 C825 1.483 . S
C831 C832 1.382 . S
C831 C833 1.403 . S
C832 H805 0.950 . S
C832 C818 1.411 . S
C832 C831 1.382 . S
C833 C817 1.411 . S
C833 C831 1.403 . S
C833 C834 1.489 . S
C834 C833 1.489 . S
C834 C835 1.383 . S
C834 C839 1.382 . S
C835 H806 0.950 . S
C835 C834 1.383 . S
C835 C836 1.395 . S
C836 H807 0.950 . S
C836 C835 1.395 . S
C836 C837 1.288 . S
C837 C836 1.288 . S
C837 C838 1.392 . S
C838 H808 0.951 . S
C838 C837 1.392 . S
C838 C839 1.392 . S
C839 H809 0.949 . S
C839 C834 1.382 . S
C839 C838 1.392 . S
H840 C859 0.949 . S
H841 C860 0.950 . S
H842 C862 0.950 . S
H843 C863 0.950 . S
H844 C865 0.950 . S
H845 C868 0.950 . S
H846 C869 0.950 . S
H847 C871 0.951 . S
H848 C872 0.949 . S
H849 C874 0.949 . S
H850 C875 0.950 . S
H851 C877 0.950 . S
H852 C878 0.950 . S
H853 C880 0.950 . S
H854 C883 0.950 . S
H855 C884 0.950 . S
H856 C886 0.951 . S
H857 C887 0.949 . S
C858 C859 1.376 . S
C858 C863 1.386 . S
C858 C864 1.483 . S
C859 H840 0.949 . S
C859 C858 1.376 . S
C859 C860 1.397 . S
C860 H841 0.950 . S
C860 C859 1.397 . S
C860 C861 1.391 . S
C861 C860 1.391 . S
C861 C862 1.405 . S
C862 H842 0.950 . S
C862 C861 1.405 . S
C862 C863 1.367 . S
C863 H843 0.950 . S
C863 C858 1.386 . S
C863 C862 1.367 . S
C864 C858 1.483 . S
C864 C865 1.382 . S
C864 C866 1.403 . S
C865 H844 0.950 . S
C865 C864 1.382 . S
C865 C881 1.411 . S
C866 C864 1.403 . S
C866 C867 1.489 . S
C866 C880 1.411 . S
C867 C866 1.489 . S
C867 C868 1.383 . S
C867 C872 1.382 . S
C868 H845 0.950 . S
C868 C867 1.383 . S
C868 C869 1.395 . S
C869 H846 0.950 . S
C869 C868 1.395 . S
C869 C870 1.288 . S
C870 C869 1.288 . S
C870 C871 1.392 . S
C871 H847 0.951 . S
C871 C870 1.392 . S
C871 C872 1.392 . S
C872 H848 0.949 . S
C872 C867 1.382 . S
C872 C871 1.392 . S
C873 C874 1.376 . S
C873 C878 1.386 . S
C873 C879 1.483 . S
C874 H849 0.949 . S
C874 C873 1.376 . S
C874 C875 1.397 . S
C875 H850 0.950 . S
C875 C874 1.397 . S
C875 C876 1.391 . S
C876 C875 1.391 . S
C876 C877 1.405 . S
C877 H851 0.950 . S
C877 C876 1.405 . S
C877 C878 1.367 . S
C878 H852 0.950 . S
C878 C873 1.386 . S
C878 C877 1.367 . S
C879 C873 1.483 . S
C879 C880 1.382 . S
C879 C881 1.403 . S
C880 H853 0.950 . S
C880 C866 1.411 . S
C880 C879 1.382 . S
C881 C865 1.411 . S
C881 C879 1.403 . S
C881 C882 1.489 . S
C882 C881 1.489 . S
C882 C883 1.383 . S
C882 C887 1.382 . S
C883 H854 0.950 . S
C883 C882 1.383 . S
C883 C884 1.395 . S
C884 H855 0.950 . S
C884 C883 1.395 . S
C884 C885 1.288 . S
C885 C884 1.288 . S
C885 C886 1.392 . S
C886 H856 0.951 . S
C886 C885 1.392 . S
C886 C887 1.392 . S
C887 H857 0.949 . S
C887 C882 1.382 . S
C887 C886 1.392 . S
H888 C907 0.949 . S
H889 C908 0.950 . S
H890 C910 0.950 . S
H891 C911 0.950 . S
H892 C913 0.950 . S
H893 C916 0.950 . S
H894 C917 0.950 . S
H895 C919 0.951 . S
H896 C920 0.949 . S
H897 C922 0.949 . S
H898 C923 0.950 . S
H899 C925 0.950 . S
H900 C926 0.950 . S
H901 C928 0.950 . S
H902 C931 0.950 . S
H903 C932 0.950 . S
H904 C934 0.951 . S
H905 C935 0.949 . S
C906 C907 1.376 . S
C906 C911 1.386 . S
C906 C912 1.483 . S
C907 H888 0.949 . S
C907 C906 1.376 . S
C907 C908 1.397 . S
C908 H889 0.950 . S
C908 C907 1.397 . S
C908 C909 1.391 . S
C909 C908 1.391 . S
C909 C910 1.405 . S
C910 H890 0.950 . S
C910 C909 1.405 . S
C910 C911 1.367 . S
C911 H891 0.950 . S
C911 C906 1.386 . S
C911 C910 1.367 . S
C912 C906 1.483 . S
C912 C913 1.382 . S
C912 C914 1.403 . S
C913 H892 0.950 . S
C913 C912 1.382 . S
C913 C929 1.411 . S
C914 C912 1.403 . S
C914 C915 1.489 . S
C914 C928 1.411 . S
C915 C914 1.489 . S
C915 C916 1.383 . S
C915 C920 1.382 . S
C916 H893 0.950 . S
C916 C915 1.383 . S
C916 C917 1.395 . S
C917 H894 0.950 . S
C917 C916 1.395 . S
C917 C918 1.288 . S
C918 C917 1.288 . S
C918 C919 1.392 . S
C919 H895 0.951 . S
C919 C918 1.392 . S
C919 C920 1.392 . S
C920 H896 0.949 . S
C920 C915 1.382 . S
C920 C919 1.392 . S
C921 C922 1.376 . S
C921 C926 1.386 . S
C921 C927 1.483 . S
C922 H897 0.949 . S
C922 C921 1.376 . S
C922 C923 1.397 . S
C923 H898 0.950 . S
C923 C922 1.397 . S
C923 C924 1.391 . S
C924 C923 1.391 . S
C924 C925 1.405 . S
C925 H899 0.950 . S
C925 C924 1.405 . S
C925 C926 1.367 . S
C926 H900 0.950 . S
C926 C921 1.386 . S
C926 C925 1.367 . S
C927 C921 1.483 . S
C927 C928 1.382 . S
C927 C929 1.403 . S
C928 H901 0.950 . S
C928 C914 1.411 . S
C928 C927 1.382 . S
C929 C913 1.411 . S
C929 C927 1.403 . S
C929 C930 1.489 . S
C930 C929 1.489 . S
C930 C931 1.383 . S
C930 C935 1.382 . S
C931 H902 0.950 . S
C931 C930 1.383 . S
C931 C932 1.395 . S
C932 H903 0.950 . S
C932 C931 1.395 . S
C932 C933 1.288 . S
C933 C932 1.288 . S
C933 C934 1.392 . S
C934 H904 0.951 . S
C934 C933 1.392 . S
C934 C935 1.392 . S
C935 H905 0.949 . S
C935 C930 1.382 . S
C935 C934 1.392 . S
H936 C955 0.949 . S
H937 C956 0.950 . S
H938 C958 0.950 . S
H939 C959 0.950 . S
H940 C961 0.950 . S
H941 C964 0.950 . S
H942 C965 0.950 . S
H943 C967 0.951 . S
H944 C968 0.949 . S
H945 C970 0.949 . S
H946 C971 0.950 . S
H947 C973 0.950 . S
H948 C974 0.950 . S
H949 C976 0.950 . S
H950 C979 0.950 . S
H951 C980 0.950 . S
H952 C982 0.951 . S
H953 C983 0.949 . S
C954 C955 1.376 . S
C954 C959 1.386 . S
C954 C960 1.483 . S
C955 H936 0.949 . S
C955 C954 1.376 . S
C955 C956 1.397 . S
C956 H937 0.950 . S
C956 C955 1.397 . S
C956 C957 1.391 . S
C957 C956 1.391 . S
C957 C958 1.405 . S
C958 H938 0.950 . S
C958 C957 1.405 . S
C958 C959 1.367 . S
C959 H939 0.950 . S
C959 C954 1.386 . S
C959 C958 1.367 . S
C960 C954 1.483 . S
C960 C961 1.382 . S
C960 C962 1.403 . S
C961 H940 0.950 . S
C961 C960 1.382 . S
C961 C977 1.411 . S
C962 C960 1.403 . S
C962 C963 1.489 . S
C962 C976 1.411 . S
C963 C962 1.489 . S
C963 C964 1.383 . S
C963 C968 1.382 . S
C964 H941 0.950 . S
C964 C963 1.383 . S
C964 C965 1.395 . S
C965 H942 0.950 . S
C965 C964 1.395 . S
C965 C966 1.288 . S
C966 C965 1.288 . S
C966 C967 1.392 . S
C967 H943 0.951 . S
C967 C966 1.392 . S
C967 C968 1.392 . S
C968 H944 0.949 . S
C968 C963 1.382 . S
C968 C967 1.392 . S
C969 C970 1.376 . S
C969 C974 1.386 . S
C969 C975 1.483 . S
C970 H945 0.949 . S
C970 C969 1.376 . S
C970 C971 1.397 . S
C971 H946 0.950 . S
C971 C970 1.397 . S
C971 C972 1.391 . S
C972 C971 1.391 . S
C972 C973 1.405 . S
C973 H947 0.950 . S
C973 C972 1.405 . S
C973 C974 1.367 . S
C974 H948 0.950 . S
C974 C969 1.386 . S
C974 C973 1.367 . S
C975 C969 1.483 . S
C975 C976 1.382 . S
C975 C977 1.403 . S
C976 H949 0.950 . S
C976 C962 1.411 . S
C976 C975 1.382 . S
C977 C961 1.411 . S
C977 C975 1.403 . S
C977 C978 1.489 . S
C978 C977 1.489 . S
C978 C979 1.383 . S
C978 C983 1.382 . S
C979 H950 0.950 . S
C979 C978 1.383 . S
C979 C980 1.395 . S
C980 H951 0.950 . S
C980 C979 1.395 . S
C980 C981 1.288 . S
C981 C980 1.288 . S
C981 C982 1.392 . S
C982 H952 0.951 . S
C982 C981 1.392 . S
C982 C983 1.392 . S
C983 H953 0.949 . S
C983 C978 1.382 . S
C983 C982 1.392 . S
H984 C1003 0.949 . S
H985 C1004 0.950 . S
H986 C1006 0.950 . S
H987 C1007 0.950 . S
H988 C1009 0.950 . S
H989 C1012 0.950 . S
H990 C1013 0.950 . S
H991 C1015 0.951 . S
H992 C1016 0.949 . S
H993 C1018 0.949 . S
H994 C1019 0.950 . S
H995 C1021 0.950 . S
H996 C1022 0.950 . S
H997 C1024 0.950 . S
H998 C1027 0.950 . S
H999 C1028 0.950 . S
H1000 C1030 0.951 . S
H1001 C1031 0.949 . S
C1002 C1003 1.376 . S
C1002 C1007 1.386 . S
C1002 C1008 1.483 . S
C1003 H984 0.949 . S
C1003 C1002 1.376 . S
C1003 C1004 1.397 . S
C1004 H985 0.950 . S
C1004 C1003 1.397 . S
C1004 C1005 1.391 . S
C1005 C1004 1.391 . S
C1005 C1006 1.405 . S
C1006 H986 0.950 . S
C1006 C1005 1.405 . S
C1006 C1007 1.367 . S
C1007 H987 0.950 . S
C1007 C1002 1.386 . S
C1007 C1006 1.367 . S
C1008 C1002 1.483 . S
C1008 C1009 1.382 . S
C1008 C1010 1.403 . S
C1009 H988 0.950 . S
C1009 C1008 1.382 . S
C1009 C1025 1.411 . S
C1010 C1008 1.403 . S
C1010 C1011 1.489 . S
C1010 C1024 1.411 . S
C1011 C1010 1.489 . S
C1011 C1012 1.383 . S
C1011 C1016 1.382 . S
C1012 H989 0.950 . S
C1012 C1011 1.383 . S
C1012 C1013 1.395 . S
C1013 H990 0.950 . S
C1013 C1012 1.395 . S
C1013 C1014 1.288 . S
C1014 C1013 1.288 . S
C1014 C1015 1.392 . S
C1015 H991 0.951 . S
C1015 C1014 1.392 . S
C1015 C1016 1.392 . S
C1016 H992 0.949 . S
C1016 C1011 1.382 . S
C1016 C1015 1.392 . S
C1017 C1018 1.376 . S
C1017 C1022 1.386 . S
C1017 C1023 1.483 . S
C1018 H993 0.949 . S
C1018 C1017 1.376 . S
C1018 C1019 1.397 . S
C1019 H994 0.950 . S
C1019 C1018 1.397 . S
C1019 C1020 1.391 . S
C1020 C1019 1.391 . S
C1020 C1021 1.405 . S
C1021 H995 0.950 . S
C1021 C1020 1.405 . S
C1021 C1022 1.367 . S
C1022 H996 0.950 . S
C1022 C1017 1.386 . S
C1022 C1021 1.367 . S
C1023 C1017 1.483 . S
C1023 C1024 1.382 . S
C1023 C1025 1.403 . S
C1024 H997 0.950 . S
C1024 C1010 1.411 . S
C1024 C1023 1.382 . S
C1025 C1009 1.411 . S
C1025 C1023 1.403 . S
C1025 C1026 1.489 . S
C1026 C1025 1.489 . S
C1026 C1027 1.383 . S
C1026 C1031 1.382 . S
C1027 H998 0.950 . S
C1027 C1026 1.383 . S
C1027 C1028 1.395 . S
C1028 H999 0.950 . S
C1028 C1027 1.395 . S
C1028 C1029 1.288 . S
C1029 C1028 1.288 . S
C1029 C1030 1.392 . S
C1030 H1000 0.951 . S
C1030 C1029 1.392 . S
C1030 C1031 1.392 . S
C1031 H1001 0.949 . S
C1031 C1026 1.382 . S
C1031 C1030 1.392 . S
H1032 C1051 0.949 . S
H1033 C1052 0.950 . S
H1034 C1054 0.950 . S
H1035 C1055 0.950 . S
H1036 C1057 0.950 . S
H1037 C1060 0.950 . S
H1038 C1061 0.950 . S
H1039 C1063 0.951 . S
H1040 C1064 0.949 . S
H1041 C1066 0.949 . S
H1042 C1067 0.950 . S
H1043 C1069 0.950 . S
H1044 C1070 0.950 . S
H1045 C1072 0.950 . S
H1046 C1075 0.950 . S
H1047 C1076 0.950 . S
H1048 C1078 0.951 . S
H1049 C1079 0.949 . S
C1050 C1051 1.376 . S
C1050 C1055 1.386 . S
C1050 C1056 1.483 . S
C1051 H1032 0.949 . S
C1051 C1050 1.376 . S
C1051 C1052 1.397 . S
C1052 H1033 0.950 . S
C1052 C1051 1.397 . S
C1052 C1053 1.391 . S
C1053 C1052 1.391 . S
C1053 C1054 1.405 . S
C1054 H1034 0.950 . S
C1054 C1053 1.405 . S
C1054 C1055 1.367 . S
C1055 H1035 0.950 . S
C1055 C1050 1.386 . S
C1055 C1054 1.367 . S
C1056 C1050 1.483 . S
C1056 C1057 1.382 . S
C1056 C1058 1.403 . S
C1057 H1036 0.950 . S
C1057 C1056 1.382 . S
C1057 C1073 1.411 . S
C1058 C1056 1.403 . S
C1058 C1059 1.489 . S
C1058 C1072 1.411 . S
C1059 C1058 1.489 . S
C1059 C1060 1.383 . S
C1059 C1064 1.382 . S
C1060 H1037 0.950 . S
C1060 C1059 1.383 . S
C1060 C1061 1.395 . S
C1061 H1038 0.950 . S
C1061 C1060 1.395 . S
C1061 C1062 1.288 . S
C1062 C1061 1.288 . S
C1062 C1063 1.392 . S
C1063 H1039 0.951 . S
C1063 C1062 1.392 . S
C1063 C1064 1.392 . S
C1064 H1040 0.949 . S
C1064 C1059 1.382 . S
C1064 C1063 1.392 . S
C1065 C1066 1.376 . S
C1065 C1070 1.386 . S
C1065 C1071 1.483 . S
C1066 H1041 0.949 . S
C1066 C1065 1.376 . S
C1066 C1067 1.397 . S
C1067 H1042 0.950 . S
C1067 C1066 1.397 . S
C1067 C1068 1.391 . S
C1068 C1067 1.391 . S
C1068 C1069 1.405 . S
C1069 H1043 0.950 . S
C1069 C1068 1.405 . S
C1069 C1070 1.367 . S
C1070 H1044 0.950 . S
C1070 C1065 1.386 . S
C1070 C1069 1.367 . S
C1071 C1065 1.483 . S
C1071 C1072 1.382 . S
C1071 C1073 1.403 . S
C1072 H1045 0.950 . S
C1072 C1058 1.411 . S
C1072 C1071 1.382 . S
C1073 C1057 1.411 . S
C1073 C1071 1.403 . S
C1073 C1074 1.489 . S
C1074 C1073 1.489 . S
C1074 C1075 1.383 . S
C1074 C1079 1.382 . S
C1075 H1046 0.950 . S
C1075 C1074 1.383 . S
C1075 C1076 1.395 . S
C1076 H1047 0.950 . S
C1076 C1075 1.395 . S
C1076 C1077 1.288 . S
C1077 C1076 1.288 . S
C1077 C1078 1.392 . S
C1078 H1048 0.951 . S
C1078 C1077 1.392 . S
C1078 C1079 1.392 . S
C1079 H1049 0.949 . S
C1079 C1074 1.382 . S
C1079 C1078 1.392 . S
H1080 C1099 0.949 . S
H1081 C1100 0.950 . S
H1082 C1102 0.950 . S
H1083 C1103 0.950 . S
H1084 C1105 0.950 . S
H1085 C1108 0.950 . S
H1086 C1109 0.950 . S
H1087 C1111 0.951 . S
H1088 C1112 0.949 . S
H1089 C1114 0.949 . S
H1090 C1115 0.950 . S
H1091 C1117 0.950 . S
H1092 C1118 0.950 . S
H1093 C1120 0.950 . S
H1094 C1123 0.950 . S
H1095 C1124 0.950 . S
H1096 C1126 0.951 . S
H1097 C1127 0.949 . S
C1098 C1099 1.376 . S
C1098 C1103 1.386 1_655 S
C1098 C1104 1.483 . S
C1099 H1080 0.949 . S
C1099 C1098 1.376 . S
C1099 C1100 1.397 . S
C1100 H1081 0.950 . S
C1100 C1099 1.397 . S
C1100 C1101 1.391 . S
C1101 C1100 1.391 . S
C1101 C1102 1.405 1_655 S
C1102 H1082 0.950 . S
C1102 C1101 1.405 1_455 S
C1102 C1103 1.367 . S
C1103 H1083 0.950 . S
C1103 C1098 1.386 1_455 S
C1103 C1102 1.367 . S
C1104 C1098 1.483 . S
C1104 C1105 1.382 . S
C1104 C1106 1.403 1_655 S
C1105 H1084 0.950 . S
C1105 C1104 1.382 . S
C1105 C1121 1.411 . S
C1106 C1104 1.403 1_455 S
C1106 C1107 1.489 . S
C1106 C1120 1.411 . S
C1107 C1106 1.489 . S
C1107 C1108 1.383 1_455 S
C1107 C1112 1.382 . S
C1108 H1085 0.950 . S
C1108 C1107 1.383 1_655 S
C1108 C1109 1.395 . S
C1109 H1086 0.950 . S
C1109 C1108 1.395 . S
C1109 C1110 1.288 1_655 S
C1110 C1109 1.288 1_455 S
C1110 C1111 1.392 . S
C1111 H1087 0.951 . S
C1111 C1110 1.392 . S
C1111 C1112 1.392 . S
C1112 H1088 0.949 . S
C1112 C1107 1.382 . S
C1112 C1111 1.392 . S
C1113 C1114 1.376 . S
C1113 C1118 1.386 1_455 S
C1113 C1119 1.483 . S
C1114 H1089 0.949 . S
C1114 C1113 1.376 . S
C1114 C1115 1.397 . S
C1115 H1090 0.950 . S
C1115 C1114 1.397 . S
C1115 C1116 1.391 . S
C1116 C1115 1.391 . S
C1116 C1117 1.405 1_455 S
C1117 H1091 0.950 . S
C1117 C1116 1.405 1_655 S
C1117 C1118 1.367 . S
C1118 H1092 0.950 . S
C1118 C1113 1.386 1_655 S
C1118 C1117 1.367 . S
C1119 C1113 1.483 . S
C1119 C1120 1.382 . S
C1119 C1121 1.403 1_455 S
C1120 H1093 0.950 . S
C1120 C1106 1.411 . S
C1120 C1119 1.382 . S
C1121 C1105 1.411 . S
C1121 C1119 1.403 1_655 S
C1121 C1122 1.489 . S
C1122 C1121 1.489 . S
C1122 C1123 1.383 1_655 S
C1122 C1127 1.382 . S
C1123 H1094 0.950 . S
C1123 C1122 1.383 1_455 S
C1123 C1124 1.395 . S
C1124 H1095 0.950 . S
C1124 C1123 1.395 . S
C1124 C1125 1.288 1_455 S
C1125 C1124 1.288 1_655 S
C1125 C1126 1.392 . S
C1126 H1096 0.951 . S
C1126 C1125 1.392 . S
C1126 C1127 1.392 . S
C1127 H1097 0.949 . S
C1127 C1122 1.382 . S
C1127 C1126 1.392 . S
H1128 C1147 0.949 . S
H1129 C1148 0.950 . S
H1130 C1150 0.950 . S
H1131 C1151 0.950 . S
H1132 C1153 0.950 . S
H1133 C1156 0.950 . S
H1134 C1157 0.950 . S
H1135 C1159 0.951 . S
H1136 C1160 0.949 . S
H1137 C1162 0.949 . S
H1138 C1163 0.950 . S
H1139 C1165 0.950 . S
H1140 C1166 0.950 . S
H1141 C1168 0.950 . S
H1142 C1171 0.950 . S
H1143 C1172 0.950 . S
H1144 C1174 0.951 . S
H1145 C1175 0.949 . S
C1146 C1147 1.376 . S
C1146 C1151 1.386 . S
C1146 C1152 1.483 . S
C1147 H1128 0.949 . S
C1147 C1146 1.376 . S
C1147 C1148 1.397 . S
C1148 H1129 0.950 . S
C1148 C1147 1.397 . S
C1148 C1149 1.391 . S
C1149 C1148 1.391 . S
C1149 C1150 1.405 . S
C1150 H1130 0.950 . S
C1150 C1149 1.405 . S
C1150 C1151 1.367 . S
C1151 H1131 0.950 . S
C1151 C1146 1.386 . S
C1151 C1150 1.367 . S
C1152 C1146 1.483 . S
C1152 C1153 1.382 . S
C1152 C1154 1.403 . S
C1153 H1132 0.950 . S
C1153 C1152 1.382 . S
C1153 C1169 1.411 . S
C1154 C1152 1.403 . S
C1154 C1155 1.489 . S
C1154 C1168 1.411 . S
C1155 C1154 1.489 . S
C1155 C1156 1.383 . S
C1155 C1160 1.382 . S
C1156 H1133 0.950 . S
C1156 C1155 1.383 . S
C1156 C1157 1.395 . S
C1157 H1134 0.950 . S
C1157 C1156 1.395 . S
C1157 C1158 1.288 . S
C1158 C1157 1.288 . S
C1158 C1159 1.392 . S
C1159 H1135 0.951 . S
C1159 C1158 1.392 . S
C1159 C1160 1.392 . S
C1160 H1136 0.949 . S
C1160 C1155 1.382 . S
C1160 C1159 1.392 . S
C1161 C1162 1.376 . S
C1161 C1166 1.386 . S
C1161 C1167 1.483 . S
C1162 H1137 0.949 . S
C1162 C1161 1.376 . S
C1162 C1163 1.397 . S
C1163 H1138 0.950 . S
C1163 C1162 1.397 . S
C1163 C1164 1.391 . S
C1164 C1163 1.391 . S
C1164 C1165 1.405 . S
C1165 H1139 0.950 . S
C1165 C1164 1.405 . S
C1165 C1166 1.367 . S
C1166 H1140 0.950 . S
C1166 C1161 1.386 . S
C1166 C1165 1.367 . S
C1167 C1161 1.483 . S
C1167 C1168 1.382 . S
C1167 C1169 1.403 . S
C1168 H1141 0.950 . S
C1168 C1154 1.411 . S
C1168 C1167 1.382 . S
C1169 C1153 1.411 . S
C1169 C1167 1.403 . S
C1169 C1170 1.489 . S
C1170 C1169 1.489 . S
C1170 C1171 1.383 . S
C1170 C1175 1.382 . S
C1171 H1142 0.950 . S
C1171 C1170 1.383 . S
C1171 C1172 1.395 . S
C1172 H1143 0.950 . S
C1172 C1171 1.395 . S
C1172 C1173 1.288 . S
C1173 C1172 1.288 . S
C1173 C1174 1.392 . S
C1174 H1144 0.951 . S
C1174 C1173 1.392 . S
C1174 C1175 1.392 . S
C1175 H1145 0.949 . S
C1175 C1170 1.382 . S
C1175 C1174 1.392 . S
H1176 C1195 0.949 . S
H1177 C1196 0.950 . S
H1178 C1198 0.950 . S
H1179 C1199 0.950 . S
H1180 C1201 0.950 . S
H1181 C1204 0.950 . S
H1182 C1205 0.950 . S
H1183 C1207 0.951 . S
H1184 C1208 0.949 . S
H1185 C1210 0.949 . S
H1186 C1211 0.950 . S
H1187 C1213 0.950 . S
H1188 C1214 0.950 . S
H1189 C1216 0.950 . S
H1190 C1219 0.950 . S
H1191 C1220 0.950 . S
H1192 C1222 0.951 . S
H1193 C1223 0.949 . S
C1194 C1195 1.376 . S
C1194 C1199 1.386 1_545 S
C1194 C1200 1.483 . S
C1195 H1176 0.949 . S
C1195 C1194 1.376 . S
C1195 C1196 1.397 . S
C1196 H1177 0.950 . S
C1196 C1195 1.397 . S
C1196 C1197 1.391 . S
C1197 C1196 1.391 . S
C1197 C1198 1.405 1_545 S
C1198 H1178 0.950 . S
C1198 C1197 1.405 1_565 S
C1198 C1199 1.367 . S
C1199 H1179 0.950 . S
C1199 C1194 1.386 1_565 S
C1199 C1198 1.367 . S
C1200 C1194 1.483 . S
C1200 C1201 1.382 . S
C1200 C1202 1.403 1_545 S
C1201 H1180 0.950 . S
C1201 C1200 1.382 . S
C1201 C1217 1.411 . S
C1202 C1200 1.403 1_565 S
C1202 C1203 1.489 . S
C1202 C1216 1.411 . S
C1203 C1202 1.489 . S
C1203 C1204 1.383 1_565 S
C1203 C1208 1.382 . S
C1204 H1181 0.950 . S
C1204 C1203 1.383 1_545 S
C1204 C1205 1.395 . S
C1205 H1182 0.950 . S
C1205 C1204 1.395 . S
C1205 C1206 1.288 1_545 S
C1206 C1205 1.288 1_565 S
C1206 C1207 1.392 . S
C1207 H1183 0.951 . S
C1207 C1206 1.392 . S
C1207 C1208 1.392 . S
C1208 H1184 0.949 . S
C1208 C1203 1.382 . S
C1208 C1207 1.392 . S
C1209 C1210 1.376 . S
C1209 C1214 1.386 1_565 S
C1209 C1215 1.483 . S
C1210 H1185 0.949 . S
C1210 C1209 1.376 . S
C1210 C1211 1.397 . S
C1211 H1186 0.950 . S
C1211 C1210 1.397 . S
C1211 C1212 1.391 . S
C1212 C1211 1.391 . S
C1212 C1213 1.405 1_565 S
C1213 H1187 0.950 . S
C1213 C1212 1.405 1_545 S
C1213 C1214 1.367 . S
C1214 H1188 0.950 . S
C1214 C1209 1.386 1_545 S
C1214 C1213 1.367 . S
C1215 C1209 1.483 . S
C1215 C1216 1.382 . S
C1215 C1217 1.403 1_565 S
C1216 H1189 0.950 . S
C1216 C1202 1.411 . S
C1216 C1215 1.382 . S
C1217 C1201 1.411 . S
C1217 C1215 1.403 1_545 S
C1217 C1218 1.489 . S
C1218 C1217 1.489 . S
C1218 C1219 1.383 1_545 S
C1218 C1223 1.382 . S
C1219 H1190 0.950 . S
C1219 C1218 1.383 1_565 S
C1219 C1220 1.395 . S
C1220 H1191 0.950 . S
C1220 C1219 1.395 . S
C1220 C1221 1.288 1_565 S
C1221 C1220 1.288 1_545 S
C1221 C1222 1.392 . S
C1222 H1192 0.951 . S
C1222 C1221 1.392 . S
C1222 C1223 1.392 . S
C1223 H1193 0.949 . S
C1223 C1218 1.382 . S
C1223 C1222 1.392 . S
H1224 C1243 0.949 . S
H1225 C1244 0.950 . S
H1226 C1246 0.950 . S
H1227 C1247 0.950 . S
H1228 C1249 0.950 . S
H1229 C1252 0.950 . S
H1230 C1253 0.950 . S
H1231 C1255 0.951 . S
H1232 C1256 0.949 . S
H1233 C1258 0.949 . S
H1234 C1259 0.950 . S
H1235 C1261 0.950 . S
H1236 C1262 0.950 . S
H1237 C1264 0.950 . S
H1238 C1267 0.950 . S
H1239 C1268 0.950 . S
H1240 C1270 0.951 . S
H1241 C1271 0.949 . S
C1242 C1243 1.379 . S
C1242 C1247 1.385 1_545 S
C1242 C1248 1.505 . S
C1243 H1224 0.949 . S
C1243 C1242 1.379 . S
C1243 C1244 1.397 . S
C1244 H1225 0.950 . S
C1244 C1243 1.397 . S
C1244 C1245 1.391 1_545 S
C1245 C1244 1.391 1_565 S
C1245 C1246 1.405 . S
C1246 H1226 0.950 . S
C1246 C1245 1.405 . S
C1246 C1247 1.367 . S
C1247 H1227 0.950 . S
C1247 C1242 1.385 1_565 S
C1247 C1246 1.367 . S
C1248 C1242 1.505 . S
C1248 C1249 1.360 . S
C1248 C1250 1.398 1_545 S
C1249 H1228 0.950 . S
C1249 C1248 1.360 . S
C1249 C1265 1.446 . S
C1250 C1248 1.398 1_565 S
C1250 C1251 1.486 . S
C1250 C1264 1.437 . S
C1251 C1250 1.486 . S
C1251 C1252 1.341 1_565 S
C1251 C1256 1.405 . S
C1252 H1229 0.950 . S
C1252 C1251 1.341 1_545 S
C1252 C1253 1.395 . S
C1253 H1230 0.950 . S
C1253 C1252 1.395 . S
C1253 C1254 1.288 . S
C1254 C1253 1.288 . S
C1254 C1255 1.392 1_545 S
C1255 H1231 0.951 . S
C1255 C1254 1.392 1_565 S
C1255 C1256 1.392 . S
C1256 H1232 0.949 . S
C1256 C1251 1.405 . S
C1256 C1255 1.392 . S
C1257 C1258 1.379 1_545 S
C1257 C1262 1.385 . S
C1257 C1263 1.498 1_545 S
C1258 H1233 0.949 . S
C1258 C1257 1.379 1_565 S
C1258 C1259 1.397 . S
C1259 H1234 0.950 . S
C1259 C1258 1.397 . S
C1259 C1260 1.391 1_565 S
C1260 C1259 1.391 1_545 S
C1260 C1261 1.405 . S
C1261 H1235 0.950 . S
C1261 C1260 1.405 . S
C1261 C1262 1.367 . S
C1262 H1236 0.950 . S
C1262 C1257 1.385 . S
C1262 C1261 1.367 . S
C1263 C1257 1.498 1_565 S
C1263 C1264 1.367 . S
C1263 C1265 1.398 1_565 S
C1264 H1237 0.950 . S
C1264 C1250 1.437 . S
C1264 C1263 1.367 . S
C1265 C1249 1.446 . S
C1265 C1263 1.398 1_545 S
C1265 C1266 1.486 . S
C1266 C1265 1.486 . S
C1266 C1267 1.324 1_545 S
C1266 C1271 1.415 . S
C1267 H1238 0.950 . S
C1267 C1266 1.324 1_565 S
C1267 C1268 1.395 . S
C1268 H1239 0.950 . S
C1268 C1267 1.395 . S
C1268 C1269 1.324 . S
C1269 C1268 1.324 . S
C1269 C1270 1.323 1_565 S
C1270 H1240 0.951 . S
C1270 C1269 1.323 1_545 S
C1270 C1271 1.392 . S
C1271 H1241 0.949 . S
C1271 C1266 1.415 . S
C1271 C1270 1.392 . S
H1272 C1291 0.949 . S
H1273 C1292 0.950 . S
H1274 C1294 0.950 . S
H1275 C1295 0.950 . S
H1276 C1297 0.950 . S
H1277 C1300 0.950 . S
H1278 C1301 0.950 . S
H1279 C1303 0.951 . S
H1280 C1304 0.949 . S
H1281 C1306 0.949 . S
H1282 C1307 0.950 . S
H1283 C1309 0.950 . S
H1284 C1310 0.950 . S
H1285 C1312 0.950 . S
H1286 C1315 0.950 . S
H1287 C1316 0.950 . S
H1288 C1318 0.951 . S
H1289 C1319 0.949 . S
C1290 C1291 1.376 . S
C1290 C1295 1.386 1_455 S
C1290 C1296 1.483 . S
C1291 H1272 0.949 . S
C1291 C1290 1.376 . S
C1291 C1292 1.397 . S
C1292 H1273 0.950 . S
C1292 C1291 1.397 . S
C1292 C1293 1.391 . S
C1293 C1292 1.391 . S
C1293 C1294 1.405 1_455 S
C1294 H1274 0.950 . S
C1294 C1293 1.405 1_655 S
C1294 C1295 1.367 . S
C1295 H1275 0.950 . S
C1295 C1290 1.386 1_655 S
C1295 C1294 1.367 . S
C1296 C1290 1.483 . S
C1296 C1297 1.382 . S
C1296 C1298 1.403 1_455 S
C1297 H1276 0.950 . S
C1297 C1296 1.382 . S
C1297 C1313 1.411 . S
C1298 C1296 1.403 1_655 S
C1298 C1299 1.489 . S
C1298 C1312 1.411 . S
C1299 C1298 1.489 . S
C1299 C1300 1.383 1_655 S
C1299 C1304 1.382 . S
C1300 H1277 0.950 . S
C1300 C1299 1.383 1_455 S
C1300 C1301 1.395 . S
C1301 H1278 0.950 . S
C1301 C1300 1.395 . S
C1301 C1302 1.288 1_455 S
C1302 C1301 1.288 1_655 S
C1302 C1303 1.392 . S
C1303 H1279 0.951 . S
C1303 C1302 1.392 . S
C1303 C1304 1.392 . S
C1304 H1280 0.949 . S
C1304 C1299 1.382 . S
C1304 C1303 1.392 . S
C1305 C1306 1.376 . S
C1305 C1310 1.386 1_655 S
C1305 C1311 1.483 . S
C1306 H1281 0.949 . S
C1306 C1305 1.376 . S
C1306 C1307 1.397 . S
C1307 H1282 0.950 . S
C1307 C1306 1.397 . S
C1307 C1308 1.391 . S
C1308 C1307 1.391 . S
C1308 C1309 1.405 1_655 S
C1309 H1283 0.950 . S
C1309 C1308 1.405 1_455 S
C1309 C1310 1.367 . S
C1310 H1284 0.950 . S
C1310 C1305 1.386 1_455 S
C1310 C1309 1.367 . S
C1311 C1305 1.483 . S
C1311 C1312 1.382 . S
C1311 C1313 1.403 1_655 S
C1312 H1285 0.950 . S
C1312 C1298 1.411 . S
C1312 C1311 1.382 . S
C1313 C1297 1.411 . S
C1313 C1311 1.403 1_455 S
C1313 C1314 1.489 . S
C1314 C1313 1.489 . S
C1314 C1315 1.383 1_455 S
C1314 C1319 1.382 . S
C1315 H1286 0.950 . S
C1315 C1314 1.383 1_655 S
C1315 C1316 1.395 . S
C1316 H1287 0.950 . S
C1316 C1315 1.395 . S
C1316 C1317 1.288 1_655 S
C1317 C1316 1.288 1_455 S
C1317 C1318 1.392 . S
C1318 H1288 0.951 . S
C1318 C1317 1.392 . S
C1318 C1319 1.392 . S
C1319 H1289 0.949 . S
C1319 C1314 1.382 . S
C1319 C1318 1.392 . S
H1320 C1339 0.949 . S
H1321 C1340 0.950 . S
H1322 C1342 0.950 . S
H1323 C1343 0.950 . S
H1324 C1345 0.950 . S
H1325 C1348 0.950 . S
H1326 C1349 0.950 . S
H1327 C1351 0.951 . S
H1328 C1352 0.949 . S
H1329 C1354 0.949 . S
H1330 C1355 0.950 . S
H1331 C1357 0.950 . S
H1332 C1358 0.950 . S
H1333 C1360 0.950 . S
H1334 C1363 0.950 . S
H1335 C1364 0.950 . S
H1336 C1366 0.951 . S
H1337 C1367 0.949 . S
C1338 C1339 1.376 . S
C1338 C1343 1.386 . S
C1338 C1344 1.483 . S
C1339 H1320 0.949 . S
C1339 C1338 1.376 . S
C1339 C1340 1.397 . S
C1340 H1321 0.950 . S
C1340 C1339 1.397 . S
C1340 C1341 1.391 . S
C1341 C1340 1.391 . S
C1341 C1342 1.405 . S
C1342 H1322 0.950 . S
C1342 C1341 1.405 . S
C1342 C1343 1.367 . S
C1343 H1323 0.950 . S
C1343 C1338 1.386 . S
C1343 C1342 1.367 . S
C1344 C1338 1.483 . S
C1344 C1345 1.382 . S
C1344 C1346 1.403 . S
C1345 H1324 0.950 . S
C1345 C1344 1.382 . S
C1345 C1361 1.411 . S
C1346 C1344 1.403 . S
C1346 C1347 1.489 . S
C1346 C1360 1.411 . S
C1347 C1346 1.489 . S
C1347 C1348 1.383 . S
C1347 C1352 1.382 . S
C1348 H1325 0.950 . S
C1348 C1347 1.383 . S
C1348 C1349 1.395 . S
C1349 H1326 0.950 . S
C1349 C1348 1.395 . S
C1349 C1350 1.288 . S
C1350 C1349 1.288 . S
C1350 C1351 1.392 . S
C1351 H1327 0.951 . S
C1351 C1350 1.392 . S
C1351 C1352 1.392 . S
C1352 H1328 0.949 . S
C1352 C1347 1.382 . S
C1352 C1351 1.392 . S
C1353 C1354 1.376 . S
C1353 C1358 1.386 . S
C1353 C1359 1.483 . S
C1354 H1329 0.949 . S
C1354 C1353 1.376 . S
C1354 C1355 1.397 . S
C1355 H1330 0.950 . S
C1355 C1354 1.397 . S
C1355 C1356 1.391 . S
C1356 C1355 1.391 . S
C1356 C1357 1.405 . S
C1357 H1331 0.950 . S
C1357 C1356 1.405 . S
C1357 C1358 1.367 . S
C1358 H1332 0.950 . S
C1358 C1353 1.386 . S
C1358 C1357 1.367 . S
C1359 C1353 1.483 . S
C1359 C1360 1.382 . S
C1359 C1361 1.403 . S
C1360 H1333 0.950 . S
C1360 C1346 1.411 . S
C1360 C1359 1.382 . S
C1361 C1345 1.411 . S
C1361 C1359 1.403 . S
C1361 C1362 1.489 . S
C1362 C1361 1.489 . S
C1362 C1363 1.383 . S
C1362 C1367 1.382 . S
C1363 H1334 0.950 . S
C1363 C1362 1.383 . S
C1363 C1364 1.395 . S
C1364 H1335 0.950 . S
C1364 C1363 1.395 . S
C1364 C1365 1.288 . S
C1365 C1364 1.288 . S
C1365 C1366 1.392 . S
C1366 H1336 0.951 . S
C1366 C1365 1.392 . S
C1366 C1367 1.392 . S
C1367 H1337 0.949 . S
C1367 C1362 1.382 . S
C1367 C1366 1.392 . S
H1368 C1387 0.949 . S
H1369 C1388 0.950 . S
H1370 C1390 0.950 . S
H1371 C1391 0.950 . S
H1372 C1393 0.950 . S
H1373 C1396 0.950 . S
H1374 C1397 0.950 . S
H1375 C1399 0.951 . S
H1376 C1400 0.949 . S
H1377 C1402 0.949 . S
H1378 C1403 0.950 . S
H1379 C1405 0.950 . S
H1380 C1406 0.950 . S
H1381 C1408 0.950 . S
H1382 C1411 0.950 . S
H1383 C1412 0.950 . S
H1384 C1414 0.951 . S
H1385 C1415 0.949 . S
C1386 C1387 1.376 . S
C1386 C1391 1.386 . S
C1386 C1392 1.483 . S
C1387 H1368 0.949 . S
C1387 C1386 1.376 . S
C1387 C1388 1.397 . S
C1388 H1369 0.950 . S
C1388 C1387 1.397 . S
C1388 C1389 1.391 . S
C1389 C1388 1.391 . S
C1389 C1390 1.405 . S
C1390 H1370 0.950 . S
C1390 C1389 1.405 . S
C1390 C1391 1.367 . S
C1391 H1371 0.950 . S
C1391 C1386 1.386 . S
C1391 C1390 1.367 . S
C1392 C1386 1.483 . S
C1392 C1393 1.382 . S
C1392 C1394 1.403 . S
C1393 H1372 0.950 . S
C1393 C1392 1.382 . S
C1393 C1409 1.411 . S
C1394 C1392 1.403 . S
C1394 C1395 1.489 . S
C1394 C1408 1.411 . S
C1395 C1394 1.489 . S
C1395 C1396 1.383 . S
C1395 C1400 1.382 . S
C1396 H1373 0.950 . S
C1396 C1395 1.383 . S
C1396 C1397 1.395 . S
C1397 H1374 0.950 . S
C1397 C1396 1.395 . S
C1397 C1398 1.288 . S
C1398 C1397 1.288 . S
C1398 C1399 1.392 . S
C1399 H1375 0.951 . S
C1399 C1398 1.392 . S
C1399 C1400 1.392 . S
C1400 H1376 0.949 . S
C1400 C1395 1.382 . S
C1400 C1399 1.392 . S
C1401 C1402 1.376 . S
C1401 C1406 1.386 . S
C1401 C1407 1.483 . S
C1402 H1377 0.949 . S
C1402 C1401 1.376 . S
C1402 C1403 1.397 . S
C1403 H1378 0.950 . S
C1403 C1402 1.397 . S
C1403 C1404 1.391 . S
C1404 C1403 1.391 . S
C1404 C1405 1.405 . S
C1405 H1379 0.950 . S
C1405 C1404 1.405 . S
C1405 C1406 1.367 . S
C1406 H1380 0.950 . S
C1406 C1401 1.386 . S
C1406 C1405 1.367 . S
C1407 C1401 1.483 . S
C1407 C1408 1.382 . S
C1407 C1409 1.403 . S
C1408 H1381 0.950 . S
C1408 C1394 1.411 . S
C1408 C1407 1.382 . S
C1409 C1393 1.411 . S
C1409 C1407 1.403 . S
C1409 C1410 1.489 . S
C1410 C1409 1.489 . S
C1410 C1411 1.383 . S
C1410 C1415 1.382 . S
C1411 H1382 0.950 . S
C1411 C1410 1.383 . S
C1411 C1412 1.395 . S
C1412 H1383 0.950 . S
C1412 C1411 1.395 . S
C1412 C1413 1.288 . S
C1413 C1412 1.288 . S
C1413 C1414 1.392 . S
C1414 H1384 0.951 . S
C1414 C1413 1.392 . S
C1414 C1415 1.392 . S
C1415 H1385 0.949 . S
C1415 C1410 1.382 . S
C1415 C1414 1.392 . S
H1416 C1435 0.949 . S
H1417 C1436 0.950 . S
H1418 C1438 0.950 . S
H1419 C1439 0.950 . S
H1420 C1441 0.950 . S
H1421 C1444 0.950 . S
H1422 C1445 0.950 . S
H1423 C1447 0.951 . S
H1424 C1448 0.949 . S
H1425 C1450 0.949 . S
H1426 C1451 0.950 . S
H1427 C1453 0.950 . S
H1428 C1454 0.950 . S
H1429 C1456 0.950 . S
H1430 C1459 0.950 . S
H1431 C1460 0.950 . S
H1432 C1462 0.951 . S
H1433 C1463 0.949 . S
C1434 C1435 1.376 . S
C1434 C1439 1.386 . S
C1434 C1440 1.483 . S
C1435 H1416 0.949 . S
C1435 C1434 1.376 . S
C1435 C1436 1.397 . S
C1436 H1417 0.950 . S
C1436 C1435 1.397 . S
C1436 C1437 1.391 . S
C1437 C1436 1.391 . S
C1437 C1438 1.405 . S
C1438 H1418 0.950 . S
C1438 C1437 1.405 . S
C1438 C1439 1.367 . S
C1439 H1419 0.950 . S
C1439 C1434 1.386 . S
C1439 C1438 1.367 . S
C1440 C1434 1.483 . S
C1440 C1441 1.382 . S
C1440 C1442 1.403 . S
C1441 H1420 0.950 . S
C1441 C1440 1.382 . S
C1441 C1457 1.411 . S
C1442 C1440 1.403 . S
C1442 C1443 1.489 . S
C1442 C1456 1.411 . S
C1443 C1442 1.489 . S
C1443 C1444 1.383 . S
C1443 C1448 1.382 . S
C1444 H1421 0.950 . S
C1444 C1443 1.383 . S
C1444 C1445 1.395 . S
C1445 H1422 0.950 . S
C1445 C1444 1.395 . S
C1445 C1446 1.288 . S
C1446 C1445 1.288 . S
C1446 C1447 1.392 . S
C1447 H1423 0.951 . S
C1447 C1446 1.392 . S
C1447 C1448 1.392 . S
C1448 H1424 0.949 . S
C1448 C1443 1.382 . S
C1448 C1447 1.392 . S
C1449 C1450 1.376 . S
C1449 C1454 1.386 . S
C1449 C1455 1.483 . S
C1450 H1425 0.949 . S
C1450 C1449 1.376 . S
C1450 C1451 1.397 . S
C1451 H1426 0.950 . S
C1451 C1450 1.397 . S
C1451 C1452 1.391 . S
C1452 C1451 1.391 . S
C1452 C1453 1.405 . S
C1453 H1427 0.950 . S
C1453 C1452 1.405 . S
C1453 C1454 1.367 . S
C1454 H1428 0.950 . S
C1454 C1449 1.386 . S
C1454 C1453 1.367 . S
C1455 C1449 1.483 . S
C1455 C1456 1.382 . S
C1455 C1457 1.403 . S
C1456 H1429 0.950 . S
C1456 C1442 1.411 . S
C1456 C1455 1.382 . S
C1457 C1441 1.411 . S
C1457 C1455 1.403 . S
C1457 C1458 1.489 . S
C1458 C1457 1.489 . S
C1458 C1459 1.383 . S
C1458 C1463 1.382 . S
C1459 H1430 0.950 . S
C1459 C1458 1.383 . S
C1459 C1460 1.395 . S
C1460 H1431 0.950 . S
C1460 C1459 1.395 . S
C1460 C1461 1.288 . S
C1461 C1460 1.288 . S
C1461 C1462 1.392 . S
C1462 H1432 0.951 . S
C1462 C1461 1.392 . S
C1462 C1463 1.392 . S
C1463 H1433 0.949 . S
C1463 C1458 1.382 . S
C1463 C1462 1.392 . S
H1464 C1483 0.949 . S
H1465 C1484 0.950 . S
H1466 C1486 0.950 . S
H1467 C1487 0.950 . S
H1468 C1489 0.950 . S
H1469 C1492 0.950 . S
H1470 C1493 0.950 . S
H1471 C1495 0.951 . S
H1472 C1496 0.949 . S
H1473 C1498 0.949 . S
H1474 C1499 0.950 . S
H1475 C1501 0.950 . S
H1476 C1502 0.950 . S
H1477 C1504 0.950 . S
H1478 C1507 0.950 . S
H1479 C1508 0.950 . S
H1480 C1510 0.951 . S
H1481 C1511 0.949 . S
C1482 C1483 1.376 . S
C1482 C1487 1.386 . S
C1482 C1488 1.483 . S
C1483 H1464 0.949 . S
C1483 C1482 1.376 . S
C1483 C1484 1.397 . S
C1484 H1465 0.950 . S
C1484 C1483 1.397 . S
C1484 C1485 1.391 . S
C1485 C1484 1.391 . S
C1485 C1486 1.405 . S
C1486 H1466 0.950 . S
C1486 C1485 1.405 . S
C1486 C1487 1.367 . S
C1487 H1467 0.950 . S
C1487 C1482 1.386 . S
C1487 C1486 1.367 . S
C1488 C1482 1.483 . S
C1488 C1489 1.382 . S
C1488 C1490 1.403 . S
C1489 H1468 0.950 . S
C1489 C1488 1.382 . S
C1489 C1505 1.411 . S
C1490 C1488 1.403 . S
C1490 C1491 1.489 . S
C1490 C1504 1.411 . S
C1491 C1490 1.489 . S
C1491 C1492 1.383 . S
C1491 C1496 1.382 . S
C1492 H1469 0.950 . S
C1492 C1491 1.383 . S
C1492 C1493 1.395 . S
C1493 H1470 0.950 . S
C1493 C1492 1.395 . S
C1493 C1494 1.288 . S
C1494 C1493 1.288 . S
C1494 C1495 1.392 . S
C1495 H1471 0.951 . S
C1495 C1494 1.392 . S
C1495 C1496 1.392 . S
C1496 H1472 0.949 . S
C1496 C1491 1.382 . S
C1496 C1495 1.392 . S
C1497 C1498 1.376 . S
C1497 C1502 1.386 . S
C1497 C1503 1.483 . S
C1498 H1473 0.949 . S
C1498 C1497 1.376 . S
C1498 C1499 1.397 . S
C1499 H1474 0.950 . S
C1499 C1498 1.397 . S
C1499 C1500 1.391 . S
C1500 C1499 1.391 . S
C1500 C1501 1.405 . S
C1501 H1475 0.950 . S
C1501 C1500 1.405 . S
C1501 C1502 1.367 . S
C1502 H1476 0.950 . S
C1502 C1497 1.386 . S
C1502 C1501 1.367 . S
C1503 C1497 1.483 . S
C1503 C1504 1.382 . S
C1503 C1505 1.403 . S
C1504 H1477 0.950 . S
C1504 C1490 1.411 . S
C1504 C1503 1.382 . S
C1505 C1489 1.411 . S
C1505 C1503 1.403 . S
C1505 C1506 1.489 . S
C1506 C1505 1.489 . S
C1506 C1507 1.383 . S
C1506 C1511 1.382 . S
C1507 H1478 0.950 . S
C1507 C1506 1.383 . S
C1507 C1508 1.395 . S
C1508 H1479 0.950 . S
C1508 C1507 1.395 . S
C1508 C1509 1.288 . S
C1509 C1508 1.288 . S
C1509 C1510 1.392 . S
C1510 H1480 0.951 . S
C1510 C1509 1.392 . S
C1510 C1511 1.392 . S
C1511 H1481 0.949 . S
C1511 C1506 1.382 . S
C1511 C1510 1.392 . S
C1512 C1513 1.391 1_455 S
C1512 C1514 1.394 . S
C1512 H1528 0.931 . S
C1513 C1512 1.391 1_655 S
C1513 C1517 1.376 . S
C1514 C1512 1.394 . S
C1514 C1515 1.369 1_455 S
C1514 C1518 1.531 . S
C1515 C1514 1.369 1_655 S
C1515 C1516 1.410 . S
C1515 C1523 1.503 . S
C1516 C1515 1.410 . S
C1516 C1517 1.392 . S
C1516 C1519 1.511 . S
C1517 C1513 1.376 . S
C1517 C1516 1.392 . S
C1517 H1529 0.929 . S
C1518 C1514 1.531 . S
C1518 H1530 0.960 . S
C1518 H1531 0.962 . S
C1518 H1532 0.960 . S
C1519 C1516 1.511 . S
C1519 H1533 0.961 . S
C1519 H1534 0.961 . S
C1519 H1535 0.961 . S
C1520 C1521 1.370 . S
C1520 C1522 1.363 . S
C1520 H1536 0.931 . S
C1521 C1520 1.370 . S
C1521 C1525 1.408 1_655 S
C1522 C1520 1.363 . S
C1522 C1523 1.370 . S
C1522 C1526 1.524 . S
C1523 C1515 1.503 . S
C1523 C1522 1.370 . S
C1523 C1524 1.403 1_655 S
C1524 C1523 1.403 1_455 S
C1524 C1525 1.404 . S
C1524 C1527 1.539 . S
C1525 C1521 1.408 1_455 S
C1525 C1524 1.404 . S
C1525 H1537 0.930 . S
C1526 C1522 1.524 . S
C1526 H1538 0.956 . S
C1526 H1539 0.961 . S
C1526 H1540 0.961 . S
C1527 C1524 1.539 . S
C1527 H1541 0.958 . S
C1527 H1542 0.961 . S
C1527 H1543 0.960 . S
H1528 C1512 0.931 . S
H1529 C1517 0.929 . S
H1530 C1518 0.960 . S
H1531 C1518 0.962 . S
H1532 C1518 0.960 . S
H1533 C1519 0.961 . S
H1534 C1519 0.961 . S
H1535 C1519 0.961 . S
H1536 C1520 0.931 . S
H1537 C1525 0.930 . S
H1538 C1526 0.956 . S
H1539 C1526 0.961 . S
H1540 C1526 0.961 . S
H1541 C1527 0.958 . S
H1542 C1527 0.961 . S
H1543 C1527 0.960 . S
C1544 C1545 1.391 . S
C1544 C1546 1.394 . S
C1544 H1560 0.931 . S
C1545 C1544 1.391 . S
C1545 C1549 1.376 . S
C1546 C1544 1.394 . S
C1546 C1547 1.369 . S
C1546 C1550 1.531 . S
C1547 C1546 1.369 . S
C1547 C1548 1.410 . S
C1547 C1555 1.503 . S
C1548 C1547 1.410 . S
C1548 C1549 1.392 . S
C1548 C1551 1.511 . S
C1549 C1545 1.376 . S
C1549 C1548 1.392 . S
C1549 H1561 0.929 . S
C1550 C1546 1.531 . S
C1550 H1562 0.960 . S
C1550 H1563 0.962 . S
C1550 H1564 0.960 . S
C1551 C1548 1.511 . S
C1551 H1565 0.961 . S
C1551 H1566 0.961 . S
C1551 H1567 0.961 . S
C1552 C1553 1.370 . S
C1552 C1554 1.363 . S
C1552 H1568 0.931 . S
C1553 C1552 1.370 . S
C1553 C1557 1.408 . S
C1554 C1552 1.363 . S
C1554 C1555 1.370 . S
C1554 C1558 1.524 . S
C1555 C1547 1.503 . S
C1555 C1554 1.370 . S
C1555 C1556 1.403 . S
C1556 C1555 1.403 . S
C1556 C1557 1.404 . S
C1556 C1559 1.539 . S
C1557 C1553 1.408 . S
C1557 C1556 1.404 . S
C1557 H1569 0.930 . S
C1558 C1554 1.524 . S
C1558 H1570 0.956 . S
C1558 H1571 0.961 . S
C1558 H1572 0.961 . S
C1559 C1556 1.539 . S
C1559 H1573 0.958 . S
C1559 H1574 0.961 . S
C1559 H1575 0.960 . S
H1560 C1544 0.931 . S
H1561 C1549 0.929 . S
H1562 C1550 0.960 . S
H1563 C1550 0.962 . S
H1564 C1550 0.960 . S
H1565 C1551 0.961 . S
H1566 C1551 0.961 . S
H1567 C1551 0.961 . S
H1568 C1552 0.931 . S
H1569 C1557 0.930 . S
H1570 C1558 0.956 . S
H1571 C1558 0.961 . S
H1572 C1558 0.961 . S
H1573 C1559 0.958 . S
H1574 C1559 0.961 . S
H1575 C1559 0.960 . S
C1576 C1577 1.391 . S
C1576 C1578 1.394 . S
C1576 H1592 0.931 . S
C1577 C1576 1.391 . S
C1577 C1581 1.376 . S
C1578 C1576 1.394 . S
C1578 C1579 1.369 . S
C1578 C1582 1.531 . S
C1579 C1578 1.369 . S
C1579 C1580 1.410 . S
C1579 C1587 1.503 . S
C1580 C1579 1.410 . S
C1580 C1581 1.392 . S
C1580 C1583 1.511 . S
C1581 C1577 1.376 . S
C1581 C1580 1.392 . S
C1581 H1593 0.929 . S
C1582 C1578 1.531 . S
C1582 H1594 0.960 . S
C1582 H1595 0.962 . S
C1582 H1596 0.960 . S
C1583 C1580 1.511 . S
C1583 H1597 0.961 1_545 S
C1583 H1598 0.961 1_545 S
C1583 H1599 0.961 . S
C1584 C1585 1.370 1_565 S
C1584 C1586 1.363 . S
C1584 H1600 0.931 . S
C1585 C1584 1.370 1_545 S
C1585 C1589 1.408 . S
C1586 C1584 1.363 . S
C1586 C1587 1.370 1_565 S
C1586 C1590 1.524 . S
C1587 C1579 1.503 . S
C1587 C1586 1.370 1_545 S
C1587 C1588 1.403 . S
C1588 C1587 1.403 . S
C1588 C1589 1.404 . S
C1588 C1591 1.539 . S
C1589 C1585 1.408 . S
C1589 C1588 1.404 . S
C1589 H1601 0.930 . S
C1590 C1586 1.524 . S
C1590 H1602 0.956 . S
C1590 H1603 0.961 . S
C1590 H1604 0.961 . S
C1591 C1588 1.539 . S
C1591 H1605 0.958 . S
C1591 H1606 0.961 . S
C1591 H1607 0.960 . S
H1592 C1576 0.931 . S
H1593 C1581 0.929 . S
H1594 C1582 0.960 . S
H1595 C1582 0.962 . S
H1596 C1582 0.960 . S
H1597 C1583 0.961 1_565 S
H1598 C1583 0.961 1_565 S
H1599 C1583 0.961 . S
H1600 C1584 0.931 . S
H1601 C1589 0.930 . S
H1602 C1590 0.956 . S
H1603 C1590 0.961 . S
H1604 C1590 0.961 . S
H1605 C1591 0.958 . S
H1606 C1591 0.961 . S
H1607 C1591 0.960 . S
C1608 C1609 1.391 . S
C1608 C1610 1.394 . S
C1608 H1624 0.931 . S
C1609 C1608 1.391 . S
C1609 C1613 1.376 . S
C1610 C1608 1.394 . S
C1610 C1611 1.369 . S
C1610 C1614 1.531 . S
C1611 C1610 1.369 . S
C1611 C1612 1.410 . S
C1611 C1619 1.503 . S
C1612 C1611 1.410 . S
C1612 C1613 1.392 . S
C1612 C1615 1.511 . S
C1613 C1609 1.376 . S
C1613 C1612 1.392 . S
C1613 H1625 0.929 . S
C1614 C1610 1.531 . S
C1614 H1626 0.960 . S
C1614 H1627 0.962 1_565 S
C1614 H1628 0.960 . S
C1615 C1612 1.511 . S
C1615 H1629 0.995 . S
C1615 H1630 0.961 . S
C1615 H1631 0.961 . S
C1616 C1617 1.370 1_545 S
C1616 C1618 1.363 . S
C1616 H1632 0.931 . S
C1617 C1616 1.370 1_565 S
C1617 C1621 1.408 . S
C1618 C1616 1.363 . S
C1618 C1619 1.370 1_545 S
C1618 C1622 1.524 . S
C1619 C1611 1.503 . S
C1619 C1618 1.370 1_565 S
C1619 C1620 1.403 . S
C1620 C1619 1.403 . S
C1620 C1621 1.404 . S
C1620 C1623 1.539 . S
C1621 C1617 1.408 . S
C1621 C1620 1.404 . S
C1621 H1633 0.930 . S
C1622 C1618 1.524 . S
C1622 H1634 0.956 . S
C1622 H1635 0.961 . S
C1622 H1636 0.961 . S
C1623 C1620 1.539 . S
C1623 H1637 0.958 . S
C1623 H1638 0.961 . S
C1623 H1639 0.960 . S
H1624 C1608 0.931 . S
H1625 C1613 0.929 . S
H1626 C1614 0.960 . S
H1627 C1614 0.962 1_545 S
H1628 C1614 0.960 . S
H1629 C1615 0.995 . S
H1630 C1615 0.961 . S
H1631 C1615 0.961 . S
H1632 C1616 0.931 . S
H1633 C1621 0.930 . S
H1634 C1622 0.956 . S
H1635 C1622 0.961 . S
H1636 C1622 0.961 . S
H1637 C1623 0.958 . S
H1638 C1623 0.961 . S
H1639 C1623 0.960 . S
C1640 C1641 1.391 . S
C1640 C1642 1.394 . S
C1640 H1656 0.931 . S
C1641 C1640 1.391 . S
C1641 C1645 1.376 1_455 S
C1642 C1640 1.394 . S
C1642 C1643 1.369 . S
C1642 C1646 1.531 . S
C1643 C1642 1.369 . S
C1643 C1644 1.410 1_455 S
C1643 C1651 1.503 . S
C1644 C1643 1.410 1_655 S
C1644 C1645 1.392 . S
C1644 C1647 1.511 . S
C1645 C1641 1.376 1_655 S
C1645 C1644 1.392 . S
C1645 H1657 0.929 . S
C1646 C1642 1.531 . S
C1646 H1658 0.960 . S
C1646 H1659 0.962 . S
C1646 H1660 0.960 . S
C1647 C1644 1.511 . S
C1647 H1661 0.961 . S
C1647 H1662 0.961 . S
C1647 H1663 0.961 . S
C1648 C1649 1.370 . S
C1648 C1650 1.363 . S
C1648 H1664 0.931 . S
C1649 C1648 1.370 . S
C1649 C1653 1.429 1_455 S
C1650 C1648 1.363 . S
C1650 C1651 1.370 . S
C1650 C1654 1.524 . S
C1651 C1643 1.503 . S
C1651 C1650 1.370 . S
C1651 C1652 1.399 1_455 S
C1652 C1651 1.399 1_655 S
C1652 C1653 1.383 . S
C1652 C1655 1.535 . S
C1653 C1649 1.429 1_655 S
C1653 C1652 1.383 . S
C1653 H1665 0.946 . S
C1654 C1650 1.524 . S
C1654 H1666 0.956 . S
C1654 H1667 0.961 . S
C1654 H1668 0.961 . S
C1655 C1652 1.535 . S
C1655 H1669 0.958 1_655 S
C1655 H1670 0.961 . S
C1655 H1671 0.960 . S
H1656 C1640 0.931 . S
H1657 C1645 0.929 . S
H1658 C1646 0.960 . S
H1659 C1646 0.962 . S
H1660 C1646 0.960 . S
H1661 C1647 0.961 . S
H1662 C1647 0.961 . S
H1663 C1647 0.961 . S
H1664 C1648 0.931 . S
H1665 C1653 0.946 . S
H1666 C1654 0.956 . S
H1667 C1654 0.961 . S
H1668 C1654 0.961 . S
H1669 C1655 0.958 1_455 S
H1670 C1655 0.961 . S
H1671 C1655 0.960 . S
C1672 C1673 1.391 . S
C1672 C1674 1.394 . S
C1672 H1688 0.931 . S
C1673 C1672 1.391 . S
C1673 C1677 1.376 . S
C1674 C1672 1.394 . S
C1674 C1675 1.369 . S
C1674 C1678 1.531 . S
C1675 C1674 1.369 . S
C1675 C1676 1.410 . S
C1675 C1683 1.503 . S
C1676 C1675 1.410 . S
C1676 C1677 1.392 . S
C1676 C1679 1.511 . S
C1677 C1673 1.376 . S
C1677 C1676 1.392 . S
C1677 H1689 0.929 . S
C1678 C1674 1.531 . S
C1678 H1690 0.960 . S
C1678 H1691 0.962 . S
C1678 H1692 0.960 . S
C1679 C1676 1.511 . S
C1679 H1693 0.961 . S
C1679 H1694 0.961 . S
C1679 H1695 0.961 . S
C1680 C1681 1.370 . S
C1680 C1682 1.363 . S
C1680 H1696 0.931 . S
C1681 C1680 1.370 . S
C1681 C1685 1.408 . S
C1682 C1680 1.363 . S
C1682 C1683 1.370 . S
C1682 C1686 1.524 . S
C1683 C1675 1.503 . S
C1683 C1682 1.370 . S
C1683 C1684 1.403 . S
C1684 C1683 1.403 . S
C1684 C1685 1.404 . S
C1684 C1687 1.539 . S
C1685 C1681 1.408 . S
C1685 C1684 1.404 . S
C1685 H1697 0.930 . S
C1686 C1682 1.524 . S
C1686 H1698 0.956 . S
C1686 H1699 0.961 . S
C1686 H1700 0.961 . S
C1687 C1684 1.539 . S
C1687 H1701 0.958 . S
C1687 H1702 0.961 . S
C1687 H1703 0.960 . S
H1688 C1672 0.931 . S
H1689 C1677 0.929 . S
H1690 C1678 0.960 . S
H1691 C1678 0.962 . S
H1692 C1678 0.960 . S
H1693 C1679 0.961 . S
H1694 C1679 0.961 . S
H1695 C1679 0.961 . S
H1696 C1680 0.931 . S
H1697 C1685 0.930 . S
H1698 C1686 0.956 . S
H1699 C1686 0.961 . S
H1700 C1686 0.961 . S
H1701 C1687 0.958 . S
H1702 C1687 0.961 . S
H1703 C1687 0.960 . S
C1704 C1705 1.391 . S
C1704 C1706 1.394 . S
C1704 H1720 0.931 . S
C1705 C1704 1.391 . S
C1705 C1709 1.376 1_455 S
C1706 C1704 1.394 . S
C1706 C1707 1.369 . S
C1706 C1710 1.531 . S
C1707 C1706 1.369 . S
C1707 C1708 1.410 1_455 S
C1707 C1715 1.503 . S
C1708 C1707 1.410 1_655 S
C1708 C1709 1.392 . S
C1708 C1711 1.511 . S
C1709 C1705 1.376 1_655 S
C1709 C1708 1.392 . S
C1709 H1721 0.929 . S
C1710 C1706 1.531 . S
C1710 H1722 0.960 . S
C1710 H1723 0.962 . S
C1710 H1724 0.960 . S
C1711 C1708 1.511 . S
C1711 H1725 0.961 . S
C1711 H1726 0.961 . S
C1711 H1727 0.961 . S
C1712 C1713 1.370 . S
C1712 C1714 1.363 . S
C1712 H1728 0.931 . S
C1713 C1712 1.370 . S
C1713 C1717 1.409 . S
C1714 C1712 1.363 . S
C1714 C1715 1.370 . S
C1714 C1718 1.524 . S
C1715 C1707 1.503 . S
C1715 C1714 1.370 . S
C1715 C1716 1.390 . S
C1716 C1715 1.390 . S
C1716 C1717 1.415 . S
C1716 C1719 1.536 1_455 S
C1717 C1713 1.409 . S
C1717 C1716 1.415 . S
C1717 H1729 0.933 1_455 S
C1718 C1714 1.524 . S
C1718 H1730 0.956 . S
C1718 H1731 0.961 . S
C1718 H1732 0.961 . S
C1719 C1716 1.536 1_655 S
C1719 H1733 0.958 1_655 S
C1719 H1734 0.961 . S
C1719 H1735 0.960 . S
H1720 C1704 0.931 . S
H1721 C1709 0.929 . S
H1722 C1710 0.960 . S
H1723 C1710 0.962 . S
H1724 C1710 0.960 . S
H1725 C1711 0.961 . S
H1726 C1711 0.961 . S
H1727 C1711 0.961 . S
H1728 C1712 0.931 . S
H1729 C1717 0.933 1_655 S
H1730 C1718 0.956 . S
H1731 C1718 0.961 . S
H1732 C1718 0.961 . S
H1733 C1719 0.958 1_455 S
H1734 C1719 0.961 . S
H1735 C1719 0.960 . S
C1736 C1737 1.391 . S
C1736 C1738 1.394 . S
C1736 H1752 0.931 . S
C1737 C1736 1.391 . S
C1737 C1741 1.376 . S
C1738 C1736 1.394 . S
C1738 C1739 1.369 . S
C1738 C1742 1.531 . S
C1739 C1738 1.369 . S
C1739 C1740 1.410 . S
C1739 C1747 1.503 . S
C1740 C1739 1.410 . S
C1740 C1741 1.392 . S
C1740 C1743 1.511 . S
C1741 C1737 1.376 . S
C1741 C1740 1.392 . S
C1741 H1753 0.929 . S
C1742 C1738 1.531 . S
C1742 H1754 0.960 . S
C1742 H1755 0.962 . S
C1742 H1756 0.960 . S
C1743 C1740 1.511 . S
C1743 H1757 0.961 . S
C1743 H1758 0.961 . S
C1743 H1759 0.961 . S
C1744 C1745 1.370 . S
C1744 C1746 1.363 . S
C1744 H1760 0.931 . S
C1745 C1744 1.370 . S
C1745 C1749 1.408 . S
C1746 C1744 1.363 . S
C1746 C1747 1.370 . S
C1746 C1750 1.524 . S
C1747 C1739 1.503 . S
C1747 C1746 1.370 . S
C1747 C1748 1.403 . S
C1748 C1747 1.403 . S
C1748 C1749 1.404 . S
C1748 C1751 1.539 . S
C1749 C1745 1.408 . S
C1749 C1748 1.404 . S
C1749 H1761 0.930 . S
C1750 C1746 1.524 . S
C1750 H1762 0.956 . S
C1750 H1763 0.961 . S
C1750 H1764 0.961 . S
C1751 C1748 1.539 . S
C1751 H1765 0.958 . S
C1751 H1766 0.961 . S
C1751 H1767 0.960 . S
H1752 C1736 0.931 . S
H1753 C1741 0.929 . S
H1754 C1742 0.960 . S
H1755 C1742 0.962 . S
H1756 C1742 0.960 . S
H1757 C1743 0.961 . S
H1758 C1743 0.961 . S
H1759 C1743 0.961 . S
H1760 C1744 0.931 . S
H1761 C1749 0.930 . S
H1762 C1750 0.956 . S
H1763 C1750 0.961 . S
H1764 C1750 0.961 . S
H1765 C1751 0.958 . S
H1766 C1751 0.961 . S
H1767 C1751 0.960 . S
C1768 C1769 1.391 1_545 S
C1768 C1770 1.394 . S
C1768 H1784 0.931 . S
C1769 C1768 1.391 1_565 S
C1769 C1773 1.376 . S
C1770 C1768 1.394 . S
C1770 C1771 1.369 1_545 S
C1770 C1774 1.531 . S
C1771 C1770 1.369 1_565 S
C1771 C1772 1.410 . S
C1771 C1779 1.503 . S
C1772 C1771 1.410 . S
C1772 C1773 1.392 . S
C1772 C1775 1.511 . S
C1773 C1769 1.376 . S
C1773 C1772 1.392 . S
C1773 H1785 0.929 . S
C1774 C1770 1.531 . S
C1774 H1786 0.960 . S
C1774 H1787 0.962 . S
C1774 H1788 0.960 . S
C1775 C1772 1.511 . S
C1775 H1789 0.961 . S
C1775 H1790 0.961 . S
C1775 H1791 0.961 . S
C1776 C1777 1.370 1_545 S
C1776 C1778 1.363 . S
C1776 H1792 0.931 . S
C1777 C1776 1.370 1_565 S
C1777 C1781 1.408 . S
C1778 C1776 1.363 . S
C1778 C1779 1.370 1_545 S
C1778 C1782 1.524 . S
C1779 C1771 1.503 . S
C1779 C1778 1.370 1_565 S
C1779 C1780 1.403 . S
C1780 C1779 1.403 . S
C1780 C1781 1.404 . S
C1780 C1783 1.539 . S
C1781 C1777 1.408 . S
C1781 C1780 1.404 . S
C1781 H1793 0.930 . S
C1782 C1778 1.524 . S
C1782 H1794 0.956 . S
C1782 H1795 0.961 . S
C1782 H1796 0.961 . S
C1783 C1780 1.539 . S
C1783 H1797 0.958 . S
C1783 H1798 0.961 . S
C1783 H1799 0.960 . S
H1784 C1768 0.931 . S
H1785 C1773 0.929 . S
H1786 C1774 0.960 . S
H1787 C1774 0.962 . S
H1788 C1774 0.960 . S
H1789 C1775 0.961 . S
H1790 C1775 0.961 . S
H1791 C1775 0.961 . S
H1792 C1776 0.931 . S
H1793 C1781 0.930 . S
H1794 C1782 0.956 . S
H1795 C1782 0.961 . S
H1796 C1782 0.961 . S
H1797 C1783 0.958 . S
H1798 C1783 0.961 . S
H1799 C1783 0.960 . S
C1800 C1801 1.415 . S
C1800 C1802 1.415 . S
C1800 H1816 0.888 1_545 S
C1801 C1800 1.415 . S
C1801 C1805 1.376 . S
C1802 C1800 1.415 . S
C1802 C1803 1.369 . S
C1802 C1806 1.531 1_545 S
C1803 C1802 1.369 . S
C1803 C1804 1.410 . S
C1803 C1811 1.503 . S
C1804 C1803 1.410 . S
C1804 C1805 1.392 . S
C1804 C1807 1.511 . S
C1805 C1801 1.376 . S
C1805 C1804 1.392 . S
C1805 H1817 0.929 . S
C1806 C1802 1.531 1_565 S
C1806 H1818 0.960 . S
C1806 H1819 0.962 . S
C1806 H1820 0.960 . S
C1807 C1804 1.511 . S
C1807 H1821 0.961 . S
C1807 H1822 0.961 . S
C1807 H1823 0.961 . S
C1808 C1809 1.370 1_565 S
C1808 C1810 1.363 . S
C1808 H1824 0.931 . S
C1809 C1808 1.370 1_545 S
C1809 C1813 1.408 . S
C1810 C1808 1.363 . S
C1810 C1811 1.370 1_565 S
C1810 C1814 1.524 . S
C1811 C1803 1.503 . S
C1811 C1810 1.370 1_545 S
C1811 C1812 1.403 . S
C1812 C1811 1.403 . S
C1812 C1813 1.404 . S
C1812 C1815 1.539 . S
C1813 C1809 1.408 . S
C1813 C1812 1.404 . S
C1813 H1825 0.930 . S
C1814 C1810 1.524 . S
C1814 H1826 0.956 . S
C1814 H1827 0.961 . S
C1814 H1828 0.961 . S
C1815 C1812 1.539 . S
C1815 H1829 0.958 . S
C1815 H1830 0.961 . S
C1815 H1831 0.960 . S
H1816 C1800 0.888 1_565 S
H1817 C1805 0.929 . S
H1818 C1806 0.960 . S
H1819 C1806 0.962 . S
H1820 C1806 0.960 . S
H1821 C1807 0.961 . S
H1822 C1807 0.961 . S
H1823 C1807 0.961 . S
H1824 C1808 0.931 . S
H1825 C1813 0.930 . S
H1826 C1814 0.956 . S
H1827 C1814 0.961 . S
H1828 C1814 0.961 . S
H1829 C1815 0.958 . S
H1830 C1815 0.961 . S
H1831 C1815 0.960 . S
C1832 C1833 1.391 . S
C1832 C1834 1.394 . S
C1832 H1848 0.931 . S
C1833 C1832 1.391 . S
C1833 C1837 1.376 1_655 S
C1834 C1832 1.394 . S
C1834 C1835 1.369 . S
C1834 C1838 1.531 . S
C1835 C1834 1.369 . S
C1835 C1836 1.410 1_655 S
C1835 C1843 1.503 . S
C1836 C1835 1.410 1_455 S
C1836 C1837 1.392 . S
C1836 C1839 1.511 . S
C1837 C1833 1.376 1_455 S
C1837 C1836 1.392 . S
C1837 H1849 0.929 . S
C1838 C1834 1.531 . S
C1838 H1850 0.960 . S
C1838 H1851 0.962 . S
C1838 H1852 0.960 . S
C1839 C1836 1.511 . S
C1839 H1853 0.961 . S
C1839 H1854 0.961 . S
C1839 H1855 0.961 . S
C1840 C1841 1.370 . S
C1840 C1842 1.363 . S
C1840 H1856 0.931 . S
C1841 C1840 1.370 . S
C1841 C1845 1.408 . S
C1842 C1840 1.363 . S
C1842 C1843 1.370 . S
C1842 C1846 1.524 . S
C1843 C1835 1.503 . S
C1843 C1842 1.370 . S
C1843 C1844 1.403 . S
C1844 C1843 1.403 . S
C1844 C1845 1.404 . S
C1844 C1847 1.539 . S
C1845 C1841 1.408 . S
C1845 C1844 1.404 . S
C1845 H1857 0.930 . S
C1846 C1842 1.524 . S
C1846 H1858 0.956 . S
C1846 H1859 0.961 1_655 S
C1846 H1860 0.961 . S
C1847 C1844 1.539 . S
C1847 H1861 0.958 . S
C1847 H1862 0.961 1_655 S
C1847 H1863 0.960 1_655 S
H1848 C1832 0.931 . S
H1849 C1837 0.929 . S
H1850 C1838 0.960 . S
H1851 C1838 0.962 . S
H1852 C1838 0.960 . S
H1853 C1839 0.961 . S
H1854 C1839 0.961 . S
H1855 C1839 0.961 . S
H1856 C1840 0.931 . S
H1857 C1845 0.930 . S
H1858 C1846 0.956 . S
H1859 C1846 0.961 1_455 S
H1860 C1846 0.961 . S
H1861 C1847 0.958 . S
H1862 C1847 0.961 1_455 S
H1863 C1847 0.960 1_455 S
C1864 C1865 1.391 . S
C1864 C1866 1.394 . S
C1864 H1880 0.931 . S
C1865 C1864 1.391 . S
C1865 C1869 1.376 . S
C1866 C1864 1.394 . S
C1866 C1867 1.369 . S
C1866 C1870 1.531 . S
C1867 C1866 1.369 . S
C1867 C1868 1.410 . S
C1867 C1875 1.503 . S
C1868 C1867 1.410 . S
C1868 C1869 1.392 . S
C1868 C1871 1.511 . S
C1869 C1865 1.376 . S
C1869 C1868 1.392 . S
C1869 H1881 0.929 . S
C1870 C1866 1.531 . S
C1870 H1882 0.960 . S
C1870 H1883 0.962 . S
C1870 H1884 0.960 . S
C1871 C1868 1.511 . S
C1871 H1885 0.961 . S
C1871 H1886 0.961 . S
C1871 H1887 0.961 . S
C1872 C1873 1.370 . S
C1872 C1874 1.363 . S
C1872 H1888 0.931 . S
C1873 C1872 1.370 . S
C1873 C1877 1.408 . S
C1874 C1872 1.363 . S
C1874 C1875 1.370 . S
C1874 C1878 1.524 . S
C1875 C1867 1.503 . S
C1875 C1874 1.370 . S
C1875 C1876 1.403 . S
C1876 C1875 1.403 . S
C1876 C1877 1.404 . S
C1876 C1879 1.539 . S
C1877 C1873 1.408 . S
C1877 C1876 1.404 . S
C1877 H1889 0.930 . S
C1878 C1874 1.524 . S
C1878 H1890 0.956 . S
C1878 H1891 0.961 . S
C1878 H1892 0.961 . S
C1879 C1876 1.539 . S
C1879 H1893 0.958 . S
C1879 H1894 0.961 . S
C1879 H1895 0.960 . S
H1880 C1864 0.931 . S
H1881 C1869 0.929 . S
H1882 C1870 0.960 . S
H1883 C1870 0.962 . S
H1884 C1870 0.960 . S
H1885 C1871 0.961 . S
H1886 C1871 0.961 . S
H1887 C1871 0.961 . S
H1888 C1872 0.931 . S
H1889 C1877 0.930 . S
H1890 C1878 0.956 . S
H1891 C1878 0.961 . S
H1892 C1878 0.961 . S
H1893 C1879 0.958 . S
H1894 C1879 0.961 . S
H1895 C1879 0.960 . S
C1896 C1897 1.391 . S
C1896 C1898 1.394 . S
C1896 H1912 0.931 . S
C1897 C1896 1.391 . S
C1897 C1901 1.376 . S
C1898 C1896 1.394 . S
C1898 C1899 1.369 . S
C1898 C1902 1.531 . S
C1899 C1898 1.369 . S
C1899 C1900 1.410 . S
C1899 C1907 1.503 . S
C1900 C1899 1.410 . S
C1900 C1901 1.392 . S
C1900 C1903 1.511 . S
C1901 C1897 1.376 . S
C1901 C1900 1.392 . S
C1901 H1913 0.929 . S
C1902 C1898 1.531 . S
C1902 H1914 0.960 . S
C1902 H1915 0.962 . S
C1902 H1916 0.960 . S
C1903 C1900 1.511 . S
C1903 H1917 0.961 . S
C1903 H1918 0.961 . S
C1903 H1919 0.961 . S
C1904 C1905 1.370 . S
C1904 C1906 1.363 . S
C1904 H1920 0.931 . S
C1905 C1904 1.370 . S
C1905 C1909 1.408 . S
C1906 C1904 1.363 . S
C1906 C1907 1.370 . S
C1906 C1910 1.524 . S
C1907 C1899 1.503 . S
C1907 C1906 1.370 . S
C1907 C1908 1.403 . S
C1908 C1907 1.403 . S
C1908 C1909 1.404 . S
C1908 C1911 1.539 . S
C1909 C1905 1.408 . S
C1909 C1908 1.404 . S
C1909 H1921 0.930 . S
C1910 C1906 1.524 . S
C1910 H1922 0.956 . S
C1910 H1923 0.961 . S
C1910 H1924 0.961 . S
C1911 C1908 1.539 . S
C1911 H1925 0.958 . S
C1911 H1926 0.961 . S
C1911 H1927 0.960 . S
H1912 C1896 0.931 . S
H1913 C1901 0.929 . S
H1914 C1902 0.960 . S
H1915 C1902 0.962 . S
H1916 C1902 0.960 . S
H1917 C1903 0.961 . S
H1918 C1903 0.961 . S
H1919 C1903 0.961 . S
H1920 C1904 0.931 . S
H1921 C1909 0.930 . S
H1922 C1910 0.956 . S
H1923 C1910 0.961 . S
H1924 C1910 0.961 . S
H1925 C1911 0.958 . S
H1926 C1911 0.961 . S
H1927 C1911 0.960 . S
C1928 C1929 1.391 . S
C1928 C1930 1.394 . S
C1928 H1944 0.931 . S
C1929 C1928 1.391 . S
C1929 C1933 1.376 . S
C1930 C1928 1.394 . S
C1930 C1931 1.369 . S
C1930 C1934 1.531 . S
C1931 C1930 1.369 . S
C1931 C1932 1.410 . S
C1931 C1939 1.503 . S
C1932 C1931 1.410 . S
C1932 C1933 1.392 . S
C1932 C1935 1.511 . S
C1933 C1929 1.376 . S
C1933 C1932 1.392 . S
C1933 H1945 0.929 . S
C1934 C1930 1.531 . S
C1934 H1946 0.960 . S
C1934 H1947 0.962 . S
C1934 H1948 0.960 . S
C1935 C1932 1.511 . S
C1935 H1949 0.961 . S
C1935 H1950 0.961 . S
C1935 H1951 0.961 . S
C1936 C1937 1.370 . S
C1936 C1938 1.363 . S
C1936 H1952 0.931 . S
C1937 C1936 1.370 . S
C1937 C1941 1.408 . S
C1938 C1936 1.363 . S
C1938 C1939 1.370 . S
C1938 C1942 1.524 . S
C1939 C1931 1.503 . S
C1939 C1938 1.370 . S
C1939 C1940 1.403 . S
C1940 C1939 1.403 . S
C1940 C1941 1.404 . S
C1940 C1943 1.539 . S
C1941 C1937 1.408 . S
C1941 C1940 1.404 . S
C1941 H1953 0.930 . S
C1942 C1938 1.524 . S
C1942 H1954 0.956 . S
C1942 H1955 0.961 . S
C1942 H1956 0.961 . S
C1943 C1940 1.539 . S
C1943 H1957 0.958 . S
C1943 H1958 0.961 . S
C1943 H1959 0.960 . S
H1944 C1928 0.931 . S
H1945 C1933 0.929 . S
H1946 C1934 0.960 . S
H1947 C1934 0.962 . S
H1948 C1934 0.960 . S
H1949 C1935 0.961 . S
H1950 C1935 0.961 . S
H1951 C1935 0.961 . S
H1952 C1936 0.931 . S
H1953 C1941 0.930 . S
H1954 C1942 0.956 . S
H1955 C1942 0.961 . S
H1956 C1942 0.961 . S
H1957 C1943 0.958 . S
H1958 C1943 0.961 . S
H1959 C1943 0.960 . S
C1960 C1961 1.391 . S
C1960 C1962 1.394 . S
C1960 H1976 0.931 . S
C1961 C1960 1.391 . S
C1961 C1965 1.376 . S
C1962 C1960 1.394 . S
C1962 C1963 1.369 . S
C1962 C1966 1.531 . S
C1963 C1962 1.369 . S
C1963 C1964 1.410 . S
C1963 C1971 1.503 . S
C1964 C1963 1.410 . S
C1964 C1965 1.392 . S
C1964 C1967 1.511 . S
C1965 C1961 1.376 . S
C1965 C1964 1.392 . S
C1965 H1977 0.929 . S
C1966 C1962 1.531 . S
C1966 H1978 0.960 . S
C1966 H1979 0.962 . S
C1966 H1980 0.960 . S
C1967 C1964 1.511 . S
C1967 H1981 0.961 . S
C1967 H1982 0.961 . S
C1967 H1983 0.961 . S
C1968 C1969 1.370 . S
C1968 C1970 1.363 . S
C1968 H1984 0.931 . S
C1969 C1968 1.370 . S
C1969 C1973 1.408 . S
C1970 C1968 1.363 . S
C1970 C1971 1.370 . S
C1970 C1974 1.524 . S
C1971 C1963 1.503 . S
C1971 C1970 1.370 . S
C1971 C1972 1.403 . S
C1972 C1971 1.403 . S
C1972 C1973 1.404 . S
C1972 C1975 1.539 . S
C1973 C1969 1.408 . S
C1973 C1972 1.404 . S
C1973 H1985 0.930 . S
C1974 C1970 1.524 . S
C1974 H1986 0.956 . S
C1974 H1987 0.961 . S
C1974 H1988 0.961 . S
C1975 C1972 1.539 . S
C1975 H1989 0.958 . S
C1975 H1990 0.961 . S
C1975 H1991 0.960 . S
H1976 C1960 0.931 . S
H1977 C1965 0.929 . S
H1978 C1966 0.960 . S
H1979 C1966 0.962 . S
H1980 C1966 0.960 . S
H1981 C1967 0.961 . S
H1982 C1967 0.961 . S
H1983 C1967 0.961 . S
H1984 C1968 0.931 . S
H1985 C1973 0.930 . S
H1986 C1974 0.956 . S
H1987 C1974 0.961 . S
H1988 C1974 0.961 . S
H1989 C1975 0.958 . S
H1990 C1975 0.961 . S
H1991 C1975 0.960 . S
C1992 C1993 1.391 . S
C1992 C1994 1.394 . S
C1992 H2008 0.931 . S
C1993 C1992 1.391 . S
C1993 C1997 1.376 . S
C1994 C1992 1.394 . S
C1994 C1995 1.369 . S
C1994 C1998 1.531 . S
C1995 C1994 1.369 . S
C1995 C1996 1.410 . S
C1995 C2003 1.503 . S
C1996 C1995 1.410 . S
C1996 C1997 1.392 . S
C1996 C1999 1.511 . S
C1997 C1993 1.376 . S
C1997 C1996 1.392 . S
C1997 H2009 0.929 . S
C1998 C1994 1.531 . S
C1998 H2010 0.960 . S
C1998 H2011 0.962 . S
C1998 H2012 0.960 . S
C1999 C1996 1.511 . S
C1999 H2013 0.961 . S
C1999 H2014 0.961 . S
C1999 H2015 0.961 . S
C2000 C2001 1.370 . S
C2000 C2002 1.363 . S
C2000 H2016 0.931 . S
C2001 C2000 1.370 . S
C2001 C2005 1.408 . S
C2002 C2000 1.363 . S
C2002 C2003 1.370 . S
C2002 C2006 1.524 . S
C2003 C1995 1.503 . S
C2003 C2002 1.370 . S
C2003 C2004 1.403 . S
C2004 C2003 1.403 . S
C2004 C2005 1.404 . S
C2004 C2007 1.539 . S
C2005 C2001 1.408 . S
C2005 C2004 1.404 . S
C2005 H2017 0.930 . S
C2006 C2002 1.524 . S
C2006 H2018 0.956 . S
C2006 H2019 0.961 . S
C2006 H2020 0.961 . S
C2007 C2004 1.539 . S
C2007 H2021 0.958 . S
C2007 H2022 0.961 . S
C2007 H2023 0.960 . S
H2008 C1992 0.931 . S
H2009 C1997 0.929 . S
H2010 C1998 0.960 . S
H2011 C1998 0.962 . S
H2012 C1998 0.960 . S
H2013 C1999 0.961 . S
H2014 C1999 0.961 . S
H2015 C1999 0.961 . S
H2016 C2000 0.931 . S
H2017 C2005 0.930 . S
H2018 C2006 0.956 . S
H2019 C2006 0.961 . S
H2020 C2006 0.961 . S
H2021 C2007 0.958 . S
H2022 C2007 0.961 . S
H2023 C2007 0.960 . S
C2024 C2025 1.391 . S
C2024 C2026 1.394 . S
C2024 H2040 0.931 . S
C2025 C2024 1.391 . S
C2025 C2029 1.376 . S
C2026 C2024 1.394 . S
C2026 C2027 1.369 . S
C2026 C2030 1.531 . S
C2027 C2026 1.369 . S
C2027 C2028 1.410 . S
C2027 C2035 1.503 . S
C2028 C2027 1.410 . S
C2028 C2029 1.392 . S
C2028 C2031 1.511 . S
C2029 C2025 1.376 . S
C2029 C2028 1.392 . S
C2029 H2041 0.929 . S
C2030 C2026 1.531 . S
C2030 H2042 0.960 . S
C2030 H2043 0.962 . S
C2030 H2044 0.960 . S
C2031 C2028 1.511 . S
C2031 H2045 0.961 . S
C2031 H2046 0.961 . S
C2031 H2047 0.961 . S
C2032 C2033 1.370 . S
C2032 C2034 1.363 . S
C2032 H2048 0.931 . S
C2033 C2032 1.370 . S
C2033 C2037 1.408 . S
C2034 C2032 1.363 . S
C2034 C2035 1.370 . S
C2034 C2038 1.524 . S
C2035 C2027 1.503 . S
C2035 C2034 1.370 . S
C2035 C2036 1.403 . S
C2036 C2035 1.403 . S
C2036 C2037 1.404 . S
C2036 C2039 1.539 . S
C2037 C2033 1.408 . S
C2037 C2036 1.404 . S
C2037 H2049 0.930 . S
C2038 C2034 1.524 . S
C2038 H2050 0.956 . S
C2038 H2051 0.961 . S
C2038 H2052 0.961 . S
C2039 C2036 1.539 . S
C2039 H2053 0.958 . S
C2039 H2054 0.961 . S
C2039 H2055 0.960 . S
H2040 C2024 0.931 . S
H2041 C2029 0.929 . S
H2042 C2030 0.960 . S
H2043 C2030 0.962 . S
H2044 C2030 0.960 . S
H2045 C2031 0.961 . S
H2046 C2031 0.961 . S
H2047 C2031 0.961 . S
H2048 C2032 0.931 . S
H2049 C2037 0.930 . S
H2050 C2038 0.956 . S
H2051 C2038 0.961 . S
H2052 C2038 0.961 . S
H2053 C2039 0.958 . S
H2054 C2039 0.961 . S
H2055 C2039 0.960 . S
C2056 C2057 1.391 . S
C2056 C2058 1.394 . S
C2056 H2072 0.931 . S
C2057 C2056 1.391 . S
C2057 C2061 1.376 . S
C2058 C2056 1.394 . S
C2058 C2059 1.369 . S
C2058 C2062 1.531 . S
C2059 C2058 1.369 . S
C2059 C2060 1.410 . S
C2059 C2067 1.503 . S
C2060 C2059 1.410 . S
C2060 C2061 1.392 . S
C2060 C2063 1.511 . S
C2061 C2057 1.376 . S
C2061 C2060 1.392 . S
C2061 H2073 0.929 . S
C2062 C2058 1.531 . S
C2062 H2074 0.960 . S
C2062 H2075 0.962 . S
C2062 H2076 0.960 . S
C2063 C2060 1.511 . S
C2063 H2077 0.961 . S
C2063 H2078 0.961 . S
C2063 H2079 0.961 . S
C2064 C2065 1.370 . S
C2064 C2066 1.363 . S
C2064 H2080 0.931 . S
C2065 C2064 1.370 . S
C2065 C2069 1.408 . S
C2066 C2064 1.363 . S
C2066 C2067 1.370 . S
C2066 C2070 1.524 . S
C2067 C2059 1.503 . S
C2067 C2066 1.370 . S
C2067 C2068 1.403 . S
C2068 C2067 1.403 . S
C2068 C2069 1.404 . S
C2068 C2071 1.539 . S
C2069 C2065 1.408 . S
C2069 C2068 1.404 . S
C2069 H2081 0.930 . S
C2070 C2066 1.524 . S
C2070 H2082 0.956 . S
C2070 H2083 0.961 . S
C2070 H2084 0.961 . S
C2071 C2068 1.539 . S
C2071 H2085 0.958 . S
C2071 H2086 0.961 . S
C2071 H2087 0.960 . S
H2072 C2056 0.931 . S
H2073 C2061 0.929 . S
H2074 C2062 0.960 . S
H2075 C2062 0.962 . S
H2076 C2062 0.960 . S
H2077 C2063 0.961 . S
H2078 C2063 0.961 . S
H2079 C2063 0.961 . S
H2080 C2064 0.931 . S
H2081 C2069 0.930 . S
H2082 C2070 0.956 . S
H2083 C2070 0.961 . S
H2084 C2070 0.961 . S
H2085 C2071 0.958 . S
H2086 C2071 0.961 . S
H2087 C2071 0.960 . S
C2088 C2089 1.391 . S
C2088 C2090 1.394 . S
C2088 H2104 0.931 . S
C2089 C2088 1.391 . S
C2089 C2093 1.376 . S
C2090 C2088 1.394 . S
C2090 C2091 1.369 . S
C2090 C2094 1.531 . S
C2091 C2090 1.369 . S
C2091 C2092 1.410 . S
C2091 C2099 1.503 . S
C2092 C2091 1.410 . S
C2092 C2093 1.392 . S
C2092 C2095 1.511 . S
C2093 C2089 1.376 . S
C2093 C2092 1.392 . S
C2093 H2105 0.929 . S
C2094 C2090 1.531 . S
C2094 H2106 0.960 . S
C2094 H2107 0.962 . S
C2094 H2108 0.960 . S
C2095 C2092 1.511 . S
C2095 H2109 0.961 . S
C2095 H2110 0.961 . S
C2095 H2111 0.961 . S
C2096 C2097 1.370 . S
C2096 C2098 1.363 . S
C2096 H2112 0.931 . S
C2097 C2096 1.370 . S
C2097 C2101 1.408 . S
C2098 C2096 1.363 . S
C2098 C2099 1.370 . S
C2098 C2102 1.524 . S
C2099 C2091 1.503 . S
C2099 C2098 1.370 . S
C2099 C2100 1.403 . S
C2100 C2099 1.403 . S
C2100 C2101 1.404 . S
C2100 C2103 1.539 . S
C2101 C2097 1.408 . S
C2101 C2100 1.404 . S
C2101 H2113 0.930 . S
C2102 C2098 1.524 . S
C2102 H2114 0.956 . S
C2102 H2115 0.961 . S
C2102 H2116 0.961 . S
C2103 C2100 1.539 . S
C2103 H2117 0.958 . S
C2103 H2118 0.961 . S
C2103 H2119 0.960 . S
H2104 C2088 0.931 . S
H2105 C2093 0.929 . S
H2106 C2094 0.960 . S
H2107 C2094 0.962 . S
H2108 C2094 0.960 . S
H2109 C2095 0.961 . S
H2110 C2095 0.961 . S
H2111 C2095 0.961 . S
H2112 C2096 0.931 . S
H2113 C2101 0.930 . S
H2114 C2102 0.956 . S
H2115 C2102 0.961 . S
H2116 C2102 0.961 . S
H2117 C2103 0.958 . S
H2118 C2103 0.961 . S
H2119 C2103 0.960 . S
C2120 C2121 1.391 . S
C2120 C2122 1.394 . S
C2120 H2136 0.931 . S
C2121 C2120 1.391 . S
C2121 C2125 1.376 . S
C2122 C2120 1.394 . S
C2122 C2123 1.369 . S
C2122 C2126 1.531 . S
C2123 C2122 1.369 . S
C2123 C2124 1.410 . S
C2123 C2131 1.503 . S
C2124 C2123 1.410 . S
C2124 C2125 1.392 . S
C2124 C2127 1.511 . S
C2125 C2121 1.376 . S
C2125 C2124 1.392 . S
C2125 H2137 0.929 . S
C2126 C2122 1.531 . S
C2126 H2138 0.960 . S
C2126 H2139 0.962 . S
C2126 H2140 0.960 . S
C2127 C2124 1.511 . S
C2127 H2141 0.961 . S
C2127 H2142 0.961 . S
C2127 H2143 0.961 . S
C2128 C2129 1.370 . S
C2128 C2130 1.363 . S
C2128 H2144 0.931 . S
C2129 C2128 1.370 . S
C2129 C2133 1.408 . S
C2130 C2128 1.363 . S
C2130 C2131 1.370 . S
C2130 C2134 1.524 . S
C2131 C2123 1.503 . S
C2131 C2130 1.370 . S
C2131 C2132 1.403 . S
C2132 C2131 1.403 . S
C2132 C2133 1.404 . S
C2132 C2135 1.539 . S
C2133 C2129 1.408 . S
C2133 C2132 1.404 . S
C2133 H2145 0.930 . S
C2134 C2130 1.524 . S
C2134 H2146 0.956 . S
C2134 H2147 0.961 . S
C2134 H2148 0.961 . S
C2135 C2132 1.539 . S
C2135 H2149 0.958 . S
C2135 H2150 0.961 . S
C2135 H2151 0.960 . S
H2136 C2120 0.931 . S
H2137 C2125 0.929 . S
H2138 C2126 0.960 . S
H2139 C2126 0.962 . S
H2140 C2126 0.960 . S
H2141 C2127 0.961 . S
H2142 C2127 0.961 . S
H2143 C2127 0.961 . S
H2144 C2128 0.931 . S
H2145 C2133 0.930 . S
H2146 C2134 0.956 . S
H2147 C2134 0.961 . S
H2148 C2134 0.961 . S
H2149 C2135 0.958 . S
H2150 C2135 0.961 . S
H2151 C2135 0.960 . S
C2152 C2153 1.391 . S
C2152 C2154 1.394 . S
C2152 H2168 0.931 . S
C2153 C2152 1.391 . S
C2153 C2157 1.376 . S
C2154 C2152 1.394 . S
C2154 C2155 1.369 . S
C2154 C2158 1.531 . S
C2155 C2154 1.369 . S
C2155 C2156 1.410 . S
C2155 C2163 1.503 . S
C2156 C2155 1.410 . S
C2156 C2157 1.392 . S
C2156 C2159 1.511 . S
C2157 C2153 1.376 . S
C2157 C2156 1.392 . S
C2157 H2169 0.929 . S
C2158 C2154 1.531 . S
C2158 H2170 0.960 . S
C2158 H2171 0.962 . S
C2158 H2172 0.960 . S
C2159 C2156 1.511 . S
C2159 H2173 0.961 . S
C2159 H2174 0.961 . S
C2159 H2175 0.961 . S
C2160 C2161 1.370 . S
C2160 C2162 1.363 . S
C2160 H2176 0.931 . S
C2161 C2160 1.370 . S
C2161 C2165 1.408 . S
C2162 C2160 1.363 . S
C2162 C2163 1.370 . S
C2162 C2166 1.524 . S
C2163 C2155 1.503 . S
C2163 C2162 1.370 . S
C2163 C2164 1.403 . S
C2164 C2163 1.403 . S
C2164 C2165 1.404 . S
C2164 C2167 1.539 . S
C2165 C2161 1.408 . S
C2165 C2164 1.404 . S
C2165 H2177 0.930 . S
C2166 C2162 1.524 . S
C2166 H2178 0.956 . S
C2166 H2179 0.961 . S
C2166 H2180 0.961 . S
C2167 C2164 1.539 . S
C2167 H2181 0.958 . S
C2167 H2182 0.961 . S
C2167 H2183 0.960 . S
H2168 C2152 0.931 . S
H2169 C2157 0.929 . S
H2170 C2158 0.960 . S
H2171 C2158 0.962 . S
H2172 C2158 0.960 . S
H2173 C2159 0.961 . S
H2174 C2159 0.961 . S
H2175 C2159 0.961 . S
H2176 C2160 0.931 . S
H2177 C2165 0.930 . S
H2178 C2166 0.956 . S
H2179 C2166 0.961 . S
H2180 C2166 0.961 . S
H2181 C2167 0.958 . S
H2182 C2167 0.961 . S
H2183 C2167 0.960 . S
C2184 C2185 1.391 . S
C2184 C2186 1.394 . S
C2184 H2200 0.931 . S
C2185 C2184 1.391 . S
C2185 C2189 1.376 . S
C2186 C2184 1.394 . S
C2186 C2187 1.369 . S
C2186 C2190 1.531 . S
C2187 C2186 1.369 . S
C2187 C2188 1.410 . S
C2187 C2195 1.503 . S
C2188 C2187 1.410 . S
C2188 C2189 1.392 . S
C2188 C2191 1.511 . S
C2189 C2185 1.376 . S
C2189 C2188 1.392 . S
C2189 H2201 0.929 . S
C2190 C2186 1.531 . S
C2190 H2202 0.960 . S
C2190 H2203 0.962 . S
C2190 H2204 0.960 . S
C2191 C2188 1.511 . S
C2191 H2205 0.961 . S
C2191 H2206 0.961 . S
C2191 H2207 0.961 . S
C2192 C2193 1.370 . S
C2192 C2194 1.363 . S
C2192 H2208 0.931 . S
C2193 C2192 1.370 . S
C2193 C2197 1.408 . S
C2194 C2192 1.363 . S
C2194 C2195 1.370 . S
C2194 C2198 1.524 . S
C2195 C2187 1.503 . S
C2195 C2194 1.370 . S
C2195 C2196 1.403 . S
C2196 C2195 1.403 . S
C2196 C2197 1.404 . S
C2196 C2199 1.539 . S
C2197 C2193 1.408 . S
C2197 C2196 1.404 . S
C2197 H2209 0.930 . S
C2198 C2194 1.524 . S
C2198 H2210 0.956 . S
C2198 H2211 0.961 . S
C2198 H2212 0.961 . S
C2199 C2196 1.539 . S
C2199 H2213 0.958 . S
C2199 H2214 0.961 . S
C2199 H2215 0.960 . S
H2200 C2184 0.931 . S
H2201 C2189 0.929 . S
H2202 C2190 0.960 . S
H2203 C2190 0.962 . S
H2204 C2190 0.960 . S
H2205 C2191 0.961 . S
H2206 C2191 0.961 . S
H2207 C2191 0.961 . S
H2208 C2192 0.931 . S
H2209 C2197 0.930 . S
H2210 C2198 0.956 . S
H2211 C2198 0.961 . S
H2212 C2198 0.961 . S
H2213 C2199 0.958 . S
H2214 C2199 0.961 . S
H2215 C2199 0.960 . S
C2216 C2217 1.391 . S
C2216 C2218 1.394 . S
C2216 H2232 0.931 . S
C2217 C2216 1.391 . S
C2217 C2221 1.376 . S
C2218 C2216 1.394 . S
C2218 C2219 1.369 . S
C2218 C2222 1.531 . S
C2219 C2218 1.369 . S
C2219 C2220 1.410 . S
C2219 C2227 1.503 . S
C2220 C2219 1.410 . S
C2220 C2221 1.392 . S
C2220 C2223 1.511 . S
C2221 C2217 1.376 . S
C2221 C2220 1.392 . S
C2221 H2233 0.929 . S
C2222 C2218 1.531 . S
C2222 H2234 0.960 . S
C2222 H2235 0.962 . S
C2222 H2236 0.960 . S
C2223 C2220 1.511 . S
C2223 H2237 0.961 . S
C2223 H2238 0.961 . S
C2223 H2239 0.961 . S
C2224 C2225 1.370 . S
C2224 C2226 1.363 . S
C2224 H2240 0.931 . S
C2225 C2224 1.370 . S
C2225 C2229 1.408 . S
C2226 C2224 1.363 . S
C2226 C2227 1.370 . S
C2226 C2230 1.524 . S
C2227 C2219 1.503 . S
C2227 C2226 1.370 . S
C2227 C2228 1.403 . S
C2228 C2227 1.403 . S
C2228 C2229 1.404 . S
C2228 C2231 1.539 . S
C2229 C2225 1.408 . S
C2229 C2228 1.404 . S
C2229 H2241 0.930 . S
C2230 C2226 1.524 . S
C2230 H2242 0.956 . S
C2230 H2243 0.961 . S
C2230 H2244 0.961 . S
C2231 C2228 1.539 . S
C2231 H2245 0.958 . S
C2231 H2246 0.961 . S
C2231 H2247 0.960 . S
H2232 C2216 0.931 . S
H2233 C2221 0.929 . S
H2234 C2222 0.960 . S
H2235 C2222 0.962 . S
H2236 C2222 0.960 . S
H2237 C2223 0.961 . S
H2238 C2223 0.961 . S
H2239 C2223 0.961 . S
H2240 C2224 0.931 . S
H2241 C2229 0.930 . S
H2242 C2230 0.956 . S
H2243 C2230 0.961 . S
H2244 C2230 0.961 . S
H2245 C2231 0.958 . S
H2246 C2231 0.961 . S
H2247 C2231 0.960 . S
C2248 C2249 1.391 . S
C2248 C2250 1.394 . S
C2248 H2264 0.931 . S
C2249 C2248 1.391 . S
C2249 C2253 1.376 . S
C2250 C2248 1.394 . S
C2250 C2251 1.369 . S
C2250 C2254 1.531 . S
C2251 C2250 1.369 . S
C2251 C2252 1.410 . S
C2251 C2259 1.503 . S
C2252 C2251 1.410 . S
C2252 C2253 1.392 . S
C2252 C2255 1.511 . S
C2253 C2249 1.376 . S
C2253 C2252 1.392 . S
C2253 H2265 0.929 . S
C2254 C2250 1.531 . S
C2254 H2266 0.960 . S
C2254 H2267 0.962 . S
C2254 H2268 0.960 . S
C2255 C2252 1.511 . S
C2255 H2269 0.961 . S
C2255 H2270 0.961 . S
C2255 H2271 0.961 . S
C2256 C2257 1.370 . S
C2256 C2258 1.363 . S
C2256 H2272 0.931 . S
C2257 C2256 1.370 . S
C2257 C2261 1.408 . S
C2258 C2256 1.363 . S
C2258 C2259 1.370 . S
C2258 C2262 1.524 . S
C2259 C2251 1.503 . S
C2259 C2258 1.370 . S
C2259 C2260 1.403 . S
C2260 C2259 1.403 . S
C2260 C2261 1.404 . S
C2260 C2263 1.539 . S
C2261 C2257 1.408 . S
C2261 C2260 1.404 . S
C2261 H2273 0.930 . S
C2262 C2258 1.524 . S
C2262 H2274 0.956 . S
C2262 H2275 0.961 . S
C2262 H2276 0.961 . S
C2263 C2260 1.539 . S
C2263 H2277 0.958 . S
C2263 H2278 0.961 . S
C2263 H2279 0.960 . S
H2264 C2248 0.931 . S
H2265 C2253 0.929 . S
H2266 C2254 0.960 . S
H2267 C2254 0.962 . S
H2268 C2254 0.960 . S
H2269 C2255 0.961 . S
H2270 C2255 0.961 . S
H2271 C2255 0.961 . S
H2272 C2256 0.931 . S
H2273 C2261 0.930 . S
H2274 C2262 0.956 . S
H2275 C2262 0.961 . S
H2276 C2262 0.961 . S
H2277 C2263 0.958 . S
H2278 C2263 0.961 . S
H2279 C2263 0.960 . S
C2280 C2281 1.391 . S
C2280 C2282 1.394 . S
C2280 H2296 0.931 . S
C2281 C2280 1.391 . S
C2281 C2285 1.376 . S
C2282 C2280 1.394 . S
C2282 C2283 1.369 . S
C2282 C2286 1.531 . S
C2283 C2282 1.369 . S
C2283 C2284 1.410 . S
C2283 C2291 1.503 . S
C2284 C2283 1.410 . S
C2284 C2285 1.392 . S
C2284 C2287 1.511 . S
C2285 C2281 1.376 . S
C2285 C2284 1.392 . S
C2285 H2297 0.929 . S
C2286 C2282 1.531 . S
C2286 H2298 0.960 . S
C2286 H2299 0.962 . S
C2286 H2300 0.960 . S
C2287 C2284 1.511 . S
C2287 H2301 0.961 . S
C2287 H2302 0.961 . S
C2287 H2303 0.961 . S
C2288 C2289 1.370 . S
C2288 C2290 1.363 . S
C2288 H2304 0.931 . S
C2289 C2288 1.370 . S
C2289 C2293 1.408 . S
C2290 C2288 1.363 . S
C2290 C2291 1.370 . S
C2290 C2294 1.524 . S
C2291 C2283 1.503 . S
C2291 C2290 1.370 . S
C2291 C2292 1.403 . S
C2292 C2291 1.403 . S
C2292 C2293 1.404 . S
C2292 C2295 1.539 . S
C2293 C2289 1.408 . S
C2293 C2292 1.404 . S
C2293 H2305 0.930 . S
C2294 C2290 1.524 . S
C2294 H2306 0.956 . S
C2294 H2307 0.961 . S
C2294 H2308 0.961 . S
C2295 C2292 1.539 . S
C2295 H2309 0.958 . S
C2295 H2310 0.961 . S
C2295 H2311 0.960 . S
H2296 C2280 0.931 . S
H2297 C2285 0.929 . S
H2298 C2286 0.960 . S
H2299 C2286 0.962 . S
H2300 C2286 0.960 . S
H2301 C2287 0.961 . S
H2302 C2287 0.961 . S
H2303 C2287 0.961 . S
H2304 C2288 0.931 . S
H2305 C2293 0.930 . S
H2306 C2294 0.956 . S
H2307 C2294 0.961 . S
H2308 C2294 0.961 . S
H2309 C2295 0.958 . S
H2310 C2295 0.961 . S
H2311 C2295 0.960 . S
C2312 C2313 1.391 . S
C2312 C2314 1.394 . S
C2312 H2328 0.931 . S
C2313 C2312 1.391 . S
C2313 C2317 1.376 . S
C2314 C2312 1.394 . S
C2314 C2315 1.369 . S
C2314 C2318 1.531 . S
C2315 C2314 1.369 . S
C2315 C2316 1.410 . S
C2315 C2323 1.503 . S
C2316 C2315 1.410 . S
C2316 C2317 1.392 . S
C2316 C2319 1.511 . S
C2317 C2313 1.376 . S
C2317 C2316 1.392 . S
C2317 H2329 0.929 . S
C2318 C2314 1.531 . S
C2318 H2330 0.960 . S
C2318 H2331 0.962 . S
C2318 H2332 0.960 . S
C2319 C2316 1.511 . S
C2319 H2333 0.961 . S
C2319 H2334 0.961 . S
C2319 H2335 0.961 . S
C2320 C2321 1.370 . S
C2320 C2322 1.363 . S
C2320 H2336 0.931 . S
C2321 C2320 1.370 . S
C2321 C2325 1.408 . S
C2322 C2320 1.363 . S
C2322 C2323 1.370 . S
C2322 C2326 1.524 . S
C2323 C2315 1.503 . S
C2323 C2322 1.370 . S
C2323 C2324 1.403 . S
C2324 C2323 1.403 . S
C2324 C2325 1.404 . S
C2324 C2327 1.539 . S
C2325 C2321 1.408 . S
C2325 C2324 1.404 . S
C2325 H2337 0.930 . S
C2326 C2322 1.524 . S
C2326 H2338 0.956 . S
C2326 H2339 0.961 . S
C2326 H2340 0.961 . S
C2327 C2324 1.539 . S
C2327 H2341 0.958 . S
C2327 H2342 0.961 . S
C2327 H2343 0.960 . S
H2328 C2312 0.931 . S
H2329 C2317 0.929 . S
H2330 C2318 0.960 . S
H2331 C2318 0.962 . S
H2332 C2318 0.960 . S
H2333 C2319 0.961 . S
H2334 C2319 0.961 . S
H2335 C2319 0.961 . S
H2336 C2320 0.931 . S
H2337 C2325 0.930 . S
H2338 C2326 0.956 . S
H2339 C2326 0.961 . S
H2340 C2326 0.961 . S
H2341 C2327 0.958 . S
H2342 C2327 0.961 . S
H2343 C2327 0.960 . S
C2344 C2345 1.391 . S
C2344 C2346 1.394 . S
C2344 H2360 0.931 . S
C2345 C2344 1.391 . S
C2345 C2349 1.376 . S
C2346 C2344 1.394 . S
C2346 C2347 1.369 . S
C2346 C2350 1.531 . S
C2347 C2346 1.369 . S
C2347 C2348 1.410 . S
C2347 C2355 1.503 . S
C2348 C2347 1.410 . S
C2348 C2349 1.392 . S
C2348 C2351 1.511 . S
C2349 C2345 1.376 . S
C2349 C2348 1.392 . S
C2349 H2361 0.929 . S
C2350 C2346 1.531 . S
C2350 H2362 0.960 . S
C2350 H2363 0.962 . S
C2350 H2364 0.960 . S
C2351 C2348 1.511 . S
C2351 H2365 0.961 . S
C2351 H2366 0.961 . S
C2351 H2367 0.961 . S
C2352 C2353 1.370 . S
C2352 C2354 1.363 . S
C2352 H2368 0.931 . S
C2353 C2352 1.370 . S
C2353 C2357 1.408 . S
C2354 C2352 1.363 . S
C2354 C2355 1.370 . S
C2354 C2358 1.524 . S
C2355 C2347 1.503 . S
C2355 C2354 1.370 . S
C2355 C2356 1.403 . S
C2356 C2355 1.403 . S
C2356 C2357 1.404 . S
C2356 C2359 1.539 . S
C2357 C2353 1.408 . S
C2357 C2356 1.404 . S
C2357 H2369 0.930 . S
C2358 C2354 1.524 . S
C2358 H2370 0.956 . S
C2358 H2371 0.961 . S
C2358 H2372 0.961 . S
C2359 C2356 1.539 . S
C2359 H2373 0.958 . S
C2359 H2374 0.961 . S
C2359 H2375 0.960 . S
H2360 C2344 0.931 . S
H2361 C2349 0.929 . S
H2362 C2350 0.960 . S
H2363 C2350 0.962 . S
H2364 C2350 0.960 . S
H2365 C2351 0.961 . S
H2366 C2351 0.961 . S
H2367 C2351 0.961 . S
H2368 C2352 0.931 . S
H2369 C2357 0.930 . S
H2370 C2358 0.956 . S
H2371 C2358 0.961 . S
H2372 C2358 0.961 . S
H2373 C2359 0.958 . S
H2374 C2359 0.961 . S
H2375 C2359 0.960 . S
C2376 C2377 1.391 . S
C2376 C2378 1.394 . S
C2376 H2392 0.931 . S
C2377 C2376 1.391 . S
C2377 C2381 1.376 . S
C2378 C2376 1.394 . S
C2378 C2379 1.369 . S
C2378 C2382 1.531 . S
C2379 C2378 1.369 . S
C2379 C2380 1.410 . S
C2379 C2387 1.503 . S
C2380 C2379 1.410 . S
C2380 C2381 1.392 . S
C2380 C2383 1.511 . S
C2381 C2377 1.376 . S
C2381 C2380 1.392 . S
C2381 H2393 0.929 . S
C2382 C2378 1.531 . S
C2382 H2394 0.960 . S
C2382 H2395 0.962 . S
C2382 H2396 0.960 . S
C2383 C2380 1.511 . S
C2383 H2397 0.961 . S
C2383 H2398 0.961 . S
C2383 H2399 0.961 . S
C2384 C2385 1.370 . S
C2384 C2386 1.363 . S
C2384 H2400 0.931 . S
C2385 C2384 1.370 . S
C2385 C2389 1.408 . S
C2386 C2384 1.363 . S
C2386 C2387 1.370 . S
C2386 C2390 1.524 . S
C2387 C2379 1.503 . S
C2387 C2386 1.370 . S
C2387 C2388 1.403 . S
C2388 C2387 1.403 . S
C2388 C2389 1.404 . S
C2388 C2391 1.539 . S
C2389 C2385 1.408 . S
C2389 C2388 1.404 . S
C2389 H2401 0.930 . S
C2390 C2386 1.524 . S
C2390 H2402 0.956 . S
C2390 H2403 0.961 . S
C2390 H2404 0.961 . S
C2391 C2388 1.539 . S
C2391 H2405 0.958 . S
C2391 H2406 0.961 . S
C2391 H2407 0.960 . S
H2392 C2376 0.931 . S
H2393 C2381 0.929 . S
H2394 C2382 0.960 . S
H2395 C2382 0.962 . S
H2396 C2382 0.960 . S
H2397 C2383 0.961 . S
H2398 C2383 0.961 . S
H2399 C2383 0.961 . S
H2400 C2384 0.931 . S
H2401 C2389 0.930 . S
H2402 C2390 0.956 . S
H2403 C2390 0.961 . S
H2404 C2390 0.961 . S
H2405 C2391 0.958 . S
H2406 C2391 0.961 . S
H2407 C2391 0.960 . S
C2408 C2409 1.391 . S
C2408 C2410 1.394 . S
C2408 H2424 0.931 . S
C2409 C2408 1.391 . S
C2409 C2413 1.376 . S
C2410 C2408 1.394 . S
C2410 C2411 1.369 . S
C2410 C2414 1.531 . S
C2411 C2410 1.369 . S
C2411 C2412 1.410 . S
C2411 C2419 1.503 . S
C2412 C2411 1.410 . S
C2412 C2413 1.392 . S
C2412 C2415 1.511 . S
C2413 C2409 1.376 . S
C2413 C2412 1.392 . S
C2413 H2425 0.929 . S
C2414 C2410 1.531 . S
C2414 H2426 0.960 . S
C2414 H2427 0.962 . S
C2414 H2428 0.960 . S
C2415 C2412 1.511 . S
C2415 H2429 0.961 . S
C2415 H2430 0.961 . S
C2415 H2431 0.961 . S
C2416 C2417 1.370 . S
C2416 C2418 1.363 . S
C2416 H2432 0.931 . S
C2417 C2416 1.370 . S
C2417 C2421 1.408 . S
C2418 C2416 1.363 . S
C2418 C2419 1.370 . S
C2418 C2422 1.524 . S
C2419 C2411 1.503 . S
C2419 C2418 1.370 . S
C2419 C2420 1.403 . S
C2420 C2419 1.403 . S
C2420 C2421 1.404 . S
C2420 C2423 1.539 . S
C2421 C2417 1.408 . S
C2421 C2420 1.404 . S
C2421 H2433 0.930 . S
C2422 C2418 1.524 . S
C2422 H2434 0.956 . S
C2422 H2435 0.961 . S
C2422 H2436 0.961 . S
C2423 C2420 1.539 . S
C2423 H2437 0.958 . S
C2423 H2438 0.961 . S
C2423 H2439 0.960 . S
H2424 C2408 0.931 . S
H2425 C2413 0.929 . S
H2426 C2414 0.960 . S
H2427 C2414 0.962 . S
H2428 C2414 0.960 . S
H2429 C2415 0.961 . S
H2430 C2415 0.961 . S
H2431 C2415 0.961 . S
H2432 C2416 0.931 . S
H2433 C2421 0.930 . S
H2434 C2422 0.956 . S
H2435 C2422 0.961 . S
H2436 C2422 0.961 . S
H2437 C2423 0.958 . S
H2438 C2423 0.961 . S
H2439 C2423 0.960 . S
C2440 C2441 1.391 . S
C2440 C2442 1.394 . S
C2440 H2456 0.931 . S
C2441 C2440 1.391 . S
C2441 C2445 1.376 . S
C2442 C2440 1.394 . S
C2442 C2443 1.369 . S
C2442 C2446 1.531 . S
C2443 C2442 1.369 . S
C2443 C2444 1.410 . S
C2443 C2451 1.503 . S
C2444 C2443 1.410 . S
C2444 C2445 1.392 . S
C2444 C2447 1.511 . S
C2445 C2441 1.376 . S
C2445 C2444 1.392 . S
C2445 H2457 0.929 . S
C2446 C2442 1.531 . S
C2446 H2458 0.960 . S
C2446 H2459 0.962 . S
C2446 H2460 0.960 . S
C2447 C2444 1.511 . S
C2447 H2461 0.961 . S
C2447 H2462 0.961 . S
C2447 H2463 0.961 . S
C2448 C2449 1.370 . S
C2448 C2450 1.363 . S
C2448 H2464 0.931 . S
C2449 C2448 1.370 . S
C2449 C2453 1.408 . S
C2450 C2448 1.363 . S
C2450 C2451 1.370 . S
C2450 C2454 1.524 . S
C2451 C2443 1.503 . S
C2451 C2450 1.370 . S
C2451 C2452 1.403 . S
C2452 C2451 1.403 . S
C2452 C2453 1.404 . S
C2452 C2455 1.539 . S
C2453 C2449 1.408 . S
C2453 C2452 1.404 . S
C2453 H2465 0.930 . S
C2454 C2450 1.524 . S
C2454 H2466 0.956 . S
C2454 H2467 0.961 . S
C2454 H2468 0.961 . S
C2455 C2452 1.539 . S
C2455 H2469 0.958 . S
C2455 H2470 0.961 . S
C2455 H2471 0.960 . S
H2456 C2440 0.931 . S
H2457 C2445 0.929 . S
H2458 C2446 0.960 . S
H2459 C2446 0.962 . S
H2460 C2446 0.960 . S
H2461 C2447 0.961 . S
H2462 C2447 0.961 . S
H2463 C2447 0.961 . S
H2464 C2448 0.931 . S
H2465 C2453 0.930 . S
H2466 C2454 0.956 . S
H2467 C2454 0.961 . S
H2468 C2454 0.961 . S
H2469 C2455 0.958 . S
H2470 C2455 0.961 . S
H2471 C2455 0.960 . S
C2472 C2473 1.391 . S
C2472 C2474 1.394 . S
C2472 H2488 0.931 . S
C2473 C2472 1.391 . S
C2473 C2477 1.376 . S
C2474 C2472 1.394 . S
C2474 C2475 1.369 . S
C2474 C2478 1.531 . S
C2475 C2474 1.369 . S
C2475 C2476 1.410 . S
C2475 C2483 1.503 . S
C2476 C2475 1.410 . S
C2476 C2477 1.392 . S
C2476 C2479 1.511 . S
C2477 C2473 1.376 . S
C2477 C2476 1.392 . S
C2477 H2489 0.929 . S
C2478 C2474 1.531 . S
C2478 H2490 0.960 . S
C2478 H2491 0.962 . S
C2478 H2492 0.960 . S
C2479 C2476 1.511 . S
C2479 H2493 0.961 . S
C2479 H2494 0.961 . S
C2479 H2495 0.961 . S
C2480 C2481 1.370 . S
C2480 C2482 1.363 . S
C2480 H2496 0.931 . S
C2481 C2480 1.370 . S
C2481 C2485 1.408 . S
C2482 C2480 1.363 . S
C2482 C2483 1.370 . S
C2482 C2486 1.524 . S
C2483 C2475 1.503 . S
C2483 C2482 1.370 . S
C2483 C2484 1.403 . S
C2484 C2483 1.403 . S
C2484 C2485 1.404 . S
C2484 C2487 1.539 . S
C2485 C2481 1.408 . S
C2485 C2484 1.404 . S
C2485 H2497 0.930 . S
C2486 C2482 1.524 . S
C2486 H2498 0.956 . S
C2486 H2499 0.961 . S
C2486 H2500 0.961 . S
C2487 C2484 1.539 . S
C2487 H2501 0.958 . S
C2487 H2502 0.961 . S
C2487 H2503 0.960 . S
H2488 C2472 0.931 . S
H2489 C2477 0.929 . S
H2490 C2478 0.960 . S
H2491 C2478 0.962 . S
H2492 C2478 0.960 . S
H2493 C2479 0.961 . S
H2494 C2479 0.961 . S
H2495 C2479 0.961 . S
H2496 C2480 0.931 . S
H2497 C2485 0.930 . S
H2498 C2486 0.956 . S
H2499 C2486 0.961 . S
H2500 C2486 0.961 . S
H2501 C2487 0.958 . S
H2502 C2487 0.961 . S
H2503 C2487 0.960 . S
C2504 C2505 1.391 . S
C2504 C2506 1.394 . S
C2504 H2520 0.931 . S
C2505 C2504 1.391 . S
C2505 C2509 1.376 . S
C2506 C2504 1.394 . S
C2506 C2507 1.369 . S
C2506 C2510 1.531 . S
C2507 C2506 1.369 . S
C2507 C2508 1.410 . S
C2507 C2515 1.503 . S
C2508 C2507 1.410 . S
C2508 C2509 1.392 . S
C2508 C2511 1.511 . S
C2509 C2505 1.376 . S
C2509 C2508 1.392 . S
C2509 H2521 0.929 . S
C2510 C2506 1.531 . S
C2510 H2522 0.960 . S
C2510 H2523 0.962 . S
C2510 H2524 0.960 . S
C2511 C2508 1.511 . S
C2511 H2525 0.961 . S
C2511 H2526 0.961 . S
C2511 H2527 0.961 . S
C2512 C2513 1.370 . S
C2512 C2514 1.363 . S
C2512 H2528 0.931 . S
C2513 C2512 1.370 . S
C2513 C2517 1.408 . S
C2514 C2512 1.363 . S
C2514 C2515 1.370 . S
C2514 C2518 1.524 . S
C2515 C2507 1.503 . S
C2515 C2514 1.370 . S
C2515 C2516 1.403 . S
C2516 C2515 1.403 . S
C2516 C2517 1.404 . S
C2516 C2519 1.539 . S
C2517 C2513 1.408 . S
C2517 C2516 1.404 . S
C2517 H2529 0.930 . S
C2518 C2514 1.524 . S
C2518 H2530 0.956 . S
C2518 H2531 0.961 . S
C2518 H2532 0.961 . S
C2519 C2516 1.539 . S
C2519 H2533 0.958 . S
C2519 H2534 0.961 . S
C2519 H2535 0.960 . S
H2520 C2504 0.931 . S
H2521 C2509 0.929 . S
H2522 C2510 0.960 . S
H2523 C2510 0.962 . S
H2524 C2510 0.960 . S
H2525 C2511 0.961 . S
H2526 C2511 0.961 . S
H2527 C2511 0.961 . S
H2528 C2512 0.931 . S
H2529 C2517 0.930 . S
H2530 C2518 0.956 . S
H2531 C2518 0.961 . S
H2532 C2518 0.961 . S
H2533 C2519 0.958 . S
H2534 C2519 0.961 . S
H2535 C2519 0.960 . S
C2536 C2537 1.391 . S
C2536 C2538 1.394 . S
C2536 H2552 0.931 . S
C2537 C2536 1.391 . S
C2537 C2541 1.376 . S
C2538 C2536 1.394 . S
C2538 C2539 1.369 . S
C2538 C2542 1.531 . S
C2539 C2538 1.369 . S
C2539 C2540 1.410 . S
C2539 C2547 1.503 . S
C2540 C2539 1.410 . S
C2540 C2541 1.392 . S
C2540 C2543 1.511 . S
C2541 C2537 1.376 . S
C2541 C2540 1.392 . S
C2541 H2553 0.929 . S
C2542 C2538 1.531 . S
C2542 H2554 0.960 . S
C2542 H2555 0.962 . S
C2542 H2556 0.960 . S
C2543 C2540 1.511 . S
C2543 H2557 0.961 . S
C2543 H2558 0.961 . S
C2543 H2559 0.961 . S
C2544 C2545 1.370 . S
C2544 C2546 1.363 . S
C2544 H2560 0.931 . S
C2545 C2544 1.370 . S
C2545 C2549 1.408 . S
C2546 C2544 1.363 . S
C2546 C2547 1.370 . S
C2546 C2550 1.524 . S
C2547 C2539 1.503 . S
C2547 C2546 1.370 . S
C2547 C2548 1.403 . S
C2548 C2547 1.403 . S
C2548 C2549 1.404 . S
C2548 C2551 1.539 . S
C2549 C2545 1.408 . S
C2549 C2548 1.404 . S
C2549 H2561 0.930 . S
C2550 C2546 1.524 . S
C2550 H2562 0.956 . S
C2550 H2563 0.961 . S
C2550 H2564 0.961 . S
C2551 C2548 1.539 . S
C2551 H2565 0.958 . S
C2551 H2566 0.961 . S
C2551 H2567 0.960 . S
H2552 C2536 0.931 . S
H2553 C2541 0.929 . S
H2554 C2542 0.960 . S
H2555 C2542 0.962 . S
H2556 C2542 0.960 . S
H2557 C2543 0.961 . S
H2558 C2543 0.961 . S
H2559 C2543 0.961 . S
H2560 C2544 0.931 . S
H2561 C2549 0.930 . S
H2562 C2550 0.956 . S
H2563 C2550 0.961 . S
H2564 C2550 0.961 . S
H2565 C2551 0.958 . S
H2566 C2551 0.961 . S
H2567 C2551 0.960 . S
C2568 C2569 1.391 . S
C2568 C2570 1.394 . S
C2568 H2584 0.931 . S
C2569 C2568 1.391 . S
C2569 C2573 1.376 . S
C2570 C2568 1.394 . S
C2570 C2571 1.369 . S
C2570 C2574 1.531 . S
C2571 C2570 1.369 . S
C2571 C2572 1.410 . S
C2571 C2579 1.503 . S
C2572 C2571 1.410 . S
C2572 C2573 1.392 . S
C2572 C2575 1.511 . S
C2573 C2569 1.376 . S
C2573 C2572 1.392 . S
C2573 H2585 0.929 . S
C2574 C2570 1.531 . S
C2574 H2586 0.960 . S
C2574 H2587 0.962 . S
C2574 H2588 0.960 . S
C2575 C2572 1.511 . S
C2575 H2589 0.961 . S
C2575 H2590 0.961 . S
C2575 H2591 0.961 . S
C2576 C2577 1.370 . S
C2576 C2578 1.363 . S
C2576 H2592 0.931 . S
C2577 C2576 1.370 . S
C2577 C2581 1.408 . S
C2578 C2576 1.363 . S
C2578 C2579 1.370 . S
C2578 C2582 1.524 . S
C2579 C2571 1.503 . S
C2579 C2578 1.370 . S
C2579 C2580 1.403 . S
C2580 C2579 1.403 . S
C2580 C2581 1.404 . S
C2580 C2583 1.539 . S
C2581 C2577 1.408 . S
C2581 C2580 1.404 . S
C2581 H2593 0.930 . S
C2582 C2578 1.524 . S
C2582 H2594 0.956 . S
C2582 H2595 0.961 . S
C2582 H2596 0.961 . S
C2583 C2580 1.539 . S
C2583 H2597 0.958 . S
C2583 H2598 0.961 . S
C2583 H2599 0.960 . S
H2584 C2568 0.931 . S
H2585 C2573 0.929 . S
H2586 C2574 0.960 . S
H2587 C2574 0.962 . S
H2588 C2574 0.960 . S
H2589 C2575 0.961 . S
H2590 C2575 0.961 . S
H2591 C2575 0.961 . S
H2592 C2576 0.931 . S
H2593 C2581 0.930 . S
H2594 C2582 0.956 . S
H2595 C2582 0.961 . S
H2596 C2582 0.961 . S
H2597 C2583 0.958 . S
H2598 C2583 0.961 . S
H2599 C2583 0.960 . S
C2600 C2601 1.391 . S
C2600 C2602 1.394 . S
C2600 H2616 0.931 . S
C2601 C2600 1.391 . S
C2601 C2605 1.376 . S
C2602 C2600 1.394 . S
C2602 C2603 1.369 . S
C2602 C2606 1.531 . S
C2603 C2602 1.369 . S
C2603 C2604 1.410 . S
C2603 C2611 1.503 . S
C2604 C2603 1.410 . S
C2604 C2605 1.392 . S
C2604 C2607 1.511 . S
C2605 C2601 1.376 . S
C2605 C2604 1.392 . S
C2605 H2617 0.929 . S
C2606 C2602 1.531 . S
C2606 H2618 0.960 . S
C2606 H2619 0.962 . S
C2606 H2620 0.960 . S
C2607 C2604 1.511 . S
C2607 H2621 0.961 . S
C2607 H2622 0.961 . S
C2607 H2623 0.961 . S
C2608 C2609 1.370 . S
C2608 C2610 1.363 . S
C2608 H2624 0.931 . S
C2609 C2608 1.370 . S
C2609 C2613 1.408 . S
C2610 C2608 1.363 . S
C2610 C2611 1.370 . S
C2610 C2614 1.524 . S
C2611 C2603 1.503 . S
C2611 C2610 1.370 . S
C2611 C2612 1.403 . S
C2612 C2611 1.403 . S
C2612 C2613 1.404 . S
C2612 C2615 1.539 . S
C2613 C2609 1.408 . S
C2613 C2612 1.404 . S
C2613 H2625 0.930 . S
C2614 C2610 1.524 . S
C2614 H2626 0.956 . S
C2614 H2627 0.961 . S
C2614 H2628 0.961 . S
C2615 C2612 1.539 . S
C2615 H2629 0.958 . S
C2615 H2630 0.961 . S
C2615 H2631 0.960 . S
H2616 C2600 0.931 . S
H2617 C2605 0.929 . S
H2618 C2606 0.960 . S
H2619 C2606 0.962 . S
H2620 C2606 0.960 . S
H2621 C2607 0.961 . S
H2622 C2607 0.961 . S
H2623 C2607 0.961 . S
H2624 C2608 0.931 . S
H2625 C2613 0.930 . S
H2626 C2614 0.956 . S
H2627 C2614 0.961 . S
H2628 C2614 0.961 . S
H2629 C2615 0.958 . S
H2630 C2615 0.961 . S
H2631 C2615 0.960 . S
C2632 C2633 1.391 . S
C2632 C2634 1.394 . S
C2632 H2648 0.931 . S
C2633 C2632 1.391 . S
C2633 C2637 1.376 . S
C2634 C2632 1.394 . S
C2634 C2635 1.369 . S
C2634 C2638 1.531 . S
C2635 C2634 1.369 . S
C2635 C2636 1.410 . S
C2635 C2643 1.503 . S
C2636 C2635 1.410 . S
C2636 C2637 1.392 . S
C2636 C2639 1.511 . S
C2637 C2633 1.376 . S
C2637 C2636 1.392 . S
C2637 H2649 0.929 . S
C2638 C2634 1.531 . S
C2638 H2650 0.960 . S
C2638 H2651 0.962 . S
C2638 H2652 0.960 . S
C2639 C2636 1.511 . S
C2639 H2653 0.961 . S
C2639 H2654 0.961 . S
C2639 H2655 0.961 . S
C2640 C2641 1.370 . S
C2640 C2642 1.363 . S
C2640 H2656 0.931 . S
C2641 C2640 1.370 . S
C2641 C2645 1.408 . S
C2642 C2640 1.363 . S
C2642 C2643 1.370 . S
C2642 C2646 1.524 . S
C2643 C2635 1.503 . S
C2643 C2642 1.370 . S
C2643 C2644 1.403 . S
C2644 C2643 1.403 . S
C2644 C2645 1.404 . S
C2644 C2647 1.539 . S
C2645 C2641 1.408 . S
C2645 C2644 1.404 . S
C2645 H2657 0.930 . S
C2646 C2642 1.524 . S
C2646 H2658 0.956 . S
C2646 H2659 0.961 . S
C2646 H2660 0.961 . S
C2647 C2644 1.539 . S
C2647 H2661 0.958 . S
C2647 H2662 0.961 . S
C2647 H2663 0.960 . S
H2648 C2632 0.931 . S
H2649 C2637 0.929 . S
H2650 C2638 0.960 . S
H2651 C2638 0.962 . S
H2652 C2638 0.960 . S
H2653 C2639 0.961 . S
H2654 C2639 0.961 . S
H2655 C2639 0.961 . S
H2656 C2640 0.931 . S
H2657 C2645 0.930 . S
H2658 C2646 0.956 . S
H2659 C2646 0.961 . S
H2660 C2646 0.961 . S
H2661 C2647 0.958 . S
H2662 C2647 0.961 . S
H2663 C2647 0.960 . S
C2664 C2665 1.391 . S
C2664 C2666 1.394 . S
C2664 H2680 0.931 . S
C2665 C2664 1.391 . S
C2665 C2669 1.376 . S
C2666 C2664 1.394 . S
C2666 C2667 1.369 . S
C2666 C2670 1.531 . S
C2667 C2666 1.369 . S
C2667 C2668 1.410 . S
C2667 C2675 1.503 . S
C2668 C2667 1.410 . S
C2668 C2669 1.392 . S
C2668 C2671 1.511 . S
C2669 C2665 1.376 . S
C2669 C2668 1.392 . S
C2669 H2681 0.929 . S
C2670 C2666 1.531 . S
C2670 H2682 0.960 . S
C2670 H2683 0.962 . S
C2670 H2684 0.960 . S
C2671 C2668 1.511 . S
C2671 H2685 0.961 . S
C2671 H2686 0.961 . S
C2671 H2687 0.961 . S
C2672 C2673 1.370 . S
C2672 C2674 1.363 . S
C2672 H2688 0.931 . S
C2673 C2672 1.370 . S
C2673 C2677 1.408 . S
C2674 C2672 1.363 . S
C2674 C2675 1.370 . S
C2674 C2678 1.524 . S
C2675 C2667 1.503 . S
C2675 C2674 1.370 . S
C2675 C2676 1.403 . S
C2676 C2675 1.403 . S
C2676 C2677 1.404 . S
C2676 C2679 1.539 . S
C2677 C2673 1.408 . S
C2677 C2676 1.404 . S
C2677 H2689 0.930 . S
C2678 C2674 1.524 . S
C2678 H2690 0.956 . S
C2678 H2691 0.961 . S
C2678 H2692 0.961 . S
C2679 C2676 1.539 . S
C2679 H2693 0.958 . S
C2679 H2694 0.961 . S
C2679 H2695 0.960 . S
H2680 C2664 0.931 . S
H2681 C2669 0.929 . S
H2682 C2670 0.960 . S
H2683 C2670 0.962 . S
H2684 C2670 0.960 . S
H2685 C2671 0.961 . S
H2686 C2671 0.961 . S
H2687 C2671 0.961 . S
H2688 C2672 0.931 . S
H2689 C2677 0.930 . S
H2690 C2678 0.956 . S
H2691 C2678 0.961 . S
H2692 C2678 0.961 . S
H2693 C2679 0.958 . S
H2694 C2679 0.961 . S
H2695 C2679 0.960 . S
C2696 C2697 1.391 . S
C2696 C2698 1.394 . S
C2696 H2712 0.931 . S
C2697 C2696 1.391 . S
C2697 C2701 1.376 . S
C2698 C2696 1.394 . S
C2698 C2699 1.369 . S
C2698 C2702 1.531 . S
C2699 C2698 1.369 . S
C2699 C2700 1.410 . S
C2699 C2707 1.503 . S
C2700 C2699 1.410 . S
C2700 C2701 1.392 . S
C2700 C2703 1.511 . S
C2701 C2697 1.376 . S
C2701 C2700 1.392 . S
C2701 H2713 0.929 . S
C2702 C2698 1.531 . S
C2702 H2714 0.960 . S
C2702 H2715 0.962 . S
C2702 H2716 0.960 . S
C2703 C2700 1.511 . S
C2703 H2717 0.961 . S
C2703 H2718 0.961 . S
C2703 H2719 0.961 . S
C2704 C2705 1.370 . S
C2704 C2706 1.363 . S
C2704 H2720 0.931 . S
C2705 C2704 1.370 . S
C2705 C2709 1.408 . S
C2706 C2704 1.363 . S
C2706 C2707 1.370 . S
C2706 C2710 1.524 . S
C2707 C2699 1.503 . S
C2707 C2706 1.370 . S
C2707 C2708 1.403 . S
C2708 C2707 1.403 . S
C2708 C2709 1.404 . S
C2708 C2711 1.539 . S
C2709 C2705 1.408 . S
C2709 C2708 1.404 . S
C2709 H2721 0.930 . S
C2710 C2706 1.524 . S
C2710 H2722 0.956 . S
C2710 H2723 0.961 . S
C2710 H2724 0.961 . S
C2711 C2708 1.539 . S
C2711 H2725 0.958 . S
C2711 H2726 0.961 . S
C2711 H2727 0.960 . S
H2712 C2696 0.931 . S
H2713 C2701 0.929 . S
H2714 C2702 0.960 . S
H2715 C2702 0.962 . S
H2716 C2702 0.960 . S
H2717 C2703 0.961 . S
H2718 C2703 0.961 . S
H2719 C2703 0.961 . S
H2720 C2704 0.931 . S
H2721 C2709 0.930 . S
H2722 C2710 0.956 . S
H2723 C2710 0.961 . S
H2724 C2710 0.961 . S
H2725 C2711 0.958 . S
H2726 C2711 0.961 . S
H2727 C2711 0.960 . S
C2728 C2729 1.391 . S
C2728 C2730 1.394 . S
C2728 H2744 0.931 . S
C2729 C2728 1.391 . S
C2729 C2733 1.376 . S
C2730 C2728 1.394 . S
C2730 C2731 1.369 . S
C2730 C2734 1.531 . S
C2731 C2730 1.369 . S
C2731 C2732 1.410 . S
C2731 C2739 1.503 . S
C2732 C2731 1.410 . S
C2732 C2733 1.392 . S
C2732 C2735 1.511 . S
C2733 C2729 1.376 . S
C2733 C2732 1.392 . S
C2733 H2745 0.929 . S
C2734 C2730 1.531 . S
C2734 H2746 0.960 . S
C2734 H2747 0.962 . S
C2734 H2748 0.960 . S
C2735 C2732 1.511 . S
C2735 H2749 0.961 . S
C2735 H2750 0.961 . S
C2735 H2751 0.961 . S
C2736 C2737 1.370 . S
C2736 C2738 1.363 . S
C2736 H2752 0.931 . S
C2737 C2736 1.370 . S
C2737 C2741 1.408 . S
C2738 C2736 1.363 . S
C2738 C2739 1.370 . S
C2738 C2742 1.524 . S
C2739 C2731 1.503 . S
C2739 C2738 1.370 . S
C2739 C2740 1.403 . S
C2740 C2739 1.403 . S
C2740 C2741 1.404 . S
C2740 C2743 1.539 . S
C2741 C2737 1.408 . S
C2741 C2740 1.404 . S
C2741 H2753 0.930 . S
C2742 C2738 1.524 . S
C2742 H2754 0.956 . S
C2742 H2755 0.961 . S
C2742 H2756 0.961 . S
C2743 C2740 1.539 . S
C2743 H2757 0.958 . S
C2743 H2758 0.961 . S
C2743 H2759 0.960 . S
H2744 C2728 0.931 . S
H2745 C2733 0.929 . S
H2746 C2734 0.960 . S
H2747 C2734 0.962 . S
H2748 C2734 0.960 . S
H2749 C2735 0.961 . S
H2750 C2735 0.961 . S
H2751 C2735 0.961 . S
H2752 C2736 0.931 . S
H2753 C2741 0.930 . S
H2754 C2742 0.956 . S
H2755 C2742 0.961 . S
H2756 C2742 0.961 . S
H2757 C2743 0.958 . S
H2758 C2743 0.961 . S
H2759 C2743 0.960 . S
C2760 C2761 1.391 . S
C2760 C2762 1.394 . S
C2760 H2776 0.931 1_556 S
C2761 C2760 1.391 . S
C2761 C2765 1.376 . S
C2762 C2760 1.394 . S
C2762 C2763 1.369 . S
C2762 C2766 1.531 1_556 S
C2763 C2762 1.369 . S
C2763 C2764 1.410 . S
C2763 C2771 1.503 . S
C2764 C2763 1.410 . S
C2764 C2765 1.392 . S
C2764 C2767 1.511 . S
C2765 C2761 1.376 . S
C2765 C2764 1.392 . S
C2765 H2777 0.929 . S
C2766 C2762 1.531 1_554 S
C2766 H2778 0.960 1_554 S
C2766 H2779 0.962 . S
C2766 H2780 0.960 . S
C2767 C2764 1.511 . S
C2767 H2781 0.961 . S
C2767 H2782 0.961 . S
C2767 H2783 0.961 . S
C2768 C2769 1.370 . S
C2768 C2770 1.363 . S
C2768 H2784 0.931 . S
C2769 C2768 1.370 . S
C2769 C2773 1.408 . S
C2770 C2768 1.363 . S
C2770 C2771 1.370 . S
C2770 C2774 1.524 . S
C2771 C2763 1.503 . S
C2771 C2770 1.370 . S
C2771 C2772 1.403 . S
C2772 C2771 1.403 . S
C2772 C2773 1.404 . S
C2772 C2775 1.539 . S
C2773 C2769 1.408 . S
C2773 C2772 1.404 . S
C2773 H2785 0.930 . S
C2774 C2770 1.524 . S
C2774 H2786 0.956 . S
C2774 H2787 0.961 . S
C2774 H2788 0.961 . S
C2775 C2772 1.539 . S
C2775 H2789 0.958 . S
C2775 H2790 0.961 . S
C2775 H2791 0.960 . S
H2776 C2760 0.931 1_554 S
H2777 C2765 0.929 . S
H2778 C2766 0.960 1_556 S
H2779 C2766 0.962 . S
H2780 C2766 0.960 . S
H2781 C2767 0.961 . S
H2782 C2767 0.961 . S
H2783 C2767 0.961 . S
H2784 C2768 0.931 . S
H2785 C2773 0.930 . S
H2786 C2774 0.956 . S
H2787 C2774 0.961 . S
H2788 C2774 0.961 . S
H2789 C2775 0.958 . S
H2790 C2775 0.961 . S
H2791 C2775 0.960 . S
C2792 C2793 1.391 . S
C2792 C2794 1.394 . S
C2792 H2808 0.931 . S
C2793 C2792 1.391 . S
C2793 C2797 1.376 . S
C2794 C2792 1.394 . S
C2794 C2795 1.369 . S
C2794 C2798 1.531 . S
C2795 C2794 1.369 . S
C2795 C2796 1.410 . S
C2795 C2803 1.503 . S
C2796 C2795 1.410 . S
C2796 C2797 1.392 . S
C2796 C2799 1.511 . S
C2797 C2793 1.376 . S
C2797 C2796 1.392 . S
C2797 H2809 0.929 . S
C2798 C2794 1.531 . S
C2798 H2810 0.960 . S
C2798 H2811 0.962 . S
C2798 H2812 0.960 . S
C2799 C2796 1.511 . S
C2799 H2813 0.961 . S
C2799 H2814 0.961 . S
C2799 H2815 0.961 . S
C2800 C2801 1.370 . S
C2800 C2802 1.363 . S
C2800 H2816 0.931 . S
C2801 C2800 1.370 . S
C2801 C2805 1.408 . S
C2802 C2800 1.363 . S
C2802 C2803 1.370 . S
C2802 C2806 1.524 . S
C2803 C2795 1.503 . S
C2803 C2802 1.370 . S
C2803 C2804 1.403 . S
C2804 C2803 1.403 . S
C2804 C2805 1.404 . S
C2804 C2807 1.539 . S
C2805 C2801 1.408 . S
C2805 C2804 1.404 . S
C2805 H2817 0.930 . S
C2806 C2802 1.524 . S
C2806 H2818 0.956 . S
C2806 H2819 0.961 . S
C2806 H2820 0.961 . S
C2807 C2804 1.539 . S
C2807 H2821 0.958 . S
C2807 H2822 0.961 . S
C2807 H2823 0.960 . S
H2808 C2792 0.931 . S
H2809 C2797 0.929 . S
H2810 C2798 0.960 . S
H2811 C2798 0.962 . S
H2812 C2798 0.960 . S
H2813 C2799 0.961 . S
H2814 C2799 0.961 . S
H2815 C2799 0.961 . S
H2816 C2800 0.931 . S
H2817 C2805 0.930 . S
H2818 C2806 0.956 . S
H2819 C2806 0.961 . S
H2820 C2806 0.961 . S
H2821 C2807 0.958 . S
H2822 C2807 0.961 . S
H2823 C2807 0.960 . S
C2824 C2825 1.391 . S
C2824 C2826 1.394 . S
C2824 H2840 0.931 . S
C2825 C2824 1.391 . S
C2825 C2829 1.376 . S
C2826 C2824 1.394 . S
C2826 C2827 1.369 . S
C2826 C2830 1.531 . S
C2827 C2826 1.369 . S
C2827 C2828 1.410 . S
C2827 C2835 1.503 . S
C2828 C2827 1.410 . S
C2828 C2829 1.392 . S
C2828 C2831 1.511 . S
C2829 C2825 1.376 . S
C2829 C2828 1.392 . S
C2829 H2841 0.929 1_556 S
C2830 C2826 1.531 . S
C2830 H2842 0.960 . S
C2830 H2843 0.962 . S
C2830 H2844 0.960 . S
C2831 C2828 1.511 . S
C2831 H2845 0.961 1_556 S
C2831 H2846 0.961 . S
C2831 H2847 0.961 1_556 S
C2832 C2833 1.370 . S
C2832 C2834 1.363 . S
C2832 H2848 0.931 . S
C2833 C2832 1.370 . S
C2833 C2837 1.408 . S
C2834 C2832 1.363 . S
C2834 C2835 1.370 . S
C2834 C2838 1.524 . S
C2835 C2827 1.503 . S
C2835 C2834 1.370 . S
C2835 C2836 1.403 . S
C2836 C2835 1.403 . S
C2836 C2837 1.404 . S
C2836 C2839 1.539 . S
C2837 C2833 1.408 . S
C2837 C2836 1.404 . S
C2837 H2849 0.930 . S
C2838 C2834 1.524 . S
C2838 H2850 0.956 . S
C2838 H2851 0.961 . S
C2838 H2852 0.961 . S
C2839 C2836 1.539 . S
C2839 H2853 0.958 . S
C2839 H2854 0.961 . S
C2839 H2855 0.960 . S
H2840 C2824 0.931 . S
H2841 C2829 0.929 1_554 S
H2842 C2830 0.960 . S
H2843 C2830 0.962 . S
H2844 C2830 0.960 . S
H2845 C2831 0.961 1_554 S
H2846 C2831 0.961 . S
H2847 C2831 0.961 1_554 S
H2848 C2832 0.931 . S
H2849 C2837 0.930 . S
H2850 C2838 0.956 . S
H2851 C2838 0.961 . S
H2852 C2838 0.961 . S
H2853 C2839 0.958 . S
H2854 C2839 0.961 . S
H2855 C2839 0.960 . S
C2856 C2857 1.391 . S
C2856 C2858 1.394 . S
C2856 H2872 0.931 1_556 S
C2857 C2856 1.391 . S
C2857 C2861 1.376 . S
C2858 C2856 1.394 . S
C2858 C2859 1.369 . S
C2858 C2862 1.531 . S
C2859 C2858 1.369 . S
C2859 C2860 1.410 . S
C2859 C2867 1.503 . S
C2860 C2859 1.410 . S
C2860 C2861 1.392 . S
C2860 C2863 1.511 . S
C2861 C2857 1.376 . S
C2861 C2860 1.392 . S
C2861 H2873 0.929 . S
C2862 C2858 1.531 . S
C2862 H2874 0.960 . S
C2862 H2875 0.962 . S
C2862 H2876 0.960 1_556 S
C2863 C2860 1.511 . S
C2863 H2877 0.961 . S
C2863 H2878 0.961 . S
C2863 H2879 0.961 . S
C2864 C2865 1.370 . S
C2864 C2866 1.363 . S
C2864 H2880 0.931 . S
C2865 C2864 1.370 . S
C2865 C2869 1.408 . S
C2866 C2864 1.363 . S
C2866 C2867 1.370 . S
C2866 C2870 1.524 . S
C2867 C2859 1.503 . S
C2867 C2866 1.370 . S
C2867 C2868 1.403 . S
C2868 C2867 1.403 . S
C2868 C2869 1.404 . S
C2868 C2871 1.539 . S
C2869 C2865 1.408 . S
C2869 C2868 1.404 . S
C2869 H2881 0.930 . S
C2870 C2866 1.524 . S
C2870 H2882 0.956 . S
C2870 H2883 0.961 . S
C2870 H2884 0.961 . S
C2871 C2868 1.539 . S
C2871 H2885 0.958 . S
C2871 H2886 0.961 . S
C2871 H2887 0.960 . S
H2872 C2856 0.931 1_554 S
H2873 C2861 0.929 . S
H2874 C2862 0.960 . S
H2875 C2862 0.962 . S
H2876 C2862 0.960 1_554 S
H2877 C2863 0.961 . S
H2878 C2863 0.961 . S
H2879 C2863 0.961 . S
H2880 C2864 0.931 . S
H2881 C2869 0.930 . S
H2882 C2870 0.956 . S
H2883 C2870 0.961 . S
H2884 C2870 0.961 . S
H2885 C2871 0.958 . S
H2886 C2871 0.961 . S
H2887 C2871 0.960 . S
C2888 C2889 1.391 . S
C2888 C2890 1.394 . S
C2888 H2904 0.931 . S
C2889 C2888 1.391 . S
C2889 C2893 1.376 . S
C2890 C2888 1.394 . S
C2890 C2891 1.369 . S
C2890 C2894 1.531 . S
C2891 C2890 1.369 . S
C2891 C2892 1.410 . S
C2891 C2899 1.503 . S
C2892 C2891 1.410 . S
C2892 C2893 1.392 . S
C2892 C2895 1.511 . S
C2893 C2889 1.376 . S
C2893 C2892 1.392 . S
C2893 H2905 0.929 . S
C2894 C2890 1.531 . S
C2894 H2906 0.960 . S
C2894 H2907 0.962 . S
C2894 H2908 0.960 . S
C2895 C2892 1.511 . S
C2895 H2909 0.961 . S
C2895 H2910 0.961 . S
C2895 H2911 0.961 . S
C2896 C2897 1.370 . S
C2896 C2898 1.363 . S
C2896 H2912 0.931 . S
C2897 C2896 1.370 . S
C2897 C2901 1.408 . S
C2898 C2896 1.363 . S
C2898 C2899 1.370 . S
C2898 C2902 1.524 . S
C2899 C2891 1.503 . S
C2899 C2898 1.370 . S
C2899 C2900 1.403 . S
C2900 C2899 1.403 . S
C2900 C2901 1.404 . S
C2900 C2903 1.539 . S
C2901 C2897 1.408 . S
C2901 C2900 1.404 . S
C2901 H2913 0.930 . S
C2902 C2898 1.524 . S
C2902 H2914 0.956 . S
C2902 H2915 0.961 . S
C2902 H2916 0.961 . S
C2903 C2900 1.539 . S
C2903 H2917 0.958 1_556 S
C2903 H2918 0.961 . S
C2903 H2919 0.960 . S
H2904 C2888 0.931 . S
H2905 C2893 0.929 . S
H2906 C2894 0.960 . S
H2907 C2894 0.962 . S
H2908 C2894 0.960 . S
H2909 C2895 0.961 . S
H2910 C2895 0.961 . S
H2911 C2895 0.961 . S
H2912 C2896 0.931 . S
H2913 C2901 0.930 . S
H2914 C2902 0.956 . S
H2915 C2902 0.961 . S
H2916 C2902 0.961 . S
H2917 C2903 0.958 1_554 S
H2918 C2903 0.961 . S
H2919 C2903 0.960 . S
C2920 C2921 1.391 . S
C2920 C2922 1.394 . S
C2920 H2936 0.931 . S
C2921 C2920 1.391 . S
C2921 C2925 1.376 . S
C2922 C2920 1.394 . S
C2922 C2923 1.369 . S
C2922 C2926 1.531 . S
C2923 C2922 1.369 . S
C2923 C2924 1.410 . S
C2923 C2931 1.503 . S
C2924 C2923 1.410 . S
C2924 C2925 1.392 . S
C2924 C2927 1.511 . S
C2925 C2921 1.376 . S
C2925 C2924 1.392 . S
C2925 H2937 0.929 1_556 S
C2926 C2922 1.531 . S
C2926 H2938 0.960 . S
C2926 H2939 0.962 . S
C2926 H2940 0.960 . S
C2927 C2924 1.511 . S
C2927 H2941 0.961 1_556 S
C2927 H2942 0.961 . S
C2927 H2943 0.961 1_556 S
C2928 C2929 1.370 . S
C2928 C2930 1.363 . S
C2928 H2944 0.931 . S
C2929 C2928 1.370 . S
C2929 C2933 1.408 . S
C2930 C2928 1.363 . S
C2930 C2931 1.370 . S
C2930 C2934 1.524 . S
C2931 C2923 1.503 . S
C2931 C2930 1.370 . S
C2931 C2932 1.403 . S
C2932 C2931 1.403 . S
C2932 C2933 1.404 . S
C2932 C2935 1.539 . S
C2933 C2929 1.408 . S
C2933 C2932 1.404 . S
C2933 H2945 0.930 . S
C2934 C2930 1.524 . S
C2934 H2946 0.956 . S
C2934 H2947 0.961 . S
C2934 H2948 0.961 . S
C2935 C2932 1.539 . S
C2935 H2949 0.958 . S
C2935 H2950 0.961 . S
C2935 H2951 0.960 . S
H2936 C2920 0.931 . S
H2937 C2925 0.929 1_554 S
H2938 C2926 0.960 . S
H2939 C2926 0.962 . S
H2940 C2926 0.960 . S
H2941 C2927 0.961 1_554 S
H2942 C2927 0.961 . S
H2943 C2927 0.961 1_554 S
H2944 C2928 0.931 . S
H2945 C2933 0.930 . S
H2946 C2934 0.956 . S
H2947 C2934 0.961 . S
H2948 C2934 0.961 . S
H2949 C2935 0.958 . S
H2950 C2935 0.961 . S
H2951 C2935 0.960 . S
C2952 C2953 1.391 . S
C2952 C2954 1.394 . S
C2952 H2968 0.931 . S
C2953 C2952 1.391 . S
C2953 C2957 1.376 . S
C2954 C2952 1.394 . S
C2954 C2955 1.369 . S
C2954 C2958 1.531 . S
C2955 C2954 1.369 . S
C2955 C2956 1.410 . S
C2955 C2963 1.503 . S
C2956 C2955 1.410 . S
C2956 C2957 1.392 . S
C2956 C2959 1.511 . S
C2957 C2953 1.376 . S
C2957 C2956 1.392 . S
C2957 H2969 0.929 . S
C2958 C2954 1.531 . S
C2958 H2970 0.960 . S
C2958 H2971 0.962 . S
C2958 H2972 0.960 . S
C2959 C2956 1.511 . S
C2959 H2973 0.961 . S
C2959 H2974 0.961 . S
C2959 H2975 0.961 . S
C2960 C2961 1.370 . S
C2960 C2962 1.363 . S
C2960 H2976 0.931 . S
C2961 C2960 1.370 . S
C2961 C2965 1.408 . S
C2962 C2960 1.363 . S
C2962 C2963 1.370 . S
C2962 C2966 1.524 . S
C2963 C2955 1.503 . S
C2963 C2962 1.370 . S
C2963 C2964 1.403 . S
C2964 C2963 1.403 . S
C2964 C2965 1.404 . S
C2964 C2967 1.539 . S
C2965 C2961 1.408 . S
C2965 C2964 1.404 . S
C2965 H2977 0.930 . S
C2966 C2962 1.524 . S
C2966 H2978 0.956 . S
C2966 H2979 0.961 . S
C2966 H2980 0.961 . S
C2967 C2964 1.539 . S
C2967 H2981 0.958 . S
C2967 H2982 0.961 . S
C2967 H2983 0.960 . S
H2968 C2952 0.931 . S
H2969 C2957 0.929 . S
H2970 C2958 0.960 . S
H2971 C2958 0.962 . S
H2972 C2958 0.960 . S
H2973 C2959 0.961 . S
H2974 C2959 0.961 . S
H2975 C2959 0.961 . S
H2976 C2960 0.931 . S
H2977 C2965 0.930 . S
H2978 C2966 0.956 . S
H2979 C2966 0.961 . S
H2980 C2966 0.961 . S
H2981 C2967 0.958 . S
H2982 C2967 0.961 . S
H2983 C2967 0.960 . S
C2984 C2985 1.391 . S
C2984 C2986 1.394 . S
C2984 H3000 0.931 . S
C2985 C2984 1.391 . S
C2985 C2989 1.376 . S
C2986 C2984 1.394 . S
C2986 C2987 1.369 . S
C2986 C2990 1.531 . S
C2987 C2986 1.369 . S
C2987 C2988 1.410 . S
C2987 C2995 1.503 . S
C2988 C2987 1.410 . S
C2988 C2989 1.392 . S
C2988 C2991 1.511 . S
C2989 C2985 1.376 . S
C2989 C2988 1.392 . S
C2989 H3001 0.929 . S
C2990 C2986 1.531 . S
C2990 H3002 0.960 . S
C2990 H3003 0.962 . S
C2990 H3004 0.960 . S
C2991 C2988 1.511 . S
C2991 H3005 0.961 . S
C2991 H3006 0.961 . S
C2991 H3007 0.961 . S
C2992 C2993 1.370 . S
C2992 C2994 1.363 . S
C2992 H3008 0.931 . S
C2993 C2992 1.370 . S
C2993 C2997 1.408 . S
C2994 C2992 1.363 . S
C2994 C2995 1.370 . S
C2994 C2998 1.524 . S
C2995 C2987 1.503 . S
C2995 C2994 1.370 . S
C2995 C2996 1.403 . S
C2996 C2995 1.403 . S
C2996 C2997 1.404 . S
C2996 C2999 1.539 . S
C2997 C2993 1.408 . S
C2997 C2996 1.404 . S
C2997 H3009 0.930 . S
C2998 C2994 1.524 . S
C2998 H3010 0.956 . S
C2998 H3011 0.961 . S
C2998 H3012 0.961 . S
C2999 C2996 1.539 . S
C2999 H3013 0.958 . S
C2999 H3014 0.961 . S
C2999 H3015 0.960 . S
H3000 C2984 0.931 . S
H3001 C2989 0.929 . S
H3002 C2990 0.960 . S
H3003 C2990 0.962 . S
H3004 C2990 0.960 . S
H3005 C2991 0.961 . S
H3006 C2991 0.961 . S
H3007 C2991 0.961 . S
H3008 C2992 0.931 . S
H3009 C2997 0.930 . S
H3010 C2998 0.956 . S
H3011 C2998 0.961 . S
H3012 C2998 0.961 . S
H3013 C2999 0.958 . S
H3014 C2999 0.961 . S
H3015 C2999 0.960 . S
C3016 C3017 1.391 . S
C3016 C3018 1.394 . S
C3016 H3032 0.931 . S
C3017 C3016 1.391 . S
C3017 C3021 1.376 . S
C3018 C3016 1.394 . S
C3018 C3019 1.369 . S
C3018 C3022 1.531 . S
C3019 C3018 1.369 . S
C3019 C3020 1.410 . S
C3019 C3027 1.503 . S
C3020 C3019 1.410 . S
C3020 C3021 1.392 . S
C3020 C3023 1.511 . S
C3021 C3017 1.376 . S
C3021 C3020 1.392 . S
C3021 H3033 0.929 . S
C3022 C3018 1.531 . S
C3022 H3034 0.960 . S
C3022 H3035 0.962 . S
C3022 H3036 0.960 . S
C3023 C3020 1.511 . S
C3023 H3037 0.961 . S
C3023 H3038 0.961 . S
C3023 H3039 0.961 . S
C3024 C3025 1.370 . S
C3024 C3026 1.363 . S
C3024 H3040 0.931 . S
C3025 C3024 1.370 . S
C3025 C3029 1.408 . S
C3026 C3024 1.363 . S
C3026 C3027 1.370 . S
C3026 C3030 1.524 . S
C3027 C3019 1.503 . S
C3027 C3026 1.370 . S
C3027 C3028 1.403 . S
C3028 C3027 1.403 . S
C3028 C3029 1.404 . S
C3028 C3031 1.539 . S
C3029 C3025 1.408 . S
C3029 C3028 1.404 . S
C3029 H3041 0.930 . S
C3030 C3026 1.524 . S
C3030 H3042 0.956 . S
C3030 H3043 0.961 . S
C3030 H3044 0.961 . S
C3031 C3028 1.539 . S
C3031 H3045 0.958 . S
C3031 H3046 0.961 . S
C3031 H3047 0.960 . S
H3032 C3016 0.931 . S
H3033 C3021 0.929 . S
H3034 C3022 0.960 . S
H3035 C3022 0.962 . S
H3036 C3022 0.960 . S
H3037 C3023 0.961 . S
H3038 C3023 0.961 . S
H3039 C3023 0.961 . S
H3040 C3024 0.931 . S
H3041 C3029 0.930 . S
H3042 C3030 0.956 . S
H3043 C3030 0.961 . S
H3044 C3030 0.961 . S
H3045 C3031 0.958 . S
H3046 C3031 0.961 . S
H3047 C3031 0.960 . S
C3048 C3049 1.391 . S
C3048 C3050 1.394 . S
C3048 H3064 0.931 . S
C3049 C3048 1.391 . S
C3049 C3053 1.376 . S
C3050 C3048 1.394 . S
C3050 C3051 1.369 . S
C3050 C3054 1.531 . S
C3051 C3050 1.369 . S
C3051 C3052 1.410 . S
C3051 C3059 1.503 . S
C3052 C3051 1.410 . S
C3052 C3053 1.392 . S
C3052 C3055 1.511 . S
C3053 C3049 1.376 . S
C3053 C3052 1.392 . S
C3053 H3065 0.929 . S
C3054 C3050 1.531 . S
C3054 H3066 0.960 . S
C3054 H3067 0.962 . S
C3054 H3068 0.960 . S
C3055 C3052 1.511 . S
C3055 H3069 0.961 . S
C3055 H3070 0.961 . S
C3055 H3071 0.961 . S
C3056 C3057 1.370 . S
C3056 C3058 1.363 . S
C3056 H3072 0.931 . S
C3057 C3056 1.370 . S
C3057 C3061 1.408 . S
C3058 C3056 1.363 . S
C3058 C3059 1.370 . S
C3058 C3062 1.524 . S
C3059 C3051 1.503 . S
C3059 C3058 1.370 . S
C3059 C3060 1.403 . S
C3060 C3059 1.403 . S
C3060 C3061 1.404 . S
C3060 C3063 1.539 . S
C3061 C3057 1.408 . S
C3061 C3060 1.404 . S
C3061 H3073 0.930 . S
C3062 C3058 1.524 . S
C3062 H3074 0.956 . S
C3062 H3075 0.961 . S
C3062 H3076 0.961 . S
C3063 C3060 1.539 . S
C3063 H3077 0.958 . S
C3063 H3078 0.961 . S
C3063 H3079 0.960 . S
H3064 C3048 0.931 . S
H3065 C3053 0.929 . S
H3066 C3054 0.960 . S
H3067 C3054 0.962 . S
H3068 C3054 0.960 . S
H3069 C3055 0.961 . S
H3070 C3055 0.961 . S
H3071 C3055 0.961 . S
H3072 C3056 0.931 . S
H3073 C3061 0.930 . S
H3074 C3062 0.956 . S
H3075 C3062 0.961 . S
H3076 C3062 0.961 . S
H3077 C3063 0.958 . S
H3078 C3063 0.961 . S
H3079 C3063 0.960 . S
C3080 C3081 1.391 . S
C3080 C3082 1.394 . S
C3080 H3096 0.931 . S
C3081 C3080 1.391 . S
C3081 C3085 1.376 . S
C3082 C3080 1.394 . S
C3082 C3083 1.369 . S
C3082 C3086 1.531 . S
C3083 C3082 1.369 . S
C3083 C3084 1.410 . S
C3083 C3091 1.503 . S
C3084 C3083 1.410 . S
C3084 C3085 1.392 . S
C3084 C3087 1.511 . S
C3085 C3081 1.376 . S
C3085 C3084 1.392 . S
C3085 H3097 0.929 . S
C3086 C3082 1.531 . S
C3086 H3098 0.960 . S
C3086 H3099 0.962 . S
C3086 H3100 0.960 . S
C3087 C3084 1.511 . S
C3087 H3101 0.961 . S
C3087 H3102 0.961 . S
C3087 H3103 0.961 . S
C3088 C3089 1.370 . S
C3088 C3090 1.363 . S
C3088 H3104 0.931 . S
C3089 C3088 1.370 . S
C3089 C3093 1.408 . S
C3090 C3088 1.363 . S
C3090 C3091 1.370 . S
C3090 C3094 1.524 . S
C3091 C3083 1.503 . S
C3091 C3090 1.370 . S
C3091 C3092 1.403 . S
C3092 C3091 1.403 . S
C3092 C3093 1.404 . S
C3092 C3095 1.539 . S
C3093 C3089 1.408 . S
C3093 C3092 1.404 . S
C3093 H3105 0.930 . S
C3094 C3090 1.524 . S
C3094 H3106 0.956 . S
C3094 H3107 0.961 . S
C3094 H3108 0.961 . S
C3095 C3092 1.539 . S
C3095 H3109 0.958 . S
C3095 H3110 0.961 . S
C3095 H3111 0.960 . S
H3096 C3080 0.931 . S
H3097 C3085 0.929 . S
H3098 C3086 0.960 . S
H3099 C3086 0.962 . S
H3100 C3086 0.960 . S
H3101 C3087 0.961 . S
H3102 C3087 0.961 . S
H3103 C3087 0.961 . S
H3104 C3088 0.931 . S
H3105 C3093 0.930 . S
H3106 C3094 0.956 . S
H3107 C3094 0.961 . S
H3108 C3094 0.961 . S
H3109 C3095 0.958 . S
H3110 C3095 0.961 . S
H3111 C3095 0.960 . S
C3112 C3113 1.391 . S
C3112 C3114 1.394 . S
C3112 H3128 0.931 . S
C3113 C3112 1.391 . S
C3113 C3117 1.376 . S
C3114 C3112 1.394 . S
C3114 C3115 1.369 . S
C3114 C3118 1.531 . S
C3115 C3114 1.369 . S
C3115 C3116 1.410 . S
C3115 C3123 1.503 . S
C3116 C3115 1.410 . S
C3116 C3117 1.392 . S
C3116 C3119 1.511 . S
C3117 C3113 1.376 . S
C3117 C3116 1.392 . S
C3117 H3129 0.929 . S
C3118 C3114 1.531 . S
C3118 H3130 0.960 . S
C3118 H3131 0.962 . S
C3118 H3132 0.960 . S
C3119 C3116 1.511 . S
C3119 H3133 0.961 . S
C3119 H3134 0.961 . S
C3119 H3135 0.961 . S
C3120 C3121 1.370 . S
C3120 C3122 1.363 . S
C3120 H3136 0.931 . S
C3121 C3120 1.370 . S
C3121 C3125 1.408 . S
C3122 C3120 1.363 . S
C3122 C3123 1.370 . S
C3122 C3126 1.524 . S
C3123 C3115 1.503 . S
C3123 C3122 1.370 . S
C3123 C3124 1.403 . S
C3124 C3123 1.403 . S
C3124 C3125 1.404 . S
C3124 C3127 1.539 . S
C3125 C3121 1.408 . S
C3125 C3124 1.404 . S
C3125 H3137 0.930 . S
C3126 C3122 1.524 . S
C3126 H3138 0.956 . S
C3126 H3139 0.961 . S
C3126 H3140 0.961 . S
C3127 C3124 1.539 . S
C3127 H3141 0.958 . S
C3127 H3142 0.961 . S
C3127 H3143 0.960 . S
H3128 C3112 0.931 . S
H3129 C3117 0.929 . S
H3130 C3118 0.960 . S
H3131 C3118 0.962 . S
H3132 C3118 0.960 . S
H3133 C3119 0.961 . S
H3134 C3119 0.961 . S
H3135 C3119 0.961 . S
H3136 C3120 0.931 . S
H3137 C3125 0.930 . S
H3138 C3126 0.956 . S
H3139 C3126 0.961 . S
H3140 C3126 0.961 . S
H3141 C3127 0.958 . S
H3142 C3127 0.961 . S
H3143 C3127 0.960 . S
C3144 C3145 1.391 . S
C3144 C3146 1.394 . S
C3144 H3160 0.931 . S
C3145 C3144 1.391 . S
C3145 C3149 1.376 1_455 S
C3146 C3144 1.394 . S
C3146 C3147 1.369 . S
C3146 C3150 1.531 . S
C3147 C3146 1.369 . S
C3147 C3148 1.410 1_455 S
C3147 C3155 1.503 . S
C3148 C3147 1.410 1_655 S
C3148 C3149 1.392 . S
C3148 C3151 1.511 . S
C3149 C3145 1.376 1_655 S
C3149 C3148 1.392 . S
C3149 H3161 0.929 . S
C3150 C3146 1.531 . S
C3150 H3162 0.960 . S
C3150 H3163 0.962 . S
C3150 H3164 0.960 . S
C3151 C3148 1.511 . S
C3151 H3165 0.961 . S
C3151 H3166 0.961 . S
C3151 H3167 0.961 . S
C3152 C3153 1.370 . S
C3152 C3154 1.363 . S
C3152 H3168 0.931 . S
C3153 C3152 1.370 . S
C3153 C3157 1.408 . S
C3154 C3152 1.363 . S
C3154 C3155 1.370 . S
C3154 C3158 1.524 . S
C3155 C3147 1.503 . S
C3155 C3154 1.370 . S
C3155 C3156 1.403 . S
C3156 C3155 1.403 . S
C3156 C3157 1.404 . S
C3156 C3159 1.539 . S
C3157 C3153 1.408 . S
C3157 C3156 1.404 . S
C3157 H3169 0.930 . S
C3158 C3154 1.524 . S
C3158 H3170 0.956 . S
C3158 H3171 0.961 1_455 S
C3158 H3172 0.961 . S
C3159 C3156 1.539 . S
C3159 H3173 0.958 . S
C3159 H3174 0.961 1_455 S
C3159 H3175 0.960 1_455 S
H3160 C3144 0.931 . S
H3161 C3149 0.929 . S
H3162 C3150 0.960 . S
H3163 C3150 0.962 . S
H3164 C3150 0.960 . S
H3165 C3151 0.961 . S
H3166 C3151 0.961 . S
H3167 C3151 0.961 . S
H3168 C3152 0.931 . S
H3169 C3157 0.930 . S
H3170 C3158 0.956 . S
H3171 C3158 0.961 1_655 S
H3172 C3158 0.961 . S
H3173 C3159 0.958 . S
H3174 C3159 0.961 1_655 S
H3175 C3159 0.960 1_655 S
C3176 C3177 1.391 . S
C3176 C3178 1.394 . S
C3176 H3192 0.931 . S
C3177 C3176 1.391 . S
C3177 C3181 1.376 . S
C3178 C3176 1.394 . S
C3178 C3179 1.369 . S
C3178 C3182 1.531 . S
C3179 C3178 1.369 . S
C3179 C3180 1.410 . S
C3179 C3187 1.503 . S
C3180 C3179 1.410 . S
C3180 C3181 1.392 . S
C3180 C3183 1.511 . S
C3181 C3177 1.376 . S
C3181 C3180 1.392 . S
C3181 H3193 0.929 . S
C3182 C3178 1.531 . S
C3182 H3194 0.960 . S
C3182 H3195 0.962 . S
C3182 H3196 0.960 . S
C3183 C3180 1.511 . S
C3183 H3197 0.961 . S
C3183 H3198 0.961 . S
C3183 H3199 0.961 . S
C3184 C3185 1.370 . S
C3184 C3186 1.363 . S
C3184 H3200 0.931 . S
C3185 C3184 1.370 . S
C3185 C3189 1.408 . S
C3186 C3184 1.363 . S
C3186 C3187 1.370 . S
C3186 C3190 1.524 . S
C3187 C3179 1.503 . S
C3187 C3186 1.370 . S
C3187 C3188 1.403 . S
C3188 C3187 1.403 . S
C3188 C3189 1.404 . S
C3188 C3191 1.539 . S
C3189 C3185 1.408 . S
C3189 C3188 1.404 . S
C3189 H3201 0.930 . S
C3190 C3186 1.524 . S
C3190 H3202 0.956 . S
C3190 H3203 0.961 . S
C3190 H3204 0.961 . S
C3191 C3188 1.539 . S
C3191 H3205 0.958 . S
C3191 H3206 0.961 . S
C3191 H3207 0.960 . S
H3192 C3176 0.931 . S
H3193 C3181 0.929 . S
H3194 C3182 0.960 . S
H3195 C3182 0.962 . S
H3196 C3182 0.960 . S
H3197 C3183 0.961 . S
H3198 C3183 0.961 . S
H3199 C3183 0.961 . S
H3200 C3184 0.931 . S
H3201 C3189 0.930 . S
H3202 C3190 0.956 . S
H3203 C3190 0.961 . S
H3204 C3190 0.961 . S
H3205 C3191 0.958 . S
H3206 C3191 0.961 . S
H3207 C3191 0.960 . S
C3208 C3209 1.391 . S
C3208 C3210 1.394 . S
C3208 H3224 0.931 . S
C3209 C3208 1.391 . S
C3209 C3213 1.376 . S
C3210 C3208 1.394 . S
C3210 C3211 1.369 . S
C3210 C3214 1.531 . S
C3211 C3210 1.369 . S
C3211 C3212 1.410 . S
C3211 C3219 1.503 . S
C3212 C3211 1.410 . S
C3212 C3213 1.392 . S
C3212 C3215 1.511 . S
C3213 C3209 1.376 . S
C3213 C3212 1.392 . S
C3213 H3225 0.929 . S
C3214 C3210 1.531 . S
C3214 H3226 0.960 1_565 S
C3214 H3227 0.962 . S
C3214 H3228 0.960 1_565 S
C3215 C3212 1.511 . S
C3215 H3229 0.961 . S
C3215 H3230 0.961 . S
C3215 H3231 0.961 1_565 S
C3216 C3217 1.370 . S
C3216 C3218 1.363 . S
C3216 H3232 0.931 . S
C3217 C3216 1.370 . S
C3217 C3221 1.408 1_565 S
C3218 C3216 1.363 . S
C3218 C3219 1.370 . S
C3218 C3222 1.524 . S
C3219 C3211 1.503 . S
C3219 C3218 1.370 . S
C3219 C3220 1.403 1_565 S
C3220 C3219 1.403 1_545 S
C3220 C3221 1.404 . S
C3220 C3223 1.539 . S
C3221 C3217 1.408 1_545 S
C3221 C3220 1.404 . S
C3221 H3233 0.930 . S
C3222 C3218 1.524 . S
C3222 H3234 0.956 . S
C3222 H3235 0.961 . S
C3222 H3236 0.961 . S
C3223 C3220 1.539 . S
C3223 H3237 0.958 . S
C3223 H3238 0.961 . S
C3223 H3239 0.960 . S
H3224 C3208 0.931 . S
H3225 C3213 0.929 . S
H3226 C3214 0.960 1_545 S
H3227 C3214 0.962 . S
H3228 C3214 0.960 1_545 S
H3229 C3215 0.961 . S
H3230 C3215 0.961 . S
H3231 C3215 0.961 1_545 S
H3232 C3216 0.931 . S
H3233 C3221 0.930 . S
H3234 C3222 0.956 . S
H3235 C3222 0.961 . S
H3236 C3222 0.961 . S
H3237 C3223 0.958 . S
H3238 C3223 0.961 . S
H3239 C3223 0.960 . S
C3240 C3241 1.391 . S
C3240 C3242 1.394 . S
C3240 H3256 0.931 . S
C3241 C3240 1.391 . S
C3241 C3245 1.376 . S
C3242 C3240 1.394 . S
C3242 C3243 1.369 . S
C3242 C3246 1.531 . S
C3243 C3242 1.369 . S
C3243 C3244 1.410 . S
C3243 C3251 1.503 . S
C3244 C3243 1.410 . S
C3244 C3245 1.392 . S
C3244 C3247 1.511 1_565 S
C3245 C3241 1.376 . S
C3245 C3244 1.392 . S
C3245 H3257 0.929 1_565 S
C3246 C3242 1.531 . S
C3246 H3258 0.960 . S
C3246 H3259 0.962 . S
C3246 H3260 0.960 . S
C3247 C3244 1.511 1_545 S
C3247 H3261 0.961 . S
C3247 H3262 0.961 . S
C3247 H3263 0.961 1_545 S
C3248 C3249 1.370 1_545 S
C3248 C3250 1.363 . S
C3248 H3264 0.931 . S
C3249 C3248 1.370 1_565 S
C3249 C3253 1.408 . S
C3250 C3248 1.363 . S
C3250 C3251 1.370 1_545 S
C3250 C3254 1.524 . S
C3251 C3243 1.503 . S
C3251 C3250 1.370 1_565 S
C3251 C3252 1.403 . S
C3252 C3251 1.403 . S
C3252 C3253 1.404 . S
C3252 C3255 1.539 . S
C3253 C3249 1.408 . S
C3253 C3252 1.404 . S
C3253 H3265 0.930 . S
C3254 C3250 1.524 . S
C3254 H3266 0.956 . S
C3254 H3267 0.961 . S
C3254 H3268 0.961 . S
C3255 C3252 1.539 . S
C3255 H3269 0.958 . S
C3255 H3270 0.961 . S
C3255 H3271 0.960 . S
H3256 C3240 0.931 . S
H3257 C3245 0.929 1_545 S
H3258 C3246 0.960 . S
H3259 C3246 0.962 . S
H3260 C3246 0.960 . S
H3261 C3247 0.961 . S
H3262 C3247 0.961 . S
H3263 C3247 0.961 1_565 S
H3264 C3248 0.931 . S
H3265 C3253 0.930 . S
H3266 C3254 0.956 . S
H3267 C3254 0.961 . S
H3268 C3254 0.961 . S
H3269 C3255 0.958 . S
H3270 C3255 0.961 . S
H3271 C3255 0.960 . S
C3272 C3273 1.391 . S
C3272 C3274 1.394 . S
C3272 H3288 0.931 . S
C3273 C3272 1.391 . S
C3273 C3277 1.376 . S
C3274 C3272 1.394 . S
C3274 C3275 1.369 . S
C3274 C3278 1.531 . S
C3275 C3274 1.369 . S
C3275 C3276 1.456 . S
C3275 C3283 1.503 . S
C3276 C3275 1.456 . S
C3276 C3277 1.364 . S
C3276 C3279 1.496 1_455 S
C3277 C3273 1.376 . S
C3277 C3276 1.364 . S
C3277 H3289 0.929 1_455 S
C3278 C3274 1.531 . S
C3278 H3290 0.960 . S
C3278 H3291 0.962 . S
C3278 H3292 0.960 . S
C3279 C3276 1.496 1_655 S
C3279 H3293 0.961 . S
C3279 H3294 0.961 . S
C3279 H3295 0.961 . S
C3280 C3281 1.370 1_655 S
C3280 C3282 1.363 . S
C3280 H3296 0.931 . S
C3281 C3280 1.370 1_455 S
C3281 C3285 1.408 . S
C3282 C3280 1.363 . S
C3282 C3283 1.370 1_655 S
C3282 C3286 1.524 . S
C3283 C3275 1.503 . S
C3283 C3282 1.370 1_455 S
C3283 C3284 1.403 . S
C3284 C3283 1.403 . S
C3284 C3285 1.404 . S
C3284 C3287 1.539 . S
C3285 C3281 1.408 . S
C3285 C3284 1.404 . S
C3285 H3297 0.930 . S
C3286 C3282 1.524 . S
C3286 H3298 0.956 . S
C3286 H3299 0.961 . S
C3286 H3300 0.961 . S
C3287 C3284 1.539 . S
C3287 H3301 0.958 . S
C3287 H3302 0.961 . S
C3287 H3303 0.960 . S
H3288 C3272 0.931 . S
H3289 C3277 0.929 1_655 S
H3290 C3278 0.960 . S
H3291 C3278 0.962 . S
H3292 C3278 0.960 . S
H3293 C3279 0.961 . S
H3294 C3279 0.961 . S
H3295 C3279 0.961 . S
H3296 C3280 0.931 . S
H3297 C3285 0.930 . S
H3298 C3286 0.956 . S
H3299 C3286 0.961 . S
H3300 C3286 0.961 . S
H3301 C3287 0.958 . S
H3302 C3287 0.961 . S
H3303 C3287 0.960 . S
C3304 C3305 1.391 . S
C3304 C3306 1.394 . S
C3304 H3320 0.931 . S
C3305 C3304 1.391 . S
C3305 C3309 1.376 . S
C3306 C3304 1.394 . S
C3306 C3307 1.369 . S
C3306 C3310 1.531 . S
C3307 C3306 1.369 . S
C3307 C3308 1.410 . S
C3307 C3315 1.503 . S
C3308 C3307 1.410 . S
C3308 C3309 1.392 . S
C3308 C3311 1.511 . S
C3309 C3305 1.376 . S
C3309 C3308 1.392 . S
C3309 H3321 0.929 . S
C3310 C3306 1.531 . S
C3310 H3322 0.960 . S
C3310 H3323 0.962 . S
C3310 H3324 0.960 . S
C3311 C3308 1.511 . S
C3311 H3325 0.961 . S
C3311 H3326 0.961 . S
C3311 H3327 0.961 . S
C3312 C3313 1.370 . S
C3312 C3314 1.363 . S
C3312 H3328 0.931 . S
C3313 C3312 1.370 . S
C3313 C3317 1.408 . S
C3314 C3312 1.363 . S
C3314 C3315 1.370 . S
C3314 C3318 1.524 . S
C3315 C3307 1.503 . S
C3315 C3314 1.370 . S
C3315 C3316 1.403 . S
C3316 C3315 1.403 . S
C3316 C3317 1.404 . S
C3316 C3319 1.539 . S
C3317 C3313 1.408 . S
C3317 C3316 1.404 . S
C3317 H3329 0.930 . S
C3318 C3314 1.524 . S
C3318 H3330 0.956 . S
C3318 H3331 0.961 . S
C3318 H3332 0.961 . S
C3319 C3316 1.539 . S
C3319 H3333 0.958 . S
C3319 H3334 0.961 . S
C3319 H3335 0.960 . S
H3320 C3304 0.931 . S
H3321 C3309 0.929 . S
H3322 C3310 0.960 . S
H3323 C3310 0.962 . S
H3324 C3310 0.960 . S
H3325 C3311 0.961 . S
H3326 C3311 0.961 . S
H3327 C3311 0.961 . S
H3328 C3312 0.931 . S
H3329 C3317 0.930 . S
H3330 C3318 0.956 . S
H3331 C3318 0.961 . S
H3332 C3318 0.961 . S
H3333 C3319 0.958 . S
H3334 C3319 0.961 . S
H3335 C3319 0.960 . S
C3336 C3337 1.391 . S
C3336 C3338 1.394 . S
C3336 H3352 0.931 . S
C3337 C3336 1.391 . S
C3337 C3341 1.376 . S
C3338 C3336 1.394 . S
C3338 C3339 1.369 . S
C3338 C3342 1.531 . S
C3339 C3338 1.369 . S
C3339 C3340 1.410 . S
C3339 C3347 1.503 . S
C3340 C3339 1.410 . S
C3340 C3341 1.392 . S
C3340 C3343 1.511 . S
C3341 C3337 1.376 . S
C3341 C3340 1.392 . S
C3341 H3353 0.929 . S
C3342 C3338 1.531 . S
C3342 H3354 0.960 . S
C3342 H3355 0.962 . S
C3342 H3356 0.960 . S
C3343 C3340 1.511 . S
C3343 H3357 0.961 . S
C3343 H3358 0.961 . S
C3343 H3359 0.961 . S
C3344 C3345 1.370 . S
C3344 C3346 1.363 . S
C3344 H3360 0.931 . S
C3345 C3344 1.370 . S
C3345 C3349 1.408 . S
C3346 C3344 1.363 . S
C3346 C3347 1.370 . S
C3346 C3350 1.524 . S
C3347 C3339 1.503 . S
C3347 C3346 1.370 . S
C3347 C3348 1.403 . S
C3348 C3347 1.403 . S
C3348 C3349 1.404 . S
C3348 C3351 1.539 . S
C3349 C3345 1.408 . S
C3349 C3348 1.404 . S
C3349 H3361 0.930 . S
C3350 C3346 1.524 . S
C3350 H3362 0.956 . S
C3350 H3363 0.961 . S
C3350 H3364 0.961 . S
C3351 C3348 1.539 . S
C3351 H3365 0.958 . S
C3351 H3366 0.961 . S
C3351 H3367 0.960 . S
H3352 C3336 0.931 . S
H3353 C3341 0.929 . S
H3354 C3342 0.960 . S
H3355 C3342 0.962 . S
H3356 C3342 0.960 . S
H3357 C3343 0.961 . S
H3358 C3343 0.961 . S
H3359 C3343 0.961 . S
H3360 C3344 0.931 . S
H3361 C3349 0.930 . S
H3362 C3350 0.956 . S
H3363 C3350 0.961 . S
H3364 C3350 0.961 . S
H3365 C3351 0.958 . S
H3366 C3351 0.961 . S
H3367 C3351 0.960 . S
C3368 C3369 1.391 . S
C3368 C3370 1.394 . S
C3368 H3384 0.931 . S
C3369 C3368 1.391 . S
C3369 C3373 1.376 . S
C3370 C3368 1.394 . S
C3370 C3371 1.369 . S
C3370 C3374 1.531 . S
C3371 C3370 1.369 . S
C3371 C3372 1.410 . S
C3371 C3379 1.503 . S
C3372 C3371 1.410 . S
C3372 C3373 1.392 . S
C3372 C3375 1.511 . S
C3373 C3369 1.376 . S
C3373 C3372 1.392 . S
C3373 H3385 0.929 . S
C3374 C3370 1.531 . S
C3374 H3386 0.960 . S
C3374 H3387 0.962 . S
C3374 H3388 0.960 . S
C3375 C3372 1.511 . S
C3375 H3389 0.961 . S
C3375 H3390 0.961 . S
C3375 H3391 0.961 . S
C3376 C3377 1.370 . S
C3376 C3378 1.363 . S
C3376 H3392 0.931 . S
C3377 C3376 1.370 . S
C3377 C3381 1.408 . S
C3378 C3376 1.363 . S
C3378 C3379 1.370 . S
C3378 C3382 1.524 . S
C3379 C3371 1.503 . S
C3379 C3378 1.370 . S
C3379 C3380 1.403 . S
C3380 C3379 1.403 . S
C3380 C3381 1.404 . S
C3380 C3383 1.539 . S
C3381 C3377 1.408 . S
C3381 C3380 1.404 . S
C3381 H3393 0.930 . S
C3382 C3378 1.524 . S
C3382 H3394 0.956 . S
C3382 H3395 0.961 . S
C3382 H3396 0.961 . S
C3383 C3380 1.539 . S
C3383 H3397 0.958 . S
C3383 H3398 0.961 . S
C3383 H3399 0.960 . S
H3384 C3368 0.931 . S
H3385 C3373 0.929 . S
H3386 C3374 0.960 . S
H3387 C3374 0.962 . S
H3388 C3374 0.960 . S
H3389 C3375 0.961 . S
H3390 C3375 0.961 . S
H3391 C3375 0.961 . S
H3392 C3376 0.931 . S
H3393 C3381 0.930 . S
H3394 C3382 0.956 . S
H3395 C3382 0.961 . S
H3396 C3382 0.961 . S
H3397 C3383 0.958 . S
H3398 C3383 0.961 . S
H3399 C3383 0.960 . S
C3400 C3401 1.391 . S
C3400 C3402 1.394 . S
C3400 H3416 0.931 . S
C3401 C3400 1.391 . S
C3401 C3405 1.376 . S
C3402 C3400 1.394 . S
C3402 C3403 1.369 . S
C3402 C3406 1.531 . S
C3403 C3402 1.369 . S
C3403 C3404 1.410 . S
C3403 C3411 1.503 . S
C3404 C3403 1.410 . S
C3404 C3405 1.392 . S
C3404 C3407 1.511 . S
C3405 C3401 1.376 . S
C3405 C3404 1.392 . S
C3405 H3417 0.929 . S
C3406 C3402 1.531 . S
C3406 H3418 0.960 . S
C3406 H3419 0.962 . S
C3406 H3420 0.960 . S
C3407 C3404 1.511 . S
C3407 H3421 0.961 . S
C3407 H3422 0.961 . S
C3407 H3423 0.961 . S
C3408 C3409 1.370 . S
C3408 C3410 1.363 . S
C3408 H3424 0.931 . S
C3409 C3408 1.370 . S
C3409 C3413 1.408 . S
C3410 C3408 1.363 . S
C3410 C3411 1.370 . S
C3410 C3414 1.524 . S
C3411 C3403 1.503 . S
C3411 C3410 1.370 . S
C3411 C3412 1.403 . S
C3412 C3411 1.403 . S
C3412 C3413 1.404 . S
C3412 C3415 1.539 . S
C3413 C3409 1.408 . S
C3413 C3412 1.404 . S
C3413 H3425 0.930 . S
C3414 C3410 1.524 . S
C3414 H3426 0.956 . S
C3414 H3427 0.961 . S
C3414 H3428 0.961 . S
C3415 C3412 1.539 . S
C3415 H3429 0.958 . S
C3415 H3430 0.961 . S
C3415 H3431 0.960 . S
H3416 C3400 0.931 . S
H3417 C3405 0.929 . S
H3418 C3406 0.960 . S
H3419 C3406 0.962 . S
H3420 C3406 0.960 . S
H3421 C3407 0.961 . S
H3422 C3407 0.961 . S
H3423 C3407 0.961 . S
H3424 C3408 0.931 . S
H3425 C3413 0.930 . S
H3426 C3414 0.956 . S
H3427 C3414 0.961 . S
H3428 C3414 0.961 . S
H3429 C3415 0.958 . S
H3430 C3415 0.961 . S
H3431 C3415 0.960 . S
C3432 C3433 1.391 . S
C3432 C3434 1.394 . S
C3432 H3448 0.931 . S
C3433 C3432 1.391 . S
C3433 C3437 1.376 . S
C3434 C3432 1.394 . S
C3434 C3435 1.369 . S
C3434 C3438 1.531 . S
C3435 C3434 1.369 . S
C3435 C3436 1.410 . S
C3435 C3443 1.503 . S
C3436 C3435 1.410 . S
C3436 C3437 1.392 . S
C3436 C3439 1.511 . S
C3437 C3433 1.376 . S
C3437 C3436 1.392 . S
C3437 H3449 0.929 . S
C3438 C3434 1.531 . S
C3438 H3450 0.960 . S
C3438 H3451 0.915 1_545 S
C3438 H3452 0.960 . S
C3439 C3436 1.511 . S
C3439 H3453 0.961 . S
C3439 H3454 0.961 . S
C3439 H3455 0.961 . S
C3440 C3441 1.370 1_565 S
C3440 C3442 1.363 . S
C3440 H3456 0.931 . S
C3441 C3440 1.370 1_545 S
C3441 C3445 1.408 . S
C3442 C3440 1.363 . S
C3442 C3443 1.370 1_565 S
C3442 C3446 1.524 . S
C3443 C3435 1.503 . S
C3443 C3442 1.370 1_545 S
C3443 C3444 1.403 . S
C3444 C3443 1.403 . S
C3444 C3445 1.404 . S
C3444 C3447 1.539 . S
C3445 C3441 1.408 . S
C3445 C3444 1.404 . S
C3445 H3457 0.930 . S
C3446 C3442 1.524 . S
C3446 H3458 0.956 . S
C3446 H3459 0.961 . S
C3446 H3460 0.961 . S
C3447 C3444 1.539 . S
C3447 H3461 0.958 . S
C3447 H3462 0.961 . S
C3447 H3463 0.960 . S
H3448 C3432 0.931 . S
H3449 C3437 0.929 . S
H3450 C3438 0.960 . S
H3451 C3438 0.915 1_565 S
H3452 C3438 0.960 . S
H3453 C3439 0.961 . S
H3454 C3439 0.961 . S
H3455 C3439 0.961 . S
H3456 C3440 0.931 . S
H3457 C3445 0.930 . S
H3458 C3446 0.956 . S
H3459 C3446 0.961 . S
H3460 C3446 0.961 . S
H3461 C3447 0.958 . S
H3462 C3447 0.961 . S
H3463 C3447 0.960 . S
C3464 C3465 1.391 . S
C3464 C3466 1.394 . S
C3464 H3480 0.931 1_655 S
C3465 C3464 1.391 . S
C3465 C3469 1.376 . S
C3466 C3464 1.394 . S
C3466 C3467 1.369 . S
C3466 C3470 1.531 1_655 S
C3467 C3466 1.369 . S
C3467 C3468 1.410 . S
C3467 C3475 1.503 . S
C3468 C3467 1.410 . S
C3468 C3469 1.392 . S
C3468 C3471 1.511 . S
C3469 C3465 1.376 . S
C3469 C3468 1.392 . S
C3469 H3481 0.929 . S
C3470 C3466 1.531 1_455 S
C3470 H3482 0.960 . S
C3470 H3483 0.962 . S
C3470 H3484 0.960 . S
C3471 C3468 1.511 . S
C3471 H3485 0.961 . S
C3471 H3486 0.961 . S
C3471 H3487 0.961 . S
C3472 C3473 1.370 1_455 S
C3472 C3474 1.363 . S
C3472 H3488 0.931 . S
C3473 C3472 1.370 1_655 S
C3473 C3477 1.408 . S
C3474 C3472 1.363 . S
C3474 C3475 1.370 1_455 S
C3474 C3478 1.524 . S
C3475 C3467 1.503 . S
C3475 C3474 1.370 1_655 S
C3475 C3476 1.403 . S
C3476 C3475 1.403 . S
C3476 C3477 1.404 . S
C3476 C3479 1.539 . S
C3477 C3473 1.408 . S
C3477 C3476 1.404 . S
C3477 H3489 0.930 . S
C3478 C3474 1.524 . S
C3478 H3490 0.956 . S
C3478 H3491 0.961 . S
C3478 H3492 0.961 . S
C3479 C3476 1.539 . S
C3479 H3493 0.958 . S
C3479 H3494 0.961 . S
C3479 H3495 0.960 . S
H3480 C3464 0.931 1_455 S
H3481 C3469 0.929 . S
H3482 C3470 0.960 . S
H3483 C3470 0.962 . S
H3484 C3470 0.960 . S
H3485 C3471 0.961 . S
H3486 C3471 0.961 . S
H3487 C3471 0.961 . S
H3488 C3472 0.931 . S
H3489 C3477 0.930 . S
H3490 C3478 0.956 . S
H3491 C3478 0.961 . S
H3492 C3478 0.961 . S
H3493 C3479 0.958 . S
H3494 C3479 0.961 . S
H3495 C3479 0.960 . S
C3496 C3497 1.391 . S
C3496 C3498 1.394 . S
C3496 H3512 0.931 . S
C3497 C3496 1.391 . S
C3497 C3501 1.376 . S
C3498 C3496 1.394 . S
C3498 C3499 1.369 . S
C3498 C3502 1.531 . S
C3499 C3498 1.369 . S
C3499 C3500 1.410 . S
C3499 C3507 1.503 . S
C3500 C3499 1.410 . S
C3500 C3501 1.392 . S
C3500 C3503 1.511 . S
C3501 C3497 1.376 . S
C3501 C3500 1.392 . S
C3501 H3513 0.929 . S
C3502 C3498 1.531 . S
C3502 H3514 0.960 . S
C3502 H3515 0.962 . S
C3502 H3516 0.960 . S
C3503 C3500 1.511 . S
C3503 H3517 0.961 . S
C3503 H3518 0.961 . S
C3503 H3519 0.961 . S
C3504 C3505 1.370 . S
C3504 C3506 1.363 . S
C3504 H3520 0.931 . S
C3505 C3504 1.370 . S
C3505 C3509 1.408 . S
C3506 C3504 1.363 . S
C3506 C3507 1.370 . S
C3506 C3510 1.524 . S
C3507 C3499 1.503 . S
C3507 C3506 1.370 . S
C3507 C3508 1.403 . S
C3508 C3507 1.403 . S
C3508 C3509 1.404 . S
C3508 C3511 1.539 . S
C3509 C3505 1.408 . S
C3509 C3508 1.404 . S
C3509 H3521 0.930 . S
C3510 C3506 1.524 . S
C3510 H3522 0.956 . S
C3510 H3523 0.961 . S
C3510 H3524 0.961 . S
C3511 C3508 1.539 . S
C3511 H3525 0.958 . S
C3511 H3526 0.961 . S
C3511 H3527 0.960 . S
H3512 C3496 0.931 . S
H3513 C3501 0.929 . S
H3514 C3502 0.960 . S
H3515 C3502 0.962 . S
H3516 C3502 0.960 . S
H3517 C3503 0.961 . S
H3518 C3503 0.961 . S
H3519 C3503 0.961 . S
H3520 C3504 0.931 . S
H3521 C3509 0.930 . S
H3522 C3510 0.956 . S
H3523 C3510 0.961 . S
H3524 C3510 0.961 . S
H3525 C3511 0.958 . S
H3526 C3511 0.961 . S
H3527 C3511 0.960 . S
C3528 C3529 1.391 . S
C3528 C3530 1.394 . S
C3528 H3544 0.931 . S
C3529 C3528 1.391 . S
C3529 C3533 1.376 . S
C3530 C3528 1.394 . S
C3530 C3531 1.369 . S
C3530 C3534 1.531 . S
C3531 C3530 1.369 . S
C3531 C3532 1.410 . S
C3531 C3539 1.503 . S
C3532 C3531 1.410 . S
C3532 C3533 1.392 . S
C3532 C3535 1.511 . S
C3533 C3529 1.376 . S
C3533 C3532 1.392 . S
C3533 H3545 0.929 . S
C3534 C3530 1.531 . S
C3534 H3546 0.960 . S
C3534 H3547 0.962 . S
C3534 H3548 0.960 . S
C3535 C3532 1.511 . S
C3535 H3549 0.961 . S
C3535 H3550 0.961 . S
C3535 H3551 0.961 . S
C3536 C3537 1.370 . S
C3536 C3538 1.363 . S
C3536 H3552 0.931 . S
C3537 C3536 1.370 . S
C3537 C3541 1.408 . S
C3538 C3536 1.363 . S
C3538 C3539 1.370 . S
C3538 C3542 1.524 . S
C3539 C3531 1.503 . S
C3539 C3538 1.370 . S
C3539 C3540 1.403 . S
C3540 C3539 1.403 . S
C3540 C3541 1.404 . S
C3540 C3543 1.539 . S
C3541 C3537 1.408 . S
C3541 C3540 1.404 . S
C3541 H3553 0.930 . S
C3542 C3538 1.524 . S
C3542 H3554 0.956 . S
C3542 H3555 0.961 . S
C3542 H3556 0.961 . S
C3543 C3540 1.539 . S
C3543 H3557 0.958 . S
C3543 H3558 0.961 . S
C3543 H3559 0.960 . S
H3544 C3528 0.931 . S
H3545 C3533 0.929 . S
H3546 C3534 0.960 . S
H3547 C3534 0.962 . S
H3548 C3534 0.960 . S
H3549 C3535 0.961 . S
H3550 C3535 0.961 . S
H3551 C3535 0.961 . S
H3552 C3536 0.931 . S
H3553 C3541 0.930 . S
H3554 C3542 0.956 . S
H3555 C3542 0.961 . S
H3556 C3542 0.961 . S
H3557 C3543 0.958 . S
H3558 C3543 0.961 . S
H3559 C3543 0.960 . S
C3560 C3561 1.391 . S
C3560 C3562 1.394 . S
C3560 H3576 0.931 . S
C3561 C3560 1.391 . S
C3561 C3565 1.376 . S
C3562 C3560 1.394 . S
C3562 C3563 1.369 . S
C3562 C3566 1.531 . S
C3563 C3562 1.369 . S
C3563 C3564 1.410 . S
C3563 C3571 1.503 . S
C3564 C3563 1.410 . S
C3564 C3565 1.392 . S
C3564 C3567 1.511 . S
C3565 C3561 1.376 . S
C3565 C3564 1.392 . S
C3565 H3577 0.929 . S
C3566 C3562 1.531 . S
C3566 H3578 0.960 . S
C3566 H3579 0.962 . S
C3566 H3580 0.960 . S
C3567 C3564 1.511 . S
C3567 H3581 0.961 . S
C3567 H3582 0.961 . S
C3567 H3583 0.961 . S
C3568 C3569 1.370 . S
C3568 C3570 1.363 . S
C3568 H3584 0.931 . S
C3569 C3568 1.370 . S
C3569 C3573 1.408 . S
C3570 C3568 1.363 . S
C3570 C3571 1.370 . S
C3570 C3574 1.524 . S
C3571 C3563 1.503 . S
C3571 C3570 1.370 . S
C3571 C3572 1.403 . S
C3572 C3571 1.403 . S
C3572 C3573 1.404 . S
C3572 C3575 1.539 . S
C3573 C3569 1.408 . S
C3573 C3572 1.404 . S
C3573 H3585 0.930 . S
C3574 C3570 1.524 . S
C3574 H3586 0.956 . S
C3574 H3587 0.961 . S
C3574 H3588 0.961 . S
C3575 C3572 1.539 . S
C3575 H3589 0.958 . S
C3575 H3590 0.961 . S
C3575 H3591 0.960 . S
H3576 C3560 0.931 . S
H3577 C3565 0.929 . S
H3578 C3566 0.960 . S
H3579 C3566 0.962 . S
H3580 C3566 0.960 . S
H3581 C3567 0.961 . S
H3582 C3567 0.961 . S
H3583 C3567 0.961 . S
H3584 C3568 0.931 . S
H3585 C3573 0.930 . S
H3586 C3574 0.956 . S
H3587 C3574 0.961 . S
H3588 C3574 0.961 . S
H3589 C3575 0.958 . S
H3590 C3575 0.961 . S
H3591 C3575 0.960 . S
C3592 C3593 1.391 . S
C3592 C3594 1.394 . S
C3592 H3608 0.931 . S
C3593 C3592 1.391 . S
C3593 C3597 1.376 . S
C3594 C3592 1.394 . S
C3594 C3595 1.369 . S
C3594 C3598 1.531 . S
C3595 C3594 1.369 . S
C3595 C3596 1.410 . S
C3595 C3603 1.503 . S
C3596 C3595 1.410 . S
C3596 C3597 1.392 . S
C3596 C3599 1.511 . S
C3597 C3593 1.376 . S
C3597 C3596 1.392 . S
C3597 H3609 0.929 . S
C3598 C3594 1.531 . S
C3598 H3610 0.960 . S
C3598 H3611 0.962 . S
C3598 H3612 0.960 . S
C3599 C3596 1.511 . S
C3599 H3613 0.961 . S
C3599 H3614 0.961 . S
C3599 H3615 0.961 . S
C3600 C3601 1.370 . S
C3600 C3602 1.363 . S
C3600 H3616 0.931 . S
C3601 C3600 1.370 . S
C3601 C3605 1.408 . S
C3602 C3600 1.363 . S
C3602 C3603 1.370 . S
C3602 C3606 1.524 . S
C3603 C3595 1.503 . S
C3603 C3602 1.370 . S
C3603 C3604 1.403 . S
C3604 C3603 1.403 . S
C3604 C3605 1.404 . S
C3604 C3607 1.539 . S
C3605 C3601 1.408 . S
C3605 C3604 1.404 . S
C3605 H3617 0.930 . S
C3606 C3602 1.524 . S
C3606 H3618 0.956 . S
C3606 H3619 0.961 . S
C3606 H3620 0.961 . S
C3607 C3604 1.539 . S
C3607 H3621 0.958 . S
C3607 H3622 0.961 . S
C3607 H3623 0.960 . S
H3608 C3592 0.931 . S
H3609 C3597 0.929 . S
H3610 C3598 0.960 . S
H3611 C3598 0.962 . S
H3612 C3598 0.960 . S
H3613 C3599 0.961 . S
H3614 C3599 0.961 . S
H3615 C3599 0.961 . S
H3616 C3600 0.931 . S
H3617 C3605 0.930 . S
H3618 C3606 0.956 . S
H3619 C3606 0.961 . S
H3620 C3606 0.961 . S
H3621 C3607 0.958 . S
H3622 C3607 0.961 . S
H3623 C3607 0.960 . S
C3624 C3625 1.391 . S
C3624 C3626 1.394 . S
C3624 H3640 0.931 . S
C3625 C3624 1.391 . S
C3625 C3629 1.376 . S
C3626 C3624 1.394 . S
C3626 C3627 1.369 . S
C3626 C3630 1.531 . S
C3627 C3626 1.369 . S
C3627 C3628 1.410 . S
C3627 C3635 1.503 . S
C3628 C3627 1.410 . S
C3628 C3629 1.392 . S
C3628 C3631 1.511 . S
C3629 C3625 1.376 . S
C3629 C3628 1.392 . S
C3629 H3641 0.929 . S
C3630 C3626 1.531 . S
C3630 H3642 0.960 . S
C3630 H3643 0.962 . S
C3630 H3644 0.960 . S
C3631 C3628 1.511 . S
C3631 H3645 0.961 . S
C3631 H3646 0.961 . S
C3631 H3647 0.961 . S
C3632 C3633 1.370 . S
C3632 C3634 1.363 . S
C3632 H3648 0.931 . S
C3633 C3632 1.370 . S
C3633 C3637 1.408 . S
C3634 C3632 1.363 . S
C3634 C3635 1.370 . S
C3634 C3638 1.524 . S
C3635 C3627 1.503 . S
C3635 C3634 1.370 . S
C3635 C3636 1.403 . S
C3636 C3635 1.403 . S
C3636 C3637 1.404 . S
C3636 C3639 1.539 . S
C3637 C3633 1.408 . S
C3637 C3636 1.404 . S
C3637 H3649 0.930 . S
C3638 C3634 1.524 . S
C3638 H3650 0.956 . S
C3638 H3651 0.961 . S
C3638 H3652 0.961 . S
C3639 C3636 1.539 . S
C3639 H3653 0.958 . S
C3639 H3654 0.961 . S
C3639 H3655 0.960 . S
H3640 C3624 0.931 . S
H3641 C3629 0.929 . S
H3642 C3630 0.960 . S
H3643 C3630 0.962 . S
H3644 C3630 0.960 . S
H3645 C3631 0.961 . S
H3646 C3631 0.961 . S
H3647 C3631 0.961 . S
H3648 C3632 0.931 . S
H3649 C3637 0.930 . S
H3650 C3638 0.956 . S
H3651 C3638 0.961 . S
H3652 C3638 0.961 . S
H3653 C3639 0.958 . S
H3654 C3639 0.961 . S
H3655 C3639 0.960 . S
C3656 C3657 1.391 . S
C3656 C3658 1.394 . S
C3656 H3672 0.931 . S
C3657 C3656 1.391 . S
C3657 C3661 1.376 . S
C3658 C3656 1.394 . S
C3658 C3659 1.369 . S
C3658 C3662 1.531 . S
C3659 C3658 1.369 . S
C3659 C3660 1.410 . S
C3659 C3667 1.503 . S
C3660 C3659 1.410 . S
C3660 C3661 1.392 . S
C3660 C3663 1.511 . S
C3661 C3657 1.376 . S
C3661 C3660 1.392 . S
C3661 H3673 0.929 . S
C3662 C3658 1.531 . S
C3662 H3674 0.960 . S
C3662 H3675 0.962 . S
C3662 H3676 0.960 . S
C3663 C3660 1.511 . S
C3663 H3677 0.961 . S
C3663 H3678 0.961 . S
C3663 H3679 0.961 . S
C3664 C3665 1.370 . S
C3664 C3666 1.363 . S
C3664 H3680 0.931 . S
C3665 C3664 1.370 . S
C3665 C3669 1.408 . S
C3666 C3664 1.363 . S
C3666 C3667 1.370 . S
C3666 C3670 1.524 . S
C3667 C3659 1.503 . S
C3667 C3666 1.370 . S
C3667 C3668 1.403 . S
C3668 C3667 1.403 . S
C3668 C3669 1.404 . S
C3668 C3671 1.539 . S
C3669 C3665 1.408 . S
C3669 C3668 1.404 . S
C3669 H3681 0.930 . S
C3670 C3666 1.524 . S
C3670 H3682 0.956 . S
C3670 H3683 0.961 . S
C3670 H3684 0.961 . S
C3671 C3668 1.539 . S
C3671 H3685 0.958 . S
C3671 H3686 0.961 . S
C3671 H3687 0.960 . S
H3672 C3656 0.931 . S
H3673 C3661 0.929 . S
H3674 C3662 0.960 . S
H3675 C3662 0.962 . S
H3676 C3662 0.960 . S
H3677 C3663 0.961 . S
H3678 C3663 0.961 . S
H3679 C3663 0.961 . S
H3680 C3664 0.931 . S
H3681 C3669 0.930 . S
H3682 C3670 0.956 . S
H3683 C3670 0.961 . S
H3684 C3670 0.961 . S
H3685 C3671 0.958 . S
H3686 C3671 0.961 . S
H3687 C3671 0.960 . S
C3688 C3689 1.391 . S
C3688 C3690 1.394 . S
C3688 H3704 0.931 . S
C3689 C3688 1.391 . S
C3689 C3693 1.376 . S
C3690 C3688 1.394 . S
C3690 C3691 1.369 . S
C3690 C3694 1.531 . S
C3691 C3690 1.369 . S
C3691 C3692 1.410 . S
C3691 C3699 1.503 . S
C3692 C3691 1.410 . S
C3692 C3693 1.392 . S
C3692 C3695 1.511 . S
C3693 C3689 1.376 . S
C3693 C3692 1.392 . S
C3693 H3705 0.929 . S
C3694 C3690 1.531 . S
C3694 H3706 0.960 . S
C3694 H3707 0.962 . S
C3694 H3708 0.960 . S
C3695 C3692 1.511 . S
C3695 H3709 0.961 . S
C3695 H3710 0.961 . S
C3695 H3711 0.961 . S
C3696 C3697 1.370 . S
C3696 C3698 1.363 . S
C3696 H3712 0.931 . S
C3697 C3696 1.370 . S
C3697 C3701 1.408 . S
C3698 C3696 1.363 . S
C3698 C3699 1.370 . S
C3698 C3702 1.524 . S
C3699 C3691 1.503 . S
C3699 C3698 1.370 . S
C3699 C3700 1.403 . S
C3700 C3699 1.403 . S
C3700 C3701 1.404 . S
C3700 C3703 1.539 . S
C3701 C3697 1.408 . S
C3701 C3700 1.404 . S
C3701 H3713 0.930 . S
C3702 C3698 1.524 . S
C3702 H3714 0.956 . S
C3702 H3715 0.961 . S
C3702 H3716 0.961 . S
C3703 C3700 1.539 . S
C3703 H3717 0.958 . S
C3703 H3718 0.961 . S
C3703 H3719 0.960 . S
H3704 C3688 0.931 . S
H3705 C3693 0.929 . S
H3706 C3694 0.960 . S
H3707 C3694 0.962 . S
H3708 C3694 0.960 . S
H3709 C3695 0.961 . S
H3710 C3695 0.961 . S
H3711 C3695 0.961 . S
H3712 C3696 0.931 . S
H3713 C3701 0.930 . S
H3714 C3702 0.956 . S
H3715 C3702 0.961 . S
H3716 C3702 0.961 . S
H3717 C3703 0.958 . S
H3718 C3703 0.961 . S
H3719 C3703 0.960 . S
C3720 C3721 1.391 1_455 S
C3720 C3722 1.394 . S
C3720 H3736 0.931 . S
C3721 C3720 1.391 1_655 S
C3721 C3725 1.376 . S
C3722 C3720 1.394 . S
C3722 C3723 1.369 1_455 S
C3722 C3726 1.531 . S
C3723 C3722 1.369 1_655 S
C3723 C3724 1.410 . S
C3723 C3731 1.503 . S
C3724 C3723 1.410 . S
C3724 C3725 1.392 . S
C3724 C3727 1.511 . S
C3725 C3721 1.376 . S
C3725 C3724 1.392 . S
C3725 H3737 0.929 . S
C3726 C3722 1.531 . S
C3726 H3738 0.960 . S
C3726 H3739 0.962 . S
C3726 H3740 0.960 . S
C3727 C3724 1.511 . S
C3727 H3741 0.961 . S
C3727 H3742 0.961 . S
C3727 H3743 0.961 . S
C3728 C3729 1.370 . S
C3728 C3730 1.363 . S
C3728 H3744 0.931 . S
C3729 C3728 1.370 . S
C3729 C3733 1.408 1_655 S
C3730 C3728 1.363 . S
C3730 C3731 1.370 . S
C3730 C3734 1.524 . S
C3731 C3723 1.503 . S
C3731 C3730 1.370 . S
C3731 C3732 1.403 1_655 S
C3732 C3731 1.403 1_455 S
C3732 C3733 1.404 . S
C3732 C3735 1.539 . S
C3733 C3729 1.408 1_455 S
C3733 C3732 1.404 . S
C3733 H3745 0.930 . S
C3734 C3730 1.524 . S
C3734 H3746 0.956 . S
C3734 H3747 0.961 . S
C3734 H3748 0.961 . S
C3735 C3732 1.539 . S
C3735 H3749 0.958 . S
C3735 H3750 0.961 . S
C3735 H3751 0.960 . S
H3736 C3720 0.931 . S
H3737 C3725 0.929 . S
H3738 C3726 0.960 . S
H3739 C3726 0.962 . S
H3740 C3726 0.960 . S
H3741 C3727 0.961 . S
H3742 C3727 0.961 . S
H3743 C3727 0.961 . S
H3744 C3728 0.931 . S
H3745 C3733 0.930 . S
H3746 C3734 0.956 . S
H3747 C3734 0.961 . S
H3748 C3734 0.961 . S
H3749 C3735 0.958 . S
H3750 C3735 0.961 . S
H3751 C3735 0.960 . S
C3752 C3753 1.391 . S
C3752 C3754 1.394 . S
C3752 H3768 0.931 . S
C3753 C3752 1.391 . S
C3753 C3757 1.376 . S
C3754 C3752 1.394 . S
C3754 C3755 1.369 . S
C3754 C3758 1.531 . S
C3755 C3754 1.369 . S
C3755 C3756 1.410 . S
C3755 C3763 1.503 . S
C3756 C3755 1.410 . S
C3756 C3757 1.392 . S
C3756 C3759 1.511 . S
C3757 C3753 1.376 . S
C3757 C3756 1.392 . S
C3757 H3769 0.929 . S
C3758 C3754 1.531 . S
C3758 H3770 0.960 . S
C3758 H3771 0.962 . S
C3758 H3772 0.960 . S
C3759 C3756 1.511 . S
C3759 H3773 0.961 . S
C3759 H3774 0.961 . S
C3759 H3775 0.961 . S
C3760 C3761 1.370 . S
C3760 C3762 1.363 . S
C3760 H3776 0.931 . S
C3761 C3760 1.370 . S
C3761 C3765 1.408 . S
C3762 C3760 1.363 . S
C3762 C3763 1.370 . S
C3762 C3766 1.524 . S
C3763 C3755 1.503 . S
C3763 C3762 1.370 . S
C3763 C3764 1.403 . S
C3764 C3763 1.403 . S
C3764 C3765 1.404 . S
C3764 C3767 1.539 . S
C3765 C3761 1.408 . S
C3765 C3764 1.404 . S
C3765 H3777 0.930 . S
C3766 C3762 1.524 . S
C3766 H3778 0.956 . S
C3766 H3779 0.961 . S
C3766 H3780 0.961 . S
C3767 C3764 1.539 . S
C3767 H3781 0.958 . S
C3767 H3782 0.961 . S
C3767 H3783 0.960 . S
H3768 C3752 0.931 . S
H3769 C3757 0.929 . S
H3770 C3758 0.960 . S
H3771 C3758 0.962 . S
H3772 C3758 0.960 . S
H3773 C3759 0.961 . S
H3774 C3759 0.961 . S
H3775 C3759 0.961 . S
H3776 C3760 0.931 . S
H3777 C3765 0.930 . S
H3778 C3766 0.956 . S
H3779 C3766 0.961 . S
H3780 C3766 0.961 . S
H3781 C3767 0.958 . S
H3782 C3767 0.961 . S
H3783 C3767 0.960 . S
C3784 C3785 1.391 . S
C3784 C3786 1.394 . S
C3784 H3800 0.931 . S
C3785 C3784 1.391 . S
C3785 C3789 1.376 1_545 S
C3786 C3784 1.394 . S
C3786 C3787 1.369 . S
C3786 C3790 1.531 . S
C3787 C3786 1.369 . S
C3787 C3788 1.410 1_545 S
C3787 C3795 1.503 . S
C3788 C3787 1.410 1_565 S
C3788 C3789 1.392 . S
C3788 C3791 1.511 . S
C3789 C3785 1.376 1_565 S
C3789 C3788 1.392 . S
C3789 H3801 0.929 . S
C3790 C3786 1.531 . S
C3790 H3802 0.960 . S
C3790 H3803 0.962 . S
C3790 H3804 0.960 . S
C3791 C3788 1.511 . S
C3791 H3805 0.961 . S
C3791 H3806 0.961 . S
C3791 H3807 0.961 . S
C3792 C3793 1.390 . S
C3792 C3794 1.351 . S
C3792 H3808 0.923 1_545 S
C3793 C3792 1.390 . S
C3793 C3797 1.408 . S
C3794 C3792 1.351 . S
C3794 C3795 1.370 . S
C3794 C3798 1.524 1_545 S
C3795 C3787 1.503 . S
C3795 C3794 1.370 . S
C3795 C3796 1.403 . S
C3796 C3795 1.403 . S
C3796 C3797 1.404 . S
C3796 C3799 1.539 . S
C3797 C3793 1.408 . S
C3797 C3796 1.404 . S
C3797 H3809 0.930 . S
C3798 C3794 1.524 1_565 S
C3798 H3810 0.956 1_565 S
C3798 H3811 0.961 . S
C3798 H3812 0.961 . S
C3799 C3796 1.539 . S
C3799 H3813 0.958 . S
C3799 H3814 0.961 . S
C3799 H3815 0.960 . S
H3800 C3784 0.931 . S
H3801 C3789 0.929 . S
H3802 C3790 0.960 . S
H3803 C3790 0.962 . S
H3804 C3790 0.960 . S
H3805 C3791 0.961 . S
H3806 C3791 0.961 . S
H3807 C3791 0.961 . S
H3808 C3792 0.923 1_565 S
H3809 C3797 0.930 . S
H3810 C3798 0.956 1_545 S
H3811 C3798 0.961 . S
H3812 C3798 0.961 . S
H3813 C3799 0.958 . S
H3814 C3799 0.961 . S
H3815 C3799 0.960 . S
C1513 C4 1.440 . S
C1521 C1125 1.454 . S
C1545 C38 1.701 . S
C1553 C1173 1.711 . S
C1585 C1221 1.473 . S
C1577 C74 1.473 . S
C1609 C76 1.445 . S
C1617 C1245 1.458 . S
C1641 C2 1.545 . S
C1649 C1317 1.581 . S
C1673 C40 1.548 . S
C1681 C1365 1.547 . S
C1705 C110 1.486 . S
C1713 C1293 1.539 . S
C1745 C1341 1.543 . S
C1737 C148 1.543 . S
C1777 C1269 1.577 . S
C1769 C182 1.532 . S
C1801 C184 1.500 . S
C1809 C1197 1.507 . S
C1841 C1101 1.454 . S
C1833 C112 1.418 . S
C1865 C146 1.651 . S
C1873 C1149 1.653 . S
C1897 C220 1.637 . S
C1905 C1413 1.638 . S
C1929 C254 1.775 . S
C1937 C1461 1.777 . S
C1969 C1485 1.636 . S
C1961 C290 1.657 . S
C1993 C292 1.539 . S
C2001 C669 1.528 . S
C2025 C218 1.687 . S
C2033 C741 1.699 . S
C2057 C256 1.559 . S
C2065 C789 1.564 . S
C2089 C326 1.683 . S
C2097 C717 1.681 . S
C2121 C364 1.593 . S
C2129 C765 1.593 . S
C2161 C693 1.661 . S
C2153 C398 1.696 . S
C2193 C1509 1.642 . S
C2185 C400 1.667 . S
C2225 C1389 1.525 . S
C2217 C328 1.516 . S
C2257 C1437 1.713 . S
C2249 C362 1.706 . S
C2281 C436 1.571 . S
C2289 C837 1.568 . S
C2313 C470 1.745 . S
C2321 C885 1.753 . S
C2345 C506 1.657 . S
C2353 C909 1.643 . S
C2377 C508 1.627 . S
C2385 C957 1.612 . S
C2417 C1029 1.698 . S
C2409 C434 1.698 . S
C2449 C1077 1.599 . S
C2441 C472 1.604 . S
C2481 C1005 1.754 . S
C2473 C542 1.741 . S
C2513 C1053 1.623 . S
C2505 C580 1.630 . S
C2537 C614 1.664 . S
C2545 C981 1.626 . S
C2577 C933 1.546 . S
C2569 C616 1.571 . S
C2601 C544 1.551 . S
C2609 C813 1.548 . S
C2641 C861 1.678 . S
C2633 C578 1.667 . S
C2673 C678 1.624 . S
C2665 C14 1.581 . S
C2697 C39 1.543 . S
C2705 C732 1.504 . S
C2737 C780 1.512 . S
C2729 C75 1.560 . S
C2769 C828 1.445 . S
C2761 C86 1.418 . S
C2801 C876 1.567 . S
C2793 C3 1.595 . S
C2833 C918 1.543 . S
C2825 C50 1.533 . S
C2857 C111 1.573 . S
C2865 C924 1.582 . S
C2889 C158 1.478 . S
C2897 C822 1.459 . S
C2921 C183 1.673 . S
C2929 C870 1.617 . S
C2953 C194 1.578 . S
C2961 C726 1.572 . S
C2993 C774 1.473 . S
C2985 C122 1.478 . S
C3017 C147 1.452 . S
C3025 C684 1.450 . S
C3057 C966 1.583 . S
C3049 C230 1.542 . S
C3081 C255 1.646 . S
C3089 C1020 1.618 . S
C3113 C291 1.587 . S
C3121 C1068 1.557 . S
C3153 C1116 1.329 . S
C3145 C302 1.272 . S
C3177 C219 1.559 . S
C3185 C1164 1.550 . S
C3209 C266 1.397 . S
C3217 C1212 1.431 . S
C3241 C327 1.341 . S
C3249 C1206 1.342 . S
C3273 C374 1.312 . S
C3281 C1110 1.379 . S
C3313 C1158 1.592 . S
C3305 C399 1.625 . S
C3337 C410 1.543 . S
C3345 C1014 1.544 . S
C3369 C338 1.572 . S
C3377 C1062 1.562 . S
C3409 C972 1.553 . S
C3401 C363 1.575 . S
C3441 C1254 1.429 . S
C3433 C446 1.327 . S
C3465 C471 1.401 . S
C3473 C1308 1.410 . S
C3497 C507 1.517 . S
C3505 C1356 1.480 . S
C3537 C1404 1.438 . S
C3529 C518 1.440 . S
C3569 C1452 1.626 . S
C3561 C435 1.644 . S
C3593 C482 1.625 . S
C3601 C1494 1.646 . S
C3625 C543 1.530 . S
C3633 C1500 1.508 . S
C3657 C590 1.572 . S
C3665 C1398 1.567 . S
C3697 C1446 1.643 . S
C3689 C615 1.700 . S
C3729 C1302 1.425 . S
C3721 C626 1.373 . S
C3761 C1350 1.487 . S
C3753 C554 1.476 . S
C3785 C579 1.349 . S
C3793 C1260 1.365 . S
