# Generated by pormake.
# Topology tsx, (6,3)-cn, num edge types: 1
# Building blocks:
#     Node 0, Type 0, BuildingBlock: JUFBIX_clean_sbu_0, # of connection points: 6
#     Node 1, Type 0, BuildingBlock: JUFBIX_clean_sbu_0, # of connection points: 6
#     Node 2, Type 1, BuildingBlock: QEWDON_clean_linker_0, # of connection points: 3
#     Node 3, Type 1, BuildingBlock: QEWDON_clean_linker_0, # of connection points: 3
#     Node 4, Type 1, BuildingBlock: QEWDON_clean_linker_0, # of connection points: 3
#     Node 5, Type 1, BuildingBlock: QEWDON_clean_linker_0, # of connection points: 3
#     Edge 6, Type (0, 1), BuildingBlock: FUNLAD_clean_linker_0, # of connection points: 2
#     Edge 7, Type (0, 1), BuildingBlock: FUNLAD_clean_linker_0, # of connection points: 2
#     Edge 8, Type (0, 1), BuildingBlock: FUNLAD_clean_linker_0, # of connection points: 2
#     Edge 9, Type (0, 1), BuildingBlock: FUNLAD_clean_linker_0, # of connection points: 2
#     Edge 10, Type (0, 1), BuildingBlock: FUNLAD_clean_linker_0, # of connection points: 2
#     Edge 11, Type (0, 1), BuildingBlock: FUNLAD_clean_linker_0, # of connection points: 2
#     Edge 12, Type (0, 1), BuildingBlock: FUNLAD_clean_linker_0, # of connection points: 2
#     Edge 13, Type (0, 1), BuildingBlock: FUNLAD_clean_linker_0, # of connection points: 2
#     Edge 14, Type (0, 1), BuildingBlock: FUNLAD_clean_linker_0, # of connection points: 2
#     Edge 15, Type (0, 1), BuildingBlock: FUNLAD_clean_linker_0, # of connection points: 2
#     Edge 16, Type (0, 1), BuildingBlock: FUNLAD_clean_linker_0, # of connection points: 2
#     Edge 17, Type (0, 1), BuildingBlock: FUNLAD_clean_linker_0, # of connection points: 2
# Relax obj value: 0.110
# Max RMSD: 0.171
# Mean RMSD: 0.147
data_MOF--net-tsx--node1-JUFBIX_clean_sbu_0--node2-QEWDON_clean_linker_0--edge1-FUNLAD_clean_linker_0
_symmetry_space_group_name_H-M    P1
_symmetry_Int_Tables_number       1
_symmetry_cell_setting            triclinic
loop_
_symmetry_equiv_pos_as_xyz
'x, y, z'
_cell_length_a     24.543073
_cell_length_b     29.806349
_cell_length_c     37.56455
_cell_angle_alpha  91.89464
_cell_angle_beta   103.95826
_cell_angle_gamma 98.338863
loop_
_atom_site_label
_atom_site_type_symbol
_atom_site_fract_x
_atom_site_fract_y
_atom_site_fract_z
_atom_type_partial_charge
Co0 Co 0.05395 0.97157 0.00446 0.0
C1 C 1.00026 -0.00449 0.93413 0.0
Co2 Co 0.98285 0.01034 0.00177 0.0
C3 C 0.13612 0.90797 0.01823 0.0
C4 C 0.1586 0.96352 0.98711 0.0
N5 N 0.11794 0.94557 0.00345 0.0
N6 N 0.18689 0.90241 0.01205 0.0
C7 C 0.20097 0.9373 0.99247 0.0
H8 H 0.1131 0.8856 0.03362 0.0
H9 H 0.15756 -0.00605 0.9722 0.0
C10 C 0.03561 0.98625 0.07211 0.0
N11 N 0.91885 0.03611 0.00311 0.0
C12 C 0.9009 0.07428 0.98939 0.0
C13 C 0.87766 0.01703 0.01864 0.0
N14 N 0.8498 0.07889 -0.00465 0.0
C15 C 0.83506 0.04297 0.01362 0.0
C16 C 0.95434 0.91422 0.99226 0.0
O17 O 0.06753 0.96754 0.05612 0.0
O18 O 0.99733 0.00634 0.05326 0.0
O19 O 0.93722 0.95222 -0.00599 0.0
O20 O 0.00715 0.91343 -0.0035 0.0
O21 O 0.96862 0.01395 0.95049 0.0
H22 H 0.87833 0.98589 0.03262 0.0
H23 H 0.92407 0.09757 0.9747 0.0
O24 O 0.03949 0.97598 0.9527 0.0
O25 O 0.09987 0.02967 0.01248 0.0
O26 O 0.02946 0.06842 0.00886 0.0
C27 C 0.08228 0.06763 0.01307 0.0
H28 H 0.23882 0.94299 0.98221 0.0
H29 H 0.79634 0.03626 0.02287 0.0
Co30 Co 0.57745 0.48119 0.5043 0.0
C31 C 0.51769 0.51093 0.43726 0.0
Co32 Co 0.50845 0.5201 0.50718 0.0
C33 C 0.65918 0.41789 0.51175 0.0
C34 C 0.67432 0.47212 0.47765 0.0
N35 N 0.63873 0.45509 0.49792 0.0
N36 N 0.70641 0.41135 0.50099 0.0
C37 C 0.71575 0.44541 0.47944 0.0
H38 H 0.64031 0.39656 0.52978 0.0
H39 H 0.67047 0.50226 0.46255 0.0
C40 C 0.56821 0.49095 0.57439 0.0
N41 N 0.44721 0.54577 0.51423 0.0
C42 C 0.42684 0.58369 0.5021 0.0
C43 C 0.41175 0.52726 0.53413 0.0
N44 N 0.3798 0.58912 0.51352 0.0
C45 C 0.37039 0.55366 0.53369 0.0
C46 C 0.47755 0.42474 0.49355 0.0
O47 O 0.59607 0.47212 0.55536 0.0
O48 O 0.52982 0.51303 0.55849 0.0
O49 O 0.46157 0.46245 0.49901 0.0
O50 O 0.52954 0.42394 0.49471 0.0
O51 O 0.48764 0.52719 0.45612 0.0
H52 H 0.4158 0.4964 0.54824 0.0
H53 H 0.44568 0.60644 0.48493 0.0
O54 O 0.55798 0.49056 0.45319 0.0
O55 O 0.62493 0.53845 0.51392 0.0
O56 O 0.55601 0.57771 0.51453 0.0
C57 C 0.60832 0.57649 0.51683 0.0
H58 H 0.74966 0.4504 0.46546 0.0
H59 H 0.33658 0.54766 0.54771 0.0
H60 H 0.0698 0.02237 0.41855 0.0
C61 C 0.08542 -0.00761 0.42961 0.0
C62 C 0.1097 0.966 0.40782 0.0
C63 C 0.08487 0.98183 0.46585 0.0
H64 H 0.15489 0.90922 0.4067 0.0
C65 C 0.13519 0.92959 0.42292 0.0
C66 C 0.13563 0.91892 0.45891 0.0
C67 C 0.10872 0.94386 0.47985 0.0
C68 C 0.06608 0.01352 0.49009 0.0
H69 H 0.10859 0.93435 0.50735 0.0
C70 C 0.02266 0.05364 0.46962 0.0
C71 C 0.01344 0.11537 0.52222 0.0
C72 C 0.09693 0.01646 0.53822 0.0
H73 H 0.12471 -0.00768 0.54843 0.0
C74 C 0.09119 0.05679 0.57231 0.0
H75 H 0.00431 0.0498 0.43992 0.0
C76 C 0.05263 0.10276 0.56613 0.0
H77 H 0.05294 0.1241 0.59006 0.0
H78 H 0.11406 0.05282 0.60018 0.0
H79 H 0.99742 0.04168 0.59558 0.0
C80 C 0.98678 0.00826 0.58146 0.0
C81 C 0.97119 0.97151 0.60103 0.0
C82 C 0.98835 0.00192 0.5444 0.0
H83 H 0.93581 0.90061 0.597 0.0
C84 C 0.95 0.9289 0.58229 0.0
C85 C 0.94424 0.92302 0.54432 0.0
C86 C 0.96441 0.95927 0.52557 0.0
C87 C 0.00413 0.04172 0.5225 0.0
H88 H 0.95988 0.9547 0.49619 0.0
C89 C 0.09126 0.09303 0.51318 0.0
C90 C 0.07232 0.1293 0.48043 0.0
C91 C 0.94289 0.05388 0.49363 0.0
H92 H 0.90214 0.0348 0.49425 0.0
C93 C 0.94484 0.09496 0.4638 0.0
H94 H 0.07274 0.07628 0.5193 0.0
C95 C 1.00343 0.12903 0.45794 0.0
H96 H 0.99502 0.15386 0.43783 0.0
H97 H 0.90436 0.10035 0.44674 0.0
H98 H 0.53849 0.51178 0.91425 0.0
C99 C 0.54925 0.47975 0.92416 0.0
C100 C 0.56567 0.44981 0.90057 0.0
C101 C 0.55054 0.46986 0.96074 0.0
H102 H 0.5969 0.38662 0.89576 0.0
C103 C 0.58342 0.4096 0.91372 0.0
C104 C 0.5859 0.3994 0.95013 0.0
C105 C 0.56891 0.42932 0.97349 0.0
C106 C 0.53759 0.50375 0.98606 0.0
H107 H 0.57021 0.42071 0.0014 0.0
C108 C 0.49492 0.54491 0.96704 0.0
C109 C 0.49253 0.60792 0.02072 0.0
C110 C 0.572 0.50645 0.03357 0.0
H111 H 0.59872 0.48119 0.04267 0.0
C112 C 0.57072 0.54752 0.06845 0.0
H113 H 0.47398 0.54081 0.93766 0.0
C114 C 0.53415 0.59471 0.06375 0.0
H115 H 0.53693 0.61625 0.08807 0.0
H116 H 0.59514 0.54314 0.09584 0.0
H117 H 0.4807 0.53422 0.09559 0.0
C118 C 0.46637 0.50112 0.08113 0.0
C119 C 0.44977 0.46457 0.10074 0.0
C120 C 0.46545 0.49472 0.04357 0.0
H121 H 0.41008 0.39468 0.09627 0.0
C122 C 0.42605 0.42243 0.0817 0.0
C123 C 0.41874 0.41659 0.04362 0.0
C124 C 0.43921 0.45249 0.02472 0.0
C125 C 0.48071 0.53422 0.02119 0.0
H126 H 0.43318 0.448 -0.00481 0.0
C127 C 0.56725 0.58328 0.00871 0.0
C128 C 0.54716 0.61971 0.97624 0.0
C129 C 0.41872 0.54765 -0.00578 0.0
H130 H 0.37816 0.52953 -0.00379 0.0
C131 C 0.41955 0.58833 0.96401 0.0
H132 H 0.54908 0.56704 0.01556 0.0
C133 C 0.47765 0.62085 0.95601 0.0
H134 H 0.46842 0.64448 0.93501 0.0
H135 H 0.37864 0.59432 0.94801 0.0
C136 C 0.10913 0.14947 0.00148 0.0
C137 C 0.12395 0.10966 0.01761 0.0
C138 C 0.15102 0.18739 0.00298 0.0
C139 C 0.20807 0.18608 0.02116 0.0
C140 C 0.22209 0.1468 0.03831 0.0
C141 C 0.18072 0.10885 0.03619 0.0
C142 C 0.25408 0.22526 0.0244 0.0
C143 C 0.25538 0.25601 -0.00101 0.0
C144 C 0.30223 0.29523 0.00428 0.0
C145 C 0.35742 0.29289 0.02548 0.0
C146 C 0.39763 0.33219 0.03563 0.0
C147 C 0.3839 0.37433 0.02416 0.0
H148 H 0.2488 0.33918 0.9728 0.0
C149 C 0.33112 0.37601 -0.00027 0.0
C150 C 0.29057 0.33663 0.98979 0.0
H151 H 0.31958 0.40827 0.9907 0.0
H152 H 0.06563 0.15082 0.98688 0.0
H153 H 0.13857 0.21765 0.99032 0.0
H154 H 0.26554 0.14514 0.05287 0.0
H155 H 0.19331 0.07867 0.04902 0.0
H156 H 0.28901 0.22803 0.04883 0.0
H157 H 0.22011 0.25388 0.9748 0.0
H158 H 0.36908 0.26114 0.03556 0.0
H159 H 0.43836 0.33014 0.05422 0.0
C160 C 0.27918 0.87576 0.03153 0.0
C161 C 0.21953 0.86648 0.02263 0.0
C162 C 0.31145 0.84061 0.03776 0.0
C163 C 0.28465 0.79505 0.0345 0.0
C164 C 0.22499 0.78605 0.02755 0.0
C165 C 0.1927 0.82143 0.02173 0.0
C166 C 0.31706 0.75612 0.03737 0.0
C167 C 0.36997 0.75919 0.03199 0.0
C168 C 0.40158 0.72013 0.03123 0.0
C169 C 0.45292 0.72733 0.02027 0.0
C170 C 0.48293 0.69151 0.01733 0.0
C171 C 0.46129 0.64734 0.02411 0.0
H172 H 0.34472 0.66918 0.05095 0.0
C173 C 0.4123 0.64058 0.03753 0.0
C174 C 0.38243 0.67638 0.04082 0.0
H175 H 0.39675 0.60737 0.04527 0.0
H176 H 0.30091 0.91039 0.03333 0.0
H177 H 0.35722 0.84955 0.04484 0.0
H178 H 0.20314 0.7514 0.02542 0.0
H179 H 0.14677 0.81339 0.01493 0.0
H180 H 0.29448 0.72348 0.04148 0.0
H181 H 0.39057 0.79155 0.02561 0.0
H182 H 0.46983 0.76081 0.01371 0.0
H183 H 0.52273 0.69835 0.00949 0.0
C184 C 0.85377 0.87568 0.97575 0.0
C185 C 0.91194 0.8722 0.98505 0.0
C186 C 0.81261 0.83702 0.97013 0.0
C187 C 0.8284 0.79357 0.97341 0.0
C188 C 0.88656 0.7899 0.98258 0.0
C189 C 0.92806 0.82886 0.98807 0.0
C190 C 0.7851 0.75232 0.97072 0.0
C191 C 0.73066 0.74986 0.9512 0.0
C192 C 0.68373 0.71375 0.95423 0.0
C193 C 0.62802 0.72371 0.9458 0.0
C194 C 0.58312 0.69278 0.95177 0.0
C195 C 0.59289 0.65092 0.96606 0.0
H196 H 0.73489 0.66111 0.97222 0.0
C197 C 0.64816 0.63993 0.97259 0.0
C198 C 0.69308 0.67091 0.96671 0.0
H199 H 0.65716 0.6075 0.98264 0.0
H200 H 0.8397 0.90852 0.97331 0.0
H201 H 0.76854 0.84172 0.96456 0.0
H202 H 0.8999 0.75686 0.98581 0.0
H203 H 0.97256 0.82511 -0.00466 0.0
H204 H 0.7982 0.72462 0.98704 0.0
H205 H 0.71863 0.77752 0.93442 0.0
H206 H 0.61947 0.75636 0.93593 0.0
H207 H 0.54151 0.70288 0.94662 0.0
C208 C 0.8396 0.15987 -0.00628 0.0
C209 C 0.81624 0.11396 0.9845 0.0
C210 C 0.80466 0.19346 0.98713 0.0
C211 C 0.74614 0.18143 0.97059 0.0
C212 C 0.72363 0.13568 0.9599 0.0
C213 C 0.75818 0.10218 0.96731 0.0
C214 C 0.7076 0.21575 0.9633 0.0
C215 C 0.71169 0.25175 0.987 0.0
C216 C 0.6738 0.28702 0.98009 0.0
C217 C 0.69051 0.3286 0.00148 0.0
C218 C 0.65946 0.3644 -0.00654 0.0
C219 C 0.61115 0.35923 0.96383 0.0
H220 H 0.60634 0.24907 0.93609 0.0
C221 C 0.5921 0.31684 0.94404 0.0
C222 C 0.62269 0.28094 0.95225 0.0
H223 H 0.55448 0.31198 0.92133 0.0
H224 H 0.8843 0.16944 0.00717 0.0
H225 H 0.82341 0.22867 -0.00518 0.0
H226 H 0.67885 0.12571 0.94672 0.0
H227 H 0.73958 0.06687 0.95995 0.0
H228 H 0.67407 0.20968 0.93815 0.0
H229 H 0.74538 0.25633 0.01224 0.0
H230 H 0.72907 0.33411 0.02347 0.0
H231 H 0.67511 0.39691 0.00901 0.0
C232 C 0.63589 0.65817 0.50564 0.0
C233 C 0.65036 0.61819 0.52156 0.0
C234 C 0.67821 0.69559 0.50669 0.0
C235 C 0.73532 0.69357 0.52422 0.0
C236 C 0.749 0.65421 0.54135 0.0
C237 C 0.70716 0.61672 0.53964 0.0
C238 C 0.78172 0.73215 0.52669 0.0
C239 C 0.78306 0.7619 0.50057 0.0
C240 C 0.82984 0.80099 0.50516 0.0
C241 C 0.88503 0.79906 0.52654 0.0
C242 C 0.92488 0.83859 0.5365 0.0
C243 C 0.9107 0.88046 0.52466 0.0
H244 H 0.77613 0.84421 0.47298 0.0
C245 C 0.85808 0.8816 0.49986 0.0
C246 C 0.81791 0.84202 0.49012 0.0
H247 H 0.84622 0.91366 0.49054 0.0
H248 H 0.59234 0.65997 0.49141 0.0
H249 H 0.66611 0.72599 0.49409 0.0
H250 H 0.79253 0.65208 0.55546 0.0
H251 H 0.71938 0.58631 0.55226 0.0
H252 H 0.81677 0.73533 0.55109 0.0
H253 H 0.74765 0.75924 0.4764 0.0
H254 H 0.89684 0.76753 0.53704 0.0
H255 H 0.96551 0.83697 0.55538 0.0
C256 C 0.7977 0.38269 0.50926 0.0
C257 C 0.74005 0.37554 0.5098 0.0
C258 C 0.82965 0.34734 0.51477 0.0
C259 C 0.80487 0.30381 0.52143 0.0
C260 C 0.74754 0.29693 0.52283 0.0
C261 C 0.71549 0.33244 0.51725 0.0
C262 C 0.83599 0.2642 0.5244 0.0
C263 C 0.89311 0.26793 0.53138 0.0
C264 C 0.92347 0.22844 0.53022 0.0
C265 C 0.97758 0.23567 0.52309 0.0
C266 C 0.00674 0.19928 0.52037 0.0
C267 C 0.98184 0.15482 0.52407 0.0
H268 H 0.86012 0.17745 0.54379 0.0
C269 C 0.92956 0.1479 0.53367 0.0
C270 C 0.90028 0.1842 0.53635 0.0
H271 H 0.91121 0.11433 0.53908 0.0
H272 H 0.81817 0.41563 0.50408 0.0
H273 H 0.87305 0.35431 0.51247 0.0
H274 H 0.72714 0.26373 0.52763 0.0
H275 H 0.67107 0.32571 0.51753 0.0
H276 H 0.81019 0.23075 0.51936 0.0
H277 H 0.91918 0.30122 0.53648 0.0
H278 H 0.99715 0.26954 0.51921 0.0
H279 H 0.04857 0.20594 0.51519 0.0
C280 C 0.3769 0.38657 0.47571 0.0
C281 C 0.435 0.38298 0.48551 0.0
C282 C 0.33571 0.34788 0.46986 0.0
C283 C 0.35164 0.30452 0.47372 0.0
C284 C 0.40974 0.3008 0.48294 0.0
C285 C 0.45117 0.33969 0.48844 0.0
C286 C 0.30876 0.26358 0.47251 0.0
C287 C 0.25368 0.26063 0.45432 0.0
C288 C 0.20871 0.22482 0.46019 0.0
C289 C 0.15809 0.21266 0.4326 0.0
C290 C 0.11347 0.1814 0.43876 0.0
C291 C 0.11851 0.16237 0.4729 0.0
H292 H 0.25088 0.21562 0.51677 0.0
C293 C 0.16907 0.17491 0.50051 0.0
C294 C 0.21356 0.20572 0.49428 0.0
H295 H 0.17419 0.16182 0.52745 0.0
H296 H 0.36302 0.41946 0.47313 0.0
H297 H 0.29156 0.35243 0.46394 0.0
H298 H 0.4231 0.26781 0.48655 0.0
H299 H 0.49567 0.33596 0.49604 0.0
H300 H 0.32276 0.23575 0.48844 0.0
H301 H 0.24051 0.286 0.43534 0.0
H302 H 0.15308 0.22736 0.40623 0.0
H303 H 0.0756 0.17197 0.41664 0.0
C304 C 0.37208 0.66956 0.50299 0.0
C305 C 0.34654 0.62531 0.50677 0.0
C306 C 0.34016 0.70512 0.49889 0.0
C307 C 0.28198 0.69696 0.49847 0.0
C308 C 0.25619 0.65244 0.50096 0.0
C309 C 0.28815 0.61704 0.5053 0.0
C310 C 0.24641 0.73357 0.49404 0.0
C311 C 0.26758 0.77745 0.50471 0.0
C312 C 0.23298 0.81438 0.4968 0.0
C313 C 0.25969 0.85686 0.48987 0.0
C314 C 0.22792 0.89129 0.47873 0.0
C315 C 0.16904 0.88417 0.47512 0.0
H316 H 0.15268 0.77599 0.50114 0.0
C317 C 0.14249 0.84278 0.48415 0.0
C318 C 0.17424 0.80793 0.49483 0.0
H319 H 0.09707 0.83689 0.48163 0.0
H320 H 0.41695 0.67687 0.504 0.0
H321 H 0.36114 0.7387 0.49566 0.0
H322 H 0.2113 0.64509 0.50005 0.0
H323 H 0.26706 0.5831 0.50743 0.0
H324 H 0.20131 0.72378 0.48136 0.0
H325 H 0.31264 0.78732 0.5174 0.0
H326 H 0.30491 0.86281 0.49158 0.0
H327 H 0.24908 0.92323 0.47203 0.0
C328 C 0.09033 0.97242 0.13537 0.0
C329 C 0.04163 0.98474 0.11208 0.0
C330 C 0.09544 0.97192 0.17329 0.0
C331 C 0.05165 0.98345 0.1884 0.0
C332 C 1.00275 -0.00507 0.16496 0.0
C333 C 0.99796 -0.00401 0.1273 0.0
C334 C 0.05401 0.98203 0.22812 0.0
C335 C 0.10274 -0.0098 0.25473 0.0
C336 C 0.10458 0.98768 0.29443 0.0
C337 C 0.15468 0.979 0.31848 0.0
C338 C 0.157 0.97334 0.35553 0.0
C339 C 0.10921 0.97646 0.36939 0.0
H340 H 0.01909 0.00195 0.29158 0.0
C341 C 0.06 0.9875 0.34578 0.0
C342 C 0.05774 -0.00672 0.30874 0.0
H343 H 0.02259 -0.00963 0.35567 0.0
H344 H 0.12452 0.96339 0.12436 0.0
H345 H 0.13307 0.96162 0.19046 0.0
H346 H 0.96821 0.00348 0.17587 0.0
H347 H 0.95964 0.00528 0.11006 0.0
H348 H 0.01358 0.97457 0.23533 0.0
H349 H 0.14304 -0.00247 0.24726 0.0
H350 H 0.19174 0.97539 0.30839 0.0
H351 H 0.19608 0.96601 0.37325 0.0
C352 C 0.02803 0.97694 0.87639 0.0
C353 C 0.99094 -0.00454 0.89384 0.0
C354 C 0.01868 0.97545 0.83825 0.0
C355 C 0.97212 -0.00729 0.81669 0.0
C356 C 0.93474 0.01085 0.83405 0.0
C357 C 0.94424 0.01253 0.87232 0.0
C358 C 0.96049 -0.00949 0.77605 0.0
C359 C 1.00219 -0.00799 0.75833 0.0
C360 C 0.99162 0.98806 0.71777 0.0
C361 C 0.03493 0.00691 0.70174 0.0
C362 C 0.02774 0.00215 0.66377 0.0
C363 C 0.97731 0.97787 0.6411 0.0
H364 H 0.90723 0.94779 0.70656 0.0
C365 C 0.93389 0.95886 0.65707 0.0
C366 C 0.94093 0.96388 0.69508 0.0
H367 H 0.89454 0.94005 0.64017 0.0
H368 H 0.06413 0.96312 0.89215 0.0
H369 H 0.04733 0.9598 0.82577 0.0
H370 H 0.89825 0.02392 0.81798 0.0
H371 H 0.91467 0.02674 0.88496 0.0
H372 H 0.91673 -0.01066 0.76054 0.0
H373 H 0.04628 -0.00209 0.77407 0.0
H374 H 0.07459 0.02523 0.71866 0.0
H375 H 0.0622 0.01662 0.6522 0.0
C376 C 0.55793 0.51724 0.63572 0.0
C377 C 0.57903 0.48746 0.61455 0.0
C378 C 0.56493 0.51312 0.67334 0.0
C379 C 0.59226 0.4784 0.69068 0.0
C380 C 0.61513 0.44961 0.66972 0.0
C381 C 0.60867 0.4541 0.632 0.0
C382 C 0.5978 0.47131 0.73037 0.0
C383 C 0.56353 0.48645 0.74975 0.0
C384 C 0.56645 0.47808 0.78897 0.0
C385 C 0.52009 0.48506 0.80319 0.0
C386 C 0.52012 0.47669 0.83958 0.0
C387 C 0.56659 0.46106 0.86255 0.0
H388 H 0.65143 0.45972 0.80333 0.0
C389 C 0.61369 0.45529 0.84876 0.0
C390 C 0.61385 0.46392 0.81247 0.0
H391 H 0.6507 0.4443 0.86617 0.0
H392 H 0.53585 0.54392 0.6232 0.0
H393 H 0.54895 0.53746 0.68853 0.0
H394 H 0.6371 0.42297 0.68241 0.0
H395 H 0.62563 0.4308 0.61639 0.0
H396 H 0.629 0.45062 0.74311 0.0
H397 H 0.52931 0.50382 0.73594 0.0
H398 H 0.48323 0.49642 0.78592 0.0
H399 H 0.48325 0.48143 0.84949 0.0
C400 C 0.54536 0.50314 0.37809 0.0
C401 C 0.50596 0.51446 0.3971 0.0
C402 C 0.53373 0.50371 0.33996 0.0
C403 C 0.48188 0.5149 0.3198 0.0
C404 C 0.44347 0.5281 0.33888 0.0
C405 C 0.45531 0.52782 0.37725 0.0
C406 C 0.46719 0.51291 0.27897 0.0
C407 C 0.48676 0.48342 0.25903 0.0
C408 C 0.47434 0.47954 0.21826 0.0
C409 C 0.48669 0.44091 0.2013 0.0
C410 C 0.47827 0.43611 0.16326 0.0
C411 C 0.45734 0.46993 0.14113 0.0
H412 H 0.44442 0.54435 0.20808 0.0
C413 C 0.44482 0.50871 0.15794 0.0
C414 C 0.45335 0.51358 0.19616 0.0
H415 H 0.42828 0.53524 0.14157 0.0
H416 H 0.58532 0.4936 0.39264 0.0
H417 H 0.56563 0.49539 0.32646 0.0
H418 H 0.40361 0.53752 0.32403 0.0
H419 H 0.42431 0.53703 0.39122 0.0
H420 H 0.43746 0.53433 0.26542 0.0
H421 H 0.51211 0.45938 0.27326 0.0
H422 H 0.50338 0.41434 0.21758 0.0
H423 H 0.4892 0.40618 0.15123 0.0
loop_
_geom_bond_atom_site_label_1
_geom_bond_atom_site_label_2
_geom_bond_distance
_geom_bond_site_symmetry_2
_ccdc_geom_bond_type
Co0 N5 2.057 . S
Co0 O17 2.021 . S
Co0 O20 2.062 . S
Co0 O24 2.117 1_554 S
Co0 O25 2.020 1_565 S
C1 O21 1.259 1_455 S
C1 O24 1.258 1_545 S
Co2 N11 2.057 . S
Co2 O18 2.117 1_655 S
Co2 O19 2.019 1_545 S
Co2 O21 2.021 1_554 S
Co2 O26 2.062 1_655 S
C3 N5 1.316 . S
C3 N6 1.347 . S
C3 H8 0.931 . S
C4 N5 1.375 1_556 S
C4 C7 1.350 . S
C4 H9 0.930 . S
N5 Co0 2.057 . S
N5 C3 1.316 . S
N5 C4 1.375 1_554 S
N6 C3 1.347 . S
N6 C7 1.373 1_554 S
C7 C4 1.350 . S
C7 N6 1.373 1_556 S
C7 H28 0.931 . S
H8 C3 0.931 . S
H9 C4 0.930 . S
C10 O17 1.264 . S
C10 O18 1.254 1_565 S
N11 Co2 2.057 . S
N11 C12 1.316 1_554 S
N11 C13 1.375 . S
C12 N11 1.316 1_556 S
C12 N14 1.347 1_556 S
C12 H23 0.931 . S
C13 N11 1.375 . S
C13 C15 1.350 . S
C13 H22 0.930 . S
N14 C12 1.347 1_554 S
N14 C15 1.373 . S
C15 C13 1.350 . S
C15 N14 1.373 . S
C15 H29 0.931 . S
C16 O19 1.256 . S
C16 O20 1.255 1_655 S
O17 Co0 2.021 . S
O17 C10 1.264 . S
O18 Co2 2.117 1_455 S
O18 C10 1.254 1_545 S
O19 Co2 2.019 1_565 S
O19 C16 1.256 . S
O20 Co0 2.062 . S
O20 C16 1.255 1_455 S
O21 C1 1.259 1_655 S
O21 Co2 2.021 1_556 S
H22 C13 0.930 . S
H23 C12 0.931 . S
O24 Co0 2.117 1_556 S
O24 C1 1.258 1_565 S
O25 Co0 2.020 1_545 S
O25 C27 1.256 . S
O26 Co2 2.062 1_455 S
O26 C27 1.255 . S
C27 O25 1.256 . S
C27 O26 1.255 . S
H28 C7 0.931 . S
H29 C15 0.931 . S
Co30 N35 2.057 . S
Co30 O47 2.021 . S
Co30 O50 2.062 . S
Co30 O54 2.117 . S
Co30 O55 2.020 . S
C31 O51 1.259 . S
C31 O54 1.258 . S
Co32 N41 2.057 . S
Co32 O48 2.117 . S
Co32 O49 2.020 . S
Co32 O51 2.021 . S
Co32 O56 2.062 . S
C33 N35 1.316 . S
C33 N36 1.347 . S
C33 H38 0.931 . S
C34 N35 1.375 . S
C34 C37 1.350 . S
C34 H39 0.930 . S
N35 Co30 2.057 . S
N35 C33 1.316 . S
N35 C34 1.375 . S
N36 C33 1.347 . S
N36 C37 1.373 . S
C37 C34 1.350 . S
C37 N36 1.373 . S
C37 H58 0.931 . S
H38 C33 0.931 . S
H39 C34 0.930 . S
C40 O47 1.259 . S
C40 O48 1.258 . S
N41 Co32 2.057 . S
N41 C42 1.316 . S
N41 C43 1.375 . S
C42 N41 1.316 . S
C42 N44 1.347 . S
C42 H53 0.931 . S
C43 N41 1.375 . S
C43 C45 1.350 . S
C43 H52 0.930 . S
N44 C42 1.347 . S
N44 C45 1.373 . S
C45 C43 1.350 . S
C45 N44 1.373 . S
C45 H59 0.931 . S
C46 O49 1.256 . S
C46 O50 1.255 . S
O47 Co30 2.021 . S
O47 C40 1.259 . S
O48 Co32 2.117 . S
O48 C40 1.258 . S
O49 Co32 2.020 . S
O49 C46 1.256 . S
O50 Co30 2.062 . S
O50 C46 1.255 . S
O51 C31 1.259 . S
O51 Co32 2.021 . S
H52 C43 0.930 . S
H53 C42 0.931 . S
O54 Co30 2.117 . S
O54 C31 1.258 . S
O55 Co30 2.020 . S
O55 C57 1.256 . S
O56 Co32 2.062 . S
O56 C57 1.255 . S
C57 O55 1.256 . S
C57 O56 1.255 . S
H58 C37 0.931 . S
H59 C45 0.931 . S
H60 C61 0.949 . S
C61 H60 0.949 . S
C61 C62 1.395 1_545 S
C61 C63 1.391 . S
C62 C61 1.395 1_565 S
C62 C65 1.390 . S
C63 C61 1.391 . S
C63 C67 1.387 1_545 S
C63 C68 1.491 . S
H64 C65 0.950 . S
C65 C62 1.390 . S
C65 H64 0.950 . S
C65 C66 1.378 . S
C66 C65 1.378 . S
C66 C67 1.409 . S
C67 C63 1.387 1_565 S
C67 C66 1.409 . S
C67 H69 0.951 . S
C68 C63 1.491 . S
C68 C70 1.382 1_455 S
C68 C72 1.404 . S
H69 C67 0.951 . S
C70 C68 1.382 1_655 S
C70 C71 1.390 . S
C70 H75 0.949 . S
C71 C70 1.390 . S
C71 C76 1.399 1_655 S
C72 C68 1.404 . S
C72 H73 0.950 . S
C72 C74 1.375 . S
H73 C72 0.950 . S
C74 C72 1.375 . S
C74 C76 1.382 . S
C74 H78 0.950 . S
H75 C70 0.949 . S
C76 C71 1.399 1_455 S
C76 C74 1.382 . S
C76 H77 0.952 . S
H77 C76 0.952 . S
H78 C74 0.950 . S
H79 C80 0.950 . S
C80 H79 0.950 . S
C80 C81 1.394 1_445 S
C80 C82 1.391 1_455 S
C81 C80 1.394 1_665 S
C81 C84 1.390 . S
C82 C80 1.391 1_655 S
C82 C86 1.387 1_545 S
C82 C87 1.491 1_655 S
H83 C84 0.950 . S
C84 C81 1.390 . S
C84 H83 0.950 . S
C84 C85 1.378 . S
C85 C84 1.378 . S
C85 C86 1.409 . S
C86 C82 1.387 1_565 S
C86 C85 1.409 . S
C86 H88 0.951 . S
C87 C82 1.491 1_455 S
C87 C89 1.382 . S
C87 C91 1.404 1_455 S
H88 C86 0.951 . S
C89 C87 1.382 . S
C89 C90 1.390 . S
C89 H94 0.949 . S
C90 C89 1.390 . S
C90 C95 1.399 . S
C91 C87 1.404 1_655 S
C91 H92 0.950 . S
C91 C93 1.375 . S
H92 C91 0.950 . S
C93 C91 1.375 . S
C93 C95 1.382 1_655 S
C93 H97 0.950 . S
H94 C89 0.949 . S
C95 C90 1.399 . S
C95 C93 1.382 1_455 S
C95 H96 0.952 . S
H96 C95 0.952 . S
H97 C93 0.950 . S
H98 C99 0.949 . S
C99 H98 0.949 . S
C99 C100 1.395 . S
C99 C101 1.391 . S
C100 C99 1.395 . S
C100 C103 1.390 . S
C101 C99 1.391 . S
C101 C105 1.387 . S
C101 C106 1.491 1_556 S
H102 C103 0.950 . S
C103 C100 1.390 . S
C103 H102 0.950 . S
C103 C104 1.378 . S
C104 C103 1.378 . S
C104 C105 1.409 . S
C105 C101 1.387 . S
C105 C104 1.409 . S
C105 H107 0.951 1_556 S
C106 C101 1.491 1_554 S
C106 C108 1.382 1_554 S
C106 C110 1.404 . S
H107 C105 0.951 1_554 S
C108 C106 1.382 1_556 S
C108 C109 1.390 1_556 S
C108 H113 0.949 . S
C109 C108 1.390 1_554 S
C109 C114 1.399 . S
C110 C106 1.404 . S
C110 H111 0.950 . S
C110 C112 1.375 . S
H111 C110 0.950 . S
C112 C110 1.375 . S
C112 C114 1.382 . S
C112 H116 0.950 . S
H113 C108 0.949 . S
C114 C109 1.399 . S
C114 C112 1.382 . S
C114 H115 0.952 . S
H115 C114 0.952 . S
H116 C112 0.950 . S
H117 C118 0.949 . S
C118 H117 0.949 . S
C118 C119 1.395 . S
C118 C120 1.391 . S
C119 C118 1.395 . S
C119 C122 1.390 . S
C120 C118 1.391 . S
C120 C124 1.387 . S
C120 C125 1.491 . S
H121 C122 0.950 . S
C122 C119 1.390 . S
C122 H121 0.950 . S
C122 C123 1.378 . S
C123 C122 1.378 . S
C123 C124 1.409 . S
C124 C120 1.387 . S
C124 C123 1.409 . S
C124 H126 0.951 1_554 S
C125 C120 1.491 . S
C125 C127 1.382 . S
C125 C129 1.404 1_554 S
H126 C124 0.951 1_556 S
C127 C125 1.382 . S
C127 C128 1.390 . S
C127 H132 0.949 . S
C128 C127 1.390 . S
C128 C133 1.399 1_554 S
C129 C125 1.404 1_556 S
C129 H130 0.950 . S
C129 C131 1.375 . S
H130 C129 0.950 . S
C131 C129 1.375 . S
C131 C133 1.382 . S
C131 H135 0.950 . S
H132 C127 0.949 . S
C133 C128 1.399 1_556 S
C133 C131 1.382 . S
C133 H134 0.952 . S
H134 C133 0.952 . S
H135 C131 0.950 . S
C136 C137 1.386 1_556 S
C136 C138 1.383 . S
C136 H152 0.951 . S
C137 C136 1.386 1_554 S
C137 C141 1.383 . S
C138 C136 1.383 . S
C138 C139 1.402 1_556 S
C138 H153 0.951 . S
C139 C138 1.402 1_554 S
C139 C140 1.375 . S
C139 C142 1.481 . S
C140 C139 1.375 . S
C140 C141 1.367 . S
C140 H154 0.951 . S
C141 C137 1.383 . S
C141 C140 1.367 . S
C141 H155 0.950 . S
C142 C139 1.481 . S
C142 C143 1.297 . S
C142 H156 0.950 . S
C143 C142 1.297 . S
C143 C144 1.479 . S
C143 H157 0.950 1_554 S
C144 C143 1.479 . S
C144 C145 1.375 1_554 S
C144 C150 1.404 . S
C145 C144 1.375 1_556 S
C145 C146 1.368 . S
C145 H158 0.950 . S
C146 C145 1.368 . S
C146 C147 1.388 1_556 S
C146 H159 0.955 . S
C147 C146 1.388 1_554 S
C147 C149 1.384 . S
H148 C150 0.949 . S
C149 C147 1.384 . S
C149 C150 1.385 . S
C149 H151 0.950 . S
C150 C144 1.404 . S
C150 H148 0.949 . S
C150 C149 1.385 . S
H151 C149 0.950 . S
H152 C136 0.951 . S
H153 C138 0.951 . S
H154 C140 0.951 . S
H155 C141 0.950 . S
H156 C142 0.950 . S
H157 C143 0.950 1_556 S
H158 C145 0.950 . S
H159 C146 0.955 . S
C160 C161 1.386 . S
C160 C162 1.383 . S
C160 H176 0.951 1_554 S
C161 C160 1.386 . S
C161 C165 1.383 . S
C162 C160 1.383 . S
C162 C163 1.402 . S
C162 H177 0.951 1_554 S
C163 C162 1.402 . S
C163 C164 1.375 . S
C163 C166 1.481 . S
C164 C163 1.375 . S
C164 C165 1.367 . S
C164 H178 0.951 . S
C165 C161 1.383 . S
C165 C164 1.367 . S
C165 H179 0.950 . S
C166 C163 1.481 . S
C166 C167 1.297 . S
C166 H180 0.950 . S
C167 C166 1.297 . S
C167 C168 1.479 . S
C167 H181 0.950 . S
C168 C167 1.479 . S
C168 C169 1.375 1_554 S
C168 C174 1.404 . S
C169 C168 1.375 1_556 S
C169 C170 1.369 . S
C169 H182 0.950 . S
C170 C169 1.369 . S
C170 C171 1.392 1_556 S
C170 H183 0.951 . S
C171 C170 1.392 1_554 S
C171 C173 1.384 . S
H172 C174 0.949 . S
C173 C171 1.384 . S
C173 C174 1.385 . S
C173 H175 0.950 . S
C174 C168 1.404 . S
C174 H172 0.949 . S
C174 C173 1.385 . S
H175 C173 0.950 . S
H176 C160 0.951 1_556 S
H177 C162 0.951 1_556 S
H178 C164 0.951 . S
H179 C165 0.950 . S
H180 C166 0.950 . S
H181 C167 0.950 . S
H182 C169 0.950 . S
H183 C170 0.951 . S
C184 C185 1.386 1_556 S
C184 C186 1.383 . S
C184 H200 0.951 . S
C185 C184 1.386 1_554 S
C185 C189 1.383 . S
C186 C184 1.383 . S
C186 C187 1.402 . S
C186 H201 0.951 . S
C187 C186 1.402 . S
C187 C188 1.375 1_556 S
C187 C190 1.481 . S
C188 C187 1.375 1_554 S
C188 C189 1.367 . S
C188 H202 0.951 . S
C189 C185 1.383 . S
C189 C188 1.367 . S
C189 H203 0.950 . S
C190 C187 1.481 . S
C190 C191 1.297 . S
C190 H204 0.950 1_556 S
C191 C190 1.297 . S
C191 C192 1.479 . S
C191 H205 0.950 . S
C192 C191 1.479 . S
C192 C193 1.375 . S
C192 C198 1.404 . S
C193 C192 1.375 . S
C193 C194 1.371 . S
C193 H206 0.950 . S
C194 C193 1.371 . S
C194 C195 1.392 1_556 S
C194 H207 0.949 1_556 S
C195 C194 1.392 1_554 S
C195 C197 1.390 . S
H196 C198 0.949 . S
C197 C195 1.390 . S
C197 C198 1.379 1_554 S
C197 H199 0.951 . S
C198 C192 1.404 . S
C198 H196 0.949 . S
C198 C197 1.379 1_556 S
H199 C197 0.951 . S
H200 C184 0.951 . S
H201 C186 0.951 . S
H202 C188 0.951 . S
H203 C189 0.950 . S
H204 C190 0.950 1_554 S
H205 C191 0.950 . S
H206 C193 0.950 . S
H207 C194 0.949 1_554 S
C208 C209 1.386 . S
C208 C210 1.383 . S
C208 H224 0.951 . S
C209 C208 1.386 . S
C209 C213 1.383 . S
C210 C208 1.383 . S
C210 C211 1.402 . S
C210 H225 0.951 . S
C211 C210 1.402 . S
C211 C212 1.375 . S
C211 C214 1.481 . S
C212 C211 1.375 . S
C212 C213 1.367 . S
C212 H226 0.951 . S
C213 C209 1.383 . S
C213 C212 1.367 . S
C213 H227 0.950 . S
C214 C211 1.481 . S
C214 C215 1.297 . S
C214 H228 0.950 . S
C215 C214 1.297 . S
C215 C216 1.479 . S
C215 H229 0.950 . S
C216 C215 1.479 . S
C216 C217 1.375 . S
C216 C222 1.404 . S
C217 C216 1.375 . S
C217 C218 1.369 . S
C217 H230 0.950 . S
C218 C217 1.369 . S
C218 C219 1.392 . S
C218 H231 0.951 . S
C219 C218 1.392 . S
C219 C221 1.384 . S
H220 C222 0.949 . S
C221 C219 1.384 . S
C221 C222 1.385 . S
C221 H223 0.950 . S
C222 C216 1.404 . S
C222 H220 0.949 . S
C222 C221 1.385 . S
H223 C221 0.950 . S
H224 C208 0.951 . S
H225 C210 0.951 . S
H226 C212 0.951 . S
H227 C213 0.950 . S
H228 C214 0.950 . S
H229 C215 0.950 . S
H230 C217 0.950 . S
H231 C218 0.951 . S
C232 C233 1.386 . S
C232 C234 1.383 . S
C232 H248 0.951 . S
C233 C232 1.386 . S
C233 C237 1.383 . S
C234 C232 1.383 . S
C234 C235 1.402 . S
C234 H249 0.951 . S
C235 C234 1.402 . S
C235 C236 1.375 . S
C235 C238 1.481 . S
C236 C235 1.375 . S
C236 C237 1.367 . S
C236 H250 0.951 . S
C237 C233 1.383 . S
C237 C236 1.367 . S
C237 H251 0.950 . S
C238 C235 1.481 . S
C238 C239 1.297 . S
C238 H252 0.950 . S
C239 C238 1.297 . S
C239 C240 1.479 . S
C239 H253 0.950 . S
C240 C239 1.479 . S
C240 C241 1.375 . S
C240 C246 1.404 . S
C241 C240 1.375 . S
C241 C242 1.369 . S
C241 H254 0.950 . S
C242 C241 1.369 . S
C242 C243 1.392 . S
C242 H255 0.951 . S
C243 C242 1.392 . S
C243 C245 1.384 . S
H244 C246 0.949 . S
C245 C243 1.384 . S
C245 C246 1.385 . S
C245 H247 0.950 . S
C246 C240 1.404 . S
C246 H244 0.949 . S
C246 C245 1.385 . S
H247 C245 0.950 . S
H248 C232 0.951 . S
H249 C234 0.951 . S
H250 C236 0.951 . S
H251 C237 0.950 . S
H252 C238 0.950 . S
H253 C239 0.950 . S
H254 C241 0.950 . S
H255 C242 0.951 . S
C256 C257 1.386 . S
C256 C258 1.383 . S
C256 H272 0.951 . S
C257 C256 1.386 . S
C257 C261 1.383 . S
C258 C256 1.383 . S
C258 C259 1.402 . S
C258 H273 0.951 . S
C259 C258 1.402 . S
C259 C260 1.375 . S
C259 C262 1.481 . S
C260 C259 1.375 . S
C260 C261 1.367 . S
C260 H274 0.951 . S
C261 C257 1.383 . S
C261 C260 1.367 . S
C261 H275 0.950 . S
C262 C259 1.481 . S
C262 C263 1.297 . S
C262 H276 0.950 . S
C263 C262 1.297 . S
C263 C264 1.479 . S
C263 H277 0.950 . S
C264 C263 1.479 . S
C264 C265 1.375 . S
C264 C270 1.404 . S
C265 C264 1.375 . S
C265 C266 1.369 . S
C265 H278 0.950 . S
C266 C265 1.369 . S
C266 C267 1.392 . S
C266 H279 0.951 . S
C267 C266 1.392 . S
C267 C269 1.384 . S
H268 C270 0.949 . S
C269 C267 1.384 . S
C269 C270 1.385 . S
C269 H271 0.950 . S
C270 C264 1.404 . S
C270 H268 0.949 . S
C270 C269 1.385 . S
H271 C269 0.950 . S
H272 C256 0.951 . S
H273 C258 0.951 . S
H274 C260 0.951 . S
H275 C261 0.950 . S
H276 C262 0.950 . S
H277 C263 0.950 . S
H278 C265 0.950 . S
H279 C266 0.951 . S
C280 C281 1.386 . S
C280 C282 1.383 . S
C280 H296 0.951 . S
C281 C280 1.386 . S
C281 C285 1.383 . S
C282 C280 1.383 . S
C282 C283 1.402 . S
C282 H297 0.951 . S
C283 C282 1.402 . S
C283 C284 1.375 . S
C283 C286 1.481 . S
C284 C283 1.375 . S
C284 C285 1.367 . S
C284 H298 0.951 . S
C285 C281 1.383 . S
C285 C284 1.367 . S
C285 H299 0.950 . S
C286 C283 1.481 . S
C286 C287 1.297 . S
C286 H300 0.950 . S
C287 C286 1.297 . S
C287 C288 1.479 . S
C287 H301 0.950 . S
C288 C287 1.479 . S
C288 C289 1.375 . S
C288 C294 1.404 . S
C289 C288 1.375 . S
C289 C290 1.369 . S
C289 H302 0.950 . S
C290 C289 1.369 . S
C290 C291 1.392 . S
C290 H303 0.951 . S
C291 C290 1.392 . S
C291 C293 1.384 . S
H292 C294 0.949 . S
C293 C291 1.384 . S
C293 C294 1.385 . S
C293 H295 0.950 . S
C294 C288 1.404 . S
C294 H292 0.949 . S
C294 C293 1.385 . S
H295 C293 0.950 . S
H296 C280 0.951 . S
H297 C282 0.951 . S
H298 C284 0.951 . S
H299 C285 0.950 . S
H300 C286 0.950 . S
H301 C287 0.950 . S
H302 C289 0.950 . S
H303 C290 0.951 . S
C304 C305 1.386 . S
C304 C306 1.383 . S
C304 H320 0.951 . S
C305 C304 1.386 . S
C305 C309 1.383 . S
C306 C304 1.383 . S
C306 C307 1.402 . S
C306 H321 0.951 . S
C307 C306 1.402 . S
C307 C308 1.375 . S
C307 C310 1.481 . S
C308 C307 1.375 . S
C308 C309 1.367 . S
C308 H322 0.951 . S
C309 C305 1.383 . S
C309 C308 1.367 . S
C309 H323 0.950 . S
C310 C307 1.481 . S
C310 C311 1.297 . S
C310 H324 0.950 . S
C311 C310 1.297 . S
C311 C312 1.479 . S
C311 H325 0.950 . S
C312 C311 1.479 . S
C312 C313 1.375 . S
C312 C318 1.404 . S
C313 C312 1.375 . S
C313 C314 1.369 . S
C313 H326 0.950 . S
C314 C313 1.369 . S
C314 C315 1.392 . S
C314 H327 0.951 . S
C315 C314 1.392 . S
C315 C317 1.384 . S
H316 C318 0.949 . S
C317 C315 1.384 . S
C317 C318 1.385 . S
C317 H319 0.950 . S
C318 C312 1.404 . S
C318 H316 0.949 . S
C318 C317 1.385 . S
H319 C317 0.950 . S
H320 C304 0.951 . S
H321 C306 0.951 . S
H322 C308 0.951 . S
H323 C309 0.950 . S
H324 C310 0.950 . S
H325 C311 0.950 . S
H326 C313 0.950 . S
H327 C314 0.951 . S
C328 C329 1.386 1_565 S
C328 C330 1.382 1_565 S
C328 H344 0.951 . S
C329 C328 1.386 1_545 S
C329 C333 1.401 . S
C330 C328 1.382 1_545 S
C330 C331 1.403 . S
C330 H345 0.949 1_545 S
C331 C330 1.403 . S
C331 C332 1.365 1_455 S
C331 C334 1.481 . S
C332 C331 1.365 1_655 S
C332 C333 1.356 1_655 S
C332 H346 0.967 . S
C333 C329 1.401 . S
C333 C332 1.356 1_455 S
C333 H347 0.938 1_455 S
C334 C331 1.481 . S
C334 C335 1.297 . S
C334 H348 0.950 . S
C335 C334 1.297 . S
C335 C336 1.479 . S
C335 H349 0.950 . S
C336 C335 1.479 . S
C336 C337 1.383 . S
C336 C342 1.404 . S
C337 C336 1.383 . S
C337 C338 1.366 1_545 S
C337 H350 0.945 1_545 S
C338 C337 1.366 1_565 S
C338 C339 1.392 1_565 S
C338 H351 0.951 . S
C339 C338 1.392 1_545 S
C339 C341 1.384 . S
H340 C342 0.949 . S
C341 C339 1.384 . S
C341 C342 1.385 . S
C341 H343 0.950 1_455 S
C342 C336 1.404 . S
C342 H340 0.949 . S
C342 C341 1.385 . S
H343 C341 0.950 1_655 S
H344 C328 0.951 . S
H345 C330 0.949 1_565 S
H346 C332 0.967 . S
H347 C333 0.938 1_655 S
H348 C334 0.950 . S
H349 C335 0.950 . S
H350 C337 0.945 1_565 S
H351 C338 0.951 . S
C352 C353 1.385 . S
C352 C354 1.383 . S
C352 H368 0.951 1_565 S
C353 C352 1.385 . S
C353 C357 1.383 1_455 S
C354 C352 1.383 . S
C354 C355 1.402 1_455 S
C354 H369 0.951 . S
C355 C354 1.402 1_655 S
C355 C356 1.375 . S
C355 C358 1.481 . S
C356 C355 1.375 . S
C356 C357 1.367 . S
C356 H370 0.951 . S
C357 C353 1.383 1_655 S
C357 C356 1.367 . S
C357 H371 0.950 . S
C358 C355 1.481 . S
C358 C359 1.297 1_655 S
C358 H372 0.950 . S
C359 C358 1.297 1_455 S
C359 C360 1.479 1_455 S
C359 H373 0.950 . S
C360 C359 1.479 1_655 S
C360 C361 1.375 1_655 S
C360 C366 1.404 . S
C361 C360 1.375 1_455 S
C361 C362 1.369 . S
C361 H374 0.950 . S
C362 C361 1.369 . S
C362 C363 1.392 1_455 S
C362 H375 0.951 1_565 S
C363 C362 1.392 1_655 S
C363 C365 1.384 . S
H364 C366 0.949 . S
C365 C363 1.384 . S
C365 C366 1.385 . S
C365 H367 0.950 . S
C366 C360 1.404 . S
C366 H364 0.949 . S
C366 C365 1.385 . S
H367 C365 0.950 . S
H368 C352 0.951 1_545 S
H369 C354 0.951 . S
H370 C356 0.951 . S
H371 C357 0.950 . S
H372 C358 0.950 . S
H373 C359 0.950 . S
H374 C361 0.950 . S
H375 C362 0.951 1_545 S
C376 C377 1.386 . S
C376 C378 1.383 . S
C376 H392 0.951 . S
C377 C376 1.386 . S
C377 C381 1.383 . S
C378 C376 1.383 . S
C378 C379 1.402 . S
C378 H393 0.951 . S
C379 C378 1.402 . S
C379 C380 1.375 . S
C379 C382 1.481 . S
C380 C379 1.375 . S
C380 C381 1.367 . S
C380 H394 0.951 . S
C381 C377 1.383 . S
C381 C380 1.367 . S
C381 H395 0.950 . S
C382 C379 1.481 . S
C382 C383 1.297 . S
C382 H396 0.950 . S
C383 C382 1.297 . S
C383 C384 1.479 . S
C383 H397 0.950 . S
C384 C383 1.479 . S
C384 C385 1.375 . S
C384 C390 1.404 . S
C385 C384 1.375 . S
C385 C386 1.369 . S
C385 H398 0.950 . S
C386 C385 1.369 . S
C386 C387 1.392 . S
C386 H399 0.951 . S
C387 C386 1.392 . S
C387 C389 1.384 . S
H388 C390 0.949 . S
C389 C387 1.384 . S
C389 C390 1.385 . S
C389 H391 0.950 . S
C390 C384 1.404 . S
C390 H388 0.949 . S
C390 C389 1.385 . S
H391 C389 0.950 . S
H392 C376 0.951 . S
H393 C378 0.951 . S
H394 C380 0.951 . S
H395 C381 0.950 . S
H396 C382 0.950 . S
H397 C383 0.950 . S
H398 C385 0.950 . S
H399 C386 0.951 . S
C400 C401 1.386 . S
C400 C402 1.383 . S
C400 H416 0.951 . S
C401 C400 1.386 . S
C401 C405 1.383 . S
C402 C400 1.383 . S
C402 C403 1.402 . S
C402 H417 0.951 . S
C403 C402 1.402 . S
C403 C404 1.375 . S
C403 C406 1.481 . S
C404 C403 1.375 . S
C404 C405 1.367 . S
C404 H418 0.951 . S
C405 C401 1.383 . S
C405 C404 1.367 . S
C405 H419 0.950 . S
C406 C403 1.481 . S
C406 C407 1.297 . S
C406 H420 0.950 . S
C407 C406 1.297 . S
C407 C408 1.479 . S
C407 H421 0.950 . S
C408 C407 1.479 . S
C408 C409 1.375 . S
C408 C414 1.404 . S
C409 C408 1.375 . S
C409 C410 1.369 . S
C409 H422 0.950 . S
C410 C409 1.369 . S
C410 C411 1.392 . S
C410 H423 0.951 . S
C411 C410 1.392 . S
C411 C413 1.384 . S
H412 C414 0.949 . S
C413 C411 1.384 . S
C413 C414 1.385 . S
C413 H415 0.950 . S
C414 C408 1.404 . S
C414 H412 0.949 . S
C414 C413 1.385 . S
H415 C413 0.950 . S
H416 C400 0.951 . S
H417 C402 0.951 . S
H418 C404 0.951 . S
H419 C405 0.950 . S
H420 C406 0.950 . S
H421 C407 0.950 . S
H422 C409 0.950 . S
H423 C410 0.951 . S
C147 C123 1.508 . S
C137 C27 1.538 . S
C161 N6 1.373 . S
C171 C109 1.304 . S
C185 C16 1.424 . S
C195 C128 1.340 . S
C209 N14 1.502 1_556 S
C219 C104 1.467 . S
C233 C57 1.538 . S
C243 C85 1.505 . S
C257 N36 1.379 . S
C267 C71 1.311 . S
C291 C90 1.416 . S
C281 C46 1.410 . S
C315 C66 1.475 . S
C305 N44 1.487 . S
C329 C10 1.523 1_545 S
C339 C62 1.514 1_545 S
C353 C1 1.557 1_565 S
C363 C81 1.521 . S
C387 C100 1.502 . S
C377 C40 1.517 . S
C401 C31 1.555 . S
C411 C119 1.531 . S
