# Generated by pormake.
# Topology pyr, (3,6)-cn, num edge types: 1
# Building blocks:
#     Node 0, Type 0, BuildingBlock: BELTOD_clean_linker_0, # of connection points: 3
#     Node 1, Type 0, BuildingBlock: BELTOD_clean_linker_0, # of connection points: 3
#     Node 2, Type 0, BuildingBlock: BELTOD_clean_linker_0, # of connection points: 3
#     Node 3, Type 0, BuildingBlock: BELTOD_clean_linker_0, # of connection points: 3
#     Node 4, Type 0, BuildingBlock: BELTOD_clean_linker_0, # of connection points: 3
#     Node 5, Type 0, BuildingBlock: BELTOD_clean_linker_0, # of connection points: 3
#     Node 6, Type 0, BuildingBlock: BELTOD_clean_linker_0, # of connection points: 3
#     Node 7, Type 0, BuildingBlock: BELTOD_clean_linker_0, # of connection points: 3
#     Node 8, Type 1, BuildingBlock: GEDQOX_clean_sbu_0, # of connection points: 6
#     Node 9, Type 1, BuildingBlock: GEDQOX_clean_sbu_0, # of connection points: 6
#     Node 10, Type 1, BuildingBlock: GEDQOX_clean_sbu_0, # of connection points: 6
#     Node 11, Type 1, BuildingBlock: GEDQOX_clean_sbu_0, # of connection points: 6
#     Edge 12, Type (0, 1), None
#     Edge 13, Type (0, 1), None
#     Edge 14, Type (0, 1), None
#     Edge 15, Type (0, 1), None
#     Edge 16, Type (0, 1), None
#     Edge 17, Type (0, 1), None
#     Edge 18, Type (0, 1), None
#     Edge 19, Type (0, 1), None
#     Edge 20, Type (0, 1), None
#     Edge 21, Type (0, 1), None
#     Edge 22, Type (0, 1), None
#     Edge 23, Type (0, 1), None
#     Edge 24, Type (0, 1), None
#     Edge 25, Type (0, 1), None
#     Edge 26, Type (0, 1), None
#     Edge 27, Type (0, 1), None
#     Edge 28, Type (0, 1), None
#     Edge 29, Type (0, 1), None
#     Edge 30, Type (0, 1), None
#     Edge 31, Type (0, 1), None
#     Edge 32, Type (0, 1), None
#     Edge 33, Type (0, 1), None
#     Edge 34, Type (0, 1), None
#     Edge 35, Type (0, 1), None
# Relax obj value: 0.261
# Max RMSD: 0.198
# Mean RMSD: 0.087
data_MOF--net-pyr--node1-GEDQOX_clean_sbu_0--node2-BELTOD_clean_linker_0--edge1-none
_symmetry_space_group_name_H-M    P1
_symmetry_Int_Tables_number       1
_symmetry_cell_setting            triclinic
loop_
_symmetry_equiv_pos_as_xyz
'x, y, z'
_cell_length_a     24.626942
_cell_length_b     24.700461
_cell_length_c     21.207233
_cell_angle_alpha  91.309002
_cell_angle_beta   94.580458
_cell_angle_gamma 86.603646
loop_
_atom_site_label
_atom_site_type_symbol
_atom_site_fract_x
_atom_site_fract_y
_atom_site_fract_z
_atom_type_partial_charge
P0 P 0.22057 0.21186 0.19795 0.0
H1 H 0.32922 0.1578 0.24979 0.0
H2 H 0.41251 0.11612 0.2097 0.0
H3 H 0.34138 0.13171 1.0191 0.0
H4 H 0.25731 0.17589 0.06006 0.0
H5 H 0.10319 0.26691 0.19803 0.0
H6 H 0.0563 0.35118 0.15613 0.0
H7 H 0.1978 0.38297 0.06023 0.0
H8 H 0.2446 0.29891 0.10247 0.0
H9 H 0.19659 0.09139 0.22999 0.0
H10 H 0.15319 0.24838 0.30769 0.0
O11 O 0.25722 0.24949 0.24982 0.0
H12 H 0.14946 0.04858 0.31348 0.0
H13 H 0.10678 0.2062 0.39058 0.0
C14 C 0.2828 0.17149 0.16022 0.0
C15 C 0.32989 0.15245 0.19906 0.0
C16 C 0.37939 0.12783 0.17516 0.0
C17 C 0.38745 0.11829 0.10956 0.0
C18 C 0.33992 0.13631 0.06983 0.0
C19 C 0.2901 0.16225 0.09404 0.0
C20 C 0.17887 0.27205 0.15356 0.0
C21 C 0.1247 0.29071 0.16702 0.0
C22 C 0.09713 0.34069 0.14266 0.0
C23 C 0.12143 0.37714 0.10315 0.0
C24 C 0.17552 0.35827 0.08954 0.0
C25 C 0.203 0.30838 0.11389 0.0
C26 C 0.17933 0.17497 0.2584 0.0
C27 C 0.17664 0.11755 0.26382 0.0
C28 C 0.14913 0.09241 0.31323 0.0
C29 C 0.12248 0.12244 0.36193 0.0
C30 C 0.12545 0.17968 0.35609 0.0
C31 C 0.15254 0.2046 0.30689 0.0
P32 P 0.44276 0.80364 0.74471 0.0
H33 H 0.50282 0.79088 0.87 0.0
H34 H 0.51926 0.85707 0.9563 0.0
H35 H 0.39945 0.96963 0.86352 0.0
H36 H 0.38289 0.90343 0.7784 0.0
H37 H 0.38343 0.70216 0.72684 0.0
H38 H 0.4149 0.61519 0.68313 0.0
H39 H 0.58172 0.65925 0.72051 0.0
H40 H 0.54991 0.74719 0.76201 0.0
H41 H 0.41338 0.82761 0.61222 0.0
H42 H 0.33082 0.79063 0.77634 0.0
O43 O 0.48768 0.83392 0.70454 0.0
H44 H 0.32724 0.83257 0.54847 0.0
H45 H 0.2441 0.79106 0.7117 0.0
C46 C 0.44087 0.84161 0.81826 0.0
C47 C 0.4784 0.82882 0.86971 0.0
C48 C 0.48792 0.86692 0.91889 0.0
C49 C 0.46095 0.91887 0.91644 0.0
C50 C 0.42091 0.93009 0.86687 0.0
C51 C 0.4111 0.8919 0.81828 0.0
C52 C 0.4643 0.7324 0.74575 0.0
C53 C 0.42686 0.69295 0.72746 0.0
C54 C 0.44487 0.64275 0.70236 0.0
C55 C 0.50063 0.63107 0.69614 0.0
C56 C 0.53826 0.66748 0.72319 0.0
C57 C 0.52017 0.71779 0.74764 0.0
C58 C 0.37812 0.81016 0.69924 0.0
C59 C 0.3765 0.82044 0.63453 0.0
C60 C 0.32707 0.82196 0.59768 0.0
C61 C 0.27827 0.8117 0.62448 0.0
C62 C 0.28048 0.80005 0.68942 0.0
C63 C 0.32995 0.79992 0.72659 0.0
P64 P 0.83134 0.3806 0.75418 0.0
H65 H 0.91343 0.33416 0.84478 0.0
H66 H 0.9796 0.37292 0.92283 0.0
H67 H 0.90772 0.53316 0.88247 0.0
H68 H 0.84345 0.49449 0.80174 0.0
H69 H 0.80704 0.26991 0.7143 0.0
H70 H 0.73714 0.21073 0.74328 0.0
H71 H 0.69132 0.32683 0.88781 0.0
H72 H 0.76158 0.38567 0.85884 0.0
H73 H 0.79567 0.37293 0.6212 0.0
H74 H 0.75181 0.4712 0.78213 0.0
O75 O 0.87457 0.34876 0.70702 0.0
H76 H 0.71122 0.40447 0.5622 0.0
H77 H 0.66836 0.50546 0.72125 0.0
C78 C 0.87297 0.41126 0.81781 0.0
C79 C 0.91135 0.37763 0.85326 0.0
C80 C 0.94914 0.3997 0.89789 0.0
C81 C 0.94851 0.45588 0.90904 0.0
C82 C 0.90858 0.48955 0.87545 0.0
C83 C 0.87161 0.46746 0.82936 0.0
C84 C 0.7902 0.33159 0.78541 0.0
C85 C 0.78309 0.28187 0.75348 0.0
C86 C 0.74292 0.24824 0.76978 0.0
C87 C 0.70855 0.26445 0.81739 0.0
C88 C 0.71685 0.31365 0.85042 0.0
C89 C 0.7574 0.34692 0.83452 0.0
C90 C 0.78151 0.42108 0.70563 0.0
C91 C 0.76946 0.4035 0.6429 0.0
C92 C 0.72082 0.42109 0.60924 0.0
C93 C 0.68357 0.45744 0.63715 0.0
C94 C 0.69697 0.47803 0.69839 0.0
C95 C 0.7451 0.45902 0.73294 0.0
P96 P 0.7907 0.94545 0.24905 0.0
H97 H 0.82981 0.05575 0.26299 0.0
H98 H 0.89631 0.09692 0.3395 0.0
H99 H 0.92342 0.94424 0.43553 0.0
H100 H 0.85781 0.90375 0.36002 0.0
H101 H 0.75128 0.88941 0.13348 0.0
H102 H 0.78741 0.80144 0.09624 0.0
H103 H 0.94176 0.82922 0.20097 0.0
H104 H 0.90662 0.91737 0.23349 0.0
H105 H 0.6858 0.94156 0.30829 0.0
H106 H 0.82567 0.8332 0.27729 0.0
O107 O 0.7442 0.99082 0.21716 0.0
H108 H 0.64694 0.86928 0.36601 0.0
H109 H 0.78662 0.76205 0.33041 0.0
C110 C 0.83771 0.97699 0.3064 0.0
C111 C 0.84977 0.03137 0.30085 0.0
C112 C 0.88791 0.05472 0.34434 0.0
C113 C 0.91475 1.02374 0.3936 0.0
C114 C 0.90308 0.9692 0.39837 0.0
C115 C 0.86512 0.94606 0.35515 0.0
C116 C 0.82555 0.90898 0.18837 0.0
C117 C 0.79401 0.8779 0.14486 0.0
C118 C 0.81431 0.82671 0.12518 0.0
C119 C 0.86641 0.80634 0.1488 0.0
C120 C 0.90104 0.84233 0.18244 0.0
C121 C 0.8809 0.89365 0.20118 0.0
C122 C 0.7584 0.8929 0.28758 0.0
C123 C 0.70766 0.90232 0.31276 0.0
C124 C 0.68541 0.86102 0.34523 0.0
C125 C 0.71411 0.81027 0.353 0.0
C126 C 0.76389 0.80089 0.32598 0.0
C127 C 0.78599 0.84178 0.29455 0.0
P128 P 0.87833 0.89264 0.88277 0.0
H129 H 0.83001 0.93099 1.00892 0.0
H130 H 0.74284 0.97215 0.04278 0.0
H131 H 0.67263 0.95944 0.85163 0.0
H132 H 0.76008 0.91959 0.81768 0.0
H133 H 0.85408 0.80295 0.97651 0.0
H134 H 0.89893 0.71577 1.01243 0.0
H135 H 1.02043 0.72909 0.88035 0.0
H136 H 0.9761 0.81638 0.84527 0.0
H137 H 0.89829 1.00604 0.83578 0.0
H138 H 0.91853 0.84643 0.75387 0.0
O139 O 0.91752 0.92673 0.93574 0.0
H140 H 0.93945 0.04432 0.74571 0.0
H141 H 0.96077 0.88453 0.66417 0.0
C142 C 0.80566 0.91999 0.90905 0.0
C143 C 0.79639 0.93649 0.97313 0.0
C144 C 0.74487 0.96112 0.99329 0.0
C145 C 0.69698 0.97127 0.95135 0.0
C146 C 0.70615 0.95389 0.88755 0.0
C147 C 0.75778 0.92992 0.86729 0.0
C148 C 0.908 0.81874 0.90418 0.0
C149 C 0.8896 0.78743 0.95342 0.0
C150 C 0.91663 0.73638 0.97528 0.0
C151 C 0.96516 0.71198 0.95075 0.0
C152 C 0.98371 0.74348 0.90181 0.0
C153 C 0.95693 0.79472 0.88036 0.0
C154 C 0.90335 0.92185 0.80524 0.0
C155 C 0.91079 0.9784 0.79861 0.0
C156 C 0.93543 1.00092 0.74576 0.0
C157 C 0.95541 0.96893 0.69459 0.0
C158 C 0.94729 0.91234 0.70069 0.0
C159 C 0.92227 0.88982 0.7535 0.0
P160 P 0.68618 0.33376 0.23254 0.0
H161 H 0.66284 0.45007 0.24935 0.0
H162 H 0.62552 0.50166 0.33703 0.0
H163 H 0.57192 0.35402 0.41078 0.0
H164 H 0.61088 0.30231 0.32386 0.0
H165 H 0.76384 0.23796 0.24531 0.0
H166 H 0.83016 0.20959 0.33174 0.0
H167 H 0.80589 0.36563 0.42445 0.0
H168 H 0.73987 0.39392 0.33839 0.0
H169 H 0.64317 0.31167 0.1029 0.0
H170 H 0.66496 0.22512 0.2783 0.0
O171 O 0.7067 0.37327 0.17731 0.0
H172 H 0.60905 0.23095 0.04857 0.0
H173 H 0.63186 0.1434 0.2236 0.0
C174 C 0.63912 0.37229 0.27943 0.0
C175 C 0.64131 0.42893 0.28297 0.0
C176 C 0.62083 0.45833 0.33382 0.0
C177 C 0.59684 0.43167 0.38138 0.0
C178 C 0.59051 0.37559 0.37495 0.0
C179 C 0.61212 0.34603 0.32473 0.0
C180 C 0.74411 0.31676 0.28726 0.0
C181 C 0.77246 0.26606 0.28419 0.0
C182 C 0.8105 0.24996 0.33347 0.0
C183 C 0.82159 0.28495 0.3856 0.0
C184 C 0.79739 0.33767 0.38528 0.0
C185 C 0.75918 0.35357 0.33618 0.0
C186 C 0.65746 0.27438 0.1945 0.0
C187 C 0.64078 0.27527 0.1298 0.0
C188 C 0.62142 0.22891 0.0987 0.0
C189 C 0.61857 0.18048 0.13161 0.0
C190 C 0.63446 0.17981 0.19675 0.0
C191 C 0.65303 0.22664 0.2281 0.0
P192 P 0.3473 0.60013 0.22291 0.0
H193 H 0.28289 0.64328 0.11122 0.0
H194 H 0.18854 0.63162 0.06877 0.0
H195 H 0.1603 0.54498 0.23657 0.0
H196 H 0.25411 0.55721 0.27876 0.0
H197 H 0.45402 0.61552 0.17865 0.0
H198 H 0.50278 0.69676 0.16243 0.0
H199 H 0.35976 0.79689 0.20389 0.0
H200 H 0.31098 0.71523 0.21972 0.0
H201 H 0.37767 0.50497 0.30059 0.0
H202 H 0.36255 0.67835 0.33014 0.0
O203 O 0.37484 0.54694 0.18443 0.0
H204 H 0.42987 0.49553 0.40289 0.0
H205 H 0.41609 0.66924 0.43189 0.0
C206 C 0.27514 0.60243 0.19911 0.0
C207 C 0.2558 0.6233 0.13977 0.0
C208 C 0.20199 0.61632 0.11522 0.0
C209 C 0.16699 0.58739 0.14919 0.0
C210 C 0.18621 0.56765 0.20921 0.0
C211 C 0.23979 0.57491 0.23377 0.0
C212 C 0.37858 0.65945 0.19906 0.0
C213 C 0.43266 0.6549 0.18257 0.0
C214 C 0.46055 0.7013 0.17355 0.0
C215 C 0.43505 0.75301 0.18212 0.0
C216 C 0.38044 0.75745 0.19742 0.0
C217 C 0.35237 0.71094 0.20573 0.0
C218 C 0.36736 0.59243 0.30655 0.0
C219 C 0.38426 0.54094 0.32968 0.0
C220 C 0.41435 0.53565 0.38829 0.0
C221 C 0.42839 0.58183 0.4248 0.0
C222 C 0.40659 0.63295 0.40457 0.0
C223 C 0.37597 0.63814 0.34608 0.0
P224 P 0.28701 0.13958 0.79813 0.0
H225 H 0.24832 0.02968 0.78308 0.0
H226 H 0.18056 0.98955 0.70759 0.0
H227 H 0.14231 0.14649 0.62421 0.0
H228 H 0.20916 0.18615 0.69933 0.0
H229 H 0.39491 0.17317 0.83996 0.0
H230 H 0.45381 0.22339 0.77934 0.0
H231 H 0.37357 0.16234 0.60583 0.0
H232 H 0.31342 0.11362 0.66685 0.0
H233 H 0.23933 0.19451 0.90735 0.0
H234 H 0.29332 0.23944 0.7281 0.0
O235 O 0.29942 0.10445 0.86451 0.0
H236 H 0.21518 0.29017 0.93085 0.0
H237 H 0.27081 0.33439 0.75178 0.0
C238 C 0.23315 0.11109 0.74776 0.0
C239 C 0.22464 0.05554 0.74926 0.0
C240 C 0.18611 0.03267 0.70603 0.0
C241 C 0.15633 0.06503 0.66012 0.0
C242 C 0.1647 0.12065 0.65911 0.0
C243 C 0.20281 0.14344 0.70247 0.0
C244 C 0.34842 0.14151 0.75799 0.0
C245 C 0.39204 0.16795 0.78895 0.0
C246 C 0.42587 0.19687 0.75397 0.0
C247 C 0.41668 0.19876 0.6877 0.0
C248 C 0.38022 0.16318 0.65695 0.0
C249 C 0.34588 0.13495 0.692 0.0
C250 C 0.26859 0.20974 0.81633 0.0
C251 C 0.24629 0.22485 0.87328 0.0
C252 C 0.2329 0.27958 0.88676 0.0
C253 C 0.24135 0.31998 0.84322 0.0
C254 C 0.26336 0.30441 0.78608 0.0
C255 C 0.27666 0.24994 0.77276 0.0
Nd256 Nd 0.05921 0.99297 0.51175 0.0
Nd257 Nd 1.0141 0.09621 0.53985 0.0
C258 C 0.09861 0.89772 0.47193 0.0
C259 C 0.13386 0.85867 0.50949 0.0
C260 C 0.17677 0.82985 0.48189 0.0
C261 C 0.22185 0.80922 0.51998 0.0
C262 C 0.22519 0.81875 0.58598 0.0
C263 C 0.17919 0.84236 0.61355 0.0
C264 C 0.13373 0.8616 0.57561 0.0
C265 C 0.11796 0.04098 0.61204 0.0
C266 C 0.98374 0.99382 0.63672 0.0
C267 C 0.96996 0.18974 0.57726 0.0
C268 C 0.92538 0.22005 0.54052 0.0
C269 C 0.93296 0.27228 0.51926 0.0
C270 C 0.89795 0.29478 0.47024 0.0
C271 C 0.85545 0.26492 0.44168 0.0
C272 C 0.84571 0.21449 0.46609 0.0
C273 C 0.88018 0.1923 0.51501 0.0
C274 C 0.95435 0.04783 0.44044 0.0
C275 C 0.09287 0.09606 0.41798 0.0
O276 O 0.04861 0.90585 0.48795 0.0
O277 O 0.12155 0.94297 0.46358 0.0
O278 O 0.1074 0.99042 0.60945 0.0
O279 O 0.09987 0.06431 0.56203 0.0
O280 O 1.00492 0.96228 0.59175 0.0
O281 O 0.98815 0.04739 0.63053 0.0
O282 O 1.01622 0.18582 0.55107 0.0
O283 O 0.95771 0.14358 0.59955 0.0
O284 O 0.96483 0.09834 0.44261 0.0
O285 O 0.9731 0.02495 0.49046 0.0
O286 O 0.07196 0.12688 0.46373 0.0
O287 O 0.08713 0.0425 0.4223 0.0
H288 H 0.17754 0.82721 0.43089 0.0
H289 H 0.25562 0.78926 0.49723 0.0
H290 H 0.17978 0.85062 0.66393 0.0
H291 H 0.10084 0.88356 0.59796 0.0
H292 H 0.96786 0.29411 0.53772 0.0
H293 H 0.90586 0.33406 0.45242 0.0
H294 H 0.81234 0.19131 0.4459 0.0
H295 H 0.87323 0.15177 0.52983 0.0
Nd296 Nd 0.54445 1.02273 0.0757 0.0
Nd297 Nd 0.53837 0.06709 0.98084 0.0
C298 C 0.55197 0.94677 0.16344 0.0
C299 C 0.52504 0.8956 0.16947 0.0
C300 C 0.52724 0.85456 0.12249 0.0
C301 C 0.4982 0.8081 0.12674 0.0
C302 C 0.4661 0.80205 0.17767 0.0
C303 C 0.46446 0.84275 0.22497 0.0
C304 C 0.49388 0.88901 0.22101 0.0
C305 C 0.44572 0.09275 0.08788 0.0
C306 C 0.48014 0.9633 0.95929 0.0
C307 C 0.53459 0.13902 0.88937 0.0
C308 C 0.57722 0.16906 0.86326 0.0
C309 C 0.56822 0.22492 0.85363 0.0
C310 C 0.6107 0.25573 0.83775 0.0
C311 C 0.66298 0.23115 0.83124 0.0
C312 C 0.67152 0.17488 0.839 0.0
C313 C 0.62909 0.14412 0.85536 0.0
C314 C 0.63823 0.99769 0.9705 0.0
C315 C 0.5963 0.13235 0.09804 0.0
O316 O 0.58551 0.94866 0.11937 0.0
O317 O 0.52082 0.99084 0.16628 0.0
O318 O 0.48836 0.08711 0.12792 0.0
O319 O 0.45877 0.06503 0.03743 0.0
O320 O 0.51663 0.95401 1.00641 0.0
O321 O 0.47017 1.01376 0.9441 0.0
O322 O 0.52592 0.15173 0.9477 0.0
O323 O 0.53553 0.08682 0.87874 0.0
O324 O 0.59604 1.00259 0.92995 0.0
O325 O 0.62424 0.02624 0.01986 0.0
O326 O 0.56682 0.13818 0.04454 0.0
O327 O 0.60206 0.08396 0.12164 0.0
H328 H 0.55067 0.85859 0.08193 0.0
H329 H 0.49999 0.77737 0.08957 0.0
H330 H 0.44067 0.83863 0.26523 0.0
H331 H 0.49162 0.92009 0.25775 0.0
H332 H 0.52877 0.24504 0.86047 0.0
H333 H 0.60282 0.29893 0.83116 0.0
H334 H 0.71148 0.15499 0.83461 0.0
H335 H 0.63737 0.10121 0.86377 0.0
Nd336 Nd 0.51946 0.48011 0.56572 0.0
Nd337 Nd 0.57891 0.57005 0.53161 0.0
C338 C 0.4523 0.41092 0.60504 0.0
C339 C 0.44923 0.35266 0.6161 0.0
C340 C 0.40119 0.32786 0.59568 0.0
C341 C 0.39295 0.27549 0.61442 0.0
C342 C 0.43264 0.24683 0.65429 0.0
C343 C 0.48258 0.2703 0.67086 0.0
C344 C 0.49089 0.32285 0.6518 0.0
C345 C 0.6287 0.46791 0.605 0.0
C346 C 0.51935 0.58699 0.65299 0.0
C347 C 0.64775 0.64411 0.5104 0.0
C348 C 0.66343 0.6841 0.46654 0.0
C349 C 0.71731 0.69937 0.47259 0.0
C350 C 0.73312 0.7409 0.43621 0.0
C351 C 0.69531 0.76778 0.39268 0.0
C352 C 0.64106 0.7525 0.38655 0.0
C353 C 0.62516 0.71068 0.42334 0.0
C354 C 0.47169 0.57656 0.47764 0.0
C355 C 0.58064 0.46189 0.4385 0.0
O356 O 0.48631 0.4373 0.64297 0.0
O357 O 0.4505 0.42638 0.54636 0.0
O358 O 0.60059 0.42946 0.57922 0.0
O359 O 0.59918 0.51092 0.61065 0.0
O360 O 0.48534 0.5553 0.62107 0.0
O361 O 0.56901 0.58694 0.63563 0.0
O362 O 0.65737 0.59258 0.49701 0.0
O363 O 0.60177 0.65478 0.53606 0.0
O364 O 0.49698 0.61757 0.50188 0.0
O365 O 0.50309 0.53476 0.48257 0.0
O366 O 0.60491 0.50682 0.45612 0.0
O367 O 0.54193 0.44386 0.4706 0.0
H368 H 0.36863 0.35016 0.56816 0.0
H369 H 0.35353 0.25937 0.60166 0.0
H370 H 0.514 0.24922 0.70127 0.0
H371 H 0.5287 0.34102 0.66757 0.0
H372 H 0.74703 0.67986 0.50651 0.0
H373 H 0.775 0.75242 0.4427 0.0
H374 H 0.61131 0.7724 0.35305 0.0
H375 H 0.5831 0.69956 0.41865 0.0
Nd376 Nd 1.00958 0.54685 0.07545 0.0
Nd377 Nd 0.08064 0.54228 0.98074 0.0
C378 C 0.93071 0.5768 0.14708 0.0
C379 C 0.91302 0.63482 0.15311 0.0
C380 C 0.85781 0.65232 0.15146 0.0
C381 C 0.84241 0.70793 0.14907 0.0
C382 C 0.88194 0.74697 0.1465 0.0
C383 C 0.93707 0.72874 0.1475 0.0
C384 C 0.95237 0.67378 0.15204 0.0
C385 C 0.11204 0.57388 0.12178 0.0
C386 C 0.99502 0.65571 0.97619 0.0
C387 C 0.1588 0.53634 0.90344 0.0
C388 C 0.18934 0.48567 0.88521 0.0
C389 C 0.21835 0.45328 0.93188 0.0
C390 C 0.23654 0.40012 0.91776 0.0
C391 C 0.22629 0.37802 0.85671 0.0
C392 C 0.20004 0.41135 0.80915 0.0
C393 C 0.18177 0.46464 0.82329 0.0
C394 C 0.9928 0.47927 0.95038 0.0
C395 C 0.09271 0.43369 0.07747 0.0
O396 O 0.92077 0.55451 0.09122 0.0
O397 O 0.98026 0.56443 0.17052 0.0
O398 O 0.08278 0.54072 0.14835 0.0
O399 O 0.08774 0.59175 0.07084 0.0
O400 O 0.98075 0.63324 0.02863 0.0
O401 O 1.03478 0.62806 0.94709 0.0
O402 O 0.16683 0.55214 0.96263 0.0
O403 O 0.10718 0.54007 0.88295 0.0
O404 O 0.04314 0.46192 0.94809 0.0
O405 O 0.9904 0.52699 0.97227 0.0
O406 O 0.11928 0.46626 0.04245 0.0
O407 O 0.0419 0.45239 0.08947 0.0
H408 H 0.8267 0.62311 0.15153 0.0
H409 H 0.79957 0.72014 0.15015 0.0
H410 H 0.96883 0.75673 0.14406 0.0
H411 H 0.99539 0.66168 0.15205 0.0
H412 H 0.2249 0.46791 0.98026 0.0
H413 H 0.25764 0.37593 0.95511 0.0
H414 H 0.19128 0.39549 0.76164 0.0
H415 H 0.15913 0.48841 0.7866 0.0
loop_
_geom_bond_atom_site_label_1
_geom_bond_atom_site_label_2
_geom_bond_distance
_geom_bond_site_symmetry_2
_ccdc_geom_bond_type
P0 O11 1.490 . S
P0 C14 1.812 . S
P0 C20 1.803 . S
P0 C26 1.819 . S
H1 C15 0.941 . S
H2 C16 0.939 . S
H3 C18 0.940 . S
H4 C19 0.940 . S
H5 C21 0.939 . S
H6 C22 0.942 . S
H7 C24 0.940 . S
H8 C25 0.939 . S
H9 C27 0.941 . S
H10 C31 0.939 . S
O11 P0 1.490 . S
H12 C28 0.939 . S
H13 C30 0.940 . S
C14 P0 1.812 . S
C14 C15 1.389 . S
C14 C19 1.391 . S
C15 H1 0.941 . S
C15 C14 1.389 . S
C15 C16 1.397 . S
C16 H2 0.939 . S
C16 C15 1.397 . S
C16 C17 1.378 . S
C17 C16 1.378 . S
C17 C18 1.378 . S
C18 H3 0.940 . S
C18 C17 1.378 . S
C18 C19 1.396 . S
C19 H4 0.940 . S
C19 C14 1.391 . S
C19 C18 1.396 . S
C20 P0 1.803 . S
C20 C21 1.378 . S
C20 C25 1.400 . S
C21 H5 0.939 . S
C21 C20 1.378 . S
C21 C22 1.361 . S
C22 H6 0.942 . S
C22 C21 1.361 . S
C22 C23 1.369 . S
C23 C22 1.369 . S
C23 C24 1.404 . S
C24 H7 0.940 . S
C24 C23 1.404 . S
C24 C25 1.389 . S
C25 H8 0.939 . S
C25 C20 1.400 . S
C25 C24 1.389 . S
C26 P0 1.819 . S
C26 C27 1.391 . S
C26 C31 1.391 . S
C27 H9 0.941 . S
C27 C26 1.391 . S
C27 C28 1.396 . S
C28 H12 0.939 . S
C28 C27 1.396 . S
C28 C29 1.397 . S
C29 C28 1.397 . S
C29 C30 1.385 . S
C30 H13 0.940 . S
C30 C29 1.385 . S
C30 C31 1.388 . S
C31 H10 0.939 . S
C31 C26 1.391 . S
C31 C30 1.388 . S
P32 O43 1.490 . S
P32 C46 1.812 . S
P32 C52 1.803 . S
P32 C58 1.819 . S
H33 C47 0.941 . S
H34 C48 0.939 . S
H35 C50 0.940 . S
H36 C51 0.940 . S
H37 C53 0.939 . S
H38 C54 0.942 . S
H39 C56 0.940 . S
H40 C57 0.939 . S
H41 C59 0.941 . S
H42 C63 0.939 . S
O43 P32 1.490 . S
H44 C60 0.939 . S
H45 C62 0.940 . S
C46 P32 1.812 . S
C46 C47 1.389 . S
C46 C51 1.391 . S
C47 H33 0.941 . S
C47 C46 1.389 . S
C47 C48 1.397 . S
C48 H34 0.939 . S
C48 C47 1.397 . S
C48 C49 1.378 . S
C49 C48 1.378 . S
C49 C50 1.378 . S
C50 H35 0.940 . S
C50 C49 1.378 . S
C50 C51 1.396 . S
C51 H36 0.940 . S
C51 C46 1.391 . S
C51 C50 1.396 . S
C52 P32 1.803 . S
C52 C53 1.378 . S
C52 C57 1.400 . S
C53 H37 0.939 . S
C53 C52 1.378 . S
C53 C54 1.361 . S
C54 H38 0.942 . S
C54 C53 1.361 . S
C54 C55 1.369 . S
C55 C54 1.369 . S
C55 C56 1.404 . S
C56 H39 0.940 . S
C56 C55 1.404 . S
C56 C57 1.389 . S
C57 H40 0.939 . S
C57 C52 1.400 . S
C57 C56 1.389 . S
C58 P32 1.819 . S
C58 C59 1.391 . S
C58 C63 1.391 . S
C59 H41 0.941 . S
C59 C58 1.391 . S
C59 C60 1.396 . S
C60 H44 0.939 . S
C60 C59 1.396 . S
C60 C61 1.397 . S
C61 C60 1.397 . S
C61 C62 1.385 . S
C62 H45 0.940 . S
C62 C61 1.385 . S
C62 C63 1.388 . S
C63 H42 0.939 . S
C63 C58 1.391 . S
C63 C62 1.388 . S
P64 O75 1.490 . S
P64 C78 1.812 . S
P64 C84 1.803 . S
P64 C90 1.819 . S
H65 C79 0.941 . S
H66 C80 0.939 . S
H67 C82 0.940 . S
H68 C83 0.940 . S
H69 C85 0.939 . S
H70 C86 0.942 . S
H71 C88 0.940 . S
H72 C89 0.939 . S
H73 C91 0.941 . S
H74 C95 0.939 . S
O75 P64 1.490 . S
H76 C92 0.939 . S
H77 C94 0.940 . S
C78 P64 1.812 . S
C78 C79 1.389 . S
C78 C83 1.391 . S
C79 H65 0.941 . S
C79 C78 1.389 . S
C79 C80 1.397 . S
C80 H66 0.939 . S
C80 C79 1.397 . S
C80 C81 1.378 . S
C81 C80 1.378 . S
C81 C82 1.378 . S
C82 H67 0.940 . S
C82 C81 1.378 . S
C82 C83 1.396 . S
C83 H68 0.940 . S
C83 C78 1.391 . S
C83 C82 1.396 . S
C84 P64 1.803 . S
C84 C85 1.378 . S
C84 C89 1.400 . S
C85 H69 0.939 . S
C85 C84 1.378 . S
C85 C86 1.361 . S
C86 H70 0.942 . S
C86 C85 1.361 . S
C86 C87 1.369 . S
C87 C86 1.369 . S
C87 C88 1.404 . S
C88 H71 0.940 . S
C88 C87 1.404 . S
C88 C89 1.389 . S
C89 H72 0.939 . S
C89 C84 1.400 . S
C89 C88 1.389 . S
C90 P64 1.819 . S
C90 C91 1.391 . S
C90 C95 1.391 . S
C91 H73 0.941 . S
C91 C90 1.391 . S
C91 C92 1.396 . S
C92 H76 0.939 . S
C92 C91 1.396 . S
C92 C93 1.397 . S
C93 C92 1.397 . S
C93 C94 1.385 . S
C94 H77 0.940 . S
C94 C93 1.385 . S
C94 C95 1.388 . S
C95 H74 0.939 . S
C95 C90 1.391 . S
C95 C94 1.388 . S
P96 O107 1.490 . S
P96 C110 1.812 . S
P96 C116 1.803 . S
P96 C122 1.819 . S
H97 C111 0.941 . S
H98 C112 0.939 . S
H99 C114 0.940 . S
H100 C115 0.940 . S
H101 C117 0.939 . S
H102 C118 0.942 . S
H103 C120 0.940 . S
H104 C121 0.939 . S
H105 C123 0.941 . S
H106 C127 0.939 . S
O107 P96 1.490 . S
H108 C124 0.939 . S
H109 C126 0.940 . S
C110 P96 1.812 . S
C110 C111 1.389 . S
C110 C115 1.391 . S
C111 H97 0.941 . S
C111 C110 1.389 . S
C111 C112 1.397 1_565 S
C112 H98 0.939 . S
C112 C111 1.397 1_545 S
C112 C113 1.378 1_545 S
C113 C112 1.378 1_565 S
C113 C114 1.378 . S
C114 H99 0.940 . S
C114 C113 1.378 . S
C114 C115 1.396 . S
C115 H100 0.940 . S
C115 C110 1.391 . S
C115 C114 1.396 . S
C116 P96 1.803 . S
C116 C117 1.378 . S
C116 C121 1.400 . S
C117 H101 0.939 . S
C117 C116 1.378 . S
C117 C118 1.361 . S
C118 H102 0.942 . S
C118 C117 1.361 . S
C118 C119 1.369 . S
C119 C118 1.369 . S
C119 C120 1.404 . S
C120 H103 0.940 . S
C120 C119 1.404 . S
C120 C121 1.389 . S
C121 H104 0.939 . S
C121 C116 1.400 . S
C121 C120 1.389 . S
C122 P96 1.819 . S
C122 C123 1.391 . S
C122 C127 1.391 . S
C123 H105 0.941 . S
C123 C122 1.391 . S
C123 C124 1.396 . S
C124 H108 0.939 . S
C124 C123 1.396 . S
C124 C125 1.397 . S
C125 C124 1.397 . S
C125 C126 1.385 . S
C126 H109 0.940 . S
C126 C125 1.385 . S
C126 C127 1.388 . S
C127 H106 0.939 . S
C127 C122 1.391 . S
C127 C126 1.388 . S
P128 O139 1.490 . S
P128 C142 1.812 . S
P128 C148 1.803 . S
P128 C154 1.819 . S
H129 C143 0.941 1_554 S
H130 C144 0.939 1_554 S
H131 C146 0.940 . S
H132 C147 0.940 . S
H133 C149 0.939 . S
H134 C150 0.942 . S
H135 C152 0.940 . S
H136 C153 0.939 . S
H137 C155 0.941 . S
H138 C159 0.939 . S
O139 P128 1.490 . S
H140 C156 0.939 . S
H141 C158 0.940 . S
C142 P128 1.812 . S
C142 C143 1.389 . S
C142 C147 1.391 . S
C143 H129 0.941 1_556 S
C143 C142 1.389 . S
C143 C144 1.397 . S
C144 H130 0.939 1_556 S
C144 C143 1.397 . S
C144 C145 1.378 . S
C145 C144 1.378 . S
C145 C146 1.378 . S
C146 H131 0.940 . S
C146 C145 1.378 . S
C146 C147 1.396 . S
C147 H132 0.940 . S
C147 C142 1.391 . S
C147 C146 1.396 . S
C148 P128 1.803 . S
C148 C149 1.378 . S
C148 C153 1.400 . S
C149 H133 0.939 . S
C149 C148 1.378 . S
C149 C150 1.361 . S
C150 H134 0.942 . S
C150 C149 1.361 . S
C150 C151 1.369 . S
C151 C150 1.369 . S
C151 C152 1.404 . S
C152 H135 0.940 . S
C152 C151 1.404 . S
C152 C153 1.389 . S
C153 H136 0.939 . S
C153 C148 1.400 . S
C153 C152 1.389 . S
C154 P128 1.819 . S
C154 C155 1.391 . S
C154 C159 1.391 . S
C155 H137 0.941 . S
C155 C154 1.391 . S
C155 C156 1.396 . S
C156 H140 0.939 . S
C156 C155 1.396 . S
C156 C157 1.397 . S
C157 C156 1.397 . S
C157 C158 1.385 . S
C158 H141 0.940 . S
C158 C157 1.385 . S
C158 C159 1.388 . S
C159 H138 0.939 . S
C159 C154 1.391 . S
C159 C158 1.388 . S
P160 O171 1.490 . S
P160 C174 1.812 . S
P160 C180 1.803 . S
P160 C186 1.819 . S
H161 C175 0.941 . S
H162 C176 0.939 . S
H163 C178 0.940 . S
H164 C179 0.940 . S
H165 C181 0.939 . S
H166 C182 0.942 . S
H167 C184 0.940 . S
H168 C185 0.939 . S
H169 C187 0.941 . S
H170 C191 0.939 . S
O171 P160 1.490 . S
H172 C188 0.939 1_556 S
H173 C190 0.940 . S
C174 P160 1.812 . S
C174 C175 1.389 . S
C174 C179 1.391 . S
C175 H161 0.941 . S
C175 C174 1.389 . S
C175 C176 1.397 . S
C176 H162 0.939 . S
C176 C175 1.397 . S
C176 C177 1.378 . S
C177 C176 1.378 . S
C177 C178 1.378 . S
C178 H163 0.940 . S
C178 C177 1.378 . S
C178 C179 1.396 . S
C179 H164 0.940 . S
C179 C174 1.391 . S
C179 C178 1.396 . S
C180 P160 1.803 . S
C180 C181 1.378 . S
C180 C185 1.400 . S
C181 H165 0.939 . S
C181 C180 1.378 . S
C181 C182 1.361 . S
C182 H166 0.942 . S
C182 C181 1.361 . S
C182 C183 1.369 . S
C183 C182 1.369 . S
C183 C184 1.404 . S
C184 H167 0.940 . S
C184 C183 1.404 . S
C184 C185 1.389 . S
C185 H168 0.939 . S
C185 C180 1.400 . S
C185 C184 1.389 . S
C186 P160 1.819 . S
C186 C187 1.391 . S
C186 C191 1.391 . S
C187 H169 0.941 . S
C187 C186 1.391 . S
C187 C188 1.396 . S
C188 H172 0.939 1_554 S
C188 C187 1.396 . S
C188 C189 1.397 . S
C189 C188 1.397 . S
C189 C190 1.385 . S
C190 H173 0.940 . S
C190 C189 1.385 . S
C190 C191 1.388 . S
C191 H170 0.939 . S
C191 C186 1.391 . S
C191 C190 1.388 . S
P192 O203 1.490 . S
P192 C206 1.812 . S
P192 C212 1.803 . S
P192 C218 1.819 . S
H193 C207 0.941 . S
H194 C208 0.939 . S
H195 C210 0.940 . S
H196 C211 0.940 . S
H197 C213 0.939 . S
H198 C214 0.942 . S
H199 C216 0.940 . S
H200 C217 0.939 . S
H201 C219 0.941 . S
H202 C223 0.939 . S
O203 P192 1.490 . S
H204 C220 0.939 . S
H205 C222 0.940 . S
C206 P192 1.812 . S
C206 C207 1.389 . S
C206 C211 1.391 . S
C207 H193 0.941 . S
C207 C206 1.389 . S
C207 C208 1.397 . S
C208 H194 0.939 . S
C208 C207 1.397 . S
C208 C209 1.378 . S
C209 C208 1.378 . S
C209 C210 1.378 . S
C210 H195 0.940 . S
C210 C209 1.378 . S
C210 C211 1.396 . S
C211 H196 0.940 . S
C211 C206 1.391 . S
C211 C210 1.396 . S
C212 P192 1.803 . S
C212 C213 1.378 . S
C212 C217 1.400 . S
C213 H197 0.939 . S
C213 C212 1.378 . S
C213 C214 1.361 . S
C214 H198 0.942 . S
C214 C213 1.361 . S
C214 C215 1.369 . S
C215 C214 1.369 . S
C215 C216 1.404 . S
C216 H199 0.940 . S
C216 C215 1.404 . S
C216 C217 1.389 . S
C217 H200 0.939 . S
C217 C212 1.400 . S
C217 C216 1.389 . S
C218 P192 1.819 . S
C218 C219 1.391 . S
C218 C223 1.391 . S
C219 H201 0.941 . S
C219 C218 1.391 . S
C219 C220 1.396 . S
C220 H204 0.939 . S
C220 C219 1.396 . S
C220 C221 1.397 . S
C221 C220 1.397 . S
C221 C222 1.385 . S
C222 H205 0.940 . S
C222 C221 1.385 . S
C222 C223 1.388 . S
C223 H202 0.939 . S
C223 C218 1.391 . S
C223 C222 1.388 . S
P224 O235 1.490 . S
P224 C238 1.812 . S
P224 C244 1.803 . S
P224 C250 1.819 . S
H225 C239 0.941 . S
H226 C240 0.939 1_565 S
H227 C242 0.940 . S
H228 C243 0.940 . S
H229 C245 0.939 . S
H230 C246 0.942 . S
H231 C248 0.940 . S
H232 C249 0.939 . S
H233 C251 0.941 . S
H234 C255 0.939 . S
O235 P224 1.490 . S
H236 C252 0.939 . S
H237 C254 0.940 . S
C238 P224 1.812 . S
C238 C239 1.389 . S
C238 C243 1.391 . S
C239 H225 0.941 . S
C239 C238 1.389 . S
C239 C240 1.397 . S
C240 H226 0.939 1_545 S
C240 C239 1.397 . S
C240 C241 1.378 . S
C241 C240 1.378 . S
C241 C242 1.378 . S
C242 H227 0.940 . S
C242 C241 1.378 . S
C242 C243 1.396 . S
C243 H228 0.940 . S
C243 C238 1.391 . S
C243 C242 1.396 . S
C244 P224 1.803 . S
C244 C245 1.378 . S
C244 C249 1.400 . S
C245 H229 0.939 . S
C245 C244 1.378 . S
C245 C246 1.361 . S
C246 H230 0.942 . S
C246 C245 1.361 . S
C246 C247 1.369 . S
C247 C246 1.369 . S
C247 C248 1.404 . S
C248 H231 0.940 . S
C248 C247 1.404 . S
C248 C249 1.389 . S
C249 H232 0.939 . S
C249 C244 1.400 . S
C249 C248 1.389 . S
C250 P224 1.819 . S
C250 C251 1.391 . S
C250 C255 1.391 . S
C251 H233 0.941 . S
C251 C250 1.391 . S
C251 C252 1.396 . S
C252 H236 0.939 . S
C252 C251 1.396 . S
C252 C253 1.397 . S
C253 C252 1.397 . S
C253 C254 1.385 . S
C254 H237 0.940 . S
C254 C253 1.385 . S
C254 C255 1.388 . S
C255 H234 0.939 . S
C255 C250 1.391 . S
C255 C254 1.388 . S
Nd256 C258 2.836 . S
Nd256 O276 2.500 . S
Nd256 O277 2.492 . S
Nd256 O278 2.487 1_565 S
Nd256 O279 2.682 1_565 S
Nd256 O280 2.410 . S
Nd256 O285 2.414 1_455 S
Nd256 O287 2.424 1_565 S
Nd257 C267 2.836 . S
Nd257 O279 2.414 1_655 S
Nd257 O281 2.436 . S
Nd257 O282 2.500 . S
Nd257 O283 2.492 . S
Nd257 O284 2.487 1_545 S
Nd257 O285 2.682 1_545 S
Nd257 O286 2.410 . S
C258 Nd256 2.836 . S
C258 C259 1.498 . S
C258 O276 1.258 . S
C258 O277 1.239 . S
C259 C258 1.498 . S
C259 C260 1.366 . S
C259 C264 1.407 . S
C260 C259 1.366 . S
C260 C261 1.392 . S
C260 H288 0.930 . S
C261 C260 1.392 . S
C261 C262 1.398 . S
C261 H289 0.929 . S
C262 C261 1.398 . S
C262 C263 1.352 . S
C263 C262 1.352 . S
C263 C264 1.384 . S
C263 H290 0.930 . S
C264 C259 1.407 . S
C264 C263 1.384 . S
C264 H291 0.929 . S
C265 O278 1.241 . S
C265 O279 1.273 . S
C266 O280 1.251 1_655 S
C266 O281 1.257 1_565 S
C267 Nd257 2.836 . S
C267 C268 1.498 . S
C267 O282 1.258 . S
C267 O283 1.239 . S
C268 C267 1.498 . S
C268 C269 1.366 . S
C268 C273 1.407 . S
C269 C268 1.366 . S
C269 C270 1.392 . S
C269 H292 0.930 . S
C270 C269 1.392 . S
C270 C271 1.398 . S
C270 H293 0.929 . S
C271 C270 1.398 . S
C271 C272 1.352 . S
C272 C271 1.352 . S
C272 C273 1.384 . S
C272 H294 0.930 . S
C273 C268 1.407 . S
C273 C272 1.384 . S
C273 H295 0.929 . S
C274 O284 1.241 . S
C274 O285 1.273 . S
C275 O286 1.251 1_455 S
C275 O287 1.268 . S
O276 Nd256 2.500 . S
O276 C258 1.258 . S
O277 Nd256 2.492 . S
O277 C258 1.239 . S
O278 Nd256 2.487 1_545 S
O278 C265 1.241 . S
O279 Nd256 2.682 1_545 S
O279 Nd257 2.414 1_455 S
O279 C265 1.273 . S
O280 Nd256 2.410 . S
O280 C266 1.251 1_455 S
O281 Nd257 2.436 . S
O281 C266 1.257 1_545 S
O282 Nd257 2.500 . S
O282 C267 1.258 . S
O283 Nd257 2.492 . S
O283 C267 1.239 . S
O284 Nd257 2.487 1_565 S
O284 C274 1.241 . S
O285 Nd256 2.414 1_655 S
O285 Nd257 2.682 1_565 S
O285 C274 1.273 . S
O286 Nd257 2.410 . S
O286 C275 1.251 1_655 S
O287 Nd256 2.424 1_545 S
O287 C275 1.268 . S
H288 C260 0.930 . S
H289 C261 0.929 . S
H290 C263 0.930 . S
H291 C264 0.929 . S
H292 C269 0.930 . S
H293 C270 0.929 . S
H294 C272 0.930 . S
H295 C273 0.929 . S
Nd296 C298 2.836 . S
Nd296 O316 2.500 . S
Nd296 O317 2.492 . S
Nd296 O318 2.487 1_565 S
Nd296 O319 2.682 1_565 S
Nd296 O320 2.410 1_554 S
Nd296 O325 2.414 1_554 S
Nd296 O327 2.424 1_565 S
Nd297 C307 2.836 . S
Nd297 O319 2.414 1_556 S
Nd297 O321 2.424 1_545 S
Nd297 O322 2.500 . S
Nd297 O323 2.492 . S
Nd297 O324 2.487 . S
Nd297 O325 2.682 1_545 S
Nd297 O326 2.410 1_556 S
C298 Nd296 2.836 . S
C298 C299 1.498 . S
C298 O316 1.258 . S
C298 O317 1.239 . S
C299 C298 1.498 . S
C299 C300 1.366 . S
C299 C304 1.407 . S
C300 C299 1.366 . S
C300 C301 1.392 . S
C300 H328 0.930 . S
C301 C300 1.392 . S
C301 C302 1.398 . S
C301 H329 0.929 . S
C302 C301 1.398 . S
C302 C303 1.352 . S
C303 C302 1.352 . S
C303 C304 1.384 . S
C303 H330 0.930 . S
C304 C299 1.407 . S
C304 C303 1.384 . S
C304 H331 0.929 . S
C305 O318 1.241 . S
C305 O319 1.273 . S
C306 O320 1.251 . S
C306 O321 1.268 . S
C307 Nd297 2.836 . S
C307 C308 1.498 . S
C307 O322 1.258 . S
C307 O323 1.239 . S
C308 C307 1.498 . S
C308 C309 1.366 . S
C308 C313 1.407 . S
C309 C308 1.366 . S
C309 C310 1.392 . S
C309 H332 0.930 . S
C310 C309 1.392 . S
C310 C311 1.398 . S
C310 H333 0.929 . S
C311 C310 1.398 . S
C311 C312 1.352 . S
C312 C311 1.352 . S
C312 C313 1.384 . S
C312 H334 0.930 . S
C313 C308 1.407 . S
C313 C312 1.384 . S
C313 H335 0.929 . S
C314 O324 1.241 1_565 S
C314 O325 1.273 . S
C315 O326 1.251 . S
C315 O327 1.268 . S
O316 Nd296 2.500 . S
O316 C298 1.258 . S
O317 Nd296 2.492 . S
O317 C298 1.239 . S
O318 Nd296 2.487 1_545 S
O318 C305 1.241 . S
O319 Nd296 2.682 1_545 S
O319 Nd297 2.414 1_554 S
O319 C305 1.273 . S
O320 Nd296 2.410 1_556 S
O320 C306 1.251 . S
O321 Nd297 2.424 1_565 S
O321 C306 1.268 . S
O322 Nd297 2.500 . S
O322 C307 1.258 . S
O323 Nd297 2.492 . S
O323 C307 1.239 . S
O324 Nd297 2.487 . S
O324 C314 1.241 1_545 S
O325 Nd296 2.414 1_556 S
O325 Nd297 2.682 1_565 S
O325 C314 1.273 . S
O326 Nd297 2.410 1_554 S
O326 C315 1.251 . S
O327 Nd296 2.424 1_545 S
O327 C315 1.268 . S
H328 C300 0.930 . S
H329 C301 0.929 . S
H330 C303 0.930 . S
H331 C304 0.929 . S
H332 C309 0.930 . S
H333 C310 0.929 . S
H334 C312 0.930 . S
H335 C313 0.929 . S
Nd336 C338 2.836 . S
Nd336 O356 2.500 . S
Nd336 O357 2.492 . S
Nd336 O358 2.487 . S
Nd336 O359 2.682 . S
Nd336 O360 2.410 . S
Nd336 O365 2.414 . S
Nd336 O367 2.424 . S
Nd337 C347 2.836 . S
Nd337 O359 2.414 . S
Nd337 O361 2.424 . S
Nd337 O362 2.500 . S
Nd337 O363 2.492 . S
Nd337 O364 2.487 . S
Nd337 O365 2.682 . S
Nd337 O366 2.410 . S
C338 Nd336 2.836 . S
C338 C339 1.498 . S
C338 O356 1.258 . S
C338 O357 1.239 . S
C339 C338 1.498 . S
C339 C340 1.366 . S
C339 C344 1.407 . S
C340 C339 1.366 . S
C340 C341 1.392 . S
C340 H368 0.930 . S
C341 C340 1.392 . S
C341 C342 1.398 . S
C341 H369 0.929 . S
C342 C341 1.398 . S
C342 C343 1.352 . S
C343 C342 1.352 . S
C343 C344 1.384 . S
C343 H370 0.930 . S
C344 C339 1.407 . S
C344 C343 1.384 . S
C344 H371 0.929 . S
C345 O358 1.241 . S
C345 O359 1.273 . S
C346 O360 1.251 . S
C346 O361 1.268 . S
C347 Nd337 2.836 . S
C347 C348 1.498 . S
C347 O362 1.258 . S
C347 O363 1.239 . S
C348 C347 1.498 . S
C348 C349 1.366 . S
C348 C353 1.407 . S
C349 C348 1.366 . S
C349 C350 1.392 . S
C349 H372 0.930 . S
C350 C349 1.392 . S
C350 C351 1.398 . S
C350 H373 0.929 . S
C351 C350 1.398 . S
C351 C352 1.352 . S
C352 C351 1.352 . S
C352 C353 1.384 . S
C352 H374 0.930 . S
C353 C348 1.407 . S
C353 C352 1.384 . S
C353 H375 0.929 . S
C354 O364 1.241 . S
C354 O365 1.273 . S
C355 O366 1.251 . S
C355 O367 1.268 . S
O356 Nd336 2.500 . S
O356 C338 1.258 . S
O357 Nd336 2.492 . S
O357 C338 1.239 . S
O358 Nd336 2.487 . S
O358 C345 1.241 . S
O359 Nd336 2.682 . S
O359 Nd337 2.414 . S
O359 C345 1.273 . S
O360 Nd336 2.410 . S
O360 C346 1.251 . S
O361 Nd337 2.424 . S
O361 C346 1.268 . S
O362 Nd337 2.500 . S
O362 C347 1.258 . S
O363 Nd337 2.492 . S
O363 C347 1.239 . S
O364 Nd337 2.487 . S
O364 C354 1.241 . S
O365 Nd336 2.414 . S
O365 Nd337 2.682 . S
O365 C354 1.273 . S
O366 Nd337 2.410 . S
O366 C355 1.251 . S
O367 Nd336 2.424 . S
O367 C355 1.268 . S
H368 C340 0.930 . S
H369 C341 0.929 . S
H370 C343 0.930 . S
H371 C344 0.929 . S
H372 C349 0.930 . S
H373 C350 0.929 . S
H374 C352 0.930 . S
H375 C353 0.929 . S
Nd376 C378 2.836 . S
Nd376 O396 2.500 . S
Nd376 O397 2.492 . S
Nd376 O398 2.487 1_655 S
Nd376 O399 2.682 1_655 S
Nd376 O400 2.410 . S
Nd376 O405 2.414 1_554 S
Nd376 O407 2.424 1_655 S
Nd377 C387 2.836 . S
Nd377 O399 2.414 1_556 S
Nd377 O401 2.424 1_455 S
Nd377 O402 2.500 . S
Nd377 O403 2.492 . S
Nd377 O404 2.487 1_455 S
Nd377 O405 2.682 1_455 S
Nd377 O406 2.410 . S
C378 Nd376 2.836 . S
C378 C379 1.498 . S
C378 O396 1.258 . S
C378 O397 1.239 . S
C379 C378 1.498 . S
C379 C380 1.366 . S
C379 C384 1.407 . S
C380 C379 1.366 . S
C380 C381 1.392 . S
C380 H408 0.930 . S
C381 C380 1.392 . S
C381 C382 1.398 . S
C381 H409 0.929 . S
C382 C381 1.398 . S
C382 C383 1.352 . S
C383 C382 1.352 . S
C383 C384 1.384 . S
C383 H410 0.930 . S
C384 C379 1.407 . S
C384 C383 1.384 . S
C384 H411 0.929 . S
C385 O398 1.241 . S
C385 O399 1.273 . S
C386 O400 1.251 1_556 S
C386 O401 1.268 . S
C387 Nd377 2.836 . S
C387 C388 1.498 . S
C387 O402 1.258 . S
C387 O403 1.239 . S
C388 C387 1.498 . S
C388 C389 1.366 . S
C388 C393 1.407 . S
C389 C388 1.366 . S
C389 C390 1.392 . S
C389 H412 0.930 . S
C390 C389 1.392 . S
C390 C391 1.398 . S
C390 H413 0.929 . S
C391 C390 1.398 . S
C391 C392 1.352 . S
C392 C391 1.352 . S
C392 C393 1.384 . S
C392 H414 0.930 . S
C393 C388 1.407 . S
C393 C392 1.384 . S
C393 H415 0.929 . S
C394 O404 1.241 . S
C394 O405 1.273 . S
C395 O406 1.251 1_554 S
C395 O407 1.268 . S
O396 Nd376 2.500 . S
O396 C378 1.258 . S
O397 Nd376 2.492 . S
O397 C378 1.239 . S
O398 Nd376 2.487 1_455 S
O398 C385 1.241 . S
O399 Nd376 2.682 1_455 S
O399 Nd377 2.414 1_554 S
O399 C385 1.273 . S
O400 Nd376 2.410 . S
O400 C386 1.251 1_554 S
O401 Nd377 2.424 1_655 S
O401 C386 1.268 . S
O402 Nd377 2.500 . S
O402 C387 1.258 . S
O403 Nd377 2.492 . S
O403 C387 1.239 . S
O404 Nd377 2.487 1_655 S
O404 C394 1.241 . S
O405 Nd376 2.414 1_556 S
O405 Nd377 2.682 1_655 S
O405 C394 1.273 . S
O406 Nd377 2.410 . S
O406 C395 1.251 1_556 S
O407 Nd376 2.424 1_455 S
O407 C395 1.268 . S
H408 C380 0.930 . S
H409 C381 0.929 . S
H410 C383 0.930 . S
H411 C384 0.929 . S
H412 C389 0.930 . S
H413 C390 0.929 . S
H414 C392 0.930 . S
H415 C393 0.929 . S
C29 C275 4.248 . S
C49 C306 3.790 . S
C345 C93 1.984 . S
C119 C382 1.348 . S
C305 C17 3.926 . S
C262 C61 1.120 . S
C394 C81 2.130 . S
C351 C125 2.930 . S
C23 C395 3.108 . S
C311 C87 1.657 . S
C113 C274 1.630 . S
C55 C346 3.254 . S
C266 C157 4.164 . S
C189 C315 4.251 . S
C221 C354 2.340 . S
C253 C391 1.281 . S
C145 C314 4.069 . S
C271 C183 1.076 . S
C385 C209 2.339 . S
C342 C247 2.925 . S
C151 C386 3.140 . S
C302 C215 1.608 . S
C265 C241 1.590 . S
C177 C355 3.671 . S
