# Generated by pormake.
# Topology zzz, (3,6)-cn, num edge types: 1
# Building blocks:
#     Node 0, Type 0, BuildingBlock: KAKCAD_clean_linker_0, # of connection points: 3
#     Node 1, Type 0, BuildingBlock: KAKCAD_clean_linker_0, # of connection points: 3
#     Node 2, Type 0, BuildingBlock: KAKCAD_clean_linker_0, # of connection points: 3
#     Node 3, Type 0, BuildingBlock: KAKCAD_clean_linker_0, # of connection points: 3
#     Node 4, Type 0, BuildingBlock: KAKCAD_clean_linker_0, # of connection points: 3
#     Node 5, Type 0, BuildingBlock: KAKCAD_clean_linker_0, # of connection points: 3
#     Node 6, Type 0, BuildingBlock: KAKCAD_clean_linker_0, # of connection points: 3
#     Node 7, Type 0, BuildingBlock: KAKCAD_clean_linker_0, # of connection points: 3
#     Node 8, Type 1, BuildingBlock: CUWYAW_clean_sbu_0, # of connection points: 6
#     Node 9, Type 1, BuildingBlock: CUWYAW_clean_sbu_0, # of connection points: 6
#     Node 10, Type 1, BuildingBlock: CUWYAW_clean_sbu_0, # of connection points: 6
#     Node 11, Type 1, BuildingBlock: CUWYAW_clean_sbu_0, # of connection points: 6
#     Edge 12, Type (0, 1), BuildingBlock: KIFKEQ_clean_linker_1, # of connection points: 2
#     Edge 13, Type (0, 1), BuildingBlock: KIFKEQ_clean_linker_1, # of connection points: 2
#     Edge 14, Type (0, 1), BuildingBlock: KIFKEQ_clean_linker_1, # of connection points: 2
#     Edge 15, Type (0, 1), BuildingBlock: KIFKEQ_clean_linker_1, # of connection points: 2
#     Edge 16, Type (0, 1), BuildingBlock: KIFKEQ_clean_linker_1, # of connection points: 2
#     Edge 17, Type (0, 1), BuildingBlock: KIFKEQ_clean_linker_1, # of connection points: 2
#     Edge 18, Type (0, 1), BuildingBlock: KIFKEQ_clean_linker_1, # of connection points: 2
#     Edge 19, Type (0, 1), BuildingBlock: KIFKEQ_clean_linker_1, # of connection points: 2
#     Edge 20, Type (0, 1), BuildingBlock: KIFKEQ_clean_linker_1, # of connection points: 2
#     Edge 21, Type (0, 1), BuildingBlock: KIFKEQ_clean_linker_1, # of connection points: 2
#     Edge 22, Type (0, 1), BuildingBlock: KIFKEQ_clean_linker_1, # of connection points: 2
#     Edge 23, Type (0, 1), BuildingBlock: KIFKEQ_clean_linker_1, # of connection points: 2
#     Edge 24, Type (0, 1), BuildingBlock: KIFKEQ_clean_linker_1, # of connection points: 2
#     Edge 25, Type (0, 1), BuildingBlock: KIFKEQ_clean_linker_1, # of connection points: 2
#     Edge 26, Type (0, 1), BuildingBlock: KIFKEQ_clean_linker_1, # of connection points: 2
#     Edge 27, Type (0, 1), BuildingBlock: KIFKEQ_clean_linker_1, # of connection points: 2
#     Edge 28, Type (0, 1), BuildingBlock: KIFKEQ_clean_linker_1, # of connection points: 2
#     Edge 29, Type (0, 1), BuildingBlock: KIFKEQ_clean_linker_1, # of connection points: 2
#     Edge 30, Type (0, 1), BuildingBlock: KIFKEQ_clean_linker_1, # of connection points: 2
#     Edge 31, Type (0, 1), BuildingBlock: KIFKEQ_clean_linker_1, # of connection points: 2
#     Edge 32, Type (0, 1), BuildingBlock: KIFKEQ_clean_linker_1, # of connection points: 2
#     Edge 33, Type (0, 1), BuildingBlock: KIFKEQ_clean_linker_1, # of connection points: 2
#     Edge 34, Type (0, 1), BuildingBlock: KIFKEQ_clean_linker_1, # of connection points: 2
#     Edge 35, Type (0, 1), BuildingBlock: KIFKEQ_clean_linker_1, # of connection points: 2
# Relax obj value: 0.422
# Max RMSD: 0.250
# Mean RMSD: 0.230
data_MOF--net-zzz--node1-CUWYAW_clean_sbu_0--node2-KAKCAD_clean_linker_0--edge1-KIFKEQ_clean_linker_1
_symmetry_space_group_name_H-M    P1
_symmetry_Int_Tables_number       1
_symmetry_cell_setting            triclinic
loop_
_symmetry_equiv_pos_as_xyz
'x, y, z'
_cell_length_a     58.947612
_cell_length_b     58.906434
_cell_length_c     19.24561
_cell_angle_alpha  90.002872
_cell_angle_beta   89.832699
_cell_angle_gamma 90.158509
loop_
_atom_site_label
_atom_site_type_symbol
_atom_site_fract_x
_atom_site_fract_y
_atom_site_fract_z
_atom_type_partial_charge
C0 C 0.77847 0.43389 0.10352 0.0
C1 C 0.79143 0.41792 0.14033 0.0
C2 C 0.76243 0.44719 0.138 0.0
C3 C 0.75906 0.44474 0.20989 0.0
C4 C 0.76991 0.42683 0.24471 0.0
C5 C 0.78596 0.41352 0.21019 0.0
C6 C 0.74815 0.46333 0.24971 0.0
C7 C 0.72871 0.47419 0.2249 0.0
C8 C 0.72097 0.49441 0.25542 0.0
C9 C 0.73291 0.5039 0.31195 0.0
C10 C 0.75237 0.49292 0.33803 0.0
C11 C 0.75955 0.4726 0.30685 0.0
C12 C 0.76736 0.50316 0.39183 0.0
C13 C 0.77616 0.52518 0.38341 0.0
C14 C 0.77655 0.48924 0.4439 0.0
C15 C 0.79547 0.49623 0.48192 0.0
C16 C 0.80561 0.51754 0.46975 0.0
C17 C 0.70158 0.50606 0.2224 0.0
C18 C 0.704 0.51415 0.15425 0.0
C19 C 0.67992 0.50559 0.25287 0.0
C20 C 0.66081 0.51203 0.21423 0.0
C21 C 0.66309 0.51911 0.14456 0.0
C22 C 0.68504 0.52066 0.11588 0.0
C23 C 0.79505 0.53232 0.42211 0.0
H24 H 0.78229 0.43784 0.04978 0.0
H25 H 0.75441 0.46086 0.10968 0.0
H26 H 0.76729 0.42429 0.29991 0.0
H27 H 0.79537 0.40102 0.23956 0.0
H28 H 0.71995 0.4673 0.18008 0.0
H29 H 0.77529 0.46491 0.32374 0.0
H30 H 0.72747 0.51991 0.33407 0.0
H31 H 0.76952 0.53627 0.34351 0.0
H32 H 0.77008 0.47219 0.45178 0.0
H33 H 0.80298 0.48417 0.51741 0.0
H34 H 0.72052 0.51432 0.1294 0.0
H35 H 0.67766 0.49908 0.30508 0.0
H36 H 0.80193 0.54908 0.41243 0.0
H37 H 0.68755 0.52562 0.06224 0.0
H38 H 0.64421 0.51081 0.23819 0.0
C39 C 0.10362 0.78601 0.08358 0.0
C40 C 0.1145 0.80475 0.11457 0.0
C41 C 0.08943 0.7719 0.12268 0.0
C42 C 0.08649 0.77558 0.1944 0.0
C43 C 0.10013 0.79206 0.22689 0.0
C44 C 0.11364 0.80671 0.18747 0.0
C45 C 0.06734 0.7646 0.23289 0.0
C46 C 0.05927 0.74304 0.21436 0.0
C47 C 0.03911 0.73421 0.24312 0.0
C48 C 0.02719 0.747 0.29346 0.0
C49 C 0.03588 0.76813 0.31566 0.0
C50 C 0.05554 0.77682 0.28399 0.0
C51 C 0.02498 0.78229 0.37034 0.0
C52 C 1.003 0.79094 0.36188 0.0
C53 C 0.03847 0.79086 0.42446 0.0
C54 C 0.031 0.80892 0.46546 0.0
C55 C 1.00966 0.81889 0.4541 0.0
C56 C 0.03067 0.71217 0.21561 0.0
C57 C 1.00965 0.71079 0.1815 0.0
C58 C 0.04566 0.69373 0.21076 0.0
C59 C 0.04076 0.67529 0.16765 0.0
C60 C 0.02069 0.67479 0.12851 0.0
C61 C 1.00467 0.69219 0.13833 0.0
C62 C 0.99538 0.80904 0.40347 0.0
H63 H 0.10469 0.78315 0.02812 0.0
H64 H 0.07955 0.75926 0.09528 0.0
H65 H 0.09925 0.79473 0.28249 0.0
H66 H 0.12182 0.82062 0.21425 0.0
H67 H 0.06828 0.73327 0.17544 0.0
H68 H 0.06102 0.79381 0.29764 0.0
H69 H 1.01165 0.74039 0.31596 0.0
H70 H 0.9923 0.78477 0.32025 0.0
H71 H 0.05554 0.78455 0.43198 0.0
H72 H 0.04273 0.81596 0.50292 0.0
H73 H 0.99788 0.72487 0.18378 0.0
H74 H 0.06194 0.6943 0.23676 0.0
H75 H 0.97864 0.81586 0.394 0.0
H76 H 0.98907 0.69227 0.10876 0.0
H77 H 0.05326 0.66196 0.16208 0.0
C78 C 0.75608 0.10705 0.08871 0.0
C79 C 0.7378 0.11957 0.1161 0.0
C80 C 0.7688 0.09278 0.13141 0.0
C81 C 0.76414 0.09138 0.20305 0.0
C82 C 0.74838 0.10663 0.23174 0.0
C83 C 0.73512 0.12027 0.18883 0.0
C84 C 0.77309 0.07216 0.24531 0.0
C85 C 0.79425 0.06245 0.23087 0.0
C86 C 0.80107 0.04218 0.2631 0.0
C87 C 0.78672 0.03176 0.3127 0.0
C88 C 0.76597 0.04212 0.33078 0.0
C89 C 0.75926 0.06189 0.2958 0.0
C90 C 0.75018 0.03291 0.38428 0.0
C91 C 0.73968 1.01163 0.37592 0.0
C92 C 0.74193 0.0477 0.43582 0.0
C93 C 0.72239 0.04233 0.47354 0.0
C94 C 0.71079 0.0219 0.46141 0.0
C95 C 0.82279 0.03207 0.23967 0.0
C96 C 0.82272 1.01257 0.19764 0.0
C97 C 0.84272 0.04509 0.24414 0.0
C98 C 0.86147 0.04003 0.20242 0.0
C99 C 0.86067 0.02187 0.15508 0.0
C100 C 0.84156 1.00746 0.15571 0.0
C101 C 0.72011 1.00612 0.41452 0.0
H102 H 0.7595 0.10685 0.03343 0.0
H103 H 0.781 0.08163 0.10696 0.0
H104 H 0.74505 0.10688 0.2871 0.0
H105 H 0.72152 0.12975 0.21291 0.0
H106 H 0.80529 0.07026 0.19255 0.0
H107 H 0.74254 0.06868 0.30633 0.0
H108 H 0.79182 1.0161 0.33766 0.0
H109 H 0.74551 1.00006 0.33597 0.0
H110 H 0.74969 0.06422 0.4433 0.0
H111 H 0.71563 0.0547 0.5097 0.0
H112 H 0.80742 1.00249 0.19249 0.0
H113 H 0.84312 0.06029 0.27583 0.0
H114 H 0.71139 0.99027 0.40418 0.0
H115 H 0.84041 0.99339 0.11965 0.0
H116 H 0.87607 0.05123 0.20393 0.0
C117 C 0.51572 0.74183 0.52403 0.0
C118 C 0.52866 0.7238 0.4967 0.0
C119 C 0.50973 0.76032 0.4822 0.0
C120 C 0.51696 0.76141 0.41277 0.0
C121 C 0.53207 0.7449 0.38804 0.0
C122 C 0.53782 0.72625 0.4294 0.0
C123 C 0.50278 0.77349 0.36157 0.0
C124 C 0.50896 0.79427 0.33061 0.0
C125 C 0.49561 0.80332 0.27628 0.0
C126 C 0.47702 0.79058 0.25131 0.0
C127 C 0.47112 0.76968 0.28119 0.0
C128 C 0.48352 0.76192 0.33827 0.0
C129 C 0.45388 0.75456 0.24876 0.0
C130 C 0.43383 0.76309 0.21894 0.0
C131 C 0.45806 0.73111 0.2453 0.0
C132 C 0.44264 0.71654 0.21397 0.0
C133 C 0.42268 0.72493 0.18402 0.0
C134 C 0.50128 0.82528 0.24154 0.0
C135 C 0.48366 0.83975 0.22009 0.0
C136 C 0.52374 0.83094 0.22314 0.0
C137 C 0.52821 0.84978 0.18041 0.0
C138 C 0.51029 0.8631 0.15507 0.0
C139 C 0.48809 0.85826 0.17689 0.0
C140 C 0.4184 0.74838 0.18629 0.0
H141 H 0.50887 0.74093 0.57621 0.0
H142 H 0.49772 0.77263 0.50205 0.0
H143 H 0.53739 0.74507 0.33409 0.0
H144 H 0.54772 0.7128 0.40598 0.0
H145 H 0.52391 0.8032 0.34861 0.0
H146 H 0.47893 0.74597 0.36282 0.0
H147 H 0.46784 0.79641 0.20603 0.0
H148 H 0.43009 0.78107 0.22071 0.0
H149 H 0.47365 0.72393 0.26508 0.0
H150 H 0.44683 0.69867 0.21089 0.0
H151 H 0.46623 0.83624 0.23462 0.0
H152 H 0.53769 0.82015 0.23848 0.0
H153 H 0.40324 0.75527 0.16278 0.0
H154 H 0.47403 0.86845 0.15869 0.0
H155 H 0.54549 0.85319 0.16406 0.0
C156 C 0.23725 0.42359 0.30458 0.0
C157 C 0.21752 0.41543 0.2715 0.0
C158 C 0.25444 0.43419 0.26619 0.0
C159 C 0.25286 0.43582 0.19346 0.0
C160 C 0.23547 0.42363 0.16006 0.0
C161 C 0.21776 0.41402 0.19841 0.0
C162 C 0.26634 0.45319 0.15441 0.0
C163 C 0.28803 0.46007 0.17612 0.0
C164 C 0.2987 0.47935 0.14714 0.0
C165 C 0.28756 0.49156 0.09402 0.0
C166 C 0.26634 0.48411 0.0694 0.0
C167 C 0.25595 0.46525 0.10034 0.0
C168 C 0.25332 0.49612 0.01471 0.0
C169 C 0.24394 0.51757 0.02788 0.0
C170 C 0.24555 0.4837 0.95716 0.0
C171 C 0.22741 0.49155 0.91733 0.0
C172 C 0.21655 0.51211 0.9339 0.0
C173 C 0.32066 0.48719 0.17714 0.0
C174 C 0.32356 0.50981 0.19863 0.0
C175 C 0.33785 0.47143 0.19211 0.0
C176 C 0.35688 0.4778 0.23088 0.0
C177 C 0.35919 0.50011 0.25598 0.0
C178 C 0.34257 0.51618 0.23783 0.0
C179 C 0.22575 0.52552 0.98774 0.0
H180 H 0.23868 0.42362 0.3606 0.0
H181 H 0.2678 0.44276 0.29443 0.0
H182 H 0.23436 0.42325 0.10392 0.0
H183 H 0.20344 0.40746 0.1697 0.0
H184 H 0.2963 0.451 0.21788 0.0
H185 H 0.23886 0.46091 0.08438 0.0
H186 H 0.29538 0.50655 0.07169 0.0
H187 H 0.24943 0.52735 0.07246 0.0
H188 H 0.25233 0.46697 0.94647 0.0
H189 H 0.22086 0.48055 0.87699 0.0
H190 H 0.31057 0.52233 0.18827 0.0
H191 H 0.33619 0.4539 0.17584 0.0
H192 H 0.21818 0.54167 1.0012 0.0
H193 H 0.34396 0.53359 0.25544 0.0
H194 H 0.36921 0.46492 0.24406 0.0
C195 C 0.11709 0.25399 0.30066 0.0
C196 C 0.12143 0.23243 0.2717 0.0
C197 C 0.10892 0.27155 0.25898 0.0
C198 C 0.10647 0.26836 0.18692 0.0
C199 C 0.11675 0.24917 0.15697 0.0
C200 C 0.12365 0.23113 0.19881 0.0
C201 C 0.08913 0.28153 0.14719 0.0
C202 C 0.08284 0.30357 0.16698 0.0
C203 C 0.06276 0.3136 0.14202 0.0
C204 C 0.04923 0.30153 0.09379 0.0
C205 C 0.05622 0.28002 0.06986 0.0
C206 C 0.07591 0.2703 0.09719 0.0
C207 C 0.04292 0.26587 0.02058 0.0
C208 C 0.02292 0.25503 0.04263 0.0
C209 C 0.05348 0.25832 0.95928 0.0
C210 C 0.04528 0.23929 0.9237 0.0
C211 C 0.02627 0.22721 0.94852 0.0
C212 C 0.05549 0.33563 0.1731 0.0
C213 C 0.03377 0.33803 0.20253 0.0
C214 C 0.07148 0.35308 0.18344 0.0
C215 C 0.06651 0.37159 0.22635 0.0
C216 C 0.04537 0.37321 0.25995 0.0
C217 C 0.02876 0.35664 0.2455 0.0
C218 C 1.01464 0.23593 1.0069 0.0
H219 H 0.11735 0.25667 0.35624 0.0
H220 H 0.10229 0.28644 0.28481 0.0
H221 H 0.11697 0.24683 0.10116 0.0
H222 H 0.12813 0.21553 0.17277 0.0
H223 H 0.09287 0.31252 0.20528 0.0
H224 H 0.07983 0.25301 0.08243 0.0
H225 H 0.03354 0.30879 0.07497 0.0
H226 H 1.0147 0.26023 0.09045 0.0
H227 H 0.06919 0.2661 0.94195 0.0
H228 H 0.05493 0.23315 0.87964 0.0
H229 H 0.02115 0.3248 0.19616 0.0
H230 H 0.08828 0.35188 0.1608 0.0
H231 H 0.99971 0.22739 0.02693 0.0
H232 H 1.01232 0.35729 0.27066 0.0
H233 H 0.07953 0.38429 0.235 0.0
C234 C 0.2497 0.08396 0.39518 0.0
C235 C 0.27225 0.09166 0.39667 0.0
C236 C 0.23823 0.08202 0.33224 0.0
C237 C 0.24865 0.08874 0.26941 0.0
C238 C 0.26961 0.10016 0.27308 0.0
C239 C 0.28146 0.10127 0.33573 0.0
C240 C 0.23954 0.08056 0.20135 0.0
C241 C 0.21651 0.07523 0.19433 0.0
C242 C 0.20869 0.06172 0.13937 0.0
C243 C 0.22389 0.05502 0.08645 0.0
C244 C 0.24669 0.0624 0.08878 0.0
C245 C 0.25434 0.07462 0.14691 0.0
C246 C 0.26361 0.05703 0.03377 0.0
C247 C 0.27173 0.03482 0.02466 0.0
C248 C 0.27497 0.07497 1.00037 0.0
C249 C 0.2948 0.07107 0.96225 0.0
C250 C 0.30399 0.04911 0.95704 0.0
C251 C 0.18529 0.05276 0.14633 0.0
C252 C 0.1822 0.03096 0.1744 0.0
C253 C 0.16717 0.06818 0.14899 0.0
C254 C 0.14735 0.06284 0.18579 0.0
C255 C 0.1453 0.04201 0.22112 0.0
C256 C 0.16237 0.02562 0.21149 0.0
C257 C 0.29174 0.03088 0.98651 0.0
H258 H 0.2416 0.07739 0.44161 0.0
H259 H 0.22205 0.07333 0.33311 0.0
H260 H 0.27775 0.10671 0.22675 0.0
H261 H 0.29864 0.10775 0.33433 0.0
H262 H 0.20461 0.08025 0.23446 0.0
H263 H 0.27231 0.07827 0.15083 0.0
H264 H 0.21806 0.04441 0.04409 0.0
H265 H 0.26351 0.02075 0.05091 0.0
H266 H 0.26913 0.09227 1.00695 0.0
H267 H 0.30344 0.08545 0.93905 0.0
H268 H 0.19609 0.01895 0.17444 0.0
H269 H 0.16927 0.08521 0.12867 0.0
H270 H 0.29833 1.01377 0.98384 0.0
H271 H 0.16144 1.00942 0.23797 0.0
H272 H 0.13433 0.07568 0.19076 0.0
C273 C 0.50109 0.30212 1.00192 0.0
C274 C 0.51623 0.31227 0.95399 0.0
C275 C 0.50796 0.2837 0.04331 0.0
C276 C 0.53004 0.27503 0.03734 0.0
C277 C 0.54445 0.28395 0.9858 0.0
C278 C 0.53774 0.30234 0.94512 0.0
C279 C 0.53992 0.26024 0.09213 0.0
C280 C 0.53025 0.23935 0.11274 0.0
C281 C 0.54103 0.22601 0.16399 0.0
C282 C 0.56108 0.23408 0.19517 0.0
C283 C 0.57017 0.25535 0.17778 0.0
C284 C 0.55946 0.26811 0.1259 0.0
C285 C 0.58916 0.26565 0.21829 0.0
C286 C 0.59079 0.26223 0.29046 0.0
C287 C 0.60385 0.28151 0.18701 0.0
C288 C 0.61703 0.29603 0.2276 0.0
C289 C 0.6165 0.29454 0.30064 0.0
C290 C 0.53121 0.20429 0.19 0.0
C291 C 0.50888 0.20336 0.21552 0.0
C292 C 0.5454 0.18545 0.20024 0.0
C293 C 0.53814 0.16694 0.23999 0.0
C294 C 0.51642 0.1667 0.27047 0.0
C295 C 0.50155 0.18476 0.2554 0.0
C296 C 0.60467 0.27621 0.3309 0.0
H297 H 0.48421 0.30889 1.00937 0.0
H298 H 0.49654 0.27725 0.08288 0.0
H299 H 0.56159 0.27761 0.98009 0.0
H300 H 0.55012 0.30959 0.90986 0.0
H301 H 0.51479 0.23338 0.08844 0.0
H302 H 0.56569 0.28495 0.11344 0.0
H303 H 0.56917 0.22402 0.23513 0.0
H304 H 0.5801 0.25 0.31689 0.0
H305 H 0.60396 0.28391 0.13122 0.0
H306 H 0.626 0.30957 0.20126 0.0
H307 H 0.49758 0.21765 0.20865 0.0
H308 H 0.56267 0.18562 0.18081 0.0
H309 H 0.60468 0.27362 0.38657 0.0
H310 H 0.48455 0.18498 0.27679 0.0
H311 H 0.55019 0.15354 0.25049 0.0
C312 C 0.98827 0.04836 0.50936 0.0
Eu313 Eu 0.99411 0.03213 0.63272 0.0
C314 C 1.00016 0.06739 0.47497 0.0
C315 C 1.00122 0.08876 0.50732 0.0
C316 C 1.01556 0.1056 0.48158 0.0
C317 C 0.02923 0.10149 0.4231 0.0
C318 C 0.02757 0.08047 0.38896 0.0
C319 C 1.0131 0.06354 0.4147 0.0
C320 C 0.96503 0.02135 0.73894 0.0
C321 C 1.00908 0.06792 0.75076 0.0
C322 C 0.0414 1.00306 0.87837 0.0
Eu323 Eu 0.02154 1.01398 0.7631 0.0
C324 C 0.05788 0.98537 0.89601 0.0
C325 C 0.07338 0.98878 0.9501 0.0
C326 C 0.08938 0.97207 0.96594 0.0
C327 C 0.09006 0.95166 0.92788 0.0
C328 C 0.07467 0.9486 0.87283 0.0
C329 C 0.05886 0.96534 0.8568 0.0
C330 C 0.04475 1.01885 0.642 0.0
C331 C 1.00118 0.97744 0.6558 0.0
O332 O 1.00082 0.03043 0.52142 0.0
O333 O 0.97513 0.05366 0.5621 0.0
O334 O 0.95832 0.02903 0.67907 0.0
O335 O 0.98621 0.01949 0.7368 0.0
O336 O 1.00418 0.0651 0.68424 0.0
O337 O 1.01343 0.05053 0.79237 0.0
O338 O 0.02099 0.99596 0.86172 0.0
O339 O 0.04905 0.01894 0.83675 0.0
O340 O 0.04836 1.00254 0.68576 0.0
O341 O 0.02997 0.0322 0.66573 0.0
O342 O 1.00769 0.98091 0.72089 0.0
O343 O 0.99733 0.99432 0.6117 0.0
H344 H 0.99173 0.09225 0.55435 0.0
H345 H 1.01664 0.12156 0.50937 0.0
H346 H 0.03786 0.07696 0.34352 0.0
H347 H 1.01274 0.04713 0.38932 0.0
H348 H 0.07308 1.00434 0.98011 0.0
H349 H 0.10111 0.97508 1.00816 0.0
H350 H 0.07432 0.93297 0.84324 0.0
H351 H 0.04723 0.96253 0.81413 0.0
C352 C 0.47462 0.98949 0.56454 0.0
Eu353 Eu 0.49995 1.00365 0.66458 0.0
C354 C 0.452 0.9984 0.547 0.0
C355 C 0.43275 0.98467 0.5568 0.0
C356 C 0.4111 0.99429 0.55741 0.0
C357 C 0.40839 1.0178 0.54819 0.0
C358 C 0.42756 0.03128 0.53455 0.0
C359 C 0.44912 0.02171 0.53397 0.0
C360 C 0.51594 0.97927 0.77341 0.0
C361 C 0.46473 0.02602 0.77682 0.0
C362 C 0.53755 0.04523 0.90486 0.0
Eu363 Eu 0.51856 0.03202 0.79078 0.0
C364 C 0.55619 0.06128 0.91853 0.0
C365 C 0.55366 0.07812 0.96942 0.0
C366 C 0.57088 0.0941 0.98048 0.0
C367 C 0.591 0.09343 0.94094 0.0
C368 C 0.59331 0.07659 0.88955 0.0
C369 C 0.57605 0.06081 0.87813 0.0
C370 C 0.51169 0.05985 0.67851 0.0
C371 C 0.553 1.01428 0.66775 0.0
O372 O 0.49187 1.00323 0.55418 0.0
O373 O 0.47559 0.97912 0.62466 0.0
O374 O 0.51813 0.97323 0.7088 0.0
O375 O 0.50451 0.99732 0.77775 0.0
O376 O 0.46835 0.01961 0.71184 0.0
O377 O 0.48163 0.02903 0.82091 0.0
O378 O 0.54301 0.02624 0.87314 0.0
O379 O 0.5189 0.05438 0.88084 0.0
O380 O 0.51923 0.06696 0.73778 0.0
O381 O 0.5083 0.03892 0.68379 0.0
O382 O 0.55047 0.02001 0.73413 0.0
O383 O 0.53554 1.00972 0.62687 0.0
H384 H 0.43454 0.96673 0.56781 0.0
H385 H 0.39659 0.98348 0.56788 0.0
H386 H 0.42593 0.04934 0.5254 0.0
H387 H 0.46354 0.03285 0.52653 0.0
H388 H 0.53829 0.07899 1.00034 0.0
H389 H 0.56842 0.10696 0.02 0.0
H390 H 0.60871 0.07517 0.85907 0.0
H391 H 0.57833 0.0482 0.83773 0.0
C392 C 0.54015 0.4937 0.52225 0.0
Eu393 Eu 0.52454 0.50831 0.64015 0.0
C394 C 0.55684 0.47596 0.50585 0.0
C395 C 0.57241 0.47903 0.45143 0.0
C396 C 0.58866 0.46237 0.43709 0.0
C397 C 0.58954 0.44234 0.47696 0.0
C398 C 0.57405 0.4396 0.53213 0.0
C399 C 0.55802 0.45628 0.54671 0.0
C400 C 0.55063 0.51399 0.75643 0.0
C401 C 0.50696 0.47073 0.74989 0.0
C402 C 0.47197 0.53589 0.87611 0.0
Eu403 Eu 0.49408 0.52483 0.76465 0.0
C404 C 0.45766 0.55553 0.895 0.0
C405 C 0.43436 0.55255 0.9077 0.0
C406 C 0.42057 0.5712 0.92333 0.0
C407 C 0.42989 0.59318 0.92686 0.0
C408 C 0.45327 0.59601 0.91439 0.0
C409 C 0.46694 0.57748 0.89835 0.0
C410 C 0.47428 0.52502 0.63684 0.0
C411 C 0.51787 0.56219 0.66963 0.0
O412 O 0.52091 0.48669 0.54923 0.0
O413 O 0.54828 0.51166 0.5536 0.0
O414 O 0.55852 0.50704 0.6973 0.0
O415 O 0.52972 0.51708 0.74981 0.0
O416 O 0.51641 0.47434 0.6884 0.0
O417 O 0.49877 0.48737 0.78899 0.0
O418 O 0.49374 0.53986 0.86767 0.0
O419 O 0.46365 0.52219 0.82884 0.0
O420 O 0.47057 0.54017 0.6843 0.0
O421 O 0.48745 0.51003 0.66009 0.0
O422 O 0.5114 0.55742 0.73389 0.0
O423 O 0.52001 0.54617 0.62155 0.0
H424 H 0.57199 0.4943 0.42008 0.0
H425 H 0.60045 0.46514 0.39468 0.0
H426 H 0.57381 0.42426 0.56309 0.0
H427 H 0.5464 0.45365 0.5897 0.0
H428 H 0.42678 0.53579 0.90518 0.0
H429 H 0.40265 0.56839 0.93243 0.0
H430 H 0.46123 0.61254 0.91853 0.0
H431 H 0.48482 0.58045 0.88878 0.0
C432 C 0.03845 0.536 0.49451 0.0
Eu433 Eu 0.02135 0.53616 0.61786 0.0
C434 C 0.05408 0.51877 0.46581 0.0
C435 C 0.07436 0.51374 0.50069 0.0
C436 C 0.08709 0.4948 0.48229 0.0
C437 C 0.07989 0.48027 0.42876 0.0
C438 C 0.06013 0.48577 0.39171 0.0
C439 C 0.04729 0.50485 0.41025 0.0
C440 C 1.01316 0.56646 0.72239 0.0
C441 C 0.05713 0.52303 0.74056 0.0
C442 C 0.98772 0.50061 0.8843 0.0
Eu443 Eu 1.00438 0.51111 0.76392 0.0
C444 C 0.97128 0.48312 0.90467 0.0
C445 C 0.96659 0.47898 0.97486 0.0
C446 C 0.94989 0.46319 0.99356 0.0
C447 C 0.93762 0.45144 0.94215 0.0
C448 C 0.94297 0.45514 0.87186 0.0
C449 C 0.9597 0.47083 0.8533 0.0
C450 C 1.01407 0.48154 0.65719 0.0
C451 C 0.96729 0.52722 0.64549 0.0
O452 O 1.01787 0.52862 0.50755 0.0
O453 O 0.04649 0.54893 0.54443 0.0
O454 O 0.01917 0.5726 0.65969 0.0
O455 O 1.01129 0.5452 0.72312 0.0
O456 O 0.05346 0.52437 0.67254 0.0
O457 O 0.0404 0.52168 0.78664 0.0
O458 O 0.97949 0.51692 0.84535 0.0
O459 O 1.00733 0.49299 0.862 0.0
O460 O 1.00785 0.47471 0.71848 0.0
O461 O 1.01457 0.50267 0.65931 0.0
O462 O 0.9713 0.5192 0.70895 0.0
O463 O 0.98342 0.53387 0.60145 0.0
H464 H 0.08013 0.52398 0.54389 0.0
H465 H 0.10262 0.49152 0.51044 0.0
H466 H 0.05417 0.47493 0.3501 0.0
H467 H 0.03156 0.50818 0.38317 0.0
H468 H 0.97544 0.48832 0.01505 0.0
H469 H 0.94592 0.4609 0.0481 0.0
H470 H 0.93392 0.44622 0.83122 0.0
H471 H 0.96328 0.47374 0.79875 0.0
H472 H 0.1205 1.00344 0.25163 0.0
H473 H 0.13018 0.07305 0.31583 0.0
H474 H 0.09433 0.99758 0.34888 0.0
H475 H 0.10456 0.06713 0.41301 0.0
H476 H 0.04446 0.05561 0.55525 0.0
H477 H 0.06644 0.06095 0.44875 0.0
H478 H 0.09543 0.99422 0.47328 0.0
H479 H 0.07329 0.98885 0.57938 0.0
C480 C 0.11695 1.01753 0.28613 0.0
C481 C 0.12738 0.03875 0.27537 0.0
C482 C 0.10202 1.01415 0.34214 0.0
C483 C 0.09725 0.03188 0.38911 0.0
C484 C 0.10733 0.0532 0.37729 0.0
C485 C 0.1221 0.0566 0.32124 0.0
C486 C 0.05537 0.04202 0.53741 0.0
C487 C 0.05717 0.02182 0.57562 0.0
C488 C 0.06804 0.0451 0.47646 0.0
C489 C 0.0827 0.02803 0.45188 0.0
C490 C 0.08411 1.00763 0.48972 0.0
C491 C 0.07154 1.00461 0.55093 0.0
H492 H 0.52738 0.12117 0.27116 0.0
H493 H 0.4924 0.17222 0.39155 0.0
H494 H 0.52357 0.09451 0.36744 0.0
H495 H 0.48752 0.14525 0.48589 0.0
H496 H 0.51492 0.10556 0.67197 0.0
H497 H 0.51263 0.12988 0.57034 0.0
H498 H 0.49971 0.07119 0.44146 0.0
H499 H 0.50281 0.0467 0.54412 0.0
C500 C 0.51856 0.12664 0.31764 0.0
C501 C 0.5105 0.14906 0.32356 0.0
C502 C 0.51615 0.11122 0.37269 0.0
C503 C 0.50553 0.11778 0.43509 0.0
C504 C 0.49622 0.13972 0.43927 0.0
C505 C 0.49872 0.15514 0.38447 0.0
C506 C 0.51143 0.09784 0.62202 0.0
C507 C 0.50888 0.07422 0.61603 0.0
C508 C 0.50991 0.11183 0.56364 0.0
C509 C 0.50577 0.10261 0.49741 0.0
C510 C 0.503 0.0789 0.4915 0.0
C511 C 0.50455 0.06486 0.55029 0.0
H512 H 0.35659 0.52591 0.37388 0.0
H513 H 0.40402 0.48717 0.25069 0.0
H514 H 0.3859 0.53287 0.45984 0.0
H515 H 0.4336 0.49436 0.33666 0.0
H516 H 0.47062 0.48846 0.54922 0.0
H517 H 0.44417 0.48376 0.45255 0.0
H518 H 0.42027 0.55232 0.48393 0.0
H519 H 0.44617 0.55662 0.58153 0.0
C520 C 0.37342 0.51926 0.36433 0.0
C521 C 0.37788 0.50599 0.30514 0.0
C522 C 0.39031 0.52326 0.41382 0.0
C523 C 0.41224 0.51419 0.40553 0.0
C524 C 0.41686 0.50132 0.3455 0.0
C525 C 0.3999 0.49725 0.29603 0.0
C526 C 0.45986 0.50256 0.53484 0.0
C527 C 0.4603 0.52282 0.5733 0.0
C528 C 0.44473 0.49994 0.47921 0.0
C529 C 0.42981 0.51757 0.46061 0.0
C530 C 0.43107 0.53817 0.49754 0.0
C531 C 0.44605 0.54071 0.55326 0.0
H532 H 0.07471 0.38761 0.36077 0.0
H533 H 1.00704 0.39883 0.28275 0.0
H534 H 0.06778 0.41465 0.45405 0.0
H535 H 1.00007 0.42591 0.37682 0.0
H536 H 1.00321 0.48836 0.52123 0.0
H537 H 1.01146 0.46359 0.42213 0.0
H538 H 0.04446 0.41626 0.55996 0.0
H539 H 0.0362 0.44119 0.65855 0.0
C540 C 0.05843 0.39608 0.36288 0.0
C541 C 0.04142 0.39099 0.31404 0.0
C542 C 0.05441 0.41147 0.41685 0.0
C543 C 0.03337 0.42246 0.42315 0.0
C544 C 1.01654 0.41788 0.37328 0.0
C545 C 0.02046 0.40222 0.31966 0.0
C546 C 1.01266 0.47292 0.52981 0.0
C547 C 0.01954 0.46692 0.59706 0.0
C548 C 1.01707 0.45853 0.47336 0.0
C549 C 0.02879 0.43799 0.48288 0.0
C550 C 0.03573 0.43211 0.55047 0.0
C551 C 0.03091 0.4463 0.607 0.0
H552 H 0.87677 0.05617 0.07464 0.0
H553 H 0.88312 0.9839 0.10647 0.0
H554 H 0.90265 0.054 0.97606 0.0
H555 H 0.90946 0.98182 1.00703 0.0
H556 H 0.9754 1.00216 0.86526 0.0
H557 H 0.95097 1.00036 0.96917 0.0
H558 H 0.89727 0.03307 0.85531 0.0
H559 H 0.9213 0.03448 0.75201 0.0
C560 C 0.88402 0.03985 0.06138 0.0
C561 C 0.87799 0.02022 0.09876 0.0
C562 C 0.89871 0.03861 1.00451 0.0
C563 C 0.90798 1.01775 0.98382 0.0
C564 C 0.90258 0.99813 0.02217 0.0
C565 C 0.88748 0.99931 0.07872 0.0
C566 C 0.95831 1.00872 0.86251 0.0
C567 C 0.95028 1.01856 0.80075 0.0
C568 C 0.94433 1.00762 0.92172 0.0
C569 C 0.92231 1.01672 0.92027 0.0
C570 C 0.91423 0.02609 0.85801 0.0
C571 C 0.92798 0.02684 0.79884 0.0
H572 H 0.53715 0.9013 0.1609 0.0
H573 H 0.49185 0.86406 0.02685 0.0
H574 H 0.54156 0.93066 0.07043 0.0
H575 H 0.49658 0.89285 0.93663 0.0
H576 H 0.52932 0.9352 0.76647 0.0
H577 H 0.53068 0.90755 0.86082 0.0
H578 H 0.51244 0.95976 1.00776 0.0
H579 H 0.51066 0.98756 0.91275 0.0
C580 C 0.52833 0.89935 0.11195 0.0
C581 C 0.51412 0.88053 0.10068 0.0
C582 C 0.53076 0.91612 0.06051 0.0
C583 C 0.51947 0.91395 0.99653 0.0
C584 C 0.50563 0.89487 0.98518 0.0
C585 C 0.50284 0.87846 0.03683 0.0
C586 C 0.52588 0.94089 0.81897 0.0
C587 C 0.51965 0.96349 0.83216 0.0
C588 C 0.52662 0.92504 0.87291 0.0
C589 C 0.52153 0.93149 0.94144 0.0
C590 C 0.51653 0.95437 0.9554 0.0
C591 C 0.51543 0.97022 0.90109 0.0
H592 H 0.65728 0.55163 0.04409 0.0
H593 H 0.62313 0.49487 0.14127 0.0
H594 H 0.6278 0.55307 0.9556 0.0
H595 H 0.59332 0.49679 0.05343 0.0
H596 H 0.53696 0.51745 0.89323 0.0
H597 H 0.56162 0.52186 0.9957 0.0
H598 H 0.62035 0.52357 0.86122 0.0
H599 H 0.59603 0.51885 0.76032 0.0
C600 C 0.64335 0.53966 0.04725 0.0
C601 C 0.64288 0.52287 0.09929 0.0
C602 C 0.62641 0.54055 0.99665 0.0
C603 C 0.6084 0.52487 0.99711 0.0
C604 C 0.60693 0.50918 0.05195 0.0
C605 C 0.62403 0.50813 0.1024 0.0
C606 C 0.55513 0.51897 0.88597 0.0
C607 C 0.56462 0.51783 0.81899 0.0
C608 C 0.56921 0.5214 0.94439 0.0
C609 C 0.5929 0.52325 0.93638 0.0
C610 C 0.60217 0.52253 0.86911 0.0
C611 C 0.58824 0.51968 0.81131 0.0
H612 H 0.05178 0.66368 0.03015 0.0
H613 H 0.9836 0.64794 0.0974 0.0
H614 H 0.04788 0.63722 0.93359 0.0
H615 H 0.97979 0.621 1.00014 0.0
H616 H 1.00058 0.55643 0.85676 0.0
H617 H 1.00035 0.58232 0.95701 0.0
H618 H 0.02211 0.63719 0.8239 0.0
H619 H 0.02186 0.61162 0.72415 0.0
C620 C 0.03602 0.65434 0.02476 0.0
C621 C 1.01804 0.6578 0.07171 0.0
C622 C 0.03375 0.63931 0.96909 0.0
C623 C 1.01352 0.6271 0.95922 0.0
C624 C 0.9956 0.63016 1.00674 0.0
C625 C 0.99774 0.6456 0.06207 0.0
C626 C 1.00491 0.5741 0.84891 0.0
C627 C 1.01119 0.582 0.78265 0.0
C628 C 1.00477 0.5889 0.90617 0.0
C629 C 1.01133 0.61173 0.89824 0.0
C630 C 1.01714 0.61965 0.83165 0.0
C631 C 1.01693 0.605 0.77452 0.0
H632 H 0.09823 0.22797 0.39659 0.0
H633 H 0.13489 0.18768 0.2448 0.0
H634 H 0.08008 0.19442 0.43907 0.0
H635 H 0.1144 0.15424 0.28388 0.0
H636 H 0.07417 0.09591 0.39013 0.0
H637 H 0.10226 0.12573 0.36756 0.0
H638 H 0.04922 0.1761 0.3814 0.0
H639 H 0.02161 0.14652 0.4057 0.0
C640 C 0.10302 0.21214 0.37242 0.0
C641 C 0.11733 0.21126 0.31354 0.0
C642 C 0.09206 0.19274 0.39656 0.0
C643 C 0.0947 0.17195 0.36206 0.0
C644 C 0.11143 0.17019 0.31027 0.0
C645 C 0.12294 0.18961 0.28709 0.0
C646 C 0.06861 0.11337 0.38792 0.0
C647 C 0.04579 0.11897 0.40067 0.0
C648 C 0.08468 0.13044 0.37521 0.0
C649 C 0.07812 0.15336 0.37465 0.0
C650 C 0.05507 0.15871 0.3842 0.0
C651 C 0.03915 0.14176 0.3974 0.0
H652 H 0.26945 0.05355 0.47824 0.0
H653 H 0.31014 0.11403 0.44705 0.0
H654 H 0.29988 0.03656 0.54317 0.0
H655 H 0.34135 0.096 0.50808 0.0
H656 H 0.39654 0.0573 0.6135 0.0
H657 H 0.36025 0.07719 0.60607 0.0
H658 H 0.33308 0.02185 0.48417 0.0
H659 H 0.3691 1.00222 0.49136 0.0
C660 C 0.28449 0.0637 0.48699 0.0
C661 C 0.28749 0.08501 0.45487 0.0
C662 C 0.30214 0.05368 0.52371 0.0
C663 C 0.32327 0.06454 0.52828 0.0
C664 C 0.32533 0.08704 0.50466 0.0
C665 C 0.3075 0.09727 0.46874 0.0
C666 C 0.38268 0.04938 0.58563 0.0
C667 C 0.38571 0.0284 0.55192 0.0
C668 C 0.36192 0.06069 0.58178 0.0
C669 C 0.34382 0.05114 0.54452 0.0
C670 C 0.34653 0.02953 0.51442 0.0
C671 C 0.36723 1.01828 0.51816 0.0
H672 H 0.59916 0.30895 0.42587 0.0
H673 H 0.6511 0.32559 0.27425 0.0
H674 H 0.60357 0.34578 0.47773 0.0
H675 H 0.65402 0.36356 0.32433 0.0
H676 H 0.61229 0.41345 0.56447 0.0
H677 H 0.62913 0.377 0.53337 0.0
H678 H 0.61948 0.39218 0.31618 0.0
H679 H 0.60181 0.42804 0.34671 0.0
C680 C 0.61217 0.31994 0.40468 0.0
C681 C 0.62427 0.31416 0.34393 0.0
C682 C 0.6146 0.34131 0.43474 0.0
C683 C 0.62884 0.35762 0.40428 0.0
C684 C 0.64269 0.3513 0.34818 0.0
C685 C 0.64075 0.3296 0.31907 0.0
C686 C 0.61407 0.40919 0.50999 0.0
C687 C 0.60506 0.4234 0.45818 0.0
C688 C 0.62397 0.38845 0.49234 0.0
C689 C 0.62543 0.38176 0.42251 0.0
C690 C 0.61877 0.39703 0.37044 0.0
C691 C 0.60857 0.41762 0.38807 0.0
H692 H 0.20527 0.4362 0.39433 0.0
H693 H 0.17903 0.38981 0.23889 0.0
H694 H 0.16775 0.44137 0.43929 0.0
H695 H 0.14072 0.39691 0.28183 0.0
H696 H 0.09075 0.464 0.29937 0.0
H697 H 0.12093 0.43722 0.27158 0.0
H698 H 0.13091 0.42433 0.49006 0.0
H699 H 0.10036 0.45068 0.51805 0.0
C700 C 0.19186 0.42636 0.37067 0.0
C701 C 0.19563 0.41303 0.31086 0.0
C702 C 0.17006 0.42952 0.39678 0.0
C703 C 0.15129 0.41985 0.3633 0.0
C704 C 0.15495 0.40481 0.30793 0.0
C705 C 0.17697 0.40105 0.28288 0.0
C706 C 0.09874 0.4548 0.34138 0.0
C707 C 0.09376 0.46006 0.41098 0.0
C708 C 0.11596 0.43935 0.32543 0.0
C709 C 0.12849 0.42904 0.37883 0.0
C710 C 0.12169 0.4323 0.44803 0.0
C711 C 0.10442 0.4476 0.46395 0.0
H712 H 0.09894 0.8183 0.98675 0.0
H713 H 0.1484 0.83619 0.14376 0.0
H714 H 0.10402 0.85477 0.93308 0.0
H715 H 0.15211 0.87377 0.09137 0.0
H716 H 0.11293 0.92178 0.84348 0.0
H717 H 0.12939 0.88553 0.87811 0.0
H718 H 0.11852 0.90262 0.09367 0.0
H719 H 0.10138 0.93835 0.05957 0.0
C720 C 0.11158 0.8295 1.00879 0.0
C721 C 0.12277 0.82419 0.07133 0.0
C722 C 0.11442 0.85066 0.97766 0.0
C723 C 0.12817 0.86722 1.00874 0.0
C724 C 0.14116 0.86133 0.06697 0.0
C725 C 0.13877 0.83986 0.09733 0.0
C726 C 0.11439 0.91798 0.89834 0.0
C727 C 0.10523 0.93271 0.94866 0.0
C728 C 0.12405 0.89734 0.91804 0.0
C729 C 0.12503 0.89123 0.98844 0.0
C730 C 0.11819 0.907 0.039 0.0
C731 C 0.10828 0.92751 0.01933 0.0
H732 H 0.72434 0.10179 0.9908 0.0
H733 H 0.70811 0.15554 0.1362 0.0
H734 H 0.68811 0.10653 0.93611 0.0
H735 H 0.67073 0.15902 0.08303 0.0
H736 H 0.60532 0.10838 0.06823 0.0
H737 H 0.64141 0.12612 0.09539 0.0
H738 H 0.65742 0.1304 0.87682 0.0
H739 H 0.62075 0.11335 0.84895 0.0
C740 C 0.71359 0.11529 1.00984 0.0
C741 C 0.71917 0.12775 0.06998 0.0
C742 C 0.69257 0.11794 0.97812 0.0
C743 C 0.67644 0.13281 1.00626 0.0
C744 C 0.6828 0.14716 0.06107 0.0
C745 C 0.70414 0.14492 0.09194 0.0
C746 C 0.616 0.11395 0.02563 0.0
C747 C 0.61034 0.10887 0.95642 0.0
C748 C 0.63673 0.12422 0.0413 0.0
C749 C 0.65229 0.12941 0.98818 0.0
C750 C 0.64576 0.12638 0.91871 0.0
C751 C 0.6249 0.11637 0.90295 0.0
H752 H 0.40608 0.72935 0.05205 0.0
H753 H 0.40674 0.68412 0.22823 0.0
H754 H 0.39449 0.69798 0.9772 0.0
H755 H 0.39679 0.65265 0.15406 0.0
H756 H 0.39556 0.59483 0.02385 0.0
H757 H 0.37951 0.62868 0.07666 0.0
H758 H 0.41818 0.67037 0.93371 0.0
H759 H 0.43237 0.63667 0.8774 0.0
C760 C 0.40296 0.71287 0.07518 0.0
C761 C 0.40801 0.70892 0.14534 0.0
C762 C 0.39663 0.69477 0.03217 0.0
C763 C 0.39569 0.67245 0.05859 0.0
C764 C 0.39747 0.66937 0.13093 0.0
C765 C 0.40342 0.68746 0.17382 0.0
C766 C 0.39989 0.61121 1.00188 0.0
C767 C 0.41598 0.61306 0.94808 0.0
C768 C 0.39087 0.6307 0.03278 0.0
C769 C 0.39818 0.65243 1.01164 0.0
C770 C 0.41212 0.65411 0.95232 0.0
C771 C 0.42072 0.63466 0.92061 0.0
H772 H 0.80045 0.40297 1.00756 0.0
H773 H 0.83223 0.41636 0.20538 0.0
H774 H 0.83779 0.40197 0.95222 0.0
H775 H 0.86908 0.41583 0.1507 0.0
H776 H 0.93466 0.41964 0.04588 0.0
H777 H 0.90029 0.40094 0.08872 0.0
H778 H 0.8616 0.43341 0.92624 0.0
H779 H 0.89581 0.45139 0.88297 0.0
C780 C 0.81541 0.40506 0.03951 0.0
C781 C 0.81334 0.41012 0.1106 0.0
C782 C 0.8368 0.4046 1.00784 0.0
C783 C 0.85645 0.4094 0.0466 0.0
C784 C 0.85444 0.41193 0.11899 0.0
C785 C 0.83314 0.41223 0.15061 0.0
C786 C 0.91883 0.42236 0.01875 0.0
C787 C 0.91785 0.43717 0.96164 0.0
C788 C 0.89915 0.41166 0.04317 0.0
C789 C 0.87807 0.41583 1.01151 0.0
C790 C 0.87749 0.42944 0.95148 0.0
C791 C 0.89716 0.43992 0.92676 0.0
H792 H 0.02823 0.21374 0.81125 0.0
H793 H 1.01105 0.18887 0.01594 0.0
H794 H 0.02342 0.17571 0.7643 0.0
H795 H 1.00485 0.15115 0.96826 0.0
H796 H 0.02332 0.08154 0.87992 0.0
H797 H 0.02561 0.11993 0.92602 0.0
H798 H 0.99832 0.14615 0.73404 0.0
H799 H 0.99679 0.10777 0.68709 0.0
C800 C 0.02318 0.20026 0.84628 0.0
C801 C 0.02022 0.20457 0.91774 0.0
C802 C 0.02015 0.17837 0.81907 0.0
C803 C 1.0139 0.16008 0.86233 0.0
C804 C 1.01009 0.16459 0.9333 0.0
C805 C 1.01327 0.18644 0.96058 0.0
C806 C 1.01776 0.09546 0.84747 0.0
C807 C 1.00992 0.09143 0.7796 0.0
C808 C 0.01891 0.11758 0.8742 0.0
C809 C 1.0121 0.13638 0.8341 0.0
C810 C 1.00405 0.13228 0.76636 0.0
C811 C 1.00305 0.11016 0.73945 0.0
H812 H 0.34148 0.07589 0.97445 0.0
H813 H 0.31926 1.01463 0.87155 0.0
H814 H 0.37949 0.0706 0.92809 0.0
H815 H 0.35776 1.00901 0.82621 0.0
H816 H 0.42513 0.01981 0.70364 0.0
H817 H 0.3862 0.02527 0.74422 0.0
H818 H 0.41138 0.04522 0.94573 0.0
H819 H 0.45018 0.04007 0.90518 0.0
C820 C 0.34462 0.06135 0.94135 0.0
C821 C 0.32714 0.04577 0.92648 0.0
C822 C 0.36658 0.05817 0.91541 0.0
C823 C 0.37182 0.03931 0.87364 0.0
C824 C 0.35432 0.02381 0.85784 0.0
C825 C 0.33228 0.02693 0.88431 0.0
C826 C 0.42239 0.02541 0.7566 0.0
C827 C 0.44092 0.02955 0.80103 0.0
C828 C 0.40001 0.02839 0.78 0.0
C829 C 0.39557 0.03573 0.8483 0.0
C830 C 0.41412 0.03986 0.89255 0.0
C831 C 0.43644 0.03679 0.86931 0.0
H832 H 0.52971 0.32678 0.82381 0.0
H833 H 0.49047 0.34803 1.00222 0.0
H834 H 0.52652 0.36443 0.77475 0.0
H835 H 0.48531 0.38508 0.9498 0.0
H836 H 0.50405 0.4571 0.88532 0.0
H837 H 0.5041 0.41864 0.93079 0.0
H838 H 0.50626 0.39233 0.72096 0.0
H839 H 0.50768 0.43096 0.67616 0.0
C840 C 0.52013 0.33935 0.85243 0.0
C841 C 0.51076 0.3342 0.91801 0.0
C842 C 0.51795 0.36104 0.82347 0.0
C843 C 0.50586 0.37824 0.85829 0.0
C844 C 0.49531 0.37267 0.92191 0.0
C845 C 0.49788 0.35108 0.95156 0.0
C846 C 0.50447 0.44308 0.84892 0.0
C847 C 0.50595 0.44713 0.77711 0.0
C848 C 0.50431 0.42088 0.87499 0.0
C849 C 0.50513 0.40201 0.82994 0.0
C850 C 0.50609 0.4062 0.75781 0.0
C851 C 0.50675 0.42843 0.73185 0.0
H852 H 0.17927 0.53197 0.99429 0.0
H853 H 0.20298 0.50499 0.79841 0.0
H854 H 0.14171 0.53695 0.94536 0.0
H855 H 0.16495 0.50855 0.75089 0.0
H856 H 0.09643 0.53171 0.66764 0.0
H857 H 0.13523 0.53216 0.71136 0.0
H858 H 0.11052 0.51402 0.91564 0.0
H859 H 0.07187 0.51435 0.8726 0.0
C860 C 0.17665 0.52737 0.94044 0.0
C861 C 0.19434 0.51793 0.90067 0.0
C862 C 0.15487 0.52985 0.91264 0.0
C863 C 0.15 0.52276 0.84439 0.0
C864 C 0.16793 0.51427 0.80354 0.0
C865 C 0.18978 0.51198 0.83118 0.0
C866 C 0.09928 0.52786 0.72192 0.0
C867 C 0.08092 0.52302 0.76649 0.0
C868 C 0.1216 0.52803 0.74703 0.0
C869 C 0.12619 0.52324 0.81733 0.0
C870 C 0.10777 0.51831 0.86163 0.0
C871 C 0.0855 0.51831 0.83669 0.0
H872 H 0.98516 0.85499 0.40304 0.0
H873 H 0.02062 0.83277 0.58702 0.0
H874 H 0.97959 0.89202 0.45529 0.0
H875 H 1.01686 0.8704 0.63661 0.0
H876 H 0.99758 0.93786 0.73102 0.0
H877 H 0.99564 0.89908 0.68679 0.0
H878 H 0.99993 0.92475 0.4766 0.0
H879 H 1.00064 0.96326 0.52079 0.0
C880 C 0.9916 0.85781 0.45495 0.0
C881 C 1.00362 0.84069 0.49008 0.0
C882 C 0.98879 0.87936 0.48458 0.0
C883 C 0.99819 0.88466 0.54988 0.0
C884 C 1.00925 0.8672 0.58644 0.0
C885 C 1.01174 0.84554 0.55729 0.0
C886 C 0.99789 0.93517 0.67534 0.0
C887 C 0.9992 0.95374 0.62956 0.0
C888 C 0.99693 0.91286 0.6498 0.0
C889 C 0.99763 0.90848 0.57775 0.0
C890 C 0.9988 0.92719 0.53223 0.0
C891 C 0.99939 0.94943 0.55771 0.0
H892 H 0.69522 0.98819 0.54856 0.0
H893 H 0.67437 0.04877 0.44064 0.0
H894 H 0.65697 0.98477 0.59988 0.0
H895 H 0.63631 0.04513 0.49017 0.0
H896 H 0.56507 1.01564 0.53063 0.0
H897 H 0.60321 1.0157 0.48078 0.0
H898 H 0.63188 1.01048 0.6861 0.0
H899 H 0.59363 1.0108 0.73659 0.0
C900 C 0.68241 1.00062 0.53554 0.0
C901 C 0.68768 1.01877 0.49093 0.0
C902 C 0.66063 0.99875 0.56502 0.0
C903 C 0.64367 1.01468 0.54888 0.0
C904 C 0.64895 0.03253 0.5032 0.0
C905 C 0.67074 0.03466 0.4751 0.0
C906 C 0.57946 1.01435 0.5653 0.0
C907 C 0.57625 1.01328 0.63769 0.0
C908 C 0.60131 1.01445 0.53666 0.0
C909 C 0.62051 1.01307 0.57954 0.0
C910 C 0.61737 1.01138 0.6518 0.0
C911 C 0.59548 1.01172 0.68064 0.0
H912 H 0.56377 0.69272 0.49866 0.0
H913 H 0.49574 0.70343 0.57643 0.0
H914 H 0.56292 0.65404 0.54451 0.0
H915 H 0.4953 0.66525 0.62362 0.0
H916 H 0.50792 0.60031 0.74541 0.0
H917 H 0.51285 0.63991 0.71121 0.0
H918 H 0.54151 0.61847 0.51532 0.0
H919 H 0.53668 0.57883 0.54943 0.0
C920 C 0.54873 0.68701 0.52598 0.0
C921 C 0.52983 0.70141 0.53348 0.0
C922 C 0.54826 0.66481 0.55229 0.0
C923 C 0.529 0.65652 0.58748 0.0
C924 C 0.51052 0.67117 0.59757 0.0
C925 C 0.51087 0.69323 0.57071 0.0
C926 C 0.51543 0.60399 0.69521 0.0
C927 C 0.5218 0.58631 0.65005 0.0
C928 C 0.51817 0.62672 0.67553 0.0
C929 C 0.52756 0.63238 0.61051 0.0
C930 C 0.53445 0.61472 0.56607 0.0
C931 C 0.53151 0.59197 0.58545 0.0
H932 H 0.84088 0.54209 0.41258 0.0
H933 H 0.82211 0.50539 0.59864 0.0
H934 H 0.87884 0.54743 0.45792 0.0
H935 H 0.86062 0.50888 0.64101 0.0
H936 H 0.92886 0.52917 0.72568 0.0
H937 H 0.88957 0.53039 0.68721 0.0
H938 H 0.91222 0.52775 0.47336 0.0
H939 H 0.9514 0.52784 0.51213 0.0
C940 C 0.84467 0.53531 0.4635 0.0
C941 C 0.82819 0.5231 0.50139 0.0
C942 C 0.86675 0.53799 0.48905 0.0
C943 C 0.87322 0.52825 0.55282 0.0
C944 C 0.85649 0.51681 0.59194 0.0
C945 C 0.83432 0.51448 0.56695 0.0
C946 C 0.92541 0.529 0.67042 0.0
C947 C 0.94331 0.52842 0.62203 0.0
C948 C 0.9028 0.52955 0.64819 0.0
C949 C 0.89741 0.5291 0.57687 0.0
C950 C 0.91545 0.52863 0.52861 0.0
C951 C 0.93805 0.5285 0.55087 0.0
loop_
_geom_bond_atom_site_label_1
_geom_bond_atom_site_label_2
_geom_bond_distance
_geom_bond_site_symmetry_2
_ccdc_geom_bond_type
C0 C1 1.386 . S
C0 C2 1.397 . S
C0 H24 0.931 . S
C1 C0 1.386 . S
C1 C5 1.397 . S
C2 C0 1.397 . S
C2 C3 1.384 . S
C2 H25 0.930 . S
C3 C2 1.384 . S
C3 C4 1.377 . S
C3 C6 1.481 . S
C4 C3 1.377 . S
C4 C5 1.389 . S
C4 H26 0.929 . S
C5 C1 1.397 . S
C5 C4 1.389 . S
C5 H27 0.931 . S
C6 C3 1.481 . S
C6 C7 1.387 . S
C6 C11 1.390 . S
C7 C6 1.387 . S
C7 C8 1.401 . S
C7 H28 0.930 . S
C8 C7 1.401 . S
C8 C9 1.376 . S
C8 C17 1.511 . S
C9 C8 1.376 . S
C9 C10 1.392 . S
C9 H30 0.931 . S
C10 C9 1.392 . S
C10 C11 1.361 . S
C10 C12 1.500 . S
C11 C6 1.390 . S
C11 C10 1.361 . S
C11 H29 0.931 . S
C12 C10 1.500 . S
C12 C13 1.371 . S
C12 C14 1.365 . S
C13 C12 1.371 . S
C13 C23 1.386 . S
C13 H31 0.931 . S
C14 C12 1.365 . S
C14 C15 1.409 . S
C14 H32 0.929 . S
C15 C14 1.409 . S
C15 C16 1.380 . S
C15 H33 0.930 . S
C16 C15 1.380 . S
C16 C23 1.357 . S
C17 C8 1.511 . S
C17 C18 1.341 . S
C17 C19 1.371 . S
C18 C17 1.341 . S
C18 C22 1.394 . S
C18 H34 0.930 . S
C19 C17 1.371 . S
C19 C20 1.392 . S
C19 H35 0.931 . S
C20 C19 1.392 . S
C20 C21 1.331 . S
C20 H38 0.932 . S
C21 C20 1.331 . S
C21 C22 1.336 . S
C22 C18 1.394 . S
C22 C21 1.336 . S
C22 H37 0.929 . S
C23 C13 1.386 . S
C23 C16 1.357 . S
C23 H36 0.928 . S
H24 C0 0.931 . S
H25 C2 0.930 . S
H26 C4 0.929 . S
H27 C5 0.931 . S
H28 C7 0.930 . S
H29 C11 0.931 . S
H30 C9 0.931 . S
H31 C13 0.931 . S
H32 C14 0.929 . S
H33 C15 0.930 . S
H34 C18 0.930 . S
H35 C19 0.931 . S
H36 C23 0.928 . S
H37 C22 0.929 . S
H38 C20 0.932 . S
C39 C40 1.394 . S
C39 C41 1.397 . S
C39 H63 0.931 . S
C40 C39 1.394 . S
C40 C44 1.389 1_655 S
C41 C39 1.397 . S
C41 C42 1.389 . S
C41 H64 0.930 . S
C42 C41 1.389 . S
C42 C43 1.373 1_655 S
C42 C45 1.480 . S
C43 C42 1.373 1_455 S
C43 C44 1.389 . S
C43 H65 0.929 . S
C44 C40 1.389 1_455 S
C44 C43 1.389 . S
C44 H66 0.931 . S
C45 C42 1.480 . S
C45 C46 1.388 . S
C45 C50 1.390 . S
C46 C45 1.388 . S
C46 C47 1.402 . S
C46 H67 0.930 . S
C47 C46 1.402 . S
C47 C48 1.376 . S
C47 C56 1.513 . S
C48 C47 1.376 . S
C48 C49 1.392 . S
C48 H69 0.934 . S
C49 C48 1.392 . S
C49 C50 1.361 . S
C49 C51 1.499 1_655 S
C50 C45 1.390 . S
C50 C49 1.361 . S
C50 H68 0.931 . S
C51 C49 1.499 1_455 S
C51 C52 1.362 1_455 S
C51 C53 1.374 . S
C52 C51 1.362 1_655 S
C52 C62 1.386 . S
C52 H70 0.931 . S
C53 C51 1.374 . S
C53 C54 1.409 . S
C53 H71 0.929 . S
C54 C53 1.409 . S
C54 C55 1.379 . S
C54 H72 0.930 . S
C55 C54 1.379 . S
C55 C62 1.359 1_455 S
C56 C47 1.513 . S
C56 C57 1.341 . S
C56 C58 1.371 1_655 S
C57 C56 1.341 . S
C57 C61 1.394 . S
C57 H73 0.930 . S
C58 C56 1.371 1_455 S
C58 C59 1.392 . S
C58 H74 0.931 . S
C59 C58 1.392 . S
C59 C60 1.322 1_455 S
C59 H77 0.932 . S
C60 C59 1.322 1_655 S
C60 C61 1.345 . S
C61 C57 1.394 . S
C61 C60 1.345 . S
C61 H76 0.929 . S
C62 C52 1.386 . S
C62 C55 1.359 1_655 S
C62 H75 0.928 . S
H63 C39 0.931 . S
H64 C41 0.930 . S
H65 C43 0.929 . S
H66 C44 0.931 . S
H67 C46 0.930 . S
H68 C50 0.931 . S
H69 C48 0.934 . S
H70 C52 0.931 . S
H71 C53 0.929 . S
H72 C54 0.930 . S
H73 C57 0.930 . S
H74 C58 0.931 . S
H75 C62 0.928 . S
H76 C61 0.929 . S
H77 C59 0.932 . S
C78 C79 1.394 . S
C78 C80 1.397 . S
C78 H102 0.931 . S
C79 C78 1.394 . S
C79 C83 1.389 1_565 S
C80 C78 1.397 . S
C80 C81 1.389 . S
C80 H103 0.930 . S
C81 C80 1.389 . S
C81 C82 1.373 1_565 S
C81 C84 1.480 . S
C82 C81 1.373 1_545 S
C82 C83 1.389 . S
C82 H104 0.929 . S
C83 C79 1.389 1_545 S
C83 C82 1.389 . S
C83 H105 0.931 . S
C84 C81 1.480 . S
C84 C85 1.388 . S
C84 C89 1.390 . S
C85 C84 1.388 . S
C85 C86 1.402 . S
C85 H106 0.930 . S
C86 C85 1.402 . S
C86 C87 1.376 . S
C86 C95 1.513 . S
C87 C86 1.376 . S
C87 C88 1.392 . S
C87 H108 0.934 . S
C88 C87 1.392 . S
C88 C89 1.361 . S
C88 C90 1.499 1_565 S
C89 C84 1.390 . S
C89 C88 1.361 . S
C89 H107 0.931 . S
C90 C88 1.499 1_545 S
C90 C91 1.362 1_545 S
C90 C92 1.374 . S
C91 C90 1.362 1_565 S
C91 C101 1.386 . S
C91 H109 0.931 . S
C92 C90 1.374 . S
C92 C93 1.409 . S
C92 H110 0.929 . S
C93 C92 1.409 . S
C93 C94 1.379 . S
C93 H111 0.930 . S
C94 C93 1.379 . S
C94 C101 1.359 1_545 S
C95 C86 1.513 . S
C95 C96 1.341 . S
C95 C97 1.371 1_565 S
C96 C95 1.341 . S
C96 C100 1.394 . S
C96 H112 0.930 . S
C97 C95 1.371 1_545 S
C97 C98 1.392 . S
C97 H113 0.931 . S
C98 C97 1.392 . S
C98 C99 1.322 1_545 S
C98 H116 0.932 . S
C99 C98 1.322 1_565 S
C99 C100 1.345 . S
C100 C96 1.394 . S
C100 C99 1.345 . S
C100 H115 0.929 . S
C101 C91 1.386 . S
C101 C94 1.359 1_565 S
C101 H114 0.928 . S
H102 C78 0.931 . S
H103 C80 0.930 . S
H104 C82 0.929 . S
H105 C83 0.931 . S
H106 C85 0.930 . S
H107 C89 0.931 . S
H108 C87 0.934 . S
H109 C91 0.931 . S
H110 C92 0.929 . S
H111 C93 0.930 . S
H112 C96 0.930 . S
H113 C97 0.931 . S
H114 C101 0.928 . S
H115 C100 0.929 . S
H116 C98 0.932 . S
C117 C118 1.386 . S
C117 C119 1.397 . S
C117 H141 0.931 . S
C118 C117 1.386 . S
C118 C122 1.397 . S
C119 C117 1.397 . S
C119 C120 1.384 . S
C119 H142 0.930 . S
C120 C119 1.384 . S
C120 C121 1.377 . S
C120 C123 1.481 . S
C121 C120 1.377 . S
C121 C122 1.389 . S
C121 H143 0.929 . S
C122 C118 1.397 . S
C122 C121 1.389 . S
C122 H144 0.931 . S
C123 C120 1.481 . S
C123 C124 1.387 . S
C123 C128 1.390 . S
C124 C123 1.387 . S
C124 C125 1.401 . S
C124 H145 0.930 . S
C125 C124 1.401 . S
C125 C126 1.376 . S
C125 C134 1.511 . S
C126 C125 1.376 . S
C126 C127 1.392 . S
C126 H147 0.931 . S
C127 C126 1.392 . S
C127 C128 1.361 . S
C127 C129 1.500 . S
C128 C123 1.390 . S
C128 C127 1.361 . S
C128 H146 0.931 . S
C129 C127 1.500 . S
C129 C130 1.371 . S
C129 C131 1.365 . S
C130 C129 1.371 . S
C130 C140 1.386 . S
C130 H148 0.931 . S
C131 C129 1.365 . S
C131 C132 1.409 . S
C131 H149 0.929 . S
C132 C131 1.409 . S
C132 C133 1.380 . S
C132 H150 0.930 . S
C133 C132 1.380 . S
C133 C140 1.357 . S
C134 C125 1.511 . S
C134 C135 1.341 . S
C134 C136 1.371 . S
C135 C134 1.341 . S
C135 C139 1.394 . S
C135 H151 0.930 . S
C136 C134 1.371 . S
C136 C137 1.392 . S
C136 H152 0.931 . S
C137 C136 1.392 . S
C137 C138 1.331 . S
C137 H155 0.932 . S
C138 C137 1.331 . S
C138 C139 1.336 . S
C139 C135 1.394 . S
C139 C138 1.336 . S
C139 H154 0.929 . S
C140 C130 1.386 . S
C140 C133 1.357 . S
C140 H153 0.928 . S
H141 C117 0.931 . S
H142 C119 0.930 . S
H143 C121 0.929 . S
H144 C122 0.931 . S
H145 C124 0.930 . S
H146 C128 0.931 . S
H147 C126 0.931 . S
H148 C130 0.931 . S
H149 C131 0.929 . S
H150 C132 0.930 . S
H151 C135 0.930 . S
H152 C136 0.931 . S
H153 C140 0.928 . S
H154 C139 0.929 . S
H155 C137 0.932 . S
C156 C157 1.386 . S
C156 C158 1.397 . S
C156 H180 0.931 . S
C157 C156 1.386 . S
C157 C161 1.397 . S
C158 C156 1.397 . S
C158 C159 1.384 . S
C158 H181 0.930 . S
C159 C158 1.384 . S
C159 C160 1.377 . S
C159 C162 1.481 . S
C160 C159 1.377 . S
C160 C161 1.389 . S
C160 H182 0.929 . S
C161 C157 1.397 . S
C161 C160 1.389 . S
C161 H183 0.931 . S
C162 C159 1.481 . S
C162 C163 1.387 . S
C162 C167 1.390 . S
C163 C162 1.387 . S
C163 C164 1.401 . S
C163 H184 0.930 . S
C164 C163 1.401 . S
C164 C165 1.390 . S
C164 C173 1.511 . S
C165 C164 1.390 . S
C165 C166 1.389 1_554 S
C165 H186 0.920 1_554 S
C166 C165 1.389 1_556 S
C166 C167 1.361 1_556 S
C166 C168 1.500 . S
C167 C162 1.390 . S
C167 C166 1.361 1_554 S
C167 H185 0.931 . S
C168 C166 1.500 . S
C168 C169 1.371 . S
C168 C170 1.365 . S
C169 C168 1.371 . S
C169 C179 1.386 . S
C169 H187 0.931 . S
C170 C168 1.365 . S
C170 C171 1.409 . S
C170 H188 0.929 . S
C171 C170 1.409 . S
C171 C172 1.380 . S
C171 H189 0.930 . S
C172 C171 1.380 . S
C172 C179 1.357 . S
C173 C164 1.511 . S
C173 C174 1.341 . S
C173 C175 1.371 . S
C174 C173 1.341 . S
C174 C178 1.394 . S
C174 H190 0.930 . S
C175 C173 1.371 . S
C175 C176 1.392 . S
C175 H191 0.931 1_554 S
C176 C175 1.392 . S
C176 C177 1.331 . S
C176 H194 0.932 . S
C177 C176 1.331 . S
C177 C178 1.336 . S
C178 C174 1.394 . S
C178 C177 1.336 . S
C178 H193 0.929 . S
C179 C169 1.386 . S
C179 C172 1.357 . S
C179 H192 0.928 . S
H180 C156 0.931 . S
H181 C158 0.930 . S
H182 C160 0.929 . S
H183 C161 0.931 . S
H184 C163 0.930 . S
H185 C167 0.931 . S
H186 C165 0.920 1_556 S
H187 C169 0.931 . S
H188 C170 0.929 . S
H189 C171 0.930 . S
H190 C174 0.930 . S
H191 C175 0.931 1_556 S
H192 C179 0.928 . S
H193 C178 0.929 . S
H194 C176 0.932 . S
C195 C196 1.387 . S
C195 C197 1.397 . S
C195 H219 0.931 . S
C196 C195 1.387 . S
C196 C200 1.396 1_655 S
C197 C195 1.397 . S
C197 C198 1.381 . S
C197 H220 0.930 . S
C198 C197 1.381 . S
C198 C199 1.380 1_655 S
C198 C201 1.480 . S
C199 C198 1.380 1_455 S
C199 C200 1.389 . S
C199 H221 0.929 . S
C200 C196 1.396 1_455 S
C200 C199 1.389 . S
C200 H222 0.931 . S
C201 C198 1.480 . S
C201 C202 1.388 . S
C201 C206 1.390 . S
C202 C201 1.388 . S
C202 C203 1.402 . S
C202 H223 0.930 . S
C203 C202 1.402 . S
C203 C204 1.376 . S
C203 C212 1.512 . S
C204 C203 1.376 . S
C204 C205 1.392 1_654 S
C204 H225 0.933 1_554 S
C205 C204 1.392 1_456 S
C205 C206 1.361 1_456 S
C205 C207 1.499 . S
C206 C201 1.390 . S
C206 C205 1.361 1_654 S
C206 H224 0.931 . S
C207 C205 1.499 . S
C207 C208 1.357 1_455 S
C207 C209 1.380 . S
C208 C207 1.357 1_655 S
C208 C218 1.386 . S
C208 H226 0.931 . S
C209 C207 1.380 . S
C209 C210 1.409 . S
C209 H227 0.929 . S
C210 C209 1.409 . S
C210 C211 1.384 . S
C210 H228 0.930 . S
C211 C210 1.384 . S
C211 C218 1.353 1_455 S
C212 C203 1.512 . S
C212 C213 1.341 . S
C212 C214 1.371 1_655 S
C213 C212 1.341 . S
C213 C217 1.394 . S
C213 H229 0.930 . S
C214 C212 1.371 1_455 S
C214 C215 1.392 . S
C214 H230 0.931 1_554 S
C215 C214 1.392 . S
C215 C216 1.326 1_455 S
C215 H233 0.932 . S
C216 C215 1.326 1_655 S
C216 C217 1.341 . S
C217 C213 1.394 . S
C217 C216 1.341 . S
C217 H232 0.929 . S
C218 C208 1.386 . S
C218 C211 1.353 1_655 S
C218 H231 0.928 . S
H219 C195 0.931 . S
H220 C197 0.930 . S
H221 C199 0.929 . S
H222 C200 0.931 . S
H223 C202 0.930 . S
H224 C206 0.931 . S
H225 C204 0.933 1_556 S
H226 C208 0.931 . S
H227 C209 0.929 . S
H228 C210 0.930 . S
H229 C213 0.930 . S
H230 C214 0.931 1_556 S
H231 C218 0.928 . S
H232 C217 0.929 . S
H233 C215 0.932 . S
C234 C235 1.387 . S
C234 C236 1.397 . S
C234 H258 0.931 . S
C235 C234 1.387 . S
C235 C239 1.396 1_565 S
C236 C234 1.397 . S
C236 C237 1.381 . S
C236 H259 0.930 . S
C237 C236 1.381 . S
C237 C238 1.380 1_565 S
C237 C240 1.480 . S
C238 C237 1.380 1_545 S
C238 C239 1.389 . S
C238 H260 0.929 . S
C239 C235 1.396 1_545 S
C239 C238 1.389 . S
C239 H261 0.931 . S
C240 C237 1.480 . S
C240 C241 1.388 . S
C240 C245 1.390 . S
C241 C240 1.388 . S
C241 C242 1.402 . S
C241 H262 0.930 . S
C242 C241 1.402 . S
C242 C243 1.376 . S
C242 C251 1.512 . S
C243 C242 1.376 . S
C243 C244 1.392 1_564 S
C243 H264 0.933 1_554 S
C244 C243 1.392 1_546 S
C244 C245 1.361 1_546 S
C244 C246 1.499 . S
C245 C240 1.390 . S
C245 C244 1.361 1_564 S
C245 H263 0.931 . S
C246 C244 1.499 . S
C246 C247 1.357 1_545 S
C246 C248 1.380 . S
C247 C246 1.357 1_565 S
C247 C257 1.386 . S
C247 H265 0.931 . S
C248 C246 1.380 . S
C248 C249 1.409 . S
C248 H266 0.929 . S
C249 C248 1.409 . S
C249 C250 1.384 . S
C249 H267 0.930 . S
C250 C249 1.384 . S
C250 C257 1.353 1_545 S
C251 C242 1.512 . S
C251 C252 1.341 . S
C251 C253 1.371 1_565 S
C252 C251 1.341 . S
C252 C256 1.394 . S
C252 H268 0.930 . S
C253 C251 1.371 1_545 S
C253 C254 1.392 . S
C253 H269 0.931 1_554 S
C254 C253 1.392 . S
C254 C255 1.326 1_545 S
C254 H272 0.932 . S
C255 C254 1.326 1_565 S
C255 C256 1.341 . S
C256 C252 1.394 . S
C256 C255 1.341 . S
C256 H271 0.929 . S
C257 C247 1.386 . S
C257 C250 1.353 1_565 S
C257 H270 0.928 . S
H258 C234 0.931 . S
H259 C236 0.930 . S
H260 C238 0.929 . S
H261 C239 0.931 . S
H262 C241 0.930 . S
H263 C245 0.931 . S
H264 C243 0.933 1_556 S
H265 C247 0.931 . S
H266 C248 0.929 . S
H267 C249 0.930 . S
H268 C252 0.930 . S
H269 C253 0.931 1_556 S
H270 C257 0.928 . S
H271 C256 0.929 . S
H272 C254 0.932 . S
C273 C274 1.386 . S
C273 C275 1.397 . S
C273 H297 0.931 . S
C274 C273 1.386 . S
C274 C278 1.397 . S
C275 C273 1.397 . S
C275 C276 1.384 . S
C275 H298 0.930 . S
C276 C275 1.384 . S
C276 C277 1.377 . S
C276 C279 1.481 . S
C277 C276 1.377 . S
C277 C278 1.389 . S
C277 H299 0.929 . S
C278 C274 1.397 . S
C278 C277 1.389 . S
C278 H300 0.931 . S
C279 C276 1.481 . S
C279 C280 1.387 1_556 S
C279 C284 1.390 1_556 S
C280 C279 1.387 1_554 S
C280 C281 1.401 . S
C280 H301 0.930 1_554 S
C281 C280 1.401 . S
C281 C282 1.376 . S
C281 C290 1.511 . S
C282 C281 1.376 . S
C282 C283 1.392 . S
C282 H303 0.931 . S
C283 C282 1.392 . S
C283 C284 1.361 . S
C283 C285 1.500 . S
C284 C279 1.390 1_554 S
C284 C283 1.361 . S
C284 H302 0.931 . S
C285 C283 1.500 . S
C285 C286 1.371 . S
C285 C287 1.365 . S
C286 C285 1.371 . S
C286 C296 1.386 . S
C286 H304 0.931 . S
C287 C285 1.365 . S
C287 C288 1.409 . S
C287 H305 0.929 . S
C288 C287 1.409 . S
C288 C289 1.380 . S
C288 H306 0.930 . S
C289 C288 1.380 . S
C289 C296 1.357 . S
C290 C281 1.511 . S
C290 C291 1.341 . S
C290 C292 1.371 . S
C291 C290 1.341 . S
C291 C295 1.394 . S
C291 H307 0.930 1_554 S
C292 C290 1.371 . S
C292 C293 1.392 . S
C292 H308 0.931 . S
C293 C292 1.392 . S
C293 C294 1.331 . S
C293 H311 0.932 . S
C294 C293 1.331 . S
C294 C295 1.336 . S
C295 C291 1.394 . S
C295 C294 1.336 . S
C295 H310 0.929 . S
C296 C286 1.386 . S
C296 C289 1.357 . S
C296 H309 0.928 . S
H297 C273 0.931 . S
H298 C275 0.930 . S
H299 C277 0.929 . S
H300 C278 0.931 . S
H301 C280 0.930 1_556 S
H302 C284 0.931 . S
H303 C282 0.931 . S
H304 C286 0.931 . S
H305 C287 0.929 . S
H306 C288 0.930 . S
H307 C291 0.930 1_556 S
H308 C292 0.931 . S
H309 C296 0.928 . S
H310 C295 0.929 . S
H311 C293 0.932 . S
C312 Eu313 2.835 . S
C312 C314 1.500 . S
C312 O332 1.257 . S
C312 O333 1.260 . S
Eu313 C312 2.835 . S
Eu313 O332 2.473 . S
Eu313 O333 2.480 . S
Eu313 O334 2.430 . S
Eu313 O335 2.670 1_545 S
Eu313 O336 2.394 . S
Eu313 O341 2.355 1_655 S
Eu313 O343 2.374 1_545 S
C314 C312 1.500 . S
C314 C315 1.377 . S
C314 C319 1.377 . S
C315 C314 1.377 . S
C315 C316 1.395 . S
C315 H344 0.931 . S
C316 C315 1.395 . S
C316 C317 1.383 . S
C316 H345 0.931 . S
C317 C316 1.383 . S
C317 C318 1.394 . S
C318 C317 1.394 . S
C318 C319 1.378 . S
C318 H346 0.931 1_655 S
C319 C314 1.377 . S
C319 C318 1.378 . S
C319 H347 0.931 1_655 S
C320 O334 1.286 . S
C320 O335 1.251 1_545 S
C321 O336 1.251 1_455 S
C321 O337 1.251 . S
C322 Eu323 2.835 . S
C322 C324 1.500 . S
C322 O338 1.257 . S
C322 O339 1.260 . S
Eu323 C322 2.835 . S
Eu323 O335 2.355 1_455 S
Eu323 O337 2.374 1_565 S
Eu323 O338 2.473 . S
Eu323 O339 2.480 . S
Eu323 O340 2.430 . S
Eu323 O341 2.670 1_565 S
Eu323 O342 2.394 . S
C324 C322 1.500 . S
C324 C325 1.377 . S
C324 C329 1.377 . S
C325 C324 1.377 . S
C325 C326 1.395 . S
C325 H348 0.931 . S
C326 C325 1.395 . S
C326 C327 1.383 . S
C326 H349 0.931 . S
C327 C326 1.383 . S
C327 C328 1.394 . S
C328 C327 1.394 . S
C328 C329 1.378 . S
C328 H350 0.931 1_455 S
C329 C324 1.377 . S
C329 C328 1.378 . S
C329 H351 0.931 1_455 S
C330 O340 1.280 . S
C330 O341 1.255 1_565 S
C331 O342 1.251 1_655 S
C331 O343 1.251 . S
O332 C312 1.257 . S
O332 Eu313 2.473 . S
O333 C312 1.260 . S
O333 Eu313 2.480 . S
O334 Eu313 2.430 . S
O334 C320 1.286 . S
O335 Eu313 2.670 1_565 S
O335 C320 1.251 1_565 S
O335 Eu323 2.355 1_655 S
O336 Eu313 2.394 . S
O336 C321 1.251 1_655 S
O337 C321 1.251 . S
O337 Eu323 2.374 1_545 S
O338 C322 1.257 . S
O338 Eu323 2.473 . S
O339 C322 1.260 . S
O339 Eu323 2.480 . S
O340 Eu323 2.430 . S
O340 C330 1.280 . S
O341 Eu313 2.355 1_455 S
O341 Eu323 2.670 1_545 S
O341 C330 1.255 1_545 S
O342 Eu323 2.394 . S
O342 C331 1.251 1_455 S
O343 Eu313 2.374 1_565 S
O343 C331 1.251 . S
H344 C315 0.931 . S
H345 C316 0.931 . S
H346 C318 0.931 1_455 S
H347 C319 0.931 1_455 S
H348 C325 0.931 . S
H349 C326 0.931 . S
H350 C328 0.931 1_655 S
H351 C329 0.931 1_655 S
C352 Eu353 2.835 . S
C352 C354 1.500 . S
C352 O372 1.257 . S
C352 O373 1.260 . S
Eu353 C352 2.835 . S
Eu353 O372 2.473 . S
Eu353 O373 2.480 . S
Eu353 O374 2.430 . S
Eu353 O375 2.670 . S
Eu353 O376 2.394 . S
Eu353 O381 2.355 1_565 S
Eu353 O383 2.374 . S
C354 C352 1.500 . S
C354 C355 1.377 . S
C354 C359 1.377 . S
C355 C354 1.377 . S
C355 C356 1.395 . S
C355 H384 0.931 . S
C356 C355 1.395 . S
C356 C357 1.383 . S
C356 H385 0.931 . S
C357 C356 1.383 . S
C357 C358 1.394 . S
C358 C357 1.394 . S
C358 C359 1.378 . S
C358 H386 0.931 1_565 S
C359 C354 1.377 . S
C359 C358 1.378 . S
C359 H387 0.931 1_565 S
C360 O374 1.259 . S
C360 O375 1.270 . S
C361 O376 1.251 1_545 S
C361 O377 1.251 . S
C362 Eu363 2.835 . S
C362 C364 1.500 . S
C362 O378 1.257 . S
C362 O379 1.260 . S
Eu363 C362 2.835 . S
Eu363 O375 2.355 1_545 S
Eu363 O377 2.374 . S
Eu363 O378 2.473 . S
Eu363 O379 2.480 . S
Eu363 O380 2.430 . S
Eu363 O381 2.670 . S
Eu363 O382 2.394 . S
C364 C362 1.500 . S
C364 C365 1.377 . S
C364 C369 1.377 . S
C365 C364 1.377 . S
C365 C366 1.395 . S
C365 H388 0.931 . S
C366 C365 1.395 . S
C366 C367 1.383 . S
C366 H389 0.931 . S
C367 C366 1.383 . S
C367 C368 1.394 . S
C368 C367 1.394 . S
C368 C369 1.378 . S
C368 H390 0.931 1_545 S
C369 C364 1.377 . S
C369 C368 1.378 . S
C369 H391 0.931 1_545 S
C370 O380 1.259 . S
C370 O381 1.270 . S
C371 O382 1.251 1_565 S
C371 O383 1.251 . S
O372 C352 1.257 . S
O372 Eu353 2.473 . S
O373 C352 1.260 . S
O373 Eu353 2.480 . S
O374 Eu353 2.430 . S
O374 C360 1.259 . S
O375 Eu353 2.670 . S
O375 C360 1.270 . S
O375 Eu363 2.355 1_565 S
O376 Eu353 2.394 . S
O376 C361 1.251 1_565 S
O377 C361 1.251 . S
O377 Eu363 2.374 . S
O378 C362 1.257 . S
O378 Eu363 2.473 . S
O379 C362 1.260 . S
O379 Eu363 2.480 . S
O380 Eu363 2.430 . S
O380 C370 1.259 . S
O381 Eu353 2.355 1_545 S
O381 Eu363 2.670 . S
O381 C370 1.270 . S
O382 Eu363 2.394 . S
O382 C371 1.251 1_545 S
O383 Eu353 2.374 . S
O383 C371 1.251 . S
H384 C355 0.931 . S
H385 C356 0.931 . S
H386 C358 0.931 1_545 S
H387 C359 0.931 1_545 S
H388 C365 0.931 . S
H389 C366 0.931 . S
H390 C368 0.931 1_565 S
H391 C369 0.931 1_565 S
C392 Eu393 2.835 . S
C392 C394 1.500 . S
C392 O412 1.257 . S
C392 O413 1.260 . S
Eu393 C392 2.835 . S
Eu393 O412 2.473 . S
Eu393 O413 2.480 . S
Eu393 O414 2.430 . S
Eu393 O415 2.670 . S
Eu393 O416 2.394 . S
Eu393 O421 2.355 . S
Eu393 O423 2.374 . S
C394 C392 1.500 . S
C394 C395 1.377 . S
C394 C399 1.377 . S
C395 C394 1.377 . S
C395 C396 1.395 . S
C395 H424 0.931 . S
C396 C395 1.395 . S
C396 C397 1.383 . S
C396 H425 0.931 . S
C397 C396 1.383 . S
C397 C398 1.394 . S
C398 C397 1.394 . S
C398 C399 1.378 . S
C398 H426 0.931 . S
C399 C394 1.377 . S
C399 C398 1.378 . S
C399 H427 0.931 . S
C400 O414 1.259 . S
C400 O415 1.270 . S
C401 O416 1.251 . S
C401 O417 1.251 . S
C402 Eu403 2.835 . S
C402 C404 1.500 . S
C402 O418 1.257 . S
C402 O419 1.260 . S
Eu403 C402 2.835 . S
Eu403 O415 2.355 . S
Eu403 O417 2.374 . S
Eu403 O418 2.473 . S
Eu403 O419 2.480 . S
Eu403 O420 2.430 . S
Eu403 O421 2.670 . S
Eu403 O422 2.394 . S
C404 C402 1.500 . S
C404 C405 1.377 . S
C404 C409 1.377 . S
C405 C404 1.377 . S
C405 C406 1.395 . S
C405 H428 0.931 . S
C406 C405 1.395 . S
C406 C407 1.383 . S
C406 H429 0.931 . S
C407 C406 1.383 . S
C407 C408 1.394 . S
C408 C407 1.394 . S
C408 C409 1.378 . S
C408 H430 0.931 . S
C409 C404 1.377 . S
C409 C408 1.378 . S
C409 H431 0.931 . S
C410 O420 1.259 . S
C410 O421 1.270 . S
C411 O422 1.251 . S
C411 O423 1.251 . S
O412 C392 1.257 . S
O412 Eu393 2.473 . S
O413 C392 1.260 . S
O413 Eu393 2.480 . S
O414 Eu393 2.430 . S
O414 C400 1.259 . S
O415 Eu393 2.670 . S
O415 C400 1.270 . S
O415 Eu403 2.355 . S
O416 Eu393 2.394 . S
O416 C401 1.251 . S
O417 C401 1.251 . S
O417 Eu403 2.374 . S
O418 C402 1.257 . S
O418 Eu403 2.473 . S
O419 C402 1.260 . S
O419 Eu403 2.480 . S
O420 Eu403 2.430 . S
O420 C410 1.259 . S
O421 Eu393 2.355 . S
O421 Eu403 2.670 . S
O421 C410 1.270 . S
O422 Eu403 2.394 . S
O422 C411 1.251 . S
O423 Eu393 2.374 . S
O423 C411 1.251 . S
H424 C395 0.931 . S
H425 C396 0.931 . S
H426 C398 0.931 . S
H427 C399 0.931 . S
H428 C405 0.931 . S
H429 C406 0.931 . S
H430 C408 0.931 . S
H431 C409 0.931 . S
C432 Eu433 2.835 . S
C432 C434 1.500 . S
C432 O452 1.257 . S
C432 O453 1.260 . S
Eu433 C432 2.835 . S
Eu433 O452 2.473 . S
Eu433 O453 2.480 . S
Eu433 O454 2.430 . S
Eu433 O455 2.670 1_455 S
Eu433 O456 2.394 . S
Eu433 O461 2.355 . S
Eu433 O463 2.374 1_455 S
C434 C432 1.500 . S
C434 C435 1.377 . S
C434 C439 1.377 . S
C435 C434 1.377 . S
C435 C436 1.395 . S
C435 H464 0.931 . S
C436 C435 1.395 . S
C436 C437 1.383 . S
C436 H465 0.931 . S
C437 C436 1.383 . S
C437 C438 1.394 . S
C438 C437 1.394 . S
C438 C439 1.378 . S
C438 H466 0.931 . S
C439 C434 1.377 . S
C439 C438 1.378 . S
C439 H467 0.931 . S
C440 O454 1.268 . S
C440 O455 1.263 1_455 S
C441 O456 1.251 . S
C441 O457 1.251 . S
C442 Eu443 2.835 . S
C442 C444 1.500 . S
C442 O458 1.257 . S
C442 O459 1.260 . S
Eu443 C442 2.835 . S
Eu443 O455 2.355 . S
Eu443 O457 2.374 1_655 S
Eu443 O458 2.473 . S
Eu443 O459 2.480 . S
Eu443 O460 2.430 . S
Eu443 O461 2.670 1_655 S
Eu443 O462 2.394 . S
C444 C442 1.500 . S
C444 C445 1.377 . S
C444 C449 1.377 . S
C445 C444 1.377 . S
C445 C446 1.395 . S
C445 H468 0.931 . S
C446 C445 1.395 . S
C446 C447 1.383 . S
C446 H469 0.931 . S
C447 C446 1.383 . S
C447 C448 1.394 . S
C448 C447 1.394 . S
C448 C449 1.378 . S
C448 H470 0.931 . S
C449 C444 1.377 . S
C449 C448 1.378 . S
C449 H471 0.931 . S
C450 O460 1.262 . S
C450 O461 1.268 1_655 S
C451 O462 1.251 . S
C451 O463 1.251 . S
O452 C432 1.257 . S
O452 Eu433 2.473 . S
O453 C432 1.260 . S
O453 Eu433 2.480 . S
O454 Eu433 2.430 . S
O454 C440 1.268 . S
O455 Eu433 2.670 1_655 S
O455 C440 1.263 1_655 S
O455 Eu443 2.355 . S
O456 Eu433 2.394 . S
O456 C441 1.251 . S
O457 C441 1.251 . S
O457 Eu443 2.374 1_455 S
O458 C442 1.257 . S
O458 Eu443 2.473 . S
O459 C442 1.260 . S
O459 Eu443 2.480 . S
O460 Eu443 2.430 . S
O460 C450 1.262 . S
O461 Eu433 2.355 . S
O461 Eu443 2.670 1_455 S
O461 C450 1.268 1_455 S
O462 Eu443 2.394 . S
O462 C451 1.251 . S
O463 Eu433 2.374 1_655 S
O463 C451 1.251 . S
H464 C435 0.931 . S
H465 C436 0.931 . S
H466 C438 0.931 . S
H467 C439 0.931 . S
H468 C445 0.931 . S
H469 C446 0.931 . S
H470 C448 0.931 . S
H471 C449 0.931 . S
H472 C480 0.950 . S
H473 C485 0.950 . S
H474 C482 0.950 . S
H475 C484 0.950 . S
H476 C486 0.950 . S
H477 C488 0.950 . S
H478 C490 0.950 . S
H479 C491 0.950 . S
C480 H472 0.950 . S
C480 C481 1.364 1_565 S
C480 C482 1.391 . S
C481 C480 1.364 1_545 S
C481 C485 1.415 . S
C482 H474 0.950 . S
C482 C480 1.391 . S
C482 C483 1.381 1_565 S
C483 C482 1.381 1_545 S
C483 C484 1.417 . S
C483 C489 1.491 . S
C484 H475 0.950 . S
C484 C483 1.417 . S
C484 C485 1.391 . S
C485 H473 0.950 . S
C485 C481 1.415 . S
C485 C484 1.391 . S
C486 H476 0.950 . S
C486 C487 1.387 . S
C486 C488 1.391 . S
C487 C486 1.387 . S
C487 C491 1.392 1_545 S
C488 H477 0.950 . S
C488 C486 1.391 . S
C488 C489 1.404 . S
C489 C483 1.491 . S
C489 C488 1.404 . S
C489 C490 1.394 1_545 S
C490 H478 0.950 . S
C490 C489 1.394 1_565 S
C490 C491 1.391 . S
C491 H479 0.950 . S
C491 C487 1.392 1_565 S
C491 C490 1.391 . S
H492 C500 0.950 . S
H493 C505 0.950 . S
H494 C502 0.950 . S
H495 C504 0.950 . S
H496 C506 0.950 . S
H497 C508 0.950 . S
H498 C510 0.950 . S
H499 C511 0.950 . S
C500 H492 0.950 . S
C500 C501 1.386 . S
C500 C502 1.391 . S
C501 C500 1.386 . S
C501 C505 1.393 . S
C502 H494 0.950 . S
C502 C500 1.391 . S
C502 C503 1.400 . S
C503 C502 1.400 . S
C503 C504 1.398 . S
C503 C509 1.491 . S
C504 H495 0.950 . S
C504 C503 1.398 . S
C504 C505 1.391 . S
C505 H493 0.950 . S
C505 C501 1.393 . S
C505 C504 1.391 . S
C506 H496 0.950 . S
C506 C507 1.386 . S
C506 C508 1.391 . S
C507 C506 1.386 . S
C507 C511 1.393 . S
C508 H497 0.950 . S
C508 C506 1.391 . S
C508 C509 1.400 . S
C509 C503 1.491 . S
C509 C508 1.400 . S
C509 C510 1.398 . S
C510 H498 0.950 . S
C510 C509 1.398 . S
C510 C511 1.391 . S
C511 H499 0.950 . S
C511 C507 1.393 . S
C511 C510 1.391 . S
H512 C520 0.950 . S
H513 C525 0.950 . S
H514 C522 0.950 . S
H515 C524 0.950 . S
H516 C526 0.950 . S
H517 C528 0.950 . S
H518 C530 0.950 . S
H519 C531 0.950 . S
C520 H512 0.950 . S
C520 C521 1.386 . S
C520 C522 1.391 . S
C521 C520 1.386 . S
C521 C525 1.393 . S
C522 H514 0.950 . S
C522 C520 1.391 . S
C522 C523 1.400 . S
C523 C522 1.400 . S
C523 C524 1.398 . S
C523 C529 1.491 . S
C524 H515 0.950 . S
C524 C523 1.398 . S
C524 C525 1.391 . S
C525 H513 0.950 . S
C525 C521 1.393 . S
C525 C524 1.391 . S
C526 H516 0.950 . S
C526 C527 1.386 . S
C526 C528 1.391 . S
C527 C526 1.386 . S
C527 C531 1.393 . S
C528 H517 0.950 . S
C528 C526 1.391 . S
C528 C529 1.400 . S
C529 C523 1.491 . S
C529 C528 1.400 . S
C529 C530 1.398 . S
C530 H518 0.950 . S
C530 C529 1.398 . S
C530 C531 1.391 . S
C531 H519 0.950 . S
C531 C527 1.393 . S
C531 C530 1.391 . S
H532 C540 0.950 . S
H533 C545 0.950 . S
H534 C542 0.950 . S
H535 C544 0.950 . S
H536 C546 0.950 . S
H537 C548 0.950 . S
H538 C550 0.953 . S
H539 C551 0.950 . S
C540 H532 0.950 . S
C540 C541 1.387 . S
C540 C542 1.391 . S
C541 C540 1.387 . S
C541 C545 1.393 . S
C542 H534 0.950 . S
C542 C540 1.391 . S
C542 C543 1.400 . S
C543 C542 1.400 . S
C543 C544 1.402 . S
C543 C549 1.490 . S
C544 H535 0.950 . S
C544 C543 1.402 . S
C544 C545 1.391 . S
C545 H533 0.950 . S
C545 C541 1.393 . S
C545 C544 1.391 . S
C546 H536 0.950 . S
C546 C547 1.386 . S
C546 C548 1.391 . S
C547 C546 1.386 . S
C547 C551 1.392 1_455 S
C548 H537 0.950 . S
C548 C546 1.391 . S
C548 C549 1.400 . S
C549 C543 1.490 . S
C549 C548 1.400 . S
C549 C550 1.397 1_455 S
C550 H538 0.953 . S
C550 C549 1.397 1_655 S
C550 C551 1.390 . S
C551 H539 0.950 . S
C551 C547 1.392 1_655 S
C551 C550 1.390 . S
H552 C560 0.950 . S
H553 C565 0.950 . S
H554 C562 0.950 . S
H555 C564 0.950 . S
H556 C566 0.950 . S
H557 C568 0.954 . S
H558 C570 0.950 . S
H559 C571 0.950 . S
C560 H552 0.950 . S
C560 C561 1.398 . S
C560 C562 1.391 . S
C561 C560 1.398 . S
C561 C565 1.381 1_545 S
C562 H554 0.950 . S
C562 C560 1.391 . S
C562 C563 1.400 . S
C563 C562 1.400 . S
C563 C564 1.399 1_545 S
C563 C569 1.490 1_544 S
C564 H555 0.950 . S
C564 C563 1.399 1_565 S
C564 C565 1.391 . S
C565 H553 0.950 . S
C565 C561 1.381 1_565 S
C565 C564 1.391 . S
C566 H556 0.950 . S
C566 C567 1.410 . S
C566 C568 1.391 . S
C567 C566 1.410 . S
C567 C571 1.369 1_565 S
C568 H557 0.954 . S
C568 C566 1.391 . S
C568 C569 1.412 . S
C569 C563 1.490 1_566 S
C569 C568 1.412 . S
C569 C570 1.387 1_565 S
C570 H558 0.950 . S
C570 C569 1.387 1_545 S
C570 C571 1.391 . S
C571 H559 0.950 . S
C571 C567 1.369 1_545 S
C571 C570 1.391 . S
H572 C580 0.950 . S
H573 C585 0.950 . S
H574 C582 0.950 . S
H575 C584 0.950 . S
H576 C586 0.950 . S
H577 C588 0.950 . S
H578 C590 0.950 1_554 S
H579 C591 0.950 . S
C580 H572 0.950 . S
C580 C581 1.386 . S
C580 C582 1.391 . S
C581 C580 1.386 . S
C581 C585 1.393 . S
C582 H574 0.950 . S
C582 C580 1.391 . S
C582 C583 1.400 . S
C583 C582 1.400 . S
C583 C584 1.398 . S
C583 C589 1.491 1_554 S
C584 H575 0.950 . S
C584 C583 1.398 . S
C584 C585 1.391 . S
C585 H573 0.950 . S
C585 C581 1.393 . S
C585 C584 1.391 . S
C586 H576 0.950 . S
C586 C587 1.386 . S
C586 C588 1.391 . S
C587 C586 1.386 . S
C587 C591 1.393 . S
C588 H577 0.950 . S
C588 C586 1.391 . S
C588 C589 1.400 . S
C589 C583 1.491 1_556 S
C589 C588 1.400 . S
C589 C590 1.398 . S
C590 H578 0.950 1_556 S
C590 C589 1.398 . S
C590 C591 1.391 . S
C591 H579 0.950 . S
C591 C587 1.393 . S
C591 C590 1.391 . S
H592 C600 0.950 . S
H593 C605 0.950 . S
H594 C602 0.950 . S
H595 C604 0.950 . S
H596 C606 0.950 . S
H597 C608 0.950 . S
H598 C610 0.950 . S
H599 C611 0.950 . S
C600 H592 0.950 . S
C600 C601 1.386 . S
C600 C602 1.391 . S
C601 C600 1.386 . S
C601 C605 1.393 . S
C602 H594 0.950 . S
C602 C600 1.391 . S
C602 C603 1.400 . S
C603 C602 1.400 . S
C603 C604 1.398 . S
C603 C609 1.491 1_554 S
C604 H595 0.950 . S
C604 C603 1.398 . S
C604 C605 1.391 . S
C605 H593 0.950 . S
C605 C601 1.393 . S
C605 C604 1.391 . S
C606 H596 0.950 . S
C606 C607 1.386 . S
C606 C608 1.391 . S
C607 C606 1.386 . S
C607 C611 1.393 . S
C608 H597 0.950 . S
C608 C606 1.391 . S
C608 C609 1.400 . S
C609 C603 1.491 1_556 S
C609 C608 1.400 . S
C609 C610 1.398 . S
C610 H598 0.950 . S
C610 C609 1.398 . S
C610 C611 1.391 . S
C611 H599 0.950 . S
C611 C607 1.393 . S
C611 C610 1.391 . S
H612 C620 0.950 . S
H613 C625 0.954 . S
H614 C622 0.950 . S
H615 C624 0.952 . S
H616 C626 0.950 . S
H617 C628 0.950 1_554 S
H618 C630 0.950 1_455 S
H619 C631 0.948 1_455 S
C620 H612 0.950 . S
C620 C621 1.388 . S
C620 C622 1.391 . S
C621 C620 1.388 . S
C621 C625 1.390 1_455 S
C622 H614 0.950 . S
C622 C620 1.391 . S
C622 C623 1.400 1_455 S
C623 C622 1.400 1_655 S
C623 C624 1.398 . S
C623 C629 1.491 1_554 S
C624 H615 0.952 . S
C624 C623 1.398 . S
C624 C625 1.391 . S
C625 H613 0.954 . S
C625 C621 1.390 1_655 S
C625 C624 1.391 . S
C626 H616 0.950 . S
C626 C627 1.386 . S
C626 C628 1.391 . S
C627 C626 1.386 . S
C627 C631 1.394 . S
C628 H617 0.950 1_556 S
C628 C626 1.391 . S
C628 C629 1.400 . S
C629 C623 1.491 1_556 S
C629 C628 1.400 . S
C629 C630 1.399 . S
C630 H618 0.950 1_655 S
C630 C629 1.399 . S
C630 C631 1.391 . S
C631 H619 0.948 1_655 S
C631 C627 1.394 . S
C631 C630 1.391 . S
H632 C640 0.950 . S
H633 C645 0.950 . S
H634 C642 0.950 . S
H635 C644 0.950 . S
H636 C646 0.950 . S
H637 C648 0.950 . S
H638 C650 0.950 . S
H639 C651 0.950 . S
C640 H632 0.950 . S
C640 C641 1.386 1_655 S
C640 C642 1.391 . S
C641 C640 1.386 1_455 S
C641 C645 1.393 . S
C642 H634 0.950 . S
C642 C640 1.391 . S
C642 C643 1.400 . S
C643 C642 1.400 . S
C643 C644 1.398 1_655 S
C643 C649 1.491 . S
C644 H635 0.950 . S
C644 C643 1.398 1_455 S
C644 C645 1.391 . S
C645 H633 0.950 . S
C645 C641 1.393 . S
C645 C644 1.391 . S
C646 H636 0.950 . S
C646 C647 1.386 . S
C646 C648 1.391 . S
C647 C646 1.386 . S
C647 C651 1.393 . S
C648 H637 0.950 . S
C648 C646 1.391 . S
C648 C649 1.400 . S
C649 C643 1.491 . S
C649 C648 1.400 . S
C649 C650 1.398 . S
C650 H638 0.950 . S
C650 C649 1.398 . S
C650 C651 1.391 . S
C651 H639 0.950 . S
C651 C647 1.393 . S
C651 C650 1.391 . S
H652 C660 0.950 . S
H653 C665 0.950 . S
H654 C662 0.950 . S
H655 C664 0.950 . S
H656 C666 0.950 . S
H657 C668 0.950 1_545 S
H658 C670 0.950 . S
H659 C671 0.950 . S
C660 H652 0.950 . S
C660 C661 1.386 1_565 S
C660 C662 1.391 . S
C661 C660 1.386 1_545 S
C661 C665 1.393 . S
C662 H654 0.950 . S
C662 C660 1.391 . S
C662 C663 1.400 . S
C663 C662 1.400 . S
C663 C664 1.398 1_565 S
C663 C669 1.491 . S
C664 H655 0.950 . S
C664 C663 1.398 1_545 S
C664 C665 1.391 . S
C665 H653 0.950 . S
C665 C661 1.393 . S
C665 C664 1.391 . S
C666 H656 0.950 . S
C666 C667 1.386 . S
C666 C668 1.391 . S
C667 C666 1.386 . S
C667 C671 1.393 . S
C668 H657 0.950 1_565 S
C668 C666 1.391 . S
C668 C669 1.400 . S
C669 C663 1.491 . S
C669 C668 1.400 . S
C669 C670 1.398 . S
C670 H658 0.950 . S
C670 C669 1.398 . S
C670 C671 1.391 . S
C671 H659 0.950 . S
C671 C667 1.393 . S
C671 C670 1.391 . S
H672 C680 0.950 . S
H673 C685 0.950 . S
H674 C682 0.950 . S
H675 C684 0.950 . S
H676 C686 0.950 . S
H677 C688 0.950 . S
H678 C690 0.950 . S
H679 C691 0.950 . S
C680 H672 0.950 . S
C680 C681 1.386 . S
C680 C682 1.391 . S
C681 C680 1.386 . S
C681 C685 1.393 . S
C682 H674 0.950 . S
C682 C680 1.391 . S
C682 C683 1.400 . S
C683 C682 1.400 . S
C683 C684 1.398 . S
C683 C689 1.491 . S
C684 H675 0.950 . S
C684 C683 1.398 . S
C684 C685 1.391 . S
C685 H673 0.950 . S
C685 C681 1.393 . S
C685 C684 1.391 . S
C686 H676 0.950 . S
C686 C687 1.386 . S
C686 C688 1.391 . S
C687 C686 1.386 . S
C687 C691 1.393 . S
C688 H677 0.950 . S
C688 C686 1.391 . S
C688 C689 1.400 . S
C689 C683 1.491 . S
C689 C688 1.400 . S
C689 C690 1.398 . S
C690 H678 0.950 . S
C690 C689 1.398 . S
C690 C691 1.391 . S
C691 H679 0.950 . S
C691 C687 1.393 . S
C691 C690 1.391 . S
H692 C700 0.950 . S
H693 C705 0.950 . S
H694 C702 0.950 . S
H695 C704 0.950 . S
H696 C706 0.950 . S
H697 C708 0.950 . S
H698 C710 0.950 . S
H699 C711 0.950 . S
C700 H692 0.950 . S
C700 C701 1.386 . S
C700 C702 1.391 . S
C701 C700 1.386 . S
C701 C705 1.393 . S
C702 H694 0.950 . S
C702 C700 1.391 . S
C702 C703 1.400 . S
C703 C702 1.400 . S
C703 C704 1.398 . S
C703 C709 1.491 . S
C704 H695 0.950 . S
C704 C703 1.398 . S
C704 C705 1.391 . S
C705 H693 0.950 . S
C705 C701 1.393 . S
C705 C704 1.391 . S
C706 H696 0.950 . S
C706 C707 1.386 . S
C706 C708 1.391 . S
C707 C706 1.386 . S
C707 C711 1.393 . S
C708 H697 0.950 . S
C708 C706 1.391 . S
C708 C709 1.400 . S
C709 C703 1.491 . S
C709 C708 1.400 . S
C709 C710 1.398 . S
C710 H698 0.950 . S
C710 C709 1.398 . S
C710 C711 1.391 . S
C711 H699 0.950 . S
C711 C707 1.393 . S
C711 C710 1.391 . S
H712 C720 0.950 . S
H713 C725 0.950 . S
H714 C722 0.950 . S
H715 C724 0.950 1_556 S
H716 C726 0.950 . S
H717 C728 0.950 . S
H718 C730 0.950 . S
H719 C731 0.950 . S
C720 H712 0.950 . S
C720 C721 1.386 . S
C720 C722 1.391 1_655 S
C721 C720 1.386 . S
C721 C725 1.393 1_655 S
C722 H714 0.950 . S
C722 C720 1.391 1_455 S
C722 C723 1.400 . S
C723 C722 1.400 . S
C723 C724 1.398 . S
C723 C729 1.491 . S
C724 H715 0.950 1_554 S
C724 C723 1.398 . S
C724 C725 1.391 . S
C725 H713 0.950 . S
C725 C721 1.393 1_455 S
C725 C724 1.391 . S
C726 H716 0.950 . S
C726 C727 1.386 . S
C726 C728 1.391 . S
C727 C726 1.386 . S
C727 C731 1.393 1_556 S
C728 H717 0.950 . S
C728 C726 1.391 . S
C728 C729 1.400 1_556 S
C729 C723 1.491 . S
C729 C728 1.400 1_554 S
C729 C730 1.398 . S
C730 H718 0.950 . S
C730 C729 1.398 . S
C730 C731 1.391 . S
C731 H719 0.950 . S
C731 C727 1.393 1_554 S
C731 C730 1.391 . S
H732 C740 0.950 . S
H733 C745 0.950 . S
H734 C742 0.950 . S
H735 C744 0.950 . S
H736 C746 0.950 . S
H737 C748 0.950 . S
H738 C750 0.950 1_565 S
H739 C751 0.950 1_565 S
C740 H732 0.950 . S
C740 C741 1.386 . S
C740 C742 1.391 . S
C741 C740 1.386 . S
C741 C745 1.393 1_565 S
C742 H734 0.950 . S
C742 C740 1.391 . S
C742 C743 1.400 1_565 S
C743 C742 1.400 1_545 S
C743 C744 1.398 . S
C743 C749 1.491 . S
C744 H735 0.950 . S
C744 C743 1.398 . S
C744 C745 1.391 . S
C745 H733 0.950 . S
C745 C741 1.393 1_545 S
C745 C744 1.391 . S
C746 H736 0.950 . S
C746 C747 1.386 . S
C746 C748 1.391 1_556 S
C747 C746 1.386 . S
C747 C751 1.393 . S
C748 H737 0.950 . S
C748 C746 1.391 1_554 S
C748 C749 1.400 . S
C749 C743 1.491 . S
C749 C748 1.400 . S
C749 C750 1.398 1_554 S
C750 H738 0.950 1_545 S
C750 C749 1.398 1_556 S
C750 C751 1.391 . S
C751 H739 0.950 1_545 S
C751 C747 1.393 . S
C751 C750 1.391 . S
H752 C760 0.950 . S
H753 C765 0.950 . S
H754 C762 0.950 1_556 S
H755 C764 0.950 . S
H756 C766 0.950 . S
H757 C768 0.950 . S
H758 C770 0.950 . S
H759 C771 0.950 . S
C760 H752 0.950 . S
C760 C761 1.386 . S
C760 C762 1.391 . S
C761 C760 1.386 . S
C761 C765 1.393 . S
C762 H754 0.950 1_554 S
C762 C760 1.391 . S
C762 C763 1.400 . S
C763 C762 1.400 . S
C763 C764 1.398 . S
C763 C769 1.491 . S
C764 H755 0.950 . S
C764 C763 1.398 . S
C764 C765 1.391 . S
C765 H753 0.950 . S
C765 C761 1.393 . S
C765 C764 1.391 . S
C766 H756 0.950 . S
C766 C767 1.386 1_554 S
C766 C768 1.391 . S
C767 C766 1.386 1_556 S
C767 C771 1.393 . S
C768 H757 0.950 . S
C768 C766 1.391 . S
C768 C769 1.400 . S
C769 C763 1.491 . S
C769 C768 1.400 . S
C769 C770 1.398 1_554 S
C770 H758 0.950 . S
C770 C769 1.398 1_556 S
C770 C771 1.391 . S
C771 H759 0.950 . S
C771 C767 1.393 . S
C771 C770 1.391 . S
H772 C780 0.950 . S
H773 C785 0.950 . S
H774 C782 0.950 . S
H775 C784 0.950 1_556 S
H776 C786 0.950 . S
H777 C788 0.950 . S
H778 C790 0.950 . S
H779 C791 0.950 . S
C780 H772 0.950 . S
C780 C781 1.386 . S
C780 C782 1.391 . S
C781 C780 1.386 . S
C781 C785 1.393 . S
C782 H774 0.950 . S
C782 C780 1.391 . S
C782 C783 1.400 . S
C783 C782 1.400 . S
C783 C784 1.398 . S
C783 C789 1.491 . S
C784 H775 0.950 1_554 S
C784 C783 1.398 . S
C784 C785 1.391 . S
C785 H773 0.950 . S
C785 C781 1.393 . S
C785 C784 1.391 . S
C786 H776 0.950 . S
C786 C787 1.386 . S
C786 C788 1.391 . S
C787 C786 1.386 . S
C787 C791 1.393 1_556 S
C788 H777 0.950 . S
C788 C786 1.391 . S
C788 C789 1.400 1_556 S
C789 C783 1.491 . S
C789 C788 1.400 1_554 S
C789 C790 1.398 . S
C790 H778 0.950 . S
C790 C789 1.398 . S
C790 C791 1.391 . S
C791 H779 0.950 . S
C791 C787 1.393 1_554 S
C791 C790 1.391 . S
H792 C800 0.950 . S
H793 C805 0.950 . S
H794 C802 0.950 . S
H795 C804 0.950 . S
H796 C806 0.956 . S
H797 C808 0.950 . S
H798 C810 0.950 . S
H799 C811 0.950 . S
C800 H792 0.950 . S
C800 C801 1.386 . S
C800 C802 1.391 . S
C801 C800 1.386 . S
C801 C805 1.393 1_455 S
C802 H794 0.950 . S
C802 C800 1.391 . S
C802 C803 1.400 . S
C803 C802 1.400 . S
C803 C804 1.398 1_455 S
C803 C809 1.491 . S
C804 H795 0.950 . S
C804 C803 1.398 1_655 S
C804 C805 1.391 . S
C805 H793 0.950 . S
C805 C801 1.393 1_655 S
C805 C804 1.391 . S
C806 H796 0.956 . S
C806 C807 1.379 1_655 S
C806 C808 1.392 . S
C807 C806 1.379 1_455 S
C807 C811 1.393 . S
C808 H797 0.950 . S
C808 C806 1.392 . S
C808 C809 1.400 1_655 S
C809 C803 1.491 . S
C809 C808 1.400 1_455 S
C809 C810 1.398 . S
C810 H798 0.950 . S
C810 C809 1.398 . S
C810 C811 1.391 . S
C811 H799 0.950 . S
C811 C807 1.393 . S
C811 C810 1.391 . S
H812 C820 0.950 . S
H813 C825 0.950 . S
H814 C822 0.950 . S
H815 C824 0.950 . S
H816 C826 0.950 . S
H817 C828 0.950 . S
H818 C830 0.950 . S
H819 C831 0.950 . S
C820 H812 0.950 . S
C820 C821 1.386 . S
C820 C822 1.391 . S
C821 C820 1.386 . S
C821 C825 1.393 1_545 S
C822 H814 0.950 . S
C822 C820 1.391 . S
C822 C823 1.400 . S
C823 C822 1.400 . S
C823 C824 1.398 1_545 S
C823 C829 1.491 . S
C824 H815 0.950 . S
C824 C823 1.398 1_565 S
C824 C825 1.391 . S
C825 H813 0.950 . S
C825 C821 1.393 1_565 S
C825 C824 1.391 . S
C826 H816 0.950 . S
C826 C827 1.386 1_565 S
C826 C828 1.391 . S
C827 C826 1.386 1_545 S
C827 C831 1.393 . S
C828 H817 0.950 . S
C828 C826 1.391 . S
C828 C829 1.400 1_565 S
C829 C823 1.491 . S
C829 C828 1.400 1_545 S
C829 C830 1.398 . S
C830 H818 0.950 . S
C830 C829 1.398 . S
C830 C831 1.391 . S
C831 H819 0.950 . S
C831 C827 1.393 . S
C831 C830 1.391 . S
H832 C840 0.950 . S
H833 C845 0.950 . S
H834 C842 0.950 . S
H835 C844 0.950 . S
H836 C846 0.950 . S
H837 C848 0.950 . S
H838 C850 0.950 . S
H839 C851 0.950 . S
C840 H832 0.950 . S
C840 C841 1.386 . S
C840 C842 1.391 . S
C841 C840 1.386 . S
C841 C845 1.393 . S
C842 H834 0.950 . S
C842 C840 1.391 . S
C842 C843 1.400 . S
C843 C842 1.400 . S
C843 C844 1.398 . S
C843 C849 1.491 . S
C844 H835 0.950 . S
C844 C843 1.398 . S
C844 C845 1.391 . S
C845 H833 0.950 . S
C845 C841 1.393 . S
C845 C844 1.391 . S
C846 H836 0.950 . S
C846 C847 1.386 . S
C846 C848 1.391 . S
C847 C846 1.386 . S
C847 C851 1.393 . S
C848 H837 0.950 . S
C848 C846 1.391 . S
C848 C849 1.400 . S
C849 C843 1.491 . S
C849 C848 1.400 . S
C849 C850 1.398 . S
C850 H838 0.950 . S
C850 C849 1.398 . S
C850 C851 1.391 . S
C851 H839 0.950 . S
C851 C847 1.393 . S
C851 C850 1.391 . S
H852 C860 0.950 . S
H853 C865 0.950 . S
H854 C862 0.950 . S
H855 C864 0.950 . S
H856 C866 0.950 . S
H857 C868 0.950 . S
H858 C870 0.950 . S
H859 C871 0.950 . S
C860 H852 0.950 . S
C860 C861 1.386 . S
C860 C862 1.391 . S
C861 C860 1.386 . S
C861 C865 1.393 . S
C862 H854 0.950 . S
C862 C860 1.391 . S
C862 C863 1.400 . S
C863 C862 1.400 . S
C863 C864 1.398 . S
C863 C869 1.491 . S
C864 H855 0.950 . S
C864 C863 1.398 . S
C864 C865 1.391 . S
C865 H853 0.950 . S
C865 C861 1.393 . S
C865 C864 1.391 . S
C866 H856 0.950 . S
C866 C867 1.386 . S
C866 C868 1.391 . S
C867 C866 1.386 . S
C867 C871 1.393 . S
C868 H857 0.950 . S
C868 C866 1.391 . S
C868 C869 1.400 . S
C869 C863 1.491 . S
C869 C868 1.400 . S
C869 C870 1.398 . S
C870 H858 0.950 . S
C870 C869 1.398 . S
C870 C871 1.391 . S
C871 H859 0.950 . S
C871 C867 1.393 . S
C871 C870 1.391 . S
H872 C880 0.950 . S
H873 C885 0.950 . S
H874 C882 0.950 . S
H875 C884 0.950 . S
H876 C886 0.950 . S
H877 C888 0.950 . S
H878 C890 0.950 . S
H879 C891 0.950 . S
C880 H872 0.950 . S
C880 C881 1.386 . S
C880 C882 1.391 . S
C881 C880 1.386 . S
C881 C885 1.393 1_655 S
C882 H874 0.950 . S
C882 C880 1.391 . S
C882 C883 1.400 . S
C883 C882 1.400 . S
C883 C884 1.398 1_655 S
C883 C889 1.491 . S
C884 H875 0.950 . S
C884 C883 1.398 1_455 S
C884 C885 1.391 . S
C885 H873 0.950 . S
C885 C881 1.393 1_455 S
C885 C884 1.391 . S
C886 H876 0.950 . S
C886 C887 1.386 1_455 S
C886 C888 1.391 . S
C887 C886 1.386 1_655 S
C887 C891 1.393 . S
C888 H877 0.950 . S
C888 C886 1.391 . S
C888 C889 1.400 1_455 S
C889 C883 1.491 . S
C889 C888 1.400 1_655 S
C889 C890 1.398 . S
C890 H878 0.950 . S
C890 C889 1.398 . S
C890 C891 1.391 . S
C891 H879 0.950 . S
C891 C887 1.393 . S
C891 C890 1.391 . S
H892 C900 0.950 . S
H893 C905 0.950 . S
H894 C902 0.950 . S
H895 C904 0.950 . S
H896 C906 0.950 . S
H897 C908 0.950 . S
H898 C910 0.950 . S
H899 C911 0.950 . S
C900 H892 0.950 . S
C900 C901 1.386 . S
C900 C902 1.391 . S
C901 C900 1.386 . S
C901 C905 1.393 1_565 S
C902 H894 0.950 . S
C902 C900 1.391 . S
C902 C903 1.400 . S
C903 C902 1.400 . S
C903 C904 1.398 1_565 S
C903 C909 1.491 . S
C904 H895 0.950 . S
C904 C903 1.398 1_545 S
C904 C905 1.391 . S
C905 H893 0.950 . S
C905 C901 1.393 1_545 S
C905 C904 1.391 . S
C906 H896 0.950 . S
C906 C907 1.386 1_545 S
C906 C908 1.391 . S
C907 C906 1.386 1_565 S
C907 C911 1.393 . S
C908 H897 0.950 . S
C908 C906 1.391 . S
C908 C909 1.400 1_545 S
C909 C903 1.491 . S
C909 C908 1.400 1_565 S
C909 C910 1.398 . S
C910 H898 0.950 . S
C910 C909 1.398 . S
C910 C911 1.391 . S
C911 H899 0.950 . S
C911 C907 1.393 . S
C911 C910 1.391 . S
H912 C920 0.950 . S
H913 C925 0.950 . S
H914 C922 0.950 . S
H915 C924 0.950 . S
H916 C926 0.950 . S
H917 C928 0.950 . S
H918 C930 0.950 . S
H919 C931 0.950 . S
C920 H912 0.950 . S
C920 C921 1.386 . S
C920 C922 1.391 . S
C921 C920 1.386 . S
C921 C925 1.393 . S
C922 H914 0.950 . S
C922 C920 1.391 . S
C922 C923 1.400 . S
C923 C922 1.400 . S
C923 C924 1.398 . S
C923 C929 1.491 . S
C924 H915 0.950 . S
C924 C923 1.398 . S
C924 C925 1.391 . S
C925 H913 0.950 . S
C925 C921 1.393 . S
C925 C924 1.391 . S
C926 H916 0.950 . S
C926 C927 1.386 . S
C926 C928 1.391 . S
C927 C926 1.386 . S
C927 C931 1.393 . S
C928 H917 0.950 . S
C928 C926 1.391 . S
C928 C929 1.400 . S
C929 C923 1.491 . S
C929 C928 1.400 . S
C929 C930 1.398 . S
C930 H918 0.950 . S
C930 C929 1.398 . S
C930 C931 1.391 . S
C931 H919 0.950 . S
C931 C927 1.393 . S
C931 C930 1.391 . S
H932 C940 0.950 . S
H933 C945 0.950 . S
H934 C942 0.950 . S
H935 C944 0.950 . S
H936 C946 0.950 . S
H937 C948 0.950 . S
H938 C950 0.950 . S
H939 C951 0.950 . S
C940 H932 0.950 . S
C940 C941 1.386 . S
C940 C942 1.391 . S
C941 C940 1.386 . S
C941 C945 1.393 . S
C942 H934 0.950 . S
C942 C940 1.391 . S
C942 C943 1.400 . S
C943 C942 1.400 . S
C943 C944 1.398 . S
C943 C949 1.491 . S
C944 H935 0.950 . S
C944 C943 1.398 . S
C944 C945 1.391 . S
C945 H933 0.950 . S
C945 C941 1.393 . S
C945 C944 1.391 . S
C946 H936 0.950 . S
C946 C947 1.386 . S
C946 C948 1.391 . S
C947 C946 1.386 . S
C947 C951 1.393 . S
C948 H937 0.950 . S
C948 C946 1.391 . S
C948 C949 1.400 . S
C949 C943 1.491 . S
C949 C948 1.400 . S
C949 C950 1.398 . S
C950 H938 0.950 . S
C950 C949 1.398 . S
C950 C951 1.391 . S
C951 H939 0.950 . S
C951 C947 1.393 . S
C951 C950 1.391 . S
C481 C255 2.181 1_545 S
C487 C330 2.386 1_545 S
C507 C370 2.415 . S
C501 C294 2.176 . S
C527 C410 2.404 . S
C521 C177 2.207 . S
C547 C450 2.399 1_455 S
C541 C216 2.205 1_455 S
C567 C320 2.391 1_565 S
C561 C99 2.209 1_545 S
C581 C138 2.189 . S
C587 C360 2.415 . S
C601 C21 2.198 . S
C607 C400 2.406 . S
C621 C60 2.206 1_455 S
C627 C440 2.402 1_655 S
C647 C317 0.418 . S
C641 C196 0.389 1_455 S
C667 C357 0.408 . S
C661 C235 0.380 1_545 S
C687 C397 0.410 . S
C681 C289 0.390 . S
C701 C157 0.328 . S
C707 C437 0.353 . S
C721 C40 0.335 . S
C727 C327 0.335 . S
C747 C367 0.378 . S
C741 C79 0.341 . S
C767 C407 0.410 . S
C761 C133 0.387 . S
C781 C1 0.326 . S
C787 C447 0.335 . S
C801 C211 2.801 . S
C807 C321 3.172 . S
C821 C250 2.767 . S
C827 C361 3.153 . S
C847 C401 3.145 . S
C841 C274 2.787 . S
C867 C441 3.168 . S
C861 C172 2.793 . S
C881 C55 2.819 1_655 S
C887 C331 3.188 . S
C907 C371 3.155 . S
C901 C94 2.780 1_565 S
C927 C411 3.148 . S
C921 C118 2.788 . S
C941 C16 2.801 . S
C947 C451 3.170 . S
