# Generated by pormake.
# Topology zzz, (3,6)-cn, num edge types: 1
# Building blocks:
#     Node 0, Type 0, BuildingBlock: BETDIP_clean_linker_0, # of connection points: 3
#     Node 1, Type 0, BuildingBlock: BETDIP_clean_linker_0, # of connection points: 3
#     Node 2, Type 0, BuildingBlock: BETDIP_clean_linker_0, # of connection points: 3
#     Node 3, Type 0, BuildingBlock: BETDIP_clean_linker_0, # of connection points: 3
#     Node 4, Type 0, BuildingBlock: BETDIP_clean_linker_0, # of connection points: 3
#     Node 5, Type 0, BuildingBlock: BETDIP_clean_linker_0, # of connection points: 3
#     Node 6, Type 0, BuildingBlock: BETDIP_clean_linker_0, # of connection points: 3
#     Node 7, Type 0, BuildingBlock: BETDIP_clean_linker_0, # of connection points: 3
#     Node 8, Type 1, BuildingBlock: CUWYAW_clean_sbu_0, # of connection points: 6
#     Node 9, Type 1, BuildingBlock: CUWYAW_clean_sbu_0, # of connection points: 6
#     Node 10, Type 1, BuildingBlock: CUWYAW_clean_sbu_0, # of connection points: 6
#     Node 11, Type 1, BuildingBlock: CUWYAW_clean_sbu_0, # of connection points: 6
#     Edge 12, Type (0, 1), BuildingBlock: MIFKUJ_clean_linker_0, # of connection points: 2
#     Edge 13, Type (0, 1), BuildingBlock: MIFKUJ_clean_linker_0, # of connection points: 2
#     Edge 14, Type (0, 1), BuildingBlock: MIFKUJ_clean_linker_0, # of connection points: 2
#     Edge 15, Type (0, 1), BuildingBlock: MIFKUJ_clean_linker_0, # of connection points: 2
#     Edge 16, Type (0, 1), BuildingBlock: MIFKUJ_clean_linker_0, # of connection points: 2
#     Edge 17, Type (0, 1), BuildingBlock: MIFKUJ_clean_linker_0, # of connection points: 2
#     Edge 18, Type (0, 1), BuildingBlock: MIFKUJ_clean_linker_0, # of connection points: 2
#     Edge 19, Type (0, 1), BuildingBlock: MIFKUJ_clean_linker_0, # of connection points: 2
#     Edge 20, Type (0, 1), BuildingBlock: MIFKUJ_clean_linker_0, # of connection points: 2
#     Edge 21, Type (0, 1), BuildingBlock: MIFKUJ_clean_linker_0, # of connection points: 2
#     Edge 22, Type (0, 1), BuildingBlock: MIFKUJ_clean_linker_0, # of connection points: 2
#     Edge 23, Type (0, 1), BuildingBlock: MIFKUJ_clean_linker_0, # of connection points: 2
#     Edge 24, Type (0, 1), BuildingBlock: MIFKUJ_clean_linker_0, # of connection points: 2
#     Edge 25, Type (0, 1), BuildingBlock: MIFKUJ_clean_linker_0, # of connection points: 2
#     Edge 26, Type (0, 1), BuildingBlock: MIFKUJ_clean_linker_0, # of connection points: 2
#     Edge 27, Type (0, 1), BuildingBlock: MIFKUJ_clean_linker_0, # of connection points: 2
#     Edge 28, Type (0, 1), BuildingBlock: MIFKUJ_clean_linker_0, # of connection points: 2
#     Edge 29, Type (0, 1), BuildingBlock: MIFKUJ_clean_linker_0, # of connection points: 2
#     Edge 30, Type (0, 1), BuildingBlock: MIFKUJ_clean_linker_0, # of connection points: 2
#     Edge 31, Type (0, 1), BuildingBlock: MIFKUJ_clean_linker_0, # of connection points: 2
#     Edge 32, Type (0, 1), BuildingBlock: MIFKUJ_clean_linker_0, # of connection points: 2
#     Edge 33, Type (0, 1), BuildingBlock: MIFKUJ_clean_linker_0, # of connection points: 2
#     Edge 34, Type (0, 1), BuildingBlock: MIFKUJ_clean_linker_0, # of connection points: 2
#     Edge 35, Type (0, 1), BuildingBlock: MIFKUJ_clean_linker_0, # of connection points: 2
# Relax obj value: 0.213
# Max RMSD: 0.147
# Mean RMSD: 0.132
data_MOF--net-zzz--node1-CUWYAW_clean_sbu_0--node2-BETDIP_clean_linker_0--edge1-MIFKUJ_clean_linker_0
_symmetry_space_group_name_H-M    P1
_symmetry_Int_Tables_number       1
_symmetry_cell_setting            triclinic
loop_
_symmetry_equiv_pos_as_xyz
'x, y, z'
_cell_length_a     68.062663
_cell_length_b     68.021236
_cell_length_c     18.097427
_cell_angle_alpha  89.859905
_cell_angle_beta   89.890455
_cell_angle_gamma 90.007607
loop_
_atom_site_label
_atom_site_type_symbol
_atom_site_fract_x
_atom_site_fract_y
_atom_site_fract_z
_atom_type_partial_charge
H0 H 0.75133 0.52697 0.38253 0.0
H1 H 0.73983 0.48505 0.20872 0.0
H2 H 0.79063 0.47825 0.34493 0.0
H3 H 0.73276 0.51855 0.15515 0.0
C4 C 0.72083 0.51968 0.19502 0.0
C5 C 0.75515 0.51367 0.35306 0.0
C6 C 0.7724 0.50307 0.37274 0.0
C7 C 0.74311 0.50714 0.29366 0.0
C8 C 0.74862 0.49012 0.25475 0.0
C9 C 0.76549 0.47962 0.27404 0.0
C10 C 0.77706 0.48602 0.33296 0.0
N11 N 0.72573 0.51757 0.27163 0.0
H12 H 0.99286 0.76353 0.39225 0.0
H13 H 0.98008 0.74784 0.16659 0.0
H14 H 0.98253 0.80852 0.22878 0.0
H15 H 0.95833 0.72521 0.26329 0.0
C16 C 0.97321 0.71953 0.26813 0.0
C17 C 0.98961 0.76785 0.33596 0.0
C18 C 0.98737 0.78808 0.3178 0.0
C19 C 0.98657 0.75319 0.28116 0.0
C20 C 0.98218 0.75896 0.20863 0.0
C21 C 0.98062 0.77876 0.18947 0.0
C22 C 0.98325 0.79312 0.24409 0.0
N23 N 0.98769 0.73263 0.29733 0.0
H24 H 0.76976 0.02497 0.381 0.0
H25 H 0.78854 0.98579 0.20786 0.0
H26 H 0.73168 0.97856 0.30661 0.0
H27 H 0.81964 0.99149 0.31555 0.0
C28 C 0.81841 1.0053 0.28551 0.0
C29 C 0.7672 0.01216 0.34694 0.0
C30 C 0.74915 1.00183 0.35244 0.0
C31 C 0.78201 1.00562 0.29744 0.0
C32 C 0.77801 0.98976 0.25031 0.0
C33 C 0.75986 0.98014 0.25309 0.0
C34 C 0.74597 0.98567 0.30622 0.0
N35 N 0.80026 0.0158 0.28986 0.0
H36 H 0.51702 0.77695 0.40024 0.0
H37 H 0.52508 0.79094 0.16939 0.0
H38 H 0.52469 0.73077 0.24004 0.0
H39 H 0.54994 0.81402 0.26723 0.0
C40 C 0.53505 0.81979 0.26956 0.0
C41 C 0.51916 0.77223 0.34371 0.0
C42 C 0.52114 0.75187 0.32742 0.0
C43 C 0.52101 0.78648 0.28625 0.0
C44 C 0.52391 0.78017 0.21342 0.0
C45 C 0.52531 0.76022 0.19674 0.0
C46 C 0.52392 0.74628 0.25359 0.0
N47 N 0.52025 0.80716 0.29987 0.0
H48 H 0.26515 0.50801 0.02651 0.0
H49 H 0.28288 0.51665 0.25273 0.0
H50 H 0.22212 0.52201 0.19349 0.0
H51 H 0.30862 0.53827 0.13238 0.0
C52 C 0.31154 0.52275 0.14149 0.0
C53 C 0.26144 0.5115 0.08319 0.0
C54 C 0.24161 0.5156 0.10276 0.0
C55 C 0.27653 0.51266 0.13733 0.0
C56 C 0.27153 0.51667 0.21073 0.0
C57 C 0.25202 0.51984 0.23111 0.0
C58 C 0.23729 0.5198 0.17699 0.0
N59 N 0.29669 0.50901 0.12035 0.0
H60 H 0.02546 0.26947 0.11943 0.0
H61 H 0.97101 0.28797 0.22085 0.0
H62 H 0.97309 0.23499 0.09277 0.0
H63 H 0.98779 0.32004 0.15905 0.0
C64 C 0.99924 0.31736 0.19969 0.0
C65 C 0.00987 0.26741 0.12877 0.0
C66 C 1.00022 0.25078 0.09894 0.0
C67 C 0.99911 0.28152 0.17011 0.0
C68 C 0.97905 0.27809 0.18495 0.0
C69 C 0.96963 0.26137 0.15695 0.0
C70 C 0.98019 0.24826 0.11255 0.0
N71 N 1.00853 0.2985 0.20038 0.0
H72 H 0.25945 0.02823 0.06025 0.0
H73 H 0.24639 0.99975 0.26842 0.0
H74 H 0.30446 0.99645 0.17765 0.0
H75 H 0.21647 0.99269 0.16285 0.0
C76 C 0.21462 1.00812 0.17686 0.0
C77 C 0.26411 0.01955 0.10729 0.0
C78 C 0.28367 0.0124 0.11096 0.0
C79 C 0.25038 0.01458 0.16363 0.0
C80 C 0.25659 1.00323 0.22422 0.0
C81 C 0.27611 0.99714 0.22973 0.0
C82 C 0.28939 1.00155 0.1731 0.0
N83 N 0.23049 0.02125 0.16125 0.0
H84 H 0.50216 0.25784 0.01481 0.0
H85 H 0.50944 0.24706 0.24832 0.0
H86 H 0.50531 0.3062 0.16772 0.0
H87 H 0.53521 0.22502 0.16901 0.0
C88 C 0.52128 0.21775 0.15809 0.0
C89 C 0.50331 0.26329 0.0708 0.0
C90 C 0.50296 0.28389 0.0843 0.0
C91 C 0.50564 0.24984 0.13055 0.0
C92 C 0.50755 0.25718 0.20248 0.0
C93 C 0.50737 0.27734 0.21613 0.0
C94 C 0.50479 0.29051 0.15726 0.0
N95 N 0.50667 0.22901 0.11995 0.0
C96 C 0.99478 0.0429 0.50267 0.0
Eu97 Eu 1.00122 0.02804 0.63265 0.0
C98 C 0.98395 0.05981 0.47253 0.0
C99 C 0.97368 0.0579 0.40579 0.0
C100 C 0.96382 0.07404 0.37539 0.0
C101 C 0.96426 0.09234 0.41117 0.0
C102 C 0.97416 0.09407 0.47891 0.0
C103 C 0.98383 0.07792 0.50958 0.0
C104 C 0.97398 0.02449 0.74374 0.0
C105 C 0.01382 0.05971 0.76265 0.0
C106 C 0.03282 0.9933 0.88651 0.0
Eu107 Eu 0.02267 0.01354 0.77222 0.0
C108 C 0.02644 0.973 0.90099 0.0
C109 C 0.04044 0.95788 0.90407 0.0
C110 C 0.03463 0.9383 0.89603 0.0
C111 C 0.01474 0.93359 0.88491 0.0
C112 C 1.00067 0.94864 0.88639 0.0
C113 C 1.00644 0.96812 0.89445 0.0
C114 C 0.0464 0.02561 0.65977 0.0
C115 C 1.00571 0.98092 0.65393 0.0
O116 O 0.01044 0.04694 0.54215 0.0
O117 O 0.98407 0.02876 0.53105 0.0
O118 O 0.96992 0.03036 0.67729 0.0
O119 O 0.99213 0.02085 0.74692 0.0
O120 O 0.00918 0.05684 0.69203 0.0
O121 O 0.01795 0.04488 0.80736 0.0
O122 O 0.01909 1.0068 0.88927 0.0
O123 O 0.0442 0.99521 0.82856 0.0
O124 O 0.04966 0.02939 0.72906 0.0
O125 O 0.03088 0.0155 0.65351 0.0
O126 O 0.01245 0.98457 0.7211 0.0
O127 O 1.00146 0.99533 0.60733 0.0
H128 H 0.97353 0.044 0.37669 0.0
H129 H 0.95641 0.07241 0.32285 0.0
H130 H 0.97453 0.10798 0.50792 0.0
H131 H 0.9914 0.07967 0.56175 0.0
H132 H 0.05595 0.96131 0.90811 0.0
H133 H 0.04575 0.92691 0.89655 0.0
H134 H 0.98525 0.94549 0.87746 0.0
H135 H 0.99527 0.97938 0.89049 0.0
C136 C 0.48932 0.9985 0.50806 0.0
Eu137 Eu 0.50573 1.00665 0.63326 0.0
C138 C 0.47374 0.98481 0.48627 0.0
C139 C 0.47151 0.96657 0.52192 0.0
C140 C 0.45494 0.95499 0.50851 0.0
C141 C 0.44023 0.96158 0.45996 0.0
C142 C 0.44299 0.97954 0.4223 0.0
C143 C 0.45962 0.99099 0.43523 0.0
C144 C 0.51457 0.98035 0.74492 0.0
C145 C 0.47495 0.01995 0.76692 0.0
C146 C 0.54086 0.03356 0.90197 0.0
Eu147 Eu 0.52201 0.02908 0.77944 0.0
C148 C 0.55851 0.02281 0.92493 0.0
C149 C 0.57299 0.03208 0.96714 0.0
C150 C 0.59112 0.0229 0.97851 0.0
C151 C 0.59505 1.00425 0.94786 0.0
C152 C 0.58026 0.99499 0.90642 0.0
C153 C 0.56228 1.00421 0.89476 0.0
C154 C 0.51304 0.05543 0.66917 0.0
C155 C 0.55208 0.01636 0.64544 0.0
O156 O 0.48353 0.013 0.55046 0.0
O157 O 0.506 0.99065 0.52937 0.0
O158 O 0.50781 0.9753 0.68065 0.0
O159 O 0.51634 0.9988 0.74398 0.0
O160 O 0.47772 0.01246 0.69965 0.0
O161 O 0.48956 0.02685 0.8083 0.0
O162 O 0.52467 0.02317 0.8974 0.0
O163 O 0.54361 0.04497 0.84458 0.0
O164 O 0.51862 0.06047 0.73517 0.0
O165 O 0.51167 0.03693 0.66833 0.0
O166 O 0.54961 0.01957 0.71722 0.0
O167 O 0.53712 0.01342 0.60011 0.0
H168 H 0.48219 0.96159 0.5621 0.0
H169 H 0.45339 0.94118 0.5378 0.0
H170 H 0.43183 0.98534 0.38572 0.0
H171 H 0.461 1.00512 0.40793 0.0
H172 H 0.57052 0.04669 0.98907 0.0
H173 H 0.60223 0.03072 0.00947 0.0
H174 H 0.58251 0.98059 0.88252 0.0
H175 H 0.55153 0.99704 0.85998 0.0
C176 C 0.53429 0.49408 0.50639 0.0
Eu177 Eu 0.52252 0.51075 0.6264 0.0
C178 C 0.54723 0.47693 0.5042 0.0
C179 C 0.55498 0.46994 0.57121 0.0
C180 C 0.56316 0.45127 0.57552 0.0
C181 C 0.56388 0.4394 0.51266 0.0
C182 C 0.5577 0.44697 0.44412 0.0
C183 C 0.54924 0.46569 0.43999 0.0
C184 C 0.54836 0.51744 0.7403 0.0
C185 C 0.51061 0.47682 0.75031 0.0
C186 C 0.48574 0.54242 0.87006 0.0
Eu187 Eu 0.49824 0.52202 0.75997 0.0
C188 C 0.49134 0.56316 0.88081 0.0
C189 C 0.4768 0.57774 0.88402 0.0
C190 C 0.48179 0.59753 0.87411 0.0
C191 C 0.50141 0.60304 0.86046 0.0
C192 C 0.51602 0.58848 0.86044 0.0
C193 C 0.51106 0.5688 0.87074 0.0
C194 C 0.47667 0.50888 0.64319 0.0
C195 C 0.51257 0.5564 0.64127 0.0
O196 O 0.5171 0.49042 0.53624 0.0
O197 O 0.54236 0.5102 0.53178 0.0
O198 O 0.55341 0.51301 0.67363 0.0
O199 O 0.52988 0.51875 0.74258 0.0
O200 O 0.51569 0.481 0.6812 0.0
O201 O 0.50492 0.49083 0.79622 0.0
O202 O 0.4999 0.5295 0.87698 0.0
O203 O 0.47498 0.53931 0.81145 0.0
O204 O 0.4732 0.5042 0.71177 0.0
O205 O 0.49139 0.52027 0.63978 0.0
O206 O 0.5062 0.55187 0.70843 0.0
O207 O 0.51838 0.54262 0.59487 0.0
H208 H 0.5533 0.47826 0.62164 0.0
H209 H 0.56759 0.44555 0.62891 0.0
H210 H 0.55785 0.4378 0.39526 0.0
H211 H 0.54313 0.47078 0.38814 0.0
H212 H 0.46148 0.57373 0.89036 0.0
H213 H 0.47025 0.60847 0.87585 0.0
H214 H 0.53122 0.59217 0.84931 0.0
H215 H 0.52262 0.55792 0.86608 0.0
C216 C 0.02824 0.53151 0.55773 0.0
Eu217 Eu 0.01016 0.52503 0.6811 0.0
C218 C 0.04775 0.52414 0.53771 0.0
C219 C 0.06061 0.53587 0.49659 0.0
C220 C 0.08062 0.53137 0.49478 0.0
C221 C 0.08813 0.51544 0.53619 0.0
C222 C 0.07479 0.50276 0.57172 0.0
C223 C 0.05479 0.50701 0.57201 0.0
C224 C 0.99861 0.55072 0.7881 0.0
C225 C 0.04402 0.51279 0.80402 0.0
C226 C 0.98224 0.50035 0.95904 0.0
Eu227 Eu 0.99756 0.50596 0.82994 0.0
C228 C 0.96578 0.48779 0.98294 0.0
C229 C 0.9648 0.4679 0.96202 0.0
C230 C 0.94772 0.457 0.97473 0.0
C231 C 0.9313 0.46591 0.00748 0.0
C232 C 0.9326 0.48553 0.03114 0.0
C233 C 0.94972 0.49636 0.01917 0.0
C234 C 1.00259 0.47689 0.72634 0.0
C235 C 0.96421 0.51581 0.7013 0.0
O236 O 0.01458 0.51808 0.56489 0.0
O237 O 0.0283 0.54411 0.61235 0.0
O238 O 0.99479 0.55301 0.71815 0.0
O239 O 0.00883 0.53541 0.79758 0.0
O240 O 0.03963 0.51652 0.7339 0.0
O241 O 0.03005 0.51013 0.85415 0.0
O242 O 0.97728 0.51514 0.91619 0.0
O243 O 0.99825 0.49133 0.93687 0.0
O244 O 0.99779 0.47357 0.79454 0.0
O245 O 1.00466 0.49515 0.71875 0.0
O246 O 0.96805 0.51219 0.77213 0.0
O247 O 0.97841 0.51948 0.65323 0.0
H248 H 0.05539 0.54908 0.46942 0.0
H249 H 0.09025 0.54093 0.46347 0.0
H250 H 0.07973 0.49035 0.60418 0.0
H251 H 0.04505 0.49767 0.60398 0.0
H252 H 0.9769 0.46093 0.93327 0.0
H253 H 0.94703 0.4419 0.95594 0.0
H254 H 0.92019 0.49263 0.05755 0.0
H255 H 0.95014 0.51168 0.03547 0.0
H256 H 0.20741 0.04093 0.26377 0.0
H257 H 0.17805 0.04725 0.34002 0.0
H258 H 0.15134 0.99425 0.25722 0.0
H259 H 0.18062 0.98777 0.18246 0.0
H260 H 0.1246 0.02576 0.26548 0.0
H261 H 0.17273 0.99317 0.41973 0.0
H262 H 0.20518 0.98963 0.47863 0.0
H263 H 0.19747 0.04507 0.58784 0.0
H264 H 0.16507 0.04907 0.52866 0.0
H265 H 0.04964 1.00511 0.52967 0.0
H266 H 0.07731 1.00506 0.44303 0.0
H267 H 0.10615 0.04974 0.57252 0.0
H268 H 0.07893 0.04901 0.66108 0.0
H269 H 0.13214 0.02523 0.53795 0.0
H270 H 0.08357 0.05778 0.3924 0.0
H271 H 0.05128 0.06249 0.33338 0.0
H272 H 0.05969 0.00983 0.20685 0.0
H273 H 0.09192 1.00464 0.2659 0.0
C274 C 0.19514 0.03082 0.26102 0.0
C275 C 0.1963 0.01387 0.21683 0.0
C276 C 0.1784 0.03438 0.30492 0.0
C277 C 0.16242 0.02118 0.30477 0.0
C278 C 0.16335 1.0047 0.25836 0.0
C279 C 0.18013 1.001 0.21563 0.0
C280 C 0.14514 0.02379 0.35536 0.0
C281 C 0.12621 0.02555 0.32509 0.0
C282 C 0.14718 0.02398 0.43321 0.0
C283 C 0.16659 0.02153 0.4691 0.0
C284 C 0.17803 1.00468 0.4558 0.0
C285 C 0.1964 1.00258 0.48932 0.0
C286 C 0.20341 0.01714 0.53677 0.0
C287 C 0.19204 0.03382 0.55096 0.0
C288 C 0.17367 0.03601 0.51747 0.0
C289 C 0.06179 0.01509 0.53913 0.0
C290 C 0.06205 0.0271 0.60225 0.0
C291 C 0.07764 0.01514 0.48922 0.0
C292 C 0.09395 0.02761 0.49999 0.0
C293 C 0.09392 0.03992 0.56241 0.0
C294 C 0.07826 0.03959 0.61298 0.0
C295 C 0.11136 0.02723 0.4484 0.0
C296 C 0.13038 0.02575 0.47842 0.0
C297 C 0.1094 0.02758 0.37026 0.0
C298 C 0.0901 0.03074 0.33406 0.0
C299 C 0.07849 0.04714 0.35232 0.0
C300 C 0.0602 0.0499 0.31883 0.0
C301 C 0.05342 0.03644 0.26652 0.0
C302 C 0.06495 0.02023 0.24743 0.0
C303 C 0.08324 0.01738 0.28084 0.0
H304 H 0.03925 0.0386 0.24068 0.0
H305 H 0.21764 0.01549 0.56268 0.0
H306 H 0.48961 0.19156 0.14941 0.0
H307 H 0.48499 0.16109 0.22149 0.0
H308 H 0.53943 0.17223 0.33598 0.0
H309 H 0.54441 0.20172 0.26218 0.0
H310 H 0.53906 0.13638 0.31337 0.0
H311 H 0.48962 0.18024 0.40997 0.0
H312 H 0.46059 0.2019 0.40425 0.0
H313 H 0.4256 0.15398 0.32399 0.0
H314 H 0.4545 0.13209 0.32843 0.0
H315 H 0.52159 0.09422 0.67072 0.0
H316 H 0.51921 0.11825 0.57081 0.0
H317 H 0.49523 0.07391 0.42743 0.0
H318 H 0.49823 0.04932 0.52758 0.0
H319 H 0.4775 0.12203 0.45018 0.0
H320 H 0.53006 0.07773 0.36875 0.0
H321 H 0.55946 0.05813 0.39809 0.0
H322 H 0.58978 0.11038 0.46625 0.0
H323 H 0.56018 0.13018 0.44042 0.0
C324 C 0.50057 0.1874 0.18981 0.0
C325 C 0.5174 0.1991 0.19993 0.0
C326 C 0.49789 0.17 0.23156 0.0
C327 C 0.51176 0.16417 0.28547 0.0
C328 C 0.52849 0.17601 0.29492 0.0
C329 C 0.5313 0.19305 0.25267 0.0
C330 C 0.50925 0.14596 0.33268 0.0
C331 C 0.52549 0.13336 0.34272 0.0
C332 C 0.4916 0.14148 0.37142 0.0
C333 C 0.47426 0.15461 0.36861 0.0
C334 C 0.47576 0.17437 0.39057 0.0
C335 C 0.45934 0.18668 0.38765 0.0
C336 C 0.44128 0.17934 0.36352 0.0
C337 C 0.43961 0.15966 0.34248 0.0
C338 C 0.456 0.14729 0.3452 0.0
C339 C 0.51567 0.08949 0.61816 0.0
C340 C 0.51009 0.06976 0.60738 0.0
C341 C 0.51428 0.10333 0.56103 0.0
C342 C 0.50701 0.09799 0.49152 0.0
C343 C 0.50084 0.07842 0.48071 0.0
C344 C 0.50257 0.06436 0.5379 0.0
C345 C 0.50724 0.11283 0.43018 0.0
C346 C 0.49077 0.12489 0.41865 0.0
C347 C 0.52475 0.1171 0.39112 0.0
C348 C 0.54283 0.10538 0.40346 0.0
C349 C 0.54292 0.08501 0.39072 0.0
C350 C 0.55964 0.07387 0.40665 0.0
C351 C 0.57651 0.083 0.43387 0.0
C352 C 0.5767 0.10332 0.44519 0.0
C353 C 0.55993 0.1145 0.43012 0.0
H354 H 0.58944 0.07436 0.44622 0.0
H355 H 0.42858 0.18889 0.36132 0.0
H356 H 0.3196 0.48941 0.22544 0.0
H357 H 0.34838 0.48385 0.30538 0.0
H358 H 0.37312 0.53899 0.23315 0.0
H359 H 0.34438 0.54472 0.1549 0.0
H360 H 0.40142 0.50869 0.24121 0.0
H361 H 0.35002 0.53711 0.39268 0.0
H362 H 0.31672 0.53802 0.44651 0.0
H363 H 0.32656 0.48201 0.54997 0.0
H364 H 0.35983 0.48063 0.49575 0.0
H365 H 0.47316 0.53036 0.51486 0.0
H366 H 0.4461 0.52992 0.42598 0.0
H367 H 0.41836 0.48306 0.54884 0.0
H368 H 0.44497 0.48418 0.63963 0.0
H369 H 0.39129 0.50621 0.51247 0.0
H370 H 0.44262 0.47742 0.37003 0.0
H371 H 0.4755 0.47446 0.31375 0.0
H372 H 0.46589 0.52767 0.19089 0.0
H373 H 0.43305 0.53111 0.24726 0.0
C374 C 0.33133 0.50016 0.22574 0.0
C375 C 0.32975 0.51747 0.18339 0.0
C376 C 0.34775 0.49704 0.27183 0.0
C377 C 0.36302 0.51104 0.27578 0.0
C378 C 0.36169 0.52792 0.23124 0.0
C379 C 0.3452 0.53118 0.18643 0.0
C380 C 0.37994 0.50879 0.32846 0.0
C381 C 0.39923 0.50826 0.30058 0.0
C382 C 0.3772 0.5077 0.406 0.0
C383 C 0.35732 0.50867 0.4395 0.0
C384 C 0.34503 0.52492 0.42646 0.0
C385 C 0.32616 0.52553 0.45709 0.0
C386 C 0.3195 0.51006 0.50145 0.0
C387 C 0.33172 0.49397 0.51548 0.0
C388 C 0.35059 0.49327 0.48484 0.0
C389 C 0.46141 0.5198 0.52247 0.0
C390 C 0.46132 0.50725 0.5844 0.0
C391 C 0.44588 0.51948 0.4712 0.0
C392 C 0.43004 0.50624 0.47924 0.0
C393 C 0.4302 0.49347 0.54066 0.0
C394 C 0.44555 0.49403 0.59254 0.0
C395 C 0.41304 0.50618 0.42556 0.0
C396 C 0.39365 0.50638 0.4532 0.0
C397 C 0.4157 0.50663 0.34764 0.0
C398 C 0.43543 0.50461 0.31342 0.0
C399 C 0.44757 0.48857 0.33141 0.0
C400 C 0.4662 0.48679 0.29944 0.0
C401 C 0.4728 0.50089 0.24891 0.0
C402 C 0.46077 0.51677 0.23011 0.0
C403 C 0.44213 0.51863 0.26201 0.0
H404 H 0.48723 0.4995 0.22422 0.0
H405 H 0.30489 0.51055 0.52507 0.0
H406 H 0.01695 0.31576 0.33753 0.0
H407 H 0.02099 0.34308 0.42549 0.0
H408 H 0.99689 0.38332 0.26526 0.0
H409 H 0.99234 0.3561 0.17852 0.0
H410 H 0.031 0.39859 0.34722 0.0
H411 H 0.96727 0.36791 0.38669 0.0
H412 H 0.94552 0.33969 0.41231 0.0
H413 H 0.97557 0.32905 0.61697 0.0
H414 H 0.99769 0.35707 0.59197 0.0
H415 H 1.0032 0.4803 0.57417 0.0
H416 H 1.0056 0.45363 0.48336 0.0
H417 H 0.01123 0.4115 0.66078 0.0
H418 H 1.00793 0.43794 0.75078 0.0
H419 H 0.9883 0.39654 0.56947 0.0
H420 H 0.05078 0.42723 0.54022 0.0
H421 H 0.07362 0.45487 0.51974 0.0
H422 H 0.04924 0.46436 0.30397 0.0
H423 H 0.026 0.43698 0.32364 0.0
C424 C 0.01284 0.33048 0.32071 0.0
C425 C 1.00437 0.33378 0.25092 0.0
C426 C 0.0151 0.3461 0.37107 0.0
C427 C 0.00926 0.36535 0.35213 0.0
C428 C 1.00163 0.36871 0.28123 0.0
C429 C 0.99899 0.3531 0.23172 0.0
C430 C 0.00955 0.3817 0.40762 0.0
C431 C 0.0216 0.39823 0.39568 0.0
C432 C 0.99764 0.38115 0.47178 0.0
C433 C 0.98427 0.36442 0.48706 0.0
C434 C 0.96934 0.35945 0.43684 0.0
C435 C 0.95693 0.34351 0.4513 0.0
C436 C 0.9592 0.33255 0.51612 0.0
C437 C 0.97386 0.33754 0.56672 0.0
C438 C 0.98633 0.35344 0.55245 0.0
C439 C 1.00516 0.46537 0.59353 0.0
C440 C 1.00546 0.46128 0.66968 0.0
C441 C 1.0066 0.45005 0.54154 0.0
C442 C 0.00885 0.43032 0.56452 0.0
C443 C 0.00944 0.42642 0.64084 0.0
C444 C 1.00764 0.44162 0.69252 0.0
C445 C 0.00989 0.41363 0.51 0.0
C446 C 0.99795 0.39699 0.52172 0.0
C447 C 0.02223 0.41398 0.44657 0.0
C448 C 0.03651 0.43015 0.4337 0.0
C449 C 0.05021 0.43527 0.48853 0.0
C450 C 0.06323 0.4509 0.4771 0.0
C451 C 0.06285 0.4614 0.4107 0.0
C452 C 0.0495 0.45623 0.35544 0.0
C453 C 0.0364 0.44065 0.36668 0.0
H454 H 0.07291 0.47352 0.40203 0.0
H455 H 0.94958 0.32022 0.52722 0.0
H456 H 0.85606 0.99297 0.29622 0.0
H457 H 0.88343 0.99896 0.21104 0.0
H458 H 0.84614 0.03596 0.07787 0.0
H459 H 0.81872 0.03031 0.16437 0.0
H460 H 0.86579 1.00611 0.99753 0.0
H461 H 0.88241 0.0567 0.17155 0.0
H462 H 0.89007 0.07073 0.29367 0.0
H463 H 0.93924 0.03161 0.315 0.0
H464 H 0.93176 0.01719 0.19331 0.0
H465 H 0.93624 0.03701 0.73901 0.0
H466 H 0.91128 0.0358 0.83539 0.0
H467 H 0.95281 1.00864 0.98367 0.0
H468 H 0.97831 0.01071 0.88713 0.0
H469 H 0.93128 0.0335 0.05915 0.0
H470 H 0.91528 0.98188 0.89284 0.0
H471 H 0.90849 0.96622 0.77285 0.0
H472 H 0.85881 1.0042 0.74119 0.0
H473 H 0.86546 0.02028 0.8606 0.0
C474 C 0.8538 1.00272 0.24958 0.0
C475 C 0.83525 0.01127 0.23741 0.0
C476 C 0.86949 1.00615 0.2009 0.0
C477 C 0.86698 0.01799 0.13795 0.0
C478 C 0.84852 0.02684 0.12617 0.0
C479 C 0.83286 0.02369 0.17584 0.0
C480 C 0.88317 0.01983 0.08203 0.0
C481 C 0.87999 0.01243 0.01068 0.0
C482 C 0.90205 0.02726 0.09983 0.0
C483 C 0.90638 0.0357 0.1736 0.0
C484 C 0.89473 0.05093 0.20261 0.0
C485 C 0.89908 0.059 0.27167 0.0
C486 C 0.91508 0.05201 0.31219 0.0
C487 C 0.92682 0.03698 0.28363 0.0
C488 C 0.92255 0.02887 0.21456 0.0
C489 C 0.94015 0.03076 0.79211 0.0
C490 C 0.95926 0.02368 0.80489 0.0
C491 C 0.92574 0.02997 0.84734 0.0
C492 C 0.92982 0.02166 0.91683 0.0
C493 C 0.9491 0.01498 0.93055 0.0
C494 C 0.96369 0.01603 0.87519 0.0
C495 C 0.91385 0.01995 0.97413 0.0
C496 C 0.91707 0.02723 0.0458 0.0
C497 C 0.89506 0.01206 0.9572 0.0
C498 C 0.89098 1.00241 0.88538 0.0
C499 C 0.90299 0.98699 0.86005 0.0
C500 C 0.89915 0.97802 0.79217 0.0
C501 C 0.88326 0.98424 0.74934 0.0
C502 C 0.87113 0.99941 0.77439 0.0
C503 C 0.87492 1.00845 0.8422 0.0
H504 H 0.88031 0.97728 0.6968 0.0
H505 H 0.91843 0.05828 0.36563 0.0
H506 H 0.49948 0.83889 0.24034 0.0
H507 H 0.49459 0.86836 0.16296 0.0
H508 H 0.55704 0.8713 0.12303 0.0
H509 H 0.5619 0.84252 0.20122 0.0
H510 H 0.54508 0.90657 0.13837 0.0
H511 H 0.52197 0.85128 0.99564 0.0
H512 H 0.50108 0.82237 0.97133 0.0
H513 H 0.44944 0.85839 0.98729 0.0
H514 H 0.47003 0.88747 0.01267 0.0
H515 H 0.52036 0.94118 0.73312 0.0
H516 H 0.52338 0.91654 0.83044 0.0
H517 H 0.51859 0.96198 0.99532 0.0
H518 H 0.5157 0.9868 0.89686 0.0
H519 H 0.49925 0.90422 0.92625 0.0
H520 H 0.53707 0.94785 0.15474 0.0
H521 H 0.5631 0.9725 0.17597 0.0
H522 H 0.5919 0.95482 0.97563 0.0
H523 H 0.56572 0.93054 0.95211 0.0
C524 C 0.51214 0.84598 0.21562 0.0
C525 C 0.5311 0.83831 0.22705 0.0
C526 C 0.50935 0.8628 0.17084 0.0
C527 C 0.52542 0.87216 0.13584 0.0
C528 C 0.54432 0.86463 0.14904 0.0
C529 C 0.54709 0.84803 0.19379 0.0
C530 C 0.52292 0.88934 0.08369 0.0
C531 C 0.53489 0.90606 0.0924 0.0
C532 C 0.50989 0.88889 0.02265 0.0
C533 C 0.49751 0.87148 0.00686 0.0
C534 C 0.50615 0.853 0.99441 0.0
C535 C 0.49437 0.83659 0.9804 0.0
C536 C 0.47394 0.83853 0.97798 0.0
C537 C 0.46526 0.8569 0.98934 0.0
C538 C 0.47697 0.87335 0.00352 0.0
C539 C 0.52018 0.94602 0.7901 0.0
C540 C 0.51805 0.9661 0.80685 0.0
C541 C 0.52184 0.93183 0.84608 0.0
C542 C 0.5213 0.93714 0.92115 0.0
C543 C 0.51944 0.9573 0.93828 0.0
C544 C 0.51784 0.9716 0.88179 0.0
C545 C 0.52173 0.92133 0.97998 0.0
C546 C 0.50926 0.90489 0.97275 0.0
C547 C 0.53466 0.92181 0.04135 0.0
C548 C 0.54932 0.93763 0.05121 0.0
C549 C 0.5488 0.94948 0.11467 0.0
C550 C 0.56354 0.9634 0.12699 0.0
C551 C 0.57903 0.96537 0.07677 0.0
C552 C 0.57972 0.95354 0.01379 0.0
C553 C 0.56485 0.93981 1.0006 0.0
H554 H 0.59057 0.97593 0.08715 0.0
H555 H 0.46484 0.82582 0.96713 0.0
H556 H 0.71139 0.5251 0.0525 0.0
H557 H 0.6792 0.52725 0.99485 0.0
H558 H 0.65149 0.52108 0.20807 0.0
H559 H 0.68421 0.51866 0.26667 0.0
H560 H 0.63213 0.49898 0.10305 0.0
H561 H 0.65154 0.56566 0.12141 0.0
H562 H 0.67343 0.59443 0.11187 0.0
H563 H 0.67706 0.58684 0.87678 0.0
H564 H 0.65541 0.55783 0.88496 0.0
H565 H 0.54258 0.51984 0.89268 0.0
H566 H 0.56819 0.52304 0.98864 0.0
H567 H 0.61262 0.52569 0.81881 0.0
H568 H 0.58747 0.5224 0.72434 0.0
H569 H 0.6193 0.5531 0.92535 0.0
H570 H 0.60181 0.48403 0.91296 0.0
H571 H 0.57788 0.45703 0.9237 0.0
H572 H 0.56944 0.47025 0.15348 0.0
H573 H 0.59272 0.49796 0.14325 0.0
C574 C 0.69849 0.52435 0.08756 0.0
C575 C 0.70048 0.52191 0.16439 0.0
C576 C 0.67998 0.52562 0.05434 0.0
C577 C 0.66268 0.52464 0.09672 0.0
C578 C 0.66452 0.52199 0.17383 0.0
C579 C 0.68325 0.52074 0.20745 0.0
C580 C 0.64303 0.52634 0.05886 0.0
C581 C 0.62916 0.51106 0.06547 0.0
C582 C 0.63891 0.54201 0.00929 0.0
C583 C 0.65193 0.55948 0.0039 0.0
C584 C 0.65711 0.57004 0.06771 0.0
C585 C 0.66946 0.5864 0.06254 0.0
C586 C 0.67665 0.59244 0.99378 0.0
C587 C 0.67147 0.58214 0.93002 0.0
C588 C 0.65914 0.56575 0.93488 0.0
C589 C 0.55778 0.52129 0.87614 0.0
C590 C 0.56292 0.52083 0.80073 0.0
C591 C 0.57247 0.52304 0.93098 0.0
C592 C 0.59251 0.52453 0.91133 0.0
C593 C 0.5974 0.52462 0.83594 0.0
C594 C 0.5829 0.52267 0.78175 0.0
C595 C 0.60877 0.52546 0.96753 0.0
C596 C 0.62207 0.54124 0.96411 0.0
C597 C 0.61219 0.51036 0.02031 0.0
C598 C 0.5988 0.49325 0.02708 0.0
C599 C 0.59474 0.4813 0.96566 0.0
C600 C 0.58128 0.46586 0.97165 0.0
C601 C 0.57215 0.46189 0.03927 0.0
C602 C 0.57649 0.47336 0.10108 0.0
C603 C 0.58976 0.489 0.09514 0.0
H604 H 0.56172 0.44994 0.04379 0.0
H605 H 0.68621 0.60512 0.9899 0.0
H606 H 1.00706 0.69632 0.26744 0.0
H607 H 0.0128 0.66629 0.19482 0.0
H608 H 0.95554 0.67263 0.09539 0.0
H609 H 0.9495 0.70165 0.17038 0.0
H610 H 0.95932 0.63706 0.11796 0.0
H611 H 1.00297 0.68416 0.00686 0.0
H612 H 0.02986 0.70846 1.00297 0.0
H613 H 0.07056 0.66459 0.07841 0.0
H614 H 0.04384 0.64009 0.08364 0.0
H615 H 0.97384 0.58232 0.78299 0.0
H616 H 0.97105 0.60945 0.87168 0.0
H617 H 0.01599 0.58295 0.00647 0.0
H618 H 0.01844 0.55545 0.91893 0.0
H619 H 0.02025 0.62642 0.97291 0.0
H620 H 0.97434 0.57882 0.07121 0.0
H621 H 0.94658 0.55571 0.06041 0.0
H622 H 0.90879 0.60298 0.99287 0.0
H623 H 0.93643 0.62633 1.00218 0.0
C624 C 0.99575 0.69122 0.23013 0.0
C625 C 0.97782 0.7014 0.22474 0.0
C626 C 0.99906 0.67407 0.18803 0.0
C627 C 0.98472 0.66704 0.13817 0.0
C628 C 0.96689 0.67739 0.13322 0.0
C629 C 0.96346 0.69415 0.1761 0.0
C630 C 0.98787 0.64898 0.09116 0.0
C631 C 0.97264 0.63498 0.08599 0.0
C632 C 1.0053 0.64569 0.04956 0.0
C633 C 0.02137 0.66037 0.0465 0.0
C634 C 0.01763 0.67974 0.02315 0.0
C635 C 0.03284 0.69354 0.02062 0.0
C636 C 0.05189 0.68809 0.04066 0.0
C637 C 0.05579 0.66881 0.06307 0.0
C638 C 0.04062 0.65496 0.0658 0.0
C639 C 0.98304 0.58219 0.83177 0.0
C640 C 0.99632 0.56667 0.84391 0.0
C641 C 0.98147 0.59774 0.88238 0.0
C642 C 0.99338 0.59835 0.94576 0.0
C643 C 1.00671 0.58289 0.95792 0.0
C644 C 1.008 0.56711 0.90805 0.0
C645 C 0.99163 0.615 0.99942 0.0
C646 C 1.00707 0.62862 0.00562 0.0
C647 C 0.97425 0.61822 0.04062 0.0
C648 C 0.9575 0.6043 0.03684 0.0
C649 C 0.96014 0.58427 0.05362 0.0
C650 C 0.94443 0.57113 0.04783 0.0
C651 C 0.92594 0.57787 0.02583 0.0
C652 C 0.92312 0.59778 0.00988 0.0
C653 C 0.9388 0.61098 0.01549 0.0
H654 H 0.9138 0.56767 0.02125 0.0
H655 H 0.06365 0.69879 0.03865 0.0
H656 H 0.93731 0.25111 0.07666 0.0
H657 H 0.91688 0.22317 0.11233 0.0
H658 H 0.93905 0.22707 0.3349 0.0
H659 H 0.95933 0.2549 0.29937 0.0
H660 H 0.94293 0.19499 0.14245 0.0
H661 H 0.91572 0.19654 0.44949 0.0
H662 H 0.89436 0.21703 0.52786 0.0
H663 H 0.86391 0.23799 0.33565 0.0
H664 H 0.88487 0.2174 0.25604 0.0
H665 H 0.98166 0.12769 0.3896 0.0
H666 H 0.96762 0.15705 0.33249 0.0
H667 H 0.91306 0.1263 0.29669 0.0
H668 H 0.92722 0.09654 0.35352 0.0
H669 H 0.91196 0.16735 0.36805 0.0
H670 H 0.93405 0.13291 0.15099 0.0
H671 H 0.95762 0.11369 0.0767 0.0
H672 H 0.9999 0.16026 0.09291 0.0
H673 H 0.97667 0.17978 0.16731 0.0
C674 C 0.93671 0.24688 0.13439 0.0
C675 C 0.95032 0.25467 0.1848 0.0
C676 C 0.92507 0.23083 0.15471 0.0
C677 C 0.9269 0.22264 0.22566 0.0
C678 C 0.93742 0.23304 0.2797 0.0
C679 C 0.94905 0.24908 0.25935 0.0
C680 C 0.92422 0.20116 0.236 0.0
C681 C 0.93563 0.18888 0.19066 0.0
C682 C 0.91476 0.19314 0.29883 0.0
C683 C 0.90193 0.20539 0.34666 0.0
C684 C 0.90437 0.20537 0.42386 0.0
C685 C 0.89235 0.21705 0.46854 0.0
C686 C 0.8778 0.22881 0.43676 0.0
C687 C 0.87522 0.2289 0.3602 0.0
C688 C 0.88719 0.21725 0.31525 0.0
C689 C 0.96665 0.12719 0.36984 0.0
C690 C 0.95547 0.10993 0.37622 0.0
C691 C 0.95869 0.1439 0.33698 0.0
C692 C 0.93936 0.14374 0.31038 0.0
C693 C 0.92802 0.12661 0.31694 0.0
C694 C 0.93612 0.10969 0.349 0.0
C695 C 0.93141 0.16183 0.27657 0.0
C696 C 0.91835 0.1734 0.31797 0.0
C697 C 0.9396 0.1694 0.21064 0.0
C698 C 0.95359 0.15778 0.16508 0.0
C699 C 0.9484 0.13903 0.13899 0.0
C700 C 0.9617 0.12811 0.09667 0.0
C701 C 0.98025 0.13577 0.08017 0.0
C702 C 0.98551 0.15441 0.10553 0.0
C703 C 0.97226 0.16542 0.14759 0.0
H704 H 0.99058 0.12727 0.04783 0.0
H705 H 0.86852 0.23785 0.47145 0.0
H706 H 0.26674 0.96 0.27495 0.0
H707 H 0.28607 0.93976 0.36102 0.0
H708 H 0.32209 0.99029 0.41121 0.0
H709 H 0.3027 0.01023 0.3273 0.0
H710 H 0.32185 0.93181 0.33096 0.0
H711 H 0.34618 0.98896 0.55836 0.0
H712 H 0.33006 0.01099 0.6475 0.0
H713 H 0.27737 0.97644 0.63635 0.0
H714 H 0.29323 0.95397 0.54783 0.0
H715 H 0.41743 0.95677 0.33698 0.0
H716 H 0.38305 0.94782 0.33443 0.0
H717 H 0.38538 0.93229 0.56583 0.0
H718 H 0.41954 0.94299 0.57019 0.0
H719 H 0.35781 0.95544 0.55134 0.0
H720 H 0.36995 0.8972 0.42459 0.0
H721 H 0.38568 0.87434 0.33708 0.0
H722 H 0.36431 0.90855 0.15445 0.0
H723 H 0.34867 0.93175 0.24062 0.0
C724 C 0.27822 0.96683 0.30733 0.0
C725 C 0.28339 0.98654 0.29501 0.0
C726 C 0.28927 0.95531 0.35618 0.0
C727 C 0.30548 0.96347 0.39318 0.0
C728 C 0.3094 0.98366 0.38521 0.0
C729 C 0.29844 0.99507 0.33667 0.0
C730 C 0.32091 0.95082 0.42602 0.0
C731 C 0.32953 0.93658 0.38018 0.0
C732 C 0.33047 0.95623 0.49223 0.0
C733 C 0.32098 0.96964 0.5465 0.0
C734 C 0.33124 0.98586 0.57549 0.0
C735 C 0.32212 0.99849 0.62577 0.0
C736 C 0.30272 0.99509 0.64771 0.0
C737 C 0.2924 0.97906 0.61931 0.0
C738 C 0.30144 0.96638 0.56896 0.0
C739 C 0.41075 0.9512 0.3872 0.0
C740 C 0.42116 0.95109 0.4541 0.0
C741 C 0.39107 0.94562 0.38538 0.0
C742 C 0.38149 0.93916 0.44992 0.0
C743 C 0.3924 0.93721 0.5153 0.0
C744 C 0.41203 0.94321 0.51751 0.0
C745 C 0.35967 0.93837 0.45126 0.0
C746 C 0.34983 0.9499 0.50401 0.0
C747 C 0.34887 0.93022 0.39204 0.0
C748 C 0.35799 0.91616 0.33935 0.0
C749 C 0.36861 0.89987 0.36578 0.0
C750 C 0.37753 0.88685 0.31635 0.0
C751 C 0.37595 0.88996 0.24026 0.0
C752 C 0.36544 0.90609 0.2134 0.0
C753 C 0.35646 0.91914 0.26255 0.0
H754 H 0.3829 0.87988 0.2021 0.0
H755 H 0.29569 1.0049 0.68662 0.0
H756 H 0.48917 0.30661 0.29295 0.0
H757 H 0.50426 0.32614 0.39062 0.0
H758 H 0.55249 0.28522 0.40219 0.0
H759 H 0.53759 0.26564 0.30423 0.0
H760 H 0.53854 0.31395 0.54543 0.0
H761 H 0.56606 0.31005 0.28919 0.0
H762 H 0.56031 0.30698 0.15502 0.0
H763 H 0.5225 0.35747 0.16022 0.0
H764 H 0.52774 0.36058 0.29475 0.0
H765 H 0.59177 0.41599 0.44901 0.0
H766 H 0.59089 0.37998 0.44277 0.0
H767 H 0.5393 0.37978 0.58258 0.0
H768 H 0.5413 0.41522 0.59354 0.0
H769 H 0.56369 0.36501 0.37317 0.0
H770 H 0.52454 0.33679 0.64075 0.0
H771 H 0.52691 0.34166 0.77505 0.0
H772 H 0.58761 0.35775 0.75281 0.0
H773 H 0.58579 0.35255 0.6182 0.0
C774 C 0.50255 0.30133 0.3186 0.0
C775 C 0.51251 0.28497 0.28993 0.0
C776 C 0.51101 0.31233 0.37498 0.0
C777 C 0.52953 0.30714 0.40263 0.0
C778 C 0.53811 0.2893 0.3817 0.0
C779 C 0.52962 0.27822 0.32534 0.0
C780 C 0.54203 0.32287 0.43217 0.0
C781 C 0.54441 0.32508 0.50852 0.0
C782 C 0.54989 0.33698 0.38311 0.0
C783 C 0.54722 0.33547 0.30191 0.0
C784 C 0.55646 0.32043 0.26171 0.0
C785 C 0.55329 0.31869 0.18566 0.0
C786 C 0.54108 0.33205 0.14913 0.0
C787 C 0.53198 0.34716 0.18859 0.0
C788 C 0.53504 0.34891 0.2647 0.0
C789 C 0.58089 0.40802 0.48094 0.0
C790 C 0.56658 0.41813 0.52144 0.0
C791 C 0.58035 0.38752 0.47753 0.0
C792 C 0.56503 0.37703 0.51218 0.0
C793 C 0.55162 0.38724 0.55702 0.0
C794 C 0.5526 0.40759 0.56252 0.0
C795 C 0.56024 0.35678 0.48803 0.0
C796 C 0.55893 0.35368 0.41152 0.0
C797 C 0.5535 0.34199 0.53749 0.0
C798 C 0.55502 0.34427 0.61903 0.0
C799 C 0.53849 0.34111 0.66442 0.0
C800 C 0.53971 0.34402 0.74071 0.0
C801 C 0.55739 0.35005 0.77252 0.0
C802 C 0.57392 0.3531 0.72808 0.0
C803 C 0.5728 0.35017 0.65173 0.0
H804 H 0.55829 0.35234 0.83157 0.0
H805 H 0.53866 0.3307 0.09029 0.0
H806 H 0.22971 0.54755 0.29984 0.0
H807 H 0.21265 0.54338 0.41756 0.0
H808 H 0.24397 0.48917 0.45568 0.0
H809 H 0.26133 0.49349 0.33824 0.0
H810 H 0.20414 0.48534 0.42437 0.0
H811 H 0.24256 0.51907 0.60013 0.0
H812 H 0.2636 0.54578 0.64689 0.0
H813 H 0.21626 0.58689 0.62047 0.0
H814 H 0.19493 0.56047 0.57347 0.0
H815 H 0.10914 0.48116 0.56129 0.0
H816 H 0.14442 0.47767 0.57616 0.0
H817 H 0.15161 0.54016 0.54371 0.0
H818 H 0.11638 0.5442 0.53952 0.0
H819 H 0.17982 0.52924 0.62271 0.0
H820 H 0.15103 0.50317 0.39373 0.0
H821 H 0.1296 0.48082 0.3229 0.0
H822 H 0.15811 0.4309 0.42123 0.0
H823 H 0.17959 0.45301 0.49305 0.0
C824 C 0.23358 0.53524 0.33503 0.0
C825 C 0.24649 0.52067 0.30984 0.0
C826 C 0.22403 0.53296 0.40269 0.0
C827 C 0.22705 0.51592 0.44522 0.0
C828 C 0.24161 0.50249 0.42397 0.0
C829 C 0.25141 0.50493 0.35674 0.0
C830 C 0.21114 0.50967 0.49553 0.0
C831 C 0.19912 0.49442 0.46993 0.0
C832 C 0.20454 0.52179 0.55366 0.0
C833 C 0.21712 0.53773 0.58342 0.0
C834 C 0.23664 0.53381 0.60421 0.0
C835 C 0.24861 0.54891 0.63084 0.0
C836 C 0.24127 0.56802 0.63671 0.0
C837 C 0.22192 0.57207 0.61602 0.0
C838 C 0.20984 0.55701 0.5898 0.0
C839 C 0.11807 0.49431 0.55967 0.0
C840 C 0.1097 0.51295 0.5466 0.0
C841 C 0.13837 0.49222 0.56756 0.0
C842 C 0.1508 0.50853 0.55854 0.0
C843 C 0.14244 0.52725 0.55021 0.0
C844 C 0.12216 0.52946 0.54548 0.0
C845 C 0.17223 0.50615 0.54632 0.0
C846 C 0.18522 0.51953 0.57975 0.0
C847 C 0.17954 0.49298 0.4923 0.0
C848 C 0.16666 0.47969 0.44945 0.0
C849 C 0.15263 0.48742 0.40042 0.0
C850 C 0.14049 0.47481 0.36014 0.0
C851 C 0.14243 0.45445 0.36782 0.0
C852 C 0.15657 0.44667 0.41557 0.0
C853 C 0.16872 0.45922 0.45609 0.0
H854 H 0.13303 0.44471 0.33658 0.0
H855 H 0.25056 0.57969 0.65727 0.0
H856 H 0.99677 0.76296 0.06371 0.0
H857 H 0.9973 0.77806 0.94112 0.0
H858 H 0.95817 0.82355 0.01845 0.0
H859 H 0.95656 0.80787 0.13895 0.0
H860 H 0.95567 0.82046 0.87076 0.0
H861 H 0.01094 0.82431 0.05915 0.0
H862 H 0.03719 0.80756 0.12924 0.0
H863 H 0.05997 0.78312 0.92788 0.0
H864 H 0.03371 0.79964 0.85689 0.0
H865 H 0.98294 0.91442 0.94112 0.0
H866 H 0.9736 0.88035 0.92207 0.0
H867 H 0.02325 0.87231 0.7765 0.0
H868 H 0.03258 0.90672 0.79469 0.0
H869 H 0.02355 0.84666 0.88319 0.0
H870 H 0.97695 0.86693 0.71475 0.0
H871 H 0.95069 0.88586 0.65488 0.0
H872 H 0.91015 0.86782 0.82395 0.0
H873 H 0.93624 0.84891 0.88536 0.0
C874 C 0.98757 0.77567 0.0536 0.0
C875 C 0.97721 0.78472 0.1117 0.0
C876 C 0.98791 0.78429 0.98339 0.0
C877 C 0.97834 0.80229 0.97136 0.0
C878 C 0.96588 0.80977 0.02648 0.0
C879 C 0.96527 0.80101 0.09599 0.0
C880 C 0.98485 0.81596 0.91244 0.0
C881 C 0.97052 0.82618 0.87196 0.0
C882 C 1.00453 0.8227 0.91082 0.0
C883 C 0.02037 0.81301 0.95307 0.0
C884 C 0.02158 0.81536 0.03004 0.0
C885 C 0.03641 0.80589 0.06986 0.0
C886 C 0.05022 0.79425 0.03304 0.0
C887 C 0.04924 0.7921 0.95631 0.0
C888 C 0.03439 0.80149 0.91627 0.0
C889 C 0.9916 0.90556 0.90356 0.0
C890 C 1.00859 0.91315 0.87001 0.0
C891 C 0.98613 0.88611 0.89206 0.0
C892 C 0.9975 0.87387 0.84659 0.0
C893 C 0.01414 0.88158 0.81096 0.0
C894 C 0.0196 0.90112 0.82234 0.0
C895 C 0.99384 0.85247 0.84846 0.0
C896 C 0.00883 0.84072 0.87764 0.0
C897 C 0.97468 0.84464 0.84044 0.0
C898 C 0.95868 0.8561 0.8041 0.0
C899 C 0.96246 0.86686 0.73908 0.0
C900 C 0.94758 0.87768 0.70492 0.0
C901 C 0.92872 0.87797 0.73536 0.0
C902 C 0.92475 0.86747 0.80012 0.0
C903 C 0.93961 0.85661 0.83447 0.0
H904 H 0.91719 0.88638 0.70893 0.0
H905 H 0.06169 0.78692 0.06394 0.0
H906 H 0.74595 0.94227 0.25234 0.0
H907 H 0.72266 0.9295 0.16138 0.0
H908 H 0.7321 0.9816 0.02836 0.0
H909 H 0.75655 0.99279 0.1138 0.0
H910 H 0.69113 0.94308 0.15193 0.0
H911 H 0.71422 0.98775 0.88607 0.0
H912 H 0.74173 0.98779 0.79688 0.0
H913 H 0.75632 0.92866 0.85909 0.0
H914 H 0.72868 0.92812 0.9474 0.0
H915 H 0.6186 1.00586 0.07032 0.0
H916 H 0.64953 0.98918 0.09107 0.0
H917 H 0.64573 0.96209 0.87619 0.0
H918 H 0.61547 0.98027 0.85187 0.0
H919 H 0.68175 0.96956 0.89896 0.0
H920 H 0.63586 0.93498 0.035 0.0
H921 H 0.60711 0.92893 0.1148 0.0
H922 H 0.63709 0.95519 0.29815 0.0
H923 H 0.66589 0.96183 0.21925 0.0
C924 C 0.74393 0.95015 0.20082 0.0
C925 C 0.75291 0.96849 0.1898 0.0
C926 C 0.73043 0.94302 0.14915 0.0
C927 C 0.72514 0.95459 0.08764 0.0
C928 C 0.73598 0.97182 0.07316 0.0
C929 C 0.75001 0.97845 0.12295 0.0
C930 C 0.7057 0.95195 0.05087 0.0
C931 C 0.6892 0.94837 0.09592 0.0
C932 C 0.70267 0.95755 0.97631 0.0
C933 C 0.71914 0.9578 0.92233 0.0
C934 C 0.72302 0.97461 0.87941 0.0
C935 C 0.73872 0.97478 0.82948 0.0
C936 C 0.75068 0.95821 0.82204 0.0
C937 C 0.74701 0.94147 0.86474 0.0
C938 C 0.73134 0.94124 0.91479 0.0
C939 C 0.62445 0.99674 0.02652 0.0
C940 C 0.61432 0.99437 0.95957 0.0
C941 C 0.64202 0.98685 0.03911 0.0
C942 C 0.64966 0.97381 0.98619 0.0
C943 C 0.63998 0.97181 0.91833 0.0
C944 C 0.62253 0.98207 0.90496 0.0
C945 C 0.66785 0.96263 1.00302 0.0
C946 C 0.68381 0.96346 0.95379 0.0
C947 C 0.67023 0.95315 0.07209 0.0
C948 C 0.65312 0.94887 0.12098 0.0
C949 C 0.63633 0.93954 0.09228 0.0
C950 C 0.61999 0.93606 0.13733 0.0
C951 C 0.62024 0.94176 0.21139 0.0
C952 C 0.6369 0.95085 0.24068 0.0
C953 C 0.65327 0.95443 0.19584 0.0
H954 H 0.60755 0.9391 0.24613 0.0
H955 H 0.76284 0.95838 0.78343 0.0
H956 H 0.50497 0.77268 0.07503 0.0
H957 H 0.50385 0.75636 0.95455 0.0
H958 H 0.5491 0.71616 0.02627 0.0
H959 H 0.55079 0.73283 0.14477 0.0
H960 H 0.55096 0.72077 0.88051 0.0
H961 H 0.49958 0.7076 0.06835 0.0
H962 H 0.47197 0.71805 0.14768 0.0
H963 H 0.44093 0.73918 0.95692 0.0
H964 H 0.4685 0.729 0.87664 0.0
H965 H 0.53328 0.62293 0.91233 0.0
H966 H 0.54023 0.65771 0.9012 0.0
H967 H 0.48889 0.66533 0.76449 0.0
H968 H 0.48148 0.63029 0.77747 0.0
H969 H 0.48653 0.68678 0.88061 0.0
H970 H 0.53932 0.69074 0.69172 0.0
H971 H 0.56983 0.68109 0.62666 0.0
H972 H 0.59923 0.67355 0.83407 0.0
H973 H 0.56939 0.68433 0.9002 0.0
C974 C 0.51518 0.76084 0.06381 0.0
C975 C 0.5276 0.75359 0.1196 0.0
C976 C 0.51451 0.75153 0.9951 0.0
C977 C 0.52607 0.73479 0.98216 0.0
C978 C 0.53998 0.729 0.03506 0.0
C979 C 0.54075 0.73834 0.1032 0.0
C980 C 0.52134 0.72086 0.92227 0.0
C981 C 0.53676 0.71354 0.87894 0.0
C982 C 0.50269 0.71173 0.91888 0.0
C983 C 0.48613 0.7178 0.9668 0.0
C984 C 0.48689 0.71456 0.0435 0.0
C985 C 0.47126 0.72042 0.08858 0.0
C986 C 0.45473 0.72933 0.05738 0.0
C987 C 0.45377 0.73234 0.98101 0.0
C988 C 0.46939 0.72654 0.93571 0.0
C989 C 0.52377 0.63184 0.87798 0.0
C990 C 0.50673 0.62386 0.84634 0.0
C991 C 0.52797 0.65178 0.87047 0.0
C992 C 0.51537 0.6642 0.83041 0.0
C993 C 0.49897 0.65603 0.79488 0.0
C994 C 0.49461 0.63606 0.80319 0.0
C995 C 0.51662 0.68569 0.84278 0.0
C996 C 0.50042 0.69458 0.87738 0.0
C997 C 0.5347 0.69591 0.83982 0.0
C998 C 0.55209 0.68805 0.80075 0.0
C999 C 0.55225 0.68686 0.72336 0.0
C1000 C 0.56946 0.6814 0.68632 0.0
C1001 C 0.58632 0.67647 0.72616 0.0
C1002 C 0.58614 0.6773 0.80323 0.0
C1003 C 0.56919 0.68331 0.84047 0.0
H1004 H 0.59954 0.67208 0.69725 0.0
H1005 H 0.44263 0.73385 0.09234 0.0
H1006 H 0.77426 0.48206 0.12891 0.0
H1007 H 0.79714 0.46112 0.06322 0.0
H1008 H 0.79706 0.42018 0.24623 0.0
H1009 H 0.77492 0.44206 0.31405 0.0
H1010 H 0.83095 0.4312 0.22986 0.0
H1011 H 0.78878 0.40503 0.05457 0.0
H1012 H 0.76152 0.4027 0.96566 0.0
H1013 H 0.78986 0.44493 0.82466 0.0
H1014 H 0.81714 0.44781 0.91309 0.0
H1015 H 0.92488 0.42902 0.06374 0.0
H1016 H 0.89289 0.4134 0.08725 0.0
H1017 H 0.8637 0.46324 0.98839 0.0
H1018 H 0.89541 0.47869 0.96454 0.0
H1019 H 0.84402 0.42793 0.96072 0.0
H1020 H 0.87539 0.4633 0.16705 0.0
H1021 H 0.90111 0.4682 0.26096 0.0
H1022 H 0.89094 0.40999 0.34515 0.0
H1023 H 0.86528 0.40469 0.25094 0.0
C1024 C 0.77842 0.46815 0.15363 0.0
C1025 C 0.77307 0.46372 0.22657 0.0
C1026 C 0.79144 0.45598 0.1157 0.0
C1027 C 0.799 0.43892 0.1495 0.0
C1028 C 0.79159 0.43328 0.21899 0.0
C1029 C 0.77892 0.44573 0.2577 0.0
C1030 C 0.81775 0.43049 0.12141 0.0
C1031 C 0.8336 0.42974 0.17102 0.0
C1032 C 0.82144 0.42824 0.04483 0.0
C1033 C 0.80512 0.42656 0.99066 0.0
C1034 C 0.78919 0.41389 0.00477 0.0
C1035 C 0.77371 0.41248 0.95439 0.0
C1036 C 0.77397 0.42364 0.88951 0.0
C1037 C 0.78971 0.43624 0.87484 0.0
C1038 C 0.80523 0.43772 0.92501 0.0
C1039 C 0.91161 0.43636 0.04566 0.0
C1040 C 0.91248 0.45522 0.01392 0.0
C1041 C 0.89341 0.42741 0.05874 0.0
C1042 C 0.87596 0.43722 0.03983 0.0
C1043 C 0.87698 0.45537 1.00307 0.0
C1044 C 0.89507 0.46433 0.99053 0.0
C1045 C 0.8567 0.43077 0.0689 0.0
C1046 C 0.84099 0.42845 0.01953 0.0
C1047 C 0.853 0.43043 0.14576 0.0
C1048 C 0.86873 0.43345 0.2011 0.0
C1049 C 0.87886 0.45144 0.20486 0.0
C1050 C 0.89337 0.45432 0.2583 0.0
C1051 C 0.89775 0.43937 0.30872 0.0
C1052 C 0.8876 0.42152 0.30584 0.0
C1053 C 0.87308 0.41857 0.25242 0.0
H1054 H 0.90894 0.44164 0.35023 0.0
H1055 H 0.76196 0.42253 0.85062 0.0
H1056 H 0.0204 0.21962 0.15558 0.0
H1057 H 0.02567 0.18792 0.09464 0.0
H1058 H 1.00497 0.21259 0.88928 0.0
H1059 H 0.99942 0.24416 0.95094 0.0
H1060 H 0.98611 0.17988 0.91541 0.0
H1061 H 0.05462 0.19728 0.91931 0.0
H1062 H 0.0857 0.20795 0.97643 0.0
H1063 H 0.08443 0.15783 0.12106 0.0
H1064 H 0.0532 0.14699 0.06542 0.0
H1065 H 1.00479 0.0949 0.69356 0.0
H1066 H 1.00532 0.12805 0.74648 0.0
H1067 H 0.02429 0.10416 0.95531 0.0
H1068 H 0.02403 0.07115 0.90286 0.0
H1069 H 0.04455 0.13652 0.92644 0.0
H1070 H 0.97663 0.1189 0.92398 0.0
H1071 H 0.94513 0.10813 0.87106 0.0
H1072 H 0.94477 0.15834 0.72683 0.0
H1073 H 0.97641 0.16936 0.77854 0.0
C1074 C 0.01792 0.21852 0.09662 0.0
C1075 C 0.01013 0.23462 0.05755 0.0
C1076 C 0.02071 0.20027 0.06175 0.0
C1077 C 0.01576 0.19764 0.9868 0.0
C1078 C 0.00893 0.21406 0.94695 0.0
C1079 C 1.0061 0.23226 0.98188 0.0
C1080 C 0.01615 0.17759 0.95156 0.0
C1081 C 0.99906 0.17061 0.91658 0.0
C1082 C 0.0327 0.16495 0.9552 0.0
C1083 C 0.05149 0.17142 0.9886 0.0
C1084 C 0.0609 0.18861 0.96365 0.0
C1085 C 0.07855 0.19468 0.9957 0.0
C1086 C 0.08701 0.1836 0.05245 0.0
C1087 C 0.07785 0.16641 0.07715 0.0
C1088 C 0.06019 0.16028 0.04531 0.0
C1089 C 0.00912 0.09667 0.7507 0.0
C1090 C 0.01434 0.08017 0.79364 0.0
C1091 C 0.00933 0.1157 0.78115 0.0
C1092 C 0.01469 0.11878 0.85545 0.0
C1093 C 0.02013 0.10235 0.89798 0.0
C1094 C 0.0199 0.08336 0.86771 0.0
C1095 C 0.01463 0.139 0.88912 0.0
C1096 C 0.03168 0.14591 0.92447 0.0
C1097 C 0.998 0.15154 0.88617 0.0
C1098 C 0.979 0.14488 0.85479 0.0
C1099 C 0.96992 0.12761 0.88074 0.0
C1100 C 0.95201 0.12146 0.85099 0.0
C1101 C 0.94297 0.13251 0.79549 0.0
C1102 C 0.9518 0.14978 0.76977 0.0
C1103 C 0.96971 0.156 0.79935 0.0
H1104 H 0.92911 0.12772 0.7725 0.0
H1105 H 0.10068 0.18832 0.07719 0.0
H1106 H 0.30241 0.98417 0.03251 0.0
H1107 H 0.33357 0.98722 0.96601 0.0
H1108 H 0.33182 0.05008 0.99431 0.0
H1109 H 0.30049 0.047 0.06209 0.0
H1110 H 0.34774 0.03692 0.85164 0.0
H1111 H 0.35619 0.02546 0.11324 0.0
H1112 H 0.35006 1.0074 0.22934 0.0
H1113 H 0.37494 0.95518 0.13481 0.0
H1114 H 0.38083 0.97282 0.01746 0.0
H1115 H 0.46239 0.03255 0.90399 0.0
H1116 H 0.4289 0.03294 0.9536 0.0
H1117 H 0.40725 1.00831 0.75024 0.0
H1118 H 0.44059 1.00808 0.69988 0.0
H1119 H 0.40288 1.00449 0.98324 0.0
H1120 H 0.3604 0.0237 0.71899 0.0
H1121 H 0.36537 0.04115 0.60076 0.0
H1122 H 0.40856 0.07832 0.70221 0.0
H1123 H 0.40365 0.06124 0.82124 0.0
C1124 C 0.3083 0.99873 0.02237 0.0
C1125 C 0.29887 0.01536 0.05216 0.0
C1126 C 0.32624 1.00044 0.98485 0.0
C1127 C 0.33529 0.01884 0.97597 0.0
C1128 C 0.32518 0.0357 1.00048 0.0
C1129 C 0.30717 0.03397 0.03865 0.0
C1130 C 0.35596 0.02008 0.9474 0.0
C1131 C 0.35979 0.02985 0.88046 0.0
C1132 C 0.37182 0.01092 0.98492 0.0
C1133 C 0.36881 1.00044 0.05625 0.0
C1134 C 0.36025 0.0101 0.11699 0.0
C1135 C 0.35681 0.99993 0.18305 0.0
C1136 C 0.36209 0.98015 0.18942 0.0
C1137 C 0.37086 0.9705 0.12977 0.0
C1138 C 0.37425 0.98058 0.06347 0.0
C1139 C 0.45053 0.02729 0.86946 0.0
C1140 C 0.45439 0.02039 0.79746 0.0
C1141 C 0.43131 0.02745 0.89818 0.0
C1142 C 0.41531 0.02086 0.85573 0.0
C1143 C 0.41914 0.01382 0.78405 0.0
C1144 C 0.43835 0.01362 0.7553 0.0
C1145 C 0.39475 0.02118 0.8867 0.0
C1146 C 0.3909 0.01163 0.95429 0.0
C1147 C 0.37887 0.03047 0.84961 0.0
C1148 C 0.38174 0.04109 0.7788 0.0
C1149 C 0.37087 0.03567 0.7161 0.0
C1150 C 0.3737 0.04547 0.64895 0.0
C1151 C 0.38731 0.06081 0.64393 0.0
C1152 C 0.39807 0.0664 0.70613 0.0
C1153 C 0.39528 0.05665 0.77343 0.0
H1154 H 0.38949 0.06837 0.59188 0.0
H1155 H 0.3594 0.9723 0.24058 0.0
H1156 H 0.47407 0.31096 0.0626 0.0
H1157 H 0.47611 0.34156 0.99157 0.0
H1158 H 0.53278 0.32408 0.90774 0.0
H1159 H 0.53069 0.29334 0.9794 0.0
H1160 H 0.5349 0.36061 0.95676 0.0
H1161 H 0.49204 0.32739 0.79285 0.0
H1162 H 0.46322 0.30801 0.75451 0.0
H1163 H 0.42478 0.35347 0.83305 0.0
H1164 H 0.45338 0.37304 0.87275 0.0
H1165 H 0.51134 0.44309 0.66605 0.0
H1166 H 0.51108 0.40874 0.70789 0.0
H1167 H 0.51126 0.42803 0.93439 0.0
H1168 H 0.51095 0.46243 0.89303 0.0
H1169 H 0.48269 0.38892 0.79812 0.0
H1170 H 0.54262 0.39361 0.02717 0.0
H1171 H 0.57458 0.40963 0.04952 0.0
H1172 H 0.58265 0.4177 0.81603 0.0
H1173 H 0.55092 0.40146 0.79219 0.0
C1174 C 0.48663 0.31329 0.02674 0.0
C1175 C 0.50197 0.29939 0.02524 0.0
C1176 C 0.48787 0.33093 0.98637 0.0
C1177 C 0.50458 0.33536 0.94351 0.0
C1178 C 0.51967 0.32116 0.93991 0.0
C1179 C 0.51834 0.30338 0.98001 0.0
C1180 C 0.50673 0.35524 0.90696 0.0
C1181 C 0.52341 0.36675 0.92228 0.0
C1182 C 0.49211 0.36333 0.85995 0.0
C1183 C 0.47486 0.35161 0.83636 0.0
C1184 C 0.47744 0.3332 0.80249 0.0
C1185 C 0.46115 0.32219 0.7804 0.0
C1186 C 0.44218 0.32949 0.79149 0.0
C1187 C 0.43948 0.34783 0.82456 0.0
C1188 C 0.45573 0.3589 0.84679 0.0
C1189 C 0.51128 0.44009 0.72486 0.0
C1190 C 0.51099 0.45573 0.776 0.0
C1191 C 0.5111 0.42035 0.74875 0.0
C1192 C 0.51114 0.41559 0.82451 0.0
C1193 C 0.51128 0.43116 0.87568 0.0
C1194 C 0.51101 0.45091 0.85185 0.0
C1195 C 0.5105 0.39449 0.85028 0.0
C1196 C 0.4941 0.38279 0.83297 0.0
C1197 C 0.52559 0.38603 0.89394 0.0
C1198 C 0.54425 0.39658 0.90804 0.0
C1199 C 0.5512 0.39886 0.98063 0.0
C1200 C 0.56931 0.4079 0.99353 0.0
C1201 C 0.58065 0.41464 0.93423 0.0
C1202 C 0.57384 0.41249 0.86192 0.0
C1203 C 0.55575 0.40344 0.84869 0.0
H1204 H 0.5947 0.42157 0.94435 0.0
H1205 H 0.42958 0.32094 0.77434 0.0
H1206 H 0.22799 0.48476 0.01794 0.0
H1207 H 0.19628 0.48273 0.95276 0.0
H1208 H 0.18448 0.54324 0.00753 0.0
H1209 H 0.21596 0.54522 0.07194 0.0
H1210 H 0.15998 0.48573 0.0058 0.0
H1211 H 0.15482 0.5647 0.88315 0.0
H1212 H 0.17686 0.58943 0.8273 0.0
H1213 H 0.21683 0.54383 0.76178 0.0
H1214 H 0.1949 0.51881 0.81613 0.0
H1215 H 0.05946 0.50829 0.94409 0.0
H1216 H 0.09394 0.50772 0.98142 0.0
H1217 H 0.11167 0.51442 0.75379 0.0
H1218 H 0.07719 0.5161 0.717 0.0
H1219 H 0.13498 0.53514 0.82734 0.0
H1220 H 0.11489 0.46869 0.85953 0.0
H1221 H 0.09443 0.44117 0.90414 0.0
H1222 H 0.10722 0.45677 0.12874 0.0
H1223 H 0.12755 0.48455 0.08549 0.0
C1224 C 0.21889 0.49777 0.01396 0.0
C1225 C 0.22471 0.51524 0.04931 0.0
C1226 C 0.20059 0.49656 0.97745 0.0
C1227 C 0.18776 0.51285 0.97451 0.0
C1228 C 0.194 0.53049 0.00752 0.0
C1229 C 0.21212 0.53164 0.04438 0.0
C1230 C 0.16744 0.51129 0.94137 0.0
C1231 C 0.15457 0.49653 0.96664 0.0
C1232 C 0.16023 0.52499 0.88869 0.0
C1233 C 0.17331 0.53992 0.85451 0.0
C1234 C 0.16826 0.55995 0.85648 0.0
C1235 C 0.18074 0.57401 0.8251 0.0
C1236 C 0.19827 0.56821 0.79132 0.0
C1237 C 0.20329 0.54831 0.78823 0.0
C1238 C 0.19085 0.53419 0.81941 0.0
C1239 C 0.07065 0.50959 0.90175 0.0
C1240 C 0.06529 0.51198 0.82705 0.0
C1241 C 0.09053 0.50911 0.92323 0.0
C1242 C 0.10581 0.51059 0.87068 0.0
C1243 C 0.10045 0.51314 0.79606 0.0
C1244 C 0.08056 0.51392 0.77474 0.0
C1245 C 0.12722 0.50992 0.89356 0.0
C1246 C 0.14032 0.52428 0.86635 0.0
C1247 C 0.13479 0.49551 0.94296 0.0
C1248 C 0.12261 0.4788 0.96923 0.0
C1249 C 0.11323 0.46633 0.91843 0.0
C1250 C 0.10167 0.45067 0.94348 0.0
C1251 C 0.09949 0.44725 0.01922 0.0
C1252 C 0.10891 0.45945 0.07008 0.0
C1253 C 0.12047 0.47514 0.04533 0.0
H1254 H 0.09054 0.43512 0.03849 0.0
H1255 H 0.20796 0.57915 0.76761 0.0
H1256 H 0.01708 0.79691 0.41782 0.0
H1257 H 0.02141 0.82799 0.48612 0.0
H1258 H 0.96541 0.84832 0.40577 0.0
H1259 H 0.96096 0.81752 0.33912 0.0
H1260 H 0.9954 0.87506 0.37839 0.0
H1261 H 0.97147 0.83641 0.58879 0.0
H1262 H 0.97342 0.80835 0.67516 0.0
H1263 H 0.03186 0.82547 0.73647 0.0
H1264 H 0.03021 0.85368 0.65067 0.0
H1265 H 0.98054 0.96589 0.54998 0.0
H1266 H 0.9777 0.93206 0.5067 0.0
H1267 H 0.02418 0.91452 0.65463 0.0
H1268 H 0.02581 0.94816 0.70259 0.0
H1269 H 1.00315 0.8853 0.64782 0.0
H1270 H 0.02929 0.923 0.4515 0.0
H1271 H 0.03223 0.95006 0.36123 0.0
H1272 H 0.97721 0.93344 0.26391 0.0
H1273 H 0.9738 0.90643 0.35426 0.0
C1274 C 1.00546 0.80778 0.41661 0.0
C1275 C 0.98869 0.80465 0.37265 0.0
C1276 C 1.008 0.82565 0.45528 0.0
C1277 C 0.99381 0.84076 0.45077 0.0
C1278 C 0.97669 0.83714 0.40989 0.0
C1279 C 0.97412 0.81939 0.37197 0.0
C1280 C 0.99696 0.86079 0.48426 0.0
C1281 C 0.99683 0.87731 0.43747 0.0
C1282 C 0.9999 0.86384 0.56083 0.0
C1283 C 1.00078 0.84704 0.61294 0.0
C1284 C 0.98479 0.83409 0.62031 0.0
C1285 C 0.98581 0.8182 0.66931 0.0
C1286 C 1.0028 0.81505 0.71088 0.0
C1287 C 0.01875 0.82787 0.70395 0.0
C1288 C 0.01773 0.84388 0.65552 0.0
C1289 C 0.99011 0.95483 0.57361 0.0
C1290 C 1.00358 0.95995 0.62917 0.0
C1291 C 0.98864 0.93536 0.54814 0.0
C1292 C 1.00124 0.92044 0.57475 0.0
C1293 C 0.01432 0.92547 0.63205 0.0
C1294 C 0.01533 0.94486 0.65936 0.0
C1295 C 1.00084 0.89989 0.54209 0.0
C1296 C 1.00167 0.88322 0.58876 0.0
C1297 C 0.99925 0.89659 0.4647 0.0
C1298 C 1.00121 0.9128 0.41013 0.0
C1299 C 0.01776 0.92519 0.41115 0.0
C1300 C 0.01951 0.94052 0.35994 0.0
C1301 C 1.00489 0.9435 0.30699 0.0
C1302 C 0.98851 0.93113 0.30502 0.0
C1303 C 0.98667 0.9158 0.35618 0.0
H1304 H 1.00628 0.95537 0.26738 0.0
H1305 H 1.00357 0.80276 0.74885 0.0
H1306 H 0.72614 0.03451 0.33603 0.0
H1307 H 0.69326 0.03973 0.38917 0.0
H1308 H 0.70005 0.9874 0.52155 0.0
H1309 H 0.73276 0.98222 0.46835 0.0
H1310 H 0.66182 0.01566 0.37436 0.0
H1311 H 0.67101 0.99094 0.67772 0.0
H1312 H 0.69506 0.99216 0.77844 0.0
H1313 H 0.72229 0.0428 0.67958 0.0
H1314 H 0.698 0.04211 0.57864 0.0
H1315 H 0.56688 0.99467 0.53 0.0
H1316 H 0.6006 0.99406 0.48287 0.0
H1317 H 0.61676 0.03877 0.64052 0.0
H1318 H 0.58351 0.03809 0.69134 0.0
H1319 H 0.64412 0.01625 0.63997 0.0
H1320 H 0.60965 0.04399 0.42685 0.0
H1321 H 0.58595 0.04471 0.32358 0.0
H1322 H 0.60948 0.99055 0.24038 0.0
H1323 H 0.6334 0.98963 0.34267 0.0
C1324 C 0.7209 0.0246 0.37868 0.0
C1325 C 0.73226 1.00823 0.39938 0.0
C1326 C 0.70196 0.0274 0.40824 0.0
C1327 C 0.69401 0.01399 0.45969 0.0
C1328 C 0.70578 0.99814 0.48288 0.0
C1329 C 0.7246 0.99526 0.45287 0.0
C1330 C 0.67306 0.01572 0.48531 0.0
C1331 C 0.65793 0.01593 0.43252 0.0
C1332 C 0.6678 0.01598 0.56102 0.0
C1333 C 0.68279 0.01634 0.62026 0.0
C1334 C 0.68212 1.00234 0.67744 0.0
C1335 C 0.69581 1.00296 0.73468 0.0
C1336 C 0.7103 0.01752 0.73548 0.0
C1337 C 0.71111 0.03148 0.67879 0.0
C1338 C 0.69738 0.03098 0.62146 0.0
C1339 C 0.57766 1.00437 0.55448 0.0
C1340 C 0.57247 0.01638 0.61467 0.0
C1341 C 0.59701 1.00422 0.52678 0.0
C1342 C 0.61154 0.01669 0.55651 0.0
C1343 C 0.60613 0.02889 0.61611 0.0
C1344 C 0.58701 0.02854 0.64532 0.0
C1345 C 0.63255 0.01644 0.52913 0.0
C1346 C 0.64781 0.01625 0.58166 0.0
C1347 C 0.63788 0.01626 0.45303 0.0
C1348 C 0.62312 0.01663 0.39289 0.0
C1349 C 0.60962 0.03217 0.38691 0.0
C1350 C 0.59619 0.03263 0.32851 0.0
C1351 C 0.59609 0.01761 0.27593 0.0
C1352 C 0.6095 1.00214 0.28132 0.0
C1353 C 0.62303 1.00167 0.33933 0.0
H1354 H 0.58568 0.01801 0.23079 0.0
H1355 H 0.72083 0.01805 0.78015 0.0
H1356 H 0.54958 0.72464 0.3511 0.0
H1357 H 0.54673 0.69329 0.41556 0.0
H1358 H 0.48936 0.71003 0.49525 0.0
H1359 H 0.49196 0.74137 0.42733 0.0
H1360 H 0.54393 0.67865 0.54172 0.0
H1361 H 0.4597 0.6696 0.51461 0.0
H1362 H 0.43264 0.681 0.4346 0.0
H1363 H 0.47324 0.68965 0.25553 0.0
H1364 H 0.50047 0.67807 0.33413 0.0
H1365 H 0.4901 0.58702 0.69374 0.0
H1366 H 0.48975 0.62138 0.65109 0.0
H1367 H 0.53536 0.60828 0.49374 0.0
H1368 H 0.53516 0.57374 0.53326 0.0
H1369 H 0.48468 0.63808 0.49633 0.0
H1370 H 0.56793 0.64618 0.51278 0.0
H1371 H 0.59579 0.63267 0.5839 0.0
H1372 H 0.55806 0.62377 0.77148 0.0
H1373 H 0.53007 0.63729 0.70148 0.0
C1374 C 0.5365 0.72186 0.38371 0.0
C1375 C 0.52102 0.73562 0.38391 0.0
C1376 C 0.53484 0.70378 0.42064 0.0
C1377 C 0.51762 0.69876 0.45944 0.0
C1378 C 0.50264 0.71311 0.46435 0.0
C1379 C 0.50426 0.73126 0.42658 0.0
C1380 C 0.51534 0.67825 0.49106 0.0
C1381 C 0.53094 0.6699 0.53153 0.0
C1382 C 0.49842 0.66643 0.4785 0.0
C1383 C 0.48213 0.67322 0.4306 0.0
C1384 C 0.46282 0.67389 0.45812 0.0
C1385 C 0.44747 0.68039 0.41301 0.0
C1386 C 0.45123 0.68613 0.34013 0.0
C1387 C 0.47035 0.68529 0.31207 0.0
C1388 C 0.48575 0.67877 0.35689 0.0
C1389 C 0.50004 0.59141 0.64986 0.0
C1390 C 0.51268 0.5775 0.617 0.0
C1391 C 0.49976 0.61109 0.62549 0.0
C1392 C 0.51258 0.61755 0.56948 0.0
C1393 C 0.52531 0.60374 0.537 0.0
C1394 C 0.5252 0.58395 0.5598 0.0
C1395 C 0.51327 0.6388 0.54659 0.0
C1396 C 0.49747 0.6471 0.50752 0.0
C1397 C 0.53009 0.6505 0.55926 0.0
C1398 C 0.54693 0.64268 0.60191 0.0
C1399 C 0.56562 0.64137 0.56924 0.0
C1400 C 0.58142 0.63367 0.60928 0.0
C1401 C 0.57868 0.6273 0.68208 0.0
C1402 C 0.56015 0.62864 0.71505 0.0
C1403 C 0.54432 0.63629 0.67521 0.0
H1404 H 0.59094 0.6214 0.71303 0.0
H1405 H 0.43933 0.69118 0.30535 0.0
H1406 H 0.79202 0.53853 0.38396 0.0
H1407 H 0.82282 0.54439 0.45199 0.0
H1408 H 0.81807 0.48713 0.55237 0.0
H1409 H 0.78725 0.48147 0.48667 0.0
H1410 H 0.83693 0.53666 0.62454 0.0
H1411 H 0.8605 0.46684 0.48057 0.0
H1412 H 0.8508 0.44805 0.36965 0.0
H1413 H 0.83795 0.50187 0.25516 0.0
H1414 H 0.84781 0.52092 0.36481 0.0
H1415 H 0.92991 0.50845 0.7794 0.0
H1416 H 0.89602 0.50879 0.73348 0.0
H1417 H 0.91702 0.52414 0.516 0.0
H1418 H 0.95078 0.52348 0.56096 0.0
H1419 H 0.88937 0.49802 0.50088 0.0
H1420 H 0.89454 0.55834 0.63769 0.0
H1421 H 0.90165 0.57855 0.74742 0.0
H1422 H 0.85711 0.54781 0.87004 0.0
H1423 H 0.84991 0.52723 0.76127 0.0
C1424 C 0.79703 0.52761 0.42328 0.0
C1425 C 0.78704 0.50954 0.42987 0.0
C1426 C 0.81476 0.53091 0.46185 0.0
C1427 C 0.82291 0.51615 0.50721 0.0
C1428 C 0.81215 0.49878 0.51806 0.0
C1429 C 0.79444 0.49558 0.48045 0.0
C1430 C 0.84374 0.51734 0.53424 0.0
C1431 C 0.84842 0.52827 0.59759 0.0
C1432 C 0.85886 0.50658 0.49896 0.0
C1433 C 0.85473 0.49525 0.43095 0.0
C1434 C 0.85581 0.47463 0.4314 0.0
C1435 C 0.85021 0.46395 0.36891 0.0
C1436 C 0.84361 0.47379 0.30572 0.0
C1437 C 0.84295 0.49429 0.3043 0.0
C1438 C 0.84855 0.50502 0.36652 0.0
C1439 C 0.92735 0.51192 0.72178 0.0
C1440 C 0.9433 0.516 0.67427 0.0
C1441 C 0.90785 0.5122 0.69548 0.0
C1442 C 0.90367 0.51673 0.62102 0.0
C1443 C 0.91961 0.52059 0.57354 0.0
C1444 C 0.93905 0.52027 0.59966 0.0
C1445 C 0.88286 0.51737 0.59211 0.0
C1446 C 0.87806 0.50658 0.52823 0.0
C1447 C 0.86774 0.52857 0.62649 0.0
C1448 C 0.8718 0.54114 0.69153 0.0
C1449 C 0.88633 0.55583 0.68818 0.0
C1450 C 0.89037 0.56735 0.75019 0.0
C1451 C 0.87987 0.56443 0.81572 0.0
C1452 C 0.86525 0.55004 0.81927 0.0
C1453 C 0.86116 0.53846 0.75743 0.0
H1454 H 0.88304 0.57335 0.86371 0.0
H1455 H 0.83906 0.46557 0.25767 0.0
loop_
_geom_bond_atom_site_label_1
_geom_bond_atom_site_label_2
_geom_bond_distance
_geom_bond_site_symmetry_2
_ccdc_geom_bond_type
H0 C5 0.930 . S
H1 C8 0.930 . S
H2 C10 0.930 . S
H3 C4 1.016 . S
C4 H3 1.016 . S
C4 N11 1.286 . S
C5 H0 0.930 . S
C5 C6 1.397 . S
C5 C7 1.361 . S
C6 C5 1.397 . S
C6 C10 1.390 . S
C7 C5 1.361 . S
C7 C8 1.393 . S
C7 N11 1.413 . S
C8 H1 0.930 . S
C8 C7 1.393 . S
C8 C9 1.399 . S
C9 C8 1.399 . S
C9 C10 1.381 . S
C10 H2 0.930 . S
C10 C6 1.390 . S
C10 C9 1.381 . S
N11 C4 1.286 . S
N11 C7 1.413 . S
H12 C17 0.930 . S
H13 C20 0.930 . S
H14 C22 0.930 . S
H15 C16 1.029 . S
C16 H15 1.029 . S
C16 N23 1.268 1_655 S
C17 H12 0.930 . S
C17 C18 1.407 . S
C17 C19 1.361 . S
C18 C17 1.407 . S
C18 C22 1.385 1_455 S
C19 C17 1.361 . S
C19 C20 1.393 . S
C19 N23 1.413 . S
C20 H13 0.930 . S
C20 C19 1.393 . S
C20 C21 1.402 . S
C21 C20 1.402 . S
C21 C22 1.379 1_455 S
C22 H14 0.930 . S
C22 C18 1.385 1_655 S
C22 C21 1.379 1_655 S
N23 C16 1.268 1_455 S
N23 C19 1.413 . S
H24 C29 0.930 . S
H25 C32 0.930 . S
H26 C34 0.930 . S
H27 C28 1.029 . S
C28 H27 1.029 . S
C28 N35 1.268 1_565 S
C29 H24 0.930 . S
C29 C30 1.407 . S
C29 C31 1.361 . S
C30 C29 1.407 . S
C30 C34 1.385 1_545 S
C31 C29 1.361 . S
C31 C32 1.393 . S
C31 N35 1.413 . S
C32 H25 0.930 . S
C32 C31 1.393 . S
C32 C33 1.402 . S
C33 C32 1.402 . S
C33 C34 1.379 1_545 S
C34 H26 0.930 . S
C34 C30 1.385 1_565 S
C34 C33 1.379 1_565 S
N35 C28 1.268 1_545 S
N35 C31 1.413 . S
H36 C41 0.930 . S
H37 C44 0.930 . S
H38 C46 0.930 . S
H39 C40 1.016 . S
C40 H39 1.016 . S
C40 N47 1.286 . S
C41 H36 0.930 . S
C41 C42 1.397 . S
C41 C43 1.361 . S
C42 C41 1.397 . S
C42 C46 1.390 . S
C43 C41 1.361 . S
C43 C44 1.393 . S
C43 N47 1.413 . S
C44 H37 0.930 . S
C44 C43 1.393 . S
C44 C45 1.399 . S
C45 C44 1.399 . S
C45 C46 1.381 . S
C46 H38 0.930 . S
C46 C42 1.390 . S
C46 C45 1.381 . S
N47 C40 1.286 . S
N47 C43 1.413 . S
H48 C53 0.930 . S
H49 C56 0.930 . S
H50 C58 0.930 . S
H51 C52 1.016 . S
C52 H51 1.016 . S
C52 N59 1.286 . S
C53 H48 0.930 . S
C53 C54 1.397 . S
C53 C55 1.361 1_556 S
C54 C53 1.397 . S
C54 C58 1.390 1_556 S
C55 C53 1.361 1_554 S
C55 C56 1.393 . S
C55 N59 1.413 . S
C56 H49 0.930 . S
C56 C55 1.393 . S
C56 C57 1.399 . S
C57 C56 1.399 . S
C57 C58 1.381 . S
C58 H50 0.930 . S
C58 C54 1.390 1_554 S
C58 C57 1.381 . S
N59 C52 1.286 . S
N59 C55 1.413 . S
H60 C65 0.930 . S
H61 C68 0.930 . S
H62 C70 0.930 . S
H63 C64 1.025 . S
C64 H63 1.025 . S
C64 N71 1.274 1_655 S
C65 H60 0.930 . S
C65 C66 1.397 . S
C65 C67 1.361 1_556 S
C66 C65 1.397 . S
C66 C70 1.390 1_456 S
C67 C65 1.361 1_554 S
C67 C68 1.393 . S
C67 N71 1.413 . S
C68 H61 0.930 . S
C68 C67 1.393 . S
C68 C69 1.404 . S
C69 C68 1.404 . S
C69 C70 1.378 1_455 S
C70 H62 0.930 . S
C70 C66 1.390 1_654 S
C70 C69 1.378 1_655 S
N71 C64 1.274 1_455 S
N71 C67 1.413 . S
H72 C77 0.930 . S
H73 C80 0.930 . S
H74 C82 0.930 . S
H75 C76 1.025 . S
C76 H75 1.025 . S
C76 N83 1.274 1_565 S
C77 H72 0.930 . S
C77 C78 1.397 . S
C77 C79 1.361 1_556 S
C78 C77 1.397 . S
C78 C82 1.390 1_546 S
C79 C77 1.361 1_554 S
C79 C80 1.393 . S
C79 N83 1.413 . S
C80 H73 0.930 . S
C80 C79 1.393 . S
C80 C81 1.404 . S
C81 C80 1.404 . S
C81 C82 1.378 1_545 S
C82 H74 0.930 . S
C82 C78 1.390 1_564 S
C82 C81 1.378 1_565 S
N83 C76 1.274 1_545 S
N83 C79 1.413 . S
H84 C89 0.930 . S
H85 C92 0.930 . S
H86 C94 0.930 . S
H87 C88 1.016 . S
C88 H87 1.016 . S
C88 N95 1.286 . S
C89 H84 0.930 . S
C89 C90 1.397 . S
C89 C91 1.361 1_556 S
C90 C89 1.397 . S
C90 C94 1.390 1_556 S
C91 C89 1.361 1_554 S
C91 C92 1.393 . S
C91 N95 1.413 . S
C92 H85 0.930 . S
C92 C91 1.393 . S
C92 C93 1.399 . S
C93 C92 1.399 . S
C93 C94 1.381 . S
C94 H86 0.930 . S
C94 C90 1.390 1_554 S
C94 C93 1.381 . S
N95 C88 1.286 . S
N95 C91 1.413 . S
C96 Eu97 2.835 . S
C96 C98 1.500 . S
C96 O116 1.254 . S
C96 O117 1.260 . S
Eu97 C96 2.835 . S
Eu97 O116 2.471 . S
Eu97 O117 2.480 . S
Eu97 O118 2.430 . S
Eu97 O119 2.670 1_545 S
Eu97 O120 2.394 . S
Eu97 O125 2.355 1_655 S
Eu97 O127 2.374 1_545 S
C98 C96 1.500 . S
C98 C99 1.377 . S
C98 C103 1.414 . S
C99 C98 1.377 . S
C99 C100 1.395 . S
C99 H128 0.931 . S
C100 C99 1.395 . S
C100 C101 1.383 . S
C100 H129 0.931 . S
C101 C100 1.383 . S
C101 C102 1.394 . S
C102 C101 1.394 . S
C102 C103 1.381 . S
C102 H130 0.931 1_655 S
C103 C98 1.414 . S
C103 C102 1.381 . S
C103 H131 0.892 1_655 S
C104 O118 1.282 . S
C104 O119 1.254 1_545 S
C105 O120 1.251 1_455 S
C105 O121 1.251 . S
C106 Eu107 2.835 . S
C106 C108 1.500 . S
C106 O122 1.266 . S
C106 O123 1.260 . S
Eu107 C106 2.835 . S
Eu107 O119 2.355 1_455 S
Eu107 O121 2.374 1_565 S
Eu107 O122 2.476 . S
Eu107 O123 2.480 . S
Eu107 O124 2.430 . S
Eu107 O125 2.670 1_565 S
Eu107 O126 2.394 . S
C108 C106 1.500 . S
C108 C109 1.377 . S
C108 C113 1.425 . S
C109 C108 1.377 . S
C109 C110 1.395 . S
C109 H132 0.931 . S
C110 C109 1.395 . S
C110 C111 1.383 . S
C110 H133 0.931 . S
C111 C110 1.383 . S
C111 C112 1.394 . S
C112 C111 1.394 . S
C112 C113 1.383 . S
C112 H134 0.931 1_455 S
C113 C108 1.425 . S
C113 C112 1.383 . S
C113 H135 0.880 1_455 S
C114 O124 1.275 . S
C114 O125 1.259 1_565 S
C115 O126 1.251 1_655 S
C115 O127 1.251 . S
O116 C96 1.254 . S
O116 Eu97 2.471 . S
O117 C96 1.260 . S
O117 Eu97 2.480 . S
O118 Eu97 2.430 . S
O118 C104 1.282 . S
O119 Eu97 2.670 1_565 S
O119 C104 1.254 1_565 S
O119 Eu107 2.355 1_655 S
O120 Eu97 2.394 . S
O120 C105 1.251 1_655 S
O121 C105 1.251 . S
O121 Eu107 2.374 1_545 S
O122 C106 1.266 . S
O122 Eu107 2.476 . S
O123 C106 1.260 . S
O123 Eu107 2.480 . S
O124 Eu107 2.430 . S
O124 C114 1.275 . S
O125 Eu97 2.355 1_455 S
O125 Eu107 2.670 1_545 S
O125 C114 1.259 1_545 S
O126 Eu107 2.394 . S
O126 C115 1.251 1_455 S
O127 Eu97 2.374 1_565 S
O127 C115 1.251 . S
H128 C99 0.931 . S
H129 C100 0.931 . S
H130 C102 0.931 1_455 S
H131 C103 0.892 1_455 S
H132 C109 0.931 . S
H133 C110 0.931 . S
H134 C112 0.931 1_655 S
H135 C113 0.880 1_655 S
C136 Eu137 2.835 . S
C136 C138 1.500 . S
C136 O156 1.262 1_565 S
C136 O157 1.260 . S
Eu137 C136 2.835 . S
Eu137 O156 2.475 1_565 S
Eu137 O157 2.480 . S
Eu137 O158 2.430 . S
Eu137 O159 2.670 . S
Eu137 O160 2.394 . S
Eu137 O165 2.355 1_565 S
Eu137 O167 2.374 . S
C138 C136 1.500 . S
C138 C139 1.377 . S
C138 C143 1.407 . S
C139 C138 1.377 . S
C139 C140 1.395 . S
C139 H168 0.931 . S
C140 C139 1.395 . S
C140 C141 1.383 . S
C140 H169 0.931 . S
C141 C140 1.383 . S
C141 C142 1.394 . S
C142 C141 1.394 . S
C142 C143 1.380 . S
C142 H170 0.931 1_565 S
C143 C138 1.407 . S
C143 C142 1.380 . S
C143 H171 0.899 1_565 S
C144 O158 1.259 . S
C144 O159 1.270 . S
C145 O160 1.251 1_545 S
C145 O161 1.251 . S
C146 Eu147 2.835 . S
C146 C148 1.500 . S
C146 O162 1.262 . S
C146 O163 1.260 . S
Eu147 C146 2.835 . S
Eu147 O159 2.355 1_545 S
Eu147 O161 2.374 . S
Eu147 O162 2.475 . S
Eu147 O163 2.480 . S
Eu147 O164 2.430 . S
Eu147 O165 2.670 . S
Eu147 O166 2.394 . S
C148 C146 1.500 . S
C148 C149 1.377 . S
C148 C153 1.418 . S
C149 C148 1.377 . S
C149 C150 1.395 . S
C149 H172 0.931 . S
C150 C149 1.395 . S
C150 C151 1.383 . S
C150 H173 0.931 . S
C151 C150 1.383 . S
C151 C152 1.394 . S
C152 C151 1.394 . S
C152 C153 1.382 . S
C152 H174 0.931 1_545 S
C153 C148 1.418 . S
C153 C152 1.382 . S
C153 H175 0.887 1_545 S
C154 O164 1.259 . S
C154 O165 1.270 . S
C155 O166 1.251 1_565 S
C155 O167 1.251 . S
O156 C136 1.262 1_545 S
O156 Eu137 2.475 1_545 S
O157 C136 1.260 . S
O157 Eu137 2.480 . S
O158 Eu137 2.430 . S
O158 C144 1.259 . S
O159 Eu137 2.670 . S
O159 C144 1.270 . S
O159 Eu147 2.355 1_565 S
O160 Eu137 2.394 . S
O160 C145 1.251 1_565 S
O161 C145 1.251 . S
O161 Eu147 2.374 . S
O162 C146 1.262 . S
O162 Eu147 2.475 . S
O163 C146 1.260 . S
O163 Eu147 2.480 . S
O164 Eu147 2.430 . S
O164 C154 1.259 . S
O165 Eu137 2.355 1_545 S
O165 Eu147 2.670 . S
O165 C154 1.270 . S
O166 Eu147 2.394 . S
O166 C155 1.251 1_545 S
O167 Eu137 2.374 . S
O167 C155 1.251 . S
H168 C139 0.931 . S
H169 C140 0.931 . S
H170 C142 0.931 1_545 S
H171 C143 0.899 1_545 S
H172 C149 0.931 . S
H173 C150 0.931 . S
H174 C152 0.931 1_565 S
H175 C153 0.887 1_565 S
C176 Eu177 2.835 . S
C176 C178 1.500 . S
C176 O196 1.257 . S
C176 O197 1.260 . S
Eu177 C176 2.835 . S
Eu177 O196 2.473 . S
Eu177 O197 2.480 . S
Eu177 O198 2.430 . S
Eu177 O199 2.670 . S
Eu177 O200 2.394 . S
Eu177 O205 2.355 . S
Eu177 O207 2.374 . S
C178 C176 1.500 . S
C178 C179 1.377 . S
C178 C183 1.377 . S
C179 C178 1.377 . S
C179 C180 1.395 . S
C179 H208 0.931 . S
C180 C179 1.395 . S
C180 C181 1.383 . S
C180 H209 0.931 . S
C181 C180 1.383 . S
C181 C182 1.394 . S
C182 C181 1.394 . S
C182 C183 1.378 . S
C182 H210 0.931 . S
C183 C178 1.377 . S
C183 C182 1.378 . S
C183 H211 0.931 . S
C184 O198 1.259 . S
C184 O199 1.270 . S
C185 O200 1.251 . S
C185 O201 1.251 . S
C186 Eu187 2.835 . S
C186 C188 1.500 . S
C186 O202 1.257 . S
C186 O203 1.260 . S
Eu187 C186 2.835 . S
Eu187 O199 2.355 . S
Eu187 O201 2.374 . S
Eu187 O202 2.473 . S
Eu187 O203 2.480 . S
Eu187 O204 2.430 . S
Eu187 O205 2.670 . S
Eu187 O206 2.394 . S
C188 C186 1.500 . S
C188 C189 1.377 . S
C188 C193 1.377 . S
C189 C188 1.377 . S
C189 C190 1.395 . S
C189 H212 0.931 . S
C190 C189 1.395 . S
C190 C191 1.383 . S
C190 H213 0.931 . S
C191 C190 1.383 . S
C191 C192 1.394 . S
C192 C191 1.394 . S
C192 C193 1.378 . S
C192 H214 0.931 . S
C193 C188 1.377 . S
C193 C192 1.378 . S
C193 H215 0.931 . S
C194 O204 1.259 . S
C194 O205 1.270 . S
C195 O206 1.251 . S
C195 O207 1.251 . S
O196 C176 1.257 . S
O196 Eu177 2.473 . S
O197 C176 1.260 . S
O197 Eu177 2.480 . S
O198 Eu177 2.430 . S
O198 C184 1.259 . S
O199 Eu177 2.670 . S
O199 C184 1.270 . S
O199 Eu187 2.355 . S
O200 Eu177 2.394 . S
O200 C185 1.251 . S
O201 C185 1.251 . S
O201 Eu187 2.374 . S
O202 C186 1.257 . S
O202 Eu187 2.473 . S
O203 C186 1.260 . S
O203 Eu187 2.480 . S
O204 Eu187 2.430 . S
O204 C194 1.259 . S
O205 Eu177 2.355 . S
O205 Eu187 2.670 . S
O205 C194 1.270 . S
O206 Eu187 2.394 . S
O206 C195 1.251 . S
O207 Eu177 2.374 . S
O207 C195 1.251 . S
H208 C179 0.931 . S
H209 C180 0.931 . S
H210 C182 0.931 . S
H211 C183 0.931 . S
H212 C189 0.931 . S
H213 C190 0.931 . S
H214 C192 0.931 . S
H215 C193 0.931 . S
C216 Eu217 2.835 . S
C216 C218 1.500 . S
C216 O236 1.257 . S
C216 O237 1.260 . S
Eu217 C216 2.835 . S
Eu217 O236 2.473 . S
Eu217 O237 2.480 . S
Eu217 O238 2.430 . S
Eu217 O239 2.670 1_455 S
Eu217 O240 2.394 . S
Eu217 O245 2.355 . S
Eu217 O247 2.374 1_455 S
C218 C216 1.500 . S
C218 C219 1.377 . S
C218 C223 1.377 . S
C219 C218 1.377 . S
C219 C220 1.395 . S
C219 H248 0.931 . S
C220 C219 1.395 . S
C220 C221 1.383 . S
C220 H249 0.931 . S
C221 C220 1.383 . S
C221 C222 1.394 . S
C222 C221 1.394 . S
C222 C223 1.378 . S
C222 H250 0.931 . S
C223 C218 1.377 . S
C223 C222 1.378 . S
C223 H251 0.931 . S
C224 O238 1.277 . S
C224 O239 1.257 1_455 S
C225 O240 1.251 . S
C225 O241 1.251 . S
C226 Eu227 2.835 . S
C226 C228 1.500 . S
C226 O242 1.257 . S
C226 O243 1.260 . S
Eu227 C226 2.835 . S
Eu227 O239 2.355 . S
Eu227 O241 2.374 1_655 S
Eu227 O242 2.473 . S
Eu227 O243 2.480 . S
Eu227 O244 2.430 . S
Eu227 O245 2.670 1_655 S
Eu227 O246 2.394 . S
C228 C226 1.500 . S
C228 C229 1.377 . S
C228 C233 1.377 . S
C229 C228 1.377 . S
C229 C230 1.395 . S
C229 H252 0.931 . S
C230 C229 1.395 . S
C230 C231 1.383 . S
C230 H253 0.931 . S
C231 C230 1.383 . S
C231 C232 1.394 . S
C232 C231 1.394 . S
C232 C233 1.378 . S
C232 H254 0.931 . S
C233 C228 1.377 . S
C233 C232 1.378 . S
C233 H255 0.931 . S
C234 O244 1.270 . S
C234 O245 1.262 1_655 S
C235 O246 1.251 . S
C235 O247 1.251 . S
O236 C216 1.257 . S
O236 Eu217 2.473 . S
O237 C216 1.260 . S
O237 Eu217 2.480 . S
O238 Eu217 2.430 . S
O238 C224 1.277 . S
O239 Eu217 2.670 1_655 S
O239 C224 1.257 1_655 S
O239 Eu227 2.355 . S
O240 Eu217 2.394 . S
O240 C225 1.251 . S
O241 C225 1.251 . S
O241 Eu227 2.374 1_455 S
O242 C226 1.257 . S
O242 Eu227 2.473 . S
O243 C226 1.260 . S
O243 Eu227 2.480 . S
O244 Eu227 2.430 . S
O244 C234 1.270 . S
O245 Eu217 2.355 . S
O245 Eu227 2.670 1_455 S
O245 C234 1.262 1_455 S
O246 Eu227 2.394 . S
O246 C235 1.251 . S
O247 Eu217 2.374 1_655 S
O247 C235 1.251 . S
H248 C219 0.931 . S
H249 C220 0.931 . S
H250 C222 0.931 . S
H251 C223 0.931 . S
H252 C229 0.931 . S
H253 C230 0.931 . S
H254 C232 0.931 . S
H255 C233 0.931 . S
H256 C274 0.951 . S
H257 C276 0.951 . S
H258 C278 0.950 . S
H259 C279 0.950 . S
H260 C281 0.955 . S
H261 C284 0.950 . S
H262 C285 0.950 . S
H263 C287 0.950 . S
H264 C288 0.950 . S
H265 C289 0.951 . S
H266 C291 0.951 . S
H267 C293 0.950 . S
H268 C294 0.950 . S
H269 C296 0.950 . S
H270 C299 0.950 . S
H271 C300 0.950 . S
H272 C302 0.950 . S
H273 C303 0.950 . S
C274 H256 0.951 . S
C274 C275 1.368 . S
C274 C276 1.388 . S
C275 C274 1.368 . S
C275 C279 1.382 1_545 S
C276 H257 0.951 . S
C276 C274 1.388 . S
C276 C277 1.350 1_545 S
C277 C276 1.350 1_565 S
C277 C278 1.429 . S
C277 C280 1.498 . S
C278 H258 0.950 . S
C278 C277 1.429 . S
C278 C279 1.374 . S
C279 H259 0.950 . S
C279 C275 1.382 1_565 S
C279 C278 1.374 . S
C280 C277 1.498 . S
C280 C281 1.373 . S
C280 C282 1.387 1_565 S
C281 H260 0.955 . S
C281 C280 1.373 . S
C281 C297 1.373 1_565 S
C282 C280 1.387 1_545 S
C282 C283 1.524 1_545 S
C282 C296 1.377 . S
C283 C282 1.524 1_565 S
C283 C284 1.397 . S
C283 C288 1.363 1_565 S
C284 H261 0.950 . S
C284 C283 1.397 . S
C284 C285 1.334 . S
C285 H262 0.950 . S
C285 C284 1.334 . S
C285 C286 1.287 . S
C286 C285 1.287 . S
C286 C287 1.524 1_565 S
C286 H305 0.913 . S
C287 H263 0.950 . S
C287 C286 1.524 1_545 S
C287 C288 1.415 . S
C288 H264 0.950 . S
C288 C283 1.363 1_545 S
C288 C287 1.415 . S
C289 H265 0.951 . S
C289 C290 1.344 1_565 S
C289 C291 1.388 . S
C290 C289 1.344 1_545 S
C290 C294 1.407 . S
C291 H266 0.951 . S
C291 C289 1.388 . S
C291 C292 1.366 1_565 S
C292 C291 1.366 1_545 S
C292 C293 1.414 . S
C292 C295 1.499 . S
C293 H267 0.950 . S
C293 C292 1.414 . S
C293 C294 1.374 . S
C294 H268 0.950 . S
C294 C290 1.407 . S
C294 C293 1.374 . S
C295 C292 1.499 . S
C295 C296 1.373 . S
C295 C297 1.391 . S
C296 H269 0.950 . S
C296 C282 1.377 . S
C296 C295 1.373 . S
C297 C281 1.373 1_545 S
C297 C295 1.391 . S
C297 C298 1.527 . S
C298 C297 1.527 . S
C298 C299 1.397 . S
C298 C303 1.363 1_545 S
C299 H270 0.950 . S
C299 C298 1.397 . S
C299 C300 1.334 . S
C300 H271 0.950 . S
C300 C299 1.334 . S
C300 C301 1.287 . S
C301 C300 1.287 . S
C301 C302 1.524 1_545 S
C301 H304 0.999 . S
C302 H272 0.950 . S
C302 C301 1.524 1_565 S
C302 C303 1.415 . S
C303 H273 0.950 . S
C303 C298 1.363 1_565 S
C303 C302 1.415 . S
H304 C301 0.999 . S
H305 C286 0.913 . S
H306 C324 0.951 . S
H307 C326 0.951 . S
H308 C328 0.950 . S
H309 C329 0.950 . S
H310 C331 0.950 . S
H311 C334 0.950 . S
H312 C335 0.950 . S
H313 C337 0.950 . S
H314 C338 0.950 . S
H315 C339 0.951 . S
H316 C341 0.951 . S
H317 C343 0.950 . S
H318 C344 0.950 . S
H319 C346 0.950 . S
H320 C349 0.950 . S
H321 C350 0.950 . S
H322 C352 0.950 . S
H323 C353 0.950 . S
C324 H306 0.951 . S
C324 C325 1.366 . S
C324 C326 1.388 . S
C325 C324 1.366 . S
C325 C329 1.385 . S
C326 H307 0.951 . S
C326 C324 1.388 . S
C326 C327 1.366 . S
C327 C326 1.366 . S
C327 C328 1.414 . S
C327 C330 1.499 . S
C328 H308 0.950 . S
C328 C327 1.414 . S
C328 C329 1.374 . S
C329 H309 0.950 . S
C329 C325 1.385 . S
C329 C328 1.374 . S
C330 C327 1.499 . S
C330 C331 1.373 . S
C330 C332 1.389 . S
C331 H310 0.950 . S
C331 C330 1.373 . S
C331 C347 1.377 . S
C332 C330 1.389 . S
C332 C333 1.524 . S
C332 C346 1.377 . S
C333 C332 1.524 . S
C333 C334 1.397 . S
C333 C338 1.363 . S
C334 H311 0.950 . S
C334 C333 1.397 . S
C334 C335 1.334 . S
C335 H312 0.950 . S
C335 C334 1.334 . S
C335 C336 1.287 . S
C336 C335 1.287 . S
C336 C337 1.524 . S
C336 H355 0.913 . S
C337 H313 0.950 . S
C337 C336 1.524 . S
C337 C338 1.415 . S
C338 H314 0.950 . S
C338 C333 1.363 . S
C338 C337 1.415 . S
C339 H315 0.951 . S
C339 C340 1.366 . S
C339 C341 1.388 . S
C340 C339 1.366 . S
C340 C344 1.385 . S
C341 H316 0.951 . S
C341 C339 1.388 . S
C341 C342 1.366 . S
C342 C341 1.366 . S
C342 C343 1.414 . S
C342 C345 1.499 . S
C343 H317 0.950 . S
C343 C342 1.414 . S
C343 C344 1.374 . S
C344 H318 0.950 . S
C344 C340 1.385 . S
C344 C343 1.374 . S
C345 C342 1.499 . S
C345 C346 1.373 . S
C345 C347 1.389 . S
C346 H319 0.950 . S
C346 C332 1.377 . S
C346 C345 1.373 . S
C347 C331 1.377 . S
C347 C345 1.389 . S
C347 C348 1.524 . S
C348 C347 1.524 . S
C348 C349 1.397 . S
C348 C353 1.363 . S
C349 H320 0.950 . S
C349 C348 1.397 . S
C349 C350 1.334 . S
C350 H321 0.950 . S
C350 C349 1.334 . S
C350 C351 1.287 . S
C351 C350 1.287 . S
C351 C352 1.524 . S
C351 H354 0.999 . S
C352 H322 0.950 . S
C352 C351 1.524 . S
C352 C353 1.415 . S
C353 H323 0.950 . S
C353 C348 1.363 . S
C353 C352 1.415 . S
H354 C351 0.999 . S
H355 C336 0.913 . S
H356 C374 0.951 . S
H357 C376 0.951 . S
H358 C378 0.950 . S
H359 C379 0.950 . S
H360 C381 0.950 . S
H361 C384 0.950 . S
H362 C385 0.950 . S
H363 C387 0.950 . S
H364 C388 0.950 . S
H365 C389 0.951 . S
H366 C391 0.951 . S
H367 C393 0.950 . S
H368 C394 0.950 . S
H369 C396 0.950 . S
H370 C399 0.950 . S
H371 C400 0.950 . S
H372 C402 0.950 . S
H373 C403 0.950 . S
C374 H356 0.951 . S
C374 C375 1.366 . S
C374 C376 1.388 . S
C375 C374 1.366 . S
C375 C379 1.385 . S
C376 H357 0.951 . S
C376 C374 1.388 . S
C376 C377 1.366 . S
C377 C376 1.366 . S
C377 C378 1.414 . S
C377 C380 1.499 . S
C378 H358 0.950 . S
C378 C377 1.414 . S
C378 C379 1.374 . S
C379 H359 0.950 . S
C379 C375 1.385 . S
C379 C378 1.374 . S
C380 C377 1.499 . S
C380 C381 1.373 . S
C380 C382 1.389 . S
C381 H360 0.950 . S
C381 C380 1.373 . S
C381 C397 1.377 . S
C382 C380 1.389 . S
C382 C383 1.524 . S
C382 C396 1.377 . S
C383 C382 1.524 . S
C383 C384 1.397 . S
C383 C388 1.363 . S
C384 H361 0.950 . S
C384 C383 1.397 . S
C384 C385 1.334 . S
C385 H362 0.950 . S
C385 C384 1.334 . S
C385 C386 1.287 . S
C386 C385 1.287 . S
C386 C387 1.524 . S
C386 H405 0.913 . S
C387 H363 0.950 . S
C387 C386 1.524 . S
C387 C388 1.415 . S
C388 H364 0.950 . S
C388 C383 1.363 . S
C388 C387 1.415 . S
C389 H365 0.951 . S
C389 C390 1.366 . S
C389 C391 1.388 . S
C390 C389 1.366 . S
C390 C394 1.385 . S
C391 H366 0.951 . S
C391 C389 1.388 . S
C391 C392 1.366 . S
C392 C391 1.366 . S
C392 C393 1.414 . S
C392 C395 1.499 . S
C393 H367 0.950 . S
C393 C392 1.414 . S
C393 C394 1.374 . S
C394 H368 0.950 . S
C394 C390 1.385 . S
C394 C393 1.374 . S
C395 C392 1.499 . S
C395 C396 1.373 . S
C395 C397 1.389 . S
C396 H369 0.950 . S
C396 C382 1.377 . S
C396 C395 1.373 . S
C397 C381 1.377 . S
C397 C395 1.389 . S
C397 C398 1.524 . S
C398 C397 1.524 . S
C398 C399 1.397 . S
C398 C403 1.363 . S
C399 H370 0.950 . S
C399 C398 1.397 . S
C399 C400 1.334 . S
C400 H371 0.950 . S
C400 C399 1.334 . S
C400 C401 1.287 . S
C401 C400 1.287 . S
C401 C402 1.524 . S
C401 H404 0.999 . S
C402 H372 0.950 . S
C402 C401 1.524 . S
C402 C403 1.415 . S
C403 H373 0.950 . S
C403 C398 1.363 . S
C403 C402 1.415 . S
H404 C401 0.999 . S
H405 C386 0.913 . S
H406 C424 0.951 . S
H407 C426 0.951 . S
H408 C428 0.950 . S
H409 C429 0.950 . S
H410 C431 0.950 . S
H411 C434 0.950 . S
H412 C435 0.950 . S
H413 C437 0.950 . S
H414 C438 0.950 . S
H415 C439 0.951 . S
H416 C441 0.951 . S
H417 C443 0.950 . S
H418 C444 0.950 . S
H419 C446 0.950 . S
H420 C449 0.950 . S
H421 C450 0.950 . S
H422 C452 0.950 . S
H423 C453 0.950 . S
C424 H406 0.951 . S
C424 C425 1.369 . S
C424 C426 1.388 . S
C425 C424 1.369 . S
C425 C429 1.381 1_455 S
C426 H407 0.951 . S
C426 C424 1.388 . S
C426 C427 1.357 1_455 S
C427 C426 1.357 1_655 S
C427 C428 1.422 . S
C427 C430 1.498 . S
C428 H408 0.950 . S
C428 C427 1.422 . S
C428 C429 1.374 . S
C429 H409 0.950 . S
C429 C425 1.381 1_655 S
C429 C428 1.374 . S
C430 C427 1.498 . S
C430 C431 1.380 . S
C430 C432 1.381 1_655 S
C431 H410 0.950 . S
C431 C430 1.380 . S
C431 C447 1.377 . S
C432 C430 1.381 1_455 S
C432 C433 1.524 . S
C432 C446 1.377 . S
C433 C432 1.524 . S
C433 C434 1.397 1_455 S
C433 C438 1.363 . S
C434 H411 0.950 . S
C434 C433 1.397 1_655 S
C434 C435 1.334 . S
C435 H412 0.950 . S
C435 C434 1.334 . S
C435 C436 1.287 1_655 S
C436 C435 1.287 1_455 S
C436 C437 1.524 . S
C436 H455 0.913 . S
C437 H413 0.950 . S
C437 C436 1.524 . S
C437 C438 1.415 . S
C438 H414 0.950 . S
C438 C433 1.363 . S
C438 C437 1.415 . S
C439 H415 0.951 . S
C439 C440 1.335 1_655 S
C439 C441 1.388 . S
C440 C439 1.335 1_455 S
C440 C444 1.417 . S
C441 H416 0.951 . S
C441 C439 1.388 . S
C441 C442 1.366 1_655 S
C442 C441 1.366 1_455 S
C442 C443 1.414 . S
C442 C445 1.499 . S
C443 H417 0.950 . S
C443 C442 1.414 . S
C443 C444 1.374 . S
C444 H418 0.950 . S
C444 C440 1.417 . S
C444 C443 1.374 . S
C445 C442 1.499 . S
C445 C446 1.373 . S
C445 C447 1.389 1_455 S
C446 H419 0.950 . S
C446 C432 1.377 . S
C446 C445 1.373 . S
C447 C431 1.377 . S
C447 C445 1.389 1_655 S
C447 C448 1.524 . S
C448 C447 1.524 . S
C448 C449 1.397 1_655 S
C448 C453 1.363 . S
C449 H420 0.950 . S
C449 C448 1.397 1_455 S
C449 C450 1.334 . S
C450 H421 0.950 . S
C450 C449 1.334 . S
C450 C451 1.287 1_455 S
C451 C450 1.287 1_655 S
C451 C452 1.524 . S
C451 H454 0.999 . S
C452 H422 0.950 . S
C452 C451 1.524 . S
C452 C453 1.415 . S
C453 H423 0.950 . S
C453 C448 1.363 . S
C453 C452 1.415 . S
H454 C451 0.999 . S
H455 C436 0.913 . S
H456 C474 0.951 . S
H457 C476 0.951 . S
H458 C478 0.950 . S
H459 C479 0.950 . S
H460 C481 0.950 . S
H461 C484 0.950 . S
H462 C485 0.950 . S
H463 C487 0.967 . S
H464 C488 0.950 . S
H465 C489 0.951 . S
H466 C491 0.951 . S
H467 C493 0.950 . S
H468 C494 0.950 . S
H469 C496 0.953 . S
H470 C499 0.950 . S
H471 C500 0.950 . S
H472 C502 0.954 . S
H473 C503 0.950 . S
C474 H456 0.951 . S
C474 C475 1.368 1_565 S
C474 C476 1.388 . S
C475 C474 1.368 1_545 S
C475 C479 1.382 . S
C476 H457 0.951 . S
C476 C474 1.388 . S
C476 C477 1.340 1_565 S
C477 C476 1.340 1_545 S
C477 C478 1.439 . S
C477 C480 1.500 . S
C478 H458 0.950 . S
C478 C477 1.439 . S
C478 C479 1.374 . S
C479 H459 0.950 . S
C479 C475 1.382 . S
C479 C478 1.374 . S
C480 C477 1.500 . S
C480 C481 1.373 1_545 S
C480 C482 1.389 . S
C481 H460 0.950 . S
C481 C480 1.373 1_565 S
C481 C497 1.377 1_554 S
C482 C480 1.389 . S
C482 C483 1.524 . S
C482 C496 1.380 . S
C483 C482 1.524 . S
C483 C484 1.397 . S
C483 C488 1.363 1_545 S
C484 H461 0.950 . S
C484 C483 1.397 . S
C484 C485 1.334 . S
C485 H462 0.950 . S
C485 C484 1.334 . S
C485 C486 1.287 . S
C486 C485 1.287 . S
C486 C487 1.498 1_545 S
C486 H505 0.913 . S
C487 H463 0.967 . S
C487 C486 1.498 1_565 S
C487 C488 1.422 . S
C488 H464 0.950 . S
C488 C483 1.363 1_565 S
C488 C487 1.422 . S
C489 H465 0.951 . S
C489 C490 1.355 1_545 S
C489 C491 1.388 . S
C490 C489 1.355 1_565 S
C490 C494 1.396 . S
C491 H466 0.951 . S
C491 C489 1.388 . S
C491 C492 1.366 1_545 S
C492 C491 1.366 1_565 S
C492 C493 1.414 . S
C492 C495 1.499 . S
C493 H467 0.950 . S
C493 C492 1.414 . S
C493 C494 1.374 . S
C494 H468 0.950 . S
C494 C490 1.396 . S
C494 C493 1.374 . S
C495 C492 1.499 . S
C495 C496 1.370 1_566 S
C495 C497 1.389 . S
C496 H469 0.953 . S
C496 C482 1.380 . S
C496 C495 1.370 1_544 S
C497 C481 1.377 1_556 S
C497 C495 1.389 . S
C497 C498 1.524 . S
C498 C497 1.524 . S
C498 C499 1.397 . S
C498 C503 1.363 1_565 S
C499 H470 0.950 . S
C499 C498 1.397 . S
C499 C500 1.334 . S
C500 H471 0.950 . S
C500 C499 1.334 . S
C500 C501 1.287 . S
C501 C500 1.287 . S
C501 C502 1.517 1_565 S
C501 H504 0.999 . S
C502 H472 0.954 . S
C502 C501 1.517 1_545 S
C502 C503 1.417 . S
C503 H473 0.950 . S
C503 C498 1.363 1_545 S
C503 C502 1.417 . S
H504 C501 0.999 . S
H505 C486 0.913 . S
H506 C524 0.951 . S
H507 C526 0.951 . S
H508 C528 0.950 . S
H509 C529 0.950 . S
H510 C531 0.950 . S
H511 C534 0.950 . S
H512 C535 0.950 . S
H513 C537 0.950 . S
H514 C538 0.950 . S
H515 C539 0.951 . S
H516 C541 0.951 . S
H517 C543 0.950 1_554 S
H518 C544 0.950 . S
H519 C546 0.950 . S
H520 C549 0.950 . S
H521 C550 0.950 . S
H522 C552 0.950 . S
H523 C553 0.950 . S
C524 H506 0.951 . S
C524 C525 1.366 . S
C524 C526 1.388 . S
C525 C524 1.366 . S
C525 C529 1.385 . S
C526 H507 0.951 . S
C526 C524 1.388 . S
C526 C527 1.366 . S
C527 C526 1.366 . S
C527 C528 1.414 . S
C527 C530 1.499 . S
C528 H508 0.950 . S
C528 C527 1.414 . S
C528 C529 1.374 . S
C529 H509 0.950 . S
C529 C525 1.385 . S
C529 C528 1.374 . S
C530 C527 1.499 . S
C530 C531 1.373 . S
C530 C532 1.389 . S
C531 H510 0.950 . S
C531 C530 1.373 . S
C531 C547 1.377 . S
C532 C530 1.389 . S
C532 C533 1.524 . S
C532 C546 1.377 . S
C533 C532 1.524 . S
C533 C534 1.397 . S
C533 C538 1.363 . S
C534 H511 0.950 . S
C534 C533 1.397 . S
C534 C535 1.334 . S
C535 H512 0.950 . S
C535 C534 1.334 . S
C535 C536 1.287 . S
C536 C535 1.287 . S
C536 C537 1.524 . S
C536 H555 0.913 . S
C537 H513 0.950 . S
C537 C536 1.524 . S
C537 C538 1.415 . S
C538 H514 0.950 . S
C538 C533 1.363 . S
C538 C537 1.415 . S
C539 H515 0.951 . S
C539 C540 1.366 . S
C539 C541 1.388 . S
C540 C539 1.366 . S
C540 C544 1.385 . S
C541 H516 0.951 . S
C541 C539 1.388 . S
C541 C542 1.366 . S
C542 C541 1.366 . S
C542 C543 1.414 . S
C542 C545 1.500 . S
C543 H517 0.950 1_556 S
C543 C542 1.414 . S
C543 C544 1.374 . S
C544 H518 0.950 . S
C544 C540 1.385 . S
C544 C543 1.374 . S
C545 C542 1.500 . S
C545 C546 1.372 1_556 S
C545 C547 1.389 1_556 S
C546 H519 0.950 . S
C546 C532 1.377 . S
C546 C545 1.372 1_554 S
C547 C531 1.377 . S
C547 C545 1.389 1_554 S
C547 C548 1.524 1_554 S
C548 C547 1.524 1_556 S
C548 C549 1.397 . S
C548 C553 1.363 . S
C549 H520 0.950 . S
C549 C548 1.397 . S
C549 C550 1.334 . S
C550 H521 0.950 . S
C550 C549 1.334 . S
C550 C551 1.287 . S
C551 C550 1.287 . S
C551 C552 1.524 . S
C551 H554 0.999 . S
C552 H522 0.950 . S
C552 C551 1.524 . S
C552 C553 1.415 . S
C553 H523 0.950 . S
C553 C548 1.363 . S
C553 C552 1.415 . S
H554 C551 0.999 . S
H555 C536 0.913 . S
H556 C574 0.951 . S
H557 C576 0.951 . S
H558 C578 0.950 . S
H559 C579 0.950 . S
H560 C581 0.950 . S
H561 C584 0.950 . S
H562 C585 0.950 . S
H563 C587 0.950 . S
H564 C588 0.950 . S
H565 C589 0.951 . S
H566 C591 0.951 1_554 S
H567 C593 0.950 . S
H568 C594 0.950 . S
H569 C596 0.950 . S
H570 C599 0.950 1_556 S
H571 C600 0.950 . S
H572 C602 0.950 . S
H573 C603 0.950 . S
C574 H556 0.951 . S
C574 C575 1.366 . S
C574 C576 1.388 . S
C575 C574 1.366 . S
C575 C579 1.385 . S
C576 H557 0.951 . S
C576 C574 1.388 . S
C576 C577 1.366 . S
C577 C576 1.366 . S
C577 C578 1.414 . S
C577 C580 1.499 . S
C578 H558 0.950 . S
C578 C577 1.414 . S
C578 C579 1.374 . S
C579 H559 0.950 . S
C579 C575 1.385 . S
C579 C578 1.374 . S
C580 C577 1.499 . S
C580 C581 1.373 . S
C580 C582 1.389 . S
C581 H560 0.950 . S
C581 C580 1.373 . S
C581 C597 1.377 . S
C582 C580 1.389 . S
C582 C583 1.524 . S
C582 C596 1.377 1_554 S
C583 C582 1.524 . S
C583 C584 1.397 . S
C583 C588 1.363 1_554 S
C584 H561 0.950 . S
C584 C583 1.397 . S
C584 C585 1.334 . S
C585 H562 0.950 . S
C585 C584 1.334 . S
C585 C586 1.287 1_554 S
C586 C585 1.287 1_556 S
C586 C587 1.524 . S
C586 H605 0.913 . S
C587 H563 0.950 . S
C587 C586 1.524 . S
C587 C588 1.415 . S
C588 H564 0.950 . S
C588 C583 1.363 1_556 S
C588 C587 1.415 . S
C589 H565 0.951 . S
C589 C590 1.366 . S
C589 C591 1.388 . S
C590 C589 1.366 . S
C590 C594 1.385 . S
C591 H566 0.951 1_556 S
C591 C589 1.388 . S
C591 C592 1.366 . S
C592 C591 1.366 . S
C592 C593 1.414 . S
C592 C595 1.499 . S
C593 H567 0.950 . S
C593 C592 1.414 . S
C593 C594 1.374 . S
C594 H568 0.950 . S
C594 C590 1.385 . S
C594 C593 1.374 . S
C595 C592 1.499 . S
C595 C596 1.373 . S
C595 C597 1.389 1_556 S
C596 H569 0.950 . S
C596 C582 1.377 1_556 S
C596 C595 1.373 . S
C597 C581 1.377 . S
C597 C595 1.389 1_554 S
C597 C598 1.524 . S
C598 C597 1.524 . S
C598 C599 1.397 . S
C598 C603 1.363 . S
C599 H570 0.950 1_554 S
C599 C598 1.397 . S
C599 C600 1.334 . S
C600 H571 0.950 . S
C600 C599 1.334 . S
C600 C601 1.287 . S
C601 C600 1.287 . S
C601 C602 1.524 . S
C601 H604 0.999 . S
C602 H572 0.950 . S
C602 C601 1.524 . S
C602 C603 1.415 . S
C603 H573 0.950 . S
C603 C598 1.363 . S
C603 C602 1.415 . S
H604 C601 0.999 . S
H605 C586 0.913 . S
H606 C624 0.951 . S
H607 C626 0.951 . S
H608 C628 0.950 . S
H609 C629 0.950 . S
H610 C631 0.950 . S
H611 C634 0.950 . S
H612 C635 0.950 . S
H613 C637 0.950 . S
H614 C638 0.950 . S
H615 C639 0.951 . S
H616 C641 0.951 . S
H617 C643 0.950 . S
H618 C644 0.950 . S
H619 C646 0.950 1_556 S
H620 C649 0.950 . S
H621 C650 0.950 . S
H622 C652 0.950 . S
H623 C653 0.949 1_556 S
C624 H606 0.951 . S
C624 C625 1.362 1_455 S
C624 C626 1.388 . S
C625 C624 1.362 1_655 S
C625 C629 1.388 . S
C626 H607 0.951 . S
C626 C624 1.388 . S
C626 C627 1.377 . S
C627 C626 1.377 . S
C627 C628 1.402 1_455 S
C627 C630 1.498 1_455 S
C628 H608 0.950 . S
C628 C627 1.402 1_655 S
C628 C629 1.374 . S
C629 H609 0.950 . S
C629 C625 1.388 . S
C629 C628 1.374 . S
C630 C627 1.498 1_655 S
C630 C631 1.373 . S
C630 C632 1.390 1_655 S
C631 H610 0.950 . S
C631 C630 1.373 . S
C631 C647 1.377 . S
C632 C630 1.390 1_455 S
C632 C633 1.524 . S
C632 C646 1.377 . S
C633 C632 1.524 . S
C633 C634 1.397 . S
C633 C638 1.363 . S
C634 H611 0.950 . S
C634 C633 1.397 . S
C634 C635 1.334 . S
C635 H612 0.950 . S
C635 C634 1.334 . S
C635 C636 1.287 . S
C636 C635 1.287 . S
C636 C637 1.524 . S
C636 H655 0.913 . S
C637 H613 0.950 . S
C637 C636 1.524 . S
C637 C638 1.415 . S
C638 H614 0.950 . S
C638 C633 1.363 . S
C638 C637 1.415 . S
C639 H615 0.951 . S
C639 C640 1.392 . S
C639 C641 1.388 . S
C640 C639 1.392 . S
C640 C644 1.359 1_655 S
C641 H616 0.951 . S
C641 C639 1.388 . S
C641 C642 1.366 . S
C642 C641 1.366 . S
C642 C643 1.414 1_655 S
C642 C645 1.500 1_556 S
C643 H617 0.950 . S
C643 C642 1.414 1_455 S
C643 C644 1.374 . S
C644 H618 0.950 . S
C644 C640 1.359 1_455 S
C644 C643 1.374 . S
C645 C642 1.500 1_554 S
C645 C646 1.333 1_655 S
C645 C647 1.429 . S
C646 H619 0.950 1_554 S
C646 C632 1.377 . S
C646 C645 1.333 1_455 S
C647 C631 1.377 . S
C647 C645 1.429 . S
C647 C648 1.524 . S
C648 C647 1.524 . S
C648 C649 1.397 . S
C648 C653 1.363 . S
C649 H620 0.950 . S
C649 C648 1.397 . S
C649 C650 1.334 . S
C650 H621 0.950 . S
C650 C649 1.334 . S
C650 C651 1.287 . S
C651 C650 1.287 . S
C651 C652 1.524 1_554 S
C651 H654 0.999 . S
C652 H622 0.950 . S
C652 C651 1.524 1_556 S
C652 C653 1.415 1_556 S
C653 H623 0.949 1_554 S
C653 C648 1.363 . S
C653 C652 1.415 1_554 S
H654 C651 0.999 . S
H655 C636 0.913 . S
H656 C674 0.951 . S
H657 C676 0.951 . S
H658 C678 0.950 . S
H659 C679 0.950 . S
H660 C681 0.950 1_455 S
H661 C684 0.950 1_455 S
H662 C685 0.950 1_455 S
H663 C687 0.950 . S
H664 C688 0.950 . S
H665 C689 0.951 1_455 S
H666 C691 0.951 1_455 S
H667 C693 0.950 . S
H668 C694 0.950 . S
H669 C696 0.950 . S
H670 C699 0.950 . S
H671 C700 0.950 . S
H672 C702 0.950 . S
H673 C703 0.950 . S
C674 H656 0.951 . S
C674 C675 1.366 1_655 S
C674 C676 1.388 . S
C675 C674 1.366 1_455 S
C675 C679 1.385 . S
C676 H657 0.951 . S
C676 C674 1.388 . S
C676 C677 1.366 . S
C677 C676 1.366 . S
C677 C678 1.414 1_655 S
C677 C680 1.499 . S
C678 H658 0.950 . S
C678 C677 1.414 1_455 S
C678 C679 1.374 . S
C679 H659 0.950 . S
C679 C675 1.385 . S
C679 C678 1.374 . S
C680 C677 1.499 . S
C680 C681 1.373 . S
C680 C682 1.389 . S
C681 H660 0.950 1_655 S
C681 C680 1.373 . S
C681 C697 1.377 . S
C682 C680 1.389 . S
C682 C683 1.524 . S
C682 C696 1.377 . S
C683 C682 1.524 . S
C683 C684 1.397 . S
C683 C688 1.363 . S
C684 H661 0.950 1_655 S
C684 C683 1.397 . S
C684 C685 1.334 . S
C685 H662 0.950 1_655 S
C685 C684 1.334 . S
C685 C686 1.287 . S
C686 C685 1.287 . S
C686 C687 1.524 . S
C686 H705 0.913 . S
C687 H663 0.950 . S
C687 C686 1.524 . S
C687 C688 1.415 . S
C688 H664 0.950 . S
C688 C683 1.363 . S
C688 C687 1.415 . S
C689 H665 0.951 1_655 S
C689 C690 1.366 . S
C689 C691 1.388 . S
C690 C689 1.366 . S
C690 C694 1.385 . S
C691 H666 0.951 1_655 S
C691 C689 1.388 . S
C691 C692 1.366 . S
C692 C691 1.366 . S
C692 C693 1.414 . S
C692 C695 1.499 . S
C693 H667 0.950 . S
C693 C692 1.414 . S
C693 C694 1.374 . S
C694 H668 0.950 . S
C694 C690 1.385 . S
C694 C693 1.374 . S
C695 C692 1.499 . S
C695 C696 1.373 . S
C695 C697 1.389 . S
C696 H669 0.950 . S
C696 C682 1.377 . S
C696 C695 1.373 . S
C697 C681 1.377 . S
C697 C695 1.389 . S
C697 C698 1.530 . S
C698 C697 1.530 . S
C698 C699 1.416 . S
C698 C703 1.340 1_655 S
C699 H670 0.950 . S
C699 C698 1.416 . S
C699 C700 1.334 . S
C700 H671 0.950 . S
C700 C699 1.334 . S
C700 C701 1.287 1_655 S
C701 C700 1.287 1_455 S
C701 C702 1.524 . S
C701 H704 0.999 . S
C702 H672 0.950 . S
C702 C701 1.524 . S
C702 C703 1.415 . S
C703 H673 0.950 . S
C703 C698 1.340 1_455 S
C703 C702 1.415 . S
H704 C701 0.999 . S
H705 C686 0.913 . S
H706 C724 0.951 . S
H707 C726 0.951 . S
H708 C728 0.950 1_545 S
H709 C729 0.950 . S
H710 C731 0.950 . S
H711 C734 0.950 . S
H712 C735 0.950 . S
H713 C737 0.950 . S
H714 C738 0.950 . S
H715 C739 0.951 . S
H716 C741 0.951 . S
H717 C743 0.950 . S
H718 C744 0.950 . S
H719 C746 0.950 1_545 S
H720 C749 0.950 . S
H721 C750 0.950 . S
H722 C752 0.950 . S
H723 C753 0.950 . S
C724 H706 0.951 . S
C724 C725 1.366 1_565 S
C724 C726 1.388 . S
C725 C724 1.366 1_545 S
C725 C729 1.385 . S
C726 H707 0.951 . S
C726 C724 1.388 . S
C726 C727 1.366 . S
C727 C726 1.366 . S
C727 C728 1.416 . S
C727 C730 1.499 . S
C728 H708 0.950 1_565 S
C728 C727 1.416 . S
C728 C729 1.372 1_565 S
C729 H709 0.950 . S
C729 C725 1.385 . S
C729 C728 1.372 1_545 S
C730 C727 1.499 . S
C730 C731 1.373 . S
C730 C732 1.389 1_565 S
C731 H710 0.950 . S
C731 C730 1.373 . S
C731 C747 1.377 . S
C732 C730 1.389 1_545 S
C732 C733 1.524 . S
C732 C746 1.377 1_545 S
C733 C732 1.524 . S
C733 C734 1.397 . S
C733 C738 1.363 . S
C734 H711 0.950 . S
C734 C733 1.397 . S
C734 C735 1.334 . S
C735 H712 0.950 . S
C735 C734 1.334 . S
C735 C736 1.287 . S
C736 C735 1.287 . S
C736 C737 1.524 . S
C736 H755 0.913 . S
C737 H713 0.950 . S
C737 C736 1.524 . S
C737 C738 1.415 . S
C738 H714 0.950 . S
C738 C733 1.363 . S
C738 C737 1.415 . S
C739 H715 0.951 . S
C739 C740 1.366 . S
C739 C741 1.388 . S
C740 C739 1.366 . S
C740 C744 1.385 . S
C741 H716 0.951 . S
C741 C739 1.388 . S
C741 C742 1.366 . S
C742 C741 1.366 . S
C742 C743 1.414 . S
C742 C745 1.499 . S
C743 H717 0.950 . S
C743 C742 1.414 . S
C743 C744 1.374 . S
C744 H718 0.950 . S
C744 C740 1.385 . S
C744 C743 1.374 . S
C745 C742 1.499 . S
C745 C746 1.373 . S
C745 C747 1.389 . S
C746 H719 0.950 1_565 S
C746 C732 1.377 1_565 S
C746 C745 1.373 . S
C747 C731 1.377 . S
C747 C745 1.389 . S
C747 C748 1.524 . S
C748 C747 1.524 . S
C748 C749 1.397 . S
C748 C753 1.363 . S
C749 H720 0.950 . S
C749 C748 1.397 . S
C749 C750 1.334 . S
C750 H721 0.950 . S
C750 C749 1.334 . S
C750 C751 1.287 . S
C751 C750 1.287 . S
C751 C752 1.524 . S
C751 H754 0.999 . S
C752 H722 0.950 . S
C752 C751 1.524 . S
C752 C753 1.415 . S
C753 H723 0.950 . S
C753 C748 1.363 . S
C753 C752 1.415 . S
H754 C751 0.999 . S
H755 C736 0.913 . S
H756 C774 0.951 . S
H757 C776 0.951 . S
H758 C778 0.950 . S
H759 C779 0.950 . S
H760 C781 0.950 . S
H761 C784 0.950 . S
H762 C785 0.950 1_556 S
H763 C787 0.950 . S
H764 C788 0.950 . S
H765 C789 0.951 . S
H766 C791 0.951 . S
H767 C793 0.950 . S
H768 C794 0.950 . S
H769 C796 0.950 . S
H770 C799 0.950 . S
H771 C800 0.950 . S
H772 C802 0.950 . S
H773 C803 0.950 . S
C774 H756 0.951 . S
C774 C775 1.366 . S
C774 C776 1.388 . S
C775 C774 1.366 . S
C775 C779 1.385 . S
C776 H757 0.951 . S
C776 C774 1.388 . S
C776 C777 1.366 . S
C777 C776 1.366 . S
C777 C778 1.414 . S
C777 C780 1.499 . S
C778 H758 0.950 . S
C778 C777 1.414 . S
C778 C779 1.374 . S
C779 H759 0.950 . S
C779 C775 1.385 . S
C779 C778 1.374 . S
C780 C777 1.499 . S
C780 C781 1.373 . S
C780 C782 1.389 . S
C781 H760 0.950 . S
C781 C780 1.373 . S
C781 C797 1.377 . S
C782 C780 1.389 . S
C782 C783 1.524 . S
C782 C796 1.377 . S
C783 C782 1.524 . S
C783 C784 1.397 . S
C783 C788 1.363 . S
C784 H761 0.950 . S
C784 C783 1.397 . S
C784 C785 1.334 . S
C785 H762 0.950 1_554 S
C785 C784 1.334 . S
C785 C786 1.287 . S
C786 C785 1.287 . S
C786 C787 1.524 . S
C786 H805 0.913 1_554 S
C787 H763 0.950 . S
C787 C786 1.524 . S
C787 C788 1.415 . S
C788 H764 0.950 . S
C788 C783 1.363 . S
C788 C787 1.415 . S
C789 H765 0.951 . S
C789 C790 1.366 . S
C789 C791 1.388 . S
C790 C789 1.366 . S
C790 C794 1.385 . S
C791 H766 0.951 . S
C791 C789 1.388 . S
C791 C792 1.366 . S
C792 C791 1.366 . S
C792 C793 1.414 . S
C792 C795 1.499 . S
C793 H767 0.950 . S
C793 C792 1.414 . S
C793 C794 1.374 . S
C794 H768 0.950 . S
C794 C790 1.385 . S
C794 C793 1.374 . S
C795 C792 1.499 . S
C795 C796 1.373 . S
C795 C797 1.389 . S
C796 H769 0.950 . S
C796 C782 1.377 . S
C796 C795 1.373 . S
C797 C781 1.377 . S
C797 C795 1.389 . S
C797 C798 1.524 . S
C798 C797 1.524 . S
C798 C799 1.397 . S
C798 C803 1.363 . S
C799 H770 0.950 . S
C799 C798 1.397 . S
C799 C800 1.334 . S
C800 H771 0.950 . S
C800 C799 1.334 . S
C800 C801 1.287 . S
C801 C800 1.287 . S
C801 C802 1.524 . S
C801 H804 0.999 . S
C802 H772 0.950 . S
C802 C801 1.524 . S
C802 C803 1.415 . S
C803 H773 0.950 . S
C803 C798 1.363 . S
C803 C802 1.415 . S
H804 C801 0.999 . S
H805 C786 0.913 1_556 S
H806 C824 0.951 . S
H807 C826 0.951 . S
H808 C828 0.950 . S
H809 C829 0.950 . S
H810 C831 0.950 . S
H811 C834 0.950 . S
H812 C835 0.950 . S
H813 C837 0.950 . S
H814 C838 0.950 . S
H815 C839 0.951 . S
H816 C841 0.951 . S
H817 C843 0.950 . S
H818 C844 0.950 . S
H819 C846 0.950 . S
H820 C849 0.950 . S
H821 C850 0.950 . S
H822 C852 0.950 . S
H823 C853 0.950 . S
C824 H806 0.951 . S
C824 C825 1.366 . S
C824 C826 1.388 . S
C825 C824 1.366 . S
C825 C829 1.385 . S
C826 H807 0.951 . S
C826 C824 1.388 . S
C826 C827 1.366 . S
C827 C826 1.366 . S
C827 C828 1.414 . S
C827 C830 1.499 . S
C828 H808 0.950 . S
C828 C827 1.414 . S
C828 C829 1.374 . S
C829 H809 0.950 . S
C829 C825 1.385 . S
C829 C828 1.374 . S
C830 C827 1.499 . S
C830 C831 1.373 . S
C830 C832 1.389 . S
C831 H810 0.950 . S
C831 C830 1.373 . S
C831 C847 1.377 . S
C832 C830 1.389 . S
C832 C833 1.524 . S
C832 C846 1.377 . S
C833 C832 1.524 . S
C833 C834 1.397 . S
C833 C838 1.363 . S
C834 H811 0.950 . S
C834 C833 1.397 . S
C834 C835 1.334 . S
C835 H812 0.950 . S
C835 C834 1.334 . S
C835 C836 1.287 . S
C836 C835 1.287 . S
C836 C837 1.524 . S
C836 H855 0.913 . S
C837 H813 0.950 . S
C837 C836 1.524 . S
C837 C838 1.415 . S
C838 H814 0.950 . S
C838 C833 1.363 . S
C838 C837 1.415 . S
C839 H815 0.951 . S
C839 C840 1.366 . S
C839 C841 1.388 . S
C840 C839 1.366 . S
C840 C844 1.385 . S
C841 H816 0.951 . S
C841 C839 1.388 . S
C841 C842 1.366 . S
C842 C841 1.366 . S
C842 C843 1.414 . S
C842 C845 1.499 . S
C843 H817 0.950 . S
C843 C842 1.414 . S
C843 C844 1.374 . S
C844 H818 0.950 . S
C844 C840 1.385 . S
C844 C843 1.374 . S
C845 C842 1.499 . S
C845 C846 1.373 . S
C845 C847 1.389 . S
C846 H819 0.950 . S
C846 C832 1.377 . S
C846 C845 1.373 . S
C847 C831 1.377 . S
C847 C845 1.389 . S
C847 C848 1.524 . S
C848 C847 1.524 . S
C848 C849 1.397 . S
C848 C853 1.363 . S
C849 H820 0.950 . S
C849 C848 1.397 . S
C849 C850 1.334 . S
C850 H821 0.950 . S
C850 C849 1.334 . S
C850 C851 1.287 . S
C851 C850 1.287 . S
C851 C852 1.524 . S
C851 H854 0.999 . S
C852 H822 0.950 . S
C852 C851 1.524 . S
C852 C853 1.415 . S
C853 H823 0.950 . S
C853 C848 1.363 . S
C853 C852 1.415 . S
H854 C851 0.999 . S
H855 C836 0.913 . S
H856 C874 0.951 . S
H857 C876 0.951 . S
H858 C878 0.950 . S
H859 C879 0.950 . S
H860 C881 0.950 . S
H861 C884 0.950 . S
H862 C885 0.950 . S
H863 C887 0.950 . S
H864 C888 0.950 . S
H865 C889 0.951 . S
H866 C891 0.951 . S
H867 C893 0.950 . S
H868 C894 0.950 . S
H869 C896 0.950 . S
H870 C899 0.950 . S
H871 C900 0.950 1_556 S
H872 C902 0.950 . S
H873 C903 0.950 . S
C874 H856 0.951 . S
C874 C875 1.366 1_455 S
C874 C876 1.388 . S
C875 C874 1.366 1_655 S
C875 C879 1.385 . S
C876 H857 0.951 . S
C876 C874 1.388 . S
C876 C877 1.366 . S
C877 C876 1.366 . S
C877 C878 1.414 1_455 S
C877 C880 1.499 . S
C878 H858 0.950 . S
C878 C877 1.414 1_655 S
C878 C879 1.374 . S
C879 H859 0.950 . S
C879 C875 1.385 . S
C879 C878 1.374 . S
C880 C877 1.499 . S
C880 C881 1.373 1_455 S
C880 C882 1.389 . S
C881 H860 0.950 . S
C881 C880 1.373 1_655 S
C881 C897 1.377 . S
C882 C880 1.389 . S
C882 C883 1.524 . S
C882 C896 1.377 . S
C883 C882 1.524 . S
C883 C884 1.397 . S
C883 C888 1.363 . S
C884 H861 0.950 . S
C884 C883 1.397 . S
C884 C885 1.334 . S
C885 H862 0.950 . S
C885 C884 1.334 . S
C885 C886 1.287 . S
C886 C885 1.287 . S
C886 C887 1.524 . S
C886 H905 0.913 . S
C887 H863 0.950 . S
C887 C886 1.524 . S
C887 C888 1.415 . S
C888 H864 0.950 . S
C888 C883 1.363 . S
C888 C887 1.415 . S
C889 H865 0.951 . S
C889 C890 1.366 1_554 S
C889 C891 1.388 . S
C890 C889 1.366 1_556 S
C890 C894 1.385 . S
C891 H866 0.951 . S
C891 C889 1.388 . S
C891 C892 1.366 . S
C892 C891 1.366 . S
C892 C893 1.414 1_554 S
C892 C895 1.499 . S
C893 H867 0.950 . S
C893 C892 1.414 1_556 S
C893 C894 1.374 . S
C894 H868 0.950 . S
C894 C890 1.385 . S
C894 C893 1.374 . S
C895 C892 1.499 . S
C895 C896 1.373 . S
C895 C897 1.389 1_455 S
C896 H869 0.950 . S
C896 C882 1.377 . S
C896 C895 1.373 . S
C897 C881 1.377 . S
C897 C895 1.389 1_655 S
C897 C898 1.524 . S
C898 C897 1.524 . S
C898 C899 1.397 . S
C898 C903 1.363 . S
C899 H870 0.950 . S
C899 C898 1.397 . S
C899 C900 1.334 . S
C900 H871 0.950 1_554 S
C900 C899 1.334 . S
C900 C901 1.287 . S
C901 C900 1.287 . S
C901 C902 1.524 . S
C901 H904 0.999 . S
C902 H872 0.950 . S
C902 C901 1.524 . S
C902 C903 1.415 . S
C903 H873 0.950 . S
C903 C898 1.363 . S
C903 C902 1.415 . S
H904 C901 0.999 . S
H905 C886 0.913 . S
H906 C924 0.951 . S
H907 C926 0.951 . S
H908 C928 0.950 . S
H909 C929 0.950 . S
H910 C931 0.925 1_565 S
H911 C934 0.950 . S
H912 C935 0.950 . S
H913 C937 0.950 . S
H914 C938 0.950 1_556 S
H915 C939 0.951 . S
H916 C941 0.951 . S
H917 C943 0.950 . S
H918 C944 0.950 . S
H919 C946 0.950 . S
H920 C949 0.950 . S
H921 C950 0.950 . S
H922 C952 0.950 . S
H923 C953 0.950 1_545 S
C924 H906 0.951 . S
C924 C925 1.377 . S
C924 C926 1.388 . S
C925 C924 1.377 . S
C925 C929 1.366 1_565 S
C926 H907 0.951 . S
C926 C924 1.388 . S
C926 C927 1.366 1_565 S
C927 C926 1.366 1_545 S
C927 C928 1.414 . S
C927 C930 1.499 . S
C928 H908 0.950 . S
C928 C927 1.414 . S
C928 C929 1.374 . S
C929 H909 0.950 . S
C929 C925 1.366 1_545 S
C929 C928 1.374 . S
C930 C927 1.499 . S
C930 C931 1.396 . S
C930 C932 1.389 . S
C931 H910 0.925 1_545 S
C931 C930 1.396 . S
C931 C947 1.381 . S
C932 C930 1.389 . S
C932 C933 1.524 . S
C932 C946 1.377 . S
C933 C932 1.524 . S
C933 C934 1.397 . S
C933 C938 1.363 . S
C934 H911 0.950 . S
C934 C933 1.397 . S
C934 C935 1.334 . S
C935 H912 0.950 . S
C935 C934 1.334 . S
C935 C936 1.287 . S
C936 C935 1.287 . S
C936 C937 1.524 1_554 S
C936 H955 0.913 . S
C937 H913 0.950 . S
C937 C936 1.524 1_556 S
C937 C938 1.415 1_556 S
C938 H914 0.950 1_554 S
C938 C933 1.363 . S
C938 C937 1.415 1_554 S
C939 H915 0.951 . S
C939 C940 1.366 1_554 S
C939 C941 1.388 . S
C940 C939 1.366 1_556 S
C940 C944 1.385 . S
C941 H916 0.951 . S
C941 C939 1.388 . S
C941 C942 1.366 . S
C942 C941 1.366 . S
C942 C943 1.414 1_554 S
C942 C945 1.499 . S
C943 H917 0.950 . S
C943 C942 1.414 1_556 S
C943 C944 1.374 . S
C944 H918 0.950 . S
C944 C940 1.385 . S
C944 C943 1.374 . S
C945 C942 1.499 . S
C945 C946 1.373 . S
C945 C947 1.389 . S
C946 H919 0.950 . S
C946 C932 1.377 . S
C946 C945 1.373 . S
C947 C931 1.381 . S
C947 C945 1.389 . S
C947 C948 1.524 1_545 S
C948 C947 1.524 1_565 S
C948 C949 1.397 . S
C948 C953 1.363 . S
C949 H920 0.950 . S
C949 C948 1.397 . S
C949 C950 1.334 . S
C950 H921 0.950 . S
C950 C949 1.334 . S
C950 C951 1.287 . S
C951 C950 1.287 . S
C951 C952 1.524 . S
C951 H954 0.999 . S
C952 H922 0.950 . S
C952 C951 1.524 . S
C952 C953 1.415 . S
C953 H923 0.950 1_565 S
C953 C948 1.363 . S
C953 C952 1.415 . S
H954 C951 0.999 . S
H955 C936 0.913 . S
H956 C974 0.951 . S
H957 C976 0.951 . S
H958 C978 0.950 . S
H959 C979 0.950 . S
H960 C981 0.950 . S
H961 C984 0.950 . S
H962 C985 0.950 . S
H963 C987 0.950 . S
H964 C988 0.950 . S
H965 C989 0.951 . S
H966 C991 0.951 . S
H967 C993 0.950 . S
H968 C994 0.950 . S
H969 C996 0.950 . S
H970 C999 0.950 . S
H971 C1000 0.950 . S
H972 C1002 0.950 . S
H973 C1003 0.950 . S
C974 H956 0.951 . S
C974 C975 1.366 . S
C974 C976 1.388 . S
C975 C974 1.366 . S
C975 C979 1.385 . S
C976 H957 0.951 . S
C976 C974 1.388 . S
C976 C977 1.366 . S
C977 C976 1.366 . S
C977 C978 1.414 . S
C977 C980 1.499 . S
C978 H958 0.950 . S
C978 C977 1.414 . S
C978 C979 1.374 . S
C979 H959 0.950 . S
C979 C975 1.385 . S
C979 C978 1.374 . S
C980 C977 1.499 . S
C980 C981 1.373 . S
C980 C982 1.389 . S
C981 H960 0.950 . S
C981 C980 1.373 . S
C981 C997 1.377 . S
C982 C980 1.389 . S
C982 C983 1.524 . S
C982 C996 1.377 . S
C983 C982 1.524 . S
C983 C984 1.397 . S
C983 C988 1.363 . S
C984 H961 0.950 . S
C984 C983 1.397 . S
C984 C985 1.334 . S
C985 H962 0.950 . S
C985 C984 1.334 . S
C985 C986 1.287 . S
C986 C985 1.287 . S
C986 C987 1.524 . S
C986 H1005 0.913 . S
C987 H963 0.950 . S
C987 C986 1.524 . S
C987 C988 1.415 . S
C988 H964 0.950 . S
C988 C983 1.363 . S
C988 C987 1.415 . S
C989 H965 0.951 . S
C989 C990 1.366 1_554 S
C989 C991 1.388 . S
C990 C989 1.366 1_556 S
C990 C994 1.385 . S
C991 H966 0.951 . S
C991 C989 1.388 . S
C991 C992 1.366 . S
C992 C991 1.366 . S
C992 C993 1.414 . S
C992 C995 1.499 . S
C993 H967 0.950 . S
C993 C992 1.414 . S
C993 C994 1.374 1_554 S
C994 H968 0.950 . S
C994 C990 1.385 . S
C994 C993 1.374 1_556 S
C995 C992 1.499 . S
C995 C996 1.373 . S
C995 C997 1.389 . S
C996 H969 0.950 . S
C996 C982 1.377 . S
C996 C995 1.373 . S
C997 C981 1.377 . S
C997 C995 1.389 . S
C997 C998 1.524 . S
C998 C997 1.524 . S
C998 C999 1.397 1_554 S
C998 C1003 1.363 . S
C999 H970 0.950 . S
C999 C998 1.397 1_556 S
C999 C1000 1.334 . S
C1000 H971 0.950 . S
C1000 C999 1.334 . S
C1000 C1001 1.287 . S
C1001 C1000 1.287 . S
C1001 C1002 1.524 1_556 S
C1001 H1004 0.999 . S
C1002 H972 0.950 . S
C1002 C1001 1.524 1_554 S
C1002 C1003 1.415 . S
C1003 H973 0.950 . S
C1003 C998 1.363 . S
C1003 C1002 1.415 . S
H1004 C1001 0.999 . S
H1005 C986 0.913 . S
H1006 C1024 0.951 . S
H1007 C1026 0.951 . S
H1008 C1028 0.950 . S
H1009 C1029 0.950 . S
H1010 C1031 0.950 . S
H1011 C1034 0.950 . S
H1012 C1035 0.950 . S
H1013 C1037 0.950 . S
H1014 C1038 0.950 . S
H1015 C1039 0.951 . S
H1016 C1041 0.951 . S
H1017 C1043 0.950 . S
H1018 C1044 0.950 . S
H1019 C1046 0.950 . S
H1020 C1049 0.950 . S
H1021 C1050 0.950 . S
H1022 C1052 0.950 . S
H1023 C1053 0.950 . S
C1024 H1006 0.951 . S
C1024 C1025 1.366 . S
C1024 C1026 1.388 . S
C1025 C1024 1.366 . S
C1025 C1029 1.385 . S
C1026 H1007 0.951 . S
C1026 C1024 1.388 . S
C1026 C1027 1.366 . S
C1027 C1026 1.366 . S
C1027 C1028 1.414 . S
C1027 C1030 1.499 . S
C1028 H1008 0.950 . S
C1028 C1027 1.414 . S
C1028 C1029 1.374 . S
C1029 H1009 0.950 . S
C1029 C1025 1.385 . S
C1029 C1028 1.374 . S
C1030 C1027 1.499 . S
C1030 C1031 1.373 . S
C1030 C1032 1.389 . S
C1031 H1010 0.950 . S
C1031 C1030 1.373 . S
C1031 C1047 1.377 . S
C1032 C1030 1.389 . S
C1032 C1033 1.524 . S
C1032 C1046 1.377 . S
C1033 C1032 1.524 . S
C1033 C1034 1.397 . S
C1033 C1038 1.363 . S
C1034 H1011 0.950 . S
C1034 C1033 1.397 . S
C1034 C1035 1.334 . S
C1035 H1012 0.950 . S
C1035 C1034 1.334 . S
C1035 C1036 1.287 1_554 S
C1036 C1035 1.287 1_556 S
C1036 C1037 1.524 . S
C1036 H1055 0.913 . S
C1037 H1013 0.950 . S
C1037 C1036 1.524 . S
C1037 C1038 1.415 1_556 S
C1038 H1014 0.950 . S
C1038 C1033 1.363 . S
C1038 C1037 1.415 1_554 S
C1039 H1015 0.951 . S
C1039 C1040 1.366 1_554 S
C1039 C1041 1.388 . S
C1040 C1039 1.366 1_556 S
C1040 C1044 1.385 . S
C1041 H1016 0.951 . S
C1041 C1039 1.388 . S
C1041 C1042 1.366 . S
C1042 C1041 1.366 . S
C1042 C1043 1.414 . S
C1042 C1045 1.499 . S
C1043 H1017 0.950 . S
C1043 C1042 1.414 . S
C1043 C1044 1.374 1_554 S
C1044 H1018 0.950 . S
C1044 C1040 1.385 . S
C1044 C1043 1.374 1_556 S
C1045 C1042 1.499 . S
C1045 C1046 1.373 . S
C1045 C1047 1.389 . S
C1046 H1019 0.950 . S
C1046 C1032 1.377 . S
C1046 C1045 1.373 . S
C1047 C1031 1.377 . S
C1047 C1045 1.389 . S
C1047 C1048 1.524 . S
C1048 C1047 1.524 . S
C1048 C1049 1.397 . S
C1048 C1053 1.363 . S
C1049 H1020 0.950 . S
C1049 C1048 1.397 . S
C1049 C1050 1.334 . S
C1050 H1021 0.950 . S
C1050 C1049 1.334 . S
C1050 C1051 1.287 . S
C1051 C1050 1.287 . S
C1051 C1052 1.524 . S
C1051 H1054 0.999 . S
C1052 H1022 0.950 . S
C1052 C1051 1.524 . S
C1052 C1053 1.415 . S
C1053 H1023 0.950 . S
C1053 C1048 1.363 . S
C1053 C1052 1.415 . S
H1054 C1051 0.999 . S
H1055 C1036 0.913 . S
H1056 C1074 0.951 1_554 S
H1057 C1076 0.951 . S
H1058 C1078 0.947 1_655 S
H1059 C1079 0.952 . S
H1060 C1081 0.950 . S
H1061 C1084 0.950 . S
H1062 C1085 0.950 . S
H1063 C1087 0.950 . S
H1064 C1088 0.950 . S
H1065 C1089 0.951 . S
H1066 C1091 0.951 . S
H1067 C1093 0.950 . S
H1068 C1094 0.950 . S
H1069 C1096 0.950 . S
H1070 C1099 0.950 . S
H1071 C1100 0.950 . S
H1072 C1102 0.950 . S
H1073 C1103 0.950 . S
C1074 H1056 0.951 1_556 S
C1074 C1075 1.372 . S
C1074 C1076 1.388 . S
C1075 C1074 1.372 . S
C1075 C1079 1.382 1_455 S
C1076 H1057 0.951 . S
C1076 C1074 1.388 . S
C1076 C1077 1.366 . S
C1077 C1076 1.366 . S
C1077 C1078 1.419 . S
C1077 C1080 1.499 . S
C1078 H1058 0.947 1_455 S
C1078 C1077 1.419 . S
C1078 C1079 1.372 1_455 S
C1079 H1059 0.952 . S
C1079 C1075 1.382 1_655 S
C1079 C1078 1.372 1_655 S
C1080 C1077 1.499 . S
C1080 C1081 1.373 1_455 S
C1080 C1082 1.389 . S
C1081 H1060 0.950 . S
C1081 C1080 1.373 1_655 S
C1081 C1097 1.377 . S
C1082 C1080 1.389 . S
C1082 C1083 1.524 . S
C1082 C1096 1.377 . S
C1083 C1082 1.524 . S
C1083 C1084 1.397 . S
C1083 C1088 1.363 1_556 S
C1084 H1061 0.950 . S
C1084 C1083 1.397 . S
C1084 C1085 1.334 . S
C1085 H1062 0.950 . S
C1085 C1084 1.334 . S
C1085 C1086 1.287 1_556 S
C1086 C1085 1.287 1_554 S
C1086 C1087 1.524 . S
C1086 H1105 0.913 . S
C1087 H1063 0.950 . S
C1087 C1086 1.524 . S
C1087 C1088 1.415 . S
C1088 H1064 0.950 . S
C1088 C1083 1.363 1_554 S
C1088 C1087 1.415 . S
C1089 H1065 0.951 . S
C1089 C1090 1.366 . S
C1089 C1091 1.388 . S
C1090 C1089 1.366 . S
C1090 C1094 1.385 . S
C1091 H1066 0.951 . S
C1091 C1089 1.388 . S
C1091 C1092 1.366 . S
C1092 C1091 1.366 . S
C1092 C1093 1.414 . S
C1092 C1095 1.499 . S
C1093 H1067 0.950 . S
C1093 C1092 1.414 . S
C1093 C1094 1.374 . S
C1094 H1068 0.950 . S
C1094 C1090 1.385 . S
C1094 C1093 1.374 . S
C1095 C1092 1.499 . S
C1095 C1096 1.373 . S
C1095 C1097 1.389 1_455 S
C1096 H1069 0.950 . S
C1096 C1082 1.377 . S
C1096 C1095 1.373 . S
C1097 C1081 1.377 . S
C1097 C1095 1.389 1_655 S
C1097 C1098 1.524 . S
C1098 C1097 1.524 . S
C1098 C1099 1.397 . S
C1098 C1103 1.363 . S
C1099 H1070 0.950 . S
C1099 C1098 1.397 . S
C1099 C1100 1.334 . S
C1100 H1071 0.950 . S
C1100 C1099 1.334 . S
C1100 C1101 1.287 . S
C1101 C1100 1.287 . S
C1101 C1102 1.524 . S
C1101 H1104 0.999 . S
C1102 H1072 0.950 . S
C1102 C1101 1.524 . S
C1102 C1103 1.415 . S
C1103 H1073 0.950 . S
C1103 C1098 1.363 . S
C1103 C1102 1.415 . S
H1104 C1101 0.999 . S
H1105 C1086 0.913 . S
H1106 C1124 0.950 1_554 S
H1107 C1126 0.951 . S
H1108 C1128 0.950 . S
H1109 C1129 0.950 . S
H1110 C1131 0.946 1_565 S
H1111 C1134 0.950 1_556 S
H1112 C1135 0.950 . S
H1113 C1137 0.950 . S
H1114 C1138 0.950 1_565 S
H1115 C1139 0.951 . S
H1116 C1141 0.951 . S
H1117 C1143 0.950 . S
H1118 C1144 0.950 . S
H1119 C1146 0.950 . S
H1120 C1149 0.950 . S
H1121 C1150 0.950 . S
H1122 C1152 0.925 1_545 S
H1123 C1153 0.950 . S
C1124 H1106 0.950 1_556 S
C1124 C1125 1.341 1_565 S
C1124 C1126 1.388 . S
C1125 C1124 1.341 1_545 S
C1125 C1129 1.413 . S
C1126 H1107 0.951 . S
C1126 C1124 1.388 . S
C1126 C1127 1.366 1_565 S
C1127 C1126 1.366 1_545 S
C1127 C1128 1.414 . S
C1127 C1130 1.499 . S
C1128 H1108 0.950 . S
C1128 C1127 1.414 . S
C1128 C1129 1.374 . S
C1129 H1109 0.950 . S
C1129 C1125 1.413 . S
C1129 C1128 1.374 . S
C1130 C1127 1.499 . S
C1130 C1131 1.373 . S
C1130 C1132 1.389 . S
C1131 H1110 0.946 1_545 S
C1131 C1130 1.373 . S
C1131 C1147 1.378 . S
C1132 C1130 1.389 . S
C1132 C1133 1.524 1_556 S
C1132 C1146 1.377 . S
C1133 C1132 1.524 1_554 S
C1133 C1134 1.397 . S
C1133 C1138 1.363 . S
C1134 H1111 0.950 1_554 S
C1134 C1133 1.397 . S
C1134 C1135 1.334 . S
C1135 H1112 0.950 . S
C1135 C1134 1.334 . S
C1135 C1136 1.287 . S
C1136 C1135 1.287 . S
C1136 C1137 1.524 . S
C1136 H1155 0.913 . S
C1137 H1113 0.950 . S
C1137 C1136 1.524 . S
C1137 C1138 1.415 . S
C1138 H1114 0.950 1_545 S
C1138 C1133 1.363 . S
C1138 C1137 1.415 . S
C1139 H1115 0.951 . S
C1139 C1140 1.366 . S
C1139 C1141 1.388 . S
C1140 C1139 1.366 . S
C1140 C1144 1.385 1_545 S
C1141 H1116 0.951 . S
C1141 C1139 1.388 . S
C1141 C1142 1.366 . S
C1142 C1141 1.366 . S
C1142 C1143 1.414 1_545 S
C1142 C1145 1.499 . S
C1143 H1117 0.950 . S
C1143 C1142 1.414 1_565 S
C1143 C1144 1.374 . S
C1144 H1118 0.950 . S
C1144 C1140 1.385 1_565 S
C1144 C1143 1.374 . S
C1145 C1142 1.499 . S
C1145 C1146 1.373 . S
C1145 C1147 1.394 . S
C1146 H1119 0.950 . S
C1146 C1132 1.377 . S
C1146 C1145 1.373 . S
C1147 C1131 1.378 . S
C1147 C1145 1.394 . S
C1147 C1148 1.518 1_545 S
C1148 C1147 1.518 1_565 S
C1148 C1149 1.397 . S
C1148 C1153 1.363 1_565 S
C1149 H1120 0.950 . S
C1149 C1148 1.397 . S
C1149 C1150 1.334 . S
C1150 H1121 0.950 . S
C1150 C1149 1.334 . S
C1150 C1151 1.287 . S
C1151 C1150 1.287 . S
C1151 C1152 1.569 . S
C1151 H1154 0.999 . S
C1152 H1122 0.925 1_565 S
C1152 C1151 1.569 . S
C1152 C1153 1.401 1_565 S
C1153 H1123 0.950 . S
C1153 C1148 1.363 1_545 S
C1153 C1152 1.401 1_545 S
H1154 C1151 0.999 . S
H1155 C1136 0.913 . S
H1156 C1174 0.951 . S
H1157 C1176 0.951 . S
H1158 C1178 0.950 . S
H1159 C1179 0.950 . S
H1160 C1181 0.950 . S
H1161 C1184 0.950 . S
H1162 C1185 0.950 . S
H1163 C1187 0.950 . S
H1164 C1188 0.950 . S
H1165 C1189 0.951 . S
H1166 C1191 0.951 . S
H1167 C1193 0.950 . S
H1168 C1194 0.950 . S
H1169 C1196 0.950 . S
H1170 C1199 0.950 . S
H1171 C1200 0.950 . S
H1172 C1202 0.950 . S
H1173 C1203 0.950 . S
C1174 H1156 0.951 . S
C1174 C1175 1.366 . S
C1174 C1176 1.388 . S
C1175 C1174 1.366 . S
C1175 C1179 1.385 . S
C1176 H1157 0.951 . S
C1176 C1174 1.388 . S
C1176 C1177 1.366 . S
C1177 C1176 1.366 . S
C1177 C1178 1.414 . S
C1177 C1180 1.499 . S
C1178 H1158 0.950 . S
C1178 C1177 1.414 . S
C1178 C1179 1.374 . S
C1179 H1159 0.950 . S
C1179 C1175 1.385 . S
C1179 C1178 1.374 . S
C1180 C1177 1.499 . S
C1180 C1181 1.373 . S
C1180 C1182 1.389 . S
C1181 H1160 0.950 . S
C1181 C1180 1.373 . S
C1181 C1197 1.377 . S
C1182 C1180 1.389 . S
C1182 C1183 1.524 . S
C1182 C1196 1.377 . S
C1183 C1182 1.524 . S
C1183 C1184 1.397 . S
C1183 C1188 1.363 . S
C1184 H1161 0.950 . S
C1184 C1183 1.397 . S
C1184 C1185 1.334 . S
C1185 H1162 0.950 . S
C1185 C1184 1.334 . S
C1185 C1186 1.287 . S
C1186 C1185 1.287 . S
C1186 C1187 1.524 . S
C1186 H1205 0.913 . S
C1187 H1163 0.950 . S
C1187 C1186 1.524 . S
C1187 C1188 1.415 . S
C1188 H1164 0.950 . S
C1188 C1183 1.363 . S
C1188 C1187 1.415 . S
C1189 H1165 0.951 . S
C1189 C1190 1.366 . S
C1189 C1191 1.388 . S
C1190 C1189 1.366 . S
C1190 C1194 1.385 . S
C1191 H1166 0.951 . S
C1191 C1189 1.388 . S
C1191 C1192 1.366 . S
C1192 C1191 1.366 . S
C1192 C1193 1.414 . S
C1192 C1195 1.499 . S
C1193 H1167 0.950 . S
C1193 C1192 1.414 . S
C1193 C1194 1.374 . S
C1194 H1168 0.950 . S
C1194 C1190 1.385 . S
C1194 C1193 1.374 . S
C1195 C1192 1.499 . S
C1195 C1196 1.373 . S
C1195 C1197 1.389 . S
C1196 H1169 0.950 . S
C1196 C1182 1.377 . S
C1196 C1195 1.373 . S
C1197 C1181 1.377 . S
C1197 C1195 1.389 . S
C1197 C1198 1.524 . S
C1198 C1197 1.524 . S
C1198 C1199 1.397 . S
C1198 C1203 1.363 . S
C1199 H1170 0.950 . S
C1199 C1198 1.397 . S
C1199 C1200 1.334 1_556 S
C1200 H1171 0.950 . S
C1200 C1199 1.334 1_554 S
C1200 C1201 1.287 . S
C1201 C1200 1.287 . S
C1201 C1202 1.524 1_554 S
C1201 H1204 0.999 . S
C1202 H1172 0.950 . S
C1202 C1201 1.524 1_556 S
C1202 C1203 1.415 . S
C1203 H1173 0.950 . S
C1203 C1198 1.363 . S
C1203 C1202 1.415 . S
H1204 C1201 0.999 . S
H1205 C1186 0.913 . S
H1206 C1224 0.951 . S
H1207 C1226 0.951 . S
H1208 C1228 0.950 . S
H1209 C1229 0.950 1_554 S
H1210 C1231 0.950 . S
H1211 C1234 0.950 . S
H1212 C1235 0.950 . S
H1213 C1237 0.950 . S
H1214 C1238 0.950 . S
H1215 C1239 0.951 . S
H1216 C1241 0.951 . S
H1217 C1243 0.950 . S
H1218 C1244 0.950 . S
H1219 C1246 0.950 . S
H1220 C1249 0.950 . S
H1221 C1250 0.950 . S
H1222 C1252 0.950 . S
H1223 C1253 0.950 . S
C1224 H1206 0.951 . S
C1224 C1225 1.366 . S
C1224 C1226 1.388 . S
C1225 C1224 1.366 . S
C1225 C1229 1.385 . S
C1226 H1207 0.951 . S
C1226 C1224 1.388 . S
C1226 C1227 1.366 . S
C1227 C1226 1.366 . S
C1227 C1228 1.414 . S
C1227 C1230 1.499 . S
C1228 H1208 0.950 . S
C1228 C1227 1.414 . S
C1228 C1229 1.374 . S
C1229 H1209 0.950 1_556 S
C1229 C1225 1.385 . S
C1229 C1228 1.374 . S
C1230 C1227 1.499 . S
C1230 C1231 1.373 . S
C1230 C1232 1.389 . S
C1231 H1210 0.950 . S
C1231 C1230 1.373 . S
C1231 C1247 1.377 . S
C1232 C1230 1.389 . S
C1232 C1233 1.524 . S
C1232 C1246 1.377 . S
C1233 C1232 1.524 . S
C1233 C1234 1.397 . S
C1233 C1238 1.363 . S
C1234 H1211 0.950 . S
C1234 C1233 1.397 . S
C1234 C1235 1.334 . S
C1235 H1212 0.950 . S
C1235 C1234 1.334 . S
C1235 C1236 1.287 . S
C1236 C1235 1.287 . S
C1236 C1237 1.524 . S
C1236 H1255 0.913 . S
C1237 H1213 0.950 . S
C1237 C1236 1.524 . S
C1237 C1238 1.415 . S
C1238 H1214 0.950 . S
C1238 C1233 1.363 . S
C1238 C1237 1.415 . S
C1239 H1215 0.951 . S
C1239 C1240 1.366 . S
C1239 C1241 1.388 . S
C1240 C1239 1.366 . S
C1240 C1244 1.385 . S
C1241 H1216 0.951 . S
C1241 C1239 1.388 . S
C1241 C1242 1.366 . S
C1242 C1241 1.366 . S
C1242 C1243 1.414 . S
C1242 C1245 1.499 . S
C1243 H1217 0.950 . S
C1243 C1242 1.414 . S
C1243 C1244 1.374 . S
C1244 H1218 0.950 . S
C1244 C1240 1.385 . S
C1244 C1243 1.374 . S
C1245 C1242 1.499 . S
C1245 C1246 1.373 . S
C1245 C1247 1.389 . S
C1246 H1219 0.950 . S
C1246 C1232 1.377 . S
C1246 C1245 1.373 . S
C1247 C1231 1.377 . S
C1247 C1245 1.389 . S
C1247 C1248 1.524 . S
C1248 C1247 1.524 . S
C1248 C1249 1.397 . S
C1248 C1253 1.363 1_556 S
C1249 H1220 0.950 . S
C1249 C1248 1.397 . S
C1249 C1250 1.334 . S
C1250 H1221 0.950 . S
C1250 C1249 1.334 . S
C1250 C1251 1.287 1_556 S
C1251 C1250 1.287 1_554 S
C1251 C1252 1.524 . S
C1251 H1254 0.999 . S
C1252 H1222 0.950 . S
C1252 C1251 1.524 . S
C1252 C1253 1.415 . S
C1253 H1223 0.950 . S
C1253 C1248 1.363 1_554 S
C1253 C1252 1.415 . S
H1254 C1251 0.999 . S
H1255 C1236 0.913 . S
H1256 C1274 0.951 . S
H1257 C1276 0.951 . S
H1258 C1278 0.950 . S
H1259 C1279 0.950 . S
H1260 C1281 0.950 . S
H1261 C1284 0.950 . S
H1262 C1285 0.950 . S
H1263 C1287 0.950 1_455 S
H1264 C1288 0.950 . S
H1265 C1289 0.951 . S
H1266 C1291 0.951 . S
H1267 C1293 0.950 . S
H1268 C1294 0.950 . S
H1269 C1296 0.950 . S
H1270 C1299 0.950 . S
H1271 C1300 0.950 . S
H1272 C1302 0.950 . S
H1273 C1303 0.950 . S
C1274 H1256 0.951 . S
C1274 C1275 1.339 1_455 S
C1274 C1276 1.388 . S
C1275 C1274 1.339 1_655 S
C1275 C1279 1.416 . S
C1276 H1257 0.951 . S
C1276 C1274 1.388 . S
C1276 C1277 1.366 1_455 S
C1277 C1276 1.366 1_655 S
C1277 C1278 1.414 . S
C1277 C1280 1.499 . S
C1278 H1258 0.950 . S
C1278 C1277 1.414 . S
C1278 C1279 1.374 . S
C1279 H1259 0.950 . S
C1279 C1275 1.416 . S
C1279 C1278 1.374 . S
C1280 C1277 1.499 . S
C1280 C1281 1.373 . S
C1280 C1282 1.389 . S
C1281 H1260 0.950 . S
C1281 C1280 1.373 . S
C1281 C1297 1.377 . S
C1282 C1280 1.389 . S
C1282 C1283 1.524 . S
C1282 C1296 1.377 . S
C1283 C1282 1.524 . S
C1283 C1284 1.397 . S
C1283 C1288 1.363 1_655 S
C1284 H1261 0.950 . S
C1284 C1283 1.397 . S
C1284 C1285 1.334 . S
C1285 H1262 0.950 . S
C1285 C1284 1.334 . S
C1285 C1286 1.287 . S
C1286 C1285 1.287 . S
C1286 C1287 1.524 . S
C1286 H1305 0.913 . S
C1287 H1263 0.950 1_655 S
C1287 C1286 1.524 . S
C1287 C1288 1.415 1_655 S
C1288 H1264 0.950 . S
C1288 C1283 1.363 1_455 S
C1288 C1287 1.415 1_455 S
C1289 H1265 0.951 . S
C1289 C1290 1.366 . S
C1289 C1291 1.388 . S
C1290 C1289 1.366 . S
C1290 C1294 1.385 1_655 S
C1291 H1266 0.951 . S
C1291 C1289 1.388 . S
C1291 C1292 1.366 . S
C1292 C1291 1.366 . S
C1292 C1293 1.414 1_655 S
C1292 C1295 1.499 . S
C1293 H1267 0.950 . S
C1293 C1292 1.414 1_455 S
C1293 C1294 1.374 . S
C1294 H1268 0.950 . S
C1294 C1290 1.385 1_455 S
C1294 C1293 1.374 . S
C1295 C1292 1.499 . S
C1295 C1296 1.373 . S
C1295 C1297 1.389 . S
C1296 H1269 0.950 . S
C1296 C1282 1.377 . S
C1296 C1295 1.373 . S
C1297 C1281 1.377 . S
C1297 C1295 1.389 . S
C1297 C1298 1.524 1_655 S
C1298 C1297 1.524 1_455 S
C1298 C1299 1.397 . S
C1298 C1303 1.363 1_455 S
C1299 H1270 0.950 . S
C1299 C1298 1.397 . S
C1299 C1300 1.334 . S
C1300 H1271 0.950 . S
C1300 C1299 1.334 . S
C1300 C1301 1.287 . S
C1301 C1300 1.287 . S
C1301 C1302 1.524 1_455 S
C1301 H1304 0.999 . S
C1302 H1272 0.950 . S
C1302 C1301 1.524 1_655 S
C1302 C1303 1.415 . S
C1303 H1273 0.950 . S
C1303 C1298 1.363 1_655 S
C1303 C1302 1.415 . S
H1304 C1301 0.999 . S
H1305 C1286 0.913 . S
H1306 C1324 0.951 . S
H1307 C1326 0.951 . S
H1308 C1328 0.950 . S
H1309 C1329 0.950 . S
H1310 C1331 0.950 . S
H1311 C1334 0.950 . S
H1312 C1335 0.950 . S
H1313 C1337 0.950 . S
H1314 C1338 0.950 . S
H1315 C1339 0.951 . S
H1316 C1341 0.951 . S
H1317 C1343 0.950 . S
H1318 C1344 0.950 . S
H1319 C1346 0.950 . S
H1320 C1349 0.950 . S
H1321 C1350 0.950 . S
H1322 C1352 0.950 . S
H1323 C1353 0.950 . S
C1324 H1306 0.951 . S
C1324 C1325 1.338 1_545 S
C1324 C1326 1.388 . S
C1325 C1324 1.338 1_565 S
C1325 C1329 1.414 . S
C1326 H1307 0.951 . S
C1326 C1324 1.388 . S
C1326 C1327 1.366 1_545 S
C1327 C1326 1.366 1_565 S
C1327 C1328 1.414 . S
C1327 C1330 1.499 . S
C1328 H1308 0.950 . S
C1328 C1327 1.414 . S
C1328 C1329 1.374 . S
C1329 H1309 0.950 . S
C1329 C1325 1.414 . S
C1329 C1328 1.374 . S
C1330 C1327 1.499 . S
C1330 C1331 1.373 . S
C1330 C1332 1.389 1_565 S
C1331 H1310 0.950 . S
C1331 C1330 1.373 . S
C1331 C1347 1.377 . S
C1332 C1330 1.389 1_545 S
C1332 C1333 1.524 . S
C1332 C1346 1.377 . S
C1333 C1332 1.524 . S
C1333 C1334 1.397 . S
C1333 C1338 1.363 . S
C1334 H1311 0.950 . S
C1334 C1333 1.397 . S
C1334 C1335 1.334 . S
C1335 H1312 0.950 . S
C1335 C1334 1.334 . S
C1335 C1336 1.287 . S
C1336 C1335 1.287 . S
C1336 C1337 1.524 . S
C1336 H1355 0.913 . S
C1337 H1313 0.950 . S
C1337 C1336 1.524 . S
C1337 C1338 1.415 . S
C1338 H1314 0.950 . S
C1338 C1333 1.363 . S
C1338 C1337 1.415 . S
C1339 H1315 0.951 . S
C1339 C1340 1.366 . S
C1339 C1341 1.388 . S
C1340 C1339 1.366 . S
C1340 C1344 1.385 1_565 S
C1341 H1316 0.951 . S
C1341 C1339 1.388 . S
C1341 C1342 1.366 . S
C1342 C1341 1.366 . S
C1342 C1343 1.414 1_565 S
C1342 C1345 1.499 . S
C1343 H1317 0.950 . S
C1343 C1342 1.414 1_545 S
C1343 C1344 1.374 . S
C1344 H1318 0.950 . S
C1344 C1340 1.385 1_545 S
C1344 C1343 1.374 . S
C1345 C1342 1.499 . S
C1345 C1346 1.373 1_565 S
C1345 C1347 1.389 . S
C1346 H1319 0.950 . S
C1346 C1332 1.377 . S
C1346 C1345 1.373 1_545 S
C1347 C1331 1.377 . S
C1347 C1345 1.389 . S
C1347 C1348 1.524 . S
C1348 C1347 1.524 . S
C1348 C1349 1.397 . S
C1348 C1353 1.363 . S
C1349 H1320 0.950 . S
C1349 C1348 1.397 . S
C1349 C1350 1.334 . S
C1350 H1321 0.950 . S
C1350 C1349 1.334 . S
C1350 C1351 1.287 . S
C1351 C1350 1.287 . S
C1351 C1352 1.524 . S
C1351 H1354 0.999 . S
C1352 H1322 0.950 . S
C1352 C1351 1.524 . S
C1352 C1353 1.415 . S
C1353 H1323 0.950 . S
C1353 C1348 1.363 . S
C1353 C1352 1.415 . S
H1354 C1351 0.999 . S
H1355 C1336 0.913 . S
H1356 C1374 0.951 . S
H1357 C1376 0.951 . S
H1358 C1378 0.950 . S
H1359 C1379 0.950 . S
H1360 C1381 0.950 . S
H1361 C1384 0.950 . S
H1362 C1385 0.950 . S
H1363 C1387 0.950 . S
H1364 C1388 0.950 . S
H1365 C1389 0.951 . S
H1366 C1391 0.951 . S
H1367 C1393 0.950 . S
H1368 C1394 0.950 . S
H1369 C1396 0.950 . S
H1370 C1399 0.950 . S
H1371 C1400 0.950 . S
H1372 C1402 0.950 . S
H1373 C1403 0.950 . S
C1374 H1356 0.951 . S
C1374 C1375 1.366 . S
C1374 C1376 1.388 . S
C1375 C1374 1.366 . S
C1375 C1379 1.385 . S
C1376 H1357 0.951 . S
C1376 C1374 1.388 . S
C1376 C1377 1.366 . S
C1377 C1376 1.366 . S
C1377 C1378 1.414 . S
C1377 C1380 1.499 . S
C1378 H1358 0.950 . S
C1378 C1377 1.414 . S
C1378 C1379 1.374 . S
C1379 H1359 0.950 . S
C1379 C1375 1.385 . S
C1379 C1378 1.374 . S
C1380 C1377 1.499 . S
C1380 C1381 1.373 . S
C1380 C1382 1.389 . S
C1381 H1360 0.950 . S
C1381 C1380 1.373 . S
C1381 C1397 1.377 . S
C1382 C1380 1.389 . S
C1382 C1383 1.524 . S
C1382 C1396 1.377 . S
C1383 C1382 1.524 . S
C1383 C1384 1.397 . S
C1383 C1388 1.363 . S
C1384 H1361 0.950 . S
C1384 C1383 1.397 . S
C1384 C1385 1.334 . S
C1385 H1362 0.950 . S
C1385 C1384 1.334 . S
C1385 C1386 1.287 . S
C1386 C1385 1.287 . S
C1386 C1387 1.524 . S
C1386 H1405 0.913 . S
C1387 H1363 0.950 . S
C1387 C1386 1.524 . S
C1387 C1388 1.415 . S
C1388 H1364 0.950 . S
C1388 C1383 1.363 . S
C1388 C1387 1.415 . S
C1389 H1365 0.951 . S
C1389 C1390 1.366 . S
C1389 C1391 1.388 . S
C1390 C1389 1.366 . S
C1390 C1394 1.385 . S
C1391 H1366 0.951 . S
C1391 C1389 1.388 . S
C1391 C1392 1.366 . S
C1392 C1391 1.366 . S
C1392 C1393 1.414 . S
C1392 C1395 1.499 . S
C1393 H1367 0.950 . S
C1393 C1392 1.414 . S
C1393 C1394 1.374 . S
C1394 H1368 0.950 . S
C1394 C1390 1.385 . S
C1394 C1393 1.374 . S
C1395 C1392 1.499 . S
C1395 C1396 1.373 . S
C1395 C1397 1.389 . S
C1396 H1369 0.950 . S
C1396 C1382 1.377 . S
C1396 C1395 1.373 . S
C1397 C1381 1.377 . S
C1397 C1395 1.389 . S
C1397 C1398 1.524 . S
C1398 C1397 1.524 . S
C1398 C1399 1.397 . S
C1398 C1403 1.363 . S
C1399 H1370 0.950 . S
C1399 C1398 1.397 . S
C1399 C1400 1.334 . S
C1400 H1371 0.950 . S
C1400 C1399 1.334 . S
C1400 C1401 1.287 . S
C1401 C1400 1.287 . S
C1401 C1402 1.524 . S
C1401 H1404 0.999 . S
C1402 H1372 0.950 . S
C1402 C1401 1.524 . S
C1402 C1403 1.415 . S
C1403 H1373 0.950 . S
C1403 C1398 1.363 . S
C1403 C1402 1.415 . S
H1404 C1401 0.999 . S
H1405 C1386 0.913 . S
H1406 C1424 0.951 . S
H1407 C1426 0.951 . S
H1408 C1428 0.950 . S
H1409 C1429 0.950 . S
H1410 C1431 0.950 . S
H1411 C1434 0.950 . S
H1412 C1435 0.950 . S
H1413 C1437 0.950 . S
H1414 C1438 0.950 . S
H1415 C1439 0.951 . S
H1416 C1441 0.951 . S
H1417 C1443 0.950 . S
H1418 C1444 0.950 . S
H1419 C1446 0.950 . S
H1420 C1449 0.950 . S
H1421 C1450 0.950 . S
H1422 C1452 0.950 . S
H1423 C1453 0.950 . S
C1424 H1406 0.951 . S
C1424 C1425 1.366 . S
C1424 C1426 1.388 . S
C1425 C1424 1.366 . S
C1425 C1429 1.385 . S
C1426 H1407 0.951 . S
C1426 C1424 1.388 . S
C1426 C1427 1.366 . S
C1427 C1426 1.366 . S
C1427 C1428 1.414 . S
C1427 C1430 1.499 . S
C1428 H1408 0.950 . S
C1428 C1427 1.414 . S
C1428 C1429 1.374 . S
C1429 H1409 0.950 . S
C1429 C1425 1.385 . S
C1429 C1428 1.374 . S
C1430 C1427 1.499 . S
C1430 C1431 1.373 . S
C1430 C1432 1.389 . S
C1431 H1410 0.950 . S
C1431 C1430 1.373 . S
C1431 C1447 1.377 . S
C1432 C1430 1.389 . S
C1432 C1433 1.524 . S
C1432 C1446 1.377 . S
C1433 C1432 1.524 . S
C1433 C1434 1.397 . S
C1433 C1438 1.363 . S
C1434 H1411 0.950 . S
C1434 C1433 1.397 . S
C1434 C1435 1.334 . S
C1435 H1412 0.950 . S
C1435 C1434 1.334 . S
C1435 C1436 1.287 . S
C1436 C1435 1.287 . S
C1436 C1437 1.524 . S
C1436 H1455 0.913 . S
C1437 H1413 0.950 . S
C1437 C1436 1.524 . S
C1437 C1438 1.415 . S
C1438 H1414 0.950 . S
C1438 C1433 1.363 . S
C1438 C1437 1.415 . S
C1439 H1415 0.951 . S
C1439 C1440 1.366 . S
C1439 C1441 1.388 . S
C1440 C1439 1.366 . S
C1440 C1444 1.385 . S
C1441 H1416 0.951 . S
C1441 C1439 1.388 . S
C1441 C1442 1.366 . S
C1442 C1441 1.366 . S
C1442 C1443 1.414 . S
C1442 C1445 1.499 . S
C1443 H1417 0.950 . S
C1443 C1442 1.414 . S
C1443 C1444 1.374 . S
C1444 H1418 0.950 . S
C1444 C1440 1.385 . S
C1444 C1443 1.374 . S
C1445 C1442 1.499 . S
C1445 C1446 1.373 . S
C1445 C1447 1.389 . S
C1446 H1419 0.950 . S
C1446 C1432 1.377 . S
C1446 C1445 1.373 . S
C1447 C1431 1.377 . S
C1447 C1445 1.389 . S
C1447 C1448 1.524 . S
C1448 C1447 1.524 . S
C1448 C1449 1.397 . S
C1448 C1453 1.363 . S
C1449 H1420 0.950 . S
C1449 C1448 1.397 . S
C1449 C1450 1.334 . S
C1450 H1421 0.950 . S
C1450 C1449 1.334 . S
C1450 C1451 1.287 . S
C1451 C1450 1.287 . S
C1451 C1452 1.524 . S
C1451 H1454 0.999 . S
C1452 H1422 0.950 . S
C1452 C1451 1.524 . S
C1452 C1453 1.415 . S
C1453 H1423 0.950 . S
C1453 C1448 1.363 . S
C1453 C1452 1.415 . S
H1454 C1451 0.999 . S
H1455 C1436 0.913 . S
C275 C76 1.756 1_545 S
C290 C114 1.856 1_545 S
C340 C154 1.865 . S
C325 C88 1.753 . S
C390 C194 1.867 . S
C375 C52 1.762 . S
C440 C234 1.862 1_455 S
C425 C64 1.759 1_455 S
C490 C104 1.861 1_565 S
C475 C28 1.762 1_545 S
C525 C40 1.758 . S
C540 C144 1.869 . S
C575 C4 1.761 . S
C590 C184 1.867 . S
C625 C16 1.759 . S
C640 C224 1.863 1_655 S
C690 C101 0.293 . S
C675 C69 0.356 . S
C740 C141 0.296 . S
C725 C81 0.360 . S
C790 C181 0.300 . S
C775 C93 0.360 . S
C825 C57 0.354 . S
C840 C221 0.291 . S
C875 C21 0.362 1_655 S
C890 C111 0.292 . S
C940 C151 0.298 . S
C925 C33 0.354 1_565 S
C990 C191 0.301 . S
C975 C45 0.372 . S
C1025 C9 0.365 . S
C1040 C231 0.300 . S
C1075 C66 1.908 . S
C1090 C105 2.076 . S
C1125 C78 1.900 . S
C1140 C145 2.074 . S
C1190 C185 2.068 . S
C1175 C90 1.892 . S
C1240 C225 2.077 . S
C1225 C54 1.895 . S
C1275 C18 1.906 1_655 S
C1290 C115 2.091 . S
C1340 C155 2.074 . S
C1325 C30 1.898 1_565 S
C1390 C195 2.068 . S
C1375 C42 1.897 . S
C1425 C6 1.905 . S
C1440 C235 2.084 . S
