# Generated by pormake.
# Topology nom, (4,4)-cn, num edge types: 1
# Building blocks:
#     Node 0, Type 0, BuildingBlock: MUDLON_clean_linker_0, # of connection points: 4
#     Node 1, Type 0, BuildingBlock: MUDLON_clean_linker_0, # of connection points: 4
#     Node 2, Type 0, BuildingBlock: MUDLON_clean_linker_0, # of connection points: 4
#     Node 3, Type 0, BuildingBlock: MUDLON_clean_linker_0, # of connection points: 4
#     Node 4, Type 0, BuildingBlock: MUDLON_clean_linker_0, # of connection points: 4
#     Node 5, Type 0, BuildingBlock: MUDLON_clean_linker_0, # of connection points: 4
#     Node 6, Type 1, BuildingBlock: TATPOV_clean_sbu_0, # of connection points: 4
#     Node 7, Type 1, BuildingBlock: TATPOV_clean_sbu_0, # of connection points: 4
#     Node 8, Type 1, BuildingBlock: TATPOV_clean_sbu_0, # of connection points: 4
#     Node 9, Type 1, BuildingBlock: TATPOV_clean_sbu_0, # of connection points: 4
#     Node 10, Type 1, BuildingBlock: TATPOV_clean_sbu_0, # of connection points: 4
#     Node 11, Type 1, BuildingBlock: TATPOV_clean_sbu_0, # of connection points: 4
#     Edge 12, Type (0, 1), BuildingBlock: MIFKUJ_clean_linker_0, # of connection points: 2
#     Edge 13, Type (0, 1), BuildingBlock: MIFKUJ_clean_linker_0, # of connection points: 2
#     Edge 14, Type (0, 1), BuildingBlock: MIFKUJ_clean_linker_0, # of connection points: 2
#     Edge 15, Type (0, 1), BuildingBlock: MIFKUJ_clean_linker_0, # of connection points: 2
#     Edge 16, Type (0, 1), BuildingBlock: MIFKUJ_clean_linker_0, # of connection points: 2
#     Edge 17, Type (0, 1), BuildingBlock: MIFKUJ_clean_linker_0, # of connection points: 2
#     Edge 18, Type (0, 1), BuildingBlock: MIFKUJ_clean_linker_0, # of connection points: 2
#     Edge 19, Type (0, 1), BuildingBlock: MIFKUJ_clean_linker_0, # of connection points: 2
#     Edge 20, Type (0, 1), BuildingBlock: MIFKUJ_clean_linker_0, # of connection points: 2
#     Edge 21, Type (0, 1), BuildingBlock: MIFKUJ_clean_linker_0, # of connection points: 2
#     Edge 22, Type (0, 1), BuildingBlock: MIFKUJ_clean_linker_0, # of connection points: 2
#     Edge 23, Type (0, 1), BuildingBlock: MIFKUJ_clean_linker_0, # of connection points: 2
#     Edge 24, Type (0, 1), BuildingBlock: MIFKUJ_clean_linker_0, # of connection points: 2
#     Edge 25, Type (0, 1), BuildingBlock: MIFKUJ_clean_linker_0, # of connection points: 2
#     Edge 26, Type (0, 1), BuildingBlock: MIFKUJ_clean_linker_0, # of connection points: 2
#     Edge 27, Type (0, 1), BuildingBlock: MIFKUJ_clean_linker_0, # of connection points: 2
#     Edge 28, Type (0, 1), BuildingBlock: MIFKUJ_clean_linker_0, # of connection points: 2
#     Edge 29, Type (0, 1), BuildingBlock: MIFKUJ_clean_linker_0, # of connection points: 2
#     Edge 30, Type (0, 1), BuildingBlock: MIFKUJ_clean_linker_0, # of connection points: 2
#     Edge 31, Type (0, 1), BuildingBlock: MIFKUJ_clean_linker_0, # of connection points: 2
#     Edge 32, Type (0, 1), BuildingBlock: MIFKUJ_clean_linker_0, # of connection points: 2
#     Edge 33, Type (0, 1), BuildingBlock: MIFKUJ_clean_linker_0, # of connection points: 2
#     Edge 34, Type (0, 1), BuildingBlock: MIFKUJ_clean_linker_0, # of connection points: 2
#     Edge 35, Type (0, 1), BuildingBlock: MIFKUJ_clean_linker_0, # of connection points: 2
# Relax obj value: 0.022
# Max RMSD: 0.118
# Mean RMSD: 0.104
data_MOF--net-nom--node1-TATPOV_clean_sbu_0--node2-MUDLON_clean_linker_0--edge1-MIFKUJ_clean_linker_0
_symmetry_space_group_name_H-M    P1
_symmetry_Int_Tables_number       1
_symmetry_cell_setting            triclinic
loop_
_symmetry_equiv_pos_as_xyz
'x, y, z'
_cell_length_a     73.080608
_cell_length_b     74.814603
_cell_length_c     73.477787
_cell_angle_alpha  90.896969
_cell_angle_beta   90.44573
_cell_angle_gamma 120.34456
loop_
_atom_site_label
_atom_site_type_symbol
_atom_site_fract_x
_atom_site_fract_y
_atom_site_fract_z
_atom_type_partial_charge
H0 H 0.12238 0.5127 0.31583 0.0
N1 N 0.08843 0.51412 0.32599 0.0
H2 H 0.15013 0.53603 0.2954 0.0
H3 H 0.08657 0.54264 0.30387 0.0
H4 H 0.11361 0.56531 0.28293 0.0
H5 H 0.09896 0.55301 0.3381 0.0
H6 H 0.11609 0.56923 0.36716 0.0
H7 H 0.09501 0.496 0.35405 0.0
H8 H 0.11159 0.5119 0.38353 0.0
H9 H 0.06331 0.47449 0.31717 0.0
H10 H 0.06256 0.53087 0.3279 0.0
H11 H 0.02495 0.45578 0.31242 0.0
H12 H 0.0245 0.51282 0.32183 0.0
H13 H 0.90061 0.40101 0.28964 0.0
H14 H 0.88267 0.39806 0.26063 0.0
H15 H 0.92365 0.46384 0.25313 0.0
H16 H 0.9408 0.46668 0.28258 0.0
H17 H 0.91882 0.46476 0.31008 0.0
H18 H 0.89163 0.46326 0.32996 0.0
H19 H 0.88505 0.40804 0.35421 0.0
H20 H 0.91165 0.40917 0.33345 0.0
H21 H 0.95914 0.42967 0.2896 0.0
H22 H 0.99756 0.44983 0.29298 0.0
H23 H 0.9916 0.48948 0.33306 0.0
N24 N 0.93029 0.43529 0.30645 0.0
H25 H 0.95353 0.47034 0.32864 0.0
C26 C 0.10234 0.52576 0.31145 0.0
C27 C 0.12022 0.5239 0.30838 0.0
C28 C 0.13603 0.53723 0.29664 0.0
C29 C 0.13423 0.55272 0.28759 0.0
C30 C 0.11574 0.55384 0.28993 0.0
C31 C 0.10004 0.54064 0.30184 0.0
C32 C 0.09581 0.52326 0.34389 0.0
C33 C 0.10135 0.54383 0.34802 0.0
C34 C 0.11111 0.55308 0.36472 0.0
C35 C 0.11541 0.54193 0.37766 0.0
C36 C 0.1089 0.52106 0.37376 0.0
C37 C 0.09924 0.51187 0.35703 0.0
C38 C 0.06587 0.50406 0.32261 0.0
C39 C 0.05485 0.48289 0.31816 0.0
C40 C 0.0329 0.47228 0.31529 0.0
C41 C 0.02141 0.48273 0.31652 0.0
C42 C 0.0326 0.50409 0.32096 0.0
C43 C 0.05454 0.51458 0.32419 0.0
C44 C 0.92206 0.43394 0.28822 0.0
C45 C 0.90587 0.4147 0.28156 0.0
C46 C 0.89571 0.41307 0.26493 0.0
C47 C 0.90166 0.43072 0.25447 0.0
C48 C 0.91841 0.44997 0.26092 0.0
C49 C 0.92842 0.4516 0.27768 0.0
C50 C 0.91705 0.43685 0.32014 0.0
C51 C 0.91166 0.45243 0.31976 0.0
C52 C 0.89619 0.45164 0.33132 0.0
C53 C 0.88591 0.43539 0.34362 0.0
C54 C 0.89228 0.42053 0.34466 0.0
C55 C 0.90763 0.42124 0.33297 0.0
C56 C 0.95312 0.44826 0.30869 0.0
C57 C 0.96615 0.44289 0.29894 0.0
C58 C 0.98818 0.45434 0.30109 0.0
C59 C 0.9979 0.47128 0.31347 0.0
C60 C 0.98487 0.47679 0.32318 0.0
C61 C 0.96281 0.46558 0.32073 0.0
H62 H 0.48313 0.93253 0.47906 0.0
N63 N 0.46417 0.95216 0.46331 0.0
H64 H 0.46665 0.90448 0.50064 0.0
H65 H 0.42963 0.94176 0.48232 0.0
H66 H 0.41314 0.91392 0.5043 0.0
H67 H 0.4321 0.93557 0.4396 0.0
H68 H 0.42805 0.91436 0.41257 0.0
H69 H 0.49477 0.9455 0.4493 0.0
H70 H 0.49058 0.92339 0.42273 0.0
H71 H 0.50261 0.96955 0.48142 0.0
H72 H 0.462 0.98327 0.44909 0.0
H73 H 0.52842 0.00648 0.48472 0.0
H74 H 0.4882 0.02014 0.45128 0.0
H75 H 0.60729 0.12958 0.49555 0.0
H76 H 0.61403 0.14545 0.52604 0.0
H77 H 0.54755 0.10694 0.53802 0.0
H78 H 0.54083 0.092 0.50753 0.0
H79 H 0.54351 0.11949 0.48384 0.0
H80 H 0.54584 0.1487 0.46778 0.0
H81 H 0.59732 0.15273 0.43609 0.0
H82 H 0.59422 0.12272 0.4518 0.0
H83 H 0.57888 0.07356 0.47541 0.0
H84 H 0.55408 0.0365 0.47029 0.0
H85 H 0.50177 0.04805 0.47173 0.0
N86 N 0.56994 0.1036 0.48001 0.0
H87 H 0.52652 0.08475 0.47579 0.0
C88 C 0.45751 0.93922 0.47902 0.0
C89 C 0.46815 0.92901 0.48487 0.0
C90 C 0.4587 0.91294 0.49727 0.0
C91 C 0.43844 0.90677 0.50399 0.0
C92 C 0.4286 0.91807 0.49913 0.0
C93 C 0.43806 0.93411 0.48675 0.0
C94 C 0.46354 0.94184 0.44646 0.0
C95 C 0.44501 0.9332 0.43576 0.0
C96 C 0.44268 0.92091 0.42048 0.0
C97 C 0.45881 0.91678 0.4157 0.0
C98 C 0.47785 0.92625 0.42602 0.0
C99 C 0.48023 0.93876 0.44127 0.0
C100 C 0.48014 0.9737 0.46529 0.0
C101 C 0.49926 0.98049 0.47497 0.0
C102 C 0.51416 0.00169 0.47665 0.0
C103 C 0.51041 0.01647 0.4684 0.0
C104 C 0.49149 0.0094 0.45825 0.0
C105 C 0.47653 0.98831 0.45685 0.0
C106 C 0.57366 0.10959 0.49909 0.0
C107 C 0.59429 0.1243 0.50492 0.0
C108 C 0.59809 0.1333 0.52238 0.0
C109 C 0.58128 0.12765 0.53444 0.0
C110 C 0.5608 0.11199 0.52896 0.0
C111 C 0.55698 0.10319 0.51145 0.0
C112 C 0.56862 0.1187 0.46889 0.0
C113 C 0.55484 0.12614 0.47304 0.0
C114 C 0.55642 0.14314 0.46401 0.0
C115 C 0.57196 0.15329 0.45079 0.0
C116 C 0.58504 0.14521 0.44606 0.0
C117 C 0.58333 0.12808 0.45503 0.0
C118 C 0.55475 0.08206 0.47595 0.0
C119 C 0.56205 0.06803 0.47436 0.0
C120 C 0.54781 0.04682 0.47164 0.0
C121 C 0.52582 0.03913 0.47064 0.0
C122 C 0.51856 0.05331 0.47206 0.0
C123 C 0.53282 0.0745 0.47451 0.0
H124 H 0.49416 0.61742 0.64064 0.0
N125 N 0.48793 0.58431 0.65831 0.0
H126 H 0.46924 0.62037 0.6203 0.0
H127 H 0.45076 0.55182 0.6445 0.0
H128 H 0.42558 0.5546 0.62418 0.0
H129 H 0.45059 0.56109 0.67609 0.0
H130 H 0.44155 0.56878 0.7058 0.0
H131 H 0.51315 0.61487 0.68141 0.0
H132 H 0.50431 0.62257 0.7116 0.0
H133 H 0.52297 0.59216 0.64142 0.0
H134 H 0.47011 0.5442 0.67 0.0
H135 H 0.53869 0.57016 0.63898 0.0
H136 H 0.48616 0.5225 0.66852 0.0
H137 H 0.59327 0.51397 0.63322 0.0
H138 H 0.59998 0.5024 0.60397 0.0
H139 H 0.53325 0.45713 0.59811 0.0
H140 H 0.52676 0.46875 0.62733 0.0
H141 H 0.52625 0.45827 0.65749 0.0
H142 H 0.53077 0.43464 0.67693 0.0
H143 H 0.59134 0.48535 0.69595 0.0
H144 H 0.58706 0.50859 0.67558 0.0
H145 H 0.57413 0.53837 0.65634 0.0
H146 H 0.55632 0.55851 0.65805 0.0
H147 H 0.49578 0.50223 0.64999 0.0
N148 N 0.55681 0.49806 0.65052 0.0
H149 H 0.51385 0.4822 0.6493 0.0
C150 C 0.47432 0.58452 0.64414 0.0
C151 C 0.47943 0.60359 0.63673 0.0
C152 C 0.46518 0.6052 0.62509 0.0
C153 C 0.44537 0.58772 0.6207 0.0
C154 C 0.44063 0.56838 0.62748 0.0
C155 C 0.45503 0.56675 0.63903 0.0
C156 C 0.48266 0.58744 0.6765 0.0
C157 C 0.46254 0.5744 0.68375 0.0
C158 C 0.4574 0.57879 0.70085 0.0
C159 C 0.47223 0.59628 0.7111 0.0
C160 C 0.49247 0.60909 0.70397 0.0
C161 C 0.49761 0.60466 0.68683 0.0
C162 C 0.4956 0.57006 0.65607 0.0
C163 C 0.51478 0.57686 0.64717 0.0
C164 C 0.52382 0.56432 0.64598 0.0
C165 C 0.51394 0.54466 0.65388 0.0
C166 C 0.49423 0.5375 0.66223 0.0
C167 C 0.48507 0.55002 0.66322 0.0
C168 C 0.55962 0.4923 0.63244 0.0
C169 C 0.58009 0.50178 0.62545 0.0
C170 C 0.58385 0.49516 0.60876 0.0
C171 C 0.56713 0.47879 0.59877 0.0
C172 C 0.54648 0.4696 0.60561 0.0
C173 C 0.54273 0.47633 0.62228 0.0
C174 C 0.55653 0.48514 0.66491 0.0
C175 C 0.54031 0.46438 0.66607 0.0
C176 C 0.5429 0.45087 0.67733 0.0
C177 C 0.56164 0.45797 0.6878 0.0
C178 C 0.57696 0.47921 0.68774 0.0
C179 C 0.57445 0.49259 0.67631 0.0
C180 C 0.54539 0.50893 0.65253 0.0
C181 C 0.557 0.53044 0.65511 0.0
C182 C 0.54677 0.5419 0.65586 0.0
C183 C 0.52457 0.53208 0.65382 0.0
C184 C 0.51286 0.51034 0.65166 0.0
C185 C 0.52318 0.49884 0.65111 0.0
H186 H 0.10249 0.58742 0.81397 0.0
N187 N 0.07329 0.54982 0.80236 0.0
H188 H 0.13156 0.59668 0.83557 0.0
H189 H 0.07835 0.52268 0.8237 0.0
H190 H 0.10635 0.53171 0.84627 0.0
H191 H 0.09366 0.53012 0.78926 0.0
H192 H 0.11274 0.53708 0.76077 0.0
H193 H 0.07453 0.57428 0.77605 0.0
H194 H 0.09443 0.58216 0.74786 0.0
H195 H 0.04231 0.55177 0.81907 0.0
H196 H 0.05638 0.50883 0.79165 0.0
H197 H 0.00641 0.52332 0.82501 0.0
H198 H 0.02071 0.48054 0.79745 0.0
H199 H 0.91856 0.46112 0.83941 0.0
H200 H 0.90027 0.46132 0.86694 0.0
H201 H 0.89525 0.40341 0.88236 0.0
H202 H 0.91484 0.40423 0.85534 0.0
H203 H 0.90229 0.39183 0.81931 0.0
H204 H 0.87071 0.3772 0.79983 0.0
H205 H 0.88553 0.43908 0.78601 0.0
H206 H 0.91634 0.45345 0.80654 0.0
H207 H 0.9564 0.46305 0.8517 0.0
H208 H 0.99082 0.49163 0.84418 0.0
H209 H 0.98276 0.468 0.78901 0.0
N210 N 0.92777 0.43137 0.82869 0.0
H211 H 0.9479 0.43919 0.79632 0.0
C212 C 0.08817 0.55446 0.81722 0.0
C213 C 0.10314 0.57524 0.82121 0.0
C214 C 0.11968 0.58048 0.83368 0.0
C215 C 0.12147 0.56497 0.84272 0.0
C216 C 0.10582 0.5441 0.83934 0.0
C217 C 0.08952 0.53888 0.82655 0.0
C218 C 0.08243 0.55157 0.78467 0.0
C219 C 0.09326 0.54107 0.78006 0.0
C220 C 0.10444 0.5453 0.76385 0.0
C221 C 0.10531 0.56031 0.75202 0.0
C222 C 0.09389 0.57028 0.75645 0.0
C223 C 0.08254 0.56587 0.77257 0.0
C224 C 0.05206 0.53264 0.8048 0.0
C225 C 0.03761 0.53627 0.81422 0.0
C226 C 0.01719 0.52001 0.81766 0.0
C227 C 0.01075 0.49971 0.81165 0.0
C228 C 0.02513 0.49607 0.80202 0.0
C229 C 0.04563 0.51232 0.79872 0.0
C230 C 0.91837 0.43277 0.8455 0.0
C231 C 0.91379 0.44866 0.84889 0.0
C232 C 0.90309 0.4486 0.86459 0.0
C233 C 0.89612 0.43233 0.87698 0.0
C234 C 0.90072 0.41646 0.87345 0.0
C235 C 0.91183 0.4168 0.85795 0.0
C236 C 0.91172 0.42364 0.81438 0.0
C237 C 0.89889 0.40218 0.81179 0.0
C238 C 0.88085 0.39387 0.80053 0.0
C239 C 0.87533 0.4069 0.79132 0.0
C240 C 0.88892 0.42851 0.79316 0.0
C241 C 0.90675 0.4368 0.80474 0.0
C242 C 0.94821 0.44933 0.82426 0.0
C243 C 0.96132 0.46412 0.83773 0.0
C244 C 0.98132 0.48056 0.8335 0.0
C245 C 0.9893 0.48235 0.81591 0.0
C246 C 0.97691 0.46718 0.80265 0.0
C247 C 0.95677 0.4508 0.80681 0.0
H248 H 0.53526 0.11923 0.98702 0.0
N249 N 0.54337 0.09087 0.97387 0.0
H250 H 0.5591 0.1503 0.00512 0.0
H251 H 0.58075 0.09885 0.98992 0.0
H252 H 0.60499 0.13014 0.00778 0.0
H253 H 0.58169 0.10928 0.9569 0.0
H254 H 0.58858 0.12341 0.92654 0.0
H255 H 0.5147 0.08457 0.9483 0.0
H256 H 0.52113 0.09705 0.91718 0.0
H257 H 0.50782 0.06582 0.99058 0.0
H258 H 0.56255 0.0683 0.9665 0.0
H259 H 0.49244 0.02883 0.99554 0.0
H260 H 0.54739 0.03105 0.9716 0.0
H261 H 0.4292 0.91659 0.0021 0.0
H262 H 0.41964 0.89773 0.03062 0.0
H263 H 0.48581 0.91915 0.04172 0.0
H264 H 0.49514 0.93783 0.01308 0.0
H265 H 0.49859 0.92856 0.9827 0.0
H266 H 0.49411 0.89844 0.96526 0.0
H267 H 0.43363 0.88739 0.94464 0.0
H268 H 0.43786 0.91693 0.96282 0.0
H269 H 0.47443 0.96689 0.01431 0.0
H270 H 0.49643 0.00409 0.01292 0.0
H271 H 0.51699 0.99806 0.95945 0.0
N272 N 0.46752 0.93832 0.98801 0.0
H273 H 0.49557 0.96058 0.96098 0.0
C274 C 0.55624 0.10685 0.9871 0.0
C275 C 0.55025 0.12132 0.99191 0.0
C276 C 0.56397 0.13911 0.00209 0.0
C277 C 0.58408 0.14284 0.00763 0.0
C278 C 0.58958 0.12767 0.00376 0.0
C279 C 0.57576 0.1098 0.99355 0.0
C280 C 0.54765 0.09638 0.95504 0.0
C281 C 0.56839 0.10658 0.94834 0.0
C282 C 0.57228 0.11446 0.93078 0.0
C283 C 0.55546 0.11179 0.91936 0.0
C284 C 0.53459 0.10011 0.92572 0.0
C285 C 0.5308 0.09271 0.94342 0.0
C286 C 0.53621 0.0697 0.97824 0.0
C287 C 0.51666 0.05835 0.9867 0.0
C288 C 0.50797 0.03723 0.98956 0.0
C289 C 0.51872 0.02694 0.98403 0.0
C290 C 0.53866 0.03848 0.9759 0.0
C291 C 0.54741 0.05976 0.9731 0.0
C292 C 0.46277 0.92855 0.0055 0.0
C293 C 0.4416 0.91731 0.0108 0.0
C294 C 0.43622 0.90662 0.0271 0.0
C295 C 0.45199 0.90695 0.03843 0.0
C296 C 0.47329 0.91839 0.03317 0.0
C297 C 0.47866 0.92911 0.01685 0.0
C298 C 0.46831 0.92473 0.97427 0.0
C299 C 0.48458 0.91988 0.97414 0.0
C300 C 0.48204 0.90271 0.96405 0.0
C301 C 0.46328 0.89021 0.95385 0.0
C302 C 0.44803 0.89636 0.9527 0.0
C303 C 0.45051 0.91338 0.96288 0.0
C304 C 0.48361 0.96024 0.98811 0.0
C305 C 0.48424 0.97326 0.0025 0.0
C306 C 0.49666 0.99475 0.00161 0.0
C307 C 0.5084 0.0041 0.98604 0.0
C308 C 0.50839 0.99134 0.97178 0.0
C309 C 0.49602 0.96971 0.97271 0.0
H310 H 0.50622 0.40954 0.15709 0.0
N311 N 0.50955 0.44521 0.16728 0.0
H312 H 0.5285 0.4041 0.13585 0.0
H313 H 0.53786 0.47417 0.14362 0.0
H314 H 0.5593 0.46869 0.1217 0.0
H315 H 0.55151 0.46798 0.17752 0.0
H316 H 0.5671 0.46515 0.20617 0.0
H317 H 0.48904 0.42465 0.19659 0.0
H318 H 0.50461 0.4224 0.22564 0.0
H319 H 0.47021 0.43472 0.15821 0.0
H320 H 0.53133 0.4875 0.17191 0.0
H321 H 0.45532 0.4573 0.15532 0.0
H322 H 0.51699 0.51051 0.16804 0.0
H323 H 0.41119 0.5279 0.13527 0.0
H324 H 0.40927 0.54153 0.10568 0.0
H325 H 0.47765 0.57445 0.10316 0.0
H326 H 0.47937 0.56048 0.13275 0.0
H327 H 0.47968 0.57422 0.16234 0.0
H328 H 0.47881 0.60082 0.18144 0.0
H329 H 0.41457 0.55669 0.19634 0.0
H330 H 0.41567 0.5302 0.17724 0.0
H331 H 0.43773 0.50245 0.13447 0.0
H332 H 0.45454 0.48164 0.13668 0.0
H333 H 0.49462 0.52144 0.1808 0.0
N334 N 0.44569 0.53582 0.15407 0.0
H335 H 0.47867 0.54294 0.1778 0.0
C336 C 0.52021 0.44216 0.15209 0.0
C337 C 0.5175 0.4224 0.14912 0.0
C338 C 0.53024 0.41933 0.13688 0.0
C339 C 0.54593 0.436 0.12712 0.0
C340 C 0.54774 0.45557 0.12927 0.0
C341 C 0.5352 0.45869 0.14173 0.0
C342 C 0.51904 0.44618 0.18483 0.0
C343 C 0.54111 0.45808 0.18794 0.0
C344 C 0.55002 0.45645 0.20428 0.0
C345 C 0.53701 0.44342 0.21793 0.0
C346 C 0.51492 0.43254 0.21526 0.0
C347 C 0.50604 0.43382 0.19876 0.0
C348 C 0.50182 0.45937 0.16504 0.0
C349 C 0.48046 0.45127 0.16031 0.0
C350 C 0.47206 0.46428 0.15854 0.0
C351 C 0.48497 0.48587 0.16123 0.0
C352 C 0.50649 0.494 0.16603 0.0
C353 C 0.5148 0.48087 0.16807 0.0
C354 C 0.44532 0.54321 0.13615 0.0
C355 C 0.42571 0.5379 0.12821 0.0
C356 C 0.42468 0.54566 0.11135 0.0
C357 C 0.44333 0.55906 0.10215 0.0
C358 C 0.46305 0.56432 0.11006 0.0
C359 C 0.46405 0.55634 0.1269 0.0
C360 C 0.44763 0.55019 0.16832 0.0
C361 C 0.4656 0.57014 0.17005 0.0
C362 C 0.46504 0.58536 0.1809 0.0
C363 C 0.44652 0.58095 0.19022 0.0
C364 C 0.42914 0.56058 0.18948 0.0
C365 C 0.42972 0.5454 0.17859 0.0
C366 C 0.4569 0.52452 0.1557 0.0
C367 C 0.45038 0.50691 0.14445 0.0
C368 C 0.45986 0.49484 0.14591 0.0
C369 C 0.47586 0.49966 0.15906 0.0
C370 C 0.48256 0.51737 0.17033 0.0
C371 C 0.47327 0.52972 0.16865 0.0
Zn372 Zn 0.66979 0.44432 0.40722 0.0
Zn373 Zn 0.64795 0.40272 0.4088 0.0
O374 O 0.67907 0.41019 0.40637 0.0
O375 O 0.69719 0.44412 0.40427 0.0
O376 O 0.63289 0.37167 0.41129 0.0
O377 O 0.65963 0.44649 0.43203 0.0
O378 O 0.64015 0.41248 0.43248 0.0
C379 C 0.69668 0.42695 0.40453 0.0
C380 C 0.63794 0.42414 0.37857 0.0
O381 O 0.63511 0.40747 0.38561 0.0
O382 O 0.6514 0.44162 0.38544 0.0
C383 C 0.63369 0.35999 0.39895 0.0
O384 O 0.6439 0.36829 0.38393 0.0
C385 C 0.64617 0.4302 0.43985 0.0
Zn386 Zn 0.2468 0.68145 0.5683 0.0
Zn387 Zn 0.2688 0.66157 0.56906 0.0
O388 O 0.2919 0.69251 0.56795 0.0
O389 O 0.27413 0.70903 0.56905 0.0
O390 O 0.28585 0.6472 0.57089 0.0
O391 O 0.23213 0.66763 0.59139 0.0
O392 O 0.25095 0.65216 0.59235 0.0
C393 C 0.29163 0.70942 0.56829 0.0
C394 C 0.23787 0.65362 0.53738 0.0
O395 O 0.25096 0.64971 0.54542 0.0
O396 O 0.23383 0.66688 0.54421 0.0
C397 C 0.30138 0.65154 0.56058 0.0
O398 O 0.30617 0.66539 0.54795 0.0
C399 C 0.23694 0.65553 0.59915 0.0
Zn400 Zn 0.57166 0.24375 0.72977 0.0
Zn401 Zn 0.61464 0.26576 0.733 0.0
O402 O 0.60538 0.28776 0.73333 0.0
O403 O 0.57052 0.27009 0.73135 0.0
O404 O 0.64665 0.28233 0.73581 0.0
O405 O 0.57076 0.22878 0.75272 0.0
O406 O 0.60564 0.24641 0.75488 0.0
C407 C 0.58769 0.28729 0.73266 0.0
C408 C 0.59325 0.23789 0.69936 0.0
O409 O 0.60987 0.25025 0.7086 0.0
O410 O 0.57508 0.23295 0.70527 0.0
C411 C 0.65775 0.30132 0.73176 0.0
O412 O 0.64832 0.31092 0.72524 0.0
C413 C 0.58775 0.23268 0.76088 0.0
Zn414 Zn 0.35269 0.59425 0.9058 0.0
Zn415 Zn 0.37152 0.63528 0.90905 0.0
O416 O 0.33935 0.62514 0.90753 0.0
O417 O 0.32387 0.59125 0.90469 0.0
O418 O 0.38422 0.66622 0.91233 0.0
O419 O 0.36541 0.59314 0.92969 0.0
O420 O 0.38194 0.62715 0.9321 0.0
C421 C 0.32254 0.60745 0.90576 0.0
C422 C 0.38121 0.61527 0.87661 0.0
O423 O 0.38403 0.63152 0.88507 0.0
O424 O 0.36863 0.59755 0.88279 0.0
C425 C 0.40294 0.67983 0.90801 0.0
O426 O 0.41546 0.67392 0.90078 0.0
C427 C 0.37792 0.60973 0.93834 0.0
Zn428 Zn 0.76703 0.43729 0.06708 0.0
Zn429 Zn 0.74553 0.39522 0.06553 0.0
O430 O 0.72239 0.40328 0.06734 0.0
O431 O 0.73957 0.43735 0.06909 0.0
O432 O 0.72799 0.36408 0.06218 0.0
O433 O 0.77923 0.43781 0.04225 0.0
O434 O 0.76343 0.40374 0.04246 0.0
C435 C 0.72226 0.42022 0.06878 0.0
C436 C 0.7773 0.41794 0.09662 0.0
O437 O 0.76362 0.40099 0.08878 0.0
O438 O 0.78146 0.43515 0.09005 0.0
C439 C 0.72905 0.35034 0.07135 0.0
O440 O 0.7428 0.35602 0.08492 0.0
C441 C 0.77557 0.42087 0.03487 0.0
Zn442 Zn 0.34806 0.77515 0.23199 0.0
Zn443 Zn 0.37109 0.75637 0.22804 0.0
O444 O 0.34006 0.73246 0.22961 0.0
O445 O 0.32101 0.74754 0.23248 0.0
O446 O 0.38679 0.74081 0.22553 0.0
O447 O 0.35993 0.78936 0.20811 0.0
O448 O 0.37846 0.77373 0.20502 0.0
C449 C 0.32211 0.73121 0.23133 0.0
C450 C 0.37908 0.78548 0.26078 0.0
O451 O 0.38394 0.77405 0.25143 0.0
O452 O 0.364 0.78805 0.25564 0.0
C453 C 0.38469 0.72819 0.23784 0.0
O454 O 0.37289 0.72625 0.25193 0.0
C455 C 0.3728 0.78618 0.19914 0.0
H456 H 0.14834 0.59419 0.28623 0.0
H457 H 0.17929 0.62078 0.27082 0.0
H458 H 0.19295 0.57452 0.25031 0.0
H459 H 0.16148 0.54752 0.26536 0.0
H460 H 0.22791 0.60819 0.2664 0.0
H461 H 0.17605 0.59657 0.22104 0.0
H462 H 0.1423 0.59176 0.20883 0.0
H463 H 0.15959 0.65308 0.22743 0.0
H464 H 0.19332 0.65817 0.24 0.0
H465 H 0.31651 0.69264 0.22376 0.0
H466 H 0.28416 0.65904 0.22746 0.0
H467 H 0.25157 0.69017 0.24662 0.0
H468 H 0.28336 0.72357 0.24228 0.0
H469 H 0.22615 0.65943 0.22547 0.0
H470 H 0.27442 0.66828 0.27556 0.0
H471 H 0.30801 0.67334 0.28851 0.0
H472 H 0.29712 0.6173 0.26171 0.0
H473 H 0.26362 0.6121 0.24835 0.0
C474 C 0.15753 0.58949 0.27807 0.0
C475 C 0.15227 0.56862 0.27699 0.0
C476 C 0.17533 0.60478 0.26933 0.0
C477 C 0.18833 0.59961 0.25929 0.0
C478 C 0.1831 0.57882 0.25798 0.0
C479 C 0.16516 0.56344 0.26665 0.0
C480 C 0.20794 0.61624 0.2511 0.0
C481 C 0.22756 0.61916 0.25712 0.0
C482 C 0.20744 0.63065 0.23917 0.0
C483 C 0.18719 0.6277 0.23156 0.0
C484 C 0.1726 0.60898 0.22264 0.0
C485 C 0.15348 0.60621 0.21564 0.0
C486 C 0.14879 0.62209 0.21737 0.0
C487 C 0.16324 0.64079 0.22609 0.0
C488 C 0.18239 0.64364 0.23314 0.0
C489 C 0.30238 0.69228 0.22863 0.0
C490 C 0.30253 0.71078 0.23279 0.0
C491 C 0.28393 0.67307 0.23081 0.0
C492 C 0.26547 0.67203 0.23757 0.0
C493 C 0.26555 0.69052 0.24134 0.0
C494 C 0.28381 0.70965 0.23891 0.0
C495 C 0.24614 0.6519 0.24138 0.0
C496 C 0.22655 0.64827 0.23448 0.0
C497 C 0.24666 0.63692 0.2526 0.0
C498 C 0.26667 0.63994 0.26079 0.0
C499 C 0.27927 0.65712 0.27234 0.0
C500 C 0.29828 0.66002 0.27974 0.0
C501 C 0.30475 0.64571 0.27586 0.0
C502 C 0.29215 0.62842 0.26463 0.0
C503 C 0.27315 0.62549 0.25714 0.0
H504 H 0.31948 0.64798 0.28159 0.0
H505 H 0.13397 0.61991 0.21194 0.0
H506 H 0.57072 0.18501 0.46859 0.0
H507 H 0.57814 0.21812 0.45657 0.0
H508 H 0.58975 0.20029 0.40375 0.0
H509 H 0.58198 0.16678 0.41564 0.0
H510 H 0.62076 0.23918 0.41422 0.0
H511 H 0.54513 0.20212 0.41042 0.0
H512 H 0.50877 0.18027 0.42147 0.0
H513 H 0.51979 0.22631 0.4625 0.0
H514 H 0.55634 0.24832 0.45187 0.0
H515 H 0.6319 0.3305 0.37525 0.0
H516 H 0.61865 0.2939 0.38107 0.0
H517 H 0.60193 0.30216 0.43546 0.0
H518 H 0.61472 0.33861 0.42964 0.0
H519 H 0.57171 0.26644 0.42074 0.0
H520 H 0.64798 0.30162 0.42679 0.0
H521 H 0.68466 0.32358 0.41644 0.0
H522 H 0.67262 0.28105 0.37184 0.0
H523 H 0.63575 0.25897 0.38179 0.0
C524 C 0.5744 0.18787 0.45431 0.0
C525 C 0.57556 0.17309 0.44305 0.0
C526 C 0.57872 0.20689 0.44747 0.0
C527 C 0.58426 0.21161 0.42921 0.0
C528 C 0.58547 0.19695 0.41789 0.0
C529 C 0.58108 0.17783 0.42472 0.0
C530 C 0.5896 0.2322 0.42228 0.0
C531 C 0.60988 0.24499 0.41529 0.0
C532 C 0.57557 0.23995 0.42404 0.0
C533 C 0.55354 0.22681 0.43042 0.0
C534 C 0.53986 0.20752 0.42189 0.0
C535 C 0.5192 0.19512 0.42806 0.0
C536 C 0.51199 0.20188 0.4427 0.0
C537 C 0.52541 0.22109 0.45117 0.0
C538 C 0.54609 0.23355 0.44505 0.0
C539 C 0.62527 0.3245 0.38841 0.0
C540 C 0.62451 0.33753 0.40202 0.0
C541 C 0.61777 0.30358 0.39174 0.0
C542 C 0.60957 0.29533 0.4088 0.0
C543 C 0.60821 0.30816 0.4222 0.0
C544 C 0.6156 0.32904 0.41886 0.0
C545 C 0.60299 0.27353 0.41296 0.0
C546 C 0.58249 0.26053 0.41944 0.0
C547 C 0.61685 0.26561 0.41081 0.0
C548 C 0.63905 0.27877 0.40491 0.0
C549 C 0.65311 0.29703 0.4147 0.0
C550 C 0.67394 0.30948 0.40892 0.0
C551 C 0.68094 0.30374 0.39346 0.0
C552 C 0.66716 0.28549 0.38379 0.0
C553 C 0.6463 0.273 0.3895 0.0
H554 H 0.69707 0.31341 0.389 0.0
H555 H 0.49599 0.19225 0.44746 0.0
H556 H 0.40337 0.57097 0.62823 0.0
H557 H 0.378 0.5788 0.61401 0.0
H558 H 0.42547 0.61828 0.57599 0.0
H559 H 0.45101 0.61061 0.59031 0.0
H560 H 0.40808 0.63794 0.59104 0.0
H561 H 0.38125 0.5715 0.56241 0.0
H562 H 0.36802 0.53397 0.56066 0.0
H563 H 0.31548 0.52252 0.59418 0.0
H564 H 0.32855 0.56002 0.59635 0.0
H565 H 0.33747 0.65963 0.54279 0.0
H566 H 0.36087 0.64594 0.54933 0.0
H567 H 0.31926 0.6087 0.59178 0.0
H568 H 0.29566 0.62216 0.58525 0.0
H569 H 0.33405 0.58742 0.57177 0.0
H570 H 0.36292 0.65402 0.60239 0.0
H571 H 0.37625 0.69157 0.60424 0.0
H572 H 0.42529 0.70246 0.56658 0.0
H573 H 0.41206 0.66491 0.56432 0.0
C574 C 0.40826 0.5809 0.61655 0.0
C575 C 0.42922 0.59019 0.61041 0.0
C576 C 0.39372 0.58539 0.60842 0.0
C577 C 0.39976 0.59905 0.59384 0.0
C578 C 0.42046 0.60774 0.58725 0.0
C579 C 0.43504 0.60335 0.59545 0.0
C580 C 0.38507 0.60561 0.58652 0.0
C581 C 0.39204 0.62687 0.58646 0.0
C582 C 0.36395 0.59119 0.58096 0.0
C583 C 0.35599 0.5686 0.57966 0.0
C584 C 0.36697 0.561 0.56953 0.0
C585 C 0.35948 0.53972 0.56844 0.0
C586 C 0.34095 0.52587 0.57733 0.0
C587 C 0.32984 0.53327 0.58731 0.0
C588 C 0.33727 0.55453 0.58845 0.0
C589 C 0.33318 0.64839 0.55342 0.0
C590 C 0.31477 0.64213 0.56361 0.0
C591 C 0.34661 0.64061 0.55716 0.0
C592 C 0.34194 0.62648 0.57119 0.0
C593 C 0.32318 0.6196 0.58091 0.0
C594 C 0.30975 0.6274 0.5772 0.0
C595 C 0.35712 0.61967 0.57638 0.0
C596 C 0.3502 0.59842 0.57611 0.0
C597 C 0.37833 0.63407 0.58162 0.0
C598 C 0.38636 0.65665 0.58303 0.0
C599 C 0.37644 0.66441 0.5944 0.0
C600 C 0.384 0.68569 0.59554 0.0
C601 C 0.40157 0.69939 0.58549 0.0
C602 C 0.41166 0.69183 0.57433 0.0
C603 C 0.40415 0.67055 0.57312 0.0
H604 H 0.40739 0.71586 0.58639 0.0
H605 H 0.33517 0.50941 0.57647 0.0
H606 H 0.85427 0.37009 0.77159 0.0
H607 H 0.8184 0.35344 0.75891 0.0
H608 H 0.81402 0.40713 0.77394 0.0
H609 H 0.84906 0.42309 0.78815 0.0
H610 H 0.78049 0.37576 0.78361 0.0
H611 H 0.818 0.39245 0.72785 0.0
H612 H 0.84363 0.39401 0.70538 0.0
H613 H 0.81087 0.32757 0.70181 0.0
H614 H 0.78519 0.32559 0.72444 0.0
H615 H 0.68429 0.34322 0.73376 0.0
H616 H 0.72234 0.36214 0.74096 0.0
H617 H 0.72185 0.30441 0.74418 0.0
H618 H 0.68366 0.28529 0.73731 0.0
H619 H 0.75751 0.33842 0.72393 0.0
H620 H 0.72107 0.3235 0.78155 0.0
H621 H 0.69528 0.32362 0.80294 0.0
H622 H 0.72681 0.38997 0.80111 0.0
H623 H 0.75261 0.39021 0.77949 0.0
C624 C 0.8457 0.37838 0.77232 0.0
C625 C 0.85469 0.39795 0.78112 0.0
C626 C 0.82523 0.36893 0.76473 0.0
C627 C 0.81345 0.37906 0.76526 0.0
C628 C 0.82272 0.39894 0.77334 0.0
C629 C 0.84299 0.40821 0.78127 0.0
C630 C 0.79097 0.36837 0.7587 0.0
C631 C 0.77564 0.36796 0.77039 0.0
C632 C 0.78437 0.35776 0.7416 0.0
C633 C 0.79978 0.35888 0.72797 0.0
C634 C 0.81635 0.37817 0.72238 0.0
C635 C 0.83088 0.37913 0.70959 0.0
C636 C 0.82891 0.3609 0.70221 0.0
C637 C 0.81239 0.34167 0.70756 0.0
C638 C 0.79783 0.34062 0.72035 0.0
C639 C 0.69229 0.33454 0.73586 0.0
C640 C 0.68096 0.31276 0.73507 0.0
C641 C 0.71401 0.34537 0.73996 0.0
C642 C 0.72482 0.33464 0.7431 0.0
C643 C 0.71374 0.31294 0.74173 0.0
C644 C 0.69194 0.30206 0.73792 0.0
C645 C 0.74744 0.34604 0.74882 0.0
C646 C 0.76263 0.34646 0.73703 0.0
C647 C 0.75402 0.35699 0.76566 0.0
C648 C 0.73861 0.35685 0.77875 0.0
C649 C 0.72238 0.3381 0.78558 0.0
C650 C 0.70779 0.3381 0.79777 0.0
C651 C 0.70937 0.35679 0.80334 0.0
C652 C 0.72559 0.37551 0.79676 0.0
C653 C 0.7402 0.37559 0.78455 0.0
H654 H 0.69806 0.35676 0.81278 0.0
H655 H 0.84017 0.36168 0.69231 0.0
H656 H 0.42557 0.85386 0.95469 0.0
H657 H 0.41793 0.81949 0.94501 0.0
H658 H 0.4823 0.84489 0.92723 0.0
H659 H 0.49004 0.87976 0.9365 0.0
H660 H 0.45208 0.81412 0.90317 0.0
H661 H 0.47014 0.82262 0.96666 0.0
H662 H 0.4683 0.83181 -0.00131 0.0
H663 H 0.40247 0.78482 -0.00028 0.0
H664 H 0.40382 0.77556 0.96758 0.0
H665 H 0.44172 0.71326 0.90012 0.0
H666 H 0.45417 0.74994 0.90632 0.0
H667 H 0.39377 0.7335 0.92955 0.0
H668 H 0.3813 0.69691 0.9236 0.0
H669 H 0.42586 0.761 0.95094 0.0
H670 H 0.40704 0.75395 0.88719 0.0
H671 H 0.40825 0.74509 0.85492 0.0
H672 H 0.47501 0.78921 0.85428 0.0
H673 H 0.47425 0.79814 0.88663 0.0
C674 C 0.43804 0.85233 0.94833 0.0
C675 C 0.45844 0.86965 0.94633 0.0
C676 C 0.43368 0.83258 0.94298 0.0
C677 C 0.44962 0.8296 0.93564 0.0
C678 C 0.4698 0.84687 0.93295 0.0
C679 C 0.47423 0.86674 0.93835 0.0
C680 C 0.4452 0.80826 0.93161 0.0
C681 C 0.44671 0.80256 0.91365 0.0
C682 C 0.43787 0.79314 0.94525 0.0
C683 C 0.43705 0.7985 0.96466 0.0
C684 C 0.45523 0.81434 0.97367 0.0
C685 C 0.45428 0.81955 0.99186 0.0
C686 C 0.43527 0.80894 0.00122 0.0
C687 C 0.41718 0.79304 0.99244 0.0
C688 C 0.41804 0.78779 0.97424 0.0
C689 C 0.43107 0.71745 0.90651 0.0
C690 C 0.41051 0.70212 0.91137 0.0
C691 C 0.43819 0.73844 0.90997 0.0
C692 C 0.42486 0.74449 0.91829 0.0
C693 C 0.40435 0.72921 0.92313 0.0
C694 C 0.39722 0.70827 0.91967 0.0
C695 C 0.43229 0.76666 0.9224 0.0
C696 C 0.4314 0.77255 0.94045 0.0
C697 C 0.44015 0.78189 0.90882 0.0
C698 C 0.44063 0.77653 0.88938 0.0
C699 C 0.42202 0.76163 0.88021 0.0
C700 C 0.42261 0.75662 0.8619 0.0
C701 C 0.44171 0.76653 0.85257 0.0
C702 C 0.46024 0.78151 0.86153 0.0
C703 C 0.45973 0.78656 0.87985 0.0
H704 H 0.44214 0.76264 0.83839 0.0
H705 H 0.43456 0.813 0.0153 0.0
H706 H 0.58834 0.46362 0.12342 0.0
H707 H 0.61448 0.45829 0.10779 0.0
H708 H 0.5657 0.39675 0.0911 0.0
H709 H 0.53906 0.4022 0.10612 0.0
H710 H 0.601 0.39842 0.10853 0.0
H711 H 0.587 0.43088 0.05939 0.0
H712 H 0.58186 0.45742 0.04461 0.0
H713 H 0.64575 0.50398 0.05905 0.0
H714 H 0.65119 0.47779 0.07416 0.0
H715 H 0.68164 0.3872 0.0649 0.0
H716 H 0.64847 0.38719 0.06953 0.0
H717 H 0.68406 0.45273 0.08235 0.0
H718 H 0.71705 0.45299 0.07721 0.0
H719 H 0.65102 0.44465 0.06238 0.0
H720 H 0.66314 0.4146 0.11575 0.0
H721 H 0.66891 0.38932 0.13221 0.0
H722 H 0.60937 0.33967 0.11146 0.0
H723 H 0.60338 0.36466 0.0947 0.0
C724 C 0.58293 0.44915 0.116 0.0
C725 C 0.56147 0.43336 0.11606 0.0
C726 C 0.59799 0.44609 0.10714 0.0
C727 C 0.59201 0.42716 0.09823 0.0
C728 C 0.57062 0.41147 0.09792 0.0
C729 C 0.55545 0.4146 0.10661 0.0
C730 C 0.60848 0.42347 0.09043 0.0
C731 C 0.61166 0.40819 0.09812 0.0
C732 C 0.62261 0.43654 0.07715 0.0
C733 C 0.61945 0.45236 0.06802 0.0
C734 C 0.59991 0.44681 0.05954 0.0
C735 C 0.59695 0.46179 0.05108 0.0
C736 C 0.61345 0.48238 0.05091 0.0
C737 C 0.63297 0.48803 0.05919 0.0
C738 C 0.63601 0.47311 0.06768 0.0
C739 C 0.68237 0.40162 0.06859 0.0
C740 C 0.70201 0.42007 0.07079 0.0
C741 C 0.6634 0.40158 0.07129 0.0
C742 C 0.66375 0.41991 0.07653 0.0
C743 C 0.68334 0.43839 0.07828 0.0
C744 C 0.70224 0.4385 0.07541 0.0
C745 C 0.64394 0.41997 0.08085 0.0
C746 C 0.64014 0.43459 0.07252 0.0
C747 C 0.62937 0.40646 0.09372 0.0
C748 C 0.63294 0.39145 0.1038 0.0
C749 C 0.65136 0.39827 0.11459 0.0
C750 C 0.65466 0.38401 0.12399 0.0
C751 C 0.63955 0.3629 0.12283 0.0
C752 C 0.62108 0.35602 0.11231 0.0
C753 C 0.61772 0.37022 0.10287 0.0
H754 H 0.64213 0.35188 0.13012 0.0
H755 H 0.61113 0.49395 0.04435 0.0
H756 H 0.45309 0.89247 0.53158 0.0
H757 H 0.43386 0.85865 0.54619 0.0
H758 H 0.37811 0.84329 0.51387 0.0
H759 H 0.39713 0.87663 0.49912 0.0
H760 H 0.39599 0.83929 0.56613 0.0
H761 H 0.35674 0.79392 0.49862 0.0
H762 H 0.36515 0.79613 0.466 0.0
H763 H 0.43173 0.82953 0.4793 0.0
H764 H 0.42373 0.82724 0.51201 0.0
H765 H 0.29747 0.74798 0.57466 0.0
H766 H 0.32872 0.78123 0.56824 0.0
H767 H 0.36203 0.75006 0.55132 0.0
H768 H 0.33066 0.71653 0.55773 0.0
H769 H 0.3636 0.77639 0.52601 0.0
H770 H 0.3788 0.78046 0.58902 0.0
H771 H 0.37186 0.77819 0.62192 0.0
H772 H 0.35666 0.82649 0.61853 0.0
H773 H 0.36319 0.82885 0.58555 0.0
C774 C 0.4367 0.88189 0.52768 0.0
C775 C 0.42662 0.88727 0.51423 0.0
C776 C 0.42574 0.86265 0.53608 0.0
C777 C 0.40466 0.84841 0.53095 0.0
C778 C 0.39444 0.85398 0.5179 0.0
C779 C 0.40529 0.87316 0.50961 0.0
C780 C 0.3932 0.82744 0.53874 0.0
C781 C 0.38903 0.82549 0.55743 0.0
C782 C 0.38465 0.80943 0.52743 0.0
C783 C 0.38961 0.81051 0.50778 0.0
C784 C 0.37317 0.80162 0.4946 0.0
C785 C 0.37787 0.80291 0.47609 0.0
C786 C 0.39896 0.813 0.47058 0.0
C787 C 0.4154 0.82177 0.48358 0.0
C788 C 0.41079 0.82049 0.50211 0.0
C789 C 0.31154 0.74817 0.56984 0.0
C790 C 0.31152 0.72958 0.56659 0.0
C791 C 0.32946 0.76723 0.5663 0.0
C792 C 0.34777 0.76816 0.5594 0.0
C793 C 0.34809 0.74969 0.5567 0.0
C794 C 0.33017 0.73056 0.56041 0.0
C795 C 0.36553 0.78825 0.5533 0.0
C796 C 0.37086 0.79008 0.53485 0.0
C797 C 0.37533 0.80607 0.5649 0.0
C798 C 0.37139 0.80476 0.58476 0.0
C799 C 0.37382 0.7905 0.59525 0.0
C800 C 0.36999 0.78921 0.61393 0.0
C801 C 0.3638 0.80217 0.62231 0.0
C802 C 0.36146 0.81646 0.61203 0.0
C803 C 0.36526 0.81781 0.59334 0.0
H804 H 0.36084 0.80115 0.63677 0.0
H805 H 0.40256 0.81401 0.45625 0.0
H806 H 0.53394 0.42256 0.70581 0.0
H807 H 0.54085 0.39603 0.71734 0.0
H808 H 0.60656 0.43312 0.7028 0.0
H809 H 0.59959 0.45909 0.69037 0.0
H810 H 0.59166 0.39559 0.69058 0.0
H811 H 0.59028 0.42544 0.74802 0.0
H812 H 0.5761 0.43824 0.77201 0.0
H813 H 0.52152 0.37743 0.77629 0.0
H814 H 0.53523 0.36431 0.75213 0.0
H815 H 0.62087 0.32701 0.72904 0.0
H816 H 0.61889 0.3585 0.72563 0.0
H817 H 0.55113 0.32313 0.73225 0.0
H818 H 0.55292 0.29165 0.7357 0.0
H819 H 0.5697 0.36152 0.75024 0.0
H820 H 0.57018 0.3331 0.69072 0.0
H821 H 0.58477 0.3205 0.66691 0.0
H822 H 0.64213 0.37975 0.66711 0.0
H823 H 0.62796 0.39261 0.69113 0.0
C824 C 0.54989 0.42512 0.70512 0.0
C825 C 0.56617 0.44302 0.69711 0.0
C826 C 0.55388 0.41003 0.71193 0.0
C827 C 0.57428 0.41262 0.71108 0.0
C828 C 0.5907 0.43077 0.70365 0.0
C829 C 0.5867 0.44576 0.69672 0.0
C830 C 0.5782 0.39577 0.71655 0.0
C831 C 0.58724 0.38846 0.70379 0.0
C832 C 0.57204 0.38611 0.73362 0.0
C833 C 0.56371 0.39394 0.74814 0.0
C834 C 0.57517 0.41483 0.75397 0.0
C835 C 0.56723 0.42214 0.76762 0.0
C836 C 0.54789 0.40867 0.77564 0.0
C837 C 0.53648 0.38785 0.77005 0.0
C838 C 0.54435 0.38047 0.75639 0.0
C839 C 0.60558 0.32597 0.73 0.0
C840 C 0.58703 0.30676 0.73245 0.0
C841 C 0.60448 0.34397 0.72802 0.0
C842 C 0.58482 0.34308 0.72851 0.0
C843 C 0.56644 0.32414 0.73183 0.0
C844 C 0.56751 0.30614 0.73369 0.0
C845 C 0.5831 0.3615 0.72426 0.0
C846 C 0.57438 0.36895 0.73717 0.0
C847 C 0.58964 0.37141 0.70736 0.0
C848 C 0.59811 0.36373 0.69286 0.0
C849 C 0.58597 0.34338 0.68579 0.0
C850 C 0.59415 0.3362 0.67224 0.0
C851 C 0.61439 0.34929 0.66554 0.0
C852 C 0.62647 0.36961 0.67234 0.0
C853 C 0.61837 0.37686 0.68591 0.0
H854 H 0.6207 0.34371 0.65505 0.0
H855 H 0.54178 0.41436 0.78621 0.0
H856 H 0.14412 0.59944 0.86518 0.0
H857 H 0.17759 0.61014 0.88139 0.0
H858 H 0.17485 0.55358 0.86391 0.0
H859 H 0.14223 0.54324 0.84682 0.0
H860 H 0.18705 0.56638 0.90247 0.0
H861 H 0.20291 0.59229 0.84033 0.0
H862 H 0.20123 0.61263 0.81495 0.0
H863 H 0.23084 0.66771 0.84882 0.0
H864 H 0.2324 0.64759 0.8745 0.0
H865 H 0.28459 0.57224 0.89939 0.0
H866 H 0.25007 0.56888 0.89485 0.0
H867 H 0.27747 0.63466 0.90422 0.0
H868 H 0.31256 0.6383 0.90833 0.0
H869 H 0.25244 0.62291 0.8755 0.0
H870 H 0.24369 0.59924 0.93563 0.0
H871 H 0.24531 0.5798 0.96177 0.0
H872 H 0.20231 0.52238 0.93416 0.0
H873 H 0.20066 0.54144 0.90773 0.0
C874 C 0.15062 0.58926 0.86469 0.0
C875 C 0.1404 0.57049 0.85451 0.0
C876 C 0.16965 0.59535 0.87412 0.0
C877 C 0.17861 0.58263 0.8738 0.0
C878 C 0.16804 0.56351 0.86442 0.0
C879 C 0.14926 0.55758 0.85473 0.0
C880 C 0.19976 0.58968 0.88204 0.0
C881 C 0.2014 0.57873 0.89665 0.0
C882 C 0.21833 0.60633 0.87484 0.0
C883 C 0.21751 0.61841 0.85938 0.0
C884 C 0.20887 0.6087 0.84241 0.0
C885 C 0.20798 0.62019 0.82796 0.0
C886 C 0.21585 0.64144 0.83029 0.0
C887 C 0.2247 0.65124 0.84705 0.0
C888 C 0.22559 0.63981 0.86155 0.0
C889 C 0.28336 0.58604 0.90068 0.0
C890 C 0.3014 0.60557 0.90423 0.0
C891 C 0.26349 0.58404 0.89822 0.0
C892 C 0.26103 0.60145 0.89953 0.0
C893 C 0.27895 0.62099 0.90327 0.0
C894 C 0.29898 0.62304 0.90563 0.0
C895 C 0.23993 0.5991 0.89564 0.0
C896 C 0.23821 0.61092 0.88178 0.0
C897 C 0.22127 0.58342 0.90375 0.0
C898 C 0.22213 0.5718 0.91964 0.0
C899 C 0.23468 0.58246 0.93507 0.0
C900 C 0.23559 0.5715 0.94995 0.0
C901 C 0.22394 0.54987 0.94962 0.0
C902 C 0.21132 0.53914 0.93441 0.0
C903 C 0.21036 0.55002 0.91948 0.0
H904 H 0.22466 0.54142 0.96116 0.0
H905 H 0.21516 0.65031 0.81908 0.0
H906 H 0.61135 0.15093 0.03672 0.0
H907 H 0.63785 0.18502 0.04947 0.0
H908 H 0.61871 0.21468 0.00991 0.0
H909 H 0.59264 0.18094 0.997 0.0
H910 H 0.66156 0.23233 0.01217 0.0
H911 H 0.60314 0.21071 0.05342 0.0
H912 H 0.57683 0.18738 0.07533 0.0
H913 H 0.62695 0.19396 0.1108 0.0
H914 H 0.65357 0.21713 0.08895 0.0
H915 H 0.6996 0.33386 0.0437 0.0
H916 H 0.67708 0.29749 0.03491 0.0
H917 H 0.70408 0.27991 0.07864 0.0
H918 H 0.72669 0.31648 0.08772 0.0
H919 H 0.66084 0.25466 0.07597 0.0
H920 H 0.71939 0.27903 0.03609 0.0
H921 H 0.74568 0.30262 0.01431 0.0
H922 H 0.69569 0.29075 0.97627 0.0
H923 H 0.66906 0.26731 0.99793 0.0
C924 C 0.61284 0.16475 0.03077 0.0
C925 C 0.59978 0.16323 0.01596 0.0
C926 C 0.62789 0.18418 0.03812 0.0
C927 C 0.63016 0.20238 0.03069 0.0
C928 C 0.61721 0.20085 0.01587 0.0
C929 C 0.60217 0.18153 0.00862 0.0
C930 C 0.64618 0.22317 0.03802 0.0
C931 C 0.66132 0.23725 0.02609 0.0
C932 C 0.6463 0.22937 0.05634 0.0
C933 C 0.63032 0.21543 0.06945 0.0
C934 C 0.60854 0.20703 0.06581 0.0
C935 C 0.59357 0.19387 0.07823 0.0
C936 C 0.60021 0.18914 0.09442 0.0
C937 C 0.62183 0.19761 0.09823 0.0
C938 C 0.63686 0.21076 0.08584 0.0
C939 C 0.7008 0.32232 0.05151 0.0
C940 C 0.71507 0.32813 0.06636 0.0
C941 C 0.68794 0.3015 0.04641 0.0
C942 C 0.68912 0.286 0.05595 0.0
C943 C 0.70299 0.29164 0.07104 0.0
C944 C 0.71593 0.31255 0.07617 0.0
C945 C 0.67583 0.26398 0.04996 0.0
C946 C 0.66127 0.24966 0.06212 0.0
C947 C 0.67624 0.25751 0.03184 0.0
C948 C 0.69221 0.27152 0.01871 0.0
C949 C 0.71399 0.28156 0.02314 0.0
C950 C 0.72896 0.29489 0.0108 0.0
C951 C 0.72236 0.29821 0.99393 0.0
C952 C 0.70077 0.28817 0.98934 0.0
C953 C 0.68574 0.27484 0.00164 0.0
H954 H 0.73397 0.30854 0.9844 0.0
H955 H 0.5886 0.17895 0.10402 0.0
H956 H 0.45925 0.6192 0.17689 0.0
H957 H 0.45204 0.64546 0.18904 0.0
H958 H 0.42113 0.60719 0.23506 0.0
H959 H 0.42821 0.58065 0.22283 0.0
H960 H 0.3971 0.62036 0.22064 0.0
H961 H 0.46961 0.65301 0.23969 0.0
H962 H 0.50795 0.66652 0.23658 0.0
H963 H 0.51131 0.70936 0.19668 0.0
H964 H 0.47292 0.69591 0.19935 0.0
H965 H 0.38111 0.69814 0.2607 0.0
H966 H 0.39484 0.67464 0.25633 0.0
H967 H 0.42332 0.70439 0.2061 0.0
H968 H 0.40983 0.72813 0.21044 0.0
H969 H 0.44956 0.69554 0.22631 0.0
H970 H 0.3766 0.66002 0.20501 0.0
H971 H 0.33832 0.64688 0.20821 0.0
H972 H 0.33624 0.6096 0.25287 0.0
H973 H 0.3746 0.62273 0.25007 0.0
C974 C 0.45141 0.61657 0.18984 0.0
C975 C 0.44439 0.59786 0.19894 0.0
C976 C 0.44726 0.63161 0.19678 0.0
C977 C 0.43623 0.62843 0.21308 0.0
C978 C 0.42968 0.61 0.22246 0.0
C979 C 0.43372 0.59485 0.21546 0.0
C980 C 0.43022 0.64369 0.2195 0.0
C981 C 0.40867 0.63673 0.22227 0.0
C982 C 0.44521 0.66514 0.22125 0.0
C983 C 0.46834 0.67333 0.21964 0.0
C984 C 0.47849 0.66521 0.23015 0.0
C985 C 0.50024 0.67287 0.22848 0.0
C986 C 0.51205 0.68876 0.21642 0.0
C987 C 0.50214 0.69704 0.20602 0.0
C988 C 0.48039 0.68943 0.20762 0.0
C989 C 0.39044 0.69983 0.24879 0.0
C990 C 0.39423 0.71491 0.23583 0.0
C991 C 0.39824 0.68634 0.24631 0.0
C992 C 0.40989 0.68762 0.23079 0.0
C993 C 0.41436 0.70314 0.21817 0.0
C994 C 0.40655 0.71663 0.22063 0.0
C995 C 0.41653 0.67217 0.22721 0.0
C996 C 0.43812 0.67911 0.22494 0.0
C997 C 0.40161 0.6507 0.22594 0.0
C998 C 0.37849 0.64251 0.22744 0.0
C999 C 0.368 0.64911 0.21558 0.0
C1000 C 0.3463 0.64166 0.21731 0.0
C1001 C 0.33487 0.62745 0.23076 0.0
C1002 C 0.34512 0.62062 0.24247 0.0
C1003 C 0.36684 0.62804 0.2408 0.0
H1004 H 0.31807 0.6217 0.23206 0.0
H1005 H 0.52888 0.69467 0.21514 0.0
H1006 H 0.88073 0.46606 0.35948 0.0
H1007 H 0.84888 0.46242 0.37343 0.0
H1008 H 0.81794 0.396 0.36646 0.0
H1009 H 0.84922 0.39958 0.35149 0.0
H1010 H 0.79275 0.40824 0.35513 0.0
H1011 H 0.83421 0.42129 0.40938 0.0
H1012 H 0.86553 0.43955 0.42979 0.0
H1013 H 0.86014 0.49409 0.4291 0.0
H1014 H 0.82895 0.47626 0.40847 0.0
H1015 H 0.70136 0.39286 0.40192 0.0
H1016 H 0.73384 0.39218 0.39561 0.0
H1017 H 0.76915 0.45895 0.39483 0.0
H1018 H 0.73691 0.45982 0.40133 0.0
H1019 H 0.79125 0.44358 0.41232 0.0
H1020 H 0.75198 0.43089 0.35546 0.0
H1021 H 0.72037 0.41216 0.33539 0.0
H1022 H 0.72164 0.35586 0.34192 0.0
H1023 H 0.75313 0.37422 0.36221 0.0
C1024 C 0.86717 0.45066 0.36091 0.0
C1025 C 0.86759 0.43314 0.35425 0.0
C1026 C 0.84903 0.44858 0.36914 0.0
C1027 C 0.83102 0.4289 0.37119 0.0
C1028 C 0.83163 0.41134 0.36509 0.0
C1029 C 0.84968 0.41342 0.35669 0.0
C1030 C 0.81106 0.42675 0.37841 0.0
C1031 C 0.79239 0.41563 0.36785 0.0
C1032 C 0.81057 0.43669 0.39482 0.0
C1033 C 0.82933 0.44748 0.40725 0.0
C1034 C 0.83979 0.43723 0.41346 0.0
C1035 C 0.85751 0.44749 0.42509 0.0
C1036 C 0.86485 0.46797 0.43071 0.0
C1037 C 0.85445 0.47822 0.42473 0.0
C1038 C 0.83673 0.46804 0.41308 0.0
C1039 C 0.71606 0.40741 0.40057 0.0
C1040 C 0.71649 0.4264 0.40198 0.0
C1041 C 0.7346 0.40699 0.39693 0.0
C1042 C 0.75386 0.42552 0.39455 0.0
C1043 C 0.75447 0.44448 0.39661 0.0
C1044 C 0.73597 0.44493 0.40024 0.0
C1045 C 0.77318 0.42525 0.38895 0.0
C1046 C 0.79168 0.43597 0.39977 0.0
C1047 C 0.77353 0.41485 0.37283 0.0
C1048 C 0.75476 0.40387 0.36048 0.0
C1049 C 0.74543 0.41449 0.3527 0.0
C1050 C 0.72755 0.40395 0.34127 0.0
C1051 C 0.71897 0.38282 0.33742 0.0
C1052 C 0.72829 0.37221 0.34494 0.0
C1053 C 0.74616 0.38268 0.35638 0.0
H1054 H 0.70512 0.37468 0.32858 0.0
H1055 H 0.87857 0.47589 0.43971 0.0
H1056 H 0.11232 0.57033 0.39958 0.0
H1057 H 0.13412 0.58894 0.42639 0.0
H1058 H 0.1679 0.55574 0.42113 0.0
H1059 H 0.14649 0.53734 0.39415 0.0
H1060 H 0.15762 0.55826 0.45658 0.0
H1061 H 0.19032 0.60428 0.40699 0.0
H1062 H 0.19135 0.6244 0.38037 0.0
H1063 H 0.1712 0.65896 0.41337 0.0
H1064 H 0.16974 0.63882 0.44015 0.0
H1065 H 0.24185 0.6238 0.51842 0.0
H1066 H 0.22208 0.60447 0.49096 0.0
H1067 H 0.18857 0.6382 0.49073 0.0
H1068 H 0.20841 0.65776 0.51782 0.0
H1069 H 0.20007 0.63506 0.45738 0.0
H1070 H 0.16574 0.58851 0.5065 0.0
H1071 H 0.16389 0.56829 0.53331 0.0
H1072 H 0.18626 0.53473 0.50156 0.0
H1073 H 0.18851 0.55497 0.4746 0.0
C1074 C 0.12444 0.56704 0.40407 0.0
C1075 C 0.12767 0.55237 0.39465 0.0
C1076 C 0.13685 0.57765 0.41942 0.0
C1077 C 0.15278 0.57386 0.42563 0.0
C1078 C 0.15568 0.55887 0.41658 0.0
C1079 C 0.14333 0.54829 0.4012 0.0
C1080 C 0.16665 0.5858 0.44139 0.0
C1081 C 0.16714 0.57504 0.45668 0.0
C1082 C 0.17876 0.6077 0.44161 0.0
C1083 C 0.17973 0.61991 0.42554 0.0
C1084 C 0.18594 0.61606 0.40854 0.0
C1085 C 0.18663 0.62749 0.39343 0.0
C1086 C 0.18129 0.64292 0.39516 0.0
C1087 C 0.1753 0.64699 0.41204 0.0
C1088 C 0.17456 0.63558 0.42719 0.0
C1089 C 0.23034 0.62716 0.51247 0.0
C1090 C 0.22668 0.64229 0.52038 0.0
C1091 C 0.21898 0.61603 0.49682 0.0
C1092 C 0.20366 0.61972 0.48891 0.0
C1093 C 0.2003 0.63508 0.49659 0.0
C1094 C 0.21165 0.64622 0.51214 0.0
C1095 C 0.1909 0.60756 0.4727 0.0
C1096 C 0.19063 0.61828 0.45729 0.0
C1097 C 0.17891 0.58563 0.47242 0.0
C1098 C 0.17752 0.57342 0.48859 0.0
C1099 C 0.17043 0.57694 0.50527 0.0
C1100 C 0.16928 0.56545 0.52049 0.0
C1101 C 0.17501 0.55028 0.51915 0.0
C1102 C 0.18186 0.54652 0.50258 0.0
C1103 C 0.18306 0.55798 0.48733 0.0
H1104 H 0.17411 0.5414 0.53095 0.0
H1105 H 0.18184 0.65175 0.38344 0.0
H1106 H 0.55522 0.13959 0.55002 0.0
H1107 H 0.56119 0.15979 0.57795 0.0
H1108 H 0.62151 0.16344 0.58614 0.0
H1109 H 0.61516 0.14219 0.55849 0.0
H1110 H 0.6012 0.15689 0.61765 0.0
H1111 H 0.61935 0.20471 0.56988 0.0
H1112 H 0.61487 0.21801 0.54071 0.0
H1113 H 0.55962 0.21754 0.56081 0.0
H1114 H 0.56358 0.20394 0.59003 0.0
H1115 H 0.62757 0.23646 0.68642 0.0
H1116 H 0.62943 0.21958 0.65816 0.0
H1117 H 0.56484 0.20197 0.64474 0.0
H1118 H 0.56274 0.21855 0.67291 0.0
H1119 H 0.59308 0.21881 0.61545 0.0
H1120 H 0.57382 0.16734 0.66215 0.0
H1121 H 0.57918 0.15438 0.69119 0.0
H1122 H 0.63872 0.16319 0.67268 0.0
H1123 H 0.63384 0.17649 0.64361 0.0
C1124 C 0.5696 0.14428 0.55789 0.0
C1125 C 0.5847 0.13919 0.55199 0.0
C1126 C 0.57313 0.15613 0.57375 0.0
C1127 C 0.59199 0.1635 0.58393 0.0
C1128 C 0.60692 0.15806 0.57839 0.0
C1129 C 0.60333 0.14604 0.56253 0.0
C1130 C 0.59593 0.17689 0.60031 0.0
C1131 C 0.59986 0.17067 0.61711 0.0
C1132 C 0.59406 0.19482 0.59963 0.0
C1133 C 0.59169 0.20317 0.58212 0.0
C1134 C 0.60616 0.20731 0.56805 0.0
C1135 C 0.60372 0.21492 0.5515 0.0
C1136 C 0.58695 0.21858 0.5489 0.0
C1137 C 0.57261 0.21469 0.56285 0.0
C1138 C 0.57496 0.20706 0.57942 0.0
C1139 C 0.61382 0.2291 0.67738 0.0
C1140 C 0.59498 0.22876 0.68192 0.0
C1141 C 0.6149 0.21943 0.66131 0.0
C1142 C 0.59723 0.20947 0.64946 0.0
C1143 C 0.57863 0.20959 0.65373 0.0
C1144 C 0.57745 0.219 0.66986 0.0
C1145 C 0.59778 0.19848 0.63274 0.0
C1146 C 0.59475 0.20521 0.61589 0.0
C1147 C 0.6007 0.18119 0.63337 0.0
C1148 C 0.6036 0.17316 0.65081 0.0
C1149 C 0.58815 0.1667 0.66434 0.0
C1150 C 0.59108 0.15926 0.68079 0.0
C1151 C 0.60931 0.15803 0.6838 0.0
C1152 C 0.62463 0.16419 0.67035 0.0
C1153 C 0.62179 0.17168 0.65388 0.0
H1154 H 0.61155 0.15225 0.69654 0.0
H1155 H 0.58509 0.22447 0.53608 0.0
H1156 H 0.44946 0.5697 0.73801 0.0
H1157 H 0.43632 0.57747 0.76571 0.0
H1158 H 0.46815 0.64212 0.75227 0.0
H1159 H 0.48118 0.63442 0.72429 0.0
H1160 H 0.47135 0.63545 0.78959 0.0
H1161 H 0.41766 0.61494 0.74334 0.0
H1162 H 0.39379 0.59274 0.71843 0.0
H1163 H 0.36327 0.54189 0.75482 0.0
H1164 H 0.38719 0.56369 0.7799 0.0
H1165 H 0.40854 0.65013 0.85772 0.0
H1166 H 0.42626 0.65143 0.82907 0.0
H1167 H 0.3971 0.58486 0.82861 0.0
H1168 H 0.37928 0.58338 0.85675 0.0
H1169 H 0.39319 0.59796 0.79616 0.0
H1170 H 0.44932 0.6171 0.84127 0.0
H1171 H 0.47356 0.63877 0.86622 0.0
H1172 H 0.49937 0.69192 0.83216 0.0
H1173 H 0.47506 0.67059 0.80707 0.0
C1174 C 0.45369 0.58558 0.74093 0.0
C1175 C 0.46615 0.6014 0.72883 0.0
C1176 C 0.44624 0.59001 0.75679 0.0
C1177 C 0.45102 0.61032 0.76087 0.0
C1178 C 0.46427 0.62634 0.74932 0.0
C1179 C 0.47173 0.62191 0.73338 0.0
C1180 C 0.44121 0.61442 0.77674 0.0
C1181 C 0.45426 0.62757 0.79094 0.0
C1182 C 0.41892 0.60404 0.77847 0.0
C1183 C 0.40433 0.59092 0.76347 0.0
C1184 C 0.40596 0.59898 0.74601 0.0
C1185 C 0.3924 0.58647 0.73186 0.0
C1186 C 0.37705 0.56591 0.73504 0.0
C1187 C 0.37518 0.55782 0.75238 0.0
C1188 C 0.38872 0.57025 0.76657 0.0
C1189 C 0.40595 0.63581 0.85149 0.0
C1190 C 0.39244 0.61666 0.85951 0.0
C1191 C 0.41613 0.63658 0.83517 0.0
C1192 C 0.41302 0.61823 0.82673 0.0
C1193 C 0.39964 0.5992 0.83481 0.0
C1194 C 0.38949 0.59841 0.85097 0.0
C1195 C 0.4233 0.61839 0.80936 0.0
C1196 C 0.41028 0.6061 0.79477 0.0
C1197 C 0.44558 0.62953 0.80734 0.0
C1198 C 0.4602 0.64232 0.82239 0.0
C1199 C 0.46004 0.63344 0.83916 0.0
C1200 C 0.47381 0.64566 0.85331 0.0
C1201 C 0.48794 0.66672 0.8508 0.0
C1202 C 0.48838 0.67561 0.8341 0.0
C1203 C 0.47462 0.66347 0.81991 0.0
H1204 H 0.4986 0.67615 0.86177 0.0
H1205 H 0.36657 0.55625 0.72407 0.0
H1206 H 0.89642 0.41736 0.91094 0.0
H1207 H 0.87463 0.41471 0.93693 0.0
H1208 H 0.84665 0.44396 0.90656 0.0
H1209 H 0.86723 0.44549 0.88002 0.0
H1210 H 0.86527 0.4599 0.94614 0.0
H1211 H 0.81631 0.39978 0.90862 0.0
H1212 H 0.80646 0.36762 0.89121 0.0
H1213 H 0.81609 0.34091 0.93904 0.0
H1214 H 0.82634 0.37307 0.95666 0.0
H1215 H 0.78666 0.44825 0.00735 0.0
H1216 H 0.80582 0.44966 0.97979 0.0
H1217 H 0.80908 0.39643 0.99717 0.0
H1218 H 0.78859 0.39416 0.02407 0.0
H1219 H 0.8035 0.39274 0.96351 0.0
H1220 H 0.85232 0.44967 0.00159 0.0
H1221 H 0.8655 0.48141 0.0206 0.0
H1222 H 0.86074 0.51382 0.97475 0.0
H1223 H 0.84728 0.48218 0.95551 0.0
C1224 C 0.88543 0.42296 0.90959 0.0
C1225 C 0.88363 0.43159 0.89322 0.0
C1226 C 0.87313 0.42158 0.92455 0.0
C1227 C 0.85909 0.42912 0.92357 0.0
C1228 C 0.85751 0.43814 0.90753 0.0
C1229 C 0.86946 0.43915 0.89242 0.0
C1230 C 0.84594 0.42748 0.93932 0.0
C1231 C 0.85157 0.44532 0.94987 0.0
C1232 C 0.82865 0.40828 0.94445 0.0
C1233 C 0.82232 0.38891 0.93389 0.0
C1234 C 0.81654 0.38713 0.91537 0.0
C1235 C 0.81084 0.36888 0.90548 0.0
C1236 C 0.81071 0.35225 0.914 0.0
C1237 C 0.81623 0.35382 0.93245 0.0
C1238 C 0.82197 0.37204 0.9424 0.0
C1239 C 0.79135 0.43678 0.00517 0.0
C1240 C 0.78626 0.42116 0.01784 0.0
C1241 C 0.80247 0.43769 0.9895 0.0
C1242 C 0.80949 0.42351 0.98657 0.0
C1243 C 0.80396 0.40761 -0.00092 0.0
C1244 C 0.79227 0.40633 0.01447 0.0
C1245 C 0.82266 0.42529 0.97056 0.0
C1246 C 0.81713 0.40743 0.95992 0.0
C1247 C 0.84046 0.44443 0.96565 0.0
C1248 C 0.84859 0.4635 0.97716 0.0
C1249 C 0.85395 0.46352 0.99559 0.0
C1250 C 0.86149 0.4815 0.00641 0.0
C1251 C 0.8639 0.4996 -0.0011 0.0
C1252 C 0.85883 0.49978 0.98055 0.0
C1253 C 0.85127 0.48183 0.96968 0.0
H1254 H 0.86974 0.5135 0.00729 0.0
H1255 H 0.80628 0.33814 0.90632 0.0
H1256 H 0.42318 0.90403 0.06345 0.0
H1257 H 0.41234 0.88347 0.09092 0.0
H1258 H 0.45679 0.86294 0.07988 0.0
H1259 H 0.46729 0.88304 0.05199 0.0
H1260 H 0.41866 0.83108 0.08933 0.0
H1261 H 0.46746 0.89857 0.11332 0.0
H1262 H 0.48313 0.93628 0.11779 0.0
H1263 H 0.42505 0.92667 0.14071 0.0
H1264 H 0.40891 0.88891 0.13614 0.0
H1265 H 0.40327 0.78602 0.17759 0.0
H1266 H 0.41906 0.80646 0.15043 0.0
H1267 H 0.37834 0.83247 0.15517 0.0
H1268 H 0.36275 0.81244 0.18234 0.0
H1269 H 0.41839 0.86202 0.14946 0.0
H1270 H 0.36891 0.79471 0.12316 0.0
H1271 H 0.35322 0.75702 0.11842 0.0
H1272 H 0.41297 0.76643 0.09987 0.0
H1273 H 0.42909 0.80418 0.10473 0.0
C1274 C 0.4306 0.89508 0.06682 0.0
C1275 C 0.4461 0.89517 0.05555 0.0
C1276 C 0.42453 0.88349 0.08261 0.0
C1277 C 0.43394 0.87186 0.08755 0.0
C1278 C 0.44941 0.87188 0.07635 0.0
C1279 C 0.45551 0.8835 0.06052 0.0
C1280 C 0.42715 0.85933 0.10421 0.0
C1281 C 0.41895 0.83788 0.10255 0.0
C1282 C 0.42725 0.86818 0.1214 0.0
C1283 C 0.43693 0.8909 0.12425 0.0
C1284 C 0.45797 0.9045 0.11919 0.0
C1285 C 0.46695 0.92589 0.12176 0.0
C1286 C 0.45508 0.93387 0.12949 0.0
C1287 C 0.43422 0.92047 0.13471 0.0
C1288 C 0.42516 0.89907 0.13215 0.0
C1289 C 0.39759 0.79601 0.17278 0.0
C1290 C 0.38174 0.7976 0.18216 0.0
C1291 C 0.40661 0.80764 0.15724 0.0
C1292 C 0.39981 0.82092 0.15074 0.0
C1293 C 0.38388 0.82238 0.15999 0.0
C1294 C 0.37492 0.81084 0.1755 0.0
C1295 C 0.40946 0.8337 0.13451 0.0
C1296 C 0.41827 0.85523 0.13627 0.0
C1297 C 0.40994 0.82491 0.11745 0.0
C1298 C 0.40026 0.80224 0.11451 0.0
C1299 C 0.37874 0.78873 0.11822 0.0
C1300 C 0.36976 0.76736 0.11548 0.0
C1301 C 0.38211 0.75933 0.10891 0.0
C1302 C 0.40344 0.77267 0.105 0.0
C1303 C 0.4125 0.79405 0.10773 0.0
H1304 H 0.37512 0.74279 0.10679 0.0
H1305 H 0.46205 0.95043 0.13147 0.0
H1306 H 0.52964 0.4492 0.25326 0.0
H1307 H 0.54582 0.44416 0.28073 0.0
H1308 H 0.58119 0.4248 0.24727 0.0
H1309 H 0.56557 0.43043 0.21979 0.0
H1310 H 0.55531 0.39852 0.2815 0.0
H1311 H 0.6099 0.46624 0.25998 0.0
H1312 H 0.62194 0.5017 0.24981 0.0
H1313 H 0.60182 0.51571 0.3001 0.0
H1314 H 0.58935 0.4802 0.31045 0.0
H1315 H 0.62701 0.39891 0.34826 0.0
H1316 H 0.60874 0.4005 0.32074 0.0
H1317 H 0.601 0.44865 0.34626 0.0
H1318 H 0.62063 0.4481 0.37303 0.0
H1319 H 0.61232 0.45975 0.31499 0.0
H1320 H 0.55879 0.39483 0.33817 0.0
H1321 H 0.54358 0.35935 0.34954 0.0
H1322 H 0.55709 0.33946 0.29884 0.0
H1323 H 0.57262 0.37489 0.28724 0.0
C1324 C 0.54087 0.44388 0.25184 0.0
C1325 C 0.54653 0.44033 0.23452 0.0
C1326 C 0.55003 0.44098 0.26746 0.0
C1327 C 0.56459 0.43406 0.26592 0.0
C1328 C 0.56992 0.43009 0.24865 0.0
C1329 C 0.56114 0.43343 0.23304 0.0
C1330 C 0.57486 0.43172 0.28236 0.0
C1331 C 0.56794 0.41181 0.2888 0.0
C1332 C 0.59081 0.44914 0.29204 0.0
C1333 C 0.59847 0.47051 0.28589 0.0
C1334 C 0.60784 0.47682 0.26879 0.0
C1335 C 0.6148 0.49694 0.26301 0.0
C1336 C 0.61259 0.51093 0.27428 0.0
C1337 C 0.60349 0.50485 0.29137 0.0
C1338 C 0.59649 0.48473 0.2972 0.0
C1339 C 0.62123 0.40969 0.34794 0.0
C1340 C 0.62523 0.42344 0.36265 0.0
C1341 C 0.61066 0.41052 0.33228 0.0
C1342 C 0.6032 0.42456 0.33139 0.0
C1343 C 0.60669 0.4378 0.34644 0.0
C1344 C 0.61782 0.43743 0.36178 0.0
C1345 C 0.59275 0.42636 0.31458 0.0
C1346 C 0.59966 0.44627 0.30791 0.0
C1347 C 0.5764 0.40889 0.30498 0.0
C1348 C 0.56706 0.38757 0.31191 0.0
C1349 C 0.55865 0.38293 0.3295 0.0
C1350 C 0.54996 0.36282 0.33597 0.0
C1351 C 0.54943 0.34718 0.32494 0.0
C1352 C 0.55754 0.3516 0.30738 0.0
C1353 C 0.56628 0.37169 0.30084 0.0
H1354 H 0.54269 0.33162 0.32998 0.0
H1355 H 0.61799 0.5265 0.26978 0.0
H1356 H 0.4871 0.91917 0.38991 0.0
H1357 H 0.48024 0.89502 0.36436 0.0
H1358 H 0.41544 0.8573 0.38124 0.0
H1359 H 0.42246 0.88055 0.4072 0.0
H1360 H 0.42923 0.83322 0.37037 0.0
H1361 H 0.43096 0.89426 0.34687 0.0
H1362 H 0.44728 0.93157 0.34095 0.0
H1363 H 0.49725 0.93025 0.31169 0.0
H1364 H 0.48133 0.89295 0.31764 0.0
H1365 H 0.36458 0.79622 0.29042 0.0
H1366 H 0.38493 0.81633 0.3173 0.0
H1367 H 0.4414 0.82017 0.29557 0.0
H1368 H 0.42088 0.79934 0.26872 0.0
H1369 H 0.43991 0.86052 0.30786 0.0
H1370 H 0.43144 0.79589 0.32731 0.0
H1371 H 0.4114 0.7583 0.33246 0.0
H1372 H 0.37027 0.76631 0.36885 0.0
H1373 H 0.38986 0.80393 0.36368 0.0
C1374 C 0.47149 0.90555 0.38832 0.0
C1375 C 0.45524 0.90199 0.40045 0.0
C1376 C 0.46755 0.89185 0.37363 0.0
C1377 C 0.44723 0.87449 0.37071 0.0
C1378 C 0.43123 0.8706 0.38315 0.0
C1379 C 0.4352 0.88411 0.39787 0.0
C1380 C 0.442 0.86075 0.35434 0.0
C1381 C 0.43167 0.83923 0.35671 0.0
C1382 C 0.44555 0.86853 0.33647 0.0
C1383 C 0.45513 0.89092 0.33291 0.0
C1384 C 0.44552 0.90198 0.3393 0.0
C1385 C 0.45468 0.9231 0.33592 0.0
C1386 C 0.47334 0.93329 0.32601 0.0
C1387 C 0.48283 0.92235 0.31941 0.0
C1388 C 0.47375 0.90122 0.32278 0.0
C1389 C 0.38128 0.80113 0.29145 0.0
C1390 C 0.39119 0.79627 0.27751 0.0
C1391 C 0.39284 0.81255 0.3068 0.0
C1392 C 0.41458 0.81964 0.30834 0.0
C1393 C 0.42458 0.8147 0.29457 0.0
C1394 C 0.41286 0.8028 0.27934 0.0
C1395 C 0.42671 0.83317 0.32402 0.0
C1396 C 0.43817 0.85461 0.32152 0.0
C1397 C 0.42383 0.82533 0.34177 0.0
C1398 C 0.41204 0.80272 0.34499 0.0
C1399 C 0.41801 0.78962 0.33628 0.0
C1400 C 0.40675 0.76831 0.33923 0.0
C1401 C 0.38955 0.75992 0.35095 0.0
C1402 C 0.3836 0.77283 0.35977 0.0
C1403 C 0.39479 0.79416 0.35685 0.0
H1404 H 0.38085 0.74341 0.35322 0.0
H1405 H 0.4804 0.94965 0.32339 0.0
H1406 H 0.59272 0.50148 0.57114 0.0
H1407 H 0.60165 0.48871 0.54382 0.0
H1408 H 0.5602 0.42573 0.56005 0.0
H1409 H 0.55155 0.43846 0.58773 0.0
H1410 H 0.5981 0.43157 0.54924 0.0
H1411 H 0.54555 0.44432 0.52511 0.0
H1412 H 0.52708 0.46368 0.51951 0.0
H1413 H 0.58189 0.51091 0.49275 0.0
H1414 H 0.60083 0.49199 0.49843 0.0
H1415 H 0.61609 0.39909 0.46068 0.0
H1416 H 0.59863 0.40305 0.48759 0.0
H1417 H 0.63688 0.4695 0.48423 0.0
H1418 H 0.6543 0.46578 0.45756 0.0
H1419 H 0.59436 0.45597 0.48769 0.0
H1420 H 0.6478 0.44431 0.51577 0.0
H1421 H 0.66558 0.4243 0.52147 0.0
H1422 H 0.60723 0.37355 0.54044 0.0
H1423 H 0.58904 0.39319 0.53462 0.0
C1424 C 0.58549 0.48491 0.5689 0.0
C1425 C 0.57144 0.47098 0.58159 0.0
C1426 C 0.59047 0.47762 0.5532 0.0
C1427 C 0.58142 0.45626 0.54981 0.0
C1428 C 0.56728 0.44227 0.56238 0.0
C1429 C 0.56223 0.44957 0.57809 0.0
C1430 C 0.58748 0.44876 0.53342 0.0
C1431 C 0.59687 0.43653 0.53572 0.0
C1432 C 0.58599 0.45532 0.5158 0.0
C1433 C 0.57467 0.46678 0.51231 0.0
C1434 C 0.55373 0.45891 0.51815 0.0
C1435 C 0.54316 0.4698 0.51494 0.0
C1436 C 0.55331 0.48853 0.5058 0.0
C1437 C 0.57405 0.4964 0.49983 0.0
C1438 C 0.5847 0.48558 0.50302 0.0
C1439 C 0.62089 0.41453 0.46578 0.0
C1440 C 0.63657 0.43211 0.45693 0.0
C1441 C 0.61091 0.41675 0.48114 0.0
C1442 C 0.61644 0.43658 0.48784 0.0
C1443 C 0.63229 0.45407 0.4792 0.0
C1444 C 0.6423 0.45189 0.46398 0.0
C1445 C 0.60561 0.43944 0.50363 0.0
C1446 C 0.59525 0.45073 0.50118 0.0
C1447 C 0.60607 0.43188 0.52104 0.0
C1448 C 0.61701 0.42011 0.52454 0.0
C1449 C 0.63872 0.42881 0.521 0.0
C1450 C 0.64888 0.41755 0.52428 0.0
C1451 C 0.63753 0.39764 0.53126 0.0
C1452 C 0.616 0.38896 0.53501 0.0
C1453 C 0.60576 0.40015 0.53172 0.0
H1454 H 0.64542 0.38895 0.5338 0.0
H1455 H 0.5451 0.49693 0.50333 0.0
H1456 H 0.14448 0.56403 0.74869 0.0
H1457 H 0.16795 0.57642 0.72272 0.0
H1458 H 0.12156 0.58441 0.69292 0.0
H1459 H 0.09743 0.5708 0.7184 0.0
H1460 H 0.13918 0.57011 0.67084 0.0
H1461 H 0.16525 0.62531 0.71618 0.0
H1462 H 0.17833 0.64131 0.74664 0.0
H1463 H 0.23065 0.63065 0.74245 0.0
H1464 H 0.21771 0.61434 0.71204 0.0
H1465 H 0.1998 0.65105 0.6113 0.0
H1466 H 0.17934 0.63153 0.6373 0.0
H1467 H 0.2268 0.61546 0.65025 0.0
H1468 H 0.24741 0.63478 0.62387 0.0
H1469 H 0.21135 0.63089 0.68086 0.0
H1470 H 0.18633 0.57924 0.63309 0.0
H1471 H 0.17297 0.56504 0.6022 0.0
H1472 H 0.11817 0.57094 0.61068 0.0
H1473 H 0.13137 0.58549 0.64154 0.0
C1474 C 0.13901 0.56795 0.73648 0.0
C1475 C 0.11904 0.56651 0.73574 0.0
C1476 C 0.15262 0.57532 0.7217 0.0
C1477 C 0.14673 0.58177 0.70598 0.0
C1478 C 0.12654 0.57966 0.70494 0.0
C1479 C 0.11282 0.57207 0.71962 0.0
C1480 C 0.16176 0.59135 0.69083 0.0
C1481 C 0.15491 0.58346 0.67306 0.0
C1482 C 0.18252 0.60849 0.69371 0.0
C1483 C 0.19038 0.61839 0.71194 0.0
C1484 C 0.17946 0.62625 0.72181 0.0
C1485 C 0.18686 0.63539 0.73906 0.0
C1486 C 0.20527 0.63693 0.7465 0.0
C1487 C 0.21637 0.6294 0.73668 0.0
C1488 C 0.20902 0.62022 0.71944 0.0
C1489 C 0.20602 0.64347 0.61968 0.0
C1490 C 0.22525 0.64446 0.6155 0.0
C1491 C 0.19423 0.63226 0.63449 0.0
C1492 C 0.20152 0.62198 0.64556 0.0
C1493 C 0.22094 0.62328 0.64178 0.0
C1494 C 0.23264 0.63427 0.62672 0.0
C1495 C 0.18853 0.60986 0.66099 0.0
C1496 C 0.19575 0.61732 0.67876 0.0
C1497 C 0.16802 0.59249 0.65811 0.0
C1498 C 0.15994 0.58361 0.63959 0.0
C1499 C 0.17152 0.57768 0.62832 0.0
C1500 C 0.16395 0.56953 0.61082 0.0
C1501 C 0.14475 0.56713 0.60446 0.0
C1502 C 0.13305 0.57282 0.61562 0.0
C1503 C 0.14055 0.581 0.63313 0.0
H1504 H 0.13892 0.56083 0.59091 0.0
H1505 H 0.21097 0.64401 0.75986 0.0
H1506 H 0.58745 0.11987 0.89522 0.0
H1507 H 0.59572 0.1397 0.86727 0.0
H1508 H 0.54109 0.14651 0.87448 0.0
H1509 H 0.53341 0.12805 0.90291 0.0
H1510 H 0.5477 0.13275 0.83732 0.0
H1511 H 0.58241 0.18482 0.88625 0.0
H1512 H 0.60712 0.20033 0.91248 0.0
H1513 H 0.65863 0.20782 0.87941 0.0
H1514 H 0.63412 0.19204 0.85304 0.0
H1515 H 0.55334 0.20956 0.78173 0.0
H1516 H 0.55062 0.18812 0.80732 0.0
H1517 H 0.61651 0.20628 0.80192 0.0
H1518 H 0.61954 0.22848 0.77656 0.0
H1519 H 0.60785 0.20518 0.83636 0.0
H1520 H 0.57617 0.15795 0.78667 0.0
H1521 H 0.55294 0.14135 0.75975 0.0
H1522 H 0.49799 0.12266 0.79244 0.0
H1523 H 0.5209 0.13942 0.81953 0.0
C1524 C 0.57727 0.12572 0.89102 0.0
C1525 C 0.55972 0.12226 0.90148 0.0
C1526 C 0.58195 0.1369 0.87495 0.0
C1527 C 0.56898 0.14449 0.8689 0.0
C1528 C 0.55118 0.1406 0.87892 0.0
C1529 C 0.54673 0.12984 0.89513 0.0
C1530 C 0.57414 0.15706 0.85239 0.0
C1531 C 0.56077 0.14862 0.83706 0.0
C1532 C 0.59169 0.17743 0.85194 0.0
C1533 C 0.6064 0.187 0.86776 0.0
C1534 C 0.59896 0.18957 0.88463 0.0
C1535 C 0.61294 0.19845 0.89951 0.0
C1536 C 0.63442 0.20499 0.89763 0.0
C1537 C 0.64198 0.20271 0.88086 0.0
C1538 C 0.62806 0.1938 0.86594 0.0
C1539 C 0.56729 0.20907 0.78599 0.0
C1540 C 0.58662 0.2206 0.77703 0.0
C1541 C 0.56568 0.19667 0.80057 0.0
C1542 C 0.58322 0.19514 0.80627 0.0
C1543 C 0.60272 0.20709 0.79768 0.0
C1544 C 0.60443 0.21977 0.7832 0.0
C1545 C 0.58099 0.18113 0.82127 0.0
C1546 C 0.59493 0.18923 0.83637 0.0
C1547 C 0.56418 0.16025 0.82135 0.0
C1548 C 0.55028 0.15008 0.80511 0.0
C1549 C 0.55914 0.15043 0.7881 0.0
C1550 C 0.54603 0.14097 0.77281 0.0
C1551 C 0.52401 0.13099 0.77438 0.0
C1552 C 0.51505 0.13041 0.79125 0.0
C1553 C 0.52809 0.13986 0.80658 0.0
H1554 H 0.51388 0.12367 0.76253 0.0
H1555 H 0.64522 0.21187 0.90917 0.0
H1556 H 0.41735 0.53808 0.07323 0.0
H1557 H 0.41315 0.55227 0.04485 0.0
H1558 H 0.4619 0.61347 0.06258 0.0
H1559 H 0.46604 0.59929 0.09125 0.0
H1560 H 0.42587 0.61256 0.04912 0.0
H1561 H 0.4732 0.59055 0.0294 0.0
H1562 H 0.48723 0.56688 0.02594 0.0
H1563 H 0.43073 0.5231 0.99649 0.0
H1564 H 0.4162 0.54636 0.0 0.0
H1565 H 0.40934 0.6416 0.9592 0.0
H1566 H 0.42695 0.6385 0.9866 0.0
H1567 H 0.38695 0.572 0.98326 0.0
H1568 H 0.36963 0.57488 0.95606 0.0
H1569 H 0.42759 0.58296 0.98871 0.0
H1570 H 0.37807 0.60209 0.01375 0.0
H1571 H 0.36333 0.62512 0.01781 0.0
H1572 H 0.42393 0.67408 0.03736 0.0
H1573 H 0.43909 0.65139 0.0332 0.0
C1574 C 0.42723 0.55454 0.07106 0.0
C1575 C 0.44199 0.56759 0.08444 0.0
C1576 C 0.42493 0.56262 0.0548 0.0
C1577 C 0.43735 0.5839 0.05155 0.0
C1578 C 0.45225 0.59699 0.06481 0.0
C1579 C 0.45468 0.58887 0.08108 0.0
C1580 C 0.43387 0.59228 0.03457 0.0
C1581 C 0.42673 0.60649 0.03585 0.0
C1582 C 0.43486 0.58423 0.01731 0.0
C1583 C 0.44357 0.57019 0.01505 0.0
C1584 C 0.4637 0.57582 0.02229 0.0
C1585 C 0.47175 0.56248 0.0203 0.0
C1586 C 0.45987 0.54349 0.01102 0.0
C1587 C 0.43992 0.53782 0.00367 0.0
C1588 C 0.43178 0.5511 0.00563 0.0
C1589 C 0.40427 0.62635 0.96439 0.0
C1590 C 0.38811 0.60849 0.95541 0.0
C1591 C 0.41434 0.62461 0.98003 0.0
C1592 C 0.40828 0.605 0.98694 0.0
C1593 C 0.39202 0.58727 0.97808 0.0
C1594 C 0.38205 0.58897 0.96254 0.0
C1595 C 0.41866 0.60249 0.00333 0.0
C1596 C 0.42721 0.58942 0.00193 0.0
C1597 C 0.4189 0.61155 0.02045 0.0
C1598 C 0.40977 0.62515 0.02294 0.0
C1599 C 0.38829 0.61782 0.01876 0.0
C1600 C 0.37985 0.6308 0.02111 0.0
C1601 C 0.3927 0.65108 0.02777 0.0
C1602 C 0.41401 0.65839 0.03216 0.0
C1603 C 0.42253 0.64548 0.02981 0.0
H1604 H 0.38614 0.6611 0.02959 0.0
H1605 H 0.46613 0.53318 0.00949 0.0
H1606 H 0.89091 0.45854 0.24171 0.0
H1607 H 0.86972 0.45513 0.21472 0.0
H1608 H 0.86268 0.39541 0.20222 0.0
H1609 H 0.88503 0.39927 0.2286 0.0
H1610 H 0.8683 0.41536 0.17216 0.0
H1611 H 0.82265 0.40064 0.22278 0.0
H1612 H 0.81154 0.40665 0.25276 0.0
H1613 H 0.8144 0.46185 0.23341 0.0
H1614 H 0.82583 0.45633 0.20337 0.0
H1615 H 0.78058 0.38569 0.1102 0.0
H1616 H 0.8011 0.38638 0.13706 0.0
H1617 H 0.82027 0.45043 0.14749 0.0
H1618 H 0.80005 0.44996 0.12069 0.0
H1619 H 0.80681 0.42583 0.17872 0.0
H1620 H 0.85394 0.44022 0.12814 0.0
H1621 H 0.86402 0.43282 0.09822 0.0
H1622 H 0.85651 0.3758 0.11795 0.0
H1623 H 0.84608 0.38274 0.14793 0.0
C1624 C 0.88525 0.44484 0.23306 0.0
C1625 C 0.88965 0.42913 0.23745 0.0
C1626 C 0.87283 0.44277 0.21774 0.0
C1627 C 0.86416 0.42479 0.20665 0.0
C1628 C 0.86901 0.40935 0.21066 0.0
C1629 C 0.88165 0.41151 0.22587 0.0
C1630 C 0.84994 0.42206 0.19096 0.0
C1631 C 0.85467 0.41733 0.17368 0.0
C1632 C 0.83222 0.42482 0.19284 0.0
C1633 C 0.82528 0.42816 0.21087 0.0
C1634 C 0.82106 0.41414 0.22496 0.0
C1635 C 0.81468 0.41745 0.24196 0.0
C1636 C 0.81232 0.43464 0.245 0.0
C1637 C 0.81627 0.44855 0.23104 0.0
C1638 C 0.82268 0.44533 0.21402 0.0
C1639 C 0.78907 0.39988 0.11827 0.0
C1640 C 0.78875 0.41779 0.11327 0.0
C1641 C 0.80083 0.40026 0.13356 0.0
C1642 C 0.81228 0.4185 0.14417 0.0
C1643 C 0.81154 0.43622 0.13947 0.0
C1644 C 0.80004 0.43592 0.12411 0.0
C1645 C 0.82536 0.41937 0.16003 0.0
C1646 C 0.82037 0.42373 0.17731 0.0
C1647 C 0.84265 0.41602 0.15819 0.0
C1648 C 0.849 0.41189 0.1402 0.0
C1649 C 0.85425 0.42602 0.12605 0.0
C1650 C 0.86006 0.42193 0.10909 0.0
C1651 C 0.86084 0.40382 0.10617 0.0
C1652 C 0.85586 0.3898 0.12022 0.0
C1653 C 0.85001 0.39381 0.1372 0.0
H1654 H 0.86535 0.40068 0.09303 0.0
H1655 H 0.80738 0.43718 0.25817 0.0
loop_
_geom_bond_atom_site_label_1
_geom_bond_atom_site_label_2
_geom_bond_distance
_geom_bond_site_symmetry_2
_ccdc_geom_bond_type
H0 C27 0.929 . S
N1 C26 1.433 . S
N1 C32 1.435 . S
N1 C38 1.423 . S
H2 C28 0.930 . S
H3 C31 0.931 . S
H4 C30 0.929 . S
H5 C33 0.930 . S
H6 C34 0.932 . S
H7 C37 0.929 . S
H8 C36 0.931 . S
H9 C39 0.929 . S
H10 C43 0.932 . S
H11 C40 0.931 . S
H12 C42 0.929 . S
H13 C45 0.929 . S
H14 C46 0.930 . S
H15 C48 0.929 . S
H16 C49 0.931 . S
H17 C51 0.930 . S
H18 C52 0.932 . S
H19 C54 0.931 . S
H20 C55 0.929 . S
H21 C57 0.929 . S
H22 C58 0.931 . S
H23 C60 0.929 . S
N24 C44 1.433 . S
N24 C50 1.435 . S
N24 C56 1.423 . S
H25 C61 0.932 . S
C26 N1 1.433 . S
C26 C27 1.363 . S
C26 C31 1.370 . S
C27 H0 0.929 . S
C27 C26 1.363 . S
C27 C28 1.385 . S
C28 H2 0.930 . S
C28 C27 1.385 . S
C28 C29 1.357 . S
C29 C28 1.357 . S
C29 C30 1.406 . S
C30 H4 0.929 . S
C30 C29 1.406 . S
C30 C31 1.391 . S
C31 H3 0.931 . S
C31 C26 1.370 . S
C31 C30 1.391 . S
C32 N1 1.435 . S
C32 C33 1.358 . S
C32 C37 1.371 . S
C33 H5 0.930 . S
C33 C32 1.358 . S
C33 C34 1.405 . S
C34 H6 0.932 . S
C34 C33 1.405 . S
C34 C35 1.383 . S
C35 C34 1.383 . S
C35 C36 1.393 . S
C36 H8 0.931 . S
C36 C35 1.393 . S
C36 C37 1.382 . S
C37 H7 0.929 . S
C37 C32 1.371 . S
C37 C36 1.382 . S
C38 N1 1.423 . S
C38 C39 1.362 . S
C38 C43 1.388 . S
C39 H9 0.929 . S
C39 C38 1.362 . S
C39 C40 1.376 . S
C40 H11 0.931 . S
C40 C39 1.376 . S
C40 C41 1.396 . S
C41 C40 1.396 . S
C41 C42 1.348 . S
C41 C59 1.472 1_455 S
C42 H12 0.929 . S
C42 C41 1.348 . S
C42 C43 1.443 . S
C43 H10 0.932 . S
C43 C38 1.388 . S
C43 C42 1.443 . S
C44 N24 1.433 . S
C44 C45 1.363 . S
C44 C49 1.370 . S
C45 H13 0.929 . S
C45 C44 1.363 . S
C45 C46 1.385 . S
C46 H14 0.930 . S
C46 C45 1.385 . S
C46 C47 1.357 . S
C47 C46 1.357 . S
C47 C48 1.406 . S
C48 H15 0.929 . S
C48 C47 1.406 . S
C48 C49 1.391 . S
C49 H16 0.931 . S
C49 C44 1.370 . S
C49 C48 1.391 . S
C50 N24 1.435 . S
C50 C51 1.358 . S
C50 C55 1.371 . S
C51 H17 0.930 . S
C51 C50 1.358 . S
C51 C52 1.405 . S
C52 H18 0.932 . S
C52 C51 1.405 . S
C52 C53 1.383 . S
C53 C52 1.383 . S
C53 C54 1.393 . S
C54 H19 0.931 . S
C54 C53 1.393 . S
C54 C55 1.382 . S
C55 H20 0.929 . S
C55 C50 1.371 . S
C55 C54 1.382 . S
C56 N24 1.423 . S
C56 C57 1.362 . S
C56 C61 1.388 . S
C57 H21 0.929 . S
C57 C56 1.362 . S
C57 C58 1.376 . S
C58 H22 0.931 . S
C58 C57 1.376 . S
C58 C59 1.396 . S
C59 C41 1.472 1_655 S
C59 C58 1.396 . S
C59 C60 1.348 . S
C60 H23 0.929 . S
C60 C59 1.348 . S
C60 C61 1.443 . S
C61 H25 0.932 . S
C61 C56 1.388 . S
C61 C60 1.443 . S
H62 C89 0.929 . S
N63 C88 1.433 . S
N63 C94 1.435 . S
N63 C100 1.423 . S
H64 C90 0.930 . S
H65 C93 0.931 . S
H66 C92 0.929 . S
H67 C95 0.930 . S
H68 C96 0.932 . S
H69 C99 0.929 . S
H70 C98 0.931 . S
H71 C101 0.929 . S
H72 C105 0.932 . S
H73 C102 0.931 . S
H74 C104 0.929 1_545 S
H75 C107 0.929 . S
H76 C108 0.930 . S
H77 C110 0.929 . S
H78 C111 0.931 . S
H79 C113 0.930 . S
H80 C114 0.932 . S
H81 C116 0.931 . S
H82 C117 0.929 . S
H83 C119 0.929 . S
H84 C120 0.931 . S
H85 C122 0.929 . S
N86 C106 1.433 . S
N86 C112 1.435 . S
N86 C118 1.423 . S
H87 C123 0.932 . S
C88 N63 1.433 . S
C88 C89 1.363 . S
C88 C93 1.370 . S
C89 H62 0.929 . S
C89 C88 1.363 . S
C89 C90 1.385 . S
C90 H64 0.930 . S
C90 C89 1.385 . S
C90 C91 1.357 . S
C91 C90 1.357 . S
C91 C92 1.406 . S
C92 H66 0.929 . S
C92 C91 1.406 . S
C92 C93 1.391 . S
C93 H65 0.931 . S
C93 C88 1.370 . S
C93 C92 1.391 . S
C94 N63 1.435 . S
C94 C95 1.358 . S
C94 C99 1.371 . S
C95 H67 0.930 . S
C95 C94 1.358 . S
C95 C96 1.405 . S
C96 H68 0.932 . S
C96 C95 1.405 . S
C96 C97 1.383 . S
C97 C96 1.383 . S
C97 C98 1.393 . S
C98 H70 0.931 . S
C98 C97 1.393 . S
C98 C99 1.382 . S
C99 H69 0.929 . S
C99 C94 1.371 . S
C99 C98 1.382 . S
C100 N63 1.423 . S
C100 C101 1.362 . S
C100 C105 1.388 . S
C101 H71 0.929 . S
C101 C100 1.362 . S
C101 C102 1.376 . S
C102 H73 0.931 . S
C102 C101 1.376 . S
C102 C103 1.396 1_565 S
C103 C102 1.396 1_545 S
C103 C104 1.348 1_545 S
C103 C121 1.472 . S
C104 H74 0.929 1_565 S
C104 C103 1.348 1_565 S
C104 C105 1.443 . S
C105 H72 0.932 . S
C105 C100 1.388 . S
C105 C104 1.443 . S
C106 N86 1.433 . S
C106 C107 1.363 . S
C106 C111 1.370 . S
C107 H75 0.929 . S
C107 C106 1.363 . S
C107 C108 1.385 . S
C108 H76 0.930 . S
C108 C107 1.385 . S
C108 C109 1.357 . S
C109 C108 1.357 . S
C109 C110 1.406 . S
C110 H77 0.929 . S
C110 C109 1.406 . S
C110 C111 1.391 . S
C111 H78 0.931 . S
C111 C106 1.370 . S
C111 C110 1.391 . S
C112 N86 1.435 . S
C112 C113 1.358 . S
C112 C117 1.371 . S
C113 H79 0.930 . S
C113 C112 1.358 . S
C113 C114 1.405 . S
C114 H80 0.932 . S
C114 C113 1.405 . S
C114 C115 1.383 . S
C115 C114 1.383 . S
C115 C116 1.393 . S
C116 H81 0.931 . S
C116 C115 1.393 . S
C116 C117 1.382 . S
C117 H82 0.929 . S
C117 C112 1.371 . S
C117 C116 1.382 . S
C118 N86 1.423 . S
C118 C119 1.362 . S
C118 C123 1.388 . S
C119 H83 0.929 . S
C119 C118 1.362 . S
C119 C120 1.376 . S
C120 H84 0.931 . S
C120 C119 1.376 . S
C120 C121 1.396 . S
C121 C103 1.472 . S
C121 C120 1.396 . S
C121 C122 1.348 . S
C122 H85 0.929 . S
C122 C121 1.348 . S
C122 C123 1.443 . S
C123 H87 0.932 . S
C123 C118 1.388 . S
C123 C122 1.443 . S
H124 C151 0.929 . S
N125 C150 1.433 . S
N125 C156 1.435 . S
N125 C162 1.423 . S
H126 C152 0.930 . S
H127 C155 0.931 . S
H128 C154 0.929 . S
H129 C157 0.930 . S
H130 C158 0.932 . S
H131 C161 0.929 . S
H132 C160 0.931 . S
H133 C163 0.929 . S
H134 C167 0.932 . S
H135 C164 0.931 . S
H136 C166 0.929 . S
H137 C169 0.929 . S
H138 C170 0.930 . S
H139 C172 0.929 . S
H140 C173 0.931 . S
H141 C175 0.930 . S
H142 C176 0.932 . S
H143 C178 0.931 . S
H144 C179 0.929 . S
H145 C181 0.929 . S
H146 C182 0.931 . S
H147 C184 0.929 . S
N148 C168 1.433 . S
N148 C174 1.435 . S
N148 C180 1.423 . S
H149 C185 0.932 . S
C150 N125 1.433 . S
C150 C151 1.363 . S
C150 C155 1.370 . S
C151 H124 0.929 . S
C151 C150 1.363 . S
C151 C152 1.385 . S
C152 H126 0.930 . S
C152 C151 1.385 . S
C152 C153 1.357 . S
C153 C152 1.357 . S
C153 C154 1.406 . S
C154 H128 0.929 . S
C154 C153 1.406 . S
C154 C155 1.391 . S
C155 H127 0.931 . S
C155 C150 1.370 . S
C155 C154 1.391 . S
C156 N125 1.435 . S
C156 C157 1.358 . S
C156 C161 1.371 . S
C157 H129 0.930 . S
C157 C156 1.358 . S
C157 C158 1.405 . S
C158 H130 0.932 . S
C158 C157 1.405 . S
C158 C159 1.383 . S
C159 C158 1.383 . S
C159 C160 1.393 . S
C160 H132 0.931 . S
C160 C159 1.393 . S
C160 C161 1.382 . S
C161 H131 0.929 . S
C161 C156 1.371 . S
C161 C160 1.382 . S
C162 N125 1.423 . S
C162 C163 1.362 . S
C162 C167 1.388 . S
C163 H133 0.929 . S
C163 C162 1.362 . S
C163 C164 1.376 . S
C164 H135 0.931 . S
C164 C163 1.376 . S
C164 C165 1.396 . S
C165 C164 1.396 . S
C165 C166 1.348 . S
C165 C183 1.472 . S
C166 H136 0.929 . S
C166 C165 1.348 . S
C166 C167 1.443 . S
C167 H134 0.932 . S
C167 C162 1.388 . S
C167 C166 1.443 . S
C168 N148 1.433 . S
C168 C169 1.363 . S
C168 C173 1.370 . S
C169 H137 0.929 . S
C169 C168 1.363 . S
C169 C170 1.385 . S
C170 H138 0.930 . S
C170 C169 1.385 . S
C170 C171 1.357 . S
C171 C170 1.357 . S
C171 C172 1.406 . S
C172 H139 0.929 . S
C172 C171 1.406 . S
C172 C173 1.391 . S
C173 H140 0.931 . S
C173 C168 1.370 . S
C173 C172 1.391 . S
C174 N148 1.435 . S
C174 C175 1.358 . S
C174 C179 1.371 . S
C175 H141 0.930 . S
C175 C174 1.358 . S
C175 C176 1.405 . S
C176 H142 0.932 . S
C176 C175 1.405 . S
C176 C177 1.383 . S
C177 C176 1.383 . S
C177 C178 1.393 . S
C178 H143 0.931 . S
C178 C177 1.393 . S
C178 C179 1.382 . S
C179 H144 0.929 . S
C179 C174 1.371 . S
C179 C178 1.382 . S
C180 N148 1.423 . S
C180 C181 1.362 . S
C180 C185 1.388 . S
C181 H145 0.929 . S
C181 C180 1.362 . S
C181 C182 1.376 . S
C182 H146 0.931 . S
C182 C181 1.376 . S
C182 C183 1.396 . S
C183 C165 1.472 . S
C183 C182 1.396 . S
C183 C184 1.348 . S
C184 H147 0.929 . S
C184 C183 1.348 . S
C184 C185 1.443 . S
C185 H149 0.932 . S
C185 C180 1.388 . S
C185 C184 1.443 . S
H186 C213 0.929 . S
N187 C212 1.433 . S
N187 C218 1.435 . S
N187 C224 1.423 . S
H188 C214 0.930 . S
H189 C217 0.931 . S
H190 C216 0.929 . S
H191 C219 0.930 . S
H192 C220 0.932 . S
H193 C223 0.929 . S
H194 C222 0.931 . S
H195 C225 0.929 . S
H196 C229 0.932 . S
H197 C226 0.931 . S
H198 C228 0.929 . S
H199 C231 0.929 . S
H200 C232 0.930 . S
H201 C234 0.929 . S
H202 C235 0.931 . S
H203 C237 0.930 . S
H204 C238 0.932 . S
H205 C240 0.931 . S
H206 C241 0.929 . S
H207 C243 0.929 . S
H208 C244 0.931 . S
H209 C246 0.929 . S
N210 C230 1.433 . S
N210 C236 1.435 . S
N210 C242 1.423 . S
H211 C247 0.932 . S
C212 N187 1.433 . S
C212 C213 1.363 . S
C212 C217 1.370 . S
C213 H186 0.929 . S
C213 C212 1.363 . S
C213 C214 1.385 . S
C214 H188 0.930 . S
C214 C213 1.385 . S
C214 C215 1.357 . S
C215 C214 1.357 . S
C215 C216 1.406 . S
C216 H190 0.929 . S
C216 C215 1.406 . S
C216 C217 1.391 . S
C217 H189 0.931 . S
C217 C212 1.370 . S
C217 C216 1.391 . S
C218 N187 1.435 . S
C218 C219 1.358 . S
C218 C223 1.371 . S
C219 H191 0.930 . S
C219 C218 1.358 . S
C219 C220 1.405 . S
C220 H192 0.932 . S
C220 C219 1.405 . S
C220 C221 1.383 . S
C221 C220 1.383 . S
C221 C222 1.393 . S
C222 H194 0.931 . S
C222 C221 1.393 . S
C222 C223 1.382 . S
C223 H193 0.929 . S
C223 C218 1.371 . S
C223 C222 1.382 . S
C224 N187 1.423 . S
C224 C225 1.362 . S
C224 C229 1.388 . S
C225 H195 0.929 . S
C225 C224 1.362 . S
C225 C226 1.376 . S
C226 H197 0.931 . S
C226 C225 1.376 . S
C226 C227 1.396 . S
C227 C226 1.396 . S
C227 C228 1.348 . S
C227 C245 1.472 1_455 S
C228 H198 0.929 . S
C228 C227 1.348 . S
C228 C229 1.443 . S
C229 H196 0.932 . S
C229 C224 1.388 . S
C229 C228 1.443 . S
C230 N210 1.433 . S
C230 C231 1.363 . S
C230 C235 1.370 . S
C231 H199 0.929 . S
C231 C230 1.363 . S
C231 C232 1.385 . S
C232 H200 0.930 . S
C232 C231 1.385 . S
C232 C233 1.357 . S
C233 C232 1.357 . S
C233 C234 1.406 . S
C234 H201 0.929 . S
C234 C233 1.406 . S
C234 C235 1.391 . S
C235 H202 0.931 . S
C235 C230 1.370 . S
C235 C234 1.391 . S
C236 N210 1.435 . S
C236 C237 1.358 . S
C236 C241 1.371 . S
C237 H203 0.930 . S
C237 C236 1.358 . S
C237 C238 1.405 . S
C238 H204 0.932 . S
C238 C237 1.405 . S
C238 C239 1.383 . S
C239 C238 1.383 . S
C239 C240 1.393 . S
C240 H205 0.931 . S
C240 C239 1.393 . S
C240 C241 1.382 . S
C241 H206 0.929 . S
C241 C236 1.371 . S
C241 C240 1.382 . S
C242 N210 1.423 . S
C242 C243 1.362 . S
C242 C247 1.388 . S
C243 H207 0.929 . S
C243 C242 1.362 . S
C243 C244 1.376 . S
C244 H208 0.931 . S
C244 C243 1.376 . S
C244 C245 1.396 . S
C245 C227 1.472 1_655 S
C245 C244 1.396 . S
C245 C246 1.348 . S
C246 H209 0.929 . S
C246 C245 1.348 . S
C246 C247 1.443 . S
C247 H211 0.932 . S
C247 C242 1.388 . S
C247 C246 1.443 . S
H248 C275 0.929 . S
N249 C274 1.433 . S
N249 C280 1.435 . S
N249 C286 1.423 . S
H250 C276 0.930 . S
H251 C279 0.931 . S
H252 C278 0.929 . S
H253 C281 0.930 . S
H254 C282 0.932 . S
H255 C285 0.929 . S
H256 C284 0.931 . S
H257 C287 0.929 . S
H258 C291 0.932 . S
H259 C288 0.931 . S
H260 C290 0.929 . S
H261 C293 0.929 . S
H262 C294 0.930 . S
H263 C296 0.929 . S
H264 C297 0.931 . S
H265 C299 0.930 1_554 S
H266 C300 0.932 . S
H267 C302 0.931 . S
H268 C303 0.929 . S
H269 C305 0.929 . S
H270 C306 0.952 1_554 S
H271 C308 0.929 . S
N272 C292 1.433 . S
N272 C298 1.435 1_554 S
N272 C304 1.423 1_554 S
H273 C309 0.932 . S
C274 N249 1.433 . S
C274 C275 1.363 . S
C274 C279 1.370 . S
C275 H248 0.929 . S
C275 C274 1.363 . S
C275 C276 1.385 . S
C276 H250 0.930 . S
C276 C275 1.385 . S
C276 C277 1.357 1_556 S
C277 C276 1.357 1_554 S
C277 C278 1.406 . S
C278 H252 0.929 . S
C278 C277 1.406 . S
C278 C279 1.391 1_554 S
C279 H251 0.931 . S
C279 C274 1.370 . S
C279 C278 1.391 1_556 S
C280 N249 1.435 . S
C280 C281 1.358 . S
C280 C285 1.371 . S
C281 H253 0.930 . S
C281 C280 1.358 . S
C281 C282 1.405 . S
C282 H254 0.932 . S
C282 C281 1.405 . S
C282 C283 1.383 . S
C283 C282 1.383 . S
C283 C284 1.393 . S
C284 H256 0.931 . S
C284 C283 1.393 . S
C284 C285 1.382 . S
C285 H255 0.929 . S
C285 C280 1.371 . S
C285 C284 1.382 . S
C286 N249 1.423 . S
C286 C287 1.362 . S
C286 C291 1.388 . S
C287 H257 0.929 . S
C287 C286 1.362 . S
C287 C288 1.376 . S
C288 H259 0.931 . S
C288 C287 1.376 . S
C288 C289 1.396 . S
C289 C288 1.396 . S
C289 C290 1.348 . S
C289 C307 1.472 1_545 S
C290 H260 0.929 . S
C290 C289 1.348 . S
C290 C291 1.443 . S
C291 H258 0.932 . S
C291 C286 1.388 . S
C291 C290 1.443 . S
C292 N272 1.433 . S
C292 C293 1.363 . S
C292 C297 1.370 . S
C293 H261 0.929 . S
C293 C292 1.363 . S
C293 C294 1.385 . S
C294 H262 0.930 . S
C294 C293 1.385 . S
C294 C295 1.357 . S
C295 C294 1.357 . S
C295 C296 1.406 . S
C296 H263 0.929 . S
C296 C295 1.406 . S
C296 C297 1.391 . S
C297 H264 0.931 . S
C297 C292 1.370 . S
C297 C296 1.391 . S
C298 N272 1.435 1_556 S
C298 C299 1.358 . S
C298 C303 1.371 . S
C299 H265 0.930 1_556 S
C299 C298 1.358 . S
C299 C300 1.405 . S
C300 H266 0.932 . S
C300 C299 1.405 . S
C300 C301 1.383 . S
C301 C300 1.383 . S
C301 C302 1.393 . S
C302 H267 0.931 . S
C302 C301 1.393 . S
C302 C303 1.382 . S
C303 H268 0.929 . S
C303 C298 1.371 . S
C303 C302 1.382 . S
C304 N272 1.423 1_556 S
C304 C305 1.362 1_556 S
C304 C309 1.388 . S
C305 H269 0.929 . S
C305 C304 1.362 1_554 S
C305 C306 1.376 1_554 S
C306 H270 0.952 1_556 S
C306 C305 1.376 1_556 S
C306 C307 1.396 . S
C307 C289 1.472 1_565 S
C307 C306 1.396 . S
C307 C308 1.348 . S
C308 H271 0.929 . S
C308 C307 1.348 . S
C308 C309 1.443 . S
C309 H273 0.932 . S
C309 C304 1.388 . S
C309 C308 1.443 . S
H310 C337 0.929 . S
N311 C336 1.433 . S
N311 C342 1.435 . S
N311 C348 1.423 . S
H312 C338 0.930 . S
H313 C341 0.931 . S
H314 C340 0.929 . S
H315 C343 0.930 . S
H316 C344 0.932 . S
H317 C347 0.929 . S
H318 C346 0.931 . S
H319 C349 0.929 . S
H320 C353 0.932 . S
H321 C350 0.931 . S
H322 C352 0.929 . S
H323 C355 0.929 . S
H324 C356 0.930 . S
H325 C358 0.929 . S
H326 C359 0.931 . S
H327 C361 0.930 . S
H328 C362 0.932 . S
H329 C364 0.931 . S
H330 C365 0.929 . S
H331 C367 0.929 . S
H332 C368 0.931 . S
H333 C370 0.929 . S
N334 C354 1.433 . S
N334 C360 1.435 . S
N334 C366 1.423 . S
H335 C371 0.932 . S
C336 N311 1.433 . S
C336 C337 1.363 . S
C336 C341 1.370 . S
C337 H310 0.929 . S
C337 C336 1.363 . S
C337 C338 1.385 . S
C338 H312 0.930 . S
C338 C337 1.385 . S
C338 C339 1.357 . S
C339 C338 1.357 . S
C339 C340 1.406 . S
C340 H314 0.929 . S
C340 C339 1.406 . S
C340 C341 1.391 . S
C341 H313 0.931 . S
C341 C336 1.370 . S
C341 C340 1.391 . S
C342 N311 1.435 . S
C342 C343 1.358 . S
C342 C347 1.371 . S
C343 H315 0.930 . S
C343 C342 1.358 . S
C343 C344 1.405 . S
C344 H316 0.932 . S
C344 C343 1.405 . S
C344 C345 1.383 . S
C345 C344 1.383 . S
C345 C346 1.393 . S
C346 H318 0.931 . S
C346 C345 1.393 . S
C346 C347 1.382 . S
C347 H317 0.929 . S
C347 C342 1.371 . S
C347 C346 1.382 . S
C348 N311 1.423 . S
C348 C349 1.362 . S
C348 C353 1.388 . S
C349 H319 0.929 . S
C349 C348 1.362 . S
C349 C350 1.376 . S
C350 H321 0.931 . S
C350 C349 1.376 . S
C350 C351 1.396 . S
C351 C350 1.396 . S
C351 C352 1.348 . S
C351 C369 1.472 . S
C352 H322 0.929 . S
C352 C351 1.348 . S
C352 C353 1.443 . S
C353 H320 0.932 . S
C353 C348 1.388 . S
C353 C352 1.443 . S
C354 N334 1.433 . S
C354 C355 1.363 . S
C354 C359 1.370 . S
C355 H323 0.929 . S
C355 C354 1.363 . S
C355 C356 1.385 . S
C356 H324 0.930 . S
C356 C355 1.385 . S
C356 C357 1.357 . S
C357 C356 1.357 . S
C357 C358 1.406 . S
C358 H325 0.929 . S
C358 C357 1.406 . S
C358 C359 1.391 . S
C359 H326 0.931 . S
C359 C354 1.370 . S
C359 C358 1.391 . S
C360 N334 1.435 . S
C360 C361 1.358 . S
C360 C365 1.371 . S
C361 H327 0.930 . S
C361 C360 1.358 . S
C361 C362 1.405 . S
C362 H328 0.932 . S
C362 C361 1.405 . S
C362 C363 1.383 . S
C363 C362 1.383 . S
C363 C364 1.393 . S
C364 H329 0.931 . S
C364 C363 1.393 . S
C364 C365 1.382 . S
C365 H330 0.929 . S
C365 C360 1.371 . S
C365 C364 1.382 . S
C366 N334 1.423 . S
C366 C367 1.362 . S
C366 C371 1.388 . S
C367 H331 0.929 . S
C367 C366 1.362 . S
C367 C368 1.376 . S
C368 H332 0.931 . S
C368 C367 1.376 . S
C368 C369 1.396 . S
C369 C351 1.472 . S
C369 C368 1.396 . S
C369 C370 1.348 . S
C370 H333 0.929 . S
C370 C369 1.348 . S
C370 C371 1.443 . S
C371 H335 0.932 . S
C371 C366 1.388 . S
C371 C370 1.443 . S
Zn372 O375 2.031 . S
Zn372 O377 2.049 . S
Zn372 O382 2.067 . S
Zn373 O374 1.962 . S
Zn373 O376 1.986 . S
Zn373 O378 1.996 . S
Zn373 O381 1.943 . S
O374 Zn373 1.962 . S
O374 C379 1.254 . S
O375 Zn372 2.031 . S
O375 C379 1.269 . S
O376 Zn373 1.986 . S
O376 C383 1.262 . S
O377 Zn372 2.049 . S
O377 C385 1.260 . S
O378 Zn373 1.996 . S
O378 C385 1.257 . S
C379 O374 1.254 . S
C379 O375 1.269 . S
C380 O381 1.249 . S
C380 O382 1.270 . S
O381 Zn373 1.943 . S
O381 C380 1.249 . S
O382 Zn372 2.067 . S
O382 C380 1.270 . S
C383 O376 1.262 . S
C383 O384 1.232 . S
O384 C383 1.232 . S
C385 O377 1.260 . S
C385 O378 1.257 . S
Zn386 O389 2.031 . S
Zn386 O391 2.049 . S
Zn386 O396 2.067 . S
Zn387 O388 1.962 . S
Zn387 O390 1.986 . S
Zn387 O392 1.996 . S
Zn387 O395 1.943 . S
O388 Zn387 1.962 . S
O388 C393 1.254 . S
O389 Zn386 2.031 . S
O389 C393 1.269 . S
O390 Zn387 1.986 . S
O390 C397 1.262 . S
O391 Zn386 2.049 . S
O391 C399 1.260 . S
O392 Zn387 1.996 . S
O392 C399 1.257 . S
C393 O388 1.254 . S
C393 O389 1.269 . S
C394 O395 1.249 . S
C394 O396 1.270 . S
O395 Zn387 1.943 . S
O395 C394 1.249 . S
O396 Zn386 2.067 . S
O396 C394 1.270 . S
C397 O390 1.262 . S
C397 O398 1.232 . S
O398 C397 1.232 . S
C399 O391 1.260 . S
C399 O392 1.257 . S
Zn400 O403 2.031 . S
Zn400 O405 2.049 . S
Zn400 O410 2.067 . S
Zn401 O402 1.962 . S
Zn401 O404 1.986 . S
Zn401 O406 1.996 . S
Zn401 O409 1.943 . S
O402 Zn401 1.962 . S
O402 C407 1.254 . S
O403 Zn400 2.031 . S
O403 C407 1.269 . S
O404 Zn401 1.986 . S
O404 C411 1.262 . S
O405 Zn400 2.049 . S
O405 C413 1.260 . S
O406 Zn401 1.996 . S
O406 C413 1.257 . S
C407 O402 1.254 . S
C407 O403 1.269 . S
C408 O409 1.249 . S
C408 O410 1.270 . S
O409 Zn401 1.943 . S
O409 C408 1.249 . S
O410 Zn400 2.067 . S
O410 C408 1.270 . S
C411 O404 1.262 . S
C411 O412 1.232 . S
O412 C411 1.232 . S
C413 O405 1.260 . S
C413 O406 1.257 . S
Zn414 O417 2.031 . S
Zn414 O419 2.049 . S
Zn414 O424 2.067 . S
Zn415 O416 1.962 . S
Zn415 O418 1.986 . S
Zn415 O420 1.996 . S
Zn415 O423 1.943 . S
O416 Zn415 1.962 . S
O416 C421 1.254 . S
O417 Zn414 2.031 . S
O417 C421 1.269 . S
O418 Zn415 1.986 . S
O418 C425 1.262 . S
O419 Zn414 2.049 . S
O419 C427 1.260 . S
O420 Zn415 1.996 . S
O420 C427 1.257 . S
C421 O416 1.254 . S
C421 O417 1.269 . S
C422 O423 1.249 . S
C422 O424 1.270 . S
O423 Zn415 1.943 . S
O423 C422 1.249 . S
O424 Zn414 2.067 . S
O424 C422 1.270 . S
C425 O418 1.262 . S
C425 O426 1.232 . S
O426 C425 1.232 . S
C427 O419 1.260 . S
C427 O420 1.257 . S
Zn428 O431 2.031 . S
Zn428 O433 2.049 . S
Zn428 O438 2.067 . S
Zn429 O430 1.962 . S
Zn429 O432 1.986 . S
Zn429 O434 1.996 . S
Zn429 O437 1.943 . S
O430 Zn429 1.962 . S
O430 C435 1.254 . S
O431 Zn428 2.031 . S
O431 C435 1.269 . S
O432 Zn429 1.986 . S
O432 C439 1.262 . S
O433 Zn428 2.049 . S
O433 C441 1.260 . S
O434 Zn429 1.996 . S
O434 C441 1.257 . S
C435 O430 1.254 . S
C435 O431 1.269 . S
C436 O437 1.249 . S
C436 O438 1.270 . S
O437 Zn429 1.943 . S
O437 C436 1.249 . S
O438 Zn428 2.067 . S
O438 C436 1.270 . S
C439 O432 1.262 . S
C439 O440 1.232 . S
O440 C439 1.232 . S
C441 O433 1.260 . S
C441 O434 1.257 . S
Zn442 O445 2.031 . S
Zn442 O447 2.049 . S
Zn442 O452 2.067 . S
Zn443 O444 1.962 . S
Zn443 O446 1.986 . S
Zn443 O448 1.996 . S
Zn443 O451 1.943 . S
O444 Zn443 1.962 . S
O444 C449 1.254 . S
O445 Zn442 2.031 . S
O445 C449 1.269 . S
O446 Zn443 1.986 . S
O446 C453 1.262 . S
O447 Zn442 2.049 . S
O447 C455 1.260 . S
O448 Zn443 1.996 . S
O448 C455 1.257 . S
C449 O444 1.254 . S
C449 O445 1.269 . S
C450 O451 1.249 . S
C450 O452 1.270 . S
O451 Zn443 1.943 . S
O451 C450 1.249 . S
O452 Zn442 2.067 . S
O452 C450 1.270 . S
C453 O446 1.262 . S
C453 O454 1.232 . S
O454 C453 1.232 . S
C455 O447 1.260 . S
C455 O448 1.257 . S
H456 C474 0.951 . S
H457 C476 0.951 . S
H458 C478 0.950 . S
H459 C479 0.950 . S
H460 C481 0.950 . S
H461 C484 0.950 . S
H462 C485 0.950 . S
H463 C487 0.950 . S
H464 C488 0.950 . S
H465 C489 0.951 . S
H466 C491 0.951 . S
H467 C493 0.950 . S
H468 C494 0.950 . S
H469 C496 0.950 . S
H470 C499 0.950 . S
H471 C500 0.950 . S
H472 C502 0.950 . S
H473 C503 0.950 . S
C474 H456 0.951 . S
C474 C475 1.366 . S
C474 C476 1.388 . S
C475 C474 1.366 . S
C475 C479 1.385 . S
C476 H457 0.951 . S
C476 C474 1.388 . S
C476 C477 1.366 . S
C477 C476 1.366 . S
C477 C478 1.414 . S
C477 C480 1.499 . S
C478 H458 0.950 . S
C478 C477 1.414 . S
C478 C479 1.374 . S
C479 H459 0.950 . S
C479 C475 1.385 . S
C479 C478 1.374 . S
C480 C477 1.499 . S
C480 C481 1.373 . S
C480 C482 1.389 . S
C481 H460 0.950 . S
C481 C480 1.373 . S
C481 C497 1.377 . S
C482 C480 1.389 . S
C482 C483 1.524 . S
C482 C496 1.377 . S
C483 C482 1.524 . S
C483 C484 1.397 . S
C483 C488 1.363 . S
C484 H461 0.950 . S
C484 C483 1.397 . S
C484 C485 1.334 . S
C485 H462 0.950 . S
C485 C484 1.334 . S
C485 C486 1.287 . S
C486 C485 1.287 . S
C486 C487 1.524 . S
C486 H505 0.913 . S
C487 H463 0.950 . S
C487 C486 1.524 . S
C487 C488 1.415 . S
C488 H464 0.950 . S
C488 C483 1.363 . S
C488 C487 1.415 . S
C489 H465 0.951 . S
C489 C490 1.366 . S
C489 C491 1.388 . S
C490 C489 1.366 . S
C490 C494 1.385 . S
C491 H466 0.951 . S
C491 C489 1.388 . S
C491 C492 1.366 . S
C492 C491 1.366 . S
C492 C493 1.414 . S
C492 C495 1.499 . S
C493 H467 0.950 . S
C493 C492 1.414 . S
C493 C494 1.374 . S
C494 H468 0.950 . S
C494 C490 1.385 . S
C494 C493 1.374 . S
C495 C492 1.499 . S
C495 C496 1.373 . S
C495 C497 1.389 . S
C496 H469 0.950 . S
C496 C482 1.377 . S
C496 C495 1.373 . S
C497 C481 1.377 . S
C497 C495 1.389 . S
C497 C498 1.524 . S
C498 C497 1.524 . S
C498 C499 1.397 . S
C498 C503 1.363 . S
C499 H470 0.950 . S
C499 C498 1.397 . S
C499 C500 1.334 . S
C500 H471 0.950 . S
C500 C499 1.334 . S
C500 C501 1.287 . S
C501 C500 1.287 . S
C501 C502 1.524 . S
C501 H504 0.999 . S
C502 H472 0.950 . S
C502 C501 1.524 . S
C502 C503 1.415 . S
C503 H473 0.950 . S
C503 C498 1.363 . S
C503 C502 1.415 . S
H504 C501 0.999 . S
H505 C486 0.913 . S
H506 C524 0.951 . S
H507 C526 0.951 . S
H508 C528 0.950 . S
H509 C529 0.950 . S
H510 C531 0.950 . S
H511 C534 0.950 . S
H512 C535 0.950 . S
H513 C537 0.950 . S
H514 C538 0.950 . S
H515 C539 0.951 . S
H516 C541 0.951 . S
H517 C543 0.950 . S
H518 C544 0.950 . S
H519 C546 0.950 . S
H520 C549 0.950 . S
H521 C550 0.950 . S
H522 C552 0.950 . S
H523 C553 0.950 . S
C524 H506 0.951 . S
C524 C525 1.366 . S
C524 C526 1.388 . S
C525 C524 1.366 . S
C525 C529 1.385 . S
C526 H507 0.951 . S
C526 C524 1.388 . S
C526 C527 1.366 . S
C527 C526 1.366 . S
C527 C528 1.414 . S
C527 C530 1.499 . S
C528 H508 0.950 . S
C528 C527 1.414 . S
C528 C529 1.374 . S
C529 H509 0.950 . S
C529 C525 1.385 . S
C529 C528 1.374 . S
C530 C527 1.499 . S
C530 C531 1.373 . S
C530 C532 1.389 . S
C531 H510 0.950 . S
C531 C530 1.373 . S
C531 C547 1.377 . S
C532 C530 1.389 . S
C532 C533 1.524 . S
C532 C546 1.377 . S
C533 C532 1.524 . S
C533 C534 1.397 . S
C533 C538 1.363 . S
C534 H511 0.950 . S
C534 C533 1.397 . S
C534 C535 1.334 . S
C535 H512 0.950 . S
C535 C534 1.334 . S
C535 C536 1.287 . S
C536 C535 1.287 . S
C536 C537 1.524 . S
C536 H555 0.913 . S
C537 H513 0.950 . S
C537 C536 1.524 . S
C537 C538 1.415 . S
C538 H514 0.950 . S
C538 C533 1.363 . S
C538 C537 1.415 . S
C539 H515 0.951 . S
C539 C540 1.366 . S
C539 C541 1.388 . S
C540 C539 1.366 . S
C540 C544 1.385 . S
C541 H516 0.951 . S
C541 C539 1.388 . S
C541 C542 1.366 . S
C542 C541 1.366 . S
C542 C543 1.414 . S
C542 C545 1.499 . S
C543 H517 0.950 . S
C543 C542 1.414 . S
C543 C544 1.374 . S
C544 H518 0.950 . S
C544 C540 1.385 . S
C544 C543 1.374 . S
C545 C542 1.499 . S
C545 C546 1.373 . S
C545 C547 1.389 . S
C546 H519 0.950 . S
C546 C532 1.377 . S
C546 C545 1.373 . S
C547 C531 1.377 . S
C547 C545 1.389 . S
C547 C548 1.524 . S
C548 C547 1.524 . S
C548 C549 1.397 . S
C548 C553 1.363 . S
C549 H520 0.950 . S
C549 C548 1.397 . S
C549 C550 1.334 . S
C550 H521 0.950 . S
C550 C549 1.334 . S
C550 C551 1.287 . S
C551 C550 1.287 . S
C551 C552 1.524 . S
C551 H554 0.999 . S
C552 H522 0.950 . S
C552 C551 1.524 . S
C552 C553 1.415 . S
C553 H523 0.950 . S
C553 C548 1.363 . S
C553 C552 1.415 . S
H554 C551 0.999 . S
H555 C536 0.913 . S
H556 C574 0.951 . S
H557 C576 0.951 . S
H558 C578 0.950 . S
H559 C579 0.950 . S
H560 C581 0.950 . S
H561 C584 0.950 . S
H562 C585 0.950 . S
H563 C587 0.950 . S
H564 C588 0.950 . S
H565 C589 0.951 . S
H566 C591 0.951 . S
H567 C593 0.950 . S
H568 C594 0.950 . S
H569 C596 0.950 . S
H570 C599 0.950 . S
H571 C600 0.950 . S
H572 C602 0.950 . S
H573 C603 0.950 . S
C574 H556 0.951 . S
C574 C575 1.366 . S
C574 C576 1.388 . S
C575 C574 1.366 . S
C575 C579 1.385 . S
C576 H557 0.951 . S
C576 C574 1.388 . S
C576 C577 1.366 . S
C577 C576 1.366 . S
C577 C578 1.414 . S
C577 C580 1.499 . S
C578 H558 0.950 . S
C578 C577 1.414 . S
C578 C579 1.374 . S
C579 H559 0.950 . S
C579 C575 1.385 . S
C579 C578 1.374 . S
C580 C577 1.499 . S
C580 C581 1.373 . S
C580 C582 1.389 . S
C581 H560 0.950 . S
C581 C580 1.373 . S
C581 C597 1.377 . S
C582 C580 1.389 . S
C582 C583 1.524 . S
C582 C596 1.377 . S
C583 C582 1.524 . S
C583 C584 1.397 . S
C583 C588 1.363 . S
C584 H561 0.950 . S
C584 C583 1.397 . S
C584 C585 1.334 . S
C585 H562 0.950 . S
C585 C584 1.334 . S
C585 C586 1.287 . S
C586 C585 1.287 . S
C586 C587 1.524 . S
C586 H605 0.913 . S
C587 H563 0.950 . S
C587 C586 1.524 . S
C587 C588 1.415 . S
C588 H564 0.950 . S
C588 C583 1.363 . S
C588 C587 1.415 . S
C589 H565 0.951 . S
C589 C590 1.366 . S
C589 C591 1.388 . S
C590 C589 1.366 . S
C590 C594 1.385 . S
C591 H566 0.951 . S
C591 C589 1.388 . S
C591 C592 1.366 . S
C592 C591 1.366 . S
C592 C593 1.414 . S
C592 C595 1.499 . S
C593 H567 0.950 . S
C593 C592 1.414 . S
C593 C594 1.374 . S
C594 H568 0.950 . S
C594 C590 1.385 . S
C594 C593 1.374 . S
C595 C592 1.499 . S
C595 C596 1.373 . S
C595 C597 1.389 . S
C596 H569 0.950 . S
C596 C582 1.377 . S
C596 C595 1.373 . S
C597 C581 1.377 . S
C597 C595 1.389 . S
C597 C598 1.524 . S
C598 C597 1.524 . S
C598 C599 1.397 . S
C598 C603 1.363 . S
C599 H570 0.950 . S
C599 C598 1.397 . S
C599 C600 1.334 . S
C600 H571 0.950 . S
C600 C599 1.334 . S
C600 C601 1.287 . S
C601 C600 1.287 . S
C601 C602 1.524 . S
C601 H604 0.999 . S
C602 H572 0.950 . S
C602 C601 1.524 . S
C602 C603 1.415 . S
C603 H573 0.950 . S
C603 C598 1.363 . S
C603 C602 1.415 . S
H604 C601 0.999 . S
H605 C586 0.913 . S
H606 C624 0.951 . S
H607 C626 0.951 . S
H608 C628 0.950 . S
H609 C629 0.950 . S
H610 C631 0.950 . S
H611 C634 0.950 . S
H612 C635 0.950 . S
H613 C637 0.950 . S
H614 C638 0.950 . S
H615 C639 0.951 . S
H616 C641 0.951 . S
H617 C643 0.950 . S
H618 C644 0.950 . S
H619 C646 0.950 . S
H620 C649 0.950 . S
H621 C650 0.950 . S
H622 C652 0.950 . S
H623 C653 0.950 . S
C624 H606 0.951 . S
C624 C625 1.366 . S
C624 C626 1.388 . S
C625 C624 1.366 . S
C625 C629 1.385 . S
C626 H607 0.951 . S
C626 C624 1.388 . S
C626 C627 1.366 . S
C627 C626 1.366 . S
C627 C628 1.414 . S
C627 C630 1.499 . S
C628 H608 0.950 . S
C628 C627 1.414 . S
C628 C629 1.374 . S
C629 H609 0.950 . S
C629 C625 1.385 . S
C629 C628 1.374 . S
C630 C627 1.499 . S
C630 C631 1.373 . S
C630 C632 1.389 . S
C631 H610 0.950 . S
C631 C630 1.373 . S
C631 C647 1.377 . S
C632 C630 1.389 . S
C632 C633 1.524 . S
C632 C646 1.377 . S
C633 C632 1.524 . S
C633 C634 1.397 . S
C633 C638 1.363 . S
C634 H611 0.950 . S
C634 C633 1.397 . S
C634 C635 1.334 . S
C635 H612 0.950 . S
C635 C634 1.334 . S
C635 C636 1.287 . S
C636 C635 1.287 . S
C636 C637 1.524 . S
C636 H655 0.913 . S
C637 H613 0.950 . S
C637 C636 1.524 . S
C637 C638 1.415 . S
C638 H614 0.950 . S
C638 C633 1.363 . S
C638 C637 1.415 . S
C639 H615 0.951 . S
C639 C640 1.366 . S
C639 C641 1.388 . S
C640 C639 1.366 . S
C640 C644 1.385 . S
C641 H616 0.951 . S
C641 C639 1.388 . S
C641 C642 1.366 . S
C642 C641 1.366 . S
C642 C643 1.414 . S
C642 C645 1.499 . S
C643 H617 0.950 . S
C643 C642 1.414 . S
C643 C644 1.374 . S
C644 H618 0.950 . S
C644 C640 1.385 . S
C644 C643 1.374 . S
C645 C642 1.499 . S
C645 C646 1.373 . S
C645 C647 1.389 . S
C646 H619 0.950 . S
C646 C632 1.377 . S
C646 C645 1.373 . S
C647 C631 1.377 . S
C647 C645 1.389 . S
C647 C648 1.524 . S
C648 C647 1.524 . S
C648 C649 1.397 . S
C648 C653 1.363 . S
C649 H620 0.950 . S
C649 C648 1.397 . S
C649 C650 1.334 . S
C650 H621 0.950 . S
C650 C649 1.334 . S
C650 C651 1.287 . S
C651 C650 1.287 . S
C651 C652 1.524 . S
C651 H654 0.999 . S
C652 H622 0.950 . S
C652 C651 1.524 . S
C652 C653 1.415 . S
C653 H623 0.950 . S
C653 C648 1.363 . S
C653 C652 1.415 . S
H654 C651 0.999 . S
H655 C636 0.913 . S
H656 C674 0.951 . S
H657 C676 0.951 . S
H658 C678 0.950 . S
H659 C679 0.950 . S
H660 C681 0.950 . S
H661 C684 0.950 . S
H662 C685 0.953 . S
H663 C687 0.950 . S
H664 C688 0.950 . S
H665 C689 0.951 . S
H666 C691 0.951 . S
H667 C693 0.950 . S
H668 C694 0.950 . S
H669 C696 0.950 . S
H670 C699 0.950 . S
H671 C700 0.950 . S
H672 C702 0.950 . S
H673 C703 0.950 . S
C674 H656 0.951 . S
C674 C675 1.366 . S
C674 C676 1.388 . S
C675 C674 1.366 . S
C675 C679 1.385 . S
C676 H657 0.951 . S
C676 C674 1.388 . S
C676 C677 1.366 . S
C677 C676 1.366 . S
C677 C678 1.414 . S
C677 C680 1.499 . S
C678 H658 0.950 . S
C678 C677 1.414 . S
C678 C679 1.374 . S
C679 H659 0.950 . S
C679 C675 1.385 . S
C679 C678 1.374 . S
C680 C677 1.499 . S
C680 C681 1.373 . S
C680 C682 1.389 . S
C681 H660 0.950 . S
C681 C680 1.373 . S
C681 C697 1.377 . S
C682 C680 1.389 . S
C682 C683 1.524 . S
C682 C696 1.377 . S
C683 C682 1.524 . S
C683 C684 1.397 . S
C683 C688 1.363 . S
C684 H661 0.950 . S
C684 C683 1.397 . S
C684 C685 1.334 . S
C685 H662 0.953 . S
C685 C684 1.334 . S
C685 C686 1.287 1_556 S
C686 C685 1.287 1_554 S
C686 C687 1.524 . S
C686 H705 0.913 . S
C687 H663 0.950 . S
C687 C686 1.524 . S
C687 C688 1.415 1_554 S
C688 H664 0.950 . S
C688 C683 1.363 . S
C688 C687 1.415 1_556 S
C689 H665 0.951 . S
C689 C690 1.366 . S
C689 C691 1.388 . S
C690 C689 1.366 . S
C690 C694 1.385 . S
C691 H666 0.951 . S
C691 C689 1.388 . S
C691 C692 1.366 . S
C692 C691 1.366 . S
C692 C693 1.414 . S
C692 C695 1.499 . S
C693 H667 0.950 . S
C693 C692 1.414 . S
C693 C694 1.374 . S
C694 H668 0.950 . S
C694 C690 1.385 . S
C694 C693 1.374 . S
C695 C692 1.499 . S
C695 C696 1.373 . S
C695 C697 1.389 . S
C696 H669 0.950 . S
C696 C682 1.377 . S
C696 C695 1.373 . S
C697 C681 1.377 . S
C697 C695 1.389 . S
C697 C698 1.524 . S
C698 C697 1.524 . S
C698 C699 1.397 . S
C698 C703 1.363 . S
C699 H670 0.950 . S
C699 C698 1.397 . S
C699 C700 1.334 . S
C700 H671 0.950 . S
C700 C699 1.334 . S
C700 C701 1.287 . S
C701 C700 1.287 . S
C701 C702 1.524 . S
C701 H704 0.999 . S
C702 H672 0.950 . S
C702 C701 1.524 . S
C702 C703 1.415 . S
C703 H673 0.950 . S
C703 C698 1.363 . S
C703 C702 1.415 . S
H704 C701 0.999 . S
H705 C686 0.913 . S
H706 C724 0.951 . S
H707 C726 0.951 . S
H708 C728 0.950 . S
H709 C729 0.950 . S
H710 C731 0.950 . S
H711 C734 0.950 . S
H712 C735 0.950 . S
H713 C737 0.950 . S
H714 C738 0.950 . S
H715 C739 0.951 . S
H716 C741 0.951 . S
H717 C743 0.950 . S
H718 C744 0.950 . S
H719 C746 0.950 . S
H720 C749 0.950 . S
H721 C750 0.950 . S
H722 C752 0.950 . S
H723 C753 0.950 . S
C724 H706 0.951 . S
C724 C725 1.366 . S
C724 C726 1.388 . S
C725 C724 1.366 . S
C725 C729 1.385 . S
C726 H707 0.951 . S
C726 C724 1.388 . S
C726 C727 1.366 . S
C727 C726 1.366 . S
C727 C728 1.414 . S
C727 C730 1.499 . S
C728 H708 0.950 . S
C728 C727 1.414 . S
C728 C729 1.374 . S
C729 H709 0.950 . S
C729 C725 1.385 . S
C729 C728 1.374 . S
C730 C727 1.499 . S
C730 C731 1.373 . S
C730 C732 1.389 . S
C731 H710 0.950 . S
C731 C730 1.373 . S
C731 C747 1.377 . S
C732 C730 1.389 . S
C732 C733 1.524 . S
C732 C746 1.377 . S
C733 C732 1.524 . S
C733 C734 1.397 . S
C733 C738 1.363 . S
C734 H711 0.950 . S
C734 C733 1.397 . S
C734 C735 1.334 . S
C735 H712 0.950 . S
C735 C734 1.334 . S
C735 C736 1.287 . S
C736 C735 1.287 . S
C736 C737 1.524 . S
C736 H755 0.913 . S
C737 H713 0.950 . S
C737 C736 1.524 . S
C737 C738 1.415 . S
C738 H714 0.950 . S
C738 C733 1.363 . S
C738 C737 1.415 . S
C739 H715 0.951 . S
C739 C740 1.366 . S
C739 C741 1.388 . S
C740 C739 1.366 . S
C740 C744 1.385 . S
C741 H716 0.951 . S
C741 C739 1.388 . S
C741 C742 1.366 . S
C742 C741 1.366 . S
C742 C743 1.414 . S
C742 C745 1.499 . S
C743 H717 0.950 . S
C743 C742 1.414 . S
C743 C744 1.374 . S
C744 H718 0.950 . S
C744 C740 1.385 . S
C744 C743 1.374 . S
C745 C742 1.499 . S
C745 C746 1.373 . S
C745 C747 1.389 . S
C746 H719 0.950 . S
C746 C732 1.377 . S
C746 C745 1.373 . S
C747 C731 1.377 . S
C747 C745 1.389 . S
C747 C748 1.524 . S
C748 C747 1.524 . S
C748 C749 1.397 . S
C748 C753 1.363 . S
C749 H720 0.950 . S
C749 C748 1.397 . S
C749 C750 1.334 . S
C750 H721 0.950 . S
C750 C749 1.334 . S
C750 C751 1.287 . S
C751 C750 1.287 . S
C751 C752 1.524 . S
C751 H754 0.999 . S
C752 H722 0.950 . S
C752 C751 1.524 . S
C752 C753 1.415 . S
C753 H723 0.950 . S
C753 C748 1.363 . S
C753 C752 1.415 . S
H754 C751 0.999 . S
H755 C736 0.913 . S
H756 C774 0.951 . S
H757 C776 0.951 . S
H758 C778 0.950 . S
H759 C779 0.950 . S
H760 C781 0.950 . S
H761 C784 0.950 . S
H762 C785 0.950 . S
H763 C787 0.950 . S
H764 C788 0.950 . S
H765 C789 0.951 . S
H766 C791 0.951 . S
H767 C793 0.950 . S
H768 C794 0.950 . S
H769 C796 0.950 . S
H770 C799 0.950 . S
H771 C800 0.950 . S
H772 C802 0.950 . S
H773 C803 0.950 . S
C774 H756 0.951 . S
C774 C775 1.366 . S
C774 C776 1.388 . S
C775 C774 1.366 . S
C775 C779 1.385 . S
C776 H757 0.951 . S
C776 C774 1.388 . S
C776 C777 1.366 . S
C777 C776 1.366 . S
C777 C778 1.414 . S
C777 C780 1.499 . S
C778 H758 0.950 . S
C778 C777 1.414 . S
C778 C779 1.374 . S
C779 H759 0.950 . S
C779 C775 1.385 . S
C779 C778 1.374 . S
C780 C777 1.499 . S
C780 C781 1.373 . S
C780 C782 1.389 . S
C781 H760 0.950 . S
C781 C780 1.373 . S
C781 C797 1.377 . S
C782 C780 1.389 . S
C782 C783 1.524 . S
C782 C796 1.377 . S
C783 C782 1.524 . S
C783 C784 1.397 . S
C783 C788 1.363 . S
C784 H761 0.950 . S
C784 C783 1.397 . S
C784 C785 1.334 . S
C785 H762 0.950 . S
C785 C784 1.334 . S
C785 C786 1.287 . S
C786 C785 1.287 . S
C786 C787 1.524 . S
C786 H805 0.913 . S
C787 H763 0.950 . S
C787 C786 1.524 . S
C787 C788 1.415 . S
C788 H764 0.950 . S
C788 C783 1.363 . S
C788 C787 1.415 . S
C789 H765 0.951 . S
C789 C790 1.366 . S
C789 C791 1.388 . S
C790 C789 1.366 . S
C790 C794 1.385 . S
C791 H766 0.951 . S
C791 C789 1.388 . S
C791 C792 1.366 . S
C792 C791 1.366 . S
C792 C793 1.414 . S
C792 C795 1.499 . S
C793 H767 0.950 . S
C793 C792 1.414 . S
C793 C794 1.374 . S
C794 H768 0.950 . S
C794 C790 1.385 . S
C794 C793 1.374 . S
C795 C792 1.499 . S
C795 C796 1.373 . S
C795 C797 1.389 . S
C796 H769 0.950 . S
C796 C782 1.377 . S
C796 C795 1.373 . S
C797 C781 1.377 . S
C797 C795 1.389 . S
C797 C798 1.524 . S
C798 C797 1.524 . S
C798 C799 1.397 . S
C798 C803 1.363 . S
C799 H770 0.950 . S
C799 C798 1.397 . S
C799 C800 1.334 . S
C800 H771 0.950 . S
C800 C799 1.334 . S
C800 C801 1.287 . S
C801 C800 1.287 . S
C801 C802 1.524 . S
C801 H804 0.999 . S
C802 H772 0.950 . S
C802 C801 1.524 . S
C802 C803 1.415 . S
C803 H773 0.950 . S
C803 C798 1.363 . S
C803 C802 1.415 . S
H804 C801 0.999 . S
H805 C786 0.913 . S
H806 C824 0.951 . S
H807 C826 0.951 . S
H808 C828 0.950 . S
H809 C829 0.950 . S
H810 C831 0.950 . S
H811 C834 0.950 . S
H812 C835 0.950 . S
H813 C837 0.950 . S
H814 C838 0.950 . S
H815 C839 0.951 . S
H816 C841 0.951 . S
H817 C843 0.950 . S
H818 C844 0.950 . S
H819 C846 0.950 . S
H820 C849 0.950 . S
H821 C850 0.950 . S
H822 C852 0.950 . S
H823 C853 0.950 . S
C824 H806 0.951 . S
C824 C825 1.366 . S
C824 C826 1.388 . S
C825 C824 1.366 . S
C825 C829 1.385 . S
C826 H807 0.951 . S
C826 C824 1.388 . S
C826 C827 1.366 . S
C827 C826 1.366 . S
C827 C828 1.414 . S
C827 C830 1.499 . S
C828 H808 0.950 . S
C828 C827 1.414 . S
C828 C829 1.374 . S
C829 H809 0.950 . S
C829 C825 1.385 . S
C829 C828 1.374 . S
C830 C827 1.499 . S
C830 C831 1.373 . S
C830 C832 1.389 . S
C831 H810 0.950 . S
C831 C830 1.373 . S
C831 C847 1.377 . S
C832 C830 1.389 . S
C832 C833 1.524 . S
C832 C846 1.377 . S
C833 C832 1.524 . S
C833 C834 1.397 . S
C833 C838 1.363 . S
C834 H811 0.950 . S
C834 C833 1.397 . S
C834 C835 1.334 . S
C835 H812 0.950 . S
C835 C834 1.334 . S
C835 C836 1.287 . S
C836 C835 1.287 . S
C836 C837 1.524 . S
C836 H855 0.913 . S
C837 H813 0.950 . S
C837 C836 1.524 . S
C837 C838 1.415 . S
C838 H814 0.950 . S
C838 C833 1.363 . S
C838 C837 1.415 . S
C839 H815 0.951 . S
C839 C840 1.366 . S
C839 C841 1.388 . S
C840 C839 1.366 . S
C840 C844 1.385 . S
C841 H816 0.951 . S
C841 C839 1.388 . S
C841 C842 1.366 . S
C842 C841 1.366 . S
C842 C843 1.414 . S
C842 C845 1.499 . S
C843 H817 0.950 . S
C843 C842 1.414 . S
C843 C844 1.374 . S
C844 H818 0.950 . S
C844 C840 1.385 . S
C844 C843 1.374 . S
C845 C842 1.499 . S
C845 C846 1.373 . S
C845 C847 1.389 . S
C846 H819 0.950 . S
C846 C832 1.377 . S
C846 C845 1.373 . S
C847 C831 1.377 . S
C847 C845 1.389 . S
C847 C848 1.524 . S
C848 C847 1.524 . S
C848 C849 1.397 . S
C848 C853 1.363 . S
C849 H820 0.950 . S
C849 C848 1.397 . S
C849 C850 1.334 . S
C850 H821 0.950 . S
C850 C849 1.334 . S
C850 C851 1.287 . S
C851 C850 1.287 . S
C851 C852 1.524 . S
C851 H854 0.999 . S
C852 H822 0.950 . S
C852 C851 1.524 . S
C852 C853 1.415 . S
C853 H823 0.950 . S
C853 C848 1.363 . S
C853 C852 1.415 . S
H854 C851 0.999 . S
H855 C836 0.913 . S
H856 C874 0.951 . S
H857 C876 0.951 . S
H858 C878 0.950 . S
H859 C879 0.950 . S
H860 C881 0.950 . S
H861 C884 0.950 . S
H862 C885 0.950 . S
H863 C887 0.950 . S
H864 C888 0.950 . S
H865 C889 0.951 . S
H866 C891 0.951 . S
H867 C893 0.950 . S
H868 C894 0.950 . S
H869 C896 0.950 . S
H870 C899 0.950 . S
H871 C900 0.950 . S
H872 C902 0.950 . S
H873 C903 0.950 . S
C874 H856 0.951 . S
C874 C875 1.366 . S
C874 C876 1.388 . S
C875 C874 1.366 . S
C875 C879 1.385 . S
C876 H857 0.951 . S
C876 C874 1.388 . S
C876 C877 1.366 . S
C877 C876 1.366 . S
C877 C878 1.414 . S
C877 C880 1.499 . S
C878 H858 0.950 . S
C878 C877 1.414 . S
C878 C879 1.374 . S
C879 H859 0.950 . S
C879 C875 1.385 . S
C879 C878 1.374 . S
C880 C877 1.499 . S
C880 C881 1.373 . S
C880 C882 1.389 . S
C881 H860 0.950 . S
C881 C880 1.373 . S
C881 C897 1.377 . S
C882 C880 1.389 . S
C882 C883 1.524 . S
C882 C896 1.377 . S
C883 C882 1.524 . S
C883 C884 1.397 . S
C883 C888 1.363 . S
C884 H861 0.950 . S
C884 C883 1.397 . S
C884 C885 1.334 . S
C885 H862 0.950 . S
C885 C884 1.334 . S
C885 C886 1.287 . S
C886 C885 1.287 . S
C886 C887 1.524 . S
C886 H905 0.913 . S
C887 H863 0.950 . S
C887 C886 1.524 . S
C887 C888 1.415 . S
C888 H864 0.950 . S
C888 C883 1.363 . S
C888 C887 1.415 . S
C889 H865 0.951 . S
C889 C890 1.366 . S
C889 C891 1.388 . S
C890 C889 1.366 . S
C890 C894 1.385 . S
C891 H866 0.951 . S
C891 C889 1.388 . S
C891 C892 1.366 . S
C892 C891 1.366 . S
C892 C893 1.414 . S
C892 C895 1.499 . S
C893 H867 0.950 . S
C893 C892 1.414 . S
C893 C894 1.374 . S
C894 H868 0.950 . S
C894 C890 1.385 . S
C894 C893 1.374 . S
C895 C892 1.499 . S
C895 C896 1.373 . S
C895 C897 1.389 . S
C896 H869 0.950 . S
C896 C882 1.377 . S
C896 C895 1.373 . S
C897 C881 1.377 . S
C897 C895 1.389 . S
C897 C898 1.524 . S
C898 C897 1.524 . S
C898 C899 1.397 . S
C898 C903 1.363 . S
C899 H870 0.950 . S
C899 C898 1.397 . S
C899 C900 1.334 . S
C900 H871 0.950 . S
C900 C899 1.334 . S
C900 C901 1.287 . S
C901 C900 1.287 . S
C901 C902 1.524 . S
C901 H904 0.999 . S
C902 H872 0.950 . S
C902 C901 1.524 . S
C902 C903 1.415 . S
C903 H873 0.950 . S
C903 C898 1.363 . S
C903 C902 1.415 . S
H904 C901 0.999 . S
H905 C886 0.913 . S
H906 C924 0.951 . S
H907 C926 0.951 . S
H908 C928 0.950 . S
H909 C929 0.930 1_556 S
H910 C931 0.950 . S
H911 C934 0.950 . S
H912 C935 0.950 . S
H913 C937 0.950 . S
H914 C938 0.950 . S
H915 C939 0.951 . S
H916 C941 0.951 . S
H917 C943 0.950 . S
H918 C944 0.950 . S
H919 C946 0.950 . S
H920 C949 0.950 . S
H921 C950 0.955 . S
H922 C952 0.950 . S
H923 C953 0.950 . S
C924 H906 0.951 . S
C924 C925 1.366 . S
C924 C926 1.388 . S
C925 C924 1.366 . S
C925 C929 1.385 . S
C926 H907 0.951 . S
C926 C924 1.388 . S
C926 C927 1.366 . S
C927 C926 1.366 . S
C927 C928 1.414 . S
C927 C930 1.499 . S
C928 H908 0.950 . S
C928 C927 1.414 . S
C928 C929 1.374 . S
C929 H909 0.930 1_554 S
C929 C925 1.385 . S
C929 C928 1.374 . S
C930 C927 1.499 . S
C930 C931 1.373 . S
C930 C932 1.389 . S
C931 H910 0.950 . S
C931 C930 1.373 . S
C931 C947 1.377 . S
C932 C930 1.389 . S
C932 C933 1.524 . S
C932 C946 1.377 . S
C933 C932 1.524 . S
C933 C934 1.397 . S
C933 C938 1.363 . S
C934 H911 0.950 . S
C934 C933 1.397 . S
C934 C935 1.334 . S
C935 H912 0.950 . S
C935 C934 1.334 . S
C935 C936 1.287 . S
C936 C935 1.287 . S
C936 C937 1.524 . S
C936 H955 0.913 . S
C937 H913 0.950 . S
C937 C936 1.524 . S
C937 C938 1.415 . S
C938 H914 0.950 . S
C938 C933 1.363 . S
C938 C937 1.415 . S
C939 H915 0.951 . S
C939 C940 1.366 . S
C939 C941 1.388 . S
C940 C939 1.366 . S
C940 C944 1.385 . S
C941 H916 0.951 . S
C941 C939 1.388 . S
C941 C942 1.366 . S
C942 C941 1.366 . S
C942 C943 1.414 . S
C942 C945 1.499 . S
C943 H917 0.950 . S
C943 C942 1.414 . S
C943 C944 1.374 . S
C944 H918 0.950 . S
C944 C940 1.385 . S
C944 C943 1.374 . S
C945 C942 1.499 . S
C945 C946 1.373 . S
C945 C947 1.389 . S
C946 H919 0.950 . S
C946 C932 1.377 . S
C946 C945 1.373 . S
C947 C931 1.377 . S
C947 C945 1.389 . S
C947 C948 1.524 . S
C948 C947 1.524 . S
C948 C949 1.397 . S
C948 C953 1.363 1_554 S
C949 H920 0.950 . S
C949 C948 1.397 . S
C949 C950 1.352 . S
C950 H921 0.955 . S
C950 C949 1.352 . S
C950 C951 1.264 1_554 S
C951 C950 1.264 1_556 S
C951 C952 1.524 . S
C951 H954 0.999 . S
C952 H922 0.950 . S
C952 C951 1.524 . S
C952 C953 1.415 . S
C953 H923 0.950 . S
C953 C948 1.363 1_556 S
C953 C952 1.415 . S
H954 C951 0.999 . S
H955 C936 0.913 . S
H956 C974 0.951 . S
H957 C976 0.951 . S
H958 C978 0.950 . S
H959 C979 0.950 . S
H960 C981 0.950 . S
H961 C984 0.950 . S
H962 C985 0.950 . S
H963 C987 0.950 . S
H964 C988 0.950 . S
H965 C989 0.951 . S
H966 C991 0.951 . S
H967 C993 0.950 . S
H968 C994 0.950 . S
H969 C996 0.950 . S
H970 C999 0.950 . S
H971 C1000 0.950 . S
H972 C1002 0.950 . S
H973 C1003 0.950 . S
C974 H956 0.951 . S
C974 C975 1.366 . S
C974 C976 1.388 . S
C975 C974 1.366 . S
C975 C979 1.385 . S
C976 H957 0.951 . S
C976 C974 1.388 . S
C976 C977 1.366 . S
C977 C976 1.366 . S
C977 C978 1.414 . S
C977 C980 1.499 . S
C978 H958 0.950 . S
C978 C977 1.414 . S
C978 C979 1.374 . S
C979 H959 0.950 . S
C979 C975 1.385 . S
C979 C978 1.374 . S
C980 C977 1.499 . S
C980 C981 1.373 . S
C980 C982 1.389 . S
C981 H960 0.950 . S
C981 C980 1.373 . S
C981 C997 1.377 . S
C982 C980 1.389 . S
C982 C983 1.524 . S
C982 C996 1.377 . S
C983 C982 1.524 . S
C983 C984 1.397 . S
C983 C988 1.363 . S
C984 H961 0.950 . S
C984 C983 1.397 . S
C984 C985 1.334 . S
C985 H962 0.950 . S
C985 C984 1.334 . S
C985 C986 1.287 . S
C986 C985 1.287 . S
C986 C987 1.524 . S
C986 H1005 0.913 . S
C987 H963 0.950 . S
C987 C986 1.524 . S
C987 C988 1.415 . S
C988 H964 0.950 . S
C988 C983 1.363 . S
C988 C987 1.415 . S
C989 H965 0.951 . S
C989 C990 1.366 . S
C989 C991 1.388 . S
C990 C989 1.366 . S
C990 C994 1.385 . S
C991 H966 0.951 . S
C991 C989 1.388 . S
C991 C992 1.366 . S
C992 C991 1.366 . S
C992 C993 1.414 . S
C992 C995 1.499 . S
C993 H967 0.950 . S
C993 C992 1.414 . S
C993 C994 1.374 . S
C994 H968 0.950 . S
C994 C990 1.385 . S
C994 C993 1.374 . S
C995 C992 1.499 . S
C995 C996 1.373 . S
C995 C997 1.389 . S
C996 H969 0.950 . S
C996 C982 1.377 . S
C996 C995 1.373 . S
C997 C981 1.377 . S
C997 C995 1.389 . S
C997 C998 1.524 . S
C998 C997 1.524 . S
C998 C999 1.397 . S
C998 C1003 1.363 . S
C999 H970 0.950 . S
C999 C998 1.397 . S
C999 C1000 1.334 . S
C1000 H971 0.950 . S
C1000 C999 1.334 . S
C1000 C1001 1.287 . S
C1001 C1000 1.287 . S
C1001 C1002 1.524 . S
C1001 H1004 0.999 . S
C1002 H972 0.950 . S
C1002 C1001 1.524 . S
C1002 C1003 1.415 . S
C1003 H973 0.950 . S
C1003 C998 1.363 . S
C1003 C1002 1.415 . S
H1004 C1001 0.999 . S
H1005 C986 0.913 . S
H1006 C1024 0.951 . S
H1007 C1026 0.951 . S
H1008 C1028 0.950 . S
H1009 C1029 0.950 . S
H1010 C1031 0.950 . S
H1011 C1034 0.950 . S
H1012 C1035 0.950 . S
H1013 C1037 0.950 . S
H1014 C1038 0.950 . S
H1015 C1039 0.951 . S
H1016 C1041 0.951 . S
H1017 C1043 0.950 . S
H1018 C1044 0.950 . S
H1019 C1046 0.950 . S
H1020 C1049 0.950 . S
H1021 C1050 0.950 . S
H1022 C1052 0.950 . S
H1023 C1053 0.950 . S
C1024 H1006 0.951 . S
C1024 C1025 1.366 . S
C1024 C1026 1.388 . S
C1025 C1024 1.366 . S
C1025 C1029 1.385 . S
C1026 H1007 0.951 . S
C1026 C1024 1.388 . S
C1026 C1027 1.366 . S
C1027 C1026 1.366 . S
C1027 C1028 1.414 . S
C1027 C1030 1.499 . S
C1028 H1008 0.950 . S
C1028 C1027 1.414 . S
C1028 C1029 1.374 . S
C1029 H1009 0.950 . S
C1029 C1025 1.385 . S
C1029 C1028 1.374 . S
C1030 C1027 1.499 . S
C1030 C1031 1.373 . S
C1030 C1032 1.389 . S
C1031 H1010 0.950 . S
C1031 C1030 1.373 . S
C1031 C1047 1.377 . S
C1032 C1030 1.389 . S
C1032 C1033 1.524 . S
C1032 C1046 1.377 . S
C1033 C1032 1.524 . S
C1033 C1034 1.397 . S
C1033 C1038 1.363 . S
C1034 H1011 0.950 . S
C1034 C1033 1.397 . S
C1034 C1035 1.334 . S
C1035 H1012 0.950 . S
C1035 C1034 1.334 . S
C1035 C1036 1.287 . S
C1036 C1035 1.287 . S
C1036 C1037 1.524 . S
C1036 H1055 0.913 . S
C1037 H1013 0.950 . S
C1037 C1036 1.524 . S
C1037 C1038 1.415 . S
C1038 H1014 0.950 . S
C1038 C1033 1.363 . S
C1038 C1037 1.415 . S
C1039 H1015 0.951 . S
C1039 C1040 1.366 . S
C1039 C1041 1.388 . S
C1040 C1039 1.366 . S
C1040 C1044 1.385 . S
C1041 H1016 0.951 . S
C1041 C1039 1.388 . S
C1041 C1042 1.366 . S
C1042 C1041 1.366 . S
C1042 C1043 1.414 . S
C1042 C1045 1.499 . S
C1043 H1017 0.950 . S
C1043 C1042 1.414 . S
C1043 C1044 1.374 . S
C1044 H1018 0.950 . S
C1044 C1040 1.385 . S
C1044 C1043 1.374 . S
C1045 C1042 1.499 . S
C1045 C1046 1.373 . S
C1045 C1047 1.389 . S
C1046 H1019 0.950 . S
C1046 C1032 1.377 . S
C1046 C1045 1.373 . S
C1047 C1031 1.377 . S
C1047 C1045 1.389 . S
C1047 C1048 1.524 . S
C1048 C1047 1.524 . S
C1048 C1049 1.397 . S
C1048 C1053 1.363 . S
C1049 H1020 0.950 . S
C1049 C1048 1.397 . S
C1049 C1050 1.334 . S
C1050 H1021 0.950 . S
C1050 C1049 1.334 . S
C1050 C1051 1.287 . S
C1051 C1050 1.287 . S
C1051 C1052 1.524 . S
C1051 H1054 0.999 . S
C1052 H1022 0.950 . S
C1052 C1051 1.524 . S
C1052 C1053 1.415 . S
C1053 H1023 0.950 . S
C1053 C1048 1.363 . S
C1053 C1052 1.415 . S
H1054 C1051 0.999 . S
H1055 C1036 0.913 . S
H1056 C1074 0.951 . S
H1057 C1076 0.951 . S
H1058 C1078 0.950 . S
H1059 C1079 0.950 . S
H1060 C1081 0.950 . S
H1061 C1084 0.950 . S
H1062 C1085 0.950 . S
H1063 C1087 0.950 . S
H1064 C1088 0.950 . S
H1065 C1089 0.951 . S
H1066 C1091 0.951 . S
H1067 C1093 0.950 . S
H1068 C1094 0.950 . S
H1069 C1096 0.950 . S
H1070 C1099 0.950 . S
H1071 C1100 0.950 . S
H1072 C1102 0.950 . S
H1073 C1103 0.950 . S
C1074 H1056 0.951 . S
C1074 C1075 1.366 . S
C1074 C1076 1.388 . S
C1075 C1074 1.366 . S
C1075 C1079 1.385 . S
C1076 H1057 0.951 . S
C1076 C1074 1.388 . S
C1076 C1077 1.366 . S
C1077 C1076 1.366 . S
C1077 C1078 1.414 . S
C1077 C1080 1.499 . S
C1078 H1058 0.950 . S
C1078 C1077 1.414 . S
C1078 C1079 1.374 . S
C1079 H1059 0.950 . S
C1079 C1075 1.385 . S
C1079 C1078 1.374 . S
C1080 C1077 1.499 . S
C1080 C1081 1.373 . S
C1080 C1082 1.389 . S
C1081 H1060 0.950 . S
C1081 C1080 1.373 . S
C1081 C1097 1.377 . S
C1082 C1080 1.389 . S
C1082 C1083 1.524 . S
C1082 C1096 1.377 . S
C1083 C1082 1.524 . S
C1083 C1084 1.397 . S
C1083 C1088 1.363 . S
C1084 H1061 0.950 . S
C1084 C1083 1.397 . S
C1084 C1085 1.334 . S
C1085 H1062 0.950 . S
C1085 C1084 1.334 . S
C1085 C1086 1.287 . S
C1086 C1085 1.287 . S
C1086 C1087 1.524 . S
C1086 H1105 0.913 . S
C1087 H1063 0.950 . S
C1087 C1086 1.524 . S
C1087 C1088 1.415 . S
C1088 H1064 0.950 . S
C1088 C1083 1.363 . S
C1088 C1087 1.415 . S
C1089 H1065 0.951 . S
C1089 C1090 1.366 . S
C1089 C1091 1.388 . S
C1090 C1089 1.366 . S
C1090 C1094 1.385 . S
C1091 H1066 0.951 . S
C1091 C1089 1.388 . S
C1091 C1092 1.366 . S
C1092 C1091 1.366 . S
C1092 C1093 1.414 . S
C1092 C1095 1.499 . S
C1093 H1067 0.950 . S
C1093 C1092 1.414 . S
C1093 C1094 1.374 . S
C1094 H1068 0.950 . S
C1094 C1090 1.385 . S
C1094 C1093 1.374 . S
C1095 C1092 1.499 . S
C1095 C1096 1.373 . S
C1095 C1097 1.389 . S
C1096 H1069 0.950 . S
C1096 C1082 1.377 . S
C1096 C1095 1.373 . S
C1097 C1081 1.377 . S
C1097 C1095 1.389 . S
C1097 C1098 1.524 . S
C1098 C1097 1.524 . S
C1098 C1099 1.397 . S
C1098 C1103 1.363 . S
C1099 H1070 0.950 . S
C1099 C1098 1.397 . S
C1099 C1100 1.334 . S
C1100 H1071 0.950 . S
C1100 C1099 1.334 . S
C1100 C1101 1.287 . S
C1101 C1100 1.287 . S
C1101 C1102 1.524 . S
C1101 H1104 0.999 . S
C1102 H1072 0.950 . S
C1102 C1101 1.524 . S
C1102 C1103 1.415 . S
C1103 H1073 0.950 . S
C1103 C1098 1.363 . S
C1103 C1102 1.415 . S
H1104 C1101 0.999 . S
H1105 C1086 0.913 . S
H1106 C1124 0.951 . S
H1107 C1126 0.951 . S
H1108 C1128 0.950 . S
H1109 C1129 0.950 . S
H1110 C1131 0.950 . S
H1111 C1134 0.950 . S
H1112 C1135 0.950 . S
H1113 C1137 0.950 . S
H1114 C1138 0.950 . S
H1115 C1139 0.951 . S
H1116 C1141 0.951 . S
H1117 C1143 0.950 . S
H1118 C1144 0.950 . S
H1119 C1146 0.950 . S
H1120 C1149 0.950 . S
H1121 C1150 0.950 . S
H1122 C1152 0.950 . S
H1123 C1153 0.950 . S
C1124 H1106 0.951 . S
C1124 C1125 1.366 . S
C1124 C1126 1.388 . S
C1125 C1124 1.366 . S
C1125 C1129 1.385 . S
C1126 H1107 0.951 . S
C1126 C1124 1.388 . S
C1126 C1127 1.366 . S
C1127 C1126 1.366 . S
C1127 C1128 1.414 . S
C1127 C1130 1.499 . S
C1128 H1108 0.950 . S
C1128 C1127 1.414 . S
C1128 C1129 1.374 . S
C1129 H1109 0.950 . S
C1129 C1125 1.385 . S
C1129 C1128 1.374 . S
C1130 C1127 1.499 . S
C1130 C1131 1.373 . S
C1130 C1132 1.389 . S
C1131 H1110 0.950 . S
C1131 C1130 1.373 . S
C1131 C1147 1.377 . S
C1132 C1130 1.389 . S
C1132 C1133 1.524 . S
C1132 C1146 1.377 . S
C1133 C1132 1.524 . S
C1133 C1134 1.397 . S
C1133 C1138 1.363 . S
C1134 H1111 0.950 . S
C1134 C1133 1.397 . S
C1134 C1135 1.334 . S
C1135 H1112 0.950 . S
C1135 C1134 1.334 . S
C1135 C1136 1.287 . S
C1136 C1135 1.287 . S
C1136 C1137 1.524 . S
C1136 H1155 0.913 . S
C1137 H1113 0.950 . S
C1137 C1136 1.524 . S
C1137 C1138 1.415 . S
C1138 H1114 0.950 . S
C1138 C1133 1.363 . S
C1138 C1137 1.415 . S
C1139 H1115 0.951 . S
C1139 C1140 1.366 . S
C1139 C1141 1.388 . S
C1140 C1139 1.366 . S
C1140 C1144 1.385 . S
C1141 H1116 0.951 . S
C1141 C1139 1.388 . S
C1141 C1142 1.366 . S
C1142 C1141 1.366 . S
C1142 C1143 1.414 . S
C1142 C1145 1.499 . S
C1143 H1117 0.950 . S
C1143 C1142 1.414 . S
C1143 C1144 1.374 . S
C1144 H1118 0.950 . S
C1144 C1140 1.385 . S
C1144 C1143 1.374 . S
C1145 C1142 1.499 . S
C1145 C1146 1.373 . S
C1145 C1147 1.389 . S
C1146 H1119 0.950 . S
C1146 C1132 1.377 . S
C1146 C1145 1.373 . S
C1147 C1131 1.377 . S
C1147 C1145 1.389 . S
C1147 C1148 1.524 . S
C1148 C1147 1.524 . S
C1148 C1149 1.397 . S
C1148 C1153 1.363 . S
C1149 H1120 0.950 . S
C1149 C1148 1.397 . S
C1149 C1150 1.334 . S
C1150 H1121 0.950 . S
C1150 C1149 1.334 . S
C1150 C1151 1.287 . S
C1151 C1150 1.287 . S
C1151 C1152 1.524 . S
C1151 H1154 0.999 . S
C1152 H1122 0.950 . S
C1152 C1151 1.524 . S
C1152 C1153 1.415 . S
C1153 H1123 0.950 . S
C1153 C1148 1.363 . S
C1153 C1152 1.415 . S
H1154 C1151 0.999 . S
H1155 C1136 0.913 . S
H1156 C1174 0.951 . S
H1157 C1176 0.951 . S
H1158 C1178 0.950 . S
H1159 C1179 0.950 . S
H1160 C1181 0.950 . S
H1161 C1184 0.950 . S
H1162 C1185 0.950 . S
H1163 C1187 0.950 . S
H1164 C1188 0.950 . S
H1165 C1189 0.951 . S
H1166 C1191 0.951 . S
H1167 C1193 0.950 . S
H1168 C1194 0.950 . S
H1169 C1196 0.950 . S
H1170 C1199 0.950 . S
H1171 C1200 0.950 . S
H1172 C1202 0.950 . S
H1173 C1203 0.950 . S
C1174 H1156 0.951 . S
C1174 C1175 1.366 . S
C1174 C1176 1.388 . S
C1175 C1174 1.366 . S
C1175 C1179 1.385 . S
C1176 H1157 0.951 . S
C1176 C1174 1.388 . S
C1176 C1177 1.366 . S
C1177 C1176 1.366 . S
C1177 C1178 1.414 . S
C1177 C1180 1.499 . S
C1178 H1158 0.950 . S
C1178 C1177 1.414 . S
C1178 C1179 1.374 . S
C1179 H1159 0.950 . S
C1179 C1175 1.385 . S
C1179 C1178 1.374 . S
C1180 C1177 1.499 . S
C1180 C1181 1.373 . S
C1180 C1182 1.389 . S
C1181 H1160 0.950 . S
C1181 C1180 1.373 . S
C1181 C1197 1.377 . S
C1182 C1180 1.389 . S
C1182 C1183 1.524 . S
C1182 C1196 1.377 . S
C1183 C1182 1.524 . S
C1183 C1184 1.397 . S
C1183 C1188 1.363 . S
C1184 H1161 0.950 . S
C1184 C1183 1.397 . S
C1184 C1185 1.334 . S
C1185 H1162 0.950 . S
C1185 C1184 1.334 . S
C1185 C1186 1.287 . S
C1186 C1185 1.287 . S
C1186 C1187 1.524 . S
C1186 H1205 0.913 . S
C1187 H1163 0.950 . S
C1187 C1186 1.524 . S
C1187 C1188 1.415 . S
C1188 H1164 0.950 . S
C1188 C1183 1.363 . S
C1188 C1187 1.415 . S
C1189 H1165 0.951 . S
C1189 C1190 1.366 . S
C1189 C1191 1.388 . S
C1190 C1189 1.366 . S
C1190 C1194 1.385 . S
C1191 H1166 0.951 . S
C1191 C1189 1.388 . S
C1191 C1192 1.366 . S
C1192 C1191 1.366 . S
C1192 C1193 1.414 . S
C1192 C1195 1.499 . S
C1193 H1167 0.950 . S
C1193 C1192 1.414 . S
C1193 C1194 1.374 . S
C1194 H1168 0.950 . S
C1194 C1190 1.385 . S
C1194 C1193 1.374 . S
C1195 C1192 1.499 . S
C1195 C1196 1.373 . S
C1195 C1197 1.389 . S
C1196 H1169 0.950 . S
C1196 C1182 1.377 . S
C1196 C1195 1.373 . S
C1197 C1181 1.377 . S
C1197 C1195 1.389 . S
C1197 C1198 1.524 . S
C1198 C1197 1.524 . S
C1198 C1199 1.397 . S
C1198 C1203 1.363 . S
C1199 H1170 0.950 . S
C1199 C1198 1.397 . S
C1199 C1200 1.334 . S
C1200 H1171 0.950 . S
C1200 C1199 1.334 . S
C1200 C1201 1.287 . S
C1201 C1200 1.287 . S
C1201 C1202 1.524 . S
C1201 H1204 0.999 . S
C1202 H1172 0.950 . S
C1202 C1201 1.524 . S
C1202 C1203 1.415 . S
C1203 H1173 0.950 . S
C1203 C1198 1.363 . S
C1203 C1202 1.415 . S
H1204 C1201 0.999 . S
H1205 C1186 0.913 . S
H1206 C1224 0.951 . S
H1207 C1226 0.951 . S
H1208 C1228 0.950 . S
H1209 C1229 0.950 . S
H1210 C1231 0.950 . S
H1211 C1234 0.950 . S
H1212 C1235 0.950 . S
H1213 C1237 0.950 . S
H1214 C1238 0.950 . S
H1215 C1239 0.957 . S
H1216 C1241 0.951 . S
H1217 C1243 0.950 . S
H1218 C1244 0.950 . S
H1219 C1246 0.950 . S
H1220 C1249 0.950 . S
H1221 C1250 0.950 1_554 S
H1222 C1252 0.950 . S
H1223 C1253 0.950 . S
C1224 H1206 0.951 . S
C1224 C1225 1.366 . S
C1224 C1226 1.388 . S
C1225 C1224 1.366 . S
C1225 C1229 1.385 . S
C1226 H1207 0.951 . S
C1226 C1224 1.388 . S
C1226 C1227 1.366 . S
C1227 C1226 1.366 . S
C1227 C1228 1.414 . S
C1227 C1230 1.499 . S
C1228 H1208 0.950 . S
C1228 C1227 1.414 . S
C1228 C1229 1.374 . S
C1229 H1209 0.950 . S
C1229 C1225 1.385 . S
C1229 C1228 1.374 . S
C1230 C1227 1.499 . S
C1230 C1231 1.373 . S
C1230 C1232 1.389 . S
C1231 H1210 0.950 . S
C1231 C1230 1.373 . S
C1231 C1247 1.377 . S
C1232 C1230 1.389 . S
C1232 C1233 1.524 . S
C1232 C1246 1.377 . S
C1233 C1232 1.524 . S
C1233 C1234 1.397 . S
C1233 C1238 1.363 . S
C1234 H1211 0.950 . S
C1234 C1233 1.397 . S
C1234 C1235 1.334 . S
C1235 H1212 0.950 . S
C1235 C1234 1.334 . S
C1235 C1236 1.287 . S
C1236 C1235 1.287 . S
C1236 C1237 1.524 . S
C1236 H1255 0.913 . S
C1237 H1213 0.950 . S
C1237 C1236 1.524 . S
C1237 C1238 1.415 . S
C1238 H1214 0.950 . S
C1238 C1233 1.363 . S
C1238 C1237 1.415 . S
C1239 H1215 0.957 . S
C1239 C1240 1.366 . S
C1239 C1241 1.388 1_554 S
C1240 C1239 1.366 . S
C1240 C1244 1.385 . S
C1241 H1216 0.951 . S
C1241 C1239 1.388 1_556 S
C1241 C1242 1.366 . S
C1242 C1241 1.366 . S
C1242 C1243 1.414 1_556 S
C1242 C1245 1.499 . S
C1243 H1217 0.950 . S
C1243 C1242 1.414 1_554 S
C1243 C1244 1.374 . S
C1244 H1218 0.950 . S
C1244 C1240 1.385 . S
C1244 C1243 1.374 . S
C1245 C1242 1.499 . S
C1245 C1246 1.373 . S
C1245 C1247 1.389 . S
C1246 H1219 0.950 . S
C1246 C1232 1.377 . S
C1246 C1245 1.373 . S
C1247 C1231 1.377 . S
C1247 C1245 1.389 . S
C1247 C1248 1.524 . S
C1248 C1247 1.524 . S
C1248 C1249 1.397 . S
C1248 C1253 1.363 . S
C1249 H1220 0.950 . S
C1249 C1248 1.397 . S
C1249 C1250 1.334 . S
C1250 H1221 0.950 1_556 S
C1250 C1249 1.334 . S
C1250 C1251 1.287 . S
C1251 C1250 1.287 . S
C1251 C1252 1.524 . S
C1251 H1254 0.999 . S
C1252 H1222 0.950 . S
C1252 C1251 1.524 . S
C1252 C1253 1.415 . S
C1253 H1223 0.950 . S
C1253 C1248 1.363 . S
C1253 C1252 1.415 . S
H1254 C1251 0.999 . S
H1255 C1236 0.913 . S
H1256 C1274 0.951 . S
H1257 C1276 0.951 . S
H1258 C1278 0.950 . S
H1259 C1279 0.950 . S
H1260 C1281 0.950 . S
H1261 C1284 0.950 . S
H1262 C1285 0.950 . S
H1263 C1287 0.950 . S
H1264 C1288 0.950 . S
H1265 C1289 0.951 . S
H1266 C1291 0.951 . S
H1267 C1293 0.950 . S
H1268 C1294 0.950 . S
H1269 C1296 0.950 . S
H1270 C1299 0.950 . S
H1271 C1300 0.950 . S
H1272 C1302 0.950 . S
H1273 C1303 0.950 . S
C1274 H1256 0.951 . S
C1274 C1275 1.366 . S
C1274 C1276 1.388 . S
C1275 C1274 1.366 . S
C1275 C1279 1.385 . S
C1276 H1257 0.951 . S
C1276 C1274 1.388 . S
C1276 C1277 1.366 . S
C1277 C1276 1.366 . S
C1277 C1278 1.414 . S
C1277 C1280 1.499 . S
C1278 H1258 0.950 . S
C1278 C1277 1.414 . S
C1278 C1279 1.374 . S
C1279 H1259 0.950 . S
C1279 C1275 1.385 . S
C1279 C1278 1.374 . S
C1280 C1277 1.499 . S
C1280 C1281 1.373 . S
C1280 C1282 1.389 . S
C1281 H1260 0.950 . S
C1281 C1280 1.373 . S
C1281 C1297 1.377 . S
C1282 C1280 1.389 . S
C1282 C1283 1.524 . S
C1282 C1296 1.377 . S
C1283 C1282 1.524 . S
C1283 C1284 1.397 . S
C1283 C1288 1.363 . S
C1284 H1261 0.950 . S
C1284 C1283 1.397 . S
C1284 C1285 1.334 . S
C1285 H1262 0.950 . S
C1285 C1284 1.334 . S
C1285 C1286 1.287 . S
C1286 C1285 1.287 . S
C1286 C1287 1.524 . S
C1286 H1305 0.913 . S
C1287 H1263 0.950 . S
C1287 C1286 1.524 . S
C1287 C1288 1.415 . S
C1288 H1264 0.950 . S
C1288 C1283 1.363 . S
C1288 C1287 1.415 . S
C1289 H1265 0.951 . S
C1289 C1290 1.366 . S
C1289 C1291 1.388 . S
C1290 C1289 1.366 . S
C1290 C1294 1.385 . S
C1291 H1266 0.951 . S
C1291 C1289 1.388 . S
C1291 C1292 1.366 . S
C1292 C1291 1.366 . S
C1292 C1293 1.414 . S
C1292 C1295 1.499 . S
C1293 H1267 0.950 . S
C1293 C1292 1.414 . S
C1293 C1294 1.374 . S
C1294 H1268 0.950 . S
C1294 C1290 1.385 . S
C1294 C1293 1.374 . S
C1295 C1292 1.499 . S
C1295 C1296 1.373 . S
C1295 C1297 1.389 . S
C1296 H1269 0.950 . S
C1296 C1282 1.377 . S
C1296 C1295 1.373 . S
C1297 C1281 1.377 . S
C1297 C1295 1.389 . S
C1297 C1298 1.524 . S
C1298 C1297 1.524 . S
C1298 C1299 1.397 . S
C1298 C1303 1.363 . S
C1299 H1270 0.950 . S
C1299 C1298 1.397 . S
C1299 C1300 1.334 . S
C1300 H1271 0.950 . S
C1300 C1299 1.334 . S
C1300 C1301 1.287 . S
C1301 C1300 1.287 . S
C1301 C1302 1.524 . S
C1301 H1304 0.999 . S
C1302 H1272 0.950 . S
C1302 C1301 1.524 . S
C1302 C1303 1.415 . S
C1303 H1273 0.950 . S
C1303 C1298 1.363 . S
C1303 C1302 1.415 . S
H1304 C1301 0.999 . S
H1305 C1286 0.913 . S
H1306 C1324 0.951 . S
H1307 C1326 0.951 . S
H1308 C1328 0.950 . S
H1309 C1329 0.950 . S
H1310 C1331 0.950 . S
H1311 C1334 0.950 . S
H1312 C1335 0.950 . S
H1313 C1337 0.950 . S
H1314 C1338 0.950 . S
H1315 C1339 0.951 . S
H1316 C1341 0.951 . S
H1317 C1343 0.950 . S
H1318 C1344 0.950 . S
H1319 C1346 0.950 . S
H1320 C1349 0.950 . S
H1321 C1350 0.950 . S
H1322 C1352 0.950 . S
H1323 C1353 0.950 . S
C1324 H1306 0.951 . S
C1324 C1325 1.366 . S
C1324 C1326 1.388 . S
C1325 C1324 1.366 . S
C1325 C1329 1.385 . S
C1326 H1307 0.951 . S
C1326 C1324 1.388 . S
C1326 C1327 1.366 . S
C1327 C1326 1.366 . S
C1327 C1328 1.414 . S
C1327 C1330 1.499 . S
C1328 H1308 0.950 . S
C1328 C1327 1.414 . S
C1328 C1329 1.374 . S
C1329 H1309 0.950 . S
C1329 C1325 1.385 . S
C1329 C1328 1.374 . S
C1330 C1327 1.499 . S
C1330 C1331 1.373 . S
C1330 C1332 1.389 . S
C1331 H1310 0.950 . S
C1331 C1330 1.373 . S
C1331 C1347 1.377 . S
C1332 C1330 1.389 . S
C1332 C1333 1.524 . S
C1332 C1346 1.377 . S
C1333 C1332 1.524 . S
C1333 C1334 1.397 . S
C1333 C1338 1.363 . S
C1334 H1311 0.950 . S
C1334 C1333 1.397 . S
C1334 C1335 1.334 . S
C1335 H1312 0.950 . S
C1335 C1334 1.334 . S
C1335 C1336 1.287 . S
C1336 C1335 1.287 . S
C1336 C1337 1.524 . S
C1336 H1355 0.913 . S
C1337 H1313 0.950 . S
C1337 C1336 1.524 . S
C1337 C1338 1.415 . S
C1338 H1314 0.950 . S
C1338 C1333 1.363 . S
C1338 C1337 1.415 . S
C1339 H1315 0.951 . S
C1339 C1340 1.366 . S
C1339 C1341 1.388 . S
C1340 C1339 1.366 . S
C1340 C1344 1.385 . S
C1341 H1316 0.951 . S
C1341 C1339 1.388 . S
C1341 C1342 1.366 . S
C1342 C1341 1.366 . S
C1342 C1343 1.414 . S
C1342 C1345 1.499 . S
C1343 H1317 0.950 . S
C1343 C1342 1.414 . S
C1343 C1344 1.374 . S
C1344 H1318 0.950 . S
C1344 C1340 1.385 . S
C1344 C1343 1.374 . S
C1345 C1342 1.499 . S
C1345 C1346 1.373 . S
C1345 C1347 1.389 . S
C1346 H1319 0.950 . S
C1346 C1332 1.377 . S
C1346 C1345 1.373 . S
C1347 C1331 1.377 . S
C1347 C1345 1.389 . S
C1347 C1348 1.524 . S
C1348 C1347 1.524 . S
C1348 C1349 1.397 . S
C1348 C1353 1.363 . S
C1349 H1320 0.950 . S
C1349 C1348 1.397 . S
C1349 C1350 1.334 . S
C1350 H1321 0.950 . S
C1350 C1349 1.334 . S
C1350 C1351 1.287 . S
C1351 C1350 1.287 . S
C1351 C1352 1.524 . S
C1351 H1354 0.999 . S
C1352 H1322 0.950 . S
C1352 C1351 1.524 . S
C1352 C1353 1.415 . S
C1353 H1323 0.950 . S
C1353 C1348 1.363 . S
C1353 C1352 1.415 . S
H1354 C1351 0.999 . S
H1355 C1336 0.913 . S
H1356 C1374 0.951 . S
H1357 C1376 0.951 . S
H1358 C1378 0.950 . S
H1359 C1379 0.950 . S
H1360 C1381 0.950 . S
H1361 C1384 0.950 . S
H1362 C1385 0.950 . S
H1363 C1387 0.950 . S
H1364 C1388 0.950 . S
H1365 C1389 0.951 . S
H1366 C1391 0.951 . S
H1367 C1393 0.950 . S
H1368 C1394 0.950 . S
H1369 C1396 0.950 . S
H1370 C1399 0.950 . S
H1371 C1400 0.950 . S
H1372 C1402 0.950 . S
H1373 C1403 0.950 . S
C1374 H1356 0.951 . S
C1374 C1375 1.366 . S
C1374 C1376 1.388 . S
C1375 C1374 1.366 . S
C1375 C1379 1.385 . S
C1376 H1357 0.951 . S
C1376 C1374 1.388 . S
C1376 C1377 1.366 . S
C1377 C1376 1.366 . S
C1377 C1378 1.414 . S
C1377 C1380 1.499 . S
C1378 H1358 0.950 . S
C1378 C1377 1.414 . S
C1378 C1379 1.374 . S
C1379 H1359 0.950 . S
C1379 C1375 1.385 . S
C1379 C1378 1.374 . S
C1380 C1377 1.499 . S
C1380 C1381 1.373 . S
C1380 C1382 1.389 . S
C1381 H1360 0.950 . S
C1381 C1380 1.373 . S
C1381 C1397 1.377 . S
C1382 C1380 1.389 . S
C1382 C1383 1.524 . S
C1382 C1396 1.377 . S
C1383 C1382 1.524 . S
C1383 C1384 1.397 . S
C1383 C1388 1.363 . S
C1384 H1361 0.950 . S
C1384 C1383 1.397 . S
C1384 C1385 1.334 . S
C1385 H1362 0.950 . S
C1385 C1384 1.334 . S
C1385 C1386 1.287 . S
C1386 C1385 1.287 . S
C1386 C1387 1.524 . S
C1386 H1405 0.913 . S
C1387 H1363 0.950 . S
C1387 C1386 1.524 . S
C1387 C1388 1.415 . S
C1388 H1364 0.950 . S
C1388 C1383 1.363 . S
C1388 C1387 1.415 . S
C1389 H1365 0.951 . S
C1389 C1390 1.366 . S
C1389 C1391 1.388 . S
C1390 C1389 1.366 . S
C1390 C1394 1.385 . S
C1391 H1366 0.951 . S
C1391 C1389 1.388 . S
C1391 C1392 1.366 . S
C1392 C1391 1.366 . S
C1392 C1393 1.414 . S
C1392 C1395 1.499 . S
C1393 H1367 0.950 . S
C1393 C1392 1.414 . S
C1393 C1394 1.374 . S
C1394 H1368 0.950 . S
C1394 C1390 1.385 . S
C1394 C1393 1.374 . S
C1395 C1392 1.499 . S
C1395 C1396 1.373 . S
C1395 C1397 1.389 . S
C1396 H1369 0.950 . S
C1396 C1382 1.377 . S
C1396 C1395 1.373 . S
C1397 C1381 1.377 . S
C1397 C1395 1.389 . S
C1397 C1398 1.524 . S
C1398 C1397 1.524 . S
C1398 C1399 1.397 . S
C1398 C1403 1.363 . S
C1399 H1370 0.950 . S
C1399 C1398 1.397 . S
C1399 C1400 1.334 . S
C1400 H1371 0.950 . S
C1400 C1399 1.334 . S
C1400 C1401 1.287 . S
C1401 C1400 1.287 . S
C1401 C1402 1.524 . S
C1401 H1404 0.999 . S
C1402 H1372 0.950 . S
C1402 C1401 1.524 . S
C1402 C1403 1.415 . S
C1403 H1373 0.950 . S
C1403 C1398 1.363 . S
C1403 C1402 1.415 . S
H1404 C1401 0.999 . S
H1405 C1386 0.913 . S
H1406 C1424 0.951 . S
H1407 C1426 0.951 . S
H1408 C1428 0.950 . S
H1409 C1429 0.950 . S
H1410 C1431 0.950 . S
H1411 C1434 0.950 . S
H1412 C1435 0.950 . S
H1413 C1437 0.950 . S
H1414 C1438 0.950 . S
H1415 C1439 0.951 . S
H1416 C1441 0.951 . S
H1417 C1443 0.950 . S
H1418 C1444 0.950 . S
H1419 C1446 0.950 . S
H1420 C1449 0.950 . S
H1421 C1450 0.950 . S
H1422 C1452 0.950 . S
H1423 C1453 0.950 . S
C1424 H1406 0.951 . S
C1424 C1425 1.366 . S
C1424 C1426 1.388 . S
C1425 C1424 1.366 . S
C1425 C1429 1.385 . S
C1426 H1407 0.951 . S
C1426 C1424 1.388 . S
C1426 C1427 1.366 . S
C1427 C1426 1.366 . S
C1427 C1428 1.414 . S
C1427 C1430 1.499 . S
C1428 H1408 0.950 . S
C1428 C1427 1.414 . S
C1428 C1429 1.374 . S
C1429 H1409 0.950 . S
C1429 C1425 1.385 . S
C1429 C1428 1.374 . S
C1430 C1427 1.499 . S
C1430 C1431 1.373 . S
C1430 C1432 1.389 . S
C1431 H1410 0.950 . S
C1431 C1430 1.373 . S
C1431 C1447 1.377 . S
C1432 C1430 1.389 . S
C1432 C1433 1.524 . S
C1432 C1446 1.377 . S
C1433 C1432 1.524 . S
C1433 C1434 1.397 . S
C1433 C1438 1.363 . S
C1434 H1411 0.950 . S
C1434 C1433 1.397 . S
C1434 C1435 1.334 . S
C1435 H1412 0.950 . S
C1435 C1434 1.334 . S
C1435 C1436 1.287 . S
C1436 C1435 1.287 . S
C1436 C1437 1.524 . S
C1436 H1455 0.913 . S
C1437 H1413 0.950 . S
C1437 C1436 1.524 . S
C1437 C1438 1.415 . S
C1438 H1414 0.950 . S
C1438 C1433 1.363 . S
C1438 C1437 1.415 . S
C1439 H1415 0.951 . S
C1439 C1440 1.366 . S
C1439 C1441 1.388 . S
C1440 C1439 1.366 . S
C1440 C1444 1.385 . S
C1441 H1416 0.951 . S
C1441 C1439 1.388 . S
C1441 C1442 1.366 . S
C1442 C1441 1.366 . S
C1442 C1443 1.414 . S
C1442 C1445 1.499 . S
C1443 H1417 0.950 . S
C1443 C1442 1.414 . S
C1443 C1444 1.374 . S
C1444 H1418 0.950 . S
C1444 C1440 1.385 . S
C1444 C1443 1.374 . S
C1445 C1442 1.499 . S
C1445 C1446 1.373 . S
C1445 C1447 1.389 . S
C1446 H1419 0.950 . S
C1446 C1432 1.377 . S
C1446 C1445 1.373 . S
C1447 C1431 1.377 . S
C1447 C1445 1.389 . S
C1447 C1448 1.524 . S
C1448 C1447 1.524 . S
C1448 C1449 1.397 . S
C1448 C1453 1.363 . S
C1449 H1420 0.950 . S
C1449 C1448 1.397 . S
C1449 C1450 1.334 . S
C1450 H1421 0.950 . S
C1450 C1449 1.334 . S
C1450 C1451 1.287 . S
C1451 C1450 1.287 . S
C1451 C1452 1.524 . S
C1451 H1454 0.999 . S
C1452 H1422 0.950 . S
C1452 C1451 1.524 . S
C1452 C1453 1.415 . S
C1453 H1423 0.950 . S
C1453 C1448 1.363 . S
C1453 C1452 1.415 . S
H1454 C1451 0.999 . S
H1455 C1436 0.913 . S
H1456 C1474 0.951 . S
H1457 C1476 0.951 . S
H1458 C1478 0.950 . S
H1459 C1479 0.950 . S
H1460 C1481 0.950 . S
H1461 C1484 0.950 . S
H1462 C1485 0.950 . S
H1463 C1487 0.950 . S
H1464 C1488 0.950 . S
H1465 C1489 0.951 . S
H1466 C1491 0.951 . S
H1467 C1493 0.950 . S
H1468 C1494 0.950 . S
H1469 C1496 0.950 . S
H1470 C1499 0.950 . S
H1471 C1500 0.950 . S
H1472 C1502 0.950 . S
H1473 C1503 0.950 . S
C1474 H1456 0.951 . S
C1474 C1475 1.366 . S
C1474 C1476 1.388 . S
C1475 C1474 1.366 . S
C1475 C1479 1.385 . S
C1476 H1457 0.951 . S
C1476 C1474 1.388 . S
C1476 C1477 1.366 . S
C1477 C1476 1.366 . S
C1477 C1478 1.414 . S
C1477 C1480 1.499 . S
C1478 H1458 0.950 . S
C1478 C1477 1.414 . S
C1478 C1479 1.374 . S
C1479 H1459 0.950 . S
C1479 C1475 1.385 . S
C1479 C1478 1.374 . S
C1480 C1477 1.499 . S
C1480 C1481 1.373 . S
C1480 C1482 1.389 . S
C1481 H1460 0.950 . S
C1481 C1480 1.373 . S
C1481 C1497 1.377 . S
C1482 C1480 1.389 . S
C1482 C1483 1.524 . S
C1482 C1496 1.377 . S
C1483 C1482 1.524 . S
C1483 C1484 1.397 . S
C1483 C1488 1.363 . S
C1484 H1461 0.950 . S
C1484 C1483 1.397 . S
C1484 C1485 1.334 . S
C1485 H1462 0.950 . S
C1485 C1484 1.334 . S
C1485 C1486 1.287 . S
C1486 C1485 1.287 . S
C1486 C1487 1.524 . S
C1486 H1505 0.913 . S
C1487 H1463 0.950 . S
C1487 C1486 1.524 . S
C1487 C1488 1.415 . S
C1488 H1464 0.950 . S
C1488 C1483 1.363 . S
C1488 C1487 1.415 . S
C1489 H1465 0.951 . S
C1489 C1490 1.366 . S
C1489 C1491 1.388 . S
C1490 C1489 1.366 . S
C1490 C1494 1.385 . S
C1491 H1466 0.951 . S
C1491 C1489 1.388 . S
C1491 C1492 1.366 . S
C1492 C1491 1.366 . S
C1492 C1493 1.414 . S
C1492 C1495 1.499 . S
C1493 H1467 0.950 . S
C1493 C1492 1.414 . S
C1493 C1494 1.374 . S
C1494 H1468 0.950 . S
C1494 C1490 1.385 . S
C1494 C1493 1.374 . S
C1495 C1492 1.499 . S
C1495 C1496 1.373 . S
C1495 C1497 1.389 . S
C1496 H1469 0.950 . S
C1496 C1482 1.377 . S
C1496 C1495 1.373 . S
C1497 C1481 1.377 . S
C1497 C1495 1.389 . S
C1497 C1498 1.524 . S
C1498 C1497 1.524 . S
C1498 C1499 1.397 . S
C1498 C1503 1.363 . S
C1499 H1470 0.950 . S
C1499 C1498 1.397 . S
C1499 C1500 1.334 . S
C1500 H1471 0.950 . S
C1500 C1499 1.334 . S
C1500 C1501 1.287 . S
C1501 C1500 1.287 . S
C1501 C1502 1.524 . S
C1501 H1504 0.999 . S
C1502 H1472 0.950 . S
C1502 C1501 1.524 . S
C1502 C1503 1.415 . S
C1503 H1473 0.950 . S
C1503 C1498 1.363 . S
C1503 C1502 1.415 . S
H1504 C1501 0.999 . S
H1505 C1486 0.913 . S
H1506 C1524 0.951 . S
H1507 C1526 0.951 . S
H1508 C1528 0.950 . S
H1509 C1529 0.950 . S
H1510 C1531 0.950 . S
H1511 C1534 0.950 . S
H1512 C1535 0.950 . S
H1513 C1537 0.950 . S
H1514 C1538 0.950 . S
H1515 C1539 0.951 . S
H1516 C1541 0.951 . S
H1517 C1543 0.950 . S
H1518 C1544 0.950 . S
H1519 C1546 0.950 . S
H1520 C1549 0.950 . S
H1521 C1550 0.950 . S
H1522 C1552 0.950 . S
H1523 C1553 0.950 . S
C1524 H1506 0.951 . S
C1524 C1525 1.366 . S
C1524 C1526 1.388 . S
C1525 C1524 1.366 . S
C1525 C1529 1.385 . S
C1526 H1507 0.951 . S
C1526 C1524 1.388 . S
C1526 C1527 1.366 . S
C1527 C1526 1.366 . S
C1527 C1528 1.414 . S
C1527 C1530 1.499 . S
C1528 H1508 0.950 . S
C1528 C1527 1.414 . S
C1528 C1529 1.374 . S
C1529 H1509 0.950 . S
C1529 C1525 1.385 . S
C1529 C1528 1.374 . S
C1530 C1527 1.499 . S
C1530 C1531 1.373 . S
C1530 C1532 1.389 . S
C1531 H1510 0.950 . S
C1531 C1530 1.373 . S
C1531 C1547 1.377 . S
C1532 C1530 1.389 . S
C1532 C1533 1.524 . S
C1532 C1546 1.377 . S
C1533 C1532 1.524 . S
C1533 C1534 1.397 . S
C1533 C1538 1.363 . S
C1534 H1511 0.950 . S
C1534 C1533 1.397 . S
C1534 C1535 1.334 . S
C1535 H1512 0.950 . S
C1535 C1534 1.334 . S
C1535 C1536 1.287 . S
C1536 C1535 1.287 . S
C1536 C1537 1.524 . S
C1536 H1555 0.913 . S
C1537 H1513 0.950 . S
C1537 C1536 1.524 . S
C1537 C1538 1.415 . S
C1538 H1514 0.950 . S
C1538 C1533 1.363 . S
C1538 C1537 1.415 . S
C1539 H1515 0.951 . S
C1539 C1540 1.366 . S
C1539 C1541 1.388 . S
C1540 C1539 1.366 . S
C1540 C1544 1.385 . S
C1541 H1516 0.951 . S
C1541 C1539 1.388 . S
C1541 C1542 1.366 . S
C1542 C1541 1.366 . S
C1542 C1543 1.414 . S
C1542 C1545 1.499 . S
C1543 H1517 0.950 . S
C1543 C1542 1.414 . S
C1543 C1544 1.374 . S
C1544 H1518 0.950 . S
C1544 C1540 1.385 . S
C1544 C1543 1.374 . S
C1545 C1542 1.499 . S
C1545 C1546 1.373 . S
C1545 C1547 1.389 . S
C1546 H1519 0.950 . S
C1546 C1532 1.377 . S
C1546 C1545 1.373 . S
C1547 C1531 1.377 . S
C1547 C1545 1.389 . S
C1547 C1548 1.524 . S
C1548 C1547 1.524 . S
C1548 C1549 1.397 . S
C1548 C1553 1.363 . S
C1549 H1520 0.950 . S
C1549 C1548 1.397 . S
C1549 C1550 1.334 . S
C1550 H1521 0.950 . S
C1550 C1549 1.334 . S
C1550 C1551 1.287 . S
C1551 C1550 1.287 . S
C1551 C1552 1.524 . S
C1551 H1554 0.999 . S
C1552 H1522 0.950 . S
C1552 C1551 1.524 . S
C1552 C1553 1.415 . S
C1553 H1523 0.950 . S
C1553 C1548 1.363 . S
C1553 C1552 1.415 . S
H1554 C1551 0.999 . S
H1555 C1536 0.913 . S
H1556 C1574 0.951 . S
H1557 C1576 0.951 . S
H1558 C1578 0.950 . S
H1559 C1579 0.950 . S
H1560 C1581 0.950 . S
H1561 C1584 0.950 . S
H1562 C1585 0.950 . S
H1563 C1587 0.950 . S
H1564 C1588 0.950 . S
H1565 C1589 0.951 . S
H1566 C1591 0.951 . S
H1567 C1593 0.950 . S
H1568 C1594 0.950 . S
H1569 C1596 0.950 1_556 S
H1570 C1599 0.950 . S
H1571 C1600 0.950 . S
H1572 C1602 0.950 . S
H1573 C1603 0.955 . S
C1574 H1556 0.951 . S
C1574 C1575 1.366 . S
C1574 C1576 1.388 . S
C1575 C1574 1.366 . S
C1575 C1579 1.385 . S
C1576 H1557 0.951 . S
C1576 C1574 1.388 . S
C1576 C1577 1.366 . S
C1577 C1576 1.366 . S
C1577 C1578 1.414 . S
C1577 C1580 1.499 . S
C1578 H1558 0.950 . S
C1578 C1577 1.414 . S
C1578 C1579 1.374 . S
C1579 H1559 0.950 . S
C1579 C1575 1.385 . S
C1579 C1578 1.374 . S
C1580 C1577 1.499 . S
C1580 C1581 1.373 . S
C1580 C1582 1.389 . S
C1581 H1560 0.950 . S
C1581 C1580 1.373 . S
C1581 C1597 1.377 . S
C1582 C1580 1.389 . S
C1582 C1583 1.524 . S
C1582 C1596 1.377 . S
C1583 C1582 1.524 . S
C1583 C1584 1.397 . S
C1583 C1588 1.363 . S
C1584 H1561 0.950 . S
C1584 C1583 1.397 . S
C1584 C1585 1.334 . S
C1585 H1562 0.950 . S
C1585 C1584 1.334 . S
C1585 C1586 1.287 . S
C1586 C1585 1.287 . S
C1586 C1587 1.524 . S
C1586 H1605 0.913 . S
C1587 H1563 0.950 . S
C1587 C1586 1.524 . S
C1587 C1588 1.415 . S
C1588 H1564 0.950 . S
C1588 C1583 1.363 . S
C1588 C1587 1.415 . S
C1589 H1565 0.951 . S
C1589 C1590 1.366 . S
C1589 C1591 1.388 . S
C1590 C1589 1.366 . S
C1590 C1594 1.385 . S
C1591 H1566 0.951 . S
C1591 C1589 1.388 . S
C1591 C1592 1.366 . S
C1592 C1591 1.366 . S
C1592 C1593 1.414 . S
C1592 C1595 1.499 . S
C1593 H1567 0.950 . S
C1593 C1592 1.414 . S
C1593 C1594 1.374 . S
C1594 H1568 0.950 . S
C1594 C1590 1.385 . S
C1594 C1593 1.374 . S
C1595 C1592 1.499 . S
C1595 C1596 1.373 1_556 S
C1595 C1597 1.389 1_556 S
C1596 H1569 0.950 1_554 S
C1596 C1582 1.377 . S
C1596 C1595 1.373 1_554 S
C1597 C1581 1.377 . S
C1597 C1595 1.389 1_554 S
C1597 C1598 1.524 . S
C1598 C1597 1.524 . S
C1598 C1599 1.397 . S
C1598 C1603 1.356 1_554 S
C1599 H1570 0.950 . S
C1599 C1598 1.397 . S
C1599 C1600 1.334 . S
C1600 H1571 0.950 . S
C1600 C1599 1.334 . S
C1600 C1601 1.287 . S
C1601 C1600 1.287 . S
C1601 C1602 1.524 1_554 S
C1601 H1604 1.009 . S
C1602 H1572 0.950 . S
C1602 C1601 1.524 1_556 S
C1602 C1603 1.419 . S
C1603 H1573 0.955 . S
C1603 C1598 1.356 1_556 S
C1603 C1602 1.419 . S
H1604 C1601 1.009 . S
H1605 C1586 0.913 . S
H1606 C1624 0.951 . S
H1607 C1626 0.951 . S
H1608 C1628 0.950 . S
H1609 C1629 0.950 . S
H1610 C1631 0.950 . S
H1611 C1634 0.950 . S
H1612 C1635 0.950 . S
H1613 C1637 0.950 . S
H1614 C1638 0.950 . S
H1615 C1639 0.951 . S
H1616 C1641 0.951 . S
H1617 C1643 0.950 . S
H1618 C1644 0.950 . S
H1619 C1646 0.950 . S
H1620 C1649 0.950 . S
H1621 C1650 0.950 . S
H1622 C1652 0.950 . S
H1623 C1653 0.950 . S
C1624 H1606 0.951 . S
C1624 C1625 1.366 . S
C1624 C1626 1.388 . S
C1625 C1624 1.366 . S
C1625 C1629 1.385 . S
C1626 H1607 0.951 . S
C1626 C1624 1.388 . S
C1626 C1627 1.366 . S
C1627 C1626 1.366 . S
C1627 C1628 1.414 . S
C1627 C1630 1.499 . S
C1628 H1608 0.950 . S
C1628 C1627 1.414 . S
C1628 C1629 1.374 . S
C1629 H1609 0.950 . S
C1629 C1625 1.385 . S
C1629 C1628 1.374 . S
C1630 C1627 1.499 . S
C1630 C1631 1.373 . S
C1630 C1632 1.389 . S
C1631 H1610 0.950 . S
C1631 C1630 1.373 . S
C1631 C1647 1.377 . S
C1632 C1630 1.389 . S
C1632 C1633 1.524 . S
C1632 C1646 1.377 . S
C1633 C1632 1.524 . S
C1633 C1634 1.397 . S
C1633 C1638 1.363 . S
C1634 H1611 0.950 . S
C1634 C1633 1.397 . S
C1634 C1635 1.334 . S
C1635 H1612 0.950 . S
C1635 C1634 1.334 . S
C1635 C1636 1.287 . S
C1636 C1635 1.287 . S
C1636 C1637 1.524 . S
C1636 H1655 0.913 . S
C1637 H1613 0.950 . S
C1637 C1636 1.524 . S
C1637 C1638 1.415 . S
C1638 H1614 0.950 . S
C1638 C1633 1.363 . S
C1638 C1637 1.415 . S
C1639 H1615 0.951 . S
C1639 C1640 1.366 . S
C1639 C1641 1.388 . S
C1640 C1639 1.366 . S
C1640 C1644 1.385 . S
C1641 H1616 0.951 . S
C1641 C1639 1.388 . S
C1641 C1642 1.366 . S
C1642 C1641 1.366 . S
C1642 C1643 1.414 . S
C1642 C1645 1.499 . S
C1643 H1617 0.950 . S
C1643 C1642 1.414 . S
C1643 C1644 1.374 . S
C1644 H1618 0.950 . S
C1644 C1640 1.385 . S
C1644 C1643 1.374 . S
C1645 C1642 1.499 . S
C1645 C1646 1.373 . S
C1645 C1647 1.389 . S
C1646 H1619 0.950 . S
C1646 C1632 1.377 . S
C1646 C1645 1.373 . S
C1647 C1631 1.377 . S
C1647 C1645 1.389 . S
C1647 C1648 1.524 . S
C1648 C1647 1.524 . S
C1648 C1649 1.397 . S
C1648 C1653 1.363 . S
C1649 H1620 0.950 . S
C1649 C1648 1.397 . S
C1649 C1650 1.334 . S
C1650 H1621 0.950 . S
C1650 C1649 1.334 . S
C1650 C1651 1.287 . S
C1651 C1650 1.287 . S
C1651 C1652 1.524 . S
C1651 H1654 0.999 . S
C1652 H1622 0.950 . S
C1652 C1651 1.524 . S
C1652 C1653 1.415 . S
C1653 H1623 0.950 . S
C1653 C1648 1.363 . S
C1653 C1652 1.415 . S
H1654 C1651 0.999 . S
H1655 C1636 0.913 . S
C490 C449 1.623 . S
C475 C29 1.532 . S
C525 C115 1.361 . S
C540 C383 1.365 . S
C575 C153 1.340 . S
C590 C397 1.410 . S
C625 C239 1.364 . S
C640 C411 1.366 . S
C690 C425 1.478 . S
C675 C301 1.472 . S
C725 C339 1.741 . S
C740 C435 1.842 . S
C775 C91 1.543 . S
C790 C393 1.630 . S
C825 C177 1.579 . S
C840 C407 1.606 . S
C875 C215 1.532 . S
C890 C421 1.623 . S
C940 C439 1.794 . S
C925 C277 1.712 . S
C990 C453 1.480 . S
C975 C363 1.466 . S
C1040 C379 1.493 . S
C1025 C53 1.473 . S
C1075 C35 1.566 . S
C1090 C394 1.533 . S
C1125 C109 1.493 . S
C1140 C408 1.545 . S
C1190 C422 1.503 . S
C1175 C159 1.529 . S
C1225 C233 1.596 . S
C1240 C441 1.638 . S
C1290 C455 1.407 . S
C1275 C295 1.362 . S
C1340 C380 1.314 . S
C1325 C345 1.339 . S
C1390 C450 1.369 . S
C1375 C97 1.393 . S
C1425 C171 1.243 . S
C1440 C385 1.280 . S
C1490 C399 1.374 . S
C1475 C221 1.404 . S
C1525 C283 1.296 . S
C1540 C413 1.261 . S
C1575 C357 1.385 . S
C1590 C427 1.441 . S
C1625 C47 1.632 . S
C1640 C436 1.681 . S
