# Generated by pormake.
# Topology ssa, (4,4)-cn, num edge types: 1
# Building blocks:
#     Node 0, Type 0, BuildingBlock: ESEHIV_clean_sbu_0, # of connection points: 4
#     Node 1, Type 0, BuildingBlock: ESEHIV_clean_sbu_0, # of connection points: 4
#     Node 2, Type 0, BuildingBlock: ESEHIV_clean_sbu_0, # of connection points: 4
#     Node 3, Type 0, BuildingBlock: ESEHIV_clean_sbu_0, # of connection points: 4
#     Node 4, Type 0, BuildingBlock: ESEHIV_clean_sbu_0, # of connection points: 4
#     Node 5, Type 0, BuildingBlock: ESEHIV_clean_sbu_0, # of connection points: 4
#     Node 6, Type 1, BuildingBlock: NAHDIM_clean_linker_0, # of connection points: 4
#     Node 7, Type 1, BuildingBlock: NAHDIM_clean_linker_0, # of connection points: 4
#     Node 8, Type 1, BuildingBlock: NAHDIM_clean_linker_0, # of connection points: 4
#     Node 9, Type 1, BuildingBlock: NAHDIM_clean_linker_0, # of connection points: 4
#     Node 10, Type 1, BuildingBlock: NAHDIM_clean_linker_0, # of connection points: 4
#     Node 11, Type 1, BuildingBlock: NAHDIM_clean_linker_0, # of connection points: 4
#     Edge 12, Type (0, 1), BuildingBlock: OJICUG_clean_linker_0, # of connection points: 2
#     Edge 13, Type (0, 1), BuildingBlock: OJICUG_clean_linker_0, # of connection points: 2
#     Edge 14, Type (0, 1), BuildingBlock: OJICUG_clean_linker_0, # of connection points: 2
#     Edge 15, Type (0, 1), BuildingBlock: OJICUG_clean_linker_0, # of connection points: 2
#     Edge 16, Type (0, 1), BuildingBlock: OJICUG_clean_linker_0, # of connection points: 2
#     Edge 17, Type (0, 1), BuildingBlock: OJICUG_clean_linker_0, # of connection points: 2
#     Edge 18, Type (0, 1), BuildingBlock: OJICUG_clean_linker_0, # of connection points: 2
#     Edge 19, Type (0, 1), BuildingBlock: OJICUG_clean_linker_0, # of connection points: 2
#     Edge 20, Type (0, 1), BuildingBlock: OJICUG_clean_linker_0, # of connection points: 2
#     Edge 21, Type (0, 1), BuildingBlock: OJICUG_clean_linker_0, # of connection points: 2
#     Edge 22, Type (0, 1), BuildingBlock: OJICUG_clean_linker_0, # of connection points: 2
#     Edge 23, Type (0, 1), BuildingBlock: OJICUG_clean_linker_0, # of connection points: 2
#     Edge 24, Type (0, 1), BuildingBlock: OJICUG_clean_linker_0, # of connection points: 2
#     Edge 25, Type (0, 1), BuildingBlock: OJICUG_clean_linker_0, # of connection points: 2
#     Edge 26, Type (0, 1), BuildingBlock: OJICUG_clean_linker_0, # of connection points: 2
#     Edge 27, Type (0, 1), BuildingBlock: OJICUG_clean_linker_0, # of connection points: 2
#     Edge 28, Type (0, 1), BuildingBlock: OJICUG_clean_linker_0, # of connection points: 2
#     Edge 29, Type (0, 1), BuildingBlock: OJICUG_clean_linker_0, # of connection points: 2
#     Edge 30, Type (0, 1), BuildingBlock: OJICUG_clean_linker_0, # of connection points: 2
#     Edge 31, Type (0, 1), BuildingBlock: OJICUG_clean_linker_0, # of connection points: 2
#     Edge 32, Type (0, 1), BuildingBlock: OJICUG_clean_linker_0, # of connection points: 2
#     Edge 33, Type (0, 1), BuildingBlock: OJICUG_clean_linker_0, # of connection points: 2
#     Edge 34, Type (0, 1), BuildingBlock: OJICUG_clean_linker_0, # of connection points: 2
#     Edge 35, Type (0, 1), BuildingBlock: OJICUG_clean_linker_0, # of connection points: 2
# Relax obj value: 0.019
# Max RMSD: 0.108
# Mean RMSD: 0.071
data_MOF--net-ssa--node1-ESEHIV_clean_sbu_0--node2-NAHDIM_clean_linker_0--edge1-OJICUG_clean_linker_0
_symmetry_space_group_name_H-M    P1
_symmetry_Int_Tables_number       1
_symmetry_cell_setting            triclinic
loop_
_symmetry_equiv_pos_as_xyz
'x, y, z'
_cell_length_a     50.03647
_cell_length_b     53.477268
_cell_length_c     44.498581
_cell_angle_alpha  88.259833
_cell_angle_beta   91.424208
_cell_angle_gamma 122.31719
loop_
_atom_site_label
_atom_site_type_symbol
_atom_site_fract_x
_atom_site_fract_y
_atom_site_fract_z
_atom_type_partial_charge
Cu0 Cu 0.02605 0.49817 0.99174 0.0
N1 N 0.0234 0.47698 0.95806 0.0
N2 N 0.00457 0.4401 0.9255 0.0
C3 C 1.00052 0.4488 0.95229 0.0
C4 C 0.03106 0.46382 0.91402 0.0
C5 C 0.04252 0.48657 0.93409 0.0
O6 O 0.9915 0.50482 0.9894 0.0
C7 C 0.04209 0.46571 0.03026 0.0
O8 O 0.0566 0.46545 0.00618 0.0
H9 H 0.98141 0.43497 0.96761 0.0
H10 H 0.06307 0.50868 0.93119 0.0
N11 N 0.06377 0.53493 0.99271 0.0
N12 N 0.09779 0.58124 0.00689 0.0
C13 C 0.06718 0.5593 0.00461 0.0
C14 C 0.09328 0.54165 0.98733 0.0
C15 C 0.11441 0.57035 0.99608 0.0
C16 C 0.99233 0.52175 0.96819 0.0
O17 O 0.0159 0.53326 0.94918 0.0
H18 H 0.04765 0.56012 0.01326 0.0
H19 H 0.09907 0.52629 0.97913 0.0
O20 O 0.02573 0.47753 0.02858 0.0
H21 H 0.04109 0.4649 0.89239 0.0
H22 H 0.13992 0.58184 0.99548 0.0
Cu23 Cu 0.50065 0.02504 0.49833 0.0
N24 N 0.52589 0.03223 0.46499 0.0
N25 N 0.5488 0.02333 0.42806 0.0
C26 C 0.526 0.01133 0.44897 0.0
C27 C 0.56356 0.05286 0.43081 0.0
C28 C 0.54918 0.05833 0.45354 0.0
O29 O 0.45997 0.98919 0.49086 0.0
C30 C 0.55019 0.03686 0.53833 0.0
O31 O 0.56742 0.05725 0.51803 0.0
H32 H 0.51049 0.98782 0.45342 0.0
H33 H 0.55588 0.07976 0.4618 0.0
N34 N 0.49507 0.05626 0.50488 0.0
N35 N 0.48365 0.08544 0.52893 0.0
C36 C 0.48877 0.06311 0.53156 0.0
C37 C 0.49417 0.07502 0.48464 0.0
C38 C 0.48697 0.09299 0.49941 0.0
C39 C 0.44269 0.98889 0.46923 0.0
O40 O 0.45244 0.0132 0.45311 0.0
H41 H 0.48674 0.05113 0.55231 0.0
H42 H 0.49776 0.07515 0.46075 0.0
O43 O 0.52049 0.02005 0.53409 0.0
H44 H 0.58341 0.06929 0.41755 0.0
H45 H 0.48408 0.11004 0.48921 0.0
Cu46 Cu 0.51572 0.51088 0.0337 0.0
N47 N 0.50021 0.47076 0.04009 0.0
N48 N 0.48568 0.42429 0.03133 0.0
C49 C 0.50187 0.45252 0.02106 0.0
C50 C 0.47325 0.42462 0.05772 0.0
C51 C 0.48236 0.45341 0.06313 0.0
O52 O 0.54563 0.52583 1.00086 0.0
C53 C 0.4622 0.5132 0.04526 0.0
O54 O 0.46833 0.50945 0.07328 0.0
H55 H 0.51372 0.45963 0.99962 0.0
H56 H 0.47588 0.46108 0.08218 0.0
N57 N 0.53624 0.53253 0.06813 0.0
N58 N 0.5502 0.56506 0.10487 0.0
C59 C 0.53618 0.55616 0.07763 0.0
C60 C 0.55142 0.52657 0.08977 0.0
C61 C 0.56012 0.54665 0.11247 0.0
C62 C 0.56852 0.52184 0.00256 0.0
O63 O 0.57115 0.50824 0.02647 0.0
H64 H 0.52492 0.56588 0.06526 0.0
H65 H 0.55472 0.50817 0.08963 0.0
O66 O 0.47981 0.51457 0.02429 0.0
H67 H 0.45863 0.40549 0.07203 0.0
H68 H 0.57121 0.5466 0.13365 0.0
Cu69 Cu 0.01667 0.4844 0.5265 0.0
N70 N 0.04568 0.47326 0.52068 0.0
N71 N 0.08174 0.46769 0.49857 0.0
C72 C 0.06201 0.4776 0.49545 0.0
C73 C 0.07727 0.45628 0.52682 0.0
C74 C 0.05498 0.45975 0.5404 0.0
O75 O 0.02039 0.5106 0.49319 0.0
C76 C 0.96756 0.43591 0.55693 0.0
O77 O 0.98755 0.44829 0.57942 0.0
H78 H 0.05952 0.48796 0.47523 0.0
H79 H 0.04654 0.45336 0.56319 0.0
N80 N 0.02689 0.50639 0.56144 0.0
N81 N 0.02155 0.52741 0.60148 0.0
C82 C 0.00733 0.51126 0.57682 0.0
C83 C 0.05452 0.52012 0.57674 0.0
C84 C 0.05133 0.53324 0.60145 0.0
C85 C 0.04779 0.53405 0.49072 0.0
O86 O 0.07001 0.53786 0.50988 0.0
H87 H 0.98301 0.50273 0.57024 0.0
H88 H 0.07535 0.52024 0.57055 0.0
O89 O 0.97506 0.44814 0.53087 0.0
H90 H 0.08993 0.447 0.53726 0.0
H91 H 0.06914 0.54529 0.61856 0.0
Cu92 Cu 0.53614 0.01579 0.03677 0.0
N93 N 0.53002 0.04712 0.03541 0.0
N94 N 0.52075 0.07976 0.01317 0.0
C95 C 0.53345 0.06321 0.01037 0.0
C96 C 0.50899 0.074 0.04127 0.0
C97 C 0.51478 0.0538 0.05498 0.0
O98 O 0.55521 0.0186 0.99843 0.0
C99 C 0.49099 0.95805 0.05957 0.0
O100 O 0.51502 0.95467 0.06296 0.0
H101 H 0.54245 0.06072 0.98955 0.0
H102 H 0.50649 0.04315 0.07677 0.0
N103 N 0.56465 0.02096 0.06755 0.0
N104 N 0.59612 0.01251 0.09664 0.0
C105 C 0.57968 0.00636 0.07064 0.0
C106 C 0.57231 0.03738 0.09232 0.0
C107 C 0.5918 0.0322 0.11037 0.0
C108 C 0.56567 0.00364 0.98796 0.0
O109 O 0.55889 0.97874 0.00139 0.0
H110 H 0.57755 0.99067 0.05464 0.0
H111 H 0.56344 0.05129 0.0974 0.0
O112 O 0.4949 0.98074 0.04534 0.0
H113 H 0.49571 0.08252 0.05061 0.0
H114 H 0.60084 0.04123 0.13237 0.0
Cu115 Cu 0.52737 0.51158 0.50057 0.0
N116 N 0.54895 0.55231 0.49297 0.0
N117 N 0.56402 0.59977 0.48815 0.0
C118 C 0.54123 0.57242 0.49789 0.0
C119 C 0.58682 0.59664 0.47687 0.0
C120 C 0.57745 0.56744 0.47987 0.0
O121 O 0.50172 0.49088 0.46539 0.0
C122 C 0.57372 0.51526 0.53682 0.0
O123 O 0.56439 0.53004 0.55173 0.0
H124 H 0.51949 0.56719 0.50834 0.0
H125 H 0.59036 0.55771 0.47269 0.0
N126 N 0.49999 0.49894 0.53329 0.0
N127 N 0.47391 0.47101 0.57333 0.0
C128 C 0.49646 0.47789 0.55306 0.0
C129 C 0.47862 0.50548 0.54121 0.0
C130 C 0.46231 0.48809 0.56595 0.0
C131 C 0.48221 0.49816 0.45701 0.0
O132 O 0.48213 0.51928 0.4711 0.0
H133 H 0.50963 0.46716 0.55208 0.0
H134 H 0.47466 0.52128 0.52961 0.0
O135 O 0.5604 0.50399 0.51175 0.0
H136 H 0.6084 0.61406 0.46647 0.0
H137 H 0.44349 0.48797 0.57757 0.0
C138 C 0.2098 0.50093 0.4361 0.0
C139 C 0.1793 0.48654 0.41714 0.0
C140 C 0.18967 0.45936 0.38031 0.0
C141 C 0.21081 0.48429 0.36266 0.0
C142 C 0.22709 0.48189 0.33886 0.0
C143 C 0.22252 0.45407 0.33258 0.0
C144 C 0.20096 0.42883 0.34987 0.0
C145 C 0.18465 0.4318 0.37342 0.0
C146 C 0.2495 0.50928 0.32057 0.0
C147 C 0.19537 0.39885 0.34355 0.0
C148 C 0.44225 0.48199 0.38153 0.0
C149 C 0.42029 0.46955 0.35514 0.0
C150 C 0.38267 0.48082 0.33089 0.0
C151 C 0.35994 0.45192 0.32196 0.0
C152 C 0.33076 0.44529 0.30949 0.0
C153 C 0.32447 0.46806 0.30549 0.0
C154 C 0.34792 0.49736 0.31339 0.0
C155 C 0.37662 0.50326 0.32606 0.0
C156 C 0.30632 0.41385 0.30122 0.0
C157 C 0.34234 0.52235 0.3095 0.0
C158 C 0.33038 0.50454 0.10033 0.0
C159 C 0.31277 0.47366 0.10487 0.0
C160 C 0.29118 0.46061 0.12868 0.0
C161 C 0.28736 0.47881 0.14829 0.0
C162 C 0.30586 0.50994 0.14424 0.0
C163 C 0.32719 0.52233 0.12038 0.0
C164 C 0.27214 0.42741 0.13273 0.0
C165 C 0.30259 0.53013 0.16474 0.0
C166 C 0.03762 0.40469 0.15998 0.0
C167 C 0.06886 0.42763 0.14509 0.0
C168 C 0.11596 0.42422 0.15283 0.0
C169 C 0.12414 0.40314 0.15708 0.0
C170 C 0.15411 0.411 0.16812 0.0
C171 C 0.17668 0.44089 0.17477 0.0
C172 C 0.1688 0.46252 0.17011 0.0
C173 C 0.13854 0.45401 0.15904 0.0
C174 C 0.16176 0.38738 0.17246 0.0
C175 C 0.19252 0.49465 0.17653 0.0
C176 C 0.24143 0.4521 0.30859 0.0
C177 C 0.27094 0.45677 0.31666 0.0
C178 C 0.29279 0.46109 0.29487 0.0
C179 C 0.28515 0.46112 0.26401 0.0
C180 C 0.3073 0.46765 0.24146 0.0
C181 C 0.30004 0.46907 0.21126 0.0
C182 C 0.2701 0.46332 0.20244 0.0
C183 C 0.26281 0.46561 0.17196 0.0
C184 C 0.23223 0.45808 0.1638 0.0
C185 C 0.2089 0.4495 0.18541 0.0
C186 C 0.21641 0.44909 0.21622 0.0
C187 C 0.19431 0.44272 0.23877 0.0
C188 C 0.20242 0.44363 0.26906 0.0
C189 C 0.23258 0.45 0.27791 0.0
C190 C 0.25478 0.45519 0.25555 0.0
C191 C 0.247 0.4556 0.22469 0.0
C192 C 0.38424 0.50448 0.05475 0.0
C193 C 0.35494 0.50528 0.05273 0.0
O194 O 0.17402 0.46096 0.40414 0.0
O195 O 0.08655 0.41487 0.14173 0.0
O196 O 0.35039 0.51826 0.07695 0.0
O197 O 0.41033 0.48813 0.34492 0.0
H198 H 0.1815 0.50247 0.39925 0.0
H199 H 0.2305 0.50754 0.42178 0.0
H200 H 0.20847 0.48524 0.45386 0.0
H201 H 0.21374 0.52112 0.44689 0.0
H202 H 0.2151 0.50585 0.36727 0.0
H203 H 0.16825 0.41261 0.38693 0.0
H204 H 0.2736 0.51318 0.32165 0.0
H205 H 0.2507 0.52936 0.32851 0.0
H206 H 0.24183 0.50603 0.29662 0.0
H207 H 0.1769 0.38113 0.35822 0.0
H208 H 0.21774 0.39942 0.34706 0.0
H209 H 0.18811 0.39328 0.31968 0.0
H210 H 0.42812 0.4614 0.33664 0.0
H211 H 0.4655 0.48636 0.37325 0.0
H212 H 0.41733 0.45181 0.41671 0.0
H213 H 0.4506 0.50615 0.38249 0.0
H214 H 0.36465 0.43446 0.325 0.0
H215 H 0.39436 0.5255 0.33291 0.0
H216 H 0.28454 0.4058 0.31443 0.0
H217 H 0.31484 0.39866 0.30545 0.0
H218 H 0.29982 0.41305 0.27708 0.0
H219 H 0.36461 0.54436 0.31157 0.0
H220 H 0.3259 0.52017 0.32714 0.0
H221 H 0.33127 0.52137 0.28727 0.0
H222 H 0.33292 0.48524 0.04436 0.0
H223 H 0.31559 0.45967 0.0899 0.0
H224 H 0.34113 0.54613 0.11685 0.0
H225 H 0.27475 0.42126 0.15619 0.0
H226 H 0.27946 0.4164 0.11706 0.0
H227 H 0.2467 0.4189 0.1288 0.0
H228 H 0.31824 0.55384 0.15813 0.0
H229 H 0.30854 0.52703 0.18819 0.0
H230 H 0.27772 0.52437 0.16446 0.0
H231 H 0.08099 0.44682 0.1603 0.0
H232 H 0.02311 0.4143 0.16404 0.0
H233 H 0.04241 0.39741 0.182 0.0
H234 H 0.02393 0.38502 0.14557 0.0
H235 H 0.10674 0.3803 0.15183 0.0
H236 H 0.13302 0.47079 0.15466 0.0
H237 H 0.16853 0.38669 0.19628 0.0
H238 H 0.18231 0.39285 0.1584 0.0
H239 H 0.14152 0.36509 0.16643 0.0
H240 H 0.18241 0.50865 0.17296 0.0
H241 H 0.21325 0.50309 0.16166 0.0
H242 H 0.20118 0.49691 0.20011 0.0
H243 H 0.27758 0.45846 0.34027 0.0
H244 H 0.33071 0.47228 0.24697 0.0
H245 H 0.31814 0.47464 0.19486 0.0
H246 H 0.22669 0.4595 0.14031 0.0
H247 H 0.17074 0.43764 0.23324 0.0
H248 H 0.18471 0.43913 0.28551 0.0
H249 H 0.37561 0.48025 0.05466 0.0
H250 H 0.39158 0.50735 0.07918 0.0
H251 H 0.41302 0.53436 0.02064 0.0
C252 C 0.92356 0.30179 0.90048 0.0
C253 C 0.92677 0.32352 0.87533 0.0
C254 C 0.87486 0.29406 0.84989 0.0
C255 C 0.88039 0.27359 0.83685 0.0
C256 C 0.85605 0.24888 0.82174 0.0
C257 C 0.82568 0.24469 0.81925 0.0
C258 C 0.82032 0.26575 0.83143 0.0
C259 C 0.84502 0.29016 0.84657 0.0
C260 C 0.8626 0.22691 0.80887 0.0
C261 C 0.78833 0.26215 0.8289 0.0
C262 C 0.70878 0.07485 0.94512 0.0
C263 C 0.68382 0.07662 0.92613 0.0
C264 C 0.70211 0.0942 0.87557 0.0
C265 C 0.69454 0.11578 0.87101 0.0
C266 C 0.71155 0.1394 0.85051 0.0
C267 C 0.73669 0.14144 0.83437 0.0
C268 C 0.74398 0.11936 0.83859 0.0
C269 C 0.72622 0.09573 0.85889 0.0
C270 C 0.70273 0.1622 0.84611 0.0
C271 C 0.77073 0.12094 0.82189 0.0
C272 C 0.66271 0.07055 0.65427 0.0
C273 C 0.65224 0.08954 0.66062 0.0
C274 C 0.67367 0.11843 0.67057 0.0
C275 C 0.70605 0.12842 0.67419 0.0
C276 C 0.7167 0.10964 0.66675 0.0
C277 C 0.69486 0.08103 0.65674 0.0
C278 C 0.66168 0.13804 0.67804 0.0
C279 C 0.75105 0.11951 0.6702 0.0
C280 C 0.90145 0.31309 0.61256 0.0
C281 C 0.8779 0.3158 0.59181 0.0
C282 C 0.82996 0.28409 0.62205 0.0
C283 C 0.80864 0.28461 0.6413 0.0
C284 C 0.78785 0.25975 0.65907 0.0
C285 C 0.78959 0.23415 0.65863 0.0
C286 C 0.80998 0.23297 0.63794 0.0
C287 C 0.82903 0.25755 0.61911 0.0
C288 C 0.76475 0.26139 0.67881 0.0
C289 C 0.81241 0.2061 0.63604 0.0
C290 C 0.79911 0.2175 0.80535 0.0
C291 C 0.78047 0.19305 0.82428 0.0
C292 C 0.75523 0.16658 0.81294 0.0
C293 C 0.74813 0.16432 0.78182 0.0
C294 C 0.72298 0.138 0.76969 0.0
C295 C 0.71655 0.13573 0.73899 0.0
C296 C 0.73467 0.15985 0.71924 0.0
C297 C 0.72857 0.15747 0.68794 0.0
C298 C 0.74608 0.1822 0.66901 0.0
C299 C 0.77092 0.20907 0.68027 0.0
C300 C 0.77837 0.21136 0.71146 0.0
C301 C 0.80423 0.23734 0.72357 0.0
C302 C 0.81094 0.23952 0.7543 0.0
C303 C 0.79243 0.2156 0.7741 0.0
C304 C 0.76674 0.18895 0.76235 0.0
C305 C 0.75977 0.18681 0.73102 0.0
C306 C 0.59956 0.99282 0.65106 0.0
C307 C 0.61016 0.02534 0.64698 0.0
O308 O 0.8972 0.31748 0.86615 0.0
O309 O 0.85126 0.30971 0.6074 0.0
O310 O 0.64289 0.04211 0.64566 0.0
O311 O 0.68673 0.07198 0.89625 0.0
H312 H 0.93906 0.32157 0.8559 0.0
H313 H 0.91057 0.27877 0.89235 0.0
H314 H 0.91051 0.30272 0.91982 0.0
H315 H 0.94733 0.30729 0.90836 0.0
H316 H 0.90344 0.27642 0.83864 0.0
H317 H 0.84096 0.30613 0.85642 0.0
H318 H 0.84691 0.20478 0.81954 0.0
H319 H 0.88757 0.23344 0.81235 0.0
H320 H 0.85721 0.22477 0.78439 0.0
H321 H 0.78846 0.28134 0.83798 0.0
H322 H 0.77068 0.24182 0.8414 0.0
H323 H 0.78055 0.25944 0.80498 0.0
H324 H 0.68918 0.09948 0.9292 0.0
H325 H 0.7053 0.07635 0.96942 0.0
H326 H 0.73274 0.09362 0.93891 0.0
H327 H 0.70784 0.054 0.94115 0.0
H328 H 0.67526 0.11406 0.88345 0.0
H329 H 0.73171 0.07881 0.86249 0.0
H330 H 0.69796 0.16414 0.82192 0.0
H331 H 0.72284 0.18415 0.85316 0.0
H332 H 0.68156 0.15665 0.85922 0.0
H333 H 0.77449 0.10292 0.8289 0.0
H334 H 0.79298 0.14258 0.82579 0.0
H335 H 0.76561 0.1194 0.79737 0.0
H336 H 0.60205 0.03133 0.66707 0.0
H337 H 0.62749 0.08196 0.65799 0.0
H338 H 0.70273 0.06633 0.65142 0.0
H339 H 0.66526 0.14287 0.70242 0.0
H340 H 0.63617 0.12771 0.67246 0.0
H341 H 0.67542 0.15949 0.66557 0.0
H342 H 0.75569 0.10263 0.66244 0.0
H343 H 0.75836 0.1241 0.69417 0.0
H344 H 0.76601 0.14035 0.65714 0.0
H345 H 0.87052 0.30013 0.57296 0.0
H346 H 0.92396 0.32111 0.60059 0.0
H347 H 0.89233 0.28992 0.61971 0.0
H348 H 0.90667 0.32636 0.63308 0.0
H349 H 0.80866 0.30481 0.64275 0.0
H350 H 0.84369 0.25605 0.60273 0.0
H351 H 0.77509 0.26806 0.7017 0.0
H352 H 0.74214 0.23962 0.68069 0.0
H353 H 0.75964 0.27809 0.67002 0.0
H354 H 0.83358 0.21093 0.62339 0.0
H355 H 0.79113 0.1883 0.62431 0.0
H356 H 0.8135 0.19765 0.65885 0.0
H357 H 0.78578 0.19461 0.8482 0.0
H358 H 0.70809 0.11874 0.78377 0.0
H359 H 0.69702 0.1148 0.73098 0.0
H360 H 0.74091 0.18021 0.64507 0.0
H361 H 0.81967 0.25635 0.70945 0.0
H362 H 0.83095 0.26015 0.76233 0.0
H363 H 0.60669 0.98535 0.63148 0.0
H364 H 0.57347 0.97863 0.65354 0.0
H365 H 0.61069 0.98992 0.67169 0.0
C366 C 0.57207 0.72192 0.515 0.0
C367 C 0.56499 0.7083 0.48385 0.0
C368 C 0.5855 0.74114 0.43858 0.0
C369 C 0.55659 0.73098 0.42333 0.0
C370 C 0.55491 0.74662 0.39814 0.0
C371 C 0.58276 0.77236 0.38753 0.0
C372 C 0.61212 0.78152 0.40169 0.0
C373 C 0.61304 0.76577 0.42704 0.0
C374 C 0.52327 0.73608 0.38328 0.0
C375 C 0.6424 0.80846 0.39055 0.0
C376 C 0.57624 0.97449 0.40819 0.0
C377 C 0.58734 0.95707 0.39338 0.0
C378 C 0.57118 0.90541 0.38668 0.0
C379 C 0.59973 0.91125 0.37462 0.0
C380 C 0.60226 0.88825 0.36359 0.0
C381 C 0.57535 0.859 0.36346 0.0
C382 C 0.54647 0.85319 0.37522 0.0
C383 C 0.54497 0.87642 0.38711 0.0
C384 C 0.63385 0.89527 0.35238 0.0
C385 C 0.51716 0.82241 0.37533 0.0
C386 C 0.59233 0.88752 0.16916 0.0
C387 C 0.61881 0.89217 0.18571 0.0
C388 C 0.61739 0.86923 0.20321 0.0
C389 C 0.58858 0.84133 0.20491 0.0
C390 C 0.56234 0.8362 0.1871 0.0
C391 C 0.56478 0.85933 0.16904 0.0
C392 C 0.64638 0.87521 0.22075 0.0
C393 C 0.53134 0.80674 0.18814 0.0
C394 C 0.53264 0.62426 0.21786 0.0
C395 C 0.54171 0.64157 0.18783 0.0
C396 C 0.57176 0.69371 0.2031 0.0
C397 C 0.60188 0.71943 0.20533 0.0
C398 C 0.60631 0.74545 0.21732 0.0
C399 C 0.57984 0.74579 0.22715 0.0
C400 C 0.54926 0.71992 0.22491 0.0
C401 C 0.54555 0.69416 0.21317 0.0
C402 C 0.63925 0.77257 0.21948 0.0
C403 C 0.52035 0.71952 0.23474 0.0
C404 C 0.58088 0.7913 0.36355 0.0
C405 C 0.57895 0.81506 0.3727 0.0
C406 C 0.57751 0.83434 0.3518 0.0
C407 C 0.57829 0.83 0.32071 0.0
C408 C 0.5766 0.84875 0.29901 0.0
C409 C 0.57873 0.84509 0.26856 0.0
C410 C 0.58201 0.82217 0.25855 0.0
C411 C 0.58512 0.81886 0.22765 0.0
C412 C 0.58548 0.79432 0.21821 0.0
C413 C 0.58366 0.77327 0.23899 0.0
C414 C 0.58323 0.77763 0.27019 0.0
C415 C 0.58385 0.75824 0.29186 0.0
C416 C 0.58337 0.76277 0.32249 0.0
C417 C 0.5816 0.78652 0.33257 0.0
C418 C 0.58062 0.80616 0.31109 0.0
C419 C 0.58201 0.802 0.27992 0.0
C420 C 0.60155 0.95807 0.14356 0.0
C421 C 0.61066 0.93946 0.16083 0.0
O422 O 0.58835 0.72816 0.46419 0.0
O423 O 0.56916 0.66923 0.19124 0.0
O424 O 0.59238 0.90976 0.15357 0.0
O425 O 0.56801 0.92679 0.39865 0.0
H426 H 0.54133 0.70381 0.47718 0.0
H427 H 0.57173 0.74253 0.51388 0.0
H428 H 0.59576 0.72752 0.52326 0.0
H429 H 0.55388 0.70628 0.53128 0.0
H430 H 0.53523 0.71104 0.43075 0.0
H431 H 0.63534 0.77309 0.4385 0.0
H432 H 0.51782 0.75363 0.38424 0.0
H433 H 0.50377 0.71558 0.39412 0.0
H434 H 0.52418 0.73176 0.3592 0.0
H435 H 0.66362 0.8108 0.40192 0.0
H436 H 0.64196 0.82861 0.39469 0.0
H437 H 0.64449 0.80725 0.36592 0.0
H438 H 0.61302 0.96596 0.39673 0.0
H439 H 0.5955 0.98871 0.4248 0.0
H440 H 0.55891 0.95951 0.42594 0.0
H441 H 0.56374 0.9924 0.3721 0.0
H442 H 0.62035 0.93351 0.3743 0.0
H443 H 0.52308 0.87209 0.39651 0.0
H444 H 0.63912 0.87868 0.36119 0.0
H445 H 0.65346 0.91765 0.35903 0.0
H446 H 0.63316 0.89441 0.32748 0.0
H447 H 0.49567 0.82235 0.38118 0.0
H448 H 0.5202 0.80828 0.39205 0.0
H449 H 0.51345 0.81232 0.35295 0.0
H450 H 0.61346 0.94311 0.18558 0.0
H451 H 0.64056 0.91374 0.18517 0.0
H452 H 0.54464 0.85587 0.1558 0.0
H453 H 0.64372 0.87871 0.24467 0.0
H454 H 0.66821 0.89526 0.21211 0.0
H455 H 0.64922 0.85602 0.21985 0.0
H456 H 0.51271 0.80681 0.17409 0.0
H457 H 0.52295 0.80086 0.21168 0.0
H458 H 0.53478 0.78924 0.18003 0.0
H459 H 0.52203 0.64424 0.18019 0.0
H460 H 0.51097 0.60194 0.21499 0.0
H461 H 0.52773 0.63595 0.23493 0.0
H462 H 0.55212 0.62175 0.22654 0.0
H463 H 0.62203 0.71903 0.19763 0.0
H464 H 0.522 0.67462 0.21197 0.0
H465 H 0.64411 0.78095 0.24277 0.0
H466 H 0.6411 0.79033 0.20439 0.0
H467 H 0.65761 0.76809 0.21312 0.0
H468 H 0.49802 0.69845 0.22929 0.0
H469 H 0.5197 0.73811 0.22372 0.0
H470 H 0.52151 0.72259 0.25939 0.0
H471 H 0.57861 0.81865 0.39653 0.0
H472 H 0.57396 0.8667 0.30532 0.0
H473 H 0.57759 0.86044 0.25297 0.0
H474 H 0.58672 0.79134 0.19439 0.0
H475 H 0.58509 0.73954 0.28535 0.0
H476 H 0.58421 0.74733 0.3382 0.0
H477 H 0.64142 0.98613 0.11768 0.0
H478 H 0.59244 0.96654 0.1609 0.0
H479 H 0.57753 0.94254 0.13331 0.0
C480 C 0.69656 0.58708 0.92846 0.0
C481 C 0.66571 0.56578 0.91134 0.0
C482 C 0.68787 0.54433 0.87919 0.0
C483 C 0.70839 0.57002 0.86229 0.0
C484 C 0.73278 0.5718 0.84544 0.0
C485 C 0.73565 0.54689 0.84436 0.0
C486 C 0.71308 0.52014 0.85906 0.0
C487 C 0.68961 0.51931 0.87644 0.0
C488 C 0.75634 0.60069 0.83 0.0
C489 C 0.71466 0.4928 0.85772 0.0
C490 C 0.90351 0.57286 0.98753 0.0
C491 C 0.89917 0.55531 0.95936 0.0
C492 C 0.88252 0.56803 0.91171 0.0
C493 C 0.85916 0.53939 0.90268 0.0
C494 C 0.83748 0.53515 0.87962 0.0
C495 C 0.83942 0.56002 0.86517 0.0
C496 C 0.86362 0.58887 0.87355 0.0
C497 C 0.88501 0.59245 0.89657 0.0
C498 C 0.81236 0.5041 0.87075 0.0
C499 C 0.86663 0.61588 0.8584 0.0
C500 C 0.92028 0.56268 0.68956 0.0
C501 C 0.89457 0.53373 0.6951 0.0
C502 C 0.86511 0.52853 0.70347 0.0
C503 C 0.86124 0.55271 0.70596 0.0
C504 C 0.8866 0.5817 0.69876 0.0
C505 C 0.91577 0.58625 0.69044 0.0
C506 C 0.8383 0.4973 0.71035 0.0
C507 C 0.88314 0.60795 0.70071 0.0
C508 C 0.6864 0.56898 0.61783 0.0
C509 C 0.68587 0.54403 0.60082 0.0
C510 C 0.7096 0.52779 0.63998 0.0
C511 C 0.70347 0.50496 0.66035 0.0
C512 C 0.72627 0.50824 0.68168 0.0
C513 C 0.75548 0.53576 0.68372 0.0
C514 C 0.76212 0.55876 0.66265 0.0
C515 C 0.73959 0.55414 0.64042 0.0
C516 C 0.71881 0.4822 0.70198 0.0
C517 C 0.79296 0.58843 0.66347 0.0
C518 C 0.76431 0.54974 0.83147 0.0
C519 C 0.78809 0.55386 0.85175 0.0
C520 C 0.81551 0.5559 0.84202 0.0
C521 C 0.81964 0.554 0.81105 0.0
C522 C 0.84709 0.55628 0.80048 0.0
C523 C 0.85102 0.55444 0.76999 0.0
C524 C 0.82751 0.54996 0.74888 0.0
C525 C 0.8314 0.54804 0.71786 0.0
C526 C 0.80726 0.54269 0.69753 0.0
C527 C 0.77951 0.54032 0.70708 0.0
C528 C 0.77559 0.54304 0.73807 0.0
C529 C 0.74859 0.54173 0.74866 0.0
C530 C 0.74463 0.54358 0.77925 0.0
C531 C 0.76793 0.54766 0.80037 0.0
C532 C 0.7957 0.54974 0.79016 0.0
C533 C 0.79954 0.54747 0.75902 0.0
C534 C 0.98677 0.57387 0.7206 0.0
C535 C 0.96401 0.55478 0.69547 0.0
O536 O 0.6667 0.54275 0.89899 0.0
O537 O 0.68592 0.52353 0.62073 0.0
O538 O 0.94954 0.56871 0.68292 0.0
O539 O 0.90355 0.5732 0.93431 0.0
H540 H 0.66183 0.5782 0.89307 0.0
H541 H 0.71667 0.59993 0.91298 0.0
H542 H 0.7027 0.57468 0.94472 0.0
H543 H 0.69393 0.60332 0.94094 0.0
H544 H 0.7061 0.58901 0.86288 0.0
H545 H 0.67317 0.49933 0.88894 0.0
H546 H 0.7806 0.60839 0.83835 0.0
H547 H 0.75141 0.61829 0.8338 0.0
H548 H 0.75587 0.59742 0.80545 0.0
H549 H 0.69225 0.4726 0.86513 0.0
H550 H 0.73406 0.49549 0.8727 0.0
H551 H 0.71988 0.48964 0.83453 0.0
H552 H 0.8747 0.53547 0.95999 0.0
H553 H 0.89944 0.55902 0.00812 0.0
H554 H 0.88621 0.57984 0.98717 0.0
H555 H 0.92778 0.59295 0.98853 0.0
H556 H 0.85795 0.52033 0.91325 0.0
H557 H 0.90349 0.61447 0.90332 0.0
H558 H 0.81384 0.50141 0.84632 0.0
H559 H 0.78862 0.50016 0.87495 0.0
H560 H 0.81462 0.48708 0.88341 0.0
H561 H 0.8871 0.6368 0.86716 0.0
H562 H 0.8447 0.61584 0.86187 0.0
H563 H 0.8694 0.61527 0.8338 0.0
H564 H 0.94665 0.53336 0.70659 0.0
H565 H 0.89726 0.51511 0.69277 0.0
H566 H 0.93555 0.60842 0.68546 0.0
H567 H 0.83145 0.49539 0.73425 0.0
H568 H 0.84468 0.48075 0.70625 0.0
H569 H 0.81731 0.49198 0.6963 0.0
H570 H 0.90463 0.62888 0.69302 0.0
H571 H 0.8784 0.61046 0.72432 0.0
H572 H 0.86264 0.60423 0.68681 0.0
H573 H 0.70696 0.55365 0.58613 0.0
H574 H 0.68429 0.58414 0.60171 0.0
H575 H 0.70868 0.58254 0.63067 0.0
H576 H 0.66652 0.55968 0.63394 0.0
H577 H 0.68061 0.48439 0.65947 0.0
H578 H 0.74558 0.57147 0.6238 0.0
H579 H 0.71009 0.4844 0.7238 0.0
H580 H 0.74016 0.48119 0.70645 0.0
H581 H 0.7001 0.46095 0.69208 0.0
H582 H 0.79143 0.60574 0.65055 0.0
H583 H 0.81176 0.58642 0.65337 0.0
H584 H 0.80015 0.59586 0.68696 0.0
H585 H 0.78512 0.55534 0.87558 0.0
H586 H 0.86591 0.5596 0.81567 0.0
H587 H 0.87271 0.55641 0.76321 0.0
H588 H 0.81038 0.54087 0.67382 0.0
H589 H 0.7301 0.53912 0.73344 0.0
H590 H 0.72316 0.54197 0.78615 0.0
H591 H 0.00104 0.56471 0.72889 0.0
H592 H 0.973 0.57401 0.73972 0.0
H593 H 0.00275 0.59714 0.71275 0.0
C594 C 0.085 0.65554 0.42378 0.0
C595 C 0.0806 0.63011 0.40453 0.0
C596 C 0.12716 0.66139 0.37197 0.0
C597 C 0.11696 0.67853 0.35732 0.0
C598 C 0.13833 0.70424 0.34077 0.0
C599 C 0.17009 0.71216 0.33787 0.0
C600 C 0.17971 0.69375 0.351 0.0
C601 C 0.15814 0.66872 0.36799 0.0
C602 C 0.12718 0.72318 0.32676 0.0
C603 C 0.21304 0.70085 0.34777 0.0
C604 C 0.30009 0.87354 0.45927 0.0
C605 C 0.32541 0.88049 0.43615 0.0
C606 C 0.29723 0.86102 0.38841 0.0
C607 C 0.30364 0.83903 0.38294 0.0
C608 C 0.28493 0.81635 0.36264 0.0
C609 C 0.25924 0.8156 0.34762 0.0
C610 C 0.25321 0.83815 0.3526 0.0
C611 C 0.27261 0.86081 0.37266 0.0
C612 C 0.29258 0.79312 0.35731 0.0
C613 C 0.22616 0.83816 0.33689 0.0
C614 C 0.339 0.87107 0.15639 0.0
C615 C 0.34142 0.84803 0.16921 0.0
C616 C 0.31592 0.82433 0.18464 0.0
C617 C 0.28724 0.8234 0.18689 0.0
C618 C 0.28448 0.84622 0.1734 0.0
C619 C 0.31041 0.86972 0.15812 0.0
C620 C 0.31942 0.79998 0.19814 0.0
C621 C 0.25408 0.84566 0.17503 0.0
C622 C 0.11449 0.62706 0.07223 0.0
C623 C 0.12268 0.65046 0.09437 0.0
C624 C 0.16101 0.67641 0.13493 0.0
C625 C 0.18533 0.67776 0.15236 0.0
C626 C 0.20256 0.70045 0.17298 0.0
C627 C 0.19494 0.72215 0.17642 0.0
C628 C 0.16998 0.72067 0.15924 0.0
C629 C 0.1533 0.69786 0.13858 0.0
C630 C 0.22925 0.70155 0.19072 0.0
C631 C 0.16124 0.74343 0.16247 0.0
C632 C 0.19373 0.74016 0.32217 0.0
C633 C 0.21363 0.76469 0.33983 0.0
C634 C 0.2384 0.79097 0.32711 0.0
C635 C 0.24352 0.79306 0.29576 0.0
C636 C 0.26861 0.81891 0.28226 0.0
C637 C 0.27385 0.82054 0.25147 0.0
C638 C 0.25417 0.7964 0.233 0.0
C639 C 0.25965 0.79759 0.2018 0.0
C640 C 0.23957 0.77323 0.18412 0.0
C641 C 0.21426 0.74732 0.19671 0.0
C642 C 0.20853 0.74552 0.2279 0.0
C643 C 0.18356 0.71961 0.24138 0.0
C644 C 0.17866 0.71778 0.27224 0.0
C645 C 0.19822 0.74196 0.29072 0.0
C646 C 0.22328 0.76848 0.27752 0.0
C647 C 0.22855 0.7702 0.2461 0.0
C648 C 0.40273 0.93717 0.16758 0.0
C649 C 0.39487 0.90939 0.15084 0.0
O650 O 0.10835 0.63768 0.39014 0.0
O651 O 0.14591 0.65431 0.11479 0.0
O652 O 0.36345 0.89442 0.14158 0.0
O653 O 0.31496 0.88331 0.40779 0.0
H654 H 0.06164 0.62421 0.38742 0.0
H655 H 0.06376 0.6478 0.43777 0.0
H656 H 0.106 0.66382 0.43883 0.0
H657 H 0.08809 0.67429 0.40966 0.0
H658 H 0.09253 0.67209 0.35893 0.0
H659 H 0.16559 0.65498 0.37887 0.0
H660 H 0.1422 0.74619 0.33485 0.0
H661 H 0.10211 0.71468 0.33207 0.0
H662 H 0.12965 0.72402 0.30197 0.0
H663 H 0.21542 0.68214 0.35539 0.0
H664 H 0.22928 0.72036 0.3615 0.0
H665 H 0.22067 0.70653 0.324 0.0
H666 H 0.3296 0.86206 0.43695 0.0
H667 H 0.30791 0.87101 0.48213 0.0
H668 H 0.27783 0.85248 0.45364 0.0
H669 H 0.29519 0.89151 0.45938 0.0
H670 H 0.32359 0.8398 0.39394 0.0
H671 H 0.26822 0.8782 0.37665 0.0
H672 H 0.29395 0.79057 0.33283 0.0
H673 H 0.27338 0.77153 0.36654 0.0
H674 H 0.31526 0.79854 0.36817 0.0
H675 H 0.22403 0.85679 0.34386 0.0
H676 H 0.20361 0.817 0.34179 0.0
H677 H 0.22961 0.83981 0.31219 0.0
H678 H 0.39933 0.89578 0.16706 0.0
H679 H 0.36291 0.8481 0.16666 0.0
H680 H 0.3086 0.88737 0.14774 0.0
H681 H 0.31375 0.79712 0.22245 0.0
H682 H 0.34368 0.80454 0.19552 0.0
H683 H 0.30238 0.77876 0.18715 0.0
H684 H 0.25601 0.86552 0.16415 0.0
H685 H 0.24739 0.84434 0.1989 0.0
H686 H 0.23474 0.82561 0.16385 0.0
H687 H 0.10204 0.64903 0.10522 0.0
H688 H 0.12887 0.65032 0.03109 0.0
H689 H 0.08912 0.60937 0.07698 0.0
H690 H 0.12421 0.6136 0.08147 0.0
H691 H 0.19108 0.66112 0.1494 0.0
H692 H 0.13448 0.69707 0.12527 0.0
H693 H 0.22453 0.7002 0.21514 0.0
H694 H 0.25167 0.72296 0.18623 0.0
H695 H 0.2325 0.68324 0.18509 0.0
H696 H 0.13977 0.738 0.14917 0.0
H697 H 0.18118 0.76543 0.15483 0.0
H698 H 0.15705 0.7452 0.18649 0.0
H699 H 0.21023 0.76308 0.36397 0.0
H700 H 0.2846 0.83813 0.29538 0.0
H701 H 0.29358 0.84094 0.24231 0.0
H702 H 0.24408 0.77425 0.16024 0.0
H703 H 0.1677 0.70035 0.22824 0.0
H704 H 0.15929 0.69716 0.28143 0.0
H705 H 0.39789 0.95169 0.1532 0.0
H706 H 0.42801 0.94981 0.17465 0.0
H707 H 0.38798 0.93073 0.18804 0.0
C708 C 0.41754 0.09539 0.64474 0.0
C709 C 0.43736 0.12287 0.62452 0.0
C710 C 0.45901 0.16474 0.65914 0.0
C711 C 0.48674 0.1876 0.67233 0.0
C712 C 0.48629 0.20807 0.69105 0.0
C713 C 0.45714 0.20519 0.69727 0.0
C714 C 0.42891 0.182 0.6842 0.0
C715 C 0.43013 0.16219 0.66508 0.0
C716 C 0.51702 0.23291 0.70397 0.0
C717 C 0.39738 0.17817 0.69038 0.0
C718 C 0.43106 0.38603 0.69289 0.0
C719 C 0.43509 0.37701 0.66177 0.0
C720 C 0.4554 0.34487 0.67531 0.0
C721 C 0.42667 0.31988 0.68492 0.0
C722 C 0.42589 0.29533 0.69822 0.0
C723 C 0.45442 0.29604 0.70244 0.0
C724 C 0.48322 0.3209 0.69218 0.0
C725 C 0.48322 0.34486 0.67853 0.0
C726 C 0.39468 0.26884 0.7083 0.0
C727 C 0.51409 0.32241 0.69624 0.0
C728 C 0.46285 0.33035 0.90586 0.0
C729 C 0.43503 0.30261 0.90155 0.0
C730 C 0.43412 0.28249 0.88136 0.0
C731 C 0.46177 0.29 0.86558 0.0
C732 C 0.48977 0.3181 0.86967 0.0
C733 C 0.48969 0.33816 0.88931 0.0
C734 C 0.40365 0.253 0.87723 0.0
C735 C 0.51996 0.32673 0.85385 0.0
C736 C 0.47497 0.10052 0.88716 0.0
C737 C 0.49308 0.12721 0.90762 0.0
C738 C 0.47262 0.1589 0.8955 0.0
C739 C 0.44306 0.1554 0.89134 0.0
C740 C 0.4396 0.17577 0.87382 0.0
C741 C 0.4666 0.20062 0.86078 0.0
C742 C 0.49671 0.20458 0.86532 0.0
C743 C 0.49943 0.18368 0.88268 0.0
C744 C 0.40716 0.1709 0.8695 0.0
C745 C 0.52608 0.23122 0.85229 0.0
C746 C 0.45627 0.22698 0.7166 0.0
C747 C 0.45483 0.24993 0.70237 0.0
C748 C 0.45454 0.27156 0.71898 0.0
C749 C 0.45575 0.27047 0.75075 0.0
C750 C 0.45562 0.29196 0.76813 0.0
C751 C 0.45707 0.29088 0.79936 0.0
C752 C 0.45935 0.26863 0.81445 0.0
C753 C 0.46174 0.26782 0.84617 0.0
C754 C 0.46399 0.24534 0.86036 0.0
C755 C 0.46365 0.22336 0.84385 0.0
C756 C 0.46108 0.22366 0.81214 0.0
C757 C 0.46033 0.2017 0.79485 0.0
C758 C 0.45843 0.20254 0.76359 0.0
C759 C 0.45734 0.22544 0.74841 0.0
C760 C 0.45733 0.24743 0.76549 0.0
C761 C 0.45922 0.24655 0.79738 0.0
C762 C 0.4587 0.3685 0.97228 0.0
C763 C 0.45005 0.34257 0.95348 0.0
O764 O 0.46134 0.14582 0.64109 0.0
O765 O 0.47448 0.13862 0.91298 0.0
O766 O 0.46454 0.35006 0.92561 0.0
O767 O 0.45771 0.36952 0.663 0.0
H768 H 0.42162 0.12979 0.61456 0.0
H769 H 0.40554 0.09995 0.66239 0.0
H770 H 0.43265 0.08844 0.65606 0.0
H771 H 0.39904 0.07678 0.63117 0.0
H772 H 0.50893 0.18953 0.66765 0.0
H773 H 0.40835 0.14482 0.65508 0.0
H774 H 0.51934 0.25449 0.69917 0.0
H775 H 0.53789 0.23369 0.69476 0.0
H776 H 0.51713 0.23 0.72876 0.0
H777 H 0.37726 0.15735 0.68106 0.0
H778 H 0.39682 0.1971 0.68021 0.0
H779 H 0.39414 0.17813 0.71499 0.0
H780 H 0.41213 0.35787 0.65382 0.0
H781 H 0.42277 0.36729 0.70924 0.0
H782 H 0.41323 0.39237 0.69186 0.0
H783 H 0.45391 0.40503 0.70118 0.0
H784 H 0.40484 0.31937 0.6823 0.0
H785 H 0.50521 0.36414 0.67083 0.0
H786 H 0.39176 0.24822 0.69971 0.0
H787 H 0.37428 0.27029 0.70049 0.0
H788 H 0.39435 0.26717 0.73323 0.0
H789 H 0.53459 0.34378 0.68795 0.0
H790 H 0.51303 0.30416 0.6839 0.0
H791 H 0.51803 0.31941 0.7204 0.0
H792 H 0.42423 0.32559 0.9526 0.0
H793 H 0.41383 0.29665 0.91355 0.0
H794 H 0.51098 0.35971 0.89262 0.0
H795 H 0.39876 0.24782 0.85298 0.0
H796 H 0.38315 0.25245 0.8871 0.0
H797 H 0.40592 0.23537 0.88838 0.0
H798 H 0.54045 0.348 0.86194 0.0
H799 H 0.51702 0.329 0.82933 0.0
H800 H 0.52533 0.30919 0.85729 0.0
H801 H 0.51528 0.14385 0.8961 0.0
H802 H 0.4895 0.09102 0.88264 0.0
H803 H 0.46944 0.10749 0.86533 0.0
H804 H 0.45243 0.08316 0.89772 0.0
H805 H 0.42259 0.13642 0.90169 0.0
H806 H 0.52265 0.18738 0.88689 0.0
H807 H 0.40236 0.17238 0.84522 0.0
H808 H 0.40622 0.18854 0.881 0.0
H809 H 0.38822 0.14908 0.87867 0.0
H810 H 0.54786 0.23139 0.85834 0.0
H811 H 0.52862 0.2518 0.86048 0.0
H812 H 0.5239 0.23149 0.82742 0.0
H813 H 0.45425 0.25115 0.678 0.0
H814 H 0.45438 0.30991 0.75781 0.0
H815 H 0.45669 0.30791 0.81153 0.0
H816 H 0.46605 0.24494 0.88469 0.0
H817 H 0.46132 0.18366 0.80531 0.0
H818 H 0.458 0.18509 0.75144 0.0
H819 H 0.48392 0.36462 0.00849 0.0
H820 H 0.43594 0.36763 0.9753 0.0
H821 H 0.46927 0.38841 0.95661 0.0
C822 C 0.04398 0.46551 0.08667 0.0
C823 C 0.04752 0.45498 0.05945 0.0
H824 H 0.04881 0.46566 0.13471 0.0
C825 C 0.05815 0.43539 0.06025 0.0
H826 H 0.03604 0.48079 0.08677 0.0
C827 C 0.0651 0.42648 0.08766 0.0
C828 C 0.0624 0.43761 0.11492 0.0
H829 H 0.061 0.42681 0.03964 0.0
H830 H 0.07271 0.41096 0.08739 0.0
C831 C 0.05154 0.45706 0.11406 0.0
C832 C 0.54809 0.02169 0.59245 0.0
C833 C 0.56539 0.03392 0.56591 0.0
H834 H 0.54912 0.01029 0.6389 0.0
C835 C 0.59765 0.04383 0.56596 0.0
H836 H 0.5232 0.014 0.59306 0.0
C837 C 0.61229 0.04122 0.59193 0.0
C838 C 0.59517 0.02944 0.61872 0.0
H839 H 0.61151 0.05318 0.54573 0.0
H840 H 0.637 0.04842 0.59091 0.0
C841 C 0.56292 0.01972 0.61866 0.0
C842 C 0.57346 0.60126 0.14599 0.0
C843 C 0.54991 0.58632 0.12387 0.0
H844 H 0.58975 0.63088 0.18312 0.0
C845 C 0.52497 0.5912 0.12168 0.0
H846 H 0.59306 0.59809 0.1481 0.0
C847 C 0.52302 0.60977 0.14167 0.0
C848 C 0.54616 0.62426 0.1642 0.0
H849 H 0.50616 0.57971 0.1053 0.0
H850 H 0.50288 0.61219 0.13999 0.0
C851 C 0.57168 0.62013 0.16588 0.0
C852 C 0.97552 0.51511 0.63214 0.0
C853 C 0.00724 0.53488 0.62427 0.0
H854 H 0.93751 0.50601 0.66092 0.0
C855 C 0.02491 0.56181 0.63928 0.0
H856 H 0.96137 0.49416 0.62096 0.0
C857 C 0.01122 0.56874 0.66196 0.0
C858 C 0.9798 0.54836 0.67081 0.0
H859 H 0.04924 0.57764 0.63319 0.0
H860 H 0.02546 0.58994 0.67258 0.0
C861 C 0.96197 0.52178 0.65515 0.0
C862 C 0.43795 0.94569 0.07734 0.0
C863 C 0.46279 0.94058 0.07882 0.0
H864 H 0.39679 0.93951 0.09869 0.0
C865 C 0.46271 0.92201 0.10192 0.0
H866 H 0.4372 0.9598 0.05979 0.0
C867 C 0.43983 0.91077 0.12435 0.0
C868 C 0.41628 0.91753 0.124 0.0
H869 H 0.48142 0.91755 0.10377 0.0
H870 H 0.4414 0.89783 0.14272 0.0
C871 C 0.41486 0.93418 0.09965 0.0
C872 C 0.43201 0.42952 0.60347 0.0
C873 C 0.46415 0.4491 0.59704 0.0
H874 H 0.39771 0.39108 0.62867 0.0
C875 C 0.48684 0.44598 0.61287 0.0
H876 H 0.41413 0.43156 0.5915 0.0
C877 C 0.47761 0.42323 0.63419 0.0
C878 C 0.44535 0.40251 0.63952 0.0
H879 H 0.5118 0.46115 0.6086 0.0
H880 H 0.49577 0.42158 0.64609 0.0
C881 C 0.42267 0.40633 0.62447 0.0
C882 C 0.52645 0.97074 0.39726 0.0
C883 C 0.55683 0.00773 0.40831 0.0
H884 H 0.51828 0.92685 0.36858 0.0
C885 C 0.59677 0.02595 0.39437 0.0
H886 H 0.50252 0.96099 0.40509 0.0
C887 C 0.60839 0.00684 0.37053 0.0
C888 C 0.57874 0.96652 0.36717 0.0
H889 H 0.6141 0.04839 0.40075 0.0
H890 H 0.63287 0.01657 0.36447 0.0
C891 C 0.53564 0.94976 0.3734 0.0
C892 C 0.59416 0.55201 0.95558 0.0
C893 C 0.59188 0.53197 0.97813 0.0
H894 H 0.61937 0.57853 0.91688 0.0
C895 C 0.61274 0.52198 0.97766 0.0
H896 H 0.57844 0.56014 0.9554 0.0
C897 C 0.63574 0.53215 0.95551 0.0
C898 C 0.63859 0.55271 0.93333 0.0
H899 H 0.61152 0.50641 0.99457 0.0
H900 H 0.65183 0.52442 0.95606 0.0
C901 C 0.61749 0.56247 0.93351 0.0
C902 C 0.03197 0.5567 0.44876 0.0
C903 C 0.05539 0.55717 0.46732 0.0
H904 H 0.02151 0.57945 0.4143 0.0
C905 C 0.0869 0.5809 0.46424 0.0
H906 H 0.00747 0.53878 0.45071 0.0
C907 C 0.09483 0.60384 0.44359 0.0
C908 C 0.07155 0.6037 0.42517 0.0
H909 H 0.10563 0.58207 0.4781 0.0
H910 H 0.11927 0.62207 0.44233 0.0
C911 C 0.03998 0.57989 0.42794 0.0
C912 C 0.4869 0.09417 0.98654 0.0
C913 C 0.51543 0.09502 0.98887 0.0
H914 H 0.45716 0.10318 0.95896 0.0
C915 C 0.53736 0.10832 0.96545 0.0
H916 H 0.46931 0.08358 0.00397 0.0
C917 C 0.53052 0.11964 0.93979 0.0
C918 C 0.50161 0.11801 0.93699 0.0
H919 H 0.55954 0.1093 0.96671 0.0
H920 H 0.54748 0.12896 0.9217 0.0
C921 C 0.47991 0.10529 0.96072 0.0
C922 C 0.42729 0.49028 0.43002 0.0
C923 C 0.45781 0.482 0.43396 0.0
H924 H 0.37849 0.47751 0.39938 0.0
C925 C 0.45673 0.45304 0.41305 0.0
H926 H 0.42791 0.50679 0.44397 0.0
C927 C 0.42589 0.43259 0.38556 0.0
C928 C 0.40077 0.44805 0.37673 0.0
H929 H 0.47469 0.44788 0.41701 0.0
H930 H 0.4266 0.41712 0.371 0.0
C931 C 0.39555 0.47121 0.40337 0.0
C932 C 0.95253 0.39351 0.91918 0.0
C933 C 0.98479 0.41152 0.91203 0.0
H934 H 0.90896 0.35191 0.91305 0.0
C935 C 0.99754 0.40095 0.89184 0.0
H936 H 0.94186 0.40107 0.93436 0.0
C937 C 0.97864 0.37288 0.87951 0.0
C938 C 0.94645 0.35485 0.88677 0.0
H939 H 0.02236 0.41405 0.88617 0.0
H940 H 0.98932 0.36506 0.86462 0.0
C941 C 0.9336 0.36549 0.90674 0.0
C942 C 0.93903 0.51284 0.98016 0.0
C943 C 0.96811 0.52958 0.96532 0.0
H944 H 0.89438 0.50765 0.98926 0.0
C945 C 0.9742 0.55434 0.94773 0.0
H946 H 0.93368 0.49367 0.9939 0.0
C947 C 0.95194 0.56249 0.94535 0.0
C948 C 0.92267 0.54561 0.95991 0.0
H949 H 0.99651 0.56789 0.93625 0.0
H950 H 0.95787 0.5822 0.93233 0.0
C951 C 0.9165 0.52072 0.97737 0.0
C952 C 0.40549 0.93377 0.47298 0.0
C953 C 0.41259 0.96137 0.46135 0.0
H954 H 0.37264 0.88677 0.47375 0.0
C955 C 0.39092 0.96245 0.44149 0.0
H956 H 0.42167 0.9322 0.48836 0.0
C957 C 0.36283 0.93651 0.43331 0.0
C958 C 0.35611 0.90879 0.44425 0.0
H959 H 0.39555 0.9834 0.43236 0.0
H960 H 0.34641 0.93816 0.41834 0.0
C961 C 0.37756 0.90777 0.46448 0.0
C962 C 0.51153 0.40393 0.99088 0.0
C963 C 0.48158 0.399 0.01664 0.0
H964 H 0.52377 0.37577 0.95454 0.0
C965 C 0.44758 0.36285 0.02579 0.0
H966 H 0.53225 0.42573 0.98693 0.0
C967 C 0.44106 0.33038 0.00773 0.0
C968 C 0.4676 0.33798 0.97558 0.0
H969 H 0.43066 0.3606 0.04202 0.0
H970 H 0.41934 0.30914 0.01101 0.0
C971 C 0.50726 0.37279 0.97165 0.0
C972 C 0.11541 0.45153 0.47751 0.0
C973 C 0.10464 0.47105 0.47712 0.0
H974 H 0.14711 0.44083 0.45867 0.0
C975 C 0.1174 0.49462 0.45603 0.0
H976 H 0.10592 0.43306 0.49336 0.0
C977 C 0.14072 0.49893 0.4362 0.0
C978 C 0.15171 0.47963 0.43669 0.0
H979 H 0.11015 0.51041 0.45544 0.0
H980 H 0.1507 0.51783 0.42084 0.0
C981 C 0.13874 0.45579 0.45751 0.0
C982 C 0.60061 0.0468 0.95423 0.0
C983 C 0.59175 0.01867 0.96595 0.0
H984 H 0.63644 0.08683 0.93267 0.0
C985 C 0.61101 0.00761 0.96011 0.0
H986 H 0.58608 0.05585 0.9577 0.0
C987 C 0.63992 0.02545 0.94539 0.0
C988 C 0.65039 0.05488 0.93692 0.0
H989 H 0.60468 0.98589 0.96841 0.0
H990 H 0.65475 0.01669 0.9422 0.0
C991 C 0.62958 0.06467 0.93994 0.0
C992 C 0.59267 0.65426 0.48909 0.0
C993 C 0.56395 0.62668 0.48834 0.0
H994 H 0.61544 0.70139 0.48836 0.0
C995 C 0.53543 0.62592 0.48671 0.0
H996 H 0.61501 0.65561 0.49092 0.0
C997 C 0.53571 0.65224 0.48521 0.0
C998 C 0.5645 0.67977 0.48526 0.0
H999 H 0.51295 0.60504 0.4859 0.0
H1000 H 0.51344 0.65109 0.48376 0.0
C1001 C 0.59294 0.68048 0.48767 0.0
C1002 C 0.48471 0.09808 0.58211 0.0
C1003 C 0.47397 0.09687 0.55238 0.0
H1004 H 0.4823 0.10796 0.62795 0.0
C1005 C 0.45262 0.10585 0.54615 0.0
H1006 H 0.50144 0.09162 0.58749 0.0
C1007 C 0.44138 0.11485 0.5693 0.0
C1008 C 0.4516 0.11548 0.59916 0.0
H1009 H 0.44373 0.10492 0.52352 0.0
H1010 H 0.42421 0.12077 0.56391 0.0
C1011 C 0.47385 0.10752 0.60521 0.0
C1012 C 0.43747 0.54791 0.05795 0.0
C1013 C 0.43681 0.51838 0.0388 0.0
H1014 H 0.40546 0.57127 0.06482 0.0
C1015 C 0.4069 0.49626 0.01125 0.0
H1016 H 0.45655 0.56135 0.07346 0.0
C1017 C 0.37475 0.50149 0.00341 0.0
C1018 C 0.37194 0.52624 0.02994 0.0
H1019 H 0.40806 0.47943 0.99956 0.0
H1020 H 0.35512 0.48647 0.98912 0.0
C1021 C 0.40661 0.55518 0.05169 0.0
C1022 C 0.92403 0.39979 0.59011 0.0
C1023 C 0.93889 0.40644 0.56209 0.0
H1024 H 0.89231 0.36596 0.62104 0.0
C1025 C 0.92963 0.38357 0.54175 0.0
H1026 H 0.93081 0.4171 0.60617 0.0
C1027 C 0.90791 0.35413 0.55049 0.0
C1028 C 0.89467 0.34728 0.5794 0.0
H1029 H 0.94104 0.38816 0.52015 0.0
H1030 H 0.90295 0.33662 0.53536 0.0
C1031 C 0.90195 0.37056 0.59859 0.0
C1032 C 0.63509 0.01174 0.14268 0.0
C1033 C 0.61145 0.99806 0.10863 0.0
H1034 H 0.66402 0.99905 0.18172 0.0
C1035 C 0.60622 0.96624 0.08946 0.0
H1036 H 0.63865 0.03131 0.15309 0.0
C1037 C 0.62254 0.94569 0.10505 0.0
C1038 C 0.63848 0.95578 0.14402 0.0
H1039 H 0.59274 0.95891 0.06874 0.0
H1040 H 0.61735 0.92532 0.09512 0.0
C1041 C 0.65235 0.99261 0.16001 0.0
C1042 C 0.59886 0.50421 0.57916 0.0
C1043 C 0.60041 0.51393 0.54925 0.0
H1044 H 0.62469 0.50526 0.61867 0.0
C1045 C 0.62965 0.52904 0.53468 0.0
H1046 H 0.57654 0.49292 0.59093 0.0
C1047 C 0.65739 0.5367 0.55074 0.0
C1048 C 0.65614 0.52892 0.58143 0.0
H1049 H 0.63141 0.53732 0.51182 0.0
H1050 H 0.67997 0.55052 0.53978 0.0
C1051 C 0.62641 0.51134 0.59503 0.0
C1052 C 0.08361 0.62182 0.02719 0.0
C1053 C 0.10983 0.60874 0.02169 0.0
H1054 H 0.08 0.6609 0.05422 0.0
C1055 C 0.15037 0.62895 0.03513 0.0
H1056 H 0.05984 0.60976 0.01805 0.0
C1057 C 0.16539 0.66191 0.05669 0.0
C1058 C 0.13473 0.66907 0.06877 0.0
H1059 H 0.16568 0.62095 0.03088 0.0
H1060 H 0.18867 0.67269 0.067 0.0
C1061 C 0.09641 0.65453 0.04848 0.0
loop_
_geom_bond_atom_site_label_1
_geom_bond_atom_site_label_2
_geom_bond_distance
_geom_bond_site_symmetry_2
_ccdc_geom_bond_type
Cu0 N1 1.999 1_554 S
Cu0 O6 1.974 1_554 S
Cu0 N11 1.985 . S
Cu0 O20 1.959 . S
N1 Cu0 1.999 1_556 S
N1 C3 1.263 1_455 S
N1 C5 1.389 1_456 S
N2 C3 1.358 . S
N2 C4 1.400 . S
C3 N1 1.263 1_655 S
C3 N2 1.358 . S
C3 H9 0.930 1_655 S
C4 N2 1.400 . S
C4 C5 1.351 1_556 S
C4 H21 0.930 . S
C5 N1 1.389 1_654 S
C5 C4 1.351 1_554 S
C5 H10 0.930 . S
O6 Cu0 1.974 1_556 S
O6 C16 1.282 . S
C7 O8 1.261 . S
C7 O20 1.251 . S
O8 C7 1.261 . S
H9 C3 0.930 1_455 S
H10 C5 0.930 . S
N11 Cu0 1.985 . S
N11 C13 1.335 . S
N11 C14 1.390 . S
N12 C13 1.345 . S
N12 C15 1.336 . S
C13 N11 1.335 . S
C13 N12 1.345 . S
C13 H18 0.930 . S
C14 N11 1.390 . S
C14 C15 1.346 . S
C14 H19 0.930 1_554 S
C15 N12 1.336 . S
C15 C14 1.346 . S
C15 H22 0.929 . S
C16 O6 1.282 . S
C16 O17 1.216 . S
O17 C16 1.216 . S
H18 C13 0.930 . S
H19 C14 0.930 1_556 S
O20 Cu0 1.959 . S
O20 C7 1.251 . S
H21 C4 0.930 . S
H22 C15 0.929 . S
Cu23 N24 1.999 . S
Cu23 O29 1.974 . S
Cu23 N34 1.985 1_565 S
Cu23 O43 1.959 1_565 S
N24 Cu23 1.999 . S
N24 C26 1.263 . S
N24 C28 1.389 . S
N25 C26 1.358 . S
N25 C27 1.400 . S
C26 N24 1.263 . S
C26 N25 1.358 . S
C26 H32 0.930 . S
C27 N25 1.400 . S
C27 C28 1.351 . S
C27 H44 0.930 . S
C28 N24 1.389 . S
C28 C27 1.351 . S
C28 H33 0.930 . S
O29 Cu23 1.974 . S
O29 C39 1.282 . S
C30 O31 1.261 . S
C30 O43 1.251 . S
O31 C30 1.261 . S
H32 C26 0.930 . S
H33 C28 0.930 . S
N34 Cu23 1.985 1_545 S
N34 C36 1.335 . S
N34 C37 1.390 . S
N35 C36 1.345 . S
N35 C38 1.336 . S
C36 N34 1.335 . S
C36 N35 1.345 . S
C36 H41 0.930 . S
C37 N34 1.390 . S
C37 C38 1.346 . S
C37 H42 0.930 . S
C38 N35 1.336 . S
C38 C37 1.346 . S
C38 H45 0.929 . S
C39 O29 1.282 . S
C39 O40 1.216 1_565 S
O40 C39 1.216 1_545 S
H41 C36 0.930 . S
H42 C37 0.930 . S
O43 Cu23 1.959 1_545 S
O43 C30 1.251 . S
H44 C27 0.930 . S
H45 C38 0.929 . S
Cu46 N47 1.999 1_554 S
Cu46 O52 1.974 1_554 S
Cu46 N57 1.985 . S
Cu46 O66 1.959 . S
N47 Cu46 1.999 1_556 S
N47 C49 1.263 . S
N47 C51 1.389 . S
N48 C49 1.358 . S
N48 C50 1.400 . S
C49 N47 1.263 . S
C49 N48 1.358 . S
C49 H55 0.930 . S
C50 N48 1.400 . S
C50 C51 1.351 . S
C50 H67 0.930 . S
C51 N47 1.389 . S
C51 C50 1.351 . S
C51 H56 0.930 . S
O52 Cu46 1.974 1_556 S
O52 C62 1.282 . S
C53 O54 1.261 . S
C53 O66 1.251 . S
O54 C53 1.261 . S
H55 C49 0.930 . S
H56 C51 0.930 . S
N57 Cu46 1.985 . S
N57 C59 1.335 . S
N57 C60 1.390 . S
N58 C59 1.345 . S
N58 C61 1.336 . S
C59 N57 1.335 . S
C59 N58 1.345 . S
C59 H64 0.930 . S
C60 N57 1.390 . S
C60 C61 1.346 . S
C60 H65 0.930 . S
C61 N58 1.336 . S
C61 C60 1.346 . S
C61 H68 0.929 . S
C62 O52 1.282 . S
C62 O63 1.216 1_556 S
O63 C62 1.216 1_554 S
H64 C59 0.930 . S
H65 C60 0.930 . S
O66 Cu46 1.959 . S
O66 C53 1.251 . S
H67 C50 0.930 . S
H68 C61 0.929 . S
Cu69 N70 1.999 1_655 S
Cu69 O75 1.974 1_655 S
Cu69 N80 1.985 . S
Cu69 O89 1.959 . S
N70 Cu69 1.999 1_455 S
N70 C72 1.263 . S
N70 C74 1.389 1_455 S
N71 C72 1.358 . S
N71 C73 1.400 . S
C72 N70 1.263 . S
C72 N71 1.358 . S
C72 H78 0.930 . S
C73 N71 1.400 . S
C73 C74 1.351 1_455 S
C73 H90 0.930 1_455 S
C74 N70 1.389 1_655 S
C74 C73 1.351 1_655 S
C74 H79 0.930 . S
O75 Cu69 1.974 1_455 S
O75 C85 1.282 . S
C76 O77 1.261 1_655 S
C76 O89 1.251 . S
O77 C76 1.261 1_455 S
H78 C72 0.930 . S
H79 C74 0.930 . S
N80 Cu69 1.985 . S
N80 C82 1.335 . S
N80 C83 1.390 . S
N81 C82 1.345 . S
N81 C84 1.336 . S
C82 N80 1.335 . S
C82 N81 1.345 . S
C82 H87 0.930 . S
C83 N80 1.390 . S
C83 C84 1.346 . S
C83 H88 0.930 1_655 S
C84 N81 1.336 . S
C84 C83 1.346 . S
C84 H91 0.929 . S
C85 O75 1.282 . S
C85 O86 1.216 . S
O86 C85 1.216 . S
H87 C82 0.930 . S
H88 C83 0.930 1_455 S
O89 Cu69 1.959 . S
O89 C76 1.251 . S
H90 C73 0.930 1_655 S
H91 C84 0.929 . S
Cu92 N93 1.999 . S
Cu92 O98 1.974 . S
Cu92 N103 1.973 1_545 S
Cu92 O112 1.959 . S
N93 Cu92 1.999 . S
N93 C95 1.263 1_554 S
N93 C97 1.389 . S
N94 C95 1.358 . S
N94 C96 1.400 1_556 S
C95 N93 1.263 1_556 S
C95 N94 1.358 . S
C95 H101 0.930 . S
C96 N94 1.400 1_554 S
C96 C97 1.351 . S
C96 H113 0.930 . S
C97 N93 1.389 . S
C97 C96 1.351 . S
C97 H102 0.930 . S
O98 Cu92 1.974 . S
O98 C108 1.282 1_554 S
C99 O100 1.261 . S
C99 O112 1.251 1_565 S
O100 C99 1.261 . S
H101 C95 0.930 . S
H102 C97 0.930 . S
N103 Cu92 1.973 1_565 S
N103 C105 1.340 . S
N103 C106 1.399 . S
N104 C105 1.345 . S
N104 C107 1.336 . S
C105 N103 1.340 . S
C105 N104 1.345 . S
C105 H110 0.930 . S
C106 N103 1.399 . S
C106 C107 1.346 . S
C106 H111 0.930 1_565 S
C107 N104 1.336 . S
C107 C106 1.346 . S
C107 H114 0.929 . S
C108 O98 1.282 1_556 S
C108 O109 1.216 . S
O109 C108 1.216 . S
H110 C105 0.930 . S
H111 C106 0.930 1_545 S
O112 Cu92 1.959 . S
O112 C99 1.251 1_545 S
H113 C96 0.930 . S
H114 C107 0.929 . S
Cu115 N116 1.999 . S
Cu115 O121 1.974 . S
Cu115 N126 1.985 . S
Cu115 O135 1.959 . S
N116 Cu115 1.999 . S
N116 C118 1.263 . S
N116 C120 1.389 . S
N117 C118 1.358 . S
N117 C119 1.400 . S
C118 N116 1.263 . S
C118 N117 1.358 . S
C118 H124 0.930 . S
C119 N117 1.400 . S
C119 C120 1.351 . S
C119 H136 0.930 . S
C120 N116 1.389 . S
C120 C119 1.351 . S
C120 H125 0.930 . S
O121 Cu115 1.974 . S
O121 C131 1.282 . S
C122 O123 1.261 . S
C122 O135 1.251 . S
O123 C122 1.261 . S
H124 C118 0.930 . S
H125 C120 0.930 . S
N126 Cu115 1.985 . S
N126 C128 1.335 . S
N126 C129 1.390 . S
N127 C128 1.345 . S
N127 C130 1.336 . S
C128 N126 1.335 . S
C128 N127 1.345 . S
C128 H133 0.930 . S
C129 N126 1.390 . S
C129 C130 1.346 . S
C129 H134 0.930 . S
C130 N127 1.336 . S
C130 C129 1.346 . S
C130 H137 0.929 . S
C131 O121 1.282 . S
C131 O132 1.216 . S
O132 C131 1.216 . S
H133 C128 0.930 . S
H134 C129 0.930 . S
O135 Cu115 1.959 . S
O135 C122 1.251 . S
H136 C119 0.930 . S
H137 C130 0.929 . S
C138 C139 1.560 . S
C138 H199 0.959 . S
C138 H200 0.959 . S
C138 H201 0.960 . S
C139 C138 1.560 . S
C139 O194 1.426 . S
C139 H198 0.980 . S
C140 C141 1.407 . S
C140 C145 1.418 . S
C140 O194 1.334 . S
C141 C140 1.407 . S
C141 C142 1.360 . S
C141 H202 0.929 . S
C142 C141 1.360 . S
C142 C143 1.401 . S
C142 C146 1.527 . S
C143 C142 1.401 . S
C143 C144 1.405 . S
C143 C176 1.587 . S
C144 C143 1.405 . S
C144 C145 1.332 . S
C144 C147 1.496 . S
C145 C140 1.418 . S
C145 C144 1.332 . S
C145 H203 0.929 . S
C146 C142 1.527 . S
C146 H204 0.959 . S
C146 H205 0.961 . S
C146 H206 0.961 . S
C147 C144 1.496 . S
C147 H207 0.960 . S
C147 H208 0.960 . S
C147 H209 0.961 . S
C148 C149 1.517 . S
C148 H211 0.961 . S
C148 H212 0.960 . S
C148 H213 0.959 . S
C149 C148 1.517 . S
C149 O197 1.468 . S
C149 H210 0.980 . S
C150 C151 1.349 . S
C150 C155 1.367 . S
C150 O197 1.408 . S
C151 C150 1.349 . S
C151 C152 1.407 . S
C151 H214 0.930 . S
C152 C151 1.407 . S
C152 C153 1.449 . S
C152 C156 1.535 . S
C153 C152 1.449 . S
C153 C154 1.384 . S
C153 C178 1.553 . S
C154 C153 1.384 . S
C154 C155 1.364 . S
C154 C157 1.450 . S
C155 C150 1.367 . S
C155 C154 1.364 . S
C155 H215 0.931 . S
C156 C152 1.535 . S
C156 H216 0.959 . S
C156 H217 0.961 . S
C156 H218 0.959 . S
C157 C154 1.450 . S
C157 H219 0.960 . S
C157 H220 0.960 . S
C157 H221 0.960 . S
C158 C159 1.309 . S
C158 C163 1.304 . S
C158 O196 1.435 . S
C159 C158 1.309 . S
C159 C160 1.476 . S
C159 H223 0.930 . S
C160 C159 1.476 . S
C160 C161 1.400 . S
C160 C164 1.567 . S
C161 C160 1.400 . S
C161 C162 1.373 . S
C161 C183 1.432 . S
C162 C161 1.373 . S
C162 C163 1.339 . S
C162 C165 1.530 . S
C163 C158 1.304 . S
C163 C162 1.339 . S
C163 H224 0.930 . S
C164 C160 1.567 . S
C164 H225 0.961 . S
C164 H226 0.960 . S
C164 H227 0.958 . S
C165 C162 1.530 . S
C165 H228 0.961 . S
C165 H229 0.960 . S
C165 H230 0.960 . S
C166 C167 1.530 . S
C166 H232 0.961 . S
C166 H233 0.961 . S
C166 H234 0.959 . S
C167 C166 1.530 . S
C167 O195 1.412 . S
C167 H231 0.980 . S
C168 C169 1.288 . S
C168 C173 1.377 . S
C168 O195 1.393 . S
C169 C168 1.288 . S
C169 C170 1.369 . S
C169 H235 0.932 . S
C170 C169 1.369 . S
C170 C171 1.398 . S
C170 C174 1.527 . S
C171 C170 1.398 . S
C171 C172 1.380 . S
C171 C185 1.497 . S
C172 C171 1.380 . S
C172 C173 1.383 . S
C172 C175 1.603 . S
C173 C168 1.377 . S
C173 C172 1.383 . S
C173 H236 0.929 . S
C174 C170 1.527 . S
C174 H237 0.961 . S
C174 H238 0.959 . S
C174 H239 0.959 . S
C175 C172 1.603 . S
C175 H240 0.960 . S
C175 H241 0.962 . S
C175 H242 0.961 . S
C176 C143 1.587 . S
C176 C177 1.360 . S
C176 C189 1.412 . S
C177 C176 1.360 . S
C177 C178 1.365 . S
C177 H243 0.929 . S
C178 C153 1.553 . S
C178 C177 1.365 . S
C178 C179 1.404 . S
C179 C178 1.404 . S
C179 C180 1.395 . S
C179 C190 1.451 . S
C180 C179 1.395 . S
C180 C181 1.322 . S
C180 H244 0.930 . S
C181 C180 1.322 . S
C181 C182 1.459 . S
C181 H245 0.929 . S
C182 C181 1.459 . S
C182 C183 1.445 . S
C182 C191 1.395 . S
C183 C161 1.432 . S
C183 C182 1.445 . S
C183 C184 1.370 . S
C184 C183 1.370 . S
C184 C185 1.438 . S
C184 H246 0.930 . S
C185 C171 1.497 . S
C185 C184 1.438 . S
C185 C186 1.360 . S
C186 C185 1.360 . S
C186 C187 1.401 . S
C186 C191 1.446 . S
C187 C186 1.401 . S
C187 C188 1.347 . S
C187 H247 0.929 . S
C188 C187 1.347 . S
C188 C189 1.455 . S
C188 H248 0.930 . S
C189 C176 1.412 . S
C189 C188 1.455 . S
C189 C190 1.331 . S
C190 C179 1.451 . S
C190 C189 1.331 . S
C190 C191 1.497 . S
C191 C182 1.395 . S
C191 C186 1.446 . S
C191 C190 1.497 . S
C192 C193 1.582 . S
C192 H249 0.962 . S
C192 H250 0.959 . S
C192 H251 0.958 . S
C193 C192 1.582 . S
C193 O196 1.458 . S
C193 H222 0.980 . S
O194 C139 1.426 . S
O194 C140 1.334 . S
O195 C167 1.412 . S
O195 C168 1.393 . S
O196 C158 1.435 . S
O196 C193 1.458 . S
O197 C149 1.468 . S
O197 C150 1.408 . S
H198 C139 0.980 . S
H199 C138 0.959 . S
H200 C138 0.959 . S
H201 C138 0.960 . S
H202 C141 0.929 . S
H203 C145 0.929 . S
H204 C146 0.959 . S
H205 C146 0.961 . S
H206 C146 0.961 . S
H207 C147 0.960 . S
H208 C147 0.960 . S
H209 C147 0.961 . S
H210 C149 0.980 . S
H211 C148 0.961 . S
H212 C148 0.960 . S
H213 C148 0.959 . S
H214 C151 0.930 . S
H215 C155 0.931 . S
H216 C156 0.959 . S
H217 C156 0.961 . S
H218 C156 0.959 . S
H219 C157 0.960 . S
H220 C157 0.960 . S
H221 C157 0.960 . S
H222 C193 0.980 . S
H223 C159 0.930 . S
H224 C163 0.930 . S
H225 C164 0.961 . S
H226 C164 0.960 . S
H227 C164 0.958 . S
H228 C165 0.961 . S
H229 C165 0.960 . S
H230 C165 0.960 . S
H231 C167 0.980 . S
H232 C166 0.961 . S
H233 C166 0.961 . S
H234 C166 0.959 . S
H235 C169 0.932 . S
H236 C173 0.929 . S
H237 C174 0.961 . S
H238 C174 0.959 . S
H239 C174 0.959 . S
H240 C175 0.960 . S
H241 C175 0.962 . S
H242 C175 0.961 . S
H243 C177 0.929 . S
H244 C180 0.930 . S
H245 C181 0.929 . S
H246 C184 0.930 . S
H247 C187 0.929 . S
H248 C188 0.930 . S
H249 C192 0.962 . S
H250 C192 0.959 . S
H251 C192 0.958 . S
C252 C253 1.560 . S
C252 H313 0.959 . S
C252 H314 0.959 . S
C252 H315 0.960 . S
C253 C252 1.560 . S
C253 O308 1.426 . S
C253 H312 0.980 . S
C254 C255 1.407 . S
C254 C259 1.418 . S
C254 O308 1.334 . S
C255 C254 1.407 . S
C255 C256 1.360 . S
C255 H316 0.929 . S
C256 C255 1.360 . S
C256 C257 1.401 . S
C256 C260 1.527 . S
C257 C256 1.401 . S
C257 C258 1.405 . S
C257 C290 1.587 . S
C258 C257 1.405 . S
C258 C259 1.332 . S
C258 C261 1.496 . S
C259 C254 1.418 . S
C259 C258 1.332 . S
C259 H317 0.929 . S
C260 C256 1.527 . S
C260 H318 0.959 . S
C260 H319 0.961 . S
C260 H320 0.961 . S
C261 C258 1.496 . S
C261 H321 0.960 . S
C261 H322 0.960 . S
C261 H323 0.961 . S
C262 C263 1.517 . S
C262 H325 0.961 . S
C262 H326 0.960 . S
C262 H327 0.959 . S
C263 C262 1.517 . S
C263 O311 1.468 . S
C263 H324 0.980 . S
C264 C265 1.349 . S
C264 C269 1.367 . S
C264 O311 1.408 . S
C265 C264 1.349 . S
C265 C266 1.407 . S
C265 H328 0.930 . S
C266 C265 1.407 . S
C266 C267 1.449 . S
C266 C270 1.535 . S
C267 C266 1.449 . S
C267 C268 1.384 . S
C267 C292 1.553 . S
C268 C267 1.384 . S
C268 C269 1.364 . S
C268 C271 1.450 . S
C269 C264 1.367 . S
C269 C268 1.364 . S
C269 H329 0.931 . S
C270 C266 1.535 . S
C270 H330 0.959 . S
C270 H331 0.961 . S
C270 H332 0.959 . S
C271 C268 1.450 . S
C271 H333 0.960 . S
C271 H334 0.960 . S
C271 H335 0.960 . S
C272 C273 1.309 . S
C272 C277 1.304 . S
C272 O310 1.435 . S
C273 C272 1.309 . S
C273 C274 1.476 . S
C273 H337 0.930 . S
C274 C273 1.476 . S
C274 C275 1.400 . S
C274 C278 1.567 . S
C275 C274 1.400 . S
C275 C276 1.373 . S
C275 C297 1.432 . S
C276 C275 1.373 . S
C276 C277 1.339 . S
C276 C279 1.530 . S
C277 C272 1.304 . S
C277 C276 1.339 . S
C277 H338 0.930 . S
C278 C274 1.567 . S
C278 H339 0.961 . S
C278 H340 0.960 . S
C278 H341 0.958 . S
C279 C276 1.530 . S
C279 H342 0.961 . S
C279 H343 0.960 . S
C279 H344 0.960 . S
C280 C281 1.530 . S
C280 H346 0.961 . S
C280 H347 0.961 . S
C280 H348 0.959 . S
C281 C280 1.530 . S
C281 O309 1.412 . S
C281 H345 0.980 . S
C282 C283 1.288 . S
C282 C287 1.377 . S
C282 O309 1.393 . S
C283 C282 1.288 . S
C283 C284 1.369 . S
C283 H349 0.932 . S
C284 C283 1.369 . S
C284 C285 1.398 . S
C284 C288 1.527 . S
C285 C284 1.398 . S
C285 C286 1.380 . S
C285 C299 1.497 . S
C286 C285 1.380 . S
C286 C287 1.383 . S
C286 C289 1.603 . S
C287 C282 1.377 . S
C287 C286 1.383 . S
C287 H350 0.929 . S
C288 C284 1.527 . S
C288 H351 0.961 . S
C288 H352 0.959 . S
C288 H353 0.959 . S
C289 C286 1.603 . S
C289 H354 0.960 . S
C289 H355 0.962 . S
C289 H356 0.961 . S
C290 C257 1.587 . S
C290 C291 1.360 . S
C290 C303 1.412 . S
C291 C290 1.360 . S
C291 C292 1.365 . S
C291 H357 0.929 . S
C292 C267 1.553 . S
C292 C291 1.365 . S
C292 C293 1.404 . S
C293 C292 1.404 . S
C293 C294 1.395 . S
C293 C304 1.451 . S
C294 C293 1.395 . S
C294 C295 1.322 . S
C294 H358 0.930 . S
C295 C294 1.322 . S
C295 C296 1.459 . S
C295 H359 0.929 . S
C296 C295 1.459 . S
C296 C297 1.445 . S
C296 C305 1.395 . S
C297 C275 1.432 . S
C297 C296 1.445 . S
C297 C298 1.370 . S
C298 C297 1.370 . S
C298 C299 1.438 . S
C298 H360 0.930 . S
C299 C285 1.497 . S
C299 C298 1.438 . S
C299 C300 1.360 . S
C300 C299 1.360 . S
C300 C301 1.401 . S
C300 C305 1.446 . S
C301 C300 1.401 . S
C301 C302 1.347 . S
C301 H361 0.929 . S
C302 C301 1.347 . S
C302 C303 1.455 . S
C302 H362 0.930 . S
C303 C290 1.412 . S
C303 C302 1.455 . S
C303 C304 1.331 . S
C304 C293 1.451 . S
C304 C303 1.331 . S
C304 C305 1.497 . S
C305 C296 1.395 . S
C305 C300 1.446 . S
C305 C304 1.497 . S
C306 C307 1.582 . S
C306 H363 0.962 . S
C306 H364 0.959 . S
C306 H365 0.958 . S
C307 C306 1.582 . S
C307 O310 1.458 . S
C307 H336 0.980 . S
O308 C253 1.426 . S
O308 C254 1.334 . S
O309 C281 1.412 . S
O309 C282 1.393 . S
O310 C272 1.435 . S
O310 C307 1.458 . S
O311 C263 1.468 . S
O311 C264 1.408 . S
H312 C253 0.980 . S
H313 C252 0.959 . S
H314 C252 0.959 . S
H315 C252 0.960 . S
H316 C255 0.929 . S
H317 C259 0.929 . S
H318 C260 0.959 . S
H319 C260 0.961 . S
H320 C260 0.961 . S
H321 C261 0.960 . S
H322 C261 0.960 . S
H323 C261 0.961 . S
H324 C263 0.980 . S
H325 C262 0.961 . S
H326 C262 0.960 . S
H327 C262 0.959 . S
H328 C265 0.930 . S
H329 C269 0.931 . S
H330 C270 0.959 . S
H331 C270 0.961 . S
H332 C270 0.959 . S
H333 C271 0.960 . S
H334 C271 0.960 . S
H335 C271 0.960 . S
H336 C307 0.980 . S
H337 C273 0.930 . S
H338 C277 0.930 . S
H339 C278 0.961 . S
H340 C278 0.960 . S
H341 C278 0.958 . S
H342 C279 0.961 . S
H343 C279 0.960 . S
H344 C279 0.960 . S
H345 C281 0.980 . S
H346 C280 0.961 . S
H347 C280 0.961 . S
H348 C280 0.959 . S
H349 C283 0.932 . S
H350 C287 0.929 . S
H351 C288 0.961 . S
H352 C288 0.959 . S
H353 C288 0.959 . S
H354 C289 0.960 . S
H355 C289 0.962 . S
H356 C289 0.961 . S
H357 C291 0.929 . S
H358 C294 0.930 . S
H359 C295 0.929 . S
H360 C298 0.930 . S
H361 C301 0.929 . S
H362 C302 0.930 . S
H363 C306 0.962 . S
H364 C306 0.959 . S
H365 C306 0.958 . S
C366 C367 1.560 . S
C366 H427 0.959 . S
C366 H428 0.959 . S
C366 H429 0.960 . S
C367 C366 1.560 . S
C367 O422 1.426 . S
C367 H426 0.980 . S
C368 C369 1.407 . S
C368 C373 1.418 . S
C368 O422 1.334 . S
C369 C368 1.407 . S
C369 C370 1.360 . S
C369 H430 0.929 . S
C370 C369 1.360 . S
C370 C371 1.401 . S
C370 C374 1.527 . S
C371 C370 1.401 . S
C371 C372 1.405 . S
C371 C404 1.587 . S
C372 C371 1.405 . S
C372 C373 1.332 . S
C372 C375 1.496 . S
C373 C368 1.418 . S
C373 C372 1.332 . S
C373 H431 0.929 . S
C374 C370 1.527 . S
C374 H432 0.959 . S
C374 H433 0.961 . S
C374 H434 0.961 . S
C375 C372 1.496 . S
C375 H435 0.960 . S
C375 H436 0.960 . S
C375 H437 0.961 . S
C376 C377 1.517 . S
C376 H439 0.961 . S
C376 H440 0.960 . S
C376 H441 0.959 . S
C377 C376 1.517 . S
C377 O425 1.468 . S
C377 H438 0.980 . S
C378 C379 1.349 . S
C378 C383 1.367 . S
C378 O425 1.408 . S
C379 C378 1.349 . S
C379 C380 1.407 . S
C379 H442 0.930 . S
C380 C379 1.407 . S
C380 C381 1.449 . S
C380 C384 1.535 . S
C381 C380 1.449 . S
C381 C382 1.384 . S
C381 C406 1.553 . S
C382 C381 1.384 . S
C382 C383 1.364 . S
C382 C385 1.450 . S
C383 C378 1.367 . S
C383 C382 1.364 . S
C383 H443 0.931 . S
C384 C380 1.535 . S
C384 H444 0.959 . S
C384 H445 0.961 . S
C384 H446 0.959 . S
C385 C382 1.450 . S
C385 H447 0.960 . S
C385 H448 0.960 . S
C385 H449 0.960 . S
C386 C387 1.309 . S
C386 C391 1.304 . S
C386 O424 1.435 . S
C387 C386 1.309 . S
C387 C388 1.476 . S
C387 H451 0.930 . S
C388 C387 1.476 . S
C388 C389 1.400 . S
C388 C392 1.567 . S
C389 C388 1.400 . S
C389 C390 1.373 . S
C389 C411 1.432 . S
C390 C389 1.373 . S
C390 C391 1.339 . S
C390 C393 1.530 . S
C391 C386 1.304 . S
C391 C390 1.339 . S
C391 H452 0.930 . S
C392 C388 1.567 . S
C392 H453 0.961 . S
C392 H454 0.960 . S
C392 H455 0.958 . S
C393 C390 1.530 . S
C393 H456 0.961 . S
C393 H457 0.960 . S
C393 H458 0.960 . S
C394 C395 1.530 . S
C394 H460 0.961 . S
C394 H461 0.961 . S
C394 H462 0.959 . S
C395 C394 1.530 . S
C395 O423 1.412 . S
C395 H459 0.980 . S
C396 C397 1.288 . S
C396 C401 1.377 . S
C396 O423 1.393 . S
C397 C396 1.288 . S
C397 C398 1.369 . S
C397 H463 0.932 . S
C398 C397 1.369 . S
C398 C399 1.398 . S
C398 C402 1.527 . S
C399 C398 1.398 . S
C399 C400 1.380 . S
C399 C413 1.497 . S
C400 C399 1.380 . S
C400 C401 1.383 . S
C400 C403 1.603 . S
C401 C396 1.377 . S
C401 C400 1.383 . S
C401 H464 0.929 . S
C402 C398 1.527 . S
C402 H465 0.961 . S
C402 H466 0.959 . S
C402 H467 0.959 . S
C403 C400 1.603 . S
C403 H468 0.960 . S
C403 H469 0.962 . S
C403 H470 0.961 . S
C404 C371 1.587 . S
C404 C405 1.360 . S
C404 C417 1.412 . S
C405 C404 1.360 . S
C405 C406 1.365 . S
C405 H471 0.929 . S
C406 C381 1.553 . S
C406 C405 1.365 . S
C406 C407 1.404 . S
C407 C406 1.404 . S
C407 C408 1.395 . S
C407 C418 1.451 . S
C408 C407 1.395 . S
C408 C409 1.322 . S
C408 H472 0.930 . S
C409 C408 1.322 . S
C409 C410 1.459 . S
C409 H473 0.929 . S
C410 C409 1.459 . S
C410 C411 1.445 . S
C410 C419 1.395 . S
C411 C389 1.432 . S
C411 C410 1.445 . S
C411 C412 1.370 . S
C412 C411 1.370 . S
C412 C413 1.438 . S
C412 H474 0.930 . S
C413 C399 1.497 . S
C413 C412 1.438 . S
C413 C414 1.360 . S
C414 C413 1.360 . S
C414 C415 1.401 . S
C414 C419 1.446 . S
C415 C414 1.401 . S
C415 C416 1.347 . S
C415 H475 0.929 . S
C416 C415 1.347 . S
C416 C417 1.455 . S
C416 H476 0.930 . S
C417 C404 1.412 . S
C417 C416 1.455 . S
C417 C418 1.331 . S
C418 C407 1.451 . S
C418 C417 1.331 . S
C418 C419 1.497 . S
C419 C410 1.395 . S
C419 C414 1.446 . S
C419 C418 1.497 . S
C420 C421 1.582 . S
C420 H477 0.962 . S
C420 H478 0.959 . S
C420 H479 0.958 . S
C421 C420 1.582 . S
C421 O424 1.458 . S
C421 H450 0.980 . S
O422 C367 1.426 . S
O422 C368 1.334 . S
O423 C395 1.412 . S
O423 C396 1.393 . S
O424 C386 1.435 . S
O424 C421 1.458 . S
O425 C377 1.468 . S
O425 C378 1.408 . S
H426 C367 0.980 . S
H427 C366 0.959 . S
H428 C366 0.959 . S
H429 C366 0.960 . S
H430 C369 0.929 . S
H431 C373 0.929 . S
H432 C374 0.959 . S
H433 C374 0.961 . S
H434 C374 0.961 . S
H435 C375 0.960 . S
H436 C375 0.960 . S
H437 C375 0.961 . S
H438 C377 0.980 . S
H439 C376 0.961 . S
H440 C376 0.960 . S
H441 C376 0.959 . S
H442 C379 0.930 . S
H443 C383 0.931 . S
H444 C384 0.959 . S
H445 C384 0.961 . S
H446 C384 0.959 . S
H447 C385 0.960 . S
H448 C385 0.960 . S
H449 C385 0.960 . S
H450 C421 0.980 . S
H451 C387 0.930 . S
H452 C391 0.930 . S
H453 C392 0.961 . S
H454 C392 0.960 . S
H455 C392 0.958 . S
H456 C393 0.961 . S
H457 C393 0.960 . S
H458 C393 0.960 . S
H459 C395 0.980 . S
H460 C394 0.961 . S
H461 C394 0.961 . S
H462 C394 0.959 . S
H463 C397 0.932 . S
H464 C401 0.929 . S
H465 C402 0.961 . S
H466 C402 0.959 . S
H467 C402 0.959 . S
H468 C403 0.960 . S
H469 C403 0.962 . S
H470 C403 0.961 . S
H471 C405 0.929 . S
H472 C408 0.930 . S
H473 C409 0.929 . S
H474 C412 0.930 . S
H475 C415 0.929 . S
H476 C416 0.930 . S
H477 C420 0.962 . S
H478 C420 0.959 . S
H479 C420 0.958 . S
C480 C481 1.560 . S
C480 H541 0.959 . S
C480 H542 0.959 . S
C480 H543 0.960 . S
C481 C480 1.560 . S
C481 O536 1.426 . S
C481 H540 0.980 . S
C482 C483 1.407 . S
C482 C487 1.418 . S
C482 O536 1.334 . S
C483 C482 1.407 . S
C483 C484 1.360 . S
C483 H544 0.929 . S
C484 C483 1.360 . S
C484 C485 1.401 . S
C484 C488 1.527 . S
C485 C484 1.401 . S
C485 C486 1.405 . S
C485 C518 1.587 . S
C486 C485 1.405 . S
C486 C487 1.332 . S
C486 C489 1.496 . S
C487 C482 1.418 . S
C487 C486 1.332 . S
C487 H545 0.929 . S
C488 C484 1.527 . S
C488 H546 0.959 . S
C488 H547 0.961 . S
C488 H548 0.961 . S
C489 C486 1.496 . S
C489 H549 0.960 . S
C489 H550 0.960 . S
C489 H551 0.961 . S
C490 C491 1.517 . S
C490 H553 0.961 . S
C490 H554 0.960 . S
C490 H555 0.959 1_655 S
C491 C490 1.517 . S
C491 O539 1.468 . S
C491 H552 0.980 . S
C492 C493 1.349 . S
C492 C497 1.367 . S
C492 O539 1.408 . S
C493 C492 1.349 . S
C493 C494 1.407 . S
C493 H556 0.930 . S
C494 C493 1.407 . S
C494 C495 1.449 . S
C494 C498 1.535 . S
C495 C494 1.449 . S
C495 C496 1.384 . S
C495 C520 1.553 . S
C496 C495 1.384 . S
C496 C497 1.364 . S
C496 C499 1.450 . S
C497 C492 1.367 . S
C497 C496 1.364 . S
C497 H557 0.931 . S
C498 C494 1.535 . S
C498 H558 0.959 . S
C498 H559 0.961 . S
C498 H560 0.959 . S
C499 C496 1.450 . S
C499 H561 0.960 . S
C499 H562 0.960 . S
C499 H563 0.960 . S
C500 C501 1.309 . S
C500 C505 1.304 . S
C500 O538 1.435 . S
C501 C500 1.309 . S
C501 C502 1.476 . S
C501 H565 0.930 . S
C502 C501 1.476 . S
C502 C503 1.400 . S
C502 C506 1.567 . S
C503 C502 1.400 . S
C503 C504 1.373 . S
C503 C525 1.432 . S
C504 C503 1.373 . S
C504 C505 1.339 . S
C504 C507 1.530 . S
C505 C500 1.304 . S
C505 C504 1.339 . S
C505 H566 0.930 . S
C506 C502 1.567 . S
C506 H567 0.961 . S
C506 H568 0.960 . S
C506 H569 0.958 . S
C507 C504 1.530 . S
C507 H570 0.961 . S
C507 H571 0.960 . S
C507 H572 0.960 . S
C508 C509 1.530 . S
C508 H574 0.961 . S
C508 H575 0.961 . S
C508 H576 0.959 . S
C509 C508 1.530 . S
C509 O537 1.412 . S
C509 H573 0.980 . S
C510 C511 1.288 . S
C510 C515 1.377 . S
C510 O537 1.393 . S
C511 C510 1.288 . S
C511 C512 1.369 . S
C511 H577 0.932 . S
C512 C511 1.369 . S
C512 C513 1.398 . S
C512 C516 1.527 . S
C513 C512 1.398 . S
C513 C514 1.380 . S
C513 C527 1.497 . S
C514 C513 1.380 . S
C514 C515 1.383 . S
C514 C517 1.603 . S
C515 C510 1.377 . S
C515 C514 1.383 . S
C515 H578 0.929 . S
C516 C512 1.527 . S
C516 H579 0.961 . S
C516 H580 0.959 . S
C516 H581 0.959 . S
C517 C514 1.603 . S
C517 H582 0.960 . S
C517 H583 0.962 . S
C517 H584 0.961 . S
C518 C485 1.587 . S
C518 C519 1.360 . S
C518 C531 1.412 . S
C519 C518 1.360 . S
C519 C520 1.365 . S
C519 H585 0.929 . S
C520 C495 1.553 . S
C520 C519 1.365 . S
C520 C521 1.404 . S
C521 C520 1.404 . S
C521 C522 1.395 . S
C521 C532 1.451 . S
C522 C521 1.395 . S
C522 C523 1.322 . S
C522 H586 0.930 . S
C523 C522 1.322 . S
C523 C524 1.459 . S
C523 H587 0.929 . S
C524 C523 1.459 . S
C524 C525 1.445 . S
C524 C533 1.395 . S
C525 C503 1.432 . S
C525 C524 1.445 . S
C525 C526 1.370 . S
C526 C525 1.370 . S
C526 C527 1.438 . S
C526 H588 0.930 . S
C527 C513 1.497 . S
C527 C526 1.438 . S
C527 C528 1.360 . S
C528 C527 1.360 . S
C528 C529 1.401 . S
C528 C533 1.446 . S
C529 C528 1.401 . S
C529 C530 1.347 . S
C529 H589 0.929 . S
C530 C529 1.347 . S
C530 C531 1.455 . S
C530 H590 0.930 . S
C531 C518 1.412 . S
C531 C530 1.455 . S
C531 C532 1.331 . S
C532 C521 1.451 . S
C532 C531 1.331 . S
C532 C533 1.497 . S
C533 C524 1.395 . S
C533 C528 1.446 . S
C533 C532 1.497 . S
C534 C535 1.582 . S
C534 H591 0.962 . S
C534 H592 0.959 . S
C534 H593 0.958 . S
C535 C534 1.582 . S
C535 O538 1.458 . S
C535 H564 0.980 . S
O536 C481 1.426 . S
O536 C482 1.334 . S
O537 C509 1.412 . S
O537 C510 1.393 . S
O538 C500 1.435 . S
O538 C535 1.458 . S
O539 C491 1.468 . S
O539 C492 1.408 . S
H540 C481 0.980 . S
H541 C480 0.959 . S
H542 C480 0.959 . S
H543 C480 0.960 . S
H544 C483 0.929 . S
H545 C487 0.929 . S
H546 C488 0.959 . S
H547 C488 0.961 . S
H548 C488 0.961 . S
H549 C489 0.960 . S
H550 C489 0.960 . S
H551 C489 0.961 . S
H552 C491 0.980 . S
H553 C490 0.961 . S
H554 C490 0.960 . S
H555 C490 0.959 1_455 S
H556 C493 0.930 . S
H557 C497 0.931 . S
H558 C498 0.959 . S
H559 C498 0.961 . S
H560 C498 0.959 . S
H561 C499 0.960 . S
H562 C499 0.960 . S
H563 C499 0.960 . S
H564 C535 0.980 . S
H565 C501 0.930 . S
H566 C505 0.930 . S
H567 C506 0.961 . S
H568 C506 0.960 . S
H569 C506 0.958 . S
H570 C507 0.961 . S
H571 C507 0.960 . S
H572 C507 0.960 . S
H573 C509 0.980 . S
H574 C508 0.961 . S
H575 C508 0.961 . S
H576 C508 0.959 . S
H577 C511 0.932 . S
H578 C515 0.929 . S
H579 C516 0.961 . S
H580 C516 0.959 . S
H581 C516 0.959 . S
H582 C517 0.960 . S
H583 C517 0.962 . S
H584 C517 0.961 . S
H585 C519 0.929 . S
H586 C522 0.930 . S
H587 C523 0.929 . S
H588 C526 0.930 . S
H589 C529 0.929 . S
H590 C530 0.930 . S
H591 C534 0.962 . S
H592 C534 0.959 . S
H593 C534 0.958 . S
C594 C595 1.560 . S
C594 H655 0.959 . S
C594 H656 0.959 . S
C594 H657 0.960 . S
C595 C594 1.560 . S
C595 O650 1.426 . S
C595 H654 0.980 . S
C596 C597 1.407 . S
C596 C601 1.418 . S
C596 O650 1.334 . S
C597 C596 1.407 . S
C597 C598 1.360 . S
C597 H658 0.929 . S
C598 C597 1.360 . S
C598 C599 1.401 . S
C598 C602 1.527 . S
C599 C598 1.401 . S
C599 C600 1.405 . S
C599 C632 1.587 . S
C600 C599 1.405 . S
C600 C601 1.332 . S
C600 C603 1.496 . S
C601 C596 1.418 . S
C601 C600 1.332 . S
C601 H659 0.929 . S
C602 C598 1.527 . S
C602 H660 0.959 . S
C602 H661 0.961 . S
C602 H662 0.961 . S
C603 C600 1.496 . S
C603 H663 0.960 . S
C603 H664 0.960 . S
C603 H665 0.961 . S
C604 C605 1.517 . S
C604 H667 0.961 . S
C604 H668 0.960 . S
C604 H669 0.959 . S
C605 C604 1.517 . S
C605 O653 1.468 . S
C605 H666 0.980 . S
C606 C607 1.349 . S
C606 C611 1.367 . S
C606 O653 1.408 . S
C607 C606 1.349 . S
C607 C608 1.407 . S
C607 H670 0.930 . S
C608 C607 1.407 . S
C608 C609 1.449 . S
C608 C612 1.535 . S
C609 C608 1.449 . S
C609 C610 1.384 . S
C609 C634 1.553 . S
C610 C609 1.384 . S
C610 C611 1.364 . S
C610 C613 1.450 . S
C611 C606 1.367 . S
C611 C610 1.364 . S
C611 H671 0.931 . S
C612 C608 1.535 . S
C612 H672 0.959 . S
C612 H673 0.961 . S
C612 H674 0.959 . S
C613 C610 1.450 . S
C613 H675 0.960 . S
C613 H676 0.960 . S
C613 H677 0.960 . S
C614 C615 1.309 . S
C614 C619 1.304 . S
C614 O652 1.435 . S
C615 C614 1.309 . S
C615 C616 1.476 . S
C615 H679 0.930 . S
C616 C615 1.476 . S
C616 C617 1.400 . S
C616 C620 1.567 . S
C617 C616 1.400 . S
C617 C618 1.373 . S
C617 C639 1.432 . S
C618 C617 1.373 . S
C618 C619 1.339 . S
C618 C621 1.530 . S
C619 C614 1.304 . S
C619 C618 1.339 . S
C619 H680 0.930 . S
C620 C616 1.567 . S
C620 H681 0.961 . S
C620 H682 0.960 . S
C620 H683 0.958 . S
C621 C618 1.530 . S
C621 H684 0.961 . S
C621 H685 0.960 . S
C621 H686 0.960 . S
C622 C623 1.530 . S
C622 H688 0.961 . S
C622 H689 0.961 . S
C622 H690 0.959 . S
C623 C622 1.530 . S
C623 O651 1.412 . S
C623 H687 0.980 . S
C624 C625 1.288 . S
C624 C629 1.377 . S
C624 O651 1.393 . S
C625 C624 1.288 . S
C625 C626 1.369 . S
C625 H691 0.932 . S
C626 C625 1.369 . S
C626 C627 1.398 . S
C626 C630 1.527 . S
C627 C626 1.398 . S
C627 C628 1.380 . S
C627 C641 1.497 . S
C628 C627 1.380 . S
C628 C629 1.383 . S
C628 C631 1.603 . S
C629 C624 1.377 . S
C629 C628 1.383 . S
C629 H692 0.929 . S
C630 C626 1.527 . S
C630 H693 0.961 . S
C630 H694 0.959 . S
C630 H695 0.959 . S
C631 C628 1.603 . S
C631 H696 0.960 . S
C631 H697 0.962 . S
C631 H698 0.961 . S
C632 C599 1.587 . S
C632 C633 1.360 . S
C632 C645 1.412 . S
C633 C632 1.360 . S
C633 C634 1.365 . S
C633 H699 0.929 . S
C634 C609 1.553 . S
C634 C633 1.365 . S
C634 C635 1.404 . S
C635 C634 1.404 . S
C635 C636 1.395 . S
C635 C646 1.451 . S
C636 C635 1.395 . S
C636 C637 1.322 . S
C636 H700 0.930 . S
C637 C636 1.322 . S
C637 C638 1.459 . S
C637 H701 0.929 . S
C638 C637 1.459 . S
C638 C639 1.445 . S
C638 C647 1.395 . S
C639 C617 1.432 . S
C639 C638 1.445 . S
C639 C640 1.370 . S
C640 C639 1.370 . S
C640 C641 1.438 . S
C640 H702 0.930 . S
C641 C627 1.497 . S
C641 C640 1.438 . S
C641 C642 1.360 . S
C642 C641 1.360 . S
C642 C643 1.401 . S
C642 C647 1.446 . S
C643 C642 1.401 . S
C643 C644 1.347 . S
C643 H703 0.929 . S
C644 C643 1.347 . S
C644 C645 1.455 . S
C644 H704 0.930 . S
C645 C632 1.412 . S
C645 C644 1.455 . S
C645 C646 1.331 . S
C646 C635 1.451 . S
C646 C645 1.331 . S
C646 C647 1.497 . S
C647 C638 1.395 . S
C647 C642 1.446 . S
C647 C646 1.497 . S
C648 C649 1.582 . S
C648 H705 0.962 . S
C648 H706 0.959 . S
C648 H707 0.958 . S
C649 C648 1.582 . S
C649 O652 1.458 . S
C649 H678 0.980 . S
O650 C595 1.426 . S
O650 C596 1.334 . S
O651 C623 1.412 . S
O651 C624 1.393 . S
O652 C614 1.435 . S
O652 C649 1.458 . S
O653 C605 1.468 . S
O653 C606 1.408 . S
H654 C595 0.980 . S
H655 C594 0.959 . S
H656 C594 0.959 . S
H657 C594 0.960 . S
H658 C597 0.929 . S
H659 C601 0.929 . S
H660 C602 0.959 . S
H661 C602 0.961 . S
H662 C602 0.961 . S
H663 C603 0.960 . S
H664 C603 0.960 . S
H665 C603 0.961 . S
H666 C605 0.980 . S
H667 C604 0.961 . S
H668 C604 0.960 . S
H669 C604 0.959 . S
H670 C607 0.930 . S
H671 C611 0.931 . S
H672 C612 0.959 . S
H673 C612 0.961 . S
H674 C612 0.959 . S
H675 C613 0.960 . S
H676 C613 0.960 . S
H677 C613 0.960 . S
H678 C649 0.980 . S
H679 C615 0.930 . S
H680 C619 0.930 . S
H681 C620 0.961 . S
H682 C620 0.960 . S
H683 C620 0.958 . S
H684 C621 0.961 . S
H685 C621 0.960 . S
H686 C621 0.960 . S
H687 C623 0.980 . S
H688 C622 0.961 . S
H689 C622 0.961 . S
H690 C622 0.959 . S
H691 C625 0.932 . S
H692 C629 0.929 . S
H693 C630 0.961 . S
H694 C630 0.959 . S
H695 C630 0.959 . S
H696 C631 0.960 . S
H697 C631 0.962 . S
H698 C631 0.961 . S
H699 C633 0.929 . S
H700 C636 0.930 . S
H701 C637 0.929 . S
H702 C640 0.930 . S
H703 C643 0.929 . S
H704 C644 0.930 . S
H705 C648 0.962 . S
H706 C648 0.959 . S
H707 C648 0.958 . S
C708 C709 1.560 . S
C708 H769 0.959 . S
C708 H770 0.959 . S
C708 H771 0.960 . S
C709 C708 1.560 . S
C709 O764 1.426 . S
C709 H768 0.980 . S
C710 C711 1.407 . S
C710 C715 1.418 . S
C710 O764 1.334 . S
C711 C710 1.407 . S
C711 C712 1.360 . S
C711 H772 0.929 . S
C712 C711 1.360 . S
C712 C713 1.401 . S
C712 C716 1.527 . S
C713 C712 1.401 . S
C713 C714 1.405 . S
C713 C746 1.587 . S
C714 C713 1.405 . S
C714 C715 1.332 . S
C714 C717 1.496 . S
C715 C710 1.418 . S
C715 C714 1.332 . S
C715 H773 0.929 . S
C716 C712 1.527 . S
C716 H774 0.959 . S
C716 H775 0.961 . S
C716 H776 0.961 . S
C717 C714 1.496 . S
C717 H777 0.960 . S
C717 H778 0.960 . S
C717 H779 0.961 . S
C718 C719 1.517 . S
C718 H781 0.961 . S
C718 H782 0.960 . S
C718 H783 0.959 . S
C719 C718 1.517 . S
C719 O767 1.468 . S
C719 H780 0.980 . S
C720 C721 1.349 . S
C720 C725 1.367 . S
C720 O767 1.408 . S
C721 C720 1.349 . S
C721 C722 1.407 . S
C721 H784 0.930 . S
C722 C721 1.407 . S
C722 C723 1.449 . S
C722 C726 1.535 . S
C723 C722 1.449 . S
C723 C724 1.384 . S
C723 C748 1.553 . S
C724 C723 1.384 . S
C724 C725 1.364 . S
C724 C727 1.450 . S
C725 C720 1.367 . S
C725 C724 1.364 . S
C725 H785 0.931 . S
C726 C722 1.535 . S
C726 H786 0.959 . S
C726 H787 0.961 . S
C726 H788 0.959 . S
C727 C724 1.450 . S
C727 H789 0.960 . S
C727 H790 0.960 . S
C727 H791 0.960 . S
C728 C729 1.309 . S
C728 C733 1.304 . S
C728 O766 1.435 . S
C729 C728 1.309 . S
C729 C730 1.476 . S
C729 H793 0.930 . S
C730 C729 1.476 . S
C730 C731 1.400 . S
C730 C734 1.567 . S
C731 C730 1.400 . S
C731 C732 1.373 . S
C731 C753 1.432 . S
C732 C731 1.373 . S
C732 C733 1.339 . S
C732 C735 1.530 . S
C733 C728 1.304 . S
C733 C732 1.339 . S
C733 H794 0.930 . S
C734 C730 1.567 . S
C734 H795 0.961 . S
C734 H796 0.960 . S
C734 H797 0.958 . S
C735 C732 1.530 . S
C735 H798 0.961 . S
C735 H799 0.960 . S
C735 H800 0.960 . S
C736 C737 1.530 . S
C736 H802 0.961 . S
C736 H803 0.961 . S
C736 H804 0.959 . S
C737 C736 1.530 . S
C737 O765 1.412 . S
C737 H801 0.980 . S
C738 C739 1.288 . S
C738 C743 1.377 . S
C738 O765 1.393 . S
C739 C738 1.288 . S
C739 C740 1.369 . S
C739 H805 0.932 . S
C740 C739 1.369 . S
C740 C741 1.398 . S
C740 C744 1.527 . S
C741 C740 1.398 . S
C741 C742 1.380 . S
C741 C755 1.497 . S
C742 C741 1.380 . S
C742 C743 1.383 . S
C742 C745 1.603 . S
C743 C738 1.377 . S
C743 C742 1.383 . S
C743 H806 0.929 . S
C744 C740 1.527 . S
C744 H807 0.961 . S
C744 H808 0.959 . S
C744 H809 0.959 . S
C745 C742 1.603 . S
C745 H810 0.960 . S
C745 H811 0.962 . S
C745 H812 0.961 . S
C746 C713 1.587 . S
C746 C747 1.360 . S
C746 C759 1.412 . S
C747 C746 1.360 . S
C747 C748 1.365 . S
C747 H813 0.929 . S
C748 C723 1.553 . S
C748 C747 1.365 . S
C748 C749 1.404 . S
C749 C748 1.404 . S
C749 C750 1.395 . S
C749 C760 1.451 . S
C750 C749 1.395 . S
C750 C751 1.322 . S
C750 H814 0.930 . S
C751 C750 1.322 . S
C751 C752 1.459 . S
C751 H815 0.929 . S
C752 C751 1.459 . S
C752 C753 1.445 . S
C752 C761 1.395 . S
C753 C731 1.432 . S
C753 C752 1.445 . S
C753 C754 1.370 . S
C754 C753 1.370 . S
C754 C755 1.438 . S
C754 H816 0.930 . S
C755 C741 1.497 . S
C755 C754 1.438 . S
C755 C756 1.360 . S
C756 C755 1.360 . S
C756 C757 1.401 . S
C756 C761 1.446 . S
C757 C756 1.401 . S
C757 C758 1.347 . S
C757 H817 0.929 . S
C758 C757 1.347 . S
C758 C759 1.455 . S
C758 H818 0.930 . S
C759 C746 1.412 . S
C759 C758 1.455 . S
C759 C760 1.331 . S
C760 C749 1.451 . S
C760 C759 1.331 . S
C760 C761 1.497 . S
C761 C752 1.395 . S
C761 C756 1.446 . S
C761 C760 1.497 . S
C762 C763 1.582 . S
C762 H819 0.962 . S
C762 H820 0.959 . S
C762 H821 0.958 . S
C763 C762 1.582 . S
C763 O766 1.458 . S
C763 H792 0.980 . S
O764 C709 1.426 . S
O764 C710 1.334 . S
O765 C737 1.412 . S
O765 C738 1.393 . S
O766 C728 1.435 . S
O766 C763 1.458 . S
O767 C719 1.468 . S
O767 C720 1.408 . S
H768 C709 0.980 . S
H769 C708 0.959 . S
H770 C708 0.959 . S
H771 C708 0.960 . S
H772 C711 0.929 . S
H773 C715 0.929 . S
H774 C716 0.959 . S
H775 C716 0.961 . S
H776 C716 0.961 . S
H777 C717 0.960 . S
H778 C717 0.960 . S
H779 C717 0.961 . S
H780 C719 0.980 . S
H781 C718 0.961 . S
H782 C718 0.960 . S
H783 C718 0.959 . S
H784 C721 0.930 . S
H785 C725 0.931 . S
H786 C726 0.959 . S
H787 C726 0.961 . S
H788 C726 0.959 . S
H789 C727 0.960 . S
H790 C727 0.960 . S
H791 C727 0.960 . S
H792 C763 0.980 . S
H793 C729 0.930 . S
H794 C733 0.930 . S
H795 C734 0.961 . S
H796 C734 0.960 . S
H797 C734 0.958 . S
H798 C735 0.961 . S
H799 C735 0.960 . S
H800 C735 0.960 . S
H801 C737 0.980 . S
H802 C736 0.961 . S
H803 C736 0.961 . S
H804 C736 0.959 . S
H805 C739 0.932 . S
H806 C743 0.929 . S
H807 C744 0.961 . S
H808 C744 0.959 . S
H809 C744 0.959 . S
H810 C745 0.960 . S
H811 C745 0.962 . S
H812 C745 0.961 . S
H813 C747 0.929 . S
H814 C750 0.930 . S
H815 C751 0.929 . S
H816 C754 0.930 . S
H817 C757 0.929 . S
H818 C758 0.930 . S
H819 C762 0.962 . S
H820 C762 0.959 . S
H821 C762 0.958 . S
C822 C823 1.387 . S
C822 H826 0.950 . S
C822 C831 1.390 . S
C823 C822 1.387 . S
C823 C825 1.387 . S
H824 C831 0.950 . S
C825 C823 1.387 . S
C825 C827 1.390 . S
C825 H829 0.950 . S
H826 C822 0.950 . S
C827 C825 1.390 . S
C827 C828 1.387 . S
C827 H830 0.950 . S
C828 C827 1.387 . S
C828 C831 1.387 . S
H829 C825 0.950 . S
H830 C827 0.950 . S
C831 C822 1.390 . S
C831 H824 0.950 . S
C831 C828 1.387 . S
C832 C833 1.387 . S
C832 H836 0.950 . S
C832 C841 1.390 . S
C833 C832 1.387 . S
C833 C835 1.387 . S
H834 C841 0.950 . S
C835 C833 1.387 . S
C835 C837 1.390 . S
C835 H839 0.950 . S
H836 C832 0.950 . S
C837 C835 1.390 . S
C837 C838 1.387 . S
C837 H840 0.950 . S
C838 C837 1.387 . S
C838 C841 1.387 . S
H839 C835 0.950 . S
H840 C837 0.950 . S
C841 C832 1.390 . S
C841 H834 0.950 . S
C841 C838 1.387 . S
C842 C843 1.387 . S
C842 H846 0.950 . S
C842 C851 1.390 . S
C843 C842 1.387 . S
C843 C845 1.387 . S
H844 C851 0.950 . S
C845 C843 1.387 . S
C845 C847 1.390 . S
C845 H849 0.950 . S
H846 C842 0.950 . S
C847 C845 1.390 . S
C847 C848 1.387 . S
C847 H850 0.950 . S
C848 C847 1.387 . S
C848 C851 1.387 . S
H849 C845 0.950 . S
H850 C847 0.950 . S
C851 C842 1.390 . S
C851 H844 0.950 . S
C851 C848 1.387 . S
C852 C853 1.387 . S
C852 H856 0.950 . S
C852 C861 1.390 . S
C853 C852 1.387 . S
C853 C855 1.387 . S
H854 C861 0.950 . S
C855 C853 1.387 . S
C855 C857 1.390 . S
C855 H859 0.950 . S
H856 C852 0.950 . S
C857 C855 1.390 . S
C857 C858 1.387 . S
C857 H860 0.950 . S
C858 C857 1.387 . S
C858 C861 1.387 . S
H859 C855 0.950 . S
H860 C857 0.950 . S
C861 C852 1.390 . S
C861 H854 0.950 . S
C861 C858 1.387 . S
C862 C863 1.387 . S
C862 H866 0.950 1_565 S
C862 C871 1.390 . S
C863 C862 1.387 . S
C863 C865 1.387 . S
H864 C871 0.950 . S
C865 C863 1.387 . S
C865 C867 1.390 . S
C865 H869 0.950 . S
H866 C862 0.950 1_545 S
C867 C865 1.390 . S
C867 C868 1.387 . S
C867 H870 0.950 . S
C868 C867 1.387 . S
C868 C871 1.387 . S
H869 C865 0.950 . S
H870 C867 0.950 . S
C871 C862 1.390 . S
C871 H864 0.950 . S
C871 C868 1.387 . S
C872 C873 1.387 . S
C872 H876 0.950 . S
C872 C881 1.390 . S
C873 C872 1.387 . S
C873 C875 1.387 . S
H874 C881 0.950 . S
C875 C873 1.387 . S
C875 C877 1.390 . S
C875 H879 0.950 . S
H876 C872 0.950 . S
C877 C875 1.390 . S
C877 C878 1.387 . S
C877 H880 0.950 . S
C878 C877 1.387 . S
C878 C881 1.387 . S
H879 C875 0.950 . S
H880 C877 0.950 . S
C881 C872 1.390 . S
C881 H874 0.950 . S
C881 C878 1.387 . S
C882 C883 1.387 . S
C882 H886 0.950 . S
C882 C891 1.390 . S
C883 C882 1.387 . S
C883 C885 1.387 . S
H884 C891 0.950 . S
C885 C883 1.387 . S
C885 C887 1.390 . S
C885 H889 0.950 . S
H886 C882 0.950 . S
C887 C885 1.390 . S
C887 C888 1.387 . S
C887 H890 0.950 . S
C888 C887 1.387 . S
C888 C891 1.387 . S
H889 C885 0.950 . S
H890 C887 0.950 . S
C891 C882 1.390 . S
C891 H884 0.950 . S
C891 C888 1.387 . S
C892 C893 1.387 . S
C892 H896 0.924 1_556 S
C892 C901 1.390 . S
C893 C892 1.387 . S
C893 C895 1.387 . S
H894 C901 0.950 . S
C895 C893 1.387 . S
C895 C897 1.390 . S
C895 H899 0.950 . S
H896 C892 0.924 1_554 S
C897 C895 1.390 . S
C897 C898 1.387 . S
C897 H900 0.950 . S
C898 C897 1.387 . S
C898 C901 1.387 . S
H899 C895 0.950 . S
H900 C897 0.950 . S
C901 C892 1.390 . S
C901 H894 0.950 . S
C901 C898 1.387 . S
C902 C903 1.387 . S
C902 H906 0.950 . S
C902 C911 1.390 . S
C903 C902 1.387 . S
C903 C905 1.387 . S
H904 C911 0.950 . S
C905 C903 1.387 . S
C905 C907 1.390 . S
C905 H909 0.950 . S
H906 C902 0.950 . S
C907 C905 1.390 . S
C907 C908 1.387 . S
C907 H910 0.950 . S
C908 C907 1.387 . S
C908 C911 1.387 . S
H909 C905 0.950 . S
H910 C907 0.950 . S
C911 C902 1.390 . S
C911 H904 0.950 . S
C911 C908 1.387 . S
C912 C913 1.387 . S
C912 H916 0.950 . S
C912 C921 1.390 . S
C913 C912 1.387 . S
C913 C915 1.387 . S
H914 C921 0.950 . S
C915 C913 1.387 . S
C915 C917 1.390 . S
C915 H919 0.950 . S
H916 C912 0.950 . S
C917 C915 1.390 . S
C917 C918 1.387 . S
C917 H920 0.950 . S
C918 C917 1.387 . S
C918 C921 1.387 . S
H919 C915 0.950 . S
H920 C917 0.950 . S
C921 C912 1.390 . S
C921 H914 0.950 . S
C921 C918 1.387 . S
C922 C923 1.387 . S
C922 H926 0.950 . S
C922 C931 1.390 . S
C923 C922 1.387 . S
C923 C925 1.387 . S
H924 C931 0.950 . S
C925 C923 1.387 . S
C925 C927 1.390 . S
C925 H929 0.950 . S
H926 C922 0.950 . S
C927 C925 1.390 . S
C927 C928 1.387 . S
C927 H930 0.950 . S
C928 C927 1.387 . S
C928 C931 1.387 . S
H929 C925 0.950 . S
H930 C927 0.950 . S
C931 C922 1.390 . S
C931 H924 0.950 . S
C931 C928 1.387 . S
C932 C933 1.387 . S
C932 H936 0.950 . S
C932 C941 1.390 . S
C933 C932 1.387 . S
C933 C935 1.387 . S
H934 C941 0.950 . S
C935 C933 1.387 . S
C935 C937 1.390 . S
C935 H939 0.950 . S
H936 C932 0.950 . S
C937 C935 1.390 . S
C937 C938 1.387 . S
C937 H940 0.950 . S
C938 C937 1.387 . S
C938 C941 1.387 . S
H939 C935 0.950 . S
H940 C937 0.950 . S
C941 C932 1.390 . S
C941 H934 0.950 . S
C941 C938 1.387 . S
C942 C943 1.387 . S
C942 H946 0.950 . S
C942 C951 1.390 . S
C943 C942 1.387 . S
C943 C945 1.388 . S
H944 C951 0.950 . S
C945 C943 1.388 . S
C945 C947 1.399 . S
C945 H949 0.940 1_655 S
H946 C942 0.950 . S
C947 C945 1.399 . S
C947 C948 1.387 . S
C947 H950 0.950 . S
C948 C947 1.387 . S
C948 C951 1.387 . S
H949 C945 0.940 1_455 S
H950 C947 0.950 . S
C951 C942 1.390 . S
C951 H944 0.950 . S
C951 C948 1.387 . S
C952 C953 1.387 . S
C952 H956 0.950 . S
C952 C961 1.390 . S
C953 C952 1.387 . S
C953 C955 1.387 . S
H954 C961 0.950 . S
C955 C953 1.387 . S
C955 C957 1.390 . S
C955 H959 0.950 1_565 S
H956 C952 0.950 . S
C957 C955 1.390 . S
C957 C958 1.387 . S
C957 H960 0.950 . S
C958 C957 1.387 . S
C958 C961 1.387 . S
H959 C955 0.950 1_545 S
H960 C957 0.950 . S
C961 C952 1.390 . S
C961 H954 0.950 . S
C961 C958 1.387 . S
C962 C963 1.387 . S
C962 H966 0.950 . S
C962 C971 1.390 . S
C963 C962 1.387 . S
C963 C965 1.387 . S
H964 C971 0.950 . S
C965 C963 1.387 . S
C965 C967 1.390 . S
C965 H969 0.950 . S
H966 C962 0.950 . S
C967 C965 1.390 . S
C967 C968 1.387 . S
C967 H970 0.950 . S
C968 C967 1.387 . S
C968 C971 1.387 . S
H969 C965 0.950 . S
H970 C967 0.950 . S
C971 C962 1.390 . S
C971 H964 0.950 . S
C971 C968 1.387 . S
C972 C973 1.387 . S
C972 H976 0.950 . S
C972 C981 1.390 . S
C973 C972 1.387 . S
C973 C975 1.387 . S
H974 C981 0.950 . S
C975 C973 1.387 . S
C975 C977 1.390 . S
C975 H979 0.950 . S
H976 C972 0.950 . S
C977 C975 1.390 . S
C977 C978 1.387 . S
C977 H980 0.950 . S
C978 C977 1.387 . S
C978 C981 1.387 . S
H979 C975 0.950 . S
H980 C977 0.950 . S
C981 C972 1.390 . S
C981 H974 0.950 . S
C981 C978 1.387 . S
C982 C983 1.387 . S
C982 H986 0.950 . S
C982 C991 1.390 . S
C983 C982 1.387 . S
C983 C985 1.387 . S
H984 C991 0.950 . S
C985 C983 1.387 . S
C985 C987 1.390 . S
C985 H989 0.950 . S
H986 C982 0.950 . S
C987 C985 1.390 . S
C987 C988 1.387 . S
C987 H990 0.950 . S
C988 C987 1.387 . S
C988 C991 1.387 . S
H989 C985 0.950 . S
H990 C987 0.950 . S
C991 C982 1.390 . S
C991 H984 0.950 . S
C991 C988 1.387 . S
C992 C993 1.387 . S
C992 H996 0.950 . S
C992 C1001 1.390 . S
C993 C992 1.387 . S
C993 C995 1.387 . S
H994 C1001 0.950 . S
C995 C993 1.387 . S
C995 C997 1.390 . S
C995 H999 0.950 . S
H996 C992 0.950 . S
C997 C995 1.390 . S
C997 C998 1.387 . S
C997 H1000 0.950 . S
C998 C997 1.387 . S
C998 C1001 1.387 . S
H999 C995 0.950 . S
H1000 C997 0.950 . S
C1001 C992 1.390 . S
C1001 H994 0.950 . S
C1001 C998 1.387 . S
C1002 C1003 1.387 . S
C1002 H1006 0.950 . S
C1002 C1011 1.390 . S
C1003 C1002 1.387 . S
C1003 C1005 1.387 . S
H1004 C1011 0.950 . S
C1005 C1003 1.387 . S
C1005 C1007 1.390 . S
C1005 H1009 0.950 . S
H1006 C1002 0.950 . S
C1007 C1005 1.390 . S
C1007 C1008 1.387 . S
C1007 H1010 0.950 . S
C1008 C1007 1.387 . S
C1008 C1011 1.387 . S
H1009 C1005 0.950 . S
H1010 C1007 0.950 . S
C1011 C1002 1.390 . S
C1011 H1004 0.950 . S
C1011 C1008 1.387 . S
C1012 C1013 1.387 . S
C1012 H1016 0.950 . S
C1012 C1021 1.390 . S
C1013 C1012 1.387 . S
C1013 C1015 1.387 . S
H1014 C1021 0.950 . S
C1015 C1013 1.387 . S
C1015 C1017 1.390 . S
C1015 H1019 0.950 . S
H1016 C1012 0.950 . S
C1017 C1015 1.390 . S
C1017 C1018 1.387 . S
C1017 H1020 0.950 . S
C1018 C1017 1.387 . S
C1018 C1021 1.387 . S
H1019 C1015 0.950 . S
H1020 C1017 0.950 . S
C1021 C1012 1.390 . S
C1021 H1014 0.950 . S
C1021 C1018 1.387 . S
C1022 C1023 1.387 . S
C1022 H1026 0.950 . S
C1022 C1031 1.390 . S
C1023 C1022 1.387 . S
C1023 C1025 1.387 . S
H1024 C1031 0.950 . S
C1025 C1023 1.387 . S
C1025 C1027 1.390 . S
C1025 H1029 0.950 . S
H1026 C1022 0.950 . S
C1027 C1025 1.390 . S
C1027 C1028 1.387 . S
C1027 H1030 0.950 . S
C1028 C1027 1.387 . S
C1028 C1031 1.387 . S
H1029 C1025 0.950 . S
H1030 C1027 0.950 . S
C1031 C1022 1.390 . S
C1031 H1024 0.950 . S
C1031 C1028 1.387 . S
C1032 C1033 1.387 . S
C1032 H1036 0.950 . S
C1032 C1041 1.390 . S
C1033 C1032 1.387 . S
C1033 C1035 1.387 . S
H1034 C1041 0.950 . S
C1035 C1033 1.387 . S
C1035 C1037 1.390 . S
C1035 H1039 0.950 . S
H1036 C1032 0.950 . S
C1037 C1035 1.390 . S
C1037 C1038 1.387 . S
C1037 H1040 0.950 . S
C1038 C1037 1.387 . S
C1038 C1041 1.387 . S
H1039 C1035 0.950 . S
H1040 C1037 0.950 . S
C1041 C1032 1.390 . S
C1041 H1034 0.950 . S
C1041 C1038 1.387 . S
C1042 C1043 1.387 . S
C1042 H1046 0.950 . S
C1042 C1051 1.390 . S
C1043 C1042 1.387 . S
C1043 C1045 1.387 . S
H1044 C1051 0.950 . S
C1045 C1043 1.387 . S
C1045 C1047 1.390 . S
C1045 H1049 0.950 . S
H1046 C1042 0.950 . S
C1047 C1045 1.390 . S
C1047 C1048 1.387 . S
C1047 H1050 0.950 . S
C1048 C1047 1.387 . S
C1048 C1051 1.387 . S
H1049 C1045 0.950 . S
H1050 C1047 0.950 . S
C1051 C1042 1.390 . S
C1051 H1044 0.950 . S
C1051 C1048 1.387 . S
C1052 C1053 1.387 . S
C1052 H1056 0.950 . S
C1052 C1061 1.390 . S
C1053 C1052 1.387 . S
C1053 C1055 1.387 . S
H1054 C1061 0.950 . S
C1055 C1053 1.387 . S
C1055 C1057 1.390 . S
C1055 H1059 0.950 . S
H1056 C1052 0.950 . S
C1057 C1055 1.390 . S
C1057 C1058 1.387 . S
C1057 H1060 0.950 . S
C1058 C1057 1.387 . S
C1058 C1061 1.387 . S
H1059 C1055 0.950 . S
H1060 C1057 0.950 . S
C1061 C1052 1.390 . S
C1061 H1054 0.950 . S
C1061 C1058 1.387 . S
C823 C7 2.091 . S
C828 C167 1.993 . S
C833 C30 1.883 . S
C838 C307 1.763 . S
C848 C395 1.820 . S
C843 N58 1.837 . S
C858 C535 1.665 . S
C853 N81 1.647 . S
C868 C649 1.854 . S
C863 C99 2.000 . S
C878 C719 0.842 . S
C873 N127 1.687 . S
C883 N25 1.933 . S
C888 C377 1.020 . S
C893 C62 1.765 . S
C898 C481 1.177 . S
C908 C595 1.399 . S
C903 C85 1.934 . S
C918 C737 1.686 . S
C913 N94 1.705 . S
C923 C131 2.171 . S
C928 C149 1.069 . S
C938 C253 1.085 . S
C933 N2 1.501 . S
C948 C491 1.751 . S
C943 C16 2.085 1_655 S
C953 C39 1.916 . S
C958 C605 1.607 . S
C968 C763 1.252 . S
C963 N48 2.035 . S
C973 N71 1.618 . S
C978 C139 1.575 . S
C983 C108 2.201 . S
C988 C263 1.773 . S
C993 N117 1.699 . S
C998 C367 1.744 . S
C1003 N35 1.927 . S
C1008 C709 1.909 . S
C1018 C193 1.157 . S
C1013 C53 1.954 . S
C1023 C76 2.146 . S
C1028 C281 1.419 . S
C1033 N104 1.802 . S
C1038 C421 0.994 . S
C1043 C122 1.994 . S
C1048 C509 1.391 . S
C1053 N12 1.681 . S
C1058 C623 1.177 . S
