# Generated by pormake.
# Topology pth, (4,4)-cn, num edge types: 1
# Building blocks:
#     Node 0, Type 0, BuildingBlock: UXUYUI_clean_sbu_0, # of connection points: 4
#     Node 1, Type 0, BuildingBlock: UXUYUI_clean_sbu_0, # of connection points: 4
#     Node 2, Type 0, BuildingBlock: UXUYUI_clean_sbu_0, # of connection points: 4
#     Node 3, Type 1, BuildingBlock: MUDLON_clean_linker_0, # of connection points: 4
#     Node 4, Type 1, BuildingBlock: MUDLON_clean_linker_0, # of connection points: 4
#     Node 5, Type 1, BuildingBlock: MUDLON_clean_linker_0, # of connection points: 4
#     Edge 6, Type (0, 1), BuildingBlock: OJICUG_clean_linker_0, # of connection points: 2
#     Edge 7, Type (0, 1), BuildingBlock: OJICUG_clean_linker_0, # of connection points: 2
#     Edge 8, Type (0, 1), BuildingBlock: OJICUG_clean_linker_0, # of connection points: 2
#     Edge 9, Type (0, 1), BuildingBlock: OJICUG_clean_linker_0, # of connection points: 2
#     Edge 10, Type (0, 1), BuildingBlock: OJICUG_clean_linker_0, # of connection points: 2
#     Edge 11, Type (0, 1), BuildingBlock: OJICUG_clean_linker_0, # of connection points: 2
#     Edge 12, Type (0, 1), BuildingBlock: OJICUG_clean_linker_0, # of connection points: 2
#     Edge 13, Type (0, 1), BuildingBlock: OJICUG_clean_linker_0, # of connection points: 2
#     Edge 14, Type (0, 1), BuildingBlock: OJICUG_clean_linker_0, # of connection points: 2
#     Edge 15, Type (0, 1), BuildingBlock: OJICUG_clean_linker_0, # of connection points: 2
#     Edge 16, Type (0, 1), BuildingBlock: OJICUG_clean_linker_0, # of connection points: 2
#     Edge 17, Type (0, 1), BuildingBlock: OJICUG_clean_linker_0, # of connection points: 2
# Relax obj value: 0.089
# Max RMSD: 0.213
# Mean RMSD: 0.143
data_MOF--net-pth--node1-UXUYUI_clean_sbu_0--node2-MUDLON_clean_linker_0--edge1-OJICUG_clean_linker_0
_symmetry_space_group_name_H-M    P1
_symmetry_Int_Tables_number       1
_symmetry_cell_setting            triclinic
loop_
_symmetry_equiv_pos_as_xyz
'x, y, z'
_cell_length_a     32.693654
_cell_length_b     32.686643
_cell_length_c     65.845404
_cell_angle_alpha  89.925995
_cell_angle_beta   90.046189
_cell_angle_gamma 120.00334
loop_
_atom_site_label
_atom_site_type_symbol
_atom_site_fract_x
_atom_site_fract_y
_atom_site_fract_z
_atom_type_partial_charge
Li0 Li 0.03397 0.0324 0.03239 0.0
Li1 Li 0.97521 0.02593 0.05719 0.0
Li2 Li 0.99722 0.9642 0.05474 0.0
Li3 Li 0.94989 0.97334 0.02849 0.0
C4 C 0.08238 0.06286 0.06768 0.0
N5 N 0.17457 0.12933 0.07696 0.0
C6 C 0.09252 0.10532 0.07699 0.0
C7 C 0.11903 0.054 0.06326 0.0
C8 C 0.13939 0.13853 0.08152 0.0
C9 C 0.16544 0.08812 0.06802 0.0
C10 C 0.95782 0.04958 0.01221 0.0
C11 C 0.88917 0.04693 0.99729 0.0
N12 N 0.91141 0.05876 0.97898 0.0
C13 C 0.9801 0.06192 0.99328 0.0
C14 C 0.91209 0.04223 0.01429 0.0
C15 C 0.95601 0.06633 0.97666 0.0
C16 C 0.1031 0.06622 0.00105 0.0
N17 N 0.08809 0.07808 0.01812 0.0
C18 C 0.14076 0.16014 0.01198 0.0
C19 C 0.10632 0.12388 0.02379 0.0
C20 C 0.15532 0.14942 0.99364 0.0
C21 C 0.13676 0.10152 0.98848 0.0
H22 H 0.08692 0.02954 0.99659 0.0
H23 H 0.09251 0.13243 0.037 0.0
C24 C 0.96497 0.05878 0.0955 0.0
N25 N 0.96321 0.06413 0.0751 0.0
C26 C 0.96427 0.09166 0.10878 0.0
C27 C 0.95988 0.13485 0.0798 0.0
C28 C 0.96 0.10077 0.06709 0.0
C29 C 0.96292 0.13092 0.10091 0.0
H30 H 0.9694 0.03038 0.10141 0.0
H31 H 0.95985 0.10481 0.0508 0.0
C32 C 0.01467 0.92982 0.02126 0.0
N33 N 0.03177 0.85606 0.01533 0.0
C34 C 0.97755 0.88489 0.01631 0.0
C35 C 0.06054 0.93739 0.02297 0.0
C36 C 0.98691 0.84802 0.01344 0.0
C37 C 0.06845 0.89959 0.01998 0.0
C38 C 0.90328 0.94994 0.07277 0.0
C39 C 0.90934 0.93378 0.09158 0.0
C40 C 0.86735 0.96086 0.0703 0.0
C41 C 0.87943 0.92908 0.10766 0.0
C42 C 0.83824 0.95578 0.08676 0.0
N43 N 0.84483 0.94014 0.10494 0.0
C44 C 0.03714 0.92759 0.08344 0.0
C45 C 0.96599 0.87232 0.06718 0.0
C46 C 0.03529 0.89206 0.09596 0.0
N47 N 0.00239 0.91715 0.06961 0.0
C48 C 0.96286 0.83583 0.07925 0.0
C49 C 0.99714 0.84562 0.09424 0.0
H50 H 0.06514 0.96372 0.08536 0.0
H51 H 0.93832 0.86528 0.05637 0.0
C52 C 0.91508 0.93873 0.98959 0.0
N53 N 0.90192 0.9378 0.00923 0.0
C54 C 0.88277 0.90751 0.97545 0.0
C55 C 0.82366 0.87568 0.00194 0.0
C56 C 0.85712 0.90769 0.01555 0.0
C57 C 0.83666 0.87464 0.98168 0.0
H58 H 0.95134 0.96221 0.98514 0.0
H59 H 0.8479 0.9071 0.03135 0.0
O60 O 0.03677 0.03009 0.06298 0.0
O61 O 0.98041 0.04415 0.02859 0.0
O62 O 0.00617 0.96624 0.02438 0.0
O63 O 0.93244 0.95522 0.05688 0.0
H64 H 0.06457 0.11276 0.08051 0.0
H65 H 0.11173 0.02122 0.05616 0.0
H66 H 0.14779 0.17165 0.08863 0.0
H67 H 0.19419 0.08183 0.0646 0.0
H68 H 0.85368 0.04113 0.99864 0.0
H69 H 0.01544 0.06766 0.9914 0.0
H70 H 0.89442 0.03273 0.02884 0.0
H71 H 0.97273 0.07565 0.96189 0.0
H72 H 0.15448 0.19628 0.01688 0.0
H73 H 0.14604 0.09129 0.97436 0.0
H74 H 0.96757 0.08792 0.12495 0.0
H75 H 0.95888 0.16471 0.0732 0.0
H76 H 0.94181 0.87841 0.01495 0.0
H77 H 0.08971 0.97207 0.02655 0.0
H78 H 0.95848 0.81299 0.00974 0.0
H79 H 0.10375 0.90488 0.02133 0.0
H80 H 0.93711 0.92542 0.09383 0.0
H81 H 0.86221 0.97345 0.05585 0.0
H82 H 0.88384 0.91681 0.12232 0.0
H83 H 0.81043 0.96433 0.08508 0.0
H84 H 0.06215 0.9013 0.10748 0.0
H85 H 0.93315 0.80051 0.07722 0.0
H86 H 0.89456 0.9074 0.9601 0.0
H87 H 0.78842 0.85114 0.00733 0.0
Li88 Li 0.97502 0.94529 0.36199 0.0
Li89 Li 0.0308 0.99472 0.38772 0.0
Li90 Li 0.94878 0.97984 0.38795 0.0
Li91 Li 0.00513 0.03137 0.36213 0.0
C92 C 0.98102 0.89853 0.39675 0.0
N93 N 0.00246 0.82911 0.40647 0.0
C94 C 0.0159 0.89499 0.38596 0.0
C95 C 0.95699 0.86672 0.41248 0.0
C96 C 0.02626 0.85969 0.3911 0.0
C97 C 0.96834 0.83187 0.41717 0.0
C98 C 0.08488 0.01525 0.35063 0.0
C99 C 0.1626 0.08109 0.34385 0.0
N100 N 0.17542 0.05094 0.3357 0.0
C101 C 0.09864 0.98499 0.34192 0.0
C102 C 0.11693 0.06375 0.35139 0.0
C103 C 0.14464 0.00369 0.33456 0.0
C104 C 0.97647 0.9076 0.32482 0.0
N105 N 0.9589 0.89436 0.34387 0.0
C106 C 0.92814 0.81296 0.33562 0.0
C107 C 0.93415 0.84809 0.3494 0.0
C108 C 0.94771 0.8258 0.31605 0.0
C109 C 0.97124 0.87381 0.3106 0.0
H110 H 0.99562 0.94469 0.32085 0.0
H111 H 0.92019 0.83851 0.36463 0.0
C112 C 0.08055 0.01802 0.42427 0.0
N113 N 0.08168 0.00402 0.40496 0.0
C114 C 0.11634 0.02588 0.43797 0.0
C115 C 0.1534 0.00375 0.41182 0.0
C116 C 0.11694 0.99648 0.39859 0.0
C117 C 0.15351 0.01888 0.43178 0.0
H118 H 0.05173 0.0231 0.42902 0.0
H119 H 0.1168 0.98456 0.38333 0.0
C120 C 0.89311 0.94706 0.35329 0.0
N121 N 0.8008 0.88225 0.34335 0.0
C122 C 0.87052 0.95657 0.33749 0.0
C123 C 0.86878 0.90462 0.36406 0.0
C124 C 0.82382 0.92334 0.3327 0.0
C125 C 0.82213 0.8723 0.35879 0.0
C126 C 0.03323 0.08506 0.39905 0.0
C127 C 0.00958 0.10648 0.40769 0.0
C128 C 0.08254 0.10984 0.39816 0.0
C129 C 0.03566 0.15276 0.41489 0.0
C130 C 0.10737 0.15604 0.40555 0.0
N131 N 0.08362 0.17639 0.41367 0.0
C132 C 0.8832 0.94779 0.42103 0.0
C133 C 0.88256 0.00468 0.39882 0.0
C134 C 0.85065 0.95064 0.43388 0.0
N135 N 0.89896 0.97532 0.40413 0.0
C136 C 0.85051 0.009 0.41129 0.0
C137 C 0.835 0.98258 0.4293 0.0
H138 H 0.89723 0.92504 0.42491 0.0
H139 H 0.89599 0.02621 0.3853 0.0
C140 C 0.03551 0.08285 0.32591 0.0
N141 N 0.02104 0.08421 0.34511 0.0
C142 C 0.04291 0.11809 0.31197 0.0
C143 C 0.02116 0.15597 0.3379 0.0
C144 C 0.01386 0.11979 0.35132 0.0
C145 C 0.03508 0.15492 0.31784 0.0
H146 H 0.04002 0.05361 0.32127 0.0
H147 H 0.00078 0.11923 0.36641 0.0
O148 O 0.97025 0.93283 0.39203 0.0
O149 O 0.03984 0.99746 0.35781 0.0
O150 O 0.93886 0.97929 0.35808 0.0
O151 O 0.00811 0.03963 0.39205 0.0
H152 H 0.03461 0.91907 0.3737 0.0
H153 H 0.92983 0.86892 0.42097 0.0
H154 H 0.05318 0.85658 0.38285 0.0
H155 H 0.95002 0.80701 0.42931 0.0
H156 H 0.18778 0.11855 0.34439 0.0
H157 H 0.07415 0.94741 0.34094 0.0
H158 H 0.10653 0.08788 0.35745 0.0
H159 H 0.15584 0.98064 0.32792 0.0
H160 H 0.90984 0.77639 0.34046 0.0
H161 H 0.98595 0.88525 0.29556 0.0
H162 H 0.11455 0.03671 0.45333 0.0
H163 H 0.18145 0.9981 0.40639 0.0
H164 H 0.88893 0.98929 0.32902 0.0
H165 H 0.88561 0.89663 0.37635 0.0
H166 H 0.80587 0.93021 0.3205 0.0
H167 H 0.80288 0.83931 0.36698 0.0
H168 H 0.97146 0.08766 0.40872 0.0
H169 H 0.10154 0.09346 0.3921 0.0
H170 H 0.01779 0.16986 0.42149 0.0
H171 H 0.14555 0.17562 0.40493 0.0
H172 H 0.83976 0.93001 0.44773 0.0
H173 H 0.83898 0.03376 0.40719 0.0
H174 H 0.05382 0.11609 0.29665 0.0
H175 H 0.0139 0.18326 0.34291 0.0
Li176 Li 0.0313 0.98091 0.69823 0.0
Li177 Li 0.02605 0.0314 0.72481 0.0
Li178 Li 0.96532 0.94499 0.72226 0.0
Li179 Li 0.96517 1.00021 0.69785 0.0
C180 C 0.06728 0.96414 0.73385 0.0
N181 N 0.13555 0.94196 0.74478 0.0
C182 C 0.10669 0.99619 0.74508 0.0
C183 C 0.0624 0.92063 0.72836 0.0
C184 C 0.14087 0.98437 0.75041 0.0
C185 C 0.09734 0.91012 0.73398 0.0
C186 C 0.06443 0.08899 0.68966 0.0
C187 C 0.08117 0.16933 0.68573 0.0
N188 N 0.12508 0.18195 0.67877 0.0
C189 C 0.10953 0.10268 0.6822 0.0
C190 C 0.04995 0.12251 0.69121 0.0
C191 C 0.13974 0.14985 0.67689 0.0
C192 C 0.06418 0.95755 0.6628 0.0
N193 N 0.07641 0.97543 0.68188 0.0
C194 C 0.15686 0.99719 0.67591 0.0
C195 C 0.12161 0.99459 0.68864 0.0
C196 C 0.14586 0.98099 0.6558 0.0
C197 C 0.09851 0.9599 0.64944 0.0
H198 H 0.02816 0.94342 0.65767 0.0
H199 H 0.13099 0.01027 0.70354 0.0
C200 C 0.04652 0.08287 0.76141 0.0
N201 N 0.06424 0.08172 0.74288 0.0
C202 C 0.0748 0.11714 0.77562 0.0
C203 C 0.13896 0.14849 0.75141 0.0
C204 C 0.10958 0.11342 0.73775 0.0
C205 C 0.12177 0.15037 0.7707 0.0
H206 H 0.01063 0.05663 0.76525 0.0
H207 H 0.12359 0.11052 0.72335 0.0
C208 C 0.93505 0.8916 0.68893 0.0
N209 N 0.87862 0.79537 0.68325 0.0
C210 C 0.88621 0.87158 0.6868 0.0
C211 C 0.95528 0.86281 0.68778 0.0
C212 C 0.85824 0.82282 0.68406 0.0
C213 C 0.92615 0.81421 0.685 0.0
C214 C 0.93093 0.02244 0.7316 0.0
C215 C 0.88251 0.99644 0.73568 0.0
C216 C 0.95384 0.07176 0.73171 0.0
C217 C 0.85766 0.0202 0.73929 0.0
C218 C 0.92781 0.09425 0.73542 0.0
N219 N 0.88062 0.06822 0.73906 0.0
C220 C 0.94375 0.87167 0.75084 0.0
C221 C 0.87754 0.87345 0.73733 0.0
C222 C 0.91473 0.83499 0.76399 0.0
N223 N 0.92488 0.8904 0.73801 0.0
C224 C 0.84722 0.8372 0.7504 0.0
C225 C 0.8658 0.81798 0.76428 0.0
H226 H 0.98146 0.88607 0.75137 0.0
H227 H 0.86341 0.88903 0.72704 0.0
C228 C 0.9455 0.04469 0.66535 0.0
N229 N 0.92574 0.01285 0.6807 0.0
C230 C 0.91715 0.05351 0.65228 0.0
C231 C 0.84838 0.99534 0.67056 0.0
C232 C 0.87815 0.98818 0.68347 0.0
C233 C 0.86791 0.02844 0.65474 0.0
H234 H 0.98321 0.06263 0.66298 0.0
H235 H 0.86322 0.96238 0.69553 0.0
O236 O 0.03375 0.97543 0.72832 0.0
O237 O 0.03446 0.04286 0.695 0.0
O238 O 0.96297 0.9392 0.69187 0.0
O239 O 0.95581 0.99973 0.72786 0.0
H240 H 0.11093 0.02985 0.74963 0.0
H241 H 0.03192 0.89519 0.71991 0.0
H242 H 0.17162 0.00891 0.75903 0.0
H243 H 0.09405 0.87662 0.72977 0.0
H244 H 0.07038 0.1956 0.6869 0.0
H245 H 0.12126 0.07729 0.68063 0.0
H246 H 0.01474 0.11244 0.69626 0.0
H247 H 0.17483 0.16093 0.67124 0.0
H248 H 0.1927 0.0133 0.68158 0.0
H249 H 0.08845 0.94761 0.63399 0.0
H250 H 0.0602 0.11748 0.79033 0.0
H251 H 0.17525 0.17278 0.74719 0.0
H252 H 0.87 0.89338 0.68743 0.0
H253 H 0.99309 0.87783 0.6889 0.0
H254 H 0.82034 0.80681 0.68258 0.0
H255 H 0.94134 0.79148 0.68418 0.0
H256 H 0.86415 0.95831 0.73594 0.0
H257 H 0.99139 0.09255 0.72912 0.0
H258 H 0.82011 0.00045 0.7423 0.0
H259 H 0.94516 0.13242 0.73546 0.0
H260 H 0.93072 0.82083 0.77411 0.0
H261 H 0.80993 0.82584 0.75016 0.0
H262 H 0.93344 0.07862 0.64 0.0
H263 H 0.81053 0.97525 0.67289 0.0
H264 H 0.867 0.62236 0.2184 0.0
N265 N 0.93795 0.61229 0.20498 0.0
H266 H 0.86746 0.67012 0.24709 0.0
H267 H 0.00872 0.65554 0.23345 0.0
H268 H 0.00891 0.70172 0.26232 0.0
H269 H 0.01861 0.69782 0.19932 0.0
H270 H 0.035 0.75162 0.17085 0.0
H271 H 0.88854 0.59505 0.17095 0.0
H272 H 0.90527 0.64825 0.14201 0.0
H273 H 0.88449 0.5194 0.20848 0.0
H274 H 0.02952 0.63051 0.2034 0.0
H275 H 0.90982 0.46065 0.20964 0.0
H276 H 0.05552 0.57279 0.20587 0.0
H277 H 0.96603 0.29492 0.22413 0.0
H278 H 0.96491 0.24525 0.25184 0.0
H279 H 0.11344 0.34067 0.26236 0.0
H280 H 0.11445 0.39079 0.23429 0.0
H281 H 0.10092 0.35808 0.18473 0.0
H282 H 0.07813 0.30248 0.15632 0.0
H283 H 0.93262 0.26606 0.16403 0.0
H284 H 0.95582 0.32257 0.19208 0.0
H285 H 0.96936 0.36919 0.22976 0.0
H286 H 0.9458 0.42867 0.22966 0.0
H287 H 0.05941 0.51342 0.18797 0.0
N288 N 0.04436 0.37287 0.20868 0.0
H289 H 0.08458 0.45467 0.18919 0.0
C290 C 0.93754 0.63509 0.22368 0.0
C291 C 0.89773 0.63899 0.22818 0.0
C292 C 0.89804 0.66616 0.24461 0.0
C293 C 0.93838 0.69006 0.25693 0.0
C294 C 0.97755 0.68442 0.25294 0.0
C295 C 0.97728 0.65747 0.23644 0.0
C296 C 0.95189 0.64243 0.18733 0.0
C297 C 0.99397 0.68639 0.18678 0.0
C298 C 0.00346 0.71713 0.17039 0.0
C299 C 0.9712 0.70448 0.15423 0.0
C300 C 0.93042 0.65947 0.15439 0.0
C301 C 0.92092 0.62889 0.1708 0.0
C302 C 0.95487 0.57921 0.20601 0.0
C303 C 0.92185 0.53107 0.20788 0.0
C304 C 0.93653 0.49764 0.20872 0.0
C305 C 0.98487 0.51179 0.20798 0.0
C306 C 0.018 0.56032 0.20619 0.0
C307 C 0.00317 0.59362 0.205 0.0
C308 C 0.04065 0.34675 0.22697 0.0
C309 C 0.99835 0.30579 0.23245 0.0
C310 C 0.99773 0.27715 0.24829 0.0
C311 C 0.03923 0.28875 0.25906 0.0
C312 C 0.0809 0.33095 0.25434 0.0
C313 C 0.08154 0.35956 0.23836 0.0
C314 C 0.03023 0.34421 0.19059 0.0
C315 C 0.0643 0.33876 0.17999 0.0
C316 C 0.05123 0.30711 0.16381 0.0
C317 C 0.00358 0.27987 0.15809 0.0
C318 C 0.96952 0.28639 0.16827 0.0
C319 C 0.98277 0.31867 0.18426 0.0
C320 C 0.02946 0.40764 0.20962 0.0
C321 C 0.98979 0.40067 0.2208 0.0
C322 C 0.97587 0.43476 0.22054 0.0
C323 C 0.00056 0.47609 0.20878 0.0
C324 C 0.04001 0.48268 0.19756 0.0
C325 C 0.05434 0.44899 0.1981 0.0
H326 H 0.77591 0.12712 0.55254 0.0
N327 N 0.68747 0.06963 0.5412 0.0
H328 H 0.81759 0.11844 0.58148 0.0
H329 H 0.64777 0.00283 0.57135 0.0
H330 H 0.68822 0.99518 0.60093 0.0
H331 H 0.68235 0.98388 0.53676 0.0
H332 H 0.71296 0.96001 0.50815 0.0
H333 H 0.71352 0.1119 0.50532 0.0
H334 H 0.7409 0.08688 0.47592 0.0
H335 H 0.67203 0.14153 0.54301 0.0
H336 H 0.60063 0.98965 0.54126 0.0
H337 H 0.5963 0.13906 0.54374 0.0
H338 H 0.52413 0.98622 0.54332 0.0
H339 H 0.35472 0.12141 0.56354 0.0
H340 H 0.3001 0.09813 0.59216 0.0
H341 H 0.28615 0.95943 0.59175 0.0
H342 H 0.34068 0.98322 0.56278 0.0
H343 H 0.31313 0.98374 0.52782 0.0
H344 H 0.26223 0.97266 0.49876 0.0
H345 H 0.34039 0.12291 0.4871 0.0
H346 H 0.39052 0.13367 0.51661 0.0
H347 H 0.45945 0.12518 0.56314 0.0
H348 H 0.53247 0.12232 0.5644 0.0
H349 H 0.4697 0.99956 0.5253 0.0
N350 N 0.38083 0.06846 0.54328 0.0
H351 H 0.39586 0.00097 0.52535 0.0
C352 C 0.7088 0.06608 0.55981 0.0
C353 C 0.75655 0.09863 0.56323 0.0
C354 C 0.78019 0.09368 0.57988 0.0
C355 C 0.75636 0.05607 0.59366 0.0
C356 C 0.70795 0.02417 0.59051 0.0
C357 C 0.68449 0.02885 0.57367 0.0
C358 C 0.69699 0.05042 0.52333 0.0
C359 C 0.6949 0.0064 0.5235 0.0
C360 C 0.71206 0.99258 0.50697 0.0
C361 C 0.73055 0.022 0.4898 0.0
C362 C 0.72858 0.06405 0.48911 0.0
C363 C 0.71242 0.07824 0.50578 0.0
C364 C 0.64185 0.06598 0.54238 0.0
C365 C 0.63975 0.10759 0.54314 0.0
C366 C 0.59633 0.10596 0.54373 0.0
C367 C 0.55375 0.06237 0.54388 0.0
C368 C 0.55601 0.02044 0.54307 0.0
C369 C 0.5997 0.02223 0.54215 0.0
C370 C 0.35172 0.05422 0.56116 0.0
C371 C 0.34026 0.08622 0.56983 0.0
C372 C 0.30921 0.07284 0.58621 0.0
C373 C 0.2889 0.02693 0.59431 0.0
C374 C 0.30093 0.9949 0.58575 0.0
C375 C 0.33221 0.00847 0.56931 0.0
C376 C 0.35555 0.05973 0.52439 0.0
C377 C 0.31986 0.01417 0.51882 0.0
C378 C 0.29086 0.00787 0.50212 0.0
C379 C 0.29695 0.04698 0.49073 0.0
C380 C 0.33428 0.09217 0.49576 0.0
C381 C 0.36322 0.09838 0.51246 0.0
C382 C 0.42251 0.06403 0.54391 0.0
C383 C 0.46148 0.0975 0.55498 0.0
C384 C 0.50334 0.09598 0.5555 0.0
C385 C 0.50758 0.06125 0.54461 0.0
C386 C 0.46785 0.02671 0.53397 0.0
C387 C 0.42554 0.02777 0.53378 0.0
H388 H 0.65663 0.6969 0.88243 0.0
N389 N 0.66554 0.61811 0.8794 0.0
H390 H 0.69282 0.75881 0.9082 0.0
H391 H 0.71364 0.61865 0.91204 0.0
H392 H 0.75006 0.68041 0.93792 0.0
H393 H 0.74649 0.62569 0.86726 0.0
H394 H 0.79426 0.66916 0.83778 0.0
H395 H 0.63897 0.65796 0.84921 0.0
H396 H 0.68651 0.70148 0.8197 0.0
H397 H 0.59484 0.61283 0.90469 0.0
H398 H 0.61972 0.548 0.85243 0.0
H399 H 0.51205 0.5549 0.90346 0.0
H400 H 0.53566 0.49073 0.85081 0.0
H401 H 0.23994 0.35613 0.89802 0.0
H402 H 0.20361 0.30423 0.92711 0.0
H403 H 0.3267 0.28839 0.93326 0.0
H404 H 0.36144 0.33814 0.90356 0.0
H405 H 0.31653 0.29353 0.86988 0.0
H406 H 0.27135 0.24036 0.84222 0.0
H407 H 0.22986 0.34006 0.8219 0.0
H408 H 0.27542 0.39335 0.84973 0.0
H409 H 0.35742 0.46822 0.88672 0.0
H410 H 0.44076 0.52945 0.8852 0.0
H411 H 0.47713 0.42367 0.8685 0.0
N412 N 0.31985 0.37661 0.87959 0.0
H413 H 0.39387 0.36346 0.86924 0.0
C414 C 0.68279 0.65323 0.8953 0.0
C415 C 0.67687 0.69303 0.89451 0.0
C416 C 0.69759 0.72838 0.90924 0.0
C417 C 0.72442 0.72458 0.92506 0.0
C418 C 0.72913 0.68413 0.92608 0.0
C419 C 0.70856 0.64891 0.91131 0.0
C420 C 0.68932 0.6385 0.86043 0.0
C421 C 0.7329 0.64146 0.85671 0.0
C422 C 0.76017 0.66649 0.83998 0.0
C423 C 0.74417 0.68888 0.82653 0.0
C424 C 0.69952 0.68424 0.82973 0.0
C425 C 0.67242 0.65953 0.84662 0.0
C426 C 0.61463 0.58669 0.87807 0.0
C427 C 0.58294 0.58734 0.89249 0.0
C428 C 0.53487 0.55378 0.89183 0.0
C429 C 0.51686 0.51828 0.87693 0.0
C430 C 0.54823 0.51735 0.8626 0.0
C431 C 0.5964 0.55066 0.86335 0.0
C432 C 0.30345 0.35156 0.89861 0.0
C433 C 0.25933 0.34203 0.90589 0.0
C434 C 0.23875 0.31244 0.9226 0.0
C435 C 0.26217 0.29195 0.93264 0.0
C436 C 0.30727 0.30288 0.92576 0.0
C437 C 0.32757 0.33204 0.90884 0.0
C438 C 0.29911 0.34746 0.86191 0.0
C439 C 0.29842 0.3044 0.85932 0.0
C440 C 0.27227 0.27383 0.84359 0.0
C441 C 0.24667 0.28585 0.83005 0.0
C442 C 0.24941 0.32996 0.83204 0.0
C443 C 0.27532 0.36038 0.84789 0.0
C444 C 0.36934 0.41138 0.87821 0.0
C445 C 0.38352 0.4585 0.88263 0.0
C446 C 0.43117 0.4933 0.88187 0.0
C447 C 0.46586 0.48157 0.87681 0.0
C448 C 0.45145 0.43422 0.87216 0.0
C449 C 0.4037 0.39952 0.87275 0.0
C450 C 0.94393 0.15993 0.1328 0.0
C451 C 0.96939 0.16969 0.11455 0.0
H452 H 0.93446 0.18756 0.16079 0.0
C453 C 0.00385 0.21655 0.11008 0.0
H454 H 0.91714 0.1241 0.13656 0.0
C455 C 0.01402 0.25267 0.12397 0.0
C456 C 0.98946 0.24272 0.14245 0.0
H457 H 0.02434 0.22497 0.09622 0.0
H458 H 0.0417 0.28827 0.12044 0.0
C459 C 0.95363 0.19621 0.14656 0.0
C460 C 0.76626 0.95468 0.45332 0.0
C461 C 0.8064 0.9918 0.44407 0.0
H462 H 0.7096 0.93491 0.47446 0.0
C463 C 0.82054 0.0385 0.44951 0.0
H464 H 0.75454 0.91834 0.44931 0.0
C465 C 0.79558 0.04803 0.4641 0.0
C466 C 0.75528 0.01112 0.47347 0.0
H467 H 0.85191 0.06777 0.44292 0.0
H468 H 0.80893 0.08448 0.46843 0.0
C469 C 0.7407 0.96425 0.46777 0.0
C470 C 0.85196 0.78446 0.79959 0.0
C471 C 0.83495 0.78278 0.77979 0.0
H472 H 0.83666 0.75627 0.82973 0.0
C473 C 0.78784 0.74868 0.77533 0.0
H474 H 0.88756 0.81086 0.80381 0.0
C475 C 0.75834 0.71776 0.7904 0.0
C476 C 0.7755 0.71987 0.81016 0.0
H477 H 0.77366 0.74584 0.76021 0.0
H478 H 0.72216 0.6921 0.7866 0.0
C479 C 0.8227 0.75326 0.81453 0.0
C480 C 0.02955 0.80417 0.1156 0.0
C481 C 0.99091 0.80834 0.10893 0.0
H482 H 0.05361 0.76747 0.13483 0.0
C483 C 0.9459 0.7774 0.11692 0.0
H484 H 0.0646 0.82723 0.10962 0.0
C485 C 0.93962 0.74335 0.13128 0.0
C486 C 0.97817 0.73926 0.13809 0.0
H487 H 0.91553 0.7803 0.1125 0.0
H488 H 0.90463 0.72112 0.1375 0.0
C489 C 0.02323 0.76996 0.13003 0.0
C490 C 0.20932 0.99556 0.44718 0.0
C491 C 0.19192 0.02711 0.44616 0.0
H492 H 0.25652 0.97731 0.46189 0.0
C493 C 0.21082 0.0662 0.45928 0.0
H494 H 0.19525 0.96491 0.43737 0.0
C495 C 0.24561 0.07311 0.47338 0.0
C496 C 0.26239 0.0411 0.47471 0.0
H497 H 0.1986 0.09148 0.45871 0.0
H498 H 0.25845 0.10293 0.48362 0.0
C499 C 0.24411 0.00242 0.46134 0.0
C500 C 0.18365 0.23281 0.78032 0.0
C501 C 0.15337 0.18544 0.78588 0.0
H502 H 0.23703 0.3018 0.78996 0.0
C503 C 0.15425 0.17142 0.80597 0.0
H504 H 0.18354 0.24463 0.76496 0.0
C505 C 0.1849 0.20397 0.82019 0.0
C506 C 0.21511 0.25135 0.81468 0.0
H507 H 0.1317 0.13506 0.81063 0.0
H508 H 0.18451 0.19216 0.83561 0.0
C509 C 0.21404 0.26553 0.79463 0.0
C510 C 0.8473 0.08119 0.63498 0.0
C511 C 0.8372 0.03547 0.6403 0.0
H512 H 0.82874 0.12362 0.61675 0.0
C513 C 0.79881 0.9965 0.63105 0.0
H514 H 0.87639 0.11183 0.64208 0.0
C515 C 0.77201 0.00314 0.61624 0.0
C516 C 0.78261 0.04895 0.61054 0.0
H517 H 0.79058 0.96087 0.63473 0.0
H518 H 0.74403 0.97229 0.6088 0.0
C519 C 0.8201 0.08787 0.62039 0.0
C520 C 0.77769 0.78991 0.97427 0.0
C521 C 0.80394 0.837 0.96757 0.0
H522 H 0.73163 0.71759 0.96616 0.0
C523 C 0.80126 0.84711 0.94702 0.0
H524 H 0.77937 0.78083 0.98995 0.0
C525 C 0.77416 0.81077 0.93335 0.0
C526 C 0.74935 0.76351 0.93992 0.0
H527 H 0.82078 0.88307 0.94143 0.0
H528 H 0.77407 0.81956 0.91749 0.0
C529 C 0.75077 0.75359 0.9606 0.0
C530 C 0.90385 0.74585 0.29936 0.0
C531 C 0.94527 0.78989 0.30152 0.0
H532 H 0.86924 0.67944 0.28375 0.0
C533 C 0.98471 0.79988 0.2895 0.0
H534 H 0.87281 0.73715 0.30834 0.0
C535 C 0.98255 0.76717 0.27534 0.0
C536 C 0.94096 0.72343 0.27288 0.0
H537 H 0.01744 0.83313 0.29101 0.0
H538 H 0.01326 0.77673 0.26598 0.0
C539 C 0.90169 0.71298 0.28515 0.0
C540 C 0.22691 0.0335 0.64168 0.0
C541 C 0.18412 0.99026 0.64111 0.0
H542 H 0.29377 0.07835 0.62775 0.0
C543 C 0.17747 0.95764 0.62573 0.0
H544 H 0.23314 0.05983 0.65309 0.0
C545 C 0.21218 0.96872 0.61092 0.0
C546 C 0.2542 0.01268 0.61116 0.0
H547 H 0.14516 0.92382 0.62497 0.0
H548 H 0.20534 0.94357 0.59887 0.0
C549 C 0.26153 0.04445 0.62697 0.0
C550 C 0.21787 0.18315 0.9663 0.0
C551 C 0.18618 0.18783 0.97921 0.0
H552 H 0.26593 0.21153 0.94135 0.0
C553 C 0.18218 0.22863 0.97745 0.0
H554 H 0.22254 0.15268 0.96736 0.0
C555 C 0.20822 0.26314 0.96296 0.0
C556 C 0.23838 0.25755 0.94948 0.0
H557 H 0.15771 0.23344 0.98681 0.0
H558 H 0.20401 0.29392 0.96213 0.0
C559 C 0.24342 0.21742 0.95155 0.0
C560 C 0.05981 0.23829 0.30749 0.0
C561 C 0.03796 0.18994 0.30271 0.0
H562 H 0.07762 0.30772 0.29734 0.0
C563 C 0.01722 0.17469 0.28349 0.0
H564 H 0.07624 0.25102 0.32217 0.0
C565 C 0.0178 0.2069 0.26942 0.0
C566 C 0.03935 0.25517 0.27419 0.0
H567 H 0.99963 0.13762 0.27945 0.0
H568 H 0.00151 0.19399 0.25473 0.0
C569 C 0.06082 0.2707 0.29328 0.0
loop_
_geom_bond_atom_site_label_1
_geom_bond_atom_site_label_2
_geom_bond_distance
_geom_bond_site_symmetry_2
_ccdc_geom_bond_type
Li0 N17 1.990 . S
Li0 O60 1.956 . S
Li0 O61 1.970 1_455 S
Li0 O62 1.961 1_545 S
Li1 N25 1.990 . S
Li1 O60 1.970 1_655 S
Li1 O61 1.956 . S
Li1 O63 1.961 1_545 S
Li2 N47 1.990 . S
Li2 O60 1.961 1_565 S
Li2 O62 1.956 . S
Li2 O63 1.970 1_455 S
Li3 N53 1.990 . S
Li3 O61 1.961 1_565 S
Li3 O62 1.970 1_655 S
Li3 O63 1.956 . S
C4 C6 1.348 . S
C4 C7 1.356 . S
C4 O60 1.325 . S
N5 C8 1.314 . S
N5 C9 1.279 . S
C6 C4 1.348 . S
C6 C8 1.353 . S
C6 H64 0.929 . S
C7 C4 1.356 . S
C7 C9 1.358 . S
C7 H65 0.930 . S
C8 N5 1.314 . S
C8 C6 1.353 . S
C8 H66 0.930 . S
C9 N5 1.279 . S
C9 C7 1.358 . S
C9 H67 0.930 . S
C10 C13 1.348 1_655 S
C10 C14 1.356 . S
C10 O61 1.325 . S
C11 N12 1.279 1_554 S
C11 C14 1.358 . S
C11 H68 0.930 . S
N12 C11 1.279 1_556 S
N12 C15 1.314 . S
C13 C10 1.348 1_455 S
C13 C15 1.353 1_454 S
C13 H69 0.929 . S
C14 C10 1.356 . S
C14 C11 1.358 . S
C14 H70 0.930 . S
C15 N12 1.314 . S
C15 C13 1.353 1_656 S
C15 H71 0.930 1_655 S
C16 N17 1.314 1_556 S
C16 C21 1.353 . S
C16 H22 0.930 . S
N17 Li0 1.990 . S
N17 C16 1.314 1_554 S
N17 C19 1.279 . S
C18 C19 1.358 . S
C18 C20 1.356 1_554 S
C18 H72 0.930 . S
C19 N17 1.279 . S
C19 C18 1.358 . S
C19 H23 0.930 . S
C20 C18 1.356 1_556 S
C20 C21 1.348 . S
C21 C16 1.353 . S
C21 C20 1.348 . S
C21 H73 0.929 . S
H22 C16 0.930 . S
H23 C19 0.930 . S
C24 N25 1.314 . S
C24 C26 1.353 . S
C24 H30 0.930 . S
N25 Li1 1.990 . S
N25 C24 1.314 . S
N25 C28 1.279 . S
C26 C24 1.353 . S
C26 C29 1.348 . S
C26 H74 0.929 . S
C27 C28 1.358 . S
C27 C29 1.356 . S
C27 H75 0.930 . S
C28 N25 1.279 . S
C28 C27 1.358 . S
C28 H31 0.930 . S
C29 C26 1.348 . S
C29 C27 1.356 . S
H30 C24 0.930 . S
H31 C28 0.930 . S
C32 C34 1.348 1_455 S
C32 C35 1.356 . S
C32 O62 1.325 . S
N33 C36 1.314 . S
N33 C37 1.279 1_556 S
C34 C32 1.348 1_655 S
C34 C36 1.353 1_654 S
C34 H76 0.929 . S
C35 C32 1.356 . S
C35 C37 1.358 . S
C35 H77 0.930 . S
C36 N33 1.314 . S
C36 C34 1.353 1_456 S
C36 H78 0.930 1_455 S
C37 N33 1.279 1_554 S
C37 C35 1.358 . S
C37 H79 0.930 . S
C38 C39 1.348 . S
C38 C40 1.356 . S
C38 O63 1.325 . S
C39 C38 1.348 . S
C39 C41 1.353 . S
C39 H80 0.929 . S
C40 C38 1.356 . S
C40 C42 1.358 . S
C40 H81 0.930 . S
C41 C39 1.353 . S
C41 N43 1.314 . S
C41 H82 0.930 . S
C42 C40 1.358 . S
C42 N43 1.279 . S
C42 H83 0.930 . S
N43 C41 1.314 . S
N43 C42 1.279 . S
C44 C46 1.353 . S
C44 N47 1.314 . S
C44 H50 0.930 . S
C45 N47 1.279 . S
C45 C48 1.358 . S
C45 H51 0.930 . S
C46 C44 1.353 . S
C46 C49 1.348 . S
C46 H84 0.929 . S
N47 Li2 1.990 . S
N47 C44 1.314 . S
N47 C45 1.279 . S
C48 C45 1.358 . S
C48 C49 1.356 . S
C48 H85 0.930 . S
C49 C46 1.348 . S
C49 C48 1.356 . S
H50 C44 0.930 . S
H51 C45 0.930 . S
C52 N53 1.314 1_556 S
C52 C54 1.353 . S
C52 H58 0.930 . S
N53 Li3 1.990 . S
N53 C52 1.314 1_554 S
N53 C56 1.279 . S
C54 C52 1.353 . S
C54 C57 1.348 . S
C54 H86 0.929 . S
C55 C56 1.358 . S
C55 C57 1.356 1_554 S
C55 H87 0.930 . S
C56 N53 1.279 . S
C56 C55 1.358 . S
C56 H59 0.930 . S
C57 C54 1.348 . S
C57 C55 1.356 1_556 S
H58 C52 0.930 . S
H59 C56 0.930 . S
O60 Li0 1.956 . S
O60 Li1 1.970 1_455 S
O60 Li2 1.961 1_545 S
O60 C4 1.325 . S
O61 Li0 1.970 1_655 S
O61 Li1 1.956 . S
O61 Li3 1.961 1_545 S
O61 C10 1.325 . S
O62 Li0 1.961 1_565 S
O62 Li2 1.956 . S
O62 Li3 1.970 1_455 S
O62 C32 1.325 . S
O63 Li1 1.961 1_565 S
O63 Li2 1.970 1_655 S
O63 Li3 1.956 . S
O63 C38 1.325 . S
H64 C6 0.929 . S
H65 C7 0.930 . S
H66 C8 0.930 . S
H67 C9 0.930 . S
H68 C11 0.930 . S
H69 C13 0.929 . S
H70 C14 0.930 . S
H71 C15 0.930 1_455 S
H72 C18 0.930 . S
H73 C21 0.929 . S
H74 C26 0.929 . S
H75 C27 0.930 . S
H76 C34 0.929 . S
H77 C35 0.930 . S
H78 C36 0.930 1_655 S
H79 C37 0.930 . S
H80 C39 0.929 . S
H81 C40 0.930 . S
H82 C41 0.930 . S
H83 C42 0.930 . S
H84 C46 0.929 . S
H85 C48 0.930 . S
H86 C54 0.929 . S
H87 C55 0.930 . S
Li88 N105 1.990 . S
Li88 O148 1.956 . S
Li88 O149 1.970 1_665 S
Li88 O150 1.961 . S
Li89 N113 1.990 . S
Li89 O148 1.970 1_445 S
Li89 O149 1.956 . S
Li89 O151 1.961 . S
Li90 N135 1.990 . S
Li90 O148 1.961 . S
Li90 O150 1.956 . S
Li90 O151 1.970 1_665 S
Li91 N141 1.990 . S
Li91 O149 1.961 . S
Li91 O150 1.970 1_445 S
Li91 O151 1.956 . S
C92 C94 1.348 1_655 S
C92 C95 1.356 . S
C92 O148 1.325 . S
N93 C96 1.314 . S
N93 C97 1.279 . S
C94 C92 1.348 1_455 S
C94 C96 1.353 1_455 S
C94 H152 0.929 . S
C95 C92 1.356 . S
C95 C97 1.358 . S
C95 H153 0.930 . S
C96 N93 1.314 . S
C96 C94 1.353 1_655 S
C96 H154 0.930 1_655 S
C97 N93 1.279 . S
C97 C95 1.358 . S
C97 H155 0.930 . S
C98 C101 1.348 1_545 S
C98 C102 1.356 . S
C98 O149 1.325 . S
C99 N100 1.279 . S
C99 C102 1.358 . S
C99 H156 0.930 . S
N100 C99 1.279 . S
N100 C103 1.314 . S
C101 C98 1.348 1_565 S
C101 C103 1.353 1_565 S
C101 H157 0.929 . S
C102 C98 1.356 . S
C102 C99 1.358 . S
C102 H158 0.930 . S
C103 N100 1.314 . S
C103 C101 1.353 1_545 S
C103 H159 0.930 1_545 S
C104 N105 1.314 . S
C104 C109 1.353 . S
C104 H110 0.930 . S
N105 Li88 1.990 . S
N105 C104 1.314 . S
N105 C107 1.279 . S
C106 C107 1.358 . S
C106 C108 1.356 . S
C106 H160 0.930 . S
C107 N105 1.279 . S
C107 C106 1.358 . S
C107 H111 0.930 . S
C108 C106 1.356 . S
C108 C109 1.348 . S
C109 C104 1.353 . S
C109 C108 1.348 . S
C109 H161 0.929 . S
H110 C104 0.930 . S
H111 C107 0.930 . S
C112 N113 1.314 . S
C112 C114 1.353 . S
C112 H118 0.930 . S
N113 Li89 1.990 . S
N113 C112 1.314 . S
N113 C116 1.279 . S
C114 C112 1.353 . S
C114 C117 1.348 . S
C114 H162 0.929 . S
C115 C116 1.358 . S
C115 C117 1.356 . S
C115 H163 0.930 . S
C116 N113 1.279 . S
C116 C115 1.358 . S
C116 H119 0.930 . S
C117 C114 1.348 . S
C117 C115 1.356 . S
H118 C112 0.930 . S
H119 C116 0.930 . S
C120 C122 1.348 1_565 S
C120 C123 1.356 . S
C120 O150 1.325 . S
N121 C124 1.314 . S
N121 C125 1.279 . S
C122 C120 1.348 1_545 S
C122 C124 1.353 1_545 S
C122 H164 0.929 . S
C123 C120 1.356 . S
C123 C125 1.358 . S
C123 H165 0.930 . S
C124 N121 1.314 . S
C124 C122 1.353 1_565 S
C124 H166 0.930 1_565 S
C125 N121 1.279 . S
C125 C123 1.358 . S
C125 H167 0.930 . S
C126 C127 1.348 1_455 S
C126 C128 1.356 . S
C126 O151 1.325 . S
C127 C126 1.348 1_655 S
C127 C129 1.353 1_655 S
C127 H168 0.929 . S
C128 C126 1.356 . S
C128 C130 1.358 . S
C128 H169 0.930 . S
C129 C127 1.353 1_455 S
C129 N131 1.314 . S
C129 H170 0.930 1_455 S
C130 C128 1.358 . S
C130 N131 1.279 . S
C130 H171 0.930 . S
N131 C129 1.314 . S
N131 C130 1.279 . S
C132 C134 1.353 . S
C132 N135 1.314 . S
C132 H138 0.930 . S
C133 N135 1.279 . S
C133 C136 1.358 . S
C133 H139 0.930 . S
C134 C132 1.353 . S
C134 C137 1.348 . S
C134 H172 0.929 . S
N135 Li90 1.990 . S
N135 C132 1.314 . S
N135 C133 1.279 . S
C136 C133 1.358 . S
C136 C137 1.356 . S
C136 H173 0.930 . S
C137 C134 1.348 . S
C137 C136 1.356 . S
H138 C132 0.930 . S
H139 C133 0.930 . S
C140 N141 1.314 . S
C140 C142 1.353 . S
C140 H146 0.930 . S
N141 Li91 1.990 . S
N141 C140 1.314 . S
N141 C144 1.279 . S
C142 C140 1.353 . S
C142 C145 1.348 . S
C142 H174 0.929 . S
C143 C144 1.358 . S
C143 C145 1.356 . S
C143 H175 0.930 . S
C144 N141 1.279 . S
C144 C143 1.358 . S
C144 H147 0.930 . S
C145 C142 1.348 . S
C145 C143 1.356 . S
H146 C140 0.930 . S
H147 C144 0.930 . S
O148 Li88 1.956 . S
O148 Li89 1.970 1_665 S
O148 Li90 1.961 . S
O148 C92 1.325 . S
O149 Li88 1.970 1_445 S
O149 Li89 1.956 . S
O149 Li91 1.961 . S
O149 C98 1.325 . S
O150 Li88 1.961 . S
O150 Li90 1.956 . S
O150 Li91 1.970 1_665 S
O150 C120 1.325 . S
O151 Li89 1.961 . S
O151 Li90 1.970 1_445 S
O151 Li91 1.956 . S
O151 C126 1.325 . S
H152 C94 0.929 . S
H153 C95 0.930 . S
H154 C96 0.930 1_455 S
H155 C97 0.930 . S
H156 C99 0.930 . S
H157 C101 0.929 . S
H158 C102 0.930 . S
H159 C103 0.930 1_565 S
H160 C106 0.930 . S
H161 C109 0.929 . S
H162 C114 0.929 . S
H163 C115 0.930 . S
H164 C122 0.929 . S
H165 C123 0.930 . S
H166 C124 0.930 1_545 S
H167 C125 0.930 . S
H168 C127 0.929 . S
H169 C128 0.930 . S
H170 C129 0.930 1_655 S
H171 C130 0.930 . S
H172 C134 0.929 . S
H173 C136 0.930 . S
H174 C142 0.929 . S
H175 C143 0.930 . S
Li176 N193 1.990 . S
Li176 O236 1.956 . S
Li176 O237 1.970 1_565 S
Li176 O238 1.961 1_455 S
Li177 N201 1.990 . S
Li177 O236 1.970 1_545 S
Li177 O237 1.956 . S
Li177 O239 1.961 1_455 S
Li178 N223 1.990 . S
Li178 O236 1.961 1_655 S
Li178 O238 1.956 . S
Li178 O239 1.970 1_565 S
Li179 N229 1.990 . S
Li179 O237 1.961 1_655 S
Li179 O238 1.970 1_545 S
Li179 O239 1.956 . S
C180 C182 1.348 1_565 S
C180 C183 1.356 . S
C180 O236 1.325 . S
N181 C184 1.314 . S
N181 C185 1.279 . S
C182 C180 1.348 1_545 S
C182 C184 1.353 1_545 S
C182 H240 0.929 . S
C183 C180 1.356 . S
C183 C185 1.358 . S
C183 H241 0.930 . S
C184 N181 1.314 . S
C184 C182 1.353 1_565 S
C184 H242 0.930 1_565 S
C185 N181 1.279 . S
C185 C183 1.358 . S
C185 H243 0.930 . S
C186 C189 1.348 . S
C186 C190 1.356 . S
C186 O237 1.325 . S
C187 N188 1.279 . S
C187 C190 1.358 . S
C187 H244 0.930 . S
N188 C187 1.279 . S
N188 C191 1.314 . S
C189 C186 1.348 . S
C189 C191 1.353 . S
C189 H245 0.929 . S
C190 C186 1.356 . S
C190 C187 1.358 . S
C190 H246 0.930 . S
C191 N188 1.314 . S
C191 C189 1.353 . S
C191 H247 0.930 . S
C192 N193 1.314 . S
C192 C197 1.353 . S
C192 H198 0.930 . S
N193 Li176 1.990 . S
N193 C192 1.314 . S
N193 C195 1.279 . S
C194 C195 1.358 . S
C194 C196 1.356 . S
C194 H248 0.930 . S
C195 N193 1.279 . S
C195 C194 1.358 . S
C195 H199 0.930 . S
C196 C194 1.356 . S
C196 C197 1.348 . S
C197 C192 1.353 . S
C197 C196 1.348 . S
C197 H249 0.929 . S
H198 C192 0.930 . S
H199 C195 0.930 . S
C200 N201 1.314 . S
C200 C202 1.353 . S
C200 H206 0.930 . S
N201 Li177 1.990 . S
N201 C200 1.314 . S
N201 C204 1.279 . S
C202 C200 1.353 . S
C202 C205 1.348 . S
C202 H250 0.929 . S
C203 C204 1.358 . S
C203 C205 1.356 . S
C203 H251 0.930 . S
C204 N201 1.279 . S
C204 C203 1.358 . S
C204 H207 0.930 . S
C205 C202 1.348 . S
C205 C203 1.356 . S
H206 C200 0.930 . S
H207 C204 0.930 . S
C208 C210 1.348 . S
C208 C211 1.356 . S
C208 O238 1.325 . S
N209 C212 1.314 . S
N209 C213 1.279 . S
C210 C208 1.348 . S
C210 C212 1.353 . S
C210 H252 0.929 . S
C211 C208 1.356 . S
C211 C213 1.358 . S
C211 H253 0.930 . S
C212 N209 1.314 . S
C212 C210 1.353 . S
C212 H254 0.930 . S
C213 N209 1.279 . S
C213 C211 1.358 . S
C213 H255 0.930 . S
C214 C215 1.348 1_545 S
C214 C216 1.356 . S
C214 O239 1.325 . S
C215 C214 1.348 1_565 S
C215 C217 1.353 1_565 S
C215 H256 0.929 . S
C216 C214 1.356 . S
C216 C218 1.358 . S
C216 H257 0.930 . S
C217 C215 1.353 1_545 S
C217 N219 1.314 . S
C217 H258 0.930 1_545 S
C218 C216 1.358 . S
C218 N219 1.279 . S
C218 H259 0.930 . S
N219 C217 1.314 . S
N219 C218 1.279 . S
C220 C222 1.353 . S
C220 N223 1.314 . S
C220 H226 0.930 . S
C221 N223 1.279 . S
C221 C224 1.358 . S
C221 H227 0.930 . S
C222 C220 1.353 . S
C222 C225 1.348 . S
C222 H260 0.929 . S
N223 Li178 1.990 . S
N223 C220 1.314 . S
N223 C221 1.279 . S
C224 C221 1.358 . S
C224 C225 1.356 . S
C224 H261 0.930 . S
C225 C222 1.348 . S
C225 C224 1.356 . S
H226 C220 0.930 . S
H227 C221 0.930 . S
C228 N229 1.314 . S
C228 C230 1.353 . S
C228 H234 0.930 . S
N229 Li179 1.990 . S
N229 C228 1.314 . S
N229 C232 1.279 . S
C230 C228 1.353 . S
C230 C233 1.348 . S
C230 H262 0.929 . S
C231 C232 1.358 . S
C231 C233 1.356 . S
C231 H263 0.930 . S
C232 N229 1.279 . S
C232 C231 1.358 . S
C232 H235 0.930 . S
C233 C230 1.348 . S
C233 C231 1.356 . S
H234 C228 0.930 . S
H235 C232 0.930 . S
O236 Li176 1.956 . S
O236 Li177 1.970 1_565 S
O236 Li178 1.961 1_455 S
O236 C180 1.325 . S
O237 Li176 1.970 1_545 S
O237 Li177 1.956 . S
O237 Li179 1.961 1_455 S
O237 C186 1.325 . S
O238 Li176 1.961 1_655 S
O238 Li178 1.956 . S
O238 Li179 1.970 1_565 S
O238 C208 1.325 . S
O239 Li177 1.961 1_655 S
O239 Li178 1.970 1_545 S
O239 Li179 1.956 . S
O239 C214 1.325 . S
H240 C182 0.929 . S
H241 C183 0.930 . S
H242 C184 0.930 1_545 S
H243 C185 0.930 . S
H244 C187 0.930 . S
H245 C189 0.929 . S
H246 C190 0.930 . S
H247 C191 0.930 . S
H248 C194 0.930 . S
H249 C197 0.929 . S
H250 C202 0.929 . S
H251 C203 0.930 . S
H252 C210 0.929 . S
H253 C211 0.930 . S
H254 C212 0.930 . S
H255 C213 0.930 . S
H256 C215 0.929 . S
H257 C216 0.930 . S
H258 C217 0.930 1_565 S
H259 C218 0.930 . S
H260 C222 0.929 . S
H261 C224 0.930 . S
H262 C230 0.929 . S
H263 C231 0.930 . S
H264 C291 0.929 . S
N265 C290 1.433 . S
N265 C296 1.435 . S
N265 C302 1.423 . S
H266 C292 0.930 . S
H267 C295 0.931 . S
H268 C294 0.929 . S
H269 C297 0.930 . S
H270 C298 0.932 . S
H271 C301 0.929 . S
H272 C300 0.931 . S
H273 C303 0.929 . S
H274 C307 0.932 1_455 S
H275 C304 0.931 . S
H276 C306 0.929 1_455 S
H277 C309 0.929 . S
H278 C310 0.930 . S
H279 C312 0.929 . S
H280 C313 0.931 . S
H281 C315 0.930 . S
H282 C316 0.932 . S
H283 C318 0.931 . S
H284 C319 0.929 . S
H285 C321 0.929 . S
H286 C322 0.931 . S
H287 C324 0.929 1_455 S
N288 C308 1.433 . S
N288 C314 1.435 . S
N288 C320 1.423 . S
H289 C325 0.932 1_455 S
C290 N265 1.433 . S
C290 C291 1.363 . S
C290 C295 1.370 1_655 S
C291 H264 0.929 . S
C291 C290 1.363 . S
C291 C292 1.385 . S
C292 H266 0.930 . S
C292 C291 1.385 . S
C292 C293 1.357 . S
C293 C292 1.357 . S
C293 C294 1.406 1_655 S
C294 H268 0.929 . S
C294 C293 1.406 1_455 S
C294 C295 1.391 . S
C295 H267 0.931 . S
C295 C290 1.370 1_455 S
C295 C294 1.391 . S
C296 N265 1.435 . S
C296 C297 1.358 1_655 S
C296 C301 1.371 . S
C297 H269 0.930 . S
C297 C296 1.358 1_455 S
C297 C298 1.405 . S
C298 H270 0.932 . S
C298 C297 1.405 . S
C298 C299 1.383 1_455 S
C299 C298 1.383 1_655 S
C299 C300 1.393 . S
C300 H272 0.931 . S
C300 C299 1.393 . S
C300 C301 1.382 . S
C301 H271 0.929 . S
C301 C296 1.371 . S
C301 C300 1.382 . S
C302 N265 1.423 . S
C302 C303 1.362 . S
C302 C307 1.388 . S
C303 H273 0.929 . S
C303 C302 1.362 . S
C303 C304 1.376 . S
C304 H275 0.931 . S
C304 C303 1.376 . S
C304 C305 1.396 . S
C305 C304 1.396 . S
C305 C306 1.348 . S
C305 C323 1.472 . S
C306 H276 0.929 1_655 S
C306 C305 1.348 . S
C306 C307 1.443 . S
C307 H274 0.932 1_655 S
C307 C302 1.388 . S
C307 C306 1.443 . S
C308 N288 1.433 . S
C308 C309 1.363 . S
C308 C313 1.370 1_655 S
C309 H277 0.929 . S
C309 C308 1.363 . S
C309 C310 1.385 . S
C310 H278 0.930 . S
C310 C309 1.385 . S
C310 C311 1.357 . S
C311 C310 1.357 . S
C311 C312 1.406 1_655 S
C312 H279 0.929 . S
C312 C311 1.406 1_455 S
C312 C313 1.391 . S
C313 H280 0.931 . S
C313 C308 1.370 1_455 S
C313 C312 1.391 . S
C314 N288 1.435 . S
C314 C315 1.358 1_655 S
C314 C319 1.371 . S
C315 H281 0.930 . S
C315 C314 1.358 1_455 S
C315 C316 1.405 . S
C316 H282 0.932 . S
C316 C315 1.405 . S
C316 C317 1.383 1_455 S
C317 C316 1.383 1_655 S
C317 C318 1.393 . S
C318 H283 0.931 . S
C318 C317 1.393 . S
C318 C319 1.382 . S
C319 H284 0.929 . S
C319 C314 1.371 . S
C319 C318 1.382 . S
C320 N288 1.423 . S
C320 C321 1.362 . S
C320 C325 1.388 . S
C321 H285 0.929 . S
C321 C320 1.362 . S
C321 C322 1.376 . S
C322 H286 0.931 . S
C322 C321 1.376 . S
C322 C323 1.396 . S
C323 C305 1.472 . S
C323 C322 1.396 . S
C323 C324 1.348 . S
C324 H287 0.929 1_655 S
C324 C323 1.348 . S
C324 C325 1.443 . S
C325 H289 0.932 1_655 S
C325 C320 1.388 . S
C325 C324 1.443 . S
H326 C353 0.929 . S
N327 C352 1.433 . S
N327 C358 1.435 . S
N327 C364 1.423 . S
H328 C354 0.930 . S
H329 C357 0.931 . S
H330 C356 0.929 . S
H331 C359 0.930 . S
H332 C360 0.932 . S
H333 C363 0.929 . S
H334 C362 0.931 . S
H335 C365 0.929 . S
H336 C369 0.932 1_565 S
H337 C366 0.931 . S
H338 C368 0.929 1_565 S
H339 C371 0.929 . S
H340 C372 0.930 . S
H341 C374 0.929 . S
H342 C375 0.931 . S
H343 C377 0.930 . S
H344 C378 0.932 . S
H345 C380 0.931 . S
H346 C381 0.929 . S
H347 C383 0.929 . S
H348 C384 0.931 . S
H349 C386 0.929 1_565 S
N350 C370 1.433 . S
N350 C376 1.435 . S
N350 C382 1.423 . S
H351 C387 0.932 1_565 S
C352 N327 1.433 . S
C352 C353 1.363 . S
C352 C357 1.370 1_545 S
C353 H326 0.929 . S
C353 C352 1.363 . S
C353 C354 1.385 . S
C354 H328 0.930 . S
C354 C353 1.385 . S
C354 C355 1.357 . S
C355 C354 1.357 . S
C355 C356 1.406 1_545 S
C356 H330 0.929 . S
C356 C355 1.406 1_565 S
C356 C357 1.391 . S
C357 H329 0.931 . S
C357 C352 1.370 1_565 S
C357 C356 1.391 . S
C358 N327 1.435 . S
C358 C359 1.358 1_545 S
C358 C363 1.371 . S
C359 H331 0.930 . S
C359 C358 1.358 1_565 S
C359 C360 1.405 . S
C360 H332 0.932 . S
C360 C359 1.405 . S
C360 C361 1.383 1_565 S
C361 C360 1.383 1_545 S
C361 C362 1.393 . S
C362 H334 0.931 . S
C362 C361 1.393 . S
C362 C363 1.382 . S
C363 H333 0.929 . S
C363 C358 1.371 . S
C363 C362 1.382 . S
C364 N327 1.423 . S
C364 C365 1.362 . S
C364 C369 1.388 . S
C365 H335 0.929 . S
C365 C364 1.362 . S
C365 C366 1.376 . S
C366 H337 0.931 . S
C366 C365 1.376 . S
C366 C367 1.396 . S
C367 C366 1.396 . S
C367 C368 1.348 . S
C367 C385 1.472 . S
C368 H338 0.929 1_545 S
C368 C367 1.348 . S
C368 C369 1.443 . S
C369 H336 0.932 1_545 S
C369 C364 1.388 . S
C369 C368 1.443 . S
C370 N350 1.433 . S
C370 C371 1.363 . S
C370 C375 1.370 1_545 S
C371 H339 0.929 . S
C371 C370 1.363 . S
C371 C372 1.385 . S
C372 H340 0.930 . S
C372 C371 1.385 . S
C372 C373 1.357 . S
C373 C372 1.357 . S
C373 C374 1.406 1_545 S
C374 H341 0.929 . S
C374 C373 1.406 1_565 S
C374 C375 1.391 . S
C375 H342 0.931 . S
C375 C370 1.370 1_565 S
C375 C374 1.391 . S
C376 N350 1.435 . S
C376 C377 1.358 1_545 S
C376 C381 1.371 . S
C377 H343 0.930 . S
C377 C376 1.358 1_565 S
C377 C378 1.405 . S
C378 H344 0.932 . S
C378 C377 1.405 . S
C378 C379 1.383 1_565 S
C379 C378 1.383 1_545 S
C379 C380 1.393 . S
C380 H345 0.931 . S
C380 C379 1.393 . S
C380 C381 1.382 . S
C381 H346 0.929 . S
C381 C376 1.371 . S
C381 C380 1.382 . S
C382 N350 1.423 . S
C382 C383 1.362 . S
C382 C387 1.388 . S
C383 H347 0.929 . S
C383 C382 1.362 . S
C383 C384 1.376 . S
C384 H348 0.931 . S
C384 C383 1.376 . S
C384 C385 1.396 . S
C385 C367 1.472 . S
C385 C384 1.396 . S
C385 C386 1.348 . S
C386 H349 0.929 1_545 S
C386 C385 1.348 . S
C386 C387 1.443 . S
C387 H351 0.932 1_545 S
C387 C382 1.388 . S
C387 C386 1.443 . S
H388 C415 0.929 . S
N389 C414 1.433 . S
N389 C420 1.435 . S
N389 C426 1.423 . S
H390 C416 0.930 . S
H391 C419 0.931 . S
H392 C418 0.929 . S
H393 C421 0.930 . S
H394 C422 0.932 . S
H395 C425 0.929 . S
H396 C424 0.931 . S
H397 C427 0.929 . S
H398 C431 0.932 . S
H399 C428 0.931 . S
H400 C430 0.929 . S
H401 C433 0.929 . S
H402 C434 0.930 . S
H403 C436 0.929 . S
H404 C437 0.931 . S
H405 C439 0.930 . S
H406 C440 0.932 . S
H407 C442 0.931 . S
H408 C443 0.929 . S
H409 C445 0.929 . S
H410 C446 0.931 . S
H411 C448 0.929 . S
N412 C432 1.433 . S
N412 C438 1.435 . S
N412 C444 1.423 . S
H413 C449 0.932 . S
C414 N389 1.433 . S
C414 C415 1.363 . S
C414 C419 1.370 . S
C415 H388 0.929 . S
C415 C414 1.363 . S
C415 C416 1.385 . S
C416 H390 0.930 . S
C416 C415 1.385 . S
C416 C417 1.357 . S
C417 C416 1.357 . S
C417 C418 1.406 . S
C418 H392 0.929 . S
C418 C417 1.406 . S
C418 C419 1.391 . S
C419 H391 0.931 . S
C419 C414 1.370 . S
C419 C418 1.391 . S
C420 N389 1.435 . S
C420 C421 1.358 . S
C420 C425 1.371 . S
C421 H393 0.930 . S
C421 C420 1.358 . S
C421 C422 1.405 . S
C422 H394 0.932 . S
C422 C421 1.405 . S
C422 C423 1.383 . S
C423 C422 1.383 . S
C423 C424 1.393 . S
C424 H396 0.931 . S
C424 C423 1.393 . S
C424 C425 1.382 . S
C425 H395 0.929 . S
C425 C420 1.371 . S
C425 C424 1.382 . S
C426 N389 1.423 . S
C426 C427 1.362 . S
C426 C431 1.388 . S
C427 H397 0.929 . S
C427 C426 1.362 . S
C427 C428 1.376 . S
C428 H399 0.931 . S
C428 C427 1.376 . S
C428 C429 1.396 . S
C429 C428 1.396 . S
C429 C430 1.348 . S
C429 C447 1.472 . S
C430 H400 0.929 . S
C430 C429 1.348 . S
C430 C431 1.443 . S
C431 H398 0.932 . S
C431 C426 1.388 . S
C431 C430 1.443 . S
C432 N412 1.433 . S
C432 C433 1.363 . S
C432 C437 1.370 . S
C433 H401 0.929 . S
C433 C432 1.363 . S
C433 C434 1.385 . S
C434 H402 0.930 . S
C434 C433 1.385 . S
C434 C435 1.357 . S
C435 C434 1.357 . S
C435 C436 1.406 . S
C436 H403 0.929 . S
C436 C435 1.406 . S
C436 C437 1.391 . S
C437 H404 0.931 . S
C437 C432 1.370 . S
C437 C436 1.391 . S
C438 N412 1.435 . S
C438 C439 1.358 . S
C438 C443 1.371 . S
C439 H405 0.930 . S
C439 C438 1.358 . S
C439 C440 1.405 . S
C440 H406 0.932 . S
C440 C439 1.405 . S
C440 C441 1.383 . S
C441 C440 1.383 . S
C441 C442 1.393 . S
C442 H407 0.931 . S
C442 C441 1.393 . S
C442 C443 1.382 . S
C443 H408 0.929 . S
C443 C438 1.371 . S
C443 C442 1.382 . S
C444 N412 1.423 . S
C444 C445 1.362 . S
C444 C449 1.388 . S
C445 H409 0.929 . S
C445 C444 1.362 . S
C445 C446 1.376 . S
C446 H410 0.931 . S
C446 C445 1.376 . S
C446 C447 1.396 . S
C447 C429 1.472 . S
C447 C446 1.396 . S
C447 C448 1.348 . S
C448 H411 0.929 . S
C448 C447 1.348 . S
C448 C449 1.443 . S
C449 H413 0.932 . S
C449 C444 1.388 . S
C449 C448 1.443 . S
C450 C451 1.387 . S
C450 H454 0.950 . S
C450 C459 1.390 . S
C451 C450 1.387 . S
C451 C453 1.387 1_655 S
H452 C459 0.950 . S
C453 C451 1.387 1_455 S
C453 C455 1.390 . S
C453 H457 0.950 . S
H454 C450 0.950 . S
C455 C453 1.390 . S
C455 C456 1.387 1_455 S
C455 H458 0.950 . S
C456 C455 1.387 1_655 S
C456 C459 1.387 . S
H457 C453 0.950 . S
H458 C455 0.950 . S
C459 C450 1.390 . S
C459 H452 0.950 . S
C459 C456 1.387 . S
C460 C461 1.387 . S
C460 H464 0.950 . S
C460 C469 1.390 . S
C461 C460 1.387 . S
C461 C463 1.387 . S
H462 C469 0.950 . S
C463 C461 1.387 . S
C463 C465 1.390 1_565 S
C463 H467 0.950 1_565 S
H464 C460 0.950 . S
C465 C463 1.390 1_545 S
C465 C466 1.387 1_545 S
C465 H468 0.950 . S
C466 C465 1.387 1_565 S
C466 C469 1.387 . S
H467 C463 0.950 1_545 S
H468 C465 0.950 . S
C469 C460 1.390 . S
C469 H462 0.950 . S
C469 C466 1.387 . S
C470 C471 1.387 . S
C470 H474 0.950 . S
C470 C479 1.390 . S
C471 C470 1.387 . S
C471 C473 1.387 . S
H472 C479 0.950 . S
C473 C471 1.387 . S
C473 C475 1.390 . S
C473 H477 0.950 . S
H474 C470 0.950 . S
C475 C473 1.390 . S
C475 C476 1.387 . S
C475 H478 0.950 . S
C476 C475 1.387 . S
C476 C479 1.387 . S
H477 C473 0.950 . S
H478 C475 0.950 . S
C479 C470 1.390 . S
C479 H472 0.950 . S
C479 C476 1.387 . S
C480 C481 1.387 . S
C480 H484 0.950 . S
C480 C489 1.390 . S
C481 C480 1.387 . S
C481 C483 1.387 1_455 S
H482 C489 0.950 . S
C483 C481 1.387 1_655 S
C483 C485 1.390 . S
C483 H487 0.950 . S
H484 C480 0.950 . S
C485 C483 1.390 . S
C485 C486 1.387 1_655 S
C485 H488 0.950 . S
C486 C485 1.387 1_455 S
C486 C489 1.387 . S
H487 C483 0.950 . S
H488 C485 0.950 . S
C489 C480 1.390 . S
C489 H482 0.950 . S
C489 C486 1.387 . S
C490 C491 1.387 1_565 S
C490 H494 0.950 . S
C490 C499 1.390 . S
C491 C490 1.387 1_545 S
C491 C493 1.387 . S
H492 C499 0.950 . S
C493 C491 1.387 . S
C493 C495 1.390 . S
C493 H497 0.950 . S
H494 C490 0.950 . S
C495 C493 1.390 . S
C495 C496 1.387 . S
C495 H498 0.950 . S
C496 C495 1.387 . S
C496 C499 1.387 1_545 S
H497 C493 0.950 . S
H498 C495 0.950 . S
C499 C490 1.390 . S
C499 H492 0.950 . S
C499 C496 1.387 1_565 S
C500 C501 1.387 . S
C500 H504 0.950 . S
C500 C509 1.390 . S
C501 C500 1.387 . S
C501 C503 1.387 . S
H502 C509 0.950 . S
C503 C501 1.387 . S
C503 C505 1.390 . S
C503 H507 0.950 . S
H504 C500 0.950 . S
C505 C503 1.390 . S
C505 C506 1.387 . S
C505 H508 0.950 . S
C506 C505 1.387 . S
C506 C509 1.387 . S
H507 C503 0.950 . S
H508 C505 0.950 . S
C509 C500 1.390 . S
C509 H502 0.950 . S
C509 C506 1.387 . S
C510 C511 1.387 . S
C510 H514 0.950 . S
C510 C519 1.390 . S
C511 C510 1.387 . S
C511 C513 1.387 . S
H512 C519 0.950 . S
C513 C511 1.387 . S
C513 C515 1.390 1_545 S
C513 H517 0.950 1_545 S
H514 C510 0.950 . S
C515 C513 1.390 1_565 S
C515 C516 1.387 1_565 S
C515 H518 0.950 . S
C516 C515 1.387 1_545 S
C516 C519 1.387 . S
H517 C513 0.950 1_565 S
H518 C515 0.950 . S
C519 C510 1.390 . S
C519 H512 0.950 . S
C519 C516 1.387 . S
C520 C521 1.387 . S
C520 H524 0.950 . S
C520 C529 1.390 . S
C521 C520 1.387 . S
C521 C523 1.387 . S
H522 C529 0.950 . S
C523 C521 1.387 . S
C523 C525 1.390 . S
C523 H527 0.950 . S
H524 C520 0.950 . S
C525 C523 1.390 . S
C525 C526 1.387 . S
C525 H528 0.950 . S
C526 C525 1.387 . S
C526 C529 1.387 . S
H527 C523 0.950 . S
H528 C525 0.950 . S
C529 C520 1.390 . S
C529 H522 0.950 . S
C529 C526 1.387 . S
C530 C531 1.387 . S
C530 H534 0.950 . S
C530 C539 1.390 . S
C531 C530 1.387 . S
C531 C533 1.387 . S
H532 C539 0.950 . S
C533 C531 1.387 . S
C533 C535 1.390 1_655 S
C533 H537 0.950 . S
H534 C530 0.950 . S
C535 C533 1.390 1_455 S
C535 C536 1.387 1_455 S
C535 H538 0.950 . S
C536 C535 1.387 1_655 S
C536 C539 1.387 . S
H537 C533 0.950 . S
H538 C535 0.950 . S
C539 C530 1.390 . S
C539 H532 0.950 . S
C539 C536 1.387 . S
C540 C541 1.387 . S
C540 H544 0.950 . S
C540 C549 1.388 . S
C541 C540 1.387 . S
C541 C543 1.387 . S
H542 C549 0.948 1_545 S
C543 C541 1.387 . S
C543 C545 1.390 . S
C543 H547 0.950 . S
H544 C540 0.950 . S
C545 C543 1.390 . S
C545 C546 1.387 . S
C545 H548 0.950 . S
C546 C545 1.387 . S
C546 C549 1.392 . S
H547 C543 0.950 . S
H548 C545 0.950 . S
C549 C540 1.388 . S
C549 H542 0.948 1_565 S
C549 C546 1.392 . S
C550 C551 1.387 . S
C550 H554 0.950 . S
C550 C559 1.390 . S
C551 C550 1.387 . S
C551 C553 1.387 . S
H552 C559 0.950 . S
C553 C551 1.387 . S
C553 C555 1.390 . S
C553 H557 0.950 . S
H554 C550 0.950 . S
C555 C553 1.390 . S
C555 C556 1.387 . S
C555 H558 0.950 . S
C556 C555 1.387 . S
C556 C559 1.387 . S
H557 C553 0.950 . S
H558 C555 0.950 . S
C559 C550 1.390 . S
C559 H552 0.950 . S
C559 C556 1.387 . S
C560 C561 1.387 . S
C560 H564 0.950 . S
C560 C569 1.390 . S
C561 C560 1.387 . S
C561 C563 1.387 . S
H562 C569 0.950 . S
C563 C561 1.387 . S
C563 C565 1.390 1_455 S
C563 H567 0.950 1_455 S
H564 C560 0.950 . S
C565 C563 1.390 1_655 S
C565 C566 1.387 1_655 S
C565 H568 0.950 . S
C566 C565 1.387 1_455 S
C566 C569 1.387 . S
H567 C563 0.950 1_655 S
H568 C565 0.950 . S
C569 C560 1.390 . S
C569 H562 0.950 . S
C569 C566 1.387 . S
C456 C317 1.431 . S
C451 C29 1.411 . S
C461 C137 1.415 . S
C466 C361 1.458 1_565 S
C471 C225 1.415 . S
C476 C423 1.458 . S
C481 C49 1.414 . S
C486 C299 1.457 1_455 S
C496 C379 1.432 . S
C491 C117 1.411 . S
C501 C205 1.412 . S
C506 C441 1.428 . S
C516 C355 1.592 . S
C511 C233 1.710 . S
C521 C57 1.706 . S
C526 C417 1.594 . S
C536 C293 1.590 . S
C531 C108 1.708 . S
C546 C373 1.644 1_565 S
C541 C196 1.703 . S
C556 C435 1.641 . S
C551 C20 1.705 . S
C561 C145 1.706 . S
C566 C311 1.639 1_455 S
