# Generated by pormake.
# Topology ctn, (3,4)-cn, num edge types: 1
# Building blocks:
#     Node 0, Type 0, BuildingBlock: BELTOD_clean_linker_0, # of connection points: 3
#     Node 1, Type 0, BuildingBlock: BELTOD_clean_linker_0, # of connection points: 3
#     Node 2, Type 0, BuildingBlock: BELTOD_clean_linker_0, # of connection points: 3
#     Node 3, Type 0, BuildingBlock: BELTOD_clean_linker_0, # of connection points: 3
#     Node 4, Type 0, BuildingBlock: BELTOD_clean_linker_0, # of connection points: 3
#     Node 5, Type 0, BuildingBlock: BELTOD_clean_linker_0, # of connection points: 3
#     Node 6, Type 0, BuildingBlock: BELTOD_clean_linker_0, # of connection points: 3
#     Node 7, Type 0, BuildingBlock: BELTOD_clean_linker_0, # of connection points: 3
#     Node 8, Type 0, BuildingBlock: BELTOD_clean_linker_0, # of connection points: 3
#     Node 9, Type 0, BuildingBlock: BELTOD_clean_linker_0, # of connection points: 3
#     Node 10, Type 0, BuildingBlock: BELTOD_clean_linker_0, # of connection points: 3
#     Node 11, Type 0, BuildingBlock: BELTOD_clean_linker_0, # of connection points: 3
#     Node 12, Type 0, BuildingBlock: BELTOD_clean_linker_0, # of connection points: 3
#     Node 13, Type 0, BuildingBlock: BELTOD_clean_linker_0, # of connection points: 3
#     Node 14, Type 0, BuildingBlock: BELTOD_clean_linker_0, # of connection points: 3
#     Node 15, Type 0, BuildingBlock: BELTOD_clean_linker_0, # of connection points: 3
#     Node 16, Type 1, BuildingBlock: NAHDIM_clean_sbu_0, # of connection points: 4
#     Node 17, Type 1, BuildingBlock: NAHDIM_clean_sbu_0, # of connection points: 4
#     Node 18, Type 1, BuildingBlock: NAHDIM_clean_sbu_0, # of connection points: 4
#     Node 19, Type 1, BuildingBlock: NAHDIM_clean_sbu_0, # of connection points: 4
#     Node 20, Type 1, BuildingBlock: NAHDIM_clean_sbu_0, # of connection points: 4
#     Node 21, Type 1, BuildingBlock: NAHDIM_clean_sbu_0, # of connection points: 4
#     Node 22, Type 1, BuildingBlock: NAHDIM_clean_sbu_0, # of connection points: 4
#     Node 23, Type 1, BuildingBlock: NAHDIM_clean_sbu_0, # of connection points: 4
#     Node 24, Type 1, BuildingBlock: NAHDIM_clean_sbu_0, # of connection points: 4
#     Node 25, Type 1, BuildingBlock: NAHDIM_clean_sbu_0, # of connection points: 4
#     Node 26, Type 1, BuildingBlock: NAHDIM_clean_sbu_0, # of connection points: 4
#     Node 27, Type 1, BuildingBlock: NAHDIM_clean_sbu_0, # of connection points: 4
#     Edge 28, Type (0, 1), None
#     Edge 29, Type (0, 1), None
#     Edge 30, Type (0, 1), None
#     Edge 31, Type (0, 1), None
#     Edge 32, Type (0, 1), None
#     Edge 33, Type (0, 1), None
#     Edge 34, Type (0, 1), None
#     Edge 35, Type (0, 1), None
#     Edge 36, Type (0, 1), None
#     Edge 37, Type (0, 1), None
#     Edge 38, Type (0, 1), None
#     Edge 39, Type (0, 1), None
#     Edge 40, Type (0, 1), None
#     Edge 41, Type (0, 1), None
#     Edge 42, Type (0, 1), None
#     Edge 43, Type (0, 1), None
#     Edge 44, Type (0, 1), None
#     Edge 45, Type (0, 1), None
#     Edge 46, Type (0, 1), None
#     Edge 47, Type (0, 1), None
#     Edge 48, Type (0, 1), None
#     Edge 49, Type (0, 1), None
#     Edge 50, Type (0, 1), None
#     Edge 51, Type (0, 1), None
#     Edge 52, Type (0, 1), None
#     Edge 53, Type (0, 1), None
#     Edge 54, Type (0, 1), None
#     Edge 55, Type (0, 1), None
#     Edge 56, Type (0, 1), None
#     Edge 57, Type (0, 1), None
#     Edge 58, Type (0, 1), None
#     Edge 59, Type (0, 1), None
#     Edge 60, Type (0, 1), None
#     Edge 61, Type (0, 1), None
#     Edge 62, Type (0, 1), None
#     Edge 63, Type (0, 1), None
#     Edge 64, Type (0, 1), None
#     Edge 65, Type (0, 1), None
#     Edge 66, Type (0, 1), None
#     Edge 67, Type (0, 1), None
#     Edge 68, Type (0, 1), None
#     Edge 69, Type (0, 1), None
#     Edge 70, Type (0, 1), None
#     Edge 71, Type (0, 1), None
#     Edge 72, Type (0, 1), None
#     Edge 73, Type (0, 1), None
#     Edge 74, Type (0, 1), None
#     Edge 75, Type (0, 1), None
# Relax obj value: 0.003
# Max RMSD: 0.034
# Mean RMSD: 0.021
data_MOF--net-ctn--node1-NAHDIM_clean_sbu_0--node2-BELTOD_clean_linker_0--edge1-none
_symmetry_space_group_name_H-M    P1
_symmetry_Int_Tables_number       1
_symmetry_cell_setting            triclinic
loop_
_symmetry_equiv_pos_as_xyz
'x, y, z'
_cell_length_a     31.305572
_cell_length_b     31.810641
_cell_length_c     30.972784
_cell_angle_alpha  91.030551
_cell_angle_beta   90.333632
_cell_angle_gamma 93.844193
loop_
_atom_site_label
_atom_site_type_symbol
_atom_site_fract_x
_atom_site_fract_y
_atom_site_fract_z
_atom_type_partial_charge
P0 P 0.09168 0.09096 0.08336 0.0
H1 H 0.09108 0.06832 0.17402 0.0
H2 H 0.03352 0.04541 0.22297 0.0
H3 H 0.94252 0.04507 0.11742 0.0
H4 H 0.00061 0.06653 0.06834 0.0
H5 H 0.16963 0.05439 0.11063 0.0
H6 H 0.20508 0.99227 0.08731 0.0
H7 H 0.10753 0.96598 0.9893 0.0
H8 H 0.07164 0.02846 0.01363 0.0
H9 H 0.02867 0.15332 0.08915 0.0
H10 H 0.10823 0.10302 0.99022 0.0
O11 O 0.12612 0.12206 0.11279 0.0
H12 H 0.99828 0.19932 0.03691 0.0
H13 H 0.07809 0.14948 0.93741 0.0
C14 C 0.04976 0.07057 0.11804 0.0
C15 C 0.05878 0.06306 0.16142 0.0
C16 C 0.02587 0.04982 0.18927 0.0
C17 C 0.98341 0.0442 0.17411 0.0
C18 C 0.97483 0.04986 0.13011 0.0
C19 C 0.00796 0.06227 0.10211 0.0
C20 C 0.11882 0.04678 0.0629 0.0
C21 C 0.15608 0.03562 0.08378 0.0
C22 C 0.17615 -0.00022 0.0706 0.0
C23 C 0.15926 0.9742 0.03627 0.0
C24 C 0.12153 0.9852 0.01563 0.0
C25 C 0.10116 0.02101 0.02925 0.0
C26 C 0.06949 0.1236 0.04322 0.0
C27 C 0.03916 0.15175 0.05593 0.0
C28 C 0.02189 0.17818 0.02601 0.0
C29 C 0.03537 0.17771 0.98286 0.0
C30 C 0.06671 0.15025 0.97035 0.0
C31 C 0.08381 0.1235 0.00043 0.0
P32 P 0.30305 0.66699 0.19236 0.0
H33 H 0.33058 0.68154 0.10377 0.0
H34 H 0.31318 0.7329 0.05029 0.0
H35 H 0.2292 0.78965 0.14138 0.0
H36 H 0.24541 0.73655 0.19456 0.0
H37 H 0.37397 0.63477 0.23986 0.0
H38 H 0.42333 0.66561 0.29467 0.0
H39 H 0.35701 0.78051 0.29349 0.0
H40 H 0.30758 0.74927 0.2389 0.0
H41 H 0.21445 0.65338 0.16122 0.0
H42 H 0.28952 0.61804 0.27038 0.0
O43 O 0.32945 0.6302 0.16673 0.0
H44 H 0.15537 0.60524 0.1838 0.0
H45 H 0.23079 0.56914 0.29272 0.0
C46 C 0.28958 0.7054 0.15332 0.0
C47 C 0.30814 0.70471 0.11229 0.0
C48 C 0.29801 0.73406 0.08159 0.0
C49 C 0.26978 0.76527 0.09165 0.0
C50 C 0.25118 0.76601 0.13283 0.0
C51 C 0.26065 0.73593 0.16329 0.0
C52 C 0.33771 0.69003 0.23435 0.0
C53 C 0.37002 0.66661 0.25135 0.0
C54 C 0.39813 0.68425 0.28292 0.0
C55 C 0.3944 0.72572 0.29818 0.0
C56 C 0.36097 0.7486 0.28221 0.0
C57 C 0.33271 0.73078 0.25072 0.0
C58 C 0.25617 0.64002 0.21459 0.0
C59 C 0.21779 0.63636 0.19086 0.0
C60 C 0.18399 0.60859 0.20373 0.0
C61 C 0.1885 0.58319 0.23992 0.0
C62 C 0.22635 0.58825 0.26465 0.0
C63 C 0.25992 0.61639 0.25202 0.0
P64 P 0.98443 0.48273 0.03362 0.0
H65 H 0.0572 0.46265 0.98111 0.0
H66 H 0.07258 0.4016 0.93653 0.0
H67 H 0.94927 0.34146 0.9687 0.0
H68 H 0.93452 0.40263 0.01433 0.0
H69 H 0.93407 0.53209 0.09279 0.0
H70 H 0.86453 0.562 0.08507 0.0
H71 H 0.84681 0.49849 0.96107 0.0
H72 H 0.91618 0.46932 0.96883 0.0
H73 H 0.06977 0.48986 0.06999 0.0
H74 H 0.94287 0.45116 0.11353 0.0
O75 O 0.01361 0.52416 0.01476 0.0
H76 H 0.09861 0.47787 0.14143 0.0
H77 H 0.97147 0.43976 0.18613 0.0
C78 C 0.99418 0.4377 -8e-05 0.0
C79 C 0.03329 0.43651 0.97833 0.0
C80 C 0.04213 0.40147 0.95297 0.0
C81 C 0.01194 0.3669 0.94868 0.0
C82 C 0.97291 0.36789 0.97088 0.0
C83 C 0.96439 0.40281 0.99687 0.0
C84 C 0.9297 0.49705 0.0322 0.0
C85 C 0.91455 0.52348 0.06463 0.0
C86 C 0.87488 0.54084 0.06002 0.0
C87 C 0.85001 0.53257 0.0225 0.0
C88 C 0.86492 0.50529 0.99056 0.0
C89 C 0.90458 0.48816 0.99515 0.0
C90 C 0.00407 0.47274 0.0869 0.0
C91 C 0.04804 0.47901 0.09515 0.0
C92 C 0.06451 0.47188 0.13606 0.0
C93 C 0.03727 0.45823 0.16972 0.0
C94 C 0.99322 0.45067 0.16102 0.0
C95 C 0.9768 0.4574 0.11966 0.0
P96 P 0.66616 0.84242 0.15598 0.0
H97 H 0.70804 0.92202 0.12831 0.0
H98 H 0.76794 0.9668 0.15734 0.0
H99 H 0.78835 0.87515 0.25534 0.0
H100 H 0.72711 0.83086 0.2269 0.0
H101 H 0.62909 0.80185 0.07835 0.0
H102 H 0.64612 0.74011 0.03592 0.0
H103 H 0.74679 0.71642 0.12655 0.0
H104 H 0.73003 0.77905 0.16865 0.0
H105 H 0.59609 0.88546 0.19421 0.0
H106 H 0.66123 0.77265 0.21722 0.0
O107 O 0.63975 0.8723 0.12255 0.0
H108 H 0.54834 0.86916 0.25448 0.0
H109 H 0.6138 0.75621 0.2779 0.0
C110 C 0.713 0.87309 0.17545 0.0
C111 C 0.72533 0.91138 0.15598 0.0
C112 C 0.7596 0.93706 0.17268 0.0
C113 C 0.78272 0.92456 0.20875 0.0
C114 C 0.7712 0.88552 0.22743 0.0
C115 C 0.73628 0.86015 0.21113 0.0
C116 C 0.67887 0.79571 0.1262 0.0
C117 C 0.655 0.78361 0.0891 0.0
C118 C 0.66468 0.74812 0.06489 0.0
C119 C 0.69798 0.7235 0.07774 0.0
C120 C 0.72094 0.73477 0.11583 0.0
C121 C 0.71153 0.77074 0.13981 0.0
C122 C 0.63151 0.82974 0.20061 0.0
C123 C 0.59998 0.85703 0.21213 0.0
C124 C 0.57279 0.84775 0.24672 0.0
C125 C 0.57708 0.81124 0.27081 0.0
C126 C 0.60955 0.78452 0.25989 0.0
C127 C 0.63659 0.79375 0.22505 0.0
P128 P 0.03114 0.95045 0.42905 0.0
H129 H 0.1241 0.96056 0.42348 0.0
H130 H 0.17736 0.01148 0.45547 0.0
H131 H 0.07628 0.0775 0.51547 0.0
H132 H 0.02302 0.02663 0.48248 0.0
H133 H 0.04013 0.85986 0.43446 0.0
H134 H 0.02924 0.81037 0.49305 0.0
H135 H 0.98523 0.91003 0.5749 0.0
H136 H 0.99575 0.95934 0.5156 0.0
H137 H 0.01757 0.02705 0.38279 0.0
H138 H 0.94056 0.91966 0.42856 0.0
O139 O 0.05294 0.92592 0.38738 0.0
H140 H 0.95646 0.04929 0.34207 0.0
H141 H 0.87903 0.94176 0.3878 0.0
C142 C 0.06963 0.99023 0.45008 0.0
C143 C 0.11334 0.98633 0.443 0.0
C144 C 0.14379 0.01541 0.46148 0.0
C145 C 0.13107 0.04855 0.48807 0.0
C146 C 0.08713 0.05228 0.49523 0.0
C147 C 0.05665 0.02334 0.47631 0.0
C148 C 0.01928 0.91334 0.47096 0.0
C149 C 0.0278 0.87103 0.46485 0.0
C150 C 0.02147 0.84271 0.49844 0.0
C151 C 0.00673 0.85637 0.53879 0.0
C152 C 0.99688 0.89859 0.5443 0.0
C153 C 0.00299 0.92684 0.51051 0.0
C154 C 0.98347 0.97209 0.40914 0.0
C155 C 0.98711 0.00901 0.38521 0.0
C156 C 0.95214 0.02154 0.36177 0.0
C157 C 0.91297 0.99707 0.3615 0.0
C158 C 0.90865 0.9614 0.3876 0.0
C159 C 0.94386 0.94876 0.41093 0.0
P160 P 0.26441 0.79005 0.75952 0.0
H161 H 0.27918 0.87802 0.78775 0.0
H162 H 0.27522 0.91323 0.85829 0.0
H163 H 0.23707 0.79377 0.91579 0.0
H164 H 0.24191 0.7588 0.84532 0.0
H165 H 0.25049 0.7106 0.71095 0.0
H166 H 0.28401 0.64388 0.7139 0.0
H167 H 0.36755 0.69421 0.8167 0.0
H168 H 0.33336 0.76113 0.81373 0.0
H169 H 0.22219 0.82007 0.68225 0.0
H170 H 0.18946 0.73965 0.7894 0.0
O171 O 0.29406 0.82074 0.72651 0.0
H172 H 0.15083 0.80446 0.65133 0.0
H173 H 0.11793 0.72416 0.75901 0.0
C174 C 0.26153 0.81574 0.8115 0.0
C175 C 0.27016 0.85942 0.81559 0.0
C176 C 0.26767 0.87954 0.8559 0.0
C177 C 0.25587 0.8563 0.89265 0.0
C178 C 0.24613 0.81262 0.88811 0.0
C179 C 0.249 0.79254 0.84786 0.0
C180 C 0.28857 0.74044 0.76301 0.0
C181 C 0.27555 0.70718 0.73461 0.0
C182 C 0.2949 0.66899 0.73622 0.0
C183 C 0.32825 0.66357 0.76579 0.0
C184 C 0.34176 0.69726 0.79374 0.0
C185 C 0.32216 0.73548 0.7922 0.0
C186 C 0.21098 0.78121 0.73824 0.0
C187 C 0.19954 0.79934 0.69933 0.0
C188 C 0.15873 0.79028 0.68163 0.0
C189 C 0.12874 0.76296 0.70268 0.0
C190 C 0.14022 0.74538 0.74204 0.0
C191 C 0.18106 0.75438 0.75959 0.0
P192 P 0.02091 0.48584 0.53275 0.0
H193 H 0.07866 0.43618 0.48274 0.0
H194 H 0.09978 0.4365 0.4071 0.0
H195 H 0.018 0.53808 0.38373 0.0
H196 H 0.99615 0.53675 0.45964 0.0
H197 H 0.97889 0.51318 0.61097 0.0
H198 H 0.97296 0.58227 0.64566 0.0
H199 H 0.0504 0.63985 0.54483 0.0
H200 H 0.05712 0.57078 0.51114 0.0
H201 H 0.99452 0.39728 0.54658 0.0
H202 H 0.93453 0.51196 0.51867 0.0
O203 O 0.05585 0.46013 0.56137 0.0
H204 H 0.92441 0.35844 0.54613 0.0
H205 H 0.8643 0.4736 0.51849 0.0
C206 C 0.03709 0.48748 0.4771 0.0
C207 C 0.06544 0.45869 0.46144 0.0
C208 C 0.07719 0.45868 0.41803 0.0
C209 C 0.0608 0.48758 0.38944 0.0
C210 C 0.03148 0.51572 0.40503 0.0
C211 C 0.01922 0.5152 0.44842 0.0
C212 C 0.01721 0.53702 0.55769 0.0
C213 C 0.9944 0.54077 0.59626 0.0
C214 C 0.99111 0.58022 0.61612 0.0
C215 C 0.01066 0.61658 0.59764 0.0
C216 C 0.03431 0.61252 0.55946 0.0
C217 C 0.03803 0.57299 0.54 0.0
C218 C 0.96944 0.45757 0.53373 0.0
C219 C 0.96617 0.41413 0.54078 0.0
C220 C 0.9261 0.39199 0.54034 0.0
C221 C 0.88877 0.41303 0.53263 0.0
C222 C 0.89238 0.45655 0.52496 0.0
C223 C 0.93247 0.47854 0.52515 0.0
P224 P 0.84028 0.80009 0.82834 0.0
H225 H 0.91556 0.83641 0.78518 0.0
H226 H 0.95482 0.81518 0.72175 0.0
H227 H 0.86029 0.71178 0.69806 0.0
H228 H 0.82115 0.73323 0.76239 0.0
H229 H 0.80829 0.86483 0.88391 0.0
H230 H 0.75119 0.91253 0.87616 0.0
H231 H 0.72252 0.8605 0.74851 0.0
H232 H 0.78038 0.81279 0.75658 0.0
H233 H 0.87469 0.74797 0.8947 0.0
H234 H 0.75733 0.75131 0.82158 0.0
O235 O 0.87754 0.82419 0.86065 0.0
H236 H 0.84252 0.69113 0.93803 0.0
H237 H 0.72479 0.69412 0.86475 0.0
C238 C 0.86601 0.78586 0.77897 0.0
C239 C 0.9032 0.80918 0.76639 0.0
C240 C 0.92565 0.79694 0.73006 0.0
C241 C 0.91099 0.7614 0.70518 0.0
C242 C 0.87253 0.73914 0.71673 0.0
C243 C 0.85019 0.75129 0.7535 0.0
C244 C 0.79921 0.83608 0.82042 0.0
C245 C 0.79008 0.86401 0.85403 0.0
C246 C 0.75723 0.89115 0.84961 0.0
C247 C 0.73241 0.89047 0.81162 0.0
C248 C 0.74117 0.86187 0.77813 0.0
C249 C 0.77435 0.83478 0.78256 0.0
C250 C 0.81802 0.75449 0.85574 0.0
C251 C 0.84206 0.73623 0.88776 0.0
C252 C 0.8236 0.70368 0.91249 0.0
C253 C 0.78087 0.68855 0.90525 0.0
C254 C 0.75768 0.70526 0.8713 0.0
C255 C 0.77618 0.73806 0.84671 0.0
P256 P 0.34028 0.30008 0.32834 0.0
H257 H 0.41555 0.3364 0.28517 0.0
H258 H 0.45481 0.31518 0.22174 0.0
H259 H 0.36029 0.21177 0.19807 0.0
H260 H 0.32115 0.23321 0.2624 0.0
H261 H 0.30829 0.36482 0.38391 0.0
H262 H 0.2512 0.41252 0.37616 0.0
H263 H 0.22252 0.36049 0.24852 0.0
H264 H 0.28038 0.31278 0.25658 0.0
H265 H 0.37468 0.24796 0.39471 0.0
H266 H 0.25734 0.2513 0.32158 0.0
O267 O 0.37754 0.32418 0.36065 0.0
H268 H 0.34252 0.19112 0.43803 0.0
H269 H 0.22479 0.19411 0.36475 0.0
C270 C 0.36601 0.28586 0.27897 0.0
C271 C 0.40319 0.30918 0.26638 0.0
C272 C 0.42565 0.29694 0.23006 0.0
C273 C 0.41099 0.26139 0.20518 0.0
C274 C 0.37253 0.23912 0.21674 0.0
C275 C 0.3502 0.25128 0.2535 0.0
C276 C 0.29921 0.33608 0.32042 0.0
C277 C 0.29008 0.364 0.35404 0.0
C278 C 0.25723 0.39114 0.34961 0.0
C279 C 0.23241 0.39046 0.31162 0.0
C280 C 0.24117 0.36186 0.27813 0.0
C281 C 0.27435 0.33478 0.28256 0.0
C282 C 0.31802 0.25449 0.35574 0.0
C283 C 0.34205 0.23622 0.38777 0.0
C284 C 0.3236 0.20367 0.41249 0.0
C285 C 0.28086 0.18855 0.40525 0.0
C286 C 0.25768 0.20525 0.37131 0.0
C287 C 0.27618 0.23805 0.34672 0.0
P288 P 0.48443 0.98272 0.53361 0.0
H289 H 0.55721 0.96264 0.48111 0.0
H290 H 0.57259 0.90159 0.43654 0.0
H291 H 0.44926 0.84146 0.46869 0.0
H292 H 0.43451 0.90263 0.51432 0.0
H293 H 0.43406 0.03208 0.59279 0.0
H294 H 0.36452 0.06198 0.58507 0.0
H295 H 0.34681 0.99849 0.46106 0.0
H296 H 0.41618 0.96933 0.46882 0.0
H297 H 0.56977 0.98988 0.56999 0.0
H298 H 0.44288 0.95114 0.61352 0.0
O299 O 0.5136 0.02416 0.51475 0.0
H300 H 0.59861 0.97789 0.64143 0.0
H301 H 0.47148 0.93974 0.68612 0.0
C302 C 0.49417 0.93769 0.49992 0.0
C303 C 0.53329 0.9365 0.47833 0.0
C304 C 0.54213 0.90146 0.45297 0.0
C305 C 0.51194 0.86689 0.44868 0.0
C306 C 0.47291 0.86789 0.47087 0.0
C307 C 0.46439 0.90281 0.49686 0.0
C308 C 0.4297 0.99704 0.5322 0.0
C309 C 0.41454 0.02347 0.56462 0.0
C310 C 0.37487 0.04083 0.56002 0.0
C311 C 0.35001 0.03257 0.52249 0.0
C312 C 0.36492 0.00529 0.49055 0.0
C313 C 0.40458 0.98816 0.49514 0.0
C314 C 0.50407 0.97274 0.58689 0.0
C315 C 0.54804 0.97903 0.59515 0.0
C316 C 0.56451 0.97189 0.63606 0.0
C317 C 0.53728 0.95823 0.66972 0.0
C318 C 0.49322 0.95066 0.66101 0.0
C319 C 0.47681 0.95739 0.61965 0.0
P320 P 0.16617 0.34242 0.65598 0.0
H321 H 0.20804 0.42202 0.62831 0.0
H322 H 0.26795 0.4668 0.65734 0.0
H323 H 0.28836 0.37515 0.75534 0.0
H324 H 0.22712 0.33086 0.7269 0.0
H325 H 0.1291 0.30185 0.57836 0.0
H326 H 0.14612 0.2401 0.53592 0.0
H327 H 0.24679 0.21642 0.62655 0.0
H328 H 0.23003 0.27905 0.66865 0.0
H329 H 0.0961 0.38546 0.69421 0.0
H330 H 0.16124 0.27265 0.71723 0.0
O331 O 0.13975 0.3723 0.62255 0.0
H332 H 0.04835 0.36916 0.75447 0.0
H333 H 0.11381 0.25622 0.77791 0.0
C334 C 0.21301 0.37309 0.67545 0.0
C335 C 0.22533 0.41138 0.65598 0.0
C336 C 0.25961 0.43706 0.67268 0.0
C337 C 0.28273 0.42456 0.70875 0.0
C338 C 0.2712 0.38552 0.72743 0.0
C339 C 0.23629 0.36015 0.71113 0.0
C340 C 0.17887 0.29571 0.6262 0.0
C341 C 0.155 0.2836 0.5891 0.0
C342 C 0.16468 0.24812 0.56489 0.0
C343 C 0.19798 0.2235 0.57774 0.0
C344 C 0.22094 0.23477 0.61584 0.0
C345 C 0.21154 0.27074 0.63981 0.0
C346 C 0.13152 0.32974 0.70062 0.0
C347 C 0.09999 0.35704 0.71212 0.0
C348 C 0.07279 0.34775 0.74672 0.0
C349 C 0.07708 0.31124 0.77081 0.0
C350 C 0.10956 0.28452 0.75989 0.0
C351 C 0.1366 0.29376 0.72505 0.0
P352 P 0.80305 0.167 0.69237 0.0
H353 H 0.83059 0.18154 0.60377 0.0
H354 H 0.81319 0.2329 0.55029 0.0
H355 H 0.72921 0.28966 0.64138 0.0
H356 H 0.74542 0.23655 0.69456 0.0
H357 H 0.87397 0.13478 0.73986 0.0
H358 H 0.92333 0.16562 0.79467 0.0
H359 H 0.85701 0.28052 0.79349 0.0
H360 H 0.80758 0.24928 0.7389 0.0
H361 H 0.71446 0.15339 0.66122 0.0
H362 H 0.78952 0.11805 0.77038 0.0
O363 O 0.82946 0.13021 0.66674 0.0
H364 H 0.65537 0.10525 0.68381 0.0
H365 H 0.73079 0.06915 0.79272 0.0
C366 C 0.78958 0.2054 0.65332 0.0
C367 C 0.80814 0.20471 0.6123 0.0
C368 C 0.79802 0.23407 0.5816 0.0
C369 C 0.76978 0.26527 0.59165 0.0
C370 C 0.75118 0.26602 0.63283 0.0
C371 C 0.76066 0.23594 0.66329 0.0
C372 C 0.83772 0.19004 0.73436 0.0
C373 C 0.87002 0.16662 0.75135 0.0
C374 C 0.89813 0.18426 0.78292 0.0
C375 C 0.8944 0.22573 0.79819 0.0
C376 C 0.86098 0.2486 0.78221 0.0
C377 C 0.83272 0.23079 0.75072 0.0
C378 C 0.75617 0.14003 0.7146 0.0
C379 C 0.71779 0.13637 0.69086 0.0
C380 C 0.68399 0.1086 0.70373 0.0
C381 C 0.6885 0.0832 0.73992 0.0
C382 C 0.72635 0.08826 0.76466 0.0
C383 C 0.75992 0.1164 0.75202 0.0
P384 P 0.59168 0.59096 0.58337 0.0
H385 H 0.59108 0.56831 0.67401 0.0
H386 H 0.53352 0.5454 0.72297 0.0
H387 H 0.44252 0.54508 0.61742 0.0
H388 H 0.50061 0.56654 0.56834 0.0
H389 H 0.66965 0.5544 0.61062 0.0
H390 H 0.7051 0.49229 0.5873 0.0
H391 H 0.60753 0.46598 0.48931 0.0
H392 H 0.57164 0.52846 0.51364 0.0
H393 H 0.52868 0.65333 0.58916 0.0
H394 H 0.60823 0.60302 0.49022 0.0
O395 O 0.62612 0.62206 0.6128 0.0
H396 H 0.4983 0.69932 0.53691 0.0
H397 H 0.57809 0.64947 0.43741 0.0
C398 C 0.54977 0.57057 0.61804 0.0
C399 C 0.55878 0.56305 0.66141 0.0
C400 C 0.52588 0.54981 0.68927 0.0
C401 C 0.48341 0.5442 0.67411 0.0
C402 C 0.47484 0.54986 0.63011 0.0
C403 C 0.50797 0.56227 0.60211 0.0
C404 C 0.61883 0.54679 0.5629 0.0
C405 C 0.65609 0.53563 0.58377 0.0
C406 C 0.67617 0.49979 0.57059 0.0
C407 C 0.65927 0.47421 0.53627 0.0
C408 C 0.62153 0.4852 0.51563 0.0
C409 C 0.60116 0.52101 0.52925 0.0
C410 C 0.56949 0.62361 0.54322 0.0
C411 C 0.53917 0.65175 0.55594 0.0
C412 C 0.5219 0.67819 0.52601 0.0
C413 C 0.53537 0.67771 0.48286 0.0
C414 C 0.56671 0.65024 0.47035 0.0
C415 C 0.58381 0.62349 0.50043 0.0
P416 P 0.53115 0.45044 0.92905 0.0
H417 H 0.62411 0.46056 0.92348 0.0
H418 H 0.67736 0.51148 0.95547 0.0
H419 H 0.57628 0.5775 0.01546 0.0
H420 H 0.52302 0.52663 0.98247 0.0
H421 H 0.54012 0.35986 0.93446 0.0
H422 H 0.52923 0.31036 0.99305 0.0
H423 H 0.48524 0.41003 0.0749 0.0
H424 H 0.49577 0.45934 0.01561 0.0
H425 H 0.51758 0.52704 0.88279 0.0
H426 H 0.44056 0.41966 0.92856 0.0
O427 O 0.55295 0.42592 0.88738 0.0
H428 H 0.45647 0.54929 0.84206 0.0
H429 H 0.37903 0.44176 0.8878 0.0
C430 C 0.56963 0.49023 0.95008 0.0
C431 C 0.61334 0.48633 0.943 0.0
C432 C 0.6438 0.51541 0.96148 0.0
C433 C 0.63107 0.54855 0.98807 0.0
C434 C 0.58714 0.55229 0.99522 0.0
C435 C 0.55665 0.52334 0.9763 0.0
C436 C 0.51929 0.41334 0.97096 0.0
C437 C 0.5278 0.37102 0.96485 0.0
C438 C 0.52147 0.34271 0.99843 0.0
C439 C 0.50674 0.35637 0.03879 0.0
C440 C 0.49689 0.39859 0.0443 0.0
C441 C 0.503 0.42684 0.01051 0.0
C442 C 0.48348 0.47209 0.90914 0.0
C443 C 0.48711 0.509 0.8852 0.0
C444 C 0.45215 0.52154 0.86176 0.0
C445 C 0.41298 0.49707 0.8615 0.0
C446 C 0.40866 0.4614 0.8876 0.0
C447 C 0.44386 0.44876 0.91093 0.0
P448 P 0.7644 0.29005 0.25952 0.0
H449 H 0.77918 0.37802 0.28775 0.0
H450 H 0.77522 0.41323 0.35828 0.0
H451 H 0.73707 0.29378 0.41579 0.0
H452 H 0.7419 0.25881 0.34531 0.0
H453 H 0.75049 0.2106 0.21094 0.0
H454 H 0.784 0.14388 0.21389 0.0
H455 H 0.86754 0.19421 0.3167 0.0
H456 H 0.83335 0.26113 0.31373 0.0
H457 H 0.72219 0.32006 0.18225 0.0
H458 H 0.68946 0.23965 0.2894 0.0
O459 O 0.79405 0.32074 0.2265 0.0
H460 H 0.65083 0.30445 0.15133 0.0
H461 H 0.61792 0.22416 0.25901 0.0
C462 C 0.76153 0.31574 0.3115 0.0
C463 C 0.77015 0.35942 0.31559 0.0
C464 C 0.76767 0.37954 0.3559 0.0
C465 C 0.75587 0.35631 0.39265 0.0
C466 C 0.74613 0.31263 0.38811 0.0
C467 C 0.749 0.29254 0.34786 0.0
C468 C 0.78856 0.24044 0.26301 0.0
C469 C 0.77554 0.20718 0.23461 0.0
C470 C 0.7949 0.16899 0.23622 0.0
C471 C 0.82824 0.16357 0.26579 0.0
C472 C 0.84175 0.19726 0.29374 0.0
C473 C 0.82216 0.23548 0.2922 0.0
C474 C 0.71097 0.28121 0.23823 0.0
C475 C 0.69953 0.29934 0.19933 0.0
C476 C 0.65873 0.29027 0.18163 0.0
C477 C 0.62873 0.26296 0.20268 0.0
C478 C 0.64021 0.24538 0.24204 0.0
C479 C 0.68105 0.25438 0.25959 0.0
P480 P 0.5209 0.98583 0.03274 0.0
H481 H 0.57866 0.93619 0.98273 0.0
H482 H 0.59978 0.93651 0.9071 0.0
H483 H 0.51798 0.03807 0.88372 0.0
H484 H 0.49613 0.03673 0.95963 0.0
H485 H 0.47889 0.01318 0.11097 0.0
H486 H 0.47297 0.08226 0.14566 0.0
H487 H 0.55039 0.13985 0.04482 0.0
H488 H 0.5571 0.07078 0.01113 0.0
H489 H 0.49451 0.89728 0.04654 0.0
H490 H 0.43452 0.01196 0.01869 0.0
O491 O 0.55583 0.96013 0.06136 0.0
H492 H 0.4244 0.85843 0.0461 0.0
H493 H 0.36429 0.9736 0.0185 0.0
C494 C 0.53708 0.98748 0.9771 0.0
C495 C 0.56543 0.95869 0.96144 0.0
C496 C 0.57718 0.95868 0.91803 0.0
C497 C 0.56079 0.98758 0.88943 0.0
C498 C 0.53146 0.01571 0.90502 0.0
C499 C 0.51921 0.0152 0.94841 0.0
C500 C 0.51721 0.03702 0.05768 0.0
C501 C 0.4944 0.04077 0.09626 0.0
C502 C 0.49111 0.08022 0.11612 0.0
C503 C 0.51065 0.11657 0.09764 0.0
C504 C 0.5343 0.11252 0.05945 0.0
C505 C 0.53802 0.07299 0.03999 0.0
C506 C 0.46943 0.95757 0.03372 0.0
C507 C 0.46616 0.91413 0.04075 0.0
C508 C 0.42609 0.89198 0.04032 0.0
C509 C 0.38876 0.91303 0.03262 0.0
C510 C 0.39237 0.95655 0.02496 0.0
C511 C 0.43246 0.97854 0.02516 0.0
C512 C 0.18167 0.93686 0.02201 0.0
O513 O 0.17112 0.91698 0.98557 0.0
O514 O 0.24267 0.85654 0.96844 0.0
Zn515 Zn 0.25318 0.88072 0.02831 0.0
O516 O 0.31248 0.90946 0.02952 0.0
C517 C 0.26169 0.79773 0.05967 0.0
O518 O 0.27065 0.79117 0.01881 0.0
O519 O 0.21306 0.92539 0.04412 0.0
C520 C 0.34634 0.88973 0.03233 0.0
O521 O 0.34331 0.84851 0.0349 0.0
C522 C 0.25596 0.87704 0.93577 0.0
O523 O 0.27326 0.91554 0.9414 0.0
O524 O 0.25112 0.83397 0.07186 0.0
C525 C 0.19812 0.41997 0.30727 0.0
O526 O 0.19384 0.44955 0.33681 0.0
O527 O 0.09771 0.46017 0.32933 0.0
Zn528 Zn 0.13084 0.46307 0.27388 0.0
O529 O 0.16645 0.51801 0.27195 0.0
C530 C 0.05515 0.45371 0.21369 0.0
O531 O 0.02994 0.44902 0.24726 0.0
O532 O 0.17294 0.41797 0.27486 0.0
C533 C 0.15627 0.54838 0.24872 0.0
O534 O 0.11969 0.54526 0.22754 0.0
C535 C 0.07596 0.48937 0.34429 0.0
O536 O 0.07098 0.52283 0.32102 0.0
O537 O 0.09547 0.45814 0.21923 0.0
C538 C 0.81072 0.55489 0.01461 0.0
O539 O 0.79035 0.5497 0.97747 0.0
O540 O 0.77799 0.65108 0.97087 0.0
Zn541 Zn 0.75186 0.61736 0.01942 0.0
O542 O 0.70247 0.57872 0.99669 0.0
C543 C 0.70968 0.68775 0.05001 0.0
O544 O 0.69663 0.68526 0.0096 0.0
O545 O 0.79869 0.58252 0.04129 0.0
C546 C 0.66357 0.57874 0.00831 0.0
O547 O 0.6526 0.60547 0.03839 0.0
C548 C 0.75999 0.65789 0.93504 0.0
O549 O 0.72122 0.64105 0.92701 0.0
O550 O 0.73366 0.66009 0.06385 0.0
C551 C 0.84919 0.12324 0.26664 0.0
O552 O 0.88307 0.11922 0.29108 0.0
O553 O 0.89098 0.02612 0.29628 0.0
Zn554 Zn 0.863 0.03738 0.2395 0.0
O555 O 0.81887 0.99207 0.21946 0.0
C556 C 0.94826 0.03444 0.20459 0.0
O557 O 0.95681 0.02032 0.24303 0.0
O558 O 0.83508 0.0924 0.24279 0.0
C559 C 0.81782 0.9529 0.22713 0.0
O560 O 0.8477 0.93809 0.25138 0.0
C561 C 0.87956 0.0057 0.32957 0.0
O562 O 0.84081 0.98732 0.33166 0.0
O563 O 0.91016 0.04293 0.19529 0.0
C564 C 0.31072 0.05489 0.51461 0.0
O565 O 0.29035 0.0497 0.47747 0.0
O566 O 0.27799 0.15108 0.47088 0.0
Zn567 Zn 0.25185 0.11736 0.51942 0.0
O568 O 0.20247 0.07872 0.4967 0.0
C569 C 0.20968 0.18775 0.55001 0.0
O570 O 0.19663 0.18525 0.50961 0.0
O571 O 0.29869 0.08251 0.54129 0.0
C572 C 0.16357 0.07873 0.50831 0.0
O573 O 0.1526 0.10547 0.5384 0.0
C574 C 0.25999 0.15788 0.43504 0.0
O575 O 0.22122 0.14104 0.42702 0.0
O576 O 0.23365 0.16009 0.56386 0.0
C577 C 0.3492 0.62324 0.76664 0.0
O578 O 0.38308 0.61922 0.79107 0.0
O579 O 0.39099 0.52612 0.79628 0.0
Zn580 Zn 0.36301 0.53738 0.7395 0.0
O581 O 0.31888 0.49207 0.71946 0.0
C582 C 0.44826 0.53444 0.70459 0.0
O583 O 0.45681 0.5203 0.74303 0.0
O584 O 0.33508 0.5924 0.74279 0.0
C585 C 0.31783 0.4529 0.72713 0.0
O586 O 0.3477 0.43809 0.75138 0.0
C587 C 0.37957 0.5057 0.82957 0.0
O588 O 0.34082 0.48731 0.83166 0.0
O589 O 0.41017 0.54293 0.69529 0.0
C590 C 0.68168 0.43687 0.52201 0.0
O591 O 0.67112 0.41697 0.48557 0.0
O592 O 0.74268 0.35655 0.46844 0.0
Zn593 Zn 0.75319 0.38072 0.52831 0.0
O594 O 0.81249 0.40946 0.52951 0.0
C595 C 0.7617 0.29774 0.55967 0.0
O596 O 0.77066 0.29118 0.51881 0.0
O597 O 0.71307 0.4254 0.54412 0.0
C598 C 0.84635 0.38973 0.53234 0.0
O599 O 0.84332 0.34851 0.53494 0.0
C600 C 0.75596 0.37704 0.43577 0.0
O601 O 0.77326 0.41555 0.44139 0.0
O602 O 0.75113 0.33397 0.57186 0.0
C603 C 0.69812 0.91998 0.80727 0.0
O604 O 0.69383 0.94955 0.83681 0.0
O605 O 0.59771 0.96018 0.82932 0.0
Zn606 Zn 0.63084 0.96308 0.77387 0.0
O607 O 0.66645 0.01802 0.77194 0.0
C608 C 0.55515 0.95371 0.71368 0.0
O609 O 0.52994 0.949 0.74725 0.0
O610 O 0.67294 0.91797 0.77485 0.0
C611 C 0.65627 0.04839 0.74872 0.0
O612 O 0.61969 0.04527 0.72754 0.0
C613 C 0.57596 0.98937 0.84429 0.0
O614 O 0.57096 0.02283 0.82101 0.0
O615 O 0.59547 0.95815 0.71922 0.0
C616 C 0.01724 0.20644 0.95162 0.0
O617 O 0.98571 0.22944 0.96302 0.0
O618 O 0.95746 0.225 0.8417 0.0
Zn619 Zn 0.0082 0.25207 0.8743 0.0
O620 O 0.99227 0.30281 0.90961 0.0
C621 C 0.04707 0.30062 0.80629 0.0
O622 O 0.01352 0.32259 0.81261 0.0
O623 O 0.03247 0.21005 0.91386 0.0
C624 C 0.02177 0.3299 0.9218 0.0
O625 O 0.06141 0.32454 0.91034 0.0
C626 C 0.92665 0.24566 0.82865 0.0
O627 O 0.92606 0.28581 0.83916 0.0
O628 O 0.05238 0.26912 0.8299 0.0
C629 C 0.51724 0.70644 0.45163 0.0
O630 O 0.48571 0.72945 0.46302 0.0
O631 O 0.45746 0.725 0.34169 0.0
Zn632 Zn 0.5082 0.75206 0.3743 0.0
O633 O 0.49227 0.80281 0.4096 0.0
C634 C 0.54707 0.80062 0.30629 0.0
O635 O 0.51352 0.82259 0.31262 0.0
O636 O 0.53246 0.71005 0.41386 0.0
C637 C 0.52176 0.82989 0.4218 0.0
O638 O 0.5614 0.82453 0.41034 0.0
C639 C 0.42664 0.74565 0.32865 0.0
O640 O 0.42606 0.7858 0.33916 0.0
O641 O 0.55237 0.76911 0.3299 0.0
C642 C 0.00414 0.82725 0.57542 0.0
O643 O 0.996 0.84107 0.61454 0.0
O644 O 0.97522 0.76246 0.66485 0.0
Zn645 Zn 0.01916 0.7511 0.61974 0.0
O646 O 0.01735 0.69145 0.597 0.0
C647 C 0.08597 0.75243 0.68341 0.0
O648 O 0.05692 0.72928 0.7044 0.0
O649 O 0.0135 0.78931 0.56991 0.0
C650 C 0.00705 0.65851 0.61813 0.0
O651 O 0.99441 0.66209 0.65832 0.0
C652 C 0.93679 0.74745 0.66838 0.0
O653 O 0.92088 0.71938 0.64 0.0
O654 O 0.07704 0.76532 0.64608 0.0
C655 C 0.50414 0.32724 0.07542 0.0
O656 O 0.49601 0.34107 0.11454 0.0
O657 O 0.47522 0.26245 0.16485 0.0
Zn658 Zn 0.51916 0.2511 0.11973 0.0
O659 O 0.51735 0.19145 0.097 0.0
C660 C 0.58596 0.25243 0.18341 0.0
O661 O 0.55691 0.22928 0.2044 0.0
O662 O 0.5135 0.28931 0.06991 0.0
C663 C 0.50704 0.15851 0.11813 0.0
O664 O 0.49441 0.16208 0.15832 0.0
C665 C 0.43679 0.24744 0.16838 0.0
O666 O 0.42088 0.21937 0.14 0.0
O667 O 0.57703 0.26532 0.14607 0.0
loop_
_geom_bond_atom_site_label_1
_geom_bond_atom_site_label_2
_geom_bond_distance
_geom_bond_site_symmetry_2
_ccdc_geom_bond_type
P0 O11 1.490 . S
P0 C14 1.812 . S
P0 C20 1.803 . S
P0 C26 1.819 . S
H1 C15 0.941 . S
H2 C16 0.939 . S
H3 C18 0.940 . S
H4 C19 0.940 . S
H5 C21 0.939 . S
H6 C22 0.942 . S
H7 C24 0.940 . S
H8 C25 0.939 . S
H9 C27 0.941 . S
H10 C31 0.939 1_556 S
O11 P0 1.490 . S
H12 C28 0.939 . S
H13 C30 0.940 . S
C14 P0 1.812 . S
C14 C15 1.389 . S
C14 C19 1.391 1_455 S
C15 H1 0.941 . S
C15 C14 1.389 . S
C15 C16 1.397 1_455 S
C16 H2 0.939 . S
C16 C15 1.397 1_655 S
C16 C17 1.378 . S
C17 C16 1.378 . S
C17 C18 1.378 . S
C18 H3 0.940 . S
C18 C17 1.378 . S
C18 C19 1.396 . S
C19 H4 0.940 . S
C19 C14 1.391 1_655 S
C19 C18 1.396 . S
C20 P0 1.803 . S
C20 C21 1.378 . S
C20 C25 1.400 1_545 S
C21 H5 0.939 . S
C21 C20 1.378 . S
C21 C22 1.361 . S
C22 H6 0.942 . S
C22 C21 1.361 . S
C22 C23 1.369 1_545 S
C23 C22 1.369 1_565 S
C23 C24 1.404 . S
C24 H7 0.940 . S
C24 C23 1.404 . S
C24 C25 1.389 . S
C25 H8 0.939 . S
C25 C20 1.400 1_565 S
C25 C24 1.389 . S
C26 P0 1.819 . S
C26 C27 1.391 . S
C26 C31 1.391 . S
C27 H9 0.941 . S
C27 C26 1.391 . S
C27 C28 1.396 . S
C28 H12 0.939 . S
C28 C27 1.396 . S
C28 C29 1.397 1_554 S
C29 C28 1.397 1_556 S
C29 C30 1.385 . S
C30 H13 0.940 . S
C30 C29 1.385 . S
C30 C31 1.388 1_556 S
C31 H10 0.939 1_554 S
C31 C26 1.391 . S
C31 C30 1.388 1_554 S
P32 O43 1.490 . S
P32 C46 1.812 . S
P32 C52 1.803 . S
P32 C58 1.819 . S
H33 C47 0.941 . S
H34 C48 0.939 . S
H35 C50 0.940 . S
H36 C51 0.940 . S
H37 C53 0.939 . S
H38 C54 0.942 . S
H39 C56 0.940 . S
H40 C57 0.939 . S
H41 C59 0.941 . S
H42 C63 0.939 . S
O43 P32 1.490 . S
H44 C60 0.939 . S
H45 C62 0.940 . S
C46 P32 1.812 . S
C46 C47 1.389 . S
C46 C51 1.391 . S
C47 H33 0.941 . S
C47 C46 1.389 . S
C47 C48 1.397 . S
C48 H34 0.939 . S
C48 C47 1.397 . S
C48 C49 1.378 . S
C49 C48 1.378 . S
C49 C50 1.378 . S
C50 H35 0.940 . S
C50 C49 1.378 . S
C50 C51 1.396 . S
C51 H36 0.940 . S
C51 C46 1.391 . S
C51 C50 1.396 . S
C52 P32 1.803 . S
C52 C53 1.378 . S
C52 C57 1.400 . S
C53 H37 0.939 . S
C53 C52 1.378 . S
C53 C54 1.361 . S
C54 H38 0.942 . S
C54 C53 1.361 . S
C54 C55 1.369 . S
C55 C54 1.369 . S
C55 C56 1.404 . S
C56 H39 0.940 . S
C56 C55 1.404 . S
C56 C57 1.389 . S
C57 H40 0.939 . S
C57 C52 1.400 . S
C57 C56 1.389 . S
C58 P32 1.819 . S
C58 C59 1.391 . S
C58 C63 1.391 . S
C59 H41 0.941 . S
C59 C58 1.391 . S
C59 C60 1.396 . S
C60 H44 0.939 . S
C60 C59 1.396 . S
C60 C61 1.397 . S
C61 C60 1.397 . S
C61 C62 1.385 . S
C62 H45 0.940 . S
C62 C61 1.385 . S
C62 C63 1.388 . S
C63 H42 0.939 . S
C63 C58 1.391 . S
C63 C62 1.388 . S
P64 O75 1.490 1_554 S
P64 C78 1.812 1_454 S
P64 C84 1.803 1_455 S
P64 C90 1.819 . S
H65 C79 0.941 . S
H66 C80 0.939 . S
H67 C82 0.940 1_554 S
H68 C83 0.940 . S
H69 C85 0.939 1_556 S
H70 C86 0.944 . S
H71 C88 0.940 . S
H72 C89 0.939 . S
H73 C91 0.941 . S
H74 C95 0.939 . S
O75 P64 1.490 1_556 S
H76 C92 0.939 . S
H77 C94 0.940 1_655 S
C78 P64 1.812 1_656 S
C78 C79 1.389 1_655 S
C78 C83 1.391 1_556 S
C79 H65 0.941 . S
C79 C78 1.389 1_455 S
C79 C80 1.397 . S
C80 H66 0.939 . S
C80 C79 1.397 . S
C80 C81 1.378 1_455 S
C81 C80 1.378 1_655 S
C81 C82 1.378 . S
C82 H67 0.940 1_556 S
C82 C81 1.378 . S
C82 C83 1.396 1_556 S
C83 H68 0.940 . S
C83 C78 1.391 1_554 S
C83 C82 1.396 1_554 S
C84 P64 1.803 1_655 S
C84 C85 1.378 . S
C84 C89 1.400 . S
C85 H69 0.939 1_554 S
C85 C84 1.378 . S
C85 C86 1.361 . S
C86 H70 0.944 . S
C86 C85 1.361 . S
C86 C87 1.369 . S
C87 C86 1.369 . S
C87 C88 1.404 . S
C88 H71 0.940 . S
C88 C87 1.404 . S
C88 C89 1.389 . S
C89 H72 0.939 . S
C89 C84 1.400 . S
C89 C88 1.389 . S
C90 P64 1.819 . S
C90 C91 1.391 . S
C90 C95 1.391 1_455 S
C91 H73 0.941 . S
C91 C90 1.391 . S
C91 C92 1.396 . S
C92 H76 0.939 . S
C92 C91 1.396 . S
C92 C93 1.397 . S
C93 C92 1.397 . S
C93 C94 1.385 . S
C94 H77 0.940 1_455 S
C94 C93 1.385 . S
C94 C95 1.388 1_455 S
C95 H74 0.939 . S
C95 C90 1.391 1_655 S
C95 C94 1.388 1_655 S
P96 O107 1.490 . S
P96 C110 1.812 . S
P96 C116 1.803 . S
P96 C122 1.819 . S
H97 C111 0.941 . S
H98 C112 0.939 . S
H99 C114 0.940 . S
H100 C115 0.940 . S
H101 C117 0.939 . S
H102 C118 0.942 . S
H103 C120 0.940 . S
H104 C121 0.939 . S
H105 C123 0.941 . S
H106 C127 0.939 . S
O107 P96 1.490 . S
H108 C124 0.939 . S
H109 C126 0.940 . S
C110 P96 1.812 . S
C110 C111 1.389 . S
C110 C115 1.391 . S
C111 H97 0.941 . S
C111 C110 1.389 . S
C111 C112 1.397 . S
C112 H98 0.939 . S
C112 C111 1.397 . S
C112 C113 1.378 . S
C113 C112 1.378 . S
C113 C114 1.378 . S
C114 H99 0.940 . S
C114 C113 1.378 . S
C114 C115 1.396 . S
C115 H100 0.940 . S
C115 C110 1.391 . S
C115 C114 1.396 . S
C116 P96 1.803 . S
C116 C117 1.378 . S
C116 C121 1.400 . S
C117 H101 0.939 . S
C117 C116 1.378 . S
C117 C118 1.361 . S
C118 H102 0.942 . S
C118 C117 1.361 . S
C118 C119 1.369 . S
C119 C118 1.369 . S
C119 C120 1.404 . S
C120 H103 0.940 . S
C120 C119 1.404 . S
C120 C121 1.389 . S
C121 H104 0.939 . S
C121 C116 1.400 . S
C121 C120 1.389 . S
C122 P96 1.819 . S
C122 C123 1.391 . S
C122 C127 1.391 . S
C123 H105 0.941 . S
C123 C122 1.391 . S
C123 C124 1.396 . S
C124 H108 0.939 . S
C124 C123 1.396 . S
C124 C125 1.397 . S
C125 C124 1.397 . S
C125 C126 1.385 . S
C126 H109 0.940 . S
C126 C125 1.385 . S
C126 C127 1.388 . S
C127 H106 0.939 . S
C127 C122 1.391 . S
C127 C126 1.388 . S
P128 O139 1.490 . S
P128 C142 1.812 . S
P128 C148 1.803 . S
P128 C154 1.819 . S
H129 C143 0.941 . S
H130 C144 0.939 . S
H131 C146 0.940 . S
H132 C147 0.940 . S
H133 C149 0.939 . S
H134 C150 0.942 . S
H135 C152 0.940 . S
H136 C153 0.939 . S
H137 C155 0.941 . S
H138 C159 0.939 . S
O139 P128 1.490 . S
H140 C156 0.939 1_445 S
H141 C158 0.940 . S
C142 P128 1.812 . S
C142 C143 1.389 . S
C142 C147 1.391 1_565 S
C143 H129 0.941 . S
C143 C142 1.389 . S
C143 C144 1.397 1_565 S
C144 H130 0.939 . S
C144 C143 1.397 1_545 S
C144 C145 1.378 . S
C145 C144 1.378 . S
C145 C146 1.378 . S
C146 H131 0.940 . S
C146 C145 1.378 . S
C146 C147 1.396 . S
C147 H132 0.940 . S
C147 C142 1.391 1_545 S
C147 C146 1.396 . S
C148 P128 1.803 . S
C148 C149 1.378 . S
C148 C153 1.400 . S
C149 H133 0.939 . S
C149 C148 1.378 . S
C149 C150 1.361 . S
C150 H134 0.942 . S
C150 C149 1.361 . S
C150 C151 1.369 . S
C151 C150 1.369 . S
C151 C152 1.404 . S
C152 H135 0.940 . S
C152 C151 1.404 . S
C152 C153 1.389 . S
C153 H136 0.939 . S
C153 C148 1.400 . S
C153 C152 1.389 . S
C154 P128 1.819 . S
C154 C155 1.391 . S
C154 C159 1.391 1_455 S
C155 H137 0.941 . S
C155 C154 1.391 . S
C155 C156 1.396 1_455 S
C156 H140 0.939 1_665 S
C156 C155 1.396 1_655 S
C156 C157 1.397 . S
C157 C156 1.397 . S
C157 C158 1.385 . S
C158 H141 0.940 . S
C158 C157 1.385 . S
C158 C159 1.388 . S
C159 H138 0.939 . S
C159 C154 1.391 1_655 S
C159 C158 1.388 . S
P160 O171 1.490 . S
P160 C174 1.812 . S
P160 C180 1.803 . S
P160 C186 1.819 . S
H161 C175 0.941 . S
H162 C176 0.939 . S
H163 C178 0.940 . S
H164 C179 0.940 . S
H165 C181 0.939 . S
H166 C182 0.942 . S
H167 C184 0.940 . S
H168 C185 0.939 . S
H169 C187 0.941 . S
H170 C191 0.939 . S
O171 P160 1.490 . S
H172 C188 0.939 . S
H173 C190 0.940 . S
C174 P160 1.812 . S
C174 C175 1.389 . S
C174 C179 1.391 . S
C175 H161 0.941 . S
C175 C174 1.389 . S
C175 C176 1.397 . S
C176 H162 0.939 . S
C176 C175 1.397 . S
C176 C177 1.378 . S
C177 C176 1.378 . S
C177 C178 1.378 . S
C178 H163 0.940 . S
C178 C177 1.378 . S
C178 C179 1.396 . S
C179 H164 0.940 . S
C179 C174 1.391 . S
C179 C178 1.396 . S
C180 P160 1.803 . S
C180 C181 1.378 . S
C180 C185 1.400 . S
C181 H165 0.939 . S
C181 C180 1.378 . S
C181 C182 1.361 . S
C182 H166 0.942 . S
C182 C181 1.361 . S
C182 C183 1.369 . S
C183 C182 1.369 . S
C183 C184 1.404 . S
C184 H167 0.940 . S
C184 C183 1.404 . S
C184 C185 1.389 . S
C185 H168 0.939 . S
C185 C180 1.400 . S
C185 C184 1.389 . S
C186 P160 1.819 . S
C186 C187 1.391 . S
C186 C191 1.391 . S
C187 H169 0.941 . S
C187 C186 1.391 . S
C187 C188 1.396 . S
C188 H172 0.939 . S
C188 C187 1.396 . S
C188 C189 1.397 . S
C189 C188 1.397 . S
C189 C190 1.385 . S
C190 H173 0.940 . S
C190 C189 1.385 . S
C190 C191 1.388 . S
C191 H170 0.939 . S
C191 C186 1.391 . S
C191 C190 1.388 . S
P192 O203 1.490 . S
P192 C206 1.812 . S
P192 C212 1.801 1_455 S
P192 C218 1.819 1_455 S
H193 C207 0.941 . S
H194 C208 0.939 . S
H195 C210 0.940 1_655 S
H196 C211 0.940 . S
H197 C213 0.939 . S
H198 C214 0.942 . S
H199 C216 0.940 . S
H200 C217 0.939 . S
H201 C219 0.941 . S
H202 C223 0.939 . S
O203 P192 1.490 . S
H204 C220 0.939 . S
H205 C222 0.940 . S
C206 P192 1.812 . S
C206 C207 1.389 . S
C206 C211 1.391 1_455 S
C207 H193 0.941 . S
C207 C206 1.389 . S
C207 C208 1.397 . S
C208 H194 0.939 . S
C208 C207 1.397 . S
C208 C209 1.378 . S
C209 C208 1.378 . S
C209 C210 1.378 . S
C210 H195 0.940 1_455 S
C210 C209 1.378 . S
C210 C211 1.396 1_455 S
C211 H196 0.940 . S
C211 C206 1.391 1_655 S
C211 C210 1.396 1_655 S
C212 P192 1.801 1_655 S
C212 C213 1.377 1_655 S
C212 C217 1.405 . S
C213 H197 0.939 . S
C213 C212 1.377 1_455 S
C213 C214 1.361 . S
C214 H198 0.942 . S
C214 C213 1.361 . S
C214 C215 1.369 1_455 S
C215 C214 1.369 1_655 S
C215 C216 1.404 . S
C216 H199 0.940 . S
C216 C215 1.404 . S
C216 C217 1.389 . S
C217 H200 0.939 . S
C217 C212 1.405 . S
C217 C216 1.389 . S
C218 P192 1.819 1_655 S
C218 C219 1.391 . S
C218 C223 1.391 . S
C219 H201 0.941 . S
C219 C218 1.391 . S
C219 C220 1.396 . S
C220 H204 0.939 . S
C220 C219 1.396 . S
C220 C221 1.397 . S
C221 C220 1.397 . S
C221 C222 1.385 . S
C222 H205 0.940 . S
C222 C221 1.385 . S
C222 C223 1.388 . S
C223 H202 0.939 . S
C223 C218 1.391 . S
C223 C222 1.388 . S
P224 O235 1.490 . S
P224 C238 1.812 . S
P224 C244 1.803 . S
P224 C250 1.819 . S
H225 C239 0.941 . S
H226 C240 0.939 . S
H227 C242 0.940 . S
H228 C243 0.940 . S
H229 C245 0.939 . S
H230 C246 0.942 . S
H231 C248 0.940 . S
H232 C249 0.939 . S
H233 C251 0.941 . S
H234 C255 0.939 . S
O235 P224 1.490 . S
H236 C252 0.939 . S
H237 C254 0.940 . S
C238 P224 1.812 . S
C238 C239 1.389 . S
C238 C243 1.391 . S
C239 H225 0.941 . S
C239 C238 1.389 . S
C239 C240 1.397 . S
C240 H226 0.939 . S
C240 C239 1.397 . S
C240 C241 1.378 . S
C241 C240 1.378 . S
C241 C242 1.378 . S
C242 H227 0.940 . S
C242 C241 1.378 . S
C242 C243 1.396 . S
C243 H228 0.940 . S
C243 C238 1.391 . S
C243 C242 1.396 . S
C244 P224 1.803 . S
C244 C245 1.378 . S
C244 C249 1.400 . S
C245 H229 0.939 . S
C245 C244 1.378 . S
C245 C246 1.361 . S
C246 H230 0.942 . S
C246 C245 1.361 . S
C246 C247 1.369 . S
C247 C246 1.369 . S
C247 C248 1.404 . S
C248 H231 0.940 . S
C248 C247 1.404 . S
C248 C249 1.389 . S
C249 H232 0.939 . S
C249 C244 1.400 . S
C249 C248 1.389 . S
C250 P224 1.819 . S
C250 C251 1.391 . S
C250 C255 1.391 . S
C251 H233 0.941 . S
C251 C250 1.391 . S
C251 C252 1.396 . S
C252 H236 0.939 . S
C252 C251 1.396 . S
C252 C253 1.397 . S
C253 C252 1.397 . S
C253 C254 1.385 . S
C254 H237 0.940 . S
C254 C253 1.385 . S
C254 C255 1.388 . S
C255 H234 0.939 . S
C255 C250 1.391 . S
C255 C254 1.388 . S
P256 O267 1.490 . S
P256 C270 1.812 . S
P256 C276 1.803 . S
P256 C282 1.819 . S
H257 C271 0.941 . S
H258 C272 0.939 . S
H259 C274 0.940 . S
H260 C275 0.940 . S
H261 C277 0.939 . S
H262 C278 0.942 . S
H263 C280 0.940 . S
H264 C281 0.939 . S
H265 C283 0.941 . S
H266 C287 0.939 . S
O267 P256 1.490 . S
H268 C284 0.939 . S
H269 C286 0.940 . S
C270 P256 1.812 . S
C270 C271 1.389 . S
C270 C275 1.391 . S
C271 H257 0.941 . S
C271 C270 1.389 . S
C271 C272 1.397 . S
C272 H258 0.939 . S
C272 C271 1.397 . S
C272 C273 1.378 . S
C273 C272 1.378 . S
C273 C274 1.378 . S
C274 H259 0.940 . S
C274 C273 1.378 . S
C274 C275 1.396 . S
C275 H260 0.940 . S
C275 C270 1.391 . S
C275 C274 1.396 . S
C276 P256 1.803 . S
C276 C277 1.378 . S
C276 C281 1.400 . S
C277 H261 0.939 . S
C277 C276 1.378 . S
C277 C278 1.361 . S
C278 H262 0.942 . S
C278 C277 1.361 . S
C278 C279 1.369 . S
C279 C278 1.369 . S
C279 C280 1.404 . S
C280 H263 0.940 . S
C280 C279 1.404 . S
C280 C281 1.389 . S
C281 H264 0.939 . S
C281 C276 1.400 . S
C281 C280 1.389 . S
C282 P256 1.819 . S
C282 C283 1.391 . S
C282 C287 1.391 . S
C283 H265 0.941 . S
C283 C282 1.391 . S
C283 C284 1.396 . S
C284 H268 0.939 . S
C284 C283 1.396 . S
C284 C285 1.397 . S
C285 C284 1.397 . S
C285 C286 1.385 . S
C286 H269 0.940 . S
C286 C285 1.385 . S
C286 C287 1.388 . S
C287 H266 0.939 . S
C287 C282 1.391 . S
C287 C286 1.388 . S
P288 O299 1.490 . S
P288 C302 1.812 1_545 S
P288 C308 1.803 . S
P288 C314 1.819 1_545 S
H289 C303 0.941 . S
H290 C304 0.939 . S
H291 C306 0.940 . S
H292 C307 0.940 . S
H293 C309 0.939 . S
H294 C310 0.942 . S
H295 C312 0.940 1_565 S
H296 C313 0.939 . S
H297 C315 0.941 . S
H298 C319 0.939 . S
O299 P288 1.490 . S
H300 C316 0.939 . S
H301 C318 0.940 . S
C302 P288 1.812 1_565 S
C302 C303 1.389 . S
C302 C307 1.391 . S
C303 H289 0.941 . S
C303 C302 1.389 . S
C303 C304 1.397 . S
C304 H290 0.939 . S
C304 C303 1.397 . S
C304 C305 1.378 . S
C305 C304 1.378 . S
C305 C306 1.378 . S
C306 H291 0.940 . S
C306 C305 1.378 . S
C306 C307 1.396 . S
C307 H292 0.940 . S
C307 C302 1.391 . S
C307 C306 1.396 . S
C308 P288 1.803 . S
C308 C309 1.378 . S
C308 C313 1.400 1_545 S
C309 H293 0.939 . S
C309 C308 1.378 . S
C309 C310 1.361 . S
C310 H294 0.942 . S
C310 C309 1.361 . S
C310 C311 1.369 . S
C311 C310 1.369 . S
C311 C312 1.404 . S
C312 H295 0.940 1_545 S
C312 C311 1.404 . S
C312 C313 1.389 1_545 S
C313 H296 0.939 . S
C313 C308 1.400 1_565 S
C313 C312 1.389 1_565 S
C314 P288 1.819 1_565 S
C314 C315 1.392 . S
C314 C319 1.391 1_565 S
C315 H297 0.941 . S
C315 C314 1.392 . S
C315 C316 1.396 . S
C316 H300 0.939 . S
C316 C315 1.396 . S
C316 C317 1.397 . S
C317 C316 1.397 . S
C317 C318 1.385 1_565 S
C318 H301 0.940 . S
C318 C317 1.385 1_545 S
C318 C319 1.388 . S
C319 H298 0.939 . S
C319 C314 1.391 1_545 S
C319 C318 1.388 . S
P320 O331 1.490 . S
P320 C334 1.812 . S
P320 C340 1.803 . S
P320 C346 1.819 . S
H321 C335 0.941 . S
H322 C336 0.939 . S
H323 C338 0.940 . S
H324 C339 0.940 . S
H325 C341 0.939 . S
H326 C342 0.942 . S
H327 C344 0.940 . S
H328 C345 0.939 . S
H329 C347 0.941 . S
H330 C351 0.939 . S
O331 P320 1.490 . S
H332 C348 0.939 . S
H333 C350 0.940 . S
C334 P320 1.812 . S
C334 C335 1.389 . S
C334 C339 1.391 . S
C335 H321 0.941 . S
C335 C334 1.389 . S
C335 C336 1.397 . S
C336 H322 0.939 . S
C336 C335 1.397 . S
C336 C337 1.378 . S
C337 C336 1.378 . S
C337 C338 1.378 . S
C338 H323 0.940 . S
C338 C337 1.378 . S
C338 C339 1.396 . S
C339 H324 0.940 . S
C339 C334 1.391 . S
C339 C338 1.396 . S
C340 P320 1.803 . S
C340 C341 1.378 . S
C340 C345 1.400 . S
C341 H325 0.939 . S
C341 C340 1.378 . S
C341 C342 1.361 . S
C342 H326 0.942 . S
C342 C341 1.361 . S
C342 C343 1.369 . S
C343 C342 1.369 . S
C343 C344 1.404 . S
C344 H327 0.940 . S
C344 C343 1.404 . S
C344 C345 1.389 . S
C345 H328 0.939 . S
C345 C340 1.400 . S
C345 C344 1.389 . S
C346 P320 1.819 . S
C346 C347 1.391 . S
C346 C351 1.391 . S
C347 H329 0.941 . S
C347 C346 1.391 . S
C347 C348 1.396 . S
C348 H332 0.939 . S
C348 C347 1.396 . S
C348 C349 1.397 . S
C349 C348 1.397 . S
C349 C350 1.385 . S
C350 H333 0.940 . S
C350 C349 1.385 . S
C350 C351 1.388 . S
C351 H330 0.939 . S
C351 C346 1.391 . S
C351 C350 1.388 . S
P352 O363 1.490 . S
P352 C366 1.812 . S
P352 C372 1.803 . S
P352 C378 1.819 . S
H353 C367 0.941 . S
H354 C368 0.939 . S
H355 C370 0.940 . S
H356 C371 0.940 . S
H357 C373 0.939 . S
H358 C374 0.942 . S
H359 C376 0.940 . S
H360 C377 0.939 . S
H361 C379 0.941 . S
H362 C383 0.939 . S
O363 P352 1.490 . S
H364 C380 0.939 . S
H365 C382 0.940 . S
C366 P352 1.812 . S
C366 C367 1.389 . S
C366 C371 1.391 . S
C367 H353 0.941 . S
C367 C366 1.389 . S
C367 C368 1.397 . S
C368 H354 0.939 . S
C368 C367 1.397 . S
C368 C369 1.378 . S
C369 C368 1.378 . S
C369 C370 1.378 . S
C370 H355 0.940 . S
C370 C369 1.378 . S
C370 C371 1.396 . S
C371 H356 0.940 . S
C371 C366 1.391 . S
C371 C370 1.396 . S
C372 P352 1.803 . S
C372 C373 1.378 . S
C372 C377 1.400 . S
C373 H357 0.939 . S
C373 C372 1.378 . S
C373 C374 1.361 . S
C374 H358 0.942 . S
C374 C373 1.361 . S
C374 C375 1.369 . S
C375 C374 1.369 . S
C375 C376 1.404 . S
C376 H359 0.940 . S
C376 C375 1.404 . S
C376 C377 1.389 . S
C377 H360 0.939 . S
C377 C372 1.400 . S
C377 C376 1.389 . S
C378 P352 1.819 . S
C378 C379 1.391 . S
C378 C383 1.391 . S
C379 H361 0.941 . S
C379 C378 1.391 . S
C379 C380 1.396 . S
C380 H364 0.939 . S
C380 C379 1.396 . S
C380 C381 1.397 . S
C381 C380 1.397 . S
C381 C382 1.385 . S
C382 H365 0.940 . S
C382 C381 1.385 . S
C382 C383 1.388 . S
C383 H362 0.939 . S
C383 C378 1.391 . S
C383 C382 1.388 . S
P384 O395 1.490 . S
P384 C398 1.812 . S
P384 C404 1.803 . S
P384 C410 1.819 . S
H385 C399 0.941 . S
H386 C400 0.939 . S
H387 C402 0.940 . S
H388 C403 0.940 . S
H389 C405 0.939 . S
H390 C406 0.942 . S
H391 C408 0.940 . S
H392 C409 0.939 . S
H393 C411 0.941 . S
H394 C415 0.939 . S
O395 P384 1.490 . S
H396 C412 0.939 . S
H397 C414 0.940 . S
C398 P384 1.812 . S
C398 C399 1.389 . S
C398 C403 1.391 . S
C399 H385 0.941 . S
C399 C398 1.389 . S
C399 C400 1.397 . S
C400 H386 0.939 . S
C400 C399 1.397 . S
C400 C401 1.378 . S
C401 C400 1.378 . S
C401 C402 1.378 . S
C402 H387 0.940 . S
C402 C401 1.378 . S
C402 C403 1.396 . S
C403 H388 0.940 . S
C403 C398 1.391 . S
C403 C402 1.396 . S
C404 P384 1.803 . S
C404 C405 1.378 . S
C404 C409 1.400 . S
C405 H389 0.939 . S
C405 C404 1.378 . S
C405 C406 1.361 . S
C406 H390 0.942 . S
C406 C405 1.361 . S
C406 C407 1.369 . S
C407 C406 1.369 . S
C407 C408 1.404 . S
C408 H391 0.940 . S
C408 C407 1.404 . S
C408 C409 1.389 . S
C409 H392 0.939 . S
C409 C404 1.400 . S
C409 C408 1.389 . S
C410 P384 1.819 . S
C410 C411 1.391 . S
C410 C415 1.391 . S
C411 H393 0.941 . S
C411 C410 1.391 . S
C411 C412 1.396 . S
C412 H396 0.939 . S
C412 C411 1.396 . S
C412 C413 1.397 . S
C413 C412 1.397 . S
C413 C414 1.385 . S
C414 H397 0.940 . S
C414 C413 1.385 . S
C414 C415 1.388 . S
C415 H394 0.939 . S
C415 C410 1.391 . S
C415 C414 1.388 . S
P416 O427 1.490 . S
P416 C430 1.812 . S
P416 C436 1.803 . S
P416 C442 1.819 . S
H417 C431 0.941 . S
H418 C432 0.939 . S
H419 C434 0.940 . S
H420 C435 0.940 . S
H421 C437 0.939 . S
H422 C438 0.942 . S
H423 C440 0.940 . S
H424 C441 0.939 . S
H425 C443 0.941 . S
H426 C447 0.939 . S
O427 P416 1.490 . S
H428 C444 0.939 . S
H429 C446 0.940 . S
C430 P416 1.812 . S
C430 C431 1.389 . S
C430 C435 1.391 . S
C431 H417 0.941 . S
C431 C430 1.389 . S
C431 C432 1.397 . S
C432 H418 0.939 . S
C432 C431 1.397 . S
C432 C433 1.378 . S
C433 C432 1.378 . S
C433 C434 1.378 . S
C434 H419 0.940 . S
C434 C433 1.378 . S
C434 C435 1.396 . S
C435 H420 0.940 . S
C435 C430 1.391 . S
C435 C434 1.396 . S
C436 P416 1.803 . S
C436 C437 1.378 . S
C436 C441 1.400 1_556 S
C437 H421 0.939 . S
C437 C436 1.378 . S
C437 C438 1.361 1_556 S
C438 H422 0.942 . S
C438 C437 1.361 1_554 S
C438 C439 1.369 . S
C439 C438 1.369 . S
C439 C440 1.404 . S
C440 H423 0.940 . S
C440 C439 1.404 . S
C440 C441 1.389 . S
C441 H424 0.939 . S
C441 C436 1.400 1_554 S
C441 C440 1.389 . S
C442 P416 1.819 . S
C442 C443 1.391 . S
C442 C447 1.391 . S
C443 H425 0.941 . S
C443 C442 1.391 . S
C443 C444 1.396 . S
C444 H428 0.939 . S
C444 C443 1.396 . S
C444 C445 1.397 . S
C445 C444 1.397 . S
C445 C446 1.385 . S
C446 H429 0.940 . S
C446 C445 1.385 . S
C446 C447 1.388 . S
C447 H426 0.939 . S
C447 C442 1.391 . S
C447 C446 1.388 . S
P448 O459 1.490 . S
P448 C462 1.812 . S
P448 C468 1.803 . S
P448 C474 1.819 . S
H449 C463 0.941 . S
H450 C464 0.939 . S
H451 C466 0.940 . S
H452 C467 0.940 . S
H453 C469 0.939 . S
H454 C470 0.942 . S
H455 C472 0.940 . S
H456 C473 0.939 . S
H457 C475 0.941 . S
H458 C479 0.939 . S
O459 P448 1.490 . S
H460 C476 0.939 . S
H461 C478 0.940 . S
C462 P448 1.812 . S
C462 C463 1.389 . S
C462 C467 1.391 . S
C463 H449 0.941 . S
C463 C462 1.389 . S
C463 C464 1.397 . S
C464 H450 0.939 . S
C464 C463 1.397 . S
C464 C465 1.378 . S
C465 C464 1.378 . S
C465 C466 1.378 . S
C466 H451 0.940 . S
C466 C465 1.378 . S
C466 C467 1.396 . S
C467 H452 0.940 . S
C467 C462 1.391 . S
C467 C466 1.396 . S
C468 P448 1.803 . S
C468 C469 1.378 . S
C468 C473 1.400 . S
C469 H453 0.939 . S
C469 C468 1.378 . S
C469 C470 1.361 . S
C470 H454 0.942 . S
C470 C469 1.361 . S
C470 C471 1.369 . S
C471 C470 1.369 . S
C471 C472 1.404 . S
C472 H455 0.940 . S
C472 C471 1.404 . S
C472 C473 1.389 . S
C473 H456 0.939 . S
C473 C468 1.400 . S
C473 C472 1.389 . S
C474 P448 1.819 . S
C474 C475 1.391 . S
C474 C479 1.391 . S
C475 H457 0.941 . S
C475 C474 1.391 . S
C475 C476 1.396 . S
C476 H460 0.939 . S
C476 C475 1.396 . S
C476 C477 1.397 . S
C477 C476 1.397 . S
C477 C478 1.385 . S
C478 H461 0.940 . S
C478 C477 1.385 . S
C478 C479 1.388 . S
C479 H458 0.939 . S
C479 C474 1.391 . S
C479 C478 1.388 . S
P480 O491 1.490 1_545 S
P480 C494 1.812 1_554 S
P480 C500 1.803 . S
P480 C506 1.819 1_545 S
H481 C495 0.941 . S
H482 C496 0.939 . S
H483 C498 0.940 . S
H484 C499 0.940 . S
H485 C501 0.939 . S
H486 C502 0.942 . S
H487 C504 0.940 . S
H488 C505 0.939 1_556 S
H489 C507 0.940 1_556 S
H490 C511 0.939 . S
O491 P480 1.490 1_565 S
H492 C508 0.939 . S
H493 C510 0.940 1_545 S
C494 P480 1.812 1_556 S
C494 C495 1.389 . S
C494 C499 1.391 . S
C495 H481 0.941 . S
C495 C494 1.389 . S
C495 C496 1.397 . S
C496 H482 0.939 . S
C496 C495 1.397 . S
C496 C497 1.378 . S
C497 C496 1.378 . S
C497 C498 1.378 . S
C498 H483 0.940 . S
C498 C497 1.378 . S
C498 C499 1.396 . S
C499 H484 0.940 . S
C499 C494 1.391 . S
C499 C498 1.396 . S
C500 P480 1.803 . S
C500 C501 1.378 . S
C500 C505 1.400 . S
C501 H485 0.939 . S
C501 C500 1.378 . S
C501 C502 1.361 . S
C502 H486 0.942 . S
C502 C501 1.361 . S
C502 C503 1.369 . S
C503 C502 1.369 . S
C503 C504 1.404 . S
C504 H487 0.940 . S
C504 C503 1.404 . S
C504 C505 1.389 . S
C505 H488 0.939 1_554 S
C505 C500 1.400 . S
C505 C504 1.389 . S
C506 P480 1.819 1_565 S
C506 C507 1.394 . S
C506 C511 1.391 1_565 S
C507 H489 0.940 1_554 S
C507 C506 1.394 . S
C507 C508 1.395 1_554 S
C508 H492 0.939 . S
C508 C507 1.395 1_556 S
C508 C509 1.397 1_556 S
C509 C508 1.397 1_554 S
C509 C510 1.385 . S
C510 H493 0.940 1_565 S
C510 C509 1.385 . S
C510 C511 1.388 1_565 S
C511 H490 0.939 . S
C511 C506 1.391 1_545 S
C511 C510 1.388 1_545 S
C512 O513 1.160 1_554 S
C512 O519 1.185 . S
O513 C512 1.160 1_556 S
O514 Zn515 1.899 1_556 S
O514 C522 1.284 . S
Zn515 O514 1.899 1_554 S
Zn515 O516 2.032 . S
Zn515 O519 2.086 . S
Zn515 O524 1.977 . S
O516 Zn515 2.032 . S
O516 C520 1.278 . S
C517 O518 1.203 . S
C517 O524 1.267 . S
O518 C517 1.203 . S
O519 C512 1.185 . S
O519 Zn515 2.086 . S
C520 O516 1.278 . S
C520 O521 1.211 . S
O521 C520 1.211 . S
C522 O514 1.284 . S
C522 O523 1.273 . S
O523 C522 1.273 . S
O524 Zn515 1.977 . S
O524 C517 1.267 . S
C525 O526 1.160 . S
C525 O532 1.185 . S
O526 C525 1.160 . S
O527 Zn528 1.899 . S
O527 C535 1.284 . S
Zn528 O527 1.899 . S
Zn528 O529 2.032 . S
Zn528 O532 2.086 . S
Zn528 O537 1.977 . S
O529 Zn528 2.032 . S
O529 C533 1.278 . S
C530 O531 1.203 . S
C530 O537 1.267 . S
O531 C530 1.203 . S
O532 C525 1.185 . S
O532 Zn528 2.086 . S
C533 O529 1.278 . S
C533 O534 1.211 . S
O534 C533 1.211 . S
C535 O527 1.284 . S
C535 O536 1.273 . S
O536 C535 1.273 . S
O537 Zn528 1.977 . S
O537 C530 1.267 . S
C538 O539 1.160 1_554 S
C538 O545 1.185 . S
O539 C538 1.160 1_556 S
O540 Zn541 1.899 1_556 S
O540 C548 1.284 . S
Zn541 O540 1.899 1_554 S
Zn541 O542 2.032 1_554 S
Zn541 O545 2.086 . S
Zn541 O550 1.977 . S
O542 Zn541 2.032 1_556 S
O542 C546 1.278 . S
C543 O544 1.203 . S
C543 O550 1.267 . S
O544 C543 1.203 . S
O545 C538 1.185 . S
O545 Zn541 2.086 . S
C546 O542 1.278 . S
C546 O547 1.211 1_556 S
O547 C546 1.211 1_554 S
C548 O540 1.284 . S
C548 O549 1.273 . S
O549 C548 1.273 . S
O550 Zn541 1.977 . S
O550 C543 1.267 . S
C551 O552 1.160 . S
C551 O558 1.185 . S
O552 C551 1.160 . S
O553 Zn554 1.899 . S
O553 C561 1.284 1_545 S
Zn554 O553 1.899 . S
Zn554 O555 2.032 1_545 S
Zn554 O558 2.086 . S
Zn554 O563 1.977 . S
O555 Zn554 2.032 1_565 S
O555 C559 1.278 . S
C556 O557 1.203 1_545 S
C556 O563 1.267 . S
O557 C556 1.203 1_565 S
O558 C551 1.185 . S
O558 Zn554 2.086 . S
C559 O555 1.278 . S
C559 O560 1.211 . S
O560 C559 1.211 . S
C561 O553 1.284 1_565 S
C561 O562 1.273 . S
O562 C561 1.273 . S
O563 Zn554 1.977 . S
O563 C556 1.267 . S
C564 O565 1.160 . S
C564 O571 1.185 . S
O565 C564 1.160 . S
O566 Zn567 1.899 . S
O566 C574 1.284 . S
Zn567 O566 1.899 . S
Zn567 O568 2.032 . S
Zn567 O571 2.086 . S
Zn567 O576 1.977 . S
O568 Zn567 2.032 . S
O568 C572 1.278 . S
C569 O570 1.203 . S
C569 O576 1.267 . S
O570 C569 1.203 . S
O571 C564 1.185 . S
O571 Zn567 2.086 . S
C572 O568 1.278 . S
C572 O573 1.211 . S
O573 C572 1.211 . S
C574 O566 1.284 . S
C574 O575 1.273 . S
O575 C574 1.273 . S
O576 Zn567 1.977 . S
O576 C569 1.267 . S
C577 O578 1.160 . S
C577 O584 1.185 . S
O578 C577 1.160 . S
O579 Zn580 1.899 . S
O579 C587 1.284 . S
Zn580 O579 1.899 . S
Zn580 O581 2.032 . S
Zn580 O584 2.086 . S
Zn580 O589 1.977 . S
O581 Zn580 2.032 . S
O581 C585 1.278 . S
C582 O583 1.203 . S
C582 O589 1.267 . S
O583 C582 1.203 . S
O584 C577 1.185 . S
O584 Zn580 2.086 . S
C585 O581 1.278 . S
C585 O586 1.211 . S
O586 C585 1.211 . S
C587 O579 1.284 . S
C587 O588 1.273 . S
O588 C587 1.273 . S
O589 Zn580 1.977 . S
O589 C582 1.267 . S
C590 O591 1.160 . S
C590 O597 1.185 . S
O591 C590 1.160 . S
O592 Zn593 1.899 . S
O592 C600 1.284 . S
Zn593 O592 1.899 . S
Zn593 O594 2.032 . S
Zn593 O597 2.086 . S
Zn593 O602 1.977 . S
O594 Zn593 2.032 . S
O594 C598 1.278 . S
C595 O596 1.203 . S
C595 O602 1.267 . S
O596 C595 1.203 . S
O597 C590 1.185 . S
O597 Zn593 2.086 . S
C598 O594 1.278 . S
C598 O599 1.211 . S
O599 C598 1.211 . S
C600 O592 1.284 . S
C600 O601 1.273 . S
O601 C600 1.273 . S
O602 Zn593 1.977 . S
O602 C595 1.267 . S
C603 O604 1.160 . S
C603 O610 1.185 . S
O604 C603 1.160 . S
O605 Zn606 1.899 . S
O605 C613 1.284 1_565 S
Zn606 O605 1.899 . S
Zn606 O607 2.032 1_565 S
Zn606 O610 2.086 . S
Zn606 O615 1.977 . S
O607 Zn606 2.032 1_545 S
O607 C611 1.278 . S
C608 O609 1.203 1_565 S
C608 O615 1.267 . S
O609 C608 1.203 1_545 S
O610 C603 1.185 . S
O610 Zn606 2.086 . S
C611 O607 1.278 . S
C611 O612 1.211 . S
O612 C611 1.211 . S
C613 O605 1.284 1_545 S
C613 O614 1.273 . S
O614 C613 1.273 . S
O615 Zn606 1.977 . S
O615 C608 1.267 . S
C616 O617 1.160 1_455 S
C616 O623 1.185 . S
O617 C616 1.160 1_655 S
O618 Zn619 1.899 1_655 S
O618 C626 1.284 . S
Zn619 O618 1.899 1_455 S
Zn619 O620 2.032 1_455 S
Zn619 O623 2.086 . S
Zn619 O628 1.977 . S
O620 Zn619 2.032 1_655 S
O620 C624 1.278 1_655 S
C621 O622 1.203 . S
C621 O628 1.267 . S
O622 C621 1.203 . S
O623 C616 1.185 . S
O623 Zn619 2.086 . S
C624 O620 1.278 1_455 S
C624 O625 1.211 . S
O625 C624 1.211 . S
C626 O618 1.284 . S
C626 O627 1.273 . S
O627 C626 1.273 . S
O628 Zn619 1.977 . S
O628 C621 1.267 . S
C629 O630 1.160 . S
C629 O636 1.185 . S
O630 C629 1.160 . S
O631 Zn632 1.899 . S
O631 C639 1.284 . S
Zn632 O631 1.899 . S
Zn632 O633 2.032 . S
Zn632 O636 2.086 . S
Zn632 O641 1.977 . S
O633 Zn632 2.032 . S
O633 C637 1.278 . S
C634 O635 1.203 . S
C634 O641 1.267 . S
O635 C634 1.203 . S
O636 C629 1.185 . S
O636 Zn632 2.086 . S
C637 O633 1.278 . S
C637 O638 1.211 . S
O638 C637 1.211 . S
C639 O631 1.284 . S
C639 O640 1.273 . S
O640 C639 1.273 . S
O641 Zn632 1.977 . S
O641 C634 1.267 . S
C642 O643 1.160 1_455 S
C642 O649 1.185 . S
O643 C642 1.160 1_655 S
O644 Zn645 1.899 1_655 S
O644 C652 1.284 . S
Zn645 O644 1.899 1_455 S
Zn645 O646 2.032 1_455 S
Zn645 O649 2.086 . S
Zn645 O654 1.977 . S
O646 Zn645 2.032 1_655 S
O646 C650 1.278 . S
C647 O648 1.203 . S
C647 O654 1.267 . S
O648 C647 1.203 . S
O649 C642 1.185 . S
O649 Zn645 2.086 . S
C650 O646 1.278 . S
C650 O651 1.211 1_655 S
O651 C650 1.211 1_455 S
C652 O644 1.284 . S
C652 O653 1.273 . S
O653 C652 1.273 . S
O654 Zn645 1.977 . S
O654 C647 1.267 . S
C655 O656 1.160 . S
C655 O662 1.185 . S
O656 C655 1.160 . S
O657 Zn658 1.899 . S
O657 C665 1.284 . S
Zn658 O657 1.899 . S
Zn658 O659 2.032 . S
Zn658 O662 2.086 . S
Zn658 O667 1.977 . S
O659 Zn658 2.032 . S
O659 C663 1.278 . S
C660 O661 1.203 . S
C660 O667 1.267 . S
O661 C660 1.203 . S
O662 C655 1.185 . S
O662 Zn658 2.086 . S
C663 O659 1.278 . S
C663 O664 1.211 . S
O664 C663 1.211 . S
C665 O657 1.284 . S
C665 O666 1.273 . S
O666 C665 1.273 . S
O667 Zn658 1.977 . S
O667 C660 1.267 . S
C522 C177 1.300 . S
C535 C209 1.686 . S
C253 C548 1.397 . S
C561 C157 1.478 . S
C569 C343 1.428 . S
C582 C401 1.337 . S
C369 C595 1.473 . S
C608 C317 1.584 . S
C375 C626 1.468 . S
C637 C305 1.524 . S
C349 C621 1.406 . S
C629 C413 1.460 . S
C241 C652 1.507 . S
C151 C642 1.418 . S
C189 C647 1.470 . S
C215 C650 1.497 . S
C113 C559 1.459 . S
C471 C551 1.383 . S
C520 C509 1.501 . S
C525 C279 1.483 . S
C145 C572 1.465 . S
C611 C381 1.575 . S
C564 C311 1.442 . S
C590 C407 1.426 . S
C600 C465 1.300 . S
C497 C613 1.687 . S
C285 C574 1.397 . S
C587 C445 1.478 . S
C119 C543 1.428 . S
C556 C17 1.337 . S
C517 C49 1.473 . S
C530 C93 1.584 . S
C55 C639 1.467 . S
C81 C624 1.524 1_655 S
C125 C634 1.406 . S
C29 C616 1.460 . S
C665 C273 1.507 . S
C655 C439 1.418 . S
C660 C477 1.470 . S
C503 C663 1.497 . S
C337 C585 1.459 . S
C577 C183 1.383 . S
C598 C221 1.501 . S
C603 C247 1.485 . S
C433 C546 1.465 . S
C533 C61 1.576 . S
C87 C538 1.442 . S
C512 C23 1.426 . S
