# Generated by pormake.
# Topology pyr, (3,6)-cn, num edge types: 1
# Building blocks:
#     Node 0, Type 0, BuildingBlock: QEWDON_clean_linker_0, # of connection points: 3
#     Node 1, Type 0, BuildingBlock: QEWDON_clean_linker_0, # of connection points: 3
#     Node 2, Type 0, BuildingBlock: QEWDON_clean_linker_0, # of connection points: 3
#     Node 3, Type 0, BuildingBlock: QEWDON_clean_linker_0, # of connection points: 3
#     Node 4, Type 0, BuildingBlock: QEWDON_clean_linker_0, # of connection points: 3
#     Node 5, Type 0, BuildingBlock: QEWDON_clean_linker_0, # of connection points: 3
#     Node 6, Type 0, BuildingBlock: QEWDON_clean_linker_0, # of connection points: 3
#     Node 7, Type 0, BuildingBlock: QEWDON_clean_linker_0, # of connection points: 3
#     Node 8, Type 1, BuildingBlock: PAMTOO_clean_sbu_0, # of connection points: 6
#     Node 9, Type 1, BuildingBlock: PAMTOO_clean_sbu_0, # of connection points: 6
#     Node 10, Type 1, BuildingBlock: PAMTOO_clean_sbu_0, # of connection points: 6
#     Node 11, Type 1, BuildingBlock: PAMTOO_clean_sbu_0, # of connection points: 6
#     Edge 12, Type (0, 1), BuildingBlock: OJICUG_clean_linker_0, # of connection points: 2
#     Edge 13, Type (0, 1), BuildingBlock: OJICUG_clean_linker_0, # of connection points: 2
#     Edge 14, Type (0, 1), BuildingBlock: OJICUG_clean_linker_0, # of connection points: 2
#     Edge 15, Type (0, 1), BuildingBlock: OJICUG_clean_linker_0, # of connection points: 2
#     Edge 16, Type (0, 1), BuildingBlock: OJICUG_clean_linker_0, # of connection points: 2
#     Edge 17, Type (0, 1), BuildingBlock: OJICUG_clean_linker_0, # of connection points: 2
#     Edge 18, Type (0, 1), BuildingBlock: OJICUG_clean_linker_0, # of connection points: 2
#     Edge 19, Type (0, 1), BuildingBlock: OJICUG_clean_linker_0, # of connection points: 2
#     Edge 20, Type (0, 1), BuildingBlock: OJICUG_clean_linker_0, # of connection points: 2
#     Edge 21, Type (0, 1), BuildingBlock: OJICUG_clean_linker_0, # of connection points: 2
#     Edge 22, Type (0, 1), BuildingBlock: OJICUG_clean_linker_0, # of connection points: 2
#     Edge 23, Type (0, 1), BuildingBlock: OJICUG_clean_linker_0, # of connection points: 2
#     Edge 24, Type (0, 1), BuildingBlock: OJICUG_clean_linker_0, # of connection points: 2
#     Edge 25, Type (0, 1), BuildingBlock: OJICUG_clean_linker_0, # of connection points: 2
#     Edge 26, Type (0, 1), BuildingBlock: OJICUG_clean_linker_0, # of connection points: 2
#     Edge 27, Type (0, 1), BuildingBlock: OJICUG_clean_linker_0, # of connection points: 2
#     Edge 28, Type (0, 1), BuildingBlock: OJICUG_clean_linker_0, # of connection points: 2
#     Edge 29, Type (0, 1), BuildingBlock: OJICUG_clean_linker_0, # of connection points: 2
#     Edge 30, Type (0, 1), BuildingBlock: OJICUG_clean_linker_0, # of connection points: 2
#     Edge 31, Type (0, 1), BuildingBlock: OJICUG_clean_linker_0, # of connection points: 2
#     Edge 32, Type (0, 1), BuildingBlock: OJICUG_clean_linker_0, # of connection points: 2
#     Edge 33, Type (0, 1), BuildingBlock: OJICUG_clean_linker_0, # of connection points: 2
#     Edge 34, Type (0, 1), BuildingBlock: OJICUG_clean_linker_0, # of connection points: 2
#     Edge 35, Type (0, 1), BuildingBlock: OJICUG_clean_linker_0, # of connection points: 2
# Relax obj value: 0.202
# Max RMSD: 0.247
# Mean RMSD: 0.179
data_MOF--net-pyr--node1-PAMTOO_clean_sbu_0--node2-QEWDON_clean_linker_0--edge1-OJICUG_clean_linker_0
_symmetry_space_group_name_H-M    P1
_symmetry_Int_Tables_number       1
_symmetry_cell_setting            triclinic
loop_
_symmetry_equiv_pos_as_xyz
'x, y, z'
_cell_length_a     28.069316
_cell_length_b     30.028374
_cell_length_c     30.533399
_cell_angle_alpha  90.677514
_cell_angle_beta   91.075756
_cell_angle_gamma 114.77725
loop_
_atom_site_label
_atom_site_type_symbol
_atom_site_fract_x
_atom_site_fract_y
_atom_site_fract_z
_atom_type_partial_charge
H0 H 0.47524 0.36094 0.2125 0.0
C1 C 0.45928 0.3491 0.24453 0.0
C2 C 0.4609 0.3067 0.26233 0.0
C3 C 0.43379 0.3742 0.26632 0.0
H4 H 0.43696 0.25681 0.31619 0.0
C5 C 0.43833 0.2907 0.30302 0.0
C6 C 0.41339 0.31574 0.32523 0.0
C7 C 0.41164 0.35767 0.30712 0.0
C8 C 0.42525 0.414 0.24405 0.0
H9 H 0.39065 0.37585 0.32371 0.0
C10 C 0.37469 0.4132 0.24154 0.0
C11 C 0.36528 0.44811 0.21694 0.0
C12 C 0.46661 0.45104 0.2227 0.0
H13 H 0.50585 0.45254 0.22425 0.0
C14 C 0.45761 0.48634 0.19897 0.0
H15 H 0.34217 0.38412 0.25695 0.0
C16 C 0.40723 0.48474 0.19576 0.0
H17 H 0.40101 0.51222 0.17682 0.0
H18 H 0.48969 0.51475 0.1826 0.0
H19 H 0.10766 0.81228 0.81632 0.0
C20 C 0.13855 0.80234 0.80547 0.0
C21 C 0.17908 0.80619 0.83488 0.0
C22 C 0.13895 0.78808 0.7616 0.0
H23 H 0.25221 0.79936 0.84236 0.0
C24 C 0.21974 0.79472 0.8202 0.0
C25 C 0.22108 0.78096 0.77632 0.0
C26 C 0.17982 0.77658 0.74731 0.0
C27 C 0.10031 0.79133 0.72976 0.0
H28 H 0.18145 0.76772 0.713 0.0
C29 C 0.09335 0.83495 0.72742 0.0
C30 C 0.05782 0.8395 0.6968 0.0
C31 C 0.0714 0.75197 0.70109 0.0
H32 H 0.07641 0.71814 0.70227 0.0
C33 C 0.03532 0.75593 0.67101 0.0
H34 H 0.11613 0.86563 0.74921 0.0
C35 C 0.02844 0.79936 0.66882 0.0
H36 H 1.00109 0.80193 0.64458 0.0
H37 H 0.01293 0.7254 0.64906 0.0
H38 H 0.73034 0.5104 0.94322 0.0
C39 C 0.709 0.47242 0.95204 0.0
C40 C 0.73238 0.45043 0.98097 0.0
C41 C 0.65657 0.44663 0.93666 0.0
H42 H 0.71881 0.38459 1.01632 0.0
C43 C 0.70254 0.40171 0.99304 0.0
C44 C 0.65042 0.37521 0.97828 0.0
C45 C 0.6277 0.39772 0.94969 0.0
C46 C 0.62825 0.47435 0.91728 0.0
H47 H 0.58658 0.37857 0.94011 0.0
C48 C 0.6345 0.49111 0.87354 0.0
C49 C 0.60815 0.51959 0.85831 0.0
C50 C 0.59535 0.48582 0.94486 0.0
H51 H 0.59011 0.47358 0.97841 0.0
C52 C 0.56963 0.51377 0.92998 0.0
H53 H 0.65963 0.48239 0.85185 0.0
C54 C 0.57605 0.53065 0.88727 0.0
H55 H 0.55496 0.55181 0.87652 0.0
H56 H 0.54453 0.52243 0.95172 0.0
H57 H 0.91852 0.82897 0.40629 0.0
C58 C 0.89017 0.80349 0.42788 0.0
C59 C 0.88381 0.81967 0.47011 0.0
C60 C 0.856 0.75604 0.41193 0.0
H61 H 0.8402 0.79973 0.52919 0.0
C62 C 0.84472 0.78736 0.49664 0.0
C63 C 0.80858 0.74129 0.48088 0.0
C64 C 0.81529 0.72531 0.43885 0.0
C65 C 0.85177 0.74427 0.36398 0.0
H66 H 0.78614 0.69084 0.42548 0.0
C67 C 0.88477 0.72663 0.34175 0.0
C68 C 0.87716 0.71568 0.29595 0.0
C69 C 0.81159 0.75019 0.34025 0.0
H70 H 0.78586 0.76344 0.3565 0.0
C71 C 0.80379 0.73903 0.29565 0.0
H72 H 0.91597 0.72193 0.35965 0.0
C73 C 0.83604 0.72194 0.27374 0.0
H74 H 0.82855 0.71329 0.23903 0.0
H75 H 0.77244 0.74361 0.2779 0.0
H76 H 0.7095 0.79767 1.01413 0.0
C77 C 0.70879 0.80756 0.98017 0.0
C78 C 0.75072 0.81256 0.95328 0.0
C79 C 0.66764 0.81837 0.96408 0.0
H80 H 0.78387 0.83282 0.88993 0.0
C81 C 0.75058 0.82756 0.90997 0.0
C82 C 0.70913 0.83734 0.89292 0.0
C83 C 0.66745 0.83194 0.92025 0.0
C84 C 0.62671 0.81915 0.99361 0.0
H85 H 0.63494 0.83901 0.9078 0.0
C86 C 0.61481 0.86027 0.9949 0.0
C87 C 0.57647 0.862 1.02299 0.0
C88 C 0.59991 0.77954 1.02082 0.0
H89 H 0.60843 0.74753 1.02037 0.0
C90 C 0.56132 0.78072 1.04842 0.0
H91 H 0.63577 0.89115 0.97421 0.0
C92 C 0.54957 0.82157 1.04955 0.0
H93 H 0.52026 0.82196 0.07193 0.0
H94 H 0.54065 0.74998 0.06924 0.0
H95 H 0.91252 0.27577 0.5539 0.0
C96 C 0.89865 0.2782 0.52109 0.0
C97 C 0.92302 0.26757 0.48514 0.0
C98 C 0.85427 0.28811 0.51527 0.0
H99 H 0.92222 0.26 0.41502 0.0
C100 C 0.90468 0.26993 0.44262 0.0
C101 C 0.86166 0.28167 0.43581 0.0
C102 C 0.83706 0.291 0.47227 0.0
C103 C 0.82234 0.28957 0.55356 0.0
H104 H 0.80266 0.29802 0.46691 0.0
C105 C 0.79164 0.31661 0.55221 0.0
C106 C 0.75654 0.31307 0.58571 0.0
C107 C 0.81888 0.26058 0.59042 0.0
H108 H 0.84012 0.23779 0.5925 0.0
C109 C 0.78597 0.25879 0.62466 0.0
H110 H 0.7945 0.34022 0.52493 0.0
C111 C 0.75464 0.28447 0.62226 0.0
H112 H 0.72773 0.28063 0.64841 0.0
H113 H 0.78352 0.23612 0.65258 0.0
H114 H 0.45953 0.8457 0.29556 0.0
C115 C 0.41982 0.82193 0.28477 0.0
C116 C 0.39269 0.84003 0.25591 0.0
C117 C 0.39702 0.7727 0.29852 0.0
H118 H 0.32204 0.82101 0.21719 0.0
C119 C 0.34197 0.80827 0.24137 0.0
C120 C 0.31788 0.7593 0.25466 0.0
C121 C 0.34571 0.7416 0.28343 0.0
C122 C 0.4309 0.7525 0.3216 0.0
H123 H 0.32849 0.70341 0.29255 0.0
C124 C 0.41834 0.72823 0.36233 0.0
C125 C 0.45273 0.70998 0.38198 0.0
C126 C 0.47759 0.75798 0.30142 0.0
H127 H 0.48802 0.77597 0.27022 0.0
C128 C 0.5111 0.74 0.32066 0.0
H129 H 0.38258 0.72368 0.37842 0.0
C130 C 0.49887 0.71624 0.36045 0.0
H131 H 0.52592 0.70289 0.37475 0.0
H132 H 0.54684 0.74449 0.30459 0.0
H133 H 0.24591 0.49549 0.80551 0.0
C134 C 0.2228 0.45977 0.79056 0.0
C135 C 0.23565 0.44793 0.7488 0.0
C136 C 0.18238 0.42444 0.81455 0.0
H137 H 0.21927 0.39007 0.70113 0.0
C138 C 0.20678 0.40046 0.73139 0.0
C139 C 0.16469 0.36497 0.75342 0.0
C140 C 0.1532 0.37723 0.79552 0.0
C141 C 0.179 0.43276 0.86248 0.0
H142 H 0.12268 0.34986 0.81418 0.0
C143 C 0.15782 0.46445 0.88012 0.0
C144 C 0.15643 0.4704 0.92628 0.0
C145 C 0.19916 0.40839 0.89124 0.0
H146 H 0.21587 0.38434 0.87858 0.0
C147 C 0.19865 0.41502 0.93641 0.0
H148 H 0.14162 0.48314 0.85841 0.0
C149 C 0.17738 0.44556 0.95379 0.0
H150 H 0.17663 0.44936 0.98909 0.0
H151 H 0.21448 0.39604 0.95811 0.0
Dy152 Dy 0.08974 0.10305 0.59192 0.0
Dy153 Dy 0.97595 0.08095 0.63432 0.0
C154 C 0.07769 0.1735 0.66486 0.0
O155 O 0.08271 0.05871 0.65199 0.0
O156 O 0.99331 1.01851 0.65451 0.0
O157 O 0.17438 0.14002 0.60003 0.0
O158 O 0.13871 0.09269 0.54334 0.0
O159 O 0.95731 0.03002 0.57521 0.0
O160 O 0.0376 0.02854 0.5651 0.0
O161 O 0.99603 0.14636 0.59304 0.0
O162 O 0.05011 0.13339 0.5439 0.0
O163 O 0.89342 0.06494 0.62738 0.0
O164 O 0.93236 0.08089 0.69144 0.0
C165 C 0.04012 0.02057 0.66298 0.0
O166 O 0.0968 0.17185 0.62634 0.0
O167 O 0.03857 0.13469 0.67939 0.0
C168 C 0.21719 0.16216 0.5327 0.0
C169 C 0.28433 0.22411 0.47081 0.0
C170 C 0.30522 0.20986 0.50736 0.0
C171 C 0.2717 0.17873 0.53807 0.0
C172 C 0.19661 0.17913 0.49771 0.0
C173 C 0.22996 0.20955 0.46677 0.0
C174 C 0.18199 0.12476 0.56175 0.0
C175 C 0.98672 1.01033 0.55737 0.0
C176 C 0.0195 0.15448 0.55541 0.0
C177 C 0.84325 0.02825 0.68952 0.0
C178 C 0.77081 0.9535 0.74007 0.0
C179 C 0.78921 0.94189 0.70081 0.0
C180 C 0.82568 0.97901 0.67596 0.0
C181 C 0.82203 0.04015 0.72651 0.0
C182 C 0.78649 1.0033 0.75169 0.0
C183 C 0.88804 0.06748 0.66958 0.0
H184 H 0.3471 0.22057 0.51082 0.0
H185 H 0.28815 0.16614 0.56505 0.0
H186 H 0.15464 0.16728 0.49331 0.0
H187 H 0.21321 0.22039 0.43883 0.0
H188 H 0.77731 0.90411 0.69028 0.0
H189 H 0.84179 0.96916 0.64739 0.0
H190 H 0.83547 0.07803 0.73752 0.0
H191 H 0.77443 1.01419 0.78191 0.0
Dy192 Dy 0.4635 0.08469 0.08348 0.0
Dy193 Dy 0.58054 0.11649 0.12829 0.0
C194 C 0.48263 0.02301 0.16184 0.0
O195 O 0.47795 0.15093 0.12407 0.0
O196 O 0.54039 0.14928 0.17309 0.0
O197 O 0.38006 0.0632 0.08952 0.0
O198 O 0.41469 0.07197 1.02546 0.0
O199 O 0.58337 0.18301 0.09503 0.0
O200 O 0.51949 0.14553 1.04233 0.0
O201 O 0.57668 0.07456 0.0663 0.0
O202 O 0.48883 0.02631 0.06426 0.0
O203 O 0.66485 0.15498 0.12302 0.0
O204 O 0.63096 0.11041 0.17936 0.0
C205 C 0.50553 0.16573 0.16077 0.0
O206 O 0.45116 0.04126 0.1452 0.0
O207 O 0.53249 0.04135 0.15239 0.0
C208 C 0.32967 1.01057 1.03197 0.0
C209 C 0.25484 0.92754 0.98742 0.0
C210 C 0.30418 0.92937 1.0 0.0
C211 C 0.34118 0.97048 1.02225 0.0
C212 C 0.27928 1.00742 1.02286 0.0
C213 C 0.24193 0.966 1.001 0.0
C214 C 0.37139 0.05727 1.04729 0.0
C215 C 0.55965 0.18451 0.05805 0.0
C216 C 0.53679 0.03319 0.05518 0.0
C217 C 0.70917 0.17994 0.19146 0.0
C218 C 0.76856 0.23813 0.26241 0.0
C219 C 0.72083 0.2395 0.24957 0.0
C220 C 0.69128 0.21056 0.21424 0.0
C221 C 0.75864 0.18155 0.2018 0.0
C222 C 0.78835 0.21065 0.23699 0.0
C223 C 0.67369 0.14145 0.16162 0.0
H224 H 0.3159 0.90085 0.98983 0.0
H225 H 0.37989 0.97222 1.02944 0.0
H226 H 0.26968 0.03794 1.03066 0.0
H227 H 0.20396 0.96532 0.99262 0.0
H228 H 0.70496 0.26069 0.26845 0.0
H229 H 0.65307 0.20971 0.20647 0.0
H230 H 0.77279 0.15795 0.18448 0.0
H231 H 0.82474 0.20854 0.2464 0.0
Dy232 Dy 0.51021 0.54963 0.59315 0.0
Dy233 Dy 0.53135 0.65452 0.64101 0.0
C234 C 0.57073 0.5808 0.68724 0.0
O235 O 0.43143 0.54202 0.61583 0.0
O236 O 0.4626 0.59724 0.67285 0.0
O237 O 0.47855 0.47058 0.59571 0.0
O238 O 0.51797 0.50778 0.53793 0.0
O239 O 0.47555 0.64714 0.58433 0.0
O240 O 0.4918 0.59231 0.5412 0.0
O241 O 0.5961 0.67242 0.594 0.0
O242 O 0.59608 0.59654 0.58462 0.0
O243 O 0.54658 0.73118 0.63799 0.0
O244 O 0.53628 0.69598 0.70062 0.0
C245 C 0.42462 0.55952 0.65372 0.0
O246 O 0.53704 0.54551 0.66199 0.0
O247 O 0.58304 0.62721 0.6788 0.0
C248 C 0.53634 0.44331 0.5628 0.0
C249 C 0.60806 0.40037 0.56989 0.0
C250 C 0.61856 0.44538 0.59121 0.0
C251 C 0.58302 0.46656 0.58774 0.0
C252 C 0.52546 0.39851 0.54134 0.0
C253 C 0.5611 0.37712 0.54486 0.0
C254 C 0.50012 0.46687 0.55922 0.0
C255 C 0.47423 0.62632 0.54583 0.0
C256 C 0.61795 0.64428 0.57943 0.0
C257 C 0.49547 0.74892 0.69008 0.0
C258 C 0.40726 0.76408 0.7157 0.0
C259 C 0.40906 0.74578 0.67348 0.0
C260 C 0.45256 0.73801 0.66088 0.0
C261 C 0.49468 0.76873 0.73169 0.0
C262 C 0.45097 0.77623 0.74443 0.0
C263 C 0.53756 0.73383 0.67946 0.0
H264 H 0.65465 0.46465 0.61012 0.0
H265 H 0.59209 0.50135 0.6044 0.0
H266 H 0.48954 0.38015 0.52196 0.0
H267 H 0.55165 0.34218 0.52842 0.0
H268 H 0.37653 0.73682 0.65028 0.0
H269 H 0.45186 0.72211 0.62872 0.0
H270 H 0.52703 0.77667 0.75491 0.0
H271 H 0.45067 0.78983 0.77738 0.0
Dy272 Dy 0.04156 0.65223 0.08351 0.0
Dy273 Dy 0.02224 0.55483 0.14142 0.0
C274 C 0.98086 0.63512 0.17493 0.0
O275 O 0.10091 0.67659 0.1386 0.0
O276 O 0.10812 0.60447 0.14436 0.0
O277 O 0.06616 0.73054 0.07952 0.0
O278 O 0.04015 0.68484 1.02095 0.0
O279 O 0.03837 0.5386 0.07296 0.0
O280 O 0.08856 0.61633 1.05072 0.0
O281 O 0.94228 0.53531 0.11147 0.0
O282 O 0.96398 0.59558 0.0594 0.0
O283 O 1.0025 0.47731 0.14694 0.0
O284 O 0.03483 0.52592 0.20296 0.0
C285 C 0.12596 0.65143 0.15347 0.0
O286 O 0.98527 0.6516 0.13476 0.0
O287 O 0.99685 0.60117 0.18586 0.0
C288 C 0.01054 0.74657 1.02967 0.0
C289 C 0.92772 0.77323 1.00865 0.0
C290 C 0.92826 0.74999 1.0482 0.0
C291 C 0.96901 0.73655 0.05842 0.0
C292 C 0.01101 0.77076 0.99063 0.0
C293 C 0.96995 0.78403 0.98017 0.0
C294 C 0.05024 0.7276 1.03876 0.0
C295 C 0.07206 0.56848 1.04581 0.0
C296 C 0.93074 0.5547 0.07655 0.0
C297 C 0.07006 0.46954 0.18806 0.0
C298 C 0.16171 0.45286 0.1966 0.0
C299 C 0.15706 0.48353 0.16391 0.0
C300 C 0.11176 0.49149 0.15957 0.0
C301 C 0.07382 0.43844 0.2205 0.0
C302 C 0.11923 0.42996 0.22463 0.0
C303 C 0.02549 0.4832 0.18542 0.0
H304 H 0.89693 0.74177 0.07122 0.0
H305 H 0.96745 0.71739 0.08847 0.0
H306 H 0.04236 0.77821 0.96773 0.0
H307 H 0.97049 0.8013 0.94915 0.0
H308 H 0.18908 0.5028 0.14232 0.0
H309 H 0.10986 0.51594 0.13448 0.0
H310 H 0.04214 0.42142 0.24297 0.0
H311 H 0.12113 0.40572 0.2499 0.0
C312 C 0.33864 0.24743 0.35767 0.0
C313 C 0.3815 0.29314 0.36329 0.0
H314 H 0.274 0.19022 0.38765 0.0
C315 C 0.39256 0.31679 0.40459 0.0
H316 H 0.32938 0.22886 0.32591 0.0
C317 C 0.36129 0.29431 0.44015 0.0
C318 C 0.31803 0.24876 0.43421 0.0
H319 H 0.42551 0.35218 0.40933 0.0
H320 H 0.37039 0.31261 0.47201 0.0
C321 C 0.30694 0.22559 0.39275 0.0
C322 C 0.20186 0.8133 0.91521 0.0
C323 C 0.18453 0.83043 0.87833 0.0
H324 H 0.23578 0.82994 0.98004 0.0
C325 C 0.18082 0.87553 0.88132 0.0
H326 H 0.20431 0.77825 0.91391 0.0
C327 C 0.19935 0.90532 0.91875 0.0
C328 C 0.22175 0.89048 0.9541 0.0
H329 H 0.16801 0.88989 0.8533 0.0
H330 H 0.20036 0.94174 0.91813 0.0
C331 C 0.22 0.84296 0.95293 0.0
C332 C 0.59299 0.50335 0.77687 0.0
C333 C 0.61086 0.537 0.81232 0.0
H334 H 0.56637 0.49069 0.70959 0.0
C335 C 0.62184 0.5865 0.80459 0.0
H336 H 0.58357 0.46494 0.78182 0.0
C337 C 0.61211 0.60144 0.76325 0.0
C338 C 0.59042 0.56712 0.72858 0.0
H339 H 0.63546 0.61331 0.8313 0.0
H340 H 0.61872 0.63936 0.75929 0.0
C341 C 0.58266 0.51817 0.73556 0.0
C342 C 0.92946 0.72065 0.22907 0.0
C343 C 0.91091 0.69844 0.26935 0.0
H344 H 0.9652 0.7185 0.1685 0.0
C345 C 0.91859 0.65633 0.27992 0.0
H346 H 0.9247 0.75333 0.21991 0.0
C347 C 0.94203 0.63584 0.24988 0.0
C348 C 0.958 0.65691 0.20857 0.0
H349 H 0.90437 0.63802 0.31045 0.0
H350 H 0.9462 0.60276 0.2585 0.0
C351 C 0.95237 0.70026 0.19925 0.0
C352 C 0.46138 0.26433 0.19174 0.0
C353 C 0.47822 0.27472 0.23572 0.0
H354 H 0.45679 0.22223 0.13402 0.0
C355 C 0.50684 0.25059 0.2547 0.0
H356 H 0.4385 0.28151 0.17628 0.0
C357 C 0.51713 0.21584 0.23034 0.0
C358 C 0.49836 0.20427 0.18682 0.0
H359 H 0.52046 0.25802 0.28856 0.0
H360 H 0.53848 0.19721 0.24587 0.0
C361 C 0.47128 0.22964 0.16767 0.0
C362 C 1.00353 0.88734 0.68781 0.0
C363 C 0.05302 0.88668 0.69292 0.0
H364 H 0.96053 0.9303 0.67556 0.0
C365 C 0.09815 0.93131 0.69266 0.0
H366 H 0.96806 0.85361 0.68852 0.0
C367 C 0.09397 0.97542 0.68535 0.0
C368 C 0.04453 0.97583 0.67837 0.0
H369 H 0.13689 0.93193 0.69628 0.0
H370 H 0.12959 1.00886 0.68354 0.0
C371 C 0.9993 0.93144 0.68083 0.0
C372 C 0.81649 0.45428 1.01638 0.0
C373 C 0.78534 0.47862 1.00281 0.0
H374 H 0.88514 0.45861 1.05183 0.0
C375 C 0.80344 0.52888 1.01383 0.0
H376 H 0.80552 0.41621 1.00745 0.0
C377 C 0.85051 0.55356 1.03804 0.0
C378 C 0.87973 0.52828 1.0531 0.0
H379 H 0.78077 0.5491 1.0048 0.0
H380 H 0.86363 0.59228 1.04572 0.0
C381 C 0.86237 0.47851 1.0419 0.0
C382 C 0.73795 0.66358 0.51134 0.0
C383 C 0.75982 0.71472 0.50596 0.0
H384 H 0.67627 0.60087 0.53937 0.0
C385 C 0.73451 0.74165 0.52492 0.0
H386 H 0.75637 0.64176 0.49704 0.0
C387 C 0.6895 0.71869 0.5492 0.0
C388 C 0.66762 0.66774 0.55511 0.0
H389 H 0.74917 0.78088 0.52055 0.0
H390 H 0.67157 0.74119 0.56293 0.0
C391 C 0.69232 0.6403 0.53582 0.0
C392 C 0.2814 0.44328 0.24882 0.0
C393 C 0.31154 0.44558 0.212 0.0
H394 H 0.21099 0.44477 0.27309 0.0
C395 C 0.29059 0.44662 0.17016 0.0
H396 H 0.29678 0.44249 0.28147 0.0
C397 C 0.2411 0.44675 0.16518 0.0
C398 C 0.21166 0.44683 0.20201 0.0
H399 H 0.31264 0.44746 0.14119 0.0
H400 H 0.22621 0.44733 0.13232 0.0
C401 C 0.23211 0.44425 0.24392 0.0
C402 C 0.62234 0.32167 1.04333 0.0
C403 C 0.61956 0.32635 0.99772 0.0
H404 H 0.60606 0.27385 0.09753 0.0
C405 C 0.59208 0.28377 0.97178 0.0
H406 H 0.64217 0.35377 0.06438 0.0
C407 C 0.57065 0.23721 0.9911 0.0
C408 C 0.5769 0.23275 1.0365 0.0
H409 H 0.58924 0.28628 0.93656 0.0
H410 H 0.55123 0.20478 0.9704 0.0
C411 C 0.60175 0.27569 0.06234 0.0
C412 C 0.88243 0.89665 0.50118 0.0
C413 C 0.91186 0.87173 0.48586 0.0
H414 H 0.88246 0.9593 0.53537 0.0
C415 C 0.96673 0.89476 0.49084 0.0
H416 H 0.84001 0.87996 0.49758 0.0
C417 C 0.99127 0.94053 0.51282 0.0
C418 C 0.96145 0.96432 0.53011 0.0
H419 H 0.99036 0.87637 0.47964 0.0
H420 H 0.03354 0.95649 0.51746 0.0
C421 C 0.90679 0.9422 0.52297 0.0
C422 C 0.26398 0.73694 0.73292 0.0
C423 C 0.26839 0.77655 0.76009 0.0
H424 H 0.30434 0.70127 0.6984 0.0
C425 C 0.3186 0.81266 0.7716 0.0
H426 H 0.22575 0.70855 0.72369 0.0
C427 C 0.36352 0.80892 0.75679 0.0
C428 C 0.35934 0.76889 0.73022 0.0
H429 H 0.32316 0.84422 0.79173 0.0
H430 H 0.40155 0.83768 0.7659 0.0
C431 C 0.30901 0.73299 0.71831 0.0
C432 C 0.69508 0.89496 0.84044 0.0
C433 C 0.71286 0.85834 0.84845 0.0
H434 H 0.69622 0.95154 0.79831 0.0
C435 C 0.73999 0.8465 0.81527 0.0
H436 H 0.67375 0.90521 0.86476 0.0
C437 C 0.75529 0.87498 0.77796 0.0
C438 C 0.74237 0.91507 0.77228 0.0
H439 H 0.75238 0.81712 0.81927 0.0
H440 H 0.78063 0.86762 0.75552 0.0
C441 C 0.70887 0.92234 0.80243 0.0
C442 C 0.78334 0.25506 0.38482 0.0
C443 C 0.83819 0.27763 0.39111 0.0
H444 H 0.71868 0.22562 0.33922 0.0
C445 C 0.86997 0.29229 0.35419 0.0
H446 H 0.75753 0.24213 0.41226 0.0
C447 C 0.84742 0.28205 0.31194 0.0
C448 C 0.79271 0.25757 0.30596 0.0
H449 H 0.91231 0.31038 0.35793 0.0
H450 H 0.87274 0.29187 0.284 0.0
C451 C 0.76091 0.24547 0.34279 0.0
C452 C 0.44184 0.63693 0.42607 0.0
C453 C 0.4431 0.68419 0.42469 0.0
H454 H 0.44984 0.58155 0.46493 0.0
C455 C 0.44733 0.70972 0.46457 0.0
H456 H 0.43912 0.61653 0.3959 0.0
C457 C 0.4539 0.68969 0.50462 0.0
C458 C 0.45671 0.64388 0.50548 0.0
H459 H 0.44941 0.74656 0.46452 0.0
H460 H 0.46014 0.71149 0.53446 0.0
C461 C 0.44847 0.61707 0.46577 0.0
C462 C 0.1569 0.54944 0.95665 0.0
C463 C 0.13011 0.49864 0.94789 0.0
H464 H 0.15967 0.61186 0.99416 0.0
C465 C 0.08254 0.47257 0.96875 0.0
H466 H 0.19439 0.57023 0.94193 0.0
C467 C 0.06325 0.49592 0.99902 0.0
C468 C 0.09092 0.54625 1.00958 0.0
H469 H 0.0616 0.43329 0.96339 0.0
H470 H 0.0272 0.47388 1.01527 0.0
C471 C 0.13726 0.57313 0.98693 0.0
C472 C 0.60764 0.95359 1.02794 0.0
C473 C 0.56594 0.90653 1.0259 0.0
H474 H 0.63124 0.03065 1.03826 0.0
C475 C 0.51432 0.90229 1.02878 0.0
H476 H 0.6479 0.95811 1.02609 0.0
C477 C 0.50472 0.94389 1.03556 0.0
C478 C 0.54656 0.99073 1.03993 0.0
H479 H 0.48132 0.86664 1.0266 0.0
H480 H 0.4645 0.93898 1.03912 0.0
C481 C 0.59807 0.99522 1.03495 0.0
C482 C 0.95351 0.20116 0.47278 0.0
C483 C 0.96129 0.24614 0.49312 0.0
H484 H 0.9678 0.13639 0.47658 0.0
C485 C 0.99911 0.26514 0.52716 0.0
H486 H 0.92431 0.18536 0.44667 0.0
C487 C 0.02341 0.2369 0.54432 0.0
C488 C 0.01118 0.18975 0.52716 0.0
H489 H 0.00643 0.29996 0.54303 0.0
H490 H 0.04816 0.25013 0.57347 0.0
C491 C 0.97844 0.17309 0.48975 0.0
C492 C 0.22755 0.74609 0.22897 0.0
C493 C 0.2654 0.72722 0.23468 0.0
H494 H 0.15508 0.73772 0.19849 0.0
C495 C 0.25515 0.68095 0.2159 0.0
H496 H 0.23365 0.78119 0.24359 0.0
C497 C 0.20935 0.65552 0.19013 0.0
C498 C 0.17338 0.67623 0.18226 0.0
H499 H 0.2836 0.66549 0.21937 0.0
H500 H 0.20303 0.62051 0.17519 0.0
C501 C 0.18255 0.72126 0.20284 0.0
C502 C 0.32931 0.51225 0.74668 0.0
C503 C 0.2822 0.48224 0.72438 0.0
H504 H 0.41083 0.56009 0.74185 0.0
C505 C 0.2817 0.48115 0.67808 0.0
H506 H 0.33178 0.51381 0.78213 0.0
C507 C 0.32763 0.50637 0.65496 0.0
C508 C 0.37495 0.53469 0.67745 0.0
H509 H 0.24593 0.45964 0.65952 0.0
H510 H 0.32615 0.50348 0.61952 0.0
C511 C 0.37493 0.53845 0.72348 0.0
C512 C 0.78801 0.76119 0.99299 0.0
C513 C 0.79598 0.804 0.97031 0.0
H514 H 0.8231 0.71725 1.02186 0.0
C515 C 0.8476 0.83765 0.96196 0.0
H516 H 0.74864 0.73445 0.99951 0.0
C517 C 0.89031 0.82809 0.97498 0.0
C518 C 0.88243 0.78458 0.99657 0.0
H519 H 0.85496 0.87138 0.94515 0.0
H520 H 0.92955 0.85485 0.96812 0.0
C521 C 0.83075 0.75145 1.00582 0.0
C522 C 0.38844 0.91735 0.22828 0.0
C523 C 0.41805 0.89022 0.23703 0.0
H524 H 0.38512 0.97996 0.19771 0.0
C525 C 0.47034 0.90928 0.22346 0.0
H526 H 0.34831 0.90434 0.23883 0.0
C527 C 0.49162 0.95304 0.20023 0.0
C528 C 0.46115 0.97884 0.1897 0.0
H529 H 0.49421 0.8893 0.229 0.0
H530 H 0.53156 0.96571 0.18924 0.0
C531 C 0.40957 0.96086 0.20472 0.0
C532 C 0.11804 0.2714 0.75646 0.0
C533 C 0.13622 0.31491 0.73222 0.0
H534 H 0.08463 0.19227 0.75433 0.0
C535 C 0.13107 0.31036 0.68616 0.0
H536 H 0.12131 0.27302 0.79188 0.0
C537 C 0.11277 0.26461 0.66497 0.0
C538 C 0.09619 0.22139 0.68892 0.0
H539 H 0.14242 0.34244 0.66601 0.0
H540 H 0.1116 0.26316 0.62953 0.0
C541 C 0.09753 0.22506 0.73498 0.0
C542 C 0.69413 0.33545 0.54104 0.0
C543 C 0.71978 0.33685 0.58141 0.0
H544 H 0.63907 0.35458 0.50567 0.0
C545 C 0.70838 0.35929 0.61789 0.0
H546 H 0.70144 0.31779 0.51244 0.0
C547 C 0.672 0.37964 0.61416 0.0
C548 C 0.64623 0.37813 0.57383 0.0
H549 H 0.72767 0.36124 0.64937 0.0
H550 H 0.6636 0.39607 0.64306 0.0
C551 C 0.65778 0.35587 0.5373 0.0
loop_
_geom_bond_atom_site_label_1
_geom_bond_atom_site_label_2
_geom_bond_distance
_geom_bond_site_symmetry_2
_ccdc_geom_bond_type
H0 C1 0.949 . S
C1 H0 0.949 . S
C1 C2 1.395 . S
C1 C3 1.391 . S
C2 C1 1.395 . S
C2 C5 1.390 . S
C3 C1 1.391 . S
C3 C7 1.387 . S
C3 C8 1.491 . S
H4 C5 0.950 . S
C5 C2 1.390 . S
C5 H4 0.950 . S
C5 C6 1.378 . S
C6 C5 1.378 . S
C6 C7 1.409 . S
C7 C3 1.387 . S
C7 C6 1.409 . S
C7 H9 0.951 . S
C8 C3 1.491 . S
C8 C10 1.382 . S
C8 C12 1.404 . S
H9 C7 0.951 . S
C10 C8 1.382 . S
C10 C11 1.390 . S
C10 H15 0.949 . S
C11 C10 1.390 . S
C11 C16 1.399 . S
C12 C8 1.404 . S
C12 H13 0.950 . S
C12 C14 1.375 . S
H13 C12 0.950 . S
C14 C12 1.375 . S
C14 C16 1.382 . S
C14 H18 0.950 . S
H15 C10 0.949 . S
C16 C11 1.399 . S
C16 C14 1.382 . S
C16 H17 0.952 . S
H17 C16 0.952 . S
H18 C14 0.950 . S
H19 C20 0.949 . S
C20 H19 0.949 . S
C20 C21 1.395 . S
C20 C22 1.391 . S
C21 C20 1.395 . S
C21 C24 1.390 . S
C22 C20 1.391 . S
C22 C26 1.387 . S
C22 C27 1.491 . S
H23 C24 0.950 . S
C24 C21 1.390 . S
C24 H23 0.950 . S
C24 C25 1.378 . S
C25 C24 1.378 . S
C25 C26 1.409 . S
C26 C22 1.387 . S
C26 C25 1.409 . S
C26 H28 0.951 . S
C27 C22 1.491 . S
C27 C29 1.382 . S
C27 C31 1.404 1_455 S
H28 C26 0.951 . S
C29 C27 1.382 . S
C29 C30 1.390 1_455 S
C29 H34 0.949 . S
C30 C29 1.390 1_655 S
C30 C35 1.399 . S
C31 C27 1.404 1_655 S
C31 H32 0.950 1_655 S
C31 C33 1.375 . S
H32 C31 0.950 1_455 S
C33 C31 1.375 . S
C33 C35 1.382 . S
C33 H37 0.950 . S
H34 C29 0.949 . S
C35 C30 1.399 . S
C35 C33 1.382 . S
C35 H36 0.952 . S
H36 C35 0.952 . S
H37 C33 0.950 . S
H38 C39 0.949 . S
C39 H38 0.949 . S
C39 C40 1.395 . S
C39 C41 1.391 . S
C40 C39 1.395 . S
C40 C43 1.390 . S
C41 C39 1.391 . S
C41 C45 1.387 . S
C41 C46 1.491 . S
H42 C43 0.950 . S
C43 C40 1.390 . S
C43 H42 0.950 . S
C43 C44 1.378 . S
C44 C43 1.378 . S
C44 C45 1.409 . S
C45 C41 1.387 . S
C45 C44 1.409 . S
C45 H47 0.951 . S
C46 C41 1.491 . S
C46 C48 1.382 . S
C46 C50 1.404 . S
H47 C45 0.951 . S
C48 C46 1.382 . S
C48 C49 1.390 . S
C48 H53 0.949 . S
C49 C48 1.390 . S
C49 C54 1.399 . S
C50 C46 1.404 . S
C50 H51 0.950 . S
C50 C52 1.375 . S
H51 C50 0.950 . S
C52 C50 1.375 . S
C52 C54 1.382 . S
C52 H56 0.950 . S
H53 C48 0.949 . S
C54 C49 1.399 . S
C54 C52 1.382 . S
C54 H55 0.952 . S
H55 C54 0.952 . S
H56 C52 0.950 . S
H57 C58 0.949 . S
C58 H57 0.949 . S
C58 C59 1.395 . S
C58 C60 1.391 . S
C59 C58 1.395 . S
C59 C62 1.390 . S
C60 C58 1.391 . S
C60 C64 1.387 . S
C60 C65 1.491 . S
H61 C62 0.950 . S
C62 C59 1.390 . S
C62 H61 0.950 . S
C62 C63 1.378 . S
C63 C62 1.378 . S
C63 C64 1.409 . S
C64 C60 1.387 . S
C64 C63 1.409 . S
C64 H66 0.951 . S
C65 C60 1.491 . S
C65 C67 1.382 . S
C65 C69 1.404 . S
H66 C64 0.951 . S
C67 C65 1.382 . S
C67 C68 1.390 . S
C67 H72 0.949 . S
C68 C67 1.390 . S
C68 C73 1.399 . S
C69 C65 1.404 . S
C69 H70 0.950 . S
C69 C71 1.375 . S
H70 C69 0.950 . S
C71 C69 1.375 . S
C71 C73 1.382 . S
C71 H75 0.950 . S
H72 C67 0.949 . S
C73 C68 1.399 . S
C73 C71 1.382 . S
C73 H74 0.952 . S
H74 C73 0.952 . S
H75 C71 0.950 . S
H76 C77 0.949 . S
C77 H76 0.949 . S
C77 C78 1.395 . S
C77 C79 1.391 . S
C78 C77 1.395 . S
C78 C81 1.390 . S
C79 C77 1.391 . S
C79 C83 1.387 . S
C79 C84 1.491 . S
H80 C81 0.950 . S
C81 C78 1.390 . S
C81 H80 0.950 . S
C81 C82 1.378 . S
C82 C81 1.378 . S
C82 C83 1.409 . S
C83 C79 1.387 . S
C83 C82 1.409 . S
C83 H85 0.951 . S
C84 C79 1.491 . S
C84 C86 1.382 . S
C84 C88 1.404 . S
H85 C83 0.951 . S
C86 C84 1.382 . S
C86 C87 1.390 . S
C86 H91 0.949 . S
C87 C86 1.390 . S
C87 C92 1.399 . S
C88 C84 1.404 . S
C88 H89 0.950 . S
C88 C90 1.375 . S
H89 C88 0.950 . S
C90 C88 1.375 . S
C90 C92 1.382 . S
C90 H94 0.950 . S
H91 C86 0.949 . S
C92 C87 1.399 . S
C92 C90 1.382 . S
C92 H93 0.952 . S
H93 C92 0.952 . S
H94 C90 0.950 . S
H95 C96 0.949 . S
C96 H95 0.949 . S
C96 C97 1.395 . S
C96 C98 1.391 . S
C97 C96 1.395 . S
C97 C100 1.390 . S
C98 C96 1.391 . S
C98 C102 1.387 . S
C98 C103 1.491 . S
H99 C100 0.950 . S
C100 C97 1.390 . S
C100 H99 0.950 . S
C100 C101 1.378 . S
C101 C100 1.378 . S
C101 C102 1.409 . S
C102 C98 1.387 . S
C102 C101 1.409 . S
C102 H104 0.951 . S
C103 C98 1.491 . S
C103 C105 1.382 . S
C103 C107 1.404 . S
H104 C102 0.951 . S
C105 C103 1.382 . S
C105 C106 1.390 . S
C105 H110 0.949 . S
C106 C105 1.390 . S
C106 C111 1.399 . S
C107 C103 1.404 . S
C107 H108 0.950 . S
C107 C109 1.375 . S
H108 C107 0.950 . S
C109 C107 1.375 . S
C109 C111 1.382 . S
C109 H113 0.950 . S
H110 C105 0.949 . S
C111 C106 1.399 . S
C111 C109 1.382 . S
C111 H112 0.952 . S
H112 C111 0.952 . S
H113 C109 0.950 . S
H114 C115 0.949 . S
C115 H114 0.949 . S
C115 C116 1.395 . S
C115 C117 1.391 . S
C116 C115 1.395 . S
C116 C119 1.390 . S
C117 C115 1.391 . S
C117 C121 1.387 . S
C117 C122 1.491 . S
H118 C119 0.950 . S
C119 C116 1.390 . S
C119 H118 0.950 . S
C119 C120 1.378 . S
C120 C119 1.378 . S
C120 C121 1.409 . S
C121 C117 1.387 . S
C121 C120 1.409 . S
C121 H123 0.951 . S
C122 C117 1.491 . S
C122 C124 1.382 . S
C122 C126 1.404 . S
H123 C121 0.951 . S
C124 C122 1.382 . S
C124 C125 1.390 . S
C124 H129 0.949 . S
C125 C124 1.390 . S
C125 C130 1.399 . S
C126 C122 1.404 . S
C126 H127 0.950 . S
C126 C128 1.375 . S
H127 C126 0.950 . S
C128 C126 1.375 . S
C128 C130 1.382 . S
C128 H132 0.950 . S
H129 C124 0.949 . S
C130 C125 1.399 . S
C130 C128 1.382 . S
C130 H131 0.952 . S
H131 C130 0.952 . S
H132 C128 0.950 . S
H133 C134 0.949 . S
C134 H133 0.949 . S
C134 C135 1.395 . S
C134 C136 1.391 . S
C135 C134 1.395 . S
C135 C138 1.390 . S
C136 C134 1.391 . S
C136 C140 1.387 . S
C136 C141 1.491 . S
H137 C138 0.950 . S
C138 C135 1.390 . S
C138 H137 0.950 . S
C138 C139 1.378 . S
C139 C138 1.378 . S
C139 C140 1.409 . S
C140 C136 1.387 . S
C140 C139 1.409 . S
C140 H142 0.951 . S
C141 C136 1.491 . S
C141 C143 1.382 . S
C141 C145 1.404 . S
H142 C140 0.951 . S
C143 C141 1.382 . S
C143 C144 1.390 . S
C143 H148 0.949 . S
C144 C143 1.390 . S
C144 C149 1.399 . S
C145 C141 1.404 . S
C145 H146 0.950 . S
C145 C147 1.375 . S
H146 C145 0.950 . S
C147 C145 1.375 . S
C147 C149 1.382 . S
C147 H151 0.950 . S
H148 C143 0.949 . S
C149 C144 1.399 . S
C149 C147 1.382 . S
C149 H150 0.952 . S
H150 C149 0.952 . S
H151 C147 0.950 . S
Dy152 O155 2.307 . S
Dy152 O157 2.395 . S
Dy152 O158 2.379 . S
Dy152 O160 2.339 1_545 S
Dy152 O162 2.298 . S
Dy152 O166 2.275 . S
Dy152 C174 2.738 . S
Dy153 O156 2.293 1_645 S
Dy153 O159 2.275 1_545 S
Dy153 O161 2.307 . S
Dy153 O163 2.395 1_545 S
Dy153 O164 2.379 . S
Dy153 O167 2.339 1_655 S
Dy153 C183 2.738 1_545 S
C154 O166 1.254 . S
C154 O167 1.257 . S
O155 Dy152 2.307 . S
O155 C165 1.266 1_545 S
O156 Dy153 2.293 1_465 S
O156 C165 1.240 . S
O157 Dy152 2.395 . S
O157 C174 1.255 . S
O158 Dy152 2.379 . S
O158 C174 1.249 . S
O159 Dy153 2.275 1_565 S
O159 C175 1.254 . S
O160 Dy152 2.339 1_565 S
O160 C175 1.257 1_455 S
O161 Dy153 2.307 . S
O161 C176 1.266 . S
O162 Dy152 2.298 . S
O162 C176 1.236 1_455 S
O163 Dy153 2.395 1_565 S
O163 C183 1.255 . S
O164 Dy153 2.379 . S
O164 C183 1.249 1_545 S
C165 O155 1.266 1_565 S
C165 O156 1.240 . S
O166 Dy152 2.275 . S
O166 C154 1.254 . S
O167 Dy153 2.339 1_455 S
O167 C154 1.257 . S
C168 C171 1.344 . S
C168 C172 1.328 . S
C168 C174 1.516 . S
C169 C170 1.304 . S
C169 C173 1.323 . S
C170 C169 1.304 . S
C170 C171 1.371 . S
C170 H184 0.930 . S
C171 C168 1.344 . S
C171 C170 1.371 . S
C171 H185 0.931 . S
C172 C168 1.328 . S
C172 C173 1.433 . S
C172 H186 0.931 . S
C173 C169 1.323 . S
C173 C172 1.433 . S
C173 H187 0.933 . S
C174 Dy152 2.738 . S
C174 O157 1.255 . S
C174 O158 1.249 . S
C174 C168 1.516 . S
C175 O159 1.254 . S
C175 O160 1.257 1_655 S
C176 O161 1.266 . S
C176 O162 1.236 1_655 S
C177 C180 1.344 . S
C177 C181 1.328 . S
C177 C183 1.516 . S
C178 C179 1.304 . S
C178 C182 1.323 . S
C179 C178 1.304 . S
C179 C180 1.371 . S
C179 H188 0.930 . S
C180 C177 1.344 . S
C180 C179 1.371 . S
C180 H189 0.931 . S
C181 C177 1.328 . S
C181 C182 1.433 . S
C181 H190 0.931 . S
C182 C178 1.323 . S
C182 C181 1.433 . S
C182 H191 0.933 . S
C183 Dy153 2.738 1_565 S
C183 O163 1.255 . S
C183 O164 1.249 1_565 S
C183 C177 1.516 . S
H184 C170 0.930 . S
H185 C171 0.931 . S
H186 C172 0.931 . S
H187 C173 0.933 . S
H188 C179 0.930 . S
H189 C180 0.931 . S
H190 C181 0.931 . S
H191 C182 0.933 . S
Dy192 O195 2.307 . S
Dy192 O197 2.395 1_545 S
Dy192 O198 2.377 1_544 S
Dy192 O200 2.339 . S
Dy192 O202 2.298 1_545 S
Dy192 O206 2.275 1_545 S
Dy192 C214 2.738 1_544 S
Dy193 O196 2.298 . S
Dy193 O199 2.275 . S
Dy193 O201 2.307 1_545 S
Dy193 O203 2.395 . S
Dy193 O204 2.379 . S
Dy193 O207 2.339 1_545 S
Dy193 C223 2.738 . S
C194 O206 1.254 . S
C194 O207 1.257 . S
O195 Dy192 2.307 . S
O195 C205 1.266 . S
O196 Dy193 2.298 . S
O196 C205 1.236 . S
O197 Dy192 2.395 1_565 S
O197 C214 1.255 1_554 S
O198 Dy192 2.377 1_566 S
O198 C214 1.263 . S
O199 Dy193 2.275 . S
O199 C215 1.254 . S
O200 Dy192 2.339 . S
O200 C215 1.257 . S
O201 Dy193 2.307 1_565 S
O201 C216 1.266 . S
O202 Dy192 2.298 1_565 S
O202 C216 1.236 . S
O203 Dy193 2.395 . S
O203 C223 1.255 . S
O204 Dy193 2.379 . S
O204 C223 1.249 . S
C205 O195 1.266 . S
C205 O196 1.236 . S
O206 Dy192 2.275 1_565 S
O206 C194 1.254 . S
O207 Dy193 2.339 1_565 S
O207 C194 1.257 . S
C208 C211 1.344 . S
C208 C212 1.328 . S
C208 C214 1.516 . S
C209 C210 1.304 . S
C209 C213 1.323 . S
C210 C209 1.304 . S
C210 C211 1.371 . S
C210 H224 0.930 . S
C211 C208 1.344 . S
C211 C210 1.371 . S
C211 H225 0.931 . S
C212 C208 1.328 . S
C212 C213 1.433 . S
C212 H226 0.931 . S
C213 C209 1.323 . S
C213 C212 1.433 . S
C213 H227 0.933 . S
C214 Dy192 2.738 1_566 S
C214 O197 1.255 1_556 S
C214 O198 1.263 . S
C214 C208 1.516 . S
C215 O199 1.254 . S
C215 O200 1.257 . S
C216 O201 1.266 . S
C216 O202 1.236 . S
C217 C220 1.344 . S
C217 C221 1.328 . S
C217 C223 1.516 . S
C218 C219 1.304 . S
C218 C222 1.323 . S
C219 C218 1.304 . S
C219 C220 1.371 . S
C219 H228 0.930 . S
C220 C217 1.344 . S
C220 C219 1.371 . S
C220 H229 0.931 . S
C221 C217 1.328 . S
C221 C222 1.433 . S
C221 H230 0.931 . S
C222 C218 1.323 . S
C222 C221 1.433 . S
C222 H231 0.933 . S
C223 Dy193 2.738 . S
C223 O203 1.255 . S
C223 O204 1.249 . S
C223 C217 1.516 . S
H224 C210 0.930 . S
H225 C211 0.931 . S
H226 C212 0.931 . S
H227 C213 0.933 . S
H228 C219 0.930 . S
H229 C220 0.931 . S
H230 C221 0.931 . S
H231 C222 0.933 . S
Dy232 O235 2.307 . S
Dy232 O237 2.395 . S
Dy232 O238 2.379 . S
Dy232 O240 2.339 . S
Dy232 O242 2.298 . S
Dy232 O246 2.275 . S
Dy232 C254 2.738 . S
Dy233 O236 2.298 . S
Dy233 O239 2.275 . S
Dy233 O241 2.307 . S
Dy233 O243 2.395 . S
Dy233 O244 2.379 . S
Dy233 O247 2.339 . S
Dy233 C263 2.738 . S
C234 O246 1.254 . S
C234 O247 1.257 . S
O235 Dy232 2.307 . S
O235 C245 1.266 . S
O236 Dy233 2.298 . S
O236 C245 1.236 . S
O237 Dy232 2.395 . S
O237 C254 1.255 . S
O238 Dy232 2.379 . S
O238 C254 1.249 . S
O239 Dy233 2.275 . S
O239 C255 1.254 . S
O240 Dy232 2.339 . S
O240 C255 1.257 . S
O241 Dy233 2.307 . S
O241 C256 1.266 . S
O242 Dy232 2.298 . S
O242 C256 1.236 . S
O243 Dy233 2.395 . S
O243 C263 1.255 . S
O244 Dy233 2.379 . S
O244 C263 1.249 . S
C245 O235 1.266 . S
C245 O236 1.236 . S
O246 Dy232 2.275 . S
O246 C234 1.254 . S
O247 Dy233 2.339 . S
O247 C234 1.257 . S
C248 C251 1.344 . S
C248 C252 1.328 . S
C248 C254 1.516 . S
C249 C250 1.304 . S
C249 C253 1.323 . S
C250 C249 1.304 . S
C250 C251 1.371 . S
C250 H264 0.930 . S
C251 C248 1.344 . S
C251 C250 1.371 . S
C251 H265 0.931 . S
C252 C248 1.328 . S
C252 C253 1.433 . S
C252 H266 0.931 . S
C253 C249 1.323 . S
C253 C252 1.433 . S
C253 H267 0.933 . S
C254 Dy232 2.738 . S
C254 O237 1.255 . S
C254 O238 1.249 . S
C254 C248 1.516 . S
C255 O239 1.254 . S
C255 O240 1.257 . S
C256 O241 1.266 . S
C256 O242 1.236 . S
C257 C260 1.344 . S
C257 C261 1.328 . S
C257 C263 1.516 . S
C258 C259 1.304 . S
C258 C262 1.323 . S
C259 C258 1.304 . S
C259 C260 1.371 . S
C259 H268 0.930 . S
C260 C257 1.344 . S
C260 C259 1.371 . S
C260 H269 0.931 . S
C261 C257 1.328 . S
C261 C262 1.433 . S
C261 H270 0.931 . S
C262 C258 1.323 . S
C262 C261 1.433 . S
C262 H271 0.933 . S
C263 Dy233 2.738 . S
C263 O243 1.255 . S
C263 O244 1.249 . S
C263 C257 1.516 . S
H264 C250 0.930 . S
H265 C251 0.931 . S
H266 C252 0.931 . S
H267 C253 0.933 . S
H268 C259 0.930 . S
H269 C260 0.931 . S
H270 C261 0.931 . S
H271 C262 0.933 . S
Dy272 O275 2.307 1_556 S
Dy272 O277 2.395 1_455 S
Dy272 O278 2.379 . S
Dy272 O280 2.339 . S
Dy272 O282 2.298 1_455 S
Dy272 O286 2.275 1_556 S
Dy272 C294 2.738 1_455 S
Dy273 O276 2.298 . S
Dy273 O279 2.275 1_554 S
Dy273 O281 2.307 1_455 S
Dy273 O283 2.395 . S
Dy273 O284 2.379 . S
Dy273 O287 2.339 . S
Dy273 C303 2.738 . S
C274 O286 1.254 . S
C274 O287 1.257 . S
O275 Dy272 2.307 1_554 S
O275 C285 1.266 . S
O276 Dy273 2.298 . S
O276 C285 1.236 . S
O277 Dy272 2.395 1_655 S
O277 C294 1.255 . S
O278 Dy272 2.379 . S
O278 C294 1.249 1_455 S
O279 Dy273 2.275 1_556 S
O279 C295 1.254 . S
O280 Dy272 2.339 . S
O280 C295 1.257 . S
O281 Dy273 2.307 1_655 S
O281 C296 1.266 1_554 S
O282 Dy272 2.298 1_655 S
O282 C296 1.236 . S
O283 Dy273 2.395 . S
O283 C303 1.255 . S
O284 Dy273 2.379 . S
O284 C303 1.249 . S
C285 O275 1.266 . S
C285 O276 1.236 . S
O286 Dy272 2.275 1_554 S
O286 C274 1.254 . S
O287 Dy273 2.339 . S
O287 C274 1.257 . S
C288 C291 1.344 . S
C288 C292 1.328 . S
C288 C294 1.516 . S
C289 C290 1.304 . S
C289 C293 1.323 . S
C290 C289 1.304 . S
C290 C291 1.371 . S
C290 H304 0.930 . S
C291 C288 1.344 . S
C291 C290 1.371 . S
C291 H305 0.931 . S
C292 C288 1.328 . S
C292 C293 1.433 . S
C292 H306 0.931 . S
C293 C289 1.323 . S
C293 C292 1.433 . S
C293 H307 0.933 . S
C294 Dy272 2.738 1_655 S
C294 O277 1.255 . S
C294 O278 1.249 1_655 S
C294 C288 1.516 . S
C295 O279 1.254 . S
C295 O280 1.257 . S
C296 O281 1.266 1_556 S
C296 O282 1.236 . S
C297 C300 1.344 . S
C297 C301 1.328 . S
C297 C303 1.516 . S
C298 C299 1.304 . S
C298 C302 1.323 . S
C299 C298 1.304 . S
C299 C300 1.371 . S
C299 H308 0.930 . S
C300 C297 1.344 . S
C300 C299 1.371 . S
C300 H309 0.931 . S
C301 C297 1.328 . S
C301 C302 1.433 . S
C301 H310 0.931 . S
C302 C298 1.323 . S
C302 C301 1.433 . S
C302 H311 0.933 . S
C303 Dy273 2.738 . S
C303 O283 1.255 . S
C303 O284 1.249 . S
C303 C297 1.516 . S
H304 C290 0.930 . S
H305 C291 0.931 . S
H306 C292 0.931 . S
H307 C293 0.933 . S
H308 C299 0.930 . S
H309 C300 0.931 . S
H310 C301 0.931 . S
H311 C302 0.933 . S
C312 C313 1.387 . S
C312 H316 0.950 . S
C312 C321 1.390 . S
C313 C312 1.387 . S
C313 C315 1.387 . S
H314 C321 0.950 . S
C315 C313 1.387 . S
C315 C317 1.390 . S
C315 H319 0.950 . S
H316 C312 0.950 . S
C317 C315 1.390 . S
C317 C318 1.387 . S
C317 H320 0.950 . S
C318 C317 1.387 . S
C318 C321 1.387 . S
H319 C315 0.950 . S
H320 C317 0.950 . S
C321 C312 1.390 . S
C321 H314 0.950 . S
C321 C318 1.387 . S
C322 C323 1.387 . S
C322 H326 0.950 . S
C322 C331 1.390 . S
C323 C322 1.387 . S
C323 C325 1.387 . S
H324 C331 0.950 . S
C325 C323 1.387 . S
C325 C327 1.390 . S
C325 H329 0.950 . S
H326 C322 0.950 . S
C327 C325 1.390 . S
C327 C328 1.387 . S
C327 H330 0.950 . S
C328 C327 1.387 . S
C328 C331 1.387 . S
H329 C325 0.950 . S
H330 C327 0.950 . S
C331 C322 1.390 . S
C331 H324 0.950 . S
C331 C328 1.387 . S
C332 C333 1.387 . S
C332 H336 0.950 . S
C332 C341 1.390 . S
C333 C332 1.387 . S
C333 C335 1.387 . S
H334 C341 0.950 . S
C335 C333 1.387 . S
C335 C337 1.390 . S
C335 H339 0.950 . S
H336 C332 0.950 . S
C337 C335 1.390 . S
C337 C338 1.387 . S
C337 H340 0.950 . S
C338 C337 1.387 . S
C338 C341 1.387 . S
H339 C335 0.950 . S
H340 C337 0.950 . S
C341 C332 1.390 . S
C341 H334 0.950 . S
C341 C338 1.387 . S
C342 C343 1.387 . S
C342 H346 0.950 . S
C342 C351 1.390 . S
C343 C342 1.387 . S
C343 C345 1.387 . S
H344 C351 0.950 1_455 S
C345 C343 1.387 . S
C345 C347 1.390 . S
C345 H349 0.950 . S
H346 C342 0.950 . S
C347 C345 1.390 . S
C347 C348 1.387 . S
C347 H350 0.950 . S
C348 C347 1.387 . S
C348 C351 1.387 . S
H349 C345 0.950 . S
H350 C347 0.950 . S
C351 C342 1.390 . S
C351 H344 0.950 1_655 S
C351 C348 1.387 . S
C352 C353 1.387 . S
C352 H356 0.950 . S
C352 C361 1.390 . S
C353 C352 1.387 . S
C353 C355 1.387 . S
H354 C361 0.950 . S
C355 C353 1.387 . S
C355 C357 1.390 . S
C355 H359 0.950 . S
H356 C352 0.950 . S
C357 C355 1.390 . S
C357 C358 1.387 . S
C357 H360 0.950 . S
C358 C357 1.387 . S
C358 C361 1.387 . S
H359 C355 0.950 . S
H360 C357 0.950 . S
C361 C352 1.390 . S
C361 H354 0.950 . S
C361 C358 1.387 . S
C362 C363 1.387 . S
C362 H366 0.950 . S
C362 C371 1.390 1_655 S
C363 C362 1.387 . S
C363 C365 1.387 1_655 S
H364 C371 0.950 1_655 S
C365 C363 1.387 1_455 S
C365 C367 1.390 . S
C365 H369 0.950 . S
H366 C362 0.950 . S
C367 C365 1.390 . S
C367 C368 1.387 . S
C367 H370 0.950 . S
C368 C367 1.387 . S
C368 C371 1.387 . S
H369 C365 0.950 . S
H370 C367 0.950 . S
C371 C362 1.390 1_455 S
C371 H364 0.950 1_455 S
C371 C368 1.387 . S
C372 C373 1.387 . S
C372 H376 0.950 . S
C372 C381 1.390 . S
C373 C372 1.387 . S
C373 C375 1.387 . S
H374 C381 0.950 1_554 S
C375 C373 1.387 . S
C375 C377 1.390 . S
C375 H379 0.950 . S
H376 C372 0.950 . S
C377 C375 1.390 . S
C377 C378 1.387 . S
C377 H380 0.950 . S
C378 C377 1.387 . S
C378 C381 1.387 . S
H379 C375 0.950 . S
H380 C377 0.950 . S
C381 C372 1.390 . S
C381 H374 0.950 1_556 S
C381 C378 1.387 . S
C382 C383 1.387 . S
C382 H386 0.950 . S
C382 C391 1.390 . S
C383 C382 1.387 . S
C383 C385 1.387 . S
H384 C391 0.950 . S
C385 C383 1.387 . S
C385 C387 1.390 . S
C385 H389 0.950 . S
H386 C382 0.950 . S
C387 C385 1.390 . S
C387 C388 1.387 . S
C387 H390 0.950 . S
C388 C387 1.387 . S
C388 C391 1.387 . S
H389 C385 0.950 . S
H390 C387 0.950 . S
C391 C382 1.390 . S
C391 H384 0.950 . S
C391 C388 1.387 . S
C392 C393 1.387 . S
C392 H396 0.950 . S
C392 C401 1.390 . S
C393 C392 1.387 . S
C393 C395 1.387 . S
H394 C401 0.950 . S
C395 C393 1.387 . S
C395 C397 1.390 . S
C395 H399 0.950 . S
H396 C392 0.950 . S
C397 C395 1.390 . S
C397 C398 1.387 . S
C397 H400 0.950 . S
C398 C397 1.387 . S
C398 C401 1.387 . S
H399 C395 0.950 . S
H400 C397 0.950 . S
C401 C392 1.390 . S
C401 H394 0.950 . S
C401 C398 1.387 . S
C402 C403 1.387 1_554 S
C402 H406 0.950 . S
C402 C411 1.390 . S
C403 C402 1.387 1_556 S
C403 C405 1.387 . S
H404 C411 0.950 . S
C405 C403 1.387 . S
C405 C407 1.390 . S
C405 H409 0.950 . S
H406 C402 0.950 . S
C407 C405 1.390 . S
C407 C408 1.387 1_556 S
C407 H410 0.950 . S
C408 C407 1.387 1_554 S
C408 C411 1.387 . S
H409 C405 0.950 . S
H410 C407 0.950 . S
C411 C402 1.390 . S
C411 H404 0.950 . S
C411 C408 1.387 . S
C412 C413 1.387 . S
C412 H416 0.950 . S
C412 C421 1.390 . S
C413 C412 1.387 . S
C413 C415 1.387 . S
H414 C421 0.950 . S
C415 C413 1.387 . S
C415 C417 1.390 . S
C415 H419 0.950 . S
H416 C412 0.950 . S
C417 C415 1.390 . S
C417 C418 1.387 . S
C417 H420 0.950 . S
C418 C417 1.387 . S
C418 C421 1.387 . S
H419 C415 0.950 . S
H420 C417 0.950 . S
C421 C412 1.390 . S
C421 H414 0.950 . S
C421 C418 1.387 . S
C422 C423 1.387 . S
C422 H426 0.950 . S
C422 C431 1.390 . S
C423 C422 1.387 . S
C423 C425 1.387 . S
H424 C431 0.950 . S
C425 C423 1.387 . S
C425 C427 1.390 . S
C425 H429 0.950 . S
H426 C422 0.950 . S
C427 C425 1.390 . S
C427 C428 1.387 . S
C427 H430 0.950 . S
C428 C427 1.387 . S
C428 C431 1.387 . S
H429 C425 0.950 . S
H430 C427 0.950 . S
C431 C422 1.390 . S
C431 H424 0.950 . S
C431 C428 1.387 . S
C432 C433 1.387 . S
C432 H436 0.950 . S
C432 C441 1.390 . S
C433 C432 1.387 . S
C433 C435 1.387 . S
H434 C441 0.950 . S
C435 C433 1.387 . S
C435 C437 1.390 . S
C435 H439 0.950 . S
H436 C432 0.950 . S
C437 C435 1.390 . S
C437 C438 1.387 . S
C437 H440 0.950 . S
C438 C437 1.387 . S
C438 C441 1.387 . S
H439 C435 0.950 . S
H440 C437 0.950 . S
C441 C432 1.390 . S
C441 H434 0.950 . S
C441 C438 1.387 . S
C442 C443 1.387 . S
C442 H446 0.950 . S
C442 C451 1.390 . S
C443 C442 1.387 . S
C443 C445 1.387 . S
H444 C451 0.950 . S
C445 C443 1.387 . S
C445 C447 1.390 . S
C445 H449 0.950 . S
H446 C442 0.950 . S
C447 C445 1.390 . S
C447 C448 1.387 . S
C447 H450 0.950 . S
C448 C447 1.387 . S
C448 C451 1.387 . S
H449 C445 0.950 . S
H450 C447 0.950 . S
C451 C442 1.390 . S
C451 H444 0.950 . S
C451 C448 1.387 . S
C452 C453 1.387 . S
C452 H456 0.950 . S
C452 C461 1.390 . S
C453 C452 1.387 . S
C453 C455 1.387 . S
H454 C461 0.950 . S
C455 C453 1.387 . S
C455 C457 1.390 . S
C455 H459 0.950 . S
H456 C452 0.950 . S
C457 C455 1.390 . S
C457 C458 1.387 . S
C457 H460 0.950 . S
C458 C457 1.387 . S
C458 C461 1.387 . S
H459 C455 0.950 . S
H460 C457 0.950 . S
C461 C452 1.390 . S
C461 H454 0.950 . S
C461 C458 1.387 . S
C462 C463 1.387 . S
C462 H466 0.950 . S
C462 C471 1.390 . S
C463 C462 1.387 . S
C463 C465 1.387 . S
H464 C471 0.950 . S
C465 C463 1.387 . S
C465 C467 1.390 . S
C465 H469 0.950 . S
H466 C462 0.950 . S
C467 C465 1.390 . S
C467 C468 1.387 . S
C467 H470 0.950 . S
C468 C467 1.387 . S
C468 C471 1.387 . S
H469 C465 0.950 . S
H470 C467 0.950 . S
C471 C462 1.390 . S
C471 H464 0.950 . S
C471 C468 1.387 . S
C472 C473 1.387 1_554 S
C472 H476 0.950 . S
C472 C481 1.390 . S
C473 C472 1.387 1_556 S
C473 C475 1.387 . S
H474 C481 0.950 . S
C475 C473 1.387 . S
C475 C477 1.390 . S
C475 H479 0.950 . S
H476 C472 0.950 . S
C477 C475 1.390 . S
C477 C478 1.387 1_556 S
C477 H480 0.950 . S
C478 C477 1.387 1_554 S
C478 C481 1.387 . S
H479 C475 0.950 . S
H480 C477 0.950 . S
C481 C472 1.390 . S
C481 H474 0.950 . S
C481 C478 1.387 . S
C482 C483 1.387 . S
C482 H486 0.950 . S
C482 C491 1.390 . S
C483 C482 1.387 . S
C483 C485 1.387 1_655 S
H484 C491 0.950 . S
C485 C483 1.387 1_455 S
C485 C487 1.390 . S
C485 H489 0.950 . S
H486 C482 0.950 . S
C487 C485 1.390 . S
C487 C488 1.387 1_455 S
C487 H490 0.950 . S
C488 C487 1.387 1_655 S
C488 C491 1.387 . S
H489 C485 0.950 . S
H490 C487 0.950 . S
C491 C482 1.390 . S
C491 H484 0.950 . S
C491 C488 1.387 . S
C492 C493 1.387 . S
C492 H496 0.950 . S
C492 C501 1.390 . S
C493 C492 1.387 . S
C493 C495 1.387 . S
H494 C501 0.950 . S
C495 C493 1.387 . S
C495 C497 1.390 . S
C495 H499 0.950 . S
H496 C492 0.950 . S
C497 C495 1.390 . S
C497 C498 1.387 . S
C497 H500 0.950 . S
C498 C497 1.387 . S
C498 C501 1.387 . S
H499 C495 0.950 . S
H500 C497 0.950 . S
C501 C492 1.390 . S
C501 H494 0.950 . S
C501 C498 1.387 . S
C502 C503 1.387 . S
C502 H506 0.950 . S
C502 C511 1.390 . S
C503 C502 1.387 . S
C503 C505 1.387 . S
H504 C511 0.950 . S
C505 C503 1.387 . S
C505 C507 1.390 . S
C505 H509 0.950 . S
H506 C502 0.950 . S
C507 C505 1.390 . S
C507 C508 1.387 . S
C507 H510 0.950 . S
C508 C507 1.387 . S
C508 C511 1.387 . S
H509 C505 0.950 . S
H510 C507 0.950 . S
C511 C502 1.390 . S
C511 H504 0.950 . S
C511 C508 1.387 . S
C512 C513 1.387 . S
C512 H516 0.950 . S
C512 C521 1.390 . S
C513 C512 1.387 . S
C513 C515 1.387 . S
H514 C521 0.950 . S
C515 C513 1.387 . S
C515 C517 1.390 . S
C515 H519 0.950 . S
H516 C512 0.950 . S
C517 C515 1.390 . S
C517 C518 1.387 . S
C517 H520 0.950 . S
C518 C517 1.387 . S
C518 C521 1.387 . S
H519 C515 0.950 . S
H520 C517 0.950 . S
C521 C512 1.390 . S
C521 H514 0.950 . S
C521 C518 1.387 . S
C522 C523 1.387 . S
C522 H526 0.950 . S
C522 C531 1.390 . S
C523 C522 1.387 . S
C523 C525 1.387 . S
H524 C531 0.950 . S
C525 C523 1.387 . S
C525 C527 1.390 . S
C525 H529 0.950 . S
H526 C522 0.950 . S
C527 C525 1.390 . S
C527 C528 1.387 . S
C527 H530 0.950 . S
C528 C527 1.387 . S
C528 C531 1.387 . S
H529 C525 0.950 . S
H530 C527 0.950 . S
C531 C522 1.390 . S
C531 H524 0.950 . S
C531 C528 1.387 . S
C532 C533 1.387 . S
C532 H536 0.950 . S
C532 C541 1.390 . S
C533 C532 1.387 . S
C533 C535 1.387 . S
H534 C541 0.950 . S
C535 C533 1.387 . S
C535 C537 1.390 . S
C535 H539 0.950 . S
H536 C532 0.950 . S
C537 C535 1.390 . S
C537 C538 1.387 . S
C537 H540 0.950 . S
C538 C537 1.387 . S
C538 C541 1.387 . S
H539 C535 0.950 . S
H540 C537 0.950 . S
C541 C532 1.390 . S
C541 H534 0.950 . S
C541 C538 1.387 . S
C542 C543 1.387 . S
C542 H546 0.950 . S
C542 C551 1.390 . S
C543 C542 1.387 . S
C543 C545 1.387 . S
H544 C551 0.950 . S
C545 C543 1.387 . S
C545 C547 1.390 . S
C545 H549 0.950 . S
H546 C542 0.950 . S
C547 C545 1.390 . S
C547 C548 1.387 . S
C547 H550 0.950 . S
C548 C547 1.387 . S
C548 C551 1.387 . S
H549 C545 0.950 . S
H550 C547 0.950 . S
C551 C542 1.390 . S
C551 H544 0.950 . S
C551 C548 1.387 . S
C313 C6 1.217 . S
C318 C169 1.275 . S
C323 C21 1.347 . S
C328 C209 1.421 . S
C338 C234 2.065 . S
C333 C49 2.085 . S
C343 C68 2.236 . S
C348 C274 2.309 1_655 S
C358 C205 2.396 . S
C353 C2 2.267 . S
C368 C165 1.642 . S
C363 C30 1.595 . S
C378 C296 1.787 . S
C373 C40 1.808 . S
C388 C256 1.734 . S
C383 C63 1.834 . S
C393 C11 1.242 . S
C398 C298 1.417 . S
C408 C215 2.468 . S
C403 C44 2.515 . S
C413 C59 1.852 . S
C418 C175 1.839 . S
C423 C25 2.077 . S
C428 C258 2.039 . S
C438 C178 1.339 . S
C433 C82 1.313 . S
C443 C101 1.208 . S
C448 C218 1.274 . S
C453 C125 2.274 . S
C458 C255 2.305 . S
C463 C144 2.107 . S
C468 C295 2.115 . S
C473 C87 1.589 . S
C478 C216 1.689 . S
C488 C176 2.344 . S
C483 C97 2.213 . S
C498 C285 1.701 . S
C493 C120 1.793 . S
C508 C245 1.809 . S
C503 C135 1.823 . S
C513 C78 2.028 . S
C518 C289 2.098 . S
C528 C194 1.812 . S
C523 C116 1.827 . S
C538 C154 2.445 . S
C533 C139 2.491 . S
C543 C106 1.002 . S
C548 C249 1.427 . S
