# Generated by pormake.
# Topology apo, (3,6)-cn, num edge types: 1
# Building blocks:
#     Node 0, Type 0, BuildingBlock: BETDAH_clean_linker_0, # of connection points: 3
#     Node 1, Type 0, BuildingBlock: BETDAH_clean_linker_0, # of connection points: 3
#     Node 2, Type 0, BuildingBlock: BETDAH_clean_linker_0, # of connection points: 3
#     Node 3, Type 0, BuildingBlock: BETDAH_clean_linker_0, # of connection points: 3
#     Node 4, Type 0, BuildingBlock: BETDAH_clean_linker_0, # of connection points: 3
#     Node 5, Type 0, BuildingBlock: BETDAH_clean_linker_0, # of connection points: 3
#     Node 6, Type 0, BuildingBlock: BETDAH_clean_linker_0, # of connection points: 3
#     Node 7, Type 0, BuildingBlock: BETDAH_clean_linker_0, # of connection points: 3
#     Node 8, Type 1, BuildingBlock: MIDCAF_clean_sbu_0, # of connection points: 6
#     Node 9, Type 1, BuildingBlock: MIDCAF_clean_sbu_0, # of connection points: 6
#     Node 10, Type 1, BuildingBlock: MIDCAF_clean_sbu_0, # of connection points: 6
#     Node 11, Type 1, BuildingBlock: MIDCAF_clean_sbu_0, # of connection points: 6
#     Edge 12, Type (0, 1), BuildingBlock: MIFKUJ_clean_linker_0, # of connection points: 2
#     Edge 13, Type (0, 1), BuildingBlock: MIFKUJ_clean_linker_0, # of connection points: 2
#     Edge 14, Type (0, 1), BuildingBlock: MIFKUJ_clean_linker_0, # of connection points: 2
#     Edge 15, Type (0, 1), BuildingBlock: MIFKUJ_clean_linker_0, # of connection points: 2
#     Edge 16, Type (0, 1), BuildingBlock: MIFKUJ_clean_linker_0, # of connection points: 2
#     Edge 17, Type (0, 1), BuildingBlock: MIFKUJ_clean_linker_0, # of connection points: 2
#     Edge 18, Type (0, 1), BuildingBlock: MIFKUJ_clean_linker_0, # of connection points: 2
#     Edge 19, Type (0, 1), BuildingBlock: MIFKUJ_clean_linker_0, # of connection points: 2
#     Edge 20, Type (0, 1), BuildingBlock: MIFKUJ_clean_linker_0, # of connection points: 2
#     Edge 21, Type (0, 1), BuildingBlock: MIFKUJ_clean_linker_0, # of connection points: 2
#     Edge 22, Type (0, 1), BuildingBlock: MIFKUJ_clean_linker_0, # of connection points: 2
#     Edge 23, Type (0, 1), BuildingBlock: MIFKUJ_clean_linker_0, # of connection points: 2
#     Edge 24, Type (0, 1), BuildingBlock: MIFKUJ_clean_linker_0, # of connection points: 2
#     Edge 25, Type (0, 1), BuildingBlock: MIFKUJ_clean_linker_0, # of connection points: 2
#     Edge 26, Type (0, 1), BuildingBlock: MIFKUJ_clean_linker_0, # of connection points: 2
#     Edge 27, Type (0, 1), BuildingBlock: MIFKUJ_clean_linker_0, # of connection points: 2
#     Edge 28, Type (0, 1), BuildingBlock: MIFKUJ_clean_linker_0, # of connection points: 2
#     Edge 29, Type (0, 1), BuildingBlock: MIFKUJ_clean_linker_0, # of connection points: 2
#     Edge 30, Type (0, 1), BuildingBlock: MIFKUJ_clean_linker_0, # of connection points: 2
#     Edge 31, Type (0, 1), BuildingBlock: MIFKUJ_clean_linker_0, # of connection points: 2
#     Edge 32, Type (0, 1), BuildingBlock: MIFKUJ_clean_linker_0, # of connection points: 2
#     Edge 33, Type (0, 1), BuildingBlock: MIFKUJ_clean_linker_0, # of connection points: 2
#     Edge 34, Type (0, 1), BuildingBlock: MIFKUJ_clean_linker_0, # of connection points: 2
#     Edge 35, Type (0, 1), BuildingBlock: MIFKUJ_clean_linker_0, # of connection points: 2
# Relax obj value: 0.014
# Max RMSD: 0.063
# Mean RMSD: 0.056
data_MOF--net-apo--node1-MIDCAF_clean_sbu_0--node2-BETDAH_clean_linker_0--edge1-MIFKUJ_clean_linker_0
_symmetry_space_group_name_H-M    P1
_symmetry_Int_Tables_number       1
_symmetry_cell_setting            triclinic
loop_
_symmetry_equiv_pos_as_xyz
'x, y, z'
_cell_length_a     47.242483
_cell_length_b     53.499882
_cell_length_c     45.437365
_cell_angle_alpha  89.474708
_cell_angle_beta   89.911626
_cell_angle_gamma 90.102085
loop_
_atom_site_label
_atom_site_type_symbol
_atom_site_fract_x
_atom_site_fract_y
_atom_site_fract_z
_atom_type_partial_charge
H0 H 0.39099 0.35201 0.40934 0.0
H1 H 0.33202 0.33103 0.34138 0.0
H2 H 0.3191 0.30626 0.43074 0.0
C3 C 0.37238 0.34179 0.40233 0.0
C4 C 0.35631 0.3288 0.42345 0.0
C5 C 0.36382 0.34289 0.37266 0.0
C6 C 0.33889 0.33029 0.3641 0.0
C7 C 0.3229 0.31687 0.3852 0.0
C8 C 0.33163 0.31648 0.41463 0.0
N9 N 0.29761 0.30376 0.37843 0.0
C10 C 0.28592 0.29972 0.35082 0.0
H11 H 0.14717 0.14502 0.92026 0.0
H12 H 0.1981 0.17647 0.85026 0.0
H13 H 0.20801 0.2023 0.93914 0.0
C14 C 0.16331 0.15803 0.91271 0.0
C15 C 0.17666 0.1735 0.93319 0.0
C16 C 0.17057 0.15914 0.88267 0.0
C17 C 0.19217 0.17564 0.87329 0.0
C18 C 0.20563 0.19132 0.89378 0.0
C19 C 0.19752 0.19028 0.92345 0.0
N20 N 0.22744 0.20844 0.88588 0.0
C21 C 0.23916 0.21203 0.85805 0.0
H22 H 0.86515 0.14554 0.60255 0.0
H23 H 0.82732 0.18697 0.67317 0.0
H24 H 0.82106 0.21407 0.58391 0.0
C25 C 0.85263 0.16126 0.60992 0.0
C26 C 0.84348 0.17923 0.58936 0.0
C27 C 0.84705 0.16391 0.64013 0.0
C28 C 0.83157 0.18474 0.6499 0.0
C29 C 0.822 0.20277 0.62942 0.0
C30 C 0.82839 0.20003 0.59945 0.0
N31 N 0.8067 0.2244 0.63782 0.0
C32 C 0.79183 0.22764 0.66398 0.0
H33 H 0.64954 0.35777 0.09208 0.0
H34 H 0.71267 0.34344 0.15851 0.0
H35 H 0.72477 0.31688 0.07036 0.0
C36 C 0.66922 0.34907 0.09886 0.0
C37 C 0.68558 0.33648 0.07789 0.0
C38 C 0.67887 0.352 0.12791 0.0
C39 C 0.70491 0.34121 0.13626 0.0
C40 C 0.72134 0.32833 0.11545 0.0
C41 C 0.71181 0.32652 0.08634 0.0
N42 N 0.74833 0.31822 0.1223 0.0
C43 C 0.75646 0.30865 0.14958 0.0
H44 H 0.63607 0.65663 0.593 0.0
H45 H 0.69887 0.65152 0.66124 0.0
H46 H 0.71891 0.68875 0.58002 0.0
C47 C 0.6569 0.66121 0.60127 0.0
C48 C 0.67621 0.67398 0.58283 0.0
C49 C 0.66461 0.653 0.62968 0.0
C50 C 0.69192 0.65857 0.64003 0.0
C51 C 0.71123 0.67177 0.6223 0.0
C52 C 0.70341 0.67935 0.59381 0.0
N53 N 0.73988 0.6734 0.63112 0.0
C54 C 0.75094 0.69386 0.64586 0.0
H55 H 0.87312 0.85909 0.08997 0.0
H56 H 0.83291 0.7875 0.08222 0.0
H57 H 0.83717 0.82299 0.16666 0.0
C58 C 0.86127 0.84383 0.09992 0.0
C59 C 0.85589 0.84381 0.13042 0.0
C60 C 0.85298 0.82375 0.08227 0.0
C61 C 0.83926 0.80327 0.0955 0.0
C62 C 0.83302 0.80304 0.12568 0.0
C63 C 0.84138 0.82335 0.14323 0.0
N64 N 0.81961 0.78142 0.13757 0.0
C65 C 0.80253 0.78059 0.16254 0.0
H66 H 0.15058 0.85958 0.41416 0.0
H67 H 0.20961 0.83601 0.34728 0.0
H68 H 0.21902 0.81077 0.43693 0.0
C69 C 0.16871 0.84866 0.40737 0.0
C70 C 0.18329 0.83474 0.42875 0.0
C71 C 0.17786 0.84944 0.37783 0.0
C72 C 0.2023 0.83582 0.36987 0.0
C73 C 0.21713 0.82185 0.39134 0.0
C74 C 0.2076 0.82163 0.42057 0.0
N75 N 0.24176 0.80769 0.38501 0.0
C76 C 0.25448 0.80407 0.35773 0.0
H77 H 0.35649 0.63985 0.92285 0.0
H78 H 0.31521 0.71075 0.93181 0.0
H79 H 0.32239 0.67744 0.8464 0.0
C80 C 0.34455 0.6551 0.91312 0.0
C81 C 0.34018 0.6558 0.88245 0.0
C82 C 0.33537 0.67459 0.93126 0.0
C83 C 0.32194 0.69527 0.91827 0.0
C84 C 0.31671 0.69618 0.88789 0.0
C85 C 0.32575 0.67639 0.86995 0.0
N86 N 0.30468 0.71835 0.87597 0.0
C87 C 0.28477 0.71944 0.85345 0.0
Zn88 Zn 0.03217 0.10852 0.30963 0.0
Zn89 Zn 0.98401 0.11903 0.20687 0.0
Zn90 Zn 0.00903 0.11412 0.25835 0.0
C91 C 0.03668 0.14218 0.20139 0.0
C92 C 0.98828 0.06756 0.21809 0.0
O93 O 0.97949 0.12889 0.29248 0.0
O94 O 0.99788 0.11365 0.33366 0.0
C95 C 0.06332 0.14507 0.27886 0.0
O96 O 0.03838 0.13477 0.22842 0.0
O97 O 0.0145 0.13823 0.18667 0.0
O98 O 0.97972 0.08287 0.19875 0.0
O99 O 1.00044 0.07569 0.24157 0.0
O100 O 0.05878 0.13722 0.30474 0.0
O101 O 0.04847 0.13673 0.2573 0.0
O102 O 0.01966 0.07385 0.26499 0.0
O103 O 0.04609 0.07387 0.3052 0.0
C104 C 0.03572 0.06236 0.28364 0.0
O105 O 0.96819 0.1348 0.26482 0.0
O106 O 0.94984 0.13692 0.22008 0.0
C107 C 0.97818 0.12501 0.32052 0.0
C108 C 0.94828 0.14179 0.24714 0.0
Zn109 Zn 0.53708 0.39362 0.71011 0.0
Zn110 Zn 0.47589 0.38696 0.80681 0.0
Zn111 Zn 0.50603 0.39032 0.758 0.0
C112 C 0.47928 0.43776 0.79311 0.0
C113 C 0.44575 0.36116 0.76396 0.0
O114 O 0.5472 0.37053 0.76561 0.0
O115 O 0.57176 0.37714 0.72475 0.0
C116 C 0.5255 0.44247 0.72645 0.0
O117 O 0.49354 0.42901 0.77123 0.0
O118 O 0.46983 0.42311 0.81274 0.0
O119 O 0.44392 0.36758 0.79055 0.0
O120 O 0.46739 0.36773 0.74834 0.0
O121 O 0.53719 0.43039 0.70606 0.0
O122 O 0.51288 0.43079 0.74772 0.0
O123 O 0.48244 0.37153 0.72205 0.0
O124 O 0.51184 0.37417 0.6842 0.0
C125 C 0.48846 0.36708 0.6949 0.0
O126 O 0.53257 0.37217 0.79257 0.0
O127 O 0.50447 0.36956 0.83146 0.0
C128 C 0.5699 0.36757 0.75016 0.0
C129 C 0.5283 0.36582 0.81969 0.0
Zn130 Zn 0.03289 0.89285 0.80379 0.0
Zn131 Zn 0.98196 0.90081 0.70202 0.0
Zn132 Zn 0.00796 0.89569 0.75208 0.0
C133 C 0.99021 0.94888 0.72056 0.0
C134 C 0.94504 0.87396 0.73778 0.0
O135 O 0.04804 0.87412 0.74576 0.0
O136 O 0.06693 0.87478 0.79028 0.0
C137 C 0.03017 0.94336 0.79038 0.0
O138 O 1.00049 0.9364 0.74253 0.0
O139 O 0.98178 0.93753 0.69798 0.0
O140 O 0.94581 0.88453 0.71285 0.0
O141 O 0.96636 0.87575 0.75537 0.0
O142 O 0.03721 0.92903 0.81133 0.0
O143 O 0.01879 0.93423 0.76699 0.0
O144 O 0.97904 0.87583 0.7833 0.0
O145 O 1.00318 0.87377 0.825 0.0
C146 C 0.9811 0.86901 0.8105 0.0
O147 O 0.03501 0.87752 0.7183 0.0
O148 O 0.0089 0.88135 0.67816 0.0
C149 C 0.0682 0.86827 0.76368 0.0
C150 C 0.03112 0.87362 0.69063 0.0
Zn151 Zn 0.54392 0.62128 0.20825 0.0
Zn152 Zn 0.4847 0.61195 0.30129 0.0
Zn153 Zn 0.51432 0.61752 0.25446 0.0
C154 C 0.53598 0.63249 0.31919 0.0
C155 C 0.48869 0.56474 0.27944 0.0
O156 O 0.48705 0.6354 0.21992 0.0
O157 O 0.51352 0.63003 0.18037 0.0
C158 C 0.5698 0.65267 0.2472 0.0
O159 O 0.53889 0.63479 0.29104 0.0
O160 O 0.51464 0.6213 0.32971 0.0
O161 O 0.47423 0.57647 0.29807 0.0
O162 O 0.50633 0.57654 0.26255 0.0
O163 O 0.56875 0.64895 0.21988 0.0
O164 O 0.55263 0.641 0.2647 0.0
O165 O 0.52721 0.57894 0.24128 0.0
O166 O 0.56028 0.58713 0.20811 0.0
C167 C 0.54717 0.5715 0.22404 0.0
O168 O 0.47382 0.63837 0.24713 0.0
O169 O 0.4548 0.63629 0.29154 0.0
C170 C 0.49055 0.63711 0.19179 0.0
C171 C 0.45402 0.64436 0.26536 0.0
H172 H 0.19944 0.87892 0.33298 0.0
H173 H 0.17406 0.91009 0.30351 0.0
H174 H 0.09577 0.88876 0.34593 0.0
H175 H 0.12051 0.85639 0.37355 0.0
H176 H 0.08336 0.90256 0.294 0.0
H177 H 0.1401 0.93869 0.37052 0.0
H178 H 0.18396 0.9475 0.39795 0.0
H179 H 0.22064 0.98118 0.32064 0.0
H180 H 0.17707 0.97228 0.29266 0.0
H181 H 0.01803 0.02258 0.31602 0.0
H182 H 0.04027 0.98118 0.31816 0.0
H183 H 0.09626 1.00259 0.24723 0.0
H184 H 0.07325 0.04377 0.24439 0.0
H185 H 0.12201 0.98829 0.30436 0.0
H186 H 0.05741 0.95744 0.23189 0.0
H187 H 0.01068 0.94982 0.20972 0.0
H188 H 0.98482 0.90853 0.28667 0.0
H189 H 0.03145 0.91597 0.30939 0.0
C190 C 0.1767 0.88032 0.33539 0.0
C191 C 0.1622 0.8655 0.35626 0.0
C192 C 0.16221 0.89842 0.31877 0.0
C193 C 0.13306 0.90245 0.32314 0.0
C194 C 0.11826 0.88636 0.34229 0.0
C195 C 0.13259 0.868 0.35843 0.0
C196 C 0.11832 0.92457 0.31 0.0
C197 C 0.09187 0.92128 0.29631 0.0
C198 C 0.12932 0.94914 0.31267 0.0
C199 C 0.15551 0.95453 0.32941 0.0
C200 C 0.15761 0.94782 0.35933 0.0
C201 C 0.18239 0.95285 0.37498 0.0
C202 C 0.20511 0.96482 0.36102 0.0
C203 C 0.20305 0.97185 0.3314 0.0
C204 C 0.17832 0.96682 0.31564 0.0
C205 C 0.03429 0.018 0.30013 0.0
C206 C 0.04375 0.03605 0.27978 0.0
C207 C 0.04701 0.99444 0.30138 0.0
C208 C 0.06989 0.98884 0.28283 0.0
C209 C 0.0785 0.0065 0.26156 0.0
C210 C 0.06529 0.02989 0.25984 0.0
C211 C 0.08713 0.9662 0.28875 0.0
C212 C 0.11392 0.96948 0.30138 0.0
C213 C 0.07603 0.9418 0.2859 0.0
C214 C 0.04791 0.93737 0.2724 0.0
C215 C 0.0417 0.94689 0.24419 0.0
C216 C 0.01524 0.94254 0.23148 0.0
C217 C 0.99476 0.92871 0.24678 0.0
C218 C 1.00071 0.91921 0.27483 0.0
C219 C 0.0272 0.92341 0.28759 0.0
H220 H 0.97433 0.92524 0.2369 0.0
H221 H 0.22429 0.9687 0.37317 0.0
H222 H 0.36831 0.66049 0.82948 0.0
H223 H 0.39528 0.62799 0.8038 0.0
H224 H 0.369 0.57372 0.86895 0.0
H225 H 0.34118 0.60554 0.89396 0.0
H226 H 0.43686 0.58854 0.85164 0.0
H227 H 0.34086 0.55822 0.82071 0.0
H228 H 0.29596 0.56563 0.79438 0.0
H229 H 0.34202 0.5846 0.71571 0.0
H230 H 0.3872 0.57763 0.74177 0.0
H231 H 0.47044 0.46359 0.84311 0.0
H232 H 0.45156 0.50551 0.84813 0.0
H233 H 0.45256 0.51506 0.75371 0.0
H234 H 0.47036 0.47214 0.74855 0.0
H235 H 0.40392 0.53055 0.77422 0.0
H236 H 0.49797 0.54907 0.79837 0.0
H237 H 0.54489 0.54382 0.82118 0.0
H238 H 0.50802 0.55195 0.90699 0.0
H239 H 0.46077 0.55685 0.88478 0.0
C240 C 0.36758 0.64148 0.83784 0.0
C241 C 0.35275 0.63571 0.86398 0.0
C242 C 0.38319 0.62301 0.82327 0.0
C243 C 0.38419 0.59855 0.83463 0.0
C244 C 0.36851 0.59252 0.85991 0.0
C245 C 0.35272 0.61079 0.87423 0.0
C246 C 0.40315 0.57945 0.82186 0.0
C247 C 0.42982 0.57584 0.83467 0.0
C248 C 0.39443 0.56374 0.79878 0.0
C249 C 0.36732 0.56777 0.78326 0.0
C250 C 0.34138 0.56425 0.7979 0.0
C251 C 0.3159 0.56829 0.78301 0.0
C252 C 0.31613 0.57568 0.75342 0.0
C253 C 0.34186 0.57895 0.73864 0.0
C254 C 0.3674 0.57495 0.75346 0.0
C255 C 0.4671 0.47471 0.82337 0.0
C256 C 0.47229 0.46465 0.79544 0.0
C257 C 0.45647 0.49884 0.82628 0.0
C258 C 0.45102 0.51377 0.80134 0.0
C259 C 0.45678 0.50402 0.77331 0.0
C260 C 0.46731 0.47962 0.77038 0.0
C261 C 0.43729 0.53861 0.80515 0.0
C262 C 0.41157 0.54347 0.79067 0.0
C263 C 0.44727 0.55587 0.82626 0.0
C264 C 0.47573 0.55329 0.83986 0.0
C265 C 0.49981 0.54963 0.82212 0.0
C266 C 0.52649 0.54671 0.83495 0.0
C267 C 0.52943 0.54754 0.86552 0.0
C268 C 0.50571 0.55134 0.88331 0.0
C269 C 0.47896 0.55425 0.8706 0.0
H270 H 0.5501 0.54525 0.87542 0.0
H271 H 0.29638 0.57879 0.74193 0.0
H272 H 0.62956 0.6161 0.60953 0.0
H273 H 0.59808 0.58905 0.63768 0.0
H274 H 0.62468 0.62408 0.71811 0.0
H275 H 0.6558 0.65223 0.6898 0.0
H276 H 0.62552 0.57139 0.72049 0.0
H277 H 0.55986 0.63519 0.69713 0.0
H278 H 0.5356 0.66632 0.66586 0.0
H279 H 0.50428 0.60781 0.61059 0.0
H280 H 0.52871 0.57633 0.64124 0.0
H281 H 0.53444 0.47445 0.77257 0.0
H282 H 0.54892 0.51858 0.76867 0.0
H283 H 0.53847 0.51573 0.6744 0.0
H284 H 0.52364 0.47225 0.67832 0.0
H285 H 0.52426 0.56106 0.69432 0.0
H286 H 0.60273 0.50142 0.70781 0.0
H287 H 0.62842 0.46935 0.73654 0.0
H288 H 0.63575 0.52 0.80893 0.0
H289 H 0.60982 0.55227 0.78067 0.0
C290 C 0.62831 0.61866 0.63311 0.0
C291 C 0.64502 0.63674 0.64726 0.0
C292 C 0.61033 0.603 0.64923 0.0
C293 C 0.60868 0.6048 0.67995 0.0
C294 C 0.6255 0.62253 0.69437 0.0
C295 C 0.64337 0.63849 0.67815 0.0
C296 C 0.59034 0.58702 0.69655 0.0
C297 C 0.60316 0.56959 0.71552 0.0
C298 C 0.5612 0.58456 0.68995 0.0
C299 C 0.54621 0.60338 0.6715 0.0
C300 C 0.54794 0.62895 0.67821 0.0
C301 C 0.53414 0.64667 0.6606 0.0
C302 C 0.51842 0.63905 0.63625 0.0
C303 C 0.51644 0.61368 0.62948 0.0
C304 C 0.53022 0.59588 0.64701 0.0
C305 C 0.53437 0.48359 0.75121 0.0
C306 C 0.52809 0.46998 0.7257 0.0
C307 C 0.54281 0.50871 0.74896 0.0
C308 C 0.54523 0.52037 0.72116 0.0
C309 C 0.5368 0.50722 0.69607 0.0
C310 C 0.52846 0.4823 0.69831 0.0
C311 C 0.5598 0.54481 0.71701 0.0
C312 C 0.54631 0.56348 0.70028 0.0
C313 C 0.58836 0.54835 0.7255 0.0
C314 C 0.60415 0.5291 0.74231 0.0
C315 C 0.60973 0.50564 0.72991 0.0
C316 C 0.62432 0.48745 0.74609 0.0
C317 C 0.63365 0.49261 0.77457 0.0
C318 C 0.62847 0.51601 0.7869 0.0
C319 C 0.61384 0.53426 0.77082 0.0
H320 H 0.64494 0.4785 0.78707 0.0
H321 H 0.50775 0.6528 0.62263 0.0
H322 H 0.85445 0.89372 0.11758 0.0
H323 H 0.88132 0.92694 0.14121 0.0
H324 H 0.90987 0.875 0.20779 0.0
H325 H 0.88361 0.84118 0.18362 0.0
H326 H 0.89221 0.93027 0.22535 0.0
H327 H 0.95552 0.88141 0.16566 0.0
H328 H 0.9683 0.85842 0.12077 0.0
H329 H 0.95892 0.92553 0.06917 0.0
H330 H 0.9456 0.94882 0.1137 0.0
H331 H 0.98772 0.02935 0.2594 0.0
H332 H 0.97168 0.98625 0.25229 0.0
H333 H 0.9556 1.00283 0.16067 0.0
H334 H 0.9736 0.04488 0.16714 0.0
H335 H 0.97332 0.95834 0.16378 0.0
H336 H 0.90228 0.00494 0.21967 0.0
H337 H 0.88619 0.02895 0.26269 0.0
H338 H 0.90821 0.9677 0.31992 0.0
H339 H 0.92468 0.94344 0.27721 0.0
C340 C 0.86617 0.88934 0.13744 0.0
C341 C 0.86725 0.86469 0.14842 0.0
C342 C 0.88139 0.90839 0.15099 0.0
C343 C 0.89777 0.90333 0.17602 0.0
C344 C 0.8973 0.87922 0.18847 0.0
C345 C 0.8822 0.85998 0.17469 0.0
C346 C 0.91734 0.92285 0.18691 0.0
C347 C 0.91037 0.93612 0.21235 0.0
C348 C 0.94077 0.9306 0.16971 0.0
C349 C 0.94937 0.9168 0.14298 0.0
C350 C 0.95598 0.89122 0.1447 0.0
C351 C 0.96335 0.87814 0.11933 0.0
C352 C 0.96437 0.8905 0.09212 0.0
C353 C 0.95811 0.91598 0.09026 0.0
C354 C 0.95068 0.92914 0.11556 0.0
C355 C 0.98182 0.02349 0.23755 0.0
C356 C 0.98217 0.04059 0.21385 0.0
C357 C 0.97207 0.99895 0.2336 0.0
C358 C 0.96172 0.99132 0.20605 0.0
C359 C 0.96334 0.0081 0.18218 0.0
C360 C 0.97353 0.03231 0.18597 0.0
C361 C 0.9477 0.96661 0.20177 0.0
C362 C 0.95565 0.95228 0.17736 0.0
C363 C 0.92505 0.95807 0.21983 0.0
C364 C 0.91487 0.9725 0.24536 0.0
C365 C 0.90375 0.99665 0.24146 0.0
C366 C 0.89458 0.01029 0.26576 0.0
C367 C 0.89623 0.99987 0.29403 0.0
C368 C 0.90697 0.97575 0.29803 0.0
C369 C 0.9162 0.96204 0.27379 0.0
H370 H 0.88914 0.01046 0.31282 0.0
H371 H 0.97006 0.88034 0.0725 0.0
H372 H 0.88281 0.17172 0.68645 0.0
H373 H 0.91004 0.13974 0.71339 0.0
H374 H 0.86595 0.0819 0.66628 0.0
H375 H 0.83896 0.11368 0.63943 0.0
H376 H 0.8761 0.06791 0.72365 0.0
H377 H 0.9268 0.10388 0.64033 0.0
H378 H 0.94827 0.13857 0.61203 0.0
H379 H 1.00284 0.15525 0.68479 0.0
H380 H 0.98128 0.12086 0.71375 0.0
H381 H 0.99119 0.98202 0.67518 0.0
H382 H 0.97135 0.02401 0.6744 0.0
H383 H 0.95683 0.01944 0.76806 0.0
H384 H 0.97645 0.97693 0.76883 0.0
H385 H 0.9784 0.06909 0.69863 0.0
H386 H 0.89034 0.04446 0.77979 0.0
H387 H 0.86762 0.00737 0.80246 0.0
H388 H 0.88638 0.96445 0.72545 0.0
H389 H 0.90886 1.00136 0.70225 0.0
C390 C 0.8784 0.15214 0.68259 0.0
C391 C 0.85887 0.1451 0.66088 0.0
C392 C 0.89405 0.13392 0.69783 0.0
C393 C 0.89022 0.10842 0.69166 0.0
C394 C 0.86924 0.10142 0.67148 0.0
C395 C 0.85387 0.11957 0.6561 0.0
C396 C 0.90985 0.08905 0.7034 0.0
C397 C 0.89858 0.06842 0.71873 0.0
C398 C 0.93915 0.08949 0.69671 0.0
C399 C 0.95216 0.11007 0.67933 0.0
C400 C 0.9432 0.11509 0.65038 0.0
C401 C 0.95541 0.13467 0.6342 0.0
C402 C 0.97686 0.14916 0.64662 0.0
C403 C 0.98617 0.14406 0.67523 0.0
C404 C 0.97395 0.12454 0.69155 0.0
C405 C 0.98448 0.9902 0.69577 0.0
C406 C 0.98518 0.97614 0.72202 0.0
C407 C 0.97323 0.01428 0.69532 0.0
C408 C 0.96215 0.02478 0.72107 0.0
C409 C 0.96497 0.01161 0.74786 0.0
C410 C 0.97638 0.9874 0.74832 0.0
C411 C 0.9446 0.04778 0.71856 0.0
C412 C 0.95618 0.06905 0.70473 0.0
C413 C 0.91547 0.0477 0.72606 0.0
C414 C 0.90155 0.02554 0.73951 0.0
C415 C 0.88952 0.02711 0.76771 0.0
C416 C 0.8767 0.00613 0.78064 0.0
C417 C 0.87566 0.98354 0.76545 0.0
C418 C 0.88729 0.98192 0.73724 0.0
C419 C 0.90007 1.00286 0.72419 0.0
H420 H 0.86577 0.96732 0.77552 0.0
H421 H 0.98631 0.1643 0.63404 0.0
H422 H 0.699 0.39017 0.16145 0.0
H423 H 0.67141 0.42185 0.18708 0.0
H424 H 0.59432 0.38283 0.16524 0.0
H425 H 0.62193 0.35138 0.139 0.0
H426 H 0.58893 0.42913 0.15072 0.0
H427 H 0.61898 0.38814 0.23826 0.0
H428 H 0.65237 0.36847 0.27305 0.0
H429 H 0.69711 0.43798 0.28122 0.0
H430 H 0.66424 0.458 0.24615 0.0
H431 H 0.5143 0.529 0.22181 0.0
H432 H 0.5311 0.48584 0.21497 0.0
H433 H 0.61748 0.51206 0.21673 0.0
H434 H 0.60087 0.55478 0.2236 0.0
H435 H 0.61061 0.46723 0.24719 0.0
H436 H 0.58399 0.50549 0.1539 0.0
H437 H 0.55081 0.52464 0.1185 0.0
H438 H 0.49916 0.45853 0.12123 0.0
H439 H 0.53175 0.43918 0.15716 0.0
C440 C 0.67624 0.38796 0.16285 0.0
C441 C 0.66264 0.36831 0.14818 0.0
C442 C 0.66042 0.4061 0.17754 0.0
C443 C 0.63067 0.40475 0.17831 0.0
C444 C 0.61719 0.38439 0.16492 0.0
C445 C 0.63298 0.36639 0.14999 0.0
C446 C 0.6137 0.42582 0.19037 0.0
C447 C 0.59319 0.43702 0.17218 0.0
C448 C 0.61941 0.43645 0.21819 0.0
C449 C 0.63921 0.42453 0.23941 0.0
C450 C 0.63605 0.3992 0.24731 0.0
C451 C 0.65488 0.38799 0.26712 0.0
C452 C 0.67687 0.40196 0.2793 0.0
C453 C 0.68006 0.42718 0.27176 0.0
C454 C 0.66131 0.43848 0.25195 0.0
C455 C 0.53682 0.52534 0.22148 0.0
C456 C 0.55632 0.54512 0.22337 0.0
C457 C 0.5464 0.50077 0.21735 0.0
C458 C 0.57557 0.49575 0.21521 0.0
C459 C 0.59492 0.51543 0.21843 0.0
C460 C 0.58541 0.53985 0.22218 0.0
C461 C 0.58642 0.47062 0.20726 0.0
C462 C 0.60586 0.4588 0.22613 0.0
C463 C 0.57966 0.45932 0.18011 0.0
C464 C 0.56002 0.47107 0.15866 0.0
C465 C 0.56536 0.49516 0.14727 0.0
C466 C 0.5467 0.50603 0.12704 0.0
C467 C 0.52282 0.49286 0.11772 0.0
C468 C 0.51764 0.46874 0.1285 0.0
C469 C 0.53617 0.45783 0.14883 0.0
H470 H 0.5084 0.5013 0.10206 0.0
H471 H 0.69143 0.39324 0.29463 0.0
H472 H 0.42122 0.34455 0.36557 0.0
H473 H 0.4487 0.37672 0.33973 0.0
H474 H 0.37156 0.40969 0.30705 0.0
H475 H 0.34386 0.37753 0.33303 0.0
H476 H 0.4174 0.41303 0.2663 0.0
H477 H 0.39724 0.43043 0.36861 0.0
H478 H 0.39704 0.42017 0.42164 0.0
H479 H 0.48772 0.41491 0.42093 0.0
H480 H 0.4884 0.42469 0.36772 0.0
H481 H 0.4406 0.54331 0.26092 0.0
H482 H 0.42654 0.4996 0.26703 0.0
H483 H 0.50974 0.48189 0.30022 0.0
H484 H 0.52384 0.52601 0.29394 0.0
H485 H 0.4678 0.46684 0.33766 0.0
H486 H 0.48795 0.45814 0.23665 0.0
H487 H 0.48736 0.4698 0.1842 0.0
H488 H 0.39737 0.45899 0.18154 0.0
H489 H 0.39717 0.44819 0.23441 0.0
C490 C 0.41012 0.35836 0.35239 0.0
C491 C 0.38034 0.35874 0.3517 0.0
C492 C 0.42587 0.37669 0.33757 0.0
C493 C 0.41217 0.39585 0.32187 0.0
C494 C 0.38256 0.39508 0.31906 0.0
C495 C 0.36675 0.37667 0.33388 0.0
C496 C 0.42829 0.41825 0.31179 0.0
C497 C 0.42835 0.42489 0.28182 0.0
C498 C 0.44319 0.43335 0.33202 0.0
C499 C 0.44285 0.428 0.36413 0.0
C500 C 0.41712 0.42691 0.37972 0.0
C501 C 0.41692 0.42119 0.40981 0.0
C502 C 0.44235 0.41682 0.42463 0.0
C503 C 0.46804 0.41825 0.4094 0.0
C504 C 0.46835 0.42388 0.37928 0.0
C505 C 0.45615 0.52988 0.26857 0.0
C506 C 0.48335 0.53779 0.2766 0.0
C507 C 0.44812 0.50492 0.27209 0.0
C508 C 0.46709 0.48739 0.28399 0.0
C509 C 0.49479 0.49508 0.2909 0.0
C510 C 0.50291 0.52015 0.28712 0.0
C511 C 0.45668 0.46196 0.29211 0.0
C512 C 0.45746 0.45478 0.32188 0.0
C513 C 0.44255 0.44648 0.27165 0.0
C514 C 0.44253 0.45248 0.23965 0.0
C515 C 0.46797 0.45843 0.22499 0.0
C516 C 0.46779 0.46487 0.19514 0.0
C517 C 0.44238 0.46504 0.17947 0.0
C518 C 0.41706 0.45882 0.19369 0.0
C519 C 0.41706 0.45257 0.22365 0.0
H520 H 0.44233 0.47001 0.15632 0.0
H521 H 0.44215 0.41237 0.44792 0.0
H522 H 0.19362 0.12863 0.84085 0.0
H523 H 0.16908 0.09636 0.81246 0.0
H524 H 0.0894 0.11931 0.84995 0.0
H525 H 0.1137 0.15165 0.87787 0.0
H526 H 0.1427 0.05794 0.83676 0.0
H527 H 0.03435 0.10362 0.80472 0.0
H528 H 0.01642 0.14399 0.78608 0.0
H529 H 0.09857 0.16179 0.75112 0.0
H530 H 0.1169 0.12134 0.76905 0.0
H531 H 0.03552 0.97072 0.84001 0.0
H532 H 0.05801 0.01155 0.84482 0.0
H533 H 0.06596 0.01732 0.75047 0.0
H534 H 0.04366 0.97605 0.74546 0.0
H535 H 0.05317 0.06437 0.78017 0.0
H536 H 0.12027 0.99761 0.78221 0.0
H537 H 0.13874 0.95653 0.79792 0.0
H538 H 0.14228 0.98141 0.88742 0.0
H539 H 0.12337 0.02251 0.87231 0.0
C540 C 0.17078 0.12721 0.84235 0.0
C541 C 0.1556 0.14249 0.86176 0.0
C542 C 0.15679 0.10871 0.82624 0.0
C543 C 0.12735 0.10541 0.82897 0.0
C544 C 0.11202 0.12164 0.8471 0.0
C545 C 0.12599 0.13998 0.86328 0.0
C546 C 0.11308 0.08319 0.81616 0.0
C547 C 0.12334 0.05946 0.82407 0.0
C548 C 0.08792 0.08501 0.79928 0.0
C549 C 0.07707 0.10947 0.78849 0.0
C550 C 0.04858 0.11608 0.79296 0.0
C551 C 0.03834 0.139 0.78251 0.0
C552 C 0.05636 0.15547 0.7675 0.0
C553 C 0.08466 0.14905 0.76286 0.0
C554 C 0.095 0.12614 0.7732 0.0
C555 C 0.04145 0.98089 0.82021 0.0
C556 C 0.03785 0.97014 0.79235 0.0
C557 C 0.05431 0.00422 0.823 0.0
C558 C 0.06401 0.01727 0.79803 0.0
C559 C 0.05861 0.00752 0.77 0.0
C560 C 0.04572 0.98401 0.76717 0.0
C561 C 0.08235 0.03955 0.80186 0.0
C562 C 0.07282 0.06309 0.7924 0.0
C563 C 0.10842 0.03766 0.817 0.0
C564 C 0.12024 0.01309 0.82614 0.0
C565 C 0.12482 0.99427 0.80527 0.0
C566 C 0.13538 0.97098 0.81406 0.0
C567 C 0.14164 0.96635 0.84365 0.0
C568 C 0.13742 0.98502 0.8645 0.0
C569 C 0.1268 0.00833 0.85583 0.0
H570 H 0.14981 0.94831 0.85042 0.0
H571 H 0.04839 0.1732 0.75942 0.0
H572 H 0.15959 0.21135 0.96895 0.0
H573 H 0.14409 0.20822 0.0203 0.0
H574 H 0.16202 0.12909 0.02022 0.0
H575 H 0.17608 0.13208 0.96845 0.0
H576 H 0.11514 0.13434 0.04435 0.0
H577 H 0.20317 0.17564 0.05832 0.0
H578 H 0.24052 0.20746 0.05189 0.0
H579 H 0.18407 0.26415 0.08323 0.0
H580 H 0.1462 0.23276 0.08937 0.0
H581 H 0.08737 0.11953 0.19498 0.0
H582 H 0.12142 0.12796 0.15529 0.0
H583 H 0.07515 0.19435 0.13098 0.0
H584 H 0.04056 0.18549 0.17003 0.0
H585 H 0.1414 0.1937 0.12298 0.0
H586 H 0.0517 0.1504 0.0994 0.0
H587 H 0.01715 0.11682 0.10978 0.0
H588 H 0.08236 0.06173 0.09965 0.0
H589 H 0.11741 0.09509 0.08974 0.0
C590 C 0.16039 0.19336 0.98007 0.0
C591 C 0.16891 0.17194 0.9648 0.0
C592 C 0.15175 0.19159 0.0095 0.0
C593 C 0.15222 0.16846 0.0245 0.0
C594 C 0.16135 0.14715 0.00928 0.0
C595 C 0.1694 0.14884 0.9797 0.0
C596 C 0.14132 0.16608 0.05527 0.0
C597 C 0.12141 0.14718 0.0615 0.0
C598 C 0.14907 0.18284 0.07798 0.0
C599 C 0.17172 0.20185 0.07398 0.0
C600 C 0.19861 0.19493 0.06355 0.0
C601 C 0.2199 0.21289 0.06001 0.0
C602 C 0.21465 0.23782 0.06706 0.0
C603 C 0.18809 0.24484 0.07771 0.0
C604 C 0.16671 0.22697 0.08123 0.0
C605 C 0.08528 0.13654 0.18204 0.0
C606 C 0.06154 0.15196 0.18552 0.0
C607 C 0.10465 0.14128 0.15934 0.0
C608 C 0.10064 0.16168 0.14015 0.0
C609 C 0.07866 0.17861 0.14567 0.0
C610 C 0.05895 0.17355 0.16795 0.0
C611 C 0.1153 0.1625 0.11133 0.0
C612 C 0.13563 0.18098 0.10559 0.0
C613 C 0.10839 0.14522 0.08914 0.0
C614 C 0.08718 0.1252 0.09414 0.0
C615 C 0.05868 0.13113 0.09959 0.0
C616 C 0.03902 0.11215 0.10537 0.0
C617 C 0.04757 0.08715 0.10545 0.0
C618 C 0.07578 0.08109 0.09962 0.0
C619 C 0.09555 0.10002 0.09392 0.0
H620 H 0.03232 0.07248 0.10996 0.0
H621 H 0.23117 0.25169 0.06433 0.0
H622 H 0.3236 0.33919 0.47142 0.0
H623 H 0.33833 0.34049 0.52316 0.0
H624 H 0.42292 0.31925 0.49804 0.0
H625 H 0.4084 0.31819 0.44625 0.0
H626 H 0.40001 0.29316 0.54978 0.0
H627 H 0.41278 0.37676 0.50882 0.0
H628 H 0.3962 0.41497 0.48352 0.0
H629 H 0.3336 0.42582 0.5508 0.0
H630 H 0.34954 0.3874 0.57628 0.0
H631 H 0.50034 0.3367 0.64939 0.0
H632 H 0.46871 0.32434 0.60985 0.0
H633 H 0.39863 0.35913 0.65456 0.0
H634 H 0.43061 0.37178 0.69444 0.0
H635 H 0.4041 0.37588 0.59816 0.0
H636 H 0.39771 0.29708 0.64458 0.0
H637 H 0.41435 0.25921 0.67046 0.0
H638 H 0.46328 0.23869 0.59475 0.0
H639 H 0.44737 0.27668 0.56855 0.0
C640 C 0.34526 0.33457 0.47701 0.0
C641 C 0.36491 0.32865 0.45486 0.0
C642 C 0.35363 0.33535 0.50651 0.0
C643 C 0.38168 0.32992 0.51437 0.0
C644 C 0.40114 0.32337 0.4924 0.0
C645 C 0.3929 0.32296 0.46286 0.0
C646 C 0.39128 0.33246 0.54525 0.0
C647 C 0.401 0.3112 0.56043 0.0
C648 C 0.39152 0.35588 0.55942 0.0
C649 C 0.38209 0.37905 0.54424 0.0
C650 C 0.3953 0.38717 0.51807 0.0
C651 C 0.38606 0.40888 0.50372 0.0
C652 C 0.36379 0.42277 0.51549 0.0
C653 C 0.35079 0.41501 0.54168 0.0
C654 C 0.35993 0.39327 0.55608 0.0
C655 C 0.47804 0.34115 0.6512 0.0
C656 C 0.46791 0.35517 0.67496 0.0
C657 C 0.45993 0.33398 0.62863 0.0
C658 C 0.43125 0.34073 0.62923 0.0
C659 C 0.42068 0.35366 0.6537 0.0
C660 C 0.43888 0.36067 0.67658 0.0
C661 C 0.41366 0.33664 0.60262 0.0
C662 C 0.40248 0.35765 0.58802 0.0
C663 C 0.41192 0.31293 0.58912 0.0
C664 C 0.4214 0.28984 0.60461 0.0
C665 C 0.41217 0.28459 0.63348 0.0
C666 C 0.42146 0.26308 0.64822 0.0
C667 C 0.43987 0.24656 0.63426 0.0
C668 C 0.44899 0.2515 0.60552 0.0
C669 C 0.43981 0.27301 0.5907 0.0
H670 H 0.44705 0.22991 0.6457 0.0
H671 H 0.35667 0.43958 0.50436 0.0
H672 H 0.71522 0.34599 0.02708 0.0
H673 H 0.69734 0.34529 0.97639 0.0
H674 H 0.61537 0.32204 0.00844 0.0
H675 H 0.6331 0.32265 0.05902 0.0
H676 H 0.63306 0.29627 0.9574 0.0
H677 H 0.62721 0.38187 0.99399 0.0
H678 H 0.64779 0.42057 0.01393 0.0
H679 H 0.70284 0.42675 0.93889 0.0
H680 H 0.68281 0.38785 0.91871 0.0
H681 H 0.52276 0.33524 0.8672 0.0
H682 H 0.55867 0.32444 0.90338 0.0
H683 H 0.62196 0.36277 0.85118 0.0
H684 H 0.58547 0.3747 0.81542 0.0
H685 H 0.62511 0.37773 0.90506 0.0
H686 H 0.62316 0.29856 0.86248 0.0
H687 H 0.60382 0.26002 0.84111 0.0
H688 H 0.56618 0.24041 0.92427 0.0
H689 H 0.58497 0.27905 0.94603 0.0
C690 C 0.69351 0.34039 0.02324 0.0
C691 C 0.67549 0.3345 0.04701 0.0
C692 C 0.68331 0.34008 0.99431 0.0
C693 C 0.655 0.3337 0.98867 0.0
C694 C 0.6373 0.32696 0.01229 0.0
C695 C 0.64738 0.32752 0.04118 0.0
C696 C 0.64303 0.33548 0.95852 0.0
C697 C 0.6312 0.31403 0.94588 0.0
C698 C 0.64184 0.35846 0.94293 0.0
C699 C 0.6538 0.38181 0.95506 0.0
C700 C 0.64388 0.39136 0.98189 0.0
C701 C 0.65541 0.41335 0.9932 0.0
C702 C 0.67668 0.42606 0.97774 0.0
C703 C 0.68641 0.41685 0.95088 0.0
C704 C 0.67498 0.39484 0.9395 0.0
C705 C 0.54443 0.34097 0.86309 0.0
C706 C 0.55132 0.35562 0.83828 0.0
C707 C 0.56507 0.33458 0.88371 0.0
C708 C 0.59322 0.34248 0.87994 0.0
C709 C 0.60045 0.35628 0.85451 0.0
C710 C 0.57965 0.36282 0.83386 0.0
C711 C 0.61386 0.33865 0.9043 0.0
C712 C 0.62744 0.35973 0.91597 0.0
C713 C 0.61693 0.31522 0.91876 0.0
C714 C 0.60553 0.29181 0.90589 0.0
C715 C 0.61069 0.2861 0.87619 0.0
C716 C 0.5998 0.26422 0.864 0.0
C717 C 0.58378 0.24776 0.88133 0.0
C718 C 0.57864 0.25316 0.91088 0.0
C719 C 0.58946 0.27505 0.92317 0.0
H720 H 0.57535 0.23082 0.87186 0.0
H721 H 0.68557 0.44309 0.98652 0.0
H722 H 0.84053 0.13677 0.55649 0.0
H723 H 0.85656 0.13089 0.50591 0.0
H724 H 0.87806 0.20911 0.49937 0.0
H725 H 0.86211 0.21515 0.55021 0.0
H726 H 0.85551 0.19074 0.44662 0.0
H727 H 0.92921 0.17064 0.51425 0.0
H728 H 0.95037 0.15082 0.55812 0.0
H729 H 0.93205 0.07819 0.52339 0.0
H730 H 0.91049 0.09764 0.47936 0.0
H731 H 0.96263 0.17273 0.33333 0.0
H732 H 0.93203 0.18517 0.37443 0.0
H733 H 0.91055 0.10776 0.39028 0.0
H734 H 0.94146 0.09545 0.34973 0.0
H735 H 0.93284 0.12862 0.43781 0.0
H736 H 0.86202 0.15201 0.36605 0.0
H737 H 0.84483 0.17489 0.32226 0.0
H738 H 0.86175 0.24476 0.36454 0.0
H739 H 0.87966 0.22233 0.40834 0.0
C740 C 0.84854 0.15277 0.54428 0.0
C741 C 0.85042 0.17635 0.55756 0.0
C742 C 0.85753 0.14941 0.5153 0.0
C743 C 0.86882 0.1695 0.49896 0.0
C744 C 0.86936 0.19337 0.51154 0.0
C745 C 0.86027 0.19677 0.54061 0.0
C746 C 0.88242 0.16488 0.46998 0.0
C747 C 0.87256 0.17731 0.44461 0.0
C748 C 0.90474 0.14745 0.46742 0.0
C749 C 0.91798 0.1356 0.49366 0.0
C750 C 0.92951 0.15044 0.51606 0.0
C751 C 0.9416 0.13927 0.54095 0.0
C752 C 0.94244 0.11325 0.54363 0.0
C753 C 0.93133 0.09835 0.52132 0.0
C754 C 0.91921 0.10944 0.49636 0.0
C755 C 0.95033 0.15859 0.34482 0.0
C756 C 0.95395 0.13321 0.33826 0.0
C757 C 0.933 0.16565 0.3684 0.0
C758 C 0.91903 0.14737 0.38555 0.0
C759 C 0.92115 0.12217 0.37746 0.0
C760 C 0.9386 0.11516 0.35417 0.0
C761 C 0.90539 0.15381 0.41402 0.0
C762 C 0.91556 0.14187 0.43955 0.0
C763 C 0.8838 0.17201 0.41658 0.0
C764 C 0.87242 0.18546 0.39043 0.0
C765 C 0.86228 0.17225 0.36595 0.0
C766 C 0.8524 0.18515 0.34111 0.0
C767 C 0.85224 0.21126 0.34062 0.0
C768 C 0.86191 0.22453 0.36496 0.0
C769 C 0.87193 0.21174 0.38979 0.0
H770 H 0.84455 0.22125 0.32144 0.0
H771 H 0.95178 0.10464 0.56295 0.0
H772 H 0.84549 0.8621 0.04289 0.0
H773 H 0.85965 0.86369 0.99105 0.0
H774 H 0.88971 0.78776 0.9974 0.0
H775 H 0.87574 0.78612 0.04937 0.0
H776 H 0.92911 0.82014 0.97379 0.0
H777 H 0.83141 0.80024 0.95815 0.0
H778 H 0.77986 0.80535 0.96396 0.0
H779 H 0.78493 0.87882 0.92546 0.0
H780 H 0.8366 0.8743 0.9198 0.0
H781 H 0.97682 0.82121 0.83013 0.0
H782 H 0.94604 0.80663 0.87021 0.0
H783 H 0.90356 0.878 0.86992 0.0
H784 H 0.93336 0.89196 0.82873 0.0
H785 H 0.86802 0.84328 0.88908 0.0
H786 H 0.96379 0.86718 0.91176 0.0
H787 H 0.01578 0.86538 0.90726 0.0
H788 H 0.01475 0.78837 0.93477 0.0
H789 H 0.96267 0.78964 0.93902 0.0
C790 C 0.85494 0.84569 0.03317 0.0
C791 C 0.85958 0.82401 0.05023 0.0
C792 C 0.8628 0.84654 1.00349 0.0
C793 C 0.87553 0.82577 0.99027 0.0
C794 C 0.87976 0.80395 0.00711 0.0
C795 C 0.87167 0.80301 0.03675 0.0
C796 C 0.88647 0.82757 0.95963 0.0
C797 C 0.91563 0.82463 0.95516 0.0
C798 C 0.86903 0.83426 0.93549 0.0
C799 C 0.83793 0.83699 0.93876 0.0
C800 C 0.82158 0.81757 0.95113 0.0
C801 C 0.79232 0.82034 0.95436 0.0
C802 C 0.77913 0.84241 0.94514 0.0
C803 C 0.79518 0.86174 0.9326 0.0
C804 C 0.82445 0.85906 0.92935 0.0
C805 C 0.95995 0.83325 0.83774 0.0
C806 C 0.95724 0.8576 0.82644 0.0
C807 C 0.94259 0.82506 0.86084 0.0
C808 C 0.9231 0.84151 0.87378 0.0
C809 C 0.91854 0.865 0.8605 0.0
C810 C 0.93548 0.87296 0.83689 0.0
C811 C 0.91068 0.83582 0.90327 0.0
C812 C 0.88137 0.83828 0.90761 0.0
C813 C 0.92802 0.82915 0.92755 0.0
C814 C 0.95934 0.82843 0.92539 0.0
C815 C 0.97465 0.84983 0.91669 0.0
C816 C 1.00412 0.84891 0.91419 0.0
C817 C 0.01855 0.82675 0.92065 0.0
C818 C 1.00354 0.8055 0.92972 0.0
C819 C 0.97405 0.80631 0.93218 0.0
H820 H 0.04137 0.82607 0.91869 0.0
H821 H 0.75648 0.84453 0.94765 0.0
H822 H 0.71018 0.67073 0.53367 0.0
H823 H 0.69594 0.67357 0.48218 0.0
H824 H 0.61018 0.68922 0.50908 0.0
H825 H 0.62473 0.68855 0.56031 0.0
H826 H 0.66541 0.64499 0.45401 0.0
H827 H 0.57058 0.71584 0.45871 0.0
H828 H 0.55988 0.7564 0.48146 0.0
H829 H 0.64872 0.77201 0.48924 0.0
H830 H 0.65999 0.73171 0.46614 0.0
H831 H 0.55222 0.60976 0.36948 0.0
H832 H 0.58531 0.62466 0.40636 0.0
H833 H 0.60198 0.69052 0.35355 0.0
H834 H 0.56788 0.6757 0.3165 0.0
H835 H 0.59359 0.70221 0.41123 0.0
H836 H 0.65332 0.64854 0.3599 0.0
H837 H 0.66808 0.61081 0.33329 0.0
H838 H 0.65817 0.56682 0.41216 0.0
H839 H 0.64287 0.60421 0.43918 0.0
C840 C 0.6885 0.67572 0.52868 0.0
C841 C 0.6686 0.6792 0.5514 0.0
C842 C 0.68028 0.67704 0.49909 0.0
C843 C 0.65194 0.68168 0.49142 0.0
C844 C 0.63231 0.68612 0.51406 0.0
C845 C 0.6406 0.68527 0.54357 0.0
C846 C 0.64212 0.67919 0.4603 0.0
C847 C 0.65001 0.65776 0.44461 0.0
C848 C 0.62281 0.69623 0.44715 0.0
C849 C 0.61613 0.72065 0.46079 0.0
C850 C 0.58785 0.72799 0.46507 0.0
C851 C 0.58168 0.75092 0.47809 0.0
C852 C 0.6036 0.76675 0.48684 0.0
C853 C 0.63175 0.7597 0.48253 0.0
C854 C 0.63805 0.73679 0.46951 0.0
C855 C 0.56308 0.62733 0.36554 0.0
C856 C 0.55783 0.6414 0.33989 0.0
C857 C 0.58215 0.63578 0.38658 0.0
C858 C 0.59651 0.65854 0.38259 0.0
C859 C 0.59134 0.67278 0.35697 0.0
C860 C 0.57217 0.6642 0.33568 0.0
C861 C 0.61571 0.6674 0.40625 0.0
C862 C 0.60956 0.68991 0.42047 0.0
C863 C 0.63742 0.65187 0.41755 0.0
C864 C 0.64687 0.62924 0.40158 0.0
C865 C 0.65414 0.63081 0.37156 0.0
C866 C 0.66261 0.60947 0.3564 0.0
C867 C 0.66406 0.58643 0.37103 0.0
C868 C 0.65707 0.58469 0.40087 0.0
C869 C 0.64854 0.60597 0.41614 0.0
H870 H 0.67061 0.56992 0.35925 0.0
H871 H 0.59878 0.78449 0.49692 0.0
H872 H 0.35559 0.71215 0.96632 0.0
H873 H 0.37243 0.70844 0.01714 0.0
H874 H 0.34615 0.63124 0.01968 0.0
H875 H 0.32919 0.63482 0.96899 0.0
H876 H 0.35231 0.69251 0.07421 0.0
H877 H 0.40238 0.59838 0.04563 0.0
H878 H 0.41658 0.57444 1.00183 0.0
H879 H 0.43211 0.64286 0.95431 0.0
H880 H 0.41848 0.66716 0.99796 0.0
H881 H 0.43231 0.63391 0.19712 0.0
H882 H 0.3974 0.64402 0.15849 0.0
H883 H 0.46457 0.67191 0.10276 0.0
H884 H 0.49906 0.66215 0.14083 0.0
H885 H 0.43341 0.63373 0.07763 0.0
H886 H 0.41883 0.71237 0.12773 0.0
H887 H 0.40617 0.73867 0.17005 0.0
H888 H 0.32403 0.70433 0.17412 0.0
H889 H 0.33622 0.67781 0.13172 0.0
C890 C 0.35267 0.69458 0.97796 0.0
C891 C 0.34148 0.67365 0.96343 0.0
C892 C 0.36222 0.69252 0.00707 0.0
C893 C 0.36078 0.66951 0.02211 0.0
C894 C 0.34766 0.64913 0.00841 0.0
C895 C 0.33821 0.65115 0.97935 0.0
C896 C 0.37686 0.66573 0.0499 0.0
C897 C 0.36989 0.67951 0.07511 0.0
C898 C 0.39996 0.64895 0.05102 0.0
C899 C 0.4091 0.63454 0.02494 0.0
C900 C 0.40897 0.60829 0.02587 0.0
C901 C 0.41691 0.59466 1.00107 0.0
C902 C 0.42514 0.60712 0.97527 0.0
C903 C 0.42564 0.63323 0.97427 0.0
C904 C 0.41782 0.64693 0.99903 0.0
C905 C 0.4394 0.64285 0.17693 0.0
C906 C 0.46841 0.64703 0.17185 0.0
C907 C 0.4195 0.64854 0.15488 0.0
C908 C 0.42849 0.65845 0.12763 0.0
C909 C 0.45721 0.66406 0.12347 0.0
C910 C 0.4769 0.65844 0.14528 0.0
C911 C 0.40912 0.6606 0.10203 0.0
C912 C 0.4155 0.64641 0.07707 0.0
C913 C 0.38584 0.67718 0.10121 0.0
C914 C 0.37852 0.69297 0.12673 0.0
C915 C 0.39814 0.7103 0.13777 0.0
C916 C 0.39101 0.72531 0.16169 0.0
C917 C 0.36432 0.72315 0.17477 0.0
C918 C 0.34469 0.70599 0.16393 0.0
C919 C 0.35166 0.69102 0.1399 0.0
H920 H 0.35883 0.73485 0.19321 0.0
H921 H 0.43119 0.59654 0.95607 0.0
H922 H 0.13005 0.82376 0.44744 0.0
H923 H 0.11125 0.82595 0.49745 0.0
H924 H 0.19374 0.8468 0.52971 0.0
H925 H 0.21291 0.84382 0.47947 0.0
H926 H 0.16577 0.81713 0.57015 0.0
H927 H 0.14648 0.89157 0.51599 0.0
H928 H 0.13074 0.91689 0.47348 0.0
H929 H 0.04646 0.88773 0.48311 0.0
H930 H 0.06181 0.86189 0.52539 0.0
H931 H 0.08909 0.87797 0.69359 0.0
H932 H 0.12271 0.86662 0.65444 0.0
H933 H 0.05485 0.83195 0.6062 0.0
H934 H 0.02154 0.84304 0.64492 0.0
H935 H 0.0823 0.87292 0.57731 0.0
H936 H 0.10478 0.79659 0.63164 0.0
H937 H 0.12206 0.77379 0.67544 0.0
H938 H 0.20232 0.8111 0.66816 0.0
H939 H 0.1854 0.83435 0.62442 0.0
C940 C 0.14423 0.82858 0.46524 0.0
C941 C 0.17281 0.83398 0.45957 0.0
C942 C 0.13351 0.82979 0.49381 0.0
C943 C 0.15095 0.83706 0.51728 0.0
C944 C 0.17988 0.84123 0.51196 0.0
C945 C 0.19076 0.83962 0.48329 0.0
C946 C 0.1381 0.84228 0.54651 0.0
C947 C 0.14776 0.82958 0.57184 0.0
C948 C 0.11485 0.85881 0.54889 0.0
C949 C 0.10536 0.87466 0.52376 0.0
C950 C 0.12463 0.89045 0.50895 0.0
C951 C 0.11577 0.90489 0.48489 0.0
C952 C 0.08763 0.90389 0.47557 0.0
C953 C 0.06826 0.88848 0.49035 0.0
C954 C 0.07702 0.87395 0.51438 0.0
C955 C 0.08167 0.86709 0.67515 0.0
C956 C 0.05273 0.86154 0.67209 0.0
C957 C 0.10083 0.86073 0.65277 0.0
C958 C 0.09113 0.84871 0.6273 0.0
C959 C 0.0627 0.84137 0.62557 0.0
C960 C 0.04371 0.8477 0.64772 0.0
C961 C 0.10898 0.84686 0.60056 0.0
C962 C 0.10042 0.86057 0.57569 0.0
C963 C 0.13341 0.83169 0.59895 0.0
C964 C 0.14373 0.81738 0.6249 0.0
C965 C 0.12604 0.80008 0.63948 0.0
C966 C 0.13579 0.78704 0.66427 0.0
C967 C 0.16325 0.79103 0.6746 0.0
C968 C 0.18105 0.80803 0.66012 0.0
C969 C 0.17141 0.82111 0.6353 0.0
H970 H 0.17077 0.78085 0.69373 0.0
H971 H 0.08082 0.91507 0.45693 0.0
H972 H 0.23324 0.31563 0.34024 0.0
H973 H 0.19681 0.29233 0.31369 0.0
H974 H 0.25974 0.23974 0.28474 0.0
H975 H 0.29627 0.26291 0.31177 0.0
H976 H 0.20085 0.25649 0.24422 0.0
H977 H 0.24078 0.21501 0.33416 0.0
H978 H 0.25868 0.21835 0.38499 0.0
H979 H 0.18152 0.25422 0.41125 0.0
H980 H 0.1634 0.25139 0.36042 0.0
H981 H 0.1071 0.14744 0.23891 0.0
H982 H 0.14661 0.17756 0.23894 0.0
H983 H 0.10666 0.21722 0.31009 0.0
H984 H 0.06796 0.18704 0.31042 0.0
H985 H 0.15775 0.20587 0.32471 0.0
H986 H 0.11332 0.24096 0.23943 0.0
H987 H 0.09344 0.24165 0.18932 0.0
H988 H 0.17467 0.22249 0.15363 0.0
H989 H 0.1949 0.22099 0.20364 0.0
C990 C 0.2395 0.29981 0.32701 0.0
C991 C 0.26745 0.29111 0.32771 0.0
C992 C 0.2187 0.28654 0.31183 0.0
C993 C 0.22561 0.2644 0.29714 0.0
C994 C 0.25408 0.25699 0.29555 0.0
C995 C 0.2749 0.2702 0.31099 0.0
C996 C 0.2027 0.24644 0.29013 0.0
C997 C 0.19161 0.24502 0.26154 0.0
C998 C 0.19032 0.23204 0.31293 0.0
C999 C 0.20089 0.23318 0.34355 0.0
C1000 C 0.22774 0.22374 0.35077 0.0
C1001 C 0.23791 0.22552 0.37955 0.0
C1002 C 0.22128 0.23654 0.40132 0.0
C1003 C 0.1944 0.24572 0.39436 0.0
C1004 C 0.18417 0.24401 0.36559 0.0
C1005 C 0.10651 0.16305 0.25387 0.0
C1006 C 0.0846 0.165 0.27464 0.0
C1007 C 0.12909 0.1802 0.25398 0.0
C1008 C 0.12975 0.19963 0.27467 0.0
C1009 C 0.10686 0.20229 0.29413 0.0
C1010 C 0.0847 0.18508 0.29427 0.0
C1011 C 0.15523 0.21572 0.2786 0.0
C1012 C 0.16695 0.21689 0.30694 0.0
C1013 C 0.16776 0.22994 0.25548 0.0
C1014 C 0.15556 0.23054 0.22538 0.0
C1015 C 0.12688 0.23655 0.22096 0.0
C1016 C 0.11555 0.23712 0.19256 0.0
C1017 C 0.13276 0.23207 0.16832 0.0
C1018 C 0.16134 0.22635 0.17244 0.0
C1019 C 0.17274 0.22559 0.20082 0.0
H1020 H 0.12395 0.2327 0.14636 0.0
H1021 H 0.22919 0.23792 0.42359 0.0
H1022 H 0.23401 0.25586 0.82962 0.0
H1023 H 0.26823 0.27441 0.79544 0.0
H1024 H 0.31627 0.20581 0.79658 0.0
H1025 H 0.28216 0.18754 0.8316 0.0
H1026 H 0.34952 0.24214 0.80826 0.0
H1027 H 0.28443 0.22955 0.73148 0.0
H1028 H 0.23858 0.22918 0.70568 0.0
H1029 H 0.23432 0.30919 0.7106 0.0
H1030 H 0.27994 0.31006 0.73683 0.0
H1031 H 0.4519 0.31633 0.73631 0.0
H1032 H 0.41518 0.28378 0.73319 0.0
H1033 H 0.35284 0.33632 0.76383 0.0
H1034 H 0.3894 0.36844 0.76758 0.0
H1035 H 0.33056 0.29916 0.72386 0.0
H1036 H 0.38806 0.30722 0.81374 0.0
H1037 H 0.4341 0.30772 0.8393 0.0
H1038 H 0.45226 0.23414 0.8074 0.0
H1039 H 0.40645 0.23342 0.78125 0.0
C1040 C 0.25136 0.24451 0.82172 0.0
C1041 C 0.25542 0.22028 0.83282 0.0
C1042 C 0.27092 0.25507 0.80208 0.0
C1043 C 0.29484 0.24149 0.79304 0.0
C1044 C 0.29799 0.21667 0.80305 0.0
C1045 C 0.27845 0.20616 0.82287 0.0
C1046 C 0.3182 0.25447 0.77681 0.0
C1047 C 0.34545 0.25392 0.78917 0.0
C1048 C 0.31313 0.27016 0.75204 0.0
C1049 C 0.28562 0.26984 0.73626 0.0
C1050 C 0.27364 0.24707 0.72725 0.0
C1051 C 0.24769 0.24677 0.71252 0.0
C1052 C 0.23353 0.26915 0.70653 0.0
C1053 C 0.24532 0.29187 0.71524 0.0
C1054 C 0.27126 0.29228 0.73 0.0
C1055 C 0.43012 0.32112 0.74112 0.0
C1056 C 0.42339 0.34474 0.7524 0.0
C1057 C 0.4092 0.30254 0.73943 0.0
C1058 C 0.38134 0.30758 0.74863 0.0
C1059 C 0.37413 0.33202 0.75657 0.0
C1060 C 0.39504 0.35036 0.75878 0.0
C1061 C 0.36119 0.28708 0.75588 0.0
C1062 C 0.33464 0.28648 0.74212 0.0
C1063 C 0.36683 0.27013 0.77921 0.0
C1064 C 0.39407 0.27039 0.79529 0.0
C1065 C 0.40198 0.29123 0.81204 0.0
C1066 C 0.428 0.29155 0.82663 0.0
C1067 C 0.44613 0.271 0.8249 0.0
C1068 C 0.43822 0.25007 0.80865 0.0
C1069 C 0.41225 0.24969 0.79393 0.0
H1070 H 0.46627 0.27128 0.83621 0.0
H1071 H 0.21344 0.26888 0.69512 0.0
H1072 H 0.75105 0.20102 0.69261 0.0
H1073 H 0.71395 0.21835 0.72452 0.0
H1074 H 0.75284 0.29123 0.71713 0.0
H1075 H 0.79013 0.27373 0.68615 0.0
H1076 H 0.73023 0.2862 0.77019 0.0
H1077 H 0.69899 0.27091 0.66969 0.0
H1078 H 0.68912 0.24452 0.62663 0.0
H1079 H 0.63247 0.19933 0.67863 0.0
H1080 H 0.64228 0.22532 0.72208 0.0
H1081 H 0.62594 0.377 0.74543 0.0
H1082 H 0.66432 0.34665 0.74916 0.0
H1083 H 0.60502 0.29034 0.77867 0.0
H1084 H 0.56642 0.32112 0.77559 0.0
H1085 H 0.63445 0.27839 0.7266 0.0
H1086 H 0.65683 0.30213 0.82309 0.0
H1087 H 0.66523 0.33076 0.86446 0.0
H1088 H 0.73715 0.36192 0.81928 0.0
H1089 H 0.72899 0.33365 0.77755 0.0
C1090 C 0.75202 0.22054 0.69866 0.0
C1091 C 0.77333 0.23611 0.6872 0.0
C1092 C 0.73076 0.23049 0.71667 0.0
C1093 C 0.73025 0.25624 0.72289 0.0
C1094 C 0.75269 0.27135 0.71279 0.0
C1095 C 0.77399 0.26136 0.69505 0.0
C1096 C 0.70516 0.2682 0.73691 0.0
C1097 C 0.70927 0.28444 0.76073 0.0
C1098 C 0.67752 0.26542 0.72524 0.0
C1099 C 0.67166 0.24981 0.69918 0.0
C1100 C 0.68459 0.25523 0.67196 0.0
C1101 C 0.67899 0.24037 0.6475 0.0
C1102 C 0.66026 0.2202 0.64992 0.0
C1103 C 0.64703 0.21491 0.6768 0.0
C1104 C 0.65261 0.22969 0.70135 0.0
C1105 C 0.62128 0.3584 0.75377 0.0
C1106 C 0.59329 0.35134 0.76016 0.0
C1107 C 0.64322 0.34106 0.75595 0.0
C1108 C 0.63756 0.31618 0.7641 0.0
C1109 C 0.60986 0.30945 0.7724 0.0
C1110 C 0.58788 0.32704 0.77078 0.0
C1111 C 0.65973 0.29697 0.75917 0.0
C1112 C 0.65515 0.27951 0.73683 0.0
C1113 C 0.68687 0.29882 0.77205 0.0
C1114 C 0.69218 0.31581 0.79713 0.0
C1115 C 0.67431 0.31521 0.82192 0.0
C1116 C 0.67905 0.33135 0.84544 0.0
C1117 C 0.70165 0.34819 0.84446 0.0
C1118 C 0.71964 0.34885 0.82001 0.0
C1119 C 0.71501 0.33272 0.79644 0.0
H1120 H 0.70526 0.3607 0.86268 0.0
H1121 H 0.65594 0.20873 0.63095 0.0
H1122 H 0.74834 0.26045 0.16402 0.0
H1123 H 0.77709 0.23536 0.19782 0.0
H1124 H 0.82321 0.30154 0.22296 0.0
H1125 H 0.79469 0.32652 0.18838 0.0
H1126 H 0.85867 0.2674 0.20837 0.0
H1127 H 0.78084 0.2675 0.27351 0.0
H1128 H 0.73119 0.26396 0.2898 0.0
H1129 H 0.72983 0.18674 0.26494 0.0
H1130 H 0.77934 0.18988 0.24807 0.0
H1131 H 0.94934 0.18378 0.28103 0.0
H1132 H 0.91194 0.21563 0.28286 0.0
H1133 H 0.85616 0.16672 0.23509 0.0
H1134 H 0.89327 0.1351 0.23335 0.0
H1135 H 0.82649 0.19793 0.27336 0.0
H1136 H 0.89982 0.20319 0.19745 0.0
H1137 H 0.94951 0.20655 0.18109 0.0
H1138 H 0.95865 0.27522 0.22839 0.0
H1139 H 0.90907 0.27202 0.24539 0.0
C1140 C 0.76404 0.26969 0.17749 0.0
C1141 C 0.76921 0.29534 0.174 0.0
C1142 C 0.78044 0.25538 0.19691 0.0
C1143 C 0.80225 0.26651 0.21333 0.0
C1144 C 0.80649 0.29249 0.21071 0.0
C1145 C 0.79011 0.30679 0.19113 0.0
C1146 C 0.82265 0.25051 0.23004 0.0
C1147 C 0.8516 0.25276 0.22336 0.0
C1148 C 0.81366 0.23105 0.24931 0.0
C1149 C 0.78381 0.22899 0.25936 0.0
C1150 C 0.7699 0.24981 0.2713 0.0
C1151 C 0.74178 0.24786 0.28068 0.0
C1152 C 0.72735 0.22515 0.27837 0.0
C1153 C 0.74104 0.20432 0.26672 0.0
C1154 C 0.76916 0.20617 0.25729 0.0
C1155 C 0.92863 0.17943 0.27226 0.0
C1156 C 0.92413 0.15707 0.257 0.0
C1157 C 0.90736 0.1977 0.27306 0.0
C1158 C 0.88141 0.19372 0.25862 0.0
C1159 C 0.87596 0.17025 0.24633 0.0
C1160 C 0.89721 0.15219 0.24529 0.0
C1161 C 0.86211 0.21482 0.25133 0.0
C1162 C 0.83345 0.21328 0.25935 0.0
C1163 C 0.87131 0.2351 0.23349 0.0
C1164 C 0.90093 0.23721 0.22297 0.0
C1165 C 0.91251 0.21891 0.2045 0.0
C1166 C 0.94063 0.22079 0.19511 0.0
C1167 C 0.95726 0.24105 0.20377 0.0
C1168 C 0.94576 0.25951 0.22177 0.0
C1169 C 0.91767 0.25767 0.2313 0.0
H1170 H 0.97903 0.24248 0.19648 0.0
H1171 H 0.70558 0.22368 0.28564 0.0
H1172 H 0.75291 0.70212 0.70446 0.0
H1173 H 0.78315 0.73258 0.72983 0.0
H1174 H 0.81421 0.7593 0.64585 0.0
H1175 H 0.7842 0.72877 0.62068 0.0
H1176 H 0.85706 0.75075 0.68302 0.0
H1177 H 0.76703 0.79319 0.68641 0.0
H1178 H 0.71641 0.79754 0.69865 0.0
H1179 H 0.73523 0.78734 0.7904 0.0
H1180 H 0.78595 0.78261 0.77865 0.0
H1181 H 0.89048 0.88164 0.72216 0.0
H1182 H 0.85363 0.84986 0.71842 0.0
H1183 H 0.90774 0.79667 0.76262 0.0
H1184 H 0.94488 0.82867 0.76649 0.0
H1185 H 0.82252 0.81577 0.75144 0.0
H1186 H 0.90627 0.74415 0.71923 0.0
H1187 H 0.95635 0.74269 0.70364 0.0
H1188 H 0.94839 0.81533 0.66354 0.0
H1189 H 0.89821 0.81702 0.6785 0.0
C1190 C 0.76592 0.71482 0.69155 0.0
C1191 C 0.7662 0.71344 0.66074 0.0
C1192 C 0.78319 0.73215 0.706 0.0
C1193 C 0.80096 0.74829 0.68976 0.0
C1194 C 0.80078 0.74703 0.65886 0.0
C1195 C 0.78352 0.72975 0.64448 0.0
C1196 C 0.82044 0.76601 0.70471 0.0
C1197 C 0.84947 0.76478 0.69821 0.0
C1198 C 0.81067 0.78438 0.72455 0.0
C1199 C 0.78022 0.78725 0.73162 0.0
C1200 C 0.76034 0.79166 0.70917 0.0
C1201 C 0.73164 0.79424 0.71602 0.0
C1202 C 0.7226 0.79264 0.74527 0.0
C1203 C 0.74226 0.78853 0.76775 0.0
C1204 C 0.77098 0.78591 0.761 0.0
C1205 C 0.89414 0.86343 0.73208 0.0
C1206 C 0.92062 0.85752 0.74433 0.0
C1207 C 0.87301 0.84529 0.73 0.0
C1208 C 0.87809 0.82077 0.73975 0.0
C1209 C 0.90347 0.81545 0.75474 0.0
C1210 C 0.92461 0.83378 0.75711 0.0
C1211 C 0.859 0.80046 0.72965 0.0
C1212 C 0.83011 0.80126 0.7369 0.0
C1213 C 0.86875 0.7819 0.71009 0.0
C1214 C 0.89865 0.78081 0.7003 0.0
C1215 C 0.91522 0.75974 0.70699 0.0
C1216 C 0.9436 0.75888 0.69827 0.0
C1217 C 0.95557 0.77895 0.68271 0.0
C1218 C 0.93913 0.79984 0.67567 0.0
C1219 C 0.91073 0.80076 0.68426 0.0
H1220 H 0.97756 0.77827 0.67605 0.0
H1221 H 0.70037 0.79465 0.75054 0.0
H1222 H 0.74826 0.79562 0.16472 0.0
H1223 H 0.71102 0.77813 0.19635 0.0
H1224 H 0.77324 0.73338 0.24204 0.0
H1225 H 0.81043 0.75068 0.2099 0.0
H1226 H 0.73192 0.70503 0.22367 0.0
H1227 H 0.73536 0.78034 0.27788 0.0
H1228 H 0.73663 0.82584 0.28586 0.0
H1229 H 0.65478 0.83333 0.24582 0.0
H1230 H 0.65317 0.78792 0.2372 0.0
H1231 H 0.61349 0.64495 0.28593 0.0
H1232 H 0.65596 0.67142 0.28992 0.0
H1233 H 0.61699 0.72655 0.23316 0.0
H1234 H 0.57478 0.7005 0.22974 0.0
H1235 H 0.65184 0.74922 0.27086 0.0
H1236 H 0.65587 0.67753 0.20483 0.0
H1237 H 0.65377 0.63237 0.19445 0.0
H1238 H 0.72153 0.61906 0.25549 0.0
H1239 H 0.72378 0.66416 0.26644 0.0
C1240 C 0.75402 0.78268 0.18219 0.0
C1241 C 0.78208 0.77466 0.18526 0.0
C1242 C 0.73277 0.77269 0.20032 0.0
C1243 C 0.73926 0.75453 0.22187 0.0
C1244 C 0.76767 0.74742 0.22573 0.0
C1245 C 0.78892 0.7574 0.20753 0.0
C1246 C 0.71605 0.74083 0.23747 0.0
C1247 C 0.71486 0.71471 0.23477 0.0
C1248 C 0.69342 0.75333 0.25156 0.0
C1249 C 0.69422 0.78069 0.25677 0.0
C1250 C 0.7177 0.7917 0.27059 0.0
C1251 C 0.71847 0.81748 0.27526 0.0
C1252 C 0.69582 0.83247 0.26632 0.0
C1253 C 0.67232 0.8217 0.25274 0.0
C1254 C 0.67144 0.79592 0.24801 0.0
C1255 C 0.61365 0.66322 0.27545 0.0
C1256 C 0.59096 0.67081 0.25759 0.0
C1257 C 0.63797 0.67825 0.2775 0.0
C1258 C 0.63993 0.7008 0.26132 0.0
C1259 C 0.6161 0.7093 0.24583 0.0
C1260 C 0.59195 0.69439 0.24385 0.0
C1261 C 0.66755 0.71368 0.25628 0.0
C1262 C 0.66947 0.73959 0.26072 0.0
C1263 C 0.69083 0.70108 0.24356 0.0
C1264 C 0.68978 0.6741 0.23668 0.0
C1265 C 0.67023 0.66493 0.21611 0.0
C1266 C 0.66901 0.63937 0.21013 0.0
C1267 C 0.68746 0.62285 0.22437 0.0
C1268 C 0.70722 0.63187 0.24453 0.0
C1269 C 0.70848 0.65742 0.25063 0.0
H1270 H 0.68648 0.60306 0.21972 0.0
H1271 H 0.69646 0.85243 0.26995 0.0
H1272 H 0.24308 0.79501 0.29967 0.0
H1273 H 0.27518 0.77438 0.2646 0.0
H1274 H 0.34003 0.7717 0.33149 0.0
H1275 H 0.30863 0.79305 0.36552 0.0
H1276 H 0.36488 0.77858 0.28234 0.0
H1277 H 0.28893 0.72185 0.31623 0.0
H1278 H 0.2391 0.70822 0.32003 0.0
H1279 H 0.23241 0.70819 0.22577 0.0
H1280 H 0.28217 0.72204 0.22148 0.0
H1281 H 0.40126 0.64322 0.28787 0.0
H1282 H 0.36506 0.67506 0.28389 0.0
H1283 H 0.41598 0.71526 0.22019 0.0
H1284 H 0.45313 0.68333 0.22492 0.0
H1285 H 0.33115 0.69618 0.2476 0.0
H1286 H 0.40616 0.77663 0.23046 0.0
H1287 H 0.45705 0.78705 0.23355 0.0
H1288 H 0.4668 0.73492 0.30526 0.0
H1289 H 0.41595 0.72439 0.30268 0.0
C1290 C 0.26449 0.79053 0.30637 0.0
C1291 C 0.27361 0.79559 0.33508 0.0
C1292 C 0.28275 0.7786 0.28649 0.0
C1293 C 0.31005 0.77108 0.29541 0.0
C1294 C 0.31928 0.77734 0.32381 0.0
C1295 C 0.30128 0.78948 0.34336 0.0
C1296 C 0.32844 0.75473 0.27697 0.0
C1297 C 0.35733 0.76074 0.27428 0.0
C1298 C 0.31886 0.73151 0.26594 0.0
C1299 C 0.28903 0.72332 0.26855 0.0
C1300 C 0.27674 0.71909 0.29635 0.0
C1301 C 0.24854 0.71131 0.29859 0.0
C1302 C 0.23256 0.70745 0.27316 0.0
C1303 C 0.24478 0.71128 0.24544 0.0
C1304 C 0.27296 0.7191 0.24309 0.0
C1305 C 0.40461 0.65859 0.27256 0.0
C1306 C 0.43024 0.66098 0.25707 0.0
C1307 C 0.3837 0.67677 0.27009 0.0
C1308 C 0.38777 0.69791 0.25207 0.0
C1309 C 0.41239 0.69933 0.23454 0.0
C1310 C 0.43357 0.681 0.23711 0.0
C1311 C 0.36775 0.71927 0.25526 0.0
C1312 C 0.33851 0.71439 0.25465 0.0
C1313 C 0.37708 0.7432 0.26417 0.0
C1314 C 0.40746 0.74962 0.2662 0.0
C1315 C 0.41921 0.76749 0.24692 0.0
C1316 C 0.44801 0.77338 0.24856 0.0
C1317 C 0.46516 0.7616 0.26953 0.0
C1318 C 0.45352 0.74399 0.28899 0.0
C1319 C 0.42473 0.73806 0.28746 0.0
H1320 H 0.48746 0.76616 0.27074 0.0
H1321 H 0.21074 0.70141 0.27494 0.0
H1322 H 0.28518 0.72191 0.79345 0.0
H1323 H 0.24806 0.74051 0.76216 0.0
H1324 H 0.19676 0.75298 0.83938 0.0
H1325 H 0.2332 0.73372 0.87009 0.0
H1326 H 0.16336 0.74174 0.79672 0.0
H1327 H 0.24442 0.79832 0.80711 0.0
H1328 H 0.29436 0.81073 0.80032 0.0
H1329 H 0.28614 0.80207 0.70684 0.0
H1330 H 0.23621 0.78936 0.71317 0.0
H1331 H 0.12242 0.87452 0.78028 0.0
H1332 H 0.16017 0.84375 0.77821 0.0
H1333 H 0.10717 0.79567 0.726 0.0
H1334 H 0.06886 0.82675 0.72832 0.0
H1335 H 0.19226 0.81793 0.74132 0.0
H1336 H 0.11626 0.73645 0.75347 0.0
H1337 H 0.06618 0.72784 0.76569 0.0
H1338 H 0.06461 0.79158 0.82245 0.0
H1339 H 0.11471 0.80036 0.81077 0.0
C1340 C 0.26558 0.72806 0.80343 0.0
C1341 C 0.26178 0.72634 0.83402 0.0
C1342 C 0.24449 0.73886 0.78564 0.0
C1343 C 0.21964 0.74855 0.79836 0.0
C1344 C 0.21555 0.74562 0.82887 0.0
C1345 C 0.2364 0.73464 0.84647 0.0
C1346 C 0.19877 0.76358 0.78099 0.0
C1347 C 0.16979 0.75812 0.78413 0.0
C1348 C 0.20684 0.78501 0.76437 0.0
C1349 C 0.2368 0.79255 0.76064 0.0
C1350 C 0.25336 0.7989 0.78515 0.0
C1351 C 0.28163 0.80601 0.78138 0.0
C1352 C 0.29345 0.80709 0.75318 0.0
C1353 C 0.27699 0.80114 0.72868 0.0
C1354 C 0.24872 0.79398 0.73234 0.0
C1355 C 0.11909 0.85774 0.76755 0.0
C1356 C 0.09265 0.85289 0.75472 0.0
C1357 C 0.14077 0.84015 0.76627 0.0
C1358 C 0.13645 0.81715 0.75239 0.0
C1359 C 0.11092 0.81318 0.73711 0.0
C1360 C 0.08911 0.83099 0.73827 0.0
C1361 C 0.15703 0.7966 0.75819 0.0
C1362 C 0.18591 0.80099 0.75288 0.0
C1363 C 0.14892 0.77451 0.77342 0.0
C1364 C 0.11903 0.76917 0.78099 0.0
C1365 C 0.10519 0.74855 0.76861 0.0
C1366 C 0.07683 0.74366 0.77543 0.0
C1367 C 0.0622 0.7592 0.79476 0.0
C1368 C 0.07593 0.7796 0.80742 0.0
C1369 C 0.1043 0.78453 0.80071 0.0
H1370 H 0.04023 0.75541 0.79997 0.0
H1371 H 0.31534 0.81261 0.7503 0.0
loop_
_geom_bond_atom_site_label_1
_geom_bond_atom_site_label_2
_geom_bond_distance
_geom_bond_site_symmetry_2
_ccdc_geom_bond_type
H0 C3 0.929 . S
H1 C6 0.929 . S
H2 C8 0.930 . S
C3 H0 0.929 . S
C3 C4 1.398 . S
C3 C5 1.396 . S
C4 C3 1.398 . S
C4 C8 1.407 . S
C5 C3 1.396 . S
C5 C6 1.394 . S
C6 H1 0.929 . S
C6 C5 1.394 . S
C6 C7 1.382 . S
C7 C6 1.382 . S
C7 C8 1.392 . S
C7 N9 1.420 . S
C8 H2 0.930 . S
C8 C4 1.407 . S
C8 C7 1.392 . S
N9 C7 1.420 . S
N9 C10 1.244 . S
C10 N9 1.244 . S
H11 C14 0.929 . S
H12 C17 0.929 . S
H13 C19 0.930 . S
C14 H11 0.929 . S
C14 C15 1.398 . S
C14 C16 1.396 . S
C15 C14 1.398 . S
C15 C19 1.407 . S
C16 C14 1.396 . S
C16 C17 1.394 . S
C17 H12 0.929 . S
C17 C16 1.394 . S
C17 C18 1.382 . S
C18 C17 1.382 . S
C18 C19 1.392 . S
C18 N20 1.420 . S
C19 H13 0.930 . S
C19 C15 1.407 . S
C19 C18 1.392 . S
N20 C18 1.420 . S
N20 C21 1.244 . S
C21 N20 1.244 . S
H22 C25 0.929 . S
H23 C28 0.929 . S
H24 C30 0.930 . S
C25 H22 0.929 . S
C25 C26 1.398 . S
C25 C27 1.396 . S
C26 C25 1.398 . S
C26 C30 1.407 . S
C27 C25 1.396 . S
C27 C28 1.394 . S
C28 H23 0.929 . S
C28 C27 1.394 . S
C28 C29 1.382 . S
C29 C28 1.382 . S
C29 C30 1.392 . S
C29 N31 1.420 . S
C30 H24 0.930 . S
C30 C26 1.407 . S
C30 C29 1.392 . S
N31 C29 1.420 . S
N31 C32 1.244 . S
C32 N31 1.244 . S
H33 C36 0.929 . S
H34 C39 0.929 . S
H35 C41 0.930 . S
C36 H33 0.929 . S
C36 C37 1.398 . S
C36 C38 1.396 . S
C37 C36 1.398 . S
C37 C41 1.407 . S
C38 C36 1.396 . S
C38 C39 1.394 . S
C39 H34 0.929 . S
C39 C38 1.394 . S
C39 C40 1.382 . S
C40 C39 1.382 . S
C40 C41 1.392 . S
C40 N42 1.420 . S
C41 H35 0.930 . S
C41 C37 1.407 . S
C41 C40 1.392 . S
N42 C40 1.420 . S
N42 C43 1.244 . S
C43 N42 1.244 . S
H44 C47 0.929 . S
H45 C50 0.929 . S
H46 C52 0.930 . S
C47 H44 0.929 . S
C47 C48 1.398 . S
C47 C49 1.396 . S
C48 C47 1.398 . S
C48 C52 1.407 . S
C49 C47 1.396 . S
C49 C50 1.394 . S
C50 H45 0.929 . S
C50 C49 1.394 . S
C50 C51 1.382 . S
C51 C50 1.382 . S
C51 C52 1.392 . S
C51 N53 1.420 . S
C52 H46 0.930 . S
C52 C48 1.407 . S
C52 C51 1.392 . S
N53 C51 1.420 . S
N53 C54 1.244 . S
C54 N53 1.244 . S
H55 C58 0.929 . S
H56 C61 0.929 . S
H57 C63 0.930 . S
C58 H55 0.929 . S
C58 C59 1.398 . S
C58 C60 1.396 . S
C59 C58 1.398 . S
C59 C63 1.407 . S
C60 C58 1.396 . S
C60 C61 1.394 . S
C61 H56 0.929 . S
C61 C60 1.394 . S
C61 C62 1.382 . S
C62 C61 1.382 . S
C62 C63 1.392 . S
C62 N64 1.420 . S
C63 H57 0.930 . S
C63 C59 1.407 . S
C63 C62 1.392 . S
N64 C62 1.420 . S
N64 C65 1.244 . S
C65 N64 1.244 . S
H66 C69 0.929 . S
H67 C72 0.929 . S
H68 C74 0.930 . S
C69 H66 0.929 . S
C69 C70 1.398 . S
C69 C71 1.396 . S
C70 C69 1.398 . S
C70 C74 1.407 . S
C71 C69 1.396 . S
C71 C72 1.394 . S
C72 H67 0.929 . S
C72 C71 1.394 . S
C72 C73 1.382 . S
C73 C72 1.382 . S
C73 C74 1.392 . S
C73 N75 1.420 . S
C74 H68 0.930 . S
C74 C70 1.407 . S
C74 C73 1.392 . S
N75 C73 1.420 . S
N75 C76 1.244 . S
C76 N75 1.244 . S
H77 C80 0.929 . S
H78 C83 0.929 . S
H79 C85 0.930 . S
C80 H77 0.929 . S
C80 C81 1.398 . S
C80 C82 1.396 . S
C81 C80 1.398 . S
C81 C85 1.407 . S
C82 C80 1.396 . S
C82 C83 1.394 . S
C83 H78 0.929 . S
C83 C82 1.394 . S
C83 C84 1.382 . S
C84 C83 1.382 . S
C84 C85 1.392 . S
C84 N86 1.420 . S
C85 H79 0.930 . S
C85 C81 1.407 . S
C85 C84 1.392 . S
N86 C84 1.420 . S
N86 C87 1.244 . S
C87 N86 1.244 . S
Zn88 O94 1.920 . S
Zn88 O100 1.898 . S
Zn88 O103 1.905 . S
Zn89 O97 1.905 1_655 S
Zn89 O98 1.898 . S
Zn89 O106 1.920 . S
Zn90 O93 2.080 1_455 S
Zn90 O96 2.114 . S
Zn90 O99 2.120 1_455 S
Zn90 O101 2.120 . S
Zn90 O102 2.114 . S
Zn90 O105 2.080 1_455 S
C91 O96 1.166 . S
C91 O97 1.182 . S
C92 O98 1.167 . S
C92 O99 1.299 . S
O93 Zn90 2.080 1_655 S
O93 C107 1.305 . S
O94 Zn88 1.920 . S
O94 C107 1.234 1_455 S
C95 O100 1.167 . S
C95 O101 1.299 . S
O96 Zn90 2.114 . S
O96 C91 1.166 . S
O97 Zn89 1.905 1_455 S
O97 C91 1.182 . S
O98 Zn89 1.898 . S
O98 C92 1.167 . S
O99 Zn90 2.120 1_655 S
O99 C92 1.299 . S
O100 Zn88 1.898 . S
O100 C95 1.167 . S
O101 Zn90 2.120 . S
O101 C95 1.299 . S
O102 Zn90 2.114 . S
O102 C104 1.166 . S
O103 Zn88 1.905 . S
O103 C104 1.182 . S
C104 O102 1.166 . S
C104 O103 1.182 . S
O105 Zn90 2.080 1_655 S
O105 C108 1.305 . S
O106 Zn89 1.920 . S
O106 C108 1.234 . S
C107 O93 1.305 . S
C107 O94 1.234 1_655 S
C108 O105 1.305 . S
C108 O106 1.234 . S
Zn109 O115 1.920 . S
Zn109 O121 1.898 . S
Zn109 O124 1.905 . S
Zn110 O118 1.905 . S
Zn110 O119 1.898 . S
Zn110 O127 1.920 . S
Zn111 O114 2.080 . S
Zn111 O117 2.114 . S
Zn111 O120 2.120 . S
Zn111 O122 2.120 . S
Zn111 O123 2.114 . S
Zn111 O126 2.080 . S
C112 O117 1.166 . S
C112 O118 1.182 . S
C113 O119 1.167 . S
C113 O120 1.299 . S
O114 Zn111 2.080 . S
O114 C128 1.305 . S
O115 Zn109 1.920 . S
O115 C128 1.234 . S
C116 O121 1.167 . S
C116 O122 1.299 . S
O117 Zn111 2.114 . S
O117 C112 1.166 . S
O118 Zn110 1.905 . S
O118 C112 1.182 . S
O119 Zn110 1.898 . S
O119 C113 1.167 . S
O120 Zn111 2.120 . S
O120 C113 1.299 . S
O121 Zn109 1.898 . S
O121 C116 1.167 . S
O122 Zn111 2.120 . S
O122 C116 1.299 . S
O123 Zn111 2.114 . S
O123 C125 1.166 . S
O124 Zn109 1.905 . S
O124 C125 1.182 . S
C125 O123 1.166 . S
C125 O124 1.182 . S
O126 Zn111 2.080 . S
O126 C129 1.305 . S
O127 Zn110 1.920 . S
O127 C129 1.234 . S
C128 O114 1.305 . S
C128 O115 1.234 . S
C129 O126 1.305 . S
C129 O127 1.234 . S
Zn130 O136 1.920 . S
Zn130 O142 1.898 . S
Zn130 O145 1.878 1_455 S
Zn131 O139 1.905 . S
Zn131 O140 1.898 . S
Zn131 O148 1.920 1_655 S
Zn132 O135 2.080 . S
Zn132 O138 2.114 1_455 S
Zn132 O141 2.120 1_455 S
Zn132 O143 2.120 . S
Zn132 O144 2.114 1_455 S
Zn132 O147 2.080 . S
C133 O138 1.166 . S
C133 O139 1.182 . S
C134 O140 1.167 . S
C134 O141 1.299 . S
O135 Zn132 2.080 . S
O135 C149 1.305 . S
O136 Zn130 1.920 . S
O136 C149 1.234 . S
C137 O142 1.167 . S
C137 O143 1.299 . S
O138 Zn132 2.114 1_655 S
O138 C133 1.166 . S
O139 Zn131 1.905 . S
O139 C133 1.182 . S
O140 Zn131 1.898 . S
O140 C134 1.167 . S
O141 Zn132 2.120 1_655 S
O141 C134 1.299 . S
O142 Zn130 1.898 . S
O142 C137 1.167 . S
O143 Zn132 2.120 . S
O143 C137 1.299 . S
O144 Zn132 2.114 1_655 S
O144 C146 1.166 . S
O145 Zn130 1.878 1_655 S
O145 C146 1.203 . S
C146 O144 1.166 . S
C146 O145 1.203 . S
O147 Zn132 2.080 . S
O147 C150 1.305 . S
O148 Zn131 1.920 1_455 S
O148 C150 1.234 . S
C149 O135 1.305 . S
C149 O136 1.234 . S
C150 O147 1.305 . S
C150 O148 1.234 . S
Zn151 O157 1.920 . S
Zn151 O163 1.898 . S
Zn151 O166 1.905 . S
Zn152 O160 1.905 . S
Zn152 O161 1.898 . S
Zn152 O169 1.920 . S
Zn153 O156 2.080 . S
Zn153 O159 2.114 . S
Zn153 O162 2.120 . S
Zn153 O164 2.120 . S
Zn153 O165 2.114 . S
Zn153 O168 2.080 . S
C154 O159 1.166 . S
C154 O160 1.182 . S
C155 O161 1.167 . S
C155 O162 1.299 . S
O156 Zn153 2.080 . S
O156 C170 1.305 . S
O157 Zn151 1.920 . S
O157 C170 1.234 . S
C158 O163 1.167 . S
C158 O164 1.299 . S
O159 Zn153 2.114 . S
O159 C154 1.166 . S
O160 Zn152 1.905 . S
O160 C154 1.182 . S
O161 Zn152 1.898 . S
O161 C155 1.167 . S
O162 Zn153 2.120 . S
O162 C155 1.299 . S
O163 Zn151 1.898 . S
O163 C158 1.167 . S
O164 Zn153 2.120 . S
O164 C158 1.299 . S
O165 Zn153 2.114 . S
O165 C167 1.166 . S
O166 Zn151 1.905 . S
O166 C167 1.182 . S
C167 O165 1.166 . S
C167 O166 1.182 . S
O168 Zn153 2.080 . S
O168 C171 1.305 . S
O169 Zn152 1.920 . S
O169 C171 1.234 . S
C170 O156 1.305 . S
C170 O157 1.234 . S
C171 O168 1.305 . S
C171 O169 1.234 . S
H172 C190 0.951 . S
H173 C192 0.951 . S
H174 C194 0.950 . S
H175 C195 0.950 . S
H176 C197 0.950 . S
H177 C200 0.950 . S
H178 C201 0.950 . S
H179 C203 0.950 . S
H180 C204 0.950 . S
H181 C205 0.951 . S
H182 C207 0.951 1_565 S
H183 C209 0.950 . S
H184 C210 0.950 . S
H185 C212 0.963 . S
H186 C215 0.950 . S
H187 C216 0.950 . S
H188 C218 0.950 . S
H189 C219 0.950 . S
C190 H172 0.951 . S
C190 C191 1.366 . S
C190 C192 1.388 . S
C191 C190 1.366 . S
C191 C195 1.385 . S
C192 H173 0.951 . S
C192 C190 1.388 . S
C192 C193 1.366 . S
C193 C192 1.366 . S
C193 C194 1.414 . S
C193 C196 1.499 . S
C194 H174 0.950 . S
C194 C193 1.414 . S
C194 C195 1.374 . S
C195 H175 0.950 . S
C195 C191 1.385 . S
C195 C194 1.374 . S
C196 C193 1.499 . S
C196 C197 1.373 . S
C196 C198 1.389 . S
C197 H176 0.950 . S
C197 C196 1.373 . S
C197 C213 1.377 . S
C198 C196 1.389 . S
C198 C199 1.524 . S
C198 C212 1.377 . S
C199 C198 1.524 . S
C199 C200 1.397 . S
C199 C204 1.363 . S
C200 H177 0.950 . S
C200 C199 1.397 . S
C200 C201 1.334 . S
C201 H178 0.950 . S
C201 C200 1.334 . S
C201 C202 1.287 . S
C202 C201 1.287 . S
C202 C203 1.524 . S
C202 H221 0.913 . S
C203 H179 0.950 . S
C203 C202 1.524 . S
C203 C204 1.415 . S
C204 H180 0.950 . S
C204 C199 1.363 . S
C204 C203 1.415 . S
C205 H181 0.951 . S
C205 C206 1.366 . S
C205 C207 1.388 . S
C206 C205 1.366 . S
C206 C210 1.385 . S
C207 H182 0.951 1_545 S
C207 C205 1.388 . S
C207 C208 1.366 . S
C208 C207 1.366 . S
C208 C209 1.414 . S
C208 C211 1.499 1_545 S
C209 H183 0.950 . S
C209 C208 1.414 . S
C209 C210 1.374 . S
C210 H184 0.950 . S
C210 C206 1.385 . S
C210 C209 1.374 . S
C211 C208 1.499 1_565 S
C211 C212 1.373 . S
C211 C213 1.389 . S
C212 H185 0.963 . S
C212 C198 1.377 . S
C212 C211 1.373 . S
C213 C197 1.377 . S
C213 C211 1.389 . S
C213 C214 1.524 . S
C214 C213 1.524 . S
C214 C215 1.397 . S
C214 C219 1.363 . S
C215 H186 0.950 . S
C215 C214 1.397 . S
C215 C216 1.334 . S
C216 H187 0.950 . S
C216 C215 1.334 . S
C216 C217 1.287 . S
C217 C216 1.287 . S
C217 C218 1.524 . S
C217 H220 0.999 . S
C218 H188 0.950 . S
C218 C217 1.524 . S
C218 C219 1.415 . S
C219 H189 0.950 . S
C219 C214 1.363 . S
C219 C218 1.415 . S
H220 C217 0.999 . S
H221 C202 0.913 . S
H222 C240 0.951 . S
H223 C242 0.951 . S
H224 C244 0.950 . S
H225 C245 0.950 . S
H226 C247 0.950 . S
H227 C250 0.950 . S
H228 C251 0.950 . S
H229 C253 0.950 . S
H230 C254 0.950 . S
H231 C255 0.951 . S
H232 C257 0.951 . S
H233 C259 0.950 . S
H234 C260 0.950 . S
H235 C262 0.950 . S
H236 C265 0.950 . S
H237 C266 0.950 . S
H238 C268 0.950 . S
H239 C269 0.950 . S
C240 H222 0.951 . S
C240 C241 1.366 . S
C240 C242 1.388 . S
C241 C240 1.366 . S
C241 C245 1.385 . S
C242 H223 0.951 . S
C242 C240 1.388 . S
C242 C243 1.366 . S
C243 C242 1.366 . S
C243 C244 1.414 . S
C243 C246 1.499 . S
C244 H224 0.950 . S
C244 C243 1.414 . S
C244 C245 1.374 . S
C245 H225 0.950 . S
C245 C241 1.385 . S
C245 C244 1.374 . S
C246 C243 1.499 . S
C246 C247 1.373 . S
C246 C248 1.389 . S
C247 H226 0.950 . S
C247 C246 1.373 . S
C247 C263 1.377 . S
C248 C246 1.389 . S
C248 C249 1.524 . S
C248 C262 1.377 . S
C249 C248 1.524 . S
C249 C250 1.397 . S
C249 C254 1.363 . S
C250 H227 0.950 . S
C250 C249 1.397 . S
C250 C251 1.334 . S
C251 H228 0.950 . S
C251 C250 1.334 . S
C251 C252 1.287 . S
C252 C251 1.287 . S
C252 C253 1.524 . S
C252 H271 0.913 . S
C253 H229 0.950 . S
C253 C252 1.524 . S
C253 C254 1.415 . S
C254 H230 0.950 . S
C254 C249 1.363 . S
C254 C253 1.415 . S
C255 H231 0.951 . S
C255 C256 1.366 . S
C255 C257 1.388 . S
C256 C255 1.366 . S
C256 C260 1.385 . S
C257 H232 0.951 . S
C257 C255 1.388 . S
C257 C258 1.366 . S
C258 C257 1.366 . S
C258 C259 1.414 . S
C258 C261 1.499 . S
C259 H233 0.950 . S
C259 C258 1.414 . S
C259 C260 1.374 . S
C260 H234 0.950 . S
C260 C256 1.385 . S
C260 C259 1.374 . S
C261 C258 1.499 . S
C261 C262 1.373 . S
C261 C263 1.389 . S
C262 H235 0.950 . S
C262 C248 1.377 . S
C262 C261 1.373 . S
C263 C247 1.377 . S
C263 C261 1.389 . S
C263 C264 1.524 . S
C264 C263 1.524 . S
C264 C265 1.397 . S
C264 C269 1.363 . S
C265 H236 0.950 . S
C265 C264 1.397 . S
C265 C266 1.334 . S
C266 H237 0.950 . S
C266 C265 1.334 . S
C266 C267 1.287 . S
C267 C266 1.287 . S
C267 C268 1.524 . S
C267 H270 0.999 . S
C268 H238 0.950 . S
C268 C267 1.524 . S
C268 C269 1.415 . S
C269 H239 0.950 . S
C269 C264 1.363 . S
C269 C268 1.415 . S
H270 C267 0.999 . S
H271 C252 0.913 . S
H272 C290 0.951 . S
H273 C292 0.951 . S
H274 C294 0.950 . S
H275 C295 0.950 . S
H276 C297 0.950 . S
H277 C300 0.950 . S
H278 C301 0.950 . S
H279 C303 0.950 . S
H280 C304 0.950 . S
H281 C305 0.951 . S
H282 C307 0.951 . S
H283 C309 0.950 . S
H284 C310 0.950 . S
H285 C312 0.950 . S
H286 C315 0.950 . S
H287 C316 0.950 . S
H288 C318 0.950 . S
H289 C319 0.950 . S
C290 H272 0.951 . S
C290 C291 1.366 . S
C290 C292 1.388 . S
C291 C290 1.366 . S
C291 C295 1.385 . S
C292 H273 0.951 . S
C292 C290 1.388 . S
C292 C293 1.366 . S
C293 C292 1.366 . S
C293 C294 1.414 . S
C293 C296 1.499 . S
C294 H274 0.950 . S
C294 C293 1.414 . S
C294 C295 1.374 . S
C295 H275 0.950 . S
C295 C291 1.385 . S
C295 C294 1.374 . S
C296 C293 1.499 . S
C296 C297 1.373 . S
C296 C298 1.389 . S
C297 H276 0.950 . S
C297 C296 1.373 . S
C297 C313 1.377 . S
C298 C296 1.389 . S
C298 C299 1.524 . S
C298 C312 1.377 . S
C299 C298 1.524 . S
C299 C300 1.397 . S
C299 C304 1.363 . S
C300 H277 0.950 . S
C300 C299 1.397 . S
C300 C301 1.334 . S
C301 H278 0.950 . S
C301 C300 1.334 . S
C301 C302 1.287 . S
C302 C301 1.287 . S
C302 C303 1.524 . S
C302 H321 0.913 . S
C303 H279 0.950 . S
C303 C302 1.524 . S
C303 C304 1.415 . S
C304 H280 0.950 . S
C304 C299 1.363 . S
C304 C303 1.415 . S
C305 H281 0.951 . S
C305 C306 1.366 . S
C305 C307 1.388 . S
C306 C305 1.366 . S
C306 C310 1.385 . S
C307 H282 0.951 . S
C307 C305 1.388 . S
C307 C308 1.366 . S
C308 C307 1.366 . S
C308 C309 1.414 . S
C308 C311 1.499 . S
C309 H283 0.950 . S
C309 C308 1.414 . S
C309 C310 1.374 . S
C310 H284 0.950 . S
C310 C306 1.385 . S
C310 C309 1.374 . S
C311 C308 1.499 . S
C311 C312 1.373 . S
C311 C313 1.389 . S
C312 H285 0.950 . S
C312 C298 1.377 . S
C312 C311 1.373 . S
C313 C297 1.377 . S
C313 C311 1.389 . S
C313 C314 1.524 . S
C314 C313 1.524 . S
C314 C315 1.397 . S
C314 C319 1.363 . S
C315 H286 0.950 . S
C315 C314 1.397 . S
C315 C316 1.334 . S
C316 H287 0.950 . S
C316 C315 1.334 . S
C316 C317 1.287 . S
C317 C316 1.287 . S
C317 C318 1.524 . S
C317 H320 0.999 . S
C318 H288 0.950 . S
C318 C317 1.524 . S
C318 C319 1.415 . S
C319 H289 0.950 . S
C319 C314 1.363 . S
C319 C318 1.415 . S
H320 C317 0.999 . S
H321 C302 0.913 . S
H322 C340 0.951 . S
H323 C342 0.951 . S
H324 C344 0.950 . S
H325 C345 0.950 . S
H326 C347 0.950 . S
H327 C350 0.950 . S
H328 C351 0.950 . S
H329 C353 0.950 . S
H330 C354 0.950 . S
H331 C355 0.951 . S
H332 C357 0.951 . S
H333 C359 0.950 . S
H334 C360 0.950 . S
H335 C362 0.950 . S
H336 C365 0.950 . S
H337 C366 0.950 . S
H338 C368 0.950 . S
H339 C369 0.950 . S
C340 H322 0.951 . S
C340 C341 1.366 . S
C340 C342 1.388 . S
C341 C340 1.366 . S
C341 C345 1.385 . S
C342 H323 0.951 . S
C342 C340 1.388 . S
C342 C343 1.366 . S
C343 C342 1.366 . S
C343 C344 1.414 . S
C343 C346 1.499 . S
C344 H324 0.950 . S
C344 C343 1.414 . S
C344 C345 1.374 . S
C345 H325 0.950 . S
C345 C341 1.385 . S
C345 C344 1.374 . S
C346 C343 1.499 . S
C346 C347 1.373 . S
C346 C348 1.389 . S
C347 H326 0.950 . S
C347 C346 1.373 . S
C347 C363 1.377 . S
C348 C346 1.389 . S
C348 C349 1.524 . S
C348 C362 1.377 . S
C349 C348 1.524 . S
C349 C350 1.397 . S
C349 C354 1.363 . S
C350 H327 0.950 . S
C350 C349 1.397 . S
C350 C351 1.334 . S
C351 H328 0.950 . S
C351 C350 1.334 . S
C351 C352 1.287 . S
C352 C351 1.287 . S
C352 C353 1.524 . S
C352 H371 0.913 . S
C353 H329 0.950 . S
C353 C352 1.524 . S
C353 C354 1.415 . S
C354 H330 0.950 . S
C354 C349 1.363 . S
C354 C353 1.415 . S
C355 H331 0.951 . S
C355 C356 1.366 . S
C355 C357 1.388 . S
C356 C355 1.366 . S
C356 C360 1.385 . S
C357 H332 0.951 . S
C357 C355 1.388 . S
C357 C358 1.366 . S
C358 C357 1.366 . S
C358 C359 1.414 . S
C358 C361 1.499 1_545 S
C359 H333 0.950 . S
C359 C358 1.414 . S
C359 C360 1.374 . S
C360 H334 0.950 . S
C360 C356 1.385 . S
C360 C359 1.374 . S
C361 C358 1.499 1_565 S
C361 C362 1.373 . S
C361 C363 1.389 . S
C362 H335 0.950 . S
C362 C348 1.377 . S
C362 C361 1.373 . S
C363 C347 1.377 . S
C363 C361 1.389 . S
C363 C364 1.524 . S
C364 C363 1.524 . S
C364 C365 1.397 1_565 S
C364 C369 1.363 . S
C365 H336 0.950 . S
C365 C364 1.397 1_545 S
C365 C366 1.334 . S
C366 H337 0.950 . S
C366 C365 1.334 . S
C366 C367 1.287 . S
C367 C366 1.287 . S
C367 C368 1.524 1_545 S
C367 H370 0.999 . S
C368 H338 0.950 . S
C368 C367 1.524 1_565 S
C368 C369 1.415 . S
C369 H339 0.950 . S
C369 C364 1.363 . S
C369 C368 1.415 . S
H370 C367 0.999 . S
H371 C352 0.913 . S
H372 C390 0.951 . S
H373 C392 0.951 . S
H374 C394 0.950 . S
H375 C395 0.950 . S
H376 C397 0.950 . S
H377 C400 0.950 . S
H378 C401 0.950 . S
H379 C403 0.950 1_455 S
H380 C404 0.950 . S
H381 C405 0.951 . S
H382 C407 0.951 . S
H383 C409 0.950 1_545 S
H384 C410 0.950 . S
H385 C412 0.950 . S
H386 C415 0.950 1_545 S
H387 C416 0.950 . S
H388 C418 0.950 . S
H389 C419 0.949 1_545 S
C390 H372 0.951 . S
C390 C391 1.366 . S
C390 C392 1.388 . S
C391 C390 1.366 . S
C391 C395 1.385 . S
C392 H373 0.951 . S
C392 C390 1.388 . S
C392 C393 1.366 . S
C393 C392 1.366 . S
C393 C394 1.414 . S
C393 C396 1.499 . S
C394 H374 0.950 . S
C394 C393 1.414 . S
C394 C395 1.374 . S
C395 H375 0.950 . S
C395 C391 1.385 . S
C395 C394 1.374 . S
C396 C393 1.499 . S
C396 C397 1.373 . S
C396 C398 1.389 . S
C397 H376 0.950 . S
C397 C396 1.373 . S
C397 C413 1.377 . S
C398 C396 1.389 . S
C398 C399 1.524 . S
C398 C412 1.377 . S
C399 C398 1.524 . S
C399 C400 1.397 . S
C399 C404 1.363 . S
C400 H377 0.950 . S
C400 C399 1.397 . S
C400 C401 1.334 . S
C401 H378 0.950 . S
C401 C400 1.334 . S
C401 C402 1.287 . S
C402 C401 1.287 . S
C402 C403 1.524 . S
C402 H421 0.913 . S
C403 H379 0.950 1_655 S
C403 C402 1.524 . S
C403 C404 1.415 . S
C404 H380 0.950 . S
C404 C399 1.363 . S
C404 C403 1.415 . S
C405 H381 0.951 . S
C405 C406 1.366 . S
C405 C407 1.388 . S
C406 C405 1.366 . S
C406 C410 1.385 . S
C407 H382 0.951 . S
C407 C405 1.388 . S
C407 C408 1.366 . S
C408 C407 1.366 . S
C408 C409 1.414 . S
C408 C411 1.499 1_565 S
C409 H383 0.950 1_565 S
C409 C408 1.414 . S
C409 C410 1.374 . S
C410 H384 0.950 . S
C410 C406 1.385 . S
C410 C409 1.374 . S
C411 C408 1.499 1_545 S
C411 C412 1.373 . S
C411 C413 1.389 . S
C412 H385 0.950 . S
C412 C398 1.377 . S
C412 C411 1.373 . S
C413 C397 1.377 . S
C413 C411 1.389 . S
C413 C414 1.524 . S
C414 C413 1.524 . S
C414 C415 1.397 1_545 S
C414 C419 1.363 1_545 S
C415 H386 0.950 1_565 S
C415 C414 1.397 1_565 S
C415 C416 1.334 . S
C416 H387 0.950 . S
C416 C415 1.334 . S
C416 C417 1.287 . S
C417 C416 1.287 . S
C417 C418 1.524 . S
C417 H420 0.999 . S
C418 H388 0.950 . S
C418 C417 1.524 . S
C418 C419 1.415 . S
C419 H389 0.949 1_565 S
C419 C414 1.363 1_565 S
C419 C418 1.415 . S
H420 C417 0.999 . S
H421 C402 0.913 . S
H422 C440 0.951 . S
H423 C442 0.951 . S
H424 C444 0.950 . S
H425 C445 0.950 . S
H426 C447 0.950 . S
H427 C450 0.950 . S
H428 C451 0.950 . S
H429 C453 0.950 . S
H430 C454 0.950 . S
H431 C455 0.951 . S
H432 C457 0.951 . S
H433 C459 0.950 . S
H434 C460 0.950 . S
H435 C462 0.950 . S
H436 C465 0.950 . S
H437 C466 0.950 . S
H438 C468 0.950 . S
H439 C469 0.950 . S
C440 H422 0.951 . S
C440 C441 1.366 . S
C440 C442 1.388 . S
C441 C440 1.366 . S
C441 C445 1.385 . S
C442 H423 0.951 . S
C442 C440 1.388 . S
C442 C443 1.366 . S
C443 C442 1.366 . S
C443 C444 1.414 . S
C443 C446 1.499 . S
C444 H424 0.950 . S
C444 C443 1.414 . S
C444 C445 1.374 . S
C445 H425 0.950 . S
C445 C441 1.385 . S
C445 C444 1.374 . S
C446 C443 1.499 . S
C446 C447 1.373 . S
C446 C448 1.389 . S
C447 H426 0.950 . S
C447 C446 1.373 . S
C447 C463 1.377 . S
C448 C446 1.389 . S
C448 C449 1.524 . S
C448 C462 1.377 . S
C449 C448 1.524 . S
C449 C450 1.397 . S
C449 C454 1.363 . S
C450 H427 0.950 . S
C450 C449 1.397 . S
C450 C451 1.334 . S
C451 H428 0.950 . S
C451 C450 1.334 . S
C451 C452 1.287 . S
C452 C451 1.287 . S
C452 C453 1.524 . S
C452 H471 0.913 . S
C453 H429 0.950 . S
C453 C452 1.524 . S
C453 C454 1.415 . S
C454 H430 0.950 . S
C454 C449 1.363 . S
C454 C453 1.415 . S
C455 H431 0.951 . S
C455 C456 1.366 . S
C455 C457 1.388 . S
C456 C455 1.366 . S
C456 C460 1.385 . S
C457 H432 0.951 . S
C457 C455 1.388 . S
C457 C458 1.366 . S
C458 C457 1.366 . S
C458 C459 1.414 . S
C458 C461 1.499 . S
C459 H433 0.950 . S
C459 C458 1.414 . S
C459 C460 1.374 . S
C460 H434 0.950 . S
C460 C456 1.385 . S
C460 C459 1.374 . S
C461 C458 1.499 . S
C461 C462 1.373 . S
C461 C463 1.389 . S
C462 H435 0.950 . S
C462 C448 1.377 . S
C462 C461 1.373 . S
C463 C447 1.377 . S
C463 C461 1.389 . S
C463 C464 1.524 . S
C464 C463 1.524 . S
C464 C465 1.397 . S
C464 C469 1.363 . S
C465 H436 0.950 . S
C465 C464 1.397 . S
C465 C466 1.334 . S
C466 H437 0.950 . S
C466 C465 1.334 . S
C466 C467 1.287 . S
C467 C466 1.287 . S
C467 C468 1.524 . S
C467 H470 0.999 . S
C468 H438 0.950 . S
C468 C467 1.524 . S
C468 C469 1.415 . S
C469 H439 0.950 . S
C469 C464 1.363 . S
C469 C468 1.415 . S
H470 C467 0.999 . S
H471 C452 0.913 . S
H472 C490 0.951 . S
H473 C492 0.951 . S
H474 C494 0.950 . S
H475 C495 0.950 . S
H476 C497 0.950 . S
H477 C500 0.950 . S
H478 C501 0.950 . S
H479 C503 0.950 . S
H480 C504 0.950 . S
H481 C505 0.951 . S
H482 C507 0.951 . S
H483 C509 0.950 . S
H484 C510 0.950 . S
H485 C512 0.950 . S
H486 C515 0.950 . S
H487 C516 0.950 . S
H488 C518 0.950 . S
H489 C519 0.950 . S
C490 H472 0.951 . S
C490 C491 1.366 . S
C490 C492 1.388 . S
C491 C490 1.366 . S
C491 C495 1.385 . S
C492 H473 0.951 . S
C492 C490 1.388 . S
C492 C493 1.366 . S
C493 C492 1.366 . S
C493 C494 1.414 . S
C493 C496 1.499 . S
C494 H474 0.950 . S
C494 C493 1.414 . S
C494 C495 1.374 . S
C495 H475 0.950 . S
C495 C491 1.385 . S
C495 C494 1.374 . S
C496 C493 1.499 . S
C496 C497 1.373 . S
C496 C498 1.389 . S
C497 H476 0.950 . S
C497 C496 1.373 . S
C497 C513 1.377 . S
C498 C496 1.389 . S
C498 C499 1.524 . S
C498 C512 1.377 . S
C499 C498 1.524 . S
C499 C500 1.397 . S
C499 C504 1.363 . S
C500 H477 0.950 . S
C500 C499 1.397 . S
C500 C501 1.334 . S
C501 H478 0.950 . S
C501 C500 1.334 . S
C501 C502 1.287 . S
C502 C501 1.287 . S
C502 C503 1.524 . S
C502 H521 0.913 . S
C503 H479 0.950 . S
C503 C502 1.524 . S
C503 C504 1.415 . S
C504 H480 0.950 . S
C504 C499 1.363 . S
C504 C503 1.415 . S
C505 H481 0.951 . S
C505 C506 1.366 . S
C505 C507 1.388 . S
C506 C505 1.366 . S
C506 C510 1.385 . S
C507 H482 0.951 . S
C507 C505 1.388 . S
C507 C508 1.366 . S
C508 C507 1.366 . S
C508 C509 1.414 . S
C508 C511 1.499 . S
C509 H483 0.950 . S
C509 C508 1.414 . S
C509 C510 1.374 . S
C510 H484 0.950 . S
C510 C506 1.385 . S
C510 C509 1.374 . S
C511 C508 1.499 . S
C511 C512 1.373 . S
C511 C513 1.389 . S
C512 H485 0.950 . S
C512 C498 1.377 . S
C512 C511 1.373 . S
C513 C497 1.377 . S
C513 C511 1.389 . S
C513 C514 1.524 . S
C514 C513 1.524 . S
C514 C515 1.397 . S
C514 C519 1.363 . S
C515 H486 0.950 . S
C515 C514 1.397 . S
C515 C516 1.334 . S
C516 H487 0.950 . S
C516 C515 1.334 . S
C516 C517 1.287 . S
C517 C516 1.287 . S
C517 C518 1.524 . S
C517 H520 0.999 . S
C518 H488 0.950 . S
C518 C517 1.524 . S
C518 C519 1.415 . S
C519 H489 0.950 . S
C519 C514 1.363 . S
C519 C518 1.415 . S
H520 C517 0.999 . S
H521 C502 0.913 . S
H522 C540 0.951 . S
H523 C542 0.951 . S
H524 C544 0.950 . S
H525 C545 0.950 . S
H526 C547 0.950 . S
H527 C550 0.950 . S
H528 C551 0.950 . S
H529 C553 0.950 . S
H530 C554 0.950 . S
H531 C555 0.951 . S
H532 C557 0.951 . S
H533 C559 0.950 . S
H534 C560 0.950 . S
H535 C562 0.950 . S
H536 C565 0.950 . S
H537 C566 0.950 . S
H538 C568 0.950 . S
H539 C569 0.950 1_545 S
C540 H522 0.951 . S
C540 C541 1.366 . S
C540 C542 1.388 . S
C541 C540 1.366 . S
C541 C545 1.385 . S
C542 H523 0.951 . S
C542 C540 1.388 . S
C542 C543 1.366 . S
C543 C542 1.366 . S
C543 C544 1.414 . S
C543 C546 1.499 . S
C544 H524 0.950 . S
C544 C543 1.414 . S
C544 C545 1.374 . S
C545 H525 0.950 . S
C545 C541 1.385 . S
C545 C544 1.374 . S
C546 C543 1.499 . S
C546 C547 1.373 . S
C546 C548 1.389 . S
C547 H526 0.950 . S
C547 C546 1.373 . S
C547 C563 1.377 . S
C548 C546 1.389 . S
C548 C549 1.524 . S
C548 C562 1.377 . S
C549 C548 1.524 . S
C549 C550 1.397 . S
C549 C554 1.363 . S
C550 H527 0.950 . S
C550 C549 1.397 . S
C550 C551 1.334 . S
C551 H528 0.950 . S
C551 C550 1.334 . S
C551 C552 1.287 . S
C552 C551 1.287 . S
C552 C553 1.524 . S
C552 H571 0.913 . S
C553 H529 0.950 . S
C553 C552 1.524 . S
C553 C554 1.415 . S
C554 H530 0.950 . S
C554 C549 1.363 . S
C554 C553 1.415 . S
C555 H531 0.951 . S
C555 C556 1.366 . S
C555 C557 1.388 . S
C556 C555 1.366 . S
C556 C560 1.385 . S
C557 H532 0.951 . S
C557 C555 1.388 . S
C557 C558 1.366 . S
C558 C557 1.366 . S
C558 C559 1.414 . S
C558 C561 1.499 1_565 S
C559 H533 0.950 . S
C559 C558 1.414 . S
C559 C560 1.374 . S
C560 H534 0.950 . S
C560 C556 1.385 . S
C560 C559 1.374 . S
C561 C558 1.499 1_545 S
C561 C562 1.373 . S
C561 C563 1.389 . S
C562 H535 0.950 . S
C562 C548 1.377 . S
C562 C561 1.373 . S
C563 C547 1.377 . S
C563 C561 1.389 . S
C563 C564 1.524 1_545 S
C564 C563 1.524 1_565 S
C564 C565 1.397 . S
C564 C569 1.363 . S
C565 H536 0.950 . S
C565 C564 1.397 . S
C565 C566 1.334 . S
C566 H537 0.950 . S
C566 C565 1.334 . S
C566 C567 1.287 . S
C567 C566 1.287 . S
C567 C568 1.524 . S
C567 H570 0.999 . S
C568 H538 0.950 . S
C568 C567 1.524 . S
C568 C569 1.415 . S
C569 H539 0.950 1_565 S
C569 C564 1.363 . S
C569 C568 1.415 . S
H570 C567 0.999 . S
H571 C552 0.913 . S
H572 C590 0.951 . S
H573 C592 0.960 . S
H574 C594 0.950 1_554 S
H575 C595 0.950 . S
H576 C597 0.950 . S
H577 C600 0.950 . S
H578 C601 0.950 . S
H579 C603 0.950 . S
H580 C604 0.950 . S
H581 C605 0.951 . S
H582 C607 0.951 . S
H583 C609 0.950 . S
H584 C610 0.950 . S
H585 C612 0.950 . S
H586 C615 0.950 . S
H587 C616 0.950 . S
H588 C618 0.950 . S
H589 C619 0.950 . S
C590 H572 0.951 . S
C590 C591 1.366 . S
C590 C592 1.388 . S
C591 C590 1.366 . S
C591 C595 1.385 . S
C592 H573 0.960 . S
C592 C590 1.388 . S
C592 C593 1.366 1_556 S
C593 C592 1.366 1_554 S
C593 C594 1.414 1_554 S
C593 C596 1.499 . S
C594 H574 0.950 1_556 S
C594 C593 1.414 1_556 S
C594 C595 1.374 . S
C595 H575 0.950 . S
C595 C591 1.385 . S
C595 C594 1.374 . S
C596 C593 1.499 . S
C596 C597 1.373 . S
C596 C598 1.389 . S
C597 H576 0.950 . S
C597 C596 1.373 . S
C597 C613 1.377 . S
C598 C596 1.389 . S
C598 C599 1.524 . S
C598 C612 1.377 . S
C599 C598 1.524 . S
C599 C600 1.397 . S
C599 C604 1.363 . S
C600 H577 0.950 . S
C600 C599 1.397 . S
C600 C601 1.334 . S
C601 H578 0.950 . S
C601 C600 1.334 . S
C601 C602 1.287 . S
C602 C601 1.287 . S
C602 C603 1.524 . S
C602 H621 0.913 . S
C603 H579 0.950 . S
C603 C602 1.524 . S
C603 C604 1.415 . S
C604 H580 0.950 . S
C604 C599 1.363 . S
C604 C603 1.415 . S
C605 H581 0.951 . S
C605 C606 1.366 . S
C605 C607 1.388 . S
C606 C605 1.366 . S
C606 C610 1.385 . S
C607 H582 0.951 . S
C607 C605 1.388 . S
C607 C608 1.366 . S
C608 C607 1.366 . S
C608 C609 1.414 . S
C608 C611 1.499 . S
C609 H583 0.950 . S
C609 C608 1.414 . S
C609 C610 1.374 . S
C610 H584 0.950 . S
C610 C606 1.385 . S
C610 C609 1.374 . S
C611 C608 1.499 . S
C611 C612 1.373 . S
C611 C613 1.389 . S
C612 H585 0.950 . S
C612 C598 1.377 . S
C612 C611 1.373 . S
C613 C597 1.377 . S
C613 C611 1.389 . S
C613 C614 1.524 . S
C614 C613 1.524 . S
C614 C615 1.397 . S
C614 C619 1.363 . S
C615 H586 0.950 . S
C615 C614 1.397 . S
C615 C616 1.334 . S
C616 H587 0.950 . S
C616 C615 1.334 . S
C616 C617 1.287 . S
C617 C616 1.287 . S
C617 C618 1.524 . S
C617 H620 0.999 . S
C618 H588 0.950 . S
C618 C617 1.524 . S
C618 C619 1.415 . S
C619 H589 0.950 . S
C619 C614 1.363 . S
C619 C618 1.415 . S
H620 C617 0.999 . S
H621 C602 0.913 . S
H622 C640 0.951 . S
H623 C642 0.951 . S
H624 C644 0.950 . S
H625 C645 0.950 . S
H626 C647 0.950 . S
H627 C650 0.950 . S
H628 C651 0.950 . S
H629 C653 0.950 . S
H630 C654 0.950 . S
H631 C655 0.951 . S
H632 C657 0.951 . S
H633 C659 0.950 . S
H634 C660 0.950 . S
H635 C662 0.950 . S
H636 C665 0.950 . S
H637 C666 0.950 . S
H638 C668 0.950 . S
H639 C669 0.950 . S
C640 H622 0.951 . S
C640 C641 1.366 . S
C640 C642 1.388 . S
C641 C640 1.366 . S
C641 C645 1.385 . S
C642 H623 0.951 . S
C642 C640 1.388 . S
C642 C643 1.366 . S
C643 C642 1.366 . S
C643 C644 1.414 . S
C643 C646 1.499 . S
C644 H624 0.950 . S
C644 C643 1.414 . S
C644 C645 1.374 . S
C645 H625 0.950 . S
C645 C641 1.385 . S
C645 C644 1.374 . S
C646 C643 1.499 . S
C646 C647 1.373 . S
C646 C648 1.389 . S
C647 H626 0.950 . S
C647 C646 1.373 . S
C647 C663 1.377 . S
C648 C646 1.389 . S
C648 C649 1.524 . S
C648 C662 1.377 . S
C649 C648 1.524 . S
C649 C650 1.397 . S
C649 C654 1.363 . S
C650 H627 0.950 . S
C650 C649 1.397 . S
C650 C651 1.334 . S
C651 H628 0.950 . S
C651 C650 1.334 . S
C651 C652 1.287 . S
C652 C651 1.287 . S
C652 C653 1.524 . S
C652 H671 0.913 . S
C653 H629 0.950 . S
C653 C652 1.524 . S
C653 C654 1.415 . S
C654 H630 0.950 . S
C654 C649 1.363 . S
C654 C653 1.415 . S
C655 H631 0.951 . S
C655 C656 1.366 . S
C655 C657 1.388 . S
C656 C655 1.366 . S
C656 C660 1.385 . S
C657 H632 0.951 . S
C657 C655 1.388 . S
C657 C658 1.366 . S
C658 C657 1.366 . S
C658 C659 1.414 . S
C658 C661 1.499 . S
C659 H633 0.950 . S
C659 C658 1.414 . S
C659 C660 1.374 . S
C660 H634 0.950 . S
C660 C656 1.385 . S
C660 C659 1.374 . S
C661 C658 1.499 . S
C661 C662 1.373 . S
C661 C663 1.389 . S
C662 H635 0.950 . S
C662 C648 1.377 . S
C662 C661 1.373 . S
C663 C647 1.377 . S
C663 C661 1.389 . S
C663 C664 1.524 . S
C664 C663 1.524 . S
C664 C665 1.397 . S
C664 C669 1.363 . S
C665 H636 0.950 . S
C665 C664 1.397 . S
C665 C666 1.334 . S
C666 H637 0.950 . S
C666 C665 1.334 . S
C666 C667 1.287 . S
C667 C666 1.287 . S
C667 C668 1.524 . S
C667 H670 0.999 . S
C668 H638 0.950 . S
C668 C667 1.524 . S
C668 C669 1.415 . S
C669 H639 0.950 . S
C669 C664 1.363 . S
C669 C668 1.415 . S
H670 C667 0.999 . S
H671 C652 0.913 . S
H672 C690 0.951 . S
H673 C692 0.951 . S
H674 C694 0.950 . S
H675 C695 0.950 . S
H676 C697 0.950 . S
H677 C700 0.950 . S
H678 C701 0.950 . S
H679 C703 0.950 . S
H680 C704 0.950 . S
H681 C705 0.951 . S
H682 C707 0.951 . S
H683 C709 0.950 . S
H684 C710 0.950 . S
H685 C712 0.950 . S
H686 C715 0.950 . S
H687 C716 0.950 . S
H688 C718 0.950 . S
H689 C719 0.950 . S
C690 H672 0.951 . S
C690 C691 1.366 . S
C690 C692 1.388 1_554 S
C691 C690 1.366 . S
C691 C695 1.385 . S
C692 H673 0.951 . S
C692 C690 1.388 1_556 S
C692 C693 1.366 . S
C693 C692 1.366 . S
C693 C694 1.414 1_556 S
C693 C696 1.499 . S
C694 H674 0.950 . S
C694 C693 1.414 1_554 S
C694 C695 1.374 . S
C695 H675 0.950 . S
C695 C691 1.385 . S
C695 C694 1.374 . S
C696 C693 1.499 . S
C696 C697 1.373 . S
C696 C698 1.389 . S
C697 H676 0.950 . S
C697 C696 1.373 . S
C697 C713 1.377 . S
C698 C696 1.389 . S
C698 C699 1.524 . S
C698 C712 1.377 . S
C699 C698 1.524 . S
C699 C700 1.397 . S
C699 C704 1.363 . S
C700 H677 0.950 . S
C700 C699 1.397 . S
C700 C701 1.334 . S
C701 H678 0.950 . S
C701 C700 1.334 . S
C701 C702 1.287 . S
C702 C701 1.287 . S
C702 C703 1.524 . S
C702 H721 0.913 . S
C703 H679 0.950 . S
C703 C702 1.524 . S
C703 C704 1.415 . S
C704 H680 0.950 . S
C704 C699 1.363 . S
C704 C703 1.415 . S
C705 H681 0.951 . S
C705 C706 1.366 . S
C705 C707 1.388 . S
C706 C705 1.366 . S
C706 C710 1.385 . S
C707 H682 0.951 . S
C707 C705 1.388 . S
C707 C708 1.366 . S
C708 C707 1.366 . S
C708 C709 1.414 . S
C708 C711 1.499 . S
C709 H683 0.950 . S
C709 C708 1.414 . S
C709 C710 1.374 . S
C710 H684 0.950 . S
C710 C706 1.385 . S
C710 C709 1.374 . S
C711 C708 1.499 . S
C711 C712 1.373 . S
C711 C713 1.389 . S
C712 H685 0.950 . S
C712 C698 1.377 . S
C712 C711 1.373 . S
C713 C697 1.377 . S
C713 C711 1.389 . S
C713 C714 1.524 . S
C714 C713 1.524 . S
C714 C715 1.397 . S
C714 C719 1.363 . S
C715 H686 0.950 . S
C715 C714 1.397 . S
C715 C716 1.334 . S
C716 H687 0.950 . S
C716 C715 1.334 . S
C716 C717 1.287 . S
C717 C716 1.287 . S
C717 C718 1.524 . S
C717 H720 0.999 . S
C718 H688 0.950 . S
C718 C717 1.524 . S
C718 C719 1.415 . S
C719 H689 0.950 . S
C719 C714 1.363 . S
C719 C718 1.415 . S
H720 C717 0.999 . S
H721 C702 0.913 . S
H722 C740 0.951 . S
H723 C742 0.951 . S
H724 C744 0.950 . S
H725 C745 0.950 . S
H726 C747 0.950 . S
H727 C750 0.950 . S
H728 C751 0.950 . S
H729 C753 0.950 . S
H730 C754 0.950 . S
H731 C755 0.951 . S
H732 C757 0.951 . S
H733 C759 0.950 . S
H734 C760 0.950 . S
H735 C762 0.950 . S
H736 C765 0.950 . S
H737 C766 0.950 . S
H738 C768 0.950 . S
H739 C769 0.950 . S
C740 H722 0.951 . S
C740 C741 1.366 . S
C740 C742 1.388 . S
C741 C740 1.366 . S
C741 C745 1.385 . S
C742 H723 0.951 . S
C742 C740 1.388 . S
C742 C743 1.366 . S
C743 C742 1.366 . S
C743 C744 1.414 . S
C743 C746 1.499 . S
C744 H724 0.950 . S
C744 C743 1.414 . S
C744 C745 1.374 . S
C745 H725 0.950 . S
C745 C741 1.385 . S
C745 C744 1.374 . S
C746 C743 1.499 . S
C746 C747 1.373 . S
C746 C748 1.389 . S
C747 H726 0.950 . S
C747 C746 1.373 . S
C747 C763 1.377 . S
C748 C746 1.389 . S
C748 C749 1.524 . S
C748 C762 1.377 . S
C749 C748 1.524 . S
C749 C750 1.397 . S
C749 C754 1.363 . S
C750 H727 0.950 . S
C750 C749 1.397 . S
C750 C751 1.334 . S
C751 H728 0.950 . S
C751 C750 1.334 . S
C751 C752 1.287 . S
C752 C751 1.287 . S
C752 C753 1.524 . S
C752 H771 0.913 . S
C753 H729 0.950 . S
C753 C752 1.524 . S
C753 C754 1.415 . S
C754 H730 0.950 . S
C754 C749 1.363 . S
C754 C753 1.415 . S
C755 H731 0.951 . S
C755 C756 1.366 . S
C755 C757 1.388 . S
C756 C755 1.366 . S
C756 C760 1.385 . S
C757 H732 0.951 . S
C757 C755 1.388 . S
C757 C758 1.366 . S
C758 C757 1.366 . S
C758 C759 1.414 . S
C758 C761 1.499 . S
C759 H733 0.950 . S
C759 C758 1.414 . S
C759 C760 1.374 . S
C760 H734 0.950 . S
C760 C756 1.385 . S
C760 C759 1.374 . S
C761 C758 1.499 . S
C761 C762 1.373 . S
C761 C763 1.389 . S
C762 H735 0.950 . S
C762 C748 1.377 . S
C762 C761 1.373 . S
C763 C747 1.377 . S
C763 C761 1.389 . S
C763 C764 1.524 . S
C764 C763 1.524 . S
C764 C765 1.397 . S
C764 C769 1.363 . S
C765 H736 0.950 . S
C765 C764 1.397 . S
C765 C766 1.334 . S
C766 H737 0.950 . S
C766 C765 1.334 . S
C766 C767 1.287 . S
C767 C766 1.287 . S
C767 C768 1.524 . S
C767 H770 0.999 . S
C768 H738 0.950 . S
C768 C767 1.524 . S
C768 C769 1.415 . S
C769 H739 0.950 . S
C769 C764 1.363 . S
C769 C768 1.415 . S
H770 C767 0.999 . S
H771 C752 0.913 . S
H772 C790 0.951 . S
H773 C792 0.951 . S
H774 C794 0.950 1_556 S
H775 C795 0.950 . S
H776 C797 0.950 . S
H777 C800 0.950 . S
H778 C801 0.950 . S
H779 C803 0.950 . S
H780 C804 0.950 . S
H781 C805 0.951 . S
H782 C807 0.951 . S
H783 C809 0.950 . S
H784 C810 0.950 . S
H785 C812 0.950 . S
H786 C815 0.950 . S
H787 C816 0.950 1_455 S
H788 C818 0.950 . S
H789 C819 0.950 . S
C790 H772 0.951 . S
C790 C791 1.366 . S
C790 C792 1.388 . S
C791 C790 1.366 . S
C791 C795 1.385 . S
C792 H773 0.951 . S
C792 C790 1.388 . S
C792 C793 1.366 1_554 S
C793 C792 1.366 1_556 S
C793 C794 1.414 1_556 S
C793 C796 1.499 . S
C794 H774 0.950 1_554 S
C794 C793 1.414 1_554 S
C794 C795 1.374 . S
C795 H775 0.950 . S
C795 C791 1.385 . S
C795 C794 1.374 . S
C796 C793 1.499 . S
C796 C797 1.373 . S
C796 C798 1.389 . S
C797 H776 0.950 . S
C797 C796 1.373 . S
C797 C813 1.377 . S
C798 C796 1.389 . S
C798 C799 1.524 . S
C798 C812 1.377 . S
C799 C798 1.524 . S
C799 C800 1.397 . S
C799 C804 1.363 . S
C800 H777 0.950 . S
C800 C799 1.397 . S
C800 C801 1.334 . S
C801 H778 0.950 . S
C801 C800 1.334 . S
C801 C802 1.287 . S
C802 C801 1.287 . S
C802 C803 1.524 . S
C802 H821 0.913 . S
C803 H779 0.950 . S
C803 C802 1.524 . S
C803 C804 1.415 . S
C804 H780 0.950 . S
C804 C799 1.363 . S
C804 C803 1.415 . S
C805 H781 0.951 . S
C805 C806 1.366 . S
C805 C807 1.388 . S
C806 C805 1.366 . S
C806 C810 1.385 . S
C807 H782 0.951 . S
C807 C805 1.388 . S
C807 C808 1.366 . S
C808 C807 1.366 . S
C808 C809 1.414 . S
C808 C811 1.499 . S
C809 H783 0.950 . S
C809 C808 1.414 . S
C809 C810 1.374 . S
C810 H784 0.950 . S
C810 C806 1.385 . S
C810 C809 1.374 . S
C811 C808 1.499 . S
C811 C812 1.373 . S
C811 C813 1.389 . S
C812 H785 0.950 . S
C812 C798 1.377 . S
C812 C811 1.373 . S
C813 C797 1.377 . S
C813 C811 1.389 . S
C813 C814 1.524 . S
C814 C813 1.524 . S
C814 C815 1.397 . S
C814 C819 1.363 . S
C815 H786 0.950 . S
C815 C814 1.397 . S
C815 C816 1.334 . S
C816 H787 0.950 1_655 S
C816 C815 1.334 . S
C816 C817 1.287 . S
C817 C816 1.287 . S
C817 C818 1.524 . S
C817 H820 0.999 . S
C818 H788 0.950 . S
C818 C817 1.524 . S
C818 C819 1.415 . S
C819 H789 0.950 . S
C819 C814 1.363 . S
C819 C818 1.415 . S
H820 C817 0.999 . S
H821 C802 0.913 . S
H822 C840 0.951 . S
H823 C842 0.951 . S
H824 C844 0.950 . S
H825 C845 0.950 . S
H826 C847 0.950 . S
H827 C850 0.950 . S
H828 C851 0.950 . S
H829 C853 0.950 . S
H830 C854 0.950 . S
H831 C855 0.951 . S
H832 C857 0.951 . S
H833 C859 0.950 . S
H834 C860 0.950 . S
H835 C862 0.950 . S
H836 C865 0.950 . S
H837 C866 0.950 . S
H838 C868 0.950 . S
H839 C869 0.950 . S
C840 H822 0.951 . S
C840 C841 1.366 . S
C840 C842 1.388 . S
C841 C840 1.366 . S
C841 C845 1.385 . S
C842 H823 0.951 . S
C842 C840 1.388 . S
C842 C843 1.366 . S
C843 C842 1.366 . S
C843 C844 1.414 . S
C843 C846 1.499 . S
C844 H824 0.950 . S
C844 C843 1.414 . S
C844 C845 1.374 . S
C845 H825 0.950 . S
C845 C841 1.385 . S
C845 C844 1.374 . S
C846 C843 1.499 . S
C846 C847 1.373 . S
C846 C848 1.389 . S
C847 H826 0.950 . S
C847 C846 1.373 . S
C847 C863 1.377 . S
C848 C846 1.389 . S
C848 C849 1.524 . S
C848 C862 1.377 . S
C849 C848 1.524 . S
C849 C850 1.397 . S
C849 C854 1.363 . S
C850 H827 0.950 . S
C850 C849 1.397 . S
C850 C851 1.334 . S
C851 H828 0.950 . S
C851 C850 1.334 . S
C851 C852 1.287 . S
C852 C851 1.287 . S
C852 C853 1.524 . S
C852 H871 0.913 . S
C853 H829 0.950 . S
C853 C852 1.524 . S
C853 C854 1.415 . S
C854 H830 0.950 . S
C854 C849 1.363 . S
C854 C853 1.415 . S
C855 H831 0.951 . S
C855 C856 1.366 . S
C855 C857 1.388 . S
C856 C855 1.366 . S
C856 C860 1.385 . S
C857 H832 0.951 . S
C857 C855 1.388 . S
C857 C858 1.366 . S
C858 C857 1.366 . S
C858 C859 1.414 . S
C858 C861 1.499 . S
C859 H833 0.950 . S
C859 C858 1.414 . S
C859 C860 1.374 . S
C860 H834 0.950 . S
C860 C856 1.385 . S
C860 C859 1.374 . S
C861 C858 1.499 . S
C861 C862 1.373 . S
C861 C863 1.389 . S
C862 H835 0.950 . S
C862 C848 1.377 . S
C862 C861 1.373 . S
C863 C847 1.377 . S
C863 C861 1.389 . S
C863 C864 1.524 . S
C864 C863 1.524 . S
C864 C865 1.397 . S
C864 C869 1.363 . S
C865 H836 0.950 . S
C865 C864 1.397 . S
C865 C866 1.334 . S
C866 H837 0.950 . S
C866 C865 1.334 . S
C866 C867 1.287 . S
C867 C866 1.287 . S
C867 C868 1.524 . S
C867 H870 0.999 . S
C868 H838 0.950 . S
C868 C867 1.524 . S
C868 C869 1.415 . S
C869 H839 0.950 . S
C869 C864 1.363 . S
C869 C868 1.415 . S
H870 C867 0.999 . S
H871 C852 0.913 . S
H872 C890 0.951 . S
H873 C892 0.951 . S
H874 C894 0.950 1_554 S
H875 C895 0.950 . S
H876 C897 0.950 . S
H877 C900 0.944 1_554 S
H878 C901 0.950 . S
H879 C903 0.950 . S
H880 C904 0.950 1_554 S
H881 C905 0.951 . S
H882 C907 0.951 . S
H883 C909 0.950 . S
H884 C910 0.950 . S
H885 C912 0.950 . S
H886 C915 0.950 . S
H887 C916 0.950 . S
H888 C918 0.950 . S
H889 C919 0.950 . S
C890 H872 0.951 . S
C890 C891 1.366 . S
C890 C892 1.388 . S
C891 C890 1.366 . S
C891 C895 1.385 . S
C892 H873 0.951 . S
C892 C890 1.388 . S
C892 C893 1.366 . S
C893 C892 1.366 . S
C893 C894 1.414 . S
C893 C896 1.499 1_556 S
C894 H874 0.950 1_556 S
C894 C893 1.414 . S
C894 C895 1.374 . S
C895 H875 0.950 . S
C895 C891 1.385 . S
C895 C894 1.374 . S
C896 C893 1.499 1_554 S
C896 C897 1.373 . S
C896 C898 1.389 . S
C897 H876 0.950 . S
C897 C896 1.373 . S
C897 C913 1.377 . S
C898 C896 1.389 . S
C898 C899 1.524 . S
C898 C912 1.377 . S
C899 C898 1.524 . S
C899 C900 1.397 1_554 S
C899 C904 1.363 1_554 S
C900 H877 0.944 1_556 S
C900 C899 1.397 1_556 S
C900 C901 1.334 . S
C901 H878 0.950 . S
C901 C900 1.334 . S
C901 C902 1.287 . S
C902 C901 1.287 . S
C902 C903 1.524 . S
C902 H921 0.913 . S
C903 H879 0.950 . S
C903 C902 1.524 . S
C903 C904 1.415 . S
C904 H880 0.950 1_556 S
C904 C899 1.363 1_556 S
C904 C903 1.415 . S
C905 H881 0.951 . S
C905 C906 1.366 . S
C905 C907 1.388 . S
C906 C905 1.366 . S
C906 C910 1.385 . S
C907 H882 0.951 . S
C907 C905 1.388 . S
C907 C908 1.366 . S
C908 C907 1.366 . S
C908 C909 1.414 . S
C908 C911 1.499 . S
C909 H883 0.950 . S
C909 C908 1.414 . S
C909 C910 1.374 . S
C910 H884 0.950 . S
C910 C906 1.385 . S
C910 C909 1.374 . S
C911 C908 1.499 . S
C911 C912 1.373 . S
C911 C913 1.389 . S
C912 H885 0.950 . S
C912 C898 1.377 . S
C912 C911 1.373 . S
C913 C897 1.377 . S
C913 C911 1.389 . S
C913 C914 1.524 . S
C914 C913 1.524 . S
C914 C915 1.397 . S
C914 C919 1.363 . S
C915 H886 0.950 . S
C915 C914 1.397 . S
C915 C916 1.334 . S
C916 H887 0.950 . S
C916 C915 1.334 . S
C916 C917 1.287 . S
C917 C916 1.287 . S
C917 C918 1.524 . S
C917 H920 0.999 . S
C918 H888 0.950 . S
C918 C917 1.524 . S
C918 C919 1.415 . S
C919 H889 0.950 . S
C919 C914 1.363 . S
C919 C918 1.415 . S
H920 C917 0.999 . S
H921 C902 0.913 . S
H922 C940 0.951 . S
H923 C942 0.951 . S
H924 C944 0.950 . S
H925 C945 0.950 . S
H926 C947 0.950 . S
H927 C950 0.950 . S
H928 C951 0.950 . S
H929 C953 0.950 . S
H930 C954 0.950 . S
H931 C955 0.951 . S
H932 C957 0.951 . S
H933 C959 0.950 . S
H934 C960 0.950 . S
H935 C962 0.950 . S
H936 C965 0.950 . S
H937 C966 0.950 . S
H938 C968 0.950 . S
H939 C969 0.950 . S
C940 H922 0.951 . S
C940 C941 1.366 . S
C940 C942 1.388 . S
C941 C940 1.366 . S
C941 C945 1.385 . S
C942 H923 0.951 . S
C942 C940 1.388 . S
C942 C943 1.366 . S
C943 C942 1.366 . S
C943 C944 1.414 . S
C943 C946 1.499 . S
C944 H924 0.950 . S
C944 C943 1.414 . S
C944 C945 1.374 . S
C945 H925 0.950 . S
C945 C941 1.385 . S
C945 C944 1.374 . S
C946 C943 1.499 . S
C946 C947 1.373 . S
C946 C948 1.389 . S
C947 H926 0.950 . S
C947 C946 1.373 . S
C947 C963 1.377 . S
C948 C946 1.389 . S
C948 C949 1.524 . S
C948 C962 1.377 . S
C949 C948 1.524 . S
C949 C950 1.397 . S
C949 C954 1.363 . S
C950 H927 0.950 . S
C950 C949 1.397 . S
C950 C951 1.334 . S
C951 H928 0.950 . S
C951 C950 1.334 . S
C951 C952 1.287 . S
C952 C951 1.287 . S
C952 C953 1.524 . S
C952 H971 0.913 . S
C953 H929 0.950 . S
C953 C952 1.524 . S
C953 C954 1.415 . S
C954 H930 0.950 . S
C954 C949 1.363 . S
C954 C953 1.415 . S
C955 H931 0.951 . S
C955 C956 1.366 . S
C955 C957 1.388 . S
C956 C955 1.366 . S
C956 C960 1.385 . S
C957 H932 0.951 . S
C957 C955 1.388 . S
C957 C958 1.366 . S
C958 C957 1.366 . S
C958 C959 1.414 . S
C958 C961 1.499 . S
C959 H933 0.950 . S
C959 C958 1.414 . S
C959 C960 1.374 . S
C960 H934 0.950 . S
C960 C956 1.385 . S
C960 C959 1.374 . S
C961 C958 1.499 . S
C961 C962 1.373 . S
C961 C963 1.389 . S
C962 H935 0.950 . S
C962 C948 1.377 . S
C962 C961 1.373 . S
C963 C947 1.377 . S
C963 C961 1.389 . S
C963 C964 1.524 . S
C964 C963 1.524 . S
C964 C965 1.397 . S
C964 C969 1.363 . S
C965 H936 0.950 . S
C965 C964 1.397 . S
C965 C966 1.334 . S
C966 H937 0.950 . S
C966 C965 1.334 . S
C966 C967 1.287 . S
C967 C966 1.287 . S
C967 C968 1.524 . S
C967 H970 0.999 . S
C968 H938 0.950 . S
C968 C967 1.524 . S
C968 C969 1.415 . S
C969 H939 0.950 . S
C969 C964 1.363 . S
C969 C968 1.415 . S
H970 C967 0.999 . S
H971 C952 0.913 . S
H972 C990 0.951 . S
H973 C992 0.951 . S
H974 C994 0.950 . S
H975 C995 0.950 . S
H976 C997 0.950 . S
H977 C1000 0.950 . S
H978 C1001 0.950 . S
H979 C1003 0.950 . S
H980 C1004 0.950 . S
H981 C1005 0.951 . S
H982 C1007 0.951 . S
H983 C1009 0.950 . S
H984 C1010 0.950 . S
H985 C1012 0.950 . S
H986 C1015 0.950 . S
H987 C1016 0.950 . S
H988 C1018 0.950 . S
H989 C1019 0.950 . S
C990 H972 0.951 . S
C990 C991 1.366 . S
C990 C992 1.388 . S
C991 C990 1.366 . S
C991 C995 1.385 . S
C992 H973 0.951 . S
C992 C990 1.388 . S
C992 C993 1.366 . S
C993 C992 1.366 . S
C993 C994 1.414 . S
C993 C996 1.499 . S
C994 H974 0.950 . S
C994 C993 1.414 . S
C994 C995 1.374 . S
C995 H975 0.950 . S
C995 C991 1.385 . S
C995 C994 1.374 . S
C996 C993 1.499 . S
C996 C997 1.373 . S
C996 C998 1.389 . S
C997 H976 0.950 . S
C997 C996 1.373 . S
C997 C1013 1.377 . S
C998 C996 1.389 . S
C998 C999 1.524 . S
C998 C1012 1.377 . S
C999 C998 1.524 . S
C999 C1000 1.397 . S
C999 C1004 1.363 . S
C1000 H977 0.950 . S
C1000 C999 1.397 . S
C1000 C1001 1.334 . S
C1001 H978 0.950 . S
C1001 C1000 1.334 . S
C1001 C1002 1.287 . S
C1002 C1001 1.287 . S
C1002 C1003 1.524 . S
C1002 H1021 0.913 . S
C1003 H979 0.950 . S
C1003 C1002 1.524 . S
C1003 C1004 1.415 . S
C1004 H980 0.950 . S
C1004 C999 1.363 . S
C1004 C1003 1.415 . S
C1005 H981 0.951 . S
C1005 C1006 1.366 . S
C1005 C1007 1.388 . S
C1006 C1005 1.366 . S
C1006 C1010 1.385 . S
C1007 H982 0.951 . S
C1007 C1005 1.388 . S
C1007 C1008 1.366 . S
C1008 C1007 1.366 . S
C1008 C1009 1.414 . S
C1008 C1011 1.499 . S
C1009 H983 0.950 . S
C1009 C1008 1.414 . S
C1009 C1010 1.374 . S
C1010 H984 0.950 . S
C1010 C1006 1.385 . S
C1010 C1009 1.374 . S
C1011 C1008 1.499 . S
C1011 C1012 1.373 . S
C1011 C1013 1.389 . S
C1012 H985 0.950 . S
C1012 C998 1.377 . S
C1012 C1011 1.373 . S
C1013 C997 1.377 . S
C1013 C1011 1.389 . S
C1013 C1014 1.524 . S
C1014 C1013 1.524 . S
C1014 C1015 1.397 . S
C1014 C1019 1.363 . S
C1015 H986 0.950 . S
C1015 C1014 1.397 . S
C1015 C1016 1.334 . S
C1016 H987 0.950 . S
C1016 C1015 1.334 . S
C1016 C1017 1.287 . S
C1017 C1016 1.287 . S
C1017 C1018 1.524 . S
C1017 H1020 0.999 . S
C1018 H988 0.950 . S
C1018 C1017 1.524 . S
C1018 C1019 1.415 . S
C1019 H989 0.950 . S
C1019 C1014 1.363 . S
C1019 C1018 1.415 . S
H1020 C1017 0.999 . S
H1021 C1002 0.913 . S
H1022 C1040 0.951 . S
H1023 C1042 0.951 . S
H1024 C1044 0.950 . S
H1025 C1045 0.950 . S
H1026 C1047 0.950 . S
H1027 C1050 0.950 . S
H1028 C1051 0.950 . S
H1029 C1053 0.950 . S
H1030 C1054 0.950 . S
H1031 C1055 0.951 . S
H1032 C1057 0.951 . S
H1033 C1059 0.950 . S
H1034 C1060 0.950 . S
H1035 C1062 0.950 . S
H1036 C1065 0.950 . S
H1037 C1066 0.950 . S
H1038 C1068 0.950 . S
H1039 C1069 0.950 . S
C1040 H1022 0.951 . S
C1040 C1041 1.366 . S
C1040 C1042 1.388 . S
C1041 C1040 1.366 . S
C1041 C1045 1.385 . S
C1042 H1023 0.951 . S
C1042 C1040 1.388 . S
C1042 C1043 1.366 . S
C1043 C1042 1.366 . S
C1043 C1044 1.414 . S
C1043 C1046 1.499 . S
C1044 H1024 0.950 . S
C1044 C1043 1.414 . S
C1044 C1045 1.374 . S
C1045 H1025 0.950 . S
C1045 C1041 1.385 . S
C1045 C1044 1.374 . S
C1046 C1043 1.499 . S
C1046 C1047 1.373 . S
C1046 C1048 1.389 . S
C1047 H1026 0.950 . S
C1047 C1046 1.373 . S
C1047 C1063 1.377 . S
C1048 C1046 1.389 . S
C1048 C1049 1.524 . S
C1048 C1062 1.377 . S
C1049 C1048 1.524 . S
C1049 C1050 1.397 . S
C1049 C1054 1.363 . S
C1050 H1027 0.950 . S
C1050 C1049 1.397 . S
C1050 C1051 1.334 . S
C1051 H1028 0.950 . S
C1051 C1050 1.334 . S
C1051 C1052 1.287 . S
C1052 C1051 1.287 . S
C1052 C1053 1.524 . S
C1052 H1071 0.913 . S
C1053 H1029 0.950 . S
C1053 C1052 1.524 . S
C1053 C1054 1.415 . S
C1054 H1030 0.950 . S
C1054 C1049 1.363 . S
C1054 C1053 1.415 . S
C1055 H1031 0.951 . S
C1055 C1056 1.366 . S
C1055 C1057 1.388 . S
C1056 C1055 1.366 . S
C1056 C1060 1.385 . S
C1057 H1032 0.951 . S
C1057 C1055 1.388 . S
C1057 C1058 1.366 . S
C1058 C1057 1.366 . S
C1058 C1059 1.414 . S
C1058 C1061 1.499 . S
C1059 H1033 0.950 . S
C1059 C1058 1.414 . S
C1059 C1060 1.374 . S
C1060 H1034 0.950 . S
C1060 C1056 1.385 . S
C1060 C1059 1.374 . S
C1061 C1058 1.499 . S
C1061 C1062 1.373 . S
C1061 C1063 1.389 . S
C1062 H1035 0.950 . S
C1062 C1048 1.377 . S
C1062 C1061 1.373 . S
C1063 C1047 1.377 . S
C1063 C1061 1.389 . S
C1063 C1064 1.524 . S
C1064 C1063 1.524 . S
C1064 C1065 1.397 . S
C1064 C1069 1.363 . S
C1065 H1036 0.950 . S
C1065 C1064 1.397 . S
C1065 C1066 1.334 . S
C1066 H1037 0.950 . S
C1066 C1065 1.334 . S
C1066 C1067 1.287 . S
C1067 C1066 1.287 . S
C1067 C1068 1.524 . S
C1067 H1070 0.999 . S
C1068 H1038 0.950 . S
C1068 C1067 1.524 . S
C1068 C1069 1.415 . S
C1069 H1039 0.950 . S
C1069 C1064 1.363 . S
C1069 C1068 1.415 . S
H1070 C1067 0.999 . S
H1071 C1052 0.913 . S
H1072 C1090 0.951 . S
H1073 C1092 0.951 . S
H1074 C1094 0.950 . S
H1075 C1095 0.950 . S
H1076 C1097 0.950 . S
H1077 C1100 0.950 . S
H1078 C1101 0.950 . S
H1079 C1103 0.950 . S
H1080 C1104 0.950 . S
H1081 C1105 0.951 . S
H1082 C1107 0.951 . S
H1083 C1109 0.950 . S
H1084 C1110 0.950 . S
H1085 C1112 0.950 . S
H1086 C1115 0.950 . S
H1087 C1116 0.950 . S
H1088 C1118 0.950 . S
H1089 C1119 0.950 . S
C1090 H1072 0.951 . S
C1090 C1091 1.366 . S
C1090 C1092 1.388 . S
C1091 C1090 1.366 . S
C1091 C1095 1.385 . S
C1092 H1073 0.951 . S
C1092 C1090 1.388 . S
C1092 C1093 1.366 . S
C1093 C1092 1.366 . S
C1093 C1094 1.414 . S
C1093 C1096 1.499 . S
C1094 H1074 0.950 . S
C1094 C1093 1.414 . S
C1094 C1095 1.374 . S
C1095 H1075 0.950 . S
C1095 C1091 1.385 . S
C1095 C1094 1.374 . S
C1096 C1093 1.499 . S
C1096 C1097 1.373 . S
C1096 C1098 1.389 . S
C1097 H1076 0.950 . S
C1097 C1096 1.373 . S
C1097 C1113 1.377 . S
C1098 C1096 1.389 . S
C1098 C1099 1.524 . S
C1098 C1112 1.377 . S
C1099 C1098 1.524 . S
C1099 C1100 1.397 . S
C1099 C1104 1.363 . S
C1100 H1077 0.950 . S
C1100 C1099 1.397 . S
C1100 C1101 1.334 . S
C1101 H1078 0.950 . S
C1101 C1100 1.334 . S
C1101 C1102 1.287 . S
C1102 C1101 1.287 . S
C1102 C1103 1.524 . S
C1102 H1121 0.913 . S
C1103 H1079 0.950 . S
C1103 C1102 1.524 . S
C1103 C1104 1.415 . S
C1104 H1080 0.950 . S
C1104 C1099 1.363 . S
C1104 C1103 1.415 . S
C1105 H1081 0.951 . S
C1105 C1106 1.366 . S
C1105 C1107 1.388 . S
C1106 C1105 1.366 . S
C1106 C1110 1.385 . S
C1107 H1082 0.951 . S
C1107 C1105 1.388 . S
C1107 C1108 1.366 . S
C1108 C1107 1.366 . S
C1108 C1109 1.414 . S
C1108 C1111 1.499 . S
C1109 H1083 0.950 . S
C1109 C1108 1.414 . S
C1109 C1110 1.374 . S
C1110 H1084 0.950 . S
C1110 C1106 1.385 . S
C1110 C1109 1.374 . S
C1111 C1108 1.499 . S
C1111 C1112 1.373 . S
C1111 C1113 1.389 . S
C1112 H1085 0.950 . S
C1112 C1098 1.377 . S
C1112 C1111 1.373 . S
C1113 C1097 1.377 . S
C1113 C1111 1.389 . S
C1113 C1114 1.524 . S
C1114 C1113 1.524 . S
C1114 C1115 1.397 . S
C1114 C1119 1.363 . S
C1115 H1086 0.950 . S
C1115 C1114 1.397 . S
C1115 C1116 1.334 . S
C1116 H1087 0.950 . S
C1116 C1115 1.334 . S
C1116 C1117 1.287 . S
C1117 C1116 1.287 . S
C1117 C1118 1.524 . S
C1117 H1120 0.999 . S
C1118 H1088 0.950 . S
C1118 C1117 1.524 . S
C1118 C1119 1.415 . S
C1119 H1089 0.950 . S
C1119 C1114 1.363 . S
C1119 C1118 1.415 . S
H1120 C1117 0.999 . S
H1121 C1102 0.913 . S
H1122 C1140 0.951 . S
H1123 C1142 0.951 . S
H1124 C1144 0.950 . S
H1125 C1145 0.950 . S
H1126 C1147 0.950 . S
H1127 C1150 0.950 . S
H1128 C1151 0.950 . S
H1129 C1153 0.950 . S
H1130 C1154 0.950 . S
H1131 C1155 0.951 . S
H1132 C1157 0.951 . S
H1133 C1159 0.950 . S
H1134 C1160 0.950 . S
H1135 C1162 0.950 . S
H1136 C1165 0.950 . S
H1137 C1166 0.950 . S
H1138 C1168 0.950 . S
H1139 C1169 0.950 . S
C1140 H1122 0.951 . S
C1140 C1141 1.366 . S
C1140 C1142 1.388 . S
C1141 C1140 1.366 . S
C1141 C1145 1.385 . S
C1142 H1123 0.951 . S
C1142 C1140 1.388 . S
C1142 C1143 1.366 . S
C1143 C1142 1.366 . S
C1143 C1144 1.414 . S
C1143 C1146 1.499 . S
C1144 H1124 0.950 . S
C1144 C1143 1.414 . S
C1144 C1145 1.374 . S
C1145 H1125 0.950 . S
C1145 C1141 1.385 . S
C1145 C1144 1.374 . S
C1146 C1143 1.499 . S
C1146 C1147 1.373 . S
C1146 C1148 1.389 . S
C1147 H1126 0.950 . S
C1147 C1146 1.373 . S
C1147 C1163 1.377 . S
C1148 C1146 1.389 . S
C1148 C1149 1.524 . S
C1148 C1162 1.377 . S
C1149 C1148 1.524 . S
C1149 C1150 1.397 . S
C1149 C1154 1.363 . S
C1150 H1127 0.950 . S
C1150 C1149 1.397 . S
C1150 C1151 1.334 . S
C1151 H1128 0.950 . S
C1151 C1150 1.334 . S
C1151 C1152 1.287 . S
C1152 C1151 1.287 . S
C1152 C1153 1.524 . S
C1152 H1171 0.913 . S
C1153 H1129 0.950 . S
C1153 C1152 1.524 . S
C1153 C1154 1.415 . S
C1154 H1130 0.950 . S
C1154 C1149 1.363 . S
C1154 C1153 1.415 . S
C1155 H1131 0.951 . S
C1155 C1156 1.366 . S
C1155 C1157 1.388 . S
C1156 C1155 1.366 . S
C1156 C1160 1.385 . S
C1157 H1132 0.951 . S
C1157 C1155 1.388 . S
C1157 C1158 1.366 . S
C1158 C1157 1.366 . S
C1158 C1159 1.414 . S
C1158 C1161 1.499 . S
C1159 H1133 0.950 . S
C1159 C1158 1.414 . S
C1159 C1160 1.374 . S
C1160 H1134 0.950 . S
C1160 C1156 1.385 . S
C1160 C1159 1.374 . S
C1161 C1158 1.499 . S
C1161 C1162 1.373 . S
C1161 C1163 1.389 . S
C1162 H1135 0.950 . S
C1162 C1148 1.377 . S
C1162 C1161 1.373 . S
C1163 C1147 1.377 . S
C1163 C1161 1.389 . S
C1163 C1164 1.524 . S
C1164 C1163 1.524 . S
C1164 C1165 1.397 . S
C1164 C1169 1.363 . S
C1165 H1136 0.950 . S
C1165 C1164 1.397 . S
C1165 C1166 1.334 . S
C1166 H1137 0.950 . S
C1166 C1165 1.334 . S
C1166 C1167 1.287 . S
C1167 C1166 1.287 . S
C1167 C1168 1.524 . S
C1167 H1170 0.999 . S
C1168 H1138 0.950 . S
C1168 C1167 1.524 . S
C1168 C1169 1.415 . S
C1169 H1139 0.950 . S
C1169 C1164 1.363 . S
C1169 C1168 1.415 . S
H1170 C1167 0.999 . S
H1171 C1152 0.913 . S
H1172 C1190 0.951 . S
H1173 C1192 0.951 . S
H1174 C1194 0.950 . S
H1175 C1195 0.950 . S
H1176 C1197 0.950 . S
H1177 C1200 0.950 . S
H1178 C1201 0.950 . S
H1179 C1203 0.950 . S
H1180 C1204 0.950 . S
H1181 C1205 0.951 . S
H1182 C1207 0.951 . S
H1183 C1209 0.950 . S
H1184 C1210 0.950 . S
H1185 C1212 0.950 . S
H1186 C1215 0.950 . S
H1187 C1216 0.950 . S
H1188 C1218 0.950 . S
H1189 C1219 0.950 . S
C1190 H1172 0.951 . S
C1190 C1191 1.366 . S
C1190 C1192 1.388 . S
C1191 C1190 1.366 . S
C1191 C1195 1.385 . S
C1192 H1173 0.951 . S
C1192 C1190 1.388 . S
C1192 C1193 1.366 . S
C1193 C1192 1.366 . S
C1193 C1194 1.414 . S
C1193 C1196 1.499 . S
C1194 H1174 0.950 . S
C1194 C1193 1.414 . S
C1194 C1195 1.374 . S
C1195 H1175 0.950 . S
C1195 C1191 1.385 . S
C1195 C1194 1.374 . S
C1196 C1193 1.499 . S
C1196 C1197 1.373 . S
C1196 C1198 1.389 . S
C1197 H1176 0.950 . S
C1197 C1196 1.373 . S
C1197 C1213 1.377 . S
C1198 C1196 1.389 . S
C1198 C1199 1.524 . S
C1198 C1212 1.377 . S
C1199 C1198 1.524 . S
C1199 C1200 1.397 . S
C1199 C1204 1.363 . S
C1200 H1177 0.950 . S
C1200 C1199 1.397 . S
C1200 C1201 1.334 . S
C1201 H1178 0.950 . S
C1201 C1200 1.334 . S
C1201 C1202 1.287 . S
C1202 C1201 1.287 . S
C1202 C1203 1.524 . S
C1202 H1221 0.913 . S
C1203 H1179 0.950 . S
C1203 C1202 1.524 . S
C1203 C1204 1.415 . S
C1204 H1180 0.950 . S
C1204 C1199 1.363 . S
C1204 C1203 1.415 . S
C1205 H1181 0.951 . S
C1205 C1206 1.366 . S
C1205 C1207 1.388 . S
C1206 C1205 1.366 . S
C1206 C1210 1.385 . S
C1207 H1182 0.951 . S
C1207 C1205 1.388 . S
C1207 C1208 1.366 . S
C1208 C1207 1.366 . S
C1208 C1209 1.414 . S
C1208 C1211 1.499 . S
C1209 H1183 0.950 . S
C1209 C1208 1.414 . S
C1209 C1210 1.374 . S
C1210 H1184 0.950 . S
C1210 C1206 1.385 . S
C1210 C1209 1.374 . S
C1211 C1208 1.499 . S
C1211 C1212 1.373 . S
C1211 C1213 1.389 . S
C1212 H1185 0.950 . S
C1212 C1198 1.377 . S
C1212 C1211 1.373 . S
C1213 C1197 1.377 . S
C1213 C1211 1.389 . S
C1213 C1214 1.524 . S
C1214 C1213 1.524 . S
C1214 C1215 1.397 . S
C1214 C1219 1.363 . S
C1215 H1186 0.950 . S
C1215 C1214 1.397 . S
C1215 C1216 1.334 . S
C1216 H1187 0.950 . S
C1216 C1215 1.334 . S
C1216 C1217 1.287 . S
C1217 C1216 1.287 . S
C1217 C1218 1.524 . S
C1217 H1220 0.999 . S
C1218 H1188 0.950 . S
C1218 C1217 1.524 . S
C1218 C1219 1.415 . S
C1219 H1189 0.950 . S
C1219 C1214 1.363 . S
C1219 C1218 1.415 . S
H1220 C1217 0.999 . S
H1221 C1202 0.913 . S
H1222 C1240 0.951 . S
H1223 C1242 0.951 . S
H1224 C1244 0.950 . S
H1225 C1245 0.950 . S
H1226 C1247 0.950 . S
H1227 C1250 0.950 . S
H1228 C1251 0.950 . S
H1229 C1253 0.950 . S
H1230 C1254 0.950 . S
H1231 C1255 0.951 . S
H1232 C1257 0.951 . S
H1233 C1259 0.950 . S
H1234 C1260 0.950 . S
H1235 C1262 0.950 . S
H1236 C1265 0.950 . S
H1237 C1266 0.950 . S
H1238 C1268 0.950 . S
H1239 C1269 0.950 . S
C1240 H1222 0.951 . S
C1240 C1241 1.366 . S
C1240 C1242 1.388 . S
C1241 C1240 1.366 . S
C1241 C1245 1.385 . S
C1242 H1223 0.951 . S
C1242 C1240 1.388 . S
C1242 C1243 1.366 . S
C1243 C1242 1.366 . S
C1243 C1244 1.414 . S
C1243 C1246 1.499 . S
C1244 H1224 0.950 . S
C1244 C1243 1.414 . S
C1244 C1245 1.374 . S
C1245 H1225 0.950 . S
C1245 C1241 1.385 . S
C1245 C1244 1.374 . S
C1246 C1243 1.499 . S
C1246 C1247 1.373 . S
C1246 C1248 1.389 . S
C1247 H1226 0.950 . S
C1247 C1246 1.373 . S
C1247 C1263 1.377 . S
C1248 C1246 1.389 . S
C1248 C1249 1.524 . S
C1248 C1262 1.377 . S
C1249 C1248 1.524 . S
C1249 C1250 1.397 . S
C1249 C1254 1.363 . S
C1250 H1227 0.950 . S
C1250 C1249 1.397 . S
C1250 C1251 1.334 . S
C1251 H1228 0.950 . S
C1251 C1250 1.334 . S
C1251 C1252 1.287 . S
C1252 C1251 1.287 . S
C1252 C1253 1.524 . S
C1252 H1271 0.913 . S
C1253 H1229 0.950 . S
C1253 C1252 1.524 . S
C1253 C1254 1.415 . S
C1254 H1230 0.950 . S
C1254 C1249 1.363 . S
C1254 C1253 1.415 . S
C1255 H1231 0.951 . S
C1255 C1256 1.366 . S
C1255 C1257 1.388 . S
C1256 C1255 1.366 . S
C1256 C1260 1.385 . S
C1257 H1232 0.951 . S
C1257 C1255 1.388 . S
C1257 C1258 1.366 . S
C1258 C1257 1.366 . S
C1258 C1259 1.414 . S
C1258 C1261 1.499 . S
C1259 H1233 0.950 . S
C1259 C1258 1.414 . S
C1259 C1260 1.374 . S
C1260 H1234 0.950 . S
C1260 C1256 1.385 . S
C1260 C1259 1.374 . S
C1261 C1258 1.499 . S
C1261 C1262 1.373 . S
C1261 C1263 1.389 . S
C1262 H1235 0.950 . S
C1262 C1248 1.377 . S
C1262 C1261 1.373 . S
C1263 C1247 1.377 . S
C1263 C1261 1.389 . S
C1263 C1264 1.524 . S
C1264 C1263 1.524 . S
C1264 C1265 1.397 . S
C1264 C1269 1.363 . S
C1265 H1236 0.950 . S
C1265 C1264 1.397 . S
C1265 C1266 1.334 . S
C1266 H1237 0.950 . S
C1266 C1265 1.334 . S
C1266 C1267 1.287 . S
C1267 C1266 1.287 . S
C1267 C1268 1.524 . S
C1267 H1270 0.999 . S
C1268 H1238 0.950 . S
C1268 C1267 1.524 . S
C1268 C1269 1.415 . S
C1269 H1239 0.950 . S
C1269 C1264 1.363 . S
C1269 C1268 1.415 . S
H1270 C1267 0.999 . S
H1271 C1252 0.913 . S
H1272 C1290 0.951 . S
H1273 C1292 0.951 . S
H1274 C1294 0.950 . S
H1275 C1295 0.950 . S
H1276 C1297 0.950 . S
H1277 C1300 0.950 . S
H1278 C1301 0.950 . S
H1279 C1303 0.950 . S
H1280 C1304 0.950 . S
H1281 C1305 0.951 . S
H1282 C1307 0.951 . S
H1283 C1309 0.950 . S
H1284 C1310 0.950 . S
H1285 C1312 0.950 . S
H1286 C1315 0.950 . S
H1287 C1316 0.950 . S
H1288 C1318 0.950 . S
H1289 C1319 0.950 . S
C1290 H1272 0.951 . S
C1290 C1291 1.366 . S
C1290 C1292 1.388 . S
C1291 C1290 1.366 . S
C1291 C1295 1.385 . S
C1292 H1273 0.951 . S
C1292 C1290 1.388 . S
C1292 C1293 1.366 . S
C1293 C1292 1.366 . S
C1293 C1294 1.414 . S
C1293 C1296 1.499 . S
C1294 H1274 0.950 . S
C1294 C1293 1.414 . S
C1294 C1295 1.374 . S
C1295 H1275 0.950 . S
C1295 C1291 1.385 . S
C1295 C1294 1.374 . S
C1296 C1293 1.499 . S
C1296 C1297 1.373 . S
C1296 C1298 1.389 . S
C1297 H1276 0.950 . S
C1297 C1296 1.373 . S
C1297 C1313 1.377 . S
C1298 C1296 1.389 . S
C1298 C1299 1.524 . S
C1298 C1312 1.377 . S
C1299 C1298 1.524 . S
C1299 C1300 1.397 . S
C1299 C1304 1.363 . S
C1300 H1277 0.950 . S
C1300 C1299 1.397 . S
C1300 C1301 1.334 . S
C1301 H1278 0.950 . S
C1301 C1300 1.334 . S
C1301 C1302 1.287 . S
C1302 C1301 1.287 . S
C1302 C1303 1.524 . S
C1302 H1321 0.913 . S
C1303 H1279 0.950 . S
C1303 C1302 1.524 . S
C1303 C1304 1.415 . S
C1304 H1280 0.950 . S
C1304 C1299 1.363 . S
C1304 C1303 1.415 . S
C1305 H1281 0.951 . S
C1305 C1306 1.366 . S
C1305 C1307 1.388 . S
C1306 C1305 1.366 . S
C1306 C1310 1.385 . S
C1307 H1282 0.951 . S
C1307 C1305 1.388 . S
C1307 C1308 1.366 . S
C1308 C1307 1.366 . S
C1308 C1309 1.414 . S
C1308 C1311 1.499 . S
C1309 H1283 0.950 . S
C1309 C1308 1.414 . S
C1309 C1310 1.374 . S
C1310 H1284 0.950 . S
C1310 C1306 1.385 . S
C1310 C1309 1.374 . S
C1311 C1308 1.499 . S
C1311 C1312 1.373 . S
C1311 C1313 1.389 . S
C1312 H1285 0.950 . S
C1312 C1298 1.377 . S
C1312 C1311 1.373 . S
C1313 C1297 1.377 . S
C1313 C1311 1.389 . S
C1313 C1314 1.524 . S
C1314 C1313 1.524 . S
C1314 C1315 1.397 . S
C1314 C1319 1.363 . S
C1315 H1286 0.950 . S
C1315 C1314 1.397 . S
C1315 C1316 1.334 . S
C1316 H1287 0.950 . S
C1316 C1315 1.334 . S
C1316 C1317 1.287 . S
C1317 C1316 1.287 . S
C1317 C1318 1.524 . S
C1317 H1320 0.999 . S
C1318 H1288 0.950 . S
C1318 C1317 1.524 . S
C1318 C1319 1.415 . S
C1319 H1289 0.950 . S
C1319 C1314 1.363 . S
C1319 C1318 1.415 . S
H1320 C1317 0.999 . S
H1321 C1302 0.913 . S
H1322 C1340 0.951 . S
H1323 C1342 0.951 . S
H1324 C1344 0.950 . S
H1325 C1345 0.950 . S
H1326 C1347 0.950 . S
H1327 C1350 0.950 . S
H1328 C1351 0.950 . S
H1329 C1353 0.950 . S
H1330 C1354 0.950 . S
H1331 C1355 0.951 . S
H1332 C1357 0.951 . S
H1333 C1359 0.950 . S
H1334 C1360 0.950 . S
H1335 C1362 0.950 . S
H1336 C1365 0.950 . S
H1337 C1366 0.950 . S
H1338 C1368 0.950 . S
H1339 C1369 0.950 . S
C1340 H1322 0.951 . S
C1340 C1341 1.366 . S
C1340 C1342 1.388 . S
C1341 C1340 1.366 . S
C1341 C1345 1.385 . S
C1342 H1323 0.951 . S
C1342 C1340 1.388 . S
C1342 C1343 1.366 . S
C1343 C1342 1.366 . S
C1343 C1344 1.414 . S
C1343 C1346 1.499 . S
C1344 H1324 0.950 . S
C1344 C1343 1.414 . S
C1344 C1345 1.374 . S
C1345 H1325 0.950 . S
C1345 C1341 1.385 . S
C1345 C1344 1.374 . S
C1346 C1343 1.499 . S
C1346 C1347 1.373 . S
C1346 C1348 1.389 . S
C1347 H1326 0.950 . S
C1347 C1346 1.373 . S
C1347 C1363 1.377 . S
C1348 C1346 1.389 . S
C1348 C1349 1.524 . S
C1348 C1362 1.377 . S
C1349 C1348 1.524 . S
C1349 C1350 1.397 . S
C1349 C1354 1.363 . S
C1350 H1327 0.950 . S
C1350 C1349 1.397 . S
C1350 C1351 1.334 . S
C1351 H1328 0.950 . S
C1351 C1350 1.334 . S
C1351 C1352 1.287 . S
C1352 C1351 1.287 . S
C1352 C1353 1.524 . S
C1352 H1371 0.913 . S
C1353 H1329 0.950 . S
C1353 C1352 1.524 . S
C1353 C1354 1.415 . S
C1354 H1330 0.950 . S
C1354 C1349 1.363 . S
C1354 C1353 1.415 . S
C1355 H1331 0.951 . S
C1355 C1356 1.366 . S
C1355 C1357 1.388 . S
C1356 C1355 1.366 . S
C1356 C1360 1.385 . S
C1357 H1332 0.951 . S
C1357 C1355 1.388 . S
C1357 C1358 1.366 . S
C1358 C1357 1.366 . S
C1358 C1359 1.414 . S
C1358 C1361 1.499 . S
C1359 H1333 0.950 . S
C1359 C1358 1.414 . S
C1359 C1360 1.374 . S
C1360 H1334 0.950 . S
C1360 C1356 1.385 . S
C1360 C1359 1.374 . S
C1361 C1358 1.499 . S
C1361 C1362 1.373 . S
C1361 C1363 1.389 . S
C1362 H1335 0.950 . S
C1362 C1348 1.377 . S
C1362 C1361 1.373 . S
C1363 C1347 1.377 . S
C1363 C1361 1.389 . S
C1363 C1364 1.524 . S
C1364 C1363 1.524 . S
C1364 C1365 1.397 . S
C1364 C1369 1.363 . S
C1365 H1336 0.950 . S
C1365 C1364 1.397 . S
C1365 C1366 1.334 . S
C1366 H1337 0.950 . S
C1366 C1365 1.334 . S
C1366 C1367 1.287 . S
C1367 C1366 1.287 . S
C1367 C1368 1.524 . S
C1367 H1370 0.999 . S
C1368 H1338 0.950 . S
C1368 C1367 1.524 . S
C1368 C1369 1.415 . S
C1369 H1339 0.950 . S
C1369 C1364 1.363 . S
C1369 C1368 1.415 . S
H1370 C1367 0.999 . S
H1371 C1352 0.913 . S
C191 C71 1.416 . S
C206 C104 1.353 . S
C256 C112 1.252 . S
C241 C81 1.335 . S
C306 C116 1.343 . S
C291 C49 1.414 . S
C341 C59 1.333 . S
C356 C92 1.242 . S
C406 C133 1.327 . S
C391 C27 1.394 . S
C456 C167 1.366 . S
C441 C38 1.429 . S
C491 C5 1.392 . S
C506 C155 1.316 . S
C541 C16 1.425 . S
C556 C137 1.353 . S
C606 C91 1.285 . S
C591 C15 1.410 . S
C656 C125 1.307 . S
C641 C4 1.437 . S
C706 C129 1.283 . S
C691 C37 1.412 . S
C756 C107 1.303 . S
C741 C26 1.437 . S
C806 C146 1.380 . S
C791 C60 1.490 . S
C841 C48 1.499 . S
C856 C154 1.369 . S
C906 C170 1.378 . S
C891 C82 1.493 . S
C941 C70 1.499 . S
C956 C150 1.365 . S
C1006 C95 1.329 . S
C991 C10 1.484 . S
C1056 C113 1.386 . S
C1041 C21 1.548 . S
C1091 C32 1.477 . S
C1106 C128 1.329 . S
C1156 C108 1.387 . S
C1141 C43 1.543 . S
C1206 C134 1.413 . S
C1191 C54 1.587 . S
C1241 C65 1.523 . S
C1256 C158 1.360 . S
C1291 C76 1.580 . S
C1306 C171 1.413 . S
C1341 C87 1.515 . S
C1356 C149 1.359 . S
