# Generated by pormake.
# Topology zzz, (3,6)-cn, num edge types: 1
# Building blocks:
#     Node 0, Type 0, BuildingBlock: ESEHIV_clean_linker_0, # of connection points: 3
#     Node 1, Type 0, BuildingBlock: ESEHIV_clean_linker_0, # of connection points: 3
#     Node 2, Type 0, BuildingBlock: ESEHIV_clean_linker_0, # of connection points: 3
#     Node 3, Type 0, BuildingBlock: ESEHIV_clean_linker_0, # of connection points: 3
#     Node 4, Type 0, BuildingBlock: ESEHIV_clean_linker_0, # of connection points: 3
#     Node 5, Type 0, BuildingBlock: ESEHIV_clean_linker_0, # of connection points: 3
#     Node 6, Type 0, BuildingBlock: ESEHIV_clean_linker_0, # of connection points: 3
#     Node 7, Type 0, BuildingBlock: ESEHIV_clean_linker_0, # of connection points: 3
#     Node 8, Type 1, BuildingBlock: BETDIP_clean_sbu_0, # of connection points: 6
#     Node 9, Type 1, BuildingBlock: BETDIP_clean_sbu_0, # of connection points: 6
#     Node 10, Type 1, BuildingBlock: BETDIP_clean_sbu_0, # of connection points: 6
#     Node 11, Type 1, BuildingBlock: BETDIP_clean_sbu_0, # of connection points: 6
#     Edge 12, Type (0, 1), BuildingBlock: ZUJKAS_clean_linker_0, # of connection points: 2
#     Edge 13, Type (0, 1), BuildingBlock: ZUJKAS_clean_linker_0, # of connection points: 2
#     Edge 14, Type (0, 1), BuildingBlock: ZUJKAS_clean_linker_0, # of connection points: 2
#     Edge 15, Type (0, 1), BuildingBlock: ZUJKAS_clean_linker_0, # of connection points: 2
#     Edge 16, Type (0, 1), BuildingBlock: ZUJKAS_clean_linker_0, # of connection points: 2
#     Edge 17, Type (0, 1), BuildingBlock: ZUJKAS_clean_linker_0, # of connection points: 2
#     Edge 18, Type (0, 1), BuildingBlock: ZUJKAS_clean_linker_0, # of connection points: 2
#     Edge 19, Type (0, 1), BuildingBlock: ZUJKAS_clean_linker_0, # of connection points: 2
#     Edge 20, Type (0, 1), BuildingBlock: ZUJKAS_clean_linker_0, # of connection points: 2
#     Edge 21, Type (0, 1), BuildingBlock: ZUJKAS_clean_linker_0, # of connection points: 2
#     Edge 22, Type (0, 1), BuildingBlock: ZUJKAS_clean_linker_0, # of connection points: 2
#     Edge 23, Type (0, 1), BuildingBlock: ZUJKAS_clean_linker_0, # of connection points: 2
#     Edge 24, Type (0, 1), BuildingBlock: ZUJKAS_clean_linker_0, # of connection points: 2
#     Edge 25, Type (0, 1), BuildingBlock: ZUJKAS_clean_linker_0, # of connection points: 2
#     Edge 26, Type (0, 1), BuildingBlock: ZUJKAS_clean_linker_0, # of connection points: 2
#     Edge 27, Type (0, 1), BuildingBlock: ZUJKAS_clean_linker_0, # of connection points: 2
#     Edge 28, Type (0, 1), BuildingBlock: ZUJKAS_clean_linker_0, # of connection points: 2
#     Edge 29, Type (0, 1), BuildingBlock: ZUJKAS_clean_linker_0, # of connection points: 2
#     Edge 30, Type (0, 1), BuildingBlock: ZUJKAS_clean_linker_0, # of connection points: 2
#     Edge 31, Type (0, 1), BuildingBlock: ZUJKAS_clean_linker_0, # of connection points: 2
#     Edge 32, Type (0, 1), BuildingBlock: ZUJKAS_clean_linker_0, # of connection points: 2
#     Edge 33, Type (0, 1), BuildingBlock: ZUJKAS_clean_linker_0, # of connection points: 2
#     Edge 34, Type (0, 1), BuildingBlock: ZUJKAS_clean_linker_0, # of connection points: 2
#     Edge 35, Type (0, 1), BuildingBlock: ZUJKAS_clean_linker_0, # of connection points: 2
# Relax obj value: 0.438
# Max RMSD: 0.264
# Mean RMSD: 0.241
data_MOF--net-zzz--node1-BETDIP_clean_sbu_0--node2-ESEHIV_clean_linker_0--edge1-ZUJKAS_clean_linker_0
_symmetry_space_group_name_H-M    P1
_symmetry_Int_Tables_number       1
_symmetry_cell_setting            triclinic
loop_
_symmetry_equiv_pos_as_xyz
'x, y, z'
_cell_length_a     60.348121
_cell_length_b     60.42708
_cell_length_c     18.855745
_cell_angle_alpha  89.913729
_cell_angle_beta   89.94307
_cell_angle_gamma 90.02298
loop_
_atom_site_label
_atom_site_type_symbol
_atom_site_fract_x
_atom_site_fract_y
_atom_site_fract_z
_atom_type_partial_charge
H0 H 0.77926 0.48026 0.19917 0.0
H1 H 0.71345 0.48575 0.11646 0.0
H2 H 0.725 0.49674 0.33915 0.0
C3 C 0.7618 0.48346 0.20786 0.0
C4 C 0.75418 0.48847 0.27664 0.0
C5 C 0.74721 0.48237 0.15018 0.0
C6 C 0.72474 0.48635 0.16119 0.0
C7 C 0.71649 0.49145 0.22862 0.0
C8 C 0.73127 0.49287 0.28679 0.0
H9 H 0.04905 0.76721 0.27972 0.0
H10 H 0.04969 0.70617 0.16337 0.0
H11 H 0.99862 0.71839 0.31854 0.0
C12 C 0.04239 0.75083 0.26986 0.0
C13 C 0.02359 0.74406 0.30797 0.0
C14 C 0.05179 0.73754 0.21684 0.0
C15 C 0.04247 0.71671 0.2037 0.0
C16 C 0.02327 0.70964 0.23934 0.0
C17 C 0.01353 0.72357 0.2911 0.0
H18 H 0.7352 0.04103 0.29881 0.0
H19 H 0.79806 0.0413 0.19147 0.0
H20 H 0.78203 0.98897 0.33842 0.0
C21 C 0.75156 0.03412 0.29041 0.0
C22 C 0.7573 0.01478 0.32725 0.0
C23 C 0.76588 0.04369 0.24026 0.0
C24 C 0.78668 0.03396 0.22926 0.0
C25 C 0.79266 0.01417 0.26349 0.0
C26 C 0.77771 1.00432 0.3121 0.0
H27 H 0.45719 0.72901 0.34092 0.0
H28 H 0.51269 0.77372 0.33672 0.0
H29 H 0.45498 0.78646 0.20763 0.0
C30 C 0.46451 0.74451 0.32342 0.0
C31 C 0.45351 0.7573 0.27265 0.0
C32 C 0.48581 0.75011 0.34668 0.0
C33 C 0.49606 0.76943 0.31999 0.0
C34 C 0.48451 0.78324 0.27181 0.0
C35 C 0.46339 0.77678 0.24793 0.0
H36 H 0.22821 0.53672 0.1572 0.0
H37 H 0.2879 0.53745 0.27958 0.0
H38 H 0.28388 0.49704 0.09112 0.0
C39 C 0.24511 0.5311 0.16506 0.0
C40 C 0.25453 0.51627 0.11654 0.0
C41 C 0.25704 0.53869 0.22369 0.0
C42 C 0.27888 0.53177 0.23329 0.0
C43 C 0.2889 0.51678 0.18616 0.0
C44 C 0.27647 0.50866 0.12782 0.0
H45 H 0.02692 0.22028 0.17545 0.0
H46 H 0.02592 0.28378 0.27536 0.0
H47 H 0.02029 0.27926 0.04765 0.0
C48 C 0.02672 0.23819 0.17081 0.0
C49 C 0.02426 0.24801 0.10374 0.0
C50 C 0.02717 0.25105 0.23236 0.0
C51 C 0.02598 0.27399 0.22711 0.0
C52 C 0.02361 0.28446 0.16123 0.0
C53 C 0.02284 0.27143 0.0987 0.0
H54 H 0.27196 0.05594 0.1459 0.0
H55 H 0.20997 0.05267 0.25585 0.0
H56 H 0.22008 0.01352 0.06738 0.0
C57 C 0.25493 0.05019 0.14818 0.0
C58 C 0.24745 0.0349 0.0976 0.0
C59 C 0.24167 0.05623 0.20588 0.0
C60 C 0.22003 0.04822 0.2103 0.0
C61 C 0.21184 0.0331 0.16036 0.0
C62 C 0.22586 0.02587 0.10461 0.0
H63 H 0.54998 0.26573 0.11619 0.0
H64 H 0.49502 0.22054 0.12931 0.0
H65 H 0.55425 0.20907 0.25242 0.0
C66 C 0.54303 0.25025 0.13532 0.0
C67 C 0.55472 0.23787 0.1856 0.0
C68 C 0.52155 0.24433 0.11484 0.0
C69 C 0.51179 0.22506 0.14383 0.0
C70 C 0.524 0.21163 0.19144 0.0
C71 C 0.54532 0.21843 0.21249 0.0
Tb72 Tb 0.01848 0.98669 0.76655 0.0
Tb73 Tb 0.9884 1.00216 0.65989 0.0
C74 C 0.04132 0.9772 0.87362 0.0
C75 C 0.05755 0.95967 0.88873 0.0
C76 C 0.05636 0.94824 0.95318 0.0
C77 C 0.07004 0.93003 0.96558 0.0
C78 C 0.08533 0.92298 0.91378 0.0
C79 C 0.08715 0.93513 0.8504 0.0
C80 C 0.0733 0.95324 0.8378 0.0
C81 C 0.037 0.98888 0.63931 0.0
C82 C 0.99917 0.95068 0.66784 0.0
C83 C 0.96435 0.01373 0.55828 0.0
C84 C 0.95177 0.03447 0.55186 0.0
C85 C 0.95423 0.04736 0.49061 0.0
C86 C 0.94928 0.06991 0.49246 0.0
C87 C 0.94207 0.07983 0.55592 0.0
C88 C 0.93718 0.06642 0.61454 0.0
C89 C 0.94181 0.04383 0.61232 0.0
C90 C 0.97039 1.00002 0.78843 0.0
C91 C 0.00889 0.03843 0.75367 0.0
O92 O 0.02084 0.97059 0.86508 0.0
O93 O 0.04719 0.99194 0.8264 0.0
O94 O 0.02376 1.00288 0.66546 0.0
O95 O 0.04096 0.97381 0.68617 0.0
O96 O 0.00741 0.9541 0.73176 0.0
O97 O 0.9932 0.96757 0.62745 0.0
O98 O 0.98587 0.01637 0.55866 0.0
O99 O 0.95775 1.00003 0.60773 0.0
O100 O 0.98312 0.98581 0.76103 0.0
O101 O 0.96734 0.01569 0.74309 0.0
O102 O 1.0012 0.03454 0.68947 0.0
O103 O 0.0135 0.02169 0.79659 0.0
H104 H 0.04425 0.95289 0.99294 0.0
H105 H 0.0678 0.92085 0.01442 0.0
H106 H 0.09886 0.93031 0.80971 0.0
H107 H 0.07455 0.9618 0.78745 0.0
H108 H 0.96194 0.0405 0.44362 0.0
H109 H 0.95338 0.07993 0.4466 0.0
H110 H 0.93152 0.0737 0.66381 0.0
H111 H 0.93938 0.03421 0.66009 0.0
Tb112 Tb 0.51195 0.0129 0.79523 0.0
Tb113 Tb 0.49803 0.98411 0.68185 0.0
C114 C 0.5308 0.03151 0.8979 0.0
C115 C 0.55035 0.04588 0.90504 0.0
C116 C 0.56987 0.04144 0.86724 0.0
C117 C 0.58817 0.05539 0.87347 0.0
C118 C 0.58736 0.07402 0.91797 0.0
C119 C 0.56768 0.07861 0.95513 0.0
C120 C 0.5493 0.06467 0.94847 0.0
C121 C 0.4972 0.03465 0.68244 0.0
C122 C 0.54807 0.99528 0.68127 0.0
C123 C 0.4764 0.9671 0.58252 0.0
C124 C 0.45328 0.97121 0.56153 0.0
C125 C 0.44883 0.97895 0.49288 0.0
C126 C 0.4284 0.98863 0.47744 0.0
C127 C 0.4122 0.99071 0.53059 0.0
C128 C 0.4159 0.98117 0.59728 0.0
C129 C 0.43629 0.97146 0.61273 0.0
C130 C 0.51348 0.96272 0.79401 0.0
C131 C 0.46255 1.00233 0.79104 0.0
O132 O 0.53441 0.01089 0.87975 0.0
O133 O 0.5142 0.04019 0.86337 0.0
O134 O 0.50923 0.01763 0.68242 0.0
O135 O 0.49388 0.04052 0.74741 0.0
O136 O 0.54405 1.00562 0.74216 0.0
O137 O 0.53185 0.98635 0.64422 0.0
O138 O 0.4896 0.98408 0.57404 0.0
O139 O 0.47941 0.95733 0.6437 0.0
O140 O 0.50089 0.97938 0.79466 0.0
O141 O 0.51722 0.95719 0.72877 0.0
O142 O 0.46676 0.99813 0.72358 0.0
O143 O 0.47918 1.00463 0.83561 0.0
H144 H 0.57113 0.02699 0.83376 0.0
H145 H 0.60324 0.05109 0.84541 0.0
H146 H 0.5666 0.09284 0.98982 0.0
H147 H 0.53429 0.06847 0.97761 0.0
H148 H 0.46169 0.97897 0.45273 0.0
H149 H 0.42588 0.99588 0.42549 0.0
H150 H 0.40343 0.98225 0.63853 0.0
H151 H 0.43917 0.96553 0.66616 0.0
Tb152 Tb 0.48632 0.50566 0.79418 0.0
Tb153 Tb 0.51354 0.48712 0.65983 0.0
C154 C 0.47495 0.52139 0.91117 0.0
C155 C 0.45869 0.53829 0.93096 0.0
C156 C 0.45381 0.54207 1.00246 0.0
C157 C 0.43907 0.55888 0.02155 0.0
C158 C 0.42904 0.57217 0.96926 0.0
C159 C 0.4335 0.5678 0.89742 0.0
C160 C 0.44821 0.55098 0.87844 0.0
C161 C 0.46063 0.49961 0.67958 0.0
C162 C 0.50313 0.53885 0.67503 0.0
C163 C 0.52495 0.47161 0.54252 0.0
C164 C 0.54175 0.45537 0.52169 0.0
C165 C 0.54637 0.45184 0.44987 0.0
C166 C 0.56185 0.43584 0.42976 0.0
C167 C 0.57294 0.42312 0.48132 0.0
C168 C 0.56867 0.42723 0.55346 0.0
C169 C 0.5532 0.44323 0.57347 0.0
C170 C 0.53923 0.49352 0.77413 0.0
C171 C 0.49706 0.45393 0.77962 0.0
O172 O 0.49206 0.52867 0.87477 0.0
O173 O 0.46657 0.50309 0.88507 0.0
O174 O 0.48089 0.49585 0.68812 0.0
O175 O 0.45372 0.50719 0.73997 0.0
O176 O 0.49669 0.53629 0.74199 0.0
O177 O 0.50775 0.52191 0.63252 0.0
O178 O 0.50833 0.46373 0.57993 0.0
O179 O 0.53279 0.49022 0.56806 0.0
O180 O 0.5189 0.49684 0.76584 0.0
O181 O 0.54626 0.48615 0.7136 0.0
O182 O 0.50355 0.45645 0.71266 0.0
O183 O 0.4921 0.47088 0.82173 0.0
H184 H 0.46174 0.53235 0.04355 0.0
H185 H 0.43627 0.56204 0.07736 0.0
H186 H 0.42592 0.57764 0.85596 0.0
H187 H 0.45173 0.54813 0.82282 0.0
H188 H 0.53771 0.46116 0.40935 0.0
H189 H 0.56448 0.43286 0.37376 0.0
H190 H 0.57705 0.41783 0.59438 0.0
H191 H 0.54991 0.44591 0.6293 0.0
Tb192 Tb 1.00138 0.48335 0.73521 0.0
Tb193 Tb 0.01267 0.51562 0.63276 0.0
C194 C 0.98052 0.46053 0.82353 0.0
C195 C 0.95761 0.45268 0.81577 0.0
C196 C 0.9425 0.45628 0.87084 0.0
C197 C 0.9198 0.45469 0.85796 0.0
C198 C 0.91192 0.44946 0.78981 0.0
C199 C 0.92706 0.44415 0.73614 0.0
C200 C 0.94977 0.4459 0.74886 0.0
C201 C 0.01684 0.46573 0.61606 0.0
C202 C 0.96413 0.50043 0.62932 0.0
C203 C 0.02983 0.53965 0.53841 0.0
C204 C 0.04795 0.55584 0.53721 0.0
C205 C 0.06487 0.55509 0.58805 0.0
C206 C 0.08261 0.56986 0.58423 0.0
C207 C 0.08361 0.58583 0.52991 0.0
C208 C 0.06591 0.5873 0.48154 0.0
C209 C 0.04827 0.57235 0.48505 0.0
C210 C 0.99744 0.53318 0.75276 0.0
C211 C 0.05001 0.49799 0.74139 0.0
O212 O 0.98238 0.48203 0.82835 0.0
O213 O 0.99499 0.45211 0.77968 0.0
O214 O 1.00353 0.48177 0.62059 0.0
O215 O 0.02162 0.45907 0.67939 0.0
O216 O 0.96863 0.49344 0.69403 0.0
O217 O 0.98056 0.50671 0.58776 0.0
O218 O 0.03544 0.51901 0.54933 0.0
O219 O 0.01256 0.54541 0.57561 0.0
O220 O 0.01081 0.51728 0.74708 0.0
O221 O 0.99253 0.53987 0.68977 0.0
O222 O 0.0456 0.50715 0.67886 0.0
O223 O 0.0338 0.48962 0.77994 0.0
H224 H 0.94817 0.46174 0.92244 0.0
H225 H 0.90835 0.45851 0.90052 0.0
H226 H 0.92135 0.44017 0.68322 0.0
H227 H 0.96109 0.44339 0.70496 0.0
H228 H 0.06471 0.54274 0.6296 0.0
H229 H 0.09603 0.56798 0.62181 0.0
H230 H 0.066 0.5996 0.4397 0.0
H231 H 0.03509 0.57341 0.4462 0.0
H232 H 0.17304 0.05573 0.16325 0.0
H233 H 0.13966 0.04498 0.22854 0.0
H234 H 0.16679 0.97974 0.26049 0.0
H235 H 0.20051 0.99069 0.19612 0.0
H236 H 0.10678 0.01242 0.2288 0.0
H237 H 0.16237 1.00408 0.4619 0.0
H238 H 0.17158 0.01581 0.37899 0.0
H239 H 0.16924 0.9863 0.38893 0.0
C240 C 0.17147 0.0388 0.18164 0.0
C241 C 0.18934 0.02401 0.17431 0.0
C242 C 0.15243 0.03271 0.2195 0.0
C243 C 0.15089 0.01174 0.2512 0.0
C244 C 0.16777 0.99619 0.23783 0.0
H245 H 0.06638 0.95962 0.58493 0.0
H246 H 0.09213 0.9648 0.48642 0.0
C247 C 0.18689 1.0023 0.19994 0.0
C248 C 0.13301 0.00724 0.30429 0.0
H249 H 0.12459 0.99644 0.48042 0.0
C250 C 0.11066 0.00883 0.28376 0.0
C251 C 0.13801 1.00291 0.37644 0.0
C252 C 0.16157 1.00236 0.4033 0.0
C253 C 0.09327 1.00577 0.33298 0.0
C254 C 0.09833 1.00133 0.40495 0.0
C255 C 0.12066 0.99976 0.4253 0.0
C256 C 0.08092 0.99782 0.46036 0.0
C257 C 0.06965 0.00694 0.3073 0.0
C258 C 0.06573 0.01458 0.47859 0.0
C259 C 0.05084 0.01162 0.53536 0.0
C260 C 0.05103 0.99192 0.57518 0.0
C261 C 0.06586 0.97505 0.5556 0.0
C262 C 0.08062 0.97797 0.49915 0.0
H263 H 0.06855 1.00502 0.24882 0.0
H264 H 0.05935 0.99395 0.33288 0.0
H265 H 0.06258 0.0233 0.32144 0.0
H266 H 0.06585 0.03021 0.45045 0.0
H267 H 0.03966 0.02495 0.54932 0.0
H268 H 0.48531 0.20671 0.26658 0.0
H269 H 0.47465 0.17485 0.34074 0.0
H270 H 0.53184 0.13895 0.26648 0.0
H271 H 0.54251 0.17063 0.19281 0.0
H272 H 0.49016 0.11276 0.28227 0.0
H273 H 0.51394 0.16151 0.52075 0.0
H274 H 0.49449 0.17401 0.46058 0.0
H275 H 0.5225 0.16934 0.43244 0.0
C276 C 0.49521 0.19178 0.26464 0.0
C277 C 0.51474 0.19115 0.22402 0.0
C278 C 0.48923 0.17366 0.30743 0.0
C279 C 0.50261 0.1546 0.30981 0.0
C280 C 0.52129 0.15346 0.26565 0.0
H281 H 0.5175 0.03303 0.55223 0.0
H282 H 0.51662 0.06133 0.45899 0.0
C283 C 0.52736 0.17156 0.22355 0.0
C284 C 0.49847 0.13664 0.36246 0.0
H285 H 0.5025 0.1249 0.53929 0.0
C286 C 0.49267 0.11541 0.33858 0.0
C287 C 0.50181 0.14009 0.43587 0.0
C288 C 0.50867 0.16239 0.46437 0.0
C289 C 0.49004 0.09757 0.38618 0.0
C290 C 0.49397 0.10088 0.45955 0.0
C291 C 0.49945 0.12225 0.48327 0.0
C292 C 0.49305 0.08252 0.51286 0.0
C293 C 0.48276 0.07547 0.35732 0.0
C294 C 0.48033 0.08492 0.5749 0.0
C295 C 0.48115 0.06894 0.62871 0.0
C296 C 0.49465 0.05012 0.62179 0.0
C297 C 0.50682 0.04728 0.55885 0.0
C298 C 0.50619 0.06342 0.50523 0.0
H299 H 0.47352 0.0774 0.30675 0.0
H300 H 0.4976 0.0652 0.34632 0.0
H301 H 0.47208 0.0665 0.39579 0.0
H302 H 0.47008 0.09944 0.5824 0.0
H303 H 0.47155 0.07157 0.67654 0.0
H304 H 0.32438 0.54344 0.20809 0.0
H305 H 0.35835 0.53406 0.27036 0.0
H306 H 0.34005 0.46504 0.26671 0.0
H307 H 0.30519 0.47472 0.20678 0.0
H308 H 0.34974 0.4753 0.39378 0.0
H309 H 0.41764 0.50992 0.23462 0.0
H310 H 0.39762 0.53128 0.24893 0.0
H311 H 0.39005 0.50692 0.19909 0.0
C312 C 0.32794 0.52615 0.21836 0.0
C313 C 0.31207 0.50982 0.20241 0.0
C314 C 0.34755 0.52074 0.25377 0.0
C315 C 0.35217 0.49875 0.27306 0.0
C316 C 0.33705 0.48214 0.25244 0.0
H317 H 0.47184 0.48372 0.54607 0.0
H318 H 0.44709 0.47977 0.44284 0.0
C319 C 0.3172 0.48762 0.21737 0.0
C320 C 0.37087 0.49388 0.32318 0.0
H321 H 0.42418 0.5088 0.36326 0.0
C322 C 0.36614 0.48224 0.38602 0.0
C323 C 0.39259 0.50241 0.31354 0.0
C324 C 0.39979 0.51309 0.24492 0.0
C325 C 0.38182 0.48028 0.44087 0.0
C326 C 0.40268 0.49089 0.43431 0.0
C327 C 0.40805 0.50111 0.3695 0.0
C328 C 0.41817 0.49306 0.49596 0.0
C329 C 0.37563 0.46702 0.50584 0.0
C330 C 0.41049 0.50231 0.55965 0.0
C331 C 0.42445 0.50428 0.61834 0.0
C332 C 0.44669 0.49743 0.61496 0.0
C333 C 0.45474 0.48882 0.55067 0.0
C334 C 0.4406 0.48665 0.49161 0.0
H335 H 0.36373 0.45364 0.49236 0.0
H336 H 0.39042 0.45946 0.53117 0.0
H337 H 0.36741 0.47803 0.54485 0.0
H338 H 0.39358 0.50815 0.56408 0.0
H339 H 0.41775 0.51128 0.66667 0.0
H340 H 0.98757 0.30569 0.21084 0.0
H341 H 0.98724 0.34242 0.26297 0.0
H342 H 0.05207 0.3552 0.17506 0.0
H343 H 0.05286 0.31749 0.12664 0.0
H344 H 0.05415 0.36444 0.30316 0.0
H345 H 0.977 0.40437 0.21859 0.0
H346 H 0.96995 0.37788 0.25444 0.0
H347 H 0.98704 0.37965 0.17586 0.0
C348 C 1.00127 0.31675 0.19953 0.0
C349 C 0.02007 0.30881 0.1635 0.0
C350 C 1.00111 0.3379 0.2296 0.0
C351 C 0.01952 0.35204 0.22287 0.0
C352 C 0.03758 0.34479 0.18134 0.0
H353 H 0.0077 0.47538 0.47629 0.0
H354 H 0.01056 0.45039 0.37372 0.0
C355 C 0.03791 0.32333 0.15237 0.0
C356 C 0.02114 0.37253 0.26779 0.0
H357 H 0.99034 0.41498 0.33671 0.0
C358 C 0.0403 0.37572 0.30903 0.0
C359 C 1.00346 0.38785 0.27542 0.0
C360 C 0.98336 0.38736 0.22795 0.0
C361 C 0.04174 0.3927 0.35989 0.0
C362 C 0.02311 0.40643 0.37295 0.0
C363 C 1.00449 0.40421 0.32866 0.0
C364 C 0.0222 0.42221 0.43437 0.0
C365 C 0.06338 0.39566 0.39881 0.0
C366 C 0.02755 0.41489 0.50309 0.0
C367 C 0.0264 0.42925 0.56114 0.0
C368 C 0.0192 0.45122 0.55274 0.0
C369 C 0.01344 0.45858 0.48439 0.0
C370 C 0.015 0.44425 0.42578 0.0
H371 H 0.07762 0.39072 0.36494 0.0
H372 H 0.06588 0.41306 0.41584 0.0
H373 H 0.06353 0.3848 0.44632 0.0
H374 H 0.03227 0.39785 0.51236 0.0
H375 H 0.03065 0.4229 0.61313 0.0
H376 H 0.79933 0.97424 0.19865 0.0
H377 H 0.83264 0.96301 0.1327 0.0
H378 H 0.86684 0.02101 0.20842 0.0
H379 H 0.83383 0.03199 0.27457 0.0
H380 H 0.84864 0.98743 0.02508 0.0
H381 H 0.91613 0.9762 0.21911 0.0
H382 H 0.88729 0.97638 0.24485 0.0
H383 H 0.90209 1.002 0.23257 0.0
C384 C 0.81432 0.98399 0.20375 0.0
C385 C 0.81408 1.00385 0.24242 0.0
C386 C 0.83329 0.9777 0.16547 0.0
C387 C 0.85245 0.99103 0.16578 0.0
C388 C 0.8526 0.01011 0.20832 0.0
H389 H 0.9404 0.02911 0.83967 0.0
H390 H 0.91283 0.02344 0.93258 0.0
C391 C 0.83367 0.01641 0.2462 0.0
C392 C 0.87091 0.98706 0.11431 0.0
H393 H 0.92748 0.98584 0.09922 0.0
C394 C 0.86583 0.9866 0.0416 0.0
C395 C 0.89345 0.98583 0.13524 0.0
C396 C 0.90005 0.98489 0.21228 0.0
C397 C 0.88257 0.9863 0.98964 0.0
C398 C 0.90508 0.98667 0.01053 0.0
C399 C 0.91024 0.98578 0.0831 0.0
C400 C 0.92316 0.99009 0.95761 0.0
C401 C 0.87601 0.98624 0.91244 0.0
C402 C 0.93871 0.97342 0.94202 0.0
C403 C 0.95464 0.97662 0.88828 0.0
C404 C 0.9553 0.99659 0.84983 0.0
C405 C 0.94025 0.01346 0.86778 0.0
C406 C 0.92441 0.01024 0.92087 0.0
H407 H 0.85881 0.98012 0.90501 0.0
H408 H 0.8769 1.00338 0.89144 0.0
H409 H 0.88745 0.97578 0.88076 0.0
H410 H 0.93813 0.95777 0.97002 0.0
H411 H 0.96605 0.96335 0.87576 0.0
H412 H 0.46649 0.82441 0.27229 0.0
H413 H 0.47794 0.85642 0.20139 0.0
H414 H 0.5353 0.82045 0.12887 0.0
H415 H 0.52383 0.78824 0.2002 0.0
H416 H 0.51936 0.88248 0.18973 0.0
H417 H 0.49776 0.83482 0.9469 0.0
H418 H 0.48868 0.82641 0.03411 0.0
H419 H 0.51692 0.82214 0.00765 0.0
C420 C 0.48184 0.82353 0.2426 0.0
C421 C 0.49427 0.80384 0.24168 0.0
C422 C 0.48836 0.84183 0.20207 0.0
C423 C 0.5073 0.84076 0.15906 0.0
C424 C 0.5205 0.82157 0.16123 0.0
H425 H 0.53981 0.92623 0.799 0.0
H426 H 0.54128 0.89782 0.8915 0.0
C427 C 0.51407 0.80326 0.20243 0.0
C428 C 0.51187 0.85895 0.10765 0.0
H429 H 0.50905 0.87158 0.93122 0.0
C430 C 0.51732 0.88009 0.13311 0.0
C431 C 0.50913 0.85585 0.03382 0.0
C432 C 0.50266 0.83366 1.00357 0.0
C433 C 0.52012 0.8982 0.08671 0.0
C434 C 0.51673 0.89525 0.01291 0.0
C435 C 0.51168 0.87396 0.98759 0.0
C436 C 0.51767 0.91393 0.96081 0.0
C437 C 0.52694 0.92022 0.11732 0.0
C438 C 0.50415 0.93275 0.9689 0.0
C439 C 0.50352 0.9492 0.91629 0.0
C440 C 0.51607 0.94695 0.85386 0.0
C441 C 0.52993 0.92841 0.84649 0.0
C442 C 0.53075 0.91212 0.89935 0.0
H443 H 0.53594 0.91809 0.16826 0.0
H444 H 0.53769 0.92957 0.08002 0.0
H445 H 0.51191 0.93022 0.12819 0.0
H446 H 0.49343 0.93436 0.01466 0.0
H447 H 0.49253 0.9632 0.92321 0.0
H448 H 0.69382 0.53046 0.23384 0.0
H449 H 0.65633 0.53587 0.18684 0.0
H450 H 0.64818 0.46507 0.17261 0.0
H451 H 0.68496 0.45986 0.22258 0.0
H452 H 0.64746 0.52651 0.05985 0.0
H453 H 0.58619 0.47962 0.21455 0.0
H454 H 0.61335 0.48576 0.24937 0.0
H455 H 0.60892 0.46168 0.19456 0.0
C456 C 0.68339 0.51613 0.22521 0.0
C457 C 0.69215 0.49474 0.23327 0.0
C458 C 0.66205 0.51918 0.19707 0.0
C459 C 0.64914 0.5009 0.17579 0.0
C460 C 0.65725 0.47953 0.18998 0.0
H461 H 0.58317 0.48627 0.78395 0.0
H462 H 0.60729 0.49037 0.88646 0.0
C463 C 0.67838 0.47651 0.21898 0.0
C464 C 0.62957 0.50392 0.12764 0.0
H465 H 0.57855 0.48259 0.08671 0.0
C466 C 0.63222 0.51727 0.06702 0.0
C467 C 0.60933 0.49224 0.13635 0.0
C468 C 0.60423 0.47925 0.20274 0.0
C469 C 0.61608 0.5181 0.01338 0.0
C470 C 0.5969 0.50466 0.01876 0.0
C471 C 0.59343 0.49253 0.08147 0.0
C472 C 0.58147 0.50169 0.95742 0.0
C473 C 0.62 0.53318 0.95073 0.0
C474 C 0.55855 0.50573 0.96328 0.0
C475 C 0.54451 0.50309 0.90418 0.0
C476 C 0.55318 0.49634 0.83842 0.0
C477 C 0.57597 0.49181 0.83349 0.0
C478 C 0.58986 0.4943 0.89215 0.0
H479 H 0.63035 0.54764 0.96585 0.0
H480 H 0.62905 0.52396 0.90892 0.0
H481 H 0.60416 0.53934 0.92816 0.0
H482 H 0.55157 0.51114 0.01326 0.0
H483 H 0.52698 0.50625 0.91002 0.0
H484 H 0.04192 0.66882 0.24862 0.0
H485 H 0.03197 0.63616 0.17867 0.0
H486 H 0.97365 0.6698 0.10264 0.0
H487 H 0.98368 0.70262 0.17267 0.0
H488 H 0.99347 0.60768 0.16091 0.0
H489 H 0.0121 0.65894 0.92299 0.0
H490 H 0.01966 0.66744 0.01141 0.0
H491 H 0.99145 0.66986 0.98211 0.0
C492 C 0.02651 0.66891 0.21913 0.0
C493 C 0.01347 0.6882 0.21652 0.0
C494 C 0.02091 0.65028 0.17879 0.0
C495 C 1.00228 0.65062 0.13431 0.0
C496 C 0.98826 0.66923 0.1359 0.0
H497 H 0.96981 0.56828 0.76911 0.0
H498 H 0.96899 0.5952 0.8658 0.0
C499 C 0.99381 0.68788 0.17667 0.0
C500 C 0.99903 0.63258 0.08118 0.0
H501 H 1.00142 0.62213 0.90316 0.0
C502 C 0.99506 0.61083 0.1045 0.0
C503 C 1.0013 0.63662 0.00752 0.0
C504 C 1.00654 0.65941 0.97916 0.0
C505 C 0.993 0.59313 0.05617 0.0
C506 C 0.99554 0.59714 0.98248 0.0
C507 C 0.99938 0.61895 0.95941 0.0
C508 C 0.99452 0.57916 0.92789 0.0
C509 C 0.98775 0.57038 0.0846 0.0
C510 C 0.00891 0.56083 0.93045 0.0
C511 C 0.00924 0.54522 0.87522 0.0
C512 C 0.99541 0.54781 0.81577 0.0
C513 C 0.98068 0.56582 0.81413 0.0
C514 C 0.98023 0.58127 0.86942 0.0
H515 H 0.97966 0.57125 0.13748 0.0
H516 H 0.97673 0.56115 0.04794 0.0
H517 H 1.00339 0.56092 0.09071 0.0
H518 H 0.02051 0.559 0.97383 0.0
H519 H 0.02092 0.53163 0.87775 0.0
H520 H 0.99355 0.25655 0.32449 0.0
H521 H 0.98451 0.23317 0.42524 0.0
H522 H 0.04662 0.1985 0.39992 0.0
H523 H 0.05492 0.22115 0.29514 0.0
H524 H 0.0164 0.17119 0.39183 0.0
H525 H 0.99455 0.22012 0.62579 0.0
H526 H 0.97979 0.23189 0.55272 0.0
H527 H 0.00974 0.23214 0.55268 0.0
C528 C 1.00558 0.2444 0.34199 0.0
C529 C 0.0248 0.24039 0.30217 0.0
C530 C 1.00056 0.23121 0.4004 0.0
C531 C 0.01496 0.21414 0.42114 0.0
C532 C 0.03524 0.21157 0.38508 0.0
H533 H 0.9654 0.10069 0.65887 0.0
H534 H 0.98248 0.13717 0.64677 0.0
C535 C 0.03998 0.2244 0.32524 0.0
C536 C 1.00638 0.19616 0.46724 0.0
H537 H 0.97095 0.18656 0.6056 0.0
C538 C 0.00714 0.17458 0.43992 0.0
C539 C 0.99435 0.20024 0.53055 0.0
C540 C 0.99483 0.22237 0.56729 0.0
C541 C 0.99467 0.15756 0.47005 0.0
C542 C 0.98051 0.16236 0.52769 0.0
C543 C 0.9812 0.18327 0.55954 0.0
C544 C 0.96443 0.14566 0.55173 0.0
C545 C 0.99589 0.13475 0.43749 0.0
C546 C 0.9474 0.13933 0.50532 0.0
C547 C 0.93779 0.11844 0.51148 0.0
C548 C 0.94493 0.10391 0.56478 0.0
C549 C 0.95956 0.11164 0.61735 0.0
C550 C 0.96937 0.13246 0.61062 0.0
H551 H 0.0113 0.13251 0.40601 0.0
H552 H 0.9952 0.12169 0.47895 0.0
H553 H 0.98156 0.13238 0.40142 0.0
H554 H 0.94341 0.14947 0.45963 0.0
H555 H 0.92646 0.11286 0.4707 0.0
H556 H 0.24174 0.03984 0.33854 0.0
H557 H 0.26926 0.04711 0.42776 0.0
H558 H 0.2933 0.10293 0.30632 0.0
H559 H 0.2664 0.09432 0.21315 0.0
H560 H 0.32433 0.07827 0.31717 0.0
H561 H 0.29355 0.07839 0.58738 0.0
H562 H 0.27873 0.056 0.54793 0.0
H563 H 0.27491 0.08388 0.51455 0.0
C564 C 0.25217 0.05432 0.3323 0.0
C565 C 0.25224 0.0663 0.26859 0.0
C566 C 0.26791 0.05871 0.38423 0.0
C567 C 0.28366 0.0756 0.37438 0.0
C568 C 0.28155 0.08964 0.31507 0.0
H569 H 0.39777 0.02456 0.61377 0.0
H570 H 0.36874 0.05159 0.5857 0.0
C571 C 0.26618 0.08478 0.26184 0.0
C572 C 0.30505 0.07403 0.41319 0.0
H573 H 0.32502 0.05027 0.56435 0.0
C574 C 0.32451 0.07307 0.37221 0.0
C575 C 0.30611 0.06797 0.48574 0.0
C576 C 0.28715 0.07193 0.5362 0.0
C577 C 0.34369 0.06302 0.39834 0.0
C578 C 0.34311 0.05296 0.46598 0.0
C579 C 0.32503 0.05697 0.51095 0.0
C580 C 0.35974 0.03616 0.48634 0.0
C581 C 0.36391 0.06205 0.35126 0.0
C582 C 0.36355 0.01803 0.44134 0.0
C583 C 0.38012 1.00275 0.45688 0.0
C584 C 0.39278 1.00503 0.51864 0.0
C585 C 0.38809 0.02241 0.56594 0.0
C586 C 0.37166 0.03791 0.54984 0.0
H587 H 0.36508 0.07711 0.31758 0.0
H588 H 0.37939 0.06048 0.38267 0.0
H589 H 0.36254 0.0476 0.31524 0.0
H590 H 0.35393 0.01591 0.39335 0.0
H591 H 0.38329 0.98934 0.42015 0.0
H592 H 0.56071 0.24603 0.32522 0.0
H593 H 0.5841 0.27518 0.37336 0.0
H594 H 0.61633 0.2825 0.17038 0.0
H595 H 0.59217 0.25376 0.12103 0.0
H596 H 0.62711 0.29175 0.3863 0.0
H597 H 0.57816 0.33754 0.1821 0.0
H598 H 0.57308 0.3088 0.20112 0.0
H599 H 0.59705 0.31686 0.15056 0.0
C600 C 0.57349 0.25309 0.29169 0.0
C601 C 0.57436 0.24804 0.21912 0.0
C602 C 0.58687 0.26981 0.31926 0.0
C603 C 0.6014 0.28151 0.27472 0.0
C604 C 0.60478 0.27405 0.20507 0.0
H605 H 0.60353 0.42166 0.37349 0.0
H606 H 0.62077 0.38848 0.32343 0.0
C607 C 0.59109 0.25757 0.17705 0.0
C608 C 0.60857 0.30391 0.29678 0.0
H609 H 0.59418 0.35792 0.27176 0.0
C610 C 0.62046 0.30633 0.3603 0.0
C611 C 0.59989 0.32297 0.2627 0.0
C612 C 0.58622 0.32156 0.19564 0.0
C613 C 0.62246 0.32706 0.39332 0.0
C614 C 0.61211 0.34569 0.36227 0.0
C615 C 0.60212 0.34361 0.2955 0.0
C616 C 0.60741 0.36619 0.40263 0.0
C617 C 0.63473 0.32861 0.46271 0.0
C618 C 0.59473 0.3648 0.46493 0.0
C619 C 0.58477 0.38364 0.49326 0.0
C620 C 0.58713 0.40426 0.45948 0.0
C621 C 0.60115 0.40593 0.40007 0.0
C622 C 0.61119 0.38704 0.37184 0.0
H623 H 0.64866 0.3166 0.46431 0.0
H624 H 0.64135 0.34552 0.47175 0.0
H625 H 0.62327 0.32437 0.50675 0.0
H626 H 0.59098 0.34888 0.48852 0.0
H627 H 0.57387 0.38171 0.5385 0.0
H628 H 0.27201 0.57778 0.28005 0.0
H629 H 0.25275 0.60145 0.36691 0.0
H630 H 0.19865 0.5548 0.37354 0.0
H631 H 0.21759 0.53139 0.2876 0.0
H632 H 0.20857 0.62001 0.34758 0.0
H633 H 0.21281 0.56728 0.5854 0.0
H634 H 0.23274 0.56539 0.51384 0.0
H635 H 0.2067 0.55085 0.50873 0.0
C636 C 0.2561 0.57259 0.30085 0.0
C637 C 0.24615 0.55288 0.27708 0.0
C638 C 0.2452 0.58605 0.35027 0.0
C639 C 0.22453 0.57962 0.37744 0.0
C640 C 0.21482 0.55981 0.35424 0.0
H641 H 0.10342 0.59504 0.40362 0.0
H642 H 0.14128 0.60634 0.38476 0.0
C643 C 0.2255 0.54658 0.30458 0.0
C644 C 0.21161 0.59398 0.42526 0.0
H645 H 0.1772 0.58647 0.56576 0.0
C646 C 0.20224 0.61331 0.39702 0.0
C647 C 0.20398 0.58584 0.4911 0.0
C648 C 0.21481 0.56632 0.5269 0.0
C649 C 0.18298 0.62238 0.42688 0.0
C650 C 0.17281 0.61141 0.48474 0.0
C651 C 0.18452 0.59461 0.5201 0.0
C652 C 0.14849 0.61221 0.49581 0.0
C653 C 0.17264 0.64234 0.39227 0.0
C654 C 0.13944 0.6123 0.56446 0.0
C655 C 0.11751 0.60558 0.57554 0.0
C656 C 0.10438 0.59854 0.51815 0.0
C657 C 0.11286 0.60058 0.44906 0.0
C658 C 0.13466 0.60726 0.43809 0.0
H659 H 0.18567 0.65444 0.37703 0.0
H660 H 0.1641 0.63721 0.34283 0.0
H661 H 0.16051 0.65059 0.42779 0.0
H662 H 0.14979 0.61596 0.60987 0.0
H663 H 0.11131 0.60458 0.62937 0.0
H664 H 0.05712 0.73125 0.07358 0.0
H665 H 0.07936 0.75353 0.99342 0.0
H666 H 0.10696 0.78862 0.17184 0.0
H667 H 0.0864 0.76498 0.25271 0.0
H668 H 0.06776 0.79361 0.98766 0.0
H669 H 0.1572 0.79546 0.03947 0.0
H670 H 0.13985 0.7732 0.0714 0.0
H671 H 0.14299 0.7983 0.12228 0.0
C672 C 0.06881 0.74282 0.09631 0.0
C673 C 0.06944 0.74671 0.16989 0.0
C674 C 0.08151 0.75568 0.05004 0.0
C675 C 0.09473 0.77296 0.07621 0.0
C676 C 0.09719 0.77526 0.14988 0.0
H677 H 0.10362 0.90594 0.03535 0.0
H678 H 0.11283 0.8672 0.0568 0.0
C679 C 0.08493 0.76202 0.19628 0.0
C680 C 0.10101 0.7916 0.02889 0.0
H681 H 0.14041 0.83152 0.00507 0.0
C682 C 0.08393 0.80142 0.98935 0.0
C683 C 0.12204 0.80195 0.03114 0.0
C684 C 0.14157 0.79146 0.06788 0.0
C685 C 0.08655 0.82223 0.95801 0.0
C686 C 0.10702 0.83343 0.96521 0.0
C687 C 0.12471 0.82292 0.99988 0.0
C688 C 0.10871 0.8572 0.94746 0.0
C689 C 0.06666 0.83286 0.92303 0.0
C690 C 0.10479 0.86464 0.87814 0.0
C691 C 0.09886 0.88667 0.86601 0.0
C692 C 0.0972 0.90162 0.923 0.0
C693 C 0.10405 0.89468 0.99074 0.0
C694 C 0.10965 0.8726 1.00293 0.0
H695 H 0.05122 0.82317 0.93128 0.0
H696 H 0.06397 0.84981 0.94401 0.0
H697 H 0.06959 0.83414 0.86507 0.0
H698 H 0.10432 0.85302 0.8345 0.0
H699 H 0.09378 0.89138 0.81306 0.0
H700 H 0.77561 0.05106 0.09944 0.0
H701 H 0.75536 0.0744 0.01754 0.0
H702 H 0.71575 0.09923 0.19069 0.0
H703 H 0.73764 0.07795 0.27401 0.0
H704 H 0.71659 0.06309 0.99653 0.0
H705 H 0.71007 0.15069 0.06623 0.0
H706 H 0.73192 0.13352 0.10172 0.0
H707 H 0.70538 0.13534 0.14597 0.0
C708 C 0.7635 0.06239 0.12111 0.0
C709 C 0.75785 0.06199 0.19362 0.0
C710 C 0.75176 0.07572 0.07369 0.0
C711 C 0.73374 0.08845 0.09731 0.0
C712 C 0.72969 0.08989 0.17055 0.0
H713 H 0.60343 0.08789 0.04522 0.0
H714 H 0.64114 0.09994 0.07009 0.0
C715 C 0.74191 0.07714 0.2183 0.0
C716 C 0.71615 0.09519 0.04655 0.0
H717 H 0.67458 0.13296 0.02558 0.0
C718 C 0.70798 0.07878 1.00076 0.0
C719 C 0.70478 0.11563 0.05137 0.0
C720 C 0.71374 0.13481 0.09355 0.0
C721 C 0.68759 0.08117 0.96643 0.0
C722 C 0.67507 0.10063 0.97763 0.0
C723 C 0.68414 0.11796 0.0177 0.0
C724 C 0.65123 0.101 0.96 0.0
C725 C 0.67866 0.06187 0.92421 0.0
C726 C 0.64407 0.09897 0.88957 0.0
C727 C 0.6225 0.09185 0.87518 0.0
C728 C 0.60782 0.08694 0.93107 0.0
C729 C 0.61432 0.09154 1.00103 0.0
C730 C 0.63589 0.0985 0.01534 0.0
H731 H 0.68963 0.04713 0.92685 0.0
H732 H 0.662 0.05705 0.94395 0.0
H733 H 0.67702 0.06674 0.86771 0.0
H734 H 0.65564 0.10108 0.84615 0.0
H735 H 0.61775 0.08886 0.82064 0.0
H736 H 0.41512 0.74202 0.33267 0.0
H737 H 0.39063 0.71423 0.27956 0.0
H738 H 0.42511 0.7214 0.08033 0.0
H739 H 0.44884 0.74967 0.13219 0.0
H740 H 0.38169 0.70647 0.0622 0.0
H741 H 0.42698 0.65793 0.26846 0.0
H742 H 0.4086 0.67912 0.29965 0.0
H743 H 0.43322 0.68656 0.25138 0.0
C744 C 0.41667 0.73839 0.27664 0.0
C745 C 0.43405 0.74763 0.23669 0.0
C746 C 0.40279 0.72246 0.24647 0.0
C747 C 0.40663 0.7152 0.17683 0.0
C748 C 0.42197 0.72662 0.13437 0.0
H749 H 0.43105 0.61357 0.91225 0.0
H750 H 0.41563 0.64738 0.96125 0.0
C751 C 0.43555 0.74282 0.16406 0.0
C752 C 0.39886 0.6932 0.15291 0.0
H753 H 0.41044 0.63851 0.1775 0.0
C754 C 0.38744 0.69152 0.08827 0.0
C755 C 0.4064 0.67367 0.18702 0.0
C756 C 0.41959 0.67426 0.25516 0.0
C757 C 0.3847 0.67099 0.0545 0.0
C758 C 0.39382 0.6518 0.08597 0.0
C759 C 0.40342 0.65324 0.15349 0.0
C760 C 0.39758 0.63107 0.0458 0.0
C761 C 0.37296 0.67021 0.98404 0.0
C762 C 0.39231 0.61048 0.07615 0.0
C763 C 0.40137 0.59103 0.04852 0.0
C764 C 0.41587 0.59185 0.99015 0.0
C765 C 0.41973 0.6123 0.95669 0.0
C766 C 0.41075 0.63171 0.98444 0.0
H767 H 0.35976 0.68301 0.98137 0.0
H768 H 0.38502 0.6738 0.94107 0.0
H769 H 0.36545 0.65372 0.97422 0.0
H770 H 0.38231 0.60962 0.12383 0.0
H771 H 0.39785 0.57546 0.07481 0.0
H772 H 0.72893 0.45391 0.05348 0.0
H773 H 0.74327 0.44441 0.93558 0.0
H774 H 0.79813 0.48908 0.96706 0.0
H775 H 0.78369 0.49904 0.08373 0.0
H776 H 0.77715 0.48923 0.82258 0.0
H777 H 0.80042 0.40556 0.92409 0.0
H778 H 0.77235 0.41542 0.93132 0.0
H779 H 0.79359 0.42731 0.98577 0.0
C780 C 0.74387 0.46195 0.03467 0.0
C781 C 0.75537 0.47705 0.07805 0.0
C782 C 0.75199 0.45649 0.96746 0.0
C783 C 0.7717 0.46606 0.94288 0.0
C784 C 0.78277 0.48165 0.98509 0.0
H785 H 0.88561 0.48425 0.82001 0.0
H786 H 0.84556 0.4858 0.81445 0.0
C787 C 0.77471 0.48708 0.05207 0.0
C788 C 0.78265 0.4584 0.87739 0.0
H789 H 0.82206 0.42068 0.83365 0.0
C790 C 0.7864 0.47384 0.82305 0.0
C791 C 0.79409 0.43801 0.87661 0.0
C792 C 0.79001 0.4205 0.93232 0.0
C793 C 0.80373 0.47083 0.77449 0.0
C794 C 0.81786 0.45234 0.78247 0.0
C795 C 0.81156 0.43515 0.82848 0.0
C796 C 0.84168 0.45375 0.7641 0.0
C797 C 0.80813 0.48861 0.7201 0.0
C798 C 0.85312 0.4354 0.73653 0.0
C799 C 0.87626 0.43436 0.74107 0.0
C800 C 0.88808 0.45152 0.77406 0.0
C801 C 0.87677 0.47057 0.79599 0.0
C802 C 0.85384 0.47167 0.79116 0.0
H803 H 0.79238 0.49353 0.69404 0.0
H804 H 0.81482 0.50353 0.7469 0.0
H805 H 0.82007 0.48315 0.67887 0.0
H806 H 0.84408 0.42131 0.71602 0.0
H807 H 0.88474 0.4196 0.72311 0.0
H808 H 0.05398 0.23682 0.99948 0.0
H809 H 0.05184 0.2044 0.92084 0.0
H810 H 0.98616 0.19041 0.99939 0.0
H811 H 0.98817 0.22292 0.076 0.0
H812 H 0.04951 0.16293 0.96126 0.0
H813 H 0.97614 0.17801 0.79439 0.0
H814 H 0.98886 0.19968 0.84606 0.0
H815 H 0.96918 0.18102 0.88629 0.0
C816 C 0.03875 0.22736 0.99733 0.0
C817 C 0.02102 0.23276 0.04249 0.0
C818 C 0.0376 0.20863 0.95307 0.0
C819 C 0.0187 0.19488 0.95302 0.0
C820 C 1.00068 0.20089 0.99629 0.0
H821 H 0.01654 0.0527 0.88952 0.0
H822 H 0.01951 0.09065 0.93267 0.0
C823 C 1.00182 0.21956 0.0402 0.0
C824 C 0.01862 0.17311 0.91438 0.0
H825 H 0.98693 0.13974 0.80821 0.0
C826 C 0.03593 0.15803 0.92707 0.0
C827 C 1.00118 0.16655 0.86853 0.0
C828 C 0.98294 0.18228 0.8474 0.0
C829 C 0.03585 0.13654 0.898 0.0
C830 C 0.01758 0.12941 0.85649 0.0
C831 C 1.00076 0.14481 0.8411 0.0
C832 C 0.01546 0.10606 0.82971 0.0
C833 C 0.05558 0.12181 0.91166 0.0
C834 C 0.01124 0.1017 0.75763 0.0
C835 C 0.00908 0.07986 0.73289 0.0
C836 C 0.01118 0.06173 0.77953 0.0
C837 C 0.01515 0.06613 0.85171 0.0
C838 C 0.01703 0.08795 0.8765 0.0
H839 H 0.07078 0.13172 0.92163 0.0
H840 H 0.05241 0.11165 0.95967 0.0
H841 H 0.05878 0.11057 0.86629 0.0
H842 H 0.00981 0.11523 0.72021 0.0
H843 H 1.00589 0.07719 0.67703 0.0
H844 H 0.26667 0.9941 0.08201 0.0
H845 H 0.30163 0.98626 0.01947 0.0
H846 H 0.30135 0.05228 0.93266 0.0
H847 H 0.2667 0.06015 0.99551 0.0
H848 H 0.31849 0.98948 0.8745 0.0
H849 H 0.35793 0.04988 0.05637 0.0
H850 H 0.33043 0.03906 0.07118 0.0
H851 H 0.33486 0.0607 0.00721 0.0
C852 C 0.27362 1.00658 0.04722 0.0
C853 C 0.26382 0.02766 0.04308 0.0
C854 C 0.29373 1.00219 0.01204 0.0
C855 C 0.30442 0.01883 0.97243 0.0
C856 C 0.29367 0.03927 0.96373 0.0
H857 H 0.42517 0.01052 0.71293 0.0
H858 H 0.38682 0.01341 0.75472 0.0
C859 C 0.2737 0.04367 0.99893 0.0
C860 C 0.32759 0.01571 0.94574 0.0
H861 H 0.38034 0.03575 0.96398 0.0
C862 C 0.33202 0.99957 0.89406 0.0
C863 C 0.34541 0.0286 0.97202 0.0
C864 C 0.34206 0.0454 0.03022 0.0
C865 C 0.35363 0.99631 0.86706 0.0
C866 C 0.37133 0.00972 0.89177 0.0
C867 C 0.36688 0.02557 0.94437 0.0
C868 C 0.39465 0.0074 0.86516 0.0
C869 C 0.35735 0.97821 0.81336 0.0
C870 C 0.41214 1.0037 0.91304 0.0
C871 C 0.43412 1.00213 0.8891 0.0
C872 C 0.43921 1.00422 0.81656 0.0
C873 C 0.42176 0.00821 0.76878 0.0
C874 C 0.39977 0.00985 0.79274 0.0
H875 H 0.3439 0.96566 0.81499 0.0
H876 H 0.35761 0.98554 0.75938 0.0
H877 H 0.37344 0.96975 0.82243 0.0
H878 H 0.40878 1.00191 0.9692 0.0
H879 H 0.44712 0.9991 0.92748 0.0
H880 H 0.53003 0.25383 0.97671 0.0
H881 H 0.52011 0.28814 0.91482 0.0
H882 H 0.47826 0.30675 0.0902 0.0
H883 H 0.48815 0.27231 0.15212 0.0
H884 H 0.47833 0.3114 0.87665 0.0
H885 H 0.52908 0.35429 0.08081 0.0
H886 H 0.53037 0.32475 0.06732 0.0
H887 H 0.50723 0.33671 0.1132 0.0
C888 C 0.51791 0.26477 1.0005 0.0
C889 C 0.50956 0.26025 0.06867 0.0
C890 C 0.51242 0.28448 0.96543 0.0
C891 C 0.49872 0.3002 0.99829 0.0
C892 C 0.489 0.29495 0.06405 0.0
H893 H 0.48086 0.44108 0.90947 0.0
H894 H 0.4796 0.40386 0.96007 0.0
C895 C 0.49438 0.27512 0.09897 0.0
C896 C 0.49664 0.32283 0.96728 0.0
H897 H 0.51287 0.37648 0.99256 0.0
C898 C 0.48578 0.32567 0.90208 0.0
C899 C 0.50648 0.34144 1.00026 0.0
C900 C 0.51911 0.33928 0.06899 0.0
C901 C 0.48425 0.34663 0.86945 0.0
C902 C 0.49437 0.36522 0.90196 0.0
C903 C 0.50508 0.36233 0.96749 0.0
C904 C 0.4943 0.38778 0.86901 0.0
C905 C 0.47145 0.34869 0.80109 0.0
C906 C 0.50313 0.39137 0.8009 0.0
C907 C 0.50378 0.41272 0.77148 0.0
C908 C 0.49586 0.43109 0.80983 0.0
C909 C 0.48711 0.42743 0.87816 0.0
C910 C 0.48637 0.40608 0.90731 0.0
H911 H 0.45931 0.33499 0.79494 0.0
H912 H 0.46242 0.36468 0.79832 0.0
H913 H 0.48315 0.34789 0.75576 0.0
H914 H 0.50994 0.37772 0.77083 0.0
H915 H 0.51083 0.41484 0.71907 0.0
H916 H 0.23222 0.47731 0.09687 0.0
H917 H 0.20007 0.47179 0.01878 0.0
H918 H 0.21109 0.53609 0.92589 0.0
H919 H 0.24304 0.54157 1.0039 0.0
H920 H 0.16879 0.53088 0.9831 0.0
H921 H 0.18883 0.46046 0.80551 0.0
H922 H 0.19405 0.45567 0.89814 0.0
H923 H 0.20991 0.47616 0.85124 0.0
C924 C 0.22839 0.48975 0.05733 0.0
C925 C 0.24047 0.50965 0.0553 0.0
C926 C 0.20989 0.48668 0.01299 0.0
C927 C 0.20309 0.50349 0.96597 0.0
C928 C 0.21597 0.52282 0.96127 0.0
H929 H 0.08903 0.51002 0.67491 0.0
H930 H 0.12648 0.51104 0.72613 0.0
C931 C 0.23441 0.52585 0.00531 0.0
C932 C 0.18129 0.50225 0.92826 0.0
H933 H 0.15125 0.47255 0.80702 0.0
C934 C 0.16506 0.51818 0.94432 0.0
C935 C 0.1763 0.48574 0.87743 0.0
C936 C 0.19321 0.46861 0.85639 0.0
C937 C 0.14401 0.51782 0.91218 0.0
C938 C 0.13886 0.50109 0.86246 0.0
C939 C 0.15516 0.48536 0.84525 0.0
C940 C 0.11637 0.49948 0.82981 0.0
C941 C 0.1273 0.53535 0.93163 0.0
C942 C 0.09823 0.49249 0.87073 0.0
C943 C 0.07687 0.4918 0.84164 0.0
C944 C 0.07302 0.49822 0.77082 0.0
C945 C 0.09129 0.50504 0.72961 0.0
C946 C 0.11275 0.50555 0.75874 0.0
H947 H 0.13494 0.5492 0.96166 0.0
H948 H 0.1193 0.54212 0.88322 0.0
H949 H 0.11413 0.52785 0.96506 0.0
H950 H 0.10058 0.48769 0.92559 0.0
H951 H 0.0633 0.48647 0.87521 0.0
H952 H 0.04507 0.75779 0.42586 0.0
H953 H 0.03691 0.7906 0.49704 0.0
H954 H 0.97589 0.79983 0.38215 0.0
H955 H 0.9841 0.76676 0.31053 0.0
H956 H 0.03284 0.83239 0.43026 0.0
H957 H 0.95839 0.81279 0.59249 0.0
H958 H 0.97603 0.79155 0.55551 0.0
H959 H 0.95682 0.80605 0.49968 0.0
C960 C 0.02949 0.76632 0.41764 0.0
C961 C 0.01509 0.75952 0.36323 0.0
C962 C 0.02493 0.78521 0.45797 0.0
C963 C 1.00578 0.79778 0.44524 0.0
C964 C 0.99062 0.79028 0.39383 0.0
H965 H 0.988 0.93822 0.53279 0.0
H966 H 0.98861 0.90112 0.48122 0.0
C967 C 0.99523 0.77128 0.35316 0.0
C968 C 1.00324 0.81989 0.47999 0.0
H969 H 0.97112 0.84996 0.59469 0.0
C970 C 0.01933 0.83618 0.46623 0.0
C971 C 0.98569 0.8249 0.5272 0.0
C972 C 0.96828 0.80791 0.54529 0.0
C973 C 0.01827 0.85726 0.49769 0.0
C974 C 1.00063 0.86236 0.54434 0.0
C975 C 0.9846 0.84607 0.55878 0.0
C976 C 0.99873 0.88468 0.57776 0.0
C977 C 0.03614 0.87398 0.48131 0.0
C978 C 1.00394 0.88783 0.64966 0.0
C979 C 1.00377 0.90916 0.67947 0.0
C980 C 0.99817 0.92777 0.63809 0.0
C981 C 0.99239 0.92438 0.56651 0.0
C982 C 0.99273 0.90313 0.53675 0.0
H983 H 0.05041 0.86644 0.45303 0.0
H984 H 0.02916 0.88727 0.44734 0.0
H985 H 0.04221 0.88177 0.53093 0.0
H986 H 0.00868 0.87385 0.68232 0.0
H987 H 0.0083 0.91107 0.73468 0.0
H988 H 0.73196 0.97724 0.31714 0.0
H989 H 0.69797 0.96916 0.3848 0.0
H990 H 0.71023 0.02595 0.51721 0.0
H991 H 0.7441 0.03389 0.45012 0.0
H992 H 0.69256 0.9893 0.59303 0.0
H993 H 0.64329 0.0087 0.35192 0.0
H994 H 0.66342 0.98702 0.34203 0.0
H995 H 0.67248 0.01487 0.35846 0.0
C996 C 0.72779 0.98746 0.36236 0.0
C997 C 0.74081 1.00602 0.37898 0.0
C998 C 0.70819 0.98306 0.40035 0.0
C999 C 0.70125 0.9972 0.45539 0.0
C1000 C 0.71512 0.01482 0.47501 0.0
H1001 H 0.58438 0.02036 0.71871 0.0
H1002 H 0.62155 0.01959 0.6669 0.0
C1003 C 0.73457 0.01926 0.43696 0.0
C1004 C 0.67892 0.99486 0.48917 0.0
H1005 H 0.6234 0.99894 0.45456 0.0
C1006 C 0.67743 0.99129 0.5627 0.0
C1007 C 0.6591 0.9976 0.44986 0.0
C1008 C 0.65951 1.00244 0.37131 0.0
C1009 C 0.65678 0.99017 0.59771 0.0
C1010 C 0.63696 0.99324 0.55854 0.0
C1011 C 0.63848 0.99657 0.48486 0.0
C1012 C 0.61447 0.99325 0.59252 0.0
C1013 C 0.65644 0.98532 0.6762 0.0
C1014 C 0.59772 0.97915 0.56726 0.0
C1015 C 0.57635 0.9797 0.59656 0.0
C1016 C 0.57109 0.99438 0.65205 0.0
C1017 C 0.58787 0.0085 0.67731 0.0
C1018 C 0.60924 0.00803 0.64767 0.0
H1019 H 0.67183 0.9768 0.69349 0.0
H1020 H 0.65527 1.00114 0.7058 0.0
H1021 H 0.64201 0.97487 0.69083 0.0
H1022 H 0.60117 0.96767 0.52457 0.0
H1023 H 0.56392 0.96858 0.57552 0.0
H1024 H 0.51905 0.72172 0.31141 0.0
H1025 H 0.52772 0.68686 0.37274 0.0
H1026 H 0.48464 0.70555 0.54494 0.0
H1027 H 0.47592 0.74028 0.48362 0.0
H1028 H 0.52587 0.68117 0.58538 0.0
H1029 H 0.47551 0.64053 0.37551 0.0
H1030 H 0.49796 0.65781 0.34579 0.0
H1031 H 0.47475 0.67001 0.39064 0.0
C1032 C 0.51229 0.71882 0.36385 0.0
C1033 C 0.49711 0.73385 0.39335 0.0
C1034 C 0.51698 0.69877 0.39841 0.0
C1035 C 0.50657 0.69344 0.46299 0.0
C1036 C 0.49287 0.70927 0.49525 0.0
H1037 H 0.48986 0.578 0.73623 0.0
H1038 H 0.49195 0.61529 0.68607 0.0
C1039 C 0.48806 0.72922 0.46053 0.0
C1040 C 0.50787 0.67063 0.49303 0.0
H1041 H 0.49041 0.61757 0.46406 0.0
C1042 C 0.51823 0.66722 0.55879 0.0
C1043 C 0.49778 0.65245 0.45847 0.0
C1044 C 0.48571 0.65525 0.38895 0.0
C1045 C 0.51899 0.64607 0.59048 0.0
C1046 C 0.50859 0.62791 0.55643 0.0
C1047 C 0.4984 0.63138 0.49033 0.0
C1048 C 0.50783 0.60522 0.5883 0.0
C1049 C 0.53131 0.64336 0.65952 0.0
C1050 C 0.51544 0.58687 0.54958 0.0
C1051 C 0.51399 0.56544 0.57776 0.0
C1052 C 0.50485 0.56174 0.64552 0.0
C1053 C 0.49719 0.58015 0.68423 0.0
C1054 C 0.49854 0.60158 0.65576 0.0
H1055 H 0.54379 0.65668 0.667 0.0
H1056 H 0.51935 0.64434 0.70416 0.0
H1057 H 0.53985 0.62711 0.66216 0.0
H1058 H 0.52255 0.58913 0.49728 0.0
H1059 H 0.52008 0.55176 0.54624 0.0
H1060 H 0.78492 0.45693 0.30736 0.0
H1061 H 0.81708 0.46008 0.38448 0.0
H1062 H 0.79408 0.52374 0.4566 0.0
H1063 H 0.76194 0.52093 0.37668 0.0
H1064 H 0.83618 0.52633 0.41854 0.0
H1065 H 0.82907 0.45268 0.59044 0.0
H1066 H 0.82657 0.44527 0.49892 0.0
H1067 H 0.80605 0.46299 0.53898 0.0
C1068 C 0.78642 0.47144 0.3407 0.0
C1069 C 0.77082 0.48871 0.33557 0.0
C1070 C 0.80481 0.47313 0.38552 0.0
C1071 C 0.80808 0.49201 0.42762 0.0
C1072 C 0.79198 0.50891 0.42512 0.0
H1073 H 0.92587 0.49444 0.70615 0.0
H1074 H 0.88762 0.49399 0.66279 0.0
C1075 C 0.77347 0.50723 0.37987 0.0
C1076 C 0.82938 0.49487 0.46777 0.0
H1077 H 0.86575 0.46791 0.57732 0.0
C1078 C 0.84246 0.51366 0.454 0.0
C1079 C 0.83767 0.47863 0.5153 0.0
C1080 C 0.82398 0.4589 0.53741 0.0
C1081 C 0.86381 0.51613 0.48328 0.0
C1082 C 0.8728 0.49905 0.52619 0.0
C1083 C 0.85926 0.48082 0.54313 0.0
C1084 C 0.89625 0.4996 0.55283 0.0
C1085 C 0.87638 0.53721 0.4681 0.0
C1086 C 0.91413 0.5026 0.50574 0.0
C1087 C 0.93606 0.50311 0.53052 0.0
C1088 C 0.94078 0.5002 0.60299 0.0
C1089 C 0.92292 0.49676 0.64997 0.0
C1090 C 0.90097 0.49647 0.62521 0.0
H1091 H 0.86491 0.55116 0.45688 0.0
H1092 H 0.88719 0.5419 0.51326 0.0
H1093 H 0.88689 0.53481 0.42041 0.0
H1094 H 0.91118 0.50433 0.44939 0.0
H1095 H 0.94934 0.50551 0.49262 0.0
loop_
_geom_bond_atom_site_label_1
_geom_bond_atom_site_label_2
_geom_bond_distance
_geom_bond_site_symmetry_2
_ccdc_geom_bond_type
H0 C3 0.931 . S
H1 C6 0.928 . S
H2 C8 0.930 . S
C3 H0 0.931 . S
C3 C4 1.413 . S
C3 C5 1.360 . S
C4 C3 1.413 . S
C4 C8 1.429 . S
C5 C3 1.360 . S
C5 C6 1.372 . S
C6 H1 0.928 . S
C6 C5 1.372 . S
C6 C7 1.404 . S
C7 C6 1.404 . S
C7 C8 1.391 . S
C8 H2 0.930 . S
C8 C4 1.429 . S
C8 C7 1.391 . S
H9 C12 0.931 . S
H10 C15 0.928 . S
H11 C17 0.930 . S
C12 H9 0.931 . S
C12 C13 1.413 . S
C12 C14 1.360 . S
C13 C12 1.413 . S
C13 C17 1.429 1_655 S
C14 C12 1.360 . S
C14 C15 1.372 . S
C15 H10 0.928 . S
C15 C14 1.372 . S
C15 C16 1.404 . S
C16 C15 1.404 . S
C16 C17 1.390 1_655 S
C17 H11 0.930 . S
C17 C13 1.429 1_455 S
C17 C16 1.390 1_455 S
H18 C21 0.931 . S
H19 C24 0.928 . S
H20 C26 0.930 . S
C21 H18 0.931 . S
C21 C22 1.413 . S
C21 C23 1.360 . S
C22 C21 1.413 . S
C22 C26 1.429 1_565 S
C23 C21 1.360 . S
C23 C24 1.372 . S
C24 H19 0.928 . S
C24 C23 1.372 . S
C24 C25 1.404 . S
C25 C24 1.404 . S
C25 C26 1.390 1_565 S
C26 H20 0.930 . S
C26 C22 1.429 1_545 S
C26 C25 1.390 1_545 S
H27 C30 0.931 . S
H28 C33 0.928 . S
H29 C35 0.930 . S
C30 H27 0.931 . S
C30 C31 1.413 . S
C30 C32 1.360 . S
C31 C30 1.413 . S
C31 C35 1.429 . S
C32 C30 1.360 . S
C32 C33 1.372 . S
C33 H28 0.928 . S
C33 C32 1.372 . S
C33 C34 1.404 . S
C34 C33 1.404 . S
C34 C35 1.391 . S
C35 H29 0.930 . S
C35 C31 1.429 . S
C35 C34 1.391 . S
H36 C39 0.931 . S
H37 C42 0.928 . S
H38 C44 0.930 1_556 S
C39 H36 0.931 . S
C39 C40 1.413 1_554 S
C39 C41 1.360 . S
C40 C39 1.413 1_556 S
C40 C44 1.429 1_556 S
C41 C39 1.360 . S
C41 C42 1.372 . S
C42 H37 0.928 . S
C42 C41 1.372 . S
C42 C43 1.404 . S
C43 C42 1.404 . S
C43 C44 1.391 . S
C44 H38 0.930 1_554 S
C44 C40 1.429 1_554 S
C44 C43 1.391 . S
H45 C48 0.931 . S
H46 C51 0.928 . S
H47 C53 0.930 1_556 S
C48 H45 0.931 . S
C48 C49 1.413 1_554 S
C48 C50 1.360 . S
C49 C48 1.413 1_556 S
C49 C53 1.429 1_656 S
C50 C48 1.360 . S
C50 C51 1.372 . S
C51 H46 0.928 . S
C51 C50 1.372 . S
C51 C52 1.404 . S
C52 C51 1.404 . S
C52 C53 1.391 1_655 S
C53 H47 0.930 1_554 S
C53 C49 1.429 1_454 S
C53 C52 1.391 1_455 S
H54 C57 0.931 . S
H55 C60 0.928 . S
H56 C62 0.930 1_556 S
C57 H54 0.931 . S
C57 C58 1.413 1_554 S
C57 C59 1.360 . S
C58 C57 1.413 1_556 S
C58 C62 1.429 1_566 S
C59 C57 1.360 . S
C59 C60 1.372 . S
C60 H55 0.928 . S
C60 C59 1.372 . S
C60 C61 1.404 . S
C61 C60 1.404 . S
C61 C62 1.391 1_565 S
C62 H56 0.930 1_554 S
C62 C58 1.429 1_544 S
C62 C61 1.391 1_545 S
H63 C66 0.931 . S
H64 C69 0.928 . S
H65 C71 0.930 . S
C66 H63 0.931 . S
C66 C67 1.413 . S
C66 C68 1.360 1_554 S
C67 C66 1.413 . S
C67 C71 1.429 . S
C68 C66 1.360 1_556 S
C68 C69 1.372 . S
C69 H64 0.928 . S
C69 C68 1.372 . S
C69 C70 1.404 1_556 S
C70 C69 1.404 1_554 S
C70 C71 1.391 . S
C71 H65 0.930 . S
C71 C67 1.429 . S
C71 C70 1.391 . S
Tb72 C74 2.809 . S
Tb72 O92 2.484 . S
Tb72 O93 2.440 . S
Tb72 O94 2.658 1_565 S
Tb72 O95 2.409 . S
Tb72 O96 2.378 . S
Tb72 O100 2.325 1_455 S
Tb72 O103 2.341 1_565 S
Tb73 C83 2.809 . S
Tb73 O94 2.325 1_655 S
Tb73 O97 2.341 1_545 S
Tb73 O98 2.484 . S
Tb73 O99 2.440 . S
Tb73 O100 2.658 1_545 S
Tb73 O101 2.409 . S
Tb73 O102 2.378 . S
C74 Tb72 2.809 . S
C74 C75 1.514 . S
C74 O92 1.248 . S
C74 O93 1.266 . S
C75 C74 1.514 . S
C75 C76 1.359 . S
C75 C80 1.348 . S
C76 C75 1.359 . S
C76 C77 1.380 . S
C76 H104 0.929 1_455 S
C77 C76 1.380 . S
C77 C78 1.347 . S
C77 H105 0.931 1_455 S
C78 C77 1.347 . S
C78 C79 1.369 . S
C79 C78 1.369 . S
C79 C80 1.408 . S
C79 H106 0.930 . S
C80 C75 1.348 . S
C80 C79 1.408 . S
C80 H107 0.930 . S
C81 O94 1.281 1_565 S
C81 O95 1.254 . S
C82 O96 1.236 1_655 S
C82 O97 1.266 . S
C83 Tb73 2.809 . S
C83 C84 1.514 . S
C83 O98 1.248 . S
C83 O99 1.266 . S
C84 C83 1.514 . S
C84 C85 1.359 . S
C84 C89 1.348 . S
C85 C84 1.359 . S
C85 C86 1.380 . S
C85 H108 0.929 1_655 S
C86 C85 1.380 . S
C86 C87 1.347 . S
C86 H109 0.931 1_655 S
C87 C86 1.347 . S
C87 C88 1.369 . S
C88 C87 1.369 . S
C88 C89 1.408 . S
C88 H110 0.930 . S
C89 C84 1.348 . S
C89 C88 1.408 . S
C89 H111 0.930 . S
C90 O100 1.281 1_545 S
C90 O101 1.254 . S
C91 O102 1.236 1_455 S
C91 O103 1.266 . S
O92 Tb72 2.484 . S
O92 C74 1.248 . S
O93 Tb72 2.440 . S
O93 C74 1.266 . S
O94 Tb72 2.658 1_545 S
O94 Tb73 2.325 1_455 S
O94 C81 1.281 1_545 S
O95 Tb72 2.409 . S
O95 C81 1.254 . S
O96 Tb72 2.378 . S
O96 C82 1.236 1_455 S
O97 Tb73 2.341 1_565 S
O97 C82 1.266 . S
O98 Tb73 2.484 . S
O98 C83 1.248 . S
O99 Tb73 2.440 . S
O99 C83 1.266 . S
O100 Tb72 2.325 1_655 S
O100 Tb73 2.658 1_565 S
O100 C90 1.281 1_565 S
O101 Tb73 2.409 . S
O101 C90 1.254 . S
O102 Tb73 2.378 . S
O102 C91 1.236 1_655 S
O103 Tb72 2.341 1_545 S
O103 C91 1.266 . S
H104 C76 0.929 1_655 S
H105 C77 0.931 1_655 S
H106 C79 0.930 . S
H107 C80 0.930 . S
H108 C85 0.929 1_455 S
H109 C86 0.931 1_455 S
H110 C88 0.930 . S
H111 C89 0.930 . S
Tb112 C114 2.809 . S
Tb112 O132 2.484 . S
Tb112 O133 2.440 . S
Tb112 O134 2.658 . S
Tb112 O135 2.409 . S
Tb112 O136 2.378 . S
Tb112 O140 2.325 1_545 S
Tb112 O143 2.341 . S
Tb113 C123 2.809 . S
Tb113 O134 2.325 1_565 S
Tb113 O137 2.341 . S
Tb113 O138 2.484 . S
Tb113 O139 2.440 . S
Tb113 O140 2.658 . S
Tb113 O141 2.409 . S
Tb113 O142 2.378 . S
C114 Tb112 2.809 . S
C114 C115 1.514 . S
C114 O132 1.248 . S
C114 O133 1.266 . S
C115 C114 1.514 . S
C115 C116 1.359 . S
C115 C120 1.348 . S
C116 C115 1.359 . S
C116 C117 1.380 . S
C116 H144 0.929 1_545 S
C117 C116 1.380 . S
C117 C118 1.347 . S
C117 H145 0.931 1_545 S
C118 C117 1.347 . S
C118 C119 1.369 . S
C119 C118 1.369 . S
C119 C120 1.408 . S
C119 H146 0.930 . S
C120 C115 1.348 . S
C120 C119 1.408 . S
C120 H147 0.930 . S
C121 O134 1.281 . S
C121 O135 1.254 . S
C122 O136 1.236 1_565 S
C122 O137 1.266 . S
C123 Tb113 2.809 . S
C123 C124 1.514 . S
C123 O138 1.248 . S
C123 O139 1.266 . S
C124 C123 1.514 . S
C124 C125 1.359 . S
C124 C129 1.348 . S
C125 C124 1.359 . S
C125 C126 1.380 . S
C125 H148 0.929 1_565 S
C126 C125 1.380 . S
C126 C127 1.347 . S
C126 H149 0.931 1_565 S
C127 C126 1.347 . S
C127 C128 1.369 . S
C128 C127 1.369 . S
C128 C129 1.408 . S
C128 H150 0.930 . S
C129 C124 1.348 . S
C129 C128 1.408 . S
C129 H151 0.930 . S
C130 O140 1.281 . S
C130 O141 1.254 . S
C131 O142 1.236 1_545 S
C131 O143 1.266 . S
O132 Tb112 2.484 . S
O132 C114 1.248 . S
O133 Tb112 2.440 . S
O133 C114 1.266 . S
O134 Tb112 2.658 . S
O134 Tb113 2.325 1_545 S
O134 C121 1.281 . S
O135 Tb112 2.409 . S
O135 C121 1.254 . S
O136 Tb112 2.378 . S
O136 C122 1.236 1_545 S
O137 Tb113 2.341 . S
O137 C122 1.266 . S
O138 Tb113 2.484 . S
O138 C123 1.248 . S
O139 Tb113 2.440 . S
O139 C123 1.266 . S
O140 Tb112 2.325 1_565 S
O140 Tb113 2.658 . S
O140 C130 1.281 . S
O141 Tb113 2.409 . S
O141 C130 1.254 . S
O142 Tb113 2.378 . S
O142 C131 1.236 1_565 S
O143 Tb112 2.341 . S
O143 C131 1.266 . S
H144 C116 0.929 1_565 S
H145 C117 0.931 1_565 S
H146 C119 0.930 . S
H147 C120 0.930 . S
H148 C125 0.929 1_545 S
H149 C126 0.931 1_545 S
H150 C128 0.930 . S
H151 C129 0.930 . S
Tb152 C154 2.809 . S
Tb152 O172 2.484 . S
Tb152 O173 2.440 . S
Tb152 O174 2.658 . S
Tb152 O175 2.409 . S
Tb152 O176 2.378 . S
Tb152 O180 2.325 . S
Tb152 O183 2.341 . S
Tb153 C163 2.809 . S
Tb153 O174 2.325 . S
Tb153 O177 2.341 . S
Tb153 O178 2.484 . S
Tb153 O179 2.440 . S
Tb153 O180 2.658 . S
Tb153 O181 2.409 . S
Tb153 O182 2.378 . S
C154 Tb152 2.809 . S
C154 C155 1.514 . S
C154 O172 1.248 . S
C154 O173 1.266 . S
C155 C154 1.514 . S
C155 C156 1.359 . S
C155 C160 1.348 . S
C156 C155 1.359 . S
C156 C157 1.380 . S
C156 H184 0.929 . S
C157 C156 1.380 . S
C157 C158 1.347 . S
C157 H185 0.931 . S
C158 C157 1.347 . S
C158 C159 1.369 . S
C159 C158 1.369 . S
C159 C160 1.408 . S
C159 H186 0.930 . S
C160 C155 1.348 . S
C160 C159 1.408 . S
C160 H187 0.930 . S
C161 O174 1.281 . S
C161 O175 1.254 . S
C162 O176 1.236 . S
C162 O177 1.266 . S
C163 Tb153 2.809 . S
C163 C164 1.514 . S
C163 O178 1.248 . S
C163 O179 1.266 . S
C164 C163 1.514 . S
C164 C165 1.359 . S
C164 C169 1.348 . S
C165 C164 1.359 . S
C165 C166 1.380 . S
C165 H188 0.929 . S
C166 C165 1.380 . S
C166 C167 1.347 . S
C166 H189 0.931 . S
C167 C166 1.347 . S
C167 C168 1.369 . S
C168 C167 1.369 . S
C168 C169 1.408 . S
C168 H190 0.930 . S
C169 C164 1.348 . S
C169 C168 1.408 . S
C169 H191 0.930 . S
C170 O180 1.281 . S
C170 O181 1.254 . S
C171 O182 1.236 . S
C171 O183 1.266 . S
O172 Tb152 2.484 . S
O172 C154 1.248 . S
O173 Tb152 2.440 . S
O173 C154 1.266 . S
O174 Tb152 2.658 . S
O174 Tb153 2.325 . S
O174 C161 1.281 . S
O175 Tb152 2.409 . S
O175 C161 1.254 . S
O176 Tb152 2.378 . S
O176 C162 1.236 . S
O177 Tb153 2.341 . S
O177 C162 1.266 . S
O178 Tb153 2.484 . S
O178 C163 1.248 . S
O179 Tb153 2.440 . S
O179 C163 1.266 . S
O180 Tb152 2.325 . S
O180 Tb153 2.658 . S
O180 C170 1.281 . S
O181 Tb153 2.409 . S
O181 C170 1.254 . S
O182 Tb153 2.378 . S
O182 C171 1.236 . S
O183 Tb152 2.341 . S
O183 C171 1.266 . S
H184 C156 0.929 . S
H185 C157 0.931 . S
H186 C159 0.930 . S
H187 C160 0.930 . S
H188 C165 0.929 . S
H189 C166 0.931 . S
H190 C168 0.930 . S
H191 C169 0.930 . S
Tb192 C194 2.809 . S
Tb192 O212 2.484 . S
Tb192 O213 2.440 . S
Tb192 O214 2.658 1_655 S
Tb192 O215 2.409 . S
Tb192 O216 2.378 . S
Tb192 O220 2.325 . S
Tb192 O223 2.341 1_655 S
Tb193 C203 2.809 . S
Tb193 O214 2.325 . S
Tb193 O217 2.341 1_455 S
Tb193 O218 2.484 . S
Tb193 O219 2.440 . S
Tb193 O220 2.658 1_455 S
Tb193 O221 2.409 . S
Tb193 O222 2.378 . S
C194 Tb192 2.809 . S
C194 C195 1.514 . S
C194 O212 1.248 . S
C194 O213 1.266 . S
C195 C194 1.514 . S
C195 C196 1.359 . S
C195 C200 1.348 . S
C196 C195 1.359 . S
C196 C197 1.380 . S
C196 H224 0.929 . S
C197 C196 1.380 . S
C197 C198 1.347 . S
C197 H225 0.931 . S
C198 C197 1.347 . S
C198 C199 1.369 . S
C199 C198 1.369 . S
C199 C200 1.408 . S
C199 H226 0.930 . S
C200 C195 1.348 . S
C200 C199 1.408 . S
C200 H227 0.930 . S
C201 O214 1.275 1_655 S
C201 O215 1.261 . S
C202 O216 1.236 . S
C202 O217 1.266 . S
C203 Tb193 2.809 . S
C203 C204 1.514 . S
C203 O218 1.248 . S
C203 O219 1.266 . S
C204 C203 1.514 . S
C204 C205 1.359 . S
C204 C209 1.348 . S
C205 C204 1.359 . S
C205 C206 1.380 . S
C205 H228 0.929 . S
C206 C205 1.380 . S
C206 C207 1.347 . S
C206 H229 0.931 . S
C207 C206 1.347 . S
C207 C208 1.369 . S
C208 C207 1.369 . S
C208 C209 1.408 . S
C208 H230 0.930 . S
C209 C204 1.348 . S
C209 C208 1.408 . S
C209 H231 0.930 . S
C210 O220 1.271 1_455 S
C210 O221 1.267 . S
C211 O222 1.236 . S
C211 O223 1.266 . S
O212 Tb192 2.484 . S
O212 C194 1.248 . S
O213 Tb192 2.440 . S
O213 C194 1.266 . S
O214 Tb192 2.658 1_455 S
O214 Tb193 2.325 . S
O214 C201 1.275 1_455 S
O215 Tb192 2.409 . S
O215 C201 1.261 . S
O216 Tb192 2.378 . S
O216 C202 1.236 . S
O217 Tb193 2.341 1_655 S
O217 C202 1.266 . S
O218 Tb193 2.484 . S
O218 C203 1.248 . S
O219 Tb193 2.440 . S
O219 C203 1.266 . S
O220 Tb192 2.325 . S
O220 Tb193 2.658 1_655 S
O220 C210 1.271 1_655 S
O221 Tb193 2.409 . S
O221 C210 1.267 . S
O222 Tb193 2.378 . S
O222 C211 1.236 . S
O223 Tb192 2.341 1_455 S
O223 C211 1.266 . S
H224 C196 0.929 . S
H225 C197 0.931 . S
H226 C199 0.930 . S
H227 C200 0.930 . S
H228 C205 0.929 . S
H229 C206 0.931 . S
H230 C208 0.930 . S
H231 C209 0.930 . S
H232 C240 0.929 . S
H233 C242 0.930 . S
H234 C244 0.930 . S
H235 C247 0.929 . S
H236 C250 0.935 . S
H237 C252 0.960 . S
H238 C252 0.960 . S
H239 C252 0.960 1_565 S
C240 H232 0.929 . S
C240 C241 1.393 . S
C240 C242 1.384 . S
C241 C240 1.393 . S
C241 C247 1.375 1_545 S
C242 H233 0.930 . S
C242 C240 1.384 . S
C242 C243 1.372 . S
C243 C242 1.372 . S
C243 C244 1.400 1_545 S
C243 C248 1.490 . S
C244 H234 0.930 . S
C244 C243 1.400 1_565 S
C244 C247 1.386 . S
H245 C261 0.930 . S
H246 C262 0.931 . S
C247 H235 0.929 . S
C247 C241 1.375 1_565 S
C247 C244 1.386 . S
C248 C243 1.490 . S
C248 C250 1.391 1_545 S
C248 C251 1.403 . S
H249 C255 0.930 . S
C250 H236 0.935 . S
C250 C248 1.391 1_565 S
C250 C253 1.405 . S
C251 C248 1.403 . S
C251 C252 1.524 . S
C251 C255 1.400 . S
C252 H237 0.960 . S
C252 H238 0.960 . S
C252 H239 0.960 1_545 S
C252 C251 1.524 . S
C253 C250 1.405 . S
C253 C254 1.391 1_565 S
C253 C257 1.495 . S
C254 C253 1.391 1_545 S
C254 C255 1.387 . S
C254 C256 1.477 1_545 S
C255 H249 0.930 . S
C255 C251 1.400 . S
C255 C254 1.387 . S
C256 C254 1.477 1_565 S
C256 C258 1.380 1_565 S
C256 C262 1.384 . S
C257 C253 1.495 . S
C257 H263 0.959 . S
C257 H264 0.961 . S
C257 H265 0.960 1_565 S
C258 C256 1.380 1_545 S
C258 C259 1.394 . S
C258 H266 0.930 . S
C259 C258 1.394 . S
C259 C260 1.380 . S
C259 H267 0.929 . S
C260 C259 1.380 . S
C260 C261 1.381 1_545 S
C261 H245 0.930 . S
C261 C260 1.381 1_565 S
C261 C262 1.379 . S
C262 H246 0.931 . S
C262 C256 1.384 . S
C262 C261 1.379 . S
H263 C257 0.959 . S
H264 C257 0.961 . S
H265 C257 0.960 1_545 S
H266 C258 0.930 . S
H267 C259 0.929 . S
H268 C276 0.929 . S
H269 C278 0.930 . S
H270 C280 0.930 . S
H271 C283 0.929 . S
H272 C286 0.930 . S
H273 C288 0.960 . S
H274 C288 0.960 . S
H275 C288 0.960 . S
C276 H268 0.929 . S
C276 C277 1.377 . S
C276 C278 1.384 . S
C277 C276 1.377 . S
C277 C283 1.390 . S
C278 H269 0.930 . S
C278 C276 1.384 . S
C278 C279 1.372 . S
C279 C278 1.372 . S
C279 C280 1.400 . S
C279 C284 1.490 . S
C280 H270 0.930 . S
C280 C279 1.400 . S
C280 C283 1.386 . S
H281 C297 0.930 . S
H282 C298 0.931 . S
C283 H271 0.929 . S
C283 C277 1.390 . S
C283 C280 1.386 . S
C284 C279 1.490 . S
C284 C286 1.395 . S
C284 C287 1.403 . S
H285 C291 0.930 . S
C286 H272 0.930 . S
C286 C284 1.395 . S
C286 C289 1.403 . S
C287 C284 1.403 . S
C287 C288 1.524 . S
C287 C291 1.400 . S
C288 H273 0.960 . S
C288 H274 0.960 . S
C288 H275 0.960 . S
C288 C287 1.524 . S
C289 C286 1.403 . S
C289 C290 1.392 . S
C289 C293 1.495 . S
C290 C289 1.392 . S
C290 C291 1.385 . S
C290 C292 1.478 . S
C291 H285 0.930 . S
C291 C287 1.400 . S
C291 C290 1.385 . S
C292 C290 1.478 . S
C292 C294 1.381 . S
C292 C298 1.383 . S
C293 C289 1.495 . S
C293 H299 0.959 . S
C293 H300 0.961 . S
C293 H301 0.960 . S
C294 C292 1.381 . S
C294 C295 1.394 . S
C294 H302 0.930 . S
C295 C294 1.394 . S
C295 C296 1.383 . S
C295 H303 0.929 . S
C296 C295 1.383 . S
C296 C297 1.377 . S
C297 H281 0.930 . S
C297 C296 1.377 . S
C297 C298 1.379 . S
C298 H282 0.931 . S
C298 C292 1.383 . S
C298 C297 1.379 . S
H299 C293 0.959 . S
H300 C293 0.961 . S
H301 C293 0.960 . S
H302 C294 0.930 . S
H303 C295 0.929 . S
H304 C312 0.929 . S
H305 C314 0.930 . S
H306 C316 0.930 . S
H307 C319 0.929 . S
H308 C322 0.930 . S
H309 C324 0.960 . S
H310 C324 0.960 . S
H311 C324 0.960 . S
C312 H304 0.929 . S
C312 C313 1.377 . S
C312 C314 1.384 . S
C313 C312 1.377 . S
C313 C319 1.390 . S
C314 H305 0.930 . S
C314 C312 1.384 . S
C314 C315 1.372 . S
C315 C314 1.372 . S
C315 C316 1.400 . S
C315 C320 1.490 . S
C316 H306 0.930 . S
C316 C315 1.400 . S
C316 C319 1.386 . S
H317 C333 0.930 . S
H318 C334 0.931 . S
C319 H307 0.929 . S
C319 C313 1.390 . S
C319 C316 1.386 . S
C320 C315 1.490 . S
C320 C322 1.395 . S
C320 C323 1.403 . S
H321 C327 0.930 . S
C322 H308 0.930 . S
C322 C320 1.395 . S
C322 C325 1.403 . S
C323 C320 1.403 . S
C323 C324 1.524 . S
C323 C327 1.400 . S
C324 H309 0.960 . S
C324 H310 0.960 . S
C324 H311 0.960 . S
C324 C323 1.524 . S
C325 C322 1.403 . S
C325 C326 1.392 . S
C325 C329 1.495 . S
C326 C325 1.392 . S
C326 C327 1.385 . S
C326 C328 1.478 . S
C327 H321 0.930 . S
C327 C323 1.400 . S
C327 C326 1.385 . S
C328 C326 1.478 . S
C328 C330 1.381 . S
C328 C334 1.383 . S
C329 C325 1.495 . S
C329 H335 0.959 . S
C329 H336 0.961 . S
C329 H337 0.960 . S
C330 C328 1.381 . S
C330 C331 1.394 . S
C330 H338 0.930 . S
C331 C330 1.394 . S
C331 C332 1.383 . S
C331 H339 0.929 . S
C332 C331 1.383 . S
C332 C333 1.377 . S
C333 H317 0.930 . S
C333 C332 1.377 . S
C333 C334 1.379 . S
C334 H318 0.931 . S
C334 C328 1.383 . S
C334 C333 1.379 . S
H335 C329 0.959 . S
H336 C329 0.961 . S
H337 C329 0.960 . S
H338 C330 0.930 . S
H339 C331 0.929 . S
H340 C348 0.929 . S
H341 C350 0.930 . S
H342 C352 0.930 . S
H343 C355 0.929 . S
H344 C358 0.930 . S
H345 C360 0.960 . S
H346 C360 0.960 . S
H347 C360 0.960 . S
C348 H340 0.929 . S
C348 C349 1.378 . S
C348 C350 1.384 . S
C349 C348 1.378 . S
C349 C355 1.389 1_655 S
C350 H341 0.930 . S
C350 C348 1.384 . S
C350 C351 1.372 . S
C351 C350 1.372 . S
C351 C352 1.399 1_655 S
C351 C356 1.489 1_655 S
C352 H342 0.930 . S
C352 C351 1.399 1_455 S
C352 C355 1.386 . S
H353 C369 0.930 . S
H354 C370 0.931 . S
C355 H343 0.929 . S
C355 C349 1.389 1_455 S
C355 C352 1.386 . S
C356 C351 1.489 1_455 S
C356 C358 1.414 . S
C356 C359 1.384 1_455 S
H357 C363 0.930 . S
C358 H344 0.930 . S
C358 C356 1.414 . S
C358 C361 1.403 . S
C359 C356 1.384 1_655 S
C359 C360 1.524 . S
C359 C363 1.400 . S
C360 H345 0.960 . S
C360 H346 0.960 . S
C360 H347 0.960 . S
C360 C359 1.524 . S
C361 C358 1.403 . S
C361 C362 1.392 . S
C361 C365 1.495 . S
C362 C361 1.392 . S
C362 C363 1.385 1_455 S
C362 C364 1.478 . S
C363 H357 0.930 . S
C363 C359 1.400 . S
C363 C362 1.385 1_655 S
C364 C362 1.478 . S
C364 C366 1.381 1_455 S
C364 C370 1.383 . S
C365 C361 1.495 . S
C365 H371 0.959 . S
C365 H372 0.961 . S
C365 H373 0.960 . S
C366 C364 1.381 1_655 S
C366 C367 1.394 . S
C366 H374 0.930 . S
C367 C366 1.394 . S
C367 C368 1.383 1_655 S
C367 H375 0.929 . S
C368 C367 1.383 1_455 S
C368 C369 1.377 . S
C369 H353 0.930 . S
C369 C368 1.377 . S
C369 C370 1.379 . S
C370 H354 0.931 . S
C370 C364 1.383 . S
C370 C369 1.379 . S
H371 C365 0.959 . S
H372 C365 0.961 . S
H373 C365 0.960 . S
H374 C366 0.930 . S
H375 C367 0.929 . S
H376 C384 0.929 . S
H377 C386 0.930 . S
H378 C388 0.930 . S
H379 C391 0.929 . S
H380 C394 0.930 . S
H381 C396 0.960 . S
H382 C396 0.960 . S
H383 C396 0.960 . S
C384 H376 0.929 . S
C384 C385 1.378 . S
C384 C386 1.384 . S
C385 C384 1.378 . S
C385 C391 1.389 1_565 S
C386 H377 0.930 . S
C386 C384 1.384 . S
C386 C387 1.372 . S
C387 C386 1.372 . S
C387 C388 1.400 1_565 S
C387 C392 1.490 . S
C388 H378 0.930 . S
C388 C387 1.400 1_545 S
C388 C391 1.386 . S
H389 C405 0.930 . S
H390 C406 0.931 . S
C391 H379 0.929 . S
C391 C385 1.389 1_545 S
C391 C388 1.386 . S
C392 C387 1.490 . S
C392 C394 1.395 . S
C392 C395 1.403 1_565 S
H393 C399 0.930 . S
C394 H380 0.930 . S
C394 C392 1.395 . S
C394 C397 1.412 . S
C395 C392 1.403 1_545 S
C395 C396 1.524 . S
C395 C399 1.400 . S
C396 H381 0.960 . S
C396 H382 0.960 . S
C396 H383 0.960 . S
C396 C395 1.524 . S
C397 C394 1.412 . S
C397 C398 1.393 . S
C397 C401 1.487 1_554 S
C398 C397 1.393 . S
C398 C399 1.385 1_565 S
C398 C400 1.478 1_554 S
C399 H393 0.930 . S
C399 C395 1.400 . S
C399 C398 1.385 1_545 S
C400 C398 1.478 1_556 S
C400 C402 1.381 . S
C400 C406 1.383 1_565 S
C401 C397 1.487 1_556 S
C401 H407 0.959 . S
C401 H408 0.961 . S
C401 H409 0.960 . S
C402 C400 1.381 . S
C402 C403 1.394 . S
C402 H410 0.930 . S
C403 C402 1.394 . S
C403 C404 1.425 . S
C403 H411 0.929 . S
C404 C403 1.425 . S
C404 C405 1.337 1_565 S
C405 H389 0.930 . S
C405 C404 1.337 1_545 S
C405 C406 1.379 . S
C406 H390 0.931 . S
C406 C400 1.383 1_545 S
C406 C405 1.379 . S
H407 C401 0.959 . S
H408 C401 0.961 . S
H409 C401 0.960 . S
H410 C402 0.930 . S
H411 C403 0.929 . S
H412 C420 0.929 . S
H413 C422 0.930 . S
H414 C424 0.930 . S
H415 C427 0.929 . S
H416 C430 0.930 . S
H417 C432 0.960 1_556 S
H418 C432 0.960 . S
H419 C432 0.960 . S
C420 H412 0.929 . S
C420 C421 1.377 . S
C420 C422 1.384 . S
C421 C420 1.377 . S
C421 C427 1.390 . S
C422 H413 0.930 . S
C422 C420 1.384 . S
C422 C423 1.372 . S
C423 C422 1.372 . S
C423 C424 1.400 . S
C423 C428 1.490 . S
C424 H414 0.930 . S
C424 C423 1.400 . S
C424 C427 1.386 . S
H425 C441 0.930 . S
H426 C442 0.931 . S
C427 H415 0.929 . S
C427 C421 1.390 . S
C427 C424 1.386 . S
C428 C423 1.490 . S
C428 C430 1.395 . S
C428 C431 1.403 . S
H429 C435 0.930 1_556 S
C430 H416 0.930 . S
C430 C428 1.395 . S
C430 C433 1.403 . S
C431 C428 1.403 . S
C431 C432 1.524 . S
C431 C435 1.400 . S
C432 H417 0.960 1_554 S
C432 H418 0.960 . S
C432 H419 0.960 . S
C432 C431 1.524 . S
C433 C430 1.403 . S
C433 C434 1.392 . S
C433 C437 1.495 . S
C434 C433 1.392 . S
C434 C435 1.385 . S
C434 C436 1.478 1_554 S
C435 H429 0.930 1_554 S
C435 C431 1.400 . S
C435 C434 1.385 . S
C436 C434 1.478 1_556 S
C436 C438 1.381 . S
C436 C442 1.383 . S
C437 C433 1.495 . S
C437 H443 0.959 . S
C437 H444 0.961 . S
C437 H445 0.960 . S
C438 C436 1.381 . S
C438 C439 1.394 . S
C438 H446 0.930 . S
C439 C438 1.394 . S
C439 C440 1.383 . S
C439 H447 0.929 . S
C440 C439 1.383 . S
C440 C441 1.377 . S
C441 H425 0.930 . S
C441 C440 1.377 . S
C441 C442 1.379 . S
C442 H426 0.931 . S
C442 C436 1.383 . S
C442 C441 1.379 . S
H443 C437 0.959 . S
H444 C437 0.961 . S
H445 C437 0.960 . S
H446 C438 0.930 . S
H447 C439 0.929 . S
H448 C456 0.929 . S
H449 C458 0.930 . S
H450 C460 0.930 . S
H451 C463 0.929 . S
H452 C466 0.930 . S
H453 C468 0.960 . S
H454 C468 0.960 . S
H455 C468 0.960 . S
C456 H448 0.929 . S
C456 C457 1.377 . S
C456 C458 1.384 . S
C457 C456 1.377 . S
C457 C463 1.390 . S
C458 H449 0.930 . S
C458 C456 1.384 . S
C458 C459 1.372 . S
C459 C458 1.372 . S
C459 C460 1.400 . S
C459 C464 1.490 . S
C460 H450 0.930 . S
C460 C459 1.400 . S
C460 C463 1.386 . S
H461 C477 0.930 . S
H462 C478 0.931 . S
C463 H451 0.929 . S
C463 C457 1.390 . S
C463 C460 1.386 . S
C464 C459 1.490 . S
C464 C466 1.395 . S
C464 C467 1.403 . S
H465 C471 0.930 . S
C466 H452 0.930 . S
C466 C464 1.395 . S
C466 C469 1.403 . S
C467 C464 1.403 . S
C467 C468 1.524 . S
C467 C471 1.400 . S
C468 H453 0.960 . S
C468 H454 0.960 . S
C468 H455 0.960 . S
C468 C467 1.524 . S
C469 C466 1.403 . S
C469 C470 1.392 . S
C469 C473 1.495 1_554 S
C470 C469 1.392 . S
C470 C471 1.385 . S
C470 C472 1.478 1_554 S
C471 H465 0.930 . S
C471 C467 1.400 . S
C471 C470 1.385 . S
C472 C470 1.478 1_556 S
C472 C474 1.381 . S
C472 C478 1.383 . S
C473 C469 1.495 1_556 S
C473 H479 0.959 . S
C473 H480 0.961 . S
C473 H481 0.960 . S
C474 C472 1.381 . S
C474 C475 1.394 . S
C474 H482 0.930 . S
C475 C474 1.394 . S
C475 C476 1.383 . S
C475 H483 0.929 . S
C476 C475 1.383 . S
C476 C477 1.377 . S
C477 H461 0.930 . S
C477 C476 1.377 . S
C477 C478 1.379 . S
C478 H462 0.931 . S
C478 C472 1.383 . S
C478 C477 1.379 . S
H479 C473 0.959 . S
H480 C473 0.961 . S
H481 C473 0.960 . S
H482 C474 0.930 . S
H483 C475 0.929 . S
H484 C492 0.929 . S
H485 C494 0.930 . S
H486 C496 0.930 . S
H487 C499 0.929 . S
H488 C502 0.930 . S
H489 C504 0.960 . S
H490 C504 0.960 . S
H491 C504 0.960 . S
C492 H484 0.929 . S
C492 C493 1.377 . S
C492 C494 1.384 . S
C493 C492 1.377 . S
C493 C499 1.390 1_455 S
C494 H485 0.930 . S
C494 C492 1.384 . S
C494 C495 1.372 1_455 S
C495 C494 1.372 1_655 S
C495 C496 1.400 . S
C495 C500 1.489 . S
C496 H486 0.930 . S
C496 C495 1.400 . S
C496 C499 1.386 . S
H497 C513 0.930 . S
H498 C514 0.931 . S
C499 H487 0.929 . S
C499 C493 1.390 1_655 S
C499 C496 1.386 . S
C500 C495 1.489 . S
C500 C502 1.428 . S
C500 C503 1.372 1_655 S
H501 C507 0.930 1_556 S
C502 H488 0.930 . S
C502 C500 1.428 . S
C502 C505 1.403 . S
C503 C500 1.372 1_455 S
C503 C504 1.524 . S
C503 C507 1.400 . S
C504 H489 0.960 . S
C504 H490 0.960 . S
C504 H491 0.960 . S
C504 C503 1.524 . S
C505 C502 1.403 . S
C505 C506 1.392 . S
C505 C509 1.495 . S
C506 C505 1.392 . S
C506 C507 1.385 1_655 S
C506 C508 1.478 1_554 S
C507 H501 0.930 1_554 S
C507 C503 1.400 . S
C507 C506 1.385 1_455 S
C508 C506 1.478 1_556 S
C508 C510 1.382 . S
C508 C514 1.383 . S
C509 C505 1.495 . S
C509 H515 0.959 . S
C509 H516 0.961 . S
C509 H517 0.960 . S
C510 C508 1.382 . S
C510 C511 1.394 1_655 S
C510 H518 0.929 1_656 S
C511 C510 1.394 1_455 S
C511 C512 1.383 1_455 S
C511 H519 0.929 . S
C512 C511 1.383 1_655 S
C512 C513 1.377 . S
C513 H497 0.930 . S
C513 C512 1.377 . S
C513 C514 1.379 . S
C514 H498 0.931 . S
C514 C508 1.383 . S
C514 C513 1.379 . S
H515 C509 0.959 . S
H516 C509 0.961 . S
H517 C509 0.960 . S
H518 C510 0.929 1_454 S
H519 C511 0.929 . S
H520 C528 0.929 . S
H521 C530 0.930 . S
H522 C532 0.930 . S
H523 C535 0.929 . S
H524 C538 0.961 . S
H525 C540 0.960 . S
H526 C540 0.960 . S
H527 C540 0.960 . S
C528 H520 0.929 . S
C528 C529 1.377 1_655 S
C528 C530 1.384 . S
C529 C528 1.377 1_455 S
C529 C535 1.390 . S
C530 H521 0.930 . S
C530 C528 1.384 . S
C530 C531 1.372 . S
C531 C530 1.372 . S
C531 C532 1.398 1_655 S
C531 C536 1.490 . S
C532 H522 0.930 . S
C532 C531 1.398 1_455 S
C532 C535 1.386 . S
H533 C549 0.930 . S
H534 C550 0.931 . S
C535 H523 0.929 . S
C535 C529 1.390 . S
C535 C532 1.386 . S
C536 C531 1.490 . S
C536 C538 1.371 1_655 S
C536 C539 1.403 . S
H537 C543 0.930 . S
C538 H524 0.961 . S
C538 C536 1.371 1_455 S
C538 C541 1.399 1_455 S
C539 C536 1.403 . S
C539 C540 1.524 . S
C539 C543 1.400 . S
C540 H525 0.960 . S
C540 H526 0.960 . S
C540 H527 0.960 . S
C540 C539 1.524 . S
C541 C538 1.399 1_655 S
C541 C542 1.392 . S
C541 C545 1.495 1_655 S
C542 C541 1.392 . S
C542 C543 1.385 . S
C542 C544 1.478 . S
C543 H537 0.930 . S
C543 C539 1.400 . S
C543 C542 1.385 . S
C544 C542 1.478 . S
C544 C546 1.381 . S
C544 C550 1.383 . S
C545 C541 1.495 1_455 S
C545 H551 0.959 . S
C545 H552 0.961 . S
C545 H553 0.960 . S
C546 C544 1.381 . S
C546 C547 1.394 . S
C546 H554 0.930 . S
C547 C546 1.394 . S
C547 C548 1.383 . S
C547 H555 0.929 . S
C548 C547 1.383 . S
C548 C549 1.377 . S
C549 H533 0.930 . S
C549 C548 1.377 . S
C549 C550 1.379 . S
C550 H534 0.931 . S
C550 C544 1.383 . S
C550 C549 1.379 . S
H551 C545 0.959 . S
H552 C545 0.961 . S
H553 C545 0.960 . S
H554 C546 0.930 . S
H555 C547 0.929 . S
H556 C564 0.929 . S
H557 C566 0.930 . S
H558 C568 0.930 . S
H559 C571 0.929 . S
H560 C574 0.930 . S
H561 C576 0.960 . S
H562 C576 0.960 1_565 S
H563 C576 0.960 . S
C564 H556 0.929 . S
C564 C565 1.377 1_565 S
C564 C566 1.384 . S
C565 C564 1.377 1_545 S
C565 C571 1.390 . S
C566 H557 0.930 . S
C566 C564 1.384 . S
C566 C567 1.372 . S
C567 C566 1.372 . S
C567 C568 1.400 1_565 S
C567 C572 1.490 . S
C568 H558 0.930 . S
C568 C567 1.400 1_545 S
C568 C571 1.386 . S
H569 C585 0.930 1_545 S
H570 C586 0.931 1_545 S
C571 H559 0.929 . S
C571 C565 1.390 . S
C571 C568 1.386 . S
C572 C567 1.490 . S
C572 C574 1.395 . S
C572 C575 1.403 . S
H573 C579 0.930 . S
C574 H560 0.930 . S
C574 C572 1.395 . S
C574 C577 1.403 . S
C575 C572 1.403 . S
C575 C576 1.524 1_565 S
C575 C579 1.400 . S
C576 H561 0.960 . S
C576 H562 0.960 1_545 S
C576 H563 0.960 . S
C576 C575 1.524 1_545 S
C577 C574 1.403 . S
C577 C578 1.392 . S
C577 C581 1.495 . S
C578 C577 1.392 . S
C578 C579 1.385 . S
C578 C580 1.478 . S
C579 H573 0.930 . S
C579 C575 1.400 . S
C579 C578 1.385 . S
C580 C578 1.478 . S
C580 C582 1.381 . S
C580 C586 1.383 . S
C581 C577 1.495 . S
C581 H587 0.959 . S
C581 H588 0.961 . S
C581 H589 0.960 . S
C582 C580 1.381 . S
C582 C583 1.394 . S
C582 H590 0.930 . S
C583 C582 1.394 . S
C583 C584 1.383 . S
C583 H591 0.929 . S
C584 C583 1.383 . S
C584 C585 1.377 . S
C585 H569 0.930 1_565 S
C585 C584 1.377 . S
C585 C586 1.379 . S
C586 H570 0.931 1_565 S
C586 C580 1.383 . S
C586 C585 1.379 . S
H587 C581 0.959 . S
H588 C581 0.961 . S
H589 C581 0.960 . S
H590 C582 0.930 . S
H591 C583 0.929 . S
H592 C600 0.929 . S
H593 C602 0.930 . S
H594 C604 0.930 . S
H595 C607 0.929 . S
H596 C610 0.930 . S
H597 C612 0.960 . S
H598 C612 0.960 . S
H599 C612 0.960 . S
C600 H592 0.929 . S
C600 C601 1.377 . S
C600 C602 1.384 . S
C601 C600 1.377 . S
C601 C607 1.390 . S
C602 H593 0.930 . S
C602 C600 1.384 . S
C602 C603 1.372 . S
C603 C602 1.372 . S
C603 C604 1.400 . S
C603 C608 1.490 . S
C604 H594 0.930 . S
C604 C603 1.400 . S
C604 C607 1.386 . S
H605 C621 0.930 . S
H606 C622 0.931 . S
C607 H595 0.929 . S
C607 C601 1.390 . S
C607 C604 1.386 . S
C608 C603 1.490 . S
C608 C610 1.395 . S
C608 C611 1.403 . S
H609 C615 0.930 . S
C610 H596 0.930 . S
C610 C608 1.395 . S
C610 C613 1.403 . S
C611 C608 1.403 . S
C611 C612 1.524 . S
C611 C615 1.400 . S
C612 H597 0.960 . S
C612 H598 0.960 . S
C612 H599 0.960 . S
C612 C611 1.524 . S
C613 C610 1.403 . S
C613 C614 1.392 . S
C613 C617 1.495 . S
C614 C613 1.392 . S
C614 C615 1.385 . S
C614 C616 1.478 . S
C615 H609 0.930 . S
C615 C611 1.400 . S
C615 C614 1.385 . S
C616 C614 1.478 . S
C616 C618 1.381 . S
C616 C622 1.383 . S
C617 C613 1.495 . S
C617 H623 0.959 . S
C617 H624 0.961 . S
C617 H625 0.960 . S
C618 C616 1.381 . S
C618 C619 1.394 . S
C618 H626 0.930 . S
C619 C618 1.394 . S
C619 C620 1.383 . S
C619 H627 0.929 . S
C620 C619 1.383 . S
C620 C621 1.377 . S
C621 H605 0.930 . S
C621 C620 1.377 . S
C621 C622 1.379 . S
C622 H606 0.931 . S
C622 C616 1.383 . S
C622 C621 1.379 . S
H623 C617 0.959 . S
H624 C617 0.961 . S
H625 C617 0.960 . S
H626 C618 0.930 . S
H627 C619 0.929 . S
H628 C636 0.929 . S
H629 C638 0.930 . S
H630 C640 0.930 . S
H631 C643 0.929 . S
H632 C646 0.930 . S
H633 C648 0.960 . S
H634 C648 0.960 . S
H635 C648 0.960 . S
C636 H628 0.929 . S
C636 C637 1.377 . S
C636 C638 1.384 . S
C637 C636 1.377 . S
C637 C643 1.390 . S
C638 H629 0.930 . S
C638 C636 1.384 . S
C638 C639 1.372 . S
C639 C638 1.372 . S
C639 C640 1.400 . S
C639 C644 1.490 . S
C640 H630 0.930 . S
C640 C639 1.400 . S
C640 C643 1.386 . S
H641 C657 0.930 . S
H642 C658 0.931 . S
C643 H631 0.929 . S
C643 C637 1.390 . S
C643 C640 1.386 . S
C644 C639 1.490 . S
C644 C646 1.395 . S
C644 C647 1.403 . S
H645 C651 0.930 . S
C646 H632 0.930 . S
C646 C644 1.395 . S
C646 C649 1.403 . S
C647 C644 1.403 . S
C647 C648 1.524 . S
C647 C651 1.400 . S
C648 H633 0.960 . S
C648 H634 0.960 . S
C648 H635 0.960 . S
C648 C647 1.524 . S
C649 C646 1.403 . S
C649 C650 1.392 . S
C649 C653 1.495 . S
C650 C649 1.392 . S
C650 C651 1.385 . S
C650 C652 1.478 . S
C651 H645 0.930 . S
C651 C647 1.400 . S
C651 C650 1.385 . S
C652 C650 1.478 . S
C652 C654 1.381 . S
C652 C658 1.383 . S
C653 C649 1.495 . S
C653 H659 0.959 . S
C653 H660 0.961 . S
C653 H661 0.960 . S
C654 C652 1.381 . S
C654 C655 1.394 . S
C654 H662 0.930 . S
C655 C654 1.394 . S
C655 C656 1.383 . S
C655 H663 0.929 . S
C656 C655 1.383 . S
C656 C657 1.377 . S
C657 H641 0.930 . S
C657 C656 1.377 . S
C657 C658 1.379 . S
C658 H642 0.931 . S
C658 C652 1.383 . S
C658 C657 1.379 . S
H659 C653 0.959 . S
H660 C653 0.961 . S
H661 C653 0.960 . S
H662 C654 0.930 . S
H663 C655 0.929 . S
H664 C672 0.929 . S
H665 C674 0.930 . S
H666 C676 0.930 . S
H667 C679 0.929 . S
H668 C682 0.930 . S
H669 C684 0.960 . S
H670 C684 0.960 . S
H671 C684 0.960 . S
C672 H664 0.929 . S
C672 C673 1.377 . S
C672 C674 1.384 . S
C673 C672 1.377 . S
C673 C679 1.390 1_655 S
C674 H665 0.930 . S
C674 C672 1.384 . S
C674 C675 1.372 1_655 S
C675 C674 1.372 1_455 S
C675 C676 1.400 . S
C675 C680 1.490 . S
C676 H666 0.930 . S
C676 C675 1.400 . S
C676 C679 1.386 . S
H677 C693 0.930 . S
H678 C694 0.931 . S
C679 H667 0.929 . S
C679 C673 1.390 1_455 S
C679 C676 1.386 . S
C680 C675 1.490 . S
C680 C682 1.395 1_455 S
C680 C683 1.403 . S
H681 C687 0.930 . S
C682 H668 0.930 . S
C682 C680 1.395 1_655 S
C682 C685 1.403 . S
C683 C680 1.403 . S
C683 C684 1.524 . S
C683 C687 1.400 . S
C684 H669 0.960 . S
C684 H670 0.960 . S
C684 H671 0.960 . S
C684 C683 1.524 . S
C685 C682 1.403 . S
C685 C686 1.392 1_655 S
C685 C689 1.495 . S
C686 C685 1.392 1_455 S
C686 C687 1.385 . S
C686 C688 1.478 . S
C687 H681 0.930 . S
C687 C683 1.400 . S
C687 C686 1.385 . S
C688 C686 1.478 . S
C688 C690 1.381 1_554 S
C688 C694 1.383 . S
C689 C685 1.495 . S
C689 H695 0.959 . S
C689 H696 0.961 . S
C689 H697 0.960 . S
C690 C688 1.381 1_556 S
C690 C691 1.394 . S
C690 H698 0.930 1_455 S
C691 C690 1.394 . S
C691 C692 1.383 . S
C691 H699 0.929 . S
C692 C691 1.383 . S
C692 C693 1.377 1_556 S
C693 H677 0.930 . S
C693 C692 1.377 1_554 S
C693 C694 1.379 . S
C694 H678 0.931 . S
C694 C688 1.383 . S
C694 C693 1.379 . S
H695 C689 0.959 . S
H696 C689 0.961 . S
H697 C689 0.960 . S
H698 C690 0.930 1_655 S
H699 C691 0.929 . S
H700 C708 0.929 . S
H701 C710 0.930 . S
H702 C712 0.930 . S
H703 C715 0.929 . S
H704 C718 0.930 . S
H705 C720 0.960 . S
H706 C720 0.960 . S
H707 C720 0.960 . S
C708 H700 0.929 . S
C708 C709 1.377 . S
C708 C710 1.384 . S
C709 C708 1.377 . S
C709 C715 1.390 1_565 S
C710 H701 0.930 . S
C710 C708 1.384 . S
C710 C711 1.372 1_565 S
C711 C710 1.372 1_545 S
C711 C712 1.400 . S
C711 C716 1.490 . S
C712 H702 0.930 . S
C712 C711 1.400 . S
C712 C715 1.386 . S
H713 C729 0.930 . S
H714 C730 0.931 . S
C715 H703 0.929 . S
C715 C709 1.390 1_545 S
C715 C712 1.386 . S
C716 C711 1.490 . S
C716 C718 1.395 1_545 S
C716 C719 1.403 . S
H717 C723 0.930 . S
C718 H704 0.930 . S
C718 C716 1.395 1_565 S
C718 C721 1.403 . S
C719 C716 1.403 . S
C719 C720 1.524 . S
C719 C723 1.400 . S
C720 H705 0.960 . S
C720 H706 0.960 . S
C720 H707 0.960 . S
C720 C719 1.524 . S
C721 C718 1.403 . S
C721 C722 1.392 1_565 S
C721 C725 1.495 . S
C722 C721 1.392 1_545 S
C722 C723 1.385 . S
C722 C724 1.478 . S
C723 H717 0.930 . S
C723 C719 1.400 . S
C723 C722 1.385 . S
C724 C722 1.478 . S
C724 C726 1.381 1_554 S
C724 C730 1.383 . S
C725 C721 1.495 . S
C725 H731 0.959 . S
C725 H732 0.961 . S
C725 H733 0.960 . S
C726 C724 1.381 1_556 S
C726 C727 1.394 . S
C726 H734 0.930 . S
C727 C726 1.394 . S
C727 C728 1.383 . S
C727 H735 0.929 . S
C728 C727 1.383 . S
C728 C729 1.377 1_556 S
C729 H713 0.930 . S
C729 C728 1.377 1_554 S
C729 C730 1.379 . S
C730 H714 0.931 . S
C730 C724 1.383 . S
C730 C729 1.379 . S
H731 C725 0.959 . S
H732 C725 0.961 . S
H733 C725 0.960 . S
H734 C726 0.930 . S
H735 C727 0.929 . S
H736 C744 0.929 . S
H737 C746 0.930 . S
H738 C748 0.930 . S
H739 C751 0.929 . S
H740 C754 0.930 . S
H741 C756 0.960 . S
H742 C756 0.960 . S
H743 C756 0.960 . S
C744 H736 0.929 . S
C744 C745 1.377 . S
C744 C746 1.384 . S
C745 C744 1.377 . S
C745 C751 1.390 . S
C746 H737 0.930 . S
C746 C744 1.384 . S
C746 C747 1.372 . S
C747 C746 1.372 . S
C747 C748 1.400 . S
C747 C752 1.490 . S
C748 H738 0.930 . S
C748 C747 1.400 . S
C748 C751 1.386 . S
H749 C765 0.930 . S
H750 C766 0.931 . S
C751 H739 0.929 . S
C751 C745 1.390 . S
C751 C748 1.386 . S
C752 C747 1.490 . S
C752 C754 1.395 . S
C752 C755 1.403 . S
H753 C759 0.930 . S
C754 H740 0.930 . S
C754 C752 1.395 . S
C754 C757 1.403 . S
C755 C752 1.403 . S
C755 C756 1.524 . S
C755 C759 1.400 . S
C756 H741 0.960 . S
C756 H742 0.960 . S
C756 H743 0.960 . S
C756 C755 1.524 . S
C757 C754 1.403 . S
C757 C758 1.392 . S
C757 C761 1.495 1_554 S
C758 C757 1.392 . S
C758 C759 1.385 . S
C758 C760 1.478 . S
C759 H753 0.930 . S
C759 C755 1.400 . S
C759 C758 1.385 . S
C760 C758 1.478 . S
C760 C762 1.381 . S
C760 C766 1.383 . S
C761 C757 1.495 1_556 S
C761 H767 0.959 . S
C761 H768 0.961 . S
C761 H769 0.960 . S
C762 C760 1.381 . S
C762 C763 1.394 1_554 S
C762 H770 0.930 . S
C763 C762 1.394 1_556 S
C763 C764 1.383 . S
C763 H771 0.929 . S
C764 C763 1.383 . S
C764 C765 1.377 . S
C765 H749 0.930 . S
C765 C764 1.377 . S
C765 C766 1.379 1_556 S
C766 H750 0.931 . S
C766 C760 1.383 . S
C766 C765 1.379 1_554 S
H767 C761 0.959 . S
H768 C761 0.961 . S
H769 C761 0.960 . S
H770 C762 0.930 . S
H771 C763 0.929 . S
H772 C780 0.929 . S
H773 C782 0.930 . S
H774 C784 0.930 . S
H775 C787 0.929 . S
H776 C790 0.930 . S
H777 C792 0.960 . S
H778 C792 0.960 . S
H779 C792 0.960 . S
C780 H772 0.929 . S
C780 C781 1.377 . S
C780 C782 1.384 . S
C781 C780 1.377 . S
C781 C787 1.390 . S
C782 H773 0.930 . S
C782 C780 1.384 . S
C782 C783 1.372 . S
C783 C782 1.372 . S
C783 C784 1.400 . S
C783 C788 1.490 . S
C784 H774 0.930 . S
C784 C783 1.400 . S
C784 C787 1.386 . S
H785 C801 0.930 . S
H786 C802 0.933 . S
C787 H775 0.929 . S
C787 C781 1.390 . S
C787 C784 1.386 . S
C788 C783 1.490 . S
C788 C790 1.395 . S
C788 C791 1.403 . S
H789 C795 0.930 . S
C790 H776 0.930 . S
C790 C788 1.395 . S
C790 C793 1.403 . S
C791 C788 1.403 . S
C791 C792 1.524 . S
C791 C795 1.400 . S
C792 H777 0.960 . S
C792 H778 0.960 . S
C792 H779 0.960 . S
C792 C791 1.524 . S
C793 C790 1.403 . S
C793 C794 1.392 . S
C793 C797 1.495 1_554 S
C794 C793 1.392 . S
C794 C795 1.385 . S
C794 C796 1.478 . S
C795 H789 0.930 . S
C795 C791 1.400 . S
C795 C794 1.385 . S
C796 C794 1.478 . S
C796 C798 1.381 . S
C796 C802 1.383 1_554 S
C797 C793 1.495 1_556 S
C797 H803 0.959 . S
C797 H804 0.961 . S
C797 H805 0.960 . S
C798 C796 1.381 . S
C798 C799 1.394 1_554 S
C798 H806 0.930 . S
C799 C798 1.394 1_556 S
C799 C800 1.383 . S
C799 H807 0.929 . S
C800 C799 1.383 . S
C800 C801 1.377 . S
C801 H785 0.930 . S
C801 C800 1.377 . S
C801 C802 1.379 . S
C802 H786 0.933 . S
C802 C796 1.383 1_556 S
C802 C801 1.379 . S
H803 C797 0.959 . S
H804 C797 0.961 . S
H805 C797 0.960 . S
H806 C798 0.930 . S
H807 C799 0.929 . S
H808 C816 0.929 . S
H809 C818 0.930 . S
H810 C820 0.930 . S
H811 C823 0.929 1_554 S
H812 C826 0.930 . S
H813 C828 0.960 . S
H814 C828 0.960 . S
H815 C828 0.960 . S
C816 H808 0.929 . S
C816 C817 1.372 1_655 S
C816 C818 1.384 . S
C817 C816 1.372 1_455 S
C817 C823 1.397 . S
C818 H809 0.930 . S
C818 C816 1.384 . S
C818 C819 1.372 1_655 S
C819 C818 1.372 1_455 S
C819 C820 1.400 . S
C819 C824 1.490 . S
C820 H810 0.930 . S
C820 C819 1.400 . S
C820 C823 1.386 . S
H821 C837 0.930 . S
H822 C838 0.931 . S
C823 H811 0.929 1_556 S
C823 C817 1.397 . S
C823 C820 1.386 . S
C824 C819 1.490 . S
C824 C826 1.395 . S
C824 C827 1.403 1_455 S
H825 C831 0.930 . S
C826 H812 0.930 . S
C826 C824 1.395 . S
C826 C829 1.403 . S
C827 C824 1.403 1_655 S
C827 C828 1.524 . S
C827 C831 1.400 . S
C828 H813 0.960 . S
C828 H814 0.960 . S
C828 H815 0.960 . S
C828 C827 1.524 . S
C829 C826 1.403 . S
C829 C830 1.392 . S
C829 C833 1.495 . S
C830 C829 1.392 . S
C830 C831 1.385 1_455 S
C830 C832 1.478 . S
C831 H825 0.930 . S
C831 C827 1.400 . S
C831 C830 1.385 1_655 S
C832 C830 1.478 . S
C832 C834 1.381 . S
C832 C838 1.383 . S
C833 C829 1.495 . S
C833 H839 0.959 . S
C833 H840 0.961 . S
C833 H841 0.960 . S
C834 C832 1.381 . S
C834 C835 1.394 . S
C834 H842 0.930 . S
C835 C834 1.394 . S
C835 C836 1.383 . S
C835 H843 0.942 . S
C836 C835 1.383 . S
C836 C837 1.377 . S
C837 H821 0.930 . S
C837 C836 1.377 . S
C837 C838 1.379 . S
C838 H822 0.931 . S
C838 C832 1.383 . S
C838 C837 1.379 . S
H839 C833 0.959 . S
H840 C833 0.961 . S
H841 C833 0.960 . S
H842 C834 0.930 . S
H843 C835 0.942 . S
H844 C852 0.929 1_554 S
H845 C854 0.934 . S
H846 C856 0.930 . S
H847 C859 0.929 . S
H848 C862 0.930 . S
H849 C864 0.960 . S
H850 C864 0.960 . S
H851 C864 0.960 . S
C852 H844 0.929 1_556 S
C852 C853 1.377 1_565 S
C852 C854 1.384 . S
C853 C852 1.377 1_545 S
C853 C859 1.390 . S
C854 H845 0.934 . S
C854 C852 1.384 . S
C854 C855 1.372 1_565 S
C855 C854 1.372 1_545 S
C855 C856 1.400 . S
C855 C860 1.490 . S
C856 H846 0.930 . S
C856 C855 1.400 . S
C856 C859 1.386 . S
H857 C873 0.930 . S
H858 C874 0.931 . S
C859 H847 0.929 . S
C859 C853 1.390 . S
C859 C856 1.386 . S
C860 C855 1.490 . S
C860 C862 1.395 1_545 S
C860 C863 1.403 . S
H861 C867 0.930 . S
C862 H848 0.930 . S
C862 C860 1.395 1_565 S
C862 C865 1.403 . S
C863 C860 1.403 . S
C863 C864 1.524 . S
C863 C867 1.400 . S
C864 H849 0.960 . S
C864 H850 0.960 . S
C864 H851 0.960 . S
C864 C863 1.524 . S
C865 C862 1.403 . S
C865 C866 1.392 1_565 S
C865 C869 1.495 . S
C866 C865 1.392 1_545 S
C866 C867 1.385 . S
C866 C868 1.478 . S
C867 H861 0.930 . S
C867 C863 1.400 . S
C867 C866 1.385 . S
C868 C866 1.478 . S
C868 C870 1.381 . S
C868 C874 1.383 . S
C869 C865 1.495 . S
C869 H875 0.959 . S
C869 H876 0.961 . S
C869 H877 0.960 . S
C870 C868 1.381 . S
C870 C871 1.394 . S
C870 H878 0.930 1_545 S
C871 C870 1.394 . S
C871 C872 1.383 . S
C871 H879 0.929 . S
C872 C871 1.383 . S
C872 C873 1.377 . S
C873 H857 0.930 . S
C873 C872 1.377 . S
C873 C874 1.379 . S
C874 H858 0.931 . S
C874 C868 1.383 . S
C874 C873 1.379 . S
H875 C869 0.959 . S
H876 C869 0.961 . S
H877 C869 0.960 . S
H878 C870 0.930 1_565 S
H879 C871 0.929 . S
H880 C888 0.929 . S
H881 C890 0.930 . S
H882 C892 0.930 . S
H883 C895 0.929 . S
H884 C898 0.930 . S
H885 C900 0.960 1_554 S
H886 C900 0.960 1_554 S
H887 C900 0.960 . S
C888 H880 0.929 . S
C888 C889 1.377 . S
C888 C890 1.384 . S
C889 C888 1.377 . S
C889 C895 1.390 . S
C890 H881 0.930 . S
C890 C888 1.384 . S
C890 C891 1.372 . S
C891 C890 1.372 . S
C891 C892 1.400 . S
C891 C896 1.490 . S
C892 H882 0.930 . S
C892 C891 1.400 . S
C892 C895 1.386 . S
H893 C909 0.930 . S
H894 C910 0.931 . S
C895 H883 0.929 . S
C895 C889 1.390 . S
C895 C892 1.386 . S
C896 C891 1.490 . S
C896 C898 1.395 . S
C896 C899 1.403 . S
H897 C903 0.930 . S
C898 H884 0.930 . S
C898 C896 1.395 . S
C898 C901 1.403 . S
C899 C896 1.403 . S
C899 C900 1.524 . S
C899 C903 1.400 . S
C900 H885 0.960 1_556 S
C900 H886 0.960 1_556 S
C900 H887 0.960 . S
C900 C899 1.524 . S
C901 C898 1.403 . S
C901 C902 1.392 . S
C901 C905 1.495 . S
C902 C901 1.392 . S
C902 C903 1.385 . S
C902 C904 1.478 . S
C903 H897 0.930 . S
C903 C899 1.400 . S
C903 C902 1.385 . S
C904 C902 1.478 . S
C904 C906 1.381 . S
C904 C910 1.383 . S
C905 C901 1.495 . S
C905 H911 0.959 . S
C905 H912 0.961 . S
C905 H913 0.960 . S
C906 C904 1.381 . S
C906 C907 1.394 . S
C906 H914 0.930 . S
C907 C906 1.394 . S
C907 C908 1.383 . S
C907 H915 0.929 . S
C908 C907 1.383 . S
C908 C909 1.377 . S
C909 H893 0.930 . S
C909 C908 1.377 . S
C909 C910 1.379 . S
C910 H894 0.931 . S
C910 C904 1.383 . S
C910 C909 1.379 . S
H911 C905 0.959 . S
H912 C905 0.961 . S
H913 C905 0.960 . S
H914 C906 0.930 . S
H915 C907 0.929 . S
H916 C924 0.929 . S
H917 C926 0.930 . S
H918 C928 0.930 . S
H919 C931 0.929 . S
H920 C934 0.930 . S
H921 C936 0.960 . S
H922 C936 0.960 . S
H923 C936 0.960 . S
C924 H916 0.929 . S
C924 C925 1.377 . S
C924 C926 1.384 . S
C925 C924 1.377 . S
C925 C931 1.390 . S
C926 H917 0.930 . S
C926 C924 1.384 . S
C926 C927 1.372 . S
C927 C926 1.372 . S
C927 C928 1.400 . S
C927 C932 1.490 . S
C928 H918 0.930 . S
C928 C927 1.400 . S
C928 C931 1.386 . S
H929 C945 0.930 . S
H930 C946 0.931 . S
C931 H919 0.929 . S
C931 C925 1.390 . S
C931 C928 1.386 . S
C932 C927 1.490 . S
C932 C934 1.395 . S
C932 C935 1.403 . S
H933 C939 0.930 . S
C934 H920 0.930 . S
C934 C932 1.395 . S
C934 C937 1.403 . S
C935 C932 1.403 . S
C935 C936 1.524 . S
C935 C939 1.400 . S
C936 H921 0.960 . S
C936 H922 0.960 . S
C936 H923 0.960 . S
C936 C935 1.524 . S
C937 C934 1.403 . S
C937 C938 1.392 . S
C937 C941 1.495 . S
C938 C937 1.392 . S
C938 C939 1.385 . S
C938 C940 1.478 . S
C939 H933 0.930 . S
C939 C935 1.400 . S
C939 C938 1.385 . S
C940 C938 1.478 . S
C940 C942 1.381 . S
C940 C946 1.383 . S
C941 C937 1.495 . S
C941 H947 0.959 1_556 S
C941 H948 0.961 . S
C941 H949 0.960 . S
C942 C940 1.381 . S
C942 C943 1.394 . S
C942 H950 0.930 . S
C943 C942 1.394 . S
C943 C944 1.383 . S
C943 H951 0.929 . S
C944 C943 1.383 . S
C944 C945 1.377 . S
C945 H929 0.930 . S
C945 C944 1.377 . S
C945 C946 1.379 . S
C946 H930 0.931 . S
C946 C940 1.383 . S
C946 C945 1.379 . S
H947 C941 0.959 1_554 S
H948 C941 0.961 . S
H949 C941 0.960 . S
H950 C942 0.930 . S
H951 C943 0.929 . S
H952 C960 0.929 . S
H953 C962 0.930 . S
H954 C964 0.930 . S
H955 C967 0.929 . S
H956 C970 0.939 . S
H957 C972 0.960 . S
H958 C972 0.960 1_455 S
H959 C972 0.960 . S
C960 H952 0.929 . S
C960 C961 1.345 1_455 S
C960 C962 1.384 . S
C961 C960 1.345 1_655 S
C961 C967 1.424 . S
C962 H953 0.930 . S
C962 C960 1.384 . S
C962 C963 1.372 1_455 S
C963 C962 1.372 1_655 S
C963 C964 1.400 . S
C963 C968 1.490 . S
C964 H954 0.930 . S
C964 C963 1.400 . S
C964 C967 1.386 . S
H965 C981 0.930 . S
H966 C982 0.931 . S
C967 H955 0.929 . S
C967 C961 1.424 . S
C967 C964 1.386 . S
C968 C963 1.490 . S
C968 C970 1.389 1_655 S
C968 C971 1.403 . S
H969 C975 0.930 . S
C970 H956 0.939 . S
C970 C968 1.389 1_455 S
C970 C973 1.402 1_455 S
C971 C968 1.403 . S
C971 C972 1.524 . S
C971 C975 1.400 . S
C972 H957 0.960 . S
C972 H958 0.960 1_655 S
C972 H959 0.960 . S
C972 C971 1.524 . S
C973 C970 1.402 1_655 S
C973 C974 1.393 . S
C973 C977 1.495 1_655 S
C974 C973 1.393 . S
C974 C975 1.385 . S
C974 C976 1.478 . S
C975 H969 0.930 . S
C975 C971 1.400 . S
C975 C974 1.385 . S
C976 C974 1.478 . S
C976 C978 1.381 1_655 S
C976 C982 1.383 . S
C977 C973 1.495 1_455 S
C977 H983 0.959 . S
C977 H984 0.961 1_455 S
C977 H985 0.960 . S
C978 C976 1.381 1_455 S
C978 C979 1.394 . S
C978 H986 0.930 . S
C979 C978 1.394 . S
C979 C980 1.383 1_455 S
C979 H987 0.929 . S
C980 C979 1.383 1_655 S
C980 C981 1.377 . S
C981 H965 0.930 . S
C981 C980 1.377 . S
C981 C982 1.379 . S
C982 H966 0.931 . S
C982 C976 1.383 . S
C982 C981 1.379 . S
H983 C977 0.959 . S
H984 C977 0.961 1_655 S
H985 C977 0.960 . S
H986 C978 0.930 . S
H987 C979 0.929 . S
H988 C996 0.929 . S
H989 C998 0.930 . S
H990 C1000 0.930 . S
H991 C1003 0.929 . S
H992 C1006 0.930 . S
H993 C1008 0.960 . S
H994 C1008 0.960 . S
H995 C1008 0.960 1_545 S
C996 H988 0.929 . S
C996 C997 1.377 . S
C996 C998 1.384 . S
C997 C996 1.377 . S
C997 C1003 1.390 1_565 S
C998 H989 0.930 . S
C998 C996 1.384 . S
C998 C999 1.372 . S
C999 C998 1.372 . S
C999 C1000 1.400 1_565 S
C999 C1004 1.490 . S
C1000 H990 0.930 . S
C1000 C999 1.400 1_545 S
C1000 C1003 1.386 . S
H1001 C1017 0.930 . S
H1002 C1018 0.931 . S
C1003 H991 0.929 . S
C1003 C997 1.390 1_545 S
C1003 C1000 1.386 . S
C1004 C999 1.490 . S
C1004 C1006 1.395 . S
C1004 C1007 1.403 . S
H1005 C1011 0.930 . S
C1006 H992 0.930 . S
C1006 C1004 1.395 . S
C1006 C1009 1.403 . S
C1007 C1004 1.403 . S
C1007 C1008 1.524 . S
C1007 C1011 1.400 . S
C1008 H993 0.960 . S
C1008 H994 0.960 . S
C1008 H995 0.960 1_565 S
C1008 C1007 1.524 . S
C1009 C1006 1.403 . S
C1009 C1010 1.392 . S
C1009 C1013 1.495 . S
C1010 C1009 1.392 . S
C1010 C1011 1.385 . S
C1010 C1012 1.478 . S
C1011 H1005 0.930 . S
C1011 C1007 1.400 . S
C1011 C1010 1.385 . S
C1012 C1010 1.478 . S
C1012 C1014 1.381 . S
C1012 C1018 1.383 1_565 S
C1013 C1009 1.495 . S
C1013 H1019 0.959 . S
C1013 H1020 0.961 1_565 S
C1013 H1021 0.960 . S
C1014 C1012 1.381 . S
C1014 C1015 1.394 . S
C1014 H1022 0.930 . S
C1015 C1014 1.394 . S
C1015 C1016 1.383 . S
C1015 H1023 0.929 . S
C1016 C1015 1.383 . S
C1016 C1017 1.377 1_565 S
C1017 H1001 0.930 . S
C1017 C1016 1.377 1_545 S
C1017 C1018 1.379 . S
C1018 H1002 0.931 . S
C1018 C1012 1.383 1_545 S
C1018 C1017 1.379 . S
H1019 C1013 0.959 . S
H1020 C1013 0.961 1_545 S
H1021 C1013 0.960 . S
H1022 C1014 0.930 . S
H1023 C1015 0.929 . S
H1024 C1032 0.929 . S
H1025 C1034 0.930 . S
H1026 C1036 0.930 . S
H1027 C1039 0.929 . S
H1028 C1042 0.930 . S
H1029 C1044 0.960 . S
H1030 C1044 0.960 . S
H1031 C1044 0.960 . S
C1032 H1024 0.929 . S
C1032 C1033 1.377 . S
C1032 C1034 1.384 . S
C1033 C1032 1.377 . S
C1033 C1039 1.390 . S
C1034 H1025 0.930 . S
C1034 C1032 1.384 . S
C1034 C1035 1.372 . S
C1035 C1034 1.372 . S
C1035 C1036 1.400 . S
C1035 C1040 1.490 . S
C1036 H1026 0.930 . S
C1036 C1035 1.400 . S
C1036 C1039 1.386 . S
H1037 C1053 0.930 . S
H1038 C1054 0.931 . S
C1039 H1027 0.929 . S
C1039 C1033 1.390 . S
C1039 C1036 1.386 . S
C1040 C1035 1.490 . S
C1040 C1042 1.395 . S
C1040 C1043 1.403 . S
H1041 C1047 0.930 . S
C1042 H1028 0.930 . S
C1042 C1040 1.395 . S
C1042 C1045 1.403 . S
C1043 C1040 1.403 . S
C1043 C1044 1.524 . S
C1043 C1047 1.400 . S
C1044 H1029 0.960 . S
C1044 H1030 0.960 . S
C1044 H1031 0.960 . S
C1044 C1043 1.524 . S
C1045 C1042 1.403 . S
C1045 C1046 1.392 . S
C1045 C1049 1.495 . S
C1046 C1045 1.392 . S
C1046 C1047 1.385 . S
C1046 C1048 1.478 . S
C1047 H1041 0.930 . S
C1047 C1043 1.400 . S
C1047 C1046 1.385 . S
C1048 C1046 1.478 . S
C1048 C1050 1.381 . S
C1048 C1054 1.383 . S
C1049 C1045 1.495 . S
C1049 H1055 0.959 . S
C1049 H1056 0.961 . S
C1049 H1057 0.960 . S
C1050 C1048 1.381 . S
C1050 C1051 1.394 . S
C1050 H1058 0.930 . S
C1051 C1050 1.394 . S
C1051 C1052 1.383 . S
C1051 H1059 0.929 . S
C1052 C1051 1.383 . S
C1052 C1053 1.377 . S
C1053 H1037 0.930 . S
C1053 C1052 1.377 . S
C1053 C1054 1.379 . S
C1054 H1038 0.931 . S
C1054 C1048 1.383 . S
C1054 C1053 1.379 . S
H1055 C1049 0.959 . S
H1056 C1049 0.961 . S
H1057 C1049 0.960 . S
H1058 C1050 0.930 . S
H1059 C1051 0.929 . S
H1060 C1068 0.929 . S
H1061 C1070 0.930 . S
H1062 C1072 0.930 . S
H1063 C1075 0.929 . S
H1064 C1078 0.930 . S
H1065 C1080 0.960 . S
H1066 C1080 0.960 . S
H1067 C1080 0.960 . S
C1068 H1060 0.929 . S
C1068 C1069 1.377 . S
C1068 C1070 1.384 . S
C1069 C1068 1.377 . S
C1069 C1075 1.390 . S
C1070 H1061 0.930 . S
C1070 C1068 1.384 . S
C1070 C1071 1.372 . S
C1071 C1070 1.372 . S
C1071 C1072 1.400 . S
C1071 C1076 1.490 . S
C1072 H1062 0.930 . S
C1072 C1071 1.400 . S
C1072 C1075 1.386 . S
H1073 C1089 0.930 . S
H1074 C1090 0.931 . S
C1075 H1063 0.929 . S
C1075 C1069 1.390 . S
C1075 C1072 1.386 . S
C1076 C1071 1.490 . S
C1076 C1078 1.395 . S
C1076 C1079 1.403 . S
H1077 C1083 0.930 . S
C1078 H1064 0.930 . S
C1078 C1076 1.395 . S
C1078 C1081 1.403 . S
C1079 C1076 1.403 . S
C1079 C1080 1.524 . S
C1079 C1083 1.400 . S
C1080 H1065 0.960 . S
C1080 H1066 0.960 . S
C1080 H1067 0.960 . S
C1080 C1079 1.524 . S
C1081 C1078 1.403 . S
C1081 C1082 1.392 . S
C1081 C1085 1.495 . S
C1082 C1081 1.392 . S
C1082 C1083 1.385 . S
C1082 C1084 1.478 . S
C1083 H1077 0.930 . S
C1083 C1079 1.400 . S
C1083 C1082 1.385 . S
C1084 C1082 1.478 . S
C1084 C1086 1.381 . S
C1084 C1090 1.383 . S
C1085 C1081 1.495 . S
C1085 H1091 0.959 . S
C1085 H1092 0.961 . S
C1085 H1093 0.960 . S
C1086 C1084 1.381 . S
C1086 C1087 1.394 . S
C1086 H1094 0.930 . S
C1087 C1086 1.394 . S
C1087 C1088 1.383 . S
C1087 H1095 0.929 . S
C1088 C1087 1.383 . S
C1088 C1089 1.377 . S
C1089 H1073 0.930 . S
C1089 C1088 1.377 . S
C1089 C1090 1.379 . S
C1090 H1074 0.931 . S
C1090 C1084 1.383 . S
C1090 C1089 1.379 . S
H1091 C1085 0.959 . S
H1092 C1085 0.961 . S
H1093 C1085 0.960 . S
H1094 C1086 0.930 . S
H1095 C1087 0.929 . S
C241 C61 1.635 1_545 S
C260 C81 1.723 1_545 S
C296 C121 1.745 . S
C277 C70 1.653 . S
C332 C161 1.739 . S
C313 C43 1.662 . S
C368 C201 1.730 1_455 S
C349 C52 1.648 . S
C404 C90 1.713 1_565 S
C385 C25 1.647 . S
C421 C34 1.660 . S
C440 C130 1.746 . S
C457 C7 1.666 . S
C476 C170 1.741 . S
C493 C16 1.652 1_455 S
C512 C210 1.738 1_655 S
C548 C87 0.216 . S
C529 C50 0.232 1_455 S
C584 C127 0.312 . S
C565 C59 0.262 1_545 S
C620 C167 0.341 . S
C601 C67 0.258 . S
C637 C41 0.269 . S
C656 C207 0.388 . S
C673 C14 0.255 . S
C692 C78 0.206 . S
C728 C118 0.221 . S
C709 C23 0.260 . S
C764 C158 0.360 . S
C745 C31 0.249 . S
C781 C5 0.227 . S
C800 C198 0.371 . S
C817 C49 1.842 1_455 S
C836 C91 2.024 . S
C853 C58 1.788 1_545 S
C872 C131 1.952 . S
C908 C171 1.945 . S
C889 C68 1.766 . S
C944 C211 1.989 . S
C925 C40 1.816 . S
C961 C13 1.843 . S
C980 C82 2.016 . S
C1016 C122 1.973 . S
C997 C22 1.790 . S
C1052 C162 1.948 . S
C1033 C32 1.771 . S
C1069 C4 1.811 . S
C1088 C202 1.997 . S
