# Generated by pormake.
# Topology anh, (6,3)-cn, num edge types: 1
# Building blocks:
#     Node 0, Type 0, BuildingBlock: GEDQOX_clean_sbu_0, # of connection points: 6
#     Node 1, Type 0, BuildingBlock: GEDQOX_clean_sbu_0, # of connection points: 6
#     Node 2, Type 0, BuildingBlock: GEDQOX_clean_sbu_0, # of connection points: 6
#     Node 3, Type 1, BuildingBlock: BETDAH_clean_linker_0, # of connection points: 3
#     Node 4, Type 1, BuildingBlock: BETDAH_clean_linker_0, # of connection points: 3
#     Node 5, Type 1, BuildingBlock: BETDAH_clean_linker_0, # of connection points: 3
#     Node 6, Type 1, BuildingBlock: BETDAH_clean_linker_0, # of connection points: 3
#     Node 7, Type 1, BuildingBlock: BETDAH_clean_linker_0, # of connection points: 3
#     Node 8, Type 1, BuildingBlock: BETDAH_clean_linker_0, # of connection points: 3
#     Edge 9, Type (0, 1), BuildingBlock: UVAHIK_clean_linker_0, # of connection points: 2
#     Edge 10, Type (0, 1), BuildingBlock: UVAHIK_clean_linker_0, # of connection points: 2
#     Edge 11, Type (0, 1), BuildingBlock: UVAHIK_clean_linker_0, # of connection points: 2
#     Edge 12, Type (0, 1), BuildingBlock: UVAHIK_clean_linker_0, # of connection points: 2
#     Edge 13, Type (0, 1), BuildingBlock: UVAHIK_clean_linker_0, # of connection points: 2
#     Edge 14, Type (0, 1), BuildingBlock: UVAHIK_clean_linker_0, # of connection points: 2
#     Edge 15, Type (0, 1), BuildingBlock: UVAHIK_clean_linker_0, # of connection points: 2
#     Edge 16, Type (0, 1), BuildingBlock: UVAHIK_clean_linker_0, # of connection points: 2
#     Edge 17, Type (0, 1), BuildingBlock: UVAHIK_clean_linker_0, # of connection points: 2
#     Edge 18, Type (0, 1), BuildingBlock: UVAHIK_clean_linker_0, # of connection points: 2
#     Edge 19, Type (0, 1), BuildingBlock: UVAHIK_clean_linker_0, # of connection points: 2
#     Edge 20, Type (0, 1), BuildingBlock: UVAHIK_clean_linker_0, # of connection points: 2
#     Edge 21, Type (0, 1), BuildingBlock: UVAHIK_clean_linker_0, # of connection points: 2
#     Edge 22, Type (0, 1), BuildingBlock: UVAHIK_clean_linker_0, # of connection points: 2
#     Edge 23, Type (0, 1), BuildingBlock: UVAHIK_clean_linker_0, # of connection points: 2
#     Edge 24, Type (0, 1), BuildingBlock: UVAHIK_clean_linker_0, # of connection points: 2
#     Edge 25, Type (0, 1), BuildingBlock: UVAHIK_clean_linker_0, # of connection points: 2
#     Edge 26, Type (0, 1), BuildingBlock: UVAHIK_clean_linker_0, # of connection points: 2
# Relax obj value: 0.116
# Max RMSD: 0.171
# Mean RMSD: 0.104
data_MOF--net-anh--node1-GEDQOX_clean_sbu_0--node2-BETDAH_clean_linker_0--edge1-UVAHIK_clean_linker_0
_symmetry_space_group_name_H-M    P1
_symmetry_Int_Tables_number       1
_symmetry_cell_setting            triclinic
loop_
_symmetry_equiv_pos_as_xyz
'x, y, z'
_cell_length_a     40.252759
_cell_length_b     39.162482
_cell_length_c     64.184469
_cell_angle_alpha  95.391532
_cell_angle_beta   93.407979
_cell_angle_gamma 106.23528
loop_
_atom_site_label
_atom_site_type_symbol
_atom_site_fract_x
_atom_site_fract_y
_atom_site_fract_z
_atom_type_partial_charge
Nd0 Nd 0.08445 0.57291 0.14844 0.0
Nd1 Nd 0.06536 0.4967 0.15741 0.0
C2 C 0.11246 0.63647 0.13597 0.0
C3 C 0.14608 0.66407 0.141 0.0
C4 C 0.15661 0.69134 0.12808 0.0
C5 C 0.18828 0.71802 0.13305 0.0
C6 C 0.20997 0.71796 0.15111 0.0
C7 C 0.19928 0.69022 0.16389 0.0
C8 C 0.16774 0.6635 0.15883 0.0
C9 C 0.07879 0.56368 0.1901 0.0
C10 C 0.14808 0.53315 0.1541 0.0
C11 C 1.04015 0.43493 0.17274 0.0
C12 C 1.00679 0.4116 0.1779 0.0
C13 C 0.97741 0.42401 0.17929 0.0
C14 C 0.94582 0.40115 0.18392 0.0
C15 C 0.94314 0.3655 0.18734 0.0
C16 C 0.9728 0.35335 0.18597 0.0
C17 C 1.00426 0.37618 0.18128 0.0
C18 C 0.07376 0.50518 0.11615 0.0
C19 C 1.00198 0.53549 0.14807 0.0
O20 O 0.11332 0.60642 0.12556 0.0
O21 O 0.09219 0.63145 0.15125 0.0
O22 O 0.06737 0.58684 0.18101 0.0
O23 O 0.0935 0.54732 0.17756 0.0
O24 O 0.13797 0.56016 0.14757 0.0
O25 O 0.12523 0.50604 0.16103 0.0
O26 O 0.05274 0.46561 0.18449 0.0
O27 O 1.04383 0.43753 0.15281 0.0
O28 O 0.08453 0.48221 0.12594 0.0
O29 O 0.05778 0.52188 0.12775 0.0
O30 O 1.01198 0.51076 0.15758 0.0
O31 O 1.0253 0.56045 0.13989 0.0
H32 H 0.14031 0.69206 0.11417 0.0
H33 H 0.19585 0.73853 0.12265 0.0
H34 H 0.21493 0.68947 0.17805 0.0
H35 H 0.16007 0.64256 0.16897 0.0
H36 H 0.97893 0.45133 0.17681 0.0
H37 H 0.92363 0.41151 0.18505 0.0
H38 H 0.97159 0.32597 0.1882 0.0
H39 H 1.02664 0.36608 0.18018 0.0
Nd40 Nd 0.54085 0.0177 0.51544 0.0
Nd41 Nd 0.61592 0.03734 0.50613 0.0
C42 C 0.47886 0.99014 0.52848 0.0
C43 C 0.45104 0.95638 0.52309 0.0
C44 C 0.4258 0.94513 0.53705 0.0
C45 C 0.39909 0.91318 0.53191 0.0
C46 C 0.39709 0.89195 0.51264 0.0
C47 C 0.42276 0.90334 0.49878 0.0
C48 C 0.44954 0.93514 0.504 0.0
C49 C 0.55128 0.02279 0.47379 0.0
C50 C 0.58013 0.95373 0.50852 0.0
C51 C 0.67628 0.06355 0.49069 0.0
C52 C 0.69786 0.09814 0.48549 0.0
C53 C 0.72393 0.09878 0.47189 0.0
C54 C 0.74528 0.13138 0.46711 0.0
C55 C 0.74094 0.16402 0.47585 0.0
C56 C 0.71439 0.16319 0.4893 0.0
C57 C 0.69301 0.13052 0.49406 0.0
C58 C 0.60603 0.03054 0.54763 0.0
C59 C 0.5778 0.1009 0.51607 0.0
O60 O 0.50762 0.98765 0.53795 0.0
O61 O 0.48441 0.01166 0.51385 0.0
O62 O 0.52799 0.03409 0.48305 0.0
O63 O 0.56696 0.00815 0.48613 0.0
O64 O 0.55397 0.96393 0.51586 0.0
O65 O 0.60638 0.9766 0.50126 0.0
O66 O 0.64712 0.04915 0.47892 0.0
O67 O 0.67305 0.06054 0.51064 0.0
O68 O 0.62939 0.01988 0.53792 0.0
O69 O 0.58997 0.04581 0.53581 0.0
O70 O 0.60092 0.09041 0.50527 0.0
O71 O 0.55458 0.07781 0.52533 0.0
H72 H 0.42675 0.96107 0.55193 0.0
H73 H 0.38016 0.905 0.54312 0.0
H74 H 0.42187 0.88803 0.4837 0.0
H75 H 0.46895 0.94334 0.49305 0.0
H76 H 0.72802 0.07402 0.46514 0.0
H77 H 0.76571 0.13101 0.45692 0.0
H78 H 0.71005 0.18779 0.4961 0.0
H79 H 0.67288 0.13053 0.50453 0.0
Nd80 Nd 0.54155 0.54547 0.82642 0.0
Nd81 Nd 0.61526 0.57485 0.84249 0.0
C82 C 0.47957 0.53027 0.80574 0.0
C83 C 0.45875 0.54449 0.79093 0.0
C84 C 0.46189 0.54073 0.76917 0.0
C85 C 0.43737 0.54773 0.75507 0.0
C86 C 0.40921 0.55841 0.76249 0.0
C87 C 0.40797 0.56498 0.78435 0.0
C88 C 0.43236 0.55799 0.79837 0.0
C89 C 0.55252 0.54433 0.86904 0.0
C90 C 0.57483 0.63177 0.83615 0.0
C91 C 0.67877 0.59101 0.86114 0.0
C92 C 0.70985 0.58257 0.85428 0.0
C93 C 0.74041 0.59169 0.86772 0.0
C94 C 0.7704 0.58505 0.86061 0.0
C95 C 0.77024 0.56939 0.8399 0.0
C96 C 0.73927 0.55994 0.82661 0.0
C97 C 0.70931 0.56639 0.83377 0.0
C98 C 0.60443 0.57299 0.79958 0.0
C99 C 0.58223 0.4866 0.83157 0.0
O100 O 0.50516 0.51953 0.7986 0.0
O101 O 0.48662 0.54614 0.82502 0.0
O102 O 0.53053 0.51901 0.85661 0.0
O103 O 0.56696 0.57014 0.85917 0.0
O104 O 0.55453 0.60578 0.82263 0.0
O105 O 0.59696 0.62457 0.84979 0.0
O106 O 0.65362 0.56379 0.86523 0.0
O107 O 0.66781 0.61246 0.8499 0.0
O108 O 0.62735 0.59847 0.81126 0.0
O109 O 0.59 0.5487 0.81031 0.0
O110 O 0.60843 0.51365 0.84049 0.0
O111 O 0.55354 0.49183 0.82337 0.0
H112 H 0.48214 0.53055 0.76292 0.0
H113 H 0.43933 0.54278 0.73837 0.0
H114 H 0.38648 0.57259 0.79079 0.0
H115 H 0.42919 0.56102 0.81502 0.0
H116 H 0.74112 0.60413 0.88361 0.0
H117 H 0.79365 0.592 0.87137 0.0
H118 H 0.73831 0.54819 0.81054 0.0
H119 H 0.68579 0.55926 0.82319 0.0
H120 H 0.52133 0.98567 0.25285 0.0
H121 H 0.60081 0.08308 0.24718 0.0
H122 H 0.53111 0.02805 0.19332 0.0
C123 C 0.53474 0.0055 0.24317 0.0
C124 C 0.52288 0.00303 0.22191 0.0
C125 C 0.56252 0.03443 0.2524 0.0
C126 C 0.57944 0.0607 0.24004 0.0
C127 C 0.56833 0.05812 0.21857 0.0
C128 C 0.53977 0.02967 0.20979 0.0
N129 N 0.58463 0.08383 0.20537 0.0
C130 C 0.61744 0.10823 0.20991 0.0
H131 H 0.5714 0.46354 0.57988 0.0
H132 H 0.57728 0.56927 0.56402 0.0
H133 H 0.57863 0.48575 0.51572 0.0
C134 C 0.57257 0.48194 0.56816 0.0
C135 C 0.57433 0.46999 0.54705 0.0
C136 C 0.57363 0.51763 0.57448 0.0
C137 C 0.57667 0.54179 0.55929 0.0
C138 C 0.5785 0.53029 0.53804 0.0
C139 C 0.57746 0.49451 0.53211 0.0
N140 N 0.58128 0.55367 0.52213 0.0
C141 C 0.58214 0.58963 0.52532 0.0
H142 H 0.05818 0.50624 0.88669 0.0
H143 H 0.12816 0.4415 0.89335 0.0
H144 H 0.09398 0.4612 0.83207 0.0
C145 C 0.07384 0.49043 0.87986 0.0
C146 C 0.0736 0.48512 0.85793 0.0
C147 C 0.09313 0.47468 0.89295 0.0
C148 C 0.11327 0.45422 0.88368 0.0
C149 C 0.11438 0.44997 0.86182 0.0
C150 C 0.09415 0.46517 0.84902 0.0
N151 N 0.13594 0.43035 0.85298 0.0
C152 C 0.14709 0.43505 0.83311 0.0
H153 H 0.12225 0.58408 0.4099 0.0
H154 H 1.02561 0.50625 0.41721 0.0
H155 H 0.08647 0.57219 0.47136 0.0
C156 C 0.10347 0.57044 0.42002 0.0
C157 C 0.10825 0.58125 0.44172 0.0
C158 C 0.07362 0.54368 0.41106 0.0
C159 C 1.04869 0.52681 0.42411 0.0
C160 C 0.05358 0.53689 0.44598 0.0
C161 C 0.08305 0.56434 0.45455 0.0
N162 N 1.02929 0.52064 0.45986 0.0
C163 C 1.00231 0.48931 0.45455 0.0
H164 H 0.60074 0.1287 0.76731 0.0
H165 H 0.58545 0.01989 0.78066 0.0
H166 H 0.57961 0.10103 0.82933 0.0
C167 C 0.59612 0.1089 0.77835 0.0
C168 C 0.59096 0.11927 0.79913 0.0
C169 C 0.59371 0.07306 0.77143 0.0
C170 C 0.58697 0.04746 0.78583 0.0
C171 C 0.5822 0.05755 0.80684 0.0
C172 C 0.58362 0.09332 0.81322 0.0
N173 N 0.57568 0.03262 0.82195 0.0
C174 C 0.57764 -0.00248 0.81893 0.0
H175 H 0.64697 0.5407 0.09101 0.0
H176 H 0.5414 0.53594 0.10189 0.0
H177 H 0.61538 0.53765 0.15385 0.0
C178 C 0.62713 0.5395 0.10185 0.0
C179 C 0.63604 0.5395 0.12336 0.0
C180 C 0.59328 0.53795 0.09394 0.0
C181 C 0.56744 0.53709 0.10795 0.0
C182 C 0.57489 0.53691 0.12963 0.0
C183 C 0.60932 0.53771 0.13719 0.0
N184 N 0.5487 0.53602 0.14415 0.0
C185 C 0.51353 0.53531 0.13977 0.0
C186 C 0.21052 0.56255 0.14623 0.0
C187 C 0.18584 0.53337 0.15307 0.0
C188 C 0.24546 0.56265 0.14463 0.0
C189 C 0.30416 0.50162 0.14223 0.0
H190 H 0.3779 0.59088 0.15247 0.0
C191 C 0.45153 0.5046 0.14548 0.0
C192 C 0.4763 0.53417 0.13927 0.0
C193 C 0.41645 0.5043 0.14671 0.0
C194 C 0.35784 0.56559 0.14921 0.0
H195 H 0.17989 0.48125 0.16364 0.0
H196 H 0.24034 0.48146 0.16106 0.0
H197 H 0.31792 0.59078 0.15576 0.0
H198 H 0.48308 0.58683 0.1295 0.0
H199 H 0.42222 0.58631 0.1312 0.0
H200 H 0.34405 0.47643 0.13565 0.0
C201 C 0.23269 0.50435 0.15664 0.0
C202 C 0.32295 0.56552 0.15115 0.0
C203 C 0.19771 0.50431 0.15831 0.0
C204 C 0.4648 0.56344 0.1342 0.0
C205 C 0.42968 0.5632 0.13543 0.0
C206 C 0.33905 0.5017 0.14027 0.0
C207 C 0.25744 0.53351 0.14972 0.0
C208 C 0.29521 0.53354 0.14772 0.0
C209 C 0.40463 0.53369 0.14185 0.0
C210 C 0.36681 0.53368 0.14373 0.0
H211 H 0.20284 0.58552 0.14193 0.0
H212 H 0.26294 0.58554 0.13895 0.0
H213 H 0.28407 0.47634 0.13902 0.0
H214 H 0.45942 0.48174 0.14979 0.0
H215 H 0.3988 0.48116 0.15205 0.0
C216 C 0.77539 0.20328 0.45111 0.0
C217 C 0.76467 0.19868 0.47138 0.0
C218 C 0.799 0.23525 0.44717 0.0
C219 C 0.83789 0.3304 0.46892 0.0
H220 H 0.91209 0.32448 0.43415 0.0
C221 C 0.93976 0.45745 0.45013 0.0
C222 C 0.97431 0.45647 0.45186 0.0
C223 C 0.91259 0.42599 0.4501 0.0
C224 C 0.89159 0.32661 0.44394 0.0
H225 H 0.77042 0.22424 0.50339 0.0
H226 H 0.81158 0.27988 0.49654 0.0
H227 H 0.86759 0.27 0.4394 0.0
H228 H 1.00816 0.4226 0.45459 0.0
H229 H 0.96085 0.36751 0.45468 0.0
H230 H 0.86254 0.38684 0.47407 0.0
C231 C 0.80133 0.259 0.48359 0.0
C232 C 0.86584 0.29539 0.44676 0.0
C233 C 0.7777 0.22706 0.48753 0.0
C234 C 0.98153 0.42371 0.45302 0.0
C235 C 0.95443 0.39224 0.453 0.0
C236 C 0.86363 0.36161 0.46609 0.0
C237 C 0.81251 0.2634 0.4634 0.0
C238 C 0.83886 0.29685 0.45948 0.0
C239 C 0.91962 0.39306 0.4519 0.0
C240 C 0.89102 0.36008 0.45374 0.0
H241 H 0.76544 0.18219 0.43824 0.0
H242 H 0.80659 0.23794 0.43136 0.0
H243 H 0.81728 0.33258 0.47861 0.0
H244 H 0.93378 0.48264 0.44933 0.0
H245 H 0.88611 0.42753 0.44895 0.0
C246 C 0.59815 0.69798 0.84765 0.0
C247 C 0.57427 0.66938 0.83492 0.0
C248 C 0.59873 0.73348 0.84566 0.0
C249 C 0.57109 0.79 0.8085 0.0
H250 H 0.58843 0.85972 0.85784 0.0
C251 C 0.55534 0.93288 0.80604 0.0
C252 C 0.57945 0.96106 0.81876 0.0
C253 C 0.55542 0.89733 0.80738 0.0
C254 C 0.58397 0.84074 0.84385 0.0
H255 H 0.53187 0.6559 0.81031 0.0
H256 H 0.53252 0.71757 0.80709 0.0
H257 H 0.58659 0.79798 0.86177 0.0
H258 H 0.62278 0.97483 0.84259 0.0
H259 H 0.62337 0.91295 0.84483 0.0
H260 H 0.56828 0.83281 0.7906 0.0
C261 C 0.55126 0.71268 0.81838 0.0
C262 C 0.58291 0.80522 0.84611 0.0
C263 C 0.5507 0.6772 0.82035 0.0
C264 C 0.604 0.9534 0.83257 0.0
C265 C 0.60408 0.91795 0.83397 0.0
C266 C 0.57208 0.82553 0.80624 0.0
C267 C 0.57543 0.74138 0.8309 0.0
C268 C 0.57647 0.77931 0.82847 0.0
C269 C 0.57953 0.88934 0.82158 0.0
C270 C 0.57859 0.85142 0.82388 0.0
H271 H 0.61682 0.69302 0.85897 0.0
H272 H 0.61801 0.75479 0.85541 0.0
H273 H 0.56664 0.77102 0.7945 0.0
H274 H 0.53598 0.93826 0.79539 0.0
H275 H 0.53592 0.87606 0.79774 0.0
C276 C 0.93847 0.51011 0.15577 0.0
C277 C 0.96407 0.53542 0.14666 0.0
C278 C 0.90334 0.5106 0.15468 0.0
C279 C 0.84569 0.56996 0.14299 0.0
H280 H 0.77079 0.48195 0.14005 0.0
C281 C 0.70112 0.5664 0.12223 0.0
C282 C 0.67355 0.54177 0.13033 0.0
C283 C 0.73589 0.56594 0.1258 0.0
C284 C 0.79121 0.50699 0.14114 0.0
H285 H 0.97146 0.58109 0.12901 0.0
H286 H 0.91098 0.5817 0.12685 0.0
H287 H 0.83104 0.48014 0.14258 0.0
H288 H 0.66222 0.49759 0.14915 0.0
H289 H 0.72293 0.49696 0.15566 0.0
H290 H 0.80601 0.59683 0.14146 0.0
C291 C 0.9179 0.56162 0.13525 0.0
C292 C 0.82619 0.50595 0.1426 0.0
C293 C 0.95297 0.56112 0.13634 0.0
C294 C 0.68247 0.51724 0.14276 0.0
C295 C 0.71748 0.5166 0.14624 0.0
C296 C 0.81081 0.57099 0.14151 0.0
C297 C 0.89219 0.53647 0.14445 0.0
C298 C 0.85432 0.53742 0.14338 0.0
C299 C 0.74498 0.54074 0.13761 0.0
C300 C 0.78266 0.53953 0.14036 0.0
H301 H 0.94556 0.4899 0.16395 0.0
H302 H 0.88503 0.49088 0.16226 0.0
H303 H 0.86599 0.59509 0.14408 0.0
H304 H 0.69568 0.5858 0.1126 0.0
H305 H 0.75558 0.58484 0.11856 0.0
C306 C 0.33423 0.85643 0.51198 0.0
C307 C 0.36817 0.85837 0.50685 0.0
C308 C 0.30692 0.82526 0.50603 0.0
C309 C 0.28022 0.74566 0.46707 0.0
H310 H 0.21209 0.70811 0.5056 0.0
C311 C 0.17219 0.61275 0.44456 0.0
C312 C 0.13894 0.61108 0.45078 0.0
C313 C 0.20081 0.64168 0.45233 0.0
C314 C 0.23064 0.71845 0.49455 0.0
H315 H 0.39995 0.82838 0.49188 0.0
H316 H 0.35216 0.77433 0.48119 0.0
H317 H 0.2606 0.76112 0.51736 0.0
H318 H 0.10962 0.63842 0.47002 0.0
H319 H 0.15935 0.6892 0.4833 0.0
H320 H 0.25005 0.70368 0.44409 0.0
C321 C 0.34672 0.79712 0.48968 0.0
C322 C 0.25848 0.74879 0.50133 0.0
C323 C 0.37408 0.82817 0.49576 0.0
C324 C 0.13501 0.63874 0.46515 0.0
C325 C 0.16357 0.66783 0.47279 0.0
C326 C 0.25226 0.71552 0.46023 0.0
C327 C 0.31281 0.79537 0.49467 0.0
C328 C 0.28355 0.76275 0.48765 0.0
C329 C 0.19684 0.66982 0.46637 0.0
C330 C 0.22704 0.70151 0.47386 0.0
H331 H 0.32853 0.87929 0.52019 0.0
H332 H 0.28098 0.82489 0.50988 0.0
H333 H 0.29884 0.75609 0.45606 0.0
H334 H 0.17608 0.5916 0.43371 0.0
H335 H 0.22609 0.6419 0.44734 0.0
C336 C 0.55495 0.42015 0.82834 0.0
C337 C 0.58508 0.44946 0.83046 0.0
C338 C 0.5573 0.38502 0.82692 0.0
C339 C 0.61142 0.32977 0.8093 0.0
H340 H 0.5612 0.26158 0.84463 0.0
C341 C 0.6219 0.18497 0.80243 0.0
C342 C 0.59263 0.1572 0.80572 0.0
C343 C 0.62269 0.22084 0.80719 0.0
C344 C 0.57499 0.27995 0.83435 0.0
H345 H 0.64136 0.46474 0.8327 0.0
H346 H 0.6454 0.40311 0.82953 0.0
H347 H 0.55888 0.32337 0.84927 0.0
H348 H 0.54124 0.14509 0.81657 0.0
H349 H 0.5417 0.20747 0.824 0.0
H350 H 0.62621 0.2865 0.79358 0.0
C351 C 0.61999 0.40753 0.82924 0.0
C352 C 0.57383 0.31552 0.83717 0.0
C353 C 0.61767 0.44277 0.83114 0.0
C354 C 0.56429 0.16601 0.81411 0.0
C355 C 0.56473 0.20192 0.81846 0.0
C356 C 0.61203 0.29406 0.80617 0.0
C357 C 0.58981 0.37829 0.82714 0.0
C358 C 0.59201 0.34081 0.82467 0.0
C359 C 0.59385 0.23 0.81491 0.0
C360 C 0.5938 0.26847 0.81863 0.0
H361 H 0.52945 0.42436 0.82786 0.0
H362 H 0.53361 0.36302 0.82518 0.0
H363 H 0.62535 0.34858 0.79926 0.0
H364 H 0.64422 0.17887 0.79612 0.0
H365 H 0.64602 0.24133 0.80473 0.0
C366 C 0.55155 0.89094 0.51604 0.0
C367 C 0.58015 0.91586 0.50923 0.0
C368 C 0.55208 0.85578 0.51791 0.0
C369 C 0.59695 0.78819 0.50104 0.0
H370 H 0.55792 0.7433 0.5489 0.0
C371 C 0.61257 0.65157 0.51968 0.0
C372 C 0.58337 0.62698 0.52588 0.0
C373 C 0.61281 0.68711 0.51831 0.0
C374 C 0.56863 0.75526 0.53533 0.0
H375 H 0.63164 0.92292 0.49877 0.0
H376 H 0.6327 0.86167 0.50219 0.0
H377 H 0.55693 0.80424 0.5447 0.0
H378 H 0.53165 0.61966 0.53572 0.0
H379 H 0.5318 0.68184 0.53333 0.0
H380 H 0.60864 0.7392 0.49167 0.0
C381 C 0.60964 0.86925 0.50588 0.0
C382 C 0.56803 0.79026 0.53289 0.0
C383 C 0.60909 0.90447 0.50399 0.0
C384 C 0.55457 0.63841 0.53107 0.0
C385 C 0.55477 0.674 0.52974 0.0
C386 C 0.59758 0.7532 0.50349 0.0
C387 C 0.58125 0.84449 0.51305 0.0
C388 C 0.58211 0.80721 0.51568 0.0
C389 C 0.58375 0.69874 0.52309 0.0
C390 C 0.5834 0.73623 0.52066 0.0
H391 H 0.52868 0.8986 0.52011 0.0
H392 H 0.52948 0.83737 0.5231 0.0
H393 H 0.60756 0.80009 0.48742 0.0
H394 H 0.63501 0.64315 0.51552 0.0
H395 H 0.63576 0.70547 0.51344 0.0
C396 C 0.83477 0.58782 0.83814 0.0
C397 C 0.80222 0.5628 0.83226 0.0
C398 C 0.86509 0.58061 0.83217 0.0
C399 C 0.89749 0.50367 0.81908 0.0
H400 H 0.98201 0.57791 0.81279 0.0
C401 C 1.02737 0.47422 0.82831 0.0
C402 C 0.04944 0.49784 0.8445 0.0
C403 C 0.99979 0.48345 0.81846 0.0
C404 C 0.95853 0.55683 0.81429 0.0
H405 H 0.77592 0.5112 0.81467 0.0
H406 H 0.82882 0.49906 0.80377 0.0
H407 H 0.92628 0.59146 0.8108 0.0
H408 H 0.06231 0.55093 0.86156 0.0
H409 H 1.01384 0.56691 0.84464 0.0
H410 H 0.92967 0.46948 0.8235 0.0
C411 C 0.83091 0.52402 0.81332 0.0
C412 C 0.92668 0.56459 0.81325 0.0
C413 C 0.80057 0.53112 0.81942 0.0
C414 C 1.04532 0.53204 0.84935 0.0
C415 C 1.01781 0.54132 0.83947 0.0
C416 C 0.92922 0.49588 0.81998 0.0
C417 C 0.86358 0.54831 0.82003 0.0
C418 C 0.89601 0.53848 0.81655 0.0
C419 C 0.99387 0.51649 0.82461 0.0
C420 C 0.96022 0.52276 0.81847 0.0
H421 H 0.8369 0.61281 0.84767 0.0
H422 H 0.88979 0.59975 0.83787 0.0
H423 H 0.87452 0.48299 0.82192 0.0
H424 H 1.02993 0.44764 0.82427 0.0
H425 H 0.98192 0.46397 0.8069 0.0
C426 C 0.24584 0.78259 0.15365 0.0
C427 C 0.24331 0.74688 0.15681 0.0
C428 C 0.2768 0.80984 0.15956 0.0
C429 C 0.35627 0.83244 0.19563 0.0
H430 H 0.3921 0.90572 0.15948 0.0
C431 C 0.48922 0.93787 0.21693 0.0
C432 C 0.49229 0.97312 0.21269 0.0
C433 C 0.4597 0.90997 0.20916 0.0
C434 C 0.38227 0.88575 0.16991 0.0
H435 H 0.27207 0.71197 0.16817 0.0
H436 H 0.32572 0.75958 0.17881 0.0
H437 H 0.33888 0.85791 0.14783 0.0
H438 H 0.46677 0.00671 0.1969 0.0
H439 H 0.41496 0.95821 0.18364 0.0
H440 H 0.39902 0.86045 0.21792 0.0
C441 C 0.30357 0.76647 0.17192 0.0
C442 C 0.35178 0.85828 0.16318 0.0
C443 C 0.27273 0.73918 0.16586 0.0
C444 C 0.46536 0.97975 0.20023 0.0
C445 C 0.43566 0.95188 0.19259 0.0
C446 C 0.38656 0.86002 0.20244 0.0
C447 C 0.30594 0.80214 0.16893 0.0
C448 C 0.33846 0.83128 0.17595 0.0
C449 C 0.43228 0.91662 0.1971 0.0
C450 C 0.40006 0.88706 0.18967 0.0
H451 H 0.22365 0.78971 0.14705 0.0
H452 H 0.27765 0.83712 0.15728 0.0
H453 H 0.34639 0.81236 0.20599 0.0
H454 H 0.50975 0.93183 0.22624 0.0
H455 H 0.45846 0.88311 0.21258 0.0
C456 C 0.60142 0.16421 0.50754 0.0
C457 C 0.57787 0.13905 0.51784 0.0
C458 C 0.60096 0.20002 0.50904 0.0
C459 C 0.54428 0.25793 0.52221 0.0
H460 H 0.63057 0.33473 0.52965 0.0
C461 C 0.54981 0.40418 0.54959 0.0
C462 C 0.57316 0.43194 0.54092 0.0
C463 C 0.54992 0.36861 0.54497 0.0
C464 C 0.60621 0.31362 0.52728 0.0
H465 H 0.53553 0.1321 0.53793 0.0
H466 H 0.53501 0.19431 0.54071 0.0
H467 H 0.63207 0.2726 0.52528 0.0
H468 H 0.61462 0.44383 0.5203 0.0
H469 H 0.61457 0.38152 0.51203 0.0
H470 H 0.51843 0.29888 0.52445 0.0
C471 C 0.55351 0.18635 0.53119 0.0
C472 C 0.60707 0.27795 0.52478 0.0
C473 C 0.55398 0.15063 0.52971 0.0
C474 C 0.59616 0.42309 0.52714 0.0
C475 C 0.59638 0.38742 0.52258 0.0
C476 C 0.54342 0.29354 0.52472 0.0
C477 C 0.57689 0.21154 0.52083 0.0
C478 C 0.57611 0.24961 0.52246 0.0
C479 C 0.57341 0.35975 0.53157 0.0
C480 C 0.57438 0.32188 0.52754 0.0
H481 H 0.62009 0.15625 0.49818 0.0
H482 H 0.61913 0.21856 0.50068 0.0
H483 H 0.51989 0.23687 0.52001 0.0
H484 H 0.5315 0.40999 0.56008 0.0
H485 H 0.53209 0.34812 0.55235 0.0
C486 C 0.36457 0.52539 0.73331 0.0
C487 C 0.37769 0.55556 0.74832 0.0
C488 C 0.32911 0.51347 0.72674 0.0
C489 C 0.24405 0.52766 0.7414 0.0
H490 H 0.23274 0.43334 0.75891 0.0
C491 C 0.17301 0.48189 0.81149 0.0
C492 C 0.15929 0.44548 0.81341 0.0
C493 C 0.18774 0.49273 0.7932 0.0
C494 C 0.2346 0.45912 0.7535 0.0
H495 H 0.36574 0.6015 0.76411 0.0
H496 H 0.30405 0.5798 0.75389 0.0
H497 H 0.28242 0.46018 0.741 0.0
H498 H 0.14758 0.39163 0.79773 0.0
H499 H 0.17335 0.41042 0.76544 0.0
H500 H 0.1972 0.52723 0.75571 0.0
C501 C 0.32051 0.56487 0.74715 0.0
C502 C 0.26337 0.47472 0.74303 0.0
C503 C 0.35606 0.57722 0.7533 0.0
C504 C 0.15853 0.4199 0.7965 0.0
C505 C 0.17317 0.43071 0.77809 0.0
C506 C 0.21518 0.51199 0.75196 0.0
C507 C 0.30623 0.53097 0.73556 0.0
C508 C 0.26987 0.51026 0.73826 0.0
C509 C 0.18891 0.46723 0.77648 0.0
C510 C 0.21155 0.47859 0.75941 0.0
H511 H 0.38054 0.50837 0.72863 0.0
H512 H 0.31917 0.48812 0.71693 0.0
H513 H 0.24762 0.55461 0.73737 0.0
H514 H 0.17351 0.50196 0.82444 0.0
H515 H 0.20009 0.52098 0.79276 0.0
C516 C 0.87801 0.34047 0.18129 0.0
C517 C 0.90958 0.34085 0.1921 0.0
C518 C 0.84672 0.31624 0.18515 0.0
C519 C 0.81243 0.22965 0.20645 0.0
H520 H 0.72668 0.25641 0.20558 0.0
C521 C 0.67775 0.12493 0.20055 0.0
C522 C 0.65155 0.13364 0.21143 0.0
C523 C 0.70982 0.15049 0.20005 0.0
C524 C 0.75043 0.24855 0.20613 0.0
H525 H 0.93265 0.31681 0.21604 0.0
H526 H 0.8782 0.27477 0.22286 0.0
H527 H 0.78111 0.30113 0.20152 0.0
H528 H 0.6378 0.1752 0.23056 0.0
H529 H 0.69417 0.22002 0.23009 0.0
H530 H 0.78188 0.17721 0.21131 0.0
C531 C 0.87767 0.29268 0.21105 0.0
C532 C 0.78163 0.27412 0.20351 0.0
C533 C 0.90894 0.31684 0.20715 0.0
C534 C 0.65788 0.16798 0.22217 0.0
C535 C 0.69 0.19364 0.22171 0.0
C536 C 0.78127 0.20411 0.20908 0.0
C537 C 0.84616 0.29181 0.19997 0.0
C538 C 0.81303 0.26496 0.20349 0.0
C539 C 0.71627 0.18535 0.21042 0.0
C540 C 0.74978 0.2131 0.20878 0.0
H541 H 0.87758 0.35827 0.1694 0.0
H542 H 0.82308 0.31604 0.1761 0.0
H543 H 0.83598 0.22145 0.20631 0.0
H544 H 0.67313 0.09862 0.19195 0.0
H545 H 0.72912 0.14324 0.19095 0.0
C546 C 0.05432 0.52129 0.08159 0.0
C547 C 0.07755 0.5087 0.09375 0.0
C548 C 0.05656 0.52142 0.05991 0.0
C549 C 0.11425 0.52322 0.01828 0.0
H550 H 1.03352 0.46358 0.98304 0.0
C551 C 0.12112 0.48338 0.93003 0.0
C552 C 0.09156 0.47938 0.91615 0.0
C553 C 0.11959 0.4888 0.95177 0.0
C554 C 0.05612 0.48098 0.99251 0.0
H555 H 0.12229 0.48823 0.09328 0.0
H556 H 0.12685 0.48956 0.05554 0.0
H557 H 1.03072 0.47323 0.02083 0.0
H558 H 1.03686 0.47696 0.91453 0.0
H559 H 1.03482 0.48868 0.952 0.0
H560 H 0.13958 0.53185 0.9901 0.0
C561 C 0.10668 0.49876 0.06266 0.0
C562 C 0.05446 0.48636 0.01419 0.0
C563 C 0.10394 0.49782 0.08417 0.0
C564 C 0.06043 0.4807 0.92461 0.0
C565 C 0.05907 0.48679 0.94626 0.0
C566 C 0.11574 0.51848 -0.00347 0.0
C567 C 0.08263 0.50989 0.05029 0.0
C568 C 0.08361 0.50715 0.02725 0.0
C569 C 0.08858 0.49086 0.96019 0.0
C570 C 0.08681 0.49692 0.98334 0.0
H571 H 1.03377 0.52982 0.08869 0.0
H572 H 1.03778 0.53016 0.05062 0.0
H573 H 0.13704 0.53946 0.02812 0.0
H574 H 0.14564 0.48285 0.92414 0.0
H575 H 0.14273 0.49114 0.96195 0.0
C576 C 0.54521 0.04971 0.44054 0.0
C577 C 0.55807 0.02616 0.45162 0.0
C578 C 0.55128 0.05281 0.41948 0.0
C579 C 0.5649 0.00221 0.37226 0.0
H580 H 0.59943 0.09431 0.35151 0.0
C581 C 0.58083 0.00985 0.28427 0.0
C582 C 0.57193 0.03774 0.27528 0.0
C583 C 0.58482 0.01044 0.3061 0.0
C584 C 0.58935 0.06836 0.35694 0.0
H585 H 0.58755 0.98756 0.44955 0.0
H586 H 0.59727 0.99217 0.41242 0.0
H587 H 0.59445 0.09142 0.38907 0.0
H588 H 0.56086 0.08841 0.28182 0.0
H589 H 0.56635 0.089 0.31991 0.0
H590 H 0.55787 0.979 0.34031 0.0
C591 C 0.58278 0.00844 0.42013 0.0
C592 C 0.58672 0.06677 0.3785 0.0
C593 C 0.57727 0.00585 0.44132 0.0
C594 C 0.56817 0.06683 0.28845 0.0
C595 C 0.57144 0.06711 0.3103 0.0
C596 C 0.5669 0.0038 0.35069 0.0
C597 C 0.56981 0.03193 0.40901 0.0
C598 C 0.57432 0.03368 0.38633 0.0
C599 C 0.57911 0.03853 0.31946 0.0
C600 C 0.57899 0.03692 0.34265 0.0
H601 H 0.53047 0.06581 0.44816 0.0
H602 H 0.54078 0.0709 0.41122 0.0
H603 H 0.55484 0.97638 0.37787 0.0
H604 H 0.58395 0.98718 0.27436 0.0
H605 H 0.5917 0.98843 0.31244 0.0
C606 C 0.61857 0.59818 0.76578 0.0
C607 C 0.59903 0.5708 0.77649 0.0
C608 C 0.61395 0.59598 0.74388 0.0
C609 C 0.55247 0.55089 0.6978 0.0
H610 H 0.63469 0.57356 0.66726 0.0
C611 C 0.54966 0.50694 0.60926 0.0
C612 C 0.57239 0.52927 0.59709 0.0
C613 C 0.55093 0.51571 0.63094 0.0
C614 C 0.6114 0.56775 0.67551 0.0
H615 H 0.55903 0.5199 0.77279 0.0
H616 H 0.55091 0.51597 0.73452 0.0
H617 H 0.64082 0.58144 0.70552 0.0
H618 H 0.61333 0.57914 0.59809 0.0
H619 H 0.61509 0.5949 0.63598 0.0
H620 H 0.52306 0.53683 0.66777 0.0
C621 C 0.56964 0.53928 0.74303 0.0
C622 C 0.61494 0.57218 0.69748 0.0
C623 C 0.57441 0.54141 0.76493 0.0
C624 C 0.59539 0.56143 0.607 0.0
C625 C 0.59667 0.57023 0.62875 0.0
C626 C 0.54892 0.54655 0.67582 0.0
C627 C 0.58955 0.56642 0.73223 0.0
C628 C 0.58555 0.56342 0.70888 0.0
C629 C 0.5749 0.54712 0.64104 0.0
C630 C 0.57837 0.55451 0.66439 0.0
H631 H 0.63759 0.62126 0.77432 0.0
H632 H 0.62938 0.61753 0.73607 0.0
H633 H 0.52929 0.54445 0.70613 0.0
H634 H 0.53129 0.48221 0.60205 0.0
H635 H 0.53396 0.49711 0.63988 0.0
C636 C 0.62353 0.01415 0.58241 0.0
C637 C 0.60269 0.02976 0.57038 0.0
C638 C 0.62176 0.01471 0.60411 0.0
C639 C 0.56737 0.02801 0.64705 0.0
H640 H 0.65466 0.05218 0.68187 0.0
C641 C 0.62275 0.08427 0.73819 0.0
C642 C 0.59695 0.06261 0.74893 0.0
C643 C 0.62379 0.07665 0.71658 0.0
C644 C 0.63006 0.04545 0.67239 0.0
H645 H 0.56298 0.05736 0.57147 0.0
H646 H 0.56009 0.05871 0.60948 0.0
H647 H 0.65473 0.04631 0.64376 0.0
H648 H 0.55252 0.01535 0.74545 0.0
H649 H 0.55456 0.00172 0.70765 0.0
H650 H 0.54282 0.02823 0.67576 0.0
C651 C 0.57761 0.04576 0.60213 0.0
C652 C 0.63005 0.04172 0.65052 0.0
C653 C 0.5794 0.0452 0.58038 0.0
C654 C 0.57285 0.03242 0.73765 0.0
C655 C 0.57379 0.02486 0.71597 0.0
C656 C 0.56737 0.03165 0.66896 0.0
C657 C 0.59908 0.03088 0.61429 0.0
C658 C 0.59875 0.03328 0.63757 0.0
C659 C 0.59899 0.04719 0.70513 0.0
C660 C 0.59876 0.04081 0.68189 0.0
H661 H 0.64151 0.00178 0.57508 0.0
H662 H 0.63823 0.00248 0.61293 0.0
H663 H 0.54278 0.02111 0.63755 0.0
H664 H 0.64188 0.10754 0.74648 0.0
H665 H 0.64338 0.09458 0.70873 0.0
C666 C 0.57975 0.57288 0.9051 0.0
C667 C 0.55596 0.5446 0.89216 0.0
C668 C 0.58264 0.5725 0.92698 0.0
C669 C 0.56258 0.51023 0.96788 0.0
H670 H 0.57771 0.59733 0.00578 0.0
C671 C 0.59893 0.51602 0.05663 0.0
C672 C 0.58548 0.53717 0.07085 0.0
C673 C 0.59392 0.51686 0.03499 0.0
C674 C 0.57312 0.57268 -0.00457 0.0
H675 H 0.51642 0.49392 0.89194 0.0
H676 H 0.52095 0.49351 0.92986 0.0
H677 H 0.57193 0.59945 0.96787 0.0
H678 H 0.5555 0.5753 0.07328 0.0
H679 H 0.54604 0.5762 0.03533 0.0
H680 H 0.56301 0.48328 -0.00469 0.0
C681 C 0.53788 0.51573 0.92327 0.0
C682 C 0.57029 0.57399 0.97365 0.0
C683 C 0.5351 0.51607 0.90149 0.0
C684 C 0.56607 0.55855 0.06278 0.0
C685 C 0.56103 0.55939 0.04103 0.0
C686 C 0.56533 0.50892 0.98959 0.0
C687 C 0.56178 0.54382 0.93634 0.0
C688 C 0.56502 0.54277 0.95958 0.0
C689 C 0.57513 0.53873 0.02685 0.0
C690 C 0.57081 0.54013 0.00369 0.0
H691 H 0.59626 0.59515 0.89833 0.0
H692 H 0.60164 0.59438 0.9365 0.0
H693 H 0.55896 0.48569 0.95759 0.0
H694 H 0.61362 0.49888 0.06227 0.0
H695 H 0.60551 0.50086 0.02464 0.0
C696 C 0.09449 0.53819 0.22231 0.0
C697 C 0.07455 0.55697 0.21215 0.0
C698 C 0.09089 0.53257 0.24337 0.0
C699 C 0.05639 0.56669 0.29124 0.0
H700 H 0.07253 0.48292 0.31282 0.0
C701 C 1.03793 0.53915 0.37711 0.0
C702 C 0.06792 0.53553 0.38791 0.0
C703 C 1.03503 0.53714 0.35517 0.0
C704 C 0.06788 0.50637 0.30695 0.0
H705 H 1.0343 0.58342 0.21564 0.0
H706 H 1.02681 0.57239 0.25201 0.0
H707 H 0.07402 0.4885 0.27528 0.0
H708 H 0.11746 0.52509 0.38438 0.0
H709 H 0.11199 0.52061 0.34593 0.0
H710 H 0.04968 0.58411 0.32295 0.0
C711 C 1.04624 0.56309 0.24413 0.0
C712 C 0.06901 0.50979 0.28547 0.0
C713 C 0.05034 0.56927 0.22322 0.0
C714 C 0.09409 0.52794 0.37637 0.0
C715 C 0.0909 0.52528 0.35442 0.0
C716 C 0.05465 0.56292 0.31261 0.0
C717 C 0.06677 0.54506 0.25463 0.0
C718 C 0.06374 0.54026 0.27733 0.0
C719 C 0.06178 0.53083 0.34366 0.0
C720 C 0.06078 0.53297 0.32071 0.0
H721 H 0.11338 0.52844 0.21409 0.0
H722 H 0.10761 0.51912 0.25089 0.0
H723 H 0.05293 0.59091 0.2858 0.0
H724 H 1.01754 0.54531 0.38569 0.0
H725 H 1.01225 0.54135 0.34721 0.0
loop_
_geom_bond_atom_site_label_1
_geom_bond_atom_site_label_2
_geom_bond_distance
_geom_bond_site_symmetry_2
_ccdc_geom_bond_type
Nd0 C2 2.836 . S
Nd0 O20 2.500 . S
Nd0 O21 2.492 . S
Nd0 O22 2.487 . S
Nd0 O23 2.682 . S
Nd0 O24 2.410 . S
Nd0 O29 2.414 . S
Nd0 O31 2.424 1_455 S
Nd1 C11 2.836 1_455 S
Nd1 O23 2.414 . S
Nd1 O25 2.424 . S
Nd1 O26 2.500 1_455 S
Nd1 O27 2.492 1_455 S
Nd1 O28 2.487 . S
Nd1 O29 2.682 . S
Nd1 O30 2.410 1_455 S
C2 Nd0 2.836 . S
C2 C3 1.498 . S
C2 O20 1.258 . S
C2 O21 1.239 . S
C3 C2 1.498 . S
C3 C4 1.366 . S
C3 C8 1.407 . S
C4 C3 1.366 . S
C4 C5 1.392 . S
C4 H32 0.930 . S
C5 C4 1.392 . S
C5 C6 1.398 . S
C5 H33 0.929 . S
C6 C5 1.398 . S
C6 C7 1.352 . S
C7 C6 1.352 . S
C7 C8 1.384 . S
C7 H34 0.930 . S
C8 C3 1.407 . S
C8 C7 1.384 . S
C8 H35 0.929 . S
C9 O22 1.241 . S
C9 O23 1.273 . S
C10 O24 1.251 . S
C10 O25 1.268 . S
C11 Nd1 2.836 1_655 S
C11 C12 1.498 . S
C11 O26 1.258 . S
C11 O27 1.239 . S
C12 C11 1.498 . S
C12 C13 1.366 . S
C12 C17 1.407 . S
C13 C12 1.366 . S
C13 C14 1.392 . S
C13 H36 0.930 . S
C14 C13 1.392 . S
C14 C15 1.398 . S
C14 H37 0.929 . S
C15 C14 1.398 . S
C15 C16 1.352 . S
C16 C15 1.352 . S
C16 C17 1.384 . S
C16 H38 0.930 . S
C17 C12 1.407 . S
C17 C16 1.384 . S
C17 H39 0.929 . S
C18 O28 1.241 . S
C18 O29 1.273 . S
C19 O30 1.251 . S
C19 O31 1.268 . S
O20 Nd0 2.500 . S
O20 C2 1.258 . S
O21 Nd0 2.492 . S
O21 C2 1.239 . S
O22 Nd0 2.487 . S
O22 C9 1.241 . S
O23 Nd0 2.682 . S
O23 Nd1 2.414 . S
O23 C9 1.273 . S
O24 Nd0 2.410 . S
O24 C10 1.251 . S
O25 Nd1 2.424 . S
O25 C10 1.268 . S
O26 Nd1 2.500 1_655 S
O26 C11 1.258 . S
O27 Nd1 2.492 1_655 S
O27 C11 1.239 . S
O28 Nd1 2.487 . S
O28 C18 1.241 . S
O29 Nd0 2.414 . S
O29 Nd1 2.682 . S
O29 C18 1.273 . S
O30 Nd1 2.410 1_655 S
O30 C19 1.251 . S
O31 Nd0 2.424 1_655 S
O31 C19 1.268 . S
H32 C4 0.930 . S
H33 C5 0.929 . S
H34 C7 0.930 . S
H35 C8 0.929 . S
H36 C13 0.930 . S
H37 C14 0.929 . S
H38 C16 0.930 . S
H39 C17 0.929 . S
Nd40 C42 2.836 1_545 S
Nd40 O60 2.500 1_545 S
Nd40 O61 2.492 1_545 S
Nd40 O62 2.487 . S
Nd40 O63 2.682 . S
Nd40 O64 2.410 1_545 S
Nd40 O69 2.414 . S
Nd40 O71 2.424 . S
Nd41 C51 2.836 . S
Nd41 O63 2.414 . S
Nd41 O65 2.424 1_545 S
Nd41 O66 2.500 . S
Nd41 O67 2.492 . S
Nd41 O68 2.487 . S
Nd41 O69 2.682 . S
Nd41 O70 2.410 . S
C42 Nd40 2.836 1_565 S
C42 C43 1.498 . S
C42 O60 1.258 . S
C42 O61 1.239 . S
C43 C42 1.498 . S
C43 C44 1.366 . S
C43 C48 1.407 . S
C44 C43 1.366 . S
C44 C45 1.392 . S
C44 H72 0.930 . S
C45 C44 1.392 . S
C45 C46 1.398 . S
C45 H73 0.929 . S
C46 C45 1.398 . S
C46 C47 1.352 . S
C47 C46 1.352 . S
C47 C48 1.384 . S
C47 H74 0.930 . S
C48 C43 1.407 . S
C48 C47 1.384 . S
C48 H75 0.929 . S
C49 O62 1.241 . S
C49 O63 1.273 . S
C50 O64 1.251 . S
C50 O65 1.268 . S
C51 Nd41 2.836 . S
C51 C52 1.498 . S
C51 O66 1.258 . S
C51 O67 1.239 . S
C52 C51 1.498 . S
C52 C53 1.366 . S
C52 C57 1.407 . S
C53 C52 1.366 . S
C53 C54 1.392 . S
C53 H76 0.930 . S
C54 C53 1.392 . S
C54 C55 1.398 . S
C54 H77 0.929 . S
C55 C54 1.398 . S
C55 C56 1.352 . S
C56 C55 1.352 . S
C56 C57 1.384 . S
C56 H78 0.930 . S
C57 C52 1.407 . S
C57 C56 1.384 . S
C57 H79 0.929 . S
C58 O68 1.241 . S
C58 O69 1.273 . S
C59 O70 1.251 . S
C59 O71 1.268 . S
O60 Nd40 2.500 1_565 S
O60 C42 1.258 . S
O61 Nd40 2.492 1_565 S
O61 C42 1.239 . S
O62 Nd40 2.487 . S
O62 C49 1.241 . S
O63 Nd40 2.682 . S
O63 Nd41 2.414 . S
O63 C49 1.273 . S
O64 Nd40 2.410 1_565 S
O64 C50 1.251 . S
O65 Nd41 2.424 1_565 S
O65 C50 1.268 . S
O66 Nd41 2.500 . S
O66 C51 1.258 . S
O67 Nd41 2.492 . S
O67 C51 1.239 . S
O68 Nd41 2.487 . S
O68 C58 1.241 . S
O69 Nd40 2.414 . S
O69 Nd41 2.682 . S
O69 C58 1.273 . S
O70 Nd41 2.410 . S
O70 C59 1.251 . S
O71 Nd40 2.424 . S
O71 C59 1.268 . S
H72 C44 0.930 . S
H73 C45 0.929 . S
H74 C47 0.930 . S
H75 C48 0.929 . S
H76 C53 0.930 . S
H77 C54 0.929 . S
H78 C56 0.930 . S
H79 C57 0.929 . S
Nd80 C82 2.836 . S
Nd80 O100 2.500 . S
Nd80 O101 2.492 . S
Nd80 O102 2.487 . S
Nd80 O103 2.682 . S
Nd80 O104 2.410 . S
Nd80 O109 2.414 . S
Nd80 O111 2.424 . S
Nd81 C91 2.836 . S
Nd81 O103 2.414 . S
Nd81 O105 2.424 . S
Nd81 O106 2.500 . S
Nd81 O107 2.492 . S
Nd81 O108 2.487 . S
Nd81 O109 2.682 . S
Nd81 O110 2.410 . S
C82 Nd80 2.836 . S
C82 C83 1.498 . S
C82 O100 1.258 . S
C82 O101 1.239 . S
C83 C82 1.498 . S
C83 C84 1.366 . S
C83 C88 1.407 . S
C84 C83 1.366 . S
C84 C85 1.392 . S
C84 H112 0.930 . S
C85 C84 1.392 . S
C85 C86 1.398 . S
C85 H113 0.929 . S
C86 C85 1.398 . S
C86 C87 1.352 . S
C87 C86 1.352 . S
C87 C88 1.384 . S
C87 H114 0.930 . S
C88 C83 1.407 . S
C88 C87 1.384 . S
C88 H115 0.929 . S
C89 O102 1.241 . S
C89 O103 1.273 . S
C90 O104 1.251 . S
C90 O105 1.268 . S
C91 Nd81 2.836 . S
C91 C92 1.498 . S
C91 O106 1.258 . S
C91 O107 1.239 . S
C92 C91 1.498 . S
C92 C93 1.366 . S
C92 C97 1.407 . S
C93 C92 1.366 . S
C93 C94 1.392 . S
C93 H116 0.930 . S
C94 C93 1.392 . S
C94 C95 1.398 . S
C94 H117 0.929 . S
C95 C94 1.398 . S
C95 C96 1.352 . S
C96 C95 1.352 . S
C96 C97 1.384 . S
C96 H118 0.930 . S
C97 C92 1.407 . S
C97 C96 1.384 . S
C97 H119 0.929 . S
C98 O108 1.241 . S
C98 O109 1.273 . S
C99 O110 1.251 . S
C99 O111 1.268 . S
O100 Nd80 2.500 . S
O100 C82 1.258 . S
O101 Nd80 2.492 . S
O101 C82 1.239 . S
O102 Nd80 2.487 . S
O102 C89 1.241 . S
O103 Nd80 2.682 . S
O103 Nd81 2.414 . S
O103 C89 1.273 . S
O104 Nd80 2.410 . S
O104 C90 1.251 . S
O105 Nd81 2.424 . S
O105 C90 1.268 . S
O106 Nd81 2.500 . S
O106 C91 1.258 . S
O107 Nd81 2.492 . S
O107 C91 1.239 . S
O108 Nd81 2.487 . S
O108 C98 1.241 . S
O109 Nd80 2.414 . S
O109 Nd81 2.682 . S
O109 C98 1.273 . S
O110 Nd81 2.410 . S
O110 C99 1.251 . S
O111 Nd80 2.424 . S
O111 C99 1.268 . S
H112 C84 0.930 . S
H113 C85 0.929 . S
H114 C87 0.930 . S
H115 C88 0.929 . S
H116 C93 0.930 . S
H117 C94 0.929 . S
H118 C96 0.930 . S
H119 C97 0.929 . S
H120 C123 0.929 . S
H121 C126 0.929 . S
H122 C128 0.930 . S
C123 H120 0.929 . S
C123 C124 1.398 . S
C123 C125 1.396 . S
C124 C123 1.398 . S
C124 C128 1.407 . S
C125 C123 1.396 . S
C125 C126 1.394 . S
C126 H121 0.929 . S
C126 C125 1.394 . S
C126 C127 1.382 . S
C127 C126 1.382 . S
C127 C128 1.392 . S
C127 N129 1.420 . S
C128 H122 0.930 . S
C128 C124 1.407 . S
C128 C127 1.392 . S
N129 C127 1.420 . S
N129 C130 1.244 . S
C130 N129 1.244 . S
H131 C134 0.929 . S
H132 C137 0.929 . S
H133 C139 0.930 . S
C134 H131 0.929 . S
C134 C135 1.398 . S
C134 C136 1.396 . S
C135 C134 1.398 . S
C135 C139 1.407 . S
C136 C134 1.396 . S
C136 C137 1.394 . S
C137 H132 0.929 . S
C137 C136 1.394 . S
C137 C138 1.382 . S
C138 C137 1.382 . S
C138 C139 1.392 . S
C138 N140 1.420 . S
C139 H133 0.930 . S
C139 C135 1.407 . S
C139 C138 1.392 . S
N140 C138 1.420 . S
N140 C141 1.244 . S
C141 N140 1.244 . S
H142 C145 0.929 . S
H143 C148 0.929 . S
H144 C150 0.930 . S
C145 H142 0.929 . S
C145 C146 1.398 . S
C145 C147 1.396 . S
C146 C145 1.398 . S
C146 C150 1.407 . S
C147 C145 1.396 . S
C147 C148 1.394 . S
C148 H143 0.929 . S
C148 C147 1.394 . S
C148 C149 1.382 . S
C149 C148 1.382 . S
C149 C150 1.392 . S
C149 N151 1.420 . S
C150 H144 0.930 . S
C150 C146 1.407 . S
C150 C149 1.392 . S
N151 C149 1.420 . S
N151 C152 1.244 . S
C152 N151 1.244 . S
H153 C156 0.929 . S
H154 C159 0.929 . S
H155 C161 0.930 . S
C156 H153 0.929 . S
C156 C157 1.398 . S
C156 C158 1.396 . S
C157 C156 1.398 . S
C157 C161 1.407 . S
C158 C156 1.396 . S
C158 C159 1.394 1_455 S
C159 H154 0.929 . S
C159 C158 1.394 1_655 S
C159 C160 1.382 . S
C160 C159 1.382 . S
C160 C161 1.392 1_655 S
C160 N162 1.420 . S
C161 H155 0.930 . S
C161 C157 1.407 . S
C161 C160 1.392 1_455 S
N162 C160 1.420 . S
N162 C163 1.244 . S
C163 N162 1.244 . S
H164 C167 0.929 . S
H165 C170 0.929 1_565 S
H166 C172 0.930 . S
C167 H164 0.929 . S
C167 C168 1.398 . S
C167 C169 1.396 . S
C168 C167 1.398 . S
C168 C172 1.407 . S
C169 C167 1.396 . S
C169 C170 1.394 . S
C170 H165 0.929 1_545 S
C170 C169 1.394 . S
C170 C171 1.382 . S
C171 C170 1.382 . S
C171 C172 1.392 . S
C171 N173 1.420 1_545 S
C172 H166 0.930 . S
C172 C168 1.407 . S
C172 C171 1.392 . S
N173 C171 1.420 1_565 S
N173 C174 1.244 . S
C174 N173 1.244 . S
H175 C178 0.929 . S
H176 C181 0.929 . S
H177 C183 0.930 . S
C178 H175 0.929 . S
C178 C179 1.398 . S
C178 C180 1.396 . S
C179 C178 1.398 . S
C179 C183 1.407 . S
C180 C178 1.396 . S
C180 C181 1.394 . S
C181 H176 0.929 . S
C181 C180 1.394 . S
C181 C182 1.382 . S
C182 C181 1.382 . S
C182 C183 1.392 . S
C182 N184 1.420 . S
C183 H177 0.930 . S
C183 C179 1.407 . S
C183 C182 1.392 . S
N184 C182 1.420 . S
N184 C185 1.244 . S
C185 N184 1.244 . S
C186 C187 1.349 . S
C186 C188 1.327 . S
C186 H211 0.950 . S
C187 C186 1.349 . S
C187 C203 1.349 . S
C188 C186 1.327 . S
C188 C207 1.429 . S
C188 H212 0.950 . S
C189 C206 1.574 . S
C189 C208 1.368 . S
C189 H213 0.949 . S
H190 C194 0.949 . S
C191 C192 1.349 . S
C191 C193 1.327 . S
C191 H214 0.950 . S
C192 C191 1.349 . S
C192 C204 1.349 . S
C193 C191 1.327 . S
C193 C209 1.429 . S
C193 H215 0.950 . S
C194 H190 0.949 . S
C194 C202 1.574 . S
C194 C210 1.368 . S
H195 C203 0.950 . S
H196 C201 0.950 . S
H197 C202 0.949 . S
H198 C204 0.950 . S
H199 C205 0.950 . S
H200 C206 0.949 . S
C201 H196 0.950 . S
C201 C203 1.327 . S
C201 C207 1.429 . S
C202 C194 1.574 . S
C202 H197 0.949 . S
C202 C208 1.368 . S
C203 C187 1.349 . S
C203 H195 0.950 . S
C203 C201 1.327 . S
C204 C192 1.349 . S
C204 H198 0.950 . S
C204 C205 1.327 . S
C205 H199 0.950 . S
C205 C204 1.327 . S
C205 C209 1.429 . S
C206 C189 1.574 . S
C206 H200 0.949 . S
C206 C210 1.368 . S
C207 C188 1.429 . S
C207 C201 1.429 . S
C207 C208 1.523 . S
C208 C189 1.368 . S
C208 C202 1.368 . S
C208 C207 1.523 . S
C209 C193 1.429 . S
C209 C205 1.429 . S
C209 C210 1.523 . S
C210 C194 1.368 . S
C210 C206 1.368 . S
C210 C209 1.523 . S
H211 C186 0.950 . S
H212 C188 0.950 . S
H213 C189 0.949 . S
H214 C191 0.950 . S
H215 C193 0.950 . S
C216 C217 1.349 . S
C216 C218 1.327 . S
C216 H241 0.950 . S
C217 C216 1.349 . S
C217 C233 1.349 . S
C218 C216 1.327 . S
C218 C237 1.429 . S
C218 H242 0.950 . S
C219 C236 1.574 . S
C219 C238 1.368 . S
C219 H243 0.949 . S
H220 C224 0.949 . S
C221 C222 1.349 . S
C221 C223 1.327 . S
C221 H244 0.950 . S
C222 C221 1.349 . S
C222 C234 1.349 . S
C223 C221 1.327 . S
C223 C239 1.429 . S
C223 H245 0.950 . S
C224 H220 0.949 . S
C224 C232 1.574 . S
C224 C240 1.368 . S
H225 C233 0.950 . S
H226 C231 0.950 . S
H227 C232 0.949 . S
H228 C234 0.950 . S
H229 C235 0.950 . S
H230 C236 0.949 . S
C231 H226 0.950 . S
C231 C233 1.327 . S
C231 C237 1.429 . S
C232 C224 1.574 . S
C232 H227 0.949 . S
C232 C238 1.368 . S
C233 C217 1.349 . S
C233 H225 0.950 . S
C233 C231 1.327 . S
C234 C222 1.349 . S
C234 H228 0.950 . S
C234 C235 1.327 . S
C235 H229 0.950 . S
C235 C234 1.327 . S
C235 C239 1.429 . S
C236 C219 1.574 . S
C236 H230 0.949 . S
C236 C240 1.368 . S
C237 C218 1.429 . S
C237 C231 1.429 . S
C237 C238 1.523 . S
C238 C219 1.368 . S
C238 C232 1.368 . S
C238 C237 1.523 . S
C239 C223 1.429 . S
C239 C235 1.429 . S
C239 C240 1.523 . S
C240 C224 1.368 . S
C240 C236 1.368 . S
C240 C239 1.523 . S
H241 C216 0.950 . S
H242 C218 0.950 . S
H243 C219 0.949 . S
H244 C221 0.950 . S
H245 C223 0.950 . S
C246 C247 1.349 . S
C246 C248 1.327 . S
C246 H271 0.950 . S
C247 C246 1.349 . S
C247 C263 1.349 . S
C248 C246 1.327 . S
C248 C267 1.429 . S
C248 H272 0.950 . S
C249 C266 1.574 . S
C249 C268 1.368 . S
C249 H273 0.949 . S
H250 C254 0.949 . S
C251 C252 1.349 . S
C251 C253 1.327 . S
C251 H274 0.950 . S
C252 C251 1.349 . S
C252 C264 1.349 . S
C253 C251 1.327 . S
C253 C269 1.429 . S
C253 H275 0.950 . S
C254 H250 0.949 . S
C254 C262 1.574 . S
C254 C270 1.368 . S
H255 C263 0.950 . S
H256 C261 0.950 . S
H257 C262 0.949 . S
H258 C264 0.950 . S
H259 C265 0.950 . S
H260 C266 0.949 . S
C261 H256 0.950 . S
C261 C263 1.327 . S
C261 C267 1.429 . S
C262 C254 1.574 . S
C262 H257 0.949 . S
C262 C268 1.368 . S
C263 C247 1.349 . S
C263 H255 0.950 . S
C263 C261 1.327 . S
C264 C252 1.349 . S
C264 H258 0.950 . S
C264 C265 1.327 . S
C265 H259 0.950 . S
C265 C264 1.327 . S
C265 C269 1.429 . S
C266 C249 1.574 . S
C266 H260 0.949 . S
C266 C270 1.368 . S
C267 C248 1.429 . S
C267 C261 1.429 . S
C267 C268 1.523 . S
C268 C249 1.368 . S
C268 C262 1.368 . S
C268 C267 1.523 . S
C269 C253 1.429 . S
C269 C265 1.429 . S
C269 C270 1.523 . S
C270 C254 1.368 . S
C270 C266 1.368 . S
C270 C269 1.523 . S
H271 C246 0.950 . S
H272 C248 0.950 . S
H273 C249 0.949 . S
H274 C251 0.950 . S
H275 C253 0.950 . S
C276 C277 1.349 . S
C276 C278 1.327 . S
C276 H301 0.950 . S
C277 C276 1.349 . S
C277 C293 1.349 . S
C278 C276 1.327 . S
C278 C297 1.429 . S
C278 H302 0.950 . S
C279 C296 1.574 . S
C279 C298 1.368 . S
C279 H303 0.949 . S
H280 C284 0.949 . S
C281 C282 1.349 . S
C281 C283 1.327 . S
C281 H304 0.950 . S
C282 C281 1.349 . S
C282 C294 1.349 . S
C283 C281 1.327 . S
C283 C299 1.429 . S
C283 H305 0.950 . S
C284 H280 0.949 . S
C284 C292 1.574 . S
C284 C300 1.368 . S
H285 C293 0.950 . S
H286 C291 0.950 . S
H287 C292 0.949 . S
H288 C294 0.950 . S
H289 C295 0.950 . S
H290 C296 0.949 . S
C291 H286 0.950 . S
C291 C293 1.327 . S
C291 C297 1.429 . S
C292 C284 1.574 . S
C292 H287 0.949 . S
C292 C298 1.368 . S
C293 C277 1.349 . S
C293 H285 0.950 . S
C293 C291 1.327 . S
C294 C282 1.349 . S
C294 H288 0.950 . S
C294 C295 1.327 . S
C295 H289 0.950 . S
C295 C294 1.327 . S
C295 C299 1.429 . S
C296 C279 1.574 . S
C296 H290 0.949 . S
C296 C300 1.368 . S
C297 C278 1.429 . S
C297 C291 1.429 . S
C297 C298 1.523 . S
C298 C279 1.368 . S
C298 C292 1.368 . S
C298 C297 1.523 . S
C299 C283 1.429 . S
C299 C295 1.429 . S
C299 C300 1.523 . S
C300 C284 1.368 . S
C300 C296 1.368 . S
C300 C299 1.523 . S
H301 C276 0.950 . S
H302 C278 0.950 . S
H303 C279 0.949 . S
H304 C281 0.950 . S
H305 C283 0.950 . S
C306 C307 1.349 . S
C306 C308 1.327 . S
C306 H331 0.950 . S
C307 C306 1.349 . S
C307 C323 1.349 . S
C308 C306 1.327 . S
C308 C327 1.429 . S
C308 H332 0.950 . S
C309 C326 1.574 . S
C309 C328 1.368 . S
C309 H333 0.949 . S
H310 C314 0.949 . S
C311 C312 1.349 . S
C311 C313 1.327 . S
C311 H334 0.950 . S
C312 C311 1.349 . S
C312 C324 1.349 . S
C313 C311 1.327 . S
C313 C329 1.429 . S
C313 H335 0.950 . S
C314 H310 0.949 . S
C314 C322 1.574 . S
C314 C330 1.368 . S
H315 C323 0.950 . S
H316 C321 0.950 . S
H317 C322 0.949 . S
H318 C324 0.950 . S
H319 C325 0.950 . S
H320 C326 0.949 . S
C321 H316 0.950 . S
C321 C323 1.327 . S
C321 C327 1.429 . S
C322 C314 1.574 . S
C322 H317 0.949 . S
C322 C328 1.368 . S
C323 C307 1.349 . S
C323 H315 0.950 . S
C323 C321 1.327 . S
C324 C312 1.349 . S
C324 H318 0.950 . S
C324 C325 1.327 . S
C325 H319 0.950 . S
C325 C324 1.327 . S
C325 C329 1.429 . S
C326 C309 1.574 . S
C326 H320 0.949 . S
C326 C330 1.368 . S
C327 C308 1.429 . S
C327 C321 1.429 . S
C327 C328 1.523 . S
C328 C309 1.368 . S
C328 C322 1.368 . S
C328 C327 1.523 . S
C329 C313 1.429 . S
C329 C325 1.429 . S
C329 C330 1.523 . S
C330 C314 1.368 . S
C330 C326 1.368 . S
C330 C329 1.523 . S
H331 C306 0.950 . S
H332 C308 0.950 . S
H333 C309 0.949 . S
H334 C311 0.950 . S
H335 C313 0.950 . S
C336 C337 1.349 . S
C336 C338 1.327 . S
C336 H361 0.950 . S
C337 C336 1.349 . S
C337 C353 1.349 . S
C338 C336 1.327 . S
C338 C357 1.429 . S
C338 H362 0.950 . S
C339 C356 1.574 . S
C339 C358 1.368 . S
C339 H363 0.949 . S
H340 C344 0.949 . S
C341 C342 1.349 . S
C341 C343 1.327 . S
C341 H364 0.950 . S
C342 C341 1.349 . S
C342 C354 1.349 . S
C343 C341 1.327 . S
C343 C359 1.429 . S
C343 H365 0.950 . S
C344 H340 0.949 . S
C344 C352 1.574 . S
C344 C360 1.368 . S
H345 C353 0.950 . S
H346 C351 0.950 . S
H347 C352 0.949 . S
H348 C354 0.950 . S
H349 C355 0.950 . S
H350 C356 0.949 . S
C351 H346 0.950 . S
C351 C353 1.327 . S
C351 C357 1.429 . S
C352 C344 1.574 . S
C352 H347 0.949 . S
C352 C358 1.368 . S
C353 C337 1.349 . S
C353 H345 0.950 . S
C353 C351 1.327 . S
C354 C342 1.349 . S
C354 H348 0.950 . S
C354 C355 1.327 . S
C355 H349 0.950 . S
C355 C354 1.327 . S
C355 C359 1.429 . S
C356 C339 1.574 . S
C356 H350 0.949 . S
C356 C360 1.368 . S
C357 C338 1.429 . S
C357 C351 1.429 . S
C357 C358 1.523 . S
C358 C339 1.368 . S
C358 C352 1.368 . S
C358 C357 1.523 . S
C359 C343 1.429 . S
C359 C355 1.429 . S
C359 C360 1.523 . S
C360 C344 1.368 . S
C360 C356 1.368 . S
C360 C359 1.523 . S
H361 C336 0.950 . S
H362 C338 0.950 . S
H363 C339 0.949 . S
H364 C341 0.950 . S
H365 C343 0.950 . S
C366 C367 1.349 . S
C366 C368 1.327 . S
C366 H391 0.950 . S
C367 C366 1.349 . S
C367 C383 1.349 . S
C368 C366 1.327 . S
C368 C387 1.429 . S
C368 H392 0.950 . S
C369 C386 1.574 . S
C369 C388 1.368 . S
C369 H393 0.949 . S
H370 C374 0.949 . S
C371 C372 1.349 . S
C371 C373 1.327 . S
C371 H394 0.950 . S
C372 C371 1.349 . S
C372 C384 1.349 . S
C373 C371 1.327 . S
C373 C389 1.429 . S
C373 H395 0.950 . S
C374 H370 0.949 . S
C374 C382 1.574 . S
C374 C390 1.368 . S
H375 C383 0.950 . S
H376 C381 0.950 . S
H377 C382 0.949 . S
H378 C384 0.950 . S
H379 C385 0.950 . S
H380 C386 0.949 . S
C381 H376 0.950 . S
C381 C383 1.327 . S
C381 C387 1.429 . S
C382 C374 1.574 . S
C382 H377 0.949 . S
C382 C388 1.368 . S
C383 C367 1.349 . S
C383 H375 0.950 . S
C383 C381 1.327 . S
C384 C372 1.349 . S
C384 H378 0.950 . S
C384 C385 1.327 . S
C385 H379 0.950 . S
C385 C384 1.327 . S
C385 C389 1.429 . S
C386 C369 1.574 . S
C386 H380 0.949 . S
C386 C390 1.368 . S
C387 C368 1.429 . S
C387 C381 1.429 . S
C387 C388 1.523 . S
C388 C369 1.368 . S
C388 C382 1.368 . S
C388 C387 1.523 . S
C389 C373 1.429 . S
C389 C385 1.429 . S
C389 C390 1.523 . S
C390 C374 1.368 . S
C390 C386 1.368 . S
C390 C389 1.523 . S
H391 C366 0.950 . S
H392 C368 0.950 . S
H393 C369 0.949 . S
H394 C371 0.950 . S
H395 C373 0.950 . S
C396 C397 1.349 . S
C396 C398 1.327 . S
C396 H421 0.950 . S
C397 C396 1.349 . S
C397 C413 1.349 . S
C398 C396 1.327 . S
C398 C417 1.429 . S
C398 H422 0.950 . S
C399 C416 1.574 . S
C399 C418 1.368 . S
C399 H423 0.949 . S
H400 C404 0.949 . S
C401 C402 1.349 1_655 S
C401 C403 1.327 . S
C401 H424 0.950 . S
C402 C401 1.349 1_455 S
C402 C414 1.349 . S
C403 C401 1.327 . S
C403 C419 1.429 . S
C403 H425 0.950 . S
C404 H400 0.949 . S
C404 C412 1.574 . S
C404 C420 1.368 . S
H405 C413 0.950 . S
H406 C411 0.950 . S
H407 C412 0.949 . S
H408 C414 0.950 . S
H409 C415 0.950 . S
H410 C416 0.949 . S
C411 H406 0.950 . S
C411 C413 1.327 . S
C411 C417 1.429 . S
C412 C404 1.574 . S
C412 H407 0.949 . S
C412 C418 1.368 . S
C413 C397 1.349 . S
C413 H405 0.950 . S
C413 C411 1.327 . S
C414 C402 1.349 . S
C414 H408 0.950 . S
C414 C415 1.327 1_455 S
C415 H409 0.950 . S
C415 C414 1.327 1_655 S
C415 C419 1.429 . S
C416 C399 1.574 . S
C416 H410 0.949 . S
C416 C420 1.368 . S
C417 C398 1.429 . S
C417 C411 1.429 . S
C417 C418 1.523 . S
C418 C399 1.368 . S
C418 C412 1.368 . S
C418 C417 1.523 . S
C419 C403 1.429 . S
C419 C415 1.429 . S
C419 C420 1.523 . S
C420 C404 1.368 . S
C420 C416 1.368 . S
C420 C419 1.523 . S
H421 C396 0.950 . S
H422 C398 0.950 . S
H423 C399 0.949 . S
H424 C401 0.950 . S
H425 C403 0.950 . S
C426 C427 1.349 . S
C426 C428 1.327 . S
C426 H451 0.950 . S
C427 C426 1.349 . S
C427 C443 1.349 . S
C428 C426 1.327 . S
C428 C447 1.429 . S
C428 H452 0.950 . S
C429 C446 1.574 . S
C429 C448 1.368 . S
C429 H453 0.949 . S
H430 C434 0.949 . S
C431 C432 1.349 . S
C431 C433 1.327 . S
C431 H454 0.950 . S
C432 C431 1.349 . S
C432 C444 1.349 . S
C433 C431 1.327 . S
C433 C449 1.429 . S
C433 H455 0.950 . S
C434 H430 0.949 . S
C434 C442 1.574 . S
C434 C450 1.368 . S
H435 C443 0.950 . S
H436 C441 0.950 . S
H437 C442 0.949 . S
H438 C444 0.950 1_545 S
H439 C445 0.950 . S
H440 C446 0.949 . S
C441 H436 0.950 . S
C441 C443 1.327 . S
C441 C447 1.429 . S
C442 C434 1.574 . S
C442 H437 0.949 . S
C442 C448 1.368 . S
C443 C427 1.349 . S
C443 H435 0.950 . S
C443 C441 1.327 . S
C444 C432 1.349 . S
C444 H438 0.950 1_565 S
C444 C445 1.327 . S
C445 H439 0.950 . S
C445 C444 1.327 . S
C445 C449 1.429 . S
C446 C429 1.574 . S
C446 H440 0.949 . S
C446 C450 1.368 . S
C447 C428 1.429 . S
C447 C441 1.429 . S
C447 C448 1.523 . S
C448 C429 1.368 . S
C448 C442 1.368 . S
C448 C447 1.523 . S
C449 C433 1.429 . S
C449 C445 1.429 . S
C449 C450 1.523 . S
C450 C434 1.368 . S
C450 C446 1.368 . S
C450 C449 1.523 . S
H451 C426 0.950 . S
H452 C428 0.950 . S
H453 C429 0.949 . S
H454 C431 0.950 . S
H455 C433 0.950 . S
C456 C457 1.349 . S
C456 C458 1.327 . S
C456 H481 0.950 . S
C457 C456 1.349 . S
C457 C473 1.349 . S
C458 C456 1.327 . S
C458 C477 1.429 . S
C458 H482 0.950 . S
C459 C476 1.574 . S
C459 C478 1.368 . S
C459 H483 0.949 . S
H460 C464 0.949 . S
C461 C462 1.349 . S
C461 C463 1.327 . S
C461 H484 0.950 . S
C462 C461 1.349 . S
C462 C474 1.349 . S
C463 C461 1.327 . S
C463 C479 1.429 . S
C463 H485 0.950 . S
C464 H460 0.949 . S
C464 C472 1.574 . S
C464 C480 1.368 . S
H465 C473 0.950 . S
H466 C471 0.950 . S
H467 C472 0.949 . S
H468 C474 0.950 . S
H469 C475 0.950 . S
H470 C476 0.949 . S
C471 H466 0.950 . S
C471 C473 1.327 . S
C471 C477 1.429 . S
C472 C464 1.574 . S
C472 H467 0.949 . S
C472 C478 1.368 . S
C473 C457 1.349 . S
C473 H465 0.950 . S
C473 C471 1.327 . S
C474 C462 1.349 . S
C474 H468 0.950 . S
C474 C475 1.327 . S
C475 H469 0.950 . S
C475 C474 1.327 . S
C475 C479 1.429 . S
C476 C459 1.574 . S
C476 H470 0.949 . S
C476 C480 1.368 . S
C477 C458 1.429 . S
C477 C471 1.429 . S
C477 C478 1.523 . S
C478 C459 1.368 . S
C478 C472 1.368 . S
C478 C477 1.523 . S
C479 C463 1.429 . S
C479 C475 1.429 . S
C479 C480 1.523 . S
C480 C464 1.368 . S
C480 C476 1.368 . S
C480 C479 1.523 . S
H481 C456 0.950 . S
H482 C458 0.950 . S
H483 C459 0.949 . S
H484 C461 0.950 . S
H485 C463 0.950 . S
C486 C487 1.349 . S
C486 C488 1.327 . S
C486 H511 0.950 . S
C487 C486 1.349 . S
C487 C503 1.349 . S
C488 C486 1.327 . S
C488 C507 1.429 . S
C488 H512 0.950 . S
C489 C506 1.574 . S
C489 C508 1.368 . S
C489 H513 0.949 . S
H490 C494 0.949 . S
C491 C492 1.349 . S
C491 C493 1.327 . S
C491 H514 0.950 . S
C492 C491 1.349 . S
C492 C504 1.349 . S
C493 C491 1.327 . S
C493 C509 1.429 . S
C493 H515 0.950 . S
C494 H490 0.949 . S
C494 C502 1.574 . S
C494 C510 1.368 . S
H495 C503 0.950 . S
H496 C501 0.950 . S
H497 C502 0.949 . S
H498 C504 0.950 . S
H499 C505 0.950 . S
H500 C506 0.949 . S
C501 H496 0.950 . S
C501 C503 1.327 . S
C501 C507 1.429 . S
C502 C494 1.574 . S
C502 H497 0.949 . S
C502 C508 1.368 . S
C503 C487 1.349 . S
C503 H495 0.950 . S
C503 C501 1.327 . S
C504 C492 1.349 . S
C504 H498 0.950 . S
C504 C505 1.327 . S
C505 H499 0.950 . S
C505 C504 1.327 . S
C505 C509 1.429 . S
C506 C489 1.574 . S
C506 H500 0.949 . S
C506 C510 1.368 . S
C507 C488 1.429 . S
C507 C501 1.429 . S
C507 C508 1.523 . S
C508 C489 1.368 . S
C508 C502 1.368 . S
C508 C507 1.523 . S
C509 C493 1.429 . S
C509 C505 1.429 . S
C509 C510 1.523 . S
C510 C494 1.368 . S
C510 C506 1.368 . S
C510 C509 1.523 . S
H511 C486 0.950 . S
H512 C488 0.950 . S
H513 C489 0.949 . S
H514 C491 0.950 . S
H515 C493 0.950 . S
C516 C517 1.349 . S
C516 C518 1.327 . S
C516 H541 0.950 . S
C517 C516 1.349 . S
C517 C533 1.349 . S
C518 C516 1.327 . S
C518 C537 1.429 . S
C518 H542 0.950 . S
C519 C536 1.574 . S
C519 C538 1.368 . S
C519 H543 0.949 . S
H520 C524 0.949 . S
C521 C522 1.349 . S
C521 C523 1.327 . S
C521 H544 0.950 . S
C522 C521 1.349 . S
C522 C534 1.349 . S
C523 C521 1.327 . S
C523 C539 1.429 . S
C523 H545 0.950 . S
C524 H520 0.949 . S
C524 C532 1.574 . S
C524 C540 1.368 . S
H525 C533 0.950 . S
H526 C531 0.950 . S
H527 C532 0.949 . S
H528 C534 0.950 . S
H529 C535 0.950 . S
H530 C536 0.949 . S
C531 H526 0.950 . S
C531 C533 1.327 . S
C531 C537 1.429 . S
C532 C524 1.574 . S
C532 H527 0.949 . S
C532 C538 1.368 . S
C533 C517 1.349 . S
C533 H525 0.950 . S
C533 C531 1.327 . S
C534 C522 1.349 . S
C534 H528 0.950 . S
C534 C535 1.327 . S
C535 H529 0.950 . S
C535 C534 1.327 . S
C535 C539 1.429 . S
C536 C519 1.574 . S
C536 H530 0.949 . S
C536 C540 1.368 . S
C537 C518 1.429 . S
C537 C531 1.429 . S
C537 C538 1.523 . S
C538 C519 1.368 . S
C538 C532 1.368 . S
C538 C537 1.523 . S
C539 C523 1.429 . S
C539 C535 1.429 . S
C539 C540 1.523 . S
C540 C524 1.368 . S
C540 C536 1.368 . S
C540 C539 1.523 . S
H541 C516 0.950 . S
H542 C518 0.950 . S
H543 C519 0.949 . S
H544 C521 0.950 . S
H545 C523 0.950 . S
C546 C547 1.349 . S
C546 C548 1.327 . S
C546 H571 0.950 1_455 S
C547 C546 1.349 . S
C547 C563 1.349 . S
C548 C546 1.327 . S
C548 C567 1.429 . S
C548 H572 0.950 1_455 S
C549 C566 1.574 . S
C549 C568 1.368 . S
C549 H573 0.949 . S
H550 C554 0.937 1_556 S
C551 C552 1.349 . S
C551 C553 1.327 . S
C551 H574 0.950 . S
C552 C551 1.349 . S
C552 C564 1.349 . S
C553 C551 1.327 . S
C553 C569 1.429 . S
C553 H575 0.950 . S
C554 H550 0.937 1_554 S
C554 C562 1.596 . S
C554 C570 1.360 1_554 S
H555 C563 0.950 . S
H556 C561 0.950 . S
H557 C562 0.949 1_655 S
H558 C564 0.950 . S
H559 C565 0.950 . S
H560 C566 0.949 1_556 S
C561 H556 0.950 . S
C561 C563 1.327 . S
C561 C567 1.429 . S
C562 C554 1.596 . S
C562 H557 0.949 1_455 S
C562 C568 1.368 . S
C563 C547 1.349 . S
C563 H555 0.950 . S
C563 C561 1.327 . S
C564 C552 1.349 . S
C564 H558 0.950 . S
C564 C565 1.327 . S
C565 H559 0.950 . S
C565 C564 1.327 . S
C565 C569 1.429 . S
C566 C549 1.574 . S
C566 H560 0.949 1_554 S
C566 C570 1.368 1_554 S
C567 C548 1.429 . S
C567 C561 1.429 . S
C567 C568 1.523 . S
C568 C549 1.368 . S
C568 C562 1.368 . S
C568 C567 1.523 . S
C569 C553 1.429 . S
C569 C565 1.429 . S
C569 C570 1.523 . S
C570 C554 1.360 1_556 S
C570 C566 1.368 1_556 S
C570 C569 1.523 . S
H571 C546 0.950 1_655 S
H572 C548 0.950 1_655 S
H573 C549 0.949 . S
H574 C551 0.950 . S
H575 C553 0.950 . S
C576 C577 1.349 . S
C576 C578 1.327 . S
C576 H601 0.950 . S
C577 C576 1.349 . S
C577 C593 1.349 . S
C578 C576 1.327 . S
C578 C597 1.429 . S
C578 H602 0.950 . S
C579 C596 1.574 . S
C579 C598 1.368 . S
C579 H603 0.949 1_545 S
H580 C584 0.949 . S
C581 C582 1.349 . S
C581 C583 1.327 . S
C581 H604 0.950 . S
C582 C581 1.349 . S
C582 C594 1.349 . S
C583 C581 1.327 . S
C583 C599 1.429 . S
C583 H605 0.953 . S
C584 H580 0.949 . S
C584 C592 1.574 . S
C584 C600 1.368 . S
H585 C593 0.950 1_565 S
H586 C591 0.950 1_565 S
H587 C592 0.949 . S
H588 C594 0.950 . S
H589 C595 0.950 . S
H590 C596 0.949 1_565 S
C591 H586 0.950 1_545 S
C591 C593 1.327 . S
C591 C597 1.429 . S
C592 C584 1.574 . S
C592 H587 0.949 . S
C592 C598 1.368 . S
C593 C577 1.349 . S
C593 H585 0.950 1_545 S
C593 C591 1.327 . S
C594 C582 1.349 . S
C594 H588 0.950 . S
C594 C595 1.327 . S
C595 H589 0.950 . S
C595 C594 1.327 . S
C595 C599 1.429 . S
C596 C579 1.574 . S
C596 H590 0.949 1_545 S
C596 C600 1.368 . S
C597 C578 1.429 . S
C597 C591 1.429 . S
C597 C598 1.523 . S
C598 C579 1.368 . S
C598 C592 1.368 . S
C598 C597 1.523 . S
C599 C583 1.429 . S
C599 C595 1.429 . S
C599 C600 1.523 . S
C600 C584 1.368 . S
C600 C596 1.368 . S
C600 C599 1.523 . S
H601 C576 0.950 . S
H602 C578 0.950 . S
H603 C579 0.949 1_565 S
H604 C581 0.950 . S
H605 C583 0.953 . S
C606 C607 1.349 . S
C606 C608 1.327 . S
C606 H631 0.950 . S
C607 C606 1.349 . S
C607 C623 1.349 . S
C608 C606 1.327 . S
C608 C627 1.429 . S
C608 H632 0.950 . S
C609 C626 1.574 . S
C609 C628 1.368 . S
C609 H633 0.949 . S
H610 C614 0.949 . S
C611 C612 1.349 . S
C611 C613 1.327 . S
C611 H634 0.950 . S
C612 C611 1.349 . S
C612 C624 1.349 . S
C613 C611 1.327 . S
C613 C629 1.429 . S
C613 H635 0.950 . S
C614 H610 0.949 . S
C614 C622 1.574 . S
C614 C630 1.368 . S
H615 C623 0.950 . S
H616 C621 0.950 . S
H617 C622 0.949 . S
H618 C624 0.950 . S
H619 C625 0.950 . S
H620 C626 0.949 . S
C621 H616 0.950 . S
C621 C623 1.327 . S
C621 C627 1.429 . S
C622 C614 1.574 . S
C622 H617 0.949 . S
C622 C628 1.368 . S
C623 C607 1.349 . S
C623 H615 0.950 . S
C623 C621 1.327 . S
C624 C612 1.349 . S
C624 H618 0.950 . S
C624 C625 1.327 . S
C625 H619 0.950 . S
C625 C624 1.327 . S
C625 C629 1.429 . S
C626 C609 1.574 . S
C626 H620 0.949 . S
C626 C630 1.368 . S
C627 C608 1.429 . S
C627 C621 1.429 . S
C627 C628 1.523 . S
C628 C609 1.368 . S
C628 C622 1.368 . S
C628 C627 1.523 . S
C629 C613 1.429 . S
C629 C625 1.429 . S
C629 C630 1.523 . S
C630 C614 1.368 . S
C630 C626 1.368 . S
C630 C629 1.523 . S
H631 C606 0.950 . S
H632 C608 0.950 . S
H633 C609 0.949 . S
H634 C611 0.950 . S
H635 C613 0.950 . S
C636 C637 1.349 . S
C636 C638 1.327 . S
C636 H661 0.950 1_545 S
C637 C636 1.349 . S
C637 C653 1.349 . S
C638 C636 1.327 . S
C638 C657 1.429 . S
C638 H662 0.950 1_545 S
C639 C656 1.574 . S
C639 C658 1.368 . S
C639 H663 0.949 . S
H640 C644 0.949 1_565 S
C641 C642 1.349 . S
C641 C643 1.327 . S
C641 H664 0.950 . S
C642 C641 1.349 . S
C642 C654 1.342 1_545 S
C643 C641 1.327 . S
C643 C659 1.429 . S
C643 H665 0.950 . S
C644 H640 0.949 1_545 S
C644 C652 1.574 . S
C644 C660 1.368 . S
H645 C653 0.950 . S
H646 C651 0.950 . S
H647 C652 0.949 1_565 S
H648 C654 0.959 . S
H649 C655 0.924 1_565 S
H650 C656 0.949 . S
C651 H646 0.950 . S
C651 C653 1.327 . S
C651 C657 1.429 . S
C652 C644 1.574 . S
C652 H647 0.949 1_545 S
C652 C658 1.368 . S
C653 C637 1.349 . S
C653 H645 0.950 . S
C653 C651 1.327 . S
C654 C642 1.342 1_565 S
C654 H648 0.959 . S
C654 C655 1.319 1_565 S
C655 H649 0.924 1_545 S
C655 C654 1.319 1_545 S
C655 C659 1.460 . S
C656 C639 1.574 . S
C656 H650 0.949 . S
C656 C660 1.368 . S
C657 C638 1.429 . S
C657 C651 1.429 . S
C657 C658 1.523 . S
C658 C639 1.368 . S
C658 C652 1.368 . S
C658 C657 1.523 . S
C659 C643 1.429 . S
C659 C655 1.460 . S
C659 C660 1.523 . S
C660 C644 1.368 . S
C660 C656 1.368 . S
C660 C659 1.523 . S
H661 C636 0.950 1_565 S
H662 C638 0.950 1_565 S
H663 C639 0.949 . S
H664 C641 0.950 . S
H665 C643 0.950 . S
C666 C667 1.349 . S
C666 C668 1.327 . S
C666 H691 0.950 . S
C667 C666 1.349 . S
C667 C683 1.349 . S
C668 C666 1.327 . S
C668 C687 1.429 . S
C668 H692 0.950 . S
C669 C686 1.574 . S
C669 C688 1.368 . S
C669 H693 0.949 . S
H670 C674 0.949 1_554 S
C671 C672 1.349 . S
C671 C673 1.327 . S
C671 H694 0.950 . S
C672 C671 1.349 . S
C672 C684 1.349 . S
C673 C671 1.327 . S
C673 C689 1.429 . S
C673 H695 0.950 . S
C674 H670 0.949 1_556 S
C674 C682 1.574 . S
C674 C690 1.368 1_556 S
H675 C683 0.950 . S
H676 C681 0.950 . S
H677 C682 0.949 . S
H678 C684 0.950 . S
H679 C685 0.950 . S
H680 C686 0.949 1_554 S
C681 H676 0.950 . S
C681 C683 1.327 . S
C681 C687 1.429 . S
C682 C674 1.574 . S
C682 H677 0.949 . S
C682 C688 1.368 . S
C683 C667 1.349 . S
C683 H675 0.950 . S
C683 C681 1.327 . S
C684 C672 1.349 . S
C684 H678 0.950 . S
C684 C685 1.327 . S
C685 H679 0.950 . S
C685 C684 1.327 . S
C685 C689 1.429 . S
C686 C669 1.574 . S
C686 H680 0.949 1_556 S
C686 C690 1.368 1_556 S
C687 C668 1.429 . S
C687 C681 1.429 . S
C687 C688 1.523 . S
C688 C669 1.368 . S
C688 C682 1.368 . S
C688 C687 1.523 . S
C689 C673 1.429 . S
C689 C685 1.429 . S
C689 C690 1.523 . S
C690 C674 1.368 1_554 S
C690 C686 1.368 1_554 S
C690 C689 1.523 . S
H691 C666 0.950 . S
H692 C668 0.950 . S
H693 C669 0.949 . S
H694 C671 0.950 . S
H695 C673 0.950 . S
C696 C697 1.349 . S
C696 C698 1.327 . S
C696 H721 0.950 . S
C697 C696 1.349 . S
C697 C713 1.349 . S
C698 C696 1.327 . S
C698 C717 1.429 . S
C698 H722 0.950 . S
C699 C716 1.574 . S
C699 C718 1.368 . S
C699 H723 0.949 . S
H700 C704 0.949 . S
C701 C702 1.349 . S
C701 C703 1.327 . S
C701 H724 0.950 . S
C702 C701 1.349 . S
C702 C714 1.349 . S
C703 C701 1.327 . S
C703 C719 1.429 . S
C703 H725 0.950 . S
C704 H700 0.949 . S
C704 C712 1.574 . S
C704 C720 1.368 . S
H705 C713 0.950 . S
H706 C711 0.950 . S
H707 C712 0.949 . S
H708 C714 0.950 . S
H709 C715 0.950 . S
H710 C716 0.949 . S
C711 H706 0.950 . S
C711 C713 1.327 . S
C711 C717 1.429 . S
C712 C704 1.574 . S
C712 H707 0.949 . S
C712 C718 1.368 . S
C713 C697 1.349 . S
C713 H705 0.950 . S
C713 C711 1.327 . S
C714 C702 1.349 . S
C714 H708 0.950 . S
C714 C715 1.327 . S
C715 H709 0.950 . S
C715 C714 1.327 . S
C715 C719 1.429 . S
C716 C699 1.574 . S
C716 H710 0.949 . S
C716 C720 1.368 . S
C717 C698 1.429 . S
C717 C711 1.429 . S
C717 C718 1.523 . S
C718 C699 1.368 . S
C718 C712 1.368 . S
C718 C717 1.523 . S
C719 C703 1.429 . S
C719 C715 1.429 . S
C719 C720 1.523 . S
C720 C704 1.368 . S
C720 C716 1.368 . S
C720 C719 1.523 . S
H721 C696 0.950 . S
H722 C698 0.950 . S
H723 C699 0.949 . S
H724 C701 0.950 . S
H725 C703 0.950 . S
C187 C10 3.179 . S
C192 C185 3.112 . S
C217 C55 1.247 . S
C222 C163 1.239 . S
C247 C90 1.922 . S
C252 C174 1.886 . S
C277 C19 2.853 . S
C282 C179 2.835 . S
C312 C157 1.121 . S
C307 C46 1.125 . S
C342 C168 1.862 . S
C337 C99 1.873 . S
C367 C50 1.933 . S
C372 C141 1.889 . S
C397 C95 0.378 . S
C402 C146 0.361 . S
C427 C6 1.118 . S
C432 C124 1.108 1_565 S
C462 C135 1.820 . S
C457 C59 1.844 . S
C492 C152 0.343 . S
C487 C86 0.395 . S
C517 C15 1.248 . S
C522 C130 1.239 . S
C552 C147 1.265 . S
C547 C18 1.229 . S
C577 C49 1.518 . S
C582 C125 1.533 . S
C607 C98 1.440 . S
C612 C136 1.466 . S
C642 C169 1.478 . S
C637 C58 1.422 . S
C672 C180 1.747 . S
C667 C89 1.662 . S
C697 C9 1.510 . S
C702 C158 1.530 . S
