# Generated by pormake.
# Topology csq, (4,8)-cn, num edge types: 1
# Building blocks:
#     Node 0, Type 0, BuildingBlock: KUFVIS_clean_linker_0, # of connection points: 4
#     Node 1, Type 0, BuildingBlock: KUFVIS_clean_linker_0, # of connection points: 4
#     Node 2, Type 0, BuildingBlock: KUFVIS_clean_linker_0, # of connection points: 4
#     Node 3, Type 0, BuildingBlock: KUFVIS_clean_linker_0, # of connection points: 4
#     Node 4, Type 0, BuildingBlock: KUFVIS_clean_linker_0, # of connection points: 4
#     Node 5, Type 0, BuildingBlock: KUFVIS_clean_linker_0, # of connection points: 4
#     Node 6, Type 1, BuildingBlock: TAGTUT_clean_sbu_1, # of connection points: 8
#     Node 7, Type 1, BuildingBlock: TAGTUT_clean_sbu_1, # of connection points: 8
#     Node 8, Type 1, BuildingBlock: TAGTUT_clean_sbu_1, # of connection points: 8
#     Edge 9, Type (0, 1), BuildingBlock: KIFKEQ_clean_linker_1, # of connection points: 2
#     Edge 10, Type (0, 1), BuildingBlock: KIFKEQ_clean_linker_1, # of connection points: 2
#     Edge 11, Type (0, 1), BuildingBlock: KIFKEQ_clean_linker_1, # of connection points: 2
#     Edge 12, Type (0, 1), BuildingBlock: KIFKEQ_clean_linker_1, # of connection points: 2
#     Edge 13, Type (0, 1), BuildingBlock: KIFKEQ_clean_linker_1, # of connection points: 2
#     Edge 14, Type (0, 1), BuildingBlock: KIFKEQ_clean_linker_1, # of connection points: 2
#     Edge 15, Type (0, 1), BuildingBlock: KIFKEQ_clean_linker_1, # of connection points: 2
#     Edge 16, Type (0, 1), BuildingBlock: KIFKEQ_clean_linker_1, # of connection points: 2
#     Edge 17, Type (0, 1), BuildingBlock: KIFKEQ_clean_linker_1, # of connection points: 2
#     Edge 18, Type (0, 1), BuildingBlock: KIFKEQ_clean_linker_1, # of connection points: 2
#     Edge 19, Type (0, 1), BuildingBlock: KIFKEQ_clean_linker_1, # of connection points: 2
#     Edge 20, Type (0, 1), BuildingBlock: KIFKEQ_clean_linker_1, # of connection points: 2
#     Edge 21, Type (0, 1), BuildingBlock: KIFKEQ_clean_linker_1, # of connection points: 2
#     Edge 22, Type (0, 1), BuildingBlock: KIFKEQ_clean_linker_1, # of connection points: 2
#     Edge 23, Type (0, 1), BuildingBlock: KIFKEQ_clean_linker_1, # of connection points: 2
#     Edge 24, Type (0, 1), BuildingBlock: KIFKEQ_clean_linker_1, # of connection points: 2
#     Edge 25, Type (0, 1), BuildingBlock: KIFKEQ_clean_linker_1, # of connection points: 2
#     Edge 26, Type (0, 1), BuildingBlock: KIFKEQ_clean_linker_1, # of connection points: 2
#     Edge 27, Type (0, 1), BuildingBlock: KIFKEQ_clean_linker_1, # of connection points: 2
#     Edge 28, Type (0, 1), BuildingBlock: KIFKEQ_clean_linker_1, # of connection points: 2
#     Edge 29, Type (0, 1), BuildingBlock: KIFKEQ_clean_linker_1, # of connection points: 2
#     Edge 30, Type (0, 1), BuildingBlock: KIFKEQ_clean_linker_1, # of connection points: 2
#     Edge 31, Type (0, 1), BuildingBlock: KIFKEQ_clean_linker_1, # of connection points: 2
#     Edge 32, Type (0, 1), BuildingBlock: KIFKEQ_clean_linker_1, # of connection points: 2
# Relax obj value: 0.044
# Max RMSD: 0.132
# Mean RMSD: 0.100
data_MOF--net-csq--node1-TAGTUT_clean_sbu_1--node2-KUFVIS_clean_linker_0--edge1-KIFKEQ_clean_linker_1
_symmetry_space_group_name_H-M    P1
_symmetry_Int_Tables_number       1
_symmetry_cell_setting            triclinic
loop_
_symmetry_equiv_pos_as_xyz
'x, y, z'
_cell_length_a     54.15968
_cell_length_b     54.09522
_cell_length_c     18.890099
_cell_angle_alpha  92.51716
_cell_angle_beta   91.589228
_cell_angle_gamma 119.95706
loop_
_atom_site_label
_atom_site_type_symbol
_atom_site_fract_x
_atom_site_fract_y
_atom_site_fract_z
_atom_type_partial_charge
H0 H 0.34816 0.48448 0.16843 0.0
H1 H 0.27924 0.48628 0.26928 0.0
H2 H 0.2895 0.49802 0.04385 0.0
H3 H 0.24406 0.47783 0.03575 0.0
H4 H 0.17933 0.49022 0.12416 0.0
H5 H 0.25082 0.50428 0.25917 0.0
C6 C 0.32926 0.48657 0.16458 0.0
C7 C 0.31961 0.49024 0.09862 0.0
C8 C 0.3153 0.48628 0.22606 0.0
C9 C 0.29039 0.48817 0.22144 0.0
C10 C 0.2798 0.49156 0.15542 0.0
C11 C 0.29571 0.49392 0.09488 0.0
C12 C 0.25183 0.49137 0.14853 0.0
C13 C 0.23662 0.48416 0.08179 0.0
C14 C 0.21102 0.48431 0.07289 0.0
C15 C 0.19935 0.49038 0.13152 0.0
C16 C 0.21341 0.49729 0.19903 0.0
C17 C 0.23973 0.49791 0.20737 0.0
H18 H 0.70521 0.16646 0.14845 0.0
H19 H 0.77699 0.24243 0.24584 0.0
H20 H 0.7554 0.23614 0.02075 0.0
H21 H 0.80338 0.2619 0.01712 0.0
H22 H 0.86307 0.34626 0.10267 0.0
H23 H 0.79728 0.28938 0.2322 0.0
C24 C 0.72342 0.18761 0.14375 0.0
C25 C 0.72892 0.19926 0.07737 0.0
C26 C 0.74018 0.2035 0.20473 0.0
C27 C 0.76362 0.23098 0.19863 0.0
C28 C 0.77009 0.24308 0.13209 0.0
C29 C 0.75185 0.22712 0.07205 0.0
C30 C 0.79589 0.27194 0.12472 0.0
C31 C 0.81016 0.27805 0.06057 0.0
C32 C 0.83379 0.30506 0.05252 0.0
C33 C 0.84393 0.32587 0.10865 0.0
C34 C 0.83137 0.3202 0.17382 0.0
C35 C 0.80714 0.29332 0.18177 0.0
H36 H 0.56716 0.87242 0.04921 0.0
H37 H 0.58009 0.81032 0.15122 0.0
H38 H 0.5238 0.7859 0.96147 0.0
H39 H 0.53996 0.75375 0.94729 0.0
H40 H 0.5271 0.68491 0.0738 0.0
H41 H 0.54868 0.76546 0.1773 0.0
C42 C 0.56316 0.85068 0.05087 0.0
C43 C 0.54465 0.83014 -0.00102 0.0
C44 C 0.57584 0.84368 0.10578 0.0
C45 C 0.56985 0.81535 0.10872 0.0
C46 C 0.55107 0.79391 0.05688 0.0
C47 C 0.53863 0.80175 0.00145 0.0
C48 C 0.54418 0.76352 0.06156 0.0
C49 C 0.53846 0.74554 -0.00079 0.0
C50 C 0.53151 0.71693 0.0037 0.0
C51 C 0.53087 0.7065 0.07024 0.0
C52 C 0.5376 0.72396 0.13227 0.0
C53 C 0.54399 0.75237 0.12835 0.0
H54 H 0.88213 0.54692 0.08912 0.0
H55 H 0.81355 0.54968 0.187 0.0
H56 H 0.80785 0.52849 0.96047 0.0
H57 H 0.777 0.54278 0.95421 0.0
H58 H 0.70802 0.54261 0.05883 0.0
H59 H 0.76859 0.53084 0.18019 0.0
C60 C 0.86124 0.54503 0.08437 0.0
C61 C 0.8468 0.53859 0.01757 0.0
C62 C 0.84849 0.54769 0.14538 0.0
C63 C 0.82164 0.54546 0.13916 0.0
C64 C 0.80613 0.53873 0.07294 0.0
C65 C 0.81897 0.53456 0.0122 0.0
C66 C 0.7775 0.53736 0.06801 0.0
C67 C 0.76616 0.54046 0.00273 0.0
C68 C 0.74087 0.54161 -0.00052 0.0
C69 C 0.72718 0.54095 0.06162 0.0
C70 C 0.73755 0.53766 0.127 0.0
C71 C 0.76187 0.53463 0.12945 0.0
H72 H 0.35402 0.86046 0.07642 0.0
H73 H 0.30028 0.79149 0.20285 0.0
H74 H 0.2824 0.78504 0.97602 0.0
H75 H 0.26407 0.73723 -0.00497 0.0
H76 H 0.18994 0.68475 0.10804 0.0
H77 H 0.24983 0.76899 0.1956 0.0
C78 C 0.33543 0.83949 0.08038 0.0
C79 C 0.31919 0.82381 0.01863 0.0
C80 C 0.32881 0.82792 0.14676 0.0
C81 C 0.30515 0.80043 0.15145 0.0
C82 C 0.28774 0.78467 0.0903 0.0
C83 C 0.29536 0.79652 0.02379 0.0
C84 C 0.26121 0.75642 0.09612 0.0
C85 C 0.25181 0.73431 0.04139 0.0
C86 C 0.22627 0.70828 0.04618 0.0
C87 C 0.21016 0.70444 0.10526 0.0
C88 C 0.21833 0.72623 0.15834 0.0
C89 C 0.24403 0.75203 0.15469 0.0
H90 H 0.51932 0.33918 0.17191 0.0
H91 H 0.52003 0.27255 0.28374 0.0
H92 H 0.50135 0.26215 0.05528 0.0
H93 H 0.47715 0.21667 0.07559 0.0
H94 H 0.49665 0.15685 0.16524 0.0
H95 H 0.53523 0.24166 0.26253 0.0
C96 C 0.51755 0.31825 0.17097 0.0
C97 C 0.50898 0.30134 0.10774 0.0
C98 C 0.52213 0.30825 0.23379 0.0
C99 C 0.51811 0.28053 0.23359 0.0
C100 C 0.51105 0.26329 0.16917 0.0
C101 C 0.50681 0.27435 0.10582 0.0
C102 C 0.50708 0.23366 0.16857 0.0
C103 C 0.48894 0.21235 0.11552 0.0
C104 C 0.48518 0.18474 0.11449 0.0
C105 C 0.49942 0.17818 0.16631 0.0
C106 C 0.51711 0.19841 0.21976 0.0
C107 C 0.52104 0.22616 0.22117 0.0
C108 C 0.99589 0.4293 0.77776 0.0
C109 C 0.08221 0.48111 0.7065 0.0
C110 C 0.06414 0.56906 0.73045 0.0
Mg111 Mg 0.02225 0.45121 0.63412 0.0
O112 O 1.01656 0.48112 0.66806 0.0
Mg113 Mg 0.03514 0.50088 0.76238 0.0
Mg114 Mg 0.02921 0.51503 0.61178 0.0
O115 O 0.04191 0.54896 0.55581 0.0
Mg116 Mg 0.03588 0.57846 0.59073 0.0
Mg117 Mg 0.02403 0.52975 0.46075 0.0
C118 C 0.99449 0.46092 0.49307 0.0
C119 C 0.07494 0.51623 0.49934 0.0
O120 O 1.00858 0.45535 0.80433 0.0
O121 O 0.99814 0.42277 0.71315 0.0
O122 O 0.07337 0.49416 0.74736 0.0
O123 O 0.06659 0.46402 0.65448 0.0
O124 O 1.00191 0.44556 0.52824 0.0
O125 O 1.0009 0.48631 0.51628 0.0
C126 C 0.98405 0.51437 0.72586 0.0
O127 O 0.99208 0.51925 0.66199 0.0
O128 O 0.997 0.50736 0.7714 0.0
O129 O 0.05065 0.57603 0.41992 0.0
O130 O 0.06034 0.60735 0.51373 0.0
O131 O 0.98561 0.53616 0.47443 0.0
C132 C 0.06299 0.60178 0.44872 0.0
O133 O 0.9917 0.56585 0.5678 0.0
O134 O 0.05629 0.58436 0.69654 0.0
C135 C 0.97646 0.549 0.51499 0.0
O136 O 0.05773 0.54381 0.70636 0.0
O137 O 0.06639 0.51097 0.56258 0.0
O138 O 0.0625 0.5236 0.45327 0.0
C139 C 0.46597 0.03545 0.78001 0.0
C140 C 0.4417 0.95239 0.68228 0.0
C141 C 0.54975 0.97973 0.71477 0.0
Mg142 Mg 0.46852 0.01266 0.62837 0.0
O143 O 0.50471 0.02253 0.66854 0.0
Mg144 Mg 0.50592 1.00372 0.75632 0.0
Mg145 Mg 0.52952 0.01393 0.60939 0.0
O146 O 0.55427 1.00518 0.55054 0.0
Mg147 Mg 0.5902 0.01442 0.59148 0.0
Mg148 Mg 0.5533 0.02407 0.46291 0.0
C149 C 0.50817 0.04649 0.50229 0.0
C150 C 0.48972 0.96932 0.47638 0.0
O151 O 0.4814 0.02547 0.80521 0.0
O152 O 0.45901 0.03318 0.71369 0.0
O153 O 0.46321 0.96301 0.72682 0.0
O154 O 0.4394 0.96712 0.63418 0.0
O155 O 0.48402 0.03563 0.53161 0.0
O156 O 0.52847 0.04254 0.52524 0.0
C157 C 0.56939 0.05855 0.74236 0.0
O158 O 0.568 0.05144 0.67595 0.0
O159 O 0.54874 0.04424 0.78181 0.0
O160 O 0.57794 1.00241 0.41408 0.0
O161 O 0.60018 0.99458 0.50568 0.0
O162 O 0.59608 0.06458 0.49396 0.0
C163 C 0.59342 0.9925 0.43931 0.0
O164 O 0.61937 0.06006 0.58728 0.0
O165 O 0.57385 0.98976 0.68564 0.0
C166 C 0.61737 0.07498 0.5392 0.0
O167 O 0.53037 0.98516 0.69301 0.0
O168 O 0.49113 0.97648 0.54278 0.0
O169 O 0.51039 0.98356 0.43689 0.0
C170 C 0.56493 0.58898 0.41858 0.0
C171 C 0.60735 0.54205 0.48312 0.0
C172 C 0.50286 0.45458 0.51189 0.0
Mg173 Mg 0.58167 0.57388 0.56287 0.0
O174 O 0.54402 0.54357 0.54255 0.0
Mg175 Mg 0.53652 0.51905 0.45338 0.0
Mg176 Mg 0.52817 0.51378 0.61175 0.0
O177 O 0.51229 0.48399 0.68076 0.0
Mg178 Mg 0.47473 0.45373 0.65968 0.0
Mg179 Mg 0.51958 0.50826 0.77017 0.0
C180 C 0.5536 0.57293 0.71148 0.0
C181 C 0.58157 0.52309 0.71536 0.0
O182 O 0.54977 0.56213 0.3984 0.0
O183 O 0.57896 0.59777 0.47884 0.0
O184 O 0.58258 0.52744 0.45181 0.0
O185 O 0.61236 0.5607 0.53382 0.0
O186 O 0.5743 0.58569 0.67021 0.0
O187 O 0.53349 0.54693 0.69795 0.0
C188 C 0.47458 0.50432 0.50844 0.0
O189 O 0.48334 0.50528 0.57281 0.0
O190 O 0.49086 0.50915 0.45692 0.0
O191 O 0.50589 0.46493 0.82521 0.0
O192 O 0.47793 0.42971 0.74225 0.0
O193 O 0.47362 0.49996 0.77129 0.0
C194 C 0.49139 0.43822 0.80321 0.0
O195 O 0.44383 0.46651 0.68966 0.0
O196 O 0.48191 0.44193 0.55246 0.0
C197 C 0.44884 0.48525 0.74013 0.0
O198 O 0.52293 0.48057 0.52573 0.0
O199 O 0.57293 0.52228 0.65095 0.0
O200 O 0.5652 0.51808 0.76677 0.0
H201 H 0.20159 0.47504 0.33055 0.0
H202 H 0.19442 0.53514 0.20127 0.0
H203 H 0.1725 0.48159 0.41896 0.0
H204 H 0.16488 0.54092 0.2866 0.0
H205 H 0.12264 0.56033 0.45443 0.0
H206 H 0.1618 0.559 0.3977 0.0
H207 H 0.12347 0.46908 0.43305 0.0
H208 H 0.085 0.47116 0.49395 0.0
C209 C 0.19427 0.49004 0.32175 0.0
C210 C 0.20021 0.5045 0.25886 0.0
C211 C 0.17729 0.49354 0.37188 0.0
C212 C 0.16611 0.51174 0.3603 0.0
C213 C 0.17332 0.52708 0.29865 0.0
C214 C 0.19015 0.52361 0.24905 0.0
C215 C 0.12306 0.54049 0.4517 0.0
C216 C 0.10084 0.51585 0.47827 0.0
C217 C 0.14534 0.53958 0.41844 0.0
C218 C 0.14558 0.51374 0.40877 0.0
C219 C 0.12417 0.4894 0.43953 0.0
C220 C 0.10206 0.49051 0.47435 0.0
H221 H 0.72774 0.22671 0.31966 0.0
H222 H 0.73261 0.15273 0.24616 0.0
H223 H 0.70437 0.20243 0.42539 0.0
H224 H 0.70972 0.12863 0.35175 0.0
H225 H 0.67376 0.09093 0.55147 0.0
H226 H 0.71161 0.12868 0.48768 0.0
H227 H 0.65423 0.15875 0.42693 0.0
H228 H 0.61646 0.12092 0.48958 0.0
C229 C 0.72464 0.20563 0.32739 0.0
C230 C 0.73181 0.19148 0.27486 0.0
C231 C 0.7112 0.19173 0.38762 0.0
C232 C 0.70522 0.16364 0.39688 0.0
C233 C 0.71435 0.15039 0.34668 0.0
C234 C 0.72729 0.16407 0.28601 0.0
C235 C 0.66966 0.10641 0.52722 0.0
C236 C 0.64213 0.10289 0.52499 0.0
C237 C 0.69124 0.12783 0.49012 0.0
C238 C 0.68575 0.1464 0.45153 0.0
C239 C 0.65918 0.14487 0.45635 0.0
C240 C 0.63752 0.12319 0.49225 0.0
H241 H 0.49648 0.68075 0.20121 0.0
H242 H 0.58728 0.73841 0.20454 0.0
H243 H 0.50415 0.6489 0.27479 0.0
H244 H 0.59526 0.70639 0.27655 0.0
H245 H 0.5975 0.64709 0.43932 0.0
H246 H 0.59028 0.68292 0.3845 0.0
H247 H 0.52199 0.6167 0.24713 0.0
H248 H 0.52862 0.58054 0.30368 0.0
C249 C 0.51801 0.68718 0.22052 0.0
C250 C 0.54128 0.71215 0.19814 0.0
C251 C 0.52249 0.66864 0.26114 0.0
C252 C 0.55035 0.67465 0.27982 0.0
C253 C 0.57351 0.70104 0.2631 0.0
C254 C 0.56899 0.71964 0.22265 0.0
C255 C 0.58107 0.64007 0.39694 0.0
C256 C 0.56354 0.61079 0.37618 0.0
C257 C 0.57696 0.66073 0.3655 0.0
C258 C 0.55524 0.65273 0.31227 0.0
C259 C 0.53846 0.62357 0.28935 0.0
C260 C 0.54255 0.60284 0.32093 0.0
H261 H 0.8258 0.51557 0.25801 0.0
H262 H 0.90309 0.58717 0.19154 0.0
H263 H 0.85095 0.51665 0.36899 0.0
H264 H 0.92813 0.58849 0.30268 0.0
H265 H 0.92857 0.50316 0.45401 0.0
H266 H 0.89214 0.50502 0.37938 0.0
H267 H 0.92908 0.5948 0.44151 0.0
H268 H 0.96532 0.59279 0.51759 0.0
C269 C 0.84796 0.53199 0.26807 0.0
C270 C 0.86264 0.55119 0.21627 0.0
C271 C 0.8623 0.53257 0.33136 0.0
C272 C 0.89139 0.55271 0.34441 0.0
C273 C 0.90559 0.57299 0.29437 0.0
C274 C 0.89139 0.57209 0.23059 0.0
C275 C 0.92813 0.52297 0.45411 0.0
C276 C 0.94979 0.54786 0.49107 0.0
C277 C 0.90729 0.52405 0.41145 0.0
C278 C 0.90809 0.55016 0.40407 0.0
C279 C 0.92816 0.57447 0.44611 0.0
C280 C 0.9487 0.57325 0.49005 0.0
H281 H 0.34079 0.88062 0.19922 0.0
H282 H 0.35977 0.81351 0.23474 0.0
H283 H 0.37711 0.91155 0.29196 0.0
H284 H 0.39665 0.84469 0.3267 0.0
H285 H 0.48688 0.92994 0.37766 0.0
H286 H 0.44456 0.89219 0.31039 0.0
H287 H 0.39137 0.9156 0.42846 0.0
H288 H 0.4339 0.95322 0.49677 0.0
C289 C 0.3524 0.87236 0.22799 0.0
C290 C 0.34751 0.84472 0.21012 0.0
C291 C 0.37309 0.88998 0.28114 0.0
C292 C 0.38973 0.88053 0.31646 0.0
C293 C 0.38414 0.8525 0.30025 0.0
C294 C 0.363 0.83464 0.24803 0.0
C295 C 0.46608 0.92664 0.39021 0.0
C296 C 0.46363 0.94437 0.44277 0.0
C297 C 0.44186 0.90495 0.35197 0.0
C298 C 0.41467 0.90092 0.36427 0.0
C299 C 0.41208 0.9182 0.41803 0.0
C300 C 0.43634 0.93955 0.4575 0.0
H301 H 0.56703 0.36131 0.26438 0.0
H302 H 0.48804 0.29763 0.34463 0.0
H303 H 0.56408 0.3987 0.33231 0.0
H304 H 0.48577 0.33482 0.41722 0.0
H305 H 0.46374 0.40462 0.44019 0.0
H306 H 0.47271 0.36826 0.38692 0.0
H307 H 0.56346 0.42459 0.43107 0.0
H308 H 0.55443 0.46137 0.47992 0.0
C309 C 0.54991 0.35523 0.30018 0.0
C310 C 0.52761 0.32673 0.29884 0.0
C311 C 0.54801 0.37672 0.3388 0.0
C312 C 0.52405 0.36998 0.37826 0.0
C313 C 0.50389 0.34093 0.38492 0.0
C314 C 0.50556 0.31945 0.34506 0.0
C315 C 0.48562 0.40944 0.43646 0.0
C316 C 0.50834 0.43588 0.46372 0.0
C317 C 0.4908 0.38837 0.40753 0.0
C318 C 0.51881 0.39302 0.40657 0.0
C319 C 0.54161 0.42009 0.43065 0.0
C320 C 0.53644 0.44137 0.45817 0.0
H321 H 0.50479 0.8461 0.01224 0.0
H322 H 0.56066 0.83974 0.86391 0.0
H323 H 0.49941 0.87928 0.93825 0.0
H324 H 0.55609 0.87335 0.79056 0.0
H325 H 0.53919 0.92926 0.65704 0.0
H326 H 0.52894 0.88631 0.71631 0.0
H327 H 0.53129 0.92887 0.91772 0.0
H328 H 0.54056 0.97168 0.85685 0.0
C329 C 0.51487 0.85087 0.96203 0.0
C330 C 0.53277 0.84008 0.94297 0.0
C331 C 0.5123 0.87032 0.9204 0.0
C332 C 0.52773 0.87949 0.85908 0.0
C333 C 0.54367 0.86668 0.83704 0.0
C334 C 0.54614 0.84716 0.87863 0.0
C335 C 0.5371 0.92919 0.71395 0.0
C336 C 0.54088 0.95368 0.75277 0.0
C337 C 0.53136 0.90466 0.74795 0.0
C338 C 0.5296 0.90411 0.82194 0.0
C339 C 0.5322 0.92837 0.86053 0.0
C340 C 0.53771 0.95297 0.82607 0.0
H341 H 0.70804 0.49825 0.90179 0.0
H342 H 0.74335 0.58873 0.94808 0.0
H343 H 0.67522 0.49839 0.81034 0.0
H344 H 0.71126 0.5893 0.85527 0.0
H345 H 0.61446 0.55995 0.82284 0.0
H346 H 0.66039 0.56882 0.87001 0.0
H347 H 0.66252 0.51437 0.69869 0.0
H348 H 0.61581 0.50558 0.65073 0.0
C349 C 0.7096 0.51838 0.88989 0.0
C350 C 0.72799 0.54346 0.9316 0.0
C351 C 0.6909 0.51853 0.83744 0.0
C352 C 0.69035 0.54379 0.82628 0.0
C353 C 0.7109 0.56943 0.86336 0.0
C354 C 0.72937 0.5692 0.9161 0.0
C355 C 0.62501 0.55036 0.79429 0.0
C356 C 0.61155 0.53184 0.73379 0.0
C357 C 0.65153 0.55567 0.8209 0.0
C358 C 0.66519 0.54231 0.78817 0.0
C359 C 0.65244 0.5249 0.72513 0.0
C360 C 0.62586 0.51995 0.69757 0.0
H361 H 0.20841 0.65141 0.0471 0.0
H362 H 0.21136 0.71545 0.91387 0.0
H363 H 0.16912 0.61394 0.97068 0.0
H364 H 0.1723 0.67808 0.83707 0.0
H365 H 0.07691 0.61798 0.80771 0.0
H366 H 0.12149 0.65015 0.87476 0.0
H367 H 0.14879 0.58794 0.84763 0.0
H368 H 0.1039 0.55548 0.77956 0.0
C369 C 0.20158 0.65728 -0.00062 0.0
C370 C 0.21278 0.6863 0.98642 0.0
C371 C 0.17893 0.63587 0.95604 0.0
C372 C 0.16712 0.64321 0.89932 0.0
C373 C 0.1806 0.67191 0.88158 0.0
C374 C 0.20332 0.69328 0.92468 0.0
C375 C 0.09211 0.61083 0.81707 0.0
C376 C 0.08691 0.58424 0.78757 0.0
C377 C 0.11786 0.62947 0.85462 0.0
C378 C 0.13904 0.62197 0.86414 0.0
C379 C 0.13299 0.59444 0.84008 0.0
C380 C 0.10714 0.57573 0.80189 0.0
H381 H 0.44262 0.13035 0.12926 0.0
H382 H 0.49102 0.18867 0.97223 0.0
H383 H 0.42869 0.08985 0.04342 0.0
H384 H 0.4768 0.14821 0.88595 0.0
H385 H 0.4434 0.06849 0.74157 0.0
H386 H 0.43752 0.10264 0.8171 0.0
H387 H 0.46519 0.07615 0.00079 0.0
H388 H 0.47139 0.04207 0.92546 0.0
C389 C 0.44922 0.13449 0.07537 0.0
C390 C 0.46823 0.1625 0.05739 0.0
C391 C 0.44143 0.11136 0.02657 0.0
C392 C 0.45219 0.11594 0.95878 0.0
C393 C 0.46821 0.14411 0.93799 0.0
C394 C 0.47623 0.16729 0.98714 0.0
C395 C 0.44774 0.06948 0.79825 0.0
C396 C 0.45821 0.05272 0.82744 0.0
C397 C 0.44437 0.0891 0.84131 0.0
C398 C 0.45091 0.09203 0.91454 0.0
C399 C 0.45967 0.07408 0.94443 0.0
C400 C 0.46342 0.0547 0.90126 0.0
H401 H 0.33144 0.4489 0.05504 0.0
H402 H 0.34086 0.52921 -0.00372 0.0
H403 H 0.35838 0.44817 0.95428 0.0
H404 H 0.3682 0.52865 0.89508 0.0
H405 H 0.45222 0.53197 0.81074 0.0
H406 H 0.41703 0.53311 0.8866 0.0
H407 H 0.35724 0.44498 0.81992 0.0
H408 H 0.39251 0.44388 0.74332 0.0
C409 C 0.33912 0.4663 0.02009 0.0
C410 C 0.3342 0.48919 0.03376 0.0
C411 C 0.35432 0.46576 0.96195 0.0
C412 C 0.36538 0.4883 0.91642 0.0
C413 C 0.35998 0.51098 0.92922 0.0
C414 C 0.34429 0.51127 0.98691 0.0
C415 C 0.43128 0.51305 0.81067 0.0
C416 C 0.42523 0.48777 0.77125 0.0
C417 C 0.41107 0.51374 0.8541 0.0
C418 C 0.38445 0.48904 0.86002 0.0
C419 C 0.3777 0.46428 0.81705 0.0
C420 C 0.39779 0.46373 0.77262 0.0
H421 H 0.8365 0.34178 0.95722 0.0
H422 H 0.87004 0.28704 0.00986 0.0
H423 H 0.87709 0.3689 0.88506 0.0
H424 H 0.91081 0.31415 0.93689 0.0
H425 H 0.9694 0.37114 0.74954 0.0
H426 H 0.92668 0.33475 0.80323 0.0
H427 H 0.92973 0.39977 0.94979 0.0
H428 H 0.97232 0.43602 0.89752 0.0
C429 C 0.85183 0.33468 0.95018 0.0
C430 C 0.8502 0.31232 0.9884 0.0
C431 C 0.87521 0.35039 0.90989 0.0
C432 C 0.89722 0.34388 0.90696 0.0
C433 C 0.89405 0.31953 0.93863 0.0
C434 C 0.87064 0.30386 0.97957 0.0
C435 C 0.96129 0.37757 0.79422 0.0
C436 C 0.97416 0.40656 0.8189 0.0
C437 C 0.93684 0.35675 0.82458 0.0
C438 C 0.9247 0.3647 0.87922 0.0
C439 C 0.93847 0.39329 0.90661 0.0
C440 C 0.96305 0.41397 0.87715 0.0
H441 H 0.83081 0.49096 0.92915 0.0
H442 H 0.89641 0.57928 0.9674 0.0
H443 H 0.86015 0.48393 0.84255 0.0
H444 H 0.92557 0.57251 0.88057 0.0
H445 H 0.96767 0.55374 0.69537 0.0
H446 H 0.9301 0.5595 0.75083 0.0
H447 H 0.90675 0.48444 0.86611 0.0
H448 H 0.94419 0.47902 0.81191 0.0
C449 C 0.85109 0.50905 0.91732 0.0
C450 C 0.86135 0.53565 0.95477 0.0
C451 C 0.86798 0.50503 0.86818 0.0
C452 C 0.89526 0.52766 0.85479 0.0
C453 C 0.90459 0.55473 0.88897 0.0
C454 C 0.88795 0.5586 0.93884 0.0
C455 C 0.95405 0.53818 0.73128 0.0
C456 C 0.95893 0.516 0.74942 0.0
C457 C 0.93267 0.54155 0.7634 0.0
C458 C 0.91538 0.5224 0.8129 0.0
C459 C 0.91938 0.49938 0.82774 0.0
C460 C 0.941 0.49639 0.79697 0.0
H461 H 0.3272 0.8747 0.97736 0.0
H462 H 0.33232 0.80081 0.90438 0.0
H463 H 0.35012 0.89879 0.8718 0.0
H464 H 0.35575 0.8251 0.79864 0.0
H465 H 0.44318 0.90685 0.73257 0.0
H466 H 0.40578 0.86903 0.79613 0.0
H467 H 0.34772 0.89832 0.73578 0.0
H468 H 0.38519 0.93605 0.67106 0.0
C469 C 0.33265 0.8634 0.9377 0.0
C470 C 0.32814 0.83601 0.94892 0.0
C471 C 0.34557 0.87707 0.87703 0.0
C472 C 0.35472 0.86382 0.82688 0.0
C473 C 0.34888 0.83579 0.83637 0.0
C474 C 0.33544 0.82189 0.8966 0.0
C475 C 0.42205 0.90441 0.7302 0.0
C476 C 0.41713 0.92448 0.69729 0.0
C477 C 0.4006 0.88273 0.76663 0.0
C478 C 0.37396 0.881 0.7718 0.0
C479 C 0.36816 0.89933 0.73307 0.0
C480 C 0.38951 0.92074 0.69545 0.0
H481 H 0.46485 0.31091 0.09999 0.0
H482 H 0.53574 0.3192 0.98373 0.0
H483 H 0.46005 0.34378 0.02374 0.0
H484 H 0.53034 0.35161 0.9054 0.0
H485 H 0.48731 0.3887 0.75168 0.0
H486 H 0.48936 0.35189 0.81719 0.0
H487 H 0.49955 0.40033 0.01418 0.0
H488 H 0.49824 0.43794 0.94833 0.0
C489 C 0.47864 0.31892 0.05612 0.0
C490 C 0.50053 0.31244 0.04719 0.0
C491 C 0.47616 0.33801 0.01336 0.0
C492 C 0.49518 0.35057 0.9599 0.0
C493 C 0.51553 0.34223 0.94673 0.0
C494 C 0.51837 0.32344 0.99064 0.0
C495 C 0.48989 0.39156 0.80906 0.0
C496 C 0.49235 0.41615 0.84503 0.0
C497 C 0.49125 0.37052 0.84628 0.0
C498 C 0.49449 0.37327 0.92042 0.0
C499 C 0.49686 0.39773 0.95679 0.0
C500 C 0.49617 0.41922 0.91932 0.0
H501 H 0.15651 0.44472 0.02808 0.0
H502 H 0.23414 0.51474 0.95817 0.0
H503 H 0.13139 0.44267 0.91638 0.0
H504 H 0.20886 0.51313 0.84668 0.0
H505 H 0.13047 0.52709 0.76579 0.0
H506 H 0.16749 0.52539 0.83835 0.0
H507 H 0.13026 0.43555 0.77661 0.0
H508 H 0.09347 0.43739 0.70252 0.0
C509 C 0.16827 0.45921 0.98798 0.0
C510 C 0.19712 0.47992 0.00141 0.0
C511 C 0.15403 0.45793 0.92397 0.0
C512 C 0.16827 0.4777 0.87295 0.0
C513 C 0.19749 0.49758 0.88507 0.0
C514 C 0.21189 0.49847 0.94859 0.0
C515 C 0.13095 0.5073 0.76528 0.0
C516 C 0.10905 0.48234 0.72912 0.0
C517 C 0.15215 0.50632 0.80669 0.0
C518 C 0.15145 0.48024 0.81361 0.0
C519 C 0.13113 0.45586 0.77221 0.0
C520 C 0.11024 0.45699 0.72949 0.0
H521 H 0.69844 0.21384 0.98774 0.0
H522 H 0.71592 0.14595 0.02691 0.0
H523 H 0.66211 0.18294 0.89447 0.0
H524 H 0.6801 0.11529 0.93302 0.0
H525 H 0.62532 0.0741 0.72554 0.0
H526 H 0.6674 0.11142 0.79594 0.0
H527 H 0.61365 0.13593 0.90756 0.0
H528 H 0.57178 0.09849 0.8383 0.0
C529 C 0.69495 0.19256 0.97522 0.0
C530 C 0.70988 0.18221 0.01454 0.0
C531 C 0.67413 0.17486 0.92217 0.0
C532 C 0.66831 0.14672 0.90647 0.0
C533 C 0.68431 0.13695 0.94343 0.0
C534 C 0.70468 0.15441 -0.00264 0.0
C535 C 0.62269 0.08798 0.76378 0.0
C536 C 0.59536 0.08354 0.77622 0.0
C537 C 0.64668 0.10914 0.80447 0.0
C538 C 0.64379 0.12661 0.85715 0.0
C539 C 0.6166 0.12302 0.86692 0.0
C540 C 0.59263 0.10152 0.82749 0.0
H541 H 0.48882 0.66249 0.97204 0.0
H542 H 0.56833 0.72806 0.89804 0.0
H543 H 0.49324 0.62623 0.90335 0.0
H544 H 0.57188 0.692 0.82387 0.0
H545 H 0.59335 0.62239 0.7844 0.0
H546 H 0.58482 0.65795 0.84455 0.0
H547 H 0.49383 0.60204 0.80273 0.0
H548 H 0.50248 0.56601 0.74764 0.0
C549 C 0.5066 0.66922 0.93815 0.0
C550 C 0.52847 0.69797 0.94119 0.0
C551 C 0.50924 0.64837 0.89866 0.0
C552 C 0.53346 0.65592 0.85955 0.0
C553 C 0.55353 0.6852 0.85568 0.0
C554 C 0.55116 0.70605 0.89661 0.0
C555 C 0.57154 0.6175 0.79012 0.0
C556 C 0.54862 0.59136 0.76195 0.0
C557 C 0.56659 0.63812 0.82311 0.0
C558 C 0.53861 0.63336 0.82712 0.0
C559 C 0.51567 0.60661 0.80141 0.0
C560 C 0.52062 0.58575 0.77007 0.0
H561 H 0.5567 0.18184 0.20674 0.0
H562 H 0.50107 0.18894 0.35474 0.0
H563 H 0.559 0.14599 0.27698 0.0
H564 H 0.50327 0.15312 0.42506 0.0
H565 H 0.46975 0.05746 0.43583 0.0
H566 H 0.47955 0.10047 0.37847 0.0
H567 H 0.56993 0.13081 0.3989 0.0
H568 H 0.56021 0.08755 0.45791 0.0
C569 C 0.54628 0.17686 0.25649 0.0
C570 C 0.52883 0.18822 0.27571 0.0
C571 C 0.54735 0.15613 0.29625 0.0
C572 C 0.53074 0.14628 0.35538 0.0
C573 C 0.51589 0.16001 0.37891 0.0
C574 C 0.51502 0.18089 0.33949 0.0
C575 C 0.49175 0.07302 0.42748 0.0
C576 C 0.51419 0.06907 0.45232 0.0
C577 C 0.49737 0.09788 0.39536 0.0
C578 C 0.52554 0.11942 0.38638 0.0
C579 C 0.54801 0.11471 0.40619 0.0
C580 C 0.5424 0.0898 0.43925 0.0
H581 H 0.31242 0.43906 0.27795 0.0
H582 H 0.34773 0.52953 0.32449 0.0
H583 H 0.34463 0.43849 0.37035 0.0
H584 H 0.38067 0.52937 0.41559 0.0
H585 H 0.44051 0.52187 0.57403 0.0
H586 H 0.39377 0.51329 0.52688 0.0
H587 H 0.39551 0.45912 0.35424 0.0
H588 H 0.44148 0.46781 0.40055 0.0
C589 C 0.32637 0.45858 0.31001 0.0
C590 C 0.32773 0.48431 0.29458 0.0
C591 C 0.34494 0.45835 0.3625 0.0
C592 C 0.36558 0.48399 0.39941 0.0
C593 C 0.36494 0.50924 0.38856 0.0
C594 C 0.34614 0.50938 0.33636 0.0
C595 C 0.43038 0.50762 0.52705 0.0
C596 C 0.4446 0.49574 0.49027 0.0
C597 C 0.40378 0.50279 0.49995 0.0
C598 C 0.39088 0.48549 0.43683 0.0
C599 C 0.40448 0.47218 0.40343 0.0
C600 C 0.43102 0.47738 0.42957 0.0
H601 H 0.84808 0.37698 0.18148 0.0
H602 H 0.85168 0.31205 0.29848 0.0
H603 H 0.8879 0.41422 0.25686 0.0
H604 H 0.89114 0.34921 0.37481 0.0
H605 H 0.98463 0.41383 0.41186 0.0
H606 H 0.9409 0.3807 0.34279 0.0
H607 H 0.90872 0.43872 0.37671 0.0
H608 H 0.95286 0.47219 0.44612 0.0
C609 C 0.85664 0.37075 0.22535 0.0
C610 C 0.84691 0.34163 0.23399 0.0
C611 C 0.87956 0.39207 0.2682 0.0
C612 C 0.89322 0.38464 0.32038 0.0
C613 C 0.88152 0.35557 0.3337 0.0
C614 C 0.85855 0.33427 0.29098 0.0
C615 C 0.96854 0.41988 0.40335 0.0
C616 C 0.97219 0.44559 0.43496 0.0
C617 C 0.94325 0.40066 0.36471 0.0
C618 C 0.92091 0.40661 0.35643 0.0
C619 C 0.92541 0.43336 0.38293 0.0
C620 C 0.95084 0.45269 0.42196 0.0
H621 H 0.61891 0.89812 0.09192 0.0
H622 H 0.56913 0.83995 0.24791 0.0
H623 H 0.63237 0.93866 0.17728 0.0
H624 H 0.58313 0.88043 0.33375 0.0
H625 H 0.61666 0.96008 0.47797 0.0
H626 H 0.623 0.9262 0.40274 0.0
H627 H 0.59494 0.95209 0.21865 0.0
H628 H 0.58819 0.9859 0.29374 0.0
C629 C 0.61185 0.89399 0.14545 0.0
C630 C 0.59253 0.866 0.16308 0.0
C631 C 0.61943 0.91716 0.19399 0.0
C632 C 0.60827 0.91262 0.26132 0.0
C633 C 0.592 0.88448 0.28201 0.0
C634 C 0.58412 0.86127 0.23308 0.0
C635 C 0.61232 0.95903 0.42127 0.0
C636 C 0.60153 0.9755 0.39192 0.0
C637 C 0.61598 0.93957 0.37839 0.0
C638 C 0.60944 0.93654 0.30517 0.0
C639 C 0.60044 0.95426 0.27504 0.0
C640 C 0.59637 0.97347 0.31806 0.0
H641 H 0.72708 0.57956 0.17342 0.0
H642 H 0.71551 0.49796 0.22755 0.0
H643 H 0.69985 0.58 0.2738 0.0
H644 H 0.6878 0.49817 0.32837 0.0
H645 H 0.60376 0.49562 0.41015 0.0
H646 H 0.63931 0.49454 0.33558 0.0
H647 H 0.69965 0.58188 0.40768 0.0
H648 H 0.66401 0.58293 0.48294 0.0
C649 C 0.71893 0.56185 0.20745 0.0
C650 C 0.72329 0.53867 0.19252 0.0
C651 C 0.70352 0.56219 0.26533 0.0
C652 C 0.69167 0.53916 0.30931 0.0
C653 C 0.69661 0.51622 0.29543 0.0
C654 C 0.71253 0.51612 0.238 0.0
C655 C 0.62487 0.51437 0.41164 0.0
C656 C 0.63097 0.53944 0.4522 0.0
C657 C 0.64529 0.5137 0.36897 0.0
C658 C 0.67222 0.53823 0.36497 0.0
C659 C 0.67898 0.56273 0.40905 0.0
C660 C 0.65865 0.56325 0.45268 0.0
H661 H 0.16625 0.72065 0.14019 0.0
H662 H 0.22386 0.71804 0.29788 0.0
H663 H 0.12631 0.69471 0.21524 0.0
H664 H 0.1839 0.6924 0.37394 0.0
H665 H 0.10377 0.65491 0.50233 0.0
H666 H 0.14166 0.69263 0.43972 0.0
H667 H 0.10729 0.64124 0.24245 0.0
H668 H 0.06945 0.60306 0.305 0.0
C669 C 0.17049 0.71568 0.19251 0.0
C670 C 0.198 0.72131 0.21367 0.0
C671 C 0.14765 0.70058 0.23493 0.0
C672 C 0.15202 0.69119 0.29961 0.0
C673 C 0.18003 0.69948 0.32422 0.0
C674 C 0.20292 0.71434 0.2812 0.0
C675 C 0.10392 0.65172 0.44537 0.0
C676 C 0.08357 0.62584 0.4086 0.0
C677 C 0.12573 0.67335 0.40979 0.0
C678 C 0.12733 0.66983 0.3365 0.0
C679 C 0.10632 0.64457 0.29904 0.0
C680 C 0.08475 0.62267 0.33483 0.0
loop_
_geom_bond_atom_site_label_1
_geom_bond_atom_site_label_2
_geom_bond_distance
_geom_bond_site_symmetry_2
_ccdc_geom_bond_type
H0 C6 0.930 . S
H1 C9 0.931 . S
H2 C11 0.931 . S
H3 C13 0.930 . S
H4 C15 0.930 . S
H5 C17 0.931 . S
C6 H0 0.930 . S
C6 C7 1.380 . S
C6 C8 1.394 . S
C7 C6 1.380 . S
C7 C11 1.382 . S
C8 C6 1.394 . S
C8 C9 1.400 . S
C9 H1 0.931 . S
C9 C8 1.400 . S
C9 C10 1.375 . S
C10 C9 1.375 . S
C10 C11 1.415 . S
C10 C12 1.501 . S
C11 H2 0.931 . S
C11 C7 1.382 . S
C11 C10 1.415 . S
C12 C10 1.501 . S
C12 C13 1.384 . S
C12 C17 1.408 . S
C13 H3 0.930 . S
C13 C12 1.384 . S
C13 C14 1.389 . S
C14 C13 1.389 . S
C14 C15 1.405 . S
C15 H4 0.930 . S
C15 C14 1.405 . S
C15 C16 1.364 . S
C16 C15 1.364 . S
C16 C17 1.400 . S
C17 H5 0.931 . S
C17 C12 1.408 . S
C17 C16 1.400 . S
H18 C24 0.930 . S
H19 C27 0.931 . S
H20 C29 0.931 . S
H21 C31 0.930 . S
H22 C33 0.930 . S
H23 C35 0.931 . S
C24 H18 0.930 . S
C24 C25 1.380 . S
C24 C26 1.394 . S
C25 C24 1.380 . S
C25 C29 1.382 . S
C26 C24 1.394 . S
C26 C27 1.400 . S
C27 H19 0.931 . S
C27 C26 1.400 . S
C27 C28 1.375 . S
C28 C27 1.375 . S
C28 C29 1.415 . S
C28 C30 1.501 . S
C29 H20 0.931 . S
C29 C25 1.382 . S
C29 C28 1.415 . S
C30 C28 1.501 . S
C30 C31 1.384 . S
C30 C35 1.408 . S
C31 H21 0.930 . S
C31 C30 1.384 . S
C31 C32 1.389 . S
C32 C31 1.389 . S
C32 C33 1.405 . S
C33 H22 0.930 . S
C33 C32 1.405 . S
C33 C34 1.364 . S
C34 C33 1.364 . S
C34 C35 1.400 . S
C35 H23 0.931 . S
C35 C30 1.408 . S
C35 C34 1.400 . S
H36 C42 0.930 . S
H37 C45 0.931 . S
H38 C47 0.931 . S
H39 C49 0.930 . S
H40 C51 0.930 . S
H41 C53 0.931 . S
C42 H36 0.930 . S
C42 C43 1.380 1_554 S
C42 C44 1.394 . S
C43 C42 1.380 1_556 S
C43 C47 1.382 . S
C44 C42 1.394 . S
C44 C45 1.400 . S
C45 H37 0.931 . S
C45 C44 1.400 . S
C45 C46 1.375 . S
C46 C45 1.375 . S
C46 C47 1.415 1_554 S
C46 C48 1.501 . S
C47 H38 0.931 . S
C47 C43 1.382 . S
C47 C46 1.415 1_556 S
C48 C46 1.501 . S
C48 C49 1.384 1_554 S
C48 C53 1.408 . S
C49 H39 0.930 . S
C49 C48 1.384 1_556 S
C49 C50 1.389 . S
C50 C49 1.389 . S
C50 C51 1.405 1_556 S
C51 H40 0.930 . S
C51 C50 1.405 1_554 S
C51 C52 1.364 . S
C52 C51 1.364 . S
C52 C53 1.400 . S
C53 H41 0.931 . S
C53 C48 1.408 . S
C53 C52 1.400 . S
H54 C60 0.930 . S
H55 C63 0.931 . S
H56 C65 0.927 1_556 S
H57 C67 0.930 . S
H58 C69 0.930 . S
H59 C71 0.931 . S
C60 H54 0.930 . S
C60 C61 1.380 . S
C60 C62 1.394 . S
C61 C60 1.380 . S
C61 C65 1.382 . S
C62 C60 1.394 . S
C62 C63 1.400 . S
C63 H55 0.931 . S
C63 C62 1.400 . S
C63 C64 1.375 . S
C64 C63 1.375 . S
C64 C65 1.419 . S
C64 C66 1.501 . S
C65 H56 0.927 1_554 S
C65 C61 1.382 . S
C65 C64 1.419 . S
C66 C64 1.501 . S
C66 C67 1.384 1_554 S
C66 C71 1.408 . S
C67 H57 0.930 . S
C67 C66 1.384 1_556 S
C67 C68 1.389 . S
C68 C67 1.389 . S
C68 C69 1.405 1_556 S
C69 H58 0.930 . S
C69 C68 1.405 1_554 S
C69 C70 1.364 . S
C70 C69 1.364 . S
C70 C71 1.400 . S
C71 H59 0.931 . S
C71 C66 1.408 . S
C71 C70 1.400 . S
H72 C78 0.930 . S
H73 C81 0.931 . S
H74 C83 0.931 1_556 S
H75 C85 0.930 1_556 S
H76 C87 0.930 . S
H77 C89 0.931 . S
C78 H72 0.930 . S
C78 C79 1.380 . S
C78 C80 1.394 . S
C79 C78 1.380 . S
C79 C83 1.382 . S
C80 C78 1.394 . S
C80 C81 1.400 . S
C81 H73 0.931 . S
C81 C80 1.400 . S
C81 C82 1.375 . S
C82 C81 1.375 . S
C82 C83 1.415 . S
C82 C84 1.501 . S
C83 H74 0.931 1_554 S
C83 C79 1.382 . S
C83 C82 1.415 . S
C84 C82 1.501 . S
C84 C85 1.384 . S
C84 C89 1.408 . S
C85 H75 0.930 1_554 S
C85 C84 1.384 . S
C85 C86 1.389 . S
C86 C85 1.389 . S
C86 C87 1.405 . S
C87 H76 0.930 . S
C87 C86 1.405 . S
C87 C88 1.364 . S
C88 C87 1.364 . S
C88 C89 1.400 . S
C89 H77 0.931 . S
C89 C84 1.408 . S
C89 C88 1.400 . S
H90 C96 0.930 . S
H91 C99 0.931 . S
H92 C101 0.931 . S
H93 C103 0.930 . S
H94 C105 0.930 . S
H95 C107 0.931 . S
C96 H90 0.930 . S
C96 C97 1.380 . S
C96 C98 1.394 . S
C97 C96 1.380 . S
C97 C101 1.382 . S
C98 C96 1.394 . S
C98 C99 1.400 . S
C99 H91 0.931 . S
C99 C98 1.400 . S
C99 C100 1.375 . S
C100 C99 1.375 . S
C100 C101 1.415 . S
C100 C102 1.501 . S
C101 H92 0.931 . S
C101 C97 1.382 . S
C101 C100 1.415 . S
C102 C100 1.501 . S
C102 C103 1.384 . S
C102 C107 1.408 . S
C103 H93 0.930 . S
C103 C102 1.384 . S
C103 C104 1.389 . S
C104 C103 1.389 . S
C104 C105 1.405 . S
C105 H94 0.930 . S
C105 C104 1.405 . S
C105 C106 1.364 . S
C106 C105 1.364 . S
C106 C107 1.400 . S
C107 H95 0.931 . S
C107 C102 1.408 . S
C107 C106 1.400 . S
C108 O120 1.241 . S
C108 O121 1.280 . S
C109 O122 1.277 . S
C109 O123 1.245 . S
C110 O134 1.247 . S
C110 O136 1.289 . S
Mg111 O112 1.932 1_655 S
Mg111 O121 1.992 . S
Mg111 O123 1.976 1_655 S
Mg111 O124 2.068 . S
O112 Mg111 1.932 1_455 S
O112 Mg113 1.986 . S
O112 Mg114 1.917 . S
Mg113 O112 1.986 . S
Mg113 O120 2.042 1_455 S
Mg113 O122 2.041 . S
Mg113 O128 2.038 1_455 S
Mg113 O136 2.238 . S
Mg114 O112 1.917 . S
Mg114 O115 1.917 . S
Mg114 O125 2.106 1_455 S
Mg114 O127 2.079 1_455 S
Mg114 O136 2.106 . S
Mg114 O137 2.079 . S
O115 Mg114 1.917 . S
O115 Mg116 1.926 . S
O115 Mg117 1.986 . S
Mg116 O115 1.926 . S
Mg116 O130 1.984 . S
Mg116 O133 1.988 1_455 S
Mg116 O134 2.061 . S
Mg117 O115 1.986 . S
Mg117 O125 2.238 1_455 S
Mg117 O129 2.042 . S
Mg117 O131 2.041 1_455 S
Mg117 O138 2.038 . S
C118 O124 1.247 . S
C118 O125 1.289 . S
C119 O137 1.245 . S
C119 O138 1.274 . S
O120 C108 1.241 . S
O120 Mg113 2.042 1_655 S
O121 C108 1.280 . S
O121 Mg111 1.992 . S
O122 C109 1.277 . S
O122 Mg113 2.041 . S
O123 C109 1.245 . S
O123 Mg111 1.976 1_455 S
O124 Mg111 2.068 . S
O124 C118 1.247 . S
O125 Mg114 2.106 1_655 S
O125 Mg117 2.238 1_655 S
O125 C118 1.289 . S
C126 O127 1.245 . S
C126 O128 1.274 . S
O127 Mg114 2.079 1_655 S
O127 C126 1.245 . S
O128 Mg113 2.038 1_655 S
O128 C126 1.274 . S
O129 Mg117 2.042 . S
O129 C132 1.241 . S
O130 Mg116 1.984 . S
O130 C132 1.280 . S
O131 Mg117 2.041 1_655 S
O131 C135 1.277 . S
C132 O129 1.241 . S
C132 O130 1.280 . S
O133 Mg116 1.988 1_655 S
O133 C135 1.245 . S
O134 C110 1.247 . S
O134 Mg116 2.061 . S
C135 O131 1.277 . S
C135 O133 1.245 . S
O136 C110 1.289 . S
O136 Mg113 2.238 . S
O136 Mg114 2.106 . S
O137 Mg114 2.079 . S
O137 C119 1.245 . S
O138 Mg117 2.038 . S
O138 C119 1.274 . S
C139 O151 1.241 . S
C139 O152 1.280 . S
C140 O153 1.277 . S
C140 O154 1.245 . S
C141 O165 1.247 . S
C141 O167 1.289 . S
Mg142 O143 1.926 . S
Mg142 O152 1.984 . S
Mg142 O154 1.988 1_545 S
Mg142 O155 2.061 . S
O143 Mg142 1.926 . S
O143 Mg144 1.986 . S
O143 Mg145 1.917 . S
Mg144 O143 1.986 . S
Mg144 O151 2.042 . S
Mg144 O153 2.041 1_545 S
Mg144 O159 2.038 . S
Mg144 O167 2.238 1_545 S
Mg145 O143 1.917 . S
Mg145 O146 1.917 1_545 S
Mg145 O156 2.106 . S
Mg145 O158 2.079 . S
Mg145 O167 2.106 1_545 S
Mg145 O168 2.079 1_545 S
O146 Mg145 1.917 1_565 S
O146 Mg147 1.926 . S
O146 Mg148 1.986 1_565 S
Mg147 O146 1.926 . S
Mg147 O161 1.984 . S
Mg147 O164 1.988 1_565 S
Mg147 O165 2.061 . S
Mg148 O146 1.986 1_545 S
Mg148 O156 2.238 . S
Mg148 O160 2.042 1_545 S
Mg148 O162 2.041 . S
Mg148 O169 2.038 1_545 S
C149 O155 1.247 . S
C149 O156 1.289 . S
C150 O168 1.245 . S
C150 O169 1.274 . S
O151 C139 1.241 . S
O151 Mg144 2.042 . S
O152 C139 1.280 . S
O152 Mg142 1.984 . S
O153 C140 1.277 . S
O153 Mg144 2.041 1_565 S
O154 C140 1.245 . S
O154 Mg142 1.988 1_565 S
O155 Mg142 2.061 . S
O155 C149 1.247 . S
O156 Mg145 2.106 . S
O156 Mg148 2.238 . S
O156 C149 1.289 . S
C157 O158 1.245 . S
C157 O159 1.274 . S
O158 Mg145 2.079 . S
O158 C157 1.245 . S
O159 Mg144 2.038 . S
O159 C157 1.274 . S
O160 Mg148 2.042 1_565 S
O160 C163 1.241 . S
O161 Mg147 1.984 . S
O161 C163 1.280 . S
O162 Mg148 2.041 . S
O162 C166 1.277 . S
C163 O160 1.241 . S
C163 O161 1.280 . S
O164 Mg147 1.988 1_545 S
O164 C166 1.245 . S
O165 C141 1.247 . S
O165 Mg147 2.061 . S
C166 O162 1.277 . S
C166 O164 1.245 . S
O167 C141 1.289 . S
O167 Mg144 2.238 1_565 S
O167 Mg145 2.106 1_565 S
O168 Mg145 2.079 1_565 S
O168 C150 1.245 . S
O169 Mg148 2.038 1_565 S
O169 C150 1.274 . S
C170 O182 1.241 . S
C170 O183 1.280 . S
C171 O184 1.277 . S
C171 O185 1.245 . S
C172 O196 1.247 . S
C172 O198 1.289 . S
Mg173 O174 1.926 . S
Mg173 O183 1.984 . S
Mg173 O185 1.988 . S
Mg173 O186 2.061 . S
O174 Mg173 1.926 . S
O174 Mg175 1.986 . S
O174 Mg176 1.917 . S
Mg175 O174 1.986 . S
Mg175 O182 2.042 . S
Mg175 O184 2.041 . S
Mg175 O190 2.038 . S
Mg175 O198 2.238 . S
Mg176 O174 1.917 . S
Mg176 O177 1.917 . S
Mg176 O187 2.106 . S
Mg176 O189 2.079 . S
Mg176 O198 2.106 . S
Mg176 O199 2.079 . S
O177 Mg176 1.917 . S
O177 Mg178 1.926 . S
O177 Mg179 1.986 . S
Mg178 O177 1.926 . S
Mg178 O192 1.984 . S
Mg178 O195 1.988 . S
Mg178 O196 2.061 . S
Mg179 O177 1.986 . S
Mg179 O187 2.238 . S
Mg179 O191 2.042 . S
Mg179 O193 2.041 . S
Mg179 O200 2.038 . S
C180 O186 1.247 . S
C180 O187 1.289 . S
C181 O199 1.245 . S
C181 O200 1.274 . S
O182 C170 1.241 . S
O182 Mg175 2.042 . S
O183 C170 1.280 . S
O183 Mg173 1.984 . S
O184 C171 1.277 . S
O184 Mg175 2.041 . S
O185 C171 1.245 . S
O185 Mg173 1.988 . S
O186 Mg173 2.061 . S
O186 C180 1.247 . S
O187 Mg176 2.106 . S
O187 Mg179 2.238 . S
O187 C180 1.289 . S
C188 O189 1.245 . S
C188 O190 1.274 . S
O189 Mg176 2.079 . S
O189 C188 1.245 . S
O190 Mg175 2.038 . S
O190 C188 1.274 . S
O191 Mg179 2.042 . S
O191 C194 1.241 . S
O192 Mg178 1.984 . S
O192 C194 1.280 . S
O193 Mg179 2.041 . S
O193 C197 1.277 . S
C194 O191 1.241 . S
C194 O192 1.280 . S
O195 Mg178 1.988 . S
O195 C197 1.245 . S
O196 C172 1.247 . S
O196 Mg178 2.061 . S
C197 O193 1.277 . S
C197 O195 1.245 . S
O198 C172 1.289 . S
O198 Mg175 2.238 . S
O198 Mg176 2.106 . S
O199 Mg176 2.079 . S
O199 C181 1.245 . S
O200 Mg179 2.038 . S
O200 C181 1.274 . S
H201 C209 0.950 . S
H202 C214 0.950 . S
H203 C211 0.950 . S
H204 C213 0.950 . S
H205 C215 0.950 . S
H206 C217 0.950 . S
H207 C219 0.950 . S
H208 C220 0.950 . S
C209 H201 0.950 . S
C209 C210 1.386 . S
C209 C211 1.391 . S
C210 C209 1.386 . S
C210 C214 1.393 . S
C211 H203 0.950 . S
C211 C209 1.391 . S
C211 C212 1.400 . S
C212 C211 1.400 . S
C212 C213 1.398 . S
C212 C218 1.491 . S
C213 H204 0.950 . S
C213 C212 1.398 . S
C213 C214 1.391 . S
C214 H202 0.950 . S
C214 C210 1.393 . S
C214 C213 1.391 . S
C215 H205 0.950 . S
C215 C216 1.386 . S
C215 C217 1.391 . S
C216 C215 1.386 . S
C216 C220 1.393 . S
C217 H206 0.950 . S
C217 C215 1.391 . S
C217 C218 1.400 . S
C218 C212 1.491 . S
C218 C217 1.400 . S
C218 C219 1.398 . S
C219 H207 0.950 . S
C219 C218 1.398 . S
C219 C220 1.391 . S
C220 H208 0.950 . S
C220 C216 1.393 . S
C220 C219 1.391 . S
H221 C229 0.950 . S
H222 C234 0.950 . S
H223 C231 0.950 . S
H224 C233 0.950 . S
H225 C235 0.950 . S
H226 C237 0.950 . S
H227 C239 0.950 . S
H228 C240 0.950 . S
C229 H221 0.950 . S
C229 C230 1.386 . S
C229 C231 1.391 . S
C230 C229 1.386 . S
C230 C234 1.393 . S
C231 H223 0.950 . S
C231 C229 1.391 . S
C231 C232 1.400 . S
C232 C231 1.400 . S
C232 C233 1.398 . S
C232 C238 1.491 . S
C233 H224 0.950 . S
C233 C232 1.398 . S
C233 C234 1.391 . S
C234 H222 0.950 . S
C234 C230 1.393 . S
C234 C233 1.391 . S
C235 H225 0.950 . S
C235 C236 1.386 . S
C235 C237 1.391 . S
C236 C235 1.386 . S
C236 C240 1.393 . S
C237 H226 0.950 . S
C237 C235 1.391 . S
C237 C238 1.400 . S
C238 C232 1.491 . S
C238 C237 1.400 . S
C238 C239 1.398 . S
C239 H227 0.950 . S
C239 C238 1.398 . S
C239 C240 1.391 . S
C240 H228 0.950 . S
C240 C236 1.393 . S
C240 C239 1.391 . S
H241 C249 0.950 . S
H242 C254 0.950 . S
H243 C251 0.950 . S
H244 C253 0.950 . S
H245 C255 0.950 . S
H246 C257 0.950 . S
H247 C259 0.950 . S
H248 C260 0.950 . S
C249 H241 0.950 . S
C249 C250 1.386 . S
C249 C251 1.391 . S
C250 C249 1.386 . S
C250 C254 1.393 . S
C251 H243 0.950 . S
C251 C249 1.391 . S
C251 C252 1.400 . S
C252 C251 1.400 . S
C252 C253 1.398 . S
C252 C258 1.491 . S
C253 H244 0.950 . S
C253 C252 1.398 . S
C253 C254 1.391 . S
C254 H242 0.950 . S
C254 C250 1.393 . S
C254 C253 1.391 . S
C255 H245 0.950 . S
C255 C256 1.386 . S
C255 C257 1.391 . S
C256 C255 1.386 . S
C256 C260 1.393 . S
C257 H246 0.950 . S
C257 C255 1.391 . S
C257 C258 1.400 . S
C258 C252 1.491 . S
C258 C257 1.400 . S
C258 C259 1.398 . S
C259 H247 0.950 . S
C259 C258 1.398 . S
C259 C260 1.391 . S
C260 H248 0.950 . S
C260 C256 1.393 . S
C260 C259 1.391 . S
H261 C269 0.950 . S
H262 C274 0.950 . S
H263 C271 0.950 . S
H264 C273 0.950 . S
H265 C275 0.950 . S
H266 C277 0.950 . S
H267 C279 0.950 . S
H268 C280 0.950 . S
C269 H261 0.950 . S
C269 C270 1.386 . S
C269 C271 1.391 . S
C270 C269 1.386 . S
C270 C274 1.393 . S
C271 H263 0.950 . S
C271 C269 1.391 . S
C271 C272 1.400 . S
C272 C271 1.400 . S
C272 C273 1.398 . S
C272 C278 1.491 . S
C273 H264 0.950 . S
C273 C272 1.398 . S
C273 C274 1.391 . S
C274 H262 0.950 . S
C274 C270 1.393 . S
C274 C273 1.391 . S
C275 H265 0.950 . S
C275 C276 1.386 . S
C275 C277 1.391 . S
C276 C275 1.386 . S
C276 C280 1.393 . S
C277 H266 0.950 . S
C277 C275 1.391 . S
C277 C278 1.400 . S
C278 C272 1.491 . S
C278 C277 1.400 . S
C278 C279 1.398 . S
C279 H267 0.950 . S
C279 C278 1.398 . S
C279 C280 1.391 . S
C280 H268 0.950 . S
C280 C276 1.393 . S
C280 C279 1.391 . S
H281 C289 0.950 . S
H282 C294 0.950 . S
H283 C291 0.950 . S
H284 C293 0.950 . S
H285 C295 0.950 . S
H286 C297 0.950 . S
H287 C299 0.950 . S
H288 C300 0.950 . S
C289 H281 0.950 . S
C289 C290 1.386 . S
C289 C291 1.391 . S
C290 C289 1.386 . S
C290 C294 1.393 . S
C291 H283 0.950 . S
C291 C289 1.391 . S
C291 C292 1.400 . S
C292 C291 1.400 . S
C292 C293 1.398 . S
C292 C298 1.491 . S
C293 H284 0.950 . S
C293 C292 1.398 . S
C293 C294 1.391 . S
C294 H282 0.950 . S
C294 C290 1.393 . S
C294 C293 1.391 . S
C295 H285 0.950 . S
C295 C296 1.386 . S
C295 C297 1.391 . S
C296 C295 1.386 . S
C296 C300 1.393 . S
C297 H286 0.950 . S
C297 C295 1.391 . S
C297 C298 1.400 . S
C298 C292 1.491 . S
C298 C297 1.400 . S
C298 C299 1.398 . S
C299 H287 0.950 . S
C299 C298 1.398 . S
C299 C300 1.391 . S
C300 H288 0.950 . S
C300 C296 1.393 . S
C300 C299 1.391 . S
H301 C309 0.950 . S
H302 C314 0.950 . S
H303 C311 0.950 . S
H304 C313 0.950 . S
H305 C315 0.950 . S
H306 C317 0.950 . S
H307 C319 0.950 . S
H308 C320 0.950 . S
C309 H301 0.950 . S
C309 C310 1.386 . S
C309 C311 1.391 . S
C310 C309 1.386 . S
C310 C314 1.393 . S
C311 H303 0.950 . S
C311 C309 1.391 . S
C311 C312 1.400 . S
C312 C311 1.400 . S
C312 C313 1.398 . S
C312 C318 1.491 . S
C313 H304 0.950 . S
C313 C312 1.398 . S
C313 C314 1.391 . S
C314 H302 0.950 . S
C314 C310 1.393 . S
C314 C313 1.391 . S
C315 H305 0.950 . S
C315 C316 1.386 . S
C315 C317 1.391 . S
C316 C315 1.386 . S
C316 C320 1.393 . S
C317 H306 0.950 . S
C317 C315 1.391 . S
C317 C318 1.400 . S
C318 C312 1.491 . S
C318 C317 1.400 . S
C318 C319 1.398 . S
C319 H307 0.950 . S
C319 C318 1.398 . S
C319 C320 1.391 . S
C320 H308 0.950 . S
C320 C316 1.393 . S
C320 C319 1.391 . S
H321 C329 0.950 . S
H322 C334 0.950 . S
H323 C331 0.950 . S
H324 C333 0.950 . S
H325 C335 0.950 . S
H326 C337 0.950 . S
H327 C339 0.950 . S
H328 C340 0.950 . S
C329 H321 0.950 . S
C329 C330 1.386 . S
C329 C331 1.391 . S
C330 C329 1.386 . S
C330 C334 1.393 . S
C331 H323 0.950 . S
C331 C329 1.391 . S
C331 C332 1.400 . S
C332 C331 1.400 . S
C332 C333 1.398 . S
C332 C338 1.491 . S
C333 H324 0.950 . S
C333 C332 1.398 . S
C333 C334 1.391 . S
C334 H322 0.950 . S
C334 C330 1.393 . S
C334 C333 1.391 . S
C335 H325 0.950 . S
C335 C336 1.386 . S
C335 C337 1.391 . S
C336 C335 1.386 . S
C336 C340 1.393 . S
C337 H326 0.950 . S
C337 C335 1.391 . S
C337 C338 1.400 . S
C338 C332 1.491 . S
C338 C337 1.400 . S
C338 C339 1.398 . S
C339 H327 0.950 . S
C339 C338 1.398 . S
C339 C340 1.391 . S
C340 H328 0.950 . S
C340 C336 1.393 . S
C340 C339 1.391 . S
H341 C349 0.950 . S
H342 C354 0.950 . S
H343 C351 0.950 . S
H344 C353 0.950 . S
H345 C355 0.950 . S
H346 C357 0.950 . S
H347 C359 0.950 . S
H348 C360 0.950 . S
C349 H341 0.950 . S
C349 C350 1.386 . S
C349 C351 1.391 . S
C350 C349 1.386 . S
C350 C354 1.393 . S
C351 H343 0.950 . S
C351 C349 1.391 . S
C351 C352 1.400 . S
C352 C351 1.400 . S
C352 C353 1.398 . S
C352 C358 1.491 . S
C353 H344 0.950 . S
C353 C352 1.398 . S
C353 C354 1.391 . S
C354 H342 0.950 . S
C354 C350 1.393 . S
C354 C353 1.391 . S
C355 H345 0.950 . S
C355 C356 1.386 . S
C355 C357 1.391 . S
C356 C355 1.386 . S
C356 C360 1.393 . S
C357 H346 0.950 . S
C357 C355 1.391 . S
C357 C358 1.400 . S
C358 C352 1.491 . S
C358 C357 1.400 . S
C358 C359 1.398 . S
C359 H347 0.950 . S
C359 C358 1.398 . S
C359 C360 1.391 . S
C360 H348 0.950 . S
C360 C356 1.393 . S
C360 C359 1.391 . S
H361 C369 0.950 . S
H362 C374 0.950 . S
H363 C371 0.950 . S
H364 C373 0.950 . S
H365 C375 0.950 . S
H366 C377 0.950 . S
H367 C379 0.950 . S
H368 C380 0.950 . S
C369 H361 0.950 . S
C369 C370 1.386 . S
C369 C371 1.391 . S
C370 C369 1.386 . S
C370 C374 1.393 . S
C371 H363 0.950 . S
C371 C369 1.391 . S
C371 C372 1.400 . S
C372 C371 1.400 . S
C372 C373 1.398 . S
C372 C378 1.491 . S
C373 H364 0.950 . S
C373 C372 1.398 . S
C373 C374 1.391 . S
C374 H362 0.950 . S
C374 C370 1.393 . S
C374 C373 1.391 . S
C375 H365 0.950 . S
C375 C376 1.386 . S
C375 C377 1.391 . S
C376 C375 1.386 . S
C376 C380 1.393 . S
C377 H366 0.950 . S
C377 C375 1.391 . S
C377 C378 1.400 . S
C378 C372 1.491 . S
C378 C377 1.400 . S
C378 C379 1.398 . S
C379 H367 0.950 . S
C379 C378 1.398 . S
C379 C380 1.391 . S
C380 H368 0.950 . S
C380 C376 1.393 . S
C380 C379 1.391 . S
H381 C389 0.950 . S
H382 C394 0.950 . S
H383 C391 0.950 1_556 S
H384 C393 0.950 . S
H385 C395 0.950 . S
H386 C397 0.950 . S
H387 C399 0.950 . S
H388 C400 0.950 . S
C389 H381 0.950 . S
C389 C390 1.386 . S
C389 C391 1.391 . S
C390 C389 1.386 . S
C390 C394 1.393 . S
C391 H383 0.950 1_554 S
C391 C389 1.391 . S
C391 C392 1.400 . S
C392 C391 1.400 . S
C392 C393 1.398 . S
C392 C398 1.491 1_554 S
C393 H384 0.950 . S
C393 C392 1.398 . S
C393 C394 1.391 . S
C394 H382 0.950 . S
C394 C390 1.393 . S
C394 C393 1.391 . S
C395 H385 0.950 . S
C395 C396 1.386 . S
C395 C397 1.391 . S
C396 C395 1.386 . S
C396 C400 1.393 . S
C397 H386 0.950 . S
C397 C395 1.391 . S
C397 C398 1.400 . S
C398 C392 1.491 1_556 S
C398 C397 1.400 . S
C398 C399 1.398 . S
C399 H387 0.950 . S
C399 C398 1.398 . S
C399 C400 1.391 . S
C400 H388 0.950 . S
C400 C396 1.393 . S
C400 C399 1.391 . S
H401 C409 0.950 . S
H402 C414 0.950 . S
H403 C411 0.950 . S
H404 C413 0.950 . S
H405 C415 0.950 . S
H406 C417 0.950 . S
H407 C419 0.950 . S
H408 C420 0.950 . S
C409 H401 0.950 . S
C409 C410 1.386 . S
C409 C411 1.391 1_554 S
C410 C409 1.386 . S
C410 C414 1.393 1_554 S
C411 H403 0.950 . S
C411 C409 1.391 1_556 S
C411 C412 1.400 . S
C412 C411 1.400 . S
C412 C413 1.398 . S
C412 C418 1.491 . S
C413 H404 0.950 . S
C413 C412 1.398 . S
C413 C414 1.391 . S
C414 H402 0.950 . S
C414 C410 1.393 1_556 S
C414 C413 1.391 . S
C415 H405 0.950 . S
C415 C416 1.386 . S
C415 C417 1.391 . S
C416 C415 1.386 . S
C416 C420 1.393 . S
C417 H406 0.950 . S
C417 C415 1.391 . S
C417 C418 1.400 . S
C418 C412 1.491 . S
C418 C417 1.400 . S
C418 C419 1.398 . S
C419 H407 0.950 . S
C419 C418 1.398 . S
C419 C420 1.391 . S
C420 H408 0.950 . S
C420 C416 1.393 . S
C420 C419 1.391 . S
H421 C429 0.950 . S
H422 C434 0.950 . S
H423 C431 0.950 . S
H424 C433 0.950 . S
H425 C435 0.950 . S
H426 C437 0.950 . S
H427 C439 0.950 . S
H428 C440 0.950 . S
C429 H421 0.950 . S
C429 C430 1.386 . S
C429 C431 1.391 1_554 S
C430 C429 1.386 . S
C430 C434 1.393 . S
C431 H423 0.950 . S
C431 C429 1.391 1_556 S
C431 C432 1.400 . S
C432 C431 1.400 . S
C432 C433 1.398 . S
C432 C438 1.491 . S
C433 H424 0.950 . S
C433 C432 1.398 . S
C433 C434 1.391 1_556 S
C434 H422 0.950 . S
C434 C430 1.393 . S
C434 C433 1.391 1_554 S
C435 H425 0.950 . S
C435 C436 1.386 . S
C435 C437 1.391 . S
C436 C435 1.386 . S
C436 C440 1.393 . S
C437 H426 0.950 . S
C437 C435 1.391 . S
C437 C438 1.400 . S
C438 C432 1.491 . S
C438 C437 1.400 . S
C438 C439 1.398 . S
C439 H427 0.950 . S
C439 C438 1.398 . S
C439 C440 1.391 . S
C440 H428 0.950 . S
C440 C436 1.393 . S
C440 C439 1.391 . S
H441 C449 0.950 1_554 S
H442 C454 0.950 . S
H443 C451 0.950 . S
H444 C453 0.950 . S
H445 C455 0.950 . S
H446 C457 0.950 . S
H447 C459 0.950 . S
H448 C460 0.950 . S
C449 H441 0.950 1_556 S
C449 C450 1.386 . S
C449 C451 1.391 . S
C450 C449 1.386 . S
C450 C454 1.393 . S
C451 H443 0.950 . S
C451 C449 1.391 . S
C451 C452 1.400 . S
C452 C451 1.400 . S
C452 C453 1.398 . S
C452 C458 1.491 . S
C453 H444 0.950 . S
C453 C452 1.398 . S
C453 C454 1.391 . S
C454 H442 0.950 . S
C454 C450 1.393 . S
C454 C453 1.391 . S
C455 H445 0.950 . S
C455 C456 1.386 . S
C455 C457 1.391 . S
C456 C455 1.386 . S
C456 C460 1.393 . S
C457 H446 0.950 . S
C457 C455 1.391 . S
C457 C458 1.400 . S
C458 C452 1.491 . S
C458 C457 1.400 . S
C458 C459 1.398 . S
C459 H447 0.950 . S
C459 C458 1.398 . S
C459 C460 1.391 . S
C460 H448 0.950 . S
C460 C456 1.393 . S
C460 C459 1.391 . S
H461 C469 0.950 . S
H462 C474 0.963 . S
H463 C471 0.950 . S
H464 C473 0.950 . S
H465 C475 0.950 . S
H466 C477 0.950 . S
H467 C479 0.950 . S
H468 C480 0.950 . S
C469 H461 0.950 . S
C469 C470 1.386 . S
C469 C471 1.391 . S
C470 C469 1.386 . S
C470 C474 1.389 1_556 S
C471 H463 0.950 . S
C471 C469 1.391 . S
C471 C472 1.400 . S
C472 C471 1.400 . S
C472 C473 1.398 . S
C472 C478 1.491 . S
C473 H464 0.950 . S
C473 C472 1.398 . S
C473 C474 1.381 1_556 S
C474 H462 0.963 . S
C474 C470 1.389 1_554 S
C474 C473 1.381 1_554 S
C475 H465 0.950 . S
C475 C476 1.386 . S
C475 C477 1.391 . S
C476 C475 1.386 . S
C476 C480 1.393 . S
C477 H466 0.950 . S
C477 C475 1.391 . S
C477 C478 1.400 . S
C478 C472 1.491 . S
C478 C477 1.400 . S
C478 C479 1.398 . S
C479 H467 0.950 . S
C479 C478 1.398 . S
C479 C480 1.391 . S
C480 H468 0.950 . S
C480 C476 1.393 . S
C480 C479 1.391 . S
H481 C489 0.950 . S
H482 C494 0.950 . S
H483 C491 0.950 . S
H484 C493 0.950 . S
H485 C495 0.950 . S
H486 C497 0.950 . S
H487 C499 0.950 1_554 S
H488 C500 0.950 . S
C489 H481 0.950 . S
C489 C490 1.386 . S
C489 C491 1.391 . S
C490 C489 1.386 . S
C490 C494 1.393 . S
C491 H483 0.950 . S
C491 C489 1.391 . S
C491 C492 1.400 . S
C492 C491 1.400 . S
C492 C493 1.398 1_554 S
C492 C498 1.491 1_554 S
C493 H484 0.950 . S
C493 C492 1.398 1_556 S
C493 C494 1.391 1_556 S
C494 H482 0.950 . S
C494 C490 1.393 . S
C494 C493 1.391 1_554 S
C495 H485 0.950 . S
C495 C496 1.386 . S
C495 C497 1.391 . S
C496 C495 1.386 . S
C496 C500 1.393 . S
C497 H486 0.950 . S
C497 C495 1.391 . S
C497 C498 1.400 . S
C498 C492 1.491 1_556 S
C498 C497 1.400 . S
C498 C499 1.398 . S
C499 H487 0.950 1_556 S
C499 C498 1.398 . S
C499 C500 1.391 . S
C500 H488 0.950 . S
C500 C496 1.393 . S
C500 C499 1.391 . S
H501 C509 0.950 . S
H502 C514 0.950 . S
H503 C511 0.950 . S
H504 C513 0.950 . S
H505 C515 0.950 . S
H506 C517 0.950 . S
H507 C519 0.950 . S
H508 C520 0.950 . S
C509 H501 0.950 . S
C509 C510 1.386 1_556 S
C509 C511 1.391 . S
C510 C509 1.386 1_554 S
C510 C514 1.393 . S
C511 H503 0.950 . S
C511 C509 1.391 . S
C511 C512 1.400 . S
C512 C511 1.400 . S
C512 C513 1.398 1_556 S
C512 C518 1.491 . S
C513 H504 0.950 . S
C513 C512 1.398 1_554 S
C513 C514 1.391 . S
C514 H502 0.950 . S
C514 C510 1.393 . S
C514 C513 1.391 . S
C515 H505 0.950 . S
C515 C516 1.386 . S
C515 C517 1.391 . S
C516 C515 1.386 . S
C516 C520 1.393 . S
C517 H506 0.950 . S
C517 C515 1.391 . S
C517 C518 1.400 . S
C518 C512 1.491 . S
C518 C517 1.400 . S
C518 C519 1.398 . S
C519 H507 0.950 . S
C519 C518 1.398 . S
C519 C520 1.391 . S
C520 H508 0.950 . S
C520 C516 1.393 . S
C520 C519 1.391 . S
H521 C529 0.950 . S
H522 C534 0.950 . S
H523 C531 0.950 . S
H524 C533 0.950 . S
H525 C535 0.950 . S
H526 C537 0.950 . S
H527 C539 0.950 . S
H528 C540 0.950 . S
C529 H521 0.950 . S
C529 C530 1.386 . S
C529 C531 1.391 1_554 S
C530 C529 1.386 . S
C530 C534 1.393 1_554 S
C531 H523 0.950 . S
C531 C529 1.391 1_556 S
C531 C532 1.400 . S
C532 C531 1.400 . S
C532 C533 1.398 . S
C532 C538 1.491 . S
C533 H524 0.950 . S
C533 C532 1.398 . S
C533 C534 1.391 . S
C534 H522 0.950 . S
C534 C530 1.393 1_556 S
C534 C533 1.391 . S
C535 H525 0.950 . S
C535 C536 1.386 . S
C535 C537 1.391 . S
C536 C535 1.386 . S
C536 C540 1.393 . S
C537 H526 0.950 . S
C537 C535 1.391 . S
C537 C538 1.400 . S
C538 C532 1.491 . S
C538 C537 1.400 . S
C538 C539 1.398 . S
C539 H527 0.950 . S
C539 C538 1.398 . S
C539 C540 1.391 . S
C540 H528 0.950 . S
C540 C536 1.393 . S
C540 C539 1.391 . S
H541 C549 0.950 . S
H542 C554 0.950 . S
H543 C551 0.950 . S
H544 C553 0.950 . S
H545 C555 0.950 . S
H546 C557 0.950 . S
H547 C559 0.950 . S
H548 C560 0.950 . S
C549 H541 0.950 . S
C549 C550 1.386 . S
C549 C551 1.391 . S
C550 C549 1.386 . S
C550 C554 1.393 . S
C551 H543 0.950 . S
C551 C549 1.391 . S
C551 C552 1.400 . S
C552 C551 1.400 . S
C552 C553 1.398 . S
C552 C558 1.491 . S
C553 H544 0.950 . S
C553 C552 1.398 . S
C553 C554 1.391 . S
C554 H542 0.950 . S
C554 C550 1.393 . S
C554 C553 1.391 . S
C555 H545 0.950 . S
C555 C556 1.386 . S
C555 C557 1.391 . S
C556 C555 1.386 . S
C556 C560 1.393 . S
C557 H546 0.950 . S
C557 C555 1.391 . S
C557 C558 1.400 . S
C558 C552 1.491 . S
C558 C557 1.400 . S
C558 C559 1.398 . S
C559 H547 0.950 . S
C559 C558 1.398 . S
C559 C560 1.391 . S
C560 H548 0.950 . S
C560 C556 1.393 . S
C560 C559 1.391 . S
H561 C569 0.950 . S
H562 C574 0.950 . S
H563 C571 0.950 . S
H564 C573 0.950 . S
H565 C575 0.950 . S
H566 C577 0.950 . S
H567 C579 0.950 . S
H568 C580 0.950 . S
C569 H561 0.950 . S
C569 C570 1.386 . S
C569 C571 1.391 . S
C570 C569 1.386 . S
C570 C574 1.393 . S
C571 H563 0.950 . S
C571 C569 1.391 . S
C571 C572 1.400 . S
C572 C571 1.400 . S
C572 C573 1.398 . S
C572 C578 1.491 . S
C573 H564 0.950 . S
C573 C572 1.398 . S
C573 C574 1.391 . S
C574 H562 0.950 . S
C574 C570 1.393 . S
C574 C573 1.391 . S
C575 H565 0.950 . S
C575 C576 1.386 . S
C575 C577 1.391 . S
C576 C575 1.386 . S
C576 C580 1.393 . S
C577 H566 0.950 . S
C577 C575 1.391 . S
C577 C578 1.400 . S
C578 C572 1.491 . S
C578 C577 1.400 . S
C578 C579 1.398 . S
C579 H567 0.950 . S
C579 C578 1.398 . S
C579 C580 1.391 . S
C580 H568 0.950 . S
C580 C576 1.393 . S
C580 C579 1.391 . S
H581 C589 0.950 . S
H582 C594 0.950 . S
H583 C591 0.950 . S
H584 C593 0.950 . S
H585 C595 0.950 . S
H586 C597 0.950 . S
H587 C599 0.950 . S
H588 C600 0.950 . S
C589 H581 0.950 . S
C589 C590 1.386 . S
C589 C591 1.391 . S
C590 C589 1.386 . S
C590 C594 1.393 . S
C591 H583 0.950 . S
C591 C589 1.391 . S
C591 C592 1.400 . S
C592 C591 1.400 . S
C592 C593 1.398 . S
C592 C598 1.491 . S
C593 H584 0.950 . S
C593 C592 1.398 . S
C593 C594 1.391 . S
C594 H582 0.950 . S
C594 C590 1.393 . S
C594 C593 1.391 . S
C595 H585 0.950 . S
C595 C596 1.386 . S
C595 C597 1.391 . S
C596 C595 1.386 . S
C596 C600 1.393 . S
C597 H586 0.950 . S
C597 C595 1.391 . S
C597 C598 1.400 . S
C598 C592 1.491 . S
C598 C597 1.400 . S
C598 C599 1.398 . S
C599 H587 0.950 . S
C599 C598 1.398 . S
C599 C600 1.391 . S
C600 H588 0.950 . S
C600 C596 1.393 . S
C600 C599 1.391 . S
H601 C609 0.950 . S
H602 C614 0.950 . S
H603 C611 0.950 . S
H604 C613 0.950 . S
H605 C615 0.950 . S
H606 C617 0.950 . S
H607 C619 0.950 . S
H608 C620 0.950 . S
C609 H601 0.950 . S
C609 C610 1.386 . S
C609 C611 1.391 . S
C610 C609 1.386 . S
C610 C614 1.393 . S
C611 H603 0.950 . S
C611 C609 1.391 . S
C611 C612 1.400 . S
C612 C611 1.400 . S
C612 C613 1.398 . S
C612 C618 1.491 . S
C613 H604 0.950 . S
C613 C612 1.398 . S
C613 C614 1.391 . S
C614 H602 0.950 . S
C614 C610 1.393 . S
C614 C613 1.391 . S
C615 H605 0.950 . S
C615 C616 1.386 . S
C615 C617 1.391 . S
C616 C615 1.386 . S
C616 C620 1.393 . S
C617 H606 0.950 . S
C617 C615 1.391 . S
C617 C618 1.400 . S
C618 C612 1.491 . S
C618 C617 1.400 . S
C618 C619 1.398 . S
C619 H607 0.950 . S
C619 C618 1.398 . S
C619 C620 1.391 . S
C620 H608 0.950 . S
C620 C616 1.393 . S
C620 C619 1.391 . S
H621 C629 0.950 . S
H622 C634 0.950 . S
H623 C631 0.950 . S
H624 C633 0.950 . S
H625 C635 0.950 . S
H626 C637 0.950 . S
H627 C639 0.950 . S
H628 C640 0.950 . S
C629 H621 0.950 . S
C629 C630 1.386 . S
C629 C631 1.391 . S
C630 C629 1.386 . S
C630 C634 1.393 . S
C631 H623 0.950 . S
C631 C629 1.391 . S
C631 C632 1.400 . S
C632 C631 1.400 . S
C632 C633 1.398 . S
C632 C638 1.491 . S
C633 H624 0.950 . S
C633 C632 1.398 . S
C633 C634 1.391 . S
C634 H622 0.950 . S
C634 C630 1.393 . S
C634 C633 1.391 . S
C635 H625 0.950 . S
C635 C636 1.386 . S
C635 C637 1.391 . S
C636 C635 1.386 . S
C636 C640 1.393 . S
C637 H626 0.950 . S
C637 C635 1.391 . S
C637 C638 1.400 . S
C638 C632 1.491 . S
C638 C637 1.400 . S
C638 C639 1.398 . S
C639 H627 0.950 . S
C639 C638 1.398 . S
C639 C640 1.391 . S
C640 H628 0.950 . S
C640 C636 1.393 . S
C640 C639 1.391 . S
H641 C649 0.950 . S
H642 C654 0.950 . S
H643 C651 0.950 . S
H644 C653 0.950 . S
H645 C655 0.950 . S
H646 C657 0.950 . S
H647 C659 0.950 . S
H648 C660 0.950 . S
C649 H641 0.950 . S
C649 C650 1.386 . S
C649 C651 1.391 . S
C650 C649 1.386 . S
C650 C654 1.393 . S
C651 H643 0.950 . S
C651 C649 1.391 . S
C651 C652 1.400 . S
C652 C651 1.400 . S
C652 C653 1.398 . S
C652 C658 1.491 . S
C653 H644 0.950 . S
C653 C652 1.398 . S
C653 C654 1.391 . S
C654 H642 0.950 . S
C654 C650 1.393 . S
C654 C653 1.391 . S
C655 H645 0.950 . S
C655 C656 1.386 . S
C655 C657 1.391 . S
C656 C655 1.386 . S
C656 C660 1.393 . S
C657 H646 0.950 . S
C657 C655 1.391 . S
C657 C658 1.400 . S
C658 C652 1.491 . S
C658 C657 1.400 . S
C658 C659 1.398 . S
C659 H647 0.950 . S
C659 C658 1.398 . S
C659 C660 1.391 . S
C660 H648 0.950 . S
C660 C656 1.393 . S
C660 C659 1.391 . S
H661 C669 0.950 . S
H662 C674 0.950 . S
H663 C671 0.950 . S
H664 C673 0.950 . S
H665 C675 0.950 . S
H666 C677 0.950 . S
H667 C679 0.950 . S
H668 C680 0.950 . S
C669 H661 0.950 . S
C669 C670 1.386 . S
C669 C671 1.391 . S
C670 C669 1.386 . S
C670 C674 1.393 . S
C671 H663 0.950 . S
C671 C669 1.391 . S
C671 C672 1.400 . S
C672 C671 1.400 . S
C672 C673 1.398 . S
C672 C678 1.491 . S
C673 H664 0.950 . S
C673 C672 1.398 . S
C673 C674 1.391 . S
C674 H662 0.950 . S
C674 C670 1.393 . S
C674 C673 1.391 . S
C675 H665 0.950 . S
C675 C676 1.386 . S
C675 C677 1.391 . S
C676 C675 1.386 . S
C676 C680 1.393 . S
C677 H666 0.950 . S
C677 C675 1.391 . S
C677 C678 1.400 . S
C678 C672 1.491 . S
C678 C677 1.400 . S
C678 C679 1.398 . S
C679 H667 0.950 . S
C679 C678 1.398 . S
C679 C680 1.391 . S
C680 H668 0.950 . S
C680 C676 1.393 . S
C680 C679 1.391 . S
C210 C16 1.822 . S
C216 C119 1.842 . S
C230 C26 1.604 . S
C236 C166 1.638 . S
C256 C170 1.811 . S
C250 C52 1.811 . S
C276 C135 1.526 . S
C270 C62 1.529 . S
C290 C80 1.789 . S
C296 C150 1.738 . S
C316 C172 1.128 . S
C310 C98 1.107 . S
C336 C141 1.548 . S
C330 C43 1.523 . S
C350 C68 1.435 . S
C356 C181 1.465 . S
C376 C110 1.409 . S
C370 C86 1.421 1_556 S
C390 C104 1.485 . S
C396 C139 1.456 . S
C410 C7 1.910 . S
C416 C197 1.893 . S
C436 C108 1.555 . S
C430 C32 1.536 . S
C456 C126 1.803 . S
C450 C61 1.825 1_556 S
C476 C140 1.625 . S
C470 C79 1.587 1_556 S
C496 C194 1.780 . S
C490 C97 1.809 . S
C516 C109 1.525 . S
C510 C14 1.520 . S
C536 C157 1.699 . S
C530 C25 1.758 . S
C550 C50 1.117 . S
C556 C180 1.132 . S
C576 C149 1.512 . S
C570 C106 1.513 . S
C596 C188 1.411 . S
C590 C8 1.389 . S
C616 C118 1.384 . S
C610 C34 1.402 . S
C636 C163 1.424 . S
C630 C44 1.437 . S
C650 C70 1.884 . S
C656 C171 1.879 . S
C670 C88 1.513 . S
C676 C132 1.511 . S
