# Generated by pormake.
# Topology ctn, (3,4)-cn, num edge types: 1
# Building blocks:
#     Node 0, Type 0, BuildingBlock: ESEHIV_clean_linker_0, # of connection points: 3
#     Node 1, Type 0, BuildingBlock: ESEHIV_clean_linker_0, # of connection points: 3
#     Node 2, Type 0, BuildingBlock: ESEHIV_clean_linker_0, # of connection points: 3
#     Node 3, Type 0, BuildingBlock: ESEHIV_clean_linker_0, # of connection points: 3
#     Node 4, Type 0, BuildingBlock: ESEHIV_clean_linker_0, # of connection points: 3
#     Node 5, Type 0, BuildingBlock: ESEHIV_clean_linker_0, # of connection points: 3
#     Node 6, Type 0, BuildingBlock: ESEHIV_clean_linker_0, # of connection points: 3
#     Node 7, Type 0, BuildingBlock: ESEHIV_clean_linker_0, # of connection points: 3
#     Node 8, Type 0, BuildingBlock: ESEHIV_clean_linker_0, # of connection points: 3
#     Node 9, Type 0, BuildingBlock: ESEHIV_clean_linker_0, # of connection points: 3
#     Node 10, Type 0, BuildingBlock: ESEHIV_clean_linker_0, # of connection points: 3
#     Node 11, Type 0, BuildingBlock: ESEHIV_clean_linker_0, # of connection points: 3
#     Node 12, Type 0, BuildingBlock: ESEHIV_clean_linker_0, # of connection points: 3
#     Node 13, Type 0, BuildingBlock: ESEHIV_clean_linker_0, # of connection points: 3
#     Node 14, Type 0, BuildingBlock: ESEHIV_clean_linker_0, # of connection points: 3
#     Node 15, Type 0, BuildingBlock: ESEHIV_clean_linker_0, # of connection points: 3
#     Node 16, Type 1, BuildingBlock: QUQFOY_clean_sbu_1, # of connection points: 4
#     Node 17, Type 1, BuildingBlock: QUQFOY_clean_sbu_1, # of connection points: 4
#     Node 18, Type 1, BuildingBlock: QUQFOY_clean_sbu_1, # of connection points: 4
#     Node 19, Type 1, BuildingBlock: QUQFOY_clean_sbu_1, # of connection points: 4
#     Node 20, Type 1, BuildingBlock: QUQFOY_clean_sbu_1, # of connection points: 4
#     Node 21, Type 1, BuildingBlock: QUQFOY_clean_sbu_1, # of connection points: 4
#     Node 22, Type 1, BuildingBlock: QUQFOY_clean_sbu_1, # of connection points: 4
#     Node 23, Type 1, BuildingBlock: QUQFOY_clean_sbu_1, # of connection points: 4
#     Node 24, Type 1, BuildingBlock: QUQFOY_clean_sbu_1, # of connection points: 4
#     Node 25, Type 1, BuildingBlock: QUQFOY_clean_sbu_1, # of connection points: 4
#     Node 26, Type 1, BuildingBlock: QUQFOY_clean_sbu_1, # of connection points: 4
#     Node 27, Type 1, BuildingBlock: QUQFOY_clean_sbu_1, # of connection points: 4
#     Edge 28, Type (0, 1), BuildingBlock: XUDNAN_clean_linker_2, # of connection points: 2
#     Edge 29, Type (0, 1), BuildingBlock: XUDNAN_clean_linker_2, # of connection points: 2
#     Edge 30, Type (0, 1), BuildingBlock: XUDNAN_clean_linker_2, # of connection points: 2
#     Edge 31, Type (0, 1), BuildingBlock: XUDNAN_clean_linker_2, # of connection points: 2
#     Edge 32, Type (0, 1), BuildingBlock: XUDNAN_clean_linker_2, # of connection points: 2
#     Edge 33, Type (0, 1), BuildingBlock: XUDNAN_clean_linker_2, # of connection points: 2
#     Edge 34, Type (0, 1), BuildingBlock: XUDNAN_clean_linker_2, # of connection points: 2
#     Edge 35, Type (0, 1), BuildingBlock: XUDNAN_clean_linker_2, # of connection points: 2
#     Edge 36, Type (0, 1), BuildingBlock: XUDNAN_clean_linker_2, # of connection points: 2
#     Edge 37, Type (0, 1), BuildingBlock: XUDNAN_clean_linker_2, # of connection points: 2
#     Edge 38, Type (0, 1), BuildingBlock: XUDNAN_clean_linker_2, # of connection points: 2
#     Edge 39, Type (0, 1), BuildingBlock: XUDNAN_clean_linker_2, # of connection points: 2
#     Edge 40, Type (0, 1), BuildingBlock: XUDNAN_clean_linker_2, # of connection points: 2
#     Edge 41, Type (0, 1), BuildingBlock: XUDNAN_clean_linker_2, # of connection points: 2
#     Edge 42, Type (0, 1), BuildingBlock: XUDNAN_clean_linker_2, # of connection points: 2
#     Edge 43, Type (0, 1), BuildingBlock: XUDNAN_clean_linker_2, # of connection points: 2
#     Edge 44, Type (0, 1), BuildingBlock: XUDNAN_clean_linker_2, # of connection points: 2
#     Edge 45, Type (0, 1), BuildingBlock: XUDNAN_clean_linker_2, # of connection points: 2
#     Edge 46, Type (0, 1), BuildingBlock: XUDNAN_clean_linker_2, # of connection points: 2
#     Edge 47, Type (0, 1), BuildingBlock: XUDNAN_clean_linker_2, # of connection points: 2
#     Edge 48, Type (0, 1), BuildingBlock: XUDNAN_clean_linker_2, # of connection points: 2
#     Edge 49, Type (0, 1), BuildingBlock: XUDNAN_clean_linker_2, # of connection points: 2
#     Edge 50, Type (0, 1), BuildingBlock: XUDNAN_clean_linker_2, # of connection points: 2
#     Edge 51, Type (0, 1), BuildingBlock: XUDNAN_clean_linker_2, # of connection points: 2
#     Edge 52, Type (0, 1), BuildingBlock: XUDNAN_clean_linker_2, # of connection points: 2
#     Edge 53, Type (0, 1), BuildingBlock: XUDNAN_clean_linker_2, # of connection points: 2
#     Edge 54, Type (0, 1), BuildingBlock: XUDNAN_clean_linker_2, # of connection points: 2
#     Edge 55, Type (0, 1), BuildingBlock: XUDNAN_clean_linker_2, # of connection points: 2
#     Edge 56, Type (0, 1), BuildingBlock: XUDNAN_clean_linker_2, # of connection points: 2
#     Edge 57, Type (0, 1), BuildingBlock: XUDNAN_clean_linker_2, # of connection points: 2
#     Edge 58, Type (0, 1), BuildingBlock: XUDNAN_clean_linker_2, # of connection points: 2
#     Edge 59, Type (0, 1), BuildingBlock: XUDNAN_clean_linker_2, # of connection points: 2
#     Edge 60, Type (0, 1), BuildingBlock: XUDNAN_clean_linker_2, # of connection points: 2
#     Edge 61, Type (0, 1), BuildingBlock: XUDNAN_clean_linker_2, # of connection points: 2
#     Edge 62, Type (0, 1), BuildingBlock: XUDNAN_clean_linker_2, # of connection points: 2
#     Edge 63, Type (0, 1), BuildingBlock: XUDNAN_clean_linker_2, # of connection points: 2
#     Edge 64, Type (0, 1), BuildingBlock: XUDNAN_clean_linker_2, # of connection points: 2
#     Edge 65, Type (0, 1), BuildingBlock: XUDNAN_clean_linker_2, # of connection points: 2
#     Edge 66, Type (0, 1), BuildingBlock: XUDNAN_clean_linker_2, # of connection points: 2
#     Edge 67, Type (0, 1), BuildingBlock: XUDNAN_clean_linker_2, # of connection points: 2
#     Edge 68, Type (0, 1), BuildingBlock: XUDNAN_clean_linker_2, # of connection points: 2
#     Edge 69, Type (0, 1), BuildingBlock: XUDNAN_clean_linker_2, # of connection points: 2
#     Edge 70, Type (0, 1), BuildingBlock: XUDNAN_clean_linker_2, # of connection points: 2
#     Edge 71, Type (0, 1), BuildingBlock: XUDNAN_clean_linker_2, # of connection points: 2
#     Edge 72, Type (0, 1), BuildingBlock: XUDNAN_clean_linker_2, # of connection points: 2
#     Edge 73, Type (0, 1), BuildingBlock: XUDNAN_clean_linker_2, # of connection points: 2
#     Edge 74, Type (0, 1), BuildingBlock: XUDNAN_clean_linker_2, # of connection points: 2
#     Edge 75, Type (0, 1), BuildingBlock: XUDNAN_clean_linker_2, # of connection points: 2
# Relax obj value: 0.037
# Max RMSD: 0.144
# Mean RMSD: 0.066
data_MOF--net-ctn--node1-QUQFOY_clean_sbu_1--node2-ESEHIV_clean_linker_0--edge1-XUDNAN_clean_linker_2
_symmetry_space_group_name_H-M    P1
_symmetry_Int_Tables_number       1
_symmetry_cell_setting            triclinic
loop_
_symmetry_equiv_pos_as_xyz
'x, y, z'
_cell_length_a     51.982956
_cell_length_b     51.870053
_cell_length_c     51.946512
_cell_angle_alpha  93.010694
_cell_angle_beta   90.134941
_cell_angle_gamma 94.866962
loop_
_atom_site_label
_atom_site_type_symbol
_atom_site_fract_x
_atom_site_fract_y
_atom_site_fract_z
_atom_type_partial_charge
H0 H 0.00431 0.10427 0.07431 0.0
H1 H 0.0528 0.05383 0.11087 0.0
H2 H 0.06987 0.07787 0.03402 0.0
C3 C 0.02121 0.09337 0.07405 0.0
C4 C 0.03641 0.09259 0.0518 0.0
C5 C 0.02716 0.07978 0.09561 0.0
C6 C 0.04856 0.06491 0.09452 0.0
C7 C 0.06417 0.06385 0.07239 0.0
C8 C 0.05813 0.07825 0.05122 0.0
H9 H 0.28334 0.72336 0.29086 0.0
H10 H 0.30216 0.79349 0.25197 0.0
H11 H 0.23153 0.74639 0.23347 0.0
C12 C 0.27826 0.73712 0.2771 0.0
C13 C 0.25524 0.73234 0.26292 0.0
C14 C 0.29505 0.75925 0.27369 0.0
C15 C 0.2893 0.7763 0.25475 0.0
C16 C 0.26629 0.77177 0.24022 0.0
C17 C 0.24933 0.74982 0.2445 0.0
H18 H 0.9501 0.50973 0.06746 0.0
H19 H 0.98696 0.44462 0.03538 0.0
H20 H 0.91089 0.4585 0.00932 0.0
C21 C 0.94923 0.49237 0.05481 0.0
C22 C 0.92741 0.48563 0.03912 0.0
C23 C 0.97052 0.4775 0.05372 0.0
C24 C 0.97006 0.4555 0.03687 0.0
C25 C 0.94879 0.44888 0.02039 0.0
C26 C 0.9274 0.46381 0.02185 0.0
H27 H 0.72515 0.76052 0.22609 0.0
H28 H 0.79224 0.81541 0.23285 0.0
H29 H 0.7249 0.82684 0.27857 0.0
C30 C 0.73546 0.77768 0.2351 0.0
C31 C 0.72302 0.79202 0.2542 0.0
C32 C 0.76021 0.78644 0.22653 0.0
C33 C 0.77273 0.80916 0.23839 0.0
C34 C 0.76014 0.82419 0.25695 0.0
C35 C 0.7352 0.81537 0.26465 0.0
H36 H 0.99153 0.9684 0.48974 0.0
H37 H 0.0534 0.01986 0.46295 0.0
H38 H 0.06816 0.96772 0.52185 0.0
C39 C 0.01169 0.97567 0.49078 0.0
C40 C 0.02867 0.96532 0.50791 0.0
C41 C 0.02055 0.99524 0.47459 0.0
C42 C 0.0466 0.00447 0.47525 0.0
C43 C 0.0638 0.9945 0.4922 0.0
C44 C 0.05488 0.97479 0.5083 0.0
H45 H 0.16792 0.75082 0.83361 0.0
H46 H 0.24279 0.72406 0.8471 0.0
H47 H 0.20061 0.69886 0.77786 0.0
C48 C 0.18396 0.74013 0.82714 0.0
C49 C 0.18199 0.72535 0.80366 0.0
C50 C 0.20573 0.73947 0.84316 0.0
C51 C 0.22585 0.72457 0.83498 0.0
C52 C 0.2243 0.71019 0.81133 0.0
C53 C 0.20234 0.7107 0.79573 0.0
H54 H 0.94309 0.55784 0.50552 0.0
H55 H 0.98905 0.58969 0.44424 0.0
H56 H 0.93872 0.52007 0.42968 0.0
C57 C 0.94909 0.55695 0.48553 0.0
C58 C 0.93842 0.53698 0.46853 0.0
C59 C 0.96707 0.57612 0.47676 0.0
C60 C 0.97471 0.57516 0.4509 0.0
C61 C 0.96479 0.55471 0.43397 0.0
C62 C 0.94646 0.53582 0.44277 0.0
H63 H 0.768 0.82736 0.84157 0.0
H64 H 0.79009 0.8322 0.76208 0.0
H65 H 0.80958 0.76769 0.80525 0.0
C66 C 0.77714 0.81923 0.82462 0.0
C67 C 0.78829 0.79568 0.8259 0.0
C68 C 0.77778 0.83258 0.80177 0.0
C69 C 0.78929 0.82181 0.77967 0.0
C70 C 0.80057 0.79809 0.78064 0.0
C71 C 0.79986 0.78525 0.80386 0.0
H72 H 0.24719 0.33094 0.33638 0.0
H73 H 0.27891 0.3375 0.26055 0.0
H74 H 0.29831 0.27566 0.30741 0.0
C75 C 0.25938 0.32371 0.32121 0.0
C76 C 0.27209 0.30136 0.32459 0.0
C77 C 0.26226 0.33716 0.29851 0.0
C78 C 0.27695 0.32726 0.27818 0.0
C79 C 0.28963 0.30457 0.281 0.0
C80 C 0.28737 0.29213 0.30446 0.0
H81 H 0.48247 0.05563 0.54789 0.0
H82 H 0.533 0.9952 0.53136 0.0
H83 H 0.47681 0.01166 0.47533 0.0
C84 C 0.48904 0.04052 0.53498 0.0
C85 C 0.47743 0.03577 0.51056 0.0
C86 C 0.50916 0.02605 0.54279 0.0
C87 C 0.51728 0.0063 0.52591 0.0
C88 C 0.50583 0.00136 0.50151 0.0
C89 C 0.48601 0.01609 0.49397 0.0
H90 H 0.21691 0.26954 0.73088 0.0
H91 H 0.29092 0.30487 0.70924 0.0
H92 H 0.24602 0.34245 0.76726 0.0
C93 C 0.2322 0.28504 0.73345 0.0
C94 C 0.22872 0.30638 0.75047 0.0
C95 C 0.25497 0.28415 0.71899 0.0
C96 C 0.27415 0.30493 0.72156 0.0
C97 C 0.27107 0.32636 0.73865 0.0
C98 C 0.24851 0.32648 0.75346 0.0
H99 H 0.80544 0.19637 0.75856 0.0
H100 H 0.83873 0.2435 0.69967 0.0
H101 H 0.75622 0.22639 0.7028 0.0
C102 C 0.80311 0.20779 0.74195 0.0
C103 C 0.77826 0.21015 0.73229 0.0
C104 C 0.82503 0.21957 0.73029 0.0
C105 C 0.82187 0.23429 0.70878 0.0
C106 C 0.7971 0.23693 0.69877 0.0
C107 C 0.77533 0.2248 0.71064 0.0
H108 H 0.53444 0.64512 0.57859 0.0
H109 H 0.56034 0.57446 0.60482 0.0
H110 H 0.59363 0.60735 0.5373 0.0
C111 C 0.54656 0.62921 0.57622 0.0
C112 C 0.56344 0.62811 0.55507 0.0
C113 C 0.54535 0.61006 0.59445 0.0
C114 C 0.5619 0.59004 0.59169 0.0
C115 C 0.57994 0.58931 0.57166 0.0
C116 C 0.58031 0.60824 0.55323 0.0
H117 H 0.48744 0.47887 0.00528 0.0
H118 H 0.52847 0.54965 0.98395 0.0
H119 H 0.55496 0.51062 0.04845 0.0
C120 C 0.50305 0.4938 0.00902 0.0
C121 C 0.52036 0.49221 0.02969 0.0
C122 C 0.50608 0.51424 0.99234 0.0
C123 C 0.52559 0.5342 0.9972 0.0
C124 C 0.54306 0.53292 0.01755 0.0
C125 C 0.54058 0.51189 0.03355 0.0
H126 H 0.64951 0.2653 0.31767 0.0
H127 H 0.71249 0.23596 0.35695 0.0
H128 H 0.68862 0.20234 0.28246 0.0
C129 C 0.6651 0.25267 0.31751 0.0
C130 C 0.66753 0.23434 0.29686 0.0
C131 C 0.68121 0.25306 0.33917 0.0
C132 C 0.70034 0.23573 0.33991 0.0
C133 C 0.70308 0.21726 0.31967 0.0
C134 C 0.68697 0.21699 0.2979 0.0
H135 H 0.43006 0.07565 0.00443 0.0
H136 H 0.48973 0.08677 0.94793 0.0
H137 H 0.43683 0.01811 0.94273 0.0
C138 C 0.43949 0.06912 0.98696 0.0
C139 C 0.43092 0.04523 0.97463 0.0
C140 C 0.46057 0.08428 0.97734 0.0
C141 C 0.4733 0.0752 0.95532 0.0
C142 C 0.46464 0.05149 0.94253 0.0
C143 C 0.44319 0.03674 0.9521 0.0
O144 O 0.23876 0.85826 0.01478 0.0
Cd145 Cd 0.2495 0.88529 0.04451 0.0
Cd146 Cd 0.22471 0.91569 0.01236 0.0
O147 O 0.21593 0.88175 0.99062 0.0
O148 O 0.26532 0.86425 0.07041 0.0
O149 O 0.23004 0.88418 0.07813 0.0
C150 C 0.24712 0.86966 0.08603 0.0
C151 C 0.1932 0.93998 0.0305 0.0
C152 C 0.22479 0.86031 0.99497 0.0
C153 C 0.28001 0.93139 0.02227 0.0
O154 O 0.26074 0.93447 0.00802 0.0
O155 O 0.27865 0.91406 0.03874 0.0
O156 O 0.19831 0.94036 0.00619 0.0
O157 O 0.20551 0.92504 0.0444 0.0
O158 O 0.1466 0.54992 0.2784 0.0
Cd159 Cd 0.12622 0.51402 0.27638 0.0
Cd160 Cd 0.10374 0.53671 0.2362 0.0
O161 O 0.13512 0.56348 0.24097 0.0
O162 O 0.14597 0.49624 0.30187 0.0
O163 O 0.14292 0.4828 0.26088 0.0
C164 C 0.15243 0.48048 0.28354 0.0
C165 C 0.08963 0.52657 0.19395 0.0
C166 C 0.14875 0.56659 0.26134 0.0
C167 C 0.07195 0.52635 0.2838 0.0
O168 O 0.07481 0.53859 0.26329 0.0
O169 O 0.08944 0.51267 0.29122 0.0
O170 O 0.08777 0.5491 0.20497 0.0
O171 O 0.09975 0.50935 0.20688 0.0
O172 O 0.77032 0.69079 0.9948 0.0
Cd173 Cd 0.75692 0.6706 0.0257 0.0
Cd174 Cd 0.7651 0.6308 0.99139 0.0
O175 O 0.77453 0.65911 0.96559 0.0
O176 O 0.75422 0.70002 0.0512 0.0
O177 O 0.77953 0.66859 0.05722 0.0
C178 C 0.77092 0.69019 0.06517 0.0
C179 C 0.79586 0.60548 0.00661 0.0
C180 C 0.77586 0.68315 0.97204 0.0
C181 C 0.71173 0.63177 0.01182 0.0
O182 O 0.72677 0.61946 0.99742 0.0
O183 O 0.71996 0.65258 0.02429 0.0
O184 O 0.7851 0.60015 0.98429 0.0
O185 O 0.78938 0.62559 0.02005 0.0
O186 O 0.91603 0.03486 0.31649 0.0
Cd187 Cd 0.89555 0.0318 0.28218 0.0
Cd188 Cd 0.85816 0.05356 0.31325 0.0
O189 O 0.88838 0.05662 0.33912 0.0
O190 O 0.92143 0.02572 0.25487 0.0
O191 O 0.89972 0.06066 0.25774 0.0
C192 C 0.91683 0.04768 0.2461 0.0
C193 C 0.8289 0.08557 0.31869 0.0
C194 C 0.90974 0.04645 0.33741 0.0
C195 C 0.84691 0.99868 0.29036 0.0
O196 O 0.84065 0.01683 0.30582 0.0
O197 O 0.86753 0.00127 0.27733 0.0
O198 O 0.83141 0.06846 0.33531 0.0
O199 O 0.84333 0.08489 0.29854 0.0
O200 O 0.25174 0.18703 0.49004 0.0
Cd201 Cd 0.24761 0.15968 0.5174 0.0
Cd202 Cd 0.27603 0.1318 0.48211 0.0
O203 O 0.27123 0.16346 0.46071 0.0
O204 O 0.23315 0.17842 0.54765 0.0
O205 O 0.2714 0.16279 0.54827 0.0
C206 C 0.254 0.1752 0.5601 0.0
C207 C 0.31748 0.11823 0.48334 0.0
C208 C 0.26148 0.1843 0.46778 0.0
C209 C 0.2251 0.10654 0.49774 0.0
O210 O 0.2458 0.10392 0.48531 0.0
O211 O 0.22193 0.12742 0.51082 0.0
O212 O 0.30324 0.11441 0.46294 0.0
O213 O 0.30811 0.12972 0.50344 0.0
O214 O 0.43236 0.53442 0.80533 0.0
Cd215 Cd 0.41559 0.53578 0.76973 0.0
Cd216 Cd 0.37378 0.54371 0.79754 0.0
O217 O 0.3984 0.54258 0.82882 0.0
O218 O 0.44542 0.54017 0.74602 0.0
O219 O 0.41528 0.56782 0.74944 0.0
C220 C 0.4363 0.56101 0.73888 0.0
C221 C 0.34942 0.57905 0.7941 0.0
C222 C 0.42184 0.53754 0.82717 0.0
C223 C 0.37232 0.49437 0.76427 0.0
O224 O 0.36005 0.50834 0.78003 0.0
O225 O 0.39492 0.50204 0.75717 0.0
O226 O 0.34349 0.56154 0.81033 0.0
O227 O 0.36941 0.57653 0.77975 0.0
O228 O 0.72358 0.36542 0.50412 0.0
Cd229 Cd 0.74817 0.38302 0.53257 0.0
Cd230 Cd 0.7245 0.42669 0.50718 0.0
O231 O 0.70909 0.39712 0.48277 0.0
O232 O 0.76848 0.35307 0.53872 0.0
O233 O 0.7446 0.37017 0.56893 0.0
C234 C 0.76013 0.35301 0.56195 0.0
C235 C 0.69709 0.45486 0.52664 0.0
C236 C 0.71042 0.37318 0.48583 0.0
C237 C 0.78171 0.43013 0.51228 0.0
O238 O 0.76239 0.43973 0.50275 0.0
O239 O 0.77895 0.40956 0.52463 0.0
O240 O 0.70347 0.4564 0.50275 0.0
O241 O 0.7063 0.43707 0.53959 0.0
O242 O 0.66232 0.05026 0.79255 0.0
Cd243 Cd 0.64476 0.01369 0.79622 0.0
Cd244 Cd 0.61093 0.03103 0.75442 0.0
O245 O 0.6401 0.06055 0.75884 0.0
O246 O 0.66948 0.99763 0.81843 0.0
O247 O 0.65972 0.9825 0.77875 0.0
C248 C 0.67296 0.98112 0.79963 0.0
C249 C 0.59076 0.03306 0.71424 0.0
C250 C 0.65805 0.06586 0.77534 0.0
C251 C 0.58815 0.01554 0.80679 0.0
O252 O 0.58543 0.02284 0.78403 0.0
O253 O 0.61012 0.01092 0.81534 0.0
O254 O 0.58845 0.05017 0.73265 0.0
O255 O 0.60401 0.01382 0.71868 0.0
O256 O 0.98993 0.28351 0.91123 0.0
Cd257 Cd 0.99762 0.24828 0.89315 0.0
Cd258 Cd 0.02106 0.28321 0.85654 0.0
O259 O 0.00735 0.30967 0.88255 0.0
O260 O 0.98057 0.22304 0.91654 0.0
O261 O 0.02248 0.22547 0.9094 0.0
C262 C 0.00263 0.21446 0.92057 0.0
C263 C 0.0617 0.29361 0.83897 0.0
C264 C 0.99512 0.30615 0.90336 0.0
C265 C 0.97875 0.24495 0.83693 0.0
O266 O 0.99424 0.26423 0.83195 0.0
O267 O 0.97813 0.23589 0.85921 0.0
O268 O 0.04209 0.30599 0.83366 0.0
O269 O 0.05842 0.27509 0.8546 0.0
O270 O 0.51341 0.8206 0.41572 0.0
Cd271 Cd 0.50466 0.78265 0.40282 0.0
Cd272 Cd 0.51886 0.80008 0.35689 0.0
O273 O 0.52478 0.83493 0.37785 0.0
O274 O 0.50165 0.76219 0.43426 0.0
O275 O 0.532 0.75759 0.40496 0.0
C276 C 0.52173 0.75108 0.42654 0.0
C277 C 0.55371 0.7862 0.3337 0.0
C278 C 0.52131 0.83909 0.40186 0.0
C279 C 0.46444 0.77834 0.36016 0.0
O280 O 0.48156 0.78835 0.34544 0.0
O281 O 0.47004 0.77412 0.38334 0.0
O282 O 0.54044 0.80412 0.32563 0.0
O283 O 0.54667 0.77553 0.35477 0.0
O284 O 0.9601 0.74231 0.67717 0.0
Cd285 Cd 0.9967 0.73808 0.66304 0.0
Cd286 Cd 0.97688 0.77104 0.6237 0.0
O287 O 0.94741 0.77047 0.65025 0.0
O288 O 0.01052 0.71509 0.68826 0.0
O289 O 0.02878 0.7542 0.68218 0.0
C290 C 0.02883 0.73279 0.69377 0.0
C291 C 0.98496 0.8109 0.60525 0.0
C292 C 0.94351 0.75702 0.6698 0.0
C293 C 0.99299 0.71834 0.60649 0.0
O294 O 0.98216 0.73827 0.60041 0.0
O295 O 0.00044 0.71597 0.62948 0.0
O296 O 0.96443 0.79598 0.59977 0.0
O297 O 0.00159 0.80304 0.6209 0.0
O298 O 0.44891 0.25459 0.16967 0.0
Cd299 Cd 0.48527 0.25152 0.15374 0.0
Cd300 Cd 0.46417 0.28534 0.11974 0.0
O301 O 0.43411 0.28393 0.14538 0.0
O302 O 0.50061 0.22713 0.17639 0.0
O303 O 0.51782 0.26705 0.17225 0.0
C304 C 0.519 0.24474 0.18191 0.0
C305 C 0.48184 0.32592 0.10898 0.0
C306 C 0.43146 0.26923 0.16415 0.0
C307 C 0.47988 0.23529 0.09677 0.0
O308 O 0.46733 0.25473 0.09315 0.0
O309 O 0.48925 0.23182 0.11875 0.0
O310 O 0.46066 0.31555 0.09854 0.0
O311 O 0.49317 0.31321 0.12581 0.0
H312 H 0.19464 0.78936 0.85663 0.0
H313 H 0.21986 0.71986 0.88829 0.0
H314 H 0.22461 0.7425 0.93119 0.0
H315 H 0.23793 0.83375 0.89213 0.0
H316 H 0.2156 0.85826 0.89714 0.0
H317 H 0.21219 0.83609 0.86927 0.0
H318 H 0.16506 0.82238 0.88211 0.0
H319 H 0.16832 0.84456 0.91004 0.0
H320 H 0.15855 0.81079 0.91376 0.0
H321 H 0.22945 0.77313 0.96977 0.0
H322 H 0.23414 0.81003 0.00181 0.0
H323 H 0.20525 0.85982 0.94564 0.0
C324 C 0.20073 0.77883 0.87271 0.0
C325 C 0.207 0.7529 0.86913 0.0
C326 C 0.21528 0.73984 0.89055 0.0
C327 C 0.21785 0.75246 0.91502 0.0
C328 C 0.21195 0.77812 0.91784 0.0
C329 C 0.20347 0.79118 0.89734 0.0
C330 C 0.19968 0.81911 0.90542 0.0
C331 C 0.21741 0.8379 0.89008 0.0
C332 C 0.1712 0.82452 0.90267 0.0
C333 C 0.2078 0.81978 0.93352 0.0
C334 C 0.21462 0.79587 0.94029 0.0
C335 C 0.22391 0.7919 0.96481 0.0
C336 C 0.22657 0.81301 0.98286 0.0
C337 C 0.21997 0.83781 0.97631 0.0
C338 C 0.21015 0.84105 0.95137 0.0
H339 H 0.99403 0.51746 0.41479 0.0
H340 H 0.95928 0.58673 0.3947 0.0
H341 H 0.97869 0.58345 0.35117 0.0
H342 H 0.05335 0.53365 0.386 0.0
H343 H 0.05902 0.501 0.37535 0.0
H344 H 0.03929 0.50663 0.40313 0.0
H345 H 0.00181 0.47666 0.38196 0.0
H346 H 0.02145 0.47098 0.35401 0.0
H347 H 0.99025 0.48315 0.3504 0.0
H348 H 0.00408 0.57408 0.31121 0.0
H349 H 0.03687 0.5624 0.27946 0.0
H350 H 0.05704 0.50046 0.32681 0.0
C351 C 0.9901 0.53153 0.40092 0.0
C352 C 0.97493 0.55209 0.40762 0.0
C353 C 0.97069 0.57073 0.38955 0.0
C354 C 0.98151 0.56891 0.36486 0.0
C355 C 0.99663 0.54847 0.35882 0.0
C356 C 0.00111 0.53023 0.37642 0.0
C357 C 0.02031 0.5119 0.36623 0.0
C358 C 0.04441 0.51341 0.38372 0.0
C359 C 0.00769 0.48402 0.36295 0.0
C360 C 0.02645 0.52303 0.34039 0.0
C361 C 0.01216 0.54374 0.33623 0.0
C362 C 0.01524 0.55778 0.31417 0.0
C363 C 0.0339 0.55094 0.29621 0.0
C364 C 0.04957 0.53051 0.30064 0.0
C365 C 0.04531 0.51608 0.32279 0.0
H366 H 0.77905 0.74373 0.83386 0.0
H367 H 0.79987 0.81829 0.8737 0.0
H368 H 0.80161 0.79693 0.91491 0.0
H369 H 0.73828 0.71772 0.88253 0.0
H370 H 0.74802 0.68526 0.87806 0.0
H371 H 0.74944 0.70626 0.8515 0.0
H372 H 0.79791 0.69946 0.84546 0.0
H373 H 0.79667 0.6785 0.87211 0.0
H374 H 0.8199 0.70636 0.87231 0.0
H375 H 0.79958 0.76816 0.95168 0.0
H376 H 0.79251 0.73378 0.98242 0.0
H377 H 0.77386 0.67732 0.91899 0.0
C378 C 0.78424 0.7555 0.85124 0.0
C379 C 0.78922 0.78269 0.85062 0.0
C380 C 0.7956 0.79749 0.87379 0.0
C381 C 0.79688 0.78551 0.89723 0.0
C382 C 0.79185 0.75871 0.89717 0.0
C383 C 0.78563 0.74385 0.87483 0.0
C384 C 0.78018 0.71549 0.88031 0.0
C385 C 0.75232 0.70561 0.87265 0.0
C386 C 0.79984 0.69898 0.86674 0.0
C387 C 0.78394 0.71682 0.9093 0.0
C388 C 0.79085 0.74194 0.91853 0.0
C389 C 0.79436 0.74838 0.9447 0.0
C390 C 0.79025 0.72869 0.962 0.0
C391 C 0.7827 0.70285 0.9531 0.0
C392 C 0.77996 0.69681 0.92634 0.0
H393 H 0.0218 0.99672 0.42211 0.0
H394 H 0.97836 0.01957 0.4894 0.0
H395 H 0.94771 0.03945 0.46147 0.0
H396 H 0.01238 0.05281 0.38418 0.0
H397 H 0.00857 0.03372 0.3542 0.0
H398 H 0.02848 0.02349 0.37956 0.0
H399 H 0.00159 0.97901 0.37868 0.0
H400 H 0.98177 0.98903 0.35323 0.0
H401 H 0.96706 0.97797 0.3825 0.0
H402 H 0.92141 0.0556 0.42647 0.0
H403 H 0.89807 0.0628 0.38656 0.0
H404 H 0.95737 0.02745 0.34152 0.0
C405 C 0.00596 0.0062 0.43085 0.0
C406 C 0.00236 0.0069 0.45778 0.0
C407 C 0.98127 0.01895 0.46874 0.0
C408 C 0.96395 0.0304 0.45308 0.0
C409 C 0.96796 0.02938 0.42654 0.0
C410 C 0.98825 0.01733 0.41545 0.0
C411 C 0.98691 0.01705 0.3863 0.0
C412 C 0.01049 0.03271 0.37542 0.0
C413 C 0.98416 0.98911 0.37449 0.0
C414 C 0.96248 0.03048 0.38274 0.0
C415 C 0.95217 0.03786 0.40621 0.0
C416 C 0.92932 0.04999 0.40796 0.0
C417 C 0.91624 0.05404 0.38513 0.0
C418 C 0.92584 0.04566 0.36085 0.0
C419 C 0.94957 0.03419 0.35973 0.0
H420 H 0.22 0.26391 0.6824 0.0
H421 H 0.2974 0.25701 0.711 0.0
H422 H 0.30443 0.22494 0.6753 0.0
H423 H 0.20622 0.19532 0.65856 0.0
H424 H 0.1889 0.20436 0.63078 0.0
H425 H 0.18898 0.22408 0.66041 0.0
H426 H 0.20632 0.26418 0.63595 0.0
H427 H 0.20649 0.2446 0.60635 0.0
H428 H 0.23569 0.26296 0.61769 0.0
H429 H 0.3043 0.19677 0.63417 0.0
H430 H 0.29708 0.17509 0.59086 0.0
H431 H 0.21987 0.20098 0.5894 0.0
C432 C 0.23813 0.25505 0.68158 0.0
C433 C 0.25808 0.2627 0.69954 0.0
C434 C 0.28187 0.25132 0.6974 0.0
C435 C 0.28598 0.23304 0.67728 0.0
C436 C 0.26609 0.22634 0.65951 0.0
C437 C 0.24259 0.23691 0.66156 0.0
C438 C 0.22514 0.22813 0.63887 0.0
C439 C 0.20088 0.21201 0.64769 0.0
C440 C 0.21801 0.25135 0.62383 0.0
C441 C 0.24272 0.21151 0.6234 0.0
C442 C 0.26614 0.21042 0.63573 0.0
C443 C 0.28591 0.19722 0.62448 0.0
C444 C 0.28166 0.18501 0.59987 0.0
C445 C 0.25792 0.1863 0.58677 0.0
C446 C 0.23818 0.19948 0.59894 0.0
H447 H 0.55136 0.59419 0.6437 0.0
H448 H 0.49583 0.62562 0.59392 0.0
H449 H 0.46339 0.62214 0.62838 0.0
H450 H 0.50805 0.54571 0.66552 0.0
H451 H 0.52146 0.54655 0.69761 0.0
H452 H 0.54164 0.5562 0.67115 0.0
H453 H 0.55396 0.60065 0.69514 0.0
H454 H 0.53374 0.59112 0.72174 0.0
H455 H 0.52885 0.62048 0.70599 0.0
H456 H 0.43565 0.61152 0.66712 0.0
H457 H 0.41454 0.59157 0.70484 0.0
H458 H 0.4872 0.56322 0.72656 0.0
C459 C 0.53246 0.60051 0.63992 0.0
C460 C 0.52635 0.61028 0.61595 0.0
C461 C 0.50134 0.61858 0.61222 0.0
C462 C 0.48268 0.61657 0.63168 0.0
C463 C 0.48921 0.60611 0.65474 0.0
C464 C 0.5135 0.5981 0.65883 0.0
C465 C 0.51492 0.58477 0.68394 0.0
C466 C 0.52192 0.55665 0.67926 0.0
C467 C 0.534 0.60018 0.70282 0.0
C468 C 0.4874 0.5858 0.69299 0.0
C469 C 0.47299 0.59878 0.67629 0.0
C470 C 0.44681 0.60148 0.68041 0.0
C471 C 0.43499 0.59016 0.70186 0.0
C472 C 0.44927 0.57584 0.71845 0.0
C473 C 0.47584 0.57405 0.71412 0.0
H474 H 0.76372 0.27421 0.69065 0.0
H475 H 0.82415 0.23275 0.65414 0.0
H476 H 0.82072 0.25777 0.61536 0.0
H477 H 0.72498 0.27861 0.63292 0.0
H478 H 0.7163 0.31082 0.64165 0.0
H479 H 0.72293 0.28919 0.66641 0.0
H480 H 0.75767 0.32339 0.68612 0.0
H481 H 0.75121 0.34508 0.66138 0.0
H482 H 0.78356 0.33609 0.66614 0.0
H483 H 0.81124 0.28694 0.581 0.0
H484 H 0.79671 0.31932 0.55261 0.0
H485 H 0.7426 0.34308 0.61105 0.0
C486 C 0.77603 0.27029 0.67436 0.0
C487 C 0.79425 0.2516 0.67535 0.0
C488 C 0.81026 0.24717 0.65384 0.0
C489 C 0.80837 0.26118 0.63171 0.0
C490 C 0.79043 0.27962 0.63143 0.0
C491 C 0.77453 0.28429 0.65212 0.0
C492 C 0.75733 0.30568 0.64687 0.0
C493 C 0.72869 0.29546 0.64696 0.0
C494 C 0.76278 0.32894 0.66628 0.0
C495 C 0.76612 0.3123 0.62 0.0
C496 C 0.78514 0.29689 0.61152 0.0
C497 C 0.79636 0.29913 0.58739 0.0
C498 C 0.78793 0.31762 0.5714 0.0
C499 C 0.76851 0.33378 0.57958 0.0
C500 C 0.75751 0.33107 0.60428 0.0
H501 H 0.52699 0.99184 0.5763 0.0
H502 H 0.52089 0.07389 0.56691 0.0
H503 H 0.54094 0.08402 0.60956 0.0
H504 H 0.51448 0.99177 0.64368 0.0
H505 H 0.53789 0.96924 0.65036 0.0
H506 H 0.5227 0.96809 0.61908 0.0
H507 H 0.56759 0.97315 0.5975 0.0
H508 H 0.58295 0.97423 0.62872 0.0
H509 H 0.59013 0.0002 0.60743 0.0
H510 H 0.55985 0.08543 0.65338 0.0
H511 H 0.57919 0.07837 0.69543 0.0
H512 H 0.57646 0.99577 0.67578 0.0
C513 C 0.53013 0.01197 0.58303 0.0
C514 C 0.52199 0.03203 0.56828 0.0
C515 C 0.52628 0.05809 0.57804 0.0
C516 C 0.53788 0.06409 0.60217 0.0
C517 C 0.54546 0.04388 0.61621 0.0
C518 C 0.54203 0.01838 0.60698 0.0
C519 C 0.55228 0.00043 0.62597 0.0
C520 C 0.53054 0.98125 0.63533 0.0
C521 C 0.57457 0.98617 0.6142 0.0
C522 C 0.5618 0.01989 0.6474 0.0
C523 C 0.55746 0.0448 0.64133 0.0
C524 C 0.56357 0.06607 0.6583 0.0
C525 C 0.57445 0.06182 0.68217 0.0
C526 C 0.57939 0.03654 0.68877 0.0
C527 C 0.57313 0.01531 0.67107 0.0
H528 H 0.86517 0.25703 0.73844 0.0
H529 H 0.84327 0.17536 0.74712 0.0
H530 H 0.88352 0.17172 0.77133 0.0
H531 H 0.9367 0.25044 0.73255 0.0
H532 H 0.94439 0.28091 0.75033 0.0
H533 H 0.9157 0.27619 0.73048 0.0
H534 H 0.88805 0.28872 0.7699 0.0
H535 H 0.9165 0.29325 0.78988 0.0
H536 H 0.88977 0.27114 0.79881 0.0
H537 H 0.92166 0.17864 0.80077 0.0
H538 H 0.9572 0.19511 0.83058 0.0
H539 H 0.95628 0.27133 0.80024 0.0
C540 C 0.86927 0.23819 0.74464 0.0
C541 C 0.851 0.21654 0.74108 0.0
C542 C 0.85682 0.19232 0.75 0.0
C543 C 0.87973 0.18999 0.76358 0.0
C544 C 0.89689 0.21193 0.76763 0.0
C545 C 0.8922 0.23547 0.75802 0.0
C546 C 0.91283 0.2565 0.76674 0.0
C547 C 0.92833 0.2666 0.74365 0.0
C548 C 0.90108 0.27869 0.78225 0.0
C549 C 0.92913 0.24136 0.7837 0.0
C550 C 0.9197 0.21564 0.78383 0.0
C551 C 0.92972 0.19854 0.80029 0.0
C552 C 0.94978 0.20805 0.81721 0.0
C553 C 0.95969 0.23431 0.81731 0.0
C554 C 0.94954 0.25097 0.79998 0.0
H555 H 0.50777 0.95037 0.51114 0.0
H556 H 0.52151 0.00552 0.45181 0.0
H557 H 0.53166 0.97003 0.42078 0.0
H558 H 0.55699 0.90589 0.49022 0.0
H559 H 0.53641 0.87751 0.49751 0.0
H560 H 0.53383 0.90762 0.5159 0.0
H561 H 0.48502 0.90534 0.50483 0.0
H562 H 0.48745 0.87534 0.48637 0.0
H563 H 0.47483 0.90232 0.47153 0.0
H564 H 0.53668 0.9285 0.39553 0.0
H565 H 0.53449 0.88359 0.37709 0.0
H566 H 0.51607 0.85519 0.45264 0.0
C567 C 0.5136 0.95495 0.49179 0.0
C568 C 0.5142 0.98056 0.48379 0.0
C569 C 0.52111 0.98593 0.45818 0.0
C570 C 0.52699 0.96597 0.44053 0.0
C571 C 0.52576 0.94079 0.44884 0.0
C572 C 0.51921 0.93519 0.47385 0.0
C573 C 0.51687 0.90627 0.47717 0.0
C574 C 0.53724 0.89889 0.49634 0.0
C575 C 0.48941 0.89677 0.48545 0.0
C576 C 0.5225 0.89646 0.44998 0.0
C577 C 0.528 0.91669 0.43406 0.0
C578 C 0.53267 0.91247 0.40785 0.0
C579 C 0.53134 0.88687 0.39756 0.0
C580 C 0.52511 0.86583 0.4134 0.0
C581 C 0.52103 0.87081 0.44003 0.0
H582 H 0.19947 0.27007 0.7775 0.0
H583 H 0.20143 0.3488 0.75259 0.0
H584 H 0.15998 0.35435 0.77417 0.0
H585 H 0.13116 0.25475 0.76924 0.0
H586 H 0.12758 0.23598 0.79744 0.0
H587 H 0.15781 0.23818 0.7805 0.0
H588 H 0.18158 0.25507 0.82275 0.0
H589 H 0.15139 0.25302 0.83981 0.0
H590 H 0.17128 0.28325 0.84032 0.0
H591 H 0.11806 0.35119 0.79648 0.0
H592 H 0.07749 0.33958 0.81911 0.0
H593 H 0.10232 0.26327 0.83118 0.0
C594 C 0.1911 0.28843 0.77662 0.0
C595 C 0.20372 0.30909 0.76356 0.0
C596 C 0.19226 0.33287 0.76284 0.0
C597 C 0.1687 0.33619 0.77495 0.0
C598 C 0.15685 0.31558 0.78782 0.0
C599 C 0.16758 0.29218 0.78885 0.0
C600 C 0.15052 0.27319 0.80388 0.0
C601 C 0.14122 0.2491 0.78674 0.0
C602 C 0.16453 0.26569 0.82813 0.0
C603 C 0.12844 0.28954 0.81084 0.0
C604 C 0.13259 0.31391 0.8013 0.0
C605 C 0.11464 0.33225 0.80424 0.0
C606 C 0.09164 0.32545 0.81708 0.0
C607 C 0.08686 0.3006 0.827 0.0
C608 C 0.10566 0.28252 0.82409 0.0
H609 H 0.5212 0.65034 0.53681 0.0
H610 H 0.60408 0.6493 0.52653 0.0
H611 H 0.6021 0.6788 0.49102 0.0
H612 H 0.50334 0.65363 0.47111 0.0
H613 H 0.47907 0.67588 0.47765 0.0
H614 H 0.48678 0.65378 0.50156 0.0
H615 H 0.49674 0.69225 0.53499 0.0
H616 H 0.48879 0.71445 0.51127 0.0
H617 H 0.51982 0.71858 0.52721 0.0
H618 H 0.59067 0.70779 0.45556 0.0
H619 H 0.57146 0.73731 0.42637 0.0
H620 H 0.49717 0.72213 0.46294 0.0
C621 C 0.5391 0.65653 0.52748 0.0
C622 C 0.56277 0.64714 0.53452 0.0
C623 C 0.58555 0.65559 0.52125 0.0
C624 C 0.58467 0.67252 0.5011 0.0
C625 C 0.56097 0.68117 0.49464 0.0
C626 C 0.53868 0.67375 0.50772 0.0
C627 C 0.51581 0.68655 0.49777 0.0
C628 C 0.49503 0.66625 0.48635 0.0
C629 C 0.50464 0.704 0.51908 0.0
C630 C 0.52868 0.70235 0.477 0.0
C631 C 0.55466 0.69874 0.4752 0.0
C632 C 0.57038 0.7109 0.45693 0.0
C633 C 0.5593 0.72752 0.44037 0.0
C634 C 0.53291 0.73208 0.44254 0.0
C635 C 0.51747 0.71917 0.461 0.0
H636 H 0.83456 0.82451 0.7488 0.0
H637 H 0.80061 0.74733 0.76338 0.0
H638 H 0.83199 0.72846 0.73405 0.0
H639 H 0.84979 0.80899 0.67872 0.0
H640 H 0.87924 0.83002 0.68076 0.0
H641 H 0.85192 0.83754 0.70021 0.0
H642 H 0.8807 0.8392 0.74112 0.0
H643 H 0.90795 0.83119 0.72195 0.0
H644 H 0.89757 0.81139 0.74812 0.0
H645 H 0.87167 0.71789 0.71029 0.0
H646 H 0.91314 0.7164 0.68716 0.0
H647 H 0.91912 0.80005 0.68418 0.0
C648 C 0.83304 0.80371 0.74503 0.0
C649 C 0.81528 0.7874 0.75862 0.0
C650 C 0.81431 0.7602 0.75351 0.0
C651 C 0.83199 0.74929 0.7368 0.0
C652 C 0.85012 0.76583 0.72479 0.0
C653 C 0.85033 0.79247 0.72803 0.0
C654 C 0.87268 0.80579 0.71376 0.0
C655 C 0.86281 0.82151 0.69207 0.0
C656 C 0.89079 0.82289 0.73236 0.0
C657 C 0.88559 0.78246 0.70297 0.0
C658 C 0.87229 0.75959 0.70966 0.0
C659 C 0.88187 0.7356 0.70426 0.0
C660 C 0.90548 0.73493 0.69137 0.0
C661 C 0.91897 0.75806 0.6837 0.0
C662 C 0.9088 0.78207 0.6894 0.0
H663 H 0.05293 0.92353 0.52414 0.0
H664 H 0.98193 0.96175 0.53251 0.0
H665 H 0.96412 0.92726 0.55967 0.0
H666 H 0.02531 0.85925 0.52108 0.0
H667 H 0.04994 0.84664 0.54011 0.0
H668 H 0.05771 0.87474 0.52181 0.0
H669 H 0.07465 0.90072 0.56325 0.0
H670 H 0.06702 0.87264 0.58171 0.0
H671 H 0.05394 0.90283 0.59094 0.0
H672 H 0.95233 0.88703 0.58222 0.0
H673 H 0.94857 0.8447 0.60217 0.0
H674 H 0.02841 0.83435 0.58349 0.0
C675 C 0.03383 0.92497 0.53204 0.0
C676 C 0.01873 0.94526 0.52573 0.0
C677 C 0.99368 0.9461 0.53634 0.0
C678 C 0.98344 0.92672 0.55206 0.0
C679 C -0.00135 0.90686 0.5575 0.0
C680 C 0.02343 0.90599 0.54819 0.0
C681 C 0.03553 0.88225 0.55686 0.0
C682 C 0.04253 0.86469 0.53358 0.0
C683 C 0.05918 0.89009 0.57423 0.0
C684 C 0.01341 0.86966 0.57201 0.0
C685 C 0.9923 0.8842 0.57198 0.0
C686 C 0.96886 0.87571 0.58286 0.0
C687 C 0.96688 0.85168 0.59404 0.0
C688 C 0.98831 0.83666 0.59463 0.0
C689 C 0.01197 0.84587 0.58377 0.0
H690 H 0.15784 0.76285 0.77956 0.0
H691 H 0.15136 0.68113 0.79458 0.0
H692 H 0.11055 0.6749 0.7697 0.0
H693 H 0.0891 0.77226 0.78185 0.0
H694 H 0.09036 0.79366 0.75555 0.0
H695 H 0.11835 0.79221 0.77579 0.0
H696 H 0.1456 0.78149 0.73556 0.0
H697 H 0.11772 0.78291 0.71521 0.0
H698 H 0.135 0.75419 0.71411 0.0
H699 H 0.07123 0.67719 0.74343 0.0
H700 H 0.03622 0.68702 0.71463 0.0
H701 H 0.06837 0.76709 0.71411 0.0
C702 C 0.1476 0.74376 0.77768 0.0
C703 C 0.15749 0.72242 0.78895 0.0
C704 C 0.14396 0.69761 0.78597 0.0
C705 C 0.12079 0.69394 0.77199 0.0
C706 C 0.11157 0.71526 0.76093 0.0
C707 C 0.12455 0.73965 0.76337 0.0
C708 C 0.11088 0.75887 0.74835 0.0
C709 C 0.10162 0.78053 0.76647 0.0
C710 C 0.12834 0.77002 0.72704 0.0
C711 C 0.08829 0.74139 0.73707 0.0
C712 C 0.08902 0.71641 0.74488 0.0
C713 C 0.07041 0.69667 0.73715 0.0
C714 C 0.05056 0.7025 0.72078 0.0
C715 C 0.04952 0.72782 0.71205 0.0
C716 C 0.06864 0.74755 0.72043 0.0
H717 H 0.95577 0.62653 0.48164 0.0
H718 H 0.00247 0.57075 0.5139 0.0
H719 H 0.01808 0.60333 0.54818 0.0
H720 H 0.00036 0.68558 0.49778 0.0
H721 H 0.97407 0.70501 0.50579 0.0
H722 H 0.96959 0.67869 0.48169 0.0
H723 H 0.93047 0.65888 0.50696 0.0
H724 H 0.93488 0.68501 0.53115 0.0
H725 H 0.93459 0.65194 0.54029 0.0
H726 H 0.02495 0.63977 0.58098 0.0
H727 H 0.02237 0.67765 0.61112 0.0
H728 H 0.97049 0.71019 0.55831 0.0
C729 C 0.96985 0.62159 0.49557 0.0
C730 C 0.9784 0.5965 0.49514 0.0
C731 C 0.99612 0.59012 0.51394 0.0
C732 C 0.00507 0.60846 0.53336 0.0
C733 C 0.99597 0.63299 0.53364 0.0
C734 C 0.9788 0.63966 0.51524 0.0
C735 C 0.97022 0.6665 0.52139 0.0
C736 C 0.9791 0.68504 0.50041 0.0
C737 C 0.9408 0.66551 0.52518 0.0
C738 C 0.98465 0.67355 0.5465 0.0
C739 C -0.00035 0.65406 0.55298 0.0
C740 C 0.01355 0.65532 0.57599 0.0
C741 C 0.01186 0.6769 0.59303 0.0
C742 C 0.99626 0.69695 0.58708 0.0
C743 C 0.98283 0.69537 0.56327 0.0
H744 H 0.79138 0.85994 0.23125 0.0
H745 H 0.75651 0.84663 0.30591 0.0
H746 H 0.77345 0.89041 0.32161 0.0
H747 H 0.85046 0.89422 0.25736 0.0
H748 H 0.8535 0.91595 0.23136 0.0
H749 H 0.83798 0.88375 0.22576 0.0
H750 H 0.79733 0.90313 0.20862 0.0
H751 H 0.81259 0.9354 0.21446 0.0
H752 H 0.78173 0.9265 0.22868 0.0
H753 H 0.79213 0.93623 0.32854 0.0
H754 H 0.81608 0.97933 0.32822 0.0
H755 H 0.84244 0.96136 0.2506 0.0
C756 C 0.78765 0.8659 0.25107 0.0
C757 C 0.77227 0.84974 0.2672 0.0
C758 C 0.76764 0.85874 0.29289 0.0
C759 C 0.77731 0.88356 0.30208 0.0
C760 C 0.79198 0.89902 0.28552 0.0
C761 C 0.79757 0.8904 0.26073 0.0
C762 C 0.81449 0.91063 0.24715 0.0
C763 C 0.84066 0.90053 0.24 0.0
C764 C 0.8007 0.91943 0.22332 0.0
C765 C 0.81745 0.93203 0.26818 0.0
C766 C 0.80397 0.92503 0.29 0.0
C767 C 0.80297 0.94185 0.31168 0.0
C768 C 0.81651 0.96633 0.31123 0.0
C769 C 0.83118 0.97359 0.28942 0.0
C770 C 0.83154 0.95621 0.2676 0.0
H771 H 0.73846 0.19796 0.28542 0.0
H772 H 0.70637 0.18911 0.36187 0.0
H773 H 0.7356 0.15546 0.3696 0.0
H774 H 0.74644 0.12965 0.27164 0.0
H775 H 0.7765 0.13544 0.25481 0.0
H776 H 0.75301 0.15907 0.25492 0.0
H777 H 0.78745 0.19429 0.27329 0.0
H778 H 0.81101 0.17074 0.27336 0.0
H779 H 0.80432 0.18905 0.30268 0.0
H780 H 0.76764 0.12351 0.36975 0.0
H781 H 0.80086 0.09318 0.36196 0.0
H782 H 0.81332 0.12135 0.28526 0.0
C783 C 0.73758 0.18879 0.30369 0.0
C784 C 0.7204 0.1964 0.3232 0.0
C785 C 0.71974 0.18398 0.34687 0.0
C786 C 0.73618 0.16475 0.35141 0.0
C787 C 0.75315 0.158 0.33206 0.0
C788 C 0.75402 0.16945 0.30863 0.0
C789 C 0.77428 0.15828 0.29128 0.0
C790 C 0.7618 0.14481 0.26671 0.0
C791 C 0.79552 0.17935 0.28478 0.0
C792 C 0.78451 0.13881 0.30872 0.0
C793 C 0.77195 0.13912 0.33212 0.0
C794 C 0.77765 0.12299 0.35151 0.0
C795 C 0.79659 0.10582 0.34685 0.0
C796 C 0.80972 0.10483 0.32299 0.0
C797 C 0.80368 0.12171 0.30371 0.0
H798 H 0.38602 0.02336 0.95202 0.0
H799 H 0.42963 0.0294 0.02365 0.0
H800 H 0.39573 0.00078 0.04364 0.0
H801 H 0.32323 0.02478 0.98164 0.0
H802 H 0.30735 0.00214 0.95799 0.0
H803 H 0.33529 0.02267 0.94916 0.0
H804 H 0.35801 0.98221 0.93333 0.0
H805 H 0.33016 0.96157 0.94212 0.0
H806 H 0.3615 0.95669 0.95501 0.0
H807 H 0.35819 0.97039 0.05522 0.0
H808 H 0.31768 0.94236 0.05879 0.0
H809 H 0.29706 0.95799 0.98043 0.0
C810 C 0.38835 0.01855 0.97188 0.0
C811 C 0.41032 0.02843 0.98638 0.0
C812 C 0.41278 0.02205 0.01237 0.0
C813 C 0.39372 0.00578 0.02382 0.0
C814 C 0.37224 0.99634 0.00905 0.0
C815 C 0.36928 0.00266 0.98375 0.0
C816 C 0.34399 0.99041 0.97242 0.0
C817 C 0.32643 0.01125 0.96486 0.0
C818 C 0.34871 0.9716 0.94936 0.0
C819 C 0.33331 0.97608 0.99525 0.0
C820 C 0.35003 0.97959 0.01609 0.0
C821 C 0.34482 0.96763 0.03911 0.0
C822 C 0.32182 0.95171 0.04092 0.0
C823 C 0.3042 0.94816 0.01995 0.0
C824 C 0.31004 0.9606 0.99687 0.0
H825 H 0.2296 0.35331 0.26159 0.0
H826 H 0.26917 0.37749 0.33358 0.0
H827 H 0.24658 0.41738 0.33615 0.0
H828 H 0.22876 0.41964 0.2371 0.0
H829 H 0.19705 0.41281 0.22298 0.0
H830 H 0.21813 0.38717 0.22531 0.0
H831 H 0.18269 0.36056 0.24997 0.0
H832 H 0.16163 0.38622 0.24801 0.0
H833 H 0.16944 0.37466 0.27896 0.0
H834 H 0.21711 0.45163 0.33386 0.0
H835 H 0.18436 0.48147 0.32493 0.0
H836 H 0.1637 0.4371 0.25351 0.0
C837 C 0.23389 0.36738 0.27749 0.0
C838 C 0.25104 0.36239 0.29745 0.0
C839 C 0.25596 0.38096 0.31821 0.0
C840 C 0.24328 0.40366 0.31982 0.0
C841 C 0.22585 0.40766 0.30038 0.0
C842 C 0.22131 0.39033 0.2794 0.0
C843 C 0.20067 0.39912 0.26186 0.0
C844 C 0.21183 0.40504 0.23523 0.0
C845 C 0.17722 0.37893 0.25958 0.0
C846 C 0.19401 0.4237 0.27666 0.0
C847 C 0.20886 0.42811 0.29879 0.0
C848 C 0.20558 0.44866 0.31641 0.0
C849 C 0.18677 0.4654 0.31122 0.0
C850 C 0.17149 0.46167 0.2885 0.0
C851 C 0.17524 0.44054 0.27093 0.0
H852 H 0.0799 0.04515 0.50206 0.0
H853 H 0.10797 0.96965 0.48631 0.0
H854 H 0.15302 0.98991 0.48669 0.0
H855 H 0.12431 0.08099 0.46341 0.0
H856 H 0.12792 0.109 0.48557 0.0
H857 H 0.09829 0.08832 0.48472 0.0
H858 H 0.10279 0.08175 0.53361 0.0
H859 H 0.1324 0.10251 0.53465 0.0
H860 H 0.13196 0.07012 0.54574 0.0
H861 H 0.19456 0.01933 0.48566 0.0
H862 H 0.22961 0.05482 0.48708 0.0
H863 H 0.17375 0.11036 0.50594 0.0
C864 C 0.0956 0.03293 0.49881 0.0
C865 C 0.09072 0.00597 0.49399 0.0
C866 C 0.11155 0.99039 0.49007 0.0
C867 C 0.13707 0.00172 0.49019 0.0
C868 C 0.14123 0.02852 0.49465 0.0
C869 C 0.12106 0.04383 0.49925 0.0
C870 C 0.13053 0.07208 0.50367 0.0
C871 C 0.11962 0.08855 0.48311 0.0
C872 C 0.12404 0.0822 0.53105 0.0
C873 C 0.15922 0.0704 0.50048 0.0
C874 C 0.16506 0.04517 0.49511 0.0
C875 C 0.19025 0.0391 0.49018 0.0
C876 C 0.20998 0.05936 0.49092 0.0
C877 C 0.20437 0.08525 0.49685 0.0
C878 C 0.17866 0.09071 0.50174 0.0
H879 H 0.73945 0.17933 0.70758 0.0
H880 H 0.76771 0.20688 0.78358 0.0
H881 H 0.73691 0.17501 0.80332 0.0
H882 H 0.66991 0.16418 0.72745 0.0
H883 H 0.66643 0.13601 0.70548 0.0
H884 H 0.68768 0.16377 0.69769 0.0
H885 H 0.72527 0.13428 0.69196 0.0
H886 H 0.70437 0.10657 0.70021 0.0
H887 H 0.73382 0.11517 0.7182 0.0
H888 H 0.70944 0.13537 0.8141 0.0
H889 H 0.68247 0.09387 0.81564 0.0
H890 H 0.66992 0.09351 0.73303 0.0
C891 C 0.73837 0.17938 0.7284 0.0
C892 C 0.75598 0.19548 0.74407 0.0
C893 C 0.75449 0.19454 0.77124 0.0
C894 C 0.73703 0.17657 0.78263 0.0
C895 C 0.72085 0.16003 0.76659 0.0
C896 C 0.72088 0.16166 0.74009 0.0
C897 C 0.70283 0.14036 0.72717 0.0
C898 C 0.68038 0.15177 0.71366 0.0
C899 C 0.71746 0.12308 0.70828 0.0
C900 C 0.69358 0.12588 0.75043 0.0
C901 C 0.70416 0.13758 0.77299 0.0
C902 C 0.70047 0.12639 0.79667 0.0
C903 C 0.68535 0.10274 0.79734 0.0
C904 C 0.67396 0.09071 0.77451 0.0
C905 C 0.678 0.10259 0.75084 0.0
H906 H 0.43728 0.05274 0.53968 0.0
H907 H 0.46965 0.05367 0.46267 0.0
H908 H 0.43322 0.07674 0.44806 0.0
H909 H 0.37206 0.04228 0.52151 0.0
H910 H 0.3603 0.06337 0.5467 0.0
H911 H 0.38953 0.04794 0.55158 0.0
H912 H 0.41438 0.0927 0.5621 0.0
H913 H 0.38518 0.1083 0.55735 0.0
H914 H 0.41374 0.11772 0.53935 0.0
H915 H 0.39184 0.0962 0.44086 0.0
H916 H 0.34891 0.11321 0.44207 0.0
H917 H 0.34471 0.10278 0.52432 0.0
C918 C 0.43704 0.05825 0.51988 0.0
C919 C 0.4563 0.05117 0.50229 0.0
C920 C 0.45491 0.05839 0.47641 0.0
C921 C 0.43441 0.07171 0.46796 0.0
C922 C 0.41562 0.07804 0.48569 0.0
C923 C 0.41686 0.07183 0.51117 0.0
C924 C 0.39378 0.08041 0.52611 0.0
C925 C 0.37799 0.05711 0.53711 0.0
C926 C 0.40229 0.10101 0.54749 0.0
C927 C 0.37913 0.09192 0.50489 0.0
C928 C 0.3921 0.09029 0.48173 0.0
C929 C 0.38168 0.09799 0.45894 0.0
C930 C 0.35728 0.10751 0.4598 0.0
C931 C 0.34372 0.10951 0.48332 0.0
C932 C 0.35493 0.10191 0.5062 0.0
H933 H 0.59746 0.56346 0.52813 0.0
H934 H 0.60409 0.56828 0.61168 0.0
H935 H 0.63342 0.53334 0.60942 0.0
H936 H 0.59966 0.49496 0.51849 0.0
H937 H 0.61916 0.49707 0.48991 0.0
H938 H 0.59783 0.52181 0.49808 0.0
H939 H 0.63626 0.55702 0.49709 0.0
H940 H 0.65768 0.53241 0.48876 0.0
H941 H 0.66445 0.55411 0.51665 0.0
H942 H 0.66177 0.49736 0.59808 0.0
H943 H 0.68924 0.46516 0.5782 0.0
H944 H 0.66624 0.48617 0.50223 0.0
C945 C 0.60523 0.55745 0.54599 0.0
C946 C 0.59816 0.56858 0.5701 0.0
C947 C 0.60867 0.55973 0.59296 0.0
C948 C 0.6255 0.53998 0.5919 0.0
C949 C 0.63194 0.52941 0.56783 0.0
C950 C 0.62234 0.53801 0.54529 0.0
C951 C 0.63291 0.52399 0.52186 0.0
C952 C 0.61108 0.50854 0.50617 0.0
C953 C 0.64877 0.54302 0.50511 0.0
C954 C 0.64996 0.50617 0.53476 0.0
C955 C 0.64896 0.50939 0.56129 0.0
C956 C 0.66281 0.49474 0.57731 0.0
C957 C 0.67828 0.47647 0.56587 0.0
C958 C 0.67996 0.47327 0.53871 0.0
C959 C 0.6655 0.4883 0.52306 0.0
H960 H 0.68728 0.30595 0.34654 0.0
H961 H 0.6655 0.23527 0.38486 0.0
H962 H 0.66395 0.2602 0.42654 0.0
H963 H 0.72997 0.33233 0.39241 0.0
H964 H 0.7228 0.36559 0.39065 0.0
H965 H 0.71703 0.34339 0.36311 0.0
H966 H 0.6692 0.35382 0.36163 0.0
H967 H 0.67487 0.37627 0.38915 0.0
H968 H 0.64955 0.35035 0.38999 0.0
H969 H 0.67263 0.29046 0.46414 0.0
H970 H 0.68921 0.32508 0.49578 0.0
H971 H 0.7043 0.3772 0.43395 0.0
C972 C 0.68125 0.29604 0.36363 0.0
C973 C 0.67622 0.26888 0.36272 0.0
C974 C 0.66918 0.25617 0.38539 0.0
C975 C 0.66818 0.27016 0.40905 0.0
C976 C 0.67411 0.29686 0.40963 0.0
C977 C 0.68023 0.3098 0.38753 0.0
C978 C 0.68865 0.33811 0.39401 0.0
C979 C 0.71624 0.34525 0.38449 0.0
C980 C 0.66941 0.35568 0.38305 0.0
C981 C 0.68755 0.33866 0.4232 0.0
C982 C 0.67878 0.31471 0.43174 0.0
C983 C 0.67884 0.30951 0.45778 0.0
C984 C 0.68841 0.3292 0.47558 0.0
C985 C 0.69763 0.3538 0.46725 0.0
C986 C 0.69665 0.35874 0.44081 0.0
H987 H 0.51651 0.04788 0.93774 0.0
H988 H 0.44401 0.03334 0.89592 0.0
H989 H 0.46757 0.01882 0.85712 0.0
H990 H 0.55363 0.07314 0.887 0.0
H991 H 0.58246 0.05829 0.89526 0.0
H992 H 0.55964 0.06585 0.91993 0.0
H993 H 0.55593 0.01798 0.93251 0.0
H994 H 0.5787 0.01024 0.90776 0.0
H995 H 0.54733 0.99256 0.90824 0.0
H996 H 0.49947 0.01025 0.82194 0.0
H997 H 0.53716 0.0065 0.79343 0.0
H998 H 0.58853 0.02425 0.85908 0.0
C999 C 0.50563 0.0415 0.92042 0.0
C1000 C 0.47852 0.04179 0.91966 0.0
C1001 C 0.46481 0.03311 0.89682 0.0
C1002 C 0.47801 0.02486 0.87476 0.0
C1003 C 0.50482 0.02502 0.87608 0.0
C1004 C 0.51844 0.03287 0.89841 0.0
C1005 C 0.5472 0.03187 0.89463 0.0
C1006 C 0.56157 0.05889 0.89948 0.0
C1007 C 0.55791 0.01197 0.9118 0.0
C1008 C 0.54773 0.02295 0.86645 0.0
C1009 C 0.52309 0.01906 0.85609 0.0
C1010 C 0.51882 0.01275 0.82993 0.0
C1011 C 0.54031 0.01071 0.8139 0.0
C1012 C 0.56569 0.01471 0.82415 0.0
C1013 C 0.56934 0.02044 0.85084 0.0
H1014 H 0.27069 0.24897 0.33192 0.0
H1015 H 0.26915 0.32368 0.37368 0.0
H1016 H 0.26466 0.30174 0.4145 0.0
H1017 H 0.22625 0.2125 0.37115 0.0
H1018 H 0.24402 0.1841 0.36972 0.0
H1019 H 0.24591 0.20555 0.3435 0.0
H1020 H 0.29576 0.21105 0.34802 0.0
H1021 H 0.29405 0.18952 0.37417 0.0
H1022 H 0.31019 0.22159 0.3788 0.0
H1023 H 0.25959 0.27165 0.45083 0.0
H1024 H 0.25761 0.23569 0.48033 0.0
H1025 H 0.26615 0.18117 0.41523 0.0
C1026 C 0.26968 0.26084 0.34961 0.0
C1027 C 0.26995 0.28812 0.34937 0.0
C1028 C 0.26829 0.30274 0.37311 0.0
C1029 C 0.26594 0.29047 0.39649 0.0
C1030 C 0.26565 0.2636 0.39593 0.0
C1031 C 0.26777 0.24898 0.37316 0.0
C1032 C 0.26791 0.22045 0.37796 0.0
C1033 C 0.24463 0.20473 0.3648 0.0
C1034 C 0.2935 0.21005 0.36922 0.0
C1035 C 0.26546 0.22133 0.407 0.0
C1036 C 0.2639 0.24637 0.41698 0.0
C1037 C 0.26095 0.25197 0.44328 0.0
C1038 C 0.25976 0.23143 0.45985 0.0
C1039 C 0.26188 0.20569 0.45007 0.0
C1040 C 0.26473 0.20068 0.42329 0.0
H1041 H 0.47589 0.5497 0.97239 0.0
H1042 H 0.50568 0.47498 0.95615 0.0
H1043 H 0.48708 0.47314 0.91229 0.0
H1044 H 0.41475 0.53374 0.93618 0.0
H1045 H 0.41406 0.56599 0.92501 0.0
H1046 H 0.42905 0.56116 0.9555 0.0
H1047 H 0.47135 0.58568 0.94035 0.0
H1048 H 0.45661 0.59032 0.90971 0.0
H1049 H 0.48625 0.57471 0.91091 0.0
H1050 H 0.46997 0.48137 0.86944 0.0
H1051 H 0.44878 0.49588 0.83091 0.0
H1052 H 0.42574 0.56333 0.87511 0.0
C1053 C 0.47805 0.53284 0.95964 0.0
C1054 C 0.49203 0.51239 0.96751 0.0
C1055 C 0.49472 0.49063 0.95045 0.0
C1056 C 0.4844 0.48951 0.92551 0.0
C1057 C 0.47107 0.5101 0.91813 0.0
C1058 C 0.46729 0.5311 0.93477 0.0
C1059 C 0.45182 0.55039 0.92181 0.0
C1060 C 0.42588 0.55296 0.93544 0.0
C1061 C 0.46745 0.57684 0.92063 0.0
C1062 C 0.44802 0.53714 0.89517 0.0
C1063 C 0.45966 0.51412 0.8935 0.0
C1064 C 0.46039 0.49912 0.87057 0.0
C1065 C 0.44851 0.50762 0.84878 0.0
C1066 C 0.43564 0.53061 0.8502 0.0
C1067 C 0.43529 0.54555 0.8737 0.0
H1068 H 0.75609 0.73433 0.21084 0.0
H1069 H 0.78928 0.80971 0.18885 0.0
H1070 H 0.80369 0.79002 0.14818 0.0
H1071 H 0.80324 0.69385 0.17565 0.0
H1072 H 0.77795 0.66933 0.16586 0.0
H1073 H 0.77565 0.68773 0.19608 0.0
H1074 H 0.73109 0.70145 0.18222 0.0
H1075 H 0.73325 0.68315 0.15208 0.0
H1076 H 0.72829 0.71714 0.1523 0.0
H1077 H 0.80706 0.7652 0.10715 0.0
H1078 H 0.79849 0.73642 0.06816 0.0
H1079 H 0.76241 0.67687 0.11475 0.0
C1080 C 0.76683 0.74665 0.19774 0.0
C1081 C 0.77179 0.77361 0.20349 0.0
C1082 C 0.78585 0.78892 0.18557 0.0
C1083 C 0.79408 0.77792 0.1622 0.0
C1084 C 0.78814 0.75153 0.15683 0.0
C1085 C 0.7749 0.73601 0.17407 0.0
C1086 C 0.76781 0.70904 0.16206 0.0
C1087 C 0.78202 0.68879 0.17573 0.0
C1088 C 0.73837 0.70233 0.16216 0.0
C1089 C 0.77787 0.71233 0.13496 0.0
C1090 C 0.79007 0.73686 0.1326 0.0
C1091 C 0.79829 0.74569 0.10887 0.0
C1092 C 0.79335 0.72929 0.08687 0.0
C1093 C 0.7805 0.7044 0.08881 0.0
C1094 C 0.77319 0.69552 0.11312 0.0
H1095 H 0.01146 0.03955 0.12607 0.0
H1096 H 0.00465 0.12156 0.11765 0.0
H1097 H 0.9749 0.12221 0.15458 0.0
H1098 H 0.94655 0.02244 0.14382 0.0
H1099 H 0.95475 -0.00016 0.16709 0.0
H1100 H 0.97546 0.00578 0.13992 0.0
H1101 H 0.01433 0.01822 0.17075 0.0
H1102 H 0.99379 0.0121 0.19802 0.0
H1103 H 0.01186 0.04314 0.19593 0.0
H1104 H 0.94481 0.11354 0.19191 0.0
H1105 H 0.91901 0.09673 0.22834 0.0
H1106 H 0.9474 0.02111 0.21329 0.0
C1107 C 0.00408 0.05777 0.13217 0.0
C1108 C 0.01036 0.08047 0.11879 0.0
C1109 C -0.00018 0.10378 0.12727 0.0
C1110 C 0.98299 0.1044 0.14832 0.0
C1111 C 0.97702 0.0816 0.16087 0.0
C1112 C 0.98744 0.05879 0.15326 0.0
C1113 C 0.97816 0.03703 0.17014 0.0
C1114 C 0.96282 0.01497 0.15429 0.0
C1115 C 0.00089 0.02704 0.18457 0.0
C1116 C 0.96082 0.05114 0.18839 0.0
C1117 C 0.96026 0.07679 0.18266 0.0
C1118 C 0.94521 0.09351 0.19667 0.0
C1119 C 0.93056 0.08379 0.21725 0.0
C1120 C 0.93126 0.05767 0.2237 0.0
C1121 C 0.94655 0.04122 0.20894 0.0
H1122 H 0.29616 0.78921 0.20042 0.0
H1123 H 0.22117 0.79458 0.23567 0.0
H1124 H 0.20889 0.82277 0.20146 0.0
H1125 H 0.3043 0.85521 0.17776 0.0
H1126 H 0.3192 0.84501 0.14806 0.0
H1127 H 0.3228 0.82731 0.17661 0.0
H1128 H 0.30451 0.785 0.15184 0.0
H1129 H 0.30079 0.80255 0.12328 0.0
H1130 H 0.27341 0.78394 0.13621 0.0
H1131 H 0.20428 0.849 0.16233 0.0
H1132 H 0.20698 0.86945 0.12031 0.0
H1133 H 0.28441 0.84537 0.11005 0.0
C1134 C 0.27736 0.79676 0.20115 0.0
C1135 C 0.25965 0.78997 0.2207 0.0
C1136 C 0.23497 0.79964 0.22078 0.0
C1137 C 0.22789 0.81571 0.20153 0.0
C1138 C 0.24567 0.82179 0.18227 0.0
C1139 C 0.26987 0.81254 0.18189 0.0
C1140 C 0.28472 0.82047 0.15815 0.0
C1141 C 0.3092 0.83805 0.1656 0.0
C1142 C 0.29123 0.79657 0.14139 0.0
C1143 C 0.26501 0.83535 0.14508 0.0
C1144 C 0.24273 0.8362 0.15942 0.0
C1145 C 0.22168 0.84854 0.15098 0.0
C1146 C 0.22338 0.86011 0.12711 0.0
C1147 C 0.24585 0.85896 0.11189 0.0
C1148 C 0.26694 0.84657 0.1212 0.0
H1149 H 0.99444 0.45199 0.09065 0.0
H1150 H -0.00151 0.52368 0.05106 0.0
H1151 H 0.03493 0.54137 0.07903 0.0
H1152 H 0.00339 0.48039 0.15174 0.0
H1153 H 0.02266 0.45649 0.16419 0.0
H1154 H 0.00024 0.44754 0.1382 0.0
H1155 H 0.03721 0.43086 0.11025 0.0
H1156 H 0.05981 0.43976 0.13625 0.0
H1157 H 0.06569 0.45216 0.10484 0.0
H1158 H 0.06558 0.55366 0.11446 0.0
H1159 H 0.08875 0.56026 0.15602 0.0
H1160 H 0.06602 0.48072 0.17343 0.0
C1161 C 0.00362 0.47108 0.0875 0.0
C1162 C 0.99399 0.48651 0.06872 0.0
C1163 C 0.0058 0.51167 0.06539 0.0
C1164 C 0.02655 0.52177 0.08104 0.0
C1165 C 0.03527 0.5064 0.09987 0.0
C1166 C 0.02431 0.48156 0.10318 0.0
C1167 C 0.03545 0.47037 0.12677 0.0
C1168 C 0.01417 0.4633 0.14638 0.0
C1169 C 0.05043 0.4469 0.11906 0.0
C1170 C 0.05352 0.49321 0.13677 0.0
C1171 C 0.05338 0.5136 0.12065 0.0
C1172 C 0.06636 0.53769 0.12695 0.0
C1173 C 0.07938 0.54128 0.15061 0.0
C1174 C 0.07939 0.52089 0.16765 0.0
C1175 C 0.06687 0.49636 0.16036 0.0
H1176 H 0.34567 0.77304 0.26058 0.0
H1177 H 0.29591 0.75654 0.32571 0.0
H1178 H 0.33388 0.75913 0.35442 0.0
H1179 H 0.39661 0.73656 0.27888 0.0
H1180 H 0.42236 0.75922 0.26881 0.0
H1181 H 0.39128 0.75753 0.25314 0.0
H1182 H 0.38832 0.80655 0.26374 0.0
H1183 H 0.41958 0.80848 0.27911 0.0
H1184 H 0.39222 0.8192 0.29664 0.0
H1185 H 0.37664 0.7602 0.37548 0.0
H1186 H 0.42222 0.7645 0.38907 0.0
H1187 H 0.44514 0.78183 0.31101 0.0
C1188 C 0.34282 0.7705 0.28097 0.0
C1189 C 0.3179 0.76434 0.29091 0.0
C1190 C 0.31489 0.76091 0.31766 0.0
C1191 C 0.33631 0.76237 0.33413 0.0
C1192 C 0.36065 0.76757 0.32364 0.0
C1193 C 0.36411 0.772 0.29781 0.0
C1194 C 0.39256 0.77698 0.29167 0.0
C1195 C 0.4012 0.75634 0.27196 0.0
C1196 C 0.39852 0.80444 0.28224 0.0
C1197 C 0.40442 0.77435 0.31803 0.0
C1198 C 0.3856 0.76878 0.33608 0.0
C1199 C 0.39161 0.76481 0.36161 0.0
C1200 C 0.41761 0.76716 0.3691 0.0
C1201 C 0.43732 0.77357 0.35116 0.0
C1202 C 0.43055 0.77697 0.32521 0.0
H1203 H 0.96334 0.39944 0.02451 0.0
H1204 H 0.93867 0.45256 0.96944 0.0
H1205 H 0.94591 0.42071 0.93381 0.0
H1206 H 0.01354 0.37566 0.98786 0.0
H1207 H 0.00803 0.34256 0.99686 0.0
H1208 H -0.00104 0.36851 0.01842 0.0
H1209 H 0.95205 0.34732 0.01941 0.0
H1210 H 0.96102 0.32114 0.99801 0.0
H1211 H 0.93467 0.33959 0.98955 0.0
H1212 H 0.9607 0.38602 0.90421 0.0
H1213 H 0.97768 0.3479 0.88202 0.0
H1214 H 0.99033 0.31535 0.9558 0.0
C1215 C 0.95909 0.40411 0.00495 0.0
C1216 C 0.95031 0.42836 -0.00033 0.0
C1217 C 0.94502 0.43393 0.97389 0.0
C1218 C 0.94921 0.41604 0.95354 0.0
C1219 C 0.95834 0.39253 0.95933 0.0
C1220 C 0.96279 0.38627 0.98439 0.0
C1221 C 0.97308 0.3598 0.98513 0.0
C1222 C 0.0 0.36177 0.99781 0.0
C1223 C 0.95406 0.34084 -0.00116 0.0
C1224 C 0.9744 0.35254 0.95654 0.0
C1225 C 0.96591 0.37181 0.94207 0.0
C1226 C 0.96696 0.37057 0.91528 0.0
C1227 C 0.97679 0.34895 0.90288 0.0
C1228 C 0.98512 0.3287 0.91723 0.0
C1229 C 0.98371 0.33043 0.9444 0.0
H1230 H 0.68043 0.81898 0.25355 0.0
H1231 H 0.70704 0.74607 0.27487 0.0
H1232 H 0.66451 0.73427 0.2946 0.0
H1233 H 0.64695 0.83246 0.3092 0.0
H1234 H 0.62065 0.84628 0.29374 0.0
H1235 H 0.65187 0.84738 0.27883 0.0
H1236 H 0.63157 0.82424 0.23725 0.0
H1237 H 0.60018 0.82321 0.25199 0.0
H1238 H 0.61249 0.79373 0.23922 0.0
H1239 H 0.62132 0.7337 0.31728 0.0
H1240 H 0.5799 0.74277 0.33796 0.0
H1241 H 0.58125 0.81505 0.29939 0.0
C1242 C 0.67704 0.80031 0.26193 0.0
C1243 C 0.69679 0.78337 0.2628 0.0
C1244 C 0.69192 0.75914 0.27392 0.0
C1245 C 0.66791 0.75235 0.28517 0.0
C1246 C 0.64897 0.76984 0.28461 0.0
C1247 C 0.65316 0.79313 0.27284 0.0
C1248 C 0.63025 0.80911 0.27583 0.0
C1249 C 0.6379 0.83535 0.29027 0.0
C1250 C 0.61789 0.81278 0.2495 0.0
C1251 C 0.61283 0.79164 0.29193 0.0
C1252 C 0.62386 0.76904 0.29679 0.0
C1253 C 0.61223 0.75105 0.31313 0.0
C1254 C 0.5888 0.75639 0.32485 0.0
C1255 C 0.57725 0.77942 0.31998 0.0
C1256 C 0.58932 0.797 0.30303 0.0
H1257 H 0.06528 0.12782 0.02335 0.0
H1258 H 0.98914 0.08739 0.02909 0.0
H1259 H 0.97354 0.11208 0.99379 0.0
H1260 H 0.04419 0.18892 0.01308 0.0
H1261 H 0.06881 0.19846 0.99027 0.0
H1262 H 0.07514 0.17571 0.01402 0.0
H1263 H 0.08694 0.1425 0.97791 0.0
H1264 H 0.0808 0.16524 0.95401 0.0
H1265 H 0.06423 0.13322 0.95211 0.0
H1266 H 0.96485 0.14343 0.96164 0.0
H1267 H 0.96361 0.1793 0.93266 0.0
H1268 H 0.04541 0.19995 0.9462 0.0
C1269 C 0.04552 0.12384 0.01668 0.0
C1270 C 0.02835 0.10575 0.02886 0.0
C1271 C 0.00249 0.10129 0.02005 0.0
C1272 C 0.99351 0.11512 -3e-05 0.0
C1273 C 0.01065 0.13328 0.98879 0.0
C1274 C 0.03615 0.13762 0.9966 0.0
C1275 C 0.04994 0.15947 0.98224 0.0
C1276 C 0.06011 0.18197 0.00103 0.0
C1277 C 0.07177 0.14951 0.96557 0.0
C1278 C 0.02799 0.16707 0.96566 0.0
C1279 C 0.0056 0.15152 0.96974 0.0
C1280 C 0.98232 0.15553 0.95798 0.0
C1281 C 0.9818 0.17606 0.94165 0.0
C1282 C 0.00442 0.19234 0.93711 0.0
C1283 C 0.02791 0.18758 0.94906 0.0
H1284 H 0.32275 0.33186 0.2486 0.0
H1285 H 0.29471 0.25364 0.26671 0.0
H1286 H 0.32687 0.23612 0.23744 0.0
H1287 H 0.33531 0.3153 0.17931 0.0
H1288 H 0.36353 0.338 0.1789 0.0
H1289 H 0.33711 0.34439 0.20005 0.0
H1290 H 0.36863 0.34894 0.23903 0.0
H1291 H 0.39506 0.34225 0.21811 0.0
H1292 H 0.38799 0.32268 0.2453 0.0
H1293 H 0.3656 0.22732 0.21109 0.0
H1294 H 0.40499 0.22759 0.18441 0.0
H1295 H 0.40529 0.31082 0.17967 0.0
C1296 C 0.32283 0.31103 0.2459 0.0
C1297 C 0.30638 0.29419 0.26035 0.0
C1298 C 0.30748 0.26703 0.25639 0.0
C1299 C 0.32558 0.25683 0.23965 0.0
C1300 C 0.34209 0.27398 0.22647 0.0
C1301 C 0.34052 0.30046 0.22888 0.0
C1302 C 0.36096 0.31459 0.2128 0.0
C1303 C 0.34848 0.32891 0.1915 0.0
C1304 C 0.37924 0.33321 0.22984 0.0
C1305 C 0.37468 0.29194 0.20162 0.0
C1306 C 0.36357 0.2687 0.2099 0.0
C1307 C 0.37413 0.24531 0.20397 0.0
C1308 C 0.39654 0.24565 0.18898 0.0
C1309 C 0.40784 0.26914 0.17978 0.0
C1310 C 0.39664 0.29253 0.18604 0.0
H1311 H 0.50297 0.44166 0.01556 0.0
H1312 H 0.53271 0.49056 0.08136 0.0
H1313 H 0.52952 0.45252 0.10807 0.0
H1314 H 0.45486 0.40617 0.05131 0.0
H1315 H 0.45747 0.37632 0.03248 0.0
H1316 H 0.4647 0.40688 0.01808 0.0
H1317 H 0.50998 0.39322 0.00531 0.0
H1318 H 0.50297 0.36268 0.01987 0.0
H1319 H 0.53118 0.38345 0.02983 0.0
H1320 H 0.52281 0.40849 0.12773 0.0
H1321 H 0.50858 0.36378 0.13953 0.0
H1322 H 0.47872 0.34609 0.06205 0.0
C1323 C 0.50854 0.44472 0.03563 0.0
C1324 C 0.51821 0.46937 0.04614 0.0
C1325 C 0.52577 0.47191 0.07251 0.0
C1326 C 0.5239 0.4504 0.08795 0.0
C1327 C 0.5141 0.42652 0.07689 0.0
C1328 C 0.50621 0.42371 0.05142 0.0
C1329 C 0.49466 0.39649 0.04451 0.0
C1330 C 0.46624 0.39647 0.03611 0.0
C1331 C 0.51066 0.38318 0.02365 0.0
C1332 C 0.49706 0.38441 0.07015 0.0
C1333 C 0.50881 0.40182 0.0885 0.0
C1334 C 0.51347 0.39476 0.11354 0.0
C1335 C 0.50544 0.36938 0.12005 0.0
C1336 C 0.49244 0.35173 0.10173 0.0
C1337 C 0.48843 0.35934 0.07647 0.0
H1338 H 0.64516 0.27221 0.27133 0.0
H1339 H 0.64355 0.18882 0.27683 0.0
H1340 H 0.60683 0.18282 0.24654 0.0
H1341 H 0.57787 0.27544 0.27089 0.0
H1342 H 0.57768 0.30041 0.24804 0.0
H1343 H 0.60561 0.29845 0.26817 0.0
H1344 H 0.63452 0.29562 0.22775 0.0
H1345 H 0.6067 0.29783 0.20745 0.0
H1346 H 0.62632 0.27097 0.20261 0.0
H1347 H 0.56807 0.18566 0.21954 0.0
H1348 H 0.531 0.19695 0.19425 0.0
H1349 H 0.55714 0.2786 0.20518 0.0
C1350 C 0.6373 0.25268 0.26585 0.0
C1351 C 0.64746 0.23097 0.27627 0.0
C1352 C 0.63656 0.20573 0.2687 0.0
C1353 C 0.61553 0.20212 0.25165 0.0
C1354 C 0.60565 0.22391 0.24221 0.0
C1355 C 0.61629 0.2487 0.24873 0.0
C1356 C 0.60126 0.26876 0.23647 0.0
C1357 C 0.58994 0.28682 0.25713 0.0
C1358 C 0.61822 0.2842 0.21744 0.0
C1359 C 0.5802 0.25133 0.22252 0.0
C1360 C 0.5832 0.22555 0.22616 0.0
C1361 C 0.56566 0.20575 0.21627 0.0
C1362 C 0.54457 0.21241 0.20204 0.0
C1363 C 0.54119 0.23866 0.19769 0.0
C1364 C 0.55933 0.25836 0.20804 0.0
H1365 H 0.432 0.12401 0.99305 0.0
H1366 H 0.50977 0.09972 0.9933 0.0
H1367 H 0.52436 0.13881 0.02054 0.0
H1368 H 0.45119 0.19489 0.99232 0.0
H1369 H 0.42489 0.20284 0.013 0.0
H1370 H 0.4213 0.1745 0.99125 0.0
H1371 H 0.40903 0.14602 0.02961 0.0
H1372 H 0.41266 0.17418 0.05145 0.0
H1373 H 0.43071 0.14675 0.05684 0.0
H1374 H 0.52877 0.17641 0.0528 0.0
H1375 H 0.52359 0.21214 0.08528 0.0
H1376 H 0.44373 0.214 0.06185 0.0
C1377 C 0.45219 0.12724 0.9985 0.0
C1378 C 0.46983 0.109 0.99114 0.0
C1379 C 0.49607 0.11368 0.99858 0.0
C1380 C 0.50449 0.13576 0.01405 0.0
C1381 C 0.48649 0.15314 0.02145 0.0
C1382 C 0.46097 0.14937 0.01359 0.0
C1383 C 0.44527 0.17029 0.02524 0.0
C1384 C 0.43506 0.1866 0.00419 0.0
C1385 C 0.42312 0.1586 0.04176 0.0
C1386 C 0.46571 0.18587 0.04171 0.0
C1387 C 0.48937 0.17565 0.03919 0.0
C1388 C 0.51056 0.18501 0.05443 0.0
C1389 C 0.50743 0.2052 0.07285 0.0
C1390 C 0.48343 0.21599 0.07559 0.0
C1391 C 0.46247 0.20652 0.05952 0.0
H1392 H 0.26269 0.37794 0.74714 0.0
H1393 H 0.32396 0.32686 0.73345 0.0
H1394 H 0.35588 0.36484 0.73474 0.0
H1395 H 0.28926 0.43183 0.71237 0.0
H1396 H 0.27938 0.45577 0.73587 0.0
H1397 H 0.26094 0.42482 0.73159 0.0
H1398 H 0.26617 0.41726 0.78019 0.0
H1399 H 0.28439 0.44827 0.78467 0.0
H1400 H 0.29806 0.41943 0.79426 0.0
H1401 H 0.38118 0.40837 0.73777 0.0
H1402 H 0.39865 0.45361 0.74716 0.0
H1403 H 0.32131 0.47551 0.76328 0.0
C1404 C 0.2828 0.37449 0.74471 0.0
C1405 C 0.29062 0.34917 0.74003 0.0
C1406 C 0.31724 0.34596 0.73648 0.0
C1407 C 0.33559 0.36744 0.7373 0.0
C1408 C 0.32711 0.392 0.74202 0.0
C1409 C 0.3014 0.39558 0.74604 0.0
C1410 C 0.29749 0.42379 0.75248 0.0
C1411 C 0.28078 0.43468 0.73184 0.0
C1412 C 0.28585 0.42739 0.7795 0.0
C1413 C 0.32511 0.43552 0.75169 0.0
C1414 C 0.34183 0.41692 0.74512 0.0
C1415 C 0.3683 0.42309 0.74299 0.0
C1416 C 0.378 0.44886 0.74826 0.0
C1417 C 0.36133 0.46804 0.75601 0.0
C1418 C 0.33451 0.46125 0.75747 0.0
H1419 H 0.24332 0.67343 0.83981 0.0
H1420 H 0.25093 0.70835 0.76593 0.0
H1421 H 0.28515 0.67954 0.75369 0.0
H1422 H 0.31054 0.66398 0.84975 0.0
H1423 H 0.30373 0.63314 0.86385 0.0
H1424 H 0.28085 0.65731 0.86696 0.0
H1425 H 0.24513 0.62447 0.8467 0.0
H1426 H 0.26789 0.60021 0.84354 0.0
H1427 H 0.25043 0.60871 0.81563 0.0
H1428 H 0.31913 0.64703 0.75014 0.0
H1429 H 0.34744 0.61133 0.75409 0.0
H1430 H 0.31535 0.59658 0.82946 0.0
C1431 C 0.25241 0.67516 0.82117 0.0
C1432 C 0.24483 0.69322 0.80387 0.0
C1433 C 0.25664 0.69461 0.77941 0.0
C1434 C 0.27609 0.67842 0.77238 0.0
C1435 C 0.28319 0.6608 0.78993 0.0
C1436 C 0.2715 0.65892 0.81372 0.0
C1437 C 0.28166 0.63762 0.82863 0.0
C1438 C 0.29499 0.64868 0.85378 0.0
C1439 C 0.25999 0.6165 0.83392 0.0
C1440 C 0.30095 0.62776 0.80956 0.0
C1441 C 0.30181 0.64153 0.78747 0.0
C1442 C 0.31852 0.63606 0.76732 0.0
C1443 C 0.33456 0.61582 0.76975 0.0
C1444 C 0.33346 0.60113 0.792 0.0
C1445 C 0.31648 0.60733 0.81213 0.0
H1446 H 0.88972 0.52546 0.44952 0.0
H1447 H 0.94246 0.50577 0.50871 0.0
H1448 H 0.90843 0.47482 0.52552 0.0
H1449 H 0.83456 0.52527 0.48974 0.0
H1450 H 0.81215 0.51206 0.46495 0.0
H1451 H 0.84121 0.53097 0.45637 0.0
H1452 H 0.85395 0.49311 0.42577 0.0
H1453 H 0.82484 0.47411 0.43416 0.0
H1454 H 0.85578 0.46149 0.43816 0.0
H1455 H 0.86853 0.44649 0.53592 0.0
H1456 H 0.82493 0.42448 0.54087 0.0
H1457 H 0.7976 0.46478 0.47631 0.0
C1458 C 0.89412 0.51429 0.46576 0.0
C1459 C 0.91863 0.51761 0.47773 0.0
C1460 C 0.92372 0.50326 0.49931 0.0
C1461 C 0.90459 0.48567 0.5089 0.0
C1462 C 0.88047 0.48298 0.49682 0.0
C1463 C 0.87513 0.49701 0.47582 0.0
C1464 C 0.84724 0.49167 0.46731 0.0
C1465 C 0.83295 0.51647 0.46975 0.0
C1466 C 0.84535 0.47936 0.43971 0.0
C1467 C 0.83768 0.4725 0.48684 0.0
C1468 C 0.85721 0.46751 0.50349 0.0
C1469 C 0.85307 0.45027 0.52303 0.0
C1470 C 0.82826 0.43785 0.52566 0.0
C1471 C 0.80787 0.44302 0.50906 0.0
C1472 C 0.81275 0.46059 0.48942 0.0
H1473 H 0.74184 0.85013 0.76913 0.0
H1474 H 0.79051 0.87301 0.83578 0.0
H1475 H 0.77041 0.91432 0.84071 0.0
H1476 H 0.74089 0.9162 0.7443 0.0
H1477 H 0.70756 0.91079 0.73428 0.0
H1478 H 0.72754 0.88402 0.73424 0.0
H1479 H 0.69448 0.85957 0.76344 0.0
H1480 H 0.67455 0.88633 0.76379 0.0
H1481 H 0.68556 0.87485 0.79371 0.0
H1482 H 0.74274 0.95061 0.84138 0.0
H1483 H 0.71036 0.98189 0.83631 0.0
H1484 H 0.6792 0.93698 0.76867 0.0
C1485 C 0.74862 0.86418 0.78432 0.0
C1486 C 0.7677 0.85848 0.80211 0.0
C1487 C 0.77583 0.87704 0.82206 0.0
C1488 C 0.76458 0.90055 0.82497 0.0
C1489 C 0.74529 0.90532 0.80768 0.0
C1490 C 0.73747 0.88788 0.78756 0.0
C1491 C 0.71534 0.89748 0.7726 0.0
C1492 C 0.72332 0.90242 0.7447 0.0
C1493 C 0.69105 0.87842 0.77345 0.0
C1494 C 0.71164 0.92268 0.78785 0.0
C1495 C 0.72925 0.92674 0.80793 0.0
C1496 C 0.72906 0.94786 0.82555 0.0
C1497 C 0.71045 0.96546 0.82257 0.0
C1498 C 0.69227 0.96195 0.80206 0.0
C1499 C 0.693 0.9403 0.78439 0.0
H1500 H 0.59319 0.52366 0.01067 0.0
H1501 H 0.54342 0.58492 0.02871 0.0
H1502 H 0.58157 0.61719 0.03037 0.0
H1503 H 0.64851 0.54934 0.04962 0.0
H1504 H 0.67159 0.53944 0.02603 0.0
H1505 H 0.64062 0.5213 0.02819 0.0
H1506 H 0.63218 0.52741 0.97977 0.0
H1507 H 0.66304 0.5457 0.9775 0.0
H1508 H 0.63405 0.55966 0.96816 0.0
H1509 H 0.62527 0.64238 0.03013 0.0
H1510 H 0.67086 0.65925 0.02549 0.0
H1511 H 0.69132 0.58156 0.00445 0.0
C1512 C 0.5905 0.54384 0.01537 0.0
C1513 C 0.56568 0.55198 0.02004 0.0
C1514 C 0.5625 0.57851 0.02541 0.0
C1515 C 0.58397 0.59686 0.02637 0.0
C1516 C 0.60828 0.58825 0.0215 0.0
C1517 C 0.61161 0.56239 0.01591 0.0
C1518 C 0.6395 0.55834 0.00996 0.0
C1519 C 0.65071 0.54109 0.02963 0.0
C1520 C 0.64235 0.54712 0.9822 0.0
C1521 C 0.6514 0.58595 0.0131 0.0
C1522 C 0.63315 0.60288 0.02005 0.0
C1523 C 0.6397 0.62933 0.02458 0.0
C1524 C 0.66561 0.63871 0.02193 0.0
C1525 C 0.68451 0.62172 0.01443 0.0
C1526 C 0.67721 0.59504 0.0099 0.0
H1527 H 0.22824 0.69908 0.22731 0.0
H1528 H 0.24254 0.7128 0.30952 0.0
H1529 H 0.21756 0.67161 0.31765 0.0
H1530 H 0.16165 0.67031 0.23396 0.0
H1531 H 0.16431 0.64736 0.20701 0.0
H1532 H 0.18292 0.67832 0.20766 0.0
H1533 H 0.22481 0.65499 0.20164 0.0
H1534 H 0.20639 0.62397 0.20134 0.0
H1535 H 0.23247 0.63144 0.22417 0.0
H1536 H 0.19401 0.6279 0.31684 0.0
H1537 H 0.16852 0.58617 0.30765 0.0
H1538 H 0.16685 0.60164 0.22631 0.0
C1539 C 0.22571 0.69366 0.24705 0.0
C1540 C 0.2377 0.709 0.26774 0.0
C1541 C 0.23406 0.70109 0.29329 0.0
C1542 C 0.2198 0.67779 0.29815 0.0
C1543 C 0.20893 0.66278 0.2773 0.0
C1544 C 0.21125 0.67054 0.25231 0.0
C1545 C 0.19743 0.65071 0.23347 0.0
C1546 C 0.17526 0.66238 0.21972 0.0
C1547 C 0.21641 0.63963 0.21401 0.0
C1548 C 0.1873 0.63051 0.2518 0.0
C1549 C 0.19436 0.63781 0.27695 0.0
C1550 C 0.18809 0.62204 0.29727 0.0
C1551 C 0.17376 0.5983 0.29181 0.0
C1552 C 0.16563 0.5907 0.26628 0.0
C1553 C 0.17265 0.60701 0.24603 0.0
H1554 H 0.89875 0.49978 0.99826 0.0
H1555 H 0.90679 0.50998 0.08151 0.0
H1556 H 0.87384 0.54151 0.08227 0.0
H1557 H 0.89048 0.56438 0.98586 0.0
H1558 H 0.8665 0.5569 0.96085 0.0
H1559 H 0.88997 0.53428 0.96679 0.0
H1560 H 0.85333 0.49822 0.97353 0.0
H1561 H 0.82972 0.52066 0.96731 0.0
H1562 H 0.82851 0.50385 0.99684 0.0
H1563 H 0.84245 0.57434 0.07364 0.0
H1564 H 0.81187 0.60331 0.05657 0.0
H1565 H 0.82236 0.56971 0.9794 0.0
C1566 C 0.89321 0.50814 0.01675 0.0
C1567 C 0.90558 0.50248 0.03981 0.0
C1568 C 0.89798 0.51432 0.06351 0.0
C1569 C 0.87916 0.53216 0.06417 0.0
C1570 C 0.86783 0.53773 0.04103 0.0
C1571 C 0.87426 0.52579 0.01781 0.0
C1572 C 0.85933 0.53539 0.99567 0.0
C1573 C 0.87767 0.54852 0.97615 0.0
C1574 C 0.84167 0.51321 0.98257 0.0
C1575 C 0.84381 0.55488 0.01004 0.0
C1576 C 0.84908 0.55603 0.03618 0.0
C1577 C 0.83792 0.5734 0.05325 0.0
C1578 C 0.82069 0.58986 0.04336 0.0
C1579 C 0.81465 0.58864 0.01671 0.0
C1580 C 0.82641 0.57089 -9e-05 0.0
H1581 H 0.0806 0.03517 0.03022 0.0
H1582 H 0.09714 0.05342 0.1115 0.0
H1583 H 0.13048 0.02234 0.11005 0.0
H1584 H 0.08982 0.96824 0.02893 0.0
H1585 H 0.10555 0.96764 0.99805 0.0
H1586 H 0.08256 0.991 0.00544 0.0
H1587 H 0.11675 0.02843 0.99551 0.0
H1588 H 0.13975 0.00517 0.98777 0.0
H1589 H 0.14756 0.03096 0.01185 0.0
H1590 H 0.16093 0.98774 0.10013 0.0
H1591 H 0.18948 0.95602 0.08128 0.0
H1592 H 0.15541 0.96325 0.00593 0.0
C1593 C 0.09145 0.03309 0.04768 0.0
C1594 C 0.08585 0.04668 0.07106 0.0
C1595 C 0.10047 0.04286 0.09346 0.0
C1596 C 0.11961 0.02533 0.09282 0.0
C1597 C 0.12426 0.01199 0.06956 0.0
C1598 C 0.11091 0.016 0.0473 0.0
C1599 C 0.12012 -0.00021 0.02461 0.0
C1600 C 0.0982 0.98053 0.01362 0.0
C1601 C 0.13174 0.01712 0.0037 0.0
C1602 C 0.14067 0.98592 0.03761 0.0
C1603 C 0.14256 0.99298 0.06361 0.0
C1604 C 0.15976 0.98222 0.07975 0.0
C1605 C 0.17579 0.96412 0.06891 0.0
C1606 C 0.17472 0.95727 0.04216 0.0
C1607 C 0.15678 0.96824 0.02643 0.0
loop_
_geom_bond_atom_site_label_1
_geom_bond_atom_site_label_2
_geom_bond_distance
_geom_bond_site_symmetry_2
_ccdc_geom_bond_type
H0 C3 0.931 . S
H1 C6 0.928 . S
H2 C8 0.930 . S
C3 H0 0.931 . S
C3 C4 1.413 . S
C3 C5 1.360 . S
C4 C3 1.413 . S
C4 C8 1.429 . S
C5 C3 1.360 . S
C5 C6 1.372 . S
C6 H1 0.928 . S
C6 C5 1.372 . S
C6 C7 1.404 . S
C7 C6 1.404 . S
C7 C8 1.391 . S
C8 H2 0.930 . S
C8 C4 1.429 . S
C8 C7 1.391 . S
H9 C12 0.931 . S
H10 C15 0.928 . S
H11 C17 0.930 . S
C12 H9 0.931 . S
C12 C13 1.413 . S
C12 C14 1.360 . S
C13 C12 1.413 . S
C13 C17 1.429 . S
C14 C12 1.360 . S
C14 C15 1.372 . S
C15 H10 0.928 . S
C15 C14 1.372 . S
C15 C16 1.404 . S
C16 C15 1.404 . S
C16 C17 1.391 . S
C17 H11 0.930 . S
C17 C13 1.429 . S
C17 C16 1.391 . S
H18 C21 0.931 . S
H19 C24 0.928 . S
H20 C26 0.930 . S
C21 H18 0.931 . S
C21 C22 1.413 . S
C21 C23 1.360 . S
C22 C21 1.413 . S
C22 C26 1.429 . S
C23 C21 1.360 . S
C23 C24 1.372 . S
C24 H19 0.928 . S
C24 C23 1.372 . S
C24 C25 1.404 . S
C25 C24 1.404 . S
C25 C26 1.391 . S
C26 H20 0.930 . S
C26 C22 1.429 . S
C26 C25 1.391 . S
H27 C30 0.931 . S
H28 C33 0.928 . S
H29 C35 0.930 . S
C30 H27 0.931 . S
C30 C31 1.413 . S
C30 C32 1.360 . S
C31 C30 1.413 . S
C31 C35 1.429 . S
C32 C30 1.360 . S
C32 C33 1.372 . S
C33 H28 0.928 . S
C33 C32 1.372 . S
C33 C34 1.404 . S
C34 C33 1.404 . S
C34 C35 1.391 . S
C35 H29 0.930 . S
C35 C31 1.429 . S
C35 C34 1.391 . S
H36 C39 0.931 . S
H37 C42 0.928 . S
H38 C44 0.930 . S
C39 H36 0.931 . S
C39 C40 1.413 . S
C39 C41 1.360 . S
C40 C39 1.413 . S
C40 C44 1.429 . S
C41 C39 1.360 . S
C41 C42 1.372 . S
C42 H37 0.928 . S
C42 C41 1.372 . S
C42 C43 1.404 . S
C43 C42 1.404 . S
C43 C44 1.391 . S
C44 H38 0.930 . S
C44 C40 1.429 . S
C44 C43 1.391 . S
H45 C48 0.931 . S
H46 C51 0.928 . S
H47 C53 0.930 . S
C48 H45 0.931 . S
C48 C49 1.413 . S
C48 C50 1.360 . S
C49 C48 1.413 . S
C49 C53 1.429 . S
C50 C48 1.360 . S
C50 C51 1.372 . S
C51 H46 0.928 . S
C51 C50 1.372 . S
C51 C52 1.404 . S
C52 C51 1.404 . S
C52 C53 1.391 . S
C53 H47 0.930 . S
C53 C49 1.429 . S
C53 C52 1.391 . S
H54 C57 0.931 . S
H55 C60 0.928 . S
H56 C62 0.930 . S
C57 H54 0.931 . S
C57 C58 1.413 . S
C57 C59 1.360 . S
C58 C57 1.413 . S
C58 C62 1.429 . S
C59 C57 1.360 . S
C59 C60 1.372 . S
C60 H55 0.928 . S
C60 C59 1.372 . S
C60 C61 1.404 . S
C61 C60 1.404 . S
C61 C62 1.391 . S
C62 H56 0.930 . S
C62 C58 1.429 . S
C62 C61 1.391 . S
H63 C66 0.931 . S
H64 C69 0.928 . S
H65 C71 0.930 . S
C66 H63 0.931 . S
C66 C67 1.413 . S
C66 C68 1.360 . S
C67 C66 1.413 . S
C67 C71 1.429 . S
C68 C66 1.360 . S
C68 C69 1.372 . S
C69 H64 0.928 . S
C69 C68 1.372 . S
C69 C70 1.404 . S
C70 C69 1.404 . S
C70 C71 1.391 . S
C71 H65 0.930 . S
C71 C67 1.429 . S
C71 C70 1.391 . S
H72 C75 0.931 . S
H73 C78 0.928 . S
H74 C80 0.930 . S
C75 H72 0.931 . S
C75 C76 1.413 . S
C75 C77 1.360 . S
C76 C75 1.413 . S
C76 C80 1.429 . S
C77 C75 1.360 . S
C77 C78 1.372 . S
C78 H73 0.928 . S
C78 C77 1.372 . S
C78 C79 1.404 . S
C79 C78 1.404 . S
C79 C80 1.391 . S
C80 H74 0.930 . S
C80 C76 1.429 . S
C80 C79 1.391 . S
H81 C84 0.931 . S
H82 C87 0.928 . S
H83 C89 0.930 . S
C84 H81 0.931 . S
C84 C85 1.413 . S
C84 C86 1.360 . S
C85 C84 1.413 . S
C85 C89 1.429 . S
C86 C84 1.360 . S
C86 C87 1.372 . S
C87 H82 0.928 . S
C87 C86 1.372 . S
C87 C88 1.404 . S
C88 C87 1.404 . S
C88 C89 1.391 . S
C89 H83 0.930 . S
C89 C85 1.429 . S
C89 C88 1.391 . S
H90 C93 0.931 . S
H91 C96 0.928 . S
H92 C98 0.930 . S
C93 H90 0.931 . S
C93 C94 1.413 . S
C93 C95 1.360 . S
C94 C93 1.413 . S
C94 C98 1.429 . S
C95 C93 1.360 . S
C95 C96 1.372 . S
C96 H91 0.928 . S
C96 C95 1.372 . S
C96 C97 1.404 . S
C97 C96 1.404 . S
C97 C98 1.391 . S
C98 H92 0.930 . S
C98 C94 1.429 . S
C98 C97 1.391 . S
H99 C102 0.931 . S
H100 C105 0.928 . S
H101 C107 0.930 . S
C102 H99 0.931 . S
C102 C103 1.413 . S
C102 C104 1.360 . S
C103 C102 1.413 . S
C103 C107 1.429 . S
C104 C102 1.360 . S
C104 C105 1.372 . S
C105 H100 0.928 . S
C105 C104 1.372 . S
C105 C106 1.404 . S
C106 C105 1.404 . S
C106 C107 1.391 . S
C107 H101 0.930 . S
C107 C103 1.429 . S
C107 C106 1.391 . S
H108 C111 0.931 . S
H109 C114 0.928 . S
H110 C116 0.930 . S
C111 H108 0.931 . S
C111 C112 1.413 . S
C111 C113 1.360 . S
C112 C111 1.413 . S
C112 C116 1.429 . S
C113 C111 1.360 . S
C113 C114 1.372 . S
C114 H109 0.928 . S
C114 C113 1.372 . S
C114 C115 1.404 . S
C115 C114 1.404 . S
C115 C116 1.391 . S
C116 H110 0.930 . S
C116 C112 1.429 . S
C116 C115 1.391 . S
H117 C120 0.931 . S
H118 C123 0.928 . S
H119 C125 0.930 . S
C120 H117 0.931 . S
C120 C121 1.413 . S
C120 C122 1.360 . S
C121 C120 1.413 . S
C121 C125 1.429 . S
C122 C120 1.360 . S
C122 C123 1.372 . S
C123 H118 0.928 . S
C123 C122 1.372 . S
C123 C124 1.404 . S
C124 C123 1.404 . S
C124 C125 1.391 . S
C125 H119 0.930 . S
C125 C121 1.429 . S
C125 C124 1.391 . S
H126 C129 0.931 . S
H127 C132 0.928 . S
H128 C134 0.930 . S
C129 H126 0.931 . S
C129 C130 1.413 . S
C129 C131 1.360 . S
C130 C129 1.413 . S
C130 C134 1.429 . S
C131 C129 1.360 . S
C131 C132 1.372 . S
C132 H127 0.928 . S
C132 C131 1.372 . S
C132 C133 1.404 . S
C133 C132 1.404 . S
C133 C134 1.391 . S
C134 H128 0.930 . S
C134 C130 1.429 . S
C134 C133 1.391 . S
H135 C138 0.931 . S
H136 C141 0.928 . S
H137 C143 0.930 . S
C138 H135 0.931 . S
C138 C139 1.413 . S
C138 C140 1.360 . S
C139 C138 1.413 . S
C139 C143 1.429 . S
C140 C138 1.360 . S
C140 C141 1.372 . S
C141 H136 0.928 . S
C141 C140 1.372 . S
C141 C142 1.404 . S
C142 C141 1.404 . S
C142 C143 1.391 . S
C143 H137 0.930 . S
C143 C139 1.429 . S
C143 C142 1.391 . S
O144 Cd145 2.223 . S
O144 C152 1.315 . S
Cd145 O144 2.223 . S
Cd145 O148 2.297 . S
Cd145 O149 2.439 . S
Cd145 O155 2.240 . S
Cd146 O147 2.240 . S
Cd146 O154 2.223 . S
Cd146 O156 2.297 . S
Cd146 O157 2.439 . S
O147 Cd146 2.240 . S
O147 C152 1.279 . S
O148 Cd145 2.297 . S
O148 C150 1.247 . S
O149 Cd145 2.439 . S
O149 C150 1.208 . S
C150 O148 1.247 . S
C150 O149 1.208 . S
C151 O156 1.247 . S
C151 O157 1.208 . S
C152 O144 1.315 . S
C152 O147 1.279 . S
C153 O154 1.315 . S
C153 O155 1.279 . S
O154 Cd146 2.223 . S
O154 C153 1.315 . S
O155 Cd145 2.240 . S
O155 C153 1.279 . S
O156 Cd146 2.297 . S
O156 C151 1.247 . S
O157 Cd146 2.439 . S
O157 C151 1.208 . S
O158 Cd159 2.223 . S
O158 C166 1.315 . S
Cd159 O158 2.223 . S
Cd159 O162 2.297 . S
Cd159 O163 2.439 . S
Cd159 O169 2.240 . S
Cd160 O161 2.240 . S
Cd160 O168 2.223 . S
Cd160 O170 2.297 . S
Cd160 O171 2.439 . S
O161 Cd160 2.240 . S
O161 C166 1.279 . S
O162 Cd159 2.297 . S
O162 C164 1.247 . S
O163 Cd159 2.439 . S
O163 C164 1.208 . S
C164 O162 1.247 . S
C164 O163 1.208 . S
C165 O170 1.247 . S
C165 O171 1.208 . S
C166 O158 1.315 . S
C166 O161 1.279 . S
C167 O168 1.315 . S
C167 O169 1.279 . S
O168 Cd160 2.223 . S
O168 C167 1.315 . S
O169 Cd159 2.240 . S
O169 C167 1.279 . S
O170 Cd160 2.297 . S
O170 C165 1.247 . S
O171 Cd160 2.439 . S
O171 C165 1.208 . S
O172 Cd173 2.223 1_556 S
O172 C180 1.315 . S
Cd173 O172 2.223 1_554 S
Cd173 O176 2.297 . S
Cd173 O177 2.439 . S
Cd173 O183 2.240 . S
Cd174 O175 2.240 . S
Cd174 O182 2.223 . S
Cd174 O184 2.297 1_556 S
Cd174 O185 2.439 1_556 S
O175 Cd174 2.240 . S
O175 C180 1.279 . S
O176 Cd173 2.297 . S
O176 C178 1.247 . S
O177 Cd173 2.439 . S
O177 C178 1.208 . S
C178 O176 1.247 . S
C178 O177 1.208 . S
C179 O184 1.247 . S
C179 O185 1.208 . S
C180 O172 1.315 . S
C180 O175 1.279 . S
C181 O182 1.315 . S
C181 O183 1.279 1_556 S
O182 Cd174 2.223 . S
O182 C181 1.315 . S
O183 Cd173 2.240 . S
O183 C181 1.279 1_554 S
O184 Cd174 2.297 1_554 S
O184 C179 1.247 . S
O185 Cd174 2.439 1_554 S
O185 C179 1.208 . S
O186 Cd187 2.223 . S
O186 C194 1.315 . S
Cd187 O186 2.223 . S
Cd187 O190 2.297 . S
Cd187 O191 2.439 . S
Cd187 O197 2.240 . S
Cd188 O189 2.240 . S
Cd188 O196 2.223 . S
Cd188 O198 2.297 . S
Cd188 O199 2.439 . S
O189 Cd188 2.240 . S
O189 C194 1.279 . S
O190 Cd187 2.297 . S
O190 C192 1.247 . S
O191 Cd187 2.439 . S
O191 C192 1.208 . S
C192 O190 1.247 . S
C192 O191 1.208 . S
C193 O198 1.247 . S
C193 O199 1.208 . S
C194 O186 1.315 . S
C194 O189 1.279 . S
C195 O196 1.315 . S
C195 O197 1.279 . S
O196 Cd188 2.223 . S
O196 C195 1.315 . S
O197 Cd187 2.240 . S
O197 C195 1.279 . S
O198 Cd188 2.297 . S
O198 C193 1.247 . S
O199 Cd188 2.439 . S
O199 C193 1.208 . S
O200 Cd201 2.223 . S
O200 C208 1.315 . S
Cd201 O200 2.223 . S
Cd201 O204 2.297 . S
Cd201 O205 2.439 . S
Cd201 O211 2.240 . S
Cd202 O203 2.240 . S
Cd202 O210 2.223 . S
Cd202 O212 2.297 . S
Cd202 O213 2.439 . S
O203 Cd202 2.240 . S
O203 C208 1.279 . S
O204 Cd201 2.297 . S
O204 C206 1.247 . S
O205 Cd201 2.439 . S
O205 C206 1.208 . S
C206 O204 1.247 . S
C206 O205 1.208 . S
C207 O212 1.247 . S
C207 O213 1.208 . S
C208 O200 1.315 . S
C208 O203 1.279 . S
C209 O210 1.315 . S
C209 O211 1.279 . S
O210 Cd202 2.223 . S
O210 C209 1.315 . S
O211 Cd201 2.240 . S
O211 C209 1.279 . S
O212 Cd202 2.297 . S
O212 C207 1.247 . S
O213 Cd202 2.439 . S
O213 C207 1.208 . S
O214 Cd215 2.223 . S
O214 C222 1.315 . S
Cd215 O214 2.223 . S
Cd215 O218 2.297 . S
Cd215 O219 2.439 . S
Cd215 O225 2.240 . S
Cd216 O217 2.240 . S
Cd216 O224 2.223 . S
Cd216 O226 2.297 . S
Cd216 O227 2.439 . S
O217 Cd216 2.240 . S
O217 C222 1.279 . S
O218 Cd215 2.297 . S
O218 C220 1.247 . S
O219 Cd215 2.439 . S
O219 C220 1.208 . S
C220 O218 1.247 . S
C220 O219 1.208 . S
C221 O226 1.247 . S
C221 O227 1.208 . S
C222 O214 1.315 . S
C222 O217 1.279 . S
C223 O224 1.315 . S
C223 O225 1.279 . S
O224 Cd216 2.223 . S
O224 C223 1.315 . S
O225 Cd215 2.240 . S
O225 C223 1.279 . S
O226 Cd216 2.297 . S
O226 C221 1.247 . S
O227 Cd216 2.439 . S
O227 C221 1.208 . S
O228 Cd229 2.223 . S
O228 C236 1.315 . S
Cd229 O228 2.223 . S
Cd229 O232 2.297 . S
Cd229 O233 2.439 . S
Cd229 O239 2.240 . S
Cd230 O231 2.240 . S
Cd230 O238 2.223 . S
Cd230 O240 2.297 . S
Cd230 O241 2.439 . S
O231 Cd230 2.240 . S
O231 C236 1.279 . S
O232 Cd229 2.297 . S
O232 C234 1.247 . S
O233 Cd229 2.439 . S
O233 C234 1.208 . S
C234 O232 1.247 . S
C234 O233 1.208 . S
C235 O240 1.247 . S
C235 O241 1.208 . S
C236 O228 1.315 . S
C236 O231 1.279 . S
C237 O238 1.315 . S
C237 O239 1.279 . S
O238 Cd230 2.223 . S
O238 C237 1.315 . S
O239 Cd229 2.240 . S
O239 C237 1.279 . S
O240 Cd230 2.297 . S
O240 C235 1.247 . S
O241 Cd230 2.439 . S
O241 C235 1.208 . S
O242 Cd243 2.223 1_545 S
O242 C250 1.315 . S
Cd243 O242 2.223 1_565 S
Cd243 O246 2.297 . S
Cd243 O247 2.439 . S
Cd243 O253 2.240 1_565 S
Cd244 O245 2.240 . S
Cd244 O252 2.223 . S
Cd244 O254 2.297 . S
Cd244 O255 2.439 1_545 S
O245 Cd244 2.240 . S
O245 C250 1.279 . S
O246 Cd243 2.297 . S
O246 C248 1.247 . S
O247 Cd243 2.439 . S
O247 C248 1.208 . S
C248 O246 1.247 . S
C248 O247 1.208 . S
C249 O254 1.247 1_565 S
C249 O255 1.208 . S
C250 O242 1.315 . S
C250 O245 1.279 . S
C251 O252 1.315 . S
C251 O253 1.279 . S
O252 Cd244 2.223 . S
O252 C251 1.315 . S
O253 Cd243 2.240 1_545 S
O253 C251 1.279 . S
O254 Cd244 2.297 . S
O254 C249 1.247 1_545 S
O255 Cd244 2.439 1_565 S
O255 C249 1.208 . S
O256 Cd257 2.223 . S
O256 C264 1.315 . S
Cd257 O256 2.223 . S
Cd257 O260 2.297 1_655 S
Cd257 O261 2.439 1_655 S
Cd257 O267 2.240 . S
Cd258 O259 2.240 . S
Cd258 O266 2.223 1_455 S
Cd258 O268 2.297 . S
Cd258 O269 2.439 . S
O259 Cd258 2.240 . S
O259 C264 1.279 1_455 S
O260 Cd257 2.297 1_455 S
O260 C262 1.247 . S
O261 Cd257 2.439 1_455 S
O261 C262 1.208 . S
C262 O260 1.247 . S
C262 O261 1.208 . S
C263 O268 1.247 . S
C263 O269 1.208 . S
C264 O256 1.315 . S
C264 O259 1.279 1_655 S
C265 O266 1.315 . S
C265 O267 1.279 . S
O266 Cd258 2.223 1_655 S
O266 C265 1.315 . S
O267 Cd257 2.240 . S
O267 C265 1.279 . S
O268 Cd258 2.297 . S
O268 C263 1.247 . S
O269 Cd258 2.439 . S
O269 C263 1.208 . S
O270 Cd271 2.223 . S
O270 C278 1.315 . S
Cd271 O270 2.223 . S
Cd271 O274 2.297 . S
Cd271 O275 2.439 . S
Cd271 O281 2.240 . S
Cd272 O273 2.240 . S
Cd272 O280 2.223 . S
Cd272 O282 2.297 . S
Cd272 O283 2.439 . S
O273 Cd272 2.240 . S
O273 C278 1.279 . S
O274 Cd271 2.297 . S
O274 C276 1.247 . S
O275 Cd271 2.439 . S
O275 C276 1.208 . S
C276 O274 1.247 . S
C276 O275 1.208 . S
C277 O282 1.247 . S
C277 O283 1.208 . S
C278 O270 1.315 . S
C278 O273 1.279 . S
C279 O280 1.315 . S
C279 O281 1.279 . S
O280 Cd272 2.223 . S
O280 C279 1.315 . S
O281 Cd271 2.240 . S
O281 C279 1.279 . S
O282 Cd272 2.297 . S
O282 C277 1.247 . S
O283 Cd272 2.439 . S
O283 C277 1.208 . S
O284 Cd285 2.223 1_655 S
O284 C292 1.315 . S
Cd285 O284 2.223 1_455 S
Cd285 O288 2.297 . S
Cd285 O289 2.439 . S
Cd285 O295 2.240 . S
Cd286 O287 2.240 . S
Cd286 O294 2.223 . S
Cd286 O296 2.297 1_655 S
Cd286 O297 2.439 1_655 S
O287 Cd286 2.240 . S
O287 C292 1.279 . S
O288 Cd285 2.297 . S
O288 C290 1.247 . S
O289 Cd285 2.439 . S
O289 C290 1.208 . S
C290 O288 1.247 . S
C290 O289 1.208 . S
C291 O296 1.247 . S
C291 O297 1.208 . S
C292 O284 1.315 . S
C292 O287 1.279 . S
C293 O294 1.315 . S
C293 O295 1.279 1_655 S
O294 Cd286 2.223 . S
O294 C293 1.315 . S
O295 Cd285 2.240 . S
O295 C293 1.279 1_455 S
O296 Cd286 2.297 1_455 S
O296 C291 1.247 . S
O297 Cd286 2.439 1_455 S
O297 C291 1.208 . S
O298 Cd299 2.223 . S
O298 C306 1.315 . S
Cd299 O298 2.223 . S
Cd299 O302 2.297 . S
Cd299 O303 2.439 . S
Cd299 O309 2.240 . S
Cd300 O301 2.240 . S
Cd300 O308 2.223 . S
Cd300 O310 2.297 . S
Cd300 O311 2.439 . S
O301 Cd300 2.240 . S
O301 C306 1.279 . S
O302 Cd299 2.297 . S
O302 C304 1.247 . S
O303 Cd299 2.439 . S
O303 C304 1.208 . S
C304 O302 1.247 . S
C304 O303 1.208 . S
C305 O310 1.247 . S
C305 O311 1.208 . S
C306 O298 1.315 . S
C306 O301 1.279 . S
C307 O308 1.315 . S
C307 O309 1.279 . S
O308 Cd300 2.223 . S
O308 C307 1.315 . S
O309 Cd299 2.240 . S
O309 C307 1.279 . S
O310 Cd300 2.297 . S
O310 C305 1.247 . S
O311 Cd300 2.439 . S
O311 C305 1.208 . S
H312 C324 0.930 . S
H313 C326 0.930 . S
H314 C327 0.930 . S
H315 C331 0.959 . S
H316 C331 0.959 . S
H317 C331 0.961 . S
H318 C332 0.960 . S
H319 C332 0.961 . S
H320 C332 0.959 . S
H321 C335 0.929 . S
H322 C336 0.931 1_554 S
H323 C338 0.930 . S
C324 H312 0.930 . S
C324 C325 1.399 . S
C324 C329 1.399 . S
C325 C324 1.399 . S
C325 C326 1.376 . S
C326 H313 0.930 . S
C326 C325 1.376 . S
C326 C327 1.388 . S
C327 H314 0.930 . S
C327 C326 1.388 . S
C327 C328 1.390 . S
C328 C327 1.390 . S
C328 C329 1.394 . S
C328 C334 1.465 . S
C329 C324 1.399 . S
C329 C328 1.394 . S
C329 C330 1.516 . S
C330 C329 1.516 . S
C330 C331 1.502 . S
C330 C332 1.561 . S
C330 C333 1.526 . S
C331 H315 0.959 . S
C331 H316 0.959 . S
C331 H317 0.961 . S
C331 C330 1.502 . S
C332 H318 0.960 . S
C332 H319 0.961 . S
C332 H320 0.959 . S
C332 C330 1.561 . S
C333 C330 1.526 . S
C333 C334 1.396 . S
C333 C338 1.390 . S
C334 C328 1.465 . S
C334 C333 1.396 . S
C334 C335 1.399 . S
C335 H321 0.929 . S
C335 C334 1.399 . S
C335 C336 1.385 . S
C336 H322 0.931 1_556 S
C336 C335 1.385 . S
C336 C337 1.389 . S
C337 C336 1.389 . S
C337 C338 1.387 . S
C338 H323 0.930 . S
C338 C333 1.390 . S
C338 C337 1.387 . S
H339 C351 0.930 . S
H340 C353 0.930 . S
H341 C354 0.930 . S
H342 C358 0.959 . S
H343 C358 0.959 . S
H344 C358 0.961 . S
H345 C359 0.981 . S
H346 C359 0.936 1_455 S
H347 C359 0.978 . S
H348 C362 0.929 . S
H349 C363 0.931 . S
H350 C365 0.930 . S
C351 H339 0.930 . S
C351 C352 1.399 . S
C351 C356 1.399 . S
C352 C351 1.399 . S
C352 C353 1.376 . S
C353 H340 0.930 . S
C353 C352 1.376 . S
C353 C354 1.388 . S
C354 H341 0.930 . S
C354 C353 1.388 . S
C354 C355 1.390 . S
C355 C354 1.390 . S
C355 C356 1.394 . S
C355 C361 1.465 1_655 S
C356 C351 1.399 . S
C356 C355 1.394 . S
C356 C357 1.516 1_655 S
C357 C356 1.516 1_455 S
C357 C358 1.502 . S
C357 C359 1.547 1_455 S
C357 C360 1.526 . S
C358 H342 0.959 . S
C358 H343 0.959 . S
C358 H344 0.961 . S
C358 C357 1.502 . S
C359 H345 0.981 . S
C359 H346 0.936 1_655 S
C359 H347 0.978 . S
C359 C357 1.547 1_655 S
C360 C357 1.526 . S
C360 C361 1.396 . S
C360 C365 1.390 . S
C361 C355 1.465 1_455 S
C361 C360 1.396 . S
C361 C362 1.399 . S
C362 H348 0.929 . S
C362 C361 1.399 . S
C362 C363 1.385 . S
C363 H349 0.931 . S
C363 C362 1.385 . S
C363 C364 1.389 . S
C364 C363 1.389 . S
C364 C365 1.387 . S
C365 H350 0.930 . S
C365 C360 1.390 . S
C365 C364 1.387 . S
H366 C378 0.930 . S
H367 C380 0.930 . S
H368 C381 0.930 . S
H369 C385 0.959 . S
H370 C385 0.959 . S
H371 C385 0.961 . S
H372 C386 0.960 . S
H373 C386 0.961 . S
H374 C386 0.959 . S
H375 C389 0.929 . S
H376 C390 0.931 . S
H377 C392 0.930 . S
C378 H366 0.930 . S
C378 C379 1.399 . S
C378 C383 1.399 . S
C379 C378 1.399 . S
C379 C380 1.376 . S
C380 H367 0.930 . S
C380 C379 1.376 . S
C380 C381 1.388 . S
C381 H368 0.930 . S
C381 C380 1.388 . S
C381 C382 1.390 . S
C382 C381 1.390 . S
C382 C383 1.394 . S
C382 C388 1.465 . S
C383 C378 1.399 . S
C383 C382 1.394 . S
C383 C384 1.516 . S
C384 C383 1.516 . S
C384 C385 1.502 . S
C384 C386 1.561 . S
C384 C387 1.526 . S
C385 H369 0.959 . S
C385 H370 0.959 . S
C385 H371 0.961 . S
C385 C384 1.502 . S
C386 H372 0.960 . S
C386 H373 0.961 . S
C386 H374 0.959 . S
C386 C384 1.561 . S
C387 C384 1.526 . S
C387 C388 1.396 . S
C387 C392 1.390 . S
C388 C382 1.465 . S
C388 C387 1.396 . S
C388 C389 1.399 . S
C389 H375 0.929 . S
C389 C388 1.399 . S
C389 C390 1.385 . S
C390 H376 0.931 . S
C390 C389 1.385 . S
C390 C391 1.389 . S
C391 C390 1.389 . S
C391 C392 1.387 . S
C392 H377 0.930 . S
C392 C387 1.390 . S
C392 C391 1.387 . S
H393 C405 0.930 . S
H394 C407 0.930 . S
H395 C408 0.930 1_645 S
H396 C412 0.959 1_545 S
H397 C412 0.959 . S
H398 C412 0.961 . S
H399 C413 0.960 . S
H400 C413 0.961 . S
H401 C413 0.959 . S
H402 C416 0.929 . S
H403 C417 0.931 . S
H404 C419 0.930 1_565 S
C405 H393 0.930 . S
C405 C406 1.399 . S
C405 C410 1.399 . S
C406 C405 1.399 . S
C406 C407 1.376 . S
C407 H394 0.930 . S
C407 C406 1.376 . S
C407 C408 1.388 . S
C408 H395 0.930 1_465 S
C408 C407 1.388 . S
C408 C409 1.390 1_455 S
C409 C408 1.390 1_655 S
C409 C410 1.394 1_655 S
C409 C415 1.465 1_565 S
C410 C405 1.399 . S
C410 C409 1.394 1_455 S
C410 C411 1.516 1_455 S
C411 C410 1.516 1_655 S
C411 C412 1.502 1_655 S
C411 C413 1.561 . S
C411 C414 1.526 . S
C412 H396 0.959 1_565 S
C412 H397 0.959 . S
C412 H398 0.961 . S
C412 C411 1.502 1_455 S
C413 H399 0.960 . S
C413 H400 0.961 . S
C413 H401 0.959 . S
C413 C411 1.561 . S
C414 C411 1.526 . S
C414 C415 1.396 1_565 S
C414 C419 1.390 1_565 S
C415 C409 1.465 1_545 S
C415 C414 1.396 1_545 S
C415 C416 1.399 . S
C416 H402 0.929 . S
C416 C415 1.399 . S
C416 C417 1.385 . S
C417 H403 0.931 . S
C417 C416 1.385 . S
C417 C418 1.389 . S
C418 C417 1.389 . S
C418 C419 1.387 . S
C419 H404 0.930 1_545 S
C419 C414 1.390 1_545 S
C419 C418 1.387 . S
H420 C432 0.930 . S
H421 C434 0.930 . S
H422 C435 0.930 . S
H423 C439 0.959 . S
H424 C439 0.959 . S
H425 C439 0.961 . S
H426 C440 0.960 . S
H427 C440 0.961 . S
H428 C440 0.959 . S
H429 C443 0.929 . S
H430 C444 0.931 . S
H431 C446 0.930 . S
C432 H420 0.930 . S
C432 C433 1.399 . S
C432 C437 1.399 . S
C433 C432 1.399 . S
C433 C434 1.376 . S
C434 H421 0.930 . S
C434 C433 1.376 . S
C434 C435 1.388 . S
C435 H422 0.930 . S
C435 C434 1.388 . S
C435 C436 1.390 . S
C436 C435 1.390 . S
C436 C437 1.394 . S
C436 C442 1.465 . S
C437 C432 1.399 . S
C437 C436 1.394 . S
C437 C438 1.516 . S
C438 C437 1.516 . S
C438 C439 1.502 . S
C438 C440 1.561 . S
C438 C441 1.526 . S
C439 H423 0.959 . S
C439 H424 0.959 . S
C439 H425 0.961 . S
C439 C438 1.502 . S
C440 H426 0.960 . S
C440 H427 0.961 . S
C440 H428 0.959 . S
C440 C438 1.561 . S
C441 C438 1.526 . S
C441 C442 1.396 . S
C441 C446 1.390 . S
C442 C436 1.465 . S
C442 C441 1.396 . S
C442 C443 1.399 . S
C443 H429 0.929 . S
C443 C442 1.399 . S
C443 C444 1.385 . S
C444 H430 0.931 . S
C444 C443 1.385 . S
C444 C445 1.389 . S
C445 C444 1.389 . S
C445 C446 1.387 . S
C446 H431 0.930 . S
C446 C441 1.390 . S
C446 C445 1.387 . S
H447 C459 0.930 . S
H448 C461 0.930 . S
H449 C462 0.930 . S
H450 C466 0.959 . S
H451 C466 0.959 . S
H452 C466 0.961 . S
H453 C467 0.960 . S
H454 C467 0.961 . S
H455 C467 0.959 . S
H456 C470 0.929 . S
H457 C471 0.931 . S
H458 C473 0.930 . S
C459 H447 0.930 . S
C459 C460 1.399 . S
C459 C464 1.399 . S
C460 C459 1.399 . S
C460 C461 1.376 . S
C461 H448 0.930 . S
C461 C460 1.376 . S
C461 C462 1.388 . S
C462 H449 0.930 . S
C462 C461 1.388 . S
C462 C463 1.390 . S
C463 C462 1.390 . S
C463 C464 1.394 . S
C463 C469 1.465 . S
C464 C459 1.399 . S
C464 C463 1.394 . S
C464 C465 1.516 . S
C465 C464 1.516 . S
C465 C466 1.502 . S
C465 C467 1.561 . S
C465 C468 1.526 . S
C466 H450 0.959 . S
C466 H451 0.959 . S
C466 H452 0.961 . S
C466 C465 1.502 . S
C467 H453 0.960 . S
C467 H454 0.961 . S
C467 H455 0.959 . S
C467 C465 1.561 . S
C468 C465 1.526 . S
C468 C469 1.396 . S
C468 C473 1.390 . S
C469 C463 1.465 . S
C469 C468 1.396 . S
C469 C470 1.399 . S
C470 H456 0.929 . S
C470 C469 1.399 . S
C470 C471 1.385 . S
C471 H457 0.931 . S
C471 C470 1.385 . S
C471 C472 1.389 . S
C472 C471 1.389 . S
C472 C473 1.387 . S
C473 H458 0.930 . S
C473 C468 1.390 . S
C473 C472 1.387 . S
H474 C486 0.930 . S
H475 C488 0.930 . S
H476 C489 0.930 . S
H477 C493 0.959 . S
H478 C493 0.959 . S
H479 C493 0.961 . S
H480 C494 0.960 . S
H481 C494 0.961 . S
H482 C494 0.959 . S
H483 C497 0.929 . S
H484 C498 0.931 . S
H485 C500 0.930 . S
C486 H474 0.930 . S
C486 C487 1.399 . S
C486 C491 1.399 . S
C487 C486 1.399 . S
C487 C488 1.376 . S
C488 H475 0.930 . S
C488 C487 1.376 . S
C488 C489 1.388 . S
C489 H476 0.930 . S
C489 C488 1.388 . S
C489 C490 1.390 . S
C490 C489 1.390 . S
C490 C491 1.394 . S
C490 C496 1.465 . S
C491 C486 1.399 . S
C491 C490 1.394 . S
C491 C492 1.516 . S
C492 C491 1.516 . S
C492 C493 1.502 . S
C492 C494 1.561 . S
C492 C495 1.526 . S
C493 H477 0.959 . S
C493 H478 0.959 . S
C493 H479 0.961 . S
C493 C492 1.502 . S
C494 H480 0.960 . S
C494 H481 0.961 . S
C494 H482 0.959 . S
C494 C492 1.561 . S
C495 C492 1.526 . S
C495 C496 1.396 . S
C495 C500 1.390 . S
C496 C490 1.465 . S
C496 C495 1.396 . S
C496 C497 1.399 . S
C497 H483 0.929 . S
C497 C496 1.399 . S
C497 C498 1.385 . S
C498 H484 0.931 . S
C498 C497 1.385 . S
C498 C499 1.389 . S
C499 C498 1.389 . S
C499 C500 1.387 . S
C500 H485 0.930 . S
C500 C495 1.390 . S
C500 C499 1.387 . S
H501 C513 0.930 . S
H502 C515 0.930 . S
H503 C516 0.930 . S
H504 C520 0.959 . S
H505 C520 0.959 . S
H506 C520 0.961 . S
H507 C521 0.960 . S
H508 C521 0.961 . S
H509 C521 0.959 . S
H510 C524 0.929 1_545 S
H511 C525 0.931 1_545 S
H512 C527 0.930 . S
C513 H501 0.930 . S
C513 C514 1.399 . S
C513 C518 1.399 . S
C514 C513 1.399 . S
C514 C515 1.376 . S
C515 H502 0.930 . S
C515 C514 1.376 . S
C515 C516 1.388 . S
C516 H503 0.930 . S
C516 C515 1.388 . S
C516 C517 1.390 . S
C517 C516 1.390 . S
C517 C518 1.394 . S
C517 C523 1.465 . S
C518 C513 1.399 . S
C518 C517 1.394 . S
C518 C519 1.516 . S
C519 C518 1.516 . S
C519 C520 1.502 . S
C519 C521 1.561 . S
C519 C522 1.526 . S
C520 H504 0.959 . S
C520 H505 0.959 . S
C520 H506 0.961 . S
C520 C519 1.502 . S
C521 H507 0.960 . S
C521 H508 0.961 . S
C521 H509 0.959 . S
C521 C519 1.561 . S
C522 C519 1.526 . S
C522 C523 1.396 . S
C522 C527 1.390 . S
C523 C517 1.465 . S
C523 C522 1.396 . S
C523 C524 1.399 . S
C524 H510 0.929 1_565 S
C524 C523 1.399 . S
C524 C525 1.385 . S
C525 H511 0.931 1_565 S
C525 C524 1.385 . S
C525 C526 1.389 . S
C526 C525 1.389 . S
C526 C527 1.387 . S
C527 H512 0.930 . S
C527 C522 1.390 . S
C527 C526 1.387 . S
H528 C540 0.930 . S
H529 C542 0.930 . S
H530 C543 0.930 . S
H531 C547 0.959 . S
H532 C547 0.959 . S
H533 C547 0.961 . S
H534 C548 0.960 . S
H535 C548 0.961 . S
H536 C548 0.959 . S
H537 C551 0.929 . S
H538 C552 0.931 . S
H539 C554 0.930 . S
C540 H528 0.930 . S
C540 C541 1.399 . S
C540 C545 1.399 . S
C541 C540 1.399 . S
C541 C542 1.376 . S
C542 H529 0.930 . S
C542 C541 1.376 . S
C542 C543 1.388 . S
C543 H530 0.930 . S
C543 C542 1.388 . S
C543 C544 1.390 . S
C544 C543 1.390 . S
C544 C545 1.394 . S
C544 C550 1.465 . S
C545 C540 1.399 . S
C545 C544 1.394 . S
C545 C546 1.516 . S
C546 C545 1.516 . S
C546 C547 1.502 . S
C546 C548 1.561 . S
C546 C549 1.526 . S
C547 H531 0.959 . S
C547 H532 0.959 . S
C547 H533 0.961 . S
C547 C546 1.502 . S
C548 H534 0.960 . S
C548 H535 0.961 . S
C548 H536 0.959 . S
C548 C546 1.561 . S
C549 C546 1.526 . S
C549 C550 1.396 . S
C549 C554 1.390 . S
C550 C544 1.465 . S
C550 C549 1.396 . S
C550 C551 1.399 . S
C551 H537 0.929 . S
C551 C550 1.399 . S
C551 C552 1.385 . S
C552 H538 0.931 . S
C552 C551 1.385 . S
C552 C553 1.389 . S
C553 C552 1.389 . S
C553 C554 1.387 . S
C554 H539 0.930 . S
C554 C549 1.390 . S
C554 C553 1.387 . S
H555 C567 0.930 . S
H556 C569 0.930 . S
H557 C570 0.930 . S
H558 C574 0.959 . S
H559 C574 0.959 . S
H560 C574 0.961 . S
H561 C575 0.960 . S
H562 C575 0.961 . S
H563 C575 0.959 . S
H564 C578 0.929 . S
H565 C579 0.931 . S
H566 C581 0.930 . S
C567 H555 0.930 . S
C567 C568 1.399 . S
C567 C572 1.399 . S
C568 C567 1.399 . S
C568 C569 1.376 . S
C569 H556 0.930 . S
C569 C568 1.376 . S
C569 C570 1.388 . S
C570 H557 0.930 . S
C570 C569 1.388 . S
C570 C571 1.390 . S
C571 C570 1.390 . S
C571 C572 1.394 . S
C571 C577 1.465 . S
C572 C567 1.399 . S
C572 C571 1.394 . S
C572 C573 1.516 . S
C573 C572 1.516 . S
C573 C574 1.502 . S
C573 C575 1.561 . S
C573 C576 1.526 . S
C574 H558 0.959 . S
C574 H559 0.959 . S
C574 H560 0.961 . S
C574 C573 1.502 . S
C575 H561 0.960 . S
C575 H562 0.961 . S
C575 H563 0.959 . S
C575 C573 1.561 . S
C576 C573 1.526 . S
C576 C577 1.396 . S
C576 C581 1.390 . S
C577 C571 1.465 . S
C577 C576 1.396 . S
C577 C578 1.399 . S
C578 H564 0.929 . S
C578 C577 1.399 . S
C578 C579 1.385 . S
C579 H565 0.931 . S
C579 C578 1.385 . S
C579 C580 1.389 . S
C580 C579 1.389 . S
C580 C581 1.387 . S
C581 H566 0.930 . S
C581 C576 1.390 . S
C581 C580 1.387 . S
H582 C594 0.930 . S
H583 C596 0.930 . S
H584 C597 0.930 . S
H585 C601 0.959 . S
H586 C601 0.959 . S
H587 C601 0.961 . S
H588 C602 0.960 . S
H589 C602 0.961 . S
H590 C602 0.959 . S
H591 C605 0.929 . S
H592 C606 0.931 . S
H593 C608 0.930 . S
C594 H582 0.930 . S
C594 C595 1.399 . S
C594 C599 1.399 . S
C595 C594 1.399 . S
C595 C596 1.376 . S
C596 H583 0.930 . S
C596 C595 1.376 . S
C596 C597 1.388 . S
C597 H584 0.930 . S
C597 C596 1.388 . S
C597 C598 1.390 . S
C598 C597 1.390 . S
C598 C599 1.394 . S
C598 C604 1.465 . S
C599 C594 1.399 . S
C599 C598 1.394 . S
C599 C600 1.516 . S
C600 C599 1.516 . S
C600 C601 1.502 . S
C600 C602 1.561 . S
C600 C603 1.526 . S
C601 H585 0.959 . S
C601 H586 0.959 . S
C601 H587 0.961 . S
C601 C600 1.502 . S
C602 H588 0.960 . S
C602 H589 0.961 . S
C602 H590 0.959 . S
C602 C600 1.561 . S
C603 C600 1.526 . S
C603 C604 1.396 . S
C603 C608 1.390 . S
C604 C598 1.465 . S
C604 C603 1.396 . S
C604 C605 1.399 . S
C605 H591 0.929 . S
C605 C604 1.399 . S
C605 C606 1.385 . S
C606 H592 0.931 . S
C606 C605 1.385 . S
C606 C607 1.389 . S
C607 C606 1.389 . S
C607 C608 1.387 . S
C608 H593 0.930 . S
C608 C603 1.390 . S
C608 C607 1.387 . S
H609 C621 0.930 . S
H610 C623 0.930 . S
H611 C624 0.930 . S
H612 C628 0.959 . S
H613 C628 0.959 . S
H614 C628 0.961 . S
H615 C629 0.960 . S
H616 C629 0.961 . S
H617 C629 0.959 . S
H618 C632 0.929 . S
H619 C633 0.931 . S
H620 C635 0.930 . S
C621 H609 0.930 . S
C621 C622 1.399 . S
C621 C626 1.399 . S
C622 C621 1.399 . S
C622 C623 1.376 . S
C623 H610 0.930 . S
C623 C622 1.376 . S
C623 C624 1.388 . S
C624 H611 0.930 . S
C624 C623 1.388 . S
C624 C625 1.390 . S
C625 C624 1.390 . S
C625 C626 1.394 . S
C625 C631 1.465 . S
C626 C621 1.399 . S
C626 C625 1.394 . S
C626 C627 1.516 . S
C627 C626 1.516 . S
C627 C628 1.502 . S
C627 C629 1.561 . S
C627 C630 1.526 . S
C628 H612 0.959 . S
C628 H613 0.959 . S
C628 H614 0.961 . S
C628 C627 1.502 . S
C629 H615 0.960 . S
C629 H616 0.961 . S
C629 H617 0.959 . S
C629 C627 1.561 . S
C630 C627 1.526 . S
C630 C631 1.396 . S
C630 C635 1.390 . S
C631 C625 1.465 . S
C631 C630 1.396 . S
C631 C632 1.399 . S
C632 H618 0.929 . S
C632 C631 1.399 . S
C632 C633 1.385 . S
C633 H619 0.931 . S
C633 C632 1.385 . S
C633 C634 1.389 . S
C634 C633 1.389 . S
C634 C635 1.387 . S
C635 H620 0.930 . S
C635 C630 1.390 . S
C635 C634 1.387 . S
H636 C648 0.930 . S
H637 C650 0.930 . S
H638 C651 0.930 . S
H639 C655 0.959 . S
H640 C655 0.959 . S
H641 C655 0.961 . S
H642 C656 0.960 . S
H643 C656 0.961 . S
H644 C656 0.959 . S
H645 C659 0.929 . S
H646 C660 0.931 . S
H647 C662 0.930 . S
C648 H636 0.930 . S
C648 C649 1.399 . S
C648 C653 1.399 . S
C649 C648 1.399 . S
C649 C650 1.376 . S
C650 H637 0.930 . S
C650 C649 1.376 . S
C650 C651 1.388 . S
C651 H638 0.930 . S
C651 C650 1.388 . S
C651 C652 1.390 . S
C652 C651 1.390 . S
C652 C653 1.394 . S
C652 C658 1.465 . S
C653 C648 1.399 . S
C653 C652 1.394 . S
C653 C654 1.516 . S
C654 C653 1.516 . S
C654 C655 1.502 . S
C654 C656 1.561 . S
C654 C657 1.526 . S
C655 H639 0.959 . S
C655 H640 0.959 . S
C655 H641 0.961 . S
C655 C654 1.502 . S
C656 H642 0.960 . S
C656 H643 0.961 . S
C656 H644 0.959 . S
C656 C654 1.561 . S
C657 C654 1.526 . S
C657 C658 1.396 . S
C657 C662 1.390 . S
C658 C652 1.465 . S
C658 C657 1.396 . S
C658 C659 1.399 . S
C659 H645 0.929 . S
C659 C658 1.399 . S
C659 C660 1.385 . S
C660 H646 0.931 . S
C660 C659 1.385 . S
C660 C661 1.389 . S
C661 C660 1.389 . S
C661 C662 1.387 . S
C662 H647 0.930 . S
C662 C657 1.390 . S
C662 C661 1.387 . S
H663 C675 0.930 . S
H664 C677 0.930 . S
H665 C678 0.930 . S
H666 C682 0.959 . S
H667 C682 0.959 . S
H668 C682 0.961 . S
H669 C683 0.960 . S
H670 C683 0.961 . S
H671 C683 0.959 . S
H672 C686 0.929 . S
H673 C687 0.931 . S
H674 C689 0.930 . S
C675 H663 0.930 . S
C675 C676 1.399 . S
C675 C680 1.399 . S
C676 C675 1.399 . S
C676 C677 1.376 . S
C677 H664 0.930 . S
C677 C676 1.376 . S
C677 C678 1.388 . S
C678 H665 0.930 . S
C678 C677 1.388 . S
C678 C679 1.390 . S
C679 C678 1.390 . S
C679 C680 1.394 . S
C679 C685 1.465 . S
C680 C675 1.399 . S
C680 C679 1.394 . S
C680 C681 1.516 . S
C681 C680 1.516 . S
C681 C682 1.502 . S
C681 C683 1.561 . S
C681 C684 1.526 . S
C682 H666 0.959 . S
C682 H667 0.959 . S
C682 H668 0.961 . S
C682 C681 1.502 . S
C683 H669 0.960 . S
C683 H670 0.961 . S
C683 H671 0.959 . S
C683 C681 1.561 . S
C684 C681 1.526 . S
C684 C685 1.396 . S
C684 C689 1.390 . S
C685 C679 1.465 . S
C685 C684 1.396 . S
C685 C686 1.399 . S
C686 H672 0.929 . S
C686 C685 1.399 . S
C686 C687 1.385 . S
C687 H673 0.931 . S
C687 C686 1.385 . S
C687 C688 1.389 . S
C688 C687 1.389 . S
C688 C689 1.387 . S
C689 H674 0.930 . S
C689 C684 1.390 . S
C689 C688 1.387 . S
H690 C702 0.930 . S
H691 C704 0.930 . S
H692 C705 0.930 . S
H693 C709 0.959 . S
H694 C709 0.959 . S
H695 C709 0.961 . S
H696 C710 0.960 . S
H697 C710 0.961 . S
H698 C710 0.959 . S
H699 C713 0.929 . S
H700 C714 0.931 . S
H701 C716 0.930 . S
C702 H690 0.930 . S
C702 C703 1.399 . S
C702 C707 1.399 . S
C703 C702 1.399 . S
C703 C704 1.376 . S
C704 H691 0.930 . S
C704 C703 1.376 . S
C704 C705 1.388 . S
C705 H692 0.930 . S
C705 C704 1.388 . S
C705 C706 1.390 . S
C706 C705 1.390 . S
C706 C707 1.394 . S
C706 C712 1.465 . S
C707 C702 1.399 . S
C707 C706 1.394 . S
C707 C708 1.516 . S
C708 C707 1.516 . S
C708 C709 1.502 . S
C708 C710 1.561 . S
C708 C711 1.526 . S
C709 H693 0.959 . S
C709 H694 0.959 . S
C709 H695 0.961 . S
C709 C708 1.502 . S
C710 H696 0.960 . S
C710 H697 0.961 . S
C710 H698 0.959 . S
C710 C708 1.561 . S
C711 C708 1.526 . S
C711 C712 1.396 . S
C711 C716 1.390 . S
C712 C706 1.465 . S
C712 C711 1.396 . S
C712 C713 1.399 . S
C713 H699 0.929 . S
C713 C712 1.399 . S
C713 C714 1.385 . S
C714 H700 0.931 . S
C714 C713 1.385 . S
C714 C715 1.389 . S
C715 C714 1.389 . S
C715 C716 1.387 . S
C716 H701 0.930 . S
C716 C711 1.390 . S
C716 C715 1.387 . S
H717 C729 0.930 . S
H718 C731 0.930 . S
H719 C732 0.930 . S
H720 C736 0.959 1_455 S
H721 C736 0.959 1_455 S
H722 C736 0.960 1_455 S
H723 C737 0.960 . S
H724 C737 0.961 . S
H725 C737 0.959 . S
H726 C740 0.929 . S
H727 C741 0.931 . S
H728 C743 0.930 . S
C729 H717 0.930 . S
C729 C730 1.399 . S
C729 C734 1.399 . S
C730 C729 1.399 . S
C730 C731 1.376 . S
C731 H718 0.930 . S
C731 C730 1.376 . S
C731 C732 1.388 . S
C732 H719 0.930 . S
C732 C731 1.388 . S
C732 C733 1.390 . S
C733 C732 1.390 . S
C733 C734 1.394 . S
C733 C739 1.465 . S
C734 C729 1.399 . S
C734 C733 1.394 . S
C734 C735 1.516 . S
C735 C734 1.516 . S
C735 C736 1.502 . S
C735 C737 1.561 . S
C735 C738 1.526 . S
C736 H720 0.959 1_655 S
C736 H721 0.959 1_655 S
C736 H722 0.960 1_655 S
C736 C735 1.502 . S
C737 H723 0.960 . S
C737 H724 0.961 . S
C737 H725 0.959 . S
C737 C735 1.561 . S
C738 C735 1.526 . S
C738 C739 1.396 . S
C738 C743 1.390 . S
C739 C733 1.465 . S
C739 C738 1.396 . S
C739 C740 1.399 . S
C740 H726 0.929 . S
C740 C739 1.399 . S
C740 C741 1.385 . S
C741 H727 0.931 . S
C741 C740 1.385 . S
C741 C742 1.389 . S
C742 C741 1.389 . S
C742 C743 1.387 . S
C743 H728 0.930 . S
C743 C738 1.390 . S
C743 C742 1.387 . S
H744 C756 0.930 . S
H745 C758 0.930 . S
H746 C759 0.930 . S
H747 C763 0.959 . S
H748 C763 0.959 . S
H749 C763 0.961 . S
H750 C764 0.960 . S
H751 C764 0.961 . S
H752 C764 0.959 . S
H753 C767 0.929 . S
H754 C768 0.931 . S
H755 C770 0.930 . S
C756 H744 0.930 . S
C756 C757 1.399 . S
C756 C761 1.399 . S
C757 C756 1.399 . S
C757 C758 1.376 . S
C758 H745 0.930 . S
C758 C757 1.376 . S
C758 C759 1.388 . S
C759 H746 0.930 . S
C759 C758 1.388 . S
C759 C760 1.390 . S
C760 C759 1.390 . S
C760 C761 1.394 . S
C760 C766 1.465 . S
C761 C756 1.399 . S
C761 C760 1.394 . S
C761 C762 1.516 . S
C762 C761 1.516 . S
C762 C763 1.502 . S
C762 C764 1.561 . S
C762 C765 1.526 . S
C763 H747 0.959 . S
C763 H748 0.959 . S
C763 H749 0.961 . S
C763 C762 1.502 . S
C764 H750 0.960 . S
C764 H751 0.961 . S
C764 H752 0.959 . S
C764 C762 1.561 . S
C765 C762 1.526 . S
C765 C766 1.396 . S
C765 C770 1.390 . S
C766 C760 1.465 . S
C766 C765 1.396 . S
C766 C767 1.399 . S
C767 H753 0.929 . S
C767 C766 1.399 . S
C767 C768 1.385 . S
C768 H754 0.931 . S
C768 C767 1.385 . S
C768 C769 1.389 . S
C769 C768 1.389 . S
C769 C770 1.387 . S
C770 H755 0.930 . S
C770 C765 1.390 . S
C770 C769 1.387 . S
H771 C783 0.930 . S
H772 C785 0.930 . S
H773 C786 0.930 . S
H774 C790 0.959 . S
H775 C790 0.959 . S
H776 C790 0.961 . S
H777 C791 0.960 . S
H778 C791 0.961 . S
H779 C791 0.959 . S
H780 C794 0.929 . S
H781 C795 0.931 . S
H782 C797 0.930 . S
C783 H771 0.930 . S
C783 C784 1.399 . S
C783 C788 1.399 . S
C784 C783 1.399 . S
C784 C785 1.376 . S
C785 H772 0.930 . S
C785 C784 1.376 . S
C785 C786 1.388 . S
C786 H773 0.930 . S
C786 C785 1.388 . S
C786 C787 1.390 . S
C787 C786 1.390 . S
C787 C788 1.394 . S
C787 C793 1.465 . S
C788 C783 1.399 . S
C788 C787 1.394 . S
C788 C789 1.516 . S
C789 C788 1.516 . S
C789 C790 1.502 . S
C789 C791 1.561 . S
C789 C792 1.526 . S
C790 H774 0.959 . S
C790 H775 0.959 . S
C790 H776 0.961 . S
C790 C789 1.502 . S
C791 H777 0.960 . S
C791 H778 0.961 . S
C791 H779 0.959 . S
C791 C789 1.561 . S
C792 C789 1.526 . S
C792 C793 1.396 . S
C792 C797 1.390 . S
C793 C787 1.465 . S
C793 C792 1.396 . S
C793 C794 1.399 . S
C794 H780 0.929 . S
C794 C793 1.399 . S
C794 C795 1.385 . S
C795 H781 0.931 . S
C795 C794 1.385 . S
C795 C796 1.389 . S
C796 C795 1.389 . S
C796 C797 1.387 . S
C797 H782 0.930 . S
C797 C792 1.390 . S
C797 C796 1.387 . S
H798 C810 0.930 . S
H799 C812 0.930 . S
H800 C813 0.936 . S
H801 C817 0.954 1_545 S
H802 C817 0.959 . S
H803 C817 0.961 . S
H804 C818 0.960 . S
H805 C818 0.961 . S
H806 C818 0.959 . S
H807 C821 0.929 . S
H808 C822 0.931 . S
H809 C824 0.930 . S
C810 H798 0.930 . S
C810 C811 1.399 . S
C810 C815 1.399 . S
C811 C810 1.399 . S
C811 C812 1.376 . S
C812 H799 0.930 . S
C812 C811 1.376 . S
C812 C813 1.385 1_556 S
C813 H800 0.936 . S
C813 C812 1.385 1_554 S
C813 C814 1.388 1_554 S
C814 C813 1.388 1_556 S
C814 C815 1.394 . S
C814 C820 1.452 1_556 S
C815 C810 1.399 . S
C815 C814 1.394 . S
C815 C816 1.516 1_545 S
C816 C815 1.516 1_565 S
C816 C817 1.502 . S
C816 C818 1.561 . S
C816 C819 1.526 . S
C817 H801 0.954 1_565 S
C817 H802 0.959 . S
C817 H803 0.961 . S
C817 C816 1.502 . S
C818 H804 0.960 . S
C818 H805 0.961 . S
C818 H806 0.959 . S
C818 C816 1.561 . S
C819 C816 1.526 . S
C819 C820 1.376 1_566 S
C819 C824 1.390 . S
C820 C814 1.452 1_554 S
C820 C819 1.376 1_544 S
C820 C821 1.427 . S
C821 H807 0.929 . S
C821 C820 1.427 . S
C821 C822 1.385 1_545 S
C822 H808 0.931 . S
C822 C821 1.385 1_565 S
C822 C823 1.389 . S
C823 C822 1.389 . S
C823 C824 1.387 1_554 S
C824 H809 0.930 . S
C824 C819 1.390 . S
C824 C823 1.387 1_556 S
H825 C837 0.930 . S
H826 C839 0.930 . S
H827 C840 0.930 . S
H828 C844 0.959 . S
H829 C844 0.959 . S
H830 C844 0.961 . S
H831 C845 0.960 . S
H832 C845 0.961 . S
H833 C845 0.959 . S
H834 C848 0.929 . S
H835 C849 0.931 . S
H836 C851 0.930 . S
C837 H825 0.930 . S
C837 C838 1.399 . S
C837 C842 1.399 . S
C838 C837 1.399 . S
C838 C839 1.376 . S
C839 H826 0.930 . S
C839 C838 1.376 . S
C839 C840 1.388 . S
C840 H827 0.930 . S
C840 C839 1.388 . S
C840 C841 1.390 . S
C841 C840 1.390 . S
C841 C842 1.394 . S
C841 C847 1.465 . S
C842 C837 1.399 . S
C842 C841 1.394 . S
C842 C843 1.516 . S
C843 C842 1.516 . S
C843 C844 1.502 . S
C843 C845 1.561 . S
C843 C846 1.526 . S
C844 H828 0.959 . S
C844 H829 0.959 . S
C844 H830 0.961 . S
C844 C843 1.502 . S
C845 H831 0.960 . S
C845 H832 0.961 . S
C845 H833 0.959 . S
C845 C843 1.561 . S
C846 C843 1.526 . S
C846 C847 1.396 . S
C846 C851 1.390 . S
C847 C841 1.465 . S
C847 C846 1.396 . S
C847 C848 1.399 . S
C848 H834 0.929 . S
C848 C847 1.399 . S
C848 C849 1.385 . S
C849 H835 0.931 . S
C849 C848 1.385 . S
C849 C850 1.389 . S
C850 C849 1.389 . S
C850 C851 1.387 . S
C851 H836 0.930 . S
C851 C846 1.390 . S
C851 C850 1.387 . S
H852 C864 0.930 . S
H853 C866 0.930 . S
H854 C867 0.930 . S
H855 C871 0.959 . S
H856 C871 0.959 . S
H857 C871 0.961 . S
H858 C872 0.960 . S
H859 C872 0.961 . S
H860 C872 0.959 . S
H861 C875 0.929 . S
H862 C876 0.931 . S
H863 C878 0.930 . S
C864 H852 0.930 . S
C864 C865 1.399 1_545 S
C864 C869 1.399 . S
C865 C864 1.399 1_565 S
C865 C866 1.376 . S
C866 H853 0.930 . S
C866 C865 1.376 . S
C866 C867 1.388 . S
C867 H854 0.930 . S
C867 C866 1.388 . S
C867 C868 1.390 1_565 S
C868 C867 1.390 1_545 S
C868 C869 1.394 . S
C868 C874 1.465 . S
C869 C864 1.399 . S
C869 C868 1.394 . S
C869 C870 1.516 . S
C870 C869 1.516 . S
C870 C871 1.502 . S
C870 C872 1.561 . S
C870 C873 1.526 . S
C871 H855 0.959 . S
C871 H856 0.959 . S
C871 H857 0.961 . S
C871 C870 1.502 . S
C872 H858 0.960 . S
C872 H859 0.961 . S
C872 H860 0.959 . S
C872 C870 1.561 . S
C873 C870 1.526 . S
C873 C874 1.396 . S
C873 C878 1.390 . S
C874 C868 1.465 . S
C874 C873 1.396 . S
C874 C875 1.399 . S
C875 H861 0.929 . S
C875 C874 1.399 . S
C875 C876 1.385 . S
C876 H862 0.931 . S
C876 C875 1.385 . S
C876 C877 1.389 . S
C877 C876 1.389 . S
C877 C878 1.387 . S
C878 H863 0.930 . S
C878 C873 1.390 . S
C878 C877 1.387 . S
H879 C891 0.930 . S
H880 C893 0.930 . S
H881 C894 0.930 . S
H882 C898 0.959 . S
H883 C898 0.959 . S
H884 C898 0.961 . S
H885 C899 0.960 . S
H886 C899 0.961 . S
H887 C899 0.959 . S
H888 C902 0.929 . S
H889 C903 0.931 . S
H890 C905 0.930 . S
C891 H879 0.930 . S
C891 C892 1.399 . S
C891 C896 1.399 . S
C892 C891 1.399 . S
C892 C893 1.376 . S
C893 H880 0.930 . S
C893 C892 1.376 . S
C893 C894 1.388 . S
C894 H881 0.930 . S
C894 C893 1.388 . S
C894 C895 1.390 . S
C895 C894 1.390 . S
C895 C896 1.394 . S
C895 C901 1.465 . S
C896 C891 1.399 . S
C896 C895 1.394 . S
C896 C897 1.516 . S
C897 C896 1.516 . S
C897 C898 1.502 . S
C897 C899 1.561 . S
C897 C900 1.526 . S
C898 H882 0.959 . S
C898 H883 0.959 . S
C898 H884 0.961 . S
C898 C897 1.502 . S
C899 H885 0.960 . S
C899 H886 0.961 . S
C899 H887 0.959 . S
C899 C897 1.561 . S
C900 C897 1.526 . S
C900 C901 1.396 . S
C900 C905 1.390 . S
C901 C895 1.465 . S
C901 C900 1.396 . S
C901 C902 1.399 . S
C902 H888 0.929 . S
C902 C901 1.399 . S
C902 C903 1.385 . S
C903 H889 0.931 . S
C903 C902 1.385 . S
C903 C904 1.389 . S
C904 C903 1.389 . S
C904 C905 1.387 . S
C905 H890 0.930 . S
C905 C900 1.390 . S
C905 C904 1.387 . S
H906 C918 0.930 . S
H907 C920 0.930 . S
H908 C921 0.930 . S
H909 C925 0.973 . S
H910 C925 0.959 . S
H911 C925 0.961 1_565 S
H912 C926 0.960 . S
H913 C926 0.961 . S
H914 C926 0.959 . S
H915 C929 0.929 . S
H916 C930 0.931 . S
H917 C932 0.930 . S
C918 H906 0.930 . S
C918 C919 1.399 . S
C918 C923 1.377 1_565 S
C919 C918 1.399 . S
C919 C920 1.376 . S
C920 H907 0.930 . S
C920 C919 1.376 . S
C920 C921 1.388 . S
C921 H908 0.930 . S
C921 C920 1.388 . S
C921 C922 1.390 1_565 S
C922 C921 1.390 1_545 S
C922 C923 1.401 . S
C922 C928 1.465 . S
C923 C918 1.377 1_545 S
C923 C922 1.401 . S
C923 C924 1.534 . S
C924 C923 1.534 . S
C924 C925 1.502 . S
C924 C926 1.561 . S
C924 C927 1.526 . S
C925 H909 0.973 . S
C925 H910 0.959 . S
C925 H911 0.961 1_545 S
C925 C924 1.502 . S
C926 H912 0.960 . S
C926 H913 0.961 . S
C926 H914 0.959 . S
C926 C924 1.561 . S
C927 C924 1.526 . S
C927 C928 1.396 . S
C927 C932 1.390 . S
C928 C922 1.465 . S
C928 C927 1.396 . S
C928 C929 1.399 . S
C929 H915 0.929 . S
C929 C928 1.399 . S
C929 C930 1.385 . S
C930 H916 0.931 . S
C930 C929 1.385 . S
C930 C931 1.389 . S
C931 C930 1.389 . S
C931 C932 1.387 . S
C932 H917 0.930 . S
C932 C927 1.390 . S
C932 C931 1.387 . S
H933 C945 0.930 . S
H934 C947 0.930 . S
H935 C948 0.930 . S
H936 C952 0.959 . S
H937 C952 0.959 . S
H938 C952 0.961 . S
H939 C953 0.960 . S
H940 C953 0.961 . S
H941 C953 0.959 . S
H942 C956 0.929 . S
H943 C957 0.931 . S
H944 C959 0.930 . S
C945 H933 0.930 . S
C945 C946 1.399 . S
C945 C950 1.399 . S
C946 C945 1.399 . S
C946 C947 1.376 . S
C947 H934 0.930 . S
C947 C946 1.376 . S
C947 C948 1.388 . S
C948 H935 0.930 . S
C948 C947 1.388 . S
C948 C949 1.390 . S
C949 C948 1.390 . S
C949 C950 1.394 . S
C949 C955 1.465 . S
C950 C945 1.399 . S
C950 C949 1.394 . S
C950 C951 1.516 . S
C951 C950 1.516 . S
C951 C952 1.502 . S
C951 C953 1.561 . S
C951 C954 1.526 . S
C952 H936 0.959 . S
C952 H937 0.959 . S
C952 H938 0.961 . S
C952 C951 1.502 . S
C953 H939 0.960 . S
C953 H940 0.961 . S
C953 H941 0.959 . S
C953 C951 1.561 . S
C954 C951 1.526 . S
C954 C955 1.396 . S
C954 C959 1.390 . S
C955 C949 1.465 . S
C955 C954 1.396 . S
C955 C956 1.399 . S
C956 H942 0.929 . S
C956 C955 1.399 . S
C956 C957 1.385 . S
C957 H943 0.931 . S
C957 C956 1.385 . S
C957 C958 1.389 . S
C958 C957 1.389 . S
C958 C959 1.387 . S
C959 H944 0.930 . S
C959 C954 1.390 . S
C959 C958 1.387 . S
H960 C972 0.930 . S
H961 C974 0.930 . S
H962 C975 0.930 . S
H963 C979 0.959 . S
H964 C979 0.959 . S
H965 C979 0.961 . S
H966 C980 0.960 . S
H967 C980 0.961 . S
H968 C980 0.959 . S
H969 C983 0.929 . S
H970 C984 0.931 . S
H971 C986 0.930 . S
C972 H960 0.930 . S
C972 C973 1.399 . S
C972 C977 1.399 . S
C973 C972 1.399 . S
C973 C974 1.376 . S
C974 H961 0.930 . S
C974 C973 1.376 . S
C974 C975 1.388 . S
C975 H962 0.930 . S
C975 C974 1.388 . S
C975 C976 1.390 . S
C976 C975 1.390 . S
C976 C977 1.394 . S
C976 C982 1.465 . S
C977 C972 1.399 . S
C977 C976 1.394 . S
C977 C978 1.516 . S
C978 C977 1.516 . S
C978 C979 1.502 . S
C978 C980 1.561 . S
C978 C981 1.526 . S
C979 H963 0.959 . S
C979 H964 0.959 . S
C979 H965 0.961 . S
C979 C978 1.502 . S
C980 H966 0.960 . S
C980 H967 0.961 . S
C980 H968 0.959 . S
C980 C978 1.561 . S
C981 C978 1.526 . S
C981 C982 1.396 . S
C981 C986 1.390 . S
C982 C976 1.465 . S
C982 C981 1.396 . S
C982 C983 1.399 . S
C983 H969 0.929 . S
C983 C982 1.399 . S
C983 C984 1.385 . S
C984 H970 0.931 . S
C984 C983 1.385 . S
C984 C985 1.389 . S
C985 C984 1.389 . S
C985 C986 1.387 . S
C986 H971 0.930 . S
C986 C981 1.390 . S
C986 C985 1.387 . S
H987 C999 0.930 . S
H988 C1001 0.930 . S
H989 C1002 0.930 . S
H990 C1006 0.959 . S
H991 C1006 0.959 . S
H992 C1006 0.961 . S
H993 C1007 0.960 . S
H994 C1007 0.961 1_565 S
H995 C1007 0.959 . S
H996 C1010 0.929 . S
H997 C1011 0.931 . S
H998 C1013 0.930 . S
C999 H987 0.930 . S
C999 C1000 1.399 . S
C999 C1004 1.399 . S
C1000 C999 1.399 . S
C1000 C1001 1.376 . S
C1001 H988 0.930 . S
C1001 C1000 1.376 . S
C1001 C1002 1.388 . S
C1002 H989 0.930 . S
C1002 C1001 1.388 . S
C1002 C1003 1.390 . S
C1003 C1002 1.390 . S
C1003 C1004 1.394 . S
C1003 C1009 1.465 . S
C1004 C999 1.399 . S
C1004 C1003 1.394 . S
C1004 C1005 1.516 . S
C1005 C1004 1.516 . S
C1005 C1006 1.502 . S
C1005 C1007 1.561 . S
C1005 C1008 1.526 . S
C1006 H990 0.959 . S
C1006 H991 0.959 . S
C1006 H992 0.961 . S
C1006 C1005 1.502 . S
C1007 H993 0.960 . S
C1007 H994 0.961 1_545 S
C1007 H995 0.959 . S
C1007 C1005 1.561 . S
C1008 C1005 1.526 . S
C1008 C1009 1.396 . S
C1008 C1013 1.390 . S
C1009 C1003 1.465 . S
C1009 C1008 1.396 . S
C1009 C1010 1.399 . S
C1010 H996 0.929 . S
C1010 C1009 1.399 . S
C1010 C1011 1.385 . S
C1011 H997 0.931 . S
C1011 C1010 1.385 . S
C1011 C1012 1.389 . S
C1012 C1011 1.389 . S
C1012 C1013 1.387 . S
C1013 H998 0.930 . S
C1013 C1008 1.390 . S
C1013 C1012 1.387 . S
H1014 C1026 0.930 . S
H1015 C1028 0.930 . S
H1016 C1029 0.930 . S
H1017 C1033 0.959 . S
H1018 C1033 0.959 . S
H1019 C1033 0.961 . S
H1020 C1034 0.960 . S
H1021 C1034 0.961 . S
H1022 C1034 0.959 . S
H1023 C1037 0.929 . S
H1024 C1038 0.931 . S
H1025 C1040 0.930 . S
C1026 H1014 0.930 . S
C1026 C1027 1.399 . S
C1026 C1031 1.399 . S
C1027 C1026 1.399 . S
C1027 C1028 1.376 . S
C1028 H1015 0.930 . S
C1028 C1027 1.376 . S
C1028 C1029 1.388 . S
C1029 H1016 0.930 . S
C1029 C1028 1.388 . S
C1029 C1030 1.390 . S
C1030 C1029 1.390 . S
C1030 C1031 1.394 . S
C1030 C1036 1.465 . S
C1031 C1026 1.399 . S
C1031 C1030 1.394 . S
C1031 C1032 1.516 . S
C1032 C1031 1.516 . S
C1032 C1033 1.502 . S
C1032 C1034 1.561 . S
C1032 C1035 1.526 . S
C1033 H1017 0.959 . S
C1033 H1018 0.959 . S
C1033 H1019 0.961 . S
C1033 C1032 1.502 . S
C1034 H1020 0.960 . S
C1034 H1021 0.961 . S
C1034 H1022 0.959 . S
C1034 C1032 1.561 . S
C1035 C1032 1.526 . S
C1035 C1036 1.396 . S
C1035 C1040 1.390 . S
C1036 C1030 1.465 . S
C1036 C1035 1.396 . S
C1036 C1037 1.399 . S
C1037 H1023 0.929 . S
C1037 C1036 1.399 . S
C1037 C1038 1.385 . S
C1038 H1024 0.931 . S
C1038 C1037 1.385 . S
C1038 C1039 1.389 . S
C1039 C1038 1.389 . S
C1039 C1040 1.387 . S
C1040 H1025 0.930 . S
C1040 C1035 1.390 . S
C1040 C1039 1.387 . S
H1041 C1053 0.930 . S
H1042 C1055 0.930 . S
H1043 C1056 0.930 . S
H1044 C1060 0.959 . S
H1045 C1060 0.959 . S
H1046 C1060 0.961 . S
H1047 C1061 0.960 . S
H1048 C1061 0.961 . S
H1049 C1061 0.959 . S
H1050 C1064 0.929 . S
H1051 C1065 0.931 . S
H1052 C1067 0.930 . S
C1053 H1041 0.930 . S
C1053 C1054 1.399 . S
C1053 C1058 1.399 . S
C1054 C1053 1.399 . S
C1054 C1055 1.376 . S
C1055 H1042 0.930 . S
C1055 C1054 1.376 . S
C1055 C1056 1.388 . S
C1056 H1043 0.930 . S
C1056 C1055 1.388 . S
C1056 C1057 1.390 . S
C1057 C1056 1.390 . S
C1057 C1058 1.394 . S
C1057 C1063 1.465 . S
C1058 C1053 1.399 . S
C1058 C1057 1.394 . S
C1058 C1059 1.516 . S
C1059 C1058 1.516 . S
C1059 C1060 1.502 . S
C1059 C1061 1.561 . S
C1059 C1062 1.526 . S
C1060 H1044 0.959 . S
C1060 H1045 0.959 . S
C1060 H1046 0.961 . S
C1060 C1059 1.502 . S
C1061 H1047 0.960 . S
C1061 H1048 0.961 . S
C1061 H1049 0.959 . S
C1061 C1059 1.561 . S
C1062 C1059 1.526 . S
C1062 C1063 1.396 . S
C1062 C1067 1.390 . S
C1063 C1057 1.465 . S
C1063 C1062 1.396 . S
C1063 C1064 1.399 . S
C1064 H1050 0.929 . S
C1064 C1063 1.399 . S
C1064 C1065 1.385 . S
C1065 H1051 0.931 . S
C1065 C1064 1.385 . S
C1065 C1066 1.389 . S
C1066 C1065 1.389 . S
C1066 C1067 1.387 . S
C1067 H1052 0.930 . S
C1067 C1062 1.390 . S
C1067 C1066 1.387 . S
H1068 C1080 0.930 . S
H1069 C1082 0.930 . S
H1070 C1083 0.930 . S
H1071 C1087 0.959 . S
H1072 C1087 0.959 . S
H1073 C1087 0.961 . S
H1074 C1088 0.960 . S
H1075 C1088 0.961 . S
H1076 C1088 0.959 . S
H1077 C1091 0.929 . S
H1078 C1092 0.931 . S
H1079 C1094 0.930 . S
C1080 H1068 0.930 . S
C1080 C1081 1.399 . S
C1080 C1085 1.399 . S
C1081 C1080 1.399 . S
C1081 C1082 1.376 . S
C1082 H1069 0.930 . S
C1082 C1081 1.376 . S
C1082 C1083 1.388 . S
C1083 H1070 0.930 . S
C1083 C1082 1.388 . S
C1083 C1084 1.390 . S
C1084 C1083 1.390 . S
C1084 C1085 1.394 . S
C1084 C1090 1.465 . S
C1085 C1080 1.399 . S
C1085 C1084 1.394 . S
C1085 C1086 1.516 . S
C1086 C1085 1.516 . S
C1086 C1087 1.502 . S
C1086 C1088 1.561 . S
C1086 C1089 1.526 . S
C1087 H1071 0.959 . S
C1087 H1072 0.959 . S
C1087 H1073 0.961 . S
C1087 C1086 1.502 . S
C1088 H1074 0.960 . S
C1088 H1075 0.961 . S
C1088 H1076 0.959 . S
C1088 C1086 1.561 . S
C1089 C1086 1.526 . S
C1089 C1090 1.396 . S
C1089 C1094 1.390 . S
C1090 C1084 1.465 . S
C1090 C1089 1.396 . S
C1090 C1091 1.399 . S
C1091 H1077 0.929 . S
C1091 C1090 1.399 . S
C1091 C1092 1.385 . S
C1092 H1078 0.931 . S
C1092 C1091 1.385 . S
C1092 C1093 1.389 . S
C1093 C1092 1.389 . S
C1093 C1094 1.387 . S
C1094 H1079 0.930 . S
C1094 C1089 1.390 . S
C1094 C1093 1.387 . S
H1095 C1107 0.930 . S
H1096 C1109 0.930 . S
H1097 C1110 0.930 . S
H1098 C1114 0.959 . S
H1099 C1114 0.959 . S
H1100 C1114 0.961 1_455 S
H1101 C1115 0.960 . S
H1102 C1115 0.961 . S
H1103 C1115 0.959 . S
H1104 C1118 0.929 1_455 S
H1105 C1119 0.931 . S
H1106 C1121 0.930 . S
C1107 H1095 0.930 . S
C1107 C1108 1.399 . S
C1107 C1112 1.399 . S
C1108 C1107 1.399 . S
C1108 C1109 1.376 . S
C1109 H1096 0.930 . S
C1109 C1108 1.376 . S
C1109 C1110 1.388 . S
C1110 H1097 0.930 . S
C1110 C1109 1.388 . S
C1110 C1111 1.390 . S
C1111 C1110 1.390 . S
C1111 C1112 1.394 . S
C1111 C1117 1.465 . S
C1112 C1107 1.399 . S
C1112 C1111 1.394 . S
C1112 C1113 1.516 . S
C1113 C1112 1.516 . S
C1113 C1114 1.502 1_455 S
C1113 C1115 1.561 . S
C1113 C1116 1.526 1_455 S
C1114 H1098 0.959 . S
C1114 H1099 0.959 . S
C1114 H1100 0.961 1_655 S
C1114 C1113 1.502 1_655 S
C1115 H1101 0.960 . S
C1115 H1102 0.961 . S
C1115 H1103 0.959 . S
C1115 C1113 1.561 . S
C1116 C1113 1.526 1_655 S
C1116 C1117 1.396 1_655 S
C1116 C1121 1.390 . S
C1117 C1111 1.465 . S
C1117 C1116 1.396 1_455 S
C1117 C1118 1.399 1_455 S
C1118 H1104 0.929 1_655 S
C1118 C1117 1.399 1_655 S
C1118 C1119 1.385 . S
C1119 H1105 0.931 . S
C1119 C1118 1.385 . S
C1119 C1120 1.389 . S
C1120 C1119 1.389 . S
C1120 C1121 1.387 . S
C1121 H1106 0.930 . S
C1121 C1116 1.390 . S
C1121 C1120 1.387 . S
H1122 C1134 0.930 . S
H1123 C1136 0.930 . S
H1124 C1137 0.930 . S
H1125 C1141 0.959 . S
H1126 C1141 0.959 . S
H1127 C1141 0.961 . S
H1128 C1142 0.960 . S
H1129 C1142 0.961 . S
H1130 C1142 0.959 . S
H1131 C1145 0.929 . S
H1132 C1146 0.931 . S
H1133 C1148 0.930 . S
C1134 H1122 0.930 . S
C1134 C1135 1.399 . S
C1134 C1139 1.399 . S
C1135 C1134 1.399 . S
C1135 C1136 1.376 . S
C1136 H1123 0.930 . S
C1136 C1135 1.376 . S
C1136 C1137 1.388 . S
C1137 H1124 0.930 . S
C1137 C1136 1.388 . S
C1137 C1138 1.390 . S
C1138 C1137 1.390 . S
C1138 C1139 1.394 . S
C1138 C1144 1.465 . S
C1139 C1134 1.399 . S
C1139 C1138 1.394 . S
C1139 C1140 1.516 . S
C1140 C1139 1.516 . S
C1140 C1141 1.502 . S
C1140 C1142 1.561 . S
C1140 C1143 1.526 . S
C1141 H1125 0.959 . S
C1141 H1126 0.959 . S
C1141 H1127 0.961 . S
C1141 C1140 1.502 . S
C1142 H1128 0.960 . S
C1142 H1129 0.961 . S
C1142 H1130 0.959 . S
C1142 C1140 1.561 . S
C1143 C1140 1.526 . S
C1143 C1144 1.396 . S
C1143 C1148 1.390 . S
C1144 C1138 1.465 . S
C1144 C1143 1.396 . S
C1144 C1145 1.399 . S
C1145 H1131 0.929 . S
C1145 C1144 1.399 . S
C1145 C1146 1.385 . S
C1146 H1132 0.931 . S
C1146 C1145 1.385 . S
C1146 C1147 1.389 . S
C1147 C1146 1.389 . S
C1147 C1148 1.387 . S
C1148 H1133 0.930 . S
C1148 C1143 1.390 . S
C1148 C1147 1.387 . S
H1149 C1161 0.930 . S
H1150 C1163 0.930 . S
H1151 C1164 0.930 . S
H1152 C1168 0.959 . S
H1153 C1168 0.959 . S
H1154 C1168 0.961 . S
H1155 C1169 0.960 . S
H1156 C1169 0.961 . S
H1157 C1169 0.959 1_455 S
H1158 C1172 0.929 . S
H1159 C1173 0.931 . S
H1160 C1175 0.930 . S
C1161 H1149 0.930 . S
C1161 C1162 1.399 . S
C1161 C1166 1.399 . S
C1162 C1161 1.399 . S
C1162 C1163 1.376 . S
C1163 H1150 0.930 . S
C1163 C1162 1.376 . S
C1163 C1164 1.388 . S
C1164 H1151 0.930 . S
C1164 C1163 1.388 . S
C1164 C1165 1.390 . S
C1165 C1164 1.390 . S
C1165 C1166 1.394 . S
C1165 C1171 1.465 1_655 S
C1166 C1161 1.399 . S
C1166 C1165 1.394 . S
C1166 C1167 1.516 . S
C1167 C1166 1.516 . S
C1167 C1168 1.502 . S
C1167 C1169 1.561 . S
C1167 C1170 1.526 1_655 S
C1168 H1152 0.959 . S
C1168 H1153 0.959 . S
C1168 H1154 0.961 . S
C1168 C1167 1.502 . S
C1169 H1155 0.960 . S
C1169 H1156 0.961 . S
C1169 H1157 0.959 1_655 S
C1169 C1167 1.561 . S
C1170 C1167 1.526 1_455 S
C1170 C1171 1.396 . S
C1170 C1175 1.390 . S
C1171 C1165 1.465 1_455 S
C1171 C1170 1.396 . S
C1171 C1172 1.399 . S
C1172 H1158 0.929 . S
C1172 C1171 1.399 . S
C1172 C1173 1.385 . S
C1173 H1159 0.931 . S
C1173 C1172 1.385 . S
C1173 C1174 1.389 . S
C1174 C1173 1.389 . S
C1174 C1175 1.387 . S
C1175 H1160 0.930 . S
C1175 C1170 1.390 . S
C1175 C1174 1.387 . S
H1176 C1188 0.930 . S
H1177 C1190 0.930 . S
H1178 C1191 0.930 . S
H1179 C1195 0.959 . S
H1180 C1195 0.959 . S
H1181 C1195 0.961 . S
H1182 C1196 0.960 . S
H1183 C1196 0.961 . S
H1184 C1196 0.959 . S
H1185 C1199 0.929 . S
H1186 C1200 0.931 . S
H1187 C1202 0.930 . S
C1188 H1176 0.930 . S
C1188 C1189 1.399 . S
C1188 C1193 1.399 . S
C1189 C1188 1.399 . S
C1189 C1190 1.376 . S
C1190 H1177 0.930 . S
C1190 C1189 1.376 . S
C1190 C1191 1.388 . S
C1191 H1178 0.930 . S
C1191 C1190 1.388 . S
C1191 C1192 1.390 . S
C1192 C1191 1.390 . S
C1192 C1193 1.394 . S
C1192 C1198 1.465 . S
C1193 C1188 1.399 . S
C1193 C1192 1.394 . S
C1193 C1194 1.516 . S
C1194 C1193 1.516 . S
C1194 C1195 1.502 . S
C1194 C1196 1.561 . S
C1194 C1197 1.526 . S
C1195 H1179 0.959 . S
C1195 H1180 0.959 . S
C1195 H1181 0.961 . S
C1195 C1194 1.502 . S
C1196 H1182 0.960 . S
C1196 H1183 0.961 . S
C1196 H1184 0.959 . S
C1196 C1194 1.561 . S
C1197 C1194 1.526 . S
C1197 C1198 1.396 . S
C1197 C1202 1.390 . S
C1198 C1192 1.465 . S
C1198 C1197 1.396 . S
C1198 C1199 1.399 . S
C1199 H1185 0.929 . S
C1199 C1198 1.399 . S
C1199 C1200 1.385 . S
C1200 H1186 0.931 . S
C1200 C1199 1.385 . S
C1200 C1201 1.389 . S
C1201 C1200 1.389 . S
C1201 C1202 1.387 . S
C1202 H1187 0.930 . S
C1202 C1197 1.390 . S
C1202 C1201 1.387 . S
H1203 C1215 0.930 . S
H1204 C1217 0.930 . S
H1205 C1218 0.930 1_556 S
H1206 C1222 0.959 . S
H1207 C1222 0.959 . S
H1208 C1222 0.961 . S
H1209 C1223 0.960 . S
H1210 C1223 0.961 . S
H1211 C1223 0.959 . S
H1212 C1226 0.929 . S
H1213 C1227 0.931 . S
H1214 C1229 0.930 . S
C1215 H1203 0.930 . S
C1215 C1216 1.399 . S
C1215 C1220 1.399 . S
C1216 C1215 1.399 . S
C1216 C1217 1.376 . S
C1217 H1204 0.930 . S
C1217 C1216 1.376 . S
C1217 C1218 1.388 . S
C1218 H1205 0.930 1_554 S
C1218 C1217 1.388 . S
C1218 C1219 1.390 . S
C1219 C1218 1.390 . S
C1219 C1220 1.394 . S
C1219 C1225 1.465 1_554 S
C1220 C1215 1.399 . S
C1220 C1219 1.394 . S
C1220 C1221 1.516 . S
C1221 C1220 1.516 . S
C1221 C1222 1.502 . S
C1221 C1223 1.561 . S
C1221 C1224 1.526 1_554 S
C1222 H1206 0.959 . S
C1222 H1207 0.959 . S
C1222 H1208 0.961 . S
C1222 C1221 1.502 . S
C1223 H1209 0.960 . S
C1223 H1210 0.961 . S
C1223 H1211 0.959 . S
C1223 C1221 1.561 . S
C1224 C1221 1.526 1_556 S
C1224 C1225 1.396 . S
C1224 C1229 1.390 . S
C1225 C1219 1.465 1_556 S
C1225 C1224 1.396 . S
C1225 C1226 1.399 . S
C1226 H1212 0.929 . S
C1226 C1225 1.399 . S
C1226 C1227 1.385 . S
C1227 H1213 0.931 . S
C1227 C1226 1.385 . S
C1227 C1228 1.389 . S
C1228 C1227 1.389 . S
C1228 C1229 1.387 . S
C1229 H1214 0.930 . S
C1229 C1224 1.390 . S
C1229 C1228 1.387 . S
H1230 C1242 0.930 . S
H1231 C1244 0.930 . S
H1232 C1245 0.930 . S
H1233 C1249 0.959 . S
H1234 C1249 0.959 . S
H1235 C1249 0.961 . S
H1236 C1250 0.960 . S
H1237 C1250 0.961 . S
H1238 C1250 0.959 . S
H1239 C1253 0.929 . S
H1240 C1254 0.931 . S
H1241 C1256 0.930 . S
C1242 H1230 0.930 . S
C1242 C1243 1.399 . S
C1242 C1247 1.399 . S
C1243 C1242 1.399 . S
C1243 C1244 1.376 . S
C1244 H1231 0.930 . S
C1244 C1243 1.376 . S
C1244 C1245 1.388 . S
C1245 H1232 0.930 . S
C1245 C1244 1.388 . S
C1245 C1246 1.390 . S
C1246 C1245 1.390 . S
C1246 C1247 1.394 . S
C1246 C1252 1.465 . S
C1247 C1242 1.399 . S
C1247 C1246 1.394 . S
C1247 C1248 1.516 . S
C1248 C1247 1.516 . S
C1248 C1249 1.502 . S
C1248 C1250 1.561 . S
C1248 C1251 1.526 . S
C1249 H1233 0.959 . S
C1249 H1234 0.959 . S
C1249 H1235 0.961 . S
C1249 C1248 1.502 . S
C1250 H1236 0.960 . S
C1250 H1237 0.961 . S
C1250 H1238 0.959 . S
C1250 C1248 1.561 . S
C1251 C1248 1.526 . S
C1251 C1252 1.396 . S
C1251 C1256 1.390 . S
C1252 C1246 1.465 . S
C1252 C1251 1.396 . S
C1252 C1253 1.399 . S
C1253 H1239 0.929 . S
C1253 C1252 1.399 . S
C1253 C1254 1.385 . S
C1254 H1240 0.931 . S
C1254 C1253 1.385 . S
C1254 C1255 1.389 . S
C1255 C1254 1.389 . S
C1255 C1256 1.387 . S
C1256 H1241 0.930 . S
C1256 C1251 1.390 . S
C1256 C1255 1.387 . S
H1257 C1269 0.930 . S
H1258 C1271 0.930 . S
H1259 C1272 0.930 . S
H1260 C1276 0.959 . S
H1261 C1276 0.959 1_556 S
H1262 C1276 0.961 . S
H1263 C1277 0.960 1_554 S
H1264 C1277 0.961 . S
H1265 C1277 0.959 . S
H1266 C1280 0.929 . S
H1267 C1281 0.931 . S
H1268 C1283 0.930 . S
C1269 H1257 0.930 . S
C1269 C1270 1.399 . S
C1269 C1274 1.399 . S
C1270 C1269 1.399 . S
C1270 C1271 1.376 . S
C1271 H1258 0.930 . S
C1271 C1270 1.376 . S
C1271 C1272 1.388 . S
C1272 H1259 0.930 . S
C1272 C1271 1.388 . S
C1272 C1273 1.390 . S
C1273 C1272 1.390 . S
C1273 C1274 1.394 . S
C1273 C1279 1.465 . S
C1274 C1269 1.399 . S
C1274 C1273 1.394 . S
C1274 C1275 1.516 . S
C1275 C1274 1.516 . S
C1275 C1276 1.502 . S
C1275 C1277 1.561 1_554 S
C1275 C1278 1.530 . S
C1276 H1260 0.959 . S
C1276 H1261 0.959 1_554 S
C1276 H1262 0.961 . S
C1276 C1275 1.502 . S
C1277 H1263 0.960 1_556 S
C1277 H1264 0.961 . S
C1277 H1265 0.959 . S
C1277 C1275 1.561 1_556 S
C1278 C1275 1.530 . S
C1278 C1279 1.406 . S
C1278 C1283 1.377 1_554 S
C1279 C1273 1.465 . S
C1279 C1278 1.406 . S
C1279 C1280 1.399 . S
C1280 H1266 0.929 . S
C1280 C1279 1.399 . S
C1280 C1281 1.385 1_554 S
C1281 H1267 0.931 . S
C1281 C1280 1.385 1_556 S
C1281 C1282 1.389 . S
C1282 C1281 1.389 . S
C1282 C1283 1.387 . S
C1283 H1268 0.930 . S
C1283 C1278 1.377 1_556 S
C1283 C1282 1.387 . S
H1284 C1296 0.930 . S
H1285 C1298 0.930 . S
H1286 C1299 0.930 . S
H1287 C1303 0.959 . S
H1288 C1303 0.959 . S
H1289 C1303 0.961 . S
H1290 C1304 0.960 . S
H1291 C1304 0.961 . S
H1292 C1304 0.959 . S
H1293 C1307 0.929 . S
H1294 C1308 0.931 . S
H1295 C1310 0.930 . S
C1296 H1284 0.930 . S
C1296 C1297 1.399 . S
C1296 C1301 1.399 . S
C1297 C1296 1.399 . S
C1297 C1298 1.376 . S
C1298 H1285 0.930 . S
C1298 C1297 1.376 . S
C1298 C1299 1.388 . S
C1299 H1286 0.930 . S
C1299 C1298 1.388 . S
C1299 C1300 1.390 . S
C1300 C1299 1.390 . S
C1300 C1301 1.394 . S
C1300 C1306 1.465 . S
C1301 C1296 1.399 . S
C1301 C1300 1.394 . S
C1301 C1302 1.516 . S
C1302 C1301 1.516 . S
C1302 C1303 1.502 . S
C1302 C1304 1.561 . S
C1302 C1305 1.526 . S
C1303 H1287 0.959 . S
C1303 H1288 0.959 . S
C1303 H1289 0.961 . S
C1303 C1302 1.502 . S
C1304 H1290 0.960 . S
C1304 H1291 0.961 . S
C1304 H1292 0.959 . S
C1304 C1302 1.561 . S
C1305 C1302 1.526 . S
C1305 C1306 1.396 . S
C1305 C1310 1.390 . S
C1306 C1300 1.465 . S
C1306 C1305 1.396 . S
C1306 C1307 1.399 . S
C1307 H1293 0.929 . S
C1307 C1306 1.399 . S
C1307 C1308 1.385 . S
C1308 H1294 0.931 . S
C1308 C1307 1.385 . S
C1308 C1309 1.389 . S
C1309 C1308 1.389 . S
C1309 C1310 1.387 . S
C1310 H1295 0.930 . S
C1310 C1305 1.390 . S
C1310 C1309 1.387 . S
H1311 C1323 0.930 . S
H1312 C1325 0.930 . S
H1313 C1326 0.930 1_554 S
H1314 C1330 0.959 . S
H1315 C1330 0.959 . S
H1316 C1330 0.961 . S
H1317 C1331 0.960 . S
H1318 C1331 0.961 . S
H1319 C1331 0.959 . S
H1320 C1334 0.929 . S
H1321 C1335 0.931 . S
H1322 C1337 0.930 . S
C1323 H1311 0.930 . S
C1323 C1324 1.399 . S
C1323 C1328 1.399 . S
C1324 C1323 1.399 . S
C1324 C1325 1.376 . S
C1325 H1312 0.930 . S
C1325 C1324 1.376 . S
C1325 C1326 1.388 . S
C1326 H1313 0.930 1_556 S
C1326 C1325 1.388 . S
C1326 C1327 1.386 1_556 S
C1327 C1326 1.386 1_554 S
C1327 C1328 1.365 1_554 S
C1327 C1333 1.495 . S
C1328 C1323 1.399 . S
C1328 C1327 1.365 1_556 S
C1328 C1329 1.516 . S
C1329 C1328 1.516 . S
C1329 C1330 1.502 . S
C1329 C1331 1.561 . S
C1329 C1332 1.526 1_556 S
C1330 H1314 0.959 . S
C1330 H1315 0.959 . S
C1330 H1316 0.961 . S
C1330 C1329 1.502 . S
C1331 H1317 0.960 . S
C1331 H1318 0.961 . S
C1331 H1319 0.959 . S
C1331 C1329 1.561 . S
C1332 C1329 1.526 1_554 S
C1332 C1333 1.396 . S
C1332 C1337 1.390 . S
C1333 C1327 1.495 . S
C1333 C1332 1.396 . S
C1333 C1334 1.399 . S
C1334 H1320 0.929 . S
C1334 C1333 1.399 . S
C1334 C1335 1.385 . S
C1335 H1321 0.931 . S
C1335 C1334 1.385 . S
C1335 C1336 1.389 . S
C1336 C1335 1.389 . S
C1336 C1337 1.387 . S
C1337 H1322 0.930 . S
C1337 C1332 1.390 . S
C1337 C1336 1.387 . S
H1338 C1350 0.930 . S
H1339 C1352 0.930 . S
H1340 C1353 0.930 . S
H1341 C1357 0.959 . S
H1342 C1357 0.959 . S
H1343 C1357 0.961 . S
H1344 C1358 0.960 . S
H1345 C1358 0.961 . S
H1346 C1358 0.959 . S
H1347 C1361 0.929 . S
H1348 C1362 0.931 . S
H1349 C1364 0.930 . S
C1350 H1338 0.930 . S
C1350 C1351 1.399 . S
C1350 C1355 1.399 . S
C1351 C1350 1.399 . S
C1351 C1352 1.376 . S
C1352 H1339 0.930 . S
C1352 C1351 1.376 . S
C1352 C1353 1.388 . S
C1353 H1340 0.930 . S
C1353 C1352 1.388 . S
C1353 C1354 1.390 . S
C1354 C1353 1.390 . S
C1354 C1355 1.394 . S
C1354 C1360 1.465 . S
C1355 C1350 1.399 . S
C1355 C1354 1.394 . S
C1355 C1356 1.516 . S
C1356 C1355 1.516 . S
C1356 C1357 1.502 . S
C1356 C1358 1.561 . S
C1356 C1359 1.526 . S
C1357 H1341 0.959 . S
C1357 H1342 0.959 . S
C1357 H1343 0.961 . S
C1357 C1356 1.502 . S
C1358 H1344 0.960 . S
C1358 H1345 0.961 . S
C1358 H1346 0.959 . S
C1358 C1356 1.561 . S
C1359 C1356 1.526 . S
C1359 C1360 1.396 . S
C1359 C1364 1.390 . S
C1360 C1354 1.465 . S
C1360 C1359 1.396 . S
C1360 C1361 1.399 . S
C1361 H1347 0.929 . S
C1361 C1360 1.399 . S
C1361 C1362 1.385 . S
C1362 H1348 0.931 . S
C1362 C1361 1.385 . S
C1362 C1363 1.389 . S
C1363 C1362 1.389 . S
C1363 C1364 1.387 . S
C1364 H1349 0.930 . S
C1364 C1359 1.390 . S
C1364 C1363 1.387 . S
H1365 C1377 0.929 . S
H1366 C1379 0.930 . S
H1367 C1380 0.930 . S
H1368 C1384 0.959 . S
H1369 C1384 0.959 . S
H1370 C1384 0.961 . S
H1371 C1385 0.960 . S
H1372 C1385 0.961 . S
H1373 C1385 0.959 . S
H1374 C1388 0.929 . S
H1375 C1389 0.931 . S
H1376 C1391 0.930 . S
C1377 H1365 0.929 . S
C1377 C1378 1.399 . S
C1377 C1382 1.399 1_556 S
C1378 C1377 1.399 . S
C1378 C1379 1.376 . S
C1379 H1366 0.930 . S
C1379 C1378 1.376 . S
C1379 C1380 1.388 . S
C1380 H1367 0.930 . S
C1380 C1379 1.388 . S
C1380 C1381 1.390 1_556 S
C1381 C1380 1.390 1_554 S
C1381 C1382 1.394 . S
C1381 C1387 1.465 . S
C1382 C1377 1.399 1_554 S
C1382 C1381 1.394 . S
C1382 C1383 1.516 . S
C1383 C1382 1.516 . S
C1383 C1384 1.502 . S
C1383 C1385 1.561 . S
C1383 C1386 1.526 . S
C1384 H1368 0.959 . S
C1384 H1369 0.959 . S
C1384 H1370 0.961 . S
C1384 C1383 1.502 . S
C1385 H1371 0.960 . S
C1385 H1372 0.961 . S
C1385 H1373 0.959 . S
C1385 C1383 1.561 . S
C1386 C1383 1.526 . S
C1386 C1387 1.396 . S
C1386 C1391 1.390 . S
C1387 C1381 1.465 . S
C1387 C1386 1.396 . S
C1387 C1388 1.399 . S
C1388 H1374 0.929 . S
C1388 C1387 1.399 . S
C1388 C1389 1.385 . S
C1389 H1375 0.931 . S
C1389 C1388 1.385 . S
C1389 C1390 1.389 . S
C1390 C1389 1.389 . S
C1390 C1391 1.387 . S
C1391 H1376 0.930 . S
C1391 C1386 1.390 . S
C1391 C1390 1.387 . S
H1392 C1404 0.930 . S
H1393 C1406 0.930 . S
H1394 C1407 0.930 . S
H1395 C1411 0.959 . S
H1396 C1411 0.959 . S
H1397 C1411 0.961 . S
H1398 C1412 0.960 . S
H1399 C1412 0.961 . S
H1400 C1412 0.959 . S
H1401 C1415 0.929 . S
H1402 C1416 0.931 . S
H1403 C1418 0.930 . S
C1404 H1392 0.930 . S
C1404 C1405 1.399 . S
C1404 C1409 1.399 . S
C1405 C1404 1.399 . S
C1405 C1406 1.376 . S
C1406 H1393 0.930 . S
C1406 C1405 1.376 . S
C1406 C1407 1.388 . S
C1407 H1394 0.930 . S
C1407 C1406 1.388 . S
C1407 C1408 1.390 . S
C1408 C1407 1.390 . S
C1408 C1409 1.394 . S
C1408 C1414 1.465 . S
C1409 C1404 1.399 . S
C1409 C1408 1.394 . S
C1409 C1410 1.516 . S
C1410 C1409 1.516 . S
C1410 C1411 1.502 . S
C1410 C1412 1.561 . S
C1410 C1413 1.526 . S
C1411 H1395 0.959 . S
C1411 H1396 0.959 . S
C1411 H1397 0.961 . S
C1411 C1410 1.502 . S
C1412 H1398 0.960 . S
C1412 H1399 0.961 . S
C1412 H1400 0.959 . S
C1412 C1410 1.561 . S
C1413 C1410 1.526 . S
C1413 C1414 1.396 . S
C1413 C1418 1.390 . S
C1414 C1408 1.465 . S
C1414 C1413 1.396 . S
C1414 C1415 1.399 . S
C1415 H1401 0.929 . S
C1415 C1414 1.399 . S
C1415 C1416 1.385 . S
C1416 H1402 0.931 . S
C1416 C1415 1.385 . S
C1416 C1417 1.389 . S
C1417 C1416 1.389 . S
C1417 C1418 1.387 . S
C1418 H1403 0.930 . S
C1418 C1413 1.390 . S
C1418 C1417 1.387 . S
H1419 C1431 0.930 . S
H1420 C1433 0.930 . S
H1421 C1434 0.930 . S
H1422 C1438 0.959 . S
H1423 C1438 0.959 . S
H1424 C1438 0.961 . S
H1425 C1439 0.960 . S
H1426 C1439 0.961 . S
H1427 C1439 0.959 . S
H1428 C1442 0.929 . S
H1429 C1443 0.931 . S
H1430 C1445 0.930 . S
C1431 H1419 0.930 . S
C1431 C1432 1.399 . S
C1431 C1436 1.399 . S
C1432 C1431 1.399 . S
C1432 C1433 1.376 . S
C1433 H1420 0.930 . S
C1433 C1432 1.376 . S
C1433 C1434 1.388 . S
C1434 H1421 0.930 . S
C1434 C1433 1.388 . S
C1434 C1435 1.390 . S
C1435 C1434 1.390 . S
C1435 C1436 1.394 . S
C1435 C1441 1.465 . S
C1436 C1431 1.399 . S
C1436 C1435 1.394 . S
C1436 C1437 1.516 . S
C1437 C1436 1.516 . S
C1437 C1438 1.502 . S
C1437 C1439 1.561 . S
C1437 C1440 1.526 . S
C1438 H1422 0.959 . S
C1438 H1423 0.959 . S
C1438 H1424 0.961 . S
C1438 C1437 1.502 . S
C1439 H1425 0.960 . S
C1439 H1426 0.961 . S
C1439 H1427 0.959 . S
C1439 C1437 1.561 . S
C1440 C1437 1.526 . S
C1440 C1441 1.396 . S
C1440 C1445 1.390 . S
C1441 C1435 1.465 . S
C1441 C1440 1.396 . S
C1441 C1442 1.399 . S
C1442 H1428 0.929 . S
C1442 C1441 1.399 . S
C1442 C1443 1.385 . S
C1443 H1429 0.931 . S
C1443 C1442 1.385 . S
C1443 C1444 1.389 . S
C1444 C1443 1.389 . S
C1444 C1445 1.387 . S
C1445 H1430 0.930 . S
C1445 C1440 1.390 . S
C1445 C1444 1.387 . S
H1446 C1458 0.930 . S
H1447 C1460 0.930 . S
H1448 C1461 0.930 . S
H1449 C1465 0.959 . S
H1450 C1465 0.959 . S
H1451 C1465 0.961 . S
H1452 C1466 0.960 . S
H1453 C1466 0.961 . S
H1454 C1466 0.959 . S
H1455 C1469 0.929 . S
H1456 C1470 0.931 . S
H1457 C1472 0.930 . S
C1458 H1446 0.930 . S
C1458 C1459 1.399 . S
C1458 C1463 1.399 . S
C1459 C1458 1.399 . S
C1459 C1460 1.376 . S
C1460 H1447 0.930 . S
C1460 C1459 1.376 . S
C1460 C1461 1.388 . S
C1461 H1448 0.930 . S
C1461 C1460 1.388 . S
C1461 C1462 1.390 . S
C1462 C1461 1.390 . S
C1462 C1463 1.394 . S
C1462 C1468 1.465 . S
C1463 C1458 1.399 . S
C1463 C1462 1.394 . S
C1463 C1464 1.516 . S
C1464 C1463 1.516 . S
C1464 C1465 1.502 . S
C1464 C1466 1.561 . S
C1464 C1467 1.526 . S
C1465 H1449 0.959 . S
C1465 H1450 0.959 . S
C1465 H1451 0.961 . S
C1465 C1464 1.502 . S
C1466 H1452 0.960 . S
C1466 H1453 0.961 . S
C1466 H1454 0.959 . S
C1466 C1464 1.561 . S
C1467 C1464 1.526 . S
C1467 C1468 1.396 . S
C1467 C1472 1.390 . S
C1468 C1462 1.465 . S
C1468 C1467 1.396 . S
C1468 C1469 1.399 . S
C1469 H1455 0.929 . S
C1469 C1468 1.399 . S
C1469 C1470 1.385 . S
C1470 H1456 0.931 . S
C1470 C1469 1.385 . S
C1470 C1471 1.389 . S
C1471 C1470 1.389 . S
C1471 C1472 1.387 . S
C1472 H1457 0.930 . S
C1472 C1467 1.390 . S
C1472 C1471 1.387 . S
H1473 C1485 0.930 . S
H1474 C1487 0.930 . S
H1475 C1488 0.930 . S
H1476 C1492 0.959 . S
H1477 C1492 0.959 . S
H1478 C1492 0.961 . S
H1479 C1493 0.960 . S
H1480 C1493 0.961 . S
H1481 C1493 0.959 . S
H1482 C1496 0.929 . S
H1483 C1497 0.931 . S
H1484 C1499 0.930 . S
C1485 H1473 0.930 . S
C1485 C1486 1.399 . S
C1485 C1490 1.399 . S
C1486 C1485 1.399 . S
C1486 C1487 1.376 . S
C1487 H1474 0.930 . S
C1487 C1486 1.376 . S
C1487 C1488 1.388 . S
C1488 H1475 0.930 . S
C1488 C1487 1.388 . S
C1488 C1489 1.390 . S
C1489 C1488 1.390 . S
C1489 C1490 1.394 . S
C1489 C1495 1.465 . S
C1490 C1485 1.399 . S
C1490 C1489 1.394 . S
C1490 C1491 1.516 . S
C1491 C1490 1.516 . S
C1491 C1492 1.502 . S
C1491 C1493 1.561 . S
C1491 C1494 1.526 . S
C1492 H1476 0.959 . S
C1492 H1477 0.959 . S
C1492 H1478 0.961 . S
C1492 C1491 1.502 . S
C1493 H1479 0.960 . S
C1493 H1480 0.961 . S
C1493 H1481 0.959 . S
C1493 C1491 1.561 . S
C1494 C1491 1.526 . S
C1494 C1495 1.396 . S
C1494 C1499 1.390 . S
C1495 C1489 1.465 . S
C1495 C1494 1.396 . S
C1495 C1496 1.399 . S
C1496 H1482 0.929 . S
C1496 C1495 1.399 . S
C1496 C1497 1.385 . S
C1497 H1483 0.931 . S
C1497 C1496 1.385 . S
C1497 C1498 1.389 . S
C1498 C1497 1.389 . S
C1498 C1499 1.387 . S
C1499 H1484 0.930 . S
C1499 C1494 1.390 . S
C1499 C1498 1.387 . S
H1500 C1512 0.930 . S
H1501 C1514 0.930 . S
H1502 C1515 0.930 . S
H1503 C1519 0.959 . S
H1504 C1519 0.959 . S
H1505 C1519 0.961 . S
H1506 C1520 0.960 . S
H1507 C1520 0.961 . S
H1508 C1520 0.959 . S
H1509 C1523 0.901 1_554 S
H1510 C1524 0.931 1_554 S
H1511 C1526 0.930 . S
C1512 H1500 0.930 . S
C1512 C1513 1.399 . S
C1512 C1517 1.399 . S
C1513 C1512 1.399 . S
C1513 C1514 1.376 . S
C1514 H1501 0.930 . S
C1514 C1513 1.376 . S
C1514 C1515 1.388 . S
C1515 H1502 0.930 . S
C1515 C1514 1.388 . S
C1515 C1516 1.390 . S
C1516 C1515 1.390 . S
C1516 C1517 1.394 . S
C1516 C1522 1.465 . S
C1517 C1512 1.399 . S
C1517 C1516 1.394 . S
C1517 C1518 1.516 . S
C1518 C1517 1.516 . S
C1518 C1519 1.502 . S
C1518 C1520 1.561 . S
C1518 C1521 1.526 . S
C1519 H1503 0.959 . S
C1519 H1504 0.959 . S
C1519 H1505 0.961 . S
C1519 C1518 1.502 . S
C1520 H1506 0.960 . S
C1520 H1507 0.961 . S
C1520 H1508 0.959 . S
C1520 C1518 1.561 . S
C1521 C1518 1.526 . S
C1521 C1522 1.396 . S
C1521 C1526 1.390 . S
C1522 C1516 1.465 . S
C1522 C1521 1.396 . S
C1522 C1523 1.399 . S
C1523 H1509 0.901 1_556 S
C1523 C1522 1.399 . S
C1523 C1524 1.385 . S
C1524 H1510 0.931 1_556 S
C1524 C1523 1.385 . S
C1524 C1525 1.389 . S
C1525 C1524 1.389 . S
C1525 C1526 1.387 . S
C1526 H1511 0.930 . S
C1526 C1521 1.390 . S
C1526 C1525 1.387 . S
H1527 C1539 0.930 . S
H1528 C1541 0.930 . S
H1529 C1542 0.930 . S
H1530 C1546 0.959 . S
H1531 C1546 0.959 . S
H1532 C1546 0.961 . S
H1533 C1547 0.960 . S
H1534 C1547 0.961 . S
H1535 C1547 0.959 . S
H1536 C1550 0.929 . S
H1537 C1551 0.931 . S
H1538 C1553 0.930 . S
C1539 H1527 0.930 . S
C1539 C1540 1.399 . S
C1539 C1544 1.399 . S
C1540 C1539 1.399 . S
C1540 C1541 1.376 . S
C1541 H1528 0.930 . S
C1541 C1540 1.376 . S
C1541 C1542 1.388 . S
C1542 H1529 0.930 . S
C1542 C1541 1.388 . S
C1542 C1543 1.390 . S
C1543 C1542 1.390 . S
C1543 C1544 1.394 . S
C1543 C1549 1.465 . S
C1544 C1539 1.399 . S
C1544 C1543 1.394 . S
C1544 C1545 1.516 . S
C1545 C1544 1.516 . S
C1545 C1546 1.502 . S
C1545 C1547 1.561 . S
C1545 C1548 1.526 . S
C1546 H1530 0.959 . S
C1546 H1531 0.959 . S
C1546 H1532 0.961 . S
C1546 C1545 1.502 . S
C1547 H1533 0.960 . S
C1547 H1534 0.961 . S
C1547 H1535 0.959 . S
C1547 C1545 1.561 . S
C1548 C1545 1.526 . S
C1548 C1549 1.396 . S
C1548 C1553 1.390 . S
C1549 C1543 1.465 . S
C1549 C1548 1.396 . S
C1549 C1550 1.399 . S
C1550 H1536 0.929 . S
C1550 C1549 1.399 . S
C1550 C1551 1.385 . S
C1551 H1537 0.931 . S
C1551 C1550 1.385 . S
C1551 C1552 1.389 . S
C1552 C1551 1.389 . S
C1552 C1553 1.387 . S
C1553 H1538 0.930 . S
C1553 C1548 1.390 . S
C1553 C1552 1.387 . S
H1554 C1566 0.930 . S
H1555 C1568 0.930 . S
H1556 C1569 0.930 . S
H1557 C1573 0.959 . S
H1558 C1573 0.984 . S
H1559 C1573 0.961 . S
H1560 C1574 0.968 . S
H1561 C1574 0.961 1_556 S
H1562 C1574 0.959 . S
H1563 C1577 0.929 . S
H1564 C1578 0.931 . S
H1565 C1580 0.930 . S
C1566 H1554 0.930 . S
C1566 C1567 1.399 . S
C1566 C1571 1.399 . S
C1567 C1566 1.399 . S
C1567 C1568 1.376 . S
C1568 H1555 0.930 . S
C1568 C1567 1.376 . S
C1568 C1569 1.388 . S
C1569 H1556 0.930 . S
C1569 C1568 1.388 . S
C1569 C1570 1.390 . S
C1570 C1569 1.390 . S
C1570 C1571 1.394 . S
C1570 C1576 1.465 . S
C1571 C1566 1.399 . S
C1571 C1570 1.394 . S
C1571 C1572 1.516 . S
C1572 C1571 1.516 . S
C1572 C1573 1.502 . S
C1572 C1574 1.561 . S
C1572 C1575 1.526 . S
C1573 H1557 0.959 . S
C1573 H1558 0.984 . S
C1573 H1559 0.961 . S
C1573 C1572 1.502 . S
C1574 H1560 0.968 . S
C1574 H1561 0.961 1_554 S
C1574 H1562 0.959 . S
C1574 C1572 1.561 . S
C1575 C1572 1.526 . S
C1575 C1576 1.396 . S
C1575 C1580 1.390 . S
C1576 C1570 1.465 . S
C1576 C1575 1.396 . S
C1576 C1577 1.399 . S
C1577 H1563 0.929 . S
C1577 C1576 1.399 . S
C1577 C1578 1.385 . S
C1578 H1564 0.931 . S
C1578 C1577 1.385 . S
C1578 C1579 1.389 . S
C1579 C1578 1.389 . S
C1579 C1580 1.387 . S
C1580 H1565 0.930 . S
C1580 C1575 1.390 . S
C1580 C1579 1.387 . S
H1581 C1593 0.930 . S
H1582 C1595 0.930 . S
H1583 C1596 0.930 . S
H1584 C1600 0.959 . S
H1585 C1600 0.959 . S
H1586 C1600 0.961 . S
H1587 C1601 0.960 . S
H1588 C1601 0.961 . S
H1589 C1601 0.959 . S
H1590 C1604 0.929 . S
H1591 C1605 0.931 1_565 S
H1592 C1607 0.930 1_565 S
C1593 H1581 0.930 . S
C1593 C1594 1.399 . S
C1593 C1598 1.399 . S
C1594 C1593 1.399 . S
C1594 C1595 1.376 . S
C1595 H1582 0.930 . S
C1595 C1594 1.376 . S
C1595 C1596 1.388 . S
C1596 H1583 0.930 . S
C1596 C1595 1.388 . S
C1596 C1597 1.390 . S
C1597 C1596 1.390 . S
C1597 C1598 1.394 . S
C1597 C1603 1.465 . S
C1598 C1593 1.399 . S
C1598 C1597 1.394 . S
C1598 C1599 1.516 . S
C1599 C1598 1.516 . S
C1599 C1600 1.502 . S
C1599 C1601 1.561 . S
C1599 C1602 1.526 . S
C1600 H1584 0.959 . S
C1600 H1585 0.959 . S
C1600 H1586 0.961 . S
C1600 C1599 1.502 . S
C1601 H1587 0.960 . S
C1601 H1588 0.961 . S
C1601 H1589 0.959 . S
C1601 C1599 1.561 . S
C1602 C1599 1.526 . S
C1602 C1603 1.396 . S
C1602 C1607 1.390 . S
C1603 C1597 1.465 . S
C1603 C1602 1.396 . S
C1603 C1604 1.399 . S
C1604 H1590 0.929 . S
C1604 C1603 1.399 . S
C1604 C1605 1.385 . S
C1605 H1591 0.931 1_545 S
C1605 C1604 1.385 . S
C1605 C1606 1.389 1_545 S
C1606 C1605 1.389 1_565 S
C1606 C1607 1.387 1_565 S
C1607 H1592 0.930 1_545 S
C1607 C1602 1.390 . S
C1607 C1606 1.387 1_545 S
C337 C152 1.569 1_556 S
C325 C50 1.587 . S
C364 C167 1.611 . S
C352 C61 1.680 . S
C379 C67 1.656 . S
C391 C180 1.647 . S
C418 C194 1.500 . S
C406 C41 1.484 . S
C445 C206 1.624 . S
C433 C95 1.646 . S
C472 C220 1.248 . S
C460 C113 1.259 . S
C487 C106 1.696 . S
C499 C234 1.629 . S
C526 C249 1.388 . S
C514 C86 1.410 . S
C541 C104 1.621 . S
C553 C265 1.621 . S
C580 C278 1.485 . S
C568 C88 1.460 . S
C595 C94 1.581 . S
C607 C263 1.503 . S
C634 C276 1.399 . S
C622 C112 1.421 . S
C649 C70 1.765 . S
C661 C292 1.744 . S
C676 C40 1.477 . S
C688 C291 1.455 . S
C703 C49 1.692 . S
C715 C290 1.605 . S
C730 C59 1.579 . S
C742 C293 1.587 . S
C757 C34 1.636 . S
C769 C195 1.620 1_565 S
C784 C133 1.490 . S
C796 C193 1.437 . S
C823 C153 1.479 . S
C811 C139 1.505 . S
C850 C164 1.659 . S
C838 C77 1.711 . S
C865 C43 1.550 . S
C877 C209 1.500 . S
C904 C250 1.800 . S
C892 C103 1.812 . S
C931 C207 1.415 . S
C919 C85 1.421 . S
C958 C235 1.427 . S
C946 C115 1.436 . S
C985 C236 1.576 . S
C973 C131 1.592 . S
C1000 C142 1.676 . S
C1012 C251 1.624 . S
C1027 C76 1.655 . S
C1039 C208 1.641 . S
C1066 C222 1.452 . S
C1054 C122 1.525 . S
C1081 C32 1.660 . S
C1093 C178 1.573 . S
C1120 C192 1.298 . S
C1108 C5 1.311 . S
C1147 C150 1.671 . S
C1135 C16 1.699 . S
C1174 C165 1.392 . S
C1162 C23 1.408 . S
C1189 C14 1.622 . S
C1201 C279 1.622 . S
C1216 C25 1.475 . S
C1228 C264 1.477 . S
C1243 C31 1.574 . S
C1255 C277 1.547 . S
C1270 C4 1.397 . S
C1282 C262 1.383 . S
C1309 C306 1.740 . S
C1297 C79 1.764 . S
C1336 C305 1.495 . S
C1324 C121 1.482 . S
C1363 C304 1.602 . S
C1351 C130 1.693 . S
C1378 C140 1.581 . S
C1390 C307 1.554 . S
C1405 C97 1.627 . S
C1417 C223 1.644 . S
C1444 C221 1.490 . S
C1432 C52 1.489 . S
C1471 C237 1.500 . S
C1459 C58 1.497 . S
C1498 C248 1.659 . S
C1486 C68 1.710 . S
C1513 C124 1.523 . S
C1525 C181 1.537 . S
C1552 C166 1.802 . S
C1540 C13 1.812 . S
C1567 C22 1.470 . S
C1579 C179 1.464 . S
C1606 C151 1.424 . S
C1594 C7 1.437 . S
