# Generated by pormake.
# Topology cml, (3,6)-cn, num edge types: 1
# Building blocks:
#     Node 0, Type 0, BuildingBlock: ESEHIV_clean_linker_0, # of connection points: 3
#     Node 1, Type 0, BuildingBlock: ESEHIV_clean_linker_0, # of connection points: 3
#     Node 2, Type 0, BuildingBlock: ESEHIV_clean_linker_0, # of connection points: 3
#     Node 3, Type 0, BuildingBlock: ESEHIV_clean_linker_0, # of connection points: 3
#     Node 4, Type 0, BuildingBlock: ESEHIV_clean_linker_0, # of connection points: 3
#     Node 5, Type 0, BuildingBlock: ESEHIV_clean_linker_0, # of connection points: 3
#     Node 6, Type 0, BuildingBlock: ESEHIV_clean_linker_0, # of connection points: 3
#     Node 7, Type 0, BuildingBlock: ESEHIV_clean_linker_0, # of connection points: 3
#     Node 8, Type 1, BuildingBlock: IZENUY_clean_sbu_0, # of connection points: 6
#     Node 9, Type 1, BuildingBlock: IZENUY_clean_sbu_0, # of connection points: 6
#     Node 10, Type 1, BuildingBlock: IZENUY_clean_sbu_0, # of connection points: 6
#     Node 11, Type 1, BuildingBlock: IZENUY_clean_sbu_0, # of connection points: 6
#     Edge 12, Type (0, 1), BuildingBlock: XUDNAN_clean_linker_2, # of connection points: 2
#     Edge 13, Type (0, 1), BuildingBlock: XUDNAN_clean_linker_2, # of connection points: 2
#     Edge 14, Type (0, 1), BuildingBlock: XUDNAN_clean_linker_2, # of connection points: 2
#     Edge 15, Type (0, 1), BuildingBlock: XUDNAN_clean_linker_2, # of connection points: 2
#     Edge 16, Type (0, 1), BuildingBlock: XUDNAN_clean_linker_2, # of connection points: 2
#     Edge 17, Type (0, 1), BuildingBlock: XUDNAN_clean_linker_2, # of connection points: 2
#     Edge 18, Type (0, 1), BuildingBlock: XUDNAN_clean_linker_2, # of connection points: 2
#     Edge 19, Type (0, 1), BuildingBlock: XUDNAN_clean_linker_2, # of connection points: 2
#     Edge 20, Type (0, 1), BuildingBlock: XUDNAN_clean_linker_2, # of connection points: 2
#     Edge 21, Type (0, 1), BuildingBlock: XUDNAN_clean_linker_2, # of connection points: 2
#     Edge 22, Type (0, 1), BuildingBlock: XUDNAN_clean_linker_2, # of connection points: 2
#     Edge 23, Type (0, 1), BuildingBlock: XUDNAN_clean_linker_2, # of connection points: 2
#     Edge 24, Type (0, 1), BuildingBlock: XUDNAN_clean_linker_2, # of connection points: 2
#     Edge 25, Type (0, 1), BuildingBlock: XUDNAN_clean_linker_2, # of connection points: 2
#     Edge 26, Type (0, 1), BuildingBlock: XUDNAN_clean_linker_2, # of connection points: 2
#     Edge 27, Type (0, 1), BuildingBlock: XUDNAN_clean_linker_2, # of connection points: 2
#     Edge 28, Type (0, 1), BuildingBlock: XUDNAN_clean_linker_2, # of connection points: 2
#     Edge 29, Type (0, 1), BuildingBlock: XUDNAN_clean_linker_2, # of connection points: 2
#     Edge 30, Type (0, 1), BuildingBlock: XUDNAN_clean_linker_2, # of connection points: 2
#     Edge 31, Type (0, 1), BuildingBlock: XUDNAN_clean_linker_2, # of connection points: 2
#     Edge 32, Type (0, 1), BuildingBlock: XUDNAN_clean_linker_2, # of connection points: 2
#     Edge 33, Type (0, 1), BuildingBlock: XUDNAN_clean_linker_2, # of connection points: 2
#     Edge 34, Type (0, 1), BuildingBlock: XUDNAN_clean_linker_2, # of connection points: 2
#     Edge 35, Type (0, 1), BuildingBlock: XUDNAN_clean_linker_2, # of connection points: 2
# Relax obj value: 0.055
# Max RMSD: 0.070
# Mean RMSD: 0.067
data_MOF--net-cml--node1-IZENUY_clean_sbu_0--node2-ESEHIV_clean_linker_0--edge1-XUDNAN_clean_linker_2
_symmetry_space_group_name_H-M    P1
_symmetry_Int_Tables_number       1
_symmetry_cell_setting            triclinic
loop_
_symmetry_equiv_pos_as_xyz
'x, y, z'
_cell_length_a     33.263093
_cell_length_b     38.671271
_cell_length_c     35.955061
_cell_angle_alpha  89.956414
_cell_angle_beta   89.921193
_cell_angle_gamma 90.219219
loop_
_atom_site_label
_atom_site_type_symbol
_atom_site_fract_x
_atom_site_fract_y
_atom_site_fract_z
_atom_type_partial_charge
H0 H 0.35901 0.39312 0.01756 0.0
H1 H 0.27445 0.35943 0.93423 0.0
H2 H 0.27898 0.30804 0.03963 0.0
C3 C 0.33434 0.3766 0.00911 0.0
C4 C 0.32104 0.35028 0.03331 0.0
C5 C 0.31729 0.38076 0.97344 0.0
C6 C 0.2874 0.3572 0.96173 0.0
C7 C 0.27476 0.33008 0.98502 0.0
C8 C 0.29055 0.3278 0.02109 0.0
H9 H 0.66932 0.61446 0.53192 0.0
H10 H 0.75818 0.63153 0.44703 0.0
H11 H 0.76272 0.69047 0.54824 0.0
C12 C 0.69569 0.6281 0.52185 0.0
C13 C 0.71405 0.65334 0.54442 0.0
C14 C 0.71125 0.6201 0.48658 0.0
C15 C 0.74568 0.63772 0.47405 0.0
C16 C 0.76441 0.66318 0.49592 0.0
C17 C 0.74832 0.67101 0.5311 0.0
H18 H 0.6694 0.4092 0.02942 0.0
H19 H 0.75709 0.33187 0.05405 0.0
H20 H 0.75623 0.38011 0.94599 0.0
C21 C 0.69482 0.39382 0.02051 0.0
C22 C 0.71054 0.39764 0.98438 0.0
C23 C 0.71209 0.37059 0.04566 0.0
C24 C 0.74457 0.35022 0.03446 0.0
C25 C 0.76044 0.35298 0.9983 0.0
C26 C 0.74328 0.3769 0.97344 0.0
H27 H 0.33369 0.60981 0.52871 0.0
H28 H 0.2791 0.64982 0.42958 0.0
H29 H 0.27893 0.71055 0.52959 0.0
C30 C 0.31829 0.63047 0.51429 0.0
C31 C 0.30863 0.66096 0.5337 0.0
C32 C 0.30835 0.62626 0.47658 0.0
C33 C 0.28677 0.65255 0.4587 0.0
C34 C 0.27539 0.68269 0.47774 0.0
C35 C 0.28637 0.68676 0.51529 0.0
H36 H 0.82193 0.9139 0.03788 0.0
H37 H 0.7693 0.86644 0.94161 0.0
H38 H 0.766 0.81438 0.04824 0.0
C39 C 0.80624 0.89223 0.02526 0.0
C40 C 0.79601 0.86348 0.04699 0.0
C41 C 0.79678 0.89332 0.98737 0.0
C42 C 0.77647 0.86532 0.97097 0.0
C43 C 0.76472 0.83648 0.99262 0.0
C44 C 0.77529 0.83574 0.03069 0.0
H45 H 0.16977 0.10555 0.53127 0.0
H46 H 0.25262 0.13899 0.44648 0.0
H47 H 0.25122 0.18988 0.55227 0.0
C48 C 0.19478 0.12171 0.52277 0.0
C49 C 0.20857 0.14796 0.54667 0.0
C50 C 0.21111 0.11755 0.48689 0.0
C51 C 0.24084 0.14097 0.47449 0.0
C52 C 0.25412 0.16799 0.49753 0.0
C53 C 0.23931 0.17008 0.53402 0.0
H54 H 0.18142 0.91667 0.02785 0.0
H55 H 0.24889 0.82535 0.05211 0.0
H56 H 0.23714 0.86029 0.93856 0.0
C57 C 0.19939 0.89517 0.01807 0.0
C58 C 0.20685 0.8912 0.97988 0.0
C59 C 0.21385 0.87133 0.044 0.0
C60 C 0.23741 0.84354 0.03183 0.0
C61 C 0.24706 0.83986 0.9938 0.0
C62 C 0.23137 0.86376 0.96798 0.0
H63 H 0.83206 0.09729 0.53765 0.0
H64 H 0.75046 0.12428 0.44961 0.0
H65 H 0.76329 0.19067 0.54513 0.0
C66 C 0.81093 0.11539 0.52558 0.0
C67 C 0.79998 0.14503 0.54551 0.0
C68 C 0.79362 0.10794 0.49085 0.0
C69 C 0.76503 0.13067 0.47568 0.0
C70 C 0.75313 0.16021 0.49572 0.0
C71 C 0.77166 0.16755 0.53 0.0
Fe72 Fe 0.00821 0.83658 0.31428 0.0
Fe73 Fe 0.0073 0.87618 0.38854 0.0
O74 O 1.00363 0.87604 0.33922 0.0
Fe75 Fe 0.99628 0.91528 0.31464 0.0
O76 O 0.96607 0.89553 0.27777 0.0
O77 O 0.9583 0.84096 0.29418 0.0
O78 O 0.9856 0.80975 0.35101 0.0
C79 C 0.96324 0.81718 0.37838 0.0
C80 C 0.05151 0.88369 0.26944 0.0
O81 O 0.96482 0.84673 0.39313 0.0
C82 C 0.05111 0.93441 0.37097 0.0
O83 O 0.05846 0.82983 0.33234 0.0
O84 O 0.04381 0.84057 0.39087 0.0
O85 O 0.04287 0.90968 0.28896 0.0
O86 O 0.03191 0.8558 0.27298 0.0
C87 C 0.94548 0.92489 0.37364 0.0
O88 O 0.05012 0.90574 0.38776 0.0
O89 O 0.02482 0.94203 0.34704 0.0
C90 C 0.06749 0.82872 0.36639 0.0
O91 O 0.97148 0.91163 0.39499 0.0
O92 O 0.94952 0.92413 0.33877 0.0
C93 C 0.94674 0.8673 0.2764 0.0
Fe94 Fe 1.0026 0.12916 0.89416 0.0
Fe95 Fe 0.99665 0.10255 0.81429 0.0
O96 O 1.00048 0.13755 0.8459 0.0
Fe97 Fe 1.00242 0.1808 0.82973 0.0
O98 O 0.03652 0.19594 0.8669 0.0
O99 O 0.05217 0.14836 0.89717 0.0
O100 O 0.02726 0.08691 0.88969 0.0
C101 C 0.04898 0.07484 0.86392 0.0
C102 C 0.9554 0.18995 0.8908 0.0
O103 O 0.04341 0.08391 0.83071 0.0
C104 C 0.94526 0.14867 0.7822 0.0
O105 O 0.95312 0.10953 0.89331 0.0
O106 O 0.96589 0.07532 0.84582 0.0
O107 O 0.9577 0.19252 0.85593 0.0
O108 O 0.97851 0.16974 0.90822 0.0
C109 C 0.05009 0.14925 0.77793 0.0
O110 O 0.94998 0.11878 0.79539 0.0
O111 O 0.96946 0.17305 0.78957 0.0
C112 C 0.94434 0.08356 0.87362 0.0
O113 O 0.02635 0.12354 0.77734 0.0
O114 O 0.04693 0.17237 0.80243 0.0
C115 C 0.06035 0.17901 0.88756 0.0
Fe116 Fe 0.50837 0.3297 0.32702 0.0
Fe117 Fe 0.50685 0.38106 0.39229 0.0
O118 O 0.5077 0.37289 0.34385 0.0
Fe119 Fe 0.50757 0.40821 0.31253 0.0
O120 O 0.47938 0.38594 0.27578 0.0
O121 O 0.46271 0.33594 0.3004 0.0
O122 O 0.47615 0.31243 0.3647 0.0
C123 C 0.45266 0.32785 0.38706 0.0
C124 C 0.56234 0.36573 0.27927 0.0
O125 O 0.45932 0.35867 0.39688 0.0
C126 C 0.5598 0.4307 0.37003 0.0
O127 O 0.55433 0.3196 0.35225 0.0
O128 O 0.53477 0.34218 0.40512 0.0
O129 O 0.55521 0.39503 0.293 0.0
O130 O 0.54017 0.33979 0.28633 0.0
C131 C 0.45483 0.43243 0.36403 0.0
O132 O 0.55442 0.40443 0.39042 0.0
O133 O 0.53637 0.43694 0.34312 0.0
C134 C 0.5577 0.32232 0.38703 0.0
O135 O 0.47838 0.42134 0.38885 0.0
O136 O 0.45967 0.42389 0.33045 0.0
C137 C 0.45794 0.35886 0.27587 0.0
Fe138 Fe 0.50406 0.62985 0.88713 0.0
Fe139 Fe 0.5055 0.60622 0.80574 0.0
O140 O 0.50374 0.63999 0.83904 0.0
Fe141 Fe 0.50183 0.68382 0.82396 0.0
O142 O 0.54825 0.69442 0.84804 0.0
O143 O 0.53354 0.66798 0.90067 0.0
O144 O 0.55148 0.60683 0.88368 0.0
C145 C 0.5576 0.58164 0.8622 0.0
C146 C 0.449 0.68264 0.88612 0.0
O147 O 0.53522 0.57664 0.83433 0.0
C148 C 0.45202 0.65448 0.7727 0.0
O149 O 0.4748 0.58984 0.882 0.0
O150 O 0.45871 0.58741 0.82264 0.0
O151 O 0.47089 0.69902 0.86318 0.0
O152 O 0.45668 0.65172 0.89449 0.0
C153 C 0.55729 0.65269 0.77441 0.0
O154 O 0.47619 0.62937 0.77044 0.0
O155 O 0.45524 0.67637 0.79855 0.0
C156 C 0.4529 0.57821 0.85599 0.0
O157 O 0.55253 0.62257 0.78711 0.0
O158 O 0.53262 0.67659 0.78194 0.0
C159 C 0.55566 0.68815 0.88177 0.0
H160 H 0.20507 0.33693 0.94351 0.0
H161 H 0.28244 0.26067 0.99537 0.0
H162 H 0.23662 0.21424 0.97527 0.0
H163 H 0.11165 0.29628 0.96668 0.0
H164 H 0.08747 0.30656 0.92324 0.0
H165 H 0.12673 0.33419 0.9409 0.0
H166 H 0.16646 0.32701 0.87938 0.0
H167 H 0.12725 0.29942 0.86148 0.0
H168 H 0.17837 0.28421 0.86299 0.0
H169 H 0.18217 0.17617 0.95168 0.0
H170 H 0.12234 0.14829 0.92453 0.0
H171 H 0.08019 0.24837 0.88622 0.0
C172 C 0.21251 0.31044 0.9503 0.0
C173 C 0.24715 0.30251 0.97141 0.0
C174 C 0.25569 0.26748 0.9799 0.0
C175 C 0.23 0.24086 0.96839 0.0
C176 C 0.19593 0.24953 0.94812 0.0
C177 C 0.18712 0.28338 0.93893 0.0
C178 C 0.14811 0.2854 0.9172 0.0
C179 C 0.11663 0.30688 0.93827 0.0
C180 C 0.15551 0.29986 0.87793 0.0
C181 C 0.13638 0.24746 0.91595 0.0
C182 C 0.16447 0.2273 0.93397 0.0
C183 C 0.16 0.19163 0.93733 0.0
C184 C 0.12582 0.17604 0.92189 0.0
C185 C 0.0965 0.19608 0.90323 0.0
C186 C 0.10211 0.23228 0.90012 0.0
H187 H 0.78145 0.73316 0.49493 0.0
H188 H 0.82963 0.63319 0.46358 0.0
H189 H 0.88666 0.66198 0.43242 0.0
H190 H 0.8054 0.77655 0.4118 0.0
H191 H 0.81947 0.81698 0.43312 0.0
H192 H 0.78384 0.78887 0.45586 0.0
H193 H 0.82819 0.78795 0.51499 0.0
H194 H 0.86381 0.81638 0.49255 0.0
H195 H 0.88024 0.77558 0.51132 0.0
H196 H 0.9345 0.70078 0.39984 0.0
H197 H 0.97398 0.74774 0.37125 0.0
H198 H 0.8974 0.8236 0.42488 0.0
C199 C 0.80454 0.71739 0.48224 0.0
C200 C 0.801 0.68091 0.48149 0.0
C201 C 0.83148 0.66115 0.4641 0.0
C202 C 0.86407 0.67726 0.44645 0.0
C203 C 0.86607 0.71321 0.44668 0.0
C204 C 0.83751 0.73313 0.46447 0.0
C205 C 0.84636 0.77141 0.45924 0.0
C206 C 0.8117 0.7895 0.43878 0.0
C207 C 0.85518 0.78886 0.49676 0.0
C208 C 0.88384 0.76975 0.43515 0.0
C209 C 0.89455 0.73586 0.42832 0.0
C210 C 0.92677 0.72744 0.40536 0.0
C211 C 0.94887 0.75435 0.38905 0.0
C212 C 0.93893 0.78938 0.39591 0.0
C213 C 0.90601 0.7971 0.41946 0.0
H214 H 0.77396 0.32077 0.93078 0.0
H215 H 0.82596 0.33576 0.04041 0.0
H216 H 0.8807 0.29584 0.02441 0.0
H217 H 0.79643 0.23167 0.92142 0.0
H218 H 0.80936 0.23387 0.87277 0.0
H219 H 0.77423 0.26428 0.89214 0.0
H220 H 0.81814 0.31526 0.86859 0.0
H221 H 0.85326 0.28499 0.84886 0.0
H222 H 0.8705 0.31728 0.88133 0.0
H223 H 0.92713 0.25193 0.99869 0.0
H224 H 0.9666 0.21002 0.96253 0.0
H225 H 0.88806 0.22556 0.86762 0.0
C226 C 0.79719 0.31611 0.95122 0.0
C227 C 0.79519 0.33111 0.98711 0.0
C228 C 0.82613 0.32401 0.01309 0.0
C229 C 0.85757 0.30152 0.00419 0.0
C230 C 0.85812 0.28665 0.96898 0.0
C231 C 0.82917 0.29394 0.94265 0.0
C232 C 0.83712 0.27435 0.90682 0.0
C233 C 0.8022 0.24957 0.89777 0.0
C234 C 0.84525 0.29947 0.87449 0.0
C235 C 0.87478 0.25463 0.91739 0.0
C236 C 0.8861 0.26204 0.95349 0.0
C237 C 0.91886 0.24615 0.97026 0.0
C238 C 0.94095 0.22222 0.94952 0.0
C239 C 0.93051 0.21459 0.9122 0.0
C240 C 0.89696 0.23112 0.89596 0.0
H241 H 0.20741 0.71692 0.50082 0.0
H242 H 0.29134 0.70906 0.40877 0.0
H243 H 0.24906 0.74829 0.37161 0.0
H244 H 0.1196 0.71566 0.44769 0.0
H245 H 0.09241 0.7466 0.47539 0.0
H246 H 0.13107 0.7207 0.49639 0.0
H247 H 0.16784 0.77608 0.51872 0.0
H248 H 0.12903 0.8022 0.49806 0.0
H249 H 0.1809 0.80918 0.48543 0.0
H250 H 0.1947 0.78317 0.34219 0.0
H251 H 0.13341 0.81458 0.32367 0.0
H252 H 0.0853 0.80166 0.43516 0.0
C253 C 0.21734 0.7242 0.4732 0.0
C254 C 0.25256 0.70984 0.45761 0.0
C255 C 0.26424 0.71947 0.4211 0.0
C256 C 0.24053 0.74185 0.39984 0.0
C257 C 0.20537 0.75472 0.41555 0.0
C258 C 0.19398 0.74663 0.45153 0.0
C259 C 0.15373 0.7627 0.46101 0.0
C260 C 0.12236 0.73474 0.47068 0.0
C261 C 0.15815 0.78912 0.49268 0.0
C262 C 0.14393 0.78036 0.42447 0.0
C263 C 0.17419 0.77548 0.39868 0.0
C264 C 0.17104 0.78762 0.3623 0.0
C265 C 0.13602 0.80526 0.35198 0.0
C266 C 0.10466 0.81075 0.37798 0.0
C267 C 0.10897 0.79831 0.41478 0.0
H268 H 0.70539 0.84122 0.93887 0.0
H269 H 0.7668 0.76695 0.00938 0.0
H270 H 0.72068 0.72128 0.98788 0.0
H271 H 0.60741 0.80968 0.95031 0.0
H272 H 0.59221 0.81596 0.90269 0.0
H273 H 0.6308 0.84298 0.92251 0.0
H274 H 0.6798 0.8257 0.86972 0.0
H275 H 0.64121 0.79887 0.84946 0.0
H276 H 0.68939 0.78058 0.86094 0.0
H277 H 0.66407 0.68493 0.96353 0.0
H278 H 0.60524 0.65868 0.93237 0.0
H279 H 0.58456 0.7545 0.87274 0.0
C280 C 0.70995 0.81525 0.94922 0.0
C281 C 0.73968 0.80805 0.97636 0.0
C282 C 0.74378 0.77359 0.9894 0.0
C283 C 0.71788 0.74729 0.97711 0.0
C284 C 0.68843 0.75553 0.95112 0.0
C285 C 0.68481 0.78848 0.93673 0.0
C286 C 0.65047 0.7904 0.90904 0.0
C287 C 0.61833 0.81629 0.92193 0.0
C288 C 0.66617 0.79941 0.86997 0.0
C289 C 0.63486 0.75353 0.91073 0.0
C290 C 0.65705 0.73396 0.93543 0.0
C291 C 0.64689 0.69982 0.94366 0.0
C292 C 0.61332 0.68521 0.92603 0.0
C293 C 0.59066 0.70451 0.90002 0.0
C294 C 0.60179 0.73904 0.8921 0.0
H295 H 0.32192 0.1636 0.45259 0.0
H296 H 0.24378 0.23697 0.5083 0.0
H297 H 0.28537 0.28504 0.48516 0.0
H298 H 0.41453 0.20893 0.46966 0.0
H299 H 0.43623 0.19924 0.42493 0.0
H300 H 0.40013 0.17004 0.44539 0.0
H301 H 0.35584 0.17453 0.38639 0.0
H302 H 0.39182 0.20376 0.36574 0.0
H303 H 0.33997 0.21647 0.3703 0.0
H304 H 0.33509 0.32514 0.45769 0.0
H305 H 0.39088 0.35562 0.42674 0.0
H306 H 0.43734 0.25745 0.387 0.0
C307 C 0.31351 0.18979 0.45971 0.0
C308 C 0.27987 0.19642 0.48275 0.0
C309 C 0.26991 0.23112 0.49147 0.0
C310 C 0.29315 0.25868 0.4782 0.0
C311 C 0.32624 0.25131 0.45597 0.0
C312 C 0.33651 0.21783 0.44663 0.0
C313 C 0.37401 0.21742 0.42248 0.0
C314 C 0.40825 0.19774 0.44178 0.0
C315 C 0.36485 0.20214 0.38394 0.0
C316 C 0.38316 0.25586 0.42003 0.0
C317 C 0.35507 0.27481 0.43956 0.0
C318 C 0.35726 0.31066 0.44219 0.0
C319 C 0.38917 0.32772 0.42455 0.0
C320 C 0.41859 0.309 0.40443 0.0
C321 C 0.41525 0.27254 0.40197 0.0
H322 H 0.30817 0.84207 0.94209 0.0
H323 H 0.24503 0.77214 0.01666 0.0
H324 H 0.28924 0.72445 0.99675 0.0
H325 H 0.32309 0.78035 0.86734 0.0
H326 H 0.37236 0.79663 0.85563 0.0
H327 H 0.33536 0.82518 0.87538 0.0
H328 H 0.38492 0.84131 0.92818 0.0
H329 H 0.42201 0.81277 0.90866 0.0
H330 H 0.40639 0.80753 0.95636 0.0
H331 H 0.34072 0.68448 0.9693 0.0
H332 H 0.396 0.65503 0.93658 0.0
H333 H 0.42561 0.75078 0.8793 0.0
C334 C 0.30333 0.81664 0.95394 0.0
C335 C 0.27311 0.81091 0.98105 0.0
C336 C 0.26825 0.77732 0.99625 0.0
C337 C 0.29307 0.75 0.98494 0.0
C338 C 0.32265 0.7566 0.95836 0.0
C339 C 0.32789 0.78907 0.94301 0.0
C340 C 0.36237 0.78936 0.91535 0.0
C341 C 0.34739 0.79841 0.8761 0.0
C342 C 0.3959 0.81421 0.92791 0.0
C343 C 0.3758 0.75199 0.91764 0.0
C344 C 0.35241 0.73355 0.94256 0.0
C345 C 0.3592 0.69865 0.94968 0.0
C346 C 0.39077 0.68216 0.93094 0.0
C347 C 0.41536 0.70052 0.90533 0.0
C348 C 0.40747 0.73593 0.89863 0.0
H349 H 0.73715 0.18747 0.42567 0.0
H350 H 0.69102 0.18174 0.53859 0.0
H351 H 0.63676 0.22179 0.52217 0.0
H352 H 0.71751 0.27687 0.41098 0.0
H353 H 0.70154 0.27252 0.36332 0.0
H354 H 0.73647 0.24199 0.38279 0.0
H355 H 0.68904 0.19141 0.36499 0.0
H356 H 0.6541 0.22178 0.34517 0.0
H357 H 0.6375 0.19191 0.38056 0.0
H358 H 0.59105 0.26486 0.49631 0.0
H359 H 0.55104 0.30598 0.46018 0.0
H360 H 0.62265 0.28363 0.36192 0.0
C361 C 0.71524 0.19434 0.44668 0.0
C362 C 0.71874 0.18193 0.48361 0.0
C363 C 0.68952 0.19152 0.51038 0.0
C364 C 0.65843 0.21413 0.5013 0.0
C365 C 0.65646 0.22671 0.46515 0.0
C366 C 0.68357 0.21696 0.438 0.0
C367 C 0.6742 0.23494 0.40138 0.0
C368 C 0.70954 0.25794 0.38889 0.0
C369 C 0.66304 0.20843 0.37124 0.0
C370 C 0.63804 0.25654 0.41257 0.0
C371 C 0.62868 0.25131 0.44959 0.0
C372 C 0.59774 0.26899 0.46717 0.0
C373 C 0.57532 0.29251 0.44636 0.0
C374 C 0.58358 0.2981 0.40812 0.0
C375 C 0.61544 0.27976 0.391 0.0
H376 H 0.34291 0.44646 0.99222 0.0
H377 H 0.32601 0.37883 0.89699 0.0
H378 H 0.35157 0.42474 0.85569 0.0
H379 H 0.32013 0.52813 0.94666 0.0
H380 H 0.35926 0.55126 0.9709 0.0
H381 H 0.33509 0.51464 0.9926 0.0
H382 H 0.40436 0.48539 1.00194 0.0
H383 H 0.4287 0.52198 0.98056 0.0
H384 H 0.43687 0.47916 0.96236 0.0
H385 H 0.3826 0.47734 0.82476 0.0
H386 H 0.4214 0.52982 0.80801 0.0
H387 H 0.42198 0.56093 0.92396 0.0
C388 C 0.34451 0.4411 0.96271 0.0
C389 C 0.33185 0.40886 0.94809 0.0
C390 C 0.33436 0.40343 0.90909 0.0
C391 C 0.34911 0.42936 0.88529 0.0
C392 C 0.36157 0.46062 0.90077 0.0
C393 C 0.35971 0.46644 0.93864 0.0
C394 C 0.37796 0.50112 0.9487 0.0
C395 C 0.3462 0.52521 0.96572 0.0
C396 C 0.41411 0.49663 0.97492 0.0
C397 C 0.39103 0.51365 0.91064 0.0
C398 C 0.38071 0.49025 0.88323 0.0
C399 C 0.39066 0.49592 0.84599 0.0
C400 C 0.41257 0.52587 0.83671 0.0
C401 C 0.42479 0.54947 0.86465 0.0
C402 C 0.4131 0.54342 0.90193 0.0
H403 H 0.67731 0.55765 0.50773 0.0
H404 H 0.70026 0.62239 0.41111 0.0
H405 H 0.66971 0.57813 0.37086 0.0
H406 H 0.69398 0.47475 0.46362 0.0
H407 H 0.65326 0.45349 0.48773 0.0
H408 H 0.67921 0.48922 0.50928 0.0
H409 H 0.61169 0.52158 0.51761 0.0
H410 H 0.58554 0.48579 0.49651 0.0
H411 H 0.58003 0.52872 0.4777 0.0
H412 H 0.63492 0.52862 0.34118 0.0
H413 H 0.59367 0.4781 0.32403 0.0
H414 H 0.59088 0.44535 0.43953 0.0
C415 C 0.67579 0.56263 0.47814 0.0
C416 C 0.69178 0.59345 0.46263 0.0
C417 C 0.68922 0.59873 0.42367 0.0
C418 C 0.67175 0.57378 0.40053 0.0
C419 C 0.65667 0.54369 0.41668 0.0
C420 C 0.65813 0.53806 0.45457 0.0
C421 C 0.63777 0.50417 0.46485 0.0
C422 C 0.66786 0.47892 0.48241 0.0
C423 C 0.60161 0.51045 0.49069 0.0
C424 C 0.62436 0.49184 0.42678 0.0
C425 C 0.63594 0.51499 0.39944 0.0
C426 C 0.62583 0.5102 0.36228 0.0
C427 C 0.6024 0.48142 0.35283 0.0
C428 C 0.58921 0.45775 0.38041 0.0
C429 C 0.60108 0.46269 0.41778 0.0
H430 H 0.68309 0.46301 1.00086 0.0
H431 H 0.69756 0.39095 0.90925 0.0
H432 H 0.66604 0.43307 0.86686 0.0
H433 H 0.58609 0.49112 0.9755 0.0
H434 H 0.59391 0.53529 0.98984 0.0
H435 H 0.62131 0.501 0.01208 0.0
H436 H 0.68845 0.5317 0.9957 0.0
H437 H 0.6612 0.56603 0.97319 0.0
H438 H 0.69922 0.54263 0.94795 0.0
H439 H 0.62854 0.4809 0.8355 0.0
H440 H 0.58616 0.53028 0.81755 0.0
H441 H 0.59462 0.57095 0.92982 0.0
C442 C 0.67971 0.456 0.97188 0.0
C443 C 0.69298 0.42357 0.95844 0.0
C444 C 0.6883 0.41577 0.92017 0.0
C445 C 0.67029 0.4395 0.89588 0.0
C446 C 0.65718 0.471 0.9102 0.0
C447 C 0.66165 0.4793 0.94731 0.0
C448 C 0.64284 0.51401 0.95609 0.0
C449 C 0.60903 0.5101 0.98509 0.0
C450 C 0.67485 0.54014 0.96899 0.0
C451 C 0.62631 0.52362 0.91825 0.0
C452 C 0.63529 0.49859 0.89212 0.0
C453 C 0.62162 0.5008 0.85563 0.0
C454 C 0.5975 0.52896 0.84574 0.0
C455 C 0.58709 0.55457 0.87224 0.0
C456 C 0.60244 0.55209 0.90879 0.0
H457 H 0.37952 0.59112 0.48467 0.0
H458 H 0.26915 0.59108 0.42017 0.0
H459 H 0.29478 0.5423 0.3829 0.0
H460 H 0.44679 0.56995 0.41222 0.0
H461 H 0.47737 0.54203 0.44057 0.0
H462 H 0.45051 0.5773 0.46161 0.0
H463 H 0.41565 0.53469 0.50721 0.0
H464 H 0.44269 0.49933 0.4865 0.0
H465 H 0.38858 0.49796 0.489 0.0
H466 H 0.33475 0.49437 0.35066 0.0
H467 H 0.38272 0.44881 0.33077 0.0
H468 H 0.46293 0.47848 0.42035 0.0
C469 C 0.3602 0.58061 0.46324 0.0
C470 C 0.32228 0.59531 0.45541 0.0
C471 C 0.29864 0.58089 0.4264 0.0
C472 C 0.31283 0.55298 0.40516 0.0
C473 C 0.3505 0.53942 0.41353 0.0
C474 C 0.37353 0.55252 0.44225 0.0
C475 C 0.41257 0.53305 0.44634 0.0
C476 C 0.44894 0.55702 0.43978 0.0
C477 C 0.41499 0.51519 0.48452 0.0
C478 C 0.40808 0.50703 0.41529 0.0
C479 C 0.37235 0.51119 0.3963 0.0
C480 C 0.36262 0.49066 0.36561 0.0
C481 C 0.39 0.465 0.35441 0.0
C482 C 0.42619 0.45992 0.37428 0.0
C483 C 0.43516 0.48136 0.40496 0.0
H484 H 0.85302 0.90055 0.93206 0.0
H485 H 0.76538 0.95707 0.99694 0.0
H486 H 0.78902 0.01197 0.96902 0.0
H487 H 0.93097 0.9596 0.94369 0.0
H488 H 0.95215 0.95516 0.89779 0.0
H489 H 0.9245 0.91984 0.91818 0.0
H490 H 0.87671 0.91856 0.86132 0.0
H491 H 0.90444 0.95382 0.84061 0.0
H492 H 0.85096 0.95748 0.84764 0.0
H493 H 0.82754 0.06068 0.94112 0.0
H494 H 0.87751 0.10045 0.91335 0.0
H495 H 0.94036 0.01304 0.86543 0.0
C496 C 0.83805 0.92445 0.93926 0.0
C497 C 0.80695 0.92481 0.96601 0.0
C498 C 0.78884 0.95649 0.97603 0.0
C499 C 0.80208 0.98769 0.96034 0.0
C500 C 0.83351 0.98672 0.93471 0.0
C501 C 0.85116 0.95595 0.92398 0.0
C502 C 0.8868 0.96254 0.8985 0.0
C503 C 0.9259 0.94845 0.91557 0.0
C504 C 0.87926 0.94719 0.85971 0.0
C505 C 0.88696 1.00175 0.89737 0.0
C506 C 0.8558 0.01513 0.91829 0.0
C507 C 0.85159 0.05056 0.92405 0.0
C508 C 0.88017 0.07294 0.9083 0.0
C509 C 0.91243 0.05985 0.88689 0.0
C510 C 0.91542 0.02381 0.88091 0.0
H511 H 0.18627 0.05133 0.50453 0.0
H512 H 0.19615 0.12323 0.412 0.0
H513 H 0.16325 0.08077 0.37117 0.0
H514 H 0.19854 0.97068 0.45056 0.0
H515 H 0.16142 0.94776 0.4777 0.0
H516 H 0.19088 0.9817 0.49875 0.0
H517 H 0.12557 0.01308 0.5185 0.0
H518 H 0.09596 0.97931 0.49753 0.0
H519 H 0.08861 0.02366 0.48371 0.0
H520 H 0.12326 0.03403 0.34196 0.0
H521 H 0.0781 0.98573 0.32601 0.0
H522 H 0.09174 0.94383 0.4373 0.0
C523 C 0.18192 0.05805 0.47558 0.0
C524 C 0.19433 0.09065 0.46152 0.0
C525 C 0.18799 0.09826 0.42341 0.0
C526 C 0.16905 0.07433 0.39995 0.0
C527 C 0.15656 0.04284 0.41491 0.0
C528 C 0.16276 0.03455 0.4518 0.0
C529 C 0.1435 1.00004 0.46149 0.0
C530 C 0.1755 0.97347 0.47279 0.0
C531 C 0.11152 1.0043 0.49211 0.0
C532 C 0.12454 0.99071 0.42449 0.0
C533 C 0.13291 0.01567 0.39798 0.0
C534 C 0.11687 0.01412 0.36232 0.0
C535 C 0.09109 0.98666 0.35361 0.0
C536 C 0.08145 0.96103 0.38041 0.0
C537 C 0.09905 0.96277 0.41612 0.0
H538 H 0.13098 0.91805 0.98324 0.0
H539 H 0.23947 0.91975 0.91602 0.0
H540 H 0.20885 0.96416 0.87535 0.0
H541 H 0.0584 0.93451 0.90941 0.0
H542 H 0.02819 0.96192 0.93868 0.0
H543 H 0.05664 0.92712 0.9589 0.0
H544 H 0.09157 0.97061 1.00337 0.0
H545 H 0.06339 0.0055 0.9832 0.0
H546 H 0.11753 0.00756 0.98418 0.0
H547 H 0.16676 0.01146 0.84421 0.0
H548 H 0.11888 0.05805 0.82753 0.0
H549 H 0.04193 0.02742 0.91935 0.0
C550 C 0.14848 0.92763 0.95997 0.0
C551 C 0.18782 0.9155 0.95303 0.0
C552 C 0.20914 0.92834 0.92174 0.0
C553 C 0.19204 0.95368 0.89858 0.0
C554 C 0.15365 0.96583 0.90711 0.0
C555 C 0.13223 0.95312 0.93713 0.0
C556 C 0.09292 0.97199 0.94237 0.0
C557 C 0.05692 0.94742 0.93701 0.0
C558 C 0.09129 0.98998 0.98053 0.0
C559 C 0.0958 0.99792 0.91108 0.0
C560 C 0.13058 0.99367 0.8905 0.0
C561 C 0.13945 0.01493 0.86015 0.0
C562 C 0.11217 0.04126 0.85088 0.0
C563 C 0.07703 0.04645 0.87241 0.0
C564 C 0.06882 0.02431 0.90268 0.0
H565 H 0.82797 0.09753 0.42216 0.0
H566 H 0.78386 0.04392 0.51998 0.0
H567 H 0.8106 0.98893 0.49576 0.0
H568 H 0.81254 0.02361 0.35457 0.0
H569 H 0.85833 0.03376 0.32995 0.0
H570 H 0.82977 0.06779 0.35165 0.0
H571 H 0.89298 0.08672 0.38849 0.0
H572 H 0.9216 0.05271 0.36718 0.0
H573 H 0.91865 0.05555 0.41714 0.0
H574 H 0.85133 0.9427 0.46721 0.0
H575 H 0.90102 0.90687 0.43384 0.0
H576 H 0.91762 0.98859 0.35262 0.0
C577 C 0.82276 0.0739 0.43765 0.0
C578 C 0.80361 0.07471 0.47271 0.0
C579 C 0.7983 0.04363 0.49295 0.0
C580 C 0.81329 0.01231 0.47938 0.0
C581 C 0.83331 0.01243 0.44535 0.0
C582 C 0.83771 0.04227 0.42444 0.0
C583 C 0.86387 0.03574 0.39054 0.0
C584 C 0.83967 0.0405 0.35454 0.0
C585 C 0.90149 0.05906 0.39089 0.0
C586 C 0.87471 0.99805 0.39656 0.0
C587 C 0.85643 0.9851 0.42822 0.0
C588 C 0.86501 0.95219 0.44183 0.0
C589 C 0.89333 0.93209 0.42285 0.0
C590 C 0.91243 0.94481 0.39044 0.0
C591 C 0.90243 0.97794 0.37673 0.0
H592 H 0.35174 0.3998 0.0816 0.0
H593 H 0.33424 0.28881 0.06998 0.0
H594 H 0.36172 0.28003 0.13253 0.0
H595 H 0.44824 0.39194 0.12673 0.0
H596 H 0.44057 0.42895 0.15629 0.0
H597 H 0.4166 0.42693 0.11146 0.0
H598 H 0.34731 0.436 0.14304 0.0
H599 H 0.37108 0.43761 0.18801 0.0
H600 H 0.33132 0.40686 0.17937 0.0
H601 H 0.39058 0.28276 0.19658 0.0
H602 H 0.42671 0.2963 0.25465 0.0
H603 H 0.43133 0.40464 0.2229 0.0
C604 C 0.35385 0.37358 0.09194 0.0
C605 C 0.33963 0.34516 0.07078 0.0
C606 C 0.34326 0.31132 0.08582 0.0
C607 C 0.3592 0.30592 0.12137 0.0
C608 C 0.37227 0.33449 0.14153 0.0
C609 C 0.37051 0.36758 0.12716 0.0
C610 C 0.38909 0.3935 0.15377 0.0
C611 C 0.4258 0.41137 0.136 0.0
C612 C 0.35782 0.42006 0.16681 0.0
C613 C 0.40146 0.36973 0.18527 0.0
C614 C 0.39093 0.33587 0.17783 0.0
C615 C 0.39912 0.30917 0.2027 0.0
C616 C 0.41948 0.31717 0.23573 0.0
C617 C 0.43195 0.35151 0.24336 0.0
C618 C 0.42224 0.37812 0.2179 0.0
H619 H 0.63518 0.66048 0.56574 0.0
H620 H 0.7568 0.6596 0.60915 0.0
H621 H 0.72996 0.66372 0.67314 0.0
H622 H 0.59194 0.71979 0.63488 0.0
H623 H 0.54503 0.69636 0.63694 0.0
H624 H 0.57401 0.69677 0.59455 0.0
H625 H 0.57407 0.63 0.59442 0.0
H626 H 0.54613 0.6288 0.6373 0.0
H627 H 0.59371 0.60697 0.63401 0.0
H628 H 0.68956 0.6608 0.73257 0.0
H629 H 0.63843 0.65537 0.78263 0.0
H630 H 0.54354 0.6602 0.70049 0.0
C631 C 0.6562 0.66161 0.58869 0.0
C632 C 0.69813 0.6598 0.58245 0.0
C633 C 0.72462 0.66143 0.61322 0.0
C634 C 0.70963 0.66359 0.64967 0.0
C635 C 0.66809 0.66448 0.65486 0.0
C636 C 0.64175 0.66396 0.62517 0.0
C637 C 0.59843 0.66346 0.63825 0.0
C638 C 0.57604 0.69604 0.62539 0.0
C639 C 0.57683 0.63035 0.62521 0.0
C640 C 0.60448 0.6634 0.67997 0.0
C641 C 0.64488 0.66382 0.68904 0.0
C642 C 0.65787 0.6612 0.72583 0.0
C643 C 0.6288 0.65808 0.75401 0.0
C644 C 0.58745 0.65811 0.74515 0.0
C645 C 0.57513 0.66103 0.7078 0.0
H646 H 0.63857 0.34838 0.0705 0.0
H647 H 0.75323 0.38913 0.1075 0.0
H648 H 0.72882 0.38889 0.17262 0.0
H649 H 0.57635 0.39481 0.13265 0.0
H650 H 0.54168 0.35971 0.14097 0.0
H651 H 0.56867 0.36211 0.09762 0.0
H652 H 0.59643 0.30039 0.1085 0.0
H653 H 0.56957 0.29786 0.15199 0.0
H654 H 0.62311 0.29091 0.15089 0.0
H655 H 0.68965 0.38985 0.23216 0.0
H656 H 0.63975 0.38773 0.28335 0.0
H657 H 0.55274 0.34112 0.20896 0.0
C658 C 0.65845 0.35697 0.09249 0.0
C659 C 0.69763 0.36888 0.0844 0.0
C660 C 0.72314 0.37987 0.11353 0.0
C661 C 0.70954 0.37981 0.15043 0.0
C662 C 0.67066 0.36803 0.15765 0.0
C663 C 0.64563 0.35636 0.12961 0.0
C664 C 0.60517 0.34515 0.14494 0.0
C665 C 0.57096 0.36674 0.12805 0.0
C666 C 0.59818 0.30626 0.13871 0.0
C667 C 0.611 0.35321 0.18581 0.0
C668 C 0.64894 0.36654 0.19251 0.0
C669 C 0.6602 0.37869 0.22749 0.0
C670 C 0.63181 0.37742 0.25632 0.0
C671 C 0.59308 0.36347 0.25007 0.0
C672 C 0.58272 0.35082 0.21455 0.0
H673 H 0.38145 0.64132 0.56229 0.0
H674 H 0.27009 0.69203 0.59318 0.0
H675 H 0.29526 0.69838 0.65763 0.0
H676 H 0.3911 0.59131 0.64447 0.0
H677 H 0.44513 0.59494 0.64581 0.0
H678 H 0.41921 0.59693 0.60197 0.0
H679 H 0.45316 0.65592 0.58817 0.0
H680 H 0.47872 0.65459 0.63226 0.0
H681 H 0.44756 0.69101 0.62074 0.0
H682 H 0.33358 0.69811 0.71988 0.0
H683 H 0.37962 0.68897 0.77334 0.0
H684 H 0.46244 0.63493 0.70073 0.0
C685 C 0.362 0.65352 0.58253 0.0
C686 C 0.32356 0.66596 0.57251 0.0
C687 C 0.29978 0.68254 0.59994 0.0
C688 C 0.31377 0.68613 0.6367 0.0
C689 C 0.35159 0.67299 0.64562 0.0
C690 C 0.37524 0.65695 0.61918 0.0
C691 C 0.41414 0.64395 0.63569 0.0
C692 C 0.41756 0.60444 0.63176 0.0
C693 C 0.45053 0.66248 0.61815 0.0
C694 C 0.40849 0.65451 0.6758 0.0
C695 C 0.37262 0.67175 0.68109 0.0
C696 C 0.36163 0.68449 0.71599 0.0
C697 C 0.38791 0.67924 0.74617 0.0
C698 C 0.42428 0.66087 0.74127 0.0
C699 C 0.43452 0.64856 0.70553 0.0
H700 H 0.84416 0.81794 0.08462 0.0
H701 H 0.77243 0.9103 0.09863 0.0
H702 H 0.79606 0.91562 0.16348 0.0
H703 H 0.83487 0.78499 0.18302 0.0
H704 H 0.88637 0.77064 0.18374 0.0
H705 H 0.85853 0.7704 0.14074 0.0
H706 H 0.91378 0.80814 0.10986 0.0
H707 H 0.94166 0.80855 0.15267 0.0
H708 H 0.92767 0.84875 0.13093 0.0
H709 H 0.83441 0.91635 0.22212 0.0
H710 H 0.88562 0.91256 0.27155 0.0
H711 H 0.93297 0.81928 0.22154 0.0
C712 C 0.83251 0.83853 0.10192 0.0
C713 C 0.80611 0.86349 0.08706 0.0
C714 C 0.7924 0.89083 0.10981 0.0
C715 C 0.80555 0.89395 0.14664 0.0
C716 C 0.83241 0.86948 0.16031 0.0
C717 C 0.8457 0.84218 0.13879 0.0
C718 C 0.87796 0.8218 0.15896 0.0
C719 C 0.86356 0.78475 0.1671 0.0
C720 C 0.9176 0.82184 0.13679 0.0
C721 C 0.88174 0.84267 0.19453 0.0
C722 C 0.85472 0.86978 0.19483 0.0
C723 C 0.85501 0.89476 0.22271 0.0
C724 C 0.88417 0.89246 0.25061 0.0
C725 C 0.91246 0.86526 0.25063 0.0
C726 C 0.91069 0.83961 0.22274 0.0
H727 H 0.17318 0.10018 0.59451 0.0
H728 H 0.19706 0.21033 0.58212 0.0
H729 H 0.16451 0.22112 0.64206 0.0
H730 H 0.07348 0.11246 0.62975 0.0
H731 H 0.07539 0.07592 0.66083 0.0
H732 H 0.10477 0.07588 0.61873 0.0
H733 H 0.1693 0.06501 0.6573 0.0
H734 H 0.1401 0.06522 0.69955 0.0
H735 H 0.18225 0.09427 0.69446 0.0
H736 H 0.12865 0.22082 0.70266 0.0
H737 H 0.08564 0.21003 0.75727 0.0
H738 H 0.07803 0.10131 0.7277 0.0
C739 C 0.17162 0.12663 0.60416 0.0
C740 C 0.18892 0.15418 0.5835 0.0
C741 C 0.18584 0.18837 0.59767 0.0
C742 C 0.16693 0.19494 0.63171 0.0
C743 C 0.15035 0.16726 0.65113 0.0
C744 C 0.15189 0.13386 0.6377 0.0
C745 C 0.12877 0.10924 0.66277 0.0
C746 C 0.09351 0.09239 0.64176 0.0
C747 C 0.15679 0.08181 0.67951 0.0
C748 C 0.11398 0.13415 0.69225 0.0
C749 C 0.12737 0.16737 0.68523 0.0
C750 C 0.11788 0.19493 0.70847 0.0
C751 C 0.09352 0.18849 0.7395 0.0
C752 C 0.07836 0.15484 0.74671 0.0
C753 C 0.08905 0.12731 0.72283 0.0
H754 H 0.1697 0.82654 0.08637 0.0
H755 H 0.22866 0.92655 0.08881 0.0
H756 H 0.1978 0.93872 0.15004 0.0
H757 H 0.07871 0.85467 0.12066 0.0
H758 H 0.06737 0.81687 0.14816 0.0
H759 H 0.09925 0.81325 0.10791 0.0
H760 H 0.15568 0.78646 0.14818 0.0
H761 H 0.12371 0.7895 0.18856 0.0
H762 H 0.17298 0.80905 0.18901 0.0
H763 H 0.15422 0.94291 0.20678 0.0
H764 H 0.10292 0.93804 0.25625 0.0
H765 H 0.0712 0.83552 0.21639 0.0
C766 C 0.17727 0.85036 0.10061 0.0
C767 C 0.20208 0.87539 0.08345 0.0
C768 C 0.21017 0.90692 0.10198 0.0
C769 C 0.19273 0.91404 0.13664 0.0
C770 C 0.16721 0.88935 0.15234 0.0
C771 C 0.15975 0.85798 0.13511 0.0
C772 C 0.12831 0.83732 0.15619 0.0
C773 C 0.09123 0.83012 0.13177 0.0
C774 C 0.14625 0.80358 0.17139 0.0
C775 C 0.11854 0.8623 0.18734 0.0
C776 C 0.14155 0.89201 0.18482 0.0
C777 C 0.1364 0.91956 0.20934 0.0
C778 C 0.10701 0.91663 0.23723 0.0
C779 C 0.08297 0.88642 0.24028 0.0
C780 C 0.0892 0.85888 0.21504 0.0
H781 H 0.87723 0.13592 0.57098 0.0
H782 H 0.7579 0.16671 0.60672 0.0
H783 H 0.78275 0.17376 0.67088 0.0
H784 H 0.89995 0.08539 0.65048 0.0
H785 H 0.95227 0.09764 0.65191 0.0
H786 H 0.9258 0.09743 0.60828 0.0
H787 H 0.9456 0.16157 0.59753 0.0
H788 H 0.97219 0.16189 0.64115 0.0
H789 H 0.93344 0.19332 0.63242 0.0
H790 H 0.81974 0.1744 0.73206 0.0
H791 H 0.86698 0.16909 0.78527 0.0
H792 H 0.96129 0.1372 0.7097 0.0
C793 C 0.85635 0.14427 0.59226 0.0
C794 C 0.81567 0.15102 0.58369 0.0
C795 C 0.78938 0.16204 0.61239 0.0
C796 C 0.80314 0.16591 0.649 0.0
C797 C 0.8433 0.15873 0.65653 0.0
C798 C 0.86957 0.14826 0.62895 0.0
C799 C 0.91096 0.14111 0.64457 0.0
C800 C 0.92293 0.10313 0.63845 0.0
C801 C 0.9424 0.16596 0.62793 0.0
C802 C 0.90367 0.14867 0.68531 0.0
C803 C 0.86451 0.15898 0.69168 0.0
C804 C 0.85054 0.16659 0.72739 0.0
C805 C 0.87736 0.1635 0.75734 0.0
C806 C 0.91735 0.15288 0.75113 0.0
C807 C 0.9307 0.14552 0.7148 0.0
loop_
_geom_bond_atom_site_label_1
_geom_bond_atom_site_label_2
_geom_bond_distance
_geom_bond_site_symmetry_2
_ccdc_geom_bond_type
H0 C3 0.931 . S
H1 C6 0.928 . S
H2 C8 0.930 . S
C3 H0 0.931 . S
C3 C4 1.413 . S
C3 C5 1.360 1_554 S
C4 C3 1.413 . S
C4 C8 1.429 . S
C5 C3 1.360 1_556 S
C5 C6 1.372 . S
C6 H1 0.928 . S
C6 C5 1.372 . S
C6 C7 1.404 . S
C7 C6 1.404 . S
C7 C8 1.391 1_556 S
C8 H2 0.930 . S
C8 C4 1.429 . S
C8 C7 1.391 1_554 S
H9 C12 0.931 . S
H10 C15 0.928 . S
H11 C17 0.930 . S
C12 H9 0.931 . S
C12 C13 1.413 . S
C12 C14 1.360 . S
C13 C12 1.413 . S
C13 C17 1.429 . S
C14 C12 1.360 . S
C14 C15 1.372 . S
C15 H10 0.928 . S
C15 C14 1.372 . S
C15 C16 1.404 . S
C16 C15 1.404 . S
C16 C17 1.391 . S
C17 H11 0.930 . S
C17 C13 1.429 . S
C17 C16 1.391 . S
H18 C21 0.931 . S
H19 C24 0.928 . S
H20 C26 0.930 . S
C21 H18 0.931 . S
C21 C22 1.413 1_554 S
C21 C23 1.360 . S
C22 C21 1.413 1_556 S
C22 C26 1.429 . S
C23 C21 1.360 . S
C23 C24 1.372 . S
C24 H19 0.928 . S
C24 C23 1.372 . S
C24 C25 1.404 1_554 S
C25 C24 1.404 1_556 S
C25 C26 1.391 . S
C26 H20 0.930 . S
C26 C22 1.429 . S
C26 C25 1.391 . S
H27 C30 0.931 . S
H28 C33 0.928 . S
H29 C35 0.930 . S
C30 H27 0.931 . S
C30 C31 1.413 . S
C30 C32 1.360 . S
C31 C30 1.413 . S
C31 C35 1.429 . S
C32 C30 1.360 . S
C32 C33 1.372 . S
C33 H28 0.928 . S
C33 C32 1.372 . S
C33 C34 1.404 . S
C34 C33 1.404 . S
C34 C35 1.391 . S
C35 H29 0.930 . S
C35 C31 1.429 . S
C35 C34 1.391 . S
H36 C39 0.931 . S
H37 C42 0.928 . S
H38 C44 0.930 . S
C39 H36 0.931 . S
C39 C40 1.413 . S
C39 C41 1.360 1_554 S
C40 C39 1.413 . S
C40 C44 1.429 . S
C41 C39 1.360 1_556 S
C41 C42 1.372 . S
C42 H37 0.928 . S
C42 C41 1.372 . S
C42 C43 1.404 . S
C43 C42 1.404 . S
C43 C44 1.391 1_556 S
C44 H38 0.930 . S
C44 C40 1.429 . S
C44 C43 1.391 1_554 S
H45 C48 0.931 . S
H46 C51 0.928 . S
H47 C53 0.930 . S
C48 H45 0.931 . S
C48 C49 1.413 . S
C48 C50 1.360 . S
C49 C48 1.413 . S
C49 C53 1.429 . S
C50 C48 1.360 . S
C50 C51 1.372 . S
C51 H46 0.928 . S
C51 C50 1.372 . S
C51 C52 1.404 . S
C52 C51 1.404 . S
C52 C53 1.391 . S
C53 H47 0.930 . S
C53 C49 1.429 . S
C53 C52 1.391 . S
H54 C57 0.931 . S
H55 C60 0.928 . S
H56 C62 0.930 . S
C57 H54 0.931 . S
C57 C58 1.413 1_554 S
C57 C59 1.360 . S
C58 C57 1.413 1_556 S
C58 C62 1.429 . S
C59 C57 1.360 . S
C59 C60 1.372 . S
C60 H55 0.928 . S
C60 C59 1.372 . S
C60 C61 1.404 1_554 S
C61 C60 1.404 1_556 S
C61 C62 1.391 . S
C62 H56 0.930 . S
C62 C58 1.429 . S
C62 C61 1.391 . S
H63 C66 0.931 . S
H64 C69 0.928 . S
H65 C71 0.930 . S
C66 H63 0.931 . S
C66 C67 1.413 . S
C66 C68 1.360 . S
C67 C66 1.413 . S
C67 C71 1.429 . S
C68 C66 1.360 . S
C68 C69 1.372 . S
C69 H64 0.928 . S
C69 C68 1.372 . S
C69 C70 1.404 . S
C70 C69 1.404 . S
C70 C71 1.391 . S
C71 H65 0.930 . S
C71 C67 1.429 . S
C71 C70 1.391 . S
Fe72 O74 1.918 . S
Fe72 O77 1.997 1_455 S
Fe72 O78 2.002 1_455 S
Fe72 O83 1.976 . S
Fe72 O86 1.996 . S
Fe73 O74 1.918 . S
Fe73 O81 1.997 1_455 S
Fe73 O84 1.996 . S
Fe73 O88 1.976 . S
Fe73 O91 2.002 1_455 S
O74 Fe72 1.918 . S
O74 Fe73 1.918 . S
O74 Fe75 1.918 . S
Fe75 O74 1.918 . S
Fe75 O76 2.002 1_455 S
Fe75 O85 1.976 . S
Fe75 O89 1.996 . S
Fe75 O92 1.997 1_455 S
O76 Fe75 2.002 1_655 S
O76 C93 1.295 . S
O77 Fe72 1.997 1_655 S
O77 C93 1.235 . S
O78 Fe72 2.002 1_655 S
O78 C79 1.295 . S
C79 O78 1.295 . S
C79 O81 1.235 . S
C80 O85 1.287 . S
C80 O86 1.255 . S
O81 Fe73 1.997 1_655 S
O81 C79 1.235 . S
C82 O88 1.287 . S
C82 O89 1.255 . S
O83 Fe72 1.976 . S
O83 C90 1.287 . S
O84 Fe73 1.996 . S
O84 C90 1.255 . S
O85 Fe75 1.976 . S
O85 C80 1.287 . S
O86 Fe72 1.996 . S
O86 C80 1.255 . S
C87 O91 1.295 . S
C87 O92 1.235 . S
O88 Fe73 1.976 . S
O88 C82 1.287 . S
O89 Fe75 1.996 . S
O89 C82 1.255 . S
C90 O83 1.287 . S
C90 O84 1.255 . S
O91 Fe73 2.002 1_655 S
O91 C87 1.295 . S
O92 Fe75 1.997 1_655 S
O92 C87 1.235 . S
C93 O76 1.295 . S
C93 O77 1.235 . S
Fe94 O96 1.918 . S
Fe94 O99 1.997 1_655 S
Fe94 O100 2.002 1_655 S
Fe94 O105 1.976 . S
Fe94 O108 1.996 . S
Fe95 O96 1.918 . S
Fe95 O103 1.997 1_655 S
Fe95 O106 1.996 . S
Fe95 O110 1.976 . S
Fe95 O113 2.002 1_655 S
O96 Fe94 1.918 . S
O96 Fe95 1.918 . S
O96 Fe97 1.918 . S
Fe97 O96 1.918 . S
Fe97 O98 2.002 1_655 S
Fe97 O107 1.976 . S
Fe97 O111 1.996 . S
Fe97 O114 1.997 1_655 S
O98 Fe97 2.002 1_455 S
O98 C115 1.295 . S
O99 Fe94 1.997 1_455 S
O99 C115 1.235 . S
O100 Fe94 2.002 1_455 S
O100 C101 1.295 . S
C101 O100 1.295 . S
C101 O103 1.235 . S
C102 O107 1.287 . S
C102 O108 1.255 . S
O103 Fe95 1.997 1_455 S
O103 C101 1.235 . S
C104 O110 1.287 . S
C104 O111 1.255 . S
O105 Fe94 1.976 . S
O105 C112 1.287 . S
O106 Fe95 1.996 . S
O106 C112 1.255 . S
O107 Fe97 1.976 . S
O107 C102 1.287 . S
O108 Fe94 1.996 . S
O108 C102 1.255 . S
C109 O113 1.295 . S
C109 O114 1.235 . S
O110 Fe95 1.976 . S
O110 C104 1.287 . S
O111 Fe97 1.996 . S
O111 C104 1.255 . S
C112 O105 1.287 . S
C112 O106 1.255 . S
O113 Fe95 2.002 1_455 S
O113 C109 1.295 . S
O114 Fe97 1.997 1_455 S
O114 C109 1.235 . S
C115 O98 1.295 . S
C115 O99 1.235 . S
Fe116 O118 1.918 . S
Fe116 O121 1.997 . S
Fe116 O122 2.002 . S
Fe116 O127 1.976 . S
Fe116 O130 1.996 . S
Fe117 O118 1.918 . S
Fe117 O125 1.997 . S
Fe117 O128 1.996 . S
Fe117 O132 1.976 . S
Fe117 O135 2.002 . S
O118 Fe116 1.918 . S
O118 Fe117 1.918 . S
O118 Fe119 1.918 . S
Fe119 O118 1.918 . S
Fe119 O120 2.002 . S
Fe119 O129 1.976 . S
Fe119 O133 1.996 . S
Fe119 O136 1.997 . S
O120 Fe119 2.002 . S
O120 C137 1.295 . S
O121 Fe116 1.997 . S
O121 C137 1.235 . S
O122 Fe116 2.002 . S
O122 C123 1.295 . S
C123 O122 1.295 . S
C123 O125 1.235 . S
C124 O129 1.287 . S
C124 O130 1.255 . S
O125 Fe117 1.997 . S
O125 C123 1.235 . S
C126 O132 1.287 . S
C126 O133 1.255 . S
O127 Fe116 1.976 . S
O127 C134 1.287 . S
O128 Fe117 1.996 . S
O128 C134 1.255 . S
O129 Fe119 1.976 . S
O129 C124 1.287 . S
O130 Fe116 1.996 . S
O130 C124 1.255 . S
C131 O135 1.295 . S
C131 O136 1.235 . S
O132 Fe117 1.976 . S
O132 C126 1.287 . S
O133 Fe119 1.996 . S
O133 C126 1.255 . S
C134 O127 1.287 . S
C134 O128 1.255 . S
O135 Fe117 2.002 . S
O135 C131 1.295 . S
O136 Fe119 1.997 . S
O136 C131 1.235 . S
C137 O120 1.295 . S
C137 O121 1.235 . S
Fe138 O140 1.918 . S
Fe138 O143 1.997 . S
Fe138 O144 2.002 . S
Fe138 O149 1.976 . S
Fe138 O152 1.996 . S
Fe139 O140 1.918 . S
Fe139 O147 1.997 . S
Fe139 O150 1.996 . S
Fe139 O154 1.976 . S
Fe139 O157 2.002 . S
O140 Fe138 1.918 . S
O140 Fe139 1.918 . S
O140 Fe141 1.918 . S
Fe141 O140 1.918 . S
Fe141 O142 2.002 . S
Fe141 O151 1.976 . S
Fe141 O155 1.996 . S
Fe141 O158 1.997 . S
O142 Fe141 2.002 . S
O142 C159 1.295 . S
O143 Fe138 1.997 . S
O143 C159 1.235 . S
O144 Fe138 2.002 . S
O144 C145 1.295 . S
C145 O144 1.295 . S
C145 O147 1.235 . S
C146 O151 1.287 . S
C146 O152 1.255 . S
O147 Fe139 1.997 . S
O147 C145 1.235 . S
C148 O154 1.287 . S
C148 O155 1.255 . S
O149 Fe138 1.976 . S
O149 C156 1.287 . S
O150 Fe139 1.996 . S
O150 C156 1.255 . S
O151 Fe141 1.976 . S
O151 C146 1.287 . S
O152 Fe138 1.996 . S
O152 C146 1.255 . S
C153 O157 1.295 . S
C153 O158 1.235 . S
O154 Fe139 1.976 . S
O154 C148 1.287 . S
O155 Fe141 1.996 . S
O155 C148 1.255 . S
C156 O149 1.287 . S
C156 O150 1.255 . S
O157 Fe139 2.002 . S
O157 C153 1.295 . S
O158 Fe141 1.997 . S
O158 C153 1.235 . S
C159 O142 1.295 . S
C159 O143 1.235 . S
H160 C172 0.930 . S
H161 C174 0.930 . S
H162 C175 0.930 . S
H163 C179 0.959 . S
H164 C179 0.959 . S
H165 C179 0.961 . S
H166 C180 0.960 . S
H167 C180 0.961 . S
H168 C180 0.959 . S
H169 C183 0.929 . S
H170 C184 0.931 . S
H171 C186 0.930 . S
C172 H160 0.930 . S
C172 C173 1.399 . S
C172 C177 1.399 . S
C173 C172 1.399 . S
C173 C174 1.376 . S
C174 H161 0.930 . S
C174 C173 1.376 . S
C174 C175 1.388 . S
C175 H162 0.930 . S
C175 C174 1.388 . S
C175 C176 1.390 . S
C176 C175 1.390 . S
C176 C177 1.394 . S
C176 C182 1.465 . S
C177 C172 1.399 . S
C177 C176 1.394 . S
C177 C178 1.516 . S
C178 C177 1.516 . S
C178 C179 1.502 . S
C178 C180 1.561 . S
C178 C181 1.526 . S
C179 H163 0.959 . S
C179 H164 0.959 . S
C179 H165 0.961 . S
C179 C178 1.502 . S
C180 H166 0.960 . S
C180 H167 0.961 . S
C180 H168 0.959 . S
C180 C178 1.561 . S
C181 C178 1.526 . S
C181 C182 1.396 . S
C181 C186 1.390 . S
C182 C176 1.465 . S
C182 C181 1.396 . S
C182 C183 1.399 . S
C183 H169 0.929 . S
C183 C182 1.399 . S
C183 C184 1.385 . S
C184 H170 0.931 . S
C184 C183 1.385 . S
C184 C185 1.389 . S
C185 C184 1.389 . S
C185 C186 1.387 . S
C186 H171 0.930 . S
C186 C181 1.390 . S
C186 C185 1.387 . S
H187 C199 0.930 . S
H188 C201 0.930 . S
H189 C202 0.930 . S
H190 C206 0.959 . S
H191 C206 0.959 . S
H192 C206 0.961 . S
H193 C207 0.960 . S
H194 C207 0.961 . S
H195 C207 0.959 . S
H196 C210 0.929 . S
H197 C211 0.931 . S
H198 C213 0.930 . S
C199 H187 0.930 . S
C199 C200 1.399 . S
C199 C204 1.399 . S
C200 C199 1.399 . S
C200 C201 1.376 . S
C201 H188 0.930 . S
C201 C200 1.376 . S
C201 C202 1.388 . S
C202 H189 0.930 . S
C202 C201 1.388 . S
C202 C203 1.390 . S
C203 C202 1.390 . S
C203 C204 1.394 . S
C203 C209 1.465 . S
C204 C199 1.399 . S
C204 C203 1.394 . S
C204 C205 1.516 . S
C205 C204 1.516 . S
C205 C206 1.502 . S
C205 C207 1.561 . S
C205 C208 1.526 . S
C206 H190 0.959 . S
C206 H191 0.959 . S
C206 H192 0.961 . S
C206 C205 1.502 . S
C207 H193 0.960 . S
C207 H194 0.961 . S
C207 H195 0.959 . S
C207 C205 1.561 . S
C208 C205 1.526 . S
C208 C209 1.396 . S
C208 C213 1.390 . S
C209 C203 1.465 . S
C209 C208 1.396 . S
C209 C210 1.399 . S
C210 H196 0.929 . S
C210 C209 1.399 . S
C210 C211 1.385 . S
C211 H197 0.931 . S
C211 C210 1.385 . S
C211 C212 1.389 . S
C212 C211 1.389 . S
C212 C213 1.387 . S
C213 H198 0.930 . S
C213 C208 1.390 . S
C213 C212 1.387 . S
H214 C226 0.930 . S
H215 C228 0.930 . S
H216 C229 0.930 1_554 S
H217 C233 0.959 . S
H218 C233 0.959 . S
H219 C233 0.961 . S
H220 C234 0.960 . S
H221 C234 0.961 . S
H222 C234 0.959 . S
H223 C237 0.929 . S
H224 C238 0.931 . S
H225 C240 0.930 . S
C226 H214 0.930 . S
C226 C227 1.399 . S
C226 C231 1.399 . S
C227 C226 1.399 . S
C227 C228 1.376 1_556 S
C228 H215 0.930 . S
C228 C227 1.376 1_554 S
C228 C229 1.388 1_554 S
C229 H216 0.930 1_556 S
C229 C228 1.388 1_556 S
C229 C230 1.390 . S
C230 C229 1.390 . S
C230 C231 1.394 . S
C230 C236 1.465 . S
C231 C226 1.399 . S
C231 C230 1.394 . S
C231 C232 1.516 . S
C232 C231 1.516 . S
C232 C233 1.502 . S
C232 C234 1.561 . S
C232 C235 1.526 . S
C233 H217 0.959 . S
C233 H218 0.959 . S
C233 H219 0.961 . S
C233 C232 1.502 . S
C234 H220 0.960 . S
C234 H221 0.961 . S
C234 H222 0.959 . S
C234 C232 1.561 . S
C235 C232 1.526 . S
C235 C236 1.396 . S
C235 C240 1.390 . S
C236 C230 1.465 . S
C236 C235 1.396 . S
C236 C237 1.399 . S
C237 H223 0.929 . S
C237 C236 1.399 . S
C237 C238 1.385 . S
C238 H224 0.931 . S
C238 C237 1.385 . S
C238 C239 1.389 . S
C239 C238 1.389 . S
C239 C240 1.387 . S
C240 H225 0.930 . S
C240 C235 1.390 . S
C240 C239 1.387 . S
H241 C253 0.930 . S
H242 C255 0.930 . S
H243 C256 0.930 . S
H244 C260 0.959 . S
H245 C260 0.959 . S
H246 C260 0.961 . S
H247 C261 0.960 . S
H248 C261 0.961 . S
H249 C261 0.959 . S
H250 C264 0.929 . S
H251 C265 0.931 . S
H252 C267 0.930 . S
C253 H241 0.930 . S
C253 C254 1.399 . S
C253 C258 1.399 . S
C254 C253 1.399 . S
C254 C255 1.376 . S
C255 H242 0.930 . S
C255 C254 1.376 . S
C255 C256 1.388 . S
C256 H243 0.930 . S
C256 C255 1.388 . S
C256 C257 1.390 . S
C257 C256 1.390 . S
C257 C258 1.394 . S
C257 C263 1.465 . S
C258 C253 1.399 . S
C258 C257 1.394 . S
C258 C259 1.516 . S
C259 C258 1.516 . S
C259 C260 1.502 . S
C259 C261 1.561 . S
C259 C262 1.526 . S
C260 H244 0.959 . S
C260 H245 0.959 . S
C260 H246 0.961 . S
C260 C259 1.502 . S
C261 H247 0.960 . S
C261 H248 0.961 . S
C261 H249 0.959 . S
C261 C259 1.561 . S
C262 C259 1.526 . S
C262 C263 1.396 . S
C262 C267 1.390 . S
C263 C257 1.465 . S
C263 C262 1.396 . S
C263 C264 1.399 . S
C264 H250 0.929 . S
C264 C263 1.399 . S
C264 C265 1.385 . S
C265 H251 0.931 . S
C265 C264 1.385 . S
C265 C266 1.389 . S
C266 C265 1.389 . S
C266 C267 1.387 . S
C267 H252 0.930 . S
C267 C262 1.390 . S
C267 C266 1.387 . S
H268 C280 0.930 . S
H269 C282 0.930 1_554 S
H270 C283 0.930 . S
H271 C287 0.959 . S
H272 C287 0.959 . S
H273 C287 0.961 . S
H274 C288 0.960 . S
H275 C288 0.961 . S
H276 C288 0.959 . S
H277 C291 0.929 . S
H278 C292 0.931 . S
H279 C294 0.930 . S
C280 H268 0.930 . S
C280 C281 1.399 . S
C280 C285 1.399 . S
C281 C280 1.399 . S
C281 C282 1.376 . S
C282 H269 0.930 1_556 S
C282 C281 1.376 . S
C282 C283 1.388 . S
C283 H270 0.930 . S
C283 C282 1.388 . S
C283 C284 1.390 . S
C284 C283 1.390 . S
C284 C285 1.394 . S
C284 C290 1.465 . S
C285 C280 1.399 . S
C285 C284 1.394 . S
C285 C286 1.516 . S
C286 C285 1.516 . S
C286 C287 1.502 . S
C286 C288 1.561 . S
C286 C289 1.526 . S
C287 H271 0.959 . S
C287 H272 0.959 . S
C287 H273 0.961 . S
C287 C286 1.502 . S
C288 H274 0.960 . S
C288 H275 0.961 . S
C288 H276 0.959 . S
C288 C286 1.561 . S
C289 C286 1.526 . S
C289 C290 1.396 . S
C289 C294 1.390 . S
C290 C284 1.465 . S
C290 C289 1.396 . S
C290 C291 1.399 . S
C291 H277 0.929 . S
C291 C290 1.399 . S
C291 C292 1.385 . S
C292 H278 0.931 . S
C292 C291 1.385 . S
C292 C293 1.389 . S
C293 C292 1.389 . S
C293 C294 1.387 . S
C294 H279 0.930 . S
C294 C289 1.390 . S
C294 C293 1.387 . S
H295 C307 0.930 . S
H296 C309 0.930 . S
H297 C310 0.930 . S
H298 C314 0.959 . S
H299 C314 0.959 . S
H300 C314 0.961 . S
H301 C315 0.960 . S
H302 C315 0.961 . S
H303 C315 0.959 . S
H304 C318 0.929 . S
H305 C319 0.931 . S
H306 C321 0.930 . S
C307 H295 0.930 . S
C307 C308 1.399 . S
C307 C312 1.399 . S
C308 C307 1.399 . S
C308 C309 1.376 . S
C309 H296 0.930 . S
C309 C308 1.376 . S
C309 C310 1.388 . S
C310 H297 0.930 . S
C310 C309 1.388 . S
C310 C311 1.390 . S
C311 C310 1.390 . S
C311 C312 1.394 . S
C311 C317 1.465 . S
C312 C307 1.399 . S
C312 C311 1.394 . S
C312 C313 1.516 . S
C313 C312 1.516 . S
C313 C314 1.502 . S
C313 C315 1.561 . S
C313 C316 1.526 . S
C314 H298 0.959 . S
C314 H299 0.959 . S
C314 H300 0.961 . S
C314 C313 1.502 . S
C315 H301 0.960 . S
C315 H302 0.961 . S
C315 H303 0.959 . S
C315 C313 1.561 . S
C316 C313 1.526 . S
C316 C317 1.396 . S
C316 C321 1.390 . S
C317 C311 1.465 . S
C317 C316 1.396 . S
C317 C318 1.399 . S
C318 H304 0.929 . S
C318 C317 1.399 . S
C318 C319 1.385 . S
C319 H305 0.931 . S
C319 C318 1.385 . S
C319 C320 1.389 . S
C320 C319 1.389 . S
C320 C321 1.387 . S
C321 H306 0.930 . S
C321 C316 1.390 . S
C321 C320 1.387 . S
H322 C334 0.930 . S
H323 C336 0.930 . S
H324 C337 0.930 1_554 S
H325 C341 0.959 . S
H326 C341 0.959 . S
H327 C341 0.961 . S
H328 C342 0.960 . S
H329 C342 0.961 . S
H330 C342 0.959 . S
H331 C345 0.929 . S
H332 C346 0.931 . S
H333 C348 0.930 . S
C334 H322 0.930 . S
C334 C335 1.399 . S
C334 C339 1.399 . S
C335 C334 1.399 . S
C335 C336 1.376 1_556 S
C336 H323 0.930 . S
C336 C335 1.376 1_554 S
C336 C337 1.388 1_554 S
C337 H324 0.930 1_556 S
C337 C336 1.388 1_556 S
C337 C338 1.390 . S
C338 C337 1.390 . S
C338 C339 1.394 . S
C338 C344 1.465 . S
C339 C334 1.399 . S
C339 C338 1.394 . S
C339 C340 1.516 . S
C340 C339 1.516 . S
C340 C341 1.502 . S
C340 C342 1.561 . S
C340 C343 1.526 . S
C341 H325 0.959 . S
C341 H326 0.959 . S
C341 H327 0.961 . S
C341 C340 1.502 . S
C342 H328 0.960 . S
C342 H329 0.961 . S
C342 H330 0.959 . S
C342 C340 1.561 . S
C343 C340 1.526 . S
C343 C344 1.396 . S
C343 C348 1.390 . S
C344 C338 1.465 . S
C344 C343 1.396 . S
C344 C345 1.399 . S
C345 H331 0.929 . S
C345 C344 1.399 . S
C345 C346 1.385 . S
C346 H332 0.931 . S
C346 C345 1.385 . S
C346 C347 1.389 . S
C347 C346 1.389 . S
C347 C348 1.387 . S
C348 H333 0.930 . S
C348 C343 1.390 . S
C348 C347 1.387 . S
H349 C361 0.930 . S
H350 C363 0.930 . S
H351 C364 0.930 . S
H352 C368 0.959 . S
H353 C368 0.959 . S
H354 C368 0.961 . S
H355 C369 0.960 . S
H356 C369 0.961 . S
H357 C369 0.959 . S
H358 C372 0.929 . S
H359 C373 0.931 . S
H360 C375 0.930 . S
C361 H349 0.930 . S
C361 C362 1.399 . S
C361 C366 1.399 . S
C362 C361 1.399 . S
C362 C363 1.376 . S
C363 H350 0.930 . S
C363 C362 1.376 . S
C363 C364 1.388 . S
C364 H351 0.930 . S
C364 C363 1.388 . S
C364 C365 1.390 . S
C365 C364 1.390 . S
C365 C366 1.394 . S
C365 C371 1.465 . S
C366 C361 1.399 . S
C366 C365 1.394 . S
C366 C367 1.516 . S
C367 C366 1.516 . S
C367 C368 1.502 . S
C367 C369 1.561 . S
C367 C370 1.526 . S
C368 H352 0.959 . S
C368 H353 0.959 . S
C368 H354 0.961 . S
C368 C367 1.502 . S
C369 H355 0.960 . S
C369 H356 0.961 . S
C369 H357 0.959 . S
C369 C367 1.561 . S
C370 C367 1.526 . S
C370 C371 1.396 . S
C370 C375 1.390 . S
C371 C365 1.465 . S
C371 C370 1.396 . S
C371 C372 1.399 . S
C372 H358 0.929 . S
C372 C371 1.399 . S
C372 C373 1.385 . S
C373 H359 0.931 . S
C373 C372 1.385 . S
C373 C374 1.389 . S
C374 C373 1.389 . S
C374 C375 1.387 . S
C375 H360 0.930 . S
C375 C370 1.390 . S
C375 C374 1.387 . S
H376 C388 0.930 . S
H377 C390 0.930 . S
H378 C391 0.930 . S
H379 C395 0.959 . S
H380 C395 0.959 . S
H381 C395 0.961 . S
H382 C396 0.960 . S
H383 C396 0.961 . S
H384 C396 0.959 . S
H385 C399 0.929 . S
H386 C400 0.931 . S
H387 C402 0.930 . S
C388 H376 0.930 . S
C388 C389 1.399 . S
C388 C393 1.399 . S
C389 C388 1.399 . S
C389 C390 1.376 . S
C390 H377 0.930 . S
C390 C389 1.376 . S
C390 C391 1.388 . S
C391 H378 0.930 . S
C391 C390 1.388 . S
C391 C392 1.390 . S
C392 C391 1.390 . S
C392 C393 1.394 . S
C392 C398 1.465 . S
C393 C388 1.399 . S
C393 C392 1.394 . S
C393 C394 1.516 . S
C394 C393 1.516 . S
C394 C395 1.502 . S
C394 C396 1.561 . S
C394 C397 1.526 . S
C395 H379 0.959 . S
C395 H380 0.959 . S
C395 H381 0.961 . S
C395 C394 1.502 . S
C396 H382 0.960 . S
C396 H383 0.961 . S
C396 H384 0.959 . S
C396 C394 1.561 . S
C397 C394 1.526 . S
C397 C398 1.396 . S
C397 C402 1.390 . S
C398 C392 1.465 . S
C398 C397 1.396 . S
C398 C399 1.399 . S
C399 H385 0.929 . S
C399 C398 1.399 . S
C399 C400 1.385 . S
C400 H386 0.931 . S
C400 C399 1.385 . S
C400 C401 1.389 . S
C401 C400 1.389 . S
C401 C402 1.387 . S
C402 H387 0.930 . S
C402 C397 1.390 . S
C402 C401 1.387 . S
H403 C415 0.930 . S
H404 C417 0.930 . S
H405 C418 0.930 . S
H406 C422 0.959 . S
H407 C422 0.959 . S
H408 C422 0.961 . S
H409 C423 0.960 . S
H410 C423 0.961 . S
H411 C423 0.959 . S
H412 C426 0.929 . S
H413 C427 0.931 . S
H414 C429 0.930 . S
C415 H403 0.930 . S
C415 C416 1.399 . S
C415 C420 1.399 . S
C416 C415 1.399 . S
C416 C417 1.376 . S
C417 H404 0.930 . S
C417 C416 1.376 . S
C417 C418 1.388 . S
C418 H405 0.930 . S
C418 C417 1.388 . S
C418 C419 1.390 . S
C419 C418 1.390 . S
C419 C420 1.394 . S
C419 C425 1.465 . S
C420 C415 1.399 . S
C420 C419 1.394 . S
C420 C421 1.516 . S
C421 C420 1.516 . S
C421 C422 1.502 . S
C421 C423 1.561 . S
C421 C424 1.526 . S
C422 H406 0.959 . S
C422 H407 0.959 . S
C422 H408 0.961 . S
C422 C421 1.502 . S
C423 H409 0.960 . S
C423 H410 0.961 . S
C423 H411 0.959 . S
C423 C421 1.561 . S
C424 C421 1.526 . S
C424 C425 1.396 . S
C424 C429 1.390 . S
C425 C419 1.465 . S
C425 C424 1.396 . S
C425 C426 1.399 . S
C426 H412 0.929 . S
C426 C425 1.399 . S
C426 C427 1.385 . S
C427 H413 0.931 . S
C427 C426 1.385 . S
C427 C428 1.389 . S
C428 C427 1.389 . S
C428 C429 1.387 . S
C429 H414 0.930 . S
C429 C424 1.390 . S
C429 C428 1.387 . S
H430 C442 0.930 1_554 S
H431 C444 0.930 . S
H432 C445 0.930 . S
H433 C449 0.959 . S
H434 C449 0.959 1_554 S
H435 C449 0.961 1_554 S
H436 C450 0.960 . S
H437 C450 0.961 . S
H438 C450 0.959 . S
H439 C453 0.929 . S
H440 C454 0.931 . S
H441 C456 0.930 . S
C442 H430 0.930 1_556 S
C442 C443 1.399 . S
C442 C447 1.399 . S
C443 C442 1.399 . S
C443 C444 1.376 . S
C444 H431 0.930 . S
C444 C443 1.376 . S
C444 C445 1.388 . S
C445 H432 0.930 . S
C445 C444 1.388 . S
C445 C446 1.390 . S
C446 C445 1.390 . S
C446 C447 1.394 . S
C446 C452 1.465 . S
C447 C442 1.399 . S
C447 C446 1.394 . S
C447 C448 1.516 . S
C448 C447 1.516 . S
C448 C449 1.502 . S
C448 C450 1.561 . S
C448 C451 1.526 . S
C449 H433 0.959 . S
C449 H434 0.959 1_556 S
C449 H435 0.961 1_556 S
C449 C448 1.502 . S
C450 H436 0.960 . S
C450 H437 0.961 . S
C450 H438 0.959 . S
C450 C448 1.561 . S
C451 C448 1.526 . S
C451 C452 1.396 . S
C451 C456 1.390 . S
C452 C446 1.465 . S
C452 C451 1.396 . S
C452 C453 1.399 . S
C453 H439 0.929 . S
C453 C452 1.399 . S
C453 C454 1.385 . S
C454 H440 0.931 . S
C454 C453 1.385 . S
C454 C455 1.389 . S
C455 C454 1.389 . S
C455 C456 1.387 . S
C456 H441 0.930 . S
C456 C451 1.390 . S
C456 C455 1.387 . S
H457 C469 0.930 . S
H458 C471 0.930 . S
H459 C472 0.930 . S
H460 C476 0.959 . S
H461 C476 0.959 . S
H462 C476 0.961 . S
H463 C477 0.960 . S
H464 C477 0.961 . S
H465 C477 0.959 . S
H466 C480 0.929 . S
H467 C481 0.931 . S
H468 C483 0.930 . S
C469 H457 0.930 . S
C469 C470 1.399 . S
C469 C474 1.399 . S
C470 C469 1.399 . S
C470 C471 1.376 . S
C471 H458 0.930 . S
C471 C470 1.376 . S
C471 C472 1.388 . S
C472 H459 0.930 . S
C472 C471 1.388 . S
C472 C473 1.390 . S
C473 C472 1.390 . S
C473 C474 1.394 . S
C473 C479 1.465 . S
C474 C469 1.399 . S
C474 C473 1.394 . S
C474 C475 1.516 . S
C475 C474 1.516 . S
C475 C476 1.502 . S
C475 C477 1.561 . S
C475 C478 1.526 . S
C476 H460 0.959 . S
C476 H461 0.959 . S
C476 H462 0.961 . S
C476 C475 1.502 . S
C477 H463 0.960 . S
C477 H464 0.961 . S
C477 H465 0.959 . S
C477 C475 1.561 . S
C478 C475 1.526 . S
C478 C479 1.396 . S
C478 C483 1.390 . S
C479 C473 1.465 . S
C479 C478 1.396 . S
C479 C480 1.399 . S
C480 H466 0.929 . S
C480 C479 1.399 . S
C480 C481 1.385 . S
C481 H467 0.931 . S
C481 C480 1.385 . S
C481 C482 1.389 . S
C482 C481 1.389 . S
C482 C483 1.387 . S
C483 H468 0.930 . S
C483 C478 1.390 . S
C483 C482 1.387 . S
H484 C496 0.930 . S
H485 C498 0.933 1_554 S
H486 C499 0.930 1_554 S
H487 C503 0.959 . S
H488 C503 0.959 . S
H489 C503 0.961 . S
H490 C504 0.960 1_565 S
H491 C504 0.961 . S
H492 C504 0.959 . S
H493 C507 0.929 . S
H494 C508 0.931 . S
H495 C510 0.930 . S
C496 H484 0.930 . S
C496 C497 1.399 . S
C496 C501 1.399 . S
C497 C496 1.399 . S
C497 C498 1.374 . S
C498 H485 0.933 1_556 S
C498 C497 1.374 . S
C498 C499 1.388 1_565 S
C499 H486 0.930 1_556 S
C499 C498 1.388 1_545 S
C499 C500 1.390 . S
C500 C499 1.390 . S
C500 C501 1.394 1_545 S
C500 C506 1.465 . S
C501 C496 1.399 . S
C501 C500 1.394 1_565 S
C501 C502 1.516 . S
C502 C501 1.516 . S
C502 C503 1.502 . S
C502 C504 1.561 1_565 S
C502 C505 1.526 1_565 S
C503 H487 0.959 . S
C503 H488 0.959 . S
C503 H489 0.961 . S
C503 C502 1.502 . S
C504 H490 0.960 1_545 S
C504 H491 0.961 . S
C504 H492 0.959 . S
C504 C502 1.561 1_545 S
C505 C502 1.526 1_545 S
C505 C506 1.396 . S
C505 C510 1.390 . S
C506 C500 1.465 . S
C506 C505 1.396 . S
C506 C507 1.399 . S
C507 H493 0.929 . S
C507 C506 1.399 . S
C507 C508 1.385 . S
C508 H494 0.931 . S
C508 C507 1.385 . S
C508 C509 1.389 . S
C509 C508 1.389 . S
C509 C510 1.387 . S
C510 H495 0.930 . S
C510 C505 1.390 . S
C510 C509 1.387 . S
H511 C523 0.930 . S
H512 C525 0.930 . S
H513 C526 0.930 . S
H514 C530 0.959 . S
H515 C530 0.959 . S
H516 C530 0.961 . S
H517 C531 0.960 . S
H518 C531 0.961 . S
H519 C531 0.959 . S
H520 C534 0.935 . S
H521 C535 0.931 . S
H522 C537 0.930 . S
C523 H511 0.930 . S
C523 C524 1.399 . S
C523 C528 1.399 1_545 S
C524 C523 1.399 . S
C524 C525 1.376 . S
C525 H512 0.930 . S
C525 C524 1.376 . S
C525 C526 1.388 . S
C526 H513 0.930 . S
C526 C525 1.388 . S
C526 C527 1.390 . S
C527 C526 1.390 . S
C527 C528 1.394 1_545 S
C527 C533 1.465 1_545 S
C528 C523 1.399 1_565 S
C528 C527 1.394 1_565 S
C528 C529 1.516 . S
C529 C528 1.516 . S
C529 C530 1.502 . S
C529 C531 1.561 . S
C529 C532 1.526 . S
C530 H514 0.959 . S
C530 H515 0.959 . S
C530 H516 0.961 . S
C530 C529 1.502 . S
C531 H517 0.960 . S
C531 H518 0.961 . S
C531 H519 0.959 . S
C531 C529 1.561 . S
C532 C529 1.526 . S
C532 C533 1.396 . S
C532 C537 1.390 . S
C533 C527 1.465 1_565 S
C533 C532 1.396 . S
C533 C534 1.399 . S
C534 H520 0.935 . S
C534 C533 1.399 . S
C534 C535 1.385 . S
C535 H521 0.931 . S
C535 C534 1.385 . S
C535 C536 1.389 . S
C536 C535 1.389 . S
C536 C537 1.387 . S
C537 H522 0.930 . S
C537 C532 1.390 . S
C537 C536 1.387 . S
H538 C550 0.930 . S
H539 C552 0.906 1_554 S
H540 C553 0.930 1_554 S
H541 C557 0.959 1_545 S
H542 C557 0.955 1_545 S
H543 C557 0.961 . S
H544 C558 0.960 . S
H545 C558 0.961 . S
H546 C558 0.959 . S
H547 C561 0.929 . S
H548 C562 0.931 . S
H549 C564 0.930 . S
C550 H538 0.930 . S
C550 C551 1.399 . S
C550 C555 1.399 . S
C551 C550 1.399 . S
C551 C552 1.394 . S
C552 H539 0.906 1_556 S
C552 C551 1.394 . S
C552 C553 1.395 1_565 S
C553 H540 0.930 1_556 S
C553 C552 1.395 1_545 S
C553 C554 1.390 . S
C554 C553 1.390 . S
C554 C555 1.394 1_545 S
C554 C560 1.465 . S
C555 C550 1.399 . S
C555 C554 1.394 1_565 S
C555 C556 1.516 . S
C556 C555 1.516 . S
C556 C557 1.502 . S
C556 C558 1.561 . S
C556 C559 1.526 1_565 S
C557 H541 0.959 1_565 S
C557 H542 0.955 1_565 S
C557 H543 0.961 . S
C557 C556 1.502 . S
C558 H544 0.960 . S
C558 H545 0.961 . S
C558 H546 0.959 . S
C558 C556 1.561 . S
C559 C556 1.526 1_545 S
C559 C560 1.396 . S
C559 C564 1.390 . S
C560 C554 1.465 . S
C560 C559 1.396 . S
C560 C561 1.399 . S
C561 H547 0.929 . S
C561 C560 1.399 . S
C561 C562 1.385 . S
C562 H548 0.931 . S
C562 C561 1.385 . S
C562 C563 1.389 . S
C563 C562 1.389 . S
C563 C564 1.387 . S
C564 H549 0.930 . S
C564 C559 1.390 . S
C564 C563 1.387 . S
H565 C577 0.930 . S
H566 C579 0.930 . S
H567 C580 0.930 . S
H568 C584 0.959 . S
H569 C584 0.959 . S
H570 C584 0.961 . S
H571 C585 0.960 . S
H572 C585 0.961 . S
H573 C585 0.959 . S
H574 C588 0.929 . S
H575 C589 0.931 . S
H576 C591 0.930 . S
C577 H565 0.930 . S
C577 C578 1.399 . S
C577 C582 1.399 . S
C578 C577 1.399 . S
C578 C579 1.376 . S
C579 H566 0.930 . S
C579 C578 1.376 . S
C579 C580 1.388 1_545 S
C580 H567 0.930 . S
C580 C579 1.388 1_565 S
C580 C581 1.390 . S
C581 C580 1.390 . S
C581 C582 1.394 1_565 S
C581 C587 1.465 . S
C582 C577 1.399 . S
C582 C581 1.394 1_545 S
C582 C583 1.516 . S
C583 C582 1.516 . S
C583 C584 1.502 . S
C583 C585 1.561 . S
C583 C586 1.526 1_545 S
C584 H568 0.959 . S
C584 H569 0.959 . S
C584 H570 0.961 . S
C584 C583 1.502 . S
C585 H571 0.960 . S
C585 H572 0.961 . S
C585 H573 0.959 . S
C585 C583 1.561 . S
C586 C583 1.526 1_565 S
C586 C587 1.396 . S
C586 C591 1.390 . S
C587 C581 1.465 . S
C587 C586 1.396 . S
C587 C588 1.399 . S
C588 H574 0.929 . S
C588 C587 1.399 . S
C588 C589 1.385 . S
C589 H575 0.931 . S
C589 C588 1.385 . S
C589 C590 1.389 . S
C590 C589 1.389 . S
C590 C591 1.387 . S
C591 H576 0.930 . S
C591 C586 1.390 . S
C591 C590 1.387 . S
H592 C604 0.930 . S
H593 C606 0.930 . S
H594 C607 0.930 . S
H595 C611 0.959 . S
H596 C611 0.959 . S
H597 C611 0.961 . S
H598 C612 0.960 . S
H599 C612 0.961 . S
H600 C612 0.959 . S
H601 C615 0.929 . S
H602 C616 0.931 . S
H603 C618 0.930 . S
C604 H592 0.930 . S
C604 C605 1.399 . S
C604 C609 1.399 . S
C605 C604 1.399 . S
C605 C606 1.376 . S
C606 H593 0.930 . S
C606 C605 1.376 . S
C606 C607 1.388 . S
C607 H594 0.930 . S
C607 C606 1.388 . S
C607 C608 1.390 . S
C608 C607 1.390 . S
C608 C609 1.394 . S
C608 C614 1.465 . S
C609 C604 1.399 . S
C609 C608 1.394 . S
C609 C610 1.516 . S
C610 C609 1.516 . S
C610 C611 1.502 . S
C610 C612 1.561 . S
C610 C613 1.526 . S
C611 H595 0.959 . S
C611 H596 0.959 . S
C611 H597 0.961 . S
C611 C610 1.502 . S
C612 H598 0.960 . S
C612 H599 0.961 . S
C612 H600 0.959 . S
C612 C610 1.561 . S
C613 C610 1.526 . S
C613 C614 1.396 . S
C613 C618 1.390 . S
C614 C608 1.465 . S
C614 C613 1.396 . S
C614 C615 1.399 . S
C615 H601 0.929 . S
C615 C614 1.399 . S
C615 C616 1.385 . S
C616 H602 0.931 . S
C616 C615 1.385 . S
C616 C617 1.389 . S
C617 C616 1.389 . S
C617 C618 1.387 . S
C618 H603 0.930 . S
C618 C613 1.390 . S
C618 C617 1.387 . S
H619 C631 0.930 . S
H620 C633 0.930 . S
H621 C634 0.930 . S
H622 C638 0.959 . S
H623 C638 0.959 . S
H624 C638 0.961 . S
H625 C639 0.960 . S
H626 C639 0.961 . S
H627 C639 0.959 . S
H628 C642 0.929 . S
H629 C643 0.931 . S
H630 C645 0.930 . S
C631 H619 0.930 . S
C631 C632 1.399 . S
C631 C636 1.399 . S
C632 C631 1.399 . S
C632 C633 1.376 . S
C633 H620 0.930 . S
C633 C632 1.376 . S
C633 C634 1.388 . S
C634 H621 0.930 . S
C634 C633 1.388 . S
C634 C635 1.390 . S
C635 C634 1.390 . S
C635 C636 1.394 . S
C635 C641 1.465 . S
C636 C631 1.399 . S
C636 C635 1.394 . S
C636 C637 1.516 . S
C637 C636 1.516 . S
C637 C638 1.502 . S
C637 C639 1.561 . S
C637 C640 1.526 . S
C638 H622 0.959 . S
C638 H623 0.959 . S
C638 H624 0.961 . S
C638 C637 1.502 . S
C639 H625 0.960 . S
C639 H626 0.961 . S
C639 H627 0.959 . S
C639 C637 1.561 . S
C640 C637 1.526 . S
C640 C641 1.396 . S
C640 C645 1.390 . S
C641 C635 1.465 . S
C641 C640 1.396 . S
C641 C642 1.399 . S
C642 H628 0.929 . S
C642 C641 1.399 . S
C642 C643 1.385 . S
C643 H629 0.931 . S
C643 C642 1.385 . S
C643 C644 1.389 . S
C644 C643 1.389 . S
C644 C645 1.387 . S
C645 H630 0.930 . S
C645 C640 1.390 . S
C645 C644 1.387 . S
H646 C658 0.930 . S
H647 C660 0.930 . S
H648 C661 0.930 . S
H649 C665 0.959 . S
H650 C665 0.959 . S
H651 C665 0.961 . S
H652 C666 0.960 . S
H653 C666 0.961 . S
H654 C666 0.959 . S
H655 C669 0.929 . S
H656 C670 0.931 . S
H657 C672 0.930 . S
C658 H646 0.930 . S
C658 C659 1.399 . S
C658 C663 1.399 . S
C659 C658 1.399 . S
C659 C660 1.376 . S
C660 H647 0.930 . S
C660 C659 1.376 . S
C660 C661 1.388 . S
C661 H648 0.930 . S
C661 C660 1.388 . S
C661 C662 1.390 . S
C662 C661 1.390 . S
C662 C663 1.394 . S
C662 C668 1.465 . S
C663 C658 1.399 . S
C663 C662 1.394 . S
C663 C664 1.516 . S
C664 C663 1.516 . S
C664 C665 1.502 . S
C664 C666 1.561 . S
C664 C667 1.526 . S
C665 H649 0.959 . S
C665 H650 0.959 . S
C665 H651 0.961 . S
C665 C664 1.502 . S
C666 H652 0.960 . S
C666 H653 0.961 . S
C666 H654 0.959 . S
C666 C664 1.561 . S
C667 C664 1.526 . S
C667 C668 1.396 . S
C667 C672 1.390 . S
C668 C662 1.465 . S
C668 C667 1.396 . S
C668 C669 1.399 . S
C669 H655 0.929 . S
C669 C668 1.399 . S
C669 C670 1.385 . S
C670 H656 0.931 . S
C670 C669 1.385 . S
C670 C671 1.389 . S
C671 C670 1.389 . S
C671 C672 1.387 . S
C672 H657 0.930 . S
C672 C667 1.390 . S
C672 C671 1.387 . S
H673 C685 0.930 . S
H674 C687 0.930 . S
H675 C688 0.930 . S
H676 C692 0.959 . S
H677 C692 0.959 . S
H678 C692 0.961 . S
H679 C693 0.960 . S
H680 C693 0.961 . S
H681 C693 0.959 . S
H682 C696 0.929 . S
H683 C697 0.931 . S
H684 C699 0.930 . S
C685 H673 0.930 . S
C685 C686 1.399 . S
C685 C690 1.399 . S
C686 C685 1.399 . S
C686 C687 1.376 . S
C687 H674 0.930 . S
C687 C686 1.376 . S
C687 C688 1.388 . S
C688 H675 0.930 . S
C688 C687 1.388 . S
C688 C689 1.390 . S
C689 C688 1.390 . S
C689 C690 1.394 . S
C689 C695 1.465 . S
C690 C685 1.399 . S
C690 C689 1.394 . S
C690 C691 1.516 . S
C691 C690 1.516 . S
C691 C692 1.502 . S
C691 C693 1.561 . S
C691 C694 1.526 . S
C692 H676 0.959 . S
C692 H677 0.959 . S
C692 H678 0.961 . S
C692 C691 1.502 . S
C693 H679 0.960 . S
C693 H680 0.961 . S
C693 H681 0.959 . S
C693 C691 1.561 . S
C694 C691 1.526 . S
C694 C695 1.396 . S
C694 C699 1.390 . S
C695 C689 1.465 . S
C695 C694 1.396 . S
C695 C696 1.399 . S
C696 H682 0.929 . S
C696 C695 1.399 . S
C696 C697 1.385 . S
C697 H683 0.931 . S
C697 C696 1.385 . S
C697 C698 1.389 . S
C698 C697 1.389 . S
C698 C699 1.387 . S
C699 H684 0.930 . S
C699 C694 1.390 . S
C699 C698 1.387 . S
H700 C712 0.930 . S
H701 C714 0.930 . S
H702 C715 0.930 . S
H703 C719 0.959 . S
H704 C719 0.959 . S
H705 C719 0.961 . S
H706 C720 0.960 . S
H707 C720 0.961 . S
H708 C720 0.959 . S
H709 C723 0.929 . S
H710 C724 0.931 . S
H711 C726 0.930 . S
C712 H700 0.930 . S
C712 C713 1.399 . S
C712 C717 1.399 . S
C713 C712 1.399 . S
C713 C714 1.376 . S
C714 H701 0.930 . S
C714 C713 1.376 . S
C714 C715 1.388 . S
C715 H702 0.930 . S
C715 C714 1.388 . S
C715 C716 1.390 . S
C716 C715 1.390 . S
C716 C717 1.394 . S
C716 C722 1.465 . S
C717 C712 1.399 . S
C717 C716 1.394 . S
C717 C718 1.516 . S
C718 C717 1.516 . S
C718 C719 1.502 . S
C718 C720 1.561 . S
C718 C721 1.526 . S
C719 H703 0.959 . S
C719 H704 0.959 . S
C719 H705 0.961 . S
C719 C718 1.502 . S
C720 H706 0.960 . S
C720 H707 0.961 . S
C720 H708 0.959 . S
C720 C718 1.561 . S
C721 C718 1.526 . S
C721 C722 1.396 . S
C721 C726 1.390 . S
C722 C716 1.465 . S
C722 C721 1.396 . S
C722 C723 1.399 . S
C723 H709 0.929 . S
C723 C722 1.399 . S
C723 C724 1.385 . S
C724 H710 0.931 . S
C724 C723 1.385 . S
C724 C725 1.389 . S
C725 C724 1.389 . S
C725 C726 1.387 . S
C726 H711 0.930 . S
C726 C721 1.390 . S
C726 C725 1.387 . S
H727 C739 0.930 . S
H728 C741 0.930 . S
H729 C742 0.930 . S
H730 C746 0.959 . S
H731 C746 0.959 . S
H732 C746 0.961 . S
H733 C747 0.960 . S
H734 C747 0.961 . S
H735 C747 0.959 . S
H736 C750 0.929 . S
H737 C751 0.931 . S
H738 C753 0.930 . S
C739 H727 0.930 . S
C739 C740 1.399 . S
C739 C744 1.399 . S
C740 C739 1.399 . S
C740 C741 1.376 . S
C741 H728 0.930 . S
C741 C740 1.376 . S
C741 C742 1.388 . S
C742 H729 0.930 . S
C742 C741 1.388 . S
C742 C743 1.390 . S
C743 C742 1.390 . S
C743 C744 1.394 . S
C743 C749 1.465 . S
C744 C739 1.399 . S
C744 C743 1.394 . S
C744 C745 1.516 . S
C745 C744 1.516 . S
C745 C746 1.502 . S
C745 C747 1.561 . S
C745 C748 1.526 . S
C746 H730 0.959 . S
C746 H731 0.959 . S
C746 H732 0.961 . S
C746 C745 1.502 . S
C747 H733 0.960 . S
C747 H734 0.961 . S
C747 H735 0.959 . S
C747 C745 1.561 . S
C748 C745 1.526 . S
C748 C749 1.396 . S
C748 C753 1.390 . S
C749 C743 1.465 . S
C749 C748 1.396 . S
C749 C750 1.399 . S
C750 H736 0.929 . S
C750 C749 1.399 . S
C750 C751 1.385 . S
C751 H737 0.931 . S
C751 C750 1.385 . S
C751 C752 1.389 . S
C752 C751 1.389 . S
C752 C753 1.387 . S
C753 H738 0.930 . S
C753 C748 1.390 . S
C753 C752 1.387 . S
H754 C766 0.930 . S
H755 C768 0.930 . S
H756 C769 0.930 . S
H757 C773 0.959 . S
H758 C773 0.959 . S
H759 C773 0.961 . S
H760 C774 0.960 . S
H761 C774 0.961 . S
H762 C774 0.959 . S
H763 C777 0.929 . S
H764 C778 0.931 . S
H765 C780 0.930 . S
C766 H754 0.930 . S
C766 C767 1.399 . S
C766 C771 1.399 . S
C767 C766 1.399 . S
C767 C768 1.376 . S
C768 H755 0.930 . S
C768 C767 1.376 . S
C768 C769 1.388 . S
C769 H756 0.930 . S
C769 C768 1.388 . S
C769 C770 1.390 . S
C770 C769 1.390 . S
C770 C771 1.394 . S
C770 C776 1.465 . S
C771 C766 1.399 . S
C771 C770 1.394 . S
C771 C772 1.516 . S
C772 C771 1.516 . S
C772 C773 1.502 . S
C772 C774 1.561 . S
C772 C775 1.526 . S
C773 H757 0.959 . S
C773 H758 0.959 . S
C773 H759 0.961 . S
C773 C772 1.502 . S
C774 H760 0.960 . S
C774 H761 0.961 . S
C774 H762 0.959 . S
C774 C772 1.561 . S
C775 C772 1.526 . S
C775 C776 1.396 . S
C775 C780 1.390 . S
C776 C770 1.465 . S
C776 C775 1.396 . S
C776 C777 1.399 . S
C777 H763 0.929 . S
C777 C776 1.399 . S
C777 C778 1.385 . S
C778 H764 0.931 . S
C778 C777 1.385 . S
C778 C779 1.389 . S
C779 C778 1.389 . S
C779 C780 1.387 . S
C780 H765 0.930 . S
C780 C775 1.390 . S
C780 C779 1.387 . S
H781 C793 0.930 . S
H782 C795 0.930 . S
H783 C796 0.930 . S
H784 C800 0.959 . S
H785 C800 0.959 . S
H786 C800 0.961 . S
H787 C801 0.960 . S
H788 C801 0.961 . S
H789 C801 0.959 . S
H790 C804 0.929 . S
H791 C805 0.931 . S
H792 C807 0.930 . S
C793 H781 0.930 . S
C793 C794 1.399 . S
C793 C798 1.399 . S
C794 C793 1.399 . S
C794 C795 1.376 . S
C795 H782 0.930 . S
C795 C794 1.376 . S
C795 C796 1.388 . S
C796 H783 0.930 . S
C796 C795 1.388 . S
C796 C797 1.390 . S
C797 C796 1.390 . S
C797 C798 1.394 . S
C797 C803 1.465 . S
C798 C793 1.399 . S
C798 C797 1.394 . S
C798 C799 1.516 . S
C799 C798 1.516 . S
C799 C800 1.502 . S
C799 C801 1.561 . S
C799 C802 1.526 . S
C800 H784 0.959 . S
C800 H785 0.959 . S
C800 H786 0.961 . S
C800 C799 1.502 . S
C801 H787 0.960 . S
C801 H788 0.961 . S
C801 H789 0.959 . S
C801 C799 1.561 . S
C802 C799 1.526 . S
C802 C803 1.396 . S
C802 C807 1.390 . S
C803 C797 1.465 . S
C803 C802 1.396 . S
C803 C804 1.399 . S
C804 H790 0.929 . S
C804 C803 1.399 . S
C804 C805 1.385 . S
C805 H791 0.931 . S
C805 C804 1.385 . S
C805 C806 1.389 . S
C806 C805 1.389 . S
C806 C807 1.387 . S
C807 H792 0.930 . S
C807 C802 1.390 . S
C807 C806 1.387 . S
C173 C7 1.500 . S
C185 C115 1.513 . S
C212 C79 1.485 . S
C200 C16 1.521 . S
C239 C102 1.471 . S
C227 C25 1.502 . S
C266 C90 1.506 . S
C254 C34 1.475 . S
C293 C159 1.504 . S
C281 C43 1.505 . S
C320 C123 1.498 . S
C308 C52 1.508 . S
C335 C61 1.497 . S
C347 C146 1.474 . S
C374 C134 1.475 . S
C362 C70 1.505 . S
C389 C5 1.438 . S
C401 C156 1.446 . S
C428 C126 1.446 . S
C416 C14 1.438 . S
C443 C22 1.484 . S
C455 C145 1.473 . S
C470 C32 1.493 . S
C482 C131 1.489 . S
C509 C112 1.461 . S
C497 C41 1.456 . S
C524 C50 1.438 . S
C536 C82 1.447 . S
C563 C101 1.462 . S
C551 C58 1.465 . S
C590 C87 1.479 . S
C578 C68 1.478 . S
C617 C137 1.478 . S
C605 C4 1.481 . S
C644 C153 1.436 . S
C632 C13 1.457 . S
C659 C23 1.453 . S
C671 C124 1.440 . S
C698 C148 1.434 . S
C686 C31 1.447 . S
C725 C93 1.441 . S
C713 C40 1.461 . S
C740 C49 1.480 . S
C752 C109 1.477 . S
C767 C59 1.439 . S
C779 C80 1.429 . S
C794 C67 1.454 . S
C806 C104 1.451 . S
