# Generated by pormake.
# Topology tsx, (6,3)-cn, num edge types: 1
# Building blocks:
#     Node 0, Type 0, BuildingBlock: VOLQOD_clean_sbu_1, # of connection points: 6
#     Node 1, Type 0, BuildingBlock: VOLQOD_clean_sbu_1, # of connection points: 6
#     Node 2, Type 1, BuildingBlock: MIDCAF_clean_linker_0, # of connection points: 3
#     Node 3, Type 1, BuildingBlock: MIDCAF_clean_linker_0, # of connection points: 3
#     Node 4, Type 1, BuildingBlock: MIDCAF_clean_linker_0, # of connection points: 3
#     Node 5, Type 1, BuildingBlock: MIDCAF_clean_linker_0, # of connection points: 3
#     Edge 6, Type (0, 1), BuildingBlock: UVAHIK_clean_linker_0, # of connection points: 2
#     Edge 7, Type (0, 1), BuildingBlock: UVAHIK_clean_linker_0, # of connection points: 2
#     Edge 8, Type (0, 1), BuildingBlock: UVAHIK_clean_linker_0, # of connection points: 2
#     Edge 9, Type (0, 1), BuildingBlock: UVAHIK_clean_linker_0, # of connection points: 2
#     Edge 10, Type (0, 1), BuildingBlock: UVAHIK_clean_linker_0, # of connection points: 2
#     Edge 11, Type (0, 1), BuildingBlock: UVAHIK_clean_linker_0, # of connection points: 2
#     Edge 12, Type (0, 1), BuildingBlock: UVAHIK_clean_linker_0, # of connection points: 2
#     Edge 13, Type (0, 1), BuildingBlock: UVAHIK_clean_linker_0, # of connection points: 2
#     Edge 14, Type (0, 1), BuildingBlock: UVAHIK_clean_linker_0, # of connection points: 2
#     Edge 15, Type (0, 1), BuildingBlock: UVAHIK_clean_linker_0, # of connection points: 2
#     Edge 16, Type (0, 1), BuildingBlock: UVAHIK_clean_linker_0, # of connection points: 2
#     Edge 17, Type (0, 1), BuildingBlock: UVAHIK_clean_linker_0, # of connection points: 2
# Relax obj value: 0.076
# Max RMSD: 0.108
# Mean RMSD: 0.083
data_MOF--net-tsx--node1-VOLQOD_clean_sbu_1--node2-MIDCAF_clean_linker_0--edge1-UVAHIK_clean_linker_0
_symmetry_space_group_name_H-M    P1
_symmetry_Int_Tables_number       1
_symmetry_cell_setting            triclinic
loop_
_symmetry_equiv_pos_as_xyz
'x, y, z'
_cell_length_a     30.560978
_cell_length_b     31.683486
_cell_length_c     60.572007
_cell_angle_alpha  90.35893
_cell_angle_beta   89.997267
_cell_angle_gamma 90.299884
loop_
_atom_site_label
_atom_site_type_symbol
_atom_site_fract_x
_atom_site_fract_y
_atom_site_fract_z
_atom_type_partial_charge
O0 O 0.01658 -0.00192 0.061 0.0
Zn1 Zn 0.03607 0.99384 0.02945 0.0
O2 O 0.98741 0.00251 0.00914 0.0
Zn3 Zn 0.97943 0.95177 0.99098 0.0
Zn4 Zn 0.93412 0.01369 0.02611 0.0
Zn5 Zn 0.00034 0.05065 0.99011 0.0
O6 O 0.98551 0.96485 0.95863 0.0
O7 O 0.00063 0.03344 0.95805 0.0
O8 O 0.06315 0.93695 0.02523 0.0
O9 O 0.02442 0.90775 -0.00184 0.0
O10 O 0.92017 0.92577 0.99605 0.0
O11 O 0.88842 0.96896 0.02014 0.0
O12 O 0.90874 0.07012 0.01846 0.0
O13 O 0.08357 0.0369 0.02473 0.0
O14 O 0.9553 0.09613 0.99386 0.0
O15 O 0.05912 0.07634 0.99726 0.0
C16 C 0.98027 0.00673 0.07021 0.0
C17 C 0.99417 -0.00152 0.94805 0.0
C18 C 0.88754 0.93601 0.00797 0.0
C19 C 0.05534 0.90619 0.01221 0.0
C20 C 0.92086 0.09952 0.00556 0.0
C21 C 0.08844 0.06748 0.0114 0.0
O22 O 0.94608 0.01406 0.05887 0.0
O23 O 0.53191 0.49344 0.55987 0.0
Zn24 Zn 0.54981 0.48906 0.52807 0.0
O25 O 0.50092 0.50098 0.50842 0.0
Zn26 Zn 0.48873 0.45096 0.49028 0.0
Zn27 Zn 0.44943 0.51484 0.52613 0.0
Zn28 Zn 0.51585 0.54888 0.48947 0.0
O29 O 0.49456 0.46423 0.45797 0.0
O30 O 0.51804 0.53072 0.45751 0.0
O31 O 0.5736 0.43095 0.52312 0.0
O32 O 0.53116 0.40406 0.49682 0.0
O33 O 0.42821 0.42825 0.49598 0.0
O34 O 0.40144 0.47207 0.52126 0.0
O35 O 0.42547 0.57139 0.51791 0.0
O36 O 0.59898 0.53024 0.5234 0.0
O37 O 0.47089 0.59522 0.49219 0.0
O38 O 0.57483 0.57349 0.49746 0.0
C39 C 0.49707 0.50524 0.56957 0.0
C40 C 0.50768 0.49663 0.44747 0.0
C41 C 0.39743 0.43974 0.50881 0.0
C42 C 0.56297 0.40069 0.51027 0.0
C43 C 0.43702 0.59969 0.50424 0.0
C44 C 0.60432 0.56218 0.51102 0.0
O45 O 0.4632 0.51567 0.55869 0.0
C46 C 0.86003 0.08389 0.43001 0.0
C47 C 0.86141 0.0823 0.45318 0.0
C48 C 0.89656 0.06167 0.4634 0.0
C49 C 0.92986 0.04351 0.4507 0.0
H50 H 0.04963 0.98082 0.45469 0.0
H51 H 0.10689 0.93693 0.47072 0.0
H52 H 0.15423 0.90683 0.40539 0.0
H53 H 0.09747 0.95024 0.3893 0.0
H54 H 0.06198 0.00849 0.34888 0.0
H55 H 0.0575 0.01117 0.30885 0.0
H56 H 0.91771 0.02998 0.31327 0.0
H57 H 0.92259 0.02919 0.35335 0.0
H58 H 0.89101 0.06823 0.39956 0.0
H59 H 0.83392 0.10023 0.42159 0.0
H60 H 0.8984 0.05967 0.48122 0.0
H61 H 0.95665 0.02813 0.45909 0.0
N62 N -0.00088 0.00831 0.4233 0.0
N63 N 0.02964 -0.00381 0.38831 0.0
N64 N 0.96274 0.03125 0.39148 0.0
C65 C 0.03186 0.99228 0.4106 0.0
C66 C 0.99524 0.0156 0.37863 0.0
C67 C 0.96446 0.02796 0.41381 0.0
C68 C 0.06854 0.96876 0.42067 0.0
C69 C 0.07245 0.96514 0.44374 0.0
C70 C 0.10535 0.94021 0.45295 0.0
C71 C 0.13464 0.91822 0.43927 0.0
C72 C 0.13166 0.92298 0.4163 0.0
C73 C 0.09913 0.94804 0.40711 0.0
C74 C 0.99263 0.01848 0.35431 0.0
C75 C 0.03031 0.01336 0.34131 0.0
C76 C 0.02767 0.01465 0.31831 0.0
C77 C 0.98717 0.02044 0.30773 0.0
C78 C 0.94956 0.02607 0.32079 0.0
C79 C 0.95231 0.02538 0.34381 0.0
C80 C 0.92871 0.04572 0.42751 0.0
C81 C 0.89314 0.06581 0.41736 0.0
C82 C 0.95093 0.84684 0.59375 0.0
C83 C 0.9439 0.84894 0.57087 0.0
C84 C 0.95958 0.8842 0.55928 0.0
C85 C 0.98106 0.91707 0.57044 0.0
H86 H 0.05068 0.0284 0.56105 0.0
H87 H 0.08035 0.08951 0.54167 0.0
H88 H 0.10067 0.15337 0.60406 0.0
H89 H 0.07071 0.09294 0.62343 0.0
H90 H 0.06758 0.03972 0.66734 0.0
H91 H 0.06726 0.04006 0.7075 0.0
H92 H 0.98469 0.92891 0.70726 0.0
H93 H 0.98602 0.92775 0.66714 0.0
H94 H 0.97634 0.87714 0.62261 0.0
H95 H 0.93871 0.8204 0.60323 0.0
H96 H 0.95498 0.88652 0.5416 0.0
H97 H 0.99221 0.94403 0.56104 0.0
N98 N 0.02356 0.98514 0.59461 0.0
N99 N 0.04228 0.01757 0.62823 0.0
N100 N 0.00875 0.95098 0.62804 0.0
C101 C 0.0411 0.01845 0.60582 0.0
C102 C 0.02621 0.98396 0.63948 0.0
C103 C 0.00737 0.95123 0.60562 0.0
C104 C 0.05838 0.05561 0.59384 0.0
C105 C 0.06126 0.05554 0.57065 0.0
C106 C 0.07837 0.09048 0.55952 0.0
C107 C 0.09265 0.12629 0.57133 0.0
C108 C 0.08929 0.12652 0.59446 0.0
C109 C 0.07243 0.09163 0.60558 0.0
C110 C 0.02676 0.98374 0.66395 0.0
C111 C 0.04943 0.01525 0.67582 0.0
C112 C 0.04907 0.0156 0.69889 0.0
C113 C 0.02582 0.98461 0.71065 0.0
C114 C 0.00345 0.95292 0.69877 0.0
C115 C 0.00403 0.95241 0.67571 0.0
C116 C 0.98708 0.91543 0.59345 0.0
C117 C 0.97224 0.87965 0.60491 0.0
C118 C 0.38159 0.61899 0.92554 0.0
C119 C 0.37868 0.61569 0.94859 0.0
C120 C 0.4067 0.58799 0.95969 0.0
C121 C 0.43783 0.56475 0.94795 0.0
H122 H 0.55192 0.49897 0.95657 0.0
H123 H 0.60769 0.45897 0.97599 0.0
H124 H 0.66128 0.41773 0.91353 0.0
H125 H 0.60637 0.45821 0.89408 0.0
H126 H 0.57189 0.50522 0.84981 0.0
H127 H 0.56943 0.50379 0.80969 0.0
H128 H 0.43192 0.53516 0.81166 0.0
H129 H 0.43495 0.53842 0.85175 0.0
H130 H 0.41389 0.59918 0.89604 0.0
H131 H 0.35997 0.63974 0.91656 0.0
H132 H 0.4052 0.58505 0.97748 0.0
H133 H 0.45937 0.54406 0.95701 0.0
N134 N 0.50769 0.525 0.92321 0.0
N135 N 0.53792 0.50357 0.8894 0.0
N136 N 0.47389 0.54389 0.88999 0.0
C137 C 0.53933 0.50422 0.91183 0.0
C138 C 0.50524 0.52324 0.87838 0.0
C139 C 0.47494 0.54501 0.91241 0.0
C140 C 0.57442 0.48166 0.92372 0.0
C141 C 0.57577 0.48164 0.94695 0.0
C142 C 0.60763 0.4586 0.95811 0.0
C143 C 0.63885 0.43515 0.94631 0.0
C144 C 0.6381 0.43596 0.92312 0.0
C145 C 0.60631 0.45896 0.91196 0.0
C146 C 0.50364 0.522 0.85398 0.0
C147 C 0.54113 0.51183 0.84167 0.0
C148 C 0.53963 0.51076 0.81863 0.0
C149 C 0.50043 0.51924 0.80734 0.0
C150 C 0.46288 0.52919 0.81972 0.0
C151 C 0.46455 0.53084 0.84275 0.0
C152 C 0.44117 0.56848 0.92487 0.0
C153 C 0.41236 0.59553 0.91379 0.0
C154 C 0.44605 0.33793 0.09795 0.0
C155 C 0.43997 0.33839 0.07498 0.0
C156 C 0.46388 0.36731 0.06224 0.0
C157 C 0.49163 0.39677 0.07244 0.0
H158 H 0.56622 0.5055 0.06056 0.0
H159 H 0.59255 0.56697 0.04015 0.0
H160 H 0.61016 0.635 0.10154 0.0
H161 H 0.5838 0.57423 0.12189 0.0
H162 H 0.5608 0.53239 0.16669 0.0
H163 H 0.56038 0.53449 0.20677 0.0
H164 H 0.53713 0.3998 0.20822 0.0
H165 H 0.53572 0.39804 0.16805 0.0
H166 H 0.47684 0.36643 0.12594 0.0
H167 H 0.42846 0.31552 0.10812 0.0
H168 H 0.45969 0.36835 0.04449 0.0
H169 H 0.50846 0.41962 0.06222 0.0
N170 N 0.53716 0.46493 0.09504 0.0
N171 N 0.56079 0.49747 0.12784 0.0
N172 N 0.52568 0.4317 0.12906 0.0
C173 C 0.55704 0.49791 0.1055 0.0
C174 C 0.54546 0.4644 0.13973 0.0
C175 C 0.52134 0.43169 0.10673 0.0
C176 C 0.57293 0.53485 0.09289 0.0
C177 C 0.57556 0.53363 0.06969 0.0
C178 C 0.59073 0.56873 0.05799 0.0
C179 C 0.60307 0.60583 0.06925 0.0
C180 C 0.60019 0.60708 0.09238 0.0
C181 C 0.58544 0.57202 0.10406 0.0
C182 C 0.54806 0.46508 0.16413 0.0
C183 C 0.55584 0.50315 0.17554 0.0
C184 C 0.55585 0.50431 0.19859 0.0
C185 C 0.54862 0.46733 0.21083 0.0
C186 C 0.54194 0.42906 0.19938 0.0
C187 C 0.54139 0.42799 0.17631 0.0
C188 C 0.49619 0.3976 0.09556 0.0
C189 C 0.47395 0.36707 0.10812 0.0
C190 C 0.16311 0.08218 0.02676 0.0
C191 C 0.12844 0.0939 0.01286 0.0
C192 C 0.19976 0.10827 0.0292 0.0
C193 C 0.23062 0.21919 0.02661 0.0
H194 H 0.3488 0.17656 0.03254 0.0
C195 C 0.41561 0.28725 0.04549 0.0
C196 C 0.40644 0.31074 0.06468 0.0
C197 C 0.38341 0.26127 0.03602 0.0
C198 C 0.31607 0.18897 0.03065 0.0
H199 H 0.10583 0.14164 0.99005 0.0
H200 H 0.16982 0.18733 0.99447 0.0
H201 H 0.28987 0.12887 0.02076 0.0
H202 H 0.35637 0.32643 0.08868 0.0
H203 H 0.30034 0.28129 0.07219 0.0
H204 H 0.25649 0.27896 0.03702 0.0
C205 C 0.16841 0.15799 0.00353 0.0
C206 C 0.28234 0.16166 0.02409 0.0
C207 C 0.13185 0.13175 0.00096 0.0
C208 C 0.36448 0.30827 0.07404 0.0
C209 C 0.33228 0.28282 0.06446 0.0
C210 C 0.26421 0.24634 0.03332 0.0
C211 C 0.20246 0.14677 0.01789 0.0
C212 C 0.23914 0.17636 0.0224 0.0
C213 C 0.3414 0.25901 0.0454 0.0
C214 C 0.30706 0.23131 0.03584 0.0
H215 H 0.16167 0.05315 0.03609 0.0
H216 H 0.22526 0.09901 0.04057 0.0
H217 H 0.19762 0.23136 0.02561 0.0
H218 H 0.44777 0.28858 0.038 0.0
H219 H 0.39119 0.24327 0.02129 0.0
C220 C 0.07952 0.8365 0.99685 0.0
C221 C 0.08451 0.86908 0.01252 0.0
C222 C 0.11005 0.80396 0.99555 0.0
C223 C 0.2257 0.78649 0.00657 0.0
H224 H 0.19823 0.67177 0.98841 0.0
C225 C 0.31973 0.62419 0.97709 0.0
C226 C 0.34707 0.64196 0.96094 0.0
C227 C 0.28846 0.64899 0.98785 0.0
C228 C 0.20644 0.70348 0.99383 0.0
H229 H 0.12393 0.89145 0.04008 0.0
H230 H 0.177 0.8345 0.03783 0.0
H231 H 0.13939 0.71881 0.00016 0.0
H232 H 0.36446 0.69967 0.94395 0.0
H233 H 0.30994 0.74284 0.9626 0.0
H234 H 0.29254 0.77156 -0.00025 0.0
C235 C 0.14986 0.83457 0.02634 0.0
C236 C 0.17276 0.7305 0.00034 0.0
C237 C 0.11937 0.86713 0.02763 0.0
C238 C 0.34347 0.6851 0.95618 0.0
C239 C 0.31261 0.70988 0.96703 0.0
C240 C 0.25928 0.75957 1e-05 0.0
C241 C 0.14616 0.80326 0.00991 0.0
C242 C 0.18195 0.77261 0.00623 0.0
C243 C 0.2845 0.69203 0.98282 0.0
C244 C 0.24985 0.71821 0.99297 0.0
H245 H 0.05296 0.83692 0.98501 0.0
H246 H 0.10651 0.78054 0.98256 0.0
H247 H 0.23388 0.81883 0.01083 0.0
H248 H 0.32181 0.59094 0.98099 0.0
H249 H 0.26727 0.63452 1e-05 0.0
C250 C 0.8115 0.91912 0.02084 0.0
C251 C 0.84894 0.90762 0.00878 0.0
C252 C 0.77697 0.89056 0.02351 0.0
C253 C 0.73169 0.78757 0.00384 0.0
H254 H 0.69068 0.77948 0.06424 0.0
C255 C 0.65283 0.63781 0.04094 0.0
C256 C 0.62051 0.64286 0.05722 0.0
C257 C 0.67345 0.67308 0.03177 0.0
C258 C 0.70102 0.78175 0.04718 0.0
H259 H 0.87845 0.85774 0.98917 0.0
H260 H 0.81873 0.80774 0.99423 0.0
H261 H 0.73985 0.83642 0.05405 0.0
H262 H 0.58195 0.68861 0.07539 0.0
H263 H 0.6177 0.75016 0.0593 0.0
H264 H 0.69381 0.73172 0.9973 0.0
C265 C 0.81572 0.839 0.00138 0.0
C266 C 0.72926 0.8145 0.04132 0.0
C267 C 0.85015 0.86764 -0.0014 0.0
C268 C 0.60738 0.6838 0.06318 0.0
C269 C 0.62785 0.719 0.05398 0.0
C270 C 0.70343 0.75464 0.00975 0.0
C271 C 0.77918 0.84978 0.01429 0.0
C272 C 0.7455 0.81746 0.01967 0.0
C273 C 0.66202 0.71403 0.03867 0.0
C274 C 0.68832 0.75105 0.03158 0.0
H275 H 0.80925 0.94985 0.02868 0.0
H276 H 0.74891 0.90013 0.03321 0.0
H277 H 0.74317 0.78929 0.98696 0.0
H278 H 0.66379 0.60662 0.03613 0.0
H279 H 0.69992 0.66816 0.02016 0.0
C280 C 0.90643 0.17079 0.98951 0.0
C281 C 0.89413 0.13819 0.00391 0.0
C282 C 0.88039 0.20658 0.98733 0.0
C283 C 0.76688 0.24088 0.99382 0.0
H284 H 0.81651 0.3526 0.98558 0.0
C285 C 0.65716 0.38305 0.97584 0.0
C286 C 0.67068 0.40805 0.95798 0.0
C287 C 0.68575 0.35404 0.98526 0.0
C288 C 0.80221 0.32157 0.98781 0.0
H289 H 0.84538 0.11829 0.02782 0.0
H290 H 0.80008 0.1809 0.02404 0.0
H291 H 0.86432 0.29383 0.99497 0.0
H292 H 0.72558 0.42405 0.93689 0.0
H293 H 0.77516 0.37276 0.95297 0.0
H294 H 0.70502 0.26815 0.98607 0.0
C295 C 0.82963 0.17846 0.01425 0.0
C296 C 0.82955 0.28795 0.99317 0.0
C297 C 0.85568 0.14265 0.01645 0.0
C298 C 0.71401 0.40479 0.95042 0.0
C299 C 0.74259 0.37575 0.95982 0.0
C300 C 0.73958 0.27444 0.98845 0.0
C301 C 0.84147 0.2106 -0.0005 0.0
C302 C 0.81224 0.24711 0.99586 0.0
C303 C 0.72846 0.34939 0.97701 0.0
C304 C 0.75702 0.31501 0.98502 0.0
H305 H 0.93585 0.16844 0.97961 0.0
H306 H 0.89011 0.23054 0.9756 0.0
H307 H 0.75261 0.2097 0.99547 0.0
H308 H 0.62391 0.38462 0.98197 0.0
H309 H 0.6741 0.33454 -0.00132 0.0
C310 C 0.68042 0.57202 0.52548 0.0
C311 C 0.64513 0.58727 0.51303 0.0
C312 C 0.71792 0.59665 0.52861 0.0
C313 C 0.77677 0.69213 0.50873 0.0
H314 H 0.82211 0.69431 0.56852 0.0
C315 C 0.88512 0.82626 0.54438 0.0
C316 C 0.91797 0.8155 0.55956 0.0
C317 C 0.85697 0.79532 0.53587 0.0
C318 C 0.81041 0.69356 0.55164 0.0
H319 H 0.62214 0.63992 0.49353 0.0
H320 H 0.68719 0.68334 0.49945 0.0
H321 H 0.76297 0.64607 0.55904 0.0
H322 H 0.94907 0.76351 0.57645 0.0
H323 H 0.89983 0.7095 0.56162 0.0
H324 H 0.8236 0.74082 0.50164 0.0
C325 C 0.68618 0.65202 0.50649 0.0
C326 C 0.77646 0.66585 0.54618 0.0
C327 C 0.64874 0.62722 0.50322 0.0
C328 C 0.92352 0.77287 0.56513 0.0
C329 C 0.89537 0.74197 0.55664 0.0
C330 C 0.81071 0.72006 0.51423 0.0
C331 C 0.72092 0.63727 0.51952 0.0
C332 C 0.75893 0.66503 0.52473 0.0
C333 C 0.86109 0.75302 0.54237 0.0
C334 C 0.8276 0.7213 0.53581 0.0
H335 H 0.67896 0.54115 0.53305 0.0
H336 H 0.74442 0.58398 0.53838 0.0
H337 H 0.76441 0.69188 0.49197 0.0
H338 H 0.87972 0.85887 0.53993 0.0
H339 H 0.83062 0.80488 0.52507 0.0
C340 C 0.57945 0.32803 0.49589 0.0
C341 C 0.58922 0.36153 0.51044 0.0
C342 C 0.60627 0.29247 0.49496 0.0
C343 C 0.71981 0.26267 0.50475 0.0
H344 H 0.67662 0.14889 0.49465 0.0
C345 C 0.83918 0.12914 0.48478 0.0
C346 C 0.82743 0.10438 0.46636 0.0
C347 C 0.80829 0.15495 0.49512 0.0
C348 C 0.68919 0.1805 0.49743 0.0
H349 H 0.63377 0.38296 0.53616 0.0
H350 H 0.68037 0.32092 0.53451 0.0
H351 H 0.62511 0.20537 0.50332 0.0
H352 H 0.77325 0.0846 0.44553 0.0
H353 H 0.71985 0.13051 0.46303 0.0
H354 H 0.78352 0.2386 0.49798 0.0
C355 C 0.65227 0.32244 0.52364 0.0
C356 C 0.65969 0.2128 0.5024 0.0
C357 C 0.62546 0.35794 0.52461 0.0
C358 C 0.78353 0.10395 0.45942 0.0
C359 C 0.75274 0.12988 0.46967 0.0
C360 C 0.74922 0.23052 0.4997 0.0
C361 C 0.64343 0.28968 0.50854 0.0
C362 C 0.67466 0.25438 0.50569 0.0
C363 C 0.76506 0.15667 0.4872 0.0
C364 C 0.73422 0.1892 0.49553 0.0
H365 H 0.55173 0.32968 0.4848 0.0
H366 H 0.59884 0.26794 0.48299 0.0
H367 H 0.73234 0.29448 0.50689 0.0
H368 H 0.87272 0.13028 0.49052 0.0
H369 H 0.81866 0.17464 0.50884 0.0
C370 C 0.35498 0.37396 0.49979 0.0
C371 C 0.35722 0.41364 0.51026 0.0
C372 C 0.31891 0.34746 0.50303 0.0
C373 C 0.23356 0.32727 0.54427 0.0
H374 H 0.18927 0.24889 0.5001 0.0
C375 C 0.10318 0.20419 0.56652 0.0
C376 C 0.11285 0.16272 0.55985 0.0
C377 C 0.12597 0.23833 0.55757 0.0
C378 C 0.20136 0.2706 0.51259 0.0
H379 H 0.32202 0.45765 0.53125 0.0
H380 H 0.25884 0.41169 0.5366 0.0
H381 H 0.24207 0.30333 0.48947 0.0
H382 H 0.15263 0.12462 0.53788 0.0
H383 H 0.1926 0.18422 0.52231 0.0
H384 H 0.19388 0.2941 0.5675 0.0
C385 C 0.28545 0.40066 0.5263 0.0
C386 C 0.2316 0.30172 0.50653 0.0
C387 C 0.32161 0.42707 0.52316 0.0
C388 C 0.14421 0.15624 0.54322 0.0
C389 C 0.16706 0.19041 0.53428 0.0
C390 C 0.20333 0.29632 0.5503 0.0
C391 C 0.28416 0.36014 0.51671 0.0
C392 C 0.24861 0.32995 0.5224 0.0
C393 C 0.15896 0.23172 0.54177 0.0
C394 C 0.18743 0.26718 0.53463 0.0
H395 H 0.38181 0.36263 0.48972 0.0
H396 H 0.31922 0.3163 0.49558 0.0
H397 H 0.24655 0.34794 0.55702 0.0
H398 H 0.07857 0.2102 0.579 0.0
H399 H 0.11844 0.26987 0.56337 0.0
C400 C 0.42023 0.66915 0.48641 0.0
C401 C 0.4092 0.6375 0.50164 0.0
C402 C 0.392 0.70302 0.48279 0.0
C403 C 0.27571 0.72787 0.48556 0.0
H404 H 0.31378 0.84327 0.47584 0.0
C405 C 0.19322 0.89992 0.46669 0.0
C406 C 0.16669 0.8884 0.44867 0.0
C407 C 0.22356 0.87135 0.47523 0.0
C408 C 0.30269 0.81125 0.47873 0.0
H409 H 0.36069 0.61776 0.52573 0.0
H410 H 0.31165 0.6767 0.51934 0.0
H411 H 0.36686 0.79033 0.48776 0.0
H412 H 0.15031 0.83791 0.42575 0.0
H413 H 0.20295 0.78815 0.44066 0.0
H414 H 0.21183 0.74842 0.47619 0.0
C415 C 0.34189 0.67504 0.51005 0.0
C416 C 0.33306 0.78095 0.48536 0.0
C417 C 0.37011 0.64134 0.51374 0.0
C418 C 0.17066 0.84777 0.43951 0.0
C419 C 0.20049 0.81918 0.44816 0.0
C420 C 0.24554 0.75798 0.47876 0.0
C421 C 0.35213 0.7058 0.49425 0.0
C422 C 0.31989 0.73886 0.48864 0.0
C423 C 0.22724 0.83063 0.46609 0.0
C424 C 0.25881 0.79982 0.47501 0.0
H425 H 0.45014 0.66728 0.47687 0.0
H426 H 0.4006 0.72611 0.47038 0.0
H427 H 0.26464 0.69563 0.48774 0.0
H428 H 0.19087 0.93113 0.47399 0.0
H429 H 0.24373 0.88086 0.48912 0.0
C430 C 0.94308 0.02834 0.10541 0.0
C431 C 0.97791 0.00805 0.09459 0.0
C432 C 0.94145 0.02992 0.12848 0.0
C433 C 0.97875 0.97499 0.1777 0.0
H434 H 0.96478 0.08233 0.20791 0.0
C435 C 0.01025 0.9918 0.27079 0.0
C436 C 0.9841 0.01956 0.28321 0.0
C437 C 0.00735 0.99061 0.24781 0.0
C438 C 0.96794 0.05197 0.19979 0.0
H439 H 0.03796 0.97303 0.09946 0.0
H440 H 0.03458 0.97521 0.13968 0.0
H441 H 0.96237 0.07945 0.16765 0.0
H442 H 0.93446 0.06811 0.28097 0.0
H443 H 0.92798 0.06464 0.24097 0.0
H444 H 0.98354 0.94715 0.20961 0.0
C445 C 0.00874 0.99003 0.1303 0.0
C446 C 0.9667 0.05041 0.17672 0.0
C447 C 0.01077 0.98902 0.10729 0.0
C448 C 0.95475 0.04595 0.272 0.0
C449 C 0.95147 0.0444 0.24899 0.0
C450 C 0.97938 0.97641 0.20073 0.0
C451 C 0.97418 0.0106 0.1411 0.0
C452 C 0.97271 0.012 0.1655 0.0
C453 C 0.97775 0.01669 0.2366 0.0
C454 C 0.97466 0.015 0.21208 0.0
H455 H 0.91735 0.0434 0.09608 0.0
H456 H 0.91437 0.04582 0.13646 0.0
H457 H 0.98286 0.94488 0.1694 0.0
H458 H 0.03274 0.97051 0.27881 0.0
H459 H 0.02868 0.96937 0.23885 0.0
C460 C -0.00279 0.95783 0.91243 0.0
C461 C -0.00265 -0.0032 0.92365 0.0
C462 C 0.00097 0.95622 0.88945 0.0
C463 C 0.03669 0.01998 0.84154 0.0
H464 H 0.96892 0.9378 0.80814 0.0
C465 C 0.02066 0.02438 0.74657 0.0
C466 C 0.02428 0.98572 0.73518 0.0
C467 C 0.01841 0.02543 0.7696 0.0
C468 C 0.98837 0.96064 0.81727 0.0
H469 H 0.00097 0.06471 0.91946 0.0
H470 H 0.00653 0.06193 0.87939 0.0
H471 H 0.96223 0.94047 0.84823 0.0
H472 H 0.02926 0.91789 0.73921 0.0
H473 H 0.02465 0.91978 0.77941 0.0
H474 H 0.06225 0.04051 0.81046 0.0
C475 C 0.00448 0.03253 0.88837 0.0
C476 C 0.98462 0.96215 0.84025 0.0
C477 C 0.00102 0.03413 0.91136 0.0
C478 C 0.02574 0.94816 0.74741 0.0
C479 C 0.02319 0.94921 0.77044 0.0
C480 C 0.0402 0.01865 0.81855 0.0
C481 C 0.00466 0.99355 0.87713 0.0
C482 C 0.00872 0.99185 0.85267 0.0
C483 C 0.01942 0.98785 0.78176 0.0
C484 C 0.01607 0.98897 0.80618 0.0
H485 H 0.99471 0.92844 0.92139 0.0
H486 H 0.00164 0.92564 0.88138 0.0
H487 H 0.05634 0.04276 0.8506 0.0
H488 H 0.01868 0.05386 0.73768 0.0
H489 H 0.01494 0.05564 0.77787 0.0
C490 C 0.52764 0.48484 0.60624 0.0
C491 C 0.49611 0.50667 0.59396 0.0
C492 C 0.52706 0.48617 0.62926 0.0
C493 C 0.45592 0.51289 0.67712 0.0
H494 H 0.56653 0.51403 0.70853 0.0
C495 C 0.47286 0.54637 0.77095 0.0
C496 C 0.49876 0.51769 0.78279 0.0
C497 C 0.4715 0.54497 0.7479 0.0
C498 C 0.53543 0.51346 0.69994 0.0
H499 H 0.43935 0.54725 0.59622 0.0
H500 H 0.43918 0.55081 0.63642 0.0
H501 H 0.56625 0.51273 0.66832 0.0
H502 H 0.54281 0.46443 0.77948 0.0
H503 H 0.54145 0.46307 0.73925 0.0
H504 H 0.42535 0.5148 0.70897 0.0
C505 C 0.46373 0.53171 0.62829 0.0
C506 C 0.53518 0.51252 0.67691 0.0
C507 C 0.46395 0.52989 0.60522 0.0
C508 C 0.52323 0.4876 0.77096 0.0
C509 C 0.52233 0.48662 0.74792 0.0
C510 C 0.45622 0.51444 0.70018 0.0
C511 C 0.49532 0.50988 0.64061 0.0
C512 C 0.49542 0.51187 0.66517 0.0
C513 C 0.49647 0.51528 0.7362 0.0
C514 C 0.49598 0.51443 0.71178 0.0
H515 H 0.55259 0.46628 0.59806 0.0
H516 H 0.55132 0.46818 0.63815 0.0
H517 H 0.42468 0.51174 0.66869 0.0
H518 H 0.45417 0.57045 0.77944 0.0
H519 H 0.45164 0.56769 0.7392 0.0
C520 C 0.49181 0.46118 0.41126 0.0
C521 C 0.51181 0.49424 0.42315 0.0
C522 C 0.49644 0.45836 0.38836 0.0
C523 C 0.5287 0.52105 0.33922 0.0
H524 H 0.53838 0.41048 0.31185 0.0
C525 C 0.57432 0.49652 0.24739 0.0
C526 C 0.54681 0.46897 0.23538 0.0
C527 C 0.57121 0.49933 0.27036 0.0
C528 C 0.5355 0.44153 0.31929 0.0
H529 H 0.5526 0.55019 0.42033 0.0
H530 H 0.56178 0.5446 0.3805 0.0
H531 H 0.53092 0.41625 0.35183 0.0
H532 H 0.4944 0.42277 0.23836 0.0
H533 H 0.49004 0.42688 0.27848 0.0
H534 H 0.53423 0.54616 0.30657 0.0
C535 C 0.54156 0.52138 0.38875 0.0
C536 C 0.53099 0.4449 0.34218 0.0
C537 C 0.53648 0.52449 0.41163 0.0
C538 C 0.5167 0.44376 0.24702 0.0
C539 C 0.514 0.4462 0.27001 0.0
C540 C 0.53376 0.51766 0.31635 0.0
C541 C 0.52165 0.48823 0.37681 0.0
C542 C 0.52723 0.4847 0.35245 0.0
C543 C 0.54095 0.47427 0.28187 0.0
C544 C 0.53693 0.47787 0.30617 0.0
H545 H 0.47229 0.43754 0.41962 0.0
H546 H 0.47987 0.43289 0.37971 0.0
H547 H 0.52517 0.55218 0.34646 0.0
H548 H 0.59847 0.51584 0.23906 0.0
H549 H 0.59274 0.52087 0.27917 0.0
loop_
_geom_bond_atom_site_label_1
_geom_bond_atom_site_label_2
_geom_bond_distance
_geom_bond_site_symmetry_2
_ccdc_geom_bond_type
O0 Zn1 1.953 . S
O0 C16 1.225 1_565 S
Zn1 O0 1.953 . S
Zn1 O2 1.949 1_565 S
Zn1 O8 1.919 . S
Zn1 O13 1.924 1_565 S
O2 Zn1 1.949 1_545 S
O2 Zn3 1.923 1_444 S
O2 Zn4 1.950 1_455 S
O2 Zn5 1.945 1_554 S
Zn3 O2 1.923 1_666 S
Zn3 O6 1.934 . S
Zn3 O9 1.941 1_655 S
Zn3 O10 1.962 1_556 S
Zn4 O2 1.950 1_655 S
Zn4 O11 1.938 1_545 S
Zn4 O12 1.906 . S
Zn4 O22 1.953 . S
Zn5 O2 1.945 1_556 S
Zn5 O7 1.932 . S
Zn5 O14 1.977 1_455 S
Zn5 O15 1.910 1_556 S
O6 Zn3 1.934 . S
O6 C17 1.224 1_665 S
O7 Zn5 1.932 . S
O7 C17 1.307 . S
O8 Zn1 1.919 . S
O8 C19 1.253 . S
O9 Zn3 1.941 1_455 S
O9 C19 1.283 1_556 S
O10 Zn3 1.962 1_554 S
O10 C18 1.316 . S
O11 Zn4 1.938 1_565 S
O11 C18 1.247 . S
O12 Zn4 1.906 . S
O12 C20 1.304 . S
O13 Zn1 1.924 1_545 S
O13 C21 1.311 . S
O14 Zn5 1.977 1_655 S
O14 C20 1.272 1_556 S
O15 Zn5 1.910 1_554 S
O15 C21 1.231 . S
C16 O0 1.225 1_545 S
C16 O22 1.298 1_455 S
C17 O6 1.224 1_445 S
C17 O7 1.307 . S
C18 O10 1.316 . S
C18 O11 1.247 . S
C19 O8 1.253 . S
C19 O9 1.283 1_554 S
C20 O12 1.304 . S
C20 O14 1.272 1_554 S
C21 O13 1.311 . S
C21 O15 1.231 . S
O22 Zn4 1.953 . S
O22 C16 1.298 1_655 S
O23 Zn24 1.953 . S
O23 C39 1.225 . S
Zn24 O23 1.953 . S
Zn24 O25 1.949 . S
Zn24 O31 1.919 . S
Zn24 O36 1.924 . S
O25 Zn24 1.949 . S
O25 Zn26 1.923 . S
O25 Zn27 1.950 . S
O25 Zn28 1.945 . S
Zn26 O25 1.923 . S
Zn26 O29 1.933 . S
Zn26 O32 1.941 . S
Zn26 O33 1.965 . S
Zn27 O25 1.950 . S
Zn27 O34 1.938 . S
Zn27 O35 1.906 . S
Zn27 O45 1.953 . S
Zn28 O25 1.945 . S
Zn28 O30 1.932 . S
Zn28 O37 1.977 . S
Zn28 O38 1.910 . S
O29 Zn26 1.933 . S
O29 C40 1.226 . S
O30 Zn28 1.932 . S
O30 C40 1.307 . S
O31 Zn24 1.919 . S
O31 C42 1.253 . S
O32 Zn26 1.941 . S
O32 C42 1.283 . S
O33 Zn26 1.965 . S
O33 C41 1.303 . S
O34 Zn27 1.938 . S
O34 C41 1.247 . S
O35 Zn27 1.906 . S
O35 C43 1.304 . S
O36 Zn24 1.924 . S
O36 C44 1.311 . S
O37 Zn28 1.977 . S
O37 C43 1.272 . S
O38 Zn28 1.910 . S
O38 C44 1.231 . S
C39 O23 1.225 . S
C39 O45 1.298 . S
C40 O29 1.226 . S
C40 O30 1.307 . S
C41 O33 1.303 . S
C41 O34 1.247 . S
C42 O31 1.253 . S
C42 O32 1.283 . S
C43 O35 1.304 . S
C43 O37 1.272 . S
C44 O36 1.311 . S
C44 O38 1.231 . S
O45 Zn27 1.953 . S
O45 C39 1.298 . S
C46 C47 1.384 . S
C46 H59 0.947 . S
C46 C81 1.382 . S
C47 C46 1.384 . S
C47 C48 1.378 . S
C48 C47 1.378 . S
C48 C49 1.378 . S
C48 H60 0.952 . S
C49 C48 1.378 . S
C49 H61 0.950 . S
C49 C80 1.383 . S
H50 C69 0.947 . S
H51 C70 0.946 . S
H52 C72 0.953 . S
H53 C73 0.945 . S
H54 C75 0.952 . S
H55 C76 0.949 . S
H56 C78 0.950 . S
H57 C79 0.948 . S
H58 C81 0.951 . S
H59 C46 0.947 . S
H60 C48 0.952 . S
H61 C49 0.950 . S
N62 C65 1.382 1_545 S
N62 C67 1.363 1_455 S
N63 C65 1.371 . S
N63 C66 1.372 1_565 S
N64 C66 1.361 1_655 S
N64 C67 1.377 . S
C65 N62 1.382 1_565 S
C65 N63 1.371 . S
C65 C68 1.480 . S
C66 N63 1.372 1_545 S
C66 N64 1.361 1_455 S
C66 C74 1.457 . S
C67 N62 1.363 1_655 S
C67 N64 1.377 . S
C67 C80 1.479 . S
C68 C65 1.480 . S
C68 C69 1.383 . S
C68 C73 1.385 . S
C69 H50 0.947 . S
C69 C68 1.383 . S
C69 C70 1.388 . S
C70 H51 0.946 . S
C70 C69 1.388 . S
C70 C71 1.384 . S
C71 C70 1.384 . S
C71 C72 1.377 . S
C72 H52 0.953 . S
C72 C71 1.377 . S
C72 C73 1.369 . S
C73 H53 0.945 . S
C73 C68 1.385 . S
C73 C72 1.369 . S
C74 C66 1.457 . S
C74 C75 1.372 1_545 S
C74 C79 1.364 1_455 S
C75 H54 0.952 . S
C75 C74 1.372 1_565 S
C75 C76 1.389 . S
C76 H55 0.949 . S
C76 C75 1.389 . S
C76 C77 1.387 1_565 S
C77 C76 1.387 1_545 S
C77 C78 1.372 1_455 S
C78 H56 0.950 . S
C78 C77 1.372 1_655 S
C78 C79 1.379 . S
C79 H57 0.948 . S
C79 C74 1.364 1_655 S
C79 C78 1.379 . S
C80 C49 1.383 . S
C80 C67 1.479 . S
C80 C81 1.398 . S
C81 C46 1.382 . S
C81 H58 0.951 . S
C81 C80 1.398 . S
C82 C83 1.384 . S
C82 H95 0.947 . S
C82 C117 1.382 . S
C83 C82 1.384 . S
C83 C84 1.378 . S
C84 C83 1.378 . S
C84 C85 1.378 . S
C84 H96 0.952 . S
C85 C84 1.378 . S
C85 H97 0.950 . S
C85 C116 1.383 . S
H86 C105 0.947 . S
H87 C106 0.946 . S
H88 C108 0.953 . S
H89 C109 0.945 . S
H90 C111 0.952 . S
H91 C112 0.949 . S
H92 C114 0.950 . S
H93 C115 0.948 . S
H94 C117 0.951 . S
H95 C82 0.947 . S
H96 C84 0.952 . S
H97 C85 0.950 . S
N98 C101 1.382 1_565 S
N98 C103 1.363 1_455 S
N99 C101 1.371 . S
N99 C102 1.372 1_545 S
N100 C102 1.361 1_655 S
N100 C103 1.377 . S
C101 N98 1.382 1_545 S
C101 N99 1.371 . S
C101 C104 1.480 . S
C102 N99 1.372 1_565 S
C102 N100 1.361 1_455 S
C102 C110 1.457 . S
C103 N98 1.363 1_655 S
C103 N100 1.377 . S
C103 C116 1.479 . S
C104 C101 1.480 . S
C104 C105 1.383 . S
C104 C109 1.385 . S
C105 H86 0.947 . S
C105 C104 1.383 . S
C105 C106 1.388 . S
C106 H87 0.946 . S
C106 C105 1.388 . S
C106 C107 1.384 . S
C107 C106 1.384 . S
C107 C108 1.377 . S
C108 H88 0.953 . S
C108 C107 1.377 . S
C108 C109 1.369 . S
C109 H89 0.945 . S
C109 C104 1.385 . S
C109 C108 1.369 . S
C110 C102 1.457 . S
C110 C111 1.372 1_565 S
C110 C115 1.364 1_455 S
C111 H90 0.952 . S
C111 C110 1.372 1_545 S
C111 C112 1.389 . S
C112 H91 0.949 . S
C112 C111 1.389 . S
C112 C113 1.397 . S
C113 C112 1.397 . S
C113 C114 1.361 1_445 S
C114 H92 0.950 . S
C114 C113 1.361 1_665 S
C114 C115 1.379 . S
C115 H93 0.948 . S
C115 C110 1.364 1_655 S
C115 C114 1.379 . S
C116 C85 1.383 . S
C116 C103 1.479 . S
C116 C117 1.398 . S
C117 C82 1.382 . S
C117 H94 0.951 . S
C117 C116 1.398 . S
C118 C119 1.384 . S
C118 H131 0.947 . S
C118 C153 1.382 . S
C119 C118 1.384 . S
C119 C120 1.378 . S
C120 C119 1.378 . S
C120 C121 1.378 . S
C120 H132 0.952 . S
C121 C120 1.378 . S
C121 H133 0.950 . S
C121 C152 1.383 . S
H122 C141 0.947 . S
H123 C142 0.946 . S
H124 C144 0.953 . S
H125 C145 0.945 . S
H126 C147 0.952 . S
H127 C148 0.949 . S
H128 C150 0.950 . S
H129 C151 0.948 . S
H130 C153 0.951 . S
H131 C118 0.947 . S
H132 C120 0.952 . S
H133 C121 0.950 . S
N134 C137 1.382 . S
N134 C139 1.363 . S
N135 C137 1.371 . S
N135 C138 1.372 . S
N136 C138 1.361 . S
N136 C139 1.377 . S
C137 N134 1.382 . S
C137 N135 1.371 . S
C137 C140 1.480 . S
C138 N135 1.372 . S
C138 N136 1.361 . S
C138 C146 1.457 . S
C139 N134 1.363 . S
C139 N136 1.377 . S
C139 C152 1.479 . S
C140 C137 1.480 . S
C140 C141 1.383 . S
C140 C145 1.385 . S
C141 H122 0.947 . S
C141 C140 1.383 . S
C141 C142 1.388 . S
C142 H123 0.946 . S
C142 C141 1.388 . S
C142 C143 1.384 . S
C143 C142 1.384 . S
C143 C144 1.377 . S
C144 H124 0.953 . S
C144 C143 1.377 . S
C144 C145 1.369 . S
C145 H125 0.945 . S
C145 C140 1.385 . S
C145 C144 1.369 . S
C146 C138 1.457 . S
C146 C147 1.372 . S
C146 C151 1.364 . S
C147 H126 0.952 . S
C147 C146 1.372 . S
C147 C148 1.389 . S
C148 H127 0.949 . S
C148 C147 1.389 . S
C148 C149 1.387 . S
C149 C148 1.387 . S
C149 C150 1.372 . S
C150 H128 0.950 . S
C150 C149 1.372 . S
C150 C151 1.379 . S
C151 H129 0.948 . S
C151 C146 1.364 . S
C151 C150 1.379 . S
C152 C121 1.383 . S
C152 C139 1.479 . S
C152 C153 1.398 . S
C153 C118 1.382 . S
C153 H130 0.951 . S
C153 C152 1.398 . S
C154 C155 1.384 . S
C154 H167 0.947 . S
C154 C189 1.382 . S
C155 C154 1.384 . S
C155 C156 1.378 . S
C156 C155 1.378 . S
C156 C157 1.378 . S
C156 H168 0.952 . S
C157 C156 1.378 . S
C157 H169 0.950 . S
C157 C188 1.383 . S
H158 C177 0.947 . S
H159 C178 0.946 . S
H160 C180 0.953 . S
H161 C181 0.945 . S
H162 C183 0.952 . S
H163 C184 0.949 . S
H164 C186 0.950 . S
H165 C187 0.948 . S
H166 C189 0.951 . S
H167 C154 0.947 . S
H168 C156 0.952 . S
H169 C157 0.950 . S
N170 C173 1.382 . S
N170 C175 1.363 . S
N171 C173 1.371 . S
N171 C174 1.372 . S
N172 C174 1.361 . S
N172 C175 1.377 . S
C173 N170 1.382 . S
C173 N171 1.371 . S
C173 C176 1.480 . S
C174 N171 1.372 . S
C174 N172 1.361 . S
C174 C182 1.457 . S
C175 N170 1.363 . S
C175 N172 1.377 . S
C175 C188 1.479 . S
C176 C173 1.480 . S
C176 C177 1.383 . S
C176 C181 1.385 . S
C177 H158 0.947 . S
C177 C176 1.383 . S
C177 C178 1.388 . S
C178 H159 0.946 . S
C178 C177 1.388 . S
C178 C179 1.384 . S
C179 C178 1.384 . S
C179 C180 1.377 . S
C180 H160 0.953 . S
C180 C179 1.377 . S
C180 C181 1.369 . S
C181 H161 0.945 . S
C181 C176 1.385 . S
C181 C180 1.369 . S
C182 C174 1.457 . S
C182 C183 1.372 . S
C182 C187 1.364 . S
C183 H162 0.952 . S
C183 C182 1.372 . S
C183 C184 1.389 . S
C184 H163 0.949 . S
C184 C183 1.389 . S
C184 C185 1.387 . S
C185 C184 1.387 . S
C185 C186 1.372 . S
C186 H164 0.950 . S
C186 C185 1.372 . S
C186 C187 1.379 . S
C187 H165 0.948 . S
C187 C182 1.364 . S
C187 C186 1.379 . S
C188 C157 1.383 . S
C188 C175 1.479 . S
C188 C189 1.398 . S
C189 C154 1.382 . S
C189 H166 0.951 . S
C189 C188 1.398 . S
C190 C191 1.349 . S
C190 C192 1.327 . S
C190 H215 0.950 . S
C191 C190 1.349 . S
C191 C207 1.349 . S
C192 C190 1.327 . S
C192 C211 1.429 . S
C192 H216 0.950 . S
C193 C210 1.574 . S
C193 C212 1.368 . S
C193 H217 0.949 . S
H194 C198 0.949 . S
C195 C196 1.349 . S
C195 C197 1.327 . S
C195 H218 0.950 . S
C196 C195 1.349 . S
C196 C208 1.349 . S
C197 C195 1.327 . S
C197 C213 1.429 . S
C197 H219 0.950 . S
C198 H194 0.949 . S
C198 C206 1.574 . S
C198 C214 1.368 . S
H199 C207 0.950 1_556 S
H200 C205 0.950 . S
H201 C206 0.949 . S
H202 C208 0.950 . S
H203 C209 0.950 . S
H204 C210 0.949 . S
C205 H200 0.950 . S
C205 C207 1.327 . S
C205 C211 1.429 . S
C206 C198 1.574 . S
C206 H201 0.949 . S
C206 C212 1.368 . S
C207 C191 1.349 . S
C207 H199 0.950 1_554 S
C207 C205 1.327 . S
C208 C196 1.349 . S
C208 H202 0.950 . S
C208 C209 1.327 . S
C209 H203 0.950 . S
C209 C208 1.327 . S
C209 C213 1.429 . S
C210 C193 1.574 . S
C210 H204 0.949 . S
C210 C214 1.368 . S
C211 C192 1.429 . S
C211 C205 1.429 . S
C211 C212 1.523 . S
C212 C193 1.368 . S
C212 C206 1.368 . S
C212 C211 1.523 . S
C213 C197 1.429 . S
C213 C209 1.429 . S
C213 C214 1.523 . S
C214 C198 1.368 . S
C214 C210 1.368 . S
C214 C213 1.523 . S
H215 C190 0.950 . S
H216 C192 0.950 . S
H217 C193 0.949 . S
H218 C195 0.950 . S
H219 C197 0.950 . S
C220 C221 1.349 . S
C220 C222 1.327 . S
C220 H245 0.950 . S
C221 C220 1.349 . S
C221 C237 1.349 1_556 S
C222 C220 1.327 . S
C222 C241 1.429 . S
C222 H246 0.950 . S
C223 C240 1.574 . S
C223 C242 1.368 . S
C223 H247 0.949 1_556 S
H224 C228 0.949 . S
C225 C226 1.349 . S
C225 C227 1.327 . S
C225 H248 0.950 . S
C226 C225 1.349 . S
C226 C238 1.349 . S
C227 C225 1.327 . S
C227 C243 1.429 . S
C227 H249 0.950 . S
C228 H224 0.949 . S
C228 C236 1.574 . S
C228 C244 1.368 . S
H229 C237 0.950 . S
H230 C235 0.950 . S
H231 C236 0.949 . S
H232 C238 0.950 . S
H233 C239 0.950 . S
H234 C240 0.949 . S
C235 H230 0.950 . S
C235 C237 1.327 . S
C235 C241 1.429 1_554 S
C236 C228 1.574 . S
C236 H231 0.949 . S
C236 C242 1.368 . S
C237 C221 1.349 1_554 S
C237 H229 0.950 . S
C237 C235 1.327 . S
C238 C226 1.349 . S
C238 H232 0.950 . S
C238 C239 1.327 . S
C239 H233 0.950 . S
C239 C238 1.327 . S
C239 C243 1.429 . S
C240 C223 1.574 . S
C240 H234 0.949 . S
C240 C244 1.368 . S
C241 C222 1.429 . S
C241 C235 1.429 1_556 S
C241 C242 1.523 . S
C242 C223 1.368 . S
C242 C236 1.368 . S
C242 C241 1.523 . S
C243 C227 1.429 . S
C243 C239 1.429 . S
C243 C244 1.523 . S
C244 C228 1.368 . S
C244 C240 1.368 . S
C244 C243 1.523 . S
H245 C220 0.950 . S
H246 C222 0.950 . S
H247 C223 0.949 1_554 S
H248 C225 0.950 . S
H249 C227 0.950 . S
C250 C251 1.349 . S
C250 C252 1.327 . S
C250 H275 0.950 . S
C251 C250 1.349 . S
C251 C267 1.349 . S
C252 C250 1.327 . S
C252 C271 1.429 . S
C252 H276 0.950 . S
C253 C270 1.574 . S
C253 C272 1.368 . S
C253 H277 0.949 . S
H254 C258 0.949 . S
C255 C256 1.349 . S
C255 C257 1.327 . S
C255 H278 0.950 . S
C256 C255 1.349 . S
C256 C268 1.349 . S
C257 C255 1.327 . S
C257 C273 1.429 . S
C257 H279 0.950 . S
C258 H254 0.949 . S
C258 C266 1.574 . S
C258 C274 1.368 . S
H259 C267 0.950 . S
H260 C265 0.950 . S
H261 C266 0.949 . S
H262 C268 0.950 . S
H263 C269 0.950 . S
H264 C270 0.949 . S
C265 H260 0.950 . S
C265 C267 1.327 . S
C265 C271 1.429 . S
C266 C258 1.574 . S
C266 H261 0.949 . S
C266 C272 1.368 . S
C267 C251 1.349 . S
C267 H259 0.950 . S
C267 C265 1.327 . S
C268 C256 1.349 . S
C268 H262 0.950 . S
C268 C269 1.327 . S
C269 H263 0.950 . S
C269 C268 1.327 . S
C269 C273 1.429 . S
C270 C253 1.574 . S
C270 H264 0.949 . S
C270 C274 1.368 . S
C271 C252 1.429 . S
C271 C265 1.429 . S
C271 C272 1.523 . S
C272 C253 1.368 . S
C272 C266 1.368 . S
C272 C271 1.523 . S
C273 C257 1.429 . S
C273 C269 1.429 . S
C273 C274 1.523 . S
C274 C258 1.368 . S
C274 C270 1.368 . S
C274 C273 1.523 . S
H275 C250 0.950 . S
H276 C252 0.950 . S
H277 C253 0.949 . S
H278 C255 0.950 . S
H279 C257 0.950 . S
C280 C281 1.349 1_554 S
C280 C282 1.327 . S
C280 H305 0.950 . S
C281 C280 1.349 1_556 S
C281 C297 1.349 . S
C282 C280 1.327 . S
C282 C301 1.429 1_554 S
C282 H306 0.950 . S
C283 C300 1.574 . S
C283 C302 1.368 . S
C283 H307 0.949 . S
H284 C288 0.949 . S
C285 C286 1.349 . S
C285 C287 1.327 . S
C285 H308 0.950 . S
C286 C285 1.349 . S
C286 C298 1.349 . S
C287 C285 1.327 . S
C287 C303 1.429 . S
C287 H309 0.950 . S
C288 H284 0.949 . S
C288 C296 1.574 . S
C288 C304 1.368 . S
H289 C297 0.950 . S
H290 C295 0.950 . S
H291 C296 0.949 1_554 S
H292 C298 0.950 . S
H293 C299 0.950 . S
H294 C300 0.949 . S
C295 H290 0.950 . S
C295 C297 1.327 . S
C295 C301 1.429 . S
C296 C288 1.574 . S
C296 H291 0.949 1_556 S
C296 C302 1.368 . S
C297 C281 1.349 . S
C297 H289 0.950 . S
C297 C295 1.327 . S
C298 C286 1.349 . S
C298 H292 0.950 . S
C298 C299 1.327 . S
C299 H293 0.950 . S
C299 C298 1.327 . S
C299 C303 1.429 . S
C300 C283 1.574 . S
C300 H294 0.949 . S
C300 C304 1.368 . S
C301 C282 1.429 1_556 S
C301 C295 1.429 . S
C301 C302 1.523 . S
C302 C283 1.368 . S
C302 C296 1.368 . S
C302 C301 1.523 . S
C303 C287 1.429 . S
C303 C299 1.429 . S
C303 C304 1.523 . S
C304 C288 1.368 . S
C304 C300 1.368 . S
C304 C303 1.523 . S
H305 C280 0.950 . S
H306 C282 0.950 . S
H307 C283 0.949 . S
H308 C285 0.950 . S
H309 C287 0.950 . S
C310 C311 1.349 . S
C310 C312 1.327 . S
C310 H335 0.950 . S
C311 C310 1.349 . S
C311 C327 1.349 . S
C312 C310 1.327 . S
C312 C331 1.429 . S
C312 H336 0.950 . S
C313 C330 1.574 . S
C313 C332 1.368 . S
C313 H337 0.949 . S
H314 C318 0.949 . S
C315 C316 1.349 . S
C315 C317 1.327 . S
C315 H338 0.950 . S
C316 C315 1.349 . S
C316 C328 1.349 . S
C317 C315 1.327 . S
C317 C333 1.429 . S
C317 H339 0.950 . S
C318 H314 0.949 . S
C318 C326 1.574 . S
C318 C334 1.368 . S
H319 C327 0.950 . S
H320 C325 0.950 . S
H321 C326 0.949 . S
H322 C328 0.950 . S
H323 C329 0.950 . S
H324 C330 0.949 . S
C325 H320 0.950 . S
C325 C327 1.327 . S
C325 C331 1.429 . S
C326 C318 1.574 . S
C326 H321 0.949 . S
C326 C332 1.368 . S
C327 C311 1.349 . S
C327 H319 0.950 . S
C327 C325 1.327 . S
C328 C316 1.349 . S
C328 H322 0.950 . S
C328 C329 1.327 . S
C329 H323 0.950 . S
C329 C328 1.327 . S
C329 C333 1.429 . S
C330 C313 1.574 . S
C330 H324 0.949 . S
C330 C334 1.368 . S
C331 C312 1.429 . S
C331 C325 1.429 . S
C331 C332 1.523 . S
C332 C313 1.368 . S
C332 C326 1.368 . S
C332 C331 1.523 . S
C333 C317 1.429 . S
C333 C329 1.429 . S
C333 C334 1.523 . S
C334 C318 1.368 . S
C334 C330 1.368 . S
C334 C333 1.523 . S
H335 C310 0.950 . S
H336 C312 0.950 . S
H337 C313 0.949 . S
H338 C315 0.950 . S
H339 C317 0.950 . S
C340 C341 1.349 . S
C340 C342 1.327 . S
C340 H365 0.950 . S
C341 C340 1.349 . S
C341 C357 1.349 . S
C342 C340 1.327 . S
C342 C361 1.429 . S
C342 H366 0.950 . S
C343 C360 1.574 . S
C343 C362 1.368 . S
C343 H367 0.949 . S
H344 C348 0.949 . S
C345 C346 1.349 . S
C345 C347 1.327 . S
C345 H368 0.950 . S
C346 C345 1.349 . S
C346 C358 1.349 . S
C347 C345 1.327 . S
C347 C363 1.429 . S
C347 H369 0.950 . S
C348 H344 0.949 . S
C348 C356 1.574 . S
C348 C364 1.368 . S
H349 C357 0.950 . S
H350 C355 0.950 . S
H351 C356 0.949 . S
H352 C358 0.950 . S
H353 C359 0.950 . S
H354 C360 0.949 . S
C355 H350 0.950 . S
C355 C357 1.327 . S
C355 C361 1.429 . S
C356 C348 1.574 . S
C356 H351 0.949 . S
C356 C362 1.368 . S
C357 C341 1.349 . S
C357 H349 0.950 . S
C357 C355 1.327 . S
C358 C346 1.349 . S
C358 H352 0.950 . S
C358 C359 1.327 . S
C359 H353 0.950 . S
C359 C358 1.327 . S
C359 C363 1.429 . S
C360 C343 1.574 . S
C360 H354 0.949 . S
C360 C364 1.368 . S
C361 C342 1.429 . S
C361 C355 1.429 . S
C361 C362 1.523 . S
C362 C343 1.368 . S
C362 C356 1.368 . S
C362 C361 1.523 . S
C363 C347 1.429 . S
C363 C359 1.429 . S
C363 C364 1.523 . S
C364 C348 1.368 . S
C364 C360 1.368 . S
C364 C363 1.523 . S
H365 C340 0.950 . S
H366 C342 0.950 . S
H367 C343 0.949 . S
H368 C345 0.950 . S
H369 C347 0.950 . S
C370 C371 1.349 . S
C370 C372 1.327 . S
C370 H395 0.950 . S
C371 C370 1.349 . S
C371 C387 1.349 . S
C372 C370 1.327 . S
C372 C391 1.429 . S
C372 H396 0.950 . S
C373 C390 1.574 . S
C373 C392 1.368 . S
C373 H397 0.949 . S
H374 C378 0.949 . S
C375 C376 1.349 . S
C375 C377 1.327 . S
C375 H398 0.950 . S
C376 C375 1.349 . S
C376 C388 1.349 . S
C377 C375 1.327 . S
C377 C393 1.429 . S
C377 H399 0.950 . S
C378 H374 0.949 . S
C378 C386 1.574 . S
C378 C394 1.368 . S
H379 C387 0.950 . S
H380 C385 0.950 . S
H381 C386 0.949 . S
H382 C388 0.950 . S
H383 C389 0.950 . S
H384 C390 0.949 . S
C385 H380 0.950 . S
C385 C387 1.327 . S
C385 C391 1.429 . S
C386 C378 1.574 . S
C386 H381 0.949 . S
C386 C392 1.368 . S
C387 C371 1.349 . S
C387 H379 0.950 . S
C387 C385 1.327 . S
C388 C376 1.349 . S
C388 H382 0.950 . S
C388 C389 1.327 . S
C389 H383 0.950 . S
C389 C388 1.327 . S
C389 C393 1.429 . S
C390 C373 1.574 . S
C390 H384 0.949 . S
C390 C394 1.368 . S
C391 C372 1.429 . S
C391 C385 1.429 . S
C391 C392 1.523 . S
C392 C373 1.368 . S
C392 C386 1.368 . S
C392 C391 1.523 . S
C393 C377 1.429 . S
C393 C389 1.429 . S
C393 C394 1.523 . S
C394 C378 1.368 . S
C394 C390 1.368 . S
C394 C393 1.523 . S
H395 C370 0.950 . S
H396 C372 0.950 . S
H397 C373 0.949 . S
H398 C375 0.950 . S
H399 C377 0.950 . S
C400 C401 1.349 . S
C400 C402 1.327 . S
C400 H425 0.950 . S
C401 C400 1.349 . S
C401 C417 1.349 . S
C402 C400 1.327 . S
C402 C421 1.429 . S
C402 H426 0.950 . S
C403 C420 1.574 . S
C403 C422 1.368 . S
C403 H427 0.949 . S
H404 C408 0.949 . S
C405 C406 1.349 . S
C405 C407 1.327 . S
C405 H428 0.950 . S
C406 C405 1.349 . S
C406 C418 1.349 . S
C407 C405 1.327 . S
C407 C423 1.429 . S
C407 H429 0.950 . S
C408 H404 0.949 . S
C408 C416 1.574 . S
C408 C424 1.368 . S
H409 C417 0.950 . S
H410 C415 0.950 . S
H411 C416 0.949 . S
H412 C418 0.950 . S
H413 C419 0.950 . S
H414 C420 0.949 . S
C415 H410 0.950 . S
C415 C417 1.327 . S
C415 C421 1.429 . S
C416 C408 1.574 . S
C416 H411 0.949 . S
C416 C422 1.368 . S
C417 C401 1.349 . S
C417 H409 0.950 . S
C417 C415 1.327 . S
C418 C406 1.349 . S
C418 H412 0.950 . S
C418 C419 1.327 . S
C419 H413 0.950 . S
C419 C418 1.327 . S
C419 C423 1.429 . S
C420 C403 1.574 . S
C420 H414 0.949 . S
C420 C424 1.368 . S
C421 C402 1.429 . S
C421 C415 1.429 . S
C421 C422 1.523 . S
C422 C403 1.368 . S
C422 C416 1.368 . S
C422 C421 1.523 . S
C423 C407 1.429 . S
C423 C419 1.429 . S
C423 C424 1.523 . S
C424 C408 1.368 . S
C424 C420 1.368 . S
C424 C423 1.523 . S
H425 C400 0.950 . S
H426 C402 0.950 . S
H427 C403 0.949 . S
H428 C405 0.950 . S
H429 C407 0.950 . S
C430 C431 1.349 1_655 S
C430 C432 1.327 . S
C430 H455 0.950 . S
C431 C430 1.349 1_455 S
C431 C447 1.349 1_545 S
C432 C430 1.327 . S
C432 C451 1.429 1_655 S
C432 H456 0.950 . S
C433 C450 1.574 . S
C433 C452 1.368 1_565 S
C433 H457 0.949 . S
H434 C438 0.949 . S
C435 C436 1.354 1_565 S
C435 C437 1.327 . S
C435 H458 0.950 . S
C436 C435 1.354 1_545 S
C436 C448 1.344 1_455 S
C437 C435 1.327 . S
C437 C453 1.429 1_565 S
C437 H459 0.950 . S
C438 H434 0.949 . S
C438 C446 1.574 . S
C438 C454 1.368 1_655 S
H439 C447 0.950 . S
H440 C445 0.950 . S
H441 C446 0.949 . S
H442 C448 0.950 . S
H443 C449 0.950 . S
H444 C450 0.949 . S
C445 H440 0.950 . S
C445 C447 1.327 . S
C445 C451 1.429 1_565 S
C446 C438 1.574 . S
C446 H441 0.949 . S
C446 C452 1.368 1_655 S
C447 C431 1.349 1_565 S
C447 H439 0.950 . S
C447 C445 1.327 . S
C448 C436 1.344 1_655 S
C448 H442 0.950 . S
C448 C449 1.327 . S
C449 H443 0.950 . S
C449 C448 1.327 . S
C449 C453 1.429 1_655 S
C450 C433 1.574 . S
C450 H444 0.949 . S
C450 C454 1.368 1_565 S
C451 C432 1.429 1_455 S
C451 C445 1.429 1_545 S
C451 C452 1.523 . S
C452 C433 1.368 1_545 S
C452 C446 1.368 1_455 S
C452 C451 1.523 . S
C453 C437 1.429 1_545 S
C453 C449 1.429 1_455 S
C453 C454 1.523 . S
C454 C438 1.368 1_455 S
C454 C450 1.368 1_545 S
C454 C453 1.523 . S
H455 C430 0.950 . S
H456 C432 0.950 . S
H457 C433 0.949 . S
H458 C435 0.950 . S
H459 C437 0.950 . S
C460 C461 1.349 1_665 S
C460 C462 1.327 . S
C460 H485 0.950 . S
C461 C460 1.349 1_445 S
C461 C477 1.349 . S
C462 C460 1.327 . S
C462 C481 1.429 1_665 S
C462 H486 0.950 . S
C463 C480 1.574 . S
C463 C482 1.368 . S
C463 H487 0.949 . S
H464 C468 0.949 . S
C465 C466 1.349 . S
C465 C467 1.327 . S
C465 H488 0.950 . S
C466 C465 1.349 . S
C466 C478 1.349 1_445 S
C467 C465 1.327 . S
C467 C483 1.429 . S
C467 H489 0.950 . S
C468 H464 0.949 . S
C468 C476 1.574 . S
C468 C484 1.368 1_665 S
H469 C477 0.950 . S
H470 C475 0.950 . S
H471 C476 0.949 . S
H472 C478 0.950 . S
H473 C479 0.950 . S
H474 C480 0.949 . S
C475 H470 0.950 . S
C475 C477 1.327 . S
C475 C481 1.429 . S
C476 C468 1.574 . S
C476 H471 0.949 . S
C476 C482 1.368 1_665 S
C477 C461 1.349 . S
C477 H469 0.950 . S
C477 C475 1.327 . S
C478 C466 1.349 1_665 S
C478 H472 0.950 . S
C478 C479 1.327 . S
C479 H473 0.950 . S
C479 C478 1.327 . S
C479 C483 1.429 1_665 S
C480 C463 1.574 . S
C480 H474 0.949 . S
C480 C484 1.368 . S
C481 C462 1.429 1_445 S
C481 C475 1.429 . S
C481 C482 1.523 . S
C482 C463 1.368 . S
C482 C476 1.368 1_445 S
C482 C481 1.523 . S
C483 C467 1.429 . S
C483 C479 1.429 1_445 S
C483 C484 1.523 . S
C484 C468 1.368 1_445 S
C484 C480 1.368 . S
C484 C483 1.523 . S
H485 C460 0.950 . S
H486 C462 0.950 . S
H487 C463 0.949 . S
H488 C465 0.950 . S
H489 C467 0.950 . S
C490 C491 1.349 . S
C490 C492 1.327 . S
C490 H515 0.950 . S
C491 C490 1.349 . S
C491 C507 1.349 . S
C492 C490 1.327 . S
C492 C511 1.429 . S
C492 H516 0.950 . S
C493 C510 1.574 . S
C493 C512 1.368 . S
C493 H517 0.949 . S
H494 C498 0.949 . S
C495 C496 1.349 . S
C495 C497 1.327 . S
C495 H518 0.950 . S
C496 C495 1.349 . S
C496 C508 1.349 . S
C497 C495 1.327 . S
C497 C513 1.429 . S
C497 H519 0.950 . S
C498 H494 0.949 . S
C498 C506 1.574 . S
C498 C514 1.368 . S
H499 C507 0.950 . S
H500 C505 0.950 . S
H501 C506 0.949 . S
H502 C508 0.950 . S
H503 C509 0.950 . S
H504 C510 0.949 . S
C505 H500 0.950 . S
C505 C507 1.327 . S
C505 C511 1.429 . S
C506 C498 1.574 . S
C506 H501 0.949 . S
C506 C512 1.368 . S
C507 C491 1.349 . S
C507 H499 0.950 . S
C507 C505 1.327 . S
C508 C496 1.349 . S
C508 H502 0.950 . S
C508 C509 1.327 . S
C509 H503 0.950 . S
C509 C508 1.327 . S
C509 C513 1.429 . S
C510 C493 1.574 . S
C510 H504 0.949 . S
C510 C514 1.368 . S
C511 C492 1.429 . S
C511 C505 1.429 . S
C511 C512 1.523 . S
C512 C493 1.368 . S
C512 C506 1.368 . S
C512 C511 1.523 . S
C513 C497 1.429 . S
C513 C509 1.429 . S
C513 C514 1.523 . S
C514 C498 1.368 . S
C514 C510 1.368 . S
C514 C513 1.523 . S
H515 C490 0.950 . S
H516 C492 0.950 . S
H517 C493 0.949 . S
H518 C495 0.950 . S
H519 C497 0.950 . S
C520 C521 1.349 . S
C520 C522 1.327 . S
C520 H545 0.950 . S
C521 C520 1.349 . S
C521 C537 1.349 . S
C522 C520 1.327 . S
C522 C541 1.429 . S
C522 H546 0.950 . S
C523 C540 1.574 . S
C523 C542 1.368 . S
C523 H547 0.949 . S
H524 C528 0.949 . S
C525 C526 1.349 . S
C525 C527 1.327 . S
C525 H548 0.950 . S
C526 C525 1.349 . S
C526 C538 1.349 . S
C527 C525 1.327 . S
C527 C543 1.429 . S
C527 H549 0.950 . S
C528 H524 0.949 . S
C528 C536 1.574 . S
C528 C544 1.368 . S
H529 C537 0.950 . S
H530 C535 0.950 . S
H531 C536 0.949 . S
H532 C538 0.950 . S
H533 C539 0.950 . S
H534 C540 0.949 . S
C535 H530 0.950 . S
C535 C537 1.327 . S
C535 C541 1.429 . S
C536 C528 1.574 . S
C536 H531 0.949 . S
C536 C542 1.368 . S
C537 C521 1.349 . S
C537 H529 0.950 . S
C537 C535 1.327 . S
C538 C526 1.349 . S
C538 H532 0.950 . S
C538 C539 1.327 . S
C539 H533 0.950 . S
C539 C538 1.327 . S
C539 C543 1.429 . S
C540 C523 1.574 . S
C540 H534 0.949 . S
C540 C544 1.368 . S
C541 C522 1.429 . S
C541 C535 1.429 . S
C541 C542 1.523 . S
C542 C523 1.368 . S
C542 C536 1.368 . S
C542 C541 1.523 . S
C543 C527 1.429 . S
C543 C539 1.429 . S
C543 C544 1.523 . S
C544 C528 1.368 . S
C544 C540 1.368 . S
C544 C543 1.523 . S
H545 C520 0.950 . S
H546 C522 0.950 . S
H547 C523 0.949 . S
H548 C525 0.950 . S
H549 C527 0.950 . S
C196 C155 1.414 . S
C191 C21 1.413 . S
C221 C19 1.402 1_556 S
C226 C119 1.405 . S
C251 C18 1.368 . S
C256 C179 1.363 . S
C281 C20 1.394 1_556 S
C286 C143 1.377 . S
C311 C44 1.413 . S
C316 C83 1.414 . S
C341 C42 1.402 . S
C346 C47 1.405 . S
C376 C107 1.363 . S
C371 C41 1.368 . S
C406 C71 1.377 . S
C401 C43 1.394 . S
C431 C16 1.489 . S
C436 C77 1.485 . S
C461 C17 1.449 . S
C466 C113 1.447 . S
C496 C149 1.484 . S
C491 C39 1.489 . S
C521 C40 1.449 . S
C526 C185 1.446 . S
