# Generated by pormake.
# Topology zzz, (3,6)-cn, num edge types: 1
# Building blocks:
#     Node 0, Type 0, BuildingBlock: KAKCAD_clean_linker_0, # of connection points: 3
#     Node 1, Type 0, BuildingBlock: KAKCAD_clean_linker_0, # of connection points: 3
#     Node 2, Type 0, BuildingBlock: KAKCAD_clean_linker_0, # of connection points: 3
#     Node 3, Type 0, BuildingBlock: KAKCAD_clean_linker_0, # of connection points: 3
#     Node 4, Type 0, BuildingBlock: KAKCAD_clean_linker_0, # of connection points: 3
#     Node 5, Type 0, BuildingBlock: KAKCAD_clean_linker_0, # of connection points: 3
#     Node 6, Type 0, BuildingBlock: KAKCAD_clean_linker_0, # of connection points: 3
#     Node 7, Type 0, BuildingBlock: KAKCAD_clean_linker_0, # of connection points: 3
#     Node 8, Type 1, BuildingBlock: PAMTUU_clean_sbu_0, # of connection points: 6
#     Node 9, Type 1, BuildingBlock: PAMTUU_clean_sbu_0, # of connection points: 6
#     Node 10, Type 1, BuildingBlock: PAMTUU_clean_sbu_0, # of connection points: 6
#     Node 11, Type 1, BuildingBlock: PAMTUU_clean_sbu_0, # of connection points: 6
#     Edge 12, Type (0, 1), BuildingBlock: KIFKEQ_clean_linker_1, # of connection points: 2
#     Edge 13, Type (0, 1), BuildingBlock: KIFKEQ_clean_linker_1, # of connection points: 2
#     Edge 14, Type (0, 1), BuildingBlock: KIFKEQ_clean_linker_1, # of connection points: 2
#     Edge 15, Type (0, 1), BuildingBlock: KIFKEQ_clean_linker_1, # of connection points: 2
#     Edge 16, Type (0, 1), BuildingBlock: KIFKEQ_clean_linker_1, # of connection points: 2
#     Edge 17, Type (0, 1), BuildingBlock: KIFKEQ_clean_linker_1, # of connection points: 2
#     Edge 18, Type (0, 1), BuildingBlock: KIFKEQ_clean_linker_1, # of connection points: 2
#     Edge 19, Type (0, 1), BuildingBlock: KIFKEQ_clean_linker_1, # of connection points: 2
#     Edge 20, Type (0, 1), BuildingBlock: KIFKEQ_clean_linker_1, # of connection points: 2
#     Edge 21, Type (0, 1), BuildingBlock: KIFKEQ_clean_linker_1, # of connection points: 2
#     Edge 22, Type (0, 1), BuildingBlock: KIFKEQ_clean_linker_1, # of connection points: 2
#     Edge 23, Type (0, 1), BuildingBlock: KIFKEQ_clean_linker_1, # of connection points: 2
#     Edge 24, Type (0, 1), BuildingBlock: KIFKEQ_clean_linker_1, # of connection points: 2
#     Edge 25, Type (0, 1), BuildingBlock: KIFKEQ_clean_linker_1, # of connection points: 2
#     Edge 26, Type (0, 1), BuildingBlock: KIFKEQ_clean_linker_1, # of connection points: 2
#     Edge 27, Type (0, 1), BuildingBlock: KIFKEQ_clean_linker_1, # of connection points: 2
#     Edge 28, Type (0, 1), BuildingBlock: KIFKEQ_clean_linker_1, # of connection points: 2
#     Edge 29, Type (0, 1), BuildingBlock: KIFKEQ_clean_linker_1, # of connection points: 2
#     Edge 30, Type (0, 1), BuildingBlock: KIFKEQ_clean_linker_1, # of connection points: 2
#     Edge 31, Type (0, 1), BuildingBlock: KIFKEQ_clean_linker_1, # of connection points: 2
#     Edge 32, Type (0, 1), BuildingBlock: KIFKEQ_clean_linker_1, # of connection points: 2
#     Edge 33, Type (0, 1), BuildingBlock: KIFKEQ_clean_linker_1, # of connection points: 2
#     Edge 34, Type (0, 1), BuildingBlock: KIFKEQ_clean_linker_1, # of connection points: 2
#     Edge 35, Type (0, 1), BuildingBlock: KIFKEQ_clean_linker_1, # of connection points: 2
# Relax obj value: 0.377
# Max RMSD: 0.262
# Mean RMSD: 0.220
data_MOF--net-zzz--node1-PAMTUU_clean_sbu_0--node2-KAKCAD_clean_linker_0--edge1-KIFKEQ_clean_linker_1
_symmetry_space_group_name_H-M    P1
_symmetry_Int_Tables_number       1
_symmetry_cell_setting            triclinic
loop_
_symmetry_equiv_pos_as_xyz
'x, y, z'
_cell_length_a     58.57218
_cell_length_b     62.733049
_cell_length_c     20.876316
_cell_angle_alpha  98.362742
_cell_angle_beta   89.90614
_cell_angle_gamma 89.960914
loop_
_atom_site_label
_atom_site_type_symbol
_atom_site_fract_x
_atom_site_fract_y
_atom_site_fract_z
_atom_type_partial_charge
C0 C 0.79752 0.43159 0.05681 0.0
C1 C 0.81402 0.41615 0.06673 0.0
C2 C 0.78651 0.44366 0.10928 0.0
C3 C 0.79146 0.44037 0.17304 0.0
C4 C 0.80699 0.42405 0.18278 0.0
C5 C 0.8182 0.41211 0.1302 0.0
C6 C 0.78108 0.45455 0.22883 0.0
C7 C 0.75848 0.46149 0.22547 0.0
C8 C 0.7487 0.47613 0.27517 0.0
C9 C 0.76202 0.48401 0.33008 0.0
C10 C 0.78464 0.47642 0.33537 0.0
C11 C 0.79391 0.4619 0.28429 0.0
C12 C 0.79931 0.48283 0.39327 0.0
C13 C 0.80795 0.50386 0.40793 0.0
C14 C 0.80803 0.46677 0.42692 0.0
C15 C 0.8256 0.47134 0.47222 0.0
C16 C 0.83518 0.49209 0.48488 0.0
C17 C 0.72455 0.48253 0.26595 0.0
C18 C 0.7189 0.50373 0.25789 0.0
C19 C 0.70819 0.46628 0.24968 0.0
C20 C 0.68758 0.47062 0.22052 0.0
C21 C 0.68242 0.49151 0.20749 0.0
C22 C 0.698 0.5082 0.22931 0.0
C23 C 0.82576 0.50843 0.45309 0.0
H24 H 0.79371 0.43494 0.0085 0.0
H25 H 0.77481 0.45619 0.09978 0.0
H26 H 0.81088 0.42081 0.23113 0.0
H27 H 0.83097 0.40048 0.13969 0.0
H28 H 0.74832 0.45554 0.18327 0.0
H29 H 0.81151 0.45677 0.28729 0.0
H30 H 0.75469 0.49529 0.36889 0.0
H31 H 0.80181 0.51646 0.38198 0.0
H32 H 0.80192 0.45035 0.41588 0.0
H33 H 0.83247 0.45824 0.49481 0.0
H34 H 0.73124 0.51656 0.2694 0.0
H35 H 0.71214 0.44974 0.2549 0.0
H36 H 0.8325 0.52466 0.462 0.0
H37 H 0.69455 0.52462 0.22201 0.0
H38 H 0.6765 0.45714 0.20428 0.0
C39 C 0.04785 0.77951 0.17546 0.0
C40 C 0.0654 0.79289 0.20414 0.0
C41 C 0.03615 0.76581 0.21125 0.0
C42 C 0.04178 0.76527 0.27637 0.0
C43 C 0.06029 0.77761 0.30369 0.0
C44 C 0.07199 0.79127 0.26794 0.0
C45 C 0.02712 0.75351 0.31738 0.0
C46 C 0.01898 0.7328 0.29478 0.0
C47 C 1.00434 0.72215 0.33312 0.0
C48 C 0.9976 0.73243 0.39471 0.0
C49 C 1.0054 0.75336 0.41699 0.0
C50 C 0.02022 0.76363 0.37854 0.0
C51 C 0.99774 0.76583 0.47848 0.0
C52 C 0.97983 0.78061 0.47723 0.0
C53 C 1.01227 0.76775 0.53227 0.0
C54 C 1.01023 0.78538 0.58131 0.0
C55 C 0.99385 0.80153 0.57672 0.0
C56 C 0.99666 0.70019 0.30728 0.0
C57 C 0.98493 0.69667 0.24815 0.0
C58 C 1.00436 0.68247 0.33519 0.0
C59 C 1.00193 0.66157 0.30181 0.0
C60 C 0.99153 0.65813 0.24044 0.0
C61 C 0.98223 0.67582 0.21523 0.0
C62 C 0.97785 0.79831 0.52604 0.0
H63 H 0.04222 0.78054 0.12661 0.0
H64 H 0.02186 0.7566 0.18906 0.0
H65 H 0.06527 0.77718 0.35344 0.0
H66 H 0.08571 0.80111 0.29093 0.0
H67 H 0.02429 0.72479 0.24754 0.0
H68 H 0.02578 0.77995 0.39571 0.0
H69 H 0.9861 0.72444 0.42426 0.0
H70 H 0.96876 0.77963 0.43536 0.0
H71 H 0.02643 0.7567 0.53352 0.0
H72 H 0.02255 0.78717 0.62036 0.0
H73 H 0.979 0.71018 0.22568 0.0
H74 H 1.01364 0.6849 0.38052 0.0
H75 H 0.96512 0.81044 0.5206 0.0
H76 H 0.97434 0.67373 0.16784 0.0
H77 H 1.00913 0.6482 0.32249 0.0
C78 C 0.76871 0.06756 0.17318 0.0
C79 C 0.75084 0.08131 0.19803 0.0
C80 C 0.77966 0.05448 0.21221 0.0
C81 C 0.7736 0.05535 0.27785 0.0
C82 C 0.75761 0.07092 0.30436 0.0
C83 C 0.74616 0.08355 0.26483 0.0
C84 C 0.78226 0.03875 0.31622 0.0
C85 C 0.80383 0.02945 0.30352 0.0
C86 C 0.81091 0.0117 0.33217 0.0
C87 C 0.79642 0.00356 0.37727 0.0
C88 C 0.77511 0.01362 0.39361 0.0
C89 C 0.76818 0.03081 0.36188 0.0
C90 C 0.75918 0.00694 0.4429 0.0
C91 C 0.74759 0.98714 0.43197 0.0
C92 C 0.75213 0.02235 0.49493 0.0
C93 C 0.73331 0.01857 0.53319 0.0
C94 C 0.72081 0.99926 0.52048 0.0
C95 C 0.83332 0.00212 0.31043 0.0
C96 C 0.8342 0.98596 0.25628 0.0
C97 C 0.85334 0.01365 0.32927 0.0
C98 C 0.87331 0.01026 0.29207 0.0
C99 C 0.87372 0.99536 0.23464 0.0
C100 C 0.85421 0.98253 0.21894 0.0
C101 C 0.72859 0.98335 0.47026 0.0
H102 H 0.77333 0.06587 0.12244 0.0
H103 H 0.79184 0.04277 0.18941 0.0
H104 H 0.75306 0.07269 0.35514 0.0
H105 H 0.73256 0.09395 0.28615 0.0
H106 H 0.81521 0.03571 0.26971 0.0
H107 H 0.75125 0.03747 0.37159 0.0
H108 H 0.80178 0.98993 0.39997 0.0
H109 H 0.75238 0.97512 0.39157 0.0
H110 H 0.7605 0.03789 0.50387 0.0
H111 H 0.72786 0.03137 0.57054 0.0
H112 H 0.81884 0.9773 0.23952 0.0
H113 H 0.85299 0.02655 0.36987 0.0
H114 H 0.71964 0.96816 0.45938 0.0
H115 H 0.85376 0.97101 0.17498 0.0
H116 H 0.88809 0.02016 0.30646 0.0
C117 C 0.5587 0.74494 0.42116 0.0
C118 C 0.57704 0.73055 0.42412 0.0
C119 C 0.55759 0.75779 0.37165 0.0
C120 C 0.57488 0.7566 0.32472 0.0
C121 C 0.59428 0.744 0.33157 0.0
C122 C 0.59538 0.73112 0.3807 0.0
C123 C 0.56975 0.76241 0.26023 0.0
C124 C 0.56964 0.78373 0.24676 0.0
C125 C 0.56487 0.78788 0.18337 0.0
C126 C 0.55933 0.77057 0.13488 0.0
C127 C 0.55929 0.74939 0.14862 0.0
C128 C 0.56464 0.74551 0.21104 0.0
C129 C 0.55327 0.7309 0.09938 0.0
C130 C 0.53178 0.72975 0.06936 0.0
C131 C 0.56778 0.71292 0.08963 0.0
C132 C 0.56037 0.69363 0.0543 0.0
C133 C 0.53821 0.69186 0.02835 0.0
C134 C 0.56581 0.81005 0.16639 0.0
C135 C 0.55394 0.8271 0.20307 0.0
C136 C 0.57746 0.8139 0.1103 0.0
C137 C 0.57657 0.83411 0.08983 0.0
C138 C 0.56384 0.85094 0.12468 0.0
C139 C 0.55283 0.84733 0.18215 0.0
C140 C 0.52428 0.71031 0.03403 0.0
H141 H 0.54449 0.74527 0.45456 0.0
H142 H 0.5423 0.76714 0.36667 0.0
H143 H 0.60761 0.74254 0.29513 0.0
H144 H 0.60971 0.72022 0.38076 0.0
H145 H 0.57381 0.79685 0.28467 0.0
H146 H 0.56435 0.72911 0.22197 0.0
H147 H 0.55516 0.77356 0.08639 0.0
H148 H 0.52027 0.74341 0.07668 0.0
H149 H 0.58451 0.71353 0.1119 0.0
H150 H 0.57171 0.67984 0.04927 0.0
H151 H 0.54477 0.82456 0.24642 0.0
H152 H 0.58692 0.80108 0.0814 0.0
H153 H 0.50713 0.70942 0.01446 0.0
H154 H 0.54302 0.86004 0.21029 0.0
H155 H 0.58506 0.83625 0.04508 0.0
C156 C 0.25333 0.42987 0.38554 0.0
C157 C 0.23098 0.42491 0.36378 0.0
C158 C 0.26983 0.4356 0.34293 0.0
C159 C 0.26471 0.43523 0.27684 0.0
C160 C 0.24415 0.42541 0.25345 0.0
C161 C 0.22723 0.42079 0.29652 0.0
C162 C 0.2782 0.44863 0.23655 0.0
C163 C 0.30102 0.45405 0.25127 0.0
C164 C 0.31201 0.47082 0.22534 0.0
C165 C 0.30022 0.48152 0.17998 0.0
C166 C 0.27788 0.47493 0.16051 0.0
C167 C 0.26711 0.45892 0.18988 0.0
C168 C 0.26417 0.48465 0.11213 0.0
C169 C 0.25203 0.50385 0.13096 0.0
C170 C 0.25793 0.47161 0.05428 0.0
C171 C 0.23907 0.47684 0.01832 0.0
C172 C 0.22577 0.49526 0.03939 0.0
C173 C 0.33494 0.47759 0.25213 0.0
C174 C 0.33837 0.4984 0.28612 0.0
C175 C 0.35171 0.46181 0.25666 0.0
C176 C 0.37033 0.46609 0.29843 0.0
C177 C 0.37285 0.48635 0.33654 0.0
C178 C 0.35721 0.50276 0.32779 0.0
C179 C 0.23311 0.50915 0.0949 0.0
H180 H 0.25743 0.43174 0.4366 0.0
H181 H 0.28558 0.44234 0.36379 0.0
H182 H 0.24011 0.42326 0.20235 0.0
H183 H 0.21058 0.41622 0.2768 0.0
H184 H 0.31005 0.446 0.28611 0.0
H185 H 0.24936 0.45551 0.17824 0.0
H186 H 0.30836 0.49455 0.1598 0.0
H187 H 0.25608 0.51394 0.17614 0.0
H188 H 0.26659 0.45641 0.03958 0.0
H189 H 0.23401 0.46555 0.97655 0.0
H190 H 0.32561 0.5108 0.28439 0.0
H191 H 0.34957 0.44563 0.23106 0.0
H192 H 0.22364 0.52368 0.11223 0.0
H193 H 0.35867 0.51855 0.35639 0.0
H194 H 0.38228 0.45321 0.30298 0.0
C195 C 0.9826 0.22763 0.41407 0.0
C196 C 0.99446 0.21019 0.43355 0.0
C197 C 0.99245 0.2396 0.36961 0.0
C198 C 1.0141 0.23403 0.34326 0.0
C199 C 0.02605 0.21684 0.36361 0.0
C200 C 0.01638 0.20509 0.4084 0.0
C201 C 0.02409 0.24549 0.2929 0.0
C202 C 0.02564 0.26795 0.30206 0.0
C203 C 0.03649 0.27869 0.2558 0.0
C204 C 0.0453 0.2667 0.19872 0.0
C205 C 0.04337 0.2441 0.18884 0.0
C206 C 0.03289 0.23373 0.23622 0.0
C207 C 0.05156 0.2305 0.12947 0.0
C208 C 0.03996 0.23057 0.07077 0.0
C209 C 0.06717 0.21391 0.1352 0.0
C210 C 0.06961 0.19663 0.08542 0.0
C211 C 0.05641 0.19553 0.02879 0.0
C212 C 0.03972 0.30225 0.27141 0.0
C213 C 0.02084 0.3155 0.2902 0.0
C214 C 0.06179 0.31091 0.27972 0.0
C215 C 0.06495 0.33198 0.31128 0.0
C216 C 0.04608 0.34475 0.33439 0.0
C217 C 0.02397 0.33657 0.32108 0.0
C218 C 0.04237 0.2132 0.02074 0.0
H219 H 0.9657 0.2319 0.43288 0.0
H220 H 0.98291 0.25279 0.35442 0.0
H221 H 0.04285 0.21235 0.34437 0.0
H222 H 0.0258 0.19155 0.42185 0.0
H223 H 0.01932 0.27705 0.34674 0.0
H224 H 0.03131 0.21631 0.22847 0.0
H225 H 0.05369 0.27483 0.16279 0.0
H226 H 0.02765 0.2431 0.0656 0.0
H227 H 0.07611 0.21346 0.1804 0.0
H228 H 0.08044 0.18333 0.09386 0.0
H229 H 1.00367 0.3091 0.28457 0.0
H230 H 0.0766 0.3009 0.26617 0.0
H231 H 0.03226 0.21304 0.97731 0.0
H232 H 1.00907 0.34586 0.33865 0.0
H233 H 0.08218 0.33793 0.32025 0.0
C234 C 0.28945 0.06112 0.45615 0.0
C235 C 0.31185 0.06729 0.44309 0.0
C236 C 0.27376 0.05646 0.40593 0.0
C237 C 0.27977 0.059 0.34209 0.0
C238 C 0.3004 0.06956 0.33234 0.0
C239 C 0.31649 0.07326 0.38193 0.0
C240 C 0.26692 0.04723 0.28597 0.0
C241 C 0.24382 0.04201 0.29176 0.0
C242 C 0.23306 0.02671 0.24583 0.0
C243 C 0.24535 0.01746 0.1901 0.0
C244 C 0.26815 0.0239 0.18116 0.0
C245 C 0.27869 0.03832 0.22969 0.0
C246 C 0.28235 0.01597 0.12336 0.0
C247 C 0.29598 0.99748 0.12279 0.0
C248 C 0.28754 0.03027 0.07951 0.0
C249 C 0.30675 0.02698 0.03909 0.0
C250 C 0.3214 0.0093 0.04155 0.0
C251 C 0.2097 0.01985 0.26241 0.0
C252 C 0.2064 -0.0003 0.28296 0.0
C253 C 0.19248 0.03552 0.27538 0.0
C254 C 0.17335 0.03183 0.3126 0.0
C255 C 0.17094 0.01239 0.33812 0.0
C256 C 0.18717 0.99597 0.32029 0.0
C257 C 0.3152 0.99409 0.08197 0.0
H258 H 0.28474 0.05761 0.50369 0.0
H259 H 0.25793 0.04889 0.41684 0.0
H260 H 0.30512 0.07315 0.28491 0.0
H261 H 0.33327 0.07866 0.36974 0.0
H262 H 0.23428 0.04902 0.33414 0.0
H263 H 0.29666 0.0417 0.22416 0.0
H264 H 0.23729 0.00562 0.1543 0.0
H265 H 0.29283 0.98655 0.15751 0.0
H266 H 0.2777 0.04493 0.08004 0.0
H267 H 0.31075 0.03888 1.00802 0.0
H268 H 0.21961 0.98751 0.27499 0.0
H269 H 0.1947 0.05128 0.26087 0.0
H270 H 0.32611 0.98037 0.08556 0.0
H271 H 0.18593 0.98082 0.33914 0.0
H272 H 0.161 0.04468 0.32413 0.0
C273 C 0.47069 0.26029 0.17692 0.0
C274 C 0.48777 0.26909 0.14095 0.0
C275 C 0.47653 0.24728 0.22364 0.0
C276 C 0.4995 0.24267 0.23468 0.0
C277 C 0.51626 0.24931 0.19373 0.0
C278 C 0.5105 0.2624 0.14748 0.0
C279 C 0.50652 0.23819 0.29939 0.0
C280 C 0.50423 0.21796 0.32025 0.0
C281 C 0.51135 0.21519 0.38324 0.0
C282 C 0.5197 0.23312 0.42541 0.0
C283 C 0.52137 0.25342 0.40523 0.0
C284 C 0.51525 0.25555 0.34178 0.0
C285 C 0.52884 0.2728 0.44974 0.0
C286 C 0.51771 0.29255 0.4478 0.0
C287 C 0.54754 0.27216 0.49169 0.0
C288 C 0.55544 0.29113 0.52894 0.0
C289 C 0.54489 0.31094 0.52399 0.0
C290 C 0.51016 0.1939 0.40658 0.0
C291 C 0.49035 0.18113 0.39854 0.0
C292 C 0.52853 0.18696 0.44158 0.0
C293 C 0.52679 0.16834 0.47058 0.0
C294 C 0.5066 0.15611 0.46557 0.0
C295 C 0.48858 0.16241 0.42782 0.0
C296 C 0.52576 0.31139 0.48399 0.0
H297 H 0.45294 0.26462 0.17216 0.0
H298 H 0.46334 0.24262 0.25529 0.0
H299 H 0.53414 0.24628 0.20222 0.0
H300 H 0.52424 0.26884 0.12134 0.0
H301 H 0.49752 0.20446 0.28741 0.0
H302 H 0.51703 0.27106 0.32505 0.0
H303 H 0.52426 0.2314 0.4747 0.0
H304 H 0.50283 0.29353 0.41761 0.0
H305 H 0.55646 0.25718 0.4942 0.0
H306 H 0.57011 0.29045 0.56009 0.0
H307 H 0.47588 0.18611 0.37204 0.0
H308 H 0.5442 0.1962 0.44755 0.0
H309 H 0.51697 0.3264 0.48077 0.0
H310 H 0.47278 0.15337 0.42308 0.0
H311 H 0.54123 0.16367 0.49777 0.0
Tb312 Tb 1.00503 0.00577 0.74573 0.0
Tb313 Tb 0.04633 0.99307 0.83868 0.0
C314 C 0.99616 0.99791 0.88879 0.0
C315 C 0.9696 0.03975 0.65787 0.0
C316 C 0.96115 0.08159 0.63016 0.0
C317 C 0.9441 0.0657 0.61948 0.0
C318 C 0.94825 0.0449 0.63387 0.0
C319 C 0.98666 0.05553 0.66743 0.0
C320 C 0.98245 0.07627 0.65417 0.0
C321 C 0.97409 0.01831 0.67535 0.0
O322 O 0.02391 0.03549 0.7745 0.0
O323 O 0.04122 0.02747 0.8668 0.0
O324 O 0.06215 0.00562 0.75724 0.0
O325 O 0.03422 0.99504 0.68375 0.0
O326 O 0.06101 0.99318 0.93042 0.0
O327 O 0.07838 0.97849 0.84386 0.0
O328 O 0.03583 0.96322 0.77999 0.0
O329 O 0.99958 0.97174 0.7496 0.0
O330 O 0.99265 0.01082 0.84555 0.0
O331 O 1.01458 0.98585 0.88607 0.0
C332 C 0.03456 0.04146 0.82955 0.0
O333 O 0.99305 0.00929 0.65302 0.0
O334 O 0.97142 0.01676 0.73631 0.0
C335 C 0.05549 0.00065 0.69692 0.0
C336 C 0.08084 0.9609 0.93458 0.0
C337 C 0.08667 0.92155 0.98233 0.0
C338 C 0.10501 0.93604 0.98232 0.0
C339 C 0.10209 0.95559 0.95851 0.0
C340 C 0.06253 0.94652 0.93432 0.0
C341 C 0.06538 0.92707 0.9582 0.0
C342 C 0.0779 0.98088 0.90689 0.0
C343 C 1.01542 0.95752 0.75765 0.0
H344 H 0.92759 0.06942 0.6006 0.0
H345 H 0.93487 0.03289 0.62634 0.0
H346 H 1.00335 0.05177 0.68482 0.0
H347 H 0.99608 0.08805 0.66139 0.0
H348 H 0.12166 0.93218 0.99999 0.0
H349 H 0.11645 0.96647 0.95829 0.0
H350 H 0.04602 0.95033 0.9155 0.0
H351 H 0.05079 0.9165 0.95855 0.0
Tb352 Tb 0.51575 0.98273 0.73379 0.0
Tb353 Tb 0.53072 0.0207 0.8485 0.0
C354 C 0.53517 0.97189 0.86591 0.0
C355 C 0.4831 0.96348 0.59534 0.0
C356 C 0.44609 0.98701 0.55615 0.0
C357 C 0.44229 0.96786 0.5822 0.0
C358 C 0.46068 0.95613 0.60145 0.0
C359 C 0.48688 0.98101 0.56148 0.0
C360 C 0.46852 0.99274 0.54239 0.0
C361 C 0.50089 0.95739 0.63935 0.0
O362 O 0.48392 0.99637 0.77773 0.0
O363 O 0.49741 0.01011 0.87823 0.0
O364 O 0.50831 0.03502 0.78357 0.0
O365 O 0.51744 0.01251 0.69214 0.0
O366 O 0.53969 0.03266 0.94458 0.0
O367 O 0.53714 0.05372 0.87213 0.0
O368 O 0.55915 0.01636 0.77941 0.0
O369 O 0.55291 0.98117 0.73617 0.0
O370 O 0.52107 0.96652 0.81737 0.0
O371 O 0.54443 0.99118 0.87768 0.0
C372 C 0.4804 0.00324 0.83966 0.0
O373 O 0.52039 0.96736 0.63822 0.0
O374 O 0.494 0.95705 0.69863 0.0
C375 C 0.51009 0.03121 0.72047 0.0
C376 C 0.56485 0.06216 0.95139 0.0
C377 C 0.60657 0.08269 0.98648 0.0
C378 C 0.58588 0.09174 0.01173 0.0
C379 C 0.56516 0.08154 0.99416 0.0
C380 C 0.58535 0.05316 0.92545 0.0
C381 C 0.60606 0.06333 0.94293 0.0
C382 C 0.54302 0.05208 0.93122 0.0
C383 C 0.56634 0.99812 0.74617 0.0
H384 H 0.42511 0.96272 0.59157 0.0
H385 H 0.45728 0.9426 0.62694 0.0
H386 H 0.50394 0.98706 0.55533 0.0
H387 H 0.47202 0.00733 0.52206 0.0
H388 H 0.58573 0.10669 0.04504 0.0
H389 H 0.54938 0.0888 0.01382 0.0
H390 H 0.58533 0.03826 0.89186 0.0
H391 H 0.6217 0.05572 0.92357 0.0
Tb392 Tb 0.50529 0.49043 0.8327 0.0
Tb393 Tb 0.54308 0.51002 0.73802 0.0
C394 C 0.49203 0.50041 0.694 0.0
C395 C 0.47816 0.45183 0.9259 0.0
C396 C 0.47812 0.41054 0.96557 0.0
C397 C 0.46102 0.42579 0.98703 0.0
C398 C 0.461 0.44619 0.96709 0.0
C399 C 0.49545 0.43693 0.90527 0.0
C400 C 0.49534 0.41646 0.92435 0.0
C401 C 0.47778 0.47294 0.90281 0.0
O402 O 0.51859 0.46343 0.76637 0.0
O403 O 0.55281 0.47644 0.73355 0.0
O404 O 0.55805 0.51227 0.83451 0.0
O405 O 0.53849 0.48553 0.87498 0.0
O406 O 0.55675 0.51354 0.6467 0.0
O407 O 0.5711 0.53059 0.73425 0.0
O408 O 0.51924 0.53562 0.7707 0.0
O409 O 0.50759 0.52494 0.86597 0.0
O410 O 0.48568 0.50153 0.75496 0.0
O411 O 0.51372 0.49958 0.67713 0.0
C412 C 0.53902 0.46041 0.74048 0.0
O413 O 0.49362 0.48651 0.92573 0.0
O414 O 0.47562 0.4722 0.84044 0.0
C415 C 0.55592 0.49872 0.8766 0.0
C416 C 0.57105 0.54882 0.64435 0.0
C417 C 0.57194 0.58993 0.60391 0.0
C418 C 0.59236 0.57925 0.61544 0.0
C419 C 0.59189 0.55892 0.63531 0.0
C420 C 0.55059 0.55927 0.6328 0.0
C421 C 0.55102 0.57958 0.61243 0.0
C422 C 0.57103 0.52842 0.6714 0.0
C423 C 0.51098 0.54007 0.82947 0.0
H424 H 0.44772 0.42207 0.01973 0.0
H425 H 0.44755 0.45753 0.98376 0.0
H426 H 0.50894 0.44109 0.87384 0.0
H427 H 0.50862 0.4052 0.90584 0.0
H428 H 0.60877 0.5868 0.61069 0.0
H429 H 0.60785 0.55126 0.64508 0.0
H430 H 0.53429 0.55186 0.64036 0.0
H431 H 0.53496 0.58713 0.60329 0.0
Tb432 Tb 0.03404 0.5199 0.7441 0.0
Tb433 Tb 0.01787 0.48411 0.83325 0.0
C434 C 1.01558 0.5341 0.88536 0.0
C435 C 0.06685 0.5363 0.61761 0.0
C436 C 0.10106 0.50963 0.55426 0.0
C437 C 0.10695 0.52772 0.59913 0.0
C438 C 0.08998 0.54103 0.6303 0.0
C439 C 0.06122 0.51996 0.56638 0.0
C440 C 0.07819 0.50668 0.53516 0.0
C441 C 0.04967 0.54365 0.668 0.0
O442 O 0.0647 0.50468 0.77702 0.0
O443 O 0.05023 0.49711 0.8724 0.0
O444 O 0.03454 0.46544 0.75015 0.0
O445 O 0.03341 0.48984 0.67837 0.0
O446 O 0.99391 0.47378 0.89648 0.0
O447 O 0.02465 0.45548 0.87121 0.0
O448 O 0.99169 0.48512 0.75939 0.0
O449 O 0.99674 0.52025 0.74525 0.0
O450 O 0.02903 0.53854 0.83877 0.0
O451 O 1.00668 0.5149 0.8857 0.0
C452 C 0.06782 0.50085 0.83665 0.0
O453 O 0.02966 0.53451 0.66045 0.0
O454 O 0.05688 0.54432 0.72737 0.0
C455 C 0.03642 0.47021 0.6912 0.0
C456 C 0.99108 0.43648 0.88949 0.0
C457 C 0.9563 0.40524 0.87363 0.0
C458 C 0.96624 0.41254 0.81926 0.0
C459 C 0.9834 0.42821 0.82721 0.0
C460 C 0.9828 0.42788 0.943 0.0
C461 C 0.96558 0.41242 0.93529 0.0
C462 C 1.00499 0.45603 0.90063 0.0
C463 C 0.98411 0.50273 0.73919 0.0
H464 H 0.12458 0.53075 0.61323 0.0
H465 H 0.09487 0.55366 0.66891 0.0
H466 H 0.04358 0.51601 0.55457 0.0
H467 H 0.07317 0.49301 0.50019 0.0
H468 H 0.95984 0.40714 0.77101 0.0
H469 H 0.98971 0.43474 0.78527 0.0
H470 H 0.98852 0.43419 0.9914 0.0
H471 H 0.9583 0.4076 0.97865 0.0
H472 H 0.15802 0.04246 0.43987 0.0
H473 H 0.14356 0.97736 0.35116 0.0
H474 H 0.13003 0.03917 0.5242 0.0
H475 H 0.11555 0.97397 0.43666 0.0
H476 H 0.05014 0.98625 0.56679 0.0
H477 H 0.07748 0.98848 0.47914 0.0
H478 H 0.12598 0.01952 0.61768 0.0
H479 H 0.0988 0.01732 0.70505 0.0
C480 C 0.14869 0.02748 0.43787 0.0
C481 C 0.153 0.01023 0.38815 0.0
C482 C 0.13279 0.02551 0.48685 0.0
C483 C 0.12055 0.00627 0.48761 0.0
C484 C 0.12456 0.98907 0.43745 0.0
C485 C 0.14072 0.99096 0.38864 0.0
C486 C 0.06665 0.99353 0.57861 0.0
C487 C 0.07217 0.00166 0.64321 0.0
C488 C 0.08238 0.99469 0.52831 0.0
C489 C 0.10395 0.00425 0.54114 0.0
C490 C 0.10946 0.01228 0.60577 0.0
C491 C 0.09387 0.01091 0.65605 0.0
H492 H 0.52026 0.15394 0.58927 0.0
H493 H 0.48748 0.11627 0.4254 0.0
H494 H 0.51838 0.12346 0.64862 0.0
H495 H 0.48484 0.08574 0.48609 0.0
H496 H 0.51346 0.02969 0.58881 0.0
H497 H 0.50999 0.05956 0.52655 0.0
H498 H 0.49212 0.10213 0.7011 0.0
H499 H 0.49608 0.07244 0.76353 0.0
C500 C 0.51261 0.13912 0.56585 0.0
C501 C 0.50426 0.13751 0.5022 0.0
C502 C 0.51123 0.12169 0.60033 0.0
C503 C 0.50138 0.10211 0.57234 0.0
C504 C 0.4927 0.10053 0.50895 0.0
C505 C 0.49403 0.11807 0.47436 0.0
C506 C 0.50859 0.04538 0.61386 0.0
C507 C 0.50536 0.0487 0.68139 0.0
C508 C 0.50646 0.0625 0.57801 0.0
C509 C 0.50106 0.08335 0.60886 0.0
C510 C 0.49678 0.0864 0.67593 0.0
C511 C 0.49892 0.06931 0.71173 0.0
H512 H 0.38234 0.4597 0.42523 0.0
H513 H 0.40289 0.52017 0.3675 0.0
H514 H 0.41067 0.46426 0.51167 0.0
H515 H 0.4315 0.52472 0.45442 0.0
H516 H 0.49732 0.50844 0.56896 0.0
H517 H 0.46845 0.50631 0.48363 0.0
H518 H 0.41769 0.48887 0.61669 0.0
H519 H 0.44643 0.49117 0.7022 0.0
C520 C 0.39303 0.47394 0.43073 0.0
C521 C 0.39043 0.48949 0.389 0.0
C522 C 0.40914 0.47664 0.48076 0.0
C523 C 0.42336 0.49487 0.49015 0.0
C524 C 0.4209 0.51043 0.4483 0.0
C525 C 0.40445 0.50789 0.39873 0.0
C526 C 0.47998 0.50423 0.58018 0.0
C527 C 0.47427 0.4999 0.64258 0.0
C528 C 0.4634 0.50315 0.53129 0.0
C529 C 0.44076 0.49735 0.54317 0.0
C530 C 0.43501 0.49321 0.6057 0.0
C531 C 0.45149 0.49463 0.65486 0.0
H532 H 0.02278 0.38273 0.33551 0.0
H533 H 0.0758 0.35293 0.4356 0.0
H534 H 0.02329 0.41401 0.42003 0.0
H535 H 0.07672 0.38443 0.5192 0.0
H536 H 0.04411 0.42738 0.69644 0.0
H537 H 0.04981 0.3986 0.60601 0.0
H538 H 0.04584 0.44487 0.47213 0.0
H539 H 0.03978 0.47363 0.56229 0.0
C540 C 0.03483 0.38303 0.37495 0.0
C541 C 0.04915 0.36529 0.37898 0.0
C542 C 0.03523 0.40101 0.42317 0.0
C543 C 0.0499 0.4016 0.47669 0.0
C544 C 0.06502 0.38433 0.47904 0.0
C545 C 0.06469 0.3664 0.43065 0.0
C546 C 0.04462 0.43147 0.64781 0.0
C547 C 0.04135 0.45283 0.63676 0.0
C548 C 0.04805 0.41498 0.59595 0.0
C549 C 0.04824 0.41944 0.53183 0.0
C550 C 0.04553 0.44087 0.52088 0.0
C551 C 0.04216 0.45737 0.5727 0.0
H552 H 0.89408 0.9603 0.16046 0.0
H553 H 0.89749 0.0297 0.20143 0.0
H554 H 0.92407 0.96051 0.07855 0.0
H555 H 0.92759 0.02984 0.12109 0.0
H556 H 0.95917 0.02422 0.91847 0.0
H557 H 0.93075 0.02293 1.00306 0.0
H558 H 0.96538 0.96847 0.06348 0.0
H559 H 0.99394 0.96968 0.97823 0.0
C560 C 0.9013 0.97558 0.15244 0.0
C561 C 0.89331 0.99497 0.18802 0.0
C562 C 0.91863 0.97569 0.10575 0.0
C563 C 0.92823 0.99521 0.09279 0.0
C564 C 0.92047 0.01452 0.12908 0.0
C565 C 0.90334 0.0144 0.17596 0.0
C566 C 0.96083 0.01196 0.94972 0.0
C567 C 0.97898 0.9971 0.94137 0.0
C568 C 0.94453 0.0113 0.99863 0.0
C569 C 0.94575 0.99566 0.04052 0.0
C570 C 0.96379 0.98065 0.03192 0.0
C571 C 0.98026 0.98144 0.98323 0.0
H572 H 0.52422 0.87332 0.11639 0.0
H573 H 0.59612 0.87471 0.07097 0.0
H574 H 0.51789 0.90428 0.06011 0.0
H575 H 0.58968 0.90558 0.01375 0.0
H576 H 0.51227 0.93451 0.87237 0.0
H577 H 0.51978 0.90755 0.94216 0.0
H578 H 0.57682 0.94493 0.02728 0.0
H579 H 0.56927 0.97226 0.95693 0.0
C580 C 0.53875 0.88049 0.09549 0.0
C581 C 0.56065 0.87148 0.09789 0.0
C582 C 0.53509 0.8981 0.06269 0.0
C583 C 0.55325 0.90723 0.03193 0.0
C584 C 0.57536 0.89894 0.03712 0.0
C585 C 0.57901 0.88118 0.06946 0.0
C586 C 0.52645 0.93709 0.90583 0.0
C587 C 0.54021 0.95558 0.90884 0.0
C588 C 0.53062 0.92167 0.94631 0.0
C589 C 0.54878 0.92418 0.99059 0.0
C590 C 0.56271 0.94256 0.99351 0.0
C591 C 0.55835 0.95821 0.95338 0.0
H592 H 0.64079 0.47034 0.1983 0.0
H593 H 0.67738 0.52091 0.12172 0.0
H594 H 0.61087 0.47212 0.11983 0.0
H595 H 0.64619 0.52438 0.04809 0.0
H596 H 0.60077 0.51029 0.87136 0.0
H597 H 0.63004 0.50962 0.95335 0.0
H598 H 0.57991 0.48776 0.08174 0.0
H599 H 0.55117 0.48699 0.99732 0.0
C600 C 0.64248 0.48204 0.16529 0.0
C601 C 0.66206 0.49516 0.16634 0.0
C602 C 0.62489 0.48336 0.12054 0.0
C603 C 0.62587 0.49824 0.07612 0.0
C604 C 0.64485 0.51221 0.07968 0.0
C605 C 0.66271 0.51055 0.12344 0.0
C606 C 0.59606 0.50529 0.91712 0.0
C607 C 0.57365 0.49859 0.92758 0.0
C608 C 0.61286 0.5051 0.96482 0.0
C609 C 0.60766 0.49873 0.02531 0.0
C610 C 0.58501 0.49234 0.03582 0.0
C611 C 0.56835 0.49202 0.9874 0.0
H612 H 0.95811 0.6364 0.16547 0.0
H613 H 0.02903 0.63252 0.21897 0.0
H614 H 0.96315 0.60478 0.08266 0.0
H615 H 0.03397 0.60102 0.13666 0.0
H616 H 0.03955 0.57113 0.92067 0.0
H617 H 0.03267 0.59897 0.01284 0.0
H618 H 0.9741 0.56388 0.06728 0.0
H619 H 0.98107 0.53571 0.97497 0.0
C620 C 0.97463 0.62855 0.16033 0.0
C621 C 0.99318 0.63694 0.19861 0.0
C622 C 0.97748 0.61045 0.11319 0.0
C623 C 0.99901 0.60065 0.10293 0.0
C624 C 0.01725 0.60842 0.14321 0.0
C625 C 1.01435 0.6263 0.19078 0.0
C626 C 0.02516 0.56932 0.95208 0.0
C627 C 1.01085 0.55121 0.94044 0.0
C628 C 0.02135 0.58518 1.00517 0.0
C629 C 1.00296 0.58347 0.04738 0.0
C630 C 0.98839 0.56556 0.0354 0.0
C631 C 0.99243 0.54946 0.98272 0.0
H632 H 1.01369 0.19569 0.53763 0.0
H633 H 0.95148 0.19308 0.42615 0.0
H634 H 0.99944 0.1674 0.595 0.0
H635 H 0.93674 0.16505 0.48521 0.0
H636 H 0.94478 0.09225 0.5169 0.0
H637 H 0.94736 0.12732 0.48013 0.0
H638 H 0.97236 0.15525 0.66844 0.0
H639 H 0.97024 0.11999 0.70446 0.0
C640 C 0.99671 0.18937 0.52653 0.0
C641 C 0.98382 0.19633 0.47688 0.0
C642 C 0.9884 0.1733 0.55988 0.0
C643 C 0.96698 0.16383 0.54437 0.0
C644 C 0.95342 0.17185 0.49771 0.0
C645 C 0.96175 0.18802 0.46434 0.0
C646 C 0.95016 0.10604 0.5509 0.0
C647 C 0.95766 0.10342 0.61307 0.0
C648 C 0.95159 0.12617 0.52998 0.0
C649 C 0.96042 0.14402 0.57109 0.0
C650 C 0.96595 0.14171 0.63521 0.0
C651 C 0.96469 0.12158 0.65589 0.0
H652 H 0.31386 0.03516 0.51883 0.0
H653 H 0.35399 0.0874 0.46238 0.0
H654 H 0.34754 0.02014 0.55991 0.0
H655 H 0.3883 0.0713 0.50153 0.0
H656 H 0.43795 0.01074 0.4582 0.0
H657 H 0.40669 0.036 0.45055 0.0
H658 H 0.38059 0.02338 0.63497 0.0
H659 H 0.41191 0.99831 0.64304 0.0
C660 C 0.32961 0.04407 0.51724 0.0
C661 C 0.33103 0.0624 0.48557 0.0
C662 C 0.34911 0.03522 0.54068 0.0
C663 C 0.37058 0.04428 0.53258 0.0
C664 C 0.37192 0.06376 0.50703 0.0
C665 C 0.35226 0.0729 0.48444 0.0
C666 C 0.42567 0.01353 0.49737 0.0
C667 C 0.42709 0.00219 0.55048 0.0
C668 C 0.40793 0.02816 0.49335 0.0
C669 C 0.39129 0.03169 0.54234 0.0
C670 C 0.39312 0.02085 0.59637 0.0
C671 C 0.41085 0.00629 0.60047 0.0
H672 H 0.55646 0.34718 0.47522 0.0
H673 H 0.55131 0.32081 0.65437 0.0
H674 H 0.56157 0.38316 0.53546 0.0
H675 H 0.55657 0.35695 0.71524 0.0
H676 H 0.51902 0.42361 0.76751 0.0
H677 H 0.528 0.3868 0.72254 0.0
H678 H 0.58388 0.40908 0.61454 0.0
H679 H 0.57496 0.44637 0.66036 0.0
C680 C 0.55709 0.34908 0.52762 0.0
C681 C 0.55322 0.33139 0.56038 0.0
C682 C 0.56018 0.36963 0.56211 0.0
C683 C 0.55924 0.37288 0.63004 0.0
C684 C 0.55717 0.35489 0.66284 0.0
C685 C 0.55429 0.33424 0.62819 0.0
C686 C 0.53349 0.42077 0.73512 0.0
C687 C 0.54614 0.438 0.71711 0.0
C688 C 0.53878 0.39957 0.70979 0.0
C689 C 0.55669 0.39504 0.66518 0.0
C690 C 0.56995 0.41215 0.64883 0.0
C691 C 0.56483 0.43346 0.67499 0.0
H692 H 0.22904 0.4541 0.47499 0.0
H693 H 0.1875 0.40691 0.3555 0.0
H694 H 0.1955 0.46932 0.52917 0.0
H695 H 0.15336 0.42336 0.40902 0.0
H696 H 0.10791 0.48745 0.43255 0.0
H697 H 0.1372 0.46033 0.39883 0.0
H698 H 0.1614 0.46589 0.59591 0.0
H699 H 0.13222 0.49294 0.62955 0.0
C700 C 0.21295 0.44626 0.46152 0.0
C701 C 0.21125 0.42939 0.40918 0.0
C702 C 0.19351 0.45526 0.4928 0.0
C703 C 0.17178 0.44784 0.4724 0.0
C704 C 0.16997 0.42967 0.42469 0.0
C705 C 0.18956 0.42033 0.39391 0.0
C706 C 0.11934 0.48267 0.46867 0.0
C707 C 0.11822 0.49272 0.53326 0.0
C708 C 0.13592 0.46699 0.44957 0.0
C709 C 0.15159 0.46105 0.4948 0.0
C710 C 0.14969 0.47034 0.55994 0.0
C711 C 0.13319 0.486 0.57897 0.0
H712 H 0.07847 0.79026 0.07688 0.0
H713 H 0.07307 0.83467 0.2549 0.0
H714 H 0.08904 0.82005 0.01923 0.0
H715 H 0.08321 0.86429 0.19773 0.0
H716 H 0.11035 0.9145 0.09037 0.0
H717 H 0.11118 0.88175 0.14034 0.0
H718 H 0.06868 0.84981 0.98651 0.0
H719 H 0.06897 0.88208 0.93475 0.0
C720 C 0.07978 0.80634 0.10375 0.0
C721 C 0.07489 0.81013 0.17034 0.0
C722 C 0.08578 0.82339 0.07079 0.0
C723 C 0.08685 0.84459 0.10375 0.0
C724 C 0.08296 0.84816 0.17091 0.0
C725 C 0.07709 0.83114 0.2038 0.0
C726 C 0.10169 0.90031 0.06633 0.0
C727 C 0.08932 0.901 0.00905 0.0
C728 C 0.10196 0.8816 0.09535 0.0
C729 C 0.08975 0.86322 0.06793 0.0
C730 C 0.07841 0.86358 0.00882 0.0
C731 C 0.07827 0.88222 0.97962 0.0
H732 H 0.73757 0.06266 0.07736 0.0
H733 H 0.72685 0.11971 0.21778 0.0
H734 H 0.70501 0.07188 0.01698 0.0
H735 H 0.69326 0.1285 0.15738 0.0
H736 H 0.64486 0.08752 0.91445 0.0
H737 H 0.68335 0.09583 0.95554 0.0
H738 H 0.65674 0.10778 0.15058 0.0
H739 H 0.6185 0.0994 0.10984 0.0
C740 C 0.7289 0.07767 0.0943 0.0
C741 C 0.73474 0.0902 0.15349 0.0
C742 C 0.71004 0.08296 0.05933 0.0
C743 C 0.69637 0.10076 0.08289 0.0
C744 C 0.70335 0.11449 0.13865 0.0
C745 C 0.72249 0.10935 0.1734 0.0
C746 C 0.64722 0.09234 0.96597 0.0
C747 C 0.62876 0.09232 0.00908 0.0
C748 C 0.6692 0.09724 0.98938 0.0
C749 C 0.67308 0.10219 0.05629 0.0
C750 C 0.6543 0.10423 0.0987 0.0
C751 C 0.63234 0.09932 0.07532 0.0
H752 H 0.51311 0.68114 0.91717 0.0
H753 H 0.54296 0.65418 0.07664 0.0
H754 H 0.5003 0.64514 0.86947 0.0
H755 H 0.53099 0.61843 0.02842 0.0
H756 H 0.49765 0.55699 0.9524 0.0
H757 H 0.49889 0.59475 1.00113 0.0
H758 H 0.51922 0.61267 0.81717 0.0
H759 H 0.51739 0.57521 0.76815 0.0
C760 C 0.51679 0.66757 0.94216 0.0
C761 C 0.52935 0.67041 1.00004 0.0
C762 C 0.50957 0.64697 0.91479 0.0
C763 C 0.51464 0.6289 0.94512 0.0
C764 C 0.52651 0.63197 1.00414 0.0
C765 C 0.53372 0.65245 0.03127 0.0
C766 C 0.50189 0.56903 0.92205 0.0
C767 C 0.50776 0.56301 0.85666 0.0
C768 C 0.50273 0.59066 0.95005 0.0
C769 C 0.50951 0.60668 0.91326 0.0
C770 C 0.51381 0.6008 0.84685 0.0
C771 C 0.51291 0.57922 0.81884 0.0
H772 H 0.83207 0.43633 0.97173 0.0
H773 H 0.83044 0.37459 0.0402 0.0
H774 H 0.86258 0.42402 0.89864 0.0
H775 H 0.86132 0.36187 0.96529 0.0
H776 H 0.92074 0.41008 0.79119 0.0
H777 H 0.88098 0.40326 0.81198 0.0
H778 H 0.90057 0.36987 0.97051 0.0
H779 H 0.94041 0.3748 0.94553 0.0
C780 C 0.83761 0.41976 0.96936 0.0
C781 C 0.82901 0.40658 0.01264 0.0
C782 C 0.85521 0.41256 0.92682 0.0
C783 C 0.86475 0.39193 0.92623 0.0
C784 C 0.85472 0.378 0.96531 0.0
C785 C 0.83706 0.38529 0.00833 0.0
C786 C 0.91676 0.40024 0.82821 0.0
C787 C 0.93385 0.39396 0.86898 0.0
C788 C 0.89379 0.39658 0.84076 0.0
C789 C 0.88748 0.38716 0.89533 0.0
C790 C 0.90463 0.37764 0.9289 0.0
C791 C 0.92762 0.38078 0.91519 0.0
H792 H 0.01833 0.17666 0.96955 0.0
H793 H 0.09097 0.16704 0.98755 0.0
H794 H 1.01451 0.14014 0.91289 0.0
H795 H 0.087 0.13025 0.93161 0.0
H796 H 0.06252 0.05949 0.92744 0.0
H797 H 0.06926 0.0976 0.96434 0.0
H798 H 0.02434 0.11427 0.81542 0.0
H799 H 0.01738 0.07611 0.77878 0.0
C800 C 0.03362 0.16702 0.95986 0.0
C801 C 0.05496 0.17483 0.98368 0.0
C802 C 0.03138 0.14598 0.92755 0.0
C803 C 0.0504 0.13219 0.91853 0.0
C804 C 0.07195 0.14036 0.93895 0.0
C805 C 0.07422 0.16145 0.97092 0.0
C806 C 0.05414 0.07124 0.90228 0.0
C807 C 0.03933 0.06468 0.85021 0.0
C808 C 0.05818 0.09311 0.92309 0.0
C809 C 0.04741 0.10898 0.89267 0.0
C810 C 0.03282 0.10244 0.84008 0.0
C811 C 0.02891 0.08054 0.81891 0.0
H812 H 0.34277 0.97377 0.97284 0.0
H813 H 0.35173 0.04198 0.03386 0.0
H814 H 0.38067 0.97202 0.92183 0.0
H815 H 0.38928 0.04024 0.98295 0.0
H816 H 0.46557 0.02345 0.95759 0.0
H817 H 0.42716 0.02444 1.00295 0.0
H818 H 0.40271 0.9853 0.82957 0.0
H819 H 0.44132 0.98438 0.78359 0.0
C820 C 0.35274 0.98839 0.97518 0.0
C821 C 0.34404 0.00803 1.0073 0.0
C822 C 0.37441 0.98742 0.94557 0.0
C823 C 0.38813 0.00598 0.94836 0.0
C824 C 0.37934 0.02559 0.9802 0.0
C825 C 0.35763 0.02661 0.00889 0.0
C826 C 0.45207 0.01504 0.92886 0.0
C827 C 0.45668 0.00386 0.86671 0.0
C828 C 0.42995 0.0157 0.95488 0.0
C829 C 0.41173 0.005 0.91999 0.0
C830 C 0.41632 0.99362 0.85803 0.0
C831 C 0.43847 0.9932 0.83151 0.0
H832 H 0.5075 0.27838 0.02802 0.0
H833 H 0.45697 0.302 0.17238 0.0
H834 H 0.50408 0.31171 0.98126 0.0
H835 H 0.45308 0.3348 0.12399 0.0
H836 H 0.4412 0.38518 0.9866 0.0
H837 H 0.44139 0.34977 0.02208 0.0
H838 H 0.51503 0.35036 0.02433 0.0
H839 H 0.51501 0.386 0.99142 0.0
C840 C 0.49547 0.29048 0.04942 0.0
C841 C 0.48269 0.28741 0.10455 0.0
C842 C 0.49351 0.30958 0.02249 0.0
C843 C 0.47848 0.32597 0.04934 0.0
C844 C 0.4647 0.32242 0.1019 0.0
C845 C 0.46686 0.30346 0.12938 0.0
C846 C 0.45747 0.37794 0.99532 0.0
C847 C 0.47809 0.38865 0.98606 0.0
C848 C 0.45754 0.35755 0.01523 0.0
C849 C 0.47822 0.34721 0.02553 0.0
C850 C 0.49881 0.35773 0.01563 0.0
C851 C 0.49876 0.37821 0.99659 0.0
H852 H 0.18561 0.51115 0.09627 0.0
H853 H 0.2145 0.48672 0.90947 0.0
H854 H 0.14848 0.51389 0.04641 0.0
H855 H 0.17697 0.48839 0.86003 0.0
H856 H 0.10875 0.50998 0.78089 0.0
H857 H 0.14694 0.51043 0.82819 0.0
H858 H 0.1184 0.49139 1.0022 0.0
H859 H 0.0804 0.49151 0.95579 0.0
C860 C 0.1842 0.50657 0.0444 0.0
C861 C 0.20332 0.49868 1.00726 0.0
C862 C 0.16267 0.5078 0.01578 0.0
C863 C 0.15941 0.50109 0.94902 0.0
C864 C 0.17866 0.49382 0.91145 0.0
C865 C 0.20024 0.49264 0.94009 0.0
C866 C 0.11063 0.50591 0.82929 0.0
C867 C 0.09135 0.50076 0.86442 0.0
C868 C 0.13261 0.50607 0.85642 0.0
C869 C 0.13598 0.50107 0.91947 0.0
C870 C 0.11664 0.49579 0.95419 0.0
C871 C 0.09473 0.49568 0.92721 0.0
H872 H 0.03283 0.82381 0.6118 0.0
H873 H 0.95946 0.82839 0.63083 0.0
H874 H 0.03656 0.86077 0.6632 0.0
H875 H 0.96323 0.86574 0.68313 0.0
H876 H 0.03953 0.9238 0.7924 0.0
H877 H 0.03274 0.88551 0.76049 0.0
H878 H 0.97353 0.90007 0.65134 0.0
H879 H 0.97995 0.9385 0.68502 0.0
C880 C 0.01748 0.83249 0.62875 0.0
C881 C 0.99583 0.82302 0.61734 0.0
C882 C 0.01962 0.85382 0.65819 0.0
C883 C 1.00019 0.86633 0.67724 0.0
C884 C 0.97854 0.85666 0.66815 0.0
C885 C 0.97638 0.83524 0.63846 0.0
C886 C 0.02499 0.91887 0.76178 0.0
C887 C 1.01045 0.93424 0.74052 0.0
C888 C 0.02112 0.89687 0.74339 0.0
C889 C 1.00272 0.88965 0.70277 0.0
C890 C 0.98773 0.90502 0.68321 0.0
C891 C 0.9915 0.92708 0.7021 0.0
H892 H 0.71117 0.01261 0.64952 0.0
H893 H 0.68058 0.98017 0.47392 0.0
H894 H 0.67477 0.01141 0.70561 0.0
H895 H 0.64421 0.97885 0.53022 0.0
H896 H 0.58585 0.96474 0.6641 0.0
H897 H 0.62337 0.96349 0.61266 0.0
H898 H 0.63738 0.0278 0.70894 0.0
H899 H 0.60003 0.02894 0.76109 0.0
C900 C 0.69672 0.0052 0.62268 0.0
C901 C 0.699 0.99659 0.55675 0.0
C902 C 0.67574 0.00455 0.655 0.0
C903 C 0.65633 0.99518 0.62261 0.0
C904 C 0.65875 0.98599 0.55722 0.0
C905 C 0.67973 0.9867 0.52481 0.0
C906 C 0.59696 0.97859 0.67473 0.0
C907 C 0.58975 0.99695 0.71692 0.0
C908 C 0.6185 0.97792 0.64474 0.0
C909 C 0.63357 0.99555 0.65625 0.0
C910 C 0.62647 0.01378 0.69929 0.0
C911 C 0.6049 0.01449 0.72904 0.0
H912 H 0.53934 0.70751 0.451 0.0
H913 H 0.61183 0.71301 0.4884 0.0
H914 H 0.53812 0.67498 0.50163 0.0
H915 H 0.61059 0.68002 0.53755 0.0
H916 H 0.60254 0.60559 0.52258 0.0
H917 H 0.60385 0.64133 0.4904 0.0
H918 H 0.54379 0.65969 0.60536 0.0
H919 H 0.54276 0.62406 0.63939 0.0
C920 C 0.55493 0.70218 0.47148 0.0
C921 C 0.57573 0.71294 0.46508 0.0
C922 C 0.55422 0.68339 0.50023 0.0
C923 C 0.5743 0.67477 0.52282 0.0
C924 C 0.59489 0.68606 0.51948 0.0
C925 C 0.59558 0.70498 0.49131 0.0
C926 C 0.58979 0.61729 0.54202 0.0
C927 C 0.57255 0.61182 0.58374 0.0
C928 C 0.59057 0.63782 0.52349 0.0
C929 C 0.574 0.65338 0.54561 0.0
C930 C 0.55671 0.64799 0.58717 0.0
C931 C 0.55606 0.6275 0.60629 0.0
H932 H 0.87326 0.51638 0.4678 0.0
H933 H 0.84416 0.47654 0.59898 0.0
H934 H 0.90825 0.51992 0.53164 0.0
H935 H 0.87905 0.48017 0.66307 0.0
H936 H 0.95379 0.46918 0.71548 0.0
H937 H 0.91765 0.46801 0.65773 0.0
H938 H 0.92628 0.53456 0.63135 0.0
H939 H 0.96279 0.53556 0.68798 0.0
C940 C 0.87411 0.50868 0.51093 0.0
C941 C 0.85578 0.49607 0.52777 0.0
C942 C 0.89428 0.51069 0.54768 0.0
C943 C 0.89675 0.50019 0.60254 0.0
C944 C 0.87811 0.48813 0.62047 0.0
C945 C 0.85799 0.48609 0.58369 0.0
C946 C 0.94799 0.48363 0.69769 0.0
C947 C 0.96137 0.50247 0.70656 0.0
C948 C 0.92708 0.483 0.66474 0.0
C949 C 0.91882 0.50119 0.63959 0.0
C950 C 0.9321 0.52012 0.64911 0.0
C951 C 0.95305 0.52075 0.6821 0.0
loop_
_geom_bond_atom_site_label_1
_geom_bond_atom_site_label_2
_geom_bond_distance
_geom_bond_site_symmetry_2
_ccdc_geom_bond_type
C0 C1 1.386 . S
C0 C2 1.397 . S
C0 H24 0.931 . S
C1 C0 1.386 . S
C1 C5 1.397 . S
C2 C0 1.397 . S
C2 C3 1.384 . S
C2 H25 0.930 . S
C3 C2 1.384 . S
C3 C4 1.377 . S
C3 C6 1.481 . S
C4 C3 1.377 . S
C4 C5 1.389 . S
C4 H26 0.929 . S
C5 C1 1.397 . S
C5 C4 1.389 . S
C5 H27 0.931 . S
C6 C3 1.481 . S
C6 C7 1.387 . S
C6 C11 1.390 . S
C7 C6 1.387 . S
C7 C8 1.401 . S
C7 H28 0.930 . S
C8 C7 1.401 . S
C8 C9 1.376 . S
C8 C17 1.511 . S
C9 C8 1.376 . S
C9 C10 1.392 . S
C9 H30 0.931 . S
C10 C9 1.392 . S
C10 C11 1.361 . S
C10 C12 1.500 . S
C11 C6 1.390 . S
C11 C10 1.361 . S
C11 H29 0.931 . S
C12 C10 1.500 . S
C12 C13 1.371 . S
C12 C14 1.365 . S
C13 C12 1.371 . S
C13 C23 1.386 . S
C13 H31 0.931 . S
C14 C12 1.365 . S
C14 C15 1.409 . S
C14 H32 0.929 . S
C15 C14 1.409 . S
C15 C16 1.380 . S
C15 H33 0.930 . S
C16 C15 1.380 . S
C16 C23 1.357 . S
C17 C8 1.511 . S
C17 C18 1.341 . S
C17 C19 1.371 . S
C18 C17 1.341 . S
C18 C22 1.394 . S
C18 H34 0.930 . S
C19 C17 1.371 . S
C19 C20 1.392 . S
C19 H35 0.931 . S
C20 C19 1.392 . S
C20 C21 1.331 . S
C20 H38 0.932 . S
C21 C20 1.331 . S
C21 C22 1.336 . S
C22 C18 1.394 . S
C22 C21 1.336 . S
C22 H37 0.929 . S
C23 C13 1.386 . S
C23 C16 1.357 . S
C23 H36 0.928 . S
H24 C0 0.931 . S
H25 C2 0.930 . S
H26 C4 0.929 . S
H27 C5 0.931 . S
H28 C7 0.930 . S
H29 C11 0.931 . S
H30 C9 0.931 . S
H31 C13 0.931 . S
H32 C14 0.929 . S
H33 C15 0.930 . S
H34 C18 0.930 . S
H35 C19 0.931 . S
H36 C23 0.928 . S
H37 C22 0.929 . S
H38 C20 0.932 . S
C39 C40 1.386 . S
C39 C41 1.397 . S
C39 H63 0.931 . S
C40 C39 1.386 . S
C40 C44 1.397 . S
C41 C39 1.397 . S
C41 C42 1.384 . S
C41 H64 0.930 . S
C42 C41 1.384 . S
C42 C43 1.377 . S
C42 C45 1.481 . S
C43 C42 1.377 . S
C43 C44 1.389 . S
C43 H65 0.929 1_655 S
C44 C40 1.397 . S
C44 C43 1.389 . S
C44 H66 0.931 1_655 S
C45 C42 1.481 . S
C45 C46 1.387 . S
C45 C50 1.390 . S
C46 C45 1.387 . S
C46 C47 1.401 . S
C46 H67 0.930 . S
C47 C46 1.401 . S
C47 C48 1.376 . S
C47 C56 1.511 . S
C48 C47 1.376 . S
C48 C49 1.392 . S
C48 H69 0.931 . S
C49 C48 1.392 . S
C49 C50 1.361 . S
C49 C51 1.500 . S
C50 C45 1.390 . S
C50 C49 1.361 . S
C50 H68 0.931 . S
C51 C49 1.500 . S
C51 C52 1.371 . S
C51 C53 1.365 . S
C52 C51 1.371 . S
C52 C62 1.386 . S
C52 H70 0.931 . S
C53 C51 1.365 . S
C53 C54 1.409 . S
C53 H71 0.929 . S
C54 C53 1.409 . S
C54 C55 1.380 . S
C54 H72 0.930 . S
C55 C54 1.380 . S
C55 C62 1.357 . S
C56 C47 1.511 . S
C56 C57 1.341 . S
C56 C58 1.371 . S
C57 C56 1.341 . S
C57 C61 1.394 . S
C57 H73 0.930 . S
C58 C56 1.371 . S
C58 C59 1.392 . S
C58 H74 0.931 . S
C59 C58 1.392 . S
C59 C60 1.331 . S
C59 H77 0.932 . S
C60 C59 1.331 . S
C60 C61 1.336 . S
C61 C57 1.394 . S
C61 C60 1.336 . S
C61 H76 0.929 . S
C62 C52 1.386 . S
C62 C55 1.357 . S
C62 H75 0.928 . S
H63 C39 0.931 . S
H64 C41 0.930 . S
H65 C43 0.929 1_455 S
H66 C44 0.931 1_455 S
H67 C46 0.930 . S
H68 C50 0.931 . S
H69 C48 0.931 . S
H70 C52 0.931 . S
H71 C53 0.929 . S
H72 C54 0.930 . S
H73 C57 0.930 . S
H74 C58 0.931 . S
H75 C62 0.928 . S
H76 C61 0.929 . S
H77 C59 0.932 . S
C78 C79 1.394 . S
C78 C80 1.397 . S
C78 H102 0.931 . S
C79 C78 1.394 . S
C79 C83 1.390 1_565 S
C80 C78 1.397 . S
C80 C81 1.388 . S
C80 H103 0.930 . S
C81 C80 1.388 . S
C81 C82 1.373 1_565 S
C81 C84 1.478 . S
C82 C81 1.373 1_545 S
C82 C83 1.389 . S
C82 H104 0.929 . S
C83 C79 1.390 1_545 S
C83 C82 1.389 . S
C83 H105 0.931 . S
C84 C81 1.478 . S
C84 C85 1.387 . S
C84 C89 1.393 . S
C85 C84 1.387 . S
C85 C86 1.399 . S
C85 H106 0.930 . S
C86 C85 1.399 . S
C86 C87 1.374 . S
C86 C95 1.511 . S
C87 C86 1.374 . S
C87 C88 1.393 . S
C87 H108 0.939 . S
C88 C87 1.393 . S
C88 C89 1.362 . S
C88 C90 1.503 1_565 S
C89 C84 1.393 . S
C89 C88 1.362 . S
C89 H107 0.931 . S
C90 C88 1.503 1_545 S
C90 C91 1.360 1_545 S
C90 C92 1.373 . S
C91 C90 1.360 1_565 S
C91 C101 1.386 . S
C91 H109 0.931 . S
C92 C90 1.373 . S
C92 C93 1.409 . S
C92 H110 0.929 . S
C93 C92 1.409 . S
C93 C94 1.378 . S
C93 H111 0.930 . S
C94 C93 1.378 . S
C94 C101 1.358 1_545 S
C95 C86 1.511 . S
C95 C96 1.341 . S
C95 C97 1.371 1_565 S
C96 C95 1.341 . S
C96 C100 1.394 . S
C96 H112 0.930 . S
C97 C95 1.371 1_545 S
C97 C98 1.392 . S
C97 H113 0.931 . S
C98 C97 1.392 . S
C98 C99 1.326 1_545 S
C98 H116 0.932 . S
C99 C98 1.326 1_565 S
C99 C100 1.342 . S
C100 C96 1.394 . S
C100 C99 1.342 . S
C100 H115 0.929 . S
C101 C91 1.386 . S
C101 C94 1.358 1_565 S
C101 H114 0.928 . S
H102 C78 0.931 . S
H103 C80 0.930 . S
H104 C82 0.929 . S
H105 C83 0.931 . S
H106 C85 0.930 . S
H107 C89 0.931 . S
H108 C87 0.939 . S
H109 C91 0.931 . S
H110 C92 0.929 . S
H111 C93 0.930 . S
H112 C96 0.930 . S
H113 C97 0.931 . S
H114 C101 0.928 . S
H115 C100 0.929 . S
H116 C98 0.932 . S
C117 C118 1.386 . S
C117 C119 1.397 . S
C117 H141 0.931 . S
C118 C117 1.386 . S
C118 C122 1.397 . S
C119 C117 1.397 . S
C119 C120 1.384 . S
C119 H142 0.930 . S
C120 C119 1.384 . S
C120 C121 1.377 . S
C120 C123 1.481 . S
C121 C120 1.377 . S
C121 C122 1.389 . S
C121 H143 0.929 . S
C122 C118 1.397 . S
C122 C121 1.389 . S
C122 H144 0.931 . S
C123 C120 1.481 . S
C123 C124 1.387 . S
C123 C128 1.390 . S
C124 C123 1.387 . S
C124 C125 1.401 1_554 S
C124 H145 0.930 . S
C125 C124 1.401 1_556 S
C125 C126 1.376 . S
C125 C134 1.511 . S
C126 C125 1.376 . S
C126 C127 1.392 . S
C126 H147 0.931 . S
C127 C126 1.392 . S
C127 C128 1.361 1_556 S
C127 C129 1.500 . S
C128 C123 1.390 . S
C128 C127 1.361 1_554 S
C128 H146 0.931 . S
C129 C127 1.500 . S
C129 C130 1.371 . S
C129 C131 1.365 . S
C130 C129 1.371 . S
C130 C140 1.386 . S
C130 H148 0.931 . S
C131 C129 1.365 . S
C131 C132 1.409 . S
C131 H149 0.929 . S
C132 C131 1.409 . S
C132 C133 1.380 . S
C132 H150 0.930 . S
C133 C132 1.380 . S
C133 C140 1.357 . S
C134 C125 1.511 . S
C134 C135 1.341 1_556 S
C134 C136 1.371 . S
C135 C134 1.341 1_554 S
C135 C139 1.394 . S
C135 H151 0.930 . S
C136 C134 1.371 . S
C136 C137 1.392 . S
C136 H152 0.931 . S
C137 C136 1.392 . S
C137 C138 1.331 . S
C137 H155 0.932 . S
C138 C137 1.331 . S
C138 C139 1.336 1_556 S
C139 C135 1.394 . S
C139 C138 1.336 1_554 S
C139 H154 0.929 . S
C140 C130 1.386 . S
C140 C133 1.357 . S
C140 H153 0.928 . S
H141 C117 0.931 . S
H142 C119 0.930 . S
H143 C121 0.929 . S
H144 C122 0.931 . S
H145 C124 0.930 . S
H146 C128 0.931 . S
H147 C126 0.931 . S
H148 C130 0.931 . S
H149 C131 0.929 . S
H150 C132 0.930 . S
H151 C135 0.930 . S
H152 C136 0.931 . S
H153 C140 0.928 . S
H154 C139 0.929 . S
H155 C137 0.932 . S
C156 C157 1.386 . S
C156 C158 1.397 . S
C156 H180 0.931 . S
C157 C156 1.386 . S
C157 C161 1.397 . S
C158 C156 1.397 . S
C158 C159 1.384 . S
C158 H181 0.930 . S
C159 C158 1.384 . S
C159 C160 1.377 . S
C159 C162 1.481 . S
C160 C159 1.377 . S
C160 C161 1.389 . S
C160 H182 0.929 . S
C161 C157 1.397 . S
C161 C160 1.389 . S
C161 H183 0.931 . S
C162 C159 1.481 . S
C162 C163 1.387 . S
C162 C167 1.390 . S
C163 C162 1.387 . S
C163 C164 1.401 . S
C163 H184 0.930 . S
C164 C163 1.401 . S
C164 C165 1.376 . S
C164 C173 1.511 . S
C165 C164 1.376 . S
C165 C166 1.392 . S
C165 H186 0.931 . S
C166 C165 1.392 . S
C166 C167 1.361 . S
C166 C168 1.500 . S
C167 C162 1.390 . S
C167 C166 1.361 . S
C167 H185 0.931 . S
C168 C166 1.500 . S
C168 C169 1.371 1_554 S
C168 C170 1.365 . S
C169 C168 1.371 1_556 S
C169 C179 1.386 . S
C169 H187 0.931 1_556 S
C170 C168 1.365 . S
C170 C171 1.409 1_554 S
C170 H188 0.929 . S
C171 C170 1.409 1_556 S
C171 C172 1.380 . S
C171 H189 0.930 . S
C172 C171 1.380 . S
C172 C179 1.357 . S
C173 C164 1.511 . S
C173 C174 1.341 . S
C173 C175 1.371 . S
C174 C173 1.341 . S
C174 C178 1.394 . S
C174 H190 0.930 . S
C175 C173 1.371 . S
C175 C176 1.392 . S
C175 H191 0.931 . S
C176 C175 1.392 . S
C176 C177 1.331 . S
C176 H194 0.932 . S
C177 C176 1.331 . S
C177 C178 1.336 . S
C178 C174 1.394 . S
C178 C177 1.336 . S
C178 H193 0.929 . S
C179 C169 1.386 . S
C179 C172 1.357 . S
C179 H192 0.928 . S
H180 C156 0.931 . S
H181 C158 0.930 . S
H182 C160 0.929 . S
H183 C161 0.931 . S
H184 C163 0.930 . S
H185 C167 0.931 . S
H186 C165 0.931 . S
H187 C169 0.931 1_554 S
H188 C170 0.929 . S
H189 C171 0.930 . S
H190 C174 0.930 . S
H191 C175 0.931 . S
H192 C179 0.928 . S
H193 C178 0.929 . S
H194 C176 0.932 . S
C195 C196 1.386 . S
C195 C197 1.397 . S
C195 H219 0.931 . S
C196 C195 1.386 . S
C196 C200 1.397 . S
C197 C195 1.397 . S
C197 C198 1.384 . S
C197 H220 0.930 . S
C198 C197 1.384 . S
C198 C199 1.377 . S
C198 C201 1.481 . S
C199 C198 1.377 . S
C199 C200 1.389 . S
C199 H221 0.929 . S
C200 C196 1.397 . S
C200 C199 1.389 . S
C200 H222 0.931 . S
C201 C198 1.481 . S
C201 C202 1.387 . S
C201 C206 1.390 . S
C202 C201 1.387 . S
C202 C203 1.401 . S
C202 H223 0.930 . S
C203 C202 1.401 . S
C203 C204 1.376 . S
C203 C212 1.511 . S
C204 C203 1.376 . S
C204 C205 1.392 . S
C204 H225 0.931 . S
C205 C204 1.392 . S
C205 C206 1.361 . S
C205 C207 1.500 . S
C206 C201 1.390 . S
C206 C205 1.361 . S
C206 H224 0.931 . S
C207 C205 1.500 . S
C207 C208 1.371 . S
C207 C209 1.365 . S
C208 C207 1.371 . S
C208 C218 1.386 1_554 S
C208 H226 0.931 . S
C209 C207 1.365 . S
C209 C210 1.407 . S
C209 H227 0.929 . S
C210 C209 1.407 . S
C210 C211 1.382 1_554 S
C210 H228 0.930 1_554 S
C211 C210 1.382 1_556 S
C211 C218 1.357 . S
C212 C203 1.511 . S
C212 C213 1.341 . S
C212 C214 1.371 . S
C213 C212 1.341 . S
C213 C217 1.394 . S
C213 H229 0.930 . S
C214 C212 1.371 . S
C214 C215 1.392 . S
C214 H230 0.931 . S
C215 C214 1.392 . S
C215 C216 1.331 . S
C215 H233 0.932 . S
C216 C215 1.331 . S
C216 C217 1.336 . S
C217 C213 1.394 . S
C217 C216 1.336 . S
C217 H232 0.929 . S
C218 C208 1.386 1_556 S
C218 C211 1.357 . S
C218 H231 0.928 . S
H219 C195 0.931 . S
H220 C197 0.930 . S
H221 C199 0.929 . S
H222 C200 0.931 . S
H223 C202 0.930 . S
H224 C206 0.931 . S
H225 C204 0.931 . S
H226 C208 0.931 . S
H227 C209 0.929 . S
H228 C210 0.930 1_556 S
H229 C213 0.930 . S
H230 C214 0.931 . S
H231 C218 0.928 . S
H232 C217 0.929 . S
H233 C215 0.932 . S
C234 C235 1.387 . S
C234 C236 1.397 . S
C234 H258 0.931 . S
C235 C234 1.387 . S
C235 C239 1.396 1_565 S
C236 C234 1.397 . S
C236 C237 1.381 . S
C236 H259 0.930 . S
C237 C236 1.381 . S
C237 C238 1.380 1_565 S
C237 C240 1.483 . S
C238 C237 1.380 1_545 S
C238 C239 1.389 . S
C238 H260 0.929 . S
C239 C235 1.396 1_545 S
C239 C238 1.389 . S
C239 H261 0.931 . S
C240 C237 1.483 . S
C240 C241 1.389 . S
C240 C245 1.387 . S
C241 C240 1.389 . S
C241 C242 1.404 . S
C241 H262 0.930 . S
C242 C241 1.404 . S
C242 C243 1.378 . S
C242 C251 1.513 . S
C243 C242 1.378 . S
C243 C244 1.391 1_565 S
C243 H264 0.929 . S
C244 C243 1.391 1_545 S
C244 C245 1.361 1_545 S
C244 C246 1.494 . S
C245 C240 1.387 . S
C245 C244 1.361 1_565 S
C245 H263 0.931 . S
C246 C244 1.494 . S
C246 C247 1.360 1_544 S
C246 C248 1.382 . S
C247 C246 1.360 1_566 S
C247 C257 1.386 . S
C247 H265 0.931 1_556 S
C248 C246 1.382 . S
C248 C249 1.409 1_554 S
C248 H266 0.929 . S
C249 C248 1.409 1_556 S
C249 C250 1.383 . S
C249 H267 0.930 . S
C250 C249 1.383 . S
C250 C257 1.353 1_545 S
C251 C242 1.513 . S
C251 C252 1.341 . S
C251 C253 1.371 1_565 S
C252 C251 1.341 . S
C252 C256 1.394 . S
C252 H268 0.930 . S
C253 C251 1.371 1_545 S
C253 C254 1.392 . S
C253 H269 0.931 . S
C254 C253 1.392 . S
C254 C255 1.323 1_545 S
C254 H272 0.932 . S
C255 C254 1.323 1_565 S
C255 C256 1.343 . S
C256 C252 1.394 . S
C256 C255 1.343 . S
C256 H271 0.929 . S
C257 C247 1.386 . S
C257 C250 1.353 1_565 S
C257 H270 0.928 . S
H258 C234 0.931 . S
H259 C236 0.930 . S
H260 C238 0.929 . S
H261 C239 0.931 . S
H262 C241 0.930 . S
H263 C245 0.931 . S
H264 C243 0.929 . S
H265 C247 0.931 1_554 S
H266 C248 0.929 . S
H267 C249 0.930 . S
H268 C252 0.930 . S
H269 C253 0.931 . S
H270 C257 0.928 . S
H271 C256 0.929 . S
H272 C254 0.932 . S
C273 C274 1.386 . S
C273 C275 1.397 . S
C273 H297 0.931 . S
C274 C273 1.386 . S
C274 C278 1.397 . S
C275 C273 1.397 . S
C275 C276 1.384 . S
C275 H298 0.930 . S
C276 C275 1.384 . S
C276 C277 1.377 . S
C276 C279 1.481 . S
C277 C276 1.377 . S
C277 C278 1.389 . S
C277 H299 0.929 . S
C278 C274 1.397 . S
C278 C277 1.389 . S
C278 H300 0.931 . S
C279 C276 1.481 . S
C279 C280 1.387 . S
C279 C284 1.390 . S
C280 C279 1.387 . S
C280 C281 1.401 . S
C280 H301 0.930 . S
C281 C280 1.401 . S
C281 C282 1.376 . S
C281 C290 1.511 . S
C282 C281 1.376 . S
C282 C283 1.392 . S
C282 H303 0.931 . S
C283 C282 1.392 . S
C283 C284 1.361 . S
C283 C285 1.500 . S
C284 C279 1.390 . S
C284 C283 1.361 . S
C284 H302 0.931 . S
C285 C283 1.500 . S
C285 C286 1.371 . S
C285 C287 1.365 . S
C286 C285 1.371 . S
C286 C296 1.386 . S
C286 H304 0.931 . S
C287 C285 1.365 . S
C287 C288 1.409 . S
C287 H305 0.929 . S
C288 C287 1.409 . S
C288 C289 1.380 . S
C288 H306 0.930 . S
C289 C288 1.380 . S
C289 C296 1.357 . S
C290 C281 1.511 . S
C290 C291 1.341 . S
C290 C292 1.371 . S
C291 C290 1.341 . S
C291 C295 1.394 . S
C291 H307 0.930 . S
C292 C290 1.371 . S
C292 C293 1.392 . S
C292 H308 0.931 . S
C293 C292 1.392 . S
C293 C294 1.331 . S
C293 H311 0.932 . S
C294 C293 1.331 . S
C294 C295 1.336 . S
C295 C291 1.394 . S
C295 C294 1.336 . S
C295 H310 0.929 . S
C296 C286 1.386 . S
C296 C289 1.357 . S
C296 H309 0.928 . S
H297 C273 0.931 . S
H298 C275 0.930 . S
H299 C277 0.929 . S
H300 C278 0.931 . S
H301 C280 0.930 . S
H302 C284 0.931 . S
H303 C282 0.931 . S
H304 C286 0.931 . S
H305 C287 0.929 . S
H306 C288 0.930 . S
H307 C291 0.930 . S
H308 C292 0.931 . S
H309 C296 0.928 . S
H310 C295 0.929 . S
H311 C293 0.932 . S
Tb312 C321 2.764 . S
Tb312 O322 2.325 1_655 S
Tb312 O325 2.303 1_655 S
Tb312 O329 2.322 1_545 S
Tb312 O330 2.349 . S
Tb312 O333 2.415 1_655 S
Tb312 O334 2.399 . S
Tb313 O323 2.322 1_565 S
Tb313 O324 2.349 . S
Tb313 O326 2.415 . S
Tb313 O327 2.399 . S
Tb313 O328 2.325 . S
Tb313 O331 2.303 1_455 S
Tb313 C342 2.764 . S
C314 O330 1.261 . S
C314 O331 1.257 1_545 S
C315 C318 1.358 . S
C315 C319 1.332 1_655 S
C315 C321 1.504 . S
C316 C317 1.373 . S
C316 C320 1.308 1_655 S
C317 C316 1.373 . S
C317 C318 1.429 . S
C317 H344 0.932 . S
C318 C315 1.358 . S
C318 C317 1.429 . S
C318 H345 0.930 . S
C319 C315 1.332 1_455 S
C319 C320 1.394 . S
C319 H346 0.932 . S
C320 C316 1.308 1_455 S
C320 C319 1.394 . S
C320 H347 0.929 . S
C321 Tb312 2.764 . S
C321 C315 1.504 . S
C321 O333 1.239 1_655 S
C321 O334 1.263 . S
O322 Tb312 2.325 1_455 S
O322 C332 1.236 . S
O323 Tb313 2.322 1_545 S
O323 C332 1.257 . S
O324 Tb313 2.349 . S
O324 C335 1.261 . S
O325 Tb312 2.303 1_455 S
O325 C335 1.257 1_545 S
O326 Tb313 2.415 . S
O326 C342 1.239 . S
O327 Tb313 2.399 . S
O327 C342 1.263 . S
O328 Tb313 2.325 . S
O328 C343 1.236 1_455 S
O329 Tb312 2.322 1_565 S
O329 C343 1.257 . S
O330 Tb312 2.349 . S
O330 C314 1.261 . S
O331 Tb313 2.303 1_655 S
O331 C314 1.257 1_565 S
C332 O322 1.236 . S
C332 O323 1.257 . S
O333 Tb312 2.415 1_455 S
O333 C321 1.239 1_455 S
O334 Tb312 2.399 . S
O334 C321 1.263 . S
C335 O324 1.261 . S
C335 O325 1.257 1_565 S
C336 C339 1.358 . S
C336 C340 1.332 . S
C336 C342 1.504 . S
C337 C338 1.373 . S
C337 C341 1.308 . S
C338 C337 1.373 . S
C338 C339 1.429 . S
C338 H348 0.932 . S
C339 C336 1.358 . S
C339 C338 1.429 . S
C339 H349 0.930 . S
C340 C336 1.332 . S
C340 C341 1.394 . S
C340 H350 0.932 1_455 S
C341 C337 1.308 . S
C341 C340 1.394 . S
C341 H351 0.960 . S
C342 Tb313 2.764 . S
C342 O326 1.239 . S
C342 O327 1.263 . S
C342 C336 1.504 . S
C343 O328 1.236 1_655 S
C343 O329 1.257 . S
H344 C317 0.932 . S
H345 C318 0.930 . S
H346 C319 0.932 . S
H347 C320 0.929 . S
H348 C338 0.932 . S
H349 C339 0.930 . S
H350 C340 0.932 1_655 S
H351 C341 0.960 . S
Tb352 C361 2.764 . S
Tb352 O362 2.325 . S
Tb352 O365 2.303 1_565 S
Tb352 O369 2.322 . S
Tb352 O370 2.349 . S
Tb352 O373 2.415 1_565 S
Tb352 O374 2.399 . S
Tb353 O363 2.322 . S
Tb353 O364 2.349 . S
Tb353 O366 2.415 1_545 S
Tb353 O367 2.399 . S
Tb353 O368 2.325 . S
Tb353 O371 2.303 1_545 S
Tb353 C382 2.764 . S
C354 O370 1.261 . S
C354 O371 1.257 . S
C355 C358 1.358 . S
C355 C359 1.336 1_565 S
C355 C361 1.504 . S
C356 C357 1.373 . S
C356 C360 1.308 . S
C357 C356 1.373 . S
C357 C358 1.429 . S
C357 H384 0.932 . S
C358 C355 1.358 . S
C358 C357 1.429 . S
C358 H385 0.930 . S
C359 C355 1.336 1_545 S
C359 C360 1.394 1_545 S
C359 H386 0.928 . S
C360 C356 1.308 . S
C360 C359 1.394 1_565 S
C360 H387 0.929 1_565 S
C361 Tb352 2.764 . S
C361 C355 1.504 . S
C361 O373 1.239 1_565 S
C361 O374 1.263 . S
O362 Tb352 2.325 . S
O362 C372 1.236 1_565 S
O363 Tb353 2.322 . S
O363 C372 1.257 . S
O364 Tb353 2.349 . S
O364 C375 1.261 . S
O365 Tb352 2.303 1_545 S
O365 C375 1.257 . S
O366 Tb353 2.415 1_565 S
O366 C382 1.239 1_565 S
O367 Tb353 2.399 . S
O367 C382 1.263 . S
O368 Tb353 2.325 . S
O368 C383 1.236 1_545 S
O369 Tb352 2.322 . S
O369 C383 1.257 . S
O370 Tb352 2.349 . S
O370 C354 1.261 . S
O371 Tb353 2.303 1_565 S
O371 C354 1.257 . S
C372 O362 1.236 1_545 S
C372 O363 1.257 . S
O373 Tb352 2.415 1_545 S
O373 C361 1.239 1_545 S
O374 Tb352 2.399 . S
O374 C361 1.263 . S
C375 O364 1.261 . S
C375 O365 1.257 . S
C376 C379 1.358 . S
C376 C380 1.336 . S
C376 C382 1.504 . S
C377 C378 1.373 . S
C377 C381 1.308 1_554 S
C378 C377 1.373 . S
C378 C379 1.429 1_554 S
C378 H388 0.932 . S
C379 C376 1.358 . S
C379 C378 1.429 1_556 S
C379 H389 0.930 . S
C380 C376 1.336 . S
C380 C381 1.394 . S
C380 H390 0.928 1_545 S
C381 C377 1.308 1_556 S
C381 C380 1.394 . S
C381 H391 0.929 1_545 S
C382 Tb353 2.764 . S
C382 O366 1.239 1_545 S
C382 O367 1.263 . S
C382 C376 1.504 . S
C383 O368 1.236 1_565 S
C383 O369 1.257 . S
H384 C357 0.932 . S
H385 C358 0.930 . S
H386 C359 0.928 . S
H387 C360 0.929 1_545 S
H388 C378 0.932 . S
H389 C379 0.930 . S
H390 C380 0.928 1_565 S
H391 C381 0.929 1_565 S
Tb392 C401 2.764 . S
Tb392 O402 2.325 . S
Tb392 O405 2.303 . S
Tb392 O409 2.322 . S
Tb392 O410 2.349 . S
Tb392 O413 2.415 . S
Tb392 O414 2.399 . S
Tb393 O403 2.322 . S
Tb393 O404 2.349 . S
Tb393 O406 2.415 . S
Tb393 O407 2.399 . S
Tb393 O408 2.325 . S
Tb393 O411 2.303 . S
Tb393 C422 2.764 . S
C394 O410 1.261 . S
C394 O411 1.257 . S
C395 C398 1.358 . S
C395 C399 1.332 . S
C395 C401 1.504 . S
C396 C397 1.373 . S
C396 C400 1.308 . S
C397 C396 1.373 . S
C397 C398 1.429 1_554 S
C397 H424 0.932 . S
C398 C395 1.358 . S
C398 C397 1.429 1_556 S
C398 H425 0.930 . S
C399 C395 1.332 . S
C399 C400 1.394 1_556 S
C399 H426 0.932 . S
C400 C396 1.308 . S
C400 C399 1.394 1_554 S
C400 H427 0.929 . S
C401 Tb392 2.764 . S
C401 C395 1.504 . S
C401 O413 1.239 . S
C401 O414 1.263 . S
O402 Tb392 2.325 . S
O402 C412 1.236 . S
O403 Tb393 2.322 . S
O403 C412 1.257 . S
O404 Tb393 2.349 . S
O404 C415 1.261 . S
O405 Tb392 2.303 . S
O405 C415 1.257 . S
O406 Tb393 2.415 . S
O406 C422 1.239 . S
O407 Tb393 2.399 . S
O407 C422 1.263 . S
O408 Tb393 2.325 . S
O408 C423 1.236 . S
O409 Tb392 2.322 . S
O409 C423 1.257 . S
O410 Tb392 2.349 . S
O410 C394 1.261 . S
O411 Tb393 2.303 . S
O411 C394 1.257 . S
C412 O402 1.236 . S
C412 O403 1.257 . S
O413 Tb392 2.415 . S
O413 C401 1.239 . S
O414 Tb392 2.399 . S
O414 C401 1.263 . S
C415 O404 1.261 . S
C415 O405 1.257 . S
C416 C419 1.358 . S
C416 C420 1.332 . S
C416 C422 1.504 . S
C417 C418 1.373 . S
C417 C421 1.308 . S
C418 C417 1.373 . S
C418 C419 1.429 . S
C418 H428 0.932 . S
C419 C416 1.358 . S
C419 C418 1.429 . S
C419 H429 0.930 . S
C420 C416 1.332 . S
C420 C421 1.394 . S
C420 H430 0.932 . S
C421 C417 1.308 . S
C421 C420 1.394 . S
C421 H431 0.929 . S
C422 Tb393 2.764 . S
C422 O406 1.239 . S
C422 O407 1.263 . S
C422 C416 1.504 . S
C423 O408 1.236 . S
C423 O409 1.257 . S
H424 C397 0.932 . S
H425 C398 0.930 . S
H426 C399 0.932 . S
H427 C400 0.929 . S
H428 C418 0.932 . S
H429 C419 0.930 . S
H430 C420 0.932 . S
H431 C421 0.929 . S
Tb432 C441 2.764 . S
Tb432 O442 2.325 . S
Tb432 O445 2.303 . S
Tb432 O449 2.322 1_455 S
Tb432 O450 2.349 . S
Tb432 O453 2.415 . S
Tb432 O454 2.399 . S
Tb433 O443 2.322 1_655 S
Tb433 O444 2.349 1_655 S
Tb433 O446 2.415 . S
Tb433 O447 2.399 . S
Tb433 O448 2.325 . S
Tb433 O451 2.303 1_655 S
Tb433 C462 2.764 . S
C434 O450 1.261 . S
C434 O451 1.257 . S
C435 C438 1.358 . S
C435 C439 1.332 . S
C435 C441 1.504 . S
C436 C437 1.373 . S
C436 C440 1.308 . S
C437 C436 1.373 . S
C437 C438 1.429 . S
C437 H464 0.932 . S
C438 C435 1.358 . S
C438 C437 1.429 . S
C438 H465 0.930 . S
C439 C435 1.332 . S
C439 C440 1.394 . S
C439 H466 0.932 . S
C440 C436 1.308 . S
C440 C439 1.394 . S
C440 H467 0.929 . S
C441 Tb432 2.764 . S
C441 C435 1.504 . S
C441 O453 1.239 . S
C441 O454 1.263 . S
O442 Tb432 2.325 . S
O442 C452 1.236 . S
O443 Tb433 2.322 1_455 S
O443 C452 1.257 . S
O444 Tb433 2.349 1_455 S
O444 C455 1.261 . S
O445 Tb432 2.303 . S
O445 C455 1.257 . S
O446 Tb433 2.415 . S
O446 C462 1.239 . S
O447 Tb433 2.399 . S
O447 C462 1.263 . S
O448 Tb433 2.325 . S
O448 C463 1.236 . S
O449 Tb432 2.322 1_655 S
O449 C463 1.257 . S
O450 Tb432 2.349 . S
O450 C434 1.261 . S
O451 Tb433 2.303 1_455 S
O451 C434 1.257 . S
C452 O442 1.236 . S
C452 O443 1.257 . S
O453 Tb432 2.415 . S
O453 C441 1.239 . S
O454 Tb432 2.399 . S
O454 C441 1.263 . S
C455 O444 1.261 . S
C455 O445 1.257 . S
C456 C459 1.358 . S
C456 C460 1.332 . S
C456 C462 1.504 . S
C457 C458 1.373 . S
C457 C461 1.308 . S
C458 C457 1.373 . S
C458 C459 1.429 . S
C458 H468 0.932 . S
C459 C456 1.358 . S
C459 C458 1.429 . S
C459 H469 0.930 . S
C460 C456 1.332 . S
C460 C461 1.394 . S
C460 H470 0.932 . S
C461 C457 1.308 . S
C461 C460 1.394 . S
C461 H471 0.929 . S
C462 Tb433 2.764 . S
C462 O446 1.239 . S
C462 O447 1.263 . S
C462 C456 1.504 . S
C463 O448 1.236 . S
C463 O449 1.257 . S
H464 C437 0.932 . S
H465 C438 0.930 . S
H466 C439 0.932 . S
H467 C440 0.929 . S
H468 C458 0.932 . S
H469 C459 0.930 . S
H470 C460 0.932 . S
H471 C461 0.929 . S
H472 C480 0.950 . S
H473 C485 0.950 . S
H474 C482 0.950 . S
H475 C484 0.950 . S
H476 C486 0.950 . S
H477 C488 0.950 . S
H478 C490 0.950 . S
H479 C491 0.950 . S
C480 H472 0.950 . S
C480 C481 1.397 . S
C480 C482 1.391 . S
C481 C480 1.397 . S
C481 C485 1.380 1_545 S
C482 H474 0.950 . S
C482 C480 1.391 . S
C482 C483 1.410 . S
C483 C482 1.410 . S
C483 C484 1.390 1_545 S
C483 C489 1.488 . S
C484 H475 0.950 . S
C484 C483 1.390 1_565 S
C484 C485 1.391 . S
C485 H473 0.950 . S
C485 C481 1.380 1_565 S
C485 C484 1.391 . S
C486 H476 0.950 . S
C486 C487 1.382 . S
C486 C488 1.391 . S
C487 C486 1.382 . S
C487 C491 1.397 1_565 S
C488 H477 0.950 . S
C488 C486 1.391 . S
C488 C489 1.403 1_565 S
C489 C483 1.488 . S
C489 C488 1.403 1_545 S
C489 C490 1.396 . S
C490 H478 0.950 . S
C490 C489 1.396 . S
C490 C491 1.391 . S
C491 H479 0.950 . S
C491 C487 1.397 1_545 S
C491 C490 1.391 . S
H492 C500 0.950 . S
H493 C505 0.950 . S
H494 C502 0.950 . S
H495 C504 0.950 . S
H496 C506 0.950 . S
H497 C508 0.950 . S
H498 C510 0.950 . S
H499 C511 0.950 . S
C500 H492 0.950 . S
C500 C501 1.386 . S
C500 C502 1.391 . S
C501 C500 1.386 . S
C501 C505 1.393 . S
C502 H494 0.950 . S
C502 C500 1.391 . S
C502 C503 1.400 . S
C503 C502 1.400 . S
C503 C504 1.398 . S
C503 C509 1.491 . S
C504 H495 0.950 . S
C504 C503 1.398 . S
C504 C505 1.391 . S
C505 H493 0.950 . S
C505 C501 1.393 . S
C505 C504 1.391 . S
C506 H496 0.950 . S
C506 C507 1.386 . S
C506 C508 1.391 . S
C507 C506 1.386 . S
C507 C511 1.393 . S
C508 H497 0.950 . S
C508 C506 1.391 . S
C508 C509 1.400 . S
C509 C503 1.491 . S
C509 C508 1.400 . S
C509 C510 1.398 . S
C510 H498 0.950 . S
C510 C509 1.398 . S
C510 C511 1.391 . S
C511 H499 0.950 . S
C511 C507 1.393 . S
C511 C510 1.391 . S
H512 C520 0.950 . S
H513 C525 0.950 . S
H514 C522 0.950 . S
H515 C524 0.950 . S
H516 C526 0.950 . S
H517 C528 0.950 . S
H518 C530 0.950 . S
H519 C531 0.950 . S
C520 H512 0.950 . S
C520 C521 1.386 . S
C520 C522 1.391 . S
C521 C520 1.386 . S
C521 C525 1.393 . S
C522 H514 0.950 . S
C522 C520 1.391 . S
C522 C523 1.400 . S
C523 C522 1.400 . S
C523 C524 1.398 . S
C523 C529 1.491 . S
C524 H515 0.950 . S
C524 C523 1.398 . S
C524 C525 1.391 . S
C525 H513 0.950 . S
C525 C521 1.393 . S
C525 C524 1.391 . S
C526 H516 0.950 . S
C526 C527 1.386 . S
C526 C528 1.391 . S
C527 C526 1.386 . S
C527 C531 1.393 . S
C528 H517 0.950 . S
C528 C526 1.391 . S
C528 C529 1.400 . S
C529 C523 1.491 . S
C529 C528 1.400 . S
C529 C530 1.398 . S
C530 H518 0.950 . S
C530 C529 1.398 . S
C530 C531 1.391 . S
C531 H519 0.950 . S
C531 C527 1.393 . S
C531 C530 1.391 . S
H532 C540 0.950 . S
H533 C545 0.950 . S
H534 C542 0.950 . S
H535 C544 0.950 . S
H536 C546 0.950 . S
H537 C548 0.950 . S
H538 C550 0.950 . S
H539 C551 0.950 . S
C540 H532 0.950 . S
C540 C541 1.386 . S
C540 C542 1.391 . S
C541 C540 1.386 . S
C541 C545 1.393 . S
C542 H534 0.950 . S
C542 C540 1.391 . S
C542 C543 1.400 . S
C543 C542 1.400 . S
C543 C544 1.398 . S
C543 C549 1.491 . S
C544 H535 0.950 . S
C544 C543 1.398 . S
C544 C545 1.391 . S
C545 H533 0.950 . S
C545 C541 1.393 . S
C545 C544 1.391 . S
C546 H536 0.950 . S
C546 C547 1.386 . S
C546 C548 1.391 . S
C547 C546 1.386 . S
C547 C551 1.393 . S
C548 H537 0.950 . S
C548 C546 1.391 . S
C548 C549 1.400 . S
C549 C543 1.491 . S
C549 C548 1.400 . S
C549 C550 1.398 . S
C550 H538 0.950 . S
C550 C549 1.398 . S
C550 C551 1.391 . S
C551 H539 0.950 . S
C551 C547 1.393 . S
C551 C550 1.391 . S
H552 C560 0.950 . S
H553 C565 0.950 . S
H554 C562 0.950 . S
H555 C564 0.950 . S
H556 C566 0.950 . S
H557 C568 0.950 1_554 S
H558 C570 0.950 . S
H559 C571 0.950 . S
C560 H552 0.950 . S
C560 C561 1.394 . S
C560 C562 1.391 . S
C561 C560 1.394 . S
C561 C565 1.381 1_565 S
C562 H554 0.950 . S
C562 C560 1.391 . S
C562 C563 1.406 . S
C563 C562 1.406 . S
C563 C564 1.395 1_565 S
C563 C569 1.485 1_565 S
C564 H555 0.950 . S
C564 C563 1.395 1_545 S
C564 C565 1.391 . S
C565 H553 0.950 . S
C565 C561 1.381 1_545 S
C565 C564 1.391 . S
C566 H556 0.950 . S
C566 C567 1.395 . S
C566 C568 1.391 . S
C567 C566 1.395 . S
C567 C571 1.379 1_545 S
C568 H557 0.950 1_556 S
C568 C566 1.391 . S
C568 C569 1.408 1_556 S
C569 C563 1.485 1_545 S
C569 C568 1.408 1_554 S
C569 C570 1.395 1_545 S
C570 H558 0.950 . S
C570 C569 1.395 1_565 S
C570 C571 1.391 1_554 S
C571 H559 0.950 . S
C571 C567 1.379 1_565 S
C571 C570 1.391 1_556 S
H572 C580 0.950 . S
H573 C585 0.950 . S
H574 C582 0.950 . S
H575 C584 0.950 . S
H576 C586 0.950 . S
H577 C588 0.950 . S
H578 C590 0.950 . S
H579 C591 0.950 . S
C580 H572 0.950 . S
C580 C581 1.386 . S
C580 C582 1.391 . S
C581 C580 1.386 . S
C581 C585 1.393 . S
C582 H574 0.950 . S
C582 C580 1.391 . S
C582 C583 1.400 . S
C583 C582 1.400 . S
C583 C584 1.398 . S
C583 C589 1.491 . S
C584 H575 0.950 . S
C584 C583 1.398 . S
C584 C585 1.391 . S
C585 H573 0.950 . S
C585 C581 1.393 . S
C585 C584 1.391 . S
C586 H576 0.950 . S
C586 C587 1.386 . S
C586 C588 1.391 . S
C587 C586 1.386 . S
C587 C591 1.393 . S
C588 H577 0.950 . S
C588 C586 1.391 . S
C588 C589 1.400 . S
C589 C583 1.491 . S
C589 C588 1.400 . S
C589 C590 1.398 . S
C590 H578 0.950 . S
C590 C589 1.398 . S
C590 C591 1.391 . S
C591 H579 0.950 . S
C591 C587 1.393 . S
C591 C590 1.391 . S
H592 C600 0.950 . S
H593 C605 0.950 . S
H594 C602 0.950 . S
H595 C604 0.950 . S
H596 C606 0.950 . S
H597 C608 0.950 . S
H598 C610 0.950 . S
H599 C611 0.950 . S
C600 H592 0.950 . S
C600 C601 1.386 . S
C600 C602 1.391 . S
C601 C600 1.386 . S
C601 C605 1.393 . S
C602 H594 0.950 . S
C602 C600 1.391 . S
C602 C603 1.400 . S
C603 C602 1.400 . S
C603 C604 1.398 . S
C603 C609 1.491 . S
C604 H595 0.950 . S
C604 C603 1.398 . S
C604 C605 1.391 . S
C605 H593 0.950 . S
C605 C601 1.393 . S
C605 C604 1.391 . S
C606 H596 0.950 . S
C606 C607 1.386 . S
C606 C608 1.391 1_556 S
C607 C606 1.386 . S
C607 C611 1.393 . S
C608 H597 0.950 . S
C608 C606 1.391 1_554 S
C608 C609 1.400 . S
C609 C603 1.491 . S
C609 C608 1.400 . S
C609 C610 1.398 . S
C610 H598 0.950 . S
C610 C609 1.398 . S
C610 C611 1.391 1_554 S
C611 H599 0.950 . S
C611 C607 1.393 . S
C611 C610 1.391 1_556 S
H612 C620 0.950 . S
H613 C625 0.950 . S
H614 C622 0.950 . S
H615 C624 0.950 . S
H616 C626 0.950 . S
H617 C628 0.950 1_554 S
H618 C630 0.950 1_554 S
H619 C631 0.950 . S
C620 H612 0.950 . S
C620 C621 1.386 . S
C620 C622 1.391 . S
C621 C620 1.386 . S
C621 C625 1.393 1_655 S
C622 H614 0.950 . S
C622 C620 1.391 . S
C622 C623 1.400 . S
C623 C622 1.400 . S
C623 C624 1.398 1_655 S
C623 C629 1.491 . S
C624 H615 0.950 . S
C624 C623 1.398 1_455 S
C624 C625 1.391 . S
C625 H613 0.950 . S
C625 C621 1.393 1_455 S
C625 C624 1.391 . S
C626 H616 0.950 . S
C626 C627 1.420 . S
C626 C628 1.391 . S
C627 C626 1.420 . S
C627 C631 1.351 1_455 S
C628 H617 0.950 1_556 S
C628 C626 1.391 . S
C628 C629 1.400 1_456 S
C629 C623 1.491 . S
C629 C628 1.400 1_654 S
C629 C630 1.398 1_554 S
C630 H618 0.950 1_556 S
C630 C629 1.398 1_556 S
C630 C631 1.391 . S
C631 H619 0.950 . S
C631 C627 1.351 1_655 S
C631 C630 1.391 . S
H632 C640 0.950 . S
H633 C645 0.950 . S
H634 C642 0.950 . S
H635 C644 0.950 1_655 S
H636 C646 0.950 . S
H637 C648 0.950 . S
H638 C650 0.950 . S
H639 C651 0.950 . S
C640 H632 0.950 . S
C640 C641 1.386 . S
C640 C642 1.391 . S
C641 C640 1.386 . S
C641 C645 1.393 . S
C642 H634 0.950 . S
C642 C640 1.391 . S
C642 C643 1.400 . S
C643 C642 1.400 . S
C643 C644 1.398 . S
C643 C649 1.491 . S
C644 H635 0.950 1_455 S
C644 C643 1.398 . S
C644 C645 1.391 . S
C645 H633 0.950 . S
C645 C641 1.393 . S
C645 C644 1.391 . S
C646 H636 0.950 . S
C646 C647 1.386 . S
C646 C648 1.391 . S
C647 C646 1.386 . S
C647 C651 1.393 1_655 S
C648 H637 0.950 . S
C648 C646 1.391 . S
C648 C649 1.400 1_655 S
C649 C643 1.491 . S
C649 C648 1.400 1_455 S
C649 C650 1.398 . S
C650 H638 0.950 . S
C650 C649 1.398 . S
C650 C651 1.391 . S
C651 H639 0.950 . S
C651 C647 1.393 1_455 S
C651 C650 1.391 . S
H652 C660 0.950 . S
H653 C665 0.950 . S
H654 C662 0.950 . S
H655 C664 0.950 . S
H656 C666 0.950 1_545 S
H657 C668 0.950 . S
H658 C670 0.950 . S
H659 C671 0.950 . S
C660 H652 0.950 . S
C660 C661 1.386 1_565 S
C660 C662 1.391 . S
C661 C660 1.386 1_545 S
C661 C665 1.393 . S
C662 H654 0.950 . S
C662 C660 1.391 . S
C662 C663 1.400 . S
C663 C662 1.400 . S
C663 C664 1.398 1_565 S
C663 C669 1.491 . S
C664 H655 0.950 . S
C664 C663 1.398 1_545 S
C664 C665 1.391 . S
C665 H653 0.950 . S
C665 C661 1.393 . S
C665 C664 1.391 . S
C666 H656 0.950 1_565 S
C666 C667 1.386 . S
C666 C668 1.391 1_565 S
C667 C666 1.386 . S
C667 C671 1.393 . S
C668 H657 0.950 . S
C668 C666 1.391 1_545 S
C668 C669 1.400 1_545 S
C669 C663 1.491 . S
C669 C668 1.400 1_565 S
C669 C670 1.398 . S
C670 H658 0.950 . S
C670 C669 1.398 . S
C670 C671 1.391 . S
C671 H659 0.950 . S
C671 C667 1.393 . S
C671 C670 1.391 . S
H672 C680 0.950 . S
H673 C685 0.950 . S
H674 C682 0.950 . S
H675 C684 0.950 . S
H676 C686 0.950 . S
H677 C688 0.950 . S
H678 C690 0.950 . S
H679 C691 0.950 . S
C680 H672 0.950 . S
C680 C681 1.386 . S
C680 C682 1.391 . S
C681 C680 1.386 . S
C681 C685 1.393 . S
C682 H674 0.950 . S
C682 C680 1.391 . S
C682 C683 1.400 . S
C683 C682 1.400 . S
C683 C684 1.398 . S
C683 C689 1.491 . S
C684 H675 0.950 . S
C684 C683 1.398 . S
C684 C685 1.391 . S
C685 H673 0.950 . S
C685 C681 1.393 . S
C685 C684 1.391 . S
C686 H676 0.950 . S
C686 C687 1.386 . S
C686 C688 1.391 . S
C687 C686 1.386 . S
C687 C691 1.393 . S
C688 H677 0.950 . S
C688 C686 1.391 . S
C688 C689 1.400 . S
C689 C683 1.491 . S
C689 C688 1.400 . S
C689 C690 1.398 . S
C690 H678 0.950 . S
C690 C689 1.398 . S
C690 C691 1.391 . S
C691 H679 0.950 . S
C691 C687 1.393 . S
C691 C690 1.391 . S
H692 C700 0.950 . S
H693 C705 0.950 . S
H694 C702 0.950 . S
H695 C704 0.950 . S
H696 C706 0.950 . S
H697 C708 0.950 . S
H698 C710 0.950 . S
H699 C711 0.950 . S
C700 H692 0.950 . S
C700 C701 1.386 . S
C700 C702 1.391 . S
C701 C700 1.386 . S
C701 C705 1.393 . S
C702 H694 0.950 . S
C702 C700 1.391 . S
C702 C703 1.400 . S
C703 C702 1.400 . S
C703 C704 1.398 . S
C703 C709 1.491 . S
C704 H695 0.950 . S
C704 C703 1.398 . S
C704 C705 1.391 . S
C705 H693 0.950 . S
C705 C701 1.393 . S
C705 C704 1.391 . S
C706 H696 0.950 . S
C706 C707 1.386 . S
C706 C708 1.391 . S
C707 C706 1.386 . S
C707 C711 1.393 . S
C708 H697 0.950 . S
C708 C706 1.391 . S
C708 C709 1.400 . S
C709 C703 1.491 . S
C709 C708 1.400 . S
C709 C710 1.398 . S
C710 H698 0.950 . S
C710 C709 1.398 . S
C710 C711 1.391 . S
C711 H699 0.950 . S
C711 C707 1.393 . S
C711 C710 1.391 . S
H712 C720 0.950 . S
H713 C725 0.950 . S
H714 C722 0.955 1_556 S
H715 C724 0.950 . S
H716 C726 0.950 . S
H717 C728 0.950 . S
H718 C730 0.950 . S
H719 C731 0.950 . S
C720 H712 0.950 . S
C720 C721 1.386 . S
C720 C722 1.386 1_655 S
C721 C720 1.386 . S
C721 C725 1.393 . S
C722 H714 0.955 1_554 S
C722 C720 1.386 1_455 S
C722 C723 1.401 . S
C723 C722 1.401 . S
C723 C724 1.398 1_455 S
C723 C729 1.491 . S
C724 H715 0.950 . S
C724 C723 1.398 1_655 S
C724 C725 1.391 . S
C725 H713 0.950 . S
C725 C721 1.393 . S
C725 C724 1.391 . S
C726 H716 0.950 . S
C726 C727 1.386 1_554 S
C726 C728 1.391 . S
C727 C726 1.386 1_556 S
C727 C731 1.393 . S
C728 H717 0.950 . S
C728 C726 1.391 . S
C728 C729 1.400 . S
C729 C723 1.491 . S
C729 C728 1.400 . S
C729 C730 1.398 1_554 S
C730 H718 0.950 . S
C730 C729 1.398 1_556 S
C730 C731 1.391 . S
C731 H719 0.950 . S
C731 C727 1.393 . S
C731 C730 1.391 . S
H732 C740 0.950 . S
H733 C745 0.950 . S
H734 C742 0.955 . S
H735 C744 0.950 . S
H736 C746 0.950 . S
H737 C748 0.950 . S
H738 C750 0.950 . S
H739 C751 0.950 . S
C740 H732 0.950 . S
C740 C741 1.386 . S
C740 C742 1.398 . S
C741 C740 1.386 . S
C741 C745 1.393 1_565 S
C742 H734 0.955 . S
C742 C740 1.398 . S
C742 C743 1.389 1_565 S
C743 C742 1.389 1_545 S
C743 C744 1.398 . S
C743 C749 1.491 . S
C744 H735 0.950 . S
C744 C743 1.398 . S
C744 C745 1.391 . S
C745 H733 0.950 . S
C745 C741 1.393 1_545 S
C745 C744 1.391 . S
C746 H736 0.950 . S
C746 C747 1.386 1_556 S
C746 C748 1.391 1_556 S
C747 C746 1.386 1_554 S
C747 C751 1.393 . S
C748 H737 0.950 . S
C748 C746 1.391 1_554 S
C748 C749 1.400 . S
C749 C743 1.491 . S
C749 C748 1.400 . S
C749 C750 1.398 . S
C750 H738 0.950 . S
C750 C749 1.398 . S
C750 C751 1.391 . S
C751 H739 0.950 . S
C751 C747 1.393 . S
C751 C750 1.391 . S
H752 C760 0.950 . S
H753 C765 0.950 . S
H754 C762 0.950 . S
H755 C764 0.950 . S
H756 C766 0.950 . S
H757 C768 0.950 . S
H758 C770 0.950 . S
H759 C771 0.950 . S
C760 H752 0.950 . S
C760 C761 1.386 . S
C760 C762 1.391 . S
C761 C760 1.386 . S
C761 C765 1.393 . S
C762 H754 0.950 . S
C762 C760 1.391 . S
C762 C763 1.400 . S
C763 C762 1.400 . S
C763 C764 1.398 . S
C763 C769 1.491 . S
C764 H755 0.950 . S
C764 C763 1.398 . S
C764 C765 1.391 . S
C765 H753 0.950 . S
C765 C761 1.393 . S
C765 C764 1.391 . S
C766 H756 0.950 . S
C766 C767 1.386 . S
C766 C768 1.391 . S
C767 C766 1.386 . S
C767 C771 1.393 . S
C768 H757 0.950 . S
C768 C766 1.391 . S
C768 C769 1.400 . S
C769 C763 1.491 . S
C769 C768 1.400 . S
C769 C770 1.398 . S
C770 H758 0.950 . S
C770 C769 1.398 . S
C770 C771 1.391 . S
C771 H759 0.950 . S
C771 C767 1.393 . S
C771 C770 1.391 . S
H772 C780 0.950 . S
H773 C785 0.950 . S
H774 C782 0.950 . S
H775 C784 0.950 . S
H776 C786 0.950 . S
H777 C788 0.950 . S
H778 C790 0.950 . S
H779 C791 0.950 . S
C780 H772 0.950 . S
C780 C781 1.386 . S
C780 C782 1.391 . S
C781 C780 1.386 . S
C781 C785 1.393 . S
C782 H774 0.950 . S
C782 C780 1.391 . S
C782 C783 1.400 . S
C783 C782 1.400 . S
C783 C784 1.398 . S
C783 C789 1.491 . S
C784 H775 0.950 . S
C784 C783 1.398 . S
C784 C785 1.391 . S
C785 H773 0.950 . S
C785 C781 1.393 . S
C785 C784 1.391 . S
C786 H776 0.950 . S
C786 C787 1.386 1_554 S
C786 C788 1.391 . S
C787 C786 1.386 1_556 S
C787 C791 1.393 1_556 S
C788 H777 0.950 . S
C788 C786 1.391 . S
C788 C789 1.400 . S
C789 C783 1.491 . S
C789 C788 1.400 . S
C789 C790 1.398 . S
C790 H778 0.950 . S
C790 C789 1.398 . S
C790 C791 1.391 . S
C791 H779 0.950 . S
C791 C787 1.393 1_554 S
C791 C790 1.391 . S
H792 C800 0.950 . S
H793 C805 0.950 . S
H794 C802 0.950 . S
H795 C804 0.950 . S
H796 C806 0.950 . S
H797 C808 0.950 . S
H798 C810 0.978 . S
H799 C811 0.950 1_655 S
C800 H792 0.950 . S
C800 C801 1.386 . S
C800 C802 1.391 . S
C801 C800 1.386 . S
C801 C805 1.393 . S
C802 H794 0.950 . S
C802 C800 1.391 . S
C802 C803 1.400 . S
C803 C802 1.400 . S
C803 C804 1.398 . S
C803 C809 1.491 . S
C804 H795 0.950 . S
C804 C803 1.398 . S
C804 C805 1.391 . S
C805 H793 0.950 . S
C805 C801 1.393 . S
C805 C804 1.391 . S
C806 H796 0.950 . S
C806 C807 1.386 . S
C806 C808 1.391 . S
C807 C806 1.386 . S
C807 C811 1.393 . S
C808 H797 0.950 . S
C808 C806 1.391 . S
C808 C809 1.400 . S
C809 C803 1.491 . S
C809 C808 1.400 . S
C809 C810 1.398 . S
C810 H798 0.978 . S
C810 C809 1.398 . S
C810 C811 1.391 . S
C811 H799 0.950 1_455 S
C811 C807 1.393 . S
C811 C810 1.391 . S
H812 C820 0.950 . S
H813 C825 0.950 . S
H814 C822 0.950 . S
H815 C824 0.950 . S
H816 C826 0.950 . S
H817 C828 0.950 . S
H818 C830 0.950 . S
H819 C831 0.950 . S
C820 H812 0.950 . S
C820 C821 1.386 1_565 S
C820 C822 1.391 . S
C821 C820 1.386 1_545 S
C821 C825 1.393 . S
C822 H814 0.950 . S
C822 C820 1.391 . S
C822 C823 1.400 1_565 S
C823 C822 1.400 1_545 S
C823 C824 1.398 . S
C823 C829 1.491 . S
C824 H815 0.950 . S
C824 C823 1.398 . S
C824 C825 1.391 . S
C825 H813 0.950 . S
C825 C821 1.393 . S
C825 C824 1.391 . S
C826 H816 0.950 . S
C826 C827 1.386 . S
C826 C828 1.391 . S
C827 C826 1.386 . S
C827 C831 1.393 1_545 S
C828 H817 0.950 . S
C828 C826 1.391 . S
C828 C829 1.400 . S
C829 C823 1.491 . S
C829 C828 1.400 . S
C829 C830 1.398 1_545 S
C830 H818 0.950 . S
C830 C829 1.398 1_565 S
C830 C831 1.391 . S
C831 H819 0.950 . S
C831 C827 1.393 1_565 S
C831 C830 1.391 . S
H832 C840 0.950 . S
H833 C845 0.950 . S
H834 C842 0.950 . S
H835 C844 0.950 . S
H836 C846 0.950 . S
H837 C848 0.950 . S
H838 C850 0.950 . S
H839 C851 0.950 . S
C840 H832 0.950 . S
C840 C841 1.386 . S
C840 C842 1.391 . S
C841 C840 1.386 . S
C841 C845 1.393 . S
C842 H834 0.950 . S
C842 C840 1.391 . S
C842 C843 1.400 . S
C843 C842 1.400 . S
C843 C844 1.398 . S
C843 C849 1.491 . S
C844 H835 0.950 . S
C844 C843 1.398 . S
C844 C845 1.391 . S
C845 H833 0.950 . S
C845 C841 1.393 . S
C845 C844 1.391 . S
C846 H836 0.950 . S
C846 C847 1.386 . S
C846 C848 1.391 . S
C847 C846 1.386 . S
C847 C851 1.393 . S
C848 H837 0.950 . S
C848 C846 1.391 . S
C848 C849 1.400 . S
C849 C843 1.491 . S
C849 C848 1.400 . S
C849 C850 1.398 . S
C850 H838 0.950 . S
C850 C849 1.398 . S
C850 C851 1.391 . S
C851 H839 0.950 . S
C851 C847 1.393 . S
C851 C850 1.391 . S
H852 C860 0.950 . S
H853 C865 0.950 . S
H854 C862 0.950 . S
H855 C864 0.950 . S
H856 C866 0.950 . S
H857 C868 0.950 . S
H858 C870 0.950 . S
H859 C871 0.950 . S
C860 H852 0.950 . S
C860 C861 1.386 . S
C860 C862 1.391 . S
C861 C860 1.386 . S
C861 C865 1.393 . S
C862 H854 0.950 . S
C862 C860 1.391 . S
C862 C863 1.400 . S
C863 C862 1.400 . S
C863 C864 1.398 . S
C863 C869 1.491 . S
C864 H855 0.950 . S
C864 C863 1.398 . S
C864 C865 1.391 . S
C865 H853 0.950 . S
C865 C861 1.393 . S
C865 C864 1.391 . S
C866 H856 0.950 . S
C866 C867 1.386 . S
C866 C868 1.391 . S
C867 C866 1.386 . S
C867 C871 1.393 . S
C868 H857 0.950 . S
C868 C866 1.391 . S
C868 C869 1.400 . S
C869 C863 1.491 . S
C869 C868 1.400 . S
C869 C870 1.398 . S
C870 H858 0.950 . S
C870 C869 1.398 . S
C870 C871 1.391 . S
C871 H859 0.950 . S
C871 C867 1.393 . S
C871 C870 1.391 . S
H872 C880 0.950 1_455 S
H873 C885 0.950 . S
H874 C882 0.950 1_455 S
H875 C884 0.950 . S
H876 C886 0.950 . S
H877 C888 0.950 . S
H878 C890 0.950 . S
H879 C891 0.950 . S
C880 H872 0.950 1_655 S
C880 C881 1.386 . S
C880 C882 1.391 . S
C881 C880 1.386 . S
C881 C885 1.393 . S
C882 H874 0.950 1_655 S
C882 C880 1.391 . S
C882 C883 1.400 . S
C883 C882 1.400 . S
C883 C884 1.398 . S
C883 C889 1.491 . S
C884 H875 0.950 . S
C884 C883 1.398 . S
C884 C885 1.391 . S
C885 H873 0.950 . S
C885 C881 1.393 . S
C885 C884 1.391 . S
C886 H876 0.950 . S
C886 C887 1.386 . S
C886 C888 1.391 . S
C887 C886 1.386 . S
C887 C891 1.393 1_655 S
C888 H877 0.950 . S
C888 C886 1.391 . S
C888 C889 1.400 . S
C889 C883 1.491 . S
C889 C888 1.400 . S
C889 C890 1.398 1_655 S
C890 H878 0.950 . S
C890 C889 1.398 1_455 S
C890 C891 1.391 . S
C891 H879 0.950 . S
C891 C887 1.393 1_455 S
C891 C890 1.391 . S
H892 C900 0.950 . S
H893 C905 0.950 . S
H894 C902 0.950 . S
H895 C904 0.950 . S
H896 C906 0.950 . S
H897 C908 0.950 . S
H898 C910 0.950 . S
H899 C911 0.950 . S
C900 H892 0.950 . S
C900 C901 1.386 1_545 S
C900 C902 1.391 . S
C901 C900 1.386 1_565 S
C901 C905 1.393 . S
C902 H894 0.950 . S
C902 C900 1.391 . S
C902 C903 1.400 1_545 S
C903 C902 1.400 1_565 S
C903 C904 1.398 . S
C903 C909 1.491 . S
C904 H895 0.950 . S
C904 C903 1.398 . S
C904 C905 1.391 . S
C905 H893 0.950 . S
C905 C901 1.393 . S
C905 C904 1.391 . S
C906 H896 0.950 . S
C906 C907 1.386 . S
C906 C908 1.391 . S
C907 C906 1.386 . S
C907 C911 1.393 1_565 S
C908 H897 0.950 . S
C908 C906 1.391 . S
C908 C909 1.400 . S
C909 C903 1.491 . S
C909 C908 1.400 . S
C909 C910 1.398 1_565 S
C910 H898 0.950 . S
C910 C909 1.398 1_545 S
C910 C911 1.391 . S
C911 H899 0.950 . S
C911 C907 1.393 1_545 S
C911 C910 1.391 . S
H912 C920 0.950 . S
H913 C925 0.950 . S
H914 C922 0.950 . S
H915 C924 0.950 . S
H916 C926 0.950 . S
H917 C928 0.950 . S
H918 C930 0.950 . S
H919 C931 0.950 . S
C920 H912 0.950 . S
C920 C921 1.386 . S
C920 C922 1.391 . S
C921 C920 1.386 . S
C921 C925 1.393 . S
C922 H914 0.950 . S
C922 C920 1.391 . S
C922 C923 1.400 . S
C923 C922 1.400 . S
C923 C924 1.398 . S
C923 C929 1.491 . S
C924 H915 0.950 . S
C924 C923 1.398 . S
C924 C925 1.391 . S
C925 H913 0.950 . S
C925 C921 1.393 . S
C925 C924 1.391 . S
C926 H916 0.950 . S
C926 C927 1.386 . S
C926 C928 1.391 . S
C927 C926 1.386 . S
C927 C931 1.393 . S
C928 H917 0.950 . S
C928 C926 1.391 . S
C928 C929 1.400 . S
C929 C923 1.491 . S
C929 C928 1.400 . S
C929 C930 1.398 . S
C930 H918 0.950 . S
C930 C929 1.398 . S
C930 C931 1.391 . S
C931 H919 0.950 . S
C931 C927 1.393 . S
C931 C930 1.391 . S
H932 C940 0.950 . S
H933 C945 0.950 . S
H934 C942 0.950 . S
H935 C944 0.950 . S
H936 C946 0.950 . S
H937 C948 0.950 . S
H938 C950 0.950 . S
H939 C951 0.950 . S
C940 H932 0.950 . S
C940 C941 1.386 . S
C940 C942 1.391 . S
C941 C940 1.386 . S
C941 C945 1.393 . S
C942 H934 0.950 . S
C942 C940 1.391 . S
C942 C943 1.400 . S
C943 C942 1.400 . S
C943 C944 1.398 . S
C943 C949 1.491 . S
C944 H935 0.950 . S
C944 C943 1.398 . S
C944 C945 1.391 . S
C945 H933 0.950 . S
C945 C941 1.393 . S
C945 C944 1.391 . S
C946 H936 0.950 . S
C946 C947 1.386 . S
C946 C948 1.391 . S
C947 C946 1.386 . S
C947 C951 1.393 . S
C948 H937 0.950 . S
C948 C946 1.391 . S
C948 C949 1.400 . S
C949 C943 1.491 . S
C949 C948 1.400 . S
C949 C950 1.398 . S
C950 H938 0.950 . S
C950 C949 1.398 . S
C950 C951 1.391 . S
C951 H939 0.950 . S
C951 C947 1.393 . S
C951 C950 1.391 . S
C481 C255 2.199 1_545 S
C487 C335 2.351 . S
C507 C375 1.620 . S
C501 C294 1.596 . S
C527 C394 2.413 . S
C521 C177 2.249 . S
C547 C455 1.801 . S
C541 C216 1.658 . S
C567 C314 2.351 . S
C561 C99 2.179 . S
C581 C138 1.592 . S
C587 C354 1.627 . S
C601 C21 2.245 . S
C607 C415 2.415 . S
C621 C60 1.657 . S
C627 C434 1.806 . S
C647 C316 0.714 . S
C641 C196 0.721 . S
C667 C356 0.329 . S
C661 C235 0.263 1_545 S
C687 C412 0.969 . S
C681 C289 0.900 . S
C701 C157 0.284 . S
C707 C436 0.358 . S
C721 C40 0.746 . S
C727 C337 0.762 . S
C747 C377 0.276 . S
C741 C79 0.235 . S
C767 C423 0.971 . S
C761 C133 0.913 . S
C781 C1 0.276 . S
C787 C457 0.372 . S
C801 C211 2.256 . S
C807 C332 2.534 . S
C821 C250 2.822 . S
C827 C372 3.150 . S
C847 C396 1.946 . S
C841 C274 1.894 . S
C867 C452 3.145 . S
C861 C172 2.820 . S
C881 C55 2.232 . S
C887 C343 2.537 . S
C907 C383 3.148 . S
C901 C94 2.809 1_565 S
C927 C417 1.938 . S
C921 C118 1.868 . S
C941 C16 2.810 . S
C947 C463 3.136 . S
