# Generated by pormake.
# Topology tbo, (3,4)-cn, num edge types: 1
# Building blocks:
#     Node 0, Type 0, BuildingBlock: WUSLED_clean_sbu_0, # of connection points: 3
#     Node 1, Type 0, BuildingBlock: WUSLED_clean_sbu_0, # of connection points: 3
#     Node 2, Type 0, BuildingBlock: WUSLED_clean_sbu_0, # of connection points: 3
#     Node 3, Type 0, BuildingBlock: WUSLED_clean_sbu_0, # of connection points: 3
#     Node 4, Type 0, BuildingBlock: WUSLED_clean_sbu_0, # of connection points: 3
#     Node 5, Type 0, BuildingBlock: WUSLED_clean_sbu_0, # of connection points: 3
#     Node 6, Type 0, BuildingBlock: WUSLED_clean_sbu_0, # of connection points: 3
#     Node 7, Type 0, BuildingBlock: WUSLED_clean_sbu_0, # of connection points: 3
#     Node 8, Type 0, BuildingBlock: WUSLED_clean_sbu_0, # of connection points: 3
#     Node 9, Type 0, BuildingBlock: WUSLED_clean_sbu_0, # of connection points: 3
#     Node 10, Type 0, BuildingBlock: WUSLED_clean_sbu_0, # of connection points: 3
#     Node 11, Type 0, BuildingBlock: WUSLED_clean_sbu_0, # of connection points: 3
#     Node 12, Type 0, BuildingBlock: WUSLED_clean_sbu_0, # of connection points: 3
#     Node 13, Type 0, BuildingBlock: WUSLED_clean_sbu_0, # of connection points: 3
#     Node 14, Type 0, BuildingBlock: WUSLED_clean_sbu_0, # of connection points: 3
#     Node 15, Type 0, BuildingBlock: WUSLED_clean_sbu_0, # of connection points: 3
#     Node 16, Type 0, BuildingBlock: WUSLED_clean_sbu_0, # of connection points: 3
#     Node 17, Type 0, BuildingBlock: WUSLED_clean_sbu_0, # of connection points: 3
#     Node 18, Type 0, BuildingBlock: WUSLED_clean_sbu_0, # of connection points: 3
#     Node 19, Type 0, BuildingBlock: WUSLED_clean_sbu_0, # of connection points: 3
#     Node 20, Type 0, BuildingBlock: WUSLED_clean_sbu_0, # of connection points: 3
#     Node 21, Type 0, BuildingBlock: WUSLED_clean_sbu_0, # of connection points: 3
#     Node 22, Type 0, BuildingBlock: WUSLED_clean_sbu_0, # of connection points: 3
#     Node 23, Type 0, BuildingBlock: WUSLED_clean_sbu_0, # of connection points: 3
#     Node 24, Type 0, BuildingBlock: WUSLED_clean_sbu_0, # of connection points: 3
#     Node 25, Type 0, BuildingBlock: WUSLED_clean_sbu_0, # of connection points: 3
#     Node 26, Type 0, BuildingBlock: WUSLED_clean_sbu_0, # of connection points: 3
#     Node 27, Type 0, BuildingBlock: WUSLED_clean_sbu_0, # of connection points: 3
#     Node 28, Type 0, BuildingBlock: WUSLED_clean_sbu_0, # of connection points: 3
#     Node 29, Type 0, BuildingBlock: WUSLED_clean_sbu_0, # of connection points: 3
#     Node 30, Type 0, BuildingBlock: WUSLED_clean_sbu_0, # of connection points: 3
#     Node 31, Type 0, BuildingBlock: WUSLED_clean_sbu_0, # of connection points: 3
#     Node 32, Type 1, BuildingBlock: NAHDIM_clean_linker_0, # of connection points: 4
#     Node 33, Type 1, BuildingBlock: NAHDIM_clean_linker_0, # of connection points: 4
#     Node 34, Type 1, BuildingBlock: NAHDIM_clean_linker_0, # of connection points: 4
#     Node 35, Type 1, BuildingBlock: NAHDIM_clean_linker_0, # of connection points: 4
#     Node 36, Type 1, BuildingBlock: NAHDIM_clean_linker_0, # of connection points: 4
#     Node 37, Type 1, BuildingBlock: NAHDIM_clean_linker_0, # of connection points: 4
#     Node 38, Type 1, BuildingBlock: NAHDIM_clean_linker_0, # of connection points: 4
#     Node 39, Type 1, BuildingBlock: NAHDIM_clean_linker_0, # of connection points: 4
#     Node 40, Type 1, BuildingBlock: NAHDIM_clean_linker_0, # of connection points: 4
#     Node 41, Type 1, BuildingBlock: NAHDIM_clean_linker_0, # of connection points: 4
#     Node 42, Type 1, BuildingBlock: NAHDIM_clean_linker_0, # of connection points: 4
#     Node 43, Type 1, BuildingBlock: NAHDIM_clean_linker_0, # of connection points: 4
#     Node 44, Type 1, BuildingBlock: NAHDIM_clean_linker_0, # of connection points: 4
#     Node 45, Type 1, BuildingBlock: NAHDIM_clean_linker_0, # of connection points: 4
#     Node 46, Type 1, BuildingBlock: NAHDIM_clean_linker_0, # of connection points: 4
#     Node 47, Type 1, BuildingBlock: NAHDIM_clean_linker_0, # of connection points: 4
#     Node 48, Type 1, BuildingBlock: NAHDIM_clean_linker_0, # of connection points: 4
#     Node 49, Type 1, BuildingBlock: NAHDIM_clean_linker_0, # of connection points: 4
#     Node 50, Type 1, BuildingBlock: NAHDIM_clean_linker_0, # of connection points: 4
#     Node 51, Type 1, BuildingBlock: NAHDIM_clean_linker_0, # of connection points: 4
#     Node 52, Type 1, BuildingBlock: NAHDIM_clean_linker_0, # of connection points: 4
#     Node 53, Type 1, BuildingBlock: NAHDIM_clean_linker_0, # of connection points: 4
#     Node 54, Type 1, BuildingBlock: NAHDIM_clean_linker_0, # of connection points: 4
#     Node 55, Type 1, BuildingBlock: NAHDIM_clean_linker_0, # of connection points: 4
#     Edge 56, Type (0, 1), BuildingBlock: TEMPAE_clean_linker_10, # of connection points: 2
#     Edge 57, Type (0, 1), BuildingBlock: TEMPAE_clean_linker_10, # of connection points: 2
#     Edge 58, Type (0, 1), BuildingBlock: TEMPAE_clean_linker_10, # of connection points: 2
#     Edge 59, Type (0, 1), BuildingBlock: TEMPAE_clean_linker_10, # of connection points: 2
#     Edge 60, Type (0, 1), BuildingBlock: TEMPAE_clean_linker_10, # of connection points: 2
#     Edge 61, Type (0, 1), BuildingBlock: TEMPAE_clean_linker_10, # of connection points: 2
#     Edge 62, Type (0, 1), BuildingBlock: TEMPAE_clean_linker_10, # of connection points: 2
#     Edge 63, Type (0, 1), BuildingBlock: TEMPAE_clean_linker_10, # of connection points: 2
#     Edge 64, Type (0, 1), BuildingBlock: TEMPAE_clean_linker_10, # of connection points: 2
#     Edge 65, Type (0, 1), BuildingBlock: TEMPAE_clean_linker_10, # of connection points: 2
#     Edge 66, Type (0, 1), BuildingBlock: TEMPAE_clean_linker_10, # of connection points: 2
#     Edge 67, Type (0, 1), BuildingBlock: TEMPAE_clean_linker_10, # of connection points: 2
#     Edge 68, Type (0, 1), BuildingBlock: TEMPAE_clean_linker_10, # of connection points: 2
#     Edge 69, Type (0, 1), BuildingBlock: TEMPAE_clean_linker_10, # of connection points: 2
#     Edge 70, Type (0, 1), BuildingBlock: TEMPAE_clean_linker_10, # of connection points: 2
#     Edge 71, Type (0, 1), BuildingBlock: TEMPAE_clean_linker_10, # of connection points: 2
#     Edge 72, Type (0, 1), BuildingBlock: TEMPAE_clean_linker_10, # of connection points: 2
#     Edge 73, Type (0, 1), BuildingBlock: TEMPAE_clean_linker_10, # of connection points: 2
#     Edge 74, Type (0, 1), BuildingBlock: TEMPAE_clean_linker_10, # of connection points: 2
#     Edge 75, Type (0, 1), BuildingBlock: TEMPAE_clean_linker_10, # of connection points: 2
#     Edge 76, Type (0, 1), BuildingBlock: TEMPAE_clean_linker_10, # of connection points: 2
#     Edge 77, Type (0, 1), BuildingBlock: TEMPAE_clean_linker_10, # of connection points: 2
#     Edge 78, Type (0, 1), BuildingBlock: TEMPAE_clean_linker_10, # of connection points: 2
#     Edge 79, Type (0, 1), BuildingBlock: TEMPAE_clean_linker_10, # of connection points: 2
#     Edge 80, Type (0, 1), BuildingBlock: TEMPAE_clean_linker_10, # of connection points: 2
#     Edge 81, Type (0, 1), BuildingBlock: TEMPAE_clean_linker_10, # of connection points: 2
#     Edge 82, Type (0, 1), BuildingBlock: TEMPAE_clean_linker_10, # of connection points: 2
#     Edge 83, Type (0, 1), BuildingBlock: TEMPAE_clean_linker_10, # of connection points: 2
#     Edge 84, Type (0, 1), BuildingBlock: TEMPAE_clean_linker_10, # of connection points: 2
#     Edge 85, Type (0, 1), BuildingBlock: TEMPAE_clean_linker_10, # of connection points: 2
#     Edge 86, Type (0, 1), BuildingBlock: TEMPAE_clean_linker_10, # of connection points: 2
#     Edge 87, Type (0, 1), BuildingBlock: TEMPAE_clean_linker_10, # of connection points: 2
#     Edge 88, Type (0, 1), BuildingBlock: TEMPAE_clean_linker_10, # of connection points: 2
#     Edge 89, Type (0, 1), BuildingBlock: TEMPAE_clean_linker_10, # of connection points: 2
#     Edge 90, Type (0, 1), BuildingBlock: TEMPAE_clean_linker_10, # of connection points: 2
#     Edge 91, Type (0, 1), BuildingBlock: TEMPAE_clean_linker_10, # of connection points: 2
#     Edge 92, Type (0, 1), BuildingBlock: TEMPAE_clean_linker_10, # of connection points: 2
#     Edge 93, Type (0, 1), BuildingBlock: TEMPAE_clean_linker_10, # of connection points: 2
#     Edge 94, Type (0, 1), BuildingBlock: TEMPAE_clean_linker_10, # of connection points: 2
#     Edge 95, Type (0, 1), BuildingBlock: TEMPAE_clean_linker_10, # of connection points: 2
#     Edge 96, Type (0, 1), BuildingBlock: TEMPAE_clean_linker_10, # of connection points: 2
#     Edge 97, Type (0, 1), BuildingBlock: TEMPAE_clean_linker_10, # of connection points: 2
#     Edge 98, Type (0, 1), BuildingBlock: TEMPAE_clean_linker_10, # of connection points: 2
#     Edge 99, Type (0, 1), BuildingBlock: TEMPAE_clean_linker_10, # of connection points: 2
#     Edge 100, Type (0, 1), BuildingBlock: TEMPAE_clean_linker_10, # of connection points: 2
#     Edge 101, Type (0, 1), BuildingBlock: TEMPAE_clean_linker_10, # of connection points: 2
#     Edge 102, Type (0, 1), BuildingBlock: TEMPAE_clean_linker_10, # of connection points: 2
#     Edge 103, Type (0, 1), BuildingBlock: TEMPAE_clean_linker_10, # of connection points: 2
#     Edge 104, Type (0, 1), BuildingBlock: TEMPAE_clean_linker_10, # of connection points: 2
#     Edge 105, Type (0, 1), BuildingBlock: TEMPAE_clean_linker_10, # of connection points: 2
#     Edge 106, Type (0, 1), BuildingBlock: TEMPAE_clean_linker_10, # of connection points: 2
#     Edge 107, Type (0, 1), BuildingBlock: TEMPAE_clean_linker_10, # of connection points: 2
#     Edge 108, Type (0, 1), BuildingBlock: TEMPAE_clean_linker_10, # of connection points: 2
#     Edge 109, Type (0, 1), BuildingBlock: TEMPAE_clean_linker_10, # of connection points: 2
#     Edge 110, Type (0, 1), BuildingBlock: TEMPAE_clean_linker_10, # of connection points: 2
#     Edge 111, Type (0, 1), BuildingBlock: TEMPAE_clean_linker_10, # of connection points: 2
#     Edge 112, Type (0, 1), BuildingBlock: TEMPAE_clean_linker_10, # of connection points: 2
#     Edge 113, Type (0, 1), BuildingBlock: TEMPAE_clean_linker_10, # of connection points: 2
#     Edge 114, Type (0, 1), BuildingBlock: TEMPAE_clean_linker_10, # of connection points: 2
#     Edge 115, Type (0, 1), BuildingBlock: TEMPAE_clean_linker_10, # of connection points: 2
#     Edge 116, Type (0, 1), BuildingBlock: TEMPAE_clean_linker_10, # of connection points: 2
#     Edge 117, Type (0, 1), BuildingBlock: TEMPAE_clean_linker_10, # of connection points: 2
#     Edge 118, Type (0, 1), BuildingBlock: TEMPAE_clean_linker_10, # of connection points: 2
#     Edge 119, Type (0, 1), BuildingBlock: TEMPAE_clean_linker_10, # of connection points: 2
#     Edge 120, Type (0, 1), BuildingBlock: TEMPAE_clean_linker_10, # of connection points: 2
#     Edge 121, Type (0, 1), BuildingBlock: TEMPAE_clean_linker_10, # of connection points: 2
#     Edge 122, Type (0, 1), BuildingBlock: TEMPAE_clean_linker_10, # of connection points: 2
#     Edge 123, Type (0, 1), BuildingBlock: TEMPAE_clean_linker_10, # of connection points: 2
#     Edge 124, Type (0, 1), BuildingBlock: TEMPAE_clean_linker_10, # of connection points: 2
#     Edge 125, Type (0, 1), BuildingBlock: TEMPAE_clean_linker_10, # of connection points: 2
#     Edge 126, Type (0, 1), BuildingBlock: TEMPAE_clean_linker_10, # of connection points: 2
#     Edge 127, Type (0, 1), BuildingBlock: TEMPAE_clean_linker_10, # of connection points: 2
#     Edge 128, Type (0, 1), BuildingBlock: TEMPAE_clean_linker_10, # of connection points: 2
#     Edge 129, Type (0, 1), BuildingBlock: TEMPAE_clean_linker_10, # of connection points: 2
#     Edge 130, Type (0, 1), BuildingBlock: TEMPAE_clean_linker_10, # of connection points: 2
#     Edge 131, Type (0, 1), BuildingBlock: TEMPAE_clean_linker_10, # of connection points: 2
#     Edge 132, Type (0, 1), BuildingBlock: TEMPAE_clean_linker_10, # of connection points: 2
#     Edge 133, Type (0, 1), BuildingBlock: TEMPAE_clean_linker_10, # of connection points: 2
#     Edge 134, Type (0, 1), BuildingBlock: TEMPAE_clean_linker_10, # of connection points: 2
#     Edge 135, Type (0, 1), BuildingBlock: TEMPAE_clean_linker_10, # of connection points: 2
#     Edge 136, Type (0, 1), BuildingBlock: TEMPAE_clean_linker_10, # of connection points: 2
#     Edge 137, Type (0, 1), BuildingBlock: TEMPAE_clean_linker_10, # of connection points: 2
#     Edge 138, Type (0, 1), BuildingBlock: TEMPAE_clean_linker_10, # of connection points: 2
#     Edge 139, Type (0, 1), BuildingBlock: TEMPAE_clean_linker_10, # of connection points: 2
#     Edge 140, Type (0, 1), BuildingBlock: TEMPAE_clean_linker_10, # of connection points: 2
#     Edge 141, Type (0, 1), BuildingBlock: TEMPAE_clean_linker_10, # of connection points: 2
#     Edge 142, Type (0, 1), BuildingBlock: TEMPAE_clean_linker_10, # of connection points: 2
#     Edge 143, Type (0, 1), BuildingBlock: TEMPAE_clean_linker_10, # of connection points: 2
#     Edge 144, Type (0, 1), BuildingBlock: TEMPAE_clean_linker_10, # of connection points: 2
#     Edge 145, Type (0, 1), BuildingBlock: TEMPAE_clean_linker_10, # of connection points: 2
#     Edge 146, Type (0, 1), BuildingBlock: TEMPAE_clean_linker_10, # of connection points: 2
#     Edge 147, Type (0, 1), BuildingBlock: TEMPAE_clean_linker_10, # of connection points: 2
#     Edge 148, Type (0, 1), BuildingBlock: TEMPAE_clean_linker_10, # of connection points: 2
#     Edge 149, Type (0, 1), BuildingBlock: TEMPAE_clean_linker_10, # of connection points: 2
#     Edge 150, Type (0, 1), BuildingBlock: TEMPAE_clean_linker_10, # of connection points: 2
#     Edge 151, Type (0, 1), BuildingBlock: TEMPAE_clean_linker_10, # of connection points: 2
# Relax obj value: 0.002
# Max RMSD: 0.048
# Mean RMSD: 0.021
data_MOF--net-tbo--node1-WUSLED_clean_sbu_0--node2-NAHDIM_clean_linker_0--edge1-TEMPAE_clean_linker_10
_symmetry_space_group_name_H-M    P1
_symmetry_Int_Tables_number       1
_symmetry_cell_setting            triclinic
loop_
_symmetry_equiv_pos_as_xyz
'x, y, z'
_cell_length_a     123.61904
_cell_length_b     124.00051
_cell_length_c     123.77687
_cell_angle_alpha  89.582231
_cell_angle_beta   90.036404
_cell_angle_gamma 91.182843
loop_
_atom_site_label
_atom_site_type_symbol
_atom_site_fract_x
_atom_site_fract_y
_atom_site_fract_z
_atom_type_partial_charge
C0 C 0.15853 0.13261 0.17948 0.0
C1 C 0.16156 0.12394 0.17297 0.0
C2 C 0.16983 0.11509 0.18849 0.0
C3 C 0.16712 0.11525 0.17744 0.0
C4 C 0.16684 0.12385 0.19493 0.0
C5 C 0.16121 0.13247 0.19049 0.0
U6 U 0.15492 0.15536 0.15872 0.0
O7 O 0.14015 0.16207 0.15163 0.0
O8 O 0.15096 0.17235 0.16139 0.0
C9 C 0.14162 0.17145 0.15638 0.0
C10 C 0.15267 0.14193 0.17508 0.0
C11 C 0.13231 0.1756 0.16236 0.0
C12 C 0.11728 0.17305 0.17485 0.0
C13 C 0.1258 0.16881 0.16888 0.0
C14 C 0.12173 0.1909 0.16787 0.0
C15 C 0.11523 0.18417 0.17448 0.0
C16 C 0.13018 0.18665 0.16185 0.0
C17 C 0.17527 0.15925 0.13574 0.0
C18 C 0.17279 0.17156 0.12061 0.0
C19 C 0.1907 0.16524 0.12498 0.0
C20 C 0.18637 0.15911 0.13352 0.0
C21 C 0.18397 0.17159 0.11848 0.0
C22 C 0.16848 0.16549 0.12922 0.0
C23 C 0.17105 0.15323 0.14518 0.0
O24 O 0.15782 0.15128 0.17579 0.0
O25 O 0.14765 0.14058 0.16579 0.0
O26 O 0.16161 0.14829 0.14397 0.0
O27 O 0.17199 0.1583 0.15442 0.0
H28 H 0.15963 0.12386 0.16443 0.0
H29 H 0.16918 0.10861 0.17225 0.0
H30 H 0.16897 0.12415 0.20341 0.0
H31 H 0.15901 0.13909 0.19565 0.0
H32 H 0.11248 0.16769 0.17996 0.0
H33 H 0.12739 0.16026 0.16947 0.0
H34 H 0.12029 0.19948 0.16735 0.0
H35 H 0.13514 0.19201 0.15688 0.0
H36 H 0.16743 0.17646 0.1158 0.0
H37 H 0.19932 0.16503 0.12347 0.0
H38 H 0.19174 0.15436 0.13849 0.0
H39 H 0.15988 0.16579 0.13088 0.0
C40 C 0.82781 0.16394 0.13216 0.0
C41 C 0.83227 0.17434 0.1306 0.0
C42 C 0.81993 0.17736 0.11559 0.0
C43 C 0.82834 0.181 0.12239 0.0
C44 C 0.8157 0.16683 0.11703 0.0
C45 C 0.8196 0.16018 0.12527 0.0
U46 U 0.84744 0.15859 0.15502 0.0
O47 O 0.84447 0.15358 0.17181 0.0
O48 O 0.85407 0.14339 0.1612 0.0
C49 C 0.84925 0.1443 0.17061 0.0
C50 C 0.83141 0.15717 0.14119 0.0
C51 C 0.84292 0.13483 0.17425 0.0
C52 C 0.82623 0.12415 0.17435 0.0
C53 C 0.83243 0.13283 0.1703 0.0
C54 C 0.84107 0.11923 0.18609 0.0
C55 C 0.83044 0.11733 0.18238 0.0
C56 C 0.84724 0.12792 0.18207 0.0
C57 C 0.87084 0.17831 0.1601 0.0
C58 C 0.87987 0.18051 0.17741 0.0
C59 C 0.88814 0.18788 0.16114 0.0
C60 C 0.87941 0.18392 0.15504 0.0
C61 C 0.88837 0.18634 0.1724 0.0
C62 C 0.87121 0.17646 0.1713 0.0
C63 C 0.86147 0.17468 0.15365 0.0
O64 O 0.84068 0.15236 0.13976 0.0
O65 O 0.83052 0.16156 0.15076 0.0
O66 O 0.85202 0.17541 0.15842 0.0
O67 O 0.86263 0.16558 0.14843 0.0
H68 H 0.83866 0.17734 0.13583 0.0
H69 H 0.83185 0.18902 0.1214 0.0
H70 H 0.80915 0.16383 0.11198 0.0
H71 H 0.81607 0.15218 0.12639 0.0
H72 H 0.81812 0.12282 0.17126 0.0
H73 H 0.829 0.13807 0.16422 0.0
H74 H 0.84449 0.11418 0.19235 0.0
H75 H 0.85532 0.12938 0.18521 0.0
H76 H 0.87991 0.17912 0.18606 0.0
H77 H 0.89454 0.19242 0.15708 0.0
H78 H 0.87928 0.18539 0.14641 0.0
H79 H 0.86472 0.17203 0.17535 0.0
C80 C 0.83387 0.84496 0.13754 0.0
C81 C 0.83937 0.83555 0.13491 0.0
C82 C 0.82727 0.83252 0.11963 0.0
C83 C 0.8361 0.82938 0.12603 0.0
C84 C 0.82192 0.84207 0.12221 0.0
C85 C 0.82519 0.84822 0.13111 0.0
U86 U 0.85214 0.8495 0.16183 0.0
O87 O 0.85845 0.86443 0.16922 0.0
O88 O 0.84803 0.85334 0.17866 0.0
C89 C 0.85298 0.86281 0.17822 0.0
C90 C 0.83689 0.85117 0.14719 0.0
C91 C 0.84664 0.87192 0.18213 0.0
C92 C 0.83553 0.88759 0.17892 0.0
C93 C 0.84161 0.87907 0.17495 0.0
C94 C 0.83935 0.88182 0.19725 0.0
C95 C 0.83429 0.88901 0.19011 0.0
C96 C 0.84549 0.87338 0.19329 0.0
C97 C 0.87549 0.83041 0.16679 0.0
C98 C 0.88522 0.82955 0.18382 0.0
C99 C 0.89158 0.81959 0.16838 0.0
C100 C 0.88302 0.82351 0.16219 0.0
C101 C 0.89272 0.82249 0.17929 0.0
C102 C 0.87669 0.8335 0.17761 0.0
C103 C 0.86632 0.83412 0.16028 0.0
O104 O 0.83553 0.84598 0.15639 0.0
O105 O 0.84617 0.85652 0.14662 0.0
O106 O 0.86763 0.84362 0.15564 0.0
O107 O 0.85674 0.83272 0.16475 0.0
H108 H 0.84612 0.83293 0.13979 0.0
H109 H 0.84048 0.82215 0.12418 0.0
H110 H 0.81503 0.84465 0.11751 0.0
H111 H 0.82084 0.85545 0.13306 0.0
H112 H 0.83162 0.89293 0.17323 0.0
H113 H 0.84231 0.87804 0.1663 0.0
H114 H 0.83861 0.88277 0.20591 0.0
H115 H 0.84931 0.86794 0.19895 0.0
H116 H 0.88596 0.83204 0.19216 0.0
H117 H 0.89716 0.8141 0.16469 0.0
H118 H 0.8822 0.82104 0.15385 0.0
H119 H 0.87099 0.83889 0.18127 0.0
C120 C 0.13583 0.82719 0.16092 0.0
C121 C 0.13326 0.83216 0.1707 0.0
C122 C 0.11857 0.81908 0.17367 0.0
C123 C 0.1247 0.82813 0.17703 0.0
C124 C 0.12106 0.81427 0.16374 0.0
C125 C 0.12964 0.81829 0.15742 0.0
U126 U 0.15932 0.8469 0.15676 0.0
O127 O 0.17617 0.84412 0.15209 0.0
O128 O 0.16601 0.85445 0.142 0.0
C129 C 0.17532 0.84961 0.14301 0.0
C130 C 0.14519 0.83099 0.15454 0.0
C131 C 0.17921 0.84417 0.13331 0.0
C132 C 0.17908 0.82887 0.12117 0.0
C133 C 0.17515 0.83395 0.13039 0.0
C134 C 0.19106 0.84423 0.11769 0.0
C135 C 0.18707 0.83396 0.11471 0.0
C136 C 0.18716 0.84927 0.12691 0.0
C137 C 0.16413 0.86944 0.17689 0.0
C138 C 0.18085 0.88008 0.1769 0.0
C139 C 0.1661 0.88489 0.1887 0.0
C140 C 0.15988 0.87625 0.18473 0.0
C141 C 0.17669 0.88684 0.18491 0.0
C142 C 0.17461 0.87147 0.17289 0.0
C143 C 0.15769 0.86015 0.17307 0.0
O144 O 0.14415 0.84043 0.14979 0.0
O145 O 0.1546 0.8299 0.15933 0.0
O146 O 0.16249 0.85081 0.17376 0.0
O147 O 0.15264 0.86158 0.16383 0.0
H148 H 0.13796 0.83906 0.1735 0.0
H149 H 0.12291 0.83209 0.18458 0.0
H150 H 0.11657 0.80722 0.16098 0.0
H151 H 0.13155 0.81434 0.1499 0.0
H152 H 0.17577 0.82102 0.11901 0.0
H153 H 0.16897 0.82992 0.13523 0.0
H154 H 0.1973 0.8483 0.11296 0.0
H155 H 0.19039 0.85716 0.12908 0.0
H156 H 0.18893 0.88145 0.17374 0.0
H157 H 0.16271 0.88989 0.19494 0.0
H158 H 0.1518 0.87479 0.18788 0.0
H159 H 0.17798 0.86633 0.16677 0.0
C160 C 0.13744 0.83042 0.84052 0.0
C161 C 0.13568 0.83545 0.8305 0.0
C162 C 0.11991 0.82377 0.82742 0.0
C163 C 0.127 0.83214 0.82399 0.0
C164 C 0.12157 0.81895 0.8376 0.0
C165 C 0.13029 0.82225 0.84408 0.0
U166 U 0.16217 0.84834 0.84559 0.0
O167 O 0.16913 0.85466 0.86069 0.0
O168 O 0.17866 0.84408 0.85041 0.0
C169 C 0.17802 0.84912 0.85968 0.0
C170 C 0.14693 0.83336 0.84709 0.0
C171 C 0.1811 0.84278 0.86922 0.0
C172 C 0.17829 0.82745 0.88129 0.0
C173 C 0.17525 0.8334 0.87218 0.0
C174 C 0.19304 0.84021 0.88454 0.0
C175 C 0.18722 0.83079 0.88759 0.0
C176 C 0.18999 0.84614 0.87544 0.0
C177 C 0.16869 0.87156 0.82608 0.0
C178 C 0.18647 0.87973 0.82298 0.0
C179 C 0.1704 0.88909 0.81731 0.0
C180 C 0.16394 0.88058 0.8213 0.0
C181 C 0.18174 0.88868 0.81797 0.0
C182 C 0.18 0.87126 0.82706 0.0
C183 C 0.16174 0.86247 0.82974 0.0
O184 O 0.1563 0.83183 0.84239 0.0
O185 O 0.14646 0.84265 0.85209 0.0
O186 O 0.1567 0.86385 0.83896 0.0
O187 O 0.16585 0.85282 0.82878 0.0
H188 H 0.14113 0.84181 0.82765 0.0
H189 H 0.12585 0.83609 0.81626 0.0
H190 H 0.11634 0.81241 0.84042 0.0
H191 H 0.13155 0.81827 0.85179 0.0
H192 H 0.17371 0.82019 0.88336 0.0
H193 H 0.16836 0.8307 0.86743 0.0
H194 H 0.19984 0.8431 0.8893 0.0
H195 H 0.19456 0.85339 0.87327 0.0
H196 H 0.19519 0.87925 0.8237 0.0
H197 H 0.16653 0.89585 0.8134 0.0
H198 H 0.15523 0.88097 0.82049 0.0
H199 H 0.18384 0.86442 0.83084 0.0
C200 C 0.13469 0.16489 0.82778 0.0
C201 C 0.12432 0.16388 0.83242 0.0
C202 C 0.11712 0.17647 0.81916 0.0
C203 C 0.11565 0.16962 0.82817 0.0
C204 C 0.1275 0.17751 0.81457 0.0
C205 C 0.13615 0.17175 0.81878 0.0
U206 U 0.15806 0.15986 0.84761 0.0
O207 O 0.1637 0.14464 0.85477 0.0
O208 O 0.17456 0.15447 0.84446 0.0
C209 C 0.17302 0.14528 0.84967 0.0
C210 C 0.14386 0.15849 0.83187 0.0
C211 C 0.17622 0.13553 0.84386 0.0
C212 C 0.17848 0.12549 0.82722 0.0
C213 C 0.17481 0.13459 0.83263 0.0
C214 C 0.18466 0.11802 0.84423 0.0
C215 C 0.18352 0.11714 0.83296 0.0
C216 C 0.18105 0.12714 0.84961 0.0
C217 C 0.16391 0.18019 0.87033 0.0
C218 C 0.17126 0.17815 0.88848 0.0
C219 C 0.17408 0.19492 0.87866 0.0
C220 C 0.16827 0.19071 0.86992 0.0
C221 C 0.17558 0.18874 0.88811 0.0
C222 C 0.1655 0.1739 0.87968 0.0
C223 C 0.15756 0.17614 0.86102 0.0
O224 O 0.15356 0.1629 0.83069 0.0
O225 O 0.14254 0.15362 0.84127 0.0
O226 O 0.15186 0.16717 0.86246 0.0
O227 O 0.1625 0.17664 0.85162 0.0
H228 H 0.12286 0.15856 0.83926 0.0
H229 H 0.10774 0.16852 0.83181 0.0
H230 H 0.12897 0.18282 0.80772 0.0
H231 H 0.14399 0.17263 0.81494 0.0
H232 H 0.17739 0.12499 0.81856 0.0
H233 H 0.17101 0.14095 0.82804 0.0
H234 H 0.18861 0.11179 0.84886 0.0
H235 H 0.18221 0.12772 0.85827 0.0
H236 H 0.17216 0.17319 0.89565 0.0
H237 H 0.17746 0.20302 0.87797 0.0
H238 H 0.16716 0.19571 0.86281 0.0
H239 H 0.16224 0.16574 0.88025 0.0
C240 C 0.82521 0.13229 0.84889 0.0
C241 C 0.83207 0.12658 0.84206 0.0
C242 C 0.8171 0.1145 0.83713 0.0
C243 C 0.82805 0.11771 0.83626 0.0
C244 C 0.81032 0.12017 0.84411 0.0
C245 C 0.81436 0.12898 0.84995 0.0
U246 U 0.84495 0.15616 0.85198 0.0
O247 O 0.84155 0.17317 0.85524 0.0
O248 O 0.85148 0.16392 0.86658 0.0
C249 C 0.84654 0.17302 0.86462 0.0
C250 C 0.82904 0.14204 0.85452 0.0
C251 C 0.84046 0.17752 0.87365 0.0
C252 C 0.827 0.17589 0.8879 0.0
C253 C 0.83282 0.17128 0.87946 0.0
C254 C 0.83639 0.19297 0.88471 0.0
C255 C 0.82867 0.18681 0.89055 0.0
C256 C 0.84222 0.18836 0.87634 0.0
C257 C 0.86835 0.16109 0.83281 0.0
C258 C 0.87675 0.17883 0.83033 0.0
C259 C 0.8862 0.16291 0.82471 0.0
C260 C 0.87748 0.15642 0.82823 0.0
C261 C 0.88592 0.17422 0.82566 0.0
C262 C 0.8681 0.17234 0.83394 0.0
C263 C 0.85917 0.15423 0.83645 0.0
O264 O 0.83836 0.14135 0.8596 0.0
O265 O 0.82809 0.15105 0.84899 0.0
O266 O 0.84956 0.15834 0.83496 0.0
O267 O 0.8603 0.14969 0.846 0.0
H268 H 0.84045 0.1291 0.84106 0.0
H269 H 0.83343 0.11356 0.83086 0.0
H270 H 0.80188 0.11782 0.84501 0.0
H271 H 0.80895 0.13332 0.85516 0.0
H272 H 0.82106 0.17097 0.89222 0.0
H273 H 0.83132 0.1629 0.87743 0.0
H274 H 0.83798 0.20135 0.88667 0.0
H275 H 0.8481 0.19328 0.87194 0.0
H276 H 0.87614 0.1875 0.83106 0.0
H277 H 0.8932 0.15906 0.82131 0.0
H278 H 0.87786 0.14775 0.82738 0.0
H279 H 0.86116 0.17613 0.83754 0.0
C280 C 0.84195 0.86602 0.82765 0.0
C281 C 0.83158 0.86805 0.83167 0.0
C282 C 0.83087 0.88454 0.82087 0.0
C283 C 0.82607 0.87723 0.82828 0.0
C284 C 0.84127 0.88244 0.8169 0.0
C285 C 0.84675 0.87326 0.82026 0.0
U286 U 0.84625 0.84187 0.84653 0.0
O287 O 0.85109 0.82537 0.84274 0.0
O288 O 0.86143 0.83552 0.85309 0.0
C289 C 0.86044 0.82644 0.84774 0.0
C290 C 0.8479 0.85643 0.83108 0.0
C291 C 0.87004 0.82334 0.84154 0.0
C292 C 0.8803 0.82289 0.8248 0.0
C293 C 0.8711 0.82592 0.83053 0.0
C294 C 0.88756 0.81482 0.84108 0.0
C295 C 0.88864 0.81732 0.83003 0.0
C296 C 0.87832 0.81778 0.84677 0.0
C297 C 0.82726 0.83612 0.8702 0.0
C298 C 0.82812 0.81955 0.88074 0.0
C299 C 0.81632 0.83382 0.88638 0.0
C300 C 0.81969 0.84008 0.87752 0.0
C301 C 0.82044 0.82344 0.88806 0.0
C302 C 0.83152 0.82584 0.8719 0.0
C303 C 0.83061 0.84272 0.86082 0.0
O304 O 0.85303 0.85727 0.84035 0.0
O305 O 0.84275 0.84713 0.82992 0.0
O306 O 0.8295 0.83803 0.85138 0.0
O307 O 0.83987 0.848 0.86187 0.0
H308 H 0.82778 0.86256 0.83744 0.0
H309 H 0.81812 0.87869 0.83158 0.0
H310 H 0.84514 0.88785 0.81111 0.0
H311 H 0.85474 0.8718 0.81707 0.0
H312 H 0.88097 0.82505 0.81633 0.0
H313 H 0.86483 0.83031 0.82636 0.0
H314 H 0.89381 0.81047 0.8453 0.0
H315 H 0.87765 0.81574 0.85527 0.0
H316 H 0.83156 0.81166 0.88188 0.0
H317 H 0.81033 0.83701 0.89182 0.0
H318 H 0.81634 0.84801 0.87632 0.0
H319 H 0.83744 0.82268 0.86637 0.0
C320 C 0.16236 0.63257 0.67846 0.0
C321 C 0.17257 0.63073 0.67395 0.0
C322 C 0.17488 0.61527 0.68593 0.0
C323 C 0.17878 0.62216 0.67767 0.0
C324 C 0.16453 0.61702 0.69024 0.0
C325 C 0.15834 0.62562 0.68654 0.0
U326 U 0.15859 0.65635 0.65954 0.0
O327 O 0.14393 0.66317 0.65231 0.0
O328 O 0.15431 0.6731 0.66284 0.0
C329 C 0.14522 0.67241 0.65735 0.0
C330 C 0.15606 0.64191 0.67499 0.0
C331 C 0.13567 0.67648 0.66294 0.0
C332 C 0.1225 0.67549 0.67751 0.0
C333 C 0.13117 0.67105 0.67191 0.0
C334 C 0.12269 0.69072 0.66511 0.0
C335 C 0.11827 0.68546 0.67425 0.0
C336 C 0.1313 0.68626 0.65952 0.0
C337 C 0.17991 0.66131 0.63739 0.0
C338 C 0.17833 0.67092 0.62026 0.0
C339 C 0.19587 0.66923 0.62877 0.0
C340 C 0.19109 0.66342 0.63728 0.0
C341 C 0.18958 0.67299 0.62009 0.0
C342 C 0.17354 0.66517 0.62884 0.0
C343 C 0.17521 0.65504 0.64647 0.0
O344 O 0.1609 0.65133 0.67643 0.0
O345 O 0.15137 0.64104 0.6655 0.0
O346 O 0.16588 0.65005 0.64473 0.0
O347 O 0.17577 0.65973 0.65595 0.0
H348 H 0.17578 0.636 0.66766 0.0
H349 H 0.18666 0.62095 0.6741 0.0
H350 H 0.16135 0.61193 0.69669 0.0
H351 H 0.15048 0.62695 0.69011 0.0
H352 H 0.11933 0.6713 0.68457 0.0
H353 H 0.1345 0.6635 0.67469 0.0
H354 H 0.11951 0.69832 0.66232 0.0
H355 H 0.13468 0.69055 0.6526 0.0
H356 H 0.17325 0.67361 0.61368 0.0
H357 H 0.20451 0.67085 0.62905 0.0
H358 H 0.19615 0.66057 0.64381 0.0
H359 H 0.16487 0.66369 0.62876 0.0
C360 C 0.82848 0.669 0.63259 0.0
C361 C 0.83258 0.67959 0.63146 0.0
C362 C 0.82116 0.68236 0.6157 0.0
C363 C 0.82892 0.68622 0.62311 0.0
C364 C 0.81722 0.67167 0.61675 0.0
C365 C 0.82084 0.66506 0.62516 0.0
U366 U 0.84816 0.66381 0.65533 0.0
O367 O 0.8454 0.65839 0.67206 0.0
O368 O 0.85551 0.64889 0.66127 0.0
C369 C 0.85079 0.64947 0.67075 0.0
C370 C 0.83209 0.66214 0.64157 0.0
C371 C 0.84529 0.63956 0.67455 0.0
C372 C 0.83117 0.62576 0.67289 0.0
C373 C 0.83629 0.63522 0.66907 0.0
C374 C 0.84399 0.62498 0.68768 0.0
C375 C 0.835 0.62052 0.68222 0.0
C376 C 0.84909 0.63441 0.68387 0.0
C377 C 0.87123 0.68372 0.66031 0.0
C378 C 0.88307 0.68139 0.67578 0.0
C379 C 0.88583 0.69665 0.66366 0.0
C380 C 0.87707 0.69309 0.65739 0.0
C381 C 0.88887 0.69089 0.67298 0.0
C382 C 0.87432 0.67784 0.66949 0.0
C383 C 0.86178 0.68027 0.65394 0.0
O384 O 0.84142 0.65748 0.64011 0.0
O385 O 0.83113 0.66642 0.6512 0.0
O386 O 0.85248 0.68066 0.65906 0.0
O387 O 0.86294 0.67132 0.64848 0.0
H388 H 0.83856 0.68274 0.63708 0.0
H389 H 0.83222 0.69435 0.6224 0.0
H390 H 0.81119 0.6685 0.6112 0.0
H391 H 0.81762 0.6569 0.62592 0.0
H392 H 0.82432 0.62247 0.66845 0.0
H393 H 0.83326 0.63912 0.66185 0.0
H394 H 0.84704 0.62124 0.69498 0.0
H395 H 0.85599 0.63771 0.68822 0.0
H396 H 0.88529 0.67672 0.68283 0.0
H397 H 0.89006 0.70405 0.66136 0.0
H398 H 0.87476 0.69773 0.65033 0.0
H399 H 0.8699 0.67055 0.67183 0.0
C400 C 0.82708 0.34255 0.63719 0.0
C401 C 0.83414 0.33492 0.633 0.0
C402 C 0.82111 0.3304 0.61887 0.0
C403 C 0.83119 0.32891 0.62389 0.0
C404 C 0.81402 0.33796 0.62322 0.0
C405 C 0.81699 0.34399 0.63229 0.0
U406 U 0.84545 0.34858 0.66128 0.0
O407 O 0.85192 0.36413 0.66719 0.0
O408 O 0.84149 0.35402 0.67763 0.0
C409 C 0.84652 0.36338 0.67632 0.0
C410 C 0.83015 0.34914 0.64658 0.0
C411 C 0.84022 0.37286 0.6792 0.0
C412 C 0.82411 0.38364 0.67747 0.0
C413 C 0.8302 0.37481 0.67431 0.0
C414 C 0.83812 0.38877 0.69025 0.0
C415 C 0.82797 0.39068 0.68554 0.0
C416 C 0.84418 0.37993 0.68711 0.0
C417 C 0.86896 0.32991 0.66751 0.0
C418 C 0.88313 0.33402 0.68056 0.0
C419 C 0.88168 0.31617 0.67278 0.0
C420 C 0.87275 0.31938 0.66672 0.0
C421 C 0.88701 0.32346 0.67974 0.0
C422 C 0.87415 0.33721 0.67452 0.0
C423 C 0.8596 0.33308 0.66097 0.0
O424 O 0.82886 0.34444 0.65605 0.0
O425 O 0.83939 0.35452 0.64569 0.0
O426 O 0.86078 0.3421 0.65541 0.0
O427 O 0.85016 0.33212 0.66579 0.0
H428 H 0.84195 0.33366 0.63673 0.0
H429 H 0.83678 0.32307 0.6208 0.0
H430 H 0.80625 0.3394 0.61947 0.0
H431 H 0.81145 0.34985 0.63543 0.0
H432 H 0.81638 0.38495 0.67361 0.0
H433 H 0.82705 0.36944 0.66814 0.0
H434 H 0.84126 0.39395 0.69658 0.0
H435 H 0.8519 0.37853 0.69097 0.0
H436 H 0.887 0.33979 0.68592 0.0
H437 H 0.88455 0.30804 0.67185 0.0
H438 H 0.86883 0.31364 0.66135 0.0
H439 H 0.87127 0.34536 0.67529 0.0
C440 C 0.13712 0.32253 0.66468 0.0
C441 C 0.13169 0.32906 0.67204 0.0
C442 C 0.11912 0.31425 0.67626 0.0
C443 C 0.12273 0.32497 0.67774 0.0
C444 C 0.12458 0.30776 0.66884 0.0
C445 C 0.13349 0.31188 0.66309 0.0
U446 U 0.16001 0.34321 0.66153 0.0
O447 O 0.17718 0.34112 0.65757 0.0
O448 O 0.16698 0.35093 0.64701 0.0
C449 C 0.17644 0.34645 0.6484 0.0
C450 C 0.14673 0.32665 0.65888 0.0
C451 C 0.18085 0.34098 0.63894 0.0
C452 C 0.17916 0.32784 0.62454 0.0
C453 C 0.17473 0.33314 0.63339 0.0
C454 C 0.19588 0.33816 0.62675 0.0
C455 C 0.18982 0.33025 0.62117 0.0
C456 C 0.19142 0.34348 0.63555 0.0
C457 C 0.16254 0.36626 0.68154 0.0
C458 C 0.17767 0.37908 0.68088 0.0
C459 C 0.16308 0.38158 0.69363 0.0
C460 C 0.1579 0.37222 0.68985 0.0
C461 C 0.173 0.38513 0.68918 0.0
C462 C 0.17246 0.36972 0.67708 0.0
C463 C 0.15695 0.35651 0.67757 0.0
O464 O 0.1456 0.33593 0.65384 0.0
O465 O 0.15586 0.32606 0.66427 0.0
O466 O 0.16236 0.34755 0.67856 0.0
O467 O 0.15221 0.35753 0.66812 0.0
H468 H 0.13444 0.33729 0.67344 0.0
H469 H 0.11878 0.33011 0.6835 0.0
H470 H 0.12192 0.2995 0.66746 0.0
H471 H 0.13761 0.30673 0.65745 0.0
H472 H 0.17435 0.3217 0.62048 0.0
H473 H 0.16656 0.33106 0.63595 0.0
H474 H 0.20406 0.34026 0.62428 0.0
H475 H 0.19625 0.34951 0.63975 0.0
H476 H 0.18524 0.38167 0.6772 0.0
H477 H 0.15934 0.386 0.70011 0.0
H478 H 0.15026 0.36963 0.6934 0.0
H479 H 0.17613 0.36522 0.67061 0.0
C480 C 0.1318 0.33128 0.3455 0.0
C481 C 0.1285 0.33748 0.33661 0.0
C482 C 0.11378 0.32463 0.3331 0.0
C483 C 0.11955 0.33419 0.33047 0.0
C484 C 0.11716 0.31845 0.34201 0.0
C485 C 0.1261 0.32176 0.34816 0.0
U486 U 0.15551 0.35051 0.35044 0.0
O487 O 0.16211 0.35712 0.36557 0.0
O488 O 0.17226 0.34722 0.3552 0.0
C489 C 0.17128 0.35203 0.36457 0.0
C490 C 0.14123 0.33463 0.35193 0.0
C491 C 0.17443 0.34554 0.37397 0.0
C492 C 0.17144 0.3301 0.38583 0.0
C493 C 0.16823 0.33644 0.37707 0.0
C494 C 0.18702 0.34197 0.38854 0.0
C495 C 0.18091 0.33276 0.39163 0.0
C496 C 0.1838 0.34831 0.37976 0.0
C497 C 0.16085 0.374 0.33127 0.0
C498 C 0.17756 0.38455 0.33231 0.0
C499 C 0.16367 0.38952 0.31948 0.0
C500 C 0.15716 0.38087 0.3231 0.0
C501 C 0.17399 0.39137 0.32396 0.0
C502 C 0.17103 0.37595 0.33595 0.0
C503 C 0.1542 0.36464 0.33466 0.0
O504 O 0.1506 0.33374 0.34704 0.0
O505 O 0.14028 0.34379 0.35708 0.0
O506 O 0.14911 0.36566 0.3439 0.0
O507 O 0.15888 0.35528 0.33365 0.0
H508 H 0.13287 0.34484 0.33442 0.0
H509 H 0.11721 0.33906 0.32358 0.0
H510 H 0.1128 0.31113 0.34433 0.0
H511 H 0.12856 0.31689 0.355 0.0
H512 H 0.16649 0.32314 0.38809 0.0
H513 H 0.16095 0.33422 0.37267 0.0
H514 H 0.19441 0.34416 0.39276 0.0
H515 H 0.18868 0.3553 0.37744 0.0
H516 H 0.18542 0.38586 0.33601 0.0
H517 H 0.16074 0.39458 0.31298 0.0
H518 H 0.14931 0.37946 0.31941 0.0
H519 H 0.17397 0.37073 0.34232 0.0
C520 C 0.13933 0.66222 0.32987 0.0
C521 C 0.13389 0.66905 0.33693 0.0
C522 C 0.12088 0.67327 0.3228 0.0
C523 C 0.12471 0.6745 0.33344 0.0
C524 C 0.12643 0.66647 0.31575 0.0
C525 C 0.13556 0.66099 0.31927 0.0
U526 U 0.16323 0.65872 0.34898 0.0
O527 O 0.17043 0.64405 0.35571 0.0
O528 O 0.18016 0.65493 0.34534 0.0
C529 C 0.17953 0.64556 0.35036 0.0
C530 C 0.14903 0.65646 0.33335 0.0
C531 C 0.18358 0.63629 0.34422 0.0
C532 C 0.181 0.61873 0.33581 0.0
C533 C 0.17684 0.62745 0.3415 0.0
C534 C 0.19859 0.62767 0.33531 0.0
C535 C 0.19194 0.61872 0.33266 0.0
C536 C 0.19446 0.63631 0.34106 0.0
C537 C 0.1673 0.67895 0.37211 0.0
C538 C 0.17753 0.67677 0.38877 0.0
C539 C 0.17364 0.69467 0.38205 0.0
C540 C 0.16816 0.69016 0.37325 0.0
C541 C 0.17832 0.68805 0.38998 0.0
C542 C 0.1721 0.67226 0.37989 0.0
C543 C 0.16132 0.67454 0.36277 0.0
O544 O 0.1582 0.66187 0.33221 0.0
O545 O 0.14825 0.65128 0.34264 0.0
O546 O 0.15657 0.66503 0.36409 0.0
O547 O 0.16618 0.67569 0.35338 0.0
H548 H 0.13675 0.67018 0.34513 0.0
H549 H 0.12066 0.67977 0.33902 0.0
H550 H 0.12361 0.66525 0.30755 0.0
H551 H 0.13968 0.65576 0.3137 0.0
H552 H 0.17566 0.61195 0.33402 0.0
H553 H 0.16839 0.62722 0.3438 0.0
H554 H 0.20699 0.62807 0.33284 0.0
H555 H 0.1998 0.64306 0.34303 0.0
H556 H 0.18097 0.67142 0.39475 0.0
H557 H 0.17428 0.70337 0.38257 0.0
H558 H 0.16458 0.69546 0.3673 0.0
H559 H 0.17159 0.66356 0.37915 0.0
C560 C 0.82665 0.63749 0.33948 0.0
C561 C 0.83007 0.63472 0.32907 0.0
C562 C 0.81922 0.6181 0.32999 0.0
C563 C 0.82636 0.62511 0.32435 0.0
C564 C 0.81585 0.62094 0.34042 0.0
C565 C 0.81952 0.63056 0.34511 0.0
U566 U 0.84592 0.66195 0.34121 0.0
O567 O 0.84247 0.67878 0.34523 0.0
O568 O 0.85345 0.66949 0.35545 0.0
C569 C 0.84814 0.67848 0.35421 0.0
C570 C 0.83044 0.64752 0.34461 0.0
C571 C 0.84261 0.68227 0.36391 0.0
C572 C 0.82825 0.68053 0.37723 0.0
C573 C 0.83325 0.67697 0.3678 0.0
C574 C 0.84192 0.69472 0.37891 0.0
C575 C 0.83258 0.6894 0.38293 0.0
C576 C 0.84688 0.69118 0.36948 0.0
C577 C 0.8687 0.66683 0.32138 0.0
C578 C 0.87936 0.68347 0.32236 0.0
C579 C 0.88466 0.66934 0.31013 0.0
C580 C 0.87581 0.66298 0.31355 0.0
C581 C 0.88651 0.67968 0.31448 0.0
C582 C 0.87055 0.67709 0.3258 0.0
C583 C 0.85947 0.66012 0.32506 0.0
O584 O 0.83998 0.64711 0.34927 0.0
O585 O 0.82908 0.6564 0.33894 0.0
O586 O 0.84996 0.66459 0.32408 0.0
O587 O 0.86083 0.65533 0.33445 0.0
H588 H 0.83563 0.63997 0.32464 0.0
H589 H 0.8292 0.62309 0.31636 0.0
H590 H 0.81027 0.61578 0.34493 0.0
H591 H 0.81679 0.63259 0.35315 0.0
H592 H 0.82114 0.6762 0.38019 0.0
H593 H 0.82988 0.67004 0.36361 0.0
H594 H 0.84537 0.70165 0.38304 0.0
H595 H 0.8541 0.69536 0.36656 0.0
H596 H 0.88065 0.69131 0.32598 0.0
H597 H 0.88998 0.66624 0.304 0.0
H598 H 0.8745 0.65506 0.31009 0.0
H599 H 0.86519 0.68015 0.33193 0.0
C600 C 0.84327 0.36643 0.32301 0.0
C601 C 0.83474 0.37063 0.32905 0.0
C602 C 0.8317 0.38419 0.31507 0.0
C603 C 0.82902 0.37947 0.32512 0.0
C604 C 0.84033 0.37997 0.30913 0.0
C605 C 0.84604 0.37117 0.31307 0.0
U606 U 0.84786 0.34313 0.34289 0.0
O607 O 0.85216 0.32637 0.33962 0.0
O608 O 0.8632 0.3367 0.34904 0.0
C609 C 0.86178 0.32746 0.34405 0.0
C610 C 0.84927 0.35702 0.32681 0.0
C611 C 0.87084 0.32411 0.33723 0.0
C612 C 0.88032 0.3245 0.32005 0.0
C613 C 0.87196 0.32806 0.32663 0.0
C614 C 0.88674 0.31322 0.33467 0.0
C615 C 0.88777 0.31698 0.32396 0.0
C616 C 0.87833 0.31674 0.34124 0.0
C617 C 0.82874 0.33853 0.36689 0.0
C618 C 0.83219 0.32669 0.3822 0.0
C619 C 0.81393 0.33236 0.37841 0.0
C620 C 0.81772 0.33837 0.36954 0.0
C621 C 0.82111 0.32643 0.38482 0.0
C622 C 0.83597 0.33265 0.37327 0.0
C623 C 0.83242 0.34467 0.3573 0.0
O624 O 0.85454 0.35824 0.33596 0.0
O625 O 0.84404 0.34772 0.32614 0.0
O626 O 0.83111 0.33969 0.34805 0.0
O627 O 0.84182 0.34977 0.35812 0.0
H628 H 0.83248 0.36702 0.33675 0.0
H629 H 0.82237 0.38248 0.32985 0.0
H630 H 0.84271 0.38352 0.30145 0.0
H631 H 0.85263 0.36805 0.30833 0.0
H632 H 0.88099 0.32767 0.31189 0.0
H633 H 0.8663 0.33382 0.32343 0.0
H634 H 0.8923 0.30737 0.33789 0.0
H635 H 0.87758 0.31362 0.34941 0.0
H636 H 0.83789 0.3221 0.38693 0.0
H637 H 0.80537 0.33239 0.38028 0.0
H638 H 0.81202 0.34285 0.36471 0.0
H639 H 0.84451 0.33258 0.3713 0.0
C640 C 0.66213 0.13334 0.68221 0.0
C641 C 0.66152 0.12303 0.67753 0.0
C642 C 0.67344 0.11591 0.69145 0.0
C643 C 0.66712 0.11442 0.6821 0.0
C644 C 0.67403 0.12622 0.6961 0.0
C645 C 0.66839 0.1348 0.69158 0.0
U646 U 0.65825 0.1559 0.66125 0.0
O647 O 0.64345 0.16208 0.65374 0.0
O648 O 0.6537 0.17277 0.66364 0.0
C649 C 0.64452 0.17154 0.65839 0.0
C650 C 0.65608 0.14253 0.67768 0.0
C651 C 0.63492 0.17533 0.66409 0.0
C652 C 0.62171 0.17357 0.67857 0.0
C653 C 0.63078 0.16976 0.67314 0.0
C654 C 0.62086 0.18857 0.66595 0.0
C655 C 0.61667 0.18305 0.67505 0.0
C656 C 0.62991 0.18474 0.66053 0.0
C657 C 0.67885 0.15972 0.63847 0.0
C658 C 0.67725 0.17367 0.62471 0.0
C659 C 0.6936 0.16327 0.62592 0.0
C660 C 0.68919 0.15742 0.63461 0.0
C661 C 0.68772 0.17153 0.62093 0.0
C662 C 0.67286 0.16784 0.63345 0.0
C663 C 0.67464 0.15387 0.64799 0.0
O664 O 0.66092 0.15205 0.67839 0.0
O665 O 0.65118 0.14103 0.66835 0.0
O666 O 0.66531 0.14875 0.64671 0.0
O667 O 0.6753 0.1592 0.65711 0.0
H668 H 0.65667 0.12158 0.67038 0.0
H669 H 0.66636 0.10656 0.67839 0.0
H670 H 0.67894 0.12772 0.7032 0.0
H671 H 0.66895 0.14261 0.69544 0.0
H672 H 0.61874 0.16919 0.6856 0.0
H673 H 0.6346 0.16249 0.67602 0.0
H674 H 0.61708 0.1958 0.66294 0.0
H675 H 0.63299 0.18913 0.65355 0.0
H676 H 0.67257 0.18006 0.62111 0.0
H677 H 0.70162 0.16135 0.62311 0.0
H678 H 0.69392 0.15117 0.6384 0.0
H679 H 0.66488 0.16976 0.63639 0.0
C680 C 0.32567 0.16707 0.63513 0.0
C681 C 0.33 0.17749 0.63345 0.0
C682 C 0.31822 0.17989 0.6179 0.0
C683 C 0.32628 0.18387 0.62493 0.0
C684 C 0.31405 0.16936 0.61951 0.0
C685 C 0.31774 0.16301 0.62808 0.0
U686 U 0.34611 0.16176 0.65721 0.0
O687 O 0.34402 0.15691 0.67418 0.0
O688 O 0.35288 0.14651 0.66312 0.0
C689 C 0.34847 0.14748 0.67272 0.0
C690 C 0.32939 0.16042 0.64422 0.0
C691 C 0.3421 0.13806 0.67658 0.0
C692 C 0.32481 0.12897 0.67989 0.0
C693 C 0.33076 0.13784 0.67593 0.0
C694 C 0.34146 0.12026 0.68491 0.0
C695 C 0.33007 0.12006 0.68446 0.0
C696 C 0.3474 0.12919 0.68103 0.0
C697 C 0.37023 0.18124 0.66001 0.0
C698 C 0.38267 0.18056 0.67517 0.0
C699 C 0.3863 0.1928 0.66019 0.0
C700 C 0.37682 0.18918 0.65511 0.0
C701 C 0.38932 0.18854 0.67028 0.0
C702 C 0.37321 0.17691 0.67005 0.0
C703 C 0.36026 0.17762 0.65458 0.0
O704 O 0.33841 0.15529 0.64252 0.0
O705 O 0.32907 0.16508 0.65371 0.0
O706 O 0.35135 0.1785 0.66026 0.0
O707 O 0.36084 0.1684 0.64946 0.0
H708 H 0.33622 0.18072 0.63878 0.0
H709 H 0.32973 0.1919 0.62381 0.0
H710 H 0.30777 0.16612 0.61429 0.0
H711 H 0.31434 0.15496 0.62926 0.0
H712 H 0.31606 0.12918 0.67954 0.0
H713 H 0.32649 0.14458 0.67246 0.0
H714 H 0.3458 0.11348 0.68819 0.0
H715 H 0.35616 0.12918 0.68152 0.0
H716 H 0.38486 0.17704 0.68288 0.0
H717 H 0.3912 0.19903 0.65628 0.0
H718 H 0.37461 0.19262 0.64736 0.0
H719 H 0.36821 0.17073 0.67392 0.0
C720 C 0.33284 0.84606 0.63778 0.0
C721 C 0.33911 0.83737 0.6345 0.0
C722 C 0.32647 0.83354 0.61983 0.0
C723 C 0.33597 0.83117 0.6256 0.0
C724 C 0.32029 0.84235 0.6231 0.0
C725 C 0.32345 0.84854 0.63201 0.0
U726 U 0.35116 0.85037 0.66196 0.0
O727 O 0.35782 0.86517 0.66933 0.0
O728 O 0.3473 0.85423 0.67883 0.0
C729 C 0.35247 0.86359 0.67841 0.0
C730 C 0.33585 0.85229 0.64742 0.0
C731 C 0.34637 0.87279 0.68245 0.0
C732 C 0.33428 0.88776 0.67962 0.0
C733 C 0.34023 0.87923 0.6755 0.0
C734 C 0.3405 0.88343 0.69768 0.0
C735 C 0.33429 0.8899 0.69077 0.0
C736 C 0.34649 0.87497 0.69354 0.0
C737 C 0.3741 0.83056 0.66656 0.0
C738 C 0.3894 0.83335 0.67864 0.0
C739 C 0.38449 0.8153 0.67277 0.0
C740 C 0.37601 0.81946 0.66667 0.0
C741 C 0.39127 0.8222 0.67883 0.0
C742 C 0.38084 0.8375 0.6726 0.0
C743 C 0.36492 0.83464 0.66026 0.0
O744 O 0.33445 0.84712 0.65663 0.0
O745 O 0.34517 0.85756 0.64684 0.0
O746 O 0.36637 0.8441 0.65556 0.0
O747 O 0.35541 0.83345 0.66489 0.0
H748 H 0.34639 0.83534 0.63888 0.0
H749 H 0.34098 0.82454 0.62322 0.0
H750 H 0.31288 0.84431 0.61891 0.0
H751 H 0.31849 0.85519 0.63448 0.0
H752 H 0.32948 0.89254 0.67413 0.0
H753 H 0.33996 0.87761 0.66691 0.0
H754 H 0.34074 0.88494 0.70628 0.0
H755 H 0.35118 0.87007 0.69903 0.0
H756 H 0.39443 0.83883 0.68333 0.0
H757 H 0.3858 0.80669 0.67269 0.0
H758 H 0.37088 0.81398 0.66206 0.0
H759 H 0.37945 0.84609 0.67271 0.0
C760 C 0.63634 0.82708 0.65996 0.0
C761 C 0.6379 0.82581 0.67114 0.0
C762 C 0.61906 0.82011 0.67342 0.0
C763 C 0.62939 0.8223 0.67777 0.0
C764 C 0.61749 0.82153 0.66224 0.0
C765 C 0.62606 0.82494 0.65558 0.0
U766 U 0.65984 0.84627 0.65342 0.0
O767 O 0.67642 0.84308 0.64819 0.0
O768 O 0.66585 0.85277 0.63789 0.0
C769 C 0.67514 0.84788 0.63878 0.0
C770 C 0.64534 0.83057 0.65282 0.0
C771 C 0.67842 0.84153 0.62942 0.0
C772 C 0.67742 0.82508 0.61891 0.0
C773 C 0.67365 0.83138 0.62738 0.0
C774 C 0.69054 0.83915 0.61425 0.0
C775 C 0.686 0.82884 0.61233 0.0
C776 C 0.68679 0.84542 0.62274 0.0
C777 C 0.6661 0.8695 0.67274 0.0
C778 C 0.68363 0.87774 0.67683 0.0
C779 C 0.66727 0.88768 0.67992 0.0
C780 C 0.66108 0.87892 0.67616 0.0
C781 C 0.67863 0.88716 0.68042 0.0
C782 C 0.67744 0.86903 0.67297 0.0
C783 C 0.65939 0.8602 0.66925 0.0
O784 O 0.64409 0.83981 0.64774 0.0
O785 O 0.65513 0.82943 0.65677 0.0
O786 O 0.66386 0.85069 0.6701 0.0
O787 O 0.65399 0.86149 0.66019 0.0
H788 H 0.64573 0.82745 0.67478 0.0
H789 H 0.63098 0.82113 0.6863 0.0
H790 H 0.60962 0.82008 0.65862 0.0
H791 H 0.62466 0.82591 0.64698 0.0
H792 H 0.67368 0.81723 0.61755 0.0
H793 H 0.66715 0.82827 0.63247 0.0
H794 H 0.69724 0.84222 0.60942 0.0
H795 H 0.69058 0.85323 0.62424 0.0
H796 H 0.69233 0.87698 0.67722 0.0
H797 H 0.66315 0.89486 0.68243 0.0
H798 H 0.65234 0.87946 0.67599 0.0
H799 H 0.68154 0.86188 0.67032 0.0
C800 C 0.63954 0.82648 0.33788 0.0
C801 C 0.63629 0.83304 0.32925 0.0
C802 C 0.6207 0.82115 0.32608 0.0
C803 C 0.62694 0.8304 0.32339 0.0
C804 C 0.62411 0.81453 0.33467 0.0
C805 C 0.63345 0.81719 0.34052 0.0
U806 U 0.66313 0.84558 0.34374 0.0
O807 O 0.66942 0.8516 0.35925 0.0
O808 O 0.6799 0.84246 0.34851 0.0
C809 C 0.67874 0.84684 0.35807 0.0
C810 C 0.64909 0.82943 0.34434 0.0
C811 C 0.68214 0.84019 0.36728 0.0
C812 C 0.68216 0.82307 0.37692 0.0
C813 C 0.67873 0.82936 0.3682 0.0
C814 C 0.69224 0.83844 0.384 0.0
C815 C 0.68899 0.82753 0.38489 0.0
C816 C 0.68885 0.8447 0.37524 0.0
C817 C 0.66784 0.87046 0.32636 0.0
C818 C 0.68239 0.88315 0.33067 0.0
C819 C 0.67119 0.88612 0.31489 0.0
C820 C 0.66525 0.87669 0.31727 0.0
C821 C 0.6798 0.88948 0.32159 0.0
C822 C 0.67646 0.87371 0.33303 0.0
C823 C 0.66153 0.86061 0.32885 0.0
O824 O 0.65841 0.82899 0.33926 0.0
O825 O 0.64812 0.8382 0.35013 0.0
O826 O 0.65619 0.86077 0.33803 0.0
O827 O 0.66665 0.85157 0.32732 0.0
H828 H 0.64093 0.84025 0.32711 0.0
H829 H 0.6246 0.83559 0.31675 0.0
H830 H 0.61941 0.80743 0.33703 0.0
H831 H 0.63584 0.81206 0.3472 0.0
H832 H 0.67941 0.81473 0.37747 0.0
H833 H 0.67345 0.82577 0.36217 0.0
H834 H 0.69756 0.84207 0.38997 0.0
H835 H 0.69153 0.85306 0.37465 0.0
H836 H 0.68906 0.88545 0.33591 0.0
H837 H 0.66892 0.89089 0.30791 0.0
H838 H 0.6586 0.87427 0.31205 0.0
H839 H 0.67859 0.86895 0.34006 0.0
C840 C 0.63363 0.15992 0.33175 0.0
C841 C 0.63081 0.16897 0.33778 0.0
C842 C 0.61586 0.17243 0.32546 0.0
C843 C 0.62199 0.17517 0.33466 0.0
C844 C 0.61868 0.16326 0.31953 0.0
C845 C 0.6275 0.15707 0.32265 0.0
U846 U 0.658 0.15552 0.34979 0.0
O847 O 0.66474 0.14063 0.35657 0.0
O848 O 0.67458 0.15093 0.34575 0.0
C849 C 0.67381 0.14175 0.35109 0.0
C850 C 0.64311 0.15359 0.33476 0.0
C851 C 0.67722 0.13221 0.34512 0.0
C852 C 0.67529 0.11984 0.33007 0.0
C853 C 0.67174 0.12881 0.33578 0.0
C854 C 0.68978 0.11758 0.34303 0.0
C855 C 0.6844 0.11416 0.3336 0.0
C856 C 0.68622 0.12653 0.34873 0.0
C857 C 0.66369 0.17592 0.37248 0.0
C858 C 0.67288 0.17375 0.38975 0.0
C859 C 0.67211 0.1914 0.38131 0.0
C860 C 0.66629 0.18697 0.37268 0.0
C861 C 0.67539 0.18488 0.39002 0.0
C862 C 0.66711 0.16931 0.38105 0.0
C863 C 0.65724 0.17163 0.36337 0.0
O864 O 0.6525 0.1585 0.33316 0.0
O865 O 0.64247 0.1486 0.34416 0.0
O866 O 0.65208 0.16237 0.36496 0.0
O867 O 0.66181 0.17244 0.35381 0.0
H868 H 0.63546 0.17127 0.34484 0.0
H869 H 0.61996 0.18209 0.33949 0.0
H870 H 0.61421 0.161 0.31234 0.0
H871 H 0.6296 0.15012 0.31789 0.0
H872 H 0.67102 0.11747 0.32279 0.0
H873 H 0.66477 0.13314 0.33288 0.0
H874 H 0.6967 0.11329 0.34608 0.0
H875 H 0.69052 0.12903 0.35595 0.0
H876 H 0.67519 0.1685 0.39635 0.0
H877 H 0.67409 0.19994 0.38111 0.0
H878 H 0.66378 0.19222 0.36614 0.0
H879 H 0.66525 0.16073 0.38109 0.0
C880 C 0.32338 0.13809 0.34289 0.0
C881 C 0.32892 0.1335 0.33423 0.0
C882 C 0.31535 0.11899 0.3333 0.0
C883 C 0.32492 0.12402 0.32945 0.0
C884 C 0.30981 0.12372 0.34192 0.0
C885 C 0.3138 0.13318 0.34666 0.0
U886 U 0.34344 0.16196 0.34545 0.0
O887 O 0.34029 0.17885 0.34942 0.0
O888 O 0.35041 0.16917 0.36017 0.0
C889 C 0.34536 0.17829 0.35874 0.0
C890 C 0.32746 0.14793 0.34816 0.0
C891 C 0.33923 0.18205 0.36811 0.0
C892 C 0.32293 0.18186 0.37906 0.0
C893 C 0.32879 0.17796 0.3703 0.0
C894 C 0.33802 0.19374 0.38367 0.0
C895 C 0.32746 0.18984 0.38581 0.0
C896 C 0.34384 0.18989 0.37488 0.0
C897 C 0.36676 0.16665 0.32604 0.0
C898 C 0.37685 0.18367 0.32584 0.0
C899 C 0.38318 0.16863 0.31536 0.0
C900 C 0.37438 0.16231 0.319 0.0
C901 C 0.38445 0.17941 0.31867 0.0
C902 C 0.3681 0.17734 0.32952 0.0
C903 C 0.35741 0.16006 0.32967 0.0
O904 O 0.33685 0.14715 0.35305 0.0
O905 O 0.32655 0.15689 0.34251 0.0
O906 O 0.34797 0.16461 0.32847 0.0
O907 O 0.35853 0.15529 0.33911 0.0
H908 H 0.33635 0.13722 0.33122 0.0
H909 H 0.32943 0.12052 0.32289 0.0
H910 H 0.30233 0.12014 0.34496 0.0
H911 H 0.3094 0.13666 0.35331 0.0
H912 H 0.31487 0.17861 0.38057 0.0
H913 H 0.32514 0.17184 0.36518 0.0
H914 H 0.34168 0.19998 0.38865 0.0
H915 H 0.3519 0.19311 0.3733 0.0
H916 H 0.3777 0.1919 0.32866 0.0
H917 H 0.38886 0.16514 0.30979 0.0
H918 H 0.37347 0.15406 0.31625 0.0
H919 H 0.36235 0.1808 0.33504 0.0
C920 C 0.34169 0.86967 0.32889 0.0
C921 C 0.3318 0.87256 0.33351 0.0
C922 C 0.33053 0.88765 0.32085 0.0
C923 C 0.32626 0.88151 0.32952 0.0
C924 C 0.34054 0.88479 0.31643 0.0
C925 C 0.34605 0.87589 0.32041 0.0
U926 U 0.34612 0.84547 0.34797 0.0
O927 O 0.35079 0.82898 0.34392 0.0
O928 O 0.36152 0.83905 0.35397 0.0
C929 C 0.36036 0.83006 0.34849 0.0
C930 C 0.34752 0.8601 0.33255 0.0
C931 C 0.36975 0.82704 0.34186 0.0
C932 C 0.3782 0.82395 0.32443 0.0
C933 C 0.36924 0.82698 0.33051 0.0
C934 C 0.38839 0.82121 0.34091 0.0
C935 C 0.38788 0.82103 0.32956 0.0
C936 C 0.3794 0.82415 0.34699 0.0
C937 C 0.3275 0.83928 0.37185 0.0
C938 C 0.32779 0.82222 0.38162 0.0
C939 C 0.31702 0.83684 0.38832 0.0
C940 C 0.32043 0.84332 0.37962 0.0
C941 C 0.32058 0.82617 0.38937 0.0
C942 C 0.33124 0.82872 0.37295 0.0
C943 C 0.33075 0.84607 0.36256 0.0
O944 O 0.35265 0.86099 0.34182 0.0
O945 O 0.34231 0.85082 0.33146 0.0
O946 O 0.32946 0.84159 0.35304 0.0
O947 O 0.34005 0.8513 0.36356 0.0
H948 H 0.32833 0.86783 0.34008 0.0
H949 H 0.31855 0.88348 0.33306 0.0
H950 H 0.34415 0.88946 0.30988 0.0
H951 H 0.3537 0.8738 0.31679 0.0
H952 H 0.37761 0.82402 0.3157 0.0
H953 H 0.36194 0.82928 0.32633 0.0
H954 H 0.39571 0.81894 0.34508 0.0
H955 H 0.37998 0.82414 0.35573 0.0
H956 H 0.3308 0.8141 0.38228 0.0
H957 H 0.3114 0.84009 0.39411 0.0
H958 H 0.31747 0.85145 0.3789 0.0
H959 H 0.33676 0.82549 0.36706 0.0
C960 C 0.6615 0.63327 0.17862 0.0
C961 C 0.67224 0.6321 0.17522 0.0
C962 C 0.67372 0.61579 0.18618 0.0
C963 C 0.67831 0.62345 0.179 0.0
C964 C 0.66288 0.61688 0.18937 0.0
C965 C 0.65683 0.62557 0.18563 0.0
U966 U 0.65707 0.6568 0.15933 0.0
O967 O 0.64199 0.66333 0.15267 0.0
O968 O 0.65272 0.67354 0.16257 0.0
C969 C 0.64329 0.67256 0.15771 0.0
C970 C 0.6552 0.64259 0.17507 0.0
C971 C 0.63396 0.67614 0.16403 0.0
C972 C 0.62418 0.67713 0.181 0.0
C973 C 0.63274 0.67316 0.17493 0.0
C974 C 0.61775 0.68682 0.16526 0.0
C975 C 0.61664 0.68408 0.17626 0.0
C976 C 0.62636 0.6829 0.15921 0.0
C977 C 0.67729 0.66161 0.13625 0.0
C978 C 0.67525 0.67545 0.12244 0.0
C979 C 0.69222 0.66614 0.12421 0.0
C980 C 0.6879 0.66001 0.13275 0.0
C981 C 0.68597 0.67398 0.119 0.0
C982 C 0.67096 0.66934 0.13104 0.0
C983 C 0.67314 0.65538 0.14557 0.0
O984 O 0.66009 0.65203 0.17616 0.0
O985 O 0.65022 0.64151 0.16574 0.0
O986 O 0.66373 0.65042 0.14424 0.0
O987 O 0.67404 0.66024 0.15494 0.0
H988 H 0.67595 0.63792 0.16973 0.0
H989 H 0.68659 0.62275 0.17628 0.0
H990 H 0.65915 0.61116 0.19495 0.0
H991 H 0.64855 0.62635 0.18832 0.0
H992 H 0.62345 0.67475 0.18941 0.0
H993 H 0.63849 0.66788 0.17877 0.0
H994 H 0.61213 0.69221 0.16141 0.0
H995 H 0.62718 0.68528 0.15081 0.0
H996 H 0.67029 0.6815 0.11865 0.0
H997 H 0.70046 0.66475 0.12167 0.0
H998 H 0.6929 0.65408 0.13669 0.0
H999 H 0.66276 0.67073 0.1337 0.0
C1000 C 0.32975 0.66627 0.13143 0.0
C1001 C 0.33187 0.67743 0.13185 0.0
C1002 C 0.32315 0.6799 0.11438 0.0
C1003 C 0.32854 0.68417 0.12347 0.0
C1004 C 0.32113 0.66869 0.11396 0.0
C1005 C 0.32439 0.66195 0.12242 0.0
U1006 U 0.34939 0.66053 0.15398 0.0
O1007 O 0.34684 0.65504 0.1707 0.0
O1008 O 0.35666 0.64546 0.1597 0.0
C1009 C 0.35215 0.64609 0.16928 0.0
C1010 C 0.3333 0.65914 0.14025 0.0
C1011 C 0.34673 0.63623 0.17333 0.0
C1012 C 0.33112 0.62403 0.17428 0.0
C1013 C 0.3364 0.63306 0.1697 0.0
C1014 C 0.34658 0.62119 0.18595 0.0
C1015 C 0.3361 0.6181 0.18258 0.0
C1016 C 0.35183 0.63017 0.18136 0.0
C1017 C 0.37235 0.68071 0.15903 0.0
C1018 C 0.38263 0.68083 0.17576 0.0
C1019 C 0.38836 0.69222 0.16074 0.0
C1020 C 0.37965 0.68831 0.1546 0.0
C1021 C 0.38986 0.68863 0.17143 0.0
C1022 C 0.37397 0.67687 0.16959 0.0
C1023 C 0.36294 0.67705 0.15269 0.0
O1024 O 0.3426 0.65445 0.13867 0.0
O1025 O 0.33232 0.66309 0.15002 0.0
O1026 O 0.35361 0.67737 0.15775 0.0
O1027 O 0.36422 0.66811 0.14724 0.0
H1028 H 0.33608 0.68094 0.1387 0.0
H1029 H 0.33009 0.69277 0.12417 0.0
H1030 H 0.31716 0.6651 0.10702 0.0
H1031 H 0.32277 0.65334 0.12191 0.0
H1032 H 0.32303 0.62187 0.17157 0.0
H1033 H 0.33235 0.63768 0.16349 0.0
H1034 H 0.35069 0.61668 0.19219 0.0
H1035 H 0.35982 0.6325 0.18423 0.0
H1036 H 0.38366 0.67783 0.18393 0.0
H1037 H 0.39374 0.69829 0.15722 0.0
H1038 H 0.37852 0.69134 0.14645 0.0
H1039 H 0.36845 0.67092 0.17311 0.0
C1040 C 0.32714 0.34076 0.13941 0.0
C1041 C 0.33304 0.33173 0.13633 0.0
C1042 C 0.32123 0.3291 0.12075 0.0
C1043 C 0.33011 0.32595 0.12707 0.0
C1044 C 0.31534 0.33814 0.12392 0.0
C1045 C 0.31828 0.34391 0.13316 0.0
U1046 U 0.34482 0.34535 0.16429 0.0
O1047 O 0.3516 0.3604 0.17102 0.0
O1048 O 0.34029 0.35042 0.18064 0.0
C1049 C 0.34574 0.35961 0.17986 0.0
C1050 C 0.33012 0.34695 0.14907 0.0
C1051 C 0.33969 0.36927 0.18268 0.0
C1052 C 0.32649 0.38289 0.17829 0.0
C1053 C 0.33209 0.37361 0.17552 0.0
C1054 C 0.33594 0.38349 0.19544 0.0
C1055 C 0.32837 0.38795 0.18828 0.0
C1056 C 0.34155 0.37424 0.19265 0.0
C1057 C 0.36751 0.32563 0.17069 0.0
C1058 C 0.38354 0.32901 0.18167 0.0
C1059 C 0.37731 0.31066 0.17849 0.0
C1060 C 0.36877 0.31451 0.17225 0.0
C1061 C 0.38481 0.31786 0.18324 0.0
C1062 C 0.37493 0.33287 0.1755 0.0
C1063 C 0.35847 0.32941 0.16399 0.0
O1064 O 0.32833 0.342 0.15834 0.0
O1065 O 0.33958 0.35198 0.14866 0.0
O1066 O 0.36009 0.33855 0.15871 0.0
O1067 O 0.34883 0.32859 0.16843 0.0
H1068 H 0.33989 0.32917 0.1411 0.0
H1069 H 0.33474 0.31897 0.12491 0.0
H1070 H 0.30856 0.34087 0.11915 0.0
H1071 H 0.31367 0.35088 0.13541 0.0
H1072 H 0.32063 0.38606 0.17265 0.0
H1073 H 0.33051 0.36982 0.1678 0.0
H1074 H 0.33769 0.38727 0.20313 0.0
H1075 H 0.3474 0.371 0.19826 0.0
H1076 H 0.38913 0.33475 0.18535 0.0
H1077 H 0.37813 0.30203 0.17947 0.0
H1078 H 0.36314 0.3088 0.1686 0.0
H1079 H 0.37409 0.3415 0.17449 0.0
C1080 C 0.63019 0.32948 0.16239 0.0
C1081 C 0.62752 0.33469 0.17203 0.0
C1082 C 0.61308 0.32143 0.17538 0.0
C1083 C 0.61904 0.33069 0.17847 0.0
C1084 C 0.61563 0.3164 0.16557 0.0
C1085 C 0.62414 0.3204 0.15915 0.0
U1086 U 0.65354 0.34928 0.15781 0.0
O1087 O 0.67055 0.34638 0.15377 0.0
O1088 O 0.6606 0.35613 0.1429 0.0
C1089 C 0.6699 0.35138 0.1444 0.0
C1090 C 0.63957 0.33317 0.156 0.0
C1091 C 0.67416 0.34542 0.13516 0.0
C1092 C 0.67179 0.33286 0.12034 0.0
C1093 C 0.66744 0.33871 0.12887 0.0
C1094 C 0.6896 0.34033 0.12437 0.0
C1095 C 0.68294 0.33355 0.11806 0.0
C1096 C 0.68524 0.34623 0.13283 0.0
C1097 C 0.6581 0.37244 0.1772 0.0
C1098 C 0.67434 0.38372 0.17595 0.0
C1099 C 0.66113 0.38696 0.18996 0.0
C1100 C 0.6547 0.37841 0.18609 0.0
C1101 C 0.67108 0.38963 0.18501 0.0
C1102 C 0.6679 0.3752 0.17208 0.0
C1103 C 0.65161 0.3631 0.17359 0.0
O1104 O 0.63851 0.34243 0.15089 0.0
O1105 O 0.64893 0.33235 0.16095 0.0
O1106 O 0.65635 0.35377 0.17472 0.0
O1107 O 0.64679 0.36423 0.1642 0.0
H1108 H 0.63211 0.34174 0.17464 0.0
H1109 H 0.61719 0.33481 0.18591 0.0
H1110 H 0.61128 0.30919 0.16303 0.0
H1111 H 0.62613 0.31626 0.15175 0.0
H1112 H 0.6665 0.3276 0.11568 0.0
H1113 H 0.65888 0.33791 0.13062 0.0
H1114 H 0.69819 0.34109 0.12274 0.0
H1115 H 0.69054 0.35136 0.13763 0.0
H1116 H 0.6819 0.38567 0.17189 0.0
H1117 H 0.65846 0.39127 0.19702 0.0
H1118 H 0.64717 0.37635 0.19016 0.0
H1119 H 0.67062 0.37066 0.16518 0.0
C1120 C 0.63335 0.33311 0.84562 0.0
C1121 C 0.63186 0.33761 0.83531 0.0
C1122 C 0.61646 0.32549 0.83226 0.0
C1123 C 0.6235 0.33382 0.82868 0.0
C1124 C 0.61785 0.32116 0.8427 0.0
C1125 C 0.62627 0.32493 0.84932 0.0
U1126 U 0.65669 0.35262 0.85045 0.0
O1127 O 0.66298 0.35991 0.86542 0.0
O1128 O 0.6734 0.34977 0.85558 0.0
C1129 C 0.67219 0.35483 0.86478 0.0
C1130 C 0.64245 0.33676 0.85238 0.0
C1131 C 0.67515 0.34853 0.87438 0.0
C1132 C 0.67233 0.33283 0.88594 0.0
C1133 C 0.66913 0.33922 0.87722 0.0
C1134 C 0.68747 0.34512 0.88923 0.0
C1135 C 0.68161 0.33564 0.89198 0.0
C1136 C 0.68427 0.3515 0.88047 0.0
C1137 C 0.66174 0.37491 0.82938 0.0
C1138 C 0.67481 0.38964 0.83154 0.0
C1139 C 0.66713 0.38588 0.81391 0.0
C1140 C 0.66097 0.37739 0.81835 0.0
C1141 C 0.67415 0.39206 0.82044 0.0
C1142 C 0.66869 0.38109 0.83598 0.0
C1143 C 0.65549 0.36567 0.83373 0.0
O1144 O 0.65203 0.33563 0.848 0.0
O1145 O 0.64127 0.34619 0.85698 0.0
O1146 O 0.65034 0.36728 0.84286 0.0
O1147 O 0.66042 0.3564 0.83346 0.0
H1148 H 0.63724 0.34398 0.83237 0.0
H1149 H 0.62253 0.33741 0.82074 0.0
H1150 H 0.61259 0.31469 0.84564 0.0
H1151 H 0.62733 0.32138 0.85726 0.0
H1152 H 0.66757 0.32567 0.88795 0.0
H1153 H 0.66205 0.33683 0.87258 0.0
H1154 H 0.6947 0.34743 0.89366 0.0
H1155 H 0.68902 0.35864 0.87834 0.0
H1156 H 0.68024 0.39421 0.83674 0.0
H1157 H 0.66638 0.38763 0.80536 0.0
H1158 H 0.65566 0.37269 0.81316 0.0
H1159 H 0.66945 0.37922 0.8445 0.0
C1160 C 0.63688 0.66343 0.831 0.0
C1161 C 0.63235 0.67114 0.83779 0.0
C1162 C 0.61868 0.67501 0.82418 0.0
C1163 C 0.62329 0.67687 0.83442 0.0
C1164 C 0.6233 0.66728 0.81742 0.0
C1165 C 0.63232 0.66154 0.82082 0.0
U1166 U 0.6605 0.65892 0.85022 0.0
O1167 O 0.66742 0.64387 0.85637 0.0
O1168 O 0.67742 0.6551 0.84668 0.0
C1169 C 0.67669 0.64559 0.85139 0.0
C1170 C 0.64646 0.65743 0.83435 0.0
C1171 C 0.68065 0.63657 0.84497 0.0
C1172 C 0.67846 0.62371 0.83037 0.0
C1173 C 0.6744 0.6321 0.83659 0.0
C1174 C 0.69501 0.62419 0.84088 0.0
C1175 C 0.68886 0.61973 0.8324 0.0
C1176 C 0.69093 0.63253 0.84711 0.0
C1177 C 0.66515 0.67734 0.87425 0.0
C1178 C 0.68197 0.67723 0.88438 0.0
C1179 C 0.66712 0.68809 0.89048 0.0
C1180 C 0.66086 0.68452 0.88173 0.0
C1181 C 0.67779 0.68458 0.89183 0.0
C1182 C 0.67569 0.67362 0.87568 0.0
C1183 C 0.65869 0.67401 0.86483 0.0
O1184 O 0.6557 0.66281 0.83355 0.0
O1185 O 0.6455 0.65192 0.84343 0.0
O1186 O 0.6538 0.66452 0.86564 0.0
O1187 O 0.66342 0.67562 0.85543 0.0
H1188 H 0.63583 0.67275 0.84566 0.0
H1189 H 0.61999 0.68284 0.83976 0.0
H1190 H 0.61985 0.66556 0.80956 0.0
H1191 H 0.63573 0.65562 0.81548 0.0
H1192 H 0.67358 0.62051 0.82382 0.0
H1193 H 0.66645 0.63517 0.83479 0.0
H1194 H 0.70299 0.62122 0.84272 0.0
H1195 H 0.69584 0.63589 0.85357 0.0
H1196 H 0.6901 0.67426 0.88529 0.0
H1197 H 0.6637 0.69381 0.89603 0.0
H1198 H 0.65273 0.68746 0.88074 0.0
H1199 H 0.67911 0.66801 0.87001 0.0
C1200 C 0.32717 0.63402 0.84099 0.0
C1201 C 0.32845 0.63462 0.82973 0.0
C1202 C 0.32022 0.61671 0.82781 0.0
C1203 C 0.32494 0.62609 0.82321 0.0
C1204 C 0.31905 0.61611 0.83912 0.0
C1205 C 0.32247 0.62471 0.84563 0.0
U1206 U 0.34713 0.65682 0.84699 0.0
O1207 O 0.34463 0.67342 0.85228 0.0
O1208 O 0.35408 0.66245 0.8624 0.0
C1209 C 0.34949 0.67189 0.8616 0.0
C1210 C 0.33087 0.64294 0.84795 0.0
C1211 C 0.34339 0.67535 0.87111 0.0
C1212 C 0.32652 0.67647 0.88106 0.0
C1213 C 0.33245 0.67238 0.87245 0.0
C1214 C 0.34253 0.68618 0.88732 0.0
C1215 C 0.33147 0.68353 0.88851 0.0
C1216 C 0.34842 0.68214 0.87867 0.0
C1217 C 0.37043 0.66211 0.82731 0.0
C1218 C 0.38589 0.67392 0.83105 0.0
C1219 C 0.38161 0.66902 0.81259 0.0
C1220 C 0.37281 0.66276 0.81626 0.0
C1221 C 0.38822 0.67469 0.81995 0.0
C1222 C 0.37702 0.66773 0.8347 0.0
C1223 C 0.36085 0.65582 0.83089 0.0
O1224 O 0.34009 0.64143 0.85298 0.0
O1225 O 0.33008 0.65267 0.84376 0.0
O1226 O 0.35166 0.66092 0.83025 0.0
O1227 O 0.36191 0.65028 0.83992 0.0
H1228 H 0.33213 0.6417 0.82596 0.0
H1229 H 0.32584 0.62692 0.81454 0.0
H1230 H 0.31562 0.60896 0.84296 0.0
H1231 H 0.3215 0.62406 0.85432 0.0
H1232 H 0.31805 0.6742 0.88184 0.0
H1233 H 0.32845 0.66709 0.8667 0.0
H1234 H 0.34653 0.69169 0.89285 0.0
H1235 H 0.35686 0.68452 0.87774 0.0
H1236 H 0.39078 0.6783 0.83688 0.0
H1237 H 0.38327 0.66939 0.80401 0.0
H1238 H 0.36779 0.6585 0.81044 0.0
H1239 H 0.37525 0.66741 0.84327 0.0
C1240 C 0.34283 0.36937 0.82605 0.0
C1241 C 0.33354 0.37213 0.83183 0.0
C1242 C 0.33019 0.38677 0.81909 0.0
C1243 C 0.32726 0.38076 0.82837 0.0
C1244 C 0.3396 0.38403 0.81344 0.0
C1245 C 0.34586 0.37539 0.81689 0.0
U1246 U 0.34867 0.34641 0.84563 0.0
O1247 O 0.35315 0.32965 0.84262 0.0
O1248 O 0.3643 0.34039 0.85148 0.0
C1249 C 0.36293 0.33106 0.84662 0.0
C1250 C 0.34931 0.36013 0.82939 0.0
C1251 C 0.37201 0.32762 0.83975 0.0
C1252 C 0.37911 0.32181 0.82246 0.0
C1253 C 0.37049 0.32531 0.82875 0.0
C1254 C 0.39099 0.32311 0.83796 0.0
C1255 C 0.38948 0.32065 0.82697 0.0
C1256 C 0.38234 0.32652 0.84428 0.0
C1257 C 0.33024 0.34249 0.87036 0.0
C1258 C 0.33171 0.32759 0.8831 0.0
C1259 C 0.31835 0.34131 0.88593 0.0
C1260 C 0.32181 0.34662 0.87652 0.0
C1261 C 0.32326 0.33173 0.88934 0.0
C1262 C 0.3352 0.33294 0.87368 0.0
C1263 C 0.33363 0.3482 0.86045 0.0
O1264 O 0.35496 0.36148 0.83829 0.0
O1265 O 0.3443 0.3507 0.82896 0.0
O1266 O 0.33217 0.34285 0.85142 0.0
O1267 O 0.34304 0.35332 0.8609 0.0
H1268 H 0.33112 0.36757 0.83895 0.0
H1269 H 0.32013 0.38274 0.83296 0.0
H1270 H 0.342 0.3884 0.80619 0.0
H1271 H 0.353 0.37334 0.81234 0.0
H1272 H 0.37757 0.31983 0.81408 0.0
H1273 H 0.36263 0.3261 0.82498 0.0
H1274 H 0.39888 0.32247 0.84169 0.0
H1275 H 0.38371 0.32828 0.85274 0.0
H1276 H 0.33573 0.32029 0.88557 0.0
H1277 H 0.31173 0.34463 0.89046 0.0
H1278 H 0.31787 0.35396 0.87403 0.0
H1279 H 0.34174 0.32964 0.869 0.0
C1280 C 0.31284 0.2913 0.04426 0.0
C1281 C 0.30197 0.29337 0.04972 0.0
C1282 C 0.28988 0.27972 0.04235 0.0
C1283 C 0.28133 0.28557 0.03799 0.0
C1284 C 0.2753 0.28153 0.02923 0.0
C1285 C 0.278 0.27148 0.02469 0.0
C1286 C 0.28651 0.26547 0.02926 0.0
C1287 C 0.29222 0.2696 0.03818 0.0
C1288 C 0.26617 0.28808 0.02472 0.0
C1289 C 0.28978 0.25484 0.02452 0.0
C1290 C 0.2978 0.30684 0.96734 0.0
C1291 C 0.29795 0.29724 0.9596 0.0
C1292 C 0.28349 0.28618 0.96735 0.0
C1293 C 0.28902 0.27738 0.97165 0.0
C1294 C 0.28477 0.27147 0.98045 0.0
C1295 C 0.27485 0.27454 0.98511 0.0
C1296 C 0.26913 0.28328 0.98059 0.0
C1297 C 0.27345 0.28885 0.97161 0.0
C1298 C 0.29099 0.26208 0.9849 0.0
C1299 C 0.25864 0.28694 0.98544 0.0
C1300 C 0.22041 0.2269 0.96691 0.0
C1301 C 0.23074 0.22302 0.96917 0.0
C1302 C 0.2363 0.22623 0.97856 0.0
C1303 C 0.23152 0.23371 0.98562 0.0
C1304 C 0.22105 0.23757 0.98333 0.0
C1305 C 0.21556 0.23395 0.97408 0.0
C1306 C 0.24722 0.22155 0.98095 0.0
C1307 C 0.21567 0.24555 0.99062 0.0
C1308 C 0.22473 0.22925 0.06879 0.0
C1309 C 0.21651 0.22245 0.06234 0.0
C1310 C 0.22549 0.22221 0.04457 0.0
C1311 C 0.2326 0.21637 0.0382 0.0
C1312 C 0.23708 0.2208 0.02869 0.0
C1313 C 0.23416 0.23129 0.02535 0.0
C1314 C 0.22677 0.23717 0.0316 0.0
C1315 C 0.22262 0.23264 0.04121 0.0
C1316 C 0.24495 0.2143 0.02225 0.0
C1317 C 0.2232 0.24823 0.02812 0.0
C1318 C 0.27241 0.26765 0.01474 0.0
C1319 C 0.2757 0.27223 0.0049 0.0
C1320 C 0.27088 0.26913 0.99515 0.0
C1321 C 0.26254 0.26114 0.99516 0.0
C1322 C 0.25754 0.25777 0.98552 0.0
C1323 C 0.24921 0.25004 0.98563 0.0
C1324 C 0.2457 0.24521 0.99537 0.0
C1325 C 0.23729 0.23728 0.99557 0.0
C1326 C 0.23391 0.2328 0.00543 0.0
C1327 C 0.23864 0.23602 0.01518 0.0
C1328 C 0.24716 0.24382 0.01514 0.0
C1329 C 0.25221 0.24715 0.02478 0.0
C1330 C 0.26042 0.255 0.02468 0.0
C1331 C 0.26403 0.25971 0.01493 0.0
C1332 C 0.2591 0.25643 0.00509 0.0
C1333 C 0.25067 0.24845 0.0052 0.0
C1334 C 0.2173 0.2377 0.94465 0.0
C1335 C 0.21856 0.22572 0.94747 0.0
O1336 O 0.29604 0.28377 0.05049 0.0
O1337 O 0.22165 0.21748 0.0538 0.0
O1338 O 0.21493 0.22381 0.95792 0.0
O1339 O 0.28777 0.29232 0.95923 0.0
H1340 H 0.29754 0.29929 0.04465 0.0
H1341 H 0.31148 0.28812 0.036 0.0
H1342 H 0.3175 0.28531 0.04898 0.0
H1343 H 0.31769 0.29892 0.04358 0.0
H1344 H 0.27938 0.2933 0.04143 0.0
H1345 H 0.29881 0.26513 0.04169 0.0
H1346 H 0.2685 0.29131 0.01664 0.0
H1347 H 0.26416 0.29496 0.03 0.0
H1348 H 0.25881 0.2829 0.02366 0.0
H1349 H 0.29708 0.25157 0.02851 0.0
H1350 H 0.29144 0.25583 0.01575 0.0
H1351 H 0.28304 0.24885 0.02541 0.0
H1352 H 0.30399 0.2914 0.96261 0.0
H1353 H 0.30589 0.3109 0.96766 0.0
H1354 H 0.29571 0.30402 0.97564 0.0
H1355 H 0.29171 0.31277 0.96469 0.0
H1356 H 0.29665 0.2751 0.96812 0.0
H1357 H 0.26922 0.29563 0.96815 0.0
H1358 H 0.29441 0.26426 0.9929 0.0
H1359 H 0.29774 0.2598 0.97951 0.0
H1360 H 0.2855 0.25497 0.98608 0.0
H1361 H 0.25565 0.29438 0.9815 0.0
H1362 H 0.25973 0.28848 0.99421 0.0
H1363 H 0.25236 0.28048 0.9846 0.0
H1364 H 0.22727 0.2237 0.94686 0.0
H1365 H 0.23434 0.21734 0.9637 0.0
H1366 H 0.20752 0.2368 0.97226 0.0
H1367 H 0.25359 0.22791 0.97995 0.0
H1368 H 0.24912 0.21477 0.9755 0.0
H1369 H 0.24755 0.21863 0.98945 0.0
H1370 H 0.20823 0.24887 0.98695 0.0
H1371 H 0.22134 0.25234 0.99252 0.0
H1372 H 0.21342 0.24151 0.99836 0.0
H1373 H 0.21003 0.2277 0.0592 0.0
H1374 H 0.22068 0.23327 0.07564 0.0
H1375 H 0.22846 0.23561 0.06358 0.0
H1376 H 0.23124 0.22408 0.07202 0.0
H1377 H 0.23476 0.20833 0.04081 0.0
H1378 H 0.21709 0.2373 0.04595 0.0
H1379 H 0.25242 0.21917 0.02062 0.0
H1380 H 0.24129 0.21219 0.01433 0.0
H1381 H 0.24719 0.20673 0.02647 0.0
H1382 H 0.21645 0.25119 0.03314 0.0
H1383 H 0.22057 0.24812 0.01953 0.0
H1384 H 0.2301 0.25405 0.02877 0.0
H1385 H 0.2821 0.27835 0.00482 0.0
H1386 H 0.25997 0.26112 0.97777 0.0
H1387 H 0.24558 0.24787 0.97797 0.0
H1388 H 0.22737 0.22683 0.00554 0.0
H1389 H 0.24982 0.24376 0.03252 0.0
H1390 H 0.26393 0.25732 0.03236 0.0
H1391 H 0.20868 0.23999 0.94525 0.0
H1392 H 0.22024 0.23945 0.93633 0.0
H1393 H 0.22214 0.24277 0.9503 0.0
C1394 C 0.70862 0.2736 0.94419 0.0
C1395 C 0.70687 0.28421 0.95018 0.0
C1396 C 0.72058 0.28398 0.96467 0.0
C1397 C 0.73024 0.28876 0.96828 0.0
C1398 C 0.73517 0.28535 0.9779 0.0
C1399 C 0.73034 0.27685 0.98399 0.0
C1400 C 0.72053 0.27199 0.98044 0.0
C1401 C 0.71571 0.27564 0.97085 0.0
C1402 C 0.74555 0.29081 0.98154 0.0
C1403 C 0.71518 0.26289 0.98675 0.0
C1404 C 0.72418 0.27925 0.0674 0.0
C1405 C 0.71543 0.28549 0.06137 0.0
C1406 C 0.72355 0.28664 0.04322 0.0
C1407 C 0.72069 0.27615 0.03988 0.0
C1408 C 0.72466 0.27201 0.03017 0.0
C1409 C 0.7319 0.27837 0.02381 0.0
C1410 C 0.73474 0.28895 0.02711 0.0
C1411 C 0.73041 0.29299 0.03671 0.0
C1412 C 0.72112 0.26082 0.02673 0.0
C1413 C 0.74244 0.29596 0.02055 0.0
C1414 C 0.78369 0.23172 0.04351 0.0
C1415 C 0.77374 0.2274 0.03993 0.0
C1416 C 0.76914 0.23094 0.03019 0.0
C1417 C 0.77457 0.23899 0.02397 0.0
C1418 C 0.78473 0.24314 0.02743 0.0
C1419 C 0.78923 0.23933 0.03711 0.0
C1420 C 0.75847 0.22606 0.02654 0.0
C1421 C 0.7908 0.25166 0.02095 0.0
C1422 C 0.78965 0.23988 0.94202 0.0
C1423 C 0.79446 0.23077 0.94885 0.0
C1424 C 0.78262 0.23021 0.96484 0.0
C1425 C 0.77423 0.2245 0.97004 0.0
C1426 C 0.76964 0.22831 0.97962 0.0
C1427 C 0.77358 0.23808 0.98412 0.0
C1428 C 0.78213 0.24387 0.97898 0.0
C1429 C 0.78655 0.2399 0.96941 0.0
C1430 C 0.76053 0.22196 0.98491 0.0
C1431 C 0.78656 0.25429 0.98361 0.0
C1432 C 0.73554 0.27302 0.99409 0.0
C1433 C 0.73192 0.27716 0.00388 0.0
C1434 C 0.73645 0.27393 0.01371 0.0
C1435 C 0.74492 0.26642 0.0138 0.0
C1436 C 0.74987 0.26321 0.02351 0.0
C1437 C 0.75798 0.25559 0.02355 0.0
C1438 C 0.7615 0.25093 0.01387 0.0
C1439 C 0.76962 0.24306 0.01384 0.0
C1440 C 0.77319 0.23887 0.00404 0.0
C1441 C 0.76883 0.24229 0.99421 0.0
C1442 C 0.76048 0.24992 0.99409 0.0
C1443 C 0.75572 0.25332 0.98436 0.0
C1444 C 0.74753 0.26086 0.98433 0.0
C1445 C 0.74384 0.26534 0.99403 0.0
C1446 C 0.74853 0.26202 0.00393 0.0
C1447 C 0.75683 0.25428 0.00397 0.0
C1448 C 0.78232 0.23806 0.06839 0.0
C1449 C 0.78298 0.22717 0.06272 0.0
O1450 O 0.71636 0.28763 0.95519 0.0
O1451 O 0.78659 0.22613 0.95548 0.0
O1452 O 0.7883 0.22852 0.05292 0.0
O1453 O 0.71995 0.29097 0.0526 0.0
H1454 H 0.7004 0.28296 0.95634 0.0
H1455 H 0.71087 0.2671 0.94992 0.0
H1456 H 0.71521 0.27456 0.93813 0.0
H1457 H 0.70106 0.271 0.94 0.0
H1458 H 0.73393 0.2952 0.9635 0.0
H1459 H 0.7082 0.27185 0.96826 0.0
H1460 H 0.74466 0.29374 0.98995 0.0
H1461 H 0.74792 0.29774 0.97625 0.0
H1462 H 0.75218 0.28491 0.98153 0.0
H1463 H 0.70786 0.25957 0.98263 0.0
H1464 H 0.71281 0.26581 0.99485 0.0
H1465 H 0.72099 0.25627 0.98799 0.0
H1466 H 0.70899 0.27979 0.05856 0.0
H1467 H 0.72064 0.27486 0.07446 0.0
H1468 H 0.73069 0.28485 0.07026 0.0
H1469 H 0.72783 0.27321 0.062 0.0
H1470 H 0.71532 0.27112 0.04473 0.0
H1471 H 0.73254 0.30109 0.03931 0.0
H1472 H 0.71872 0.26083 0.01808 0.0
H1473 H 0.71422 0.25762 0.03163 0.0
H1474 H 0.72797 0.25525 0.02767 0.0
H1475 H 0.7447 0.30356 0.02477 0.0
H1476 H 0.73861 0.29806 0.01272 0.0
H1477 H 0.74992 0.2915 0.01875 0.0
H1478 H 0.77459 0.22406 0.06145 0.0
H1479 H 0.76966 0.22112 0.04457 0.0
H1480 H 0.79699 0.24246 0.03987 0.0
H1481 H 0.75216 0.23229 0.02674 0.0
H1482 H 0.75579 0.21917 0.03174 0.0
H1483 H 0.75912 0.22323 0.01808 0.0
H1484 H 0.79816 0.2547 0.02521 0.0
H1485 H 0.78546 0.25856 0.01922 0.0
H1486 H 0.79327 0.24824 0.01309 0.0
H1487 H 0.80117 0.23413 0.95387 0.0
H1488 H 0.79593 0.24346 0.93658 0.0
H1489 H 0.78664 0.24638 0.94726 0.0
H1490 H 0.78278 0.23679 0.93705 0.0
H1491 H 0.77124 0.21705 0.9665 0.0
H1492 H 0.79304 0.24448 0.96558 0.0
H1493 H 0.75332 0.2271 0.98566 0.0
H1494 H 0.76296 0.21953 0.9932 0.0
H1495 H 0.75823 0.21461 0.9803 0.0
H1496 H 0.79345 0.25769 0.97883 0.0
H1497 H 0.78932 0.25294 0.99204 0.0
H1498 H 0.78007 0.26034 0.98385 0.0
H1499 H 0.72543 0.28292 0.00386 0.0
H1500 H 0.7475 0.26652 0.0312 0.0
H1501 H 0.76146 0.2534 0.03127 0.0
H1502 H 0.77954 0.23296 0.00407 0.0
H1503 H 0.75824 0.25015 0.97665 0.0
H1504 H 0.74413 0.26313 0.9766 0.0
H1505 H 0.77813 0.2371 0.07629 0.0
H1506 H 0.77766 0.24377 0.06333 0.0
H1507 H 0.79055 0.24158 0.06975 0.0
C1508 C 0.79913 0.7722 0.06586 0.0
C1509 C 0.8013 0.78292 0.05989 0.0
C1510 C 0.78783 0.78242 0.04517 0.0
C1511 C 0.77818 0.78678 0.04143 0.0
C1512 C 0.7733 0.78317 0.03182 0.0
C1513 C 0.77819 0.7749 0.02585 0.0
C1514 C 0.78797 0.77045 0.02954 0.0
C1515 C 0.79273 0.77428 0.03912 0.0
C1516 C 0.76293 0.78818 0.02806 0.0
C1517 C 0.7934 0.76161 0.02336 0.0
C1518 C 0.80319 0.79484 0.94349 0.0
C1519 C 0.8008 0.78856 0.95355 0.0
C1520 C 0.78683 0.78629 0.96741 0.0
C1521 C 0.79125 0.77696 0.97204 0.0
C1522 C 0.7866 0.77211 0.98126 0.0
C1523 C 0.77736 0.77668 0.98599 0.0
C1524 C 0.77281 0.78598 0.9813 0.0
C1525 C 0.77759 0.79064 0.97203 0.0
C1526 C 0.79161 0.76214 0.98601 0.0
C1527 C 0.76295 0.79104 0.98613 0.0
C1528 C 0.72774 0.72531 0.96594 0.0
C1529 C 0.73706 0.72121 0.97089 0.0
C1530 C 0.74111 0.72566 0.98051 0.0
C1531 C 0.73575 0.73438 0.98531 0.0
C1532 C 0.72633 0.73848 0.98042 0.0
C1533 C 0.72245 0.73388 0.97079 0.0
C1534 C 0.75115 0.72105 0.98556 0.0
C1535 C 0.72042 0.74776 0.98534 0.0
C1536 C 0.72894 0.72974 0.06855 0.0
C1537 C 0.71945 0.72416 0.06269 0.0
C1538 C 0.72697 0.72401 0.04428 0.0
C1539 C 0.73397 0.71826 0.03773 0.0
C1540 C 0.73848 0.72289 0.02833 0.0
C1541 C 0.73561 0.73346 0.02521 0.0
C1542 C 0.72821 0.73921 0.0316 0.0
C1543 C 0.72411 0.73451 0.04115 0.0
C1544 C 0.74634 0.71647 0.02177 0.0
C1545 C 0.72457 0.75032 0.02833 0.0
C1546 C 0.77312 0.77094 0.01568 0.0
C1547 C 0.77682 0.77539 0.00592 0.0
C1548 C 0.77265 0.77187 0.99602 0.0
C1549 C 0.76444 0.76375 0.99581 0.0
C1550 C 0.76007 0.76 0.98601 0.0
C1551 C 0.75205 0.75195 0.98588 0.0
C1552 C 0.74808 0.74735 0.99555 0.0
C1553 C 0.73999 0.73911 0.9955 0.0
C1554 C 0.73606 0.73488 0.00526 0.0
C1555 C 0.74019 0.73842 0.01518 0.0
C1556 C 0.74851 0.74645 0.01538 0.0
C1557 C 0.75315 0.74994 0.02516 0.0
C1558 C 0.7612 0.75796 0.02529 0.0
C1559 C 0.76497 0.76276 0.01563 0.0
C1560 C 0.76057 0.75921 0.00566 0.0
C1561 C 0.75235 0.75102 0.00553 0.0
C1562 C 0.73748 0.71783 0.94354 0.0
C1563 C 0.72785 0.71335 0.95011 0.0
O1564 O 0.79203 0.78624 0.05461 0.0
O1565 O 0.72318 0.71914 0.05346 0.0
O1566 O 0.7236 0.72136 0.95652 0.0
O1567 O 0.79122 0.79131 0.95857 0.0
H1568 H 0.80789 0.78183 0.0539 0.0
H1569 H 0.79684 0.76573 0.06011 0.0
H1570 H 0.79243 0.77301 0.07177 0.0
H1571 H 0.80652 0.76967 0.07024 0.0
H1572 H 0.77445 0.79306 0.0461 0.0
H1573 H 0.80023 0.77081 0.04179 0.0
H1574 H 0.76391 0.79131 0.01968 0.0
H1575 H 0.76041 0.79488 0.03335 0.0
H1576 H 0.75636 0.78194 0.02794 0.0
H1577 H 0.80059 0.75848 0.02766 0.0
H1578 H 0.79602 0.76476 0.01534 0.0
H1579 H 0.78758 0.75483 0.02195 0.0
H1580 H 0.80771 0.78796 0.9593 0.0
H1581 H 0.8108 0.79963 0.94535 0.0
H1582 H 0.79778 0.80204 0.94358 0.0
H1583 H 0.80246 0.78316 0.93136 0.0
H1584 H 0.79834 0.77342 0.96852 0.0
H1585 H 0.77419 0.79779 0.9684 0.0
H1586 H 0.79447 0.76385 0.99434 0.0
H1587 H 0.79854 0.75933 0.98116 0.0
H1588 H 0.78544 0.75553 0.98656 0.0
H1589 H 0.76034 0.79823 0.98148 0.0
H1590 H 0.7647 0.79348 0.99458 0.0
H1591 H 0.75616 0.78504 0.98639 0.0
H1592 H 0.73058 0.70657 0.95531 0.0
H1593 H 0.74129 0.71457 0.96733 0.0
H1594 H 0.71527 0.737 0.96696 0.0
H1595 H 0.75759 0.72741 0.98599 0.0
H1596 H 0.75428 0.71413 0.98095 0.0
H1597 H 0.74937 0.71834 0.99395 0.0
H1598 H 0.71331 0.75015 0.98046 0.0
H1599 H 0.72601 0.75483 0.98613 0.0
H1600 H 0.71763 0.74549 0.99359 0.0
H1601 H 0.71334 0.73024 0.06047 0.0
H1602 H 0.72608 0.73382 0.07595 0.0
H1603 H 0.7328 0.73596 0.06324 0.0
H1604 H 0.73512 0.72376 0.07086 0.0
H1605 H 0.73608 0.71015 0.04015 0.0
H1606 H 0.71857 0.73905 0.04599 0.0
H1607 H 0.7536 0.72149 0.0197 0.0
H1608 H 0.74241 0.71398 0.01409 0.0
H1609 H 0.74896 0.7091 0.02612 0.0
H1610 H 0.71748 0.75291 0.03309 0.0
H1611 H 0.72243 0.75053 0.01961 0.0
H1612 H 0.73128 0.75625 0.02962 0.0
H1613 H 0.78314 0.7816 0.00602 0.0
H1614 H 0.76281 0.76325 0.97832 0.0
H1615 H 0.74899 0.74939 0.97809 0.0
H1616 H 0.72979 0.72863 0.00514 0.0
H1617 H 0.7506 0.74652 0.03284 0.0
H1618 H 0.76443 0.76035 0.03306 0.0
H1619 H 0.74077 0.71145 0.93829 0.0
H1620 H 0.74407 0.72068 0.94897 0.0
H1621 H 0.73499 0.72473 0.9384 0.0
C1622 C 0.19606 0.79071 0.96311 0.0
C1623 C 0.20689 0.79389 0.95789 0.0
C1624 C 0.21986 0.78135 0.9649 0.0
C1625 C 0.22844 0.78786 0.96863 0.0
C1626 C 0.23497 0.78443 0.97722 0.0
C1627 C 0.23275 0.77432 0.98223 0.0
C1628 C 0.22421 0.76763 0.97829 0.0
C1629 C 0.21799 0.77118 0.96951 0.0
C1630 C 0.24412 0.79168 0.98105 0.0
C1631 C 0.22145 0.75691 0.98355 0.0
C1632 C 0.21444 0.80997 0.03774 0.0
C1633 C 0.21444 0.80055 0.04582 0.0
C1634 C 0.22907 0.79003 0.03877 0.0
C1635 C 0.22374 0.78063 0.0352 0.0
C1636 C 0.22792 0.77466 0.02662 0.0
C1637 C 0.23757 0.77826 0.02147 0.0
C1638 C 0.24318 0.78753 0.02535 0.0
C1639 C 0.23893 0.7932 0.0341 0.0
C1640 C 0.22186 0.76469 0.02287 0.0
C1641 C 0.25342 0.79168 0.01999 0.0
C1642 C 0.29342 0.7323 0.03798 0.0
C1643 C 0.28335 0.72751 0.03574 0.0
C1644 C 0.27716 0.73102 0.02692 0.0
C1645 C 0.28117 0.73955 0.02028 0.0
C1646 C 0.29135 0.74444 0.0226 0.0
C1647 C 0.29743 0.74064 0.03136 0.0
C1648 C 0.26646 0.72546 0.02454 0.0
C1649 C 0.29592 0.75351 0.01569 0.0
C1650 C 0.28266 0.73389 0.93665 0.0
C1651 C 0.29213 0.72886 0.94273 0.0
C1652 C 0.28495 0.72812 0.96128 0.0
C1653 C 0.27853 0.72182 0.96826 0.0
C1654 C 0.27448 0.72604 0.9779 0.0
C1655 C 0.2772 0.73679 0.98077 0.0
C1656 C 0.28398 0.74313 0.97393 0.0
C1657 C 0.28763 0.7388 0.96417 0.0
C1658 C 0.26725 0.71905 0.98498 0.0
C1659 C 0.28742 0.75448 0.97692 0.0
C1660 C 0.23889 0.77107 0.99201 0.0
C1661 C 0.23597 0.77563 0.00184 0.0
C1662 C 0.24122 0.77292 0.01145 0.0
C1663 C 0.24963 0.76536 0.01133 0.0
C1664 C 0.25498 0.76231 0.02086 0.0
C1665 C 0.26335 0.75497 0.02062 0.0
C1666 C 0.2666 0.75031 0.01085 0.0
C1667 C 0.27511 0.74287 0.0105 0.0
C1668 C 0.27823 0.73853 0.00061 0.0
C1669 C 0.27307 0.74137 0.99099 0.0
C1670 C 0.26444 0.74868 0.99119 0.0
C1671 C 0.25896 0.75159 0.98168 0.0
C1672 C 0.25064 0.75898 0.98191 0.0
C1673 C 0.24738 0.76361 0.99168 0.0
C1674 C 0.25274 0.76073 0.00139 0.0
C1675 C 0.26125 0.75322 0.00115 0.0
C1676 C 0.30922 0.74158 0.05642 0.0
C1677 C 0.30038 0.73274 0.05622 0.0
O1678 O 0.21321 0.78483 0.95697 0.0
O1679 O 0.28837 0.72356 0.95194 0.0
O1680 O 0.29959 0.72828 0.04602 0.0
O1681 O 0.22472 0.79631 0.04649 0.0
H1682 H 0.21099 0.79995 0.96319 0.0
H1683 H 0.19744 0.78731 0.97131 0.0
H1684 H 0.19171 0.78454 0.95819 0.0
H1685 H 0.19089 0.79789 0.96392 0.0
H1686 H 0.22997 0.79565 0.96483 0.0
H1687 H 0.21136 0.7662 0.96648 0.0
H1688 H 0.24209 0.79494 0.98911 0.0
H1689 H 0.2457 0.79856 0.97543 0.0
H1690 H 0.25165 0.78701 0.98195 0.0
H1691 H 0.21402 0.75311 0.98008 0.0
H1692 H 0.22026 0.75796 0.99237 0.0
H1693 H 0.22826 0.75133 0.98246 0.0
H1694 H 0.20858 0.79426 0.04295 0.0
H1695 H 0.20627 0.8135 0.03722 0.0
H1696 H 0.21667 0.8071 0.02957 0.0
H1697 H 0.22037 0.81634 0.04021 0.0
H1698 H 0.21628 0.77799 0.03907 0.0
H1699 H 0.24301 0.80043 0.03702 0.0
H1700 H 0.22753 0.75794 0.02181 0.0
H1701 H 0.21808 0.76633 0.01491 0.0
H1702 H 0.2154 0.76212 0.02863 0.0
H1703 H 0.25654 0.79926 0.02369 0.0
H1704 H 0.25191 0.79318 0.01126 0.0
H1705 H 0.25977 0.78551 0.0206 0.0
H1706 H 0.29252 0.73639 0.05842 0.0
H1707 H 0.28045 0.72091 0.04082 0.0
H1708 H 0.30541 0.74404 0.03293 0.0
H1709 H 0.25986 0.73138 0.025 0.0
H1710 H 0.26464 0.71873 0.03027 0.0
H1711 H 0.2665 0.72223 0.01619 0.0
H1712 H 0.30334 0.75723 0.01925 0.0
H1713 H 0.28979 0.75985 0.01457 0.0
H1714 H 0.29794 0.75037 0.00757 0.0
H1715 H 0.29808 0.7353 0.94498 0.0
H1716 H 0.28559 0.73814 0.92924 0.0
H1717 H 0.27863 0.73987 0.94184 0.0
H1718 H 0.27661 0.72757 0.93434 0.0
H1719 H 0.27653 0.71358 0.96601 0.0
H1720 H 0.29266 0.74383 0.95899 0.0
H1721 H 0.25975 0.7234 0.987 0.0
H1722 H 0.27148 0.71726 0.99268 0.0
H1723 H 0.26497 0.7113 0.98106 0.0
H1724 H 0.29397 0.75772 0.97159 0.0
H1725 H 0.29028 0.75474 0.98542 0.0
H1726 H 0.28039 0.75986 0.97623 0.0
H1727 H 0.22948 0.78139 0.00201 0.0
H1728 H 0.25278 0.76561 0.02862 0.0
H1729 H 0.26724 0.75297 0.0282 0.0
H1730 H 0.28487 0.73295 1.00039 0.0
H1731 H 0.26106 0.74823 0.97393 0.0
H1732 H 0.24679 0.76101 0.97432 0.0
H1733 H 0.31697 0.73846 0.05329 0.0
H1734 H 0.31051 0.74456 0.06478 0.0
H1735 H 0.30679 0.74856 0.05139 0.0
C1736 C 0.03987 0.31358 0.29047 0.0
C1737 C 0.04524 0.30295 0.29344 0.0
C1738 C 0.03905 0.29009 0.28013 0.0
C1739 C 0.03483 0.2815 0.28633 0.0
C1740 C 0.02636 0.27495 0.28235 0.0
C1741 C 0.02199 0.27714 0.27201 0.0
C1742 C 0.02652 0.2856 0.2656 0.0
C1743 C 0.03515 0.29187 0.2697 0.0
C1744 C 0.0219 0.26586 0.28931 0.0
C1745 C 0.02198 0.28829 0.25461 0.0
C1746 C 0.94059 0.29904 0.29247 0.0
C1747 C 0.95007 0.29652 0.2856 0.0
C1748 C 0.96389 0.28287 0.28343 0.0
C1749 C 0.96796 0.2871 0.27363 0.0
C1750 C 0.97711 0.2827 0.26874 0.0
C1751 C 0.98228 0.2739 0.27373 0.0
C1752 C 0.97807 0.26947 0.28345 0.0
C1753 C 0.96889 0.274 0.28815 0.0
C1754 C 0.98136 0.28756 0.25832 0.0
C1755 C 0.98338 0.26006 0.28896 0.0
C1756 C 0.96347 0.22619 0.22213 0.0
C1757 C 0.96796 0.23641 0.21957 0.0
C1758 C 0.97775 0.23995 0.2242 0.0
C1759 C 0.98302 0.23329 0.23181 0.0
C1760 C 0.97861 0.22296 0.23433 0.0
C1761 C 0.96895 0.2195 0.22933 0.0
C1762 C 0.98242 0.25086 0.22098 0.0
C1763 C 0.984 0.21565 0.2424 0.0
C1764 C 0.06627 0.22417 0.23124 0.0
C1765 C 0.05967 0.21607 0.22448 0.0
C1766 C 0.04206 0.22506 0.22398 0.0
C1767 C 0.03595 0.23238 0.21804 0.0
C1768 C 0.02653 0.2368 0.22234 0.0
C1769 C 0.02297 0.23358 0.23276 0.0
C1770 C 0.02898 0.22599 0.23875 0.0
C1771 C 0.03854 0.22193 0.23437 0.0
C1772 C 0.02039 0.24491 0.21572 0.0
C1773 C 0.02527 0.2221 0.24975 0.0
C1774 C 0.01211 0.27123 0.26832 0.0
C1775 C 0.00219 0.27455 0.27241 0.0
C1776 C 0.99245 0.26973 0.26909 0.0
C1777 C 0.99254 0.26139 0.26136 0.0
C1778 C 0.98288 0.2565 0.25767 0.0
C1779 C 0.98304 0.24851 0.24985 0.0
C1780 C 0.99286 0.24508 0.24543 0.0
C1781 C 0.99307 0.23726 0.23718 0.0
C1782 C 0.00298 0.23365 0.23333 0.0
C1783 C 0.01278 0.23788 0.23726 0.0
C1784 C 0.01273 0.24611 0.24514 0.0
C1785 C 0.02239 0.25095 0.2489 0.0
C1786 C 0.02223 0.2591 0.25658 0.0
C1787 C 0.01239 0.26277 0.26073 0.0
C1788 C 0.00256 0.25791 0.25716 0.0
C1789 C 0.00272 0.24965 0.24928 0.0
C1790 C 0.93998 0.23518 0.22111 0.0
C1791 C 0.94608 0.22852 0.21279 0.0
O1792 O 0.0467 0.29691 0.28418 0.0
O1793 O 0.05122 0.22127 0.21936 0.0
O1794 O 0.95394 0.22248 0.2179 0.0
O1795 O 0.95527 0.28714 0.28859 0.0
H1796 H 0.03978 0.29852 0.29918 0.0
H1797 H 0.03181 0.31193 0.28679 0.0
H1798 H 0.04491 0.31825 0.28456 0.0
H1799 H 0.03871 0.31854 0.2978 0.0
H1800 H 0.0381 0.28 0.29431 0.0
H1801 H 0.03857 0.29849 0.26497 0.0
H1802 H 0.01375 0.268 0.29229 0.0
H1803 H 0.02715 0.26422 0.2964 0.0
H1804 H 0.02098 0.25838 0.2845 0.0
H1805 H 0.02597 0.29555 0.25096 0.0
H1806 H 0.01316 0.28972 0.25523 0.0
H1807 H 0.02306 0.28139 0.24909 0.0
H1808 H 0.9558 0.30345 0.28412 0.0
H1809 H 0.94288 0.30682 0.2966 0.0
H1810 H 0.94127 0.29395 0.30001 0.0
H1811 H 0.92748 0.2977 0.28181 0.0
H1812 H 0.9641 0.29387 0.26977 0.0
H1813 H 0.96567 0.27074 0.29566 0.0
H1814 H 0.98182 0.28123 0.25206 0.0
H1815 H 0.98968 0.29084 0.2596 0.0
H1816 H 0.97621 0.29415 0.25525 0.0
H1817 H 0.97889 0.25728 0.29627 0.0
H1818 H 0.99176 0.26241 0.29134 0.0
H1819 H 0.98393 0.25322 0.28325 0.0
H1820 H 0.94991 0.23401 0.20671 0.0
H1821 H 0.96396 0.24171 0.21396 0.0
H1822 H 0.96548 0.21162 0.23123 0.0
H1823 H 0.98139 0.2566 0.22772 0.0
H1824 H 0.97838 0.25421 0.2137 0.0
H1825 H 0.99122 0.25033 0.21931 0.0
H1826 H 0.97906 0.20826 0.24416 0.0
H1827 H 0.98551 0.22003 0.25006 0.0
H1828 H 0.99196 0.2132 0.23919 0.0
H1829 H 0.05639 0.20953 0.2298 0.0
H1830 H 0.07304 0.22009 0.2354 0.0
H1831 H 0.0611 0.2278 0.23751 0.0
H1832 H 0.06964 0.23074 0.226 0.0
H1833 H 0.0387 0.23474 0.21004 0.0
H1834 H 0.04309 0.21624 0.2391 0.0
H1835 H 0.01853 0.25206 0.22069 0.0
H1836 H 0.01259 0.24123 0.21305 0.0
H1837 H 0.02497 0.24764 0.20844 0.0
H1838 H 0.03005 0.21521 0.25275 0.0
H1839 H 0.01659 0.2196 0.24949 0.0
H1840 H 0.0261 0.22878 0.25563 0.0
H1841 H 0.00204 0.28106 0.27822 0.0
H1842 H 0.97509 0.25887 0.26073 0.0
H1843 H 0.97535 0.24507 0.24728 0.0
H1844 H 0.00306 0.22759 0.22706 0.0
H1845 H 0.0302 0.24853 0.2459 0.0
H1846 H 0.02991 0.26254 0.25918 0.0
H1847 H 0.93364 0.24 0.21707 0.0
H1848 H 0.94563 0.24086 0.22526 0.0
H1849 H 0.9361 0.22981 0.22728 0.0
C1850 C 0.69957 0.04013 0.29392 0.0
C1851 C 0.70991 0.04643 0.29698 0.0
C1852 C 0.72287 0.04048 0.28391 0.0
C1853 C 0.73181 0.03703 0.28983 0.0
C1854 C 0.73818 0.0286 0.28605 0.0
C1855 C 0.73539 0.02344 0.27623 0.0
C1856 C 0.72649 0.02714 0.27011 0.0
C1857 C 0.72046 0.03579 0.27396 0.0
C1858 C 0.74772 0.02504 0.2927 0.0
C1859 C 0.72307 0.02171 0.25975 0.0
C1860 C 0.72146 0.96504 0.31964 0.0
C1861 C 0.71916 0.96067 0.30833 0.0
C1862 C 0.73243 0.96763 0.29558 0.0
C1863 C 0.72605 0.97091 0.28685 0.0
C1864 C 0.72962 0.97926 0.27992 0.0
C1865 C 0.73973 0.98446 0.28188 0.0
C1866 C 0.74634 0.98088 0.2905 0.0
C1867 C 0.74265 0.97235 0.29714 0.0
C1868 C 0.72249 0.98269 0.27068 0.0
C1869 C 0.75709 0.98632 0.29293 0.0
C1870 C 0.78588 0.96379 0.22862 0.0
C1871 C 0.77541 0.96697 0.22568 0.0
C1872 C 0.77115 0.97661 0.22955 0.0
C1873 C 0.77736 0.98312 0.23667 0.0
C1874 C 0.7879 0.97997 0.23962 0.0
C1875 C 0.79204 0.97038 0.23548 0.0
C1876 C 0.75998 0.97985 0.226 0.0
C1877 C 0.79475 0.9867 0.24721 0.0
C1878 C 0.77362 0.06648 0.22375 0.0
C1879 C 0.78483 0.0616 0.22258 0.0
C1880 C 0.78139 0.0422 0.22267 0.0
C1881 C 0.77356 0.03536 0.21809 0.0
C1882 C 0.77036 0.0257 0.22325 0.0
C1883 C 0.77535 0.02273 0.2331 0.0
C1884 C 0.78367 0.02937 0.23749 0.0
C1885 C 0.78659 0.03907 0.23224 0.0
C1886 C 0.76153 0.01876 0.21829 0.0
C1887 C 0.78941 0.02625 0.24778 0.0
C1888 C 0.74109 0.01354 0.27293 0.0
C1889 C 0.73834 0.00394 0.27833 0.0
C1890 C 0.74298 0.99418 0.27551 0.0
C1891 C 0.75048 0.99387 0.26691 0.0
C1892 C 0.75504 0.98413 0.26362 0.0
C1893 C 0.76243 0.98393 0.25514 0.0
C1894 C 0.7655 0.99345 0.2496 0.0
C1895 C 0.77289 0.99331 0.24086 0.0
C1896 C 0.77594 0.00296 0.2357 0.0
C1897 C 0.77171 0.0128 0.23892 0.0
C1898 C 0.76414 0.01308 0.24747 0.0
C1899 C 0.75956 0.02282 0.25076 0.0
C1900 C 0.75208 0.02302 0.25915 0.0
C1901 C 0.74884 0.01347 0.26453 0.0
C1902 C 0.75346 0.00357 0.26144 0.0
C1903 C 0.76106 0.00337 0.25284 0.0
C1904 C 0.77799 0.93956 0.22781 0.0
C1905 C 0.78514 0.946 0.21984 0.0
O1906 O 0.71627 0.0481 0.28788 0.0
O1907 O 0.78388 0.05165 0.21758 0.0
O1908 O 0.79035 0.95448 0.22511 0.0
O1909 O 0.72881 0.96002 0.30268 0.0
H1910 H 0.71439 0.04156 0.30305 0.0
H1911 H 0.70166 0.03212 0.29066 0.0
H1912 H 0.69496 0.04459 0.28767 0.0
H1913 H 0.69436 0.03881 0.30114 0.0
H1914 H 0.73371 0.04085 0.29746 0.0
H1915 H 0.71353 0.03859 0.26946 0.0
H1916 H 0.7457 0.01719 0.29666 0.0
H1917 H 0.7499 0.03095 0.29908 0.0
H1918 H 0.75487 0.02385 0.28744 0.0
H1919 H 0.71539 0.02493 0.2565 0.0
H1920 H 0.72201 0.01288 0.2611 0.0
H1921 H 0.72947 0.02292 0.25356 0.0
H1922 H 0.71362 0.9664 0.30425 0.0
H1923 H 0.71382 0.96563 0.32429 0.0
H1924 H 0.72525 0.97322 0.31902 0.0
H1925 H 0.72708 0.9597 0.32409 0.0
H1926 H 0.71826 0.96699 0.28551 0.0
H1927 H 0.74754 0.96963 0.30386 0.0
H1928 H 0.71915 0.99074 0.27243 0.0
H1929 H 0.71563 0.97692 0.26934 0.0
H1930 H 0.72729 0.98344 0.26312 0.0
H1931 H 0.76097 0.98294 0.30028 0.0
H1932 H 0.75599 0.9951 0.29408 0.0
H1933 H 0.76265 0.98534 0.28599 0.0
H1934 H 0.78007 0.9492 0.21318 0.0
H1935 H 0.7705 0.96205 0.22035 0.0
H1936 H 0.80011 0.96791 0.2377 0.0
H1937 H 0.75441 0.97954 0.23304 0.0
H1938 H 0.75661 0.9745 0.21962 0.0
H1939 H 0.76019 0.98828 0.2229 0.0
H1940 H 0.80241 0.9827 0.24941 0.0
H1941 H 0.79015 0.98834 0.2547 0.0
H1942 H 0.79676 0.99459 0.24333 0.0
H1943 H 0.78832 0.06072 0.23081 0.0
H1944 H 0.77427 0.0745 0.22767 0.0
H1945 H 0.7684 0.06114 0.22887 0.0
H1946 H 0.7697 0.0674 0.21572 0.0
H1947 H 0.76974 0.03779 0.2106 0.0
H1948 H 0.79303 0.04409 0.23555 0.0
H1949 H 0.75488 0.01743 0.22421 0.0
H1950 H 0.76478 0.01075 0.21626 0.0
H1951 H 0.75815 0.02244 0.21084 0.0
H1952 H 0.79632 0.0318 0.24965 0.0
H1953 H 0.79245 0.01791 0.24714 0.0
H1954 H 0.78362 0.02635 0.25463 0.0
H1955 H 0.73246 0.00406 0.28483 0.0
H1956 H 0.75292 0.97656 0.26755 0.0
H1957 H 0.76569 0.9762 0.25298 0.0
H1958 H 0.78163 0.00281 0.22903 0.0
H1959 H 0.76168 0.03042 0.24686 0.0
H1960 H 0.74884 0.03074 0.26135 0.0
H1961 H 0.77384 0.93273 0.22364 0.0
H1962 H 0.77168 0.94477 0.23126 0.0
H1963 H 0.78294 0.93634 0.23455 0.0
C1964 C 0.04265 0.70283 0.30532 0.0
C1965 C 0.0505 0.7039 0.29577 0.0
C1966 C 0.04298 0.71931 0.28637 0.0
C1967 C 0.03819 0.71435 0.27735 0.0
C1968 C 0.02948 0.7191 0.27197 0.0
C1969 C 0.02545 0.729 0.27573 0.0
C1970 C 0.03055 0.73423 0.28456 0.0
C1971 C 0.03938 0.72937 0.28966 0.0
C1972 C 0.02442 0.71343 0.26242 0.0
C1973 C 0.02644 0.74475 0.28882 0.0
C1974 C 0.94256 0.70868 0.29949 0.0
C1975 C 0.95279 0.71496 0.29765 0.0
C1976 C 0.9669 0.71768 0.28399 0.0
C1977 C 0.97163 0.72682 0.28892 0.0
C1978 C 0.98092 0.73186 0.28454 0.0
C1979 C 0.9856 0.72769 0.27506 0.0
C1980 C 0.98081 0.71856 0.27003 0.0
C1981 C 0.97149 0.7137 0.27455 0.0
C1982 C 0.9858 0.74162 0.29008 0.0
C1983 C 0.98562 0.7139 0.25993 0.0
C1984 C 0.9662 0.78 0.22737 0.0
C1985 C 0.97114 0.78378 0.23691 0.0
C1986 C 0.98075 0.77927 0.24075 0.0
C1987 C 0.98553 0.7708 0.23498 0.0
C1988 C 0.98064 0.76702 0.22535 0.0
C1989 C 0.97105 0.7717 0.22167 0.0
C1990 C 0.98579 0.78354 0.25102 0.0
C1991 C 0.98554 0.758 0.219 0.0
C1992 C 0.06932 0.78142 0.23378 0.0
C1993 C 0.06388 0.78155 0.22266 0.0
C1994 C 0.04468 0.78149 0.227 0.0
C1995 C 0.03851 0.78666 0.23476 0.0
C1996 C 0.02901 0.7818 0.23889 0.0
C1997 C 0.02547 0.77166 0.23489 0.0
C1998 C 0.03149 0.76659 0.2267 0.0
C1999 C 0.04109 0.77153 0.22289 0.0
C2000 C 0.02279 0.78751 0.24756 0.0
C2001 C 0.02773 0.75598 0.22194 0.0
C2002 C 0.0154 0.73339 0.27097 0.0
C2003 C 0.00554 0.72905 0.27466 0.0
C2004 C 0.9957 0.73267 0.27063 0.0
C2005 C 0.99561 0.74092 0.26268 0.0
C2006 C 0.98585 0.74482 0.25851 0.0
C2007 C 0.98584 0.75298 0.25073 0.0
C2008 C 0.9956 0.75756 0.24683 0.0
C2009 C 0.99566 0.76595 0.23903 0.0
C2010 C 0.0055 0.77023 0.23523 0.0
C2011 C 0.01537 0.76649 0.23912 0.0
C2012 C 0.01547 0.75819 0.24704 0.0
C2013 C 0.02524 0.75434 0.25128 0.0
C2014 C 0.02525 0.74615 0.25905 0.0
C2015 C 0.01549 0.74161 0.26298 0.0
C2016 C 0.00555 0.74539 0.25884 0.0
C2017 C 0.00554 0.75369 0.25087 0.0
C2018 C 0.94373 0.78672 0.2374 0.0
C2019 C 0.95036 0.79174 0.22809 0.0
O2020 O 0.05094 0.71452 0.29212 0.0
O2021 O 0.05392 0.78643 0.22343 0.0
O2022 O 0.95681 0.78403 0.2234 0.0
O2023 O 0.95798 0.71248 0.28807 0.0
H2024 H 0.04752 0.69851 0.28923 0.0
H2025 H 0.03437 0.70497 0.30271 0.0
H2026 H 0.04519 0.70828 0.31198 0.0
H2027 H 0.04236 0.69438 0.30839 0.0
H2028 H 0.04124 0.70677 0.27448 0.0
H2029 H 0.04323 0.7332 0.29655 0.0
H2030 H 0.01622 0.71037 0.26467 0.0
H2031 H 0.02928 0.70653 0.25968 0.0
H2032 H 0.02349 0.71918 0.25558 0.0
H2033 H 0.03113 0.74764 0.29593 0.0
H2034 H 0.01781 0.74376 0.29117 0.0
H2035 H 0.02692 0.75101 0.28239 0.0
H2036 H 0.9584 0.71529 0.30471 0.0
H2037 H 0.94414 0.70364 0.30691 0.0
H2038 H 0.94267 0.70165 0.29377 0.0
H2039 H 0.93064 0.72044 0.29898 0.0
H2040 H 0.96814 0.73005 0.2962 0.0
H2041 H 0.96778 0.70669 0.27078 0.0
H2042 H 0.98642 0.74847 0.28427 0.0
H2043 H 0.99413 0.73981 0.29283 0.0
H2044 H 0.98098 0.74413 0.29716 0.0
H2045 H 0.98092 0.70678 0.25697 0.0
H2046 H 0.99406 0.71145 0.26155 0.0
H2047 H 0.98592 0.72013 0.25345 0.0
H2048 H 0.95555 0.79844 0.23126 0.0
H2049 H 0.96759 0.7902 0.24147 0.0
H2050 H 0.96723 0.76883 0.21432 0.0
H2051 H 0.98599 0.777 0.25719 0.0
H2052 H 0.98129 0.79041 0.25439 0.0
H2053 H 0.99427 0.78622 0.24946 0.0
H2054 H 0.98062 0.75579 0.21181 0.0
H2055 H 0.98633 0.75076 0.22425 0.0
H2056 H 0.99379 0.76045 0.21629 0.0
H2057 H 0.06284 0.77306 0.21994 0.0
H2058 H 0.07734 0.77755 0.2333 0.0
H2059 H 0.06422 0.77674 0.2396 0.0
H2060 H 0.07044 0.78977 0.23686 0.0
H2061 H 0.04129 0.79443 0.23774 0.0
H2062 H 0.04563 0.76771 0.21655 0.0
H2063 H 0.02102 0.78192 0.25442 0.0
H2064 H 0.01493 0.79014 0.24422 0.0
H2065 H 0.02725 0.79471 0.25066 0.0
H2066 H 0.03272 0.75363 0.2149 0.0
H2067 H 0.01916 0.75648 0.21933 0.0
H2068 H 0.02818 0.74954 0.22818 0.0
H2069 H 0.00553 0.72274 0.28079 0.0
H2070 H 0.9781 0.74162 0.26122 0.0
H2071 H 0.97808 0.75567 0.24782 0.0
H2072 H 0.00548 0.77668 0.22925 0.0
H2073 H 0.03299 0.75759 0.24864 0.0
H2074 H 0.033 0.74346 0.26198 0.0
H2075 H 0.93845 0.79287 0.24103 0.0
H2076 H 0.94913 0.78365 0.24383 0.0
H2077 H 0.9386 0.77989 0.23446 0.0
C2078 C 0.29751 0.94656 0.27102 0.0
C2079 C 0.29812 0.95127 0.28245 0.0
C2080 C 0.28335 0.96432 0.28218 0.0
C2081 C 0.27293 0.9664 0.28593 0.0
C2082 C 0.26745 0.97569 0.28266 0.0
C2083 C 0.27248 0.98303 0.27534 0.0
C2084 C 0.28304 0.98103 0.27155 0.0
C2085 C 0.2884 0.97178 0.27508 0.0
C2086 C 0.25625 0.97763 0.28697 0.0
C2087 C 0.28867 0.98869 0.26374 0.0
C2088 C 0.28427 0.04129 0.31541 0.0
C2089 C 0.28674 0.04754 0.30495 0.0
C2090 C 0.27401 0.03988 0.2922 0.0
C2091 C 0.28042 0.03636 0.28366 0.0
C2092 C 0.27708 0.02757 0.27732 0.0
C2093 C 0.26718 0.0221 0.27972 0.0
C2094 C 0.26058 0.02583 0.2882 0.0
C2095 C 0.26402 0.03483 0.29423 0.0
C2096 C 0.28425 0.02397 0.26822 0.0
C2097 C 0.25006 0.02014 0.2911 0.0
C2098 C 0.21633 0.03908 0.2284 0.0
C2099 C 0.22718 0.03802 0.22544 0.0
C2100 C 0.23306 0.02902 0.22883 0.0
C2101 C 0.22802 0.02112 0.23558 0.0
C2102 C 0.21703 0.02224 0.23857 0.0
C2103 C 0.21128 0.03113 0.23476 0.0
C2104 C 0.24459 0.02789 0.22508 0.0
C2105 C 0.21134 0.01404 0.24576 0.0
C2106 C 0.23495 0.93783 0.22303 0.0
C2107 C 0.22377 0.94287 0.22231 0.0
C2108 C 0.22717 0.96231 0.22195 0.0
C2109 C 0.2347 0.96927 0.21696 0.0
C2110 C 0.23787 0.97904 0.2218 0.0
C2111 C 0.23318 0.98199 0.23174 0.0
C2112 C 0.22519 0.97519 0.23659 0.0
C2113 C 0.22227 0.96541 0.23164 0.0
C2114 C 0.24633 0.98615 0.21638 0.0
C2115 C 0.21976 0.97825 0.24701 0.0
C2116 C 0.26675 0.99283 0.27165 0.0
C2117 C 0.26901 0.00253 0.27695 0.0
C2118 C 0.26411 0.01212 0.27379 0.0
C2119 C 0.25662 0.01206 0.26513 0.0
C2120 C 0.25147 0.02152 0.26177 0.0
C2121 C 0.24399 0.02133 0.25334 0.0
C2122 C 0.24156 0.01173 0.24779 0.0
C2123 C 0.23402 0.01145 0.23916 0.0
C2124 C 0.23169 0.0017 0.23396 0.0
C2125 C 0.23663 0.99215 0.23714 0.0
C2126 C 0.24431 0.9923 0.24561 0.0
C2127 C 0.2496 0.98287 0.24884 0.0
C2128 C 0.25699 0.98304 0.25732 0.0
C2129 C 0.25936 0.99262 0.26293 0.0
C2130 C 0.25424 0.00226 0.25969 0.0
C2131 C 0.24673 0.00211 0.25099 0.0
C2132 C 0.21024 0.06029 0.23944 0.0
C2133 C 0.21304 0.05825 0.22756 0.0
O2134 O 0.28811 0.95506 0.28555 0.0
O2135 O 0.22463 0.9528 0.2171 0.0
O2136 O 0.2105 0.04762 0.22504 0.0
O2137 O 0.27745 0.04802 0.29869 0.0
H2138 H 0.30418 0.95802 0.28254 0.0
H2139 H 0.29536 0.95283 0.26501 0.0
H2140 H 0.29129 0.93997 0.27061 0.0
H2141 H 0.30548 0.9433 0.26868 0.0
H2142 H 0.26909 0.96067 0.29144 0.0
H2143 H 0.29649 0.97045 0.27215 0.0
H2144 H 0.25594 0.98578 0.29062 0.0
H2145 H 0.25374 0.97153 0.29314 0.0
H2146 H 0.25033 0.97738 0.28023 0.0
H2147 H 0.29646 0.98551 0.26078 0.0
H2148 H 0.29031 0.9965 0.2678 0.0
H2149 H 0.28336 0.99028 0.25669 0.0
H2150 H 0.29316 0.04323 0.3005 0.0
H2151 H 0.29164 0.04082 0.32052 0.0
H2152 H 0.28153 0.03293 0.3135 0.0
H2153 H 0.27779 0.04527 0.32004 0.0
H2154 H 0.28806 0.04049 0.28199 0.0
H2155 H 0.25911 0.0377 0.30082 0.0
H2156 H 0.28812 0.01631 0.27057 0.0
H2157 H 0.29072 0.03004 0.26631 0.0
H2158 H 0.27938 0.02243 0.26083 0.0
H2159 H 0.24624 0.02362 0.29838 0.0
H2160 H 0.25147 0.01144 0.29261 0.0
H2161 H 0.24432 0.02073 0.28424 0.0
H2162 H 0.22185 0.05984 0.22636 0.0
H2163 H 0.23096 0.0441 0.22029 0.0
H2164 H 0.20285 0.03202 0.23691 0.0
H2165 H 0.25016 0.02897 0.23203 0.0
H2166 H 0.24684 0.03394 0.21876 0.0
H2167 H 0.24581 0.01969 0.22181 0.0
H2168 H 0.20344 0.01695 0.24872 0.0
H2169 H 0.21648 0.01203 0.25283 0.0
H2170 H 0.20985 0.00651 0.24116 0.0
H2171 H 0.22073 0.94382 0.23069 0.0
H2172 H 0.23438 0.92984 0.22712 0.0
H2173 H 0.24049 0.94312 0.22779 0.0
H2174 H 0.23845 0.93682 0.21484 0.0
H2175 H 0.23829 0.96688 0.20939 0.0
H2176 H 0.21604 0.96031 0.23526 0.0
H2177 H 0.25317 0.98768 0.22202 0.0
H2178 H 0.2428 0.99406 0.21431 0.0
H2179 H 0.24952 0.9825 0.20888 0.0
H2180 H 0.21314 0.9725 0.24931 0.0
H2181 H 0.21639 0.98646 0.24626 0.0
H2182 H 0.22583 0.97847 0.25363 0.0
H2183 H 0.27473 0.00263 0.28361 0.0
H2184 H 0.2531 0.02917 0.26567 0.0
H2185 H 0.24017 0.02883 0.25122 0.0
H2186 H 0.22578 0.00149 0.22747 0.0
H2187 H 0.24808 0.97525 0.24486 0.0
H2188 H 0.2608 0.97553 0.25946 0.0
H2189 H 0.20147 0.05871 0.24089 0.0
H2190 H 0.21228 0.06875 0.24168 0.0
H2191 H 0.21495 0.05489 0.24477 0.0
C2192 C 0.96629 0.80612 0.79567 0.0
C2193 C 0.95721 0.80074 0.78904 0.0
C2194 C 0.9675 0.78564 0.78191 0.0
C2195 C 0.97211 0.79097 0.77291 0.0
C2196 C 0.98091 0.78661 0.76741 0.0
C2197 C 0.98535 0.77681 0.77109 0.0
C2198 C 0.98059 0.77131 0.78001 0.0
C2199 C 0.97159 0.77572 0.78517 0.0
C2200 C 0.9856 0.7926 0.75778 0.0
C2201 C 0.98516 0.76091 0.78425 0.0
C2202 C 0.06939 0.78968 0.76665 0.0
C2203 C 0.0642 0.78937 0.77787 0.0
C2204 C 0.04478 0.78942 0.77457 0.0
C2205 C 0.04146 0.77945 0.77901 0.0
C2206 C 0.03167 0.77448 0.77582 0.0
C2207 C 0.02513 0.77957 0.76799 0.0
C2208 C 0.02834 0.78976 0.76371 0.0
C2209 C 0.03808 0.79462 0.76719 0.0
C2210 C 0.02832 0.76378 0.78081 0.0
C2211 C 0.02154 0.79548 0.75542 0.0
C2212 C 0.04333 0.72834 0.71918 0.0
C2213 C 0.04043 0.72568 0.72986 0.0
C2214 C 0.03092 0.72963 0.73446 0.0
C2215 C 0.02432 0.73661 0.72835 0.0
C2216 C 0.02718 0.73922 0.71756 0.0
C2217 C 0.03656 0.7349 0.71307 0.0
C2218 C 0.0279 0.72625 0.74583 0.0
C2219 C 0.02035 0.74662 0.71077 0.0
C2220 C 0.94059 0.72154 0.73425 0.0
C2221 C 0.94547 0.72308 0.72297 0.0
C2222 C 0.96498 0.72346 0.72528 0.0
C2223 C 0.97186 0.71858 0.73271 0.0
C2224 C 0.98155 0.7237 0.73593 0.0
C2225 C 0.98452 0.73382 0.73132 0.0
C2226 C 0.9778 0.73856 0.72341 0.0
C2227 C 0.96805 0.73335 0.72052 0.0
C2228 C 0.98854 0.71837 0.74432 0.0
C2229 C 0.98093 0.74913 0.71803 0.0
C2230 C 0.99531 0.77269 0.76595 0.0
C2231 C 0.00522 0.7774 0.76898 0.0
C2232 C 0.01492 0.77424 0.76428 0.0
C2233 C 0.0148 0.76612 0.75631 0.0
C2234 C 0.02439 0.7629 0.75125 0.0
C2235 C 0.02423 0.75475 0.74359 0.0
C2236 C 0.01449 0.74946 0.7407 0.0
C2237 C 0.01428 0.74093 0.73316 0.0
C2238 C 0.0044 0.73607 0.73027 0.0
C2239 C 0.99467 0.73942 0.73476 0.0
C2240 C 0.99473 0.74779 0.74248 0.0
C2241 C 0.98511 0.75124 0.74729 0.0
C2242 C 0.98525 0.75947 0.75488 0.0
C2243 C 0.99504 0.76445 0.75809 0.0
C2244 C 0.00484 0.76113 0.7533 0.0
C2245 C 0.00468 0.7528 0.74547 0.0
C2246 C 0.06768 0.73411 0.72197 0.0
C2247 C 0.06235 0.72313 0.71949 0.0
O2248 O 0.95926 0.78986 0.78772 0.0
O2249 O 0.95554 0.71836 0.72267 0.0
O2250 O 0.05245 0.72464 0.71445 0.0
O2251 O 0.05425 0.79434 0.77744 0.0
H2252 H 0.95672 0.80477 0.78101 0.0
H2253 H 0.97415 0.80551 0.79141 0.0
H2254 H 0.96697 0.80213 0.80371 0.0
H2255 H 0.96468 0.81481 0.79684 0.0
H2256 H 0.96891 0.79853 0.77008 0.0
H2257 H 0.96795 0.77161 0.79207 0.0
H2258 H 0.99356 0.79623 0.76002 0.0
H2259 H 0.98028 0.79915 0.75493 0.0
H2260 H 0.98694 0.78696 0.751 0.0
H2261 H 0.98099 0.75802 0.79171 0.0
H2262 H 0.99392 0.76203 0.78601 0.0
H2263 H 0.98435 0.75457 0.77801 0.0
H2264 H 0.06319 0.78077 0.78032 0.0
H2265 H 0.07741 0.78578 0.76686 0.0
H2266 H 0.07047 0.79814 0.76374 0.0
H2267 H 0.06415 0.78523 0.76082 0.0
H2268 H 0.04639 0.77562 0.7851 0.0
H2269 H 0.04064 0.80241 0.76396 0.0
H2270 H 0.01995 0.7642 0.78402 0.0
H2271 H 0.03381 0.76134 0.78746 0.0
H2272 H 0.02834 0.75744 0.77453 0.0
H2273 H 0.02568 0.80282 0.75212 0.0
H2274 H 0.01382 0.79787 0.7592 0.0
H2275 H 0.01952 0.78997 0.74865 0.0
H2276 H 0.0612 0.71857 0.72717 0.0
H2277 H 0.04537 0.72033 0.73459 0.0
H2278 H 0.0388 0.73682 0.7048 0.0
H2279 H 0.02893 0.73324 0.75131 0.0
H2280 H 0.03299 0.71961 0.7489 0.0
H2281 H 0.01928 0.72358 0.74619 0.0
H2282 H 0.02435 0.74888 0.70302 0.0
H2283 H 0.01861 0.75408 0.71531 0.0
H2284 H 0.01249 0.74254 0.70894 0.0
H2285 H 0.94624 0.7319 0.72135 0.0
H2286 H 0.93252 0.7253 0.73467 0.0
H2287 H 0.94593 0.72544 0.74036 0.0
H2288 H 0.93971 0.71282 0.73629 0.0
H2289 H 0.96946 0.71085 0.7362 0.0
H2290 H 0.9629 0.73691 0.71444 0.0
H2291 H 0.9903 0.72407 0.75102 0.0
H2292 H 0.99639 0.71623 0.74064 0.0
H2293 H 0.98467 0.71093 0.74773 0.0
H2294 H 0.97538 0.7512 0.71129 0.0
H2295 H 0.98931 0.74878 0.71484 0.0
H2296 H 0.98076 0.7557 0.72406 0.0
H2297 H 0.00538 0.78366 0.77506 0.0
H2298 H 0.03214 0.76663 0.75319 0.0
H2299 H 0.03186 0.7526 0.73998 0.0
H2300 H 0.0043 0.72953 0.72449 0.0
H2301 H 0.97734 0.74761 0.74525 0.0
H2302 H 0.97759 0.76183 0.75827 0.0
H2303 H 0.06892 0.73886 0.71441 0.0
H2304 H 0.07563 0.73304 0.726 0.0
H2305 H 0.06247 0.73874 0.72749 0.0
C2306 C 0.21786 0.0436 0.81133 0.0
C2307 C 0.22239 0.05272 0.80408 0.0
C2308 C 0.22654 0.04213 0.78793 0.0
C2309 C 0.23597 0.0374 0.792 0.0
C2310 C 0.24072 0.02873 0.78669 0.0
C2311 C 0.23597 0.02468 0.77711 0.0
C2312 C 0.22677 0.0297 0.77272 0.0
C2313 C 0.22222 0.03843 0.77816 0.0
C2314 C 0.25064 0.02367 0.79152 0.0
C2315 C 0.22154 0.0256 0.76249 0.0
C2316 C 0.20763 0.94103 0.79057 0.0
C2317 C 0.21171 0.9503 0.78395 0.0
C2318 C 0.22337 0.9664 0.78532 0.0
C2319 C 0.22186 0.96979 0.77456 0.0
C2320 C 0.22715 0.97909 0.77053 0.0
C2321 C 0.23441 0.98494 0.77725 0.0
C2322 C 0.23613 0.98143 0.78802 0.0
C2323 C 0.23048 0.97226 0.79193 0.0
C2324 C 0.22483 0.98273 0.75909 0.0
C2325 C 0.24386 0.98738 0.79542 0.0
C2326 C 0.28615 0.96463 0.72968 0.0
C2327 C 0.27576 0.96787 0.72656 0.0
C2328 C 0.2715 0.97756 0.7303 0.0
C2329 C 0.2776 0.98402 0.73757 0.0
C2330 C 0.28806 0.98079 0.74071 0.0
C2331 C 0.29224 0.9712 0.73662 0.0
C2332 C 0.26046 0.98091 0.72644 0.0
C2333 C 0.29482 0.98745 0.74845 0.0
C2334 C 0.27251 0.05972 0.7078 0.0
C2335 C 0.28239 0.05996 0.7153 0.0
C2336 C 0.28331 0.04157 0.72171 0.0
C2337 C 0.27531 0.03465 0.71753 0.0
C2338 C 0.27145 0.02574 0.72355 0.0
C2339 C 0.27599 0.02356 0.73382 0.0
C2340 C 0.28428 0.03042 0.73795 0.0
C2341 C 0.28781 0.03942 0.73184 0.0
C2342 C 0.26265 0.01859 0.71884 0.0
C2343 C 0.28952 0.02815 0.74872 0.0
C2344 C 0.24006 0.01458 0.77236 0.0
C2345 C 0.23585 0.00483 0.77644 0.0
C2346 C 0.23986 0.99494 0.77312 0.0
C2347 C 0.2485 0.99473 0.76565 0.0
C2348 C 0.25323 0.98498 0.76265 0.0
C2349 C 0.26144 0.98481 0.75498 0.0
C2350 C 0.26515 0.99438 0.74991 0.0
C2351 C 0.27312 0.99423 0.74171 0.0
C2352 C 0.27663 0.0039 0.73687 0.0
C2353 C 0.27239 0.01378 0.73994 0.0
C2354 C 0.26446 0.01411 0.74817 0.0
C2355 C 0.26005 0.02391 0.75153 0.0
C2356 C 0.25219 0.02411 0.75958 0.0
C2357 C 0.24823 0.01451 0.76437 0.0
C2358 C 0.25251 0.00453 0.76106 0.0
C2359 C 0.26076 0.00435 0.75308 0.0
C2360 C 0.27853 0.9404 0.72997 0.0
C2361 C 0.28532 0.94657 0.72149 0.0
O2362 O 0.22123 0.05003 0.79325 0.0
O2363 O 0.28716 0.04995 0.7157 0.0
O2364 O 0.29062 0.9553 0.72625 0.0
O2365 O 0.21809 0.95765 0.78963 0.0
H2366 H 0.23111 0.0541 0.80594 0.0
H2367 H 0.22244 0.0361 0.81018 0.0
H2368 H 0.20922 0.04189 0.80941 0.0
H2369 H 0.21855 0.04587 0.81998 0.0
H2370 H 0.2396 0.04025 0.79942 0.0
H2371 H 0.21503 0.04217 0.77499 0.0
H2372 H 0.2486 0.01532 0.79425 0.0
H2373 H 0.25387 0.02827 0.79852 0.0
H2374 H 0.25708 0.02315 0.78531 0.0
H2375 H 0.21473 0.03068 0.75983 0.0
H2376 H 0.21845 0.01722 0.7638 0.0
H2377 H 0.22764 0.02538 0.75592 0.0
H2378 H 0.20539 0.95418 0.77889 0.0
H2379 H 0.19857 0.9418 0.7906 0.0
H2380 H 0.20868 0.94341 0.79928 0.0
H2381 H 0.21532 0.92777 0.78383 0.0
H2382 H 0.21646 0.96533 0.76928 0.0
H2383 H 0.23163 0.96959 0.8002 0.0
H2384 H 0.23195 0.98118 0.75392 0.0
H2385 H 0.22333 0.99152 0.75882 0.0
H2386 H 0.21772 0.97839 0.75559 0.0
H2387 H 0.24559 0.98269 0.80288 0.0
H2388 H 0.24028 0.99515 0.79778 0.0
H2389 H 0.2516 0.98924 0.79118 0.0
H2390 H 0.27998 0.94944 0.7149 0.0
H2391 H 0.27091 0.96297 0.72115 0.0
H2392 H 0.30025 0.96868 0.73896 0.0
H2393 H 0.25457 0.98004 0.73316 0.0
H2394 H 0.25749 0.97592 0.71958 0.0
H2395 H 0.26065 0.98951 0.72386 0.0
H2396 H 0.30229 0.98329 0.75097 0.0
H2397 H 0.29002 0.98931 0.75577 0.0
H2398 H 0.29716 0.99524 0.74454 0.0
H2399 H 0.27969 0.06217 0.72358 0.0
H2400 H 0.26922 0.06794 0.70679 0.0
H2401 H 0.26598 0.05452 0.71131 0.0
H2402 H 0.27473 0.05657 0.69973 0.0
H2403 H 0.27214 0.03618 0.70952 0.0
H2404 H 0.29416 0.04474 0.73487 0.0
H2405 H 0.25608 0.01721 0.72485 0.0
H2406 H 0.26603 0.01062 0.71686 0.0
H2407 H 0.25912 0.02209 0.71137 0.0
H2408 H 0.29628 0.03392 0.7505 0.0
H2409 H 0.29267 0.01983 0.74885 0.0
H2410 H 0.2834 0.02866 0.75524 0.0
H2411 H 0.22935 0.00495 0.78233 0.0
H2412 H 0.2506 0.97736 0.7662 0.0
H2413 H 0.26476 0.97707 0.75298 0.0
H2414 H 0.28259 0.00371 0.73045 0.0
H2415 H 0.26266 0.03153 0.74799 0.0
H2416 H 0.24912 0.03188 0.76189 0.0
H2417 H 0.27426 0.93339 0.72624 0.0
H2418 H 0.27233 0.94572 0.73345 0.0
H2419 H 0.28377 0.93747 0.73662 0.0
C2420 C 0.96458 0.30881 0.71314 0.0
C2421 C 0.95704 0.29885 0.71334 0.0
C2422 C 0.96402 0.28829 0.72824 0.0
C2423 C 0.96734 0.27887 0.72311 0.0
C2424 C 0.97575 0.27274 0.72743 0.0
C2425 C 0.98095 0.27613 0.73706 0.0
C2426 C 0.97728 0.28538 0.74249 0.0
C2427 C 0.96873 0.29127 0.73806 0.0
C2428 C 0.97926 0.26277 0.72157 0.0
C2429 C 0.98263 0.28923 0.75276 0.0
C2430 C 0.06437 0.27496 0.7307 0.0
C2431 C 0.05961 0.2849 0.72515 0.0
C2432 C 0.04041 0.27926 0.72473 0.0
C2433 C 0.03782 0.28205 0.73541 0.0
C2434 C 0.02789 0.27884 0.74002 0.0
C2435 C 0.0205 0.27241 0.73398 0.0
C2436 C 0.02302 0.2697 0.72319 0.0
C2437 C 0.03288 0.27331 0.71867 0.0
C2438 C 0.02533 0.2823 0.7514 0.0
C2439 C 0.01536 0.26291 0.71646 0.0
C2440 C 0.03831 0.22015 0.78163 0.0
C2441 C 0.03608 0.23066 0.78496 0.0
C2442 C 0.02652 0.23569 0.78172 0.0
C2443 C 0.01917 0.23017 0.77482 0.0
C2444 C 0.02132 0.21947 0.77164 0.0
C2445 C 0.0308 0.21455 0.77525 0.0
C2446 C 0.02429 0.24691 0.7857 0.0
C2447 C 0.01367 0.21329 0.76435 0.0
C2448 C 0.94287 0.23627 0.80486 0.0
C2449 C 0.94351 0.22652 0.79738 0.0
C2450 C 0.96203 0.22678 0.79125 0.0
C2451 C 0.96909 0.23457 0.79556 0.0
C2452 C 0.97792 0.23859 0.78955 0.0
C2453 C 0.97985 0.23447 0.7791 0.0
C2454 C 0.97271 0.22654 0.77474 0.0
C2455 C 0.96381 0.22283 0.78088 0.0
C2456 C 0.98533 0.24705 0.79445 0.0
C2457 C 0.97466 0.22179 0.76374 0.0
C2458 C 0.99075 0.27052 0.74089 0.0
C2459 C 0.00065 0.27358 0.73621 0.0
C2460 C 0.01022 0.26845 0.73901 0.0
C2461 C 0.00995 0.25992 0.74667 0.0
C2462 C 0.01933 0.25427 0.74935 0.0
C2463 C 0.01909 0.24619 0.7572 0.0
C2464 C 0.00945 0.24345 0.76269 0.0
C2465 C 0.00922 0.23554 0.77099 0.0
C2466 C 0.99944 0.23281 0.77605 0.0
C2467 C 0.98982 0.2378 0.77315 0.0
C2468 C 0.98991 0.24587 0.765 0.0
C2469 C 0.98042 0.25119 0.76196 0.0
C2470 C 0.98064 0.25917 0.75397 0.0
C2471 C 0.99038 0.26226 0.74885 0.0
C2472 C 1.00003 0.25697 0.75175 0.0
C2473 C 0.99979 0.24873 0.7598 0.0
C2474 C 0.06142 0.22051 0.77206 0.0
C2475 C 0.05788 0.21974 0.78391 0.0
O2476 O 0.95642 0.2947 0.72377 0.0
O2477 O 0.95391 0.22258 0.79738 0.0
O2478 O 0.04756 0.21516 0.78454 0.0
O2479 O 0.05 0.28207 0.71999 0.0
H2480 H 0.96048 0.29278 0.7078 0.0
H2481 H 0.97285 0.30655 0.71566 0.0
H2482 H 0.96162 0.31506 0.71874 0.0
H2483 H 0.96506 0.31227 0.70484 0.0
H2484 H 0.9634 0.27635 0.71571 0.0
H2485 H 0.96599 0.29848 0.74202 0.0
H2486 H 0.98748 0.26419 0.71819 0.0
H2487 H 0.97368 0.26057 0.71486 0.0
H2488 H 0.97969 0.25586 0.7273 0.0
H2489 H 0.97881 0.29656 0.75601 0.0
H2490 H 0.99133 0.29105 0.75122 0.0
H2491 H 0.98217 0.28275 0.75899 0.0
H2492 H 0.0581 0.29119 0.73128 0.0
H2493 H 0.06591 0.26856 0.72468 0.0
H2494 H 0.05868 0.27167 0.73689 0.0
H2495 H 0.07209 0.27713 0.73483 0.0
H2496 H 0.04344 0.28679 0.7402 0.0
H2497 H 0.03488 0.27126 0.71043 0.0
H2498 H 0.01688 0.2851 0.75195 0.0
H2499 H 0.03088 0.28887 0.7542 0.0
H2500 H 0.02615 0.27532 0.75698 0.0
H2501 H 0.01911 0.26033 0.70877 0.0
H2502 H 0.00809 0.26765 0.71449 0.0
H2503 H 0.01264 0.25563 0.72106 0.0
H2504 H 0.05795 0.22799 0.78735 0.0
H2505 H 0.04166 0.23489 0.79026 0.0
H2506 H 0.03255 0.20638 0.77285 0.0
H2507 H 0.02521 0.25275 0.77891 0.0
H2508 H 0.02991 0.24942 0.79226 0.0
H2509 H 0.01585 0.24737 0.78871 0.0
H2510 H 0.01705 0.20551 0.76171 0.0
H2511 H 0.01176 0.21821 0.75708 0.0
H2512 H 0.00595 0.2116 0.76869 0.0
H2513 H 0.94131 0.22911 0.78902 0.0
H2514 H 0.93446 0.23923 0.80522 0.0
H2515 H 0.94812 0.24297 0.80176 0.0
H2516 H 0.94555 0.23409 0.81315 0.0
H2517 H 0.96771 0.23741 0.80369 0.0
H2518 H 0.95835 0.21667 0.77772 0.0
H2519 H 0.98676 0.25377 0.78862 0.0
H2520 H 0.99327 0.24345 0.79629 0.0
H2521 H 0.98198 0.25036 0.80203 0.0
H2522 H 0.96853 0.21546 0.76165 0.0
H2523 H 0.98282 0.21821 0.76349 0.0
H2524 H 0.97446 0.22825 0.7575 0.0
H2525 H 0.00091 0.28008 0.73027 0.0
H2526 H 0.027 0.25606 0.74545 0.0
H2527 H 0.02658 0.24216 0.75897 0.0
H2528 H 0.99934 0.22676 0.78243 0.0
H2529 H 0.97272 0.24923 0.76574 0.0
H2530 H 0.97309 0.26298 0.75194 0.0
H2531 H 0.06138 0.21237 0.76834 0.0
H2532 H 0.06968 0.22416 0.7714 0.0
H2533 H 0.05581 0.22569 0.76744 0.0
C2534 C 0.80325 0.96226 0.80013 0.0
C2535 C 0.79434 0.95363 0.79849 0.0
C2536 C 0.78463 0.96199 0.78364 0.0
C2537 C 0.77547 0.9658 0.78897 0.0
C2538 C 0.76975 0.97456 0.78478 0.0
C2539 C 0.77332 0.97966 0.77513 0.0
C2540 C 0.78235 0.9756 0.76954 0.0
C2541 C 0.78778 0.96667 0.7738 0.0
C2542 C 0.76 0.9785 0.79081 0.0
C2543 C 0.78644 0.98088 0.75927 0.0
C2544 C 0.77712 0.06285 0.78147 0.0
C2545 C 0.78633 0.05715 0.78737 0.0
C2546 C 0.77896 0.03855 0.78769 0.0
C2547 C 0.78159 0.03592 0.77699 0.0
C2548 C 0.77781 0.02625 0.77236 0.0
C2549 C 0.77098 0.01919 0.77844 0.0
C2550 C 0.76839 0.02176 0.78925 0.0
C2551 C 0.77255 0.03135 0.79376 0.0
C2552 C 0.78111 0.02362 0.76095 0.0
C2553 C 0.76117 0.01445 0.79601 0.0
C2554 C 0.71866 0.03894 0.73086 0.0
C2555 C 0.72934 0.03689 0.72775 0.0
C2556 C 0.7344 0.02736 0.731 0.0
C2557 C 0.72874 0.01985 0.7377 0.0
C2558 C 0.71793 0.02186 0.74073 0.0
C2559 C 0.71298 0.03131 0.73711 0.0
C2560 C 0.74575 0.02528 0.72716 0.0
C2561 C 0.71161 0.01405 0.74783 0.0
C2562 C 0.73815 0.94399 0.70748 0.0
C2563 C 0.72733 0.94483 0.71341 0.0
C2564 C 0.72681 0.96339 0.71892 0.0
C2565 C 0.73454 0.97088 0.71517 0.0
C2566 C 0.7379 0.97957 0.72163 0.0
C2567 C 0.73316 0.98091 0.73193 0.0
C2568 C 0.72521 0.97339 0.73567 0.0
C2569 C 0.72218 0.96463 0.72912 0.0
C2570 C 0.74642 0.98739 0.71738 0.0
C2571 C 0.71978 0.97473 0.74648 0.0
C2572 C 0.76809 0.9897 0.77136 0.0
C2573 C 0.77139 0.99939 0.77619 0.0
C2574 C 0.76659 0.00914 0.77346 0.0
C2575 C 0.7581 0.00926 0.76579 0.0
C2576 C 0.75269 0.01883 0.76326 0.0
C2577 C 0.74466 0.01897 0.75538 0.0
C2578 C 0.7418 0.00958 0.74966 0.0
C2579 C 0.73401 0.00976 0.74128 0.0
C2580 C 0.7313 1.00025 0.73584 0.0
C2581 C 0.73615 0.9905 0.7385 0.0
C2582 C 0.74396 0.99015 0.74685 0.0
C2583 C 0.749 0.98048 0.74976 0.0
C2584 C 0.75675 0.98026 0.75793 0.0
C2585 C 0.75997 0.98975 0.76329 0.0
C2586 C 0.75496 0.99958 0.76051 0.0
C2587 C 0.74686 0.99976 0.75237 0.0
C2588 C 0.71894 0.06223 0.73973 0.0
C2589 C 0.71799 0.05842 0.728 0.0
O2590 O 0.79067 0.95397 0.78789 0.0
O2591 O 0.72353 0.95522 0.71245 0.0
O2592 O 0.71354 0.04806 0.72781 0.0
O2593 O 0.78238 0.04787 0.79247 0.0
H2594 H 0.78759 0.95528 0.80412 0.0
H2595 H 0.79999 0.97041 0.79861 0.0
H2596 H 0.81008 0.96097 0.79449 0.0
H2597 H 0.80632 0.96201 0.80857 0.0
H2598 H 0.77274 0.96194 0.79638 0.0
H2599 H 0.7948 0.96359 0.7697 0.0
H2600 H 0.76192 0.98652 0.79433 0.0
H2601 H 0.75749 0.97292 0.79745 0.0
H2602 H 0.75309 0.97947 0.78518 0.0
H2603 H 0.79378 0.97695 0.7561 0.0
H2604 H 0.78838 0.98953 0.76075 0.0
H2605 H 0.78004 0.9805 0.75299 0.0
H2606 H 0.79271 0.05503 0.78148 0.0
H2607 H 0.78021 0.07031 0.77738 0.0
H2608 H 0.77067 0.06502 0.78726 0.0
H2609 H 0.77353 0.05752 0.7752 0.0
H2610 H 0.78664 0.04129 0.77216 0.0
H2611 H 0.77061 0.03339 0.80203 0.0
H2612 H 0.78358 0.01509 0.76039 0.0
H2613 H 0.78789 0.0289 0.75804 0.0
H2614 H 0.77411 0.02473 0.75545 0.0
H2615 H 0.75876 0.01828 0.8037 0.0
H2616 H 0.76553 0.00694 0.79796 0.0
H2617 H 0.75376 0.01213 0.79143 0.0
H2618 H 0.72619 0.05854 0.72433 0.0
H2619 H 0.73366 0.04256 0.72256 0.0
H2620 H 0.7047 0.03292 0.73935 0.0
H2621 H 0.75145 0.026 0.73407 0.0
H2622 H 0.74842 0.03109 0.72077 0.0
H2623 H 0.74631 0.01697 0.72396 0.0
H2624 H 0.70378 0.01738 0.7505 0.0
H2625 H 0.71644 0.01191 0.75508 0.0
H2626 H 0.70992 0.0065 0.7433 0.0
H2627 H 0.72861 0.94284 0.72212 0.0
H2628 H 0.74121 0.93564 0.70804 0.0
H2629 H 0.74428 0.94948 0.71121 0.0
H2630 H 0.73723 0.94625 0.69883 0.0
H2631 H 0.73795 0.96986 0.70719 0.0
H2632 H 0.71609 0.95882 0.73184 0.0
H2633 H 0.75289 0.98863 0.7235 0.0
H2634 H 0.74272 0.99533 0.7158 0.0
H2635 H 0.75015 0.98456 0.70977 0.0
H2636 H 0.71336 0.9685 0.74796 0.0
H2637 H 0.71615 0.98283 0.74693 0.0
H2638 H 0.72589 0.97421 0.75302 0.0
H2639 H 0.77784 0.99934 0.78215 0.0
H2640 H 0.75463 0.02632 0.76732 0.0
H2641 H 0.7408 0.02657 0.75375 0.0
H2642 H 0.72541 0.00046 0.72934 0.0
H2643 H 0.74698 0.97296 0.74576 0.0
H2644 H 0.76032 0.97258 0.75987 0.0
H2645 H 0.71084 0.06221 0.74363 0.0
H2646 H 0.72253 0.07051 0.74006 0.0
H2647 H 0.72427 0.05679 0.74438 0.0
C2648 C 0.30243 0.7726 0.56478 0.0
C2649 C 0.30307 0.78371 0.55923 0.0
C2650 C 0.28894 0.78236 0.54518 0.0
C2651 C 0.27873 0.78589 0.5421 0.0
C2652 C 0.27376 0.78226 0.53255 0.0
C2653 C 0.27911 0.77476 0.52597 0.0
C2654 C 0.28947 0.77115 0.529 0.0
C2655 C 0.29432 0.77503 0.53852 0.0
C2656 C 0.26279 0.78645 0.52948 0.0
C2657 C 0.29542 0.76315 0.52218 0.0
C2658 C 0.30277 0.79582 0.44372 0.0
C2659 C 0.30016 0.78918 0.4535 0.0
C2660 C 0.28646 0.78712 0.46766 0.0
C2661 C 0.29042 0.77733 0.47172 0.0
C2662 C 0.28582 0.7724 0.48092 0.0
C2663 C 0.27707 0.77733 0.48619 0.0
C2664 C 0.27296 0.78708 0.48204 0.0
C2665 C 0.27769 0.79183 0.4728 0.0
C2666 C 0.29038 0.76197 0.4851 0.0
C2667 C 0.26362 0.79252 0.48745 0.0
C2668 C 0.22256 0.72854 0.46801 0.0
C2669 C 0.23305 0.72503 0.46995 0.0
C2670 C 0.2389 0.72869 0.479 0.0
C2671 C 0.23414 0.73614 0.48611 0.0
C2672 C 0.22352 0.73971 0.48409 0.0
C2673 C 0.21778 0.73571 0.47514 0.0
C2674 C 0.25005 0.72441 0.4811 0.0
C2675 C 0.21815 0.74762 0.49147 0.0
C2676 C 0.24257 0.7099 0.56353 0.0
C2677 C 0.23121 0.71452 0.56233 0.0
C2678 C 0.23127 0.71919 0.54339 0.0
C2679 C 0.23857 0.71476 0.53615 0.0
C2680 C 0.24242 0.72074 0.52724 0.0
C2681 C 0.23857 0.73128 0.52538 0.0
C2682 C 0.23101 0.7357 0.53263 0.0
C2683 C 0.22753 0.72962 0.54166 0.0
C2684 C 0.25052 0.71576 0.51976 0.0
C2685 C 0.22644 0.74675 0.53073 0.0
C2686 C 0.27394 0.77082 0.51585 0.0
C2687 C 0.27713 0.77566 0.50609 0.0
C2688 C 0.27256 0.77244 0.49627 0.0
C2689 C 0.26429 0.76437 0.49615 0.0
C2690 C 0.25918 0.76126 0.48648 0.0
C2691 C 0.25109 0.75327 0.48644 0.0
C2692 C 0.24798 0.74792 0.49604 0.0
C2693 C 0.23993 0.73964 0.49606 0.0
C2694 C 0.23706 0.7345 0.50576 0.0
C2695 C 0.24199 0.73735 0.51552 0.0
C2696 C 0.25005 0.74562 0.51567 0.0
C2697 C 0.25525 0.74866 0.52532 0.0
C2698 C 0.26304 0.75693 0.52541 0.0
C2699 C 0.26605 0.76238 0.51583 0.0
C2700 C 0.26111 0.75926 0.50596 0.0
C2701 C 0.25303 0.75094 0.50589 0.0
C2702 C 0.21007 0.73964 0.44956 0.0
C2703 C 0.2167 0.72931 0.44942 0.0
O2704 O 0.29319 0.78617 0.5546 0.0
O2705 O 0.22758 0.71317 0.55183 0.0
O2706 O 0.2168 0.72454 0.45958 0.0
O2707 O 0.29089 0.79225 0.4589 0.0
H2708 H 0.30942 0.78364 0.55287 0.0
H2709 H 0.30058 0.76618 0.55883 0.0
H2710 H 0.29599 0.77238 0.57104 0.0
H2711 H 0.3103 0.77076 0.56866 0.0
H2712 H 0.27464 0.79156 0.54723 0.0
H2713 H 0.30226 0.77223 0.54067 0.0
H2714 H 0.26299 0.78968 0.52109 0.0
H2715 H 0.2601 0.79291 0.53498 0.0
H2716 H 0.25672 0.77974 0.52973 0.0
H2717 H 0.30291 0.76032 0.52616 0.0
H2718 H 0.29765 0.76698 0.51434 0.0
H2719 H 0.29009 0.75606 0.52044 0.0
H2720 H 0.30713 0.78783 0.45904 0.0
H2721 H 0.3107 0.8 0.44565 0.0
H2722 H 0.29786 0.80335 0.44432 0.0
H2723 H 0.30101 0.78486 0.43102 0.0
H2724 H 0.29713 0.7735 0.46778 0.0
H2725 H 0.27464 0.79934 0.4696 0.0
H2726 H 0.28391 0.75563 0.48533 0.0
H2727 H 0.29337 0.76308 0.49348 0.0
H2728 H 0.29714 0.75909 0.48003 0.0
H2729 H 0.2611 0.79988 0.48303 0.0
H2730 H 0.26594 0.79478 0.49582 0.0
H2731 H 0.25659 0.78682 0.48802 0.0
H2732 H 0.22516 0.73145 0.44701 0.0
H2733 H 0.23657 0.71932 0.46446 0.0
H2734 H 0.20955 0.73817 0.47367 0.0
H2735 H 0.25612 0.7311 0.48053 0.0
H2736 H 0.25227 0.71806 0.47526 0.0
H2737 H 0.25049 0.72101 0.48941 0.0
H2738 H 0.21048 0.75066 0.48802 0.0
H2739 H 0.22369 0.75459 0.49307 0.0
H2740 H 0.21632 0.74363 0.49933 0.0
H2741 H 0.23161 0.72329 0.56424 0.0
H2742 H 0.24553 0.71078 0.57196 0.0
H2743 H 0.24835 0.71432 0.55815 0.0
H2744 H 0.24249 0.70122 0.56135 0.0
H2745 H 0.24131 0.70662 0.53758 0.0
H2746 H 0.22175 0.73289 0.54727 0.0
H2747 H 0.25737 0.7215 0.51819 0.0
H2748 H 0.24658 0.71397 0.5119 0.0
H2749 H 0.25378 0.70814 0.52311 0.0
H2750 H 0.21993 0.74862 0.53657 0.0
H2751 H 0.22314 0.74733 0.5224 0.0
H2752 H 0.23298 0.75296 0.53149 0.0
H2753 H 0.28337 0.78195 0.50614 0.0
H2754 H 0.26132 0.76503 0.47884 0.0
H2755 H 0.24737 0.75127 0.47877 0.0
H2756 H 0.23088 0.72815 0.50571 0.0
H2757 H 0.25331 0.74472 0.53293 0.0
H2758 H 0.26673 0.75896 0.53309 0.0
H2759 H 0.20177 0.73788 0.45264 0.0
H2760 H 0.2095 0.74317 0.44131 0.0
H2761 H 0.21403 0.74578 0.45479 0.0
C2762 C 0.81139 0.71294 0.46199 0.0
C2763 C 0.80141 0.71204 0.45467 0.0
C2764 C 0.79011 0.72554 0.4628 0.0
C2765 C 0.78196 0.7192 0.46771 0.0
C2766 C 0.77625 0.72303 0.47664 0.0
C2767 C 0.77885 0.73337 0.48079 0.0
C2768 C 0.78689 0.73989 0.47566 0.0
C2769 C 0.79229 0.73594 0.46657 0.0
C2770 C 0.76756 0.71596 0.48175 0.0
C2771 C 0.78999 0.7509 0.47993 0.0
C2772 C 0.80353 0.71362 0.5625 0.0
C2773 C 0.801 0.7203 0.55283 0.0
C2774 C 0.7871 0.72211 0.53891 0.0
C2775 C 0.79124 0.73192 0.5347 0.0
C2776 C 0.78655 0.73672 0.52556 0.0
C2777 C 0.77756 0.73161 0.52054 0.0
C2778 C 0.77326 0.72184 0.52486 0.0
C2779 C 0.77808 0.71724 0.53402 0.0
C2780 C 0.79128 0.74719 0.52119 0.0
C2781 C 0.76366 0.71619 0.51969 0.0
C2782 C 0.72437 0.77719 0.53989 0.0
C2783 C 0.73423 0.78175 0.53634 0.0
C2784 C 0.73903 0.77831 0.52671 0.0
C2785 C 0.7339 0.77007 0.5206 0.0
C2786 C 0.72384 0.76561 0.52407 0.0
C2787 C 0.71913 0.76936 0.53361 0.0
C2788 C 0.74955 0.78353 0.52304 0.0
C2789 C 0.71809 0.75687 0.51774 0.0
C2790 C 0.71984 0.76899 0.43848 0.0
C2791 C 0.71482 0.77832 0.44467 0.0
C2792 C 0.72603 0.77899 0.46115 0.0
C2793 C 0.73445 0.78459 0.46632 0.0
C2794 C 0.73884 0.78079 0.47606 0.0
C2795 C 0.73465 0.77114 0.48073 0.0
C2796 C 0.726 0.76551 0.47566 0.0
C2797 C 0.72177 0.76948 0.46593 0.0
C2798 C 0.74803 0.787 0.4813 0.0
C2799 C 0.7213 0.75522 0.48049 0.0
C2800 C 0.77358 0.7371 0.49084 0.0
C2801 C 0.77745 0.73313 0.50067 0.0
C2802 C 0.77296 0.73624 0.51049 0.0
C2803 C 0.7644 0.74363 0.51058 0.0
C2804 C 0.75972 0.74697 0.52032 0.0
C2805 C 0.75134 0.7543 0.52032 0.0
C2806 C 0.74737 0.75862 0.51059 0.0
C2807 C 0.73896 0.76619 0.51051 0.0
C2808 C 0.73511 0.7702 0.50068 0.0
C2809 C 0.73939 0.76682 0.49085 0.0
C2810 C 0.74787 0.75934 0.49076 0.0
C2811 C 0.75238 0.7558 0.48101 0.0
C2812 C 0.76074 0.74845 0.48101 0.0
C2813 C 0.76496 0.74442 0.49075 0.0
C2814 C 0.76042 0.74777 0.50067 0.0
C2815 C 0.75189 0.75526 0.50068 0.0
C2816 C 0.72561 0.77069 0.56464 0.0
C2817 C 0.72466 0.78167 0.55903 0.0
O2818 O 0.79607 0.72178 0.45449 0.0
O2819 O 0.72239 0.783 0.45157 0.0
O2820 O 0.71954 0.78037 0.54914 0.0
O2821 O 0.79158 0.71707 0.54756 0.0
H2822 H 0.79597 0.70554 0.45791 0.0
H2823 H 0.8089 0.71476 0.47039 0.0
H2824 H 0.81696 0.71949 0.45909 0.0
H2825 H 0.81578 0.70521 0.46213 0.0
H2826 H 0.78001 0.71128 0.46454 0.0
H2827 H 0.79854 0.7408 0.46263 0.0
H2828 H 0.77038 0.71311 0.48978 0.0
H2829 H 0.76552 0.7088 0.47674 0.0
H2830 H 0.76011 0.72063 0.48305 0.0
H2831 H 0.79701 0.75457 0.47554 0.0
H2832 H 0.79204 0.75033 0.48865 0.0
H2833 H 0.78303 0.75636 0.47912 0.0
H2834 H 0.80793 0.72177 0.5472 0.0
H2835 H 0.81133 0.70958 0.56046 0.0
H2836 H 0.79842 0.70602 0.56189 0.0
H2837 H 0.80219 0.72445 0.57533 0.0
H2838 H 0.79815 0.73587 0.53845 0.0
H2839 H 0.7749 0.70971 0.53735 0.0
H2840 H 0.79431 0.74596 0.51286 0.0
H2841 H 0.79804 0.75036 0.52625 0.0
H2842 H 0.78489 0.75334 0.52075 0.0
H2843 H 0.76114 0.70876 0.52416 0.0
H2844 H 0.76569 0.714 0.51126 0.0
H2845 H 0.75672 0.72173 0.51934 0.0
H2846 H 0.73295 0.78513 0.5579 0.0
H2847 H 0.73809 0.78816 0.54091 0.0
H2848 H 0.71143 0.76603 0.53635 0.0
H2849 H 0.75608 0.77753 0.52343 0.0
H2850 H 0.75195 0.79054 0.52811 0.0
H2851 H 0.74887 0.78626 0.51451 0.0
H2852 H 0.71091 0.75349 0.52209 0.0
H2853 H 0.72371 0.75022 0.51601 0.0
H2854 H 0.71537 0.76021 0.50987 0.0
H2855 H 0.70777 0.77523 0.44942 0.0
H2856 H 0.71382 0.76539 0.43281 0.0
H2857 H 0.72243 0.76255 0.44413 0.0
H2858 H 0.72703 0.77187 0.43382 0.0
H2859 H 0.73766 0.79193 0.46263 0.0
H2860 H 0.7152 0.76505 0.46213 0.0
H2861 H 0.7552 0.78178 0.482 0.0
H2862 H 0.74569 0.78934 0.48961 0.0
H2863 H 0.75036 0.79439 0.47667 0.0
H2864 H 0.71442 0.75191 0.47569 0.0
H2865 H 0.71847 0.75673 0.48884 0.0
H2866 H 0.72767 0.74906 0.48098 0.0
H2867 H 0.78407 0.72751 0.50068 0.0
H2868 H 0.76249 0.74396 0.52805 0.0
H2869 H 0.74803 0.75656 0.52806 0.0
H2870 H 0.72862 0.77596 0.50067 0.0
H2871 H 0.74951 0.75868 0.47327 0.0
H2872 H 0.76389 0.746 0.47326 0.0
H2873 H 0.71748 0.76688 0.56586 0.0
H2874 H 0.72967 0.7716 0.5726 0.0
H2875 H 0.73053 0.76525 0.55961 0.0
C2876 C 0.81139 0.2956 0.54128 0.0
C2877 C 0.80082 0.29554 0.54773 0.0
C2878 C 0.79061 0.28041 0.5403 0.0
C2879 C 0.78146 0.28537 0.53598 0.0
C2880 C 0.7757 0.28066 0.52738 0.0
C2881 C 0.77921 0.27081 0.523 0.0
C2882 C 0.78824 0.26562 0.52759 0.0
C2883 C 0.79373 0.27044 0.53631 0.0
C2884 C 0.76596 0.28628 0.52288 0.0
C2885 C 0.79221 0.25514 0.52312 0.0
C2886 C 0.78287 0.27165 0.43937 0.0
C2887 C 0.7917 0.27842 0.44501 0.0
C2888 C 0.78394 0.27952 0.4633 0.0
C2889 C 0.78659 0.26906 0.46675 0.0
C2890 C 0.78285 0.26493 0.47669 0.0
C2891 C 0.77609 0.27126 0.48322 0.0
C2892 C 0.77344 0.2818 0.47979 0.0
C2893 C 0.77751 0.28582 0.46994 0.0
C2894 C 0.78615 0.25378 0.48021 0.0
C2895 C 0.76628 0.28881 0.48652 0.0
C2896 C 0.72002 0.22428 0.46835 0.0
C2897 C 0.73048 0.22065 0.47027 0.0
C2898 C 0.73638 0.22422 0.47933 0.0
C2899 C 0.73176 0.23181 0.48639 0.0
C2900 C 0.72115 0.23548 0.48439 0.0
C2901 C 0.71535 0.23151 0.47547 0.0
C2902 C 0.74748 0.2198 0.4814 0.0
C2903 C 0.71595 0.24359 0.49166 0.0
C2904 C 0.73243 0.22535 0.56979 0.0
C2905 C 0.72229 0.22059 0.56433 0.0
C2906 C 0.72857 0.22044 0.54548 0.0
C2907 C 0.73517 0.21462 0.53857 0.0
C2908 C 0.73918 0.21921 0.52894 0.0
C2909 C 0.7362 0.22979 0.52597 0.0
C2910 C 0.72923 0.23561 0.53275 0.0
C2911 C 0.72562 0.23095 0.54251 0.0
C2912 C 0.74661 0.21275 0.52194 0.0
C2913 C 0.72547 0.24672 0.52964 0.0
C2914 C 0.77375 0.26628 0.51328 0.0
C2915 C 0.777 0.27031 0.50318 0.0
C2916 C 0.77191 0.26689 0.49368 0.0
C2917 C 0.76322 0.25929 0.49423 0.0
C2918 C 0.75756 0.25605 0.4849 0.0
C2919 C 0.74917 0.24841 0.48549 0.0
C2920 C 0.74617 0.24363 0.49541 0.0
C2921 C 0.73782 0.23567 0.49605 0.0
C2922 C 0.7349 0.23128 0.5061 0.0
C2923 C 0.74006 0.23461 0.5156 0.0
C2924 C 0.74852 0.24247 0.5151 0.0
C2925 C 0.75398 0.24595 0.52447 0.0
C2926 C 0.76215 0.25383 0.52391 0.0
C2927 C 0.76538 0.25835 0.51395 0.0
C2928 C 0.76008 0.25487 0.50438 0.0
C2929 C 0.75159 0.24697 0.50496 0.0
C2930 C 0.71185 0.23578 0.44789 0.0
C2931 C 0.71614 0.22433 0.44926 0.0
O2932 O 0.79655 0.28511 0.54828 0.0
O2933 O 0.72515 0.21556 0.5548 0.0
O2934 O 0.71428 0.2207 0.45973 0.0
O2935 O 0.78734 0.28384 0.4537 0.0
H2936 H 0.7951 0.30093 0.54348 0.0
H2937 H 0.80981 0.29277 0.53292 0.0
H2938 H 0.81735 0.29017 0.54513 0.0
H2939 H 0.81494 0.3039 0.54081 0.0
H2940 H 0.7788 0.2929 0.53934 0.0
H2941 H 0.80074 0.26662 0.53981 0.0
H2942 H 0.76773 0.2891 0.51452 0.0
H2943 H 0.76368 0.29334 0.5278 0.0
H2944 H 0.75895 0.28056 0.52247 0.0
H2945 H 0.7995 0.25225 0.52744 0.0
H2946 H 0.7942 0.25617 0.51442 0.0
H2947 H 0.78572 0.24885 0.52375 0.0
H2948 H 0.79823 0.27307 0.44789 0.0
H2949 H 0.7863 0.26731 0.43238 0.0
H2950 H 0.77627 0.27689 0.43646 0.0
H2951 H 0.77936 0.26554 0.44502 0.0
H2952 H 0.79162 0.26406 0.46181 0.0
H2953 H 0.77554 0.29388 0.46726 0.0
H2954 H 0.78903 0.25389 0.48872 0.0
H2955 H 0.79264 0.25055 0.47503 0.0
H2956 H 0.77904 0.24819 0.47981 0.0
H2957 H 0.76379 0.29617 0.48208 0.0
H2958 H 0.77071 0.29133 0.49391 0.0
H2959 H 0.75891 0.28422 0.48911 0.0
H2960 H 0.72501 0.2245 0.44764 0.0
H2961 H 0.73394 0.21492 0.46476 0.0
H2962 H 0.7072 0.23418 0.47389 0.0
H2963 H 0.75368 0.22626 0.48004 0.0
H2964 H 0.74929 0.21294 0.476 0.0
H2965 H 0.74818 0.21706 0.48993 0.0
H2966 H 0.70831 0.24669 0.48819 0.0
H2967 H 0.7216 0.25051 0.49313 0.0
H2968 H 0.71408 0.23975 0.49959 0.0
H2969 H 0.71654 0.22715 0.56262 0.0
H2970 H 0.73027 0.22944 0.57743 0.0
H2971 H 0.73642 0.23142 0.5644 0.0
H2972 H 0.73827 0.21889 0.57162 0.0
H2973 H 0.73736 0.2065 0.54088 0.0
H2974 H 0.72035 0.23552 0.54762 0.0
H2975 H 0.75392 0.21766 0.51975 0.0
H2976 H 0.74238 0.21057 0.51432 0.0
H2977 H 0.74921 0.20521 0.526 0.0
H2978 H 0.71895 0.24956 0.53503 0.0
H2979 H 0.72246 0.24677 0.52119 0.0
H2980 H 0.73238 0.25255 0.53011 0.0
H2981 H 0.78357 0.27623 0.50272 0.0
H2982 H 0.75955 0.2594 0.47703 0.0
H2983 H 0.7451 0.24625 0.47804 0.0
H2984 H 0.72843 0.22525 0.50655 0.0
H2985 H 0.75195 0.24266 0.53235 0.0
H2986 H 0.76599 0.25627 0.5314 0.0
H2987 H 0.70307 0.23593 0.44977 0.0
H2988 H 0.71316 0.23876 0.4395 0.0
H2989 H 0.71621 0.24141 0.45341 0.0
C2990 C 0.20808 0.27192 0.44532 0.0
C2991 C 0.20693 0.28287 0.45085 0.0
C2992 C 0.22145 0.28298 0.46453 0.0
C2993 C 0.23142 0.28767 0.46734 0.0
C2994 C 0.23686 0.28457 0.47679 0.0
C2995 C 0.23224 0.27643 0.48351 0.0
C2996 C 0.22211 0.27168 0.48078 0.0
C2997 C 0.21678 0.27505 0.47136 0.0
C2998 C 0.24756 0.28994 0.47955 0.0
C2999 C 0.21696 0.26298 0.48778 0.0
C3000 C 0.23369 0.28148 0.56689 0.0
C3001 C 0.22323 0.28584 0.56202 0.0
C3002 C 0.22864 0.28712 0.54295 0.0
C3003 C 0.22561 0.2766 0.53981 0.0
C3004 C 0.22906 0.27242 0.52992 0.0
C3005 C 0.23595 0.27874 0.52315 0.0
C3006 C 0.23889 0.28938 0.52622 0.0
C3007 C 0.23505 0.29347 0.53601 0.0
C3008 C 0.22534 0.26121 0.52671 0.0
C3009 C 0.24621 0.29637 0.51922 0.0
C3010 C 0.28656 0.23166 0.5417 0.0
C3011 C 0.27669 0.22727 0.53801 0.0
C3012 C 0.27223 0.23069 0.52817 0.0
C3013 C 0.27776 0.23865 0.52192 0.0
C3014 C 0.28792 0.24277 0.52543 0.0
C3015 C 0.29225 0.23911 0.53525 0.0
C3016 C 0.26154 0.22586 0.52449 0.0
C3017 C 0.29406 0.2512 0.51891 0.0
C3018 C 0.27339 0.22943 0.43839 0.0
C3019 C 0.28472 0.22809 0.44315 0.0
C3020 C 0.28115 0.22748 0.46254 0.0
C3021 C 0.27407 0.22181 0.46942 0.0
C3022 C 0.27059 0.22633 0.47915 0.0
C3023 C 0.27455 0.23666 0.48218 0.0
C3024 C 0.28208 0.24224 0.47547 0.0
C3025 C 0.28528 0.23761 0.46569 0.0
C3026 C 0.2626 0.22011 0.48614 0.0
C3027 C 0.28677 0.25311 0.47864 0.0
C3028 C 0.23801 0.27285 0.49338 0.0
C3029 C 0.235 0.27727 0.50326 0.0
C3030 C 0.24003 0.27421 0.51289 0.0
C3031 C 0.24844 0.26664 0.51267 0.0
C3032 C 0.25388 0.26359 0.52216 0.0
C3033 C 0.26187 0.25586 0.52193 0.0
C3034 C 0.2648 0.25094 0.51218 0.0
C3035 C 0.27273 0.24288 0.5119 0.0
C3036 C 0.27572 0.23842 0.50204 0.0
C3037 C 0.27084 0.24163 0.49238 0.0
C3038 C 0.26264 0.24942 0.49253 0.0
C3039 C 0.25728 0.25256 0.48302 0.0
C3040 C 0.24922 0.26023 0.48327 0.0
C3041 C 0.24621 0.26507 0.49303 0.0
C3042 C 0.25146 0.26198 0.50272 0.0
C3043 C 0.25966 0.25413 0.50247 0.0
C3044 C 0.28489 0.23929 0.56618 0.0
C3045 C 0.28519 0.22812 0.56103 0.0
O3046 O 0.21676 0.2863 0.45516 0.0
O3047 O 0.28399 0.22285 0.45307 0.0
O3048 O 0.29085 0.22876 0.55136 0.0
O3049 O 0.22554 0.29144 0.55251 0.0
H3050 H 0.20079 0.28211 0.45739 0.0
H3051 H 0.21048 0.26565 0.45124 0.0
H3052 H 0.21434 0.27239 0.43889 0.0
H3053 H 0.20024 0.26932 0.44168 0.0
H3054 H 0.23496 0.29381 0.46207 0.0
H3055 H 0.20903 0.27136 0.4694 0.0
H3056 H 0.24733 0.29309 0.48793 0.0
H3057 H 0.24966 0.29669 0.47394 0.0
H3058 H 0.25406 0.28391 0.47921 0.0
H3059 H 0.20938 0.25961 0.48421 0.0
H3060 H 0.21508 0.26633 0.49584 0.0
H3061 H 0.22271 0.25632 0.48902 0.0
H3062 H 0.21755 0.279 0.56038 0.0
H3063 H 0.23195 0.27702 0.57453 0.0
H3064 H 0.23952 0.2882 0.56856 0.0
H3065 H 0.2375 0.27581 0.56119 0.0
H3066 H 0.22043 0.27163 0.54491 0.0
H3067 H 0.23727 0.3016 0.53844 0.0
H3068 H 0.22252 0.26116 0.51819 0.0
H3069 H 0.21869 0.25805 0.53196 0.0
H3070 H 0.23222 0.25563 0.52735 0.0
H3071 H 0.2486 0.30404 0.52324 0.0
H3072 H 0.24199 0.29833 0.51156 0.0
H3073 H 0.25363 0.29194 0.51712 0.0
H3074 H 0.2767 0.22537 0.55963 0.0
H3075 H 0.2725 0.2211 0.54272 0.0
H3076 H 0.29996 0.24229 0.53809 0.0
H3077 H 0.25529 0.23216 0.52457 0.0
H3078 H 0.25876 0.21905 0.52975 0.0
H3079 H 0.26223 0.22294 0.51607 0.0
H3080 H 0.30173 0.2538 0.52289 0.0
H3081 H 0.28895 0.25836 0.51766 0.0
H3082 H 0.29598 0.24794 0.51082 0.0
H3083 H 0.28847 0.23625 0.44409 0.0
H3084 H 0.27388 0.23353 0.43039 0.0
H3085 H 0.26846 0.23444 0.44383 0.0
H3086 H 0.26925 0.22145 0.43743 0.0
H3087 H 0.27107 0.21392 0.46699 0.0
H3088 H 0.29115 0.24185 0.46067 0.0
H3089 H 0.25554 0.22519 0.48795 0.0
H3090 H 0.26648 0.21802 0.49395 0.0
H3091 H 0.25967 0.21255 0.48225 0.0
H3092 H 0.29328 0.25594 0.47305 0.0
H3093 H 0.2901 0.25271 0.48696 0.0
H3094 H 0.28028 0.25915 0.47861 0.0
H3095 H 0.22855 0.28307 0.50347 0.0
H3096 H 0.25198 0.2671 0.5299 0.0
H3097 H 0.26572 0.25378 0.5295 0.0
H3098 H 0.28188 0.23231 0.50189 0.0
H3099 H 0.25923 0.24909 0.47528 0.0
H3100 H 0.24536 0.2623 0.4757 0.0
H3101 H 0.28046 0.23888 0.57399 0.0
H3102 H 0.28063 0.24496 0.56074 0.0
H3103 H 0.29322 0.24251 0.56762 0.0
C3104 C 0.81266 0.54355 0.71306 0.0
C3105 C 0.80266 0.5503 0.71077 0.0
C3106 C 0.78989 0.54331 0.72397 0.0
C3107 C 0.78122 0.53938 0.71775 0.0
C3108 C 0.77465 0.53079 0.72153 0.0
C3109 C 0.77694 0.52597 0.73166 0.0
C3110 C 0.78555 0.53013 0.73806 0.0
C3111 C 0.7918 0.53892 0.73419 0.0
C3112 C 0.76542 0.52672 0.71459 0.0
C3113 C 0.78835 0.52512 0.74882 0.0
C3114 C 0.77087 0.44281 0.7206 0.0
C3115 C 0.78235 0.44768 0.72029 0.0
C3116 C 0.77918 0.46703 0.71978 0.0
C3117 C 0.7828 0.47013 0.73007 0.0
C3118 C 0.77945 0.47982 0.73469 0.0
C3119 C 0.77225 0.48648 0.72892 0.0
C3120 C 0.76878 0.48347 0.71844 0.0
C3121 C 0.77243 0.47384 0.71395 0.0
C3122 C 0.78363 0.48295 0.74571 0.0
C3123 C 0.76118 0.4904 0.71202 0.0
C3124 C 0.72233 0.4677 0.77902 0.0
C3125 C 0.73288 0.47117 0.78176 0.0
C3126 C 0.73721 0.48093 0.77771 0.0
C3127 C 0.73101 0.48722 0.77051 0.0
C3128 C 0.72035 0.48382 0.76781 0.0
C3129 C 0.71612 0.47416 0.77223 0.0
C3130 C 0.74846 0.48449 0.78113 0.0
C3131 C 0.7135 0.4903 0.76017 0.0
C3132 C 0.73144 0.57035 0.77771 0.0
C3133 C 0.72109 0.56487 0.78208 0.0
C3134 C 0.72675 0.54599 0.78179 0.0
C3135 C 0.73356 0.53901 0.78734 0.0
C3136 C 0.73735 0.52962 0.78247 0.0
C3137 C 0.73392 0.52697 0.77189 0.0
C3138 C 0.72672 0.53382 0.76634 0.0
C3139 C 0.72334 0.54333 0.77128 0.0
C3140 C 0.74504 0.52257 0.78865 0.0
C3141 C 0.72251 0.53103 0.75523 0.0
C3142 C 0.7708 0.51615 0.73523 0.0
C3143 C 0.77374 0.50629 0.73079 0.0
C3144 C 0.76847 0.49666 0.7338 0.0
C3145 C 0.76001 0.4968 0.74148 0.0
C3146 C 0.75446 0.48727 0.74462 0.0
C3147 C 0.74643 0.48743 0.75247 0.0
C3148 C 0.74358 0.49713 0.75746 0.0
C3149 C 0.73575 0.4973 0.76577 0.0
C3150 C 0.73275 0.50713 0.7702 0.0
C3151 C 0.73757 0.51686 0.76677 0.0
C3152 C 0.74576 0.51681 0.75877 0.0
C3153 C 0.7511 0.52638 0.7554 0.0
C3154 C 0.75919 0.52622 0.74758 0.0
C3155 C 0.76237 0.51646 0.74294 0.0
C3156 C 0.75702 0.50673 0.74614 0.0
C3157 C 0.74875 0.5069 0.75409 0.0
C3158 C 0.72935 0.44369 0.77798 0.0
C3159 C 0.72324 0.44947 0.78695 0.0
O3160 O 0.79662 0.55122 0.72015 0.0
O3161 O 0.72358 0.55508 0.7869 0.0
O3162 O 0.71785 0.45824 0.78267 0.0
O3163 O 0.78224 0.45766 0.71515 0.0
H3164 H 0.79775 0.54615 0.70444 0.0
H3165 H 0.81015 0.53532 0.71579 0.0
H3166 H 0.81771 0.54735 0.71948 0.0
H3167 H 0.81761 0.54277 0.70563 0.0
H3168 H 0.77962 0.54302 0.70995 0.0
H3169 H 0.79849 0.54211 0.73893 0.0
H3170 H 0.76749 0.51875 0.71122 0.0
H3171 H 0.76371 0.5323 0.70777 0.0
H3172 H 0.75797 0.5256 0.71952 0.0
H3173 H 0.79583 0.52874 0.75236 0.0
H3174 H 0.78947 0.51631 0.7479 0.0
H3175 H 0.7816 0.52622 0.75458 0.0
H3176 H 0.78523 0.44854 0.72875 0.0
H3177 H 0.77086 0.43476 0.72462 0.0
H3178 H 0.76758 0.44193 0.71229 0.0
H3179 H 0.76548 0.44812 0.72525 0.0
H3180 H 0.78843 0.46515 0.73444 0.0
H3181 H 0.76982 0.47145 0.70594 0.0
H3182 H 0.78701 0.49132 0.74548 0.0
H3183 H 0.78998 0.47745 0.74868 0.0
H3184 H 0.77684 0.48276 0.75159 0.0
H3185 H 0.75842 0.48643 0.70446 0.0
H3186 H 0.76534 0.49814 0.70987 0.0
H3187 H 0.75399 0.49233 0.71697 0.0
H3188 H 0.72906 0.45224 0.79324 0.0
H3189 H 0.73781 0.46638 0.78708 0.0
H3190 H 0.70797 0.47147 0.77021 0.0
H3191 H 0.75414 0.48344 0.7743 0.0
H3192 H 0.75143 0.47974 0.78813 0.0
H3193 H 0.74862 0.49316 0.7833 0.0
H3194 H 0.7058 0.48604 0.75808 0.0
H3195 H 0.71805 0.4921 0.75261 0.0
H3196 H 0.71156 0.49812 0.76394 0.0
H3197 H 0.71531 0.56355 0.77532 0.0
H3198 H 0.72958 0.5782 0.77382 0.0
H3199 H 0.73523 0.56518 0.77155 0.0
H3200 H 0.73734 0.57175 0.78436 0.0
H3201 H 0.73609 0.54108 0.79546 0.0
H3202 H 0.71786 0.54848 0.76694 0.0
H3203 H 0.75206 0.52055 0.78351 0.0
H3204 H 0.74084 0.51489 0.79092 0.0
H3205 H 0.74807 0.52649 0.79614 0.0
H3206 H 0.7159 0.5364 0.75262 0.0
H3207 H 0.71946 0.52254 0.75508 0.0
H3208 H 0.72919 0.53179 0.74928 0.0
H3209 H 0.78029 0.50611 0.72497 0.0
H3210 H 0.75634 0.47956 0.74111 0.0
H3211 H 0.74249 0.47984 0.75462 0.0
H3212 H 0.72668 0.50719 0.77653 0.0
H3213 H 0.74912 0.53411 0.7588 0.0
H3214 H 0.763 0.53383 0.74528 0.0
H3215 H 0.73368 0.43664 0.78132 0.0
H3216 H 0.73546 0.44923 0.77421 0.0
H3217 H 0.72364 0.44087 0.77161 0.0
C3218 C 0.197 0.464 0.71219 0.0
C3219 C 0.20663 0.4564 0.71237 0.0
C3220 C 0.21769 0.46467 0.72637 0.0
C3221 C 0.22655 0.46878 0.72048 0.0
C3222 C 0.23271 0.47758 0.72434 0.0
C3223 C 0.22987 0.48239 0.73425 0.0
C3224 C 0.2211 0.47806 0.74034 0.0
C3225 C 0.21523 0.46911 0.73639 0.0
C3226 C 0.24217 0.48182 0.71775 0.0
C3227 C 0.21779 0.48302 0.7509 0.0
C3228 C 0.23348 0.56594 0.72328 0.0
C3229 C 0.22227 0.56047 0.72282 0.0
C3230 C 0.2265 0.5413 0.72251 0.0
C3231 C 0.22332 0.53812 0.73297 0.0
C3232 C 0.22704 0.5285 0.73759 0.0
C3233 C 0.23415 0.52198 0.73166 0.0
C3234 C 0.23723 0.52509 0.72106 0.0
C3235 C 0.23324 0.53466 0.71657 0.0
C3236 C 0.22327 0.52525 0.74877 0.0
C3237 C 0.24474 0.51832 0.71447 0.0
C3238 C 0.29022 0.53853 0.77773 0.0
C3239 C 0.27992 0.53631 0.78193 0.0
C3240 C 0.27389 0.52725 0.77847 0.0
C3241 C 0.27828 0.5204 0.77055 0.0
C3242 C 0.28871 0.52269 0.7663 0.0
C3243 C 0.29463 0.53168 0.77006 0.0
C3244 C 0.26293 0.5249 0.78341 0.0
C3245 C 0.29365 0.51558 0.75786 0.0
C3246 C 0.27011 0.43768 0.78667 0.0
C3247 C 0.28157 0.44239 0.78532 0.0
C3248 C 0.2793 0.46182 0.78462 0.0
C3249 C 0.27243 0.46889 0.78986 0.0
C3250 C 0.26909 0.47841 0.78478 0.0
C3251 C 0.27298 0.48102 0.7743 0.0
C3252 C 0.28027 0.47408 0.76913 0.0
C3253 C 0.28331 0.4645 0.77433 0.0
C3254 C 0.26137 0.48565 0.79057 0.0
C3255 C 0.2849 0.47682 0.75815 0.0
C3256 C 0.23579 0.49224 0.73796 0.0
C3257 C 0.23276 0.50214 0.73356 0.0
C3258 C 0.23809 0.51175 0.73645 0.0
C3259 C 0.24677 0.51151 0.7439 0.0
C3260 C 0.25252 0.52097 0.74675 0.0
C3261 C 0.26091 0.52068 0.75425 0.0
C3262 C 0.26383 0.51093 0.75924 0.0
C3263 C 0.27218 0.51059 0.76705 0.0
C3264 C 0.27493 0.50074 0.77175 0.0
C3265 C 0.2696 0.49114 0.76888 0.0
C3266 C 0.2612 0.49131 0.76111 0.0
C3267 C 0.25564 0.48181 0.75803 0.0
C3268 C 0.24741 0.48207 0.75036 0.0
C3269 C 0.24428 0.49186 0.74562 0.0
C3270 C 0.24977 0.50155 0.7486 0.0
C3271 C 0.25828 0.50126 0.75631 0.0
C3272 C 0.30378 0.55812 0.76748 0.0
C3273 C 0.29588 0.55724 0.77699 0.0
O3274 O 0.21136 0.45648 0.72255 0.0
O3275 O 0.28212 0.45261 0.7898 0.0
O3276 O 0.29614 0.54699 0.7815 0.0
O3277 O 0.22301 0.55054 0.7178 0.0
H3278 H 0.21258 0.45925 0.7062 0.0
H3279 H 0.1998 0.47238 0.71392 0.0
H3280 H 0.19092 0.46149 0.71837 0.0
H3281 H 0.1931 0.46397 0.7041 0.0
H3282 H 0.22871 0.4651 0.7129 0.0
H3283 H 0.20843 0.46577 0.74092 0.0
H3284 H 0.24029 0.48993 0.7145 0.0
H3285 H 0.24407 0.47647 0.71088 0.0
H3286 H 0.24947 0.48269 0.72294 0.0
H3287 H 0.21042 0.47906 0.75436 0.0
H3288 H 0.21624 0.49174 0.7497 0.0
H3289 H 0.22447 0.48235 0.75684 0.0
H3290 H 0.21929 0.55944 0.73123 0.0
H3291 H 0.23299 0.57395 0.72721 0.0
H3292 H 0.23686 0.56703 0.71502 0.0
H3293 H 0.23907 0.5609 0.72808 0.0
H3294 H 0.21772 0.54294 0.73747 0.0
H3295 H 0.23552 0.5371 0.70845 0.0
H3296 H 0.21986 0.51689 0.74867 0.0
H3297 H 0.21705 0.53072 0.75195 0.0
H3298 H 0.23027 0.52535 0.75439 0.0
H3299 H 0.24732 0.52245 0.70687 0.0
H3300 H 0.24057 0.51061 0.71237 0.0
H3301 H 0.25205 0.51635 0.71926 0.0
H3302 H 0.28756 0.55883 0.77396 0.0
H3303 H 0.2767 0.54161 0.788 0.0
H3304 H 0.30272 0.53338 0.76706 0.0
H3305 H 0.25659 0.52558 0.77711 0.0
H3306 H 0.26105 0.53053 0.79006 0.0
H3307 H 0.26255 0.5165 0.78661 0.0
H3308 H 0.3013 0.51911 0.75454 0.0
H3309 H 0.28786 0.51423 0.75112 0.0
H3310 H 0.29541 0.50759 0.7615 0.0
H3311 H 0.2834 0.44279 0.77653 0.0
H3312 H 0.26953 0.42947 0.78314 0.0
H3313 H 0.26423 0.44287 0.78242 0.0
H3314 H 0.26786 0.4372 0.79536 0.0
H3315 H 0.26952 0.4668 0.79788 0.0
H3316 H 0.28899 0.45925 0.77045 0.0
H3317 H 0.25431 0.48736 0.78531 0.0
H3318 H 0.2655 0.49347 0.79235 0.0
H3319 H 0.2584 0.48204 0.79828 0.0
H3320 H 0.29111 0.47101 0.75559 0.0
H3321 H 0.2886 0.48506 0.75821 0.0
H3322 H 0.27831 0.47678 0.75206 0.0
H3323 H 0.22614 0.50238 0.72781 0.0
H3324 H 0.2506 0.52871 0.74322 0.0
H3325 H 0.26505 0.52822 0.75614 0.0
H3326 H 0.28134 0.50054 0.77774 0.0
H3327 H 0.2576 0.47406 0.76151 0.0
H3328 H 0.24347 0.47449 0.74825 0.0
H3329 H 0.31208 0.55601 0.77011 0.0
H3330 H 0.30395 0.56644 0.76409 0.0
H3331 H 0.30119 0.55256 0.76094 0.0
C3332 C 0.30188 0.56223 0.23711 0.0
C3333 C 0.30243 0.55699 0.22592 0.0
C3334 C 0.28744 0.5436 0.2262 0.0
C3335 C 0.27729 0.54092 0.2219 0.0
C3336 C 0.27174 0.53139 0.225 0.0
C3337 C 0.27642 0.52445 0.23273 0.0
C3338 C 0.28667 0.52711 0.23716 0.0
C3339 C 0.29212 0.53657 0.23379 0.0
C3340 C 0.26087 0.52874 0.22002 0.0
C3341 C 0.29192 0.51991 0.24545 0.0
C3342 C 0.29571 0.46595 0.19675 0.0
C3343 C 0.29592 0.45967 0.20745 0.0
C3344 C 0.28142 0.46736 0.21784 0.0
C3345 C 0.28683 0.47148 0.22692 0.0
C3346 C 0.28267 0.4802 0.23264 0.0
C3347 C 0.27294 0.48494 0.22914 0.0
C3348 C 0.26727 0.48053 0.22021 0.0
C3349 C 0.27152 0.47167 0.21476 0.0
C3350 C 0.28879 0.48448 0.2423 0.0
C3351 C 0.25686 0.48534 0.21627 0.0
C3352 C 0.22586 0.46388 0.28193 0.0
C3353 C 0.23544 0.46878 0.28586 0.0
C3354 C 0.23944 0.47849 0.28139 0.0
C3355 C 0.23373 0.48348 0.27287 0.0
C3356 C 0.22406 0.47865 0.26894 0.0
C3357 C 0.22027 0.46889 0.27352 0.0
C3358 C 0.24983 0.4834 0.28573 0.0
C3359 C 0.2178 0.48377 0.25986 0.0
C3360 C 0.24048 0.56245 0.29271 0.0
C3361 C 0.22853 0.56052 0.28978 0.0
C3362 C 0.22878 0.54133 0.28666 0.0
C3363 C 0.23585 0.53414 0.29152 0.0
C3364 C 0.23956 0.52516 0.28589 0.0
C3365 C 0.23574 0.52314 0.27528 0.0
C3366 C 0.22831 0.53029 0.27045 0.0
C3367 C 0.22504 0.53943 0.27616 0.0
C3368 C 0.24749 0.51781 0.29137 0.0
C3369 C 0.22371 0.52822 0.25934 0.0
C3370 C 0.27068 0.51436 0.23617 0.0
C3371 C 0.27361 0.50473 0.23125 0.0
C3372 C 0.26902 0.49483 0.23448 0.0
C3373 C 0.26117 0.49449 0.2428 0.0
C3374 C 0.2565 0.48466 0.24638 0.0
C3375 C 0.24886 0.4844 0.25463 0.0
C3376 C 0.24558 0.49396 0.25961 0.0
C3377 C 0.23795 0.49374 0.26812 0.0
C3378 C 0.23472 0.50338 0.27279 0.0
C3379 C 0.23919 0.51332 0.26947 0.0
C3380 C 0.24707 0.51367 0.26117 0.0
C3381 C 0.25209 0.52344 0.25791 0.0
C3382 C 0.25981 0.52369 0.24971 0.0
C3383 C 0.26283 0.51419 0.24448 0.0
C3384 C 0.25801 0.50422 0.24775 0.0
C3385 C 0.25016 0.50396 0.25613 0.0
C3386 C 0.23544 0.4415 0.29009 0.0
C3387 C 0.22597 0.44815 0.2942 0.0
O3388 O 0.29233 0.553 0.22288 0.0
O3389 O 0.22548 0.54998 0.2923 0.0
O3390 O 0.22178 0.45437 0.2859 0.0
O3391 O 0.28563 0.45929 0.21192 0.0
H3392 H 0.30828 0.55029 0.22625 0.0
H3393 H 0.29948 0.5562 0.24337 0.0
H3394 H 0.29586 0.56875 0.23717 0.0
H3395 H 0.30993 0.56567 0.23937 0.0
H3396 H 0.27372 0.54634 0.21605 0.0
H3397 H 0.29999 0.5384 0.23719 0.0
H3398 H 0.26094 0.52055 0.21646 0.0
H3399 H 0.25863 0.53463 0.21363 0.0
H3400 H 0.25454 0.5287 0.22638 0.0
H3401 H 0.29929 0.5237 0.24904 0.0
H3402 H 0.29422 0.51226 0.24156 0.0
H3403 H 0.28612 0.51787 0.25205 0.0
H3404 H 0.30166 0.46395 0.21296 0.0
H3405 H 0.3039 0.46628 0.19306 0.0
H3406 H 0.29314 0.47435 0.1982 0.0
H3407 H 0.28994 0.46208 0.191 0.0
H3408 H 0.29431 0.46788 0.22953 0.0
H3409 H 0.26734 0.46831 0.20781 0.0
H3410 H 0.29245 0.49247 0.24023 0.0
H3411 H 0.29536 0.47904 0.24487 0.0
H3412 H 0.2832 0.48561 0.2492 0.0
H3413 H 0.25356 0.48113 0.20906 0.0
H3414 H 0.25824 0.49399 0.21421 0.0
H3415 H 0.25071 0.48491 0.2228 0.0
H3416 H 0.22888 0.45347 0.30084 0.0
H3417 H 0.23992 0.46509 0.29236 0.0
H3418 H 0.2129 0.46508 0.27053 0.0
H3419 H 0.2559 0.48413 0.27914 0.0
H3420 H 0.25331 0.47854 0.29241 0.0
H3421 H 0.24834 0.49164 0.28873 0.0
H3422 H 0.21041 0.479 0.25771 0.0
H3423 H 0.22302 0.48458 0.2526 0.0
H3424 H 0.2154 0.49201 0.26221 0.0
H3425 H 0.22747 0.56195 0.28095 0.0
H3426 H 0.24305 0.57089 0.2908 0.0
H3427 H 0.24566 0.55701 0.28797 0.0
H3428 H 0.24181 0.56086 0.30145 0.0
H3429 H 0.23861 0.5357 0.29968 0.0
H3430 H 0.21942 0.54499 0.27255 0.0
H3431 H 0.25396 0.51546 0.28568 0.0
H3432 H 0.24315 0.51035 0.29408 0.0
H3433 H 0.2513 0.52164 0.29855 0.0
H3434 H 0.21694 0.53366 0.25739 0.0
H3435 H 0.22076 0.51973 0.25871 0.0
H3436 H 0.23015 0.52951 0.2532 0.0
H3437 H 0.2797 0.50493 0.22494 0.0
H3438 H 0.25873 0.47706 0.24285 0.0
H3439 H 0.24555 0.4766 0.25705 0.0
H3440 H 0.22886 0.50312 0.27931 0.0
H3441 H 0.25013 0.53101 0.26167 0.0
H3442 H 0.26339 0.53145 0.24754 0.0
H3443 H 0.24214 0.44685 0.28718 0.0
H3444 H 0.23863 0.43636 0.29671 0.0
H3445 H 0.23283 0.43625 0.28329 0.0
C3446 C 0.79335 0.44167 0.26697 0.0
C3447 C 0.7966 0.44702 0.27768 0.0
C3448 C 0.7831 0.46126 0.27942 0.0
C3449 C 0.77378 0.46437 0.28487 0.0
C3450 C 0.7685 0.47394 0.28213 0.0
C3451 C 0.77266 0.48055 0.27369 0.0
C3452 C 0.78211 0.47751 0.26816 0.0
C3453 C 0.78726 0.46794 0.27109 0.0
C3454 C 0.75844 0.47696 0.2882 0.0
C3455 C 0.78677 0.48438 0.25911 0.0
C3456 C 0.7965 0.53822 0.30838 0.0
C3457 C 0.79508 0.54618 0.29898 0.0
C3458 C 0.78002 0.53757 0.28943 0.0
C3459 C 0.78534 0.53334 0.28044 0.0
C3460 C 0.78081 0.52461 0.27473 0.0
C3461 C 0.77081 0.51998 0.27813 0.0
C3462 C 0.76529 0.52444 0.28701 0.0
C3463 C 0.76991 0.53331 0.29245 0.0
C3464 C 0.78682 0.52025 0.26515 0.0
C3465 C 0.75465 0.51968 0.2909 0.0
C3466 C 0.72264 0.54171 0.2266 0.0
C3467 C 0.73225 0.53738 0.22254 0.0
C3468 C 0.73632 0.52773 0.22674 0.0
C3469 C 0.73069 0.52226 0.23515 0.0
C3470 C 0.72101 0.52655 0.23924 0.0
C3471 C 0.71712 0.53622 0.23489 0.0
C3472 C 0.74664 0.52334 0.22216 0.0
C3473 C 0.71481 0.5209 0.2482 0.0
C3474 C 0.73194 0.43929 0.22105 0.0
C3475 C 0.72067 0.44416 0.22149 0.0
C3476 C 0.72407 0.46354 0.22187 0.0
C3477 C 0.73162 0.47044 0.21686 0.0
C3478 C 0.73535 0.47987 0.22197 0.0
C3479 C 0.73115 0.48259 0.23222 0.0
C3480 C 0.72311 0.47587 0.2371 0.0
C3481 C 0.71969 0.46637 0.23189 0.0
C3482 C 0.74386 0.48687 0.21648 0.0
C3483 C 0.71816 0.47872 0.24782 0.0
C3484 C 0.7672 0.4907 0.27064 0.0
C3485 C 0.77063 0.50023 0.27566 0.0
C3486 C 0.7664 0.5102 0.27268 0.0
C3487 C 0.75845 0.51072 0.26447 0.0
C3488 C 0.75419 0.52061 0.26108 0.0
C3489 C 0.74642 0.52104 0.25295 0.0
C3490 C 0.74263 0.51158 0.24786 0.0
C3491 C 0.73484 0.51193 0.23949 0.0
C3492 C 0.73118 0.50236 0.2347 0.0
C3493 C 0.73524 0.49239 0.23786 0.0
C3494 C 0.74319 0.49189 0.24607 0.0
C3495 C 0.74768 0.48202 0.24924 0.0
C3496 C 0.7555 0.48161 0.25731 0.0
C3497 C 0.75916 0.49104 0.26251 0.0
C3498 C 0.75478 0.50108 0.25942 0.0
C3499 C 0.74682 0.50151 0.25115 0.0
C3500 C 0.73213 0.5648 0.2199 0.0
C3501 C 0.72284 0.55801 0.21506 0.0
O3502 O 0.78772 0.45179 0.28239 0.0
O3503 O 0.72099 0.45434 0.21676 0.0
O3504 O 0.71843 0.5511 0.22284 0.0
O3505 O 0.78444 0.54572 0.29536 0.0
H3506 H 0.803 0.45326 0.27609 0.0
H3507 H 0.7904 0.44775 0.26111 0.0
H3508 H 0.78678 0.43554 0.26829 0.0
H3509 H 0.80042 0.4377 0.26332 0.0
H3510 H 0.77062 0.45921 0.29129 0.0
H3511 H 0.79447 0.46578 0.26676 0.0
H3512 H 0.75968 0.48499 0.29197 0.0
H3513 H 0.75625 0.47098 0.2946 0.0
H3514 H 0.75156 0.47759 0.28247 0.0
H3515 H 0.79406 0.48081 0.25545 0.0
H3516 H 0.78899 0.4925 0.26221 0.0
H3517 H 0.78059 0.48546 0.2527 0.0
H3518 H 0.80067 0.54393 0.29238 0.0
H3519 H 0.80496 0.53859 0.31141 0.0
H3520 H 0.79473 0.52986 0.30564 0.0
H3521 H 0.79091 0.54012 0.31511 0.0
H3522 H 0.79296 0.53688 0.27779 0.0
H3523 H 0.76582 0.53672 0.29932 0.0
H3524 H 0.79006 0.51223 0.26728 0.0
H3525 H 0.79367 0.52562 0.26262 0.0
H3526 H 0.78124 0.51914 0.25819 0.0
H3527 H 0.75164 0.52375 0.29824 0.0
H3528 H 0.75554 0.51096 0.29272 0.0
H3529 H 0.74848 0.52038 0.28442 0.0
H3530 H 0.72597 0.55323 0.20821 0.0
H3531 H 0.73668 0.54144 0.21612 0.0
H3532 H 0.70972 0.53957 0.23798 0.0
H3533 H 0.7528 0.52273 0.22866 0.0
H3534 H 0.75002 0.52848 0.21554 0.0
H3535 H 0.74511 0.51509 0.21901 0.0
H3536 H 0.70756 0.52542 0.25069 0.0
H3537 H 0.72015 0.51985 0.25533 0.0
H3538 H 0.71218 0.51274 0.24551 0.0
H3539 H 0.71826 0.44467 0.23013 0.0
H3540 H 0.73181 0.43111 0.22478 0.0
H3541 H 0.73779 0.44444 0.22559 0.0
H3542 H 0.73476 0.4387 0.21255 0.0
H3543 H 0.7348 0.46825 0.20904 0.0
H3544 H 0.71349 0.46127 0.23557 0.0
H3545 H 0.75072 0.48847 0.22207 0.0
H3546 H 0.74034 0.49476 0.21429 0.0
H3547 H 0.74701 0.48313 0.20901 0.0
H3548 H 0.71122 0.47329 0.24997 0.0
H3549 H 0.71537 0.48717 0.24763 0.0
H3550 H 0.72437 0.47812 0.25427 0.0
H3551 H 0.77684 0.49992 0.28185 0.0
H3552 H 0.75683 0.52815 0.26468 0.0
H3553 H 0.74343 0.52888 0.25068 0.0
H3554 H 0.7252 0.5027 0.22829 0.0
H3555 H 0.74521 0.4745 0.2455 0.0
H3556 H 0.75866 0.47378 0.25941 0.0
H3557 H 0.73555 0.57044 0.21371 0.0
H3558 H 0.73874 0.55957 0.22276 0.0
H3559 H 0.72924 0.56954 0.22688 0.0
C3560 C 0.5409 0.19973 0.71122 0.0
C3561 C 0.54776 0.20991 0.70891 0.0
C3562 C 0.54139 0.22223 0.72242 0.0
C3563 C 0.5373 0.23082 0.71637 0.0
C3564 C 0.5288 0.23698 0.72038 0.0
C3565 C 0.52424 0.23437 0.73058 0.0
C3566 C 0.52861 0.22589 0.73684 0.0
C3567 C 0.53729 0.22005 0.73273 0.0
C3568 C 0.52453 0.2461 0.71358 0.0
C3569 C 0.52386 0.22273 0.74766 0.0
C3570 C 0.46789 0.21344 0.69549 0.0
C3571 C 0.45965 0.21361 0.70474 0.0
C3572 C 0.46727 0.22821 0.71544 0.0
C3573 C 0.47126 0.22269 0.72448 0.0
C3574 C 0.47992 0.22701 0.73049 0.0
C3575 C 0.48472 0.237 0.72732 0.0
C3576 C 0.48045 0.24275 0.71841 0.0
C3577 C 0.47162 0.23834 0.7127 0.0
C3578 C 0.4841 0.22079 0.7401 0.0
C3579 C 0.48544 0.25335 0.7147 0.0
C3580 C 0.46603 0.28859 0.77615 0.0
C3581 C 0.46847 0.27819 0.77974 0.0
C3582 C 0.47789 0.27312 0.77623 0.0
C3583 C 0.48483 0.27852 0.76874 0.0
C3584 C 0.48235 0.28906 0.76515 0.0
C3585 C 0.47307 0.29403 0.76907 0.0
C3586 C 0.48047 0.26208 0.78061 0.0
C3587 C 0.48951 0.29511 0.7572 0.0
C3588 C 0.56703 0.29426 0.76961 0.0
C3589 C 0.56027 0.29804 0.77921 0.0
C3590 C 0.54421 0.28594 0.77878 0.0
C3591 C 0.53899 0.27721 0.78391 0.0
C3592 C 0.52926 0.27281 0.77986 0.0
C3593 C 0.52468 0.27726 0.77041 0.0
C3594 C 0.52985 0.28614 0.76519 0.0
C3595 C 0.53955 0.29041 0.76943 0.0
C3596 C 0.52393 0.26334 0.78561 0.0
C3597 C 0.52517 0.29107 0.75508 0.0
C3598 C 0.5143 0.23983 0.73424 0.0
C3599 C 0.50448 0.23645 0.72968 0.0
C3600 C 0.49471 0.24099 0.73277 0.0
C3601 C 0.49465 0.24906 0.74077 0.0
C3602 C 0.48496 0.25367 0.74421 0.0
C3603 C 0.485 0.26167 0.75205 0.0
C3604 C 0.49473 0.26526 0.75686 0.0
C3605 C 0.49486 0.27331 0.76491 0.0
C3606 C 0.50472 0.27684 0.76932 0.0
C3607 C 0.51451 0.27261 0.76588 0.0
C3608 C 0.51454 0.26444 0.75797 0.0
C3609 C 0.52425 0.25994 0.75441 0.0
C3610 C 0.52421 0.25191 0.74661 0.0
C3611 C 0.51445 0.24807 0.74208 0.0
C3612 C 0.50457 0.25261 0.74544 0.0
C3613 C 0.50461 0.26075 0.75346 0.0
C3614 C 0.443 0.29291 0.7665 0.0
C3615 C 0.4466 0.28983 0.77794 0.0
O3616 O 0.54909 0.21578 0.71834 0.0
O3617 O 0.55371 0.28967 0.78307 0.0
O3618 O 0.45708 0.29364 0.77963 0.0
O3619 O 0.45936 0.22386 0.70913 0.0
H3620 H 0.54346 0.21482 0.70275 0.0
H3621 H 0.53276 0.20197 0.71414 0.0
H3622 H 0.5448 0.19467 0.71751 0.0
H3623 H 0.53984 0.19491 0.70374 0.0
H3624 H 0.54071 0.23266 0.7085 0.0
H3625 H 0.5406 0.21342 0.73735 0.0
H3626 H 0.51646 0.24373 0.71031 0.0
H3627 H 0.52996 0.24816 0.70669 0.0
H3628 H 0.52349 0.2534 0.71859 0.0
H3629 H 0.52771 0.21547 0.75116 0.0
H3630 H 0.51503 0.22108 0.74685 0.0
H3631 H 0.52495 0.22949 0.75341 0.0
H3632 H 0.46212 0.20767 0.711 0.0
H3633 H 0.46809 0.20529 0.69183 0.0
H3634 H 0.47611 0.21544 0.6986 0.0
H3635 H 0.46579 0.21943 0.68915 0.0
H3636 H 0.46763 0.21502 0.72685 0.0
H3637 H 0.46838 0.24256 0.70576 0.0
H3638 H 0.49218 0.21758 0.73816 0.0
H3639 H 0.47864 0.21392 0.74237 0.0
H3640 H 0.48508 0.22621 0.74716 0.0
H3641 H 0.48149 0.25653 0.7073 0.0
H3642 H 0.49419 0.25235 0.71304 0.0
H3643 H 0.48475 0.25941 0.7212 0.0
H3644 H 0.44628 0.28087 0.77871 0.0
H3645 H 0.46311 0.27414 0.78545 0.0
H3646 H 0.47113 0.30213 0.76646 0.0
H3647 H 0.47945 0.25603 0.77411 0.0
H3648 H 0.47511 0.25967 0.78745 0.0
H3649 H 0.48901 0.26188 0.78337 0.0
H3650 H 0.48554 0.30237 0.75386 0.0
H3651 H 0.49179 0.2898 0.75042 0.0
H3652 H 0.49707 0.29776 0.76134 0.0
H3653 H 0.55518 0.30487 0.77657 0.0
H3654 H 0.57243 0.30093 0.76668 0.0
H3655 H 0.56172 0.29173 0.76282 0.0
H3656 H 0.57205 0.28729 0.77198 0.0
H3657 H 0.54261 0.27381 0.79112 0.0
H3658 H 0.54341 0.29717 0.76531 0.0
H3659 H 0.52328 0.25638 0.78004 0.0
H3660 H 0.51559 0.26544 0.78803 0.0
H3661 H 0.52848 0.26085 0.79293 0.0
H3662 H 0.53013 0.298 0.752 0.0
H3663 H 0.51686 0.29387 0.75672 0.0
H3664 H 0.52456 0.28488 0.74866 0.0
H3665 H 0.50443 0.23018 0.72361 0.0
H3666 H 0.47723 0.25115 0.74086 0.0
H3667 H 0.4773 0.26499 0.7543 0.0
H3668 H 0.50479 0.2831 0.7754 0.0
H3669 H 0.53201 0.26255 0.75763 0.0
H3670 H 0.53192 0.24874 0.74416 0.0
H3671 H 0.44323 0.30182 0.76543 0.0
H3672 H 0.43464 0.28983 0.76492 0.0
H3673 H 0.44846 0.2893 0.76045 0.0
C3674 C 0.54245 0.71052 0.80996 0.0
C3675 C 0.5494 0.70993 0.79975 0.0
C3676 C 0.54282 0.72474 0.78892 0.0
C3677 C 0.53856 0.71953 0.7798 0.0
C3678 C 0.53003 0.72403 0.77392 0.0
C3679 C 0.52564 0.73391 0.7773 0.0
C3680 C 0.53024 0.73939 0.78624 0.0
C3681 C 0.53891 0.73479 0.79185 0.0
C3682 C 0.52551 0.71808 0.76427 0.0
C3683 C 0.52575 0.74991 0.7901 0.0
C3684 C 0.44222 0.73149 0.7835 0.0
C3685 C 0.44795 0.72441 0.79185 0.0
C3686 C 0.46605 0.72355 0.78361 0.0
C3687 C 0.4697 0.73393 0.78662 0.0
C3688 C 0.47956 0.73821 0.78273 0.0
C3689 C 0.4858 0.73211 0.77549 0.0
C3690 C 0.48221 0.72162 0.77254 0.0
C3691 C 0.47243 0.71745 0.77675 0.0
C3692 C 0.48328 0.74929 0.78633 0.0
C3693 C 0.48865 0.71487 0.76488 0.0
C3694 C 0.46686 0.78203 0.72568 0.0
C3695 C 0.47054 0.78482 0.73607 0.0
C3696 C 0.48024 0.78075 0.74016 0.0
C3697 C 0.48626 0.77351 0.73387 0.0
C3698 C 0.48263 0.77074 0.72339 0.0
C3699 C 0.47303 0.77515 0.7194 0.0
C3700 C 0.48403 0.78419 0.75124 0.0
C3701 C 0.48883 0.76306 0.71646 0.0
C3702 C 0.56842 0.79332 0.73771 0.0
C3703 C 0.56418 0.78957 0.7267 0.0
C3704 C 0.54479 0.78735 0.72879 0.0
C3705 C 0.53778 0.79211 0.73609 0.0
C3706 C 0.52852 0.78654 0.73984 0.0
C3707 C 0.52607 0.77608 0.73586 0.0
C3708 C 0.53301 0.77136 0.7282 0.0
C3709 C 0.54239 0.77702 0.72484 0.0
C3710 C 0.52136 0.79185 0.74802 0.0
C3711 C 0.53045 0.76042 0.72347 0.0
C3712 C 0.51568 0.73796 0.77206 0.0
C3713 C 0.50578 0.73358 0.77559 0.0
C3714 C 0.49602 0.73675 0.77097 0.0
C3715 C 0.49609 0.74445 0.76249 0.0
C3716 C 0.48645 0.74757 0.75742 0.0
C3717 C 0.48654 0.75546 0.74938 0.0
C3718 C 0.49628 0.76055 0.7461 0.0
C3719 C 0.49639 0.76892 0.73828 0.0
C3720 C 0.50623 0.7736 0.73498 0.0
C3721 C 0.51604 0.77031 0.73944 0.0
C3722 C 0.51608 0.76211 0.74746 0.0
C3723 C 0.52575 0.75875 0.75231 0.0
C3724 C 0.52568 0.75072 0.76025 0.0
C3725 C 0.5159 0.74591 0.7638 0.0
C3726 C 0.50605 0.74916 0.75901 0.0
C3727 C 0.50615 0.75723 0.7508 0.0
C3728 C 0.44289 0.78211 0.73374 0.0
C3729 C 0.44907 0.79055 0.72689 0.0
O3730 O 0.55053 0.72012 0.79512 0.0
O3731 O 0.55366 0.793 0.72541 0.0
O3732 O 0.45746 0.78573 0.7214 0.0
O3733 O 0.45647 0.71914 0.78705 0.0
H3734 H 0.54525 0.70433 0.79402 0.0
H3735 H 0.53425 0.71337 0.80786 0.0
H3736 H 0.54617 0.7162 0.81586 0.0
H3737 H 0.54157 0.70241 0.81379 0.0
H3738 H 0.54187 0.71192 0.77732 0.0
H3739 H 0.54236 0.7388 0.79884 0.0
H3740 H 0.51728 0.71489 0.76621 0.0
H3741 H 0.53063 0.71123 0.7619 0.0
H3742 H 0.52478 0.72368 0.75728 0.0
H3743 H 0.53014 0.75309 0.79727 0.0
H3744 H 0.51706 0.74877 0.79219 0.0
H3745 H 0.52627 0.75603 0.78352 0.0
H3746 H 0.45105 0.72951 0.79857 0.0
H3747 H 0.43534 0.73567 0.78728 0.0
H3748 H 0.43912 0.7265 0.7767 0.0
H3749 H 0.44789 0.73774 0.7802 0.0
H3750 H 0.46496 0.73876 0.79201 0.0
H3751 H 0.4696 0.70944 0.77452 0.0
H3752 H 0.4919 0.74918 0.78887 0.0
H3753 H 0.47836 0.75232 0.79312 0.0
H3754 H 0.48265 0.75505 0.77947 0.0
H3755 H 0.48422 0.70737 0.76251 0.0
H3756 H 0.49637 0.71261 0.7688 0.0
H3757 H 0.4907 0.71959 0.75747 0.0
H3758 H 0.45237 0.79702 0.73221 0.0
H3759 H 0.46596 0.79019 0.74105 0.0
H3760 H 0.47018 0.77307 0.71138 0.0
H3761 H 0.4831 0.77731 0.75698 0.0
H3762 H 0.47934 0.79104 0.7544 0.0
H3763 H 0.49273 0.78659 0.75104 0.0
H3764 H 0.48443 0.76095 0.70891 0.0
H3765 H 0.49043 0.75552 0.72105 0.0
H3766 H 0.49678 0.76678 0.71426 0.0
H3767 H 0.56442 0.7806 0.72649 0.0
H3768 H 0.57678 0.79049 0.73909 0.0
H3769 H 0.56318 0.78995 0.74425 0.0
H3770 H 0.56841 0.80227 0.73819 0.0
H3771 H 0.5397 0.80016 0.73897 0.0
H3772 H 0.54774 0.77351 0.71896 0.0
H3773 H 0.51945 0.78618 0.75477 0.0
H3774 H 0.5136 0.79402 0.74412 0.0
H3775 H 0.52516 0.7993 0.75138 0.0
H3776 H 0.53602 0.75841 0.71678 0.0
H3777 H 0.52201 0.76014 0.72039 0.0
H3778 H 0.53109 0.75415 0.72986 0.0
H3779 H 0.50565 0.72764 0.78208 0.0
H3780 H 0.47871 0.74399 0.75966 0.0
H3781 H 0.47887 0.75758 0.74582 0.0
H3782 H 0.50625 0.78006 0.72902 0.0
H3783 H 0.5335 0.76229 0.75003 0.0
H3784 H 0.53336 0.74843 0.76367 0.0
H3785 H 0.43614 0.78591 0.73814 0.0
H3786 H 0.44833 0.77847 0.73982 0.0
H3787 H 0.43954 0.77559 0.72853 0.0
C3788 C 0.46288 0.81056 0.29014 0.0
C3789 C 0.45396 0.80337 0.28514 0.0
C3790 C 0.46518 0.78807 0.27993 0.0
C3791 C 0.46998 0.79291 0.27075 0.0
C3792 C 0.4789 0.78826 0.26569 0.0
C3793 C 0.48317 0.77861 0.26993 0.0
C3794 C 0.47816 0.77354 0.27896 0.0
C3795 C 0.46914 0.77829 0.28375 0.0
C3796 C 0.48392 0.79379 0.25596 0.0
C3797 C 0.48254 0.76329 0.28375 0.0
C3798 C 0.54343 0.81646 0.28859 0.0
C3799 C 0.54833 0.8054 0.29069 0.0
C3800 C 0.5406 0.79345 0.2772 0.0
C3801 C 0.5359 0.78514 0.28346 0.0
C3802 C 0.52713 0.77898 0.2795 0.0
C3803 C 0.52297 0.78126 0.2691 0.0
C3804 C 0.52791 0.78946 0.26266 0.0
C3805 C 0.53681 0.79534 0.26675 0.0
C3806 C 0.52221 0.77015 0.28649 0.0
C3807 C 0.52361 0.79222 0.25158 0.0
C3808 C 0.54366 0.72728 0.22391 0.0
C3809 C 0.5388 0.72356 0.23357 0.0
C3810 C 0.52921 0.72807 0.23736 0.0
C3811 C 0.52436 0.73648 0.23143 0.0
C3812 C 0.5292 0.74024 0.22172 0.0
C3813 C 0.53878 0.73556 0.21809 0.0
C3814 C 0.52421 0.72382 0.24772 0.0
C3815 C 0.52425 0.7492 0.2152 0.0
C3816 C 0.44042 0.72985 0.2276 0.0
C3817 C 0.44605 0.72765 0.21684 0.0
C3818 C 0.46498 0.72653 0.22222 0.0
C3819 C 0.47066 0.72121 0.23034 0.0
C3820 C 0.48029 0.72566 0.23457 0.0
C3821 C 0.48443 0.73554 0.23034 0.0
C3822 C 0.47896 0.7407 0.22175 0.0
C3823 C 0.46926 0.73617 0.21781 0.0
C3824 C 0.48595 0.71988 0.24366 0.0
C3825 C 0.48337 0.75103 0.21676 0.0
C3826 C 0.49337 0.77433 0.26545 0.0
C3827 C 0.5031 0.77906 0.26895 0.0
C3828 C 0.51307 0.77551 0.26521 0.0
C3829 C 0.51342 0.76687 0.25785 0.0
C3830 C 0.52331 0.76288 0.25415 0.0
C3831 C 0.52357 0.75446 0.24677 0.0
C3832 C 0.51394 0.74971 0.24282 0.0
C3833 C 0.51411 0.74118 0.23529 0.0
C3834 C 0.50439 0.73676 0.23141 0.0
C3835 C 0.49442 0.74052 0.23493 0.0
C3836 C 0.49407 0.74891 0.24261 0.0
C3837 C 0.48418 0.75274 0.24649 0.0
C3838 C 0.48392 0.76107 0.25396 0.0
C3839 C 0.49354 0.76585 0.25787 0.0
C3840 C 0.50361 0.76209 0.25409 0.0
C3841 C 0.50388 0.75356 0.2465 0.0
C3842 C 0.56624 0.72045 0.23381 0.0
C3843 C 0.55945 0.71545 0.22468 0.0
O3844 O 0.45693 0.79263 0.28545 0.0
O3845 O 0.4555 0.72208 0.21871 0.0
O3846 O 0.553 0.72319 0.21993 0.0
O3847 O 0.54879 0.79975 0.28107 0.0
H3848 H 0.4526 0.80589 0.27662 0.0
H3849 H 0.4705 0.81005 0.28546 0.0
H3850 H 0.4645 0.80801 0.29861 0.0
H3851 H 0.46042 0.81913 0.29009 0.0
H3852 H 0.46691 0.80038 0.26752 0.0
H3853 H 0.46536 0.77455 0.29077 0.0
H3854 H 0.49201 0.79715 0.25817 0.0
H3855 H 0.4789 0.80047 0.25286 0.0
H3856 H 0.48509 0.78788 0.24939 0.0
H3857 H 0.47789 0.7605 0.29095 0.0
H3858 H 0.49114 0.7646 0.28612 0.0
H3859 H 0.48229 0.75682 0.27761 0.0
H3860 H 0.54304 0.80103 0.29661 0.0
H3861 H 0.54304 0.8211 0.29622 0.0
H3862 H 0.53508 0.81543 0.2854 0.0
H3863 H 0.54833 0.82112 0.28258 0.0
H3864 H 0.53911 0.78346 0.29143 0.0
H3865 H 0.54061 0.80171 0.26195 0.0
H3866 H 0.52132 0.76258 0.2818 0.0
H3867 H 0.51401 0.77251 0.2891 0.0
H3868 H 0.52716 0.76854 0.29381 0.0
H3869 H 0.52791 0.7993 0.24792 0.0
H3870 H 0.51485 0.79395 0.25207 0.0
H3871 H 0.52452 0.78521 0.24615 0.0
H3872 H 0.55426 0.7088 0.22803 0.0
H3873 H 0.5424 0.71716 0.23823 0.0
H3874 H 0.54255 0.7384 0.21066 0.0
H3875 H 0.52385 0.73042 0.25371 0.0
H3876 H 0.52883 0.71708 0.25129 0.0
H3877 H 0.51578 0.72096 0.24617 0.0
H3878 H 0.5292 0.75149 0.20803 0.0
H3879 H 0.5233 0.75642 0.22035 0.0
H3880 H 0.51605 0.74664 0.21244 0.0
H3881 H 0.4479 0.73553 0.21285 0.0
H3882 H 0.43279 0.73424 0.22619 0.0
H3883 H 0.44577 0.73493 0.23279 0.0
H3884 H 0.43854 0.72217 0.23195 0.0
H3885 H 0.46737 0.71369 0.23357 0.0
H3886 H 0.46517 0.74008 0.21117 0.0
H3887 H 0.48722 0.72544 0.25057 0.0
H3888 H 0.49404 0.71733 0.24089 0.0
H3889 H 0.48132 0.71264 0.24652 0.0
H3890 H 0.47874 0.75348 0.20948 0.0
H3891 H 0.49199 0.75009 0.21449 0.0
H3892 H 0.48303 0.75762 0.22277 0.0
H3893 H 0.50291 0.78566 0.27466 0.0
H3894 H 0.53097 0.76623 0.25692 0.0
H3895 H 0.53142 0.75175 0.24418 0.0
H3896 H 0.50457 0.73027 0.22558 0.0
H3897 H 0.47651 0.74935 0.24379 0.0
H3898 H 0.47608 0.76373 0.25662 0.0
H3899 H 0.57151 0.71427 0.23752 0.0
H3900 H 0.56095 0.72362 0.24023 0.0
H3901 H 0.57141 0.72721 0.23067 0.0
C3902 C 0.562 0.23298 0.30041 0.0
C3903 C 0.55612 0.222 0.30149 0.0
C3904 C 0.54184 0.22295 0.28759 0.0
C3905 C 0.53844 0.21901 0.27757 0.0
C3906 C 0.52886 0.22254 0.2727 0.0
C3907 C 0.52258 0.23033 0.27797 0.0
C3908 C 0.52595 0.23438 0.28811 0.0
C3909 C 0.5355 0.23061 0.29285 0.0
C3910 C 0.52544 0.21793 0.26196 0.0
C3911 C 0.51945 0.24269 0.29395 0.0
C3912 C 0.43961 0.20927 0.30199 0.0
C3913 C 0.44959 0.21582 0.29972 0.0
C3914 C 0.46412 0.21765 0.2864 0.0
C3915 C 0.46833 0.22741 0.29052 0.0
C3916 C 0.47758 0.23237 0.28597 0.0
C3917 C 0.48271 0.22753 0.27708 0.0
C3918 C 0.47844 0.21777 0.27283 0.0
C3919 C 0.46919 0.21297 0.27755 0.0
C3920 C 0.48192 0.24279 0.2907 0.0
C3921 C 0.4837 0.21242 0.26333 0.0
C3922 C 0.46171 0.27912 0.2293 0.0
C3923 C 0.46571 0.28211 0.23952 0.0
C3924 C 0.4755 0.27805 0.24343 0.0
C3925 C 0.48132 0.27069 0.2371 0.0
C3926 C 0.47736 0.2677 0.2268 0.0
C3927 C 0.46765 0.27204 0.22301 0.0
C3928 C 0.47962 0.28165 0.25434 0.0
C3929 C 0.48335 0.25987 0.21984 0.0
C3930 C 0.56502 0.28458 0.23688 0.0
C3931 C 0.55954 0.28414 0.2258 0.0
C3932 C 0.54028 0.28356 0.22988 0.0
C3933 C 0.53386 0.28854 0.23758 0.0
C3934 C 0.52445 0.28341 0.24159 0.0
C3935 C 0.52125 0.27318 0.23753 0.0
C3936 C 0.52751 0.26831 0.22939 0.0
C3937 C 0.537 0.27353 0.2257 0.0
C3938 C 0.51797 0.28888 0.25023 0.0
C3939 C 0.52413 0.25762 0.22458 0.0
C3940 C 0.51236 0.23409 0.273 0.0
C3941 C 0.50265 0.22926 0.2765 0.0
C3942 C 0.49269 0.23256 0.27242 0.0
C3943 C 0.49236 0.24079 0.26446 0.0
C3944 C 0.48249 0.2442 0.26007 0.0
C3945 C 0.48223 0.25245 0.2524 0.0
C3946 C 0.49182 0.25765 0.24885 0.0
C3947 C 0.49161 0.26623 0.24124 0.0
C3948 C 0.50132 0.27103 0.2377 0.0
C3949 C 0.51129 0.26766 0.24168 0.0
C3950 C 0.51164 0.2593 0.24952 0.0
C3951 C 0.5215 0.25595 0.25398 0.0
C3952 C 0.52177 0.24769 0.26166 0.0
C3953 C 0.51218 0.24247 0.26518 0.0
C3954 C 0.50214 0.24579 0.26087 0.0
C3955 C 0.50187 0.25423 0.25304 0.0
C3956 C 0.43805 0.28036 0.23828 0.0
C3957 C 0.4442 0.28818 0.2307 0.0
O3958 O 0.55125 0.21918 0.29178 0.0
O3959 O 0.54943 0.28875 0.22643 0.0
O3960 O 0.45221 0.28278 0.2252 0.0
O3961 O 0.45527 0.21251 0.29071 0.0
H3962 H 0.54985 0.22247 0.30791 0.0
H3963 H 0.55622 0.23942 0.29842 0.0
H3964 H 0.56819 0.23279 0.29391 0.0
H3965 H 0.56604 0.23512 0.30815 0.0
H3966 H 0.54334 0.21309 0.27356 0.0
H3967 H 0.5379 0.23374 0.30063 0.0
H3968 H 0.51706 0.21456 0.26253 0.0
H3969 H 0.53088 0.21149 0.2592 0.0
H3970 H 0.52542 0.22445 0.25576 0.0
H3971 H 0.52364 0.24576 0.30129 0.0
H3972 H 0.51153 0.23907 0.2964 0.0
H3973 H 0.51781 0.24961 0.28849 0.0
H3974 H 0.4549 0.21729 0.30687 0.0
H3975 H 0.44116 0.20526 0.31002 0.0
H3976 H 0.44028 0.20162 0.2972 0.0
H3977 H 0.42714 0.22022 0.29963 0.0
H3978 H 0.46448 0.2312 0.29732 0.0
H3979 H 0.46588 0.20547 0.27438 0.0
H3980 H 0.48186 0.24924 0.28444 0.0
H3981 H 0.49044 0.24178 0.2933 0.0
H3982 H 0.47711 0.24545 0.29774 0.0
H3983 H 0.47917 0.20507 0.26071 0.0
H3984 H 0.49207 0.21016 0.26551 0.0
H3985 H 0.48426 0.21818 0.25642 0.0
H3986 H 0.44791 0.29485 0.23549 0.0
H3987 H 0.46131 0.28763 0.24451 0.0
H3988 H 0.46455 0.26979 0.21513 0.0
H3989 H 0.47931 0.27473 0.26007 0.0
H3990 H 0.47478 0.28827 0.25774 0.0
H3991 H 0.48819 0.28444 0.25371 0.0
H3992 H 0.47877 0.25771 0.21241 0.0
H3993 H 0.48497 0.25239 0.2245 0.0
H3994 H 0.49128 0.2635 0.21744 0.0
H3995 H 0.55874 0.27553 0.22342 0.0
H3996 H 0.57313 0.28091 0.23653 0.0
H3997 H 0.56006 0.27999 0.2429 0.0
H3998 H 0.56592 0.29307 0.23964 0.0
H3999 H 0.5364 0.29636 0.24063 0.0
H4000 H 0.54173 0.26987 0.21939 0.0
H4001 H 0.51652 0.28326 0.25713 0.0
H4002 H 0.50997 0.29108 0.24691 0.0
H4003 H 0.52209 0.29631 0.25325 0.0
H4004 H 0.52924 0.25544 0.21758 0.0
H4005 H 0.51555 0.25784 0.22191 0.0
H4006 H 0.52474 0.25118 0.23081 0.0
H4007 H 0.50283 0.22296 0.28262 0.0
H4008 H 0.47486 0.24052 0.26253 0.0
H4009 H 0.4744 0.25473 0.2493 0.0
H4010 H 0.5011 0.27756 0.23182 0.0
H4011 H 0.52913 0.25969 0.25161 0.0
H4012 H 0.52958 0.24547 0.26481 0.0
H4013 H 0.43159 0.28463 0.24265 0.0
H4014 H 0.44361 0.27692 0.24438 0.0
H4015 H 0.43432 0.27362 0.23361 0.0
C4016 C 0.18393 0.17876 0.09946 0.0
C4017 C 0.18867 0.17849 0.10975 0.0
C4018 C 0.18828 0.18539 0.09122 0.0
C4019 C 0.1975 0.192 0.09337 0.0
C4020 C 0.20233 0.19173 0.10375 0.0
C4021 C 0.19789 0.18495 0.11179 0.0
C4022 C 0.183 0.18535 0.08022 0.0
C4023 C 0.21207 0.19876 0.10642 0.0
C4024 C 0.21507 0.20359 0.07071 0.0
C4025 C 0.21116 0.21411 0.06975 0.0
C4026 C 0.21044 0.19618 0.0781 0.0
C4027 C 0.20194 0.19946 0.08492 0.0
C4028 C 0.198 0.21006 0.08402 0.0
C4029 C 0.20262 0.21723 0.07642 0.0
C4030 C 0.21478 0.1849 0.07875 0.0
C4031 C 0.18909 0.21394 0.09127 0.0
H4032 H 0.17686 0.17371 0.09783 0.0
H4033 H 0.2015 0.18486 0.11977 0.0
H4034 H 0.17997 0.19349 0.07828 0.0
H4035 H 0.18903 0.18336 0.07394 0.0
H4036 H 0.17613 0.17945 0.07973 0.0
H4037 H 0.21493 0.19751 0.11484 0.0
H4038 H 0.21881 0.19706 0.10082 0.0
H4039 H 0.21006 0.20738 0.10534 0.0
H4040 H 0.2218 0.20116 0.06576 0.0
H4041 H 0.19972 0.22541 0.07584 0.0
H4042 H 0.20806 0.17888 0.07796 0.0
H4043 H 0.21859 0.18358 0.08675 0.0
H4044 H 0.22087 0.18338 0.07237 0.0
H4045 H 0.18181 0.20862 0.0905 0.0
H4046 H 0.18678 0.22236 0.08937 0.0
H4047 H 0.19175 0.21355 0.09983 0.0
C4048 C 0.81295 0.1809 0.09689 0.0
C4049 C 0.81529 0.18465 0.10731 0.0
C4050 C 0.80813 0.18762 0.08916 0.0
C4051 C 0.80553 0.19831 0.09196 0.0
C4052 C 0.80802 0.20219 0.10242 0.0
C4053 C 0.81289 0.19532 0.10996 0.0
C4054 C 0.80568 0.18324 0.07806 0.0
C4055 C 0.8053 0.21351 0.10573 0.0
C4056 C 0.80029 0.21926 0.07011 0.0
C4057 C 0.78894 0.21924 0.0698 0.0
C4058 C 0.80581 0.21231 0.07711 0.0
C4059 C 0.79984 0.20534 0.0841 0.0
C4060 C 0.78839 0.20532 0.08385 0.0
C4061 C 0.78308 0.21228 0.07672 0.0
C4062 C 0.81803 0.21256 0.07715 0.0
C4063 C 0.78174 0.19807 0.09125 0.0
H4064 H 0.8149 0.1727 0.09478 0.0
H4065 H 0.81456 0.19822 0.11804 0.0
H4066 H 0.79683 0.18322 0.0766 0.0
H4067 H 0.8095 0.18851 0.07179 0.0
H4068 H 0.80861 0.1749 0.07702 0.0
H4069 H 0.8081 0.2154 0.11405 0.0
H4070 H 0.80906 0.21946 0.10006 0.0
H4071 H 0.79642 0.21457 0.10534 0.0
H4072 H 0.80484 0.22479 0.06494 0.0
H4073 H 0.77432 0.2124 0.07663 0.0
H4074 H 0.82111 0.20434 0.07578 0.0
H4075 H 0.82105 0.21521 0.08517 0.0
H4076 H 0.82146 0.21808 0.07087 0.0
H4077 H 0.78391 0.18953 0.09004 0.0
H4078 H 0.7729 0.19885 0.08987 0.0
H4079 H 0.78353 0.20007 0.09979 0.0
C4080 C 0.8227 0.81446 0.11168 0.0
C4081 C 0.82349 0.8257 0.11047 0.0
C4082 C 0.81901 0.8079 0.10319 0.0
C4083 C 0.81604 0.81268 0.09323 0.0
C4084 C 0.81683 0.82403 0.09194 0.0
C4085 C 0.82053 0.8304 0.10058 0.0
C4086 C 0.81823 0.79583 0.10492 0.0
C4087 C 0.8138 0.82942 0.08142 0.0
C4088 C 0.81597 0.79423 0.06886 0.0
C4089 C 0.80496 0.79143 0.06791 0.0
C4090 C 0.81964 0.8014 0.07685 0.0
C4091 C 0.81215 0.80577 0.08418 0.0
C4092 C 0.801 0.8031 0.08318 0.0
C4093 C 0.79754 0.79596 0.07506 0.0
C4094 C 0.83159 0.80406 0.07764 0.0
C4095 C 0.79276 0.80754 0.09087 0.0
H4096 H 0.82481 0.81078 0.11934 0.0
H4097 H 0.82123 0.83908 0.09956 0.0
H4098 H 0.80977 0.79295 0.10366 0.0
H4099 H 0.82333 0.79171 0.09891 0.0
H4100 H 0.82084 0.79338 0.11315 0.0
H4101 H 0.81485 0.83833 0.08173 0.0
H4102 H 0.81886 0.82632 0.07477 0.0
H4103 H 0.80525 0.82745 0.0794 0.0
H4104 H 0.82175 0.79066 0.06344 0.0
H4105 H 0.78904 0.7937 0.07445 0.0
H4106 H 0.83481 0.80097 0.08541 0.0
H4107 H 0.83296 0.81293 0.07755 0.0
H4108 H 0.83627 0.80052 0.07093 0.0
H4109 H 0.79443 0.80464 0.09919 0.0
H4110 H 0.78435 0.8051 0.08868 0.0
H4111 H 0.79336 0.81648 0.09098 0.0
C4112 C 0.19384 0.81769 0.10509 0.0
C4113 C 0.19123 0.82864 0.10488 0.0
C4114 C 0.19788 0.81262 0.09586 0.0
C4115 C 0.19928 0.81864 0.08618 0.0
C4116 C 0.19665 0.8297 0.08592 0.0
C4117 C 0.19268 0.83457 0.09527 0.0
C4118 C 0.20066 0.80083 0.09646 0.0
C4119 C 0.19794 0.83638 0.07573 0.0
C4120 C 0.21809 0.80916 0.06408 0.0
C4121 C 0.21076 0.80441 0.05678 0.0
C4122 C 0.2145 0.81353 0.07385 0.0
C4123 C 0.2033 0.81337 0.07625 0.0
C4124 C 0.19587 0.80859 0.06892 0.0
C4125 C 0.19969 0.80417 0.05928 0.0
C4126 C 0.22267 0.81853 0.08148 0.0
C4127 C 0.18385 0.80839 0.07111 0.0
H4128 H 0.19286 0.8131 0.11253 0.0
H4129 H 0.19055 0.843 0.09503 0.0
H4130 H 0.19575 0.79619 0.09052 0.0
H4131 H 0.20929 0.7998 0.0943 0.0
H4132 H 0.19923 0.79732 0.10463 0.0
H4133 H 0.1956 0.8449 0.0769 0.0
H4134 H 0.20647 0.83629 0.07295 0.0
H4135 H 0.19288 0.83285 0.06919 0.0
H4136 H 0.22662 0.80959 0.06208 0.0
H4137 H 0.19399 0.80072 0.05354 0.0
H4138 H 0.22172 0.81495 0.08968 0.0
H4139 H 0.22125 0.8273 0.08218 0.0
H4140 H 0.23113 0.81739 0.07875 0.0
H4141 H 0.18214 0.80447 0.07903 0.0
H4142 H 0.17919 0.80403 0.06476 0.0
H4143 H 0.1809 0.81676 0.07155 0.0
C4144 C 0.18248 0.82068 0.90461 0.0
C4145 C 0.19039 0.82461 0.89739 0.0
C4146 C 0.18538 0.81525 0.91414 0.0
C4147 C 0.19646 0.81373 0.91652 0.0
C4148 C 0.20447 0.81749 0.90916 0.0
C4149 C 0.20134 0.82288 0.89969 0.0
C4150 C 0.1766 0.81138 0.92181 0.0
C4151 C 0.21635 0.81596 0.91138 0.0
C4152 C 0.20402 0.81019 0.94604 0.0
C4153 C 0.20499 0.79897 0.94691 0.0
C4154 C 0.2014 0.81509 0.93616 0.0
C4155 C 0.19966 0.80862 0.92692 0.0
C4156 C 0.20069 0.79729 0.92772 0.0
C4157 C 0.20324 0.79258 0.93773 0.0
C4158 C 0.20028 0.82719 0.93566 0.0
C4159 C 0.19891 0.79013 0.91804 0.0
H4160 H 0.17402 0.82209 0.90296 0.0
H4161 H 0.20749 0.82575 0.89406 0.0
H4162 H 0.17742 0.80264 0.92349 0.0
H4163 H 0.17744 0.81564 0.92962 0.0
H4164 H 0.16837 0.81278 0.91855 0.0
H4165 H 0.22155 0.81898 0.90465 0.0
H4166 H 0.21872 0.8203 0.91886 0.0
H4167 H 0.21797 0.80729 0.91276 0.0
H4168 H 0.20514 0.81511 0.95316 0.0
H4169 H 0.20375 0.78389 0.93842 0.0
H4170 H 0.1919 0.82922 0.93329 0.0
H4171 H 0.20578 0.83069 0.92942 0.0
H4172 H 0.20214 0.83109 0.94352 0.0
H4173 H 0.19044 0.79076 0.91518 0.0
H4174 H 0.20052 0.78153 0.91988 0.0
H4175 H 0.20425 0.79282 0.91129 0.0
C4176 C 0.18869 0.18713 0.9036 0.0
C4177 C 0.18157 0.19341 0.8975 0.0
C4178 C 0.19462 0.19159 0.91224 0.0
C4179 C 0.19349 0.20263 0.91476 0.0
C4180 C 0.18621 0.20897 0.90875 0.0
C4181 C 0.18029 0.20427 0.90027 0.0
C4182 C 0.2022 0.18454 0.91857 0.0
C4183 C 0.18481 0.22079 0.91114 0.0
C4184 C 0.2021 0.21422 0.94189 0.0
C4185 C 0.21229 0.21884 0.93941 0.0
C4186 C 0.1961 0.20851 0.93407 0.0
C4187 C 0.20019 0.20771 0.92343 0.0
C4188 C 0.21047 0.2123 0.9209 0.0
C4189 C 0.21642 0.2177 0.92894 0.0
C4190 C 0.18527 0.20353 0.93714 0.0
C4191 C 0.21502 0.21184 0.9096 0.0
H4192 H 0.18983 0.17876 0.90149 0.0
H4193 H 0.17463 0.20914 0.89578 0.0
H4194 H 0.21066 0.18749 0.91745 0.0
H4195 H 0.20036 0.18498 0.92733 0.0
H4196 H 0.20165 0.17597 0.91604 0.0
H4197 H 0.17878 0.22459 0.90573 0.0
H4198 H 0.18218 0.22182 0.91963 0.0
H4199 H 0.19267 0.22518 0.91019 0.0
H4200 H 0.19874 0.21514 0.9499 0.0
H4201 H 0.22423 0.22134 0.92697 0.0
H4202 H 0.18486 0.19494 0.9347 0.0
H4203 H 0.17872 0.20773 0.93279 0.0
H4204 H 0.18369 0.20401 0.94595 0.0
H4205 H 0.21539 0.20335 0.90688 0.0
H4206 H 0.22326 0.21556 0.90902 0.0
H4207 H 0.20961 0.21613 0.90392 0.0
C4208 C 0.81817 0.20217 0.8978 0.0
C4209 C 0.82244 0.19188 0.89935 0.0
C4210 C 0.813 0.2075 0.90623 0.0
C4211 C 0.81207 0.20243 0.91648 0.0
C4212 C 0.81601 0.19188 0.91801 0.0
C4213 C 0.82115 0.18672 0.9094 0.0
C4214 C 0.80883 0.21871 0.90425 0.0
C4215 C 0.81516 0.18623 0.92882 0.0
C4216 C 0.81025 0.22218 0.93959 0.0
C4217 C 0.79907 0.22233 0.94147 0.0
C4218 C 0.81463 0.21532 0.93184 0.0
C4219 C 0.80764 0.20854 0.92572 0.0
C4220 C 0.79638 0.20838 0.92783 0.0
C4221 C 0.79222 0.2153 0.93566 0.0
C4222 C 0.82669 0.21571 0.92987 0.0
C4223 C 0.78868 0.20128 0.92145 0.0
H4224 H 0.81899 0.20611 0.88999 0.0
H4225 H 0.82448 0.17879 0.91064 0.0
H4226 H 0.80019 0.2191 0.9066 0.0
H4227 H 0.8134 0.22458 0.90932 0.0
H4228 H 0.80963 0.22125 0.89566 0.0
H4229 H 0.81776 0.17772 0.92843 0.0
H4230 H 0.8203 0.19055 0.93481 0.0
H4231 H 0.80672 0.18636 0.93184 0.0
H4232 H 0.81556 0.22766 0.94397 0.0
H4233 H 0.78356 0.21549 0.93702 0.0
H4234 H 0.82836 0.21912 0.92171 0.0
H4235 H 0.82997 0.20746 0.9301 0.0
H4236 H 0.83108 0.22073 0.93592 0.0
H4237 H 0.78837 0.20418 0.91296 0.0
H4238 H 0.78035 0.20126 0.92482 0.0
H4239 H 0.79157 0.19287 0.92132 0.0
C4240 C 0.81551 0.8211 0.90766 0.0
C4241 C 0.81666 0.81665 0.89733 0.0
C4242 C 0.8121 0.81468 0.91648 0.0
C4243 C 0.80975 0.80361 0.91492 0.0
C4244 C 0.81075 0.7991 0.90452 0.0
C4245 C 0.81421 0.80566 0.89585 0.0
C4246 C 0.81116 0.81971 0.92748 0.0
C4247 C 0.80821 0.78731 0.90257 0.0
C4248 C 0.81377 0.77975 0.9416 0.0
C4249 C 0.79947 0.78004 0.94624 0.0
C4250 C 0.81711 0.78923 0.93097 0.0
C4251 C 0.80663 0.79661 0.92414 0.0
C4252 C 0.79244 0.79432 0.92706 0.0
C4253 C 0.78825 0.78498 0.93757 0.0
C4254 C 0.82864 0.79101 0.92779 0.0
C4255 C 0.78412 0.80012 0.92068 0.0
H4256 H 0.81748 0.82956 0.90888 0.0
H4257 H 0.8149 0.8022 0.88787 0.0
H4258 H 0.80286 0.81831 0.93069 0.0
H4259 H 0.81687 0.81581 0.93315 0.0
H4260 H 0.81294 0.82853 0.92731 0.0
H4261 H 0.8091 0.7851 0.89394 0.0
H4262 H 0.81369 0.78227 0.90748 0.0
H4263 H 0.7998 0.78535 0.90517 0.0
H4264 H 0.82001 0.77599 0.94636 0.0
H4265 H 0.77986 0.78411 0.93995 0.0
H4266 H 0.83074 0.79973 0.92832 0.0
H4267 H 0.82971 0.78857 0.91927 0.0
H4268 H 0.83405 0.78629 0.9331 0.0
H4269 H 0.78572 0.80894 0.92121 0.0
H4270 H 0.77588 0.7981 0.92372 0.0
H4271 H 0.78478 0.79786 0.91206 0.0
C4272 C 0.1087 0.19811 0.18732 0.0
C4273 C 0.10657 0.18881 0.18123 0.0
C4274 C 0.10074 0.20248 0.19396 0.0
C4275 C 0.09034 0.19749 0.19446 0.0
C4276 C 0.08808 0.18819 0.1882 0.0
C4277 C 0.09625 0.18391 0.18172 0.0
C4278 C 0.10352 0.21232 0.20061 0.0
C4279 C 0.07705 0.18273 0.18841 0.0
C4280 C 0.0737 0.20247 0.21965 0.0
C4281 C 0.067 0.21085 0.21627 0.0
C4282 C 0.08121 0.19796 0.21259 0.0
C4283 C 0.08198 0.20182 0.20182 0.0
C4284 C 0.07512 0.21014 0.19828 0.0
C4285 C 0.06782 0.21468 0.20559 0.0
C4286 C 0.08853 0.18925 0.21675 0.0
C4287 C 0.0756 0.21438 0.18682 0.0
H4288 H 0.11671 0.20184 0.18706 0.0
H4289 H 0.09455 0.17678 0.17694 0.0
H4290 H 0.09788 0.21891 0.19868 0.0
H4291 H 0.10257 0.21038 0.20933 0.0
H4292 H 0.11193 0.21532 0.19919 0.0
H4293 H 0.07647 0.17583 0.18275 0.0
H4294 H 0.07521 0.17974 0.19669 0.0
H4295 H 0.07075 0.18862 0.18625 0.0
H4296 H 0.07321 0.19962 0.22794 0.0
H4297 H 0.06284 0.22127 0.20293 0.0
H4298 H 0.0971 0.19205 0.21619 0.0
H4299 H 0.08766 0.18193 0.2117 0.0
H4300 H 0.08676 0.187 0.22528 0.0
H4301 H 0.0836 0.21832 0.1853 0.0
H4302 H 0.0692 0.22031 0.18512 0.0
H4303 H 0.07473 0.20762 0.18104 0.0
C4304 C 0.81294 0.11053 0.19028 0.0
C4305 C 0.82364 0.10855 0.18724 0.0
C4306 C 0.80662 0.10257 0.19554 0.0
C4307 C 0.8111 0.09237 0.19777 0.0
C4308 C 0.8218 0.09023 0.19447 0.0
C4309 C 0.82796 0.09836 0.18926 0.0
C4310 C 0.79526 0.10518 0.19898 0.0
C4311 C 0.82681 0.07943 0.19663 0.0
C4312 C 0.79903 0.07646 0.22129 0.0
C4313 C 0.79212 0.0691 0.21601 0.0
C4314 C 0.80537 0.08396 0.21543 0.0
C4315 C 0.80474 0.08415 0.20401 0.0
C4316 C 0.79782 0.07671 0.19862 0.0
C4317 C 0.79151 0.06933 0.20469 0.0
C4318 C 0.8126 0.09182 0.22148 0.0
C4319 C 0.79694 0.07668 0.18645 0.0
H4320 H 0.80961 0.11843 0.18885 0.0
H4321 H 0.83618 0.09676 0.18681 0.0
H4322 H 0.78942 0.0991 0.19575 0.0
H4323 H 0.79466 0.10484 0.20792 0.0
H4324 H 0.79281 0.11331 0.19619 0.0
H4325 H 0.83502 0.07887 0.19306 0.0
H4326 H 0.82742 0.07802 0.20547 0.0
H4327 H 0.8216 0.07286 0.19329 0.0
H4328 H 0.79936 0.07643 0.23004 0.0
H4329 H 0.78601 0.0638 0.20059 0.0
H4330 H 0.81009 0.1002 0.21976 0.0
H4331 H 0.82108 0.09113 0.21871 0.0
H4332 H 0.81234 0.09044 0.23036 0.0
H4333 H 0.79374 0.08448 0.18357 0.0
H4334 H 0.79154 0.07006 0.18348 0.0
H4335 H 0.80506 0.07579 0.1828 0.0
C4336 C 0.89939 0.81411 0.19646 0.0
C4337 C 0.90155 0.81798 0.18599 0.0
C4338 C 0.90761 0.80975 0.20287 0.0
C4339 C 0.91827 0.80928 0.19874 0.0
C4340 C 0.92051 0.81315 0.18817 0.0
C4341 C 0.91212 0.81744 0.18191 0.0
C4342 C 0.90487 0.80563 0.21408 0.0
C4343 C 0.93178 0.81284 0.18352 0.0
C4344 C 0.94066 0.80744 0.21965 0.0
C4345 C 0.94276 0.79637 0.21971 0.0
C4346 C 0.93293 0.81179 0.21264 0.0
C4347 C 0.92707 0.80488 0.20559 0.0
C4348 C 0.92926 0.79372 0.20549 0.0
C4349 C 0.93706 0.78959 0.21258 0.0
C4350 C 0.93084 0.82374 0.21299 0.0
C4351 C 0.92315 0.78609 0.19813 0.0
H4352 H 0.89122 0.81436 0.1996 0.0
H4353 H 0.91386 0.82051 0.17387 0.0
H4354 H 0.90697 0.79701 0.21484 0.0
H4355 H 0.90973 0.81013 0.22017 0.0
H4356 H 0.89616 0.80647 0.21604 0.0
H4357 H 0.93216 0.81604 0.17512 0.0
H4358 H 0.93743 0.81767 0.18861 0.0
H4359 H 0.93468 0.80444 0.18355 0.0
H4360 H 0.94493 0.81269 0.22526 0.0
H4361 H 0.93854 0.781 0.21273 0.0
H4362 H 0.92245 0.82507 0.21578 0.0
H4363 H 0.93159 0.82732 0.20478 0.0
H4364 H 0.93651 0.82809 0.21848 0.0
H4365 H 0.91445 0.7859 0.20031 0.0
H4366 H 0.92622 0.77774 0.19861 0.0
H4367 H 0.92376 0.78895 0.18963 0.0
C4368 C 0.17922 0.90585 0.19141 0.0
C4369 C 0.18351 0.89563 0.18959 0.0
C4370 C 0.18547 0.91407 0.19625 0.0
C4371 C 0.19625 0.91199 0.19941 0.0
C4372 C 0.20067 0.90175 0.19744 0.0
C4373 C 0.19426 0.89371 0.19254 0.0
C4374 C 0.18051 0.92492 0.19813 0.0
C4375 C 0.2121 0.8992 0.20076 0.0
C4376 C 0.21624 0.93501 0.20491 0.0
C4377 C 0.21605 0.93546 0.21623 0.0
C4378 C 0.20963 0.9276 0.19929 0.0
C4379 C 0.20279 0.92037 0.20515 0.0
C4380 C 0.20252 0.92083 0.21658 0.0
C4381 C 0.20918 0.92834 0.22197 0.0
C4382 C 0.21013 0.92736 0.18711 0.0
C4383 C 0.19539 0.91321 0.22312 0.0
H4384 H 0.17095 0.90741 0.18903 0.0
H4385 H 0.19757 0.88579 0.19127 0.0
H4386 H 0.18019 0.92656 0.20692 0.0
H4387 H 0.18561 0.93139 0.19437 0.0
H4388 H 0.1722 0.92538 0.19478 0.0
H4389 H 0.21445 0.89097 0.19832 0.0
H4390 H 0.21788 0.90513 0.1971 0.0
H4391 H 0.21293 0.89985 0.20966 0.0
H4392 H 0.22169 0.94036 0.20045 0.0
H4393 H 0.20915 0.92854 0.23072 0.0
H4394 H 0.20189 0.92813 0.18365 0.0
H4395 H 0.21326 0.9195 0.18443 0.0
H4396 H 0.21541 0.93391 0.18374 0.0
H4397 H 0.18685 0.91384 0.22048 0.0
H4398 H 0.19585 0.91486 0.23192 0.0
H4399 H 0.19783 0.90477 0.22174 0.0
C4400 C 0.11314 0.81798 0.80924 0.0
C4401 C 0.1111 0.81975 0.82023 0.0
C4402 C 0.10513 0.81356 0.80246 0.0
C4403 C 0.09481 0.81086 0.80676 0.0
C4404 C 0.0926 0.81287 0.81777 0.0
C4405 C 0.10078 0.81727 0.82439 0.0
C4406 C 0.10783 0.81149 0.79077 0.0
C4407 C 0.08166 0.81019 0.82262 0.0
C4408 C 0.07192 0.80632 0.78665 0.0
C4409 C 0.07155 0.79502 0.78593 0.0
C4410 C 0.07927 0.81159 0.79359 0.0
C4411 C 0.08653 0.80543 0.79983 0.0
C4412 C 0.08617 0.79403 0.79915 0.0
C4413 C 0.07872 0.78898 0.79219 0.0
C4414 C 0.0794 0.82375 0.79409 0.0
C4415 C 0.09384 0.78717 0.80561 0.0
H4416 H 0.12114 0.81975 0.80601 0.0
H4417 H 0.09911 0.81874 0.83284 0.0
H4418 H 0.10733 0.8027 0.78917 0.0
H4419 H 0.10187 0.81542 0.7854 0.0
H4420 H 0.11606 0.81451 0.78857 0.0
H4421 H 0.08106 0.81276 0.83117 0.0
H4422 H 0.0752 0.81414 0.81788 0.0
H4423 H 0.08007 0.80136 0.82224 0.0
H4424 H 0.06654 0.81103 0.78166 0.0
H4425 H 0.07859 0.78026 0.79152 0.0
H4426 H 0.08729 0.827 0.79112 0.0
H4427 H 0.07852 0.82641 0.80258 0.0
H4428 H 0.07285 0.82733 0.78917 0.0
H4429 H 0.10231 0.78913 0.80323 0.0
H4430 H 0.0923 0.77841 0.80441 0.0
H4431 H 0.09308 0.78896 0.81434 0.0
C4432 C 0.19413 0.1092 0.81779 0.0
C4433 C 0.18798 0.10772 0.82723 0.0
C4434 C 0.19926 0.1005 0.81289 0.0
C4435 C 0.19819 0.09006 0.81752 0.0
C4436 C 0.19162 0.08843 0.82678 0.0
C4437 C 0.18661 0.09728 0.83153 0.0
C4438 C 0.2062 0.10255 0.80303 0.0
C4439 C 0.1902 0.07742 0.83193 0.0
C4440 C 0.20625 0.06499 0.80214 0.0
C4441 C 0.21651 0.06302 0.80652 0.0
C4442 C 0.2003 0.07396 0.80537 0.0
C4443 C 0.20466 0.08101 0.81329 0.0
C4444 C 0.21506 0.07913 0.81762 0.0
C4445 C 0.22082 0.07016 0.81421 0.0
C4446 C 0.18925 0.0757 0.80057 0.0
C4447 C 0.21997 0.08641 0.82613 0.0
H4448 H 0.1953 0.11726 0.81447 0.0
H4449 H 0.18172 0.09606 0.83872 0.0
H4450 H 0.21481 0.10125 0.80509 0.0
H4451 H 0.20398 0.09679 0.79654 0.0
H4452 H 0.20542 0.1109 0.79984 0.0
H4453 H 0.18419 0.07736 0.8386 0.0
H4454 H 0.18756 0.07143 0.82581 0.0
H4455 H 0.19806 0.07474 0.83522 0.0
H4456 H 0.20277 0.05937 0.79637 0.0
H4457 H 0.22865 0.06855 0.81777 0.0
H4458 H 0.18866 0.08407 0.79741 0.0
H4459 H 0.18299 0.07465 0.80693 0.0
H4460 H 0.18738 0.06999 0.79392 0.0
H4461 H 0.22014 0.0949 0.82324 0.0
H4462 H 0.22833 0.08411 0.82831 0.0
H4463 H 0.21491 0.08606 0.83354 0.0
C4464 C 0.89817 0.19056 0.82731 0.0
C4465 C 0.89505 0.18122 0.82166 0.0
C4466 C 0.90631 0.19758 0.82334 0.0
C4467 C 0.91162 0.19512 0.81356 0.0
C4468 C 0.90875 0.18556 0.80797 0.0
C4469 C 0.90046 0.17877 0.81204 0.0
C4470 C 0.90909 0.20773 0.82951 0.0
C4471 C 0.91433 0.1826 0.79758 0.0
C4472 C 0.92463 0.21843 0.79789 0.0
C4473 C 0.93549 0.21782 0.80107 0.0
C4474 C 0.91681 0.21103 0.8018 0.0
C4475 C 0.91993 0.20275 0.80902 0.0
C4476 C 0.9309 0.20199 0.81218 0.0
C4477 C 0.93852 0.20964 0.8083 0.0
C4478 C 0.90516 0.21224 0.79841 0.0
C4479 C 0.93456 0.19321 0.81977 0.0
H4480 H 0.89422 0.19243 0.83486 0.0
H4481 H 0.89804 0.17166 0.80753 0.0
H4482 H 0.9178 0.2079 0.83167 0.0
H4483 H 0.90762 0.2149 0.82435 0.0
H4484 H 0.90427 0.20842 0.83703 0.0
H4485 H 0.91161 0.17458 0.79456 0.0
H4486 H 0.91268 0.18874 0.79127 0.0
H4487 H 0.92322 0.18253 0.79881 0.0
H4488 H 0.92223 0.22487 0.79248 0.0
H4489 H 0.94684 0.20924 0.81101 0.0
H4490 H 0.90007 0.21366 0.80562 0.0
H4491 H 0.90211 0.20469 0.79461 0.0
H4492 H 0.90409 0.21901 0.79262 0.0
H4493 H 0.93066 0.19413 0.82777 0.0
H4494 H 0.94348 0.19334 0.82091 0.0
H4495 H 0.93202 0.18519 0.81663 0.0
C4496 C 0.83067 0.90436 0.81673 0.0
C4497 C 0.82512 0.89439 0.81734 0.0
C4498 C 0.82539 0.91373 0.8134 0.0
C4499 C 0.81429 0.91313 0.81057 0.0
C4500 C 0.80865 0.90308 0.81111 0.0
C4501 C 0.81412 0.89384 0.81453 0.0
C4502 C 0.83167 0.92431 0.81304 0.0
C4503 C 0.79685 0.90211 0.80808 0.0
C4504 C 0.79862 0.9391 0.81207 0.0
C4505 C 0.79871 0.94261 0.80127 0.0
C4506 C 0.80349 0.92943 0.81517 0.0
C4507 C 0.80857 0.92308 0.80727 0.0
C4508 C 0.80857 0.92649 0.79632 0.0
C4509 C 0.80377 0.93629 0.79347 0.0
C4510 C 0.80346 0.92618 0.82695 0.0
C4511 C 0.81384 0.9199 0.78765 0.0
H4512 H 0.83912 0.90486 0.81902 0.0
H4513 H 0.80983 0.88613 0.81487 0.0
H4514 H 0.8314 0.9278 0.80477 0.0
H4515 H 0.8279 0.93017 0.81854 0.0
H4516 H 0.84027 0.92339 0.81541 0.0
H4517 H 0.79368 0.89368 0.80876 0.0
H4518 H 0.79198 0.9073 0.81339 0.0
H4519 H 0.79567 0.90498 0.79966 0.0
H4520 H 0.79493 0.94408 0.81815 0.0
H4521 H 0.8041 0.93906 0.78515 0.0
H4522 H 0.8119 0.92591 0.82999 0.0
H4523 H 0.79986 0.91797 0.82795 0.0
H4524 H 0.79888 0.93185 0.83203 0.0
H4525 H 0.82268 0.91956 0.78915 0.0
H4526 H 0.81252 0.92329 0.77943 0.0
H4527 H 0.81061 0.91148 0.78788 0.0
C4528 C 0.18421 0.10101 0.18764 0.0
C4529 C 0.17584 0.10593 0.19334 0.0
C4530 C 0.19023 0.09271 0.19235 0.0
C4531 C 0.18795 0.08935 0.20308 0.0
C4532 C 0.17939 0.09412 0.2088 0.0
C4533 C 0.17339 0.10226 0.20383 0.0
C4534 C 0.19918 0.08769 0.18593 0.0
C4535 C 0.17673 0.09081 0.22028 0.0
C4536 C 0.1976 0.06269 0.21458 0.0
C4537 C 0.20689 0.06598 0.22034 0.0
C4538 C 0.19162 0.07013 0.20853 0.0
C4539 C 0.19477 0.08118 0.20854 0.0
C4540 C 0.20415 0.08453 0.21427 0.0
C4541 C 0.21015 0.07688 0.21998 0.0
C4542 C 0.18181 0.06621 0.20232 0.0
C4543 C 0.20765 0.09626 0.21469 0.0
H4544 H 0.18626 0.10383 0.17957 0.0
H4545 H 0.16679 0.10581 0.20822 0.0
H4546 H 0.20711 0.08959 0.18975 0.0
H4547 H 0.19816 0.07878 0.18594 0.0
H4548 H 0.19941 0.09063 0.17743 0.0
H4549 H 0.16975 0.09524 0.22357 0.0
H4550 H 0.17482 0.08204 0.22069 0.0
H4551 H 0.18385 0.09235 0.22555 0.0
H4552 H 0.19491 0.05433 0.21486 0.0
H4553 H 0.21726 0.07946 0.22448 0.0
H4554 H 0.18223 0.06914 0.19383 0.0
H4555 H 0.17439 0.06952 0.20594 0.0
H4556 H 0.18103 0.05727 0.20231 0.0
H4557 H 0.20883 0.09951 0.20639 0.0
H4558 H 0.21527 0.09751 0.21931 0.0
H4559 H 0.20121 0.10103 0.21853 0.0
C4560 C 0.1862 0.90821 0.81443 0.0
C4561 C 0.18858 0.89731 0.81293 0.0
C4562 C 0.19212 0.91639 0.80902 0.0
C4563 C 0.2005 0.91358 0.80187 0.0
C4564 C 0.20312 0.90263 0.80054 0.0
C4565 C 0.19717 0.89462 0.80614 0.0
C4566 C 0.18923 0.92801 0.81073 0.0
C4567 C 0.21188 0.89934 0.79282 0.0
C4568 C 0.20626 0.93456 0.77308 0.0
C4569 C 0.21782 0.94231 0.779 0.0
C4570 C 0.19985 0.92499 0.78215 0.0
C4571 C 0.20586 0.9219 0.79508 0.0
C4572 C 0.21881 0.92757 0.79918 0.0
C4573 C 0.22589 0.93723 0.79065 0.0
C4574 C 0.18952 0.91952 0.7789 0.0
C4575 C 0.22361 0.92437 0.80974 0.0
H4576 H 0.17964 0.91033 0.81977 0.0
H4577 H 0.19896 0.8862 0.80486 0.0
H4578 H 0.1966 0.93283 0.8128 0.0
H4579 H 0.18587 0.93138 0.80314 0.0
H4580 H 0.18317 0.92892 0.81727 0.0
H4581 H 0.21328 0.89052 0.79307 0.0
H4582 H 0.2096 0.90166 0.78445 0.0
H4583 H 0.21958 0.90366 0.79476 0.0
H4584 H 0.2023 0.93715 0.76574 0.0
H4585 H 0.23321 0.94133 0.79334 0.0
H4586 H 0.18314 0.92138 0.78486 0.0
H4587 H 0.19059 0.91066 0.77903 0.0
H4588 H 0.18702 0.9222 0.77072 0.0
H4589 H 0.21746 0.9251 0.8162 0.0
H4590 H 0.23084 0.92948 0.81158 0.0
H4591 H 0.22595 0.91579 0.8094 0.0
C4592 C 0.10678 0.18343 0.8032 0.0
C4593 C 0.10787 0.18243 0.81445 0.0
C4594 C 0.09831 0.18927 0.7986 0.0
C4595 C 0.09066 0.19417 0.80541 0.0
C4596 C 0.09158 0.19303 0.81676 0.0
C4597 C 0.10019 0.18721 0.82115 0.0
C4598 C 0.09764 0.19033 0.78646 0.0
C4599 C 0.08353 0.19807 0.82427 0.0
C4600 C 0.07565 0.21795 0.79365 0.0
C4601 C 0.0659 0.21309 0.79027 0.0
C4602 C 0.0837 0.21193 0.79875 0.0
C4603 C 0.08192 0.20075 0.8006 0.0
C4604 C 0.07201 0.19581 0.79739 0.0
C4605 C 0.06419 0.20199 0.79211 0.0
C4606 C 0.09423 0.21746 0.80185 0.0
C4607 C 0.06977 0.18394 0.79935 0.0
H4608 H 0.11254 0.17959 0.79795 0.0
H4609 H 0.10102 0.18658 0.82984 0.0
H4610 H 0.08973 0.18711 0.78355 0.0
H4611 H 0.09818 0.19896 0.78407 0.0
H4612 H 0.10419 0.18597 0.7823 0.0
H4613 H 0.08507 0.19601 0.83287 0.0
H4614 H 0.0839 0.20698 0.82333 0.0
H4615 H 0.07519 0.19537 0.82214 0.0
H4616 H 0.07707 0.22648 0.79208 0.0
H4617 H 0.05678 0.1981 0.78934 0.0
H4618 H 0.101 0.21386 0.79735 0.0
H4619 H 0.09585 0.21624 0.81059 0.0
H4620 H 0.09422 0.22627 0.80012 0.0
H4621 H 0.07548 0.1791 0.79459 0.0
H4622 H 0.06138 0.1815 0.79709 0.0
H4623 H 0.07107 0.18191 0.808 0.0
C4624 C 0.81816 0.09583 0.82957 0.0
C4625 C 0.81264 0.10555 0.83047 0.0
C4626 C 0.81408 0.08742 0.82309 0.0
C4627 C 0.80433 0.08884 0.81728 0.0
C4628 C 0.79871 0.09862 0.81821 0.0
C4629 C 0.80291 0.10683 0.82483 0.0
C4630 C 0.82022 0.07705 0.82241 0.0
C4631 C 0.78837 0.10051 0.81204 0.0
C4632 C 0.79919 0.07246 0.79194 0.0
C4633 C 0.79148 0.06478 0.7955 0.0
C4634 C 0.80355 0.08023 0.79898 0.0
C4635 C 0.80018 0.08028 0.8099 0.0
C4636 C 0.79252 0.07246 0.81362 0.0
C4637 C 0.78813 0.06491 0.80634 0.0
C4638 C 0.81154 0.08855 0.79464 0.0
C4639 C 0.78881 0.0722 0.82524 0.0
H4640 H 0.82563 0.09477 0.834 0.0
H4641 H 0.79869 0.11439 0.82539 0.0
H4642 H 0.81485 0.07011 0.82464 0.0
H4643 H 0.82293 0.07578 0.81398 0.0
H4644 H 0.82743 0.07706 0.82777 0.0
H4645 H 0.78488 0.10849 0.8138 0.0
H4646 H 0.78993 0.10003 0.80323 0.0
H4647 H 0.78226 0.09413 0.81406 0.0
H4648 H 0.80163 0.07252 0.78353 0.0
H4649 H 0.78201 0.05916 0.80913 0.0
H4650 H 0.81916 0.08836 0.79938 0.0
H4651 H 0.8082 0.09674 0.79551 0.0
H4652 H 0.81349 0.08726 0.78599 0.0
H4653 H 0.7959 0.07189 0.83073 0.0
H4654 H 0.78337 0.06516 0.82702 0.0
H4655 H 0.78444 0.07968 0.8271 0.0
C4656 C 0.90879 0.81609 0.82848 0.0
C4657 C 0.89849 0.81425 0.82401 0.0
C4658 C 0.91819 0.81344 0.82281 0.0
C4659 C 0.91728 0.80875 0.81245 0.0
C4660 C 0.9069 0.80671 0.80796 0.0
C4661 C 0.89764 0.80954 0.81377 0.0
C4662 C 0.9291 0.81588 0.82782 0.0
C4663 C 0.9056 0.8016 0.79698 0.0
C4664 C 0.9412 0.81215 0.79341 0.0
C4665 C 0.94644 0.8023 0.79466 0.0
C4666 C 0.93168 0.81432 0.79908 0.0
C4667 C 0.9272 0.80638 0.80614 0.0
C4668 C 0.93237 0.79635 0.80737 0.0
C4669 C 0.94202 0.79449 0.80174 0.0
C4670 C 0.92655 0.82519 0.7977 0.0
C4671 C 0.92777 0.78765 0.81474 0.0
H4672 H 0.9095 0.81983 0.83635 0.0
H4673 H 0.88969 0.80798 0.81033 0.0
H4674 H 0.93388 0.80842 0.82836 0.0
H4675 H 0.93371 0.82168 0.82264 0.0
H4676 H 0.92842 0.81934 0.83604 0.0
H4677 H 0.89697 0.80015 0.79482 0.0
H4678 H 0.90937 0.80689 0.79072 0.0
H4679 H 0.90984 0.7938 0.7968 0.0
H4680 H 0.94471 0.81828 0.78811 0.0
H4681 H 0.94612 0.78694 0.80295 0.0
H4682 H 0.92631 0.82937 0.80558 0.0
H4683 H 0.91807 0.82415 0.79489 0.0
H4684 H 0.931 0.83044 0.79182 0.0
H4685 H 0.92782 0.79052 0.8232 0.0
H4686 H 0.93241 0.78009 0.81434 0.0
H4687 H 0.91922 0.78582 0.81255 0.0
C4688 C 0.82004 0.89569 0.20262 0.0
C4689 C 0.82757 0.89782 0.19437 0.0
C4690 C 0.81353 0.90387 0.20667 0.0
C4691 C 0.81463 0.91447 0.20243 0.0
C4692 C 0.82229 0.91671 0.19417 0.0
C4693 C 0.82863 0.90834 0.19019 0.0
C4694 C 0.80536 0.90112 0.21538 0.0
C4695 C 0.82378 0.92793 0.18953 0.0
C4696 C 0.79046 0.93258 0.2057 0.0
C4697 C 0.79334 0.93856 0.21487 0.0
C4698 C 0.79741 0.92489 0.20143 0.0
C4699 C 0.80752 0.92312 0.20646 0.0
C4700 C 0.81056 0.92924 0.21563 0.0
C4701 C 0.80338 0.93679 0.21982 0.0
C4702 C 0.79379 0.91842 0.19174 0.0
C4703 C 0.8213 0.92763 0.22117 0.0
H4704 H 0.8191 0.88755 0.20578 0.0
H4705 H 0.83452 0.91004 0.18389 0.0
H4706 H 0.80688 0.9062 0.22259 0.0
H4707 H 0.79709 0.90287 0.21246 0.0
H4708 H 0.80559 0.89251 0.21789 0.0
H4709 H 0.8303 0.92841 0.18336 0.0
H4710 H 0.81612 0.93058 0.18576 0.0
H4711 H 0.82577 0.93371 0.19609 0.0
H4712 H 0.78262 0.93377 0.202 0.0
H4713 H 0.80557 0.9412 0.22705 0.0
H4714 H 0.79312 0.90975 0.19396 0.0
H4715 H 0.79988 0.91919 0.18519 0.0
H4716 H 0.78585 0.92104 0.18856 0.0
H4717 H 0.82156 0.91939 0.22468 0.0
H4718 H 0.82278 0.93355 0.22772 0.0
H4719 H 0.82799 0.92838 0.21521 0.0
C4720 C 0.11166 0.8131 0.19182 0.0
C4721 C 0.10989 0.81439 0.18069 0.0
C4722 C 0.10379 0.80818 0.19849 0.0
C4723 C 0.09389 0.80449 0.19393 0.0
C4724 C 0.09195 0.80599 0.18275 0.0
C4725 C 0.09999 0.81089 0.17626 0.0
C4726 C 0.10619 0.80668 0.21036 0.0
C4727 C 0.08145 0.80226 0.17763 0.0
C4728 C 0.07891 0.78191 0.20889 0.0
C4729 C 0.07107 0.78755 0.21462 0.0
C4730 C 0.08626 0.78731 0.20201 0.0
C4731 C 0.08578 0.79865 0.20081 0.0
C4732 C 0.07783 0.80441 0.20649 0.0
C4733 C 0.07066 0.79881 0.21343 0.0
C4734 C 0.0947 0.78089 0.19621 0.0
C4735 C 0.07704 0.8165 0.20539 0.0
H4736 H 0.11934 0.81565 0.19527 0.0
H4737 H 0.09852 0.812 0.16769 0.0
H4738 H 0.09975 0.81032 0.21531 0.0
H4739 H 0.10627 0.79795 0.21238 0.0
H4740 H 0.1141 0.81037 0.21271 0.0
H4741 H 0.081 0.80445 0.16893 0.0
H4742 H 0.08055 0.79337 0.17843 0.0
H4743 H 0.0745 0.80584 0.18188 0.0
H4744 H 0.07939 0.77325 0.20997 0.0
H4745 H 0.06479 0.80325 0.21802 0.0
H4746 H 0.1029 0.78361 0.19879 0.0
H4747 H 0.09414 0.78231 0.18737 0.0
H4748 H 0.09382 0.77209 0.19781 0.0
H4749 H 0.08454 0.82044 0.2085 0.0
H4750 H 0.07002 0.81969 0.20986 0.0
H4751 H 0.07629 0.81881 0.19675 0.0
C4752 C 0.90802 0.19041 0.17576 0.0
C4753 C 0.89719 0.19128 0.17894 0.0
C4754 C 0.91636 0.19563 0.18153 0.0
C4755 C 0.91378 0.20199 0.19059 0.0
C4756 C 0.90288 0.2027 0.19397 0.0
C4757 C 0.89472 0.19728 0.18814 0.0
C4758 C 0.9279 0.19456 0.17777 0.0
C4759 C 0.89978 0.2095 0.20351 0.0
C4760 C 0.93556 0.21078 0.21056 0.0
C4761 C 0.93817 0.22123 0.2068 0.0
C4762 C 0.92782 0.20431 0.20522 0.0
C4763 C 0.92236 0.20849 0.19609 0.0
C4764 C 0.92487 0.21906 0.19235 0.0
C4765 C 0.93274 0.22528 0.19774 0.0
C4766 C 0.92539 0.19305 0.20939 0.0
C4767 C 0.9191 0.22388 0.18276 0.0
H4768 H 0.90995 0.18567 0.16872 0.0
H4769 H 0.88635 0.19806 0.19055 0.0
H4770 H 0.93109 0.20252 0.17493 0.0
H4771 H 0.9331 0.19196 0.18459 0.0
H4772 H 0.92863 0.18869 0.17109 0.0
H4773 H 0.89102 0.20875 0.20544 0.0
H4774 H 0.90448 0.20715 0.21076 0.0
H4775 H 0.90177 0.21811 0.20177 0.0
H4776 H 0.93954 0.20768 0.21771 0.0
H4777 H 0.93457 0.23343 0.19497 0.0
H4778 H 0.9264 0.18711 0.20282 0.0
H4779 H 0.91686 0.1924 0.21212 0.0
H4780 H 0.93072 0.19081 0.21625 0.0
H4781 H 0.92021 0.21877 0.17554 0.0
H4782 H 0.92207 0.23219 0.18083 0.0
H4783 H 0.91028 0.22412 0.18439 0.0
C4784 C 0.20497 0.67596 0.60711 0.0
C4785 C 0.1948 0.67901 0.61095 0.0
C4786 C 0.21028 0.68184 0.5989 0.0
C4787 C 0.20526 0.69092 0.59425 0.0
C4788 C 0.19487 0.69388 0.59784 0.0
C4789 C 0.18979 0.68793 0.60619 0.0
C4790 C 0.22138 0.67844 0.59533 0.0
C4791 C 0.18919 0.70342 0.59298 0.0
C4792 C 0.22395 0.71192 0.58121 0.0
C4793 C 0.22357 0.70895 0.5703 0.0
C4794 C 0.21787 0.70626 0.58905 0.0
C4795 C 0.21109 0.69749 0.58589 0.0
C4796 C 0.2104 0.69464 0.57486 0.0
C4797 C 0.21679 0.70027 0.56722 0.0
C4798 C 0.21901 0.70941 0.60076 0.0
C4799 C 0.20313 0.68546 0.57115 0.0
H4800 H 0.20881 0.66895 0.61055 0.0
H4801 H 0.18199 0.69043 0.60915 0.0
H4802 H 0.22136 0.67673 0.58655 0.0
H4803 H 0.22734 0.6851 0.59671 0.0
H4804 H 0.22415 0.67115 0.59973 0.0
H4805 H 0.18086 0.70426 0.59619 0.0
H4806 H 0.19387 0.71094 0.59471 0.0
H4807 H 0.18875 0.70263 0.58407 0.0
H4808 H 0.2293 0.71851 0.58364 0.0
H4809 H 0.21655 0.69777 0.55885 0.0
H4810 H 0.22244 0.70263 0.60545 0.0
H4811 H 0.21096 0.71108 0.60425 0.0
H4812 H 0.22434 0.71665 0.60183 0.0
H4813 H 0.20613 0.67772 0.57441 0.0
H4814 H 0.20274 0.68491 0.56221 0.0
H4815 H 0.19481 0.68646 0.57431 0.0
C4816 C 0.81439 0.70019 0.60931 0.0
C4817 C 0.81712 0.68953 0.60699 0.0
C4818 C 0.8108 0.70717 0.60115 0.0
C4819 C 0.80998 0.70343 0.59042 0.0
C4820 C 0.81258 0.69266 0.58802 0.0
C4821 C 0.8161 0.68581 0.59635 0.0
C4822 C 0.80793 0.71858 0.604 0.0
C4823 C 0.81182 0.68845 0.57665 0.0
C4824 C 0.78816 0.72193 0.56876 0.0
C4825 C 0.7993 0.72825 0.56061 0.0
C4826 C 0.79253 0.71229 0.57874 0.0
C4827 C 0.80674 0.7109 0.58175 0.0
C4828 C 0.81704 0.71948 0.5756 0.0
C4829 C 0.8135 0.72935 0.56552 0.0
C4830 C 0.78435 0.70546 0.58457 0.0
C4831 C 0.82858 0.71834 0.57882 0.0
H4832 H 0.81499 0.70306 0.61754 0.0
H4833 H 0.81828 0.6776 0.59449 0.0
H4834 H 0.81333 0.72435 0.59958 0.0
H4835 H 0.79951 0.72019 0.60144 0.0
H4836 H 0.80868 0.72015 0.6128 0.0
H4837 H 0.81384 0.67978 0.57615 0.0
H4838 H 0.80351 0.68953 0.57348 0.0
H4839 H 0.81745 0.69315 0.57135 0.0
H4840 H 0.77978 0.72231 0.56628 0.0
H4841 H 0.81966 0.73386 0.5611 0.0
H4842 H 0.78493 0.70705 0.59336 0.0
H4843 H 0.78617 0.69683 0.58333 0.0
H4844 H 0.77607 0.70717 0.58164 0.0
H4845 H 0.82948 0.72025 0.58752 0.0
H4846 H 0.83388 0.72381 0.57394 0.0
H4847 H 0.83097 0.70985 0.57772 0.0
C4848 C 0.82557 0.32312 0.60058 0.0
C4849 C 0.81807 0.32431 0.60896 0.0
C4850 C 0.82266 0.31791 0.59094 0.0
C4851 C 0.81198 0.31374 0.58966 0.0
C4852 C 0.80444 0.31468 0.59818 0.0
C4853 C 0.80757 0.31997 0.60772 0.0
C4854 C 0.83092 0.31713 0.58201 0.0
C4855 C 0.79302 0.31027 0.59716 0.0
C4856 C 0.80156 0.31095 0.56091 0.0
C4857 C 0.80291 0.29994 0.55896 0.0
C4858 C 0.80432 0.3155 0.57092 0.0
C4859 C 0.80858 0.30887 0.57919 0.0
C4860 C 0.80988 0.29772 0.57731 0.0
C4861 C 0.80712 0.2934 0.56719 0.0
C4862 C 0.80288 0.32744 0.57255 0.0
C4863 C 0.8144 0.2904 0.58593 0.0
H4864 H 0.83366 0.32656 0.60143 0.0
H4865 H 0.80177 0.32073 0.61423 0.0
H4866 H 0.83175 0.30861 0.57953 0.0
H4867 H 0.82817 0.32172 0.57482 0.0
H4868 H 0.839 0.32035 0.58446 0.0
H4869 H 0.7883 0.3112 0.60471 0.0
H4870 H 0.78879 0.31453 0.59052 0.0
H4871 H 0.79311 0.3016 0.59504 0.0
H4872 H 0.79852 0.31607 0.55451 0.0
H4873 H 0.8084 0.28493 0.56564 0.0
H4874 H 0.81084 0.3314 0.57418 0.0
H4875 H 0.79768 0.32881 0.57969 0.0
H4876 H 0.79919 0.33141 0.56541 0.0
H4877 H 0.82282 0.29296 0.58787 0.0
H4878 H 0.81439 0.28182 0.58339 0.0
H4879 H 0.8096 0.29102 0.59346 0.0
C4880 C 0.18884 0.32257 0.60248 0.0
C4881 C 0.1947 0.32436 0.61203 0.0
C4882 C 0.19331 0.31682 0.5939 0.0
C4883 C 0.20385 0.31268 0.59493 0.0
C4884 C 0.20984 0.31455 0.60451 0.0
C4885 C 0.2052 0.32039 0.61293 0.0
C4886 C 0.18672 0.31508 0.58376 0.0
C4887 C 0.22106 0.31017 0.60597 0.0
C4888 C 0.21127 0.2884 0.5782 0.0
C4889 C 0.21779 0.29308 0.5701 0.0
C4890 C 0.20661 0.29469 0.58626 0.0
C4891 C 0.20847 0.30599 0.5862 0.0
C4892 C 0.21499 0.31082 0.57801 0.0
C4893 C 0.2197 0.30429 0.57015 0.0
C4894 C 0.19987 0.28922 0.59495 0.0
C4895 C 0.21707 0.32285 0.57764 0.0
H4896 H 0.18076 0.32574 0.6017 0.0
H4897 H 0.20972 0.32165 0.62034 0.0
H4898 H 0.19131 0.31812 0.57662 0.0
H4899 H 0.18517 0.30633 0.58255 0.0
H4900 H 0.17883 0.3192 0.58405 0.0
H4901 H 0.22475 0.31258 0.6138 0.0
H4902 H 0.22073 0.30123 0.60559 0.0
H4903 H 0.22643 0.31307 0.59934 0.0
H4904 H 0.20996 0.27972 0.57832 0.0
H4905 H 0.22493 0.30796 0.56406 0.0
H4906 H 0.19164 0.29262 0.59508 0.0
H4907 H 0.20357 0.29073 0.60299 0.0
H4908 H 0.19911 0.28036 0.59377 0.0
H4909 H 0.20929 0.32715 0.57757 0.0
H4910 H 0.22185 0.3254 0.57043 0.0
H4911 H 0.22154 0.32543 0.58499 0.0
C4912 C 0.18854 0.33037 0.41027 0.0
C4913 C 0.18453 0.32579 0.4007 0.0
C4914 C 0.19216 0.32385 0.41881 0.0
C4915 C 0.19178 0.3125 0.41773 0.0
C4916 C 0.1877 0.30783 0.40811 0.0
C4917 C 0.18412 0.31453 0.39972 0.0
C4918 C 0.19642 0.32911 0.42896 0.0
C4919 C 0.18721 0.29575 0.40664 0.0
C4920 C 0.2103 0.29522 0.43477 0.0
C4921 C 0.20317 0.29114 0.44268 0.0
C4922 C 0.20675 0.30235 0.42673 0.0
C4923 C 0.19579 0.30545 0.42658 0.0
C4924 C 0.18859 0.30148 0.43463 0.0
C4925 C 0.19235 0.29432 0.44254 0.0
C4926 C 0.21467 0.30636 0.41825 0.0
C4927 C 0.17685 0.30464 0.43474 0.0
H4928 H 0.18876 0.33907 0.41113 0.0
H4929 H 0.18118 0.31094 0.39229 0.0
H4930 H 0.19168 0.32621 0.43605 0.0
H4931 H 0.20494 0.32683 0.43034 0.0
H4932 H 0.19605 0.33805 0.42858 0.0
H4933 H 0.18366 0.2934 0.39873 0.0
H4934 H 0.19546 0.29245 0.40722 0.0
H4935 H 0.1823 0.29191 0.41317 0.0
H4936 H 0.21864 0.29268 0.43479 0.0
H4937 H 0.18679 0.29109 0.44858 0.0
H4938 H 0.21489 0.31531 0.41803 0.0
H4939 H 0.212 0.30358 0.41015 0.0
H4940 H 0.22299 0.30349 0.41973 0.0
H4941 H 0.17624 0.31355 0.4348 0.0
H4942 H 0.17244 0.30127 0.44186 0.0
H4943 H 0.17277 0.30171 0.4273 0.0
C4944 C 0.19364 0.68867 0.40343 0.0
C4945 C 0.18399 0.69297 0.39944 0.0
C4946 C 0.19927 0.69361 0.412 0.0
C4947 C 0.19524 0.70314 0.41661 0.0
C4948 C 0.1854 0.70738 0.41278 0.0
C4949 C 0.17986 0.7022 0.40432 0.0
C4950 C 0.20966 0.68877 0.41597 0.0
C4951 C 0.18082 0.71754 0.41745 0.0
C4952 C 0.20432 0.71352 0.44406 0.0
C4953 C 0.21194 0.72158 0.44114 0.0
C4954 C 0.19921 0.70708 0.43619 0.0
C4955 C 0.20148 0.70899 0.42512 0.0
C4956 C 0.20922 0.71705 0.42214 0.0
C4957 C 0.21439 0.72318 0.43018 0.0
C4958 C 0.19114 0.69844 0.43971 0.0
C4959 C 0.21171 0.7195 0.41042 0.0
H4960 H 0.19695 0.6816 0.39967 0.0
H4961 H 0.17229 0.70545 0.40148 0.0
H4962 H 0.21655 0.6944 0.41427 0.0
H4963 H 0.20933 0.68753 0.42485 0.0
H4964 H 0.2113 0.68092 0.41208 0.0
H4965 H 0.173 0.7197 0.41367 0.0
H4966 H 0.17956 0.71654 0.42628 0.0
H4967 H 0.18666 0.72436 0.41628 0.0
H4968 H 0.2022 0.71233 0.45248 0.0
H4969 H 0.22013 0.72953 0.42789 0.0
H4970 H 0.19295 0.69068 0.43577 0.0
H4971 H 0.18289 0.70072 0.43715 0.0
H4972 H 0.19114 0.6972 0.44861 0.0
H4973 H 0.21416 0.71206 0.40622 0.0
H4974 H 0.21826 0.7257 0.40946 0.0
H4975 H 0.20434 0.72244 0.40632 0.0
C4976 C 0.81626 0.6938 0.394 0.0
C4977 C 0.82753 0.69298 0.39315 0.0
C4978 C 0.81144 0.69712 0.40366 0.0
C4979 C 0.81804 0.69961 0.41269 0.0
C4980 C 0.82941 0.69882 0.41187 0.0
C4981 C 0.83402 0.69554 0.40211 0.0
C4982 C 0.79928 0.69795 0.40421 0.0
C4983 C 0.83672 0.70132 0.42135 0.0
C4984 C 0.80771 0.71681 0.43562 0.0
C4985 C 0.80484 0.70895 0.44338 0.0
C4986 C 0.81167 0.71387 0.42545 0.0
C4987 C 0.81307 0.70283 0.42309 0.0
C4988 C 0.8102 0.69487 0.43088 0.0
C4989 C 0.80611 0.69803 0.44091 0.0
C4990 C 0.81458 0.72259 0.41732 0.0
C4991 C 0.81174 0.68302 0.42874 0.0
H4992 H 0.81122 0.69194 0.38706 0.0
H4993 H 0.84272 0.69478 0.40155 0.0
H4994 H 0.79602 0.69243 0.41056 0.0
H4995 H 0.79706 0.70625 0.40647 0.0
H4996 H 0.79531 0.6959 0.39641 0.0
H4997 H 0.84542 0.70041 0.41935 0.0
H4998 H 0.83548 0.7097 0.4241 0.0
H4999 H 0.83466 0.69587 0.42823 0.0
H5000 H 0.807 0.72528 0.43755 0.0
H5001 H 0.80411 0.69195 0.44697 0.0
H5002 H 0.81047 0.72096 0.40951 0.0
H5003 H 0.82342 0.72263 0.41577 0.0
H5004 H 0.81232 0.73073 0.42012 0.0
H5005 H 0.8074 0.68062 0.42126 0.0
H5006 H 0.80877 0.67783 0.43551 0.0
H5007 H 0.82045 0.68147 0.42746 0.0
C5008 C 0.82225 0.32011 0.40409 0.0
C5009 C 0.81699 0.31982 0.39405 0.0
C5010 C 0.81839 0.31388 0.41286 0.0
C5011 C 0.80913 0.30711 0.41151 0.0
C5012 C 0.80379 0.30679 0.40138 0.0
C5013 C 0.80776 0.31318 0.3928 0.0
C5014 C 0.82421 0.31453 0.42357 0.0
C5015 C 0.79398 0.29957 0.39956 0.0
C5016 C 0.80492 0.28284 0.43005 0.0
C5017 C 0.79673 0.28633 0.43695 0.0
C5018 C 0.80915 0.28958 0.42186 0.0
C5019 C 0.80514 0.30012 0.42056 0.0
C5020 C 0.79698 0.30378 0.4276 0.0
C5021 C 0.79276 0.29679 0.43561 0.0
C5022 C 0.8177 0.28531 0.41441 0.0
C5023 C 0.79257 0.315 0.42653 0.0
H5024 H 0.82932 0.32532 0.40513 0.0
H5025 H 0.80374 0.31283 0.38502 0.0
H5026 H 0.8185 0.31691 0.43 0.0
H5027 H 0.82732 0.30649 0.42582 0.0
H5028 H 0.83111 0.32042 0.42338 0.0
H5029 H 0.79072 0.30032 0.39123 0.0
H5030 H 0.79609 0.29103 0.40104 0.0
H5031 H 0.7875 0.30158 0.40536 0.0
H5032 H 0.80785 0.2747 0.43092 0.0
H5033 H 0.78627 0.29949 0.44074 0.0
H5034 H 0.82498 0.2907 0.4145 0.0
H5035 H 0.81461 0.28517 0.406 0.0
H5036 H 0.82017 0.27703 0.41669 0.0
H5037 H 0.79929 0.32107 0.42665 0.0
H5038 H 0.7868 0.31687 0.4331 0.0
H5039 H 0.78835 0.31585 0.41867 0.0
C5040 C 0.11033 0.70161 0.68301 0.0
C5041 C 0.10956 0.6906 0.68056 0.0
C5042 C 0.10231 0.70662 0.68909 0.0
C5043 C 0.09324 0.70049 0.69277 0.0
C5044 C 0.09235 0.68938 0.69025 0.0
C5045 C 0.10055 0.68455 0.68421 0.0
C5046 C 0.10363 0.71846 0.69171 0.0
C5047 C 0.08274 0.68261 0.69394 0.0
C5048 C 0.07842 0.7112 0.7172 0.0
C5049 C 0.06979 0.71664 0.7124 0.0
C5050 C 0.086 0.70577 0.71092 0.0
C5051 C 0.08488 0.70568 0.69954 0.0
C5052 C 0.07609 0.71099 0.69463 0.0
C5053 C 0.06874 0.71655 0.7011 0.0
C5054 C 0.09537 0.70039 0.71646 0.0
C5055 C 0.07457 0.71098 0.68253 0.0
H5056 H 0.11735 0.7063 0.68035 0.0
H5057 H 0.09986 0.67606 0.68226 0.0
H5058 H 0.09657 0.72295 0.68868 0.0
H5059 H 0.10394 0.71953 0.7006 0.0
H5060 H 0.1111 0.72211 0.68813 0.0
H5061 H 0.0831 0.67416 0.69106 0.0
H5062 H 0.08234 0.6825 0.7029 0.0
H5063 H 0.07514 0.6862 0.69096 0.0
H5064 H 0.07936 0.71141 0.7259 0.0
H5065 H 0.06224 0.7209 0.69729 0.0
H5066 H 0.1031 0.7042 0.71372 0.0
H5067 H 0.09557 0.69175 0.71422 0.0
H5068 H 0.09491 0.70097 0.7254 0.0
H5069 H 0.08142 0.71538 0.67859 0.0
H5070 H 0.06691 0.71482 0.68003 0.0
H5071 H 0.07454 0.70259 0.67947 0.0
C5072 C 0.81839 0.60934 0.68664 0.0
C5073 C 0.82971 0.6104 0.68626 0.0
C5074 C 0.81335 0.59986 0.69063 0.0
C5075 C 0.81978 0.59125 0.69428 0.0
C5076 C 0.83119 0.59225 0.69386 0.0
C5077 C 0.83602 0.60181 0.68986 0.0
C5078 C 0.80115 0.59909 0.691 0.0
C5079 C 0.83833 0.58322 0.69761 0.0
C5080 C 0.80849 0.56987 0.71357 0.0
C5081 C 0.80613 0.56132 0.70652 0.0
C5082 C 0.81258 0.57979 0.70965 0.0
C5083 C 0.81461 0.58111 0.69845 0.0
C5084 C 0.81222 0.57252 0.6913 0.0
C5085 C 0.80801 0.56275 0.69543 0.0
C5086 C 0.81498 0.58878 0.71751 0.0
C5087 C 0.81442 0.57355 0.67934 0.0
H5088 H 0.81347 0.61599 0.68399 0.0
H5089 H 0.84476 0.60251 0.68944 0.0
H5090 H 0.79823 0.59211 0.68616 0.0
H5091 H 0.79841 0.59768 0.69943 0.0
H5092 H 0.79731 0.6065 0.68784 0.0
H5093 H 0.84708 0.58529 0.69675 0.0
H5094 H 0.83665 0.58126 0.70621 0.0
H5095 H 0.83652 0.57583 0.69288 0.0
H5096 H 0.8073 0.56875 0.72218 0.0
H5097 H 0.8064 0.55608 0.69 0.0
H5098 H 0.81096 0.59627 0.71486 0.0
H5099 H 0.82381 0.59054 0.71771 0.0
H5100 H 0.81224 0.58673 0.72584 0.0
H5101 H 0.81028 0.58068 0.67596 0.0
H5102 H 0.81169 0.56628 0.67482 0.0
H5103 H 0.82322 0.57483 0.67796 0.0
C5104 C 0.89697 0.3099 0.6909 0.0
C5105 C 0.89674 0.32008 0.68588 0.0
C5106 C 0.90634 0.30631 0.69611 0.0
C5107 C 0.91573 0.31304 0.69628 0.0
C5108 C 0.91546 0.32344 0.69149 0.0
C5109 C 0.90596 0.32684 0.68636 0.0
C5110 C 0.90628 0.2952 0.70119 0.0
C5111 C 0.92531 0.33084 0.69146 0.0
C5112 C 0.93863 0.30721 0.71592 0.0
C5113 C 0.94592 0.30182 0.70927 0.0
C5114 C 0.92868 0.31075 0.71187 0.0
C5115 C 0.92602 0.30897 0.70088 0.0
C5116 C 0.93332 0.30349 0.69416 0.0
C5117 C 0.94319 0.30003 0.69842 0.0
C5118 C 0.9211 0.31657 0.71928 0.0
C5119 C 0.93082 0.30147 0.68239 0.0
H5120 H 0.88981 0.3047 0.6907 0.0
H5121 H 0.90588 0.33467 0.68241 0.0
H5122 H 0.91208 0.29004 0.6969 0.0
H5123 H 0.90895 0.2957 0.70974 0.0
H5124 H 0.89815 0.29122 0.70093 0.0
H5125 H 0.92359 0.33891 0.68796 0.0
H5126 H 0.92839 0.33192 0.69981 0.0
H5127 H 0.93186 0.32718 0.68669 0.0
H5128 H 0.94081 0.3088 0.72425 0.0
H5129 H 0.94888 0.29604 0.69321 0.0
H5130 H 0.91301 0.31252 0.71927 0.0
H5131 H 0.92001 0.32494 0.71631 0.0
H5132 H 0.92415 0.31689 0.72772 0.0
H5133 H 0.92304 0.29692 0.68162 0.0
H5134 H 0.93725 0.29686 0.67833 0.0
H5135 H 0.9299 0.30927 0.67807 0.0
C5136 C 0.17228 0.40448 0.69476 0.0
C5137 C 0.17837 0.39523 0.69304 0.0
C5138 C 0.17721 0.41414 0.69821 0.0
C5139 C 0.18852 0.41457 0.70004 0.0
C5140 C 0.19471 0.40523 0.69844 0.0
C5141 C 0.18956 0.39568 0.69492 0.0
C5142 C 0.17035 0.42395 0.69974 0.0
C5143 C 0.20677 0.40535 0.70039 0.0
C5144 C 0.20216 0.44224 0.69849 0.0
C5145 C 0.20283 0.4451 0.70941 0.0
C5146 C 0.19773 0.43224 0.69535 0.0
C5147 C 0.19388 0.42489 0.70333 0.0
C5148 C 0.19468 0.42764 0.71439 0.0
C5149 C 0.19901 0.43778 0.7173 0.0
C5150 C 0.19688 0.42968 0.68346 0.0
C5151 C 0.19073 0.41998 0.72313 0.0
H5152 H 0.16365 0.40422 0.69318 0.0
H5153 H 0.19429 0.38852 0.69373 0.0
H5154 H 0.17123 0.42698 0.70811 0.0
H5155 H 0.17314 0.43052 0.69422 0.0
H5156 H 0.16164 0.42223 0.69816 0.0
H5157 H 0.21037 0.39734 0.69905 0.0
H5158 H 0.2108 0.41131 0.69492 0.0
H5159 H 0.20854 0.4079 0.70879 0.0
H5160 H 0.20489 0.44798 0.69237 0.0
H5161 H 0.19927 0.44002 0.72574 0.0
H5162 H 0.18825 0.42865 0.68116 0.0
H5163 H 0.2009 0.42197 0.68174 0.0
H5164 H 0.20059 0.43612 0.67829 0.0
H5165 H 0.18184 0.41877 0.72245 0.0
H5166 H 0.19263 0.42301 0.73136 0.0
H5167 H 0.19444 0.41198 0.72215 0.0
C5168 C 0.10259 0.31034 0.32385 0.0
C5169 C 0.10417 0.32119 0.32668 0.0
C5170 C 0.09338 0.30693 0.31807 0.0
C5171 C 0.08556 0.31457 0.31507 0.0
C5172 C 0.08717 0.32556 0.31776 0.0
C5173 C 0.09646 0.32874 0.32353 0.0
C5174 C 0.09196 0.29515 0.31529 0.0
C5175 C 0.07899 0.33394 0.31473 0.0
C5176 C 0.06519 0.30815 0.2929 0.0
C5177 C 0.05598 0.30517 0.29894 0.0
C5178 C 0.07495 0.31101 0.29804 0.0
C5179 C 0.07547 0.31102 0.30946 0.0
C5180 C 0.06622 0.30798 0.31559 0.0
C5181 C 0.05658 0.30513 0.31025 0.0
C5182 C 0.08465 0.31422 0.29124 0.0
C5183 C 0.06643 0.30794 0.32779 0.0
H5184 H 0.1086 0.30449 0.32614 0.0
H5185 H 0.09757 0.33712 0.32579 0.0
H5186 H 0.08455 0.2918 0.31922 0.0
H5187 H 0.09089 0.29423 0.30644 0.0
H5188 H 0.09896 0.2903 0.31791 0.0
H5189 H 0.08163 0.34221 0.31709 0.0
H5190 H 0.07753 0.33385 0.30588 0.0
H5191 H 0.07115 0.33201 0.31873 0.0
H5192 H 0.06469 0.30839 0.28416 0.0
H5193 H 0.04943 0.30301 0.31493 0.0
H5194 H 0.09168 0.30925 0.29348 0.0
H5195 H 0.08696 0.32276 0.29281 0.0
H5196 H 0.08307 0.31329 0.28246 0.0
H5197 H 0.07298 0.30272 0.33078 0.0
H5198 H 0.05864 0.30504 0.33134 0.0
H5199 H 0.06819 0.31622 0.33075 0.0
C5200 C 0.207 0.60601 0.32877 0.0
C5201 C 0.19646 0.60946 0.32662 0.0
C5202 C 0.21161 0.5977 0.32281 0.0
C5203 C 0.2055 0.59255 0.31459 0.0
C5204 C 0.19474 0.59574 0.31258 0.0
C5205 C 0.19038 0.6042 0.31857 0.0
C5206 C 0.22313 0.59458 0.32517 0.0
C5207 C 0.18792 0.59033 0.30399 0.0
C5208 C 0.22142 0.57923 0.29229 0.0
C5209 C 0.2216 0.56847 0.29582 0.0
C5210 C 0.21606 0.58711 0.29822 0.0
C5211 C 0.21055 0.58412 0.30784 0.0
C5212 C 0.21039 0.57321 0.31129 0.0
C5213 C 0.21607 0.56554 0.30536 0.0
C5214 C 0.21664 0.5987 0.29439 0.0
C5215 C 0.20441 0.56967 0.32139 0.0
H5216 H 0.21169 0.60983 0.33513 0.0
H5217 H 0.18228 0.60685 0.31675 0.0
H5218 H 0.22343 0.58589 0.32732 0.0
H5219 H 0.22818 0.59584 0.31784 0.0
H5220 H 0.22676 0.59933 0.33188 0.0
H5221 H 0.17948 0.59325 0.30391 0.0
H5222 H 0.19155 0.59189 0.29592 0.0
H5223 H 0.18771 0.58147 0.30528 0.0
H5224 H 0.2258 0.58155 0.28502 0.0
H5225 H 0.21626 0.55729 0.30827 0.0
H5226 H 0.22085 0.60373 0.30053 0.0
H5227 H 0.20838 0.60188 0.29342 0.0
H5228 H 0.22101 0.59964 0.28659 0.0
H5229 H 0.20837 0.5733 0.32858 0.0
H5230 H 0.20422 0.56076 0.32242 0.0
H5231 H 0.19597 0.57254 0.32117 0.0
C5232 C 0.89452 0.69755 0.3088 0.0
C5233 C 0.89585 0.68652 0.31085 0.0
C5234 C 0.90333 0.70423 0.30578 0.0
C5235 C 0.91371 0.69977 0.30481 0.0
C5236 C 0.91511 0.68863 0.30668 0.0
C5237 C 0.90615 0.68211 0.30966 0.0
C5238 C 0.90155 0.71607 0.30373 0.0
C5239 C 0.92609 0.68366 0.30572 0.0
C5240 C 0.93724 0.71906 0.28488 0.0
C5241 C 0.94568 0.72357 0.29656 0.0
C5242 C 0.92644 0.70966 0.28832 0.0
C5243 C 0.92308 0.70689 0.30229 0.0
C5244 C 0.92973 0.71386 0.3133 0.0
C5245 C 0.94063 0.72339 0.31071 0.0
C5246 C 0.92021 0.70417 0.27956 0.0
C5247 C 0.92621 0.71169 0.32463 0.0
H5248 H 0.88656 0.70098 0.30953 0.0
H5249 H 0.90726 0.67361 0.31133 0.0
H5250 H 0.90633 0.72094 0.30959 0.0
H5251 H 0.90443 0.71833 0.29552 0.0
H5252 H 0.8929 0.71822 0.30446 0.0
H5253 H 0.92578 0.67479 0.30704 0.0
H5254 H 0.92952 0.68539 0.29759 0.0
H5255 H 0.93166 0.68734 0.31177 0.0
H5256 H 0.93988 0.72021 0.27662 0.0
H5257 H 0.94528 0.7269 0.31726 0.0
H5258 H 0.91159 0.70638 0.28012 0.0
H5259 H 0.92062 0.69531 0.28072 0.0
H5260 H 0.92349 0.7065 0.27152 0.0
H5261 H 0.91767 0.71408 0.32558 0.0
H5262 H 0.93142 0.71622 0.3304 0.0
H5263 H 0.92657 0.7029 0.32632 0.0
C5264 C 0.82284 0.40212 0.31729 0.0
C5265 C 0.82555 0.39343 0.31068 0.0
C5266 C 0.81758 0.41115 0.31302 0.0
C5267 C 0.81495 0.41147 0.30188 0.0
C5268 C 0.8174 0.40259 0.29525 0.0
C5269 C 0.82266 0.3937 0.29973 0.0
C5270 C 0.81511 0.42046 0.32034 0.0
C5271 C 0.81467 0.40258 0.28335 0.0
C5272 C 0.79443 0.43077 0.29016 0.0
C5273 C 0.8012 0.43859 0.28525 0.0
C5274 C 0.79877 0.42212 0.29601 0.0
C5275 C 0.81014 0.42127 0.29696 0.0
C5276 C 0.81698 0.42937 0.29237 0.0
C5277 C 0.81244 0.43788 0.28652 0.0
C5278 C 0.7912 0.41363 0.30076 0.0
C5279 C 0.82915 0.42879 0.29322 0.0
H5280 H 0.82512 0.402 0.32575 0.0
H5281 H 0.82455 0.38693 0.29462 0.0
H5282 H 0.81988 0.42771 0.31776 0.0
H5283 H 0.80644 0.42251 0.31971 0.0
H5284 H 0.81703 0.41867 0.32892 0.0
H5285 H 0.81671 0.39486 0.27941 0.0
H5286 H 0.80592 0.40402 0.28217 0.0
H5287 H 0.81918 0.40924 0.27919 0.0
H5288 H 0.78575 0.43123 0.2891 0.0
H5289 H 0.81771 0.44385 0.28266 0.0
H5290 H 0.79323 0.4121 0.30936 0.0
H5291 H 0.79216 0.40593 0.29639 0.0
H5292 H 0.78259 0.41598 0.30022 0.0
H5293 H 0.8316 0.4276 0.30176 0.0
H5294 H 0.83328 0.43619 0.29003 0.0
H5295 H 0.83201 0.42177 0.28861 0.0
C5296 C 0.1773 0.5963 0.69268 0.0
C5297 C 0.18174 0.60656 0.69036 0.0
C5298 C 0.1836 0.58821 0.69737 0.0
C5299 C 0.1946 0.59045 0.69986 0.0
C5300 C 0.19919 0.60071 0.69733 0.0
C5301 C 0.19272 0.60863 0.6926 0.0
C5302 C 0.17845 0.57733 0.69985 0.0
C5303 C 0.21087 0.60345 0.69991 0.0
C5304 C 0.20809 0.57482 0.72247 0.0
C5305 C 0.21449 0.56761 0.71674 0.0
C5306 C 0.20143 0.58213 0.71707 0.0
C5307 C 0.20118 0.58229 0.70563 0.0
C5308 C 0.20754 0.57497 0.69978 0.0
C5309 C 0.2142 0.56779 0.7054 0.0
C5310 C 0.19484 0.58985 0.72361 0.0
C5311 C 0.20749 0.57489 0.68758 0.0
H5312 H 0.16886 0.59461 0.69084 0.0
H5313 H 0.19618 0.61658 0.69095 0.0
H5314 H 0.1832 0.57085 0.69611 0.0
H5315 H 0.17847 0.57587 0.7087 0.0
H5316 H 0.16997 0.57668 0.69689 0.0
H5317 H 0.21333 0.61163 0.69698 0.0
H5318 H 0.21215 0.60306 0.70877 0.0
H5319 H 0.21625 0.59746 0.6962 0.0
H5320 H 0.20845 0.57485 0.73122 0.0
H5321 H 0.2193 0.56239 0.70093 0.0
H5322 H 0.18616 0.58904 0.72142 0.0
H5323 H 0.19744 0.59827 0.72174 0.0
H5324 H 0.19568 0.58846 0.73245 0.0
H5325 H 0.19908 0.57396 0.68454 0.0
H5326 H 0.2124 0.56829 0.68426 0.0
H5327 H 0.21075 0.5827 0.68444 0.0
C5328 C 0.17711 0.41046 0.31767 0.0
C5329 C 0.18116 0.40016 0.31972 0.0
C5330 C 0.18384 0.41878 0.31355 0.0
C5331 C 0.19484 0.41671 0.31138 0.0
C5332 C 0.19896 0.40632 0.31342 0.0
C5333 C 0.19208 0.39819 0.31759 0.0
C5334 C 0.17919 0.42978 0.31156 0.0
C5335 C 0.21063 0.40378 0.31113 0.0
C5336 C 0.21082 0.43434 0.29163 0.0
C5337 C 0.21719 0.44066 0.29863 0.0
C5338 C 0.2033 0.4267 0.29567 0.0
C5339 C 0.20211 0.42537 0.30698 0.0
C5340 C 0.20832 0.43192 0.31408 0.0
C5341 C 0.21584 0.43943 0.30982 0.0
C5342 C 0.19688 0.41982 0.28784 0.0
C5343 C 0.20723 0.43077 0.32619 0.0
H5344 H 0.1687 0.41204 0.3194 0.0
H5345 H 0.19521 0.3902 0.31901 0.0
H5346 H 0.1837 0.43592 0.31637 0.0
H5347 H 0.18014 0.43207 0.30293 0.0
H5348 H 0.17048 0.43008 0.31371 0.0
H5349 H 0.21255 0.39528 0.31314 0.0
H5350 H 0.21246 0.40526 0.30246 0.0
H5351 H 0.21607 0.40918 0.31587 0.0
H5352 H 0.21192 0.43522 0.28297 0.0
H5353 H 0.2208 0.44423 0.31526 0.0
H5354 H 0.1881 0.42038 0.28954 0.0
H5355 H 0.19907 0.41124 0.28887 0.0
H5356 H 0.19836 0.42224 0.27929 0.0
H5357 H 0.19863 0.43144 0.32861 0.0
H5358 H 0.21209 0.43697 0.33058 0.0
H5359 H 0.20993 0.42268 0.32878 0.0
C5360 C 0.10174 0.679 0.32558 0.0
C5361 C 0.11102 0.67889 0.31907 0.0
C5362 C 0.09217 0.68371 0.32188 0.0
C5363 C 0.09189 0.68846 0.31145 0.0
C5364 C 0.10133 0.68865 0.30497 0.0
C5365 C 0.11077 0.68384 0.30884 0.0
C5366 C 0.08227 0.68329 0.32902 0.0
C5367 C 0.10138 0.69372 0.29384 0.0
C5368 C 0.06457 0.68955 0.29751 0.0
C5369 C 0.06163 0.70027 0.2992 0.0
C5370 C 0.07444 0.68567 0.30134 0.0
C5371 C 0.08155 0.69265 0.30707 0.0
C5372 C 0.07868 0.7035 0.30879 0.0
C5373 C 0.0687 0.70716 0.30491 0.0
C5374 C 0.07716 0.67402 0.29941 0.0
C5375 C 0.08605 0.71118 0.31487 0.0
H5376 H 0.10186 0.67511 0.33344 0.0
H5377 H 0.11796 0.68392 0.30384 0.0
H5378 H 0.07904 0.6915 0.33004 0.0
H5379 H 0.07582 0.6783 0.32514 0.0
H5380 H 0.08398 0.67983 0.33713 0.0
H5381 H 0.10953 0.69376 0.29008 0.0
H5382 H 0.09567 0.68924 0.28851 0.0
H5383 H 0.09857 0.70215 0.29427 0.0
H5384 H 0.05903 0.68415 0.2933 0.0
H5385 H 0.06636 0.71538 0.30645 0.0
H5386 H 0.07812 0.66976 0.30726 0.0
H5387 H 0.08498 0.67354 0.29506 0.0
H5388 H 0.07084 0.6697 0.29464 0.0
H5389 H 0.08713 0.70825 0.32328 0.0
H5390 H 0.08284 0.71948 0.31511 0.0
H5391 H 0.09417 0.71151 0.31105 0.0
C5392 C 0.81516 0.59826 0.33125 0.0
C5393 C 0.81539 0.60781 0.32509 0.0
C5394 C 0.81159 0.58846 0.32676 0.0
C5395 C 0.80812 0.58819 0.31586 0.0
C5396 C 0.80826 0.5978 0.30962 0.0
C5397 C 0.81193 0.6075 0.3143 0.0
C5398 C 0.81165 0.57836 0.33366 0.0
C5399 C 0.80454 0.59785 0.298 0.0
C5400 C 0.8089 0.56112 0.30176 0.0
C5401 C 0.79812 0.55749 0.30262 0.0
C5402 C 0.81222 0.57118 0.30586 0.0
C5403 C 0.80456 0.57777 0.31096 0.0
C5404 C 0.79363 0.57421 0.31176 0.0
C5405 C 0.79056 0.56405 0.30769 0.0
C5406 C 0.82398 0.57462 0.30498 0.0
C5407 C 0.78522 0.58104 0.3171 0.0
H5408 H 0.81795 0.59843 0.33955 0.0
H5409 H 0.81198 0.61487 0.30955 0.0
H5410 H 0.8034 0.5747 0.33406 0.0
H5411 H 0.81699 0.57232 0.32996 0.0
H5412 H 0.8145 0.57996 0.34202 0.0
H5413 H 0.80498 0.60603 0.2943 0.0
H5414 H 0.8096 0.59239 0.29317 0.0
H5415 H 0.79608 0.59474 0.29748 0.0
H5416 H 0.8148 0.55597 0.29805 0.0
H5417 H 0.78227 0.56119 0.3086 0.0
H5418 H 0.82749 0.57558 0.31317 0.0
H5419 H 0.82472 0.58256 0.30083 0.0
H5420 H 0.82884 0.5687 0.30048 0.0
H5421 H 0.78724 0.58208 0.32577 0.0
H5422 H 0.77696 0.5774 0.31649 0.0
H5423 H 0.78519 0.58919 0.31336 0.0
C5424 C 0.90708 0.31201 0.32057 0.0
C5425 C 0.89643 0.31293 0.3168 0.0
C5426 C 0.91533 0.3084 0.31375 0.0
C5427 C 0.91284 0.3056 0.30297 0.0
C5428 C 0.90209 0.30634 0.29918 0.0
C5429 C 0.89402 0.31001 0.30612 0.0
C5430 C 0.92673 0.30774 0.31801 0.0
C5431 C 0.89914 0.3033 0.28775 0.0
C5432 C 0.93745 0.30893 0.27686 0.0
C5433 C 0.94206 0.29477 0.27775 0.0
C5434 C 0.92767 0.31253 0.28692 0.0
C5435 C 0.92144 0.30232 0.2955 0.0
C5436 C 0.9241 0.28813 0.29394 0.0
C5437 C 0.93378 0.2837 0.2841 0.0
C5438 C 0.9247 0.32404 0.28816 0.0
C5439 C 0.91819 0.28001 0.30078 0.0
H5440 H 0.90902 0.31432 0.32878 0.0
H5441 H 0.88577 0.31053 0.30321 0.0
H5442 H 0.92976 0.29945 0.31691 0.0
H5443 H 0.93211 0.31332 0.31332 0.0
H5444 H 0.9273 0.30985 0.3267 0.0
H5445 H 0.89034 0.30399 0.28613 0.0
H5446 H 0.90364 0.3086 0.28197 0.0
H5447 H 0.90154 0.29488 0.28616 0.0
H5448 H 0.94191 0.31505 0.27233 0.0
H5449 H 0.93605 0.27534 0.28361 0.0
H5450 H 0.92595 0.32648 0.29668 0.0
H5451 H 0.91598 0.32492 0.28629 0.0
H5452 H 0.92963 0.32929 0.28269 0.0
H5453 H 0.91949 0.28197 0.30942 0.0
H5454 H 0.92102 0.27176 0.29908 0.0
H5455 H 0.90939 0.28048 0.29914 0.0
C5456 C 0.81019 0.3981 0.69136 0.0
C5457 C 0.82128 0.39973 0.68938 0.0
C5458 C 0.80393 0.40632 0.69573 0.0
C5459 C 0.80886 0.41642 0.69817 0.0
C5460 C 0.81997 0.41823 0.69587 0.0
C5461 C 0.82605 0.40986 0.69152 0.0
C5462 C 0.79211 0.40405 0.69809 0.0
C5463 C 0.82549 0.42892 0.69826 0.0
C5464 C 0.79025 0.43996 0.70309 0.0
C5465 C 0.78983 0.44015 0.71443 0.0
C5466 C 0.79661 0.43245 0.69767 0.0
C5467 C 0.80253 0.42483 0.70372 0.0
C5468 C 0.80214 0.425 0.71515 0.0
C5469 C 0.79577 0.43263 0.72035 0.0
C5470 C 0.79683 0.43254 0.68548 0.0
C5471 C 0.80827 0.41697 0.7219 0.0
H5472 H 0.80648 0.39027 0.68984 0.0
H5473 H 0.83458 0.41122 0.68986 0.0
H5474 H 0.79069 0.4044 0.70693 0.0
H5475 H 0.78705 0.4103 0.69426 0.0
H5476 H 0.78936 0.39601 0.69515 0.0
H5477 H 0.834 0.42926 0.6954 0.0
H5478 H 0.82102 0.43559 0.69439 0.0
H5479 H 0.82544 0.43036 0.7071 0.0
H5480 H 0.78549 0.44561 0.69847 0.0
H5481 H 0.79531 0.43262 0.7291 0.0
H5482 H 0.79332 0.42485 0.68239 0.0
H5483 H 0.80531 0.43314 0.68255 0.0
H5484 H 0.79224 0.43933 0.68198 0.0
H5485 H 0.80535 0.40866 0.72007 0.0
H5486 H 0.80733 0.41836 0.7307 0.0
H5487 H 0.817 0.41743 0.71987 0.0
C5488 C 0.10047 0.31577 0.68403 0.0
C5489 C 0.10987 0.30978 0.68264 0.0
C5490 C 0.09185 0.31179 0.69038 0.0
C5491 C 0.09268 0.30161 0.69555 0.0
C5492 C 0.10208 0.29546 0.69405 0.0
C5493 C 0.11054 0.2996 0.68759 0.0
C5494 C 0.08191 0.31853 0.69168 0.0
C5495 C 0.10332 0.28462 0.69951 0.0
C5496 C 0.07616 0.29635 0.72095 0.0
C5497 C 0.06775 0.28961 0.71715 0.0
C5498 C 0.08427 0.30034 0.714 0.0
C5499 C 0.08395 0.29761 0.70292 0.0
C5500 C 0.07545 0.29088 0.69898 0.0
C5501 C 0.06754 0.28682 0.70618 0.0
C5502 C 0.09329 0.30734 0.71856 0.0
C5503 C 0.07479 0.28787 0.6872 0.0
H5504 H 0.09987 0.32358 0.68011 0.0
H5505 H 0.11783 0.29499 0.68664 0.0
H5506 H 0.07457 0.31378 0.68937 0.0
H5507 H 0.08096 0.3208 0.70027 0.0
H5508 H 0.0823 0.32601 0.68669 0.0
H5509 H 0.11097 0.28069 0.69722 0.0
H5510 H 0.10321 0.28562 0.70841 0.0
H5511 H 0.09644 0.27917 0.69738 0.0
H5512 H 0.07646 0.29834 0.72947 0.0
H5513 H 0.06123 0.28143 0.7032 0.0
H5514 H 0.09358 0.31526 0.71433 0.0
H5515 H 0.10119 0.30348 0.71719 0.0
H5516 H 0.09234 0.30874 0.72736 0.0
H5517 H 0.07484 0.29527 0.68209 0.0
H5518 H 0.06739 0.283 0.68533 0.0
H5519 H 0.08197 0.28319 0.68492 0.0
C5520 C 0.90744 0.69908 0.67541 0.0
C5521 C 0.8978 0.69498 0.67997 0.0
C5522 C 0.91576 0.70335 0.68194 0.0
C5523 C 0.91436 0.70357 0.69329 0.0
C5524 C 0.90472 0.6993 0.69795 0.0
C5525 C 0.89657 0.69505 0.69123 0.0
C5526 C 0.92597 0.70775 0.6767 0.0
C5527 C 0.9029 0.69945 0.71001 0.0
C5528 C 0.93843 0.70705 0.71216 0.0
C5529 C 0.93802 0.71808 0.71459 0.0
C5530 C 0.93099 0.70228 0.70497 0.0
C5531 C 0.92279 0.70863 0.70031 0.0
C5532 C 0.92235 0.71975 0.70272 0.0
C5533 C 0.92995 0.72433 0.70984 0.0
C5534 C 0.93175 0.6904 0.70256 0.0
C5535 C 0.91365 0.72676 0.69801 0.0
H5536 H 0.9085 0.69892 0.66672 0.0
H5537 H 0.88908 0.69202 0.6948 0.0
H5538 H 0.9269 0.71649 0.67839 0.0
H5539 H 0.93313 0.70373 0.68018 0.0
H5540 H 0.92597 0.70659 0.66781 0.0
H5541 H 0.8951 0.6955 0.71237 0.0
H5542 H 0.90956 0.69528 0.71423 0.0
H5543 H 0.90295 0.7079 0.71289 0.0
H5544 H 0.9445 0.70213 0.71599 0.0
H5545 H 0.92949 0.7328 0.71187 0.0
H5546 H 0.93205 0.68913 0.6937 0.0
H5547 H 0.92443 0.68606 0.70563 0.0
H5548 H 0.939 0.68676 0.70629 0.0
H5549 H 0.91377 0.72634 0.68906 0.0
H5550 H 0.91464 0.73534 0.70043 0.0
H5551 H 0.90558 0.72376 0.70073 0.0
C5552 C 0.68671 0.18067 0.60279 0.0
C5553 C 0.69266 0.17812 0.61208 0.0
C5554 C 0.69127 0.1871 0.59451 0.0
C5555 C 0.702 0.19116 0.5956 0.0
C5556 C 0.70808 0.18854 0.60493 0.0
C5557 C 0.70335 0.18203 0.61302 0.0
C5558 C 0.68459 0.18962 0.58463 0.0
C5559 C 0.7195 0.19282 0.60646 0.0
C5560 C 0.71801 0.2015 0.57126 0.0
C5561 C 0.7166 0.21269 0.57197 0.0
C5562 C 0.71302 0.19436 0.57869 0.0
C5563 C 0.70677 0.19852 0.58723 0.0
C5564 C 0.70539 0.20979 0.58803 0.0
C5565 C 0.71027 0.21671 0.58037 0.0
C5566 C 0.71456 0.18238 0.5775 0.0
C5567 C 0.69897 0.21457 0.59714 0.0
H5568 H 0.67848 0.17757 0.60197 0.0
H5569 H 0.70794 0.1802 0.62025 0.0
H5570 H 0.68336 0.19844 0.58402 0.0
H5571 H 0.68893 0.18716 0.57723 0.0
H5572 H 0.67654 0.18547 0.5848 0.0
H5573 H 0.72321 0.18983 0.61406 0.0
H5574 H 0.72464 0.19042 0.59958 0.0
H5575 H 0.71954 0.20176 0.60662 0.0
H5576 H 0.72303 0.19829 0.56493 0.0
H5577 H 0.7093 0.22535 0.58103 0.0
H5578 H 0.70658 0.17811 0.5773 0.0
H5579 H 0.71904 0.17922 0.58457 0.0
H5580 H 0.71908 0.1804 0.57004 0.0
H5581 H 0.6906 0.21116 0.59715 0.0
H5582 H 0.69857 0.2235 0.59653 0.0
H5583 H 0.70269 0.21243 0.60501 0.0
C5584 C 0.31137 0.19756 0.61115 0.0
C5585 C 0.31397 0.18681 0.6091 0.0
C5586 C 0.30703 0.20412 0.60303 0.0
C5587 C 0.30529 0.19985 0.59258 0.0
C5588 C 0.30806 0.18906 0.5904 0.0
C5589 C 0.31233 0.18265 0.5987 0.0
C5590 C 0.3041 0.21557 0.60569 0.0
C5591 C 0.30641 0.18427 0.57933 0.0
C5592 C 0.28413 0.2135 0.57531 0.0
C5593 C 0.29053 0.22023 0.56865 0.0
C5594 C 0.28885 0.20667 0.58297 0.0
C5595 C 0.30025 0.20661 0.58405 0.0
C5596 C 0.30677 0.21331 0.57729 0.0
C5597 C 0.30183 0.22011 0.56972 0.0
C5598 C 0.28162 0.19968 0.59008 0.0
C5599 C 0.31895 0.21347 0.57821 0.0
H5600 H 0.3125 0.20077 0.61921 0.0
H5601 H 0.31445 0.17439 0.59705 0.0
H5602 H 0.30834 0.22129 0.60013 0.0
H5603 H 0.29529 0.21664 0.60455 0.0
H5604 H 0.30623 0.21774 0.61413 0.0
H5605 H 0.30932 0.17587 0.57886 0.0
H5606 H 0.29769 0.18427 0.5772 0.0
H5607 H 0.31074 0.18926 0.57317 0.0
H5608 H 0.2754 0.21371 0.57462 0.0
H5609 H 0.30679 0.22544 0.56471 0.0
H5610 H 0.28273 0.202 0.59866 0.0
H5611 H 0.28387 0.1911 0.58939 0.0
H5612 H 0.27293 0.20041 0.58797 0.0
H5613 H 0.32141 0.21643 0.58631 0.0
H5614 H 0.32288 0.21872 0.57198 0.0
H5615 H 0.32205 0.20518 0.5774 0.0
C5616 C 0.32357 0.81542 0.61131 0.0
C5617 C 0.32292 0.82668 0.61061 0.0
C5618 C 0.3202 0.80881 0.60273 0.0
C5619 C 0.31607 0.81358 0.59319 0.0
C5620 C 0.31539 0.82494 0.59241 0.0
C5621 C 0.31881 0.83136 0.60113 0.0
C5622 C 0.32102 0.79672 0.6039 0.0
C5623 C 0.31108 0.83031 0.58236 0.0
C5624 C 0.31681 0.79633 0.56795 0.0
C5625 C 0.30616 0.79222 0.56748 0.0
C5626 C 0.32006 0.80354 0.57608 0.0
C5627 C 0.31252 0.80662 0.58404 0.0
C5628 C 0.30172 0.80262 0.58353 0.0
C5629 C 0.29867 0.79547 0.57526 0.0
C5630 C 0.33164 0.80765 0.57632 0.0
C5631 C 0.29345 0.80566 0.59189 0.0
H5632 H 0.32657 0.81173 0.61866 0.0
H5633 H 0.3184 0.84006 0.60048 0.0
H5634 H 0.3129 0.79286 0.60297 0.0
H5635 H 0.32624 0.79354 0.59742 0.0
H5636 H 0.32441 0.79429 0.61184 0.0
H5637 H 0.31101 0.83924 0.58306 0.0
H5638 H 0.3161 0.82819 0.57529 0.0
H5639 H 0.30272 0.82735 0.58071 0.0
H5640 H 0.32266 0.79375 0.56203 0.0
H5641 H 0.29047 0.79221 0.57501 0.0
H5642 H 0.33569 0.80469 0.58374 0.0
H5643 H 0.33189 0.81659 0.57658 0.0
H5644 H 0.33632 0.805 0.56919 0.0
H5645 H 0.29598 0.80267 0.59996 0.0
H5646 H 0.28527 0.80226 0.59006 0.0
H5647 H 0.29294 0.81456 0.5924 0.0
C5648 C 0.69257 0.81098 0.60605 0.0
C5649 C 0.69058 0.82187 0.60383 0.0
C5650 C 0.6976 0.80446 0.5984 0.0
C5651 C 0.7007 0.80893 0.58828 0.0
C5652 C 0.69846 0.81983 0.58588 0.0
C5653 C 0.69344 0.82618 0.5937 0.0
C5654 C 0.6999 0.79287 0.60129 0.0
C5655 C 0.70156 0.82485 0.57515 0.0
C5656 C 0.72384 0.79566 0.57368 0.0
C5657 C 0.71834 0.78922 0.5661 0.0
C5658 C 0.7182 0.8022 0.58084 0.0
C5659 C 0.70675 0.80232 0.58044 0.0
C5660 C 0.70113 0.79588 0.57279 0.0
C5661 C 0.70699 0.78931 0.56579 0.0
C5662 C 0.72448 0.80885 0.58897 0.0
C5663 C 0.68894 0.79582 0.5721 0.0
H5664 H 0.6905 0.80763 0.61391 0.0
H5665 H 0.69181 0.83456 0.5919 0.0
H5666 H 0.69645 0.78739 0.59508 0.0
H5667 H 0.70877 0.79167 0.60144 0.0
H5668 H 0.69652 0.79049 0.60929 0.0
H5669 H 0.69874 0.83327 0.57433 0.0
H5670 H 0.71048 0.82489 0.57421 0.0
H5671 H 0.69809 0.82 0.56844 0.0
H5672 H 0.73259 0.79543 0.57408 0.0
H5673 H 0.70267 0.78416 0.56013 0.0
H5674 H 0.72213 0.80635 0.59728 0.0
H5675 H 0.72251 0.8175 0.58805 0.0
H5676 H 0.73337 0.808 0.5881 0.0
H5677 H 0.68542 0.79269 0.57977 0.0
H5678 H 0.68583 0.79077 0.56535 0.0
H5679 H 0.68604 0.80416 0.57096 0.0
C5680 C 0.69274 0.82472 0.40462 0.0
C5681 C 0.69282 0.82078 0.39402 0.0
C5682 C 0.69629 0.81837 0.41331 0.0
C5683 C 0.70006 0.80786 0.41133 0.0
C5684 C 0.70024 0.80388 0.40064 0.0
C5685 C 0.69659 0.81038 0.39212 0.0
C5686 C 0.69593 0.82286 0.42461 0.0
C5687 C 0.70428 0.79275 0.3982 0.0
C5688 C 0.71819 0.7939 0.43164 0.0
C5689 C 0.71087 0.78669 0.43671 0.0
C5690 C 0.71473 0.80106 0.42357 0.0
C5691 C 0.70371 0.80093 0.42043 0.0
C5692 C 0.69626 0.79378 0.42562 0.0
C5693 C 0.69995 0.78671 0.43365 0.0
C5694 C 0.72291 0.80855 0.41821 0.0
C5695 C 0.68446 0.7934 0.42248 0.0
H5696 H 0.68974 0.83272 0.40613 0.0
H5697 H 0.69681 0.80737 0.38393 0.0
H5698 H 0.69061 0.81767 0.42977 0.0
H5699 H 0.70413 0.82282 0.42825 0.0
H5700 H 0.6929 0.83122 0.42476 0.0
H5701 H 0.70399 0.79091 0.38943 0.0
H5702 H 0.71274 0.792 0.40106 0.0
H5703 H 0.69931 0.78659 0.40259 0.0
H5704 H 0.72667 0.79378 0.43385 0.0
H5705 H 0.69431 0.78104 0.43743 0.0
H5706 H 0.72019 0.81701 0.41863 0.0
H5707 H 0.72363 0.80649 0.40953 0.0
H5708 H 0.73104 0.80807 0.42199 0.0
H5709 H 0.681 0.80156 0.42299 0.0
H5710 H 0.67961 0.7878 0.4277 0.0
H5711 H 0.68363 0.79073 0.41397 0.0
C5712 C 0.67846 0.19993 0.4032 0.0
C5713 C 0.68131 0.18975 0.39935 0.0
C5714 C 0.68423 0.20489 0.41164 0.0
C5715 C 0.69298 0.1995 0.4165 0.0
C5716 C 0.69572 0.18909 0.41289 0.0
C5717 C 0.6899 0.18437 0.40432 0.0
C5718 C 0.68106 0.21601 0.41521 0.0
C5719 C 0.70492 0.18304 0.41797 0.0
C5720 C 0.71409 0.2173 0.43031 0.0
C5721 C 0.71068 0.2169 0.44111 0.0
C5722 C 0.70855 0.21149 0.42227 0.0
C5723 C 0.69945 0.20496 0.4251 0.0
C5724 C 0.69616 0.20422 0.43604 0.0
C5725 C 0.70168 0.21034 0.44389 0.0
C5726 C 0.71219 0.21269 0.41067 0.0
C5727 C 0.68661 0.19719 0.43941 0.0
H5728 H 0.67169 0.20405 0.3996 0.0
H5729 H 0.69224 0.17655 0.40136 0.0
H5730 H 0.67901 0.2159 0.42394 0.0
H5731 H 0.68798 0.22175 0.41411 0.0
H5732 H 0.67402 0.21909 0.41063 0.0
H5733 H 0.7056 0.17476 0.41469 0.0
H5734 H 0.71266 0.18748 0.41651 0.0
H5735 H 0.70377 0.18247 0.42685 0.0
H5736 H 0.72093 0.22247 0.42812 0.0
H5737 H 0.69885 0.21009 0.45217 0.0
H5738 H 0.70569 0.21642 0.40581 0.0
H5739 H 0.71371 0.20466 0.40716 0.0
H5740 H 0.71966 0.21776 0.40986 0.0
H5741 H 0.67906 0.20049 0.43599 0.0
H5742 H 0.68575 0.19667 0.44834 0.0
H5743 H 0.68745 0.18893 0.43619 0.0
C5744 C 0.32592 0.19624 0.40493 0.0
C5745 C 0.3211 0.19437 0.39483 0.0
C5746 C 0.32016 0.2011 0.4133 0.0
C5747 C 0.30935 0.20421 0.41151 0.0
C5748 C 0.30436 0.20212 0.40142 0.0
C5749 C 0.31029 0.1972 0.39321 0.0
C5750 C 0.32572 0.2031 0.42399 0.0
C5751 C 0.29286 0.20537 0.39918 0.0
C5752 C 0.29094 0.21042 0.43519 0.0
C5753 C 0.29163 0.22173 0.43545 0.0
C5754 C 0.29685 0.20458 0.4276 0.0
C5755 C 0.30343 0.21019 0.41997 0.0
C5756 C 0.30412 0.2216 0.42019 0.0
C5757 C 0.2982 0.22722 0.4279 0.0
C5758 C 0.29592 0.19242 0.42762 0.0
C5759 C 0.31098 0.22789 0.41213 0.0
H5760 H 0.33422 0.19393 0.40626 0.0
H5761 H 0.30655 0.19589 0.38539 0.0
H5762 H 0.32644 0.21191 0.42544 0.0
H5763 H 0.32082 0.19955 0.43068 0.0
H5764 H 0.33394 0.19965 0.42429 0.0
H5765 H 0.28999 0.20269 0.39111 0.0
H5766 H 0.28734 0.20191 0.40542 0.0
H5767 H 0.29228 0.21428 0.39959 0.0
H5768 H 0.28569 0.20616 0.44086 0.0
H5769 H 0.29858 0.23596 0.42795 0.0
H5770 H 0.30407 0.18889 0.42823 0.0
H5771 H 0.29229 0.18963 0.41991 0.0
H5772 H 0.29087 0.18926 0.43441 0.0
H5773 H 0.31949 0.22525 0.41257 0.0
H5774 H 0.31082 0.23672 0.41354 0.0
H5775 H 0.30804 0.22627 0.40382 0.0
C5776 C 0.31345 0.80841 0.39642 0.0
C5777 C 0.31665 0.81914 0.3984 0.0
C5778 C 0.30977 0.80162 0.40484 0.0
C5779 C 0.30931 0.80564 0.41548 0.0
C5780 C 0.31243 0.81646 0.41754 0.0
C5781 C 0.31605 0.8231 0.40897 0.0
C5782 C 0.30642 0.79014 0.40234 0.0
C5783 C 0.31208 0.82095 0.42882 0.0
C5784 C 0.2871 0.78727 0.43766 0.0
C5785 C 0.29813 0.78114 0.44579 0.0
C5786 C 0.29169 0.79687 0.42755 0.0
C5787 C 0.30593 0.79838 0.42441 0.0
C5788 C 0.31601 0.78998 0.43059 0.0
C5789 C 0.31226 0.78018 0.44079 0.0
C5790 C 0.28366 0.80353 0.42168 0.0
C5791 C 0.32755 0.79116 0.42722 0.0
H5792 H 0.31373 0.80533 0.38825 0.0
H5793 H 0.31859 0.83135 0.41058 0.0
H5794 H 0.31164 0.78449 0.40686 0.0
H5795 H 0.29796 0.78859 0.40504 0.0
H5796 H 0.30698 0.78832 0.39359 0.0
H5797 H 0.31447 0.82963 0.42906 0.0
H5798 H 0.30379 0.81994 0.43217 0.0
H5799 H 0.31763 0.81637 0.43413 0.0
H5800 H 0.27873 0.78682 0.4402 0.0
H5801 H 0.31832 0.77577 0.4452 0.0
H5802 H 0.28397 0.80166 0.41294 0.0
H5803 H 0.28588 0.81219 0.4226 0.0
H5804 H 0.27538 0.80192 0.42484 0.0
H5805 H 0.32827 0.78911 0.41855 0.0
H5806 H 0.33273 0.78581 0.43214 0.0
H5807 H 0.33024 0.79969 0.42815 0.0
C5808 C 0.60603 0.19821 0.68272 0.0
C5809 C 0.60701 0.18714 0.68076 0.0
C5810 C 0.59677 0.20225 0.68772 0.0
C5811 C 0.58828 0.19506 0.69082 0.0
C5812 C 0.58929 0.18385 0.68904 0.0
C5813 C 0.59865 0.18003 0.68404 0.0
C5814 C 0.59602 0.21424 0.68955 0.0
C5815 C 0.58038 0.17593 0.69219 0.0
C5816 C 0.56719 0.20388 0.71114 0.0
C5817 C 0.55863 0.20681 0.70434 0.0
C5818 C 0.57697 0.20023 0.70686 0.0
C5819 C 0.57813 0.19929 0.69552 0.0
C5820 C 0.56951 0.20219 0.68863 0.0
C5821 C 0.55987 0.2059 0.69313 0.0
C5822 C 0.58599 0.19723 0.71446 0.0
C5823 C 0.57038 0.2012 0.67651 0.0
H5824 H 0.61252 0.20374 0.68036 0.0
H5825 H 0.5993 0.17149 0.68245 0.0
H5826 H 0.5891 0.21747 0.68492 0.0
H5827 H 0.59449 0.21585 0.69822 0.0
H5828 H 0.6035 0.21871 0.68704 0.0
H5829 H 0.5826 0.16744 0.69063 0.0
H5830 H 0.57843 0.17674 0.70088 0.0
H5831 H 0.57293 0.17771 0.68757 0.0
H5832 H 0.56618 0.20432 0.71982 0.0
H5833 H 0.55319 0.20793 0.68786 0.0
H5834 H 0.5935 0.20181 0.71233 0.0
H5835 H 0.58775 0.18854 0.71364 0.0
H5836 H 0.58397 0.19886 0.72303 0.0
H5837 H 0.57743 0.20602 0.67351 0.0
H5838 H 0.563 0.20396 0.67228 0.0
H5839 H 0.57175 0.19267 0.67433 0.0
C5840 C 0.31422 0.10707 0.68368 0.0
C5841 C 0.32369 0.11072 0.6889 0.0
C5842 C 0.30786 0.0986 0.68803 0.0
C5843 C 0.31109 0.09354 0.69776 0.0
C5844 C 0.32076 0.09699 0.70294 0.0
C5845 C 0.32689 0.10558 0.69849 0.0
C5846 C 0.29757 0.09519 0.68229 0.0
C5847 C 0.32453 0.09171 0.71327 0.0
C5848 C 0.28929 0.07922 0.71441 0.0
C5849 C 0.29047 0.06845 0.71132 0.0
C5850 C 0.29602 0.08744 0.71015 0.0
C5851 C 0.30419 0.08483 0.70266 0.0
C5852 C 0.30552 0.07396 0.69959 0.0
C5853 C 0.29854 0.06592 0.70383 0.0
C5854 C 0.29422 0.09896 0.71347 0.0
C5855 C 0.31421 0.07085 0.6917 0.0
H5856 H 0.31178 0.11083 0.67617 0.0
H5857 H 0.3341 0.10841 0.70268 0.0
H5858 H 0.29784 0.08652 0.6802 0.0
H5859 H 0.29053 0.09622 0.68772 0.0
H5860 H 0.29622 0.09992 0.67477 0.0
H5861 H 0.33251 0.09496 0.71599 0.0
H5862 H 0.31852 0.09297 0.71977 0.0
H5863 H 0.32515 0.08287 0.71213 0.0
H5864 H 0.28291 0.08123 0.72001 0.0
H5865 H 0.29934 0.05766 0.7012 0.0
H5866 H 0.29211 0.10388 0.70627 0.0
H5867 H 0.30176 0.10251 0.71692 0.0
H5868 H 0.28764 0.09962 0.71953 0.0
H5869 H 0.31267 0.07462 0.68371 0.0
H5870 H 0.3146 0.06197 0.69065 0.0
H5871 H 0.32223 0.07389 0.69451 0.0
C5872 C 0.39817 0.80865 0.69209 0.0
C5873 C 0.40013 0.81771 0.68549 0.0
C5874 C 0.40639 0.80433 0.69852 0.0
C5875 C 0.41688 0.80914 0.69826 0.0
C5876 C 0.41895 0.81823 0.69153 0.0
C5877 C 0.41053 0.82245 0.68527 0.0
C5878 C 0.40382 0.79472 0.7057 0.0
C5879 C 0.43006 0.8235 0.69094 0.0
C5880 C 0.43496 0.8043 0.72255 0.0
C5881 C 0.44134 0.7958 0.71901 0.0
C5882 C 0.42709 0.80882 0.71583 0.0
C5883 C 0.42559 0.80478 0.70525 0.0
C5884 C 0.43209 0.79629 0.70156 0.0
C5885 C 0.43978 0.79179 0.70853 0.0
C5886 C 0.4202 0.81773 0.72014 0.0
C5887 C 0.43078 0.79184 0.6903 0.0
H5888 H 0.39011 0.80503 0.69238 0.0
H5889 H 0.4121 0.82939 0.68009 0.0
H5890 H 0.40917 0.78795 0.70367 0.0
H5891 H 0.40538 0.79682 0.71426 0.0
H5892 H 0.39527 0.79189 0.70491 0.0
H5893 H 0.43041 0.83033 0.68509 0.0
H5894 H 0.43246 0.82654 0.69902 0.0
H5895 H 0.43611 0.81747 0.68855 0.0
H5896 H 0.436 0.80727 0.73071 0.0
H5897 H 0.44449 0.78506 0.7058 0.0
H5898 H 0.41157 0.81507 0.72022 0.0
H5899 H 0.42085 0.82494 0.71479 0.0
H5900 H 0.42256 0.82013 0.72846 0.0
H5901 H 0.42263 0.78805 0.68941 0.0
H5902 H 0.43693 0.78572 0.68842 0.0
H5903 H 0.43144 0.79846 0.68425 0.0
C5904 C 0.69533 0.89906 0.68045 0.0
C5905 C 0.68522 0.89626 0.68494 0.0
C5906 C 0.70189 0.90722 0.68499 0.0
C5907 C 0.6982 0.91283 0.69415 0.0
C5908 C 0.6879 0.91025 0.69856 0.0
C5909 C 0.68158 0.90195 0.69395 0.0
C5910 C 0.71287 0.90969 0.6801 0.0
C5911 C 0.68364 0.91614 0.70825 0.0
C5912 C 0.7193 0.92603 0.71234 0.0
C5913 C 0.71921 0.93678 0.70877 0.0
C5914 C 0.71246 0.91817 0.7077 0.0
C5915 C 0.70528 0.92115 0.69932 0.0
C5916 C 0.70508 0.93201 0.69573 0.0
C5917 C 0.71216 0.93967 0.70038 0.0
C5918 C 0.71306 0.90664 0.71161 0.0
C5919 C 0.69745 0.93552 0.68691 0.0
H5920 H 0.69815 0.89487 0.67337 0.0
H5921 H 0.67386 0.89977 0.69759 0.0
H5922 H 0.71347 0.9183 0.67766 0.0
H5923 H 0.71928 0.90829 0.68619 0.0
H5924 H 0.7145 0.90465 0.67292 0.0
H5925 H 0.67522 0.9136 0.71032 0.0
H5926 H 0.68888 0.91462 0.71535 0.0
H5927 H 0.68385 0.92497 0.7067 0.0
H5928 H 0.72489 0.92374 0.71867 0.0
H5929 H 0.71221 0.9479 0.69739 0.0
H5930 H 0.71537 0.90136 0.70483 0.0
H5931 H 0.70502 0.90377 0.71452 0.0
H5932 H 0.71903 0.90567 0.71825 0.0
H5933 H 0.69938 0.93135 0.67928 0.0
H5934 H 0.69789 0.94436 0.68543 0.0
H5935 H 0.689 0.93321 0.68907 0.0
C5936 C 0.60793 0.80791 0.31725 0.0
C5937 C 0.61051 0.81857 0.32017 0.0
C5938 C 0.59812 0.80534 0.31204 0.0
C5939 C 0.59073 0.81361 0.30974 0.0
C5940 C 0.59336 0.8244 0.31251 0.0
C5941 C 0.60322 0.82675 0.3177 0.0
C5942 C 0.59561 0.79375 0.30914 0.0
C5943 C 0.58567 0.83344 0.31022 0.0
C5944 C 0.5685 0.80924 0.28889 0.0
C5945 C 0.55954 0.80677 0.29548 0.0
C5946 C 0.57877 0.81125 0.2934 0.0
C5947 C 0.58005 0.81095 0.30477 0.0
C5948 C 0.57104 0.80844 0.31145 0.0
C5949 C 0.56089 0.80642 0.30672 0.0
C5950 C 0.58818 0.8139 0.28602 0.0
C5951 C 0.57207 0.80812 0.32361 0.0
H5952 H 0.61359 0.80158 0.31901 0.0
H5953 H 0.6051 0.83498 0.32006 0.0
H5954 H 0.58827 0.79086 0.31352 0.0
H5955 H 0.59387 0.79311 0.30038 0.0
H5956 H 0.60238 0.78832 0.31117 0.0
H5957 H 0.5891 0.84145 0.31255 0.0
H5958 H 0.5836 0.83367 0.3015 0.0
H5959 H 0.57801 0.83201 0.31473 0.0
H5960 H 0.56744 0.80974 0.28021 0.0
H5961 H 0.55394 0.80471 0.31184 0.0
H5962 H 0.59493 0.80836 0.28767 0.0
H5963 H 0.59124 0.82222 0.28761 0.0
H5964 H 0.58595 0.81331 0.27735 0.0
H5965 H 0.57837 0.80234 0.32604 0.0
H5966 H 0.56434 0.80574 0.32763 0.0
H5967 H 0.57467 0.81618 0.3266 0.0
C5968 C 0.69941 0.10326 0.32593 0.0
C5969 C 0.68829 0.10467 0.32754 0.0
C5970 C 0.70326 0.09415 0.3206 0.0
C5971 C 0.69581 0.08624 0.31677 0.0
C5972 C 0.68456 0.08771 0.31819 0.0
C5973 C 0.68094 0.0969 0.32355 0.0
C5974 C 0.7153 0.09291 0.3192 0.0
C5975 C 0.67637 0.07943 0.31425 0.0
C5976 C 0.70474 0.06614 0.29564 0.0
C5977 C 0.70699 0.05707 0.30204 0.0
C5978 C 0.70126 0.07576 0.30033 0.0
C5979 C 0.69979 0.07624 0.31166 0.0
C5980 C 0.70198 0.06709 0.31815 0.0
C5981 C 0.70554 0.05763 0.31326 0.0
C5982 C 0.69903 0.08535 0.29315 0.0
C5983 C 0.70041 0.06724 0.33025 0.0
H5984 H 0.70514 0.10931 0.32884 0.0
H5985 H 0.67235 0.09788 0.32485 0.0
H5986 H 0.71797 0.08557 0.32353 0.0
H5987 H 0.71726 0.09187 0.31053 0.0
H5988 H 0.72 0.09996 0.32231 0.0
H5989 H 0.66791 0.08197 0.3156 0.0
H5990 H 0.67751 0.07798 0.3055 0.0
H5991 H 0.67758 0.07164 0.3185 0.0
H5992 H 0.70559 0.06568 0.28694 0.0
H5993 H 0.70703 0.05056 0.3182 0.0
H5994 H 0.70387 0.09247 0.29586 0.0
H5995 H 0.69038 0.08748 0.29376 0.0
H5996 H 0.70095 0.0838 0.28454 0.0
H5997 H 0.70541 0.07382 0.33385 0.0
H5998 H 0.70261 0.05949 0.33415 0.0
H5999 H 0.69184 0.06888 0.33216 0.0
C6000 C 0.39182 0.19688 0.31116 0.0
C6001 C 0.39361 0.18626 0.31461 0.0
C6002 C 0.4004 0.20357 0.30758 0.0
C6003 C 0.41102 0.19957 0.30748 0.0
C6004 C 0.41289 0.18884 0.31078 0.0
C6005 C 0.40415 0.18228 0.31428 0.0
C6006 C 0.39811 0.21496 0.30398 0.0
C6007 C 0.42414 0.18437 0.3108 0.0
C6008 C 0.4343 0.21749 0.28605 0.0
C6009 C 0.44209 0.22383 0.29733 0.0
C6010 C 0.42386 0.20801 0.29029 0.0
C6011 C 0.42013 0.2068 0.30438 0.0
C6012 C 0.42604 0.21541 0.31462 0.0
C6013 C 0.43654 0.22512 0.31121 0.0
C6014 C 0.41822 0.20117 0.28211 0.0
C6015 C 0.42219 0.21448 0.326 0.0
H6016 H 0.38367 0.19995 0.31123 0.0
H6017 H 0.4056 0.17411 0.31701 0.0
H6018 H 0.40245 0.22076 0.30931 0.0
H6019 H 0.40117 0.21632 0.29565 0.0
H6020 H 0.38934 0.21672 0.30417 0.0
H6021 H 0.42421 0.17572 0.31321 0.0
H6022 H 0.42777 0.18526 0.30263 0.0
H6023 H 0.42932 0.18904 0.31649 0.0
H6024 H 0.43719 0.21776 0.2778 0.0
H6025 H 0.44077 0.22965 0.3174 0.0
H6026 H 0.40948 0.203 0.28208 0.0
H6027 H 0.41899 0.19255 0.2844 0.0
H6028 H 0.42169 0.20265 0.27395 0.0
H6029 H 0.41351 0.21653 0.32636 0.0
H6030 H 0.42697 0.21995 0.33132 0.0
H6031 H 0.42292 0.206 0.3288 0.0
C6032 C 0.324 0.89832 0.30498 0.0
C6033 C 0.32457 0.89692 0.31622 0.0
C6034 C 0.31896 0.90729 0.30039 0.0
C6035 C 0.31434 0.91508 0.3072 0.0
C6036 C 0.3146 0.91358 0.31855 0.0
C6037 C 0.31971 0.9045 0.32293 0.0
C6038 C 0.3188 0.90854 0.28824 0.0
C6039 C 0.30976 0.92171 0.32606 0.0
C6040 C 0.31251 0.94268 0.29399 0.0
C6041 C 0.30178 0.94262 0.2903 0.0
C6042 C 0.31652 0.93402 0.30004 0.0
C6043 C 0.30969 0.92499 0.30233 0.0
C6044 C 0.29872 0.92506 0.29901 0.0
C6045 C 0.2949 0.93388 0.29303 0.0
C6046 C 0.32824 0.93431 0.3035 0.0
C6047 C 0.29118 0.91558 0.30125 0.0
H6048 H 0.32755 0.89239 0.29973 0.0
H6049 H 0.32017 0.90349 0.33163 0.0
H6050 H 0.31036 0.90945 0.28536 0.0
H6051 H 0.32339 0.91596 0.28584 0.0
H6052 H 0.32238 0.90156 0.28408 0.0
H6053 H 0.31001 0.91902 0.33464 0.0
H6054 H 0.31426 0.92951 0.32531 0.0
H6055 H 0.30124 0.92319 0.32379 0.0
H6056 H 0.31789 0.94937 0.29184 0.0
H6057 H 0.28662 0.93377 0.29013 0.0
H6058 H 0.33276 0.92818 0.29894 0.0
H6059 H 0.32894 0.93226 0.31221 0.0
H6060 H 0.33216 0.94233 0.30206 0.0
H6061 H 0.29374 0.90855 0.29645 0.0
H6062 H 0.28266 0.91735 0.29916 0.0
H6063 H 0.29158 0.9132 0.3099 0.0
C6064 C 0.68004 0.10567 0.70766 0.0
C6065 C 0.67941 0.10678 0.69638 0.0
C6066 C 0.68604 0.09744 0.71247 0.0
C6067 C 0.69145 0.09002 0.70586 0.0
C6068 C 0.69064 0.09089 0.69447 0.0
C6069 C 0.68468 0.09929 0.68987 0.0
C6070 C 0.68674 0.09682 0.72464 0.0
C6071 C 0.69621 0.08306 0.68716 0.0
C6072 C 0.71564 0.07607 0.71816 0.0
C6073 C 0.71108 0.06617 0.72157 0.0
C6074 C 0.70938 0.08383 0.71292 0.0
C6075 C 0.69829 0.0816 0.71089 0.0
C6076 C 0.69366 0.07154 0.71411 0.0
C6077 C 0.70006 0.06401 0.71957 0.0
C6078 C 0.71457 0.09455 0.70982 0.0
C6079 C 0.68191 0.0688 0.71193 0.0
H6080 H 0.67582 0.11127 0.71277 0.0
H6081 H 0.68435 0.10013 0.68116 0.0
H6082 H 0.68378 0.0888 0.72754 0.0
H6083 H 0.6953 0.09774 0.72723 0.0
H6084 H 0.68195 0.10314 0.72864 0.0
H6085 H 0.69425 0.08444 0.67851 0.0
H6086 H 0.70511 0.08384 0.6882 0.0
H6087 H 0.69384 0.07465 0.68937 0.0
H6088 H 0.7241 0.07782 0.71983 0.0
H6089 H 0.69639 0.05648 0.72232 0.0
H6090 H 0.7105 0.10115 0.71413 0.0
H6091 H 0.71356 0.09606 0.70104 0.0
H6092 H 0.72334 0.09493 0.71178 0.0
H6093 H 0.67668 0.0743 0.71653 0.0
H6094 H 0.67974 0.06036 0.71424 0.0
H6095 H 0.68006 0.06998 0.70324 0.0
C6096 C 0.68911 0.90224 0.30861 0.0
C6097 C 0.68595 0.89964 0.31922 0.0
C6098 C 0.69477 0.9119 0.30627 0.0
C6099 C 0.6973 0.91915 0.31473 0.0
C6100 C 0.6942 0.91654 0.32546 0.0
C6101 C 0.68856 0.90682 0.32757 0.0
C6102 C 0.69799 0.91439 0.29474 0.0
C6103 C 0.6967 0.92409 0.33469 0.0
C6104 C 0.7196 0.94043 0.31134 0.0
C6105 C 0.71364 0.94969 0.30909 0.0
C6106 C 0.71441 0.93037 0.31291 0.0
C6107 C 0.70298 0.92958 0.31237 0.0
C6108 C 0.69693 0.93888 0.31001 0.0
C6109 C 0.70233 0.94882 0.30844 0.0
C6110 C 0.72113 0.92063 0.31541 0.0
C6111 C 0.68472 0.93837 0.30942 0.0
H6112 H 0.68722 0.89665 0.30215 0.0
H6113 H 0.68602 0.90493 0.33576 0.0
H6114 H 0.69418 0.92195 0.292 0.0
H6115 H 0.70689 0.9157 0.29421 0.0
H6116 H 0.69559 0.90781 0.28912 0.0
H6117 H 0.69391 0.92077 0.34259 0.0
H6118 H 0.70554 0.92575 0.33515 0.0
H6119 H 0.69274 0.93193 0.33327 0.0
H6120 H 0.72833 0.94111 0.31205 0.0
H6121 H 0.69769 0.95599 0.30688 0.0
H6122 H 0.71916 0.91404 0.30969 0.0
H6123 H 0.71921 0.91758 0.32365 0.0
H6124 H 0.72995 0.92248 0.31496 0.0
H6125 H 0.68205 0.93221 0.30348 0.0
H6126 H 0.68125 0.94624 0.30707 0.0
H6127 H 0.68135 0.93591 0.31739 0.0
C6128 C 0.59698 0.1745 0.31827 0.0
C6129 C 0.60671 0.17924 0.32194 0.0
C6130 C 0.58835 0.18087 0.31481 0.0
C6131 C 0.58946 0.19226 0.31502 0.0
C6132 C 0.59924 0.19709 0.31873 0.0
C6133 C 0.60773 0.19053 0.32214 0.0
C6134 C 0.57802 0.17543 0.31096 0.0
C6135 C 0.60077 0.2092 0.31905 0.0
C6136 C 0.57169 0.2097 0.29727 0.0
C6137 C 0.56416 0.21349 0.30475 0.0
C6138 C 0.57981 0.20258 0.30044 0.0
C6139 C 0.58043 0.19917 0.31137 0.0
C6140 C 0.57272 0.20278 0.31891 0.0
C6141 C 0.56473 0.20995 0.31552 0.0
C6142 C 0.58791 0.19895 0.29217 0.0
C6143 C 0.57308 0.1993 0.33062 0.0
H6144 H 0.59607 0.16579 0.31821 0.0
H6145 H 0.61527 0.19426 0.32481 0.0
H6146 H 0.57113 0.17797 0.31601 0.0
H6147 H 0.57628 0.17794 0.30253 0.0
H6148 H 0.57845 0.16649 0.31128 0.0
H6149 H 0.60885 0.21168 0.3222 0.0
H6150 H 0.59979 0.21264 0.31082 0.0
H6151 H 0.59448 0.21276 0.32424 0.0
H6152 H 0.57136 0.21253 0.28897 0.0
H6153 H 0.55901 0.21295 0.32136 0.0
H6154 H 0.58815 0.19002 0.29203 0.0
H6155 H 0.59612 0.20194 0.29441 0.0
H6156 H 0.586 0.20193 0.28391 0.0
H6157 H 0.57311 0.19037 0.33124 0.0
H6158 H 0.56612 0.20231 0.3353 0.0
H6159 H 0.58067 0.20238 0.33439 0.0
C6160 C 0.31106 0.10734 0.31725 0.0
C6161 C 0.3112 0.10875 0.32849 0.0
C6162 C 0.30704 0.09772 0.31267 0.0
C6163 C 0.30312 0.08931 0.31949 0.0
C6164 C 0.30326 0.09068 0.33084 0.0
C6165 C 0.30729 0.10037 0.33519 0.0
C6166 C 0.30696 0.09657 0.30054 0.0
C6167 C 0.29923 0.08186 0.3384 0.0
C6168 C 0.28393 0.06735 0.30917 0.0
C6169 C 0.29098 0.05877 0.30762 0.0
C6170 C 0.28783 0.07747 0.31262 0.0
C6171 C 0.299 0.07897 0.31484 0.0
C6172 C 0.30616 0.07037 0.31323 0.0
C6173 C 0.30206 0.06039 0.30963 0.0
C6174 C 0.27996 0.08647 0.31419 0.0
C6175 C 0.31809 0.07159 0.31565 0.0
H6176 H 0.31395 0.11383 0.31202 0.0
H6177 H 0.30752 0.10133 0.34388 0.0
H6178 H 0.31186 0.08958 0.29816 0.0
H6179 H 0.29858 0.09497 0.29767 0.0
H6180 H 0.31023 0.1039 0.29635 0.0
H6181 H 0.29984 0.08423 0.34702 0.0
H6182 H 0.29065 0.07978 0.33657 0.0
H6183 H 0.30397 0.07446 0.3372 0.0
H6184 H 0.27533 0.0661 0.30787 0.0
H6185 H 0.30749 0.05371 0.30866 0.0
H6186 H 0.2828 0.09384 0.30982 0.0
H6187 H 0.27949 0.08852 0.32289 0.0
H6188 H 0.2717 0.08427 0.3113 0.0
H6189 H 0.3216 0.07861 0.31118 0.0
H6190 H 0.32265 0.06428 0.31347 0.0
H6191 H 0.31928 0.07315 0.32439 0.0
C6192 C 0.40772 0.82215 0.32545 0.0
C6193 C 0.39741 0.81787 0.32309 0.0
C6194 C 0.41678 0.8194 0.31928 0.0
C6195 C 0.41551 0.8121 0.31061 0.0
C6196 C 0.40514 0.80762 0.30828 0.0
C6197 C 0.39621 0.81061 0.31451 0.0
C6198 C 0.42767 0.82445 0.32194 0.0
C6199 C 0.40349 0.79971 0.29919 0.0
C6200 C 0.4367 0.81333 0.28838 0.0
C6201 C 0.4435 0.80488 0.29131 0.0
C6202 C 0.42749 0.81567 0.2945 0.0
C6203 C 0.42499 0.80938 0.30379 0.0
C6204 C 0.43175 0.80075 0.30675 0.0
C6205 C 0.441 0.79869 0.30056 0.0
C6206 C 0.4206 0.82504 0.29116 0.0
C6207 C 0.42932 0.79382 0.31656 0.0
H6208 H 0.40867 0.82785 0.33201 0.0
H6209 H 0.38827 0.80718 0.31274 0.0
H6210 H 0.43361 0.81808 0.32366 0.0
H6211 H 0.43074 0.82917 0.31489 0.0
H6212 H 0.42731 0.82988 0.32903 0.0
H6213 H 0.39498 0.7967 0.29864 0.0
H6214 H 0.40575 0.80358 0.29138 0.0
H6215 H 0.40884 0.79271 0.30034 0.0
H6216 H 0.43874 0.81828 0.28139 0.0
H6217 H 0.44636 0.79232 0.30304 0.0
H6218 H 0.4206 0.83115 0.29767 0.0
H6219 H 0.4121 0.82227 0.28997 0.0
H6220 H 0.42352 0.82898 0.28359 0.0
H6221 H 0.42986 0.7988 0.32396 0.0
H6222 H 0.43499 0.78703 0.31739 0.0
H6223 H 0.42093 0.79048 0.31611 0.0
C6224 C 0.32125 0.89675 0.70445 0.0
C6225 C 0.32765 0.89866 0.69525 0.0
C6226 C 0.31476 0.90485 0.7087 0.0
C6227 C 0.31472 0.91514 0.70368 0.0
C6228 C 0.32128 0.91717 0.69448 0.0
C6229 C 0.32762 0.90888 0.69033 0.0
C6230 C 0.30779 0.90231 0.71845 0.0
C6231 C 0.32155 0.92809 0.68898 0.0
C6232 C 0.28995 0.93215 0.70813 0.0
C6233 C 0.29338 0.93901 0.71648 0.0
C6234 C 0.29686 0.92446 0.7038 0.0
C6235 C 0.30752 0.92364 0.70786 0.0
C6236 C 0.31111 0.93062 0.71619 0.0
C6237 C 0.30395 0.93812 0.72052 0.0
C6238 C 0.29265 0.91704 0.69507 0.0
C6239 C 0.32245 0.93005 0.72066 0.0
H6240 H 0.32115 0.88883 0.70821 0.0
H6241 H 0.33264 0.91043 0.68329 0.0
H6242 H 0.30973 0.90803 0.72505 0.0
H6243 H 0.29914 0.90332 0.71635 0.0
H6244 H 0.30889 0.89396 0.72151 0.0
H6245 H 0.32738 0.92848 0.68215 0.0
H6246 H 0.31339 0.92998 0.68586 0.0
H6247 H 0.32381 0.93443 0.69489 0.0
H6248 H 0.28173 0.93268 0.70514 0.0
H6249 H 0.30661 0.94321 0.72712 0.0
H6250 H 0.29287 0.90855 0.69793 0.0
H6251 H 0.29791 0.9177 0.68782 0.0
H6252 H 0.28423 0.91887 0.69265 0.0
H6253 H 0.32361 0.92211 0.72464 0.0
H6254 H 0.32421 0.9365 0.72663 0.0
H6255 H 0.32844 0.93075 0.714 0.0
C6256 C 0.60271 0.80819 0.677 0.0
C6257 C 0.61008 0.81618 0.68055 0.0
C6258 C 0.59459 0.80402 0.68387 0.0
C6259 C 0.59392 0.80778 0.69461 0.0
C6260 C 0.60117 0.81598 0.69819 0.0
C6261 C 0.60908 0.82015 0.69109 0.0
C6262 C 0.58688 0.7954 0.67972 0.0
C6263 C 0.60077 0.82016 0.70961 0.0
C6264 C 0.56864 0.80313 0.71163 0.0
C6265 C 0.57143 0.79401 0.71776 0.0
C6266 C 0.57573 0.80747 0.70378 0.0
C6267 C 0.58598 0.80282 0.70229 0.0
C6268 C 0.58885 0.79366 0.70847 0.0
C6269 C 0.5815 0.78933 0.71605 0.0
C6270 C 0.57231 0.81712 0.69721 0.0
C6271 C 0.59979 0.78861 0.70728 0.0
H6272 H 0.60346 0.80497 0.66893 0.0
H6273 H 0.61455 0.8265 0.69385 0.0
H6274 H 0.58821 0.78772 0.68413 0.0
H6275 H 0.57839 0.79771 0.68121 0.0
H6276 H 0.58792 0.79396 0.67093 0.0
H6277 H 0.60689 0.82668 0.71108 0.0
H6278 H 0.59264 0.82331 0.71138 0.0
H6279 H 0.60223 0.81347 0.71541 0.0
H6280 H 0.56095 0.80693 0.71297 0.0
H6281 H 0.58373 0.78238 0.72086 0.0
H6282 H 0.57325 0.81549 0.68846 0.0
H6283 H 0.57759 0.82419 0.69913 0.0
H6284 H 0.56378 0.81928 0.69878 0.0
H6285 H 0.60107 0.78615 0.69879 0.0
H6286 H 0.60071 0.78144 0.7126 0.0
H6287 H 0.60625 0.79461 0.7093 0.0
C6288 C 0.39947 0.19476 0.68672 0.0
C6289 C 0.39941 0.1924 0.67566 0.0
C6290 C 0.40895 0.19846 0.69187 0.0
C6291 C 0.41861 0.19975 0.68581 0.0
C6292 C 0.4186 0.19737 0.67465 0.0
C6293 C 0.40899 0.19374 0.6697 0.0
C6294 C 0.40863 0.20101 0.70377 0.0
C6295 C 0.42876 0.19855 0.66794 0.0
C6296 C 0.44159 0.2178 0.69596 0.0
C6297 C 0.44858 0.21024 0.70054 0.0
C6298 C 0.43167 0.21453 0.69141 0.0
C6299 C 0.42879 0.20342 0.69117 0.0
C6300 C 0.43583 0.19576 0.69573 0.0
C6301 C 0.44563 0.19926 0.70035 0.0
C6302 C 0.42434 0.22294 0.68667 0.0
C6303 C 0.43312 0.18383 0.6955 0.0
H6304 H 0.39204 0.19386 0.69133 0.0
H6305 H 0.40902 0.1918 0.66117 0.0
H6306 H 0.4144 0.19587 0.70822 0.0
H6307 H 0.41121 0.20952 0.70509 0.0
H6308 H 0.40044 0.19971 0.70729 0.0
H6309 H 0.42737 0.19643 0.65934 0.0
H6310 H 0.43193 0.20698 0.6683 0.0
H6311 H 0.43512 0.19328 0.67126 0.0
H6312 H 0.44395 0.22627 0.69584 0.0
H6313 H 0.45112 0.19339 0.70367 0.0
H6314 H 0.41615 0.22214 0.69027 0.0
H6315 H 0.42346 0.22168 0.67785 0.0
H6316 H 0.42748 0.23128 0.68803 0.0
H6317 H 0.42519 0.1822 0.69944 0.0
H6318 H 0.43934 0.17894 0.69962 0.0
H6319 H 0.4324 0.1811 0.687 0.0
C6320 C 0.70113 0.68543 0.11148 0.0
C6321 C 0.69076 0.6808 0.11024 0.0
C6322 C 0.70572 0.6921 0.10342 0.0
C6323 C 0.69982 0.69414 0.09383 0.0
C6324 C 0.68941 0.68937 0.09245 0.0
C6325 C 0.68497 0.6828 0.1007 0.0
C6326 C 0.71678 0.69714 0.10527 0.0
C6327 C 0.68294 0.69124 0.08229 0.0
C6328 C 0.70699 0.71982 0.07828 0.0
C6329 C 0.71393 0.71605 0.07024 0.0
C6330 C 0.70227 0.71277 0.08593 0.0
C6331 C 0.70442 0.70161 0.08546 0.0
C6332 C 0.71126 0.6977 0.07727 0.0
C6333 C 0.71608 0.70498 0.06986 0.0
C6334 C 0.69521 0.7173 0.09467 0.0
C6335 C 0.71362 0.68584 0.07642 0.0
H6336 H 0.70559 0.68402 0.11888 0.0
H6337 H 0.677 0.67915 0.09966 0.0
H6338 H 0.72234 0.69493 0.09865 0.0
H6339 H 0.71623 0.70606 0.10519 0.0
H6340 H 0.72039 0.69458 0.11308 0.0
H6341 H 0.67516 0.6866 0.08228 0.0
H6342 H 0.68117 0.69994 0.08143 0.0
H6343 H 0.68771 0.68893 0.07511 0.0
H6344 H 0.70543 0.72838 0.0787 0.0
H6345 H 0.72157 0.70198 0.06381 0.0
H6346 H 0.69876 0.71558 0.10272 0.0
H6347 H 0.68707 0.71336 0.09447 0.0
H6348 H 0.69425 0.72616 0.09383 0.0
H6349 H 0.71806 0.68313 0.08371 0.0
H6350 H 0.71853 0.684 0.06917 0.0
H6351 H 0.70594 0.68106 0.07606 0.0
C6352 C 0.30969 0.68541 0.10023 0.0
C6353 C 0.31966 0.68715 0.10544 0.0
C6354 C 0.30622 0.69235 0.09197 0.0
C6355 C 0.31281 0.70134 0.08892 0.0
C6356 C 0.3229 0.70312 0.09409 0.0
C6357 C 0.32624 0.69597 0.10221 0.0
C6358 C 0.29546 0.69014 0.08656 0.0
C6359 C 0.33014 0.71265 0.09112 0.0
C6360 C 0.30918 0.71515 0.06171 0.0
C6361 C 0.30298 0.72408 0.06448 0.0
C6362 C 0.31215 0.7075 0.06952 0.0
C6363 C 0.30913 0.70898 0.08043 0.0
C6364 C 0.30294 0.718 0.0833 0.0
C6365 C 0.29991 0.72542 0.07529 0.0
C6366 C 0.31866 0.69793 0.06613 0.0
C6367 C 0.29974 0.71998 0.09488 0.0
H6368 H 0.30448 0.67872 0.10274 0.0
H6369 H 0.33404 0.69728 0.10602 0.0
H6370 H 0.28996 0.69693 0.08799 0.0
H6371 H 0.29658 0.68951 0.07769 0.0
H6372 H 0.29149 0.68258 0.08957 0.0
H6373 H 0.3377 0.71294 0.09598 0.0
H6374 H 0.33234 0.7123 0.08245 0.0
H6375 H 0.32576 0.72026 0.09235 0.0
H6376 H 0.31181 0.71418 0.05343 0.0
H6377 H 0.29532 0.73242 0.07749 0.0
H6378 H 0.31461 0.69033 0.06888 0.0
H6379 H 0.32675 0.69831 0.07001 0.0
H6380 H 0.31977 0.69759 0.05724 0.0
H6381 H 0.29516 0.7129 0.09815 0.0
H6382 H 0.29472 0.72724 0.09573 0.0
H6383 H 0.30711 0.72104 0.09992 0.0
C6384 C 0.30726 0.32088 0.1084 0.0
C6385 C 0.31817 0.3231 0.11079 0.0
C6386 C 0.30423 0.31562 0.09881 0.0
C6387 C 0.31231 0.31252 0.09142 0.0
C6388 C 0.32335 0.31456 0.09388 0.0
C6389 C 0.32615 0.31981 0.10353 0.0
C6390 C 0.29238 0.31354 0.09652 0.0
C6391 C 0.33221 0.31142 0.08618 0.0
C6392 C 0.30575 0.29164 0.06986 0.0
C6393 C 0.30386 0.2982 0.06079 0.0
C6394 C 0.3083 0.29619 0.07994 0.0
C6395 C 0.3092 0.30754 0.08092 0.0
C6396 C 0.30735 0.31419 0.07179 0.0
C6397 C 0.30472 0.30944 0.06185 0.0
C6398 C 0.31019 0.28884 0.08951 0.0
C6399 C 0.30834 0.32633 0.07246 0.0
H6400 H 0.30106 0.32325 0.11404 0.0
H6401 H 0.33459 0.3216 0.10526 0.0
H6402 H 0.28998 0.31796 0.0891 0.0
H6403 H 0.29087 0.30482 0.09501 0.0
H6404 H 0.28712 0.31608 0.10328 0.0
H6405 H 0.34041 0.31319 0.08948 0.0
H6406 H 0.33153 0.30269 0.08436 0.0
H6407 H 0.33131 0.31586 0.07843 0.0
H6408 H 0.30536 0.28295 0.06904 0.0
H6409 H 0.3035 0.31452 0.0548 0.0
H6410 H 0.30481 0.29101 0.09628 0.0
H6411 H 0.31865 0.28987 0.09239 0.0
H6412 H 0.30873 0.28021 0.08752 0.0
H6413 H 0.30277 0.32936 0.07872 0.0
H6414 H 0.30646 0.33035 0.06465 0.0
H6415 H 0.31668 0.32872 0.0749 0.0
C6416 C 0.68276 0.32645 0.09914 0.0
C6417 C 0.68768 0.327 0.10934 0.0
C6418 C 0.68715 0.32018 0.09088 0.0
C6419 C 0.6966 0.31423 0.09293 0.0
C6420 C 0.70162 0.3148 0.1032 0.0
C6421 C 0.69712 0.32121 0.11126 0.0
C6422 C 0.68166 0.31988 0.07999 0.0
C6423 C 0.71163 0.30847 0.10574 0.0
C6424 C 0.70199 0.28953 0.076 0.0
C6425 C 0.71018 0.29332 0.06903 0.0
C6426 C 0.69742 0.29628 0.08372 0.0
C6427 C 0.70108 0.30714 0.08446 0.0
C6428 C 0.70928 0.31108 0.07739 0.0
C6429 C 0.71385 0.30408 0.06987 0.0
C6430 C 0.68885 0.29172 0.09125 0.0
C6431 C 0.71331 0.32264 0.07788 0.0
H6432 H 0.67552 0.331 0.0976 0.0
H6433 H 0.70088 0.32152 0.11917 0.0
H6434 H 0.68749 0.32235 0.07357 0.0
H6435 H 0.67887 0.31153 0.07818 0.0
H6436 H 0.67459 0.32526 0.07958 0.0
H6437 H 0.71463 0.30992 0.11408 0.0
H6438 H 0.70987 0.29972 0.10481 0.0
H6439 H 0.71818 0.31067 0.09997 0.0
H6440 H 0.69929 0.28117 0.07551 0.0
H6441 H 0.72034 0.30702 0.06469 0.0
H6442 H 0.68138 0.29649 0.09059 0.0
H6443 H 0.69169 0.29231 0.09974 0.0
H6444 H 0.68679 0.28314 0.08951 0.0
H6445 H 0.70643 0.3282 0.07715 0.0
H6446 H 0.71926 0.32461 0.07139 0.0
H6447 H 0.71721 0.32418 0.0858 0.0
C6448 C 0.68541 0.31731 0.89948 0.0
C6449 C 0.68532 0.32852 0.90088 0.0
C6450 C 0.68898 0.31044 0.90773 0.0
C6451 C 0.69253 0.31488 0.91765 0.0
C6452 C 0.69246 0.32618 0.91914 0.0
C6453 C 0.68887 0.33288 0.91072 0.0
C6454 C 0.68901 0.29842 0.9058 0.0
C6455 C 0.69613 0.3312 0.92963 0.0
C6456 C 0.69242 0.29571 0.94172 0.0
C6457 C 0.70331 0.29279 0.94225 0.0
C6458 C 0.68886 0.30314 0.93395 0.0
C6459 C 0.69634 0.30763 0.92643 0.0
C6460 C 0.70737 0.30481 0.92699 0.0
C6461 C 0.71072 0.29742 0.93489 0.0
C6462 C 0.67704 0.30597 0.93363 0.0
C6463 C 0.71557 0.30938 0.91907 0.0
H6464 H 0.68283 0.3139 0.89183 0.0
H6465 H 0.68872 0.34153 0.91189 0.0
H6466 H 0.69733 0.29538 0.90671 0.0
H6467 H 0.68388 0.29419 0.91191 0.0
H6468 H 0.68597 0.29626 0.89763 0.0
H6469 H 0.69557 0.34013 0.92951 0.0
H6470 H 0.69114 0.32795 0.9364 0.0
H6471 H 0.70464 0.32905 0.93133 0.0
H6472 H 0.68666 0.29208 0.94733 0.0
H6473 H 0.71912 0.29509 0.9352 0.0
H6474 H 0.67339 0.3032 0.92592 0.0
H6475 H 0.67617 0.31485 0.93395 0.0
H6476 H 0.67239 0.30225 0.94042 0.0
H6477 H 0.71342 0.3068 0.91076 0.0
H6478 H 0.72391 0.30672 0.92089 0.0
H6479 H 0.71549 0.31832 0.91916 0.0
C6480 C 0.69538 0.69207 0.89884 0.0
C6481 C 0.68463 0.68877 0.9008 0.0
C6482 C 0.70195 0.69614 0.90717 0.0
C6483 C 0.69771 0.69688 0.91775 0.0
C6484 C 0.68687 0.69357 0.9198 0.0
C6485 C 0.68044 0.68959 0.91129 0.0
C6486 C 0.71345 0.69965 0.90463 0.0
C6487 C 0.68209 0.69418 0.931 0.0
C6488 C 0.71849 0.69794 0.94035 0.0
C6489 C 0.71923 0.70903 0.94247 0.0
C6490 C 0.71127 0.69384 0.93257 0.0
C6491 C 0.70471 0.70102 0.92666 0.0
C6492 C 0.70528 0.71221 0.92888 0.0
C6493 C 0.71257 0.71608 0.93673 0.0
C6494 C 0.71089 0.68186 0.93045 0.0
C6495 C 0.69845 0.72012 0.92272 0.0
H6496 H 0.6986 0.69162 0.89072 0.0
H6497 H 0.67218 0.68696 0.91288 0.0
H6498 H 0.71473 0.70825 0.90678 0.0
H6499 H 0.71917 0.69489 0.90955 0.0
H6500 H 0.71549 0.69864 0.89596 0.0
H6501 H 0.6735 0.69137 0.93123 0.0
H6502 H 0.68681 0.68917 0.93668 0.0
H6503 H 0.68258 0.7026 0.93395 0.0
H6504 H 0.72373 0.69247 0.94465 0.0
H6505 H 0.71324 0.72467 0.93822 0.0
H6506 H 0.71373 0.6803 0.92212 0.0
H6507 H 0.70245 0.6787 0.93105 0.0
H6508 H 0.71601 0.6773 0.9362 0.0
H6509 H 0.70076 0.72013 0.91406 0.0
H6510 H 0.69941 0.72847 0.92583 0.0
H6511 H 0.68979 0.71767 0.9232 0.0
C6512 C 0.31499 0.69315 0.89465 0.0
C6513 C 0.32502 0.68865 0.89712 0.0
C6514 C 0.30926 0.69893 0.9024 0.0
C6515 C 0.31363 0.70018 0.9129 0.0
C6516 C 0.32354 0.69529 0.91558 0.0
C6517 C 0.32914 0.68962 0.90764 0.0
C6518 C 0.29876 0.70409 0.89921 0.0
C6519 C 0.32839 0.69635 0.92672 0.0
C6520 C 0.30594 0.72517 0.92837 0.0
C6521 C 0.29793 0.72112 0.93541 0.0
C6522 C 0.31113 0.71842 0.92107 0.0
C6523 C 0.30827 0.70732 0.92079 0.0
C6524 C 0.30019 0.70314 0.92786 0.0
C6525 C 0.295 0.71013 0.93499 0.0
C6526 C 0.3196 0.72322 0.91355 0.0
C6527 C 0.29697 0.69133 0.92783 0.0
H6528 H 0.31183 0.69253 0.8865 0.0
H6529 H 0.33682 0.68604 0.90962 0.0
H6530 H 0.29228 0.70183 0.90503 0.0
H6531 H 0.29976 0.713 0.89942 0.0
H6532 H 0.29608 0.70172 0.89097 0.0
H6533 H 0.33569 0.69136 0.92776 0.0
H6534 H 0.3307 0.70491 0.92822 0.0
H6535 H 0.32235 0.69392 0.93295 0.0
H6536 H 0.30805 0.7337 0.92851 0.0
H6537 H 0.28864 0.70698 0.94023 0.0
H6538 H 0.31712 0.72191 0.90503 0.0
H6539 H 0.32741 0.71914 0.91476 0.0
H6540 H 0.3209 0.73201 0.91482 0.0
H6541 H 0.2936 0.68911 0.91982 0.0
H6542 H 0.29085 0.68929 0.93412 0.0
H6543 H 0.30419 0.68633 0.9292 0.0
C6544 C 0.31736 0.33214 0.9087 0.0
C6545 C 0.31956 0.32616 0.89941 0.0
C6546 C 0.31372 0.32707 0.91823 0.0
C6547 C 0.31221 0.31572 0.91849 0.0
C6548 C 0.31442 0.30962 0.90915 0.0
C6549 C 0.31809 0.31491 0.89972 0.0
C6550 C 0.31155 0.33386 0.92805 0.0
C6551 C 0.31284 0.29752 0.9091 0.0
C6552 C 0.31252 0.30224 0.94614 0.0
C6553 C 0.30145 0.30111 0.94846 0.0
C6554 C 0.31613 0.30678 0.93634 0.0
C6555 C 0.30848 0.31026 0.92862 0.0
C6556 C 0.29728 0.30899 0.93082 0.0
C6557 C 0.29389 0.30457 0.94078 0.0
C6558 C 0.32814 0.30816 0.93438 0.0
C6559 C 0.28887 0.31254 0.92276 0.0
H6560 H 0.31862 0.34082 0.90856 0.0
H6561 H 0.31965 0.31026 0.89253 0.0
H6562 H 0.30302 0.3327 0.93065 0.0
H6563 H 0.31674 0.33125 0.93486 0.0
H6564 H 0.3131 0.34259 0.92651 0.0
H6565 H 0.31485 0.29395 0.90116 0.0
H6566 H 0.31801 0.29381 0.91538 0.0
H6567 H 0.30432 0.29536 0.91111 0.0
H6568 H 0.31838 0.29979 0.95216 0.0
H6569 H 0.28533 0.30396 0.9426 0.0
H6570 H 0.33028 0.31686 0.93357 0.0
H6571 H 0.33041 0.30424 0.92671 0.0
H6572 H 0.33303 0.30469 0.94104 0.0
H6573 H 0.28942 0.32142 0.92165 0.0
H6574 H 0.28052 0.31031 0.92537 0.0
H6575 H 0.29039 0.30885 0.91478 0.0
C6576 C 0.59723 0.68909 0.17885 0.0
C6577 C 0.60783 0.68869 0.18285 0.0
C6578 C 0.58887 0.69345 0.18503 0.0
C6579 C 0.59119 0.69757 0.19544 0.0
C6580 C 0.6019 0.69726 0.19948 0.0
C6581 C 0.61007 0.69281 0.19316 0.0
C6582 C 0.57754 0.69357 0.18047 0.0
C6583 C 0.60473 0.70164 0.21051 0.0
C6584 C 0.57245 0.71739 0.20886 0.0
C6585 C 0.5669 0.71071 0.2163 0.0
C6586 C 0.58015 0.71317 0.20179 0.0
C6587 C 0.58242 0.70203 0.20223 0.0
C6588 C 0.57672 0.69522 0.20959 0.0
C6589 C 0.56908 0.69965 0.21657 0.0
C6590 C 0.58608 0.72069 0.19408 0.0
C6591 C 0.57891 0.6833 0.21032 0.0
H6592 H 0.59543 0.68584 0.17092 0.0
H6593 H 0.61828 0.69267 0.19623 0.0
H6594 H 0.57199 0.6888 0.18578 0.0
H6595 H 0.57456 0.70195 0.18025 0.0
H6596 H 0.5771 0.6902 0.17219 0.0
H6597 H 0.61347 0.70094 0.2124 0.0
H6598 H 0.60254 0.71026 0.21098 0.0
H6599 H 0.6 0.69723 0.2168 0.0
H6600 H 0.57093 0.72597 0.20876 0.0
H6601 H 0.56495 0.69449 0.22242 0.0
H6602 H 0.58541 0.71763 0.1857 0.0
H6603 H 0.59481 0.72103 0.19617 0.0
H6604 H 0.58292 0.72901 0.19428 0.0
H6605 H 0.5781 0.67956 0.20224 0.0
H6606 H 0.57334 0.67901 0.21601 0.0
H6607 H 0.58735 0.68209 0.21308 0.0
C6608 C 0.33065 0.60804 0.19934 0.0
C6609 C 0.33032 0.60897 0.18805 0.0
C6610 C 0.32553 0.59936 0.20471 0.0
C6611 C 0.31993 0.59138 0.19865 0.0
C6612 C 0.31942 0.59233 0.18725 0.0
C6613 C 0.3246 0.60115 0.18208 0.0
C6614 C 0.3262 0.59869 0.21688 0.0
C6615 C 0.31357 0.58394 0.18053 0.0
C6616 C 0.31691 0.56461 0.21343 0.0
C6617 C 0.30642 0.56523 0.21767 0.0
C6618 C 0.32119 0.5728 0.20672 0.0
C6619 C 0.3149 0.58192 0.20433 0.0
C6620 C 0.30417 0.58242 0.20825 0.0
C6621 C 0.30003 0.57404 0.21483 0.0
C6622 C 0.33263 0.5719 0.20259 0.0
C6623 C 0.29724 0.59206 0.20595 0.0
H6624 H 0.33489 0.61416 0.20401 0.0
H6625 H 0.32437 0.6018 0.17334 0.0
H6626 H 0.31795 0.59823 0.2204 0.0
H6627 H 0.3304 0.59124 0.21934 0.0
H6628 H 0.33061 0.60572 0.22041 0.0
H6629 H 0.31358 0.58606 0.17179 0.0
H6630 H 0.31747 0.57602 0.18159 0.0
H6631 H 0.30507 0.58295 0.18328 0.0
H6632 H 0.32188 0.55783 0.2156 0.0
H6633 H 0.29193 0.57454 0.2181 0.0
H6634 H 0.33789 0.57807 0.20654 0.0
H6635 H 0.33292 0.57349 0.19376 0.0
H6636 H 0.33602 0.56382 0.20422 0.0
H6637 H 0.30072 0.59925 0.21007 0.0
H6638 H 0.28877 0.59078 0.20878 0.0
H6639 H 0.29713 0.59388 0.19717 0.0
C6640 C 0.40444 0.31783 0.18845 0.0
C6641 C 0.39388 0.31371 0.18987 0.0
C6642 C 0.41308 0.31388 0.19459 0.0
C6643 C 0.41108 0.3057 0.20243 0.0
C6644 C 0.40043 0.30154 0.20392 0.0
C6645 C 0.39197 0.30556 0.19759 0.0
C6646 C 0.42434 0.31843 0.19269 0.0
C6647 C 0.39794 0.29291 0.21227 0.0
C6648 C 0.43377 0.28819 0.21293 0.0
C6649 C 0.43629 0.29315 0.2228 0.0
C6650 C 0.42584 0.2924 0.20604 0.0
C6651 C 0.42007 0.3016 0.20924 0.0
C6652 C 0.42258 0.30663 0.21919 0.0
C6653 C 0.43065 0.30235 0.22583 0.0
C6654 C 0.42345 0.28686 0.19546 0.0
C6655 C 0.41652 0.31636 0.22296 0.0
H6656 H 0.40597 0.32405 0.1824 0.0
H6657 H 0.3838 0.30244 0.1988 0.0
H6658 H 0.42752 0.32214 0.20022 0.0
H6659 H 0.42987 0.31185 0.19052 0.0
H6660 H 0.42458 0.32462 0.18616 0.0
H6661 H 0.38923 0.29052 0.21241 0.0
H6662 H 0.40275 0.28565 0.21064 0.0
H6663 H 0.40027 0.29583 0.22042 0.0
H6664 H 0.43792 0.28094 0.21063 0.0
H6665 H 0.43241 0.30606 0.23355 0.0
H6666 H 0.42396 0.29278 0.1887 0.0
H6667 H 0.41509 0.28346 0.19555 0.0
H6668 H 0.42913 0.28024 0.19383 0.0
H6669 H 0.41707 0.32289 0.21681 0.0
H6670 H 0.41967 0.31951 0.23076 0.0
H6671 H 0.40782 0.3142 0.22398 0.0
C6672 C 0.6739 0.40802 0.19301 0.0
C6673 C 0.67822 0.39826 0.18955 0.0
C6674 C 0.6805 0.416 0.1978 0.0
C6675 C 0.69168 0.41415 0.1992 0.0
C6676 C 0.69612 0.4044 0.19555 0.0
C6677 C 0.68934 0.39658 0.19076 0.0
C6678 C 0.67549 0.42634 0.20151 0.0
C6679 C 0.70799 0.4021 0.19695 0.0
C6680 C 0.71135 0.43751 0.20442 0.0
C6681 C 0.7126 0.43691 0.21568 0.0
C6682 C 0.70436 0.43032 0.19896 0.0
C6683 C 0.69867 0.42221 0.20488 0.0
C6684 C 0.69993 0.42154 0.21624 0.0
C6685 C 0.70689 0.42889 0.22148 0.0
C6686 C 0.70321 0.43129 0.18685 0.0
C6687 C 0.69409 0.41293 0.22282 0.0
H6688 H 0.66533 0.40941 0.19197 0.0
H6689 H 0.69271 0.389 0.18823 0.0
H6690 H 0.67635 0.42708 0.2104 0.0
H6691 H 0.67979 0.43338 0.1978 0.0
H6692 H 0.66677 0.42672 0.19941 0.0
H6693 H 0.71025 0.39431 0.19329 0.0
H6694 H 0.713 0.40865 0.1932 0.0
H6695 H 0.71004 0.40187 0.20568 0.0
H6696 H 0.71593 0.44353 0.19986 0.0
H6697 H 0.70801 0.42827 0.23015 0.0
H6698 H 0.69456 0.43201 0.18463 0.0
H6699 H 0.70621 0.4239 0.18295 0.0
H6700 H 0.70777 0.43837 0.18351 0.0
H6701 H 0.68523 0.41339 0.2215 0.0
H6702 H 0.69575 0.41367 0.23161 0.0
H6703 H 0.6966 0.40483 0.22015 0.0
C6704 C 0.6102 0.31903 0.81417 0.0
C6705 C 0.60785 0.3212 0.82501 0.0
C6706 C 0.60218 0.31508 0.80715 0.0
C6707 C 0.59153 0.31328 0.81104 0.0
C6708 C 0.5891 0.31538 0.822 0.0
C6709 C 0.59731 0.31929 0.82887 0.0
C6710 C 0.60511 0.31285 0.79554 0.0
C6711 C 0.57782 0.31362 0.82641 0.0
C6712 C 0.56948 0.31304 0.7897 0.0
C6713 C 0.56771 0.30196 0.78814 0.0
C6714 C 0.57696 0.31684 0.79738 0.0
C6715 C 0.58292 0.30936 0.80356 0.0
C6716 C 0.58107 0.29815 0.80214 0.0
C6717 C 0.57349 0.29459 0.79444 0.0
C6718 C 0.5787 0.32885 0.79867 0.0
C6719 C 0.58731 0.28994 0.80854 0.0
H6720 H 0.61837 0.32034 0.8112 0.0
H6721 H 0.59545 0.32104 0.83722 0.0
H6722 H 0.6032 0.3043 0.79359 0.0
H6723 H 0.60021 0.31791 0.79005 0.0
H6724 H 0.61381 0.3145 0.79384 0.0
H6725 H 0.57731 0.31547 0.83516 0.0
H6726 H 0.57208 0.3188 0.82197 0.0
H6727 H 0.57513 0.30513 0.82517 0.0
H6728 H 0.56513 0.31876 0.78477 0.0
H6729 H 0.57223 0.28601 0.79317 0.0
H6730 H 0.58707 0.33116 0.79622 0.0
H6731 H 0.57777 0.33111 0.80727 0.0
H6732 H 0.57295 0.33358 0.79374 0.0
H6733 H 0.59604 0.29068 0.80651 0.0
H6734 H 0.5845 0.28154 0.80688 0.0
H6735 H 0.58652 0.29147 0.81732 0.0
C6736 C 0.6871 0.6021 0.82262 0.0
C6737 C 0.69341 0.61116 0.82551 0.0
C6738 C 0.69131 0.59405 0.81598 0.0
C6739 C 0.70204 0.59516 0.81206 0.0
C6740 C 0.70846 0.60425 0.81502 0.0
C6741 C 0.70408 0.61212 0.82173 0.0
C6742 C 0.68426 0.58441 0.8131 0.0
C6743 C 0.7199 0.60579 0.81092 0.0
C6744 C 0.71712 0.57105 0.80131 0.0
C6745 C 0.71568 0.57223 0.79011 0.0
C6746 C 0.71244 0.57825 0.80858 0.0
C6747 C 0.70646 0.58703 0.80454 0.0
C6748 C 0.70504 0.58831 0.79326 0.0
C6749 C 0.70961 0.58087 0.78621 0.0
C6750 C 0.71401 0.57655 0.82056 0.0
C6751 C 0.69891 0.59768 0.78862 0.0
H6752 H 0.67889 0.60126 0.82563 0.0
H6753 H 0.70895 0.61917 0.82382 0.0
H6754 H 0.68299 0.58416 0.80424 0.0
H6755 H 0.68835 0.57686 0.81545 0.0
H6756 H 0.67624 0.58455 0.81713 0.0
H6757 H 0.72389 0.61321 0.81413 0.0
H6758 H 0.72482 0.59876 0.81322 0.0
H6759 H 0.71987 0.60629 0.80196 0.0
H6760 H 0.72195 0.56453 0.80442 0.0
H6761 H 0.70862 0.5819 0.77756 0.0
H6762 H 0.70606 0.57632 0.82473 0.0
H6763 H 0.71877 0.5834 0.82397 0.0
H6764 H 0.71827 0.56896 0.82242 0.0
H6765 H 0.69058 0.59769 0.79194 0.0
H6766 H 0.69842 0.59743 0.77967 0.0
H6767 H 0.70292 0.60539 0.79101 0.0
C6768 C 0.39582 0.68871 0.8073 0.0
C6769 C 0.39735 0.6816 0.816 0.0
C6770 C 0.40431 0.69541 0.80352 0.0
C6771 C 0.4146 0.6949 0.80849 0.0
C6772 C 0.41623 0.68766 0.81722 0.0
C6773 C 0.40755 0.68114 0.82091 0.0
C6774 C 0.40221 0.70311 0.79428 0.0
C6775 C 0.42713 0.68681 0.82263 0.0
C6776 C 0.43828 0.70607 0.79202 0.0
C6777 C 0.4399 0.7163 0.79661 0.0
C6778 C 0.43031 0.69888 0.79605 0.0
C6779 C 0.42359 0.70211 0.80465 0.0
C6780 C 0.42515 0.71243 0.80928 0.0
C6781 C 0.43329 0.71938 0.80522 0.0
C6782 C 0.42895 0.6879 0.79096 0.0
C6783 C 0.41803 0.71624 0.81833 0.0
H6784 H 0.38791 0.68918 0.80356 0.0
H6785 H 0.40878 0.67557 0.82758 0.0
H6786 H 0.40387 0.71153 0.7969 0.0
H6787 H 0.40776 0.70148 0.78747 0.0
H6788 H 0.39375 0.7025 0.79129 0.0
H6789 H 0.42712 0.68062 0.82916 0.0
H6790 H 0.43336 0.68475 0.81658 0.0
H6791 H 0.42956 0.6947 0.82614 0.0
H6792 H 0.44317 0.70371 0.7852 0.0
H6793 H 0.43438 0.72736 0.80863 0.0
H6794 H 0.42091 0.68722 0.78701 0.0
H6795 H 0.42925 0.6815 0.79727 0.0
H6796 H 0.43528 0.68635 0.78484 0.0
H6797 H 0.40951 0.71648 0.81555 0.0
H6798 H 0.42049 0.72439 0.82123 0.0
H6799 H 0.41831 0.71051 0.82524 0.0
C6800 C 0.312 0.39426 0.81476 0.0
C6801 C 0.32328 0.39564 0.81509 0.0
C6802 C 0.3054 0.40229 0.81041 0.0
C6803 C 0.3102 0.41194 0.80631 0.0
C6804 C 0.32157 0.41351 0.80687 0.0
C6805 C 0.32797 0.40533 0.81124 0.0
C6806 C 0.29332 0.4003 0.80993 0.0
C6807 C 0.32697 0.42373 0.80267 0.0
C6808 C 0.29445 0.4269 0.78476 0.0
C6809 C 0.28964 0.43506 0.79075 0.0
C6810 C 0.3013 0.41944 0.7897 0.0
C6811 C 0.30337 0.42014 0.80093 0.0
C6812 C 0.29861 0.42842 0.80702 0.0
C6813 C 0.29171 0.43572 0.80188 0.0
C6814 C 0.30613 0.41067 0.78294 0.0
C6815 C 0.30065 0.42944 0.819 0.0
H6816 H 0.30833 0.38675 0.81761 0.0
H6817 H 0.33668 0.40651 0.81162 0.0
H6818 H 0.28904 0.407 0.81385 0.0
H6819 H 0.29064 0.40006 0.80137 0.0
H6820 H 0.29081 0.3926 0.81393 0.0
H6821 H 0.33583 0.42392 0.8042 0.0
H6822 H 0.3256 0.42447 0.79384 0.0
H6823 H 0.32336 0.43086 0.8065 0.0
H6824 H 0.2927 0.42624 0.77621 0.0
H6825 H 0.28782 0.44187 0.8066 0.0
H6826 H 0.30329 0.40265 0.78594 0.0
H6827 H 0.31508 0.41094 0.78366 0.0
H6828 H 0.30394 0.41142 0.77426 0.0
H6829 H 0.29741 0.42217 0.82328 0.0
H6830 H 0.29682 0.43667 0.82246 0.0
H6831 H 0.30947 0.42992 0.82062 0.0
C6832 C 0.69089 0.60891 0.19416 0.0
C6833 C 0.68031 0.60685 0.19051 0.0
C6834 C 0.69726 0.6006 0.19828 0.0
C6835 C 0.69298 0.58992 0.19872 0.0
C6836 C 0.68229 0.58778 0.19508 0.0
C6837 C 0.67607 0.59627 0.19105 0.0
C6838 C 0.70859 0.60324 0.20215 0.0
C6839 C 0.67747 0.57649 0.19535 0.0
C6840 C 0.71387 0.56792 0.19967 0.0
C6841 C 0.71422 0.56542 0.21074 0.0
C6842 C 0.70671 0.57559 0.1956 0.0
C6843 C 0.69982 0.58102 0.20279 0.0
C6844 C 0.69996 0.57839 0.21394 0.0
C6845 C 0.70718 0.57064 0.21779 0.0
C6846 C 0.70679 0.57815 0.18365 0.0
C6847 C 0.69276 0.58402 0.22187 0.0
H6848 H 0.69416 0.61709 0.19391 0.0
H6849 H 0.66793 0.59462 0.18816 0.0
H6850 H 0.7095 0.60074 0.21072 0.0
H6851 H 0.71454 0.59867 0.19738 0.0
H6852 H 0.71064 0.61198 0.20144 0.0
H6853 H 0.66898 0.57619 0.1924 0.0
H6854 H 0.68237 0.57111 0.19026 0.0
H6855 H 0.67767 0.57321 0.20371 0.0
H6856 H 0.71939 0.56402 0.19421 0.0
H6857 H 0.70754 0.56886 0.22637 0.0
H6858 H 0.7097 0.58658 0.18233 0.0
H6859 H 0.69847 0.5775 0.18032 0.0
H6860 H 0.71208 0.57269 0.17905 0.0
H6861 H 0.69506 0.59271 0.22219 0.0
H6862 H 0.69333 0.58055 0.23014 0.0
H6863 H 0.68421 0.58348 0.21917 0.0
C6864 C 0.68663 0.39906 0.806 0.0
C6865 C 0.68095 0.40084 0.81561 0.0
C6866 C 0.69322 0.4072 0.80137 0.0
C6867 C 0.69408 0.41738 0.80643 0.0
C6868 C 0.68827 0.41927 0.81607 0.0
C6869 C 0.68182 0.41094 0.82058 0.0
C6870 C 0.69939 0.40483 0.79116 0.0
C6871 C 0.6889 0.43006 0.82161 0.0
C6872 C 0.71911 0.43458 0.80034 0.0
C6873 C 0.71533 0.44163 0.79235 0.0
C6874 C 0.71226 0.42672 0.80506 0.0
C6875 C 0.70131 0.42595 0.80176 0.0
C6876 C 0.69739 0.43309 0.79376 0.0
C6877 C 0.70449 0.44075 0.78902 0.0
C6878 C 0.7168 0.41911 0.81341 0.0
C6879 C 0.68574 0.43256 0.79011 0.0
H6880 H 0.68608 0.39122 0.8022 0.0
H6881 H 0.67735 0.41237 0.82795 0.0
H6882 H 0.69723 0.41065 0.78471 0.0
H6883 H 0.70821 0.40581 0.79264 0.0
H6884 H 0.69774 0.39652 0.78818 0.0
H6885 H 0.68364 0.43033 0.82887 0.0
H6886 H 0.69736 0.43188 0.8241 0.0
H6887 H 0.68648 0.43653 0.81592 0.0
H6888 H 0.72754 0.4351 0.80276 0.0
H6889 H 0.70154 0.446 0.78269 0.0
H6890 H 0.71599 0.41068 0.81054 0.0
H6891 H 0.71215 0.41963 0.82104 0.0
H6892 H 0.72547 0.42088 0.81518 0.0
H6893 H 0.68397 0.42467 0.78625 0.0
H6894 H 0.68382 0.43908 0.78426 0.0
H6895 H 0.68027 0.43318 0.79718 0.0
C6896 C 0.60834 0.68504 0.80998 0.0
C6897 C 0.609 0.681 0.82058 0.0
C6898 C 0.59907 0.6903 0.80632 0.0
C6899 C 0.59021 0.69153 0.81342 0.0
C6900 C 0.5909 0.68767 0.82419 0.0
C6901 C 0.60029 0.68246 0.82764 0.0
C6902 C 0.59867 0.69438 0.79481 0.0
C6903 C 0.58161 0.68878 0.83199 0.0
C6904 C 0.56855 0.712 0.80705 0.0
C6905 C 0.56037 0.70543 0.80254 0.0
C6906 C 0.5784 0.70764 0.81044 0.0
C6907 C 0.58003 0.69642 0.80945 0.0
C6908 C 0.57181 0.68976 0.8049 0.0
C6909 C 0.56208 0.69434 0.80153 0.0
C6910 C 0.58698 0.71499 0.81526 0.0
C6911 C 0.5732 0.67774 0.80377 0.0
H6912 H 0.61511 0.68408 0.80453 0.0
H6913 H 0.6007 0.67927 0.8358 0.0
H6914 H 0.5921 0.69009 0.79036 0.0
H6915 H 0.5968 0.70309 0.79466 0.0
H6916 H 0.60641 0.69321 0.79046 0.0
H6917 H 0.58361 0.68577 0.84021 0.0
H6918 H 0.57931 0.69736 0.83257 0.0
H6919 H 0.57444 0.6842 0.82898 0.0
H6920 H 0.56717 0.72054 0.80806 0.0
H6921 H 0.5557 0.68921 0.79825 0.0
H6922 H 0.59472 0.71416 0.81084 0.0
H6923 H 0.58847 0.71264 0.82379 0.0
H6924 H 0.58464 0.7236 0.81501 0.0
H6925 H 0.58055 0.67612 0.79895 0.0
H6926 H 0.56613 0.67374 0.79982 0.0
H6927 H 0.57436 0.67402 0.81186 0.0
C6928 C 0.30695 0.60181 0.82316 0.0
C6929 C 0.31655 0.60761 0.82082 0.0
C6930 C 0.30332 0.59334 0.81652 0.0
C6931 C 0.30936 0.59069 0.80723 0.0
C6932 C 0.31906 0.59647 0.80483 0.0
C6933 C 0.32258 0.60479 0.81169 0.0
C6934 C 0.29299 0.58728 0.81939 0.0
C6935 C 0.32569 0.59393 0.79496 0.0
C6936 C 0.30584 0.56329 0.79399 0.0
C6937 C 0.29883 0.56564 0.78539 0.0
C6938 C 0.30906 0.57129 0.80136 0.0
C6939 C 0.30547 0.58197 0.7999 0.0
C6940 C 0.29847 0.58442 0.79121 0.0
C6941 C 0.29521 0.57622 0.78409 0.0
C6942 C 0.31643 0.56835 0.8106 0.0
C6943 C 0.29463 0.59575 0.78926 0.0
H6944 H 0.30214 0.604 0.83009 0.0
H6945 H 0.33011 0.60906 0.80992 0.0
H6946 H 0.28692 0.58834 0.81288 0.0
H6947 H 0.29453 0.57852 0.82007 0.0
H6948 H 0.28946 0.59005 0.82712 0.0
H6949 H 0.33299 0.59926 0.79419 0.0
H6950 H 0.3283 0.58543 0.79531 0.0
H6951 H 0.32069 0.59485 0.78757 0.0
H6952 H 0.30888 0.55521 0.79493 0.0
H6953 H 0.28998 0.5781 0.77733 0.0
H6954 H 0.31284 0.57085 0.81839 0.0
H6955 H 0.3243 0.57273 0.80974 0.0
H6956 H 0.31796 0.55956 0.81099 0.0
H6957 H 0.29044 0.59874 0.79654 0.0
H6958 H 0.28904 0.59627 0.78226 0.0
H6959 H 0.30169 0.60124 0.78775 0.0
C6960 C 0.39961 0.31983 0.80939 0.0
C6961 C 0.39858 0.31668 0.82027 0.0
C6962 C 0.40777 0.3157 0.80282 0.0
C6963 C 0.41522 0.30836 0.80725 0.0
C6964 C 0.41445 0.30538 0.81829 0.0
C6965 C 0.4061 0.30951 0.82464 0.0
C6966 C 0.40828 0.31902 0.79106 0.0
C6967 C 0.42231 0.29767 0.82334 0.0
C6968 C 0.42887 0.28923 0.78796 0.0
C6969 C 0.43889 0.29444 0.78617 0.0
C6970 C 0.42114 0.29363 0.79484 0.0
C6971 C 0.42352 0.30345 0.8002 0.0
C6972 C 0.43368 0.30869 0.79857 0.0
C6973 C 0.44118 0.30423 0.79144 0.0
C6974 C 0.41032 0.2879 0.79619 0.0
C6975 C 0.43657 0.31909 0.80426 0.0
H6976 H 0.39401 0.32553 0.80598 0.0
H6977 H 0.40533 0.3069 0.83298 0.0
H6978 H 0.41634 0.32265 0.78916 0.0
H6979 H 0.40719 0.31181 0.78588 0.0
H6980 H 0.40198 0.32493 0.7889 0.0
H6981 H 0.42106 0.29673 0.83218 0.0
H6982 H 0.4214 0.28963 0.81953 0.0
H6983 H 0.43075 0.30055 0.82188 0.0
H6984 H 0.42702 0.28177 0.78376 0.0
H6985 H 0.4488 0.30844 0.78996 0.0
H6986 H 0.40375 0.29326 0.79347 0.0
H6987 H 0.40885 0.28599 0.80484 0.0
H6988 H 0.40978 0.2803 0.79151 0.0
H6989 H 0.43105 0.32553 0.80161 0.0
H6990 H 0.44504 0.32181 0.80263 0.0
H6991 H 0.43551 0.31806 0.81312 0.0
C6992 C 0.32147 0.40629 0.18353 0.0
C6993 C 0.32264 0.39798 0.19117 0.0
C6994 C 0.31659 0.41601 0.1863 0.0
C6995 C 0.31275 0.41746 0.19696 0.0
C6996 C 0.31368 0.40902 0.20464 0.0
C6997 C 0.31863 0.39939 0.20166 0.0
C6998 C 0.31579 0.42484 0.17789 0.0
C6999 C 0.30963 0.41023 0.21606 0.0
C7000 C 0.31102 0.44631 0.20683 0.0
C7001 C 0.29998 0.44838 0.20555 0.0
C7002 C 0.31523 0.43623 0.20424 0.0
C7003 C 0.30824 0.42801 0.20019 0.0
C7004 C 0.29707 0.43001 0.19896 0.0
C7005 C 0.29308 0.44021 0.20157 0.0
C7006 C 0.32721 0.43446 0.2056 0.0
C7007 C 0.28937 0.42146 0.19468 0.0
H7008 H 0.32466 0.40531 0.17545 0.0
H7009 H 0.31936 0.39294 0.20756 0.0
H7010 H 0.30729 0.42742 0.17708 0.0
H7011 H 0.32066 0.43199 0.18046 0.0
H7012 H 0.31871 0.42226 0.16984 0.0
H7013 H 0.31051 0.40273 0.22092 0.0
H7014 H 0.31418 0.41686 0.22011 0.0
H7015 H 0.30097 0.41244 0.216 0.0
H7016 H 0.31641 0.45267 0.2097 0.0
H7017 H 0.28459 0.44184 0.20034 0.0
H7018 H 0.33089 0.43271 0.19765 0.0
H7019 H 0.32855 0.42737 0.21091 0.0
H7020 H 0.33148 0.44158 0.20913 0.0
H7021 H 0.29163 0.41939 0.18629 0.0
H7022 H 0.28083 0.4241 0.19471 0.0
H7023 H 0.28994 0.41398 0.19961 0.0
C7024 C 0.60642 0.31576 0.19371 0.0
C7025 C 0.60455 0.31673 0.18257 0.0
C7026 C 0.5987 0.31084 0.20056 0.0
C7027 C 0.58885 0.30683 0.19618 0.0
C7028 C 0.5868 0.30799 0.18498 0.0
C7029 C 0.59469 0.3129 0.1783 0.0
C7030 C 0.60122 0.3097 0.21245 0.0
C7031 C 0.57635 0.3039 0.18002 0.0
C7032 C 0.57443 0.28439 0.21188 0.0
C7033 C 0.56653 0.29004 0.2175 0.0
C7034 C 0.58162 0.28973 0.20478 0.0
C7035 C 0.5809 0.30102 0.20327 0.0
C7036 C 0.57288 0.30678 0.20884 0.0
C7037 C 0.56587 0.30124 0.21599 0.0
C7038 C 0.59014 0.28332 0.1991 0.0
C7039 C 0.57184 0.31881 0.20741 0.0
H7040 H 0.61407 0.31857 0.19705 0.0
H7041 H 0.59314 0.31375 0.16972 0.0
H7042 H 0.59475 0.31334 0.21734 0.0
H7043 H 0.60149 0.30103 0.21469 0.0
H7044 H 0.60909 0.3136 0.21465 0.0
H7045 H 0.5758 0.30584 0.17127 0.0
H7046 H 0.57564 0.29502 0.18108 0.0
H7047 H 0.56935 0.30745 0.18422 0.0
H7048 H 0.57511 0.27577 0.21321 0.0
H7049 H 0.55994 0.30569 0.2205 0.0
H7050 H 0.59831 0.28625 0.20156 0.0
H7051 H 0.5895 0.28449 0.19023 0.0
H7052 H 0.58944 0.27455 0.20094 0.0
H7053 H 0.57929 0.32299 0.21036 0.0
H7054 H 0.56479 0.32199 0.21184 0.0
H7055 H 0.57099 0.32086 0.19871 0.0
C7056 C 0.40912 0.69484 0.17398 0.0
C7057 C 0.39866 0.69335 0.17817 0.0
C7058 C 0.41735 0.69981 0.18012 0.0
C7059 C 0.41501 0.70348 0.19065 0.0
C7060 C 0.40451 0.70182 0.195 0.0
C7061 C 0.39647 0.69674 0.18872 0.0
C7062 C 0.42848 0.70133 0.17527 0.0
C7063 C 0.40167 0.70569 0.20616 0.0
C7064 C 0.43762 0.70992 0.21056 0.0
C7065 C 0.43855 0.72118 0.20956 0.0
C7066 C 0.43018 0.704 0.20425 0.0
C7067 C 0.42337 0.70951 0.19696 0.0
C7068 C 0.42425 0.72087 0.19595 0.0
C7069 C 0.43182 0.72656 0.20227 0.0
C7070 C 0.42948 0.69189 0.20553 0.0
C7071 C 0.41705 0.72705 0.18835 0.0
H7072 H 0.41087 0.69211 0.16587 0.0
H7073 H 0.38836 0.69572 0.19194 0.0
H7074 H 0.43045 0.71006 0.17439 0.0
H7075 H 0.43465 0.69784 0.18071 0.0
H7076 H 0.42914 0.69751 0.16721 0.0
H7077 H 0.39326 0.70339 0.20851 0.0
H7078 H 0.4073 0.70231 0.21222 0.0
H7079 H 0.40257 0.7146 0.20649 0.0
H7080 H 0.44264 0.70574 0.21635 0.0
H7081 H 0.43238 0.73528 0.20165 0.0
H7082 H 0.43043 0.68798 0.19756 0.0
H7083 H 0.42139 0.68945 0.20868 0.0
H7084 H 0.43574 0.68878 0.21112 0.0
H7085 H 0.41793 0.72401 0.17999 0.0
H7086 H 0.41894 0.73585 0.18833 0.0
H7087 H 0.40846 0.72578 0.1907 0.0
loop_
_geom_bond_atom_site_label_1
_geom_bond_atom_site_label_2
_geom_bond_distance
_geom_bond_site_symmetry_2
_ccdc_geom_bond_type
C0 C1 1.264 . S
C0 C5 1.479 . S
C0 C10 1.465 . S
C1 C0 1.264 . S
C1 C3 1.339 . S
C1 H28 0.931 . S
C2 C3 1.395 . S
C2 C4 1.320 . S
C3 C1 1.339 . S
C3 C2 1.395 . S
C3 H29 0.929 . S
C4 C2 1.320 . S
C4 C5 1.405 . S
C4 H30 0.930 . S
C5 C0 1.479 . S
C5 C4 1.405 . S
C5 H31 0.931 . S
U6 O7 2.454 . S
U6 O8 2.458 . S
U6 C9 2.984 . S
U6 C10 2.847 . S
U6 C23 2.882 . S
U6 O24 2.441 . S
U6 O25 2.420 . S
U6 O26 2.455 . S
U6 O27 2.449 . S
O7 U6 2.454 . S
O7 C9 1.353 . S
O8 U6 2.458 . S
O8 C9 1.286 . S
C9 U6 2.984 . S
C9 O7 1.353 . S
C9 O8 1.286 . S
C9 C11 1.363 . S
C10 C0 1.465 . S
C10 U6 2.847 . S
C10 O24 1.249 . S
C10 O25 1.202 . S
C11 C9 1.363 . S
C11 C13 1.408 . S
C11 C16 1.342 . S
C12 C13 1.310 . S
C12 C15 1.461 . S
C12 H32 0.932 . S
C13 C11 1.408 . S
C13 C12 1.310 . S
C13 H33 0.930 . S
C14 C15 1.474 . S
C14 C16 1.285 . S
C14 H34 0.929 . S
C15 C12 1.461 . S
C15 C14 1.474 . S
C16 C11 1.342 . S
C16 C14 1.285 . S
C16 H35 0.930 . S
C17 C20 1.424 . S
C17 C22 1.245 . S
C17 C23 1.428 . S
C18 C21 1.260 . S
C18 C22 1.477 . S
C18 H36 0.932 . S
C19 C20 1.384 . S
C19 C21 1.479 . S
C19 H37 0.929 . S
C20 C17 1.424 . S
C20 C19 1.384 . S
C20 H38 0.928 . S
C21 C18 1.260 . S
C21 C19 1.479 . S
C22 C17 1.245 . S
C22 C18 1.477 . S
C22 H39 0.932 . S
C23 U6 2.882 . S
C23 C17 1.428 . S
C23 O26 1.301 . S
C23 O27 1.282 . S
O24 U6 2.441 . S
O24 C10 1.249 . S
O25 U6 2.420 . S
O25 C10 1.202 . S
O26 U6 2.455 . S
O26 C23 1.301 . S
O27 U6 2.449 . S
O27 C23 1.282 . S
H28 C1 0.931 . S
H29 C3 0.929 . S
H30 C4 0.930 . S
H31 C5 0.931 . S
H32 C12 0.932 . S
H33 C13 0.930 . S
H34 C14 0.929 . S
H35 C16 0.930 . S
H36 C18 0.932 . S
H37 C19 0.929 . S
H38 C20 0.928 . S
H39 C22 0.932 . S
C40 C41 1.264 . S
C40 C45 1.479 . S
C40 C50 1.465 . S
C41 C40 1.264 . S
C41 C43 1.339 . S
C41 H68 0.931 . S
C42 C43 1.395 . S
C42 C44 1.320 . S
C43 C41 1.339 . S
C43 C42 1.395 . S
C43 H69 0.929 . S
C44 C42 1.320 . S
C44 C45 1.405 . S
C44 H70 0.930 . S
C45 C40 1.479 . S
C45 C44 1.405 . S
C45 H71 0.931 . S
U46 O47 2.454 . S
U46 O48 2.458 . S
U46 C49 2.984 . S
U46 C50 2.847 . S
U46 C63 2.882 . S
U46 O64 2.441 . S
U46 O65 2.420 . S
U46 O66 2.455 . S
U46 O67 2.449 . S
O47 U46 2.454 . S
O47 C49 1.353 . S
O48 U46 2.458 . S
O48 C49 1.286 . S
C49 U46 2.984 . S
C49 O47 1.353 . S
C49 O48 1.286 . S
C49 C51 1.363 . S
C50 C40 1.465 . S
C50 U46 2.847 . S
C50 O64 1.249 . S
C50 O65 1.202 . S
C51 C49 1.363 . S
C51 C53 1.408 . S
C51 C56 1.342 . S
C52 C53 1.310 . S
C52 C55 1.461 . S
C52 H72 0.932 . S
C53 C51 1.408 . S
C53 C52 1.310 . S
C53 H73 0.930 . S
C54 C55 1.474 . S
C54 C56 1.285 . S
C54 H74 0.929 . S
C55 C52 1.461 . S
C55 C54 1.474 . S
C56 C51 1.342 . S
C56 C54 1.285 . S
C56 H75 0.930 . S
C57 C60 1.424 . S
C57 C62 1.245 . S
C57 C63 1.428 . S
C58 C61 1.260 . S
C58 C62 1.477 . S
C58 H76 0.932 . S
C59 C60 1.384 . S
C59 C61 1.479 . S
C59 H77 0.929 . S
C60 C57 1.424 . S
C60 C59 1.384 . S
C60 H78 0.928 . S
C61 C58 1.260 . S
C61 C59 1.479 . S
C62 C57 1.245 . S
C62 C58 1.477 . S
C62 H79 0.932 . S
C63 U46 2.882 . S
C63 C57 1.428 . S
C63 O66 1.301 . S
C63 O67 1.282 . S
O64 U46 2.441 . S
O64 C50 1.249 . S
O65 U46 2.420 . S
O65 C50 1.202 . S
O66 U46 2.455 . S
O66 C63 1.301 . S
O67 U46 2.449 . S
O67 C63 1.282 . S
H68 C41 0.931 . S
H69 C43 0.929 . S
H70 C44 0.930 . S
H71 C45 0.931 . S
H72 C52 0.932 . S
H73 C53 0.930 . S
H74 C54 0.929 . S
H75 C56 0.930 . S
H76 C58 0.932 . S
H77 C59 0.929 . S
H78 C60 0.928 . S
H79 C62 0.932 . S
C80 C81 1.264 . S
C80 C85 1.479 . S
C80 C90 1.465 . S
C81 C80 1.264 . S
C81 C83 1.339 . S
C81 H108 0.931 . S
C82 C83 1.395 . S
C82 C84 1.320 . S
C83 C81 1.339 . S
C83 C82 1.395 . S
C83 H109 0.929 . S
C84 C82 1.320 . S
C84 C85 1.405 . S
C84 H110 0.930 . S
C85 C80 1.479 . S
C85 C84 1.405 . S
C85 H111 0.931 . S
U86 O87 2.454 . S
U86 O88 2.458 . S
U86 C89 2.984 . S
U86 C90 2.847 . S
U86 C103 2.882 . S
U86 O104 2.441 . S
U86 O105 2.420 . S
U86 O106 2.455 . S
U86 O107 2.449 . S
O87 U86 2.454 . S
O87 C89 1.353 . S
O88 U86 2.458 . S
O88 C89 1.286 . S
C89 U86 2.984 . S
C89 O87 1.353 . S
C89 O88 1.286 . S
C89 C91 1.363 . S
C90 C80 1.465 . S
C90 U86 2.847 . S
C90 O104 1.249 . S
C90 O105 1.202 . S
C91 C89 1.363 . S
C91 C93 1.408 . S
C91 C96 1.342 . S
C92 C93 1.310 . S
C92 C95 1.461 . S
C92 H112 0.932 . S
C93 C91 1.408 . S
C93 C92 1.310 . S
C93 H113 0.930 . S
C94 C95 1.474 . S
C94 C96 1.285 . S
C94 H114 0.929 . S
C95 C92 1.461 . S
C95 C94 1.474 . S
C96 C91 1.342 . S
C96 C94 1.285 . S
C96 H115 0.930 . S
C97 C100 1.424 . S
C97 C102 1.245 . S
C97 C103 1.428 . S
C98 C101 1.260 . S
C98 C102 1.477 . S
C98 H116 0.932 . S
C99 C100 1.384 . S
C99 C101 1.479 . S
C99 H117 0.929 . S
C100 C97 1.424 . S
C100 C99 1.384 . S
C100 H118 0.928 . S
C101 C98 1.260 . S
C101 C99 1.479 . S
C102 C97 1.245 . S
C102 C98 1.477 . S
C102 H119 0.932 . S
C103 U86 2.882 . S
C103 C97 1.428 . S
C103 O106 1.301 . S
C103 O107 1.282 . S
O104 U86 2.441 . S
O104 C90 1.249 . S
O105 U86 2.420 . S
O105 C90 1.202 . S
O106 U86 2.455 . S
O106 C103 1.301 . S
O107 U86 2.449 . S
O107 C103 1.282 . S
H108 C81 0.931 . S
H109 C83 0.929 . S
H110 C84 0.930 . S
H111 C85 0.931 . S
H112 C92 0.932 . S
H113 C93 0.930 . S
H114 C94 0.929 . S
H115 C96 0.930 . S
H116 C98 0.932 . S
H117 C99 0.929 . S
H118 C100 0.928 . S
H119 C102 0.932 . S
C120 C121 1.264 . S
C120 C125 1.479 . S
C120 C130 1.465 . S
C121 C120 1.264 . S
C121 C123 1.339 . S
C121 H148 0.931 . S
C122 C123 1.395 . S
C122 C124 1.320 . S
C123 C121 1.339 . S
C123 C122 1.395 . S
C123 H149 0.929 . S
C124 C122 1.320 . S
C124 C125 1.405 . S
C124 H150 0.930 . S
C125 C120 1.479 . S
C125 C124 1.405 . S
C125 H151 0.931 . S
U126 O127 2.454 . S
U126 O128 2.458 . S
U126 C129 2.984 . S
U126 C130 2.847 . S
U126 C143 2.882 . S
U126 O144 2.441 . S
U126 O145 2.420 . S
U126 O146 2.455 . S
U126 O147 2.449 . S
O127 U126 2.454 . S
O127 C129 1.353 . S
O128 U126 2.458 . S
O128 C129 1.286 . S
C129 U126 2.984 . S
C129 O127 1.353 . S
C129 O128 1.286 . S
C129 C131 1.363 . S
C130 C120 1.465 . S
C130 U126 2.847 . S
C130 O144 1.249 . S
C130 O145 1.202 . S
C131 C129 1.363 . S
C131 C133 1.408 . S
C131 C136 1.342 . S
C132 C133 1.310 . S
C132 C135 1.461 . S
C132 H152 0.932 . S
C133 C131 1.408 . S
C133 C132 1.310 . S
C133 H153 0.930 . S
C134 C135 1.474 . S
C134 C136 1.285 . S
C134 H154 0.929 . S
C135 C132 1.461 . S
C135 C134 1.474 . S
C136 C131 1.342 . S
C136 C134 1.285 . S
C136 H155 0.930 . S
C137 C140 1.424 . S
C137 C142 1.245 . S
C137 C143 1.428 . S
C138 C141 1.260 . S
C138 C142 1.477 . S
C138 H156 0.932 . S
C139 C140 1.384 . S
C139 C141 1.479 . S
C139 H157 0.929 . S
C140 C137 1.424 . S
C140 C139 1.384 . S
C140 H158 0.928 . S
C141 C138 1.260 . S
C141 C139 1.479 . S
C142 C137 1.245 . S
C142 C138 1.477 . S
C142 H159 0.932 . S
C143 U126 2.882 . S
C143 C137 1.428 . S
C143 O146 1.301 . S
C143 O147 1.282 . S
O144 U126 2.441 . S
O144 C130 1.249 . S
O145 U126 2.420 . S
O145 C130 1.202 . S
O146 U126 2.455 . S
O146 C143 1.301 . S
O147 U126 2.449 . S
O147 C143 1.282 . S
H148 C121 0.931 . S
H149 C123 0.929 . S
H150 C124 0.930 . S
H151 C125 0.931 . S
H152 C132 0.932 . S
H153 C133 0.930 . S
H154 C134 0.929 . S
H155 C136 0.930 . S
H156 C138 0.932 . S
H157 C139 0.929 . S
H158 C140 0.928 . S
H159 C142 0.932 . S
C160 C161 1.264 . S
C160 C165 1.479 . S
C160 C170 1.465 . S
C161 C160 1.264 . S
C161 C163 1.339 . S
C161 H188 0.931 . S
C162 C163 1.395 . S
C162 C164 1.320 . S
C163 C161 1.339 . S
C163 C162 1.395 . S
C163 H189 0.929 . S
C164 C162 1.320 . S
C164 C165 1.405 . S
C164 H190 0.930 . S
C165 C160 1.479 . S
C165 C164 1.405 . S
C165 H191 0.931 . S
U166 O167 2.454 . S
U166 O168 2.458 . S
U166 C169 2.984 . S
U166 C170 2.847 . S
U166 C183 2.882 . S
U166 O184 2.441 . S
U166 O185 2.420 . S
U166 O186 2.455 . S
U166 O187 2.449 . S
O167 U166 2.454 . S
O167 C169 1.353 . S
O168 U166 2.458 . S
O168 C169 1.286 . S
C169 U166 2.984 . S
C169 O167 1.353 . S
C169 O168 1.286 . S
C169 C171 1.363 . S
C170 C160 1.465 . S
C170 U166 2.847 . S
C170 O184 1.249 . S
C170 O185 1.202 . S
C171 C169 1.363 . S
C171 C173 1.408 . S
C171 C176 1.342 . S
C172 C173 1.310 . S
C172 C175 1.461 . S
C172 H192 0.932 . S
C173 C171 1.408 . S
C173 C172 1.310 . S
C173 H193 0.930 . S
C174 C175 1.474 . S
C174 C176 1.285 . S
C174 H194 0.929 . S
C175 C172 1.461 . S
C175 C174 1.474 . S
C176 C171 1.342 . S
C176 C174 1.285 . S
C176 H195 0.930 . S
C177 C180 1.424 . S
C177 C182 1.245 . S
C177 C183 1.428 . S
C178 C181 1.260 . S
C178 C182 1.477 . S
C178 H196 0.932 . S
C179 C180 1.384 . S
C179 C181 1.479 . S
C179 H197 0.929 . S
C180 C177 1.424 . S
C180 C179 1.384 . S
C180 H198 0.928 . S
C181 C178 1.260 . S
C181 C179 1.479 . S
C182 C177 1.245 . S
C182 C178 1.477 . S
C182 H199 0.932 . S
C183 U166 2.882 . S
C183 C177 1.428 . S
C183 O186 1.301 . S
C183 O187 1.282 . S
O184 U166 2.441 . S
O184 C170 1.249 . S
O185 U166 2.420 . S
O185 C170 1.202 . S
O186 U166 2.455 . S
O186 C183 1.301 . S
O187 U166 2.449 . S
O187 C183 1.282 . S
H188 C161 0.931 . S
H189 C163 0.929 . S
H190 C164 0.930 . S
H191 C165 0.931 . S
H192 C172 0.932 . S
H193 C173 0.930 . S
H194 C174 0.929 . S
H195 C176 0.930 . S
H196 C178 0.932 . S
H197 C179 0.929 . S
H198 C180 0.928 . S
H199 C182 0.932 . S
C200 C201 1.264 . S
C200 C205 1.479 . S
C200 C210 1.465 . S
C201 C200 1.264 . S
C201 C203 1.339 . S
C201 H228 0.931 . S
C202 C203 1.395 . S
C202 C204 1.320 . S
C203 C201 1.339 . S
C203 C202 1.395 . S
C203 H229 0.929 . S
C204 C202 1.320 . S
C204 C205 1.405 . S
C204 H230 0.930 . S
C205 C200 1.479 . S
C205 C204 1.405 . S
C205 H231 0.931 . S
U206 O207 2.454 . S
U206 O208 2.458 . S
U206 C209 2.984 . S
U206 C210 2.847 . S
U206 C223 2.882 . S
U206 O224 2.441 . S
U206 O225 2.420 . S
U206 O226 2.455 . S
U206 O227 2.449 . S
O207 U206 2.454 . S
O207 C209 1.353 . S
O208 U206 2.458 . S
O208 C209 1.286 . S
C209 U206 2.984 . S
C209 O207 1.353 . S
C209 O208 1.286 . S
C209 C211 1.363 . S
C210 C200 1.465 . S
C210 U206 2.847 . S
C210 O224 1.249 . S
C210 O225 1.202 . S
C211 C209 1.363 . S
C211 C213 1.408 . S
C211 C216 1.342 . S
C212 C213 1.310 . S
C212 C215 1.461 . S
C212 H232 0.932 . S
C213 C211 1.408 . S
C213 C212 1.310 . S
C213 H233 0.930 . S
C214 C215 1.474 . S
C214 C216 1.285 . S
C214 H234 0.929 . S
C215 C212 1.461 . S
C215 C214 1.474 . S
C216 C211 1.342 . S
C216 C214 1.285 . S
C216 H235 0.930 . S
C217 C220 1.424 . S
C217 C222 1.245 . S
C217 C223 1.428 . S
C218 C221 1.260 . S
C218 C222 1.477 . S
C218 H236 0.932 . S
C219 C220 1.384 . S
C219 C221 1.479 . S
C219 H237 0.929 . S
C220 C217 1.424 . S
C220 C219 1.384 . S
C220 H238 0.928 . S
C221 C218 1.260 . S
C221 C219 1.479 . S
C222 C217 1.245 . S
C222 C218 1.477 . S
C222 H239 0.932 . S
C223 U206 2.882 . S
C223 C217 1.428 . S
C223 O226 1.301 . S
C223 O227 1.282 . S
O224 U206 2.441 . S
O224 C210 1.249 . S
O225 U206 2.420 . S
O225 C210 1.202 . S
O226 U206 2.455 . S
O226 C223 1.301 . S
O227 U206 2.449 . S
O227 C223 1.282 . S
H228 C201 0.931 . S
H229 C203 0.929 . S
H230 C204 0.930 . S
H231 C205 0.931 . S
H232 C212 0.932 . S
H233 C213 0.930 . S
H234 C214 0.929 . S
H235 C216 0.930 . S
H236 C218 0.932 . S
H237 C219 0.929 . S
H238 C220 0.928 . S
H239 C222 0.932 . S
C240 C241 1.264 . S
C240 C245 1.479 . S
C240 C250 1.465 . S
C241 C240 1.264 . S
C241 C243 1.339 . S
C241 H268 0.931 . S
C242 C243 1.395 . S
C242 C244 1.320 . S
C243 C241 1.339 . S
C243 C242 1.395 . S
C243 H269 0.929 . S
C244 C242 1.320 . S
C244 C245 1.405 . S
C244 H270 0.930 . S
C245 C240 1.479 . S
C245 C244 1.405 . S
C245 H271 0.931 . S
U246 O247 2.454 . S
U246 O248 2.458 . S
U246 C249 2.984 . S
U246 C250 2.847 . S
U246 C263 2.882 . S
U246 O264 2.441 . S
U246 O265 2.420 . S
U246 O266 2.455 . S
U246 O267 2.449 . S
O247 U246 2.454 . S
O247 C249 1.353 . S
O248 U246 2.458 . S
O248 C249 1.286 . S
C249 U246 2.984 . S
C249 O247 1.353 . S
C249 O248 1.286 . S
C249 C251 1.363 . S
C250 C240 1.465 . S
C250 U246 2.847 . S
C250 O264 1.249 . S
C250 O265 1.202 . S
C251 C249 1.363 . S
C251 C253 1.408 . S
C251 C256 1.342 . S
C252 C253 1.310 . S
C252 C255 1.461 . S
C252 H272 0.932 . S
C253 C251 1.408 . S
C253 C252 1.310 . S
C253 H273 0.930 . S
C254 C255 1.474 . S
C254 C256 1.285 . S
C254 H274 0.929 . S
C255 C252 1.461 . S
C255 C254 1.474 . S
C256 C251 1.342 . S
C256 C254 1.285 . S
C256 H275 0.930 . S
C257 C260 1.424 . S
C257 C262 1.245 . S
C257 C263 1.428 . S
C258 C261 1.260 . S
C258 C262 1.477 . S
C258 H276 0.932 . S
C259 C260 1.384 . S
C259 C261 1.479 . S
C259 H277 0.929 . S
C260 C257 1.424 . S
C260 C259 1.384 . S
C260 H278 0.928 . S
C261 C258 1.260 . S
C261 C259 1.479 . S
C262 C257 1.245 . S
C262 C258 1.477 . S
C262 H279 0.932 . S
C263 U246 2.882 . S
C263 C257 1.428 . S
C263 O266 1.301 . S
C263 O267 1.282 . S
O264 U246 2.441 . S
O264 C250 1.249 . S
O265 U246 2.420 . S
O265 C250 1.202 . S
O266 U246 2.455 . S
O266 C263 1.301 . S
O267 U246 2.449 . S
O267 C263 1.282 . S
H268 C241 0.931 . S
H269 C243 0.929 . S
H270 C244 0.930 . S
H271 C245 0.931 . S
H272 C252 0.932 . S
H273 C253 0.930 . S
H274 C254 0.929 . S
H275 C256 0.930 . S
H276 C258 0.932 . S
H277 C259 0.929 . S
H278 C260 0.928 . S
H279 C262 0.932 . S
C280 C281 1.264 . S
C280 C285 1.479 . S
C280 C290 1.465 . S
C281 C280 1.264 . S
C281 C283 1.339 . S
C281 H308 0.931 . S
C282 C283 1.395 . S
C282 C284 1.320 . S
C283 C281 1.339 . S
C283 C282 1.395 . S
C283 H309 0.929 . S
C284 C282 1.320 . S
C284 C285 1.405 . S
C284 H310 0.930 . S
C285 C280 1.479 . S
C285 C284 1.405 . S
C285 H311 0.931 . S
U286 O287 2.454 . S
U286 O288 2.458 . S
U286 C289 2.984 . S
U286 C290 2.847 . S
U286 C303 2.882 . S
U286 O304 2.441 . S
U286 O305 2.420 . S
U286 O306 2.455 . S
U286 O307 2.449 . S
O287 U286 2.454 . S
O287 C289 1.353 . S
O288 U286 2.458 . S
O288 C289 1.286 . S
C289 U286 2.984 . S
C289 O287 1.353 . S
C289 O288 1.286 . S
C289 C291 1.363 . S
C290 C280 1.465 . S
C290 U286 2.847 . S
C290 O304 1.249 . S
C290 O305 1.202 . S
C291 C289 1.363 . S
C291 C293 1.408 . S
C291 C296 1.342 . S
C292 C293 1.310 . S
C292 C295 1.461 . S
C292 H312 0.932 . S
C293 C291 1.408 . S
C293 C292 1.310 . S
C293 H313 0.930 . S
C294 C295 1.474 . S
C294 C296 1.285 . S
C294 H314 0.929 . S
C295 C292 1.461 . S
C295 C294 1.474 . S
C296 C291 1.342 . S
C296 C294 1.285 . S
C296 H315 0.930 . S
C297 C300 1.424 . S
C297 C302 1.245 . S
C297 C303 1.428 . S
C298 C301 1.260 . S
C298 C302 1.477 . S
C298 H316 0.932 . S
C299 C300 1.384 . S
C299 C301 1.479 . S
C299 H317 0.929 . S
C300 C297 1.424 . S
C300 C299 1.384 . S
C300 H318 0.928 . S
C301 C298 1.260 . S
C301 C299 1.479 . S
C302 C297 1.245 . S
C302 C298 1.477 . S
C302 H319 0.932 . S
C303 U286 2.882 . S
C303 C297 1.428 . S
C303 O306 1.301 . S
C303 O307 1.282 . S
O304 U286 2.441 . S
O304 C290 1.249 . S
O305 U286 2.420 . S
O305 C290 1.202 . S
O306 U286 2.455 . S
O306 C303 1.301 . S
O307 U286 2.449 . S
O307 C303 1.282 . S
H308 C281 0.931 . S
H309 C283 0.929 . S
H310 C284 0.930 . S
H311 C285 0.931 . S
H312 C292 0.932 . S
H313 C293 0.930 . S
H314 C294 0.929 . S
H315 C296 0.930 . S
H316 C298 0.932 . S
H317 C299 0.929 . S
H318 C300 0.928 . S
H319 C302 0.932 . S
C320 C321 1.264 . S
C320 C325 1.479 . S
C320 C330 1.465 . S
C321 C320 1.264 . S
C321 C323 1.339 . S
C321 H348 0.931 . S
C322 C323 1.395 . S
C322 C324 1.320 . S
C323 C321 1.339 . S
C323 C322 1.395 . S
C323 H349 0.929 . S
C324 C322 1.320 . S
C324 C325 1.405 . S
C324 H350 0.930 . S
C325 C320 1.479 . S
C325 C324 1.405 . S
C325 H351 0.931 . S
U326 O327 2.454 . S
U326 O328 2.458 . S
U326 C329 2.984 . S
U326 C330 2.847 . S
U326 C343 2.882 . S
U326 O344 2.441 . S
U326 O345 2.420 . S
U326 O346 2.455 . S
U326 O347 2.449 . S
O327 U326 2.454 . S
O327 C329 1.353 . S
O328 U326 2.458 . S
O328 C329 1.286 . S
C329 U326 2.984 . S
C329 O327 1.353 . S
C329 O328 1.286 . S
C329 C331 1.363 . S
C330 C320 1.465 . S
C330 U326 2.847 . S
C330 O344 1.249 . S
C330 O345 1.202 . S
C331 C329 1.363 . S
C331 C333 1.408 . S
C331 C336 1.342 . S
C332 C333 1.310 . S
C332 C335 1.461 . S
C332 H352 0.932 . S
C333 C331 1.408 . S
C333 C332 1.310 . S
C333 H353 0.930 . S
C334 C335 1.474 . S
C334 C336 1.285 . S
C334 H354 0.929 . S
C335 C332 1.461 . S
C335 C334 1.474 . S
C336 C331 1.342 . S
C336 C334 1.285 . S
C336 H355 0.930 . S
C337 C340 1.424 . S
C337 C342 1.245 . S
C337 C343 1.428 . S
C338 C341 1.260 . S
C338 C342 1.477 . S
C338 H356 0.932 . S
C339 C340 1.384 . S
C339 C341 1.479 . S
C339 H357 0.929 . S
C340 C337 1.424 . S
C340 C339 1.384 . S
C340 H358 0.928 . S
C341 C338 1.260 . S
C341 C339 1.479 . S
C342 C337 1.245 . S
C342 C338 1.477 . S
C342 H359 0.932 . S
C343 U326 2.882 . S
C343 C337 1.428 . S
C343 O346 1.301 . S
C343 O347 1.282 . S
O344 U326 2.441 . S
O344 C330 1.249 . S
O345 U326 2.420 . S
O345 C330 1.202 . S
O346 U326 2.455 . S
O346 C343 1.301 . S
O347 U326 2.449 . S
O347 C343 1.282 . S
H348 C321 0.931 . S
H349 C323 0.929 . S
H350 C324 0.930 . S
H351 C325 0.931 . S
H352 C332 0.932 . S
H353 C333 0.930 . S
H354 C334 0.929 . S
H355 C336 0.930 . S
H356 C338 0.932 . S
H357 C339 0.929 . S
H358 C340 0.928 . S
H359 C342 0.932 . S
C360 C361 1.264 . S
C360 C365 1.479 . S
C360 C370 1.465 . S
C361 C360 1.264 . S
C361 C363 1.339 . S
C361 H388 0.931 . S
C362 C363 1.395 . S
C362 C364 1.320 . S
C363 C361 1.339 . S
C363 C362 1.395 . S
C363 H389 0.929 . S
C364 C362 1.320 . S
C364 C365 1.405 . S
C364 H390 0.930 . S
C365 C360 1.479 . S
C365 C364 1.405 . S
C365 H391 0.931 . S
U366 O367 2.454 . S
U366 O368 2.458 . S
U366 C369 2.984 . S
U366 C370 2.847 . S
U366 C383 2.882 . S
U366 O384 2.441 . S
U366 O385 2.420 . S
U366 O386 2.455 . S
U366 O387 2.449 . S
O367 U366 2.454 . S
O367 C369 1.353 . S
O368 U366 2.458 . S
O368 C369 1.286 . S
C369 U366 2.984 . S
C369 O367 1.353 . S
C369 O368 1.286 . S
C369 C371 1.363 . S
C370 C360 1.465 . S
C370 U366 2.847 . S
C370 O384 1.249 . S
C370 O385 1.202 . S
C371 C369 1.363 . S
C371 C373 1.408 . S
C371 C376 1.342 . S
C372 C373 1.310 . S
C372 C375 1.461 . S
C372 H392 0.932 . S
C373 C371 1.408 . S
C373 C372 1.310 . S
C373 H393 0.930 . S
C374 C375 1.474 . S
C374 C376 1.285 . S
C374 H394 0.929 . S
C375 C372 1.461 . S
C375 C374 1.474 . S
C376 C371 1.342 . S
C376 C374 1.285 . S
C376 H395 0.930 . S
C377 C380 1.424 . S
C377 C382 1.245 . S
C377 C383 1.428 . S
C378 C381 1.260 . S
C378 C382 1.477 . S
C378 H396 0.932 . S
C379 C380 1.384 . S
C379 C381 1.479 . S
C379 H397 0.929 . S
C380 C377 1.424 . S
C380 C379 1.384 . S
C380 H398 0.928 . S
C381 C378 1.260 . S
C381 C379 1.479 . S
C382 C377 1.245 . S
C382 C378 1.477 . S
C382 H399 0.932 . S
C383 U366 2.882 . S
C383 C377 1.428 . S
C383 O386 1.301 . S
C383 O387 1.282 . S
O384 U366 2.441 . S
O384 C370 1.249 . S
O385 U366 2.420 . S
O385 C370 1.202 . S
O386 U366 2.455 . S
O386 C383 1.301 . S
O387 U366 2.449 . S
O387 C383 1.282 . S
H388 C361 0.931 . S
H389 C363 0.929 . S
H390 C364 0.930 . S
H391 C365 0.931 . S
H392 C372 0.932 . S
H393 C373 0.930 . S
H394 C374 0.929 . S
H395 C376 0.930 . S
H396 C378 0.932 . S
H397 C379 0.929 . S
H398 C380 0.928 . S
H399 C382 0.932 . S
C400 C401 1.264 . S
C400 C405 1.479 . S
C400 C410 1.465 . S
C401 C400 1.264 . S
C401 C403 1.339 . S
C401 H428 0.931 . S
C402 C403 1.395 . S
C402 C404 1.320 . S
C403 C401 1.339 . S
C403 C402 1.395 . S
C403 H429 0.929 . S
C404 C402 1.320 . S
C404 C405 1.405 . S
C404 H430 0.930 . S
C405 C400 1.479 . S
C405 C404 1.405 . S
C405 H431 0.931 . S
U406 O407 2.454 . S
U406 O408 2.458 . S
U406 C409 2.984 . S
U406 C410 2.847 . S
U406 C423 2.882 . S
U406 O424 2.441 . S
U406 O425 2.420 . S
U406 O426 2.455 . S
U406 O427 2.449 . S
O407 U406 2.454 . S
O407 C409 1.353 . S
O408 U406 2.458 . S
O408 C409 1.286 . S
C409 U406 2.984 . S
C409 O407 1.353 . S
C409 O408 1.286 . S
C409 C411 1.363 . S
C410 C400 1.465 . S
C410 U406 2.847 . S
C410 O424 1.249 . S
C410 O425 1.202 . S
C411 C409 1.363 . S
C411 C413 1.408 . S
C411 C416 1.342 . S
C412 C413 1.310 . S
C412 C415 1.461 . S
C412 H432 0.932 . S
C413 C411 1.408 . S
C413 C412 1.310 . S
C413 H433 0.930 . S
C414 C415 1.474 . S
C414 C416 1.285 . S
C414 H434 0.929 . S
C415 C412 1.461 . S
C415 C414 1.474 . S
C416 C411 1.342 . S
C416 C414 1.285 . S
C416 H435 0.930 . S
C417 C420 1.424 . S
C417 C422 1.245 . S
C417 C423 1.428 . S
C418 C421 1.260 . S
C418 C422 1.477 . S
C418 H436 0.932 . S
C419 C420 1.384 . S
C419 C421 1.479 . S
C419 H437 0.929 . S
C420 C417 1.424 . S
C420 C419 1.384 . S
C420 H438 0.928 . S
C421 C418 1.260 . S
C421 C419 1.479 . S
C422 C417 1.245 . S
C422 C418 1.477 . S
C422 H439 0.932 . S
C423 U406 2.882 . S
C423 C417 1.428 . S
C423 O426 1.301 . S
C423 O427 1.282 . S
O424 U406 2.441 . S
O424 C410 1.249 . S
O425 U406 2.420 . S
O425 C410 1.202 . S
O426 U406 2.455 . S
O426 C423 1.301 . S
O427 U406 2.449 . S
O427 C423 1.282 . S
H428 C401 0.931 . S
H429 C403 0.929 . S
H430 C404 0.930 . S
H431 C405 0.931 . S
H432 C412 0.932 . S
H433 C413 0.930 . S
H434 C414 0.929 . S
H435 C416 0.930 . S
H436 C418 0.932 . S
H437 C419 0.929 . S
H438 C420 0.928 . S
H439 C422 0.932 . S
C440 C441 1.264 . S
C440 C445 1.479 . S
C440 C450 1.465 . S
C441 C440 1.264 . S
C441 C443 1.339 . S
C441 H468 0.931 . S
C442 C443 1.395 . S
C442 C444 1.320 . S
C443 C441 1.339 . S
C443 C442 1.395 . S
C443 H469 0.929 . S
C444 C442 1.320 . S
C444 C445 1.405 . S
C444 H470 0.930 . S
C445 C440 1.479 . S
C445 C444 1.405 . S
C445 H471 0.931 . S
U446 O447 2.454 . S
U446 O448 2.458 . S
U446 C449 2.984 . S
U446 C450 2.847 . S
U446 C463 2.882 . S
U446 O464 2.441 . S
U446 O465 2.420 . S
U446 O466 2.455 . S
U446 O467 2.449 . S
O447 U446 2.454 . S
O447 C449 1.353 . S
O448 U446 2.458 . S
O448 C449 1.286 . S
C449 U446 2.984 . S
C449 O447 1.353 . S
C449 O448 1.286 . S
C449 C451 1.363 . S
C450 C440 1.465 . S
C450 U446 2.847 . S
C450 O464 1.249 . S
C450 O465 1.202 . S
C451 C449 1.363 . S
C451 C453 1.408 . S
C451 C456 1.342 . S
C452 C453 1.310 . S
C452 C455 1.461 . S
C452 H472 0.932 . S
C453 C451 1.408 . S
C453 C452 1.310 . S
C453 H473 0.930 . S
C454 C455 1.474 . S
C454 C456 1.285 . S
C454 H474 0.929 . S
C455 C452 1.461 . S
C455 C454 1.474 . S
C456 C451 1.342 . S
C456 C454 1.285 . S
C456 H475 0.930 . S
C457 C460 1.424 . S
C457 C462 1.245 . S
C457 C463 1.428 . S
C458 C461 1.260 . S
C458 C462 1.477 . S
C458 H476 0.932 . S
C459 C460 1.384 . S
C459 C461 1.479 . S
C459 H477 0.929 . S
C460 C457 1.424 . S
C460 C459 1.384 . S
C460 H478 0.928 . S
C461 C458 1.260 . S
C461 C459 1.479 . S
C462 C457 1.245 . S
C462 C458 1.477 . S
C462 H479 0.932 . S
C463 U446 2.882 . S
C463 C457 1.428 . S
C463 O466 1.301 . S
C463 O467 1.282 . S
O464 U446 2.441 . S
O464 C450 1.249 . S
O465 U446 2.420 . S
O465 C450 1.202 . S
O466 U446 2.455 . S
O466 C463 1.301 . S
O467 U446 2.449 . S
O467 C463 1.282 . S
H468 C441 0.931 . S
H469 C443 0.929 . S
H470 C444 0.930 . S
H471 C445 0.931 . S
H472 C452 0.932 . S
H473 C453 0.930 . S
H474 C454 0.929 . S
H475 C456 0.930 . S
H476 C458 0.932 . S
H477 C459 0.929 . S
H478 C460 0.928 . S
H479 C462 0.932 . S
C480 C481 1.264 . S
C480 C485 1.479 . S
C480 C490 1.465 . S
C481 C480 1.264 . S
C481 C483 1.339 . S
C481 H508 0.931 . S
C482 C483 1.395 . S
C482 C484 1.320 . S
C483 C481 1.339 . S
C483 C482 1.395 . S
C483 H509 0.929 . S
C484 C482 1.320 . S
C484 C485 1.405 . S
C484 H510 0.930 . S
C485 C480 1.479 . S
C485 C484 1.405 . S
C485 H511 0.931 . S
U486 O487 2.454 . S
U486 O488 2.458 . S
U486 C489 2.984 . S
U486 C490 2.847 . S
U486 C503 2.882 . S
U486 O504 2.441 . S
U486 O505 2.420 . S
U486 O506 2.455 . S
U486 O507 2.449 . S
O487 U486 2.454 . S
O487 C489 1.353 . S
O488 U486 2.458 . S
O488 C489 1.286 . S
C489 U486 2.984 . S
C489 O487 1.353 . S
C489 O488 1.286 . S
C489 C491 1.363 . S
C490 C480 1.465 . S
C490 U486 2.847 . S
C490 O504 1.249 . S
C490 O505 1.202 . S
C491 C489 1.363 . S
C491 C493 1.408 . S
C491 C496 1.342 . S
C492 C493 1.310 . S
C492 C495 1.461 . S
C492 H512 0.932 . S
C493 C491 1.408 . S
C493 C492 1.310 . S
C493 H513 0.930 . S
C494 C495 1.474 . S
C494 C496 1.285 . S
C494 H514 0.929 . S
C495 C492 1.461 . S
C495 C494 1.474 . S
C496 C491 1.342 . S
C496 C494 1.285 . S
C496 H515 0.930 . S
C497 C500 1.424 . S
C497 C502 1.245 . S
C497 C503 1.428 . S
C498 C501 1.260 . S
C498 C502 1.477 . S
C498 H516 0.932 . S
C499 C500 1.384 . S
C499 C501 1.479 . S
C499 H517 0.929 . S
C500 C497 1.424 . S
C500 C499 1.384 . S
C500 H518 0.928 . S
C501 C498 1.260 . S
C501 C499 1.479 . S
C502 C497 1.245 . S
C502 C498 1.477 . S
C502 H519 0.932 . S
C503 U486 2.882 . S
C503 C497 1.428 . S
C503 O506 1.301 . S
C503 O507 1.282 . S
O504 U486 2.441 . S
O504 C490 1.249 . S
O505 U486 2.420 . S
O505 C490 1.202 . S
O506 U486 2.455 . S
O506 C503 1.301 . S
O507 U486 2.449 . S
O507 C503 1.282 . S
H508 C481 0.931 . S
H509 C483 0.929 . S
H510 C484 0.930 . S
H511 C485 0.931 . S
H512 C492 0.932 . S
H513 C493 0.930 . S
H514 C494 0.929 . S
H515 C496 0.930 . S
H516 C498 0.932 . S
H517 C499 0.929 . S
H518 C500 0.928 . S
H519 C502 0.932 . S
C520 C521 1.264 . S
C520 C525 1.479 . S
C520 C530 1.465 . S
C521 C520 1.264 . S
C521 C523 1.339 . S
C521 H548 0.931 . S
C522 C523 1.395 . S
C522 C524 1.320 . S
C523 C521 1.339 . S
C523 C522 1.395 . S
C523 H549 0.929 . S
C524 C522 1.320 . S
C524 C525 1.405 . S
C524 H550 0.930 . S
C525 C520 1.479 . S
C525 C524 1.405 . S
C525 H551 0.931 . S
U526 O527 2.454 . S
U526 O528 2.458 . S
U526 C529 2.984 . S
U526 C530 2.847 . S
U526 C543 2.882 . S
U526 O544 2.441 . S
U526 O545 2.420 . S
U526 O546 2.455 . S
U526 O547 2.449 . S
O527 U526 2.454 . S
O527 C529 1.353 . S
O528 U526 2.458 . S
O528 C529 1.286 . S
C529 U526 2.984 . S
C529 O527 1.353 . S
C529 O528 1.286 . S
C529 C531 1.363 . S
C530 C520 1.465 . S
C530 U526 2.847 . S
C530 O544 1.249 . S
C530 O545 1.202 . S
C531 C529 1.363 . S
C531 C533 1.408 . S
C531 C536 1.342 . S
C532 C533 1.310 . S
C532 C535 1.461 . S
C532 H552 0.932 . S
C533 C531 1.408 . S
C533 C532 1.310 . S
C533 H553 0.930 . S
C534 C535 1.474 . S
C534 C536 1.285 . S
C534 H554 0.929 . S
C535 C532 1.461 . S
C535 C534 1.474 . S
C536 C531 1.342 . S
C536 C534 1.285 . S
C536 H555 0.930 . S
C537 C540 1.424 . S
C537 C542 1.245 . S
C537 C543 1.428 . S
C538 C541 1.260 . S
C538 C542 1.477 . S
C538 H556 0.932 . S
C539 C540 1.384 . S
C539 C541 1.479 . S
C539 H557 0.929 . S
C540 C537 1.424 . S
C540 C539 1.384 . S
C540 H558 0.928 . S
C541 C538 1.260 . S
C541 C539 1.479 . S
C542 C537 1.245 . S
C542 C538 1.477 . S
C542 H559 0.932 . S
C543 U526 2.882 . S
C543 C537 1.428 . S
C543 O546 1.301 . S
C543 O547 1.282 . S
O544 U526 2.441 . S
O544 C530 1.249 . S
O545 U526 2.420 . S
O545 C530 1.202 . S
O546 U526 2.455 . S
O546 C543 1.301 . S
O547 U526 2.449 . S
O547 C543 1.282 . S
H548 C521 0.931 . S
H549 C523 0.929 . S
H550 C524 0.930 . S
H551 C525 0.931 . S
H552 C532 0.932 . S
H553 C533 0.930 . S
H554 C534 0.929 . S
H555 C536 0.930 . S
H556 C538 0.932 . S
H557 C539 0.929 . S
H558 C540 0.928 . S
H559 C542 0.932 . S
C560 C561 1.264 . S
C560 C565 1.479 . S
C560 C570 1.465 . S
C561 C560 1.264 . S
C561 C563 1.339 . S
C561 H588 0.931 . S
C562 C563 1.395 . S
C562 C564 1.320 . S
C563 C561 1.339 . S
C563 C562 1.395 . S
C563 H589 0.929 . S
C564 C562 1.320 . S
C564 C565 1.405 . S
C564 H590 0.930 . S
C565 C560 1.479 . S
C565 C564 1.405 . S
C565 H591 0.931 . S
U566 O567 2.454 . S
U566 O568 2.458 . S
U566 C569 2.984 . S
U566 C570 2.847 . S
U566 C583 2.882 . S
U566 O584 2.441 . S
U566 O585 2.420 . S
U566 O586 2.455 . S
U566 O587 2.449 . S
O567 U566 2.454 . S
O567 C569 1.353 . S
O568 U566 2.458 . S
O568 C569 1.286 . S
C569 U566 2.984 . S
C569 O567 1.353 . S
C569 O568 1.286 . S
C569 C571 1.363 . S
C570 C560 1.465 . S
C570 U566 2.847 . S
C570 O584 1.249 . S
C570 O585 1.202 . S
C571 C569 1.363 . S
C571 C573 1.408 . S
C571 C576 1.342 . S
C572 C573 1.310 . S
C572 C575 1.461 . S
C572 H592 0.932 . S
C573 C571 1.408 . S
C573 C572 1.310 . S
C573 H593 0.930 . S
C574 C575 1.474 . S
C574 C576 1.285 . S
C574 H594 0.929 . S
C575 C572 1.461 . S
C575 C574 1.474 . S
C576 C571 1.342 . S
C576 C574 1.285 . S
C576 H595 0.930 . S
C577 C580 1.424 . S
C577 C582 1.245 . S
C577 C583 1.428 . S
C578 C581 1.260 . S
C578 C582 1.477 . S
C578 H596 0.932 . S
C579 C580 1.384 . S
C579 C581 1.479 . S
C579 H597 0.929 . S
C580 C577 1.424 . S
C580 C579 1.384 . S
C580 H598 0.928 . S
C581 C578 1.260 . S
C581 C579 1.479 . S
C582 C577 1.245 . S
C582 C578 1.477 . S
C582 H599 0.932 . S
C583 U566 2.882 . S
C583 C577 1.428 . S
C583 O586 1.301 . S
C583 O587 1.282 . S
O584 U566 2.441 . S
O584 C570 1.249 . S
O585 U566 2.420 . S
O585 C570 1.202 . S
O586 U566 2.455 . S
O586 C583 1.301 . S
O587 U566 2.449 . S
O587 C583 1.282 . S
H588 C561 0.931 . S
H589 C563 0.929 . S
H590 C564 0.930 . S
H591 C565 0.931 . S
H592 C572 0.932 . S
H593 C573 0.930 . S
H594 C574 0.929 . S
H595 C576 0.930 . S
H596 C578 0.932 . S
H597 C579 0.929 . S
H598 C580 0.928 . S
H599 C582 0.932 . S
C600 C601 1.264 . S
C600 C605 1.479 . S
C600 C610 1.465 . S
C601 C600 1.264 . S
C601 C603 1.339 . S
C601 H628 0.931 . S
C602 C603 1.395 . S
C602 C604 1.320 . S
C603 C601 1.339 . S
C603 C602 1.395 . S
C603 H629 0.929 . S
C604 C602 1.320 . S
C604 C605 1.405 . S
C604 H630 0.930 . S
C605 C600 1.479 . S
C605 C604 1.405 . S
C605 H631 0.931 . S
U606 O607 2.454 . S
U606 O608 2.458 . S
U606 C609 2.984 . S
U606 C610 2.847 . S
U606 C623 2.882 . S
U606 O624 2.441 . S
U606 O625 2.420 . S
U606 O626 2.455 . S
U606 O627 2.449 . S
O607 U606 2.454 . S
O607 C609 1.353 . S
O608 U606 2.458 . S
O608 C609 1.286 . S
C609 U606 2.984 . S
C609 O607 1.353 . S
C609 O608 1.286 . S
C609 C611 1.363 . S
C610 C600 1.465 . S
C610 U606 2.847 . S
C610 O624 1.249 . S
C610 O625 1.202 . S
C611 C609 1.363 . S
C611 C613 1.408 . S
C611 C616 1.342 . S
C612 C613 1.310 . S
C612 C615 1.461 . S
C612 H632 0.932 . S
C613 C611 1.408 . S
C613 C612 1.310 . S
C613 H633 0.930 . S
C614 C615 1.474 . S
C614 C616 1.285 . S
C614 H634 0.929 . S
C615 C612 1.461 . S
C615 C614 1.474 . S
C616 C611 1.342 . S
C616 C614 1.285 . S
C616 H635 0.930 . S
C617 C620 1.424 . S
C617 C622 1.245 . S
C617 C623 1.428 . S
C618 C621 1.260 . S
C618 C622 1.477 . S
C618 H636 0.932 . S
C619 C620 1.384 . S
C619 C621 1.479 . S
C619 H637 0.929 . S
C620 C617 1.424 . S
C620 C619 1.384 . S
C620 H638 0.928 . S
C621 C618 1.260 . S
C621 C619 1.479 . S
C622 C617 1.245 . S
C622 C618 1.477 . S
C622 H639 0.932 . S
C623 U606 2.882 . S
C623 C617 1.428 . S
C623 O626 1.301 . S
C623 O627 1.282 . S
O624 U606 2.441 . S
O624 C610 1.249 . S
O625 U606 2.420 . S
O625 C610 1.202 . S
O626 U606 2.455 . S
O626 C623 1.301 . S
O627 U606 2.449 . S
O627 C623 1.282 . S
H628 C601 0.931 . S
H629 C603 0.929 . S
H630 C604 0.930 . S
H631 C605 0.931 . S
H632 C612 0.932 . S
H633 C613 0.930 . S
H634 C614 0.929 . S
H635 C616 0.930 . S
H636 C618 0.932 . S
H637 C619 0.929 . S
H638 C620 0.928 . S
H639 C622 0.932 . S
C640 C641 1.264 . S
C640 C645 1.479 . S
C640 C650 1.465 . S
C641 C640 1.264 . S
C641 C643 1.339 . S
C641 H668 0.931 . S
C642 C643 1.395 . S
C642 C644 1.320 . S
C643 C641 1.339 . S
C643 C642 1.395 . S
C643 H669 0.929 . S
C644 C642 1.320 . S
C644 C645 1.405 . S
C644 H670 0.930 . S
C645 C640 1.479 . S
C645 C644 1.405 . S
C645 H671 0.931 . S
U646 O647 2.454 . S
U646 O648 2.458 . S
U646 C649 2.984 . S
U646 C650 2.847 . S
U646 C663 2.882 . S
U646 O664 2.441 . S
U646 O665 2.420 . S
U646 O666 2.455 . S
U646 O667 2.449 . S
O647 U646 2.454 . S
O647 C649 1.353 . S
O648 U646 2.458 . S
O648 C649 1.286 . S
C649 U646 2.984 . S
C649 O647 1.353 . S
C649 O648 1.286 . S
C649 C651 1.363 . S
C650 C640 1.465 . S
C650 U646 2.847 . S
C650 O664 1.249 . S
C650 O665 1.202 . S
C651 C649 1.363 . S
C651 C653 1.408 . S
C651 C656 1.342 . S
C652 C653 1.310 . S
C652 C655 1.461 . S
C652 H672 0.932 . S
C653 C651 1.408 . S
C653 C652 1.310 . S
C653 H673 0.930 . S
C654 C655 1.474 . S
C654 C656 1.285 . S
C654 H674 0.929 . S
C655 C652 1.461 . S
C655 C654 1.474 . S
C656 C651 1.342 . S
C656 C654 1.285 . S
C656 H675 0.930 . S
C657 C660 1.424 . S
C657 C662 1.245 . S
C657 C663 1.428 . S
C658 C661 1.260 . S
C658 C662 1.477 . S
C658 H676 0.932 . S
C659 C660 1.384 . S
C659 C661 1.479 . S
C659 H677 0.929 . S
C660 C657 1.424 . S
C660 C659 1.384 . S
C660 H678 0.928 . S
C661 C658 1.260 . S
C661 C659 1.479 . S
C662 C657 1.245 . S
C662 C658 1.477 . S
C662 H679 0.932 . S
C663 U646 2.882 . S
C663 C657 1.428 . S
C663 O666 1.301 . S
C663 O667 1.282 . S
O664 U646 2.441 . S
O664 C650 1.249 . S
O665 U646 2.420 . S
O665 C650 1.202 . S
O666 U646 2.455 . S
O666 C663 1.301 . S
O667 U646 2.449 . S
O667 C663 1.282 . S
H668 C641 0.931 . S
H669 C643 0.929 . S
H670 C644 0.930 . S
H671 C645 0.931 . S
H672 C652 0.932 . S
H673 C653 0.930 . S
H674 C654 0.929 . S
H675 C656 0.930 . S
H676 C658 0.932 . S
H677 C659 0.929 . S
H678 C660 0.928 . S
H679 C662 0.932 . S
C680 C681 1.264 . S
C680 C685 1.479 . S
C680 C690 1.465 . S
C681 C680 1.264 . S
C681 C683 1.339 . S
C681 H708 0.931 . S
C682 C683 1.395 . S
C682 C684 1.320 . S
C683 C681 1.339 . S
C683 C682 1.395 . S
C683 H709 0.929 . S
C684 C682 1.320 . S
C684 C685 1.405 . S
C684 H710 0.930 . S
C685 C680 1.479 . S
C685 C684 1.405 . S
C685 H711 0.931 . S
U686 O687 2.454 . S
U686 O688 2.458 . S
U686 C689 2.984 . S
U686 C690 2.847 . S
U686 C703 2.882 . S
U686 O704 2.441 . S
U686 O705 2.420 . S
U686 O706 2.455 . S
U686 O707 2.449 . S
O687 U686 2.454 . S
O687 C689 1.353 . S
O688 U686 2.458 . S
O688 C689 1.286 . S
C689 U686 2.984 . S
C689 O687 1.353 . S
C689 O688 1.286 . S
C689 C691 1.363 . S
C690 C680 1.465 . S
C690 U686 2.847 . S
C690 O704 1.249 . S
C690 O705 1.202 . S
C691 C689 1.363 . S
C691 C693 1.408 . S
C691 C696 1.342 . S
C692 C693 1.310 . S
C692 C695 1.461 . S
C692 H712 0.932 . S
C693 C691 1.408 . S
C693 C692 1.310 . S
C693 H713 0.930 . S
C694 C695 1.474 . S
C694 C696 1.285 . S
C694 H714 0.929 . S
C695 C692 1.461 . S
C695 C694 1.474 . S
C696 C691 1.342 . S
C696 C694 1.285 . S
C696 H715 0.930 . S
C697 C700 1.424 . S
C697 C702 1.245 . S
C697 C703 1.428 . S
C698 C701 1.260 . S
C698 C702 1.477 . S
C698 H716 0.932 . S
C699 C700 1.384 . S
C699 C701 1.479 . S
C699 H717 0.929 . S
C700 C697 1.424 . S
C700 C699 1.384 . S
C700 H718 0.928 . S
C701 C698 1.260 . S
C701 C699 1.479 . S
C702 C697 1.245 . S
C702 C698 1.477 . S
C702 H719 0.932 . S
C703 U686 2.882 . S
C703 C697 1.428 . S
C703 O706 1.301 . S
C703 O707 1.282 . S
O704 U686 2.441 . S
O704 C690 1.249 . S
O705 U686 2.420 . S
O705 C690 1.202 . S
O706 U686 2.455 . S
O706 C703 1.301 . S
O707 U686 2.449 . S
O707 C703 1.282 . S
H708 C681 0.931 . S
H709 C683 0.929 . S
H710 C684 0.930 . S
H711 C685 0.931 . S
H712 C692 0.932 . S
H713 C693 0.930 . S
H714 C694 0.929 . S
H715 C696 0.930 . S
H716 C698 0.932 . S
H717 C699 0.929 . S
H718 C700 0.928 . S
H719 C702 0.932 . S
C720 C721 1.264 . S
C720 C725 1.479 . S
C720 C730 1.465 . S
C721 C720 1.264 . S
C721 C723 1.339 . S
C721 H748 0.931 . S
C722 C723 1.395 . S
C722 C724 1.320 . S
C723 C721 1.339 . S
C723 C722 1.395 . S
C723 H749 0.929 . S
C724 C722 1.320 . S
C724 C725 1.405 . S
C724 H750 0.930 . S
C725 C720 1.479 . S
C725 C724 1.405 . S
C725 H751 0.931 . S
U726 O727 2.454 . S
U726 O728 2.458 . S
U726 C729 2.984 . S
U726 C730 2.847 . S
U726 C743 2.882 . S
U726 O744 2.441 . S
U726 O745 2.420 . S
U726 O746 2.455 . S
U726 O747 2.449 . S
O727 U726 2.454 . S
O727 C729 1.353 . S
O728 U726 2.458 . S
O728 C729 1.286 . S
C729 U726 2.984 . S
C729 O727 1.353 . S
C729 O728 1.286 . S
C729 C731 1.363 . S
C730 C720 1.465 . S
C730 U726 2.847 . S
C730 O744 1.249 . S
C730 O745 1.202 . S
C731 C729 1.363 . S
C731 C733 1.408 . S
C731 C736 1.342 . S
C732 C733 1.310 . S
C732 C735 1.461 . S
C732 H752 0.932 . S
C733 C731 1.408 . S
C733 C732 1.310 . S
C733 H753 0.930 . S
C734 C735 1.474 . S
C734 C736 1.285 . S
C734 H754 0.929 . S
C735 C732 1.461 . S
C735 C734 1.474 . S
C736 C731 1.342 . S
C736 C734 1.285 . S
C736 H755 0.930 . S
C737 C740 1.424 . S
C737 C742 1.245 . S
C737 C743 1.428 . S
C738 C741 1.260 . S
C738 C742 1.477 . S
C738 H756 0.932 . S
C739 C740 1.384 . S
C739 C741 1.479 . S
C739 H757 0.929 . S
C740 C737 1.424 . S
C740 C739 1.384 . S
C740 H758 0.928 . S
C741 C738 1.260 . S
C741 C739 1.479 . S
C742 C737 1.245 . S
C742 C738 1.477 . S
C742 H759 0.932 . S
C743 U726 2.882 . S
C743 C737 1.428 . S
C743 O746 1.301 . S
C743 O747 1.282 . S
O744 U726 2.441 . S
O744 C730 1.249 . S
O745 U726 2.420 . S
O745 C730 1.202 . S
O746 U726 2.455 . S
O746 C743 1.301 . S
O747 U726 2.449 . S
O747 C743 1.282 . S
H748 C721 0.931 . S
H749 C723 0.929 . S
H750 C724 0.930 . S
H751 C725 0.931 . S
H752 C732 0.932 . S
H753 C733 0.930 . S
H754 C734 0.929 . S
H755 C736 0.930 . S
H756 C738 0.932 . S
H757 C739 0.929 . S
H758 C740 0.928 . S
H759 C742 0.932 . S
C760 C761 1.264 . S
C760 C765 1.479 . S
C760 C770 1.465 . S
C761 C760 1.264 . S
C761 C763 1.339 . S
C761 H788 0.931 . S
C762 C763 1.395 . S
C762 C764 1.320 . S
C763 C761 1.339 . S
C763 C762 1.395 . S
C763 H789 0.929 . S
C764 C762 1.320 . S
C764 C765 1.405 . S
C764 H790 0.930 . S
C765 C760 1.479 . S
C765 C764 1.405 . S
C765 H791 0.931 . S
U766 O767 2.454 . S
U766 O768 2.458 . S
U766 C769 2.984 . S
U766 C770 2.847 . S
U766 C783 2.882 . S
U766 O784 2.441 . S
U766 O785 2.420 . S
U766 O786 2.455 . S
U766 O787 2.449 . S
O767 U766 2.454 . S
O767 C769 1.353 . S
O768 U766 2.458 . S
O768 C769 1.286 . S
C769 U766 2.984 . S
C769 O767 1.353 . S
C769 O768 1.286 . S
C769 C771 1.363 . S
C770 C760 1.465 . S
C770 U766 2.847 . S
C770 O784 1.249 . S
C770 O785 1.202 . S
C771 C769 1.363 . S
C771 C773 1.408 . S
C771 C776 1.342 . S
C772 C773 1.310 . S
C772 C775 1.461 . S
C772 H792 0.932 . S
C773 C771 1.408 . S
C773 C772 1.310 . S
C773 H793 0.930 . S
C774 C775 1.474 . S
C774 C776 1.285 . S
C774 H794 0.929 . S
C775 C772 1.461 . S
C775 C774 1.474 . S
C776 C771 1.342 . S
C776 C774 1.285 . S
C776 H795 0.930 . S
C777 C780 1.424 . S
C777 C782 1.245 . S
C777 C783 1.428 . S
C778 C781 1.260 . S
C778 C782 1.477 . S
C778 H796 0.932 . S
C779 C780 1.384 . S
C779 C781 1.479 . S
C779 H797 0.929 . S
C780 C777 1.424 . S
C780 C779 1.384 . S
C780 H798 0.928 . S
C781 C778 1.260 . S
C781 C779 1.479 . S
C782 C777 1.245 . S
C782 C778 1.477 . S
C782 H799 0.932 . S
C783 U766 2.882 . S
C783 C777 1.428 . S
C783 O786 1.301 . S
C783 O787 1.282 . S
O784 U766 2.441 . S
O784 C770 1.249 . S
O785 U766 2.420 . S
O785 C770 1.202 . S
O786 U766 2.455 . S
O786 C783 1.301 . S
O787 U766 2.449 . S
O787 C783 1.282 . S
H788 C761 0.931 . S
H789 C763 0.929 . S
H790 C764 0.930 . S
H791 C765 0.931 . S
H792 C772 0.932 . S
H793 C773 0.930 . S
H794 C774 0.929 . S
H795 C776 0.930 . S
H796 C778 0.932 . S
H797 C779 0.929 . S
H798 C780 0.928 . S
H799 C782 0.932 . S
C800 C801 1.264 . S
C800 C805 1.479 . S
C800 C810 1.465 . S
C801 C800 1.264 . S
C801 C803 1.339 . S
C801 H828 0.931 . S
C802 C803 1.395 . S
C802 C804 1.320 . S
C803 C801 1.339 . S
C803 C802 1.395 . S
C803 H829 0.929 . S
C804 C802 1.320 . S
C804 C805 1.405 . S
C804 H830 0.930 . S
C805 C800 1.479 . S
C805 C804 1.405 . S
C805 H831 0.931 . S
U806 O807 2.454 . S
U806 O808 2.458 . S
U806 C809 2.984 . S
U806 C810 2.847 . S
U806 C823 2.882 . S
U806 O824 2.441 . S
U806 O825 2.420 . S
U806 O826 2.455 . S
U806 O827 2.449 . S
O807 U806 2.454 . S
O807 C809 1.353 . S
O808 U806 2.458 . S
O808 C809 1.286 . S
C809 U806 2.984 . S
C809 O807 1.353 . S
C809 O808 1.286 . S
C809 C811 1.363 . S
C810 C800 1.465 . S
C810 U806 2.847 . S
C810 O824 1.249 . S
C810 O825 1.202 . S
C811 C809 1.363 . S
C811 C813 1.408 . S
C811 C816 1.342 . S
C812 C813 1.310 . S
C812 C815 1.461 . S
C812 H832 0.932 . S
C813 C811 1.408 . S
C813 C812 1.310 . S
C813 H833 0.930 . S
C814 C815 1.474 . S
C814 C816 1.285 . S
C814 H834 0.929 . S
C815 C812 1.461 . S
C815 C814 1.474 . S
C816 C811 1.342 . S
C816 C814 1.285 . S
C816 H835 0.930 . S
C817 C820 1.424 . S
C817 C822 1.245 . S
C817 C823 1.428 . S
C818 C821 1.260 . S
C818 C822 1.477 . S
C818 H836 0.932 . S
C819 C820 1.384 . S
C819 C821 1.479 . S
C819 H837 0.929 . S
C820 C817 1.424 . S
C820 C819 1.384 . S
C820 H838 0.928 . S
C821 C818 1.260 . S
C821 C819 1.479 . S
C822 C817 1.245 . S
C822 C818 1.477 . S
C822 H839 0.932 . S
C823 U806 2.882 . S
C823 C817 1.428 . S
C823 O826 1.301 . S
C823 O827 1.282 . S
O824 U806 2.441 . S
O824 C810 1.249 . S
O825 U806 2.420 . S
O825 C810 1.202 . S
O826 U806 2.455 . S
O826 C823 1.301 . S
O827 U806 2.449 . S
O827 C823 1.282 . S
H828 C801 0.931 . S
H829 C803 0.929 . S
H830 C804 0.930 . S
H831 C805 0.931 . S
H832 C812 0.932 . S
H833 C813 0.930 . S
H834 C814 0.929 . S
H835 C816 0.930 . S
H836 C818 0.932 . S
H837 C819 0.929 . S
H838 C820 0.928 . S
H839 C822 0.932 . S
C840 C841 1.264 . S
C840 C845 1.479 . S
C840 C850 1.465 . S
C841 C840 1.264 . S
C841 C843 1.339 . S
C841 H868 0.931 . S
C842 C843 1.395 . S
C842 C844 1.320 . S
C843 C841 1.339 . S
C843 C842 1.395 . S
C843 H869 0.929 . S
C844 C842 1.320 . S
C844 C845 1.405 . S
C844 H870 0.930 . S
C845 C840 1.479 . S
C845 C844 1.405 . S
C845 H871 0.931 . S
U846 O847 2.454 . S
U846 O848 2.458 . S
U846 C849 2.984 . S
U846 C850 2.847 . S
U846 C863 2.882 . S
U846 O864 2.441 . S
U846 O865 2.420 . S
U846 O866 2.455 . S
U846 O867 2.449 . S
O847 U846 2.454 . S
O847 C849 1.353 . S
O848 U846 2.458 . S
O848 C849 1.286 . S
C849 U846 2.984 . S
C849 O847 1.353 . S
C849 O848 1.286 . S
C849 C851 1.363 . S
C850 C840 1.465 . S
C850 U846 2.847 . S
C850 O864 1.249 . S
C850 O865 1.202 . S
C851 C849 1.363 . S
C851 C853 1.408 . S
C851 C856 1.342 . S
C852 C853 1.310 . S
C852 C855 1.461 . S
C852 H872 0.932 . S
C853 C851 1.408 . S
C853 C852 1.310 . S
C853 H873 0.930 . S
C854 C855 1.474 . S
C854 C856 1.285 . S
C854 H874 0.929 . S
C855 C852 1.461 . S
C855 C854 1.474 . S
C856 C851 1.342 . S
C856 C854 1.285 . S
C856 H875 0.930 . S
C857 C860 1.424 . S
C857 C862 1.245 . S
C857 C863 1.428 . S
C858 C861 1.260 . S
C858 C862 1.477 . S
C858 H876 0.932 . S
C859 C860 1.384 . S
C859 C861 1.479 . S
C859 H877 0.929 . S
C860 C857 1.424 . S
C860 C859 1.384 . S
C860 H878 0.928 . S
C861 C858 1.260 . S
C861 C859 1.479 . S
C862 C857 1.245 . S
C862 C858 1.477 . S
C862 H879 0.932 . S
C863 U846 2.882 . S
C863 C857 1.428 . S
C863 O866 1.301 . S
C863 O867 1.282 . S
O864 U846 2.441 . S
O864 C850 1.249 . S
O865 U846 2.420 . S
O865 C850 1.202 . S
O866 U846 2.455 . S
O866 C863 1.301 . S
O867 U846 2.449 . S
O867 C863 1.282 . S
H868 C841 0.931 . S
H869 C843 0.929 . S
H870 C844 0.930 . S
H871 C845 0.931 . S
H872 C852 0.932 . S
H873 C853 0.930 . S
H874 C854 0.929 . S
H875 C856 0.930 . S
H876 C858 0.932 . S
H877 C859 0.929 . S
H878 C860 0.928 . S
H879 C862 0.932 . S
C880 C881 1.264 . S
C880 C885 1.479 . S
C880 C890 1.465 . S
C881 C880 1.264 . S
C881 C883 1.339 . S
C881 H908 0.931 . S
C882 C883 1.395 . S
C882 C884 1.320 . S
C883 C881 1.339 . S
C883 C882 1.395 . S
C883 H909 0.929 . S
C884 C882 1.320 . S
C884 C885 1.405 . S
C884 H910 0.930 . S
C885 C880 1.479 . S
C885 C884 1.405 . S
C885 H911 0.931 . S
U886 O887 2.454 . S
U886 O888 2.458 . S
U886 C889 2.984 . S
U886 C890 2.847 . S
U886 C903 2.882 . S
U886 O904 2.441 . S
U886 O905 2.420 . S
U886 O906 2.455 . S
U886 O907 2.449 . S
O887 U886 2.454 . S
O887 C889 1.353 . S
O888 U886 2.458 . S
O888 C889 1.286 . S
C889 U886 2.984 . S
C889 O887 1.353 . S
C889 O888 1.286 . S
C889 C891 1.363 . S
C890 C880 1.465 . S
C890 U886 2.847 . S
C890 O904 1.249 . S
C890 O905 1.202 . S
C891 C889 1.363 . S
C891 C893 1.408 . S
C891 C896 1.342 . S
C892 C893 1.310 . S
C892 C895 1.461 . S
C892 H912 0.932 . S
C893 C891 1.408 . S
C893 C892 1.310 . S
C893 H913 0.930 . S
C894 C895 1.474 . S
C894 C896 1.285 . S
C894 H914 0.929 . S
C895 C892 1.461 . S
C895 C894 1.474 . S
C896 C891 1.342 . S
C896 C894 1.285 . S
C896 H915 0.930 . S
C897 C900 1.424 . S
C897 C902 1.245 . S
C897 C903 1.428 . S
C898 C901 1.260 . S
C898 C902 1.477 . S
C898 H916 0.932 . S
C899 C900 1.384 . S
C899 C901 1.479 . S
C899 H917 0.929 . S
C900 C897 1.424 . S
C900 C899 1.384 . S
C900 H918 0.928 . S
C901 C898 1.260 . S
C901 C899 1.479 . S
C902 C897 1.245 . S
C902 C898 1.477 . S
C902 H919 0.932 . S
C903 U886 2.882 . S
C903 C897 1.428 . S
C903 O906 1.301 . S
C903 O907 1.282 . S
O904 U886 2.441 . S
O904 C890 1.249 . S
O905 U886 2.420 . S
O905 C890 1.202 . S
O906 U886 2.455 . S
O906 C903 1.301 . S
O907 U886 2.449 . S
O907 C903 1.282 . S
H908 C881 0.931 . S
H909 C883 0.929 . S
H910 C884 0.930 . S
H911 C885 0.931 . S
H912 C892 0.932 . S
H913 C893 0.930 . S
H914 C894 0.929 . S
H915 C896 0.930 . S
H916 C898 0.932 . S
H917 C899 0.929 . S
H918 C900 0.928 . S
H919 C902 0.932 . S
C920 C921 1.264 . S
C920 C925 1.479 . S
C920 C930 1.465 . S
C921 C920 1.264 . S
C921 C923 1.339 . S
C921 H948 0.931 . S
C922 C923 1.395 . S
C922 C924 1.320 . S
C923 C921 1.339 . S
C923 C922 1.395 . S
C923 H949 0.929 . S
C924 C922 1.320 . S
C924 C925 1.405 . S
C924 H950 0.930 . S
C925 C920 1.479 . S
C925 C924 1.405 . S
C925 H951 0.931 . S
U926 O927 2.454 . S
U926 O928 2.458 . S
U926 C929 2.984 . S
U926 C930 2.847 . S
U926 C943 2.882 . S
U926 O944 2.441 . S
U926 O945 2.420 . S
U926 O946 2.455 . S
U926 O947 2.449 . S
O927 U926 2.454 . S
O927 C929 1.353 . S
O928 U926 2.458 . S
O928 C929 1.286 . S
C929 U926 2.984 . S
C929 O927 1.353 . S
C929 O928 1.286 . S
C929 C931 1.363 . S
C930 C920 1.465 . S
C930 U926 2.847 . S
C930 O944 1.249 . S
C930 O945 1.202 . S
C931 C929 1.363 . S
C931 C933 1.408 . S
C931 C936 1.342 . S
C932 C933 1.310 . S
C932 C935 1.461 . S
C932 H952 0.932 . S
C933 C931 1.408 . S
C933 C932 1.310 . S
C933 H953 0.930 . S
C934 C935 1.474 . S
C934 C936 1.285 . S
C934 H954 0.929 . S
C935 C932 1.461 . S
C935 C934 1.474 . S
C936 C931 1.342 . S
C936 C934 1.285 . S
C936 H955 0.930 . S
C937 C940 1.424 . S
C937 C942 1.245 . S
C937 C943 1.428 . S
C938 C941 1.260 . S
C938 C942 1.477 . S
C938 H956 0.932 . S
C939 C940 1.384 . S
C939 C941 1.479 . S
C939 H957 0.929 . S
C940 C937 1.424 . S
C940 C939 1.384 . S
C940 H958 0.928 . S
C941 C938 1.260 . S
C941 C939 1.479 . S
C942 C937 1.245 . S
C942 C938 1.477 . S
C942 H959 0.932 . S
C943 U926 2.882 . S
C943 C937 1.428 . S
C943 O946 1.301 . S
C943 O947 1.282 . S
O944 U926 2.441 . S
O944 C930 1.249 . S
O945 U926 2.420 . S
O945 C930 1.202 . S
O946 U926 2.455 . S
O946 C943 1.301 . S
O947 U926 2.449 . S
O947 C943 1.282 . S
H948 C921 0.931 . S
H949 C923 0.929 . S
H950 C924 0.930 . S
H951 C925 0.931 . S
H952 C932 0.932 . S
H953 C933 0.930 . S
H954 C934 0.929 . S
H955 C936 0.930 . S
H956 C938 0.932 . S
H957 C939 0.929 . S
H958 C940 0.928 . S
H959 C942 0.932 . S
C960 C961 1.264 . S
C960 C965 1.479 . S
C960 C970 1.465 . S
C961 C960 1.264 . S
C961 C963 1.339 . S
C961 H988 0.931 . S
C962 C963 1.395 . S
C962 C964 1.320 . S
C963 C961 1.339 . S
C963 C962 1.395 . S
C963 H989 0.929 . S
C964 C962 1.320 . S
C964 C965 1.405 . S
C964 H990 0.930 . S
C965 C960 1.479 . S
C965 C964 1.405 . S
C965 H991 0.931 . S
U966 O967 2.454 . S
U966 O968 2.458 . S
U966 C969 2.984 . S
U966 C970 2.847 . S
U966 C983 2.882 . S
U966 O984 2.441 . S
U966 O985 2.420 . S
U966 O986 2.455 . S
U966 O987 2.449 . S
O967 U966 2.454 . S
O967 C969 1.353 . S
O968 U966 2.458 . S
O968 C969 1.286 . S
C969 U966 2.984 . S
C969 O967 1.353 . S
C969 O968 1.286 . S
C969 C971 1.363 . S
C970 C960 1.465 . S
C970 U966 2.847 . S
C970 O984 1.249 . S
C970 O985 1.202 . S
C971 C969 1.363 . S
C971 C973 1.408 . S
C971 C976 1.342 . S
C972 C973 1.310 . S
C972 C975 1.461 . S
C972 H992 0.932 . S
C973 C971 1.408 . S
C973 C972 1.310 . S
C973 H993 0.930 . S
C974 C975 1.474 . S
C974 C976 1.285 . S
C974 H994 0.929 . S
C975 C972 1.461 . S
C975 C974 1.474 . S
C976 C971 1.342 . S
C976 C974 1.285 . S
C976 H995 0.930 . S
C977 C980 1.424 . S
C977 C982 1.245 . S
C977 C983 1.428 . S
C978 C981 1.260 . S
C978 C982 1.477 . S
C978 H996 0.932 . S
C979 C980 1.384 . S
C979 C981 1.479 . S
C979 H997 0.929 . S
C980 C977 1.424 . S
C980 C979 1.384 . S
C980 H998 0.928 . S
C981 C978 1.260 . S
C981 C979 1.479 . S
C982 C977 1.245 . S
C982 C978 1.477 . S
C982 H999 0.932 . S
C983 U966 2.882 . S
C983 C977 1.428 . S
C983 O986 1.301 . S
C983 O987 1.282 . S
O984 U966 2.441 . S
O984 C970 1.249 . S
O985 U966 2.420 . S
O985 C970 1.202 . S
O986 U966 2.455 . S
O986 C983 1.301 . S
O987 U966 2.449 . S
O987 C983 1.282 . S
H988 C961 0.931 . S
H989 C963 0.929 . S
H990 C964 0.930 . S
H991 C965 0.931 . S
H992 C972 0.932 . S
H993 C973 0.930 . S
H994 C974 0.929 . S
H995 C976 0.930 . S
H996 C978 0.932 . S
H997 C979 0.929 . S
H998 C980 0.928 . S
H999 C982 0.932 . S
C1000 C1001 1.264 . S
C1000 C1005 1.479 . S
C1000 C1010 1.465 . S
C1001 C1000 1.264 . S
C1001 C1003 1.339 . S
C1001 H1028 0.931 . S
C1002 C1003 1.395 . S
C1002 C1004 1.320 . S
C1003 C1001 1.339 . S
C1003 C1002 1.395 . S
C1003 H1029 0.929 . S
C1004 C1002 1.320 . S
C1004 C1005 1.405 . S
C1004 H1030 0.930 . S
C1005 C1000 1.479 . S
C1005 C1004 1.405 . S
C1005 H1031 0.931 . S
U1006 O1007 2.454 . S
U1006 O1008 2.458 . S
U1006 C1009 2.984 . S
U1006 C1010 2.847 . S
U1006 C1023 2.882 . S
U1006 O1024 2.441 . S
U1006 O1025 2.420 . S
U1006 O1026 2.455 . S
U1006 O1027 2.449 . S
O1007 U1006 2.454 . S
O1007 C1009 1.353 . S
O1008 U1006 2.458 . S
O1008 C1009 1.286 . S
C1009 U1006 2.984 . S
C1009 O1007 1.353 . S
C1009 O1008 1.286 . S
C1009 C1011 1.363 . S
C1010 C1000 1.465 . S
C1010 U1006 2.847 . S
C1010 O1024 1.249 . S
C1010 O1025 1.202 . S
C1011 C1009 1.363 . S
C1011 C1013 1.408 . S
C1011 C1016 1.342 . S
C1012 C1013 1.310 . S
C1012 C1015 1.461 . S
C1012 H1032 0.932 . S
C1013 C1011 1.408 . S
C1013 C1012 1.310 . S
C1013 H1033 0.930 . S
C1014 C1015 1.474 . S
C1014 C1016 1.285 . S
C1014 H1034 0.929 . S
C1015 C1012 1.461 . S
C1015 C1014 1.474 . S
C1016 C1011 1.342 . S
C1016 C1014 1.285 . S
C1016 H1035 0.930 . S
C1017 C1020 1.424 . S
C1017 C1022 1.245 . S
C1017 C1023 1.428 . S
C1018 C1021 1.260 . S
C1018 C1022 1.477 . S
C1018 H1036 0.932 . S
C1019 C1020 1.384 . S
C1019 C1021 1.479 . S
C1019 H1037 0.929 . S
C1020 C1017 1.424 . S
C1020 C1019 1.384 . S
C1020 H1038 0.928 . S
C1021 C1018 1.260 . S
C1021 C1019 1.479 . S
C1022 C1017 1.245 . S
C1022 C1018 1.477 . S
C1022 H1039 0.932 . S
C1023 U1006 2.882 . S
C1023 C1017 1.428 . S
C1023 O1026 1.301 . S
C1023 O1027 1.282 . S
O1024 U1006 2.441 . S
O1024 C1010 1.249 . S
O1025 U1006 2.420 . S
O1025 C1010 1.202 . S
O1026 U1006 2.455 . S
O1026 C1023 1.301 . S
O1027 U1006 2.449 . S
O1027 C1023 1.282 . S
H1028 C1001 0.931 . S
H1029 C1003 0.929 . S
H1030 C1004 0.930 . S
H1031 C1005 0.931 . S
H1032 C1012 0.932 . S
H1033 C1013 0.930 . S
H1034 C1014 0.929 . S
H1035 C1016 0.930 . S
H1036 C1018 0.932 . S
H1037 C1019 0.929 . S
H1038 C1020 0.928 . S
H1039 C1022 0.932 . S
C1040 C1041 1.264 . S
C1040 C1045 1.479 . S
C1040 C1050 1.465 . S
C1041 C1040 1.264 . S
C1041 C1043 1.339 . S
C1041 H1068 0.931 . S
C1042 C1043 1.395 . S
C1042 C1044 1.320 . S
C1043 C1041 1.339 . S
C1043 C1042 1.395 . S
C1043 H1069 0.929 . S
C1044 C1042 1.320 . S
C1044 C1045 1.405 . S
C1044 H1070 0.930 . S
C1045 C1040 1.479 . S
C1045 C1044 1.405 . S
C1045 H1071 0.931 . S
U1046 O1047 2.454 . S
U1046 O1048 2.458 . S
U1046 C1049 2.984 . S
U1046 C1050 2.847 . S
U1046 C1063 2.882 . S
U1046 O1064 2.441 . S
U1046 O1065 2.420 . S
U1046 O1066 2.455 . S
U1046 O1067 2.449 . S
O1047 U1046 2.454 . S
O1047 C1049 1.353 . S
O1048 U1046 2.458 . S
O1048 C1049 1.286 . S
C1049 U1046 2.984 . S
C1049 O1047 1.353 . S
C1049 O1048 1.286 . S
C1049 C1051 1.363 . S
C1050 C1040 1.465 . S
C1050 U1046 2.847 . S
C1050 O1064 1.249 . S
C1050 O1065 1.202 . S
C1051 C1049 1.363 . S
C1051 C1053 1.408 . S
C1051 C1056 1.342 . S
C1052 C1053 1.310 . S
C1052 C1055 1.461 . S
C1052 H1072 0.932 . S
C1053 C1051 1.408 . S
C1053 C1052 1.310 . S
C1053 H1073 0.930 . S
C1054 C1055 1.474 . S
C1054 C1056 1.285 . S
C1054 H1074 0.929 . S
C1055 C1052 1.461 . S
C1055 C1054 1.474 . S
C1056 C1051 1.342 . S
C1056 C1054 1.285 . S
C1056 H1075 0.930 . S
C1057 C1060 1.424 . S
C1057 C1062 1.245 . S
C1057 C1063 1.428 . S
C1058 C1061 1.260 . S
C1058 C1062 1.477 . S
C1058 H1076 0.932 . S
C1059 C1060 1.384 . S
C1059 C1061 1.479 . S
C1059 H1077 0.929 . S
C1060 C1057 1.424 . S
C1060 C1059 1.384 . S
C1060 H1078 0.928 . S
C1061 C1058 1.260 . S
C1061 C1059 1.479 . S
C1062 C1057 1.245 . S
C1062 C1058 1.477 . S
C1062 H1079 0.932 . S
C1063 U1046 2.882 . S
C1063 C1057 1.428 . S
C1063 O1066 1.301 . S
C1063 O1067 1.282 . S
O1064 U1046 2.441 . S
O1064 C1050 1.249 . S
O1065 U1046 2.420 . S
O1065 C1050 1.202 . S
O1066 U1046 2.455 . S
O1066 C1063 1.301 . S
O1067 U1046 2.449 . S
O1067 C1063 1.282 . S
H1068 C1041 0.931 . S
H1069 C1043 0.929 . S
H1070 C1044 0.930 . S
H1071 C1045 0.931 . S
H1072 C1052 0.932 . S
H1073 C1053 0.930 . S
H1074 C1054 0.929 . S
H1075 C1056 0.930 . S
H1076 C1058 0.932 . S
H1077 C1059 0.929 . S
H1078 C1060 0.928 . S
H1079 C1062 0.932 . S
C1080 C1081 1.264 . S
C1080 C1085 1.479 . S
C1080 C1090 1.465 . S
C1081 C1080 1.264 . S
C1081 C1083 1.339 . S
C1081 H1108 0.931 . S
C1082 C1083 1.395 . S
C1082 C1084 1.320 . S
C1083 C1081 1.339 . S
C1083 C1082 1.395 . S
C1083 H1109 0.929 . S
C1084 C1082 1.320 . S
C1084 C1085 1.405 . S
C1084 H1110 0.930 . S
C1085 C1080 1.479 . S
C1085 C1084 1.405 . S
C1085 H1111 0.931 . S
U1086 O1087 2.454 . S
U1086 O1088 2.458 . S
U1086 C1089 2.984 . S
U1086 C1090 2.847 . S
U1086 C1103 2.882 . S
U1086 O1104 2.441 . S
U1086 O1105 2.420 . S
U1086 O1106 2.455 . S
U1086 O1107 2.449 . S
O1087 U1086 2.454 . S
O1087 C1089 1.353 . S
O1088 U1086 2.458 . S
O1088 C1089 1.286 . S
C1089 U1086 2.984 . S
C1089 O1087 1.353 . S
C1089 O1088 1.286 . S
C1089 C1091 1.363 . S
C1090 C1080 1.465 . S
C1090 U1086 2.847 . S
C1090 O1104 1.249 . S
C1090 O1105 1.202 . S
C1091 C1089 1.363 . S
C1091 C1093 1.408 . S
C1091 C1096 1.342 . S
C1092 C1093 1.310 . S
C1092 C1095 1.461 . S
C1092 H1112 0.932 . S
C1093 C1091 1.408 . S
C1093 C1092 1.310 . S
C1093 H1113 0.930 . S
C1094 C1095 1.474 . S
C1094 C1096 1.285 . S
C1094 H1114 0.929 . S
C1095 C1092 1.461 . S
C1095 C1094 1.474 . S
C1096 C1091 1.342 . S
C1096 C1094 1.285 . S
C1096 H1115 0.930 . S
C1097 C1100 1.424 . S
C1097 C1102 1.245 . S
C1097 C1103 1.428 . S
C1098 C1101 1.260 . S
C1098 C1102 1.477 . S
C1098 H1116 0.932 . S
C1099 C1100 1.384 . S
C1099 C1101 1.479 . S
C1099 H1117 0.929 . S
C1100 C1097 1.424 . S
C1100 C1099 1.384 . S
C1100 H1118 0.928 . S
C1101 C1098 1.260 . S
C1101 C1099 1.479 . S
C1102 C1097 1.245 . S
C1102 C1098 1.477 . S
C1102 H1119 0.932 . S
C1103 U1086 2.882 . S
C1103 C1097 1.428 . S
C1103 O1106 1.301 . S
C1103 O1107 1.282 . S
O1104 U1086 2.441 . S
O1104 C1090 1.249 . S
O1105 U1086 2.420 . S
O1105 C1090 1.202 . S
O1106 U1086 2.455 . S
O1106 C1103 1.301 . S
O1107 U1086 2.449 . S
O1107 C1103 1.282 . S
H1108 C1081 0.931 . S
H1109 C1083 0.929 . S
H1110 C1084 0.930 . S
H1111 C1085 0.931 . S
H1112 C1092 0.932 . S
H1113 C1093 0.930 . S
H1114 C1094 0.929 . S
H1115 C1096 0.930 . S
H1116 C1098 0.932 . S
H1117 C1099 0.929 . S
H1118 C1100 0.928 . S
H1119 C1102 0.932 . S
C1120 C1121 1.264 . S
C1120 C1125 1.479 . S
C1120 C1130 1.465 . S
C1121 C1120 1.264 . S
C1121 C1123 1.339 . S
C1121 H1148 0.931 . S
C1122 C1123 1.395 . S
C1122 C1124 1.320 . S
C1123 C1121 1.339 . S
C1123 C1122 1.395 . S
C1123 H1149 0.929 . S
C1124 C1122 1.320 . S
C1124 C1125 1.405 . S
C1124 H1150 0.930 . S
C1125 C1120 1.479 . S
C1125 C1124 1.405 . S
C1125 H1151 0.931 . S
U1126 O1127 2.454 . S
U1126 O1128 2.458 . S
U1126 C1129 2.984 . S
U1126 C1130 2.847 . S
U1126 C1143 2.882 . S
U1126 O1144 2.441 . S
U1126 O1145 2.420 . S
U1126 O1146 2.455 . S
U1126 O1147 2.449 . S
O1127 U1126 2.454 . S
O1127 C1129 1.353 . S
O1128 U1126 2.458 . S
O1128 C1129 1.286 . S
C1129 U1126 2.984 . S
C1129 O1127 1.353 . S
C1129 O1128 1.286 . S
C1129 C1131 1.363 . S
C1130 C1120 1.465 . S
C1130 U1126 2.847 . S
C1130 O1144 1.249 . S
C1130 O1145 1.202 . S
C1131 C1129 1.363 . S
C1131 C1133 1.408 . S
C1131 C1136 1.342 . S
C1132 C1133 1.310 . S
C1132 C1135 1.461 . S
C1132 H1152 0.932 . S
C1133 C1131 1.408 . S
C1133 C1132 1.310 . S
C1133 H1153 0.930 . S
C1134 C1135 1.474 . S
C1134 C1136 1.285 . S
C1134 H1154 0.929 . S
C1135 C1132 1.461 . S
C1135 C1134 1.474 . S
C1136 C1131 1.342 . S
C1136 C1134 1.285 . S
C1136 H1155 0.930 . S
C1137 C1140 1.424 . S
C1137 C1142 1.245 . S
C1137 C1143 1.428 . S
C1138 C1141 1.260 . S
C1138 C1142 1.477 . S
C1138 H1156 0.932 . S
C1139 C1140 1.384 . S
C1139 C1141 1.479 . S
C1139 H1157 0.929 . S
C1140 C1137 1.424 . S
C1140 C1139 1.384 . S
C1140 H1158 0.928 . S
C1141 C1138 1.260 . S
C1141 C1139 1.479 . S
C1142 C1137 1.245 . S
C1142 C1138 1.477 . S
C1142 H1159 0.932 . S
C1143 U1126 2.882 . S
C1143 C1137 1.428 . S
C1143 O1146 1.301 . S
C1143 O1147 1.282 . S
O1144 U1126 2.441 . S
O1144 C1130 1.249 . S
O1145 U1126 2.420 . S
O1145 C1130 1.202 . S
O1146 U1126 2.455 . S
O1146 C1143 1.301 . S
O1147 U1126 2.449 . S
O1147 C1143 1.282 . S
H1148 C1121 0.931 . S
H1149 C1123 0.929 . S
H1150 C1124 0.930 . S
H1151 C1125 0.931 . S
H1152 C1132 0.932 . S
H1153 C1133 0.930 . S
H1154 C1134 0.929 . S
H1155 C1136 0.930 . S
H1156 C1138 0.932 . S
H1157 C1139 0.929 . S
H1158 C1140 0.928 . S
H1159 C1142 0.932 . S
C1160 C1161 1.264 . S
C1160 C1165 1.479 . S
C1160 C1170 1.465 . S
C1161 C1160 1.264 . S
C1161 C1163 1.339 . S
C1161 H1188 0.931 . S
C1162 C1163 1.395 . S
C1162 C1164 1.320 . S
C1163 C1161 1.339 . S
C1163 C1162 1.395 . S
C1163 H1189 0.929 . S
C1164 C1162 1.320 . S
C1164 C1165 1.405 . S
C1164 H1190 0.930 . S
C1165 C1160 1.479 . S
C1165 C1164 1.405 . S
C1165 H1191 0.931 . S
U1166 O1167 2.454 . S
U1166 O1168 2.458 . S
U1166 C1169 2.984 . S
U1166 C1170 2.847 . S
U1166 C1183 2.882 . S
U1166 O1184 2.441 . S
U1166 O1185 2.420 . S
U1166 O1186 2.455 . S
U1166 O1187 2.449 . S
O1167 U1166 2.454 . S
O1167 C1169 1.353 . S
O1168 U1166 2.458 . S
O1168 C1169 1.286 . S
C1169 U1166 2.984 . S
C1169 O1167 1.353 . S
C1169 O1168 1.286 . S
C1169 C1171 1.363 . S
C1170 C1160 1.465 . S
C1170 U1166 2.847 . S
C1170 O1184 1.249 . S
C1170 O1185 1.202 . S
C1171 C1169 1.363 . S
C1171 C1173 1.408 . S
C1171 C1176 1.342 . S
C1172 C1173 1.310 . S
C1172 C1175 1.461 . S
C1172 H1192 0.932 . S
C1173 C1171 1.408 . S
C1173 C1172 1.310 . S
C1173 H1193 0.930 . S
C1174 C1175 1.474 . S
C1174 C1176 1.285 . S
C1174 H1194 0.929 . S
C1175 C1172 1.461 . S
C1175 C1174 1.474 . S
C1176 C1171 1.342 . S
C1176 C1174 1.285 . S
C1176 H1195 0.930 . S
C1177 C1180 1.424 . S
C1177 C1182 1.245 . S
C1177 C1183 1.428 . S
C1178 C1181 1.260 . S
C1178 C1182 1.477 . S
C1178 H1196 0.932 . S
C1179 C1180 1.384 . S
C1179 C1181 1.479 . S
C1179 H1197 0.929 . S
C1180 C1177 1.424 . S
C1180 C1179 1.384 . S
C1180 H1198 0.928 . S
C1181 C1178 1.260 . S
C1181 C1179 1.479 . S
C1182 C1177 1.245 . S
C1182 C1178 1.477 . S
C1182 H1199 0.932 . S
C1183 U1166 2.882 . S
C1183 C1177 1.428 . S
C1183 O1186 1.301 . S
C1183 O1187 1.282 . S
O1184 U1166 2.441 . S
O1184 C1170 1.249 . S
O1185 U1166 2.420 . S
O1185 C1170 1.202 . S
O1186 U1166 2.455 . S
O1186 C1183 1.301 . S
O1187 U1166 2.449 . S
O1187 C1183 1.282 . S
H1188 C1161 0.931 . S
H1189 C1163 0.929 . S
H1190 C1164 0.930 . S
H1191 C1165 0.931 . S
H1192 C1172 0.932 . S
H1193 C1173 0.930 . S
H1194 C1174 0.929 . S
H1195 C1176 0.930 . S
H1196 C1178 0.932 . S
H1197 C1179 0.929 . S
H1198 C1180 0.928 . S
H1199 C1182 0.932 . S
C1200 C1201 1.264 . S
C1200 C1205 1.479 . S
C1200 C1210 1.465 . S
C1201 C1200 1.264 . S
C1201 C1203 1.339 . S
C1201 H1228 0.931 . S
C1202 C1203 1.395 . S
C1202 C1204 1.320 . S
C1203 C1201 1.339 . S
C1203 C1202 1.395 . S
C1203 H1229 0.929 . S
C1204 C1202 1.320 . S
C1204 C1205 1.405 . S
C1204 H1230 0.930 . S
C1205 C1200 1.479 . S
C1205 C1204 1.405 . S
C1205 H1231 0.931 . S
U1206 O1207 2.454 . S
U1206 O1208 2.458 . S
U1206 C1209 2.984 . S
U1206 C1210 2.847 . S
U1206 C1223 2.882 . S
U1206 O1224 2.441 . S
U1206 O1225 2.420 . S
U1206 O1226 2.455 . S
U1206 O1227 2.449 . S
O1207 U1206 2.454 . S
O1207 C1209 1.353 . S
O1208 U1206 2.458 . S
O1208 C1209 1.286 . S
C1209 U1206 2.984 . S
C1209 O1207 1.353 . S
C1209 O1208 1.286 . S
C1209 C1211 1.363 . S
C1210 C1200 1.465 . S
C1210 U1206 2.847 . S
C1210 O1224 1.249 . S
C1210 O1225 1.202 . S
C1211 C1209 1.363 . S
C1211 C1213 1.408 . S
C1211 C1216 1.342 . S
C1212 C1213 1.310 . S
C1212 C1215 1.461 . S
C1212 H1232 0.932 . S
C1213 C1211 1.408 . S
C1213 C1212 1.310 . S
C1213 H1233 0.930 . S
C1214 C1215 1.474 . S
C1214 C1216 1.285 . S
C1214 H1234 0.929 . S
C1215 C1212 1.461 . S
C1215 C1214 1.474 . S
C1216 C1211 1.342 . S
C1216 C1214 1.285 . S
C1216 H1235 0.930 . S
C1217 C1220 1.424 . S
C1217 C1222 1.245 . S
C1217 C1223 1.428 . S
C1218 C1221 1.260 . S
C1218 C1222 1.477 . S
C1218 H1236 0.932 . S
C1219 C1220 1.384 . S
C1219 C1221 1.479 . S
C1219 H1237 0.929 . S
C1220 C1217 1.424 . S
C1220 C1219 1.384 . S
C1220 H1238 0.928 . S
C1221 C1218 1.260 . S
C1221 C1219 1.479 . S
C1222 C1217 1.245 . S
C1222 C1218 1.477 . S
C1222 H1239 0.932 . S
C1223 U1206 2.882 . S
C1223 C1217 1.428 . S
C1223 O1226 1.301 . S
C1223 O1227 1.282 . S
O1224 U1206 2.441 . S
O1224 C1210 1.249 . S
O1225 U1206 2.420 . S
O1225 C1210 1.202 . S
O1226 U1206 2.455 . S
O1226 C1223 1.301 . S
O1227 U1206 2.449 . S
O1227 C1223 1.282 . S
H1228 C1201 0.931 . S
H1229 C1203 0.929 . S
H1230 C1204 0.930 . S
H1231 C1205 0.931 . S
H1232 C1212 0.932 . S
H1233 C1213 0.930 . S
H1234 C1214 0.929 . S
H1235 C1216 0.930 . S
H1236 C1218 0.932 . S
H1237 C1219 0.929 . S
H1238 C1220 0.928 . S
H1239 C1222 0.932 . S
C1240 C1241 1.264 . S
C1240 C1245 1.479 . S
C1240 C1250 1.465 . S
C1241 C1240 1.264 . S
C1241 C1243 1.339 . S
C1241 H1268 0.931 . S
C1242 C1243 1.395 . S
C1242 C1244 1.320 . S
C1243 C1241 1.339 . S
C1243 C1242 1.395 . S
C1243 H1269 0.929 . S
C1244 C1242 1.320 . S
C1244 C1245 1.405 . S
C1244 H1270 0.930 . S
C1245 C1240 1.479 . S
C1245 C1244 1.405 . S
C1245 H1271 0.931 . S
U1246 O1247 2.454 . S
U1246 O1248 2.458 . S
U1246 C1249 2.984 . S
U1246 C1250 2.847 . S
U1246 C1263 2.882 . S
U1246 O1264 2.441 . S
U1246 O1265 2.420 . S
U1246 O1266 2.455 . S
U1246 O1267 2.449 . S
O1247 U1246 2.454 . S
O1247 C1249 1.353 . S
O1248 U1246 2.458 . S
O1248 C1249 1.286 . S
C1249 U1246 2.984 . S
C1249 O1247 1.353 . S
C1249 O1248 1.286 . S
C1249 C1251 1.363 . S
C1250 C1240 1.465 . S
C1250 U1246 2.847 . S
C1250 O1264 1.249 . S
C1250 O1265 1.202 . S
C1251 C1249 1.363 . S
C1251 C1253 1.408 . S
C1251 C1256 1.342 . S
C1252 C1253 1.310 . S
C1252 C1255 1.461 . S
C1252 H1272 0.932 . S
C1253 C1251 1.408 . S
C1253 C1252 1.310 . S
C1253 H1273 0.930 . S
C1254 C1255 1.474 . S
C1254 C1256 1.285 . S
C1254 H1274 0.929 . S
C1255 C1252 1.461 . S
C1255 C1254 1.474 . S
C1256 C1251 1.342 . S
C1256 C1254 1.285 . S
C1256 H1275 0.930 . S
C1257 C1260 1.424 . S
C1257 C1262 1.245 . S
C1257 C1263 1.428 . S
C1258 C1261 1.260 . S
C1258 C1262 1.477 . S
C1258 H1276 0.932 . S
C1259 C1260 1.384 . S
C1259 C1261 1.479 . S
C1259 H1277 0.929 . S
C1260 C1257 1.424 . S
C1260 C1259 1.384 . S
C1260 H1278 0.928 . S
C1261 C1258 1.260 . S
C1261 C1259 1.479 . S
C1262 C1257 1.245 . S
C1262 C1258 1.477 . S
C1262 H1279 0.932 . S
C1263 U1246 2.882 . S
C1263 C1257 1.428 . S
C1263 O1266 1.301 . S
C1263 O1267 1.282 . S
O1264 U1246 2.441 . S
O1264 C1250 1.249 . S
O1265 U1246 2.420 . S
O1265 C1250 1.202 . S
O1266 U1246 2.455 . S
O1266 C1263 1.301 . S
O1267 U1246 2.449 . S
O1267 C1263 1.282 . S
H1268 C1241 0.931 . S
H1269 C1243 0.929 . S
H1270 C1244 0.930 . S
H1271 C1245 0.931 . S
H1272 C1252 0.932 . S
H1273 C1253 0.930 . S
H1274 C1254 0.929 . S
H1275 C1256 0.930 . S
H1276 C1258 0.932 . S
H1277 C1259 0.929 . S
H1278 C1260 0.928 . S
H1279 C1262 0.932 . S
C1280 C1281 1.560 . S
C1280 H1341 0.959 . S
C1280 H1342 0.959 . S
C1280 H1343 0.960 . S
C1281 C1280 1.560 . S
C1281 O1336 1.426 . S
C1281 H1340 0.980 . S
C1282 C1283 1.407 . S
C1282 C1287 1.418 . S
C1282 O1336 1.334 . S
C1283 C1282 1.407 . S
C1283 C1284 1.360 . S
C1283 H1344 0.929 . S
C1284 C1283 1.360 . S
C1284 C1285 1.401 . S
C1284 C1288 1.527 . S
C1285 C1284 1.401 . S
C1285 C1286 1.405 . S
C1285 C1318 1.587 . S
C1286 C1285 1.405 . S
C1286 C1287 1.332 . S
C1286 C1289 1.496 . S
C1287 C1282 1.418 . S
C1287 C1286 1.332 . S
C1287 H1345 0.929 . S
C1288 C1284 1.527 . S
C1288 H1346 0.959 . S
C1288 H1347 0.961 . S
C1288 H1348 0.961 . S
C1289 C1286 1.496 . S
C1289 H1349 0.960 . S
C1289 H1350 0.960 . S
C1289 H1351 0.961 . S
C1290 C1291 1.517 . S
C1290 H1353 0.961 . S
C1290 H1354 0.960 . S
C1290 H1355 0.959 . S
C1291 C1290 1.517 . S
C1291 O1339 1.468 . S
C1291 H1352 0.980 . S
C1292 C1293 1.349 . S
C1292 C1297 1.367 . S
C1292 O1339 1.408 . S
C1293 C1292 1.349 . S
C1293 C1294 1.407 . S
C1293 H1356 0.930 . S
C1294 C1293 1.407 . S
C1294 C1295 1.449 . S
C1294 C1298 1.535 . S
C1295 C1294 1.449 . S
C1295 C1296 1.384 . S
C1295 C1320 1.553 . S
C1296 C1295 1.384 . S
C1296 C1297 1.364 . S
C1296 C1299 1.450 . S
C1297 C1292 1.367 . S
C1297 C1296 1.364 . S
C1297 H1357 0.931 . S
C1298 C1294 1.535 . S
C1298 H1358 0.959 . S
C1298 H1359 0.961 . S
C1298 H1360 0.959 . S
C1299 C1296 1.450 . S
C1299 H1361 0.960 . S
C1299 H1362 0.960 . S
C1299 H1363 0.960 . S
C1300 C1301 1.309 . S
C1300 C1305 1.304 . S
C1300 O1338 1.435 . S
C1301 C1300 1.309 . S
C1301 C1302 1.476 . S
C1301 H1365 0.930 . S
C1302 C1301 1.476 . S
C1302 C1303 1.400 . S
C1302 C1306 1.567 . S
C1303 C1302 1.400 . S
C1303 C1304 1.373 . S
C1303 C1325 1.432 . S
C1304 C1303 1.373 . S
C1304 C1305 1.339 . S
C1304 C1307 1.530 . S
C1305 C1300 1.304 . S
C1305 C1304 1.339 . S
C1305 H1366 0.930 . S
C1306 C1302 1.567 . S
C1306 H1367 0.961 . S
C1306 H1368 0.960 . S
C1306 H1369 0.958 . S
C1307 C1304 1.530 . S
C1307 H1370 0.961 . S
C1307 H1371 0.960 . S
C1307 H1372 0.960 . S
C1308 C1309 1.530 . S
C1308 H1374 0.961 . S
C1308 H1375 0.961 . S
C1308 H1376 0.959 . S
C1309 C1308 1.530 . S
C1309 O1337 1.412 . S
C1309 H1373 0.980 . S
C1310 C1311 1.288 . S
C1310 C1315 1.377 . S
C1310 O1337 1.393 . S
C1311 C1310 1.288 . S
C1311 C1312 1.369 . S
C1311 H1377 0.932 . S
C1312 C1311 1.369 . S
C1312 C1313 1.398 . S
C1312 C1316 1.527 . S
C1313 C1312 1.398 . S
C1313 C1314 1.380 . S
C1313 C1327 1.497 . S
C1314 C1313 1.380 . S
C1314 C1315 1.383 . S
C1314 C1317 1.603 . S
C1315 C1310 1.377 . S
C1315 C1314 1.383 . S
C1315 H1378 0.929 . S
C1316 C1312 1.527 . S
C1316 H1379 0.961 . S
C1316 H1380 0.959 . S
C1316 H1381 0.959 . S
C1317 C1314 1.603 . S
C1317 H1382 0.960 . S
C1317 H1383 0.962 . S
C1317 H1384 0.961 . S
C1318 C1285 1.587 . S
C1318 C1319 1.360 . S
C1318 C1331 1.412 . S
C1319 C1318 1.360 . S
C1319 C1320 1.365 1_554 S
C1319 H1385 0.929 . S
C1320 C1295 1.553 . S
C1320 C1319 1.365 1_556 S
C1320 C1321 1.404 . S
C1321 C1320 1.404 . S
C1321 C1322 1.395 . S
C1321 C1332 1.451 1_556 S
C1322 C1321 1.395 . S
C1322 C1323 1.322 . S
C1322 H1386 0.930 . S
C1323 C1322 1.322 . S
C1323 C1324 1.459 . S
C1323 H1387 0.929 . S
C1324 C1323 1.459 . S
C1324 C1325 1.445 . S
C1324 C1333 1.395 1_556 S
C1325 C1303 1.432 . S
C1325 C1324 1.445 . S
C1325 C1326 1.370 1_556 S
C1326 C1325 1.370 1_554 S
C1326 C1327 1.438 . S
C1326 H1388 0.930 . S
C1327 C1313 1.497 . S
C1327 C1326 1.438 . S
C1327 C1328 1.360 . S
C1328 C1327 1.360 . S
C1328 C1329 1.401 . S
C1328 C1333 1.446 . S
C1329 C1328 1.401 . S
C1329 C1330 1.347 . S
C1329 H1389 0.929 . S
C1330 C1329 1.347 . S
C1330 C1331 1.455 . S
C1330 H1390 0.930 . S
C1331 C1318 1.412 . S
C1331 C1330 1.455 . S
C1331 C1332 1.331 . S
C1332 C1321 1.451 1_554 S
C1332 C1331 1.331 . S
C1332 C1333 1.497 . S
C1333 C1324 1.395 1_554 S
C1333 C1328 1.446 . S
C1333 C1332 1.497 . S
C1334 C1335 1.582 . S
C1334 H1391 0.962 . S
C1334 H1392 0.959 . S
C1334 H1393 0.958 . S
C1335 C1334 1.582 . S
C1335 O1338 1.458 . S
C1335 H1364 0.980 . S
O1336 C1281 1.426 . S
O1336 C1282 1.334 . S
O1337 C1309 1.412 . S
O1337 C1310 1.393 . S
O1338 C1300 1.435 . S
O1338 C1335 1.458 . S
O1339 C1291 1.468 . S
O1339 C1292 1.408 . S
H1340 C1281 0.980 . S
H1341 C1280 0.959 . S
H1342 C1280 0.959 . S
H1343 C1280 0.960 . S
H1344 C1283 0.929 . S
H1345 C1287 0.929 . S
H1346 C1288 0.959 . S
H1347 C1288 0.961 . S
H1348 C1288 0.961 . S
H1349 C1289 0.960 . S
H1350 C1289 0.960 . S
H1351 C1289 0.961 . S
H1352 C1291 0.980 . S
H1353 C1290 0.961 . S
H1354 C1290 0.960 . S
H1355 C1290 0.959 . S
H1356 C1293 0.930 . S
H1357 C1297 0.931 . S
H1358 C1298 0.959 . S
H1359 C1298 0.961 . S
H1360 C1298 0.959 . S
H1361 C1299 0.960 . S
H1362 C1299 0.960 . S
H1363 C1299 0.960 . S
H1364 C1335 0.980 . S
H1365 C1301 0.930 . S
H1366 C1305 0.930 . S
H1367 C1306 0.961 . S
H1368 C1306 0.960 . S
H1369 C1306 0.958 . S
H1370 C1307 0.961 . S
H1371 C1307 0.960 . S
H1372 C1307 0.960 . S
H1373 C1309 0.980 . S
H1374 C1308 0.961 . S
H1375 C1308 0.961 . S
H1376 C1308 0.959 . S
H1377 C1311 0.932 . S
H1378 C1315 0.929 . S
H1379 C1316 0.961 . S
H1380 C1316 0.959 . S
H1381 C1316 0.959 . S
H1382 C1317 0.960 . S
H1383 C1317 0.962 . S
H1384 C1317 0.961 . S
H1385 C1319 0.929 . S
H1386 C1322 0.930 . S
H1387 C1323 0.929 . S
H1388 C1326 0.930 . S
H1389 C1329 0.929 . S
H1390 C1330 0.930 . S
H1391 C1334 0.962 . S
H1392 C1334 0.959 . S
H1393 C1334 0.958 . S
C1394 C1395 1.560 . S
C1394 H1455 0.959 . S
C1394 H1456 0.959 . S
C1394 H1457 0.960 . S
C1395 C1394 1.560 . S
C1395 O1450 1.426 . S
C1395 H1454 0.980 . S
C1396 C1397 1.407 . S
C1396 C1401 1.418 . S
C1396 O1450 1.334 . S
C1397 C1396 1.407 . S
C1397 C1398 1.360 . S
C1397 H1458 0.929 . S
C1398 C1397 1.360 . S
C1398 C1399 1.401 . S
C1398 C1402 1.527 . S
C1399 C1398 1.401 . S
C1399 C1400 1.405 . S
C1399 C1432 1.587 . S
C1400 C1399 1.405 . S
C1400 C1401 1.332 . S
C1400 C1403 1.496 . S
C1401 C1396 1.418 . S
C1401 C1400 1.332 . S
C1401 H1459 0.929 . S
C1402 C1398 1.527 . S
C1402 H1460 0.959 . S
C1402 H1461 0.961 . S
C1402 H1462 0.961 . S
C1403 C1400 1.496 . S
C1403 H1463 0.960 . S
C1403 H1464 0.960 . S
C1403 H1465 0.961 . S
C1404 C1405 1.517 . S
C1404 H1467 0.961 . S
C1404 H1468 0.960 . S
C1404 H1469 0.959 . S
C1405 C1404 1.517 . S
C1405 O1453 1.468 . S
C1405 H1466 0.980 . S
C1406 C1407 1.349 . S
C1406 C1411 1.367 . S
C1406 O1453 1.408 . S
C1407 C1406 1.349 . S
C1407 C1408 1.407 . S
C1407 H1470 0.930 . S
C1408 C1407 1.407 . S
C1408 C1409 1.449 . S
C1408 C1412 1.535 . S
C1409 C1408 1.449 . S
C1409 C1410 1.384 . S
C1409 C1434 1.553 . S
C1410 C1409 1.384 . S
C1410 C1411 1.364 . S
C1410 C1413 1.450 . S
C1411 C1406 1.367 . S
C1411 C1410 1.364 . S
C1411 H1471 0.931 . S
C1412 C1408 1.535 . S
C1412 H1472 0.959 . S
C1412 H1473 0.961 . S
C1412 H1474 0.959 . S
C1413 C1410 1.450 . S
C1413 H1475 0.960 . S
C1413 H1476 0.960 . S
C1413 H1477 0.960 . S
C1414 C1415 1.309 . S
C1414 C1419 1.304 . S
C1414 O1452 1.435 . S
C1415 C1414 1.309 . S
C1415 C1416 1.476 . S
C1415 H1479 0.930 . S
C1416 C1415 1.476 . S
C1416 C1417 1.400 . S
C1416 C1420 1.567 . S
C1417 C1416 1.400 . S
C1417 C1418 1.373 . S
C1417 C1439 1.432 . S
C1418 C1417 1.373 . S
C1418 C1419 1.339 . S
C1418 C1421 1.530 . S
C1419 C1414 1.304 . S
C1419 C1418 1.339 . S
C1419 H1480 0.930 . S
C1420 C1416 1.567 . S
C1420 H1481 0.961 . S
C1420 H1482 0.960 . S
C1420 H1483 0.958 . S
C1421 C1418 1.530 . S
C1421 H1484 0.961 . S
C1421 H1485 0.960 . S
C1421 H1486 0.960 . S
C1422 C1423 1.530 . S
C1422 H1488 0.961 . S
C1422 H1489 0.961 . S
C1422 H1490 0.959 . S
C1423 C1422 1.530 . S
C1423 O1451 1.412 . S
C1423 H1487 0.980 . S
C1424 C1425 1.288 . S
C1424 C1429 1.377 . S
C1424 O1451 1.393 . S
C1425 C1424 1.288 . S
C1425 C1426 1.369 . S
C1425 H1491 0.932 . S
C1426 C1425 1.369 . S
C1426 C1427 1.398 . S
C1426 C1430 1.527 . S
C1427 C1426 1.398 . S
C1427 C1428 1.380 . S
C1427 C1441 1.497 . S
C1428 C1427 1.380 . S
C1428 C1429 1.383 . S
C1428 C1431 1.603 . S
C1429 C1424 1.377 . S
C1429 C1428 1.383 . S
C1429 H1492 0.929 . S
C1430 C1426 1.527 . S
C1430 H1493 0.961 . S
C1430 H1494 0.959 . S
C1430 H1495 0.959 . S
C1431 C1428 1.603 . S
C1431 H1496 0.960 . S
C1431 H1497 0.962 . S
C1431 H1498 0.961 . S
C1432 C1399 1.587 . S
C1432 C1433 1.360 1_556 S
C1432 C1445 1.412 . S
C1433 C1432 1.360 1_554 S
C1433 C1434 1.365 . S
C1433 H1499 0.929 . S
C1434 C1409 1.553 . S
C1434 C1433 1.365 . S
C1434 C1435 1.404 . S
C1435 C1434 1.404 . S
C1435 C1436 1.395 . S
C1435 C1446 1.451 . S
C1436 C1435 1.395 . S
C1436 C1437 1.322 . S
C1436 H1500 0.930 . S
C1437 C1436 1.322 . S
C1437 C1438 1.459 . S
C1437 H1501 0.929 . S
C1438 C1437 1.459 . S
C1438 C1439 1.445 . S
C1438 C1447 1.395 . S
C1439 C1417 1.432 . S
C1439 C1438 1.445 . S
C1439 C1440 1.370 . S
C1440 C1439 1.370 . S
C1440 C1441 1.438 1_554 S
C1440 H1502 0.930 . S
C1441 C1427 1.497 . S
C1441 C1440 1.438 1_556 S
C1441 C1442 1.360 . S
C1442 C1441 1.360 . S
C1442 C1443 1.401 . S
C1442 C1447 1.446 1_556 S
C1443 C1442 1.401 . S
C1443 C1444 1.347 . S
C1443 H1503 0.929 . S
C1444 C1443 1.347 . S
C1444 C1445 1.455 . S
C1444 H1504 0.930 . S
C1445 C1432 1.412 . S
C1445 C1444 1.455 . S
C1445 C1446 1.331 1_556 S
C1446 C1435 1.451 . S
C1446 C1445 1.331 1_554 S
C1446 C1447 1.497 . S
C1447 C1438 1.395 . S
C1447 C1442 1.446 1_554 S
C1447 C1446 1.497 . S
C1448 C1449 1.582 . S
C1448 H1505 0.962 . S
C1448 H1506 0.959 . S
C1448 H1507 0.958 . S
C1449 C1448 1.582 . S
C1449 O1452 1.458 . S
C1449 H1478 0.980 . S
O1450 C1395 1.426 . S
O1450 C1396 1.334 . S
O1451 C1423 1.412 . S
O1451 C1424 1.393 . S
O1452 C1414 1.435 . S
O1452 C1449 1.458 . S
O1453 C1405 1.468 . S
O1453 C1406 1.408 . S
H1454 C1395 0.980 . S
H1455 C1394 0.959 . S
H1456 C1394 0.959 . S
H1457 C1394 0.960 . S
H1458 C1397 0.929 . S
H1459 C1401 0.929 . S
H1460 C1402 0.959 . S
H1461 C1402 0.961 . S
H1462 C1402 0.961 . S
H1463 C1403 0.960 . S
H1464 C1403 0.960 . S
H1465 C1403 0.961 . S
H1466 C1405 0.980 . S
H1467 C1404 0.961 . S
H1468 C1404 0.960 . S
H1469 C1404 0.959 . S
H1470 C1407 0.930 . S
H1471 C1411 0.931 . S
H1472 C1412 0.959 . S
H1473 C1412 0.961 . S
H1474 C1412 0.959 . S
H1475 C1413 0.960 . S
H1476 C1413 0.960 . S
H1477 C1413 0.960 . S
H1478 C1449 0.980 . S
H1479 C1415 0.930 . S
H1480 C1419 0.930 . S
H1481 C1420 0.961 . S
H1482 C1420 0.960 . S
H1483 C1420 0.958 . S
H1484 C1421 0.961 . S
H1485 C1421 0.960 . S
H1486 C1421 0.960 . S
H1487 C1423 0.980 . S
H1488 C1422 0.961 . S
H1489 C1422 0.961 . S
H1490 C1422 0.959 . S
H1491 C1425 0.932 . S
H1492 C1429 0.929 . S
H1493 C1430 0.961 . S
H1494 C1430 0.959 . S
H1495 C1430 0.959 . S
H1496 C1431 0.960 . S
H1497 C1431 0.962 . S
H1498 C1431 0.961 . S
H1499 C1433 0.929 . S
H1500 C1436 0.930 . S
H1501 C1437 0.929 . S
H1502 C1440 0.930 . S
H1503 C1443 0.929 . S
H1504 C1444 0.930 . S
H1505 C1448 0.962 . S
H1506 C1448 0.959 . S
H1507 C1448 0.958 . S
C1508 C1509 1.560 . S
C1508 H1569 0.959 . S
C1508 H1570 0.959 . S
C1508 H1571 0.960 . S
C1509 C1508 1.560 . S
C1509 O1564 1.426 . S
C1509 H1568 0.980 . S
C1510 C1511 1.407 . S
C1510 C1515 1.418 . S
C1510 O1564 1.334 . S
C1511 C1510 1.407 . S
C1511 C1512 1.360 . S
C1511 H1572 0.929 . S
C1512 C1511 1.360 . S
C1512 C1513 1.401 . S
C1512 C1516 1.527 . S
C1513 C1512 1.401 . S
C1513 C1514 1.405 . S
C1513 C1546 1.587 . S
C1514 C1513 1.405 . S
C1514 C1515 1.332 . S
C1514 C1517 1.496 . S
C1515 C1510 1.418 . S
C1515 C1514 1.332 . S
C1515 H1573 0.929 . S
C1516 C1512 1.527 . S
C1516 H1574 0.959 . S
C1516 H1575 0.961 . S
C1516 H1576 0.961 . S
C1517 C1514 1.496 . S
C1517 H1577 0.960 . S
C1517 H1578 0.960 . S
C1517 H1579 0.961 . S
C1518 C1519 1.517 . S
C1518 H1581 0.961 . S
C1518 H1582 0.960 . S
C1518 H1583 0.959 . S
C1519 C1518 1.517 . S
C1519 O1567 1.468 . S
C1519 H1580 0.980 . S
C1520 C1521 1.349 . S
C1520 C1525 1.367 . S
C1520 O1567 1.408 . S
C1521 C1520 1.349 . S
C1521 C1522 1.407 . S
C1521 H1584 0.930 . S
C1522 C1521 1.407 . S
C1522 C1523 1.449 . S
C1522 C1526 1.535 . S
C1523 C1522 1.449 . S
C1523 C1524 1.384 . S
C1523 C1548 1.553 . S
C1524 C1523 1.384 . S
C1524 C1525 1.364 . S
C1524 C1527 1.450 . S
C1525 C1520 1.367 . S
C1525 C1524 1.364 . S
C1525 H1585 0.931 . S
C1526 C1522 1.535 . S
C1526 H1586 0.959 . S
C1526 H1587 0.961 . S
C1526 H1588 0.959 . S
C1527 C1524 1.450 . S
C1527 H1589 0.960 . S
C1527 H1590 0.960 . S
C1527 H1591 0.960 . S
C1528 C1529 1.309 . S
C1528 C1533 1.304 . S
C1528 O1566 1.435 . S
C1529 C1528 1.309 . S
C1529 C1530 1.476 . S
C1529 H1593 0.930 . S
C1530 C1529 1.476 . S
C1530 C1531 1.400 . S
C1530 C1534 1.567 . S
C1531 C1530 1.400 . S
C1531 C1532 1.373 . S
C1531 C1553 1.432 . S
C1532 C1531 1.373 . S
C1532 C1533 1.339 . S
C1532 C1535 1.530 . S
C1533 C1528 1.304 . S
C1533 C1532 1.339 . S
C1533 H1594 0.930 . S
C1534 C1530 1.567 . S
C1534 H1595 0.961 . S
C1534 H1596 0.960 . S
C1534 H1597 0.958 . S
C1535 C1532 1.530 . S
C1535 H1598 0.961 . S
C1535 H1599 0.960 . S
C1535 H1600 0.960 . S
C1536 C1537 1.530 . S
C1536 H1602 0.961 . S
C1536 H1603 0.961 . S
C1536 H1604 0.959 . S
C1537 C1536 1.530 . S
C1537 O1565 1.412 . S
C1537 H1601 0.980 . S
C1538 C1539 1.288 . S
C1538 C1543 1.377 . S
C1538 O1565 1.393 . S
C1539 C1538 1.288 . S
C1539 C1540 1.369 . S
C1539 H1605 0.932 . S
C1540 C1539 1.369 . S
C1540 C1541 1.398 . S
C1540 C1544 1.527 . S
C1541 C1540 1.398 . S
C1541 C1542 1.380 . S
C1541 C1555 1.497 . S
C1542 C1541 1.380 . S
C1542 C1543 1.383 . S
C1542 C1545 1.603 . S
C1543 C1538 1.377 . S
C1543 C1542 1.383 . S
C1543 H1606 0.929 . S
C1544 C1540 1.527 . S
C1544 H1607 0.961 . S
C1544 H1608 0.959 . S
C1544 H1609 0.959 . S
C1545 C1542 1.603 . S
C1545 H1610 0.960 . S
C1545 H1611 0.962 . S
C1545 H1612 0.961 . S
C1546 C1513 1.587 . S
C1546 C1547 1.360 . S
C1546 C1559 1.412 . S
C1547 C1546 1.360 . S
C1547 C1548 1.365 1_554 S
C1547 H1613 0.929 . S
C1548 C1523 1.553 . S
C1548 C1547 1.365 1_556 S
C1548 C1549 1.404 . S
C1549 C1548 1.404 . S
C1549 C1550 1.395 . S
C1549 C1560 1.451 1_556 S
C1550 C1549 1.395 . S
C1550 C1551 1.322 . S
C1550 H1614 0.930 . S
C1551 C1550 1.322 . S
C1551 C1552 1.459 . S
C1551 H1615 0.929 . S
C1552 C1551 1.459 . S
C1552 C1553 1.445 . S
C1552 C1561 1.395 1_556 S
C1553 C1531 1.432 . S
C1553 C1552 1.445 . S
C1553 C1554 1.370 1_556 S
C1554 C1553 1.370 1_554 S
C1554 C1555 1.438 . S
C1554 H1616 0.930 . S
C1555 C1541 1.497 . S
C1555 C1554 1.438 . S
C1555 C1556 1.360 . S
C1556 C1555 1.360 . S
C1556 C1557 1.401 . S
C1556 C1561 1.446 . S
C1557 C1556 1.401 . S
C1557 C1558 1.347 . S
C1557 H1617 0.929 . S
C1558 C1557 1.347 . S
C1558 C1559 1.455 . S
C1558 H1618 0.930 . S
C1559 C1546 1.412 . S
C1559 C1558 1.455 . S
C1559 C1560 1.331 . S
C1560 C1549 1.451 1_554 S
C1560 C1559 1.331 . S
C1560 C1561 1.497 . S
C1561 C1552 1.395 1_554 S
C1561 C1556 1.446 . S
C1561 C1560 1.497 . S
C1562 C1563 1.582 . S
C1562 H1619 0.962 . S
C1562 H1620 0.959 . S
C1562 H1621 0.958 . S
C1563 C1562 1.582 . S
C1563 O1566 1.458 . S
C1563 H1592 0.980 . S
O1564 C1509 1.426 . S
O1564 C1510 1.334 . S
O1565 C1537 1.412 . S
O1565 C1538 1.393 . S
O1566 C1528 1.435 . S
O1566 C1563 1.458 . S
O1567 C1519 1.468 . S
O1567 C1520 1.408 . S
H1568 C1509 0.980 . S
H1569 C1508 0.959 . S
H1570 C1508 0.959 . S
H1571 C1508 0.960 . S
H1572 C1511 0.929 . S
H1573 C1515 0.929 . S
H1574 C1516 0.959 . S
H1575 C1516 0.961 . S
H1576 C1516 0.961 . S
H1577 C1517 0.960 . S
H1578 C1517 0.960 . S
H1579 C1517 0.961 . S
H1580 C1519 0.980 . S
H1581 C1518 0.961 . S
H1582 C1518 0.960 . S
H1583 C1518 0.959 . S
H1584 C1521 0.930 . S
H1585 C1525 0.931 . S
H1586 C1526 0.959 . S
H1587 C1526 0.961 . S
H1588 C1526 0.959 . S
H1589 C1527 0.960 . S
H1590 C1527 0.960 . S
H1591 C1527 0.960 . S
H1592 C1563 0.980 . S
H1593 C1529 0.930 . S
H1594 C1533 0.930 . S
H1595 C1534 0.961 . S
H1596 C1534 0.960 . S
H1597 C1534 0.958 . S
H1598 C1535 0.961 . S
H1599 C1535 0.960 . S
H1600 C1535 0.960 . S
H1601 C1537 0.980 . S
H1602 C1536 0.961 . S
H1603 C1536 0.961 . S
H1604 C1536 0.959 . S
H1605 C1539 0.932 . S
H1606 C1543 0.929 . S
H1607 C1544 0.961 . S
H1608 C1544 0.959 . S
H1609 C1544 0.959 . S
H1610 C1545 0.960 . S
H1611 C1545 0.962 . S
H1612 C1545 0.961 . S
H1613 C1547 0.929 . S
H1614 C1550 0.930 . S
H1615 C1551 0.929 . S
H1616 C1554 0.930 . S
H1617 C1557 0.929 . S
H1618 C1558 0.930 . S
H1619 C1562 0.962 . S
H1620 C1562 0.959 . S
H1621 C1562 0.958 . S
C1622 C1623 1.560 . S
C1622 H1683 0.959 . S
C1622 H1684 0.959 . S
C1622 H1685 0.960 . S
C1623 C1622 1.560 . S
C1623 O1678 1.426 . S
C1623 H1682 0.980 . S
C1624 C1625 1.407 . S
C1624 C1629 1.418 . S
C1624 O1678 1.334 . S
C1625 C1624 1.407 . S
C1625 C1626 1.360 . S
C1625 H1686 0.929 . S
C1626 C1625 1.360 . S
C1626 C1627 1.401 . S
C1626 C1630 1.527 . S
C1627 C1626 1.401 . S
C1627 C1628 1.405 . S
C1627 C1660 1.587 . S
C1628 C1627 1.405 . S
C1628 C1629 1.332 . S
C1628 C1631 1.496 . S
C1629 C1624 1.418 . S
C1629 C1628 1.332 . S
C1629 H1687 0.929 . S
C1630 C1626 1.527 . S
C1630 H1688 0.959 . S
C1630 H1689 0.961 . S
C1630 H1690 0.961 . S
C1631 C1628 1.496 . S
C1631 H1691 0.960 . S
C1631 H1692 0.960 . S
C1631 H1693 0.961 . S
C1632 C1633 1.517 . S
C1632 H1695 0.961 . S
C1632 H1696 0.960 . S
C1632 H1697 0.959 . S
C1633 C1632 1.517 . S
C1633 O1681 1.468 . S
C1633 H1694 0.980 . S
C1634 C1635 1.349 . S
C1634 C1639 1.367 . S
C1634 O1681 1.408 . S
C1635 C1634 1.349 . S
C1635 C1636 1.407 . S
C1635 H1698 0.930 . S
C1636 C1635 1.407 . S
C1636 C1637 1.449 . S
C1636 C1640 1.535 . S
C1637 C1636 1.449 . S
C1637 C1638 1.384 . S
C1637 C1662 1.553 . S
C1638 C1637 1.384 . S
C1638 C1639 1.364 . S
C1638 C1641 1.450 . S
C1639 C1634 1.367 . S
C1639 C1638 1.364 . S
C1639 H1699 0.931 . S
C1640 C1636 1.535 . S
C1640 H1700 0.959 . S
C1640 H1701 0.961 . S
C1640 H1702 0.959 . S
C1641 C1638 1.450 . S
C1641 H1703 0.960 . S
C1641 H1704 0.960 . S
C1641 H1705 0.960 . S
C1642 C1643 1.309 . S
C1642 C1647 1.304 . S
C1642 O1680 1.435 . S
C1643 C1642 1.309 . S
C1643 C1644 1.476 . S
C1643 H1707 0.930 . S
C1644 C1643 1.476 . S
C1644 C1645 1.400 . S
C1644 C1648 1.567 . S
C1645 C1644 1.400 . S
C1645 C1646 1.373 . S
C1645 C1667 1.432 . S
C1646 C1645 1.373 . S
C1646 C1647 1.339 . S
C1646 C1649 1.530 . S
C1647 C1642 1.304 . S
C1647 C1646 1.339 . S
C1647 H1708 0.930 . S
C1648 C1644 1.567 . S
C1648 H1709 0.961 . S
C1648 H1710 0.960 . S
C1648 H1711 0.958 . S
C1649 C1646 1.530 . S
C1649 H1712 0.961 . S
C1649 H1713 0.960 . S
C1649 H1714 0.960 . S
C1650 C1651 1.530 . S
C1650 H1716 0.961 . S
C1650 H1717 0.961 . S
C1650 H1718 0.959 . S
C1651 C1650 1.530 . S
C1651 O1679 1.412 . S
C1651 H1715 0.980 . S
C1652 C1653 1.288 . S
C1652 C1657 1.377 . S
C1652 O1679 1.393 . S
C1653 C1652 1.288 . S
C1653 C1654 1.369 . S
C1653 H1719 0.932 . S
C1654 C1653 1.369 . S
C1654 C1655 1.398 . S
C1654 C1658 1.527 . S
C1655 C1654 1.398 . S
C1655 C1656 1.380 . S
C1655 C1669 1.497 . S
C1656 C1655 1.380 . S
C1656 C1657 1.383 . S
C1656 C1659 1.603 . S
C1657 C1652 1.377 . S
C1657 C1656 1.383 . S
C1657 H1720 0.929 . S
C1658 C1654 1.527 . S
C1658 H1721 0.961 . S
C1658 H1722 0.959 . S
C1658 H1723 0.959 . S
C1659 C1656 1.603 . S
C1659 H1724 0.960 . S
C1659 H1725 0.962 . S
C1659 H1726 0.961 . S
C1660 C1627 1.587 . S
C1660 C1661 1.410 . S
C1660 C1673 1.412 . S
C1661 C1660 1.410 . S
C1661 C1662 1.314 1_556 S
C1661 H1727 0.929 . S
C1662 C1637 1.553 . S
C1662 C1661 1.314 1_554 S
C1662 C1663 1.404 . S
C1663 C1662 1.404 . S
C1663 C1664 1.395 . S
C1663 C1674 1.446 1_554 S
C1664 C1663 1.395 . S
C1664 C1665 1.322 . S
C1664 H1728 0.930 . S
C1665 C1664 1.322 . S
C1665 C1666 1.459 . S
C1665 H1729 0.929 . S
C1666 C1665 1.459 . S
C1666 C1667 1.445 . S
C1666 C1675 1.448 . S
C1667 C1645 1.432 . S
C1667 C1666 1.445 . S
C1667 C1668 1.370 . S
C1668 C1667 1.370 . S
C1668 C1669 1.438 1_554 S
C1668 H1730 0.930 . S
C1669 C1655 1.497 . S
C1669 C1668 1.438 1_556 S
C1669 C1670 1.360 . S
C1670 C1669 1.360 . S
C1670 C1671 1.401 . S
C1670 C1675 1.396 1_556 S
C1671 C1670 1.401 . S
C1671 C1672 1.347 . S
C1671 H1731 0.929 . S
C1672 C1671 1.347 . S
C1672 C1673 1.455 . S
C1672 H1732 0.930 . S
C1673 C1660 1.412 . S
C1673 C1672 1.455 . S
C1673 C1674 1.336 . S
C1674 C1663 1.446 1_556 S
C1674 C1673 1.336 . S
C1674 C1675 1.495 1_556 S
C1675 C1666 1.448 . S
C1675 C1670 1.396 1_554 S
C1675 C1674 1.495 1_554 S
C1676 C1677 1.582 . S
C1676 H1733 0.962 . S
C1676 H1734 0.959 . S
C1676 H1735 0.958 . S
C1677 C1676 1.582 . S
C1677 O1680 1.458 . S
C1677 H1706 0.980 . S
O1678 C1623 1.426 . S
O1678 C1624 1.334 . S
O1679 C1651 1.412 . S
O1679 C1652 1.393 . S
O1680 C1642 1.435 . S
O1680 C1677 1.458 . S
O1681 C1633 1.468 . S
O1681 C1634 1.408 . S
H1682 C1623 0.980 . S
H1683 C1622 0.959 . S
H1684 C1622 0.959 . S
H1685 C1622 0.960 . S
H1686 C1625 0.929 . S
H1687 C1629 0.929 . S
H1688 C1630 0.959 . S
H1689 C1630 0.961 . S
H1690 C1630 0.961 . S
H1691 C1631 0.960 . S
H1692 C1631 0.960 . S
H1693 C1631 0.961 . S
H1694 C1633 0.980 . S
H1695 C1632 0.961 . S
H1696 C1632 0.960 . S
H1697 C1632 0.959 . S
H1698 C1635 0.930 . S
H1699 C1639 0.931 . S
H1700 C1640 0.959 . S
H1701 C1640 0.961 . S
H1702 C1640 0.959 . S
H1703 C1641 0.960 . S
H1704 C1641 0.960 . S
H1705 C1641 0.960 . S
H1706 C1677 0.980 . S
H1707 C1643 0.930 . S
H1708 C1647 0.930 . S
H1709 C1648 0.961 . S
H1710 C1648 0.960 . S
H1711 C1648 0.958 . S
H1712 C1649 0.961 . S
H1713 C1649 0.960 . S
H1714 C1649 0.960 . S
H1715 C1651 0.980 . S
H1716 C1650 0.961 . S
H1717 C1650 0.961 . S
H1718 C1650 0.959 . S
H1719 C1653 0.932 . S
H1720 C1657 0.929 . S
H1721 C1658 0.961 . S
H1722 C1658 0.959 . S
H1723 C1658 0.959 . S
H1724 C1659 0.960 . S
H1725 C1659 0.962 . S
H1726 C1659 0.961 . S
H1727 C1661 0.929 . S
H1728 C1664 0.930 . S
H1729 C1665 0.929 . S
H1730 C1668 0.930 . S
H1731 C1671 0.929 . S
H1732 C1672 0.930 . S
H1733 C1676 0.962 . S
H1734 C1676 0.959 . S
H1735 C1676 0.958 . S
C1736 C1737 1.560 . S
C1736 H1797 0.959 . S
C1736 H1798 0.959 . S
C1736 H1799 0.960 . S
C1737 C1736 1.560 . S
C1737 O1792 1.426 . S
C1737 H1796 0.980 . S
C1738 C1739 1.407 . S
C1738 C1743 1.418 . S
C1738 O1792 1.334 . S
C1739 C1738 1.407 . S
C1739 C1740 1.360 . S
C1739 H1800 0.929 . S
C1740 C1739 1.360 . S
C1740 C1741 1.401 . S
C1740 C1744 1.527 . S
C1741 C1740 1.401 . S
C1741 C1742 1.405 . S
C1741 C1774 1.587 . S
C1742 C1741 1.405 . S
C1742 C1743 1.332 . S
C1742 C1745 1.496 . S
C1743 C1738 1.418 . S
C1743 C1742 1.332 . S
C1743 H1801 0.929 . S
C1744 C1740 1.527 . S
C1744 H1802 0.959 . S
C1744 H1803 0.961 . S
C1744 H1804 0.961 . S
C1745 C1742 1.496 . S
C1745 H1805 0.960 . S
C1745 H1806 0.960 . S
C1745 H1807 0.961 . S
C1746 C1747 1.517 . S
C1746 H1809 0.961 . S
C1746 H1810 0.960 . S
C1746 H1811 0.959 . S
C1747 C1746 1.517 . S
C1747 O1795 1.468 . S
C1747 H1808 0.980 . S
C1748 C1749 1.349 . S
C1748 C1753 1.367 . S
C1748 O1795 1.408 . S
C1749 C1748 1.349 . S
C1749 C1750 1.407 . S
C1749 H1812 0.930 . S
C1750 C1749 1.407 . S
C1750 C1751 1.449 . S
C1750 C1754 1.535 . S
C1751 C1750 1.449 . S
C1751 C1752 1.384 . S
C1751 C1776 1.553 . S
C1752 C1751 1.384 . S
C1752 C1753 1.364 . S
C1752 C1755 1.450 . S
C1753 C1748 1.367 . S
C1753 C1752 1.364 . S
C1753 H1813 0.931 . S
C1754 C1750 1.535 . S
C1754 H1814 0.959 . S
C1754 H1815 0.961 . S
C1754 H1816 0.959 . S
C1755 C1752 1.450 . S
C1755 H1817 0.960 . S
C1755 H1818 0.960 . S
C1755 H1819 0.960 . S
C1756 C1757 1.309 . S
C1756 C1761 1.304 . S
C1756 O1794 1.435 . S
C1757 C1756 1.309 . S
C1757 C1758 1.476 . S
C1757 H1821 0.930 . S
C1758 C1757 1.476 . S
C1758 C1759 1.400 . S
C1758 C1762 1.567 . S
C1759 C1758 1.400 . S
C1759 C1760 1.373 . S
C1759 C1781 1.432 . S
C1760 C1759 1.373 . S
C1760 C1761 1.339 . S
C1760 C1763 1.530 . S
C1761 C1756 1.304 . S
C1761 C1760 1.339 . S
C1761 H1822 0.930 . S
C1762 C1758 1.567 . S
C1762 H1823 0.961 . S
C1762 H1824 0.960 . S
C1762 H1825 0.958 . S
C1763 C1760 1.530 . S
C1763 H1826 0.961 . S
C1763 H1827 0.960 . S
C1763 H1828 0.960 . S
C1764 C1765 1.530 . S
C1764 H1830 0.961 . S
C1764 H1831 0.961 . S
C1764 H1832 0.959 . S
C1765 C1764 1.530 . S
C1765 O1793 1.412 . S
C1765 H1829 0.980 . S
C1766 C1767 1.288 . S
C1766 C1771 1.377 . S
C1766 O1793 1.393 . S
C1767 C1766 1.288 . S
C1767 C1768 1.369 . S
C1767 H1833 0.932 . S
C1768 C1767 1.369 . S
C1768 C1769 1.398 . S
C1768 C1772 1.527 . S
C1769 C1768 1.398 . S
C1769 C1770 1.380 . S
C1769 C1783 1.497 . S
C1770 C1769 1.380 . S
C1770 C1771 1.383 . S
C1770 C1773 1.603 . S
C1771 C1766 1.377 . S
C1771 C1770 1.383 . S
C1771 H1834 0.929 . S
C1772 C1768 1.527 . S
C1772 H1835 0.961 . S
C1772 H1836 0.959 . S
C1772 H1837 0.959 . S
C1773 C1770 1.603 . S
C1773 H1838 0.960 . S
C1773 H1839 0.962 . S
C1773 H1840 0.961 . S
C1774 C1741 1.587 . S
C1774 C1775 1.360 . S
C1774 C1787 1.412 . S
C1775 C1774 1.360 . S
C1775 C1776 1.365 1_455 S
C1775 H1841 0.929 . S
C1776 C1751 1.553 . S
C1776 C1775 1.365 1_655 S
C1776 C1777 1.404 . S
C1777 C1776 1.404 . S
C1777 C1778 1.395 . S
C1777 C1788 1.451 1_655 S
C1778 C1777 1.395 . S
C1778 C1779 1.322 . S
C1778 H1842 0.930 . S
C1779 C1778 1.322 . S
C1779 C1780 1.459 . S
C1779 H1843 0.929 . S
C1780 C1779 1.459 . S
C1780 C1781 1.445 . S
C1780 C1789 1.395 1_655 S
C1781 C1759 1.432 . S
C1781 C1780 1.445 . S
C1781 C1782 1.370 1_655 S
C1782 C1781 1.370 1_455 S
C1782 C1783 1.438 . S
C1782 H1844 0.930 . S
C1783 C1769 1.497 . S
C1783 C1782 1.438 . S
C1783 C1784 1.360 . S
C1784 C1783 1.360 . S
C1784 C1785 1.401 . S
C1784 C1789 1.446 . S
C1785 C1784 1.401 . S
C1785 C1786 1.347 . S
C1785 H1845 0.929 . S
C1786 C1785 1.347 . S
C1786 C1787 1.455 . S
C1786 H1846 0.930 . S
C1787 C1774 1.412 . S
C1787 C1786 1.455 . S
C1787 C1788 1.331 . S
C1788 C1777 1.451 1_455 S
C1788 C1787 1.331 . S
C1788 C1789 1.497 . S
C1789 C1780 1.395 1_455 S
C1789 C1784 1.446 . S
C1789 C1788 1.497 . S
C1790 C1791 1.582 . S
C1790 H1847 0.962 . S
C1790 H1848 0.959 . S
C1790 H1849 0.958 . S
C1791 C1790 1.582 . S
C1791 O1794 1.458 . S
C1791 H1820 0.980 . S
O1792 C1737 1.426 . S
O1792 C1738 1.334 . S
O1793 C1765 1.412 . S
O1793 C1766 1.393 . S
O1794 C1756 1.435 . S
O1794 C1791 1.458 . S
O1795 C1747 1.468 . S
O1795 C1748 1.408 . S
H1796 C1737 0.980 . S
H1797 C1736 0.959 . S
H1798 C1736 0.959 . S
H1799 C1736 0.960 . S
H1800 C1739 0.929 . S
H1801 C1743 0.929 . S
H1802 C1744 0.959 . S
H1803 C1744 0.961 . S
H1804 C1744 0.961 . S
H1805 C1745 0.960 . S
H1806 C1745 0.960 . S
H1807 C1745 0.961 . S
H1808 C1747 0.980 . S
H1809 C1746 0.961 . S
H1810 C1746 0.960 . S
H1811 C1746 0.959 . S
H1812 C1749 0.930 . S
H1813 C1753 0.931 . S
H1814 C1754 0.959 . S
H1815 C1754 0.961 . S
H1816 C1754 0.959 . S
H1817 C1755 0.960 . S
H1818 C1755 0.960 . S
H1819 C1755 0.960 . S
H1820 C1791 0.980 . S
H1821 C1757 0.930 . S
H1822 C1761 0.930 . S
H1823 C1762 0.961 . S
H1824 C1762 0.960 . S
H1825 C1762 0.958 . S
H1826 C1763 0.961 . S
H1827 C1763 0.960 . S
H1828 C1763 0.960 . S
H1829 C1765 0.980 . S
H1830 C1764 0.961 . S
H1831 C1764 0.961 . S
H1832 C1764 0.959 . S
H1833 C1767 0.932 . S
H1834 C1771 0.929 . S
H1835 C1772 0.961 . S
H1836 C1772 0.959 . S
H1837 C1772 0.959 . S
H1838 C1773 0.960 . S
H1839 C1773 0.962 . S
H1840 C1773 0.961 . S
H1841 C1775 0.929 . S
H1842 C1778 0.930 . S
H1843 C1779 0.929 . S
H1844 C1782 0.930 . S
H1845 C1785 0.929 . S
H1846 C1786 0.930 . S
H1847 C1790 0.962 . S
H1848 C1790 0.959 . S
H1849 C1790 0.958 . S
C1850 C1851 1.560 . S
C1850 H1911 0.959 . S
C1850 H1912 0.959 . S
C1850 H1913 0.960 . S
C1851 C1850 1.560 . S
C1851 O1906 1.426 . S
C1851 H1910 0.980 . S
C1852 C1853 1.407 . S
C1852 C1857 1.418 . S
C1852 O1906 1.334 . S
C1853 C1852 1.407 . S
C1853 C1854 1.360 . S
C1853 H1914 0.929 . S
C1854 C1853 1.360 . S
C1854 C1855 1.401 . S
C1854 C1858 1.527 . S
C1855 C1854 1.401 . S
C1855 C1856 1.405 . S
C1855 C1888 1.587 . S
C1856 C1855 1.405 . S
C1856 C1857 1.332 . S
C1856 C1859 1.496 . S
C1857 C1852 1.418 . S
C1857 C1856 1.332 . S
C1857 H1915 0.929 . S
C1858 C1854 1.527 . S
C1858 H1916 0.959 . S
C1858 H1917 0.961 . S
C1858 H1918 0.961 . S
C1859 C1856 1.496 . S
C1859 H1919 0.960 . S
C1859 H1920 0.960 . S
C1859 H1921 0.961 . S
C1860 C1861 1.517 . S
C1860 H1923 0.961 . S
C1860 H1924 0.960 . S
C1860 H1925 0.959 . S
C1861 C1860 1.517 . S
C1861 O1909 1.468 . S
C1861 H1922 0.980 . S
C1862 C1863 1.349 . S
C1862 C1867 1.367 . S
C1862 O1909 1.408 . S
C1863 C1862 1.349 . S
C1863 C1864 1.407 . S
C1863 H1926 0.930 . S
C1864 C1863 1.407 . S
C1864 C1865 1.449 . S
C1864 C1868 1.535 . S
C1865 C1864 1.449 . S
C1865 C1866 1.384 . S
C1865 C1890 1.553 . S
C1866 C1865 1.384 . S
C1866 C1867 1.364 . S
C1866 C1869 1.450 . S
C1867 C1862 1.367 . S
C1867 C1866 1.364 . S
C1867 H1927 0.931 . S
C1868 C1864 1.535 . S
C1868 H1928 0.959 . S
C1868 H1929 0.961 . S
C1868 H1930 0.959 . S
C1869 C1866 1.450 . S
C1869 H1931 0.960 . S
C1869 H1932 0.960 . S
C1869 H1933 0.960 . S
C1870 C1871 1.309 . S
C1870 C1875 1.304 . S
C1870 O1908 1.435 . S
C1871 C1870 1.309 . S
C1871 C1872 1.476 . S
C1871 H1935 0.930 . S
C1872 C1871 1.476 . S
C1872 C1873 1.400 . S
C1872 C1876 1.567 . S
C1873 C1872 1.400 . S
C1873 C1874 1.373 . S
C1873 C1895 1.432 . S
C1874 C1873 1.373 . S
C1874 C1875 1.339 . S
C1874 C1877 1.530 . S
C1875 C1870 1.304 . S
C1875 C1874 1.339 . S
C1875 H1936 0.930 . S
C1876 C1872 1.567 . S
C1876 H1937 0.961 . S
C1876 H1938 0.960 . S
C1876 H1939 0.958 . S
C1877 C1874 1.530 . S
C1877 H1940 0.961 . S
C1877 H1941 0.960 . S
C1877 H1942 0.960 . S
C1878 C1879 1.530 . S
C1878 H1944 0.961 . S
C1878 H1945 0.961 . S
C1878 H1946 0.959 . S
C1879 C1878 1.530 . S
C1879 O1907 1.412 . S
C1879 H1943 0.980 . S
C1880 C1881 1.288 . S
C1880 C1885 1.377 . S
C1880 O1907 1.393 . S
C1881 C1880 1.288 . S
C1881 C1882 1.369 . S
C1881 H1947 0.932 . S
C1882 C1881 1.369 . S
C1882 C1883 1.398 . S
C1882 C1886 1.527 . S
C1883 C1882 1.398 . S
C1883 C1884 1.380 . S
C1883 C1897 1.497 . S
C1884 C1883 1.380 . S
C1884 C1885 1.383 . S
C1884 C1887 1.603 . S
C1885 C1880 1.377 . S
C1885 C1884 1.383 . S
C1885 H1948 0.929 . S
C1886 C1882 1.527 . S
C1886 H1949 0.961 . S
C1886 H1950 0.959 . S
C1886 H1951 0.959 . S
C1887 C1884 1.603 . S
C1887 H1952 0.960 . S
C1887 H1953 0.962 . S
C1887 H1954 0.961 . S
C1888 C1855 1.587 . S
C1888 C1889 1.360 . S
C1888 C1901 1.412 . S
C1889 C1888 1.360 . S
C1889 C1890 1.365 1_545 S
C1889 H1955 0.929 . S
C1890 C1865 1.553 . S
C1890 C1889 1.365 1_565 S
C1890 C1891 1.404 . S
C1891 C1890 1.404 . S
C1891 C1892 1.395 . S
C1891 C1902 1.451 1_565 S
C1892 C1891 1.395 . S
C1892 C1893 1.322 . S
C1892 H1956 0.930 . S
C1893 C1892 1.322 . S
C1893 C1894 1.459 . S
C1893 H1957 0.929 . S
C1894 C1893 1.459 . S
C1894 C1895 1.445 . S
C1894 C1903 1.395 1_565 S
C1895 C1873 1.432 . S
C1895 C1894 1.445 . S
C1895 C1896 1.370 1_565 S
C1896 C1895 1.370 1_545 S
C1896 C1897 1.438 . S
C1896 H1958 0.930 . S
C1897 C1883 1.497 . S
C1897 C1896 1.438 . S
C1897 C1898 1.360 . S
C1898 C1897 1.360 . S
C1898 C1899 1.401 . S
C1898 C1903 1.446 . S
C1899 C1898 1.401 . S
C1899 C1900 1.347 . S
C1899 H1959 0.929 . S
C1900 C1899 1.347 . S
C1900 C1901 1.455 . S
C1900 H1960 0.930 . S
C1901 C1888 1.412 . S
C1901 C1900 1.455 . S
C1901 C1902 1.331 . S
C1902 C1891 1.451 1_545 S
C1902 C1901 1.331 . S
C1902 C1903 1.497 . S
C1903 C1894 1.395 1_545 S
C1903 C1898 1.446 . S
C1903 C1902 1.497 . S
C1904 C1905 1.582 . S
C1904 H1961 0.962 . S
C1904 H1962 0.959 . S
C1904 H1963 0.958 . S
C1905 C1904 1.582 . S
C1905 O1908 1.458 . S
C1905 H1934 0.980 . S
O1906 C1851 1.426 . S
O1906 C1852 1.334 . S
O1907 C1879 1.412 . S
O1907 C1880 1.393 . S
O1908 C1870 1.435 . S
O1908 C1905 1.458 . S
O1909 C1861 1.468 . S
O1909 C1862 1.408 . S
H1910 C1851 0.980 . S
H1911 C1850 0.959 . S
H1912 C1850 0.959 . S
H1913 C1850 0.960 . S
H1914 C1853 0.929 . S
H1915 C1857 0.929 . S
H1916 C1858 0.959 . S
H1917 C1858 0.961 . S
H1918 C1858 0.961 . S
H1919 C1859 0.960 . S
H1920 C1859 0.960 . S
H1921 C1859 0.961 . S
H1922 C1861 0.980 . S
H1923 C1860 0.961 . S
H1924 C1860 0.960 . S
H1925 C1860 0.959 . S
H1926 C1863 0.930 . S
H1927 C1867 0.931 . S
H1928 C1868 0.959 . S
H1929 C1868 0.961 . S
H1930 C1868 0.959 . S
H1931 C1869 0.960 . S
H1932 C1869 0.960 . S
H1933 C1869 0.960 . S
H1934 C1905 0.980 . S
H1935 C1871 0.930 . S
H1936 C1875 0.930 . S
H1937 C1876 0.961 . S
H1938 C1876 0.960 . S
H1939 C1876 0.958 . S
H1940 C1877 0.961 . S
H1941 C1877 0.960 . S
H1942 C1877 0.960 . S
H1943 C1879 0.980 . S
H1944 C1878 0.961 . S
H1945 C1878 0.961 . S
H1946 C1878 0.959 . S
H1947 C1881 0.932 . S
H1948 C1885 0.929 . S
H1949 C1886 0.961 . S
H1950 C1886 0.959 . S
H1951 C1886 0.959 . S
H1952 C1887 0.960 . S
H1953 C1887 0.962 . S
H1954 C1887 0.961 . S
H1955 C1889 0.929 . S
H1956 C1892 0.930 . S
H1957 C1893 0.929 . S
H1958 C1896 0.930 . S
H1959 C1899 0.929 . S
H1960 C1900 0.930 . S
H1961 C1904 0.962 . S
H1962 C1904 0.959 . S
H1963 C1904 0.958 . S
C1964 C1965 1.560 . S
C1964 H2025 0.959 . S
C1964 H2026 0.959 . S
C1964 H2027 0.960 . S
C1965 C1964 1.560 . S
C1965 O2020 1.426 . S
C1965 H2024 0.980 . S
C1966 C1967 1.407 . S
C1966 C1971 1.418 . S
C1966 O2020 1.334 . S
C1967 C1966 1.407 . S
C1967 C1968 1.360 . S
C1967 H2028 0.929 . S
C1968 C1967 1.360 . S
C1968 C1969 1.401 . S
C1968 C1972 1.527 . S
C1969 C1968 1.401 . S
C1969 C1970 1.405 . S
C1969 C2002 1.587 . S
C1970 C1969 1.405 . S
C1970 C1971 1.332 . S
C1970 C1973 1.496 . S
C1971 C1966 1.418 . S
C1971 C1970 1.332 . S
C1971 H2029 0.929 . S
C1972 C1968 1.527 . S
C1972 H2030 0.959 . S
C1972 H2031 0.961 . S
C1972 H2032 0.961 . S
C1973 C1970 1.496 . S
C1973 H2033 0.960 . S
C1973 H2034 0.960 . S
C1973 H2035 0.961 . S
C1974 C1975 1.517 . S
C1974 H2037 0.961 . S
C1974 H2038 0.960 . S
C1974 H2039 0.959 . S
C1975 C1974 1.517 . S
C1975 O2023 1.468 . S
C1975 H2036 0.980 . S
C1976 C1977 1.349 . S
C1976 C1981 1.367 . S
C1976 O2023 1.408 . S
C1977 C1976 1.349 . S
C1977 C1978 1.407 . S
C1977 H2040 0.930 . S
C1978 C1977 1.407 . S
C1978 C1979 1.449 . S
C1978 C1982 1.535 . S
C1979 C1978 1.449 . S
C1979 C1980 1.384 . S
C1979 C2004 1.553 . S
C1980 C1979 1.384 . S
C1980 C1981 1.364 . S
C1980 C1983 1.450 . S
C1981 C1976 1.367 . S
C1981 C1980 1.364 . S
C1981 H2041 0.931 . S
C1982 C1978 1.535 . S
C1982 H2042 0.959 . S
C1982 H2043 0.961 . S
C1982 H2044 0.959 . S
C1983 C1980 1.450 . S
C1983 H2045 0.960 . S
C1983 H2046 0.960 . S
C1983 H2047 0.960 . S
C1984 C1985 1.309 . S
C1984 C1989 1.304 . S
C1984 O2022 1.435 . S
C1985 C1984 1.309 . S
C1985 C1986 1.476 . S
C1985 H2049 0.930 . S
C1986 C1985 1.476 . S
C1986 C1987 1.400 . S
C1986 C1990 1.567 . S
C1987 C1986 1.400 . S
C1987 C1988 1.373 . S
C1987 C2009 1.432 . S
C1988 C1987 1.373 . S
C1988 C1989 1.339 . S
C1988 C1991 1.530 . S
C1989 C1984 1.304 . S
C1989 C1988 1.339 . S
C1989 H2050 0.930 . S
C1990 C1986 1.567 . S
C1990 H2051 0.961 . S
C1990 H2052 0.960 . S
C1990 H2053 0.958 . S
C1991 C1988 1.530 . S
C1991 H2054 0.961 . S
C1991 H2055 0.960 . S
C1991 H2056 0.960 . S
C1992 C1993 1.530 . S
C1992 H2058 0.961 . S
C1992 H2059 0.961 . S
C1992 H2060 0.959 . S
C1993 C1992 1.530 . S
C1993 O2021 1.412 . S
C1993 H2057 0.980 . S
C1994 C1995 1.288 . S
C1994 C1999 1.377 . S
C1994 O2021 1.393 . S
C1995 C1994 1.288 . S
C1995 C1996 1.369 . S
C1995 H2061 0.932 . S
C1996 C1995 1.369 . S
C1996 C1997 1.398 . S
C1996 C2000 1.527 . S
C1997 C1996 1.398 . S
C1997 C1998 1.380 . S
C1997 C2011 1.497 . S
C1998 C1997 1.380 . S
C1998 C1999 1.383 . S
C1998 C2001 1.603 . S
C1999 C1994 1.377 . S
C1999 C1998 1.383 . S
C1999 H2062 0.929 . S
C2000 C1996 1.527 . S
C2000 H2063 0.961 . S
C2000 H2064 0.959 . S
C2000 H2065 0.959 . S
C2001 C1998 1.603 . S
C2001 H2066 0.960 . S
C2001 H2067 0.962 . S
C2001 H2068 0.961 . S
C2002 C1969 1.587 . S
C2002 C2003 1.360 . S
C2002 C2015 1.412 . S
C2003 C2002 1.360 . S
C2003 C2004 1.365 1_455 S
C2003 H2069 0.929 . S
C2004 C1979 1.553 . S
C2004 C2003 1.365 1_655 S
C2004 C2005 1.404 . S
C2005 C2004 1.404 . S
C2005 C2006 1.395 . S
C2005 C2016 1.451 1_655 S
C2006 C2005 1.395 . S
C2006 C2007 1.322 . S
C2006 H2070 0.930 . S
C2007 C2006 1.322 . S
C2007 C2008 1.459 . S
C2007 H2071 0.929 . S
C2008 C2007 1.459 . S
C2008 C2009 1.445 . S
C2008 C2017 1.395 1_655 S
C2009 C1987 1.432 . S
C2009 C2008 1.445 . S
C2009 C2010 1.370 1_655 S
C2010 C2009 1.370 1_455 S
C2010 C2011 1.438 . S
C2010 H2072 0.930 . S
C2011 C1997 1.497 . S
C2011 C2010 1.438 . S
C2011 C2012 1.360 . S
C2012 C2011 1.360 . S
C2012 C2013 1.401 . S
C2012 C2017 1.446 . S
C2013 C2012 1.401 . S
C2013 C2014 1.347 . S
C2013 H2073 0.929 . S
C2014 C2013 1.347 . S
C2014 C2015 1.455 . S
C2014 H2074 0.930 . S
C2015 C2002 1.412 . S
C2015 C2014 1.455 . S
C2015 C2016 1.331 . S
C2016 C2005 1.451 1_455 S
C2016 C2015 1.331 . S
C2016 C2017 1.497 . S
C2017 C2008 1.395 1_455 S
C2017 C2012 1.446 . S
C2017 C2016 1.497 . S
C2018 C2019 1.582 . S
C2018 H2075 0.962 . S
C2018 H2076 0.959 . S
C2018 H2077 0.958 . S
C2019 C2018 1.582 . S
C2019 O2022 1.458 . S
C2019 H2048 0.980 . S
O2020 C1965 1.426 . S
O2020 C1966 1.334 . S
O2021 C1993 1.412 . S
O2021 C1994 1.393 . S
O2022 C1984 1.435 . S
O2022 C2019 1.458 . S
O2023 C1975 1.468 . S
O2023 C1976 1.408 . S
H2024 C1965 0.980 . S
H2025 C1964 0.959 . S
H2026 C1964 0.959 . S
H2027 C1964 0.960 . S
H2028 C1967 0.929 . S
H2029 C1971 0.929 . S
H2030 C1972 0.959 . S
H2031 C1972 0.961 . S
H2032 C1972 0.961 . S
H2033 C1973 0.960 . S
H2034 C1973 0.960 . S
H2035 C1973 0.961 . S
H2036 C1975 0.980 . S
H2037 C1974 0.961 . S
H2038 C1974 0.960 . S
H2039 C1974 0.959 . S
H2040 C1977 0.930 . S
H2041 C1981 0.931 . S
H2042 C1982 0.959 . S
H2043 C1982 0.961 . S
H2044 C1982 0.959 . S
H2045 C1983 0.960 . S
H2046 C1983 0.960 . S
H2047 C1983 0.960 . S
H2048 C2019 0.980 . S
H2049 C1985 0.930 . S
H2050 C1989 0.930 . S
H2051 C1990 0.961 . S
H2052 C1990 0.960 . S
H2053 C1990 0.958 . S
H2054 C1991 0.961 . S
H2055 C1991 0.960 . S
H2056 C1991 0.960 . S
H2057 C1993 0.980 . S
H2058 C1992 0.961 . S
H2059 C1992 0.961 . S
H2060 C1992 0.959 . S
H2061 C1995 0.932 . S
H2062 C1999 0.929 . S
H2063 C2000 0.961 . S
H2064 C2000 0.959 . S
H2065 C2000 0.959 . S
H2066 C2001 0.960 . S
H2067 C2001 0.962 . S
H2068 C2001 0.961 . S
H2069 C2003 0.929 . S
H2070 C2006 0.930 . S
H2071 C2007 0.929 . S
H2072 C2010 0.930 . S
H2073 C2013 0.929 . S
H2074 C2014 0.930 . S
H2075 C2018 0.962 . S
H2076 C2018 0.959 . S
H2077 C2018 0.958 . S
C2078 C2079 1.560 . S
C2078 H2139 0.959 . S
C2078 H2140 0.959 . S
C2078 H2141 0.960 . S
C2079 C2078 1.560 . S
C2079 O2134 1.426 . S
C2079 H2138 0.980 . S
C2080 C2081 1.407 . S
C2080 C2085 1.418 . S
C2080 O2134 1.334 . S
C2081 C2080 1.407 . S
C2081 C2082 1.360 . S
C2081 H2142 0.929 . S
C2082 C2081 1.360 . S
C2082 C2083 1.401 . S
C2082 C2086 1.527 . S
C2083 C2082 1.401 . S
C2083 C2084 1.405 . S
C2083 C2116 1.587 . S
C2084 C2083 1.405 . S
C2084 C2085 1.332 . S
C2084 C2087 1.496 . S
C2085 C2080 1.418 . S
C2085 C2084 1.332 . S
C2085 H2143 0.929 . S
C2086 C2082 1.527 . S
C2086 H2144 0.959 . S
C2086 H2145 0.961 . S
C2086 H2146 0.961 . S
C2087 C2084 1.496 . S
C2087 H2147 0.960 . S
C2087 H2148 0.960 . S
C2087 H2149 0.961 . S
C2088 C2089 1.517 . S
C2088 H2151 0.961 . S
C2088 H2152 0.960 . S
C2088 H2153 0.959 . S
C2089 C2088 1.517 . S
C2089 O2137 1.468 . S
C2089 H2150 0.980 . S
C2090 C2091 1.349 . S
C2090 C2095 1.367 . S
C2090 O2137 1.408 . S
C2091 C2090 1.349 . S
C2091 C2092 1.407 . S
C2091 H2154 0.930 . S
C2092 C2091 1.407 . S
C2092 C2093 1.449 . S
C2092 C2096 1.535 . S
C2093 C2092 1.449 . S
C2093 C2094 1.384 . S
C2093 C2118 1.553 . S
C2094 C2093 1.384 . S
C2094 C2095 1.364 . S
C2094 C2097 1.450 . S
C2095 C2090 1.367 . S
C2095 C2094 1.364 . S
C2095 H2155 0.931 . S
C2096 C2092 1.535 . S
C2096 H2156 0.959 . S
C2096 H2157 0.961 . S
C2096 H2158 0.959 . S
C2097 C2094 1.450 . S
C2097 H2159 0.960 . S
C2097 H2160 0.960 . S
C2097 H2161 0.960 . S
C2098 C2099 1.309 . S
C2098 C2103 1.304 . S
C2098 O2136 1.435 . S
C2099 C2098 1.309 . S
C2099 C2100 1.476 . S
C2099 H2163 0.930 . S
C2100 C2099 1.476 . S
C2100 C2101 1.400 . S
C2100 C2104 1.567 . S
C2101 C2100 1.400 . S
C2101 C2102 1.373 . S
C2101 C2123 1.432 . S
C2102 C2101 1.373 . S
C2102 C2103 1.339 . S
C2102 C2105 1.530 . S
C2103 C2098 1.304 . S
C2103 C2102 1.339 . S
C2103 H2164 0.930 . S
C2104 C2100 1.567 . S
C2104 H2165 0.961 . S
C2104 H2166 0.960 . S
C2104 H2167 0.958 . S
C2105 C2102 1.530 . S
C2105 H2168 0.961 . S
C2105 H2169 0.960 . S
C2105 H2170 0.960 . S
C2106 C2107 1.530 . S
C2106 H2172 0.961 . S
C2106 H2173 0.961 . S
C2106 H2174 0.959 . S
C2107 C2106 1.530 . S
C2107 O2135 1.412 . S
C2107 H2171 0.980 . S
C2108 C2109 1.288 . S
C2108 C2113 1.377 . S
C2108 O2135 1.393 . S
C2109 C2108 1.288 . S
C2109 C2110 1.369 . S
C2109 H2175 0.932 . S
C2110 C2109 1.369 . S
C2110 C2111 1.398 . S
C2110 C2114 1.527 . S
C2111 C2110 1.398 . S
C2111 C2112 1.380 . S
C2111 C2125 1.497 . S
C2112 C2111 1.380 . S
C2112 C2113 1.383 . S
C2112 C2115 1.603 . S
C2113 C2108 1.377 . S
C2113 C2112 1.383 . S
C2113 H2176 0.929 . S
C2114 C2110 1.527 . S
C2114 H2177 0.961 . S
C2114 H2178 0.959 . S
C2114 H2179 0.959 . S
C2115 C2112 1.603 . S
C2115 H2180 0.960 . S
C2115 H2181 0.962 . S
C2115 H2182 0.961 . S
C2116 C2083 1.587 . S
C2116 C2117 1.360 1_565 S
C2116 C2129 1.412 . S
C2117 C2116 1.360 1_545 S
C2117 C2118 1.365 . S
C2117 H2183 0.929 . S
C2118 C2093 1.553 . S
C2118 C2117 1.365 . S
C2118 C2119 1.404 . S
C2119 C2118 1.404 . S
C2119 C2120 1.395 . S
C2119 C2130 1.451 . S
C2120 C2119 1.395 . S
C2120 C2121 1.322 . S
C2120 H2184 0.930 . S
C2121 C2120 1.322 . S
C2121 C2122 1.459 . S
C2121 H2185 0.929 . S
C2122 C2121 1.459 . S
C2122 C2123 1.445 . S
C2122 C2131 1.395 . S
C2123 C2101 1.432 . S
C2123 C2122 1.445 . S
C2123 C2124 1.370 . S
C2124 C2123 1.370 . S
C2124 C2125 1.438 1_545 S
C2124 H2186 0.930 . S
C2125 C2111 1.497 . S
C2125 C2124 1.438 1_565 S
C2125 C2126 1.360 . S
C2126 C2125 1.360 . S
C2126 C2127 1.401 . S
C2126 C2131 1.446 1_565 S
C2127 C2126 1.401 . S
C2127 C2128 1.347 . S
C2127 H2187 0.929 . S
C2128 C2127 1.347 . S
C2128 C2129 1.455 . S
C2128 H2188 0.930 . S
C2129 C2116 1.412 . S
C2129 C2128 1.455 . S
C2129 C2130 1.331 1_565 S
C2130 C2119 1.451 . S
C2130 C2129 1.331 1_545 S
C2130 C2131 1.497 . S
C2131 C2122 1.395 . S
C2131 C2126 1.446 1_545 S
C2131 C2130 1.497 . S
C2132 C2133 1.582 . S
C2132 H2189 0.962 . S
C2132 H2190 0.959 . S
C2132 H2191 0.958 . S
C2133 C2132 1.582 . S
C2133 O2136 1.458 . S
C2133 H2162 0.980 . S
O2134 C2079 1.426 . S
O2134 C2080 1.334 . S
O2135 C2107 1.412 . S
O2135 C2108 1.393 . S
O2136 C2098 1.435 . S
O2136 C2133 1.458 . S
O2137 C2089 1.468 . S
O2137 C2090 1.408 . S
H2138 C2079 0.980 . S
H2139 C2078 0.959 . S
H2140 C2078 0.959 . S
H2141 C2078 0.960 . S
H2142 C2081 0.929 . S
H2143 C2085 0.929 . S
H2144 C2086 0.959 . S
H2145 C2086 0.961 . S
H2146 C2086 0.961 . S
H2147 C2087 0.960 . S
H2148 C2087 0.960 . S
H2149 C2087 0.961 . S
H2150 C2089 0.980 . S
H2151 C2088 0.961 . S
H2152 C2088 0.960 . S
H2153 C2088 0.959 . S
H2154 C2091 0.930 . S
H2155 C2095 0.931 . S
H2156 C2096 0.959 . S
H2157 C2096 0.961 . S
H2158 C2096 0.959 . S
H2159 C2097 0.960 . S
H2160 C2097 0.960 . S
H2161 C2097 0.960 . S
H2162 C2133 0.980 . S
H2163 C2099 0.930 . S
H2164 C2103 0.930 . S
H2165 C2104 0.961 . S
H2166 C2104 0.960 . S
H2167 C2104 0.958 . S
H2168 C2105 0.961 . S
H2169 C2105 0.960 . S
H2170 C2105 0.960 . S
H2171 C2107 0.980 . S
H2172 C2106 0.961 . S
H2173 C2106 0.961 . S
H2174 C2106 0.959 . S
H2175 C2109 0.932 . S
H2176 C2113 0.929 . S
H2177 C2114 0.961 . S
H2178 C2114 0.959 . S
H2179 C2114 0.959 . S
H2180 C2115 0.960 . S
H2181 C2115 0.962 . S
H2182 C2115 0.961 . S
H2183 C2117 0.929 . S
H2184 C2120 0.930 . S
H2185 C2121 0.929 . S
H2186 C2124 0.930 . S
H2187 C2127 0.929 . S
H2188 C2128 0.930 . S
H2189 C2132 0.962 . S
H2190 C2132 0.959 . S
H2191 C2132 0.958 . S
C2192 C2193 1.560 . S
C2192 H2253 0.959 . S
C2192 H2254 0.959 . S
C2192 H2255 0.960 . S
C2193 C2192 1.560 . S
C2193 O2248 1.426 . S
C2193 H2252 0.980 . S
C2194 C2195 1.407 . S
C2194 C2199 1.418 . S
C2194 O2248 1.334 . S
C2195 C2194 1.407 . S
C2195 C2196 1.360 . S
C2195 H2256 0.929 . S
C2196 C2195 1.360 . S
C2196 C2197 1.401 . S
C2196 C2200 1.527 . S
C2197 C2196 1.401 . S
C2197 C2198 1.405 . S
C2197 C2230 1.587 . S
C2198 C2197 1.405 . S
C2198 C2199 1.332 . S
C2198 C2201 1.496 . S
C2199 C2194 1.418 . S
C2199 C2198 1.332 . S
C2199 H2257 0.929 . S
C2200 C2196 1.527 . S
C2200 H2258 0.959 . S
C2200 H2259 0.961 . S
C2200 H2260 0.961 . S
C2201 C2198 1.496 . S
C2201 H2261 0.960 . S
C2201 H2262 0.960 . S
C2201 H2263 0.961 . S
C2202 C2203 1.517 . S
C2202 H2265 0.961 . S
C2202 H2266 0.960 . S
C2202 H2267 0.959 . S
C2203 C2202 1.517 . S
C2203 O2251 1.468 . S
C2203 H2264 0.980 . S
C2204 C2205 1.349 . S
C2204 C2209 1.367 . S
C2204 O2251 1.408 . S
C2205 C2204 1.349 . S
C2205 C2206 1.407 . S
C2205 H2268 0.930 . S
C2206 C2205 1.407 . S
C2206 C2207 1.449 . S
C2206 C2210 1.535 . S
C2207 C2206 1.449 . S
C2207 C2208 1.384 . S
C2207 C2232 1.553 . S
C2208 C2207 1.384 . S
C2208 C2209 1.364 . S
C2208 C2211 1.450 . S
C2209 C2204 1.367 . S
C2209 C2208 1.364 . S
C2209 H2269 0.931 . S
C2210 C2206 1.535 . S
C2210 H2270 0.959 . S
C2210 H2271 0.961 . S
C2210 H2272 0.959 . S
C2211 C2208 1.450 . S
C2211 H2273 0.960 . S
C2211 H2274 0.960 . S
C2211 H2275 0.960 . S
C2212 C2213 1.309 . S
C2212 C2217 1.304 . S
C2212 O2250 1.435 . S
C2213 C2212 1.309 . S
C2213 C2214 1.476 . S
C2213 H2277 0.930 . S
C2214 C2213 1.476 . S
C2214 C2215 1.400 . S
C2214 C2218 1.567 . S
C2215 C2214 1.400 . S
C2215 C2216 1.373 . S
C2215 C2237 1.432 . S
C2216 C2215 1.373 . S
C2216 C2217 1.339 . S
C2216 C2219 1.530 . S
C2217 C2212 1.304 . S
C2217 C2216 1.339 . S
C2217 H2278 0.930 . S
C2218 C2214 1.567 . S
C2218 H2279 0.961 . S
C2218 H2280 0.960 . S
C2218 H2281 0.958 . S
C2219 C2216 1.530 . S
C2219 H2282 0.961 . S
C2219 H2283 0.960 . S
C2219 H2284 0.960 . S
C2220 C2221 1.530 . S
C2220 H2286 0.961 . S
C2220 H2287 0.961 . S
C2220 H2288 0.959 . S
C2221 C2220 1.530 . S
C2221 O2249 1.412 . S
C2221 H2285 0.980 . S
C2222 C2223 1.288 . S
C2222 C2227 1.377 . S
C2222 O2249 1.393 . S
C2223 C2222 1.288 . S
C2223 C2224 1.369 . S
C2223 H2289 0.932 . S
C2224 C2223 1.369 . S
C2224 C2225 1.398 . S
C2224 C2228 1.527 . S
C2225 C2224 1.398 . S
C2225 C2226 1.380 . S
C2225 C2239 1.497 . S
C2226 C2225 1.380 . S
C2226 C2227 1.383 . S
C2226 C2229 1.603 . S
C2227 C2222 1.377 . S
C2227 C2226 1.383 . S
C2227 H2290 0.929 . S
C2228 C2224 1.527 . S
C2228 H2291 0.961 . S
C2228 H2292 0.959 . S
C2228 H2293 0.959 . S
C2229 C2226 1.603 . S
C2229 H2294 0.960 . S
C2229 H2295 0.962 . S
C2229 H2296 0.961 . S
C2230 C2197 1.587 . S
C2230 C2231 1.360 1_655 S
C2230 C2243 1.412 . S
C2231 C2230 1.360 1_455 S
C2231 C2232 1.365 . S
C2231 H2297 0.929 . S
C2232 C2207 1.553 . S
C2232 C2231 1.365 . S
C2232 C2233 1.404 . S
C2233 C2232 1.404 . S
C2233 C2234 1.395 . S
C2233 C2244 1.451 . S
C2234 C2233 1.395 . S
C2234 C2235 1.322 . S
C2234 H2298 0.930 . S
C2235 C2234 1.322 . S
C2235 C2236 1.459 . S
C2235 H2299 0.929 . S
C2236 C2235 1.459 . S
C2236 C2237 1.445 . S
C2236 C2245 1.395 . S
C2237 C2215 1.432 . S
C2237 C2236 1.445 . S
C2237 C2238 1.370 . S
C2238 C2237 1.370 . S
C2238 C2239 1.438 1_455 S
C2238 H2300 0.930 . S
C2239 C2225 1.497 . S
C2239 C2238 1.438 1_655 S
C2239 C2240 1.360 . S
C2240 C2239 1.360 . S
C2240 C2241 1.401 . S
C2240 C2245 1.446 1_655 S
C2241 C2240 1.401 . S
C2241 C2242 1.347 . S
C2241 H2301 0.929 . S
C2242 C2241 1.347 . S
C2242 C2243 1.455 . S
C2242 H2302 0.930 . S
C2243 C2230 1.412 . S
C2243 C2242 1.455 . S
C2243 C2244 1.331 1_655 S
C2244 C2233 1.451 . S
C2244 C2243 1.331 1_455 S
C2244 C2245 1.497 . S
C2245 C2236 1.395 . S
C2245 C2240 1.446 1_455 S
C2245 C2244 1.497 . S
C2246 C2247 1.582 . S
C2246 H2303 0.962 . S
C2246 H2304 0.959 . S
C2246 H2305 0.958 . S
C2247 C2246 1.582 . S
C2247 O2250 1.458 . S
C2247 H2276 0.980 . S
O2248 C2193 1.426 . S
O2248 C2194 1.334 . S
O2249 C2221 1.412 . S
O2249 C2222 1.393 . S
O2250 C2212 1.435 . S
O2250 C2247 1.458 . S
O2251 C2203 1.468 . S
O2251 C2204 1.408 . S
H2252 C2193 0.980 . S
H2253 C2192 0.959 . S
H2254 C2192 0.959 . S
H2255 C2192 0.960 . S
H2256 C2195 0.929 . S
H2257 C2199 0.929 . S
H2258 C2200 0.959 . S
H2259 C2200 0.961 . S
H2260 C2200 0.961 . S
H2261 C2201 0.960 . S
H2262 C2201 0.960 . S
H2263 C2201 0.961 . S
H2264 C2203 0.980 . S
H2265 C2202 0.961 . S
H2266 C2202 0.960 . S
H2267 C2202 0.959 . S
H2268 C2205 0.930 . S
H2269 C2209 0.931 . S
H2270 C2210 0.959 . S
H2271 C2210 0.961 . S
H2272 C2210 0.959 . S
H2273 C2211 0.960 . S
H2274 C2211 0.960 . S
H2275 C2211 0.960 . S
H2276 C2247 0.980 . S
H2277 C2213 0.930 . S
H2278 C2217 0.930 . S
H2279 C2218 0.961 . S
H2280 C2218 0.960 . S
H2281 C2218 0.958 . S
H2282 C2219 0.961 . S
H2283 C2219 0.960 . S
H2284 C2219 0.960 . S
H2285 C2221 0.980 . S
H2286 C2220 0.961 . S
H2287 C2220 0.961 . S
H2288 C2220 0.959 . S
H2289 C2223 0.932 . S
H2290 C2227 0.929 . S
H2291 C2228 0.961 . S
H2292 C2228 0.959 . S
H2293 C2228 0.959 . S
H2294 C2229 0.960 . S
H2295 C2229 0.962 . S
H2296 C2229 0.961 . S
H2297 C2231 0.929 . S
H2298 C2234 0.930 . S
H2299 C2235 0.929 . S
H2300 C2238 0.930 . S
H2301 C2241 0.929 . S
H2302 C2242 0.930 . S
H2303 C2246 0.962 . S
H2304 C2246 0.959 . S
H2305 C2246 0.958 . S
C2306 C2307 1.560 . S
C2306 H2367 0.959 . S
C2306 H2368 0.959 . S
C2306 H2369 0.960 . S
C2307 C2306 1.560 . S
C2307 O2362 1.426 . S
C2307 H2366 0.980 . S
C2308 C2309 1.407 . S
C2308 C2313 1.418 . S
C2308 O2362 1.334 . S
C2309 C2308 1.407 . S
C2309 C2310 1.360 . S
C2309 H2370 0.929 . S
C2310 C2309 1.360 . S
C2310 C2311 1.401 . S
C2310 C2314 1.527 . S
C2311 C2310 1.401 . S
C2311 C2312 1.405 . S
C2311 C2344 1.587 . S
C2312 C2311 1.405 . S
C2312 C2313 1.332 . S
C2312 C2315 1.496 . S
C2313 C2308 1.418 . S
C2313 C2312 1.332 . S
C2313 H2371 0.929 . S
C2314 C2310 1.527 . S
C2314 H2372 0.959 . S
C2314 H2373 0.961 . S
C2314 H2374 0.961 . S
C2315 C2312 1.496 . S
C2315 H2375 0.960 . S
C2315 H2376 0.960 . S
C2315 H2377 0.961 . S
C2316 C2317 1.517 . S
C2316 H2379 0.961 . S
C2316 H2380 0.960 . S
C2316 H2381 0.959 . S
C2317 C2316 1.517 . S
C2317 O2365 1.468 . S
C2317 H2378 0.980 . S
C2318 C2319 1.349 . S
C2318 C2323 1.367 . S
C2318 O2365 1.408 . S
C2319 C2318 1.349 . S
C2319 C2320 1.407 . S
C2319 H2382 0.930 . S
C2320 C2319 1.407 . S
C2320 C2321 1.449 . S
C2320 C2324 1.535 . S
C2321 C2320 1.449 . S
C2321 C2322 1.384 . S
C2321 C2346 1.553 . S
C2322 C2321 1.384 . S
C2322 C2323 1.364 . S
C2322 C2325 1.450 . S
C2323 C2318 1.367 . S
C2323 C2322 1.364 . S
C2323 H2383 0.931 . S
C2324 C2320 1.535 . S
C2324 H2384 0.959 . S
C2324 H2385 0.961 . S
C2324 H2386 0.959 . S
C2325 C2322 1.450 . S
C2325 H2387 0.960 . S
C2325 H2388 0.960 . S
C2325 H2389 0.960 . S
C2326 C2327 1.309 . S
C2326 C2331 1.304 . S
C2326 O2364 1.435 . S
C2327 C2326 1.309 . S
C2327 C2328 1.476 . S
C2327 H2391 0.930 . S
C2328 C2327 1.476 . S
C2328 C2329 1.400 . S
C2328 C2332 1.567 . S
C2329 C2328 1.400 . S
C2329 C2330 1.373 . S
C2329 C2351 1.432 . S
C2330 C2329 1.373 . S
C2330 C2331 1.339 . S
C2330 C2333 1.530 . S
C2331 C2326 1.304 . S
C2331 C2330 1.339 . S
C2331 H2392 0.930 . S
C2332 C2328 1.567 . S
C2332 H2393 0.961 . S
C2332 H2394 0.960 . S
C2332 H2395 0.958 . S
C2333 C2330 1.530 . S
C2333 H2396 0.961 . S
C2333 H2397 0.960 . S
C2333 H2398 0.960 . S
C2334 C2335 1.530 . S
C2334 H2400 0.961 . S
C2334 H2401 0.961 . S
C2334 H2402 0.959 . S
C2335 C2334 1.530 . S
C2335 O2363 1.412 . S
C2335 H2399 0.980 . S
C2336 C2337 1.288 . S
C2336 C2341 1.377 . S
C2336 O2363 1.393 . S
C2337 C2336 1.288 . S
C2337 C2338 1.369 . S
C2337 H2403 0.932 . S
C2338 C2337 1.369 . S
C2338 C2339 1.398 . S
C2338 C2342 1.527 . S
C2339 C2338 1.398 . S
C2339 C2340 1.380 . S
C2339 C2353 1.497 . S
C2340 C2339 1.380 . S
C2340 C2341 1.383 . S
C2340 C2343 1.603 . S
C2341 C2336 1.377 . S
C2341 C2340 1.383 . S
C2341 H2404 0.929 . S
C2342 C2338 1.527 . S
C2342 H2405 0.961 . S
C2342 H2406 0.959 . S
C2342 H2407 0.959 . S
C2343 C2340 1.603 . S
C2343 H2408 0.960 . S
C2343 H2409 0.962 . S
C2343 H2410 0.961 . S
C2344 C2311 1.587 . S
C2344 C2345 1.360 . S
C2344 C2357 1.412 . S
C2345 C2344 1.360 . S
C2345 C2346 1.365 1_545 S
C2345 H2411 0.929 . S
C2346 C2321 1.553 . S
C2346 C2345 1.365 1_565 S
C2346 C2347 1.404 . S
C2347 C2346 1.404 . S
C2347 C2348 1.395 . S
C2347 C2358 1.451 1_565 S
C2348 C2347 1.395 . S
C2348 C2349 1.322 . S
C2348 H2412 0.930 . S
C2349 C2348 1.322 . S
C2349 C2350 1.459 . S
C2349 H2413 0.929 . S
C2350 C2349 1.459 . S
C2350 C2351 1.445 . S
C2350 C2359 1.395 1_565 S
C2351 C2329 1.432 . S
C2351 C2350 1.445 . S
C2351 C2352 1.370 1_565 S
C2352 C2351 1.370 1_545 S
C2352 C2353 1.438 . S
C2352 H2414 0.930 . S
C2353 C2339 1.497 . S
C2353 C2352 1.438 . S
C2353 C2354 1.360 . S
C2354 C2353 1.360 . S
C2354 C2355 1.401 . S
C2354 C2359 1.446 . S
C2355 C2354 1.401 . S
C2355 C2356 1.347 . S
C2355 H2415 0.929 . S
C2356 C2355 1.347 . S
C2356 C2357 1.455 . S
C2356 H2416 0.930 . S
C2357 C2344 1.412 . S
C2357 C2356 1.455 . S
C2357 C2358 1.331 . S
C2358 C2347 1.451 1_545 S
C2358 C2357 1.331 . S
C2358 C2359 1.497 . S
C2359 C2350 1.395 1_545 S
C2359 C2354 1.446 . S
C2359 C2358 1.497 . S
C2360 C2361 1.582 . S
C2360 H2417 0.962 . S
C2360 H2418 0.959 . S
C2360 H2419 0.958 . S
C2361 C2360 1.582 . S
C2361 O2364 1.458 . S
C2361 H2390 0.980 . S
O2362 C2307 1.426 . S
O2362 C2308 1.334 . S
O2363 C2335 1.412 . S
O2363 C2336 1.393 . S
O2364 C2326 1.435 . S
O2364 C2361 1.458 . S
O2365 C2317 1.468 . S
O2365 C2318 1.408 . S
H2366 C2307 0.980 . S
H2367 C2306 0.959 . S
H2368 C2306 0.959 . S
H2369 C2306 0.960 . S
H2370 C2309 0.929 . S
H2371 C2313 0.929 . S
H2372 C2314 0.959 . S
H2373 C2314 0.961 . S
H2374 C2314 0.961 . S
H2375 C2315 0.960 . S
H2376 C2315 0.960 . S
H2377 C2315 0.961 . S
H2378 C2317 0.980 . S
H2379 C2316 0.961 . S
H2380 C2316 0.960 . S
H2381 C2316 0.959 . S
H2382 C2319 0.930 . S
H2383 C2323 0.931 . S
H2384 C2324 0.959 . S
H2385 C2324 0.961 . S
H2386 C2324 0.959 . S
H2387 C2325 0.960 . S
H2388 C2325 0.960 . S
H2389 C2325 0.960 . S
H2390 C2361 0.980 . S
H2391 C2327 0.930 . S
H2392 C2331 0.930 . S
H2393 C2332 0.961 . S
H2394 C2332 0.960 . S
H2395 C2332 0.958 . S
H2396 C2333 0.961 . S
H2397 C2333 0.960 . S
H2398 C2333 0.960 . S
H2399 C2335 0.980 . S
H2400 C2334 0.961 . S
H2401 C2334 0.961 . S
H2402 C2334 0.959 . S
H2403 C2337 0.932 . S
H2404 C2341 0.929 . S
H2405 C2342 0.961 . S
H2406 C2342 0.959 . S
H2407 C2342 0.959 . S
H2408 C2343 0.960 . S
H2409 C2343 0.962 . S
H2410 C2343 0.961 . S
H2411 C2345 0.929 . S
H2412 C2348 0.930 . S
H2413 C2349 0.929 . S
H2414 C2352 0.930 . S
H2415 C2355 0.929 . S
H2416 C2356 0.930 . S
H2417 C2360 0.962 . S
H2418 C2360 0.959 . S
H2419 C2360 0.958 . S
C2420 C2421 1.560 . S
C2420 H2481 0.959 . S
C2420 H2482 0.959 . S
C2420 H2483 0.960 . S
C2421 C2420 1.560 . S
C2421 O2476 1.426 . S
C2421 H2480 0.980 . S
C2422 C2423 1.407 . S
C2422 C2427 1.418 . S
C2422 O2476 1.334 . S
C2423 C2422 1.407 . S
C2423 C2424 1.360 . S
C2423 H2484 0.929 . S
C2424 C2423 1.360 . S
C2424 C2425 1.401 . S
C2424 C2428 1.527 . S
C2425 C2424 1.401 . S
C2425 C2426 1.405 . S
C2425 C2458 1.587 . S
C2426 C2425 1.405 . S
C2426 C2427 1.332 . S
C2426 C2429 1.496 . S
C2427 C2422 1.418 . S
C2427 C2426 1.332 . S
C2427 H2485 0.929 . S
C2428 C2424 1.527 . S
C2428 H2486 0.959 . S
C2428 H2487 0.961 . S
C2428 H2488 0.961 . S
C2429 C2426 1.496 . S
C2429 H2489 0.960 . S
C2429 H2490 0.960 . S
C2429 H2491 0.961 . S
C2430 C2431 1.517 . S
C2430 H2493 0.961 . S
C2430 H2494 0.960 . S
C2430 H2495 0.959 . S
C2431 C2430 1.517 . S
C2431 O2479 1.468 . S
C2431 H2492 0.980 . S
C2432 C2433 1.349 . S
C2432 C2437 1.367 . S
C2432 O2479 1.408 . S
C2433 C2432 1.349 . S
C2433 C2434 1.407 . S
C2433 H2496 0.930 . S
C2434 C2433 1.407 . S
C2434 C2435 1.449 . S
C2434 C2438 1.535 . S
C2435 C2434 1.449 . S
C2435 C2436 1.384 . S
C2435 C2460 1.553 . S
C2436 C2435 1.384 . S
C2436 C2437 1.364 . S
C2436 C2439 1.450 . S
C2437 C2432 1.367 . S
C2437 C2436 1.364 . S
C2437 H2497 0.931 . S
C2438 C2434 1.535 . S
C2438 H2498 0.959 . S
C2438 H2499 0.961 . S
C2438 H2500 0.959 . S
C2439 C2436 1.450 . S
C2439 H2501 0.960 . S
C2439 H2502 0.960 . S
C2439 H2503 0.960 . S
C2440 C2441 1.309 . S
C2440 C2445 1.304 . S
C2440 O2478 1.435 . S
C2441 C2440 1.309 . S
C2441 C2442 1.476 . S
C2441 H2505 0.930 . S
C2442 C2441 1.476 . S
C2442 C2443 1.400 . S
C2442 C2446 1.567 . S
C2443 C2442 1.400 . S
C2443 C2444 1.373 . S
C2443 C2465 1.432 . S
C2444 C2443 1.373 . S
C2444 C2445 1.339 . S
C2444 C2447 1.530 . S
C2445 C2440 1.304 . S
C2445 C2444 1.339 . S
C2445 H2506 0.930 . S
C2446 C2442 1.567 . S
C2446 H2507 0.961 . S
C2446 H2508 0.960 . S
C2446 H2509 0.958 . S
C2447 C2444 1.530 . S
C2447 H2510 0.961 . S
C2447 H2511 0.960 . S
C2447 H2512 0.960 . S
C2448 C2449 1.530 . S
C2448 H2514 0.961 . S
C2448 H2515 0.961 . S
C2448 H2516 0.959 . S
C2449 C2448 1.530 . S
C2449 O2477 1.412 . S
C2449 H2513 0.980 . S
C2450 C2451 1.288 . S
C2450 C2455 1.377 . S
C2450 O2477 1.393 . S
C2451 C2450 1.288 . S
C2451 C2452 1.369 . S
C2451 H2517 0.932 . S
C2452 C2451 1.369 . S
C2452 C2453 1.398 . S
C2452 C2456 1.527 . S
C2453 C2452 1.398 . S
C2453 C2454 1.380 . S
C2453 C2467 1.497 . S
C2454 C2453 1.380 . S
C2454 C2455 1.383 . S
C2454 C2457 1.603 . S
C2455 C2450 1.377 . S
C2455 C2454 1.383 . S
C2455 H2518 0.929 . S
C2456 C2452 1.527 . S
C2456 H2519 0.961 . S
C2456 H2520 0.959 . S
C2456 H2521 0.959 . S
C2457 C2454 1.603 . S
C2457 H2522 0.960 . S
C2457 H2523 0.962 . S
C2457 H2524 0.961 . S
C2458 C2425 1.587 . S
C2458 C2459 1.348 1_655 S
C2458 C2471 1.412 . S
C2459 C2458 1.348 1_455 S
C2459 C2460 1.378 . S
C2459 H2525 0.929 . S
C2460 C2435 1.553 . S
C2460 C2459 1.378 . S
C2460 C2461 1.404 . S
C2461 C2460 1.404 . S
C2461 C2462 1.395 . S
C2461 C2472 1.457 . S
C2462 C2461 1.395 . S
C2462 C2463 1.322 . S
C2462 H2526 0.930 . S
C2463 C2462 1.322 . S
C2463 C2464 1.459 . S
C2463 H2527 0.929 . S
C2464 C2463 1.459 . S
C2464 C2465 1.445 . S
C2464 C2473 1.452 . S
C2465 C2443 1.432 . S
C2465 C2464 1.445 . S
C2465 C2466 1.370 . S
C2466 C2465 1.370 . S
C2466 C2467 1.438 1_455 S
C2466 H2528 0.930 . S
C2467 C2453 1.497 . S
C2467 C2466 1.438 1_655 S
C2467 C2468 1.360 . S
C2468 C2467 1.360 . S
C2468 C2469 1.401 . S
C2468 C2473 1.392 1_655 S
C2469 C2468 1.401 . S
C2469 C2470 1.347 . S
C2469 H2529 0.929 . S
C2470 C2469 1.347 . S
C2470 C2471 1.455 . S
C2470 H2530 0.930 . S
C2471 C2458 1.412 . S
C2471 C2470 1.455 . S
C2471 C2472 1.325 1_655 S
C2472 C2461 1.457 . S
C2472 C2471 1.325 1_455 S
C2472 C2473 1.495 . S
C2473 C2464 1.452 . S
C2473 C2468 1.392 1_455 S
C2473 C2472 1.495 . S
C2474 C2475 1.582 . S
C2474 H2531 0.962 . S
C2474 H2532 0.959 . S
C2474 H2533 0.958 . S
C2475 C2474 1.582 . S
C2475 O2478 1.458 . S
C2475 H2504 0.980 . S
O2476 C2421 1.426 . S
O2476 C2422 1.334 . S
O2477 C2449 1.412 . S
O2477 C2450 1.393 . S
O2478 C2440 1.435 . S
O2478 C2475 1.458 . S
O2479 C2431 1.468 . S
O2479 C2432 1.408 . S
H2480 C2421 0.980 . S
H2481 C2420 0.959 . S
H2482 C2420 0.959 . S
H2483 C2420 0.960 . S
H2484 C2423 0.929 . S
H2485 C2427 0.929 . S
H2486 C2428 0.959 . S
H2487 C2428 0.961 . S
H2488 C2428 0.961 . S
H2489 C2429 0.960 . S
H2490 C2429 0.960 . S
H2491 C2429 0.961 . S
H2492 C2431 0.980 . S
H2493 C2430 0.961 . S
H2494 C2430 0.960 . S
H2495 C2430 0.959 . S
H2496 C2433 0.930 . S
H2497 C2437 0.931 . S
H2498 C2438 0.959 . S
H2499 C2438 0.961 . S
H2500 C2438 0.959 . S
H2501 C2439 0.960 . S
H2502 C2439 0.960 . S
H2503 C2439 0.960 . S
H2504 C2475 0.980 . S
H2505 C2441 0.930 . S
H2506 C2445 0.930 . S
H2507 C2446 0.961 . S
H2508 C2446 0.960 . S
H2509 C2446 0.958 . S
H2510 C2447 0.961 . S
H2511 C2447 0.960 . S
H2512 C2447 0.960 . S
H2513 C2449 0.980 . S
H2514 C2448 0.961 . S
H2515 C2448 0.961 . S
H2516 C2448 0.959 . S
H2517 C2451 0.932 . S
H2518 C2455 0.929 . S
H2519 C2456 0.961 . S
H2520 C2456 0.959 . S
H2521 C2456 0.959 . S
H2522 C2457 0.960 . S
H2523 C2457 0.962 . S
H2524 C2457 0.961 . S
H2525 C2459 0.929 . S
H2526 C2462 0.930 . S
H2527 C2463 0.929 . S
H2528 C2466 0.930 . S
H2529 C2469 0.929 . S
H2530 C2470 0.930 . S
H2531 C2474 0.962 . S
H2532 C2474 0.959 . S
H2533 C2474 0.958 . S
C2534 C2535 1.560 . S
C2534 H2595 0.959 . S
C2534 H2596 0.959 . S
C2534 H2597 0.960 . S
C2535 C2534 1.560 . S
C2535 O2590 1.426 . S
C2535 H2594 0.980 . S
C2536 C2537 1.407 . S
C2536 C2541 1.418 . S
C2536 O2590 1.334 . S
C2537 C2536 1.407 . S
C2537 C2538 1.360 . S
C2537 H2598 0.929 . S
C2538 C2537 1.360 . S
C2538 C2539 1.401 . S
C2538 C2542 1.527 . S
C2539 C2538 1.401 . S
C2539 C2540 1.405 . S
C2539 C2572 1.587 . S
C2540 C2539 1.405 . S
C2540 C2541 1.332 . S
C2540 C2543 1.496 . S
C2541 C2536 1.418 . S
C2541 C2540 1.332 . S
C2541 H2599 0.929 . S
C2542 C2538 1.527 . S
C2542 H2600 0.959 . S
C2542 H2601 0.961 . S
C2542 H2602 0.961 . S
C2543 C2540 1.496 . S
C2543 H2603 0.960 . S
C2543 H2604 0.960 . S
C2543 H2605 0.961 . S
C2544 C2545 1.517 . S
C2544 H2607 0.961 . S
C2544 H2608 0.960 . S
C2544 H2609 0.959 . S
C2545 C2544 1.517 . S
C2545 O2593 1.468 . S
C2545 H2606 0.980 . S
C2546 C2547 1.349 . S
C2546 C2551 1.367 . S
C2546 O2593 1.408 . S
C2547 C2546 1.349 . S
C2547 C2548 1.407 . S
C2547 H2610 0.930 . S
C2548 C2547 1.407 . S
C2548 C2549 1.449 . S
C2548 C2552 1.535 . S
C2549 C2548 1.449 . S
C2549 C2550 1.384 . S
C2549 C2574 1.553 . S
C2550 C2549 1.384 . S
C2550 C2551 1.364 . S
C2550 C2553 1.450 . S
C2551 C2546 1.367 . S
C2551 C2550 1.364 . S
C2551 H2611 0.931 . S
C2552 C2548 1.535 . S
C2552 H2612 0.959 . S
C2552 H2613 0.961 . S
C2552 H2614 0.959 . S
C2553 C2550 1.450 . S
C2553 H2615 0.960 . S
C2553 H2616 0.960 . S
C2553 H2617 0.960 . S
C2554 C2555 1.309 . S
C2554 C2559 1.304 . S
C2554 O2592 1.435 . S
C2555 C2554 1.309 . S
C2555 C2556 1.476 . S
C2555 H2619 0.930 . S
C2556 C2555 1.476 . S
C2556 C2557 1.400 . S
C2556 C2560 1.567 . S
C2557 C2556 1.400 . S
C2557 C2558 1.373 . S
C2557 C2579 1.432 . S
C2558 C2557 1.373 . S
C2558 C2559 1.339 . S
C2558 C2561 1.530 . S
C2559 C2554 1.304 . S
C2559 C2558 1.339 . S
C2559 H2620 0.930 . S
C2560 C2556 1.567 . S
C2560 H2621 0.961 . S
C2560 H2622 0.960 . S
C2560 H2623 0.958 . S
C2561 C2558 1.530 . S
C2561 H2624 0.961 . S
C2561 H2625 0.960 . S
C2561 H2626 0.960 . S
C2562 C2563 1.530 . S
C2562 H2628 0.961 . S
C2562 H2629 0.961 . S
C2562 H2630 0.959 . S
C2563 C2562 1.530 . S
C2563 O2591 1.412 . S
C2563 H2627 0.980 . S
C2564 C2565 1.288 . S
C2564 C2569 1.377 . S
C2564 O2591 1.393 . S
C2565 C2564 1.288 . S
C2565 C2566 1.369 . S
C2565 H2631 0.932 . S
C2566 C2565 1.369 . S
C2566 C2567 1.398 . S
C2566 C2570 1.527 . S
C2567 C2566 1.398 . S
C2567 C2568 1.380 . S
C2567 C2581 1.497 . S
C2568 C2567 1.380 . S
C2568 C2569 1.383 . S
C2568 C2571 1.603 . S
C2569 C2564 1.377 . S
C2569 C2568 1.383 . S
C2569 H2632 0.929 . S
C2570 C2566 1.527 . S
C2570 H2633 0.961 . S
C2570 H2634 0.959 . S
C2570 H2635 0.959 . S
C2571 C2568 1.603 . S
C2571 H2636 0.960 . S
C2571 H2637 0.962 . S
C2571 H2638 0.961 . S
C2572 C2539 1.587 . S
C2572 C2573 1.365 . S
C2572 C2585 1.412 . S
C2573 C2572 1.365 . S
C2573 C2574 1.360 1_565 S
C2573 H2639 0.929 . S
C2574 C2549 1.553 . S
C2574 C2573 1.360 1_545 S
C2574 C2575 1.404 . S
C2575 C2574 1.404 . S
C2575 C2576 1.395 . S
C2575 C2586 1.449 . S
C2576 C2575 1.395 . S
C2576 C2577 1.322 . S
C2576 H2640 0.930 . S
C2577 C2576 1.322 . S
C2577 C2578 1.459 . S
C2577 H2641 0.929 . S
C2578 C2577 1.459 . S
C2578 C2579 1.445 . S
C2578 C2587 1.460 . S
C2579 C2557 1.432 . S
C2579 C2578 1.445 . S
C2579 C2580 1.370 . S
C2580 C2579 1.370 . S
C2580 C2581 1.438 1_545 S
C2580 H2642 0.930 . S
C2581 C2567 1.497 . S
C2581 C2580 1.438 1_565 S
C2581 C2582 1.360 . S
C2582 C2581 1.360 . S
C2582 C2583 1.401 . S
C2582 C2587 1.385 1_565 S
C2583 C2582 1.401 . S
C2583 C2584 1.347 . S
C2583 H2643 0.929 . S
C2584 C2583 1.347 . S
C2584 C2585 1.455 . S
C2584 H2644 0.930 . S
C2585 C2572 1.412 . S
C2585 C2584 1.455 . S
C2585 C2586 1.333 1_565 S
C2586 C2575 1.449 . S
C2586 C2585 1.333 1_545 S
C2586 C2587 1.494 . S
C2587 C2578 1.460 . S
C2587 C2582 1.385 1_545 S
C2587 C2586 1.494 . S
C2588 C2589 1.582 . S
C2588 H2645 0.962 . S
C2588 H2646 0.959 . S
C2588 H2647 0.958 . S
C2589 C2588 1.582 . S
C2589 O2592 1.458 . S
C2589 H2618 0.980 . S
O2590 C2535 1.426 . S
O2590 C2536 1.334 . S
O2591 C2563 1.412 . S
O2591 C2564 1.393 . S
O2592 C2554 1.435 . S
O2592 C2589 1.458 . S
O2593 C2545 1.468 . S
O2593 C2546 1.408 . S
H2594 C2535 0.980 . S
H2595 C2534 0.959 . S
H2596 C2534 0.959 . S
H2597 C2534 0.960 . S
H2598 C2537 0.929 . S
H2599 C2541 0.929 . S
H2600 C2542 0.959 . S
H2601 C2542 0.961 . S
H2602 C2542 0.961 . S
H2603 C2543 0.960 . S
H2604 C2543 0.960 . S
H2605 C2543 0.961 . S
H2606 C2545 0.980 . S
H2607 C2544 0.961 . S
H2608 C2544 0.960 . S
H2609 C2544 0.959 . S
H2610 C2547 0.930 . S
H2611 C2551 0.931 . S
H2612 C2552 0.959 . S
H2613 C2552 0.961 . S
H2614 C2552 0.959 . S
H2615 C2553 0.960 . S
H2616 C2553 0.960 . S
H2617 C2553 0.960 . S
H2618 C2589 0.980 . S
H2619 C2555 0.930 . S
H2620 C2559 0.930 . S
H2621 C2560 0.961 . S
H2622 C2560 0.960 . S
H2623 C2560 0.958 . S
H2624 C2561 0.961 . S
H2625 C2561 0.960 . S
H2626 C2561 0.960 . S
H2627 C2563 0.980 . S
H2628 C2562 0.961 . S
H2629 C2562 0.961 . S
H2630 C2562 0.959 . S
H2631 C2565 0.932 . S
H2632 C2569 0.929 . S
H2633 C2570 0.961 . S
H2634 C2570 0.959 . S
H2635 C2570 0.959 . S
H2636 C2571 0.960 . S
H2637 C2571 0.962 . S
H2638 C2571 0.961 . S
H2639 C2573 0.929 . S
H2640 C2576 0.930 . S
H2641 C2577 0.929 . S
H2642 C2580 0.930 . S
H2643 C2583 0.929 . S
H2644 C2584 0.930 . S
H2645 C2588 0.962 . S
H2646 C2588 0.959 . S
H2647 C2588 0.958 . S
C2648 C2649 1.560 . S
C2648 H2709 0.959 . S
C2648 H2710 0.959 . S
C2648 H2711 0.960 . S
C2649 C2648 1.560 . S
C2649 O2704 1.426 . S
C2649 H2708 0.980 . S
C2650 C2651 1.407 . S
C2650 C2655 1.418 . S
C2650 O2704 1.334 . S
C2651 C2650 1.407 . S
C2651 C2652 1.360 . S
C2651 H2712 0.929 . S
C2652 C2651 1.360 . S
C2652 C2653 1.401 . S
C2652 C2656 1.527 . S
C2653 C2652 1.401 . S
C2653 C2654 1.405 . S
C2653 C2686 1.587 . S
C2654 C2653 1.405 . S
C2654 C2655 1.332 . S
C2654 C2657 1.496 . S
C2655 C2650 1.418 . S
C2655 C2654 1.332 . S
C2655 H2713 0.929 . S
C2656 C2652 1.527 . S
C2656 H2714 0.959 . S
C2656 H2715 0.961 . S
C2656 H2716 0.961 . S
C2657 C2654 1.496 . S
C2657 H2717 0.960 . S
C2657 H2718 0.960 . S
C2657 H2719 0.961 . S
C2658 C2659 1.517 . S
C2658 H2721 0.961 . S
C2658 H2722 0.960 . S
C2658 H2723 0.959 . S
C2659 C2658 1.517 . S
C2659 O2707 1.468 . S
C2659 H2720 0.980 . S
C2660 C2661 1.349 . S
C2660 C2665 1.367 . S
C2660 O2707 1.408 . S
C2661 C2660 1.349 . S
C2661 C2662 1.407 . S
C2661 H2724 0.930 . S
C2662 C2661 1.407 . S
C2662 C2663 1.449 . S
C2662 C2666 1.535 . S
C2663 C2662 1.449 . S
C2663 C2664 1.384 . S
C2663 C2688 1.553 . S
C2664 C2663 1.384 . S
C2664 C2665 1.364 . S
C2664 C2667 1.450 . S
C2665 C2660 1.367 . S
C2665 C2664 1.364 . S
C2665 H2725 0.931 . S
C2666 C2662 1.535 . S
C2666 H2726 0.959 . S
C2666 H2727 0.961 . S
C2666 H2728 0.959 . S
C2667 C2664 1.450 . S
C2667 H2729 0.960 . S
C2667 H2730 0.960 . S
C2667 H2731 0.960 . S
C2668 C2669 1.309 . S
C2668 C2673 1.304 . S
C2668 O2706 1.435 . S
C2669 C2668 1.309 . S
C2669 C2670 1.476 . S
C2669 H2733 0.930 . S
C2670 C2669 1.476 . S
C2670 C2671 1.400 . S
C2670 C2674 1.567 . S
C2671 C2670 1.400 . S
C2671 C2672 1.373 . S
C2671 C2693 1.432 . S
C2672 C2671 1.373 . S
C2672 C2673 1.339 . S
C2672 C2675 1.530 . S
C2673 C2668 1.304 . S
C2673 C2672 1.339 . S
C2673 H2734 0.930 . S
C2674 C2670 1.567 . S
C2674 H2735 0.961 . S
C2674 H2736 0.960 . S
C2674 H2737 0.958 . S
C2675 C2672 1.530 . S
C2675 H2738 0.961 . S
C2675 H2739 0.960 . S
C2675 H2740 0.960 . S
C2676 C2677 1.530 . S
C2676 H2742 0.961 . S
C2676 H2743 0.961 . S
C2676 H2744 0.959 . S
C2677 C2676 1.530 . S
C2677 O2705 1.412 . S
C2677 H2741 0.980 . S
C2678 C2679 1.288 . S
C2678 C2683 1.377 . S
C2678 O2705 1.393 . S
C2679 C2678 1.288 . S
C2679 C2680 1.369 . S
C2679 H2745 0.932 . S
C2680 C2679 1.369 . S
C2680 C2681 1.398 . S
C2680 C2684 1.527 . S
C2681 C2680 1.398 . S
C2681 C2682 1.380 . S
C2681 C2695 1.497 . S
C2682 C2681 1.380 . S
C2682 C2683 1.383 . S
C2682 C2685 1.603 . S
C2683 C2678 1.377 . S
C2683 C2682 1.383 . S
C2683 H2746 0.929 . S
C2684 C2680 1.527 . S
C2684 H2747 0.961 . S
C2684 H2748 0.959 . S
C2684 H2749 0.959 . S
C2685 C2682 1.603 . S
C2685 H2750 0.960 . S
C2685 H2751 0.962 . S
C2685 H2752 0.961 . S
C2686 C2653 1.587 . S
C2686 C2687 1.360 . S
C2686 C2699 1.412 . S
C2687 C2686 1.360 . S
C2687 C2688 1.365 . S
C2687 H2753 0.929 . S
C2688 C2663 1.553 . S
C2688 C2687 1.365 . S
C2688 C2689 1.404 . S
C2689 C2688 1.404 . S
C2689 C2690 1.395 . S
C2689 C2700 1.451 . S
C2690 C2689 1.395 . S
C2690 C2691 1.322 . S
C2690 H2754 0.930 . S
C2691 C2690 1.322 . S
C2691 C2692 1.459 . S
C2691 H2755 0.929 . S
C2692 C2691 1.459 . S
C2692 C2693 1.445 . S
C2692 C2701 1.395 . S
C2693 C2671 1.432 . S
C2693 C2692 1.445 . S
C2693 C2694 1.370 . S
C2694 C2693 1.370 . S
C2694 C2695 1.438 . S
C2694 H2756 0.930 . S
C2695 C2681 1.497 . S
C2695 C2694 1.438 . S
C2695 C2696 1.360 . S
C2696 C2695 1.360 . S
C2696 C2697 1.401 . S
C2696 C2701 1.446 . S
C2697 C2696 1.401 . S
C2697 C2698 1.347 . S
C2697 H2757 0.929 . S
C2698 C2697 1.347 . S
C2698 C2699 1.455 . S
C2698 H2758 0.930 . S
C2699 C2686 1.412 . S
C2699 C2698 1.455 . S
C2699 C2700 1.331 . S
C2700 C2689 1.451 . S
C2700 C2699 1.331 . S
C2700 C2701 1.497 . S
C2701 C2692 1.395 . S
C2701 C2696 1.446 . S
C2701 C2700 1.497 . S
C2702 C2703 1.582 . S
C2702 H2759 0.962 . S
C2702 H2760 0.959 . S
C2702 H2761 0.958 . S
C2703 C2702 1.582 . S
C2703 O2706 1.458 . S
C2703 H2732 0.980 . S
O2704 C2649 1.426 . S
O2704 C2650 1.334 . S
O2705 C2677 1.412 . S
O2705 C2678 1.393 . S
O2706 C2668 1.435 . S
O2706 C2703 1.458 . S
O2707 C2659 1.468 . S
O2707 C2660 1.408 . S
H2708 C2649 0.980 . S
H2709 C2648 0.959 . S
H2710 C2648 0.959 . S
H2711 C2648 0.960 . S
H2712 C2651 0.929 . S
H2713 C2655 0.929 . S
H2714 C2656 0.959 . S
H2715 C2656 0.961 . S
H2716 C2656 0.961 . S
H2717 C2657 0.960 . S
H2718 C2657 0.960 . S
H2719 C2657 0.961 . S
H2720 C2659 0.980 . S
H2721 C2658 0.961 . S
H2722 C2658 0.960 . S
H2723 C2658 0.959 . S
H2724 C2661 0.930 . S
H2725 C2665 0.931 . S
H2726 C2666 0.959 . S
H2727 C2666 0.961 . S
H2728 C2666 0.959 . S
H2729 C2667 0.960 . S
H2730 C2667 0.960 . S
H2731 C2667 0.960 . S
H2732 C2703 0.980 . S
H2733 C2669 0.930 . S
H2734 C2673 0.930 . S
H2735 C2674 0.961 . S
H2736 C2674 0.960 . S
H2737 C2674 0.958 . S
H2738 C2675 0.961 . S
H2739 C2675 0.960 . S
H2740 C2675 0.960 . S
H2741 C2677 0.980 . S
H2742 C2676 0.961 . S
H2743 C2676 0.961 . S
H2744 C2676 0.959 . S
H2745 C2679 0.932 . S
H2746 C2683 0.929 . S
H2747 C2684 0.961 . S
H2748 C2684 0.959 . S
H2749 C2684 0.959 . S
H2750 C2685 0.960 . S
H2751 C2685 0.962 . S
H2752 C2685 0.961 . S
H2753 C2687 0.929 . S
H2754 C2690 0.930 . S
H2755 C2691 0.929 . S
H2756 C2694 0.930 . S
H2757 C2697 0.929 . S
H2758 C2698 0.930 . S
H2759 C2702 0.962 . S
H2760 C2702 0.959 . S
H2761 C2702 0.958 . S
C2762 C2763 1.560 . S
C2762 H2823 0.959 . S
C2762 H2824 0.959 . S
C2762 H2825 0.960 . S
C2763 C2762 1.560 . S
C2763 O2818 1.426 . S
C2763 H2822 0.980 . S
C2764 C2765 1.407 . S
C2764 C2769 1.418 . S
C2764 O2818 1.334 . S
C2765 C2764 1.407 . S
C2765 C2766 1.360 . S
C2765 H2826 0.929 . S
C2766 C2765 1.360 . S
C2766 C2767 1.401 . S
C2766 C2770 1.527 . S
C2767 C2766 1.401 . S
C2767 C2768 1.405 . S
C2767 C2800 1.587 . S
C2768 C2767 1.405 . S
C2768 C2769 1.332 . S
C2768 C2771 1.496 . S
C2769 C2764 1.418 . S
C2769 C2768 1.332 . S
C2769 H2827 0.929 . S
C2770 C2766 1.527 . S
C2770 H2828 0.959 . S
C2770 H2829 0.961 . S
C2770 H2830 0.961 . S
C2771 C2768 1.496 . S
C2771 H2831 0.960 . S
C2771 H2832 0.960 . S
C2771 H2833 0.961 . S
C2772 C2773 1.517 . S
C2772 H2835 0.961 . S
C2772 H2836 0.960 . S
C2772 H2837 0.959 . S
C2773 C2772 1.517 . S
C2773 O2821 1.468 . S
C2773 H2834 0.980 . S
C2774 C2775 1.349 . S
C2774 C2779 1.367 . S
C2774 O2821 1.408 . S
C2775 C2774 1.349 . S
C2775 C2776 1.407 . S
C2775 H2838 0.930 . S
C2776 C2775 1.407 . S
C2776 C2777 1.449 . S
C2776 C2780 1.535 . S
C2777 C2776 1.449 . S
C2777 C2778 1.384 . S
C2777 C2802 1.553 . S
C2778 C2777 1.384 . S
C2778 C2779 1.364 . S
C2778 C2781 1.450 . S
C2779 C2774 1.367 . S
C2779 C2778 1.364 . S
C2779 H2839 0.931 . S
C2780 C2776 1.535 . S
C2780 H2840 0.959 . S
C2780 H2841 0.961 . S
C2780 H2842 0.959 . S
C2781 C2778 1.450 . S
C2781 H2843 0.960 . S
C2781 H2844 0.960 . S
C2781 H2845 0.960 . S
C2782 C2783 1.309 . S
C2782 C2787 1.304 . S
C2782 O2820 1.435 . S
C2783 C2782 1.309 . S
C2783 C2784 1.476 . S
C2783 H2847 0.930 . S
C2784 C2783 1.476 . S
C2784 C2785 1.400 . S
C2784 C2788 1.567 . S
C2785 C2784 1.400 . S
C2785 C2786 1.373 . S
C2785 C2807 1.432 . S
C2786 C2785 1.373 . S
C2786 C2787 1.339 . S
C2786 C2789 1.530 . S
C2787 C2782 1.304 . S
C2787 C2786 1.339 . S
C2787 H2848 0.930 . S
C2788 C2784 1.567 . S
C2788 H2849 0.961 . S
C2788 H2850 0.960 . S
C2788 H2851 0.958 . S
C2789 C2786 1.530 . S
C2789 H2852 0.961 . S
C2789 H2853 0.960 . S
C2789 H2854 0.960 . S
C2790 C2791 1.530 . S
C2790 H2856 0.961 . S
C2790 H2857 0.961 . S
C2790 H2858 0.959 . S
C2791 C2790 1.530 . S
C2791 O2819 1.412 . S
C2791 H2855 0.980 . S
C2792 C2793 1.288 . S
C2792 C2797 1.377 . S
C2792 O2819 1.393 . S
C2793 C2792 1.288 . S
C2793 C2794 1.369 . S
C2793 H2859 0.932 . S
C2794 C2793 1.369 . S
C2794 C2795 1.398 . S
C2794 C2798 1.527 . S
C2795 C2794 1.398 . S
C2795 C2796 1.380 . S
C2795 C2809 1.497 . S
C2796 C2795 1.380 . S
C2796 C2797 1.383 . S
C2796 C2799 1.603 . S
C2797 C2792 1.377 . S
C2797 C2796 1.383 . S
C2797 H2860 0.929 . S
C2798 C2794 1.527 . S
C2798 H2861 0.961 . S
C2798 H2862 0.959 . S
C2798 H2863 0.959 . S
C2799 C2796 1.603 . S
C2799 H2864 0.960 . S
C2799 H2865 0.962 . S
C2799 H2866 0.961 . S
C2800 C2767 1.587 . S
C2800 C2801 1.360 . S
C2800 C2813 1.412 . S
C2801 C2800 1.360 . S
C2801 C2802 1.365 . S
C2801 H2867 0.929 . S
C2802 C2777 1.553 . S
C2802 C2801 1.365 . S
C2802 C2803 1.404 . S
C2803 C2802 1.404 . S
C2803 C2804 1.395 . S
C2803 C2814 1.451 . S
C2804 C2803 1.395 . S
C2804 C2805 1.322 . S
C2804 H2868 0.930 . S
C2805 C2804 1.322 . S
C2805 C2806 1.459 . S
C2805 H2869 0.929 . S
C2806 C2805 1.459 . S
C2806 C2807 1.445 . S
C2806 C2815 1.395 . S
C2807 C2785 1.432 . S
C2807 C2806 1.445 . S
C2807 C2808 1.370 . S
C2808 C2807 1.370 . S
C2808 C2809 1.438 . S
C2808 H2870 0.930 . S
C2809 C2795 1.497 . S
C2809 C2808 1.438 . S
C2809 C2810 1.360 . S
C2810 C2809 1.360 . S
C2810 C2811 1.401 . S
C2810 C2815 1.446 . S
C2811 C2810 1.401 . S
C2811 C2812 1.347 . S
C2811 H2871 0.929 . S
C2812 C2811 1.347 . S
C2812 C2813 1.455 . S
C2812 H2872 0.930 . S
C2813 C2800 1.412 . S
C2813 C2812 1.455 . S
C2813 C2814 1.331 . S
C2814 C2803 1.451 . S
C2814 C2813 1.331 . S
C2814 C2815 1.497 . S
C2815 C2806 1.395 . S
C2815 C2810 1.446 . S
C2815 C2814 1.497 . S
C2816 C2817 1.582 . S
C2816 H2873 0.962 . S
C2816 H2874 0.959 . S
C2816 H2875 0.958 . S
C2817 C2816 1.582 . S
C2817 O2820 1.458 . S
C2817 H2846 0.980 . S
O2818 C2763 1.426 . S
O2818 C2764 1.334 . S
O2819 C2791 1.412 . S
O2819 C2792 1.393 . S
O2820 C2782 1.435 . S
O2820 C2817 1.458 . S
O2821 C2773 1.468 . S
O2821 C2774 1.408 . S
H2822 C2763 0.980 . S
H2823 C2762 0.959 . S
H2824 C2762 0.959 . S
H2825 C2762 0.960 . S
H2826 C2765 0.929 . S
H2827 C2769 0.929 . S
H2828 C2770 0.959 . S
H2829 C2770 0.961 . S
H2830 C2770 0.961 . S
H2831 C2771 0.960 . S
H2832 C2771 0.960 . S
H2833 C2771 0.961 . S
H2834 C2773 0.980 . S
H2835 C2772 0.961 . S
H2836 C2772 0.960 . S
H2837 C2772 0.959 . S
H2838 C2775 0.930 . S
H2839 C2779 0.931 . S
H2840 C2780 0.959 . S
H2841 C2780 0.961 . S
H2842 C2780 0.959 . S
H2843 C2781 0.960 . S
H2844 C2781 0.960 . S
H2845 C2781 0.960 . S
H2846 C2817 0.980 . S
H2847 C2783 0.930 . S
H2848 C2787 0.930 . S
H2849 C2788 0.961 . S
H2850 C2788 0.960 . S
H2851 C2788 0.958 . S
H2852 C2789 0.961 . S
H2853 C2789 0.960 . S
H2854 C2789 0.960 . S
H2855 C2791 0.980 . S
H2856 C2790 0.961 . S
H2857 C2790 0.961 . S
H2858 C2790 0.959 . S
H2859 C2793 0.932 . S
H2860 C2797 0.929 . S
H2861 C2798 0.961 . S
H2862 C2798 0.959 . S
H2863 C2798 0.959 . S
H2864 C2799 0.960 . S
H2865 C2799 0.962 . S
H2866 C2799 0.961 . S
H2867 C2801 0.929 . S
H2868 C2804 0.930 . S
H2869 C2805 0.929 . S
H2870 C2808 0.930 . S
H2871 C2811 0.929 . S
H2872 C2812 0.930 . S
H2873 C2816 0.962 . S
H2874 C2816 0.959 . S
H2875 C2816 0.958 . S
C2876 C2877 1.560 . S
C2876 H2937 0.959 . S
C2876 H2938 0.959 . S
C2876 H2939 0.960 . S
C2877 C2876 1.560 . S
C2877 O2932 1.426 . S
C2877 H2936 0.980 . S
C2878 C2879 1.407 . S
C2878 C2883 1.418 . S
C2878 O2932 1.334 . S
C2879 C2878 1.407 . S
C2879 C2880 1.360 . S
C2879 H2940 0.929 . S
C2880 C2879 1.360 . S
C2880 C2881 1.401 . S
C2880 C2884 1.527 . S
C2881 C2880 1.401 . S
C2881 C2882 1.405 . S
C2881 C2914 1.587 . S
C2882 C2881 1.405 . S
C2882 C2883 1.332 . S
C2882 C2885 1.496 . S
C2883 C2878 1.418 . S
C2883 C2882 1.332 . S
C2883 H2941 0.929 . S
C2884 C2880 1.527 . S
C2884 H2942 0.959 . S
C2884 H2943 0.961 . S
C2884 H2944 0.961 . S
C2885 C2882 1.496 . S
C2885 H2945 0.960 . S
C2885 H2946 0.960 . S
C2885 H2947 0.961 . S
C2886 C2887 1.517 . S
C2886 H2949 0.961 . S
C2886 H2950 0.960 . S
C2886 H2951 0.959 . S
C2887 C2886 1.517 . S
C2887 O2935 1.468 . S
C2887 H2948 0.980 . S
C2888 C2889 1.349 . S
C2888 C2893 1.367 . S
C2888 O2935 1.408 . S
C2889 C2888 1.349 . S
C2889 C2890 1.407 . S
C2889 H2952 0.930 . S
C2890 C2889 1.407 . S
C2890 C2891 1.449 . S
C2890 C2894 1.535 . S
C2891 C2890 1.449 . S
C2891 C2892 1.384 . S
C2891 C2916 1.553 . S
C2892 C2891 1.384 . S
C2892 C2893 1.364 . S
C2892 C2895 1.450 . S
C2893 C2888 1.367 . S
C2893 C2892 1.364 . S
C2893 H2953 0.931 . S
C2894 C2890 1.535 . S
C2894 H2954 0.959 . S
C2894 H2955 0.961 . S
C2894 H2956 0.959 . S
C2895 C2892 1.450 . S
C2895 H2957 0.960 . S
C2895 H2958 0.960 . S
C2895 H2959 0.960 . S
C2896 C2897 1.309 . S
C2896 C2901 1.304 . S
C2896 O2934 1.435 . S
C2897 C2896 1.309 . S
C2897 C2898 1.476 . S
C2897 H2961 0.930 . S
C2898 C2897 1.476 . S
C2898 C2899 1.400 . S
C2898 C2902 1.567 . S
C2899 C2898 1.400 . S
C2899 C2900 1.373 . S
C2899 C2921 1.432 . S
C2900 C2899 1.373 . S
C2900 C2901 1.339 . S
C2900 C2903 1.530 . S
C2901 C2896 1.304 . S
C2901 C2900 1.339 . S
C2901 H2962 0.930 . S
C2902 C2898 1.567 . S
C2902 H2963 0.961 . S
C2902 H2964 0.960 . S
C2902 H2965 0.958 . S
C2903 C2900 1.530 . S
C2903 H2966 0.961 . S
C2903 H2967 0.960 . S
C2903 H2968 0.960 . S
C2904 C2905 1.530 . S
C2904 H2970 0.961 . S
C2904 H2971 0.961 . S
C2904 H2972 0.959 . S
C2905 C2904 1.530 . S
C2905 O2933 1.412 . S
C2905 H2969 0.980 . S
C2906 C2907 1.288 . S
C2906 C2911 1.377 . S
C2906 O2933 1.393 . S
C2907 C2906 1.288 . S
C2907 C2908 1.369 . S
C2907 H2973 0.932 . S
C2908 C2907 1.369 . S
C2908 C2909 1.398 . S
C2908 C2912 1.527 . S
C2909 C2908 1.398 . S
C2909 C2910 1.380 . S
C2909 C2923 1.497 . S
C2910 C2909 1.380 . S
C2910 C2911 1.383 . S
C2910 C2913 1.603 . S
C2911 C2906 1.377 . S
C2911 C2910 1.383 . S
C2911 H2974 0.929 . S
C2912 C2908 1.527 . S
C2912 H2975 0.961 . S
C2912 H2976 0.959 . S
C2912 H2977 0.959 . S
C2913 C2910 1.603 . S
C2913 H2978 0.960 . S
C2913 H2979 0.962 . S
C2913 H2980 0.961 . S
C2914 C2881 1.587 . S
C2914 C2915 1.360 . S
C2914 C2927 1.412 . S
C2915 C2914 1.360 . S
C2915 C2916 1.365 . S
C2915 H2981 0.929 . S
C2916 C2891 1.553 . S
C2916 C2915 1.365 . S
C2916 C2917 1.404 . S
C2917 C2916 1.404 . S
C2917 C2918 1.395 . S
C2917 C2928 1.451 . S
C2918 C2917 1.395 . S
C2918 C2919 1.322 . S
C2918 H2982 0.930 . S
C2919 C2918 1.322 . S
C2919 C2920 1.459 . S
C2919 H2983 0.929 . S
C2920 C2919 1.459 . S
C2920 C2921 1.445 . S
C2920 C2929 1.395 . S
C2921 C2899 1.432 . S
C2921 C2920 1.445 . S
C2921 C2922 1.370 . S
C2922 C2921 1.370 . S
C2922 C2923 1.438 . S
C2922 H2984 0.930 . S
C2923 C2909 1.497 . S
C2923 C2922 1.438 . S
C2923 C2924 1.360 . S
C2924 C2923 1.360 . S
C2924 C2925 1.401 . S
C2924 C2929 1.446 . S
C2925 C2924 1.401 . S
C2925 C2926 1.347 . S
C2925 H2985 0.929 . S
C2926 C2925 1.347 . S
C2926 C2927 1.455 . S
C2926 H2986 0.930 . S
C2927 C2914 1.412 . S
C2927 C2926 1.455 . S
C2927 C2928 1.331 . S
C2928 C2917 1.451 . S
C2928 C2927 1.331 . S
C2928 C2929 1.497 . S
C2929 C2920 1.395 . S
C2929 C2924 1.446 . S
C2929 C2928 1.497 . S
C2930 C2931 1.582 . S
C2930 H2987 0.962 . S
C2930 H2988 0.959 . S
C2930 H2989 0.958 . S
C2931 C2930 1.582 . S
C2931 O2934 1.458 . S
C2931 H2960 0.980 . S
O2932 C2877 1.426 . S
O2932 C2878 1.334 . S
O2933 C2905 1.412 . S
O2933 C2906 1.393 . S
O2934 C2896 1.435 . S
O2934 C2931 1.458 . S
O2935 C2887 1.468 . S
O2935 C2888 1.408 . S
H2936 C2877 0.980 . S
H2937 C2876 0.959 . S
H2938 C2876 0.959 . S
H2939 C2876 0.960 . S
H2940 C2879 0.929 . S
H2941 C2883 0.929 . S
H2942 C2884 0.959 . S
H2943 C2884 0.961 . S
H2944 C2884 0.961 . S
H2945 C2885 0.960 . S
H2946 C2885 0.960 . S
H2947 C2885 0.961 . S
H2948 C2887 0.980 . S
H2949 C2886 0.961 . S
H2950 C2886 0.960 . S
H2951 C2886 0.959 . S
H2952 C2889 0.930 . S
H2953 C2893 0.931 . S
H2954 C2894 0.959 . S
H2955 C2894 0.961 . S
H2956 C2894 0.959 . S
H2957 C2895 0.960 . S
H2958 C2895 0.960 . S
H2959 C2895 0.960 . S
H2960 C2931 0.980 . S
H2961 C2897 0.930 . S
H2962 C2901 0.930 . S
H2963 C2902 0.961 . S
H2964 C2902 0.960 . S
H2965 C2902 0.958 . S
H2966 C2903 0.961 . S
H2967 C2903 0.960 . S
H2968 C2903 0.960 . S
H2969 C2905 0.980 . S
H2970 C2904 0.961 . S
H2971 C2904 0.961 . S
H2972 C2904 0.959 . S
H2973 C2907 0.932 . S
H2974 C2911 0.929 . S
H2975 C2912 0.961 . S
H2976 C2912 0.959 . S
H2977 C2912 0.959 . S
H2978 C2913 0.960 . S
H2979 C2913 0.962 . S
H2980 C2913 0.961 . S
H2981 C2915 0.929 . S
H2982 C2918 0.930 . S
H2983 C2919 0.929 . S
H2984 C2922 0.930 . S
H2985 C2925 0.929 . S
H2986 C2926 0.930 . S
H2987 C2930 0.962 . S
H2988 C2930 0.959 . S
H2989 C2930 0.958 . S
C2990 C2991 1.560 . S
C2990 H3051 0.959 . S
C2990 H3052 0.959 . S
C2990 H3053 0.960 . S
C2991 C2990 1.560 . S
C2991 O3046 1.426 . S
C2991 H3050 0.980 . S
C2992 C2993 1.407 . S
C2992 C2997 1.418 . S
C2992 O3046 1.334 . S
C2993 C2992 1.407 . S
C2993 C2994 1.360 . S
C2993 H3054 0.929 . S
C2994 C2993 1.360 . S
C2994 C2995 1.401 . S
C2994 C2998 1.527 . S
C2995 C2994 1.401 . S
C2995 C2996 1.405 . S
C2995 C3028 1.587 . S
C2996 C2995 1.405 . S
C2996 C2997 1.332 . S
C2996 C2999 1.496 . S
C2997 C2992 1.418 . S
C2997 C2996 1.332 . S
C2997 H3055 0.929 . S
C2998 C2994 1.527 . S
C2998 H3056 0.959 . S
C2998 H3057 0.961 . S
C2998 H3058 0.961 . S
C2999 C2996 1.496 . S
C2999 H3059 0.960 . S
C2999 H3060 0.960 . S
C2999 H3061 0.961 . S
C3000 C3001 1.517 . S
C3000 H3063 0.961 . S
C3000 H3064 0.960 . S
C3000 H3065 0.959 . S
C3001 C3000 1.517 . S
C3001 O3049 1.468 . S
C3001 H3062 0.980 . S
C3002 C3003 1.349 . S
C3002 C3007 1.367 . S
C3002 O3049 1.408 . S
C3003 C3002 1.349 . S
C3003 C3004 1.407 . S
C3003 H3066 0.930 . S
C3004 C3003 1.407 . S
C3004 C3005 1.449 . S
C3004 C3008 1.535 . S
C3005 C3004 1.449 . S
C3005 C3006 1.384 . S
C3005 C3030 1.553 . S
C3006 C3005 1.384 . S
C3006 C3007 1.364 . S
C3006 C3009 1.450 . S
C3007 C3002 1.367 . S
C3007 C3006 1.364 . S
C3007 H3067 0.931 . S
C3008 C3004 1.535 . S
C3008 H3068 0.959 . S
C3008 H3069 0.961 . S
C3008 H3070 0.959 . S
C3009 C3006 1.450 . S
C3009 H3071 0.960 . S
C3009 H3072 0.960 . S
C3009 H3073 0.960 . S
C3010 C3011 1.309 . S
C3010 C3015 1.304 . S
C3010 O3048 1.435 . S
C3011 C3010 1.309 . S
C3011 C3012 1.476 . S
C3011 H3075 0.930 . S
C3012 C3011 1.476 . S
C3012 C3013 1.400 . S
C3012 C3016 1.567 . S
C3013 C3012 1.400 . S
C3013 C3014 1.373 . S
C3013 C3035 1.432 . S
C3014 C3013 1.373 . S
C3014 C3015 1.339 . S
C3014 C3017 1.530 . S
C3015 C3010 1.304 . S
C3015 C3014 1.339 . S
C3015 H3076 0.930 . S
C3016 C3012 1.567 . S
C3016 H3077 0.961 . S
C3016 H3078 0.960 . S
C3016 H3079 0.958 . S
C3017 C3014 1.530 . S
C3017 H3080 0.961 . S
C3017 H3081 0.960 . S
C3017 H3082 0.960 . S
C3018 C3019 1.530 . S
C3018 H3084 0.961 . S
C3018 H3085 0.961 . S
C3018 H3086 0.959 . S
C3019 C3018 1.530 . S
C3019 O3047 1.412 . S
C3019 H3083 0.980 . S
C3020 C3021 1.288 . S
C3020 C3025 1.377 . S
C3020 O3047 1.393 . S
C3021 C3020 1.288 . S
C3021 C3022 1.369 . S
C3021 H3087 0.932 . S
C3022 C3021 1.369 . S
C3022 C3023 1.398 . S
C3022 C3026 1.527 . S
C3023 C3022 1.398 . S
C3023 C3024 1.380 . S
C3023 C3037 1.497 . S
C3024 C3023 1.380 . S
C3024 C3025 1.383 . S
C3024 C3027 1.603 . S
C3025 C3020 1.377 . S
C3025 C3024 1.383 . S
C3025 H3088 0.929 . S
C3026 C3022 1.527 . S
C3026 H3089 0.961 . S
C3026 H3090 0.959 . S
C3026 H3091 0.959 . S
C3027 C3024 1.603 . S
C3027 H3092 0.960 . S
C3027 H3093 0.962 . S
C3027 H3094 0.961 . S
C3028 C2995 1.587 . S
C3028 C3029 1.360 . S
C3028 C3041 1.412 . S
C3029 C3028 1.360 . S
C3029 C3030 1.365 . S
C3029 H3095 0.929 . S
C3030 C3005 1.553 . S
C3030 C3029 1.365 . S
C3030 C3031 1.404 . S
C3031 C3030 1.404 . S
C3031 C3032 1.395 . S
C3031 C3042 1.451 . S
C3032 C3031 1.395 . S
C3032 C3033 1.322 . S
C3032 H3096 0.930 . S
C3033 C3032 1.322 . S
C3033 C3034 1.459 . S
C3033 H3097 0.929 . S
C3034 C3033 1.459 . S
C3034 C3035 1.445 . S
C3034 C3043 1.395 . S
C3035 C3013 1.432 . S
C3035 C3034 1.445 . S
C3035 C3036 1.370 . S
C3036 C3035 1.370 . S
C3036 C3037 1.438 . S
C3036 H3098 0.930 . S
C3037 C3023 1.497 . S
C3037 C3036 1.438 . S
C3037 C3038 1.360 . S
C3038 C3037 1.360 . S
C3038 C3039 1.401 . S
C3038 C3043 1.446 . S
C3039 C3038 1.401 . S
C3039 C3040 1.347 . S
C3039 H3099 0.929 . S
C3040 C3039 1.347 . S
C3040 C3041 1.455 . S
C3040 H3100 0.930 . S
C3041 C3028 1.412 . S
C3041 C3040 1.455 . S
C3041 C3042 1.331 . S
C3042 C3031 1.451 . S
C3042 C3041 1.331 . S
C3042 C3043 1.497 . S
C3043 C3034 1.395 . S
C3043 C3038 1.446 . S
C3043 C3042 1.497 . S
C3044 C3045 1.582 . S
C3044 H3101 0.962 . S
C3044 H3102 0.959 . S
C3044 H3103 0.958 . S
C3045 C3044 1.582 . S
C3045 O3048 1.458 . S
C3045 H3074 0.980 . S
O3046 C2991 1.426 . S
O3046 C2992 1.334 . S
O3047 C3019 1.412 . S
O3047 C3020 1.393 . S
O3048 C3010 1.435 . S
O3048 C3045 1.458 . S
O3049 C3001 1.468 . S
O3049 C3002 1.408 . S
H3050 C2991 0.980 . S
H3051 C2990 0.959 . S
H3052 C2990 0.959 . S
H3053 C2990 0.960 . S
H3054 C2993 0.929 . S
H3055 C2997 0.929 . S
H3056 C2998 0.959 . S
H3057 C2998 0.961 . S
H3058 C2998 0.961 . S
H3059 C2999 0.960 . S
H3060 C2999 0.960 . S
H3061 C2999 0.961 . S
H3062 C3001 0.980 . S
H3063 C3000 0.961 . S
H3064 C3000 0.960 . S
H3065 C3000 0.959 . S
H3066 C3003 0.930 . S
H3067 C3007 0.931 . S
H3068 C3008 0.959 . S
H3069 C3008 0.961 . S
H3070 C3008 0.959 . S
H3071 C3009 0.960 . S
H3072 C3009 0.960 . S
H3073 C3009 0.960 . S
H3074 C3045 0.980 . S
H3075 C3011 0.930 . S
H3076 C3015 0.930 . S
H3077 C3016 0.961 . S
H3078 C3016 0.960 . S
H3079 C3016 0.958 . S
H3080 C3017 0.961 . S
H3081 C3017 0.960 . S
H3082 C3017 0.960 . S
H3083 C3019 0.980 . S
H3084 C3018 0.961 . S
H3085 C3018 0.961 . S
H3086 C3018 0.959 . S
H3087 C3021 0.932 . S
H3088 C3025 0.929 . S
H3089 C3026 0.961 . S
H3090 C3026 0.959 . S
H3091 C3026 0.959 . S
H3092 C3027 0.960 . S
H3093 C3027 0.962 . S
H3094 C3027 0.961 . S
H3095 C3029 0.929 . S
H3096 C3032 0.930 . S
H3097 C3033 0.929 . S
H3098 C3036 0.930 . S
H3099 C3039 0.929 . S
H3100 C3040 0.930 . S
H3101 C3044 0.962 . S
H3102 C3044 0.959 . S
H3103 C3044 0.958 . S
C3104 C3105 1.560 . S
C3104 H3165 0.959 . S
C3104 H3166 0.959 . S
C3104 H3167 0.960 . S
C3105 C3104 1.560 . S
C3105 O3160 1.426 . S
C3105 H3164 0.980 . S
C3106 C3107 1.407 . S
C3106 C3111 1.418 . S
C3106 O3160 1.334 . S
C3107 C3106 1.407 . S
C3107 C3108 1.360 . S
C3107 H3168 0.929 . S
C3108 C3107 1.360 . S
C3108 C3109 1.401 . S
C3108 C3112 1.527 . S
C3109 C3108 1.401 . S
C3109 C3110 1.405 . S
C3109 C3142 1.587 . S
C3110 C3109 1.405 . S
C3110 C3111 1.332 . S
C3110 C3113 1.496 . S
C3111 C3106 1.418 . S
C3111 C3110 1.332 . S
C3111 H3169 0.929 . S
C3112 C3108 1.527 . S
C3112 H3170 0.959 . S
C3112 H3171 0.961 . S
C3112 H3172 0.961 . S
C3113 C3110 1.496 . S
C3113 H3173 0.960 . S
C3113 H3174 0.960 . S
C3113 H3175 0.961 . S
C3114 C3115 1.517 . S
C3114 H3177 0.961 . S
C3114 H3178 0.960 . S
C3114 H3179 0.959 . S
C3115 C3114 1.517 . S
C3115 O3163 1.468 . S
C3115 H3176 0.980 . S
C3116 C3117 1.349 . S
C3116 C3121 1.367 . S
C3116 O3163 1.408 . S
C3117 C3116 1.349 . S
C3117 C3118 1.407 . S
C3117 H3180 0.930 . S
C3118 C3117 1.407 . S
C3118 C3119 1.449 . S
C3118 C3122 1.535 . S
C3119 C3118 1.449 . S
C3119 C3120 1.384 . S
C3119 C3144 1.553 . S
C3120 C3119 1.384 . S
C3120 C3121 1.364 . S
C3120 C3123 1.450 . S
C3121 C3116 1.367 . S
C3121 C3120 1.364 . S
C3121 H3181 0.931 . S
C3122 C3118 1.535 . S
C3122 H3182 0.959 . S
C3122 H3183 0.961 . S
C3122 H3184 0.959 . S
C3123 C3120 1.450 . S
C3123 H3185 0.960 . S
C3123 H3186 0.960 . S
C3123 H3187 0.960 . S
C3124 C3125 1.309 . S
C3124 C3129 1.304 . S
C3124 O3162 1.435 . S
C3125 C3124 1.309 . S
C3125 C3126 1.476 . S
C3125 H3189 0.930 . S
C3126 C3125 1.476 . S
C3126 C3127 1.400 . S
C3126 C3130 1.567 . S
C3127 C3126 1.400 . S
C3127 C3128 1.373 . S
C3127 C3149 1.432 . S
C3128 C3127 1.373 . S
C3128 C3129 1.339 . S
C3128 C3131 1.530 . S
C3129 C3124 1.304 . S
C3129 C3128 1.339 . S
C3129 H3190 0.930 . S
C3130 C3126 1.567 . S
C3130 H3191 0.961 . S
C3130 H3192 0.960 . S
C3130 H3193 0.958 . S
C3131 C3128 1.530 . S
C3131 H3194 0.961 . S
C3131 H3195 0.960 . S
C3131 H3196 0.960 . S
C3132 C3133 1.530 . S
C3132 H3198 0.961 . S
C3132 H3199 0.961 . S
C3132 H3200 0.959 . S
C3133 C3132 1.530 . S
C3133 O3161 1.412 . S
C3133 H3197 0.980 . S
C3134 C3135 1.288 . S
C3134 C3139 1.377 . S
C3134 O3161 1.393 . S
C3135 C3134 1.288 . S
C3135 C3136 1.369 . S
C3135 H3201 0.932 . S
C3136 C3135 1.369 . S
C3136 C3137 1.398 . S
C3136 C3140 1.527 . S
C3137 C3136 1.398 . S
C3137 C3138 1.380 . S
C3137 C3151 1.497 . S
C3138 C3137 1.380 . S
C3138 C3139 1.383 . S
C3138 C3141 1.603 . S
C3139 C3134 1.377 . S
C3139 C3138 1.383 . S
C3139 H3202 0.929 . S
C3140 C3136 1.527 . S
C3140 H3203 0.961 . S
C3140 H3204 0.959 . S
C3140 H3205 0.959 . S
C3141 C3138 1.603 . S
C3141 H3206 0.960 . S
C3141 H3207 0.962 . S
C3141 H3208 0.961 . S
C3142 C3109 1.587 . S
C3142 C3143 1.360 . S
C3142 C3155 1.412 . S
C3143 C3142 1.360 . S
C3143 C3144 1.365 . S
C3143 H3209 0.929 . S
C3144 C3119 1.553 . S
C3144 C3143 1.365 . S
C3144 C3145 1.404 . S
C3145 C3144 1.404 . S
C3145 C3146 1.395 . S
C3145 C3156 1.451 . S
C3146 C3145 1.395 . S
C3146 C3147 1.322 . S
C3146 H3210 0.930 . S
C3147 C3146 1.322 . S
C3147 C3148 1.459 . S
C3147 H3211 0.929 . S
C3148 C3147 1.459 . S
C3148 C3149 1.445 . S
C3148 C3157 1.395 . S
C3149 C3127 1.432 . S
C3149 C3148 1.445 . S
C3149 C3150 1.370 . S
C3150 C3149 1.370 . S
C3150 C3151 1.438 . S
C3150 H3212 0.930 . S
C3151 C3137 1.497 . S
C3151 C3150 1.438 . S
C3151 C3152 1.360 . S
C3152 C3151 1.360 . S
C3152 C3153 1.401 . S
C3152 C3157 1.446 . S
C3153 C3152 1.401 . S
C3153 C3154 1.347 . S
C3153 H3213 0.929 . S
C3154 C3153 1.347 . S
C3154 C3155 1.455 . S
C3154 H3214 0.930 . S
C3155 C3142 1.412 . S
C3155 C3154 1.455 . S
C3155 C3156 1.331 . S
C3156 C3145 1.451 . S
C3156 C3155 1.331 . S
C3156 C3157 1.497 . S
C3157 C3148 1.395 . S
C3157 C3152 1.446 . S
C3157 C3156 1.497 . S
C3158 C3159 1.582 . S
C3158 H3215 0.962 . S
C3158 H3216 0.959 . S
C3158 H3217 0.958 . S
C3159 C3158 1.582 . S
C3159 O3162 1.458 . S
C3159 H3188 0.980 . S
O3160 C3105 1.426 . S
O3160 C3106 1.334 . S
O3161 C3133 1.412 . S
O3161 C3134 1.393 . S
O3162 C3124 1.435 . S
O3162 C3159 1.458 . S
O3163 C3115 1.468 . S
O3163 C3116 1.408 . S
H3164 C3105 0.980 . S
H3165 C3104 0.959 . S
H3166 C3104 0.959 . S
H3167 C3104 0.960 . S
H3168 C3107 0.929 . S
H3169 C3111 0.929 . S
H3170 C3112 0.959 . S
H3171 C3112 0.961 . S
H3172 C3112 0.961 . S
H3173 C3113 0.960 . S
H3174 C3113 0.960 . S
H3175 C3113 0.961 . S
H3176 C3115 0.980 . S
H3177 C3114 0.961 . S
H3178 C3114 0.960 . S
H3179 C3114 0.959 . S
H3180 C3117 0.930 . S
H3181 C3121 0.931 . S
H3182 C3122 0.959 . S
H3183 C3122 0.961 . S
H3184 C3122 0.959 . S
H3185 C3123 0.960 . S
H3186 C3123 0.960 . S
H3187 C3123 0.960 . S
H3188 C3159 0.980 . S
H3189 C3125 0.930 . S
H3190 C3129 0.930 . S
H3191 C3130 0.961 . S
H3192 C3130 0.960 . S
H3193 C3130 0.958 . S
H3194 C3131 0.961 . S
H3195 C3131 0.960 . S
H3196 C3131 0.960 . S
H3197 C3133 0.980 . S
H3198 C3132 0.961 . S
H3199 C3132 0.961 . S
H3200 C3132 0.959 . S
H3201 C3135 0.932 . S
H3202 C3139 0.929 . S
H3203 C3140 0.961 . S
H3204 C3140 0.959 . S
H3205 C3140 0.959 . S
H3206 C3141 0.960 . S
H3207 C3141 0.962 . S
H3208 C3141 0.961 . S
H3209 C3143 0.929 . S
H3210 C3146 0.930 . S
H3211 C3147 0.929 . S
H3212 C3150 0.930 . S
H3213 C3153 0.929 . S
H3214 C3154 0.930 . S
H3215 C3158 0.962 . S
H3216 C3158 0.959 . S
H3217 C3158 0.958 . S
C3218 C3219 1.560 . S
C3218 H3279 0.959 . S
C3218 H3280 0.959 . S
C3218 H3281 0.960 . S
C3219 C3218 1.560 . S
C3219 O3274 1.426 . S
C3219 H3278 0.980 . S
C3220 C3221 1.407 . S
C3220 C3225 1.418 . S
C3220 O3274 1.334 . S
C3221 C3220 1.407 . S
C3221 C3222 1.360 . S
C3221 H3282 0.929 . S
C3222 C3221 1.360 . S
C3222 C3223 1.401 . S
C3222 C3226 1.527 . S
C3223 C3222 1.401 . S
C3223 C3224 1.405 . S
C3223 C3256 1.587 . S
C3224 C3223 1.405 . S
C3224 C3225 1.332 . S
C3224 C3227 1.496 . S
C3225 C3220 1.418 . S
C3225 C3224 1.332 . S
C3225 H3283 0.929 . S
C3226 C3222 1.527 . S
C3226 H3284 0.959 . S
C3226 H3285 0.961 . S
C3226 H3286 0.961 . S
C3227 C3224 1.496 . S
C3227 H3287 0.960 . S
C3227 H3288 0.960 . S
C3227 H3289 0.961 . S
C3228 C3229 1.517 . S
C3228 H3291 0.961 . S
C3228 H3292 0.960 . S
C3228 H3293 0.959 . S
C3229 C3228 1.517 . S
C3229 O3277 1.468 . S
C3229 H3290 0.980 . S
C3230 C3231 1.349 . S
C3230 C3235 1.367 . S
C3230 O3277 1.408 . S
C3231 C3230 1.349 . S
C3231 C3232 1.407 . S
C3231 H3294 0.930 . S
C3232 C3231 1.407 . S
C3232 C3233 1.449 . S
C3232 C3236 1.535 . S
C3233 C3232 1.449 . S
C3233 C3234 1.384 . S
C3233 C3258 1.553 . S
C3234 C3233 1.384 . S
C3234 C3235 1.364 . S
C3234 C3237 1.450 . S
C3235 C3230 1.367 . S
C3235 C3234 1.364 . S
C3235 H3295 0.931 . S
C3236 C3232 1.535 . S
C3236 H3296 0.959 . S
C3236 H3297 0.961 . S
C3236 H3298 0.959 . S
C3237 C3234 1.450 . S
C3237 H3299 0.960 . S
C3237 H3300 0.960 . S
C3237 H3301 0.960 . S
C3238 C3239 1.309 . S
C3238 C3243 1.304 . S
C3238 O3276 1.435 . S
C3239 C3238 1.309 . S
C3239 C3240 1.476 . S
C3239 H3303 0.930 . S
C3240 C3239 1.476 . S
C3240 C3241 1.400 . S
C3240 C3244 1.567 . S
C3241 C3240 1.400 . S
C3241 C3242 1.373 . S
C3241 C3263 1.432 . S
C3242 C3241 1.373 . S
C3242 C3243 1.339 . S
C3242 C3245 1.530 . S
C3243 C3238 1.304 . S
C3243 C3242 1.339 . S
C3243 H3304 0.930 . S
C3244 C3240 1.567 . S
C3244 H3305 0.961 . S
C3244 H3306 0.960 . S
C3244 H3307 0.958 . S
C3245 C3242 1.530 . S
C3245 H3308 0.961 . S
C3245 H3309 0.960 . S
C3245 H3310 0.960 . S
C3246 C3247 1.530 . S
C3246 H3312 0.961 . S
C3246 H3313 0.961 . S
C3246 H3314 0.959 . S
C3247 C3246 1.530 . S
C3247 O3275 1.412 . S
C3247 H3311 0.980 . S
C3248 C3249 1.288 . S
C3248 C3253 1.377 . S
C3248 O3275 1.393 . S
C3249 C3248 1.288 . S
C3249 C3250 1.369 . S
C3249 H3315 0.932 . S
C3250 C3249 1.369 . S
C3250 C3251 1.398 . S
C3250 C3254 1.527 . S
C3251 C3250 1.398 . S
C3251 C3252 1.380 . S
C3251 C3265 1.497 . S
C3252 C3251 1.380 . S
C3252 C3253 1.383 . S
C3252 C3255 1.603 . S
C3253 C3248 1.377 . S
C3253 C3252 1.383 . S
C3253 H3316 0.929 . S
C3254 C3250 1.527 . S
C3254 H3317 0.961 . S
C3254 H3318 0.959 . S
C3254 H3319 0.959 . S
C3255 C3252 1.603 . S
C3255 H3320 0.960 . S
C3255 H3321 0.962 . S
C3255 H3322 0.961 . S
C3256 C3223 1.587 . S
C3256 C3257 1.360 . S
C3256 C3269 1.412 . S
C3257 C3256 1.360 . S
C3257 C3258 1.365 . S
C3257 H3323 0.929 . S
C3258 C3233 1.553 . S
C3258 C3257 1.365 . S
C3258 C3259 1.404 . S
C3259 C3258 1.404 . S
C3259 C3260 1.395 . S
C3259 C3270 1.451 . S
C3260 C3259 1.395 . S
C3260 C3261 1.322 . S
C3260 H3324 0.930 . S
C3261 C3260 1.322 . S
C3261 C3262 1.459 . S
C3261 H3325 0.929 . S
C3262 C3261 1.459 . S
C3262 C3263 1.445 . S
C3262 C3271 1.395 . S
C3263 C3241 1.432 . S
C3263 C3262 1.445 . S
C3263 C3264 1.370 . S
C3264 C3263 1.370 . S
C3264 C3265 1.438 . S
C3264 H3326 0.930 . S
C3265 C3251 1.497 . S
C3265 C3264 1.438 . S
C3265 C3266 1.360 . S
C3266 C3265 1.360 . S
C3266 C3267 1.401 . S
C3266 C3271 1.446 . S
C3267 C3266 1.401 . S
C3267 C3268 1.347 . S
C3267 H3327 0.929 . S
C3268 C3267 1.347 . S
C3268 C3269 1.455 . S
C3268 H3328 0.930 . S
C3269 C3256 1.412 . S
C3269 C3268 1.455 . S
C3269 C3270 1.331 . S
C3270 C3259 1.451 . S
C3270 C3269 1.331 . S
C3270 C3271 1.497 . S
C3271 C3262 1.395 . S
C3271 C3266 1.446 . S
C3271 C3270 1.497 . S
C3272 C3273 1.582 . S
C3272 H3329 0.962 . S
C3272 H3330 0.959 . S
C3272 H3331 0.958 . S
C3273 C3272 1.582 . S
C3273 O3276 1.458 . S
C3273 H3302 0.980 . S
O3274 C3219 1.426 . S
O3274 C3220 1.334 . S
O3275 C3247 1.412 . S
O3275 C3248 1.393 . S
O3276 C3238 1.435 . S
O3276 C3273 1.458 . S
O3277 C3229 1.468 . S
O3277 C3230 1.408 . S
H3278 C3219 0.980 . S
H3279 C3218 0.959 . S
H3280 C3218 0.959 . S
H3281 C3218 0.960 . S
H3282 C3221 0.929 . S
H3283 C3225 0.929 . S
H3284 C3226 0.959 . S
H3285 C3226 0.961 . S
H3286 C3226 0.961 . S
H3287 C3227 0.960 . S
H3288 C3227 0.960 . S
H3289 C3227 0.961 . S
H3290 C3229 0.980 . S
H3291 C3228 0.961 . S
H3292 C3228 0.960 . S
H3293 C3228 0.959 . S
H3294 C3231 0.930 . S
H3295 C3235 0.931 . S
H3296 C3236 0.959 . S
H3297 C3236 0.961 . S
H3298 C3236 0.959 . S
H3299 C3237 0.960 . S
H3300 C3237 0.960 . S
H3301 C3237 0.960 . S
H3302 C3273 0.980 . S
H3303 C3239 0.930 . S
H3304 C3243 0.930 . S
H3305 C3244 0.961 . S
H3306 C3244 0.960 . S
H3307 C3244 0.958 . S
H3308 C3245 0.961 . S
H3309 C3245 0.960 . S
H3310 C3245 0.960 . S
H3311 C3247 0.980 . S
H3312 C3246 0.961 . S
H3313 C3246 0.961 . S
H3314 C3246 0.959 . S
H3315 C3249 0.932 . S
H3316 C3253 0.929 . S
H3317 C3254 0.961 . S
H3318 C3254 0.959 . S
H3319 C3254 0.959 . S
H3320 C3255 0.960 . S
H3321 C3255 0.962 . S
H3322 C3255 0.961 . S
H3323 C3257 0.929 . S
H3324 C3260 0.930 . S
H3325 C3261 0.929 . S
H3326 C3264 0.930 . S
H3327 C3267 0.929 . S
H3328 C3268 0.930 . S
H3329 C3272 0.962 . S
H3330 C3272 0.959 . S
H3331 C3272 0.958 . S
C3332 C3333 1.560 . S
C3332 H3393 0.959 . S
C3332 H3394 0.959 . S
C3332 H3395 0.960 . S
C3333 C3332 1.560 . S
C3333 O3388 1.426 . S
C3333 H3392 0.980 . S
C3334 C3335 1.407 . S
C3334 C3339 1.418 . S
C3334 O3388 1.334 . S
C3335 C3334 1.407 . S
C3335 C3336 1.360 . S
C3335 H3396 0.929 . S
C3336 C3335 1.360 . S
C3336 C3337 1.401 . S
C3336 C3340 1.527 . S
C3337 C3336 1.401 . S
C3337 C3338 1.405 . S
C3337 C3370 1.587 . S
C3338 C3337 1.405 . S
C3338 C3339 1.332 . S
C3338 C3341 1.496 . S
C3339 C3334 1.418 . S
C3339 C3338 1.332 . S
C3339 H3397 0.929 . S
C3340 C3336 1.527 . S
C3340 H3398 0.959 . S
C3340 H3399 0.961 . S
C3340 H3400 0.961 . S
C3341 C3338 1.496 . S
C3341 H3401 0.960 . S
C3341 H3402 0.960 . S
C3341 H3403 0.961 . S
C3342 C3343 1.517 . S
C3342 H3405 0.961 . S
C3342 H3406 0.960 . S
C3342 H3407 0.959 . S
C3343 C3342 1.517 . S
C3343 O3391 1.468 . S
C3343 H3404 0.980 . S
C3344 C3345 1.349 . S
C3344 C3349 1.367 . S
C3344 O3391 1.408 . S
C3345 C3344 1.349 . S
C3345 C3346 1.407 . S
C3345 H3408 0.930 . S
C3346 C3345 1.407 . S
C3346 C3347 1.449 . S
C3346 C3350 1.535 . S
C3347 C3346 1.449 . S
C3347 C3348 1.384 . S
C3347 C3372 1.553 . S
C3348 C3347 1.384 . S
C3348 C3349 1.364 . S
C3348 C3351 1.450 . S
C3349 C3344 1.367 . S
C3349 C3348 1.364 . S
C3349 H3409 0.931 . S
C3350 C3346 1.535 . S
C3350 H3410 0.959 . S
C3350 H3411 0.961 . S
C3350 H3412 0.959 . S
C3351 C3348 1.450 . S
C3351 H3413 0.960 . S
C3351 H3414 0.960 . S
C3351 H3415 0.960 . S
C3352 C3353 1.309 . S
C3352 C3357 1.304 . S
C3352 O3390 1.435 . S
C3353 C3352 1.309 . S
C3353 C3354 1.476 . S
C3353 H3417 0.930 . S
C3354 C3353 1.476 . S
C3354 C3355 1.400 . S
C3354 C3358 1.567 . S
C3355 C3354 1.400 . S
C3355 C3356 1.373 . S
C3355 C3377 1.432 . S
C3356 C3355 1.373 . S
C3356 C3357 1.339 . S
C3356 C3359 1.530 . S
C3357 C3352 1.304 . S
C3357 C3356 1.339 . S
C3357 H3418 0.930 . S
C3358 C3354 1.567 . S
C3358 H3419 0.961 . S
C3358 H3420 0.960 . S
C3358 H3421 0.958 . S
C3359 C3356 1.530 . S
C3359 H3422 0.961 . S
C3359 H3423 0.960 . S
C3359 H3424 0.960 . S
C3360 C3361 1.530 . S
C3360 H3426 0.961 . S
C3360 H3427 0.961 . S
C3360 H3428 0.959 . S
C3361 C3360 1.530 . S
C3361 O3389 1.412 . S
C3361 H3425 0.980 . S
C3362 C3363 1.288 . S
C3362 C3367 1.377 . S
C3362 O3389 1.393 . S
C3363 C3362 1.288 . S
C3363 C3364 1.369 . S
C3363 H3429 0.932 . S
C3364 C3363 1.369 . S
C3364 C3365 1.398 . S
C3364 C3368 1.527 . S
C3365 C3364 1.398 . S
C3365 C3366 1.380 . S
C3365 C3379 1.497 . S
C3366 C3365 1.380 . S
C3366 C3367 1.383 . S
C3366 C3369 1.603 . S
C3367 C3362 1.377 . S
C3367 C3366 1.383 . S
C3367 H3430 0.929 . S
C3368 C3364 1.527 . S
C3368 H3431 0.961 . S
C3368 H3432 0.959 . S
C3368 H3433 0.959 . S
C3369 C3366 1.603 . S
C3369 H3434 0.960 . S
C3369 H3435 0.962 . S
C3369 H3436 0.961 . S
C3370 C3337 1.587 . S
C3370 C3371 1.360 . S
C3370 C3383 1.412 . S
C3371 C3370 1.360 . S
C3371 C3372 1.365 . S
C3371 H3437 0.929 . S
C3372 C3347 1.553 . S
C3372 C3371 1.365 . S
C3372 C3373 1.404 . S
C3373 C3372 1.404 . S
C3373 C3374 1.395 . S
C3373 C3384 1.451 . S
C3374 C3373 1.395 . S
C3374 C3375 1.322 . S
C3374 H3438 0.930 . S
C3375 C3374 1.322 . S
C3375 C3376 1.459 . S
C3375 H3439 0.929 . S
C3376 C3375 1.459 . S
C3376 C3377 1.445 . S
C3376 C3385 1.395 . S
C3377 C3355 1.432 . S
C3377 C3376 1.445 . S
C3377 C3378 1.370 . S
C3378 C3377 1.370 . S
C3378 C3379 1.438 . S
C3378 H3440 0.930 . S
C3379 C3365 1.497 . S
C3379 C3378 1.438 . S
C3379 C3380 1.360 . S
C3380 C3379 1.360 . S
C3380 C3381 1.401 . S
C3380 C3385 1.446 . S
C3381 C3380 1.401 . S
C3381 C3382 1.347 . S
C3381 H3441 0.929 . S
C3382 C3381 1.347 . S
C3382 C3383 1.455 . S
C3382 H3442 0.930 . S
C3383 C3370 1.412 . S
C3383 C3382 1.455 . S
C3383 C3384 1.331 . S
C3384 C3373 1.451 . S
C3384 C3383 1.331 . S
C3384 C3385 1.497 . S
C3385 C3376 1.395 . S
C3385 C3380 1.446 . S
C3385 C3384 1.497 . S
C3386 C3387 1.582 . S
C3386 H3443 0.962 . S
C3386 H3444 0.959 . S
C3386 H3445 0.958 . S
C3387 C3386 1.582 . S
C3387 O3390 1.458 . S
C3387 H3416 0.980 . S
O3388 C3333 1.426 . S
O3388 C3334 1.334 . S
O3389 C3361 1.412 . S
O3389 C3362 1.393 . S
O3390 C3352 1.435 . S
O3390 C3387 1.458 . S
O3391 C3343 1.468 . S
O3391 C3344 1.408 . S
H3392 C3333 0.980 . S
H3393 C3332 0.959 . S
H3394 C3332 0.959 . S
H3395 C3332 0.960 . S
H3396 C3335 0.929 . S
H3397 C3339 0.929 . S
H3398 C3340 0.959 . S
H3399 C3340 0.961 . S
H3400 C3340 0.961 . S
H3401 C3341 0.960 . S
H3402 C3341 0.960 . S
H3403 C3341 0.961 . S
H3404 C3343 0.980 . S
H3405 C3342 0.961 . S
H3406 C3342 0.960 . S
H3407 C3342 0.959 . S
H3408 C3345 0.930 . S
H3409 C3349 0.931 . S
H3410 C3350 0.959 . S
H3411 C3350 0.961 . S
H3412 C3350 0.959 . S
H3413 C3351 0.960 . S
H3414 C3351 0.960 . S
H3415 C3351 0.960 . S
H3416 C3387 0.980 . S
H3417 C3353 0.930 . S
H3418 C3357 0.930 . S
H3419 C3358 0.961 . S
H3420 C3358 0.960 . S
H3421 C3358 0.958 . S
H3422 C3359 0.961 . S
H3423 C3359 0.960 . S
H3424 C3359 0.960 . S
H3425 C3361 0.980 . S
H3426 C3360 0.961 . S
H3427 C3360 0.961 . S
H3428 C3360 0.959 . S
H3429 C3363 0.932 . S
H3430 C3367 0.929 . S
H3431 C3368 0.961 . S
H3432 C3368 0.959 . S
H3433 C3368 0.959 . S
H3434 C3369 0.960 . S
H3435 C3369 0.962 . S
H3436 C3369 0.961 . S
H3437 C3371 0.929 . S
H3438 C3374 0.930 . S
H3439 C3375 0.929 . S
H3440 C3378 0.930 . S
H3441 C3381 0.929 . S
H3442 C3382 0.930 . S
H3443 C3386 0.962 . S
H3444 C3386 0.959 . S
H3445 C3386 0.958 . S
C3446 C3447 1.560 . S
C3446 H3507 0.959 . S
C3446 H3508 0.959 . S
C3446 H3509 0.960 . S
C3447 C3446 1.560 . S
C3447 O3502 1.426 . S
C3447 H3506 0.980 . S
C3448 C3449 1.407 . S
C3448 C3453 1.418 . S
C3448 O3502 1.334 . S
C3449 C3448 1.407 . S
C3449 C3450 1.360 . S
C3449 H3510 0.929 . S
C3450 C3449 1.360 . S
C3450 C3451 1.401 . S
C3450 C3454 1.527 . S
C3451 C3450 1.401 . S
C3451 C3452 1.405 . S
C3451 C3484 1.587 . S
C3452 C3451 1.405 . S
C3452 C3453 1.332 . S
C3452 C3455 1.496 . S
C3453 C3448 1.418 . S
C3453 C3452 1.332 . S
C3453 H3511 0.929 . S
C3454 C3450 1.527 . S
C3454 H3512 0.959 . S
C3454 H3513 0.961 . S
C3454 H3514 0.961 . S
C3455 C3452 1.496 . S
C3455 H3515 0.960 . S
C3455 H3516 0.960 . S
C3455 H3517 0.961 . S
C3456 C3457 1.517 . S
C3456 H3519 0.961 . S
C3456 H3520 0.960 . S
C3456 H3521 0.959 . S
C3457 C3456 1.517 . S
C3457 O3505 1.468 . S
C3457 H3518 0.980 . S
C3458 C3459 1.349 . S
C3458 C3463 1.367 . S
C3458 O3505 1.408 . S
C3459 C3458 1.349 . S
C3459 C3460 1.407 . S
C3459 H3522 0.930 . S
C3460 C3459 1.407 . S
C3460 C3461 1.449 . S
C3460 C3464 1.535 . S
C3461 C3460 1.449 . S
C3461 C3462 1.384 . S
C3461 C3486 1.553 . S
C3462 C3461 1.384 . S
C3462 C3463 1.364 . S
C3462 C3465 1.450 . S
C3463 C3458 1.367 . S
C3463 C3462 1.364 . S
C3463 H3523 0.931 . S
C3464 C3460 1.535 . S
C3464 H3524 0.959 . S
C3464 H3525 0.961 . S
C3464 H3526 0.959 . S
C3465 C3462 1.450 . S
C3465 H3527 0.960 . S
C3465 H3528 0.960 . S
C3465 H3529 0.960 . S
C3466 C3467 1.309 . S
C3466 C3471 1.304 . S
C3466 O3504 1.435 . S
C3467 C3466 1.309 . S
C3467 C3468 1.476 . S
C3467 H3531 0.930 . S
C3468 C3467 1.476 . S
C3468 C3469 1.400 . S
C3468 C3472 1.567 . S
C3469 C3468 1.400 . S
C3469 C3470 1.373 . S
C3469 C3491 1.432 . S
C3470 C3469 1.373 . S
C3470 C3471 1.339 . S
C3470 C3473 1.530 . S
C3471 C3466 1.304 . S
C3471 C3470 1.339 . S
C3471 H3532 0.930 . S
C3472 C3468 1.567 . S
C3472 H3533 0.961 . S
C3472 H3534 0.960 . S
C3472 H3535 0.958 . S
C3473 C3470 1.530 . S
C3473 H3536 0.961 . S
C3473 H3537 0.960 . S
C3473 H3538 0.960 . S
C3474 C3475 1.530 . S
C3474 H3540 0.961 . S
C3474 H3541 0.961 . S
C3474 H3542 0.959 . S
C3475 C3474 1.530 . S
C3475 O3503 1.412 . S
C3475 H3539 0.980 . S
C3476 C3477 1.288 . S
C3476 C3481 1.377 . S
C3476 O3503 1.393 . S
C3477 C3476 1.288 . S
C3477 C3478 1.369 . S
C3477 H3543 0.932 . S
C3478 C3477 1.369 . S
C3478 C3479 1.398 . S
C3478 C3482 1.527 . S
C3479 C3478 1.398 . S
C3479 C3480 1.380 . S
C3479 C3493 1.497 . S
C3480 C3479 1.380 . S
C3480 C3481 1.383 . S
C3480 C3483 1.603 . S
C3481 C3476 1.377 . S
C3481 C3480 1.383 . S
C3481 H3544 0.929 . S
C3482 C3478 1.527 . S
C3482 H3545 0.961 . S
C3482 H3546 0.959 . S
C3482 H3547 0.959 . S
C3483 C3480 1.603 . S
C3483 H3548 0.960 . S
C3483 H3549 0.962 . S
C3483 H3550 0.961 . S
C3484 C3451 1.587 . S
C3484 C3485 1.360 . S
C3484 C3497 1.412 . S
C3485 C3484 1.360 . S
C3485 C3486 1.365 . S
C3485 H3551 0.929 . S
C3486 C3461 1.553 . S
C3486 C3485 1.365 . S
C3486 C3487 1.404 . S
C3487 C3486 1.404 . S
C3487 C3488 1.395 . S
C3487 C3498 1.451 . S
C3488 C3487 1.395 . S
C3488 C3489 1.322 . S
C3488 H3552 0.930 . S
C3489 C3488 1.322 . S
C3489 C3490 1.459 . S
C3489 H3553 0.929 . S
C3490 C3489 1.459 . S
C3490 C3491 1.445 . S
C3490 C3499 1.395 . S
C3491 C3469 1.432 . S
C3491 C3490 1.445 . S
C3491 C3492 1.370 . S
C3492 C3491 1.370 . S
C3492 C3493 1.438 . S
C3492 H3554 0.930 . S
C3493 C3479 1.497 . S
C3493 C3492 1.438 . S
C3493 C3494 1.360 . S
C3494 C3493 1.360 . S
C3494 C3495 1.401 . S
C3494 C3499 1.446 . S
C3495 C3494 1.401 . S
C3495 C3496 1.347 . S
C3495 H3555 0.929 . S
C3496 C3495 1.347 . S
C3496 C3497 1.455 . S
C3496 H3556 0.930 . S
C3497 C3484 1.412 . S
C3497 C3496 1.455 . S
C3497 C3498 1.331 . S
C3498 C3487 1.451 . S
C3498 C3497 1.331 . S
C3498 C3499 1.497 . S
C3499 C3490 1.395 . S
C3499 C3494 1.446 . S
C3499 C3498 1.497 . S
C3500 C3501 1.582 . S
C3500 H3557 0.962 . S
C3500 H3558 0.959 . S
C3500 H3559 0.958 . S
C3501 C3500 1.582 . S
C3501 O3504 1.458 . S
C3501 H3530 0.980 . S
O3502 C3447 1.426 . S
O3502 C3448 1.334 . S
O3503 C3475 1.412 . S
O3503 C3476 1.393 . S
O3504 C3466 1.435 . S
O3504 C3501 1.458 . S
O3505 C3457 1.468 . S
O3505 C3458 1.408 . S
H3506 C3447 0.980 . S
H3507 C3446 0.959 . S
H3508 C3446 0.959 . S
H3509 C3446 0.960 . S
H3510 C3449 0.929 . S
H3511 C3453 0.929 . S
H3512 C3454 0.959 . S
H3513 C3454 0.961 . S
H3514 C3454 0.961 . S
H3515 C3455 0.960 . S
H3516 C3455 0.960 . S
H3517 C3455 0.961 . S
H3518 C3457 0.980 . S
H3519 C3456 0.961 . S
H3520 C3456 0.960 . S
H3521 C3456 0.959 . S
H3522 C3459 0.930 . S
H3523 C3463 0.931 . S
H3524 C3464 0.959 . S
H3525 C3464 0.961 . S
H3526 C3464 0.959 . S
H3527 C3465 0.960 . S
H3528 C3465 0.960 . S
H3529 C3465 0.960 . S
H3530 C3501 0.980 . S
H3531 C3467 0.930 . S
H3532 C3471 0.930 . S
H3533 C3472 0.961 . S
H3534 C3472 0.960 . S
H3535 C3472 0.958 . S
H3536 C3473 0.961 . S
H3537 C3473 0.960 . S
H3538 C3473 0.960 . S
H3539 C3475 0.980 . S
H3540 C3474 0.961 . S
H3541 C3474 0.961 . S
H3542 C3474 0.959 . S
H3543 C3477 0.932 . S
H3544 C3481 0.929 . S
H3545 C3482 0.961 . S
H3546 C3482 0.959 . S
H3547 C3482 0.959 . S
H3548 C3483 0.960 . S
H3549 C3483 0.962 . S
H3550 C3483 0.961 . S
H3551 C3485 0.929 . S
H3552 C3488 0.930 . S
H3553 C3489 0.929 . S
H3554 C3492 0.930 . S
H3555 C3495 0.929 . S
H3556 C3496 0.930 . S
H3557 C3500 0.962 . S
H3558 C3500 0.959 . S
H3559 C3500 0.958 . S
C3560 C3561 1.560 . S
C3560 H3621 0.959 . S
C3560 H3622 0.959 . S
C3560 H3623 0.960 . S
C3561 C3560 1.560 . S
C3561 O3616 1.426 . S
C3561 H3620 0.980 . S
C3562 C3563 1.407 . S
C3562 C3567 1.418 . S
C3562 O3616 1.334 . S
C3563 C3562 1.407 . S
C3563 C3564 1.360 . S
C3563 H3624 0.929 . S
C3564 C3563 1.360 . S
C3564 C3565 1.401 . S
C3564 C3568 1.527 . S
C3565 C3564 1.401 . S
C3565 C3566 1.405 . S
C3565 C3598 1.587 . S
C3566 C3565 1.405 . S
C3566 C3567 1.332 . S
C3566 C3569 1.496 . S
C3567 C3562 1.418 . S
C3567 C3566 1.332 . S
C3567 H3625 0.929 . S
C3568 C3564 1.527 . S
C3568 H3626 0.959 . S
C3568 H3627 0.961 . S
C3568 H3628 0.961 . S
C3569 C3566 1.496 . S
C3569 H3629 0.960 . S
C3569 H3630 0.960 . S
C3569 H3631 0.961 . S
C3570 C3571 1.517 . S
C3570 H3633 0.961 . S
C3570 H3634 0.960 . S
C3570 H3635 0.959 . S
C3571 C3570 1.517 . S
C3571 O3619 1.468 . S
C3571 H3632 0.980 . S
C3572 C3573 1.349 . S
C3572 C3577 1.367 . S
C3572 O3619 1.408 . S
C3573 C3572 1.349 . S
C3573 C3574 1.407 . S
C3573 H3636 0.930 . S
C3574 C3573 1.407 . S
C3574 C3575 1.449 . S
C3574 C3578 1.535 . S
C3575 C3574 1.449 . S
C3575 C3576 1.384 . S
C3575 C3600 1.553 . S
C3576 C3575 1.384 . S
C3576 C3577 1.364 . S
C3576 C3579 1.450 . S
C3577 C3572 1.367 . S
C3577 C3576 1.364 . S
C3577 H3637 0.931 . S
C3578 C3574 1.535 . S
C3578 H3638 0.959 . S
C3578 H3639 0.961 . S
C3578 H3640 0.959 . S
C3579 C3576 1.450 . S
C3579 H3641 0.960 . S
C3579 H3642 0.960 . S
C3579 H3643 0.960 . S
C3580 C3581 1.309 . S
C3580 C3585 1.304 . S
C3580 O3618 1.435 . S
C3581 C3580 1.309 . S
C3581 C3582 1.476 . S
C3581 H3645 0.930 . S
C3582 C3581 1.476 . S
C3582 C3583 1.400 . S
C3582 C3586 1.567 . S
C3583 C3582 1.400 . S
C3583 C3584 1.373 . S
C3583 C3605 1.432 . S
C3584 C3583 1.373 . S
C3584 C3585 1.339 . S
C3584 C3587 1.530 . S
C3585 C3580 1.304 . S
C3585 C3584 1.339 . S
C3585 H3646 0.930 . S
C3586 C3582 1.567 . S
C3586 H3647 0.961 . S
C3586 H3648 0.960 . S
C3586 H3649 0.958 . S
C3587 C3584 1.530 . S
C3587 H3650 0.961 . S
C3587 H3651 0.960 . S
C3587 H3652 0.960 . S
C3588 C3589 1.530 . S
C3588 H3654 0.961 . S
C3588 H3655 0.961 . S
C3588 H3656 0.959 . S
C3589 C3588 1.530 . S
C3589 O3617 1.412 . S
C3589 H3653 0.980 . S
C3590 C3591 1.288 . S
C3590 C3595 1.377 . S
C3590 O3617 1.393 . S
C3591 C3590 1.288 . S
C3591 C3592 1.369 . S
C3591 H3657 0.932 . S
C3592 C3591 1.369 . S
C3592 C3593 1.398 . S
C3592 C3596 1.527 . S
C3593 C3592 1.398 . S
C3593 C3594 1.380 . S
C3593 C3607 1.497 . S
C3594 C3593 1.380 . S
C3594 C3595 1.383 . S
C3594 C3597 1.603 . S
C3595 C3590 1.377 . S
C3595 C3594 1.383 . S
C3595 H3658 0.929 . S
C3596 C3592 1.527 . S
C3596 H3659 0.961 . S
C3596 H3660 0.959 . S
C3596 H3661 0.959 . S
C3597 C3594 1.603 . S
C3597 H3662 0.960 . S
C3597 H3663 0.962 . S
C3597 H3664 0.961 . S
C3598 C3565 1.587 . S
C3598 C3599 1.360 . S
C3598 C3611 1.412 . S
C3599 C3598 1.360 . S
C3599 C3600 1.365 . S
C3599 H3665 0.929 . S
C3600 C3575 1.553 . S
C3600 C3599 1.365 . S
C3600 C3601 1.404 . S
C3601 C3600 1.404 . S
C3601 C3602 1.395 . S
C3601 C3612 1.451 . S
C3602 C3601 1.395 . S
C3602 C3603 1.322 . S
C3602 H3666 0.930 . S
C3603 C3602 1.322 . S
C3603 C3604 1.459 . S
C3603 H3667 0.929 . S
C3604 C3603 1.459 . S
C3604 C3605 1.445 . S
C3604 C3613 1.395 . S
C3605 C3583 1.432 . S
C3605 C3604 1.445 . S
C3605 C3606 1.370 . S
C3606 C3605 1.370 . S
C3606 C3607 1.438 . S
C3606 H3668 0.930 . S
C3607 C3593 1.497 . S
C3607 C3606 1.438 . S
C3607 C3608 1.360 . S
C3608 C3607 1.360 . S
C3608 C3609 1.401 . S
C3608 C3613 1.446 . S
C3609 C3608 1.401 . S
C3609 C3610 1.347 . S
C3609 H3669 0.929 . S
C3610 C3609 1.347 . S
C3610 C3611 1.455 . S
C3610 H3670 0.930 . S
C3611 C3598 1.412 . S
C3611 C3610 1.455 . S
C3611 C3612 1.331 . S
C3612 C3601 1.451 . S
C3612 C3611 1.331 . S
C3612 C3613 1.497 . S
C3613 C3604 1.395 . S
C3613 C3608 1.446 . S
C3613 C3612 1.497 . S
C3614 C3615 1.582 . S
C3614 H3671 0.962 . S
C3614 H3672 0.959 . S
C3614 H3673 0.958 . S
C3615 C3614 1.582 . S
C3615 O3618 1.458 . S
C3615 H3644 0.980 . S
O3616 C3561 1.426 . S
O3616 C3562 1.334 . S
O3617 C3589 1.412 . S
O3617 C3590 1.393 . S
O3618 C3580 1.435 . S
O3618 C3615 1.458 . S
O3619 C3571 1.468 . S
O3619 C3572 1.408 . S
H3620 C3561 0.980 . S
H3621 C3560 0.959 . S
H3622 C3560 0.959 . S
H3623 C3560 0.960 . S
H3624 C3563 0.929 . S
H3625 C3567 0.929 . S
H3626 C3568 0.959 . S
H3627 C3568 0.961 . S
H3628 C3568 0.961 . S
H3629 C3569 0.960 . S
H3630 C3569 0.960 . S
H3631 C3569 0.961 . S
H3632 C3571 0.980 . S
H3633 C3570 0.961 . S
H3634 C3570 0.960 . S
H3635 C3570 0.959 . S
H3636 C3573 0.930 . S
H3637 C3577 0.931 . S
H3638 C3578 0.959 . S
H3639 C3578 0.961 . S
H3640 C3578 0.959 . S
H3641 C3579 0.960 . S
H3642 C3579 0.960 . S
H3643 C3579 0.960 . S
H3644 C3615 0.980 . S
H3645 C3581 0.930 . S
H3646 C3585 0.930 . S
H3647 C3586 0.961 . S
H3648 C3586 0.960 . S
H3649 C3586 0.958 . S
H3650 C3587 0.961 . S
H3651 C3587 0.960 . S
H3652 C3587 0.960 . S
H3653 C3589 0.980 . S
H3654 C3588 0.961 . S
H3655 C3588 0.961 . S
H3656 C3588 0.959 . S
H3657 C3591 0.932 . S
H3658 C3595 0.929 . S
H3659 C3596 0.961 . S
H3660 C3596 0.959 . S
H3661 C3596 0.959 . S
H3662 C3597 0.960 . S
H3663 C3597 0.962 . S
H3664 C3597 0.961 . S
H3665 C3599 0.929 . S
H3666 C3602 0.930 . S
H3667 C3603 0.929 . S
H3668 C3606 0.930 . S
H3669 C3609 0.929 . S
H3670 C3610 0.930 . S
H3671 C3614 0.962 . S
H3672 C3614 0.959 . S
H3673 C3614 0.958 . S
C3674 C3675 1.560 . S
C3674 H3735 0.959 . S
C3674 H3736 0.959 . S
C3674 H3737 0.960 . S
C3675 C3674 1.560 . S
C3675 O3730 1.426 . S
C3675 H3734 0.980 . S
C3676 C3677 1.407 . S
C3676 C3681 1.418 . S
C3676 O3730 1.334 . S
C3677 C3676 1.407 . S
C3677 C3678 1.360 . S
C3677 H3738 0.929 . S
C3678 C3677 1.360 . S
C3678 C3679 1.401 . S
C3678 C3682 1.527 . S
C3679 C3678 1.401 . S
C3679 C3680 1.405 . S
C3679 C3712 1.587 . S
C3680 C3679 1.405 . S
C3680 C3681 1.332 . S
C3680 C3683 1.496 . S
C3681 C3676 1.418 . S
C3681 C3680 1.332 . S
C3681 H3739 0.929 . S
C3682 C3678 1.527 . S
C3682 H3740 0.959 . S
C3682 H3741 0.961 . S
C3682 H3742 0.961 . S
C3683 C3680 1.496 . S
C3683 H3743 0.960 . S
C3683 H3744 0.960 . S
C3683 H3745 0.961 . S
C3684 C3685 1.517 . S
C3684 H3747 0.961 . S
C3684 H3748 0.960 . S
C3684 H3749 0.959 . S
C3685 C3684 1.517 . S
C3685 O3733 1.468 . S
C3685 H3746 0.980 . S
C3686 C3687 1.349 . S
C3686 C3691 1.367 . S
C3686 O3733 1.408 . S
C3687 C3686 1.349 . S
C3687 C3688 1.407 . S
C3687 H3750 0.930 . S
C3688 C3687 1.407 . S
C3688 C3689 1.449 . S
C3688 C3692 1.535 . S
C3689 C3688 1.449 . S
C3689 C3690 1.384 . S
C3689 C3714 1.553 . S
C3690 C3689 1.384 . S
C3690 C3691 1.364 . S
C3690 C3693 1.450 . S
C3691 C3686 1.367 . S
C3691 C3690 1.364 . S
C3691 H3751 0.931 . S
C3692 C3688 1.535 . S
C3692 H3752 0.959 . S
C3692 H3753 0.961 . S
C3692 H3754 0.959 . S
C3693 C3690 1.450 . S
C3693 H3755 0.960 . S
C3693 H3756 0.960 . S
C3693 H3757 0.960 . S
C3694 C3695 1.309 . S
C3694 C3699 1.304 . S
C3694 O3732 1.435 . S
C3695 C3694 1.309 . S
C3695 C3696 1.476 . S
C3695 H3759 0.930 . S
C3696 C3695 1.476 . S
C3696 C3697 1.400 . S
C3696 C3700 1.567 . S
C3697 C3696 1.400 . S
C3697 C3698 1.373 . S
C3697 C3719 1.432 . S
C3698 C3697 1.373 . S
C3698 C3699 1.339 . S
C3698 C3701 1.530 . S
C3699 C3694 1.304 . S
C3699 C3698 1.339 . S
C3699 H3760 0.930 . S
C3700 C3696 1.567 . S
C3700 H3761 0.961 . S
C3700 H3762 0.960 . S
C3700 H3763 0.958 . S
C3701 C3698 1.530 . S
C3701 H3764 0.961 . S
C3701 H3765 0.960 . S
C3701 H3766 0.960 . S
C3702 C3703 1.530 . S
C3702 H3768 0.961 . S
C3702 H3769 0.961 . S
C3702 H3770 0.959 . S
C3703 C3702 1.530 . S
C3703 O3731 1.412 . S
C3703 H3767 0.980 . S
C3704 C3705 1.288 . S
C3704 C3709 1.377 . S
C3704 O3731 1.393 . S
C3705 C3704 1.288 . S
C3705 C3706 1.369 . S
C3705 H3771 0.932 . S
C3706 C3705 1.369 . S
C3706 C3707 1.398 . S
C3706 C3710 1.527 . S
C3707 C3706 1.398 . S
C3707 C3708 1.380 . S
C3707 C3721 1.497 . S
C3708 C3707 1.380 . S
C3708 C3709 1.383 . S
C3708 C3711 1.603 . S
C3709 C3704 1.377 . S
C3709 C3708 1.383 . S
C3709 H3772 0.929 . S
C3710 C3706 1.527 . S
C3710 H3773 0.961 . S
C3710 H3774 0.959 . S
C3710 H3775 0.959 . S
C3711 C3708 1.603 . S
C3711 H3776 0.960 . S
C3711 H3777 0.962 . S
C3711 H3778 0.961 . S
C3712 C3679 1.587 . S
C3712 C3713 1.360 . S
C3712 C3725 1.412 . S
C3713 C3712 1.360 . S
C3713 C3714 1.365 . S
C3713 H3779 0.929 . S
C3714 C3689 1.553 . S
C3714 C3713 1.365 . S
C3714 C3715 1.404 . S
C3715 C3714 1.404 . S
C3715 C3716 1.395 . S
C3715 C3726 1.451 . S
C3716 C3715 1.395 . S
C3716 C3717 1.322 . S
C3716 H3780 0.930 . S
C3717 C3716 1.322 . S
C3717 C3718 1.459 . S
C3717 H3781 0.929 . S
C3718 C3717 1.459 . S
C3718 C3719 1.445 . S
C3718 C3727 1.395 . S
C3719 C3697 1.432 . S
C3719 C3718 1.445 . S
C3719 C3720 1.370 . S
C3720 C3719 1.370 . S
C3720 C3721 1.438 . S
C3720 H3782 0.930 . S
C3721 C3707 1.497 . S
C3721 C3720 1.438 . S
C3721 C3722 1.360 . S
C3722 C3721 1.360 . S
C3722 C3723 1.401 . S
C3722 C3727 1.446 . S
C3723 C3722 1.401 . S
C3723 C3724 1.347 . S
C3723 H3783 0.929 . S
C3724 C3723 1.347 . S
C3724 C3725 1.455 . S
C3724 H3784 0.930 . S
C3725 C3712 1.412 . S
C3725 C3724 1.455 . S
C3725 C3726 1.331 . S
C3726 C3715 1.451 . S
C3726 C3725 1.331 . S
C3726 C3727 1.497 . S
C3727 C3718 1.395 . S
C3727 C3722 1.446 . S
C3727 C3726 1.497 . S
C3728 C3729 1.582 . S
C3728 H3785 0.962 . S
C3728 H3786 0.959 . S
C3728 H3787 0.958 . S
C3729 C3728 1.582 . S
C3729 O3732 1.458 . S
C3729 H3758 0.980 . S
O3730 C3675 1.426 . S
O3730 C3676 1.334 . S
O3731 C3703 1.412 . S
O3731 C3704 1.393 . S
O3732 C3694 1.435 . S
O3732 C3729 1.458 . S
O3733 C3685 1.468 . S
O3733 C3686 1.408 . S
H3734 C3675 0.980 . S
H3735 C3674 0.959 . S
H3736 C3674 0.959 . S
H3737 C3674 0.960 . S
H3738 C3677 0.929 . S
H3739 C3681 0.929 . S
H3740 C3682 0.959 . S
H3741 C3682 0.961 . S
H3742 C3682 0.961 . S
H3743 C3683 0.960 . S
H3744 C3683 0.960 . S
H3745 C3683 0.961 . S
H3746 C3685 0.980 . S
H3747 C3684 0.961 . S
H3748 C3684 0.960 . S
H3749 C3684 0.959 . S
H3750 C3687 0.930 . S
H3751 C3691 0.931 . S
H3752 C3692 0.959 . S
H3753 C3692 0.961 . S
H3754 C3692 0.959 . S
H3755 C3693 0.960 . S
H3756 C3693 0.960 . S
H3757 C3693 0.960 . S
H3758 C3729 0.980 . S
H3759 C3695 0.930 . S
H3760 C3699 0.930 . S
H3761 C3700 0.961 . S
H3762 C3700 0.960 . S
H3763 C3700 0.958 . S
H3764 C3701 0.961 . S
H3765 C3701 0.960 . S
H3766 C3701 0.960 . S
H3767 C3703 0.980 . S
H3768 C3702 0.961 . S
H3769 C3702 0.961 . S
H3770 C3702 0.959 . S
H3771 C3705 0.932 . S
H3772 C3709 0.929 . S
H3773 C3710 0.961 . S
H3774 C3710 0.959 . S
H3775 C3710 0.959 . S
H3776 C3711 0.960 . S
H3777 C3711 0.962 . S
H3778 C3711 0.961 . S
H3779 C3713 0.929 . S
H3780 C3716 0.930 . S
H3781 C3717 0.929 . S
H3782 C3720 0.930 . S
H3783 C3723 0.929 . S
H3784 C3724 0.930 . S
H3785 C3728 0.962 . S
H3786 C3728 0.959 . S
H3787 C3728 0.958 . S
C3788 C3789 1.560 . S
C3788 H3849 0.959 . S
C3788 H3850 0.959 . S
C3788 H3851 0.960 . S
C3789 C3788 1.560 . S
C3789 O3844 1.426 . S
C3789 H3848 0.980 . S
C3790 C3791 1.407 . S
C3790 C3795 1.418 . S
C3790 O3844 1.334 . S
C3791 C3790 1.407 . S
C3791 C3792 1.360 . S
C3791 H3852 0.929 . S
C3792 C3791 1.360 . S
C3792 C3793 1.401 . S
C3792 C3796 1.527 . S
C3793 C3792 1.401 . S
C3793 C3794 1.405 . S
C3793 C3826 1.587 . S
C3794 C3793 1.405 . S
C3794 C3795 1.332 . S
C3794 C3797 1.496 . S
C3795 C3790 1.418 . S
C3795 C3794 1.332 . S
C3795 H3853 0.929 . S
C3796 C3792 1.527 . S
C3796 H3854 0.959 . S
C3796 H3855 0.961 . S
C3796 H3856 0.961 . S
C3797 C3794 1.496 . S
C3797 H3857 0.960 . S
C3797 H3858 0.960 . S
C3797 H3859 0.961 . S
C3798 C3799 1.517 . S
C3798 H3861 0.961 . S
C3798 H3862 0.960 . S
C3798 H3863 0.959 . S
C3799 C3798 1.517 . S
C3799 O3847 1.468 . S
C3799 H3860 0.980 . S
C3800 C3801 1.349 . S
C3800 C3805 1.367 . S
C3800 O3847 1.408 . S
C3801 C3800 1.349 . S
C3801 C3802 1.407 . S
C3801 H3864 0.930 . S
C3802 C3801 1.407 . S
C3802 C3803 1.449 . S
C3802 C3806 1.535 . S
C3803 C3802 1.449 . S
C3803 C3804 1.384 . S
C3803 C3828 1.553 . S
C3804 C3803 1.384 . S
C3804 C3805 1.364 . S
C3804 C3807 1.450 . S
C3805 C3800 1.367 . S
C3805 C3804 1.364 . S
C3805 H3865 0.931 . S
C3806 C3802 1.535 . S
C3806 H3866 0.959 . S
C3806 H3867 0.961 . S
C3806 H3868 0.959 . S
C3807 C3804 1.450 . S
C3807 H3869 0.960 . S
C3807 H3870 0.960 . S
C3807 H3871 0.960 . S
C3808 C3809 1.309 . S
C3808 C3813 1.304 . S
C3808 O3846 1.435 . S
C3809 C3808 1.309 . S
C3809 C3810 1.476 . S
C3809 H3873 0.930 . S
C3810 C3809 1.476 . S
C3810 C3811 1.400 . S
C3810 C3814 1.567 . S
C3811 C3810 1.400 . S
C3811 C3812 1.373 . S
C3811 C3833 1.432 . S
C3812 C3811 1.373 . S
C3812 C3813 1.339 . S
C3812 C3815 1.530 . S
C3813 C3808 1.304 . S
C3813 C3812 1.339 . S
C3813 H3874 0.930 . S
C3814 C3810 1.567 . S
C3814 H3875 0.961 . S
C3814 H3876 0.960 . S
C3814 H3877 0.958 . S
C3815 C3812 1.530 . S
C3815 H3878 0.961 . S
C3815 H3879 0.960 . S
C3815 H3880 0.960 . S
C3816 C3817 1.530 . S
C3816 H3882 0.961 . S
C3816 H3883 0.961 . S
C3816 H3884 0.959 . S
C3817 C3816 1.530 . S
C3817 O3845 1.412 . S
C3817 H3881 0.980 . S
C3818 C3819 1.288 . S
C3818 C3823 1.377 . S
C3818 O3845 1.393 . S
C3819 C3818 1.288 . S
C3819 C3820 1.369 . S
C3819 H3885 0.932 . S
C3820 C3819 1.369 . S
C3820 C3821 1.398 . S
C3820 C3824 1.527 . S
C3821 C3820 1.398 . S
C3821 C3822 1.380 . S
C3821 C3835 1.497 . S
C3822 C3821 1.380 . S
C3822 C3823 1.383 . S
C3822 C3825 1.603 . S
C3823 C3818 1.377 . S
C3823 C3822 1.383 . S
C3823 H3886 0.929 . S
C3824 C3820 1.527 . S
C3824 H3887 0.961 . S
C3824 H3888 0.959 . S
C3824 H3889 0.959 . S
C3825 C3822 1.603 . S
C3825 H3890 0.960 . S
C3825 H3891 0.962 . S
C3825 H3892 0.961 . S
C3826 C3793 1.587 . S
C3826 C3827 1.360 . S
C3826 C3839 1.412 . S
C3827 C3826 1.360 . S
C3827 C3828 1.365 . S
C3827 H3893 0.929 . S
C3828 C3803 1.553 . S
C3828 C3827 1.365 . S
C3828 C3829 1.404 . S
C3829 C3828 1.404 . S
C3829 C3830 1.395 . S
C3829 C3840 1.451 . S
C3830 C3829 1.395 . S
C3830 C3831 1.322 . S
C3830 H3894 0.930 . S
C3831 C3830 1.322 . S
C3831 C3832 1.459 . S
C3831 H3895 0.929 . S
C3832 C3831 1.459 . S
C3832 C3833 1.445 . S
C3832 C3841 1.395 . S
C3833 C3811 1.432 . S
C3833 C3832 1.445 . S
C3833 C3834 1.370 . S
C3834 C3833 1.370 . S
C3834 C3835 1.438 . S
C3834 H3896 0.930 . S
C3835 C3821 1.497 . S
C3835 C3834 1.438 . S
C3835 C3836 1.360 . S
C3836 C3835 1.360 . S
C3836 C3837 1.401 . S
C3836 C3841 1.446 . S
C3837 C3836 1.401 . S
C3837 C3838 1.347 . S
C3837 H3897 0.929 . S
C3838 C3837 1.347 . S
C3838 C3839 1.455 . S
C3838 H3898 0.930 . S
C3839 C3826 1.412 . S
C3839 C3838 1.455 . S
C3839 C3840 1.331 . S
C3840 C3829 1.451 . S
C3840 C3839 1.331 . S
C3840 C3841 1.497 . S
C3841 C3832 1.395 . S
C3841 C3836 1.446 . S
C3841 C3840 1.497 . S
C3842 C3843 1.582 . S
C3842 H3899 0.962 . S
C3842 H3900 0.959 . S
C3842 H3901 0.958 . S
C3843 C3842 1.582 . S
C3843 O3846 1.458 . S
C3843 H3872 0.980 . S
O3844 C3789 1.426 . S
O3844 C3790 1.334 . S
O3845 C3817 1.412 . S
O3845 C3818 1.393 . S
O3846 C3808 1.435 . S
O3846 C3843 1.458 . S
O3847 C3799 1.468 . S
O3847 C3800 1.408 . S
H3848 C3789 0.980 . S
H3849 C3788 0.959 . S
H3850 C3788 0.959 . S
H3851 C3788 0.960 . S
H3852 C3791 0.929 . S
H3853 C3795 0.929 . S
H3854 C3796 0.959 . S
H3855 C3796 0.961 . S
H3856 C3796 0.961 . S
H3857 C3797 0.960 . S
H3858 C3797 0.960 . S
H3859 C3797 0.961 . S
H3860 C3799 0.980 . S
H3861 C3798 0.961 . S
H3862 C3798 0.960 . S
H3863 C3798 0.959 . S
H3864 C3801 0.930 . S
H3865 C3805 0.931 . S
H3866 C3806 0.959 . S
H3867 C3806 0.961 . S
H3868 C3806 0.959 . S
H3869 C3807 0.960 . S
H3870 C3807 0.960 . S
H3871 C3807 0.960 . S
H3872 C3843 0.980 . S
H3873 C3809 0.930 . S
H3874 C3813 0.930 . S
H3875 C3814 0.961 . S
H3876 C3814 0.960 . S
H3877 C3814 0.958 . S
H3878 C3815 0.961 . S
H3879 C3815 0.960 . S
H3880 C3815 0.960 . S
H3881 C3817 0.980 . S
H3882 C3816 0.961 . S
H3883 C3816 0.961 . S
H3884 C3816 0.959 . S
H3885 C3819 0.932 . S
H3886 C3823 0.929 . S
H3887 C3824 0.961 . S
H3888 C3824 0.959 . S
H3889 C3824 0.959 . S
H3890 C3825 0.960 . S
H3891 C3825 0.962 . S
H3892 C3825 0.961 . S
H3893 C3827 0.929 . S
H3894 C3830 0.930 . S
H3895 C3831 0.929 . S
H3896 C3834 0.930 . S
H3897 C3837 0.929 . S
H3898 C3838 0.930 . S
H3899 C3842 0.962 . S
H3900 C3842 0.959 . S
H3901 C3842 0.958 . S
C3902 C3903 1.560 . S
C3902 H3963 0.959 . S
C3902 H3964 0.959 . S
C3902 H3965 0.960 . S
C3903 C3902 1.560 . S
C3903 O3958 1.426 . S
C3903 H3962 0.980 . S
C3904 C3905 1.407 . S
C3904 C3909 1.418 . S
C3904 O3958 1.334 . S
C3905 C3904 1.407 . S
C3905 C3906 1.360 . S
C3905 H3966 0.929 . S
C3906 C3905 1.360 . S
C3906 C3907 1.401 . S
C3906 C3910 1.527 . S
C3907 C3906 1.401 . S
C3907 C3908 1.405 . S
C3907 C3940 1.587 . S
C3908 C3907 1.405 . S
C3908 C3909 1.332 . S
C3908 C3911 1.496 . S
C3909 C3904 1.418 . S
C3909 C3908 1.332 . S
C3909 H3967 0.929 . S
C3910 C3906 1.527 . S
C3910 H3968 0.959 . S
C3910 H3969 0.961 . S
C3910 H3970 0.961 . S
C3911 C3908 1.496 . S
C3911 H3971 0.960 . S
C3911 H3972 0.960 . S
C3911 H3973 0.961 . S
C3912 C3913 1.517 . S
C3912 H3975 0.961 . S
C3912 H3976 0.960 . S
C3912 H3977 0.959 . S
C3913 C3912 1.517 . S
C3913 O3961 1.468 . S
C3913 H3974 0.980 . S
C3914 C3915 1.349 . S
C3914 C3919 1.367 . S
C3914 O3961 1.408 . S
C3915 C3914 1.349 . S
C3915 C3916 1.407 . S
C3915 H3978 0.930 . S
C3916 C3915 1.407 . S
C3916 C3917 1.449 . S
C3916 C3920 1.535 . S
C3917 C3916 1.449 . S
C3917 C3918 1.384 . S
C3917 C3942 1.553 . S
C3918 C3917 1.384 . S
C3918 C3919 1.364 . S
C3918 C3921 1.450 . S
C3919 C3914 1.367 . S
C3919 C3918 1.364 . S
C3919 H3979 0.931 . S
C3920 C3916 1.535 . S
C3920 H3980 0.959 . S
C3920 H3981 0.961 . S
C3920 H3982 0.959 . S
C3921 C3918 1.450 . S
C3921 H3983 0.960 . S
C3921 H3984 0.960 . S
C3921 H3985 0.960 . S
C3922 C3923 1.309 . S
C3922 C3927 1.304 . S
C3922 O3960 1.435 . S
C3923 C3922 1.309 . S
C3923 C3924 1.476 . S
C3923 H3987 0.930 . S
C3924 C3923 1.476 . S
C3924 C3925 1.400 . S
C3924 C3928 1.567 . S
C3925 C3924 1.400 . S
C3925 C3926 1.373 . S
C3925 C3947 1.432 . S
C3926 C3925 1.373 . S
C3926 C3927 1.339 . S
C3926 C3929 1.530 . S
C3927 C3922 1.304 . S
C3927 C3926 1.339 . S
C3927 H3988 0.930 . S
C3928 C3924 1.567 . S
C3928 H3989 0.961 . S
C3928 H3990 0.960 . S
C3928 H3991 0.958 . S
C3929 C3926 1.530 . S
C3929 H3992 0.961 . S
C3929 H3993 0.960 . S
C3929 H3994 0.960 . S
C3930 C3931 1.530 . S
C3930 H3996 0.961 . S
C3930 H3997 0.961 . S
C3930 H3998 0.959 . S
C3931 C3930 1.530 . S
C3931 O3959 1.412 . S
C3931 H3995 0.980 . S
C3932 C3933 1.288 . S
C3932 C3937 1.377 . S
C3932 O3959 1.393 . S
C3933 C3932 1.288 . S
C3933 C3934 1.369 . S
C3933 H3999 0.932 . S
C3934 C3933 1.369 . S
C3934 C3935 1.398 . S
C3934 C3938 1.527 . S
C3935 C3934 1.398 . S
C3935 C3936 1.380 . S
C3935 C3949 1.497 . S
C3936 C3935 1.380 . S
C3936 C3937 1.383 . S
C3936 C3939 1.603 . S
C3937 C3932 1.377 . S
C3937 C3936 1.383 . S
C3937 H4000 0.929 . S
C3938 C3934 1.527 . S
C3938 H4001 0.961 . S
C3938 H4002 0.959 . S
C3938 H4003 0.959 . S
C3939 C3936 1.603 . S
C3939 H4004 0.960 . S
C3939 H4005 0.962 . S
C3939 H4006 0.961 . S
C3940 C3907 1.587 . S
C3940 C3941 1.360 . S
C3940 C3953 1.412 . S
C3941 C3940 1.360 . S
C3941 C3942 1.365 . S
C3941 H4007 0.929 . S
C3942 C3917 1.553 . S
C3942 C3941 1.365 . S
C3942 C3943 1.404 . S
C3943 C3942 1.404 . S
C3943 C3944 1.395 . S
C3943 C3954 1.451 . S
C3944 C3943 1.395 . S
C3944 C3945 1.322 . S
C3944 H4008 0.930 . S
C3945 C3944 1.322 . S
C3945 C3946 1.459 . S
C3945 H4009 0.929 . S
C3946 C3945 1.459 . S
C3946 C3947 1.445 . S
C3946 C3955 1.395 . S
C3947 C3925 1.432 . S
C3947 C3946 1.445 . S
C3947 C3948 1.370 . S
C3948 C3947 1.370 . S
C3948 C3949 1.438 . S
C3948 H4010 0.930 . S
C3949 C3935 1.497 . S
C3949 C3948 1.438 . S
C3949 C3950 1.360 . S
C3950 C3949 1.360 . S
C3950 C3951 1.401 . S
C3950 C3955 1.446 . S
C3951 C3950 1.401 . S
C3951 C3952 1.347 . S
C3951 H4011 0.929 . S
C3952 C3951 1.347 . S
C3952 C3953 1.455 . S
C3952 H4012 0.930 . S
C3953 C3940 1.412 . S
C3953 C3952 1.455 . S
C3953 C3954 1.331 . S
C3954 C3943 1.451 . S
C3954 C3953 1.331 . S
C3954 C3955 1.497 . S
C3955 C3946 1.395 . S
C3955 C3950 1.446 . S
C3955 C3954 1.497 . S
C3956 C3957 1.582 . S
C3956 H4013 0.962 . S
C3956 H4014 0.959 . S
C3956 H4015 0.958 . S
C3957 C3956 1.582 . S
C3957 O3960 1.458 . S
C3957 H3986 0.980 . S
O3958 C3903 1.426 . S
O3958 C3904 1.334 . S
O3959 C3931 1.412 . S
O3959 C3932 1.393 . S
O3960 C3922 1.435 . S
O3960 C3957 1.458 . S
O3961 C3913 1.468 . S
O3961 C3914 1.408 . S
H3962 C3903 0.980 . S
H3963 C3902 0.959 . S
H3964 C3902 0.959 . S
H3965 C3902 0.960 . S
H3966 C3905 0.929 . S
H3967 C3909 0.929 . S
H3968 C3910 0.959 . S
H3969 C3910 0.961 . S
H3970 C3910 0.961 . S
H3971 C3911 0.960 . S
H3972 C3911 0.960 . S
H3973 C3911 0.961 . S
H3974 C3913 0.980 . S
H3975 C3912 0.961 . S
H3976 C3912 0.960 . S
H3977 C3912 0.959 . S
H3978 C3915 0.930 . S
H3979 C3919 0.931 . S
H3980 C3920 0.959 . S
H3981 C3920 0.961 . S
H3982 C3920 0.959 . S
H3983 C3921 0.960 . S
H3984 C3921 0.960 . S
H3985 C3921 0.960 . S
H3986 C3957 0.980 . S
H3987 C3923 0.930 . S
H3988 C3927 0.930 . S
H3989 C3928 0.961 . S
H3990 C3928 0.960 . S
H3991 C3928 0.958 . S
H3992 C3929 0.961 . S
H3993 C3929 0.960 . S
H3994 C3929 0.960 . S
H3995 C3931 0.980 . S
H3996 C3930 0.961 . S
H3997 C3930 0.961 . S
H3998 C3930 0.959 . S
H3999 C3933 0.932 . S
H4000 C3937 0.929 . S
H4001 C3938 0.961 . S
H4002 C3938 0.959 . S
H4003 C3938 0.959 . S
H4004 C3939 0.960 . S
H4005 C3939 0.962 . S
H4006 C3939 0.961 . S
H4007 C3941 0.929 . S
H4008 C3944 0.930 . S
H4009 C3945 0.929 . S
H4010 C3948 0.930 . S
H4011 C3951 0.929 . S
H4012 C3952 0.930 . S
H4013 C3956 0.962 . S
H4014 C3956 0.959 . S
H4015 C3956 0.958 . S
C4016 C4017 1.391 . S
C4016 C4018 1.394 . S
C4016 H4032 0.931 . S
C4017 C4016 1.391 . S
C4017 C4021 1.376 . S
C4018 C4016 1.394 . S
C4018 C4019 1.369 . S
C4018 C4022 1.531 . S
C4019 C4018 1.369 . S
C4019 C4020 1.410 . S
C4019 C4027 1.503 . S
C4020 C4019 1.410 . S
C4020 C4021 1.392 . S
C4020 C4023 1.511 . S
C4021 C4017 1.376 . S
C4021 C4020 1.392 . S
C4021 H4033 0.929 . S
C4022 C4018 1.531 . S
C4022 H4034 0.960 . S
C4022 H4035 0.962 . S
C4022 H4036 0.960 . S
C4023 C4020 1.511 . S
C4023 H4037 0.961 . S
C4023 H4038 0.961 . S
C4023 H4039 0.961 . S
C4024 C4025 1.370 . S
C4024 C4026 1.363 . S
C4024 H4040 0.931 . S
C4025 C4024 1.370 . S
C4025 C4029 1.408 . S
C4026 C4024 1.363 . S
C4026 C4027 1.370 . S
C4026 C4030 1.524 . S
C4027 C4019 1.503 . S
C4027 C4026 1.370 . S
C4027 C4028 1.403 . S
C4028 C4027 1.403 . S
C4028 C4029 1.404 . S
C4028 C4031 1.539 . S
C4029 C4025 1.408 . S
C4029 C4028 1.404 . S
C4029 H4041 0.930 . S
C4030 C4026 1.524 . S
C4030 H4042 0.956 . S
C4030 H4043 0.961 . S
C4030 H4044 0.961 . S
C4031 C4028 1.539 . S
C4031 H4045 0.958 . S
C4031 H4046 0.961 . S
C4031 H4047 0.960 . S
H4032 C4016 0.931 . S
H4033 C4021 0.929 . S
H4034 C4022 0.960 . S
H4035 C4022 0.962 . S
H4036 C4022 0.960 . S
H4037 C4023 0.961 . S
H4038 C4023 0.961 . S
H4039 C4023 0.961 . S
H4040 C4024 0.931 . S
H4041 C4029 0.930 . S
H4042 C4030 0.956 . S
H4043 C4030 0.961 . S
H4044 C4030 0.961 . S
H4045 C4031 0.958 . S
H4046 C4031 0.961 . S
H4047 C4031 0.960 . S
C4048 C4049 1.391 . S
C4048 C4050 1.394 . S
C4048 H4064 0.931 . S
C4049 C4048 1.391 . S
C4049 C4053 1.376 . S
C4050 C4048 1.394 . S
C4050 C4051 1.369 . S
C4050 C4054 1.531 . S
C4051 C4050 1.369 . S
C4051 C4052 1.410 . S
C4051 C4059 1.503 . S
C4052 C4051 1.410 . S
C4052 C4053 1.392 . S
C4052 C4055 1.511 . S
C4053 C4049 1.376 . S
C4053 C4052 1.392 . S
C4053 H4065 0.929 . S
C4054 C4050 1.531 . S
C4054 H4066 0.960 . S
C4054 H4067 0.962 . S
C4054 H4068 0.960 . S
C4055 C4052 1.511 . S
C4055 H4069 0.961 . S
C4055 H4070 0.961 . S
C4055 H4071 0.961 . S
C4056 C4057 1.370 . S
C4056 C4058 1.363 . S
C4056 H4072 0.931 . S
C4057 C4056 1.370 . S
C4057 C4061 1.408 . S
C4058 C4056 1.363 . S
C4058 C4059 1.370 . S
C4058 C4062 1.524 . S
C4059 C4051 1.503 . S
C4059 C4058 1.370 . S
C4059 C4060 1.403 . S
C4060 C4059 1.403 . S
C4060 C4061 1.404 . S
C4060 C4063 1.539 . S
C4061 C4057 1.408 . S
C4061 C4060 1.404 . S
C4061 H4073 0.930 . S
C4062 C4058 1.524 . S
C4062 H4074 0.956 . S
C4062 H4075 0.961 . S
C4062 H4076 0.961 . S
C4063 C4060 1.539 . S
C4063 H4077 0.958 . S
C4063 H4078 0.961 . S
C4063 H4079 0.960 . S
H4064 C4048 0.931 . S
H4065 C4053 0.929 . S
H4066 C4054 0.960 . S
H4067 C4054 0.962 . S
H4068 C4054 0.960 . S
H4069 C4055 0.961 . S
H4070 C4055 0.961 . S
H4071 C4055 0.961 . S
H4072 C4056 0.931 . S
H4073 C4061 0.930 . S
H4074 C4062 0.956 . S
H4075 C4062 0.961 . S
H4076 C4062 0.961 . S
H4077 C4063 0.958 . S
H4078 C4063 0.961 . S
H4079 C4063 0.960 . S
C4080 C4081 1.391 . S
C4080 C4082 1.394 . S
C4080 H4096 0.931 . S
C4081 C4080 1.391 . S
C4081 C4085 1.376 . S
C4082 C4080 1.394 . S
C4082 C4083 1.369 . S
C4082 C4086 1.531 . S
C4083 C4082 1.369 . S
C4083 C4084 1.410 . S
C4083 C4091 1.503 . S
C4084 C4083 1.410 . S
C4084 C4085 1.392 . S
C4084 C4087 1.511 . S
C4085 C4081 1.376 . S
C4085 C4084 1.392 . S
C4085 H4097 0.929 . S
C4086 C4082 1.531 . S
C4086 H4098 0.960 . S
C4086 H4099 0.962 . S
C4086 H4100 0.960 . S
C4087 C4084 1.511 . S
C4087 H4101 0.961 . S
C4087 H4102 0.961 . S
C4087 H4103 0.961 . S
C4088 C4089 1.370 . S
C4088 C4090 1.363 . S
C4088 H4104 0.931 . S
C4089 C4088 1.370 . S
C4089 C4093 1.408 . S
C4090 C4088 1.363 . S
C4090 C4091 1.370 . S
C4090 C4094 1.524 . S
C4091 C4083 1.503 . S
C4091 C4090 1.370 . S
C4091 C4092 1.403 . S
C4092 C4091 1.403 . S
C4092 C4093 1.404 . S
C4092 C4095 1.539 . S
C4093 C4089 1.408 . S
C4093 C4092 1.404 . S
C4093 H4105 0.930 . S
C4094 C4090 1.524 . S
C4094 H4106 0.956 . S
C4094 H4107 0.961 . S
C4094 H4108 0.961 . S
C4095 C4092 1.539 . S
C4095 H4109 0.958 . S
C4095 H4110 0.961 . S
C4095 H4111 0.960 . S
H4096 C4080 0.931 . S
H4097 C4085 0.929 . S
H4098 C4086 0.960 . S
H4099 C4086 0.962 . S
H4100 C4086 0.960 . S
H4101 C4087 0.961 . S
H4102 C4087 0.961 . S
H4103 C4087 0.961 . S
H4104 C4088 0.931 . S
H4105 C4093 0.930 . S
H4106 C4094 0.956 . S
H4107 C4094 0.961 . S
H4108 C4094 0.961 . S
H4109 C4095 0.958 . S
H4110 C4095 0.961 . S
H4111 C4095 0.960 . S
C4112 C4113 1.391 . S
C4112 C4114 1.394 . S
C4112 H4128 0.931 . S
C4113 C4112 1.391 . S
C4113 C4117 1.376 . S
C4114 C4112 1.394 . S
C4114 C4115 1.369 . S
C4114 C4118 1.531 . S
C4115 C4114 1.369 . S
C4115 C4116 1.410 . S
C4115 C4123 1.503 . S
C4116 C4115 1.410 . S
C4116 C4117 1.392 . S
C4116 C4119 1.511 . S
C4117 C4113 1.376 . S
C4117 C4116 1.392 . S
C4117 H4129 0.929 . S
C4118 C4114 1.531 . S
C4118 H4130 0.960 . S
C4118 H4131 0.962 . S
C4118 H4132 0.960 . S
C4119 C4116 1.511 . S
C4119 H4133 0.961 . S
C4119 H4134 0.961 . S
C4119 H4135 0.961 . S
C4120 C4121 1.370 . S
C4120 C4122 1.363 . S
C4120 H4136 0.931 . S
C4121 C4120 1.370 . S
C4121 C4125 1.408 . S
C4122 C4120 1.363 . S
C4122 C4123 1.370 . S
C4122 C4126 1.524 . S
C4123 C4115 1.503 . S
C4123 C4122 1.370 . S
C4123 C4124 1.403 . S
C4124 C4123 1.403 . S
C4124 C4125 1.404 . S
C4124 C4127 1.539 . S
C4125 C4121 1.408 . S
C4125 C4124 1.404 . S
C4125 H4137 0.930 . S
C4126 C4122 1.524 . S
C4126 H4138 0.956 . S
C4126 H4139 0.961 . S
C4126 H4140 0.961 . S
C4127 C4124 1.539 . S
C4127 H4141 0.958 . S
C4127 H4142 0.961 . S
C4127 H4143 0.960 . S
H4128 C4112 0.931 . S
H4129 C4117 0.929 . S
H4130 C4118 0.960 . S
H4131 C4118 0.962 . S
H4132 C4118 0.960 . S
H4133 C4119 0.961 . S
H4134 C4119 0.961 . S
H4135 C4119 0.961 . S
H4136 C4120 0.931 . S
H4137 C4125 0.930 . S
H4138 C4126 0.956 . S
H4139 C4126 0.961 . S
H4140 C4126 0.961 . S
H4141 C4127 0.958 . S
H4142 C4127 0.961 . S
H4143 C4127 0.960 . S
C4144 C4145 1.391 . S
C4144 C4146 1.394 . S
C4144 H4160 0.931 . S
C4145 C4144 1.391 . S
C4145 C4149 1.376 . S
C4146 C4144 1.394 . S
C4146 C4147 1.369 . S
C4146 C4150 1.531 . S
C4147 C4146 1.369 . S
C4147 C4148 1.410 . S
C4147 C4155 1.503 . S
C4148 C4147 1.410 . S
C4148 C4149 1.392 . S
C4148 C4151 1.511 . S
C4149 C4145 1.376 . S
C4149 C4148 1.392 . S
C4149 H4161 0.929 . S
C4150 C4146 1.531 . S
C4150 H4162 0.960 . S
C4150 H4163 0.962 . S
C4150 H4164 0.960 . S
C4151 C4148 1.511 . S
C4151 H4165 0.961 . S
C4151 H4166 0.961 . S
C4151 H4167 0.961 . S
C4152 C4153 1.370 . S
C4152 C4154 1.363 . S
C4152 H4168 0.931 . S
C4153 C4152 1.370 . S
C4153 C4157 1.408 . S
C4154 C4152 1.363 . S
C4154 C4155 1.370 . S
C4154 C4158 1.524 . S
C4155 C4147 1.503 . S
C4155 C4154 1.370 . S
C4155 C4156 1.403 . S
C4156 C4155 1.403 . S
C4156 C4157 1.404 . S
C4156 C4159 1.539 . S
C4157 C4153 1.408 . S
C4157 C4156 1.404 . S
C4157 H4169 0.930 . S
C4158 C4154 1.524 . S
C4158 H4170 0.956 . S
C4158 H4171 0.961 . S
C4158 H4172 0.961 . S
C4159 C4156 1.539 . S
C4159 H4173 0.958 . S
C4159 H4174 0.961 . S
C4159 H4175 0.960 . S
H4160 C4144 0.931 . S
H4161 C4149 0.929 . S
H4162 C4150 0.960 . S
H4163 C4150 0.962 . S
H4164 C4150 0.960 . S
H4165 C4151 0.961 . S
H4166 C4151 0.961 . S
H4167 C4151 0.961 . S
H4168 C4152 0.931 . S
H4169 C4157 0.930 . S
H4170 C4158 0.956 . S
H4171 C4158 0.961 . S
H4172 C4158 0.961 . S
H4173 C4159 0.958 . S
H4174 C4159 0.961 . S
H4175 C4159 0.960 . S
C4176 C4177 1.391 . S
C4176 C4178 1.394 . S
C4176 H4192 0.931 . S
C4177 C4176 1.391 . S
C4177 C4181 1.376 . S
C4178 C4176 1.394 . S
C4178 C4179 1.369 . S
C4178 C4182 1.531 . S
C4179 C4178 1.369 . S
C4179 C4180 1.410 . S
C4179 C4187 1.503 . S
C4180 C4179 1.410 . S
C4180 C4181 1.392 . S
C4180 C4183 1.511 . S
C4181 C4177 1.376 . S
C4181 C4180 1.392 . S
C4181 H4193 0.929 . S
C4182 C4178 1.531 . S
C4182 H4194 0.960 . S
C4182 H4195 0.962 . S
C4182 H4196 0.960 . S
C4183 C4180 1.511 . S
C4183 H4197 0.961 . S
C4183 H4198 0.961 . S
C4183 H4199 0.961 . S
C4184 C4185 1.370 . S
C4184 C4186 1.363 . S
C4184 H4200 0.931 . S
C4185 C4184 1.370 . S
C4185 C4189 1.408 . S
C4186 C4184 1.363 . S
C4186 C4187 1.370 . S
C4186 C4190 1.524 . S
C4187 C4179 1.503 . S
C4187 C4186 1.370 . S
C4187 C4188 1.403 . S
C4188 C4187 1.403 . S
C4188 C4189 1.404 . S
C4188 C4191 1.539 . S
C4189 C4185 1.408 . S
C4189 C4188 1.404 . S
C4189 H4201 0.930 . S
C4190 C4186 1.524 . S
C4190 H4202 0.956 . S
C4190 H4203 0.961 . S
C4190 H4204 0.961 . S
C4191 C4188 1.539 . S
C4191 H4205 0.958 . S
C4191 H4206 0.961 . S
C4191 H4207 0.960 . S
H4192 C4176 0.931 . S
H4193 C4181 0.929 . S
H4194 C4182 0.960 . S
H4195 C4182 0.962 . S
H4196 C4182 0.960 . S
H4197 C4183 0.961 . S
H4198 C4183 0.961 . S
H4199 C4183 0.961 . S
H4200 C4184 0.931 . S
H4201 C4189 0.930 . S
H4202 C4190 0.956 . S
H4203 C4190 0.961 . S
H4204 C4190 0.961 . S
H4205 C4191 0.958 . S
H4206 C4191 0.961 . S
H4207 C4191 0.960 . S
C4208 C4209 1.391 . S
C4208 C4210 1.394 . S
C4208 H4224 0.931 . S
C4209 C4208 1.391 . S
C4209 C4213 1.376 . S
C4210 C4208 1.394 . S
C4210 C4211 1.369 . S
C4210 C4214 1.531 . S
C4211 C4210 1.369 . S
C4211 C4212 1.410 . S
C4211 C4219 1.503 . S
C4212 C4211 1.410 . S
C4212 C4213 1.392 . S
C4212 C4215 1.511 . S
C4213 C4209 1.376 . S
C4213 C4212 1.392 . S
C4213 H4225 0.929 . S
C4214 C4210 1.531 . S
C4214 H4226 0.960 . S
C4214 H4227 0.962 . S
C4214 H4228 0.960 . S
C4215 C4212 1.511 . S
C4215 H4229 0.961 . S
C4215 H4230 0.961 . S
C4215 H4231 0.961 . S
C4216 C4217 1.370 . S
C4216 C4218 1.363 . S
C4216 H4232 0.931 . S
C4217 C4216 1.370 . S
C4217 C4221 1.408 . S
C4218 C4216 1.363 . S
C4218 C4219 1.370 . S
C4218 C4222 1.524 . S
C4219 C4211 1.503 . S
C4219 C4218 1.370 . S
C4219 C4220 1.403 . S
C4220 C4219 1.403 . S
C4220 C4221 1.404 . S
C4220 C4223 1.539 . S
C4221 C4217 1.408 . S
C4221 C4220 1.404 . S
C4221 H4233 0.930 . S
C4222 C4218 1.524 . S
C4222 H4234 0.956 . S
C4222 H4235 0.961 . S
C4222 H4236 0.961 . S
C4223 C4220 1.539 . S
C4223 H4237 0.958 . S
C4223 H4238 0.961 . S
C4223 H4239 0.960 . S
H4224 C4208 0.931 . S
H4225 C4213 0.929 . S
H4226 C4214 0.960 . S
H4227 C4214 0.962 . S
H4228 C4214 0.960 . S
H4229 C4215 0.961 . S
H4230 C4215 0.961 . S
H4231 C4215 0.961 . S
H4232 C4216 0.931 . S
H4233 C4221 0.930 . S
H4234 C4222 0.956 . S
H4235 C4222 0.961 . S
H4236 C4222 0.961 . S
H4237 C4223 0.958 . S
H4238 C4223 0.961 . S
H4239 C4223 0.960 . S
C4240 C4241 1.391 . S
C4240 C4242 1.394 . S
C4240 H4256 0.931 . S
C4241 C4240 1.391 . S
C4241 C4245 1.376 . S
C4242 C4240 1.394 . S
C4242 C4243 1.369 . S
C4242 C4246 1.531 . S
C4243 C4242 1.369 . S
C4243 C4244 1.410 . S
C4243 C4251 1.503 . S
C4244 C4243 1.410 . S
C4244 C4245 1.392 . S
C4244 C4247 1.511 . S
C4245 C4241 1.376 . S
C4245 C4244 1.392 . S
C4245 H4257 0.929 . S
C4246 C4242 1.531 . S
C4246 H4258 0.960 . S
C4246 H4259 0.962 . S
C4246 H4260 0.960 . S
C4247 C4244 1.511 . S
C4247 H4261 0.961 . S
C4247 H4262 0.961 . S
C4247 H4263 0.961 . S
C4248 C4249 1.370 . S
C4248 C4250 1.363 . S
C4248 H4264 0.931 . S
C4249 C4248 1.370 . S
C4249 C4253 1.408 . S
C4250 C4248 1.363 . S
C4250 C4251 1.370 . S
C4250 C4254 1.524 . S
C4251 C4243 1.503 . S
C4251 C4250 1.370 . S
C4251 C4252 1.403 . S
C4252 C4251 1.403 . S
C4252 C4253 1.404 . S
C4252 C4255 1.539 . S
C4253 C4249 1.408 . S
C4253 C4252 1.404 . S
C4253 H4265 0.930 . S
C4254 C4250 1.524 . S
C4254 H4266 0.956 . S
C4254 H4267 0.961 . S
C4254 H4268 0.961 . S
C4255 C4252 1.539 . S
C4255 H4269 0.958 . S
C4255 H4270 0.961 . S
C4255 H4271 0.960 . S
H4256 C4240 0.931 . S
H4257 C4245 0.929 . S
H4258 C4246 0.960 . S
H4259 C4246 0.962 . S
H4260 C4246 0.960 . S
H4261 C4247 0.961 . S
H4262 C4247 0.961 . S
H4263 C4247 0.961 . S
H4264 C4248 0.931 . S
H4265 C4253 0.930 . S
H4266 C4254 0.956 . S
H4267 C4254 0.961 . S
H4268 C4254 0.961 . S
H4269 C4255 0.958 . S
H4270 C4255 0.961 . S
H4271 C4255 0.960 . S
C4272 C4273 1.391 . S
C4272 C4274 1.394 . S
C4272 H4288 0.931 . S
C4273 C4272 1.391 . S
C4273 C4277 1.376 . S
C4274 C4272 1.394 . S
C4274 C4275 1.369 . S
C4274 C4278 1.531 . S
C4275 C4274 1.369 . S
C4275 C4276 1.410 . S
C4275 C4283 1.503 . S
C4276 C4275 1.410 . S
C4276 C4277 1.392 . S
C4276 C4279 1.511 . S
C4277 C4273 1.376 . S
C4277 C4276 1.392 . S
C4277 H4289 0.929 . S
C4278 C4274 1.531 . S
C4278 H4290 0.960 . S
C4278 H4291 0.962 . S
C4278 H4292 0.960 . S
C4279 C4276 1.511 . S
C4279 H4293 0.961 . S
C4279 H4294 0.961 . S
C4279 H4295 0.961 . S
C4280 C4281 1.370 . S
C4280 C4282 1.363 . S
C4280 H4296 0.931 . S
C4281 C4280 1.370 . S
C4281 C4285 1.408 . S
C4282 C4280 1.363 . S
C4282 C4283 1.370 . S
C4282 C4286 1.524 . S
C4283 C4275 1.503 . S
C4283 C4282 1.370 . S
C4283 C4284 1.403 . S
C4284 C4283 1.403 . S
C4284 C4285 1.404 . S
C4284 C4287 1.539 . S
C4285 C4281 1.408 . S
C4285 C4284 1.404 . S
C4285 H4297 0.930 . S
C4286 C4282 1.524 . S
C4286 H4298 0.956 . S
C4286 H4299 0.961 . S
C4286 H4300 0.961 . S
C4287 C4284 1.539 . S
C4287 H4301 0.958 . S
C4287 H4302 0.961 . S
C4287 H4303 0.960 . S
H4288 C4272 0.931 . S
H4289 C4277 0.929 . S
H4290 C4278 0.960 . S
H4291 C4278 0.962 . S
H4292 C4278 0.960 . S
H4293 C4279 0.961 . S
H4294 C4279 0.961 . S
H4295 C4279 0.961 . S
H4296 C4280 0.931 . S
H4297 C4285 0.930 . S
H4298 C4286 0.956 . S
H4299 C4286 0.961 . S
H4300 C4286 0.961 . S
H4301 C4287 0.958 . S
H4302 C4287 0.961 . S
H4303 C4287 0.960 . S
C4304 C4305 1.391 . S
C4304 C4306 1.394 . S
C4304 H4320 0.931 . S
C4305 C4304 1.391 . S
C4305 C4309 1.376 . S
C4306 C4304 1.394 . S
C4306 C4307 1.369 . S
C4306 C4310 1.531 . S
C4307 C4306 1.369 . S
C4307 C4308 1.410 . S
C4307 C4315 1.503 . S
C4308 C4307 1.410 . S
C4308 C4309 1.392 . S
C4308 C4311 1.511 . S
C4309 C4305 1.376 . S
C4309 C4308 1.392 . S
C4309 H4321 0.929 . S
C4310 C4306 1.531 . S
C4310 H4322 0.960 . S
C4310 H4323 0.962 . S
C4310 H4324 0.960 . S
C4311 C4308 1.511 . S
C4311 H4325 0.961 . S
C4311 H4326 0.961 . S
C4311 H4327 0.961 . S
C4312 C4313 1.370 . S
C4312 C4314 1.363 . S
C4312 H4328 0.931 . S
C4313 C4312 1.370 . S
C4313 C4317 1.408 . S
C4314 C4312 1.363 . S
C4314 C4315 1.370 . S
C4314 C4318 1.524 . S
C4315 C4307 1.503 . S
C4315 C4314 1.370 . S
C4315 C4316 1.403 . S
C4316 C4315 1.403 . S
C4316 C4317 1.404 . S
C4316 C4319 1.539 . S
C4317 C4313 1.408 . S
C4317 C4316 1.404 . S
C4317 H4329 0.930 . S
C4318 C4314 1.524 . S
C4318 H4330 0.956 . S
C4318 H4331 0.961 . S
C4318 H4332 0.961 . S
C4319 C4316 1.539 . S
C4319 H4333 0.958 . S
C4319 H4334 0.961 . S
C4319 H4335 0.960 . S
H4320 C4304 0.931 . S
H4321 C4309 0.929 . S
H4322 C4310 0.960 . S
H4323 C4310 0.962 . S
H4324 C4310 0.960 . S
H4325 C4311 0.961 . S
H4326 C4311 0.961 . S
H4327 C4311 0.961 . S
H4328 C4312 0.931 . S
H4329 C4317 0.930 . S
H4330 C4318 0.956 . S
H4331 C4318 0.961 . S
H4332 C4318 0.961 . S
H4333 C4319 0.958 . S
H4334 C4319 0.961 . S
H4335 C4319 0.960 . S
C4336 C4337 1.391 . S
C4336 C4338 1.394 . S
C4336 H4352 0.931 . S
C4337 C4336 1.391 . S
C4337 C4341 1.376 . S
C4338 C4336 1.394 . S
C4338 C4339 1.369 . S
C4338 C4342 1.531 . S
C4339 C4338 1.369 . S
C4339 C4340 1.410 . S
C4339 C4347 1.503 . S
C4340 C4339 1.410 . S
C4340 C4341 1.392 . S
C4340 C4343 1.511 . S
C4341 C4337 1.376 . S
C4341 C4340 1.392 . S
C4341 H4353 0.929 . S
C4342 C4338 1.531 . S
C4342 H4354 0.960 . S
C4342 H4355 0.962 . S
C4342 H4356 0.960 . S
C4343 C4340 1.511 . S
C4343 H4357 0.961 . S
C4343 H4358 0.961 . S
C4343 H4359 0.961 . S
C4344 C4345 1.370 . S
C4344 C4346 1.363 . S
C4344 H4360 0.931 . S
C4345 C4344 1.370 . S
C4345 C4349 1.408 . S
C4346 C4344 1.363 . S
C4346 C4347 1.370 . S
C4346 C4350 1.524 . S
C4347 C4339 1.503 . S
C4347 C4346 1.370 . S
C4347 C4348 1.403 . S
C4348 C4347 1.403 . S
C4348 C4349 1.404 . S
C4348 C4351 1.539 . S
C4349 C4345 1.408 . S
C4349 C4348 1.404 . S
C4349 H4361 0.930 . S
C4350 C4346 1.524 . S
C4350 H4362 0.956 . S
C4350 H4363 0.961 . S
C4350 H4364 0.961 . S
C4351 C4348 1.539 . S
C4351 H4365 0.958 . S
C4351 H4366 0.961 . S
C4351 H4367 0.960 . S
H4352 C4336 0.931 . S
H4353 C4341 0.929 . S
H4354 C4342 0.960 . S
H4355 C4342 0.962 . S
H4356 C4342 0.960 . S
H4357 C4343 0.961 . S
H4358 C4343 0.961 . S
H4359 C4343 0.961 . S
H4360 C4344 0.931 . S
H4361 C4349 0.930 . S
H4362 C4350 0.956 . S
H4363 C4350 0.961 . S
H4364 C4350 0.961 . S
H4365 C4351 0.958 . S
H4366 C4351 0.961 . S
H4367 C4351 0.960 . S
C4368 C4369 1.391 . S
C4368 C4370 1.394 . S
C4368 H4384 0.931 . S
C4369 C4368 1.391 . S
C4369 C4373 1.376 . S
C4370 C4368 1.394 . S
C4370 C4371 1.369 . S
C4370 C4374 1.531 . S
C4371 C4370 1.369 . S
C4371 C4372 1.410 . S
C4371 C4379 1.503 . S
C4372 C4371 1.410 . S
C4372 C4373 1.392 . S
C4372 C4375 1.511 . S
C4373 C4369 1.376 . S
C4373 C4372 1.392 . S
C4373 H4385 0.929 . S
C4374 C4370 1.531 . S
C4374 H4386 0.960 . S
C4374 H4387 0.962 . S
C4374 H4388 0.960 . S
C4375 C4372 1.511 . S
C4375 H4389 0.961 . S
C4375 H4390 0.961 . S
C4375 H4391 0.961 . S
C4376 C4377 1.370 . S
C4376 C4378 1.363 . S
C4376 H4392 0.931 . S
C4377 C4376 1.370 . S
C4377 C4381 1.408 . S
C4378 C4376 1.363 . S
C4378 C4379 1.370 . S
C4378 C4382 1.524 . S
C4379 C4371 1.503 . S
C4379 C4378 1.370 . S
C4379 C4380 1.403 . S
C4380 C4379 1.403 . S
C4380 C4381 1.404 . S
C4380 C4383 1.539 . S
C4381 C4377 1.408 . S
C4381 C4380 1.404 . S
C4381 H4393 0.930 . S
C4382 C4378 1.524 . S
C4382 H4394 0.956 . S
C4382 H4395 0.961 . S
C4382 H4396 0.961 . S
C4383 C4380 1.539 . S
C4383 H4397 0.958 . S
C4383 H4398 0.961 . S
C4383 H4399 0.960 . S
H4384 C4368 0.931 . S
H4385 C4373 0.929 . S
H4386 C4374 0.960 . S
H4387 C4374 0.962 . S
H4388 C4374 0.960 . S
H4389 C4375 0.961 . S
H4390 C4375 0.961 . S
H4391 C4375 0.961 . S
H4392 C4376 0.931 . S
H4393 C4381 0.930 . S
H4394 C4382 0.956 . S
H4395 C4382 0.961 . S
H4396 C4382 0.961 . S
H4397 C4383 0.958 . S
H4398 C4383 0.961 . S
H4399 C4383 0.960 . S
C4400 C4401 1.391 . S
C4400 C4402 1.394 . S
C4400 H4416 0.931 . S
C4401 C4400 1.391 . S
C4401 C4405 1.376 . S
C4402 C4400 1.394 . S
C4402 C4403 1.369 . S
C4402 C4406 1.531 . S
C4403 C4402 1.369 . S
C4403 C4404 1.410 . S
C4403 C4411 1.503 . S
C4404 C4403 1.410 . S
C4404 C4405 1.392 . S
C4404 C4407 1.511 . S
C4405 C4401 1.376 . S
C4405 C4404 1.392 . S
C4405 H4417 0.929 . S
C4406 C4402 1.531 . S
C4406 H4418 0.960 . S
C4406 H4419 0.962 . S
C4406 H4420 0.960 . S
C4407 C4404 1.511 . S
C4407 H4421 0.961 . S
C4407 H4422 0.961 . S
C4407 H4423 0.961 . S
C4408 C4409 1.370 . S
C4408 C4410 1.363 . S
C4408 H4424 0.931 . S
C4409 C4408 1.370 . S
C4409 C4413 1.408 . S
C4410 C4408 1.363 . S
C4410 C4411 1.370 . S
C4410 C4414 1.524 . S
C4411 C4403 1.503 . S
C4411 C4410 1.370 . S
C4411 C4412 1.403 . S
C4412 C4411 1.403 . S
C4412 C4413 1.404 . S
C4412 C4415 1.539 . S
C4413 C4409 1.408 . S
C4413 C4412 1.404 . S
C4413 H4425 0.930 . S
C4414 C4410 1.524 . S
C4414 H4426 0.956 . S
C4414 H4427 0.961 . S
C4414 H4428 0.961 . S
C4415 C4412 1.539 . S
C4415 H4429 0.958 . S
C4415 H4430 0.961 . S
C4415 H4431 0.960 . S
H4416 C4400 0.931 . S
H4417 C4405 0.929 . S
H4418 C4406 0.960 . S
H4419 C4406 0.962 . S
H4420 C4406 0.960 . S
H4421 C4407 0.961 . S
H4422 C4407 0.961 . S
H4423 C4407 0.961 . S
H4424 C4408 0.931 . S
H4425 C4413 0.930 . S
H4426 C4414 0.956 . S
H4427 C4414 0.961 . S
H4428 C4414 0.961 . S
H4429 C4415 0.958 . S
H4430 C4415 0.961 . S
H4431 C4415 0.960 . S
C4432 C4433 1.391 . S
C4432 C4434 1.394 . S
C4432 H4448 0.931 . S
C4433 C4432 1.391 . S
C4433 C4437 1.376 . S
C4434 C4432 1.394 . S
C4434 C4435 1.369 . S
C4434 C4438 1.531 . S
C4435 C4434 1.369 . S
C4435 C4436 1.410 . S
C4435 C4443 1.503 . S
C4436 C4435 1.410 . S
C4436 C4437 1.392 . S
C4436 C4439 1.511 . S
C4437 C4433 1.376 . S
C4437 C4436 1.392 . S
C4437 H4449 0.929 . S
C4438 C4434 1.531 . S
C4438 H4450 0.960 . S
C4438 H4451 0.962 . S
C4438 H4452 0.960 . S
C4439 C4436 1.511 . S
C4439 H4453 0.961 . S
C4439 H4454 0.961 . S
C4439 H4455 0.961 . S
C4440 C4441 1.370 . S
C4440 C4442 1.363 . S
C4440 H4456 0.931 . S
C4441 C4440 1.370 . S
C4441 C4445 1.408 . S
C4442 C4440 1.363 . S
C4442 C4443 1.370 . S
C4442 C4446 1.524 . S
C4443 C4435 1.503 . S
C4443 C4442 1.370 . S
C4443 C4444 1.403 . S
C4444 C4443 1.403 . S
C4444 C4445 1.404 . S
C4444 C4447 1.539 . S
C4445 C4441 1.408 . S
C4445 C4444 1.404 . S
C4445 H4457 0.930 . S
C4446 C4442 1.524 . S
C4446 H4458 0.956 . S
C4446 H4459 0.961 . S
C4446 H4460 0.961 . S
C4447 C4444 1.539 . S
C4447 H4461 0.958 . S
C4447 H4462 0.961 . S
C4447 H4463 0.960 . S
H4448 C4432 0.931 . S
H4449 C4437 0.929 . S
H4450 C4438 0.960 . S
H4451 C4438 0.962 . S
H4452 C4438 0.960 . S
H4453 C4439 0.961 . S
H4454 C4439 0.961 . S
H4455 C4439 0.961 . S
H4456 C4440 0.931 . S
H4457 C4445 0.930 . S
H4458 C4446 0.956 . S
H4459 C4446 0.961 . S
H4460 C4446 0.961 . S
H4461 C4447 0.958 . S
H4462 C4447 0.961 . S
H4463 C4447 0.960 . S
C4464 C4465 1.391 . S
C4464 C4466 1.394 . S
C4464 H4480 0.931 . S
C4465 C4464 1.391 . S
C4465 C4469 1.376 . S
C4466 C4464 1.394 . S
C4466 C4467 1.369 . S
C4466 C4470 1.531 . S
C4467 C4466 1.369 . S
C4467 C4468 1.410 . S
C4467 C4475 1.503 . S
C4468 C4467 1.410 . S
C4468 C4469 1.392 . S
C4468 C4471 1.511 . S
C4469 C4465 1.376 . S
C4469 C4468 1.392 . S
C4469 H4481 0.929 . S
C4470 C4466 1.531 . S
C4470 H4482 0.960 . S
C4470 H4483 0.962 . S
C4470 H4484 0.960 . S
C4471 C4468 1.511 . S
C4471 H4485 0.961 . S
C4471 H4486 0.961 . S
C4471 H4487 0.961 . S
C4472 C4473 1.370 . S
C4472 C4474 1.363 . S
C4472 H4488 0.931 . S
C4473 C4472 1.370 . S
C4473 C4477 1.408 . S
C4474 C4472 1.363 . S
C4474 C4475 1.370 . S
C4474 C4478 1.524 . S
C4475 C4467 1.503 . S
C4475 C4474 1.370 . S
C4475 C4476 1.403 . S
C4476 C4475 1.403 . S
C4476 C4477 1.404 . S
C4476 C4479 1.539 . S
C4477 C4473 1.408 . S
C4477 C4476 1.404 . S
C4477 H4489 0.930 . S
C4478 C4474 1.524 . S
C4478 H4490 0.956 . S
C4478 H4491 0.961 . S
C4478 H4492 0.961 . S
C4479 C4476 1.539 . S
C4479 H4493 0.958 . S
C4479 H4494 0.961 . S
C4479 H4495 0.960 . S
H4480 C4464 0.931 . S
H4481 C4469 0.929 . S
H4482 C4470 0.960 . S
H4483 C4470 0.962 . S
H4484 C4470 0.960 . S
H4485 C4471 0.961 . S
H4486 C4471 0.961 . S
H4487 C4471 0.961 . S
H4488 C4472 0.931 . S
H4489 C4477 0.930 . S
H4490 C4478 0.956 . S
H4491 C4478 0.961 . S
H4492 C4478 0.961 . S
H4493 C4479 0.958 . S
H4494 C4479 0.961 . S
H4495 C4479 0.960 . S
C4496 C4497 1.391 . S
C4496 C4498 1.394 . S
C4496 H4512 0.931 . S
C4497 C4496 1.391 . S
C4497 C4501 1.376 . S
C4498 C4496 1.394 . S
C4498 C4499 1.369 . S
C4498 C4502 1.531 . S
C4499 C4498 1.369 . S
C4499 C4500 1.410 . S
C4499 C4507 1.503 . S
C4500 C4499 1.410 . S
C4500 C4501 1.392 . S
C4500 C4503 1.511 . S
C4501 C4497 1.376 . S
C4501 C4500 1.392 . S
C4501 H4513 0.929 . S
C4502 C4498 1.531 . S
C4502 H4514 0.960 . S
C4502 H4515 0.962 . S
C4502 H4516 0.960 . S
C4503 C4500 1.511 . S
C4503 H4517 0.961 . S
C4503 H4518 0.961 . S
C4503 H4519 0.961 . S
C4504 C4505 1.370 . S
C4504 C4506 1.363 . S
C4504 H4520 0.931 . S
C4505 C4504 1.370 . S
C4505 C4509 1.408 . S
C4506 C4504 1.363 . S
C4506 C4507 1.370 . S
C4506 C4510 1.524 . S
C4507 C4499 1.503 . S
C4507 C4506 1.370 . S
C4507 C4508 1.403 . S
C4508 C4507 1.403 . S
C4508 C4509 1.404 . S
C4508 C4511 1.539 . S
C4509 C4505 1.408 . S
C4509 C4508 1.404 . S
C4509 H4521 0.930 . S
C4510 C4506 1.524 . S
C4510 H4522 0.956 . S
C4510 H4523 0.961 . S
C4510 H4524 0.961 . S
C4511 C4508 1.539 . S
C4511 H4525 0.958 . S
C4511 H4526 0.961 . S
C4511 H4527 0.960 . S
H4512 C4496 0.931 . S
H4513 C4501 0.929 . S
H4514 C4502 0.960 . S
H4515 C4502 0.962 . S
H4516 C4502 0.960 . S
H4517 C4503 0.961 . S
H4518 C4503 0.961 . S
H4519 C4503 0.961 . S
H4520 C4504 0.931 . S
H4521 C4509 0.930 . S
H4522 C4510 0.956 . S
H4523 C4510 0.961 . S
H4524 C4510 0.961 . S
H4525 C4511 0.958 . S
H4526 C4511 0.961 . S
H4527 C4511 0.960 . S
C4528 C4529 1.391 . S
C4528 C4530 1.394 . S
C4528 H4544 0.931 . S
C4529 C4528 1.391 . S
C4529 C4533 1.376 . S
C4530 C4528 1.394 . S
C4530 C4531 1.369 . S
C4530 C4534 1.531 . S
C4531 C4530 1.369 . S
C4531 C4532 1.410 . S
C4531 C4539 1.503 . S
C4532 C4531 1.410 . S
C4532 C4533 1.392 . S
C4532 C4535 1.511 . S
C4533 C4529 1.376 . S
C4533 C4532 1.392 . S
C4533 H4545 0.929 . S
C4534 C4530 1.531 . S
C4534 H4546 0.960 . S
C4534 H4547 0.962 . S
C4534 H4548 0.960 . S
C4535 C4532 1.511 . S
C4535 H4549 0.961 . S
C4535 H4550 0.961 . S
C4535 H4551 0.961 . S
C4536 C4537 1.370 . S
C4536 C4538 1.363 . S
C4536 H4552 0.931 . S
C4537 C4536 1.370 . S
C4537 C4541 1.408 . S
C4538 C4536 1.363 . S
C4538 C4539 1.370 . S
C4538 C4542 1.524 . S
C4539 C4531 1.503 . S
C4539 C4538 1.370 . S
C4539 C4540 1.403 . S
C4540 C4539 1.403 . S
C4540 C4541 1.404 . S
C4540 C4543 1.539 . S
C4541 C4537 1.408 . S
C4541 C4540 1.404 . S
C4541 H4553 0.930 . S
C4542 C4538 1.524 . S
C4542 H4554 0.956 . S
C4542 H4555 0.961 . S
C4542 H4556 0.961 . S
C4543 C4540 1.539 . S
C4543 H4557 0.958 . S
C4543 H4558 0.961 . S
C4543 H4559 0.960 . S
H4544 C4528 0.931 . S
H4545 C4533 0.929 . S
H4546 C4534 0.960 . S
H4547 C4534 0.962 . S
H4548 C4534 0.960 . S
H4549 C4535 0.961 . S
H4550 C4535 0.961 . S
H4551 C4535 0.961 . S
H4552 C4536 0.931 . S
H4553 C4541 0.930 . S
H4554 C4542 0.956 . S
H4555 C4542 0.961 . S
H4556 C4542 0.961 . S
H4557 C4543 0.958 . S
H4558 C4543 0.961 . S
H4559 C4543 0.960 . S
C4560 C4561 1.391 . S
C4560 C4562 1.394 . S
C4560 H4576 0.931 . S
C4561 C4560 1.391 . S
C4561 C4565 1.376 . S
C4562 C4560 1.394 . S
C4562 C4563 1.369 . S
C4562 C4566 1.531 . S
C4563 C4562 1.369 . S
C4563 C4564 1.410 . S
C4563 C4571 1.503 . S
C4564 C4563 1.410 . S
C4564 C4565 1.392 . S
C4564 C4567 1.511 . S
C4565 C4561 1.376 . S
C4565 C4564 1.392 . S
C4565 H4577 0.929 . S
C4566 C4562 1.531 . S
C4566 H4578 0.960 . S
C4566 H4579 0.962 . S
C4566 H4580 0.960 . S
C4567 C4564 1.511 . S
C4567 H4581 0.961 . S
C4567 H4582 0.961 . S
C4567 H4583 0.961 . S
C4568 C4569 1.370 . S
C4568 C4570 1.363 . S
C4568 H4584 0.931 . S
C4569 C4568 1.370 . S
C4569 C4573 1.408 . S
C4570 C4568 1.363 . S
C4570 C4571 1.370 . S
C4570 C4574 1.524 . S
C4571 C4563 1.503 . S
C4571 C4570 1.370 . S
C4571 C4572 1.403 . S
C4572 C4571 1.403 . S
C4572 C4573 1.404 . S
C4572 C4575 1.539 . S
C4573 C4569 1.408 . S
C4573 C4572 1.404 . S
C4573 H4585 0.930 . S
C4574 C4570 1.524 . S
C4574 H4586 0.956 . S
C4574 H4587 0.961 . S
C4574 H4588 0.961 . S
C4575 C4572 1.539 . S
C4575 H4589 0.958 . S
C4575 H4590 0.961 . S
C4575 H4591 0.960 . S
H4576 C4560 0.931 . S
H4577 C4565 0.929 . S
H4578 C4566 0.960 . S
H4579 C4566 0.962 . S
H4580 C4566 0.960 . S
H4581 C4567 0.961 . S
H4582 C4567 0.961 . S
H4583 C4567 0.961 . S
H4584 C4568 0.931 . S
H4585 C4573 0.930 . S
H4586 C4574 0.956 . S
H4587 C4574 0.961 . S
H4588 C4574 0.961 . S
H4589 C4575 0.958 . S
H4590 C4575 0.961 . S
H4591 C4575 0.960 . S
C4592 C4593 1.391 . S
C4592 C4594 1.394 . S
C4592 H4608 0.931 . S
C4593 C4592 1.391 . S
C4593 C4597 1.376 . S
C4594 C4592 1.394 . S
C4594 C4595 1.369 . S
C4594 C4598 1.531 . S
C4595 C4594 1.369 . S
C4595 C4596 1.410 . S
C4595 C4603 1.503 . S
C4596 C4595 1.410 . S
C4596 C4597 1.392 . S
C4596 C4599 1.511 . S
C4597 C4593 1.376 . S
C4597 C4596 1.392 . S
C4597 H4609 0.929 . S
C4598 C4594 1.531 . S
C4598 H4610 0.960 . S
C4598 H4611 0.962 . S
C4598 H4612 0.960 . S
C4599 C4596 1.511 . S
C4599 H4613 0.961 . S
C4599 H4614 0.961 . S
C4599 H4615 0.961 . S
C4600 C4601 1.370 . S
C4600 C4602 1.363 . S
C4600 H4616 0.931 . S
C4601 C4600 1.370 . S
C4601 C4605 1.408 . S
C4602 C4600 1.363 . S
C4602 C4603 1.370 . S
C4602 C4606 1.524 . S
C4603 C4595 1.503 . S
C4603 C4602 1.370 . S
C4603 C4604 1.403 . S
C4604 C4603 1.403 . S
C4604 C4605 1.404 . S
C4604 C4607 1.539 . S
C4605 C4601 1.408 . S
C4605 C4604 1.404 . S
C4605 H4617 0.930 . S
C4606 C4602 1.524 . S
C4606 H4618 0.956 . S
C4606 H4619 0.961 . S
C4606 H4620 0.961 . S
C4607 C4604 1.539 . S
C4607 H4621 0.958 . S
C4607 H4622 0.961 . S
C4607 H4623 0.960 . S
H4608 C4592 0.931 . S
H4609 C4597 0.929 . S
H4610 C4598 0.960 . S
H4611 C4598 0.962 . S
H4612 C4598 0.960 . S
H4613 C4599 0.961 . S
H4614 C4599 0.961 . S
H4615 C4599 0.961 . S
H4616 C4600 0.931 . S
H4617 C4605 0.930 . S
H4618 C4606 0.956 . S
H4619 C4606 0.961 . S
H4620 C4606 0.961 . S
H4621 C4607 0.958 . S
H4622 C4607 0.961 . S
H4623 C4607 0.960 . S
C4624 C4625 1.391 . S
C4624 C4626 1.394 . S
C4624 H4640 0.931 . S
C4625 C4624 1.391 . S
C4625 C4629 1.376 . S
C4626 C4624 1.394 . S
C4626 C4627 1.369 . S
C4626 C4630 1.531 . S
C4627 C4626 1.369 . S
C4627 C4628 1.410 . S
C4627 C4635 1.503 . S
C4628 C4627 1.410 . S
C4628 C4629 1.392 . S
C4628 C4631 1.511 . S
C4629 C4625 1.376 . S
C4629 C4628 1.392 . S
C4629 H4641 0.929 . S
C4630 C4626 1.531 . S
C4630 H4642 0.960 . S
C4630 H4643 0.962 . S
C4630 H4644 0.960 . S
C4631 C4628 1.511 . S
C4631 H4645 0.961 . S
C4631 H4646 0.961 . S
C4631 H4647 0.961 . S
C4632 C4633 1.370 . S
C4632 C4634 1.363 . S
C4632 H4648 0.931 . S
C4633 C4632 1.370 . S
C4633 C4637 1.408 . S
C4634 C4632 1.363 . S
C4634 C4635 1.370 . S
C4634 C4638 1.524 . S
C4635 C4627 1.503 . S
C4635 C4634 1.370 . S
C4635 C4636 1.403 . S
C4636 C4635 1.403 . S
C4636 C4637 1.404 . S
C4636 C4639 1.539 . S
C4637 C4633 1.408 . S
C4637 C4636 1.404 . S
C4637 H4649 0.930 . S
C4638 C4634 1.524 . S
C4638 H4650 0.956 . S
C4638 H4651 0.961 . S
C4638 H4652 0.961 . S
C4639 C4636 1.539 . S
C4639 H4653 0.958 . S
C4639 H4654 0.961 . S
C4639 H4655 0.960 . S
H4640 C4624 0.931 . S
H4641 C4629 0.929 . S
H4642 C4630 0.960 . S
H4643 C4630 0.962 . S
H4644 C4630 0.960 . S
H4645 C4631 0.961 . S
H4646 C4631 0.961 . S
H4647 C4631 0.961 . S
H4648 C4632 0.931 . S
H4649 C4637 0.930 . S
H4650 C4638 0.956 . S
H4651 C4638 0.961 . S
H4652 C4638 0.961 . S
H4653 C4639 0.958 . S
H4654 C4639 0.961 . S
H4655 C4639 0.960 . S
C4656 C4657 1.391 . S
C4656 C4658 1.394 . S
C4656 H4672 0.931 . S
C4657 C4656 1.391 . S
C4657 C4661 1.376 . S
C4658 C4656 1.394 . S
C4658 C4659 1.369 . S
C4658 C4662 1.531 . S
C4659 C4658 1.369 . S
C4659 C4660 1.410 . S
C4659 C4667 1.503 . S
C4660 C4659 1.410 . S
C4660 C4661 1.392 . S
C4660 C4663 1.511 . S
C4661 C4657 1.376 . S
C4661 C4660 1.392 . S
C4661 H4673 0.929 . S
C4662 C4658 1.531 . S
C4662 H4674 0.960 . S
C4662 H4675 0.962 . S
C4662 H4676 0.960 . S
C4663 C4660 1.511 . S
C4663 H4677 0.961 . S
C4663 H4678 0.961 . S
C4663 H4679 0.961 . S
C4664 C4665 1.370 . S
C4664 C4666 1.363 . S
C4664 H4680 0.931 . S
C4665 C4664 1.370 . S
C4665 C4669 1.408 . S
C4666 C4664 1.363 . S
C4666 C4667 1.370 . S
C4666 C4670 1.524 . S
C4667 C4659 1.503 . S
C4667 C4666 1.370 . S
C4667 C4668 1.403 . S
C4668 C4667 1.403 . S
C4668 C4669 1.404 . S
C4668 C4671 1.539 . S
C4669 C4665 1.408 . S
C4669 C4668 1.404 . S
C4669 H4681 0.930 . S
C4670 C4666 1.524 . S
C4670 H4682 0.956 . S
C4670 H4683 0.961 . S
C4670 H4684 0.961 . S
C4671 C4668 1.539 . S
C4671 H4685 0.958 . S
C4671 H4686 0.961 . S
C4671 H4687 0.960 . S
H4672 C4656 0.931 . S
H4673 C4661 0.929 . S
H4674 C4662 0.960 . S
H4675 C4662 0.962 . S
H4676 C4662 0.960 . S
H4677 C4663 0.961 . S
H4678 C4663 0.961 . S
H4679 C4663 0.961 . S
H4680 C4664 0.931 . S
H4681 C4669 0.930 . S
H4682 C4670 0.956 . S
H4683 C4670 0.961 . S
H4684 C4670 0.961 . S
H4685 C4671 0.958 . S
H4686 C4671 0.961 . S
H4687 C4671 0.960 . S
C4688 C4689 1.391 . S
C4688 C4690 1.394 . S
C4688 H4704 0.931 . S
C4689 C4688 1.391 . S
C4689 C4693 1.376 . S
C4690 C4688 1.394 . S
C4690 C4691 1.369 . S
C4690 C4694 1.531 . S
C4691 C4690 1.369 . S
C4691 C4692 1.410 . S
C4691 C4699 1.503 . S
C4692 C4691 1.410 . S
C4692 C4693 1.392 . S
C4692 C4695 1.511 . S
C4693 C4689 1.376 . S
C4693 C4692 1.392 . S
C4693 H4705 0.929 . S
C4694 C4690 1.531 . S
C4694 H4706 0.960 . S
C4694 H4707 0.962 . S
C4694 H4708 0.960 . S
C4695 C4692 1.511 . S
C4695 H4709 0.961 . S
C4695 H4710 0.961 . S
C4695 H4711 0.961 . S
C4696 C4697 1.370 . S
C4696 C4698 1.363 . S
C4696 H4712 0.931 . S
C4697 C4696 1.370 . S
C4697 C4701 1.408 . S
C4698 C4696 1.363 . S
C4698 C4699 1.370 . S
C4698 C4702 1.524 . S
C4699 C4691 1.503 . S
C4699 C4698 1.370 . S
C4699 C4700 1.403 . S
C4700 C4699 1.403 . S
C4700 C4701 1.404 . S
C4700 C4703 1.539 . S
C4701 C4697 1.408 . S
C4701 C4700 1.404 . S
C4701 H4713 0.930 . S
C4702 C4698 1.524 . S
C4702 H4714 0.956 . S
C4702 H4715 0.961 . S
C4702 H4716 0.961 . S
C4703 C4700 1.539 . S
C4703 H4717 0.958 . S
C4703 H4718 0.961 . S
C4703 H4719 0.960 . S
H4704 C4688 0.931 . S
H4705 C4693 0.929 . S
H4706 C4694 0.960 . S
H4707 C4694 0.962 . S
H4708 C4694 0.960 . S
H4709 C4695 0.961 . S
H4710 C4695 0.961 . S
H4711 C4695 0.961 . S
H4712 C4696 0.931 . S
H4713 C4701 0.930 . S
H4714 C4702 0.956 . S
H4715 C4702 0.961 . S
H4716 C4702 0.961 . S
H4717 C4703 0.958 . S
H4718 C4703 0.961 . S
H4719 C4703 0.960 . S
C4720 C4721 1.391 . S
C4720 C4722 1.394 . S
C4720 H4736 0.931 . S
C4721 C4720 1.391 . S
C4721 C4725 1.376 . S
C4722 C4720 1.394 . S
C4722 C4723 1.369 . S
C4722 C4726 1.531 . S
C4723 C4722 1.369 . S
C4723 C4724 1.410 . S
C4723 C4731 1.503 . S
C4724 C4723 1.410 . S
C4724 C4725 1.392 . S
C4724 C4727 1.511 . S
C4725 C4721 1.376 . S
C4725 C4724 1.392 . S
C4725 H4737 0.929 . S
C4726 C4722 1.531 . S
C4726 H4738 0.960 . S
C4726 H4739 0.962 . S
C4726 H4740 0.960 . S
C4727 C4724 1.511 . S
C4727 H4741 0.961 . S
C4727 H4742 0.961 . S
C4727 H4743 0.961 . S
C4728 C4729 1.370 . S
C4728 C4730 1.363 . S
C4728 H4744 0.931 . S
C4729 C4728 1.370 . S
C4729 C4733 1.408 . S
C4730 C4728 1.363 . S
C4730 C4731 1.370 . S
C4730 C4734 1.524 . S
C4731 C4723 1.503 . S
C4731 C4730 1.370 . S
C4731 C4732 1.403 . S
C4732 C4731 1.403 . S
C4732 C4733 1.404 . S
C4732 C4735 1.539 . S
C4733 C4729 1.408 . S
C4733 C4732 1.404 . S
C4733 H4745 0.930 . S
C4734 C4730 1.524 . S
C4734 H4746 0.956 . S
C4734 H4747 0.961 . S
C4734 H4748 0.961 . S
C4735 C4732 1.539 . S
C4735 H4749 0.958 . S
C4735 H4750 0.961 . S
C4735 H4751 0.960 . S
H4736 C4720 0.931 . S
H4737 C4725 0.929 . S
H4738 C4726 0.960 . S
H4739 C4726 0.962 . S
H4740 C4726 0.960 . S
H4741 C4727 0.961 . S
H4742 C4727 0.961 . S
H4743 C4727 0.961 . S
H4744 C4728 0.931 . S
H4745 C4733 0.930 . S
H4746 C4734 0.956 . S
H4747 C4734 0.961 . S
H4748 C4734 0.961 . S
H4749 C4735 0.958 . S
H4750 C4735 0.961 . S
H4751 C4735 0.960 . S
C4752 C4753 1.391 . S
C4752 C4754 1.394 . S
C4752 H4768 0.931 . S
C4753 C4752 1.391 . S
C4753 C4757 1.376 . S
C4754 C4752 1.394 . S
C4754 C4755 1.369 . S
C4754 C4758 1.531 . S
C4755 C4754 1.369 . S
C4755 C4756 1.410 . S
C4755 C4763 1.503 . S
C4756 C4755 1.410 . S
C4756 C4757 1.392 . S
C4756 C4759 1.511 . S
C4757 C4753 1.376 . S
C4757 C4756 1.392 . S
C4757 H4769 0.929 . S
C4758 C4754 1.531 . S
C4758 H4770 0.960 . S
C4758 H4771 0.962 . S
C4758 H4772 0.960 . S
C4759 C4756 1.511 . S
C4759 H4773 0.961 . S
C4759 H4774 0.961 . S
C4759 H4775 0.961 . S
C4760 C4761 1.370 . S
C4760 C4762 1.363 . S
C4760 H4776 0.931 . S
C4761 C4760 1.370 . S
C4761 C4765 1.408 . S
C4762 C4760 1.363 . S
C4762 C4763 1.370 . S
C4762 C4766 1.524 . S
C4763 C4755 1.503 . S
C4763 C4762 1.370 . S
C4763 C4764 1.403 . S
C4764 C4763 1.403 . S
C4764 C4765 1.404 . S
C4764 C4767 1.539 . S
C4765 C4761 1.408 . S
C4765 C4764 1.404 . S
C4765 H4777 0.930 . S
C4766 C4762 1.524 . S
C4766 H4778 0.956 . S
C4766 H4779 0.961 . S
C4766 H4780 0.961 . S
C4767 C4764 1.539 . S
C4767 H4781 0.958 . S
C4767 H4782 0.961 . S
C4767 H4783 0.960 . S
H4768 C4752 0.931 . S
H4769 C4757 0.929 . S
H4770 C4758 0.960 . S
H4771 C4758 0.962 . S
H4772 C4758 0.960 . S
H4773 C4759 0.961 . S
H4774 C4759 0.961 . S
H4775 C4759 0.961 . S
H4776 C4760 0.931 . S
H4777 C4765 0.930 . S
H4778 C4766 0.956 . S
H4779 C4766 0.961 . S
H4780 C4766 0.961 . S
H4781 C4767 0.958 . S
H4782 C4767 0.961 . S
H4783 C4767 0.960 . S
C4784 C4785 1.391 . S
C4784 C4786 1.394 . S
C4784 H4800 0.931 . S
C4785 C4784 1.391 . S
C4785 C4789 1.376 . S
C4786 C4784 1.394 . S
C4786 C4787 1.369 . S
C4786 C4790 1.531 . S
C4787 C4786 1.369 . S
C4787 C4788 1.410 . S
C4787 C4795 1.503 . S
C4788 C4787 1.410 . S
C4788 C4789 1.392 . S
C4788 C4791 1.511 . S
C4789 C4785 1.376 . S
C4789 C4788 1.392 . S
C4789 H4801 0.929 . S
C4790 C4786 1.531 . S
C4790 H4802 0.960 . S
C4790 H4803 0.962 . S
C4790 H4804 0.960 . S
C4791 C4788 1.511 . S
C4791 H4805 0.961 . S
C4791 H4806 0.961 . S
C4791 H4807 0.961 . S
C4792 C4793 1.370 . S
C4792 C4794 1.363 . S
C4792 H4808 0.931 . S
C4793 C4792 1.370 . S
C4793 C4797 1.408 . S
C4794 C4792 1.363 . S
C4794 C4795 1.370 . S
C4794 C4798 1.524 . S
C4795 C4787 1.503 . S
C4795 C4794 1.370 . S
C4795 C4796 1.403 . S
C4796 C4795 1.403 . S
C4796 C4797 1.404 . S
C4796 C4799 1.539 . S
C4797 C4793 1.408 . S
C4797 C4796 1.404 . S
C4797 H4809 0.930 . S
C4798 C4794 1.524 . S
C4798 H4810 0.956 . S
C4798 H4811 0.961 . S
C4798 H4812 0.961 . S
C4799 C4796 1.539 . S
C4799 H4813 0.958 . S
C4799 H4814 0.961 . S
C4799 H4815 0.960 . S
H4800 C4784 0.931 . S
H4801 C4789 0.929 . S
H4802 C4790 0.960 . S
H4803 C4790 0.962 . S
H4804 C4790 0.960 . S
H4805 C4791 0.961 . S
H4806 C4791 0.961 . S
H4807 C4791 0.961 . S
H4808 C4792 0.931 . S
H4809 C4797 0.930 . S
H4810 C4798 0.956 . S
H4811 C4798 0.961 . S
H4812 C4798 0.961 . S
H4813 C4799 0.958 . S
H4814 C4799 0.961 . S
H4815 C4799 0.960 . S
C4816 C4817 1.391 . S
C4816 C4818 1.394 . S
C4816 H4832 0.931 . S
C4817 C4816 1.391 . S
C4817 C4821 1.376 . S
C4818 C4816 1.394 . S
C4818 C4819 1.369 . S
C4818 C4822 1.531 . S
C4819 C4818 1.369 . S
C4819 C4820 1.410 . S
C4819 C4827 1.503 . S
C4820 C4819 1.410 . S
C4820 C4821 1.392 . S
C4820 C4823 1.511 . S
C4821 C4817 1.376 . S
C4821 C4820 1.392 . S
C4821 H4833 0.929 . S
C4822 C4818 1.531 . S
C4822 H4834 0.960 . S
C4822 H4835 0.962 . S
C4822 H4836 0.960 . S
C4823 C4820 1.511 . S
C4823 H4837 0.961 . S
C4823 H4838 0.961 . S
C4823 H4839 0.961 . S
C4824 C4825 1.370 . S
C4824 C4826 1.363 . S
C4824 H4840 0.931 . S
C4825 C4824 1.370 . S
C4825 C4829 1.408 . S
C4826 C4824 1.363 . S
C4826 C4827 1.370 . S
C4826 C4830 1.524 . S
C4827 C4819 1.503 . S
C4827 C4826 1.370 . S
C4827 C4828 1.403 . S
C4828 C4827 1.403 . S
C4828 C4829 1.404 . S
C4828 C4831 1.539 . S
C4829 C4825 1.408 . S
C4829 C4828 1.404 . S
C4829 H4841 0.930 . S
C4830 C4826 1.524 . S
C4830 H4842 0.956 . S
C4830 H4843 0.961 . S
C4830 H4844 0.961 . S
C4831 C4828 1.539 . S
C4831 H4845 0.958 . S
C4831 H4846 0.961 . S
C4831 H4847 0.960 . S
H4832 C4816 0.931 . S
H4833 C4821 0.929 . S
H4834 C4822 0.960 . S
H4835 C4822 0.962 . S
H4836 C4822 0.960 . S
H4837 C4823 0.961 . S
H4838 C4823 0.961 . S
H4839 C4823 0.961 . S
H4840 C4824 0.931 . S
H4841 C4829 0.930 . S
H4842 C4830 0.956 . S
H4843 C4830 0.961 . S
H4844 C4830 0.961 . S
H4845 C4831 0.958 . S
H4846 C4831 0.961 . S
H4847 C4831 0.960 . S
C4848 C4849 1.391 . S
C4848 C4850 1.394 . S
C4848 H4864 0.931 . S
C4849 C4848 1.391 . S
C4849 C4853 1.376 . S
C4850 C4848 1.394 . S
C4850 C4851 1.369 . S
C4850 C4854 1.531 . S
C4851 C4850 1.369 . S
C4851 C4852 1.410 . S
C4851 C4859 1.503 . S
C4852 C4851 1.410 . S
C4852 C4853 1.392 . S
C4852 C4855 1.511 . S
C4853 C4849 1.376 . S
C4853 C4852 1.392 . S
C4853 H4865 0.929 . S
C4854 C4850 1.531 . S
C4854 H4866 0.960 . S
C4854 H4867 0.962 . S
C4854 H4868 0.960 . S
C4855 C4852 1.511 . S
C4855 H4869 0.961 . S
C4855 H4870 0.961 . S
C4855 H4871 0.961 . S
C4856 C4857 1.370 . S
C4856 C4858 1.363 . S
C4856 H4872 0.931 . S
C4857 C4856 1.370 . S
C4857 C4861 1.408 . S
C4858 C4856 1.363 . S
C4858 C4859 1.370 . S
C4858 C4862 1.524 . S
C4859 C4851 1.503 . S
C4859 C4858 1.370 . S
C4859 C4860 1.403 . S
C4860 C4859 1.403 . S
C4860 C4861 1.404 . S
C4860 C4863 1.539 . S
C4861 C4857 1.408 . S
C4861 C4860 1.404 . S
C4861 H4873 0.930 . S
C4862 C4858 1.524 . S
C4862 H4874 0.956 . S
C4862 H4875 0.961 . S
C4862 H4876 0.961 . S
C4863 C4860 1.539 . S
C4863 H4877 0.958 . S
C4863 H4878 0.961 . S
C4863 H4879 0.960 . S
H4864 C4848 0.931 . S
H4865 C4853 0.929 . S
H4866 C4854 0.960 . S
H4867 C4854 0.962 . S
H4868 C4854 0.960 . S
H4869 C4855 0.961 . S
H4870 C4855 0.961 . S
H4871 C4855 0.961 . S
H4872 C4856 0.931 . S
H4873 C4861 0.930 . S
H4874 C4862 0.956 . S
H4875 C4862 0.961 . S
H4876 C4862 0.961 . S
H4877 C4863 0.958 . S
H4878 C4863 0.961 . S
H4879 C4863 0.960 . S
C4880 C4881 1.391 . S
C4880 C4882 1.394 . S
C4880 H4896 0.931 . S
C4881 C4880 1.391 . S
C4881 C4885 1.376 . S
C4882 C4880 1.394 . S
C4882 C4883 1.369 . S
C4882 C4886 1.531 . S
C4883 C4882 1.369 . S
C4883 C4884 1.410 . S
C4883 C4891 1.503 . S
C4884 C4883 1.410 . S
C4884 C4885 1.392 . S
C4884 C4887 1.511 . S
C4885 C4881 1.376 . S
C4885 C4884 1.392 . S
C4885 H4897 0.929 . S
C4886 C4882 1.531 . S
C4886 H4898 0.960 . S
C4886 H4899 0.962 . S
C4886 H4900 0.960 . S
C4887 C4884 1.511 . S
C4887 H4901 0.961 . S
C4887 H4902 0.961 . S
C4887 H4903 0.961 . S
C4888 C4889 1.370 . S
C4888 C4890 1.363 . S
C4888 H4904 0.931 . S
C4889 C4888 1.370 . S
C4889 C4893 1.408 . S
C4890 C4888 1.363 . S
C4890 C4891 1.370 . S
C4890 C4894 1.524 . S
C4891 C4883 1.503 . S
C4891 C4890 1.370 . S
C4891 C4892 1.403 . S
C4892 C4891 1.403 . S
C4892 C4893 1.404 . S
C4892 C4895 1.539 . S
C4893 C4889 1.408 . S
C4893 C4892 1.404 . S
C4893 H4905 0.930 . S
C4894 C4890 1.524 . S
C4894 H4906 0.956 . S
C4894 H4907 0.961 . S
C4894 H4908 0.961 . S
C4895 C4892 1.539 . S
C4895 H4909 0.958 . S
C4895 H4910 0.961 . S
C4895 H4911 0.960 . S
H4896 C4880 0.931 . S
H4897 C4885 0.929 . S
H4898 C4886 0.960 . S
H4899 C4886 0.962 . S
H4900 C4886 0.960 . S
H4901 C4887 0.961 . S
H4902 C4887 0.961 . S
H4903 C4887 0.961 . S
H4904 C4888 0.931 . S
H4905 C4893 0.930 . S
H4906 C4894 0.956 . S
H4907 C4894 0.961 . S
H4908 C4894 0.961 . S
H4909 C4895 0.958 . S
H4910 C4895 0.961 . S
H4911 C4895 0.960 . S
C4912 C4913 1.391 . S
C4912 C4914 1.394 . S
C4912 H4928 0.931 . S
C4913 C4912 1.391 . S
C4913 C4917 1.376 . S
C4914 C4912 1.394 . S
C4914 C4915 1.369 . S
C4914 C4918 1.531 . S
C4915 C4914 1.369 . S
C4915 C4916 1.410 . S
C4915 C4923 1.503 . S
C4916 C4915 1.410 . S
C4916 C4917 1.392 . S
C4916 C4919 1.511 . S
C4917 C4913 1.376 . S
C4917 C4916 1.392 . S
C4917 H4929 0.929 . S
C4918 C4914 1.531 . S
C4918 H4930 0.960 . S
C4918 H4931 0.962 . S
C4918 H4932 0.960 . S
C4919 C4916 1.511 . S
C4919 H4933 0.961 . S
C4919 H4934 0.961 . S
C4919 H4935 0.961 . S
C4920 C4921 1.370 . S
C4920 C4922 1.363 . S
C4920 H4936 0.931 . S
C4921 C4920 1.370 . S
C4921 C4925 1.408 . S
C4922 C4920 1.363 . S
C4922 C4923 1.370 . S
C4922 C4926 1.524 . S
C4923 C4915 1.503 . S
C4923 C4922 1.370 . S
C4923 C4924 1.403 . S
C4924 C4923 1.403 . S
C4924 C4925 1.404 . S
C4924 C4927 1.539 . S
C4925 C4921 1.408 . S
C4925 C4924 1.404 . S
C4925 H4937 0.930 . S
C4926 C4922 1.524 . S
C4926 H4938 0.956 . S
C4926 H4939 0.961 . S
C4926 H4940 0.961 . S
C4927 C4924 1.539 . S
C4927 H4941 0.958 . S
C4927 H4942 0.961 . S
C4927 H4943 0.960 . S
H4928 C4912 0.931 . S
H4929 C4917 0.929 . S
H4930 C4918 0.960 . S
H4931 C4918 0.962 . S
H4932 C4918 0.960 . S
H4933 C4919 0.961 . S
H4934 C4919 0.961 . S
H4935 C4919 0.961 . S
H4936 C4920 0.931 . S
H4937 C4925 0.930 . S
H4938 C4926 0.956 . S
H4939 C4926 0.961 . S
H4940 C4926 0.961 . S
H4941 C4927 0.958 . S
H4942 C4927 0.961 . S
H4943 C4927 0.960 . S
C4944 C4945 1.391 . S
C4944 C4946 1.394 . S
C4944 H4960 0.931 . S
C4945 C4944 1.391 . S
C4945 C4949 1.376 . S
C4946 C4944 1.394 . S
C4946 C4947 1.369 . S
C4946 C4950 1.531 . S
C4947 C4946 1.369 . S
C4947 C4948 1.410 . S
C4947 C4955 1.503 . S
C4948 C4947 1.410 . S
C4948 C4949 1.392 . S
C4948 C4951 1.511 . S
C4949 C4945 1.376 . S
C4949 C4948 1.392 . S
C4949 H4961 0.929 . S
C4950 C4946 1.531 . S
C4950 H4962 0.960 . S
C4950 H4963 0.962 . S
C4950 H4964 0.960 . S
C4951 C4948 1.511 . S
C4951 H4965 0.961 . S
C4951 H4966 0.961 . S
C4951 H4967 0.961 . S
C4952 C4953 1.370 . S
C4952 C4954 1.363 . S
C4952 H4968 0.931 . S
C4953 C4952 1.370 . S
C4953 C4957 1.408 . S
C4954 C4952 1.363 . S
C4954 C4955 1.370 . S
C4954 C4958 1.524 . S
C4955 C4947 1.503 . S
C4955 C4954 1.370 . S
C4955 C4956 1.403 . S
C4956 C4955 1.403 . S
C4956 C4957 1.404 . S
C4956 C4959 1.539 . S
C4957 C4953 1.408 . S
C4957 C4956 1.404 . S
C4957 H4969 0.930 . S
C4958 C4954 1.524 . S
C4958 H4970 0.956 . S
C4958 H4971 0.961 . S
C4958 H4972 0.961 . S
C4959 C4956 1.539 . S
C4959 H4973 0.958 . S
C4959 H4974 0.961 . S
C4959 H4975 0.960 . S
H4960 C4944 0.931 . S
H4961 C4949 0.929 . S
H4962 C4950 0.960 . S
H4963 C4950 0.962 . S
H4964 C4950 0.960 . S
H4965 C4951 0.961 . S
H4966 C4951 0.961 . S
H4967 C4951 0.961 . S
H4968 C4952 0.931 . S
H4969 C4957 0.930 . S
H4970 C4958 0.956 . S
H4971 C4958 0.961 . S
H4972 C4958 0.961 . S
H4973 C4959 0.958 . S
H4974 C4959 0.961 . S
H4975 C4959 0.960 . S
C4976 C4977 1.391 . S
C4976 C4978 1.394 . S
C4976 H4992 0.931 . S
C4977 C4976 1.391 . S
C4977 C4981 1.376 . S
C4978 C4976 1.394 . S
C4978 C4979 1.369 . S
C4978 C4982 1.531 . S
C4979 C4978 1.369 . S
C4979 C4980 1.410 . S
C4979 C4987 1.503 . S
C4980 C4979 1.410 . S
C4980 C4981 1.392 . S
C4980 C4983 1.511 . S
C4981 C4977 1.376 . S
C4981 C4980 1.392 . S
C4981 H4993 0.929 . S
C4982 C4978 1.531 . S
C4982 H4994 0.960 . S
C4982 H4995 0.962 . S
C4982 H4996 0.960 . S
C4983 C4980 1.511 . S
C4983 H4997 0.961 . S
C4983 H4998 0.961 . S
C4983 H4999 0.961 . S
C4984 C4985 1.370 . S
C4984 C4986 1.363 . S
C4984 H5000 0.931 . S
C4985 C4984 1.370 . S
C4985 C4989 1.408 . S
C4986 C4984 1.363 . S
C4986 C4987 1.370 . S
C4986 C4990 1.524 . S
C4987 C4979 1.503 . S
C4987 C4986 1.370 . S
C4987 C4988 1.403 . S
C4988 C4987 1.403 . S
C4988 C4989 1.404 . S
C4988 C4991 1.539 . S
C4989 C4985 1.408 . S
C4989 C4988 1.404 . S
C4989 H5001 0.930 . S
C4990 C4986 1.524 . S
C4990 H5002 0.956 . S
C4990 H5003 0.961 . S
C4990 H5004 0.961 . S
C4991 C4988 1.539 . S
C4991 H5005 0.958 . S
C4991 H5006 0.961 . S
C4991 H5007 0.960 . S
H4992 C4976 0.931 . S
H4993 C4981 0.929 . S
H4994 C4982 0.960 . S
H4995 C4982 0.962 . S
H4996 C4982 0.960 . S
H4997 C4983 0.961 . S
H4998 C4983 0.961 . S
H4999 C4983 0.961 . S
H5000 C4984 0.931 . S
H5001 C4989 0.930 . S
H5002 C4990 0.956 . S
H5003 C4990 0.961 . S
H5004 C4990 0.961 . S
H5005 C4991 0.958 . S
H5006 C4991 0.961 . S
H5007 C4991 0.960 . S
C5008 C5009 1.391 . S
C5008 C5010 1.394 . S
C5008 H5024 0.931 . S
C5009 C5008 1.391 . S
C5009 C5013 1.376 . S
C5010 C5008 1.394 . S
C5010 C5011 1.369 . S
C5010 C5014 1.531 . S
C5011 C5010 1.369 . S
C5011 C5012 1.410 . S
C5011 C5019 1.503 . S
C5012 C5011 1.410 . S
C5012 C5013 1.392 . S
C5012 C5015 1.511 . S
C5013 C5009 1.376 . S
C5013 C5012 1.392 . S
C5013 H5025 0.929 . S
C5014 C5010 1.531 . S
C5014 H5026 0.960 . S
C5014 H5027 0.962 . S
C5014 H5028 0.960 . S
C5015 C5012 1.511 . S
C5015 H5029 0.961 . S
C5015 H5030 0.961 . S
C5015 H5031 0.961 . S
C5016 C5017 1.370 . S
C5016 C5018 1.363 . S
C5016 H5032 0.931 . S
C5017 C5016 1.370 . S
C5017 C5021 1.408 . S
C5018 C5016 1.363 . S
C5018 C5019 1.370 . S
C5018 C5022 1.524 . S
C5019 C5011 1.503 . S
C5019 C5018 1.370 . S
C5019 C5020 1.403 . S
C5020 C5019 1.403 . S
C5020 C5021 1.404 . S
C5020 C5023 1.539 . S
C5021 C5017 1.408 . S
C5021 C5020 1.404 . S
C5021 H5033 0.930 . S
C5022 C5018 1.524 . S
C5022 H5034 0.956 . S
C5022 H5035 0.961 . S
C5022 H5036 0.961 . S
C5023 C5020 1.539 . S
C5023 H5037 0.958 . S
C5023 H5038 0.961 . S
C5023 H5039 0.960 . S
H5024 C5008 0.931 . S
H5025 C5013 0.929 . S
H5026 C5014 0.960 . S
H5027 C5014 0.962 . S
H5028 C5014 0.960 . S
H5029 C5015 0.961 . S
H5030 C5015 0.961 . S
H5031 C5015 0.961 . S
H5032 C5016 0.931 . S
H5033 C5021 0.930 . S
H5034 C5022 0.956 . S
H5035 C5022 0.961 . S
H5036 C5022 0.961 . S
H5037 C5023 0.958 . S
H5038 C5023 0.961 . S
H5039 C5023 0.960 . S
C5040 C5041 1.391 . S
C5040 C5042 1.394 . S
C5040 H5056 0.931 . S
C5041 C5040 1.391 . S
C5041 C5045 1.376 . S
C5042 C5040 1.394 . S
C5042 C5043 1.369 . S
C5042 C5046 1.531 . S
C5043 C5042 1.369 . S
C5043 C5044 1.410 . S
C5043 C5051 1.503 . S
C5044 C5043 1.410 . S
C5044 C5045 1.392 . S
C5044 C5047 1.511 . S
C5045 C5041 1.376 . S
C5045 C5044 1.392 . S
C5045 H5057 0.929 . S
C5046 C5042 1.531 . S
C5046 H5058 0.960 . S
C5046 H5059 0.962 . S
C5046 H5060 0.960 . S
C5047 C5044 1.511 . S
C5047 H5061 0.961 . S
C5047 H5062 0.961 . S
C5047 H5063 0.961 . S
C5048 C5049 1.370 . S
C5048 C5050 1.363 . S
C5048 H5064 0.931 . S
C5049 C5048 1.370 . S
C5049 C5053 1.408 . S
C5050 C5048 1.363 . S
C5050 C5051 1.370 . S
C5050 C5054 1.524 . S
C5051 C5043 1.503 . S
C5051 C5050 1.370 . S
C5051 C5052 1.403 . S
C5052 C5051 1.403 . S
C5052 C5053 1.404 . S
C5052 C5055 1.539 . S
C5053 C5049 1.408 . S
C5053 C5052 1.404 . S
C5053 H5065 0.930 . S
C5054 C5050 1.524 . S
C5054 H5066 0.956 . S
C5054 H5067 0.961 . S
C5054 H5068 0.961 . S
C5055 C5052 1.539 . S
C5055 H5069 0.958 . S
C5055 H5070 0.961 . S
C5055 H5071 0.960 . S
H5056 C5040 0.931 . S
H5057 C5045 0.929 . S
H5058 C5046 0.960 . S
H5059 C5046 0.962 . S
H5060 C5046 0.960 . S
H5061 C5047 0.961 . S
H5062 C5047 0.961 . S
H5063 C5047 0.961 . S
H5064 C5048 0.931 . S
H5065 C5053 0.930 . S
H5066 C5054 0.956 . S
H5067 C5054 0.961 . S
H5068 C5054 0.961 . S
H5069 C5055 0.958 . S
H5070 C5055 0.961 . S
H5071 C5055 0.960 . S
C5072 C5073 1.391 . S
C5072 C5074 1.394 . S
C5072 H5088 0.931 . S
C5073 C5072 1.391 . S
C5073 C5077 1.376 . S
C5074 C5072 1.394 . S
C5074 C5075 1.369 . S
C5074 C5078 1.531 . S
C5075 C5074 1.369 . S
C5075 C5076 1.410 . S
C5075 C5083 1.503 . S
C5076 C5075 1.410 . S
C5076 C5077 1.392 . S
C5076 C5079 1.511 . S
C5077 C5073 1.376 . S
C5077 C5076 1.392 . S
C5077 H5089 0.929 . S
C5078 C5074 1.531 . S
C5078 H5090 0.960 . S
C5078 H5091 0.962 . S
C5078 H5092 0.960 . S
C5079 C5076 1.511 . S
C5079 H5093 0.961 . S
C5079 H5094 0.961 . S
C5079 H5095 0.961 . S
C5080 C5081 1.370 . S
C5080 C5082 1.363 . S
C5080 H5096 0.931 . S
C5081 C5080 1.370 . S
C5081 C5085 1.408 . S
C5082 C5080 1.363 . S
C5082 C5083 1.370 . S
C5082 C5086 1.524 . S
C5083 C5075 1.503 . S
C5083 C5082 1.370 . S
C5083 C5084 1.403 . S
C5084 C5083 1.403 . S
C5084 C5085 1.404 . S
C5084 C5087 1.539 . S
C5085 C5081 1.408 . S
C5085 C5084 1.404 . S
C5085 H5097 0.930 . S
C5086 C5082 1.524 . S
C5086 H5098 0.956 . S
C5086 H5099 0.961 . S
C5086 H5100 0.961 . S
C5087 C5084 1.539 . S
C5087 H5101 0.958 . S
C5087 H5102 0.961 . S
C5087 H5103 0.960 . S
H5088 C5072 0.931 . S
H5089 C5077 0.929 . S
H5090 C5078 0.960 . S
H5091 C5078 0.962 . S
H5092 C5078 0.960 . S
H5093 C5079 0.961 . S
H5094 C5079 0.961 . S
H5095 C5079 0.961 . S
H5096 C5080 0.931 . S
H5097 C5085 0.930 . S
H5098 C5086 0.956 . S
H5099 C5086 0.961 . S
H5100 C5086 0.961 . S
H5101 C5087 0.958 . S
H5102 C5087 0.961 . S
H5103 C5087 0.960 . S
C5104 C5105 1.391 . S
C5104 C5106 1.394 . S
C5104 H5120 0.931 . S
C5105 C5104 1.391 . S
C5105 C5109 1.376 . S
C5106 C5104 1.394 . S
C5106 C5107 1.369 . S
C5106 C5110 1.531 . S
C5107 C5106 1.369 . S
C5107 C5108 1.410 . S
C5107 C5115 1.503 . S
C5108 C5107 1.410 . S
C5108 C5109 1.392 . S
C5108 C5111 1.511 . S
C5109 C5105 1.376 . S
C5109 C5108 1.392 . S
C5109 H5121 0.929 . S
C5110 C5106 1.531 . S
C5110 H5122 0.960 . S
C5110 H5123 0.962 . S
C5110 H5124 0.960 . S
C5111 C5108 1.511 . S
C5111 H5125 0.961 . S
C5111 H5126 0.961 . S
C5111 H5127 0.961 . S
C5112 C5113 1.370 . S
C5112 C5114 1.363 . S
C5112 H5128 0.931 . S
C5113 C5112 1.370 . S
C5113 C5117 1.408 . S
C5114 C5112 1.363 . S
C5114 C5115 1.370 . S
C5114 C5118 1.524 . S
C5115 C5107 1.503 . S
C5115 C5114 1.370 . S
C5115 C5116 1.403 . S
C5116 C5115 1.403 . S
C5116 C5117 1.404 . S
C5116 C5119 1.539 . S
C5117 C5113 1.408 . S
C5117 C5116 1.404 . S
C5117 H5129 0.930 . S
C5118 C5114 1.524 . S
C5118 H5130 0.956 . S
C5118 H5131 0.961 . S
C5118 H5132 0.961 . S
C5119 C5116 1.539 . S
C5119 H5133 0.958 . S
C5119 H5134 0.961 . S
C5119 H5135 0.960 . S
H5120 C5104 0.931 . S
H5121 C5109 0.929 . S
H5122 C5110 0.960 . S
H5123 C5110 0.962 . S
H5124 C5110 0.960 . S
H5125 C5111 0.961 . S
H5126 C5111 0.961 . S
H5127 C5111 0.961 . S
H5128 C5112 0.931 . S
H5129 C5117 0.930 . S
H5130 C5118 0.956 . S
H5131 C5118 0.961 . S
H5132 C5118 0.961 . S
H5133 C5119 0.958 . S
H5134 C5119 0.961 . S
H5135 C5119 0.960 . S
C5136 C5137 1.391 . S
C5136 C5138 1.394 . S
C5136 H5152 0.931 . S
C5137 C5136 1.391 . S
C5137 C5141 1.376 . S
C5138 C5136 1.394 . S
C5138 C5139 1.369 . S
C5138 C5142 1.531 . S
C5139 C5138 1.369 . S
C5139 C5140 1.410 . S
C5139 C5147 1.503 . S
C5140 C5139 1.410 . S
C5140 C5141 1.392 . S
C5140 C5143 1.511 . S
C5141 C5137 1.376 . S
C5141 C5140 1.392 . S
C5141 H5153 0.929 . S
C5142 C5138 1.531 . S
C5142 H5154 0.960 . S
C5142 H5155 0.962 . S
C5142 H5156 0.960 . S
C5143 C5140 1.511 . S
C5143 H5157 0.961 . S
C5143 H5158 0.961 . S
C5143 H5159 0.961 . S
C5144 C5145 1.370 . S
C5144 C5146 1.363 . S
C5144 H5160 0.931 . S
C5145 C5144 1.370 . S
C5145 C5149 1.408 . S
C5146 C5144 1.363 . S
C5146 C5147 1.370 . S
C5146 C5150 1.524 . S
C5147 C5139 1.503 . S
C5147 C5146 1.370 . S
C5147 C5148 1.403 . S
C5148 C5147 1.403 . S
C5148 C5149 1.404 . S
C5148 C5151 1.539 . S
C5149 C5145 1.408 . S
C5149 C5148 1.404 . S
C5149 H5161 0.930 . S
C5150 C5146 1.524 . S
C5150 H5162 0.956 . S
C5150 H5163 0.961 . S
C5150 H5164 0.961 . S
C5151 C5148 1.539 . S
C5151 H5165 0.958 . S
C5151 H5166 0.961 . S
C5151 H5167 0.960 . S
H5152 C5136 0.931 . S
H5153 C5141 0.929 . S
H5154 C5142 0.960 . S
H5155 C5142 0.962 . S
H5156 C5142 0.960 . S
H5157 C5143 0.961 . S
H5158 C5143 0.961 . S
H5159 C5143 0.961 . S
H5160 C5144 0.931 . S
H5161 C5149 0.930 . S
H5162 C5150 0.956 . S
H5163 C5150 0.961 . S
H5164 C5150 0.961 . S
H5165 C5151 0.958 . S
H5166 C5151 0.961 . S
H5167 C5151 0.960 . S
C5168 C5169 1.391 . S
C5168 C5170 1.394 . S
C5168 H5184 0.931 . S
C5169 C5168 1.391 . S
C5169 C5173 1.376 . S
C5170 C5168 1.394 . S
C5170 C5171 1.369 . S
C5170 C5174 1.531 . S
C5171 C5170 1.369 . S
C5171 C5172 1.410 . S
C5171 C5179 1.503 . S
C5172 C5171 1.410 . S
C5172 C5173 1.392 . S
C5172 C5175 1.511 . S
C5173 C5169 1.376 . S
C5173 C5172 1.392 . S
C5173 H5185 0.929 . S
C5174 C5170 1.531 . S
C5174 H5186 0.960 . S
C5174 H5187 0.962 . S
C5174 H5188 0.960 . S
C5175 C5172 1.511 . S
C5175 H5189 0.961 . S
C5175 H5190 0.961 . S
C5175 H5191 0.961 . S
C5176 C5177 1.370 . S
C5176 C5178 1.363 . S
C5176 H5192 0.931 . S
C5177 C5176 1.370 . S
C5177 C5181 1.408 . S
C5178 C5176 1.363 . S
C5178 C5179 1.370 . S
C5178 C5182 1.524 . S
C5179 C5171 1.503 . S
C5179 C5178 1.370 . S
C5179 C5180 1.403 . S
C5180 C5179 1.403 . S
C5180 C5181 1.404 . S
C5180 C5183 1.539 . S
C5181 C5177 1.408 . S
C5181 C5180 1.404 . S
C5181 H5193 0.930 . S
C5182 C5178 1.524 . S
C5182 H5194 0.956 . S
C5182 H5195 0.961 . S
C5182 H5196 0.961 . S
C5183 C5180 1.539 . S
C5183 H5197 0.958 . S
C5183 H5198 0.961 . S
C5183 H5199 0.960 . S
H5184 C5168 0.931 . S
H5185 C5173 0.929 . S
H5186 C5174 0.960 . S
H5187 C5174 0.962 . S
H5188 C5174 0.960 . S
H5189 C5175 0.961 . S
H5190 C5175 0.961 . S
H5191 C5175 0.961 . S
H5192 C5176 0.931 . S
H5193 C5181 0.930 . S
H5194 C5182 0.956 . S
H5195 C5182 0.961 . S
H5196 C5182 0.961 . S
H5197 C5183 0.958 . S
H5198 C5183 0.961 . S
H5199 C5183 0.960 . S
C5200 C5201 1.391 . S
C5200 C5202 1.394 . S
C5200 H5216 0.931 . S
C5201 C5200 1.391 . S
C5201 C5205 1.376 . S
C5202 C5200 1.394 . S
C5202 C5203 1.369 . S
C5202 C5206 1.531 . S
C5203 C5202 1.369 . S
C5203 C5204 1.410 . S
C5203 C5211 1.503 . S
C5204 C5203 1.410 . S
C5204 C5205 1.392 . S
C5204 C5207 1.511 . S
C5205 C5201 1.376 . S
C5205 C5204 1.392 . S
C5205 H5217 0.929 . S
C5206 C5202 1.531 . S
C5206 H5218 0.960 . S
C5206 H5219 0.962 . S
C5206 H5220 0.960 . S
C5207 C5204 1.511 . S
C5207 H5221 0.961 . S
C5207 H5222 0.961 . S
C5207 H5223 0.961 . S
C5208 C5209 1.370 . S
C5208 C5210 1.363 . S
C5208 H5224 0.931 . S
C5209 C5208 1.370 . S
C5209 C5213 1.408 . S
C5210 C5208 1.363 . S
C5210 C5211 1.370 . S
C5210 C5214 1.524 . S
C5211 C5203 1.503 . S
C5211 C5210 1.370 . S
C5211 C5212 1.403 . S
C5212 C5211 1.403 . S
C5212 C5213 1.404 . S
C5212 C5215 1.539 . S
C5213 C5209 1.408 . S
C5213 C5212 1.404 . S
C5213 H5225 0.930 . S
C5214 C5210 1.524 . S
C5214 H5226 0.956 . S
C5214 H5227 0.961 . S
C5214 H5228 0.961 . S
C5215 C5212 1.539 . S
C5215 H5229 0.958 . S
C5215 H5230 0.961 . S
C5215 H5231 0.960 . S
H5216 C5200 0.931 . S
H5217 C5205 0.929 . S
H5218 C5206 0.960 . S
H5219 C5206 0.962 . S
H5220 C5206 0.960 . S
H5221 C5207 0.961 . S
H5222 C5207 0.961 . S
H5223 C5207 0.961 . S
H5224 C5208 0.931 . S
H5225 C5213 0.930 . S
H5226 C5214 0.956 . S
H5227 C5214 0.961 . S
H5228 C5214 0.961 . S
H5229 C5215 0.958 . S
H5230 C5215 0.961 . S
H5231 C5215 0.960 . S
C5232 C5233 1.391 . S
C5232 C5234 1.394 . S
C5232 H5248 0.931 . S
C5233 C5232 1.391 . S
C5233 C5237 1.376 . S
C5234 C5232 1.394 . S
C5234 C5235 1.369 . S
C5234 C5238 1.531 . S
C5235 C5234 1.369 . S
C5235 C5236 1.410 . S
C5235 C5243 1.503 . S
C5236 C5235 1.410 . S
C5236 C5237 1.392 . S
C5236 C5239 1.511 . S
C5237 C5233 1.376 . S
C5237 C5236 1.392 . S
C5237 H5249 0.929 . S
C5238 C5234 1.531 . S
C5238 H5250 0.960 . S
C5238 H5251 0.962 . S
C5238 H5252 0.960 . S
C5239 C5236 1.511 . S
C5239 H5253 0.961 . S
C5239 H5254 0.961 . S
C5239 H5255 0.961 . S
C5240 C5241 1.370 . S
C5240 C5242 1.363 . S
C5240 H5256 0.931 . S
C5241 C5240 1.370 . S
C5241 C5245 1.408 . S
C5242 C5240 1.363 . S
C5242 C5243 1.370 . S
C5242 C5246 1.524 . S
C5243 C5235 1.503 . S
C5243 C5242 1.370 . S
C5243 C5244 1.403 . S
C5244 C5243 1.403 . S
C5244 C5245 1.404 . S
C5244 C5247 1.539 . S
C5245 C5241 1.408 . S
C5245 C5244 1.404 . S
C5245 H5257 0.930 . S
C5246 C5242 1.524 . S
C5246 H5258 0.956 . S
C5246 H5259 0.961 . S
C5246 H5260 0.961 . S
C5247 C5244 1.539 . S
C5247 H5261 0.958 . S
C5247 H5262 0.961 . S
C5247 H5263 0.960 . S
H5248 C5232 0.931 . S
H5249 C5237 0.929 . S
H5250 C5238 0.960 . S
H5251 C5238 0.962 . S
H5252 C5238 0.960 . S
H5253 C5239 0.961 . S
H5254 C5239 0.961 . S
H5255 C5239 0.961 . S
H5256 C5240 0.931 . S
H5257 C5245 0.930 . S
H5258 C5246 0.956 . S
H5259 C5246 0.961 . S
H5260 C5246 0.961 . S
H5261 C5247 0.958 . S
H5262 C5247 0.961 . S
H5263 C5247 0.960 . S
C5264 C5265 1.391 . S
C5264 C5266 1.394 . S
C5264 H5280 0.931 . S
C5265 C5264 1.391 . S
C5265 C5269 1.376 . S
C5266 C5264 1.394 . S
C5266 C5267 1.369 . S
C5266 C5270 1.531 . S
C5267 C5266 1.369 . S
C5267 C5268 1.410 . S
C5267 C5275 1.503 . S
C5268 C5267 1.410 . S
C5268 C5269 1.392 . S
C5268 C5271 1.511 . S
C5269 C5265 1.376 . S
C5269 C5268 1.392 . S
C5269 H5281 0.929 . S
C5270 C5266 1.531 . S
C5270 H5282 0.960 . S
C5270 H5283 0.962 . S
C5270 H5284 0.960 . S
C5271 C5268 1.511 . S
C5271 H5285 0.961 . S
C5271 H5286 0.961 . S
C5271 H5287 0.961 . S
C5272 C5273 1.370 . S
C5272 C5274 1.363 . S
C5272 H5288 0.931 . S
C5273 C5272 1.370 . S
C5273 C5277 1.408 . S
C5274 C5272 1.363 . S
C5274 C5275 1.370 . S
C5274 C5278 1.524 . S
C5275 C5267 1.503 . S
C5275 C5274 1.370 . S
C5275 C5276 1.403 . S
C5276 C5275 1.403 . S
C5276 C5277 1.404 . S
C5276 C5279 1.539 . S
C5277 C5273 1.408 . S
C5277 C5276 1.404 . S
C5277 H5289 0.930 . S
C5278 C5274 1.524 . S
C5278 H5290 0.956 . S
C5278 H5291 0.961 . S
C5278 H5292 0.961 . S
C5279 C5276 1.539 . S
C5279 H5293 0.958 . S
C5279 H5294 0.961 . S
C5279 H5295 0.960 . S
H5280 C5264 0.931 . S
H5281 C5269 0.929 . S
H5282 C5270 0.960 . S
H5283 C5270 0.962 . S
H5284 C5270 0.960 . S
H5285 C5271 0.961 . S
H5286 C5271 0.961 . S
H5287 C5271 0.961 . S
H5288 C5272 0.931 . S
H5289 C5277 0.930 . S
H5290 C5278 0.956 . S
H5291 C5278 0.961 . S
H5292 C5278 0.961 . S
H5293 C5279 0.958 . S
H5294 C5279 0.961 . S
H5295 C5279 0.960 . S
C5296 C5297 1.391 . S
C5296 C5298 1.394 . S
C5296 H5312 0.931 . S
C5297 C5296 1.391 . S
C5297 C5301 1.376 . S
C5298 C5296 1.394 . S
C5298 C5299 1.369 . S
C5298 C5302 1.531 . S
C5299 C5298 1.369 . S
C5299 C5300 1.410 . S
C5299 C5307 1.503 . S
C5300 C5299 1.410 . S
C5300 C5301 1.392 . S
C5300 C5303 1.511 . S
C5301 C5297 1.376 . S
C5301 C5300 1.392 . S
C5301 H5313 0.929 . S
C5302 C5298 1.531 . S
C5302 H5314 0.960 . S
C5302 H5315 0.962 . S
C5302 H5316 0.960 . S
C5303 C5300 1.511 . S
C5303 H5317 0.961 . S
C5303 H5318 0.961 . S
C5303 H5319 0.961 . S
C5304 C5305 1.370 . S
C5304 C5306 1.363 . S
C5304 H5320 0.931 . S
C5305 C5304 1.370 . S
C5305 C5309 1.408 . S
C5306 C5304 1.363 . S
C5306 C5307 1.370 . S
C5306 C5310 1.524 . S
C5307 C5299 1.503 . S
C5307 C5306 1.370 . S
C5307 C5308 1.403 . S
C5308 C5307 1.403 . S
C5308 C5309 1.404 . S
C5308 C5311 1.539 . S
C5309 C5305 1.408 . S
C5309 C5308 1.404 . S
C5309 H5321 0.930 . S
C5310 C5306 1.524 . S
C5310 H5322 0.956 . S
C5310 H5323 0.961 . S
C5310 H5324 0.961 . S
C5311 C5308 1.539 . S
C5311 H5325 0.958 . S
C5311 H5326 0.961 . S
C5311 H5327 0.960 . S
H5312 C5296 0.931 . S
H5313 C5301 0.929 . S
H5314 C5302 0.960 . S
H5315 C5302 0.962 . S
H5316 C5302 0.960 . S
H5317 C5303 0.961 . S
H5318 C5303 0.961 . S
H5319 C5303 0.961 . S
H5320 C5304 0.931 . S
H5321 C5309 0.930 . S
H5322 C5310 0.956 . S
H5323 C5310 0.961 . S
H5324 C5310 0.961 . S
H5325 C5311 0.958 . S
H5326 C5311 0.961 . S
H5327 C5311 0.960 . S
C5328 C5329 1.391 . S
C5328 C5330 1.394 . S
C5328 H5344 0.931 . S
C5329 C5328 1.391 . S
C5329 C5333 1.376 . S
C5330 C5328 1.394 . S
C5330 C5331 1.369 . S
C5330 C5334 1.531 . S
C5331 C5330 1.369 . S
C5331 C5332 1.410 . S
C5331 C5339 1.503 . S
C5332 C5331 1.410 . S
C5332 C5333 1.392 . S
C5332 C5335 1.511 . S
C5333 C5329 1.376 . S
C5333 C5332 1.392 . S
C5333 H5345 0.929 . S
C5334 C5330 1.531 . S
C5334 H5346 0.960 . S
C5334 H5347 0.962 . S
C5334 H5348 0.960 . S
C5335 C5332 1.511 . S
C5335 H5349 0.961 . S
C5335 H5350 0.961 . S
C5335 H5351 0.961 . S
C5336 C5337 1.370 . S
C5336 C5338 1.363 . S
C5336 H5352 0.931 . S
C5337 C5336 1.370 . S
C5337 C5341 1.408 . S
C5338 C5336 1.363 . S
C5338 C5339 1.370 . S
C5338 C5342 1.524 . S
C5339 C5331 1.503 . S
C5339 C5338 1.370 . S
C5339 C5340 1.403 . S
C5340 C5339 1.403 . S
C5340 C5341 1.404 . S
C5340 C5343 1.539 . S
C5341 C5337 1.408 . S
C5341 C5340 1.404 . S
C5341 H5353 0.930 . S
C5342 C5338 1.524 . S
C5342 H5354 0.956 . S
C5342 H5355 0.961 . S
C5342 H5356 0.961 . S
C5343 C5340 1.539 . S
C5343 H5357 0.958 . S
C5343 H5358 0.961 . S
C5343 H5359 0.960 . S
H5344 C5328 0.931 . S
H5345 C5333 0.929 . S
H5346 C5334 0.960 . S
H5347 C5334 0.962 . S
H5348 C5334 0.960 . S
H5349 C5335 0.961 . S
H5350 C5335 0.961 . S
H5351 C5335 0.961 . S
H5352 C5336 0.931 . S
H5353 C5341 0.930 . S
H5354 C5342 0.956 . S
H5355 C5342 0.961 . S
H5356 C5342 0.961 . S
H5357 C5343 0.958 . S
H5358 C5343 0.961 . S
H5359 C5343 0.960 . S
C5360 C5361 1.391 . S
C5360 C5362 1.394 . S
C5360 H5376 0.931 . S
C5361 C5360 1.391 . S
C5361 C5365 1.376 . S
C5362 C5360 1.394 . S
C5362 C5363 1.369 . S
C5362 C5366 1.531 . S
C5363 C5362 1.369 . S
C5363 C5364 1.410 . S
C5363 C5371 1.503 . S
C5364 C5363 1.410 . S
C5364 C5365 1.392 . S
C5364 C5367 1.511 . S
C5365 C5361 1.376 . S
C5365 C5364 1.392 . S
C5365 H5377 0.929 . S
C5366 C5362 1.531 . S
C5366 H5378 0.960 . S
C5366 H5379 0.962 . S
C5366 H5380 0.960 . S
C5367 C5364 1.511 . S
C5367 H5381 0.961 . S
C5367 H5382 0.961 . S
C5367 H5383 0.961 . S
C5368 C5369 1.370 . S
C5368 C5370 1.363 . S
C5368 H5384 0.931 . S
C5369 C5368 1.370 . S
C5369 C5373 1.408 . S
C5370 C5368 1.363 . S
C5370 C5371 1.370 . S
C5370 C5374 1.524 . S
C5371 C5363 1.503 . S
C5371 C5370 1.370 . S
C5371 C5372 1.403 . S
C5372 C5371 1.403 . S
C5372 C5373 1.404 . S
C5372 C5375 1.539 . S
C5373 C5369 1.408 . S
C5373 C5372 1.404 . S
C5373 H5385 0.930 . S
C5374 C5370 1.524 . S
C5374 H5386 0.956 . S
C5374 H5387 0.961 . S
C5374 H5388 0.961 . S
C5375 C5372 1.539 . S
C5375 H5389 0.958 . S
C5375 H5390 0.961 . S
C5375 H5391 0.960 . S
H5376 C5360 0.931 . S
H5377 C5365 0.929 . S
H5378 C5366 0.960 . S
H5379 C5366 0.962 . S
H5380 C5366 0.960 . S
H5381 C5367 0.961 . S
H5382 C5367 0.961 . S
H5383 C5367 0.961 . S
H5384 C5368 0.931 . S
H5385 C5373 0.930 . S
H5386 C5374 0.956 . S
H5387 C5374 0.961 . S
H5388 C5374 0.961 . S
H5389 C5375 0.958 . S
H5390 C5375 0.961 . S
H5391 C5375 0.960 . S
C5392 C5393 1.391 . S
C5392 C5394 1.394 . S
C5392 H5408 0.931 . S
C5393 C5392 1.391 . S
C5393 C5397 1.376 . S
C5394 C5392 1.394 . S
C5394 C5395 1.369 . S
C5394 C5398 1.531 . S
C5395 C5394 1.369 . S
C5395 C5396 1.410 . S
C5395 C5403 1.503 . S
C5396 C5395 1.410 . S
C5396 C5397 1.392 . S
C5396 C5399 1.511 . S
C5397 C5393 1.376 . S
C5397 C5396 1.392 . S
C5397 H5409 0.929 . S
C5398 C5394 1.531 . S
C5398 H5410 0.960 . S
C5398 H5411 0.962 . S
C5398 H5412 0.960 . S
C5399 C5396 1.511 . S
C5399 H5413 0.961 . S
C5399 H5414 0.961 . S
C5399 H5415 0.961 . S
C5400 C5401 1.370 . S
C5400 C5402 1.363 . S
C5400 H5416 0.931 . S
C5401 C5400 1.370 . S
C5401 C5405 1.408 . S
C5402 C5400 1.363 . S
C5402 C5403 1.370 . S
C5402 C5406 1.524 . S
C5403 C5395 1.503 . S
C5403 C5402 1.370 . S
C5403 C5404 1.403 . S
C5404 C5403 1.403 . S
C5404 C5405 1.404 . S
C5404 C5407 1.539 . S
C5405 C5401 1.408 . S
C5405 C5404 1.404 . S
C5405 H5417 0.930 . S
C5406 C5402 1.524 . S
C5406 H5418 0.956 . S
C5406 H5419 0.961 . S
C5406 H5420 0.961 . S
C5407 C5404 1.539 . S
C5407 H5421 0.958 . S
C5407 H5422 0.961 . S
C5407 H5423 0.960 . S
H5408 C5392 0.931 . S
H5409 C5397 0.929 . S
H5410 C5398 0.960 . S
H5411 C5398 0.962 . S
H5412 C5398 0.960 . S
H5413 C5399 0.961 . S
H5414 C5399 0.961 . S
H5415 C5399 0.961 . S
H5416 C5400 0.931 . S
H5417 C5405 0.930 . S
H5418 C5406 0.956 . S
H5419 C5406 0.961 . S
H5420 C5406 0.961 . S
H5421 C5407 0.958 . S
H5422 C5407 0.961 . S
H5423 C5407 0.960 . S
C5424 C5425 1.391 . S
C5424 C5426 1.394 . S
C5424 H5440 0.931 . S
C5425 C5424 1.391 . S
C5425 C5429 1.376 . S
C5426 C5424 1.394 . S
C5426 C5427 1.369 . S
C5426 C5430 1.531 . S
C5427 C5426 1.369 . S
C5427 C5428 1.410 . S
C5427 C5435 1.503 . S
C5428 C5427 1.410 . S
C5428 C5429 1.392 . S
C5428 C5431 1.511 . S
C5429 C5425 1.376 . S
C5429 C5428 1.392 . S
C5429 H5441 0.929 . S
C5430 C5426 1.531 . S
C5430 H5442 0.960 . S
C5430 H5443 0.962 . S
C5430 H5444 0.960 . S
C5431 C5428 1.511 . S
C5431 H5445 0.961 . S
C5431 H5446 0.961 . S
C5431 H5447 0.961 . S
C5432 C5433 1.370 . S
C5432 C5434 1.363 . S
C5432 H5448 0.931 . S
C5433 C5432 1.370 . S
C5433 C5437 1.408 . S
C5434 C5432 1.363 . S
C5434 C5435 1.370 . S
C5434 C5438 1.524 . S
C5435 C5427 1.503 . S
C5435 C5434 1.370 . S
C5435 C5436 1.403 . S
C5436 C5435 1.403 . S
C5436 C5437 1.404 . S
C5436 C5439 1.539 . S
C5437 C5433 1.408 . S
C5437 C5436 1.404 . S
C5437 H5449 0.930 . S
C5438 C5434 1.524 . S
C5438 H5450 0.956 . S
C5438 H5451 0.961 . S
C5438 H5452 0.961 . S
C5439 C5436 1.539 . S
C5439 H5453 0.958 . S
C5439 H5454 0.961 . S
C5439 H5455 0.960 . S
H5440 C5424 0.931 . S
H5441 C5429 0.929 . S
H5442 C5430 0.960 . S
H5443 C5430 0.962 . S
H5444 C5430 0.960 . S
H5445 C5431 0.961 . S
H5446 C5431 0.961 . S
H5447 C5431 0.961 . S
H5448 C5432 0.931 . S
H5449 C5437 0.930 . S
H5450 C5438 0.956 . S
H5451 C5438 0.961 . S
H5452 C5438 0.961 . S
H5453 C5439 0.958 . S
H5454 C5439 0.961 . S
H5455 C5439 0.960 . S
C5456 C5457 1.391 . S
C5456 C5458 1.394 . S
C5456 H5472 0.931 . S
C5457 C5456 1.391 . S
C5457 C5461 1.376 . S
C5458 C5456 1.394 . S
C5458 C5459 1.369 . S
C5458 C5462 1.531 . S
C5459 C5458 1.369 . S
C5459 C5460 1.410 . S
C5459 C5467 1.503 . S
C5460 C5459 1.410 . S
C5460 C5461 1.392 . S
C5460 C5463 1.511 . S
C5461 C5457 1.376 . S
C5461 C5460 1.392 . S
C5461 H5473 0.929 . S
C5462 C5458 1.531 . S
C5462 H5474 0.960 . S
C5462 H5475 0.962 . S
C5462 H5476 0.960 . S
C5463 C5460 1.511 . S
C5463 H5477 0.961 . S
C5463 H5478 0.961 . S
C5463 H5479 0.961 . S
C5464 C5465 1.370 . S
C5464 C5466 1.363 . S
C5464 H5480 0.931 . S
C5465 C5464 1.370 . S
C5465 C5469 1.408 . S
C5466 C5464 1.363 . S
C5466 C5467 1.370 . S
C5466 C5470 1.524 . S
C5467 C5459 1.503 . S
C5467 C5466 1.370 . S
C5467 C5468 1.403 . S
C5468 C5467 1.403 . S
C5468 C5469 1.404 . S
C5468 C5471 1.539 . S
C5469 C5465 1.408 . S
C5469 C5468 1.404 . S
C5469 H5481 0.930 . S
C5470 C5466 1.524 . S
C5470 H5482 0.956 . S
C5470 H5483 0.961 . S
C5470 H5484 0.961 . S
C5471 C5468 1.539 . S
C5471 H5485 0.958 . S
C5471 H5486 0.961 . S
C5471 H5487 0.960 . S
H5472 C5456 0.931 . S
H5473 C5461 0.929 . S
H5474 C5462 0.960 . S
H5475 C5462 0.962 . S
H5476 C5462 0.960 . S
H5477 C5463 0.961 . S
H5478 C5463 0.961 . S
H5479 C5463 0.961 . S
H5480 C5464 0.931 . S
H5481 C5469 0.930 . S
H5482 C5470 0.956 . S
H5483 C5470 0.961 . S
H5484 C5470 0.961 . S
H5485 C5471 0.958 . S
H5486 C5471 0.961 . S
H5487 C5471 0.960 . S
C5488 C5489 1.391 . S
C5488 C5490 1.394 . S
C5488 H5504 0.931 . S
C5489 C5488 1.391 . S
C5489 C5493 1.376 . S
C5490 C5488 1.394 . S
C5490 C5491 1.369 . S
C5490 C5494 1.531 . S
C5491 C5490 1.369 . S
C5491 C5492 1.410 . S
C5491 C5499 1.503 . S
C5492 C5491 1.410 . S
C5492 C5493 1.392 . S
C5492 C5495 1.511 . S
C5493 C5489 1.376 . S
C5493 C5492 1.392 . S
C5493 H5505 0.929 . S
C5494 C5490 1.531 . S
C5494 H5506 0.960 . S
C5494 H5507 0.962 . S
C5494 H5508 0.960 . S
C5495 C5492 1.511 . S
C5495 H5509 0.961 . S
C5495 H5510 0.961 . S
C5495 H5511 0.961 . S
C5496 C5497 1.370 . S
C5496 C5498 1.363 . S
C5496 H5512 0.931 . S
C5497 C5496 1.370 . S
C5497 C5501 1.408 . S
C5498 C5496 1.363 . S
C5498 C5499 1.370 . S
C5498 C5502 1.524 . S
C5499 C5491 1.503 . S
C5499 C5498 1.370 . S
C5499 C5500 1.403 . S
C5500 C5499 1.403 . S
C5500 C5501 1.404 . S
C5500 C5503 1.539 . S
C5501 C5497 1.408 . S
C5501 C5500 1.404 . S
C5501 H5513 0.930 . S
C5502 C5498 1.524 . S
C5502 H5514 0.956 . S
C5502 H5515 0.961 . S
C5502 H5516 0.961 . S
C5503 C5500 1.539 . S
C5503 H5517 0.958 . S
C5503 H5518 0.961 . S
C5503 H5519 0.960 . S
H5504 C5488 0.931 . S
H5505 C5493 0.929 . S
H5506 C5494 0.960 . S
H5507 C5494 0.962 . S
H5508 C5494 0.960 . S
H5509 C5495 0.961 . S
H5510 C5495 0.961 . S
H5511 C5495 0.961 . S
H5512 C5496 0.931 . S
H5513 C5501 0.930 . S
H5514 C5502 0.956 . S
H5515 C5502 0.961 . S
H5516 C5502 0.961 . S
H5517 C5503 0.958 . S
H5518 C5503 0.961 . S
H5519 C5503 0.960 . S
C5520 C5521 1.391 . S
C5520 C5522 1.394 . S
C5520 H5536 0.931 . S
C5521 C5520 1.391 . S
C5521 C5525 1.376 . S
C5522 C5520 1.394 . S
C5522 C5523 1.369 . S
C5522 C5526 1.531 . S
C5523 C5522 1.369 . S
C5523 C5524 1.410 . S
C5523 C5531 1.503 . S
C5524 C5523 1.410 . S
C5524 C5525 1.392 . S
C5524 C5527 1.511 . S
C5525 C5521 1.376 . S
C5525 C5524 1.392 . S
C5525 H5537 0.929 . S
C5526 C5522 1.531 . S
C5526 H5538 0.960 . S
C5526 H5539 0.962 . S
C5526 H5540 0.960 . S
C5527 C5524 1.511 . S
C5527 H5541 0.961 . S
C5527 H5542 0.961 . S
C5527 H5543 0.961 . S
C5528 C5529 1.370 . S
C5528 C5530 1.363 . S
C5528 H5544 0.931 . S
C5529 C5528 1.370 . S
C5529 C5533 1.408 . S
C5530 C5528 1.363 . S
C5530 C5531 1.370 . S
C5530 C5534 1.524 . S
C5531 C5523 1.503 . S
C5531 C5530 1.370 . S
C5531 C5532 1.403 . S
C5532 C5531 1.403 . S
C5532 C5533 1.404 . S
C5532 C5535 1.539 . S
C5533 C5529 1.408 . S
C5533 C5532 1.404 . S
C5533 H5545 0.930 . S
C5534 C5530 1.524 . S
C5534 H5546 0.956 . S
C5534 H5547 0.961 . S
C5534 H5548 0.961 . S
C5535 C5532 1.539 . S
C5535 H5549 0.958 . S
C5535 H5550 0.961 . S
C5535 H5551 0.960 . S
H5536 C5520 0.931 . S
H5537 C5525 0.929 . S
H5538 C5526 0.960 . S
H5539 C5526 0.962 . S
H5540 C5526 0.960 . S
H5541 C5527 0.961 . S
H5542 C5527 0.961 . S
H5543 C5527 0.961 . S
H5544 C5528 0.931 . S
H5545 C5533 0.930 . S
H5546 C5534 0.956 . S
H5547 C5534 0.961 . S
H5548 C5534 0.961 . S
H5549 C5535 0.958 . S
H5550 C5535 0.961 . S
H5551 C5535 0.960 . S
C5552 C5553 1.391 . S
C5552 C5554 1.394 . S
C5552 H5568 0.931 . S
C5553 C5552 1.391 . S
C5553 C5557 1.376 . S
C5554 C5552 1.394 . S
C5554 C5555 1.369 . S
C5554 C5558 1.531 . S
C5555 C5554 1.369 . S
C5555 C5556 1.410 . S
C5555 C5563 1.503 . S
C5556 C5555 1.410 . S
C5556 C5557 1.392 . S
C5556 C5559 1.511 . S
C5557 C5553 1.376 . S
C5557 C5556 1.392 . S
C5557 H5569 0.929 . S
C5558 C5554 1.531 . S
C5558 H5570 0.960 . S
C5558 H5571 0.962 . S
C5558 H5572 0.960 . S
C5559 C5556 1.511 . S
C5559 H5573 0.961 . S
C5559 H5574 0.961 . S
C5559 H5575 0.961 . S
C5560 C5561 1.370 . S
C5560 C5562 1.363 . S
C5560 H5576 0.931 . S
C5561 C5560 1.370 . S
C5561 C5565 1.408 . S
C5562 C5560 1.363 . S
C5562 C5563 1.370 . S
C5562 C5566 1.524 . S
C5563 C5555 1.503 . S
C5563 C5562 1.370 . S
C5563 C5564 1.403 . S
C5564 C5563 1.403 . S
C5564 C5565 1.404 . S
C5564 C5567 1.539 . S
C5565 C5561 1.408 . S
C5565 C5564 1.404 . S
C5565 H5577 0.930 . S
C5566 C5562 1.524 . S
C5566 H5578 0.956 . S
C5566 H5579 0.961 . S
C5566 H5580 0.961 . S
C5567 C5564 1.539 . S
C5567 H5581 0.958 . S
C5567 H5582 0.961 . S
C5567 H5583 0.960 . S
H5568 C5552 0.931 . S
H5569 C5557 0.929 . S
H5570 C5558 0.960 . S
H5571 C5558 0.962 . S
H5572 C5558 0.960 . S
H5573 C5559 0.961 . S
H5574 C5559 0.961 . S
H5575 C5559 0.961 . S
H5576 C5560 0.931 . S
H5577 C5565 0.930 . S
H5578 C5566 0.956 . S
H5579 C5566 0.961 . S
H5580 C5566 0.961 . S
H5581 C5567 0.958 . S
H5582 C5567 0.961 . S
H5583 C5567 0.960 . S
C5584 C5585 1.391 . S
C5584 C5586 1.394 . S
C5584 H5600 0.931 . S
C5585 C5584 1.391 . S
C5585 C5589 1.376 . S
C5586 C5584 1.394 . S
C5586 C5587 1.369 . S
C5586 C5590 1.531 . S
C5587 C5586 1.369 . S
C5587 C5588 1.410 . S
C5587 C5595 1.503 . S
C5588 C5587 1.410 . S
C5588 C5589 1.392 . S
C5588 C5591 1.511 . S
C5589 C5585 1.376 . S
C5589 C5588 1.392 . S
C5589 H5601 0.929 . S
C5590 C5586 1.531 . S
C5590 H5602 0.960 . S
C5590 H5603 0.962 . S
C5590 H5604 0.960 . S
C5591 C5588 1.511 . S
C5591 H5605 0.961 . S
C5591 H5606 0.961 . S
C5591 H5607 0.961 . S
C5592 C5593 1.370 . S
C5592 C5594 1.363 . S
C5592 H5608 0.931 . S
C5593 C5592 1.370 . S
C5593 C5597 1.408 . S
C5594 C5592 1.363 . S
C5594 C5595 1.370 . S
C5594 C5598 1.524 . S
C5595 C5587 1.503 . S
C5595 C5594 1.370 . S
C5595 C5596 1.403 . S
C5596 C5595 1.403 . S
C5596 C5597 1.404 . S
C5596 C5599 1.539 . S
C5597 C5593 1.408 . S
C5597 C5596 1.404 . S
C5597 H5609 0.930 . S
C5598 C5594 1.524 . S
C5598 H5610 0.956 . S
C5598 H5611 0.961 . S
C5598 H5612 0.961 . S
C5599 C5596 1.539 . S
C5599 H5613 0.958 . S
C5599 H5614 0.961 . S
C5599 H5615 0.960 . S
H5600 C5584 0.931 . S
H5601 C5589 0.929 . S
H5602 C5590 0.960 . S
H5603 C5590 0.962 . S
H5604 C5590 0.960 . S
H5605 C5591 0.961 . S
H5606 C5591 0.961 . S
H5607 C5591 0.961 . S
H5608 C5592 0.931 . S
H5609 C5597 0.930 . S
H5610 C5598 0.956 . S
H5611 C5598 0.961 . S
H5612 C5598 0.961 . S
H5613 C5599 0.958 . S
H5614 C5599 0.961 . S
H5615 C5599 0.960 . S
C5616 C5617 1.391 . S
C5616 C5618 1.394 . S
C5616 H5632 0.931 . S
C5617 C5616 1.391 . S
C5617 C5621 1.376 . S
C5618 C5616 1.394 . S
C5618 C5619 1.369 . S
C5618 C5622 1.531 . S
C5619 C5618 1.369 . S
C5619 C5620 1.410 . S
C5619 C5627 1.503 . S
C5620 C5619 1.410 . S
C5620 C5621 1.392 . S
C5620 C5623 1.511 . S
C5621 C5617 1.376 . S
C5621 C5620 1.392 . S
C5621 H5633 0.929 . S
C5622 C5618 1.531 . S
C5622 H5634 0.960 . S
C5622 H5635 0.962 . S
C5622 H5636 0.960 . S
C5623 C5620 1.511 . S
C5623 H5637 0.961 . S
C5623 H5638 0.961 . S
C5623 H5639 0.961 . S
C5624 C5625 1.370 . S
C5624 C5626 1.363 . S
C5624 H5640 0.931 . S
C5625 C5624 1.370 . S
C5625 C5629 1.408 . S
C5626 C5624 1.363 . S
C5626 C5627 1.370 . S
C5626 C5630 1.524 . S
C5627 C5619 1.503 . S
C5627 C5626 1.370 . S
C5627 C5628 1.403 . S
C5628 C5627 1.403 . S
C5628 C5629 1.404 . S
C5628 C5631 1.539 . S
C5629 C5625 1.408 . S
C5629 C5628 1.404 . S
C5629 H5641 0.930 . S
C5630 C5626 1.524 . S
C5630 H5642 0.956 . S
C5630 H5643 0.961 . S
C5630 H5644 0.961 . S
C5631 C5628 1.539 . S
C5631 H5645 0.958 . S
C5631 H5646 0.961 . S
C5631 H5647 0.960 . S
H5632 C5616 0.931 . S
H5633 C5621 0.929 . S
H5634 C5622 0.960 . S
H5635 C5622 0.962 . S
H5636 C5622 0.960 . S
H5637 C5623 0.961 . S
H5638 C5623 0.961 . S
H5639 C5623 0.961 . S
H5640 C5624 0.931 . S
H5641 C5629 0.930 . S
H5642 C5630 0.956 . S
H5643 C5630 0.961 . S
H5644 C5630 0.961 . S
H5645 C5631 0.958 . S
H5646 C5631 0.961 . S
H5647 C5631 0.960 . S
C5648 C5649 1.391 . S
C5648 C5650 1.394 . S
C5648 H5664 0.931 . S
C5649 C5648 1.391 . S
C5649 C5653 1.376 . S
C5650 C5648 1.394 . S
C5650 C5651 1.369 . S
C5650 C5654 1.531 . S
C5651 C5650 1.369 . S
C5651 C5652 1.410 . S
C5651 C5659 1.503 . S
C5652 C5651 1.410 . S
C5652 C5653 1.392 . S
C5652 C5655 1.511 . S
C5653 C5649 1.376 . S
C5653 C5652 1.392 . S
C5653 H5665 0.929 . S
C5654 C5650 1.531 . S
C5654 H5666 0.960 . S
C5654 H5667 0.962 . S
C5654 H5668 0.960 . S
C5655 C5652 1.511 . S
C5655 H5669 0.961 . S
C5655 H5670 0.961 . S
C5655 H5671 0.961 . S
C5656 C5657 1.370 . S
C5656 C5658 1.363 . S
C5656 H5672 0.931 . S
C5657 C5656 1.370 . S
C5657 C5661 1.408 . S
C5658 C5656 1.363 . S
C5658 C5659 1.370 . S
C5658 C5662 1.524 . S
C5659 C5651 1.503 . S
C5659 C5658 1.370 . S
C5659 C5660 1.403 . S
C5660 C5659 1.403 . S
C5660 C5661 1.404 . S
C5660 C5663 1.539 . S
C5661 C5657 1.408 . S
C5661 C5660 1.404 . S
C5661 H5673 0.930 . S
C5662 C5658 1.524 . S
C5662 H5674 0.956 . S
C5662 H5675 0.961 . S
C5662 H5676 0.961 . S
C5663 C5660 1.539 . S
C5663 H5677 0.958 . S
C5663 H5678 0.961 . S
C5663 H5679 0.960 . S
H5664 C5648 0.931 . S
H5665 C5653 0.929 . S
H5666 C5654 0.960 . S
H5667 C5654 0.962 . S
H5668 C5654 0.960 . S
H5669 C5655 0.961 . S
H5670 C5655 0.961 . S
H5671 C5655 0.961 . S
H5672 C5656 0.931 . S
H5673 C5661 0.930 . S
H5674 C5662 0.956 . S
H5675 C5662 0.961 . S
H5676 C5662 0.961 . S
H5677 C5663 0.958 . S
H5678 C5663 0.961 . S
H5679 C5663 0.960 . S
C5680 C5681 1.391 . S
C5680 C5682 1.394 . S
C5680 H5696 0.931 . S
C5681 C5680 1.391 . S
C5681 C5685 1.376 . S
C5682 C5680 1.394 . S
C5682 C5683 1.369 . S
C5682 C5686 1.531 . S
C5683 C5682 1.369 . S
C5683 C5684 1.410 . S
C5683 C5691 1.503 . S
C5684 C5683 1.410 . S
C5684 C5685 1.392 . S
C5684 C5687 1.511 . S
C5685 C5681 1.376 . S
C5685 C5684 1.392 . S
C5685 H5697 0.929 . S
C5686 C5682 1.531 . S
C5686 H5698 0.960 . S
C5686 H5699 0.962 . S
C5686 H5700 0.960 . S
C5687 C5684 1.511 . S
C5687 H5701 0.961 . S
C5687 H5702 0.961 . S
C5687 H5703 0.961 . S
C5688 C5689 1.370 . S
C5688 C5690 1.363 . S
C5688 H5704 0.931 . S
C5689 C5688 1.370 . S
C5689 C5693 1.408 . S
C5690 C5688 1.363 . S
C5690 C5691 1.370 . S
C5690 C5694 1.524 . S
C5691 C5683 1.503 . S
C5691 C5690 1.370 . S
C5691 C5692 1.403 . S
C5692 C5691 1.403 . S
C5692 C5693 1.404 . S
C5692 C5695 1.539 . S
C5693 C5689 1.408 . S
C5693 C5692 1.404 . S
C5693 H5705 0.930 . S
C5694 C5690 1.524 . S
C5694 H5706 0.956 . S
C5694 H5707 0.961 . S
C5694 H5708 0.961 . S
C5695 C5692 1.539 . S
C5695 H5709 0.958 . S
C5695 H5710 0.961 . S
C5695 H5711 0.960 . S
H5696 C5680 0.931 . S
H5697 C5685 0.929 . S
H5698 C5686 0.960 . S
H5699 C5686 0.962 . S
H5700 C5686 0.960 . S
H5701 C5687 0.961 . S
H5702 C5687 0.961 . S
H5703 C5687 0.961 . S
H5704 C5688 0.931 . S
H5705 C5693 0.930 . S
H5706 C5694 0.956 . S
H5707 C5694 0.961 . S
H5708 C5694 0.961 . S
H5709 C5695 0.958 . S
H5710 C5695 0.961 . S
H5711 C5695 0.960 . S
C5712 C5713 1.391 . S
C5712 C5714 1.394 . S
C5712 H5728 0.931 . S
C5713 C5712 1.391 . S
C5713 C5717 1.376 . S
C5714 C5712 1.394 . S
C5714 C5715 1.369 . S
C5714 C5718 1.531 . S
C5715 C5714 1.369 . S
C5715 C5716 1.410 . S
C5715 C5723 1.503 . S
C5716 C5715 1.410 . S
C5716 C5717 1.392 . S
C5716 C5719 1.511 . S
C5717 C5713 1.376 . S
C5717 C5716 1.392 . S
C5717 H5729 0.929 . S
C5718 C5714 1.531 . S
C5718 H5730 0.960 . S
C5718 H5731 0.962 . S
C5718 H5732 0.960 . S
C5719 C5716 1.511 . S
C5719 H5733 0.961 . S
C5719 H5734 0.961 . S
C5719 H5735 0.961 . S
C5720 C5721 1.370 . S
C5720 C5722 1.363 . S
C5720 H5736 0.931 . S
C5721 C5720 1.370 . S
C5721 C5725 1.408 . S
C5722 C5720 1.363 . S
C5722 C5723 1.370 . S
C5722 C5726 1.524 . S
C5723 C5715 1.503 . S
C5723 C5722 1.370 . S
C5723 C5724 1.403 . S
C5724 C5723 1.403 . S
C5724 C5725 1.404 . S
C5724 C5727 1.539 . S
C5725 C5721 1.408 . S
C5725 C5724 1.404 . S
C5725 H5737 0.930 . S
C5726 C5722 1.524 . S
C5726 H5738 0.956 . S
C5726 H5739 0.961 . S
C5726 H5740 0.961 . S
C5727 C5724 1.539 . S
C5727 H5741 0.958 . S
C5727 H5742 0.961 . S
C5727 H5743 0.960 . S
H5728 C5712 0.931 . S
H5729 C5717 0.929 . S
H5730 C5718 0.960 . S
H5731 C5718 0.962 . S
H5732 C5718 0.960 . S
H5733 C5719 0.961 . S
H5734 C5719 0.961 . S
H5735 C5719 0.961 . S
H5736 C5720 0.931 . S
H5737 C5725 0.930 . S
H5738 C5726 0.956 . S
H5739 C5726 0.961 . S
H5740 C5726 0.961 . S
H5741 C5727 0.958 . S
H5742 C5727 0.961 . S
H5743 C5727 0.960 . S
C5744 C5745 1.391 . S
C5744 C5746 1.394 . S
C5744 H5760 0.931 . S
C5745 C5744 1.391 . S
C5745 C5749 1.376 . S
C5746 C5744 1.394 . S
C5746 C5747 1.369 . S
C5746 C5750 1.531 . S
C5747 C5746 1.369 . S
C5747 C5748 1.410 . S
C5747 C5755 1.503 . S
C5748 C5747 1.410 . S
C5748 C5749 1.392 . S
C5748 C5751 1.511 . S
C5749 C5745 1.376 . S
C5749 C5748 1.392 . S
C5749 H5761 0.929 . S
C5750 C5746 1.531 . S
C5750 H5762 0.960 . S
C5750 H5763 0.962 . S
C5750 H5764 0.960 . S
C5751 C5748 1.511 . S
C5751 H5765 0.961 . S
C5751 H5766 0.961 . S
C5751 H5767 0.961 . S
C5752 C5753 1.370 . S
C5752 C5754 1.363 . S
C5752 H5768 0.931 . S
C5753 C5752 1.370 . S
C5753 C5757 1.408 . S
C5754 C5752 1.363 . S
C5754 C5755 1.370 . S
C5754 C5758 1.524 . S
C5755 C5747 1.503 . S
C5755 C5754 1.370 . S
C5755 C5756 1.403 . S
C5756 C5755 1.403 . S
C5756 C5757 1.404 . S
C5756 C5759 1.539 . S
C5757 C5753 1.408 . S
C5757 C5756 1.404 . S
C5757 H5769 0.930 . S
C5758 C5754 1.524 . S
C5758 H5770 0.956 . S
C5758 H5771 0.961 . S
C5758 H5772 0.961 . S
C5759 C5756 1.539 . S
C5759 H5773 0.958 . S
C5759 H5774 0.961 . S
C5759 H5775 0.960 . S
H5760 C5744 0.931 . S
H5761 C5749 0.929 . S
H5762 C5750 0.960 . S
H5763 C5750 0.962 . S
H5764 C5750 0.960 . S
H5765 C5751 0.961 . S
H5766 C5751 0.961 . S
H5767 C5751 0.961 . S
H5768 C5752 0.931 . S
H5769 C5757 0.930 . S
H5770 C5758 0.956 . S
H5771 C5758 0.961 . S
H5772 C5758 0.961 . S
H5773 C5759 0.958 . S
H5774 C5759 0.961 . S
H5775 C5759 0.960 . S
C5776 C5777 1.391 . S
C5776 C5778 1.394 . S
C5776 H5792 0.931 . S
C5777 C5776 1.391 . S
C5777 C5781 1.376 . S
C5778 C5776 1.394 . S
C5778 C5779 1.369 . S
C5778 C5782 1.531 . S
C5779 C5778 1.369 . S
C5779 C5780 1.410 . S
C5779 C5787 1.503 . S
C5780 C5779 1.410 . S
C5780 C5781 1.392 . S
C5780 C5783 1.511 . S
C5781 C5777 1.376 . S
C5781 C5780 1.392 . S
C5781 H5793 0.929 . S
C5782 C5778 1.531 . S
C5782 H5794 0.960 . S
C5782 H5795 0.962 . S
C5782 H5796 0.960 . S
C5783 C5780 1.511 . S
C5783 H5797 0.961 . S
C5783 H5798 0.961 . S
C5783 H5799 0.961 . S
C5784 C5785 1.370 . S
C5784 C5786 1.363 . S
C5784 H5800 0.931 . S
C5785 C5784 1.370 . S
C5785 C5789 1.408 . S
C5786 C5784 1.363 . S
C5786 C5787 1.370 . S
C5786 C5790 1.524 . S
C5787 C5779 1.503 . S
C5787 C5786 1.370 . S
C5787 C5788 1.403 . S
C5788 C5787 1.403 . S
C5788 C5789 1.404 . S
C5788 C5791 1.539 . S
C5789 C5785 1.408 . S
C5789 C5788 1.404 . S
C5789 H5801 0.930 . S
C5790 C5786 1.524 . S
C5790 H5802 0.956 . S
C5790 H5803 0.961 . S
C5790 H5804 0.961 . S
C5791 C5788 1.539 . S
C5791 H5805 0.958 . S
C5791 H5806 0.961 . S
C5791 H5807 0.960 . S
H5792 C5776 0.931 . S
H5793 C5781 0.929 . S
H5794 C5782 0.960 . S
H5795 C5782 0.962 . S
H5796 C5782 0.960 . S
H5797 C5783 0.961 . S
H5798 C5783 0.961 . S
H5799 C5783 0.961 . S
H5800 C5784 0.931 . S
H5801 C5789 0.930 . S
H5802 C5790 0.956 . S
H5803 C5790 0.961 . S
H5804 C5790 0.961 . S
H5805 C5791 0.958 . S
H5806 C5791 0.961 . S
H5807 C5791 0.960 . S
C5808 C5809 1.391 . S
C5808 C5810 1.394 . S
C5808 H5824 0.931 . S
C5809 C5808 1.391 . S
C5809 C5813 1.376 . S
C5810 C5808 1.394 . S
C5810 C5811 1.369 . S
C5810 C5814 1.531 . S
C5811 C5810 1.369 . S
C5811 C5812 1.410 . S
C5811 C5819 1.503 . S
C5812 C5811 1.410 . S
C5812 C5813 1.392 . S
C5812 C5815 1.511 . S
C5813 C5809 1.376 . S
C5813 C5812 1.392 . S
C5813 H5825 0.929 . S
C5814 C5810 1.531 . S
C5814 H5826 0.960 . S
C5814 H5827 0.962 . S
C5814 H5828 0.960 . S
C5815 C5812 1.511 . S
C5815 H5829 0.961 . S
C5815 H5830 0.961 . S
C5815 H5831 0.961 . S
C5816 C5817 1.370 . S
C5816 C5818 1.363 . S
C5816 H5832 0.931 . S
C5817 C5816 1.370 . S
C5817 C5821 1.408 . S
C5818 C5816 1.363 . S
C5818 C5819 1.370 . S
C5818 C5822 1.524 . S
C5819 C5811 1.503 . S
C5819 C5818 1.370 . S
C5819 C5820 1.403 . S
C5820 C5819 1.403 . S
C5820 C5821 1.404 . S
C5820 C5823 1.539 . S
C5821 C5817 1.408 . S
C5821 C5820 1.404 . S
C5821 H5833 0.930 . S
C5822 C5818 1.524 . S
C5822 H5834 0.956 . S
C5822 H5835 0.961 . S
C5822 H5836 0.961 . S
C5823 C5820 1.539 . S
C5823 H5837 0.958 . S
C5823 H5838 0.961 . S
C5823 H5839 0.960 . S
H5824 C5808 0.931 . S
H5825 C5813 0.929 . S
H5826 C5814 0.960 . S
H5827 C5814 0.962 . S
H5828 C5814 0.960 . S
H5829 C5815 0.961 . S
H5830 C5815 0.961 . S
H5831 C5815 0.961 . S
H5832 C5816 0.931 . S
H5833 C5821 0.930 . S
H5834 C5822 0.956 . S
H5835 C5822 0.961 . S
H5836 C5822 0.961 . S
H5837 C5823 0.958 . S
H5838 C5823 0.961 . S
H5839 C5823 0.960 . S
C5840 C5841 1.391 . S
C5840 C5842 1.394 . S
C5840 H5856 0.931 . S
C5841 C5840 1.391 . S
C5841 C5845 1.376 . S
C5842 C5840 1.394 . S
C5842 C5843 1.369 . S
C5842 C5846 1.531 . S
C5843 C5842 1.369 . S
C5843 C5844 1.410 . S
C5843 C5851 1.503 . S
C5844 C5843 1.410 . S
C5844 C5845 1.392 . S
C5844 C5847 1.511 . S
C5845 C5841 1.376 . S
C5845 C5844 1.392 . S
C5845 H5857 0.929 . S
C5846 C5842 1.531 . S
C5846 H5858 0.960 . S
C5846 H5859 0.962 . S
C5846 H5860 0.960 . S
C5847 C5844 1.511 . S
C5847 H5861 0.961 . S
C5847 H5862 0.961 . S
C5847 H5863 0.961 . S
C5848 C5849 1.370 . S
C5848 C5850 1.363 . S
C5848 H5864 0.931 . S
C5849 C5848 1.370 . S
C5849 C5853 1.408 . S
C5850 C5848 1.363 . S
C5850 C5851 1.370 . S
C5850 C5854 1.524 . S
C5851 C5843 1.503 . S
C5851 C5850 1.370 . S
C5851 C5852 1.403 . S
C5852 C5851 1.403 . S
C5852 C5853 1.404 . S
C5852 C5855 1.539 . S
C5853 C5849 1.408 . S
C5853 C5852 1.404 . S
C5853 H5865 0.930 . S
C5854 C5850 1.524 . S
C5854 H5866 0.956 . S
C5854 H5867 0.961 . S
C5854 H5868 0.961 . S
C5855 C5852 1.539 . S
C5855 H5869 0.958 . S
C5855 H5870 0.961 . S
C5855 H5871 0.960 . S
H5856 C5840 0.931 . S
H5857 C5845 0.929 . S
H5858 C5846 0.960 . S
H5859 C5846 0.962 . S
H5860 C5846 0.960 . S
H5861 C5847 0.961 . S
H5862 C5847 0.961 . S
H5863 C5847 0.961 . S
H5864 C5848 0.931 . S
H5865 C5853 0.930 . S
H5866 C5854 0.956 . S
H5867 C5854 0.961 . S
H5868 C5854 0.961 . S
H5869 C5855 0.958 . S
H5870 C5855 0.961 . S
H5871 C5855 0.960 . S
C5872 C5873 1.391 . S
C5872 C5874 1.394 . S
C5872 H5888 0.931 . S
C5873 C5872 1.391 . S
C5873 C5877 1.376 . S
C5874 C5872 1.394 . S
C5874 C5875 1.369 . S
C5874 C5878 1.531 . S
C5875 C5874 1.369 . S
C5875 C5876 1.410 . S
C5875 C5883 1.503 . S
C5876 C5875 1.410 . S
C5876 C5877 1.392 . S
C5876 C5879 1.511 . S
C5877 C5873 1.376 . S
C5877 C5876 1.392 . S
C5877 H5889 0.929 . S
C5878 C5874 1.531 . S
C5878 H5890 0.960 . S
C5878 H5891 0.962 . S
C5878 H5892 0.960 . S
C5879 C5876 1.511 . S
C5879 H5893 0.961 . S
C5879 H5894 0.961 . S
C5879 H5895 0.961 . S
C5880 C5881 1.370 . S
C5880 C5882 1.363 . S
C5880 H5896 0.931 . S
C5881 C5880 1.370 . S
C5881 C5885 1.408 . S
C5882 C5880 1.363 . S
C5882 C5883 1.370 . S
C5882 C5886 1.524 . S
C5883 C5875 1.503 . S
C5883 C5882 1.370 . S
C5883 C5884 1.403 . S
C5884 C5883 1.403 . S
C5884 C5885 1.404 . S
C5884 C5887 1.539 . S
C5885 C5881 1.408 . S
C5885 C5884 1.404 . S
C5885 H5897 0.930 . S
C5886 C5882 1.524 . S
C5886 H5898 0.956 . S
C5886 H5899 0.961 . S
C5886 H5900 0.961 . S
C5887 C5884 1.539 . S
C5887 H5901 0.958 . S
C5887 H5902 0.961 . S
C5887 H5903 0.960 . S
H5888 C5872 0.931 . S
H5889 C5877 0.929 . S
H5890 C5878 0.960 . S
H5891 C5878 0.962 . S
H5892 C5878 0.960 . S
H5893 C5879 0.961 . S
H5894 C5879 0.961 . S
H5895 C5879 0.961 . S
H5896 C5880 0.931 . S
H5897 C5885 0.930 . S
H5898 C5886 0.956 . S
H5899 C5886 0.961 . S
H5900 C5886 0.961 . S
H5901 C5887 0.958 . S
H5902 C5887 0.961 . S
H5903 C5887 0.960 . S
C5904 C5905 1.391 . S
C5904 C5906 1.394 . S
C5904 H5920 0.931 . S
C5905 C5904 1.391 . S
C5905 C5909 1.376 . S
C5906 C5904 1.394 . S
C5906 C5907 1.369 . S
C5906 C5910 1.531 . S
C5907 C5906 1.369 . S
C5907 C5908 1.410 . S
C5907 C5915 1.503 . S
C5908 C5907 1.410 . S
C5908 C5909 1.392 . S
C5908 C5911 1.511 . S
C5909 C5905 1.376 . S
C5909 C5908 1.392 . S
C5909 H5921 0.929 . S
C5910 C5906 1.531 . S
C5910 H5922 0.960 . S
C5910 H5923 0.962 . S
C5910 H5924 0.960 . S
C5911 C5908 1.511 . S
C5911 H5925 0.961 . S
C5911 H5926 0.961 . S
C5911 H5927 0.961 . S
C5912 C5913 1.370 . S
C5912 C5914 1.363 . S
C5912 H5928 0.931 . S
C5913 C5912 1.370 . S
C5913 C5917 1.408 . S
C5914 C5912 1.363 . S
C5914 C5915 1.370 . S
C5914 C5918 1.524 . S
C5915 C5907 1.503 . S
C5915 C5914 1.370 . S
C5915 C5916 1.403 . S
C5916 C5915 1.403 . S
C5916 C5917 1.404 . S
C5916 C5919 1.539 . S
C5917 C5913 1.408 . S
C5917 C5916 1.404 . S
C5917 H5929 0.930 . S
C5918 C5914 1.524 . S
C5918 H5930 0.956 . S
C5918 H5931 0.961 . S
C5918 H5932 0.961 . S
C5919 C5916 1.539 . S
C5919 H5933 0.958 . S
C5919 H5934 0.961 . S
C5919 H5935 0.960 . S
H5920 C5904 0.931 . S
H5921 C5909 0.929 . S
H5922 C5910 0.960 . S
H5923 C5910 0.962 . S
H5924 C5910 0.960 . S
H5925 C5911 0.961 . S
H5926 C5911 0.961 . S
H5927 C5911 0.961 . S
H5928 C5912 0.931 . S
H5929 C5917 0.930 . S
H5930 C5918 0.956 . S
H5931 C5918 0.961 . S
H5932 C5918 0.961 . S
H5933 C5919 0.958 . S
H5934 C5919 0.961 . S
H5935 C5919 0.960 . S
C5936 C5937 1.391 . S
C5936 C5938 1.394 . S
C5936 H5952 0.931 . S
C5937 C5936 1.391 . S
C5937 C5941 1.376 . S
C5938 C5936 1.394 . S
C5938 C5939 1.369 . S
C5938 C5942 1.531 . S
C5939 C5938 1.369 . S
C5939 C5940 1.410 . S
C5939 C5947 1.503 . S
C5940 C5939 1.410 . S
C5940 C5941 1.392 . S
C5940 C5943 1.511 . S
C5941 C5937 1.376 . S
C5941 C5940 1.392 . S
C5941 H5953 0.929 . S
C5942 C5938 1.531 . S
C5942 H5954 0.960 . S
C5942 H5955 0.962 . S
C5942 H5956 0.960 . S
C5943 C5940 1.511 . S
C5943 H5957 0.961 . S
C5943 H5958 0.961 . S
C5943 H5959 0.961 . S
C5944 C5945 1.370 . S
C5944 C5946 1.363 . S
C5944 H5960 0.931 . S
C5945 C5944 1.370 . S
C5945 C5949 1.408 . S
C5946 C5944 1.363 . S
C5946 C5947 1.370 . S
C5946 C5950 1.524 . S
C5947 C5939 1.503 . S
C5947 C5946 1.370 . S
C5947 C5948 1.403 . S
C5948 C5947 1.403 . S
C5948 C5949 1.404 . S
C5948 C5951 1.539 . S
C5949 C5945 1.408 . S
C5949 C5948 1.404 . S
C5949 H5961 0.930 . S
C5950 C5946 1.524 . S
C5950 H5962 0.956 . S
C5950 H5963 0.961 . S
C5950 H5964 0.961 . S
C5951 C5948 1.539 . S
C5951 H5965 0.958 . S
C5951 H5966 0.961 . S
C5951 H5967 0.960 . S
H5952 C5936 0.931 . S
H5953 C5941 0.929 . S
H5954 C5942 0.960 . S
H5955 C5942 0.962 . S
H5956 C5942 0.960 . S
H5957 C5943 0.961 . S
H5958 C5943 0.961 . S
H5959 C5943 0.961 . S
H5960 C5944 0.931 . S
H5961 C5949 0.930 . S
H5962 C5950 0.956 . S
H5963 C5950 0.961 . S
H5964 C5950 0.961 . S
H5965 C5951 0.958 . S
H5966 C5951 0.961 . S
H5967 C5951 0.960 . S
C5968 C5969 1.391 . S
C5968 C5970 1.394 . S
C5968 H5984 0.931 . S
C5969 C5968 1.391 . S
C5969 C5973 1.376 . S
C5970 C5968 1.394 . S
C5970 C5971 1.369 . S
C5970 C5974 1.531 . S
C5971 C5970 1.369 . S
C5971 C5972 1.410 . S
C5971 C5979 1.503 . S
C5972 C5971 1.410 . S
C5972 C5973 1.392 . S
C5972 C5975 1.511 . S
C5973 C5969 1.376 . S
C5973 C5972 1.392 . S
C5973 H5985 0.929 . S
C5974 C5970 1.531 . S
C5974 H5986 0.960 . S
C5974 H5987 0.962 . S
C5974 H5988 0.960 . S
C5975 C5972 1.511 . S
C5975 H5989 0.961 . S
C5975 H5990 0.961 . S
C5975 H5991 0.961 . S
C5976 C5977 1.370 . S
C5976 C5978 1.363 . S
C5976 H5992 0.931 . S
C5977 C5976 1.370 . S
C5977 C5981 1.408 . S
C5978 C5976 1.363 . S
C5978 C5979 1.370 . S
C5978 C5982 1.524 . S
C5979 C5971 1.503 . S
C5979 C5978 1.370 . S
C5979 C5980 1.403 . S
C5980 C5979 1.403 . S
C5980 C5981 1.404 . S
C5980 C5983 1.539 . S
C5981 C5977 1.408 . S
C5981 C5980 1.404 . S
C5981 H5993 0.930 . S
C5982 C5978 1.524 . S
C5982 H5994 0.956 . S
C5982 H5995 0.961 . S
C5982 H5996 0.961 . S
C5983 C5980 1.539 . S
C5983 H5997 0.958 . S
C5983 H5998 0.961 . S
C5983 H5999 0.960 . S
H5984 C5968 0.931 . S
H5985 C5973 0.929 . S
H5986 C5974 0.960 . S
H5987 C5974 0.962 . S
H5988 C5974 0.960 . S
H5989 C5975 0.961 . S
H5990 C5975 0.961 . S
H5991 C5975 0.961 . S
H5992 C5976 0.931 . S
H5993 C5981 0.930 . S
H5994 C5982 0.956 . S
H5995 C5982 0.961 . S
H5996 C5982 0.961 . S
H5997 C5983 0.958 . S
H5998 C5983 0.961 . S
H5999 C5983 0.960 . S
C6000 C6001 1.391 . S
C6000 C6002 1.394 . S
C6000 H6016 0.931 . S
C6001 C6000 1.391 . S
C6001 C6005 1.376 . S
C6002 C6000 1.394 . S
C6002 C6003 1.369 . S
C6002 C6006 1.531 . S
C6003 C6002 1.369 . S
C6003 C6004 1.410 . S
C6003 C6011 1.503 . S
C6004 C6003 1.410 . S
C6004 C6005 1.392 . S
C6004 C6007 1.511 . S
C6005 C6001 1.376 . S
C6005 C6004 1.392 . S
C6005 H6017 0.929 . S
C6006 C6002 1.531 . S
C6006 H6018 0.960 . S
C6006 H6019 0.962 . S
C6006 H6020 0.960 . S
C6007 C6004 1.511 . S
C6007 H6021 0.961 . S
C6007 H6022 0.961 . S
C6007 H6023 0.961 . S
C6008 C6009 1.370 . S
C6008 C6010 1.363 . S
C6008 H6024 0.931 . S
C6009 C6008 1.370 . S
C6009 C6013 1.408 . S
C6010 C6008 1.363 . S
C6010 C6011 1.370 . S
C6010 C6014 1.524 . S
C6011 C6003 1.503 . S
C6011 C6010 1.370 . S
C6011 C6012 1.403 . S
C6012 C6011 1.403 . S
C6012 C6013 1.404 . S
C6012 C6015 1.539 . S
C6013 C6009 1.408 . S
C6013 C6012 1.404 . S
C6013 H6025 0.930 . S
C6014 C6010 1.524 . S
C6014 H6026 0.956 . S
C6014 H6027 0.961 . S
C6014 H6028 0.961 . S
C6015 C6012 1.539 . S
C6015 H6029 0.958 . S
C6015 H6030 0.961 . S
C6015 H6031 0.960 . S
H6016 C6000 0.931 . S
H6017 C6005 0.929 . S
H6018 C6006 0.960 . S
H6019 C6006 0.962 . S
H6020 C6006 0.960 . S
H6021 C6007 0.961 . S
H6022 C6007 0.961 . S
H6023 C6007 0.961 . S
H6024 C6008 0.931 . S
H6025 C6013 0.930 . S
H6026 C6014 0.956 . S
H6027 C6014 0.961 . S
H6028 C6014 0.961 . S
H6029 C6015 0.958 . S
H6030 C6015 0.961 . S
H6031 C6015 0.960 . S
C6032 C6033 1.391 . S
C6032 C6034 1.394 . S
C6032 H6048 0.931 . S
C6033 C6032 1.391 . S
C6033 C6037 1.376 . S
C6034 C6032 1.394 . S
C6034 C6035 1.369 . S
C6034 C6038 1.531 . S
C6035 C6034 1.369 . S
C6035 C6036 1.410 . S
C6035 C6043 1.503 . S
C6036 C6035 1.410 . S
C6036 C6037 1.392 . S
C6036 C6039 1.511 . S
C6037 C6033 1.376 . S
C6037 C6036 1.392 . S
C6037 H6049 0.929 . S
C6038 C6034 1.531 . S
C6038 H6050 0.960 . S
C6038 H6051 0.962 . S
C6038 H6052 0.960 . S
C6039 C6036 1.511 . S
C6039 H6053 0.961 . S
C6039 H6054 0.961 . S
C6039 H6055 0.961 . S
C6040 C6041 1.370 . S
C6040 C6042 1.363 . S
C6040 H6056 0.931 . S
C6041 C6040 1.370 . S
C6041 C6045 1.408 . S
C6042 C6040 1.363 . S
C6042 C6043 1.370 . S
C6042 C6046 1.524 . S
C6043 C6035 1.503 . S
C6043 C6042 1.370 . S
C6043 C6044 1.403 . S
C6044 C6043 1.403 . S
C6044 C6045 1.404 . S
C6044 C6047 1.539 . S
C6045 C6041 1.408 . S
C6045 C6044 1.404 . S
C6045 H6057 0.930 . S
C6046 C6042 1.524 . S
C6046 H6058 0.956 . S
C6046 H6059 0.961 . S
C6046 H6060 0.961 . S
C6047 C6044 1.539 . S
C6047 H6061 0.958 . S
C6047 H6062 0.961 . S
C6047 H6063 0.960 . S
H6048 C6032 0.931 . S
H6049 C6037 0.929 . S
H6050 C6038 0.960 . S
H6051 C6038 0.962 . S
H6052 C6038 0.960 . S
H6053 C6039 0.961 . S
H6054 C6039 0.961 . S
H6055 C6039 0.961 . S
H6056 C6040 0.931 . S
H6057 C6045 0.930 . S
H6058 C6046 0.956 . S
H6059 C6046 0.961 . S
H6060 C6046 0.961 . S
H6061 C6047 0.958 . S
H6062 C6047 0.961 . S
H6063 C6047 0.960 . S
C6064 C6065 1.391 . S
C6064 C6066 1.394 . S
C6064 H6080 0.931 . S
C6065 C6064 1.391 . S
C6065 C6069 1.376 . S
C6066 C6064 1.394 . S
C6066 C6067 1.369 . S
C6066 C6070 1.531 . S
C6067 C6066 1.369 . S
C6067 C6068 1.410 . S
C6067 C6075 1.503 . S
C6068 C6067 1.410 . S
C6068 C6069 1.392 . S
C6068 C6071 1.511 . S
C6069 C6065 1.376 . S
C6069 C6068 1.392 . S
C6069 H6081 0.929 . S
C6070 C6066 1.531 . S
C6070 H6082 0.960 . S
C6070 H6083 0.962 . S
C6070 H6084 0.960 . S
C6071 C6068 1.511 . S
C6071 H6085 0.961 . S
C6071 H6086 0.961 . S
C6071 H6087 0.961 . S
C6072 C6073 1.370 . S
C6072 C6074 1.363 . S
C6072 H6088 0.931 . S
C6073 C6072 1.370 . S
C6073 C6077 1.408 . S
C6074 C6072 1.363 . S
C6074 C6075 1.370 . S
C6074 C6078 1.524 . S
C6075 C6067 1.503 . S
C6075 C6074 1.370 . S
C6075 C6076 1.403 . S
C6076 C6075 1.403 . S
C6076 C6077 1.404 . S
C6076 C6079 1.539 . S
C6077 C6073 1.408 . S
C6077 C6076 1.404 . S
C6077 H6089 0.930 . S
C6078 C6074 1.524 . S
C6078 H6090 0.956 . S
C6078 H6091 0.961 . S
C6078 H6092 0.961 . S
C6079 C6076 1.539 . S
C6079 H6093 0.958 . S
C6079 H6094 0.961 . S
C6079 H6095 0.960 . S
H6080 C6064 0.931 . S
H6081 C6069 0.929 . S
H6082 C6070 0.960 . S
H6083 C6070 0.962 . S
H6084 C6070 0.960 . S
H6085 C6071 0.961 . S
H6086 C6071 0.961 . S
H6087 C6071 0.961 . S
H6088 C6072 0.931 . S
H6089 C6077 0.930 . S
H6090 C6078 0.956 . S
H6091 C6078 0.961 . S
H6092 C6078 0.961 . S
H6093 C6079 0.958 . S
H6094 C6079 0.961 . S
H6095 C6079 0.960 . S
C6096 C6097 1.391 . S
C6096 C6098 1.394 . S
C6096 H6112 0.931 . S
C6097 C6096 1.391 . S
C6097 C6101 1.376 . S
C6098 C6096 1.394 . S
C6098 C6099 1.369 . S
C6098 C6102 1.531 . S
C6099 C6098 1.369 . S
C6099 C6100 1.410 . S
C6099 C6107 1.503 . S
C6100 C6099 1.410 . S
C6100 C6101 1.392 . S
C6100 C6103 1.511 . S
C6101 C6097 1.376 . S
C6101 C6100 1.392 . S
C6101 H6113 0.929 . S
C6102 C6098 1.531 . S
C6102 H6114 0.960 . S
C6102 H6115 0.962 . S
C6102 H6116 0.960 . S
C6103 C6100 1.511 . S
C6103 H6117 0.961 . S
C6103 H6118 0.961 . S
C6103 H6119 0.961 . S
C6104 C6105 1.370 . S
C6104 C6106 1.363 . S
C6104 H6120 0.931 . S
C6105 C6104 1.370 . S
C6105 C6109 1.408 . S
C6106 C6104 1.363 . S
C6106 C6107 1.370 . S
C6106 C6110 1.524 . S
C6107 C6099 1.503 . S
C6107 C6106 1.370 . S
C6107 C6108 1.403 . S
C6108 C6107 1.403 . S
C6108 C6109 1.404 . S
C6108 C6111 1.539 . S
C6109 C6105 1.408 . S
C6109 C6108 1.404 . S
C6109 H6121 0.930 . S
C6110 C6106 1.524 . S
C6110 H6122 0.956 . S
C6110 H6123 0.961 . S
C6110 H6124 0.961 . S
C6111 C6108 1.539 . S
C6111 H6125 0.958 . S
C6111 H6126 0.961 . S
C6111 H6127 0.960 . S
H6112 C6096 0.931 . S
H6113 C6101 0.929 . S
H6114 C6102 0.960 . S
H6115 C6102 0.962 . S
H6116 C6102 0.960 . S
H6117 C6103 0.961 . S
H6118 C6103 0.961 . S
H6119 C6103 0.961 . S
H6120 C6104 0.931 . S
H6121 C6109 0.930 . S
H6122 C6110 0.956 . S
H6123 C6110 0.961 . S
H6124 C6110 0.961 . S
H6125 C6111 0.958 . S
H6126 C6111 0.961 . S
H6127 C6111 0.960 . S
C6128 C6129 1.391 . S
C6128 C6130 1.394 . S
C6128 H6144 0.931 . S
C6129 C6128 1.391 . S
C6129 C6133 1.376 . S
C6130 C6128 1.394 . S
C6130 C6131 1.369 . S
C6130 C6134 1.531 . S
C6131 C6130 1.369 . S
C6131 C6132 1.410 . S
C6131 C6139 1.503 . S
C6132 C6131 1.410 . S
C6132 C6133 1.392 . S
C6132 C6135 1.511 . S
C6133 C6129 1.376 . S
C6133 C6132 1.392 . S
C6133 H6145 0.929 . S
C6134 C6130 1.531 . S
C6134 H6146 0.960 . S
C6134 H6147 0.962 . S
C6134 H6148 0.960 . S
C6135 C6132 1.511 . S
C6135 H6149 0.961 . S
C6135 H6150 0.961 . S
C6135 H6151 0.961 . S
C6136 C6137 1.370 . S
C6136 C6138 1.363 . S
C6136 H6152 0.931 . S
C6137 C6136 1.370 . S
C6137 C6141 1.408 . S
C6138 C6136 1.363 . S
C6138 C6139 1.370 . S
C6138 C6142 1.524 . S
C6139 C6131 1.503 . S
C6139 C6138 1.370 . S
C6139 C6140 1.403 . S
C6140 C6139 1.403 . S
C6140 C6141 1.404 . S
C6140 C6143 1.539 . S
C6141 C6137 1.408 . S
C6141 C6140 1.404 . S
C6141 H6153 0.930 . S
C6142 C6138 1.524 . S
C6142 H6154 0.956 . S
C6142 H6155 0.961 . S
C6142 H6156 0.961 . S
C6143 C6140 1.539 . S
C6143 H6157 0.958 . S
C6143 H6158 0.961 . S
C6143 H6159 0.960 . S
H6144 C6128 0.931 . S
H6145 C6133 0.929 . S
H6146 C6134 0.960 . S
H6147 C6134 0.962 . S
H6148 C6134 0.960 . S
H6149 C6135 0.961 . S
H6150 C6135 0.961 . S
H6151 C6135 0.961 . S
H6152 C6136 0.931 . S
H6153 C6141 0.930 . S
H6154 C6142 0.956 . S
H6155 C6142 0.961 . S
H6156 C6142 0.961 . S
H6157 C6143 0.958 . S
H6158 C6143 0.961 . S
H6159 C6143 0.960 . S
C6160 C6161 1.391 . S
C6160 C6162 1.394 . S
C6160 H6176 0.931 . S
C6161 C6160 1.391 . S
C6161 C6165 1.376 . S
C6162 C6160 1.394 . S
C6162 C6163 1.369 . S
C6162 C6166 1.531 . S
C6163 C6162 1.369 . S
C6163 C6164 1.410 . S
C6163 C6171 1.503 . S
C6164 C6163 1.410 . S
C6164 C6165 1.392 . S
C6164 C6167 1.511 . S
C6165 C6161 1.376 . S
C6165 C6164 1.392 . S
C6165 H6177 0.929 . S
C6166 C6162 1.531 . S
C6166 H6178 0.960 . S
C6166 H6179 0.962 . S
C6166 H6180 0.960 . S
C6167 C6164 1.511 . S
C6167 H6181 0.961 . S
C6167 H6182 0.961 . S
C6167 H6183 0.961 . S
C6168 C6169 1.370 . S
C6168 C6170 1.363 . S
C6168 H6184 0.931 . S
C6169 C6168 1.370 . S
C6169 C6173 1.408 . S
C6170 C6168 1.363 . S
C6170 C6171 1.370 . S
C6170 C6174 1.524 . S
C6171 C6163 1.503 . S
C6171 C6170 1.370 . S
C6171 C6172 1.403 . S
C6172 C6171 1.403 . S
C6172 C6173 1.404 . S
C6172 C6175 1.539 . S
C6173 C6169 1.408 . S
C6173 C6172 1.404 . S
C6173 H6185 0.930 . S
C6174 C6170 1.524 . S
C6174 H6186 0.956 . S
C6174 H6187 0.961 . S
C6174 H6188 0.961 . S
C6175 C6172 1.539 . S
C6175 H6189 0.958 . S
C6175 H6190 0.961 . S
C6175 H6191 0.960 . S
H6176 C6160 0.931 . S
H6177 C6165 0.929 . S
H6178 C6166 0.960 . S
H6179 C6166 0.962 . S
H6180 C6166 0.960 . S
H6181 C6167 0.961 . S
H6182 C6167 0.961 . S
H6183 C6167 0.961 . S
H6184 C6168 0.931 . S
H6185 C6173 0.930 . S
H6186 C6174 0.956 . S
H6187 C6174 0.961 . S
H6188 C6174 0.961 . S
H6189 C6175 0.958 . S
H6190 C6175 0.961 . S
H6191 C6175 0.960 . S
C6192 C6193 1.391 . S
C6192 C6194 1.394 . S
C6192 H6208 0.931 . S
C6193 C6192 1.391 . S
C6193 C6197 1.376 . S
C6194 C6192 1.394 . S
C6194 C6195 1.369 . S
C6194 C6198 1.531 . S
C6195 C6194 1.369 . S
C6195 C6196 1.410 . S
C6195 C6203 1.503 . S
C6196 C6195 1.410 . S
C6196 C6197 1.392 . S
C6196 C6199 1.511 . S
C6197 C6193 1.376 . S
C6197 C6196 1.392 . S
C6197 H6209 0.929 . S
C6198 C6194 1.531 . S
C6198 H6210 0.960 . S
C6198 H6211 0.962 . S
C6198 H6212 0.960 . S
C6199 C6196 1.511 . S
C6199 H6213 0.961 . S
C6199 H6214 0.961 . S
C6199 H6215 0.961 . S
C6200 C6201 1.370 . S
C6200 C6202 1.363 . S
C6200 H6216 0.931 . S
C6201 C6200 1.370 . S
C6201 C6205 1.408 . S
C6202 C6200 1.363 . S
C6202 C6203 1.370 . S
C6202 C6206 1.524 . S
C6203 C6195 1.503 . S
C6203 C6202 1.370 . S
C6203 C6204 1.403 . S
C6204 C6203 1.403 . S
C6204 C6205 1.404 . S
C6204 C6207 1.539 . S
C6205 C6201 1.408 . S
C6205 C6204 1.404 . S
C6205 H6217 0.930 . S
C6206 C6202 1.524 . S
C6206 H6218 0.956 . S
C6206 H6219 0.961 . S
C6206 H6220 0.961 . S
C6207 C6204 1.539 . S
C6207 H6221 0.958 . S
C6207 H6222 0.961 . S
C6207 H6223 0.960 . S
H6208 C6192 0.931 . S
H6209 C6197 0.929 . S
H6210 C6198 0.960 . S
H6211 C6198 0.962 . S
H6212 C6198 0.960 . S
H6213 C6199 0.961 . S
H6214 C6199 0.961 . S
H6215 C6199 0.961 . S
H6216 C6200 0.931 . S
H6217 C6205 0.930 . S
H6218 C6206 0.956 . S
H6219 C6206 0.961 . S
H6220 C6206 0.961 . S
H6221 C6207 0.958 . S
H6222 C6207 0.961 . S
H6223 C6207 0.960 . S
C6224 C6225 1.391 . S
C6224 C6226 1.394 . S
C6224 H6240 0.931 . S
C6225 C6224 1.391 . S
C6225 C6229 1.376 . S
C6226 C6224 1.394 . S
C6226 C6227 1.369 . S
C6226 C6230 1.531 . S
C6227 C6226 1.369 . S
C6227 C6228 1.410 . S
C6227 C6235 1.503 . S
C6228 C6227 1.410 . S
C6228 C6229 1.392 . S
C6228 C6231 1.511 . S
C6229 C6225 1.376 . S
C6229 C6228 1.392 . S
C6229 H6241 0.929 . S
C6230 C6226 1.531 . S
C6230 H6242 0.960 . S
C6230 H6243 0.962 . S
C6230 H6244 0.960 . S
C6231 C6228 1.511 . S
C6231 H6245 0.961 . S
C6231 H6246 0.961 . S
C6231 H6247 0.961 . S
C6232 C6233 1.370 . S
C6232 C6234 1.363 . S
C6232 H6248 0.931 . S
C6233 C6232 1.370 . S
C6233 C6237 1.408 . S
C6234 C6232 1.363 . S
C6234 C6235 1.370 . S
C6234 C6238 1.524 . S
C6235 C6227 1.503 . S
C6235 C6234 1.370 . S
C6235 C6236 1.403 . S
C6236 C6235 1.403 . S
C6236 C6237 1.404 . S
C6236 C6239 1.539 . S
C6237 C6233 1.408 . S
C6237 C6236 1.404 . S
C6237 H6249 0.930 . S
C6238 C6234 1.524 . S
C6238 H6250 0.956 . S
C6238 H6251 0.961 . S
C6238 H6252 0.961 . S
C6239 C6236 1.539 . S
C6239 H6253 0.958 . S
C6239 H6254 0.961 . S
C6239 H6255 0.960 . S
H6240 C6224 0.931 . S
H6241 C6229 0.929 . S
H6242 C6230 0.960 . S
H6243 C6230 0.962 . S
H6244 C6230 0.960 . S
H6245 C6231 0.961 . S
H6246 C6231 0.961 . S
H6247 C6231 0.961 . S
H6248 C6232 0.931 . S
H6249 C6237 0.930 . S
H6250 C6238 0.956 . S
H6251 C6238 0.961 . S
H6252 C6238 0.961 . S
H6253 C6239 0.958 . S
H6254 C6239 0.961 . S
H6255 C6239 0.960 . S
C6256 C6257 1.391 . S
C6256 C6258 1.394 . S
C6256 H6272 0.931 . S
C6257 C6256 1.391 . S
C6257 C6261 1.376 . S
C6258 C6256 1.394 . S
C6258 C6259 1.369 . S
C6258 C6262 1.531 . S
C6259 C6258 1.369 . S
C6259 C6260 1.410 . S
C6259 C6267 1.503 . S
C6260 C6259 1.410 . S
C6260 C6261 1.392 . S
C6260 C6263 1.511 . S
C6261 C6257 1.376 . S
C6261 C6260 1.392 . S
C6261 H6273 0.929 . S
C6262 C6258 1.531 . S
C6262 H6274 0.960 . S
C6262 H6275 0.962 . S
C6262 H6276 0.960 . S
C6263 C6260 1.511 . S
C6263 H6277 0.961 . S
C6263 H6278 0.961 . S
C6263 H6279 0.961 . S
C6264 C6265 1.370 . S
C6264 C6266 1.363 . S
C6264 H6280 0.931 . S
C6265 C6264 1.370 . S
C6265 C6269 1.408 . S
C6266 C6264 1.363 . S
C6266 C6267 1.370 . S
C6266 C6270 1.524 . S
C6267 C6259 1.503 . S
C6267 C6266 1.370 . S
C6267 C6268 1.403 . S
C6268 C6267 1.403 . S
C6268 C6269 1.404 . S
C6268 C6271 1.539 . S
C6269 C6265 1.408 . S
C6269 C6268 1.404 . S
C6269 H6281 0.930 . S
C6270 C6266 1.524 . S
C6270 H6282 0.956 . S
C6270 H6283 0.961 . S
C6270 H6284 0.961 . S
C6271 C6268 1.539 . S
C6271 H6285 0.958 . S
C6271 H6286 0.961 . S
C6271 H6287 0.960 . S
H6272 C6256 0.931 . S
H6273 C6261 0.929 . S
H6274 C6262 0.960 . S
H6275 C6262 0.962 . S
H6276 C6262 0.960 . S
H6277 C6263 0.961 . S
H6278 C6263 0.961 . S
H6279 C6263 0.961 . S
H6280 C6264 0.931 . S
H6281 C6269 0.930 . S
H6282 C6270 0.956 . S
H6283 C6270 0.961 . S
H6284 C6270 0.961 . S
H6285 C6271 0.958 . S
H6286 C6271 0.961 . S
H6287 C6271 0.960 . S
C6288 C6289 1.391 . S
C6288 C6290 1.394 . S
C6288 H6304 0.931 . S
C6289 C6288 1.391 . S
C6289 C6293 1.376 . S
C6290 C6288 1.394 . S
C6290 C6291 1.369 . S
C6290 C6294 1.531 . S
C6291 C6290 1.369 . S
C6291 C6292 1.410 . S
C6291 C6299 1.503 . S
C6292 C6291 1.410 . S
C6292 C6293 1.392 . S
C6292 C6295 1.511 . S
C6293 C6289 1.376 . S
C6293 C6292 1.392 . S
C6293 H6305 0.929 . S
C6294 C6290 1.531 . S
C6294 H6306 0.960 . S
C6294 H6307 0.962 . S
C6294 H6308 0.960 . S
C6295 C6292 1.511 . S
C6295 H6309 0.961 . S
C6295 H6310 0.961 . S
C6295 H6311 0.961 . S
C6296 C6297 1.370 . S
C6296 C6298 1.363 . S
C6296 H6312 0.931 . S
C6297 C6296 1.370 . S
C6297 C6301 1.408 . S
C6298 C6296 1.363 . S
C6298 C6299 1.370 . S
C6298 C6302 1.524 . S
C6299 C6291 1.503 . S
C6299 C6298 1.370 . S
C6299 C6300 1.403 . S
C6300 C6299 1.403 . S
C6300 C6301 1.404 . S
C6300 C6303 1.539 . S
C6301 C6297 1.408 . S
C6301 C6300 1.404 . S
C6301 H6313 0.930 . S
C6302 C6298 1.524 . S
C6302 H6314 0.956 . S
C6302 H6315 0.961 . S
C6302 H6316 0.961 . S
C6303 C6300 1.539 . S
C6303 H6317 0.958 . S
C6303 H6318 0.961 . S
C6303 H6319 0.960 . S
H6304 C6288 0.931 . S
H6305 C6293 0.929 . S
H6306 C6294 0.960 . S
H6307 C6294 0.962 . S
H6308 C6294 0.960 . S
H6309 C6295 0.961 . S
H6310 C6295 0.961 . S
H6311 C6295 0.961 . S
H6312 C6296 0.931 . S
H6313 C6301 0.930 . S
H6314 C6302 0.956 . S
H6315 C6302 0.961 . S
H6316 C6302 0.961 . S
H6317 C6303 0.958 . S
H6318 C6303 0.961 . S
H6319 C6303 0.960 . S
C6320 C6321 1.391 . S
C6320 C6322 1.394 . S
C6320 H6336 0.931 . S
C6321 C6320 1.391 . S
C6321 C6325 1.376 . S
C6322 C6320 1.394 . S
C6322 C6323 1.369 . S
C6322 C6326 1.531 . S
C6323 C6322 1.369 . S
C6323 C6324 1.410 . S
C6323 C6331 1.503 . S
C6324 C6323 1.410 . S
C6324 C6325 1.392 . S
C6324 C6327 1.511 . S
C6325 C6321 1.376 . S
C6325 C6324 1.392 . S
C6325 H6337 0.929 . S
C6326 C6322 1.531 . S
C6326 H6338 0.960 . S
C6326 H6339 0.962 . S
C6326 H6340 0.960 . S
C6327 C6324 1.511 . S
C6327 H6341 0.961 . S
C6327 H6342 0.961 . S
C6327 H6343 0.961 . S
C6328 C6329 1.370 . S
C6328 C6330 1.363 . S
C6328 H6344 0.931 . S
C6329 C6328 1.370 . S
C6329 C6333 1.408 . S
C6330 C6328 1.363 . S
C6330 C6331 1.370 . S
C6330 C6334 1.524 . S
C6331 C6323 1.503 . S
C6331 C6330 1.370 . S
C6331 C6332 1.403 . S
C6332 C6331 1.403 . S
C6332 C6333 1.404 . S
C6332 C6335 1.539 . S
C6333 C6329 1.408 . S
C6333 C6332 1.404 . S
C6333 H6345 0.930 . S
C6334 C6330 1.524 . S
C6334 H6346 0.956 . S
C6334 H6347 0.961 . S
C6334 H6348 0.961 . S
C6335 C6332 1.539 . S
C6335 H6349 0.958 . S
C6335 H6350 0.961 . S
C6335 H6351 0.960 . S
H6336 C6320 0.931 . S
H6337 C6325 0.929 . S
H6338 C6326 0.960 . S
H6339 C6326 0.962 . S
H6340 C6326 0.960 . S
H6341 C6327 0.961 . S
H6342 C6327 0.961 . S
H6343 C6327 0.961 . S
H6344 C6328 0.931 . S
H6345 C6333 0.930 . S
H6346 C6334 0.956 . S
H6347 C6334 0.961 . S
H6348 C6334 0.961 . S
H6349 C6335 0.958 . S
H6350 C6335 0.961 . S
H6351 C6335 0.960 . S
C6352 C6353 1.391 . S
C6352 C6354 1.394 . S
C6352 H6368 0.931 . S
C6353 C6352 1.391 . S
C6353 C6357 1.376 . S
C6354 C6352 1.394 . S
C6354 C6355 1.369 . S
C6354 C6358 1.531 . S
C6355 C6354 1.369 . S
C6355 C6356 1.410 . S
C6355 C6363 1.503 . S
C6356 C6355 1.410 . S
C6356 C6357 1.392 . S
C6356 C6359 1.511 . S
C6357 C6353 1.376 . S
C6357 C6356 1.392 . S
C6357 H6369 0.929 . S
C6358 C6354 1.531 . S
C6358 H6370 0.960 . S
C6358 H6371 0.962 . S
C6358 H6372 0.960 . S
C6359 C6356 1.511 . S
C6359 H6373 0.961 . S
C6359 H6374 0.961 . S
C6359 H6375 0.961 . S
C6360 C6361 1.370 . S
C6360 C6362 1.363 . S
C6360 H6376 0.931 . S
C6361 C6360 1.370 . S
C6361 C6365 1.408 . S
C6362 C6360 1.363 . S
C6362 C6363 1.370 . S
C6362 C6366 1.524 . S
C6363 C6355 1.503 . S
C6363 C6362 1.370 . S
C6363 C6364 1.403 . S
C6364 C6363 1.403 . S
C6364 C6365 1.404 . S
C6364 C6367 1.539 . S
C6365 C6361 1.408 . S
C6365 C6364 1.404 . S
C6365 H6377 0.930 . S
C6366 C6362 1.524 . S
C6366 H6378 0.956 . S
C6366 H6379 0.961 . S
C6366 H6380 0.961 . S
C6367 C6364 1.539 . S
C6367 H6381 0.958 . S
C6367 H6382 0.961 . S
C6367 H6383 0.960 . S
H6368 C6352 0.931 . S
H6369 C6357 0.929 . S
H6370 C6358 0.960 . S
H6371 C6358 0.962 . S
H6372 C6358 0.960 . S
H6373 C6359 0.961 . S
H6374 C6359 0.961 . S
H6375 C6359 0.961 . S
H6376 C6360 0.931 . S
H6377 C6365 0.930 . S
H6378 C6366 0.956 . S
H6379 C6366 0.961 . S
H6380 C6366 0.961 . S
H6381 C6367 0.958 . S
H6382 C6367 0.961 . S
H6383 C6367 0.960 . S
C6384 C6385 1.391 . S
C6384 C6386 1.394 . S
C6384 H6400 0.931 . S
C6385 C6384 1.391 . S
C6385 C6389 1.376 . S
C6386 C6384 1.394 . S
C6386 C6387 1.369 . S
C6386 C6390 1.531 . S
C6387 C6386 1.369 . S
C6387 C6388 1.410 . S
C6387 C6395 1.503 . S
C6388 C6387 1.410 . S
C6388 C6389 1.392 . S
C6388 C6391 1.511 . S
C6389 C6385 1.376 . S
C6389 C6388 1.392 . S
C6389 H6401 0.929 . S
C6390 C6386 1.531 . S
C6390 H6402 0.960 . S
C6390 H6403 0.962 . S
C6390 H6404 0.960 . S
C6391 C6388 1.511 . S
C6391 H6405 0.961 . S
C6391 H6406 0.961 . S
C6391 H6407 0.961 . S
C6392 C6393 1.370 . S
C6392 C6394 1.363 . S
C6392 H6408 0.931 . S
C6393 C6392 1.370 . S
C6393 C6397 1.408 . S
C6394 C6392 1.363 . S
C6394 C6395 1.370 . S
C6394 C6398 1.524 . S
C6395 C6387 1.503 . S
C6395 C6394 1.370 . S
C6395 C6396 1.403 . S
C6396 C6395 1.403 . S
C6396 C6397 1.404 . S
C6396 C6399 1.539 . S
C6397 C6393 1.408 . S
C6397 C6396 1.404 . S
C6397 H6409 0.930 . S
C6398 C6394 1.524 . S
C6398 H6410 0.956 . S
C6398 H6411 0.961 . S
C6398 H6412 0.961 . S
C6399 C6396 1.539 . S
C6399 H6413 0.958 . S
C6399 H6414 0.961 . S
C6399 H6415 0.960 . S
H6400 C6384 0.931 . S
H6401 C6389 0.929 . S
H6402 C6390 0.960 . S
H6403 C6390 0.962 . S
H6404 C6390 0.960 . S
H6405 C6391 0.961 . S
H6406 C6391 0.961 . S
H6407 C6391 0.961 . S
H6408 C6392 0.931 . S
H6409 C6397 0.930 . S
H6410 C6398 0.956 . S
H6411 C6398 0.961 . S
H6412 C6398 0.961 . S
H6413 C6399 0.958 . S
H6414 C6399 0.961 . S
H6415 C6399 0.960 . S
C6416 C6417 1.391 . S
C6416 C6418 1.394 . S
C6416 H6432 0.931 . S
C6417 C6416 1.391 . S
C6417 C6421 1.376 . S
C6418 C6416 1.394 . S
C6418 C6419 1.369 . S
C6418 C6422 1.531 . S
C6419 C6418 1.369 . S
C6419 C6420 1.410 . S
C6419 C6427 1.503 . S
C6420 C6419 1.410 . S
C6420 C6421 1.392 . S
C6420 C6423 1.511 . S
C6421 C6417 1.376 . S
C6421 C6420 1.392 . S
C6421 H6433 0.929 . S
C6422 C6418 1.531 . S
C6422 H6434 0.960 . S
C6422 H6435 0.962 . S
C6422 H6436 0.960 . S
C6423 C6420 1.511 . S
C6423 H6437 0.961 . S
C6423 H6438 0.961 . S
C6423 H6439 0.961 . S
C6424 C6425 1.370 . S
C6424 C6426 1.363 . S
C6424 H6440 0.931 . S
C6425 C6424 1.370 . S
C6425 C6429 1.408 . S
C6426 C6424 1.363 . S
C6426 C6427 1.370 . S
C6426 C6430 1.524 . S
C6427 C6419 1.503 . S
C6427 C6426 1.370 . S
C6427 C6428 1.403 . S
C6428 C6427 1.403 . S
C6428 C6429 1.404 . S
C6428 C6431 1.539 . S
C6429 C6425 1.408 . S
C6429 C6428 1.404 . S
C6429 H6441 0.930 . S
C6430 C6426 1.524 . S
C6430 H6442 0.956 . S
C6430 H6443 0.961 . S
C6430 H6444 0.961 . S
C6431 C6428 1.539 . S
C6431 H6445 0.958 . S
C6431 H6446 0.961 . S
C6431 H6447 0.960 . S
H6432 C6416 0.931 . S
H6433 C6421 0.929 . S
H6434 C6422 0.960 . S
H6435 C6422 0.962 . S
H6436 C6422 0.960 . S
H6437 C6423 0.961 . S
H6438 C6423 0.961 . S
H6439 C6423 0.961 . S
H6440 C6424 0.931 . S
H6441 C6429 0.930 . S
H6442 C6430 0.956 . S
H6443 C6430 0.961 . S
H6444 C6430 0.961 . S
H6445 C6431 0.958 . S
H6446 C6431 0.961 . S
H6447 C6431 0.960 . S
C6448 C6449 1.391 . S
C6448 C6450 1.394 . S
C6448 H6464 0.931 . S
C6449 C6448 1.391 . S
C6449 C6453 1.376 . S
C6450 C6448 1.394 . S
C6450 C6451 1.369 . S
C6450 C6454 1.531 . S
C6451 C6450 1.369 . S
C6451 C6452 1.410 . S
C6451 C6459 1.503 . S
C6452 C6451 1.410 . S
C6452 C6453 1.392 . S
C6452 C6455 1.511 . S
C6453 C6449 1.376 . S
C6453 C6452 1.392 . S
C6453 H6465 0.929 . S
C6454 C6450 1.531 . S
C6454 H6466 0.960 . S
C6454 H6467 0.962 . S
C6454 H6468 0.960 . S
C6455 C6452 1.511 . S
C6455 H6469 0.961 . S
C6455 H6470 0.961 . S
C6455 H6471 0.961 . S
C6456 C6457 1.370 . S
C6456 C6458 1.363 . S
C6456 H6472 0.931 . S
C6457 C6456 1.370 . S
C6457 C6461 1.408 . S
C6458 C6456 1.363 . S
C6458 C6459 1.370 . S
C6458 C6462 1.524 . S
C6459 C6451 1.503 . S
C6459 C6458 1.370 . S
C6459 C6460 1.403 . S
C6460 C6459 1.403 . S
C6460 C6461 1.404 . S
C6460 C6463 1.539 . S
C6461 C6457 1.408 . S
C6461 C6460 1.404 . S
C6461 H6473 0.930 . S
C6462 C6458 1.524 . S
C6462 H6474 0.956 . S
C6462 H6475 0.961 . S
C6462 H6476 0.961 . S
C6463 C6460 1.539 . S
C6463 H6477 0.958 . S
C6463 H6478 0.961 . S
C6463 H6479 0.960 . S
H6464 C6448 0.931 . S
H6465 C6453 0.929 . S
H6466 C6454 0.960 . S
H6467 C6454 0.962 . S
H6468 C6454 0.960 . S
H6469 C6455 0.961 . S
H6470 C6455 0.961 . S
H6471 C6455 0.961 . S
H6472 C6456 0.931 . S
H6473 C6461 0.930 . S
H6474 C6462 0.956 . S
H6475 C6462 0.961 . S
H6476 C6462 0.961 . S
H6477 C6463 0.958 . S
H6478 C6463 0.961 . S
H6479 C6463 0.960 . S
C6480 C6481 1.391 . S
C6480 C6482 1.394 . S
C6480 H6496 0.931 . S
C6481 C6480 1.391 . S
C6481 C6485 1.376 . S
C6482 C6480 1.394 . S
C6482 C6483 1.369 . S
C6482 C6486 1.531 . S
C6483 C6482 1.369 . S
C6483 C6484 1.410 . S
C6483 C6491 1.503 . S
C6484 C6483 1.410 . S
C6484 C6485 1.392 . S
C6484 C6487 1.511 . S
C6485 C6481 1.376 . S
C6485 C6484 1.392 . S
C6485 H6497 0.929 . S
C6486 C6482 1.531 . S
C6486 H6498 0.960 . S
C6486 H6499 0.962 . S
C6486 H6500 0.960 . S
C6487 C6484 1.511 . S
C6487 H6501 0.961 . S
C6487 H6502 0.961 . S
C6487 H6503 0.961 . S
C6488 C6489 1.370 . S
C6488 C6490 1.363 . S
C6488 H6504 0.931 . S
C6489 C6488 1.370 . S
C6489 C6493 1.408 . S
C6490 C6488 1.363 . S
C6490 C6491 1.370 . S
C6490 C6494 1.524 . S
C6491 C6483 1.503 . S
C6491 C6490 1.370 . S
C6491 C6492 1.403 . S
C6492 C6491 1.403 . S
C6492 C6493 1.404 . S
C6492 C6495 1.539 . S
C6493 C6489 1.408 . S
C6493 C6492 1.404 . S
C6493 H6505 0.930 . S
C6494 C6490 1.524 . S
C6494 H6506 0.956 . S
C6494 H6507 0.961 . S
C6494 H6508 0.961 . S
C6495 C6492 1.539 . S
C6495 H6509 0.958 . S
C6495 H6510 0.961 . S
C6495 H6511 0.960 . S
H6496 C6480 0.931 . S
H6497 C6485 0.929 . S
H6498 C6486 0.960 . S
H6499 C6486 0.962 . S
H6500 C6486 0.960 . S
H6501 C6487 0.961 . S
H6502 C6487 0.961 . S
H6503 C6487 0.961 . S
H6504 C6488 0.931 . S
H6505 C6493 0.930 . S
H6506 C6494 0.956 . S
H6507 C6494 0.961 . S
H6508 C6494 0.961 . S
H6509 C6495 0.958 . S
H6510 C6495 0.961 . S
H6511 C6495 0.960 . S
C6512 C6513 1.391 . S
C6512 C6514 1.394 . S
C6512 H6528 0.931 . S
C6513 C6512 1.391 . S
C6513 C6517 1.376 . S
C6514 C6512 1.394 . S
C6514 C6515 1.369 . S
C6514 C6518 1.531 . S
C6515 C6514 1.369 . S
C6515 C6516 1.410 . S
C6515 C6523 1.503 . S
C6516 C6515 1.410 . S
C6516 C6517 1.392 . S
C6516 C6519 1.511 . S
C6517 C6513 1.376 . S
C6517 C6516 1.392 . S
C6517 H6529 0.929 . S
C6518 C6514 1.531 . S
C6518 H6530 0.960 . S
C6518 H6531 0.962 . S
C6518 H6532 0.960 . S
C6519 C6516 1.511 . S
C6519 H6533 0.961 . S
C6519 H6534 0.961 . S
C6519 H6535 0.961 . S
C6520 C6521 1.370 . S
C6520 C6522 1.363 . S
C6520 H6536 0.931 . S
C6521 C6520 1.370 . S
C6521 C6525 1.408 . S
C6522 C6520 1.363 . S
C6522 C6523 1.370 . S
C6522 C6526 1.524 . S
C6523 C6515 1.503 . S
C6523 C6522 1.370 . S
C6523 C6524 1.403 . S
C6524 C6523 1.403 . S
C6524 C6525 1.404 . S
C6524 C6527 1.539 . S
C6525 C6521 1.408 . S
C6525 C6524 1.404 . S
C6525 H6537 0.930 . S
C6526 C6522 1.524 . S
C6526 H6538 0.956 . S
C6526 H6539 0.961 . S
C6526 H6540 0.961 . S
C6527 C6524 1.539 . S
C6527 H6541 0.958 . S
C6527 H6542 0.961 . S
C6527 H6543 0.960 . S
H6528 C6512 0.931 . S
H6529 C6517 0.929 . S
H6530 C6518 0.960 . S
H6531 C6518 0.962 . S
H6532 C6518 0.960 . S
H6533 C6519 0.961 . S
H6534 C6519 0.961 . S
H6535 C6519 0.961 . S
H6536 C6520 0.931 . S
H6537 C6525 0.930 . S
H6538 C6526 0.956 . S
H6539 C6526 0.961 . S
H6540 C6526 0.961 . S
H6541 C6527 0.958 . S
H6542 C6527 0.961 . S
H6543 C6527 0.960 . S
C6544 C6545 1.391 . S
C6544 C6546 1.394 . S
C6544 H6560 0.931 . S
C6545 C6544 1.391 . S
C6545 C6549 1.376 . S
C6546 C6544 1.394 . S
C6546 C6547 1.369 . S
C6546 C6550 1.531 . S
C6547 C6546 1.369 . S
C6547 C6548 1.410 . S
C6547 C6555 1.503 . S
C6548 C6547 1.410 . S
C6548 C6549 1.392 . S
C6548 C6551 1.511 . S
C6549 C6545 1.376 . S
C6549 C6548 1.392 . S
C6549 H6561 0.929 . S
C6550 C6546 1.531 . S
C6550 H6562 0.960 . S
C6550 H6563 0.962 . S
C6550 H6564 0.960 . S
C6551 C6548 1.511 . S
C6551 H6565 0.961 . S
C6551 H6566 0.961 . S
C6551 H6567 0.961 . S
C6552 C6553 1.370 . S
C6552 C6554 1.363 . S
C6552 H6568 0.931 . S
C6553 C6552 1.370 . S
C6553 C6557 1.408 . S
C6554 C6552 1.363 . S
C6554 C6555 1.370 . S
C6554 C6558 1.524 . S
C6555 C6547 1.503 . S
C6555 C6554 1.370 . S
C6555 C6556 1.403 . S
C6556 C6555 1.403 . S
C6556 C6557 1.404 . S
C6556 C6559 1.539 . S
C6557 C6553 1.408 . S
C6557 C6556 1.404 . S
C6557 H6569 0.930 . S
C6558 C6554 1.524 . S
C6558 H6570 0.956 . S
C6558 H6571 0.961 . S
C6558 H6572 0.961 . S
C6559 C6556 1.539 . S
C6559 H6573 0.958 . S
C6559 H6574 0.961 . S
C6559 H6575 0.960 . S
H6560 C6544 0.931 . S
H6561 C6549 0.929 . S
H6562 C6550 0.960 . S
H6563 C6550 0.962 . S
H6564 C6550 0.960 . S
H6565 C6551 0.961 . S
H6566 C6551 0.961 . S
H6567 C6551 0.961 . S
H6568 C6552 0.931 . S
H6569 C6557 0.930 . S
H6570 C6558 0.956 . S
H6571 C6558 0.961 . S
H6572 C6558 0.961 . S
H6573 C6559 0.958 . S
H6574 C6559 0.961 . S
H6575 C6559 0.960 . S
C6576 C6577 1.391 . S
C6576 C6578 1.394 . S
C6576 H6592 0.931 . S
C6577 C6576 1.391 . S
C6577 C6581 1.376 . S
C6578 C6576 1.394 . S
C6578 C6579 1.369 . S
C6578 C6582 1.531 . S
C6579 C6578 1.369 . S
C6579 C6580 1.410 . S
C6579 C6587 1.503 . S
C6580 C6579 1.410 . S
C6580 C6581 1.392 . S
C6580 C6583 1.511 . S
C6581 C6577 1.376 . S
C6581 C6580 1.392 . S
C6581 H6593 0.929 . S
C6582 C6578 1.531 . S
C6582 H6594 0.960 . S
C6582 H6595 0.962 . S
C6582 H6596 0.960 . S
C6583 C6580 1.511 . S
C6583 H6597 0.961 . S
C6583 H6598 0.961 . S
C6583 H6599 0.961 . S
C6584 C6585 1.370 . S
C6584 C6586 1.363 . S
C6584 H6600 0.931 . S
C6585 C6584 1.370 . S
C6585 C6589 1.408 . S
C6586 C6584 1.363 . S
C6586 C6587 1.370 . S
C6586 C6590 1.524 . S
C6587 C6579 1.503 . S
C6587 C6586 1.370 . S
C6587 C6588 1.403 . S
C6588 C6587 1.403 . S
C6588 C6589 1.404 . S
C6588 C6591 1.539 . S
C6589 C6585 1.408 . S
C6589 C6588 1.404 . S
C6589 H6601 0.930 . S
C6590 C6586 1.524 . S
C6590 H6602 0.956 . S
C6590 H6603 0.961 . S
C6590 H6604 0.961 . S
C6591 C6588 1.539 . S
C6591 H6605 0.958 . S
C6591 H6606 0.961 . S
C6591 H6607 0.960 . S
H6592 C6576 0.931 . S
H6593 C6581 0.929 . S
H6594 C6582 0.960 . S
H6595 C6582 0.962 . S
H6596 C6582 0.960 . S
H6597 C6583 0.961 . S
H6598 C6583 0.961 . S
H6599 C6583 0.961 . S
H6600 C6584 0.931 . S
H6601 C6589 0.930 . S
H6602 C6590 0.956 . S
H6603 C6590 0.961 . S
H6604 C6590 0.961 . S
H6605 C6591 0.958 . S
H6606 C6591 0.961 . S
H6607 C6591 0.960 . S
C6608 C6609 1.391 . S
C6608 C6610 1.394 . S
C6608 H6624 0.931 . S
C6609 C6608 1.391 . S
C6609 C6613 1.376 . S
C6610 C6608 1.394 . S
C6610 C6611 1.369 . S
C6610 C6614 1.531 . S
C6611 C6610 1.369 . S
C6611 C6612 1.410 . S
C6611 C6619 1.503 . S
C6612 C6611 1.410 . S
C6612 C6613 1.392 . S
C6612 C6615 1.511 . S
C6613 C6609 1.376 . S
C6613 C6612 1.392 . S
C6613 H6625 0.929 . S
C6614 C6610 1.531 . S
C6614 H6626 0.960 . S
C6614 H6627 0.962 . S
C6614 H6628 0.960 . S
C6615 C6612 1.511 . S
C6615 H6629 0.961 . S
C6615 H6630 0.961 . S
C6615 H6631 0.961 . S
C6616 C6617 1.370 . S
C6616 C6618 1.363 . S
C6616 H6632 0.931 . S
C6617 C6616 1.370 . S
C6617 C6621 1.408 . S
C6618 C6616 1.363 . S
C6618 C6619 1.370 . S
C6618 C6622 1.524 . S
C6619 C6611 1.503 . S
C6619 C6618 1.370 . S
C6619 C6620 1.403 . S
C6620 C6619 1.403 . S
C6620 C6621 1.404 . S
C6620 C6623 1.539 . S
C6621 C6617 1.408 . S
C6621 C6620 1.404 . S
C6621 H6633 0.930 . S
C6622 C6618 1.524 . S
C6622 H6634 0.956 . S
C6622 H6635 0.961 . S
C6622 H6636 0.961 . S
C6623 C6620 1.539 . S
C6623 H6637 0.958 . S
C6623 H6638 0.961 . S
C6623 H6639 0.960 . S
H6624 C6608 0.931 . S
H6625 C6613 0.929 . S
H6626 C6614 0.960 . S
H6627 C6614 0.962 . S
H6628 C6614 0.960 . S
H6629 C6615 0.961 . S
H6630 C6615 0.961 . S
H6631 C6615 0.961 . S
H6632 C6616 0.931 . S
H6633 C6621 0.930 . S
H6634 C6622 0.956 . S
H6635 C6622 0.961 . S
H6636 C6622 0.961 . S
H6637 C6623 0.958 . S
H6638 C6623 0.961 . S
H6639 C6623 0.960 . S
C6640 C6641 1.391 . S
C6640 C6642 1.394 . S
C6640 H6656 0.931 . S
C6641 C6640 1.391 . S
C6641 C6645 1.376 . S
C6642 C6640 1.394 . S
C6642 C6643 1.369 . S
C6642 C6646 1.531 . S
C6643 C6642 1.369 . S
C6643 C6644 1.410 . S
C6643 C6651 1.503 . S
C6644 C6643 1.410 . S
C6644 C6645 1.392 . S
C6644 C6647 1.511 . S
C6645 C6641 1.376 . S
C6645 C6644 1.392 . S
C6645 H6657 0.929 . S
C6646 C6642 1.531 . S
C6646 H6658 0.960 . S
C6646 H6659 0.962 . S
C6646 H6660 0.960 . S
C6647 C6644 1.511 . S
C6647 H6661 0.961 . S
C6647 H6662 0.961 . S
C6647 H6663 0.961 . S
C6648 C6649 1.370 . S
C6648 C6650 1.363 . S
C6648 H6664 0.931 . S
C6649 C6648 1.370 . S
C6649 C6653 1.408 . S
C6650 C6648 1.363 . S
C6650 C6651 1.370 . S
C6650 C6654 1.524 . S
C6651 C6643 1.503 . S
C6651 C6650 1.370 . S
C6651 C6652 1.403 . S
C6652 C6651 1.403 . S
C6652 C6653 1.404 . S
C6652 C6655 1.539 . S
C6653 C6649 1.408 . S
C6653 C6652 1.404 . S
C6653 H6665 0.930 . S
C6654 C6650 1.524 . S
C6654 H6666 0.956 . S
C6654 H6667 0.961 . S
C6654 H6668 0.961 . S
C6655 C6652 1.539 . S
C6655 H6669 0.958 . S
C6655 H6670 0.961 . S
C6655 H6671 0.960 . S
H6656 C6640 0.931 . S
H6657 C6645 0.929 . S
H6658 C6646 0.960 . S
H6659 C6646 0.962 . S
H6660 C6646 0.960 . S
H6661 C6647 0.961 . S
H6662 C6647 0.961 . S
H6663 C6647 0.961 . S
H6664 C6648 0.931 . S
H6665 C6653 0.930 . S
H6666 C6654 0.956 . S
H6667 C6654 0.961 . S
H6668 C6654 0.961 . S
H6669 C6655 0.958 . S
H6670 C6655 0.961 . S
H6671 C6655 0.960 . S
C6672 C6673 1.391 . S
C6672 C6674 1.394 . S
C6672 H6688 0.931 . S
C6673 C6672 1.391 . S
C6673 C6677 1.376 . S
C6674 C6672 1.394 . S
C6674 C6675 1.369 . S
C6674 C6678 1.531 . S
C6675 C6674 1.369 . S
C6675 C6676 1.410 . S
C6675 C6683 1.503 . S
C6676 C6675 1.410 . S
C6676 C6677 1.392 . S
C6676 C6679 1.511 . S
C6677 C6673 1.376 . S
C6677 C6676 1.392 . S
C6677 H6689 0.929 . S
C6678 C6674 1.531 . S
C6678 H6690 0.960 . S
C6678 H6691 0.962 . S
C6678 H6692 0.960 . S
C6679 C6676 1.511 . S
C6679 H6693 0.961 . S
C6679 H6694 0.961 . S
C6679 H6695 0.961 . S
C6680 C6681 1.370 . S
C6680 C6682 1.363 . S
C6680 H6696 0.931 . S
C6681 C6680 1.370 . S
C6681 C6685 1.408 . S
C6682 C6680 1.363 . S
C6682 C6683 1.370 . S
C6682 C6686 1.524 . S
C6683 C6675 1.503 . S
C6683 C6682 1.370 . S
C6683 C6684 1.403 . S
C6684 C6683 1.403 . S
C6684 C6685 1.404 . S
C6684 C6687 1.539 . S
C6685 C6681 1.408 . S
C6685 C6684 1.404 . S
C6685 H6697 0.930 . S
C6686 C6682 1.524 . S
C6686 H6698 0.956 . S
C6686 H6699 0.961 . S
C6686 H6700 0.961 . S
C6687 C6684 1.539 . S
C6687 H6701 0.958 . S
C6687 H6702 0.961 . S
C6687 H6703 0.960 . S
H6688 C6672 0.931 . S
H6689 C6677 0.929 . S
H6690 C6678 0.960 . S
H6691 C6678 0.962 . S
H6692 C6678 0.960 . S
H6693 C6679 0.961 . S
H6694 C6679 0.961 . S
H6695 C6679 0.961 . S
H6696 C6680 0.931 . S
H6697 C6685 0.930 . S
H6698 C6686 0.956 . S
H6699 C6686 0.961 . S
H6700 C6686 0.961 . S
H6701 C6687 0.958 . S
H6702 C6687 0.961 . S
H6703 C6687 0.960 . S
C6704 C6705 1.391 . S
C6704 C6706 1.394 . S
C6704 H6720 0.931 . S
C6705 C6704 1.391 . S
C6705 C6709 1.376 . S
C6706 C6704 1.394 . S
C6706 C6707 1.369 . S
C6706 C6710 1.531 . S
C6707 C6706 1.369 . S
C6707 C6708 1.410 . S
C6707 C6715 1.503 . S
C6708 C6707 1.410 . S
C6708 C6709 1.392 . S
C6708 C6711 1.511 . S
C6709 C6705 1.376 . S
C6709 C6708 1.392 . S
C6709 H6721 0.929 . S
C6710 C6706 1.531 . S
C6710 H6722 0.960 . S
C6710 H6723 0.962 . S
C6710 H6724 0.960 . S
C6711 C6708 1.511 . S
C6711 H6725 0.961 . S
C6711 H6726 0.961 . S
C6711 H6727 0.961 . S
C6712 C6713 1.370 . S
C6712 C6714 1.363 . S
C6712 H6728 0.931 . S
C6713 C6712 1.370 . S
C6713 C6717 1.408 . S
C6714 C6712 1.363 . S
C6714 C6715 1.370 . S
C6714 C6718 1.524 . S
C6715 C6707 1.503 . S
C6715 C6714 1.370 . S
C6715 C6716 1.403 . S
C6716 C6715 1.403 . S
C6716 C6717 1.404 . S
C6716 C6719 1.539 . S
C6717 C6713 1.408 . S
C6717 C6716 1.404 . S
C6717 H6729 0.930 . S
C6718 C6714 1.524 . S
C6718 H6730 0.956 . S
C6718 H6731 0.961 . S
C6718 H6732 0.961 . S
C6719 C6716 1.539 . S
C6719 H6733 0.958 . S
C6719 H6734 0.961 . S
C6719 H6735 0.960 . S
H6720 C6704 0.931 . S
H6721 C6709 0.929 . S
H6722 C6710 0.960 . S
H6723 C6710 0.962 . S
H6724 C6710 0.960 . S
H6725 C6711 0.961 . S
H6726 C6711 0.961 . S
H6727 C6711 0.961 . S
H6728 C6712 0.931 . S
H6729 C6717 0.930 . S
H6730 C6718 0.956 . S
H6731 C6718 0.961 . S
H6732 C6718 0.961 . S
H6733 C6719 0.958 . S
H6734 C6719 0.961 . S
H6735 C6719 0.960 . S
C6736 C6737 1.391 . S
C6736 C6738 1.394 . S
C6736 H6752 0.931 . S
C6737 C6736 1.391 . S
C6737 C6741 1.376 . S
C6738 C6736 1.394 . S
C6738 C6739 1.369 . S
C6738 C6742 1.531 . S
C6739 C6738 1.369 . S
C6739 C6740 1.410 . S
C6739 C6747 1.503 . S
C6740 C6739 1.410 . S
C6740 C6741 1.392 . S
C6740 C6743 1.511 . S
C6741 C6737 1.376 . S
C6741 C6740 1.392 . S
C6741 H6753 0.929 . S
C6742 C6738 1.531 . S
C6742 H6754 0.960 . S
C6742 H6755 0.962 . S
C6742 H6756 0.960 . S
C6743 C6740 1.511 . S
C6743 H6757 0.961 . S
C6743 H6758 0.961 . S
C6743 H6759 0.961 . S
C6744 C6745 1.370 . S
C6744 C6746 1.363 . S
C6744 H6760 0.931 . S
C6745 C6744 1.370 . S
C6745 C6749 1.408 . S
C6746 C6744 1.363 . S
C6746 C6747 1.370 . S
C6746 C6750 1.524 . S
C6747 C6739 1.503 . S
C6747 C6746 1.370 . S
C6747 C6748 1.403 . S
C6748 C6747 1.403 . S
C6748 C6749 1.404 . S
C6748 C6751 1.539 . S
C6749 C6745 1.408 . S
C6749 C6748 1.404 . S
C6749 H6761 0.930 . S
C6750 C6746 1.524 . S
C6750 H6762 0.956 . S
C6750 H6763 0.961 . S
C6750 H6764 0.961 . S
C6751 C6748 1.539 . S
C6751 H6765 0.958 . S
C6751 H6766 0.961 . S
C6751 H6767 0.960 . S
H6752 C6736 0.931 . S
H6753 C6741 0.929 . S
H6754 C6742 0.960 . S
H6755 C6742 0.962 . S
H6756 C6742 0.960 . S
H6757 C6743 0.961 . S
H6758 C6743 0.961 . S
H6759 C6743 0.961 . S
H6760 C6744 0.931 . S
H6761 C6749 0.930 . S
H6762 C6750 0.956 . S
H6763 C6750 0.961 . S
H6764 C6750 0.961 . S
H6765 C6751 0.958 . S
H6766 C6751 0.961 . S
H6767 C6751 0.960 . S
C6768 C6769 1.391 . S
C6768 C6770 1.394 . S
C6768 H6784 0.931 . S
C6769 C6768 1.391 . S
C6769 C6773 1.376 . S
C6770 C6768 1.394 . S
C6770 C6771 1.369 . S
C6770 C6774 1.531 . S
C6771 C6770 1.369 . S
C6771 C6772 1.410 . S
C6771 C6779 1.503 . S
C6772 C6771 1.410 . S
C6772 C6773 1.392 . S
C6772 C6775 1.511 . S
C6773 C6769 1.376 . S
C6773 C6772 1.392 . S
C6773 H6785 0.929 . S
C6774 C6770 1.531 . S
C6774 H6786 0.960 . S
C6774 H6787 0.962 . S
C6774 H6788 0.960 . S
C6775 C6772 1.511 . S
C6775 H6789 0.961 . S
C6775 H6790 0.961 . S
C6775 H6791 0.961 . S
C6776 C6777 1.370 . S
C6776 C6778 1.363 . S
C6776 H6792 0.931 . S
C6777 C6776 1.370 . S
C6777 C6781 1.408 . S
C6778 C6776 1.363 . S
C6778 C6779 1.370 . S
C6778 C6782 1.524 . S
C6779 C6771 1.503 . S
C6779 C6778 1.370 . S
C6779 C6780 1.403 . S
C6780 C6779 1.403 . S
C6780 C6781 1.404 . S
C6780 C6783 1.539 . S
C6781 C6777 1.408 . S
C6781 C6780 1.404 . S
C6781 H6793 0.930 . S
C6782 C6778 1.524 . S
C6782 H6794 0.956 . S
C6782 H6795 0.961 . S
C6782 H6796 0.961 . S
C6783 C6780 1.539 . S
C6783 H6797 0.958 . S
C6783 H6798 0.961 . S
C6783 H6799 0.960 . S
H6784 C6768 0.931 . S
H6785 C6773 0.929 . S
H6786 C6774 0.960 . S
H6787 C6774 0.962 . S
H6788 C6774 0.960 . S
H6789 C6775 0.961 . S
H6790 C6775 0.961 . S
H6791 C6775 0.961 . S
H6792 C6776 0.931 . S
H6793 C6781 0.930 . S
H6794 C6782 0.956 . S
H6795 C6782 0.961 . S
H6796 C6782 0.961 . S
H6797 C6783 0.958 . S
H6798 C6783 0.961 . S
H6799 C6783 0.960 . S
C6800 C6801 1.391 . S
C6800 C6802 1.394 . S
C6800 H6816 0.931 . S
C6801 C6800 1.391 . S
C6801 C6805 1.376 . S
C6802 C6800 1.394 . S
C6802 C6803 1.369 . S
C6802 C6806 1.531 . S
C6803 C6802 1.369 . S
C6803 C6804 1.410 . S
C6803 C6811 1.503 . S
C6804 C6803 1.410 . S
C6804 C6805 1.392 . S
C6804 C6807 1.511 . S
C6805 C6801 1.376 . S
C6805 C6804 1.392 . S
C6805 H6817 0.929 . S
C6806 C6802 1.531 . S
C6806 H6818 0.960 . S
C6806 H6819 0.962 . S
C6806 H6820 0.960 . S
C6807 C6804 1.511 . S
C6807 H6821 0.961 . S
C6807 H6822 0.961 . S
C6807 H6823 0.961 . S
C6808 C6809 1.370 . S
C6808 C6810 1.363 . S
C6808 H6824 0.931 . S
C6809 C6808 1.370 . S
C6809 C6813 1.408 . S
C6810 C6808 1.363 . S
C6810 C6811 1.370 . S
C6810 C6814 1.524 . S
C6811 C6803 1.503 . S
C6811 C6810 1.370 . S
C6811 C6812 1.403 . S
C6812 C6811 1.403 . S
C6812 C6813 1.404 . S
C6812 C6815 1.539 . S
C6813 C6809 1.408 . S
C6813 C6812 1.404 . S
C6813 H6825 0.930 . S
C6814 C6810 1.524 . S
C6814 H6826 0.956 . S
C6814 H6827 0.961 . S
C6814 H6828 0.961 . S
C6815 C6812 1.539 . S
C6815 H6829 0.958 . S
C6815 H6830 0.961 . S
C6815 H6831 0.960 . S
H6816 C6800 0.931 . S
H6817 C6805 0.929 . S
H6818 C6806 0.960 . S
H6819 C6806 0.962 . S
H6820 C6806 0.960 . S
H6821 C6807 0.961 . S
H6822 C6807 0.961 . S
H6823 C6807 0.961 . S
H6824 C6808 0.931 . S
H6825 C6813 0.930 . S
H6826 C6814 0.956 . S
H6827 C6814 0.961 . S
H6828 C6814 0.961 . S
H6829 C6815 0.958 . S
H6830 C6815 0.961 . S
H6831 C6815 0.960 . S
C6832 C6833 1.391 . S
C6832 C6834 1.394 . S
C6832 H6848 0.931 . S
C6833 C6832 1.391 . S
C6833 C6837 1.376 . S
C6834 C6832 1.394 . S
C6834 C6835 1.369 . S
C6834 C6838 1.531 . S
C6835 C6834 1.369 . S
C6835 C6836 1.410 . S
C6835 C6843 1.503 . S
C6836 C6835 1.410 . S
C6836 C6837 1.392 . S
C6836 C6839 1.511 . S
C6837 C6833 1.376 . S
C6837 C6836 1.392 . S
C6837 H6849 0.929 . S
C6838 C6834 1.531 . S
C6838 H6850 0.960 . S
C6838 H6851 0.962 . S
C6838 H6852 0.960 . S
C6839 C6836 1.511 . S
C6839 H6853 0.961 . S
C6839 H6854 0.961 . S
C6839 H6855 0.961 . S
C6840 C6841 1.370 . S
C6840 C6842 1.363 . S
C6840 H6856 0.931 . S
C6841 C6840 1.370 . S
C6841 C6845 1.408 . S
C6842 C6840 1.363 . S
C6842 C6843 1.370 . S
C6842 C6846 1.524 . S
C6843 C6835 1.503 . S
C6843 C6842 1.370 . S
C6843 C6844 1.403 . S
C6844 C6843 1.403 . S
C6844 C6845 1.404 . S
C6844 C6847 1.539 . S
C6845 C6841 1.408 . S
C6845 C6844 1.404 . S
C6845 H6857 0.930 . S
C6846 C6842 1.524 . S
C6846 H6858 0.956 . S
C6846 H6859 0.961 . S
C6846 H6860 0.961 . S
C6847 C6844 1.539 . S
C6847 H6861 0.958 . S
C6847 H6862 0.961 . S
C6847 H6863 0.960 . S
H6848 C6832 0.931 . S
H6849 C6837 0.929 . S
H6850 C6838 0.960 . S
H6851 C6838 0.962 . S
H6852 C6838 0.960 . S
H6853 C6839 0.961 . S
H6854 C6839 0.961 . S
H6855 C6839 0.961 . S
H6856 C6840 0.931 . S
H6857 C6845 0.930 . S
H6858 C6846 0.956 . S
H6859 C6846 0.961 . S
H6860 C6846 0.961 . S
H6861 C6847 0.958 . S
H6862 C6847 0.961 . S
H6863 C6847 0.960 . S
C6864 C6865 1.391 . S
C6864 C6866 1.394 . S
C6864 H6880 0.931 . S
C6865 C6864 1.391 . S
C6865 C6869 1.376 . S
C6866 C6864 1.394 . S
C6866 C6867 1.369 . S
C6866 C6870 1.531 . S
C6867 C6866 1.369 . S
C6867 C6868 1.410 . S
C6867 C6875 1.503 . S
C6868 C6867 1.410 . S
C6868 C6869 1.392 . S
C6868 C6871 1.511 . S
C6869 C6865 1.376 . S
C6869 C6868 1.392 . S
C6869 H6881 0.929 . S
C6870 C6866 1.531 . S
C6870 H6882 0.960 . S
C6870 H6883 0.962 . S
C6870 H6884 0.960 . S
C6871 C6868 1.511 . S
C6871 H6885 0.961 . S
C6871 H6886 0.961 . S
C6871 H6887 0.961 . S
C6872 C6873 1.370 . S
C6872 C6874 1.363 . S
C6872 H6888 0.931 . S
C6873 C6872 1.370 . S
C6873 C6877 1.408 . S
C6874 C6872 1.363 . S
C6874 C6875 1.370 . S
C6874 C6878 1.524 . S
C6875 C6867 1.503 . S
C6875 C6874 1.370 . S
C6875 C6876 1.403 . S
C6876 C6875 1.403 . S
C6876 C6877 1.404 . S
C6876 C6879 1.539 . S
C6877 C6873 1.408 . S
C6877 C6876 1.404 . S
C6877 H6889 0.930 . S
C6878 C6874 1.524 . S
C6878 H6890 0.956 . S
C6878 H6891 0.961 . S
C6878 H6892 0.961 . S
C6879 C6876 1.539 . S
C6879 H6893 0.958 . S
C6879 H6894 0.961 . S
C6879 H6895 0.960 . S
H6880 C6864 0.931 . S
H6881 C6869 0.929 . S
H6882 C6870 0.960 . S
H6883 C6870 0.962 . S
H6884 C6870 0.960 . S
H6885 C6871 0.961 . S
H6886 C6871 0.961 . S
H6887 C6871 0.961 . S
H6888 C6872 0.931 . S
H6889 C6877 0.930 . S
H6890 C6878 0.956 . S
H6891 C6878 0.961 . S
H6892 C6878 0.961 . S
H6893 C6879 0.958 . S
H6894 C6879 0.961 . S
H6895 C6879 0.960 . S
C6896 C6897 1.391 . S
C6896 C6898 1.394 . S
C6896 H6912 0.931 . S
C6897 C6896 1.391 . S
C6897 C6901 1.376 . S
C6898 C6896 1.394 . S
C6898 C6899 1.369 . S
C6898 C6902 1.531 . S
C6899 C6898 1.369 . S
C6899 C6900 1.410 . S
C6899 C6907 1.503 . S
C6900 C6899 1.410 . S
C6900 C6901 1.392 . S
C6900 C6903 1.511 . S
C6901 C6897 1.376 . S
C6901 C6900 1.392 . S
C6901 H6913 0.929 . S
C6902 C6898 1.531 . S
C6902 H6914 0.960 . S
C6902 H6915 0.962 . S
C6902 H6916 0.960 . S
C6903 C6900 1.511 . S
C6903 H6917 0.961 . S
C6903 H6918 0.961 . S
C6903 H6919 0.961 . S
C6904 C6905 1.370 . S
C6904 C6906 1.363 . S
C6904 H6920 0.931 . S
C6905 C6904 1.370 . S
C6905 C6909 1.408 . S
C6906 C6904 1.363 . S
C6906 C6907 1.370 . S
C6906 C6910 1.524 . S
C6907 C6899 1.503 . S
C6907 C6906 1.370 . S
C6907 C6908 1.403 . S
C6908 C6907 1.403 . S
C6908 C6909 1.404 . S
C6908 C6911 1.539 . S
C6909 C6905 1.408 . S
C6909 C6908 1.404 . S
C6909 H6921 0.930 . S
C6910 C6906 1.524 . S
C6910 H6922 0.956 . S
C6910 H6923 0.961 . S
C6910 H6924 0.961 . S
C6911 C6908 1.539 . S
C6911 H6925 0.958 . S
C6911 H6926 0.961 . S
C6911 H6927 0.960 . S
H6912 C6896 0.931 . S
H6913 C6901 0.929 . S
H6914 C6902 0.960 . S
H6915 C6902 0.962 . S
H6916 C6902 0.960 . S
H6917 C6903 0.961 . S
H6918 C6903 0.961 . S
H6919 C6903 0.961 . S
H6920 C6904 0.931 . S
H6921 C6909 0.930 . S
H6922 C6910 0.956 . S
H6923 C6910 0.961 . S
H6924 C6910 0.961 . S
H6925 C6911 0.958 . S
H6926 C6911 0.961 . S
H6927 C6911 0.960 . S
C6928 C6929 1.391 . S
C6928 C6930 1.394 . S
C6928 H6944 0.931 . S
C6929 C6928 1.391 . S
C6929 C6933 1.376 . S
C6930 C6928 1.394 . S
C6930 C6931 1.369 . S
C6930 C6934 1.531 . S
C6931 C6930 1.369 . S
C6931 C6932 1.410 . S
C6931 C6939 1.503 . S
C6932 C6931 1.410 . S
C6932 C6933 1.392 . S
C6932 C6935 1.511 . S
C6933 C6929 1.376 . S
C6933 C6932 1.392 . S
C6933 H6945 0.929 . S
C6934 C6930 1.531 . S
C6934 H6946 0.960 . S
C6934 H6947 0.962 . S
C6934 H6948 0.960 . S
C6935 C6932 1.511 . S
C6935 H6949 0.961 . S
C6935 H6950 0.961 . S
C6935 H6951 0.961 . S
C6936 C6937 1.370 . S
C6936 C6938 1.363 . S
C6936 H6952 0.931 . S
C6937 C6936 1.370 . S
C6937 C6941 1.408 . S
C6938 C6936 1.363 . S
C6938 C6939 1.370 . S
C6938 C6942 1.524 . S
C6939 C6931 1.503 . S
C6939 C6938 1.370 . S
C6939 C6940 1.403 . S
C6940 C6939 1.403 . S
C6940 C6941 1.404 . S
C6940 C6943 1.539 . S
C6941 C6937 1.408 . S
C6941 C6940 1.404 . S
C6941 H6953 0.930 . S
C6942 C6938 1.524 . S
C6942 H6954 0.956 . S
C6942 H6955 0.961 . S
C6942 H6956 0.961 . S
C6943 C6940 1.539 . S
C6943 H6957 0.958 . S
C6943 H6958 0.961 . S
C6943 H6959 0.960 . S
H6944 C6928 0.931 . S
H6945 C6933 0.929 . S
H6946 C6934 0.960 . S
H6947 C6934 0.962 . S
H6948 C6934 0.960 . S
H6949 C6935 0.961 . S
H6950 C6935 0.961 . S
H6951 C6935 0.961 . S
H6952 C6936 0.931 . S
H6953 C6941 0.930 . S
H6954 C6942 0.956 . S
H6955 C6942 0.961 . S
H6956 C6942 0.961 . S
H6957 C6943 0.958 . S
H6958 C6943 0.961 . S
H6959 C6943 0.960 . S
C6960 C6961 1.391 . S
C6960 C6962 1.394 . S
C6960 H6976 0.931 . S
C6961 C6960 1.391 . S
C6961 C6965 1.376 . S
C6962 C6960 1.394 . S
C6962 C6963 1.369 . S
C6962 C6966 1.531 . S
C6963 C6962 1.369 . S
C6963 C6964 1.410 . S
C6963 C6971 1.503 . S
C6964 C6963 1.410 . S
C6964 C6965 1.392 . S
C6964 C6967 1.511 . S
C6965 C6961 1.376 . S
C6965 C6964 1.392 . S
C6965 H6977 0.929 . S
C6966 C6962 1.531 . S
C6966 H6978 0.960 . S
C6966 H6979 0.962 . S
C6966 H6980 0.960 . S
C6967 C6964 1.511 . S
C6967 H6981 0.961 . S
C6967 H6982 0.961 . S
C6967 H6983 0.961 . S
C6968 C6969 1.370 . S
C6968 C6970 1.363 . S
C6968 H6984 0.931 . S
C6969 C6968 1.370 . S
C6969 C6973 1.408 . S
C6970 C6968 1.363 . S
C6970 C6971 1.370 . S
C6970 C6974 1.524 . S
C6971 C6963 1.503 . S
C6971 C6970 1.370 . S
C6971 C6972 1.403 . S
C6972 C6971 1.403 . S
C6972 C6973 1.404 . S
C6972 C6975 1.539 . S
C6973 C6969 1.408 . S
C6973 C6972 1.404 . S
C6973 H6985 0.930 . S
C6974 C6970 1.524 . S
C6974 H6986 0.956 . S
C6974 H6987 0.961 . S
C6974 H6988 0.961 . S
C6975 C6972 1.539 . S
C6975 H6989 0.958 . S
C6975 H6990 0.961 . S
C6975 H6991 0.960 . S
H6976 C6960 0.931 . S
H6977 C6965 0.929 . S
H6978 C6966 0.960 . S
H6979 C6966 0.962 . S
H6980 C6966 0.960 . S
H6981 C6967 0.961 . S
H6982 C6967 0.961 . S
H6983 C6967 0.961 . S
H6984 C6968 0.931 . S
H6985 C6973 0.930 . S
H6986 C6974 0.956 . S
H6987 C6974 0.961 . S
H6988 C6974 0.961 . S
H6989 C6975 0.958 . S
H6990 C6975 0.961 . S
H6991 C6975 0.960 . S
C6992 C6993 1.391 . S
C6992 C6994 1.394 . S
C6992 H7008 0.931 . S
C6993 C6992 1.391 . S
C6993 C6997 1.376 . S
C6994 C6992 1.394 . S
C6994 C6995 1.369 . S
C6994 C6998 1.531 . S
C6995 C6994 1.369 . S
C6995 C6996 1.410 . S
C6995 C7003 1.503 . S
C6996 C6995 1.410 . S
C6996 C6997 1.392 . S
C6996 C6999 1.511 . S
C6997 C6993 1.376 . S
C6997 C6996 1.392 . S
C6997 H7009 0.929 . S
C6998 C6994 1.531 . S
C6998 H7010 0.960 . S
C6998 H7011 0.962 . S
C6998 H7012 0.960 . S
C6999 C6996 1.511 . S
C6999 H7013 0.961 . S
C6999 H7014 0.961 . S
C6999 H7015 0.961 . S
C7000 C7001 1.370 . S
C7000 C7002 1.363 . S
C7000 H7016 0.931 . S
C7001 C7000 1.370 . S
C7001 C7005 1.408 . S
C7002 C7000 1.363 . S
C7002 C7003 1.370 . S
C7002 C7006 1.524 . S
C7003 C6995 1.503 . S
C7003 C7002 1.370 . S
C7003 C7004 1.403 . S
C7004 C7003 1.403 . S
C7004 C7005 1.404 . S
C7004 C7007 1.539 . S
C7005 C7001 1.408 . S
C7005 C7004 1.404 . S
C7005 H7017 0.930 . S
C7006 C7002 1.524 . S
C7006 H7018 0.956 . S
C7006 H7019 0.961 . S
C7006 H7020 0.961 . S
C7007 C7004 1.539 . S
C7007 H7021 0.958 . S
C7007 H7022 0.961 . S
C7007 H7023 0.960 . S
H7008 C6992 0.931 . S
H7009 C6997 0.929 . S
H7010 C6998 0.960 . S
H7011 C6998 0.962 . S
H7012 C6998 0.960 . S
H7013 C6999 0.961 . S
H7014 C6999 0.961 . S
H7015 C6999 0.961 . S
H7016 C7000 0.931 . S
H7017 C7005 0.930 . S
H7018 C7006 0.956 . S
H7019 C7006 0.961 . S
H7020 C7006 0.961 . S
H7021 C7007 0.958 . S
H7022 C7007 0.961 . S
H7023 C7007 0.960 . S
C7024 C7025 1.391 . S
C7024 C7026 1.394 . S
C7024 H7040 0.931 . S
C7025 C7024 1.391 . S
C7025 C7029 1.376 . S
C7026 C7024 1.394 . S
C7026 C7027 1.369 . S
C7026 C7030 1.531 . S
C7027 C7026 1.369 . S
C7027 C7028 1.410 . S
C7027 C7035 1.503 . S
C7028 C7027 1.410 . S
C7028 C7029 1.392 . S
C7028 C7031 1.511 . S
C7029 C7025 1.376 . S
C7029 C7028 1.392 . S
C7029 H7041 0.929 . S
C7030 C7026 1.531 . S
C7030 H7042 0.960 . S
C7030 H7043 0.962 . S
C7030 H7044 0.960 . S
C7031 C7028 1.511 . S
C7031 H7045 0.961 . S
C7031 H7046 0.961 . S
C7031 H7047 0.961 . S
C7032 C7033 1.370 . S
C7032 C7034 1.363 . S
C7032 H7048 0.931 . S
C7033 C7032 1.370 . S
C7033 C7037 1.408 . S
C7034 C7032 1.363 . S
C7034 C7035 1.370 . S
C7034 C7038 1.524 . S
C7035 C7027 1.503 . S
C7035 C7034 1.370 . S
C7035 C7036 1.403 . S
C7036 C7035 1.403 . S
C7036 C7037 1.404 . S
C7036 C7039 1.539 . S
C7037 C7033 1.408 . S
C7037 C7036 1.404 . S
C7037 H7049 0.930 . S
C7038 C7034 1.524 . S
C7038 H7050 0.956 . S
C7038 H7051 0.961 . S
C7038 H7052 0.961 . S
C7039 C7036 1.539 . S
C7039 H7053 0.958 . S
C7039 H7054 0.961 . S
C7039 H7055 0.960 . S
H7040 C7024 0.931 . S
H7041 C7029 0.929 . S
H7042 C7030 0.960 . S
H7043 C7030 0.962 . S
H7044 C7030 0.960 . S
H7045 C7031 0.961 . S
H7046 C7031 0.961 . S
H7047 C7031 0.961 . S
H7048 C7032 0.931 . S
H7049 C7037 0.930 . S
H7050 C7038 0.956 . S
H7051 C7038 0.961 . S
H7052 C7038 0.961 . S
H7053 C7039 0.958 . S
H7054 C7039 0.961 . S
H7055 C7039 0.960 . S
C7056 C7057 1.391 . S
C7056 C7058 1.394 . S
C7056 H7072 0.931 . S
C7057 C7056 1.391 . S
C7057 C7061 1.376 . S
C7058 C7056 1.394 . S
C7058 C7059 1.369 . S
C7058 C7062 1.531 . S
C7059 C7058 1.369 . S
C7059 C7060 1.410 . S
C7059 C7067 1.503 . S
C7060 C7059 1.410 . S
C7060 C7061 1.392 . S
C7060 C7063 1.511 . S
C7061 C7057 1.376 . S
C7061 C7060 1.392 . S
C7061 H7073 0.929 . S
C7062 C7058 1.531 . S
C7062 H7074 0.960 . S
C7062 H7075 0.962 . S
C7062 H7076 0.960 . S
C7063 C7060 1.511 . S
C7063 H7077 0.961 . S
C7063 H7078 0.961 . S
C7063 H7079 0.961 . S
C7064 C7065 1.370 . S
C7064 C7066 1.363 . S
C7064 H7080 0.931 . S
C7065 C7064 1.370 . S
C7065 C7069 1.408 . S
C7066 C7064 1.363 . S
C7066 C7067 1.370 . S
C7066 C7070 1.524 . S
C7067 C7059 1.503 . S
C7067 C7066 1.370 . S
C7067 C7068 1.403 . S
C7068 C7067 1.403 . S
C7068 C7069 1.404 . S
C7068 C7071 1.539 . S
C7069 C7065 1.408 . S
C7069 C7068 1.404 . S
C7069 H7081 0.930 . S
C7070 C7066 1.524 . S
C7070 H7082 0.956 . S
C7070 H7083 0.961 . S
C7070 H7084 0.961 . S
C7071 C7068 1.539 . S
C7071 H7085 0.958 . S
C7071 H7086 0.961 . S
C7071 H7087 0.960 . S
H7072 C7056 0.931 . S
H7073 C7061 0.929 . S
H7074 C7062 0.960 . S
H7075 C7062 0.962 . S
H7076 C7062 0.960 . S
H7077 C7063 0.961 . S
H7078 C7063 0.961 . S
H7079 C7063 0.961 . S
H7080 C7064 0.931 . S
H7081 C7069 0.930 . S
H7082 C7070 0.956 . S
H7083 C7070 0.961 . S
H7084 C7070 0.961 . S
H7085 C7071 0.958 . S
H7086 C7071 0.961 . S
H7087 C7071 0.960 . S
C4025 C1309 1.351 . S
C4017 C21 1.612 . S
C4057 C1449 1.239 . S
C4049 C42 1.547 . S
C4081 C82 1.526 . S
C4089 C1509 1.196 . S
C4121 C1633 0.984 . S
C4113 C135 1.683 . S
C4145 C175 1.353 . S
C4153 C1623 1.074 . S
C4177 C221 1.668 . S
C4185 C1335 1.227 . S
C4209 C255 1.533 . S
C4217 C1423 1.251 . S
C4249 C1519 0.937 . S
C4241 C301 1.577 . S
C4281 C1765 1.378 . S
C4273 C15 1.613 . S
C4305 C55 1.492 . S
C4313 C1879 1.211 . S
C4337 C101 1.670 . S
C4345 C2019 1.265 . S
C4377 C2107 1.287 . S
C4369 C141 1.500 . S
C4401 C162 1.516 . S
C4409 C2203 0.921 . S
C4441 C2307 1.170 . S
C4433 C215 1.510 . S
C4465 C261 1.546 . S
C4473 C2449 1.340 . S
C4505 C2535 1.149 . S
C4497 C282 1.420 . S
C4529 C2 1.719 . S
C4537 C2133 1.313 . S
C4561 C181 1.484 . S
C4569 C2317 0.885 . S
C4601 C2475 1.269 . S
C4593 C202 1.645 . S
C4625 C242 1.639 . S
C4633 C2545 0.953 . S
C4665 C2193 1.088 . S
C4657 C295 1.449 . S
C4697 C1905 1.224 . S
C4689 C95 1.653 . S
C4721 C122 1.528 . S
C4729 C1993 1.313 . S
C4761 C1791 1.189 . S
C4753 C61 1.520 . S
C4793 C2677 1.337 . S
C4785 C341 1.569 . S
C4817 C362 1.537 . S
C4825 C2773 0.920 . S
C4849 C402 1.511 . S
C4857 C2877 1.168 . S
C4889 C3001 0.913 . S
C4881 C455 1.575 . S
C4913 C495 1.397 . S
C4921 C2991 1.022 . S
C4945 C541 1.690 . S
C4953 C2703 1.247 . S
C4977 C575 1.447 . S
C4985 C2763 1.094 . S
C5009 C621 1.617 . S
C5017 C2887 0.957 . S
C5049 C2247 1.302 . S
C5041 C335 1.646 . S
C5073 C375 1.432 . S
C5081 C3105 1.053 . S
C5113 C2421 1.153 . S
C5105 C421 1.524 . S
C5137 C461 1.395 . S
C5145 C3219 1.145 . S
C5169 C482 1.482 . S
C5177 C1737 1.100 . S
C5209 C3361 1.321 . S
C5201 C535 1.551 . S
C5233 C581 1.556 . S
C5241 C1975 0.919 . S
C5273 C3447 1.126 . S
C5265 C602 1.470 . S
C5297 C322 1.694 . S
C5305 C3229 0.958 . S
C5337 C3387 1.189 . S
C5329 C501 1.548 . S
C5361 C522 1.582 . S
C5369 C1965 1.169 . S
C5401 C3457 0.998 . S
C5393 C562 1.554 . S
C5425 C615 1.558 . S
C5433 C1747 0.881 . S
C5457 C415 1.600 . S
C5465 C3115 0.980 . S
C5489 C442 1.529 . S
C5497 C2431 0.856 . S
C5521 C381 1.401 . S
C5529 C2221 1.193 . S
C5553 C661 1.545 . S
C5561 C2905 1.268 . S
C5593 C3045 1.151 . S
C5585 C682 1.525 . S
C5617 C722 1.522 . S
C5625 C2649 1.194 . S
C5649 C775 1.725 . S
C5657 C2817 1.325 . S
C5681 C815 1.396 . S
C5689 C2791 1.177 . S
C5713 C861 1.636 . S
C5721 C2931 1.256 . S
C5753 C3019 1.226 . S
C5745 C895 1.494 . S
C5777 C941 1.624 . S
C5785 C2659 0.985 . S
C5817 C3561 1.102 . S
C5809 C655 1.516 . S
C5841 C695 1.461 . S
C5849 C2335 1.227 . S
C5881 C3729 1.286 . S
C5873 C741 1.680 . S
C5905 C781 1.566 . S
C5913 C2563 1.340 . S
C5937 C802 1.545 . S
C5945 C3799 0.905 . S
C5969 C855 1.503 . S
C5977 C1851 1.100 . S
C6009 C3913 0.953 . S
C6001 C901 1.542 . S
C6033 C922 1.468 . S
C6041 C2079 1.197 . S
C6073 C2589 1.300 . S
C6065 C642 1.657 . S
C6105 C1861 0.900 . S
C6097 C821 1.515 . S
C6129 C842 1.572 . S
C6137 C3903 1.145 . S
C6161 C882 1.625 . S
C6169 C2089 0.955 . S
C6201 C3789 1.100 . S
C6193 C935 1.503 . S
C6233 C2361 1.227 . S
C6225 C735 1.649 . S
C6265 C3703 1.320 . S
C6257 C762 1.516 . S
C6297 C3571 0.910 . S
C6289 C701 1.570 . S
C6321 C981 1.552 . S
C6329 C1537 1.312 . S
C6353 C1002 1.540 . S
C6361 C1677 1.215 . S
C6393 C1281 1.157 . S
C6385 C1042 1.513 . S
C6425 C1405 0.948 . S
C6417 C1095 1.662 . S
C6457 C1395 1.113 . S
C6449 C1135 1.423 . S
C6489 C1563 1.243 . S
C6481 C1181 1.680 . S
C6521 C1651 1.201 . S
C6513 C1215 1.495 . S
C6545 C1261 1.670 . S
C6553 C1291 1.061 . S
C6577 C975 1.635 . S
C6585 C3843 1.304 . S
C6617 C3333 1.149 . S
C6609 C1015 1.439 . S
C6649 C3957 1.233 . S
C6641 C1061 1.615 . S
C6681 C3475 1.261 . S
C6673 C1101 1.477 . S
C6705 C1122 1.473 . S
C6713 C3589 1.204 . S
C6745 C3133 1.267 . S
C6737 C1175 1.529 . S
C6777 C3685 0.960 . S
C6769 C1221 1.575 . S
C6801 C1242 1.566 . S
C6809 C3247 1.321 . S
C6841 C3501 1.231 . S
C6833 C962 1.641 . S
C6873 C3159 1.179 . S
C6865 C1141 1.574 . S
C6905 C3675 1.174 . S
C6897 C1162 1.560 . S
C6929 C1202 1.595 . S
C6937 C3273 1.215 . S
C6961 C1255 1.692 . S
C6969 C3615 1.351 . S
C6993 C1055 1.588 . S
C7001 C3343 0.965 . S
C7025 C1082 1.557 . S
C7033 C3931 1.345 . S
C7065 C3817 1.252 . S
C7057 C1021 1.440 . S
