# Generated by pormake.
# Topology apo, (3,6)-cn, num edge types: 1
# Building blocks:
#     Node 0, Type 0, BuildingBlock: KAKCAD_clean_linker_0, # of connection points: 3
#     Node 1, Type 0, BuildingBlock: KAKCAD_clean_linker_0, # of connection points: 3
#     Node 2, Type 0, BuildingBlock: KAKCAD_clean_linker_0, # of connection points: 3
#     Node 3, Type 0, BuildingBlock: KAKCAD_clean_linker_0, # of connection points: 3
#     Node 4, Type 0, BuildingBlock: KAKCAD_clean_linker_0, # of connection points: 3
#     Node 5, Type 0, BuildingBlock: KAKCAD_clean_linker_0, # of connection points: 3
#     Node 6, Type 0, BuildingBlock: KAKCAD_clean_linker_0, # of connection points: 3
#     Node 7, Type 0, BuildingBlock: KAKCAD_clean_linker_0, # of connection points: 3
#     Node 8, Type 1, BuildingBlock: KUMJIN_clean_sbu_1, # of connection points: 6
#     Node 9, Type 1, BuildingBlock: KUMJIN_clean_sbu_1, # of connection points: 6
#     Node 10, Type 1, BuildingBlock: KUMJIN_clean_sbu_1, # of connection points: 6
#     Node 11, Type 1, BuildingBlock: KUMJIN_clean_sbu_1, # of connection points: 6
#     Edge 12, Type (0, 1), BuildingBlock: MIFKUJ_clean_linker_0, # of connection points: 2
#     Edge 13, Type (0, 1), BuildingBlock: MIFKUJ_clean_linker_0, # of connection points: 2
#     Edge 14, Type (0, 1), BuildingBlock: MIFKUJ_clean_linker_0, # of connection points: 2
#     Edge 15, Type (0, 1), BuildingBlock: MIFKUJ_clean_linker_0, # of connection points: 2
#     Edge 16, Type (0, 1), BuildingBlock: MIFKUJ_clean_linker_0, # of connection points: 2
#     Edge 17, Type (0, 1), BuildingBlock: MIFKUJ_clean_linker_0, # of connection points: 2
#     Edge 18, Type (0, 1), BuildingBlock: MIFKUJ_clean_linker_0, # of connection points: 2
#     Edge 19, Type (0, 1), BuildingBlock: MIFKUJ_clean_linker_0, # of connection points: 2
#     Edge 20, Type (0, 1), BuildingBlock: MIFKUJ_clean_linker_0, # of connection points: 2
#     Edge 21, Type (0, 1), BuildingBlock: MIFKUJ_clean_linker_0, # of connection points: 2
#     Edge 22, Type (0, 1), BuildingBlock: MIFKUJ_clean_linker_0, # of connection points: 2
#     Edge 23, Type (0, 1), BuildingBlock: MIFKUJ_clean_linker_0, # of connection points: 2
#     Edge 24, Type (0, 1), BuildingBlock: MIFKUJ_clean_linker_0, # of connection points: 2
#     Edge 25, Type (0, 1), BuildingBlock: MIFKUJ_clean_linker_0, # of connection points: 2
#     Edge 26, Type (0, 1), BuildingBlock: MIFKUJ_clean_linker_0, # of connection points: 2
#     Edge 27, Type (0, 1), BuildingBlock: MIFKUJ_clean_linker_0, # of connection points: 2
#     Edge 28, Type (0, 1), BuildingBlock: MIFKUJ_clean_linker_0, # of connection points: 2
#     Edge 29, Type (0, 1), BuildingBlock: MIFKUJ_clean_linker_0, # of connection points: 2
#     Edge 30, Type (0, 1), BuildingBlock: MIFKUJ_clean_linker_0, # of connection points: 2
#     Edge 31, Type (0, 1), BuildingBlock: MIFKUJ_clean_linker_0, # of connection points: 2
#     Edge 32, Type (0, 1), BuildingBlock: MIFKUJ_clean_linker_0, # of connection points: 2
#     Edge 33, Type (0, 1), BuildingBlock: MIFKUJ_clean_linker_0, # of connection points: 2
#     Edge 34, Type (0, 1), BuildingBlock: MIFKUJ_clean_linker_0, # of connection points: 2
#     Edge 35, Type (0, 1), BuildingBlock: MIFKUJ_clean_linker_0, # of connection points: 2
# Relax obj value: 0.010
# Max RMSD: 0.087
# Mean RMSD: 0.069
data_MOF--net-apo--node1-KUMJIN_clean_sbu_1--node2-KAKCAD_clean_linker_0--edge1-MIFKUJ_clean_linker_0
_symmetry_space_group_name_H-M    P1
_symmetry_Int_Tables_number       1
_symmetry_cell_setting            triclinic
loop_
_symmetry_equiv_pos_as_xyz
'x, y, z'
_cell_length_a     36.266257
_cell_length_b     65.431382
_cell_length_c     77.693118
_cell_angle_alpha  89.996359
_cell_angle_beta   89.892126
_cell_angle_gamma 90.109239
loop_
_atom_site_label
_atom_site_type_symbol
_atom_site_fract_x
_atom_site_fract_y
_atom_site_fract_z
_atom_type_partial_charge
C0 C 0.2978 0.44366 0.37577 0.0
C1 C 0.33346 0.45183 0.37774 0.0
C2 C 0.28644 0.42676 0.38547 0.0
C3 C 0.31042 0.41761 0.3974 0.0
C4 C 0.34595 0.4259 0.39948 0.0
C5 C 0.35733 0.44278 0.38977 0.0
C6 C 0.29867 0.39935 0.40748 0.0
C7 C 0.27861 0.38353 0.39958 0.0
C8 C 0.26812 0.36601 0.40886 0.0
C9 C 0.27797 0.3644 0.42631 0.0
C10 C 0.29785 0.3801 0.43452 0.0
C11 C 0.30794 0.39752 0.42497 0.0
C12 C 0.30798 0.37843 0.45306 0.0
C13 C 0.28303 0.37027 0.46515 0.0
C14 C 0.34257 0.38531 0.45887 0.0
C15 C 0.3517 0.38442 0.47633 0.0
C16 C 0.32657 0.37652 0.48843 0.0
C17 C 0.24739 0.34928 0.40019 0.0
C18 C 0.21805 0.35379 0.38902 0.0
C19 C 0.25723 0.32873 0.40273 0.0
C20 C 0.23859 0.31308 0.39406 0.0
C21 C 0.20954 0.31761 0.38272 0.0
C22 C 0.19928 0.33815 0.38043 0.0
C23 C 0.29225 0.36929 0.48262 0.0
H24 H 0.27883 0.45012 0.36651 0.0
H25 H 0.25877 0.42089 0.38367 0.0
H26 H 0.36526 0.41913 0.40843 0.0
H27 H 0.38483 0.4488 0.39175 0.0
H28 H 0.27211 0.38456 0.38599 0.0
H29 H 0.3224 0.40994 0.43127 0.0
H30 H 0.27017 0.35087 0.43349 0.0
H31 H 0.25597 0.36509 0.46119 0.0
H32 H 0.36276 0.39131 0.4499 0.0
H33 H 0.37858 0.38982 0.48035 0.0
H34 H 0.20957 0.36946 0.38692 0.0
H35 H 0.27988 0.32475 0.41115 0.0
H36 H 0.27211 0.36334 0.49164 0.0
H37 H 0.17727 0.34218 0.37167 0.0
H38 H 0.24696 0.29741 0.39622 0.0
C39 C 0.20979 0.06517 0.87212 0.0
C40 C 0.17614 0.05522 0.87522 0.0
C41 C 0.22104 0.08143 0.88253 0.0
C42 C 0.19856 0.08839 0.89612 0.0
C43 C 0.165 0.0782 0.89931 0.0
C44 C 0.15404 0.0617 0.88904 0.0
C45 C 0.20982 0.10647 0.90661 0.0
C46 C 0.22848 0.12291 0.89882 0.0
C47 C 0.23983 0.13995 0.90845 0.0
C48 C 0.23166 0.14071 0.92612 0.0
C49 C 0.21266 0.12455 0.93418 0.0
C50 C 0.20199 0.10748 0.92434 0.0
C51 C 0.20426 0.12534 0.95292 0.0
C52 C 0.23132 0.13149 0.96478 0.0
C53 C 0.16918 0.11977 0.95909 0.0
C54 C 0.16137 0.12029 0.97673 0.0
C55 C 0.18856 0.12621 0.98861 0.0
C56 C 0.26014 0.15686 0.89984 0.0
C57 C 0.28865 0.15248 0.88813 0.0
C58 C 0.25045 0.17736 0.90273 0.0
C59 C 0.26828 0.19311 0.89376 0.0
C60 C 0.29639 0.18868 0.88184 0.0
C61 C 0.3066 0.16819 0.87927 0.0
C62 C 0.22362 0.13183 0.98243 0.0
H63 H 0.22758 0.06027 0.8617 0.0
H64 H 0.24748 0.0885 0.87992 0.0
H65 H 0.14669 0.08325 0.90947 0.0
H66 H 0.12781 0.05436 0.89161 0.0
H67 H 0.23356 0.12271 0.88508 0.0
H68 H 0.18842 0.09475 0.93064 0.0
H69 H 0.24015 0.15387 0.93361 0.0
H70 H 0.25868 0.13573 0.96043 0.0
H71 H 0.14767 0.11512 0.95026 0.0
H72 H 0.13419 0.11573 0.9811 0.0
H73 H 0.29699 0.13684 0.88575 0.0
H74 H 0.22845 0.1812 0.9116 0.0
H75 H 0.24505 0.13663 0.99124 0.0
H76 H 0.32789 0.16423 0.87006 0.0
H77 H 0.26002 0.20876 0.89613 0.0
C78 C 0.80594 0.06102 0.63376 0.0
C79 C 0.84101 0.05232 0.63152 0.0
C80 C 0.79529 0.07803 0.62411 0.0
C81 C 0.81955 0.08683 0.61204 0.0
C82 C 0.8544 0.07788 0.60958 0.0
C83 C 0.86498 0.0608 0.61918 0.0
C84 C 0.8089 0.10562 0.60246 0.0
C85 C 0.78976 0.12135 0.61087 0.0
C86 C 0.77963 0.13927 0.60213 0.0
C87 C 0.78966 0.14155 0.58473 0.0
C88 C 0.809 0.12599 0.57601 0.0
C89 C 0.81818 0.10803 0.58501 0.0
C90 C 0.81947 0.12834 0.55752 0.0
C91 C 0.79554 0.13785 0.54577 0.0
C92 C 0.85338 0.1208 0.55141 0.0
C93 C 0.86285 0.12244 0.53401 0.0
C94 C 0.83885 0.13186 0.52223 0.0
C95 C 0.75879 0.1555 0.61139 0.0
C96 C 0.73039 0.15019 0.62292 0.0
C97 C 0.76772 0.17628 0.60926 0.0
C98 C 0.74926 0.19133 0.61875 0.0
C99 C 0.72156 0.18591 0.63062 0.0
C100 C 0.71209 0.16519 0.63243 0.0
C101 C 0.80517 0.13967 0.52839 0.0
H102 H 0.78664 0.05463 0.64296 0.0
H103 H 0.76798 0.08427 0.6261 0.0
H104 H 0.87395 0.08442 0.60056 0.0
H105 H 0.89234 0.05458 0.61729 0.0
H106 H 0.7835 0.11987 0.62446 0.0
H107 H 0.83192 0.09566 0.57832 0.0
H108 H 0.78235 0.15544 0.57799 0.0
H109 H 0.76904 0.14365 0.54992 0.0
H110 H 0.8728 0.11365 0.56009 0.0
H111 H 0.88882 0.11602 0.52977 0.0
H112 H 0.72227 0.13438 0.62461 0.0
H113 H 0.78968 0.18089 0.60062 0.0
H114 H 0.78618 0.1473 0.5198 0.0
H115 H 0.69037 0.16054 0.64119 0.0
H116 H 0.7574 0.20715 0.61716 0.0
C117 C 0.70915 0.44017 0.13143 0.0
C118 C 0.67276 0.44734 0.13009 0.0
C119 C 0.72109 0.4237 0.12142 0.0
C120 C 0.69697 0.4141 0.10979 0.0
C121 C 0.66088 0.42161 0.10812 0.0
C122 C 0.64887 0.43801 0.1182 0.0
C123 C 0.70889 0.3957 0.10006 0.0
C124 C 0.72833 0.38013 0.10849 0.0
C125 C 0.73887 0.36231 0.09973 0.0
C126 C 0.72934 0.36007 0.0823 0.0
C127 C 0.71018 0.37559 0.07349 0.0
C128 C 0.70018 0.3934 0.08255 0.0
C129 C 0.70067 0.37318 0.05489 0.0
C130 C 0.72452 0.36272 0.0436 0.0
C131 C 0.66755 0.38117 0.04824 0.0
C132 C 0.6586 0.37875 0.03085 0.0
C133 C 0.68216 0.36795 0.01979 0.0
C134 C 0.75963 0.34607 0.10894 0.0
C135 C 0.7881 0.35133 0.12039 0.0
C136 C 0.75079 0.32531 0.10668 0.0
C137 C 0.76958 0.31019 0.11589 0.0
C138 C 0.79756 0.31552 0.12758 0.0
C139 C 0.80679 0.33625 0.1296 0.0
C140 C 0.71517 0.35996 0.02631 0.0
H141 H 0.72815 0.44693 0.14054 0.0
H142 H 0.74918 0.41838 0.12288 0.0
H143 H 0.64159 0.41444 0.09936 0.0
H144 H 0.62079 0.44334 0.11673 0.0
H145 H 0.73433 0.38163 0.12209 0.0
H146 H 0.68621 0.40572 0.07594 0.0
H147 H 0.73696 0.34617 0.07563 0.0
H148 H 0.75067 0.35678 0.04804 0.0
H149 H 0.64809 0.38898 0.05651 0.0
H150 H 0.63282 0.3849 0.02612 0.0
H151 H 0.79607 0.36714 0.12219 0.0
H152 H 0.72872 0.32076 0.09812 0.0
H153 H 0.73398 0.35176 0.01796 0.0
H154 H 0.82868 0.34083 0.13825 0.0
H155 H 0.76156 0.29437 0.11418 0.0
C156 C 0.678 0.57153 0.63874 0.0
C157 C 0.67943 0.55173 0.63181 0.0
C158 C 0.69014 0.58831 0.62915 0.0
C159 C 0.70429 0.58567 0.61242 0.0
C160 C 0.70601 0.5658 0.60555 0.0
C161 C 0.69359 0.54902 0.61512 0.0
C162 C 0.71654 0.60366 0.60213 0.0
C163 C 0.73513 0.61999 0.61006 0.0
C164 C 0.74535 0.63748 0.60066 0.0
C165 C 0.73715 0.63842 0.58299 0.0
C166 C 0.71907 0.62209 0.57479 0.0
C167 C 0.70889 0.60482 0.58444 0.0
C168 C 0.70978 0.62315 0.55623 0.0
C169 C 0.69137 0.64023 0.54949 0.0
C170 C 0.71795 0.60666 0.5453 0.0
C171 C 0.70755 0.60713 0.52799 0.0
C172 C 0.68828 0.62397 0.52134 0.0
C173 C 0.76435 0.65471 0.60945 0.0
C174 C 0.75258 0.66118 0.62581 0.0
C175 C 0.7948 0.66449 0.6018 0.0
C176 C 0.81343 0.68015 0.61047 0.0
C177 C 0.80187 0.68645 0.62693 0.0
C178 C 0.77109 0.67684 0.63444 0.0
C179 C 0.68045 0.64056 0.53222 0.0
H180 H 0.6667 0.57413 0.65147 0.0
H181 H 0.68772 0.60341 0.63474 0.0
H182 H 0.71725 0.56315 0.59282 0.0
H183 H 0.69541 0.5339 0.60951 0.0
H184 H 0.7422 0.61898 0.62358 0.0
H185 H 0.69382 0.59256 0.57822 0.0
H186 H 0.74465 0.65187 0.57562 0.0
H187 H 0.68454 0.65308 0.55768 0.0
H188 H 0.73227 0.59335 0.55017 0.0
H189 H 0.71371 0.59407 0.51992 0.0
H190 H 0.72897 0.65411 0.63198 0.0
H191 H 0.80469 0.65976 0.58926 0.0
H192 H 0.66581 0.65378 0.52738 0.0
H193 H 0.76169 0.68115 0.64717 0.0
H194 H 0.83684 0.68737 0.60427 0.0
C195 C 0.78259 0.87111 0.02775 0.0
C196 C 0.81929 0.87331 0.02218 0.0
C197 C 0.77373 0.87259 0.04524 0.0
C198 C 0.80132 0.87669 0.05744 0.0
C199 C 0.83805 0.87866 0.05189 0.0
C200 C 0.84699 0.87682 0.03445 0.0
C201 C 0.79163 0.8798 0.07581 0.0
C202 C 0.76976 0.86546 0.08468 0.0
C203 C 0.76061 0.86847 0.10212 0.0
C204 C 0.77241 0.88647 0.11036 0.0
C205 C 0.79432 0.90085 0.10168 0.0
C206 C 0.80422 0.8973 0.08449 0.0
C207 C 0.80714 0.91946 0.11072 0.0
C208 C 0.78185 0.93219 0.11918 0.0
C209 C 0.8448 0.92432 0.11128 0.0
C210 C 0.85707 0.94139 0.12047 0.0
C211 C 0.83185 0.95423 0.12906 0.0
C212 C 0.73996 0.85265 0.11202 0.0
C213 C 0.70992 0.84214 0.10473 0.0
C214 C 0.75035 0.84798 0.12899 0.0
C215 C 0.73092 0.83344 0.13855 0.0
C216 C 0.70062 0.82311 0.13138 0.0
C217 C 0.69047 0.82751 0.11431 0.0
C218 C 0.794 0.94948 0.1281 0.0
H219 H 0.76076 0.86829 0.01855 0.0
H220 H 0.74519 0.87111 0.04919 0.0
H221 H 0.85984 0.88174 0.06106 0.0
H222 H 0.87545 0.87871 0.03049 0.0
H223 H 0.761 0.85165 0.07815 0.0
H224 H 0.8209 0.90849 0.07771 0.0
H225 H 0.76497 0.88922 0.12368 0.0
H226 H 0.7526 0.92883 0.11878 0.0
H227 H 0.86485 0.9146 0.10498 0.0
H228 H 0.88645 0.94421 0.12115 0.0
H229 H 0.70103 0.84549 0.09173 0.0
H230 H 0.77388 0.8554 0.13488 0.0
H231 H 0.7736 0.95916 0.13418 0.0
H232 H 0.6671 0.81989 0.10846 0.0
H233 H 0.74001 0.83009 0.15152 0.0
C234 C 0.16201 0.92935 0.37362 0.0
C235 C 0.16654 0.94901 0.38062 0.0
C236 C 0.17359 0.91208 0.38268 0.0
C237 C 0.19007 0.91403 0.39897 0.0
C238 C 0.19415 0.93367 0.40609 0.0
C239 C 0.1825 0.95096 0.39702 0.0
C240 C 0.20374 0.89567 0.40829 0.0
C241 C 0.2222 0.88014 0.39931 0.0
C242 C 0.23564 0.86281 0.40789 0.0
C243 C 0.23109 0.86127 0.42583 0.0
C244 C 0.21224 0.87657 0.43513 0.0
C245 C 0.19854 0.89364 0.42613 0.0
C246 C 0.20607 0.87467 0.45412 0.0
C247 C 0.19952 0.85552 0.4618 0.0
C248 C 0.20568 0.89213 0.46471 0.0
C249 C 0.19797 0.89057 0.4823 0.0
C250 C 0.19113 0.87144 0.48998 0.0
C251 C 0.25414 0.8464 0.39785 0.0
C252 C 0.23867 0.83958 0.3823 0.0
C253 C 0.28775 0.83796 0.4033 0.0
C254 C 0.30598 0.82342 0.39315 0.0
C255 C 0.29086 0.81691 0.37738 0.0
C256 C 0.25671 0.82499 0.37223 0.0
C257 C 0.19245 0.85391 0.47947 0.0
H258 H 0.14918 0.92728 0.36116 0.0
H259 H 0.16942 0.89717 0.37696 0.0
H260 H 0.20715 0.93573 0.41851 0.0
H261 H 0.18674 0.96589 0.4027 0.0
H262 H 0.22688 0.88173 0.38559 0.0
H263 H 0.18289 0.90521 0.43291 0.0
H264 H 0.24201 0.84805 0.43247 0.0
H265 H 0.19912 0.8417 0.45413 0.0
H266 H 0.21128 0.90714 0.45944 0.0
H267 H 0.19677 0.9045 0.48979 0.0
H268 H 0.21248 0.84554 0.37789 0.0
H269 H 0.30048 0.84304 0.41516 0.0
H270 H 0.18808 0.83884 0.48485 0.0
H271 H 0.24375 0.82001 0.3604 0.0
H272 H 0.33239 0.81769 0.39746 0.0
C273 C 0.28833 0.64018 0.98397 0.0
C274 C 0.32186 0.63419 0.99146 0.0
C275 C 0.28189 0.63709 0.96642 0.0
C276 C 0.30891 0.62805 0.95587 0.0
C277 C 0.34249 0.62209 0.96339 0.0
C278 C 0.34883 0.62506 0.98098 0.0
C279 C 0.30197 0.62485 0.93714 0.0
C280 C 0.28283 0.63966 0.9275 0.0
C281 C 0.27573 0.6367 0.90989 0.0
C282 C 0.28771 0.61861 0.90195 0.0
C283 C 0.30714 0.60377 0.91127 0.0
C284 C 0.31432 0.607 0.92881 0.0
C285 C 0.32019 0.58503 0.90246 0.0
C286 C 0.29567 0.5732 0.89263 0.0
C287 C 0.35752 0.57942 0.90315 0.0
C288 C 0.37032 0.56263 0.89372 0.0
C289 C 0.34585 0.55093 0.88374 0.0
C290 C 0.2563 0.65258 0.89965 0.0
C291 C 0.22499 0.66254 0.90624 0.0
C292 C 0.26882 0.65775 0.88307 0.0
C293 C 0.25031 0.67236 0.87325 0.0
C294 C 0.21871 0.68216 0.87973 0.0
C295 C 0.20637 0.67714 0.89639 0.0
C296 C 0.30832 0.5562 0.88348 0.0
H297 H 0.26677 0.64697 0.99174 0.0
H298 H 0.25544 0.64153 0.96118 0.0
H299 H 0.36417 0.61538 0.95565 0.0
H300 H 0.37513 0.6205 0.98633 0.0
H301 H 0.27431 0.65378 0.93358 0.0
H302 H 0.32869 0.59531 0.93604 0.0
H303 H 0.28213 0.61608 0.88841 0.0
H304 H 0.26673 0.57719 0.89195 0.0
H305 H 0.37698 0.58839 0.91056 0.0
H306 H 0.39935 0.55882 0.89418 0.0
H307 H 0.21443 0.65874 0.9189 0.0
H308 H 0.29325 0.65064 0.87774 0.0
H309 H 0.28895 0.54751 0.87579 0.0
H310 H 0.1819 0.68422 0.9017 0.0
H311 H 0.26105 0.67615 0.86063 0.0
Eu312 Eu 0.052 0.13754 0.23964 0.0
C313 C 0.88165 0.1291 0.2597 0.0
N314 N 0.90279 0.14612 0.25777 0.0
C315 C 0.8542 0.16271 0.24231 0.0
C316 C 0.84588 0.12814 0.25262 0.0
C317 C 0.88948 0.16295 0.24953 0.0
C318 C 0.83235 0.14521 0.2438 0.0
C319 C 0.87513 0.09433 0.2702 0.0
C320 C 0.89632 0.11231 0.26829 0.0
C321 C 0.83948 0.09337 0.26321 0.0
C322 C 0.82493 0.11021 0.25443 0.0
Eu323 Eu 0.96174 0.14515 0.27045 0.0
N324 N 0.93141 0.11342 0.27448 0.0
C325 C 0.8904 0.07782 0.27909 0.0
C326 C 0.94555 0.09774 0.28393 0.0
C327 C 0.92559 0.07964 0.28613 0.0
H328 H 0.90573 0.17671 0.24887 0.0
H329 H 0.9372 0.06722 0.29346 0.0
H330 H 0.11004 0.1067 0.26049 0.0
H331 H 0.07011 0.21696 0.21875 0.0
H332 H 0.97163 0.09918 0.29027 0.0
H333 H 0.87503 0.06376 0.28086 0.0
H334 H 0.03811 0.18414 0.22118 0.0
H335 H 0.84381 0.17608 0.23572 0.0
H336 H 0.82293 0.07965 0.26452 0.0
H337 H 0.79744 0.10919 0.24905 0.0
H338 H 0.17248 0.10811 0.27314 0.0
H339 H 0.80503 0.14506 0.23817 0.0
H340 H 0.13236 0.22119 0.23101 0.0
N341 N 0.11078 0.13763 0.25236 0.0
C342 C 0.13043 0.15527 0.25101 0.0
C343 C 0.16092 0.1215 0.26703 0.0
C344 C 0.16641 0.15667 0.25777 0.0
C345 C 0.12544 0.12079 0.26005 0.0
C346 C 0.18149 0.13952 0.26591 0.0
N347 N 0.07925 0.17034 0.23679 0.0
C348 C 0.06396 0.18599 0.22767 0.0
C349 C 0.13427 0.19047 0.24132 0.0
C350 C 0.11426 0.17206 0.24302 0.0
C351 C 0.11781 0.20687 0.23275 0.0
C352 C 0.0826 0.20457 0.22584 0.0
H353 H 0.20903 0.14 0.27128 0.0
H354 H 0.21386 0.17639 0.26127 0.0
H355 H 0.18613 0.20575 0.24654 0.0
O356 O 0.05753 0.13813 0.21154 0.0
O357 O 0.06041 0.1539 0.26527 0.0
O358 O 0.00497 0.16986 0.26796 0.0
O359 O 0.0883 0.11613 0.22632 0.0
O360 O 0.00173 0.15349 0.22825 0.0
O361 O 0.97548 0.17013 0.25136 0.0
O362 O 0.95678 0.14607 0.2989 0.0
O363 O 0.95277 0.12715 0.2456 0.0
O364 O 0.00944 0.11246 0.24165 0.0
O365 O 0.92542 0.16711 0.28269 0.0
O366 O 0.01092 0.12765 0.28152 0.0
O367 O 0.03969 0.11184 0.25837 0.0
C368 C 0.03944 0.16776 0.27255 0.0
C369 C 0.11599 0.12855 0.2007 0.0
C370 C 0.14568 0.13106 0.17246 0.0
C371 C 0.17885 0.13652 0.18064 0.0
C372 C 0.14958 0.1338 0.20852 0.0
C373 C 0.18068 0.13789 0.19853 0.0
C374 C 0.11413 0.1273 0.18263 0.0
C375 C 0.97958 0.16749 0.23469 0.0
C376 C 0.08295 0.12411 0.21119 0.0
C377 C 0.18614 0.17504 0.25621 0.0
C378 C 0.17021 0.19183 0.24792 0.0
C379 C 0.97447 0.11406 0.23772 0.0
C380 C 0.91617 0.17094 0.31334 0.0
C381 C 0.89791 0.17085 0.34362 0.0
C382 C 0.88005 0.18965 0.34115 0.0
C383 C 0.89823 0.18981 0.31125 0.0
C384 C 0.91647 0.16162 0.3297 0.0
C385 C 0.88047 0.19911 0.32509 0.0
C386 C 0.03256 0.11337 0.27498 0.0
C387 C 0.93305 0.16101 0.29818 0.0
H388 H 0.20341 0.13984 0.17318 0.0
H389 H 0.15199 0.13457 0.22235 0.0
H390 H 0.20639 0.14202 0.20469 0.0
H391 H 0.0884 0.12296 0.17655 0.0
H392 H 0.8659 0.19709 0.35172 0.0
H393 H 0.89775 0.1974 0.29886 0.0
H394 H 0.92998 0.14701 0.33148 0.0
H395 H 0.86671 0.21363 0.32334 0.0
Eu396 Eu 0.45919 0.36316 0.736 0.0
C397 C 0.62124 0.37882 0.75711 0.0
N398 N 0.60168 0.36102 0.75735 0.0
C399 C 0.65278 0.34335 0.74458 0.0
C400 C 0.65706 0.3796 0.75001 0.0
C401 C 0.61776 0.34322 0.75211 0.0
C402 C 0.6723 0.36168 0.74326 0.0
C403 C 0.62718 0.41426 0.76616 0.0
C404 C 0.60659 0.39599 0.76514 0.0
C405 C 0.66224 0.41526 0.75852 0.0
C406 C 0.6772 0.39795 0.75057 0.0
Eu407 Eu 0.54286 0.36276 0.77058 0.0
N408 N 0.57254 0.39468 0.7724 0.0
C409 C 0.61223 0.43084 0.77518 0.0
C410 C 0.55866 0.41036 0.78201 0.0
C411 C 0.57799 0.4288 0.7833 0.0
H412 H 0.60434 0.32874 0.75423 0.0
H413 H 0.56661 0.44136 0.79064 0.0
H414 H 0.38978 0.38254 0.75866 0.0
H415 H 0.46601 0.29065 0.70075 0.0
H416 H 0.5326 0.4086 0.7886 0.0
H417 H 0.62722 0.44513 0.77626 0.0
H418 H 0.48352 0.32608 0.7075 0.0
H419 H 0.66506 0.32919 0.74025 0.0
H420 H 0.67842 0.42918 0.7591 0.0
H421 H 0.7049 0.39872 0.74541 0.0
H422 H 0.32984 0.37129 0.77086 0.0
H423 H 0.69972 0.36168 0.7377 0.0
H424 H 0.41189 0.27494 0.71499 0.0
N425 N 0.40204 0.35351 0.74791 0.0
C426 C 0.39012 0.33424 0.74459 0.0
C427 C 0.34664 0.36069 0.7636 0.0
C428 C 0.35639 0.3271 0.75136 0.0
C429 C 0.38049 0.36701 0.75674 0.0
C430 C 0.33474 0.34056 0.76109 0.0
N431 N 0.44267 0.32973 0.72696 0.0
C432 C 0.46116 0.31911 0.71453 0.0
C433 C 0.39946 0.30189 0.73008 0.0
C434 C 0.41142 0.32186 0.73407 0.0
C435 C 0.42013 0.29034 0.71839 0.0
C436 C 0.45075 0.29913 0.71036 0.0
H437 H 0.3086 0.33567 0.76648 0.0
H438 H 0.31956 0.30107 0.75327 0.0
H439 H 0.35728 0.27898 0.73463 0.0
O440 O 0.43304 0.36462 0.71039 0.0
O441 O 0.45046 0.34994 0.76281 0.0
O442 O 0.50609 0.33495 0.7681 0.0
O443 O 0.43627 0.39184 0.72668 0.0
O444 O 0.51348 0.3484 0.72769 0.0
O445 O 0.53959 0.33523 0.75251 0.0
O446 O 0.53278 0.36149 0.79843 0.0
O447 O 0.5357 0.38994 0.75236 0.0
O448 O 0.51613 0.37333 0.72839 0.0
O449 O 0.58582 0.35287 0.78821 0.0
O450 O 0.48961 0.37763 0.77925 0.0
O451 O 0.46216 0.39025 0.7544 0.0
C452 C 0.47028 0.33574 0.77032 0.0
C453 C 0.40628 0.39624 0.69901 0.0
C454 C 0.38746 0.40223 0.66922 0.0
C455 C 0.37156 0.42086 0.67433 0.0
C456 C 0.39029 0.41496 0.70374 0.0
C457 C 0.3729 0.42711 0.69147 0.0
C458 C 0.40446 0.38981 0.68172 0.0
C459 C 0.53455 0.33497 0.73569 0.0
C460 C 0.4256 0.38396 0.71213 0.0
C461 C 0.34517 0.30694 0.74801 0.0
C462 C 0.3667 0.29435 0.73742 0.0
C463 C 0.53212 0.38904 0.73557 0.0
C464 C 0.56827 0.33768 0.81436 0.0
C465 C 0.58513 0.32654 0.84338 0.0
C466 C 0.58299 0.3061 0.83764 0.0
C467 C 0.56584 0.31729 0.80903 0.0
C468 C 0.57687 0.34222 0.83153 0.0
C469 C 0.57282 0.30158 0.82071 0.0
C470 C 0.4683 0.39069 0.77112 0.0
C471 C 0.56548 0.35448 0.80191 0.0
H472 H 0.35781 0.43058 0.66506 0.0
H473 H 0.39119 0.42023 0.71695 0.0
H474 H 0.36054 0.44147 0.69525 0.0
H475 H 0.41717 0.37552 0.67792 0.0
H476 H 0.58981 0.29348 0.84602 0.0
H477 H 0.55955 0.31357 0.79578 0.0
H478 H 0.57756 0.3581 0.83544 0.0
H479 H 0.57134 0.28583 0.81651 0.0
Eu480 Eu 0.05423 0.86106 0.74053 0.0
C481 C 0.88527 0.8443 0.75888 0.0
N482 N 0.90369 0.8624 0.7597 0.0
C483 C 0.85198 0.87988 0.74751 0.0
C484 C 0.84927 0.84334 0.75208 0.0
C485 C 0.88764 0.88009 0.75429 0.0
C486 C 0.83272 0.86143 0.74636 0.0
C487 C 0.88463 0.80755 0.7633 0.0
C488 C 0.90294 0.82656 0.76433 0.0
C489 C 0.84874 0.80658 0.75659 0.0
C490 C 0.83114 0.82441 0.75098 0.0
Eu491 Eu 0.96365 0.86118 0.77117 0.0
N492 N 0.93823 0.82781 0.77026 0.0
C493 C 0.90292 0.79004 0.76907 0.0
C494 C 0.95538 0.81093 0.77669 0.0
C495 C 0.93828 0.79179 0.77597 0.0
H496 H 0.90211 0.89444 0.75552 0.0
H497 H 0.95223 0.77842 0.78093 0.0
H498 H 0.11656 0.84023 0.76701 0.0
H499 H 0.05517 0.93611 0.70938 0.0
H500 H 0.98179 0.81206 0.7828 0.0
H501 H 0.88977 0.77517 0.76852 0.0
H502 H 0.03589 0.90044 0.71358 0.0
H503 H 0.83931 0.89395 0.74323 0.0
H504 H 0.83435 0.7921 0.75566 0.0
H505 H 0.8035 0.82338 0.74577 0.0
H506 H 0.17106 0.8511 0.78384 0.0
H507 H 0.80511 0.8613 0.74105 0.0
H508 H 0.10545 0.95061 0.72711 0.0
N509 N 0.10761 0.86964 0.75628 0.0
C510 C 0.12005 0.88916 0.75455 0.0
C511 C 0.15683 0.86197 0.77573 0.0
C512 C 0.15098 0.89602 0.76389 0.0
C513 C 0.12594 0.85587 0.76628 0.0
C514 C 0.1692 0.88218 0.77466 0.0
N515 N 0.07132 0.89537 0.73488 0.0
C516 C 0.05611 0.90688 0.72211 0.0
C517 C 0.11405 0.92259 0.74136 0.0
C518 C 0.10128 0.90238 0.74364 0.0
C519 C 0.09636 0.93504 0.7293 0.0
C520 C 0.06777 0.92699 0.71938 0.0
H521 H 0.19307 0.88687 0.78205 0.0
H522 H 0.18629 0.92197 0.76934 0.0
H523 H 0.15426 0.94516 0.74947 0.0
O524 O 0.06567 0.85989 0.71257 0.0
O525 O 0.05523 0.87489 0.7675 0.0
O526 O 0.99882 0.88976 0.77128 0.0
O527 O 0.10038 0.84326 0.73076 0.0
O528 O 0.00126 0.87536 0.73004 0.0
O529 O 0.97125 0.88872 0.75388 0.0
O530 O 0.96449 0.85696 0.79912 0.0
O531 O 0.95811 0.84586 0.74502 0.0
O532 O 0.01607 0.83372 0.73882 0.0
O533 O 0.92203 0.87543 0.7875 0.0
O534 O 0.01552 0.84526 0.78092 0.0
O535 O 0.04674 0.83302 0.75706 0.0
C536 C 0.03478 0.89014 0.77272 0.0
C537 C 0.1169 0.83972 0.70062 0.0
C538 C 0.13361 0.83778 0.67017 0.0
C539 C 0.15841 0.82198 0.67399 0.0
C540 C 0.14222 0.82402 0.70412 0.0
C541 C 0.16282 0.81526 0.69088 0.0
C542 C 0.11298 0.84677 0.68356 0.0
C543 C 0.97833 0.88854 0.73722 0.0
C544 C 0.09379 0.8478 0.71477 0.0
C545 C 0.16274 0.91638 0.76217 0.0
C546 C 0.14442 0.9296 0.75089 0.0
C547 C 0.98029 0.83373 0.73642 0.0
C548 C 0.94043 0.88418 0.8156 0.0
C549 C 0.92982 0.89422 0.84546 0.0
C550 C 0.94412 0.91369 0.8417 0.0
C551 C 0.95503 0.90363 0.81214 0.0
C552 C 0.92829 0.87944 0.83233 0.0
C553 C 0.95678 0.91827 0.82517 0.0
C554 C 0.03946 0.83279 0.77364 0.0
C555 C 0.93644 0.86897 0.80181 0.0
H556 H 0.17466 0.81496 0.66388 0.0
H557 H 0.1458 0.81826 0.71708 0.0
H558 H 0.18211 0.80311 0.6937 0.0
H559 H 0.09358 0.85885 0.68063 0.0
H560 H 0.94574 0.92532 0.8516 0.0
H561 H 0.96459 0.90756 0.79934 0.0
H562 H 0.91682 0.86445 0.835 0.0
H563 H 0.96764 0.93329 0.82243 0.0
Eu564 Eu 0.46782 0.64045 0.23507 0.0
C565 C 0.62673 0.65247 0.25672 0.0
N566 N 0.60628 0.6351 0.25822 0.0
C567 C 0.65477 0.61586 0.24479 0.0
C568 C 0.66138 0.65232 0.24843 0.0
C569 C 0.62086 0.61673 0.25335 0.0
C570 C 0.67482 0.63379 0.24202 0.0
C571 C 0.63549 0.68822 0.26413 0.0
C572 C 0.6141 0.67022 0.26447 0.0
C573 C 0.66917 0.68837 0.25519 0.0
C574 C 0.68206 0.67047 0.24733 0.0
Eu575 Eu 0.5477 0.63881 0.27169 0.0
N576 N 0.58105 0.66976 0.27269 0.0
C577 C 0.62267 0.7054 0.27307 0.0
C578 C 0.56925 0.68605 0.2822 0.0
C579 C 0.58967 0.70421 0.28236 0.0
H580 H 0.60682 0.60258 0.25622 0.0
H581 H 0.57988 0.71728 0.28957 0.0
H582 H 0.39816 0.66299 0.25561 0.0
H583 H 0.47336 0.56582 0.20353 0.0
H584 H 0.54358 0.68508 0.28926 0.0
H585 H 0.63835 0.71951 0.27315 0.0
H586 H 0.49323 0.60097 0.20934 0.0
H587 H 0.6657 0.60131 0.24059 0.0
H588 H 0.68583 0.70212 0.2546 0.0
H589 H 0.70854 0.67067 0.24085 0.0
H590 H 0.33506 0.65463 0.26547 0.0
H591 H 0.70129 0.63303 0.23556 0.0
H592 H 0.41303 0.55355 0.21433 0.0
N593 N 0.40783 0.63351 0.24515 0.0
C594 C 0.39361 0.61484 0.24138 0.0
C595 C 0.35137 0.64324 0.25889 0.0
C596 C 0.35774 0.60941 0.24672 0.0
C597 C 0.38712 0.6479 0.25337 0.0
C598 C 0.33672 0.62384 0.2557 0.0
N599 N 0.4488 0.60735 0.22641 0.0
C600 C 0.46855 0.59533 0.21543 0.0
C601 C 0.40085 0.58181 0.2277 0.0
C602 C 0.41497 0.60125 0.232 0.0
C603 C 0.42261 0.56872 0.21772 0.0
C604 C 0.45656 0.57558 0.21151 0.0
H605 H 0.30898 0.62028 0.25998 0.0
H606 H 0.31622 0.58557 0.24657 0.0
H607 H 0.3538 0.56152 0.22967 0.0
O608 O 0.44988 0.64094 0.20828 0.0
O609 O 0.45452 0.62615 0.26116 0.0
O610 O 0.50956 0.61152 0.26885 0.0
O611 O 0.44756 0.66867 0.22337 0.0
O612 O 0.52247 0.62493 0.22866 0.0
O613 O 0.54318 0.61085 0.25412 0.0
O614 O 0.53833 0.64207 0.2993 0.0
O615 O 0.54184 0.66639 0.25393 0.0
O616 O 0.52648 0.64962 0.22958 0.0
O617 O 0.58573 0.6254 0.2904 0.0
O618 O 0.49321 0.65346 0.27893 0.0
O619 O 0.46862 0.66719 0.2539 0.0
C620 C 0.47331 0.61155 0.26872 0.0
C621 C 0.40494 0.66504 0.20017 0.0
C622 C 0.36906 0.66667 0.17361 0.0
C623 C 0.3395 0.67509 0.18294 0.0
C624 C 0.37505 0.6733 0.20931 0.0
C625 C 0.34251 0.67829 0.20068 0.0
C626 C 0.40173 0.66172 0.18237 0.0
C627 C 0.53973 0.61046 0.23723 0.0
C628 C 0.44006 0.66002 0.20866 0.0
C629 C 0.34379 0.58998 0.24265 0.0
C630 C 0.36527 0.57624 0.23312 0.0
C631 C 0.54121 0.66542 0.23712 0.0
C632 C 0.55896 0.6153 0.3168 0.0
C633 C 0.56179 0.60416 0.34669 0.0
C634 C 0.54007 0.58707 0.34253 0.0
C635 C 0.53788 0.59798 0.31277 0.0
C636 C 0.5713 0.61822 0.33373 0.0
C637 C 0.52851 0.58392 0.32559 0.0
C638 C 0.47334 0.66725 0.27077 0.0
C639 C 0.56642 0.63096 0.30371 0.0
H640 H 0.3139 0.67893 0.17656 0.0
H641 H 0.37683 0.67597 0.22303 0.0
H642 H 0.31953 0.68466 0.20777 0.0
H643 H 0.42497 0.65554 0.17528 0.0
H644 H 0.53247 0.57606 0.35234 0.0
H645 H 0.5285 0.59551 0.29976 0.0
H646 H 0.58751 0.63164 0.33691 0.0
H647 H 0.51215 0.57061 0.32239 0.0
H648 H 0.1761 0.95656 0.34627 0.0
H649 H 0.15526 0.98618 0.32985 0.0
H650 H 0.11062 0.01288 0.37616 0.0
H651 H 0.13051 0.98296 0.39262 0.0
H652 H 0.06227 0.0152 0.35017 0.0
H653 H 0.18926 0.03175 0.35811 0.0
H654 H 0.25644 0.02611 0.35762 0.0
H655 H 0.25328 0.01821 0.30278 0.0
H656 H 0.18595 0.02352 0.30296 0.0
H657 H 0.03067 0.11249 0.3103 0.0
H658 H 0.05412 0.08572 0.32935 0.0
H659 H 0.09162 0.05144 0.28531 0.0
H660 H 0.06748 0.07777 0.26614 0.0
H661 H 0.14491 0.05506 0.31176 0.0
H662 H 0.01855 0.03059 0.30516 0.0
H663 H 0.95073 0.03357 0.30538 0.0
H664 H 0.95412 0.05688 0.35703 0.0
H665 H 0.02196 0.0534 0.35726 0.0
C666 C 0.1617 0.96869 0.35296 0.0
C667 C 0.15488 0.96737 0.37076 0.0
C668 C 0.15017 0.98572 0.34358 0.0
C669 C 0.13176 0.00188 0.3518 0.0
C670 C 0.12495 1.00064 0.36957 0.0
C671 C 0.13654 0.9836 0.37897 0.0
C672 C 0.11835 0.01962 0.34168 0.0
C673 C 0.08055 0.02416 0.34206 0.0
C674 C 0.14196 0.03105 0.33076 0.0
C675 C 0.18248 0.02786 0.33058 0.0
C676 C 0.20283 0.02864 0.34596 0.0
C677 C 0.24095 0.02554 0.34573 0.0
C678 C 0.2591 0.02176 0.33018 0.0
C679 C 0.23917 0.02112 0.31482 0.0
C680 C 0.20103 0.0242 0.31497 0.0
C681 C 0.04383 0.09925 0.30464 0.0
C682 C 0.04736 0.09739 0.28666 0.0
C683 C 0.05714 0.08395 0.31555 0.0
C684 C 0.07454 0.0666 0.30872 0.0
C685 C 0.0784 0.06476 0.29083 0.0
C686 C 0.06466 0.07989 0.2799 0.0
C687 C 0.08897 0.05041 0.32021 0.0
C688 C 0.12688 0.0462 0.32007 0.0
C689 C 0.0656 0.03926 0.33136 0.0
C690 C 0.02515 0.04196 0.33116 0.0
C691 C 0.00478 0.03646 0.31651 0.0
C692 C 0.96637 0.03814 0.31659 0.0
C693 C 0.94814 0.04562 0.33114 0.0
C694 C 0.96828 0.05117 0.34574 0.0
C695 C 0.00667 0.04921 0.34582 0.0
H696 H 0.91841 0.04701 0.33113 0.0
H697 H 0.28862 0.01936 0.33003 0.0
H698 H 0.40303 0.55143 0.86094 0.0
H699 H 0.42318 0.52371 0.84186 0.0
H700 H 0.33984 0.48411 0.86336 0.0
H701 H 0.31911 0.51192 0.88227 0.0
H702 H 0.41669 0.46691 0.85902 0.0
H703 H 0.31876 0.50218 0.82834 0.0
H704 H 0.28914 0.5329 0.8163 0.0
H705 H 0.38468 0.54442 0.78501 0.0
H706 H 0.41509 0.51392 0.79707 0.0
H707 H 0.42615 0.38627 0.79962 0.0
H708 H 0.40315 0.41333 0.81853 0.0
H709 H 0.45334 0.45872 0.78552 0.0
H710 H 0.47386 0.43159 0.76596 0.0
H711 H 0.39381 0.4735 0.7963 0.0
H712 H 0.49325 0.44025 0.82519 0.0
H713 H 0.52781 0.41101 0.83698 0.0
H714 H 0.43833 0.39761 0.87147 0.0
H715 H 0.40303 0.42664 0.85975 0.0
C716 C 0.38929 0.53674 0.86171 0.0
C717 C 0.35952 0.53377 0.87305 0.0
C718 C 0.40072 0.52098 0.85079 0.0
C719 C 0.38292 0.50193 0.85122 0.0
C720 C 0.35392 0.49872 0.86289 0.0
C721 C 0.34203 0.51459 0.87359 0.0
C722 C 0.39366 0.48563 0.839 0.0
C723 C 0.41138 0.46816 0.84532 0.0
C724 C 0.38777 0.48769 0.82111 0.0
C725 C 0.36934 0.5059 0.81374 0.0
C726 C 0.33358 0.51137 0.81901 0.0
C727 C 0.31662 0.52872 0.81215 0.0
C728 C 0.33505 0.54064 0.79993 0.0
C729 C 0.37045 0.53519 0.7945 0.0
C730 C 0.38754 0.51787 0.80133 0.0
C731 C 0.43166 0.40209 0.79635 0.0
C732 C 0.4516 0.40701 0.78144 0.0
C733 C 0.41893 0.41753 0.80722 0.0
C734 C 0.42742 0.43812 0.80379 0.0
C735 C 0.44649 0.443 0.78854 0.0
C736 C 0.45817 0.42756 0.77735 0.0
C737 C 0.41699 0.45449 0.81621 0.0
C738 C 0.39933 0.47208 0.80996 0.0
C739 C 0.42385 0.45275 0.83414 0.0
C740 C 0.44536 0.43554 0.8415 0.0
C741 C 0.48088 0.43103 0.83526 0.0
C742 C 0.50061 0.4145 0.84193 0.0
C743 C 0.48526 0.40245 0.85496 0.0
C744 C 0.4502 0.40696 0.86139 0.0
C745 C 0.43033 0.42347 0.85475 0.0
H746 H 0.50055 0.38963 0.8601 0.0
H747 H 0.32188 0.55407 0.79464 0.0
H748 H 0.63521 0.52051 0.62073 0.0
H749 H 0.61053 0.49205 0.63771 0.0
H750 H 0.66722 0.51464 0.68262 0.0
H751 H 0.69234 0.54302 0.66567 0.0
H752 H 0.67368 0.47251 0.67858 0.0
H753 H 0.57802 0.52365 0.67837 0.0
H754 H 0.53441 0.54765 0.66489 0.0
H755 H 0.48215 0.49792 0.63831 0.0
H756 H 0.52582 0.47364 0.65144 0.0
H757 H 0.56543 0.42489 0.74528 0.0
H758 H 0.5923 0.45107 0.72659 0.0
H759 H 0.55405 0.41825 0.68195 0.0
H760 H 0.52935 0.39129 0.70048 0.0
H761 H 0.53823 0.46432 0.68502 0.0
H762 H 0.63192 0.41336 0.68401 0.0
H763 H 0.67608 0.38845 0.69573 0.0
H764 H 0.73196 0.43647 0.72291 0.0
H765 H 0.68747 0.46165 0.71167 0.0
C766 C 0.64272 0.51929 0.63418 0.0
C767 C 0.66559 0.53403 0.6419 0.0
C768 C 0.62841 0.50311 0.64388 0.0
C769 C 0.63679 0.50137 0.66145 0.0
C770 C 0.66035 0.51576 0.66909 0.0
C771 C 0.67445 0.53202 0.65943 0.0
C772 C 0.62044 0.48476 0.67197 0.0
C773 C 0.64409 0.47088 0.68016 0.0
C774 C 0.58179 0.48229 0.67361 0.0
C775 C 0.55544 0.49686 0.66575 0.0
C776 C 0.55743 0.51785 0.66954 0.0
C777 C 0.53267 0.5315 0.66198 0.0
C778 C 0.50559 0.52432 0.65071 0.0
C779 C 0.50317 0.50346 0.64702 0.0
C780 C 0.52791 0.48975 0.65452 0.0
C781 C 0.56358 0.42294 0.73152 0.0
C782 C 0.54635 0.40565 0.72443 0.0
C783 C 0.57853 0.43804 0.72086 0.0
C784 C 0.57539 0.43641 0.70293 0.0
C785 C 0.55689 0.41965 0.69578 0.0
C786 C 0.54285 0.40427 0.70642 0.0
C787 C 0.59149 0.45228 0.69169 0.0
C788 C 0.56781 0.466 0.68341 0.0
C789 C 0.63005 0.45449 0.68983 0.0
C790 C 0.65609 0.43936 0.69715 0.0
C791 C 0.65324 0.41858 0.69271 0.0
C792 C 0.67845 0.40442 0.69918 0.0
C793 C 0.70695 0.4109 0.70995 0.0
C794 C 0.70997 0.4315 0.71448 0.0
C795 C 0.68471 0.44572 0.70809 0.0
H796 H 0.72666 0.39993 0.71481 0.0
H797 H 0.48644 0.53492 0.64488 0.0
H798 H 0.89087 0.97957 0.12224 0.0
H799 H 0.91424 0.00763 0.13989 0.0
H800 H 0.82544 0.99862 0.17602 0.0
H801 H 0.80294 0.96976 0.15911 0.0
H802 H 0.84203 0.04201 0.16445 0.0
H803 H 0.89794 0.98071 0.18835 0.0
H804 H 0.9336 0.94875 0.1862 0.0
H805 H 0.02633 0.98209 0.16617 0.0
H806 H 0.99097 0.01421 0.16796 0.0
H807 H 0.90236 0.10177 0.23439 0.0
H808 H 0.87786 0.07547 0.21556 0.0
H809 H 0.98572 0.06767 0.19285 0.0
H810 H 0.01093 0.09273 0.21292 0.0
H811 H 0.95923 0.0329 0.19636 0.0
H812 H 0.90825 0.09401 0.17261 0.0
H813 H 0.87491 0.12683 0.17314 0.0
H814 H 0.77644 0.09605 0.18979 0.0
H815 H 0.80932 0.06308 0.18958 0.0
C816 C 0.87644 0.98331 0.13403 0.0
C817 C 0.84503 0.97218 0.13923 0.0
C818 C 0.88968 0.99952 0.14399 0.0
C819 C 0.87149 0.00515 0.1592 0.0
C820 C 0.83964 0.99456 0.16422 0.0
C821 C 0.82674 0.97811 0.15445 0.0
C822 C 0.88662 0.02154 0.17025 0.0
C823 C 0.86747 0.04006 0.17158 0.0
C824 C 0.92035 0.01909 0.17906 0.0
C825 C 0.94168 0.99981 0.17811 0.0
C826 C 0.92581 0.98119 0.18334 0.0
C827 C 0.94599 0.96306 0.18221 0.0
C828 C 0.98217 0.96338 0.176 0.0
C829 C 0.99828 0.98185 0.17095 0.0
C830 C 0.9782 1.00003 0.17202 0.0
C831 C 0.92095 0.09437 0.22557 0.0
C832 C 0.95869 0.09915 0.22542 0.0
C833 C 0.90677 0.07946 0.21453 0.0
C834 C 0.92969 0.06971 0.20246 0.0
C835 C 0.96734 0.07483 0.20205 0.0
C836 C 0.98174 0.08924 0.21351 0.0
C837 C 0.91479 0.05374 0.19068 0.0
C838 C 0.93393 0.03515 0.18919 0.0
C839 C 0.88143 0.05635 0.18141 0.0
C840 C 0.86134 0.07609 0.18119 0.0
C841 C 0.87952 0.09425 0.17645 0.0
C842 C 0.86071 0.11288 0.17669 0.0
C843 C 0.8236 0.11353 0.18153 0.0
C844 C 0.80519 0.09553 0.18606 0.0
C845 C 0.82388 0.07686 0.18585 0.0
H846 H 0.8091 0.12797 0.18174 0.0
H847 H 0.99776 0.94932 0.17514 0.0
H848 H 0.87769 0.01779 0.62134 0.0
H849 H 0.89852 0.98942 0.63942 0.0
H850 H 0.85186 0.01883 0.6841 0.0
H851 H 0.8315 0.04739 0.66616 0.0
H852 H 0.92177 0.00516 0.68992 0.0
H853 H 0.80911 0.97854 0.66659 0.0
H854 H 0.76541 0.96922 0.64361 0.0
H855 H 0.84493 0.92791 0.62206 0.0
H856 H 0.88934 0.93721 0.64478 0.0
H857 H 0.94385 0.92347 0.74782 0.0
H858 H 0.91716 0.95023 0.73003 0.0
H859 H 0.94944 0.91745 0.68423 0.0
H860 H 0.97369 0.88978 0.70201 0.0
H861 H 0.88577 0.93312 0.67909 0.0
H862 H 0.99982 0.96101 0.70123 0.0
H863 H 0.04431 0.97085 0.72381 0.0
H864 H 0.96314 0.00959 0.74722 0.0
H865 H 0.91821 1.00007 0.72479 0.0
C866 C 0.87196 0.01823 0.63503 0.0
C867 C 0.85288 0.0348 0.64232 0.0
C868 C 0.88362 0.00194 0.64531 0.0
C869 C 0.87646 0.00195 0.66308 0.0
C870 C 0.85755 0.0185 0.67041 0.0
C871 C 0.84571 0.03472 0.66012 0.0
C872 C 0.88944 0.98492 0.67412 0.0
C873 C 0.91356 0.98942 0.68769 0.0
C874 C 0.87937 0.96437 0.67095 0.0
C875 C 0.8527 0.95874 0.65729 0.0
C876 C 0.81741 0.9676 0.65686 0.0
C877 C 0.79248 0.9623 0.6439 0.0
C878 C 0.80242 0.94802 0.63135 0.0
C879 C 0.83729 0.93899 0.63177 0.0
C880 C 0.86234 0.94426 0.6447 0.0
C881 C 0.94485 0.92177 0.73396 0.0
C882 C 0.96125 0.90453 0.72634 0.0
C883 C 0.92999 0.93727 0.72378 0.0
C884 C 0.93218 0.93621 0.70575 0.0
C885 C 0.94767 0.91875 0.6981 0.0
C886 C 0.96177 0.90299 0.70829 0.0
C887 C 0.91844 0.95328 0.69487 0.0
C888 C 0.89412 0.94882 0.68132 0.0
C889 C 0.92852 0.9739 0.69798 0.0
C890 C 0.95559 0.9797 0.71142 0.0
C891 C 0.99143 0.97154 0.71125 0.0
C892 C 0.01671 0.97705 0.72401 0.0
C893 C 0.0065 0.99069 0.73699 0.0
C894 C 0.97102 0.99897 0.73719 0.0
C895 C 0.94566 0.99359 0.72443 0.0
H896 H 0.02618 0.99492 0.74682 0.0
H897 H 0.78308 0.94393 0.62133 0.0
H898 H 0.7083 0.48297 0.13838 0.0
H899 H 0.68661 0.51023 0.15741 0.0
H900 H 0.58587 0.47672 0.16654 0.0
H901 H 0.6073 0.44951 0.14745 0.0
H902 H 0.57077 0.51528 0.16099 0.0
H903 H 0.65533 0.47903 0.19686 0.0
H904 H 0.71458 0.46326 0.20485 0.0
H905 H 0.76817 0.5217 0.20142 0.0
H906 H 0.70932 0.53778 0.19317 0.0
H907 H 0.54149 0.56996 0.24547 0.0
H908 H 0.56386 0.54178 0.22726 0.0
H909 H 0.59916 0.58527 0.18891 0.0
H910 H 0.57544 0.61331 0.20665 0.0
H911 H 0.64515 0.54109 0.20995 0.0
H912 H 0.55745 0.57399 0.16718 0.0
H913 H 0.4961 0.58685 0.15897 0.0
H914 H 0.44642 0.53098 0.17655 0.0
H915 H 0.50747 0.51814 0.18546 0.0
C916 C 0.68163 0.48137 0.14454 0.0
C917 C 0.65951 0.46409 0.14141 0.0
C918 C 0.66929 0.49693 0.15543 0.0
C919 C 0.63478 0.49542 0.16358 0.0
C920 C 0.61256 0.47824 0.16038 0.0
C921 C 0.62478 0.46274 0.14942 0.0
C922 C 0.62145 0.51191 0.17516 0.0
C923 C 0.58706 0.52081 0.17173 0.0
C924 C 0.64256 0.51918 0.18922 0.0
C925 C 0.67798 0.50957 0.19423 0.0
C926 C 0.67981 0.48849 0.19768 0.0
C927 C 0.71331 0.4795 0.20228 0.0
C928 C 0.74514 0.49146 0.2036 0.0
C929 C 0.7435 0.51245 0.20037 0.0
C930 C 0.71007 0.52151 0.19574 0.0
C931 C 0.5542 0.57342 0.23318 0.0
C932 C 0.55661 0.59369 0.22735 0.0
C933 C 0.56667 0.55739 0.22277 0.0
C934 C 0.58212 0.56148 0.20655 0.0
C935 C 0.58616 0.58179 0.20112 0.0
C936 C 0.57299 0.59776 0.21132 0.0
C937 C 0.59505 0.54459 0.19547 0.0
C938 C 0.62916 0.53554 0.19912 0.0
C939 C 0.57363 0.53705 0.18168 0.0
C940 C 0.53684 0.54538 0.17746 0.0
C941 C 0.53335 0.56471 0.16976 0.0
C942 C 0.49866 0.57192 0.16484 0.0
C943 C 0.46735 0.55976 0.16726 0.0
C944 C 0.47067 0.54039 0.17469 0.0
C945 C 0.50526 0.53322 0.1798 0.0
H946 H 0.44055 0.56534 0.16339 0.0
H947 H 0.77105 0.48447 0.20717 0.0
H948 H 0.40058 0.45732 0.3622 0.0
H949 H 0.42076 0.48592 0.34431 0.0
H950 H 0.31487 0.51479 0.35097 0.0
H951 H 0.29448 0.4862 0.36898 0.0
H952 H 0.3358 0.51564 0.31791 0.0
H953 H 0.39241 0.53213 0.37192 0.0
H954 H 0.43047 0.52621 0.39771 0.0
H955 H 0.52584 0.51696 0.36586 0.0
H956 H 0.48829 0.52248 0.33986 0.0
H957 H 0.4026 0.61122 0.2816 0.0
H958 H 0.37418 0.58463 0.29962 0.0
H959 H 0.47226 0.5479 0.29474 0.0
H960 H 0.50024 0.57396 0.27646 0.0
H961 H 0.45179 0.5538 0.32852 0.0
H962 H 0.39637 0.5297 0.27584 0.0
H963 H 0.36024 0.53169 0.24907 0.0
H964 H 0.267 0.55423 0.2774 0.0
H965 H 0.30249 0.55194 0.30444 0.0
C966 C 0.38172 0.46988 0.36008 0.0
C967 C 0.34593 0.46948 0.36709 0.0
C968 C 0.39331 0.48624 0.34983 0.0
C969 C 0.36951 0.50267 0.34647 0.0
C970 C 0.33373 0.50231 0.3534 0.0
C971 C 0.32208 0.48591 0.36364 0.0
C972 C 0.3816 0.51982 0.33522 0.0
C973 C 0.36081 0.52425 0.32044 0.0
C974 C 0.41473 0.53075 0.33824 0.0
C975 C 0.43738 0.52748 0.35391 0.0
C976 C 0.42142 0.52865 0.3704 0.0
C977 C 0.44293 0.52539 0.38506 0.0
C978 C 0.4805 0.52111 0.38341 0.0
C979 C 0.49671 0.52022 0.36711 0.0
C980 C 0.47532 0.52341 0.35241 0.0
C981 C 0.41775 0.59729 0.2841 0.0
C982 C 0.45391 0.59484 0.27788 0.0
C983 C 0.40154 0.58214 0.29442 0.0
C984 C 0.42131 0.56438 0.29867 0.0
C985 C 0.45668 0.56156 0.29178 0.0
C986 C 0.47266 0.57653 0.28138 0.0
C987 C 0.40643 0.54924 0.31112 0.0
C988 C 0.42661 0.5453 0.32615 0.0
C989 C 0.37307 0.53862 0.30827 0.0
C990 C 0.35214 0.54086 0.29208 0.0
C991 C 0.36826 0.53524 0.27632 0.0
C992 C 0.34783 0.53629 0.26113 0.0
C993 C 0.31137 0.54316 0.26151 0.0
C994 C 0.29523 0.54892 0.27712 0.0
C995 C 0.31542 0.54764 0.2924 0.0
H996 H 0.29563 0.54403 0.24971 0.0
H997 H 0.49707 0.51846 0.39475 0.0
H998 H 0.15113 0.01741 0.88462 0.0
H999 H 0.1307 0.98963 0.86563 0.0
H1000 H 0.15238 0.02742 0.82127 0.0
H1001 H 0.17332 0.05513 0.84017 0.0
H1002 H 0.0808 0.00742 0.8221 0.0
H1003 H 0.21001 0.99237 0.82796 0.0
H1004 H 0.26722 0.98599 0.84418 0.0
H1005 H 0.217 0.93408 0.86869 0.0
H1006 H 0.15928 0.94035 0.8528 0.0
H1007 H 0.04189 0.92922 0.76184 0.0
H1008 H 0.07116 0.95766 0.7771 0.0
H1009 H 0.09124 0.91797 0.82057 0.0
H1010 H 0.06574 0.88913 0.80436 0.0
H1011 H 0.14493 0.94065 0.81884 0.0
H1012 H 0.01542 0.95571 0.81535 0.0
H1013 H 0.95571 0.96205 0.80101 0.0
H1014 H 0.00213 0.01404 0.77508 0.0
H1015 H 0.06221 0.00757 0.78882 0.0
C1016 C 0.15152 0.01975 0.87082 0.0
C1017 C 0.16385 0.03836 0.86384 0.0
C1018 C 0.14004 0.00388 0.86001 0.0
C1019 C 0.14024 0.00649 0.84207 0.0
C1020 C 0.15215 0.02513 0.83508 0.0
C1021 C 0.16422 0.04087 0.84587 0.0
C1022 C 0.12731 0.98986 0.83064 0.0
C1023 C 0.09497 0.99287 0.82115 0.0
C1024 C 0.14545 0.9708 0.82981 0.0
C1025 C 0.18021 0.96695 0.83931 0.0
C1026 C 0.21105 0.97971 0.83692 0.0
C1027 C 0.2436 0.97608 0.84603 0.0
C1028 C 0.24571 0.95967 0.85749 0.0
C1029 C 0.21531 0.94681 0.85982 0.0
C1030 C 0.18269 0.95037 0.85075 0.0
C1031 C 0.05304 0.92667 0.77459 0.0
C1032 C 0.05185 0.90718 0.78202 0.0
C1033 C 0.06935 0.94295 0.78341 0.0
C1034 C 0.08262 0.94027 0.80029 0.0
C1035 C 0.08134 0.92059 0.80762 0.0
C1036 C 0.06657 0.90413 0.79845 0.0
C1037 C 0.09748 0.95783 0.81044 0.0
C1038 C 0.13046 0.95511 0.81967 0.0
C1039 C 0.07943 0.97707 0.81129 0.0
C1040 C 0.04335 0.98095 0.80294 0.0
C1041 C 0.01285 0.96833 0.80644 0.0
C1042 C 0.97901 0.97194 0.7984 0.0
C1043 C 0.97519 0.98836 0.78705 0.0
C1044 C 0.00517 1.00124 0.78377 0.0
C1045 C 0.03914 0.99757 0.79164 0.0
H1046 H 0.94898 0.99116 0.78085 0.0
H1047 H 0.27094 0.95689 0.86453 0.0
H1048 H 0.12723 0.14097 0.00506 0.0
H1049 H 0.11433 0.14102 0.03604 0.0
H1050 H 0.21883 0.11181 0.04554 0.0
H1051 H 0.23173 0.11152 0.0146 0.0
H1052 H 0.1617 0.09413 0.06393 0.0
H1053 H 0.20973 0.16167 0.05271 0.0
H1054 H 0.21179 0.19516 0.03817 0.0
H1055 H 0.10193 0.20815 0.05568 0.0
H1056 H 0.09904 0.17459 0.07013 0.0
H1057 H 0.19632 0.11259 0.15166 0.0
H1058 H 0.197 0.11099 0.12029 0.0
H1059 H 0.09329 0.14309 0.11856 0.0
H1060 H 0.09283 0.14511 0.15013 0.0
H1061 H 0.14264 0.15896 0.09584 0.0
H1062 H 0.09605 0.09287 0.10915 0.0
H1063 H 0.0934 0.05942 0.12371 0.0
H1064 H 0.1987 0.04347 0.10228 0.0
H1065 H 0.20225 0.07696 0.08778 0.0
C1066 C 0.14735 0.13445 0.01375 0.0
C1067 C 0.18057 0.1263 0.00739 0.0
C1068 C 0.14003 0.1346 0.03145 0.0
C1069 C 0.16572 0.12653 0.04311 0.0
C1070 C 0.19865 0.11814 0.03677 0.0
C1071 C 0.20611 0.11813 0.01911 0.0
C1072 C 0.15853 0.12689 0.06194 0.0
C1073 C 0.15784 0.10831 0.07095 0.0
C1074 C 0.1523 0.14535 0.07099 0.0
C1075 C 0.15401 0.16553 0.06232 0.0
C1076 C 0.18589 0.17159 0.05333 0.0
C1077 C 0.18723 0.1906 0.04513 0.0
C1078 C 0.15697 0.20375 0.04596 0.0
C1079 C 0.12533 0.19793 0.05502 0.0
C1080 C 0.12383 0.17893 0.06323 0.0
C1081 C 0.17364 0.11934 0.14463 0.0
C1082 C 0.14459 0.12906 0.15339 0.0
C1083 C 0.1739 0.11824 0.12668 0.0
C1084 C 0.14504 0.12676 0.11705 0.0
C1085 C 0.11579 0.13635 0.12574 0.0
C1086 C 0.11543 0.13738 0.14376 0.0
C1087 C 0.14644 0.1262 0.09793 0.0
C1088 C 0.14605 0.14475 0.08884 0.0
C1089 C 0.15153 0.10769 0.08879 0.0
C1090 C 0.14954 0.08751 0.09748 0.0
C1091 C 0.11879 0.0823 0.10765 0.0
C1092 C 0.11709 0.06332 0.11587 0.0
C1093 C 0.14589 0.04935 0.11395 0.0
C1094 C 0.17642 0.05432 0.10377 0.0
C1095 C 0.17827 0.07329 0.09553 0.0
H1096 H 0.14452 0.03466 0.12033 0.0
H1097 H 0.15806 0.21846 0.03961 0.0
H1098 H 0.31488 0.34582 0.51188 0.0
H1099 H 0.32911 0.34608 0.54269 0.0
H1100 H 0.37279 0.40721 0.53792 0.0
H1101 H 0.35905 0.40693 0.50716 0.0
H1102 H 0.41625 0.38512 0.55773 0.0
H1103 H 0.28499 0.39708 0.55432 0.0
H1104 H 0.22102 0.38908 0.54592 0.0
H1105 H 0.22593 0.33276 0.57419 0.0
H1106 H 0.29013 0.34031 0.58259 0.0
H1107 H 0.40303 0.426 0.64134 0.0
H1108 H 0.39687 0.4172 0.61095 0.0
H1109 H 0.3638 0.35601 0.62484 0.0
H1110 H 0.36942 0.36489 0.65546 0.0
H1111 H 0.31766 0.37308 0.60093 0.0
H1112 H 0.44723 0.36374 0.60721 0.0
H1113 H 0.51048 0.37278 0.61598 0.0
H1114 H 0.50842 0.42506 0.5826 0.0
H1115 H 0.44493 0.4165 0.5738 0.0
C1116 C 0.32741 0.35933 0.51743 0.0
C1117 C 0.33577 0.37637 0.50708 0.0
C1118 C 0.33555 0.35946 0.53504 0.0
C1119 C 0.35168 0.37675 0.54269 0.0
C1120 C 0.36048 0.39365 0.53232 0.0
C1121 C 0.35264 0.39347 0.51472 0.0
C1122 C 0.35899 0.37752 0.56153 0.0
C1123 C 0.39461 0.38262 0.56716 0.0
C1124 C 0.33108 0.37366 0.57391 0.0
C1125 C 0.29248 0.36914 0.56891 0.0
C1126 C 0.27251 0.38292 0.55864 0.0
C1127 C 0.2362 0.37848 0.55389 0.0
C1128 C 0.21946 0.3604 0.55947 0.0
C1129 C 0.23896 0.34674 0.56985 0.0
C1130 C 0.27529 0.3511 0.57461 0.0
C1131 C 0.39454 0.41064 0.63794 0.0
C1132 C 0.38651 0.39616 0.65079 0.0
C1133 C 0.39132 0.40558 0.62056 0.0
C1134 C 0.38014 0.3859 0.6156 0.0
C1135 C 0.37259 0.37127 0.62838 0.0
C1136 C 0.37602 0.37631 0.64584 0.0
C1137 C 0.37469 0.38113 0.59708 0.0
C1138 C 0.33943 0.37527 0.59151 0.0
C1139 C 0.40288 0.3844 0.58476 0.0
C1140 C 0.44119 0.38954 0.58993 0.0
C1141 C 0.46015 0.37724 0.60182 0.0
C1142 C 0.49607 0.38227 0.60679 0.0
C1143 C 0.51343 0.3995 0.59988 0.0
C1144 C 0.49493 0.41172 0.58795 0.0
C1145 C 0.45899 0.40677 0.58294 0.0
H1146 H 0.54124 0.40337 0.60374 0.0
H1147 H 0.19134 0.35699 0.55579 0.0
H1148 H 0.67761 0.33177 1.00278 0.0
H1149 H 0.66149 0.3261 0.97262 0.0
H1150 H 0.64953 0.39118 0.96534 0.0
H1151 H 0.6638 0.39672 0.99585 0.0
H1152 H 0.59863 0.37393 0.94842 0.0
H1153 H 0.72763 0.36315 0.95086 0.0
H1154 H 0.78659 0.3492 0.9613 0.0
H1155 H 0.75115 0.28853 0.94816 0.0
H1156 H 0.69173 0.30209 0.93786 0.0
H1157 H 0.62096 0.36112 0.8555 0.0
H1158 H 0.63675 0.36955 0.88511 0.0
H1159 H 0.5946 0.31138 0.90207 0.0
H1160 H 0.57618 0.30319 0.87284 0.0
H1161 H 0.67513 0.32744 0.91274 0.0
H1162 H 0.54232 0.34206 0.91123 0.0
H1163 H 0.48851 0.35942 0.89858 0.0
H1164 H 0.53924 0.41776 0.90772 0.0
H1165 H 0.59373 0.40069 0.92011 0.0
C1166 C 0.67154 0.34483 0.9947 0.0
C1167 C 0.67217 0.36467 1.00154 0.0
C1168 C 0.66254 0.34162 0.97744 0.0
C1169 C 0.65512 0.35824 0.96651 0.0
C1170 C 0.65524 0.37809 0.97344 0.0
C1171 C 0.66346 0.38127 0.99084 0.0
C1172 C 0.64709 0.3548 0.94793 0.0
C1173 C 0.61572 0.36395 0.94063 0.0
C1174 C 0.66935 0.34189 0.93757 0.0
C1175 C 0.70508 0.33363 0.94372 0.0
C1176 C 0.7323 0.34682 0.95031 0.0
C1177 C 0.76582 0.33898 0.95619 0.0
C1178 C 0.77258 0.31798 0.95543 0.0
C1179 C 0.74585 0.30479 0.94876 0.0
C1180 C 0.71226 0.31255 0.94288 0.0
C1181 C 0.61403 0.35019 0.86544 0.0
C1182 C 0.59643 0.3315 0.86148 0.0
C1183 C 0.62362 0.35502 0.88239 0.0
C1184 C 0.61666 0.3411 0.89569 0.0
C1185 C 0.60017 0.32229 0.8919 0.0
C1186 C 0.58983 0.31762 0.87504 0.0
C1187 C 0.62653 0.34615 0.91363 0.0
C1188 C 0.6583 0.3374 0.92068 0.0
C1189 C 0.60533 0.35987 0.92357 0.0
C1190 C 0.57227 0.37009 0.91641 0.0
C1191 C 0.54218 0.35857 0.91038 0.0
C1192 C 0.51152 0.36836 0.90329 0.0
C1193 C 0.51049 0.38968 0.90232 0.0
C1194 C 0.5401 0.40125 0.90846 0.0
C1195 C 0.57087 0.39152 0.91552 0.0
H1196 H 0.4867 0.39724 0.89688 0.0
H1197 H 0.79855 0.31195 0.95999 0.0
H1198 H 0.79305 0.12832 0.49426 0.0
H1199 H 0.80899 0.13134 0.46391 0.0
H1200 H 0.92321 0.14052 0.47733 0.0
H1201 H 0.90712 0.13883 0.50783 0.0
H1202 H 0.9062 0.16587 0.4533 0.0
H1203 H 0.89026 0.09428 0.46 0.0
H1204 H 0.85958 0.06226 0.46876 0.0
H1205 H 0.76905 0.0754 0.43501 0.0
H1206 H 0.79893 0.10766 0.42623 0.0
H1207 H 0.95533 0.15926 0.36419 0.0
H1208 H 0.95164 0.14811 0.39441 0.0
H1209 H 0.83289 0.1498 0.3918 0.0
H1210 H 0.83652 0.16109 0.36181 0.0
H1211 H 0.86068 0.11578 0.4103 0.0
H1212 H 0.87599 0.1897 0.40688 0.0
H1213 H 0.9089 0.22102 0.39803 0.0
H1214 H 0.00492 0.20156 0.42577 0.0
H1215 H 0.97269 0.16996 0.4346 0.0
C1216 C 0.82153 0.13123 0.49083 0.0
C1217 C 0.84875 0.13333 0.50361 0.0
C1218 C 0.83073 0.13263 0.47339 0.0
C1219 C 0.86747 0.13575 0.46824 0.0
C1220 C 0.89471 0.13794 0.48094 0.0
C1221 C 0.88547 0.13678 0.49841 0.0
C1222 C 0.8771 0.13742 0.44964 0.0
C1223 C 0.89688 0.15465 0.44398 0.0
C1224 C 0.86481 0.12291 0.43736 0.0
C1225 C 0.84674 0.10348 0.44255 0.0
C1226 C 0.86369 0.09042 0.45453 0.0
C1227 C 0.84646 0.07221 0.45949 0.0
C1228 C 0.81236 0.06682 0.45247 0.0
C1229 C 0.79546 0.0796 0.44045 0.0
C1230 C 0.81256 0.09784 0.43546 0.0
C1231 C 0.92853 0.15681 0.37002 0.0
C1232 C 0.8962 0.1611 0.36079 0.0
C1233 C 0.92643 0.15055 0.38725 0.0
C1234 C 0.89197 0.14829 0.39536 0.0
C1235 C 0.85972 0.15143 0.38579 0.0
C1236 C 0.86181 0.15794 0.36871 0.0
C1237 C 0.88908 0.14431 0.41411 0.0
C1238 C 0.87051 0.12671 0.41975 0.0
C1239 C 0.90289 0.15831 0.42639 0.0
C1240 C 0.9221 0.17738 0.42123 0.0
C1241 C 0.90422 0.19203 0.41098 0.0
C1242 C 0.92273 0.20983 0.40599 0.0
C1243 C 0.95901 0.21324 0.4113 0.0
C1244 C 0.97684 0.19887 0.42165 0.0
C1245 C 0.95846 0.18102 0.42665 0.0
H1246 H 0.97327 0.22705 0.40745 0.0
H1247 H 0.79906 0.05272 0.45633 0.0
H1248 H 0.78646 0.89443 0.99619 0.0
H1249 H 0.80385 0.89511 0.96579 0.0
H1250 H 0.89004 0.85126 0.97575 0.0
H1251 H 0.87354 0.85125 0.00635 0.0
H1252 H 0.91629 0.87874 0.95609 0.0
H1253 H 0.80633 0.839 0.95389 0.0
H1254 H 0.74119 0.83025 0.95936 0.0
H1255 H 0.70675 0.88325 0.93109 0.0
H1256 H 0.77171 0.89248 0.92565 0.0
H1257 H 0.94739 0.86163 0.86585 0.0
H1258 H 0.92706 0.85518 0.89556 0.0
H1259 H 0.86081 0.90981 0.89417 0.0
H1260 H 0.88142 0.91647 0.86463 0.0
H1261 H 0.82492 0.87382 0.90882 0.0
H1262 H 0.93764 0.91361 0.91304 0.0
H1263 H 0.00336 0.92041 0.90716 0.0
H1264 H 0.03274 0.86373 0.93133 0.0
H1265 H 0.96707 0.85645 0.93713 0.0
C1266 C 0.80885 0.88478 0.99183 0.0
C1267 C 0.82856 0.87272 1.00358 0.0
C1268 C 0.81871 0.8851 0.97443 0.0
C1269 C 0.8479 0.87296 0.96832 0.0
C1270 C 0.86741 0.86076 0.98008 0.0
C1271 C 0.85797 0.86072 0.99755 0.0
C1272 C 0.85904 0.87369 0.94985 0.0
C1273 C 0.8963 0.87726 0.9458 0.0
C1274 C 0.83307 0.87204 0.93629 0.0
C1275 C 0.79393 0.86652 0.93949 0.0
C1276 C 0.78488 0.84887 0.94894 0.0
C1277 C 0.74798 0.84381 0.95202 0.0
C1278 C 0.71985 0.85621 0.94561 0.0
C1279 C 0.72857 0.87367 0.93606 0.0
C1280 C 0.76542 0.87881 0.93296 0.0
C1281 C 0.92825 0.87213 0.87187 0.0
C1282 C 0.91609 0.88959 0.86302 0.0
C1283 C 0.91677 0.86848 0.88881 0.0
C1284 C 0.89254 0.88207 0.89704 0.0
C1285 C 0.87949 0.89915 0.88803 0.0
C1286 C 0.89143 0.90299 0.87122 0.0
C1287 C 0.88181 0.87898 0.91527 0.0
C1288 C 0.84474 0.87503 0.91921 0.0
C1289 C 0.90797 0.87993 0.92871 0.0
C1290 C 0.94744 0.88437 0.92533 0.0
C1291 C 0.95809 0.90251 0.91696 0.0
C1292 C 0.99533 0.90647 0.91367 0.0
C1293 C 0.02221 0.89248 0.91882 0.0
C1294 C 0.01189 0.87453 0.92732 0.0
C1295 C 0.97467 0.87048 0.93062 0.0
H1296 H 0.05103 0.89558 0.91627 0.0
H1297 H 0.6913 0.85227 0.94801 0.0
H1298 H 0.72778 0.61437 0.49247 0.0
H1299 H 0.70547 0.61275 0.46271 0.0
H1300 H 0.59727 0.63122 0.47968 0.0
H1301 H 0.61947 0.63298 0.50945 0.0
H1302 H 0.5979 0.59637 0.45779 0.0
H1303 H 0.64631 0.66478 0.45967 0.0
H1304 H 0.69378 0.69101 0.46512 0.0
H1305 H 0.76534 0.66265 0.42811 0.0
H1306 H 0.71849 0.63606 0.42262 0.0
H1307 H 0.5192 0.60896 0.37524 0.0
H1308 H 0.53983 0.61429 0.4049 0.0
H1309 H 0.6532 0.61084 0.38801 0.0
H1310 H 0.63237 0.60681 0.35821 0.0
H1311 H 0.64913 0.63877 0.41049 0.0
H1312 H 0.60292 0.56977 0.40886 0.0
H1313 H 0.55694 0.54264 0.40366 0.0
H1314 H 0.48373 0.57027 0.44035 0.0
H1315 H 0.52899 0.59775 0.44556 0.0
C1316 C 0.69927 0.61814 0.48982 0.0
C1317 C 0.67535 0.62384 0.50324 0.0
C1318 C 0.68663 0.6173 0.47284 0.0
C1319 C 0.64977 0.62193 0.46902 0.0
C1320 C 0.62582 0.62762 0.48239 0.0
C1321 C 0.63858 0.62875 0.49933 0.0
C1322 C 0.63599 0.62034 0.45112 0.0
C1323 C 0.60869 0.6058 0.44745 0.0
C1324 C 0.65087 0.63229 0.43763 0.0
C1325 C 0.67902 0.64831 0.44086 0.0
C1326 C 0.6723 0.66403 0.4528 0.0
C1327 C 0.69907 0.67898 0.45588 0.0
C1328 C 0.73259 0.67847 0.447 0.0
C1329 C 0.73938 0.66302 0.435 0.0
C1330 C 0.71271 0.64801 0.43188 0.0
C1331 C 0.54849 0.6094 0.37794 0.0
C1332 C 0.57428 0.60738 0.36457 0.0
C1333 C 0.56031 0.6123 0.39489 0.0
C1334 C 0.59815 0.6125 0.39885 0.0
C1335 C 0.62389 0.6107 0.38537 0.0
C1336 C 0.61204 0.60834 0.36836 0.0
C1337 C 0.611 0.61461 0.41697 0.0
C1338 C 0.63822 0.62926 0.42075 0.0
C1339 C 0.59634 0.60255 0.43054 0.0
C1340 C 0.56923 0.58593 0.42748 0.0
C1341 C 0.57691 0.57013 0.41573 0.0
C1342 C 0.55098 0.55469 0.41279 0.0
C1343 C 0.51741 0.55476 0.42165 0.0
C1344 C 0.50972 0.57025 0.43349 0.0
C1345 C 0.53551 0.58576 0.43644 0.0
H1346 H 0.49737 0.54279 0.41941 0.0
H1347 H 0.75328 0.69006 0.4494 0.0
H1348 H 0.3525 0.60754 0.01453 0.0
H1349 H 0.36252 0.61277 0.04538 0.0
H1350 H 0.31603 0.67321 0.04154 0.0
H1351 H 0.30643 0.6682 0.01064 0.0
H1352 H 0.37952 0.67261 0.061 0.0
H1353 H 0.26536 0.63514 0.05775 0.0
H1354 H 0.22507 0.60662 0.04893 0.0
H1355 H 0.29469 0.56423 0.07569 0.0
H1356 H 0.33572 0.59248 0.08447 0.0
H1357 H 0.34205 0.69266 0.14914 0.0
H1358 H 0.33663 0.6866 0.11813 0.0
H1359 H 0.38363 0.62658 0.12451 0.0
H1360 H 0.38892 0.63251 0.15557 0.0
H1361 H 0.32185 0.62615 0.10382 0.0
H1362 H 0.43616 0.66213 0.10677 0.0
H1363 H 0.47876 0.68964 0.11533 0.0
H1364 H 0.41111 0.73376 0.08945 0.0
H1365 H 0.36806 0.70642 0.08068 0.0
C1366 C 0.34469 0.62201 0.02023 0.0
C1367 C 0.32854 0.63743 0.01015 0.0
C1368 C 0.35019 0.62492 0.03788 0.0
C1369 C 0.3397 0.64331 0.04579 0.0
C1370 C 0.32422 0.65888 0.03571 0.0
C1371 C 0.3185 0.65593 0.01809 0.0
C1372 C 0.34458 0.6463 0.06461 0.0
C1373 C 0.36652 0.66261 0.07036 0.0
C1374 C 0.3285 0.6329 0.07683 0.0
C1375 C 0.30381 0.6159 0.07161 0.0
C1376 C 0.27225 0.61972 0.06163 0.0
C1377 C 0.24925 0.6036 0.05666 0.0
C1378 C 0.25737 0.58362 0.06171 0.0
C1379 C 0.28847 0.57971 0.07177 0.0
C1380 C 0.31159 0.59577 0.07676 0.0
C1381 C 0.35108 0.67814 0.14393 0.0
C1382 C 0.3659 0.66306 0.15478 0.0
C1383 C 0.34822 0.67475 0.12621 0.0
C1384 C 0.35996 0.65618 0.119 0.0
C1385 C 0.37448 0.64103 0.12981 0.0
C1386 C 0.37768 0.64448 0.14751 0.0
C1387 C 0.35656 0.65255 0.10019 0.0
C1388 C 0.33489 0.63612 0.09445 0.0
C1389 C 0.37308 0.66574 0.08797 0.0
C1390 C 0.39871 0.68227 0.09323 0.0
C1391 C 0.43021 0.67772 0.10302 0.0
C1392 C 0.45447 0.69328 0.10789 0.0
C1393 C 0.44753 0.71348 0.10306 0.0
C1394 C 0.41641 0.71812 0.09323 0.0
C1395 C 0.39212 0.70259 0.08826 0.0
H1396 H 0.46634 0.72551 0.10688 0.0
H1397 H 0.23952 0.57116 0.05785 0.0
H1398 H 0.14467 0.84412 0.50618 0.0
H1399 H 0.13122 0.84122 0.53675 0.0
H1400 H 0.2012 0.89318 0.54705 0.0
H1401 H 0.21747 0.89507 0.51667 0.0
H1402 H 0.21304 0.86729 0.57026 0.0
H1403 H 0.1019 0.89486 0.54758 0.0
H1404 H 0.04816 0.89739 0.52831 0.0
H1405 H 0.00907 0.83907 0.54601 0.0
H1406 H 0.06286 0.83605 0.56523 0.0
H1407 H 0.14878 0.87548 0.65689 0.0
H1408 H 0.15314 0.8847 0.62624 0.0
H1409 H 0.11539 0.82441 0.61226 0.0
H1410 H 0.11177 0.81508 0.64279 0.0
H1411 H 0.0851 0.85797 0.59166 0.0
H1412 H 0.20155 0.8308 0.61274 0.0
H1413 H 0.25451 0.8304 0.6326 0.0
H1414 H 0.28198 0.89191 0.6181 0.0
H1415 H 0.22877 0.89278 0.59835 0.0
C1416 C 0.15778 0.85477 0.51491 0.0
C1417 C 0.18224 0.86986 0.50876 0.0
C1418 C 0.14942 0.85333 0.53245 0.0
C1419 C 0.16445 0.86728 0.54429 0.0
C1420 C 0.18895 0.8823 0.53823 0.0
C1421 C 0.19791 0.88351 0.52073 0.0
C1422 C 0.15568 0.86573 0.56303 0.0
C1423 C 0.18494 0.86566 0.57488 0.0
C1424 C 0.11908 0.86339 0.56924 0.0
C1425 C 0.08659 0.86516 0.55775 0.0
C1426 C 0.08198 0.88251 0.54728 0.0
C1427 C 0.05149 0.88404 0.53638 0.0
C1428 C 0.02526 0.86838 0.53591 0.0
C1429 C 0.02943 0.85118 0.54638 0.0
C1430 C 0.05989 0.84956 0.55729 0.0
C1431 C 0.14062 0.86442 0.64724 0.0
C1432 C 0.12996 0.8446 0.6521 0.0
C1433 C 0.14324 0.86964 0.62979 0.0
C1434 C 0.13475 0.85519 0.61701 0.0
C1435 C 0.12195 0.83579 0.62191 0.0
C1436 C 0.11996 0.83047 0.63931 0.0
C1437 C 0.1424 0.85946 0.59859 0.0
C1438 C 0.11302 0.85993 0.5869 0.0
C1439 C 0.17876 0.86256 0.59252 0.0
C1440 C 0.21096 0.86194 0.60423 0.0
C1441 C 0.2187 0.8443 0.6139 0.0
C1442 C 0.24879 0.84397 0.62512 0.0
C1443 C 0.27154 0.86114 0.62665 0.0
C1444 C 0.2643 0.87864 0.61693 0.0
C1445 C 0.23419 0.87906 0.60572 0.0
H1446 H 0.29483 0.86086 0.63534 0.0
H1447 H 0.00168 0.86959 0.52745 0.0
H1448 H 0.13553 0.31298 0.37655 0.0
H1449 H 0.10539 0.28682 0.35893 0.0
H1450 H 0.21083 0.25871 0.34913 0.0
H1451 H 0.2412 0.28501 0.36643 0.0
H1452 H 0.17174 0.2643 0.3198 0.0
H1453 H 0.14866 0.23663 0.3763 0.0
H1454 H 0.12576 0.23674 0.40621 0.0
H1455 H 0.01595 0.24855 0.38824 0.0
H1456 H 0.03825 0.24874 0.35824 0.0
H1457 H 0.11143 0.17054 0.28317 0.0
H1458 H 0.13878 0.19628 0.30198 0.0
H1459 H 0.03223 0.22429 0.30877 0.0
H1460 H 0.00476 0.19897 0.28948 0.0
H1461 H 0.07011 0.21917 0.33959 0.0
H1462 H 0.09033 0.24778 0.28421 0.0
H1463 H 0.11072 0.25053 0.25403 0.0
H1464 H 0.22253 0.23923 0.26935 0.0
H1465 H 0.20274 0.23616 0.29964 0.0
C1466 C 0.15228 0.30121 0.37065 0.0
C1467 C 0.19078 0.30109 0.37288 0.0
C1468 C 0.13498 0.28616 0.36071 0.0
C1469 C 0.15582 0.2707 0.35281 0.0
C1470 C 0.19419 0.27044 0.35516 0.0
C1471 C 0.21148 0.28541 0.36515 0.0
C1472 C 0.13799 0.25542 0.34138 0.0
C1473 C 0.14996 0.25418 0.32422 0.0
C1474 C 0.10855 0.24278 0.34696 0.0
C1475 C 0.09521 0.24291 0.36503 0.0
C1476 C 0.11969 0.23945 0.37873 0.0
C1477 C 0.10679 0.23939 0.39571 0.0
C1478 C 0.06942 0.24267 0.39913 0.0
C1479 C 0.04488 0.246 0.38559 0.0
C1480 C 0.05763 0.24607 0.36859 0.0
C1481 C 0.09385 0.18232 0.2884 0.0
C1482 C 0.05603 0.1829 0.28447 0.0
C1483 C 0.10953 0.19699 0.29924 0.0
C1484 C 0.08759 0.21232 0.30663 0.0
C1485 C 0.04966 0.21264 0.30314 0.0
C1486 C 0.03406 0.19816 0.29207 0.0
C1487 C 0.1043 0.22789 0.31812 0.0
C1488 C 0.09204 0.22922 0.33523 0.0
C1489 C 0.1332 0.24079 0.31247 0.0
C1490 C 0.14499 0.24155 0.29419 0.0
C1491 C 0.1192 0.2456 0.28113 0.0
C1492 C 0.13067 0.24734 0.26401 0.0
C1493 C 0.16792 0.24517 0.2598 0.0
C1494 C 0.19371 0.24102 0.27266 0.0
C1495 C 0.18238 0.23926 0.2898 0.0
H1496 H 0.1768 0.24663 0.24654 0.0
H1497 H 0.05947 0.24258 0.41228 0.0
H1498 H 0.26351 0.2213 0.86607 0.0
H1499 H 0.29268 0.24735 0.84796 0.0
H1500 H 0.39866 0.21919 0.85609 0.0
H1501 H 0.3698 0.19334 0.8745 0.0
H1502 H 0.40256 0.26086 0.85819 0.0
H1503 H 0.35227 0.21072 0.81943 0.0
H1504 H 0.30347 0.18901 0.80699 0.0
H1505 H 0.24138 0.24242 0.7934 0.0
H1506 H 0.28959 0.26445 0.80599 0.0
H1507 H 0.4998 0.3015 0.78516 0.0
H1508 H 0.46974 0.27793 0.8053 0.0
H1509 H 0.36966 0.31318 0.80232 0.0
H1510 H 0.40023 0.33751 0.78321 0.0
H1511 H 0.36162 0.26883 0.79765 0.0
H1512 H 0.41185 0.31904 0.83547 0.0
H1513 H 0.45936 0.34111 0.84848 0.0
H1514 H 0.52016 0.28806 0.8642 0.0
H1515 H 0.47369 0.26573 0.85084 0.0
C1516 C 0.2931 0.22082 0.8642 0.0
C1517 C 0.31433 0.2052 0.87167 0.0
C1518 C 0.30967 0.23561 0.85373 0.0
C1519 C 0.34777 0.23505 0.8505 0.0
C1520 C 0.36919 0.21985 0.85835 0.0
C1521 C 0.35263 0.20501 0.86876 0.0
C1522 C 0.36524 0.25005 0.83867 0.0
C1523 C 0.39393 0.26241 0.8449 0.0
C1524 C 0.35333 0.25244 0.82143 0.0
C1525 C 0.32434 0.23922 0.81383 0.0
C1526 C 0.32806 0.21783 0.81392 0.0
C1527 C 0.30053 0.20547 0.80682 0.0
C1528 C 0.26929 0.21433 0.79945 0.0
C1529 C 0.26556 0.23558 0.79913 0.0
C1530 C 0.29298 0.24801 0.80625 0.0
C1531 C 0.47154 0.30436 0.78892 0.0
C1532 C 0.45225 0.32128 0.78236 0.0
C1533 C 0.45437 0.29083 0.80035 0.0
C1534 C 0.41746 0.2938 0.80519 0.0
C1535 C 0.39807 0.31055 0.7986 0.0
C1536 C 0.4155 0.32433 0.78753 0.0
C1537 C 0.39908 0.27943 0.81717 0.0
C1538 C 0.37023 0.26723 0.81095 0.0
C1539 C 0.41077 0.27724 0.83441 0.0
C1540 C 0.43947 0.29069 0.84196 0.0
C1541 C 0.43569 0.31208 0.84144 0.0
C1542 C 0.46242 0.32467 0.84891 0.0
C1543 C 0.49283 0.31604 0.85715 0.0
C1544 C 0.49672 0.2948 0.85779 0.0
C1545 C 0.47022 0.28216 0.85024 0.0
H1546 H 0.51319 0.32582 0.86311 0.0
H1547 H 0.24802 0.20473 0.79395 0.0
H1548 H 0.70538 0.18398 0.66494 0.0
H1549 H 0.67425 0.20955 0.68261 0.0
H1550 H 0.6648 0.24913 0.63842 0.0
H1551 H 0.69624 0.22357 0.62065 0.0
H1552 H 0.68538 0.27042 0.6659 0.0
H1553 H 0.59043 0.22171 0.65367 0.0
H1554 H 0.56172 0.18757 0.65209 0.0
H1555 H 0.57099 0.18116 0.70692 0.0
H1556 H 0.60024 0.21516 0.7088 0.0
H1557 H 0.5529 0.33794 0.70173 0.0
H1558 H 0.58567 0.313 0.68408 0.0
H1559 H 0.59613 0.27326 0.72812 0.0
H1560 H 0.56217 0.29795 0.74575 0.0
H1561 H 0.575 0.25225 0.70053 0.0
H1562 H 0.67207 0.30107 0.71225 0.0
H1563 H 0.70177 0.33503 0.71312 0.0
H1564 H 0.68629 0.34167 0.65867 0.0
H1565 H 0.65689 0.30765 0.65741 0.0
C1566 C 0.6964 0.19805 0.65893 0.0
C1567 C 0.70302 0.20167 0.64135 0.0
C1568 C 0.67862 0.21267 0.66906 0.0
C1569 C 0.66665 0.23115 0.6618 0.0
C1570 C 0.67373 0.23497 0.64431 0.0
C1571 C 0.69175 0.22038 0.63417 0.0
C1572 C 0.64697 0.24651 0.67251 0.0
C1573 C 0.66095 0.26651 0.6733 0.0
C1574 C 0.6155 0.24134 0.68244 0.0
C1575 C 0.59786 0.2209 0.68135 0.0
C1576 C 0.58661 0.21295 0.66538 0.0
C1577 C 0.5702 0.19364 0.66443 0.0
C1578 C 0.56462 0.18218 0.67939 0.0
C1579 C 0.57537 0.19004 0.69534 0.0
C1580 C 0.59184 0.20934 0.69635 0.0
C1581 C 0.56209 0.32387 0.70766 0.0
C1582 C 0.55499 0.31991 0.72514 0.0
C1583 C 0.58116 0.3097 0.69759 0.0
C1584 C 0.5939 0.29137 0.70482 0.0
C1585 C 0.58672 0.28734 0.72227 0.0
C1586 C 0.56747 0.30149 0.73235 0.0
C1587 C 0.61357 0.27612 0.69402 0.0
C1588 C 0.59949 0.25614 0.69318 0.0
C1589 C 0.64481 0.28134 0.68397 0.0
C1590 C 0.66202 0.3019 0.68477 0.0
C1591 C 0.67476 0.30983 0.70049 0.0
C1592 C 0.69158 0.32907 0.70105 0.0
C1593 C 0.69564 0.34055 0.686 0.0
C1594 C 0.68306 0.33277 0.67033 0.0
C1595 C 0.66648 0.31348 0.66966 0.0
H1596 H 0.70872 0.35542 0.68648 0.0
H1597 H 0.5519 0.16723 0.67863 0.0
H1598 H 0.82276 0.27814 0.11681 0.0
H1599 H 0.85473 0.25223 0.13392 0.0
H1600 H 0.84743 0.29105 0.17867 0.0
H1601 H 0.81557 0.31696 0.16168 0.0
H1602 H 0.91492 0.27541 0.17566 0.0
H1603 H 0.79071 0.24936 0.17336 0.0
H1604 H 0.73364 0.23779 0.15913 0.0
H1605 H 0.79382 0.19051 0.13309 0.0
H1606 H 0.85137 0.20198 0.14698 0.0
H1607 H 0.95376 0.20563 0.24224 0.0
H1608 H 0.92443 0.22988 0.22275 0.0
H1609 H 0.9379 0.18754 0.18066 0.0
H1610 H 0.96662 0.1629 0.20024 0.0
H1611 H 0.86963 0.20406 0.18079 0.0
H1612 H 0.99348 0.22989 0.18273 0.0
H1613 H 0.05105 0.24148 0.19649 0.0
H1614 H 0.9917 0.28852 0.22325 0.0
H1615 H 0.93378 0.27732 0.20949 0.0
C1616 C 0.8277 0.28106 0.13033 0.0
C1617 C 0.81667 0.29961 0.13789 0.0
C1618 C 0.84599 0.26626 0.14009 0.0
C1619 C 0.85323 0.26963 0.15762 0.0
C1620 C 0.84227 0.28814 0.16516 0.0
C1621 C 0.82415 0.30296 0.15542 0.0
C1622 C 0.87262 0.25405 0.16813 0.0
C1623 C 0.90476 0.25987 0.17692 0.0
C1624 C 0.86001 0.2336 0.1694 0.0
C1625 C 0.82542 0.22667 0.16106 0.0
C1626 C 0.79183 0.2366 0.16449 0.0
C1627 C 0.75939 0.23004 0.1565 0.0
C1628 C 0.76012 0.21346 0.14517 0.0
C1629 C 0.7933 0.20337 0.14184 0.0
C1630 C 0.82583 0.20988 0.14978 0.0
C1631 C 0.9504 0.20143 0.22884 0.0
C1632 C 0.96234 0.18231 0.22278 0.0
C1633 C 0.93388 0.21538 0.21769 0.0
C1634 C 0.92935 0.21062 0.2002 0.0
C1635 C 0.9412 0.19153 0.1941 0.0
C1636 C 0.95774 0.17753 0.20528 0.0
C1637 C 0.91164 0.22551 0.18843 0.0
C1638 C 0.87987 0.21957 0.17942 0.0
C1639 C 0.92457 0.24585 0.18692 0.0
C1640 C 0.95929 0.25267 0.19519 0.0
C1641 C 0.99269 0.24264 0.19162 0.0
C1642 C 0.02538 0.24915 0.1994 0.0
C1643 C 0.025 0.26562 0.21085 0.0
C1644 C 0.99195 0.27573 0.21441 0.0
C1645 C 0.95921 0.26938 0.20656 0.0
H1646 H 0.05033 0.27059 0.2169 0.0
H1647 H 0.73497 0.20841 0.139 0.0
H1648 H 0.87664 0.69175 0.62955 0.0
H1649 H 0.90974 0.71747 0.64642 0.0
H1650 H 0.80617 0.74308 0.66312 0.0
H1651 H 0.77292 0.71781 0.64591 0.0
H1652 H 0.85548 0.77273 0.65482 0.0
H1653 H 0.85465 0.71095 0.68899 0.0
H1654 H 0.86672 0.67446 0.69454 0.0
H1655 H 0.98243 0.68416 0.68593 0.0
H1656 H 0.97096 0.72067 0.6801 0.0
H1657 H 0.90799 0.83014 0.72684 0.0
H1658 H 0.88068 0.80517 0.70758 0.0
H1659 H 0.98826 0.77965 0.6976 0.0
H1660 H 0.01559 0.80381 0.71795 0.0
H1661 H 0.9407 0.75008 0.7009 0.0
H1662 H 0.94293 0.81211 0.66834 0.0
H1663 H 0.93161 0.84872 0.66302 0.0
H1664 H 0.81499 0.83889 0.66802 0.0
H1665 H 0.82563 0.80226 0.67362 0.0
C1666 C 0.86092 0.70304 0.63662 0.0
C1667 C 0.82213 0.70266 0.63646 0.0
C1668 C 0.87987 0.71762 0.64638 0.0
C1669 C 0.86041 0.73203 0.65621 0.0
C1670 C 0.82174 0.73206 0.65569 0.0
C1671 C 0.80278 0.71749 0.64595 0.0
C1672 C 0.88017 0.74683 0.66739 0.0
C1673 C 0.87389 0.76779 0.66499 0.0
C1674 C 0.90498 0.7404 0.68034 0.0
C1675 C 0.91189 0.71848 0.68393 0.0
C1676 C 0.88262 0.70526 0.68815 0.0
C1677 C 0.88936 0.68458 0.69137 0.0
C1678 C 0.9253 0.67698 0.69054 0.0
C1679 C 0.9546 0.69006 0.68654 0.0
C1680 C 0.948 0.71075 0.68329 0.0
C1681 C 0.92587 0.81901 0.72086 0.0
C1682 C 0.96395 0.81882 0.72423 0.0
C1683 C 0.91023 0.8049 0.70957 0.0
C1684 C 0.93245 0.79072 0.70085 0.0
C1685 C 0.97053 0.79047 0.70413 0.0
C1686 C 0.98613 0.80437 0.71573 0.0
C1687 C 0.91578 0.77605 0.68847 0.0
C1688 C 0.92261 0.75509 0.69063 0.0
C1689 C 0.89165 0.7825 0.67521 0.0
C1690 C 0.88511 0.80445 0.67151 0.0
C1691 C 0.91488 0.81777 0.66838 0.0
C1692 C 0.90858 0.83853 0.66532 0.0
C1693 C 0.87261 0.84613 0.66521 0.0
C1694 C 0.84284 0.83298 0.66811 0.0
C1695 C 0.84898 0.81221 0.6712 0.0
H1696 H 0.86779 0.86221 0.66285 0.0
H1697 H 0.93047 0.66097 0.69303 0.0
H1698 H 0.67954 0.82602 0.16509 0.0
H1699 H 0.64988 0.79991 0.18284 0.0
H1700 H 0.64527 0.75938 0.13911 0.0
H1701 H 0.67509 0.78549 0.12122 0.0
H1702 H 0.58192 0.75763 0.15803 0.0
H1703 H 0.71202 0.75387 0.16887 0.0
H1704 H 0.77337 0.76728 0.1766 0.0
H1705 H 0.73236 0.78537 0.22618 0.0
H1706 H 0.67058 0.77233 0.21864 0.0
H1707 H 0.55738 0.66437 0.20289 0.0
H1708 H 0.58218 0.69191 0.18509 0.0
H1709 H 0.58474 0.73172 0.22933 0.0
H1710 H 0.55958 0.70421 0.24722 0.0
H1711 H 0.64792 0.73427 0.21036 0.0
H1712 H 0.51787 0.73612 0.19979 0.0
H1713 H 0.45767 0.72111 0.19215 0.0
H1714 H 0.49891 0.70574 0.14199 0.0
H1715 H 0.55961 0.72022 0.14943 0.0
C1716 C 0.67228 0.81154 0.15924 0.0
C1717 C 0.68009 0.80774 0.14178 0.0
C1718 C 0.65524 0.79665 0.16939 0.0
C1719 C 0.64588 0.77757 0.16237 0.0
C1720 C 0.65231 0.77399 0.1448 0.0
C1721 C 0.6693 0.78893 0.13459 0.0
C1722 C 0.63069 0.76115 0.17354 0.0
C1723 C 0.59651 0.75236 0.16937 0.0
C1724 C 0.64942 0.75454 0.18853 0.0
C1725 C 0.68658 0.76232 0.19312 0.0
C1726 C 0.71601 0.76086 0.18137 0.0
C1727 C 0.75087 0.76837 0.18572 0.0
C1728 C 0.75674 0.77722 0.20185 0.0
C1729 C 0.72776 0.77853 0.21368 0.0
C1730 C 0.69282 0.77108 0.20938 0.0
C1731 C 0.56314 0.679 0.20885 0.0
C1732 C 0.5567 0.6821 0.22651 0.0
C1733 C 0.57726 0.69473 0.19864 0.0
C1734 C 0.58492 0.71394 0.20584 0.0
C1735 C 0.57902 0.71701 0.22351 0.0
C1736 C 0.5648 0.70126 0.23374 0.0
C1737 C 0.59915 0.73077 0.19488 0.0
C1738 C 0.63321 0.73961 0.19908 0.0
C1739 C 0.58031 0.73736 0.17992 0.0
C1740 C 0.54346 0.72911 0.17523 0.0
C1741 C 0.5142 0.72942 0.18716 0.0
C1742 C 0.47996 0.72099 0.18286 0.0
C1743 C 0.47448 0.71242 0.1666 0.0
C1744 C 0.50319 0.71234 0.15458 0.0
C1745 C 0.53752 0.72066 0.15883 0.0
H1746 H 0.44798 0.70586 0.1633 0.0
H1747 H 0.78376 0.78302 0.2052 0.0
H1748 H 0.33052 0.78305 0.38712 0.0
H1749 H 0.36256 0.75865 0.36854 0.0
H1750 H 0.32767 0.79227 0.32373 0.0
H1751 H 0.29625 0.81697 0.34217 0.0
H1752 H 0.31679 0.75104 0.32 0.0
H1753 H 0.41505 0.79592 0.33726 0.0
H1754 H 0.4541 0.81459 0.35793 0.0
H1755 H 0.48797 0.75786 0.38067 0.0
H1756 H 0.44869 0.73884 0.36028 0.0
H1757 H 0.43226 0.69993 0.2596 0.0
H1758 H 0.40197 0.72598 0.27721 0.0
H1759 H 0.44161 0.69654 0.32326 0.0
H1760 H 0.47236 0.67072 0.30585 0.0
H1761 H 0.45041 0.73652 0.3258 0.0
H1762 H 0.35023 0.69174 0.31105 0.0
H1763 H 0.31022 0.67196 0.29155 0.0
H1764 H 0.28004 0.72705 0.26508 0.0
H1765 H 0.3198 0.74718 0.28452 0.0
C1766 C 0.33001 0.78543 0.37333 0.0
C1767 C 0.31069 0.80201 0.36618 0.0
C1768 C 0.34825 0.77141 0.36272 0.0
C1769 C 0.34767 0.77369 0.34474 0.0
C1770 C 0.32836 0.79016 0.33756 0.0
C1771 C 0.31025 0.80422 0.34814 0.0
C1772 C 0.36684 0.7588 0.33341 0.0
C1773 C 0.34612 0.74809 0.3211 0.0
C1774 C 0.40492 0.75457 0.33511 0.0
C1775 C 0.42864 0.76597 0.34735 0.0
C1776 C 0.43059 0.78743 0.34676 0.0
C1777 C 0.45281 0.79808 0.35841 0.0
C1778 C 0.47343 0.78742 0.37063 0.0
C1779 C 0.47194 0.76609 0.37121 0.0
C1780 C 0.44973 0.75537 0.3596 0.0
C1781 C 0.4345 0.69897 0.27347 0.0
C1782 C 0.45466 0.68313 0.28127 0.0
C1783 C 0.41704 0.71384 0.28354 0.0
C1784 C 0.41917 0.71311 0.3016 0.0
C1785 C 0.43956 0.69745 0.30937 0.0
C1786 C 0.45706 0.68263 0.29935 0.0
C1787 C 0.40033 0.72867 0.31245 0.0
C1788 C 0.42111 0.73952 0.32466 0.0
C1789 C 0.36225 0.7329 0.31078 0.0
C1790 C 0.33823 0.72092 0.29911 0.0
C1791 C 0.33521 0.69961 0.301 0.0
C1792 C 0.31254 0.68835 0.28998 0.0
C1793 C 0.29279 0.69822 0.27699 0.0
C1794 C 0.29543 0.71942 0.27511 0.0
C1795 C 0.31792 0.73077 0.28617 0.0
H1796 H 0.27535 0.68945 0.26844 0.0
H1797 H 0.49062 0.79569 0.37964 0.0
H1798 H 0.20403 0.68056 0.84519 0.0
H1799 H 0.17336 0.70626 0.8275 0.0
H1800 H 0.15692 0.744 0.87235 0.0
H1801 H 0.18807 0.71846 0.89015 0.0
H1802 H 0.09492 0.74199 0.85191 0.0
H1803 H 0.2247 0.75527 0.84451 0.0
H1804 H 0.28904 0.7462 0.83764 0.0
H1805 H 0.25678 0.72864 0.78658 0.0
H1806 H 0.19213 0.73734 0.79322 0.0
H1807 H 0.04672 0.83316 0.80862 0.0
H1808 H 0.07728 0.80784 0.82671 0.0
H1809 H 0.10446 0.77236 0.78163 0.0
H1810 H 0.07495 0.798 0.7634 0.0
H1811 H 0.161 0.77318 0.80244 0.0
H1812 H 0.032 0.75951 0.80911 0.0
H1813 H 0.96725 0.76833 0.81529 0.0
H1814 H 0.99663 0.78547 0.86683 0.0
H1815 H 0.06171 0.77708 0.86086 0.0
C1816 C 0.19419 0.69439 0.85129 0.0
C1817 C 0.19882 0.69751 0.86908 0.0
C1818 C 0.17653 0.70904 0.84116 0.0
C1819 C 0.16323 0.72715 0.84857 0.0
C1820 C 0.16697 0.73012 0.86637 0.0
C1821 C 0.1847 0.71548 0.87653 0.0
C1822 C 0.14589 0.74309 0.83768 0.0
C1823 C 0.10949 0.74902 0.84123 0.0
C1824 C 0.16461 0.75186 0.82347 0.0
C1825 C 0.20352 0.74678 0.81942 0.0
C1826 C 0.23128 0.74934 0.83185 0.0
C1827 C 0.26781 0.74428 0.828 0.0
C1828 C 0.27697 0.7368 0.8117 0.0
C1829 C 0.24963 0.73441 0.79921 0.0
C1830 C 0.21305 0.73942 0.80301 0.0
C1831 C 0.05916 0.81995 0.80255 0.0
C1832 C 0.0582 0.81751 0.78459 0.0
C1833 C 0.07653 0.80544 0.81292 0.0
C1834 C 0.09263 0.78798 0.80558 0.0
C1835 C 0.09218 0.78568 0.78761 0.0
C1836 C 0.07522 0.80032 0.7772 0.0
C1837 C 0.10991 0.7721 0.81661 0.0
C1838 C 0.14633 0.76617 0.8131 0.0
C1839 C 0.09106 0.76319 0.83075 0.0
C1840 C 0.0518 0.76782 0.83449 0.0
C1841 C 0.02469 0.76526 0.82173 0.0
C1842 C 0.98793 0.77019 0.82519 0.0
C1843 C 0.97784 0.77749 0.84143 0.0
C1844 C 0.00449 0.77982 0.85425 0.0
C1845 C 0.04132 0.77497 0.85084 0.0
H1846 H 0.94937 0.78131 0.84408 0.0
H1847 H 0.30527 0.73289 0.80874 0.0
loop_
_geom_bond_atom_site_label_1
_geom_bond_atom_site_label_2
_geom_bond_distance
_geom_bond_site_symmetry_2
_ccdc_geom_bond_type
C0 C1 1.386 . S
C0 C2 1.397 . S
C0 H24 0.931 . S
C1 C0 1.386 . S
C1 C5 1.397 . S
C2 C0 1.397 . S
C2 C3 1.384 . S
C2 H25 0.930 . S
C3 C2 1.384 . S
C3 C4 1.377 . S
C3 C6 1.481 . S
C4 C3 1.377 . S
C4 C5 1.389 . S
C4 H26 0.929 . S
C5 C1 1.397 . S
C5 C4 1.389 . S
C5 H27 0.931 . S
C6 C3 1.481 . S
C6 C7 1.387 . S
C6 C11 1.390 . S
C7 C6 1.387 . S
C7 C8 1.401 . S
C7 H28 0.930 . S
C8 C7 1.401 . S
C8 C9 1.376 . S
C8 C17 1.511 . S
C9 C8 1.376 . S
C9 C10 1.392 . S
C9 H30 0.931 . S
C10 C9 1.392 . S
C10 C11 1.361 . S
C10 C12 1.500 . S
C11 C6 1.390 . S
C11 C10 1.361 . S
C11 H29 0.931 . S
C12 C10 1.500 . S
C12 C13 1.371 . S
C12 C14 1.365 . S
C13 C12 1.371 . S
C13 C23 1.386 . S
C13 H31 0.931 . S
C14 C12 1.365 . S
C14 C15 1.409 . S
C14 H32 0.929 . S
C15 C14 1.409 . S
C15 C16 1.380 . S
C15 H33 0.930 . S
C16 C15 1.380 . S
C16 C23 1.357 . S
C17 C8 1.511 . S
C17 C18 1.341 . S
C17 C19 1.371 . S
C18 C17 1.341 . S
C18 C22 1.394 . S
C18 H34 0.930 . S
C19 C17 1.371 . S
C19 C20 1.392 . S
C19 H35 0.931 . S
C20 C19 1.392 . S
C20 C21 1.331 . S
C20 H38 0.932 . S
C21 C20 1.331 . S
C21 C22 1.336 . S
C22 C18 1.394 . S
C22 C21 1.336 . S
C22 H37 0.929 . S
C23 C13 1.386 . S
C23 C16 1.357 . S
C23 H36 0.928 . S
H24 C0 0.931 . S
H25 C2 0.930 . S
H26 C4 0.929 . S
H27 C5 0.931 . S
H28 C7 0.930 . S
H29 C11 0.931 . S
H30 C9 0.931 . S
H31 C13 0.931 . S
H32 C14 0.929 . S
H33 C15 0.930 . S
H34 C18 0.930 . S
H35 C19 0.931 . S
H36 C23 0.928 . S
H37 C22 0.929 . S
H38 C20 0.932 . S
C39 C40 1.386 . S
C39 C41 1.397 . S
C39 H63 0.931 . S
C40 C39 1.386 . S
C40 C44 1.397 . S
C41 C39 1.397 . S
C41 C42 1.384 . S
C41 H64 0.930 . S
C42 C41 1.384 . S
C42 C43 1.377 . S
C42 C45 1.481 . S
C43 C42 1.377 . S
C43 C44 1.389 . S
C43 H65 0.929 . S
C44 C40 1.397 . S
C44 C43 1.389 . S
C44 H66 0.931 . S
C45 C42 1.481 . S
C45 C46 1.387 . S
C45 C50 1.390 . S
C46 C45 1.387 . S
C46 C47 1.401 . S
C46 H67 0.930 . S
C47 C46 1.401 . S
C47 C48 1.376 . S
C47 C56 1.511 . S
C48 C47 1.376 . S
C48 C49 1.392 . S
C48 H69 0.931 . S
C49 C48 1.392 . S
C49 C50 1.361 . S
C49 C51 1.500 . S
C50 C45 1.390 . S
C50 C49 1.361 . S
C50 H68 0.931 . S
C51 C49 1.500 . S
C51 C52 1.371 . S
C51 C53 1.365 . S
C52 C51 1.371 . S
C52 C62 1.386 . S
C52 H70 0.931 . S
C53 C51 1.365 . S
C53 C54 1.409 . S
C53 H71 0.929 . S
C54 C53 1.409 . S
C54 C55 1.380 . S
C54 H72 0.930 . S
C55 C54 1.380 . S
C55 C62 1.357 . S
C56 C47 1.511 . S
C56 C57 1.341 . S
C56 C58 1.371 . S
C57 C56 1.341 . S
C57 C61 1.394 . S
C57 H73 0.930 . S
C58 C56 1.371 . S
C58 C59 1.392 . S
C58 H74 0.931 . S
C59 C58 1.392 . S
C59 C60 1.331 . S
C59 H77 0.932 . S
C60 C59 1.331 . S
C60 C61 1.336 . S
C61 C57 1.394 . S
C61 C60 1.336 . S
C61 H76 0.929 . S
C62 C52 1.386 . S
C62 C55 1.357 . S
C62 H75 0.928 . S
H63 C39 0.931 . S
H64 C41 0.930 . S
H65 C43 0.929 . S
H66 C44 0.931 . S
H67 C46 0.930 . S
H68 C50 0.931 . S
H69 C48 0.931 . S
H70 C52 0.931 . S
H71 C53 0.929 . S
H72 C54 0.930 . S
H73 C57 0.930 . S
H74 C58 0.931 . S
H75 C62 0.928 . S
H76 C61 0.929 . S
H77 C59 0.932 . S
C78 C79 1.386 . S
C78 C80 1.397 . S
C78 H102 0.931 . S
C79 C78 1.386 . S
C79 C83 1.397 . S
C80 C78 1.397 . S
C80 C81 1.384 . S
C80 H103 0.930 . S
C81 C80 1.384 . S
C81 C82 1.377 . S
C81 C84 1.481 . S
C82 C81 1.377 . S
C82 C83 1.389 . S
C82 H104 0.929 . S
C83 C79 1.397 . S
C83 C82 1.389 . S
C83 H105 0.931 . S
C84 C81 1.481 . S
C84 C85 1.387 . S
C84 C89 1.390 . S
C85 C84 1.387 . S
C85 C86 1.401 . S
C85 H106 0.930 . S
C86 C85 1.401 . S
C86 C87 1.376 . S
C86 C95 1.511 . S
C87 C86 1.376 . S
C87 C88 1.392 . S
C87 H108 0.931 . S
C88 C87 1.392 . S
C88 C89 1.361 . S
C88 C90 1.500 . S
C89 C84 1.390 . S
C89 C88 1.361 . S
C89 H107 0.931 . S
C90 C88 1.500 . S
C90 C91 1.371 . S
C90 C92 1.365 . S
C91 C90 1.371 . S
C91 C101 1.386 . S
C91 H109 0.931 . S
C92 C90 1.365 . S
C92 C93 1.409 . S
C92 H110 0.929 . S
C93 C92 1.409 . S
C93 C94 1.380 . S
C93 H111 0.930 . S
C94 C93 1.380 . S
C94 C101 1.357 . S
C95 C86 1.511 . S
C95 C96 1.341 . S
C95 C97 1.371 . S
C96 C95 1.341 . S
C96 C100 1.394 . S
C96 H112 0.930 . S
C97 C95 1.371 . S
C97 C98 1.392 . S
C97 H113 0.931 . S
C98 C97 1.392 . S
C98 C99 1.331 . S
C98 H116 0.932 . S
C99 C98 1.331 . S
C99 C100 1.336 . S
C100 C96 1.394 . S
C100 C99 1.336 . S
C100 H115 0.929 . S
C101 C91 1.386 . S
C101 C94 1.357 . S
C101 H114 0.928 . S
H102 C78 0.931 . S
H103 C80 0.930 . S
H104 C82 0.929 . S
H105 C83 0.931 . S
H106 C85 0.930 . S
H107 C89 0.931 . S
H108 C87 0.931 . S
H109 C91 0.931 . S
H110 C92 0.929 . S
H111 C93 0.930 . S
H112 C96 0.930 . S
H113 C97 0.931 . S
H114 C101 0.928 . S
H115 C100 0.929 . S
H116 C98 0.932 . S
C117 C118 1.386 . S
C117 C119 1.397 . S
C117 H141 0.931 . S
C118 C117 1.386 . S
C118 C122 1.397 . S
C119 C117 1.397 . S
C119 C120 1.384 . S
C119 H142 0.930 . S
C120 C119 1.384 . S
C120 C121 1.377 . S
C120 C123 1.481 . S
C121 C120 1.377 . S
C121 C122 1.389 . S
C121 H143 0.929 . S
C122 C118 1.397 . S
C122 C121 1.389 . S
C122 H144 0.931 . S
C123 C120 1.481 . S
C123 C124 1.387 . S
C123 C128 1.390 . S
C124 C123 1.387 . S
C124 C125 1.401 . S
C124 H145 0.930 . S
C125 C124 1.401 . S
C125 C126 1.376 . S
C125 C134 1.511 . S
C126 C125 1.376 . S
C126 C127 1.392 . S
C126 H147 0.931 . S
C127 C126 1.392 . S
C127 C128 1.361 . S
C127 C129 1.500 . S
C128 C123 1.390 . S
C128 C127 1.361 . S
C128 H146 0.931 . S
C129 C127 1.500 . S
C129 C130 1.371 . S
C129 C131 1.365 . S
C130 C129 1.371 . S
C130 C140 1.386 . S
C130 H148 0.931 . S
C131 C129 1.365 . S
C131 C132 1.409 . S
C131 H149 0.929 . S
C132 C131 1.409 . S
C132 C133 1.380 . S
C132 H150 0.930 . S
C133 C132 1.380 . S
C133 C140 1.357 . S
C134 C125 1.511 . S
C134 C135 1.341 . S
C134 C136 1.371 . S
C135 C134 1.341 . S
C135 C139 1.394 . S
C135 H151 0.930 . S
C136 C134 1.371 . S
C136 C137 1.392 . S
C136 H152 0.931 . S
C137 C136 1.392 . S
C137 C138 1.331 . S
C137 H155 0.932 . S
C138 C137 1.331 . S
C138 C139 1.336 . S
C139 C135 1.394 . S
C139 C138 1.336 . S
C139 H154 0.929 . S
C140 C130 1.386 . S
C140 C133 1.357 . S
C140 H153 0.928 . S
H141 C117 0.931 . S
H142 C119 0.930 . S
H143 C121 0.929 . S
H144 C122 0.931 . S
H145 C124 0.930 . S
H146 C128 0.931 . S
H147 C126 0.931 . S
H148 C130 0.931 . S
H149 C131 0.929 . S
H150 C132 0.930 . S
H151 C135 0.930 . S
H152 C136 0.931 . S
H153 C140 0.928 . S
H154 C139 0.929 . S
H155 C137 0.932 . S
C156 C157 1.386 . S
C156 C158 1.397 . S
C156 H180 0.931 . S
C157 C156 1.386 . S
C157 C161 1.397 . S
C158 C156 1.397 . S
C158 C159 1.384 . S
C158 H181 0.930 . S
C159 C158 1.384 . S
C159 C160 1.377 . S
C159 C162 1.481 . S
C160 C159 1.377 . S
C160 C161 1.389 . S
C160 H182 0.929 . S
C161 C157 1.397 . S
C161 C160 1.389 . S
C161 H183 0.931 . S
C162 C159 1.481 . S
C162 C163 1.387 . S
C162 C167 1.390 . S
C163 C162 1.387 . S
C163 C164 1.401 . S
C163 H184 0.930 . S
C164 C163 1.401 . S
C164 C165 1.376 . S
C164 C173 1.511 . S
C165 C164 1.376 . S
C165 C166 1.392 . S
C165 H186 0.931 . S
C166 C165 1.392 . S
C166 C167 1.361 . S
C166 C168 1.500 . S
C167 C162 1.390 . S
C167 C166 1.361 . S
C167 H185 0.931 . S
C168 C166 1.500 . S
C168 C169 1.371 . S
C168 C170 1.365 . S
C169 C168 1.371 . S
C169 C179 1.386 . S
C169 H187 0.931 . S
C170 C168 1.365 . S
C170 C171 1.409 . S
C170 H188 0.929 . S
C171 C170 1.409 . S
C171 C172 1.380 . S
C171 H189 0.930 . S
C172 C171 1.380 . S
C172 C179 1.357 . S
C173 C164 1.511 . S
C173 C174 1.341 . S
C173 C175 1.371 . S
C174 C173 1.341 . S
C174 C178 1.394 . S
C174 H190 0.930 . S
C175 C173 1.371 . S
C175 C176 1.392 . S
C175 H191 0.931 . S
C176 C175 1.392 . S
C176 C177 1.331 . S
C176 H194 0.932 . S
C177 C176 1.331 . S
C177 C178 1.336 . S
C178 C174 1.394 . S
C178 C177 1.336 . S
C178 H193 0.929 . S
C179 C169 1.386 . S
C179 C172 1.357 . S
C179 H192 0.928 . S
H180 C156 0.931 . S
H181 C158 0.930 . S
H182 C160 0.929 . S
H183 C161 0.931 . S
H184 C163 0.930 . S
H185 C167 0.931 . S
H186 C165 0.931 . S
H187 C169 0.931 . S
H188 C170 0.929 . S
H189 C171 0.930 . S
H190 C174 0.930 . S
H191 C175 0.931 . S
H192 C179 0.928 . S
H193 C178 0.929 . S
H194 C176 0.932 . S
C195 C196 1.386 . S
C195 C197 1.397 . S
C195 H219 0.931 . S
C196 C195 1.386 . S
C196 C200 1.397 . S
C197 C195 1.397 . S
C197 C198 1.384 . S
C197 H220 0.930 . S
C198 C197 1.384 . S
C198 C199 1.377 . S
C198 C201 1.481 . S
C199 C198 1.377 . S
C199 C200 1.389 . S
C199 H221 0.929 . S
C200 C196 1.397 . S
C200 C199 1.389 . S
C200 H222 0.931 . S
C201 C198 1.481 . S
C201 C202 1.387 . S
C201 C206 1.390 . S
C202 C201 1.387 . S
C202 C203 1.401 . S
C202 H223 0.930 . S
C203 C202 1.401 . S
C203 C204 1.376 . S
C203 C212 1.511 . S
C204 C203 1.376 . S
C204 C205 1.392 . S
C204 H225 0.931 . S
C205 C204 1.392 . S
C205 C206 1.361 . S
C205 C207 1.500 . S
C206 C201 1.390 . S
C206 C205 1.361 . S
C206 H224 0.931 . S
C207 C205 1.500 . S
C207 C208 1.371 . S
C207 C209 1.365 . S
C208 C207 1.371 . S
C208 C218 1.386 . S
C208 H226 0.931 . S
C209 C207 1.365 . S
C209 C210 1.409 . S
C209 H227 0.929 . S
C210 C209 1.409 . S
C210 C211 1.380 . S
C210 H228 0.930 . S
C211 C210 1.380 . S
C211 C218 1.357 . S
C212 C203 1.511 . S
C212 C213 1.341 . S
C212 C214 1.371 . S
C213 C212 1.341 . S
C213 C217 1.394 . S
C213 H229 0.930 . S
C214 C212 1.371 . S
C214 C215 1.392 . S
C214 H230 0.931 . S
C215 C214 1.392 . S
C215 C216 1.331 . S
C215 H233 0.932 . S
C216 C215 1.331 . S
C216 C217 1.336 . S
C217 C213 1.394 . S
C217 C216 1.336 . S
C217 H232 0.929 . S
C218 C208 1.386 . S
C218 C211 1.357 . S
C218 H231 0.928 . S
H219 C195 0.931 . S
H220 C197 0.930 . S
H221 C199 0.929 . S
H222 C200 0.931 . S
H223 C202 0.930 . S
H224 C206 0.931 . S
H225 C204 0.931 . S
H226 C208 0.931 . S
H227 C209 0.929 . S
H228 C210 0.930 . S
H229 C213 0.930 . S
H230 C214 0.931 . S
H231 C218 0.928 . S
H232 C217 0.929 . S
H233 C215 0.932 . S
C234 C235 1.386 . S
C234 C236 1.397 . S
C234 H258 0.931 . S
C235 C234 1.386 . S
C235 C239 1.397 . S
C236 C234 1.397 . S
C236 C237 1.384 . S
C236 H259 0.930 . S
C237 C236 1.384 . S
C237 C238 1.377 . S
C237 C240 1.481 . S
C238 C237 1.377 . S
C238 C239 1.389 . S
C238 H260 0.929 . S
C239 C235 1.397 . S
C239 C238 1.389 . S
C239 H261 0.931 . S
C240 C237 1.481 . S
C240 C241 1.387 . S
C240 C245 1.390 . S
C241 C240 1.387 . S
C241 C242 1.401 . S
C241 H262 0.930 . S
C242 C241 1.401 . S
C242 C243 1.376 . S
C242 C251 1.511 . S
C243 C242 1.376 . S
C243 C244 1.392 . S
C243 H264 0.931 . S
C244 C243 1.392 . S
C244 C245 1.361 . S
C244 C246 1.500 . S
C245 C240 1.390 . S
C245 C244 1.361 . S
C245 H263 0.931 . S
C246 C244 1.500 . S
C246 C247 1.371 . S
C246 C248 1.365 . S
C247 C246 1.371 . S
C247 C257 1.386 . S
C247 H265 0.931 . S
C248 C246 1.365 . S
C248 C249 1.409 . S
C248 H266 0.929 . S
C249 C248 1.409 . S
C249 C250 1.380 . S
C249 H267 0.930 . S
C250 C249 1.380 . S
C250 C257 1.357 . S
C251 C242 1.511 . S
C251 C252 1.341 . S
C251 C253 1.371 . S
C252 C251 1.341 . S
C252 C256 1.394 . S
C252 H268 0.930 . S
C253 C251 1.371 . S
C253 C254 1.392 . S
C253 H269 0.931 . S
C254 C253 1.392 . S
C254 C255 1.331 . S
C254 H272 0.932 . S
C255 C254 1.331 . S
C255 C256 1.336 . S
C256 C252 1.394 . S
C256 C255 1.336 . S
C256 H271 0.929 . S
C257 C247 1.386 . S
C257 C250 1.357 . S
C257 H270 0.928 . S
H258 C234 0.931 . S
H259 C236 0.930 . S
H260 C238 0.929 . S
H261 C239 0.931 . S
H262 C241 0.930 . S
H263 C245 0.931 . S
H264 C243 0.931 . S
H265 C247 0.931 . S
H266 C248 0.929 . S
H267 C249 0.930 . S
H268 C252 0.930 . S
H269 C253 0.931 . S
H270 C257 0.928 . S
H271 C256 0.929 . S
H272 C254 0.932 . S
C273 C274 1.386 . S
C273 C275 1.397 . S
C273 H297 0.931 . S
C274 C273 1.386 . S
C274 C278 1.397 . S
C275 C273 1.397 . S
C275 C276 1.384 . S
C275 H298 0.930 . S
C276 C275 1.384 . S
C276 C277 1.377 . S
C276 C279 1.481 . S
C277 C276 1.377 . S
C277 C278 1.389 . S
C277 H299 0.929 . S
C278 C274 1.397 . S
C278 C277 1.389 . S
C278 H300 0.931 . S
C279 C276 1.481 . S
C279 C280 1.387 . S
C279 C284 1.390 . S
C280 C279 1.387 . S
C280 C281 1.401 . S
C280 H301 0.930 . S
C281 C280 1.401 . S
C281 C282 1.376 . S
C281 C290 1.511 . S
C282 C281 1.376 . S
C282 C283 1.392 . S
C282 H303 0.931 . S
C283 C282 1.392 . S
C283 C284 1.361 . S
C283 C285 1.500 . S
C284 C279 1.390 . S
C284 C283 1.361 . S
C284 H302 0.931 . S
C285 C283 1.500 . S
C285 C286 1.371 . S
C285 C287 1.365 . S
C286 C285 1.371 . S
C286 C296 1.386 . S
C286 H304 0.931 . S
C287 C285 1.365 . S
C287 C288 1.409 . S
C287 H305 0.929 . S
C288 C287 1.409 . S
C288 C289 1.380 . S
C288 H306 0.930 . S
C289 C288 1.380 . S
C289 C296 1.357 . S
C290 C281 1.511 . S
C290 C291 1.341 . S
C290 C292 1.371 . S
C291 C290 1.341 . S
C291 C295 1.394 . S
C291 H307 0.930 . S
C292 C290 1.371 . S
C292 C293 1.392 . S
C292 H308 0.931 . S
C293 C292 1.392 . S
C293 C294 1.331 . S
C293 H311 0.932 . S
C294 C293 1.331 . S
C294 C295 1.336 . S
C295 C291 1.394 . S
C295 C294 1.336 . S
C295 H310 0.929 . S
C296 C286 1.386 . S
C296 C289 1.357 . S
C296 H309 0.928 . S
H297 C273 0.931 . S
H298 C275 0.930 . S
H299 C277 0.929 . S
H300 C278 0.931 . S
H301 C280 0.930 . S
H302 C284 0.931 . S
H303 C282 0.931 . S
H304 C286 0.931 . S
H305 C287 0.929 . S
H306 C288 0.930 . S
H307 C291 0.930 . S
H308 C292 0.931 . S
H309 C296 0.928 . S
H310 C295 0.929 . S
H311 C293 0.932 . S
Eu312 N341 2.600 . S
Eu312 N347 2.562 . S
Eu312 O356 2.462 . S
Eu312 O357 2.373 . S
Eu312 O359 2.432 . S
Eu312 O360 2.291 . S
Eu312 O364 2.335 . S
Eu312 O367 2.372 . S
Eu312 C376 2.787 . S
C313 N314 1.365 . S
C313 C316 1.405 . S
C313 C320 1.448 . S
N314 C313 1.365 . S
N314 C317 1.319 . S
N314 Eu323 2.600 . S
C315 C317 1.397 . S
C315 C318 1.367 . S
C315 H335 0.931 . S
C316 C313 1.405 . S
C316 C318 1.403 . S
C316 C322 1.439 . S
C317 N314 1.319 . S
C317 C315 1.397 . S
C317 H328 0.930 . S
C318 C315 1.367 . S
C318 C316 1.403 . S
C318 H339 0.929 . S
C319 C320 1.430 . S
C319 C321 1.387 . S
C319 C325 1.404 . S
C320 C313 1.448 . S
C320 C319 1.430 . S
C320 N324 1.351 . S
C321 C319 1.387 . S
C321 C322 1.374 . S
C321 H336 0.931 . S
C322 C316 1.439 . S
C322 C321 1.374 . S
C322 H337 0.931 . S
Eu323 N314 2.600 . S
Eu323 N324 2.562 . S
Eu323 O358 2.335 1_655 S
Eu323 O361 2.372 . S
Eu323 O362 2.462 . S
Eu323 O363 2.373 . S
Eu323 O365 2.432 . S
Eu323 O366 2.291 1_655 S
Eu323 C387 2.787 . S
N324 C320 1.351 . S
N324 Eu323 2.562 . S
N324 C326 1.325 . S
C325 C319 1.404 . S
C325 C327 1.366 . S
C325 H333 0.930 . S
C326 N324 1.325 . S
C326 C327 1.416 . S
C326 H332 0.929 . S
C327 C325 1.366 . S
C327 C326 1.416 . S
C327 H329 0.930 . S
H328 C317 0.930 . S
H329 C327 0.930 . S
H330 C345 0.930 . S
H331 C352 0.930 . S
H332 C326 0.929 . S
H333 C325 0.930 . S
H334 C348 0.929 . S
H335 C315 0.931 . S
H336 C321 0.931 . S
H337 C322 0.931 . S
H338 C343 0.931 . S
H339 C318 0.929 . S
H340 C351 0.930 . S
N341 Eu312 2.600 . S
N341 C342 1.365 . S
N341 C345 1.319 . S
C342 N341 1.365 . S
C342 C344 1.405 . S
C342 C350 1.448 . S
C343 H338 0.931 . S
C343 C345 1.397 . S
C343 C346 1.367 . S
C344 C342 1.405 . S
C344 C346 1.403 . S
C344 C377 1.439 . S
C345 H330 0.930 . S
C345 N341 1.319 . S
C345 C343 1.397 . S
C346 C343 1.367 . S
C346 C344 1.403 . S
C346 H353 0.929 . S
N347 Eu312 2.562 . S
N347 C348 1.325 . S
N347 C350 1.351 . S
C348 H334 0.929 . S
C348 N347 1.325 . S
C348 C352 1.416 . S
C349 C350 1.430 . S
C349 C351 1.404 . S
C349 C378 1.387 . S
C350 C342 1.448 . S
C350 N347 1.351 . S
C350 C349 1.430 . S
C351 H340 0.930 . S
C351 C349 1.404 . S
C351 C352 1.366 . S
C352 H331 0.930 . S
C352 C348 1.416 . S
C352 C351 1.366 . S
H353 C346 0.929 . S
H354 C377 0.931 . S
H355 C378 0.931 . S
O356 Eu312 2.462 . S
O356 C376 1.252 . S
O357 Eu312 2.373 . S
O357 C368 1.249 . S
O358 Eu323 2.335 1_455 S
O358 C368 1.264 . S
O359 Eu312 2.432 . S
O359 C376 1.268 . S
O360 Eu312 2.291 . S
O360 C375 1.255 1_455 S
O361 Eu323 2.372 . S
O361 C375 1.257 . S
O362 Eu323 2.462 . S
O362 C387 1.252 . S
O363 Eu323 2.373 . S
O363 C379 1.249 . S
O364 Eu312 2.335 . S
O364 C379 1.264 1_455 S
O365 Eu323 2.432 . S
O365 C387 1.268 . S
O366 Eu323 2.291 1_455 S
O366 C386 1.255 . S
O367 Eu312 2.372 . S
O367 C386 1.257 . S
C368 O357 1.249 . S
C368 O358 1.264 . S
C369 C372 1.382 . S
C369 C374 1.390 . S
C369 C376 1.506 . S
C370 C371 1.398 . S
C370 C374 1.392 . S
C371 C370 1.398 . S
C371 C373 1.372 . S
C371 H388 0.931 . S
C372 C369 1.382 . S
C372 C373 1.390 . S
C372 H389 0.931 . S
C373 C371 1.372 . S
C373 C372 1.390 . S
C373 H390 0.929 . S
C374 C369 1.390 . S
C374 C370 1.392 . S
C374 H391 0.930 . S
C375 O360 1.255 1_655 S
C375 O361 1.257 . S
C376 Eu312 2.787 . S
C376 O356 1.252 . S
C376 O359 1.268 . S
C376 C369 1.506 . S
C377 C344 1.439 . S
C377 H354 0.931 . S
C377 C378 1.374 . S
C378 C349 1.387 . S
C378 H355 0.931 . S
C378 C377 1.374 . S
C379 O363 1.249 . S
C379 O364 1.264 1_655 S
C380 C383 1.382 . S
C380 C384 1.390 . S
C380 C387 1.506 . S
C381 C382 1.398 . S
C381 C384 1.392 . S
C382 C381 1.398 . S
C382 C385 1.372 . S
C382 H392 0.931 . S
C383 C380 1.382 . S
C383 C385 1.390 . S
C383 H393 0.931 . S
C384 C380 1.390 . S
C384 C381 1.392 . S
C384 H394 0.930 . S
C385 C382 1.372 . S
C385 C383 1.390 . S
C385 H395 0.929 . S
C386 O366 1.255 . S
C386 O367 1.257 . S
C387 Eu323 2.787 . S
C387 O362 1.252 . S
C387 O365 1.268 . S
C387 C380 1.506 . S
H388 C371 0.931 . S
H389 C372 0.931 . S
H390 C373 0.929 . S
H391 C374 0.930 . S
H392 C382 0.931 . S
H393 C383 0.931 . S
H394 C384 0.930 . S
H395 C385 0.929 . S
Eu396 N425 2.600 . S
Eu396 N431 2.562 . S
Eu396 O440 2.462 . S
Eu396 O441 2.373 . S
Eu396 O443 2.432 . S
Eu396 O444 2.291 . S
Eu396 O448 2.335 . S
Eu396 O451 2.372 . S
Eu396 C460 2.787 . S
C397 N398 1.365 . S
C397 C400 1.405 . S
C397 C404 1.448 . S
N398 C397 1.365 . S
N398 C401 1.319 . S
N398 Eu407 2.600 . S
C399 C401 1.397 . S
C399 C402 1.367 . S
C399 H419 0.931 . S
C400 C397 1.405 . S
C400 C402 1.403 . S
C400 C406 1.439 . S
C401 N398 1.319 . S
C401 C399 1.397 . S
C401 H412 0.930 . S
C402 C399 1.367 . S
C402 C400 1.403 . S
C402 H423 0.929 . S
C403 C404 1.430 . S
C403 C405 1.387 . S
C403 C409 1.404 . S
C404 C397 1.448 . S
C404 C403 1.430 . S
C404 N408 1.351 . S
C405 C403 1.387 . S
C405 C406 1.374 . S
C405 H420 0.931 . S
C406 C400 1.439 . S
C406 C405 1.374 . S
C406 H421 0.931 . S
Eu407 N398 2.600 . S
Eu407 N408 2.562 . S
Eu407 O442 2.335 . S
Eu407 O445 2.372 . S
Eu407 O446 2.462 . S
Eu407 O447 2.373 . S
Eu407 O449 2.432 . S
Eu407 O450 2.291 . S
Eu407 C471 2.787 . S
N408 C404 1.351 . S
N408 Eu407 2.562 . S
N408 C410 1.325 . S
C409 C403 1.404 . S
C409 C411 1.366 . S
C409 H417 0.930 . S
C410 N408 1.325 . S
C410 C411 1.416 . S
C410 H416 0.929 . S
C411 C409 1.366 . S
C411 C410 1.416 . S
C411 H413 0.930 . S
H412 C401 0.930 . S
H413 C411 0.930 . S
H414 C429 0.930 . S
H415 C436 0.930 . S
H416 C410 0.929 . S
H417 C409 0.930 . S
H418 C432 0.929 . S
H419 C399 0.931 . S
H420 C405 0.931 . S
H421 C406 0.931 . S
H422 C427 0.931 . S
H423 C402 0.929 . S
H424 C435 0.930 . S
N425 Eu396 2.600 . S
N425 C426 1.365 . S
N425 C429 1.319 . S
C426 N425 1.365 . S
C426 C428 1.405 . S
C426 C434 1.448 . S
C427 H422 0.931 . S
C427 C429 1.397 . S
C427 C430 1.367 . S
C428 C426 1.405 . S
C428 C430 1.403 . S
C428 C461 1.439 . S
C429 H414 0.930 . S
C429 N425 1.319 . S
C429 C427 1.397 . S
C430 C427 1.367 . S
C430 C428 1.403 . S
C430 H437 0.929 . S
N431 Eu396 2.562 . S
N431 C432 1.325 . S
N431 C434 1.351 . S
C432 H418 0.929 . S
C432 N431 1.325 . S
C432 C436 1.416 . S
C433 C434 1.430 . S
C433 C435 1.404 . S
C433 C462 1.387 . S
C434 C426 1.448 . S
C434 N431 1.351 . S
C434 C433 1.430 . S
C435 H424 0.930 . S
C435 C433 1.404 . S
C435 C436 1.366 . S
C436 H415 0.930 . S
C436 C432 1.416 . S
C436 C435 1.366 . S
H437 C430 0.929 . S
H438 C461 0.931 . S
H439 C462 0.931 . S
O440 Eu396 2.462 . S
O440 C460 1.252 . S
O441 Eu396 2.373 . S
O441 C452 1.249 . S
O442 Eu407 2.335 . S
O442 C452 1.264 . S
O443 Eu396 2.432 . S
O443 C460 1.268 . S
O444 Eu396 2.291 . S
O444 C459 1.255 . S
O445 Eu407 2.372 . S
O445 C459 1.257 . S
O446 Eu407 2.462 . S
O446 C471 1.252 . S
O447 Eu407 2.373 . S
O447 C463 1.249 . S
O448 Eu396 2.335 . S
O448 C463 1.264 . S
O449 Eu407 2.432 . S
O449 C471 1.268 . S
O450 Eu407 2.291 . S
O450 C470 1.255 . S
O451 Eu396 2.372 . S
O451 C470 1.257 . S
C452 O441 1.249 . S
C452 O442 1.264 . S
C453 C456 1.382 . S
C453 C458 1.390 . S
C453 C460 1.506 . S
C454 C455 1.398 . S
C454 C458 1.392 . S
C455 C454 1.398 . S
C455 C457 1.372 . S
C455 H472 0.931 . S
C456 C453 1.382 . S
C456 C457 1.390 . S
C456 H473 0.931 . S
C457 C455 1.372 . S
C457 C456 1.390 . S
C457 H474 0.929 . S
C458 C453 1.390 . S
C458 C454 1.392 . S
C458 H475 0.930 . S
C459 O444 1.255 . S
C459 O445 1.257 . S
C460 Eu396 2.787 . S
C460 O440 1.252 . S
C460 O443 1.268 . S
C460 C453 1.506 . S
C461 C428 1.439 . S
C461 H438 0.931 . S
C461 C462 1.374 . S
C462 C433 1.387 . S
C462 H439 0.931 . S
C462 C461 1.374 . S
C463 O447 1.249 . S
C463 O448 1.264 . S
C464 C467 1.382 . S
C464 C468 1.390 . S
C464 C471 1.506 . S
C465 C466 1.398 . S
C465 C468 1.392 . S
C466 C465 1.398 . S
C466 C469 1.372 . S
C466 H476 0.931 . S
C467 C464 1.382 . S
C467 C469 1.390 . S
C467 H477 0.931 . S
C468 C464 1.390 . S
C468 C465 1.392 . S
C468 H478 0.930 . S
C469 C466 1.372 . S
C469 C467 1.390 . S
C469 H479 0.929 . S
C470 O450 1.255 . S
C470 O451 1.257 . S
C471 Eu407 2.787 . S
C471 O446 1.252 . S
C471 O449 1.268 . S
C471 C464 1.506 . S
H472 C455 0.931 . S
H473 C456 0.931 . S
H474 C457 0.929 . S
H475 C458 0.930 . S
H476 C466 0.931 . S
H477 C467 0.931 . S
H478 C468 0.930 . S
H479 C469 0.929 . S
Eu480 N509 2.600 . S
Eu480 N515 2.562 . S
Eu480 O524 2.462 . S
Eu480 O525 2.373 . S
Eu480 O527 2.432 . S
Eu480 O528 2.291 . S
Eu480 O532 2.335 . S
Eu480 O535 2.372 . S
Eu480 C544 2.787 . S
C481 N482 1.365 . S
C481 C484 1.405 . S
C481 C488 1.448 . S
N482 C481 1.365 . S
N482 C485 1.319 . S
N482 Eu491 2.600 . S
C483 C485 1.397 . S
C483 C486 1.367 . S
C483 H503 0.931 . S
C484 C481 1.405 . S
C484 C486 1.403 . S
C484 C490 1.439 . S
C485 N482 1.319 . S
C485 C483 1.397 . S
C485 H496 0.930 . S
C486 C483 1.367 . S
C486 C484 1.403 . S
C486 H507 0.929 . S
C487 C488 1.430 . S
C487 C489 1.387 . S
C487 C493 1.404 . S
C488 C481 1.448 . S
C488 C487 1.430 . S
C488 N492 1.351 . S
C489 C487 1.387 . S
C489 C490 1.374 . S
C489 H504 0.931 . S
C490 C484 1.439 . S
C490 C489 1.374 . S
C490 H505 0.931 . S
Eu491 N482 2.600 . S
Eu491 N492 2.562 . S
Eu491 O526 2.335 1_655 S
Eu491 O529 2.372 . S
Eu491 O530 2.462 . S
Eu491 O531 2.373 . S
Eu491 O533 2.432 . S
Eu491 O534 2.291 1_655 S
Eu491 C555 2.787 . S
N492 C488 1.351 . S
N492 Eu491 2.562 . S
N492 C494 1.325 . S
C493 C487 1.404 . S
C493 C495 1.366 . S
C493 H501 0.930 . S
C494 N492 1.325 . S
C494 C495 1.416 . S
C494 H500 0.929 . S
C495 C493 1.366 . S
C495 C494 1.416 . S
C495 H497 0.930 . S
H496 C485 0.930 . S
H497 C495 0.930 . S
H498 C513 0.930 . S
H499 C520 0.930 . S
H500 C494 0.929 . S
H501 C493 0.930 . S
H502 C516 0.929 . S
H503 C483 0.931 . S
H504 C489 0.931 . S
H505 C490 0.931 . S
H506 C511 0.931 . S
H507 C486 0.929 . S
H508 C519 0.930 . S
N509 Eu480 2.600 . S
N509 C510 1.365 . S
N509 C513 1.319 . S
C510 N509 1.365 . S
C510 C512 1.405 . S
C510 C518 1.448 . S
C511 H506 0.931 . S
C511 C513 1.397 . S
C511 C514 1.367 . S
C512 C510 1.405 . S
C512 C514 1.403 . S
C512 C545 1.439 . S
C513 H498 0.930 . S
C513 N509 1.319 . S
C513 C511 1.397 . S
C514 C511 1.367 . S
C514 C512 1.403 . S
C514 H521 0.929 . S
N515 Eu480 2.562 . S
N515 C516 1.325 . S
N515 C518 1.351 . S
C516 H502 0.929 . S
C516 N515 1.325 . S
C516 C520 1.416 . S
C517 C518 1.430 . S
C517 C519 1.404 . S
C517 C546 1.387 . S
C518 C510 1.448 . S
C518 N515 1.351 . S
C518 C517 1.430 . S
C519 H508 0.930 . S
C519 C517 1.404 . S
C519 C520 1.366 . S
C520 H499 0.930 . S
C520 C516 1.416 . S
C520 C519 1.366 . S
H521 C514 0.929 . S
H522 C545 0.931 . S
H523 C546 0.931 . S
O524 Eu480 2.462 . S
O524 C544 1.252 . S
O525 Eu480 2.373 . S
O525 C536 1.249 . S
O526 Eu491 2.335 1_455 S
O526 C536 1.264 . S
O527 Eu480 2.432 . S
O527 C544 1.268 . S
O528 Eu480 2.291 . S
O528 C543 1.255 1_455 S
O529 Eu491 2.372 . S
O529 C543 1.257 . S
O530 Eu491 2.462 . S
O530 C555 1.252 . S
O531 Eu491 2.373 . S
O531 C547 1.249 . S
O532 Eu480 2.335 . S
O532 C547 1.264 1_455 S
O533 Eu491 2.432 . S
O533 C555 1.268 . S
O534 Eu491 2.291 1_455 S
O534 C554 1.255 . S
O535 Eu480 2.372 . S
O535 C554 1.257 . S
C536 O525 1.249 . S
C536 O526 1.264 . S
C537 C540 1.382 . S
C537 C542 1.390 . S
C537 C544 1.506 . S
C538 C539 1.398 . S
C538 C542 1.392 . S
C539 C538 1.398 . S
C539 C541 1.372 . S
C539 H556 0.931 . S
C540 C537 1.382 . S
C540 C541 1.390 . S
C540 H557 0.931 . S
C541 C539 1.372 . S
C541 C540 1.390 . S
C541 H558 0.929 . S
C542 C537 1.390 . S
C542 C538 1.392 . S
C542 H559 0.930 . S
C543 O528 1.255 1_655 S
C543 O529 1.257 . S
C544 Eu480 2.787 . S
C544 O524 1.252 . S
C544 O527 1.268 . S
C544 C537 1.506 . S
C545 C512 1.439 . S
C545 H522 0.931 . S
C545 C546 1.374 . S
C546 C517 1.387 . S
C546 H523 0.931 . S
C546 C545 1.374 . S
C547 O531 1.249 . S
C547 O532 1.264 1_655 S
C548 C551 1.382 . S
C548 C552 1.390 . S
C548 C555 1.506 . S
C549 C550 1.398 . S
C549 C552 1.392 . S
C550 C549 1.398 . S
C550 C553 1.372 . S
C550 H560 0.931 . S
C551 C548 1.382 . S
C551 C553 1.390 . S
C551 H561 0.931 . S
C552 C548 1.390 . S
C552 C549 1.392 . S
C552 H562 0.930 . S
C553 C550 1.372 . S
C553 C551 1.390 . S
C553 H563 0.929 . S
C554 O534 1.255 . S
C554 O535 1.257 . S
C555 Eu491 2.787 . S
C555 O530 1.252 . S
C555 O533 1.268 . S
C555 C548 1.506 . S
H556 C539 0.931 . S
H557 C540 0.931 . S
H558 C541 0.929 . S
H559 C542 0.930 . S
H560 C550 0.931 . S
H561 C551 0.931 . S
H562 C552 0.930 . S
H563 C553 0.929 . S
Eu564 N593 2.600 . S
Eu564 N599 2.562 . S
Eu564 O608 2.462 . S
Eu564 O609 2.373 . S
Eu564 O611 2.432 . S
Eu564 O612 2.291 . S
Eu564 O616 2.335 . S
Eu564 O619 2.372 . S
Eu564 C628 2.787 . S
C565 N566 1.365 . S
C565 C568 1.405 . S
C565 C572 1.448 . S
N566 C565 1.365 . S
N566 C569 1.319 . S
N566 Eu575 2.600 . S
C567 C569 1.397 . S
C567 C570 1.367 . S
C567 H587 0.931 . S
C568 C565 1.405 . S
C568 C570 1.403 . S
C568 C574 1.439 . S
C569 N566 1.319 . S
C569 C567 1.397 . S
C569 H580 0.930 . S
C570 C567 1.367 . S
C570 C568 1.403 . S
C570 H591 0.929 . S
C571 C572 1.430 . S
C571 C573 1.387 . S
C571 C577 1.404 . S
C572 C565 1.448 . S
C572 C571 1.430 . S
C572 N576 1.351 . S
C573 C571 1.387 . S
C573 C574 1.374 . S
C573 H588 0.931 . S
C574 C568 1.439 . S
C574 C573 1.374 . S
C574 H589 0.931 . S
Eu575 N566 2.600 . S
Eu575 N576 2.562 . S
Eu575 O610 2.335 . S
Eu575 O613 2.372 . S
Eu575 O614 2.462 . S
Eu575 O615 2.373 . S
Eu575 O617 2.432 . S
Eu575 O618 2.291 . S
Eu575 C639 2.787 . S
N576 C572 1.351 . S
N576 Eu575 2.562 . S
N576 C578 1.325 . S
C577 C571 1.404 . S
C577 C579 1.366 . S
C577 H585 0.930 . S
C578 N576 1.325 . S
C578 C579 1.416 . S
C578 H584 0.929 . S
C579 C577 1.366 . S
C579 C578 1.416 . S
C579 H581 0.930 . S
H580 C569 0.930 . S
H581 C579 0.930 . S
H582 C597 0.930 . S
H583 C604 0.930 . S
H584 C578 0.929 . S
H585 C577 0.930 . S
H586 C600 0.929 . S
H587 C567 0.931 . S
H588 C573 0.931 . S
H589 C574 0.931 . S
H590 C595 0.931 . S
H591 C570 0.929 . S
H592 C603 0.930 . S
N593 Eu564 2.600 . S
N593 C594 1.365 . S
N593 C597 1.319 . S
C594 N593 1.365 . S
C594 C596 1.405 . S
C594 C602 1.448 . S
C595 H590 0.931 . S
C595 C597 1.397 . S
C595 C598 1.367 . S
C596 C594 1.405 . S
C596 C598 1.403 . S
C596 C629 1.439 . S
C597 H582 0.930 . S
C597 N593 1.319 . S
C597 C595 1.397 . S
C598 C595 1.367 . S
C598 C596 1.403 . S
C598 H605 0.929 . S
N599 Eu564 2.562 . S
N599 C600 1.325 . S
N599 C602 1.351 . S
C600 H586 0.929 . S
C600 N599 1.325 . S
C600 C604 1.416 . S
C601 C602 1.430 . S
C601 C603 1.404 . S
C601 C630 1.387 . S
C602 C594 1.448 . S
C602 N599 1.351 . S
C602 C601 1.430 . S
C603 H592 0.930 . S
C603 C601 1.404 . S
C603 C604 1.366 . S
C604 H583 0.930 . S
C604 C600 1.416 . S
C604 C603 1.366 . S
H605 C598 0.929 . S
H606 C629 0.931 . S
H607 C630 0.931 . S
O608 Eu564 2.462 . S
O608 C628 1.252 . S
O609 Eu564 2.373 . S
O609 C620 1.249 . S
O610 Eu575 2.335 . S
O610 C620 1.264 . S
O611 Eu564 2.432 . S
O611 C628 1.268 . S
O612 Eu564 2.291 . S
O612 C627 1.255 . S
O613 Eu575 2.372 . S
O613 C627 1.257 . S
O614 Eu575 2.462 . S
O614 C639 1.252 . S
O615 Eu575 2.373 . S
O615 C631 1.249 . S
O616 Eu564 2.335 . S
O616 C631 1.264 . S
O617 Eu575 2.432 . S
O617 C639 1.268 . S
O618 Eu575 2.291 . S
O618 C638 1.255 . S
O619 Eu564 2.372 . S
O619 C638 1.257 . S
C620 O609 1.249 . S
C620 O610 1.264 . S
C621 C624 1.382 . S
C621 C626 1.390 . S
C621 C628 1.506 . S
C622 C623 1.398 . S
C622 C626 1.392 . S
C623 C622 1.398 . S
C623 C625 1.372 . S
C623 H640 0.931 . S
C624 C621 1.382 . S
C624 C625 1.390 . S
C624 H641 0.931 . S
C625 C623 1.372 . S
C625 C624 1.390 . S
C625 H642 0.929 . S
C626 C621 1.390 . S
C626 C622 1.392 . S
C626 H643 0.930 . S
C627 O612 1.255 . S
C627 O613 1.257 . S
C628 Eu564 2.787 . S
C628 O608 1.252 . S
C628 O611 1.268 . S
C628 C621 1.506 . S
C629 C596 1.439 . S
C629 H606 0.931 . S
C629 C630 1.374 . S
C630 C601 1.387 . S
C630 H607 0.931 . S
C630 C629 1.374 . S
C631 O615 1.249 . S
C631 O616 1.264 . S
C632 C635 1.382 . S
C632 C636 1.390 . S
C632 C639 1.506 . S
C633 C634 1.398 . S
C633 C636 1.392 . S
C634 C633 1.398 . S
C634 C637 1.372 . S
C634 H644 0.931 . S
C635 C632 1.382 . S
C635 C637 1.390 . S
C635 H645 0.931 . S
C636 C632 1.390 . S
C636 C633 1.392 . S
C636 H646 0.930 . S
C637 C634 1.372 . S
C637 C635 1.390 . S
C637 H647 0.929 . S
C638 O618 1.255 . S
C638 O619 1.257 . S
C639 Eu575 2.787 . S
C639 O614 1.252 . S
C639 O617 1.268 . S
C639 C632 1.506 . S
H640 C623 0.931 . S
H641 C624 0.931 . S
H642 C625 0.929 . S
H643 C626 0.930 . S
H644 C634 0.931 . S
H645 C635 0.931 . S
H646 C636 0.930 . S
H647 C637 0.929 . S
H648 C666 0.951 . S
H649 C668 0.951 . S
H650 C670 0.961 . S
H651 C671 0.950 . S
H652 C673 0.950 . S
H653 C676 0.950 . S
H654 C677 0.950 . S
H655 C679 0.950 . S
H656 C680 0.950 . S
H657 C681 0.951 . S
H658 C683 0.951 . S
H659 C685 0.950 . S
H660 C686 0.950 . S
H661 C688 0.950 . S
H662 C691 0.950 . S
H663 C692 0.950 . S
H664 C694 0.950 . S
H665 C695 0.950 . S
C666 H648 0.951 . S
C666 C667 1.366 . S
C666 C668 1.388 . S
C667 C666 1.366 . S
C667 C671 1.385 . S
C668 H649 0.951 . S
C668 C666 1.388 . S
C668 C669 1.361 1_565 S
C669 C668 1.361 1_545 S
C669 C670 1.411 1_545 S
C669 C672 1.506 . S
C670 H650 0.961 . S
C670 C669 1.411 1_565 S
C670 C671 1.374 . S
C671 H651 0.950 . S
C671 C667 1.385 . S
C671 C670 1.374 . S
C672 C669 1.506 . S
C672 C673 1.373 . S
C672 C674 1.389 . S
C673 H652 0.950 . S
C673 C672 1.373 . S
C673 C689 1.377 . S
C674 C672 1.389 . S
C674 C675 1.524 . S
C674 C688 1.377 . S
C675 C674 1.524 . S
C675 C676 1.397 . S
C675 C680 1.363 . S
C676 H653 0.950 . S
C676 C675 1.397 . S
C676 C677 1.334 . S
C677 H654 0.950 . S
C677 C676 1.334 . S
C677 C678 1.287 . S
C678 C677 1.287 . S
C678 C679 1.524 . S
C678 H697 0.913 . S
C679 H655 0.950 . S
C679 C678 1.524 . S
C679 C680 1.415 . S
C680 H656 0.950 . S
C680 C675 1.363 . S
C680 C679 1.415 . S
C681 H657 0.951 . S
C681 C682 1.366 . S
C681 C683 1.388 . S
C682 C681 1.366 . S
C682 C686 1.385 . S
C683 H658 0.951 . S
C683 C681 1.388 . S
C683 C684 1.366 . S
C684 C683 1.366 . S
C684 C685 1.414 . S
C684 C687 1.499 . S
C685 H659 0.950 . S
C685 C684 1.414 . S
C685 C686 1.374 . S
C686 H660 0.950 . S
C686 C682 1.385 . S
C686 C685 1.374 . S
C687 C684 1.499 . S
C687 C688 1.373 . S
C687 C689 1.389 . S
C688 H661 0.950 . S
C688 C674 1.377 . S
C688 C687 1.373 . S
C689 C673 1.377 . S
C689 C687 1.389 . S
C689 C690 1.524 . S
C690 C689 1.524 . S
C690 C691 1.397 . S
C690 C695 1.363 . S
C691 H662 0.950 . S
C691 C690 1.397 . S
C691 C692 1.334 1_455 S
C692 H663 0.950 . S
C692 C691 1.334 1_655 S
C692 C693 1.287 . S
C693 C692 1.287 . S
C693 C694 1.524 . S
C693 H696 0.999 . S
C694 H664 0.950 . S
C694 C693 1.524 . S
C694 C695 1.415 1_655 S
C695 H665 0.950 . S
C695 C690 1.363 . S
C695 C694 1.415 1_455 S
H696 C693 0.999 . S
H697 C678 0.913 . S
H698 C716 0.951 . S
H699 C718 0.951 . S
H700 C720 0.950 . S
H701 C721 0.950 . S
H702 C723 0.950 . S
H703 C726 0.950 . S
H704 C727 0.950 . S
H705 C729 0.950 . S
H706 C730 0.950 . S
H707 C731 0.951 . S
H708 C733 0.951 . S
H709 C735 0.950 . S
H710 C736 0.950 . S
H711 C738 0.950 . S
H712 C741 0.950 . S
H713 C742 0.950 . S
H714 C744 0.950 . S
H715 C745 0.950 . S
C716 H698 0.951 . S
C716 C717 1.366 . S
C716 C718 1.388 . S
C717 C716 1.366 . S
C717 C721 1.385 . S
C718 H699 0.951 . S
C718 C716 1.388 . S
C718 C719 1.366 . S
C719 C718 1.366 . S
C719 C720 1.414 . S
C719 C722 1.499 . S
C720 H700 0.950 . S
C720 C719 1.414 . S
C720 C721 1.374 . S
C721 H701 0.950 . S
C721 C717 1.385 . S
C721 C720 1.374 . S
C722 C719 1.499 . S
C722 C723 1.373 . S
C722 C724 1.389 . S
C723 H702 0.950 . S
C723 C722 1.373 . S
C723 C739 1.377 . S
C724 C722 1.389 . S
C724 C725 1.524 . S
C724 C738 1.377 . S
C725 C724 1.524 . S
C725 C726 1.397 . S
C725 C730 1.363 . S
C726 H703 0.950 . S
C726 C725 1.397 . S
C726 C727 1.334 . S
C727 H704 0.950 . S
C727 C726 1.334 . S
C727 C728 1.287 . S
C728 C727 1.287 . S
C728 C729 1.524 . S
C728 H747 0.913 . S
C729 H705 0.950 . S
C729 C728 1.524 . S
C729 C730 1.415 . S
C730 H706 0.950 . S
C730 C725 1.363 . S
C730 C729 1.415 . S
C731 H707 0.951 . S
C731 C732 1.366 . S
C731 C733 1.388 . S
C732 C731 1.366 . S
C732 C736 1.385 . S
C733 H708 0.951 . S
C733 C731 1.388 . S
C733 C734 1.366 . S
C734 C733 1.366 . S
C734 C735 1.414 . S
C734 C737 1.499 . S
C735 H709 0.950 . S
C735 C734 1.414 . S
C735 C736 1.374 . S
C736 H710 0.950 . S
C736 C732 1.385 . S
C736 C735 1.374 . S
C737 C734 1.499 . S
C737 C738 1.373 . S
C737 C739 1.389 . S
C738 H711 0.950 . S
C738 C724 1.377 . S
C738 C737 1.373 . S
C739 C723 1.377 . S
C739 C737 1.389 . S
C739 C740 1.524 . S
C740 C739 1.524 . S
C740 C741 1.397 . S
C740 C745 1.363 . S
C741 H712 0.950 . S
C741 C740 1.397 . S
C741 C742 1.334 . S
C742 H713 0.950 . S
C742 C741 1.334 . S
C742 C743 1.287 . S
C743 C742 1.287 . S
C743 C744 1.524 . S
C743 H746 0.999 . S
C744 H714 0.950 . S
C744 C743 1.524 . S
C744 C745 1.415 . S
C745 H715 0.950 . S
C745 C740 1.363 . S
C745 C744 1.415 . S
H746 C743 0.999 . S
H747 C728 0.913 . S
H748 C766 0.951 . S
H749 C768 0.951 . S
H750 C770 0.950 . S
H751 C771 0.950 . S
H752 C773 0.950 . S
H753 C776 0.950 . S
H754 C777 0.950 . S
H755 C779 0.950 . S
H756 C780 0.950 . S
H757 C781 0.951 . S
H758 C783 0.951 . S
H759 C785 0.950 . S
H760 C786 0.950 . S
H761 C788 0.950 . S
H762 C791 0.950 . S
H763 C792 0.950 . S
H764 C794 0.950 . S
H765 C795 0.950 . S
C766 H748 0.951 . S
C766 C767 1.366 . S
C766 C768 1.388 . S
C767 C766 1.366 . S
C767 C771 1.385 . S
C768 H749 0.951 . S
C768 C766 1.388 . S
C768 C769 1.366 . S
C769 C768 1.366 . S
C769 C770 1.414 . S
C769 C772 1.499 . S
C770 H750 0.950 . S
C770 C769 1.414 . S
C770 C771 1.374 . S
C771 H751 0.950 . S
C771 C767 1.385 . S
C771 C770 1.374 . S
C772 C769 1.499 . S
C772 C773 1.373 . S
C772 C774 1.389 . S
C773 H752 0.950 . S
C773 C772 1.373 . S
C773 C789 1.377 . S
C774 C772 1.389 . S
C774 C775 1.524 . S
C774 C788 1.377 . S
C775 C774 1.524 . S
C775 C776 1.397 . S
C775 C780 1.363 . S
C776 H753 0.950 . S
C776 C775 1.397 . S
C776 C777 1.334 . S
C777 H754 0.950 . S
C777 C776 1.334 . S
C777 C778 1.287 . S
C778 C777 1.287 . S
C778 C779 1.524 . S
C778 H797 0.913 . S
C779 H755 0.950 . S
C779 C778 1.524 . S
C779 C780 1.415 . S
C780 H756 0.950 . S
C780 C775 1.363 . S
C780 C779 1.415 . S
C781 H757 0.951 . S
C781 C782 1.366 . S
C781 C783 1.388 . S
C782 C781 1.366 . S
C782 C786 1.385 . S
C783 H758 0.951 . S
C783 C781 1.388 . S
C783 C784 1.366 . S
C784 C783 1.366 . S
C784 C785 1.414 . S
C784 C787 1.499 . S
C785 H759 0.950 . S
C785 C784 1.414 . S
C785 C786 1.374 . S
C786 H760 0.950 . S
C786 C782 1.385 . S
C786 C785 1.374 . S
C787 C784 1.499 . S
C787 C788 1.373 . S
C787 C789 1.389 . S
C788 H761 0.950 . S
C788 C774 1.377 . S
C788 C787 1.373 . S
C789 C773 1.377 . S
C789 C787 1.389 . S
C789 C790 1.524 . S
C790 C789 1.524 . S
C790 C791 1.397 . S
C790 C795 1.363 . S
C791 H762 0.950 . S
C791 C790 1.397 . S
C791 C792 1.334 . S
C792 H763 0.950 . S
C792 C791 1.334 . S
C792 C793 1.287 . S
C793 C792 1.287 . S
C793 C794 1.524 . S
C793 H796 0.999 . S
C794 H764 0.950 . S
C794 C793 1.524 . S
C794 C795 1.415 . S
C795 H765 0.950 . S
C795 C790 1.363 . S
C795 C794 1.415 . S
H796 C793 0.999 . S
H797 C778 0.913 . S
H798 C816 0.951 . S
H799 C818 0.931 1_545 S
H800 C820 0.950 . S
H801 C821 0.950 . S
H802 C823 0.950 . S
H803 C826 0.950 . S
H804 C827 0.950 . S
H805 C829 0.964 . S
H806 C830 1.005 . S
H807 C831 0.951 . S
H808 C833 0.951 . S
H809 C835 0.950 . S
H810 C836 0.950 . S
H811 C838 0.950 . S
H812 C841 0.950 . S
H813 C842 0.950 . S
H814 C844 0.950 . S
H815 C845 0.950 . S
C816 H798 0.951 . S
C816 C817 1.366 . S
C816 C818 1.388 . S
C817 C816 1.366 . S
C817 C821 1.385 . S
C818 H799 0.931 1_565 S
C818 C816 1.388 . S
C818 C819 1.360 1_565 S
C819 C818 1.360 1_545 S
C819 C820 1.405 1_545 S
C819 C822 1.514 . S
C820 H800 0.950 . S
C820 C819 1.405 1_565 S
C820 C821 1.374 . S
C821 H801 0.950 . S
C821 C817 1.385 . S
C821 C820 1.374 . S
C822 C819 1.514 . S
C822 C823 1.373 . S
C822 C824 1.389 . S
C823 H802 0.950 . S
C823 C822 1.373 . S
C823 C839 1.377 . S
C824 C822 1.389 . S
C824 C825 1.524 1_545 S
C824 C838 1.377 . S
C825 C824 1.524 1_565 S
C825 C826 1.397 . S
C825 C830 1.356 1_565 S
C826 H803 0.950 . S
C826 C825 1.397 . S
C826 C827 1.334 . S
C827 H804 0.950 . S
C827 C826 1.334 . S
C827 C828 1.287 . S
C828 C827 1.287 . S
C828 C829 1.518 1_655 S
C828 H847 0.913 . S
C829 H805 0.964 . S
C829 C828 1.518 1_455 S
C829 C830 1.360 1_465 S
C830 H806 1.005 . S
C830 C825 1.356 1_545 S
C830 C829 1.360 1_645 S
C831 H807 0.951 . S
C831 C832 1.366 . S
C831 C833 1.388 . S
C832 C831 1.366 . S
C832 C836 1.385 . S
C833 H808 0.951 . S
C833 C831 1.388 . S
C833 C834 1.366 . S
C834 C833 1.366 . S
C834 C835 1.414 . S
C834 C837 1.499 . S
C835 H809 0.950 . S
C835 C834 1.414 . S
C835 C836 1.374 . S
C836 H810 0.950 . S
C836 C832 1.385 . S
C836 C835 1.374 . S
C837 C834 1.499 . S
C837 C838 1.373 . S
C837 C839 1.389 . S
C838 H811 0.950 . S
C838 C824 1.377 . S
C838 C837 1.373 . S
C839 C823 1.377 . S
C839 C837 1.389 . S
C839 C840 1.524 . S
C840 C839 1.524 . S
C840 C841 1.397 . S
C840 C845 1.363 . S
C841 H812 0.950 . S
C841 C840 1.397 . S
C841 C842 1.334 . S
C842 H813 0.950 . S
C842 C841 1.334 . S
C842 C843 1.287 . S
C843 C842 1.287 . S
C843 C844 1.524 . S
C843 H846 0.999 . S
C844 H814 0.950 . S
C844 C843 1.524 . S
C844 C845 1.415 . S
C845 H815 0.950 . S
C845 C840 1.363 . S
C845 C844 1.415 . S
H846 C843 0.999 . S
H847 C828 0.913 . S
H848 C866 0.951 . S
H849 C868 0.951 1_565 S
H850 C870 0.950 . S
H851 C871 0.950 . S
H852 C873 0.946 1_545 S
H853 C876 0.950 . S
H854 C877 0.950 . S
H855 C879 0.950 . S
H856 C880 0.950 . S
H857 C881 0.951 . S
H858 C883 0.951 . S
H859 C885 0.950 . S
H860 C886 0.950 . S
H861 C888 0.950 . S
H862 C891 0.950 . S
H863 C892 0.950 . S
H864 C894 0.950 1_545 S
H865 C895 0.950 . S
C866 H848 0.951 . S
C866 C867 1.366 . S
C866 C868 1.388 . S
C867 C866 1.366 . S
C867 C871 1.385 . S
C868 H849 0.951 1_545 S
C868 C866 1.388 . S
C868 C869 1.364 1_545 S
C869 C868 1.364 1_565 S
C869 C870 1.411 1_565 S
C869 C872 1.503 . S
C870 H850 0.950 . S
C870 C869 1.411 1_545 S
C870 C871 1.374 . S
C871 H851 0.950 . S
C871 C867 1.385 . S
C871 C870 1.374 . S
C872 C869 1.503 . S
C872 C873 1.373 . S
C872 C874 1.389 . S
C873 H852 0.946 1_565 S
C873 C872 1.373 . S
C873 C889 1.377 . S
C874 C872 1.389 . S
C874 C875 1.524 . S
C874 C888 1.377 . S
C875 C874 1.524 . S
C875 C876 1.397 . S
C875 C880 1.363 . S
C876 H853 0.950 . S
C876 C875 1.397 . S
C876 C877 1.334 . S
C877 H854 0.950 . S
C877 C876 1.334 . S
C877 C878 1.287 . S
C878 C877 1.287 . S
C878 C879 1.524 . S
C878 H897 0.913 . S
C879 H855 0.950 . S
C879 C878 1.524 . S
C879 C880 1.415 . S
C880 H856 0.950 . S
C880 C875 1.363 . S
C880 C879 1.415 . S
C881 H857 0.951 . S
C881 C882 1.366 . S
C881 C883 1.388 . S
C882 C881 1.366 . S
C882 C886 1.385 . S
C883 H858 0.951 . S
C883 C881 1.388 . S
C883 C884 1.366 . S
C884 C883 1.366 . S
C884 C885 1.414 . S
C884 C887 1.499 . S
C885 H859 0.950 . S
C885 C884 1.414 . S
C885 C886 1.374 . S
C886 H860 0.950 . S
C886 C882 1.385 . S
C886 C885 1.374 . S
C887 C884 1.499 . S
C887 C888 1.373 . S
C887 C889 1.389 . S
C888 H861 0.950 . S
C888 C874 1.377 . S
C888 C887 1.373 . S
C889 C873 1.377 . S
C889 C887 1.389 . S
C889 C890 1.524 . S
C890 C889 1.524 . S
C890 C891 1.397 . S
C890 C895 1.363 . S
C891 H862 0.950 . S
C891 C890 1.397 . S
C891 C892 1.334 . S
C892 H863 0.950 . S
C892 C891 1.334 . S
C892 C893 1.287 . S
C893 C892 1.287 . S
C893 C894 1.524 . S
C893 H896 0.999 . S
C894 H864 0.950 1_565 S
C894 C893 1.524 . S
C894 C895 1.415 . S
C895 H865 0.950 . S
C895 C890 1.363 . S
C895 C894 1.415 . S
H896 C893 0.999 . S
H897 C878 0.913 . S
H898 C916 0.951 . S
H899 C918 0.951 . S
H900 C920 0.950 . S
H901 C921 0.950 . S
H902 C923 0.950 . S
H903 C926 0.950 . S
H904 C927 0.950 . S
H905 C929 0.950 . S
H906 C930 0.950 . S
H907 C931 0.951 . S
H908 C933 0.951 . S
H909 C935 0.950 . S
H910 C936 0.950 . S
H911 C938 0.950 . S
H912 C941 0.950 . S
H913 C942 0.950 . S
H914 C944 0.950 . S
H915 C945 0.950 . S
C916 H898 0.951 . S
C916 C917 1.366 . S
C916 C918 1.388 . S
C917 C916 1.366 . S
C917 C921 1.385 . S
C918 H899 0.951 . S
C918 C916 1.388 . S
C918 C919 1.366 . S
C919 C918 1.366 . S
C919 C920 1.414 . S
C919 C922 1.499 . S
C920 H900 0.950 . S
C920 C919 1.414 . S
C920 C921 1.374 . S
C921 H901 0.950 . S
C921 C917 1.385 . S
C921 C920 1.374 . S
C922 C919 1.499 . S
C922 C923 1.373 . S
C922 C924 1.389 . S
C923 H902 0.950 . S
C923 C922 1.373 . S
C923 C939 1.377 . S
C924 C922 1.389 . S
C924 C925 1.524 . S
C924 C938 1.377 . S
C925 C924 1.524 . S
C925 C926 1.397 . S
C925 C930 1.363 . S
C926 H903 0.950 . S
C926 C925 1.397 . S
C926 C927 1.334 . S
C927 H904 0.950 . S
C927 C926 1.334 . S
C927 C928 1.287 . S
C928 C927 1.287 . S
C928 C929 1.524 . S
C928 H947 0.913 . S
C929 H905 0.950 . S
C929 C928 1.524 . S
C929 C930 1.415 . S
C930 H906 0.950 . S
C930 C925 1.363 . S
C930 C929 1.415 . S
C931 H907 0.951 . S
C931 C932 1.366 . S
C931 C933 1.388 . S
C932 C931 1.366 . S
C932 C936 1.385 . S
C933 H908 0.951 . S
C933 C931 1.388 . S
C933 C934 1.366 . S
C934 C933 1.366 . S
C934 C935 1.414 . S
C934 C937 1.499 . S
C935 H909 0.950 . S
C935 C934 1.414 . S
C935 C936 1.374 . S
C936 H910 0.950 . S
C936 C932 1.385 . S
C936 C935 1.374 . S
C937 C934 1.499 . S
C937 C938 1.373 . S
C937 C939 1.389 . S
C938 H911 0.950 . S
C938 C924 1.377 . S
C938 C937 1.373 . S
C939 C923 1.377 . S
C939 C937 1.389 . S
C939 C940 1.524 . S
C940 C939 1.524 . S
C940 C941 1.397 . S
C940 C945 1.363 . S
C941 H912 0.950 . S
C941 C940 1.397 . S
C941 C942 1.334 . S
C942 H913 0.950 . S
C942 C941 1.334 . S
C942 C943 1.287 . S
C943 C942 1.287 . S
C943 C944 1.524 . S
C943 H946 0.999 . S
C944 H914 0.950 . S
C944 C943 1.524 . S
C944 C945 1.415 . S
C945 H915 0.950 . S
C945 C940 1.363 . S
C945 C944 1.415 . S
H946 C943 0.999 . S
H947 C928 0.913 . S
H948 C966 0.951 . S
H949 C968 0.951 . S
H950 C970 0.950 . S
H951 C971 0.950 . S
H952 C973 0.950 . S
H953 C976 0.950 . S
H954 C977 0.950 . S
H955 C979 0.950 . S
H956 C980 0.950 . S
H957 C981 0.951 . S
H958 C983 0.951 . S
H959 C985 0.950 . S
H960 C986 0.950 . S
H961 C988 0.950 . S
H962 C991 0.950 . S
H963 C992 0.950 . S
H964 C994 0.950 . S
H965 C995 0.950 . S
C966 H948 0.951 . S
C966 C967 1.366 . S
C966 C968 1.388 . S
C967 C966 1.366 . S
C967 C971 1.385 . S
C968 H949 0.951 . S
C968 C966 1.388 . S
C968 C969 1.366 . S
C969 C968 1.366 . S
C969 C970 1.414 . S
C969 C972 1.499 . S
C970 H950 0.950 . S
C970 C969 1.414 . S
C970 C971 1.374 . S
C971 H951 0.950 . S
C971 C967 1.385 . S
C971 C970 1.374 . S
C972 C969 1.499 . S
C972 C973 1.373 . S
C972 C974 1.389 . S
C973 H952 0.950 . S
C973 C972 1.373 . S
C973 C989 1.377 . S
C974 C972 1.389 . S
C974 C975 1.524 . S
C974 C988 1.377 . S
C975 C974 1.524 . S
C975 C976 1.397 . S
C975 C980 1.363 . S
C976 H953 0.950 . S
C976 C975 1.397 . S
C976 C977 1.334 . S
C977 H954 0.950 . S
C977 C976 1.334 . S
C977 C978 1.287 . S
C978 C977 1.287 . S
C978 C979 1.524 . S
C978 H997 0.913 . S
C979 H955 0.950 . S
C979 C978 1.524 . S
C979 C980 1.415 . S
C980 H956 0.950 . S
C980 C975 1.363 . S
C980 C979 1.415 . S
C981 H957 0.951 . S
C981 C982 1.366 . S
C981 C983 1.388 . S
C982 C981 1.366 . S
C982 C986 1.385 . S
C983 H958 0.951 . S
C983 C981 1.388 . S
C983 C984 1.366 . S
C984 C983 1.366 . S
C984 C985 1.414 . S
C984 C987 1.499 . S
C985 H959 0.950 . S
C985 C984 1.414 . S
C985 C986 1.374 . S
C986 H960 0.950 . S
C986 C982 1.385 . S
C986 C985 1.374 . S
C987 C984 1.499 . S
C987 C988 1.373 . S
C987 C989 1.389 . S
C988 H961 0.950 . S
C988 C974 1.377 . S
C988 C987 1.373 . S
C989 C973 1.377 . S
C989 C987 1.389 . S
C989 C990 1.524 . S
C990 C989 1.524 . S
C990 C991 1.397 . S
C990 C995 1.363 . S
C991 H962 0.950 . S
C991 C990 1.397 . S
C991 C992 1.334 . S
C992 H963 0.950 . S
C992 C991 1.334 . S
C992 C993 1.287 . S
C993 C992 1.287 . S
C993 C994 1.524 . S
C993 H996 0.999 . S
C994 H964 0.950 . S
C994 C993 1.524 . S
C994 C995 1.415 . S
C995 H965 0.950 . S
C995 C990 1.363 . S
C995 C994 1.415 . S
H996 C993 0.999 . S
H997 C978 0.913 . S
H998 C1016 0.951 . S
H999 C1018 0.951 . S
H1000 C1020 0.950 . S
H1001 C1021 0.950 . S
H1002 C1023 0.950 1_545 S
H1003 C1026 0.950 . S
H1004 C1027 0.950 . S
H1005 C1029 0.950 . S
H1006 C1030 0.950 . S
H1007 C1031 0.951 . S
H1008 C1033 0.951 . S
H1009 C1035 0.950 . S
H1010 C1036 0.950 . S
H1011 C1038 0.950 . S
H1012 C1041 0.950 . S
H1013 C1042 0.950 . S
H1014 C1044 0.950 . S
H1015 C1045 0.950 1_545 S
C1016 H998 0.951 . S
C1016 C1017 1.366 . S
C1016 C1018 1.388 1_545 S
C1017 C1016 1.366 . S
C1017 C1021 1.385 . S
C1018 H999 0.951 . S
C1018 C1016 1.388 1_565 S
C1018 C1019 1.366 . S
C1019 C1018 1.366 . S
C1019 C1020 1.414 1_565 S
C1019 C1022 1.499 . S
C1020 H1000 0.950 . S
C1020 C1019 1.414 1_545 S
C1020 C1021 1.374 . S
C1021 H1001 0.950 . S
C1021 C1017 1.385 . S
C1021 C1020 1.374 . S
C1022 C1019 1.499 . S
C1022 C1023 1.373 . S
C1022 C1024 1.389 . S
C1023 H1002 0.950 1_565 S
C1023 C1022 1.373 . S
C1023 C1039 1.377 . S
C1024 C1022 1.389 . S
C1024 C1025 1.524 . S
C1024 C1038 1.377 . S
C1025 C1024 1.524 . S
C1025 C1026 1.397 . S
C1025 C1030 1.363 . S
C1026 H1003 0.950 . S
C1026 C1025 1.397 . S
C1026 C1027 1.334 . S
C1027 H1004 0.950 . S
C1027 C1026 1.334 . S
C1027 C1028 1.287 . S
C1028 C1027 1.287 . S
C1028 C1029 1.524 . S
C1028 H1047 0.913 . S
C1029 H1005 0.950 . S
C1029 C1028 1.524 . S
C1029 C1030 1.415 . S
C1030 H1006 0.950 . S
C1030 C1025 1.363 . S
C1030 C1029 1.415 . S
C1031 H1007 0.951 . S
C1031 C1032 1.366 . S
C1031 C1033 1.388 . S
C1032 C1031 1.366 . S
C1032 C1036 1.385 . S
C1033 H1008 0.951 . S
C1033 C1031 1.388 . S
C1033 C1034 1.366 . S
C1034 C1033 1.366 . S
C1034 C1035 1.414 . S
C1034 C1037 1.499 . S
C1035 H1009 0.950 . S
C1035 C1034 1.414 . S
C1035 C1036 1.374 . S
C1036 H1010 0.950 . S
C1036 C1032 1.385 . S
C1036 C1035 1.374 . S
C1037 C1034 1.499 . S
C1037 C1038 1.373 . S
C1037 C1039 1.389 . S
C1038 H1011 0.950 . S
C1038 C1024 1.377 . S
C1038 C1037 1.373 . S
C1039 C1023 1.377 . S
C1039 C1037 1.389 . S
C1039 C1040 1.524 . S
C1040 C1039 1.524 . S
C1040 C1041 1.397 . S
C1040 C1045 1.363 . S
C1041 H1012 0.950 . S
C1041 C1040 1.397 . S
C1041 C1042 1.334 1_455 S
C1042 H1013 0.950 . S
C1042 C1041 1.334 1_655 S
C1042 C1043 1.287 . S
C1043 C1042 1.287 . S
C1043 C1044 1.524 1_665 S
C1043 H1046 0.999 . S
C1044 H1014 0.950 . S
C1044 C1043 1.524 1_445 S
C1044 C1045 1.415 1_545 S
C1045 H1015 0.950 1_565 S
C1045 C1040 1.363 . S
C1045 C1044 1.415 1_565 S
H1046 C1043 0.999 . S
H1047 C1028 0.913 . S
H1048 C1066 0.951 1_556 S
H1049 C1068 0.951 . S
H1050 C1070 0.950 . S
H1051 C1071 0.950 . S
H1052 C1073 0.950 . S
H1053 C1076 0.950 . S
H1054 C1077 0.950 . S
H1055 C1079 0.950 . S
H1056 C1080 0.950 . S
H1057 C1081 0.951 . S
H1058 C1083 0.951 . S
H1059 C1085 0.950 . S
H1060 C1086 0.950 . S
H1061 C1088 0.950 . S
H1062 C1091 0.950 . S
H1063 C1092 0.950 . S
H1064 C1094 0.950 . S
H1065 C1095 0.950 . S
C1066 H1048 0.951 1_554 S
C1066 C1067 1.366 . S
C1066 C1068 1.388 . S
C1067 C1066 1.366 . S
C1067 C1071 1.385 . S
C1068 H1049 0.951 . S
C1068 C1066 1.388 . S
C1068 C1069 1.366 . S
C1069 C1068 1.366 . S
C1069 C1070 1.414 . S
C1069 C1072 1.499 . S
C1070 H1050 0.950 . S
C1070 C1069 1.414 . S
C1070 C1071 1.374 . S
C1071 H1051 0.950 . S
C1071 C1067 1.385 . S
C1071 C1070 1.374 . S
C1072 C1069 1.499 . S
C1072 C1073 1.373 . S
C1072 C1074 1.389 . S
C1073 H1052 0.950 . S
C1073 C1072 1.373 . S
C1073 C1089 1.377 . S
C1074 C1072 1.389 . S
C1074 C1075 1.524 . S
C1074 C1088 1.377 . S
C1075 C1074 1.524 . S
C1075 C1076 1.397 . S
C1075 C1080 1.363 . S
C1076 H1053 0.950 . S
C1076 C1075 1.397 . S
C1076 C1077 1.334 . S
C1077 H1054 0.950 . S
C1077 C1076 1.334 . S
C1077 C1078 1.287 . S
C1078 C1077 1.287 . S
C1078 C1079 1.524 . S
C1078 H1097 0.913 . S
C1079 H1055 0.950 . S
C1079 C1078 1.524 . S
C1079 C1080 1.415 . S
C1080 H1056 0.950 . S
C1080 C1075 1.363 . S
C1080 C1079 1.415 . S
C1081 H1057 0.951 . S
C1081 C1082 1.366 . S
C1081 C1083 1.388 . S
C1082 C1081 1.366 . S
C1082 C1086 1.385 . S
C1083 H1058 0.951 . S
C1083 C1081 1.388 . S
C1083 C1084 1.366 . S
C1084 C1083 1.366 . S
C1084 C1085 1.414 . S
C1084 C1087 1.499 . S
C1085 H1059 0.950 . S
C1085 C1084 1.414 . S
C1085 C1086 1.374 . S
C1086 H1060 0.950 . S
C1086 C1082 1.385 . S
C1086 C1085 1.374 . S
C1087 C1084 1.499 . S
C1087 C1088 1.373 . S
C1087 C1089 1.389 . S
C1088 H1061 0.950 . S
C1088 C1074 1.377 . S
C1088 C1087 1.373 . S
C1089 C1073 1.377 . S
C1089 C1087 1.389 . S
C1089 C1090 1.524 . S
C1090 C1089 1.524 . S
C1090 C1091 1.397 . S
C1090 C1095 1.363 . S
C1091 H1062 0.950 . S
C1091 C1090 1.397 . S
C1091 C1092 1.334 . S
C1092 H1063 0.950 . S
C1092 C1091 1.334 . S
C1092 C1093 1.287 . S
C1093 C1092 1.287 . S
C1093 C1094 1.524 . S
C1093 H1096 0.999 . S
C1094 H1064 0.950 . S
C1094 C1093 1.524 . S
C1094 C1095 1.415 . S
C1095 H1065 0.950 . S
C1095 C1090 1.363 . S
C1095 C1094 1.415 . S
H1096 C1093 0.999 . S
H1097 C1078 0.913 . S
H1098 C1116 0.951 . S
H1099 C1118 0.951 . S
H1100 C1120 0.950 . S
H1101 C1121 0.950 . S
H1102 C1123 0.950 . S
H1103 C1126 0.950 . S
H1104 C1127 0.950 . S
H1105 C1129 0.950 . S
H1106 C1130 0.950 . S
H1107 C1131 0.951 . S
H1108 C1133 0.951 . S
H1109 C1135 0.950 . S
H1110 C1136 0.950 . S
H1111 C1138 0.950 . S
H1112 C1141 0.950 . S
H1113 C1142 0.950 . S
H1114 C1144 0.950 . S
H1115 C1145 0.950 . S
C1116 H1098 0.951 . S
C1116 C1117 1.366 . S
C1116 C1118 1.388 . S
C1117 C1116 1.366 . S
C1117 C1121 1.385 . S
C1118 H1099 0.951 . S
C1118 C1116 1.388 . S
C1118 C1119 1.366 . S
C1119 C1118 1.366 . S
C1119 C1120 1.414 . S
C1119 C1122 1.499 . S
C1120 H1100 0.950 . S
C1120 C1119 1.414 . S
C1120 C1121 1.374 . S
C1121 H1101 0.950 . S
C1121 C1117 1.385 . S
C1121 C1120 1.374 . S
C1122 C1119 1.499 . S
C1122 C1123 1.373 . S
C1122 C1124 1.389 . S
C1123 H1102 0.950 . S
C1123 C1122 1.373 . S
C1123 C1139 1.377 . S
C1124 C1122 1.389 . S
C1124 C1125 1.524 . S
C1124 C1138 1.377 . S
C1125 C1124 1.524 . S
C1125 C1126 1.397 . S
C1125 C1130 1.363 . S
C1126 H1103 0.950 . S
C1126 C1125 1.397 . S
C1126 C1127 1.334 . S
C1127 H1104 0.950 . S
C1127 C1126 1.334 . S
C1127 C1128 1.287 . S
C1128 C1127 1.287 . S
C1128 C1129 1.524 . S
C1128 H1147 0.913 . S
C1129 H1105 0.950 . S
C1129 C1128 1.524 . S
C1129 C1130 1.415 . S
C1130 H1106 0.950 . S
C1130 C1125 1.363 . S
C1130 C1129 1.415 . S
C1131 H1107 0.951 . S
C1131 C1132 1.366 . S
C1131 C1133 1.388 . S
C1132 C1131 1.366 . S
C1132 C1136 1.385 . S
C1133 H1108 0.951 . S
C1133 C1131 1.388 . S
C1133 C1134 1.366 . S
C1134 C1133 1.366 . S
C1134 C1135 1.414 . S
C1134 C1137 1.499 . S
C1135 H1109 0.950 . S
C1135 C1134 1.414 . S
C1135 C1136 1.374 . S
C1136 H1110 0.950 . S
C1136 C1132 1.385 . S
C1136 C1135 1.374 . S
C1137 C1134 1.499 . S
C1137 C1138 1.373 . S
C1137 C1139 1.389 . S
C1138 H1111 0.950 . S
C1138 C1124 1.377 . S
C1138 C1137 1.373 . S
C1139 C1123 1.377 . S
C1139 C1137 1.389 . S
C1139 C1140 1.524 . S
C1140 C1139 1.524 . S
C1140 C1141 1.397 . S
C1140 C1145 1.363 . S
C1141 H1112 0.950 . S
C1141 C1140 1.397 . S
C1141 C1142 1.334 . S
C1142 H1113 0.950 . S
C1142 C1141 1.334 . S
C1142 C1143 1.287 . S
C1143 C1142 1.287 . S
C1143 C1144 1.524 . S
C1143 H1146 0.999 . S
C1144 H1114 0.950 . S
C1144 C1143 1.524 . S
C1144 C1145 1.415 . S
C1145 H1115 0.950 . S
C1145 C1140 1.363 . S
C1145 C1144 1.415 . S
H1146 C1143 0.999 . S
H1147 C1128 0.913 . S
H1148 C1166 0.965 . S
H1149 C1168 0.951 . S
H1150 C1170 0.950 . S
H1151 C1171 0.950 . S
H1152 C1173 0.950 . S
H1153 C1176 0.950 . S
H1154 C1177 0.950 . S
H1155 C1179 0.950 . S
H1156 C1180 0.950 . S
H1157 C1181 0.951 . S
H1158 C1183 0.951 . S
H1159 C1185 0.950 . S
H1160 C1186 0.950 . S
H1161 C1188 0.950 . S
H1162 C1191 0.950 . S
H1163 C1192 0.950 . S
H1164 C1194 0.950 . S
H1165 C1195 0.950 . S
C1166 H1148 0.965 . S
C1166 C1167 1.365 . S
C1166 C1168 1.388 . S
C1167 C1166 1.365 . S
C1167 C1171 1.383 . S
C1168 H1149 0.951 . S
C1168 C1166 1.388 . S
C1168 C1169 1.366 . S
C1169 C1168 1.366 . S
C1169 C1170 1.414 . S
C1169 C1172 1.499 . S
C1170 H1150 0.950 . S
C1170 C1169 1.414 . S
C1170 C1171 1.374 . S
C1171 H1151 0.950 . S
C1171 C1167 1.383 . S
C1171 C1170 1.374 . S
C1172 C1169 1.499 . S
C1172 C1173 1.373 . S
C1172 C1174 1.389 . S
C1173 H1152 0.950 . S
C1173 C1172 1.373 . S
C1173 C1189 1.377 . S
C1174 C1172 1.389 . S
C1174 C1175 1.524 . S
C1174 C1188 1.377 . S
C1175 C1174 1.524 . S
C1175 C1176 1.397 . S
C1175 C1180 1.363 . S
C1176 H1153 0.950 . S
C1176 C1175 1.397 . S
C1176 C1177 1.334 . S
C1177 H1154 0.950 . S
C1177 C1176 1.334 . S
C1177 C1178 1.287 . S
C1178 C1177 1.287 . S
C1178 C1179 1.524 . S
C1178 H1197 0.913 . S
C1179 H1155 0.950 . S
C1179 C1178 1.524 . S
C1179 C1180 1.415 . S
C1180 H1156 0.950 . S
C1180 C1175 1.363 . S
C1180 C1179 1.415 . S
C1181 H1157 0.951 . S
C1181 C1182 1.366 . S
C1181 C1183 1.388 . S
C1182 C1181 1.366 . S
C1182 C1186 1.385 . S
C1183 H1158 0.951 . S
C1183 C1181 1.388 . S
C1183 C1184 1.366 . S
C1184 C1183 1.366 . S
C1184 C1185 1.414 . S
C1184 C1187 1.499 . S
C1185 H1159 0.950 . S
C1185 C1184 1.414 . S
C1185 C1186 1.374 . S
C1186 H1160 0.950 . S
C1186 C1182 1.385 . S
C1186 C1185 1.374 . S
C1187 C1184 1.499 . S
C1187 C1188 1.373 . S
C1187 C1189 1.389 . S
C1188 H1161 0.950 . S
C1188 C1174 1.377 . S
C1188 C1187 1.373 . S
C1189 C1173 1.377 . S
C1189 C1187 1.389 . S
C1189 C1190 1.524 . S
C1190 C1189 1.524 . S
C1190 C1191 1.397 . S
C1190 C1195 1.363 . S
C1191 H1162 0.950 . S
C1191 C1190 1.397 . S
C1191 C1192 1.334 . S
C1192 H1163 0.950 . S
C1192 C1191 1.334 . S
C1192 C1193 1.287 . S
C1193 C1192 1.287 . S
C1193 C1194 1.524 . S
C1193 H1196 0.999 . S
C1194 H1164 0.950 . S
C1194 C1193 1.524 . S
C1194 C1195 1.415 . S
C1195 H1165 0.950 . S
C1195 C1190 1.363 . S
C1195 C1194 1.415 . S
H1196 C1193 0.999 . S
H1197 C1178 0.913 . S
H1198 C1216 0.951 . S
H1199 C1218 0.951 . S
H1200 C1220 0.950 . S
H1201 C1221 0.950 . S
H1202 C1223 0.950 . S
H1203 C1226 0.950 . S
H1204 C1227 0.950 . S
H1205 C1229 0.950 . S
H1206 C1230 0.950 . S
H1207 C1231 0.951 . S
H1208 C1233 0.951 . S
H1209 C1235 0.950 . S
H1210 C1236 0.950 . S
H1211 C1238 0.950 . S
H1212 C1241 0.950 . S
H1213 C1242 0.950 . S
H1214 C1244 0.950 . S
H1215 C1245 0.950 . S
C1216 H1198 0.951 . S
C1216 C1217 1.366 . S
C1216 C1218 1.388 . S
C1217 C1216 1.366 . S
C1217 C1221 1.385 . S
C1218 H1199 0.951 . S
C1218 C1216 1.388 . S
C1218 C1219 1.366 . S
C1219 C1218 1.366 . S
C1219 C1220 1.414 . S
C1219 C1222 1.499 . S
C1220 H1200 0.950 . S
C1220 C1219 1.414 . S
C1220 C1221 1.374 . S
C1221 H1201 0.950 . S
C1221 C1217 1.385 . S
C1221 C1220 1.374 . S
C1222 C1219 1.499 . S
C1222 C1223 1.373 . S
C1222 C1224 1.389 . S
C1223 H1202 0.950 . S
C1223 C1222 1.373 . S
C1223 C1239 1.377 . S
C1224 C1222 1.389 . S
C1224 C1225 1.524 . S
C1224 C1238 1.377 . S
C1225 C1224 1.524 . S
C1225 C1226 1.397 . S
C1225 C1230 1.363 . S
C1226 H1203 0.950 . S
C1226 C1225 1.397 . S
C1226 C1227 1.334 . S
C1227 H1204 0.950 . S
C1227 C1226 1.334 . S
C1227 C1228 1.287 . S
C1228 C1227 1.287 . S
C1228 C1229 1.524 . S
C1228 H1247 0.913 . S
C1229 H1205 0.950 . S
C1229 C1228 1.524 . S
C1229 C1230 1.415 . S
C1230 H1206 0.950 . S
C1230 C1225 1.363 . S
C1230 C1229 1.415 . S
C1231 H1207 0.951 . S
C1231 C1232 1.366 . S
C1231 C1233 1.388 . S
C1232 C1231 1.366 . S
C1232 C1236 1.385 . S
C1233 H1208 0.951 . S
C1233 C1231 1.388 . S
C1233 C1234 1.366 . S
C1234 C1233 1.366 . S
C1234 C1235 1.414 . S
C1234 C1237 1.499 . S
C1235 H1209 0.950 . S
C1235 C1234 1.414 . S
C1235 C1236 1.374 . S
C1236 H1210 0.950 . S
C1236 C1232 1.385 . S
C1236 C1235 1.374 . S
C1237 C1234 1.499 . S
C1237 C1238 1.373 . S
C1237 C1239 1.389 . S
C1238 H1211 0.950 . S
C1238 C1224 1.377 . S
C1238 C1237 1.373 . S
C1239 C1223 1.377 . S
C1239 C1237 1.389 . S
C1239 C1240 1.524 . S
C1240 C1239 1.524 . S
C1240 C1241 1.397 . S
C1240 C1245 1.363 . S
C1241 H1212 0.950 . S
C1241 C1240 1.397 . S
C1241 C1242 1.334 . S
C1242 H1213 0.950 . S
C1242 C1241 1.334 . S
C1242 C1243 1.287 . S
C1243 C1242 1.287 . S
C1243 C1244 1.524 . S
C1243 H1246 0.999 . S
C1244 H1214 0.950 . S
C1244 C1243 1.524 . S
C1244 C1245 1.415 . S
C1245 H1215 0.950 . S
C1245 C1240 1.363 . S
C1245 C1244 1.415 . S
H1246 C1243 0.999 . S
H1247 C1228 0.913 . S
H1248 C1266 0.951 . S
H1249 C1268 0.951 . S
H1250 C1270 0.950 . S
H1251 C1271 0.950 1_554 S
H1252 C1273 0.950 . S
H1253 C1276 0.950 . S
H1254 C1277 0.950 . S
H1255 C1279 0.950 . S
H1256 C1280 0.950 . S
H1257 C1281 0.951 . S
H1258 C1283 0.951 . S
H1259 C1285 0.950 . S
H1260 C1286 0.950 . S
H1261 C1288 0.950 . S
H1262 C1291 0.950 . S
H1263 C1292 0.950 1_455 S
H1264 C1294 0.950 . S
H1265 C1295 0.950 . S
C1266 H1248 0.951 . S
C1266 C1267 1.366 . S
C1266 C1268 1.388 . S
C1267 C1266 1.366 . S
C1267 C1271 1.385 . S
C1268 H1249 0.951 . S
C1268 C1266 1.388 . S
C1268 C1269 1.366 . S
C1269 C1268 1.366 . S
C1269 C1270 1.414 . S
C1269 C1272 1.499 . S
C1270 H1250 0.950 . S
C1270 C1269 1.414 . S
C1270 C1271 1.374 . S
C1271 H1251 0.950 1_556 S
C1271 C1267 1.385 . S
C1271 C1270 1.374 . S
C1272 C1269 1.499 . S
C1272 C1273 1.373 . S
C1272 C1274 1.389 . S
C1273 H1252 0.950 . S
C1273 C1272 1.373 . S
C1273 C1289 1.377 . S
C1274 C1272 1.389 . S
C1274 C1275 1.524 . S
C1274 C1288 1.377 . S
C1275 C1274 1.524 . S
C1275 C1276 1.397 . S
C1275 C1280 1.363 . S
C1276 H1253 0.950 . S
C1276 C1275 1.397 . S
C1276 C1277 1.334 . S
C1277 H1254 0.950 . S
C1277 C1276 1.334 . S
C1277 C1278 1.287 . S
C1278 C1277 1.287 . S
C1278 C1279 1.524 . S
C1278 H1297 0.913 . S
C1279 H1255 0.950 . S
C1279 C1278 1.524 . S
C1279 C1280 1.415 . S
C1280 H1256 0.950 . S
C1280 C1275 1.363 . S
C1280 C1279 1.415 . S
C1281 H1257 0.951 . S
C1281 C1282 1.366 . S
C1281 C1283 1.388 . S
C1282 C1281 1.366 . S
C1282 C1286 1.385 . S
C1283 H1258 0.951 . S
C1283 C1281 1.388 . S
C1283 C1284 1.366 . S
C1284 C1283 1.366 . S
C1284 C1285 1.414 . S
C1284 C1287 1.499 . S
C1285 H1259 0.950 . S
C1285 C1284 1.414 . S
C1285 C1286 1.374 . S
C1286 H1260 0.950 . S
C1286 C1282 1.385 . S
C1286 C1285 1.374 . S
C1287 C1284 1.499 . S
C1287 C1288 1.373 . S
C1287 C1289 1.389 . S
C1288 H1261 0.950 . S
C1288 C1274 1.377 . S
C1288 C1287 1.373 . S
C1289 C1273 1.377 . S
C1289 C1287 1.389 . S
C1289 C1290 1.524 . S
C1290 C1289 1.524 . S
C1290 C1291 1.397 . S
C1290 C1295 1.363 . S
C1291 H1262 0.950 . S
C1291 C1290 1.397 . S
C1291 C1292 1.334 . S
C1292 H1263 0.950 1_655 S
C1292 C1291 1.334 . S
C1292 C1293 1.287 1_655 S
C1293 C1292 1.287 1_455 S
C1293 C1294 1.524 . S
C1293 H1296 0.999 . S
C1294 H1264 0.950 . S
C1294 C1293 1.524 . S
C1294 C1295 1.415 1_455 S
C1295 H1265 0.950 . S
C1295 C1290 1.363 . S
C1295 C1294 1.415 1_655 S
H1296 C1293 0.999 . S
H1297 C1278 0.913 . S
H1298 C1316 0.951 . S
H1299 C1318 0.951 . S
H1300 C1320 0.950 . S
H1301 C1321 0.950 . S
H1302 C1323 0.950 . S
H1303 C1326 0.950 . S
H1304 C1327 0.950 . S
H1305 C1329 0.950 . S
H1306 C1330 0.950 . S
H1307 C1331 0.951 . S
H1308 C1333 0.951 . S
H1309 C1335 0.950 . S
H1310 C1336 0.950 . S
H1311 C1338 0.950 . S
H1312 C1341 0.950 . S
H1313 C1342 0.950 . S
H1314 C1344 0.950 . S
H1315 C1345 0.950 . S
C1316 H1298 0.951 . S
C1316 C1317 1.366 . S
C1316 C1318 1.388 . S
C1317 C1316 1.366 . S
C1317 C1321 1.385 . S
C1318 H1299 0.951 . S
C1318 C1316 1.388 . S
C1318 C1319 1.366 . S
C1319 C1318 1.366 . S
C1319 C1320 1.414 . S
C1319 C1322 1.499 . S
C1320 H1300 0.950 . S
C1320 C1319 1.414 . S
C1320 C1321 1.374 . S
C1321 H1301 0.950 . S
C1321 C1317 1.385 . S
C1321 C1320 1.374 . S
C1322 C1319 1.499 . S
C1322 C1323 1.373 . S
C1322 C1324 1.389 . S
C1323 H1302 0.950 . S
C1323 C1322 1.373 . S
C1323 C1339 1.377 . S
C1324 C1322 1.389 . S
C1324 C1325 1.524 . S
C1324 C1338 1.377 . S
C1325 C1324 1.524 . S
C1325 C1326 1.397 . S
C1325 C1330 1.363 . S
C1326 H1303 0.950 . S
C1326 C1325 1.397 . S
C1326 C1327 1.334 . S
C1327 H1304 0.950 . S
C1327 C1326 1.334 . S
C1327 C1328 1.287 . S
C1328 C1327 1.287 . S
C1328 C1329 1.524 . S
C1328 H1347 0.913 . S
C1329 H1305 0.950 . S
C1329 C1328 1.524 . S
C1329 C1330 1.415 . S
C1330 H1306 0.950 . S
C1330 C1325 1.363 . S
C1330 C1329 1.415 . S
C1331 H1307 0.951 . S
C1331 C1332 1.366 . S
C1331 C1333 1.388 . S
C1332 C1331 1.366 . S
C1332 C1336 1.385 . S
C1333 H1308 0.951 . S
C1333 C1331 1.388 . S
C1333 C1334 1.366 . S
C1334 C1333 1.366 . S
C1334 C1335 1.414 . S
C1334 C1337 1.499 . S
C1335 H1309 0.950 . S
C1335 C1334 1.414 . S
C1335 C1336 1.374 . S
C1336 H1310 0.950 . S
C1336 C1332 1.385 . S
C1336 C1335 1.374 . S
C1337 C1334 1.499 . S
C1337 C1338 1.373 . S
C1337 C1339 1.389 . S
C1338 H1311 0.950 . S
C1338 C1324 1.377 . S
C1338 C1337 1.373 . S
C1339 C1323 1.377 . S
C1339 C1337 1.389 . S
C1339 C1340 1.524 . S
C1340 C1339 1.524 . S
C1340 C1341 1.397 . S
C1340 C1345 1.363 . S
C1341 H1312 0.950 . S
C1341 C1340 1.397 . S
C1341 C1342 1.334 . S
C1342 H1313 0.950 . S
C1342 C1341 1.334 . S
C1342 C1343 1.287 . S
C1343 C1342 1.287 . S
C1343 C1344 1.524 . S
C1343 H1346 0.999 . S
C1344 H1314 0.950 . S
C1344 C1343 1.524 . S
C1344 C1345 1.415 . S
C1345 H1315 0.950 . S
C1345 C1340 1.363 . S
C1345 C1344 1.415 . S
H1346 C1343 0.999 . S
H1347 C1328 0.913 . S
H1348 C1366 0.951 . S
H1349 C1368 0.951 . S
H1350 C1370 0.950 . S
H1351 C1371 0.950 1_556 S
H1352 C1373 0.950 . S
H1353 C1376 0.950 . S
H1354 C1377 0.950 . S
H1355 C1379 0.950 . S
H1356 C1380 0.950 . S
H1357 C1381 0.951 . S
H1358 C1383 0.951 . S
H1359 C1385 0.950 . S
H1360 C1386 0.950 . S
H1361 C1388 0.950 . S
H1362 C1391 0.950 . S
H1363 C1392 0.950 . S
H1364 C1394 0.950 . S
H1365 C1395 0.950 . S
C1366 H1348 0.951 . S
C1366 C1367 1.361 1_554 S
C1366 C1368 1.388 . S
C1367 C1366 1.361 1_556 S
C1367 C1371 1.382 1_556 S
C1368 H1349 0.951 . S
C1368 C1366 1.388 . S
C1368 C1369 1.366 . S
C1369 C1368 1.366 . S
C1369 C1370 1.414 . S
C1369 C1372 1.499 . S
C1370 H1350 0.950 . S
C1370 C1369 1.414 . S
C1370 C1371 1.374 . S
C1371 H1351 0.950 1_554 S
C1371 C1367 1.382 1_554 S
C1371 C1370 1.374 . S
C1372 C1369 1.499 . S
C1372 C1373 1.373 . S
C1372 C1374 1.389 . S
C1373 H1352 0.950 . S
C1373 C1372 1.373 . S
C1373 C1389 1.377 . S
C1374 C1372 1.389 . S
C1374 C1375 1.524 . S
C1374 C1388 1.377 . S
C1375 C1374 1.524 . S
C1375 C1376 1.397 . S
C1375 C1380 1.363 . S
C1376 H1353 0.950 . S
C1376 C1375 1.397 . S
C1376 C1377 1.334 . S
C1377 H1354 0.950 . S
C1377 C1376 1.334 . S
C1377 C1378 1.287 . S
C1378 C1377 1.287 . S
C1378 C1379 1.524 . S
C1378 H1397 0.913 . S
C1379 H1355 0.950 . S
C1379 C1378 1.524 . S
C1379 C1380 1.415 . S
C1380 H1356 0.950 . S
C1380 C1375 1.363 . S
C1380 C1379 1.415 . S
C1381 H1357 0.951 . S
C1381 C1382 1.366 . S
C1381 C1383 1.388 . S
C1382 C1381 1.366 . S
C1382 C1386 1.385 . S
C1383 H1358 0.951 . S
C1383 C1381 1.388 . S
C1383 C1384 1.366 . S
C1384 C1383 1.366 . S
C1384 C1385 1.414 . S
C1384 C1387 1.499 . S
C1385 H1359 0.950 . S
C1385 C1384 1.414 . S
C1385 C1386 1.374 . S
C1386 H1360 0.950 . S
C1386 C1382 1.385 . S
C1386 C1385 1.374 . S
C1387 C1384 1.499 . S
C1387 C1388 1.373 . S
C1387 C1389 1.389 . S
C1388 H1361 0.950 . S
C1388 C1374 1.377 . S
C1388 C1387 1.373 . S
C1389 C1373 1.377 . S
C1389 C1387 1.389 . S
C1389 C1390 1.524 . S
C1390 C1389 1.524 . S
C1390 C1391 1.397 . S
C1390 C1395 1.363 . S
C1391 H1362 0.950 . S
C1391 C1390 1.397 . S
C1391 C1392 1.334 . S
C1392 H1363 0.950 . S
C1392 C1391 1.334 . S
C1392 C1393 1.287 . S
C1393 C1392 1.287 . S
C1393 C1394 1.524 . S
C1393 H1396 0.999 . S
C1394 H1364 0.950 . S
C1394 C1393 1.524 . S
C1394 C1395 1.415 . S
C1395 H1365 0.950 . S
C1395 C1390 1.363 . S
C1395 C1394 1.415 . S
H1396 C1393 0.999 . S
H1397 C1378 0.913 . S
H1398 C1416 0.951 . S
H1399 C1418 0.951 . S
H1400 C1420 0.950 . S
H1401 C1421 0.950 . S
H1402 C1423 0.950 . S
H1403 C1426 0.950 . S
H1404 C1427 0.950 . S
H1405 C1429 0.950 . S
H1406 C1430 0.950 . S
H1407 C1431 0.951 . S
H1408 C1433 0.951 . S
H1409 C1435 0.950 . S
H1410 C1436 0.950 . S
H1411 C1438 0.950 . S
H1412 C1441 0.950 . S
H1413 C1442 0.950 . S
H1414 C1444 0.950 . S
H1415 C1445 0.950 . S
C1416 H1398 0.951 . S
C1416 C1417 1.366 . S
C1416 C1418 1.388 . S
C1417 C1416 1.366 . S
C1417 C1421 1.385 . S
C1418 H1399 0.951 . S
C1418 C1416 1.388 . S
C1418 C1419 1.366 . S
C1419 C1418 1.366 . S
C1419 C1420 1.414 . S
C1419 C1422 1.499 . S
C1420 H1400 0.950 . S
C1420 C1419 1.414 . S
C1420 C1421 1.374 . S
C1421 H1401 0.950 . S
C1421 C1417 1.385 . S
C1421 C1420 1.374 . S
C1422 C1419 1.499 . S
C1422 C1423 1.373 . S
C1422 C1424 1.389 . S
C1423 H1402 0.950 . S
C1423 C1422 1.373 . S
C1423 C1439 1.377 . S
C1424 C1422 1.389 . S
C1424 C1425 1.524 . S
C1424 C1438 1.377 . S
C1425 C1424 1.524 . S
C1425 C1426 1.397 . S
C1425 C1430 1.363 . S
C1426 H1403 0.950 . S
C1426 C1425 1.397 . S
C1426 C1427 1.334 . S
C1427 H1404 0.950 . S
C1427 C1426 1.334 . S
C1427 C1428 1.287 . S
C1428 C1427 1.287 . S
C1428 C1429 1.524 . S
C1428 H1447 0.913 . S
C1429 H1405 0.950 . S
C1429 C1428 1.524 . S
C1429 C1430 1.415 . S
C1430 H1406 0.950 . S
C1430 C1425 1.363 . S
C1430 C1429 1.415 . S
C1431 H1407 0.951 . S
C1431 C1432 1.366 . S
C1431 C1433 1.388 . S
C1432 C1431 1.366 . S
C1432 C1436 1.385 . S
C1433 H1408 0.951 . S
C1433 C1431 1.388 . S
C1433 C1434 1.366 . S
C1434 C1433 1.366 . S
C1434 C1435 1.414 . S
C1434 C1437 1.499 . S
C1435 H1409 0.950 . S
C1435 C1434 1.414 . S
C1435 C1436 1.374 . S
C1436 H1410 0.950 . S
C1436 C1432 1.385 . S
C1436 C1435 1.374 . S
C1437 C1434 1.499 . S
C1437 C1438 1.373 . S
C1437 C1439 1.389 . S
C1438 H1411 0.950 . S
C1438 C1424 1.377 . S
C1438 C1437 1.373 . S
C1439 C1423 1.377 . S
C1439 C1437 1.389 . S
C1439 C1440 1.524 . S
C1440 C1439 1.524 . S
C1440 C1441 1.397 . S
C1440 C1445 1.363 . S
C1441 H1412 0.950 . S
C1441 C1440 1.397 . S
C1441 C1442 1.334 . S
C1442 H1413 0.950 . S
C1442 C1441 1.334 . S
C1442 C1443 1.287 . S
C1443 C1442 1.287 . S
C1443 C1444 1.524 . S
C1443 H1446 0.999 . S
C1444 H1414 0.950 . S
C1444 C1443 1.524 . S
C1444 C1445 1.415 . S
C1445 H1415 0.950 . S
C1445 C1440 1.363 . S
C1445 C1444 1.415 . S
H1446 C1443 0.999 . S
H1447 C1428 0.913 . S
H1448 C1466 0.951 . S
H1449 C1468 0.951 . S
H1450 C1470 0.950 . S
H1451 C1471 0.950 . S
H1452 C1473 0.950 . S
H1453 C1476 0.950 . S
H1454 C1477 0.950 . S
H1455 C1479 0.950 1_655 S
H1456 C1480 0.950 . S
H1457 C1481 0.951 . S
H1458 C1483 0.951 . S
H1459 C1485 0.950 . S
H1460 C1486 0.950 . S
H1461 C1488 0.950 . S
H1462 C1491 0.950 . S
H1463 C1492 0.950 . S
H1464 C1494 0.950 . S
H1465 C1495 0.950 . S
C1466 H1448 0.951 . S
C1466 C1467 1.366 . S
C1466 C1468 1.388 . S
C1467 C1466 1.366 . S
C1467 C1471 1.385 . S
C1468 H1449 0.951 . S
C1468 C1466 1.388 . S
C1468 C1469 1.366 . S
C1469 C1468 1.366 . S
C1469 C1470 1.414 . S
C1469 C1472 1.499 . S
C1470 H1450 0.950 . S
C1470 C1469 1.414 . S
C1470 C1471 1.374 . S
C1471 H1451 0.950 . S
C1471 C1467 1.385 . S
C1471 C1470 1.374 . S
C1472 C1469 1.499 . S
C1472 C1473 1.373 . S
C1472 C1474 1.389 . S
C1473 H1452 0.950 . S
C1473 C1472 1.373 . S
C1473 C1489 1.377 . S
C1474 C1472 1.389 . S
C1474 C1475 1.524 . S
C1474 C1488 1.377 . S
C1475 C1474 1.524 . S
C1475 C1476 1.397 . S
C1475 C1480 1.363 . S
C1476 H1453 0.950 . S
C1476 C1475 1.397 . S
C1476 C1477 1.334 . S
C1477 H1454 0.950 . S
C1477 C1476 1.334 . S
C1477 C1478 1.287 . S
C1478 C1477 1.287 . S
C1478 C1479 1.524 . S
C1478 H1497 0.913 . S
C1479 H1455 0.950 1_455 S
C1479 C1478 1.524 . S
C1479 C1480 1.415 . S
C1480 H1456 0.950 . S
C1480 C1475 1.363 . S
C1480 C1479 1.415 . S
C1481 H1457 0.951 . S
C1481 C1482 1.366 . S
C1481 C1483 1.388 . S
C1482 C1481 1.366 . S
C1482 C1486 1.385 . S
C1483 H1458 0.951 . S
C1483 C1481 1.388 . S
C1483 C1484 1.366 . S
C1484 C1483 1.366 . S
C1484 C1485 1.414 . S
C1484 C1487 1.499 . S
C1485 H1459 0.950 . S
C1485 C1484 1.414 . S
C1485 C1486 1.374 . S
C1486 H1460 0.950 . S
C1486 C1482 1.385 . S
C1486 C1485 1.374 . S
C1487 C1484 1.499 . S
C1487 C1488 1.373 . S
C1487 C1489 1.389 . S
C1488 H1461 0.950 . S
C1488 C1474 1.377 . S
C1488 C1487 1.373 . S
C1489 C1473 1.377 . S
C1489 C1487 1.389 . S
C1489 C1490 1.524 . S
C1490 C1489 1.524 . S
C1490 C1491 1.397 . S
C1490 C1495 1.363 . S
C1491 H1462 0.950 . S
C1491 C1490 1.397 . S
C1491 C1492 1.334 . S
C1492 H1463 0.950 . S
C1492 C1491 1.334 . S
C1492 C1493 1.287 . S
C1493 C1492 1.287 . S
C1493 C1494 1.524 . S
C1493 H1496 0.999 . S
C1494 H1464 0.950 . S
C1494 C1493 1.524 . S
C1494 C1495 1.415 . S
C1495 H1465 0.950 . S
C1495 C1490 1.363 . S
C1495 C1494 1.415 . S
H1496 C1493 0.999 . S
H1497 C1478 0.913 . S
H1498 C1516 0.951 . S
H1499 C1518 0.951 . S
H1500 C1520 0.950 . S
H1501 C1521 0.950 . S
H1502 C1523 0.950 . S
H1503 C1526 0.950 . S
H1504 C1527 0.950 . S
H1505 C1529 0.950 . S
H1506 C1530 0.950 . S
H1507 C1531 0.951 . S
H1508 C1533 0.951 . S
H1509 C1535 0.950 . S
H1510 C1536 0.950 . S
H1511 C1538 0.950 . S
H1512 C1541 0.950 . S
H1513 C1542 0.950 . S
H1514 C1544 0.950 . S
H1515 C1545 0.950 . S
C1516 H1498 0.951 . S
C1516 C1517 1.366 . S
C1516 C1518 1.388 . S
C1517 C1516 1.366 . S
C1517 C1521 1.385 . S
C1518 H1499 0.951 . S
C1518 C1516 1.388 . S
C1518 C1519 1.366 . S
C1519 C1518 1.366 . S
C1519 C1520 1.414 . S
C1519 C1522 1.499 . S
C1520 H1500 0.950 . S
C1520 C1519 1.414 . S
C1520 C1521 1.374 . S
C1521 H1501 0.950 . S
C1521 C1517 1.385 . S
C1521 C1520 1.374 . S
C1522 C1519 1.499 . S
C1522 C1523 1.373 . S
C1522 C1524 1.389 . S
C1523 H1502 0.950 . S
C1523 C1522 1.373 . S
C1523 C1539 1.377 . S
C1524 C1522 1.389 . S
C1524 C1525 1.524 . S
C1524 C1538 1.377 . S
C1525 C1524 1.524 . S
C1525 C1526 1.397 . S
C1525 C1530 1.363 . S
C1526 H1503 0.950 . S
C1526 C1525 1.397 . S
C1526 C1527 1.334 . S
C1527 H1504 0.950 . S
C1527 C1526 1.334 . S
C1527 C1528 1.287 . S
C1528 C1527 1.287 . S
C1528 C1529 1.524 . S
C1528 H1547 0.913 . S
C1529 H1505 0.950 . S
C1529 C1528 1.524 . S
C1529 C1530 1.415 . S
C1530 H1506 0.950 . S
C1530 C1525 1.363 . S
C1530 C1529 1.415 . S
C1531 H1507 0.951 . S
C1531 C1532 1.366 . S
C1531 C1533 1.388 . S
C1532 C1531 1.366 . S
C1532 C1536 1.385 . S
C1533 H1508 0.951 . S
C1533 C1531 1.388 . S
C1533 C1534 1.366 . S
C1534 C1533 1.366 . S
C1534 C1535 1.414 . S
C1534 C1537 1.499 . S
C1535 H1509 0.950 . S
C1535 C1534 1.414 . S
C1535 C1536 1.374 . S
C1536 H1510 0.950 . S
C1536 C1532 1.385 . S
C1536 C1535 1.374 . S
C1537 C1534 1.499 . S
C1537 C1538 1.373 . S
C1537 C1539 1.389 . S
C1538 H1511 0.950 . S
C1538 C1524 1.377 . S
C1538 C1537 1.373 . S
C1539 C1523 1.377 . S
C1539 C1537 1.389 . S
C1539 C1540 1.524 . S
C1540 C1539 1.524 . S
C1540 C1541 1.397 . S
C1540 C1545 1.363 . S
C1541 H1512 0.950 . S
C1541 C1540 1.397 . S
C1541 C1542 1.334 . S
C1542 H1513 0.950 . S
C1542 C1541 1.334 . S
C1542 C1543 1.287 . S
C1543 C1542 1.287 . S
C1543 C1544 1.524 . S
C1543 H1546 0.999 . S
C1544 H1514 0.950 . S
C1544 C1543 1.524 . S
C1544 C1545 1.415 . S
C1545 H1515 0.950 . S
C1545 C1540 1.363 . S
C1545 C1544 1.415 . S
H1546 C1543 0.999 . S
H1547 C1528 0.913 . S
H1548 C1566 0.951 . S
H1549 C1568 0.951 . S
H1550 C1570 0.950 . S
H1551 C1571 0.950 . S
H1552 C1573 0.950 . S
H1553 C1576 0.950 . S
H1554 C1577 0.950 . S
H1555 C1579 0.950 . S
H1556 C1580 0.950 . S
H1557 C1581 0.951 . S
H1558 C1583 0.951 . S
H1559 C1585 0.950 . S
H1560 C1586 0.950 . S
H1561 C1588 0.950 . S
H1562 C1591 0.950 . S
H1563 C1592 0.950 . S
H1564 C1594 0.950 . S
H1565 C1595 0.950 . S
C1566 H1548 0.951 . S
C1566 C1567 1.366 . S
C1566 C1568 1.388 . S
C1567 C1566 1.366 . S
C1567 C1571 1.385 . S
C1568 H1549 0.951 . S
C1568 C1566 1.388 . S
C1568 C1569 1.366 . S
C1569 C1568 1.366 . S
C1569 C1570 1.414 . S
C1569 C1572 1.499 . S
C1570 H1550 0.950 . S
C1570 C1569 1.414 . S
C1570 C1571 1.374 . S
C1571 H1551 0.950 . S
C1571 C1567 1.385 . S
C1571 C1570 1.374 . S
C1572 C1569 1.499 . S
C1572 C1573 1.373 . S
C1572 C1574 1.389 . S
C1573 H1552 0.950 . S
C1573 C1572 1.373 . S
C1573 C1589 1.377 . S
C1574 C1572 1.389 . S
C1574 C1575 1.524 . S
C1574 C1588 1.377 . S
C1575 C1574 1.524 . S
C1575 C1576 1.397 . S
C1575 C1580 1.363 . S
C1576 H1553 0.950 . S
C1576 C1575 1.397 . S
C1576 C1577 1.334 . S
C1577 H1554 0.950 . S
C1577 C1576 1.334 . S
C1577 C1578 1.287 . S
C1578 C1577 1.287 . S
C1578 C1579 1.524 . S
C1578 H1597 0.913 . S
C1579 H1555 0.950 . S
C1579 C1578 1.524 . S
C1579 C1580 1.415 . S
C1580 H1556 0.950 . S
C1580 C1575 1.363 . S
C1580 C1579 1.415 . S
C1581 H1557 0.951 . S
C1581 C1582 1.366 . S
C1581 C1583 1.388 . S
C1582 C1581 1.366 . S
C1582 C1586 1.385 . S
C1583 H1558 0.951 . S
C1583 C1581 1.388 . S
C1583 C1584 1.366 . S
C1584 C1583 1.366 . S
C1584 C1585 1.414 . S
C1584 C1587 1.499 . S
C1585 H1559 0.950 . S
C1585 C1584 1.414 . S
C1585 C1586 1.374 . S
C1586 H1560 0.950 . S
C1586 C1582 1.385 . S
C1586 C1585 1.374 . S
C1587 C1584 1.499 . S
C1587 C1588 1.373 . S
C1587 C1589 1.389 . S
C1588 H1561 0.950 . S
C1588 C1574 1.377 . S
C1588 C1587 1.373 . S
C1589 C1573 1.377 . S
C1589 C1587 1.389 . S
C1589 C1590 1.524 . S
C1590 C1589 1.524 . S
C1590 C1591 1.397 . S
C1590 C1595 1.363 . S
C1591 H1562 0.950 . S
C1591 C1590 1.397 . S
C1591 C1592 1.334 . S
C1592 H1563 0.950 . S
C1592 C1591 1.334 . S
C1592 C1593 1.287 . S
C1593 C1592 1.287 . S
C1593 C1594 1.524 . S
C1593 H1596 0.999 . S
C1594 H1564 0.950 . S
C1594 C1593 1.524 . S
C1594 C1595 1.415 . S
C1595 H1565 0.950 . S
C1595 C1590 1.363 . S
C1595 C1594 1.415 . S
H1596 C1593 0.999 . S
H1597 C1578 0.913 . S
H1598 C1616 0.951 . S
H1599 C1618 0.951 . S
H1600 C1620 0.950 . S
H1601 C1621 0.950 . S
H1602 C1623 0.950 . S
H1603 C1626 0.950 . S
H1604 C1627 0.950 . S
H1605 C1629 0.950 . S
H1606 C1630 0.950 . S
H1607 C1631 0.951 . S
H1608 C1633 0.951 . S
H1609 C1635 0.950 . S
H1610 C1636 0.950 . S
H1611 C1638 0.950 . S
H1612 C1641 0.950 . S
H1613 C1642 0.950 . S
H1614 C1644 0.950 . S
H1615 C1645 0.950 . S
C1616 H1598 0.951 . S
C1616 C1617 1.366 . S
C1616 C1618 1.388 . S
C1617 C1616 1.366 . S
C1617 C1621 1.385 . S
C1618 H1599 0.951 . S
C1618 C1616 1.388 . S
C1618 C1619 1.366 . S
C1619 C1618 1.366 . S
C1619 C1620 1.414 . S
C1619 C1622 1.499 . S
C1620 H1600 0.950 . S
C1620 C1619 1.414 . S
C1620 C1621 1.374 . S
C1621 H1601 0.950 . S
C1621 C1617 1.385 . S
C1621 C1620 1.374 . S
C1622 C1619 1.499 . S
C1622 C1623 1.373 . S
C1622 C1624 1.389 . S
C1623 H1602 0.950 . S
C1623 C1622 1.373 . S
C1623 C1639 1.377 . S
C1624 C1622 1.389 . S
C1624 C1625 1.524 . S
C1624 C1638 1.377 . S
C1625 C1624 1.524 . S
C1625 C1626 1.397 . S
C1625 C1630 1.363 . S
C1626 H1603 0.950 . S
C1626 C1625 1.397 . S
C1626 C1627 1.334 . S
C1627 H1604 0.950 . S
C1627 C1626 1.334 . S
C1627 C1628 1.287 . S
C1628 C1627 1.287 . S
C1628 C1629 1.524 . S
C1628 H1647 0.913 . S
C1629 H1605 0.950 . S
C1629 C1628 1.524 . S
C1629 C1630 1.415 . S
C1630 H1606 0.950 . S
C1630 C1625 1.363 . S
C1630 C1629 1.415 . S
C1631 H1607 0.951 . S
C1631 C1632 1.366 . S
C1631 C1633 1.388 . S
C1632 C1631 1.366 . S
C1632 C1636 1.385 . S
C1633 H1608 0.951 . S
C1633 C1631 1.388 . S
C1633 C1634 1.366 . S
C1634 C1633 1.366 . S
C1634 C1635 1.414 . S
C1634 C1637 1.499 . S
C1635 H1609 0.950 . S
C1635 C1634 1.414 . S
C1635 C1636 1.374 . S
C1636 H1610 0.950 . S
C1636 C1632 1.385 . S
C1636 C1635 1.374 . S
C1637 C1634 1.499 . S
C1637 C1638 1.373 . S
C1637 C1639 1.389 . S
C1638 H1611 0.950 . S
C1638 C1624 1.377 . S
C1638 C1637 1.373 . S
C1639 C1623 1.377 . S
C1639 C1637 1.389 . S
C1639 C1640 1.524 . S
C1640 C1639 1.524 . S
C1640 C1641 1.397 . S
C1640 C1645 1.363 . S
C1641 H1612 0.950 . S
C1641 C1640 1.397 . S
C1641 C1642 1.334 1_655 S
C1642 H1613 0.950 . S
C1642 C1641 1.334 1_455 S
C1642 C1643 1.287 . S
C1643 C1642 1.287 . S
C1643 C1644 1.524 1_455 S
C1643 H1646 0.999 . S
C1644 H1614 0.950 . S
C1644 C1643 1.524 1_655 S
C1644 C1645 1.415 . S
C1645 H1615 0.950 . S
C1645 C1640 1.363 . S
C1645 C1644 1.415 . S
H1646 C1643 0.999 . S
H1647 C1628 0.913 . S
H1648 C1666 0.951 . S
H1649 C1668 0.951 . S
H1650 C1670 0.950 . S
H1651 C1671 0.950 . S
H1652 C1673 0.950 . S
H1653 C1676 0.950 . S
H1654 C1677 0.950 . S
H1655 C1679 0.950 . S
H1656 C1680 0.950 . S
H1657 C1681 0.951 . S
H1658 C1683 0.951 . S
H1659 C1685 0.950 . S
H1660 C1686 0.950 . S
H1661 C1688 0.950 . S
H1662 C1691 0.950 . S
H1663 C1692 0.950 . S
H1664 C1694 0.950 . S
H1665 C1695 0.950 . S
C1666 H1648 0.951 . S
C1666 C1667 1.366 . S
C1666 C1668 1.388 . S
C1667 C1666 1.366 . S
C1667 C1671 1.385 . S
C1668 H1649 0.951 . S
C1668 C1666 1.388 . S
C1668 C1669 1.366 . S
C1669 C1668 1.366 . S
C1669 C1670 1.414 . S
C1669 C1672 1.499 . S
C1670 H1650 0.950 . S
C1670 C1669 1.414 . S
C1670 C1671 1.374 . S
C1671 H1651 0.950 . S
C1671 C1667 1.385 . S
C1671 C1670 1.374 . S
C1672 C1669 1.499 . S
C1672 C1673 1.373 . S
C1672 C1674 1.389 . S
C1673 H1652 0.950 . S
C1673 C1672 1.373 . S
C1673 C1689 1.377 . S
C1674 C1672 1.389 . S
C1674 C1675 1.524 . S
C1674 C1688 1.377 . S
C1675 C1674 1.524 . S
C1675 C1676 1.397 . S
C1675 C1680 1.363 . S
C1676 H1653 0.950 . S
C1676 C1675 1.397 . S
C1676 C1677 1.334 . S
C1677 H1654 0.950 . S
C1677 C1676 1.334 . S
C1677 C1678 1.275 1_655 S
C1678 C1677 1.275 1_455 S
C1678 C1679 1.527 . S
C1678 H1697 0.922 . S
C1679 H1655 0.950 . S
C1679 C1678 1.527 . S
C1679 C1680 1.415 1_455 S
C1680 H1656 0.950 . S
C1680 C1675 1.363 . S
C1680 C1679 1.415 1_655 S
C1681 H1657 0.951 . S
C1681 C1682 1.366 . S
C1681 C1683 1.388 . S
C1682 C1681 1.366 . S
C1682 C1686 1.385 . S
C1683 H1658 0.951 . S
C1683 C1681 1.388 . S
C1683 C1684 1.366 . S
C1684 C1683 1.366 . S
C1684 C1685 1.414 . S
C1684 C1687 1.499 . S
C1685 H1659 0.950 . S
C1685 C1684 1.414 . S
C1685 C1686 1.374 . S
C1686 H1660 0.950 . S
C1686 C1682 1.385 . S
C1686 C1685 1.374 . S
C1687 C1684 1.499 . S
C1687 C1688 1.373 . S
C1687 C1689 1.389 . S
C1688 H1661 0.950 . S
C1688 C1674 1.377 . S
C1688 C1687 1.373 . S
C1689 C1673 1.377 . S
C1689 C1687 1.389 . S
C1689 C1690 1.524 . S
C1690 C1689 1.524 . S
C1690 C1691 1.397 . S
C1690 C1695 1.363 . S
C1691 H1662 0.950 . S
C1691 C1690 1.397 . S
C1691 C1692 1.334 . S
C1692 H1663 0.950 . S
C1692 C1691 1.334 . S
C1692 C1693 1.287 . S
C1693 C1692 1.287 . S
C1693 C1694 1.524 . S
C1693 H1696 0.999 . S
C1694 H1664 0.950 . S
C1694 C1693 1.524 . S
C1694 C1695 1.415 . S
C1695 H1665 0.950 . S
C1695 C1690 1.363 . S
C1695 C1694 1.415 . S
H1696 C1693 0.999 . S
H1697 C1678 0.922 . S
H1698 C1716 0.951 . S
H1699 C1718 0.951 . S
H1700 C1720 0.950 . S
H1701 C1721 0.950 . S
H1702 C1723 0.950 . S
H1703 C1726 0.950 . S
H1704 C1727 0.950 . S
H1705 C1729 0.950 . S
H1706 C1730 0.950 . S
H1707 C1731 0.951 . S
H1708 C1733 0.951 . S
H1709 C1735 0.950 . S
H1710 C1736 0.950 . S
H1711 C1738 0.950 . S
H1712 C1741 0.950 . S
H1713 C1742 0.950 . S
H1714 C1744 0.950 . S
H1715 C1745 0.950 . S
C1716 H1698 0.951 . S
C1716 C1717 1.366 . S
C1716 C1718 1.388 . S
C1717 C1716 1.366 . S
C1717 C1721 1.385 . S
C1718 H1699 0.951 . S
C1718 C1716 1.388 . S
C1718 C1719 1.366 . S
C1719 C1718 1.366 . S
C1719 C1720 1.414 . S
C1719 C1722 1.499 . S
C1720 H1700 0.950 . S
C1720 C1719 1.414 . S
C1720 C1721 1.374 . S
C1721 H1701 0.950 . S
C1721 C1717 1.385 . S
C1721 C1720 1.374 . S
C1722 C1719 1.499 . S
C1722 C1723 1.373 . S
C1722 C1724 1.389 . S
C1723 H1702 0.950 . S
C1723 C1722 1.373 . S
C1723 C1739 1.377 . S
C1724 C1722 1.389 . S
C1724 C1725 1.524 . S
C1724 C1738 1.377 . S
C1725 C1724 1.524 . S
C1725 C1726 1.397 . S
C1725 C1730 1.363 . S
C1726 H1703 0.950 . S
C1726 C1725 1.397 . S
C1726 C1727 1.334 . S
C1727 H1704 0.950 . S
C1727 C1726 1.334 . S
C1727 C1728 1.287 . S
C1728 C1727 1.287 . S
C1728 C1729 1.524 . S
C1728 H1747 0.913 . S
C1729 H1705 0.950 . S
C1729 C1728 1.524 . S
C1729 C1730 1.415 . S
C1730 H1706 0.950 . S
C1730 C1725 1.363 . S
C1730 C1729 1.415 . S
C1731 H1707 0.951 . S
C1731 C1732 1.366 . S
C1731 C1733 1.388 . S
C1732 C1731 1.366 . S
C1732 C1736 1.385 . S
C1733 H1708 0.951 . S
C1733 C1731 1.388 . S
C1733 C1734 1.366 . S
C1734 C1733 1.366 . S
C1734 C1735 1.414 . S
C1734 C1737 1.499 . S
C1735 H1709 0.950 . S
C1735 C1734 1.414 . S
C1735 C1736 1.374 . S
C1736 H1710 0.950 . S
C1736 C1732 1.385 . S
C1736 C1735 1.374 . S
C1737 C1734 1.499 . S
C1737 C1738 1.373 . S
C1737 C1739 1.389 . S
C1738 H1711 0.950 . S
C1738 C1724 1.377 . S
C1738 C1737 1.373 . S
C1739 C1723 1.377 . S
C1739 C1737 1.389 . S
C1739 C1740 1.524 . S
C1740 C1739 1.524 . S
C1740 C1741 1.397 . S
C1740 C1745 1.363 . S
C1741 H1712 0.950 . S
C1741 C1740 1.397 . S
C1741 C1742 1.334 . S
C1742 H1713 0.950 . S
C1742 C1741 1.334 . S
C1742 C1743 1.287 . S
C1743 C1742 1.287 . S
C1743 C1744 1.524 . S
C1743 H1746 0.999 . S
C1744 H1714 0.950 . S
C1744 C1743 1.524 . S
C1744 C1745 1.415 . S
C1745 H1715 0.950 . S
C1745 C1740 1.363 . S
C1745 C1744 1.415 . S
H1746 C1743 0.999 . S
H1747 C1728 0.913 . S
H1748 C1766 0.951 . S
H1749 C1768 0.951 . S
H1750 C1770 0.950 . S
H1751 C1771 0.950 . S
H1752 C1773 0.950 . S
H1753 C1776 0.950 . S
H1754 C1777 0.950 . S
H1755 C1779 0.950 . S
H1756 C1780 0.950 . S
H1757 C1781 0.951 . S
H1758 C1783 0.951 . S
H1759 C1785 0.950 . S
H1760 C1786 0.950 . S
H1761 C1788 0.950 . S
H1762 C1791 0.950 . S
H1763 C1792 0.950 . S
H1764 C1794 0.950 . S
H1765 C1795 0.950 . S
C1766 H1748 0.951 . S
C1766 C1767 1.366 . S
C1766 C1768 1.388 . S
C1767 C1766 1.366 . S
C1767 C1771 1.385 . S
C1768 H1749 0.951 . S
C1768 C1766 1.388 . S
C1768 C1769 1.366 . S
C1769 C1768 1.366 . S
C1769 C1770 1.414 . S
C1769 C1772 1.499 . S
C1770 H1750 0.950 . S
C1770 C1769 1.414 . S
C1770 C1771 1.374 . S
C1771 H1751 0.950 . S
C1771 C1767 1.385 . S
C1771 C1770 1.374 . S
C1772 C1769 1.499 . S
C1772 C1773 1.373 . S
C1772 C1774 1.389 . S
C1773 H1752 0.950 . S
C1773 C1772 1.373 . S
C1773 C1789 1.377 . S
C1774 C1772 1.389 . S
C1774 C1775 1.524 . S
C1774 C1788 1.377 . S
C1775 C1774 1.524 . S
C1775 C1776 1.397 . S
C1775 C1780 1.363 . S
C1776 H1753 0.950 . S
C1776 C1775 1.397 . S
C1776 C1777 1.334 . S
C1777 H1754 0.950 . S
C1777 C1776 1.334 . S
C1777 C1778 1.287 . S
C1778 C1777 1.287 . S
C1778 C1779 1.524 . S
C1778 H1797 0.913 . S
C1779 H1755 0.950 . S
C1779 C1778 1.524 . S
C1779 C1780 1.415 . S
C1780 H1756 0.950 . S
C1780 C1775 1.363 . S
C1780 C1779 1.415 . S
C1781 H1757 0.951 . S
C1781 C1782 1.366 . S
C1781 C1783 1.388 . S
C1782 C1781 1.366 . S
C1782 C1786 1.385 . S
C1783 H1758 0.951 . S
C1783 C1781 1.388 . S
C1783 C1784 1.366 . S
C1784 C1783 1.366 . S
C1784 C1785 1.414 . S
C1784 C1787 1.499 . S
C1785 H1759 0.950 . S
C1785 C1784 1.414 . S
C1785 C1786 1.374 . S
C1786 H1760 0.950 . S
C1786 C1782 1.385 . S
C1786 C1785 1.374 . S
C1787 C1784 1.499 . S
C1787 C1788 1.373 . S
C1787 C1789 1.389 . S
C1788 H1761 0.950 . S
C1788 C1774 1.377 . S
C1788 C1787 1.373 . S
C1789 C1773 1.377 . S
C1789 C1787 1.389 . S
C1789 C1790 1.524 . S
C1790 C1789 1.524 . S
C1790 C1791 1.397 . S
C1790 C1795 1.363 . S
C1791 H1762 0.950 . S
C1791 C1790 1.397 . S
C1791 C1792 1.334 . S
C1792 H1763 0.950 . S
C1792 C1791 1.334 . S
C1792 C1793 1.287 . S
C1793 C1792 1.287 . S
C1793 C1794 1.524 . S
C1793 H1796 0.999 . S
C1794 H1764 0.950 . S
C1794 C1793 1.524 . S
C1794 C1795 1.415 . S
C1795 H1765 0.950 . S
C1795 C1790 1.363 . S
C1795 C1794 1.415 . S
H1796 C1793 0.999 . S
H1797 C1778 0.913 . S
H1798 C1816 0.951 . S
H1799 C1818 0.951 . S
H1800 C1820 0.950 . S
H1801 C1821 0.950 . S
H1802 C1823 0.950 . S
H1803 C1826 0.950 . S
H1804 C1827 0.950 . S
H1805 C1829 0.950 . S
H1806 C1830 0.950 . S
H1807 C1831 0.951 . S
H1808 C1833 0.951 . S
H1809 C1835 0.950 . S
H1810 C1836 0.950 . S
H1811 C1838 0.950 . S
H1812 C1841 0.950 . S
H1813 C1842 0.950 1_655 S
H1814 C1844 0.950 . S
H1815 C1845 0.950 . S
C1816 H1798 0.951 . S
C1816 C1817 1.366 . S
C1816 C1818 1.388 . S
C1817 C1816 1.366 . S
C1817 C1821 1.385 . S
C1818 H1799 0.951 . S
C1818 C1816 1.388 . S
C1818 C1819 1.366 . S
C1819 C1818 1.366 . S
C1819 C1820 1.414 . S
C1819 C1822 1.499 . S
C1820 H1800 0.950 . S
C1820 C1819 1.414 . S
C1820 C1821 1.374 . S
C1821 H1801 0.950 . S
C1821 C1817 1.385 . S
C1821 C1820 1.374 . S
C1822 C1819 1.499 . S
C1822 C1823 1.373 . S
C1822 C1824 1.389 . S
C1823 H1802 0.950 . S
C1823 C1822 1.373 . S
C1823 C1839 1.377 . S
C1824 C1822 1.389 . S
C1824 C1825 1.524 . S
C1824 C1838 1.377 . S
C1825 C1824 1.524 . S
C1825 C1826 1.397 . S
C1825 C1830 1.363 . S
C1826 H1803 0.950 . S
C1826 C1825 1.397 . S
C1826 C1827 1.334 . S
C1827 H1804 0.950 . S
C1827 C1826 1.334 . S
C1827 C1828 1.287 . S
C1828 C1827 1.287 . S
C1828 C1829 1.524 . S
C1828 H1847 0.913 . S
C1829 H1805 0.950 . S
C1829 C1828 1.524 . S
C1829 C1830 1.415 . S
C1830 H1806 0.950 . S
C1830 C1825 1.363 . S
C1830 C1829 1.415 . S
C1831 H1807 0.951 . S
C1831 C1832 1.366 . S
C1831 C1833 1.388 . S
C1832 C1831 1.366 . S
C1832 C1836 1.385 . S
C1833 H1808 0.951 . S
C1833 C1831 1.388 . S
C1833 C1834 1.366 . S
C1834 C1833 1.366 . S
C1834 C1835 1.414 . S
C1834 C1837 1.499 . S
C1835 H1809 0.950 . S
C1835 C1834 1.414 . S
C1835 C1836 1.374 . S
C1836 H1810 0.950 . S
C1836 C1832 1.385 . S
C1836 C1835 1.374 . S
C1837 C1834 1.499 . S
C1837 C1838 1.373 . S
C1837 C1839 1.389 . S
C1838 H1811 0.950 . S
C1838 C1824 1.377 . S
C1838 C1837 1.373 . S
C1839 C1823 1.377 . S
C1839 C1837 1.389 . S
C1839 C1840 1.524 . S
C1840 C1839 1.524 . S
C1840 C1841 1.397 . S
C1840 C1845 1.363 . S
C1841 H1812 0.950 . S
C1841 C1840 1.397 . S
C1841 C1842 1.334 . S
C1842 H1813 0.950 1_455 S
C1842 C1841 1.334 . S
C1842 C1843 1.287 . S
C1843 C1842 1.287 . S
C1843 C1844 1.524 . S
C1843 H1846 0.999 . S
C1844 H1814 0.950 . S
C1844 C1843 1.524 . S
C1844 C1845 1.415 . S
C1845 H1815 0.950 . S
C1845 C1840 1.363 . S
C1845 C1844 1.415 . S
H1846 C1843 0.999 . S
H1847 C1828 0.913 . S
C667 C235 1.473 . S
C682 C386 1.458 . S
C732 C470 1.454 . S
C717 C289 1.470 . S
C782 C463 1.464 . S
C767 C157 1.463 . S
C817 C211 1.461 . S
C832 C379 1.462 . S
C882 C543 1.457 . S
C867 C79 1.474 . S
C932 C627 1.460 . S
C917 C118 1.477 . S
C967 C1 1.463 . S
C982 C620 1.462 . S
C1017 C40 1.468 . S
C1032 C536 1.467 . S
C1082 C370 1.346 . S
C1067 C55 1.517 1_554 S
C1132 C454 1.345 . S
C1117 C16 1.516 . S
C1182 C465 1.403 . S
C1167 C133 1.541 1_556 S
C1232 C381 1.404 . S
C1217 C94 1.538 . S
C1282 C549 1.351 . S
C1267 C196 1.524 1_556 S
C1317 C172 1.522 . S
C1332 C633 1.351 . S
C1382 C622 1.407 . S
C1367 C274 1.552 . S
C1417 C250 1.544 . S
C1432 C538 1.408 . S
C1482 C368 1.588 . S
C1467 C21 1.587 . S
C1532 C452 1.593 . S
C1517 C60 1.592 . S
C1567 C99 1.578 . S
C1582 C459 1.565 . S
C1632 C375 1.570 . S
C1617 C138 1.584 . S
C1682 C547 1.596 . S
C1667 C177 1.591 . S
C1717 C216 1.590 . S
C1732 C631 1.594 . S
C1767 C255 1.582 . S
C1782 C638 1.573 . S
C1817 C294 1.581 . S
C1832 C554 1.571 . S
