# Generated by pormake.
# Topology pyr, (3,6)-cn, num edge types: 1
# Building blocks:
#     Node 0, Type 0, BuildingBlock: PAMTOO_clean_linker_0, # of connection points: 3
#     Node 1, Type 0, BuildingBlock: PAMTOO_clean_linker_0, # of connection points: 3
#     Node 2, Type 0, BuildingBlock: PAMTOO_clean_linker_0, # of connection points: 3
#     Node 3, Type 0, BuildingBlock: PAMTOO_clean_linker_0, # of connection points: 3
#     Node 4, Type 0, BuildingBlock: PAMTOO_clean_linker_0, # of connection points: 3
#     Node 5, Type 0, BuildingBlock: PAMTOO_clean_linker_0, # of connection points: 3
#     Node 6, Type 0, BuildingBlock: PAMTOO_clean_linker_0, # of connection points: 3
#     Node 7, Type 0, BuildingBlock: PAMTOO_clean_linker_0, # of connection points: 3
#     Node 8, Type 1, BuildingBlock: MIFKUJ_clean_sbu_0, # of connection points: 6
#     Node 9, Type 1, BuildingBlock: MIFKUJ_clean_sbu_0, # of connection points: 6
#     Node 10, Type 1, BuildingBlock: MIFKUJ_clean_sbu_0, # of connection points: 6
#     Node 11, Type 1, BuildingBlock: MIFKUJ_clean_sbu_0, # of connection points: 6
#     Edge 12, Type (0, 1), BuildingBlock: KIFKEQ_clean_linker_1, # of connection points: 2
#     Edge 13, Type (0, 1), BuildingBlock: KIFKEQ_clean_linker_1, # of connection points: 2
#     Edge 14, Type (0, 1), BuildingBlock: KIFKEQ_clean_linker_1, # of connection points: 2
#     Edge 15, Type (0, 1), BuildingBlock: KIFKEQ_clean_linker_1, # of connection points: 2
#     Edge 16, Type (0, 1), BuildingBlock: KIFKEQ_clean_linker_1, # of connection points: 2
#     Edge 17, Type (0, 1), BuildingBlock: KIFKEQ_clean_linker_1, # of connection points: 2
#     Edge 18, Type (0, 1), BuildingBlock: KIFKEQ_clean_linker_1, # of connection points: 2
#     Edge 19, Type (0, 1), BuildingBlock: KIFKEQ_clean_linker_1, # of connection points: 2
#     Edge 20, Type (0, 1), BuildingBlock: KIFKEQ_clean_linker_1, # of connection points: 2
#     Edge 21, Type (0, 1), BuildingBlock: KIFKEQ_clean_linker_1, # of connection points: 2
#     Edge 22, Type (0, 1), BuildingBlock: KIFKEQ_clean_linker_1, # of connection points: 2
#     Edge 23, Type (0, 1), BuildingBlock: KIFKEQ_clean_linker_1, # of connection points: 2
#     Edge 24, Type (0, 1), BuildingBlock: KIFKEQ_clean_linker_1, # of connection points: 2
#     Edge 25, Type (0, 1), BuildingBlock: KIFKEQ_clean_linker_1, # of connection points: 2
#     Edge 26, Type (0, 1), BuildingBlock: KIFKEQ_clean_linker_1, # of connection points: 2
#     Edge 27, Type (0, 1), BuildingBlock: KIFKEQ_clean_linker_1, # of connection points: 2
#     Edge 28, Type (0, 1), BuildingBlock: KIFKEQ_clean_linker_1, # of connection points: 2
#     Edge 29, Type (0, 1), BuildingBlock: KIFKEQ_clean_linker_1, # of connection points: 2
#     Edge 30, Type (0, 1), BuildingBlock: KIFKEQ_clean_linker_1, # of connection points: 2
#     Edge 31, Type (0, 1), BuildingBlock: KIFKEQ_clean_linker_1, # of connection points: 2
#     Edge 32, Type (0, 1), BuildingBlock: KIFKEQ_clean_linker_1, # of connection points: 2
#     Edge 33, Type (0, 1), BuildingBlock: KIFKEQ_clean_linker_1, # of connection points: 2
#     Edge 34, Type (0, 1), BuildingBlock: KIFKEQ_clean_linker_1, # of connection points: 2
#     Edge 35, Type (0, 1), BuildingBlock: KIFKEQ_clean_linker_1, # of connection points: 2
# Relax obj value: 0.086
# Max RMSD: 0.214
# Mean RMSD: 0.139
data_MOF--net-pyr--node1-MIFKUJ_clean_sbu_0--node2-PAMTOO_clean_linker_0--edge1-KIFKEQ_clean_linker_1
_symmetry_space_group_name_H-M    P1
_symmetry_Int_Tables_number       1
_symmetry_cell_setting            triclinic
loop_
_symmetry_equiv_pos_as_xyz
'x, y, z'
_cell_length_a     38.925611
_cell_length_b     36.443247
_cell_length_c     38.113921
_cell_angle_alpha  85.676814
_cell_angle_beta   89.78309
_cell_angle_gamma 101.28366
loop_
_atom_site_label
_atom_site_type_symbol
_atom_site_fract_x
_atom_site_fract_y
_atom_site_fract_z
_atom_type_partial_charge
H0 H 0.15504 0.19592 0.24859 0.0
H1 H 0.23728 0.13199 0.25301 0.0
H2 H 0.22582 0.20221 0.16034 0.0
H3 H 0.2385 0.13057 0.14414 0.0
C4 C 0.25277 0.12284 0.16795 0.0
O5 O 0.25975 0.15281 0.18864 0.0
H6 H 0.23571 0.09847 0.18281 0.0
C7 C 0.17782 0.18836 0.23688 0.0
C8 C 0.18863 0.20309 0.20258 0.0
C9 C 0.19531 0.16308 0.25577 0.0
C10 C 0.22333 0.15151 0.23926 0.0
C11 C 0.2337 0.16518 0.20474 0.0
C12 C 0.21684 0.19131 0.18672 0.0
H13 H 0.35072 0.92796 0.72174 0.0
H14 H 0.35145 0.85794 0.6353 0.0
H15 H 0.42999 0.86129 0.71378 0.0
H16 H 0.45407 0.86187 0.64073 0.0
C17 C 0.43187 0.84139 0.63078 0.0
O18 O 0.40606 0.83133 0.65662 0.0
H19 H 0.42121 0.85499 0.60728 0.0
C20 C 0.36228 0.90835 0.70789 0.0
C21 C 0.39249 0.89688 0.72134 0.0
C22 C 0.34702 0.89462 0.67671 0.0
C23 C 0.36233 0.86877 0.65943 0.0
C24 C 0.39219 0.85701 0.6728 0.0
C25 C 0.40716 0.87106 0.70354 0.0
H26 H 0.74625 0.31786 0.90517 0.0
H27 H 0.66265 0.32993 0.83437 0.0
H28 H 0.75389 0.4174 0.83434 0.0
H29 H 0.69045 0.44579 0.82138 0.0
C30 C 0.67419 0.4214 0.8095 0.0
O31 O 0.69417 0.39483 0.80442 0.0
H32 H 0.65191 0.4094 0.82798 0.0
C33 C 0.73531 0.33433 0.88484 0.0
C34 C 0.7544 0.36967 0.87189 0.0
C35 C 0.70208 0.31989 0.87178 0.0
C36 C 0.68801 0.34089 0.8451 0.0
C37 C 0.70701 0.37572 0.83144 0.0
C38 C 0.73993 0.3901 0.84488 0.0
H39 H 0.85537 0.68781 0.39573 0.0
H40 H 0.85833 0.60482 0.32159 0.0
H41 H 0.94339 0.69912 0.32458 0.0
H42 H 0.92074 0.68015 0.25274 0.0
C43 C 0.91112 0.6494 0.25816 0.0
O44 O 0.91789 0.63876 0.29251 0.0
H45 H 0.88236 0.64342 0.25373 0.0
C46 C 0.86884 0.6767 0.37527 0.0
C47 C 0.9017 0.69672 0.36291 0.0
C48 C 0.85274 0.6434 0.36088 0.0
C49 C 0.86988 0.63056 0.3331 0.0
C50 C 0.90221 0.65094 0.31982 0.0
C51 C 0.91818 0.68387 0.33476 0.0
H52 H 0.82983 0.90929 0.79909 0.0
H53 H 0.83128 0.83373 0.89146 0.0
H54 H 0.90893 0.84124 0.81056 0.0
H55 H 0.87164 0.76596 0.83648 0.0
C56 C 0.87289 0.77 0.86517 0.0
O57 O 0.88476 0.80739 0.87024 0.0
H58 H 0.84604 0.76062 0.87674 0.0
C59 C 0.84164 0.88866 0.81403 0.0
C60 C 0.87109 0.87712 0.80012 0.0
C61 C 0.82735 0.8737 0.8473 0.0
C62 C 0.84236 0.84642 0.86626 0.0
C63 C 0.87124 0.83454 0.85249 0.0
C64 C 0.88589 0.85025 0.82002 0.0
H65 H 0.73594 0.10148 0.30572 0.0
H66 H 0.66411 0.17722 0.31248 0.0
H67 H 0.7448 0.17815 0.38782 0.0
H68 H 0.6768 0.18094 0.4188 0.0
C69 C 0.6654 0.19534 0.39624 0.0
O70 O 0.69009 0.20548 0.36934 0.0
H71 H 0.64243 0.17545 0.38687 0.0
C72 C 0.72724 0.12384 0.31825 0.0
C73 C 0.7445 0.13801 0.34841 0.0
C74 C 0.69796 0.13754 0.3049 0.0
C75 C 0.68615 0.16564 0.32227 0.0
C76 C 0.70264 0.17944 0.35236 0.0
C77 C 0.73193 0.16618 0.36501 0.0
H78 H 0.35494 0.7031 0.13201 0.0
H79 H 0.35217 0.6081 0.2076 0.0
H80 H 0.44187 0.69767 0.20031 0.0
H81 H 0.45585 0.62026 0.21209 0.0
C82 C 0.43325 0.60797 0.23008 0.0
O83 O 0.41267 0.63415 0.23435 0.0
H84 H 0.4177 0.58326 0.21804 0.0
C85 C 0.36704 0.68823 0.15267 0.0
C86 C 0.40065 0.70426 0.16384 0.0
C87 C 0.3491 0.65332 0.16796 0.0
C88 C 0.36515 0.63505 0.19532 0.0
C89 C 0.39839 0.6511 0.20693 0.0
C90 C 0.41622 0.68541 0.19099 0.0
H91 H 0.12953 0.33212 0.75411 0.0
H92 H 0.21701 0.4215 0.77078 0.0
H93 H 0.22399 0.34746 0.69043 0.0
H94 H 0.28135 0.36088 0.74017 0.0
C95 C 0.28518 0.39208 0.73848 0.0
O96 O 0.25718 0.40392 0.72237 0.0
H97 H 0.28737 0.4011 0.76576 0.0
C98 C 0.15584 0.34717 0.74726 0.0
C99 C 0.17455 0.33623 0.71942 0.0
C100 C 0.17081 0.37843 0.7655 0.0
C101 C 0.20487 0.39785 0.75651 0.0
C102 C 0.22388 0.38628 0.72978 0.0
C103 C 0.20867 0.35603 0.71102 0.0
Zn104 Zn 0.08381 0.0331 0.56562 0.0
Zn105 Zn 0.99789 0.01035 0.49795 0.0
C106 C 0.11721 0.10582 0.58487 0.0
O107 O 0.1417 0.09988 0.5634 0.0
C108 C 0.96361 0.93822 0.47982 0.0
O109 O 0.94011 0.94507 0.50196 0.0
O110 O 0.12222 0.00737 0.58542 0.0
O111 O 0.03657 0.00397 0.58267 0.0
O112 O 0.9892 0.99465 0.54941 0.0
C113 C 0.13795 0.98607 0.56914 0.0
O114 O 0.12858 0.97839 0.53701 0.0
O115 O 0.08942 0.08102 0.58978 0.0
C116 C 0.95867 0.04961 0.4481 0.0
O117 O 0.98524 0.0487 0.42706 0.0
O118 O 0.95903 0.03628 0.47991 0.0
O119 O 0.04517 0.03937 0.48152 0.0
O120 O 0.09315 0.04884 0.51396 0.0
O121 O 0.99152 0.96256 0.47367 0.0
C122 C 1.0041 0.99125 0.57875 0.0
C123 C 0.07766 0.05229 0.48493 0.0
Zn124 Zn 0.57452 0.99095 0.99107 0.0
Zn125 Zn 0.52341 0.03174 0.03316 0.0
C126 C 0.51499 0.95712 0.94802 0.0
O127 O 0.51193 0.9284 0.97157 0.0
C128 C 0.56595 0.07347 0.08298 0.0
O129 O 0.54992 0.09924 0.06858 0.0
O130 O 0.61622 0.97158 0.97327 0.0
O131 O 0.59353 0.04596 0.99602 0.0
O132 O 0.54244 0.06196 0.98825 0.0
C133 C 0.61348 0.94449 0.95362 0.0
O134 O 0.58221 0.92673 0.94545 0.0
O135 O 0.53868 0.9861 0.95154 0.0
C136 C 0.47077 0.04334 0.08068 0.0
O137 O 0.48605 0.0207 0.10089 0.0
O138 O 0.48231 0.05273 0.04937 0.0
O139 O 0.50457 0.97625 0.03287 0.0
O140 O 0.55535 0.95829 0.03495 0.0
O141 O 0.55996 0.04106 0.07131 0.0
C142 C 0.57557 0.06973 0.98457 0.0
C143 C 0.52284 0.95216 0.04267 0.0
Zn144 Zn 0.56012 0.48077 0.50439 0.0
Zn145 Zn 0.54354 0.55215 0.53895 0.0
C146 C 0.61083 0.52146 0.45427 0.0
O147 O 0.58663 0.50806 0.43213 0.0
C148 C 0.49907 0.51769 0.59353 0.0
O149 O 0.52443 0.53912 0.60946 0.0
O150 O 0.56533 0.43081 0.48752 0.0
O151 O 0.56083 0.47578 0.55735 0.0
O152 O 0.58503 0.53504 0.56236 0.0
C153 C 0.59261 0.41873 0.49722 0.0
O154 O 0.61402 0.43794 0.51884 0.0
O155 O 0.60473 0.51498 0.48716 0.0
C156 C 0.51132 0.61428 0.54422 0.0
O157 O 0.4904 0.59389 0.52302 0.0
O158 O 0.53861 0.60284 0.55499 0.0
O159 O 0.54075 0.55695 0.48594 0.0
O160 O 0.51953 0.49738 0.4793 0.0
O161 O 0.50075 0.51731 0.56022 0.0
C162 C 0.58039 0.50066 0.57391 0.0
C163 C 0.5228 0.53178 0.4685 0.0
Zn164 Zn 0.04113 0.53094 1.00251 0.0
Zn165 Zn 0.06282 0.47028 0.05251 0.0
C166 C 0.9909 0.48562 0.96352 0.0
O167 O 0.01417 0.50134 0.93908 0.0
C168 C 0.11319 0.51848 0.0898 0.0
O169 O 0.0905 0.5039 0.11513 0.0
O170 O 0.03107 0.57738 0.97581 0.0
O171 O 0.04497 0.54438 0.05266 0.0
O172 O 0.02201 0.48764 0.07485 0.0
C173 C 1.00378 0.58668 0.98798 0.0
O174 O 0.9874 0.56668 0.01538 0.0
O175 O 0.99685 0.49268 0.99538 0.0
C176 C 0.06693 0.39207 0.07279 0.0
O177 O 0.05087 0.38445 0.04318 0.0
O178 O 0.07259 0.42551 0.08193 0.0
O179 O 0.06005 0.4563 1.00211 0.0
O180 O 0.08139 0.51365 0.97975 0.0
O181 O 0.10687 0.5092 0.0586 0.0
C182 C 0.02622 0.52298 0.07614 0.0
C183 C 0.07699 0.47837 0.97779 0.0
H184 H 0.17138 0.20096 0.30718 0.0
H185 H 0.19234 0.09199 0.28736 0.0
H186 H 0.14536 0.17528 0.36426 0.0
H187 H 0.16789 0.06712 0.34549 0.0
H188 H 0.14671 0.05421 0.46942 0.0
H189 H 0.17929 0.08211 0.41542 0.0
H190 H 0.08732 0.1201 0.37635 0.0
H191 H 0.05458 0.09164 0.42961 0.0
C192 C 0.17064 0.17162 0.31496 0.0
C193 C 0.18343 0.14841 0.29225 0.0
C194 C 0.15601 0.1571 0.34777 0.0
C195 C 0.15459 0.11931 0.35899 0.0
C196 C 0.16897 0.09647 0.33736 0.0
C197 C 0.18306 0.1108 0.30416 0.0
C198 C 0.13359 0.06871 0.44933 0.0
C199 C 0.09811 0.07068 0.45355 0.0
C200 C 0.15214 0.08444 0.41851 0.0
C201 C 0.1357 0.10319 0.39198 0.0
C202 C 0.10054 0.10591 0.3966 0.0
C203 C 0.08181 0.08949 0.42693 0.0
H204 H 0.35977 0.90249 0.78393 0.0
H205 H 0.46175 0.9233 0.73306 0.0
H206 H 0.38707 0.92179 0.83913 0.0
H207 H 0.48903 0.94218 0.78817 0.0
H208 H 0.52541 0.00167 0.8861 0.0
H209 H 0.49389 0.99151 0.83116 0.0
H210 H 0.4254 0.8943 0.88199 0.0
H211 H 0.45675 0.90439 0.93678 0.0
C212 C 0.38796 0.91163 0.78445 0.0
C213 C 0.40864 0.9112 0.75422 0.0
C214 C 0.40361 0.92242 0.81609 0.0
C215 C 0.44022 0.93345 0.81804 0.0
C216 C 0.46075 0.93418 0.78748 0.0
C217 C 0.44516 0.92302 0.756 0.0
C218 C 0.50333 0.97844 0.88567 0.0
C219 C 0.49374 0.9537 0.91577 0.0
C220 C 0.48542 0.9725 0.85415 0.0
C221 C 0.45726 0.94199 0.85218 0.0
C222 C 0.44678 0.91822 0.88269 0.0
C223 C 0.46491 0.9239 0.91405 0.0
H224 H 0.61246 0.39234 0.77873 0.0
H225 H 0.70594 0.47766 0.7615 0.0
H226 H 0.59042 0.41204 0.72183 0.0
H227 H 0.68445 0.49709 0.70411 0.0
H228 H 0.61658 0.54641 0.62103 0.0
H229 H 0.6394 0.52766 0.67778 0.0
H230 H 0.60197 0.4111 0.65977 0.0
H231 H 0.57863 0.42975 0.60356 0.0
C232 C 0.62819 0.41541 0.76269 0.0
C233 C 0.66052 0.43401 0.77466 0.0
C234 C 0.61577 0.42652 0.72999 0.0
C235 C 0.63562 0.45625 0.70837 0.0
C236 C 0.66822 0.47454 0.72031 0.0
C237 C 0.68061 0.46339 0.75304 0.0
C238 C 0.61334 0.51678 0.62914 0.0
C239 C 0.59564 0.48961 0.60778 0.0
C240 C 0.62655 0.50602 0.66162 0.0
C241 C 0.62238 0.46786 0.67346 0.0
C242 C 0.60511 0.44074 0.65181 0.0
C243 C 0.59189 0.45147 0.61943 0.0
H244 H 0.88406 0.58407 0.22824 0.0
H245 H 0.97896 0.6671 0.23421 0.0
H246 H 0.91274 0.55169 0.18618 0.0
H247 H 0.00807 0.63452 0.19279 0.0
H248 H 0.03068 0.5972 0.0847 0.0
H249 H 1.00384 0.62557 0.13044 0.0
H250 H 0.95886 0.51549 0.17877 0.0
H251 H 0.98544 0.48679 0.13228 0.0
C252 C 0.91114 0.5952 0.22058 0.0
C253 C 0.92915 0.62849 0.23363 0.0
C254 C 0.92766 0.57656 0.19679 0.0
C255 C 0.96259 0.59075 0.18584 0.0
C256 C 0.98093 0.62329 0.20012 0.0
C257 C 0.96439 0.64189 0.22386 0.0
C258 C 0.01521 0.57891 0.10511 0.0
C259 C 0.01023 0.53967 0.10481 0.0
C260 C 0.99999 0.59525 0.13152 0.0
C261 C 0.97937 0.57283 0.15841 0.0
C262 C 0.9744 0.53354 0.15826 0.0
C263 C 0.98973 0.5171 0.13173 0.0
H264 H 0.27713 0.0584 0.18619 0.0
H265 H 0.30399 0.16434 0.12426 0.0
H266 H 0.33055 0.04069 0.16549 0.0
H267 H 0.35819 0.14731 0.10415 0.0
H268 H 0.42874 0.08438 0.04428 0.0
H269 H 0.37717 0.10473 0.06629 0.0
H270 H 0.39306 0.05479 0.16994 0.0
H271 H 0.44394 0.03357 0.14773 0.0
C272 C 0.29472 0.078 0.16834 0.0
C273 C 0.28649 0.11262 0.15659 0.0
C274 C 0.32544 0.06802 0.15665 0.0
C275 C 0.34871 0.09255 0.13309 0.0
C276 C 0.34063 0.12751 0.12185 0.0
C277 C 0.30981 0.13741 0.13348 0.0
C278 C 0.42126 0.07783 0.07178 0.0
C279 C 0.44031 0.05714 0.09419 0.0
C280 C 0.39181 0.08971 0.08447 0.0
C281 C 0.38085 0.0813 0.11988 0.0
C282 C 0.40036 0.06119 0.14239 0.0
C283 C 0.42968 0.04918 0.12968 0.0
H284 H 0.33205 0.96539 0.67405 0.0
H285 H 0.29019 0.85289 0.64595 0.0
H286 H 0.28099 0.98643 0.6491 0.0
H287 H 0.23939 0.87414 0.62057 0.0
H288 H 0.175 0.9368 0.54363 0.0
H289 H 0.22477 0.91435 0.57024 0.0
H290 H 0.21754 0.97941 0.65915 0.0
H291 H 0.16803 0.00215 0.63246 0.0
C292 C 0.31183 0.94501 0.66291 0.0
C293 C 0.3154 0.90739 0.66205 0.0
C294 C 0.28254 0.95713 0.64852 0.0
C295 C 0.25608 0.932 0.63275 0.0
C296 C 0.25952 0.89437 0.63203 0.0
C297 C 0.28872 0.8822 0.64656 0.0
C298 C 0.18394 0.94624 0.56891 0.0
C299 C 0.16749 0.97134 0.58584 0.0
C300 C 0.21238 0.93321 0.58426 0.0
C301 C 0.22523 0.94512 0.61682 0.0
C302 C 0.20862 0.97002 0.63385 0.0
C303 C 0.18006 0.98287 0.61862 0.0
H304 H 0.81275 0.41026 0.83641 0.0
H305 H 0.77549 0.36381 0.94047 0.0
H306 H 0.86933 0.43602 0.86022 0.0
H307 H 0.83297 0.38724 0.96389 0.0
H308 H 0.92812 0.47189 0.99948 0.0
H309 H 0.87102 0.44269 0.97808 0.0
H310 H 0.92062 0.41934 0.88276 0.0
H311 H 0.97723 0.44998 0.90359 0.0
C312 C 0.81657 0.40545 0.86438 0.0
C313 C 0.78936 0.38494 0.88644 0.0
C314 C 0.84933 0.41972 0.878 0.0
C315 C 0.85599 0.41352 0.91403 0.0
C316 C 0.82881 0.39292 0.9361 0.0
C317 C 0.79591 0.37898 0.92252 0.0
C318 C 0.92676 0.46008 0.97416 0.0
C319 C 0.95705 0.46346 0.95308 0.0
C320 C 0.89404 0.44325 0.96186 0.0
C321 C 0.891 0.42901 0.9284 0.0
C322 C 0.9217 0.43087 0.90819 0.0
C323 C 0.95425 0.44815 0.92025 0.0
H324 H 0.82855 0.63421 0.42915 0.0
H325 H 0.79772 0.60607 0.32412 0.0
H326 H 0.77014 0.60682 0.45114 0.0
H327 H 0.73995 0.57527 0.3468 0.0
H328 H 0.62863 0.55873 0.39006 0.0
H329 H 0.68721 0.58742 0.36755 0.0
H330 H 0.731 0.55172 0.46556 0.0
H331 H 0.67238 0.52535 0.48852 0.0
C332 C 0.80937 0.62196 0.4107 0.0
C333 C 0.81787 0.62292 0.3747 0.0
C334 C 0.77586 0.60557 0.42349 0.0
C335 C 0.75003 0.58877 0.40083 0.0
C336 C 0.75885 0.58857 0.36499 0.0
C337 C 0.79228 0.60566 0.35203 0.0
C338 C 0.65087 0.55742 0.40679 0.0
C339 C 0.64602 0.54015 0.44108 0.0
C340 C 0.68451 0.57349 0.3938 0.0
C341 C 0.71409 0.57189 0.41461 0.0
C342 C 0.70899 0.55433 0.44894 0.0
C343 C 0.67534 0.53904 0.46214 0.0
H344 H 0.16342 0.26027 0.2296 0.0
H345 H 0.17182 0.20804 0.13264 0.0
H346 H 0.13118 0.30357 0.19959 0.0
H347 H 0.14151 0.25314 0.10199 0.0
H348 H 0.05738 0.31684 0.06388 0.0
H349 H 0.08553 0.27044 0.09573 0.0
H350 H 0.14029 0.35649 0.15868 0.0
H351 H 0.11129 0.40225 0.12792 0.0
C352 C 0.1584 0.258 0.20184 0.0
C353 C 0.17013 0.23049 0.18361 0.0
C354 C 0.14028 0.28322 0.18449 0.0
C355 C 0.13376 0.28199 0.1483 0.0
C356 C 0.14563 0.25462 0.12997 0.0
C357 C 0.16353 0.2291 0.14744 0.0
C358 C 0.07517 0.32569 0.08477 0.0
C359 C 0.08202 0.36321 0.0934 0.0
C360 C 0.09155 0.29918 0.10283 0.0
C361 C 0.11532 0.30969 0.12973 0.0
C362 C 0.12175 0.34717 0.13855 0.0
C363 C 0.10518 0.37352 0.12076 0.0
H364 H 0.63441 0.3021 0.89621 0.0
H365 H 0.72551 0.25415 0.87958 0.0
H366 H 0.60328 0.24184 0.92331 0.0
H367 H 0.69421 0.19349 0.90516 0.0
H368 H 0.64469 0.1023 0.98723 0.0
H369 H 0.67419 0.16248 0.9595 0.0
H370 H 0.57637 0.1797 0.91411 0.0
H371 H 0.5466 0.12008 0.94335 0.0
C372 C 0.64753 0.27842 0.89791 0.0
C373 C 0.68238 0.28275 0.88607 0.0
C374 C 0.6297 0.24382 0.91331 0.0
C375 C 0.64623 0.21266 0.91674 0.0
C376 C 0.68085 0.21696 0.90386 0.0
C377 C 0.69878 0.25165 0.88897 0.0
C378 C 0.62948 0.11894 0.97134 0.0
C379 C 0.59331 0.1064 0.96747 0.0
C380 C 0.64645 0.15342 0.95517 0.0
C381 C 0.62782 0.17605 0.93424 0.0
C382 C 0.59156 0.1634 0.93039 0.0
C383 C 0.57447 0.12908 0.947 0.0
H384 H 0.93167 0.76548 0.33075 0.0
H385 H 0.90776 0.70579 0.43285 0.0
H386 H 0.95001 0.82422 0.35902 0.0
H387 H 0.92602 0.76412 0.46097 0.0
H388 H 0.90963 0.87843 0.49169 0.0
H389 H 0.8992 0.81996 0.46302 0.0
H390 H 0.99342 0.85873 0.39974 0.0
H391 H 1.00384 0.91771 0.42832 0.0
C392 C 0.93105 0.76482 0.35921 0.0
C393 C 0.91784 0.73125 0.37961 0.0
C394 C 0.94148 0.79839 0.37538 0.0
C395 C 0.93885 0.79881 0.41217 0.0
C396 C 0.92756 0.7648 0.43254 0.0
C397 C 0.9172 0.73142 0.41645 0.0
C398 C 0.9282 0.87456 0.47172 0.0
C399 C 0.95759 0.90269 0.46235 0.0
C400 C 0.92234 0.84093 0.45545 0.0
C401 C 0.94566 0.83466 0.42933 0.0
C402 C 0.97495 0.86287 0.41969 0.0
C403 C 0.98095 0.89653 0.43617 0.0
H404 H 0.49955 0.83056 0.62491 0.0
H405 H 0.39232 0.77567 0.6113 0.0
H406 H 0.51979 0.77648 0.60407 0.0
H407 H 0.41226 0.72099 0.59153 0.0
H408 H 0.45881 0.64865 0.52042 0.0
H409 H 0.44059 0.70306 0.54192 0.0
H410 H 0.52274 0.71165 0.61857 0.0
H411 H 0.54164 0.65748 0.59626 0.0
C412 C 0.48031 0.80663 0.6179 0.0
C413 C 0.44435 0.80707 0.62007 0.0
C414 C 0.49187 0.77557 0.6061 0.0
C415 C 0.46771 0.74428 0.59605 0.0
C416 C 0.43168 0.74475 0.59853 0.0
C417 C 0.42017 0.77587 0.61018 0.0
C418 C 0.47314 0.66218 0.54178 0.0
C419 C 0.50168 0.64862 0.55664 0.0
C420 C 0.46247 0.69328 0.55434 0.0
C421 C 0.4799 0.71164 0.58228 0.0
C422 C 0.50885 0.69845 0.59683 0.0
C423 C 0.51966 0.66731 0.58411 0.0
H424 H 0.90028 0.841 0.75059 0.0
H425 H 0.87772 0.94942 0.77013 0.0
H426 H 0.93154 0.86842 0.69641 0.0
H427 H 0.90728 0.97595 0.71458 0.0
H428 H 0.93415 0.98738 0.59053 0.0
H429 H 0.89935 0.95955 0.64312 0.0
H430 H 0.99076 0.92633 0.68907 0.0
H431 H 0.02588 0.95498 0.63712 0.0
C432 C 0.90187 0.87061 0.74344 0.0
C433 C 0.88688 0.89308 0.76522 0.0
C434 C 0.91953 0.88613 0.71224 0.0
C435 C 0.92182 0.92418 0.70164 0.0
C436 C 0.90562 0.94642 0.72231 0.0
C437 C 0.88854 0.93111 0.75398 0.0
C438 C 0.94677 0.97406 0.61184 0.0
C439 C 0.98273 0.97335 0.60979 0.0
C440 C 0.92692 0.95836 0.64187 0.0
C441 C 0.94252 0.94091 0.66988 0.0
C442 C 0.97824 0.9396 0.66764 0.0
C443 C 0.99828 0.95605 0.63803 0.0
H444 H 0.62739 0.12423 0.29298 0.0
H445 H 0.72625 0.11736 0.24439 0.0
H446 H 0.59749 0.10756 0.2388 0.0
H447 H 0.69566 0.09906 0.19039 0.0
H448 H 0.61166 0.03239 0.11393 0.0
H449 H 0.64511 0.04493 0.16779 0.0
H450 H 0.60215 0.14438 0.17697 0.0
H451 H 0.5694 0.13245 0.12337 0.0
C452 C 0.64283 0.11916 0.27081 0.0
C453 C 0.67945 0.12296 0.27299 0.0
C454 C 0.62559 0.10937 0.23982 0.0
C455 C 0.64432 0.10244 0.21031 0.0
C456 C 0.68061 0.10421 0.21283 0.0
C457 C 0.69805 0.11457 0.24381 0.0
C458 C 0.6096 0.05705 0.12736 0.0
C459 C 0.5878 0.08137 0.11439 0.0
C460 C 0.62879 0.06424 0.15806 0.0
C461 C 0.62595 0.09544 0.17665 0.0
C462 C 0.60454 0.1199 0.16338 0.0
C463 C 0.58592 0.11313 0.13253 0.0
H464 H 0.49328 0.63903 0.26262 0.0
H465 H 0.40155 0.55102 0.27739 0.0
H466 H 0.5141 0.62034 0.32044 0.0
H467 H 0.4218 0.53255 0.33562 0.0
H468 H 0.48934 0.48555 0.42038 0.0
H469 H 0.46744 0.50372 0.36308 0.0
H470 H 0.50027 0.62062 0.3823 0.0
H471 H 0.52272 0.60253 0.43919 0.0
C472 C 0.4777 0.61557 0.27831 0.0
C473 C 0.44625 0.59591 0.2654 0.0
C474 C 0.48939 0.60505 0.31151 0.0
C475 C 0.46967 0.57484 0.33267 0.0
C476 C 0.43792 0.55551 0.3198 0.0
C477 C 0.42625 0.56609 0.28657 0.0
C478 C 0.49176 0.51512 0.41245 0.0
C479 C 0.50793 0.54256 0.43436 0.0
C480 C 0.47906 0.52555 0.37964 0.0
C481 C 0.48223 0.56364 0.36798 0.0
C482 C 0.49793 0.59103 0.39016 0.0
C483 C 0.51063 0.58063 0.42291 0.0
H484 H 0.156 0.44754 0.77038 0.0
H485 H 0.14347 0.33798 0.82571 0.0
H486 H 0.13041 0.47102 0.8205 0.0
H487 H 0.11946 0.36164 0.87686 0.0
H488 H 0.05448 0.4086 0.95504 0.0
H489 H 0.07305 0.38369 0.90216 0.0
H490 H 0.14607 0.48824 0.87687 0.0
H491 H 0.12615 0.51359 0.9288 0.0
C492 C 0.14756 0.42851 0.79338 0.0
C493 C 0.15163 0.39105 0.79435 0.0
C494 C 0.13325 0.44198 0.82226 0.0
C495 C 0.12331 0.41847 0.85311 0.0
C496 C 0.12642 0.38054 0.85353 0.0
C497 C 0.14022 0.36691 0.8243 0.0
C498 C 0.07449 0.42623 0.93812 0.0
C499 C 0.08889 0.46306 0.94607 0.0
C500 C 0.08527 0.41189 0.90783 0.0
C501 C 0.11107 0.43387 0.88502 0.0
C502 C 0.12559 0.47068 0.89326 0.0
C503 C 0.11441 0.48519 0.92325 0.0
H504 H 0.8177 0.89059 0.91477 0.0
H505 H 0.76752 0.88456 0.81391 0.0
H506 H 0.76617 0.90771 0.94052 0.0
H507 H 0.71628 0.90281 0.83946 0.0
H508 H 0.61649 0.8912 0.90757 0.0
H509 H 0.66848 0.8754 0.88155 0.0
H510 H 0.73417 0.95939 0.93881 0.0
H511 H 0.68218 0.97491 0.96528 0.0
C512 C 0.79567 0.89303 0.89808 0.0
C513 C 0.79662 0.88607 0.86234 0.0
C514 C 0.76628 0.90319 0.91276 0.0
C515 C 0.7371 0.90655 0.89206 0.0
C516 C 0.7382 0.90005 0.85619 0.0
C517 C 0.76769 0.89001 0.84146 0.0
C518 C 0.64201 0.90625 0.91473 0.0
C519 C 0.64516 0.93428 0.93857 0.0
C520 C 0.6718 0.89737 0.89958 0.0
C521 C 0.70545 0.91623 0.908 0.0
C522 C 0.70862 0.9441 0.93203 0.0
C523 C 0.67882 0.95307 0.9471 0.0
H524 H 0.76161 0.12687 0.41774 0.0
H525 H 0.79763 0.11606 0.31231 0.0
H526 H 0.81348 0.10757 0.4415 0.0
H527 H 0.84833 0.09376 0.33634 0.0
H528 H 0.95389 0.09208 0.38669 0.0
H529 H 0.90242 0.11306 0.36283 0.0
H530 H 0.84102 0.05706 0.45317 0.0
H531 H 0.89291 0.03777 0.47766 0.0
C532 C 0.78054 0.12032 0.39951 0.0
C533 C 0.77538 0.12354 0.36295 0.0
C534 C 0.81018 0.10856 0.41328 0.0
C535 C 0.8354 0.099 0.39099 0.0
C536 C 0.82992 0.10145 0.35443 0.0
C537 C 0.80042 0.1137 0.3406 0.0
C538 C 0.92942 0.08448 0.40154 0.0
C539 C 0.92757 0.06341 0.43416 0.0
C540 C 0.89973 0.09622 0.38768 0.0
C541 C 0.86725 0.08674 0.40587 0.0
C542 C 0.86555 0.0656 0.43857 0.0
C543 C 0.89535 0.05434 0.45264 0.0
H544 H 0.32486 0.65417 0.10028 0.0
H545 H 0.29306 0.61311 0.20716 0.0
H546 H 0.26716 0.62617 0.08004 0.0
H547 H 0.23646 0.58276 0.18663 0.0
H548 H 0.12698 0.55793 0.14757 0.0
H549 H 0.18297 0.59362 0.16499 0.0
H550 H 0.23146 0.56802 0.06993 0.0
H551 H 0.17486 0.5338 0.05182 0.0
C552 C 0.3056 0.63926 0.11953 0.0
C553 C 0.31378 0.63602 0.15544 0.0
C554 C 0.27258 0.62268 0.1078 0.0
C555 C 0.24695 0.60209 0.13161 0.0
C556 C 0.25519 0.59888 0.1675 0.0
C557 C 0.28801 0.61581 0.17926 0.0
C558 C 0.14956 0.56027 0.13023 0.0
C559 C 0.14659 0.54289 0.09844 0.0
C560 C 0.18178 0.58049 0.14035 0.0
C561 C 0.21204 0.58332 0.1192 0.0
C562 C 0.20877 0.56685 0.08679 0.0
C563 C 0.17633 0.54707 0.07641 0.0
H564 H 0.33039 0.45813 0.74664 0.0
H565 H 0.31207 0.3642 0.68214 0.0
H566 H 0.38236 0.48672 0.71097 0.0
H567 H 0.36455 0.39229 0.64662 0.0
H568 H 0.43764 0.478 0.56931 0.0
H569 H 0.38617 0.44619 0.60437 0.0
H570 H 0.44103 0.47618 0.69959 0.0
H571 H 0.49195 0.50841 0.66477 0.0
C572 C 0.3379 0.44345 0.72506 0.0
C573 C 0.31792 0.40869 0.7175 0.0
C574 C 0.36762 0.45967 0.7047 0.0
C575 C 0.37776 0.44156 0.67618 0.0
C576 C 0.35734 0.40698 0.66832 0.0
C577 C 0.32758 0.39076 0.68875 0.0
C578 C 0.43871 0.47755 0.59773 0.0
C579 C 0.4687 0.496 0.61426 0.0
C580 C 0.40932 0.45923 0.61781 0.0
C581 C 0.40944 0.45901 0.65473 0.0
C582 C 0.43986 0.47651 0.67117 0.0
C583 C 0.46911 0.49483 0.65119 0.0
H584 H 0.88976 0.76594 0.93447 0.0
H585 H 0.9091 0.72195 0.8359 0.0
H586 H 0.92593 0.72605 0.96461 0.0
H587 H 0.94439 0.68113 0.86599 0.0
H588 H 0.02619 0.63023 0.92706 0.0
H589 H 0.99838 0.67852 0.89751 0.0
H590 H 0.91936 0.66 0.98034 0.0
H591 H 0.94736 0.61287 0.01004 0.0
C592 C 0.90197 0.74781 0.91933 0.0
C593 C 0.89674 0.74691 0.883 0.0
C594 C 0.92249 0.72485 0.93651 0.0
C595 C 0.93791 0.70026 0.91773 0.0
C596 C 0.93328 0.70008 0.88116 0.0
C597 C 0.91287 0.7232 0.86396 0.0
C598 C 1.00311 0.63685 0.93907 0.0
C599 C 0.98892 0.61765 0.97081 0.0
C600 C 0.98708 0.66432 0.92207 0.0
C601 C 0.95664 0.6731 0.93656 0.0
C602 C 0.94305 0.65441 0.9687 0.0
C603 C 0.959 0.6271 0.98561 0.0
H604 H 0.46685 0.72135 0.13565 0.0
H605 H 0.37635 0.76941 0.15481 0.0
H606 H 0.4967 0.78088 0.10616 0.0
H607 H 0.40653 0.82955 0.12705 0.0
H608 H 0.45339 0.9203 0.04367 0.0
H609 H 0.42467 0.8605 0.07269 0.0
H610 H 0.52431 0.84277 0.11314 0.0
H611 H 0.55323 0.9019 0.08236 0.0
C612 C 0.45359 0.74492 0.13391 0.0
C613 C 0.41929 0.74084 0.14727 0.0
C614 C 0.47071 0.77914 0.11719 0.0
C615 C 0.4541 0.81025 0.11399 0.0
C616 C 0.41995 0.80614 0.12815 0.0
C617 C 0.40266 0.77175 0.14429 0.0
C618 C 0.46916 0.90361 0.05876 0.0
C619 C 0.50558 0.91583 0.06074 0.0
C620 C 0.45264 0.86934 0.07568 0.0
C621 C 0.472 0.84664 0.0956 0.0
C622 C 0.50852 0.85905 0.09763 0.0
C623 C 0.52514 0.8931 0.08017 0.0
H624 H 0.17534 0.33317 0.64834 0.0
H625 H 0.14005 0.26629 0.74479 0.0
H626 H 0.15816 0.27815 0.61514 0.0
H627 H 0.12293 0.2109 0.7115 0.0
H628 H 0.07386 0.1247 0.63442 0.0
H629 H 0.08328 0.1814 0.66638 0.0
H630 H 0.18184 0.22134 0.61048 0.0
H631 H 0.1723 0.16517 0.57831 0.0
C632 C 0.16369 0.30667 0.6624 0.0
C633 C 0.15944 0.30388 0.69919 0.0
C634 C 0.15395 0.27516 0.64341 0.0
C635 C 0.13972 0.24005 0.66075 0.0
C636 C 0.1337 0.23761 0.69736 0.0
C637 C 0.14345 0.26928 0.71643 0.0
C638 C 0.09746 0.14569 0.62884 0.0
C639 C 0.12234 0.14044 0.60378 0.0
C640 C 0.1029 0.17806 0.64728 0.0
C641 C 0.13321 0.20591 0.64087 0.0
C642 C 0.15793 0.2007 0.61564 0.0
C643 C 0.15257 0.16835 0.59734 0.0
H644 H 0.70688 0.26014 0.41545 0.0
H645 H 0.59854 0.20657 0.40661 0.0
H646 H 0.68878 0.31419 0.43887 0.0
H647 H 0.58021 0.25991 0.43101 0.0
H648 H 0.55987 0.37793 0.44493 0.0
H649 H 0.57742 0.32501 0.41898 0.0
H650 H 0.66323 0.33044 0.49125 0.0
H651 H 0.64628 0.38377 0.51644 0.0
C652 C 0.67919 0.26015 0.41833 0.0
C653 C 0.65412 0.22953 0.40872 0.0
C654 C 0.66875 0.29086 0.43208 0.0
C655 C 0.63298 0.29144 0.43694 0.0
C656 C 0.60794 0.26074 0.42715 0.0
C657 C 0.6184 0.23011 0.41328 0.0
C658 C 0.58238 0.36769 0.45536 0.0
C659 C 0.6017 0.38514 0.48272 0.0
C660 C 0.5924 0.33727 0.44055 0.0
C661 C 0.6219 0.32353 0.45284 0.0
C662 C 0.64081 0.34069 0.4806 0.0
C663 C 0.63089 0.37113 0.49528 0.0
loop_
_geom_bond_atom_site_label_1
_geom_bond_atom_site_label_2
_geom_bond_distance
_geom_bond_site_symmetry_2
_ccdc_geom_bond_type
H0 C7 0.929 . S
H1 C10 0.930 . S
H2 C12 0.929 . S
H3 C4 0.969 . S
C4 H3 0.969 . S
C4 O5 1.550 . S
C4 H6 0.973 . S
O5 C4 1.550 . S
O5 C11 1.412 . S
H6 C4 0.973 . S
C7 H0 0.929 . S
C7 C8 1.400 . S
C7 C9 1.364 . S
C8 C7 1.400 . S
C8 C12 1.377 . S
C9 C7 1.364 . S
C9 C10 1.374 . S
C10 H1 0.930 . S
C10 C9 1.374 . S
C10 C11 1.383 . S
C11 O5 1.412 . S
C11 C10 1.383 . S
C11 C12 1.394 . S
C12 H2 0.929 . S
C12 C8 1.377 . S
C12 C11 1.394 . S
H13 C20 0.929 . S
H14 C23 0.930 . S
H15 C25 0.929 . S
H16 C17 0.969 . S
C17 H16 0.969 . S
C17 O18 1.550 . S
C17 H19 0.973 . S
O18 C17 1.550 . S
O18 C24 1.412 . S
H19 C17 0.973 . S
C20 H13 0.929 . S
C20 C21 1.400 . S
C20 C22 1.364 . S
C21 C20 1.400 . S
C21 C25 1.377 . S
C22 C20 1.364 . S
C22 C23 1.374 . S
C23 H14 0.930 . S
C23 C22 1.374 . S
C23 C24 1.383 . S
C24 O18 1.412 . S
C24 C23 1.383 . S
C24 C25 1.394 . S
C25 H15 0.929 . S
C25 C21 1.377 . S
C25 C24 1.394 . S
H26 C33 0.929 . S
H27 C36 0.930 . S
H28 C38 0.929 . S
H29 C30 0.969 . S
C30 H29 0.969 . S
C30 O31 1.550 . S
C30 H32 0.973 . S
O31 C30 1.550 . S
O31 C37 1.412 . S
H32 C30 0.973 . S
C33 H26 0.929 . S
C33 C34 1.400 . S
C33 C35 1.364 . S
C34 C33 1.400 . S
C34 C38 1.377 . S
C35 C33 1.364 . S
C35 C36 1.374 . S
C36 H27 0.930 . S
C36 C35 1.374 . S
C36 C37 1.383 . S
C37 O31 1.412 . S
C37 C36 1.383 . S
C37 C38 1.394 . S
C38 H28 0.929 . S
C38 C34 1.377 . S
C38 C37 1.394 . S
H39 C46 0.929 . S
H40 C49 0.930 . S
H41 C51 0.929 . S
H42 C43 0.969 . S
C43 H42 0.969 . S
C43 O44 1.550 . S
C43 H45 0.973 . S
O44 C43 1.550 . S
O44 C50 1.412 . S
H45 C43 0.973 . S
C46 H39 0.929 . S
C46 C47 1.400 . S
C46 C48 1.364 . S
C47 C46 1.400 . S
C47 C51 1.377 . S
C48 C46 1.364 . S
C48 C49 1.374 . S
C49 H40 0.930 . S
C49 C48 1.374 . S
C49 C50 1.383 . S
C50 O44 1.412 . S
C50 C49 1.383 . S
C50 C51 1.394 . S
C51 H41 0.929 . S
C51 C47 1.377 . S
C51 C50 1.394 . S
H52 C59 0.929 . S
H53 C62 0.930 . S
H54 C64 0.929 . S
H55 C56 0.969 . S
C56 H55 0.969 . S
C56 O57 1.550 . S
C56 H58 0.973 . S
O57 C56 1.550 . S
O57 C63 1.412 . S
H58 C56 0.973 . S
C59 H52 0.929 . S
C59 C60 1.400 . S
C59 C61 1.364 . S
C60 C59 1.400 . S
C60 C64 1.377 . S
C61 C59 1.364 . S
C61 C62 1.374 . S
C62 H53 0.930 . S
C62 C61 1.374 . S
C62 C63 1.383 . S
C63 O57 1.412 . S
C63 C62 1.383 . S
C63 C64 1.394 . S
C64 H54 0.929 . S
C64 C60 1.377 . S
C64 C63 1.394 . S
H65 C72 0.929 . S
H66 C75 0.930 . S
H67 C77 0.929 . S
H68 C69 0.969 . S
C69 H68 0.969 . S
C69 O70 1.550 . S
C69 H71 0.973 . S
O70 C69 1.550 . S
O70 C76 1.412 . S
H71 C69 0.973 . S
C72 H65 0.929 . S
C72 C73 1.400 . S
C72 C74 1.364 . S
C73 C72 1.400 . S
C73 C77 1.377 . S
C74 C72 1.364 . S
C74 C75 1.374 . S
C75 H66 0.930 . S
C75 C74 1.374 . S
C75 C76 1.383 . S
C76 O70 1.412 . S
C76 C75 1.383 . S
C76 C77 1.394 . S
C77 H67 0.929 . S
C77 C73 1.377 . S
C77 C76 1.394 . S
H78 C85 0.929 . S
H79 C88 0.930 . S
H80 C90 0.929 . S
H81 C82 0.969 . S
C82 H81 0.969 . S
C82 O83 1.550 . S
C82 H84 0.973 . S
O83 C82 1.550 . S
O83 C89 1.412 . S
H84 C82 0.973 . S
C85 H78 0.929 . S
C85 C86 1.400 . S
C85 C87 1.364 . S
C86 C85 1.400 . S
C86 C90 1.377 . S
C87 C85 1.364 . S
C87 C88 1.374 . S
C88 H79 0.930 . S
C88 C87 1.374 . S
C88 C89 1.383 . S
C89 O83 1.412 . S
C89 C88 1.383 . S
C89 C90 1.394 . S
C90 H80 0.929 . S
C90 C86 1.377 . S
C90 C89 1.394 . S
H91 C98 0.929 . S
H92 C101 0.930 . S
H93 C103 0.929 . S
H94 C95 0.969 . S
C95 H94 0.969 . S
C95 O96 1.550 . S
C95 H97 0.973 . S
O96 C95 1.550 . S
O96 C102 1.412 . S
H97 C95 0.973 . S
C98 H91 0.929 . S
C98 C99 1.400 . S
C98 C100 1.364 . S
C99 C98 1.400 . S
C99 C103 1.377 . S
C100 C98 1.364 . S
C100 C101 1.374 . S
C101 H92 0.930 . S
C101 C100 1.374 . S
C101 C102 1.383 . S
C102 O96 1.412 . S
C102 C101 1.383 . S
C102 C103 1.394 . S
C103 H93 0.929 . S
C103 C99 1.377 . S
C103 C102 1.394 . S
Zn104 O110 1.969 1_545 S
Zn104 O111 1.965 1_545 S
Zn104 O115 2.024 . S
Zn104 O120 1.969 . S
Zn105 O112 1.969 1_545 S
Zn105 O118 1.969 . S
Zn105 O119 1.965 1_655 S
Zn105 O121 2.024 1_545 S
C106 O107 1.229 . S
C106 O115 1.058 . S
O107 C106 1.229 . S
C108 O109 1.229 . S
C108 O121 1.058 . S
O109 C108 1.229 . S
O110 Zn104 1.969 1_565 S
O110 C113 1.267 . S
O111 Zn104 1.965 1_565 S
O111 C122 1.260 1_455 S
O112 Zn105 1.969 1_565 S
O112 C122 1.258 . S
C113 O110 1.267 . S
C113 O114 1.228 . S
O114 C113 1.228 . S
O115 Zn104 2.024 . S
O115 C106 1.058 . S
C116 O117 1.228 . S
C116 O118 1.267 . S
O117 C116 1.228 . S
O118 Zn105 1.969 . S
O118 C116 1.267 . S
O119 Zn105 1.965 1_455 S
O119 C123 1.260 . S
O120 Zn104 1.969 . S
O120 C123 1.258 . S
O121 Zn105 2.024 1_565 S
O121 C108 1.058 . S
C122 O111 1.260 1_655 S
C122 O112 1.258 . S
C123 O119 1.260 . S
C123 O120 1.258 . S
Zn124 O130 1.969 . S
Zn124 O131 1.965 1_565 S
Zn124 O135 2.024 . S
Zn124 O140 1.969 1_556 S
Zn125 O132 1.969 . S
Zn125 O138 1.969 . S
Zn125 O139 1.965 1_545 S
Zn125 O141 2.024 . S
C126 O127 1.229 . S
C126 O135 1.058 . S
O127 C126 1.229 . S
C128 O129 1.229 . S
C128 O141 1.058 . S
O129 C128 1.229 . S
O130 Zn124 1.969 . S
O130 C133 1.267 . S
O131 Zn124 1.965 1_545 S
O131 C142 1.260 . S
O132 Zn125 1.969 . S
O132 C142 1.258 1_554 S
C133 O130 1.267 . S
C133 O134 1.228 . S
O134 C133 1.228 . S
O135 Zn124 2.024 . S
O135 C126 1.058 . S
C136 O137 1.228 . S
C136 O138 1.267 . S
O137 C136 1.228 . S
O138 Zn125 1.969 . S
O138 C136 1.267 . S
O139 Zn125 1.965 1_565 S
O139 C143 1.260 . S
O140 Zn124 1.969 1_554 S
O140 C143 1.258 . S
O141 Zn125 2.024 . S
O141 C128 1.058 . S
C142 O131 1.260 . S
C142 O132 1.258 1_556 S
C143 O139 1.260 . S
C143 O140 1.258 . S
Zn144 O150 1.969 . S
Zn144 O151 1.965 . S
Zn144 O155 2.024 . S
Zn144 O160 1.969 . S
Zn145 O152 1.969 . S
Zn145 O158 1.969 . S
Zn145 O159 1.965 . S
Zn145 O161 2.024 . S
C146 O147 1.229 . S
C146 O155 1.058 . S
O147 C146 1.229 . S
C148 O149 1.229 . S
C148 O161 1.058 . S
O149 C148 1.229 . S
O150 Zn144 1.969 . S
O150 C153 1.267 . S
O151 Zn144 1.965 . S
O151 C162 1.260 . S
O152 Zn145 1.969 . S
O152 C162 1.258 . S
C153 O150 1.267 . S
C153 O154 1.228 . S
O154 C153 1.228 . S
O155 Zn144 2.024 . S
O155 C146 1.058 . S
C156 O157 1.228 . S
C156 O158 1.267 . S
O157 C156 1.228 . S
O158 Zn145 1.969 . S
O158 C156 1.267 . S
O159 Zn145 1.965 . S
O159 C163 1.260 . S
O160 Zn144 1.969 . S
O160 C163 1.258 . S
O161 Zn145 2.024 . S
O161 C148 1.058 . S
C162 O151 1.260 . S
C162 O152 1.258 . S
C163 O159 1.260 . S
C163 O160 1.258 . S
Zn164 O170 1.969 1_655 S
Zn164 O171 1.965 1_656 S
Zn164 O175 2.024 1_556 S
Zn164 O180 1.969 1_655 S
Zn165 O172 1.969 . S
Zn165 O178 1.969 . S
Zn165 O179 1.965 . S
Zn165 O181 2.024 . S
C166 O167 1.229 . S
C166 O175 1.058 1_556 S
O167 C166 1.229 . S
C168 O169 1.229 . S
C168 O181 1.058 . S
O169 C168 1.229 . S
O170 Zn164 1.969 1_455 S
O170 C173 1.267 1_455 S
O171 Zn164 1.965 1_454 S
O171 C182 1.260 . S
O172 Zn165 1.969 . S
O172 C182 1.258 . S
C173 O170 1.267 1_655 S
C173 O174 1.228 . S
O174 C173 1.228 . S
O175 Zn164 2.024 1_554 S
O175 C166 1.058 1_554 S
C176 O177 1.228 . S
C176 O178 1.267 . S
O177 C176 1.228 . S
O178 Zn165 1.969 . S
O178 C176 1.267 . S
O179 Zn165 1.965 . S
O179 C183 1.260 1_554 S
O180 Zn164 1.969 1_455 S
O180 C183 1.258 . S
O181 Zn165 2.024 . S
O181 C168 1.058 . S
C182 O171 1.260 . S
C182 O172 1.258 . S
C183 O179 1.260 1_556 S
C183 O180 1.258 . S
H184 C192 0.950 . S
H185 C197 0.950 . S
H186 C194 0.950 . S
H187 C196 0.950 . S
H188 C198 0.950 . S
H189 C200 0.950 . S
H190 C202 0.950 . S
H191 C203 0.950 . S
C192 H184 0.950 . S
C192 C193 1.386 . S
C192 C194 1.391 . S
C193 C192 1.386 . S
C193 C197 1.393 . S
C194 H186 0.950 . S
C194 C192 1.391 . S
C194 C195 1.400 . S
C195 C194 1.400 . S
C195 C196 1.398 . S
C195 C201 1.491 . S
C196 H187 0.950 . S
C196 C195 1.398 . S
C196 C197 1.391 . S
C197 H185 0.950 . S
C197 C193 1.393 . S
C197 C196 1.391 . S
C198 H188 0.950 . S
C198 C199 1.386 . S
C198 C200 1.391 . S
C199 C198 1.386 . S
C199 C203 1.393 . S
C200 H189 0.950 . S
C200 C198 1.391 . S
C200 C201 1.400 . S
C201 C195 1.491 . S
C201 C200 1.400 . S
C201 C202 1.398 . S
C202 H190 0.950 . S
C202 C201 1.398 . S
C202 C203 1.391 . S
C203 H191 0.950 . S
C203 C199 1.393 . S
C203 C202 1.391 . S
H204 C212 0.950 . S
H205 C217 0.950 . S
H206 C214 0.950 . S
H207 C216 0.950 . S
H208 C218 0.950 . S
H209 C220 0.950 . S
H210 C222 0.950 . S
H211 C223 0.950 . S
C212 H204 0.950 . S
C212 C213 1.386 . S
C212 C214 1.391 . S
C213 C212 1.386 . S
C213 C217 1.393 . S
C214 H206 0.950 . S
C214 C212 1.391 . S
C214 C215 1.400 . S
C215 C214 1.400 . S
C215 C216 1.398 . S
C215 C221 1.491 . S
C216 H207 0.950 . S
C216 C215 1.398 . S
C216 C217 1.391 . S
C217 H205 0.950 . S
C217 C213 1.393 . S
C217 C216 1.391 . S
C218 H208 0.950 . S
C218 C219 1.386 . S
C218 C220 1.391 . S
C219 C218 1.386 . S
C219 C223 1.393 . S
C220 H209 0.950 . S
C220 C218 1.391 . S
C220 C221 1.400 . S
C221 C215 1.491 . S
C221 C220 1.400 . S
C221 C222 1.398 . S
C222 H210 0.950 . S
C222 C221 1.398 . S
C222 C223 1.391 . S
C223 H211 0.950 . S
C223 C219 1.393 . S
C223 C222 1.391 . S
H224 C232 0.950 . S
H225 C237 0.950 . S
H226 C234 0.950 . S
H227 C236 0.950 . S
H228 C238 0.950 . S
H229 C240 0.950 . S
H230 C242 0.950 . S
H231 C243 0.950 . S
C232 H224 0.950 . S
C232 C233 1.386 . S
C232 C234 1.391 . S
C233 C232 1.386 . S
C233 C237 1.393 . S
C234 H226 0.950 . S
C234 C232 1.391 . S
C234 C235 1.400 . S
C235 C234 1.400 . S
C235 C236 1.398 . S
C235 C241 1.491 . S
C236 H227 0.950 . S
C236 C235 1.398 . S
C236 C237 1.391 . S
C237 H225 0.950 . S
C237 C233 1.393 . S
C237 C236 1.391 . S
C238 H228 0.950 . S
C238 C239 1.386 . S
C238 C240 1.391 . S
C239 C238 1.386 . S
C239 C243 1.393 . S
C240 H229 0.950 . S
C240 C238 1.391 . S
C240 C241 1.400 . S
C241 C235 1.491 . S
C241 C240 1.400 . S
C241 C242 1.398 . S
C242 H230 0.950 . S
C242 C241 1.398 . S
C242 C243 1.391 . S
C243 H231 0.950 . S
C243 C239 1.393 . S
C243 C242 1.391 . S
H244 C252 0.950 . S
H245 C257 0.950 . S
H246 C254 0.950 . S
H247 C256 0.950 . S
H248 C258 0.950 . S
H249 C260 0.950 1_455 S
H250 C262 0.950 . S
H251 C263 0.950 . S
C252 H244 0.950 . S
C252 C253 1.386 . S
C252 C254 1.391 . S
C253 C252 1.386 . S
C253 C257 1.393 . S
C254 H246 0.950 . S
C254 C252 1.391 . S
C254 C255 1.400 . S
C255 C254 1.400 . S
C255 C256 1.398 . S
C255 C261 1.491 . S
C256 H247 0.950 . S
C256 C255 1.398 . S
C256 C257 1.391 . S
C257 H245 0.950 . S
C257 C253 1.393 . S
C257 C256 1.391 . S
C258 H248 0.950 . S
C258 C259 1.386 1_455 S
C258 C260 1.391 1_455 S
C259 C258 1.386 1_655 S
C259 C263 1.393 . S
C260 H249 0.950 1_655 S
C260 C258 1.391 1_655 S
C260 C261 1.400 . S
C261 C255 1.491 . S
C261 C260 1.400 . S
C261 C262 1.398 . S
C262 H250 0.950 . S
C262 C261 1.398 . S
C262 C263 1.391 . S
C263 H251 0.950 . S
C263 C259 1.393 . S
C263 C262 1.391 . S
H264 C272 0.950 . S
H265 C277 0.950 . S
H266 C274 0.950 . S
H267 C276 0.950 . S
H268 C278 0.950 . S
H269 C280 0.950 . S
H270 C282 0.950 . S
H271 C283 0.950 . S
C272 H264 0.950 . S
C272 C273 1.386 . S
C272 C274 1.391 . S
C273 C272 1.386 . S
C273 C277 1.393 . S
C274 H266 0.950 . S
C274 C272 1.391 . S
C274 C275 1.400 . S
C275 C274 1.400 . S
C275 C276 1.398 . S
C275 C281 1.491 . S
C276 H267 0.950 . S
C276 C275 1.398 . S
C276 C277 1.391 . S
C277 H265 0.950 . S
C277 C273 1.393 . S
C277 C276 1.391 . S
C278 H268 0.950 . S
C278 C279 1.386 . S
C278 C280 1.391 . S
C279 C278 1.386 . S
C279 C283 1.393 . S
C280 H269 0.950 . S
C280 C278 1.391 . S
C280 C281 1.400 . S
C281 C275 1.491 . S
C281 C280 1.400 . S
C281 C282 1.398 . S
C282 H270 0.950 . S
C282 C281 1.398 . S
C282 C283 1.391 . S
C283 H271 0.950 . S
C283 C279 1.393 . S
C283 C282 1.391 . S
H284 C292 0.950 . S
H285 C297 0.950 . S
H286 C294 0.950 . S
H287 C296 0.950 . S
H288 C298 0.950 . S
H289 C300 0.950 . S
H290 C302 0.950 . S
H291 C303 0.950 1_545 S
C292 H284 0.950 . S
C292 C293 1.386 . S
C292 C294 1.391 . S
C293 C292 1.386 . S
C293 C297 1.393 . S
C294 H286 0.950 . S
C294 C292 1.391 . S
C294 C295 1.400 . S
C295 C294 1.400 . S
C295 C296 1.398 . S
C295 C301 1.491 . S
C296 H287 0.950 . S
C296 C295 1.398 . S
C296 C297 1.391 . S
C297 H285 0.950 . S
C297 C293 1.393 . S
C297 C296 1.391 . S
C298 H288 0.950 . S
C298 C299 1.386 . S
C298 C300 1.391 . S
C299 C298 1.386 . S
C299 C303 1.393 . S
C300 H289 0.950 . S
C300 C298 1.391 . S
C300 C301 1.400 . S
C301 C295 1.491 . S
C301 C300 1.400 . S
C301 C302 1.398 . S
C302 H290 0.950 . S
C302 C301 1.398 . S
C302 C303 1.391 . S
C303 H291 0.950 1_565 S
C303 C299 1.393 . S
C303 C302 1.391 . S
H304 C312 0.950 . S
H305 C317 0.950 . S
H306 C314 0.950 . S
H307 C316 0.950 . S
H308 C318 0.950 1_554 S
H309 C320 0.950 . S
H310 C322 0.950 . S
H311 C323 0.950 . S
C312 H304 0.950 . S
C312 C313 1.386 . S
C312 C314 1.391 . S
C313 C312 1.386 . S
C313 C317 1.393 . S
C314 H306 0.950 . S
C314 C312 1.391 . S
C314 C315 1.400 . S
C315 C314 1.400 . S
C315 C316 1.398 . S
C315 C321 1.491 . S
C316 H307 0.950 . S
C316 C315 1.398 . S
C316 C317 1.391 . S
C317 H305 0.950 . S
C317 C313 1.393 . S
C317 C316 1.391 . S
C318 H308 0.950 1_556 S
C318 C319 1.386 . S
C318 C320 1.391 . S
C319 C318 1.386 . S
C319 C323 1.393 . S
C320 H309 0.950 . S
C320 C318 1.391 . S
C320 C321 1.400 . S
C321 C315 1.491 . S
C321 C320 1.400 . S
C321 C322 1.398 . S
C322 H310 0.950 . S
C322 C321 1.398 . S
C322 C323 1.391 . S
C323 H311 0.950 . S
C323 C319 1.393 . S
C323 C322 1.391 . S
H324 C332 0.950 . S
H325 C337 0.950 . S
H326 C334 0.950 . S
H327 C336 0.950 . S
H328 C338 0.950 . S
H329 C340 0.950 . S
H330 C342 0.950 . S
H331 C343 0.950 . S
C332 H324 0.950 . S
C332 C333 1.386 . S
C332 C334 1.391 . S
C333 C332 1.386 . S
C333 C337 1.393 . S
C334 H326 0.950 . S
C334 C332 1.391 . S
C334 C335 1.400 . S
C335 C334 1.400 . S
C335 C336 1.398 . S
C335 C341 1.491 . S
C336 H327 0.950 . S
C336 C335 1.398 . S
C336 C337 1.391 . S
C337 H325 0.950 . S
C337 C333 1.393 . S
C337 C336 1.391 . S
C338 H328 0.950 . S
C338 C339 1.386 . S
C338 C340 1.391 . S
C339 C338 1.386 . S
C339 C343 1.393 . S
C340 H329 0.950 . S
C340 C338 1.391 . S
C340 C341 1.400 . S
C341 C335 1.491 . S
C341 C340 1.400 . S
C341 C342 1.398 . S
C342 H330 0.950 . S
C342 C341 1.398 . S
C342 C343 1.391 . S
C343 H331 0.950 . S
C343 C339 1.393 . S
C343 C342 1.391 . S
H344 C352 0.950 . S
H345 C357 0.950 . S
H346 C354 0.950 . S
H347 C356 0.950 . S
H348 C358 0.950 . S
H349 C360 0.950 . S
H350 C362 0.950 . S
H351 C363 0.950 . S
C352 H344 0.950 . S
C352 C353 1.386 . S
C352 C354 1.391 . S
C353 C352 1.386 . S
C353 C357 1.393 . S
C354 H346 0.950 . S
C354 C352 1.391 . S
C354 C355 1.400 . S
C355 C354 1.400 . S
C355 C356 1.398 . S
C355 C361 1.491 . S
C356 H347 0.950 . S
C356 C355 1.398 . S
C356 C357 1.391 . S
C357 H345 0.950 . S
C357 C353 1.393 . S
C357 C356 1.391 . S
C358 H348 0.950 . S
C358 C359 1.386 . S
C358 C360 1.391 . S
C359 C358 1.386 . S
C359 C363 1.393 . S
C360 H349 0.950 . S
C360 C358 1.391 . S
C360 C361 1.400 . S
C361 C355 1.491 . S
C361 C360 1.400 . S
C361 C362 1.398 . S
C362 H350 0.950 . S
C362 C361 1.398 . S
C362 C363 1.391 . S
C363 H351 0.950 . S
C363 C359 1.393 . S
C363 C362 1.391 . S
H364 C372 0.950 . S
H365 C377 0.950 . S
H366 C374 0.950 . S
H367 C376 0.950 . S
H368 C378 0.950 . S
H369 C380 0.950 . S
H370 C382 0.950 . S
H371 C383 0.950 . S
C372 H364 0.950 . S
C372 C373 1.386 . S
C372 C374 1.391 . S
C373 C372 1.386 . S
C373 C377 1.393 . S
C374 H366 0.950 . S
C374 C372 1.391 . S
C374 C375 1.400 . S
C375 C374 1.400 . S
C375 C376 1.398 . S
C375 C381 1.491 . S
C376 H367 0.950 . S
C376 C375 1.398 . S
C376 C377 1.391 . S
C377 H365 0.950 . S
C377 C373 1.393 . S
C377 C376 1.391 . S
C378 H368 0.950 . S
C378 C379 1.386 . S
C378 C380 1.391 . S
C379 C378 1.386 . S
C379 C383 1.393 . S
C380 H369 0.950 . S
C380 C378 1.391 . S
C380 C381 1.400 . S
C381 C375 1.491 . S
C381 C380 1.400 . S
C381 C382 1.398 . S
C382 H370 0.950 . S
C382 C381 1.398 . S
C382 C383 1.391 . S
C383 H371 0.950 . S
C383 C379 1.393 . S
C383 C382 1.391 . S
H384 C392 0.950 . S
H385 C397 0.950 . S
H386 C394 0.950 . S
H387 C396 0.950 . S
H388 C398 0.950 . S
H389 C400 0.950 . S
H390 C402 0.950 . S
H391 C403 0.950 . S
C392 H384 0.950 . S
C392 C393 1.386 . S
C392 C394 1.391 . S
C393 C392 1.386 . S
C393 C397 1.393 . S
C394 H386 0.950 . S
C394 C392 1.391 . S
C394 C395 1.400 . S
C395 C394 1.400 . S
C395 C396 1.398 . S
C395 C401 1.491 . S
C396 H387 0.950 . S
C396 C395 1.398 . S
C396 C397 1.391 . S
C397 H385 0.950 . S
C397 C393 1.393 . S
C397 C396 1.391 . S
C398 H388 0.950 . S
C398 C399 1.386 . S
C398 C400 1.391 . S
C399 C398 1.386 . S
C399 C403 1.393 . S
C400 H389 0.950 . S
C400 C398 1.391 . S
C400 C401 1.400 . S
C401 C395 1.491 . S
C401 C400 1.400 . S
C401 C402 1.398 . S
C402 H390 0.950 . S
C402 C401 1.398 . S
C402 C403 1.391 . S
C403 H391 0.950 . S
C403 C399 1.393 . S
C403 C402 1.391 . S
H404 C412 0.950 . S
H405 C417 0.950 . S
H406 C414 0.950 . S
H407 C416 0.950 . S
H408 C418 0.950 . S
H409 C420 0.950 . S
H410 C422 0.950 . S
H411 C423 0.950 . S
C412 H404 0.950 . S
C412 C413 1.386 . S
C412 C414 1.391 . S
C413 C412 1.386 . S
C413 C417 1.393 . S
C414 H406 0.950 . S
C414 C412 1.391 . S
C414 C415 1.400 . S
C415 C414 1.400 . S
C415 C416 1.398 . S
C415 C421 1.491 . S
C416 H407 0.950 . S
C416 C415 1.398 . S
C416 C417 1.391 . S
C417 H405 0.950 . S
C417 C413 1.393 . S
C417 C416 1.391 . S
C418 H408 0.950 . S
C418 C419 1.386 . S
C418 C420 1.391 . S
C419 C418 1.386 . S
C419 C423 1.393 . S
C420 H409 0.950 . S
C420 C418 1.391 . S
C420 C421 1.400 . S
C421 C415 1.491 . S
C421 C420 1.400 . S
C421 C422 1.398 . S
C422 H410 0.950 . S
C422 C421 1.398 . S
C422 C423 1.391 . S
C423 H411 0.950 . S
C423 C419 1.393 . S
C423 C422 1.391 . S
H424 C432 0.950 . S
H425 C437 0.950 . S
H426 C434 0.950 . S
H427 C436 0.950 . S
H428 C438 0.950 1_545 S
H429 C440 0.950 . S
H430 C442 0.950 . S
H431 C443 0.950 . S
C432 H424 0.950 . S
C432 C433 1.386 . S
C432 C434 1.391 . S
C433 C432 1.386 . S
C433 C437 1.393 . S
C434 H426 0.950 . S
C434 C432 1.391 . S
C434 C435 1.400 . S
C435 C434 1.400 . S
C435 C436 1.398 . S
C435 C441 1.491 . S
C436 H427 0.950 . S
C436 C435 1.398 . S
C436 C437 1.391 . S
C437 H425 0.950 . S
C437 C433 1.393 . S
C437 C436 1.391 . S
C438 H428 0.950 1_565 S
C438 C439 1.386 . S
C438 C440 1.391 . S
C439 C438 1.386 . S
C439 C443 1.393 . S
C440 H429 0.950 . S
C440 C438 1.391 . S
C440 C441 1.400 . S
C441 C435 1.491 . S
C441 C440 1.400 . S
C441 C442 1.398 . S
C442 H430 0.950 . S
C442 C441 1.398 . S
C442 C443 1.391 . S
C443 H431 0.950 . S
C443 C439 1.393 . S
C443 C442 1.391 . S
H444 C452 0.950 . S
H445 C457 0.950 . S
H446 C454 0.950 . S
H447 C456 0.950 . S
H448 C458 0.950 . S
H449 C460 0.950 . S
H450 C462 0.950 . S
H451 C463 0.950 . S
C452 H444 0.950 . S
C452 C453 1.386 . S
C452 C454 1.391 . S
C453 C452 1.386 . S
C453 C457 1.393 . S
C454 H446 0.950 . S
C454 C452 1.391 . S
C454 C455 1.400 . S
C455 C454 1.400 . S
C455 C456 1.398 . S
C455 C461 1.491 . S
C456 H447 0.950 . S
C456 C455 1.398 . S
C456 C457 1.391 . S
C457 H445 0.950 . S
C457 C453 1.393 . S
C457 C456 1.391 . S
C458 H448 0.950 . S
C458 C459 1.386 . S
C458 C460 1.391 . S
C459 C458 1.386 . S
C459 C463 1.393 . S
C460 H449 0.950 . S
C460 C458 1.391 . S
C460 C461 1.400 . S
C461 C455 1.491 . S
C461 C460 1.400 . S
C461 C462 1.398 . S
C462 H450 0.950 . S
C462 C461 1.398 . S
C462 C463 1.391 . S
C463 H451 0.950 . S
C463 C459 1.393 . S
C463 C462 1.391 . S
H464 C472 0.950 . S
H465 C477 0.950 . S
H466 C474 0.950 . S
H467 C476 0.950 . S
H468 C478 0.950 . S
H469 C480 0.950 . S
H470 C482 0.950 . S
H471 C483 0.950 . S
C472 H464 0.950 . S
C472 C473 1.386 . S
C472 C474 1.391 . S
C473 C472 1.386 . S
C473 C477 1.393 . S
C474 H466 0.950 . S
C474 C472 1.391 . S
C474 C475 1.400 . S
C475 C474 1.400 . S
C475 C476 1.398 . S
C475 C481 1.491 . S
C476 H467 0.950 . S
C476 C475 1.398 . S
C476 C477 1.391 . S
C477 H465 0.950 . S
C477 C473 1.393 . S
C477 C476 1.391 . S
C478 H468 0.950 . S
C478 C479 1.386 . S
C478 C480 1.391 . S
C479 C478 1.386 . S
C479 C483 1.393 . S
C480 H469 0.950 . S
C480 C478 1.391 . S
C480 C481 1.400 . S
C481 C475 1.491 . S
C481 C480 1.400 . S
C481 C482 1.398 . S
C482 H470 0.950 . S
C482 C481 1.398 . S
C482 C483 1.391 . S
C483 H471 0.950 . S
C483 C479 1.393 . S
C483 C482 1.391 . S
H484 C492 0.950 . S
H485 C497 0.950 . S
H486 C494 0.950 . S
H487 C496 0.950 . S
H488 C498 0.950 . S
H489 C500 0.950 . S
H490 C502 0.950 . S
H491 C503 0.950 . S
C492 H484 0.950 . S
C492 C493 1.386 . S
C492 C494 1.391 . S
C493 C492 1.386 . S
C493 C497 1.393 . S
C494 H486 0.950 . S
C494 C492 1.391 . S
C494 C495 1.400 . S
C495 C494 1.400 . S
C495 C496 1.398 . S
C495 C501 1.491 . S
C496 H487 0.950 . S
C496 C495 1.398 . S
C496 C497 1.391 . S
C497 H485 0.950 . S
C497 C493 1.393 . S
C497 C496 1.391 . S
C498 H488 0.950 . S
C498 C499 1.386 . S
C498 C500 1.391 . S
C499 C498 1.386 . S
C499 C503 1.393 . S
C500 H489 0.950 . S
C500 C498 1.391 . S
C500 C501 1.400 . S
C501 C495 1.491 . S
C501 C500 1.400 . S
C501 C502 1.398 . S
C502 H490 0.950 . S
C502 C501 1.398 . S
C502 C503 1.391 . S
C503 H491 0.950 . S
C503 C499 1.393 . S
C503 C502 1.391 . S
H504 C512 0.950 . S
H505 C517 0.950 . S
H506 C514 0.950 . S
H507 C516 0.950 . S
H508 C518 0.950 . S
H509 C520 0.950 . S
H510 C522 0.950 . S
H511 C523 0.950 . S
C512 H504 0.950 . S
C512 C513 1.386 . S
C512 C514 1.391 . S
C513 C512 1.386 . S
C513 C517 1.393 . S
C514 H506 0.950 . S
C514 C512 1.391 . S
C514 C515 1.400 . S
C515 C514 1.400 . S
C515 C516 1.398 . S
C515 C521 1.491 . S
C516 H507 0.950 . S
C516 C515 1.398 . S
C516 C517 1.391 . S
C517 H505 0.950 . S
C517 C513 1.393 . S
C517 C516 1.391 . S
C518 H508 0.950 . S
C518 C519 1.386 . S
C518 C520 1.391 . S
C519 C518 1.386 . S
C519 C523 1.393 . S
C520 H509 0.950 . S
C520 C518 1.391 . S
C520 C521 1.400 . S
C521 C515 1.491 . S
C521 C520 1.400 . S
C521 C522 1.398 . S
C522 H510 0.950 . S
C522 C521 1.398 . S
C522 C523 1.391 . S
C523 H511 0.950 . S
C523 C519 1.393 . S
C523 C522 1.391 . S
H524 C532 0.950 . S
H525 C537 0.950 . S
H526 C534 0.950 . S
H527 C536 0.950 . S
H528 C538 0.950 . S
H529 C540 0.950 . S
H530 C542 0.950 . S
H531 C543 0.950 . S
C532 H524 0.950 . S
C532 C533 1.386 . S
C532 C534 1.391 . S
C533 C532 1.386 . S
C533 C537 1.393 . S
C534 H526 0.950 . S
C534 C532 1.391 . S
C534 C535 1.400 . S
C535 C534 1.400 . S
C535 C536 1.398 . S
C535 C541 1.491 . S
C536 H527 0.950 . S
C536 C535 1.398 . S
C536 C537 1.391 . S
C537 H525 0.950 . S
C537 C533 1.393 . S
C537 C536 1.391 . S
C538 H528 0.950 . S
C538 C539 1.386 . S
C538 C540 1.391 . S
C539 C538 1.386 . S
C539 C543 1.393 . S
C540 H529 0.950 . S
C540 C538 1.391 . S
C540 C541 1.400 . S
C541 C535 1.491 . S
C541 C540 1.400 . S
C541 C542 1.398 . S
C542 H530 0.950 . S
C542 C541 1.398 . S
C542 C543 1.391 . S
C543 H531 0.950 . S
C543 C539 1.393 . S
C543 C542 1.391 . S
H544 C552 0.950 . S
H545 C557 0.950 . S
H546 C554 0.950 . S
H547 C556 0.950 . S
H548 C558 0.950 . S
H549 C560 0.950 . S
H550 C562 0.950 . S
H551 C563 0.950 . S
C552 H544 0.950 . S
C552 C553 1.386 . S
C552 C554 1.391 . S
C553 C552 1.386 . S
C553 C557 1.393 . S
C554 H546 0.950 . S
C554 C552 1.391 . S
C554 C555 1.400 . S
C555 C554 1.400 . S
C555 C556 1.398 . S
C555 C561 1.491 . S
C556 H547 0.950 . S
C556 C555 1.398 . S
C556 C557 1.391 . S
C557 H545 0.950 . S
C557 C553 1.393 . S
C557 C556 1.391 . S
C558 H548 0.950 . S
C558 C559 1.386 . S
C558 C560 1.391 . S
C559 C558 1.386 . S
C559 C563 1.393 . S
C560 H549 0.950 . S
C560 C558 1.391 . S
C560 C561 1.400 . S
C561 C555 1.491 . S
C561 C560 1.400 . S
C561 C562 1.398 . S
C562 H550 0.950 . S
C562 C561 1.398 . S
C562 C563 1.391 . S
C563 H551 0.950 . S
C563 C559 1.393 . S
C563 C562 1.391 . S
H564 C572 0.950 . S
H565 C577 0.950 . S
H566 C574 0.950 . S
H567 C576 0.950 . S
H568 C578 0.950 . S
H569 C580 0.950 . S
H570 C582 0.950 . S
H571 C583 0.950 . S
C572 H564 0.950 . S
C572 C573 1.386 . S
C572 C574 1.391 . S
C573 C572 1.386 . S
C573 C577 1.393 . S
C574 H566 0.950 . S
C574 C572 1.391 . S
C574 C575 1.400 . S
C575 C574 1.400 . S
C575 C576 1.398 . S
C575 C581 1.491 . S
C576 H567 0.950 . S
C576 C575 1.398 . S
C576 C577 1.391 . S
C577 H565 0.950 . S
C577 C573 1.393 . S
C577 C576 1.391 . S
C578 H568 0.950 . S
C578 C579 1.386 . S
C578 C580 1.391 . S
C579 C578 1.386 . S
C579 C583 1.393 . S
C580 H569 0.950 . S
C580 C578 1.391 . S
C580 C581 1.400 . S
C581 C575 1.491 . S
C581 C580 1.400 . S
C581 C582 1.398 . S
C582 H570 0.950 . S
C582 C581 1.398 . S
C582 C583 1.391 . S
C583 H571 0.950 . S
C583 C579 1.393 . S
C583 C582 1.391 . S
H584 C592 0.950 . S
H585 C597 0.950 . S
H586 C594 0.950 . S
H587 C596 0.950 . S
H588 C598 0.950 . S
H589 C600 0.950 . S
H590 C602 0.950 . S
H591 C603 0.950 . S
C592 H584 0.950 . S
C592 C593 1.386 . S
C592 C594 1.391 . S
C593 C592 1.386 . S
C593 C597 1.393 . S
C594 H586 0.950 . S
C594 C592 1.391 . S
C594 C595 1.400 . S
C595 C594 1.400 . S
C595 C596 1.398 . S
C595 C601 1.491 . S
C596 H587 0.950 . S
C596 C595 1.398 . S
C596 C597 1.391 . S
C597 H585 0.950 . S
C597 C593 1.393 . S
C597 C596 1.391 . S
C598 H588 0.950 . S
C598 C599 1.386 . S
C598 C600 1.391 . S
C599 C598 1.386 . S
C599 C603 1.393 . S
C600 H589 0.950 . S
C600 C598 1.391 . S
C600 C601 1.400 . S
C601 C595 1.491 . S
C601 C600 1.400 . S
C601 C602 1.398 . S
C602 H590 0.950 . S
C602 C601 1.398 . S
C602 C603 1.391 . S
C603 H591 0.950 . S
C603 C599 1.393 . S
C603 C602 1.391 . S
H604 C612 0.950 . S
H605 C617 0.950 . S
H606 C614 0.950 . S
H607 C616 0.950 . S
H608 C618 0.950 . S
H609 C620 0.950 . S
H610 C622 0.950 . S
H611 C623 0.950 . S
C612 H604 0.950 . S
C612 C613 1.386 . S
C612 C614 1.391 . S
C613 C612 1.386 . S
C613 C617 1.393 . S
C614 H606 0.950 . S
C614 C612 1.391 . S
C614 C615 1.400 . S
C615 C614 1.400 . S
C615 C616 1.398 . S
C615 C621 1.491 . S
C616 H607 0.950 . S
C616 C615 1.398 . S
C616 C617 1.391 . S
C617 H605 0.950 . S
C617 C613 1.393 . S
C617 C616 1.391 . S
C618 H608 0.950 . S
C618 C619 1.386 . S
C618 C620 1.391 . S
C619 C618 1.386 . S
C619 C623 1.393 . S
C620 H609 0.950 . S
C620 C618 1.391 . S
C620 C621 1.400 . S
C621 C615 1.491 . S
C621 C620 1.400 . S
C621 C622 1.398 . S
C622 H610 0.950 . S
C622 C621 1.398 . S
C622 C623 1.391 . S
C623 H611 0.950 . S
C623 C619 1.393 . S
C623 C622 1.391 . S
H624 C632 0.950 . S
H625 C637 0.950 . S
H626 C634 0.950 . S
H627 C636 0.950 . S
H628 C638 0.950 . S
H629 C640 0.950 . S
H630 C642 0.950 . S
H631 C643 0.950 . S
C632 H624 0.950 . S
C632 C633 1.386 . S
C632 C634 1.391 . S
C633 C632 1.386 . S
C633 C637 1.393 . S
C634 H626 0.950 . S
C634 C632 1.391 . S
C634 C635 1.400 . S
C635 C634 1.400 . S
C635 C636 1.398 . S
C635 C641 1.491 . S
C636 H627 0.950 . S
C636 C635 1.398 . S
C636 C637 1.391 . S
C637 H625 0.950 . S
C637 C633 1.393 . S
C637 C636 1.391 . S
C638 H628 0.950 . S
C638 C639 1.386 . S
C638 C640 1.391 . S
C639 C638 1.386 . S
C639 C643 1.393 . S
C640 H629 0.950 . S
C640 C638 1.391 . S
C640 C641 1.400 . S
C641 C635 1.491 . S
C641 C640 1.400 . S
C641 C642 1.398 . S
C642 H630 0.950 . S
C642 C641 1.398 . S
C642 C643 1.391 . S
C643 H631 0.950 . S
C643 C639 1.393 . S
C643 C642 1.391 . S
H644 C652 0.950 . S
H645 C657 0.950 . S
H646 C654 0.950 . S
H647 C656 0.950 . S
H648 C658 0.950 . S
H649 C660 0.950 . S
H650 C662 0.950 . S
H651 C663 0.950 . S
C652 H644 0.950 . S
C652 C653 1.386 . S
C652 C654 1.391 . S
C653 C652 1.386 . S
C653 C657 1.393 . S
C654 H646 0.950 . S
C654 C652 1.391 . S
C654 C655 1.400 . S
C655 C654 1.400 . S
C655 C656 1.398 . S
C655 C661 1.491 . S
C656 H647 0.950 . S
C656 C655 1.398 . S
C656 C657 1.391 . S
C657 H645 0.950 . S
C657 C653 1.393 . S
C657 C656 1.391 . S
C658 H648 0.950 . S
C658 C659 1.386 . S
C658 C660 1.391 . S
C659 C658 1.386 . S
C659 C663 1.393 . S
C660 H649 0.950 . S
C660 C658 1.391 . S
C660 C661 1.400 . S
C661 C655 1.491 . S
C661 C660 1.400 . S
C661 C662 1.398 . S
C662 H650 0.950 . S
C662 C661 1.398 . S
C662 C663 1.391 . S
C663 H651 0.950 . S
C663 C659 1.393 . S
C663 C662 1.391 . S
C193 C9 1.863 . S
C199 C123 1.855 . S
C213 C21 1.300 . S
C219 C126 1.302 . S
C239 C162 1.424 . S
C233 C30 1.385 . S
C253 C43 1.479 . S
C259 C182 1.483 1_655 S
C279 C136 1.563 . S
C273 C4 1.564 . S
C299 C113 2.026 . S
C293 C22 2.042 . S
C319 C166 1.268 . S
C313 C34 1.367 . S
C339 C146 1.183 . S
C333 C48 1.262 . S
C353 C8 1.443 . S
C359 C176 1.396 . S
C379 C142 1.698 . S
C373 C35 1.719 . S
C393 C47 1.756 . S
C399 C108 1.727 . S
C413 C17 1.181 . S
C419 C156 1.167 . S
C439 C122 1.464 . S
C433 C60 1.486 . S
C453 C74 1.478 . S
C459 C128 1.407 . S
C473 C82 1.261 . S
C479 C163 1.265 . S
C493 C100 1.927 . S
C499 C183 1.911 . S
C513 C61 2.004 . S
C519 C133 1.983 . S
C539 C116 1.614 . S
C533 C73 1.638 . S
C559 C168 1.696 . S
C553 C87 1.759 . S
C579 C148 1.075 . S
C573 C95 1.173 . S
C593 C56 1.383 . S
C599 C173 1.356 . S
C619 C143 1.714 . S
C613 C86 1.736 . S
C639 C106 1.644 . S
C633 C99 1.676 . S
C653 C69 1.201 . S
C659 C153 1.213 . S
