# Generated by pormake.
# Topology apo, (3,6)-cn, num edge types: 1
# Building blocks:
#     Node 0, Type 0, BuildingBlock: BETDAH_clean_linker_0, # of connection points: 3
#     Node 1, Type 0, BuildingBlock: BETDAH_clean_linker_0, # of connection points: 3
#     Node 2, Type 0, BuildingBlock: BETDAH_clean_linker_0, # of connection points: 3
#     Node 3, Type 0, BuildingBlock: BETDAH_clean_linker_0, # of connection points: 3
#     Node 4, Type 0, BuildingBlock: BETDAH_clean_linker_0, # of connection points: 3
#     Node 5, Type 0, BuildingBlock: BETDAH_clean_linker_0, # of connection points: 3
#     Node 6, Type 0, BuildingBlock: BETDAH_clean_linker_0, # of connection points: 3
#     Node 7, Type 0, BuildingBlock: BETDAH_clean_linker_0, # of connection points: 3
#     Node 8, Type 1, BuildingBlock: KUMJIN_clean_sbu_1, # of connection points: 6
#     Node 9, Type 1, BuildingBlock: KUMJIN_clean_sbu_1, # of connection points: 6
#     Node 10, Type 1, BuildingBlock: KUMJIN_clean_sbu_1, # of connection points: 6
#     Node 11, Type 1, BuildingBlock: KUMJIN_clean_sbu_1, # of connection points: 6
#     Edge 12, Type (0, 1), BuildingBlock: EZIPEK_clean_linker_0, # of connection points: 2
#     Edge 13, Type (0, 1), BuildingBlock: EZIPEK_clean_linker_0, # of connection points: 2
#     Edge 14, Type (0, 1), BuildingBlock: EZIPEK_clean_linker_0, # of connection points: 2
#     Edge 15, Type (0, 1), BuildingBlock: EZIPEK_clean_linker_0, # of connection points: 2
#     Edge 16, Type (0, 1), BuildingBlock: EZIPEK_clean_linker_0, # of connection points: 2
#     Edge 17, Type (0, 1), BuildingBlock: EZIPEK_clean_linker_0, # of connection points: 2
#     Edge 18, Type (0, 1), BuildingBlock: EZIPEK_clean_linker_0, # of connection points: 2
#     Edge 19, Type (0, 1), BuildingBlock: EZIPEK_clean_linker_0, # of connection points: 2
#     Edge 20, Type (0, 1), BuildingBlock: EZIPEK_clean_linker_0, # of connection points: 2
#     Edge 21, Type (0, 1), BuildingBlock: EZIPEK_clean_linker_0, # of connection points: 2
#     Edge 22, Type (0, 1), BuildingBlock: EZIPEK_clean_linker_0, # of connection points: 2
#     Edge 23, Type (0, 1), BuildingBlock: EZIPEK_clean_linker_0, # of connection points: 2
#     Edge 24, Type (0, 1), BuildingBlock: EZIPEK_clean_linker_0, # of connection points: 2
#     Edge 25, Type (0, 1), BuildingBlock: EZIPEK_clean_linker_0, # of connection points: 2
#     Edge 26, Type (0, 1), BuildingBlock: EZIPEK_clean_linker_0, # of connection points: 2
#     Edge 27, Type (0, 1), BuildingBlock: EZIPEK_clean_linker_0, # of connection points: 2
#     Edge 28, Type (0, 1), BuildingBlock: EZIPEK_clean_linker_0, # of connection points: 2
#     Edge 29, Type (0, 1), BuildingBlock: EZIPEK_clean_linker_0, # of connection points: 2
#     Edge 30, Type (0, 1), BuildingBlock: EZIPEK_clean_linker_0, # of connection points: 2
#     Edge 31, Type (0, 1), BuildingBlock: EZIPEK_clean_linker_0, # of connection points: 2
#     Edge 32, Type (0, 1), BuildingBlock: EZIPEK_clean_linker_0, # of connection points: 2
#     Edge 33, Type (0, 1), BuildingBlock: EZIPEK_clean_linker_0, # of connection points: 2
#     Edge 34, Type (0, 1), BuildingBlock: EZIPEK_clean_linker_0, # of connection points: 2
#     Edge 35, Type (0, 1), BuildingBlock: EZIPEK_clean_linker_0, # of connection points: 2
# Relax obj value: 0.036
# Max RMSD: 0.241
# Mean RMSD: 0.168
data_MOF--net-apo--node1-KUMJIN_clean_sbu_1--node2-BETDAH_clean_linker_0--edge1-EZIPEK_clean_linker_0
_symmetry_space_group_name_H-M    P1
_symmetry_Int_Tables_number       1
_symmetry_cell_setting            triclinic
loop_
_symmetry_equiv_pos_as_xyz
'x, y, z'
_cell_length_a     20.406385
_cell_length_b     30.39811
_cell_length_c     39.747826
_cell_angle_alpha  89.271955
_cell_angle_beta   89.997176
_cell_angle_gamma 90.132205
loop_
_atom_site_label
_atom_site_type_symbol
_atom_site_fract_x
_atom_site_fract_y
_atom_site_fract_z
_atom_type_partial_charge
H0 H 0.38908 0.45735 0.42394 0.0
H1 H 0.29436 0.36888 0.35711 0.0
H2 H 0.2741 0.35037 0.46371 0.0
C3 C 0.35431 0.4311 0.42112 0.0
C4 C 0.3218 0.41158 0.44894 0.0
C5 C 0.34219 0.41748 0.38798 0.0
C6 C 0.30439 0.37942 0.38253 0.0
C7 C 0.28137 0.35475 0.41029 0.0
C8 C 0.29151 0.37054 0.44291 0.0
N9 N 0.24616 0.31456 0.40715 0.0
C10 C 0.22923 0.2932 0.37758 0.0
H11 H 0.12838 0.07208 0.92554 0.0
H12 H 0.24098 0.09595 0.83559 0.0
H13 H 0.29738 0.15761 0.92782 0.0
C14 C 0.16818 0.08888 0.91264 0.0
C15 C 0.21123 0.116 0.9309 0.0
C16 C 0.17822 0.08199 0.87802 0.0
C17 C 0.23152 0.10236 0.86193 0.0
C18 C 0.27343 0.13047 0.87939 0.0
C19 C 0.2631 0.13755 0.9139 0.0
N20 N 0.33045 0.14595 0.86261 0.0
C21 C 0.35059 0.18967 0.861 0.0
H22 H 0.88718 0.08203 0.59922 0.0
H23 H 0.75299 0.14302 0.66836 0.0
H24 H 0.77629 0.19574 0.56841 0.0
C25 C 0.85286 0.10802 0.60502 0.0
C26 C 0.83681 0.13958 0.58012 0.0
C27 C 0.8235 0.10941 0.63721 0.0
C28 C 0.77747 0.14268 0.6442 0.0
C29 C 0.76043 0.17369 0.61917 0.0
C30 C 0.79041 0.17195 0.58763 0.0
N31 N 0.7083 0.20398 0.6231 0.0
C32 C 0.69384 0.22737 0.65198 0.0
H33 H 0.67506 0.43436 0.09445 0.0
H34 H 0.67091 0.35156 0.18301 0.0
H35 H 0.71693 0.29587 0.08721 0.0
C36 C 0.68263 0.40246 0.10633 0.0
C37 C 0.69874 0.36598 0.08653 0.0
C38 C 0.67179 0.39731 0.14103 0.0
C39 C 0.68072 0.35595 0.15638 0.0
C40 C 0.69856 0.31965 0.13712 0.0
C41 C 0.70633 0.32451 0.10221 0.0
N42 N 0.69963 0.27728 0.15219 0.0
C43 C 0.75725 0.25764 0.1633 0.0
H44 H 0.64945 0.5461 0.59894 0.0
H45 H 0.6873 0.65337 0.66666 0.0
H46 H 0.71059 0.67152 0.55995 0.0
C47 C 0.66569 0.57949 0.60352 0.0
C48 C 0.6785 0.60711 0.57592 0.0
C49 C 0.6664 0.59583 0.63659 0.0
C50 C 0.68788 0.6396 0.64167 0.0
C51 C 0.7072 0.66617 0.61399 0.0
C52 C 0.70047 0.65004 0.58132 0.0
N53 N 0.72774 0.71057 0.61739 0.0
C54 C 0.75968 0.7284 0.64501 0.0
H55 H 0.86718 0.94521 0.10293 0.0
H56 H 0.81531 0.80856 0.09353 0.0
H57 H 0.88813 0.85586 0.18744 0.0
C58 C 0.86143 0.91278 0.11421 0.0
C59 C 0.87872 0.90554 0.14824 0.0
C60 C 0.84147 0.87753 0.09397 0.0
C61 C 0.83141 0.83583 0.1088 0.0
C62 C 0.84628 0.82859 0.14284 0.0
C63 C 0.87292 0.8627 0.16178 0.0
N64 N 0.84058 0.78616 0.15762 0.0
C65 C 0.78044 0.76548 0.16252 0.0
H66 H 0.14638 0.93486 0.42231 0.0
H67 H 0.28746 0.88117 0.35303 0.0
H68 H 0.28389 0.83725 0.45622 0.0
C69 C 0.18552 0.91197 0.41688 0.0
C70 C 0.21065 0.88516 0.44286 0.0
C71 C 0.21304 0.91081 0.38428 0.0
C72 C 0.26478 0.88137 0.37767 0.0
C73 C 0.29005 0.85463 0.40378 0.0
C74 C 0.26315 0.85714 0.43606 0.0
N75 N 0.34682 0.82833 0.39988 0.0
C76 C 0.3641 0.80484 0.37144 0.0
H77 H 0.35786 0.574 0.9259 0.0
H78 H 0.19171 0.65408 0.95013 0.0
H79 H 0.23286 0.62406 0.84687 0.0
C80 C 0.31703 0.59434 0.91784 0.0
C81 C 0.30051 0.59692 0.88357 0.0
C82 C 0.27793 0.61479 0.94201 0.0
C83 C 0.2233 0.63925 0.93152 0.0
C84 C 0.20809 0.64415 0.89732 0.0
C85 C 0.24689 0.62292 0.87316 0.0
N86 N 0.14872 0.66568 0.88868 0.0
C87 C 0.14126 0.69581 0.86234 0.0
Eu88 Eu 0.11042 0.11325 0.22613 0.0
C89 C 0.83751 0.04871 0.2931 0.0
N90 N 0.86197 0.08784 0.28188 0.0
C91 C 0.76078 0.10404 0.25385 0.0
C92 C 0.77417 0.03485 0.28363 0.0
C93 C 0.82347 0.11652 0.26424 0.0
C94 C 0.73638 0.0627 0.26313 0.0
C95 C 0.84997 0.98279 0.3276 0.0
C96 C 0.87514 0.02301 0.31489 0.0
C97 C 0.78762 0.96841 0.3175 0.0
C98 C 0.7499 0.99431 0.29553 0.0
Eu99 Eu 0.96795 0.10627 0.30041 0.0
N100 N 0.93593 0.03733 0.32388 0.0
C101 C 0.88829 0.95805 0.35001 0.0
C102 C 0.97197 0.01427 0.34712 0.0
C103 C 0.94926 0.97406 0.36002 0.0
H104 H 0.84043 0.14936 0.25872 0.0
H105 H 0.97847 0.95573 0.37807 0.0
H106 H 0.23116 0.04121 0.24634 0.0
H107 H 0.13001 0.28922 0.20039 0.0
H108 H 0.01755 0.02707 0.35667 0.0
H109 H 0.87077 0.92694 0.36019 0.0
H110 H 0.07945 0.21496 0.19854 0.0
H111 H 0.73095 0.12658 0.23918 0.0
H112 H 0.76787 0.93743 0.32676 0.0
H113 H 0.70155 0.98302 0.28834 0.0
H114 H 0.34424 0.04322 0.26787 0.0
H115 H 0.68753 0.05322 0.25531 0.0
H116 H 0.23916 0.29882 0.22658 0.0
N117 N 0.22079 0.11097 0.24472 0.0
C118 C 0.25182 0.1504 0.24738 0.0
C119 C 0.31857 0.07364 0.26255 0.0
C120 C 0.31709 0.15301 0.2589 0.0
C121 C 0.254 0.0727 0.2508 0.0
C122 C 0.35002 0.11398 0.26702 0.0
N123 N 0.15712 0.18435 0.2254 0.0
C124 C 0.12658 0.21939 0.21044 0.0
C125 C 0.25019 0.22956 0.23873 0.0
C126 C 0.21894 0.18822 0.23753 0.0
C127 C 0.21687 0.26645 0.22607 0.0
C128 C 0.15524 0.26119 0.21128 0.0
H129 H 0.40013 0.11458 0.27602 0.0
H130 H 0.39733 0.197 0.27082 0.0
H131 H 0.33874 0.26407 0.25307 0.0
O132 O 0.0932 0.12699 0.17252 0.0
O133 O 0.09137 0.16781 0.26365 0.0
O134 O 0.06866 0.13333 0.31348 0.0
O135 O 0.17169 0.08406 0.18698 0.0
O136 O 0.00777 0.13584 0.21196 0.0
O137 O 0.96189 0.16166 0.2613 0.0
O138 O 0.92424 0.10598 0.35063 0.0
O139 O 0.94977 0.06741 0.25184 0.0
O140 O 0.05283 0.04983 0.23143 0.0
O141 O 0.93196 0.16713 0.32288 0.0
O142 O 0.06224 0.07116 0.31311 0.0
O143 O 0.12075 0.05512 0.26416 0.0
C144 C 0.10039 0.16361 0.29617 0.0
C145 C 0.18424 0.12435 0.13577 0.0
C146 C 0.21333 0.13542 0.07634 0.0
C147 C 0.26505 0.16289 0.08621 0.0
C148 C 0.23626 0.152 0.14488 0.0
C149 C 0.27624 0.17118 0.12022 0.0
C150 C 0.17255 0.11631 0.10132 0.0
C151 C 0.96388 0.15913 0.22821 0.0
C152 C 0.14231 0.10381 0.16201 0.0
C153 C 0.34753 0.19433 0.26161 0.0
C154 C 0.31413 0.23253 0.25157 0.0
C155 C 0.98893 0.04423 0.23227 0.0
C156 C 0.93683 0.17005 0.38328 0.0
C157 C 0.93128 0.174 0.44494 0.0
C158 C 0.96506 0.21432 0.44332 0.0
C159 C 0.97078 0.2103 0.38258 0.0
C160 C 0.91835 0.15161 0.41472 0.0
C161 C 0.98522 0.23199 0.41243 0.0
C162 C 0.10622 0.04838 0.29651 0.0
C163 C 0.91693 0.14832 0.35159 0.0
H164 H 0.29691 0.17788 0.06749 0.0
H165 H 0.24622 0.15859 0.17106 0.0
H166 H 0.3163 0.19241 0.12751 0.0
H167 H 0.13252 0.09499 0.09397 0.0
H168 H 0.97546 0.23231 0.46608 0.0
H169 H 0.98541 0.22542 0.35901 0.0
H170 H 0.89196 0.12062 0.41569 0.0
H171 H 0.01121 0.26307 0.41155 0.0
Eu172 Eu 0.43218 0.40895 0.73634 0.0
C173 C 0.71735 0.46683 0.79614 0.0
N174 N 0.68882 0.42965 0.78436 0.0
C175 C 0.78411 0.41421 0.75136 0.0
C176 C 0.7802 0.47984 0.78502 0.0
C177 C 0.72213 0.40237 0.76342 0.0
C178 C 0.81298 0.4534 0.76188 0.0
C179 C 0.7146 0.52857 0.83424 0.0
C180 C 0.68477 0.49095 0.82046 0.0
C181 C 0.77635 0.54232 0.82249 0.0
C182 C 0.80897 0.51809 0.7979 0.0
Eu183 Eu 0.58359 0.41298 0.80548 0.0
N184 N 0.62462 0.4773 0.83107 0.0
C185 C 0.68192 0.55095 0.85979 0.0
C186 C 0.59429 0.49757 0.85731 0.0
C187 C 0.62187 0.53505 0.87164 0.0
H188 H 0.7008 0.37153 0.75598 0.0
H189 H 0.59703 0.55146 0.89199 0.0
H190 H 0.30633 0.47139 0.7647 0.0
H191 H 0.42674 0.24215 0.68741 0.0
H192 H 0.54856 0.48485 0.86723 0.0
H193 H 0.70326 0.57995 0.87102 0.0
H194 H 0.47339 0.3159 0.69719 0.0
H195 H 0.80981 0.39293 0.7342 0.0
H196 H 0.79971 0.57134 0.83261 0.0
H197 H 0.85701 0.52875 0.78948 0.0
H198 H 0.19132 0.46112 0.78196 0.0
H199 H 0.86126 0.46233 0.75269 0.0
H200 H 0.31433 0.22466 0.70684 0.0
N201 N 0.32052 0.40398 0.75245 0.0
C202 C 0.29141 0.36422 0.74781 0.0
C203 C 0.21909 0.43348 0.77273 0.0
C204 C 0.22527 0.35717 0.75683 0.0
C205 C 0.28459 0.439 0.76328 0.0
C206 C 0.1895 0.39226 0.7699 0.0
N207 N 0.39007 0.33881 0.72366 0.0
C208 C 0.42502 0.30822 0.70643 0.0
C209 C 0.2981 0.28928 0.7276 0.0
C210 C 0.3272 0.33069 0.73317 0.0
C211 C 0.33493 0.25689 0.71154 0.0
C212 C 0.39842 0.2666 0.70056 0.0
H213 H 0.13865 0.38813 0.77716 0.0
H214 H 0.1462 0.3095 0.7593 0.0
H215 H 0.21003 0.25003 0.73382 0.0
O216 O 0.41989 0.40476 0.68072 0.0
O217 O 0.44315 0.34931 0.77093 0.0
O218 O 0.48423 0.38218 0.81815 0.0
O219 O 0.38226 0.46063 0.70878 0.0
O220 O 0.53245 0.3835 0.72095 0.0
O221 O 0.57884 0.35513 0.7698 0.0
O222 O 0.58361 0.39853 0.85959 0.0
O223 O 0.60281 0.44793 0.75511 0.0
O224 O 0.49835 0.46902 0.74089 0.0
O225 O 0.65403 0.36674 0.82771 0.0
O226 O 0.50902 0.46817 0.80968 0.0
O227 O 0.41116 0.44408 0.78553 0.0
C228 C 0.45639 0.34857 0.80328 0.0
C229 C 0.36379 0.46421 0.64876 0.0
C230 C 0.34275 0.46704 0.58815 0.0
C231 C 0.31637 0.50934 0.59169 0.0
C232 C 0.33717 0.5067 0.65137 0.0
C233 C 0.31381 0.52901 0.62305 0.0
C234 C 0.36707 0.44443 0.61679 0.0
C235 C 0.57053 0.35517 0.73693 0.0
C236 C 0.38922 0.44233 0.67962 0.0
C237 C 0.1967 0.3156 0.75219 0.0
C238 C 0.23305 0.28173 0.73768 0.0
C239 C 0.56208 0.47147 0.73655 0.0
C240 C 0.6879 0.38545 0.88306 0.0
C241 C 0.72433 0.39129 0.94152 0.0
C242 C 0.78028 0.41425 0.93039 0.0
C243 C 0.74569 0.40672 0.87256 0.0
C244 C 0.67813 0.37692 0.91762 0.0
C245 C 0.79119 0.42135 0.89611 0.0
C246 C 0.44516 0.47057 0.80503 0.0
C247 C 0.63605 0.37435 0.85856 0.0
H248 H 0.29746 0.52716 0.57 0.0
H249 H 0.33453 0.52303 0.6754 0.0
H250 H 0.29348 0.56168 0.62544 0.0
H251 H 0.38774 0.41186 0.61418 0.0
H252 H 0.81607 0.42606 0.94829 0.0
H253 H 0.75568 0.41233 0.8462 0.0
H254 H 0.63424 0.35984 0.92597 0.0
H255 H 0.83503 0.43836 0.88774 0.0
Eu256 Eu 0.04126 0.91021 0.72296 0.0
C257 C 0.7498 0.87861 0.78318 0.0
N258 N 0.78825 0.9152 0.78362 0.0
C259 C 0.69503 0.96021 0.77033 0.0
C260 C 0.68247 0.88139 0.77537 0.0
C261 C 0.76136 0.95588 0.7785 0.0
C262 C 0.65552 0.92279 0.76843 0.0
C263 C 0.73891 0.79976 0.79192 0.0
C264 C 0.77761 0.83823 0.79106 0.0
C265 C 0.67237 0.8022 0.78316 0.0
C266 C 0.64421 0.84292 0.7749 0.0
Eu267 Eu 0.90021 0.90412 0.79739 0.0
N268 N 0.84195 0.83694 0.79963 0.0
C269 C 0.76781 0.76025 0.80263 0.0
C270 C 0.86899 0.79935 0.81264 0.0
C271 C 0.83289 0.76021 0.81356 0.0
H272 H 0.79051 0.9853 0.78125 0.0
H273 H 0.85507 0.73017 0.82295 0.0
H274 H 0.17449 0.86965 0.75991 0.0
H275 H 0.0115 0.07085 0.66005 0.0
H276 H 0.91878 0.79958 0.8218 0.0
H277 H 0.73974 0.72996 0.80361 0.0
H278 H 0.9882 0.99248 0.67062 0.0
H279 H 0.67424 0.99249 0.76588 0.0
H280 H 0.64195 0.77293 0.78334 0.0
H281 H 0.59257 0.84439 0.76866 0.0
H282 H 0.27856 0.8968 0.78457 0.0
H283 H 0.60408 0.9263 0.76223 0.0
H284 H 0.10514 0.10662 0.68833 0.0
N285 N 0.14314 0.93322 0.74446 0.0
C286 C 0.1592 0.97626 0.74011 0.0
C287 C 0.24515 0.91957 0.77241 0.0
C288 C 0.2178 0.99326 0.75352 0.0
C289 C 0.18644 0.9043 0.75857 0.0
C290 C 0.26037 0.9644 0.77041 0.0
N291 N 0.06285 0.98479 0.70772 0.0
C292 C 0.02709 0.00804 0.68452 0.0
C293 C 0.1343 0.04732 0.71508 0.0
C294 C 0.11766 1.00287 0.72132 0.0
C295 C 0.09418 0.07236 0.69371 0.0
C296 C 0.04112 0.05234 0.67782 0.0
H297 H 0.30588 0.97617 0.78112 0.0
H298 H 0.27706 0.05191 0.75945 0.0
H299 H 0.20403 0.09927 0.72565 0.0
O300 O 0.0772 0.91531 0.67064 0.0
O301 O 0.06211 0.93319 0.77686 0.0
O302 O 0.96476 0.96423 0.79136 0.0
O303 O 0.09276 0.85515 0.69995 0.0
O304 O 0.94278 0.94121 0.7108 0.0
O305 O 0.8957 0.96328 0.76085 0.0
O306 O 0.92744 0.89302 0.85038 0.0
O307 O 0.89998 0.85028 0.75771 0.0
O308 O 0.94175 0.88182 0.70889 0.0
O309 O 0.84531 0.93409 0.83838 0.0
O310 O 0.99601 0.86677 0.80639 0.0
O311 O 0.04063 0.84741 0.75469 0.0
C312 C 0.02854 0.96227 0.79397 0.0
C313 C 0.13427 0.85524 0.64232 0.0
C314 C 0.16362 0.85349 0.58252 0.0
C315 C 0.19624 0.81352 0.5882 0.0
C316 C 0.16735 0.81516 0.64717 0.0
C317 C 0.19814 0.79458 0.62031 0.0
C318 C 0.13261 0.8745 0.60972 0.0
C319 C 0.90458 0.96768 0.72798 0.0
C320 C 0.10037 0.87555 0.67124 0.0
C321 C 0.23268 0.03806 0.74895 0.0
C322 C 0.19106 0.06503 0.72972 0.0
C323 C 0.90659 0.85169 0.72476 0.0
C324 C 0.83894 0.8932 0.88921 0.0
C325 C 0.8151 0.87897 0.94881 0.0
C326 C 0.76202 0.85239 0.93941 0.0
C327 C 0.78493 0.86692 0.88068 0.0
C328 C 0.85379 0.8994 0.92353 0.0
C329 C 0.74707 0.8465 0.90556 0.0
C330 C 0.03123 0.84069 0.78717 0.0
C331 C 0.87822 0.91494 0.86238 0.0
H332 H 0.22031 0.79693 0.56765 0.0
H333 H 0.16937 0.79954 0.6718 0.0
H334 H 0.22344 0.76371 0.62438 0.0
H335 H 0.10701 0.90524 0.60537 0.0
H336 H 0.7319 0.83636 0.9584 0.0
H337 H 0.77133 0.86256 0.85478 0.0
H338 H 0.89485 0.92 0.93058 0.0
H339 H 0.70567 0.82626 0.89857 0.0
Eu340 Eu 0.43784 0.61079 0.22772 0.0
C341 C 0.74813 0.57758 0.26914 0.0
N342 N 0.69489 0.55249 0.27689 0.0
C343 C 0.75802 0.48668 0.27066 0.0
C344 C 0.8088 0.55783 0.26161 0.0
C345 C 0.699 0.50765 0.27813 0.0
C346 C 0.81311 0.51185 0.26225 0.0
C347 C 0.79718 0.64993 0.26173 0.0
C348 C 0.74218 0.62317 0.26893 0.0
C349 C 0.8574 0.63032 0.25386 0.0
C350 C 0.86316 0.58443 0.25374 0.0
Eu351 Eu 0.59679 0.59071 0.28738 0.0
N352 N 0.68297 0.64138 0.27601 0.0
C353 C 0.79025 0.69568 0.26295 0.0
C354 C 0.67679 0.68596 0.27855 0.0
C355 C 0.72993 0.71374 0.2717 0.0
H356 H 0.65661 0.4881 0.28502 0.0
H357 H 0.724 0.74908 0.27262 0.0
H358 H 0.38825 0.71599 0.22561 0.0
H359 H 0.29348 0.46026 0.25044 0.0
H360 H 0.62966 0.70016 0.2833 0.0
H361 H 0.83124 0.71732 0.25742 0.0
H362 H 0.39164 0.50319 0.23584 0.0
H363 H 0.76102 0.45114 0.27141 0.0
H364 H 0.9 0.65038 0.24808 0.0
H365 H 0.91007 0.56981 0.24777 0.0
H366 H 0.28831 0.75879 0.23758 0.0
H367 H 0.85879 0.49548 0.25648 0.0
H368 H 0.19127 0.4984 0.266 0.0
N369 N 0.34406 0.65425 0.23748 0.0
C370 C 0.28866 0.63248 0.24687 0.0
C371 C 0.28775 0.72332 0.2403 0.0
C372 C 0.2303 0.65567 0.25353 0.0
C373 C 0.34429 0.69902 0.23378 0.0
C374 C 0.23053 0.70158 0.25028 0.0
N375 N 0.34682 0.56532 0.24287 0.0
C376 C 0.34726 0.52034 0.2415 0.0
C377 C 0.23261 0.56349 0.25863 0.0
C378 C 0.29014 0.5869 0.24986 0.0
C379 C 0.23433 0.51749 0.25927 0.0
C380 C 0.29176 0.49585 0.25034 0.0
H381 H 0.18677 0.72052 0.25532 0.0
H382 H 0.12857 0.64978 0.26859 0.0
H383 H 0.13039 0.56907 0.2727 0.0
O384 O 0.43881 0.57943 0.17843 0.0
O385 O 0.4263 0.57136 0.27733 0.0
O386 O 0.52382 0.53527 0.28788 0.0
O387 O 0.39147 0.64213 0.18406 0.0
O388 O 0.52243 0.56846 0.2084 0.0
O389 O 0.57191 0.53336 0.25353 0.0
O390 O 0.57879 0.6122 0.33885 0.0
O391 O 0.61176 0.62978 0.23855 0.0
O392 O 0.51504 0.66405 0.22228 0.0
O393 O 0.65444 0.56445 0.32934 0.0
O394 O 0.5142 0.63539 0.30582 0.0
O395 O 0.46626 0.66908 0.25982 0.0
C396 C 0.46047 0.53956 0.29202 0.0
C397 C 0.34974 0.59573 0.14219 0.0
C398 C 0.30071 0.59079 0.08637 0.0
C399 C 0.24343 0.5734 0.10101 0.0
C400 C 0.29234 0.57795 0.15626 0.0
C401 C 0.23954 0.5668 0.13575 0.0
C402 C 0.35413 0.60161 0.10711 0.0
C403 C 0.55725 0.53598 0.2213 0.0
C404 C 0.40408 0.61005 0.16379 0.0
C405 C 0.17369 0.63249 0.26325 0.0
C406 C 0.1748 0.58654 0.26571 0.0
C407 C 0.57909 0.65964 0.22111 0.0
C408 C 0.60125 0.56021 0.3819 0.0
C409 C 0.60234 0.54946 0.44278 0.0
C410 C 0.56433 0.51123 0.43919 0.0
C411 C 0.56313 0.522 0.37866 0.0
C412 C 0.62037 0.574 0.41402 0.0
C413 C 0.54458 0.49775 0.40723 0.0
C414 C 0.48088 0.66794 0.29205 0.0
C415 C 0.62212 0.58575 0.35211 0.0
H416 H 0.20181 0.56484 0.08546 0.0
H417 H 0.28797 0.57301 0.18303 0.0
H418 H 0.19531 0.55328 0.14684 0.0
H419 H 0.39839 0.61522 0.096 0.0
H420 H 0.54961 0.49212 0.46112 0.0
H421 H 0.54818 0.51083 0.35408 0.0
H422 H 0.64961 0.60358 0.4167 0.0
H423 H 0.51504 0.46837 0.40459 0.0
C424 C 0.15408 0.93355 0.33041 0.0
C425 C 0.19282 0.9447 0.35868 0.0
C426 C 0.17454 0.02286 0.34672 0.0
C427 C 0.14024 0.01259 0.31643 0.0
N428 N 0.10379 0.95659 0.27782 0.0
N429 N 0.25584 0.99964 0.38744 0.0
C430 C 0.13278 0.96744 0.30755 0.0
C431 C 0.20826 0.98924 0.36465 0.0
N432 N 0.13476 0.89087 0.32632 0.0
N433 N 0.17244 0.06405 0.35993 0.0
H434 H 0.28223 0.97588 0.40088 0.0
H435 H 0.27394 0.03149 0.39022 0.0
H436 H 0.1468 0.09001 0.34928 0.0
H437 H 0.19049 0.07135 0.38375 0.0
H438 H 0.10001 0.88113 0.30872 0.0
H439 H 0.14998 0.86538 0.34228 0.0
H440 H 0.10392 0.92488 0.26822 0.0
H441 H 0.08291 0.97958 0.26156 0.0
C442 C 0.38758 0.58063 0.84023 0.0
C443 C 0.33359 0.56638 0.86006 0.0
C444 C 0.35803 0.48978 0.84677 0.0
C445 C 0.40821 0.50389 0.82444 0.0
N446 N 0.46467 0.56339 0.79581 0.0
N447 N 0.25829 0.50853 0.87606 0.0
C448 C 0.42143 0.54958 0.82 0.0
C449 C 0.31578 0.52129 0.8612 0.0
N450 N 0.40747 0.62353 0.84143 0.0
N451 N 0.35363 0.44651 0.85616 0.0
H452 H 0.22583 0.53076 0.88684 0.0
H453 H 0.23984 0.47661 0.87467 0.0
H454 H 0.38772 0.42322 0.84856 0.0
H455 H 0.32159 0.43484 0.87464 0.0
H456 H 0.45094 0.63495 0.83069 0.0
H457 H 0.38235 0.64725 0.85508 0.0
H458 H 0.47144 0.5963 0.78907 0.0
H459 H 0.49014 0.54176 0.78047 0.0
C460 C 0.66881 0.56181 0.69622 0.0
C461 C 0.63768 0.56776 0.66441 0.0
C462 C 0.56407 0.50698 0.67875 0.0
C463 C 0.58853 0.50497 0.71202 0.0
N464 N 0.64731 0.54447 0.75463 0.0
N465 N 0.53668 0.55648 0.63336 0.0
C466 C 0.63632 0.53639 0.72156 0.0
C467 C 0.57903 0.54383 0.65821 0.0
N468 N 0.7298 0.57838 0.70217 0.0
N469 N 0.5305 0.47258 0.66563 0.0
H470 H 0.54267 0.5857 0.61965 0.0
H471 H 0.49188 0.54063 0.62957 0.0
H472 H 0.52639 0.44286 0.6786 0.0
H473 H 0.51572 0.4719 0.6405 0.0
H474 H 0.75501 0.57181 0.72452 0.0
H475 H 0.75771 0.59414 0.68366 0.0
H476 H 0.679 0.56916 0.76269 0.0
H477 H 0.61727 0.53081 0.77321 0.0
C478 C 0.95683 0.9698 0.15696 0.0
C479 C 0.90612 0.94187 0.16941 0.0
C480 C 0.92117 0.97511 0.22464 0.0
C481 C 0.9604 0.00896 0.21055 0.0
N482 N 0.00265 0.04262 0.15965 0.0
N483 N 0.82856 0.92794 0.21467 0.0
C484 C 0.97453 0.00754 0.17557 0.0
C485 C 0.88448 0.94761 0.20312 0.0
N486 N 0.9909 0.95944 0.12859 0.0
N487 N 0.92372 0.9661 0.25817 0.0
H488 H 0.7971 0.91035 0.19911 0.0
H489 H 0.81029 0.9337 0.23874 0.0
H490 H 0.95742 0.98173 0.27371 0.0
H491 H 0.89979 0.939 0.26892 0.0
H492 H 0.03138 0.97761 0.12034 0.0
H493 H 0.98436 0.92994 0.11593 0.0
H494 H 0.00962 0.04419 0.13367 0.0
H495 H 0.01038 0.07194 0.17202 0.0
C496 C 0.81718 0.03006 0.65604 0.0
C497 C 0.83709 0.07374 0.66263 0.0
C498 C 0.87842 0.0491 0.71787 0.0
C499 C 0.87108 1.00419 0.70836 0.0
N500 N 0.83445 0.9527 0.66604 0.0
N501 N 0.89512 0.12414 0.69826 0.0
C502 C 0.84053 0.99496 0.67681 0.0
C503 C 0.86962 0.08314 0.69323 0.0
N504 N 0.77417 0.0221 0.63043 0.0
N505 N 0.89288 0.05995 0.75024 0.0
H506 H 0.89043 0.14981 0.68077 0.0
H507 H 0.9263 0.13136 0.71822 0.0
H508 H 0.89786 0.03719 0.76973 0.0
H509 H 0.89261 0.09227 0.75867 0.0
H510 H 0.75215 0.9916 0.62669 0.0
H511 H 0.75506 0.04699 0.61503 0.0
H512 H 0.82163 0.94472 0.64148 0.0
H513 H 0.84562 0.92547 0.68086 0.0
C514 C 0.57347 0.43551 0.16449 0.0
C515 C 0.64251 0.4339 0.1604 0.0
C516 C 0.65424 0.5025 0.1917 0.0
C517 C 0.58577 0.50251 0.19817 0.0
N518 N 0.47856 0.47603 0.18311 0.0
N519 N 0.74983 0.46232 0.17289 0.0
C520 C 0.54487 0.47087 0.18245 0.0
C521 C 0.68323 0.46656 0.17463 0.0
N522 N 0.53539 0.4024 0.15193 0.0
N523 N 0.69076 0.53859 0.19957 0.0
H524 H 0.77269 0.43691 0.15999 0.0
H525 H 0.78233 0.48193 0.18626 0.0
H526 H 0.67042 0.56616 0.2107 0.0
H527 H 0.73925 0.54315 0.19215 0.0
H528 H 0.48608 0.39797 0.15768 0.0
H529 H 0.55382 0.37729 0.13703 0.0
H530 H 0.4454 0.45714 0.16962 0.0
H531 H 0.45671 0.50247 0.19468 0.0
C532 C 0.34649 0.49109 0.35888 0.0
C533 C 0.36593 0.44628 0.35964 0.0
C534 C 0.43706 0.46111 0.31096 0.0
C535 C 0.42623 0.5071 0.31443 0.0
N536 N 0.38348 0.56537 0.34875 0.0
N537 N 0.43828 0.38991 0.33906 0.0
C538 C 0.38397 0.52206 0.34013 0.0
C539 C 0.41337 0.43145 0.33626 0.0
N540 N 0.29222 0.50418 0.37615 0.0
N541 N 0.46828 0.4455 0.28317 0.0
H542 H 0.42315 0.36743 0.35751 0.0
H543 H 0.47801 0.37918 0.32491 0.0
H544 H 0.48426 0.46582 0.26351 0.0
H545 H 0.47193 0.41208 0.278 0.0
H546 H 0.27327 0.53593 0.37411 0.0
H547 H 0.26232 0.48212 0.38942 0.0
H548 H 0.3572 0.57716 0.36922 0.0
H549 H 0.41616 0.5882 0.33846 0.0
C550 C 0.09613 0.0688 0.83165 0.0
C551 C 0.13545 0.05175 0.85828 0.0
C552 C 0.09451 0.97772 0.84645 0.0
C553 C 0.0633 0.99352 0.81676 0.0
N554 N 0.03867 0.05444 0.77952 0.0
N555 N 0.18104 0.98844 0.88706 0.0
C556 C 0.06505 0.03927 0.80899 0.0
C557 C 0.13712 1.00578 0.86461 0.0
N558 N 0.08721 0.11322 0.82855 0.0
N559 N 0.08047 0.93671 0.85865 0.0
H560 H 0.21385 0.00761 0.90067 0.0
H561 H 0.18897 0.95472 0.88977 0.0
H562 H 0.04674 0.91627 0.84709 0.0
H563 H 0.09662 0.9251 0.88199 0.0
H564 H 0.05406 0.12757 0.81182 0.0
H565 H 0.10853 0.13566 0.84493 0.0
H566 H 0.04436 0.08659 0.77063 0.0
H567 H 0.01566 0.03384 0.76243 0.0
C568 C 0.16913 0.15295 0.98331 0.0
C569 C 0.20578 0.11864 0.96843 0.0
C570 C 0.23426 0.08988 0.02483 0.0
C571 C 0.20378 0.1269 0.03959 0.0
N572 N 0.14381 0.19466 0.0335 0.0
N573 N 0.27644 0.0556 0.97436 0.0
C574 C 0.1712 0.15855 0.01896 0.0
C575 C 0.23876 0.08717 0.98906 0.0
N576 N 0.13161 0.17975 0.96329 0.0
N577 N 0.25864 0.05717 0.04515 0.0
H578 H 0.27948 0.05171 0.94837 0.0
H579 H 0.308 0.03487 0.98761 0.0
H580 H 0.25776 0.05863 0.07134 0.0
H581 H 0.27521 0.02709 0.03634 0.0
H582 H 0.09843 0.20258 0.97249 0.0
H583 H 0.13018 0.17705 0.93716 0.0
H584 H 0.12625 0.2217 0.02 0.0
H585 H 0.14133 0.19857 0.05951 0.0
C586 C 0.27507 0.41647 0.50894 0.0
C587 C 0.32128 0.43123 0.48434 0.0
C588 C 0.3835 0.46746 0.52897 0.0
C589 C 0.34259 0.44794 0.55378 0.0
N590 N 0.25108 0.40088 0.56763 0.0
N591 N 0.37811 0.49982 0.47403 0.0
C592 C 0.28907 0.4213 0.54382 0.0
C593 C 0.36582 0.46456 0.49459 0.0
N594 N 0.21349 0.40471 0.49897 0.0
N595 N 0.43778 0.49066 0.53824 0.0
H596 H 0.34808 0.50677 0.45339 0.0
H597 H 0.40728 0.52631 0.48119 0.0
H598 H 0.45195 0.49373 0.56335 0.0
H599 H 0.47131 0.50305 0.52068 0.0
H600 H 0.17542 0.39761 0.51564 0.0
H601 H 0.19805 0.40839 0.47406 0.0
H602 H 0.21578 0.37737 0.56179 0.0
H603 H 0.25879 0.40455 0.59338 0.0
C604 C 0.76265 0.35881 0.03233 0.0
C605 C 0.70405 0.37081 0.04911 0.0
C606 C 0.65969 0.39892 0.9956 0.0
C607 C 0.71519 0.38241 0.97833 0.0
N608 N 0.81116 0.33603 0.97987 0.0
N609 N 0.58991 0.39127 0.0445 0.0
C610 C 0.76417 0.35907 0.99659 0.0
C611 C 0.6504 0.38759 0.03009 0.0
N612 N 0.81788 0.34902 0.05034 0.0
N613 N 0.61728 0.42701 0.97971 0.0
H614 H 0.58014 0.38133 0.06921 0.0
H615 H 0.54807 0.39956 0.0308 0.0
H616 H 0.62353 0.43768 0.95488 0.0
H617 H 0.57979 0.44323 0.99229 0.0
H618 H 0.86341 0.34421 0.0391 0.0
H619 H 0.81988 0.35027 0.07652 0.0
H620 H 0.8443 0.31523 0.99207 0.0
H621 H 0.8124 0.33388 0.95371 0.0
C622 C 0.93189 0.14652 0.53884 0.0
C623 C 0.86436 0.13847 0.54514 0.0
C624 C 0.84046 0.15046 0.48518 0.0
C625 C 0.90832 0.15669 0.4785 0.0
N626 N 0.01958 0.14701 0.49766 0.0
N627 N 0.75916 0.11824 0.52248 0.0
C628 C 0.95438 0.15018 0.50495 0.0
C629 C 0.82036 0.13544 0.5176 0.0
N630 N 0.97407 0.15329 0.56496 0.0
N631 N 0.79455 0.16179 0.46161 0.0
H632 H 0.74359 0.10602 0.54582 0.0
H633 H 0.72701 0.11176 0.50277 0.0
H634 H 0.80628 0.17525 0.43814 0.0
H635 H 0.74446 0.16204 0.4667 0.0
H636 H 0.02214 0.16409 0.56155 0.0
H637 H 0.95973 0.15172 0.59011 0.0
H638 H 0.05476 0.13841 0.51555 0.0
H639 H 0.03741 0.14832 0.47305 0.0
C640 C 0.78476 0.90445 0.04099 0.0
C641 C 0.83846 0.88281 0.05658 0.0
C642 C 0.8812 0.86221 1.00113 0.0
C643 C 0.82842 0.88483 0.98545 0.0
N644 N 0.73871 0.9358 0.98971 0.0
N645 N 0.94612 0.85092 0.05159 0.0
C646 C 0.78297 0.90865 1.00524 0.0
C647 C 0.88934 0.8648 0.03663 0.0
N648 N 0.73424 0.91942 0.06027 0.0
N649 N 0.92168 0.83643 0.9824 0.0
H650 H 0.95405 0.85244 0.07748 0.0
H651 H 0.9876 0.84179 0.03813 0.0
H652 H 0.91792 0.83395 0.95633 0.0
H653 H 0.95593 0.81496 0.99292 0.0
H654 H 0.69029 0.93104 0.0503 0.0
H655 H 0.73432 0.91731 0.08648 0.0
H656 H 0.70828 0.95725 1.00261 0.0
H657 H 0.73671 0.93986 0.96362 0.0
C658 C 0.70453 0.56797 0.52203 0.0
C659 C 0.66002 0.59282 0.5415 0.0
C660 C 0.57666 0.58718 0.49706 0.0
C661 C 0.62236 0.56433 0.47683 0.0
N662 N 0.73101 0.5357 0.46807 0.0
N663 N 0.5562 0.62986 0.54716 0.0
C664 C 0.68674 0.55553 0.48878 0.0
C665 C 0.59669 0.60341 0.5289 0.0
N666 N 0.76319 0.5555 0.53576 0.0
N667 N 0.5137 0.59273 0.48596 0.0
H668 H 0.5677 0.64097 0.57116 0.0
H669 H 0.51277 0.64322 0.53796 0.0
H670 H 0.49816 0.58381 0.462 0.0
H671 H 0.47553 0.60378 0.50098 0.0
H672 H 0.7952 0.53341 0.52467 0.0
H673 H 0.77855 0.56539 0.55954 0.0
H674 H 0.78067 0.53266 0.47349 0.0
H675 H 0.71884 0.52414 0.44428 0.0
C676 C 0.30656 0.64479 0.99894 0.0
C677 C 0.29096 0.60813 0.97865 0.0
C678 C 0.29915 0.55969 0.02824 0.0
C679 C 0.30381 0.59703 0.04915 0.0
N680 N 0.30326 0.6761 0.05462 0.0
N681 N 0.26139 0.53121 0.97518 0.0
C682 C 0.30569 0.63993 0.03459 0.0
C683 C 0.2847 0.56559 0.99355 0.0
N684 N 0.32339 0.68404 0.98415 0.0
N685 N 0.30944 0.51858 0.04148 0.0
H686 H 0.24765 0.53424 0.95001 0.0
H687 H 0.24951 0.50072 0.9858 0.0
H688 H 0.32132 0.51313 0.06673 0.0
H689 H 0.31292 0.49055 0.02677 0.0
H690 H 0.34144 0.71065 0.99759 0.0
H691 H 0.32546 0.68856 0.9581 0.0
H692 H 0.29724 0.70796 0.04518 0.0
H693 H 0.30151 0.67412 0.0808 0.0
C694 C 0.13384 0.85858 0.48851 0.0
C695 C 0.18541 0.88704 0.4781 0.0
C696 C 0.2122 0.90224 0.53712 0.0
C697 C 0.16281 0.87205 0.54753 0.0
N698 N 0.06604 0.83046 0.53438 0.0
N699 N 0.26191 0.94452 0.49139 0.0
C700 C 0.11989 0.85336 0.52351 0.0
C701 C 0.22047 0.91189 0.50216 0.0
N702 N 0.1005 0.83494 0.46499 0.0
N703 N 0.25342 0.91975 0.56054 0.0
H704 H 0.26893 0.952 0.46595 0.0
H705 H 0.28482 0.96658 0.50741 0.0
H706 H 0.24723 0.91458 0.58634 0.0
H707 H 0.29542 0.93766 0.55451 0.0
H708 H 0.06776 0.80971 0.47089 0.0
H709 H 0.10787 0.83933 0.43919 0.0
H710 H 0.0295 0.81896 0.51847 0.0
H711 H 0.05503 0.82627 0.55987 0.0
C712 C 0.22874 0.2194 0.35157 0.0
C713 C 0.20437 0.26299 0.35234 0.0
C714 C 0.11257 0.24196 0.31611 0.0
C715 C 0.13742 0.19834 0.31463 0.0
N716 N 0.2268 0.14829 0.32486 0.0
N717 N 0.13304 0.31861 0.3296 0.0
C718 C 0.19785 0.1879 0.33057 0.0
C719 C 0.14966 0.27521 0.33253 0.0
N720 N 0.28033 0.20775 0.37173 0.0
N721 N 0.05151 0.25098 0.30386 0.0
H722 H 0.15929 0.34341 0.3416 0.0
H723 H 0.09755 0.33035 0.31297 0.0
H724 H 0.02112 0.22669 0.2942 0.0
H725 H 0.02804 0.28106 0.30671 0.0
H726 H 0.29507 0.17535 0.37581 0.0
H727 H 0.30648 0.23048 0.38594 0.0
H728 H 0.27388 0.14018 0.33283 0.0
H729 H 0.20563 0.12461 0.30959 0.0
C730 C 0.33702 0.2693 0.84766 0.0
C731 C 0.37865 0.23258 0.85265 0.0
C732 C 0.47328 0.27623 0.83363 0.0
C733 C 0.43053 0.31092 0.82395 0.0
N734 N 0.32283 0.34295 0.82419 0.0
N735 N 0.4857 0.19957 0.85013 0.0
C736 C 0.36262 0.30824 0.83191 0.0
C737 C 0.44674 0.23582 0.84598 0.0
N738 N 0.27318 0.26663 0.85803 0.0
N739 N 0.53947 0.2822 0.83152 0.0
H740 H 0.46882 0.17009 0.86075 0.0
H741 H 0.53373 0.19776 0.84145 0.0
H742 H 0.56021 0.31118 0.82238 0.0
H743 H 0.57374 0.26027 0.84139 0.0
H744 H 0.24015 0.29259 0.85718 0.0
H745 H 0.25382 0.23848 0.86964 0.0
H746 H 0.27218 0.34281 0.82681 0.0
H747 H 0.34089 0.37232 0.81416 0.0
C748 C 0.67545 0.3049 0.66781 0.0
C749 C 0.67068 0.25948 0.67609 0.0
C750 C 0.60015 0.27633 0.7241 0.0
C751 C 0.60692 0.32213 0.71675 0.0
N752 N 0.66206 0.38021 0.68569 0.0
N753 N 0.64013 0.20213 0.71522 0.0
C754 C 0.64771 0.33648 0.68972 0.0
C755 C 0.63697 0.2453 0.70536 0.0
N756 N 0.70498 0.31789 0.6384 0.0
N757 N 0.55526 0.26219 0.74738 0.0
H758 H 0.66582 0.17864 0.70162 0.0
H759 H 0.62239 0.1904 0.73822 0.0
H760 H 0.52528 0.28349 0.76063 0.0
H761 H 0.54295 0.22927 0.75127 0.0
H762 H 0.70228 0.34978 0.62862 0.0
H763 H 0.72909 0.29612 0.62255 0.0
H764 H 0.69726 0.39222 0.66897 0.0
H765 H 0.64348 0.40447 0.70125 0.0
C766 C 0.81312 0.18684 0.17506 0.0
C767 C 0.81315 0.23337 0.17656 0.0
C768 C 0.91443 0.23183 0.20982 0.0
C769 C 0.91515 0.18507 0.20807 0.0
N770 N 0.8718 0.1186 0.18362 0.0
N771 N 0.86798 0.30106 0.18976 0.0
C772 C 0.86686 0.16282 0.18874 0.0
C773 C 0.86516 0.25616 0.19225 0.0
N774 N 0.76016 0.16542 0.16184 0.0
N775 N 0.96077 0.25297 0.22843 0.0
H776 H 0.83223 0.31967 0.17737 0.0
H777 H 0.9077 0.31979 0.19765 0.0
H778 H 1.00087 0.23676 0.23884 0.0
H779 H 0.95865 0.28612 0.23455 0.0
H780 H 0.75266 0.13163 0.1641 0.0
H781 H 0.72095 0.18179 0.15045 0.0
H782 H 0.84324 0.10152 0.16644 0.0
H783 H 0.90735 0.0991 0.19493 0.0
C784 C 0.76354 0.78888 0.68592 0.0
C785 C 0.79656 0.75527 0.66853 0.0
C786 C 0.90221 0.78295 0.68936 0.0
C787 C 0.86932 0.8189 0.7045 0.0
N788 N 0.77047 0.86135 0.70971 0.0
N789 N 0.89703 0.72125 0.65099 0.0
C790 C 0.80039 0.82314 0.70093 0.0
C791 C 0.86589 0.7524 0.66965 0.0
N792 N 0.69673 0.78795 0.68829 0.0
N793 N 0.96803 0.77781 0.69405 0.0
H794 H 0.87175 0.69715 0.63771 0.0
H795 H 0.94747 0.72041 0.64724 0.0
H796 H 0.99645 0.80063 0.70677 0.0
H797 H 0.99397 0.7499 0.68718 0.0
H798 H 0.6702 0.8092 0.70345 0.0
H799 H 0.66832 0.76323 0.67753 0.0
H800 H 0.72205 0.86876 0.70363 0.0
H801 H 0.79586 0.88731 0.72051 0.0
C802 C 0.71605 0.69614 0.16361 0.0
C803 C 0.72121 0.7413 0.1715 0.0
C804 C 0.62292 0.73586 0.20693 0.0
C805 C 0.61893 0.69019 0.19976 0.0
N806 N 0.64721 0.63109 0.16288 0.0
N807 N 0.67205 0.80691 0.19326 0.0
C808 C 0.6611 0.67169 0.17541 0.0
C809 C 0.67183 0.76211 0.19062 0.0
N810 N 0.76476 0.67622 0.1458 0.0
N811 N 0.58313 0.75359 0.23083 0.0
H812 H 0.70775 0.82674 0.18187 0.0
H813 H 0.63415 0.82465 0.20413 0.0
H814 H 0.54623 0.73587 0.24299 0.0
H815 H 0.5893 0.7851 0.24029 0.0
H816 H 0.76789 0.64228 0.14294 0.0
H817 H 0.80437 0.69351 0.13552 0.0
H818 H 0.67275 0.61706 0.14305 0.0
H819 H 0.60549 0.61343 0.17004 0.0
C820 C 0.46087 0.77212 0.34413 0.0
C821 C 0.39204 0.77328 0.34827 0.0
C822 C 0.38202 0.70269 0.31956 0.0
C823 C 0.45093 0.70205 0.31432 0.0
N824 N 0.55582 0.72682 0.33442 0.0
N825 N 0.28545 0.74365 0.33638 0.0
C826 C 0.49058 0.73435 0.32994 0.0
C827 C 0.35211 0.73965 0.33498 0.0
N828 N 0.49791 0.80742 0.35354 0.0
N829 N 0.34621 0.6659 0.31302 0.0
H830 H 0.26243 0.77044 0.3475 0.0
H831 H 0.2532 0.72263 0.32415 0.0
H832 H 0.36729 0.63782 0.30306 0.0
H833 H 0.29763 0.66155 0.32035 0.0
H834 H 0.54755 0.81065 0.34789 0.0
H835 H 0.47755 0.83551 0.36413 0.0
H836 H 0.58683 0.74753 0.34774 0.0
H837 H 0.57657 0.69643 0.32956 0.0
C838 C 0.08035 0.72306 0.81226 0.0
C839 C 0.12297 0.73156 0.83952 0.0
C840 C 0.11608 0.81072 0.82753 0.0
C841 C 0.06574 0.8028 0.80362 0.0
N842 N 0.99619 0.7512 0.77478 0.0
N843 N 0.18016 0.78299 0.8746 0.0
C844 C 0.04745 0.75882 0.79603 0.0
C845 C 0.14089 0.77525 0.84742 0.0
N846 N 0.07148 0.68075 0.80193 0.0
N847 N 0.14197 0.85191 0.83036 0.0
H848 H 0.20202 0.75779 0.88868 0.0
H849 H 0.18813 0.81418 0.88437 0.0
H850 H 0.1256 0.87834 0.81584 0.0
H851 H 0.18337 0.85912 0.84459 0.0
H852 H 0.04607 0.67246 0.78019 0.0
H853 H 0.09477 0.65406 0.81357 0.0
H854 H 0.9757 0.72027 0.771 0.0
H855 H 0.97014 0.77644 0.76304 0.0
loop_
_geom_bond_atom_site_label_1
_geom_bond_atom_site_label_2
_geom_bond_distance
_geom_bond_site_symmetry_2
_ccdc_geom_bond_type
H0 C3 0.929 . S
H1 C6 0.929 . S
H2 C8 0.930 . S
C3 H0 0.929 . S
C3 C4 1.398 . S
C3 C5 1.396 . S
C4 C3 1.398 . S
C4 C8 1.407 . S
C5 C3 1.396 . S
C5 C6 1.394 . S
C6 H1 0.929 . S
C6 C5 1.394 . S
C6 C7 1.382 . S
C7 C6 1.382 . S
C7 C8 1.392 . S
C7 N9 1.420 . S
C8 H2 0.930 . S
C8 C4 1.407 . S
C8 C7 1.392 . S
N9 C7 1.420 . S
N9 C10 1.244 . S
C10 N9 1.244 . S
H11 C14 0.929 . S
H12 C17 0.929 . S
H13 C19 0.930 . S
C14 H11 0.929 . S
C14 C15 1.398 . S
C14 C16 1.396 . S
C15 C14 1.398 . S
C15 C19 1.407 . S
C16 C14 1.396 . S
C16 C17 1.394 . S
C17 H12 0.929 . S
C17 C16 1.394 . S
C17 C18 1.382 . S
C18 C17 1.382 . S
C18 C19 1.392 . S
C18 N20 1.420 . S
C19 H13 0.930 . S
C19 C15 1.407 . S
C19 C18 1.392 . S
N20 C18 1.420 . S
N20 C21 1.244 . S
C21 N20 1.244 . S
H22 C25 0.929 . S
H23 C28 0.929 . S
H24 C30 0.930 . S
C25 H22 0.929 . S
C25 C26 1.398 . S
C25 C27 1.396 . S
C26 C25 1.398 . S
C26 C30 1.407 . S
C27 C25 1.396 . S
C27 C28 1.394 . S
C28 H23 0.929 . S
C28 C27 1.394 . S
C28 C29 1.382 . S
C29 C28 1.382 . S
C29 C30 1.392 . S
C29 N31 1.420 . S
C30 H24 0.930 . S
C30 C26 1.407 . S
C30 C29 1.392 . S
N31 C29 1.420 . S
N31 C32 1.244 . S
C32 N31 1.244 . S
H33 C36 0.929 . S
H34 C39 0.929 . S
H35 C41 0.930 . S
C36 H33 0.929 . S
C36 C37 1.398 . S
C36 C38 1.396 . S
C37 C36 1.398 . S
C37 C41 1.407 . S
C38 C36 1.396 . S
C38 C39 1.394 . S
C39 H34 0.929 . S
C39 C38 1.394 . S
C39 C40 1.382 . S
C40 C39 1.382 . S
C40 C41 1.392 . S
C40 N42 1.420 . S
C41 H35 0.930 . S
C41 C37 1.407 . S
C41 C40 1.392 . S
N42 C40 1.420 . S
N42 C43 1.244 . S
C43 N42 1.244 . S
H44 C47 0.929 . S
H45 C50 0.929 . S
H46 C52 0.930 . S
C47 H44 0.929 . S
C47 C48 1.398 . S
C47 C49 1.396 . S
C48 C47 1.398 . S
C48 C52 1.407 . S
C49 C47 1.396 . S
C49 C50 1.394 . S
C50 H45 0.929 . S
C50 C49 1.394 . S
C50 C51 1.382 . S
C51 C50 1.382 . S
C51 C52 1.392 . S
C51 N53 1.420 . S
C52 H46 0.930 . S
C52 C48 1.407 . S
C52 C51 1.392 . S
N53 C51 1.420 . S
N53 C54 1.244 . S
C54 N53 1.244 . S
H55 C58 0.929 . S
H56 C61 0.929 . S
H57 C63 0.930 . S
C58 H55 0.929 . S
C58 C59 1.398 . S
C58 C60 1.396 . S
C59 C58 1.398 . S
C59 C63 1.407 . S
C60 C58 1.396 . S
C60 C61 1.394 . S
C61 H56 0.929 . S
C61 C60 1.394 . S
C61 C62 1.382 . S
C62 C61 1.382 . S
C62 C63 1.392 . S
C62 N64 1.420 . S
C63 H57 0.930 . S
C63 C59 1.407 . S
C63 C62 1.392 . S
N64 C62 1.420 . S
N64 C65 1.244 . S
C65 N64 1.244 . S
H66 C69 0.929 . S
H67 C72 0.929 . S
H68 C74 0.930 . S
C69 H66 0.929 . S
C69 C70 1.398 . S
C69 C71 1.396 . S
C70 C69 1.398 . S
C70 C74 1.407 . S
C71 C69 1.396 . S
C71 C72 1.394 . S
C72 H67 0.929 . S
C72 C71 1.394 . S
C72 C73 1.382 . S
C73 C72 1.382 . S
C73 C74 1.392 . S
C73 N75 1.420 . S
C74 H68 0.930 . S
C74 C70 1.407 . S
C74 C73 1.392 . S
N75 C73 1.420 . S
N75 C76 1.244 . S
C76 N75 1.244 . S
H77 C80 0.929 . S
H78 C83 0.929 . S
H79 C85 0.930 . S
C80 H77 0.929 . S
C80 C81 1.398 . S
C80 C82 1.396 . S
C81 C80 1.398 . S
C81 C85 1.407 . S
C82 C80 1.396 . S
C82 C83 1.394 . S
C83 H78 0.929 . S
C83 C82 1.394 . S
C83 C84 1.382 . S
C84 C83 1.382 . S
C84 C85 1.392 . S
C84 N86 1.420 . S
C85 H79 0.930 . S
C85 C81 1.407 . S
C85 C84 1.392 . S
N86 C84 1.420 . S
N86 C87 1.244 . S
C87 N86 1.244 . S
Eu88 N117 2.600 . S
Eu88 N123 2.562 . S
Eu88 O132 2.462 . S
Eu88 O133 2.373 . S
Eu88 O135 2.432 . S
Eu88 O136 2.291 . S
Eu88 O140 2.335 . S
Eu88 O143 2.372 . S
Eu88 C152 2.787 . S
C89 N90 1.365 . S
C89 C92 1.405 . S
C89 C96 1.448 . S
N90 C89 1.365 . S
N90 C93 1.319 . S
N90 Eu99 2.600 . S
C91 C93 1.397 . S
C91 C94 1.367 . S
C91 H111 0.931 . S
C92 C89 1.405 . S
C92 C94 1.403 . S
C92 C98 1.439 . S
C93 N90 1.319 . S
C93 C91 1.397 . S
C93 H104 0.930 . S
C94 C91 1.367 . S
C94 C92 1.403 . S
C94 H115 0.929 . S
C95 C96 1.430 1_565 S
C95 C97 1.387 . S
C95 C101 1.404 . S
C96 C89 1.448 . S
C96 C95 1.430 1_545 S
C96 N100 1.351 . S
C97 C95 1.387 . S
C97 C98 1.374 1_565 S
C97 H112 0.931 . S
C98 C92 1.439 . S
C98 C97 1.374 1_545 S
C98 H113 0.931 . S
Eu99 N90 2.600 . S
Eu99 N100 2.562 . S
Eu99 O134 2.335 1_655 S
Eu99 O137 2.372 . S
Eu99 O138 2.462 . S
Eu99 O139 2.373 . S
Eu99 O141 2.432 . S
Eu99 O142 2.291 1_655 S
Eu99 C163 2.787 . S
N100 C96 1.351 . S
N100 Eu99 2.562 . S
N100 C102 1.325 1_545 S
C101 C95 1.404 . S
C101 C103 1.366 . S
C101 H109 0.930 . S
C102 N100 1.325 1_565 S
C102 C103 1.416 . S
C102 H108 0.929 . S
C103 C101 1.366 . S
C103 C102 1.416 . S
C103 H105 0.930 . S
H104 C93 0.930 . S
H105 C103 0.930 . S
H106 C121 0.930 . S
H107 C128 0.930 . S
H108 C102 0.929 . S
H109 C101 0.930 . S
H110 C124 0.929 . S
H111 C91 0.931 . S
H112 C97 0.931 . S
H113 C98 0.931 . S
H114 C119 0.931 . S
H115 C94 0.929 . S
H116 C127 0.930 . S
N117 Eu88 2.600 . S
N117 C118 1.365 . S
N117 C121 1.319 . S
C118 N117 1.365 . S
C118 C120 1.405 . S
C118 C126 1.448 . S
C119 H114 0.931 . S
C119 C121 1.397 . S
C119 C122 1.367 . S
C120 C118 1.405 . S
C120 C122 1.403 . S
C120 C153 1.439 . S
C121 H106 0.930 . S
C121 N117 1.319 . S
C121 C119 1.397 . S
C122 C119 1.367 . S
C122 C120 1.403 . S
C122 H129 0.929 . S
N123 Eu88 2.562 . S
N123 C124 1.325 . S
N123 C126 1.351 . S
C124 H110 0.929 . S
C124 N123 1.325 . S
C124 C128 1.416 . S
C125 C126 1.430 . S
C125 C127 1.404 . S
C125 C154 1.387 . S
C126 C118 1.448 . S
C126 N123 1.351 . S
C126 C125 1.430 . S
C127 H116 0.930 . S
C127 C125 1.404 . S
C127 C128 1.366 . S
C128 H107 0.930 . S
C128 C124 1.416 . S
C128 C127 1.366 . S
H129 C122 0.929 . S
H130 C153 0.931 . S
H131 C154 0.931 . S
O132 Eu88 2.462 . S
O132 C152 1.252 . S
O133 Eu88 2.373 . S
O133 C144 1.249 . S
O134 Eu99 2.335 1_455 S
O134 C144 1.264 . S
O135 Eu88 2.432 . S
O135 C152 1.268 . S
O136 Eu88 2.291 . S
O136 C151 1.255 1_455 S
O137 Eu99 2.372 . S
O137 C151 1.257 . S
O138 Eu99 2.462 . S
O138 C163 1.252 . S
O139 Eu99 2.373 . S
O139 C155 1.249 . S
O140 Eu88 2.335 . S
O140 C155 1.264 1_455 S
O141 Eu99 2.432 . S
O141 C163 1.268 . S
O142 Eu99 2.291 1_455 S
O142 C162 1.255 . S
O143 Eu88 2.372 . S
O143 C162 1.257 . S
C144 O133 1.249 . S
C144 O134 1.264 . S
C145 C148 1.382 . S
C145 C150 1.390 . S
C145 C152 1.506 . S
C146 C147 1.398 . S
C146 C150 1.392 . S
C147 C146 1.398 . S
C147 C149 1.372 . S
C147 H164 0.931 . S
C148 C145 1.382 . S
C148 C149 1.390 . S
C148 H165 0.931 . S
C149 C147 1.372 . S
C149 C148 1.390 . S
C149 H166 0.929 . S
C150 C145 1.390 . S
C150 C146 1.392 . S
C150 H167 0.930 . S
C151 O136 1.255 1_655 S
C151 O137 1.257 . S
C152 Eu88 2.787 . S
C152 O132 1.252 . S
C152 O135 1.268 . S
C152 C145 1.506 . S
C153 C120 1.439 . S
C153 H130 0.931 . S
C153 C154 1.374 . S
C154 C125 1.387 . S
C154 H131 0.931 . S
C154 C153 1.374 . S
C155 O139 1.249 . S
C155 O140 1.264 1_655 S
C156 C159 1.382 . S
C156 C160 1.390 . S
C156 C163 1.506 . S
C157 C158 1.398 . S
C157 C160 1.392 . S
C158 C157 1.398 . S
C158 C161 1.372 . S
C158 H168 0.931 . S
C159 C156 1.382 . S
C159 C161 1.390 . S
C159 H169 0.931 . S
C160 C156 1.390 . S
C160 C157 1.392 . S
C160 H170 0.930 . S
C161 C158 1.372 . S
C161 C159 1.390 . S
C161 H171 0.929 . S
C162 O142 1.255 . S
C162 O143 1.257 . S
C163 Eu99 2.787 . S
C163 O138 1.252 . S
C163 O141 1.268 . S
C163 C156 1.506 . S
H164 C147 0.931 . S
H165 C148 0.931 . S
H166 C149 0.929 . S
H167 C150 0.930 . S
H168 C158 0.931 . S
H169 C159 0.931 . S
H170 C160 0.930 . S
H171 C161 0.929 . S
Eu172 N201 2.600 . S
Eu172 N207 2.562 . S
Eu172 O216 2.462 . S
Eu172 O217 2.373 . S
Eu172 O219 2.432 . S
Eu172 O220 2.291 . S
Eu172 O224 2.335 . S
Eu172 O227 2.372 . S
Eu172 C236 2.787 . S
C173 N174 1.365 . S
C173 C176 1.405 . S
C173 C180 1.448 . S
N174 C173 1.365 . S
N174 C177 1.319 . S
N174 Eu183 2.600 . S
C175 C177 1.397 . S
C175 C178 1.367 . S
C175 H195 0.931 . S
C176 C173 1.405 . S
C176 C178 1.403 . S
C176 C182 1.439 . S
C177 N174 1.319 . S
C177 C175 1.397 . S
C177 H188 0.930 . S
C178 C175 1.367 . S
C178 C176 1.403 . S
C178 H199 0.929 . S
C179 C180 1.430 . S
C179 C181 1.387 . S
C179 C185 1.404 . S
C180 C173 1.448 . S
C180 C179 1.430 . S
C180 N184 1.351 . S
C181 C179 1.387 . S
C181 C182 1.374 . S
C181 H196 0.931 . S
C182 C176 1.439 . S
C182 C181 1.374 . S
C182 H197 0.931 . S
Eu183 N174 2.600 . S
Eu183 N184 2.562 . S
Eu183 O218 2.335 . S
Eu183 O221 2.372 . S
Eu183 O222 2.462 . S
Eu183 O223 2.373 . S
Eu183 O225 2.432 . S
Eu183 O226 2.291 . S
Eu183 C247 2.787 . S
N184 C180 1.351 . S
N184 Eu183 2.562 . S
N184 C186 1.325 . S
C185 C179 1.404 . S
C185 C187 1.366 . S
C185 H193 0.930 . S
C186 N184 1.325 . S
C186 C187 1.416 . S
C186 H192 0.929 . S
C187 C185 1.366 . S
C187 C186 1.416 . S
C187 H189 0.930 . S
H188 C177 0.930 . S
H189 C187 0.930 . S
H190 C205 0.930 . S
H191 C212 0.930 . S
H192 C186 0.929 . S
H193 C185 0.930 . S
H194 C208 0.929 . S
H195 C175 0.931 . S
H196 C181 0.931 . S
H197 C182 0.931 . S
H198 C203 0.931 . S
H199 C178 0.929 . S
H200 C211 0.930 . S
N201 Eu172 2.600 . S
N201 C202 1.365 . S
N201 C205 1.319 . S
C202 N201 1.365 . S
C202 C204 1.405 . S
C202 C210 1.448 . S
C203 H198 0.931 . S
C203 C205 1.397 . S
C203 C206 1.367 . S
C204 C202 1.405 . S
C204 C206 1.403 . S
C204 C237 1.439 . S
C205 H190 0.930 . S
C205 N201 1.319 . S
C205 C203 1.397 . S
C206 C203 1.367 . S
C206 C204 1.403 . S
C206 H213 0.929 . S
N207 Eu172 2.562 . S
N207 C208 1.325 . S
N207 C210 1.351 . S
C208 H194 0.929 . S
C208 N207 1.325 . S
C208 C212 1.416 . S
C209 C210 1.430 . S
C209 C211 1.404 . S
C209 C238 1.387 . S
C210 C202 1.448 . S
C210 N207 1.351 . S
C210 C209 1.430 . S
C211 H200 0.930 . S
C211 C209 1.404 . S
C211 C212 1.366 . S
C212 H191 0.930 . S
C212 C208 1.416 . S
C212 C211 1.366 . S
H213 C206 0.929 . S
H214 C237 0.931 . S
H215 C238 0.931 . S
O216 Eu172 2.462 . S
O216 C236 1.252 . S
O217 Eu172 2.373 . S
O217 C228 1.249 . S
O218 Eu183 2.335 . S
O218 C228 1.264 . S
O219 Eu172 2.432 . S
O219 C236 1.268 . S
O220 Eu172 2.291 . S
O220 C235 1.255 . S
O221 Eu183 2.372 . S
O221 C235 1.257 . S
O222 Eu183 2.462 . S
O222 C247 1.252 . S
O223 Eu183 2.373 . S
O223 C239 1.249 . S
O224 Eu172 2.335 . S
O224 C239 1.264 . S
O225 Eu183 2.432 . S
O225 C247 1.268 . S
O226 Eu183 2.291 . S
O226 C246 1.255 . S
O227 Eu172 2.372 . S
O227 C246 1.257 . S
C228 O217 1.249 . S
C228 O218 1.264 . S
C229 C232 1.382 . S
C229 C234 1.390 . S
C229 C236 1.506 . S
C230 C231 1.398 . S
C230 C234 1.392 . S
C231 C230 1.398 . S
C231 C233 1.372 . S
C231 H248 0.931 . S
C232 C229 1.382 . S
C232 C233 1.390 . S
C232 H249 0.931 . S
C233 C231 1.372 . S
C233 C232 1.390 . S
C233 H250 0.929 . S
C234 C229 1.390 . S
C234 C230 1.392 . S
C234 H251 0.930 . S
C235 O220 1.255 . S
C235 O221 1.257 . S
C236 Eu172 2.787 . S
C236 O216 1.252 . S
C236 O219 1.268 . S
C236 C229 1.506 . S
C237 C204 1.439 . S
C237 H214 0.931 . S
C237 C238 1.374 . S
C238 C209 1.387 . S
C238 H215 0.931 . S
C238 C237 1.374 . S
C239 O223 1.249 . S
C239 O224 1.264 . S
C240 C243 1.382 . S
C240 C244 1.390 . S
C240 C247 1.506 . S
C241 C242 1.398 . S
C241 C244 1.392 . S
C242 C241 1.398 . S
C242 C245 1.372 . S
C242 H252 0.931 . S
C243 C240 1.382 . S
C243 C245 1.390 . S
C243 H253 0.931 . S
C244 C240 1.390 . S
C244 C241 1.392 . S
C244 H254 0.930 . S
C245 C242 1.372 . S
C245 C243 1.390 . S
C245 H255 0.929 . S
C246 O226 1.255 . S
C246 O227 1.257 . S
C247 Eu183 2.787 . S
C247 O222 1.252 . S
C247 O225 1.268 . S
C247 C240 1.506 . S
H248 C231 0.931 . S
H249 C232 0.931 . S
H250 C233 0.929 . S
H251 C234 0.930 . S
H252 C242 0.931 . S
H253 C243 0.931 . S
H254 C244 0.930 . S
H255 C245 0.929 . S
Eu256 N285 2.600 . S
Eu256 N291 2.562 . S
Eu256 O300 2.462 . S
Eu256 O301 2.373 . S
Eu256 O303 2.432 . S
Eu256 O304 2.298 . S
Eu256 O308 2.326 1_455 S
Eu256 O311 2.372 . S
Eu256 C320 2.787 . S
C257 N258 1.365 . S
C257 C260 1.405 . S
C257 C264 1.448 . S
N258 C257 1.365 . S
N258 C261 1.319 . S
N258 Eu267 2.600 . S
C259 C261 1.397 . S
C259 C262 1.367 . S
C259 H279 0.931 . S
C260 C257 1.405 . S
C260 C262 1.403 . S
C260 C266 1.439 . S
C261 N258 1.319 . S
C261 C259 1.397 . S
C261 H272 0.930 . S
C262 C259 1.367 . S
C262 C260 1.403 . S
C262 H283 0.929 . S
C263 C264 1.430 . S
C263 C265 1.387 . S
C263 C269 1.404 . S
C264 C257 1.448 . S
C264 C263 1.430 . S
C264 N268 1.351 . S
C265 C263 1.387 . S
C265 C266 1.374 . S
C265 H280 0.931 . S
C266 C260 1.439 . S
C266 C265 1.374 . S
C266 H281 0.931 . S
Eu267 N258 2.600 . S
Eu267 N268 2.562 . S
Eu267 O302 2.335 1_655 S
Eu267 O305 2.372 . S
Eu267 O306 2.462 . S
Eu267 O307 2.373 . S
Eu267 O309 2.432 . S
Eu267 O310 2.291 1_655 S
Eu267 C331 2.787 . S
N268 C264 1.351 . S
N268 Eu267 2.562 . S
N268 C270 1.325 . S
C269 C263 1.404 . S
C269 C271 1.366 . S
C269 H277 0.930 . S
C270 N268 1.325 . S
C270 C271 1.416 . S
C270 H276 0.929 . S
C271 C269 1.366 . S
C271 C270 1.416 . S
C271 H273 0.930 . S
H272 C261 0.930 . S
H273 C271 0.930 . S
H274 C289 0.930 . S
H275 C296 0.930 . S
H276 C270 0.929 . S
H277 C269 0.930 . S
H278 C292 0.929 . S
H279 C259 0.931 . S
H280 C265 0.931 . S
H281 C266 0.931 . S
H282 C287 0.931 . S
H283 C262 0.929 . S
H284 C295 0.930 . S
N285 Eu256 2.600 . S
N285 C286 1.365 . S
N285 C289 1.319 . S
C286 N285 1.365 . S
C286 C288 1.405 . S
C286 C294 1.448 . S
C287 H282 0.931 . S
C287 C289 1.397 . S
C287 C290 1.367 . S
C288 C286 1.405 . S
C288 C290 1.403 . S
C288 C321 1.439 . S
C289 H274 0.930 . S
C289 N285 1.319 . S
C289 C287 1.397 . S
C290 C287 1.367 . S
C290 C288 1.403 . S
C290 H297 0.929 . S
N291 Eu256 2.562 . S
N291 C292 1.325 1_565 S
N291 C294 1.351 . S
C292 H278 0.929 . S
C292 N291 1.325 1_545 S
C292 C296 1.416 . S
C293 C294 1.430 1_545 S
C293 C295 1.404 . S
C293 C322 1.387 . S
C294 C286 1.448 . S
C294 N291 1.351 . S
C294 C293 1.430 1_565 S
C295 H284 0.930 . S
C295 C293 1.404 . S
C295 C296 1.366 . S
C296 H275 0.930 . S
C296 C292 1.416 . S
C296 C295 1.366 . S
H297 C290 0.929 . S
H298 C321 0.931 . S
H299 C322 0.931 . S
O300 Eu256 2.462 . S
O300 C320 1.252 . S
O301 Eu256 2.373 . S
O301 C312 1.249 . S
O302 Eu267 2.335 1_455 S
O302 C312 1.264 . S
O303 Eu256 2.432 . S
O303 C320 1.268 . S
O304 Eu256 2.298 . S
O304 C319 1.248 1_455 S
O305 Eu267 2.372 . S
O305 C319 1.257 . S
O306 Eu267 2.462 . S
O306 C331 1.252 . S
O307 Eu267 2.373 . S
O307 C323 1.249 . S
O308 Eu256 2.326 1_655 S
O308 C323 1.275 . S
O309 Eu267 2.432 . S
O309 C331 1.268 . S
O310 Eu267 2.291 1_455 S
O310 C330 1.255 . S
O311 Eu256 2.372 . S
O311 C330 1.257 . S
C312 O301 1.249 . S
C312 O302 1.264 . S
C313 C316 1.382 . S
C313 C318 1.390 . S
C313 C320 1.506 . S
C314 C315 1.398 . S
C314 C318 1.392 . S
C315 C314 1.398 . S
C315 C317 1.372 . S
C315 H332 0.931 . S
C316 C313 1.382 . S
C316 C317 1.390 . S
C316 H333 0.931 . S
C317 C315 1.372 . S
C317 C316 1.390 . S
C317 H334 0.929 . S
C318 C313 1.390 . S
C318 C314 1.392 . S
C318 H335 0.930 . S
C319 O304 1.248 1_655 S
C319 O305 1.257 . S
C320 Eu256 2.787 . S
C320 O300 1.252 . S
C320 O303 1.268 . S
C320 C313 1.506 . S
C321 C288 1.439 . S
C321 H298 0.931 . S
C321 C322 1.374 1_565 S
C322 C293 1.387 . S
C322 H299 0.931 . S
C322 C321 1.374 1_545 S
C323 O307 1.249 . S
C323 O308 1.275 . S
C324 C327 1.382 . S
C324 C328 1.390 . S
C324 C331 1.506 . S
C325 C326 1.398 . S
C325 C328 1.392 . S
C326 C325 1.398 . S
C326 C329 1.372 . S
C326 H336 0.931 . S
C327 C324 1.382 . S
C327 C329 1.390 . S
C327 H337 0.931 . S
C328 C324 1.390 . S
C328 C325 1.392 . S
C328 H338 0.930 . S
C329 C326 1.372 . S
C329 C327 1.390 . S
C329 H339 0.929 . S
C330 O310 1.255 . S
C330 O311 1.257 . S
C331 Eu267 2.787 . S
C331 O306 1.252 . S
C331 O309 1.268 . S
C331 C324 1.506 . S
H332 C315 0.931 . S
H333 C316 0.931 . S
H334 C317 0.929 . S
H335 C318 0.930 . S
H336 C326 0.931 . S
H337 C327 0.931 . S
H338 C328 0.930 . S
H339 C329 0.929 . S
Eu340 N369 2.600 . S
Eu340 N375 2.562 . S
Eu340 O384 2.462 . S
Eu340 O385 2.373 . S
Eu340 O387 2.432 . S
Eu340 O388 2.291 . S
Eu340 O392 2.335 . S
Eu340 O395 2.372 . S
Eu340 C404 2.787 . S
C341 N342 1.365 . S
C341 C344 1.405 . S
C341 C348 1.448 . S
N342 C341 1.365 . S
N342 C345 1.319 . S
N342 Eu351 2.600 . S
C343 C345 1.397 . S
C343 C346 1.367 . S
C343 H363 0.931 . S
C344 C341 1.405 . S
C344 C346 1.403 . S
C344 C350 1.439 . S
C345 N342 1.319 . S
C345 C343 1.397 . S
C345 H356 0.930 . S
C346 C343 1.367 . S
C346 C344 1.403 . S
C346 H367 0.929 . S
C347 C348 1.430 . S
C347 C349 1.387 . S
C347 C353 1.404 . S
C348 C341 1.448 . S
C348 C347 1.430 . S
C348 N352 1.351 . S
C349 C347 1.387 . S
C349 C350 1.374 . S
C349 H364 0.931 . S
C350 C344 1.439 . S
C350 C349 1.374 . S
C350 H365 0.931 . S
Eu351 N342 2.600 . S
Eu351 N352 2.562 . S
Eu351 O386 2.335 . S
Eu351 O389 2.372 . S
Eu351 O390 2.462 . S
Eu351 O391 2.373 . S
Eu351 O393 2.432 . S
Eu351 O394 2.291 . S
Eu351 C415 2.787 . S
N352 C348 1.351 . S
N352 Eu351 2.562 . S
N352 C354 1.325 . S
C353 C347 1.404 . S
C353 C355 1.366 . S
C353 H361 0.930 . S
C354 N352 1.325 . S
C354 C355 1.416 . S
C354 H360 0.929 . S
C355 C353 1.366 . S
C355 C354 1.416 . S
C355 H357 0.930 . S
H356 C345 0.930 . S
H357 C355 0.930 . S
H358 C373 0.930 . S
H359 C380 0.930 . S
H360 C354 0.929 . S
H361 C353 0.930 . S
H362 C376 0.929 . S
H363 C343 0.931 . S
H364 C349 0.931 . S
H365 C350 0.931 . S
H366 C371 0.931 . S
H367 C346 0.929 . S
H368 C379 0.930 . S
N369 Eu340 2.600 . S
N369 C370 1.365 . S
N369 C373 1.319 . S
C370 N369 1.365 . S
C370 C372 1.405 . S
C370 C378 1.448 . S
C371 H366 0.931 . S
C371 C373 1.397 . S
C371 C374 1.367 . S
C372 C370 1.405 . S
C372 C374 1.403 . S
C372 C405 1.439 . S
C373 H358 0.930 . S
C373 N369 1.319 . S
C373 C371 1.397 . S
C374 C371 1.367 . S
C374 C372 1.403 . S
C374 H381 0.929 . S
N375 Eu340 2.562 . S
N375 C376 1.325 . S
N375 C378 1.351 . S
C376 H362 0.929 . S
C376 N375 1.325 . S
C376 C380 1.416 . S
C377 C378 1.430 . S
C377 C379 1.404 . S
C377 C406 1.387 . S
C378 C370 1.448 . S
C378 N375 1.351 . S
C378 C377 1.430 . S
C379 H368 0.930 . S
C379 C377 1.404 . S
C379 C380 1.366 . S
C380 H359 0.930 . S
C380 C376 1.416 . S
C380 C379 1.366 . S
H381 C374 0.929 . S
H382 C405 0.931 . S
H383 C406 0.931 . S
O384 Eu340 2.462 . S
O384 C404 1.252 . S
O385 Eu340 2.373 . S
O385 C396 1.249 . S
O386 Eu351 2.335 . S
O386 C396 1.264 . S
O387 Eu340 2.432 . S
O387 C404 1.268 . S
O388 Eu340 2.291 . S
O388 C403 1.255 . S
O389 Eu351 2.372 . S
O389 C403 1.257 . S
O390 Eu351 2.462 . S
O390 C415 1.252 . S
O391 Eu351 2.373 . S
O391 C407 1.249 . S
O392 Eu340 2.335 . S
O392 C407 1.264 . S
O393 Eu351 2.432 . S
O393 C415 1.268 . S
O394 Eu351 2.291 . S
O394 C414 1.255 . S
O395 Eu340 2.372 . S
O395 C414 1.257 . S
C396 O385 1.249 . S
C396 O386 1.264 . S
C397 C400 1.382 . S
C397 C402 1.390 . S
C397 C404 1.506 . S
C398 C399 1.398 . S
C398 C402 1.392 . S
C399 C398 1.398 . S
C399 C401 1.372 . S
C399 H416 0.931 . S
C400 C397 1.382 . S
C400 C401 1.390 . S
C400 H417 0.931 . S
C401 C399 1.372 . S
C401 C400 1.390 . S
C401 H418 0.929 . S
C402 C397 1.390 . S
C402 C398 1.392 . S
C402 H419 0.930 . S
C403 O388 1.255 . S
C403 O389 1.257 . S
C404 Eu340 2.787 . S
C404 O384 1.252 . S
C404 O387 1.268 . S
C404 C397 1.506 . S
C405 C372 1.439 . S
C405 H382 0.931 . S
C405 C406 1.374 . S
C406 C377 1.387 . S
C406 H383 0.931 . S
C406 C405 1.374 . S
C407 O391 1.249 . S
C407 O392 1.264 . S
C408 C411 1.382 . S
C408 C412 1.390 . S
C408 C415 1.506 . S
C409 C410 1.398 . S
C409 C412 1.392 . S
C410 C409 1.398 . S
C410 C413 1.372 . S
C410 H420 0.931 . S
C411 C408 1.382 . S
C411 C413 1.390 . S
C411 H421 0.931 . S
C412 C408 1.390 . S
C412 C409 1.392 . S
C412 H422 0.930 . S
C413 C410 1.372 . S
C413 C411 1.390 . S
C413 H423 0.929 . S
C414 O394 1.255 . S
C414 O395 1.257 . S
C415 Eu351 2.787 . S
C415 O390 1.252 . S
C415 O393 1.268 . S
C415 C408 1.506 . S
H416 C399 0.931 . S
H417 C400 0.931 . S
H418 C401 0.929 . S
H419 C402 0.930 . S
H420 C410 0.931 . S
H421 C411 0.931 . S
H422 C412 0.930 . S
H423 C413 0.929 . S
C424 C425 1.363 . S
C424 C430 1.379 . S
C424 N432 1.356 . S
C425 C424 1.363 . S
C425 C431 1.363 . S
C426 C427 1.363 . S
C426 C431 1.379 . S
C426 N433 1.356 1_565 S
C427 C426 1.363 . S
C427 C430 1.363 . S
N428 C430 1.356 . S
N428 H440 0.984 . S
N428 H441 0.985 1_565 S
N429 C431 1.356 . S
N429 H434 0.984 . S
N429 H435 0.985 . S
C430 C424 1.379 . S
C430 C427 1.363 . S
C430 N428 1.356 . S
C431 C425 1.363 . S
C431 C426 1.379 . S
C431 N429 1.356 . S
N432 C424 1.356 . S
N432 H438 0.984 . S
N432 H439 0.984 . S
N433 C426 1.356 1_545 S
N433 H436 0.984 . S
N433 H437 0.985 . S
H434 N429 0.984 . S
H435 N429 0.985 . S
H436 N433 0.984 . S
H437 N433 0.985 . S
H438 N432 0.984 . S
H439 N432 0.984 . S
H440 N428 0.984 . S
H441 N428 0.985 1_545 S
C442 C443 1.363 . S
C442 C448 1.379 . S
C442 N450 1.356 . S
C443 C442 1.363 . S
C443 C449 1.363 . S
C444 C445 1.363 . S
C444 C449 1.379 . S
C444 N451 1.356 . S
C445 C444 1.363 . S
C445 C448 1.363 . S
N446 C448 1.356 . S
N446 H458 0.984 . S
N446 H459 0.985 . S
N447 C449 1.356 . S
N447 H452 0.984 . S
N447 H453 0.985 . S
C448 C442 1.379 . S
C448 C445 1.363 . S
C448 N446 1.356 . S
C449 C443 1.363 . S
C449 C444 1.379 . S
C449 N447 1.356 . S
N450 C442 1.356 . S
N450 H456 0.984 . S
N450 H457 0.984 . S
N451 C444 1.356 . S
N451 H454 0.984 . S
N451 H455 0.985 . S
H452 N447 0.984 . S
H453 N447 0.985 . S
H454 N451 0.984 . S
H455 N451 0.985 . S
H456 N450 0.984 . S
H457 N450 0.984 . S
H458 N446 0.984 . S
H459 N446 0.985 . S
C460 C461 1.363 . S
C460 C466 1.379 . S
C460 N468 1.356 . S
C461 C460 1.363 . S
C461 C467 1.363 . S
C462 C463 1.363 . S
C462 C467 1.379 . S
C462 N469 1.356 . S
C463 C462 1.363 . S
C463 C466 1.363 . S
N464 C466 1.356 . S
N464 H476 0.984 . S
N464 H477 0.985 . S
N465 C467 1.356 . S
N465 H470 0.984 . S
N465 H471 0.985 . S
C466 C460 1.379 . S
C466 C463 1.363 . S
C466 N464 1.356 . S
C467 C461 1.363 . S
C467 C462 1.379 . S
C467 N465 1.356 . S
N468 C460 1.356 . S
N468 H474 0.984 . S
N468 H475 0.984 . S
N469 C462 1.356 . S
N469 H472 0.984 . S
N469 H473 0.985 . S
H470 N465 0.984 . S
H471 N465 0.985 . S
H472 N469 0.984 . S
H473 N469 0.985 . S
H474 N468 0.984 . S
H475 N468 0.984 . S
H476 N464 0.984 . S
H477 N464 0.985 . S
C478 C479 1.363 . S
C478 C484 1.379 1_565 S
C478 N486 1.356 . S
C479 C478 1.363 . S
C479 C485 1.363 . S
C480 C481 1.363 1_565 S
C480 C485 1.379 . S
C480 N487 1.356 . S
C481 C480 1.363 1_545 S
C481 C484 1.363 . S
N482 C484 1.356 . S
N482 H494 0.984 . S
N482 H495 0.985 . S
N483 C485 1.356 . S
N483 H488 0.984 . S
N483 H489 0.985 . S
C484 C478 1.379 1_545 S
C484 C481 1.363 . S
C484 N482 1.356 . S
C485 C479 1.363 . S
C485 C480 1.379 . S
C485 N483 1.356 . S
N486 C478 1.356 . S
N486 H492 0.984 . S
N486 H493 0.984 . S
N487 C480 1.356 . S
N487 H490 0.984 . S
N487 H491 0.985 . S
H488 N483 0.984 . S
H489 N483 0.985 . S
H490 N487 0.984 . S
H491 N487 0.985 . S
H492 N486 0.984 . S
H493 N486 0.984 . S
H494 N482 0.984 . S
H495 N482 0.985 . S
C496 C497 1.363 . S
C496 C502 1.379 1_545 S
C496 N504 1.356 . S
C497 C496 1.363 . S
C497 C503 1.363 . S
C498 C499 1.353 1_545 S
C498 C503 1.379 . S
C498 N505 1.356 . S
C499 C498 1.353 1_565 S
C499 C502 1.366 . S
N500 C502 1.356 . S
N500 H512 0.984 . S
N500 H513 0.985 . S
N501 C503 1.356 . S
N501 H506 0.984 . S
N501 H507 0.985 . S
C502 C496 1.379 1_565 S
C502 C499 1.366 . S
C502 N500 1.356 . S
C503 C497 1.363 . S
C503 C498 1.379 . S
C503 N501 1.356 . S
N504 C496 1.356 . S
N504 H510 0.984 1_545 S
N504 H511 0.984 . S
N505 C498 1.356 . S
N505 H508 0.984 . S
N505 H509 0.985 . S
H506 N501 0.984 . S
H507 N501 0.985 . S
H508 N505 0.984 . S
H509 N505 0.985 . S
H510 N504 0.984 1_565 S
H511 N504 0.984 . S
H512 N500 0.984 . S
H513 N500 0.985 . S
C514 C515 1.363 . S
C514 C520 1.379 . S
C514 N522 1.356 . S
C515 C514 1.363 . S
C515 C521 1.363 . S
C516 C517 1.363 . S
C516 C521 1.379 . S
C516 N523 1.356 . S
C517 C516 1.363 . S
C517 C520 1.363 . S
N518 C520 1.356 . S
N518 H530 0.984 . S
N518 H531 0.985 . S
N519 C521 1.356 . S
N519 H524 0.984 . S
N519 H525 0.985 . S
C520 C514 1.379 . S
C520 C517 1.363 . S
C520 N518 1.356 . S
C521 C515 1.363 . S
C521 C516 1.379 . S
C521 N519 1.356 . S
N522 C514 1.356 . S
N522 H528 0.984 . S
N522 H529 0.984 . S
N523 C516 1.356 . S
N523 H526 0.984 . S
N523 H527 0.985 . S
H524 N519 0.984 . S
H525 N519 0.985 . S
H526 N523 0.984 . S
H527 N523 0.985 . S
H528 N522 0.984 . S
H529 N522 0.984 . S
H530 N518 0.984 . S
H531 N518 0.985 . S
C532 C533 1.363 . S
C532 C538 1.379 . S
C532 N540 1.356 . S
C533 C532 1.363 . S
C533 C539 1.363 . S
C534 C535 1.363 . S
C534 C539 1.379 . S
C534 N541 1.356 . S
C535 C534 1.363 . S
C535 C538 1.363 . S
N536 C538 1.356 . S
N536 H548 0.984 . S
N536 H549 0.985 . S
N537 C539 1.356 . S
N537 H542 0.984 . S
N537 H543 0.985 . S
C538 C532 1.379 . S
C538 C535 1.363 . S
C538 N536 1.356 . S
C539 C533 1.363 . S
C539 C534 1.379 . S
C539 N537 1.356 . S
N540 C532 1.356 . S
N540 H546 0.984 . S
N540 H547 0.984 . S
N541 C534 1.356 . S
N541 H544 0.984 . S
N541 H545 0.985 . S
H542 N537 0.984 . S
H543 N537 0.985 . S
H544 N541 0.984 . S
H545 N541 0.985 . S
H546 N540 0.984 . S
H547 N540 0.984 . S
H548 N536 0.984 . S
H549 N536 0.985 . S
C550 C551 1.363 . S
C550 C556 1.379 . S
C550 N558 1.356 . S
C551 C550 1.363 . S
C551 C557 1.363 . S
C552 C553 1.363 . S
C552 C557 1.379 1_565 S
C552 N559 1.356 . S
C553 C552 1.363 . S
C553 C556 1.363 1_565 S
N554 C556 1.356 . S
N554 H566 0.984 . S
N554 H567 0.985 1_545 S
N555 C557 1.356 . S
N555 H560 0.984 . S
N555 H561 0.985 . S
C556 C550 1.379 . S
C556 C553 1.363 1_545 S
C556 N554 1.356 . S
C557 C551 1.363 . S
C557 C552 1.379 1_545 S
C557 N555 1.356 . S
N558 C550 1.356 . S
N558 H564 0.984 . S
N558 H565 0.984 . S
N559 C552 1.356 . S
N559 H562 0.984 . S
N559 H563 0.985 . S
H560 N555 0.984 . S
H561 N555 0.985 . S
H562 N559 0.984 . S
H563 N559 0.985 . S
H564 N558 0.984 . S
H565 N558 0.984 . S
H566 N554 0.984 . S
H567 N554 0.985 1_565 S
C568 C569 1.363 . S
C568 C574 1.379 1_556 S
C568 N576 1.356 . S
C569 C568 1.363 . S
C569 C575 1.363 . S
C570 C571 1.363 . S
C570 C575 1.379 1_554 S
C570 N577 1.356 . S
C571 C570 1.363 . S
C571 C574 1.363 . S
N572 C574 1.356 . S
N572 H584 0.984 . S
N572 H585 0.985 . S
N573 C575 1.356 . S
N573 H578 0.984 . S
N573 H579 0.985 . S
C574 C568 1.379 1_554 S
C574 C571 1.363 . S
C574 N572 1.356 . S
C575 C569 1.363 . S
C575 C570 1.379 1_556 S
C575 N573 1.356 . S
N576 C568 1.356 . S
N576 H582 0.984 . S
N576 H583 0.984 . S
N577 C570 1.356 . S
N577 H580 0.984 . S
N577 H581 0.985 . S
H578 N573 0.984 . S
H579 N573 0.985 . S
H580 N577 0.984 . S
H581 N577 0.985 . S
H582 N576 0.984 . S
H583 N576 0.984 . S
H584 N572 0.984 . S
H585 N572 0.985 . S
C586 C587 1.363 . S
C586 C592 1.379 . S
C586 N594 1.356 . S
C587 C586 1.363 . S
C587 C593 1.363 . S
C588 C589 1.363 . S
C588 C593 1.379 . S
C588 N595 1.356 . S
C589 C588 1.363 . S
C589 C592 1.363 . S
N590 C592 1.356 . S
N590 H602 0.984 . S
N590 H603 0.985 . S
N591 C593 1.356 . S
N591 H596 0.984 . S
N591 H597 0.985 . S
C592 C586 1.379 . S
C592 C589 1.363 . S
C592 N590 1.356 . S
C593 C587 1.363 . S
C593 C588 1.379 . S
C593 N591 1.356 . S
N594 C586 1.356 . S
N594 H600 0.984 . S
N594 H601 0.984 . S
N595 C588 1.356 . S
N595 H598 0.984 . S
N595 H599 0.985 . S
H596 N591 0.984 . S
H597 N591 0.985 . S
H598 N595 0.984 . S
H599 N595 0.985 . S
H600 N594 0.984 . S
H601 N594 0.984 . S
H602 N590 0.984 . S
H603 N590 0.985 . S
C604 C605 1.363 . S
C604 C610 1.379 1_554 S
C604 N612 1.356 . S
C605 C604 1.363 . S
C605 C611 1.363 . S
C606 C607 1.363 . S
C606 C611 1.379 1_556 S
C606 N613 1.356 . S
C607 C606 1.363 . S
C607 C610 1.363 . S
N608 C610 1.356 . S
N608 H620 0.984 . S
N608 H621 0.985 . S
N609 C611 1.356 . S
N609 H614 0.984 . S
N609 H615 0.985 . S
C610 C604 1.379 1_556 S
C610 C607 1.363 . S
C610 N608 1.356 . S
C611 C605 1.363 . S
C611 C606 1.379 1_554 S
C611 N609 1.356 . S
N612 C604 1.356 . S
N612 H618 0.984 . S
N612 H619 0.984 . S
N613 C606 1.356 . S
N613 H616 0.984 . S
N613 H617 0.985 . S
H614 N609 0.984 . S
H615 N609 0.985 . S
H616 N613 0.984 . S
H617 N613 0.985 . S
H618 N612 0.984 . S
H619 N612 0.984 . S
H620 N608 0.984 . S
H621 N608 0.985 . S
C622 C623 1.363 . S
C622 C628 1.379 . S
C622 N630 1.356 . S
C623 C622 1.363 . S
C623 C629 1.363 . S
C624 C625 1.363 . S
C624 C629 1.379 . S
C624 N631 1.356 . S
C625 C624 1.363 . S
C625 C628 1.363 . S
N626 C628 1.356 . S
N626 H638 0.984 1_655 S
N626 H639 0.985 . S
N627 C629 1.356 . S
N627 H632 0.984 . S
N627 H633 0.985 . S
C628 C622 1.379 . S
C628 C625 1.363 . S
C628 N626 1.356 . S
C629 C623 1.363 . S
C629 C624 1.379 . S
C629 N627 1.356 . S
N630 C622 1.356 . S
N630 H636 0.984 . S
N630 H637 0.984 . S
N631 C624 1.356 . S
N631 H634 0.984 . S
N631 H635 0.985 . S
H632 N627 0.984 . S
H633 N627 0.985 . S
H634 N631 0.984 . S
H635 N631 0.985 . S
H636 N630 0.984 . S
H637 N630 0.984 . S
H638 N626 0.984 1_455 S
H639 N626 0.985 . S
C640 C641 1.363 . S
C640 C646 1.379 1_554 S
C640 N648 1.356 . S
C641 C640 1.363 . S
C641 C647 1.363 . S
C642 C643 1.363 . S
C642 C647 1.379 1_556 S
C642 N649 1.356 . S
C643 C642 1.363 . S
C643 C646 1.363 . S
N644 C646 1.356 . S
N644 H656 0.984 . S
N644 H657 0.985 . S
N645 C647 1.356 . S
N645 H650 0.984 . S
N645 H651 0.985 . S
C646 C640 1.379 1_556 S
C646 C643 1.363 . S
C646 N644 1.356 . S
C647 C641 1.363 . S
C647 C642 1.379 1_554 S
C647 N645 1.356 . S
N648 C640 1.356 . S
N648 H654 0.984 . S
N648 H655 0.984 . S
N649 C642 1.356 . S
N649 H652 0.984 . S
N649 H653 0.985 . S
H650 N645 0.984 . S
H651 N645 0.985 . S
H652 N649 0.984 . S
H653 N649 0.985 . S
H654 N648 0.984 . S
H655 N648 0.984 . S
H656 N644 0.984 . S
H657 N644 0.985 . S
C658 C659 1.363 . S
C658 C664 1.379 . S
C658 N666 1.356 . S
C659 C658 1.363 . S
C659 C665 1.363 . S
C660 C661 1.363 . S
C660 C665 1.379 . S
C660 N667 1.356 . S
C661 C660 1.363 . S
C661 C664 1.363 . S
N662 C664 1.356 . S
N662 H674 0.984 . S
N662 H675 0.985 . S
N663 C665 1.356 . S
N663 H668 0.984 . S
N663 H669 0.985 . S
C664 C658 1.379 . S
C664 C661 1.363 . S
C664 N662 1.356 . S
C665 C659 1.363 . S
C665 C660 1.379 . S
C665 N663 1.356 . S
N666 C658 1.356 . S
N666 H672 0.984 . S
N666 H673 0.984 . S
N667 C660 1.356 . S
N667 H670 0.984 . S
N667 H671 0.985 . S
H668 N663 0.984 . S
H669 N663 0.985 . S
H670 N667 0.984 . S
H671 N667 0.985 . S
H672 N666 0.984 . S
H673 N666 0.984 . S
H674 N662 0.984 . S
H675 N662 0.985 . S
C676 C677 1.363 . S
C676 C682 1.379 1_556 S
C676 N684 1.356 . S
C677 C676 1.363 . S
C677 C683 1.363 . S
C678 C679 1.363 . S
C678 C683 1.379 1_554 S
C678 N685 1.356 . S
C679 C678 1.363 . S
C679 C682 1.363 . S
N680 C682 1.356 . S
N680 H692 0.984 . S
N680 H693 0.985 . S
N681 C683 1.356 . S
N681 H686 0.984 . S
N681 H687 0.985 . S
C682 C676 1.379 1_554 S
C682 C679 1.363 . S
C682 N680 1.356 . S
C683 C677 1.363 . S
C683 C678 1.379 1_556 S
C683 N681 1.356 . S
N684 C676 1.356 . S
N684 H690 0.984 . S
N684 H691 0.984 . S
N685 C678 1.356 . S
N685 H688 0.984 . S
N685 H689 0.985 . S
H686 N681 0.984 . S
H687 N681 0.985 . S
H688 N685 0.984 . S
H689 N685 0.985 . S
H690 N684 0.984 . S
H691 N684 0.984 . S
H692 N680 0.984 . S
H693 N680 0.985 . S
C694 C695 1.363 . S
C694 C700 1.379 . S
C694 N702 1.356 . S
C695 C694 1.363 . S
C695 C701 1.363 . S
C696 C697 1.363 . S
C696 C701 1.379 . S
C696 N703 1.356 . S
C697 C696 1.363 . S
C697 C700 1.363 . S
N698 C700 1.356 . S
N698 H710 0.984 . S
N698 H711 0.985 . S
N699 C701 1.356 . S
N699 H704 0.984 . S
N699 H705 0.985 . S
C700 C694 1.379 . S
C700 C697 1.363 . S
C700 N698 1.356 . S
C701 C695 1.363 . S
C701 C696 1.379 . S
C701 N699 1.356 . S
N702 C694 1.356 . S
N702 H708 0.984 . S
N702 H709 0.984 . S
N703 C696 1.356 . S
N703 H706 0.984 . S
N703 H707 0.985 . S
H704 N699 0.984 . S
H705 N699 0.985 . S
H706 N703 0.984 . S
H707 N703 0.985 . S
H708 N702 0.984 . S
H709 N702 0.984 . S
H710 N698 0.984 . S
H711 N698 0.985 . S
C712 C713 1.363 . S
C712 C718 1.379 . S
C712 N720 1.356 . S
C713 C712 1.363 . S
C713 C719 1.363 . S
C714 C715 1.363 . S
C714 C719 1.379 . S
C714 N721 1.356 . S
C715 C714 1.363 . S
C715 C718 1.363 . S
N716 C718 1.356 . S
N716 H728 0.984 . S
N716 H729 0.985 . S
N717 C719 1.356 . S
N717 H722 0.984 . S
N717 H723 0.985 . S
C718 C712 1.379 . S
C718 C715 1.363 . S
C718 N716 1.356 . S
C719 C713 1.363 . S
C719 C714 1.379 . S
C719 N717 1.356 . S
N720 C712 1.356 . S
N720 H726 0.984 . S
N720 H727 0.984 . S
N721 C714 1.356 . S
N721 H724 0.984 . S
N721 H725 0.985 . S
H722 N717 0.984 . S
H723 N717 0.985 . S
H724 N721 0.984 . S
H725 N721 0.985 . S
H726 N720 0.984 . S
H727 N720 0.984 . S
H728 N716 0.984 . S
H729 N716 0.985 . S
C730 C731 1.363 . S
C730 C736 1.379 . S
C730 N738 1.356 . S
C731 C730 1.363 . S
C731 C737 1.363 . S
C732 C733 1.363 . S
C732 C737 1.379 . S
C732 N739 1.356 . S
C733 C732 1.363 . S
C733 C736 1.363 . S
N734 C736 1.356 . S
N734 H746 0.984 . S
N734 H747 0.985 . S
N735 C737 1.356 . S
N735 H740 0.984 . S
N735 H741 0.985 . S
C736 C730 1.379 . S
C736 C733 1.363 . S
C736 N734 1.356 . S
C737 C731 1.363 . S
C737 C732 1.379 . S
C737 N735 1.356 . S
N738 C730 1.356 . S
N738 H744 0.984 . S
N738 H745 0.984 . S
N739 C732 1.356 . S
N739 H742 0.984 . S
N739 H743 0.985 . S
H740 N735 0.984 . S
H741 N735 0.985 . S
H742 N739 0.984 . S
H743 N739 0.985 . S
H744 N738 0.984 . S
H745 N738 0.984 . S
H746 N734 0.984 . S
H747 N734 0.985 . S
C748 C749 1.363 . S
C748 C754 1.379 . S
C748 N756 1.356 . S
C749 C748 1.363 . S
C749 C755 1.363 . S
C750 C751 1.363 . S
C750 C755 1.379 . S
C750 N757 1.356 . S
C751 C750 1.363 . S
C751 C754 1.363 . S
N752 C754 1.356 . S
N752 H764 0.984 . S
N752 H765 0.985 . S
N753 C755 1.356 . S
N753 H758 0.984 . S
N753 H759 0.985 . S
C754 C748 1.379 . S
C754 C751 1.363 . S
C754 N752 1.356 . S
C755 C749 1.363 . S
C755 C750 1.379 . S
C755 N753 1.356 . S
N756 C748 1.356 . S
N756 H762 0.984 . S
N756 H763 0.984 . S
N757 C750 1.356 . S
N757 H760 0.984 . S
N757 H761 0.985 . S
H758 N753 0.984 . S
H759 N753 0.985 . S
H760 N757 0.984 . S
H761 N757 0.985 . S
H762 N756 0.984 . S
H763 N756 0.984 . S
H764 N752 0.984 . S
H765 N752 0.985 . S
C766 C767 1.363 . S
C766 C772 1.379 . S
C766 N774 1.356 . S
C767 C766 1.363 . S
C767 C773 1.363 . S
C768 C769 1.363 . S
C768 C773 1.379 . S
C768 N775 1.356 . S
C769 C768 1.363 . S
C769 C772 1.363 . S
N770 C772 1.356 . S
N770 H782 0.984 . S
N770 H783 0.985 . S
N771 C773 1.356 . S
N771 H776 0.984 . S
N771 H777 0.985 . S
C772 C766 1.379 . S
C772 C769 1.363 . S
C772 N770 1.356 . S
C773 C767 1.363 . S
C773 C768 1.379 . S
C773 N771 1.356 . S
N774 C766 1.356 . S
N774 H780 0.984 . S
N774 H781 0.984 . S
N775 C768 1.356 . S
N775 H778 0.984 1_655 S
N775 H779 0.985 1_655 S
H776 N771 0.984 . S
H777 N771 0.985 . S
H778 N775 0.984 1_455 S
H779 N775 0.985 1_455 S
H780 N774 0.984 . S
H781 N774 0.984 . S
H782 N770 0.984 . S
H783 N770 0.985 . S
C784 C785 1.363 . S
C784 C790 1.379 . S
C784 N792 1.356 . S
C785 C784 1.363 . S
C785 C791 1.363 . S
C786 C787 1.363 . S
C786 C791 1.379 . S
C786 N793 1.356 1_655 S
C787 C786 1.363 . S
C787 C790 1.363 . S
N788 C790 1.356 . S
N788 H800 0.984 . S
N788 H801 0.985 . S
N789 C791 1.356 . S
N789 H794 0.984 . S
N789 H795 0.985 . S
C790 C784 1.379 . S
C790 C787 1.363 . S
C790 N788 1.356 . S
C791 C785 1.363 . S
C791 C786 1.379 . S
C791 N789 1.356 . S
N792 C784 1.356 . S
N792 H798 0.984 . S
N792 H799 0.984 . S
N793 C786 1.356 1_455 S
N793 H796 0.984 . S
N793 H797 0.985 . S
H794 N789 0.984 . S
H795 N789 0.985 . S
H796 N793 0.984 . S
H797 N793 0.985 . S
H798 N792 0.984 . S
H799 N792 0.984 . S
H800 N788 0.984 . S
H801 N788 0.985 . S
C802 C803 1.363 . S
C802 C808 1.379 . S
C802 N810 1.356 . S
C803 C802 1.363 . S
C803 C809 1.363 . S
C804 C805 1.363 . S
C804 C809 1.379 . S
C804 N811 1.356 . S
C805 C804 1.363 . S
C805 C808 1.363 . S
N806 C808 1.356 . S
N806 H818 0.984 . S
N806 H819 0.985 . S
N807 C809 1.356 . S
N807 H812 0.984 . S
N807 H813 0.985 . S
C808 C802 1.379 . S
C808 C805 1.363 . S
C808 N806 1.356 . S
C809 C803 1.363 . S
C809 C804 1.379 . S
C809 N807 1.356 . S
N810 C802 1.356 . S
N810 H816 0.984 . S
N810 H817 0.984 . S
N811 C804 1.356 . S
N811 H814 0.984 . S
N811 H815 0.985 . S
H812 N807 0.984 . S
H813 N807 0.985 . S
H814 N811 0.984 . S
H815 N811 0.985 . S
H816 N810 0.984 . S
H817 N810 0.984 . S
H818 N806 0.984 . S
H819 N806 0.985 . S
C820 C821 1.363 . S
C820 C826 1.379 . S
C820 N828 1.356 . S
C821 C820 1.363 . S
C821 C827 1.363 . S
C822 C823 1.363 . S
C822 C827 1.379 . S
C822 N829 1.356 . S
C823 C822 1.363 . S
C823 C826 1.363 . S
N824 C826 1.356 . S
N824 H836 0.984 . S
N824 H837 0.985 . S
N825 C827 1.356 . S
N825 H830 0.984 . S
N825 H831 0.985 . S
C826 C820 1.379 . S
C826 C823 1.363 . S
C826 N824 1.356 . S
C827 C821 1.363 . S
C827 C822 1.379 . S
C827 N825 1.356 . S
N828 C820 1.356 . S
N828 H834 0.984 . S
N828 H835 0.984 . S
N829 C822 1.356 . S
N829 H832 0.984 . S
N829 H833 0.985 . S
H830 N825 0.984 . S
H831 N825 0.985 . S
H832 N829 0.984 . S
H833 N829 0.985 . S
H834 N828 0.984 . S
H835 N828 0.984 . S
H836 N824 0.984 . S
H837 N824 0.985 . S
C838 C839 1.363 . S
C838 C844 1.379 . S
C838 N846 1.356 . S
C839 C838 1.363 . S
C839 C845 1.363 . S
C840 C841 1.363 . S
C840 C845 1.379 . S
C840 N847 1.356 . S
C841 C840 1.363 . S
C841 C844 1.363 . S
N842 C844 1.356 . S
N842 H854 0.984 . S
N842 H855 0.985 . S
N843 C845 1.356 . S
N843 H848 0.984 . S
N843 H849 0.985 . S
C844 C838 1.379 . S
C844 C841 1.363 . S
C844 N842 1.356 . S
C845 C839 1.363 . S
C845 C840 1.379 . S
C845 N843 1.356 . S
N846 C838 1.356 . S
N846 H852 0.984 . S
N846 H853 0.984 . S
N847 C840 1.356 . S
N847 H850 0.984 . S
N847 H851 0.985 1_455 S
H848 N843 0.984 . S
H849 N843 0.985 . S
H850 N847 0.984 . S
H851 N847 0.985 1_655 S
H852 N846 0.984 . S
H853 N846 0.984 . S
H854 N842 0.984 . S
H855 N842 0.985 . S
C425 C71 1.657 . S
C427 C162 1.646 1_565 S
C445 C246 1.637 . S
C443 C81 1.636 . S
C463 C239 1.647 . S
C461 C49 1.653 . S
C479 C59 1.634 . S
C481 C155 1.629 . S
C499 C319 1.657 . S
C497 C27 1.658 . S
C517 C403 1.681 . S
C515 C38 1.689 . S
C533 C5 1.653 . S
C535 C396 1.649 . S
C551 C16 1.685 . S
C553 C312 1.685 . S
C571 C146 1.394 . S
C569 C15 1.554 . S
C589 C230 1.413 . S
C587 C4 1.572 . S
C607 C241 1.339 . S
C605 C37 1.556 . S
C625 C157 1.346 . S
C623 C26 1.572 . S
C643 C325 1.460 . S
C641 C60 1.601 . S
C659 C48 1.623 . S
C661 C409 1.463 . S
C679 C398 1.376 . S
C677 C82 1.602 . S
C695 C70 1.623 . S
C697 C314 1.387 . S
C715 C144 1.491 . S
C713 C10 1.481 . S
C733 C228 1.527 . S
C731 C21 1.518 . S
C749 C32 1.476 . S
C751 C235 1.457 . S
C769 C151 1.493 . S
C767 C43 1.513 . S
C787 C323 1.565 . S
C785 C54 1.547 . S
C803 C65 1.528 . S
C805 C407 1.529 . S
C821 C76 1.546 . S
C823 C414 1.541 . S
C839 C87 1.523 . S
C841 C330 1.506 . S
