# Generated by pormake.
# Topology pyr, (3,6)-cn, num edge types: 1
# Building blocks:
#     Node 0, Type 0, BuildingBlock: KAKCAD_clean_linker_0, # of connection points: 3
#     Node 1, Type 0, BuildingBlock: KAKCAD_clean_linker_0, # of connection points: 3
#     Node 2, Type 0, BuildingBlock: KAKCAD_clean_linker_0, # of connection points: 3
#     Node 3, Type 0, BuildingBlock: KAKCAD_clean_linker_0, # of connection points: 3
#     Node 4, Type 0, BuildingBlock: KAKCAD_clean_linker_0, # of connection points: 3
#     Node 5, Type 0, BuildingBlock: KAKCAD_clean_linker_0, # of connection points: 3
#     Node 6, Type 0, BuildingBlock: KAKCAD_clean_linker_0, # of connection points: 3
#     Node 7, Type 0, BuildingBlock: KAKCAD_clean_linker_0, # of connection points: 3
#     Node 8, Type 1, BuildingBlock: PAMTUU_clean_sbu_0, # of connection points: 6
#     Node 9, Type 1, BuildingBlock: PAMTUU_clean_sbu_0, # of connection points: 6
#     Node 10, Type 1, BuildingBlock: PAMTUU_clean_sbu_0, # of connection points: 6
#     Node 11, Type 1, BuildingBlock: PAMTUU_clean_sbu_0, # of connection points: 6
#     Edge 12, Type (0, 1), BuildingBlock: XIVTED_clean_linker_0, # of connection points: 2
#     Edge 13, Type (0, 1), BuildingBlock: XIVTED_clean_linker_0, # of connection points: 2
#     Edge 14, Type (0, 1), BuildingBlock: XIVTED_clean_linker_0, # of connection points: 2
#     Edge 15, Type (0, 1), BuildingBlock: XIVTED_clean_linker_0, # of connection points: 2
#     Edge 16, Type (0, 1), BuildingBlock: XIVTED_clean_linker_0, # of connection points: 2
#     Edge 17, Type (0, 1), BuildingBlock: XIVTED_clean_linker_0, # of connection points: 2
#     Edge 18, Type (0, 1), BuildingBlock: XIVTED_clean_linker_0, # of connection points: 2
#     Edge 19, Type (0, 1), BuildingBlock: XIVTED_clean_linker_0, # of connection points: 2
#     Edge 20, Type (0, 1), BuildingBlock: XIVTED_clean_linker_0, # of connection points: 2
#     Edge 21, Type (0, 1), BuildingBlock: XIVTED_clean_linker_0, # of connection points: 2
#     Edge 22, Type (0, 1), BuildingBlock: XIVTED_clean_linker_0, # of connection points: 2
#     Edge 23, Type (0, 1), BuildingBlock: XIVTED_clean_linker_0, # of connection points: 2
#     Edge 24, Type (0, 1), BuildingBlock: XIVTED_clean_linker_0, # of connection points: 2
#     Edge 25, Type (0, 1), BuildingBlock: XIVTED_clean_linker_0, # of connection points: 2
#     Edge 26, Type (0, 1), BuildingBlock: XIVTED_clean_linker_0, # of connection points: 2
#     Edge 27, Type (0, 1), BuildingBlock: XIVTED_clean_linker_0, # of connection points: 2
#     Edge 28, Type (0, 1), BuildingBlock: XIVTED_clean_linker_0, # of connection points: 2
#     Edge 29, Type (0, 1), BuildingBlock: XIVTED_clean_linker_0, # of connection points: 2
#     Edge 30, Type (0, 1), BuildingBlock: XIVTED_clean_linker_0, # of connection points: 2
#     Edge 31, Type (0, 1), BuildingBlock: XIVTED_clean_linker_0, # of connection points: 2
#     Edge 32, Type (0, 1), BuildingBlock: XIVTED_clean_linker_0, # of connection points: 2
#     Edge 33, Type (0, 1), BuildingBlock: XIVTED_clean_linker_0, # of connection points: 2
#     Edge 34, Type (0, 1), BuildingBlock: XIVTED_clean_linker_0, # of connection points: 2
#     Edge 35, Type (0, 1), BuildingBlock: XIVTED_clean_linker_0, # of connection points: 2
# Relax obj value: 0.085
# Max RMSD: 0.123
# Mean RMSD: 0.051
data_MOF--net-pyr--node1-PAMTUU_clean_sbu_0--node2-KAKCAD_clean_linker_0--edge1-XIVTED_clean_linker_0
_symmetry_space_group_name_H-M    P1
_symmetry_Int_Tables_number       1
_symmetry_cell_setting            triclinic
loop_
_symmetry_equiv_pos_as_xyz
'x, y, z'
_cell_length_a     47.121552
_cell_length_b     47.592428
_cell_length_c     45.595129
_cell_angle_alpha  90.050209
_cell_angle_beta   89.399129
_cell_angle_gamma 100.43407
loop_
_atom_site_label
_atom_site_type_symbol
_atom_site_fract_x
_atom_site_fract_y
_atom_site_fract_z
_atom_type_partial_charge
C0 C 0.27112 0.25091 0.31507 0.0
C1 C 0.28695 0.23937 0.33641 0.0
C2 C 0.28506 0.26573 0.29112 0.0
C3 C 0.31527 0.26967 0.28803 0.0
C4 C 0.33124 0.25919 0.31009 0.0
C5 C 0.31719 0.24405 0.33398 0.0
C6 C 0.32944 0.28241 0.26062 0.0
C7 C 0.31883 0.30435 0.24621 0.0
C8 C 0.32812 0.3128 0.21769 0.0
C9 C 0.34947 0.30008 0.20405 0.0
C10 C 0.36113 0.27875 0.21854 0.0
C11 C 0.35101 0.27012 0.24682 0.0
C12 C 0.38141 0.26306 0.20318 0.0
C13 C 0.37618 0.25386 0.17414 0.0
C14 C 0.40475 0.25519 0.21811 0.0
C15 C 0.42193 0.23776 0.20458 0.0
C16 C 0.41613 0.22783 0.17583 0.0
C17 C 0.31226 0.33177 0.20115 0.0
C18 C 0.301 0.32346 0.17341 0.0
C19 C 0.30456 0.35586 0.21472 0.0
C20 C 0.28433 0.37 0.20188 0.0
C21 C 0.27132 0.3603 0.17523 0.0
C22 C 0.2807 0.33758 0.16058 0.0
C23 C 0.39331 0.23644 0.16064 0.0
H24 H 0.24775 0.24719 0.31604 0.0
H25 H 0.27191 0.27282 0.2743 0.0
H26 H 0.35454 0.26215 0.30857 0.0
H27 H 0.32993 0.23554 0.35027 0.0
H28 H 0.30191 0.31367 0.25652 0.0
H29 H 0.35845 0.25233 0.25716 0.0
H30 H 0.35655 0.30639 0.18194 0.0
H31 H 0.35806 0.25908 0.16221 0.0
H32 H 0.40946 0.2622 0.24043 0.0
H33 H 0.43959 0.23187 0.21673 0.0
H34 H 0.30629 0.30478 0.16256 0.0
H35 H 0.3132 0.36294 0.23594 0.0
H36 H 0.38788 0.2288 0.13867 0.0
H37 H 0.27099 0.32945 0.14012 0.0
H38 H 0.27803 0.38786 0.21339 0.0
C39 C 0.21063 0.8245 0.82651 0.0
C40 C 0.24065 0.82595 0.82829 0.0
C41 C 0.19463 0.80735 0.80523 0.0
C42 C 0.20839 0.7915 0.78523 0.0
C43 C 0.23824 0.79222 0.78805 0.0
C44 C 0.25397 0.8088 0.80948 0.0
C45 C 0.1929 0.77645 0.75972 0.0
C46 C 0.17229 0.78845 0.74449 0.0
C47 C 0.16204 0.77766 0.71701 0.0
C48 C 0.17399 0.75542 0.70408 0.0
C49 C 0.19503 0.74359 0.71894 0.0
C50 C 0.20226 0.7526 0.74763 0.0
C51 C 0.21323 0.72556 0.70362 0.0
C52 C 0.20171 0.70327 0.68446 0.0
C53 C 0.2432 0.73128 0.70823 0.0
C54 C 0.26101 0.71438 0.69545 0.0
C55 C 0.24955 0.69158 0.67719 0.0
C56 C 0.14144 0.79221 0.70089 0.0
C57 C 0.1199 0.80327 0.71637 0.0
C58 C 0.1447 0.79753 0.67055 0.0
C59 C 0.12787 0.81472 0.65645 0.0
C60 C 0.10784 0.82721 0.67251 0.0
C61 C 0.10355 0.82088 0.70241 0.0
C62 C 0.21985 0.68641 0.67119 0.0
H63 H 0.19969 0.83743 0.84073 0.0
H64 H 0.17165 0.80708 0.80402 0.0
H65 H 0.25002 0.78099 0.77288 0.0
H66 H 0.27691 0.80878 0.81069 0.0
H67 H 0.16568 0.80753 0.75303 0.0
H68 H 0.21735 0.74242 0.75964 0.0
H69 H 0.16796 0.74823 0.68211 0.0
H70 H 0.17877 0.69856 0.68024 0.0
H71 H 0.25308 0.74898 0.72182 0.0
H72 H 0.28395 0.71924 0.69979 0.0
H73 H 0.11631 0.79908 0.73959 0.0
H74 H 0.16125 0.78974 0.65792 0.0
H75 H 0.21067 0.66901 0.65689 0.0
H76 H 0.088 0.83013 0.71512 0.0
H77 H 0.13162 0.81953 0.63337 0.0
C78 C 0.75427 0.4386 0.89601 0.0
C79 C 0.77505 0.42203 0.90367 0.0
C80 C 0.72886 0.42627 0.88155 0.0
C81 C 0.72344 0.39701 0.87459 0.0
C82 C 0.74445 0.38062 0.88158 0.0
C83 C 0.7699 0.39295 0.89575 0.0
C84 C 0.69543 0.38313 0.86148 0.0
C85 C 0.68354 0.39538 0.83747 0.0
C86 C 0.65715 0.382 0.82499 0.0
C87 C 0.6427 0.35595 0.83737 0.0
C88 C 0.65416 0.3435 0.86157 0.0
C89 C 0.68055 0.35727 0.87323 0.0
C90 C 0.63896 0.3161 0.87501 0.0
C91 C 0.63741 0.3129 0.90569 0.0
C92 C 0.62724 0.29252 0.85755 0.0
C93 C 0.61525 0.26617 0.87048 0.0
C94 C 0.61457 0.26275 0.90121 0.0
C95 C 0.64488 0.39511 0.79902 0.0
C96 C 0.64849 0.425 0.79568 0.0
C97 C 0.62963 0.37789 0.77712 0.0
C98 C 0.61845 0.39009 0.75277 0.0
C99 C 0.62234 0.41999 0.74924 0.0
C100 C 0.63755 0.43721 0.77118 0.0
C101 C 0.62538 0.2867 0.91858 0.0
H102 H 0.75717 0.46097 0.90192 0.0
H103 H 0.71301 0.43944 0.87668 0.0
H104 H 0.74119 0.35812 0.8761 0.0
H105 H 0.78557 0.37955 0.90044 0.0
H106 H 0.69541 0.41494 0.828 0.0
H107 H 0.68963 0.34778 0.8917 0.0
H108 H 0.62209 0.34567 0.82874 0.0
H109 H 0.64566 0.33073 0.91986 0.0
H110 H 0.62823 0.29414 0.83386 0.0
H111 H 0.60734 0.24825 0.85632 0.0
H112 H 0.65964 0.43916 0.81212 0.0
H113 H 0.6266 0.35483 0.77846 0.0
H114 H 0.6246 0.28527 0.94228 0.0
H115 H 0.64144 0.46026 0.76935 0.0
H116 H 0.60651 0.37591 0.73682 0.0
C117 C 0.86981 0.63907 0.24968 0.0
C118 C 0.89865 0.63506 0.24858 0.0
C119 C 0.85897 0.65124 0.27443 0.0
C120 C 0.87686 0.66022 0.29843 0.0
C121 C 0.90585 0.65674 0.2971 0.0
C122 C 0.91655 0.64403 0.27258 0.0
C123 C 0.86503 0.67225 0.32514 0.0
C124 C 0.83947 0.65765 0.3384 0.0
C125 C 0.82858 0.66805 0.36421 0.0
C126 C 0.8431 0.69371 0.37639 0.0
C127 C 0.86805 0.70942 0.36293 0.0
C128 C 0.87917 0.69813 0.33752 0.0
C129 C 0.88179 0.73776 0.3753 0.0
C130 C 0.86462 0.75615 0.38765 0.0
C131 C 0.91196 0.74662 0.37532 0.0
C132 C 0.92453 0.77289 0.38772 0.0
C133 C 0.90731 0.791 0.40061 0.0
C134 C 0.80179 0.65247 0.37847 0.0
C135 C 0.77642 0.64449 0.36223 0.0
C136 C 0.8011 0.64652 0.40869 0.0
C137 C 0.77552 0.63313 0.42246 0.0
C138 C 0.74995 0.62585 0.4064 0.0
C139 C 0.7507 0.63156 0.37611 0.0
C140 C 0.87715 0.78219 0.40027 0.0
H141 H 0.85546 0.63226 0.23161 0.0
H142 H 0.83657 0.65373 0.27479 0.0
H143 H 0.92009 0.66329 0.31533 0.0
H144 H 0.93891 0.64141 0.27228 0.0
H145 H 0.82849 0.6377 0.3291 0.0
H146 H 0.8983 0.70985 0.32675 0.0
H147 H 0.83462 0.70158 0.39635 0.0
H148 H 0.84131 0.75051 0.38757 0.0
H149 H 0.92597 0.73307 0.36621 0.0
H150 H 0.9478 0.77899 0.38707 0.0
H151 H 0.77631 0.64896 0.33895 0.0
H152 H 0.82038 0.65234 0.4217 0.0
H153 H 0.86303 0.79515 0.41024 0.0
H154 H 0.73135 0.62602 0.36315 0.0
H155 H 0.77556 0.62916 0.44585 0.0
C156 C 0.73466 0.78637 0.75605 0.0
C157 C 0.7385 0.81621 0.75342 0.0
C158 C 0.71673 0.77226 0.77823 0.0
C159 C 0.70233 0.78783 0.79794 0.0
C160 C 0.70465 0.81742 0.79364 0.0
C161 C 0.72245 0.83139 0.77164 0.0
C162 C 0.68854 0.77469 0.82536 0.0
C163 C 0.70255 0.75672 0.84206 0.0
C164 C 0.69407 0.74981 0.87119 0.0
C165 C 0.67152 0.76164 0.88382 0.0
C166 C 0.65697 0.77952 0.86728 0.0
C167 C 0.66467 0.78442 0.83758 0.0
C168 C 0.63663 0.79616 0.88159 0.0
C169 C 0.61893 0.78514 0.90554 0.0
C170 C 0.63622 0.82435 0.87234 0.0
C171 C 0.61874 0.84093 0.88644 0.0
C172 C 0.60174 0.83016 0.91068 0.0
C173 C 0.71144 0.7331 0.88894 0.0
C174 C 0.72122 0.70952 0.87649 0.0
C175 C 0.72098 0.74231 0.91705 0.0
C176 C 0.74115 0.72925 0.93161 0.0
C177 C 0.75227 0.70677 0.91833 0.0
C178 C 0.74144 0.6966 0.89092 0.0
C179 C 0.60189 0.80212 0.92016 0.0
H180 H 0.74679 0.77422 0.74216 0.0
H181 H 0.71516 0.74941 0.78077 0.0
H182 H 0.69431 0.83028 0.80852 0.0
H183 H 0.7248 0.8544 0.76978 0.0
H184 H 0.72167 0.74996 0.83322 0.0
H185 H 0.65325 0.79749 0.82428 0.0
H186 H 0.66624 0.75784 0.90681 0.0
H187 H 0.61841 0.76352 0.91318 0.0
H188 H 0.65019 0.83422 0.85481 0.0
H189 H 0.61947 0.86271 0.87913 0.0
H190 H 0.71403 0.70175 0.85499 0.0
H191 H 0.71403 0.76054 0.92718 0.0
H192 H 0.58893 0.79343 0.93891 0.0
H193 H 0.74963 0.67956 0.8798 0.0
H194 H 0.74863 0.73732 0.95291 0.0
C195 C 0.80695 0.2236 0.24556 0.0
C196 C 0.79452 0.2424 0.22818 0.0
C197 C 0.8203 0.2328 0.27186 0.0
C198 C 0.82181 0.26115 0.28136 0.0
C199 C 0.81083 0.28041 0.26312 0.0
C200 C 0.79715 0.27108 0.23687 0.0
C201 C 0.83208 0.26946 0.31144 0.0
C202 C 0.8543 0.2576 0.32397 0.0
C203 C 0.86055 0.26094 0.35397 0.0
C204 C 0.84551 0.2781 0.37118 0.0
C205 C 0.82392 0.2911 0.35874 0.0
C206 C 0.81729 0.28646 0.32894 0.0
C207 C 0.80627 0.30753 0.37694 0.0
C208 C 0.79523 0.29725 0.40443 0.0
C209 C 0.79818 0.33234 0.36563 0.0
C210 C 0.77837 0.34572 0.38065 0.0
C211 C 0.76625 0.33476 0.40753 0.0
C212 C 0.88078 0.24422 0.36757 0.0
C213 C 0.88008 0.21564 0.35918 0.0
C214 C 0.90009 0.25604 0.38949 0.0
C215 C 0.91803 0.23951 0.40291 0.0
C216 C 0.91704 0.21084 0.39465 0.0
C217 C 0.89802 0.19922 0.37246 0.0
C218 C 0.77544 0.31074 0.41958 0.0
H219 H 0.80484 0.20124 0.23976 0.0
H220 H 0.82792 0.21716 0.28549 0.0
H221 H 0.81205 0.30251 0.26954 0.0
H222 H 0.78795 0.28608 0.22375 0.0
H223 H 0.86622 0.24491 0.31048 0.0
H224 H 0.79927 0.29468 0.31985 0.0
H225 H 0.84993 0.28062 0.3944 0.0
H226 H 0.80087 0.27807 0.41368 0.0
H227 H 0.80654 0.34097 0.34464 0.0
H228 H 0.77166 0.36395 0.37046 0.0
H229 H 0.865 0.20559 0.34289 0.0
H230 H 0.90133 0.27804 0.39626 0.0
H231 H 0.76689 0.30197 0.44043 0.0
H232 H 0.89622 0.17706 0.36604 0.0
H233 H 0.93262 0.24913 0.41981 0.0
C234 C 0.25041 0.63228 0.18588 0.0
C235 C 0.24891 0.63322 0.15503 0.0
C236 C 0.27564 0.64473 0.20056 0.0
C237 C 0.30003 0.65854 0.18479 0.0
C238 C 0.29872 0.6589 0.15396 0.0
C239 C 0.27359 0.64645 0.13932 0.0
C240 C 0.32644 0.6735 0.20016 0.0
C241 C 0.33775 0.66122 0.22452 0.0
C242 C 0.36302 0.67528 0.23852 0.0
C243 C 0.3768 0.70223 0.2277 0.0
C244 C 0.36581 0.71492 0.20332 0.0
C245 C 0.3405 0.70039 0.19011 0.0
C246 C 0.38045 0.74322 0.19114 0.0
C247 C 0.39257 0.7659 0.20959 0.0
C248 C 0.38129 0.7481 0.16063 0.0
C249 C 0.39279 0.775 0.149 0.0
C250 C 0.40417 0.79789 0.16742 0.0
C251 C 0.3752 0.66154 0.26404 0.0
C252 C 0.37511 0.63193 0.26442 0.0
C253 C 0.38695 0.6778 0.2883 0.0
C254 C 0.39812 0.66483 0.3122 0.0
C255 C 0.39803 0.6352 0.31255 0.0
C256 C 0.38634 0.61899 0.28824 0.0
C257 C 0.40435 0.79287 0.19786 0.0
H258 H 0.23181 0.62256 0.19881 0.0
H259 H 0.27575 0.64426 0.2243 0.0
H260 H 0.31725 0.66882 0.14102 0.0
H261 H 0.27361 0.64707 0.11558 0.0
H262 H 0.32688 0.64059 0.2325 0.0
H263 H 0.33123 0.71037 0.1721 0.0
H264 H 0.39661 0.71292 0.23767 0.0
H265 H 0.39218 0.7631 0.23316 0.0
H266 H 0.37293 0.73107 0.14557 0.0
H267 H 0.39289 0.77783 0.12543 0.0
H268 H 0.36662 0.61866 0.24608 0.0
H269 H 0.38723 0.70059 0.28903 0.0
H270 H 0.41284 0.81003 0.21273 0.0
H271 H 0.38553 0.59611 0.28769 0.0
H272 H 0.40717 0.67816 0.33028 0.0
C273 C 0.14809 0.25721 0.67591 0.0
C274 C 0.11817 0.25009 0.67149 0.0
C275 C 0.16032 0.28336 0.68838 0.0
C276 C 0.14305 0.3033 0.69671 0.0
C277 C 0.11297 0.2958 0.69338 0.0
C278 C 0.10065 0.26946 0.68092 0.0
C279 C 0.15683 0.33222 0.70733 0.0
C280 C 0.18212 0.34654 0.69348 0.0
C281 C 0.19634 0.37338 0.70323 0.0
C282 C 0.18457 0.38625 0.72718 0.0
C283 C 0.15901 0.37253 0.74132 0.0
C284 C 0.14523 0.34553 0.73108 0.0
C285 C 0.1469 0.38625 0.76695 0.0
C286 C 0.16508 0.39973 0.78909 0.0
C287 C 0.11708 0.38605 0.76949 0.0
C288 C 0.10578 0.39919 0.79336 0.0
C289 C 0.12395 0.41268 0.8155 0.0
C290 C 0.2234 0.38761 0.68807 0.0
C291 C 0.24416 0.37149 0.67893 0.0
C292 C 0.22827 0.41699 0.68154 0.0
C293 C 0.25295 0.42972 0.66571 0.0
C294 C 0.27335 0.4134 0.65601 0.0
C295 C 0.26873 0.38417 0.66311 0.0
C296 C 0.15375 0.41265 0.8131 0.0
H297 H 0.16216 0.24255 0.66957 0.0
H298 H 0.18349 0.28809 0.69127 0.0
H299 H 0.09904 0.31069 0.69942 0.0
H300 H 0.07754 0.26471 0.67773 0.0
H301 H 0.19054 0.33693 0.67448 0.0
H302 H 0.12597 0.33447 0.74217 0.0
H303 H 0.19535 0.40696 0.73484 0.0
H304 H 0.18811 0.40005 0.78803 0.0
H305 H 0.10247 0.37605 0.75277 0.0
H306 H 0.08271 0.39853 0.7946 0.0
H307 H 0.24144 0.34893 0.68407 0.0
H308 H 0.21263 0.42999 0.68796 0.0
H309 H 0.16843 0.42301 0.82958 0.0
H310 H 0.28425 0.37105 0.65663 0.0
H311 H 0.25566 0.45224 0.66045 0.0
Tb312 Tb 0.04355 1.02292 0.51755 0.0
Tb313 Tb 0.98291 1.01754 0.55473 0.0
C314 C 0.99063 0.97478 0.50395 0.0
C315 C 0.11198 0.04969 0.47675 0.0
C316 C 0.1535 0.09395 0.45268 0.0
C317 C 0.12401 0.0958 0.4526 0.0
C318 C 0.10342 0.07391 0.46467 0.0
C319 C 0.14127 0.04778 0.477 0.0
C320 C 0.16187 0.06971 0.46516 0.0
C321 C 0.09095 0.02672 0.49023 0.0
O322 O 0.01634 0.04638 0.49215 0.0
O323 O 0.98597 0.05606 0.52906 0.0
O324 O 0.01524 0.04811 0.57814 0.0
O325 O 0.04718 0.06324 0.54059 0.0
O326 O 0.93798 1.01539 0.55559 0.0
O327 O 0.96211 1.01534 0.59566 0.0
O328 O 1.0014 0.98079 0.56702 0.0
O329 O 0.0483 1.00208 0.55925 0.0
O330 O 0.0187 0.98105 0.50726 0.0
O331 O 0.97344 0.99059 0.51592 0.0
C332 C 0.99744 0.06105 0.50284 0.0
O333 O 0.08867 0.02797 0.51866 0.0
O334 O 0.0658 1.02031 0.47778 0.0
C335 C 0.03652 0.06686 0.56675 0.0
C336 C 0.91481 0.98983 0.59606 0.0
C337 C 0.87649 0.94642 0.62513 0.0
C338 C 0.87487 0.9753 0.62975 0.0
C339 C 0.8939 0.99681 0.61534 0.0
C340 C 0.9159 0.96104 0.59038 0.0
C341 C 0.89669 0.9394 0.60475 0.0
C342 C 0.93662 1.01288 0.58407 0.0
C343 C 0.02901 0.98196 0.57126 0.0
H344 H 0.11675 0.11396 0.44285 0.0
H345 H 0.08087 0.07589 0.46456 0.0
H346 H 0.14824 0.02937 0.48659 0.0
H347 H 0.18439 0.0678 0.46609 0.0
H348 H 0.85924 0.98128 0.64504 0.0
H349 H 0.89284 1.01895 0.61991 0.0
H350 H 0.93211 0.95539 0.57558 0.0
H351 H 0.89844 0.91731 0.60092 0.0
Tb352 Tb 0.54148 0.0354 0.05946 0.0
Tb353 Tb 0.4826 0.03009 1.0198 0.0
C354 C 0.52736 0.99014 1.00814 0.0
C355 C 0.6089 0.06593 0.09805 0.0
C356 C 0.65131 0.11254 0.11468 0.0
C357 C 0.65561 0.08433 0.11892 0.0
C358 C 0.63457 0.06124 0.11064 0.0
C359 C 0.60429 0.09397 0.0939 0.0
C360 C 0.62533 0.11714 0.10225 0.0
C361 C 0.58794 0.0415 0.08775 0.0
O362 O 0.54686 0.07429 1.03338 0.0
O363 O 0.51654 0.05844 0.99543 0.0
O364 O 0.48647 0.06936 0.04448 0.0
O365 O 0.51231 0.05801 0.08355 0.0
O366 O 0.46202 0.02714 0.97917 0.0
O367 O 0.43817 0.03097 1.01934 0.0
O368 O 0.47113 1.00097 0.05708 0.0
O369 O 0.51593 0.9947 0.07265 0.0
O370 O 0.54696 1.00812 1.02228 0.0
O371 O 0.50016 0.99274 1.00761 0.0
C372 C 0.53767 0.07716 1.00663 0.0
O373 O 0.56245 0.03758 0.1001 0.0
O374 O 0.5864 0.03888 0.05937 0.0
C375 C 0.4954 0.07371 0.07146 0.0
C376 C 0.41389 1.00324 0.98146 0.0
C377 C 0.3716 0.96011 0.95794 0.0
C378 C 0.36578 0.98775 0.96228 0.0
C379 C 0.38687 1.00921 0.97387 0.0
C380 C 0.41927 0.97532 0.97858 0.0
C381 C 0.39831 0.95393 0.96677 0.0
C382 C 0.43663 0.02648 0.99114 0.0
C383 C 0.48773 0.98689 0.07225 0.0
H384 H 0.67515 0.08009 0.12893 0.0
H385 H 0.63844 0.0397 0.11385 0.0
H386 H 0.58461 0.09788 0.08389 0.0
H387 H 0.62149 0.1386 0.09855 0.0
H388 H 0.34548 0.99312 0.95542 0.0
H389 H 0.38239 0.03066 0.97611 0.0
H390 H 0.43994 0.97028 0.98468 0.0
H391 H 0.4032 0.93271 0.9639 0.0
Tb392 Tb 0.51042 0.49451 0.51071 0.0
Tb393 Tb 0.50847 0.55361 0.54686 0.0
C394 C 0.481 0.54354 0.48488 0.0
C395 C 0.54036 0.43504 0.4776 0.0
C396 C 0.59027 0.41116 0.46785 0.0
C397 C 0.57637 0.42182 0.44432 0.0
C398 C 0.55158 0.43347 0.44913 0.0
C399 C 0.55385 0.42376 0.50113 0.0
C400 C 0.57848 0.41174 0.49624 0.0
C401 C 0.51598 0.45024 0.48231 0.0
O402 O 0.55449 0.51829 0.5109 0.0
O403 O 0.54447 0.56336 0.516 0.0
O404 O 0.53911 0.53316 0.57094 0.0
O405 O 0.52384 0.48704 0.55527 0.0
O406 O 0.50804 0.59767 0.54598 0.0
O407 O 0.50539 0.57474 0.58692 0.0
O408 O 0.47352 0.52182 0.56417 0.0
O409 O 0.46567 0.4902 0.5258 0.0
O410 O 0.49758 0.52468 0.47952 0.0
O411 O 0.4771 0.55196 0.5118 0.0
C412 C 0.56186 0.54609 0.5078 0.0
O413 O 0.50474 0.44967 0.50861 0.0
O414 O 0.51935 0.47568 0.47084 0.0
C415 C 0.53784 0.50544 0.57399 0.0
C416 C 0.47518 0.60819 0.58158 0.0
C417 C 0.4225 0.62327 0.5993 0.0
C418 C 0.44852 0.6358 0.61273 0.0
C419 C 0.47469 0.62831 0.6039 0.0
C420 C 0.44933 0.59591 0.5679 0.0
C421 C 0.42325 0.60349 0.57656 0.0
C422 C 0.50204 0.59825 0.57392 0.0
C423 C 0.45718 0.50076 0.5504 0.0
H424 H 0.5848 0.42129 0.42217 0.0
H425 H 0.54155 0.44193 0.43064 0.0
H426 H 0.54582 0.42479 0.52337 0.0
H427 H 0.58887 0.40377 0.51476 0.0
H428 H 0.44861 0.6513 0.63016 0.0
H429 H 0.49441 0.63781 0.61483 0.0
H430 H 0.4492 0.57996 0.55093 0.0
H431 H 0.40356 0.59318 0.56609 0.0
Tb432 Tb 0.01198 0.55597 1.01233 0.0
Tb433 Tb 0.01113 0.49648 0.04884 0.0
C434 C 0.04027 0.506 0.98714 0.0
C435 C 0.98462 0.61607 0.97943 0.0
C436 C 0.93371 0.63796 0.97007 0.0
C437 C 0.94917 0.62924 0.94627 0.0
C438 C 0.97448 0.61856 0.9509 0.0
C439 C 0.96968 0.62567 1.00322 0.0
C440 C 0.94454 0.63671 0.99853 0.0
C441 C 1.00884 0.60079 0.98403 0.0
O442 O 0.96751 0.53335 1.01082 0.0
O443 O 0.97498 0.48762 1.01863 0.0
O444 O 0.98054 0.51764 0.07254 0.0
O445 O 0.99645 0.5636 0.05625 0.0
O446 O 0.01047 0.45224 0.04786 0.0
O447 O 0.01247 0.47499 0.08887 0.0
O448 O 0.04596 0.52774 0.06688 0.0
O449 O 0.05606 0.55893 1.02823 0.0
O450 O 0.02413 0.52505 0.98156 0.0
O451 O 0.04348 0.49766 1.01411 0.0
C452 C 0.95896 0.50555 1.00899 0.0
O453 O 0.01916 0.60087 1.01046 0.0
O454 O 1.0056 0.57549 0.97227 0.0
C455 C 0.98187 0.54539 0.07502 0.0
C456 C 0.04113 0.44001 0.08397 0.0
C457 C 0.09154 0.4209 0.10149 0.0
C458 C 0.06428 0.40748 0.11215 0.0
C459 C 0.03924 0.41698 0.10341 0.0
C460 C 0.06822 0.45332 0.07313 0.0
C461 C 0.09319 0.4438 0.08173 0.0
C462 C 0.01527 0.45124 0.07591 0.0
C463 C 0.06324 0.54852 0.05328 0.0
H464 H 0.94145 0.63031 0.92407 0.0
H465 H 0.9856 0.61129 0.93223 0.0
H466 H 0.97682 0.62383 1.02552 0.0
H467 H 0.93293 0.64317 1.01726 0.0
H468 H 0.06233 0.38965 0.12723 0.0
H469 H 0.01848 0.40658 0.11205 0.0
H470 H 0.07011 0.47139 0.05836 0.0
H471 H 0.11385 0.45487 0.0735 0.0
H472 H 0.29763 0.18752 0.35408 0.0
H473 H 0.1554 0.15203 0.45447 0.0
H474 H 0.24066 0.24747 0.37021 0.0
H475 H 0.20169 0.08833 0.42055 0.0
H476 H 0.19066 0.18911 0.43047 0.0
H477 H 0.26756 0.15316 0.38637 0.0
C478 C 0.27911 0.19366 0.3649 0.0
C479 C 0.2715 0.22029 0.35933 0.0
C480 C 0.19314 0.16701 0.42846 0.0
C481 C 0.23674 0.18094 0.39586 0.0
C482 C 0.17292 0.1458 0.44197 0.0
C483 C 0.17542 0.11693 0.43939 0.0
C484 C 0.21612 0.15935 0.41237 0.0
C485 C 0.199 0.11026 0.42346 0.0
C486 C 0.2618 0.17394 0.38309 0.0
C487 C 0.24705 0.227 0.37363 0.0
N488 N 0.21835 0.13129 0.41049 0.0
N489 N 0.23041 0.20736 0.3911 0.0
H490 H 0.2936 0.85797 0.81655 0.0
H491 H 0.31282 0.9448 0.96561 0.0
H492 H 0.22873 0.8412 0.88507 0.0
H493 H 0.3839 0.92736 0.91245 0.0
H494 H 0.27941 0.91173 0.93487 0.0
H495 H 0.32468 0.88923 0.8496 0.0
C496 C 0.28594 0.86061 0.83868 0.0
C497 C 0.2587 0.84633 0.84822 0.0
C498 C 0.30236 0.91503 0.93023 0.0
C499 C 0.29415 0.88292 0.88607 0.0
C500 C 0.32135 0.93387 0.94762 0.0
C501 C 0.35112 0.93867 0.94156 0.0
C502 C 0.3133 0.90151 0.90637 0.0
C503 C 0.36116 0.924 0.9181 0.0
C504 C 0.30371 0.87862 0.8575 0.0
C505 C 0.24958 0.85169 0.87681 0.0
N506 N 0.34227 0.90631 0.90122 0.0
N507 N 0.26733 0.86961 0.89483 0.0
H508 H 0.61673 0.39938 0.69241 0.0
H509 H 0.55768 0.5332 0.62501 0.0
H510 H 0.60146 0.47075 0.74508 0.0
H511 H 0.55031 0.45175 0.58138 0.0
H512 H 0.57884 0.5131 0.66739 0.0
H513 H 0.59709 0.42038 0.65012 0.0
C514 C 0.60911 0.41934 0.69532 0.0
C515 C 0.61075 0.43303 0.72281 0.0
C516 C 0.57263 0.49967 0.64851 0.0
C517 C 0.58869 0.45775 0.67366 0.0
C518 C 0.56066 0.51118 0.6242 0.0
C519 C 0.55207 0.49419 0.59948 0.0
C520 C 0.57643 0.47102 0.64805 0.0
C521 C 0.55641 0.4657 0.59991 0.0
C522 C 0.59804 0.43145 0.67094 0.0
C523 C 0.60113 0.45939 0.7245 0.0
N524 N 0.56829 0.45511 0.62367 0.0
N525 N 0.59061 0.47083 0.70037 0.0
H526 H 0.89331 0.64767 0.19046 0.0
H527 H 0.96677 0.52039 0.12864 0.0
H528 H 0.92948 0.59134 0.24738 0.0
H529 H 0.96417 0.59699 0.07898 0.0
H530 H 0.94577 0.54163 0.17093 0.0
H531 H 0.91206 0.62498 0.14787 0.0
C532 C 0.90509 0.63044 0.19397 0.0
C533 C 0.90992 0.62145 0.22252 0.0
C534 C 0.94973 0.5537 0.15072 0.0
C535 C 0.93117 0.59518 0.17386 0.0
C536 C 0.96152 0.54153 0.12651 0.0
C537 C 0.96732 0.55695 0.10021 0.0
C538 C 0.94316 0.58127 0.14845 0.0
C539 C 0.96025 0.58438 0.09884 0.0
C540 C 0.91588 0.61759 0.16968 0.0
C541 C 0.9255 0.59911 0.22577 0.0
N542 N 0.94845 0.59558 0.12253 0.0
N543 N 0.93541 0.58663 0.20176 0.0
H544 H 0.43513 0.18242 0.20146 0.0
H545 H 0.47552 0.11899 0.04845 0.0
H546 H 0.43473 0.2265 0.11878 0.0
H547 H 0.4968 0.08401 0.13101 0.0
H548 H 0.46022 0.15827 0.07455 0.0
H549 H 0.45817 0.14646 0.17706 0.0
C550 C 0.44027 0.18481 0.17828 0.0
C551 C 0.4327 0.20743 0.16208 0.0
C552 C 0.46836 0.14214 0.08705 0.0
C553 C 0.45857 0.16604 0.13402 0.0
C554 C 0.47697 0.11955 0.07215 0.0
C555 C 0.48721 0.09801 0.08761 0.0
C556 C 0.46961 0.14318 0.11776 0.0
C557 C 0.48895 0.10015 0.11827 0.0
C558 C 0.45328 0.16417 0.16437 0.0
C559 C 0.43958 0.20915 0.13204 0.0
N560 N 0.47994 0.12223 0.13243 0.0
N561 N 0.45187 0.18863 0.11898 0.0
H562 H 0.07321 0.82165 0.62419 0.0
H563 H 0.07773 0.98668 0.60391 0.0
H564 H 0.11071 0.8822 0.68963 0.0
H565 H 1.00293 0.92612 0.57722 0.0
H566 H 0.09518 0.94833 0.6302 0.0
H567 H 0.0517 0.85945 0.60093 0.0
C568 C 0.07674 0.84287 0.63365 0.0
C569 C 0.09353 0.84896 0.65883 0.0
C570 C 0.07486 0.94354 0.61873 0.0
C571 C 0.06979 0.892 0.63227 0.0
C572 C 0.06496 0.96532 0.6037 0.0
C573 C 0.03885 0.95948 0.58854 0.0
C574 C 0.0589 0.91565 0.61787 0.0
C575 C 0.02307 0.93147 0.58891 0.0
C576 C 0.06446 0.86428 0.62052 0.0
C577 C 0.09766 0.87672 0.67034 0.0
N578 N 0.03355 0.91042 0.60305 0.0
N579 N 0.08615 0.89735 0.65676 0.0
H580 H 0.8034 0.39664 0.94596 0.0
H581 H 0.92388 0.53487 0.97792 0.0
H582 H 0.80773 0.47654 0.89982 0.0
H583 H 0.92984 0.45001 1.00747 0.0
H584 H 0.87885 0.51517 0.95301 0.0
H585 H 0.84727 0.41701 0.97197 0.0
C586 C 0.81359 0.4184 0.94103 0.0
C587 C 0.80169 0.43468 0.92026 0.0
C588 C 0.88999 0.50088 0.96499 0.0
C589 C 0.85204 0.45849 0.95081 0.0
C590 C 0.91568 0.51212 0.97937 0.0
C591 C 0.93083 0.4941 0.99488 0.0
C592 C 0.87908 0.47139 0.96628 0.0
C593 C 0.91906 0.46477 0.99577 0.0
C594 C 0.83865 0.4301 0.95614 0.0
C595 C 0.81573 0.46311 0.91572 0.0
N596 N 0.89396 0.45439 0.98175 0.0
N597 N 0.84008 0.47405 0.93082 0.0
H598 H 0.73998 0.58103 0.44524 0.0
H599 H 0.57892 0.59952 0.48445 0.0
H600 H 0.69738 0.64215 0.40194 0.0
H601 H 0.60899 0.52029 0.49912 0.0
H602 H 0.62468 0.61862 0.4598 0.0
H603 H 0.69443 0.56138 0.47056 0.0
C604 C 0.72104 0.59031 0.44111 0.0
C605 C 0.72242 0.61319 0.4214 0.0
C606 C 0.62126 0.59707 0.46844 0.0
C607 C 0.67045 0.59108 0.45048 0.0
C608 C 0.5952 0.58618 0.48269 0.0
C609 C 0.59005 0.55822 0.4939 0.0
C610 C 0.64261 0.58009 0.46574 0.0
C611 C 0.61197 0.54192 0.49075 0.0
C612 C 0.69507 0.57903 0.45544 0.0
C613 C 0.6972 0.62433 0.41673 0.0
N614 N 0.63734 0.55313 0.47709 0.0
N615 N 0.67233 0.61332 0.43131 0.0
H616 H 0.2263 0.37347 0.20741 0.0
H617 H 0.13905 0.41415 0.06879 0.0
H618 H 0.25821 0.37238 0.11839 0.0
H619 H 0.10511 0.40726 0.15729 0.0
H620 H 0.18376 0.40104 0.08645 0.0
H621 H 0.18307 0.38878 0.18943 0.0
C622 C 0.22444 0.37687 0.18408 0.0
C623 C 0.24605 0.37176 0.16439 0.0
C624 C 0.16651 0.40234 0.10199 0.0
C625 C 0.1961 0.38875 0.14354 0.0
C626 C 0.14103 0.40991 0.09195 0.0
C627 C 0.1183 0.41178 0.11161 0.0
C628 C 0.16936 0.39675 0.13194 0.0
C629 C 0.12191 0.40573 0.14131 0.0
C630 C 0.19955 0.38533 0.17379 0.0
C631 C 0.24202 0.37587 0.13433 0.0
N632 N 0.14697 0.39858 0.15056 0.0
N633 N 0.21751 0.38411 0.12481 0.0
H634 H 0.56838 0.22122 0.88485 0.0
H635 H 0.58377 0.11856 1.02117 0.0
H636 H 0.63529 0.23901 0.94972 0.0
H637 H 0.52036 0.09588 0.95349 0.0
H638 H 0.60273 0.16262 0.99482 0.0
H639 H 0.55051 0.1753 0.90895 0.0
C640 C 0.57946 0.2155 0.90402 0.0
C641 C 0.60336 0.23435 0.91527 0.0
C642 C 0.58474 0.14801 0.9856 0.0
C643 C 0.58272 0.18166 0.94322 0.0
C644 C 0.57385 0.12272 1.00068 0.0
C645 C 0.55033 0.1033 0.98963 0.0
C646 C 0.57204 0.15427 0.9592 0.0
C647 C 0.53853 0.11009 0.96288 0.0
C648 C 0.56911 0.18927 0.91787 0.0
C649 C 0.61649 0.22565 0.94046 0.0
N650 N 0.54941 0.13502 0.94868 0.0
N651 N 0.606 0.20012 0.95351 0.0
H652 H 0.95832 0.80375 0.4312 0.0
H653 H 0.93521 0.95834 0.48385 0.0
H654 H 0.88666 0.84178 0.40278 0.0
H655 H 0.01747 0.93076 0.48722 0.0
H656 H 0.91524 0.91413 0.45789 0.0
H657 H 0.97879 0.84865 0.45514 0.0
C658 C 0.94693 0.82151 0.42967 0.0
C659 C 0.92056 0.81866 0.41479 0.0
C660 C 0.93769 0.91785 0.46423 0.0
C661 C 0.94377 0.87022 0.44301 0.0
C662 C 0.9491 0.94306 0.47912 0.0
C663 C 0.97812 0.9484 0.48769 0.0
C664 C 0.95528 0.89758 0.45821 0.0
C665 C 0.99504 0.92772 0.48093 0.0
C666 C 0.95861 0.84716 0.44358 0.0
C667 C 0.9067 0.84252 0.41436 0.0
N668 N 0.98335 0.90323 0.46678 0.0
N669 N 0.91836 0.86714 0.42834 0.0
H670 H 0.28455 0.66316 0.70751 0.0
H671 H 0.37707 0.63384 0.56637 0.0
H672 H 0.26035 0.68067 0.61943 0.0
H673 H 0.40409 0.62737 0.65586 0.0
H674 H 0.33107 0.64474 0.58441 0.0
H675 H 0.32448 0.64242 0.68793 0.0
C676 C 0.28743 0.66209 0.68395 0.0
C677 C 0.26938 0.67373 0.665 0.0
C678 C 0.34704 0.64083 0.60006 0.0
C679 C 0.3154 0.65065 0.64237 0.0
C680 C 0.37326 0.63458 0.5898 0.0
C681 C 0.39454 0.62996 0.60967 0.0
C682 C 0.34203 0.64225 0.63039 0.0
C683 C 0.38854 0.6313 0.63977 0.0
C684 C 0.31031 0.65044 0.67277 0.0
C685 C 0.27384 0.6718 0.63468 0.0
N686 N 0.3629 0.63736 0.64917 0.0
N687 N 0.29673 0.66083 0.62424 0.0
H688 H 0.77995 0.86037 0.76924 0.0
H689 H 0.84419 0.89515 0.60748 0.0
H690 H 0.74935 0.80817 0.69469 0.0
H691 H 0.86823 0.94697 0.68404 0.0
H692 H 0.81259 0.86019 0.63861 0.0
H693 H 0.81586 0.88935 0.73807 0.0
C694 C 0.78082 0.8551 0.74616 0.0
C695 C 0.76137 0.83224 0.73434 0.0
C696 C 0.82491 0.87918 0.64852 0.0
C697 C 0.80258 0.86539 0.6983 0.0
C698 C 0.84294 0.89903 0.63083 0.0
C699 C 0.85843 0.92414 0.6432 0.0
C700 C 0.8227 0.88451 0.67871 0.0
C701 C 0.85617 0.9282 0.67351 0.0
C702 C 0.8014 0.87158 0.72834 0.0
C703 C 0.76389 0.82581 0.7045 0.0
N704 N 0.8386 0.90869 0.69013 0.0
N705 N 0.78399 0.84255 0.68731 0.0
H706 H 0.74114 0.25307 0.21447 0.0
H707 H 0.70983 0.11911 0.10704 0.0
H708 H 0.80565 0.20506 0.1856 0.0
H709 H 0.64378 0.16141 0.14327 0.0
H710 H 0.74662 0.15648 0.1276 0.0
H711 H 0.70718 0.22651 0.17984 0.0
C712 C 0.7484 0.23745 0.2003 0.0
C713 C 0.77613 0.23096 0.20319 0.0
C714 C 0.72409 0.15778 0.13079 0.0
C715 C 0.73721 0.20009 0.164 0.0
C716 C 0.70308 0.13636 0.11921 0.0
C717 C 0.6737 0.13687 0.12392 0.0
C718 C 0.71569 0.17983 0.14735 0.0
C719 C 0.66618 0.16014 0.13916 0.0
C720 C 0.72891 0.22211 0.18073 0.0
C721 C 0.78428 0.21033 0.18446 0.0
N722 N 0.68705 0.1805 0.15067 0.0
N723 N 0.76478 0.19536 0.16593 0.0
H724 H 0.4293 0.59145 0.31169 0.0
H725 H 0.44725 0.58519 0.48666 0.0
H726 H 0.39452 0.6469 0.37179 0.0
H727 H 0.48371 0.53152 0.42593 0.0
H728 H 0.42684 0.60723 0.44522 0.0
H729 H 0.44829 0.56864 0.35331 0.0
C730 C 0.42545 0.59878 0.33361 0.0
C731 C 0.41011 0.62124 0.33799 0.0
C732 C 0.43924 0.59058 0.44095 0.0
C733 C 0.43227 0.59513 0.38616 0.0
C734 C 0.45089 0.57789 0.46466 0.0
C735 C 0.46731 0.55635 0.45995 0.0
C736 C 0.44394 0.58176 0.41212 0.0
C737 C 0.47125 0.54798 0.4308 0.0
C738 C 0.4365 0.58579 0.35745 0.0
C739 C 0.40644 0.62998 0.3671 0.0
N740 N 0.45973 0.56067 0.40812 0.0
N741 N 0.41735 0.61693 0.38995 0.0
H742 H 0.08221 0.4462 0.81492 0.0
H743 H 0.07831 0.46834 0.98934 0.0
H744 H 0.13818 0.41174 0.87394 0.0
H745 H 0.03367 0.51362 0.92813 0.0
H746 H 0.09919 0.44596 0.94789 0.0
H747 H 0.06261 0.46919 0.85654 0.0
C748 C 0.0903 0.44332 0.83665 0.0
C749 C 0.1119 0.4269 0.84083 0.0
C750 C 0.08491 0.46088 0.94355 0.0
C751 C 0.08955 0.45345 0.88883 0.0
C752 C 0.07295 0.47369 0.96723 0.0
C753 C 0.05416 0.49298 0.96233 0.0
C754 C 0.07789 0.46717 0.91467 0.0
C755 C 0.04806 0.49898 0.9331 0.0
C756 C 0.07921 0.45664 0.86043 0.0
C757 C 0.12178 0.42438 0.86956 0.0
N758 N 0.05975 0.48607 0.9105 0.0
N759 N 0.11047 0.43738 0.89241 0.0
H760 H 0.60523 0.84338 0.96882 0.0
H761 H 0.50053 0.95763 0.96324 0.0
H762 H 0.5631 0.86113 0.88923 0.0
H763 H 0.5737 0.96552 1.0208 0.0
H764 H 0.51528 0.91556 0.94069 0.0
H765 H 0.58477 0.88102 0.99373 0.0
C766 C 0.59115 0.8548 0.95682 0.0
C767 C 0.5858 0.8493 0.92701 0.0
C768 C 0.52802 0.92657 0.95827 0.0
C769 C 0.5626 0.89222 0.95512 0.0
C770 C 0.51966 0.95052 0.97111 0.0
C771 C 0.53611 0.96524 0.99369 0.0
C772 C 0.55255 0.91696 0.9686 0.0
C773 C 0.56063 0.95505 1.00317 0.0
C774 C 0.57975 0.87639 0.97091 0.0
C775 C 0.56775 0.8649 0.91225 0.0
N776 N 0.56802 0.93145 0.99069 0.0
N777 N 0.55677 0.88573 0.92646 0.0
H778 H 0.92648 0.20841 0.4536 0.0
H779 H 1.00651 0.07364 0.44401 0.0
H780 H 0.94626 0.17081 0.37142 0.0
H781 H 0.97063 0.10327 0.52333 0.0
H782 H 0.99108 0.1129 0.41704 0.0
H783 H 0.95003 0.17433 0.47952 0.0
C784 C 0.93618 0.19328 0.44096 0.0
C785 C 0.93419 0.19235 0.4103 0.0
C786 C 0.98673 0.11076 0.44037 0.0
C787 C 0.96079 0.15281 0.43992 0.0
C788 C 0.99554 0.08841 0.45575 0.0
C789 C 0.98954 0.08494 0.48589 0.0
C790 C 0.97218 0.12986 0.45537 0.0
C791 C 0.97538 0.10479 0.50004 0.0
C792 C 0.94941 0.17362 0.4558 0.0
C793 C 0.94689 0.17197 0.39512 0.0
N794 N 0.96718 0.12629 0.48468 0.0
N795 N 0.9595 0.15287 0.41009 0.0
H796 H 0.22563 0.65403 0.10612 0.0
H797 H 0.08728 0.52815 0.10144 0.0
H798 H 0.20991 0.58402 0.16776 0.0
H799 H 0.10347 0.59604 0.03736 0.0
H800 H 0.13225 0.54836 0.12555 0.0
H801 H 0.1815 0.63325 0.08046 0.0
C802 C 0.21307 0.63419 0.11421 0.0
C803 C 0.22176 0.6208 0.13925 0.0
C804 C 0.12606 0.55888 0.10621 0.0
C805 C 0.17068 0.59698 0.10993 0.0
C806 C 0.10026 0.54734 0.09235 0.0
C807 C 0.09133 0.56044 0.06728 0.0
C808 C 0.14331 0.58386 0.09511 0.0
C809 C 0.10938 0.58517 0.05659 0.0
C810 C 0.18771 0.62241 0.09957 0.0
C811 C 0.20407 0.59539 0.14886 0.0
N812 N 0.13441 0.59611 0.0706 0.0
N813 N 0.1795 0.58436 0.13422 0.0
H814 H 0.29844 0.39097 0.60875 0.0
H815 H 0.42929 0.52368 0.59467 0.0
H816 H 0.30776 0.46611 0.66337 0.0
H817 H 0.41994 0.45058 0.5371 0.0
H818 H 0.38404 0.50318 0.61886 0.0
H819 H 0.34202 0.41243 0.58155 0.0
C820 C 0.30966 0.41194 0.61512 0.0
C821 C 0.29937 0.42665 0.63858 0.0
C822 C 0.39176 0.49157 0.6009 0.0
C823 C 0.3493 0.45151 0.6072 0.0
C824 C 0.41773 0.50326 0.58703 0.0
C825 C 0.42869 0.48874 0.56386 0.0
C826 C 0.37642 0.465 0.59177 0.0
C827 C 0.41239 0.46253 0.55486 0.0
C828 C 0.33448 0.42426 0.59942 0.0
C829 C 0.31462 0.45402 0.64536 0.0
N830 N 0.38717 0.45141 0.56894 0.0
N831 N 0.3388 0.46545 0.62987 0.0
H832 H 0.79877 0.73651 0.94789 0.0
H833 H 0.88872 0.61107 0.93746 0.0
H834 H 0.76212 0.65149 0.91847 0.0
H835 H 0.91489 0.68514 0.99198 0.0
H836 H 0.84279 0.62648 0.92878 0.0
H837 H 0.84155 0.71882 0.96394 0.0
C838 C 0.7994 0.71402 0.94526 0.0
C839 C 0.77676 0.69554 0.93153 0.0
C840 C 0.85848 0.63931 0.94278 0.0
C841 C 0.82618 0.67538 0.94919 0.0
C842 C 0.88478 0.63065 0.94753 0.0
C843 C 0.90567 0.64702 0.96525 0.0
C844 C 0.85315 0.66474 0.95552 0.0
C845 C 0.8993 0.67194 0.97818 0.0
C846 C 0.82399 0.704 0.95426 0.0
C847 C 0.77922 0.66671 0.92832 0.0
N848 N 0.87368 0.68022 0.97283 0.0
N849 N 0.8036 0.65761 0.93676 0.0
H850 H 0.38049 0.82589 0.1239 0.0
H851 H 0.51288 0.95735 0.11328 0.0
H852 H 0.45338 0.83602 0.18187 0.0
H853 H 0.43261 0.9556 0.06801 0.0
H854 H 0.49206 0.91249 0.13758 0.0
H855 H 0.39982 0.87247 0.1021 0.0
C856 C 0.40062 0.83786 0.13203 0.0
C857 C 0.41538 0.82682 0.15472 0.0
C858 C 0.47892 0.92197 0.12247 0.0
C859 C 0.43767 0.8805 0.12977 0.0
C860 C 0.49081 0.94765 0.1085 0.0
C861 C 0.47453 0.96044 0.08848 0.0
C862 C 0.45054 0.9086 0.11624 0.0
C863 C 0.446 0.94671 0.08333 0.0
C864 C 0.41156 0.86459 0.11966 0.0
C865 C 0.44114 0.84365 0.16459 0.0
N866 N 0.43502 0.9215 0.09693 0.0
N867 N 0.45154 0.86948 0.15194 0.0
H868 H 0.13967 0.22675 0.62309 0.0
H869 H 0.01668 0.08624 0.61873 0.0
H870 H 0.06822 0.21181 0.68448 0.0
H871 H 0.08309 0.10808 0.55243 0.0
H872 H 0.03593 0.13075 0.64451 0.0
H873 H 0.11999 0.18213 0.5984 0.0
C874 C 0.1199 0.21398 0.63153 0.0
C875 C 0.10573 0.22303 0.65609 0.0
C876 C 0.04627 0.12575 0.62433 0.0
C877 C 0.08278 0.17171 0.62758 0.0
C878 C 0.03535 0.10028 0.60962 0.0
C879 C 0.04825 0.09329 0.58332 0.0
C880 C 0.07038 0.14435 0.61276 0.0
C881 C 0.07234 0.11246 0.57258 0.0
C882 C 0.10855 0.18853 0.61727 0.0
C883 C 0.07981 0.20579 0.66555 0.0
N884 N 0.08259 0.13699 0.58732 0.0
N885 N 0.06924 0.18091 0.65137 0.0
H886 H 0.76104 0.39131 0.41104 0.0
H887 H 0.60486 0.36129 0.48766 0.0
H888 H 0.71753 0.30679 0.43606 0.0
H889 H 0.63758 0.43664 0.43657 0.0
H890 H 0.64959 0.34334 0.47707 0.0
H891 H 0.71941 0.4106 0.42872 0.0
C892 C 0.74282 0.37678 0.42033 0.0
C893 C 0.74275 0.34728 0.42166 0.0
C894 C 0.64696 0.36384 0.46829 0.0
C895 C 0.69511 0.36939 0.44234 0.0
C896 C 0.62155 0.37411 0.47441 0.0
C897 C 0.61748 0.40034 0.46273 0.0
C898 C 0.66855 0.38015 0.45076 0.0
C899 C 0.63971 0.41611 0.44562 0.0
C900 C 0.71909 0.38785 0.4305 0.0
C901 C 0.71874 0.32968 0.43471 0.0
N902 N 0.66428 0.40579 0.44016 0.0
N903 N 0.69582 0.34098 0.44438 0.0
loop_
_geom_bond_atom_site_label_1
_geom_bond_atom_site_label_2
_geom_bond_distance
_geom_bond_site_symmetry_2
_ccdc_geom_bond_type
C0 C1 1.386 . S
C0 C2 1.397 . S
C0 H24 0.931 . S
C1 C0 1.386 . S
C1 C5 1.397 . S
C2 C0 1.397 . S
C2 C3 1.384 . S
C2 H25 0.930 . S
C3 C2 1.384 . S
C3 C4 1.377 . S
C3 C6 1.481 . S
C4 C3 1.377 . S
C4 C5 1.389 . S
C4 H26 0.929 . S
C5 C1 1.397 . S
C5 C4 1.389 . S
C5 H27 0.931 . S
C6 C3 1.481 . S
C6 C7 1.387 . S
C6 C11 1.390 . S
C7 C6 1.387 . S
C7 C8 1.401 . S
C7 H28 0.930 . S
C8 C7 1.401 . S
C8 C9 1.376 . S
C8 C17 1.511 . S
C9 C8 1.376 . S
C9 C10 1.392 . S
C9 H30 0.931 . S
C10 C9 1.392 . S
C10 C11 1.361 . S
C10 C12 1.500 . S
C11 C6 1.390 . S
C11 C10 1.361 . S
C11 H29 0.931 . S
C12 C10 1.500 . S
C12 C13 1.371 . S
C12 C14 1.365 . S
C13 C12 1.371 . S
C13 C23 1.386 . S
C13 H31 0.931 . S
C14 C12 1.365 . S
C14 C15 1.409 . S
C14 H32 0.929 . S
C15 C14 1.409 . S
C15 C16 1.380 . S
C15 H33 0.930 . S
C16 C15 1.380 . S
C16 C23 1.357 . S
C17 C8 1.511 . S
C17 C18 1.341 . S
C17 C19 1.371 . S
C18 C17 1.341 . S
C18 C22 1.394 . S
C18 H34 0.930 . S
C19 C17 1.371 . S
C19 C20 1.392 . S
C19 H35 0.931 . S
C20 C19 1.392 . S
C20 C21 1.331 . S
C20 H38 0.932 . S
C21 C20 1.331 . S
C21 C22 1.336 . S
C22 C18 1.394 . S
C22 C21 1.336 . S
C22 H37 0.929 . S
C23 C13 1.386 . S
C23 C16 1.357 . S
C23 H36 0.928 . S
H24 C0 0.931 . S
H25 C2 0.930 . S
H26 C4 0.929 . S
H27 C5 0.931 . S
H28 C7 0.930 . S
H29 C11 0.931 . S
H30 C9 0.931 . S
H31 C13 0.931 . S
H32 C14 0.929 . S
H33 C15 0.930 . S
H34 C18 0.930 . S
H35 C19 0.931 . S
H36 C23 0.928 . S
H37 C22 0.929 . S
H38 C20 0.932 . S
C39 C40 1.386 . S
C39 C41 1.397 . S
C39 H63 0.931 . S
C40 C39 1.386 . S
C40 C44 1.397 . S
C41 C39 1.397 . S
C41 C42 1.384 . S
C41 H64 0.930 . S
C42 C41 1.384 . S
C42 C43 1.377 . S
C42 C45 1.481 . S
C43 C42 1.377 . S
C43 C44 1.389 . S
C43 H65 0.929 . S
C44 C40 1.397 . S
C44 C43 1.389 . S
C44 H66 0.931 . S
C45 C42 1.481 . S
C45 C46 1.387 . S
C45 C50 1.390 . S
C46 C45 1.387 . S
C46 C47 1.401 . S
C46 H67 0.930 . S
C47 C46 1.401 . S
C47 C48 1.376 . S
C47 C56 1.511 . S
C48 C47 1.376 . S
C48 C49 1.392 . S
C48 H69 0.931 . S
C49 C48 1.392 . S
C49 C50 1.361 . S
C49 C51 1.500 . S
C50 C45 1.390 . S
C50 C49 1.361 . S
C50 H68 0.931 . S
C51 C49 1.500 . S
C51 C52 1.371 . S
C51 C53 1.365 . S
C52 C51 1.371 . S
C52 C62 1.386 . S
C52 H70 0.931 . S
C53 C51 1.365 . S
C53 C54 1.409 . S
C53 H71 0.929 . S
C54 C53 1.409 . S
C54 C55 1.380 . S
C54 H72 0.930 . S
C55 C54 1.380 . S
C55 C62 1.357 . S
C56 C47 1.511 . S
C56 C57 1.341 . S
C56 C58 1.371 . S
C57 C56 1.341 . S
C57 C61 1.394 . S
C57 H73 0.930 . S
C58 C56 1.371 . S
C58 C59 1.392 . S
C58 H74 0.931 . S
C59 C58 1.392 . S
C59 C60 1.331 . S
C59 H77 0.932 . S
C60 C59 1.331 . S
C60 C61 1.336 . S
C61 C57 1.394 . S
C61 C60 1.336 . S
C61 H76 0.929 . S
C62 C52 1.386 . S
C62 C55 1.357 . S
C62 H75 0.928 . S
H63 C39 0.931 . S
H64 C41 0.930 . S
H65 C43 0.929 . S
H66 C44 0.931 . S
H67 C46 0.930 . S
H68 C50 0.931 . S
H69 C48 0.931 . S
H70 C52 0.931 . S
H71 C53 0.929 . S
H72 C54 0.930 . S
H73 C57 0.930 . S
H74 C58 0.931 . S
H75 C62 0.928 . S
H76 C61 0.929 . S
H77 C59 0.932 . S
C78 C79 1.386 . S
C78 C80 1.397 . S
C78 H102 0.931 . S
C79 C78 1.386 . S
C79 C83 1.397 . S
C80 C78 1.397 . S
C80 C81 1.384 . S
C80 H103 0.930 . S
C81 C80 1.384 . S
C81 C82 1.377 . S
C81 C84 1.481 . S
C82 C81 1.377 . S
C82 C83 1.389 . S
C82 H104 0.929 . S
C83 C79 1.397 . S
C83 C82 1.389 . S
C83 H105 0.931 . S
C84 C81 1.481 . S
C84 C85 1.387 . S
C84 C89 1.390 . S
C85 C84 1.387 . S
C85 C86 1.401 . S
C85 H106 0.930 . S
C86 C85 1.401 . S
C86 C87 1.376 . S
C86 C95 1.511 . S
C87 C86 1.376 . S
C87 C88 1.392 . S
C87 H108 0.931 . S
C88 C87 1.392 . S
C88 C89 1.361 . S
C88 C90 1.500 . S
C89 C84 1.390 . S
C89 C88 1.361 . S
C89 H107 0.931 . S
C90 C88 1.500 . S
C90 C91 1.371 . S
C90 C92 1.365 . S
C91 C90 1.371 . S
C91 C101 1.386 . S
C91 H109 0.931 . S
C92 C90 1.365 . S
C92 C93 1.409 . S
C92 H110 0.929 . S
C93 C92 1.409 . S
C93 C94 1.380 . S
C93 H111 0.930 . S
C94 C93 1.380 . S
C94 C101 1.357 . S
C95 C86 1.511 . S
C95 C96 1.341 . S
C95 C97 1.371 . S
C96 C95 1.341 . S
C96 C100 1.394 . S
C96 H112 0.930 . S
C97 C95 1.371 . S
C97 C98 1.392 . S
C97 H113 0.931 . S
C98 C97 1.392 . S
C98 C99 1.331 . S
C98 H116 0.932 . S
C99 C98 1.331 . S
C99 C100 1.336 . S
C100 C96 1.394 . S
C100 C99 1.336 . S
C100 H115 0.929 . S
C101 C91 1.386 . S
C101 C94 1.357 . S
C101 H114 0.928 . S
H102 C78 0.931 . S
H103 C80 0.930 . S
H104 C82 0.929 . S
H105 C83 0.931 . S
H106 C85 0.930 . S
H107 C89 0.931 . S
H108 C87 0.931 . S
H109 C91 0.931 . S
H110 C92 0.929 . S
H111 C93 0.930 . S
H112 C96 0.930 . S
H113 C97 0.931 . S
H114 C101 0.928 . S
H115 C100 0.929 . S
H116 C98 0.932 . S
C117 C118 1.386 . S
C117 C119 1.397 . S
C117 H141 0.931 . S
C118 C117 1.386 . S
C118 C122 1.397 . S
C119 C117 1.397 . S
C119 C120 1.384 . S
C119 H142 0.930 . S
C120 C119 1.384 . S
C120 C121 1.377 . S
C120 C123 1.481 . S
C121 C120 1.377 . S
C121 C122 1.389 . S
C121 H143 0.929 . S
C122 C118 1.397 . S
C122 C121 1.389 . S
C122 H144 0.931 . S
C123 C120 1.481 . S
C123 C124 1.387 . S
C123 C128 1.390 . S
C124 C123 1.387 . S
C124 C125 1.401 . S
C124 H145 0.930 . S
C125 C124 1.401 . S
C125 C126 1.376 . S
C125 C134 1.511 . S
C126 C125 1.376 . S
C126 C127 1.392 . S
C126 H147 0.931 . S
C127 C126 1.392 . S
C127 C128 1.361 . S
C127 C129 1.500 . S
C128 C123 1.390 . S
C128 C127 1.361 . S
C128 H146 0.931 . S
C129 C127 1.500 . S
C129 C130 1.371 . S
C129 C131 1.365 . S
C130 C129 1.371 . S
C130 C140 1.386 . S
C130 H148 0.931 . S
C131 C129 1.365 . S
C131 C132 1.409 . S
C131 H149 0.929 . S
C132 C131 1.409 . S
C132 C133 1.380 . S
C132 H150 0.930 . S
C133 C132 1.380 . S
C133 C140 1.357 . S
C134 C125 1.511 . S
C134 C135 1.341 . S
C134 C136 1.371 . S
C135 C134 1.341 . S
C135 C139 1.394 . S
C135 H151 0.930 . S
C136 C134 1.371 . S
C136 C137 1.392 . S
C136 H152 0.931 . S
C137 C136 1.392 . S
C137 C138 1.331 . S
C137 H155 0.932 . S
C138 C137 1.331 . S
C138 C139 1.336 . S
C139 C135 1.394 . S
C139 C138 1.336 . S
C139 H154 0.929 . S
C140 C130 1.386 . S
C140 C133 1.357 . S
C140 H153 0.928 . S
H141 C117 0.931 . S
H142 C119 0.930 . S
H143 C121 0.929 . S
H144 C122 0.931 . S
H145 C124 0.930 . S
H146 C128 0.931 . S
H147 C126 0.931 . S
H148 C130 0.931 . S
H149 C131 0.929 . S
H150 C132 0.930 . S
H151 C135 0.930 . S
H152 C136 0.931 . S
H153 C140 0.928 . S
H154 C139 0.929 . S
H155 C137 0.932 . S
C156 C157 1.386 . S
C156 C158 1.397 . S
C156 H180 0.931 . S
C157 C156 1.386 . S
C157 C161 1.397 . S
C158 C156 1.397 . S
C158 C159 1.384 . S
C158 H181 0.930 . S
C159 C158 1.384 . S
C159 C160 1.377 . S
C159 C162 1.481 . S
C160 C159 1.377 . S
C160 C161 1.389 . S
C160 H182 0.929 . S
C161 C157 1.397 . S
C161 C160 1.389 . S
C161 H183 0.931 . S
C162 C159 1.481 . S
C162 C163 1.387 . S
C162 C167 1.390 . S
C163 C162 1.387 . S
C163 C164 1.401 . S
C163 H184 0.930 . S
C164 C163 1.401 . S
C164 C165 1.376 . S
C164 C173 1.511 . S
C165 C164 1.376 . S
C165 C166 1.392 . S
C165 H186 0.931 . S
C166 C165 1.392 . S
C166 C167 1.361 . S
C166 C168 1.500 . S
C167 C162 1.390 . S
C167 C166 1.361 . S
C167 H185 0.931 . S
C168 C166 1.500 . S
C168 C169 1.371 . S
C168 C170 1.365 . S
C169 C168 1.371 . S
C169 C179 1.386 . S
C169 H187 0.931 . S
C170 C168 1.365 . S
C170 C171 1.409 . S
C170 H188 0.929 . S
C171 C170 1.409 . S
C171 C172 1.380 . S
C171 H189 0.930 . S
C172 C171 1.380 . S
C172 C179 1.357 . S
C173 C164 1.511 . S
C173 C174 1.341 . S
C173 C175 1.371 . S
C174 C173 1.341 . S
C174 C178 1.394 . S
C174 H190 0.930 . S
C175 C173 1.371 . S
C175 C176 1.392 . S
C175 H191 0.931 . S
C176 C175 1.392 . S
C176 C177 1.331 . S
C176 H194 0.932 . S
C177 C176 1.331 . S
C177 C178 1.336 . S
C178 C174 1.394 . S
C178 C177 1.336 . S
C178 H193 0.929 . S
C179 C169 1.386 . S
C179 C172 1.357 . S
C179 H192 0.928 . S
H180 C156 0.931 . S
H181 C158 0.930 . S
H182 C160 0.929 . S
H183 C161 0.931 . S
H184 C163 0.930 . S
H185 C167 0.931 . S
H186 C165 0.931 . S
H187 C169 0.931 . S
H188 C170 0.929 . S
H189 C171 0.930 . S
H190 C174 0.930 . S
H191 C175 0.931 . S
H192 C179 0.928 . S
H193 C178 0.929 . S
H194 C176 0.932 . S
C195 C196 1.386 . S
C195 C197 1.397 . S
C195 H219 0.931 . S
C196 C195 1.386 . S
C196 C200 1.397 . S
C197 C195 1.397 . S
C197 C198 1.384 . S
C197 H220 0.930 . S
C198 C197 1.384 . S
C198 C199 1.377 . S
C198 C201 1.481 . S
C199 C198 1.377 . S
C199 C200 1.389 . S
C199 H221 0.929 . S
C200 C196 1.397 . S
C200 C199 1.389 . S
C200 H222 0.931 . S
C201 C198 1.481 . S
C201 C202 1.387 . S
C201 C206 1.390 . S
C202 C201 1.387 . S
C202 C203 1.401 . S
C202 H223 0.930 . S
C203 C202 1.401 . S
C203 C204 1.376 . S
C203 C212 1.511 . S
C204 C203 1.376 . S
C204 C205 1.392 . S
C204 H225 0.931 . S
C205 C204 1.392 . S
C205 C206 1.361 . S
C205 C207 1.500 . S
C206 C201 1.390 . S
C206 C205 1.361 . S
C206 H224 0.931 . S
C207 C205 1.500 . S
C207 C208 1.371 . S
C207 C209 1.365 . S
C208 C207 1.371 . S
C208 C218 1.386 . S
C208 H226 0.931 . S
C209 C207 1.365 . S
C209 C210 1.409 . S
C209 H227 0.929 . S
C210 C209 1.409 . S
C210 C211 1.380 . S
C210 H228 0.930 . S
C211 C210 1.380 . S
C211 C218 1.357 . S
C212 C203 1.511 . S
C212 C213 1.341 . S
C212 C214 1.371 . S
C213 C212 1.341 . S
C213 C217 1.394 . S
C213 H229 0.930 . S
C214 C212 1.371 . S
C214 C215 1.392 . S
C214 H230 0.931 . S
C215 C214 1.392 . S
C215 C216 1.331 . S
C215 H233 0.932 . S
C216 C215 1.331 . S
C216 C217 1.336 . S
C217 C213 1.394 . S
C217 C216 1.336 . S
C217 H232 0.929 . S
C218 C208 1.386 . S
C218 C211 1.357 . S
C218 H231 0.928 . S
H219 C195 0.931 . S
H220 C197 0.930 . S
H221 C199 0.929 . S
H222 C200 0.931 . S
H223 C202 0.930 . S
H224 C206 0.931 . S
H225 C204 0.931 . S
H226 C208 0.931 . S
H227 C209 0.929 . S
H228 C210 0.930 . S
H229 C213 0.930 . S
H230 C214 0.931 . S
H231 C218 0.928 . S
H232 C217 0.929 . S
H233 C215 0.932 . S
C234 C235 1.386 . S
C234 C236 1.397 . S
C234 H258 0.931 . S
C235 C234 1.386 . S
C235 C239 1.397 . S
C236 C234 1.397 . S
C236 C237 1.384 . S
C236 H259 0.930 . S
C237 C236 1.384 . S
C237 C238 1.377 . S
C237 C240 1.481 . S
C238 C237 1.377 . S
C238 C239 1.389 . S
C238 H260 0.929 . S
C239 C235 1.397 . S
C239 C238 1.389 . S
C239 H261 0.931 . S
C240 C237 1.481 . S
C240 C241 1.387 . S
C240 C245 1.390 . S
C241 C240 1.387 . S
C241 C242 1.401 . S
C241 H262 0.930 . S
C242 C241 1.401 . S
C242 C243 1.376 . S
C242 C251 1.511 . S
C243 C242 1.376 . S
C243 C244 1.392 . S
C243 H264 0.931 . S
C244 C243 1.392 . S
C244 C245 1.361 . S
C244 C246 1.500 . S
C245 C240 1.390 . S
C245 C244 1.361 . S
C245 H263 0.931 . S
C246 C244 1.500 . S
C246 C247 1.371 . S
C246 C248 1.365 . S
C247 C246 1.371 . S
C247 C257 1.386 . S
C247 H265 0.931 . S
C248 C246 1.365 . S
C248 C249 1.409 . S
C248 H266 0.929 . S
C249 C248 1.409 . S
C249 C250 1.380 . S
C249 H267 0.930 . S
C250 C249 1.380 . S
C250 C257 1.357 . S
C251 C242 1.511 . S
C251 C252 1.341 . S
C251 C253 1.371 . S
C252 C251 1.341 . S
C252 C256 1.394 . S
C252 H268 0.930 . S
C253 C251 1.371 . S
C253 C254 1.392 . S
C253 H269 0.931 . S
C254 C253 1.392 . S
C254 C255 1.331 . S
C254 H272 0.932 . S
C255 C254 1.331 . S
C255 C256 1.336 . S
C256 C252 1.394 . S
C256 C255 1.336 . S
C256 H271 0.929 . S
C257 C247 1.386 . S
C257 C250 1.357 . S
C257 H270 0.928 . S
H258 C234 0.931 . S
H259 C236 0.930 . S
H260 C238 0.929 . S
H261 C239 0.931 . S
H262 C241 0.930 . S
H263 C245 0.931 . S
H264 C243 0.931 . S
H265 C247 0.931 . S
H266 C248 0.929 . S
H267 C249 0.930 . S
H268 C252 0.930 . S
H269 C253 0.931 . S
H270 C257 0.928 . S
H271 C256 0.929 . S
H272 C254 0.932 . S
C273 C274 1.386 . S
C273 C275 1.397 . S
C273 H297 0.931 . S
C274 C273 1.386 . S
C274 C278 1.397 . S
C275 C273 1.397 . S
C275 C276 1.384 . S
C275 H298 0.930 . S
C276 C275 1.384 . S
C276 C277 1.377 . S
C276 C279 1.481 . S
C277 C276 1.377 . S
C277 C278 1.389 . S
C277 H299 0.929 . S
C278 C274 1.397 . S
C278 C277 1.389 . S
C278 H300 0.931 . S
C279 C276 1.481 . S
C279 C280 1.387 . S
C279 C284 1.390 . S
C280 C279 1.387 . S
C280 C281 1.401 . S
C280 H301 0.930 . S
C281 C280 1.401 . S
C281 C282 1.376 . S
C281 C290 1.511 . S
C282 C281 1.376 . S
C282 C283 1.392 . S
C282 H303 0.931 . S
C283 C282 1.392 . S
C283 C284 1.361 . S
C283 C285 1.500 . S
C284 C279 1.390 . S
C284 C283 1.361 . S
C284 H302 0.931 . S
C285 C283 1.500 . S
C285 C286 1.371 . S
C285 C287 1.365 . S
C286 C285 1.371 . S
C286 C296 1.386 . S
C286 H304 0.931 . S
C287 C285 1.365 . S
C287 C288 1.409 . S
C287 H305 0.929 . S
C288 C287 1.409 . S
C288 C289 1.380 . S
C288 H306 0.930 . S
C289 C288 1.380 . S
C289 C296 1.357 . S
C290 C281 1.511 . S
C290 C291 1.341 . S
C290 C292 1.371 . S
C291 C290 1.341 . S
C291 C295 1.394 . S
C291 H307 0.930 . S
C292 C290 1.371 . S
C292 C293 1.392 . S
C292 H308 0.931 . S
C293 C292 1.392 . S
C293 C294 1.331 . S
C293 H311 0.932 . S
C294 C293 1.331 . S
C294 C295 1.336 . S
C295 C291 1.394 . S
C295 C294 1.336 . S
C295 H310 0.929 . S
C296 C286 1.386 . S
C296 C289 1.357 . S
C296 H309 0.928 . S
H297 C273 0.931 . S
H298 C275 0.930 . S
H299 C277 0.929 . S
H300 C278 0.931 . S
H301 C280 0.930 . S
H302 C284 0.931 . S
H303 C282 0.931 . S
H304 C286 0.931 . S
H305 C287 0.929 . S
H306 C288 0.930 . S
H307 C291 0.930 . S
H308 C292 0.931 . S
H309 C296 0.928 . S
H310 C295 0.929 . S
H311 C293 0.932 . S
Tb312 C321 2.764 . S
Tb312 O322 2.325 1_455 S
Tb312 O325 2.303 . S
Tb312 O329 2.322 1_545 S
Tb312 O330 2.349 1_545 S
Tb312 O333 2.415 . S
Tb312 O334 2.399 . S
Tb313 O323 2.343 . S
Tb313 O324 2.373 . S
Tb313 O326 2.390 1_545 S
Tb313 O327 2.396 1_545 S
Tb313 O328 2.308 1_645 S
Tb313 O331 2.285 1_545 S
Tb313 C342 2.748 1_545 S
C314 O330 1.261 1_655 S
C314 O331 1.257 . S
C315 C318 1.358 . S
C315 C319 1.332 . S
C315 C321 1.504 . S
C316 C317 1.373 . S
C316 C320 1.308 . S
C317 C316 1.373 . S
C317 C318 1.429 . S
C317 H344 0.932 . S
C318 C315 1.358 . S
C318 C317 1.429 . S
C318 H345 0.930 . S
C319 C315 1.332 . S
C319 C320 1.394 . S
C319 H346 0.932 . S
C320 C316 1.308 . S
C320 C319 1.394 . S
C320 H347 0.929 . S
C321 Tb312 2.764 . S
C321 C315 1.504 . S
C321 O333 1.239 . S
C321 O334 1.263 . S
O322 Tb312 2.325 1_655 S
O322 C332 1.236 . S
O323 Tb313 2.343 . S
O323 C332 1.257 . S
O324 Tb313 2.373 . S
O324 C335 1.261 1_655 S
O325 Tb312 2.303 . S
O325 C335 1.257 . S
O326 Tb313 2.390 1_565 S
O326 C342 1.239 . S
O327 Tb313 2.396 1_565 S
O327 C342 1.263 . S
O328 Tb313 2.308 1_465 S
O328 C343 1.236 . S
O329 Tb312 2.322 1_565 S
O329 C343 1.257 . S
O330 Tb312 2.349 1_565 S
O330 C314 1.261 1_455 S
O331 Tb313 2.285 1_565 S
O331 C314 1.257 . S
C332 O322 1.236 . S
C332 O323 1.257 . S
O333 Tb312 2.415 . S
O333 C321 1.239 . S
O334 Tb312 2.399 . S
O334 C321 1.263 . S
C335 O324 1.261 1_455 S
C335 O325 1.257 . S
C336 C339 1.358 . S
C336 C340 1.332 . S
C336 C342 1.504 . S
C337 C338 1.373 . S
C337 C341 1.308 . S
C338 C337 1.373 . S
C338 C339 1.429 . S
C338 H348 0.932 . S
C339 C336 1.358 . S
C339 C338 1.429 . S
C339 H349 0.930 . S
C340 C336 1.332 . S
C340 C341 1.394 . S
C340 H350 0.932 . S
C341 C337 1.308 . S
C341 C340 1.394 . S
C341 H351 0.929 . S
C342 Tb313 2.748 1_565 S
C342 O326 1.239 . S
C342 O327 1.263 . S
C342 C336 1.504 . S
C343 O328 1.236 . S
C343 O329 1.257 . S
H344 C317 0.932 . S
H345 C318 0.930 . S
H346 C319 0.932 . S
H347 C320 0.929 . S
H348 C338 0.932 . S
H349 C339 0.930 . S
H350 C340 0.932 . S
H351 C341 0.929 . S
Tb352 C361 2.764 . S
Tb352 O362 2.325 1_554 S
Tb352 O365 2.303 . S
Tb352 O369 2.322 1_545 S
Tb352 O370 2.330 1_544 S
Tb352 O373 2.415 . S
Tb352 O374 2.399 . S
Tb353 O363 2.322 1_565 S
Tb353 O364 2.349 1_566 S
Tb353 O366 2.415 . S
Tb353 O367 2.399 . S
Tb353 O368 2.325 1_556 S
Tb353 O371 2.303 . S
Tb353 C382 2.764 . S
C354 O370 1.286 . S
C354 O371 1.257 . S
C355 C358 1.358 . S
C355 C359 1.332 . S
C355 C361 1.504 . S
C356 C357 1.373 . S
C356 C360 1.308 . S
C357 C356 1.373 . S
C357 C358 1.429 . S
C357 H384 0.932 . S
C358 C355 1.358 . S
C358 C357 1.429 . S
C358 H385 0.930 . S
C359 C355 1.332 . S
C359 C360 1.394 . S
C359 H386 0.932 . S
C360 C356 1.308 . S
C360 C359 1.394 . S
C360 H387 0.929 . S
C361 Tb352 2.764 . S
C361 C355 1.504 . S
C361 O373 1.239 . S
C361 O374 1.263 . S
O362 Tb352 2.325 1_556 S
O362 C372 1.236 . S
O363 Tb353 2.322 1_545 S
O363 C372 1.257 . S
O364 Tb353 2.349 1_544 S
O364 C375 1.261 . S
O365 Tb352 2.303 . S
O365 C375 1.257 . S
O366 Tb353 2.415 . S
O366 C382 1.239 . S
O367 Tb353 2.399 . S
O367 C382 1.263 . S
O368 Tb353 2.325 1_554 S
O368 C383 1.236 . S
O369 Tb352 2.322 1_565 S
O369 C383 1.257 . S
O370 Tb352 2.330 1_566 S
O370 C354 1.286 . S
O371 Tb353 2.303 . S
O371 C354 1.257 . S
C372 O362 1.236 . S
C372 O363 1.257 . S
O373 Tb352 2.415 . S
O373 C361 1.239 . S
O374 Tb352 2.399 . S
O374 C361 1.263 . S
C375 O364 1.261 . S
C375 O365 1.257 . S
C376 C379 1.358 . S
C376 C380 1.332 . S
C376 C382 1.504 . S
C377 C378 1.373 . S
C377 C381 1.308 . S
C378 C377 1.373 . S
C378 C379 1.429 . S
C378 H388 0.932 . S
C379 C376 1.358 . S
C379 C378 1.429 . S
C379 H389 0.930 . S
C380 C376 1.332 . S
C380 C381 1.394 . S
C380 H390 0.932 . S
C381 C377 1.308 . S
C381 C380 1.394 . S
C381 H391 0.929 . S
C382 Tb353 2.764 . S
C382 O366 1.239 . S
C382 O367 1.263 . S
C382 C376 1.504 . S
C383 O368 1.236 . S
C383 O369 1.257 . S
H384 C357 0.932 . S
H385 C358 0.930 . S
H386 C359 0.932 . S
H387 C360 0.929 . S
H388 C378 0.932 . S
H389 C379 0.930 . S
H390 C380 0.932 . S
H391 C381 0.929 . S
Tb392 C401 2.764 . S
Tb392 O402 2.325 . S
Tb392 O405 2.303 . S
Tb392 O409 2.322 . S
Tb392 O410 2.349 . S
Tb392 O413 2.415 . S
Tb392 O414 2.399 . S
Tb393 O403 2.322 . S
Tb393 O404 2.349 . S
Tb393 O406 2.415 . S
Tb393 O407 2.399 . S
Tb393 O408 2.325 . S
Tb393 O411 2.303 . S
Tb393 C422 2.764 . S
C394 O410 1.261 . S
C394 O411 1.257 . S
C395 C398 1.358 . S
C395 C399 1.332 . S
C395 C401 1.504 . S
C396 C397 1.373 . S
C396 C400 1.308 . S
C397 C396 1.373 . S
C397 C398 1.429 . S
C397 H424 0.932 . S
C398 C395 1.358 . S
C398 C397 1.429 . S
C398 H425 0.930 . S
C399 C395 1.332 . S
C399 C400 1.394 . S
C399 H426 0.932 . S
C400 C396 1.308 . S
C400 C399 1.394 . S
C400 H427 0.929 . S
C401 Tb392 2.764 . S
C401 C395 1.504 . S
C401 O413 1.239 . S
C401 O414 1.263 . S
O402 Tb392 2.325 . S
O402 C412 1.236 . S
O403 Tb393 2.322 . S
O403 C412 1.257 . S
O404 Tb393 2.349 . S
O404 C415 1.261 . S
O405 Tb392 2.303 . S
O405 C415 1.257 . S
O406 Tb393 2.415 . S
O406 C422 1.239 . S
O407 Tb393 2.399 . S
O407 C422 1.263 . S
O408 Tb393 2.325 . S
O408 C423 1.236 . S
O409 Tb392 2.322 . S
O409 C423 1.257 . S
O410 Tb392 2.349 . S
O410 C394 1.261 . S
O411 Tb393 2.303 . S
O411 C394 1.257 . S
C412 O402 1.236 . S
C412 O403 1.257 . S
O413 Tb392 2.415 . S
O413 C401 1.239 . S
O414 Tb392 2.399 . S
O414 C401 1.263 . S
C415 O404 1.261 . S
C415 O405 1.257 . S
C416 C419 1.358 . S
C416 C420 1.332 . S
C416 C422 1.504 . S
C417 C418 1.373 . S
C417 C421 1.308 . S
C418 C417 1.373 . S
C418 C419 1.429 . S
C418 H428 0.932 . S
C419 C416 1.358 . S
C419 C418 1.429 . S
C419 H429 0.930 . S
C420 C416 1.332 . S
C420 C421 1.394 . S
C420 H430 0.932 . S
C421 C417 1.308 . S
C421 C420 1.394 . S
C421 H431 0.929 . S
C422 Tb393 2.764 . S
C422 O406 1.239 . S
C422 O407 1.263 . S
C422 C416 1.504 . S
C423 O408 1.236 . S
C423 O409 1.257 . S
H424 C397 0.932 . S
H425 C398 0.930 . S
H426 C399 0.932 . S
H427 C400 0.929 . S
H428 C418 0.932 . S
H429 C419 0.930 . S
H430 C420 0.932 . S
H431 C421 0.929 . S
Tb432 C441 2.764 . S
Tb432 O442 2.325 . S
Tb432 O445 2.303 1_556 S
Tb432 O449 2.323 1_655 S
Tb432 O450 2.349 1_655 S
Tb432 O453 2.415 . S
Tb432 O454 2.399 . S
Tb433 O443 2.322 1_455 S
Tb433 O444 2.349 1_455 S
Tb433 O446 2.415 . S
Tb433 O447 2.399 . S
Tb433 O448 2.325 . S
Tb433 O451 2.303 1_554 S
Tb433 C462 2.764 . S
C434 O450 1.261 . S
C434 O451 1.257 . S
C435 C438 1.358 . S
C435 C439 1.332 . S
C435 C441 1.504 . S
C436 C437 1.373 . S
C436 C440 1.308 . S
C437 C436 1.373 . S
C437 C438 1.429 . S
C437 H464 0.932 . S
C438 C435 1.358 . S
C438 C437 1.429 . S
C438 H465 0.930 . S
C439 C435 1.332 . S
C439 C440 1.394 . S
C439 H466 0.932 . S
C440 C436 1.308 . S
C440 C439 1.394 . S
C440 H467 0.929 . S
C441 Tb432 2.764 . S
C441 C435 1.504 . S
C441 O453 1.239 . S
C441 O454 1.263 . S
O442 Tb432 2.325 . S
O442 C452 1.236 . S
O443 Tb433 2.322 1_655 S
O443 C452 1.257 1_554 S
O444 Tb433 2.349 1_655 S
O444 C455 1.261 . S
O445 Tb432 2.303 1_554 S
O445 C455 1.257 . S
O446 Tb433 2.415 . S
O446 C462 1.239 . S
O447 Tb433 2.399 . S
O447 C462 1.263 . S
O448 Tb433 2.325 . S
O448 C463 1.236 . S
O449 Tb432 2.323 1_455 S
O449 C463 1.256 1_556 S
O450 Tb432 2.349 1_455 S
O450 C434 1.261 . S
O451 Tb433 2.303 1_556 S
O451 C434 1.257 . S
C452 O442 1.236 . S
C452 O443 1.257 1_556 S
O453 Tb432 2.415 . S
O453 C441 1.239 . S
O454 Tb432 2.399 . S
O454 C441 1.263 . S
C455 O444 1.261 . S
C455 O445 1.257 . S
C456 C459 1.358 . S
C456 C460 1.332 . S
C456 C462 1.504 . S
C457 C458 1.373 . S
C457 C461 1.308 . S
C458 C457 1.373 . S
C458 C459 1.429 . S
C458 H468 0.932 . S
C459 C456 1.358 . S
C459 C458 1.429 . S
C459 H469 0.930 . S
C460 C456 1.332 . S
C460 C461 1.394 . S
C460 H470 0.932 . S
C461 C457 1.308 . S
C461 C460 1.394 . S
C461 H471 0.929 . S
C462 Tb433 2.764 . S
C462 O446 1.239 . S
C462 O447 1.263 . S
C462 C456 1.504 . S
C463 O448 1.236 . S
C463 O449 1.256 1_554 S
H464 C437 0.932 . S
H465 C438 0.930 . S
H466 C439 0.932 . S
H467 C440 0.929 . S
H468 C458 0.932 . S
H469 C459 0.930 . S
H470 C460 0.932 . S
H471 C461 0.929 . S
H472 C478 0.930 . S
H473 C482 0.930 . S
H474 C487 0.929 . S
H475 C485 0.929 . S
H476 C480 0.929 . S
H477 C486 0.929 . S
C478 H472 0.930 . S
C478 C479 1.367 . S
C478 C486 1.378 . S
C479 C478 1.367 . S
C479 C487 1.433 . S
C480 H476 0.929 . S
C480 C482 1.378 . S
C480 C484 1.350 . S
C481 C484 1.463 . S
C481 C486 1.350 . S
C481 N489 1.427 . S
C482 H473 0.930 . S
C482 C480 1.378 . S
C482 C483 1.367 . S
C483 C482 1.367 . S
C483 C485 1.433 . S
C484 C480 1.350 . S
C484 C481 1.463 . S
C484 N488 1.427 . S
C485 H475 0.929 . S
C485 C483 1.433 . S
C485 N488 1.384 . S
C486 H477 0.929 . S
C486 C478 1.378 . S
C486 C481 1.350 . S
C487 H474 0.929 . S
C487 C479 1.433 . S
C487 N489 1.384 . S
N488 C484 1.427 . S
N488 C485 1.384 . S
N489 C481 1.427 . S
N489 C487 1.384 . S
H490 C496 0.930 . S
H491 C500 0.930 . S
H492 C505 0.929 . S
H493 C503 0.929 . S
H494 C498 0.929 . S
H495 C504 0.929 . S
C496 H490 0.930 . S
C496 C497 1.367 . S
C496 C504 1.378 . S
C497 C496 1.367 . S
C497 C505 1.433 . S
C498 H494 0.929 . S
C498 C500 1.378 . S
C498 C502 1.350 . S
C499 C502 1.463 . S
C499 C504 1.350 . S
C499 N507 1.427 . S
C500 H491 0.930 . S
C500 C498 1.378 . S
C500 C501 1.367 . S
C501 C500 1.367 . S
C501 C503 1.433 . S
C502 C498 1.350 . S
C502 C499 1.463 . S
C502 N506 1.427 . S
C503 H493 0.929 . S
C503 C501 1.433 . S
C503 N506 1.384 . S
C504 H495 0.929 . S
C504 C496 1.378 . S
C504 C499 1.350 . S
C505 H492 0.929 . S
C505 C497 1.433 . S
C505 N507 1.384 . S
N506 C502 1.427 . S
N506 C503 1.384 . S
N507 C499 1.427 . S
N507 C505 1.384 . S
H508 C514 0.930 . S
H509 C518 0.930 . S
H510 C523 0.929 . S
H511 C521 0.929 . S
H512 C516 0.929 . S
H513 C522 0.929 . S
C514 H508 0.930 . S
C514 C515 1.367 . S
C514 C522 1.378 . S
C515 C514 1.367 . S
C515 C523 1.433 . S
C516 H512 0.929 . S
C516 C518 1.378 . S
C516 C520 1.350 . S
C517 C520 1.463 . S
C517 C522 1.350 . S
C517 N525 1.427 . S
C518 H509 0.930 . S
C518 C516 1.378 . S
C518 C519 1.367 . S
C519 C518 1.367 . S
C519 C521 1.433 . S
C520 C516 1.350 . S
C520 C517 1.463 . S
C520 N524 1.427 . S
C521 H511 0.929 . S
C521 C519 1.433 . S
C521 N524 1.384 . S
C522 H513 0.929 . S
C522 C514 1.378 . S
C522 C517 1.350 . S
C523 H510 0.929 . S
C523 C515 1.433 . S
C523 N525 1.384 . S
N524 C520 1.427 . S
N524 C521 1.384 . S
N525 C517 1.427 . S
N525 C523 1.384 . S
H526 C532 0.930 . S
H527 C536 0.930 . S
H528 C541 0.929 . S
H529 C539 0.929 . S
H530 C534 0.929 . S
H531 C540 0.929 . S
C532 H526 0.930 . S
C532 C533 1.367 . S
C532 C540 1.378 . S
C533 C532 1.367 . S
C533 C541 1.433 . S
C534 H530 0.929 . S
C534 C536 1.378 . S
C534 C538 1.350 . S
C535 C538 1.463 . S
C535 C540 1.350 . S
C535 N543 1.427 . S
C536 H527 0.930 . S
C536 C534 1.378 . S
C536 C537 1.367 . S
C537 C536 1.367 . S
C537 C539 1.433 . S
C538 C534 1.350 . S
C538 C535 1.463 . S
C538 N542 1.427 . S
C539 H529 0.929 . S
C539 C537 1.433 . S
C539 N542 1.384 . S
C540 H531 0.929 . S
C540 C532 1.378 . S
C540 C535 1.350 . S
C541 H528 0.929 . S
C541 C533 1.433 . S
C541 N543 1.384 . S
N542 C538 1.427 . S
N542 C539 1.384 . S
N543 C535 1.427 . S
N543 C541 1.384 . S
H544 C550 0.930 . S
H545 C554 0.930 . S
H546 C559 0.929 . S
H547 C557 0.929 . S
H548 C552 0.929 . S
H549 C558 0.929 . S
C550 H544 0.930 . S
C550 C551 1.367 . S
C550 C558 1.378 . S
C551 C550 1.367 . S
C551 C559 1.433 . S
C552 H548 0.929 . S
C552 C554 1.378 . S
C552 C556 1.350 . S
C553 C556 1.463 . S
C553 C558 1.350 . S
C553 N561 1.427 . S
C554 H545 0.930 . S
C554 C552 1.378 . S
C554 C555 1.367 . S
C555 C554 1.367 . S
C555 C557 1.433 . S
C556 C552 1.350 . S
C556 C553 1.463 . S
C556 N560 1.427 . S
C557 H547 0.929 . S
C557 C555 1.433 . S
C557 N560 1.384 . S
C558 H549 0.929 . S
C558 C550 1.378 . S
C558 C553 1.350 . S
C559 H546 0.929 . S
C559 C551 1.433 . S
C559 N561 1.384 . S
N560 C556 1.427 . S
N560 C557 1.384 . S
N561 C553 1.427 . S
N561 C559 1.384 . S
H562 C568 0.930 . S
H563 C572 0.930 . S
H564 C577 0.929 . S
H565 C575 0.929 . S
H566 C570 0.929 . S
H567 C576 0.929 . S
C568 H562 0.930 . S
C568 C569 1.367 . S
C568 C576 1.378 . S
C569 C568 1.367 . S
C569 C577 1.433 . S
C570 H566 0.929 . S
C570 C572 1.378 . S
C570 C574 1.350 . S
C571 C574 1.463 . S
C571 C576 1.350 . S
C571 N579 1.427 . S
C572 H563 0.930 . S
C572 C570 1.378 . S
C572 C573 1.367 . S
C573 C572 1.367 . S
C573 C575 1.433 . S
C574 C570 1.350 . S
C574 C571 1.463 . S
C574 N578 1.427 . S
C575 H565 0.929 . S
C575 C573 1.433 . S
C575 N578 1.384 . S
C576 H567 0.929 . S
C576 C568 1.378 . S
C576 C571 1.350 . S
C577 H564 0.929 . S
C577 C569 1.433 . S
C577 N579 1.384 . S
N578 C574 1.427 . S
N578 C575 1.384 . S
N579 C571 1.427 . S
N579 C577 1.384 . S
H580 C586 0.930 . S
H581 C590 0.930 . S
H582 C595 0.929 . S
H583 C593 0.929 . S
H584 C588 0.929 . S
H585 C594 0.929 . S
C586 H580 0.930 . S
C586 C587 1.367 . S
C586 C594 1.378 . S
C587 C586 1.367 . S
C587 C595 1.433 . S
C588 H584 0.929 . S
C588 C590 1.378 . S
C588 C592 1.350 . S
C589 C592 1.463 . S
C589 C594 1.350 . S
C589 N597 1.427 . S
C590 H581 0.930 . S
C590 C588 1.378 . S
C590 C591 1.367 . S
C591 C590 1.367 . S
C591 C593 1.433 . S
C592 C588 1.350 . S
C592 C589 1.463 . S
C592 N596 1.427 . S
C593 H583 0.929 . S
C593 C591 1.433 . S
C593 N596 1.384 . S
C594 H585 0.929 . S
C594 C586 1.378 . S
C594 C589 1.350 . S
C595 H582 0.929 . S
C595 C587 1.433 . S
C595 N597 1.384 . S
N596 C592 1.427 . S
N596 C593 1.384 . S
N597 C589 1.427 . S
N597 C595 1.384 . S
H598 C604 0.930 . S
H599 C608 0.930 . S
H600 C613 0.929 . S
H601 C611 0.929 . S
H602 C606 0.929 . S
H603 C612 0.929 . S
C604 H598 0.930 . S
C604 C605 1.367 . S
C604 C612 1.378 . S
C605 C604 1.367 . S
C605 C613 1.433 . S
C606 H602 0.929 . S
C606 C608 1.378 . S
C606 C610 1.350 . S
C607 C610 1.463 . S
C607 C612 1.350 . S
C607 N615 1.427 . S
C608 H599 0.930 . S
C608 C606 1.378 . S
C608 C609 1.367 . S
C609 C608 1.367 . S
C609 C611 1.433 . S
C610 C606 1.350 . S
C610 C607 1.463 . S
C610 N614 1.427 . S
C611 H601 0.929 . S
C611 C609 1.433 . S
C611 N614 1.384 . S
C612 H603 0.929 . S
C612 C604 1.378 . S
C612 C607 1.350 . S
C613 H600 0.929 . S
C613 C605 1.433 . S
C613 N615 1.384 . S
N614 C610 1.427 . S
N614 C611 1.384 . S
N615 C607 1.427 . S
N615 C613 1.384 . S
H616 C622 0.930 . S
H617 C626 0.930 . S
H618 C631 0.929 . S
H619 C629 0.929 . S
H620 C624 0.929 . S
H621 C630 0.929 . S
C622 H616 0.930 . S
C622 C623 1.367 . S
C622 C630 1.378 . S
C623 C622 1.367 . S
C623 C631 1.433 . S
C624 H620 0.929 . S
C624 C626 1.378 . S
C624 C628 1.350 . S
C625 C628 1.463 . S
C625 C630 1.350 . S
C625 N633 1.427 . S
C626 H617 0.930 . S
C626 C624 1.378 . S
C626 C627 1.367 . S
C627 C626 1.367 . S
C627 C629 1.433 . S
C628 C624 1.350 . S
C628 C625 1.463 . S
C628 N632 1.427 . S
C629 H619 0.929 . S
C629 C627 1.433 . S
C629 N632 1.384 . S
C630 H621 0.929 . S
C630 C622 1.378 . S
C630 C625 1.350 . S
C631 H618 0.929 . S
C631 C623 1.433 . S
C631 N633 1.384 . S
N632 C628 1.427 . S
N632 C629 1.384 . S
N633 C625 1.427 . S
N633 C631 1.384 . S
H634 C640 0.930 . S
H635 C644 0.930 . S
H636 C649 0.929 . S
H637 C647 0.929 . S
H638 C642 0.929 . S
H639 C648 0.929 . S
C640 H634 0.930 . S
C640 C641 1.367 . S
C640 C648 1.378 . S
C641 C640 1.367 . S
C641 C649 1.433 . S
C642 H638 0.929 . S
C642 C644 1.378 . S
C642 C646 1.350 . S
C643 C646 1.463 . S
C643 C648 1.350 . S
C643 N651 1.427 . S
C644 H635 0.930 . S
C644 C642 1.378 . S
C644 C645 1.367 . S
C645 C644 1.367 . S
C645 C647 1.433 . S
C646 C642 1.350 . S
C646 C643 1.463 . S
C646 N650 1.427 . S
C647 H637 0.929 . S
C647 C645 1.433 . S
C647 N650 1.384 . S
C648 H639 0.929 . S
C648 C640 1.378 . S
C648 C643 1.350 . S
C649 H636 0.929 . S
C649 C641 1.433 . S
C649 N651 1.384 . S
N650 C646 1.427 . S
N650 C647 1.384 . S
N651 C643 1.427 . S
N651 C649 1.384 . S
H652 C658 0.930 . S
H653 C662 0.930 . S
H654 C667 0.929 . S
H655 C665 0.929 1_455 S
H656 C660 0.929 . S
H657 C666 0.929 . S
C658 H652 0.930 . S
C658 C659 1.367 . S
C658 C666 1.378 . S
C659 C658 1.367 . S
C659 C667 1.433 . S
C660 H656 0.929 . S
C660 C662 1.378 . S
C660 C664 1.350 . S
C661 C664 1.463 . S
C661 C666 1.350 . S
C661 N669 1.427 . S
C662 H653 0.930 . S
C662 C660 1.378 . S
C662 C663 1.367 . S
C663 C662 1.367 . S
C663 C665 1.433 . S
C664 C660 1.350 . S
C664 C661 1.463 . S
C664 N668 1.427 . S
C665 H655 0.929 1_655 S
C665 C663 1.433 . S
C665 N668 1.384 . S
C666 H657 0.929 . S
C666 C658 1.378 . S
C666 C661 1.350 . S
C667 H654 0.929 . S
C667 C659 1.433 . S
C667 N669 1.384 . S
N668 C664 1.427 . S
N668 C665 1.384 . S
N669 C661 1.427 . S
N669 C667 1.384 . S
H670 C676 0.930 . S
H671 C680 0.930 . S
H672 C685 0.929 . S
H673 C683 0.929 . S
H674 C678 0.929 . S
H675 C684 0.929 . S
C676 H670 0.930 . S
C676 C677 1.367 . S
C676 C684 1.378 . S
C677 C676 1.367 . S
C677 C685 1.433 . S
C678 H674 0.929 . S
C678 C680 1.378 . S
C678 C682 1.350 . S
C679 C682 1.463 . S
C679 C684 1.350 . S
C679 N687 1.427 . S
C680 H671 0.930 . S
C680 C678 1.378 . S
C680 C681 1.367 . S
C681 C680 1.367 . S
C681 C683 1.433 . S
C682 C678 1.350 . S
C682 C679 1.463 . S
C682 N686 1.427 . S
C683 H673 0.929 . S
C683 C681 1.433 . S
C683 N686 1.384 . S
C684 H675 0.929 . S
C684 C676 1.378 . S
C684 C679 1.350 . S
C685 H672 0.929 . S
C685 C677 1.433 . S
C685 N687 1.384 . S
N686 C682 1.427 . S
N686 C683 1.384 . S
N687 C679 1.427 . S
N687 C685 1.384 . S
H688 C694 0.930 . S
H689 C698 0.930 . S
H690 C703 0.929 . S
H691 C701 0.929 . S
H692 C696 0.929 . S
H693 C702 0.929 . S
C694 H688 0.930 . S
C694 C695 1.367 . S
C694 C702 1.378 . S
C695 C694 1.367 . S
C695 C703 1.433 . S
C696 H692 0.929 . S
C696 C698 1.378 . S
C696 C700 1.350 . S
C697 C700 1.463 . S
C697 C702 1.350 . S
C697 N705 1.427 . S
C698 H689 0.930 . S
C698 C696 1.378 . S
C698 C699 1.367 . S
C699 C698 1.367 . S
C699 C701 1.433 . S
C700 C696 1.350 . S
C700 C697 1.463 . S
C700 N704 1.427 . S
C701 H691 0.929 . S
C701 C699 1.433 . S
C701 N704 1.384 . S
C702 H693 0.929 . S
C702 C694 1.378 . S
C702 C697 1.350 . S
C703 H690 0.929 . S
C703 C695 1.433 . S
C703 N705 1.384 . S
N704 C700 1.427 . S
N704 C701 1.384 . S
N705 C697 1.427 . S
N705 C703 1.384 . S
H706 C712 0.930 . S
H707 C716 0.930 . S
H708 C721 0.929 . S
H709 C719 0.929 . S
H710 C714 0.929 . S
H711 C720 0.929 . S
C712 H706 0.930 . S
C712 C713 1.367 . S
C712 C720 1.378 . S
C713 C712 1.367 . S
C713 C721 1.433 . S
C714 H710 0.929 . S
C714 C716 1.378 . S
C714 C718 1.350 . S
C715 C718 1.463 . S
C715 C720 1.350 . S
C715 N723 1.427 . S
C716 H707 0.930 . S
C716 C714 1.378 . S
C716 C717 1.367 . S
C717 C716 1.367 . S
C717 C719 1.433 . S
C718 C714 1.350 . S
C718 C715 1.463 . S
C718 N722 1.427 . S
C719 H709 0.929 . S
C719 C717 1.433 . S
C719 N722 1.384 . S
C720 H711 0.929 . S
C720 C712 1.378 . S
C720 C715 1.350 . S
C721 H708 0.929 . S
C721 C713 1.433 . S
C721 N723 1.384 . S
N722 C718 1.427 . S
N722 C719 1.384 . S
N723 C715 1.427 . S
N723 C721 1.384 . S
H724 C730 0.930 . S
H725 C734 0.930 . S
H726 C739 0.929 . S
H727 C737 0.929 . S
H728 C732 0.929 . S
H729 C738 0.929 . S
C730 H724 0.930 . S
C730 C731 1.367 . S
C730 C738 1.378 . S
C731 C730 1.367 . S
C731 C739 1.433 . S
C732 H728 0.929 . S
C732 C734 1.378 . S
C732 C736 1.350 . S
C733 C736 1.463 . S
C733 C738 1.350 . S
C733 N741 1.427 . S
C734 H725 0.930 . S
C734 C732 1.378 . S
C734 C735 1.367 . S
C735 C734 1.367 . S
C735 C737 1.433 . S
C736 C732 1.350 . S
C736 C733 1.463 . S
C736 N740 1.427 . S
C737 H727 0.929 . S
C737 C735 1.433 . S
C737 N740 1.384 . S
C738 H729 0.929 . S
C738 C730 1.378 . S
C738 C733 1.350 . S
C739 H726 0.929 . S
C739 C731 1.433 . S
C739 N741 1.384 . S
N740 C736 1.427 . S
N740 C737 1.384 . S
N741 C733 1.427 . S
N741 C739 1.384 . S
H742 C748 0.930 . S
H743 C752 0.930 . S
H744 C757 0.929 . S
H745 C755 0.929 . S
H746 C750 0.929 . S
H747 C756 0.929 . S
C748 H742 0.930 . S
C748 C749 1.367 . S
C748 C756 1.378 . S
C749 C748 1.367 . S
C749 C757 1.433 . S
C750 H746 0.929 . S
C750 C752 1.378 . S
C750 C754 1.350 . S
C751 C754 1.463 . S
C751 C756 1.350 . S
C751 N759 1.427 . S
C752 H743 0.930 . S
C752 C750 1.378 . S
C752 C753 1.367 . S
C753 C752 1.367 . S
C753 C755 1.433 . S
C754 C750 1.350 . S
C754 C751 1.463 . S
C754 N758 1.427 . S
C755 H745 0.929 . S
C755 C753 1.433 . S
C755 N758 1.384 . S
C756 H747 0.929 . S
C756 C748 1.378 . S
C756 C751 1.350 . S
C757 H744 0.929 . S
C757 C749 1.433 . S
C757 N759 1.384 . S
N758 C754 1.427 . S
N758 C755 1.384 . S
N759 C751 1.427 . S
N759 C757 1.384 . S
H760 C766 0.930 . S
H761 C770 0.930 . S
H762 C775 0.929 . S
H763 C773 0.929 . S
H764 C768 0.929 . S
H765 C774 0.929 . S
C766 H760 0.930 . S
C766 C767 1.367 . S
C766 C774 1.378 . S
C767 C766 1.367 . S
C767 C775 1.433 . S
C768 H764 0.929 . S
C768 C770 1.378 . S
C768 C772 1.350 . S
C769 C772 1.463 . S
C769 C774 1.350 . S
C769 N777 1.427 . S
C770 H761 0.930 . S
C770 C768 1.378 . S
C770 C771 1.367 . S
C771 C770 1.367 . S
C771 C773 1.433 . S
C772 C768 1.350 . S
C772 C769 1.463 . S
C772 N776 1.427 . S
C773 H763 0.929 . S
C773 C771 1.433 . S
C773 N776 1.384 . S
C774 H765 0.929 . S
C774 C766 1.378 . S
C774 C769 1.350 . S
C775 H762 0.929 . S
C775 C767 1.433 . S
C775 N777 1.384 . S
N776 C772 1.427 . S
N776 C773 1.384 . S
N777 C769 1.427 . S
N777 C775 1.384 . S
H778 C784 0.930 . S
H779 C788 0.930 . S
H780 C793 0.929 . S
H781 C791 0.929 . S
H782 C786 0.929 . S
H783 C792 0.929 . S
C784 H778 0.930 . S
C784 C785 1.367 . S
C784 C792 1.378 . S
C785 C784 1.367 . S
C785 C793 1.433 . S
C786 H782 0.929 . S
C786 C788 1.378 . S
C786 C790 1.350 . S
C787 C790 1.463 . S
C787 C792 1.350 . S
C787 N795 1.427 . S
C788 H779 0.930 . S
C788 C786 1.378 . S
C788 C789 1.367 . S
C789 C788 1.367 . S
C789 C791 1.433 . S
C790 C786 1.350 . S
C790 C787 1.463 . S
C790 N794 1.427 . S
C791 H781 0.929 . S
C791 C789 1.433 . S
C791 N794 1.384 . S
C792 H783 0.929 . S
C792 C784 1.378 . S
C792 C787 1.350 . S
C793 H780 0.929 . S
C793 C785 1.433 . S
C793 N795 1.384 . S
N794 C790 1.427 . S
N794 C791 1.384 . S
N795 C787 1.427 . S
N795 C793 1.384 . S
H796 C802 0.930 . S
H797 C806 0.930 . S
H798 C811 0.929 . S
H799 C809 0.929 1_556 S
H800 C804 0.929 . S
H801 C810 0.929 . S
C802 H796 0.930 . S
C802 C803 1.367 . S
C802 C810 1.378 . S
C803 C802 1.367 . S
C803 C811 1.433 . S
C804 H800 0.929 . S
C804 C806 1.378 . S
C804 C808 1.350 . S
C805 C808 1.463 . S
C805 C810 1.350 . S
C805 N813 1.427 . S
C806 H797 0.930 . S
C806 C804 1.378 . S
C806 C807 1.367 . S
C807 C806 1.367 . S
C807 C809 1.433 . S
C808 C804 1.350 . S
C808 C805 1.463 . S
C808 N812 1.427 . S
C809 H799 0.929 1_554 S
C809 C807 1.433 . S
C809 N812 1.384 . S
C810 H801 0.929 . S
C810 C802 1.378 . S
C810 C805 1.350 . S
C811 H798 0.929 . S
C811 C803 1.433 . S
C811 N813 1.384 . S
N812 C808 1.427 . S
N812 C809 1.384 . S
N813 C805 1.427 . S
N813 C811 1.384 . S
H814 C820 0.930 . S
H815 C824 0.930 . S
H816 C829 0.929 . S
H817 C827 0.929 . S
H818 C822 0.929 . S
H819 C828 0.929 . S
C820 H814 0.930 . S
C820 C821 1.367 . S
C820 C828 1.378 . S
C821 C820 1.367 . S
C821 C829 1.433 . S
C822 H818 0.929 . S
C822 C824 1.378 . S
C822 C826 1.350 . S
C823 C826 1.463 . S
C823 C828 1.350 . S
C823 N831 1.427 . S
C824 H815 0.930 . S
C824 C822 1.378 . S
C824 C825 1.367 . S
C825 C824 1.367 . S
C825 C827 1.433 . S
C826 C822 1.350 . S
C826 C823 1.463 . S
C826 N830 1.427 . S
C827 H817 0.929 . S
C827 C825 1.433 . S
C827 N830 1.384 . S
C828 H819 0.929 . S
C828 C820 1.378 . S
C828 C823 1.350 . S
C829 H816 0.929 . S
C829 C821 1.433 . S
C829 N831 1.384 . S
N830 C826 1.427 . S
N830 C827 1.384 . S
N831 C823 1.427 . S
N831 C829 1.384 . S
H832 C838 0.930 . S
H833 C842 0.930 . S
H834 C847 0.929 . S
H835 C845 0.929 . S
H836 C840 0.929 . S
H837 C846 0.929 . S
C838 H832 0.930 . S
C838 C839 1.367 . S
C838 C846 1.378 . S
C839 C838 1.367 . S
C839 C847 1.433 . S
C840 H836 0.929 . S
C840 C842 1.378 . S
C840 C844 1.350 . S
C841 C844 1.463 . S
C841 C846 1.350 . S
C841 N849 1.427 . S
C842 H833 0.930 . S
C842 C840 1.378 . S
C842 C843 1.367 . S
C843 C842 1.367 . S
C843 C845 1.433 . S
C844 C840 1.350 . S
C844 C841 1.463 . S
C844 N848 1.427 . S
C845 H835 0.929 . S
C845 C843 1.433 . S
C845 N848 1.384 . S
C846 H837 0.929 . S
C846 C838 1.378 . S
C846 C841 1.350 . S
C847 H834 0.929 . S
C847 C839 1.433 . S
C847 N849 1.384 . S
N848 C844 1.427 . S
N848 C845 1.384 . S
N849 C841 1.427 . S
N849 C847 1.384 . S
H850 C856 0.930 . S
H851 C860 0.930 . S
H852 C865 0.929 . S
H853 C863 0.945 . S
H854 C858 0.929 . S
H855 C864 0.929 . S
C856 H850 0.930 . S
C856 C857 1.367 . S
C856 C864 1.378 . S
C857 C856 1.367 . S
C857 C865 1.433 . S
C858 H854 0.929 . S
C858 C860 1.378 . S
C858 C862 1.350 . S
C859 C862 1.463 . S
C859 C864 1.350 . S
C859 N867 1.427 . S
C860 H851 0.930 . S
C860 C858 1.378 . S
C860 C861 1.367 . S
C861 C860 1.367 . S
C861 C863 1.433 . S
C862 C858 1.350 . S
C862 C859 1.463 . S
C862 N866 1.427 . S
C863 H853 0.945 . S
C863 C861 1.433 . S
C863 N866 1.384 . S
C864 H855 0.929 . S
C864 C856 1.378 . S
C864 C859 1.350 . S
C865 H852 0.929 . S
C865 C857 1.433 . S
C865 N867 1.384 . S
N866 C862 1.427 . S
N866 C863 1.384 . S
N867 C859 1.427 . S
N867 C865 1.384 . S
H868 C874 0.930 . S
H869 C878 0.930 1_655 S
H870 C883 0.929 . S
H871 C881 0.929 . S
H872 C876 0.929 . S
H873 C882 0.929 . S
C874 H868 0.930 . S
C874 C875 1.367 . S
C874 C882 1.378 . S
C875 C874 1.367 . S
C875 C883 1.433 . S
C876 H872 0.929 . S
C876 C878 1.378 . S
C876 C880 1.350 . S
C877 C880 1.463 . S
C877 C882 1.350 . S
C877 N885 1.427 . S
C878 H869 0.930 1_455 S
C878 C876 1.378 . S
C878 C879 1.367 . S
C879 C878 1.367 . S
C879 C881 1.433 . S
C880 C876 1.350 . S
C880 C877 1.463 . S
C880 N884 1.427 . S
C881 H871 0.929 . S
C881 C879 1.433 . S
C881 N884 1.384 . S
C882 H873 0.929 . S
C882 C874 1.378 . S
C882 C877 1.350 . S
C883 H870 0.929 . S
C883 C875 1.433 . S
C883 N885 1.384 . S
N884 C880 1.427 . S
N884 C881 1.384 . S
N885 C877 1.427 . S
N885 C883 1.384 . S
H886 C892 0.930 . S
H887 C896 0.930 . S
H888 C901 0.929 . S
H889 C899 0.929 . S
H890 C894 0.929 . S
H891 C900 0.929 . S
C892 H886 0.930 . S
C892 C893 1.367 . S
C892 C900 1.378 . S
C893 C892 1.367 . S
C893 C901 1.433 . S
C894 H890 0.929 . S
C894 C896 1.378 . S
C894 C898 1.350 . S
C895 C898 1.463 . S
C895 C900 1.350 . S
C895 N903 1.427 . S
C896 H887 0.930 . S
C896 C894 1.378 . S
C896 C897 1.367 . S
C897 C896 1.367 . S
C897 C899 1.433 . S
C898 C894 1.350 . S
C898 C895 1.463 . S
C898 N902 1.427 . S
C899 H889 0.929 . S
C899 C897 1.433 . S
C899 N902 1.384 . S
C900 H891 0.929 . S
C900 C892 1.378 . S
C900 C895 1.350 . S
C901 H888 0.929 . S
C901 C893 1.433 . S
C901 N903 1.384 . S
N902 C898 1.427 . S
N902 C899 1.384 . S
N903 C895 1.427 . S
N903 C901 1.384 . S
C479 C1 0.945 . S
C483 C316 0.955 . S
C497 C40 1.200 . S
C501 C377 1.245 . S
C519 C415 2.506 . S
C515 C99 2.574 . S
C533 C118 2.334 . S
C537 C455 2.284 . S
C555 C375 1.297 . S
C551 C16 1.267 . S
C573 C343 2.157 . S
C569 C60 2.072 . S
C591 C452 1.748 . S
C587 C79 1.758 . S
C609 C412 1.822 . S
C605 C138 1.838 . S
C623 C21 1.102 . S
C627 C457 1.119 . S
C645 C372 2.404 . S
C641 C94 2.400 . S
C659 C133 2.171 . S
C663 C314 2.134 . S
C677 C55 1.527 . S
C681 C417 1.586 . S
C699 C337 0.944 . S
C695 C157 0.930 . S
C713 C196 1.197 . S
C717 C356 1.246 . S
C731 C255 2.568 . S
C735 C394 2.507 . S
C749 C289 2.332 . S
C753 C434 2.286 . S
C767 C172 1.263 . S
C771 C354 1.301 . S
C789 C332 2.157 . S
C785 C216 2.041 . S
C807 C463 1.743 . S
C803 C235 1.758 . S
C825 C423 1.820 . S
C821 C294 1.836 . S
C839 C177 1.101 . S
C843 C436 1.116 . S
C861 C383 2.403 . S
C857 C250 2.404 . S
C879 C335 2.133 . S
C875 C274 2.170 . S
C893 C211 1.536 . S
C897 C396 1.589 . S
