# Generated by pormake.
# Topology zzz, (3,6)-cn, num edge types: 1
# Building blocks:
#     Node 0, Type 0, BuildingBlock: BELTOD_clean_linker_0, # of connection points: 3
#     Node 1, Type 0, BuildingBlock: BELTOD_clean_linker_0, # of connection points: 3
#     Node 2, Type 0, BuildingBlock: BELTOD_clean_linker_0, # of connection points: 3
#     Node 3, Type 0, BuildingBlock: BELTOD_clean_linker_0, # of connection points: 3
#     Node 4, Type 0, BuildingBlock: BELTOD_clean_linker_0, # of connection points: 3
#     Node 5, Type 0, BuildingBlock: BELTOD_clean_linker_0, # of connection points: 3
#     Node 6, Type 0, BuildingBlock: BELTOD_clean_linker_0, # of connection points: 3
#     Node 7, Type 0, BuildingBlock: BELTOD_clean_linker_0, # of connection points: 3
#     Node 8, Type 1, BuildingBlock: JUFBIX_clean_sbu_0, # of connection points: 6
#     Node 9, Type 1, BuildingBlock: JUFBIX_clean_sbu_0, # of connection points: 6
#     Node 10, Type 1, BuildingBlock: JUFBIX_clean_sbu_0, # of connection points: 6
#     Node 11, Type 1, BuildingBlock: JUFBIX_clean_sbu_0, # of connection points: 6
#     Edge 12, Type (0, 1), BuildingBlock: UVAHIK_clean_linker_0, # of connection points: 2
#     Edge 13, Type (0, 1), BuildingBlock: UVAHIK_clean_linker_0, # of connection points: 2
#     Edge 14, Type (0, 1), BuildingBlock: UVAHIK_clean_linker_0, # of connection points: 2
#     Edge 15, Type (0, 1), BuildingBlock: UVAHIK_clean_linker_0, # of connection points: 2
#     Edge 16, Type (0, 1), BuildingBlock: UVAHIK_clean_linker_0, # of connection points: 2
#     Edge 17, Type (0, 1), BuildingBlock: UVAHIK_clean_linker_0, # of connection points: 2
#     Edge 18, Type (0, 1), BuildingBlock: UVAHIK_clean_linker_0, # of connection points: 2
#     Edge 19, Type (0, 1), BuildingBlock: UVAHIK_clean_linker_0, # of connection points: 2
#     Edge 20, Type (0, 1), BuildingBlock: UVAHIK_clean_linker_0, # of connection points: 2
#     Edge 21, Type (0, 1), BuildingBlock: UVAHIK_clean_linker_0, # of connection points: 2
#     Edge 22, Type (0, 1), BuildingBlock: UVAHIK_clean_linker_0, # of connection points: 2
#     Edge 23, Type (0, 1), BuildingBlock: UVAHIK_clean_linker_0, # of connection points: 2
#     Edge 24, Type (0, 1), BuildingBlock: UVAHIK_clean_linker_0, # of connection points: 2
#     Edge 25, Type (0, 1), BuildingBlock: UVAHIK_clean_linker_0, # of connection points: 2
#     Edge 26, Type (0, 1), BuildingBlock: UVAHIK_clean_linker_0, # of connection points: 2
#     Edge 27, Type (0, 1), BuildingBlock: UVAHIK_clean_linker_0, # of connection points: 2
#     Edge 28, Type (0, 1), BuildingBlock: UVAHIK_clean_linker_0, # of connection points: 2
#     Edge 29, Type (0, 1), BuildingBlock: UVAHIK_clean_linker_0, # of connection points: 2
#     Edge 30, Type (0, 1), BuildingBlock: UVAHIK_clean_linker_0, # of connection points: 2
#     Edge 31, Type (0, 1), BuildingBlock: UVAHIK_clean_linker_0, # of connection points: 2
#     Edge 32, Type (0, 1), BuildingBlock: UVAHIK_clean_linker_0, # of connection points: 2
#     Edge 33, Type (0, 1), BuildingBlock: UVAHIK_clean_linker_0, # of connection points: 2
#     Edge 34, Type (0, 1), BuildingBlock: UVAHIK_clean_linker_0, # of connection points: 2
#     Edge 35, Type (0, 1), BuildingBlock: UVAHIK_clean_linker_0, # of connection points: 2
# Relax obj value: 0.271
# Max RMSD: 0.211
# Mean RMSD: 0.178
data_MOF--net-zzz--node1-JUFBIX_clean_sbu_0--node2-BELTOD_clean_linker_0--edge1-UVAHIK_clean_linker_0
_symmetry_space_group_name_H-M    P1
_symmetry_Int_Tables_number       1
_symmetry_cell_setting            triclinic
loop_
_symmetry_equiv_pos_as_xyz
'x, y, z'
_cell_length_a     67.138521
_cell_length_b     69.20736
_cell_length_c     26.357955
_cell_angle_alpha  83.607401
_cell_angle_beta   90.159761
_cell_angle_gamma 86.848125
loop_
_atom_site_label
_atom_site_type_symbol
_atom_site_fract_x
_atom_site_fract_y
_atom_site_fract_z
_atom_type_partial_charge
P0 P 0.76469 0.53802 0.27862 0.0
H1 H 0.77522 0.5226 0.38291 0.0
H2 H 0.79679 0.53457 0.44511 0.0
H3 H 0.79723 0.59009 0.35231 0.0
H4 H 0.77523 0.57796 0.29 0.0
H5 H 0.75672 0.54749 0.16893 0.0
H6 H 0.72648 0.55807 0.12139 0.0
H7 H 0.69572 0.56553 0.26213 0.0
H8 H 0.72661 0.55526 0.31023 0.0
H9 H 0.7904 0.50399 0.2594 0.0
H10 H 0.78657 0.56575 0.21157 0.0
O11 O 0.75694 0.51609 0.2998 0.0
H12 H 0.81993 0.50025 0.2065 0.0
H13 H 0.81625 0.56219 0.15939 0.0
C14 C 0.7736 0.54938 0.33178 0.0
C15 C 0.7792 0.53763 0.37683 0.0
C16 C 0.7916 0.54453 0.41254 0.0
C17 C 0.7989 0.56324 0.40343 0.0
C18 C 0.79199 0.57554 0.36011 0.0
C19 C 0.77934 0.56866 0.32463 0.0
C20 C 0.74416 0.55101 0.24331 0.0
C21 C 0.74387 0.55226 0.18983 0.0
C22 C 0.72643 0.5583 0.16242 0.0
C23 C 0.7087 0.56271 0.18795 0.0
C24 C 0.70918 0.56227 0.24145 0.0
C25 C 0.72683 0.55651 0.26891 0.0
C26 C 0.7861 0.5351 0.2387 0.0
C27 C 0.79586 0.51673 0.23742 0.0
C28 C 0.81284 0.51464 0.20752 0.0
C29 C 0.82035 0.53092 0.1786 0.0
C30 C 0.81065 0.54934 0.18063 0.0
C31 C 0.79375 0.55141 0.21066 0.0
P32 P 0.04984 0.75548 0.27107 0.0
H33 H 0.05674 0.75493 0.38099 0.0
H34 H 0.04131 0.77403 0.44413 0.0
H35 H 0.99645 0.79772 0.3329 0.0
H36 H 0.01159 0.77797 0.27063 0.0
H37 H 0.05216 0.71294 0.27496 0.0
H38 H 0.03909 0.69108 0.21784 0.0
H39 H 0.0049 0.73955 0.1363 0.0
H40 H 0.01813 0.76136 0.19342 0.0
H41 H 0.05181 0.79772 0.27595 0.0
H42 H 0.06385 0.75697 0.16571 0.0
O43 O 0.07085 0.74414 0.29566 0.0
H44 H 0.05635 0.82475 0.21022 0.0
H45 H 0.0685 0.78411 0.0997 0.0
C46 C 0.03535 0.76506 0.32102 0.0
C47 C 0.04324 0.76377 0.37062 0.0
C48 C 0.0345 0.77489 0.4066 0.0
C49 C 0.01785 0.78775 0.39341 0.0
C50 C 0.00916 0.78792 0.34466 0.0
C51 C 0.0178 0.7766 0.30887 0.0
C52 C 0.03635 0.73881 0.23794 0.0
C53 C 0.0415 0.7188 0.24557 0.0
C54 C 0.03395 0.70629 0.21296 0.0
C55 C 0.02117 0.71365 0.17211 0.0
C56 C 0.01494 0.73351 0.16696 0.0
C57 C 0.02238 0.74596 0.19984 0.0
C58 C 0.0566 0.77532 0.22521 0.0
C59 C 0.05543 0.79452 0.23769 0.0
C60 C 0.05811 0.81001 0.20012 0.0
C61 C 0.06238 0.80653 0.14966 0.0
C62 C 0.06515 0.78722 0.13823 0.0
C63 C 0.06235 0.77172 0.17584 0.0
P64 P 0.75928 0.9943 0.23478 0.0
H65 H 0.74735 0.00874 0.33063 0.0
H66 H 0.72529 0.99581 0.39723 0.0
H67 H 0.72725 0.94076 0.33391 0.0
H68 H 0.74929 0.95405 0.26639 0.0
H69 H 0.80042 0.005 0.24358 0.0
H70 H 0.8308 0.99508 0.20113 0.0
H71 H 0.79996 0.94957 0.13944 0.0
H72 H 0.76933 0.95992 0.18164 0.0
H73 H 0.71607 0.98929 0.23827 0.0
H74 H 0.76089 0.00017 0.12298 0.0
O75 O 0.76252 0.0176 0.24176 0.0
H76 H 0.69092 0.98859 0.17222 0.0
H77 H 0.7355 0.99953 0.05626 0.0
C78 C 0.74999 0.98237 0.2935 0.0
C79 C 0.74371 0.99365 0.33204 0.0
C80 C 0.73103 0.98619 0.37034 0.0
C81 C 0.72426 0.9673 0.3706 0.0
C82 C 0.73197 0.95545 0.33437 0.0
C83 C 0.74478 0.96294 0.29613 0.0
C84 C 0.78255 0.98344 0.21491 0.0
C85 C 0.80026 0.99262 0.22184 0.0
C86 C 0.81772 0.98683 0.19766 0.0
C87 C 0.81779 0.97167 0.16623 0.0
C88 C 0.80031 0.96153 0.1626 0.0
C89 C 0.78284 0.96732 0.18702 0.0
C90 C 0.74059 0.99404 0.18568 0.0
C91 C 0.72065 0.9912 0.19881 0.0
C92 C 0.70621 0.99081 0.16092 0.0
C93 C 0.71132 0.99365 0.1091 0.0
C94 C 0.73117 0.99718 0.09593 0.0
C95 C 0.74569 0.99744 0.13399 0.0
P96 P 0.43105 0.73707 0.22491 0.0
H97 H 0.42182 0.73981 0.33258 0.0
H98 H 0.43772 0.72421 0.41118 0.0
H99 H 0.4864 0.70204 0.32311 0.0
H100 H 0.47088 0.7185 0.24528 0.0
H101 H 0.42309 0.75381 0.12071 0.0
H102 H 0.43353 0.78318 0.07012 0.0
H103 H 0.4677 0.7973 0.19885 0.0
H104 H 0.4571 0.76778 0.24945 0.0
H105 H 0.40881 0.70197 0.2262 0.0
H106 H 0.45901 0.72659 0.14604 0.0
O107 O 0.40706 0.74141 0.23843 0.0
H108 H 0.41394 0.67245 0.18355 0.0
H109 H 0.46395 0.69743 0.10243 0.0
C110 C 0.44494 0.72989 0.28306 0.0
C111 C 0.43615 0.73199 0.33038 0.0
C112 C 0.44521 0.72292 0.37528 0.0
C113 C 0.46312 0.71142 0.37349 0.0
C114 C 0.47265 0.71076 0.32618 0.0
C115 C 0.46369 0.72004 0.28142 0.0
C116 C 0.43963 0.75846 0.1884 0.0
C117 C 0.43299 0.76313 0.13788 0.0
C118 C 0.43902 0.77988 0.10897 0.0
C119 C 0.45159 0.79246 0.13037 0.0
C120 C 0.45799 0.78788 0.1814 0.0
C121 C 0.45204 0.77098 0.21023 0.0
C122 C 0.4332 0.71664 0.18829 0.0
C123 C 0.42065 0.70119 0.19854 0.0
C124 C 0.42361 0.68434 0.17418 0.0
C125 C 0.43936 0.6826 0.1396 0.0
C126 C 0.45181 0.69822 0.12923 0.0
C127 C 0.44883 0.71503 0.15361 0.0
P128 P 0.23376 0.40895 0.28027 0.0
H129 H 0.22984 0.39024 0.18631 0.0
H130 H 0.21061 0.40015 0.10789 0.0
H131 H 0.19745 0.45674 0.15852 0.0
H132 H 0.2169 0.44689 0.23581 0.0
H133 H 0.2694 0.3895 0.33059 0.0
H134 H 0.29849 0.4022 0.36835 0.0
H135 H 0.27944 0.46032 0.30312 0.0
H136 H 0.25032 0.44753 0.26554 0.0
H137 H 0.19034 0.41022 0.27978 0.0
H138 H 0.23696 0.42584 0.37818 0.0
O139 O 0.23488 0.38465 0.28724 0.0
H140 H 0.16531 0.42532 0.33228 0.0
H141 H 0.21199 0.44097 0.43053 0.0
C142 C 0.22476 0.4178 0.21699 0.0
C143 C 0.22329 0.40496 0.17979 0.0
C144 C 0.21212 0.41059 0.13515 0.0
C145 C 0.20221 0.42916 0.12714 0.0
C146 C 0.205 0.44242 0.16296 0.0
C147 C 0.21621 0.4368 0.20735 0.0
C148 C 0.25776 0.41752 0.29471 0.0
C149 C 0.2718 0.40488 0.32291 0.0
C150 C 0.28845 0.41217 0.34457 0.0
C151 C 0.29117 0.43228 0.339 0.0
C152 C 0.27763 0.44478 0.30842 0.0
C153 C 0.26106 0.43744 0.28646 0.0
C154 C 0.21555 0.41736 0.32412 0.0
C155 C 0.1952 0.4168 0.31278 0.0
C156 C 0.18092 0.42552 0.34259 0.0
C157 C 0.18675 0.43464 0.38488 0.0
C158 C 0.20709 0.43413 0.398 0.0
C159 C 0.22139 0.42554 0.36785 0.0
P160 P 0.03812 0.25391 0.2765 0.0
H161 H 0.05743 0.24944 0.1787 0.0
H162 H 0.04978 0.22937 0.1116 0.0
H163 H 0.99257 0.21839 0.18046 0.0
H164 H 0.00058 0.23813 0.2483 0.0
H165 H 0.05669 0.28694 0.31211 0.0
H166 H 0.04295 0.31638 0.3443 0.0
H167 H 0.9838 0.30282 0.29981 0.0
H168 H 0.9978 0.2732 0.26688 0.0
H169 H 0.04961 0.21295 0.30063 0.0
H170 H 0.01168 0.25588 0.3662 0.0
O171 O 0.06298 0.25392 0.27534 0.0
H172 H 0.03896 0.18784 0.36606 0.0
H173 H 0.00105 0.23092 0.43137 0.0
C174 C 0.02967 0.2451 0.21882 0.0
C175 C 0.043 0.24319 0.17861 0.0
C176 C 0.03857 0.23171 0.14006 0.0
C177 C 0.0207 0.22196 0.14114 0.0
C178 C 0.00663 0.22538 0.17909 0.0
C179 C 0.01109 0.23686 0.2176 0.0
C180 C 0.02831 0.27793 0.28664 0.0
C181 C 0.04085 0.29056 0.30757 0.0
C182 C 0.03295 0.30746 0.32604 0.0
C183 C 0.01227 0.31191 0.32474 0.0
C184 C 0.99979 0.2997 0.30149 0.0
C185 C 0.00779 0.28289 0.28225 0.0
C186 C 0.03151 0.2363 0.32837 0.0
C187 C 0.03918 0.21702 0.32942 0.0
C188 C 0.0331 0.2027 0.36682 0.0
C189 C 0.01912 0.20742 0.40374 0.0
C190 C 0.01164 0.22682 0.403 0.0
C191 C 0.01782 0.24115 0.36571 0.0
P192 P 0.25041 0.10923 0.29913 0.0
H193 H 0.25217 0.13065 0.19695 0.0
H194 H 0.2704 0.12344 0.12071 0.0
H195 H 0.28575 0.06526 0.1929 0.0
H196 H 0.26648 0.07222 0.26696 0.0
H197 H 0.22726 0.11914 0.38475 0.0
H198 H 0.19672 0.10751 0.423 0.0
H199 H 0.1895 0.07203 0.29971 0.0
H200 H 0.22093 0.08329 0.26275 0.0
H201 H 0.28671 0.12294 0.34196 0.0
H202 H 0.25353 0.07099 0.35878 0.0
O203 O 0.25079 0.13339 0.29723 0.0
H204 H 0.31207 0.10693 0.40201 0.0
H205 H 0.27901 0.05486 0.41781 0.0
C206 C 0.25839 0.10215 0.23824 0.0
C207 C 0.25898 0.11616 0.19568 0.0
C208 C 0.26965 0.11207 0.15225 0.0
C209 C 0.28015 0.09393 0.15089 0.0
C210 C 0.27794 0.07939 0.19206 0.0
C211 C 0.267 0.08343 0.23502 0.0
C212 C 0.22617 0.1023 0.32062 0.0
C213 C 0.21893 0.1091 0.36545 0.0
C214 C 0.20133 0.10247 0.38719 0.0
C215 C 0.1904 0.08892 0.36433 0.0
C216 C 0.19757 0.08235 0.31862 0.0
C217 C 0.21542 0.08891 0.29709 0.0
C218 C 0.26815 0.09823 0.34647 0.0
C219 C 0.28476 0.10821 0.35901 0.0
C220 C 0.29922 0.09907 0.39321 0.0
C221 C 0.29744 0.07969 0.41435 0.0
C222 C 0.28074 0.06978 0.4018 0.0
C223 C 0.26615 0.07902 0.36835 0.0
P224 P 0.46053 0.27703 0.33298 0.0
H225 H 0.44422 0.27517 0.23083 0.0
H226 H 0.45218 0.29219 0.14775 0.0
H227 H 0.50393 0.31443 0.21457 0.0
H228 H 0.49636 0.29677 0.29643 0.0
H229 H 0.44184 0.2459 0.39469 0.0
H230 H 0.45387 0.2137 0.43268 0.0
H231 H 0.51172 0.22283 0.36573 0.0
H232 H 0.4994 0.25531 0.32699 0.0
H233 H 0.43908 0.31133 0.36457 0.0
H234 H 0.49677 0.28138 0.39289 0.0
O235 O 0.43567 0.27721 0.32977 0.0
H236 H 0.4489 0.33697 0.41455 0.0
H237 H 0.5068 0.30728 0.44224 0.0
C238 C 0.46936 0.28515 0.27017 0.0
C239 C 0.45754 0.28334 0.22725 0.0
C240 C 0.46203 0.29322 0.17982 0.0
C241 C 0.47842 0.3051 0.17461 0.0
C242 C 0.49119 0.30544 0.21692 0.0
C243 C 0.48676 0.29544 0.26417 0.0
C244 C 0.46961 0.25283 0.35723 0.0
C245 C 0.45702 0.24091 0.38736 0.0
C246 C 0.46391 0.22247 0.40907 0.0
C247 C 0.48368 0.21567 0.40175 0.0
C248 C 0.49641 0.22772 0.37191 0.0
C249 C 0.48937 0.24618 0.34959 0.0
C250 C 0.46705 0.29428 0.3757 0.0
C251 C 0.45372 0.31007 0.38233 0.0
C252 C 0.45935 0.32473 0.41083 0.0
C253 C 0.47859 0.32405 0.43229 0.0
C254 C 0.4919 0.30814 0.42599 0.0
C255 C 0.48611 0.29328 0.39815 0.0
Co256 Co 0.01531 0.01279 0.7889 0.0
C257 C 0.97966 0.9955 0.81658 0.0
Co258 Co 0.00183 0.99751 0.7287 0.0
C259 C 0.02556 0.04483 0.84503 0.0
C260 C 0.03125 0.01703 0.88828 0.0
N261 N 0.02546 0.02547 0.84154 0.0
N262 N 0.03075 0.04875 0.89222 0.0
C263 C 0.03451 0.03125 0.91935 0.0
H264 H 0.02062 0.05588 0.81466 0.0
H265 H 0.03193 0.00154 0.90014 0.0
C266 C 0.0375 0.01489 0.70125 0.0
N267 N 0.99145 0.98481 0.67629 0.0
C268 C 0.9904 0.96547 0.6738 0.0
C269 C 0.98498 0.99317 0.63006 0.0
N270 N 0.98378 0.96145 0.6278 0.0
C271 C 0.98021 0.97895 0.60044 0.0
C272 C 0.98964 0.03665 0.72382 0.0
O273 O 0.03656 0.02065 0.74545 0.0
O274 O 0.02415 0.0042 0.68715 0.0
O275 O 0.98805 0.02136 0.7019 0.0
O276 O 0.00027 0.03574 0.76393 0.0
O277 O 0.97961 0.99096 0.77107 0.0
H278 H 0.98441 0.00862 0.61769 0.0
H279 H 0.99525 0.95448 0.70437 0.0
O280 O 0.99394 0.00486 0.8315 0.0
O281 O 0.03031 0.98954 0.81315 0.0
O282 O 0.01588 0.97407 0.75633 0.0
C283 C 0.02785 0.97383 0.79382 0.0
H284 H 0.03855 0.02885 0.95944 0.0
H285 H 0.97491 0.9814 0.56133 0.0
Co286 Co 0.492 0.01113 0.79946 0.0
C287 C 0.4914 0.97075 0.82023 0.0
Co288 Co 0.5047 0.99481 0.73845 0.0
C289 C 0.46343 0.03511 0.85121 0.0
C290 C 0.48644 0.02133 0.90111 0.0
N291 N 0.4806 0.0239 0.85174 0.0
N292 N 0.45818 0.03939 0.89839 0.0
C293 C 0.47279 0.03081 0.92971 0.0
H294 H 0.45461 0.03945 0.81706 0.0
H295 H 0.4992 0.01221 0.91596 0.0
C296 C 0.50524 0.03521 0.71766 0.0
N297 N 0.5162 0.98159 0.68754 0.0
C298 C 0.53473 0.98342 0.66857 0.0
C299 C 0.50875 0.9671 0.66441 0.0
N300 N 0.53932 0.97053 0.63495 0.0
C301 C 0.5229 0.9603 0.63199 0.0
C302 C 0.46445 0.00422 0.72534 0.0
O303 O 0.49684 0.03523 0.76091 0.0
O304 O 0.51017 0.01903 0.70113 0.0
O305 O 0.47935 0.99591 0.70537 0.0
O306 O 0.46677 0.01134 0.76719 0.0
O307 O 0.4991 0.97075 0.77624 0.0
H308 H 0.49421 0.96145 0.67181 0.0
H309 H 0.54476 0.99393 0.67983 0.0
O310 O 0.48723 0.98689 0.83753 0.0
O311 O 0.5175 0.01088 0.83069 0.0
O312 O 0.52991 0.99389 0.77182 0.0
C313 C 0.53236 0.00213 0.81187 0.0
H314 H 0.47306 0.03033 0.97088 0.0
H315 H 0.52145 0.94827 0.60952 0.0
Co316 Co 0.51159 0.50826 0.77523 0.0
C317 C 0.49266 0.47553 0.81928 0.0
Co318 Co 0.47962 0.50785 0.7556 0.0
C319 C 0.54712 0.52127 0.81993 0.0
C320 C 0.5518 0.49308 0.79453 0.0
N321 N 0.53807 0.50797 0.79543 0.0
N322 N 0.5659 0.51516 0.83518 0.0
C323 C 0.56886 0.49743 0.81882 0.0
H324 H 0.53976 0.53489 0.82781 0.0
H325 H 0.54923 0.4795 0.77951 0.0
C326 C 0.49842 0.54066 0.71189 0.0
N327 N 0.45312 0.50826 0.73532 0.0
C328 C 0.44431 0.49553 0.70838 0.0
C329 C 0.4392 0.52288 0.73812 0.0
N330 N 0.42554 0.50177 0.69337 0.0
C331 C 0.42229 0.51895 0.7125 0.0
C332 C 0.48569 0.52614 0.84107 0.0
O333 O 0.5141 0.53237 0.73349 0.0
O334 O 0.48207 0.53227 0.71696 0.0
O335 O 0.47226 0.52059 0.81293 0.0
O336 O 0.50391 0.52225 0.83126 0.0
O337 O 0.47738 0.48332 0.79479 0.0
H338 H 0.44157 0.53607 0.75531 0.0
H339 H 0.45184 0.48226 0.69853 0.0
O340 O 0.50885 0.48429 0.81662 0.0
O341 O 0.51889 0.49411 0.71923 0.0
O342 O 0.4872 0.49517 0.69832 0.0
C343 C 0.50515 0.48992 0.68975 0.0
H344 H 0.58196 0.4877 0.8263 0.0
H345 H 0.4091 0.52863 0.70604 0.0
Co346 Co 0.00906 0.52536 0.75579 0.0
C347 C 0.03282 0.49558 0.80916 0.0
Co348 Co 0.99963 0.49573 0.74687 0.0
C349 C 0.00813 0.5625 0.79747 0.0
C350 C 0.03343 0.55883 0.74974 0.0
N351 N 0.01685 0.5501 0.76688 0.0
N352 N 0.01866 0.5784 0.80044 0.0
C353 C 0.03452 0.57622 0.77009 0.0
H354 H 0.99449 0.55984 0.81812 0.0
H355 H 0.04453 0.55267 0.72564 0.0
C356 C 0.97605 0.52563 0.69312 0.0
N357 N 0.99212 0.47117 0.73553 0.0
C358 C 0.99025 0.46453 0.6896 0.0
C359 C 0.98852 0.45585 0.76986 0.0
N360 N 0.98586 0.44563 0.69368 0.0
C361 C 0.98461 0.44012 0.74422 0.0
C362 C 0.98112 0.51077 0.82721 0.0
O363 O 0.98768 0.53667 0.71297 0.0
O364 O 0.97888 0.50725 0.70252 0.0
O365 O 0.98208 0.496 0.8026 0.0
O366 O 0.99187 0.52494 0.81343 0.0
O367 O 0.02066 0.48451 0.79136 0.0
H368 H 0.98921 0.45596 0.81083 0.0
H369 H 0.9923 0.4734 0.65372 0.0
O370 O 0.03027 0.51392 0.79833 0.0
O371 O 0.02626 0.52501 0.6979 0.0
O372 O 0.01716 0.4955 0.69153 0.0
C373 C 0.02761 0.5096 0.67575 0.0
H374 H 0.04659 0.58599 0.76506 0.0
H375 H 0.98187 0.42559 0.76151 0.0
C376 C 0.16802 0.06146 0.39055 0.0
C377 C 0.17223 0.08117 0.38997 0.0
C378 C 0.15219 0.05383 0.41936 0.0
C379 C 0.10724 0.06853 0.49367 0.0
H380 H 0.1157 0.01625 0.56289 0.0
C381 C 0.06273 0.03868 0.67029 0.0
C382 C 0.05332 0.02134 0.66538 0.0
C383 C 0.07665 0.04552 0.63422 0.0
C384 C 0.11313 0.03082 0.54352 0.0
H385 H 0.16212 0.10854 0.41696 0.0
H386 H 0.13554 0.09515 0.46909 0.0
H387 H 0.14053 0.02918 0.50284 0.0
H388 H 0.05146 0.99729 0.61969 0.0
H389 H 0.07642 0.00895 0.55761 0.0
H390 H 0.08027 0.07033 0.53673 0.0
C391 C 0.14412 0.08552 0.4467 0.0
C392 C 0.12726 0.03823 0.50872 0.0
C393 C 0.15968 0.09319 0.4173 0.0
C394 C 0.05848 0.01071 0.62441 0.0
C395 C 0.07275 0.01733 0.58899 0.0
C396 C 0.09336 0.06125 0.52925 0.0
C397 C 0.1403 0.06565 0.44885 0.0
C398 C 0.1246 0.05727 0.4835 0.0
C399 C 0.08174 0.03493 0.59323 0.0
C400 C 0.09624 0.04239 0.55466 0.0
H401 H 0.17737 0.0517 0.37026 0.0
H402 H 0.1495 0.03857 0.419 0.0
H403 H 0.10432 0.08304 0.47427 0.0
H404 H 0.05895 0.04724 0.70126 0.0
H405 H 0.0835 0.05908 0.63838 0.0
C406 C 0.50877 0.19383 0.45479 0.0
C407 C 0.49082 0.19624 0.42666 0.0
C408 C 0.51422 0.17597 0.48311 0.0
C409 C 0.50335 0.12366 0.49934 0.0
H410 H 0.51906 0.12562 0.6403 0.0
C411 C 0.51735 0.05364 0.63747 0.0
C412 C 0.50828 0.05374 0.68548 0.0
C413 C 0.51875 0.07094 0.60518 0.0
C414 C 0.5147 0.12484 0.60102 0.0
H415 H 0.46507 0.18163 0.40387 0.0
H416 H 0.47446 0.15059 0.45322 0.0
H417 H 0.51501 0.15575 0.58261 0.0
H418 H 0.49419 0.07221 0.73791 0.0
H419 H 0.49644 0.10235 0.68137 0.0
H420 H 0.50222 0.09289 0.51813 0.0
C421 C 0.48439 0.16241 0.4535 0.0
C422 C 0.51261 0.14207 0.56781 0.0
C423 C 0.4789 0.18024 0.42557 0.0
C424 C 0.50127 0.07162 0.70119 0.0
C425 C 0.50267 0.08893 0.66887 0.0
C426 C 0.50549 0.10644 0.53247 0.0
C427 C 0.50191 0.16015 0.48336 0.0
C428 C 0.5065 0.14171 0.51686 0.0
C429 C 0.51112 0.08875 0.62013 0.0
C430 C 0.51081 0.10686 0.58396 0.0
H431 H 0.5182 0.20596 0.45652 0.0
H432 H 0.5279 0.17462 0.5054 0.0
H433 H 0.49884 0.12287 0.46017 0.0
H434 H 0.52304 0.04013 0.62431 0.0
H435 H 0.5256 0.07034 0.5682 0.0
C436 C 0.32612 0.43148 0.37424 0.0
C437 C 0.30676 0.44032 0.36936 0.0
C438 C 0.34018 0.43822 0.40642 0.0
C439 C 0.35008 0.48024 0.4783 0.0
H440 H 0.38451 0.4422 0.56094 0.0
C441 C 0.39223 0.49906 0.65499 0.0
C442 C 0.41267 0.49334 0.6587 0.0
C443 C 0.38006 0.4922 0.61865 0.0
C444 C 0.3751 0.45298 0.53779 0.0
H445 H 0.28692 0.46304 0.39463 0.0
H446 H 0.31117 0.47457 0.4511 0.0
H447 H 0.36221 0.43144 0.49768 0.0
H448 H 0.43608 0.47537 0.62717 0.0
H449 H 0.41466 0.46308 0.56483 0.0
H450 H 0.3626 0.50168 0.51958 0.0
C451 C 0.31579 0.4628 0.42917 0.0
C452 C 0.36238 0.44686 0.50133 0.0
C453 C 0.30184 0.45618 0.39674 0.0
C454 C 0.42043 0.48 0.62614 0.0
C455 C 0.40817 0.47297 0.59013 0.0
C456 C 0.36262 0.48631 0.51508 0.0
C457 C 0.33511 0.45383 0.43479 0.0
C458 C 0.34956 0.4604 0.47142 0.0
C459 C 0.38794 0.47926 0.58548 0.0
C460 C 0.37512 0.47274 0.5455 0.0
H461 H 0.33036 0.4193 0.35335 0.0
H462 H 0.355 0.43116 0.40914 0.0
H463 H 0.34078 0.49114 0.45526 0.0
H464 H 0.38558 0.50895 0.67994 0.0
H465 H 0.36442 0.49702 0.61651 0.0
C466 C 0.98815 0.32475 0.38696 0.0
C467 C 0.0039 0.32799 0.35256 0.0
C468 C 0.98246 0.33863 0.41965 0.0
C469 C 0.98713 0.38996 0.44393 0.0
H470 H 0.98409 0.36907 0.58628 0.0
C471 C 0.9956 0.43755 0.60782 0.0
C472 C 0.98464 0.43351 0.65277 0.0
C473 C 0.99513 0.4254 0.56895 0.0
C474 C 0.98449 0.37519 0.54668 0.0
H475 H 0.02516 0.3488 0.32319 0.0
H476 H 0.01523 0.37304 0.38018 0.0
H477 H 0.9875 0.34695 0.52087 0.0
H478 H 0.96415 0.41384 0.69143 0.0
H479 H 0.9631 0.3927 0.62329 0.0
H480 H 0.98436 0.41822 0.46976 0.0
C481 C 0.00727 0.35979 0.38195 0.0
C482 C 0.98647 0.36247 0.50912 0.0
C483 C 0.01305 0.34586 0.34953 0.0
C484 C 0.97294 0.41719 0.65756 0.0
C485 C 0.97237 0.40508 0.61849 0.0
C486 C 0.98504 0.40269 0.48147 0.0
C487 C 0.99229 0.35609 0.41838 0.0
C488 C 0.98814 0.3697 0.4574 0.0
C489 C 0.9836 0.40894 0.57384 0.0
C490 C 0.98405 0.39547 0.53344 0.0
H491 H 0.98092 0.31106 0.39053 0.0
H492 H 0.97071 0.33546 0.44691 0.0
H493 H 0.98814 0.39597 0.40434 0.0
H494 H 0.00506 0.44978 0.60321 0.0
H495 H 0.0043 0.42864 0.53567 0.0
C496 C 0.85483 0.96941 0.15195 0.0
C497 C 0.83534 0.96802 0.13354 0.0
C498 C 0.87106 0.96928 0.1189 0.0
C499 C 0.88797 0.95846 0.99094 0.0
H500 H 0.92216 0.00116 0.00234 0.0
C501 C 0.94556 0.98324 0.83579 0.0
C502 C 0.96355 0.98991 0.85266 0.0
C503 C 0.93024 0.97875 0.87045 0.0
C504 C 0.91302 0.98894 0.999 0.0
H505 H 0.81784 0.96435 0.06625 0.0
H506 H 0.84622 0.96386 0.00883 0.0
H507 H 0.89551 0.99534 0.06325 0.0
H508 H 0.97991 0.99629 0.91941 0.0
H509 H 0.95362 0.98803 0.97953 0.0
H510 H 0.90558 0.95207 0.92652 0.0
C511 C 0.84892 0.96502 0.04889 0.0
C512 C 0.8977 0.98562 0.03401 0.0
C513 C 0.83265 0.96524 0.08192 0.0
C514 C 0.96612 0.99147 0.90495 0.0
C515 C 0.95096 0.98681 0.9395 0.0
C516 C 0.90346 0.96169 0.95599 0.0
C517 C 0.86821 0.96765 0.06671 0.0
C518 C 0.88499 0.97037 0.03044 0.0
C519 C 0.93269 0.98069 0.9227 0.0
C520 C 0.91618 0.97699 0.95961 0.0
H521 H 0.85748 0.97119 0.19167 0.0
H522 H 0.88582 0.97095 0.13394 0.0
H523 H 0.87844 0.94655 0.98734 0.0
H524 H 0.94314 0.98188 0.79573 0.0
H525 H 0.91631 0.97423 0.85606 0.0
C526 C 0.45682 0.82831 0.12026 0.0
C527 C 0.45757 0.81044 0.09955 0.0
C528 C 0.46132 0.84542 0.09017 0.0
C529 C 0.4642 0.86631 0.95502 0.0
H530 H 0.49258 0.90637 0.01164 0.0
C531 C 0.49081 0.93431 0.83152 0.0
C532 C 0.48767 0.95222 0.85154 0.0
C533 C 0.48754 0.91684 0.86156 0.0
C534 C 0.4845 0.89538 0.99543 0.0
H535 H 0.46437 0.79636 0.03171 0.0
H536 H 0.47251 0.82614 0.97941 0.0
H537 H 0.48668 0.87611 0.06481 0.0
H538 H 0.47859 0.96581 0.91879 0.0
H539 H 0.47286 0.93533 0.97103 0.0
H540 H 0.46212 0.88559 0.88555 0.0
C541 C 0.46797 0.82705 0.0185 0.0
C542 C 0.48109 0.87804 0.02589 0.0
C543 C 0.46336 0.80997 0.04849 0.0
C544 C 0.48116 0.95227 0.90218 0.0
C545 C 0.47801 0.9348 0.93226 0.0
C546 C 0.4677 0.88361 0.9245 0.0
C547 C 0.46679 0.84502 0.03877 0.0
C548 C 0.47082 0.86332 0.00613 0.0
C549 C 0.48118 0.91689 0.91232 0.0
C550 C 0.47781 0.89836 0.94443 0.0
H551 H 0.45217 0.82916 0.15931 0.0
H552 H 0.46 0.85904 0.10685 0.0
H553 H 0.45594 0.85544 0.93878 0.0
H554 H 0.49585 0.93378 0.79266 0.0
H555 H 0.49027 0.90325 0.84528 0.0
C556 C 0.6737 0.55334 0.17634 0.0
C557 C 0.68955 0.56472 0.15906 0.0
C558 C 0.65755 0.55141 0.14413 0.0
C559 C 0.63165 0.57004 0.02323 0.0
H560 H 0.62533 0.51531 0.0115 0.0
C561 C 0.5717 0.53869 0.89782 0.0
C562 C 0.57905 0.52423 0.86791 0.0
C563 C 0.5841 0.546 0.93307 0.0
C564 C 0.62692 0.53065 0.01441 0.0
H565 H 0.70003 0.58441 0.09632 0.0
H566 H 0.67166 0.58113 0.04005 0.0
H567 H 0.64742 0.52463 0.07706 0.0
H568 H 0.60573 0.50723 0.84982 0.0
H569 H 0.62701 0.51954 0.91226 0.0
H570 H 0.61112 0.57591 0.95995 0.0
C571 C 0.67181 0.57364 0.0784 0.0
C572 C 0.63938 0.53599 0.05226 0.0
C573 C 0.68808 0.57543 0.11049 0.0
C574 C 0.59932 0.51792 0.87288 0.0
C575 C 0.61159 0.52503 0.90853 0.0
C576 C 0.61887 0.56466 0.98571 0.0
C577 C 0.65683 0.56095 0.09417 0.0
C578 C 0.64207 0.55572 0.05676 0.0
C579 C 0.60402 0.53887 0.93959 0.0
C580 C 0.61667 0.5449 0.98052 0.0
H581 H 0.67446 0.54479 0.21337 0.0
H582 H 0.64608 0.5417 0.1574 0.0
H583 H 0.63349 0.58535 0.02588 0.0
H584 H 0.55621 0.5439 0.89559 0.0
H585 H 0.57791 0.55664 0.95673 0.0
C586 C 0.01822 0.70804 0.08028 0.0
C587 C 0.01619 0.70113 0.13212 0.0
C588 C 0.01588 0.69572 0.04244 0.0
C589 C 0.99527 0.64991 0.01399 0.0
H590 H 0.0385 0.64882 0.91694 0.0
C591 C 0.00682 0.58874 0.88244 0.0
C592 C 0.01519 0.59327 0.83405 0.0
C593 C 0.00499 0.60274 0.91678 0.0
C594 C 0.02606 0.64915 0.94295 0.0
H595 H 0.00924 0.67611 0.18474 0.0
H596 H 0.00498 0.65454 0.11831 0.0
H597 H 0.03826 0.67181 0.98027 0.0
H598 H 0.02731 0.6162 0.78278 0.0
H599 H 0.0236 0.64087 0.84189 0.0
H600 H 0.98293 0.62736 0.97645 0.0
C601 C 0.00843 0.66952 0.10714 0.0
C602 C 0.026 0.6623 0.97945 0.0
C603 C 0.01099 0.68181 0.14513 0.0
C604 C 0.02106 0.61226 0.82008 0.0
C605 C 0.01901 0.62634 0.85413 0.0
C606 C 0.99519 0.63687 0.97702 0.0
C607 C 0.01128 0.67624 0.05549 0.0
C608 C 0.01069 0.66274 0.01558 0.0
C609 C 0.0113 0.62168 0.90335 0.0
C610 C 0.01069 0.6362 0.94122 0.0
H611 H 0.02245 0.72277 0.06902 0.0
H612 H 0.01799 0.70134 0.00291 0.0
H613 H 0.98319 0.65005 0.04113 0.0
H614 H 0.0024 0.57415 0.89457 0.0
H615 H 0.99928 0.59845 0.95449 0.0
C616 C 0.99182 0.19109 0.4541 0.0
C617 C 0.01219 0.19208 0.44242 0.0
C618 C 0.98527 0.17621 0.48935 0.0
C619 C 0.00301 0.14007 0.59558 0.0
H620 H 0.95837 0.11083 0.55972 0.0
C621 C 0.98351 0.0725 0.72456 0.0
C622 C 0.98241 0.05591 0.69864 0.0
C623 C 0.98179 0.0911 0.69779 0.0
C624 C 0.97078 0.11893 0.57039 0.0
H625 H 0.0417 0.17854 0.45928 0.0
H626 H 0.0303 0.15251 0.52039 0.0
H627 H 0.96717 0.13967 0.50386 0.0
H628 H 0.97669 0.04583 0.62523 0.0
H629 H 0.974 0.07823 0.57841 0.0
H630 H 0.00734 0.11896 0.6606 0.0
C631 C 0.01938 0.16329 0.50259 0.0
C632 C 0.97573 0.13552 0.53863 0.0
C633 C 0.0259 0.17806 0.46719 0.0
C634 C 0.97765 0.05833 0.64629 0.0
C635 C 0.97606 0.07695 0.61943 0.0
C636 C 0.99806 0.12357 0.6273 0.0
C637 C 0.999 0.16214 0.51391 0.0
C638 C 0.99222 0.14595 0.55029 0.0
C639 C 0.97907 0.09347 0.64452 0.0
C640 C 0.98217 0.11254 0.61455 0.0
H641 H 0.98089 0.2016 0.43524 0.0
H642 H 0.96949 0.17574 0.4975 0.0
H643 H 0.01562 0.14797 0.60593 0.0
H644 H 0.9869 0.07112 0.76506 0.0
H645 H 0.98368 0.10357 0.71843 0.0
C646 C 0.32009 0.07815 0.49041 0.0
C647 C 0.31323 0.06961 0.44823 0.0
C648 C 0.33506 0.06857 0.52226 0.0
C649 C 0.37796 0.03456 0.52252 0.0
H650 H 0.37186 0.02791 0.66956 0.0
C651 C 0.4416 0.99865 0.65351 0.0
C652 C 0.44507 0.0074 0.69808 0.0
C653 C 0.42409 0.0035 0.62492 0.0
C654 C 0.37392 0.02981 0.62862 0.0
H655 H 0.31668 0.0446 0.40571 0.0
H656 H 0.34326 0.02803 0.46088 0.0
H657 H 0.34427 0.04257 0.61544 0.0
H658 H 0.43262 0.02762 0.74846 0.0
H659 H 0.40267 0.03654 0.69808 0.0
H660 H 0.40785 0.02279 0.53526 0.0
C661 C 0.33687 0.04199 0.46955 0.0
C662 C 0.35807 0.03814 0.59772 0.0
C663 C 0.32165 0.0514 0.43825 0.0
C664 C 0.4304 0.02054 0.7144 0.0
C665 C 0.41308 0.02558 0.68555 0.0
C666 C 0.39394 0.02654 0.55342 0.0
C667 C 0.34366 0.05048 0.51188 0.0
C668 C 0.36003 0.04074 0.54447 0.0
C669 C 0.40981 0.01738 0.63995 0.0
C670 C 0.39222 0.02427 0.60695 0.0
H671 H 0.31375 0.09215 0.49893 0.0
H672 H 0.34018 0.07546 0.55448 0.0
H673 H 0.37985 0.03656 0.4815 0.0
H674 H 0.45257 0.98837 0.64015 0.0
H675 H 0.42191 0.99658 0.59061 0.0
C676 C 0.50261 0.3495 0.44591 0.0
C677 C 0.48485 0.34042 0.45915 0.0
C678 C 0.50743 0.36623 0.46754 0.0
C679 C 0.48295 0.40621 0.531 0.0
H680 H 0.53702 0.4177 0.56423 0.0
C681 C 0.49648 0.47786 0.6077 0.0
C682 C 0.50911 0.47667 0.65054 0.0
C683 C 0.49664 0.46269 0.57702 0.0
C684 C 0.52183 0.41468 0.5553 0.0
H685 H 0.45881 0.34094 0.5073 0.0
H686 H 0.46745 0.36968 0.54635 0.0
H687 H 0.53085 0.38718 0.53 0.0
H688 H 0.53272 0.45941 0.6932 0.0
H689 H 0.53253 0.43248 0.64083 0.0
H690 H 0.47367 0.43301 0.55849 0.0
C691 C 0.47736 0.36438 0.51799 0.0
C692 C 0.51831 0.39726 0.53522 0.0
C693 C 0.47244 0.34784 0.49594 0.0
C694 C 0.52295 0.46072 0.66005 0.0
C695 C 0.52281 0.44529 0.62996 0.0
C696 C 0.48642 0.42345 0.55141 0.0
C697 C 0.49466 0.37409 0.50316 0.0
C698 C 0.49877 0.39273 0.52335 0.0
C699 C 0.50903 0.44574 0.5894 0.0
C700 C 0.50588 0.42793 0.56408 0.0
H701 H 0.51235 0.34412 0.41729 0.0
H702 H 0.52078 0.37338 0.45492 0.0
H703 H 0.46776 0.40346 0.52134 0.0
H704 H 0.48576 0.49011 0.59941 0.0
H705 H 0.4863 0.46386 0.54509 0.0
C706 C 0.17196 0.44255 0.46787 0.0
C707 C 0.17167 0.44506 0.41426 0.0
C708 C 0.15733 0.45198 0.4953 0.0
C709 C 0.11909 0.49261 0.48645 0.0
H710 H 0.09256 0.45973 0.59111 0.0
C711 C 0.04203 0.49027 0.60939 0.0
C712 C 0.04264 0.50673 0.63607 0.0
C713 C 0.05798 0.48498 0.57933 0.0
C714 C 0.09983 0.46909 0.56196 0.0
H715 H 0.15639 0.46002 0.34732 0.0
H716 H 0.13076 0.47642 0.39531 0.0
H717 H 0.12093 0.44625 0.54663 0.0
H718 H 0.05983 0.53137 0.64909 0.0
H719 H 0.08788 0.52211 0.59557 0.0
H720 H 0.09767 0.51542 0.50182 0.0
C721 C 0.14229 0.46718 0.41607 0.0
C722 C 0.11618 0.46143 0.53689 0.0
C723 C 0.1568 0.45761 0.38864 0.0
C724 C 0.05895 0.51862 0.62896 0.0
C725 C 0.07499 0.51332 0.59849 0.0
C726 C 0.1028 0.50037 0.51207 0.0
C727 C 0.14226 0.46426 0.46964 0.0
C728 C 0.12583 0.47301 0.49846 0.0
C729 C 0.0749 0.49605 0.57502 0.0
C730 C 0.09284 0.48855 0.54943 0.0
H731 H 0.18323 0.43294 0.48856 0.0
H732 H 0.15771 0.44957 0.53662 0.0
H733 H 0.12636 0.50188 0.45715 0.0
H734 H 0.02957 0.48093 0.61349 0.0
H735 H 0.05739 0.47182 0.56076 0.0
C736 C 0.04651 0.83732 0.10558 0.0
C737 C 0.0622 0.82295 0.10845 0.0
C738 C 0.04538 0.85225 0.0654 0.0
C739 C 0.0399 0.87324 0.95877 0.0
H740 H 0.08437 0.90562 0.92469 0.0
C741 C 0.04974 0.95488 0.86093 0.0
C742 C 0.03712 0.9552 0.81816 0.0
C743 C 0.05599 0.93722 0.88884 0.0
C744 C 0.07189 0.89659 0.9336 0.0
H745 H 0.08925 0.81313 0.07209 0.0
H746 H 0.08741 0.83961 0.00169 0.0
H747 H 0.08867 0.8775 0.98992 0.0
H748 H 0.02231 0.93716 0.76904 0.0
H749 H 0.03321 0.90636 0.81789 0.0
H750 H 0.0229 0.8925 0.90394 0.0
C751 C 0.07597 0.83915 0.03064 0.0
C752 C 0.07438 0.88048 0.97063 0.0
C753 C 0.07697 0.824 0.07066 0.0
C754 C 0.0319 0.93744 0.80203 0.0
C755 C 0.03808 0.9198 0.83009 0.0
C756 C 0.03746 0.88917 0.92153 0.0
C757 C 0.06 0.85325 0.02736 0.0
C758 C 0.05824 0.86897 0.98438 0.0
C759 C 0.04968 0.91954 0.87465 0.0
C760 C 0.0533 0.90127 0.90928 0.0
H761 H 0.03479 0.83675 0.13379 0.0
H762 H 0.03303 0.86305 0.06409 0.0
H763 H 0.02728 0.86447 0.96832 0.0
H764 H 0.0541 0.9683 0.87424 0.0
H765 H 0.06481 0.93751 0.92319 0.0
C766 C 0.68173 0.97891 0.07421 0.0
C767 C 0.69575 0.99333 0.06934 0.0
C768 C 0.66599 0.97946 0.03932 0.0
C769 C 0.63863 0.97954 0.94725 0.0
H770 H 0.60956 0.02959 0.91857 0.0
C771 C 0.55519 0.01137 0.87923 0.0
C772 C 0.55225 0.0015 0.83627 0.0
C773 C 0.57394 0.01066 0.90254 0.0
C774 C 0.61753 0.01552 0.92624 0.0
H775 H 0.70467 0.01928 0.02327 0.0
H776 H 0.67713 0.02022 0.96196 0.0
H777 H 0.64064 0.02723 0.96755 0.0
H778 H 0.56673 0.98324 0.78383 0.0
H779 H 0.5995 0.98197 0.82481 0.0
H780 H 0.61515 0.96774 0.90725 0.0
C781 C 0.67828 0.00857 0.99304 0.0
C782 C 0.63544 0.01421 0.95376 0.0
C783 C 0.69412 0.00794 0.02782 0.0
C784 C 0.56849 0.99096 0.81699 0.0
C785 C 0.58724 0.99017 0.8405 0.0
C786 C 0.62076 0.98088 0.91946 0.0
C787 C 0.66388 0.9945 0.99892 0.0
C788 C 0.646 0.99614 0.96528 0.0
C789 C 0.59014 0.0 0.88354 0.0
C790 C 0.60986 0.99883 0.90946 0.0
H791 H 0.68276 0.96734 0.10554 0.0
H792 H 0.65505 0.96851 0.04513 0.0
H793 H 0.64654 0.96545 0.95522 0.0
H794 H 0.54298 0.01959 0.89506 0.0
H795 H 0.57567 0.01817 0.93608 0.0
C796 C 0.42723 0.65475 0.09668 0.0
C797 C 0.44312 0.66442 0.11527 0.0
C798 C 0.4309 0.63789 0.07273 0.0
C799 C 0.46943 0.59865 0.05641 0.0
H800 H 0.44075 0.59491 0.93035 0.0
C801 C 0.49494 0.54689 0.90862 0.0
C802 C 0.48018 0.53842 0.88185 0.0
C803 C 0.48961 0.56033 0.94275 0.0
C804 C 0.44866 0.59553 0.96595 0.0
H805 H 0.47527 0.66361 0.12479 0.0
H806 H 0.48169 0.6345 0.08203 0.0
H807 H 0.4328 0.62213 0.9791 0.0
H808 H 0.44826 0.53663 0.8719 0.0
H809 H 0.43901 0.55986 0.93187 0.0
H810 H 0.48556 0.5722 0.04258 0.0
C811 C 0.46638 0.63982 0.08632 0.0
C812 C 0.4441 0.61116 0.99389 0.0
C813 C 0.46272 0.65667 0.11019 0.0
C814 C 0.46 0.543 0.89164 0.0
C815 C 0.45469 0.5564 0.92577 0.0
C816 C 0.474 0.58301 0.02841 0.0
C817 C 0.45053 0.63032 0.06696 0.0
C818 C 0.45457 0.61302 0.03916 0.0
C819 C 0.46943 0.56555 0.95082 0.0
C820 C 0.46379 0.58138 0.9826 0.0
H821 H 0.41197 0.6604 0.09977 0.0
H822 H 0.41835 0.63079 0.05866 0.0
H823 H 0.47757 0.59953 0.09155 0.0
H824 H 0.51063 0.54368 0.90191 0.0
H825 H 0.50134 0.56723 0.96113 0.0
C826 C 0.83848 0.53857 0.09653 0.0
C827 C 0.83813 0.52873 0.14607 0.0
C828 C 0.85516 0.53655 0.06572 0.0
C829 C 0.89619 0.53854 0.01918 0.0
H830 H 0.92288 0.48759 0.0155 0.0
C831 C 0.96643 0.52788 0.89836 0.0
C832 C 0.96698 0.51189 0.86977 0.0
C833 C 0.95213 0.5296 0.93623 0.0
C834 C 0.91554 0.5019 0.01597 0.0
H835 H 0.85512 0.50925 0.20244 0.0
H836 H 0.88437 0.50579 0.14866 0.0
H837 H 0.89472 0.49141 0.07243 0.0
H838 H 0.95329 0.48491 0.85941 0.0
H839 H 0.92817 0.48806 0.92483 0.0
H840 H 0.91649 0.54891 0.96141 0.0
C841 C 0.87159 0.51484 0.13338 0.0
C842 C 0.89955 0.50414 0.04902 0.0
C843 C 0.85486 0.51682 0.16417 0.0
C844 C 0.95328 0.4974 0.8808 0.0
C845 C 0.93895 0.49915 0.91854 0.0
C846 C 0.91214 0.5363 0.98609 0.0
C847 C 0.87193 0.52469 0.08378 0.0
C848 C 0.88956 0.52245 0.05059 0.0
C849 C 0.93804 0.5154 0.94624 0.0
C850 C 0.92189 0.51792 0.98373 0.0
H851 H 0.82569 0.54761 0.08122 0.0
H852 H 0.85477 0.54404 0.02736 0.0
H853 H 0.889 0.5529 0.01997 0.0
H854 H 0.97688 0.53923 0.89111 0.0
H855 H 0.95205 0.54213 0.95746 0.0
C856 C 0.02416 0.20872 0.05593 0.0
C857 C 0.01796 0.20651 0.10709 0.0
C858 C 0.02361 0.1932 0.02614 0.0
C859 C 0.00283 0.14444 0.02258 0.0
H860 H 0.04918 0.13431 0.94005 0.0
C861 C 0.02347 0.06877 0.96255 0.0
C862 C 0.02919 0.06743 0.91175 0.0
C863 C 0.02098 0.08686 0.9811 0.0
C864 C 0.03602 0.13709 0.96238 0.0
H865 H 0.00624 0.1862 0.1668 0.0
H866 H 0.00532 0.15934 0.11535 0.0
H867 H 0.04612 0.16423 0.98131 0.0
H868 H 0.0371 0.08405 0.84083 0.0
H869 H 0.03295 0.11584 0.87362 0.0
H870 H 0.99311 0.11697 0.00511 0.0
C871 C 0.01021 0.17313 0.09763 0.0
C872 C 0.03421 0.15427 0.98592 0.0
C873 C 0.01071 0.1886 0.12725 0.0
C874 C 0.0326 0.08464 0.88006 0.0
C875 C 0.03033 0.10279 0.89887 0.0
C876 C 0.00472 0.12724 0.99943 0.0
C877 C 0.01689 0.17511 0.0469 0.0
C878 C 0.01778 0.15797 0.01718 0.0
C879 C 0.0243 0.10408 0.94949 0.0
C880 C 0.02151 0.12319 0.96991 0.0
H881 H 0.02968 0.22237 0.03911 0.0
H882 H 0.0286 0.19533 0.98699 0.0
H883 H 0.98975 0.147 0.04538 0.0
H884 H 0.02044 0.05586 0.98779 0.0
H885 H 0.01655 0.08736 0.02045 0.0
C886 C 0.30662 0.10619 0.08988 0.0
C887 C 0.29503 0.09085 0.11006 0.0
C888 C 0.32254 0.10283 0.05736 0.0
C889 C 0.34741 0.06541 0.98259 0.0
H890 H 0.39448 0.09288 0.00884 0.0
C891 C 0.42237 0.04955 0.883 0.0
C892 C 0.43966 0.04866 0.91374 0.0
C893 C 0.40408 0.0569 0.9003 0.0
C894 C 0.38154 0.08496 0.00118 0.0
H895 H 0.29047 0.06012 0.10837 0.0
H896 H 0.31878 0.05407 0.05412 0.0
H897 H 0.36347 0.10082 0.05051 0.0
H898 H 0.45122 0.05579 0.9859 0.0
H899 H 0.41946 0.06778 0.0167 0.0
H900 H 0.36592 0.04868 0.93578 0.0
C901 C 0.31539 0.06882 0.06271 0.0
C902 C 0.36356 0.08976 0.0245 0.0
C903 C 0.29926 0.07224 0.09462 0.0
C904 C 0.43825 0.05591 0.96143 0.0
C905 C 0.41998 0.06309 0.97886 0.0
C906 C 0.36549 0.06043 0.9597 0.0
C907 C 0.32759 0.08398 0.04468 0.0
C908 C 0.34627 0.07989 0.01612 0.0
C909 C 0.40256 0.06348 0.94886 0.0
C910 C 0.38289 0.06993 0.96936 0.0
H911 H 0.30408 0.12071 0.101 0.0
H912 H 0.33122 0.115 0.04331 0.0
H913 H 0.33438 0.05768 0.97447 0.0
H914 H 0.42274 0.04403 0.84619 0.0
H915 H 0.39108 0.05724 0.87575 0.0
C916 C 0.46415 0.32873 0.10284 0.0
C917 C 0.48094 0.31875 0.12753 0.0
C918 C 0.46641 0.34357 0.06316 0.0
C919 C 0.50147 0.38014 0.01962 0.0
H920 H 0.46707 0.38939 0.89997 0.0
C921 C 0.50952 0.44657 0.87039 0.0
C922 C 0.49188 0.45637 0.85014 0.0
C923 C 0.50894 0.42856 0.89988 0.0
C924 C 0.47666 0.38712 0.93343 0.0
H925 H 0.51329 0.31582 0.1274 0.0
H926 H 0.51719 0.34197 0.05848 0.0
H927 H 0.46494 0.35943 0.9577 0.0
H928 H 0.45979 0.45486 0.8446 0.0
H929 H 0.45869 0.42363 0.89724 0.0
H930 H 0.51278 0.40799 0.99664 0.0
C931 C 0.50229 0.33838 0.07039 0.0
C932 C 0.4755 0.36991 0.96633 0.0
C933 C 0.50004 0.32342 0.10989 0.0
C934 C 0.47365 0.44766 0.85963 0.0
C935 C 0.47305 0.42968 0.8895 0.0
C936 C 0.50254 0.39738 0.98698 0.0
C937 C 0.48549 0.3489 0.0474 0.0
C938 C 0.48778 0.36632 0.01001 0.0
C939 C 0.49069 0.41994 0.91022 0.0
C940 C 0.49004 0.40118 0.94368 0.0
H941 H 0.44922 0.32582 0.11585 0.0
H942 H 0.45318 0.35154 0.04663 0.0
H943 H 0.51088 0.37796 0.05345 0.0
H944 H 0.52386 0.45277 0.86334 0.0
H945 H 0.52286 0.42134 0.91438 0.0
C946 C 0.18502 0.45307 0.05988 0.0
C947 C 0.18738 0.43405 0.08492 0.0
C948 C 0.16929 0.45828 0.02534 0.0
C949 C 0.11899 0.44339 0.99514 0.0
H950 H 0.12343 0.48152 0.87689 0.0
C951 C 0.05317 0.46723 0.85454 0.0
C952 C 0.05038 0.48737 0.84006 0.0
C953 C 0.07025 0.4596 0.88199 0.0
C954 C 0.12195 0.47092 0.90995 0.0
H955 H 0.17536 0.4054 0.09161 0.0
H956 H 0.14842 0.41431 0.03014 0.0
H957 H 0.15321 0.46988 0.92679 0.0
H958 H 0.06329 0.5153 0.84338 0.0
H959 H 0.09292 0.502 0.89117 0.0
H960 H 0.08769 0.44453 0.97827 0.0
C961 C 0.15849 0.42532 0.03801 0.0
C962 C 0.13901 0.46427 0.93859 0.0
C963 C 0.17416 0.42014 0.07272 0.0
C964 C 0.06495 0.49971 0.85389 0.0
C965 C 0.08204 0.49208 0.88094 0.0
C966 C 0.10195 0.44997 0.9663 0.0
C967 C 0.15557 0.44457 0.01478 0.0
C968 C 0.13771 0.4506 0.98196 0.0
C969 C 0.08494 0.47195 0.8951 0.0
C970 C 0.1032 0.46401 0.92383 0.0
H971 H 0.19506 0.4641 0.0679 0.0
H972 H 0.16745 0.47328 0.00847 0.0
H973 H 0.11735 0.4331 0.02876 0.0
H974 H 0.04225 0.45733 0.84439 0.0
H975 H 0.07214 0.44401 0.89219 0.0
C976 C 0.02508 0.81165 0.45509 0.0
C977 C 0.011 0.80237 0.42802 0.0
C978 C 0.01913 0.82676 0.48359 0.0
C979 C 0.97952 0.86503 0.48845 0.0
H980 H 0.00645 0.87316 0.61408 0.0
C981 C 0.98209 0.92551 0.64413 0.0
C982 C 0.98297 0.94252 0.6097 0.0
C983 C 0.98255 0.90714 0.62645 0.0
C984 C 0.99855 0.87101 0.57945 0.0
H985 H 0.97943 0.80131 0.4116 0.0
H986 H 0.96903 0.82789 0.46122 0.0
H987 H 0.01255 0.84255 0.57746 0.0
H988 H 0.98487 0.95327 0.52931 0.0
H989 H 0.98554 0.9215 0.49885 0.0
H990 H 0.96572 0.89359 0.49007 0.0
C991 C 0.98474 0.82349 0.45988 0.0
C992 C 0.0022 0.85354 0.55817 0.0
C993 C 0.9907 0.80828 0.43143 0.0
C994 C 0.98383 0.94065 0.55711 0.0
C995 C 0.98421 0.92235 0.5395 0.0
C996 C 0.9759 0.88252 0.50966 0.0
C997 C 0.99893 0.8331 0.4857 0.0
C998 C 0.99308 0.85052 0.5118 0.0
C999 C 0.98378 0.90535 0.57391 0.0
C1000 C 0.98572 0.8859 0.55478 0.0
H1001 H 0.04088 0.80786 0.45254 0.0
H1002 H 0.0305 0.83405 0.50217 0.0
H1003 H 0.97233 0.86326 0.45255 0.0
H1004 H 0.98111 0.92634 0.68479 0.0
H1005 H 0.98197 0.89434 0.65393 0.0
C1006 C 0.70568 0.96658 0.45361 0.0
C1007 C 0.70724 0.96129 0.40372 0.0
C1008 C 0.68804 0.96414 0.48111 0.0
C1009 C 0.63428 0.96199 0.45741 0.0
H1010 H 0.6318 0.94933 0.60418 0.0
C1011 C 0.55921 0.95905 0.56401 0.0
C1012 C 0.5582 0.96752 0.61007 0.0
C1013 C 0.57752 0.95613 0.54001 0.0
C1014 C 0.63226 0.95303 0.5632 0.0
H1015 H 0.69174 0.94831 0.34476 0.0
H1016 H 0.66124 0.94358 0.39318 0.0
H1017 H 0.66389 0.94703 0.56123 0.0
H1018 H 0.57587 0.97913 0.66752 0.0
H1019 H 0.60761 0.9745 0.62513 0.0
H1020 H 0.60278 0.96836 0.45933 0.0
C1021 C 0.67354 0.94995 0.41072 0.0
C1022 C 0.65064 0.95167 0.53859 0.0
C1023 C 0.69117 0.9524 0.38323 0.0
C1024 C 0.57599 0.97285 0.63173 0.0
C1025 C 0.59428 0.96992 0.60776 0.0
C1026 C 0.61593 0.96336 0.48198 0.0
C1027 C 0.67154 0.95634 0.45934 0.0
C1028 C 0.6519 0.95631 0.48543 0.0
C1029 C 0.59528 0.96158 0.56152 0.0
C1030 C 0.6147 0.95909 0.53523 0.0
H1031 H 0.71786 0.97329 0.47071 0.0
H1032 H 0.68701 0.96928 0.5184 0.0
H1033 H 0.63473 0.96604 0.41655 0.0
H1034 H 0.54582 0.95487 0.5461 0.0
H1035 H 0.57776 0.9495 0.50467 0.0
C1036 C 0.49101 0.69404 0.42829 0.0
C1037 C 0.47047 0.69835 0.41921 0.0
C1038 C 0.49758 0.67973 0.46744 0.0
C1039 C 0.4805 0.64979 0.58347 0.0
H1040 H 0.51842 0.61008 0.54331 0.0
C1041 C 0.48046 0.57062 0.66952 0.0
C1042 C 0.49863 0.56025 0.68306 0.0
C1043 C 0.48018 0.58927 0.64345 0.0
C1044 C 0.50813 0.62122 0.55549 0.0
H1045 H 0.44085 0.6911 0.44518 0.0
H1046 H 0.45224 0.6666 0.51323 0.0
H1047 H 0.51231 0.64048 0.48738 0.0
H1048 H 0.53082 0.56134 0.67955 0.0
H1049 H 0.53029 0.59409 0.63258 0.0
H1050 H 0.47559 0.63015 0.65031 0.0
C1051 C 0.46331 0.67441 0.49069 0.0
C1052 C 0.50463 0.63865 0.52354 0.0
C1053 C 0.45676 0.68857 0.45157 0.0
C1054 C 0.51659 0.56897 0.6696 0.0
C1055 C 0.5163 0.58766 0.64275 0.0
C1056 C 0.48392 0.63238 0.61518 0.0
C1057 C 0.48377 0.66954 0.49853 0.0
C1058 C 0.49025 0.65282 0.53638 0.0
C1059 C 0.49806 0.59802 0.62982 0.0
C1060 C 0.49724 0.61766 0.60068 0.0
H1061 H 0.502 0.70146 0.40454 0.0
H1062 H 0.51345 0.67642 0.47287 0.0
H1063 H 0.46965 0.66059 0.59496 0.0
H1064 H 0.46633 0.56439 0.67936 0.0
H1065 H 0.4659 0.59676 0.63323 0.0
C1066 C 0.83291 0.57585 0.4103 0.0
C1067 C 0.81589 0.56839 0.43461 0.0
C1068 C 0.85065 0.57654 0.43771 0.0
C1069 C 0.87362 0.57135 0.56717 0.0
H1070 H 0.91737 0.54513 0.50156 0.0
C1071 C 0.95213 0.55348 0.66075 0.0
C1072 C 0.95905 0.53394 0.66043 0.0
C1073 C 0.93537 0.56089 0.63165 0.0
C1074 C 0.90534 0.55257 0.52024 0.0
H1075 H 0.80364 0.55747 0.50753 0.0
H1076 H 0.83466 0.55862 0.55543 0.0
H1077 H 0.88623 0.55389 0.45485 0.0
H1078 H 0.95413 0.507 0.62855 0.0
H1079 H 0.92516 0.52001 0.57735 0.0
H1080 H 0.89269 0.56939 0.63323 0.0
C1081 C 0.8343 0.56391 0.51517 0.0
C1082 C 0.88756 0.55778 0.49335 0.0
C1083 C 0.81656 0.56312 0.48769 0.0
C1084 C 0.94916 0.5221 0.62968 0.0
C1085 C 0.93263 0.52958 0.60012 0.0
C1086 C 0.89154 0.56631 0.59396 0.0
C1087 C 0.85174 0.56987 0.49004 0.0
C1088 C 0.87135 0.56686 0.51682 0.0
C1089 C 0.92547 0.549 0.60107 0.0
C1090 C 0.90738 0.55645 0.57109 0.0
H1091 H 0.83296 0.57988 0.3694 0.0
H1092 H 0.86379 0.58145 0.41746 0.0
H1093 H 0.86141 0.5784 0.58615 0.0
H1094 H 0.95941 0.56293 0.68423 0.0
H1095 H 0.93019 0.57593 0.6329 0.0
loop_
_geom_bond_atom_site_label_1
_geom_bond_atom_site_label_2
_geom_bond_distance
_geom_bond_site_symmetry_2
_ccdc_geom_bond_type
P0 O11 1.490 . S
P0 C14 1.812 . S
P0 C20 1.803 . S
P0 C26 1.819 . S
H1 C15 0.941 . S
H2 C16 0.939 . S
H3 C18 0.940 . S
H4 C19 0.940 . S
H5 C21 0.939 . S
H6 C22 0.942 . S
H7 C24 0.940 . S
H8 C25 0.939 . S
H9 C27 0.941 . S
H10 C31 0.939 . S
O11 P0 1.490 . S
H12 C28 0.939 . S
H13 C30 0.940 1_556 S
C14 P0 1.812 . S
C14 C15 1.389 . S
C14 C19 1.391 . S
C15 H1 0.941 . S
C15 C14 1.389 . S
C15 C16 1.397 . S
C16 H2 0.939 . S
C16 C15 1.397 . S
C16 C17 1.378 . S
C17 C16 1.378 . S
C17 C18 1.378 . S
C18 H3 0.940 . S
C18 C17 1.378 . S
C18 C19 1.396 . S
C19 H4 0.940 . S
C19 C14 1.391 . S
C19 C18 1.396 . S
C20 P0 1.803 . S
C20 C21 1.378 . S
C20 C25 1.400 . S
C21 H5 0.939 . S
C21 C20 1.378 . S
C21 C22 1.361 . S
C22 H6 0.942 . S
C22 C21 1.361 . S
C22 C23 1.369 . S
C23 C22 1.369 . S
C23 C24 1.404 . S
C24 H7 0.940 . S
C24 C23 1.404 . S
C24 C25 1.389 . S
C25 H8 0.939 . S
C25 C20 1.400 . S
C25 C24 1.389 . S
C26 P0 1.819 . S
C26 C27 1.391 . S
C26 C31 1.391 . S
C27 H9 0.941 . S
C27 C26 1.391 . S
C27 C28 1.396 . S
C28 H12 0.939 . S
C28 C27 1.396 . S
C28 C29 1.397 . S
C29 C28 1.397 . S
C29 C30 1.385 . S
C30 H13 0.940 1_554 S
C30 C29 1.385 . S
C30 C31 1.388 . S
C31 H10 0.939 . S
C31 C26 1.391 . S
C31 C30 1.388 . S
P32 O43 1.490 . S
P32 C46 1.812 . S
P32 C52 1.803 . S
P32 C58 1.819 . S
H33 C47 0.941 . S
H34 C48 0.939 . S
H35 C50 0.940 . S
H36 C51 0.950 . S
H37 C53 0.939 . S
H38 C54 0.942 . S
H39 C56 0.940 . S
H40 C57 0.958 . S
H41 C59 0.941 . S
H42 C63 0.928 1_655 S
O43 P32 1.490 . S
H44 C60 0.939 . S
H45 C62 0.940 1_556 S
C46 P32 1.812 . S
C46 C47 1.389 . S
C46 C51 1.376 1_455 S
C47 H33 0.941 . S
C47 C46 1.389 . S
C47 C48 1.397 . S
C48 H34 0.939 . S
C48 C47 1.397 . S
C48 C49 1.378 . S
C49 C48 1.378 . S
C49 C50 1.378 1_455 S
C50 H35 0.940 . S
C50 C49 1.378 1_655 S
C50 C51 1.402 . S
C51 H36 0.950 . S
C51 C46 1.376 1_655 S
C51 C50 1.402 . S
C52 P32 1.803 . S
C52 C53 1.378 . S
C52 C57 1.368 1_455 S
C53 H37 0.939 . S
C53 C52 1.378 . S
C53 C54 1.361 . S
C54 H38 0.942 . S
C54 C53 1.361 . S
C54 C55 1.369 . S
C55 C54 1.369 . S
C55 C56 1.404 1_455 S
C56 H39 0.940 . S
C56 C55 1.404 1_655 S
C56 C57 1.403 . S
C57 H40 0.958 . S
C57 C52 1.368 1_655 S
C57 C56 1.403 . S
C58 P32 1.819 . S
C58 C59 1.391 . S
C58 C63 1.391 . S
C59 H41 0.941 . S
C59 C58 1.391 . S
C59 C60 1.396 . S
C60 H44 0.939 . S
C60 C59 1.396 . S
C60 C61 1.397 . S
C61 C60 1.397 . S
C61 C62 1.385 1_455 S
C62 H45 0.940 1_554 S
C62 C61 1.385 1_655 S
C62 C63 1.388 1_655 S
C63 H42 0.928 1_455 S
C63 C58 1.391 . S
C63 C62 1.388 1_455 S
P64 O75 1.490 . S
P64 C78 1.812 . S
P64 C84 1.803 . S
P64 C90 1.819 . S
H65 C79 0.941 . S
H66 C80 0.939 . S
H67 C82 0.940 . S
H68 C83 0.940 . S
H69 C85 0.939 . S
H70 C86 0.942 . S
H71 C88 0.940 . S
H72 C89 0.939 . S
H73 C91 0.941 . S
H74 C95 0.939 . S
O75 P64 1.490 . S
H76 C92 0.939 . S
H77 C94 0.940 . S
C78 P64 1.812 . S
C78 C79 1.389 . S
C78 C83 1.391 . S
C79 H65 0.941 . S
C79 C78 1.389 . S
C79 C80 1.397 . S
C80 H66 0.939 . S
C80 C79 1.397 . S
C80 C81 1.378 . S
C81 C80 1.378 . S
C81 C82 1.378 . S
C82 H67 0.940 . S
C82 C81 1.378 . S
C82 C83 1.396 . S
C83 H68 0.940 . S
C83 C78 1.391 . S
C83 C82 1.396 . S
C84 P64 1.803 . S
C84 C85 1.378 . S
C84 C89 1.400 . S
C85 H69 0.939 . S
C85 C84 1.378 . S
C85 C86 1.361 . S
C86 H70 0.942 . S
C86 C85 1.361 . S
C86 C87 1.369 . S
C87 C86 1.369 . S
C87 C88 1.404 . S
C88 H71 0.940 . S
C88 C87 1.404 . S
C88 C89 1.389 . S
C89 H72 0.939 . S
C89 C84 1.400 . S
C89 C88 1.389 . S
C90 P64 1.819 . S
C90 C91 1.391 . S
C90 C95 1.391 . S
C91 H73 0.941 . S
C91 C90 1.391 . S
C91 C92 1.396 . S
C92 H76 0.939 . S
C92 C91 1.396 . S
C92 C93 1.397 1_554 S
C93 C92 1.397 1_556 S
C93 C94 1.385 . S
C94 H77 0.940 . S
C94 C93 1.385 . S
C94 C95 1.388 1_556 S
C95 H74 0.939 . S
C95 C90 1.391 . S
C95 C94 1.388 1_554 S
P96 O107 1.490 . S
P96 C110 1.812 . S
P96 C116 1.803 . S
P96 C122 1.819 . S
H97 C111 0.941 . S
H98 C112 0.939 . S
H99 C114 0.940 . S
H100 C115 0.940 . S
H101 C117 0.939 . S
H102 C118 0.942 . S
H103 C120 0.940 . S
H104 C121 0.939 . S
H105 C123 0.941 . S
H106 C127 0.939 . S
O107 P96 1.490 . S
H108 C124 0.939 . S
H109 C126 0.940 1_556 S
C110 P96 1.812 . S
C110 C111 1.389 . S
C110 C115 1.391 . S
C111 H97 0.941 . S
C111 C110 1.389 . S
C111 C112 1.397 . S
C112 H98 0.939 . S
C112 C111 1.397 . S
C112 C113 1.378 . S
C113 C112 1.378 . S
C113 C114 1.378 . S
C114 H99 0.940 . S
C114 C113 1.378 . S
C114 C115 1.396 . S
C115 H100 0.940 . S
C115 C110 1.391 . S
C115 C114 1.396 . S
C116 P96 1.803 . S
C116 C117 1.378 . S
C116 C121 1.400 . S
C117 H101 0.939 . S
C117 C116 1.378 . S
C117 C118 1.361 . S
C118 H102 0.942 . S
C118 C117 1.361 . S
C118 C119 1.369 . S
C119 C118 1.369 . S
C119 C120 1.404 . S
C120 H103 0.940 . S
C120 C119 1.404 . S
C120 C121 1.389 . S
C121 H104 0.939 . S
C121 C116 1.400 . S
C121 C120 1.389 . S
C122 P96 1.819 . S
C122 C123 1.391 . S
C122 C127 1.391 . S
C123 H105 0.941 . S
C123 C122 1.391 . S
C123 C124 1.396 . S
C124 H108 0.939 . S
C124 C123 1.396 . S
C124 C125 1.397 . S
C125 C124 1.397 . S
C125 C126 1.385 . S
C126 H109 0.940 1_554 S
C126 C125 1.385 . S
C126 C127 1.388 . S
C127 H106 0.939 . S
C127 C122 1.391 . S
C127 C126 1.388 . S
P128 O139 1.490 . S
P128 C142 1.812 . S
P128 C148 1.803 . S
P128 C154 1.819 . S
H129 C143 0.941 . S
H130 C144 0.939 . S
H131 C146 0.940 . S
H132 C147 0.940 . S
H133 C149 0.939 . S
H134 C150 0.942 . S
H135 C152 0.940 . S
H136 C153 0.939 . S
H137 C155 0.941 . S
H138 C159 0.939 . S
O139 P128 1.490 . S
H140 C156 0.939 . S
H141 C158 0.940 . S
C142 P128 1.812 . S
C142 C143 1.389 . S
C142 C147 1.391 . S
C143 H129 0.941 . S
C143 C142 1.389 . S
C143 C144 1.397 . S
C144 H130 0.939 . S
C144 C143 1.397 . S
C144 C145 1.378 . S
C145 C144 1.378 . S
C145 C146 1.378 . S
C146 H131 0.940 . S
C146 C145 1.378 . S
C146 C147 1.396 . S
C147 H132 0.940 . S
C147 C142 1.391 . S
C147 C146 1.396 . S
C148 P128 1.803 . S
C148 C149 1.378 . S
C148 C153 1.400 . S
C149 H133 0.939 . S
C149 C148 1.378 . S
C149 C150 1.361 . S
C150 H134 0.942 . S
C150 C149 1.361 . S
C150 C151 1.369 . S
C151 C150 1.369 . S
C151 C152 1.404 . S
C152 H135 0.940 . S
C152 C151 1.404 . S
C152 C153 1.389 . S
C153 H136 0.939 . S
C153 C148 1.400 . S
C153 C152 1.389 . S
C154 P128 1.819 . S
C154 C155 1.391 . S
C154 C159 1.391 . S
C155 H137 0.941 . S
C155 C154 1.391 . S
C155 C156 1.396 . S
C156 H140 0.939 . S
C156 C155 1.396 . S
C156 C157 1.397 . S
C157 C156 1.397 . S
C157 C158 1.385 . S
C158 H141 0.940 . S
C158 C157 1.385 . S
C158 C159 1.388 . S
C159 H138 0.939 . S
C159 C154 1.391 . S
C159 C158 1.388 . S
P160 O171 1.490 . S
P160 C174 1.812 . S
P160 C180 1.803 . S
P160 C186 1.819 . S
H161 C175 0.941 . S
H162 C176 0.939 . S
H163 C178 0.940 . S
H164 C179 0.943 . S
H165 C181 0.939 . S
H166 C182 0.942 . S
H167 C184 0.940 . S
H168 C185 0.952 . S
H169 C187 0.941 . S
H170 C191 0.934 1_655 S
O171 P160 1.490 . S
H172 C188 0.939 . S
H173 C190 0.940 . S
C174 P160 1.812 . S
C174 C175 1.389 . S
C174 C179 1.387 1_455 S
C175 H161 0.941 . S
C175 C174 1.389 . S
C175 C176 1.397 . S
C176 H162 0.939 . S
C176 C175 1.397 . S
C176 C177 1.378 . S
C177 C176 1.378 . S
C177 C178 1.378 1_455 S
C178 H163 0.940 . S
C178 C177 1.378 1_655 S
C178 C179 1.398 . S
C179 H164 0.943 . S
C179 C174 1.387 1_655 S
C179 C178 1.398 . S
C180 P160 1.803 . S
C180 C181 1.378 . S
C180 C185 1.381 1_455 S
C181 H165 0.939 . S
C181 C180 1.378 . S
C181 C182 1.361 . S
C182 H166 0.942 . S
C182 C181 1.361 . S
C182 C183 1.369 . S
C183 C182 1.369 . S
C183 C184 1.404 1_455 S
C184 H167 0.940 . S
C184 C183 1.404 1_655 S
C184 C185 1.396 . S
C185 H168 0.952 . S
C185 C180 1.381 1_655 S
C185 C184 1.396 . S
C186 P160 1.819 . S
C186 C187 1.391 . S
C186 C191 1.391 . S
C187 H169 0.941 . S
C187 C186 1.391 . S
C187 C188 1.396 . S
C188 H172 0.939 . S
C188 C187 1.396 . S
C188 C189 1.397 . S
C189 C188 1.397 . S
C189 C190 1.385 1_455 S
C190 H173 0.940 . S
C190 C189 1.385 1_655 S
C190 C191 1.388 1_655 S
C191 H170 0.934 1_455 S
C191 C186 1.391 . S
C191 C190 1.388 1_455 S
P192 O203 1.490 . S
P192 C206 1.812 . S
P192 C212 1.803 . S
P192 C218 1.819 . S
H193 C207 0.941 . S
H194 C208 0.939 . S
H195 C210 0.940 . S
H196 C211 0.940 . S
H197 C213 0.939 . S
H198 C214 0.942 . S
H199 C216 0.940 . S
H200 C217 0.939 . S
H201 C219 0.941 . S
H202 C223 0.939 . S
O203 P192 1.490 . S
H204 C220 0.939 . S
H205 C222 0.940 . S
C206 P192 1.812 . S
C206 C207 1.389 . S
C206 C211 1.391 . S
C207 H193 0.941 . S
C207 C206 1.389 . S
C207 C208 1.397 . S
C208 H194 0.939 . S
C208 C207 1.397 . S
C208 C209 1.378 . S
C209 C208 1.378 . S
C209 C210 1.378 . S
C210 H195 0.940 . S
C210 C209 1.378 . S
C210 C211 1.396 . S
C211 H196 0.940 . S
C211 C206 1.391 . S
C211 C210 1.396 . S
C212 P192 1.803 . S
C212 C213 1.378 . S
C212 C217 1.400 . S
C213 H197 0.939 . S
C213 C212 1.378 . S
C213 C214 1.361 . S
C214 H198 0.942 . S
C214 C213 1.361 . S
C214 C215 1.369 . S
C215 C214 1.369 . S
C215 C216 1.404 . S
C216 H199 0.940 . S
C216 C215 1.404 . S
C216 C217 1.389 . S
C217 H200 0.939 . S
C217 C212 1.400 . S
C217 C216 1.389 . S
C218 P192 1.819 . S
C218 C219 1.391 . S
C218 C223 1.391 . S
C219 H201 0.941 . S
C219 C218 1.391 . S
C219 C220 1.396 . S
C220 H204 0.939 . S
C220 C219 1.396 . S
C220 C221 1.397 . S
C221 C220 1.397 . S
C221 C222 1.385 . S
C222 H205 0.940 . S
C222 C221 1.385 . S
C222 C223 1.388 . S
C223 H202 0.939 . S
C223 C218 1.391 . S
C223 C222 1.388 . S
P224 O235 1.490 . S
P224 C238 1.812 . S
P224 C244 1.803 . S
P224 C250 1.819 . S
H225 C239 0.941 . S
H226 C240 0.939 . S
H227 C242 0.940 . S
H228 C243 0.940 . S
H229 C245 0.939 . S
H230 C246 0.942 . S
H231 C248 0.940 . S
H232 C249 0.939 . S
H233 C251 0.941 . S
H234 C255 0.939 . S
O235 P224 1.490 . S
H236 C252 0.939 . S
H237 C254 0.940 . S
C238 P224 1.812 . S
C238 C239 1.389 . S
C238 C243 1.391 . S
C239 H225 0.941 . S
C239 C238 1.389 . S
C239 C240 1.397 . S
C240 H226 0.939 . S
C240 C239 1.397 . S
C240 C241 1.378 . S
C241 C240 1.378 . S
C241 C242 1.378 . S
C242 H227 0.940 . S
C242 C241 1.378 . S
C242 C243 1.396 . S
C243 H228 0.940 . S
C243 C238 1.391 . S
C243 C242 1.396 . S
C244 P224 1.803 . S
C244 C245 1.378 . S
C244 C249 1.400 . S
C245 H229 0.939 . S
C245 C244 1.378 . S
C245 C246 1.361 . S
C246 H230 0.942 . S
C246 C245 1.361 . S
C246 C247 1.369 . S
C247 C246 1.369 . S
C247 C248 1.404 . S
C248 H231 0.940 . S
C248 C247 1.404 . S
C248 C249 1.389 . S
C249 H232 0.939 . S
C249 C244 1.400 . S
C249 C248 1.389 . S
C250 P224 1.819 . S
C250 C251 1.391 . S
C250 C255 1.391 . S
C251 H233 0.941 . S
C251 C250 1.391 . S
C251 C252 1.396 . S
C252 H236 0.939 . S
C252 C251 1.396 . S
C252 C253 1.397 . S
C253 C252 1.397 . S
C253 C254 1.385 . S
C254 H237 0.940 . S
C254 C253 1.385 . S
C254 C255 1.388 . S
C255 H234 0.939 . S
C255 C250 1.391 . S
C255 C254 1.388 . S
Co256 N261 2.057 . S
Co256 O273 2.021 . S
Co256 O276 2.062 1_455 S
Co256 O280 2.117 1_455 S
Co256 O281 2.020 1_545 S
C257 O277 1.259 1_545 S
C257 O280 1.258 . S
Co258 N267 2.057 . S
Co258 O274 2.117 1_665 S
Co258 O275 2.020 1_565 S
Co258 O277 2.021 . S
Co258 O282 2.062 1_655 S
C259 N261 1.316 . S
C259 N262 1.347 . S
C259 H264 0.931 . S
C260 N261 1.375 1_655 S
C260 C263 1.350 . S
C260 H265 0.930 . S
N261 Co256 2.057 . S
N261 C259 1.316 . S
N261 C260 1.375 1_455 S
N262 C259 1.347 . S
N262 C263 1.373 1_455 S
C263 C260 1.350 . S
C263 N262 1.373 1_655 S
C263 H284 0.931 . S
H264 C259 0.931 . S
H265 C260 0.930 . S
C266 O273 1.259 . S
C266 O274 1.258 . S
N267 Co258 2.057 . S
N267 C268 1.316 . S
N267 C269 1.375 1_655 S
C268 N267 1.316 . S
C268 N270 1.347 . S
C268 H279 0.931 . S
C269 N267 1.375 1_455 S
C269 C271 1.350 . S
C269 H278 0.930 . S
N270 C268 1.347 . S
N270 C271 1.373 1_655 S
C271 C269 1.350 . S
C271 N270 1.373 1_455 S
C271 H285 0.931 . S
C272 O275 1.256 . S
C272 O276 1.255 . S
O273 Co256 2.021 . S
O273 C266 1.259 . S
O274 Co258 2.117 1_445 S
O274 C266 1.258 . S
O275 Co258 2.020 1_545 S
O275 C272 1.256 . S
O276 Co256 2.062 1_655 S
O276 C272 1.255 . S
O277 C257 1.259 1_565 S
O277 Co258 2.021 . S
H278 C269 0.930 . S
H279 C268 0.931 . S
O280 Co256 2.117 1_655 S
O280 C257 1.258 . S
O281 Co256 2.020 1_565 S
O281 C283 1.256 . S
O282 Co258 2.062 1_455 S
O282 C283 1.255 . S
C283 O281 1.256 . S
C283 O282 1.255 . S
H284 C263 0.931 . S
H285 C271 0.931 . S
Co286 N291 2.057 . S
Co286 O303 2.021 . S
Co286 O306 2.062 . S
Co286 O310 2.117 1_545 S
Co286 O311 2.020 . S
C287 O307 1.259 . S
C287 O310 1.258 . S
Co288 N297 2.048 1_545 S
Co288 O304 2.176 . S
Co288 O305 2.026 . S
Co288 O307 1.967 1_545 S
Co288 O312 2.065 1_545 S
C289 N291 1.316 . S
C289 N292 1.347 . S
C289 H294 0.931 . S
C290 N291 1.375 . S
C290 C293 1.350 . S
C290 H295 0.930 1_545 S
N291 Co286 2.057 . S
N291 C289 1.316 . S
N291 C290 1.375 . S
N292 C289 1.347 . S
N292 C293 1.373 . S
C293 C290 1.350 . S
C293 N292 1.373 . S
C293 H314 0.931 . S
H294 C289 0.931 . S
H295 C290 0.930 1_565 S
C296 O303 1.259 . S
C296 O304 1.258 . S
N297 Co288 2.048 1_565 S
N297 C298 1.352 . S
N297 C299 1.345 1_565 S
C298 N297 1.352 . S
C298 N300 1.347 . S
C298 H309 0.931 . S
C299 N297 1.345 1_545 S
C299 C301 1.350 . S
C299 H308 0.930 . S
N300 C298 1.347 . S
N300 C301 1.373 1_565 S
C301 C299 1.350 . S
C301 N300 1.373 1_545 S
C301 H315 0.931 . S
C302 O305 1.256 . S
C302 O306 1.255 . S
O303 Co286 2.021 . S
O303 C296 1.259 . S
O304 Co288 2.176 . S
O304 C296 1.258 . S
O305 Co288 2.026 . S
O305 C302 1.256 . S
O306 Co286 2.062 . S
O306 C302 1.255 . S
O307 C287 1.259 . S
O307 Co288 1.967 1_565 S
H308 C299 0.930 . S
H309 C298 0.931 . S
O310 Co286 2.117 1_565 S
O310 C287 1.258 . S
O311 Co286 2.020 . S
O311 C313 1.256 . S
O312 Co288 2.065 1_565 S
O312 C313 1.255 1_565 S
C313 O311 1.256 . S
C313 O312 1.255 1_545 S
H314 C293 0.931 . S
H315 C301 0.931 . S
Co316 N321 2.057 . S
Co316 O333 2.021 . S
Co316 O336 2.062 . S
Co316 O340 2.117 . S
Co316 O341 2.020 . S
C317 O337 1.259 . S
C317 O340 1.258 . S
Co318 N327 2.057 . S
Co318 O334 2.117 . S
Co318 O335 2.020 . S
Co318 O337 2.021 . S
Co318 O342 2.062 . S
C319 N321 1.316 . S
C319 N322 1.347 . S
C319 H324 0.931 . S
C320 N321 1.375 . S
C320 C323 1.350 . S
C320 H325 0.930 . S
N321 Co316 2.057 . S
N321 C319 1.316 . S
N321 C320 1.375 . S
N322 C319 1.347 . S
N322 C323 1.373 . S
C323 C320 1.350 . S
C323 N322 1.373 . S
C323 H344 0.931 . S
H324 C319 0.931 . S
H325 C320 0.930 . S
C326 O333 1.259 . S
C326 O334 1.258 . S
N327 Co318 2.057 . S
N327 C328 1.316 . S
N327 C329 1.375 . S
C328 N327 1.316 . S
C328 N330 1.347 . S
C328 H339 0.931 . S
C329 N327 1.375 . S
C329 C331 1.350 . S
C329 H338 0.930 . S
N330 C328 1.347 . S
N330 C331 1.373 . S
C331 C329 1.350 . S
C331 N330 1.373 . S
C331 H345 0.931 . S
C332 O335 1.256 . S
C332 O336 1.255 . S
O333 Co316 2.021 . S
O333 C326 1.259 . S
O334 Co318 2.117 . S
O334 C326 1.258 . S
O335 Co318 2.020 . S
O335 C332 1.256 . S
O336 Co316 2.062 . S
O336 C332 1.255 . S
O337 C317 1.259 . S
O337 Co318 2.021 . S
H338 C329 0.930 . S
H339 C328 0.931 . S
O340 Co316 2.117 . S
O340 C317 1.258 . S
O341 Co316 2.020 . S
O341 C343 1.256 . S
O342 Co318 2.062 . S
O342 C343 1.255 . S
C343 O341 1.256 . S
C343 O342 1.255 . S
H344 C323 0.931 . S
H345 C331 0.931 . S
Co346 N351 2.057 . S
Co346 O363 2.021 1_455 S
Co346 O366 2.062 1_455 S
Co346 O370 2.117 . S
Co346 O371 2.020 . S
C347 O367 1.259 . S
C347 O370 1.258 . S
Co348 N357 2.057 . S
Co348 O364 2.117 . S
Co348 O365 2.020 . S
Co348 O367 2.021 1_655 S
Co348 O372 2.062 1_655 S
C349 N351 1.316 . S
C349 N352 1.347 . S
C349 H354 0.931 1_455 S
C350 N351 1.375 . S
C350 C353 1.350 . S
C350 H355 0.930 . S
N351 Co346 2.057 . S
N351 C349 1.316 . S
N351 C350 1.375 . S
N352 C349 1.347 . S
N352 C353 1.373 . S
C353 C350 1.350 . S
C353 N352 1.373 . S
C353 H374 0.931 . S
H354 C349 0.931 1_655 S
H355 C350 0.930 . S
C356 O363 1.259 . S
C356 O364 1.258 . S
N357 Co348 2.057 . S
N357 C358 1.316 . S
N357 C359 1.375 . S
C358 N357 1.316 . S
C358 N360 1.347 . S
C358 H369 0.931 1_655 S
C359 N357 1.375 . S
C359 C361 1.350 . S
C359 H368 0.930 . S
N360 C358 1.347 . S
N360 C361 1.373 . S
C361 C359 1.350 . S
C361 N360 1.373 . S
C361 H375 0.931 . S
C362 O365 1.256 . S
C362 O366 1.255 . S
O363 Co346 2.021 1_655 S
O363 C356 1.259 . S
O364 Co348 2.117 . S
O364 C356 1.258 . S
O365 Co348 2.020 . S
O365 C362 1.256 . S
O366 Co346 2.062 1_655 S
O366 C362 1.255 . S
O367 C347 1.259 . S
O367 Co348 2.021 1_455 S
H368 C359 0.930 . S
H369 C358 0.931 1_455 S
O370 Co346 2.117 . S
O370 C347 1.258 . S
O371 Co346 2.020 . S
O371 C373 1.256 . S
O372 Co348 2.062 1_455 S
O372 C373 1.255 . S
C373 O371 1.256 . S
C373 O372 1.255 . S
H374 C353 0.931 . S
H375 C361 0.931 . S
C376 C377 1.349 . S
C376 C378 1.327 . S
C376 H401 0.950 . S
C377 C376 1.349 . S
C377 C393 1.349 . S
C378 C376 1.327 . S
C378 C397 1.429 . S
C378 H402 0.950 . S
C379 C396 1.574 . S
C379 C398 1.368 . S
C379 H403 0.949 . S
H380 C384 0.949 . S
C381 C382 1.349 . S
C381 C383 1.327 . S
C381 H404 0.950 . S
C382 C381 1.349 . S
C382 C394 1.349 . S
C383 C381 1.327 . S
C383 C399 1.429 . S
C383 H405 0.950 . S
C384 H380 0.949 . S
C384 C392 1.574 . S
C384 C400 1.368 . S
H385 C393 0.950 . S
H386 C391 0.950 . S
H387 C392 0.949 . S
H388 C394 0.950 1_565 S
H389 C395 0.950 . S
H390 C396 0.949 . S
C391 H386 0.950 . S
C391 C393 1.327 . S
C391 C397 1.429 . S
C392 C384 1.574 . S
C392 H387 0.949 . S
C392 C398 1.368 . S
C393 C377 1.349 . S
C393 H385 0.950 . S
C393 C391 1.327 . S
C394 C382 1.349 . S
C394 H388 0.950 1_545 S
C394 C395 1.327 . S
C395 H389 0.950 . S
C395 C394 1.327 . S
C395 C399 1.429 . S
C396 C379 1.574 . S
C396 H390 0.949 . S
C396 C400 1.368 . S
C397 C378 1.429 . S
C397 C391 1.429 . S
C397 C398 1.523 . S
C398 C379 1.368 . S
C398 C392 1.368 . S
C398 C397 1.523 . S
C399 C383 1.429 . S
C399 C395 1.429 . S
C399 C400 1.523 . S
C400 C384 1.368 . S
C400 C396 1.368 . S
C400 C399 1.523 . S
H401 C376 0.950 . S
H402 C378 0.950 . S
H403 C379 0.949 . S
H404 C381 0.950 . S
H405 C383 0.950 . S
C406 C407 1.349 . S
C406 C408 1.327 . S
C406 H431 0.950 . S
C407 C406 1.349 . S
C407 C423 1.349 . S
C408 C406 1.327 . S
C408 C427 1.429 . S
C408 H432 0.950 . S
C409 C426 1.574 . S
C409 C428 1.368 . S
C409 H433 0.949 . S
H410 C414 0.949 . S
C411 C412 1.349 . S
C411 C413 1.327 . S
C411 H434 0.950 . S
C412 C411 1.349 . S
C412 C424 1.349 . S
C413 C411 1.327 . S
C413 C429 1.429 . S
C413 H435 0.950 . S
C414 H410 0.949 . S
C414 C422 1.574 . S
C414 C430 1.368 . S
H415 C423 0.950 . S
H416 C421 0.950 . S
H417 C422 0.949 . S
H418 C424 0.950 . S
H419 C425 0.950 . S
H420 C426 0.949 . S
C421 H416 0.950 . S
C421 C423 1.327 . S
C421 C427 1.429 . S
C422 C414 1.574 . S
C422 H417 0.949 . S
C422 C428 1.368 . S
C423 C407 1.349 . S
C423 H415 0.950 . S
C423 C421 1.327 . S
C424 C412 1.349 . S
C424 H418 0.950 . S
C424 C425 1.327 . S
C425 H419 0.950 . S
C425 C424 1.327 . S
C425 C429 1.429 . S
C426 C409 1.574 . S
C426 H420 0.949 . S
C426 C430 1.368 . S
C427 C408 1.429 . S
C427 C421 1.429 . S
C427 C428 1.523 . S
C428 C409 1.368 . S
C428 C422 1.368 . S
C428 C427 1.523 . S
C429 C413 1.429 . S
C429 C425 1.429 . S
C429 C430 1.523 . S
C430 C414 1.368 . S
C430 C426 1.368 . S
C430 C429 1.523 . S
H431 C406 0.950 . S
H432 C408 0.950 . S
H433 C409 0.949 . S
H434 C411 0.950 . S
H435 C413 0.950 . S
C436 C437 1.349 . S
C436 C438 1.327 . S
C436 H461 0.950 . S
C437 C436 1.349 . S
C437 C453 1.349 . S
C438 C436 1.327 . S
C438 C457 1.429 . S
C438 H462 0.950 . S
C439 C456 1.574 . S
C439 C458 1.368 . S
C439 H463 0.949 . S
H440 C444 0.949 . S
C441 C442 1.349 . S
C441 C443 1.327 . S
C441 H464 0.950 . S
C442 C441 1.349 . S
C442 C454 1.349 . S
C443 C441 1.327 . S
C443 C459 1.429 . S
C443 H465 0.950 . S
C444 H440 0.949 . S
C444 C452 1.574 . S
C444 C460 1.368 . S
H445 C453 0.950 . S
H446 C451 0.950 . S
H447 C452 0.949 . S
H448 C454 0.950 . S
H449 C455 0.950 . S
H450 C456 0.949 . S
C451 H446 0.950 . S
C451 C453 1.327 . S
C451 C457 1.429 . S
C452 C444 1.574 . S
C452 H447 0.949 . S
C452 C458 1.368 . S
C453 C437 1.349 . S
C453 H445 0.950 . S
C453 C451 1.327 . S
C454 C442 1.349 . S
C454 H448 0.950 . S
C454 C455 1.327 . S
C455 H449 0.950 . S
C455 C454 1.327 . S
C455 C459 1.429 . S
C456 C439 1.574 . S
C456 H450 0.949 . S
C456 C460 1.368 . S
C457 C438 1.429 . S
C457 C451 1.429 . S
C457 C458 1.523 . S
C458 C439 1.368 . S
C458 C452 1.368 . S
C458 C457 1.523 . S
C459 C443 1.429 . S
C459 C455 1.429 . S
C459 C460 1.523 . S
C460 C444 1.368 . S
C460 C456 1.368 . S
C460 C459 1.523 . S
H461 C436 0.950 . S
H462 C438 0.950 . S
H463 C439 0.949 . S
H464 C441 0.950 . S
H465 C443 0.950 . S
C466 C467 1.347 1_455 S
C466 C468 1.327 . S
C466 H491 0.950 . S
C467 C466 1.347 1_655 S
C467 C483 1.352 . S
C468 C466 1.327 . S
C468 C487 1.429 1_455 S
C468 H492 0.950 . S
C469 C486 1.574 . S
C469 C488 1.368 . S
C469 H493 0.949 . S
H470 C474 0.949 1_455 S
C471 C472 1.349 . S
C471 C473 1.327 . S
C471 H494 0.950 . S
C472 C471 1.349 . S
C472 C484 1.349 . S
C473 C471 1.327 . S
C473 C489 1.429 . S
C473 H495 0.950 . S
C474 H470 0.949 1_655 S
C474 C482 1.575 . S
C474 C490 1.368 . S
H475 C483 0.950 . S
H476 C481 0.950 . S
H477 C482 0.945 1_455 S
H478 C484 0.950 . S
H479 C485 0.950 . S
H480 C486 0.949 . S
C481 H476 0.950 . S
C481 C483 1.327 . S
C481 C487 1.429 . S
C482 C474 1.575 . S
C482 H477 0.945 1_655 S
C482 C488 1.374 . S
C483 C467 1.352 . S
C483 H475 0.950 . S
C483 C481 1.327 . S
C484 C472 1.349 . S
C484 H478 0.950 . S
C484 C485 1.327 . S
C485 H479 0.950 . S
C485 C484 1.327 . S
C485 C489 1.429 . S
C486 C469 1.574 . S
C486 H480 0.949 . S
C486 C490 1.368 . S
C487 C468 1.429 1_655 S
C487 C481 1.429 . S
C487 C488 1.523 . S
C488 C469 1.368 . S
C488 C482 1.374 . S
C488 C487 1.523 . S
C489 C473 1.429 . S
C489 C485 1.429 . S
C489 C490 1.523 . S
C490 C474 1.368 . S
C490 C486 1.368 . S
C490 C489 1.523 . S
H491 C466 0.950 . S
H492 C468 0.950 . S
H493 C469 0.949 . S
H494 C471 0.950 . S
H495 C473 0.950 . S
C496 C497 1.349 . S
C496 C498 1.327 . S
C496 H521 0.950 . S
C497 C496 1.349 . S
C497 C513 1.349 . S
C498 C496 1.327 . S
C498 C517 1.429 1_554 S
C498 H522 0.950 . S
C499 C516 1.574 . S
C499 C518 1.368 . S
C499 H523 0.949 . S
H500 C504 0.949 1_545 S
C501 C502 1.349 . S
C501 C503 1.327 . S
C501 H524 0.950 . S
C502 C501 1.349 . S
C502 C514 1.349 1_565 S
C503 C501 1.327 . S
C503 C519 1.429 . S
C503 H525 0.950 . S
C504 H500 0.949 1_565 S
C504 C512 1.574 . S
C504 C520 1.368 . S
H505 C513 0.950 1_556 S
H506 C511 0.950 . S
H507 C512 0.949 . S
H508 C514 0.950 . S
H509 C515 0.950 . S
H510 C516 0.949 . S
C511 H506 0.950 . S
C511 C513 1.327 1_556 S
C511 C517 1.429 . S
C512 C504 1.574 . S
C512 H507 0.949 . S
C512 C518 1.368 . S
C513 C497 1.349 . S
C513 H505 0.950 1_554 S
C513 C511 1.327 1_554 S
C514 C502 1.349 1_545 S
C514 H508 0.950 . S
C514 C515 1.327 . S
C515 H509 0.950 . S
C515 C514 1.327 . S
C515 C519 1.429 1_545 S
C516 C499 1.574 . S
C516 H510 0.949 . S
C516 C520 1.368 . S
C517 C498 1.429 1_556 S
C517 C511 1.429 . S
C517 C518 1.523 . S
C518 C499 1.368 . S
C518 C512 1.368 . S
C518 C517 1.523 . S
C519 C503 1.429 . S
C519 C515 1.429 1_565 S
C519 C520 1.523 . S
C520 C504 1.368 . S
C520 C516 1.368 . S
C520 C519 1.523 . S
H521 C496 0.950 . S
H522 C498 0.950 . S
H523 C499 0.949 . S
H524 C501 0.950 . S
H525 C503 0.950 . S
C526 C527 1.349 . S
C526 C528 1.327 . S
C526 H551 0.950 . S
C527 C526 1.349 . S
C527 C543 1.349 . S
C528 C526 1.327 . S
C528 C547 1.429 1_554 S
C528 H552 0.950 . S
C529 C546 1.574 . S
C529 C548 1.368 . S
C529 H553 0.949 . S
H530 C534 0.949 . S
C531 C532 1.349 . S
C531 C533 1.327 . S
C531 H554 0.950 . S
C532 C531 1.349 . S
C532 C544 1.349 . S
C533 C531 1.327 . S
C533 C549 1.429 . S
C533 H555 0.950 . S
C534 H530 0.949 . S
C534 C542 1.574 . S
C534 C550 1.368 . S
H535 C543 0.950 1_556 S
H536 C541 0.950 . S
H537 C542 0.949 1_554 S
H538 C544 0.950 . S
H539 C545 0.950 . S
H540 C546 0.949 . S
C541 H536 0.950 . S
C541 C543 1.327 1_556 S
C541 C547 1.429 . S
C542 C534 1.574 . S
C542 H537 0.949 1_556 S
C542 C548 1.368 . S
C543 C527 1.349 . S
C543 H535 0.950 1_554 S
C543 C541 1.327 1_554 S
C544 C532 1.349 . S
C544 H538 0.950 . S
C544 C545 1.327 . S
C545 H539 0.950 . S
C545 C544 1.327 . S
C545 C549 1.429 . S
C546 C529 1.574 . S
C546 H540 0.949 . S
C546 C550 1.368 . S
C547 C528 1.429 1_556 S
C547 C541 1.429 . S
C547 C548 1.523 . S
C548 C529 1.368 . S
C548 C542 1.368 . S
C548 C547 1.523 . S
C549 C533 1.429 . S
C549 C545 1.429 . S
C549 C550 1.523 . S
C550 C534 1.368 . S
C550 C546 1.368 . S
C550 C549 1.523 . S
H551 C526 0.950 . S
H552 C528 0.950 . S
H553 C529 0.949 . S
H554 C531 0.950 . S
H555 C533 0.950 . S
C556 C557 1.349 . S
C556 C558 1.327 . S
C556 H581 0.950 . S
C557 C556 1.349 . S
C557 C573 1.349 . S
C558 C556 1.327 . S
C558 C577 1.429 . S
C558 H582 0.950 . S
C559 C576 1.574 . S
C559 C578 1.368 . S
C559 H583 0.949 . S
H560 C564 0.949 . S
C561 C562 1.349 . S
C561 C563 1.327 . S
C561 H584 0.950 . S
C562 C561 1.349 . S
C562 C574 1.349 . S
C563 C561 1.327 . S
C563 C579 1.429 . S
C563 H585 0.950 . S
C564 H560 0.949 . S
C564 C572 1.574 . S
C564 C580 1.368 . S
H565 C573 0.950 . S
H566 C571 0.950 . S
H567 C572 0.949 1_554 S
H568 C574 0.950 . S
H569 C575 0.950 . S
H570 C576 0.949 . S
C571 H566 0.950 . S
C571 C573 1.327 1_556 S
C571 C577 1.429 1_556 S
C572 C564 1.574 . S
C572 H567 0.949 1_556 S
C572 C578 1.368 . S
C573 C557 1.349 . S
C573 H565 0.950 . S
C573 C571 1.327 1_554 S
C574 C562 1.349 . S
C574 H568 0.950 . S
C574 C575 1.327 . S
C575 H569 0.950 . S
C575 C574 1.327 . S
C575 C579 1.429 . S
C576 C559 1.574 . S
C576 H570 0.949 . S
C576 C580 1.368 . S
C577 C558 1.429 . S
C577 C571 1.429 1_554 S
C577 C578 1.523 1_554 S
C578 C559 1.368 . S
C578 C572 1.368 . S
C578 C577 1.523 1_556 S
C579 C563 1.429 . S
C579 C575 1.429 . S
C579 C580 1.523 . S
C580 C564 1.368 . S
C580 C576 1.368 . S
C580 C579 1.523 . S
H581 C556 0.950 . S
H582 C558 0.950 . S
H583 C559 0.949 . S
H584 C561 0.950 . S
H585 C563 0.950 . S
C586 C587 1.362 . S
C586 C588 1.327 . S
C586 H611 0.950 . S
C587 C586 1.362 . S
C587 C603 1.336 1_455 S
C588 C586 1.327 . S
C588 C607 1.429 . S
C588 H612 0.950 1_554 S
C589 C606 1.574 . S
C589 C608 1.368 1_655 S
C589 H613 0.949 1_556 S
H590 C594 0.949 . S
C591 C592 1.349 1_655 S
C591 C593 1.327 . S
C591 H614 0.950 . S
C592 C591 1.349 1_455 S
C592 C604 1.349 . S
C593 C591 1.327 . S
C593 C609 1.429 1_655 S
C593 H615 0.950 . S
C594 H590 0.949 . S
C594 C602 1.574 . S
C594 C610 1.368 . S
H595 C603 0.950 . S
H596 C601 0.950 . S
H597 C602 0.949 . S
H598 C604 0.950 . S
H599 C605 0.950 . S
H600 C606 0.949 . S
C601 H596 0.950 . S
C601 C603 1.327 . S
C601 C607 1.429 1_655 S
C602 C594 1.574 . S
C602 H597 0.949 . S
C602 C608 1.368 . S
C603 C587 1.336 1_655 S
C603 H595 0.950 . S
C603 C601 1.327 . S
C604 C592 1.349 . S
C604 H598 0.950 . S
C604 C605 1.327 . S
C605 H599 0.950 . S
C605 C604 1.327 . S
C605 C609 1.429 . S
C606 C589 1.574 . S
C606 H600 0.949 . S
C606 C610 1.368 1_655 S
C607 C588 1.429 . S
C607 C601 1.429 1_455 S
C607 C608 1.523 1_554 S
C608 C589 1.368 1_455 S
C608 C602 1.368 . S
C608 C607 1.523 1_556 S
C609 C593 1.429 1_455 S
C609 C605 1.429 . S
C609 C610 1.523 . S
C610 C594 1.368 . S
C610 C606 1.368 1_455 S
C610 C609 1.523 . S
H611 C586 0.950 . S
H612 C588 0.950 1_556 S
H613 C589 0.949 1_554 S
H614 C591 0.950 . S
H615 C593 0.950 . S
C616 C617 1.349 . S
C616 C618 1.334 . S
C616 H641 0.950 . S
C617 C616 1.349 . S
C617 C633 1.344 1_455 S
C618 C616 1.334 . S
C618 C637 1.423 1_455 S
C618 H642 0.951 . S
C619 C636 1.574 . S
C619 C638 1.368 . S
C619 H643 0.949 . S
H620 C624 0.949 . S
C621 C622 1.349 . S
C621 C623 1.327 . S
C621 H644 0.950 . S
C622 C621 1.349 . S
C622 C634 1.349 . S
C623 C621 1.327 . S
C623 C639 1.429 . S
C623 H645 0.950 . S
C624 H620 0.949 . S
C624 C632 1.574 . S
C624 C640 1.368 . S
H625 C633 0.951 . S
H626 C631 0.950 . S
H627 C632 0.957 . S
H628 C634 0.950 . S
H629 C635 0.950 . S
H630 C636 0.949 . S
C631 H626 0.950 . S
C631 C633 1.334 . S
C631 C637 1.429 . S
C632 C624 1.574 . S
C632 H627 0.957 . S
C632 C638 1.368 . S
C633 C617 1.344 1_655 S
C633 H625 0.951 . S
C633 C631 1.334 . S
C634 C622 1.349 . S
C634 H628 0.950 . S
C634 C635 1.327 . S
C635 H629 0.950 . S
C635 C634 1.327 . S
C635 C639 1.429 . S
C636 C619 1.574 . S
C636 H630 0.949 . S
C636 C640 1.368 . S
C637 C618 1.423 1_655 S
C637 C631 1.429 . S
C637 C638 1.523 . S
C638 C619 1.368 . S
C638 C632 1.368 . S
C638 C637 1.523 . S
C639 C623 1.429 . S
C639 C635 1.429 . S
C639 C640 1.523 . S
C640 C624 1.368 . S
C640 C636 1.368 . S
C640 C639 1.523 . S
H641 C616 0.950 . S
H642 C618 0.951 . S
H643 C619 0.949 . S
H644 C621 0.950 . S
H645 C623 0.950 . S
C646 C647 1.349 . S
C646 C648 1.327 . S
C646 H671 0.950 . S
C647 C646 1.349 . S
C647 C663 1.349 . S
C648 C646 1.327 . S
C648 C667 1.429 . S
C648 H672 0.950 . S
C649 C666 1.574 . S
C649 C668 1.368 . S
C649 H673 0.949 . S
H650 C654 0.949 . S
C651 C652 1.349 . S
C651 C653 1.327 . S
C651 H674 0.950 1_545 S
C652 C651 1.349 . S
C652 C664 1.349 . S
C653 C651 1.327 . S
C653 C669 1.429 . S
C653 H675 0.950 . S
C654 H650 0.949 . S
C654 C662 1.574 . S
C654 C670 1.368 . S
H655 C663 0.950 . S
H656 C661 0.950 . S
H657 C662 0.949 . S
H658 C664 0.950 . S
H659 C665 0.950 . S
H660 C666 0.949 . S
C661 H656 0.950 . S
C661 C663 1.327 . S
C661 C667 1.429 . S
C662 C654 1.574 . S
C662 H657 0.949 . S
C662 C668 1.368 . S
C663 C647 1.349 . S
C663 H655 0.950 . S
C663 C661 1.327 . S
C664 C652 1.349 . S
C664 H658 0.950 . S
C664 C665 1.327 . S
C665 H659 0.950 . S
C665 C664 1.327 . S
C665 C669 1.429 . S
C666 C649 1.574 . S
C666 H660 0.949 . S
C666 C670 1.368 . S
C667 C648 1.429 . S
C667 C661 1.429 . S
C667 C668 1.523 . S
C668 C649 1.368 . S
C668 C662 1.368 . S
C668 C667 1.523 . S
C669 C653 1.429 . S
C669 C665 1.429 . S
C669 C670 1.523 . S
C670 C654 1.368 . S
C670 C666 1.368 . S
C670 C669 1.523 . S
H671 C646 0.950 . S
H672 C648 0.950 . S
H673 C649 0.949 . S
H674 C651 0.950 1_565 S
H675 C653 0.950 . S
C676 C677 1.349 . S
C676 C678 1.327 . S
C676 H701 0.950 . S
C677 C676 1.349 . S
C677 C693 1.349 . S
C678 C676 1.327 . S
C678 C697 1.429 . S
C678 H702 0.950 . S
C679 C696 1.574 . S
C679 C698 1.368 . S
C679 H703 0.949 . S
H680 C684 0.949 . S
C681 C682 1.349 . S
C681 C683 1.327 . S
C681 H704 0.950 . S
C682 C681 1.349 . S
C682 C694 1.349 . S
C683 C681 1.327 . S
C683 C699 1.429 . S
C683 H705 0.950 . S
C684 H680 0.949 . S
C684 C692 1.574 . S
C684 C700 1.368 . S
H685 C693 0.950 . S
H686 C691 0.950 . S
H687 C692 0.949 . S
H688 C694 0.950 . S
H689 C695 0.950 . S
H690 C696 0.949 . S
C691 H686 0.950 . S
C691 C693 1.327 . S
C691 C697 1.429 . S
C692 C684 1.574 . S
C692 H687 0.949 . S
C692 C698 1.368 . S
C693 C677 1.349 . S
C693 H685 0.950 . S
C693 C691 1.327 . S
C694 C682 1.349 . S
C694 H688 0.950 . S
C694 C695 1.327 . S
C695 H689 0.950 . S
C695 C694 1.327 . S
C695 C699 1.429 . S
C696 C679 1.574 . S
C696 H690 0.949 . S
C696 C700 1.368 . S
C697 C678 1.429 . S
C697 C691 1.429 . S
C697 C698 1.523 . S
C698 C679 1.368 . S
C698 C692 1.368 . S
C698 C697 1.523 . S
C699 C683 1.429 . S
C699 C695 1.429 . S
C699 C700 1.523 . S
C700 C684 1.368 . S
C700 C696 1.368 . S
C700 C699 1.523 . S
H701 C676 0.950 . S
H702 C678 0.950 . S
H703 C679 0.949 . S
H704 C681 0.950 . S
H705 C683 0.950 . S
C706 C707 1.349 . S
C706 C708 1.327 . S
C706 H731 0.950 . S
C707 C706 1.349 . S
C707 C723 1.349 . S
C708 C706 1.327 . S
C708 C727 1.429 . S
C708 H732 0.950 . S
C709 C726 1.574 . S
C709 C728 1.368 . S
C709 H733 0.949 . S
H710 C714 0.949 . S
C711 C712 1.349 . S
C711 C713 1.327 . S
C711 H734 0.950 . S
C712 C711 1.349 . S
C712 C724 1.349 . S
C713 C711 1.327 . S
C713 C729 1.429 . S
C713 H735 0.950 . S
C714 H710 0.949 . S
C714 C722 1.574 . S
C714 C730 1.368 . S
H715 C723 0.950 . S
H716 C721 0.950 . S
H717 C722 0.949 . S
H718 C724 0.950 . S
H719 C725 0.950 . S
H720 C726 0.949 . S
C721 H716 0.950 . S
C721 C723 1.327 . S
C721 C727 1.429 . S
C722 C714 1.574 . S
C722 H717 0.949 . S
C722 C728 1.368 . S
C723 C707 1.349 . S
C723 H715 0.950 . S
C723 C721 1.327 . S
C724 C712 1.349 . S
C724 H718 0.950 . S
C724 C725 1.327 . S
C725 H719 0.950 . S
C725 C724 1.327 . S
C725 C729 1.429 . S
C726 C709 1.574 . S
C726 H720 0.949 . S
C726 C730 1.368 . S
C727 C708 1.429 . S
C727 C721 1.429 . S
C727 C728 1.523 . S
C728 C709 1.368 . S
C728 C722 1.368 . S
C728 C727 1.523 . S
C729 C713 1.429 . S
C729 C725 1.429 . S
C729 C730 1.523 . S
C730 C714 1.368 . S
C730 C726 1.368 . S
C730 C729 1.523 . S
H731 C706 0.950 . S
H732 C708 0.950 . S
H733 C709 0.949 . S
H734 C711 0.950 . S
H735 C713 0.950 . S
C736 C737 1.349 1_455 S
C736 C738 1.327 . S
C736 H761 0.950 . S
C737 C736 1.349 1_655 S
C737 C753 1.349 1_554 S
C738 C736 1.327 . S
C738 C757 1.429 1_554 S
C738 H762 0.950 . S
C739 C756 1.574 . S
C739 C758 1.368 1_655 S
C739 H763 0.949 . S
H740 C744 0.949 . S
C741 C742 1.349 1_655 S
C741 C743 1.327 . S
C741 H764 0.950 . S
C742 C741 1.349 1_455 S
C742 C754 1.349 . S
C743 C741 1.327 . S
C743 C759 1.429 1_655 S
C743 H765 0.950 . S
C744 H740 0.949 . S
C744 C752 1.574 . S
C744 C760 1.368 . S
H745 C753 0.950 . S
H746 C751 0.950 . S
H747 C752 0.949 . S
H748 C754 0.950 . S
H749 C755 0.950 . S
H750 C756 0.949 . S
C751 H746 0.950 . S
C751 C753 1.327 . S
C751 C757 1.429 1_655 S
C752 C744 1.574 . S
C752 H747 0.949 . S
C752 C758 1.368 . S
C753 C737 1.349 1_556 S
C753 H745 0.950 . S
C753 C751 1.327 . S
C754 C742 1.349 . S
C754 H748 0.950 . S
C754 C755 1.327 . S
C755 H749 0.950 . S
C755 C754 1.327 . S
C755 C759 1.429 . S
C756 C739 1.574 . S
C756 H750 0.949 . S
C756 C760 1.368 1_655 S
C757 C738 1.429 1_556 S
C757 C751 1.429 1_455 S
C757 C758 1.523 . S
C758 C739 1.368 1_455 S
C758 C752 1.368 . S
C758 C757 1.523 . S
C759 C743 1.429 1_455 S
C759 C755 1.429 . S
C759 C760 1.523 . S
C760 C744 1.368 . S
C760 C756 1.368 1_455 S
C760 C759 1.523 . S
H761 C736 0.950 . S
H762 C738 0.950 . S
H763 C739 0.949 . S
H764 C741 0.950 . S
H765 C743 0.950 . S
C766 C767 1.341 1_554 S
C766 C768 1.322 1_554 S
C766 H791 0.962 . S
C767 C766 1.341 1_556 S
C767 C783 1.349 . S
C768 C766 1.322 1_556 S
C768 C787 1.429 . S
C768 H792 0.950 . S
C769 C786 1.574 . S
C769 C788 1.368 . S
C769 H793 0.949 . S
H770 C774 0.949 . S
C771 C772 1.349 1_565 S
C771 C773 1.327 . S
C771 H794 0.950 . S
C772 C771 1.349 1_545 S
C772 C784 1.349 . S
C773 C771 1.327 . S
C773 C789 1.429 . S
C773 H795 0.950 . S
C774 H770 0.949 . S
C774 C782 1.574 . S
C774 C790 1.368 . S
H775 C783 0.950 . S
H776 C781 0.950 . S
H777 C782 0.949 . S
H778 C784 0.950 . S
H779 C785 0.950 . S
H780 C786 0.949 . S
C781 H776 0.950 . S
C781 C783 1.327 . S
C781 C787 1.429 . S
C782 C774 1.574 . S
C782 H777 0.949 . S
C782 C788 1.368 . S
C783 C767 1.349 . S
C783 H775 0.950 . S
C783 C781 1.327 . S
C784 C772 1.349 . S
C784 H778 0.950 . S
C784 C785 1.327 . S
C785 H779 0.950 . S
C785 C784 1.327 . S
C785 C789 1.429 1_545 S
C786 C769 1.574 . S
C786 H780 0.949 . S
C786 C790 1.368 . S
C787 C768 1.429 . S
C787 C781 1.429 . S
C787 C788 1.523 . S
C788 C769 1.368 . S
C788 C782 1.368 . S
C788 C787 1.523 . S
C789 C773 1.429 . S
C789 C785 1.429 1_565 S
C789 C790 1.523 . S
C790 C774 1.368 . S
C790 C786 1.368 . S
C790 C789 1.523 . S
H791 C766 0.962 . S
H792 C768 0.950 . S
H793 C769 0.949 . S
H794 C771 0.950 . S
H795 C773 0.950 . S
C796 C797 1.349 1_556 S
C796 C798 1.327 . S
C796 H821 0.950 . S
C797 C796 1.349 1_554 S
C797 C813 1.349 . S
C798 C796 1.327 . S
C798 C817 1.429 . S
C798 H822 0.950 . S
C799 C816 1.574 . S
C799 C818 1.368 . S
C799 H823 0.949 1_556 S
H800 C804 0.949 . S
C801 C802 1.349 . S
C801 C803 1.327 . S
C801 H824 0.950 . S
C802 C801 1.349 . S
C802 C814 1.349 . S
C803 C801 1.327 . S
C803 C819 1.429 . S
C803 H825 0.950 . S
C804 H800 0.949 . S
C804 C812 1.574 . S
C804 C820 1.368 . S
H805 C813 0.950 . S
H806 C811 0.950 . S
H807 C812 0.949 . S
H808 C814 0.950 . S
H809 C815 0.950 . S
H810 C816 0.949 . S
C811 H806 0.950 . S
C811 C813 1.327 . S
C811 C817 1.429 1_554 S
C812 C804 1.574 . S
C812 H807 0.949 . S
C812 C818 1.368 . S
C813 C797 1.349 . S
C813 H805 0.950 . S
C813 C811 1.327 . S
C814 C802 1.349 . S
C814 H808 0.950 . S
C814 C815 1.327 . S
C815 H809 0.950 . S
C815 C814 1.327 . S
C815 C819 1.429 . S
C816 C799 1.574 . S
C816 H810 0.949 . S
C816 C820 1.368 . S
C817 C798 1.429 . S
C817 C811 1.429 1_556 S
C817 C818 1.523 . S
C818 C799 1.368 . S
C818 C812 1.368 . S
C818 C817 1.523 . S
C819 C803 1.429 . S
C819 C815 1.429 . S
C819 C820 1.523 . S
C820 C804 1.368 . S
C820 C816 1.368 . S
C820 C819 1.523 . S
H821 C796 0.950 . S
H822 C798 0.950 . S
H823 C799 0.949 1_554 S
H824 C801 0.950 . S
H825 C803 0.950 . S
C826 C827 1.349 1_556 S
C826 C828 1.327 . S
C826 H851 0.950 . S
C827 C826 1.349 1_554 S
C827 C843 1.349 . S
C828 C826 1.327 . S
C828 C847 1.429 . S
C828 H852 0.950 . S
C829 C846 1.574 . S
C829 C848 1.368 . S
C829 H853 0.949 . S
H830 C834 0.949 . S
C831 C832 1.349 . S
C831 C833 1.327 . S
C831 H854 0.950 . S
C832 C831 1.349 . S
C832 C844 1.349 . S
C833 C831 1.327 . S
C833 C849 1.429 . S
C833 H855 0.950 . S
C834 H830 0.949 . S
C834 C842 1.574 . S
C834 C850 1.368 . S
H835 C843 0.950 . S
H836 C841 0.950 . S
H837 C842 0.949 . S
H838 C844 0.950 . S
H839 C845 0.950 . S
H840 C846 0.949 . S
C841 H836 0.950 . S
C841 C843 1.327 1_556 S
C841 C847 1.429 . S
C842 C834 1.574 . S
C842 H837 0.949 . S
C842 C848 1.368 . S
C843 C827 1.349 . S
C843 H835 0.950 . S
C843 C841 1.327 1_554 S
C844 C832 1.349 . S
C844 H838 0.950 . S
C844 C845 1.327 . S
C845 H839 0.950 . S
C845 C844 1.327 . S
C845 C849 1.429 . S
C846 C829 1.574 . S
C846 H840 0.949 . S
C846 C850 1.368 . S
C847 C828 1.429 . S
C847 C841 1.429 . S
C847 C848 1.523 . S
C848 C829 1.368 . S
C848 C842 1.368 . S
C848 C847 1.523 . S
C849 C833 1.429 . S
C849 C845 1.429 . S
C849 C850 1.523 . S
C850 C834 1.368 . S
C850 C846 1.368 . S
C850 C849 1.523 . S
H851 C826 0.950 . S
H852 C828 0.950 . S
H853 C829 0.949 . S
H854 C831 0.950 . S
H855 C833 0.950 . S
C856 C857 1.363 . S
C856 C858 1.327 . S
C856 H881 0.950 . S
C857 C856 1.363 . S
C857 C873 1.337 1_455 S
C858 C856 1.327 . S
C858 C877 1.429 . S
C858 H882 0.950 . S
C859 C876 1.574 1_655 S
C859 C878 1.354 1_655 S
C859 H883 0.965 . S
H860 C864 0.949 1_556 S
C861 C862 1.349 . S
C861 C863 1.327 1_556 S
C861 H884 0.950 1_556 S
C862 C861 1.349 . S
C862 C874 1.349 . S
C863 C861 1.327 1_554 S
C863 C879 1.429 . S
C863 H885 0.950 1_455 S
C864 H860 0.949 1_554 S
C864 C872 1.574 . S
C864 C880 1.368 . S
H865 C873 0.950 . S
H866 C871 0.950 . S
H867 C872 0.949 . S
H868 C874 0.950 . S
H869 C875 0.950 . S
H870 C876 0.943 1_655 S
C871 H866 0.950 . S
C871 C873 1.327 . S
C871 C877 1.429 1_655 S
C872 C864 1.574 . S
C872 H867 0.949 . S
C872 C878 1.368 . S
C873 C857 1.337 1_655 S
C873 H865 0.950 . S
C873 C871 1.327 . S
C874 C862 1.349 . S
C874 H868 0.950 . S
C874 C875 1.327 . S
C875 H869 0.950 . S
C875 C874 1.327 . S
C875 C879 1.429 1_556 S
C876 C859 1.574 1_455 S
C876 H870 0.943 1_455 S
C876 C880 1.377 . S
C877 C858 1.429 . S
C877 C871 1.429 1_455 S
C877 C878 1.523 . S
C878 C859 1.354 1_455 S
C878 C872 1.368 . S
C878 C877 1.523 . S
C879 C863 1.429 . S
C879 C875 1.429 1_554 S
C879 C880 1.523 . S
C880 C864 1.368 . S
C880 C876 1.377 . S
C880 C879 1.523 . S
H881 C856 0.950 . S
H882 C858 0.950 . S
H883 C859 0.965 . S
H884 C861 0.950 1_554 S
H885 C863 0.950 1_655 S
C886 C887 1.349 . S
C886 C888 1.327 . S
C886 H911 0.950 . S
C887 C886 1.349 . S
C887 C903 1.349 . S
C888 C886 1.327 . S
C888 C907 1.429 . S
C888 H912 0.950 . S
C889 C906 1.574 . S
C889 C908 1.368 . S
C889 H913 0.949 . S
H890 C894 0.949 . S
C891 C892 1.349 . S
C891 C893 1.326 . S
C891 H914 0.950 . S
C892 C891 1.349 . S
C892 C904 1.349 . S
C893 C891 1.326 . S
C893 C909 1.430 1_556 S
C893 H915 0.950 1_556 S
C894 H890 0.949 . S
C894 C902 1.574 . S
C894 C910 1.368 . S
H895 C903 0.950 . S
H896 C901 0.950 . S
H897 C902 0.949 . S
H898 C904 0.950 . S
H899 C905 0.950 . S
H900 C906 0.949 . S
C901 H896 0.950 . S
C901 C903 1.327 . S
C901 C907 1.429 . S
C902 C894 1.574 . S
C902 H897 0.949 . S
C902 C908 1.368 . S
C903 C887 1.349 . S
C903 H895 0.950 . S
C903 C901 1.327 . S
C904 C892 1.349 . S
C904 H898 0.950 . S
C904 C905 1.327 1_556 S
C905 H899 0.950 . S
C905 C904 1.327 1_554 S
C905 C909 1.429 . S
C906 C889 1.574 . S
C906 H900 0.949 . S
C906 C910 1.368 . S
C907 C888 1.429 . S
C907 C901 1.429 . S
C907 C908 1.523 . S
C908 C889 1.368 . S
C908 C902 1.368 . S
C908 C907 1.523 . S
C909 C893 1.430 1_554 S
C909 C905 1.429 . S
C909 C910 1.523 . S
C910 C894 1.368 . S
C910 C906 1.368 . S
C910 C909 1.523 . S
H911 C886 0.950 . S
H912 C888 0.950 . S
H913 C889 0.949 . S
H914 C891 0.950 . S
H915 C893 0.950 1_554 S
C916 C917 1.349 . S
C916 C918 1.327 . S
C916 H941 0.950 . S
C917 C916 1.349 . S
C917 C933 1.349 . S
C918 C916 1.327 . S
C918 C937 1.429 . S
C918 H942 0.950 . S
C919 C936 1.574 . S
C919 C938 1.368 . S
C919 H943 0.949 . S
H920 C924 0.949 . S
C921 C922 1.349 . S
C921 C923 1.327 . S
C921 H944 0.950 . S
C922 C921 1.349 . S
C922 C934 1.349 . S
C923 C921 1.327 . S
C923 C939 1.429 . S
C923 H945 0.950 . S
C924 H920 0.949 . S
C924 C932 1.574 . S
C924 C940 1.368 . S
H925 C933 0.950 . S
H926 C931 0.950 . S
H927 C932 0.949 . S
H928 C934 0.950 . S
H929 C935 0.950 . S
H930 C936 0.949 . S
C931 H926 0.950 . S
C931 C933 1.327 . S
C931 C937 1.429 . S
C932 C924 1.574 . S
C932 H927 0.949 . S
C932 C938 1.368 . S
C933 C917 1.349 . S
C933 H925 0.950 . S
C933 C931 1.327 . S
C934 C922 1.349 . S
C934 H928 0.950 . S
C934 C935 1.327 . S
C935 H929 0.950 . S
C935 C934 1.327 . S
C935 C939 1.429 . S
C936 C919 1.574 . S
C936 H930 0.949 . S
C936 C940 1.368 . S
C937 C918 1.429 . S
C937 C931 1.429 . S
C937 C938 1.523 . S
C938 C919 1.368 . S
C938 C932 1.368 . S
C938 C937 1.523 . S
C939 C923 1.429 . S
C939 C935 1.429 . S
C939 C940 1.523 1_556 S
C940 C924 1.368 . S
C940 C936 1.368 . S
C940 C939 1.523 1_554 S
H941 C916 0.950 . S
H942 C918 0.950 . S
H943 C919 0.949 . S
H944 C921 0.950 . S
H945 C923 0.950 . S
C946 C947 1.349 . S
C946 C948 1.327 . S
C946 H971 0.950 . S
C947 C946 1.349 . S
C947 C963 1.349 . S
C948 C946 1.327 . S
C948 C967 1.429 . S
C948 H972 0.950 . S
C949 C966 1.574 . S
C949 C968 1.368 . S
C949 H973 0.949 . S
H950 C954 0.949 1_556 S
C951 C952 1.349 . S
C951 C953 1.327 . S
C951 H974 0.950 . S
C952 C951 1.349 . S
C952 C964 1.349 . S
C953 C951 1.327 . S
C953 C969 1.429 . S
C953 H975 0.950 . S
C954 H950 0.949 1_554 S
C954 C962 1.574 . S
C954 C970 1.368 . S
H955 C963 0.950 . S
H956 C961 0.950 . S
H957 C962 0.949 . S
H958 C964 0.950 . S
H959 C965 0.950 . S
H960 C966 0.949 . S
C961 H956 0.950 . S
C961 C963 1.327 . S
C961 C967 1.429 . S
C962 C954 1.574 . S
C962 H957 0.949 . S
C962 C968 1.368 . S
C963 C947 1.349 . S
C963 H955 0.950 . S
C963 C961 1.327 . S
C964 C952 1.349 . S
C964 H958 0.950 . S
C964 C965 1.327 . S
C965 H959 0.950 . S
C965 C964 1.327 . S
C965 C969 1.429 . S
C966 C949 1.574 . S
C966 H960 0.949 . S
C966 C970 1.368 . S
C967 C948 1.429 . S
C967 C961 1.429 . S
C967 C968 1.523 . S
C968 C949 1.368 . S
C968 C962 1.368 . S
C968 C967 1.523 . S
C969 C953 1.429 . S
C969 C965 1.429 . S
C969 C970 1.523 1_556 S
C970 C954 1.368 . S
C970 C966 1.368 . S
C970 C969 1.523 1_554 S
H971 C946 0.950 . S
H972 C948 0.950 . S
H973 C949 0.949 . S
H974 C951 0.950 . S
H975 C953 0.950 . S
C976 C977 1.314 1_455 S
C976 C978 1.327 . S
C976 H1001 0.950 . S
C977 C976 1.314 1_655 S
C977 C993 1.385 . S
C978 C976 1.327 . S
C978 C997 1.429 1_455 S
C978 H1002 0.950 . S
C979 C996 1.574 . S
C979 C998 1.368 . S
C979 H1003 0.949 . S
H980 C984 0.949 . S
C981 C982 1.349 . S
C981 C983 1.327 . S
C981 H1004 0.950 . S
C982 C981 1.349 . S
C982 C994 1.349 1_655 S
C983 C981 1.327 . S
C983 C999 1.429 . S
C983 H1005 0.950 . S
C984 H980 0.949 . S
C984 C992 1.574 . S
C984 C1000 1.368 1_455 S
H985 C993 0.950 . S
H986 C991 0.950 . S
H987 C992 0.949 . S
H988 C994 0.950 . S
H989 C995 0.950 . S
H990 C996 0.949 . S
C991 H986 0.950 . S
C991 C993 1.327 . S
C991 C997 1.429 . S
C992 C984 1.574 . S
C992 H987 0.949 . S
C992 C998 1.368 1_455 S
C993 C977 1.385 . S
C993 H985 0.950 . S
C993 C991 1.327 . S
C994 C982 1.349 1_455 S
C994 H988 0.950 . S
C994 C995 1.327 . S
C995 H989 0.950 . S
C995 C994 1.327 . S
C995 C999 1.429 1_455 S
C996 C979 1.574 . S
C996 H990 0.949 . S
C996 C1000 1.368 . S
C997 C978 1.429 1_655 S
C997 C991 1.429 . S
C997 C998 1.523 . S
C998 C979 1.368 . S
C998 C992 1.368 1_655 S
C998 C997 1.523 . S
C999 C983 1.429 . S
C999 C995 1.429 1_655 S
C999 C1000 1.523 . S
C1000 C984 1.368 1_655 S
C1000 C996 1.368 . S
C1000 C999 1.523 . S
H1001 C976 0.950 . S
H1002 C978 0.950 . S
H1003 C979 0.949 . S
H1004 C981 0.950 . S
H1005 C983 0.950 . S
C1006 C1007 1.349 . S
C1006 C1008 1.327 . S
C1006 H1031 0.950 . S
C1007 C1006 1.349 . S
C1007 C1023 1.349 . S
C1008 C1006 1.327 . S
C1008 C1027 1.429 . S
C1008 H1032 0.950 . S
C1009 C1026 1.574 . S
C1009 C1028 1.368 . S
C1009 H1033 0.949 . S
H1010 C1014 0.949 . S
C1011 C1012 1.349 . S
C1011 C1013 1.327 . S
C1011 H1034 0.950 1_565 S
C1012 C1011 1.349 . S
C1012 C1024 1.349 . S
C1013 C1011 1.327 . S
C1013 C1029 1.429 . S
C1013 H1035 0.950 . S
C1014 H1010 0.949 . S
C1014 C1022 1.574 . S
C1014 C1030 1.368 . S
H1015 C1023 0.950 . S
H1016 C1021 0.950 . S
H1017 C1022 0.949 . S
H1018 C1024 0.950 . S
H1019 C1025 0.950 . S
H1020 C1026 0.949 . S
C1021 H1016 0.950 . S
C1021 C1023 1.327 . S
C1021 C1027 1.429 . S
C1022 C1014 1.574 . S
C1022 H1017 0.949 . S
C1022 C1028 1.368 . S
C1023 C1007 1.349 . S
C1023 H1015 0.950 . S
C1023 C1021 1.327 . S
C1024 C1012 1.349 . S
C1024 H1018 0.950 . S
C1024 C1025 1.327 . S
C1025 H1019 0.950 . S
C1025 C1024 1.327 . S
C1025 C1029 1.429 . S
C1026 C1009 1.574 . S
C1026 H1020 0.949 . S
C1026 C1030 1.368 . S
C1027 C1008 1.429 . S
C1027 C1021 1.429 . S
C1027 C1028 1.523 . S
C1028 C1009 1.368 . S
C1028 C1022 1.368 . S
C1028 C1027 1.523 . S
C1029 C1013 1.429 . S
C1029 C1025 1.429 . S
C1029 C1030 1.523 . S
C1030 C1014 1.368 . S
C1030 C1026 1.368 . S
C1030 C1029 1.523 . S
H1031 C1006 0.950 . S
H1032 C1008 0.950 . S
H1033 C1009 0.949 . S
H1034 C1011 0.950 1_545 S
H1035 C1013 0.950 . S
C1036 C1037 1.349 . S
C1036 C1038 1.327 . S
C1036 H1061 0.950 . S
C1037 C1036 1.349 . S
C1037 C1053 1.349 . S
C1038 C1036 1.327 . S
C1038 C1057 1.429 . S
C1038 H1062 0.950 . S
C1039 C1056 1.574 . S
C1039 C1058 1.368 . S
C1039 H1063 0.949 . S
H1040 C1044 0.949 . S
C1041 C1042 1.349 . S
C1041 C1043 1.327 . S
C1041 H1064 0.950 . S
C1042 C1041 1.349 . S
C1042 C1054 1.349 . S
C1043 C1041 1.327 . S
C1043 C1059 1.429 . S
C1043 H1065 0.950 . S
C1044 H1040 0.949 . S
C1044 C1052 1.574 . S
C1044 C1060 1.368 . S
H1045 C1053 0.950 . S
H1046 C1051 0.950 . S
H1047 C1052 0.949 . S
H1048 C1054 0.950 . S
H1049 C1055 0.950 . S
H1050 C1056 0.949 . S
C1051 H1046 0.950 . S
C1051 C1053 1.327 . S
C1051 C1057 1.429 . S
C1052 C1044 1.574 . S
C1052 H1047 0.949 . S
C1052 C1058 1.368 . S
C1053 C1037 1.349 . S
C1053 H1045 0.950 . S
C1053 C1051 1.327 . S
C1054 C1042 1.349 . S
C1054 H1048 0.950 . S
C1054 C1055 1.327 . S
C1055 H1049 0.950 . S
C1055 C1054 1.327 . S
C1055 C1059 1.429 . S
C1056 C1039 1.574 . S
C1056 H1050 0.949 . S
C1056 C1060 1.368 . S
C1057 C1038 1.429 . S
C1057 C1051 1.429 . S
C1057 C1058 1.523 . S
C1058 C1039 1.368 . S
C1058 C1052 1.368 . S
C1058 C1057 1.523 . S
C1059 C1043 1.429 . S
C1059 C1055 1.429 . S
C1059 C1060 1.523 . S
C1060 C1044 1.368 . S
C1060 C1056 1.368 . S
C1060 C1059 1.523 . S
H1061 C1036 0.950 . S
H1062 C1038 0.950 . S
H1063 C1039 0.949 . S
H1064 C1041 0.950 . S
H1065 C1043 0.950 . S
C1066 C1067 1.349 . S
C1066 C1068 1.327 . S
C1066 H1091 0.950 . S
C1067 C1066 1.349 . S
C1067 C1083 1.349 . S
C1068 C1066 1.327 . S
C1068 C1087 1.429 . S
C1068 H1092 0.950 . S
C1069 C1086 1.574 . S
C1069 C1088 1.368 . S
C1069 H1093 0.949 . S
H1070 C1074 0.949 . S
C1071 C1072 1.349 . S
C1071 C1073 1.327 . S
C1071 H1094 0.950 . S
C1072 C1071 1.349 . S
C1072 C1084 1.349 . S
C1073 C1071 1.327 . S
C1073 C1089 1.429 . S
C1073 H1095 0.950 . S
C1074 H1070 0.949 . S
C1074 C1082 1.574 . S
C1074 C1090 1.368 . S
H1075 C1083 0.950 . S
H1076 C1081 0.950 . S
H1077 C1082 0.949 . S
H1078 C1084 0.950 . S
H1079 C1085 0.950 . S
H1080 C1086 0.949 . S
C1081 H1076 0.950 . S
C1081 C1083 1.327 . S
C1081 C1087 1.429 . S
C1082 C1074 1.574 . S
C1082 H1077 0.949 . S
C1082 C1088 1.368 . S
C1083 C1067 1.349 . S
C1083 H1075 0.950 . S
C1083 C1081 1.327 . S
C1084 C1072 1.349 . S
C1084 H1078 0.950 . S
C1084 C1085 1.327 . S
C1085 H1079 0.950 . S
C1085 C1084 1.327 . S
C1085 C1089 1.429 . S
C1086 C1069 1.574 . S
C1086 H1080 0.949 . S
C1086 C1090 1.368 . S
C1087 C1068 1.429 . S
C1087 C1081 1.429 . S
C1087 C1088 1.523 . S
C1088 C1069 1.368 . S
C1088 C1082 1.368 . S
C1088 C1087 1.523 . S
C1089 C1073 1.429 . S
C1089 C1085 1.429 . S
C1089 C1090 1.523 . S
C1090 C1074 1.368 . S
C1090 C1086 1.368 . S
C1090 C1089 1.523 . S
H1091 C1066 0.950 . S
H1092 C1068 0.950 . S
H1093 C1069 0.949 . S
H1094 C1071 0.950 . S
H1095 C1073 0.950 . S
C377 C215 1.731 . S
C382 C266 1.716 . S
C412 C296 1.671 . S
C407 C247 1.624 . S
C442 N330 1.602 . S
C437 C151 1.643 . S
C472 N360 1.223 . S
C467 C183 1.250 1_655 S
C502 C257 1.722 1_565 S
C497 C87 1.630 . S
C527 C119 1.648 . S
C532 C287 1.670 . S
C557 C23 1.539 . S
C562 N322 1.602 . S
C587 C55 1.245 . S
C592 N352 1.226 . S
C622 C272 0.590 . S
C617 C189 0.636 . S
C652 C302 0.294 . S
C647 C221 0.262 . S
C682 C343 0.293 . S
C677 C253 0.410 . S
C707 C157 0.167 . S
C712 C373 0.332 . S
C737 C61 0.724 1_655 S
C742 C283 0.583 . S
C772 C313 0.294 . S
C767 C93 0.611 . S
C802 C332 0.293 . S
C797 C125 0.355 . S
C827 C29 0.662 . S
C832 C362 0.338 . S
C857 C177 1.477 . S
C862 N262 1.495 . S
C887 C209 1.645 . S
C892 N292 1.640 . S
C922 C317 1.705 . S
C917 C241 1.627 . S
C952 C347 1.946 . S
C947 C145 1.911 . S
C977 C49 1.477 1_655 S
C982 N270 1.498 . S
C1012 N300 1.640 . S
C1007 C81 1.579 . S
C1042 C326 1.706 . S
C1037 C113 1.665 . S
C1067 C17 1.807 . S
C1072 C356 1.950 . S
