# Generated by pormake.
# Topology anh, (6,3)-cn, num edge types: 1
# Building blocks:
#     Node 0, Type 0, BuildingBlock: CUWYAW_clean_sbu_0, # of connection points: 6
#     Node 1, Type 0, BuildingBlock: CUWYAW_clean_sbu_0, # of connection points: 6
#     Node 2, Type 0, BuildingBlock: CUWYAW_clean_sbu_0, # of connection points: 6
#     Node 3, Type 1, BuildingBlock: PAMTOO_clean_linker_0, # of connection points: 3
#     Node 4, Type 1, BuildingBlock: PAMTOO_clean_linker_0, # of connection points: 3
#     Node 5, Type 1, BuildingBlock: PAMTOO_clean_linker_0, # of connection points: 3
#     Node 6, Type 1, BuildingBlock: PAMTOO_clean_linker_0, # of connection points: 3
#     Node 7, Type 1, BuildingBlock: PAMTOO_clean_linker_0, # of connection points: 3
#     Node 8, Type 1, BuildingBlock: PAMTOO_clean_linker_0, # of connection points: 3
#     Edge 9, Type (0, 1), BuildingBlock: MIFKUJ_clean_linker_0, # of connection points: 2
#     Edge 10, Type (0, 1), BuildingBlock: MIFKUJ_clean_linker_0, # of connection points: 2
#     Edge 11, Type (0, 1), BuildingBlock: MIFKUJ_clean_linker_0, # of connection points: 2
#     Edge 12, Type (0, 1), BuildingBlock: MIFKUJ_clean_linker_0, # of connection points: 2
#     Edge 13, Type (0, 1), BuildingBlock: MIFKUJ_clean_linker_0, # of connection points: 2
#     Edge 14, Type (0, 1), BuildingBlock: MIFKUJ_clean_linker_0, # of connection points: 2
#     Edge 15, Type (0, 1), BuildingBlock: MIFKUJ_clean_linker_0, # of connection points: 2
#     Edge 16, Type (0, 1), BuildingBlock: MIFKUJ_clean_linker_0, # of connection points: 2
#     Edge 17, Type (0, 1), BuildingBlock: MIFKUJ_clean_linker_0, # of connection points: 2
#     Edge 18, Type (0, 1), BuildingBlock: MIFKUJ_clean_linker_0, # of connection points: 2
#     Edge 19, Type (0, 1), BuildingBlock: MIFKUJ_clean_linker_0, # of connection points: 2
#     Edge 20, Type (0, 1), BuildingBlock: MIFKUJ_clean_linker_0, # of connection points: 2
#     Edge 21, Type (0, 1), BuildingBlock: MIFKUJ_clean_linker_0, # of connection points: 2
#     Edge 22, Type (0, 1), BuildingBlock: MIFKUJ_clean_linker_0, # of connection points: 2
#     Edge 23, Type (0, 1), BuildingBlock: MIFKUJ_clean_linker_0, # of connection points: 2
#     Edge 24, Type (0, 1), BuildingBlock: MIFKUJ_clean_linker_0, # of connection points: 2
#     Edge 25, Type (0, 1), BuildingBlock: MIFKUJ_clean_linker_0, # of connection points: 2
#     Edge 26, Type (0, 1), BuildingBlock: MIFKUJ_clean_linker_0, # of connection points: 2
# Relax obj value: 0.185
# Max RMSD: 0.144
# Mean RMSD: 0.109
data_MOF--net-anh--node1-CUWYAW_clean_sbu_0--node2-PAMTOO_clean_linker_0--edge1-MIFKUJ_clean_linker_0
_symmetry_space_group_name_H-M    P1
_symmetry_Int_Tables_number       1
_symmetry_cell_setting            triclinic
loop_
_symmetry_equiv_pos_as_xyz
'x, y, z'
_cell_length_a     42.701472
_cell_length_b     42.517485
_cell_length_c     64.487443
_cell_angle_alpha  85.166492
_cell_angle_beta   92.73429
_cell_angle_gamma 120.07453
loop_
_atom_site_label
_atom_site_type_symbol
_atom_site_fract_x
_atom_site_fract_y
_atom_site_fract_z
_atom_type_partial_charge
C0 C 1.02661 0.42814 0.15578 0.0
Eu1 Eu 0.06762 0.49698 0.16209 0.0
C2 C 0.98755 0.40411 0.15383 0.0
C3 C 0.96363 0.41377 0.16156 0.0
C4 C 0.92645 0.39132 0.1593 0.0
C5 C 0.91253 0.35858 0.14949 0.0
C6 C 0.93663 0.34921 0.1415 0.0
C7 C 0.97396 0.37195 0.14362 0.0
C8 C 0.08512 0.52081 0.20137 0.0
C9 C 1.01182 0.53422 0.15924 0.0
C10 C 0.14304 0.63988 0.16712 0.0
Eu11 Eu 0.101 0.57138 0.161 0.0
C12 C 0.17857 0.6689 0.15934 0.0
C13 C 0.18026 0.69768 0.14617 0.0
C14 C 0.21336 0.72572 0.13861 0.0
C15 C 0.24558 0.72585 0.14428 0.0
C16 C 0.24396 0.69674 0.15718 0.0
C17 C 0.21065 0.66832 0.16457 0.0
C18 C 0.08436 0.54748 0.12238 0.0
C19 C 0.15713 0.53489 0.15807 0.0
O20 O 0.04136 0.45363 0.1408 0.0
O21 O 0.03832 0.44025 0.17413 0.0
O22 O 0.09219 0.4976 0.19407 0.0
O23 O 0.07024 0.53182 0.18737 0.0
O24 O 1.01563 0.50532 0.15616 0.0
O25 O 0.04257 0.56406 0.16407 0.0
O26 O 0.14206 0.61359 0.17973 0.0
O27 O 0.11706 0.62809 0.15329 0.0
O28 O 0.07963 0.57302 0.12844 0.0
O29 O 0.09855 0.53653 0.1366 0.0
O30 O 0.15424 0.56491 0.15937 0.0
O31 O 0.1256 0.50352 0.15824 0.0
H32 H 0.97365 0.43853 0.16948 0.0
H33 H 0.90858 0.3995 0.16536 0.0
H34 H 0.92665 0.32393 0.13409 0.0
H35 H 0.99219 0.3643 0.13747 0.0
H36 H 0.15594 0.69878 0.14194 0.0
H37 H 0.21384 0.7482 0.12908 0.0
H38 H 0.26849 0.69638 0.16185 0.0
H39 H 0.21014 0.64629 0.17457 0.0
C40 C 0.56623 0.10602 0.47906 0.0
Eu41 Eu 0.59028 0.06232 0.49209 0.0
C42 C 0.58181 0.14522 0.48075 0.0
C43 C 0.61173 0.1636 0.49383 0.0
C44 C 0.6282 0.20119 0.49474 0.0
C45 C 0.61503 0.22115 0.48258 0.0
C46 C 0.5846 0.20254 0.46971 0.0
C47 C 0.56811 0.16474 0.46881 0.0
C48 C 0.59831 0.04879 0.53369 0.0
C49 C 0.6832 0.11658 0.49276 0.0
C50 C 0.65494 0.98441 0.51419 0.0
Eu51 Eu 0.63022 0.02654 0.49919 0.0
C52 C 0.64593 0.94639 0.51294 0.0
C53 C 0.64112 0.93131 0.49367 0.0
C54 C 0.63498 0.89594 0.49283 0.0
C55 C 0.63329 0.87494 0.51124 0.0
C56 C 0.63669 0.88968 0.5305 0.0
C57 C 0.64312 0.92513 0.53132 0.0
C58 C 0.62055 0.03883 0.45829 0.0
C59 C 0.53778 0.97197 0.49226 0.0
O60 O 0.58435 0.09719 0.46732 0.0
O61 O 0.55643 0.08604 0.49663 0.0
O62 O 0.56825 0.04306 0.52481 0.0
O63 O 0.62316 0.06124 0.52024 0.0
O64 O 0.6509 0.11343 0.48742 0.0
O65 O 0.68194 0.08553 0.50008 0.0
O66 O 0.63216 0.9896 0.52422 0.0
O67 O 0.66725 1.00593 0.49727 0.0
O68 O 0.65098 0.04338 0.46604 0.0
O69 O 0.59685 0.02708 0.47212 0.0
O70 O 0.56933 0.97425 0.49898 0.0
O71 O 0.53972 1.00402 0.48672 0.0
H72 H 0.62243 0.14888 0.50336 0.0
H73 H 0.65105 0.21457 0.50517 0.0
H74 H 0.57389 0.21723 0.46016 0.0
H75 H 0.54487 0.15081 0.45876 0.0
H76 H 0.64286 0.94705 0.47922 0.0
H77 H 0.63284 0.88558 0.47774 0.0
H78 H 0.63485 0.87397 0.54498 0.0
H79 H 0.64646 0.93617 0.54634 0.0
C80 C 0.73165 0.61833 0.82087 0.0
Eu81 Eu 0.66304 0.58922 0.82821 0.0
C82 C 0.75317 0.60601 0.81063 0.0
C83 C 0.74462 0.56952 0.81344 0.0
C84 C 0.76513 0.55782 0.80394 0.0
C85 C 0.79493 0.58246 0.79156 0.0
C86 C 0.80298 0.61886 0.78828 0.0
C87 C 0.78205 0.63051 0.79769 0.0
C88 C 0.6358 0.58224 0.86714 0.0
C89 C 0.62576 0.49746 0.82544 0.0
C90 C 0.51797 0.5083 0.83418 0.0
Eu91 Eu 0.58697 0.54983 0.82787 0.0
C92 C 0.48464 0.50821 0.82765 0.0
C93 C 0.45407 0.47509 0.82325 0.0
C94 C 0.42208 0.47405 0.81662 0.0
C95 C 0.42011 0.50617 0.81435 0.0
C96 C 0.45094 0.5395 0.81855 0.0
C97 C 0.48315 0.54056 0.82502 0.0
C98 C 0.61499 0.57679 0.78939 0.0
C99 C 0.62363 0.64131 0.82408 0.0
O100 O 0.70979 0.62471 0.80865 0.0
O101 O 0.71666 0.60064 0.83854 0.0
O102 O 0.66217 0.61178 0.85865 0.0
O103 O 0.62447 0.55731 0.85462 0.0
O104 O 0.65625 0.53001 0.82607 0.0
O105 O 0.59478 0.49817 0.82644 0.0
O106 O 0.53958 0.53288 0.84686 0.0
O107 O 0.53519 0.50414 0.81942 0.0
O108 O 0.58723 0.57749 0.79606 0.0
O109 O 0.62578 0.56147 0.803 0.0
O110 O 0.59428 0.6092 0.82971 0.0
O111 O 0.65342 0.63964 0.82032 0.0
H112 H 0.72269 0.55012 0.82343 0.0
H113 H 0.75867 0.52981 0.80721 0.0
H114 H 0.82587 0.63842 0.77885 0.0
H115 H 0.7888 0.65873 0.7952 0.0
H116 H 0.45491 0.44994 0.82507 0.0
H117 H 0.39854 0.44791 0.81385 0.0
H118 H 0.45007 0.56461 0.81689 0.0
H119 H 0.50674 0.56652 0.82804 0.0
H120 H 0.59476 0.11819 0.23671 0.0
H121 H 0.47984 0.05229 0.24603 0.0
H122 H 0.52237 0.08057 0.18415 0.0
H123 H 0.46463 0.09015 0.1892 0.0
C124 C 0.44561 0.06203 0.19575 0.0
O125 O 0.46377 0.04641 0.20642 0.0
H126 H 0.42696 0.06367 0.2065 0.0
C127 C 0.56762 0.10339 0.23034 0.0
C128 C 0.56231 0.10227 0.20868 0.0
C129 C 0.53814 0.08495 0.24394 0.0
C130 C 0.50292 0.06661 0.23574 0.0
C131 C 0.49745 0.06567 0.21422 0.0
C132 C 0.52705 0.08261 0.20076 0.0
H133 H 0.66596 0.59085 0.56421 0.0
H134 H 0.76395 0.59406 0.58631 0.0
H135 H 0.74696 0.60641 0.52082 0.0
H136 H 0.80319 0.57158 0.5685 0.0
C137 C 0.80175 0.57885 0.55164 0.0
O138 O 0.79178 0.60523 0.54928 0.0
H139 H 0.82963 0.59074 0.54557 0.0
C140 C 0.691 0.59164 0.56099 0.0
C141 C 0.70347 0.59853 0.5404 0.0
C142 C 0.71259 0.59022 0.57773 0.0
C143 C 0.74649 0.59432 0.57362 0.0
C144 C 0.75822 0.59899 0.5531 0.0
C145 C 0.73663 0.60073 0.53654 0.0
H146 H 0.98825 0.46468 0.9025 0.0
H147 H 0.07336 0.43802 0.91265 0.0
H148 H 0.03444 0.44451 0.85102 0.0
H149 H 0.04755 0.38708 0.85834 0.0
C150 C 0.07312 0.39983 0.86757 0.0
O151 O 0.08063 0.43329 0.87347 0.0
H152 H 0.06992 0.38142 0.88163 0.0
C153 C 1.0072 0.45759 0.89676 0.0
C154 C 1.00842 0.45482 0.87532 0.0
C155 C 1.03029 0.45127 0.91063 0.0
C156 C 0.0543 0.44179 0.90258 0.0
C157 C 0.05548 0.43921 0.8812 0.0
C158 C 0.03265 0.44572 0.86762 0.0
H159 H 1.03049 0.4735 0.42903 0.0
H160 H 0.13533 0.56987 0.43066 0.0
H161 H 0.08205 0.51167 0.48852 0.0
H162 H 0.15028 0.61527 0.48612 0.0
C163 C 0.16178 0.6123 0.47183 0.0
O164 O 0.14718 0.57325 0.47039 0.0
H165 H 0.14925 0.62132 0.45893 0.0
C166 C 0.0524 0.49294 0.43837 0.0
C167 C 0.04992 0.48677 0.46028 0.0
C168 C 0.08265 0.52211 0.42779 0.0
C169 C 0.1124 0.54802 0.43914 0.0
C170 C 0.11377 0.54681 0.46104 0.0
C171 C 0.08187 0.51481 0.4717 0.0
H172 H 0.62243 0.99496 0.76303 0.0
H173 H 0.61925 0.09472 0.76261 0.0
H174 H 0.62353 0.03917 0.8213 0.0
H175 H 0.64582 0.14631 0.78175 0.0
C176 C 0.64103 0.14039 0.79875 0.0
O177 O 0.61856 0.10084 0.80251 0.0
H178 H 0.66799 0.14743 0.80549 0.0
C179 C 0.62296 1.016 0.77167 0.0
C180 C 0.62358 1.01154 0.79356 0.0
C181 C 0.62191 0.04565 0.76046 0.0
C182 C 0.62071 0.07269 0.77141 0.0
C183 C 0.62216 0.07287 0.79334 0.0
C184 C 0.62343 0.04115 0.80447 0.0
H185 H 0.66075 0.53797 0.09533 0.0
H186 H 0.56544 0.54775 0.0967 0.0
H187 H 0.61499 0.5346 0.15465 0.0
H188 H 0.50764 0.49353 0.14071 0.0
C189 C 0.5161 0.52113 0.1333 0.0
O190 O 0.55538 0.54266 0.13661 0.0
H191 H 0.51141 0.51681 0.11645 0.0
C192 C 0.64065 0.5388 0.10454 0.0
C193 C 0.64405 0.53627 0.12646 0.0
C194 C 0.61276 0.54256 0.09384 0.0
C195 C 0.58559 0.54343 0.1052 0.0
C196 C 0.58366 0.53941 0.12712 0.0
C197 C 0.61425 0.53644 0.13782 0.0
H198 H 0.22848 0.59242 0.14479 0.0
H199 H 0.28602 0.59282 0.14123 0.0
H200 H 0.23474 0.48044 0.16386 0.0
H201 H 0.17696 0.47967 0.16664 0.0
H202 H 0.30366 0.51035 0.18009 0.0
H203 H 0.26722 0.51651 0.10936 0.0
H204 H 0.24901 0.54133 0.07826 0.0
H205 H 0.34808 0.64351 0.08126 0.0
H206 H 0.36678 0.61925 0.11255 0.0
H207 H 0.45629 0.4833 0.16086 0.0
H208 H 0.4012 0.48565 0.1646 0.0
H209 H 0.44303 0.58171 0.12282 0.0
H210 H 0.49796 0.57762 0.11806 0.0
H211 H 0.37888 0.56205 0.11682 0.0
H212 H 0.4148 0.55981 0.18813 0.0
H213 H 0.43312 0.53806 0.22059 0.0
H214 H 0.33643 0.43371 0.21843 0.0
H215 H 0.31769 0.45477 0.18587 0.0
C216 C 0.22873 0.56736 0.14904 0.0
C217 C 0.19554 0.53595 0.15611 0.0
C218 C 0.2628 0.56753 0.14685 0.0
C219 C 0.26753 0.53658 0.15202 0.0
C220 C 0.23449 0.50545 0.15947 0.0
C221 C 0.20023 0.505 0.1611 0.0
C222 C 0.30551 0.53649 0.14985 0.0
C223 C 0.3194 0.52146 0.16594 0.0
C224 C 0.3293 0.55142 0.13208 0.0
C225 C 0.31821 0.5662 0.11341 0.0
C226 C 0.285 0.54437 0.10348 0.0
C227 C 0.27461 0.55833 0.08579 0.0
C228 C 0.29731 0.59407 0.07781 0.0
C229 C 0.3305 0.61586 0.08748 0.0
C230 C 0.34103 0.602 0.10518 0.0
C231 C 0.45518 0.50616 0.15288 0.0
C232 C 0.48518 0.5313 0.1399 0.0
C233 C 0.42215 0.50763 0.15513 0.0
C234 C 0.41511 0.53481 0.14485 0.0
C235 C 0.4451 0.56009 0.13171 0.0
C236 C 0.47816 0.55822 0.12921 0.0
C237 C 0.37744 0.53588 0.14716 0.0
C238 C 0.36342 0.551 0.13105 0.0
C239 C 0.35379 0.52165 0.16512 0.0
C240 C 0.3651 0.50871 0.18446 0.0
C241 C 0.39759 0.53216 0.19453 0.0
C242 C 0.40801 0.51997 0.21295 0.0
C243 C 0.38601 0.48449 0.22153 0.0
C244 C 0.35348 0.46115 0.21174 0.0
C245 C 0.34294 0.47319 0.19331 0.0
H246 H 0.39412 0.47511 0.2358 0.0
H247 H 0.28926 0.60486 0.0641 0.0
H248 H 0.75619 0.13612 0.50469 0.0
H249 H 0.81381 0.1938 0.50094 0.0
H250 H 0.75812 0.24622 0.47136 0.0
H251 H 0.70028 0.18822 0.47513 0.0
H252 H 0.82039 0.28249 0.45294 0.0
H253 H 0.80691 0.25952 0.52701 0.0
H254 H 0.79883 0.22493 0.56093 0.0
H255 H 0.89486 0.21994 0.55076 0.0
H256 H 0.90327 0.25415 0.51667 0.0
H257 H 0.97686 0.4661 0.45153 0.0
H258 H 0.92001 0.40921 0.45771 0.0
H259 H 0.97714 0.36214 0.49179 0.0
H260 H 0.03464 0.4204 0.48607 0.0
H261 H 0.9145 0.32234 0.50804 0.0
H262 H 0.92819 0.34279 0.43442 0.0
H263 H 0.93717 0.37578 0.3999 0.0
H264 H 0.8419 0.38312 0.40817 0.0
H265 H 0.83259 0.35052 0.44286 0.0
C266 C 0.75544 0.15963 0.49742 0.0
C267 C 0.72108 0.15503 0.49045 0.0
C268 C 0.78964 0.19399 0.49533 0.0
C269 C 0.79323 0.22755 0.48598 0.0
C270 C 0.75885 0.22278 0.47875 0.0
C271 C 0.72455 0.18843 0.48102 0.0
C272 C 0.83144 0.26613 0.48358 0.0
C273 C 0.84026 0.29075 0.46541 0.0
C274 C 0.86048 0.27963 0.49881 0.0
C275 C 0.85549 0.25905 0.51921 0.0
C276 C 0.82616 0.25083 0.53196 0.0
C277 C 0.82155 0.23133 0.55122 0.0
C278 C 0.84626 0.22016 0.55797 0.0
C279 C 0.8757 0.22855 0.54549 0.0
C280 C 0.88042 0.24801 0.52621 0.0
C281 C 0.97805 0.44424 0.46077 0.0
C282 C 1.01277 0.45081 0.46848 0.0
C283 C 0.94429 0.41003 0.46403 0.0
C284 C 0.94132 0.37783 0.4749 0.0
C285 C 0.97592 0.38447 0.48317 0.0
C286 C 1.00998 0.41911 0.48001 0.0
C287 C 0.9034 0.33886 0.47741 0.0
C288 C 0.89462 0.31416 0.49558 0.0
C289 C 0.87451 0.32503 0.46208 0.0
C290 C 0.87993 0.34459 0.44131 0.0
C291 C 0.90928 0.35163 0.42891 0.0
C292 C 0.91442 0.37024 0.40932 0.0
C293 C 0.89018 0.38163 0.40187 0.0
C294 C 0.86069 0.37434 0.41398 0.0
C295 C 0.85546 0.35579 0.4336 0.0
H296 H 0.8942 0.39604 0.3867 0.0
H297 H 0.84265 0.20507 0.57288 0.0
H298 H 0.68035 0.71513 0.81529 0.0
H299 H 0.68052 0.77315 0.81154 0.0
H300 H 0.56641 0.7164 0.82357 0.0
H301 H 0.56629 0.65808 0.82715 0.0
H302 H 0.57271 0.77084 0.79924 0.0
H303 H 0.64953 0.78443 0.85853 0.0
H304 H 0.70112 0.7857 0.87817 0.0
H305 H 0.77508 0.86854 0.83421 0.0
H306 H 0.72387 0.86746 0.81418 0.0
H307 H 0.56647 0.93982 0.80666 0.0
H308 H 0.56573 0.88152 0.81244 0.0
H309 H 0.68052 0.93712 0.80283 0.0
H310 H 0.68106 0.99541 0.79736 0.0
H311 H 0.67365 0.88304 0.82633 0.0
H312 H 0.59864 0.86987 0.76679 0.0
H313 H 0.54807 0.86899 0.74617 0.0
H314 H 0.47191 0.786 0.78922 0.0
H315 H 0.52208 0.7867 0.81023 0.0
C316 C 0.65492 0.71428 0.81732 0.0
C317 C 0.62337 0.67949 0.8218 0.0
C318 C 0.65504 0.74877 0.81528 0.0
C319 C 0.62359 0.75222 0.81752 0.0
C320 C 0.59188 0.71727 0.82166 0.0
C321 C 0.59181 0.68273 0.82384 0.0
C322 C 0.62366 0.79082 0.81545 0.0
C323 C 0.59494 0.79485 0.80561 0.0
C324 C 0.6521 0.82485 0.82281 0.0
C325 C 0.68288 0.82559 0.83475 0.0
C326 C 0.6768 0.80275 0.85299 0.0
C327 C 0.70596 0.80346 0.8642 0.0
C328 C 0.74135 0.82711 0.85741 0.0
C329 C 0.74765 0.85018 0.83943 0.0
C330 C 0.71857 0.84956 0.82815 0.0
C331 C 0.59209 0.94044 0.8064 0.0
C332 C 0.62414 0.97504 0.80243 0.0
C333 C 0.5916 0.90574 0.80927 0.0
C334 C 0.62302 0.90184 0.80796 0.0
C335 C 0.6551 0.93656 0.80426 0.0
C336 C 0.65552 0.97118 0.8013 0.0
C337 C 0.62265 0.86309 0.81017 0.0
C338 C 0.65135 0.85904 0.82 0.0
C339 C 0.59431 0.82912 0.80268 0.0
C340 C 0.56411 0.82864 0.7902 0.0
C341 C 0.5711 0.8516 0.77193 0.0
C342 C 0.54252 0.85111 0.76016 0.0
C343 C 0.5068 0.82753 0.76642 0.0
C344 C 0.4996 0.80431 0.78442 0.0
C345 C 0.52809 0.80473 0.79626 0.0
H346 H 0.48471 0.82718 0.75729 0.0
H347 H 0.7639 0.82762 0.8661 0.0
H348 H 0.99035 0.58479 0.1705 0.0
H349 H 0.93277 0.58488 0.16695 0.0
H350 H 0.88431 0.48298 0.13851 0.0
H351 H 0.94197 0.48262 0.14243 0.0
H352 H 0.85136 0.51668 0.11883 0.0
H353 H 0.86441 0.50295 0.19299 0.0
H354 H 0.89454 0.51979 0.22712 0.0
H355 H 0.89814 0.62282 0.21869 0.0
H356 H 0.8684 0.60675 0.18439 0.0
H357 H 0.66788 0.48831 0.11594 0.0
H358 H 0.72423 0.48742 0.12197 0.0
H359 H 0.76339 0.57828 0.15986 0.0
H360 H 0.70575 0.57855 0.15406 0.0
H361 H 0.80221 0.55162 0.17495 0.0
H362 H 0.79397 0.571 0.10228 0.0
H363 H 0.77078 0.56205 0.06623 0.0
H364 H 0.76424 0.45763 0.06955 0.0
H365 H 0.78695 0.46575 0.10575 0.0
C366 C 0.96774 0.56189 0.16355 0.0
C367 C 0.97334 0.53363 0.15702 0.0
C368 C 0.93346 0.56183 0.16153 0.0
C369 C 0.90105 0.53371 0.15249 0.0
C370 C 0.90683 0.50569 0.14565 0.0
C371 C 0.94099 0.50542 0.14802 0.0
C372 C 0.86265 0.53367 0.15003 0.0
C373 C 0.84091 0.52381 0.13153 0.0
C374 C 0.84668 0.54408 0.1655 0.0
C375 C 0.86451 0.55379 0.18605 0.0
C376 C 0.87185 0.5293 0.19836 0.0
C377 C 0.88882 0.53868 0.21774 0.0
C378 C 0.89834 0.57239 0.22505 0.0
C379 C 0.89081 0.59674 0.213 0.0
C380 C 0.87388 0.5875 0.1936 0.0
C381 C 0.68782 0.50817 0.12593 0.0
C382 C 0.67916 0.53294 0.1346 0.0
C383 C 0.72178 0.50813 0.12917 0.0
C384 C 0.75174 0.53349 0.14112 0.0
C385 C 0.74294 0.55783 0.15037 0.0
C386 C 0.70856 0.55778 0.14715 0.0
C387 C 0.79053 0.53418 0.14375 0.0
C388 C 0.8124 0.5442 0.16227 0.0
C389 C 0.80714 0.52475 0.1281 0.0
C390 C 0.79179 0.51882 0.10679 0.0
C391 C 0.78717 0.54594 0.09541 0.0
C392 C 0.7742 0.54106 0.07494 0.0
C393 C 0.76608 0.50931 0.06562 0.0
C394 C 0.77054 0.4822 0.07681 0.0
C395 C 0.78344 0.48691 0.0973 0.0
H396 H 0.75665 0.50588 0.04968 0.0
H397 H 0.91147 0.57961 0.24006 0.0
H398 H 0.47321 0.95459 0.46883 0.0
H399 H 0.41692 0.89759 0.46445 0.0
H400 H 0.45548 0.84119 0.50718 0.0
H401 H 0.51342 0.8984 0.51017 0.0
H402 H 0.41052 0.78757 0.49115 0.0
H403 H 0.36908 0.86793 0.50881 0.0
H404 H 0.3628 0.92278 0.50597 0.0
H405 H 0.32456 0.9019 0.44304 0.0
H406 H 0.33087 0.84707 0.44549 0.0
H407 H 0.22309 0.62516 0.50007 0.0
H408 H 0.2831 0.68013 0.5036 0.0
H409 H 0.26032 0.73247 0.45 0.0
H410 H 0.20114 0.67775 0.44636 0.0
H411 H 0.29648 0.78671 0.47252 0.0
H412 H 0.33413 0.70131 0.45795 0.0
H413 H 0.33822 0.64537 0.4637 0.0
H414 H 0.38084 0.67476 0.52514 0.0
H415 H 0.37663 0.73069 0.51983 0.0
C416 C 0.47031 0.93039 0.47756 0.0
C417 C 0.50024 0.93369 0.49012 0.0
C418 C 0.43639 0.89638 0.47529 0.0
C419 C 0.4279 0.86194 0.48599 0.0
C420 C 0.45821 0.86527 0.49842 0.0
C421 C 0.49262 0.89926 0.50028 0.0
C422 C 0.38928 0.8238 0.48402 0.0
C423 C 0.38597 0.78841 0.48733 0.0
C424 C 0.35452 0.82085 0.47885 0.0
C425 C 0.35084 0.85372 0.47726 0.0
C426 C 0.35948 0.87517 0.49435 0.0
C427 C 0.35591 0.90622 0.49281 0.0
C428 C 0.34341 0.91588 0.47431 0.0
C429 C 0.33433 0.89443 0.45734 0.0
C430 C 0.33787 0.86336 0.45879 0.0
C431 C 0.2309 0.6475 0.48834 0.0
C432 C 0.2053 0.64382 0.47211 0.0
C433 C 0.26635 0.68032 0.49053 0.0
C434 C 0.27942 0.71321 0.47706 0.0
C435 C 0.25364 0.70942 0.46105 0.0
C436 C 0.21872 0.67665 0.4587 0.0
C437 C 0.31794 0.75086 0.47961 0.0
C438 C 0.32115 0.78608 0.47636 0.0
C439 C 0.35231 0.75354 0.48532 0.0
C440 C 0.35471 0.71996 0.48857 0.0
C441 C 0.34414 0.6957 0.47274 0.0
C442 C 0.34652 0.66402 0.47591 0.0
C443 C 0.35969 0.65646 0.4948 0.0
C444 C 0.37059 0.68062 0.51054 0.0
C445 C 0.36823 0.71231 0.50745 0.0
H446 H 0.36152 0.63194 0.49722 0.0
H447 H 0.34067 0.93993 0.47314 0.0
H448 H 0.68428 0.4821 0.82366 0.0
H449 H 0.68482 0.42527 0.82044 0.0
H450 H 0.56865 0.36638 0.8184 0.0
H451 H 0.56824 0.42333 0.82217 0.0
H452 H 0.57768 0.3153 0.8328 0.0
H453 H 0.6437 0.39209 0.77544 0.0
H454 H 0.69033 0.4439 0.7541 0.0
H455 H 0.77243 0.42453 0.78279 0.0
H456 H 0.72657 0.37345 0.80489 0.0
H457 H 0.5758 0.14952 0.79727 0.0
H458 H 0.571 0.20426 0.80199 0.0
H459 H 0.68418 0.26369 0.81692 0.0
H460 H 0.68858 0.2094 0.81291 0.0
H461 H 0.67438 0.31294 0.79499 0.0
H462 H 0.60267 0.2346 0.85307 0.0
H463 H 0.55204 0.17945 0.87007 0.0
H464 H 0.4759 0.19858 0.83331 0.0
H465 H 0.52611 0.25363 0.81593 0.0
C466 C 0.65844 0.45741 0.8225 0.0
C467 C 0.6262 0.45984 0.82327 0.0
C468 C 0.6587 0.4236 0.82037 0.0
C469 C 0.62676 0.38856 0.81852 0.0
C470 C 0.59454 0.39104 0.81957 0.0
C471 C 0.59427 0.42485 0.82175 0.0
C472 C 0.62677 0.35062 0.81576 0.0
C473 C 0.59911 0.31573 0.82424 0.0
C474 C 0.65371 0.34744 0.80471 0.0
C475 C 0.68169 0.37933 0.79221 0.0
C476 C 0.67178 0.39929 0.77753 0.0
C477 C 0.69809 0.42852 0.76525 0.0
C478 C 0.73433 0.43762 0.76715 0.0
C479 C 0.74439 0.41768 0.78146 0.0
C480 C 0.71826 0.38867 0.79394 0.0
C481 C 0.59967 0.17352 0.80236 0.0
C482 C 0.63241 0.17203 0.80562 0.0
C483 C 0.59702 0.20614 0.80494 0.0
C484 C 0.62712 0.24081 0.81022 0.0
C485 C 0.65964 0.23918 0.81304 0.0
C486 C 0.66204 0.2067 0.81094 0.0
C487 C 0.62587 0.27817 0.81233 0.0
C488 C 0.65326 0.31287 0.80369 0.0
C489 C 0.59827 0.28105 0.82271 0.0
C490 C 0.56814 0.248 0.83306 0.0
C491 C 0.57513 0.22688 0.84851 0.0
C492 C 0.54651 0.19568 0.85823 0.0
C493 C 0.51078 0.18546 0.85273 0.0
C494 C 0.50359 0.20649 0.83753 0.0
C495 C 0.53212 0.2377 0.82775 0.0
H496 H 0.48866 0.1613 0.86028 0.0
H497 H 0.75455 0.45992 0.7574 0.0
H498 H 0.66912 0.84718 0.53533 0.0
H499 H 0.66712 0.78941 0.533 0.0
H500 H 0.59027 0.76337 0.48235 0.0
H501 H 0.59151 0.82124 0.48485 0.0
H502 H 0.61313 0.71972 0.53745 0.0
H503 H 0.61368 0.71747 0.44842 0.0
H504 H 0.63125 0.76034 0.41718 0.0
H505 H 0.71185 0.8458 0.45279 0.0
H506 H 0.69511 0.80333 0.48412 0.0
H507 H 0.63099 0.5698 0.53155 0.0
H508 H 0.60369 0.60511 0.51616 0.0
H509 H 0.70955 0.69359 0.49858 0.0
H510 H 0.73678 0.65864 0.51364 0.0
H511 H 0.65796 0.69712 0.47388 0.0
H512 H 0.683 0.68631 0.54831 0.0
H513 H 0.67691 0.65041 0.58156 0.0
H514 H 0.56135 0.60234 0.5781 0.0
H515 H 0.56685 0.63804 0.54481 0.0
C516 C 0.65117 0.82894 0.52396 0.0
C517 C 0.63035 0.83879 0.51034 0.0
C518 C 0.65018 0.79595 0.5226 0.0
C519 C 0.62859 0.77218 0.50749 0.0
C520 C 0.60729 0.78151 0.49402 0.0
C521 C 0.60816 0.8146 0.49543 0.0
C522 C 0.62985 0.7384 0.50567 0.0
C523 C 0.62214 0.71434 0.5234 0.0
C524 C 0.64215 0.73172 0.48743 0.0
C525 C 0.65274 0.75736 0.46864 0.0
C526 C 0.63518 0.7454 0.44955 0.0
C527 C 0.64501 0.76962 0.43183 0.0
C528 C 0.67253 0.80581 0.43302 0.0
C529 C 0.69042 0.81782 0.45191 0.0
C530 C 0.68074 0.7937 0.46965 0.0
C531 C 0.64821 0.59611 0.52353 0.0
C532 C 0.68608 0.61185 0.5243 0.0
C533 C 0.63259 0.61623 0.51472 0.0
C534 C 0.65475 0.65238 0.50684 0.0
C535 C 0.69195 0.66584 0.50471 0.0
C536 C 0.70754 0.64569 0.51336 0.0
C537 C 0.64155 0.67872 0.50574 0.0
C538 C 0.64725 0.70154 0.48758 0.0
C539 C 0.62864 0.68519 0.52383 0.0
C540 C 0.62528 0.66443 0.54403 0.0
C541 C 0.65631 0.66802 0.55466 0.0
C542 C 0.65298 0.64775 0.57348 0.0
C543 C 0.61875 0.62389 0.58184 0.0
C544 C 0.58783 0.62068 0.57154 0.0
C545 C 0.59103 0.64098 0.55273 0.0
H546 H 0.61621 0.608 0.59632 0.0
H547 H 0.68007 0.82452 0.4193 0.0
H548 H 0.77823 0.51883 0.77486 0.0
H549 H 0.81663 0.49104 0.77736 0.0
H550 H 0.90656 0.59172 0.79656 0.0
H551 H 0.86847 0.61943 0.79443 0.0
H552 H 0.92796 0.5492 0.77639 0.0
H553 H 0.84915 0.5397 0.83082 0.0
H554 H 0.79073 0.52367 0.84604 0.0
H555 H 0.74983 0.41107 0.8361 0.0
H556 H 0.80761 0.42665 0.81993 0.0
H557 H 1.01527 0.52108 0.86598 0.0
H558 H 0.97966 0.5367 0.84059 0.0
H559 H 0.91598 0.42397 0.82657 0.0
H560 H 0.95241 0.40848 0.85161 0.0
H561 H 0.87697 0.46092 0.83785 0.0
H562 H 0.96524 0.47313 0.79044 0.0
H563 H 1.0265 0.4936 0.77772 0.0
H564 H 0.05322 0.60519 0.77873 0.0
H565 H 0.99231 0.58543 0.79179 0.0
C566 C 0.80657 0.53538 0.77882 0.0
C567 C 0.82013 0.57085 0.78507 0.0
C568 C 0.82841 0.51953 0.78017 0.0
C569 C 0.86393 0.53907 0.78772 0.0
C570 C 0.87906 0.57618 0.79082 0.0
C571 C 0.85721 0.59202 0.78957 0.0
C572 C 0.88232 0.51961 0.79684 0.0
C573 C 0.9168 0.52966 0.78971 0.0
C574 C 0.86739 0.49393 0.81417 0.0
C575 C 0.83242 0.48449 0.82365 0.0
C576 C 0.82748 0.51161 0.83147 0.0
C577 C 0.79449 0.5026 0.84029 0.0
C578 C 0.76643 0.46641 0.84179 0.0
C579 C 0.77143 0.43915 0.83463 0.0
C580 C 0.80426 0.44807 0.82557 0.0
C581 C 0.99368 0.49978 0.85741 0.0
C582 C 0.98611 0.46366 0.86068 0.0
C583 C 0.97367 0.50869 0.84285 0.0
C584 C 0.9456 0.48149 0.83162 0.0
C585 C 0.93781 0.44527 0.83501 0.0
C586 C 0.95835 0.43647 0.84929 0.0
C587 C 0.92285 0.49093 0.8176 0.0
C588 C 0.88761 0.47929 0.82401 0.0
C589 C 0.93741 0.51567 0.79995 0.0
C590 C 0.97422 0.52776 0.79224 0.0
C591 C 0.98427 0.50205 0.78815 0.0
C592 C 1.01892 0.51353 0.78083 0.0
C593 C 0.04375 0.55068 0.77745 0.0
C594 C 0.03396 0.57642 0.78136 0.0
C595 C 0.99935 0.56509 0.7887 0.0
H596 H 0.07055 0.55951 0.77176 0.0
H597 H 0.74091 0.45946 0.84866 0.0
H598 H 0.30146 0.76246 0.17067 0.0
H599 H 0.34805 0.82613 0.16569 0.0
H600 H 0.31511 0.8286 0.10154 0.0
H601 H 0.26774 0.7646 0.10659 0.0
H602 H 0.40382 0.87732 0.14294 0.0
H603 H 0.30233 0.90006 0.09353 0.0
H604 H 0.23754 0.86746 0.08381 0.0
H605 H 0.21162 0.80694 0.14329 0.0
H606 H 0.27617 0.83941 0.15337 0.0
H607 H 0.47129 0.06219 0.15777 0.0
H608 H 0.44494 1.01168 0.13486 0.0
H609 H 0.34938 0.95648 0.1731 0.0
H610 H 0.37562 1.00675 0.19588 0.0
H611 H 0.33296 0.94104 0.13262 0.0
H612 H 0.4211 0.94747 0.18549 0.0
H613 H 0.48167 0.97677 0.20183 0.0
H614 H 0.5286 0.97325 0.14525 0.0
H615 H 0.46832 0.94466 0.12843 0.0
C616 C 0.30517 0.77601 0.15524 0.0
C617 C 0.28052 0.75897 0.13915 0.0
C618 C 0.3319 0.8125 0.15239 0.0
C619 C 0.33436 0.83231 0.13339 0.0
C620 C 0.31317 0.81389 0.11642 0.0
C621 C 0.28612 0.77743 0.11933 0.0
C622 C 0.35276 0.87249 0.13316 0.0
C623 C 0.38876 0.89159 0.14008 0.0
C624 C 0.33283 0.89094 0.12982 0.0
C625 C 0.29398 0.87182 0.12406 0.0
C626 C 0.28273 0.87985 0.10451 0.0
C627 C 0.24609 0.86139 0.09895 0.0
C628 C 0.2205 0.83505 0.11289 0.0
C629 C 0.23146 0.82727 0.13248 0.0
C630 C 0.26805 0.84567 0.13812 0.0
C631 C 0.444 0.03996 0.16066 0.0
C632 C 0.42527 0.03826 0.17844 0.0
C633 C 0.42909 1.01114 0.14765 0.0
C634 C 0.39545 0.98023 0.15246 0.0
C635 C 0.37531 0.98018 0.16906 0.0
C636 C 0.39024 1.00888 0.18207 0.0
C637 C 0.38368 0.94559 0.14291 0.0
C638 C 0.34884 0.92748 0.13428 0.0
C639 C 0.40423 0.92769 0.14544 0.0
C640 C 0.44036 0.94451 0.1556 0.0
C641 C 0.44439 0.95324 0.17648 0.0
C642 C 0.47865 0.9697 0.18584 0.0
C643 C 0.50898 0.97698 0.17456 0.0
C644 C 0.5051 0.96772 0.15393 0.0
C645 C 0.47091 0.95146 0.14447 0.0
H646 H 0.53549 0.98971 0.18183 0.0
H647 H 0.19217 0.82074 0.10854 0.0
H648 H 0.5829 0.26262 0.48496 0.0
H649 H 0.61268 0.32733 0.49149 0.0
H650 H 0.71685 0.33423 0.4901 0.0
H651 H 0.68742 0.26988 0.48328 0.0
H652 H 0.70661 0.35808 0.52552 0.0
H653 H 0.69475 0.3769 0.45207 0.0
H654 H 0.66168 0.36621 0.41865 0.0
H655 H 0.59392 0.40311 0.44189 0.0
H656 H 0.62631 0.41358 0.47558 0.0
H657 H 0.8054 0.5648 0.51131 0.0
H658 H 0.76905 0.50684 0.49497 0.0
H659 H 0.70417 0.46062 0.5504 0.0
H660 H 0.74087 0.5182 0.56682 0.0
H661 H 0.69612 0.45789 0.4861 0.0
H662 H 0.69763 0.37869 0.56272 0.0
H663 H 0.73335 0.38889 0.59522 0.0
H664 H 0.82787 0.47278 0.56305 0.0
H665 H 0.79285 0.46268 0.53032 0.0
C666 C 0.61218 0.27816 0.48555 0.0
C667 C 0.63283 0.26111 0.48387 0.0
C668 C 0.62913 0.31507 0.48931 0.0
C669 C 0.66692 0.33543 0.49135 0.0
C670 C 0.68762 0.31887 0.48872 0.0
C671 C 0.67077 0.2821 0.48492 0.0
C672 C 0.68475 0.37298 0.49812 0.0
C673 C 0.70429 0.37987 0.51687 0.0
C674 C 0.68189 0.40138 0.48675 0.0
C675 C 0.66277 0.39574 0.46641 0.0
C676 C 0.67264 0.38252 0.45011 0.0
C677 C 0.65405 0.37653 0.4311 0.0
C678 C 0.62566 0.38389 0.42816 0.0
C679 C 0.6159 0.39739 0.4442 0.0
C680 C 0.63441 0.40341 0.46324 0.0
C681 C 0.78304 0.54231 0.51981 0.0
C682 C 0.77645 0.54533 0.54047 0.0
C683 C 0.76216 0.50942 0.51045 0.0
C684 C 0.73438 0.47933 0.52163 0.0
C685 C 0.72585 0.4834 0.54164 0.0
C686 C 0.74682 0.51615 0.55101 0.0
C687 C 0.71754 0.44268 0.5136 0.0
C688 C 0.69824 0.43598 0.49471 0.0
C689 C 0.721 0.41437 0.52465 0.0
C690 C 0.74252 0.42018 0.54415 0.0
C691 C 0.72607 0.3992 0.56258 0.0
C692 C 0.74619 0.40497 0.58104 0.0
C693 C 0.78282 0.43155 0.58121 0.0
C694 C 0.79946 0.45229 0.56291 0.0
C695 C 0.77949 0.44657 0.54441 0.0
H696 H 0.79833 0.43602 0.59552 0.0
H697 H 0.61127 0.3792 0.41345 0.0
H698 H 0.37201 0.46905 0.78391 0.0
H699 H 0.30893 0.45476 0.78079 0.0
H700 H 0.32578 0.52267 0.83106 0.0
H701 H 0.38868 0.5373 0.83401 0.0
H702 H 0.26335 0.41732 0.81051 0.0
H703 H 0.2658 0.54998 0.83091 0.0
H704 H 0.30181 0.61605 0.82188 0.0
H705 H 0.33333 0.59592 0.76444 0.0
H706 H 0.2971 0.5297 0.77295 0.0
H707 H 0.1305 0.39078 0.87942 0.0
H708 H 0.18523 0.4097 0.85953 0.0
H709 H 0.14093 0.44442 0.80687 0.0
H710 H 0.08598 0.42551 0.82691 0.0
H711 H 0.21007 0.49646 0.81633 0.0
H712 H 0.149 0.37126 0.80275 0.0
H713 H 0.11314 0.30504 0.81142 0.0
H714 H 0.19812 0.31024 0.85196 0.0
H715 H 0.2343 0.37657 0.84375 0.0
C716 C 0.36238 0.48163 0.79389 0.0
C717 C 0.38498 0.50395 0.80935 0.0
C718 C 0.32646 0.47356 0.79206 0.0
C719 C 0.31265 0.48765 0.80566 0.0
C720 C 0.33597 0.51202 0.82011 0.0
C721 C 0.37193 0.5203 0.82185 0.0
C722 C 0.27313 0.47243 0.80731 0.0
C723 C 0.25157 0.43461 0.81138 0.0
C724 C 0.25762 0.49491 0.8081 0.0
C725 C 0.27875 0.53478 0.80262 0.0
C726 C 0.28013 0.55959 0.81626 0.0
C727 C 0.30068 0.5971 0.81126 0.0
C728 C 0.31989 0.61018 0.79261 0.0
C729 C 0.31851 0.58576 0.7789 0.0
C730 C 0.298 0.54823 0.78382 0.0
C731 C 0.13212 0.40153 0.86343 0.0
C732 C 0.10388 0.4059 0.85444 0.0
C733 C 0.16332 0.41242 0.8521 0.0
C734 C 0.16685 0.42802 0.83165 0.0
C735 C 0.13853 0.43216 0.82256 0.0
C736 C 0.10718 0.42111 0.8339 0.0
C737 C 0.20117 0.44177 0.82046 0.0
C738 C 0.22167 0.4792 0.81473 0.0
C739 C 0.21571 0.41896 0.81789 0.0
C740 C 0.19434 0.37893 0.82264 0.0
C741 C 0.15998 0.35831 0.81358 0.0
C742 C 0.1396 0.32075 0.81841 0.0
C743 C 0.15334 0.30345 0.83224 0.0
C744 C 0.18753 0.32367 0.84123 0.0
C745 C 0.20803 0.36125 0.83645 0.0
H746 H 0.1375 0.27437 0.83597 0.0
H747 H 0.33582 0.63922 0.78879 0.0
H748 H 0.86436 0.34086 0.18047 0.0
H749 H 0.79994 0.29698 0.18049 0.0
H750 H 0.80659 0.27429 0.11738 0.0
H751 H 0.87161 0.31892 0.11713 0.0
H752 H 0.74289 0.29067 0.15741 0.0
H753 H 0.74879 0.18072 0.11558 0.0
H754 H 0.79311 0.16277 0.10686 0.0
H755 H 0.85429 0.20843 0.16203 0.0
H756 H 0.81011 0.22619 0.17117 0.0
H757 H 0.56657 0.14267 0.17246 0.0
H758 H 0.6206 0.18235 0.15169 0.0
H759 H 0.68274 0.14824 0.19251 0.0
H760 H 0.62861 0.10727 0.21269 0.0
H761 H 0.70716 0.16075 0.15378 0.0
H762 H 0.67463 0.2221 0.20185 0.0
H763 H 0.63468 0.24135 0.216 0.0
H764 H 0.63278 0.29434 0.15662 0.0
H765 H 0.67238 0.27495 0.14206 0.0
C766 C 0.85208 0.32719 0.16641 0.0
C767 C 0.87303 0.33335 0.14879 0.0
C768 C 0.81525 0.30209 0.16645 0.0
C769 C 0.7986 0.28247 0.14894 0.0
C770 C 0.8191 0.28912 0.13106 0.0
C771 C 0.85615 0.31438 0.131 0.0
C772 C 0.76041 0.25328 0.15041 0.0
C773 C 0.73479 0.26228 0.15616 0.0
C774 C 0.75012 0.21633 0.14898 0.0
C775 C 0.77644 0.20516 0.14387 0.0
C776 C 0.77167 0.18682 0.12585 0.0
C777 C 0.79676 0.17669 0.12084 0.0
C778 C 0.82658 0.18459 0.13384 0.0
C779 C 0.83127 0.20245 0.15193 0.0
C780 C 0.80623 0.21257 0.15702 0.0
C781 C 0.59151 0.14282 0.17664 0.0
C782 C 0.59355 0.1224 0.19446 0.0
C783 C 0.62236 0.16562 0.16481 0.0
C784 C 0.65574 0.16867 0.17078 0.0
C785 C 0.65725 0.14637 0.18766 0.0
C786 C 0.62642 0.12337 0.19937 0.0
C787 C 0.68991 0.1981 0.16144 0.0
C788 C 0.71474 0.18917 0.15416 0.0
C789 C 0.6999 0.23518 0.16211 0.0
C790 C 0.67596 0.24663 0.1708 0.0
C791 C 0.66542 0.23759 0.19178 0.0
C792 C 0.64289 0.24856 0.19987 0.0
C793 C 0.63108 0.26894 0.18719 0.0
C794 C 0.64185 0.27846 0.1664 0.0
C795 C 0.66431 0.26746 0.15822 0.0
H796 H 0.61368 0.27745 0.19349 0.0
H797 H 0.84599 0.17678 0.12992 0.0
H798 H 0.09673 0.49716 0.10669 0.0
H799 H 0.08417 0.47671 0.07133 0.0
H800 H 0.04252 0.54943 0.05489 0.0
H801 H 0.05458 0.56957 0.09032 0.0
H802 H 0.9999 0.48473 0.03947 0.0
H803 H 0.12579 0.57186 0.03972 0.0
H804 H 0.1894 0.60107 0.05149 0.0
H805 H 0.19296 0.5044 0.04134 0.0
H806 H 0.12913 0.47439 0.02973 0.0
H807 H 1.02168 0.50249 0.9289 0.0
H808 H 1.02601 0.51305 0.9658 0.0
H809 H 0.04693 0.42446 0.98048 0.0
H810 H 0.04084 0.41231 0.94369 0.0
H811 H 0.09843 0.49377 -0.00293 0.0
H812 H 0.97039 0.40969 -0.00634 0.0
H813 H 0.90881 0.38673 0.97924 0.0
H814 H 0.91152 0.48503 -0.00678 0.0
H815 H 0.97338 0.50885 0.00744 0.0
C816 C 0.08491 0.5087 0.09554 0.0
C817 C 0.07685 0.53508 0.10114 0.0
C818 C 0.07779 0.49711 0.07533 0.0
C819 C 0.06271 0.51181 0.06043 0.0
C820 C 0.05413 0.53773 0.06615 0.0
C821 C 0.06123 0.54931 0.08633 0.0
C822 C 0.05638 0.50064 0.03877 0.0
C823 C 1.02151 0.48698 0.03015 0.0
C824 C 0.08448 0.5032 0.02668 0.0
C825 C 0.12258 0.52074 0.03408 0.0
C826 C 0.14001 0.55667 0.04022 0.0
C827 C 0.17611 0.57341 0.04681 0.0
C828 C 0.19516 0.55459 0.04718 0.0
C829 C 0.17812 0.51892 0.04105 0.0
C830 C 0.14199 0.50204 0.03445 0.0
C831 C 1.02628 0.48457 0.93995 0.0
C832 C 0.03091 0.45649 0.93322 0.0
C833 C 1.029 0.49086 0.96103 0.0
C834 C 0.03675 0.4695 0.97577 0.0
C835 C 0.04104 0.44128 0.96926 0.0
C836 C 0.03778 0.43457 0.94821 0.0
C837 C 0.04204 0.47784 -0.00213 0.0
C838 C 0.07677 0.49112 0.00652 0.0
C839 C 1.01399 0.47559 0.00981 0.0
C840 C 0.97666 0.46119 0.00144 0.0
C841 C 0.95798 0.42656 -0.0065 0.0
C842 C 0.923 0.41335 0.98539 0.0
C843 C 0.9063 0.43444 0.98527 0.0
C844 C 0.92451 0.46874 -0.00669 0.0
C845 C 0.95952 0.48209 0.00142 0.0
H846 H 0.87922 0.42418 0.97898 0.0
H847 H 0.22318 0.56775 0.05209 0.0
H848 H 0.66972 0.07103 0.42682 0.0
H849 H 0.65758 0.08292 0.39026 0.0
H850 H 0.54348 0.03079 0.40348 0.0
H851 H 0.5556 1.01992 0.43995 0.0
H852 H 0.61924 0.03965 0.36061 0.0
H853 H 0.50433 0.07064 0.37301 0.0
H854 H 0.48416 0.09598 0.39897 0.0
H855 H 0.59298 0.1566 0.42207 0.0
H856 H 0.61398 0.13217 0.39596 0.0
H857 H 0.51311 0.02395 0.27007 0.0
H858 H 0.52943 1.01969 0.30675 0.0
H859 H 0.59466 0.13679 0.30532 0.0
H860 H 0.57877 0.14117 0.26848 0.0
H861 H 0.54903 0.10215 0.34157 0.0
H862 H 0.63824 0.09695 0.30198 0.0
H863 H 0.65915 0.07415 0.27495 0.0
H864 H 0.60571 0.967 0.30596 0.0
H865 H 0.58394 0.98906 0.33301 0.0
C866 C 0.64205 0.06214 0.42184 0.0
C867 C 0.61358 0.04474 0.43615 0.0
C868 C 0.63518 0.0689 0.40101 0.0
C869 C 0.5997 0.05827 0.39422 0.0
C870 C 0.57115 0.03999 0.40845 0.0
C871 C 0.57804 0.03358 0.42927 0.0
C872 C 0.59239 0.06603 0.37224 0.0
C873 C 0.60401 0.05342 0.35649 0.0
C874 C 0.57278 0.08435 0.3668 0.0
C875 C 0.56066 0.09937 0.38259 0.0
C876 C 0.524 0.08951 0.38356 0.0
C877 C 0.51242 0.1037 0.3983 0.0
C878 C 0.53727 0.12788 0.41213 0.0
C879 C 0.57377 0.13785 0.41132 0.0
C880 C 0.58552 0.12381 0.39656 0.0
C881 C 0.53044 0.04876 0.27771 0.0
C882 C 0.54469 0.08288 0.26657 0.0
C883 C 0.53991 0.0463 0.29854 0.0
C884 C 0.56342 0.07792 0.30858 0.0
C885 C 0.57653 0.11213 0.29775 0.0
C886 C 0.56751 0.11458 0.2768 0.0
C887 C 0.57522 0.07508 0.33021 0.0
C888 C 0.56442 0.08856 0.34581 0.0
C889 C 0.59579 0.05788 0.33551 0.0
C890 C 0.60917 0.04459 0.31941 0.0
C891 C 0.63068 0.06845 0.30295 0.0
C892 C 0.64273 0.05568 0.28763 0.0
C893 C 0.6337 1.01913 0.28871 0.0
C894 C 0.61266 0.99531 0.30513 0.0
C895 C 0.60048 1.00793 0.32047 0.0
H896 H 0.64305 1.00929 0.27684 0.0
H897 H 0.5282 0.13899 0.42339 0.0
H898 H 0.58547 0.59672 0.75581 0.0
H899 H 0.60013 0.60043 0.71899 0.0
H900 H 0.68363 0.57438 0.73678 0.0
H901 H 0.66903 0.57043 0.77342 0.0
H902 H 0.66262 0.64177 0.69574 0.0
H903 H 0.68038 0.51516 0.70217 0.0
H904 H 0.65996 0.45819 0.72425 0.0
H905 H 0.5638 0.45916 0.73977 0.0
H906 H 0.58315 0.51561 0.71732 0.0
H907 H 0.75326 0.63155 0.60929 0.0
H908 H 0.73369 0.63056 0.64449 0.0
H909 H 0.62625 0.54481 0.63011 0.0
H910 H 0.64577 0.54537 0.59486 0.0
H911 H 0.65277 0.53152 0.66823 0.0
H912 H 0.6366 0.62747 0.63319 0.0
H913 H 0.6554 0.68434 0.6111 0.0
H914 H 0.74486 0.74259 0.65223 0.0
H915 H 0.7264 0.68617 0.67465 0.0
C916 C 0.60717 0.59216 0.75182 0.0
C917 C 0.62583 0.58287 0.76739 0.0
C918 C 0.61554 0.59433 0.73084 0.0
C919 C 0.64254 0.58708 0.72518 0.0
C920 C 0.66229 0.57946 0.7408 0.0
C921 C 0.65397 0.5773 0.76172 0.0
C922 C 0.64925 0.58604 0.70299 0.0
C923 C 0.66038 0.61764 0.68972 0.0
C924 C 0.64593 0.5544 0.69508 0.0
C925 C 0.63345 0.51988 0.70822 0.0
C926 C 0.65478 0.50311 0.7102 0.0
C927 C 0.64341 0.47092 0.7228 0.0
C928 C 0.61074 0.4552 0.73354 0.0
C929 C 0.58919 0.47146 0.73153 0.0
C930 C 0.60034 0.50355 0.71885 0.0
C931 C 0.72559 0.61215 0.6137 0.0
C932 C 0.70112 0.5883 0.59938 0.0
C933 C 0.71434 0.61193 0.63372 0.0
C934 C 0.67846 0.58783 0.63981 0.0
C935 C 0.65404 0.56367 0.62567 0.0
C936 C 0.66521 0.56406 0.60557 0.0
C937 C 0.66677 0.58741 0.66114 0.0
C938 C 0.65478 0.55555 0.67425 0.0
C939 C 0.66913 0.61869 0.66888 0.0
C940 C 0.68029 0.65261 0.65547 0.0
C941 C 0.6604 0.65239 0.63742 0.0
C942 C 0.67094 0.68451 0.62488 0.0
C943 C 0.70143 0.71696 0.63017 0.0
C944 C 0.72129 0.71742 0.64812 0.0
C945 C 0.7107 0.68543 0.66081 0.0
H946 H 0.70959 0.74178 0.62041 0.0
H947 H 0.60207 0.43035 0.74336 0.0
H948 H 0.54595 1.01544 0.56325 0.0
H949 H 0.55254 1.01539 0.60117 0.0
H950 H 0.6684 0.0802 0.59491 0.0
H951 H 0.66189 0.07984 0.55674 0.0
H952 H 0.58769 0.99074 0.62961 0.0
H953 H 0.69884 0.13968 0.63542 0.0
H954 H 0.72361 0.19876 0.61489 0.0
H955 H 0.61988 0.16435 0.58585 0.0
H956 H 0.59441 0.1053 0.60641 0.0
H957 H 0.65722 0.02554 0.73405 0.0
H958 H 0.6546 0.0262 0.69613 0.0
H959 H 0.58585 0.07351 0.69448 0.0
H960 H 0.58657 0.07122 0.73255 0.0
H961 H 0.64355 0.1073 0.66387 0.0
H962 H 0.54747 0.98792 0.68774 0.0
H963 H 0.52286 0.92924 0.70863 0.0
H964 H 0.59448 0.90441 0.67835 0.0
H965 H 0.61992 0.96323 0.6575 0.0
C966 C 0.57291 0.02952 0.5699 0.0
C967 C 0.60337 0.04772 0.55686 0.0
C968 C 0.57665 0.02937 0.59167 0.0
C969 C 0.61094 0.04795 0.60113 0.0
C970 C 0.64157 0.06583 0.58814 0.0
C971 C 0.63784 0.06552 0.56627 0.0
C972 C 0.61417 0.04915 0.62447 0.0
C973 C 0.60013 1.01631 0.63702 0.0
C974 C 0.6301 0.08233 0.63444 0.0
C975 C 0.64486 0.11797 0.62229 0.0
C976 C 0.6813 0.14481 0.62471 0.0
C977 C 0.69547 0.17827 0.61306 0.0
C978 C 0.67336 0.18526 0.59902 0.0
C979 C 0.63701 0.15886 0.59667 0.0
C980 C 0.62271 0.12537 0.6083 0.0
C981 C 0.641 0.03564 0.72582 0.0
C982 C 0.62179 0.04795 0.73683 0.0
C983 C 0.63986 0.03631 0.70396 0.0
C984 C 0.61997 0.04982 0.69227 0.0
C985 C 0.60159 0.06311 0.70304 0.0
C986 C 0.60222 0.06192 0.72495 0.0
C987 C 0.6174 0.04894 0.66894 0.0
C988 C 0.63146 0.08179 0.65642 0.0
C989 C 0.60159 1.01578 0.65899 0.0
C990 C 0.58582 0.98011 0.6712 0.0
C991 C 0.55814 0.97005 0.68564 0.0
C992 C 0.54402 0.93676 0.69746 0.0
C993 C 0.55716 0.91315 0.69486 0.0
C994 C 0.58436 0.92274 0.68037 0.0
C995 C 0.59861 0.95604 0.66853 0.0
H996 H 0.54622 0.88741 0.70404 0.0
H997 H 0.68439 0.21116 0.58999 0.0
H998 H 0.57814 0.52634 0.88938 0.0
H999 H 0.57 0.51726 0.92751 0.0
H1000 H 0.67281 0.61438 0.93522 0.0
H1001 H 0.68043 0.62432 0.89741 0.0
H1002 H 0.65454 0.54022 0.96144 0.0
H1003 H 0.61473 0.62893 0.94265 0.0
H1004 H 0.57583 0.64869 0.92305 0.0
H1005 H 0.48112 0.55427 0.94863 0.0
H1006 H 0.51952 0.53366 0.96812 0.0
H1007 H 0.67053 0.57967 0.06681 0.0
H1008 H 0.67022 0.58273 0.02886 0.0
H1009 H 0.55392 0.51712 0.02863 0.0
H1010 H 0.554 0.51323 0.06678 0.0
H1011 H 0.57369 0.56946 -0.00192 0.0
H1012 H 0.60499 0.48017 0.01749 0.0
H1013 H 0.63602 0.44991 0.0355 0.0
H1014 H 0.73688 0.53166 0.00813 0.0
H1015 H 0.70649 0.56274 0.99009 0.0
C1016 C 0.59889 0.54583 0.89922 0.0
C1017 C 0.62991 0.5761 0.89024 0.0
C1018 C 0.59423 0.54061 0.92102 0.0
C1019 C 0.62084 0.5651 0.93435 0.0
C1020 C 0.6519 0.59506 0.92538 0.0
C1021 C 0.65614 0.60075 0.90367 0.0
C1022 C 0.61675 0.55972 0.95762 0.0
C1023 C 0.63722 0.54706 0.96946 0.0
C1024 C 0.59294 0.56697 0.96818 0.0
C1025 C 0.56996 0.57953 0.95662 0.0
C1026 C 0.58561 0.61219 0.94391 0.0
C1027 C 0.56366 0.62359 0.93287 0.0
C1028 C 0.52602 0.60268 0.93453 0.0
C1029 C 0.51027 0.57039 0.94731 0.0
C1030 C 0.53211 0.55886 0.95837 0.0
C1031 C 0.64478 0.56543 0.05883 0.0
C1032 C 0.61231 0.54581 0.07023 0.0
C1033 C 0.64465 0.56734 0.03695 0.0
C1034 C 0.61208 0.54979 0.02559 0.0
C1035 C 0.57951 0.53098 0.03683 0.0
C1036 C 0.57961 0.52889 0.05878 0.0
C1037 C 0.61239 0.55094 0.00211 0.0
C1038 C 0.59113 0.56265 0.99018 0.0
C1039 C 0.63469 0.54175 0.99139 0.0
C1040 C 0.65351 0.52397 0.00259 0.0
C1041 C 0.63387 0.49195 0.01548 0.0
C1042 C 0.65131 0.4746 0.02565 0.0
C1043 C 0.68836 0.48884 0.02294 0.0
C1044 C 0.70814 0.52065 0.01018 0.0
C1045 C 0.69082 0.53814 -4e-05 0.0
H1046 H 0.70162 0.47502 0.03063 0.0
H1047 H 0.50907 0.61156 0.92597 0.0
H1048 H 0.12958 0.51368 0.23061 0.0
H1049 H 0.12995 0.51711 0.26822 0.0
H1050 H 0.04187 0.53959 0.26203 0.0
H1051 H 0.04319 0.53847 0.224 0.0
H1052 H 0.0804 0.57543 0.29158 0.0
H1053 H 0.03303 0.4506 0.27963 0.0
H1054 H 1.03065 0.3972 0.26566 0.0
H1055 H 0.12855 0.41918 0.29862 0.0
H1056 H 0.13176 0.473 0.31259 0.0
H1057 H 1.0301 0.51866 0.39999 0.0
H1058 H 1.03079 0.52117 0.3618 0.0
H1059 H 0.13711 0.53292 0.36407 0.0
H1060 H 0.1368 0.53106 0.40225 0.0
H1061 H 0.08678 0.47875 0.33709 0.0
H1062 H 0.13025 0.6046 0.34947 0.0
H1063 H 0.12657 0.6543 0.36422 0.0
H1064 H 1.02699 0.62448 0.3311 0.0
H1065 H 1.02982 0.57425 0.31637 0.0
C1066 C 0.11045 0.51966 0.23723 0.0
C1067 C 0.08625 0.5256 0.22421 0.0
C1068 C 0.11036 0.52122 0.2589 0.0
C1069 C 0.08511 0.5274 0.26848 0.0
C1070 C 0.06155 0.53447 0.25536 0.0
C1071 C 0.06227 0.53381 0.23352 0.0
C1072 C 0.08333 0.5262 0.29199 0.0
C1073 C 0.08128 0.55388 0.30139 0.0
C1074 C 0.08467 0.49842 0.3053 0.0
C1075 C 0.08281 0.46603 0.29699 0.0
C1076 C 0.05417 0.44418 0.28379 0.0
C1077 C 0.05266 0.41382 0.27589 0.0
C1078 C 0.07948 0.40486 0.28121 0.0
C1079 C 0.10782 0.42618 0.29449 0.0
C1080 C 0.10948 0.4566 0.30242 0.0
C1081 C 0.05371 0.52192 0.39237 0.0
C1082 C 0.08345 0.52477 0.40432 0.0
C1083 C 0.05412 0.52347 0.37047 0.0
C1084 C 0.08405 0.52734 0.35985 0.0
C1085 C 0.11368 0.52997 0.37175 0.0
C1086 C 0.11356 0.52911 0.39363 0.0
C1087 C 0.08426 0.52803 0.33645 0.0
C1088 C 0.08589 0.50018 0.32715 0.0
C1089 C 0.08162 0.55507 0.32329 0.0
C1090 C 0.08007 0.58544 0.33198 0.0
C1091 C 0.10742 0.60845 0.34546 0.0
C1092 C 0.10552 0.63676 0.3538 0.0
C1093 C 0.07652 0.64248 0.34865 0.0
C1094 C 0.04941 0.61998 0.3351 0.0
C1095 C 0.05117 0.59161 0.32674 0.0
H1096 H 0.07509 0.66441 0.35511 0.0
H1097 H 0.07826 0.38135 0.27507 0.0
loop_
_geom_bond_atom_site_label_1
_geom_bond_atom_site_label_2
_geom_bond_distance
_geom_bond_site_symmetry_2
_ccdc_geom_bond_type
C0 Eu1 2.835 . S
C0 C2 1.500 . S
C0 O20 1.257 . S
C0 O21 1.260 . S
Eu1 C0 2.835 . S
Eu1 O20 2.473 . S
Eu1 O21 2.480 . S
Eu1 O22 2.430 1_655 S
Eu1 O23 2.670 1_655 S
Eu1 O24 2.394 . S
Eu1 O29 2.355 1_655 S
Eu1 O31 2.374 1_655 S
C2 C0 1.500 . S
C2 C3 1.377 . S
C2 C7 1.377 . S
C3 C2 1.377 . S
C3 C4 1.395 . S
C3 H32 0.931 . S
C4 C3 1.395 . S
C4 C5 1.383 . S
C4 H33 0.931 . S
C5 C4 1.383 . S
C5 C6 1.394 . S
C6 C5 1.394 . S
C6 C7 1.378 . S
C6 H34 0.931 . S
C7 C2 1.377 . S
C7 C6 1.378 . S
C7 H35 0.931 . S
C8 O22 1.259 . S
C8 O23 1.270 . S
C9 O24 1.251 . S
C9 O25 1.251 . S
C10 Eu11 2.835 . S
C10 C12 1.500 . S
C10 O26 1.257 . S
C10 O27 1.260 . S
Eu11 C10 2.835 . S
Eu11 O23 2.355 . S
Eu11 O25 2.374 1_455 S
Eu11 O26 2.473 . S
Eu11 O27 2.480 . S
Eu11 O28 2.430 . S
Eu11 O29 2.670 . S
Eu11 O30 2.394 . S
C12 C10 1.500 . S
C12 C13 1.377 . S
C12 C17 1.377 . S
C13 C12 1.377 . S
C13 C14 1.395 . S
C13 H36 0.931 . S
C14 C13 1.395 . S
C14 C15 1.383 . S
C14 H37 0.931 . S
C15 C14 1.383 . S
C15 C16 1.394 . S
C16 C15 1.394 . S
C16 C17 1.378 . S
C16 H38 0.931 . S
C17 C12 1.377 . S
C17 C16 1.378 . S
C17 H39 0.931 . S
C18 O28 1.259 . S
C18 O29 1.270 . S
C19 O30 1.251 . S
C19 O31 1.251 . S
O20 C0 1.257 . S
O20 Eu1 2.473 . S
O21 C0 1.260 . S
O21 Eu1 2.480 . S
O22 Eu1 2.430 1_455 S
O22 C8 1.259 . S
O23 Eu1 2.670 1_455 S
O23 C8 1.270 . S
O23 Eu11 2.355 . S
O24 Eu1 2.394 . S
O24 C9 1.251 . S
O25 C9 1.251 . S
O25 Eu11 2.374 1_655 S
O26 C10 1.257 . S
O26 Eu11 2.473 . S
O27 C10 1.260 . S
O27 Eu11 2.480 . S
O28 Eu11 2.430 . S
O28 C18 1.259 . S
O29 Eu1 2.355 1_455 S
O29 Eu11 2.670 . S
O29 C18 1.270 . S
O30 Eu11 2.394 . S
O30 C19 1.251 . S
O31 Eu1 2.374 1_455 S
O31 C19 1.251 . S
H32 C3 0.931 . S
H33 C4 0.931 . S
H34 C6 0.931 . S
H35 C7 0.931 . S
H36 C13 0.931 . S
H37 C14 0.931 . S
H38 C16 0.931 . S
H39 C17 0.931 . S
C40 Eu41 2.835 . S
C40 C42 1.500 . S
C40 O60 1.257 . S
C40 O61 1.260 . S
Eu41 C40 2.835 . S
Eu41 O60 2.473 . S
Eu41 O61 2.480 . S
Eu41 O62 2.430 . S
Eu41 O63 2.670 . S
Eu41 O64 2.394 . S
Eu41 O69 2.355 . S
Eu41 O71 2.374 1_545 S
C42 C40 1.500 . S
C42 C43 1.377 . S
C42 C47 1.377 . S
C43 C42 1.377 . S
C43 C44 1.395 . S
C43 H72 0.931 . S
C44 C43 1.395 . S
C44 C45 1.383 . S
C44 H73 0.931 . S
C45 C44 1.383 . S
C45 C46 1.394 . S
C46 C45 1.394 . S
C46 C47 1.378 . S
C46 H74 0.931 . S
C47 C42 1.377 . S
C47 C46 1.378 . S
C47 H75 0.931 . S
C48 O62 1.259 . S
C48 O63 1.270 . S
C49 O64 1.251 . S
C49 O65 1.251 . S
C50 Eu51 2.835 1_565 S
C50 C52 1.500 . S
C50 O66 1.257 . S
C50 O67 1.260 . S
Eu51 C50 2.835 1_545 S
Eu51 O63 2.355 . S
Eu51 O65 2.374 . S
Eu51 O66 2.473 1_545 S
Eu51 O67 2.480 1_545 S
Eu51 O68 2.430 . S
Eu51 O69 2.670 . S
Eu51 O70 2.394 1_545 S
C52 C50 1.500 . S
C52 C53 1.377 . S
C52 C57 1.377 . S
C53 C52 1.377 . S
C53 C54 1.395 . S
C53 H76 0.931 . S
C54 C53 1.395 . S
C54 C55 1.383 . S
C54 H77 0.931 . S
C55 C54 1.383 . S
C55 C56 1.394 . S
C56 C55 1.394 . S
C56 C57 1.378 . S
C56 H78 0.931 . S
C57 C52 1.377 . S
C57 C56 1.378 . S
C57 H79 0.931 . S
C58 O68 1.259 . S
C58 O69 1.270 . S
C59 O70 1.251 . S
C59 O71 1.251 . S
O60 C40 1.257 . S
O60 Eu41 2.473 . S
O61 C40 1.260 . S
O61 Eu41 2.480 . S
O62 Eu41 2.430 . S
O62 C48 1.259 . S
O63 Eu41 2.670 . S
O63 C48 1.270 . S
O63 Eu51 2.355 . S
O64 Eu41 2.394 . S
O64 C49 1.251 . S
O65 C49 1.251 . S
O65 Eu51 2.374 . S
O66 C50 1.257 . S
O66 Eu51 2.473 1_565 S
O67 C50 1.260 . S
O67 Eu51 2.480 1_565 S
O68 Eu51 2.430 . S
O68 C58 1.259 . S
O69 Eu41 2.355 . S
O69 Eu51 2.670 . S
O69 C58 1.270 . S
O70 Eu51 2.394 1_565 S
O70 C59 1.251 . S
O71 Eu41 2.374 1_565 S
O71 C59 1.251 . S
H72 C43 0.931 . S
H73 C44 0.931 . S
H74 C46 0.931 . S
H75 C47 0.931 . S
H76 C53 0.931 . S
H77 C54 0.931 . S
H78 C56 0.931 . S
H79 C57 0.931 . S
C80 Eu81 2.835 . S
C80 C82 1.500 . S
C80 O100 1.257 . S
C80 O101 1.260 . S
Eu81 C80 2.835 . S
Eu81 O100 2.473 . S
Eu81 O101 2.480 . S
Eu81 O102 2.430 . S
Eu81 O103 2.670 . S
Eu81 O104 2.394 . S
Eu81 O109 2.355 . S
Eu81 O111 2.374 . S
C82 C80 1.500 . S
C82 C83 1.377 . S
C82 C87 1.377 . S
C83 C82 1.377 . S
C83 C84 1.395 . S
C83 H112 0.931 . S
C84 C83 1.395 . S
C84 C85 1.383 . S
C84 H113 0.931 . S
C85 C84 1.383 . S
C85 C86 1.394 . S
C86 C85 1.394 . S
C86 C87 1.378 . S
C86 H114 0.931 . S
C87 C82 1.377 . S
C87 C86 1.378 . S
C87 H115 0.931 . S
C88 O102 1.259 . S
C88 O103 1.270 . S
C89 O104 1.251 . S
C89 O105 1.251 . S
C90 Eu91 2.835 . S
C90 C92 1.500 . S
C90 O106 1.257 . S
C90 O107 1.260 . S
Eu91 C90 2.835 . S
Eu91 O103 2.355 . S
Eu91 O105 2.374 . S
Eu91 O106 2.473 . S
Eu91 O107 2.480 . S
Eu91 O108 2.430 . S
Eu91 O109 2.670 . S
Eu91 O110 2.394 . S
C92 C90 1.500 . S
C92 C93 1.377 . S
C92 C97 1.377 . S
C93 C92 1.377 . S
C93 C94 1.395 . S
C93 H116 0.931 . S
C94 C93 1.395 . S
C94 C95 1.383 . S
C94 H117 0.931 . S
C95 C94 1.383 . S
C95 C96 1.394 . S
C96 C95 1.394 . S
C96 C97 1.378 . S
C96 H118 0.931 . S
C97 C92 1.377 . S
C97 C96 1.378 . S
C97 H119 0.931 . S
C98 O108 1.259 . S
C98 O109 1.270 . S
C99 O110 1.251 . S
C99 O111 1.251 . S
O100 C80 1.257 . S
O100 Eu81 2.473 . S
O101 C80 1.260 . S
O101 Eu81 2.480 . S
O102 Eu81 2.430 . S
O102 C88 1.259 . S
O103 Eu81 2.670 . S
O103 C88 1.270 . S
O103 Eu91 2.355 . S
O104 Eu81 2.394 . S
O104 C89 1.251 . S
O105 C89 1.251 . S
O105 Eu91 2.374 . S
O106 C90 1.257 . S
O106 Eu91 2.473 . S
O107 C90 1.260 . S
O107 Eu91 2.480 . S
O108 Eu91 2.430 . S
O108 C98 1.259 . S
O109 Eu81 2.355 . S
O109 Eu91 2.670 . S
O109 C98 1.270 . S
O110 Eu91 2.394 . S
O110 C99 1.251 . S
O111 Eu81 2.374 . S
O111 C99 1.251 . S
H112 C83 0.931 . S
H113 C84 0.931 . S
H114 C86 0.931 . S
H115 C87 0.931 . S
H116 C93 0.931 . S
H117 C94 0.931 . S
H118 C96 0.931 . S
H119 C97 0.931 . S
H120 C127 0.929 . S
H121 C130 0.930 1_565 S
H122 C132 0.929 . S
H123 C124 0.969 . S
C124 H123 0.969 . S
C124 O125 1.550 . S
C124 H126 0.973 . S
O125 C124 1.550 . S
O125 C131 1.412 1_565 S
H126 C124 0.973 . S
C127 H120 0.929 . S
C127 C128 1.400 . S
C127 C129 1.364 . S
C128 C127 1.400 . S
C128 C132 1.377 . S
C129 C127 1.364 . S
C129 C130 1.374 . S
C130 H121 0.930 1_545 S
C130 C129 1.374 . S
C130 C131 1.383 . S
C131 O125 1.412 1_545 S
C131 C130 1.383 . S
C131 C132 1.394 . S
C132 H122 0.929 . S
C132 C128 1.377 . S
C132 C131 1.394 . S
H133 C140 0.929 . S
H134 C143 0.930 . S
H135 C145 0.929 . S
H136 C137 0.969 . S
C137 H136 0.969 . S
C137 O138 1.550 . S
C137 H139 0.973 . S
O138 C137 1.550 . S
O138 C144 1.412 . S
H139 C137 0.973 . S
C140 H133 0.929 . S
C140 C141 1.400 . S
C140 C142 1.364 . S
C141 C140 1.400 . S
C141 C145 1.377 . S
C142 C140 1.364 . S
C142 C143 1.374 . S
C143 H134 0.930 . S
C143 C142 1.374 . S
C143 C144 1.383 . S
C144 O138 1.412 . S
C144 C143 1.383 . S
C144 C145 1.394 . S
C145 H135 0.929 . S
C145 C141 1.377 . S
C145 C144 1.394 . S
H146 C153 0.929 1_655 S
H147 C156 0.930 . S
H148 C158 0.929 . S
H149 C150 0.969 . S
C150 H149 0.969 . S
C150 O151 1.550 . S
C150 H152 0.973 . S
O151 C150 1.550 . S
O151 C157 1.412 . S
H152 C150 0.973 . S
C153 H146 0.929 1_455 S
C153 C154 1.400 . S
C153 C155 1.364 . S
C154 C153 1.400 . S
C154 C158 1.377 . S
C155 C153 1.364 . S
C155 C156 1.374 . S
C156 H147 0.930 . S
C156 C155 1.374 . S
C156 C157 1.383 . S
C157 O151 1.412 . S
C157 C156 1.383 . S
C157 C158 1.394 . S
C158 H148 0.929 . S
C158 C154 1.377 . S
C158 C157 1.394 . S
H159 C166 0.929 . S
H160 C169 0.930 . S
H161 C171 0.929 . S
H162 C163 0.969 . S
C163 H162 0.969 . S
C163 O164 1.550 . S
C163 H165 0.973 . S
O164 C163 1.550 . S
O164 C170 1.412 . S
H165 C163 0.973 . S
C166 H159 0.929 . S
C166 C167 1.400 . S
C166 C168 1.364 . S
C167 C166 1.400 . S
C167 C171 1.377 . S
C168 C166 1.364 . S
C168 C169 1.374 . S
C169 H160 0.930 . S
C169 C168 1.374 . S
C169 C170 1.383 . S
C170 O164 1.412 . S
C170 C169 1.383 . S
C170 C171 1.394 . S
C171 H161 0.929 . S
C171 C167 1.377 . S
C171 C170 1.394 . S
H172 C179 0.929 . S
H173 C182 0.930 . S
H174 C184 0.932 . S
H175 C176 0.969 . S
C176 H175 0.969 . S
C176 O177 1.550 . S
C176 H178 0.973 . S
O177 C176 1.550 . S
O177 C183 1.412 . S
H178 C176 0.973 . S
C179 H172 0.929 . S
C179 C180 1.400 . S
C179 C181 1.364 1_565 S
C180 C179 1.400 . S
C180 C184 1.377 1_565 S
C181 C179 1.364 1_545 S
C181 C182 1.374 . S
C182 H173 0.930 . S
C182 C181 1.374 . S
C182 C183 1.383 . S
C183 O177 1.412 . S
C183 C182 1.383 . S
C183 C184 1.394 . S
C184 H174 0.932 . S
C184 C180 1.377 1_545 S
C184 C183 1.394 . S
H185 C192 0.929 . S
H186 C195 0.930 . S
H187 C197 0.929 . S
H188 C189 0.969 . S
C189 H188 0.969 . S
C189 O190 1.550 . S
C189 H191 0.973 . S
O190 C189 1.550 . S
O190 C196 1.412 . S
H191 C189 0.973 . S
C192 H185 0.929 . S
C192 C193 1.400 . S
C192 C194 1.364 . S
C193 C192 1.400 . S
C193 C197 1.377 . S
C194 C192 1.364 . S
C194 C195 1.374 . S
C195 H186 0.930 . S
C195 C194 1.374 . S
C195 C196 1.383 . S
C196 O190 1.412 . S
C196 C195 1.383 . S
C196 C197 1.394 . S
C197 H187 0.929 . S
C197 C193 1.377 . S
C197 C196 1.394 . S
H198 C216 0.951 . S
H199 C218 0.951 . S
H200 C220 0.950 . S
H201 C221 0.950 . S
H202 C223 0.950 . S
H203 C226 0.950 . S
H204 C227 0.950 . S
H205 C229 0.950 . S
H206 C230 0.950 . S
H207 C231 0.951 . S
H208 C233 0.951 . S
H209 C235 0.950 . S
H210 C236 0.950 . S
H211 C238 0.950 . S
H212 C241 0.950 . S
H213 C242 0.950 . S
H214 C244 0.950 . S
H215 C245 0.950 . S
C216 H198 0.951 . S
C216 C217 1.366 . S
C216 C218 1.388 . S
C217 C216 1.366 . S
C217 C221 1.385 . S
C218 H199 0.951 . S
C218 C216 1.388 . S
C218 C219 1.366 . S
C219 C218 1.366 . S
C219 C220 1.414 . S
C219 C222 1.499 . S
C220 H200 0.950 . S
C220 C219 1.414 . S
C220 C221 1.374 . S
C221 H201 0.950 . S
C221 C217 1.385 . S
C221 C220 1.374 . S
C222 C219 1.499 . S
C222 C223 1.373 . S
C222 C224 1.389 . S
C223 H202 0.950 . S
C223 C222 1.373 . S
C223 C239 1.377 . S
C224 C222 1.389 . S
C224 C225 1.524 . S
C224 C238 1.377 . S
C225 C224 1.524 . S
C225 C226 1.397 . S
C225 C230 1.363 . S
C226 H203 0.950 . S
C226 C225 1.397 . S
C226 C227 1.334 . S
C227 H204 0.950 . S
C227 C226 1.334 . S
C227 C228 1.287 . S
C228 C227 1.287 . S
C228 C229 1.524 . S
C228 H247 0.913 . S
C229 H205 0.950 . S
C229 C228 1.524 . S
C229 C230 1.415 . S
C230 H206 0.950 . S
C230 C225 1.363 . S
C230 C229 1.415 . S
C231 H207 0.951 . S
C231 C232 1.366 . S
C231 C233 1.388 . S
C232 C231 1.366 . S
C232 C236 1.385 . S
C233 H208 0.951 . S
C233 C231 1.388 . S
C233 C234 1.366 . S
C234 C233 1.366 . S
C234 C235 1.414 . S
C234 C237 1.499 . S
C235 H209 0.950 . S
C235 C234 1.414 . S
C235 C236 1.374 . S
C236 H210 0.950 . S
C236 C232 1.385 . S
C236 C235 1.374 . S
C237 C234 1.499 . S
C237 C238 1.373 . S
C237 C239 1.389 . S
C238 H211 0.950 . S
C238 C224 1.377 . S
C238 C237 1.373 . S
C239 C223 1.377 . S
C239 C237 1.389 . S
C239 C240 1.524 . S
C240 C239 1.524 . S
C240 C241 1.397 . S
C240 C245 1.363 . S
C241 H212 0.950 . S
C241 C240 1.397 . S
C241 C242 1.334 . S
C242 H213 0.950 . S
C242 C241 1.334 . S
C242 C243 1.287 . S
C243 C242 1.287 . S
C243 C244 1.524 . S
C243 H246 0.999 . S
C244 H214 0.950 . S
C244 C243 1.524 . S
C244 C245 1.415 . S
C245 H215 0.950 . S
C245 C240 1.363 . S
C245 C244 1.415 . S
H246 C243 0.999 . S
H247 C228 0.913 . S
H248 C266 0.951 . S
H249 C268 0.951 . S
H250 C270 0.950 . S
H251 C271 0.950 . S
H252 C273 0.950 . S
H253 C276 0.950 . S
H254 C277 0.950 . S
H255 C279 0.950 . S
H256 C280 0.950 . S
H257 C281 0.951 . S
H258 C283 0.951 . S
H259 C285 0.950 . S
H260 C286 0.950 1_455 S
H261 C288 0.950 . S
H262 C291 0.950 . S
H263 C292 0.950 . S
H264 C294 0.950 . S
H265 C295 0.950 . S
C266 H248 0.951 . S
C266 C267 1.366 . S
C266 C268 1.388 . S
C267 C266 1.366 . S
C267 C271 1.385 . S
C268 H249 0.951 . S
C268 C266 1.388 . S
C268 C269 1.366 . S
C269 C268 1.366 . S
C269 C270 1.414 . S
C269 C272 1.499 . S
C270 H250 0.950 . S
C270 C269 1.414 . S
C270 C271 1.374 . S
C271 H251 0.950 . S
C271 C267 1.385 . S
C271 C270 1.374 . S
C272 C269 1.499 . S
C272 C273 1.373 . S
C272 C274 1.389 . S
C273 H252 0.950 . S
C273 C272 1.373 . S
C273 C289 1.377 . S
C274 C272 1.389 . S
C274 C275 1.524 . S
C274 C288 1.377 . S
C275 C274 1.524 . S
C275 C276 1.397 . S
C275 C280 1.363 . S
C276 H253 0.950 . S
C276 C275 1.397 . S
C276 C277 1.334 . S
C277 H254 0.950 . S
C277 C276 1.334 . S
C277 C278 1.287 . S
C278 C277 1.287 . S
C278 C279 1.524 . S
C278 H297 0.913 . S
C279 H255 0.950 . S
C279 C278 1.524 . S
C279 C280 1.415 . S
C280 H256 0.950 . S
C280 C275 1.363 . S
C280 C279 1.415 . S
C281 H257 0.951 . S
C281 C282 1.366 . S
C281 C283 1.388 . S
C282 C281 1.366 . S
C282 C286 1.385 . S
C283 H258 0.951 . S
C283 C281 1.388 . S
C283 C284 1.366 . S
C284 C283 1.366 . S
C284 C285 1.414 . S
C284 C287 1.499 . S
C285 H259 0.950 . S
C285 C284 1.414 . S
C285 C286 1.374 . S
C286 H260 0.950 1_655 S
C286 C282 1.385 . S
C286 C285 1.374 . S
C287 C284 1.499 . S
C287 C288 1.373 . S
C287 C289 1.389 . S
C288 H261 0.950 . S
C288 C274 1.377 . S
C288 C287 1.373 . S
C289 C273 1.377 . S
C289 C287 1.389 . S
C289 C290 1.524 . S
C290 C289 1.524 . S
C290 C291 1.397 . S
C290 C295 1.363 . S
C291 H262 0.950 . S
C291 C290 1.397 . S
C291 C292 1.334 . S
C292 H263 0.950 . S
C292 C291 1.334 . S
C292 C293 1.287 . S
C293 C292 1.287 . S
C293 C294 1.524 . S
C293 H296 0.999 . S
C294 H264 0.950 . S
C294 C293 1.524 . S
C294 C295 1.415 . S
C295 H265 0.950 . S
C295 C290 1.363 . S
C295 C294 1.415 . S
H296 C293 0.999 . S
H297 C278 0.913 . S
H298 C316 0.951 . S
H299 C318 0.951 . S
H300 C320 0.950 . S
H301 C321 0.950 . S
H302 C323 0.950 . S
H303 C326 0.950 . S
H304 C327 0.950 . S
H305 C329 0.950 . S
H306 C330 0.950 . S
H307 C331 0.951 . S
H308 C333 0.951 . S
H309 C335 0.950 . S
H310 C336 0.950 . S
H311 C338 0.950 . S
H312 C341 0.950 . S
H313 C342 0.950 . S
H314 C344 0.950 . S
H315 C345 0.950 . S
C316 H298 0.951 . S
C316 C317 1.366 . S
C316 C318 1.388 . S
C317 C316 1.366 . S
C317 C321 1.385 . S
C318 H299 0.951 . S
C318 C316 1.388 . S
C318 C319 1.366 . S
C319 C318 1.366 . S
C319 C320 1.414 . S
C319 C322 1.499 . S
C320 H300 0.950 . S
C320 C319 1.414 . S
C320 C321 1.374 . S
C321 H301 0.950 . S
C321 C317 1.385 . S
C321 C320 1.374 . S
C322 C319 1.499 . S
C322 C323 1.373 . S
C322 C324 1.389 . S
C323 H302 0.950 . S
C323 C322 1.373 . S
C323 C339 1.377 . S
C324 C322 1.389 . S
C324 C325 1.524 . S
C324 C338 1.377 . S
C325 C324 1.524 . S
C325 C326 1.397 . S
C325 C330 1.363 . S
C326 H303 0.950 . S
C326 C325 1.397 . S
C326 C327 1.334 . S
C327 H304 0.950 . S
C327 C326 1.334 . S
C327 C328 1.287 . S
C328 C327 1.287 . S
C328 C329 1.524 . S
C328 H347 0.913 . S
C329 H305 0.950 . S
C329 C328 1.524 . S
C329 C330 1.415 . S
C330 H306 0.950 . S
C330 C325 1.363 . S
C330 C329 1.415 . S
C331 H307 0.951 . S
C331 C332 1.366 . S
C331 C333 1.388 . S
C332 C331 1.366 . S
C332 C336 1.385 . S
C333 H308 0.951 . S
C333 C331 1.388 . S
C333 C334 1.366 . S
C334 C333 1.366 . S
C334 C335 1.414 . S
C334 C337 1.499 . S
C335 H309 0.950 . S
C335 C334 1.414 . S
C335 C336 1.374 . S
C336 H310 0.950 . S
C336 C332 1.385 . S
C336 C335 1.374 . S
C337 C334 1.499 . S
C337 C338 1.373 . S
C337 C339 1.389 . S
C338 H311 0.950 . S
C338 C324 1.377 . S
C338 C337 1.373 . S
C339 C323 1.377 . S
C339 C337 1.389 . S
C339 C340 1.524 . S
C340 C339 1.524 . S
C340 C341 1.397 . S
C340 C345 1.363 . S
C341 H312 0.950 . S
C341 C340 1.397 . S
C341 C342 1.334 . S
C342 H313 0.950 . S
C342 C341 1.334 . S
C342 C343 1.287 . S
C343 C342 1.287 . S
C343 C344 1.524 . S
C343 H346 0.999 . S
C344 H314 0.950 . S
C344 C343 1.524 . S
C344 C345 1.415 . S
C345 H315 0.950 . S
C345 C340 1.363 . S
C345 C344 1.415 . S
H346 C343 0.999 . S
H347 C328 0.913 . S
H348 C366 0.951 . S
H349 C368 0.951 . S
H350 C370 0.950 . S
H351 C371 0.950 . S
H352 C373 0.950 . S
H353 C376 0.950 . S
H354 C377 0.950 . S
H355 C379 0.950 . S
H356 C380 0.950 . S
H357 C381 0.951 . S
H358 C383 0.951 . S
H359 C385 0.950 . S
H360 C386 0.950 . S
H361 C388 0.950 . S
H362 C391 0.950 . S
H363 C392 0.950 . S
H364 C394 0.950 . S
H365 C395 0.950 . S
C366 H348 0.951 . S
C366 C367 1.366 . S
C366 C368 1.388 . S
C367 C366 1.366 . S
C367 C371 1.385 . S
C368 H349 0.951 . S
C368 C366 1.388 . S
C368 C369 1.366 . S
C369 C368 1.366 . S
C369 C370 1.414 . S
C369 C372 1.499 . S
C370 H350 0.950 . S
C370 C369 1.414 . S
C370 C371 1.374 . S
C371 H351 0.950 . S
C371 C367 1.385 . S
C371 C370 1.374 . S
C372 C369 1.499 . S
C372 C373 1.373 . S
C372 C374 1.389 . S
C373 H352 0.950 . S
C373 C372 1.373 . S
C373 C389 1.377 . S
C374 C372 1.389 . S
C374 C375 1.524 . S
C374 C388 1.377 . S
C375 C374 1.524 . S
C375 C376 1.397 . S
C375 C380 1.363 . S
C376 H353 0.950 . S
C376 C375 1.397 . S
C376 C377 1.334 . S
C377 H354 0.950 . S
C377 C376 1.334 . S
C377 C378 1.287 . S
C378 C377 1.287 . S
C378 C379 1.524 . S
C378 H397 0.913 . S
C379 H355 0.950 . S
C379 C378 1.524 . S
C379 C380 1.415 . S
C380 H356 0.950 . S
C380 C375 1.363 . S
C380 C379 1.415 . S
C381 H357 0.951 . S
C381 C382 1.366 . S
C381 C383 1.388 . S
C382 C381 1.366 . S
C382 C386 1.385 . S
C383 H358 0.951 . S
C383 C381 1.388 . S
C383 C384 1.366 . S
C384 C383 1.366 . S
C384 C385 1.414 . S
C384 C387 1.499 . S
C385 H359 0.950 . S
C385 C384 1.414 . S
C385 C386 1.374 . S
C386 H360 0.950 . S
C386 C382 1.385 . S
C386 C385 1.374 . S
C387 C384 1.499 . S
C387 C388 1.373 . S
C387 C389 1.389 . S
C388 H361 0.950 . S
C388 C374 1.377 . S
C388 C387 1.373 . S
C389 C373 1.377 . S
C389 C387 1.389 . S
C389 C390 1.524 . S
C390 C389 1.524 . S
C390 C391 1.397 . S
C390 C395 1.363 . S
C391 H362 0.950 . S
C391 C390 1.397 . S
C391 C392 1.334 . S
C392 H363 0.950 . S
C392 C391 1.334 . S
C392 C393 1.287 . S
C393 C392 1.287 . S
C393 C394 1.524 . S
C393 H396 0.999 . S
C394 H364 0.950 . S
C394 C393 1.524 . S
C394 C395 1.415 . S
C395 H365 0.950 . S
C395 C390 1.363 . S
C395 C394 1.415 . S
H396 C393 0.999 . S
H397 C378 0.913 . S
H398 C416 0.951 . S
H399 C418 0.951 . S
H400 C420 0.950 . S
H401 C421 0.950 . S
H402 C423 0.950 . S
H403 C426 0.950 . S
H404 C427 0.950 . S
H405 C429 0.950 . S
H406 C430 0.950 . S
H407 C431 0.951 . S
H408 C433 0.951 . S
H409 C435 0.950 . S
H410 C436 0.950 . S
H411 C438 0.950 . S
H412 C441 0.950 . S
H413 C442 0.950 . S
H414 C444 0.950 . S
H415 C445 0.950 . S
C416 H398 0.951 . S
C416 C417 1.366 . S
C416 C418 1.388 . S
C417 C416 1.366 . S
C417 C421 1.385 . S
C418 H399 0.951 . S
C418 C416 1.388 . S
C418 C419 1.366 . S
C419 C418 1.366 . S
C419 C420 1.414 . S
C419 C422 1.499 . S
C420 H400 0.950 . S
C420 C419 1.414 . S
C420 C421 1.374 . S
C421 H401 0.950 . S
C421 C417 1.385 . S
C421 C420 1.374 . S
C422 C419 1.499 . S
C422 C423 1.373 . S
C422 C424 1.389 . S
C423 H402 0.950 . S
C423 C422 1.373 . S
C423 C439 1.377 . S
C424 C422 1.389 . S
C424 C425 1.524 . S
C424 C438 1.377 . S
C425 C424 1.524 . S
C425 C426 1.397 . S
C425 C430 1.363 . S
C426 H403 0.950 . S
C426 C425 1.397 . S
C426 C427 1.334 . S
C427 H404 0.950 . S
C427 C426 1.334 . S
C427 C428 1.287 . S
C428 C427 1.287 . S
C428 C429 1.524 . S
C428 H447 0.913 . S
C429 H405 0.950 . S
C429 C428 1.524 . S
C429 C430 1.415 . S
C430 H406 0.950 . S
C430 C425 1.363 . S
C430 C429 1.415 . S
C431 H407 0.951 . S
C431 C432 1.366 . S
C431 C433 1.388 . S
C432 C431 1.366 . S
C432 C436 1.385 . S
C433 H408 0.951 . S
C433 C431 1.388 . S
C433 C434 1.366 . S
C434 C433 1.366 . S
C434 C435 1.414 . S
C434 C437 1.499 . S
C435 H409 0.950 . S
C435 C434 1.414 . S
C435 C436 1.374 . S
C436 H410 0.950 . S
C436 C432 1.385 . S
C436 C435 1.374 . S
C437 C434 1.499 . S
C437 C438 1.373 . S
C437 C439 1.389 . S
C438 H411 0.950 . S
C438 C424 1.377 . S
C438 C437 1.373 . S
C439 C423 1.377 . S
C439 C437 1.389 . S
C439 C440 1.524 . S
C440 C439 1.524 . S
C440 C441 1.397 . S
C440 C445 1.363 . S
C441 H412 0.950 . S
C441 C440 1.397 . S
C441 C442 1.334 . S
C442 H413 0.950 . S
C442 C441 1.334 . S
C442 C443 1.287 . S
C443 C442 1.287 . S
C443 C444 1.524 . S
C443 H446 0.999 . S
C444 H414 0.950 . S
C444 C443 1.524 . S
C444 C445 1.415 . S
C445 H415 0.950 . S
C445 C440 1.363 . S
C445 C444 1.415 . S
H446 C443 0.999 . S
H447 C428 0.913 . S
H448 C466 0.951 . S
H449 C468 0.951 . S
H450 C470 0.950 . S
H451 C471 0.950 . S
H452 C473 0.950 . S
H453 C476 0.950 . S
H454 C477 0.950 . S
H455 C479 0.950 . S
H456 C480 0.950 . S
H457 C481 0.951 . S
H458 C483 0.951 . S
H459 C485 0.950 . S
H460 C486 0.950 . S
H461 C488 0.950 . S
H462 C491 0.950 . S
H463 C492 0.950 . S
H464 C494 0.950 . S
H465 C495 0.950 . S
C466 H448 0.951 . S
C466 C467 1.366 . S
C466 C468 1.388 . S
C467 C466 1.366 . S
C467 C471 1.385 . S
C468 H449 0.951 . S
C468 C466 1.388 . S
C468 C469 1.366 . S
C469 C468 1.366 . S
C469 C470 1.414 . S
C469 C472 1.499 . S
C470 H450 0.950 . S
C470 C469 1.414 . S
C470 C471 1.374 . S
C471 H451 0.950 . S
C471 C467 1.385 . S
C471 C470 1.374 . S
C472 C469 1.499 . S
C472 C473 1.373 . S
C472 C474 1.389 . S
C473 H452 0.950 . S
C473 C472 1.373 . S
C473 C489 1.377 . S
C474 C472 1.389 . S
C474 C475 1.524 . S
C474 C488 1.377 . S
C475 C474 1.524 . S
C475 C476 1.397 . S
C475 C480 1.363 . S
C476 H453 0.950 . S
C476 C475 1.397 . S
C476 C477 1.334 . S
C477 H454 0.950 . S
C477 C476 1.334 . S
C477 C478 1.287 . S
C478 C477 1.287 . S
C478 C479 1.524 . S
C478 H497 0.913 . S
C479 H455 0.950 . S
C479 C478 1.524 . S
C479 C480 1.415 . S
C480 H456 0.950 . S
C480 C475 1.363 . S
C480 C479 1.415 . S
C481 H457 0.951 . S
C481 C482 1.366 . S
C481 C483 1.388 . S
C482 C481 1.366 . S
C482 C486 1.385 . S
C483 H458 0.951 . S
C483 C481 1.388 . S
C483 C484 1.366 . S
C484 C483 1.366 . S
C484 C485 1.414 . S
C484 C487 1.499 . S
C485 H459 0.950 . S
C485 C484 1.414 . S
C485 C486 1.374 . S
C486 H460 0.950 . S
C486 C482 1.385 . S
C486 C485 1.374 . S
C487 C484 1.499 . S
C487 C488 1.373 . S
C487 C489 1.389 . S
C488 H461 0.950 . S
C488 C474 1.377 . S
C488 C487 1.373 . S
C489 C473 1.377 . S
C489 C487 1.389 . S
C489 C490 1.524 . S
C490 C489 1.524 . S
C490 C491 1.397 . S
C490 C495 1.363 . S
C491 H462 0.950 . S
C491 C490 1.397 . S
C491 C492 1.334 . S
C492 H463 0.950 . S
C492 C491 1.334 . S
C492 C493 1.287 . S
C493 C492 1.287 . S
C493 C494 1.524 . S
C493 H496 0.999 . S
C494 H464 0.950 . S
C494 C493 1.524 . S
C494 C495 1.415 . S
C495 H465 0.950 . S
C495 C490 1.363 . S
C495 C494 1.415 . S
H496 C493 0.999 . S
H497 C478 0.913 . S
H498 C516 0.951 . S
H499 C518 0.951 . S
H500 C520 0.950 . S
H501 C521 0.950 . S
H502 C523 0.950 . S
H503 C526 0.950 . S
H504 C527 0.950 . S
H505 C529 0.950 . S
H506 C530 0.950 . S
H507 C531 0.951 . S
H508 C533 0.951 . S
H509 C535 0.950 . S
H510 C536 0.950 . S
H511 C538 0.950 . S
H512 C541 0.950 . S
H513 C542 0.950 . S
H514 C544 0.950 . S
H515 C545 0.950 . S
C516 H498 0.951 . S
C516 C517 1.366 . S
C516 C518 1.388 . S
C517 C516 1.366 . S
C517 C521 1.385 . S
C518 H499 0.951 . S
C518 C516 1.388 . S
C518 C519 1.366 . S
C519 C518 1.366 . S
C519 C520 1.414 . S
C519 C522 1.499 . S
C520 H500 0.950 . S
C520 C519 1.414 . S
C520 C521 1.374 . S
C521 H501 0.950 . S
C521 C517 1.385 . S
C521 C520 1.374 . S
C522 C519 1.499 . S
C522 C523 1.373 . S
C522 C524 1.389 . S
C523 H502 0.950 . S
C523 C522 1.373 . S
C523 C539 1.377 . S
C524 C522 1.389 . S
C524 C525 1.524 . S
C524 C538 1.377 . S
C525 C524 1.524 . S
C525 C526 1.397 . S
C525 C530 1.363 . S
C526 H503 0.950 . S
C526 C525 1.397 . S
C526 C527 1.334 . S
C527 H504 0.950 . S
C527 C526 1.334 . S
C527 C528 1.287 . S
C528 C527 1.287 . S
C528 C529 1.524 . S
C528 H547 0.913 . S
C529 H505 0.950 . S
C529 C528 1.524 . S
C529 C530 1.415 . S
C530 H506 0.950 . S
C530 C525 1.363 . S
C530 C529 1.415 . S
C531 H507 0.951 . S
C531 C532 1.366 . S
C531 C533 1.388 . S
C532 C531 1.366 . S
C532 C536 1.385 . S
C533 H508 0.951 . S
C533 C531 1.388 . S
C533 C534 1.366 . S
C534 C533 1.366 . S
C534 C535 1.414 . S
C534 C537 1.499 . S
C535 H509 0.950 . S
C535 C534 1.414 . S
C535 C536 1.374 . S
C536 H510 0.950 . S
C536 C532 1.385 . S
C536 C535 1.374 . S
C537 C534 1.499 . S
C537 C538 1.373 . S
C537 C539 1.389 . S
C538 H511 0.950 . S
C538 C524 1.377 . S
C538 C537 1.373 . S
C539 C523 1.377 . S
C539 C537 1.389 . S
C539 C540 1.524 . S
C540 C539 1.524 . S
C540 C541 1.397 . S
C540 C545 1.363 . S
C541 H512 0.950 . S
C541 C540 1.397 . S
C541 C542 1.334 . S
C542 H513 0.950 . S
C542 C541 1.334 . S
C542 C543 1.287 . S
C543 C542 1.287 . S
C543 C544 1.524 . S
C543 H546 0.999 . S
C544 H514 0.950 . S
C544 C543 1.524 . S
C544 C545 1.415 . S
C545 H515 0.950 . S
C545 C540 1.363 . S
C545 C544 1.415 . S
H546 C543 0.999 . S
H547 C528 0.913 . S
H548 C566 0.951 . S
H549 C568 0.951 . S
H550 C570 0.950 . S
H551 C571 0.950 . S
H552 C573 0.950 . S
H553 C576 0.950 . S
H554 C577 0.950 . S
H555 C579 0.950 . S
H556 C580 0.950 . S
H557 C581 0.951 . S
H558 C583 0.951 . S
H559 C585 0.950 . S
H560 C586 0.950 . S
H561 C588 0.950 . S
H562 C591 0.950 . S
H563 C592 0.950 . S
H564 C594 0.950 1_455 S
H565 C595 0.950 . S
C566 H548 0.951 . S
C566 C567 1.366 . S
C566 C568 1.388 . S
C567 C566 1.366 . S
C567 C571 1.385 . S
C568 H549 0.951 . S
C568 C566 1.388 . S
C568 C569 1.366 . S
C569 C568 1.366 . S
C569 C570 1.414 . S
C569 C572 1.499 . S
C570 H550 0.950 . S
C570 C569 1.414 . S
C570 C571 1.374 . S
C571 H551 0.950 . S
C571 C567 1.385 . S
C571 C570 1.374 . S
C572 C569 1.499 . S
C572 C573 1.373 . S
C572 C574 1.389 . S
C573 H552 0.950 . S
C573 C572 1.373 . S
C573 C589 1.377 . S
C574 C572 1.389 . S
C574 C575 1.524 . S
C574 C588 1.377 . S
C575 C574 1.524 . S
C575 C576 1.397 . S
C575 C580 1.363 . S
C576 H553 0.950 . S
C576 C575 1.397 . S
C576 C577 1.334 . S
C577 H554 0.950 . S
C577 C576 1.334 . S
C577 C578 1.287 . S
C578 C577 1.287 . S
C578 C579 1.524 . S
C578 H597 0.913 . S
C579 H555 0.950 . S
C579 C578 1.524 . S
C579 C580 1.415 . S
C580 H556 0.950 . S
C580 C575 1.363 . S
C580 C579 1.415 . S
C581 H557 0.951 . S
C581 C582 1.366 . S
C581 C583 1.388 1_455 S
C582 C581 1.366 . S
C582 C586 1.385 1_455 S
C583 H558 0.951 . S
C583 C581 1.388 1_655 S
C583 C584 1.366 . S
C584 C583 1.366 . S
C584 C585 1.414 . S
C584 C587 1.499 . S
C585 H559 0.950 . S
C585 C584 1.414 . S
C585 C586 1.374 . S
C586 H560 0.950 . S
C586 C582 1.385 1_655 S
C586 C585 1.374 . S
C587 C584 1.499 . S
C587 C588 1.373 . S
C587 C589 1.389 . S
C588 H561 0.950 . S
C588 C574 1.377 . S
C588 C587 1.373 . S
C589 C573 1.377 . S
C589 C587 1.389 . S
C589 C590 1.524 . S
C590 C589 1.524 . S
C590 C591 1.397 . S
C590 C595 1.363 . S
C591 H562 0.950 . S
C591 C590 1.397 . S
C591 C592 1.334 . S
C592 H563 0.950 . S
C592 C591 1.334 . S
C592 C593 1.287 1_655 S
C593 C592 1.287 1_455 S
C593 C594 1.524 1_455 S
C593 H596 0.999 . S
C594 H564 0.950 1_655 S
C594 C593 1.524 1_655 S
C594 C595 1.415 . S
C595 H565 0.950 . S
C595 C590 1.363 . S
C595 C594 1.415 . S
H596 C593 0.999 . S
H597 C578 0.913 . S
H598 C616 0.951 . S
H599 C618 0.951 . S
H600 C620 0.950 . S
H601 C621 0.950 . S
H602 C623 0.950 . S
H603 C626 0.950 . S
H604 C627 0.950 . S
H605 C629 0.950 . S
H606 C630 0.950 . S
H607 C631 0.951 . S
H608 C633 0.951 . S
H609 C635 0.950 . S
H610 C636 0.950 . S
H611 C638 0.950 . S
H612 C641 0.950 . S
H613 C642 0.950 . S
H614 C644 0.950 . S
H615 C645 0.950 . S
C616 H598 0.951 . S
C616 C617 1.366 . S
C616 C618 1.388 . S
C617 C616 1.366 . S
C617 C621 1.385 . S
C618 H599 0.951 . S
C618 C616 1.388 . S
C618 C619 1.366 . S
C619 C618 1.366 . S
C619 C620 1.414 . S
C619 C622 1.499 . S
C620 H600 0.950 . S
C620 C619 1.414 . S
C620 C621 1.374 . S
C621 H601 0.950 . S
C621 C617 1.385 . S
C621 C620 1.374 . S
C622 C619 1.499 . S
C622 C623 1.373 . S
C622 C624 1.389 . S
C623 H602 0.950 . S
C623 C622 1.373 . S
C623 C639 1.377 . S
C624 C622 1.389 . S
C624 C625 1.524 . S
C624 C638 1.377 . S
C625 C624 1.524 . S
C625 C626 1.397 . S
C625 C630 1.363 . S
C626 H603 0.950 . S
C626 C625 1.397 . S
C626 C627 1.334 . S
C627 H604 0.950 . S
C627 C626 1.334 . S
C627 C628 1.287 . S
C628 C627 1.287 . S
C628 C629 1.524 . S
C628 H647 0.913 . S
C629 H605 0.950 . S
C629 C628 1.524 . S
C629 C630 1.415 . S
C630 H606 0.950 . S
C630 C625 1.363 . S
C630 C629 1.415 . S
C631 H607 0.951 . S
C631 C632 1.366 . S
C631 C633 1.388 . S
C632 C631 1.366 . S
C632 C636 1.385 . S
C633 H608 0.951 . S
C633 C631 1.388 . S
C633 C634 1.366 . S
C634 C633 1.366 . S
C634 C635 1.414 . S
C634 C637 1.499 . S
C635 H609 0.950 . S
C635 C634 1.414 . S
C635 C636 1.374 . S
C636 H610 0.950 . S
C636 C632 1.385 . S
C636 C635 1.374 . S
C637 C634 1.499 . S
C637 C638 1.373 . S
C637 C639 1.389 . S
C638 H611 0.950 . S
C638 C624 1.377 . S
C638 C637 1.373 . S
C639 C623 1.377 . S
C639 C637 1.389 . S
C639 C640 1.524 . S
C640 C639 1.524 . S
C640 C641 1.397 . S
C640 C645 1.363 . S
C641 H612 0.950 . S
C641 C640 1.397 . S
C641 C642 1.334 . S
C642 H613 0.950 . S
C642 C641 1.334 . S
C642 C643 1.287 . S
C643 C642 1.287 . S
C643 C644 1.524 . S
C643 H646 0.999 . S
C644 H614 0.950 . S
C644 C643 1.524 . S
C644 C645 1.415 . S
C645 H615 0.950 . S
C645 C640 1.363 . S
C645 C644 1.415 . S
H646 C643 0.999 . S
H647 C628 0.913 . S
H648 C666 0.951 . S
H649 C668 0.951 . S
H650 C670 0.950 . S
H651 C671 0.950 . S
H652 C673 0.950 . S
H653 C676 0.950 . S
H654 C677 0.950 . S
H655 C679 0.950 . S
H656 C680 0.950 . S
H657 C681 0.951 . S
H658 C683 0.951 . S
H659 C685 0.950 . S
H660 C686 0.950 . S
H661 C688 0.950 . S
H662 C691 0.950 . S
H663 C692 0.950 . S
H664 C694 0.950 . S
H665 C695 0.950 . S
C666 H648 0.951 . S
C666 C667 1.366 . S
C666 C668 1.388 . S
C667 C666 1.366 . S
C667 C671 1.385 . S
C668 H649 0.951 . S
C668 C666 1.388 . S
C668 C669 1.366 . S
C669 C668 1.366 . S
C669 C670 1.414 . S
C669 C672 1.499 . S
C670 H650 0.950 . S
C670 C669 1.414 . S
C670 C671 1.374 . S
C671 H651 0.950 . S
C671 C667 1.385 . S
C671 C670 1.374 . S
C672 C669 1.499 . S
C672 C673 1.373 . S
C672 C674 1.389 . S
C673 H652 0.950 . S
C673 C672 1.373 . S
C673 C689 1.377 . S
C674 C672 1.389 . S
C674 C675 1.524 . S
C674 C688 1.377 . S
C675 C674 1.524 . S
C675 C676 1.397 . S
C675 C680 1.363 . S
C676 H653 0.950 . S
C676 C675 1.397 . S
C676 C677 1.334 . S
C677 H654 0.950 . S
C677 C676 1.334 . S
C677 C678 1.287 . S
C678 C677 1.287 . S
C678 C679 1.524 . S
C678 H697 0.913 . S
C679 H655 0.950 . S
C679 C678 1.524 . S
C679 C680 1.415 . S
C680 H656 0.950 . S
C680 C675 1.363 . S
C680 C679 1.415 . S
C681 H657 0.951 . S
C681 C682 1.366 . S
C681 C683 1.388 . S
C682 C681 1.366 . S
C682 C686 1.385 . S
C683 H658 0.951 . S
C683 C681 1.388 . S
C683 C684 1.366 . S
C684 C683 1.366 . S
C684 C685 1.414 . S
C684 C687 1.499 . S
C685 H659 0.950 . S
C685 C684 1.414 . S
C685 C686 1.374 . S
C686 H660 0.950 . S
C686 C682 1.385 . S
C686 C685 1.374 . S
C687 C684 1.499 . S
C687 C688 1.373 . S
C687 C689 1.389 . S
C688 H661 0.950 . S
C688 C674 1.377 . S
C688 C687 1.373 . S
C689 C673 1.377 . S
C689 C687 1.389 . S
C689 C690 1.524 . S
C690 C689 1.524 . S
C690 C691 1.397 . S
C690 C695 1.363 . S
C691 H662 0.950 . S
C691 C690 1.397 . S
C691 C692 1.334 . S
C692 H663 0.950 . S
C692 C691 1.334 . S
C692 C693 1.287 . S
C693 C692 1.287 . S
C693 C694 1.524 . S
C693 H696 0.999 . S
C694 H664 0.950 . S
C694 C693 1.524 . S
C694 C695 1.415 . S
C695 H665 0.950 . S
C695 C690 1.363 . S
C695 C694 1.415 . S
H696 C693 0.999 . S
H697 C678 0.913 . S
H698 C716 0.951 . S
H699 C718 0.951 . S
H700 C720 0.950 . S
H701 C721 0.950 . S
H702 C723 0.950 . S
H703 C726 0.950 . S
H704 C727 0.950 . S
H705 C729 0.950 . S
H706 C730 0.950 . S
H707 C731 0.951 . S
H708 C733 0.951 . S
H709 C735 0.950 . S
H710 C736 0.950 . S
H711 C738 0.950 . S
H712 C741 0.950 . S
H713 C742 0.950 . S
H714 C744 0.950 . S
H715 C745 0.950 . S
C716 H698 0.951 . S
C716 C717 1.366 . S
C716 C718 1.388 . S
C717 C716 1.366 . S
C717 C721 1.385 . S
C718 H699 0.951 . S
C718 C716 1.388 . S
C718 C719 1.366 . S
C719 C718 1.366 . S
C719 C720 1.414 . S
C719 C722 1.499 . S
C720 H700 0.950 . S
C720 C719 1.414 . S
C720 C721 1.374 . S
C721 H701 0.950 . S
C721 C717 1.385 . S
C721 C720 1.374 . S
C722 C719 1.499 . S
C722 C723 1.373 . S
C722 C724 1.389 . S
C723 H702 0.950 . S
C723 C722 1.373 . S
C723 C739 1.377 . S
C724 C722 1.389 . S
C724 C725 1.524 . S
C724 C738 1.377 . S
C725 C724 1.524 . S
C725 C726 1.397 . S
C725 C730 1.363 . S
C726 H703 0.950 . S
C726 C725 1.397 . S
C726 C727 1.334 . S
C727 H704 0.950 . S
C727 C726 1.334 . S
C727 C728 1.287 . S
C728 C727 1.287 . S
C728 C729 1.524 . S
C728 H747 0.913 . S
C729 H705 0.950 . S
C729 C728 1.524 . S
C729 C730 1.415 . S
C730 H706 0.950 . S
C730 C725 1.363 . S
C730 C729 1.415 . S
C731 H707 0.951 . S
C731 C732 1.366 . S
C731 C733 1.388 . S
C732 C731 1.366 . S
C732 C736 1.385 . S
C733 H708 0.951 . S
C733 C731 1.388 . S
C733 C734 1.366 . S
C734 C733 1.366 . S
C734 C735 1.414 . S
C734 C737 1.499 . S
C735 H709 0.950 . S
C735 C734 1.414 . S
C735 C736 1.374 . S
C736 H710 0.950 . S
C736 C732 1.385 . S
C736 C735 1.374 . S
C737 C734 1.499 . S
C737 C738 1.373 . S
C737 C739 1.389 . S
C738 H711 0.950 . S
C738 C724 1.377 . S
C738 C737 1.373 . S
C739 C723 1.377 . S
C739 C737 1.389 . S
C739 C740 1.524 . S
C740 C739 1.524 . S
C740 C741 1.397 . S
C740 C745 1.363 . S
C741 H712 0.950 . S
C741 C740 1.397 . S
C741 C742 1.334 . S
C742 H713 0.950 . S
C742 C741 1.334 . S
C742 C743 1.287 . S
C743 C742 1.287 . S
C743 C744 1.524 . S
C743 H746 0.999 . S
C744 H714 0.950 . S
C744 C743 1.524 . S
C744 C745 1.415 . S
C745 H715 0.950 . S
C745 C740 1.363 . S
C745 C744 1.415 . S
H746 C743 0.999 . S
H747 C728 0.913 . S
H748 C766 0.951 . S
H749 C768 0.951 . S
H750 C770 0.950 . S
H751 C771 0.950 . S
H752 C773 0.950 . S
H753 C776 0.950 . S
H754 C777 0.950 . S
H755 C779 0.950 . S
H756 C780 0.950 . S
H757 C781 0.951 . S
H758 C783 0.951 . S
H759 C785 0.950 . S
H760 C786 0.950 . S
H761 C788 0.950 . S
H762 C791 0.950 . S
H763 C792 0.950 . S
H764 C794 0.950 . S
H765 C795 0.950 . S
C766 H748 0.951 . S
C766 C767 1.366 . S
C766 C768 1.388 . S
C767 C766 1.366 . S
C767 C771 1.385 . S
C768 H749 0.951 . S
C768 C766 1.388 . S
C768 C769 1.366 . S
C769 C768 1.366 . S
C769 C770 1.414 . S
C769 C772 1.499 . S
C770 H750 0.950 . S
C770 C769 1.414 . S
C770 C771 1.374 . S
C771 H751 0.950 . S
C771 C767 1.385 . S
C771 C770 1.374 . S
C772 C769 1.499 . S
C772 C773 1.373 . S
C772 C774 1.389 . S
C773 H752 0.950 . S
C773 C772 1.373 . S
C773 C789 1.377 . S
C774 C772 1.389 . S
C774 C775 1.524 . S
C774 C788 1.377 . S
C775 C774 1.524 . S
C775 C776 1.397 . S
C775 C780 1.363 . S
C776 H753 0.950 . S
C776 C775 1.397 . S
C776 C777 1.334 . S
C777 H754 0.950 . S
C777 C776 1.334 . S
C777 C778 1.287 . S
C778 C777 1.287 . S
C778 C779 1.524 . S
C778 H797 0.913 . S
C779 H755 0.950 . S
C779 C778 1.524 . S
C779 C780 1.415 . S
C780 H756 0.950 . S
C780 C775 1.363 . S
C780 C779 1.415 . S
C781 H757 0.951 . S
C781 C782 1.366 . S
C781 C783 1.388 . S
C782 C781 1.366 . S
C782 C786 1.385 . S
C783 H758 0.951 . S
C783 C781 1.388 . S
C783 C784 1.366 . S
C784 C783 1.366 . S
C784 C785 1.414 . S
C784 C787 1.499 . S
C785 H759 0.950 . S
C785 C784 1.414 . S
C785 C786 1.374 . S
C786 H760 0.950 . S
C786 C782 1.385 . S
C786 C785 1.374 . S
C787 C784 1.499 . S
C787 C788 1.373 . S
C787 C789 1.389 . S
C788 H761 0.950 . S
C788 C774 1.377 . S
C788 C787 1.373 . S
C789 C773 1.377 . S
C789 C787 1.389 . S
C789 C790 1.524 . S
C790 C789 1.524 . S
C790 C791 1.397 . S
C790 C795 1.363 . S
C791 H762 0.950 . S
C791 C790 1.397 . S
C791 C792 1.334 . S
C792 H763 0.950 . S
C792 C791 1.334 . S
C792 C793 1.287 . S
C793 C792 1.287 . S
C793 C794 1.524 . S
C793 H796 0.999 . S
C794 H764 0.950 . S
C794 C793 1.524 . S
C794 C795 1.415 . S
C795 H765 0.950 . S
C795 C790 1.363 . S
C795 C794 1.415 . S
H796 C793 0.999 . S
H797 C778 0.913 . S
H798 C816 0.951 . S
H799 C818 0.951 . S
H800 C820 0.950 1_655 S
H801 C821 0.952 . S
H802 C823 0.950 . S
H803 C826 0.950 . S
H804 C827 0.950 . S
H805 C829 0.950 . S
H806 C830 0.950 . S
H807 C831 0.951 . S
H808 C833 0.951 . S
H809 C835 0.950 . S
H810 C836 0.950 . S
H811 C838 0.950 . S
H812 C841 0.950 . S
H813 C842 0.950 . S
H814 C844 0.950 . S
H815 C845 0.930 1_554 S
C816 H798 0.951 . S
C816 C817 1.366 . S
C816 C818 1.388 . S
C817 C816 1.366 . S
C817 C821 1.383 1_455 S
C818 H799 0.951 . S
C818 C816 1.388 . S
C818 C819 1.366 . S
C819 C818 1.366 . S
C819 C820 1.414 . S
C819 C822 1.499 . S
C820 H800 0.950 1_455 S
C820 C819 1.414 . S
C820 C821 1.373 1_455 S
C821 H801 0.952 . S
C821 C817 1.383 1_655 S
C821 C820 1.373 1_655 S
C822 C819 1.499 . S
C822 C823 1.373 1_455 S
C822 C824 1.389 . S
C823 H802 0.950 . S
C823 C822 1.373 1_655 S
C823 C839 1.377 . S
C824 C822 1.389 . S
C824 C825 1.524 . S
C824 C838 1.377 . S
C825 C824 1.524 . S
C825 C826 1.397 . S
C825 C830 1.363 . S
C826 H803 0.950 . S
C826 C825 1.397 . S
C826 C827 1.334 . S
C827 H804 0.950 . S
C827 C826 1.334 . S
C827 C828 1.287 . S
C828 C827 1.287 . S
C828 C829 1.524 . S
C828 H847 0.913 . S
C829 H805 0.950 . S
C829 C828 1.524 . S
C829 C830 1.415 . S
C830 H806 0.950 . S
C830 C825 1.363 . S
C830 C829 1.415 . S
C831 H807 0.951 . S
C831 C832 1.366 . S
C831 C833 1.388 . S
C832 C831 1.366 . S
C832 C836 1.385 . S
C833 H808 0.951 . S
C833 C831 1.388 . S
C833 C834 1.366 . S
C834 C833 1.366 . S
C834 C835 1.414 . S
C834 C837 1.499 . S
C835 H809 0.950 . S
C835 C834 1.414 . S
C835 C836 1.374 . S
C836 H810 0.950 . S
C836 C832 1.385 . S
C836 C835 1.374 . S
C837 C834 1.499 . S
C837 C838 1.373 1_556 S
C837 C839 1.389 1_456 S
C838 H811 0.950 . S
C838 C824 1.377 . S
C838 C837 1.373 1_554 S
C839 C823 1.377 . S
C839 C837 1.389 1_654 S
C839 C840 1.524 1_554 S
C840 C839 1.524 1_556 S
C840 C841 1.397 . S
C840 C845 1.363 . S
C841 H812 0.950 . S
C841 C840 1.397 . S
C841 C842 1.334 . S
C842 H813 0.950 . S
C842 C841 1.334 . S
C842 C843 1.287 . S
C843 C842 1.287 . S
C843 C844 1.524 . S
C843 H846 0.999 . S
C844 H814 0.950 . S
C844 C843 1.524 . S
C844 C845 1.415 . S
C845 H815 0.930 1_556 S
C845 C840 1.363 . S
C845 C844 1.415 . S
H846 C843 0.999 . S
H847 C828 0.913 . S
H848 C866 0.951 . S
H849 C868 0.951 . S
H850 C870 0.950 1_565 S
H851 C871 0.950 1_565 S
H852 C873 0.950 . S
H853 C876 0.950 . S
H854 C877 0.950 . S
H855 C879 0.950 . S
H856 C880 0.950 . S
H857 C881 0.951 1_565 S
H858 C883 0.951 1_565 S
H859 C885 0.950 . S
H860 C886 0.950 . S
H861 C888 0.950 . S
H862 C891 0.950 . S
H863 C892 0.950 . S
H864 C894 0.950 . S
H865 C895 0.950 . S
C866 H848 0.951 . S
C866 C867 1.366 . S
C866 C868 1.388 . S
C867 C866 1.366 . S
C867 C871 1.385 . S
C868 H849 0.951 . S
C868 C866 1.388 . S
C868 C869 1.366 . S
C869 C868 1.366 . S
C869 C870 1.414 . S
C869 C872 1.499 . S
C870 H850 0.950 1_545 S
C870 C869 1.414 . S
C870 C871 1.374 . S
C871 H851 0.950 1_545 S
C871 C867 1.385 . S
C871 C870 1.374 . S
C872 C869 1.499 . S
C872 C873 1.373 . S
C872 C874 1.389 . S
C873 H852 0.950 . S
C873 C872 1.373 . S
C873 C889 1.377 . S
C874 C872 1.389 . S
C874 C875 1.524 . S
C874 C888 1.377 . S
C875 C874 1.524 . S
C875 C876 1.397 . S
C875 C880 1.363 . S
C876 H853 0.950 . S
C876 C875 1.397 . S
C876 C877 1.334 . S
C877 H854 0.950 . S
C877 C876 1.334 . S
C877 C878 1.287 . S
C878 C877 1.287 . S
C878 C879 1.524 . S
C878 H897 0.913 . S
C879 H855 0.950 . S
C879 C878 1.524 . S
C879 C880 1.415 . S
C880 H856 0.950 . S
C880 C875 1.363 . S
C880 C879 1.415 . S
C881 H857 0.951 1_545 S
C881 C882 1.366 . S
C881 C883 1.388 . S
C882 C881 1.366 . S
C882 C886 1.385 . S
C883 H858 0.951 1_545 S
C883 C881 1.388 . S
C883 C884 1.366 . S
C884 C883 1.366 . S
C884 C885 1.414 . S
C884 C887 1.499 . S
C885 H859 0.950 . S
C885 C884 1.414 . S
C885 C886 1.374 . S
C886 H860 0.950 . S
C886 C882 1.385 . S
C886 C885 1.374 . S
C887 C884 1.499 . S
C887 C888 1.373 . S
C887 C889 1.389 . S
C888 H861 0.950 . S
C888 C874 1.377 . S
C888 C887 1.373 . S
C889 C873 1.377 . S
C889 C887 1.389 . S
C889 C890 1.524 . S
C890 C889 1.524 . S
C890 C891 1.397 . S
C890 C895 1.363 1_545 S
C891 H862 0.950 . S
C891 C890 1.397 . S
C891 C892 1.334 . S
C892 H863 0.950 . S
C892 C891 1.334 . S
C892 C893 1.287 . S
C893 C892 1.287 . S
C893 C894 1.524 1_545 S
C893 H896 0.999 . S
C894 H864 0.950 . S
C894 C893 1.524 1_565 S
C894 C895 1.415 . S
C895 H865 0.950 . S
C895 C890 1.363 1_565 S
C895 C894 1.415 . S
H896 C893 0.999 . S
H897 C878 0.913 . S
H898 C916 0.951 . S
H899 C918 0.951 . S
H900 C920 0.950 . S
H901 C921 0.950 . S
H902 C923 0.950 . S
H903 C926 0.950 . S
H904 C927 0.950 . S
H905 C929 0.950 . S
H906 C930 0.950 . S
H907 C931 0.951 . S
H908 C933 0.951 . S
H909 C935 0.950 . S
H910 C936 0.950 . S
H911 C938 0.950 . S
H912 C941 0.950 . S
H913 C942 0.950 . S
H914 C944 0.950 . S
H915 C945 0.950 . S
C916 H898 0.951 . S
C916 C917 1.366 . S
C916 C918 1.388 . S
C917 C916 1.366 . S
C917 C921 1.385 . S
C918 H899 0.951 . S
C918 C916 1.388 . S
C918 C919 1.366 . S
C919 C918 1.366 . S
C919 C920 1.414 . S
C919 C922 1.499 . S
C920 H900 0.950 . S
C920 C919 1.414 . S
C920 C921 1.374 . S
C921 H901 0.950 . S
C921 C917 1.385 . S
C921 C920 1.374 . S
C922 C919 1.499 . S
C922 C923 1.373 . S
C922 C924 1.389 . S
C923 H902 0.950 . S
C923 C922 1.373 . S
C923 C939 1.377 . S
C924 C922 1.389 . S
C924 C925 1.524 . S
C924 C938 1.377 . S
C925 C924 1.524 . S
C925 C926 1.397 . S
C925 C930 1.363 . S
C926 H903 0.950 . S
C926 C925 1.397 . S
C926 C927 1.334 . S
C927 H904 0.950 . S
C927 C926 1.334 . S
C927 C928 1.287 . S
C928 C927 1.287 . S
C928 C929 1.524 . S
C928 H947 0.913 . S
C929 H905 0.950 . S
C929 C928 1.524 . S
C929 C930 1.415 . S
C930 H906 0.950 . S
C930 C925 1.363 . S
C930 C929 1.415 . S
C931 H907 0.951 . S
C931 C932 1.366 . S
C931 C933 1.388 . S
C932 C931 1.366 . S
C932 C936 1.385 . S
C933 H908 0.951 . S
C933 C931 1.388 . S
C933 C934 1.366 . S
C934 C933 1.366 . S
C934 C935 1.414 . S
C934 C937 1.499 . S
C935 H909 0.950 . S
C935 C934 1.414 . S
C935 C936 1.374 . S
C936 H910 0.950 . S
C936 C932 1.385 . S
C936 C935 1.374 . S
C937 C934 1.499 . S
C937 C938 1.373 . S
C937 C939 1.389 . S
C938 H911 0.950 . S
C938 C924 1.377 . S
C938 C937 1.373 . S
C939 C923 1.377 . S
C939 C937 1.389 . S
C939 C940 1.524 . S
C940 C939 1.524 . S
C940 C941 1.397 . S
C940 C945 1.363 . S
C941 H912 0.950 . S
C941 C940 1.397 . S
C941 C942 1.334 . S
C942 H913 0.950 . S
C942 C941 1.334 . S
C942 C943 1.287 . S
C943 C942 1.287 . S
C943 C944 1.524 . S
C943 H946 0.999 . S
C944 H914 0.950 . S
C944 C943 1.524 . S
C944 C945 1.415 . S
C945 H915 0.950 . S
C945 C940 1.363 . S
C945 C944 1.415 . S
H946 C943 0.999 . S
H947 C928 0.913 . S
H948 C966 0.951 . S
H949 C968 0.951 . S
H950 C970 0.948 . S
H951 C971 0.931 1_565 S
H952 C973 0.950 . S
H953 C976 0.950 . S
H954 C977 0.950 . S
H955 C979 0.950 . S
H956 C980 0.950 . S
H957 C981 0.951 . S
H958 C983 0.951 . S
H959 C985 0.950 . S
H960 C986 0.950 . S
H961 C988 0.950 . S
H962 C991 0.950 . S
H963 C992 0.950 . S
H964 C994 0.950 . S
H965 C995 0.950 . S
C966 H948 0.951 . S
C966 C967 1.366 . S
C966 C968 1.388 . S
C967 C966 1.366 . S
C967 C971 1.401 . S
C968 H949 0.951 . S
C968 C966 1.388 . S
C968 C969 1.366 . S
C969 C968 1.366 . S
C969 C970 1.417 1_545 S
C969 C972 1.499 . S
C970 H950 0.948 . S
C970 C969 1.417 1_565 S
C970 C971 1.376 1_565 S
C971 H951 0.931 1_545 S
C971 C967 1.401 . S
C971 C970 1.376 1_545 S
C972 C969 1.499 . S
C972 C973 1.373 1_545 S
C972 C974 1.389 . S
C973 H952 0.950 . S
C973 C972 1.373 1_565 S
C973 C989 1.377 . S
C974 C972 1.389 . S
C974 C975 1.524 . S
C974 C988 1.377 . S
C975 C974 1.524 . S
C975 C976 1.397 . S
C975 C980 1.363 . S
C976 H953 0.950 . S
C976 C975 1.397 . S
C976 C977 1.334 . S
C977 H954 0.950 . S
C977 C976 1.334 . S
C977 C978 1.287 . S
C978 C977 1.287 . S
C978 C979 1.524 . S
C978 H997 0.913 . S
C979 H955 0.950 . S
C979 C978 1.524 . S
C979 C980 1.415 . S
C980 H956 0.950 . S
C980 C975 1.363 . S
C980 C979 1.415 . S
C981 H957 0.951 . S
C981 C982 1.366 1_565 S
C981 C983 1.388 . S
C982 C981 1.366 1_545 S
C982 C986 1.385 . S
C983 H958 0.951 . S
C983 C981 1.388 . S
C983 C984 1.366 1_565 S
C984 C983 1.366 1_545 S
C984 C985 1.414 . S
C984 C987 1.499 . S
C985 H959 0.950 . S
C985 C984 1.414 . S
C985 C986 1.374 . S
C986 H960 0.950 . S
C986 C982 1.385 . S
C986 C985 1.374 . S
C987 C984 1.499 . S
C987 C988 1.373 . S
C987 C989 1.389 1_545 S
C988 H961 0.950 . S
C988 C974 1.377 . S
C988 C987 1.373 . S
C989 C973 1.377 . S
C989 C987 1.389 1_565 S
C989 C990 1.524 . S
C990 C989 1.524 . S
C990 C991 1.397 . S
C990 C995 1.363 . S
C991 H962 0.950 . S
C991 C990 1.397 . S
C991 C992 1.334 . S
C992 H963 0.950 . S
C992 C991 1.334 . S
C992 C993 1.287 . S
C993 C992 1.287 . S
C993 C994 1.524 . S
C993 H996 0.999 . S
C994 H964 0.950 . S
C994 C993 1.524 . S
C994 C995 1.415 . S
C995 H965 0.950 . S
C995 C990 1.363 . S
C995 C994 1.415 . S
H996 C993 0.999 . S
H997 C978 0.913 . S
H998 C1016 0.951 . S
H999 C1018 0.951 . S
H1000 C1020 0.950 . S
H1001 C1021 0.950 . S
H1002 C1023 0.950 . S
H1003 C1026 0.950 . S
H1004 C1027 0.950 . S
H1005 C1029 0.950 . S
H1006 C1030 0.950 . S
H1007 C1031 0.951 . S
H1008 C1033 0.951 . S
H1009 C1035 0.950 . S
H1010 C1036 0.950 . S
H1011 C1038 0.950 . S
H1012 C1041 0.950 . S
H1013 C1042 0.950 . S
H1014 C1044 0.950 . S
H1015 C1045 0.950 1_556 S
C1016 H998 0.951 . S
C1016 C1017 1.366 . S
C1016 C1018 1.388 . S
C1017 C1016 1.366 . S
C1017 C1021 1.385 . S
C1018 H999 0.951 . S
C1018 C1016 1.388 . S
C1018 C1019 1.366 . S
C1019 C1018 1.366 . S
C1019 C1020 1.414 . S
C1019 C1022 1.499 . S
C1020 H1000 0.950 . S
C1020 C1019 1.414 . S
C1020 C1021 1.374 . S
C1021 H1001 0.950 . S
C1021 C1017 1.385 . S
C1021 C1020 1.374 . S
C1022 C1019 1.499 . S
C1022 C1023 1.373 . S
C1022 C1024 1.389 . S
C1023 H1002 0.950 . S
C1023 C1022 1.373 . S
C1023 C1039 1.377 . S
C1024 C1022 1.389 . S
C1024 C1025 1.524 . S
C1024 C1038 1.377 . S
C1025 C1024 1.524 . S
C1025 C1026 1.397 . S
C1025 C1030 1.363 . S
C1026 H1003 0.950 . S
C1026 C1025 1.397 . S
C1026 C1027 1.334 . S
C1027 H1004 0.950 . S
C1027 C1026 1.334 . S
C1027 C1028 1.287 . S
C1028 C1027 1.287 . S
C1028 C1029 1.524 . S
C1028 H1047 0.913 . S
C1029 H1005 0.950 . S
C1029 C1028 1.524 . S
C1029 C1030 1.415 . S
C1030 H1006 0.950 . S
C1030 C1025 1.363 . S
C1030 C1029 1.415 . S
C1031 H1007 0.951 . S
C1031 C1032 1.366 . S
C1031 C1033 1.388 . S
C1032 C1031 1.366 . S
C1032 C1036 1.385 . S
C1033 H1008 0.951 . S
C1033 C1031 1.388 . S
C1033 C1034 1.366 . S
C1034 C1033 1.366 . S
C1034 C1035 1.414 . S
C1034 C1037 1.499 . S
C1035 H1009 0.950 . S
C1035 C1034 1.414 . S
C1035 C1036 1.374 . S
C1036 H1010 0.950 . S
C1036 C1032 1.385 . S
C1036 C1035 1.374 . S
C1037 C1034 1.499 . S
C1037 C1038 1.373 1_554 S
C1037 C1039 1.389 1_554 S
C1038 H1011 0.950 . S
C1038 C1024 1.377 . S
C1038 C1037 1.373 1_556 S
C1039 C1023 1.377 . S
C1039 C1037 1.389 1_556 S
C1039 C1040 1.524 1_556 S
C1040 C1039 1.524 1_554 S
C1040 C1041 1.397 . S
C1040 C1045 1.363 . S
C1041 H1012 0.950 . S
C1041 C1040 1.397 . S
C1041 C1042 1.334 . S
C1042 H1013 0.950 . S
C1042 C1041 1.334 . S
C1042 C1043 1.287 . S
C1043 C1042 1.287 . S
C1043 C1044 1.524 . S
C1043 H1046 0.999 . S
C1044 H1014 0.950 . S
C1044 C1043 1.524 . S
C1044 C1045 1.415 . S
C1045 H1015 0.950 1_554 S
C1045 C1040 1.363 . S
C1045 C1044 1.415 . S
H1046 C1043 0.999 . S
H1047 C1028 0.913 . S
H1048 C1066 0.951 . S
H1049 C1068 0.951 . S
H1050 C1070 0.950 1_655 S
H1051 C1071 0.940 1_655 S
H1052 C1073 0.950 . S
H1053 C1076 0.950 . S
H1054 C1077 0.950 . S
H1055 C1079 0.950 . S
H1056 C1080 0.950 . S
H1057 C1081 0.951 . S
H1058 C1083 0.951 . S
H1059 C1085 0.950 . S
H1060 C1086 0.950 . S
H1061 C1088 0.950 . S
H1062 C1091 0.950 . S
H1063 C1092 0.950 . S
H1064 C1094 0.950 . S
H1065 C1095 0.950 . S
C1066 H1048 0.951 . S
C1066 C1067 1.366 . S
C1066 C1068 1.388 . S
C1067 C1066 1.366 . S
C1067 C1071 1.393 . S
C1068 H1049 0.951 . S
C1068 C1066 1.388 . S
C1068 C1069 1.366 . S
C1069 C1068 1.366 . S
C1069 C1070 1.414 . S
C1069 C1072 1.499 . S
C1070 H1050 0.950 1_455 S
C1070 C1069 1.414 . S
C1070 C1071 1.375 . S
C1071 H1051 0.940 1_455 S
C1071 C1067 1.393 . S
C1071 C1070 1.375 . S
C1072 C1069 1.499 . S
C1072 C1073 1.373 . S
C1072 C1074 1.389 . S
C1073 H1052 0.950 . S
C1073 C1072 1.373 . S
C1073 C1089 1.377 . S
C1074 C1072 1.389 . S
C1074 C1075 1.524 . S
C1074 C1088 1.377 . S
C1075 C1074 1.524 . S
C1075 C1076 1.397 . S
C1075 C1080 1.363 . S
C1076 H1053 0.950 . S
C1076 C1075 1.397 . S
C1076 C1077 1.334 . S
C1077 H1054 0.950 . S
C1077 C1076 1.334 . S
C1077 C1078 1.287 . S
C1078 C1077 1.287 . S
C1078 C1079 1.524 . S
C1078 H1097 0.913 . S
C1079 H1055 0.950 . S
C1079 C1078 1.524 . S
C1079 C1080 1.415 . S
C1080 H1056 0.950 . S
C1080 C1075 1.363 . S
C1080 C1079 1.415 . S
C1081 H1057 0.951 . S
C1081 C1082 1.366 . S
C1081 C1083 1.388 . S
C1082 C1081 1.366 . S
C1082 C1086 1.385 . S
C1083 H1058 0.951 . S
C1083 C1081 1.388 . S
C1083 C1084 1.366 . S
C1084 C1083 1.366 . S
C1084 C1085 1.414 . S
C1084 C1087 1.499 . S
C1085 H1059 0.950 . S
C1085 C1084 1.414 . S
C1085 C1086 1.374 . S
C1086 H1060 0.950 . S
C1086 C1082 1.385 . S
C1086 C1085 1.374 . S
C1087 C1084 1.499 . S
C1087 C1088 1.373 . S
C1087 C1089 1.389 . S
C1088 H1061 0.950 . S
C1088 C1074 1.377 . S
C1088 C1087 1.373 . S
C1089 C1073 1.377 . S
C1089 C1087 1.389 . S
C1089 C1090 1.524 . S
C1090 C1089 1.524 . S
C1090 C1091 1.397 . S
C1090 C1095 1.363 1_455 S
C1091 H1062 0.950 . S
C1091 C1090 1.397 . S
C1091 C1092 1.334 . S
C1092 H1063 0.950 . S
C1092 C1091 1.334 . S
C1092 C1093 1.287 1_455 S
C1093 C1092 1.287 1_655 S
C1093 C1094 1.524 . S
C1093 H1096 0.999 . S
C1094 H1064 0.950 . S
C1094 C1093 1.524 . S
C1094 C1095 1.415 . S
C1095 H1065 0.950 . S
C1095 C1090 1.363 1_655 S
C1095 C1094 1.415 . S
H1096 C1093 0.999 . S
H1097 C1078 0.913 . S
C217 C19 3.005 . S
C232 C189 2.841 . S
C267 C49 2.942 . S
C282 C167 2.906 1_655 S
C317 C99 2.859 . S
C332 C180 2.840 . S
C367 C9 2.949 . S
C382 C193 2.914 . S
C432 C163 2.866 . S
C417 C59 3.023 . S
C482 C176 2.921 . S
C467 C89 3.119 . S
C517 C55 0.131 . S
C532 C141 0.239 . S
C567 C85 0.265 . S
C582 C154 0.195 . S
C617 C15 0.342 . S
C632 C124 0.506 . S
C682 C137 0.472 . S
C667 C45 0.339 . S
C732 C150 0.531 . S
C717 C95 0.434 . S
C767 C5 0.260 . S
C782 C128 0.179 . S
C832 C155 1.290 . S
C817 C18 1.261 . S
C867 C58 1.304 . S
C882 C129 1.322 . S
C917 C98 1.212 . S
C932 C142 1.258 . S
C982 C181 1.793 . S
C967 C48 1.680 . S
C1032 C194 1.718 . S
C1017 C88 1.673 . S
C1067 C8 1.683 . S
C1082 C168 1.747 . S
