# Generated by pormake.
# Topology pth, (4,4)-cn, num edge types: 1
# Building blocks:
#     Node 0, Type 0, BuildingBlock: AZAVOO_clean_sbu_0, # of connection points: 4
#     Node 1, Type 0, BuildingBlock: AZAVOO_clean_sbu_0, # of connection points: 4
#     Node 2, Type 0, BuildingBlock: AZAVOO_clean_sbu_0, # of connection points: 4
#     Node 3, Type 1, BuildingBlock: NAWXER_clean_linker_0, # of connection points: 4
#     Node 4, Type 1, BuildingBlock: NAWXER_clean_linker_0, # of connection points: 4
#     Node 5, Type 1, BuildingBlock: NAWXER_clean_linker_0, # of connection points: 4
#     Edge 6, Type (0, 1), BuildingBlock: FUNLAD_clean_linker_0, # of connection points: 2
#     Edge 7, Type (0, 1), BuildingBlock: FUNLAD_clean_linker_0, # of connection points: 2
#     Edge 8, Type (0, 1), BuildingBlock: FUNLAD_clean_linker_0, # of connection points: 2
#     Edge 9, Type (0, 1), BuildingBlock: FUNLAD_clean_linker_0, # of connection points: 2
#     Edge 10, Type (0, 1), BuildingBlock: FUNLAD_clean_linker_0, # of connection points: 2
#     Edge 11, Type (0, 1), BuildingBlock: FUNLAD_clean_linker_0, # of connection points: 2
#     Edge 12, Type (0, 1), BuildingBlock: FUNLAD_clean_linker_0, # of connection points: 2
#     Edge 13, Type (0, 1), BuildingBlock: FUNLAD_clean_linker_0, # of connection points: 2
#     Edge 14, Type (0, 1), BuildingBlock: FUNLAD_clean_linker_0, # of connection points: 2
#     Edge 15, Type (0, 1), BuildingBlock: FUNLAD_clean_linker_0, # of connection points: 2
#     Edge 16, Type (0, 1), BuildingBlock: FUNLAD_clean_linker_0, # of connection points: 2
#     Edge 17, Type (0, 1), BuildingBlock: FUNLAD_clean_linker_0, # of connection points: 2
# Relax obj value: 0.065
# Max RMSD: 0.211
# Mean RMSD: 0.105
data_MOF--net-pth--node1-AZAVOO_clean_sbu_0--node2-NAWXER_clean_linker_0--edge1-FUNLAD_clean_linker_0
_symmetry_space_group_name_H-M    P1
_symmetry_Int_Tables_number       1
_symmetry_cell_setting            triclinic
loop_
_symmetry_equiv_pos_as_xyz
'x, y, z'
_cell_length_a     32.670005
_cell_length_b     33.05259
_cell_length_c     73.973856
_cell_angle_alpha  90.867907
_cell_angle_beta   92.620222
_cell_angle_gamma 121.62663
loop_
_atom_site_label
_atom_site_type_symbol
_atom_site_fract_x
_atom_site_fract_y
_atom_site_fract_z
_atom_type_partial_charge
Mg0 Mg 0.08004 0.07953 0.03654 0.0
O1 O 0.01359 0.02446 0.019 0.0
O2 O -0.00048 0.06181 -0.00302 0.0
Mg3 Mg 0.05835 0.1408 4e-05 0.0
C4 C 0.98886 0.02392 0.00504 0.0
C5 C 0.09296 0.01908 0.06522 0.0
O6 O 0.1374 0.04613 0.06045 0.0
O7 O 0.03808 0.10869 0.04951 0.0
O8 O 0.03141 0.14977 0.02708 0.0
O9 O 0.12753 0.06947 0.0186 0.0
O10 O 0.10681 0.12258 0.01446 0.0
C11 C 0.02534 0.13668 0.04341 0.0
C12 C 0.12883 0.10234 0.00888 0.0
O13 O 0.06036 0.02476 0.05802 0.0
Mg14 Mg 0.96955 0.04433 0.36664 0.0
O15 O 0.03394 0.0663 0.38687 0.0
O16 O 0.05176 0.1334 0.40175 0.0
Mg17 Mg -0.00115 0.15421 0.39127 0.0
C18 C 0.05945 0.0999 0.39873 0.0
C19 C 0.9507 0.95018 0.34804 0.0
O20 O 0.90669 0.93677 0.35204 0.0
O21 O 0.01663 0.10306 0.34788 0.0
O22 O 0.03029 0.16809 0.36333 0.0
O23 O 0.9187 0.00374 0.38802 0.0
O24 O 0.94624 0.07918 0.38296 0.0
C25 C 0.03481 0.14795 0.34934 0.0
C26 C 0.92108 0.04298 0.39253 0.0
O27 O 0.98474 0.99243 0.35236 0.0
Mg28 Mg 0.97931 0.00695 0.70148 0.0
O29 O 0.03225 0.06462 0.72255 0.0
O30 O 0.98942 0.07055 0.74398 0.0
Mg31 Mg 0.90972 0.01659 0.73677 0.0
C32 C 0.02967 0.08328 0.73737 0.0
C33 C 0.07681 0.03347 0.68576 0.0
O34 O 0.08252 0.01982 0.70178 0.0
O35 O 0.95632 0.056 0.69031 0.0
O36 O 0.91065 0.05734 0.71158 0.0
O37 O 0.98386 0.95237 0.71708 0.0
O38 O 0.9307 0.9732 0.72136 0.0
C39 C 0.92888 0.06925 0.6962 0.0
C40 C 0.94953 0.94893 0.72633 0.0
O41 O 0.03824 0.03271 0.68163 0.0
C42 C 0.98745 0.38215 0.22421 0.0
C43 C 0.02537 0.39491 0.2373 0.0
C44 C 0.98216 0.41703 0.21597 0.0
C45 C 0.01522 0.46543 0.22037 0.0
C46 C 0.0576 0.44342 0.24203 0.0
C47 C 0.05247 0.47828 0.23367 0.0
C48 C 0.01155 0.50299 0.21119 0.0
C49 C 0.04147 0.42441 0.16864 0.0
C50 C -0.00041 0.39503 0.15748 0.0
C51 C 0.04466 0.46056 0.17982 0.0
C52 C 0.00621 0.46812 0.17983 0.0
C53 C 0.96139 0.40302 0.15741 0.0
C54 C 0.96492 0.43967 0.16835 0.0
C55 C 0.0081 0.50462 0.19215 0.0
C56 C 0.05805 0.70488 0.18325 0.0
C57 C 0.03074 0.69923 0.16712 0.0
C58 C 0.05048 0.66528 0.19253 0.0
C59 C 0.01497 0.61914 0.18602 0.0
C60 C 0.99508 0.65303 0.16065 0.0
C61 C 0.9875 0.61337 0.16996 0.0
C62 C 0.00912 0.57699 0.19516 0.0
C63 C 0.96043 0.64534 0.23397 0.0
C64 C 0.9893 0.66478 0.25017 0.0
C65 C 0.967 0.61596 0.22228 0.0
C66 C 0.00296 0.60575 0.22641 0.0
C67 C 0.02502 0.65419 0.25438 0.0
C68 C 0.03153 0.62464 0.24267 0.0
C69 C 0.00904 0.57356 0.2142 0.0
H70 H 0.96204 0.3452 0.22019 0.0
H71 H 0.95226 0.4061 0.20612 0.0
H72 H 0.08654 0.45451 0.25235 0.0
H73 H 0.07806 0.5154 0.23743 0.0
H74 H 0.07137 0.41888 0.16893 0.0
H75 H 0.07691 0.4824 0.18854 0.0
H76 H 0.92898 0.38115 0.14876 0.0
H77 H 0.93497 0.44512 0.16819 0.0
H78 H 0.08557 0.73996 0.18867 0.0
H79 H 0.07321 0.67079 0.20459 0.0
H80 H 0.97391 0.64745 0.14813 0.0
H81 H 0.96037 0.57812 0.16454 0.0
H82 H 0.93285 0.65305 0.23026 0.0
H83 H 0.94356 0.60082 0.21008 0.0
H84 H 0.04743 0.66813 0.26687 0.0
H85 H 0.05906 0.61675 0.24625 0.0
N86 N 0.01142 0.53729 0.22152 0.0
N87 N 0.00752 0.54176 0.18484 0.0
C88 C 0.66606 0.09809 0.50893 0.0
C89 C 0.64825 0.05549 0.49853 0.0
C90 C 0.63512 0.10595 0.5187 0.0
C91 C 0.58586 0.07109 0.51849 0.0
C92 C 0.59878 0.0209 0.49818 0.0
C93 C 0.56786 0.02877 0.508 0.0
C94 C 0.55266 0.07893 0.52877 0.0
C95 C 0.65415 0.07215 0.56995 0.0
C96 C 0.68245 0.11414 0.5808 0.0
C97 C 0.61498 0.06558 0.55899 0.0
C98 C 0.6038 0.10119 0.55846 0.0
C99 C 0.6708 0.14948 0.5804 0.0
C100 C 0.63172 0.14295 0.56938 0.0
C101 C 0.56183 0.09437 0.54723 0.0
C102 C 0.37364 0.0625 0.56834 0.0
C103 C 0.38978 0.10135 0.58075 0.0
C104 C 0.40535 0.06083 0.55676 0.0
C105 C 0.45377 0.09808 0.55727 0.0
C106 C 0.43811 0.13903 0.58097 0.0
C107 C 0.46984 0.13721 0.56943 0.0
C108 C 0.48873 0.09427 0.5465 0.0
C109 C 0.39167 0.10828 0.50573 0.0
C110 C 0.3653 0.06948 0.49321 0.0
C111 C 0.42856 0.11151 0.51717 0.0
C112 C 0.43946 0.07569 0.51651 0.0
C113 C 0.37647 0.03381 0.49249 0.0
C114 C 0.41333 0.03701 0.50398 0.0
C115 C 0.48015 0.08002 0.52792 0.0
H116 H 0.70401 0.12536 0.50956 0.0
H117 H 0.64969 0.13939 0.52635 0.0
H118 H 0.58379 0.9881 0.49006 0.0
H119 H 0.52985 0.00163 0.50749 0.0
H120 H 0.66153 0.04381 0.57027 0.0
H121 H 0.59304 0.03238 0.55114 0.0
H122 H 0.69204 0.18228 0.58855 0.0
H123 H 0.62345 0.1707 0.5693 0.0
H124 H 0.33695 0.03243 0.56805 0.0
H125 H 0.39239 0.02957 0.54788 0.0
H126 H 0.45158 0.16973 0.5902 0.0
H127 H 0.50715 0.1662 0.57013 0.0
H128 H 0.38467 0.13686 0.50636 0.0
H129 H 0.44926 0.14261 0.52624 0.0
H130 H 0.35659 0.00329 0.48309 0.0
H131 H 0.42139 0.00917 0.5031 0.0
N132 N 0.51221 0.0724 0.51983 0.0
N133 N 0.52948 0.10138 0.55536 0.0
C134 C 0.43971 0.33549 0.83736 0.0
C135 C 0.41852 0.35119 0.82451 0.0
C136 C 0.48051 0.36834 0.84825 0.0
C137 C 0.50033 0.41741 0.84664 0.0
C138 C 0.43981 0.4003 0.82247 0.0
C139 C 0.48019 0.43294 0.8334 0.0
C140 C 0.54199 0.45359 0.8584 0.0
C141 C 0.42521 0.36286 0.89579 0.0
C142 C 0.43894 0.33763 0.90716 0.0
C143 C 0.45938 0.4007 0.88617 0.0
C144 C 0.50781 0.41379 0.88767 0.0
C145 C 0.48768 0.35129 0.9087 0.0
C146 C 0.52181 0.38925 0.89914 0.0
C147 C 0.5443 0.45331 0.87751 0.0
C148 C 0.68399 0.65971 0.8957 0.0
C149 C 0.70796 0.65855 0.91175 0.0
C150 C 0.65392 0.61818 0.88513 0.0
C151 C 0.64775 0.5746 0.89018 0.0
C152 C 0.70056 0.61466 0.91715 0.0
C153 C 0.67055 0.573 0.90647 0.0
C154 C 0.61552 0.53063 0.8789 0.0
C155 C 0.7397 0.62193 0.84525 0.0
C156 C 0.7278 0.63399 0.82856 0.0
C157 C 0.70352 0.5877 0.85547 0.0
C158 C 0.65475 0.5661 0.84942 0.0
C159 C 0.67924 0.61175 0.82233 0.0
C160 C 0.64308 0.57823 0.83268 0.0
C161 C 0.61577 0.52886 0.85979 0.0
H162 H 0.42425 0.29789 0.83925 0.0
H163 H 0.49624 0.35539 0.85798 0.0
H164 H 0.42524 0.41365 0.81241 0.0
H165 H 0.4952 0.47059 0.83171 0.0
H166 H 0.3882 0.35396 0.89457 0.0
H167 H 0.44807 0.41984 0.87761 0.0
H168 H 0.49944 0.33238 0.91717 0.0
H169 H 0.55911 0.39902 0.90049 0.0
H170 H 0.68795 0.69272 0.89141 0.0
H171 H 0.6352 0.62015 0.87302 0.0
H172 H 0.71857 0.61268 0.92946 0.0
H173 H 0.66567 0.53965 0.91079 0.0
H174 H 0.777 0.63823 0.85019 0.0
H175 H 0.71383 0.57774 0.86796 0.0
H176 H 0.66921 0.62073 0.80953 0.0
H177 H 0.60587 0.56189 0.8276 0.0
N178 N 0.5783 0.491 0.85034 0.0
N179 N 0.5806 0.49211 0.88706 0.0
C180 C 0.00796 0.15193 0.07475 0.0
C181 C 0.00918 0.15998 0.0561 0.0
C182 C 0.00128 0.18034 0.08702 0.0
C183 C -0.0043 0.21735 0.08084 0.0
C184 C 0.99433 0.22362 0.06218 0.0
C185 C 0.00059 0.19509 0.04993 0.0
C186 C -0.00345 0.25326 0.09339 0.0
C187 C 0.98298 0.24511 0.11051 0.0
C188 C 0.98785 0.28359 0.12271 0.0
C189 C 0.95194 0.27367 0.13467 0.0
C190 C 0.95559 0.30994 0.14594 0.0
C191 C -0.0041 0.35643 0.14577 0.0
H192 H 0.05733 0.33845 0.11395 0.0
C193 C 0.03254 0.36601 0.13421 0.0
C194 C 0.02846 0.33001 0.12271 0.0
H195 H 0.06398 0.40156 0.13385 0.0
H196 H 0.01452 0.12527 0.07998 0.0
H197 H 0.00329 0.17494 0.10135 0.0
H198 H 0.99004 0.25182 0.05706 0.0
H199 H 0.00104 0.20227 0.03568 0.0
H200 H 0.00866 0.28813 0.08818 0.0
H201 H 0.96628 0.20944 0.11548 0.0
H202 H 0.92061 0.23805 0.13504 0.0
H203 H 0.92712 0.30163 0.1549 0.0
C204 C 0.86613 0.00673 0.41798 0.0
C205 C 0.89637 0.04674 0.40816 0.0
C206 C 0.84049 0.01028 0.43197 0.0
C207 C 0.84497 0.05407 0.4364 0.0
C208 C 0.8764 0.09416 0.42697 0.0
C209 C 0.90134 0.09048 0.41291 0.0
C210 C 0.8171 0.05984 0.45039 0.0
C211 C 0.77306 0.02496 0.45468 0.0
C212 C 0.74263 0.03386 0.46644 0.0
C213 C 0.70704 0.99633 0.47591 0.0
C214 C 0.67663 0.0033 0.48649 0.0
C215 C 0.68095 0.04792 0.48765 0.0
H216 H 0.772 0.10768 0.45977 0.0
C217 C 0.71624 0.08529 0.47802 0.0
C218 C 0.74657 0.07836 0.46748 0.0
H219 H 0.71968 0.11972 0.47823 0.0
H220 H 0.86165 0.97254 0.41468 0.0
H221 H 0.81745 0.97884 0.43925 0.0
H222 H 0.88059 0.12832 0.43013 0.0
H223 H 0.92377 0.12195 0.40557 0.0
H224 H 0.83223 0.09546 0.45635 0.0
H225 H 0.75787 0.98906 0.44901 0.0
H226 H 0.70282 0.96157 0.47516 0.0
H227 H 0.64992 0.97383 0.49383 0.0
C228 C 0.95009 0.88844 0.74611 0.0
C229 C 0.93319 0.91885 0.74218 0.0
C230 C 0.93217 0.85759 0.76035 0.0
C231 C 0.89726 0.85691 0.77099 0.0
C232 C 0.882 0.88872 0.76757 0.0
C233 C 0.89932 0.91899 0.75318 0.0
C234 C 0.87458 0.82228 0.78525 0.0
C235 C 0.86426 0.77727 0.78337 0.0
C236 C 0.83274 0.74006 0.79566 0.0
C237 C 0.79988 0.6941 0.78832 0.0
C238 C 0.76629 0.65935 0.79911 0.0
C239 C 0.76572 0.6697 0.81754 0.0
H240 H 0.85906 0.78485 0.82038 0.0
C241 C 0.80023 0.71492 0.82514 0.0
C242 C 0.83337 0.74998 0.81427 0.0
H243 H 0.80052 0.72361 0.83935 0.0
H244 H 0.97641 0.88768 0.73796 0.0
H245 H 0.94545 0.83418 0.76294 0.0
H246 H 0.85524 0.88895 0.77564 0.0
H247 H 0.88542 0.94179 0.75055 0.0
H248 H 0.86049 0.83223 0.79637 0.0
H249 H 0.87374 0.76591 0.77122 0.0
H250 H 0.79899 0.68556 0.77405 0.0
H251 H 0.74035 0.62449 0.79302 0.0
C252 C 0.11678 0.97452 0.08586 0.0
C253 C 0.0807 0.981 0.07808 0.0
C254 C 0.10512 0.93734 0.09739 0.0
C255 C 0.057 0.90591 0.1015 0.0
C256 C 0.02099 0.91247 0.09372 0.0
C257 C 0.03268 0.94972 0.08221 0.0
C258 C 0.04271 0.86451 0.11298 0.0
C259 C 0.07291 0.86287 0.12558 0.0
C260 C 0.06032 0.82066 0.13639 0.0
C261 C 0.098 0.81749 0.14469 0.0
C262 C 0.08838 0.77829 0.15469 0.0
C263 C 0.0407 0.74131 0.15676 0.0
H264 H 0.98221 0.78554 0.1331 0.0
C265 C 0.00285 0.74471 0.14873 0.0
C266 C 0.01246 0.78401 0.13872 0.0
H267 H 0.9657 0.71721 0.15037 0.0
H268 H 0.15408 0.99771 0.08284 0.0
H269 H 0.13384 0.93272 0.10257 0.0
H270 H 0.98361 0.88857 0.09651 0.0
H271 H 0.00395 0.95357 0.07638 0.0
H272 H 0.00606 0.83454 0.11074 0.0
H273 H 0.10932 0.89336 0.12785 0.0
H274 H 0.13519 0.84517 0.1432 0.0
H275 H 0.11842 0.77657 0.16052 0.0
C276 C 0.10391 0.06004 0.40859 0.0
C277 C 0.09785 0.09907 0.4099 0.0
C278 C 0.13836 0.05818 0.41988 0.0
C279 C 0.16788 0.09562 0.43266 0.0
C280 C 0.16205 0.13472 0.43382 0.0
C281 C 0.1276 0.13653 0.42258 0.0
C282 C 0.20355 0.0946 0.44559 0.0
C283 C 0.22126 0.06619 0.44336 0.0
C284 C 0.2571 0.06627 0.45652 0.0
C285 C 0.28801 0.05215 0.45043 0.0
C286 C 0.32279 0.05269 0.46234 0.0
C287 C 0.32712 0.06701 0.48068 0.0
H288 H 0.23612 0.08854 0.48041 0.0
C289 C 0.29528 0.07984 0.4869 0.0
C290 C 0.26052 0.07929 0.475 0.0
H291 H 0.29695 0.08995 0.50103 0.0
H292 H 0.08135 0.03036 0.39908 0.0
H293 H 0.14061 0.02676 0.41882 0.0
H294 H 0.18406 0.16397 0.44357 0.0
H295 H 0.12399 0.16717 0.424 0.0
H296 H 0.21707 0.11988 0.45714 0.0
H297 H 0.21144 0.04389 0.43108 0.0
H298 H 0.28587 0.04151 0.43632 0.0
H299 H 0.34697 0.04289 0.45708 0.0
C300 C 0.11997 0.13097 0.74184 0.0
C301 C 0.07477 0.11911 0.74771 0.0
C302 C 0.1623 0.16287 0.75216 0.0
C303 C 0.16028 0.18346 0.76864 0.0
C304 C 0.11524 0.17255 0.77422 0.0
C305 C 0.07299 0.14064 0.76395 0.0
C306 C 0.2041 0.21737 0.78017 0.0
C307 C 0.2464 0.21944 0.77985 0.0
C308 C 0.28977 0.25329 0.79164 0.0
C309 C 0.32599 0.24309 0.79515 0.0
C310 C 0.36757 0.27443 0.80597 0.0
C311 C 0.37398 0.31691 0.8134 0.0
H312 H 0.27029 0.30615 0.79624 0.0
C313 C 0.33776 0.32713 0.80985 0.0
C314 C 0.29639 0.29598 0.79901 0.0
H315 H 0.34128 0.35933 0.81548 0.0
H316 H 0.12274 0.11533 0.72933 0.0
H317 H 0.19635 0.17154 0.74705 0.0
H318 H 0.11262 0.1883 0.78673 0.0
H319 H 0.03889 0.13258 0.76886 0.0
H320 H 0.20019 0.23967 0.78998 0.0
H321 H 0.24905 0.19409 0.77126 0.0
H322 H 0.32213 0.21073 0.78951 0.0
H323 H 0.39507 0.26579 0.80824 0.0
C324 C 0.92616 0.10131 0.66594 0.0
C325 C 0.91362 0.0949 0.68407 0.0
C326 C 0.90557 0.11852 0.65374 0.0
C327 C 0.87195 0.12962 0.65942 0.0
C328 C 0.86237 0.1268 0.6778 0.0
C329 C 0.88273 0.10936 0.69 0.0
C330 C 0.84402 0.14137 0.64646 0.0
C331 C 0.83083 0.12215 0.62941 0.0
C332 C 0.79561 0.12529 0.61692 0.0
C333 C 0.78977 0.10853 0.59884 0.0
C334 C 0.75389 0.10599 0.58699 0.0
C335 C 0.72287 0.12014 0.59296 0.0
H336 H 0.76736 0.15284 0.63658 0.0
C337 C 0.72942 0.13817 0.61087 0.0
C338 C 0.76523 0.1406 0.62276 0.0
H339 H 0.70564 0.14874 0.61594 0.0
H340 H 0.95041 0.09125 0.66096 0.0
H341 H 0.9153 0.12207 0.63981 0.0
H342 H 0.83712 0.1358 0.68258 0.0
H343 H 0.87274 0.10552 0.70391 0.0
H344 H 0.83047 0.16254 0.65179 0.0
H345 H 0.84421 0.10031 0.62454 0.0
H346 H 0.81247 0.09642 0.59393 0.0
H347 H 0.75013 0.09251 0.57319 0.0
C348 C 0.92103 0.97551 0.9817 0.0
C349 C 0.9486 0.97754 -0.00276 0.0
C350 C 0.88603 0.93175 0.97337 0.0
C351 C 0.87808 0.88893 0.98031 0.0
C352 C 0.90395 0.8909 -0.00368 0.0
C353 C 0.93894 0.93467 0.00467 0.0
C354 C 0.84362 0.84179 0.97113 0.0
C355 C 0.83263 0.83618 0.95311 0.0
C356 C 0.80078 0.78947 0.94316 0.0
C357 C 0.80202 0.78754 0.92423 0.0
C358 C 0.77239 0.74501 0.91413 0.0
C359 C 0.74054 0.70321 0.9227 0.0
H360 H 0.76565 0.74746 0.96627 0.0
C361 C 0.73926 0.70484 0.94165 0.0
C362 C 0.76885 0.74755 0.9518 0.0
H363 H 0.71451 0.67334 0.9486 0.0
H364 H 0.92694 0.00776 0.97575 0.0
H365 H 0.86546 0.93178 0.96149 0.0
H366 H 0.89809 0.85849 0.00211 0.0
H367 H 0.95919 0.9348 0.0167 0.0
H368 H 0.83009 0.81087 0.97931 0.0
H369 H 0.84981 0.86717 0.94491 0.0
H370 H 0.82611 0.81913 0.91718 0.0
H371 H 0.77461 0.74482 0.89957 0.0
C372 C 0.92252 0.87058 0.33301 0.0
C373 C 0.96035 0.91689 0.33825 0.0
C374 C 0.93136 0.8395 0.32338 0.0
C375 C 0.97831 0.85419 0.31865 0.0
C376 C 0.01623 0.90005 0.3243 0.0
C377 C 0.00739 0.93116 0.33391 0.0
C378 C 0.98927 0.82265 0.30811 0.0
C379 C 0.9567 0.78718 0.29652 0.0
C380 C 0.96687 0.75592 0.28534 0.0
C381 C 0.92765 0.71389 0.2772 0.0
C382 C 0.93494 0.68409 0.26602 0.0
C383 C 0.98177 0.6957 0.26261 0.0
H384 H 0.04528 0.80001 0.28754 0.0
C385 C 0.02116 0.73755 0.27083 0.0
C386 C 0.01388 0.76748 0.28201 0.0
H387 H 0.05768 0.74785 0.26824 0.0
H388 H 0.88594 0.85824 0.33632 0.0
H389 H 0.90134 0.80391 0.3199 0.0
H390 H 0.05281 0.91216 0.32102 0.0
H391 H 0.03743 0.96649 0.33784 0.0
H392 H 0.02582 0.83024 0.30968 0.0
H393 H 0.92045 0.78052 0.29491 0.0
H394 H 0.89105 0.70401 0.27946 0.0
H395 H 0.90379 0.65181 0.26008 0.0
C396 C 0.15398 0.04343 0.67618 0.0
C397 C 0.11379 0.04748 0.67239 0.0
C398 C 0.18776 0.05448 0.66324 0.0
C399 C 0.18239 0.07043 0.64625 0.0
C400 C 0.14237 0.0748 0.64256 0.0
C401 C 0.1085 0.06357 0.65548 0.0
C402 C 0.2159 0.08003 0.63168 0.0
C403 C 0.26093 0.08889 0.63475 0.0
C404 C 0.29346 0.09485 0.62021 0.0
C405 C 0.34243 0.11375 0.62506 0.0
C406 C 0.37384 0.11692 0.61219 0.0
C407 C 0.35701 0.10115 0.5941 0.0
H408 H 0.23914 0.06374 0.59766 0.0
C409 C 0.30818 0.08299 0.58913 0.0
C410 C 0.27668 0.07961 0.60203 0.0
H411 H 0.29411 0.07084 0.57529 0.0
H412 H 0.15891 0.03075 0.68903 0.0
H413 H 0.21706 0.04902 0.66652 0.0
H414 H 0.13704 0.0866 0.62956 0.0
H415 H 0.0779 0.06705 0.65211 0.0
H416 H 0.20281 0.08049 0.61799 0.0
H417 H 0.27531 0.09255 0.6486 0.0
H418 H 0.35638 0.12537 0.63896 0.0
H419 H 0.41103 0.13033 0.61659 0.0
C420 C 0.18826 0.10304 0.98842 0.0
C421 C 0.15577 0.11727 -0.00772 0.0
C422 C 0.21796 0.12186 0.97394 0.0
C423 C 0.21532 0.15495 0.96299 0.0
C424 C 0.18086 0.16684 0.96619 0.0
C425 C 0.15179 0.14867 0.98079 0.0
C426 C 0.24942 0.1798 0.94876 0.0
C427 C 0.29594 0.19258 0.9506 0.0
C428 C 0.33266 0.22669 0.93864 0.0
C429 C 0.3799 0.25716 0.94597 0.0
C430 C 0.41452 0.2927 0.9357 0.0
C431 C 0.4028 0.29813 0.91773 0.0
H432 H 0.28561 0.20692 0.91418 0.0
C433 C 0.35601 0.26621 0.91013 0.0
C434 C 0.32127 0.23082 0.92046 0.0
H435 H 0.34615 0.26861 0.89618 0.0
H436 H 0.19199 0.07868 -0.00304 0.0
H437 H 0.24335 0.11103 0.97151 0.0
H438 H 0.17789 0.192 0.95787 0.0
H439 H 0.12721 0.16037 0.9833 0.0
H440 H 0.23755 0.19361 0.93783 0.0
H441 H 0.30877 0.18275 0.96255 0.0
H442 H 0.38965 0.25462 0.95992 0.0
H443 H 0.45005 0.31685 0.94205 0.0
C444 C 0.04075 0.15671 0.31585 0.0
C445 C 0.05583 0.1772 0.33353 0.0
C446 C 0.05119 0.18561 0.30101 0.0
C447 C 0.07727 0.23544 0.30365 0.0
C448 C 0.09648 0.25571 0.32109 0.0
C449 C 0.08549 0.22691 0.33592 0.0
C450 C 0.08092 0.26714 0.289 0.0
C451 C 0.04386 0.25478 0.27681 0.0
C452 C 0.04053 0.28964 0.26539 0.0
C453 C 0.99473 0.28153 0.26049 0.0
C454 C 0.98979 0.31532 0.25119 0.0
C455 C 0.03063 0.35783 0.24634 0.0
H456 H 0.11728 0.3381 0.26305 0.0
C457 C 0.0765 0.36504 0.25057 0.0
C458 C 0.08145 0.33132 0.26 0.0
H459 H 0.10867 0.39682 0.24662 0.0
H460 H 0.0181 0.11849 0.31355 0.0
H461 H 0.03714 0.16895 0.28762 0.0
H462 H 0.11723 0.294 0.32343 0.0
H463 H 0.09815 0.2437 0.34937 0.0
H464 H 0.11106 0.30371 0.2902 0.0
H465 H 0.01178 0.21942 0.27695 0.0
H466 H 0.96259 0.24967 0.26443 0.0
H467 H 0.95392 0.30869 0.24831 0.0
loop_
_geom_bond_atom_site_label_1
_geom_bond_atom_site_label_2
_geom_bond_distance
_geom_bond_site_symmetry_2
_ccdc_geom_bond_type
Mg0 O1 2.028 . S
Mg0 O7 1.986 . S
Mg0 O9 2.114 . S
Mg0 O10 2.251 . S
Mg0 O13 2.010 . S
O1 Mg0 2.028 . S
O1 C4 1.250 1_455 S
O2 Mg3 2.028 1_655 S
O2 C4 1.248 . S
Mg3 O2 2.028 1_455 S
Mg3 O8 2.032 . S
Mg3 O10 2.079 . S
C4 O1 1.250 1_655 S
C4 O2 1.248 . S
C5 O6 1.264 1_565 S
C5 O13 1.249 1_565 S
O6 C5 1.264 1_545 S
O7 Mg0 1.986 . S
O7 C11 1.246 . S
O8 Mg3 2.032 . S
O8 C11 1.259 . S
O9 Mg0 2.114 . S
O9 C12 1.252 . S
O10 Mg0 2.251 . S
O10 Mg3 2.079 . S
O10 C12 1.273 . S
C11 O7 1.246 . S
C11 O8 1.259 . S
C12 O9 1.252 . S
C12 O10 1.273 . S
O13 Mg0 2.010 . S
O13 C5 1.249 1_545 S
Mg14 O15 2.028 1_655 S
Mg14 O21 1.986 1_655 S
Mg14 O23 2.114 1_545 S
Mg14 O24 2.251 . S
Mg14 O27 2.010 1_545 S
O15 Mg14 2.028 1_455 S
O15 C18 1.250 . S
O16 Mg17 2.028 . S
O16 C18 1.248 . S
Mg17 O16 2.028 . S
Mg17 O22 2.032 . S
Mg17 O24 2.079 1_455 S
C18 O15 1.250 . S
C18 O16 1.248 . S
C19 O20 1.264 . S
C19 O27 1.249 . S
O20 C19 1.264 . S
O21 Mg14 1.986 1_455 S
O21 C25 1.246 . S
O22 Mg17 2.032 . S
O22 C25 1.259 . S
O23 Mg14 2.114 1_565 S
O23 C26 1.252 1_565 S
O24 Mg14 2.251 . S
O24 Mg17 2.079 1_655 S
O24 C26 1.273 . S
C25 O21 1.246 . S
C25 O22 1.259 . S
C26 O23 1.252 1_545 S
C26 O24 1.273 . S
O27 Mg14 2.010 1_565 S
O27 C19 1.249 . S
Mg28 O29 2.028 . S
Mg28 O35 1.986 1_455 S
Mg28 O37 2.114 1_545 S
Mg28 O38 2.251 1_445 S
Mg28 O41 2.010 . S
O29 Mg28 2.028 . S
O29 C32 1.250 . S
O30 Mg31 2.028 1_455 S
O30 C32 1.248 . S
Mg31 O30 2.028 1_655 S
Mg31 O36 2.032 . S
Mg31 O38 2.079 1_545 S
C32 O29 1.250 . S
C32 O30 1.248 . S
C33 O34 1.264 . S
C33 O41 1.249 1_565 S
O34 C33 1.264 . S
O35 Mg28 1.986 1_655 S
O35 C39 1.246 . S
O36 Mg31 2.032 . S
O36 C39 1.259 . S
O37 Mg28 2.114 1_565 S
O37 C40 1.252 1_455 S
O38 Mg28 2.251 1_665 S
O38 Mg31 2.079 1_565 S
O38 C40 1.273 . S
C39 O35 1.246 . S
C39 O36 1.259 . S
C40 O37 1.252 1_655 S
C40 O38 1.273 . S
O41 Mg28 2.010 . S
O41 C33 1.249 1_545 S
C42 C43 1.384 1_655 S
C42 C44 1.385 1_655 S
C42 H70 0.931 . S
C43 C42 1.384 1_455 S
C43 C46 1.382 . S
C44 C42 1.385 1_455 S
C44 C45 1.382 . S
C44 H71 0.929 1_455 S
C45 C44 1.382 . S
C45 C47 1.381 . S
C45 C48 1.487 . S
C46 C43 1.382 . S
C46 C47 1.387 . S
C46 H72 0.930 . S
C47 C45 1.381 . S
C47 C46 1.387 . S
C47 H73 0.931 . S
C48 C45 1.487 . S
C48 C55 1.399 . S
C48 N86 1.343 . S
C49 C50 1.384 . S
C49 C51 1.384 . S
C49 H74 0.931 . S
C50 C49 1.384 . S
C50 C53 1.382 . S
C51 C49 1.384 . S
C51 C52 1.381 . S
C51 H75 0.930 . S
C52 C51 1.381 . S
C52 C54 1.381 . S
C52 C55 1.487 . S
C53 C50 1.382 . S
C53 C54 1.387 . S
C53 H76 0.930 1_455 S
C54 C52 1.381 . S
C54 C53 1.387 . S
C54 H77 0.931 1_455 S
C55 C48 1.399 . S
C55 C52 1.487 . S
C55 N87 1.343 . S
C56 C57 1.384 . S
C56 C58 1.384 . S
C56 H78 0.931 . S
C57 C56 1.384 . S
C57 C60 1.382 . S
C58 C56 1.384 . S
C58 C59 1.381 . S
C58 H79 0.930 . S
C59 C58 1.381 . S
C59 C61 1.381 . S
C59 C62 1.487 . S
C60 C57 1.382 . S
C60 C61 1.387 . S
C60 H80 0.930 1_455 S
C61 C59 1.381 . S
C61 C60 1.387 . S
C61 H81 0.931 1_455 S
C62 C59 1.487 . S
C62 C69 1.399 . S
C62 N87 1.343 . S
C63 C64 1.384 1_655 S
C63 C65 1.383 1_655 S
C63 H82 0.931 . S
C64 C63 1.384 1_455 S
C64 C67 1.382 . S
C65 C63 1.383 1_455 S
C65 C66 1.383 . S
C65 H83 0.929 1_455 S
C66 C65 1.383 . S
C66 C68 1.381 . S
C66 C69 1.487 . S
C67 C64 1.382 . S
C67 C68 1.387 . S
C67 H84 0.930 . S
C68 C66 1.381 . S
C68 C67 1.387 . S
C68 H85 0.931 . S
C69 C62 1.399 . S
C69 C66 1.487 . S
C69 N86 1.343 . S
H70 C42 0.931 . S
H71 C44 0.929 1_655 S
H72 C46 0.930 . S
H73 C47 0.931 . S
H74 C49 0.931 . S
H75 C51 0.930 . S
H76 C53 0.930 1_655 S
H77 C54 0.931 1_655 S
H78 C56 0.931 . S
H79 C58 0.930 . S
H80 C60 0.930 1_655 S
H81 C61 0.931 1_655 S
H82 C63 0.931 . S
H83 C65 0.929 1_655 S
H84 C67 0.930 . S
H85 C68 0.931 . S
N86 C48 1.343 . S
N86 C69 1.343 . S
N87 C55 1.343 . S
N87 C62 1.343 . S
C88 C89 1.384 . S
C88 C90 1.384 . S
C88 H116 0.931 . S
C89 C88 1.384 . S
C89 C92 1.382 . S
C90 C88 1.384 . S
C90 C91 1.381 . S
C90 H117 0.930 . S
C91 C90 1.381 . S
C91 C93 1.381 . S
C91 C94 1.487 . S
C92 C89 1.382 . S
C92 C93 1.387 . S
C92 H118 0.930 . S
C93 C91 1.381 . S
C93 C92 1.387 . S
C93 H119 0.931 . S
C94 C91 1.487 . S
C94 C101 1.399 . S
C94 N132 1.343 . S
C95 C96 1.384 . S
C95 C97 1.384 . S
C95 H120 0.931 . S
C96 C95 1.384 . S
C96 C99 1.382 . S
C97 C95 1.384 . S
C97 C98 1.381 . S
C97 H121 0.930 . S
C98 C97 1.381 . S
C98 C100 1.381 . S
C98 C101 1.487 . S
C99 C96 1.382 . S
C99 C100 1.387 . S
C99 H122 0.930 . S
C100 C98 1.381 . S
C100 C99 1.387 . S
C100 H123 0.931 . S
C101 C94 1.399 . S
C101 C98 1.487 . S
C101 N133 1.343 . S
C102 C103 1.384 . S
C102 C104 1.384 . S
C102 H124 0.931 . S
C103 C102 1.384 . S
C103 C106 1.382 . S
C104 C102 1.384 . S
C104 C105 1.381 . S
C104 H125 0.930 . S
C105 C104 1.381 . S
C105 C107 1.381 . S
C105 C108 1.487 . S
C106 C103 1.382 . S
C106 C107 1.387 . S
C106 H126 0.930 . S
C107 C105 1.381 . S
C107 C106 1.387 . S
C107 H127 0.931 . S
C108 C105 1.487 . S
C108 C115 1.399 . S
C108 N133 1.343 . S
C109 C110 1.384 . S
C109 C111 1.384 . S
C109 H128 0.931 . S
C110 C109 1.384 . S
C110 C113 1.382 . S
C111 C109 1.384 . S
C111 C112 1.381 . S
C111 H129 0.930 . S
C112 C111 1.381 . S
C112 C114 1.381 . S
C112 C115 1.487 . S
C113 C110 1.382 . S
C113 C114 1.387 . S
C113 H130 0.930 . S
C114 C112 1.381 . S
C114 C113 1.387 . S
C114 H131 0.931 . S
C115 C108 1.399 . S
C115 C112 1.487 . S
C115 N132 1.343 . S
H116 C88 0.931 . S
H117 C90 0.930 . S
H118 C92 0.930 . S
H119 C93 0.931 . S
H120 C95 0.931 . S
H121 C97 0.930 . S
H122 C99 0.930 . S
H123 C100 0.931 . S
H124 C102 0.931 . S
H125 C104 0.930 . S
H126 C106 0.930 . S
H127 C107 0.931 . S
H128 C109 0.931 . S
H129 C111 0.930 . S
H130 C113 0.930 . S
H131 C114 0.931 . S
N132 C94 1.343 . S
N132 C115 1.343 . S
N133 C101 1.343 . S
N133 C108 1.343 . S
C134 C135 1.384 . S
C134 C136 1.384 . S
C134 H162 0.931 . S
C135 C134 1.384 . S
C135 C138 1.382 . S
C136 C134 1.384 . S
C136 C137 1.381 . S
C136 H163 0.930 . S
C137 C136 1.381 . S
C137 C139 1.381 . S
C137 C140 1.487 . S
C138 C135 1.382 . S
C138 C139 1.387 . S
C138 H164 0.930 . S
C139 C137 1.381 . S
C139 C138 1.387 . S
C139 H165 0.931 . S
C140 C137 1.487 . S
C140 C147 1.399 . S
C140 N178 1.343 . S
C141 C142 1.384 . S
C141 C143 1.384 . S
C141 H166 0.931 . S
C142 C141 1.384 . S
C142 C145 1.382 . S
C143 C141 1.384 . S
C143 C144 1.381 . S
C143 H167 0.930 . S
C144 C143 1.381 . S
C144 C146 1.381 . S
C144 C147 1.487 . S
C145 C142 1.382 . S
C145 C146 1.387 . S
C145 H168 0.930 . S
C146 C144 1.381 . S
C146 C145 1.387 . S
C146 H169 0.931 . S
C147 C140 1.399 . S
C147 C144 1.487 . S
C147 N179 1.343 . S
C148 C149 1.384 . S
C148 C150 1.384 . S
C148 H170 0.931 . S
C149 C148 1.384 . S
C149 C152 1.382 . S
C150 C148 1.384 . S
C150 C151 1.381 . S
C150 H171 0.930 . S
C151 C150 1.381 . S
C151 C153 1.381 . S
C151 C154 1.487 . S
C152 C149 1.382 . S
C152 C153 1.387 . S
C152 H172 0.930 . S
C153 C151 1.381 . S
C153 C152 1.387 . S
C153 H173 0.931 . S
C154 C151 1.487 . S
C154 C161 1.399 . S
C154 N179 1.343 . S
C155 C156 1.384 . S
C155 C157 1.384 . S
C155 H174 0.931 . S
C156 C155 1.384 . S
C156 C159 1.382 . S
C157 C155 1.384 . S
C157 C158 1.381 . S
C157 H175 0.930 . S
C158 C157 1.381 . S
C158 C160 1.381 . S
C158 C161 1.487 . S
C159 C156 1.382 . S
C159 C160 1.387 . S
C159 H176 0.930 . S
C160 C158 1.381 . S
C160 C159 1.387 . S
C160 H177 0.931 . S
C161 C154 1.399 . S
C161 C158 1.487 . S
C161 N178 1.343 . S
H162 C134 0.931 . S
H163 C136 0.930 . S
H164 C138 0.930 . S
H165 C139 0.931 . S
H166 C141 0.931 . S
H167 C143 0.930 . S
H168 C145 0.930 . S
H169 C146 0.931 . S
H170 C148 0.931 . S
H171 C150 0.930 . S
H172 C152 0.930 . S
H173 C153 0.931 . S
H174 C155 0.931 . S
H175 C157 0.930 . S
H176 C159 0.930 . S
H177 C160 0.931 . S
N178 C140 1.343 . S
N178 C161 1.343 . S
N179 C147 1.343 . S
N179 C154 1.343 . S
C180 C181 1.386 . S
C180 C182 1.383 . S
C180 H196 0.951 1_455 S
C181 C180 1.386 . S
C181 C185 1.383 . S
C182 C180 1.383 . S
C182 C183 1.402 . S
C182 H197 0.951 1_455 S
C183 C182 1.402 . S
C183 C184 1.375 . S
C183 C186 1.481 . S
C184 C183 1.375 . S
C184 C185 1.367 . S
C184 H198 0.951 . S
C185 C181 1.383 . S
C185 C184 1.367 . S
C185 H199 0.950 . S
C186 C183 1.481 . S
C186 C187 1.297 . S
C186 H200 0.950 . S
C187 C186 1.297 . S
C187 C188 1.479 . S
C187 H201 0.950 . S
C188 C187 1.479 . S
C188 C189 1.375 . S
C188 C194 1.404 . S
C189 C188 1.375 . S
C189 C190 1.369 . S
C189 H202 0.950 1_455 S
C190 C189 1.369 . S
C190 C191 1.392 . S
C190 H203 0.951 1_455 S
C191 C190 1.392 . S
C191 C193 1.384 . S
H192 C194 0.949 . S
C193 C191 1.384 . S
C193 C194 1.385 . S
C193 H195 0.950 . S
C194 C188 1.404 . S
C194 H192 0.949 . S
C194 C193 1.385 . S
H195 C193 0.950 . S
H196 C180 0.951 1_655 S
H197 C182 0.951 1_655 S
H198 C184 0.951 . S
H199 C185 0.950 . S
H200 C186 0.950 . S
H201 C187 0.950 . S
H202 C189 0.950 1_655 S
H203 C190 0.951 1_655 S
C204 C205 1.386 1_565 S
C204 C206 1.383 . S
C204 H220 0.951 . S
C205 C204 1.386 1_545 S
C205 C209 1.383 . S
C206 C204 1.383 . S
C206 C207 1.402 1_565 S
C206 H221 0.951 . S
C207 C206 1.402 1_545 S
C207 C208 1.375 . S
C207 C210 1.481 . S
C208 C207 1.375 . S
C208 C209 1.367 . S
C208 H222 0.951 . S
C209 C205 1.383 . S
C209 C208 1.367 . S
C209 H223 0.950 . S
C210 C207 1.481 . S
C210 C211 1.297 . S
C210 H224 0.950 . S
C211 C210 1.297 . S
C211 C212 1.479 . S
C211 H225 0.950 1_545 S
C212 C211 1.479 . S
C212 C213 1.375 . S
C212 C218 1.404 . S
C213 C212 1.375 . S
C213 C214 1.369 . S
C213 H226 0.950 1_545 S
C214 C213 1.369 . S
C214 C215 1.392 . S
C214 H227 0.951 1_545 S
C215 C214 1.392 . S
C215 C217 1.384 . S
H216 C218 0.949 . S
C217 C215 1.384 . S
C217 C218 1.385 . S
C217 H219 0.950 . S
C218 C212 1.404 . S
C218 H216 0.949 . S
C218 C217 1.385 . S
H219 C217 0.950 . S
H220 C204 0.951 . S
H221 C206 0.951 . S
H222 C208 0.951 . S
H223 C209 0.950 . S
H224 C210 0.950 . S
H225 C211 0.950 1_565 S
H226 C213 0.950 1_565 S
H227 C214 0.951 1_565 S
C228 C229 1.386 . S
C228 C230 1.383 . S
C228 H244 0.951 . S
C229 C228 1.386 . S
C229 C233 1.383 . S
C230 C228 1.383 . S
C230 C231 1.402 . S
C230 H245 0.951 . S
C231 C230 1.402 . S
C231 C232 1.375 . S
C231 C234 1.481 . S
C232 C231 1.375 . S
C232 C233 1.367 . S
C232 H246 0.951 . S
C233 C229 1.383 . S
C233 C232 1.367 . S
C233 H247 0.950 . S
C234 C231 1.481 . S
C234 C235 1.297 . S
C234 H248 0.950 . S
C235 C234 1.297 . S
C235 C236 1.479 . S
C235 H249 0.950 . S
C236 C235 1.479 . S
C236 C237 1.375 . S
C236 C242 1.404 . S
C237 C236 1.375 . S
C237 C238 1.369 . S
C237 H250 0.950 . S
C238 C237 1.369 . S
C238 C239 1.392 . S
C238 H251 0.951 . S
C239 C238 1.392 . S
C239 C241 1.384 . S
H240 C242 0.949 . S
C241 C239 1.384 . S
C241 C242 1.385 . S
C241 H243 0.950 . S
C242 C236 1.404 . S
C242 H240 0.949 . S
C242 C241 1.385 . S
H243 C241 0.950 . S
H244 C228 0.951 . S
H245 C230 0.951 . S
H246 C232 0.951 . S
H247 C233 0.950 . S
H248 C234 0.950 . S
H249 C235 0.950 . S
H250 C237 0.950 . S
H251 C238 0.951 . S
C252 C253 1.386 . S
C252 C254 1.383 . S
C252 H268 0.951 . S
C253 C252 1.386 . S
C253 C257 1.383 . S
C254 C252 1.383 . S
C254 C255 1.402 . S
C254 H269 0.951 . S
C255 C254 1.402 . S
C255 C256 1.375 . S
C255 C258 1.481 . S
C256 C255 1.375 . S
C256 C257 1.367 . S
C256 H270 0.951 1_455 S
C257 C253 1.383 . S
C257 C256 1.367 . S
C257 H271 0.950 . S
C258 C255 1.481 . S
C258 C259 1.297 . S
C258 H272 0.950 . S
C259 C258 1.297 . S
C259 C260 1.479 . S
C259 H273 0.950 . S
C260 C259 1.479 . S
C260 C261 1.375 . S
C260 C266 1.404 . S
C261 C260 1.375 . S
C261 C262 1.369 . S
C261 H274 0.950 . S
C262 C261 1.369 . S
C262 C263 1.392 . S
C262 H275 0.951 . S
C263 C262 1.392 . S
C263 C265 1.384 . S
H264 C266 0.949 1_655 S
C265 C263 1.384 . S
C265 C266 1.385 . S
C265 H267 0.950 1_455 S
C266 C260 1.404 . S
C266 H264 0.949 1_455 S
C266 C265 1.385 . S
H267 C265 0.950 1_655 S
H268 C252 0.951 . S
H269 C254 0.951 . S
H270 C256 0.951 1_655 S
H271 C257 0.950 . S
H272 C258 0.950 . S
H273 C259 0.950 . S
H274 C261 0.950 . S
H275 C262 0.951 . S
C276 C277 1.386 . S
C276 C278 1.383 . S
C276 H292 0.951 . S
C277 C276 1.386 . S
C277 C281 1.383 . S
C278 C276 1.383 . S
C278 C279 1.402 . S
C278 H293 0.951 . S
C279 C278 1.402 . S
C279 C280 1.375 . S
C279 C282 1.481 . S
C280 C279 1.375 . S
C280 C281 1.367 . S
C280 H294 0.951 . S
C281 C277 1.383 . S
C281 C280 1.367 . S
C281 H295 0.950 . S
C282 C279 1.481 . S
C282 C283 1.297 . S
C282 H296 0.950 . S
C283 C282 1.297 . S
C283 C284 1.479 . S
C283 H297 0.950 . S
C284 C283 1.479 . S
C284 C285 1.375 . S
C284 C290 1.404 . S
C285 C284 1.375 . S
C285 C286 1.369 . S
C285 H298 0.950 . S
C286 C285 1.369 . S
C286 C287 1.392 . S
C286 H299 0.951 . S
C287 C286 1.392 . S
C287 C289 1.384 . S
H288 C290 0.949 . S
C289 C287 1.384 . S
C289 C290 1.385 . S
C289 H291 0.950 . S
C290 C284 1.404 . S
C290 H288 0.949 . S
C290 C289 1.385 . S
H291 C289 0.950 . S
H292 C276 0.951 . S
H293 C278 0.951 . S
H294 C280 0.951 . S
H295 C281 0.950 . S
H296 C282 0.950 . S
H297 C283 0.950 . S
H298 C285 0.950 . S
H299 C286 0.951 . S
C300 C301 1.386 . S
C300 C302 1.383 . S
C300 H316 0.951 . S
C301 C300 1.386 . S
C301 C305 1.383 . S
C302 C300 1.383 . S
C302 C303 1.402 . S
C302 H317 0.951 . S
C303 C302 1.402 . S
C303 C304 1.375 . S
C303 C306 1.481 . S
C304 C303 1.375 . S
C304 C305 1.367 . S
C304 H318 0.951 . S
C305 C301 1.383 . S
C305 C304 1.367 . S
C305 H319 0.950 . S
C306 C303 1.481 . S
C306 C307 1.297 . S
C306 H320 0.950 . S
C307 C306 1.297 . S
C307 C308 1.479 . S
C307 H321 0.950 . S
C308 C307 1.479 . S
C308 C309 1.375 . S
C308 C314 1.404 . S
C309 C308 1.375 . S
C309 C310 1.369 . S
C309 H322 0.950 . S
C310 C309 1.369 . S
C310 C311 1.392 . S
C310 H323 0.951 . S
C311 C310 1.392 . S
C311 C313 1.384 . S
H312 C314 0.949 . S
C313 C311 1.384 . S
C313 C314 1.385 . S
C313 H315 0.950 . S
C314 C308 1.404 . S
C314 H312 0.949 . S
C314 C313 1.385 . S
H315 C313 0.950 . S
H316 C300 0.951 . S
H317 C302 0.951 . S
H318 C304 0.951 . S
H319 C305 0.950 . S
H320 C306 0.950 . S
H321 C307 0.950 . S
H322 C309 0.950 . S
H323 C310 0.951 . S
C324 C325 1.386 . S
C324 C326 1.383 . S
C324 H340 0.951 . S
C325 C324 1.386 . S
C325 C329 1.383 . S
C326 C324 1.383 . S
C326 C327 1.402 . S
C326 H341 0.951 . S
C327 C326 1.402 . S
C327 C328 1.375 . S
C327 C330 1.481 . S
C328 C327 1.375 . S
C328 C329 1.367 . S
C328 H342 0.951 . S
C329 C325 1.383 . S
C329 C328 1.367 . S
C329 H343 0.950 . S
C330 C327 1.481 . S
C330 C331 1.297 . S
C330 H344 0.950 . S
C331 C330 1.297 . S
C331 C332 1.479 . S
C331 H345 0.950 . S
C332 C331 1.479 . S
C332 C333 1.375 . S
C332 C338 1.404 . S
C333 C332 1.375 . S
C333 C334 1.369 . S
C333 H346 0.950 . S
C334 C333 1.369 . S
C334 C335 1.392 . S
C334 H347 0.951 . S
C335 C334 1.392 . S
C335 C337 1.384 . S
H336 C338 0.949 . S
C337 C335 1.384 . S
C337 C338 1.385 . S
C337 H339 0.950 . S
C338 C332 1.404 . S
C338 H336 0.949 . S
C338 C337 1.385 . S
H339 C337 0.950 . S
H340 C324 0.951 . S
H341 C326 0.951 . S
H342 C328 0.951 . S
H343 C329 0.950 . S
H344 C330 0.950 . S
H345 C331 0.950 . S
H346 C333 0.950 . S
H347 C334 0.951 . S
C348 C349 1.386 1_556 S
C348 C350 1.383 . S
C348 H364 0.951 . S
C349 C348 1.386 1_554 S
C349 C353 1.383 . S
C350 C348 1.383 . S
C350 C351 1.402 . S
C350 H365 0.951 . S
C351 C350 1.402 . S
C351 C352 1.375 1_556 S
C351 C354 1.481 . S
C352 C351 1.375 1_554 S
C352 C353 1.367 . S
C352 H366 0.951 . S
C353 C349 1.383 . S
C353 C352 1.367 . S
C353 H367 0.950 . S
C354 C351 1.481 . S
C354 C355 1.297 . S
C354 H368 0.950 . S
C355 C354 1.297 . S
C355 C356 1.479 . S
C355 H369 0.950 . S
C356 C355 1.479 . S
C356 C357 1.375 . S
C356 C362 1.404 . S
C357 C356 1.375 . S
C357 C358 1.369 . S
C357 H370 0.950 . S
C358 C357 1.369 . S
C358 C359 1.392 . S
C358 H371 0.951 . S
C359 C358 1.392 . S
C359 C361 1.384 . S
H360 C362 0.949 . S
C361 C359 1.384 . S
C361 C362 1.385 . S
C361 H363 0.950 . S
C362 C356 1.404 . S
C362 H360 0.949 . S
C362 C361 1.385 . S
H363 C361 0.950 . S
H364 C348 0.951 . S
H365 C350 0.951 . S
H366 C352 0.951 . S
H367 C353 0.950 . S
H368 C354 0.950 . S
H369 C355 0.950 . S
H370 C357 0.950 . S
H371 C358 0.951 . S
C372 C373 1.386 . S
C372 C374 1.383 . S
C372 H388 0.951 . S
C373 C372 1.386 . S
C373 C377 1.383 1_655 S
C374 C372 1.383 . S
C374 C375 1.402 1_655 S
C374 H389 0.951 . S
C375 C374 1.402 1_455 S
C375 C376 1.375 . S
C375 C378 1.481 . S
C376 C375 1.375 . S
C376 C377 1.367 . S
C376 H390 0.951 . S
C377 C373 1.383 1_455 S
C377 C376 1.367 . S
C377 H391 0.950 . S
C378 C375 1.481 . S
C378 C379 1.297 1_455 S
C378 H392 0.950 . S
C379 C378 1.297 1_655 S
C379 C380 1.479 . S
C379 H393 0.950 . S
C380 C379 1.479 . S
C380 C381 1.375 . S
C380 C386 1.404 1_655 S
C381 C380 1.375 . S
C381 C382 1.369 . S
C381 H394 0.950 . S
C382 C381 1.369 . S
C382 C383 1.392 1_655 S
C382 H395 0.951 . S
C383 C382 1.392 1_455 S
C383 C385 1.384 . S
H384 C386 0.949 . S
C385 C383 1.384 . S
C385 C386 1.385 . S
C385 H387 0.950 . S
C386 C380 1.404 1_455 S
C386 H384 0.949 . S
C386 C385 1.385 . S
H387 C385 0.950 . S
H388 C372 0.951 . S
H389 C374 0.951 . S
H390 C376 0.951 . S
H391 C377 0.950 . S
H392 C378 0.950 . S
H393 C379 0.950 . S
H394 C381 0.950 . S
H395 C382 0.951 . S
C396 C397 1.386 . S
C396 C398 1.383 . S
C396 H412 0.951 1_545 S
C397 C396 1.386 . S
C397 C401 1.383 . S
C398 C396 1.383 . S
C398 C399 1.402 . S
C398 H413 0.939 1_545 S
C399 C398 1.402 . S
C399 C400 1.375 . S
C399 C402 1.481 . S
C400 C399 1.375 . S
C400 C401 1.367 . S
C400 H414 0.951 . S
C401 C397 1.383 . S
C401 C400 1.367 . S
C401 H415 0.950 . S
C402 C399 1.481 . S
C402 C403 1.297 . S
C402 H416 0.950 . S
C403 C402 1.297 . S
C403 C404 1.479 . S
C403 H417 0.945 1_545 S
C404 C403 1.479 . S
C404 C405 1.375 . S
C404 C410 1.404 . S
C405 C404 1.375 . S
C405 C406 1.369 . S
C405 H418 0.950 . S
C406 C405 1.369 . S
C406 C407 1.392 . S
C406 H419 0.951 . S
C407 C406 1.392 . S
C407 C409 1.384 . S
H408 C410 0.949 . S
C409 C407 1.384 . S
C409 C410 1.385 . S
C409 H411 0.950 . S
C410 C404 1.404 . S
C410 H408 0.949 . S
C410 C409 1.385 . S
H411 C409 0.950 . S
H412 C396 0.951 1_565 S
H413 C398 0.939 1_565 S
H414 C400 0.951 . S
H415 C401 0.950 . S
H416 C402 0.950 . S
H417 C403 0.945 1_565 S
H418 C405 0.950 . S
H419 C406 0.951 . S
C420 C421 1.386 . S
C420 C422 1.383 . S
C420 H436 0.951 . S
C421 C420 1.386 . S
C421 C425 1.383 1_554 S
C422 C420 1.383 . S
C422 C423 1.402 1_554 S
C422 H437 0.951 . S
C423 C422 1.402 1_556 S
C423 C424 1.375 . S
C423 C426 1.481 . S
C424 C423 1.375 . S
C424 C425 1.367 . S
C424 H438 0.951 . S
C425 C421 1.383 1_556 S
C425 C424 1.367 . S
C425 H439 0.950 . S
C426 C423 1.481 . S
C426 C427 1.297 . S
C426 H440 0.950 . S
C427 C426 1.297 . S
C427 C428 1.479 . S
C427 H441 0.950 . S
C428 C427 1.479 . S
C428 C429 1.375 . S
C428 C434 1.404 . S
C429 C428 1.375 . S
C429 C430 1.369 . S
C429 H442 0.950 . S
C430 C429 1.369 . S
C430 C431 1.392 . S
C430 H443 0.951 . S
C431 C430 1.392 . S
C431 C433 1.384 . S
H432 C434 0.949 . S
C433 C431 1.384 . S
C433 C434 1.385 . S
C433 H435 0.950 . S
C434 C428 1.404 . S
C434 H432 0.949 . S
C434 C433 1.385 . S
H435 C433 0.950 . S
H436 C420 0.951 . S
H437 C422 0.951 . S
H438 C424 0.951 . S
H439 C425 0.950 . S
H440 C426 0.950 . S
H441 C427 0.950 . S
H442 C429 0.950 . S
H443 C430 0.951 . S
C444 C445 1.386 . S
C444 C446 1.383 . S
C444 H460 0.951 1_455 S
C445 C444 1.386 . S
C445 C449 1.383 . S
C446 C444 1.383 . S
C446 C447 1.402 . S
C446 H461 0.951 1_455 S
C447 C446 1.402 . S
C447 C448 1.375 . S
C447 C450 1.481 . S
C448 C447 1.375 . S
C448 C449 1.367 . S
C448 H462 0.951 . S
C449 C445 1.383 . S
C449 C448 1.367 . S
C449 H463 0.950 . S
C450 C447 1.481 . S
C450 C451 1.297 . S
C450 H464 0.950 . S
C451 C450 1.297 . S
C451 C452 1.479 . S
C451 H465 0.950 . S
C452 C451 1.479 . S
C452 C453 1.375 1_455 S
C452 C458 1.404 . S
C453 C452 1.375 1_655 S
C453 C454 1.369 . S
C453 H466 0.950 . S
C454 C453 1.369 . S
C454 C455 1.392 1_655 S
C454 H467 0.951 . S
C455 C454 1.392 1_455 S
C455 C457 1.384 . S
H456 C458 0.949 . S
C457 C455 1.384 . S
C457 C458 1.385 . S
C457 H459 0.950 . S
C458 C452 1.404 . S
C458 H456 0.949 . S
C458 C457 1.385 . S
H459 C457 0.950 . S
H460 C444 0.951 1_655 S
H461 C446 0.951 1_655 S
H462 C448 0.951 . S
H463 C449 0.950 . S
H464 C450 0.950 . S
H465 C451 0.950 . S
H466 C453 0.950 . S
H467 C454 0.951 . S
C191 C50 1.355 . S
C181 C11 1.330 . S
C205 C26 1.505 . S
C215 C89 1.501 . S
C229 C40 1.396 . S
C239 C156 1.386 . S
C253 C5 1.194 . S
C263 C57 1.345 . S
C287 C110 1.512 . S
C277 C18 1.485 . S
C301 C32 1.364 . S
C311 C135 1.379 . S
C335 C96 1.238 . S
C325 C39 1.204 . S
C349 C4 1.395 1_565 S
C359 C149 1.384 . S
C383 C64 1.353 . S
C373 C19 1.199 . S
C407 C103 1.259 . S
C397 C33 1.078 1_545 S
C431 C142 1.384 . S
C421 C12 1.404 . S
C445 C25 1.354 . S
C455 C43 1.362 . S
