# Generated by pormake.
# Topology eea, (3,6)-cn, num edge types: 1
# Building blocks:
#     Node 0, Type 0, BuildingBlock: BELTOD_clean_linker_0, # of connection points: 3
#     Node 1, Type 0, BuildingBlock: BELTOD_clean_linker_0, # of connection points: 3
#     Node 2, Type 0, BuildingBlock: BELTOD_clean_linker_0, # of connection points: 3
#     Node 3, Type 0, BuildingBlock: BELTOD_clean_linker_0, # of connection points: 3
#     Node 4, Type 0, BuildingBlock: BELTOD_clean_linker_0, # of connection points: 3
#     Node 5, Type 0, BuildingBlock: BELTOD_clean_linker_0, # of connection points: 3
#     Node 6, Type 0, BuildingBlock: BELTOD_clean_linker_0, # of connection points: 3
#     Node 7, Type 0, BuildingBlock: BELTOD_clean_linker_0, # of connection points: 3
#     Node 8, Type 0, BuildingBlock: BELTOD_clean_linker_0, # of connection points: 3
#     Node 9, Type 0, BuildingBlock: BELTOD_clean_linker_0, # of connection points: 3
#     Node 10, Type 0, BuildingBlock: BELTOD_clean_linker_0, # of connection points: 3
#     Node 11, Type 0, BuildingBlock: BELTOD_clean_linker_0, # of connection points: 3
#     Node 12, Type 0, BuildingBlock: BELTOD_clean_linker_0, # of connection points: 3
#     Node 13, Type 0, BuildingBlock: BELTOD_clean_linker_0, # of connection points: 3
#     Node 14, Type 0, BuildingBlock: BELTOD_clean_linker_0, # of connection points: 3
#     Node 15, Type 0, BuildingBlock: BELTOD_clean_linker_0, # of connection points: 3
#     Node 16, Type 0, BuildingBlock: BELTOD_clean_linker_0, # of connection points: 3
#     Node 17, Type 0, BuildingBlock: BELTOD_clean_linker_0, # of connection points: 3
#     Node 18, Type 1, BuildingBlock: KUMBUR_clean_sbu_0, # of connection points: 6
#     Node 19, Type 1, BuildingBlock: KUMBUR_clean_sbu_0, # of connection points: 6
#     Node 20, Type 1, BuildingBlock: KUMBUR_clean_sbu_0, # of connection points: 6
#     Node 21, Type 1, BuildingBlock: KUMBUR_clean_sbu_0, # of connection points: 6
#     Node 22, Type 1, BuildingBlock: KUMBUR_clean_sbu_0, # of connection points: 6
#     Node 23, Type 1, BuildingBlock: KUMBUR_clean_sbu_0, # of connection points: 6
#     Node 24, Type 1, BuildingBlock: KUMBUR_clean_sbu_0, # of connection points: 6
#     Node 25, Type 1, BuildingBlock: KUMBUR_clean_sbu_0, # of connection points: 6
#     Node 26, Type 1, BuildingBlock: KUMBUR_clean_sbu_0, # of connection points: 6
#     Edge 27, Type (0, 1), BuildingBlock: MIFKUJ_clean_linker_0, # of connection points: 2
#     Edge 28, Type (0, 1), BuildingBlock: MIFKUJ_clean_linker_0, # of connection points: 2
#     Edge 29, Type (0, 1), BuildingBlock: MIFKUJ_clean_linker_0, # of connection points: 2
#     Edge 30, Type (0, 1), BuildingBlock: MIFKUJ_clean_linker_0, # of connection points: 2
#     Edge 31, Type (0, 1), BuildingBlock: MIFKUJ_clean_linker_0, # of connection points: 2
#     Edge 32, Type (0, 1), BuildingBlock: MIFKUJ_clean_linker_0, # of connection points: 2
#     Edge 33, Type (0, 1), BuildingBlock: MIFKUJ_clean_linker_0, # of connection points: 2
#     Edge 34, Type (0, 1), BuildingBlock: MIFKUJ_clean_linker_0, # of connection points: 2
#     Edge 35, Type (0, 1), BuildingBlock: MIFKUJ_clean_linker_0, # of connection points: 2
#     Edge 36, Type (0, 1), BuildingBlock: MIFKUJ_clean_linker_0, # of connection points: 2
#     Edge 37, Type (0, 1), BuildingBlock: MIFKUJ_clean_linker_0, # of connection points: 2
#     Edge 38, Type (0, 1), BuildingBlock: MIFKUJ_clean_linker_0, # of connection points: 2
#     Edge 39, Type (0, 1), BuildingBlock: MIFKUJ_clean_linker_0, # of connection points: 2
#     Edge 40, Type (0, 1), BuildingBlock: MIFKUJ_clean_linker_0, # of connection points: 2
#     Edge 41, Type (0, 1), BuildingBlock: MIFKUJ_clean_linker_0, # of connection points: 2
#     Edge 42, Type (0, 1), BuildingBlock: MIFKUJ_clean_linker_0, # of connection points: 2
#     Edge 43, Type (0, 1), BuildingBlock: MIFKUJ_clean_linker_0, # of connection points: 2
#     Edge 44, Type (0, 1), BuildingBlock: MIFKUJ_clean_linker_0, # of connection points: 2
#     Edge 45, Type (0, 1), BuildingBlock: MIFKUJ_clean_linker_0, # of connection points: 2
#     Edge 46, Type (0, 1), BuildingBlock: MIFKUJ_clean_linker_0, # of connection points: 2
#     Edge 47, Type (0, 1), BuildingBlock: MIFKUJ_clean_linker_0, # of connection points: 2
#     Edge 48, Type (0, 1), BuildingBlock: MIFKUJ_clean_linker_0, # of connection points: 2
#     Edge 49, Type (0, 1), BuildingBlock: MIFKUJ_clean_linker_0, # of connection points: 2
#     Edge 50, Type (0, 1), BuildingBlock: MIFKUJ_clean_linker_0, # of connection points: 2
#     Edge 51, Type (0, 1), BuildingBlock: MIFKUJ_clean_linker_0, # of connection points: 2
#     Edge 52, Type (0, 1), BuildingBlock: MIFKUJ_clean_linker_0, # of connection points: 2
#     Edge 53, Type (0, 1), BuildingBlock: MIFKUJ_clean_linker_0, # of connection points: 2
#     Edge 54, Type (0, 1), BuildingBlock: MIFKUJ_clean_linker_0, # of connection points: 2
#     Edge 55, Type (0, 1), BuildingBlock: MIFKUJ_clean_linker_0, # of connection points: 2
#     Edge 56, Type (0, 1), BuildingBlock: MIFKUJ_clean_linker_0, # of connection points: 2
#     Edge 57, Type (0, 1), BuildingBlock: MIFKUJ_clean_linker_0, # of connection points: 2
#     Edge 58, Type (0, 1), BuildingBlock: MIFKUJ_clean_linker_0, # of connection points: 2
#     Edge 59, Type (0, 1), BuildingBlock: MIFKUJ_clean_linker_0, # of connection points: 2
#     Edge 60, Type (0, 1), BuildingBlock: MIFKUJ_clean_linker_0, # of connection points: 2
#     Edge 61, Type (0, 1), BuildingBlock: MIFKUJ_clean_linker_0, # of connection points: 2
#     Edge 62, Type (0, 1), BuildingBlock: MIFKUJ_clean_linker_0, # of connection points: 2
#     Edge 63, Type (0, 1), BuildingBlock: MIFKUJ_clean_linker_0, # of connection points: 2
#     Edge 64, Type (0, 1), BuildingBlock: MIFKUJ_clean_linker_0, # of connection points: 2
#     Edge 65, Type (0, 1), BuildingBlock: MIFKUJ_clean_linker_0, # of connection points: 2
#     Edge 66, Type (0, 1), BuildingBlock: MIFKUJ_clean_linker_0, # of connection points: 2
#     Edge 67, Type (0, 1), BuildingBlock: MIFKUJ_clean_linker_0, # of connection points: 2
#     Edge 68, Type (0, 1), BuildingBlock: MIFKUJ_clean_linker_0, # of connection points: 2
#     Edge 69, Type (0, 1), BuildingBlock: MIFKUJ_clean_linker_0, # of connection points: 2
#     Edge 70, Type (0, 1), BuildingBlock: MIFKUJ_clean_linker_0, # of connection points: 2
#     Edge 71, Type (0, 1), BuildingBlock: MIFKUJ_clean_linker_0, # of connection points: 2
#     Edge 72, Type (0, 1), BuildingBlock: MIFKUJ_clean_linker_0, # of connection points: 2
#     Edge 73, Type (0, 1), BuildingBlock: MIFKUJ_clean_linker_0, # of connection points: 2
#     Edge 74, Type (0, 1), BuildingBlock: MIFKUJ_clean_linker_0, # of connection points: 2
#     Edge 75, Type (0, 1), BuildingBlock: MIFKUJ_clean_linker_0, # of connection points: 2
#     Edge 76, Type (0, 1), BuildingBlock: MIFKUJ_clean_linker_0, # of connection points: 2
#     Edge 77, Type (0, 1), BuildingBlock: MIFKUJ_clean_linker_0, # of connection points: 2
#     Edge 78, Type (0, 1), BuildingBlock: MIFKUJ_clean_linker_0, # of connection points: 2
#     Edge 79, Type (0, 1), BuildingBlock: MIFKUJ_clean_linker_0, # of connection points: 2
#     Edge 80, Type (0, 1), BuildingBlock: MIFKUJ_clean_linker_0, # of connection points: 2
# Relax obj value: 0.009
# Max RMSD: 0.092
# Mean RMSD: 0.060
data_MOF--net-eea--node1-KUMBUR_clean_sbu_0--node2-BELTOD_clean_linker_0--edge1-MIFKUJ_clean_linker_0
_symmetry_space_group_name_H-M    P1
_symmetry_Int_Tables_number       1
_symmetry_cell_setting            triclinic
loop_
_symmetry_equiv_pos_as_xyz
'x, y, z'
_cell_length_a     74.583269
_cell_length_b     75.551905
_cell_length_c     100.4473
_cell_angle_alpha  90.755327
_cell_angle_beta   90.312634
_cell_angle_gamma 120.08258
loop_
_atom_site_label
_atom_site_type_symbol
_atom_site_fract_x
_atom_site_fract_y
_atom_site_fract_z
_atom_type_partial_charge
P0 P 0.27646 0.1433 0.41654 0.0
H1 H 0.28893 0.12594 0.39479 0.0
H2 H 0.27336 0.0916 0.3849 0.0
H3 H 0.22261 0.07061 0.41237 0.0
H4 H 0.23831 0.10515 0.42221 0.0
H5 H 0.288 0.17533 0.39699 0.0
H6 H 0.27015 0.19223 0.38796 0.0
H7 H 0.21711 0.15474 0.41223 0.0
H8 H 0.23519 0.13781 0.42128 0.0
H9 H 0.28684 0.12045 0.43494 0.0
H10 H 0.26693 0.16499 0.43753 0.0
O11 O 0.30129 0.15649 0.41216 0.0
H12 H 0.2904 0.12133 0.45909 0.0
H13 H 0.26911 0.16502 0.46173 0.0
C14 C 0.26492 0.11796 0.40936 0.0
C15 C 0.27452 0.11394 0.39874 0.0
C16 C 0.26562 0.09429 0.3931 0.0
C17 C 0.24683 0.07837 0.39791 0.0
C18 C 0.23703 0.08259 0.4084 0.0
C19 C 0.24602 0.10226 0.41408 0.0
C20 C 0.26306 0.15561 0.40999 0.0
C21 C 0.27256 0.17075 0.40041 0.0
C22 C 0.26227 0.18029 0.39517 0.0
C23 C 0.24224 0.17481 0.3994 0.0
C24 C 0.23262 0.15941 0.40889 0.0
C25 C 0.2429 0.14972 0.41404 0.0
C26 C 0.27615 0.14225 0.43444 0.0
C27 C 0.28268 0.13 0.44075 0.0
C28 C 0.28459 0.13046 0.45461 0.0
C29 C 0.27992 0.14316 0.46247 0.0
C30 C 0.27308 0.15521 0.45605 0.0
C31 C 0.27149 0.15497 0.44216 0.0
P32 P 0.91726 0.09774 0.43866 0.0
H33 H 0.91037 0.0584 0.42837 0.0
H34 H 0.88147 0.03016 0.41626 0.0
H35 H 0.85023 0.06518 0.41436 0.0
H36 H 0.87924 0.09343 0.42663 0.0
H37 H 0.96195 0.12402 0.44142 0.0
H38 H 0.98793 0.15164 0.4281 0.0
H39 H 0.93985 0.14525 0.40091 0.0
H40 H 0.91383 0.11772 0.41445 0.0
H41 H 0.88232 0.07537 0.45608 0.0
H42 H 0.92874 0.13839 0.45005 0.0
O43 O 0.92959 0.08744 0.44644 0.0
H44 H 0.86927 0.08558 0.47519 0.0
H45 H 0.91596 0.14871 0.46934 0.0
C46 C 0.89684 0.07793 0.42852 0.0
C47 C 0.89737 0.06008 0.42532 0.0
C48 C 0.8808 0.0439 0.41844 0.0
C49 C 0.8635 0.04538 0.41447 0.0
C50 C 0.86339 0.06363 0.41725 0.0
C51 C 0.87991 0.07975 0.42426 0.0
C52 C 0.936 0.11849 0.42878 0.0
C53 C 0.95697 0.12848 0.43256 0.0
C54 C 0.97185 0.14425 0.42489 0.0
C55 C 0.96604 0.1505 0.41332 0.0
C56 C 0.94487 0.14084 0.40977 0.0
C57 C 0.92997 0.12499 0.41746 0.0
C58 C 0.90628 0.10612 0.45151 0.0
C59 C 0.88952 0.09146 0.45876 0.0
C60 C 0.8822 0.0973 0.46977 0.0
C61 C 0.89164 0.11796 0.47385 0.0
C62 C 0.9082 0.13271 0.46638 0.0
C63 C 0.91554 0.12681 0.45535 0.0
P64 P 0.87903 0.76274 0.42025 0.0
H65 H 0.86514 0.76282 0.39323 0.0
H66 H 0.84265 0.77428 0.38355 0.0
H67 H 0.84027 0.80011 0.42166 0.0
H68 H 0.86294 0.78858 0.43131 0.0
H69 H 0.91047 0.75204 0.426 0.0
H70 H 0.94557 0.76469 0.4181 0.0
H71 H 0.94259 0.8129 0.39727 0.0
H72 H 0.90708 0.79964 0.40496 0.0
H73 H 0.84385 0.73361 0.43549 0.0
H74 H 0.90493 0.78447 0.44396 0.0
O75 O 0.86825 0.73926 0.4135 0.0
H76 H 0.83845 0.72642 0.45916 0.0
H77 H 0.8995 0.77774 0.46784 0.0
C78 C 0.86547 0.77457 0.41302 0.0
C79 C 0.85999 0.77116 0.39948 0.0
C80 C 0.84703 0.77762 0.39398 0.0
C81 C 0.83938 0.78781 0.40189 0.0
C82 C 0.84588 0.79229 0.41531 0.0
C83 C 0.8588 0.78566 0.42084 0.0
C84 C 0.90616 0.7749 0.41612 0.0
C85 C 0.9175 0.76554 0.41991 0.0
C86 C 0.93767 0.77289 0.4154 0.0
C87 C 0.94706 0.78986 0.40699 0.0
C88 C 0.93582 0.79963 0.40356 0.0
C89 C 0.91553 0.79217 0.40806 0.0
C90 C 0.8749 0.75933 0.43795 0.0
C91 C 0.85605 0.74338 0.4425 0.0
C92 C 0.85292 0.73939 0.45609 0.0
C93 C 0.86856 0.75143 0.46549 0.0
C94 C 0.88724 0.76792 0.4609 0.0
C95 C 0.89035 0.77187 0.44724 0.0
P96 P 0.12366 0.24812 0.59301 0.0
H97 H 0.1084 0.26131 0.6155 0.0
H98 H 0.07447 0.24794 0.62535 0.0
H99 H 0.05001 0.19553 0.59849 0.0
H100 H 0.08415 0.20972 0.58822 0.0
H101 H 0.16587 0.26779 0.60377 0.0
H102 H 0.1878 0.25486 0.61184 0.0
H103 H 0.13873 0.19296 0.60347 0.0
H104 H 0.11648 0.20617 0.59562 0.0
H105 H 0.09687 0.25422 0.57477 0.0
H106 H 0.14608 0.24019 0.57181 0.0
O107 O 0.13589 0.27309 0.59679 0.0
H108 H 0.0975 0.25855 0.55065 0.0
H109 H 0.14686 0.24458 0.5477 0.0
C110 C 0.09875 0.23667 0.60098 0.0
C111 C 0.09577 0.24692 0.61171 0.0
C112 C 0.07628 0.23909 0.61746 0.0
C113 C 0.0593 0.22059 0.61276 0.0
C114 C 0.06257 0.20998 0.60225 0.0
C115 C 0.08212 0.21797 0.59642 0.0
C116 C 0.13941 0.23795 0.59921 0.0
C117 C 0.15968 0.25142 0.60372 0.0
C118 C 0.17235 0.24398 0.60824 0.0
C119 C 0.16514 0.22284 0.60825 0.0
C120 C 0.14473 0.20931 0.60373 0.0
C121 C 0.13201 0.21683 0.5992 0.0
C122 C 0.12115 0.24651 0.57509 0.0
C123 C 0.10745 0.25155 0.56889 0.0
C124 C 0.10798 0.25424 0.55512 0.0
C125 C 0.12231 0.25202 0.54725 0.0
C126 C 0.13548 0.24618 0.55344 0.0
C127 C 0.13502 0.24363 0.56725 0.0
P128 P 0.82491 0.91421 0.56984 0.0
H129 H 0.83365 0.92754 0.5977 0.0
H130 H 0.82823 0.95169 0.611 0.0
H131 H 0.79998 0.96281 0.57683 0.0
H132 H 0.80479 0.93811 0.56376 0.0
H133 H 0.84765 0.89215 0.56912 0.0
H134 H 0.84508 0.86371 0.58191 0.0
H135 H 0.79362 0.86051 0.60354 0.0
H136 H 0.7965 0.8892 0.59079 0.0
H137 H 0.83123 0.92527 0.54179 0.0
H138 H 0.78128 0.88269 0.56632 0.0
O139 O 0.84938 0.92818 0.5649 0.0
H140 H 0.80824 0.91304 0.52228 0.0
H141 H 0.75805 0.87051 0.54685 0.0
C142 C 0.81915 0.93062 0.57985 0.0
C143 C 0.8259 0.93486 0.59316 0.0
C144 C 0.82299 0.94886 0.60071 0.0
C145 C 0.81364 0.95921 0.59499 0.0
C146 C 0.80686 0.95484 0.58163 0.0
C147 C 0.80967 0.94074 0.57412 0.0
C148 C 0.82258 0.89305 0.57923 0.0
C149 C 0.83588 0.88539 0.57666 0.0
C150 C 0.83429 0.86903 0.58391 0.0
C151 C 0.81922 0.85993 0.5938 0.0
C152 C 0.80562 0.86742 0.59616 0.0
C153 C 0.80721 0.88377 0.58886 0.0
C154 C 0.80805 0.90462 0.55545 0.0
C155 C 0.81534 0.91319 0.54297 0.0
C156 C 0.80212 0.9063 0.53184 0.0
C157 C 0.78133 0.89077 0.53301 0.0
C158 C 0.77407 0.88227 0.54558 0.0
C159 C 0.78731 0.88924 0.55672 0.0
P160 P 0.11947 0.86541 0.59285 0.0
H161 H 0.15889 0.88652 0.60735 0.0
H162 H 0.18106 0.92189 0.61467 0.0
H163 H 0.13857 0.93806 0.5967 0.0
H164 H 0.11616 0.90225 0.58945 0.0
H165 H 0.08171 0.82903 0.58379 0.0
H166 H 0.04675 0.81105 0.59266 0.0
H167 H 0.06357 0.86063 0.62104 0.0
H168 H 0.09872 0.878 0.6125 0.0
H169 H 0.14709 0.85608 0.57795 0.0
H170 H 0.09953 0.87087 0.56912 0.0
O171 O 0.12751 0.85128 0.60075 0.0
H172 H 0.15196 0.85306 0.55424 0.0
H173 H 0.10411 0.86758 0.54517 0.0
C174 C 0.1357 0.89171 0.59806 0.0
C175 C 0.15425 0.8976 0.60499 0.0
C176 C 0.16704 0.91792 0.60908 0.0
C177 C 0.1616 0.93281 0.60626 0.0
C178 C 0.14307 0.9269 0.59915 0.0
C179 C 0.1303 0.9065 0.59498 0.0
C180 C 0.09273 0.85507 0.59727 0.0
C181 C 0.0777 0.83628 0.59169 0.0
C182 C 0.05765 0.82601 0.59678 0.0
C183 C 0.05226 0.83432 0.60763 0.0
C184 C 0.0672 0.85362 0.61281 0.0
C185 C 0.0873 0.86376 0.60779 0.0
C186 C 0.1226 0.86319 0.57527 0.0
C187 C 0.13751 0.85845 0.57089 0.0
C188 C 0.14022 0.85666 0.55731 0.0
C189 C 0.12818 0.85974 0.54781 0.0
C190 C 0.1136 0.86507 0.55224 0.0
C191 C 0.11088 0.86684 0.5659 0.0
P192 P 0.93792 0.47413 0.74754 0.0
H193 H 0.94385 0.45485 0.72397 0.0
H194 H 0.92747 0.41945 0.71603 0.0
H195 H 0.88625 0.40068 0.7496 0.0
H196 H 0.9033 0.43611 0.75772 0.0
H197 H 0.95238 0.51589 0.73931 0.0
H198 H 0.93453 0.53359 0.73177 0.0
H199 H 0.87554 0.47851 0.73721 0.0
H200 H 0.89365 0.4607 0.74429 0.0
H201 H 0.97049 0.4772 0.76514 0.0
H202 H 0.91064 0.47229 0.76921 0.0
O203 O 0.96168 0.48626 0.74117 0.0
H204 H 0.97442 0.47834 0.78929 0.0
H205 H 0.91408 0.47268 0.79344 0.0
C206 C 0.92506 0.44804 0.74156 0.0
C207 C 0.93134 0.4431 0.72964 0.0
C208 C 0.92178 0.42284 0.72504 0.0
C209 C 0.90554 0.40715 0.73218 0.0
C210 C 0.89894 0.4123 0.74397 0.0
C211 C 0.90863 0.43258 0.74861 0.0
C212 C 0.92436 0.4869 0.74213 0.0
C213 C 0.93561 0.50758 0.73879 0.0
C214 C 0.92534 0.51774 0.73461 0.0
C215 C 0.90356 0.50749 0.73388 0.0
C216 C 0.89232 0.48678 0.73744 0.0
C217 C 0.90265 0.47659 0.74154 0.0
C218 C 0.94048 0.47507 0.76539 0.0
C219 C 0.95818 0.47638 0.77125 0.0
C220 C 0.96029 0.47679 0.78508 0.0
C221 C 0.94455 0.47558 0.79335 0.0
C222 C 0.92665 0.47397 0.78739 0.0
C223 C 0.92463 0.47369 0.77353 0.0
P224 P 0.58242 0.43306 0.7693 0.0
H225 H 0.57154 0.39129 0.7617 0.0
H226 H 0.54242 0.36406 0.74929 0.0
H227 H 0.51715 0.4039 0.74333 0.0
H228 H 0.54634 0.43108 0.75611 0.0
H229 H 0.61313 0.47572 0.7757 0.0
H230 H 0.63827 0.50381 0.76215 0.0
H231 H 0.6144 0.46518 0.72695 0.0
H232 H 0.58913 0.43723 0.7405 0.0
H233 H 0.56689 0.41266 0.79432 0.0
H234 H 0.57408 0.46669 0.77545 0.0
O235 O 0.59728 0.42397 0.77492 0.0
H236 H 0.55318 0.42054 0.81405 0.0
H237 H 0.56153 0.47548 0.79549 0.0
C238 C 0.56106 0.41319 0.75984 0.0
C239 C 0.55978 0.39422 0.75773 0.0
C240 C 0.54314 0.37867 0.75053 0.0
C241 C 0.52745 0.38179 0.74524 0.0
C242 C 0.52884 0.4009 0.74737 0.0
C243 C 0.54554 0.41648 0.75461 0.0
C244 C 0.59874 0.45458 0.75908 0.0
C245 C 0.61288 0.47347 0.76502 0.0
C246 C 0.62731 0.48949 0.75727 0.0
C247 C 0.62824 0.48671 0.74348 0.0
C248 C 0.61406 0.46775 0.73755 0.0
C249 C 0.59947 0.45183 0.74529 0.0
C250 C 0.57215 0.43943 0.78361 0.0
C251 C 0.5658 0.42642 0.79452 0.0
C252 C 0.55808 0.43105 0.80585 0.0
C253 C 0.55661 0.44891 0.80656 0.0
C254 C 0.56238 0.46159 0.79536 0.0
C255 C 0.56985 0.45674 0.78392 0.0
P256 P 0.54784 0.09509 0.75464 0.0
H257 H 0.54025 0.10519 0.72804 0.0
H258 H 0.51698 0.11663 0.7195 0.0
H259 H 0.49939 0.12132 0.75969 0.0
H260 H 0.523 0.11039 0.76821 0.0
H261 H 0.58046 0.08574 0.75976 0.0
H262 H 0.61541 0.0993 0.75112 0.0
H263 H 0.6097 0.14622 0.7307 0.0
H264 H 0.57478 0.13266 0.73946 0.0
H265 H 0.51418 0.06344 0.76973 0.0
H266 H 0.57365 0.11663 0.77838 0.0
O267 O 0.53714 0.07226 0.74697 0.0
H268 H 0.50899 0.05604 0.79341 0.0
H269 H 0.56849 0.10945 0.80225 0.0
C270 C 0.53359 0.10711 0.74877 0.0
C271 C 0.53182 0.10922 0.73504 0.0
C272 C 0.51848 0.11572 0.73017 0.0
C273 C 0.50631 0.1198 0.73893 0.0
C274 C 0.50849 0.11815 0.7527 0.0
C275 C 0.52208 0.11197 0.75758 0.0
C276 C 0.57491 0.10806 0.75023 0.0
C277 C 0.58689 0.09921 0.75365 0.0
C278 C 0.60692 0.10702 0.74872 0.0
C279 C 0.61533 0.12377 0.74013 0.0
C280 C 0.60357 0.13313 0.73714 0.0
C281 C 0.58356 0.12539 0.74218 0.0
C282 C 0.54445 0.09034 0.77228 0.0
C283 C 0.52615 0.07353 0.77675 0.0
C284 C 0.52313 0.06942 0.79033 0.0
C285 C 0.53834 0.08213 0.79977 0.0
C286 C 0.55659 0.0992 0.79525 0.0
C287 C 0.55955 0.10335 0.78161 0.0
P288 P 0.78716 0.57858 0.92531 0.0
H289 H 0.76805 0.55736 0.94988 0.0
H290 H 0.73285 0.5433 0.9584 0.0
H291 H 0.71241 0.55271 0.92023 0.0
H292 H 0.74735 0.56643 0.91173 0.0
H293 H 0.8298 0.59939 0.93499 0.0
H294 H 0.8526 0.58759 0.94327 0.0
H295 H 0.80464 0.52495 0.93552 0.0
H296 H 0.7815 0.53707 0.92764 0.0
H297 H 0.77884 0.60523 0.9091 0.0
H298 H 0.80117 0.56313 0.90269 0.0
O299 O 0.79537 0.60106 0.93308 0.0
H300 H 0.78314 0.61362 0.8856 0.0
H301 H 0.80649 0.57215 0.87915 0.0
C302 C 0.76043 0.56283 0.93012 0.0
C303 C 0.75584 0.55574 0.9432 0.0
C304 C 0.73572 0.54776 0.94808 0.0
C305 C 0.71989 0.54709 0.94002 0.0
C306 C 0.72432 0.55325 0.92673 0.0
C307 C 0.74436 0.56102 0.92183 0.0
C308 C 0.80381 0.5691 0.93095 0.0
C309 C 0.82411 0.58309 0.93512 0.0
C310 C 0.83727 0.57629 0.93973 0.0
C311 C 0.83058 0.55526 0.94008 0.0
C312 C 0.81027 0.54123 0.9356 0.0
C313 C 0.79702 0.54812 0.93103 0.0
C314 C 0.78985 0.5837 0.9077 0.0
C315 C 0.78481 0.59787 0.90262 0.0
C316 C 0.78745 0.60278 0.88915 0.0
C317 C 0.79549 0.59383 0.88042 0.0
C318 C 0.80015 0.57927 0.88551 0.0
C319 C 0.79725 0.57418 0.89902 0.0
P320 P 0.48363 0.24053 0.90326 0.0
H321 H 0.51366 0.27449 0.91993 0.0
H322 H 0.51119 0.30003 0.93374 0.0
H323 H 0.44536 0.26982 0.92547 0.0
H324 H 0.44801 0.24433 0.9116 0.0
H325 H 0.51242 0.22567 0.90813 0.0
H326 H 0.50963 0.19688 0.92039 0.0
H327 H 0.44647 0.17879 0.93039 0.0
H328 H 0.44973 0.20832 0.9184 0.0
H329 H 0.47373 0.26449 0.88558 0.0
H330 H 0.45353 0.20063 0.89081 0.0
O331 O 0.50713 0.253 0.89655 0.0
H332 H 0.45011 0.25562 0.8665 0.0
H333 H 0.42986 0.19167 0.87172 0.0
C334 C 0.48113 0.25787 0.9145 0.0
C335 C 0.49868 0.2733 0.92115 0.0
C336 C 0.49721 0.28781 0.92911 0.0
C337 C 0.4781 0.28707 0.93058 0.0
C338 C 0.46035 0.27101 0.92433 0.0
C339 C 0.46184 0.25642 0.91644 0.0
C340 C 0.48123 0.21904 0.91229 0.0
C341 C 0.49795 0.21554 0.91294 0.0
C342 C 0.49626 0.19891 0.91989 0.0
C343 C 0.47774 0.18532 0.92628 0.0
C344 C 0.46101 0.189 0.92568 0.0
C345 C 0.4628 0.20579 0.91878 0.0
C346 C 0.46515 0.23323 0.88975 0.0
C347 C 0.46407 0.24854 0.88269 0.0
C348 C 0.45067 0.24347 0.87174 0.0
C349 C 0.43813 0.22294 0.86762 0.0
C350 C 0.43914 0.20759 0.87478 0.0
C351 C 0.45269 0.21271 0.8857 0.0
P352 P 0.78904 0.20064 0.92728 0.0
H353 H 0.80193 0.21987 0.95358 0.0
H354 H 0.82272 0.25561 0.96109 0.0
H355 H 0.82512 0.27526 0.92065 0.0
H356 H 0.80396 0.23958 0.91322 0.0
H357 H 0.75721 0.15855 0.9217 0.0
H358 H 0.72244 0.13682 0.93015 0.0
H359 H 0.72802 0.18789 0.9535 0.0
H360 H 0.76231 0.20978 0.94435 0.0
H361 H 0.82579 0.21258 0.91175 0.0
H362 H 0.76037 0.18627 0.90388 0.0
O363 O 0.80143 0.19019 0.93478 0.0
H364 H 0.83175 0.21066 0.88811 0.0
H365 H 0.76591 0.18292 0.88027 0.0
C366 C 0.80159 0.22703 0.93284 0.0
C367 C 0.80665 0.23189 0.94636 0.0
C368 C 0.81848 0.25229 0.95065 0.0
C369 C 0.82569 0.26818 0.94143 0.0
C370 C 0.81998 0.26329 0.92794 0.0
C371 C 0.80785 0.24288 0.9237 0.0
C372 C 0.76231 0.18586 0.93222 0.0
C373 C 0.75074 0.16518 0.9284 0.0
C374 C 0.73093 0.15268 0.93341 0.0
C375 C 0.72238 0.16045 0.94268 0.0
C376 C 0.7339 0.18136 0.94629 0.0
C377 C 0.75366 0.19393 0.94109 0.0
C378 C 0.79261 0.19916 0.90963 0.0
C379 C 0.81265 0.20612 0.90492 0.0
C380 C 0.81599 0.20484 0.89136 0.0
C381 C 0.79929 0.19626 0.88219 0.0
C382 C 0.77921 0.18971 0.88696 0.0
C383 C 0.77594 0.19135 0.90054 0.0
P384 P 0.6052 0.80453 0.0821 0.0
H385 H 0.62089 0.78486 0.06405 0.0
H386 H 0.60541 0.75032 0.05456 0.0
H387 H 0.54804 0.73394 0.07443 0.0
H388 H 0.56368 0.76871 0.08388 0.0
H389 H 0.61644 0.83429 0.06107 0.0
H390 H 0.59978 0.85221 0.05187 0.0
H391 H 0.54887 0.82064 0.07892 0.0
H392 H 0.56599 0.80303 0.0883 0.0
H393 H 0.60734 0.77602 0.10041 0.0
H394 H 0.60265 0.83058 0.10311 0.0
O395 O 0.63021 0.8175 0.07812 0.0
H396 H 0.61044 0.77605 0.12463 0.0
H397 H 0.6057 0.83065 0.12738 0.0
C398 C 0.59343 0.77931 0.07469 0.0
C399 C 0.60497 0.77389 0.06635 0.0
C400 C 0.59613 0.7541 0.06098 0.0
C401 C 0.57554 0.73937 0.06382 0.0
C402 C 0.56388 0.74499 0.07198 0.0
C403 C 0.5728 0.76481 0.07741 0.0
C404 C 0.59264 0.81764 0.07553 0.0
C405 C 0.60176 0.83129 0.06508 0.0
C406 C 0.59209 0.84139 0.05974 0.0
C407 C 0.57297 0.83785 0.06465 0.0
C408 C 0.56371 0.82389 0.07503 0.0
C409 C 0.57343 0.81377 0.08036 0.0
C410 C 0.60419 0.80297 0.09997 0.0
C411 C 0.6065 0.78775 0.10622 0.0
C412 C 0.60845 0.78787 0.12006 0.0
C413 C 0.60826 0.80333 0.1279 0.0
C414 C 0.60556 0.81837 0.12161 0.0
C415 C 0.60378 0.81832 0.10774 0.0
P416 P 0.24363 0.77003 0.10506 0.0
H417 H 0.24242 0.75275 0.07881 0.0
H418 H 0.21417 0.72712 0.06485 0.0
H419 H 0.16991 0.725 0.09336 0.0
H420 H 0.198 0.75145 0.10668 0.0
H421 H 0.28839 0.7872 0.10296 0.0
H422 H 0.315 0.81528 0.09023 0.0
H423 H 0.26909 0.82901 0.07514 0.0
H424 H 0.24231 0.80058 0.08791 0.0
H425 H 0.21829 0.74608 0.12693 0.0
H426 H 0.25003 0.80957 0.11594 0.0
O427 O 0.25379 0.75589 0.11002 0.0
H428 H 0.20542 0.75457 0.14696 0.0
H429 H 0.23757 0.81819 0.13621 0.0
C430 C 0.22244 0.75395 0.09386 0.0
C431 C 0.22658 0.74707 0.08188 0.0
C432 C 0.21038 0.73219 0.07399 0.0
C433 C 0.18965 0.72362 0.07804 0.0
C434 C 0.18557 0.73126 0.0898 0.0
C435 C 0.20178 0.74634 0.09758 0.0
C436 C 0.26333 0.79169 0.09628 0.0
C437 C 0.28398 0.7962 0.09693 0.0
C438 C 0.2992 0.81223 0.0896 0.0
C439 C 0.29411 0.82424 0.08159 0.0
C440 C 0.27348 0.82005 0.08125 0.0
C441 C 0.25818 0.80382 0.0885 0.0
C442 C 0.23494 0.77712 0.11987 0.0
C443 C 0.22252 0.76186 0.12884 0.0
C444 C 0.21512 0.76669 0.14025 0.0
C445 C 0.22043 0.787 0.14307 0.0
C446 C 0.23329 0.80241 0.13424 0.0
C447 C 0.24035 0.79747 0.12265 0.0
P448 P 0.20944 0.42238 0.0868 0.0
H449 H 0.18565 0.41264 0.06207 0.0
H450 H 0.16447 0.42524 0.05207 0.0
H451 H 0.18314 0.47078 0.08362 0.0
H452 H 0.2042 0.45773 0.09373 0.0
H453 H 0.23469 0.40344 0.08302 0.0
H454 H 0.26902 0.41535 0.07395 0.0
H455 H 0.27613 0.47507 0.06803 0.0
H456 H 0.24157 0.46298 0.07738 0.0
H457 H 0.17796 0.4197 0.10515 0.0
H458 H 0.23833 0.42539 0.10799 0.0
O459 O 0.19618 0.39753 0.08271 0.0
H460 H 0.174 0.41517 0.12914 0.0
H461 H 0.23413 0.41993 0.1319 0.0
C462 C 0.19614 0.43393 0.0788 0.0
C463 C 0.18531 0.42542 0.06682 0.0
C464 C 0.17327 0.43276 0.06105 0.0
C465 C 0.17191 0.44896 0.06708 0.0
C466 C 0.18351 0.45805 0.07883 0.0
C467 C 0.19565 0.45069 0.08459 0.0
C468 C 0.23539 0.43219 0.08063 0.0
C469 C 0.24358 0.4191 0.07975 0.0
C470 C 0.26322 0.42592 0.0745 0.0
C471 C 0.27525 0.44608 0.07003 0.0
C472 C 0.26729 0.45945 0.07136 0.0
C473 C 0.2475 0.45254 0.07664 0.0
C474 C 0.20868 0.42346 0.10476 0.0
C475 C 0.19061 0.42048 0.11097 0.0
C476 C 0.18822 0.41754 0.12471 0.0
C477 C 0.20366 0.417 0.13253 0.0
C478 C 0.22202 0.42054 0.12629 0.0
C479 C 0.22445 0.42366 0.11255 0.0
P480 P 0.45542 0.91657 0.25969 0.0
H481 H 0.43698 0.89764 0.28499 0.0
H482 H 0.40221 0.88472 0.29401 0.0
H483 H 0.38098 0.89356 0.25597 0.0
H484 H 0.41541 0.90588 0.2469 0.0
H485 H 0.4994 0.9358 0.2658 0.0
H486 H 0.52135 0.92317 0.27455 0.0
H487 H 0.46853 0.86189 0.27494 0.0
H488 H 0.4465 0.87485 0.26629 0.0
H489 H 0.44707 0.9418 0.24194 0.0
H490 H 0.46868 0.89866 0.23816 0.0
O491 O 0.46526 0.93995 0.26646 0.0
H492 H 0.45181 0.94832 0.21807 0.0
H493 H 0.47389 0.9055 0.21427 0.0
C494 C 0.42887 0.90249 0.26519 0.0
C495 C 0.42469 0.89616 0.27845 0.0
C496 C 0.40483 0.88886 0.28362 0.0
C497 C 0.38893 0.88826 0.27571 0.0
C498 C 0.39298 0.894 0.26232 0.0
C499 C 0.41273 0.90098 0.25711 0.0
C500 C 0.47124 0.90636 0.2657 0.0
C501 C 0.49251 0.91964 0.26779 0.0
C502 C 0.5051 0.91234 0.27269 0.0
C503 C 0.49674 0.89149 0.27551 0.0
C504 C 0.47543 0.87808 0.27308 0.0
C505 C 0.46282 0.88545 0.26811 0.0
C506 C 0.45754 0.91978 0.24186 0.0
C507 C 0.45268 0.9336 0.23595 0.0
C508 C 0.45532 0.93727 0.2223 0.0
C509 C 0.46323 0.92743 0.2143 0.0
C510 C 0.46788 0.91338 0.22021 0.0
C511 C 0.46487 0.90945 0.23386 0.0
P512 P 0.15425 0.57858 0.23993 0.0
H513 H 0.16824 0.59613 0.26658 0.0
H514 H 0.16573 0.62258 0.27928 0.0
H515 H 0.13265 0.62996 0.24632 0.0
H516 H 0.13457 0.60306 0.23394 0.0
H517 H 0.16401 0.54645 0.23523 0.0
H518 H 0.15829 0.51676 0.24804 0.0
H519 H 0.12623 0.53165 0.27786 0.0
H520 H 0.13145 0.56101 0.26481 0.0
H521 H 0.1635 0.58411 0.2115 0.0
H522 H 0.10934 0.55534 0.23607 0.0
O523 O 0.17902 0.58984 0.23545 0.0
H524 H 0.14155 0.57346 0.19156 0.0
H525 H 0.08709 0.54511 0.21613 0.0
C526 C 0.15107 0.59716 0.24948 0.0
C527 C 0.16012 0.6032 0.2622 0.0
C528 C 0.15888 0.61851 0.26938 0.0
C529 C 0.14893 0.62841 0.26385 0.0
C530 C 0.14003 0.62239 0.25102 0.0
C531 C 0.14116 0.60697 0.24389 0.0
C532 C 0.14871 0.55626 0.24926 0.0
C533 C 0.15566 0.54327 0.2445 0.0
C534 C 0.15228 0.52626 0.25177 0.0
C535 C 0.14197 0.52205 0.26399 0.0
C536 C 0.13446 0.53475 0.26856 0.0
C537 C 0.13754 0.55158 0.26114 0.0
C538 C 0.13801 0.57042 0.22523 0.0
C539 C 0.14685 0.57552 0.2126 0.0
C540 C 0.13424 0.56956 0.2012 0.0
C541 C 0.11252 0.5585 0.20222 0.0
C542 C 0.10374 0.55339 0.21495 0.0
C543 C 0.11641 0.55929 0.22636 0.0
P544 P 0.45209 0.53393 0.25934 0.0
H545 H 0.47 0.55216 0.28524 0.0
H546 H 0.4914 0.58764 0.29313 0.0
H547 H 0.48564 0.60886 0.2545 0.0
H548 H 0.46384 0.57338 0.24676 0.0
H549 H 0.42159 0.49057 0.25948 0.0
H550 H 0.38743 0.47088 0.26949 0.0
H551 H 0.39139 0.527 0.2836 0.0
H552 H 0.42548 0.54666 0.27338 0.0
H553 H 0.48644 0.55285 0.24107 0.0
H554 H 0.42044 0.51151 0.23814 0.0
O555 O 0.46472 0.52268 0.26535 0.0
H556 H 0.48932 0.54944 0.21704 0.0
H557 H 0.42341 0.50754 0.21417 0.0
C558 C 0.46578 0.56013 0.26533 0.0
C559 C 0.47318 0.56446 0.27851 0.0
C560 C 0.48534 0.58471 0.28302 0.0
C561 C 0.49039 0.60098 0.27436 0.0
C562 C 0.48226 0.59659 0.2613 0.0
C563 C 0.46982 0.57631 0.25688 0.0
C564 C 0.42608 0.52006 0.26567 0.0
C565 C 0.41498 0.49865 0.26457 0.0
C566 C 0.39544 0.48743 0.27026 0.0
C567 C 0.38674 0.4974 0.27735 0.0
C568 C 0.39778 0.5189 0.27828 0.0
C569 C 0.41724 0.53015 0.2724 0.0
C570 C 0.45323 0.5326 0.24143 0.0
C571 C 0.47253 0.54324 0.23524 0.0
C572 C 0.47417 0.5413 0.22152 0.0
C573 C 0.45658 0.52826 0.21376 0.0
C574 C 0.43721 0.51766 0.21994 0.0
C575 C 0.43553 0.51993 0.23366 0.0
Tb576 Tb 0.48721 0.98696 0.9904 0.0
C577 C 0.53738 0.06099 0.02698 0.0
C578 C 0.57252 0.06766 0.02511 0.0
C579 C 0.56618 0.09582 0.02925 0.0
C580 C 0.55096 0.05397 0.02479 0.0
C581 C 0.54476 0.08191 0.02955 0.0
C582 C 0.58005 0.0887 0.02701 0.0
C583 C 0.50946 0.07341 0.03366 0.0
N584 N 0.51689 0.04702 0.02727 0.0
C585 C 0.50294 0.05279 0.03111 0.0
C586 C 0.53044 0.08808 0.03271 0.0
Tb587 Tb 0.5075 0.01379 0.02215 0.0
N588 N 0.543 0.03353 0.0231 0.0
C589 C 0.55596 0.02561 0.02275 0.0
C590 C 0.58581 0.05971 0.0239 0.0
C591 C 0.57749 0.03857 0.02295 0.0
H592 H 0.48667 0.04155 0.03175 0.0
H593 H 0.58764 0.03221 0.02229 0.0
H594 H 0.59655 0.0995 0.02712 0.0
H595 H 0.49829 0.07797 0.03634 0.0
H596 H 0.54992 0.00935 0.02189 0.0
H597 H 0.40628 0.96559 0.99122 0.0
H598 H 0.60248 0.0697 0.02404 0.0
H599 H 0.50924 0.96215 0.97748 0.0
H600 H 0.44374 0.98923 0.99263 0.0
H601 H 0.49898 0.92695 0.97041 0.0
H602 H 0.57218 0.11201 0.03106 0.0
H603 H 0.39267 0.92872 0.98655 0.0
H604 H 0.3998 0.90025 0.9815 0.0
H605 H 0.53547 0.10403 0.03475 0.0
H606 H 0.42517 0.88959 0.97593 0.0
N607 N 0.45179 0.96607 0.98947 0.0
C608 C 0.43826 0.97324 0.99074 0.0
C609 C 0.40921 0.93904 0.98745 0.0
C610 C 0.42305 0.93193 0.98552 0.0
C611 C 0.41685 0.95983 0.98996 0.0
C612 C 0.44447 0.94605 0.98644 0.0
H613 H 0.46226 0.89954 0.97153 0.0
N614 N 0.47881 0.95474 0.98318 0.0
C615 C 0.48743 0.9304 0.97407 0.0
C616 C 0.45856 0.94013 0.98322 0.0
C617 C 0.49318 0.95037 0.9781 0.0
C618 C 0.46672 0.91497 0.97477 0.0
C619 C 0.45189 0.91983 0.9791 0.0
O620 O 0.50168 0.99328 0.97168 0.0
O621 O 0.51291 0.01094 0.00147 0.0
O622 O 0.50568 0.03504 0.00845 0.0
O623 O 0.48022 0.01175 0.99372 0.0
O624 O 0.51975 0.99603 0.98724 0.0
O625 O 0.4767 0.99898 0.9755 0.0
O626 O 0.49403 0.01109 0.04096 0.0
O627 O 0.48187 0.98909 0.01135 0.0
O628 O 0.49145 0.96573 0.00278 0.0
O629 O 0.51316 0.98791 0.01983 0.0
O630 O 0.47491 0.00469 0.02506 0.0
O631 O 0.51743 0.00275 0.03798 0.0
C632 C 0.52785 0.0106 0.99596 0.0
C633 C 0.48068 0.99109 0.95336 0.0
C634 C 0.48056 0.99622 0.92939 0.0
C635 C 0.48944 0.00333 0.94215 0.0
C636 C 0.46296 0.97661 0.92804 0.0
C637 C 0.46319 0.97157 0.95177 0.0
C638 C 0.45442 0.96438 0.93915 0.0
C639 C 0.49165 0.03037 0.99893 0.0
C640 C 0.4895 0.99922 0.96667 0.0
C641 C 0.43063 0.90533 0.97894 0.0
C642 C 0.4162 0.91139 0.98211 0.0
C643 C 0.46687 0.98938 0.01684 0.0
C644 C 0.51547 0.01462 0.05942 0.0
C645 C 0.50852 0.00347 0.07123 0.0
C646 C 0.51851 0.01224 0.0835 0.0
C647 C 0.53533 0.03242 0.08379 0.0
C648 C 0.53222 0.03472 0.05996 0.0
C649 C 0.54204 0.04356 0.07209 0.0
C650 C 0.50413 0.97014 0.01319 0.0
C651 C 0.5056 0.00484 0.04659 0.0
H652 H 0.50282 0.01852 0.9434 0.0
H653 H 0.4559 0.97065 0.91834 0.0
H654 H 0.4562 0.96199 0.96027 0.0
H655 H 0.4409 0.94931 0.93798 0.0
H656 H 0.49569 0.98785 0.07082 0.0
H657 H 0.54317 0.03964 0.09309 0.0
H658 H 0.53783 0.04351 0.05103 0.0
H659 H 0.55497 0.05909 0.07243 0.0
Tb660 Tb 0.01468 0.51127 0.98998 0.0
C661 C 0.93792 0.47067 0.02508 0.0
C662 C 0.92668 0.49544 0.02751 0.0
C663 C 0.90157 0.45917 0.02889 0.0
C664 C 0.9424 0.49069 0.02515 0.0
C665 C 0.91755 0.45464 0.02721 0.0
C666 C 0.90615 0.47957 0.02908 0.0
C667 C 0.93071 0.43123 0.02728 0.0
N668 N 0.95388 0.46707 0.0238 0.0
C669 C 0.95069 0.44771 0.02534 0.0
C670 C 0.91401 0.43467 0.02807 0.0
Tb671 Tb 0.98603 0.49499 0.02051 0.0
N672 N 0.96244 0.50557 0.02379 0.0
C673 C 0.96795 0.52569 0.02541 0.0
C674 C 0.93221 0.51599 0.02876 0.0
C675 C 0.95292 0.53119 0.02774 0.0
H676 H 0.96343 0.44481 0.02472 0.0
H677 H 0.95735 0.54714 0.02887 0.0
H678 H 0.89382 0.48293 0.03079 0.0
H679 H 0.92822 0.4159 0.02818 0.0
H680 H 0.98389 0.53768 0.02473 0.0
H681 H 0.04485 0.46055 0.98098 0.0
H682 H 0.92073 0.52022 0.03099 0.0
H683 H 0.03662 0.56184 0.98778 0.0
H684 H 0.01795 0.46928 0.98597 0.0
H685 H 0.07137 0.59124 0.98409 0.0
H686 H 0.88578 0.44707 0.03044 0.0
H687 H 0.08106 0.48798 0.97771 0.0
H688 H 0.10628 0.52555 0.97526 0.0
H689 H 0.89858 0.42192 0.02968 0.0
H690 H 0.11395 0.56111 0.97709 0.0
N691 N 0.03884 0.50148 0.98661 0.0
C692 C 0.03374 0.48149 0.98493 0.0
C693 C 0.06939 0.49194 0.98026 0.0
C694 C 0.07437 0.51238 0.98137 0.0
C695 C 0.04896 0.47643 0.98204 0.0
C696 C 0.05862 0.51669 0.98478 0.0
H697 H 0.10106 0.58582 0.98052 0.0
N698 N 0.04655 0.53983 0.98716 0.0
C699 C 0.06914 0.57596 0.98436 0.0
C700 C 0.06267 0.53662 0.98515 0.0
C701 C 0.04942 0.55918 0.98643 0.0
C702 C 0.08588 0.57285 0.98242 0.0
C703 C 0.08268 0.55296 0.98251 0.0
O704 O 0.01057 0.52375 0.97238 0.0
O705 O 0.98815 0.50717 1.001 0.0
O706 O 0.96621 0.47411 0.00474 0.0
O707 O 0.9913 0.47819 0.98938 0.0
O708 O 0.00232 0.53227 0.98963 0.0
O709 O 0.00583 0.49316 0.97248 0.0
O710 O 0.99115 0.48262 0.03779 0.0
O711 O 0.01236 0.49891 0.00941 0.0
O712 O 0.03467 0.53118 0.00605 0.0
O713 O 0.00952 0.52807 0.02096 0.0
O714 O 0.99816 0.47376 0.0207 0.0
O715 O 0.99457 0.51271 0.03819 0.0
C716 C 0.98696 0.52244 0.99739 0.0
C717 C 0.01695 0.51103 0.95241 0.0
C718 C 0.01496 0.5074 0.9282 0.0
C719 C 0.00522 0.50501 0.94053 0.0
C720 C 0.03659 0.51599 0.92789 0.0
C721 C 0.03852 0.51978 0.95187 0.0
C722 C 0.04827 0.52222 0.93968 0.0
C723 C 0.97223 0.46786 0.99418 0.0
C724 C 0.00635 0.50757 0.96523 0.0
C725 C 0.09854 0.54882 0.97938 0.0
C726 C 0.09426 0.52856 0.97854 0.0
C727 C 0.01349 0.48356 0.0129 0.0
C728 C 0.98448 0.49416 0.05807 0.0
C729 C 0.99659 0.49954 0.06973 0.0
C730 C 0.9873 0.49588 0.08232 0.0
C731 C 0.9656 0.48656 0.08302 0.0
C732 C 0.9629 0.48493 0.05895 0.0
C733 C 0.95352 0.48112 0.07138 0.0
C734 C 0.02874 0.53791 0.0164 0.0
C735 C 0.99483 0.49843 0.04516 0.0
H736 H 0.98851 0.49816 0.94091 0.0
H737 H 0.0445 0.51818 0.91852 0.0
H738 H 0.04784 0.52469 0.9608 0.0
H739 H 0.06494 0.52896 0.93937 0.0
H740 H 0.01326 0.50645 0.06897 0.0
H741 H 0.95799 0.48378 0.09253 0.0
H742 H 0.95332 0.4807 0.0501 0.0
H743 H 0.93685 0.47404 0.072 0.0
Tb744 Tb 0.50754 0.49526 0.02019 0.0
C745 C 0.46182 0.52465 0.98381 0.0
C746 C 0.42608 0.49741 0.98361 0.0
C747 C 0.43436 0.53232 0.97949 0.0
C748 C 0.44737 0.50431 0.98536 0.0
C749 C 0.45557 0.53893 0.98074 0.0
C750 C 0.41966 0.51154 0.98079 0.0
C751 C 0.49168 0.56459 0.97877 0.0
N752 N 0.48212 0.53019 0.98445 0.0
C753 C 0.49707 0.54975 0.98152 0.0
C754 C 0.47082 0.5592 0.97848 0.0
Tb755 Tb 0.48957 0.50491 0.98903 0.0
N756 N 0.45431 0.49105 0.9874 0.0
C757 C 0.44064 0.47043 0.98709 0.0
C758 C 0.41199 0.47643 0.98407 0.0
C759 C 0.41934 0.46286 0.98563 0.0
H760 H 0.51324 0.55405 0.98168 0.0
H761 H 0.40862 0.44654 0.9857 0.0
H762 H 0.40339 0.50644 0.97923 0.0
H763 H 0.50359 0.58014 0.97679 0.0
H764 H 0.44589 0.45959 0.98821 0.0
H765 H 0.58941 0.55023 0.02322 0.0
H766 H 0.3955 0.47052 0.98281 0.0
H767 H 0.48147 0.44628 0.02835 0.0
H768 H 0.55258 0.53906 0.02056 0.0
H769 H 0.48913 0.41899 0.03366 0.0
H770 H 0.4292 0.54301 0.9771 0.0
H771 H 0.60057 0.52473 0.02661 0.0
H772 H 0.59076 0.48797 0.02934 0.0
H773 H 0.46666 0.57066 0.97616 0.0
H774 H 0.56338 0.45211 0.03213 0.0
N775 N 0.54246 0.50728 0.02197 0.0
C776 C 0.55701 0.52764 0.02192 0.0
C777 C 0.58429 0.51968 0.02521 0.0
C778 C 0.56934 0.49894 0.02573 0.0
C779 C 0.57806 0.5341 0.02339 0.0
C780 C 0.5483 0.49321 0.02419 0.0
H781 H 0.52539 0.42628 0.03398 0.0
N782 N 0.51304 0.4688 0.02521 0.0
C783 C 0.50163 0.43416 0.03143 0.0
C784 C 0.53302 0.4732 0.02585 0.0
C785 C 0.49736 0.44972 0.02842 0.0
C786 C 0.52211 0.43832 0.03155 0.0
C787 C 0.53815 0.45812 0.02897 0.0
O788 O 0.49183 0.48618 0.03838 0.0
O789 O 0.48306 0.49628 0.00941 0.0
O790 O 0.49192 0.52772 0.00359 0.0
O791 O 0.51635 0.52774 0.01819 0.0
O792 O 0.47424 0.47335 0.02238 0.0
O793 O 0.51949 0.51551 0.0367 0.0
O794 O 0.50369 0.51577 0.97049 0.0
O795 O 0.5144 0.50434 0.99973 0.0
O796 O 0.50538 0.47226 0.0059 0.0
O797 O 0.48201 0.4727 0.99054 0.0
O798 O 0.52259 0.52725 0.98661 0.0
O799 O 0.47975 0.48434 0.97275 0.0
C800 C 0.46724 0.4814 0.01418 0.0
C801 C 0.51272 0.4996 0.05764 0.0
C802 C 0.51015 0.49809 0.08186 0.0
C803 C 0.50416 0.5021 0.06946 0.0
C804 C 0.52492 0.49174 0.08229 0.0
C805 C 0.52768 0.49357 0.05832 0.0
C806 C 0.53371 0.48964 0.07058 0.0
C807 C 0.50625 0.53645 0.0131 0.0
C808 C 0.50542 0.50269 0.0447 0.0
C809 C 0.55909 0.46349 0.02984 0.0
C810 C 0.57467 0.4839 0.02825 0.0
C811 C 0.52994 0.51938 0.9947 0.0
C812 C 0.48283 0.49856 0.95158 0.0
C813 C 0.49118 0.49557 0.93985 0.0
C814 C 0.48198 0.49451 0.92733 0.0
C815 C 0.4644 0.49685 0.92683 0.0
C816 C 0.46542 0.50098 0.95082 0.0
C817 C 0.45632 0.50019 0.93849 0.0
C818 C 0.49219 0.46411 0.99574 0.0
C819 C 0.49203 0.49821 0.96448 0.0
H820 H 0.49258 0.50676 0.069 0.0
H821 H 0.52987 0.48869 0.09172 0.0
H822 H 0.53467 0.49185 0.04943 0.0
H823 H 0.54521 0.48492 0.07101 0.0
H824 H 0.50485 0.49405 0.94055 0.0
H825 H 0.45658 0.4957 0.91748 0.0
H826 H 0.45871 0.50321 0.95971 0.0
H827 H 0.44276 0.50189 0.93799 0.0
Tb828 Tb 0.15668 0.32191 0.3236 0.0
C829 C 0.19357 0.39412 0.36377 0.0
C830 C 0.23007 0.40536 0.36553 0.0
C831 C 0.2182 0.42959 0.36955 0.0
C832 C 0.20948 0.38993 0.36278 0.0
C833 C 0.19762 0.41388 0.36743 0.0
C834 C 0.23441 0.42533 0.36862 0.0
C835 C 0.16067 0.40056 0.36788 0.0
N836 N 0.17393 0.37841 0.36192 0.0
C837 C 0.15745 0.38118 0.36438 0.0
C838 C 0.18085 0.41704 0.36928 0.0
Tb839 Tb 0.17024 0.34726 0.35615 0.0
N840 N 0.2046 0.3704 0.35994 0.0
C841 C 0.21958 0.36503 0.36053 0.0
C842 C 0.24554 0.40009 0.36559 0.0
C843 C 0.24025 0.37979 0.36318 0.0
H844 H 0.14177 0.3686 0.36331 0.0
H845 H 0.25202 0.37543 0.36344 0.0
H846 H 0.25016 0.43744 0.37065 0.0
H847 H 0.14758 0.40275 0.36952 0.0
H848 H 0.2158 0.34942 0.35874 0.0
H849 H 0.07524 0.29863 0.31999 0.0
H850 H 0.26146 0.41146 0.36789 0.0
H851 H 0.18052 0.29788 0.31258 0.0
H852 H 0.11239 0.32311 0.32213 0.0
H853 H 0.17169 0.26248 0.30684 0.0
H854 H 0.22168 0.44493 0.37227 0.0
H855 H 0.06285 0.26177 0.31725 0.0
H856 H 0.0712 0.2335 0.3146 0.0
H857 H 0.1833 0.432 0.37208 0.0
H858 H 0.09763 0.22349 0.31112 0.0
N859 N 0.12146 0.3004 0.32118 0.0
C860 C 0.10747 0.30712 0.32102 0.0
C861 C 0.07923 0.27239 0.31842 0.0
C862 C 0.09358 0.26566 0.31785 0.0
C863 C 0.08622 0.29323 0.31983 0.0
C864 C 0.11482 0.28028 0.31913 0.0
H865 H 0.13527 0.23431 0.3079 0.0
N866 N 0.1496 0.28969 0.31743 0.0
C867 C 0.15965 0.26566 0.30985 0.0
C868 C 0.1295 0.27467 0.31724 0.0
C869 C 0.1646 0.28569 0.31308 0.0
C870 C 0.13911 0.24979 0.31052 0.0
C871 C 0.12363 0.25427 0.31392 0.0
O872 O 0.17369 0.32847 0.30586 0.0
O873 O 0.17967 0.34645 0.33599 0.0
O874 O 0.16948 0.36878 0.3422 0.0
O875 O 0.14802 0.34582 0.32571 0.0
O876 O 0.19002 0.33317 0.32266 0.0
O877 O 0.14731 0.33256 0.30722 0.0
O878 O 0.15272 0.34009 0.37367 0.0
O879 O 0.14783 0.32219 0.3439 0.0
O880 O 0.1616 0.30177 0.33669 0.0
O881 O 0.17991 0.32411 0.35458 0.0
O882 O 0.13663 0.33504 0.35672 0.0
O883 O 0.18024 0.33768 0.37278 0.0
C884 C 0.19594 0.34737 0.33161 0.0
C885 C 0.15448 0.32387 0.28609 0.0
C886 C 0.15435 0.32764 0.26192 0.0
C887 C 0.16122 0.33627 0.27478 0.0
C888 C 0.14088 0.30637 0.26062 0.0
C889 C 0.14089 0.30279 0.28451 0.0
C890 C 0.13422 0.2941 0.27183 0.0
C891 C 0.15722 0.36416 0.3316 0.0
C892 C 0.16149 0.33316 0.29946 0.0
C893 C 0.1025 0.23932 0.31348 0.0
C894 C 0.08746 0.24501 0.31545 0.0
C895 C 0.1312 0.32037 0.34819 0.0
C896 C 0.17125 0.34497 0.39383 0.0
C897 C 0.16519 0.33203 0.40487 0.0
C898 C 0.17073 0.34026 0.41794 0.0
C899 C 0.18231 0.36167 0.41968 0.0
C900 C 0.18288 0.3662 0.39587 0.0
C901 C 0.18834 0.37448 0.40873 0.0
C902 C 0.173 0.30665 0.34776 0.0
C903 C 0.16532 0.3361 0.38027 0.0
H904 H 0.17146 0.35263 0.27604 0.0
H905 H 0.13559 0.29915 0.25089 0.0
H906 H 0.13538 0.29304 0.29304 0.0
H907 H 0.12382 0.27778 0.27069 0.0
H908 H 0.15641 0.31559 0.40327 0.0
H909 H 0.1865 0.36859 0.42955 0.0
H910 H 0.1877 0.37639 0.38757 0.0
H911 H 0.19722 0.39091 0.41021 0.0
Tb912 Tb 0.67938 0.84387 0.3241 0.0
C913 C 0.60143 0.80261 0.35856 0.0
C914 C 0.5898 0.82717 0.36029 0.0
C915 C 0.56491 0.79085 0.36181 0.0
C916 C 0.60575 0.82257 0.35844 0.0
C917 C 0.58106 0.78649 0.36056 0.0
C918 C 0.56928 0.81118 0.36166 0.0
C919 C 0.5945 0.76332 0.3612 0.0
N920 N 0.61751 0.79912 0.35748 0.0
C921 C 0.61445 0.77985 0.35925 0.0
C922 C 0.57768 0.76661 0.36168 0.0
Tb923 Tb 0.6496 0.82717 0.35434 0.0
N924 N 0.62579 0.83756 0.35723 0.0
C925 C 0.63108 0.85764 0.35871 0.0
C926 C 0.59506 0.84768 0.36113 0.0
C927 C 0.6158 0.86299 0.36047 0.0
H928 H 0.62727 0.77705 0.35885 0.0
H929 H 0.62005 0.87892 0.36135 0.0
H930 H 0.55678 0.81441 0.36296 0.0
H931 H 0.59212 0.74806 0.3623 0.0
H932 H 0.64703 0.8697 0.35824 0.0
H933 H 0.70574 0.78946 0.31726 0.0
H934 H 0.58329 0.85177 0.3627 0.0
H935 H 0.70399 0.89374 0.3187 0.0
H936 H 0.67985 0.80023 0.31956 0.0
H937 H 0.74016 0.92198 0.31701 0.0
H938 H 0.54911 0.77868 0.36323 0.0
H939 H 0.743 0.81533 0.31756 0.0
H940 H 0.77098 0.85222 0.31899 0.0
H941 H 0.56226 0.75379 0.36323 0.0
H942 H 0.78049 0.88853 0.3192 0.0
N943 N 0.70216 0.83204 0.32162 0.0
C944 C 0.69601 0.81178 0.31976 0.0
C945 C 0.73172 0.82012 0.31877 0.0
C946 C 0.73794 0.84083 0.32007 0.0
C947 C 0.71068 0.80553 0.31847 0.0
C948 C 0.72257 0.84634 0.3213 0.0
H949 H 0.76904 0.91476 0.31826 0.0
N950 N 0.71235 0.87091 0.32155 0.0
C951 C 0.73695 0.90647 0.31833 0.0
C952 C 0.72789 0.86658 0.32139 0.0
C953 C 0.71647 0.89043 0.31928 0.0
C954 C 0.75321 0.90234 0.31909 0.0
C955 C 0.74876 0.88211 0.32029 0.0
O956 O 0.67546 0.85698 0.30677 0.0
O957 O 0.65264 0.83979 0.33482 0.0
O958 O 0.62996 0.80641 0.33848 0.0
O959 O 0.6552 0.81105 0.32308 0.0
O960 O 0.66769 0.86532 0.3237 0.0
O961 O 0.67174 0.82684 0.30614 0.0
O962 O 0.6553 0.81497 0.37147 0.0
O963 O 0.67653 0.83162 0.34366 0.0
O964 O 0.69824 0.86559 0.33983 0.0
O965 O 0.67314 0.86002 0.35571 0.0
O966 O 0.66161 0.80592 0.35453 0.0
O967 O 0.65632 0.844 0.37235 0.0
C968 C 0.65196 0.85537 0.33121 0.0
C969 C 0.68379 0.84633 0.28672 0.0
C970 C 0.68355 0.84376 0.26244 0.0
C971 C 0.67289 0.83914 0.27459 0.0
C972 C 0.70533 0.85571 0.26269 0.0
C973 C 0.70548 0.85804 0.28673 0.0
C974 C 0.71616 0.8627 0.27476 0.0
C975 C 0.63609 0.80057 0.32779 0.0
C976 C 0.67222 0.84151 0.29922 0.0
C977 C 0.76432 0.87683 0.31987 0.0
C978 C 0.75891 0.85617 0.31974 0.0
C979 C 0.67746 0.81617 0.3472 0.0
C980 C 0.64723 0.82463 0.39195 0.0
C981 C 0.65932 0.83128 0.40364 0.0
C982 C 0.65003 0.82545 0.41616 0.0
C983 C 0.6284 0.81299 0.41686 0.0
C984 C 0.62564 0.81238 0.3928 0.0
C985 C 0.61629 0.80662 0.40522 0.0
C986 C 0.69189 0.87096 0.35062 0.0
C987 C 0.65768 0.8301 0.37908 0.0
H988 H 0.65614 0.82981 0.27465 0.0
H989 H 0.71402 0.85992 0.25355 0.0
H990 H 0.71418 0.86369 0.2959 0.0
H991 H 0.7329 0.87189 0.27484 0.0
H992 H 0.67604 0.84059 0.40298 0.0
H993 H 0.62087 0.80836 0.4264 0.0
H994 H 0.61605 0.80711 0.38393 0.0
H995 H 0.59962 0.7971 0.40581 0.0
Tb996 Tb 0.17956 0.83594 0.3546 0.0
C997 C 0.12637 0.86066 0.3214 0.0
C998 C 0.09097 0.83454 0.32543 0.0
C999 C 0.09901 0.86918 0.3206 0.0
C1000 C 0.1122 0.84083 0.32453 0.0
C1001 C 0.11999 0.87505 0.31916 0.0
C1002 C 0.08451 0.84893 0.32373 0.0
C1003 C 0.15525 0.89943 0.31337 0.0
N1004 N 0.14642 0.86562 0.32008 0.0
C1005 C 0.16077 0.88453 0.31563 0.0
C1006 C 0.13481 0.89475 0.31528 0.0
Tb1007 Tb 0.1543 0.84066 0.32488 0.0
N1008 N 0.11913 0.82746 0.32604 0.0
C1009 C 0.10527 0.80707 0.32741 0.0
C1010 C 0.07688 0.8139 0.32767 0.0
C1011 C 0.08404 0.80005 0.32843 0.0
H1012 H 0.17666 0.88841 0.31424 0.0
H1013 H 0.07324 0.78397 0.3299 0.0
H1014 H 0.0683 0.84446 0.32453 0.0
H1015 H 0.16678 0.91453 0.31019 0.0
H1016 H 0.11047 0.79612 0.32815 0.0
H1017 H 0.26062 0.89303 0.35005 0.0
H1018 H 0.06045 0.80843 0.32849 0.0
H1019 H 0.15723 0.78794 0.36471 0.0
H1020 H 0.22335 0.88064 0.35141 0.0
H1021 H 0.16729 0.76199 0.36886 0.0
H1022 H 0.09378 0.88005 0.31903 0.0
H1023 H 0.27363 0.86878 0.35175 0.0
H1024 H 0.26595 0.83281 0.35565 0.0
H1025 H 0.13055 0.90629 0.31349 0.0
H1026 H 0.24051 0.79708 0.36082 0.0
N1027 N 0.2148 0.84934 0.35361 0.0
C1028 C 0.2286 0.86977 0.35228 0.0
C1029 C 0.25716 0.8632 0.35241 0.0
C1030 C 0.24312 0.84251 0.35451 0.0
C1031 C 0.24988 0.87693 0.35147 0.0
C1032 C 0.22183 0.83606 0.35518 0.0
H1033 H 0.20368 0.77056 0.36594 0.0
N1034 N 0.18754 0.81099 0.35919 0.0
C1035 C 0.17881 0.77715 0.36579 0.0
C1036 C 0.20767 0.81613 0.35811 0.0
C1037 C 0.17318 0.79196 0.36347 0.0
C1038 C 0.19935 0.78203 0.36411 0.0
C1039 C 0.21416 0.80182 0.36041 0.0
O1040 O 0.1679 0.82848 0.374 0.0
O1041 O 0.15251 0.83461 0.34581 0.0
O1042 O 0.15932 0.86539 0.33863 0.0
O1043 O 0.18672 0.86772 0.3514 0.0
O1044 O 0.14748 0.81386 0.36002 0.0
O1045 O 0.19348 0.85844 0.36971 0.0
O1046 O 0.16572 0.84764 0.30541 0.0
O1047 O 0.18138 0.84226 0.33374 0.0
O1048 O 0.17501 0.81167 0.34063 0.0
O1049 O 0.14727 0.8089 0.32809 0.0
O1050 O 0.18635 0.86251 0.31918 0.0
O1051 O 0.1402 0.81779 0.31 0.0
C1052 C 0.13836 0.82031 0.35225 0.0
C1053 C 0.19202 0.84578 0.3913 0.0
C1054 C 0.19275 0.84597 0.41559 0.0
C1055 C 0.18358 0.84685 0.40353 0.0
C1056 C 0.21057 0.84407 0.4152 0.0
C1057 C 0.2098 0.84392 0.3911 0.0
C1058 C 0.21902 0.84308 0.40302 0.0
C1059 C 0.17519 0.87535 0.34701 0.0
C1060 C 0.18171 0.84621 0.37892 0.0
C1061 C 0.23522 0.80788 0.35921 0.0
C1062 C 0.24969 0.82821 0.35627 0.0
C1063 C 0.19552 0.85631 0.32712 0.0
C1064 C 0.14215 0.82924 0.28801 0.0
C1065 C 0.14945 0.82486 0.2763 0.0
C1066 C 0.14066 0.82466 0.26383 0.0
C1067 C 0.12425 0.82882 0.26333 0.0
C1068 C 0.12584 0.83336 0.28734 0.0
C1069 C 0.11692 0.8331 0.27502 0.0
C1070 C 0.15938 0.80172 0.33208 0.0
C1071 C 0.15213 0.82965 0.30071 0.0
H1072 H 0.16967 0.84802 0.40363 0.0
H1073 H 0.21813 0.84358 0.42432 0.0
H1074 H 0.21654 0.84312 0.38179 0.0
H1075 H 0.23276 0.84168 0.40283 0.0
H1076 H 0.16191 0.82145 0.27697 0.0
H1077 H 0.11729 0.82909 0.2539 0.0
H1078 H 0.12006 0.8368 0.29628 0.0
H1079 H 0.10436 0.83636 0.27451 0.0
Tb1080 Tb 0.82175 0.65483 0.65595 0.0
C1081 C 0.8652 0.72954 0.6941 0.0
C1082 C 0.9013 0.73919 0.69379 0.0
C1083 C 0.89167 0.76502 0.69816 0.0
C1084 C 0.88019 0.72434 0.69215 0.0
C1085 C 0.87065 0.74982 0.69747 0.0
C1086 C 0.907 0.75968 0.6964 0.0
C1087 C 0.83442 0.73789 0.70104 0.0
N1088 N 0.84519 0.71427 0.69373 0.0
C1089 C 0.82986 0.71797 0.69777 0.0
C1090 C 0.85487 0.75397 0.70063 0.0
Tb1091 Tb 0.83891 0.68222 0.68777 0.0
N1092 N 0.87397 0.70435 0.6898 0.0
C1093 C 0.88823 0.698 0.68986 0.0
C1094 C 0.91593 0.73282 0.69339 0.0
C1095 C 0.90935 0.71211 0.6915 0.0
H1096 H 0.81396 0.7057 0.69803 0.0
H1097 H 0.92049 0.70692 0.69142 0.0
H1098 H 0.92317 0.77137 0.69749 0.0
H1099 H 0.82213 0.74081 0.70384 0.0
H1100 H 0.88355 0.68209 0.68846 0.0
H1101 H 0.73996 0.62997 0.65404 0.0
H1102 H 0.93221 0.74368 0.69503 0.0
H1103 H 0.84694 0.63057 0.6476 0.0
H1104 H 0.77713 0.65506 0.65583 0.0
H1105 H 0.83855 0.59528 0.64231 0.0
H1106 H 0.89621 0.78075 0.70059 0.0
H1107 H 0.72813 0.59321 0.65074 0.0
H1108 H 0.73733 0.56569 0.64706 0.0
H1109 H 0.85839 0.76935 0.70323 0.0
H1110 H 0.7642 0.5562 0.64389 0.0
N1111 N 0.78668 0.63285 0.6539 0.0
C1112 C 0.7724 0.63915 0.65434 0.0
C1113 C 0.74456 0.60419 0.6515 0.0
C1114 C 0.75926 0.59795 0.65034 0.0
C1115 C 0.75119 0.62492 0.65334 0.0
C1116 C 0.78043 0.61287 0.65149 0.0
H1117 H 0.80205 0.56716 0.64199 0.0
N1118 N 0.81549 0.62262 0.65048 0.0
C1119 C 0.82625 0.59848 0.64446 0.0
C1120 C 0.7954 0.60754 0.64974 0.0
C1121 C 0.83093 0.61851 0.64741 0.0
C1122 C 0.80563 0.58266 0.6443 0.0
C1123 C 0.78986 0.58713 0.64676 0.0
O1124 O 0.83709 0.65987 0.6376 0.0
O1125 O 0.84608 0.68009 0.66723 0.0
O1126 O 0.83537 0.70263 0.67412 0.0
O1127 O 0.81355 0.679 0.65781 0.0
O1128 O 0.8548 0.66537 0.65394 0.0
O1129 O 0.81125 0.66482 0.63987 0.0
O1130 O 0.82364 0.67669 0.70618 0.0
O1131 O 0.8147 0.65729 0.67638 0.0
O1132 O 0.8242 0.63435 0.66998 0.0
O1133 O 0.84748 0.6583 0.68543 0.0
O1134 O 0.80569 0.67123 0.68991 0.0
O1135 O 0.84922 0.67151 0.7036 0.0
C1136 C 0.86176 0.68042 0.66231 0.0
C1137 C 0.81687 0.65596 0.61836 0.0
C1138 C 0.81614 0.66048 0.59433 0.0
C1139 C 0.82444 0.66838 0.6071 0.0
C1140 C 0.80037 0.63991 0.59299 0.0
C1141 C 0.80122 0.63547 0.61678 0.0
C1142 C 0.79307 0.6275 0.60414 0.0
C1143 C 0.82278 0.69742 0.6636 0.0
C1144 C 0.82477 0.66493 0.63168 0.0
C1145 C 0.76881 0.57201 0.64606 0.0
C1146 C 0.75352 0.57742 0.64786 0.0
C1147 C 0.79884 0.65638 0.68139 0.0
C1148 C 0.84451 0.68115 0.72512 0.0
C1149 C 0.83647 0.66976 0.73675 0.0
C1150 C 0.84471 0.6786 0.7494 0.0
C1151 C 0.86122 0.69896 0.75011 0.0
C1152 C 0.86086 0.70141 0.72615 0.0
C1153 C 0.86915 0.71023 0.73857 0.0
C1154 C 0.83735 0.63954 0.68015 0.0
C1155 C 0.83603 0.67164 0.71197 0.0
H1156 H 0.8364 0.68429 0.60833 0.0
H1157 H 0.79381 0.63337 0.58328 0.0
H1158 H 0.79516 0.62571 0.62529 0.0
H1159 H 0.78096 0.61167 0.60298 0.0
H1160 H 0.82371 0.65415 0.73595 0.0
H1161 H 0.86826 0.70614 0.75959 0.0
H1162 H 0.86733 0.71036 0.71737 0.0
H1163 H 0.88187 0.72585 0.73926 0.0
Tb1164 Tb 0.34775 0.16949 0.65779 0.0
C1165 C 0.26874 0.14371 0.68963 0.0
C1166 C 0.26032 0.17023 0.68574 0.0
C1167 C 0.23281 0.13553 0.68997 0.0
C1168 C 0.27498 0.16371 0.68678 0.0
C1169 C 0.24764 0.12942 0.69156 0.0
C1170 C 0.23915 0.15593 0.68705 0.0
C1171 C 0.2577 0.10471 0.69752 0.0
N1172 N 0.28357 0.13852 0.69114 0.0
C1173 C 0.27845 0.11951 0.69557 0.0
C1174 C 0.24219 0.10961 0.69535 0.0
Tb1175 Tb 0.31706 0.16344 0.68712 0.0
N1176 N 0.29557 0.17697 0.68561 0.0
C1177 C 0.30263 0.19743 0.68433 0.0
C1178 C 0.26744 0.19097 0.68371 0.0
C1179 C 0.28871 0.20467 0.68319 0.0
H1180 H 0.2903 0.11552 0.69718 0.0
H1181 H 0.29441 0.22081 0.68184 0.0
H1182 H 0.22762 0.16058 0.68612 0.0
H1183 H 0.2537 0.08954 0.70069 0.0
H1184 H 0.31897 0.2083 0.6838 0.0
H1185 H 0.37308 0.11408 0.65968 0.0
H1186 H 0.2567 0.19661 0.68283 0.0
H1187 H 0.37282 0.21858 0.64954 0.0
H1188 H 0.3478 0.12567 0.66034 0.0
H1189 H 0.40872 0.24544 0.64535 0.0
H1190 H 0.21648 0.12475 0.69127 0.0
H1191 H 0.41042 0.13905 0.65704 0.0
H1192 H 0.43841 0.17552 0.65376 0.0
H1193 H 0.22614 0.09815 0.69692 0.0
H1194 H 0.44813 0.21136 0.6499 0.0
N1195 N 0.37028 0.15721 0.65818 0.0
C1196 C 0.36392 0.13688 0.65916 0.0
C1197 C 0.39932 0.1443 0.65737 0.0
C1198 C 0.40569 0.165 0.65594 0.0
C1199 C 0.3783 0.13017 0.65885 0.0
C1200 C 0.39056 0.17097 0.65621 0.0
H1201 H 0.43714 0.23759 0.64668 0.0
N1202 N 0.38065 0.19559 0.65353 0.0
C1203 C 0.40537 0.23017 0.64776 0.0
C1204 C 0.39596 0.19091 0.65383 0.0
C1205 C 0.38497 0.21482 0.65009 0.0
C1206 C 0.42136 0.22569 0.64854 0.0
C1207 C 0.41673 0.20577 0.65141 0.0
O1208 O 0.34494 0.17739 0.63816 0.0
O1209 O 0.32161 0.17003 0.66629 0.0
O1210 O 0.29765 0.13873 0.67306 0.0
O1211 O 0.3233 0.13736 0.66063 0.0
O1212 O 0.3374 0.19105 0.65228 0.0
O1213 O 0.33775 0.14673 0.64286 0.0
O1214 O 0.32003 0.15545 0.70665 0.0
O1215 O 0.34303 0.16244 0.67861 0.0
O1216 O 0.3676 0.19292 0.67239 0.0
O1217 O 0.3424 0.19535 0.68455 0.0
O1218 O 0.32706 0.14165 0.69281 0.0
O1219 O 0.3257 0.18571 0.70233 0.0
C1220 C 0.32158 0.18416 0.65984 0.0
C1221 C 0.34968 0.15821 0.62122 0.0
C1222 C 0.34908 0.15543 0.59701 0.0
C1223 C 0.34055 0.15776 0.60888 0.0
C1224 C 0.36709 0.1539 0.5976 0.0
C1225 C 0.36773 0.15679 0.62165 0.0
C1226 C 0.37641 0.15473 0.60987 0.0
C1227 C 0.30384 0.12929 0.66464 0.0
C1228 C 0.33952 0.15921 0.63346 0.0
C1229 C 0.43205 0.20016 0.65167 0.0
C1230 C 0.42652 0.17977 0.65389 0.0
C1231 C 0.34278 0.14818 0.68516 0.0
C1232 C 0.31368 0.17311 0.72376 0.0
C1233 C 0.32437 0.1775 0.73597 0.0
C1234 C 0.31463 0.17749 0.74792 0.0
C1235 C 0.29386 0.17287 0.74745 0.0
C1236 C 0.29302 0.1686 0.72345 0.0
C1237 C 0.28317 0.16847 0.73527 0.0
C1238 C 0.3619 0.20274 0.68082 0.0
C1239 C 0.32449 0.17324 0.71157 0.0
H1240 H 0.32648 0.15865 0.60854 0.0
H1241 H 0.374 0.15219 0.58857 0.0
H1242 H 0.37495 0.15698 0.63102 0.0
H1243 H 0.3903 0.15357 0.61025 0.0
H1244 H 0.34026 0.18068 0.73614 0.0
H1245 H 0.28597 0.17293 0.75645 0.0
H1246 H 0.28455 0.16523 0.71414 0.0
H1247 H 0.26723 0.16502 0.73498 0.0
Tb1248 Tb 0.84227 0.16312 0.68691 0.0
C1249 C 0.80017 0.19819 0.65129 0.0
C1250 C 0.76374 0.17333 0.65225 0.0
C1251 C 0.77474 0.20903 0.64846 0.0
C1252 C 0.78466 0.17846 0.65326 0.0
C1253 C 0.79548 0.21368 0.6485 0.0
C1254 C 0.75885 0.18882 0.65026 0.0
C1255 C 0.8317 0.23617 0.64401 0.0
N1256 N 0.81984 0.20177 0.65098 0.0
C1257 C 0.83545 0.22016 0.64668 0.0
C1258 C 0.81168 0.23304 0.64518 0.0
Tb1259 Tb 0.82496 0.17513 0.6562 0.0
N1260 N 0.7901 0.16401 0.655 0.0
C1261 C 0.77517 0.14376 0.65485 0.0
C1262 C 0.74844 0.15272 0.65261 0.0
C1263 C 0.75419 0.13785 0.65381 0.0
H1264 H 0.85101 0.22281 0.64574 0.0
H1265 H 0.74251 0.1218 0.65384 0.0
H1266 H 0.74285 0.18522 0.64966 0.0
H1267 H 0.84426 0.2509 0.64104 0.0
H1268 H 0.77921 0.13198 0.65572 0.0
H1269 H 0.92458 0.21748 0.68929 0.0
H1270 H 0.73227 0.14817 0.65142 0.0
H1271 H 0.81632 0.11359 0.69361 0.0
H1272 H 0.88757 0.20684 0.68872 0.0
H1273 H 0.82388 0.0856 0.69634 0.0
H1274 H 0.7708 0.22075 0.6465 0.0
H1275 H 0.93547 0.19147 0.68926 0.0
H1276 H 0.92533 0.15429 0.69005 0.0
H1277 H 0.80876 0.2454 0.64301 0.0
H1278 H 0.89785 0.11826 0.69198 0.0
N1279 N 0.87723 0.1749 0.68816 0.0
C1280 C 0.89193 0.19522 0.68883 0.0
C1281 C 0.91913 0.18666 0.68907 0.0
C1282 C 0.90403 0.16592 0.68918 0.0
C1283 C 0.91303 0.20137 0.68912 0.0
C1284 C 0.88298 0.16052 0.68884 0.0
H1285 H 0.85989 0.09244 0.69452 0.0
N1286 N 0.84774 0.13617 0.69011 0.0
C1287 C 0.83633 0.1009 0.69439 0.0
C1288 C 0.86767 0.14038 0.68985 0.0
C1289 C 0.83213 0.11685 0.69291 0.0
C1290 C 0.85668 0.10484 0.69336 0.0
C1291 C 0.87273 0.12486 0.6913 0.0
O1292 O 0.82669 0.1522 0.70497 0.0
O1293 O 0.8182 0.16595 0.67671 0.0
O1294 O 0.83088 0.19985 0.67024 0.0
O1295 O 0.85113 0.1957 0.68657 0.0
O1296 O 0.80906 0.14166 0.68892 0.0
O1297 O 0.85453 0.18161 0.70418 0.0
O1298 O 0.84074 0.1839 0.63799 0.0
O1299 O 0.84904 0.17314 0.66675 0.0
O1300 O 0.83924 0.141 0.67168 0.0
O1301 O 0.81509 0.14227 0.65756 0.0
O1302 O 0.85827 0.19641 0.65384 0.0
O1303 O 0.81274 0.1549 0.63973 0.0
C1304 C 0.80236 0.15082 0.68143 0.0
C1305 C 0.84752 0.16377 0.72439 0.0
C1306 C 0.84813 0.16449 0.74878 0.0
C1307 C 0.84228 0.1693 0.73656 0.0
C1308 C 0.85934 0.15402 0.74849 0.0
C1309 C 0.85897 0.15369 0.72441 0.0
C1310 C 0.86481 0.14884 0.7364 0.0
C1311 C 0.84348 0.20627 0.6808 0.0
C1312 C 0.84036 0.16808 0.71181 0.0
C1313 C 0.89361 0.12997 0.69103 0.0
C1314 C 0.90925 0.15048 0.68995 0.0
C1315 C 0.86497 0.18795 0.66193 0.0
C1316 C 0.82001 0.17031 0.61868 0.0
C1317 C 0.82824 0.16671 0.60709 0.0
C1318 C 0.82171 0.16916 0.5944 0.0
C1319 C 0.8069 0.17547 0.59355 0.0
C1320 C 0.80526 0.17655 0.6176 0.0
C1321 C 0.7988 0.17916 0.60508 0.0
C1322 C 0.82521 0.1332 0.66198 0.0
C1323 C 0.82703 0.16742 0.63174 0.0
H1324 H 0.83375 0.17743 0.73645 0.0
H1325 H 0.86368 0.14954 0.7576 0.0
H1326 H 0.86325 0.14942 0.71521 0.0
H1327 H 0.87346 0.14084 0.73633 0.0
H1328 H 0.83983 0.16213 0.608 0.0
H1329 H 0.80129 0.17722 0.58397 0.0
H1330 H 0.79868 0.17931 0.6264 0.0
H1331 H 0.78734 0.1839 0.60431 0.0
H1332 H 0.32275 0.82222 0.06587 0.0
H1333 H 0.35025 0.84958 0.05314 0.0
H1334 H 0.32996 0.89117 0.0664 0.0
H1335 H 0.30201 0.86358 0.07893 0.0
H1336 H 0.33984 0.89751 0.04131 0.0
H1337 H 0.37427 0.89284 0.08032 0.0
H1338 H 0.38405 0.87561 0.09717 0.0
H1339 H 0.41034 0.85544 0.06676 0.0
H1340 H 0.40046 0.87239 0.0497 0.0
H1341 H 0.43319 0.98945 0.02645 0.0
H1342 H 0.40195 0.96073 0.03539 0.0
H1343 H 0.42346 0.91962 0.02321 0.0
H1344 H 0.45539 0.94864 0.01507 0.0
H1345 H 0.41229 0.9128 0.04744 0.0
H1346 H 0.37632 0.91848 0.00833 0.0
H1347 H 0.3658 0.93659 0.9925 0.0
H1348 H 0.34278 0.95693 0.0248 0.0
H1349 H 0.35298 0.93885 0.04073 0.0
C1350 C 0.32419 0.83722 0.0661 0.0
C1351 C 0.31034 0.84081 0.0735 0.0
C1352 C 0.33996 0.85288 0.05884 0.0
C1353 C 0.34251 0.87261 0.05901 0.0
C1354 C 0.32838 0.87612 0.06614 0.0
C1355 C 0.31241 0.86035 0.07329 0.0
C1356 C 0.35998 0.88954 0.0518 0.0
C1357 C 0.35572 0.90099 0.04275 0.0
C1358 C 0.3807 0.89401 0.05352 0.0
C1359 C 0.3866 0.88381 0.06374 0.0
C1360 C 0.38206 0.88465 0.07723 0.0
C1361 C 0.38762 0.87495 0.08681 0.0
C1362 C 0.39782 0.86445 0.08304 0.0
C1363 C 0.40249 0.86363 0.06967 0.0
C1364 C 0.39695 0.8733 0.06004 0.0
C1365 C 0.43103 0.97421 0.02545 0.0
C1366 C 0.44658 0.97127 0.01985 0.0
C1367 C 0.41303 0.95771 0.03045 0.0
C1368 C 0.41001 0.9378 0.02981 0.0
C1369 C 0.42528 0.93477 0.02379 0.0
C1370 C 0.44348 0.95135 0.01899 0.0
C1371 C 0.39219 0.92066 0.03671 0.0
C1372 C 0.39641 0.90923 0.04584 0.0
C1373 C 0.37149 0.91647 0.03522 0.0
C1374 C 0.36564 0.92756 0.02569 0.0
C1375 C 0.3692 0.927 0.01202 0.0
C1376 C 0.36323 0.93717 0.00305 0.0
C1377 C 0.3538 0.94802 0.00766 0.0
C1378 C 0.35015 0.94858 0.02124 0.0
C1379 C 0.35592 0.9383 0.03023 0.0
H1380 H 0.34925 0.95591 1.0007 0.0
H1381 H 0.40212 0.85695 0.09047 0.0
H1382 H 0.14648 0.45977 0.08025 0.0
H1383 H 0.12174 0.46846 0.07057 0.0
H1384 H 0.14007 0.46122 0.03115 0.0
H1385 H 0.16534 0.45333 0.04073 0.0
H1386 H 0.13512 0.49324 0.03194 0.0
H1387 H 0.09529 0.42327 0.04597 0.0
H1388 H 0.08253 0.39533 0.06211 0.0
H1389 H 0.05695 0.42485 0.08578 0.0
H1390 H 0.0698 0.45311 0.06985 0.0
H1391 H 0.01702 0.44974 0.01261 0.0
H1392 H 0.04653 0.44661 0.02011 0.0
H1393 H 0.08194 0.51191 0.02708 0.0
H1394 H 0.05284 0.51507 0.01888 0.0
H1395 H 0.06085 0.45237 0.0434 0.0
H1396 H 0.1237 0.52933 0.03076 0.0
H1397 H 0.14109 0.55476 0.01318 0.0
H1398 H 0.12261 0.50622 0.98416 0.0
H1399 H 0.1043 0.48065 0.00147 0.0
C1400 C 0.14551 0.46037 0.06952 0.0
C1401 C 0.15786 0.4557 0.06128 0.0
C1402 C 0.13116 0.46512 0.064 0.0
C1403 C 0.12875 0.46518 0.05011 0.0
C1404 C 0.14152 0.46118 0.04189 0.0
C1405 C 0.15588 0.45649 0.04739 0.0
C1406 C 0.11273 0.46903 0.04404 0.0
C1407 C 0.11887 0.48431 0.03449 0.0
C1408 C 0.09149 0.45739 0.04725 0.0
C1409 C 0.0837 0.4404 0.0568 0.0
C1410 C 0.08708 0.42387 0.05467 0.0
C1411 C 0.07981 0.40797 0.06377 0.0
C1412 C 0.06899 0.40834 0.07498 0.0
C1413 C 0.06536 0.4246 0.0771 0.0
C1414 C 0.07262 0.44055 0.06804 0.0
C1415 C 0.03139 0.46349 0.01532 0.0
C1416 C 0.03272 0.48266 0.01492 0.0
C1417 C 0.04825 0.46171 0.0197 0.0
C1418 C 0.06673 0.47901 0.02417 0.0
C1419 C 0.06828 0.49833 0.02335 0.0
C1420 C 0.05151 0.50015 0.01868 0.0
C1421 C 0.08312 0.47633 0.03098 0.0
C1422 C 0.07708 0.46137 0.04084 0.0
C1423 C 0.10442 0.48802 0.02792 0.0
C1424 C 0.11233 0.50321 0.01729 0.0
C1425 C 0.12294 0.52418 0.02055 0.0
C1426 C 0.13296 0.53859 0.01065 0.0
C1427 C 0.13293 0.53212 0.99756 0.0
C1428 C 0.1225 0.51123 0.99429 0.0
C1429 C 0.11201 0.49679 0.00408 0.0
H1430 H 0.14097 0.54328 0.98994 0.0
H1431 H 0.06337 0.39601 0.08202 0.0
H1432 H 0.59361 0.71572 0.06316 0.0
H1433 H 0.57948 0.68129 0.05374 0.0
H1434 H 0.52298 0.68046 0.04296 0.0
H1435 H 0.53705 0.71503 0.05253 0.0
H1436 H 0.51455 0.64437 0.05282 0.0
H1437 H 0.55864 0.68838 0.01943 0.0
H1438 H 0.59057 0.71646 0.01002 0.0
H1439 H 0.62387 0.6859 0.02071 0.0
H1440 H 0.5922 0.65777 0.03037 0.0
H1441 H 0.48404 0.55609 0.01002 0.0
H1442 H 0.49367 0.59063 0.01781 0.0
H1443 H 0.55013 0.59789 0.03503 0.0
H1444 H 0.54073 0.56353 0.02728 0.0
H1445 H 0.55605 0.63116 0.0199 0.0
H1446 H 0.51052 0.58741 0.05415 0.0
H1447 H 0.4775 0.55918 0.06225 0.0
H1448 H 0.44554 0.5896 0.04843 0.0
H1449 H 0.47829 0.61778 0.03993 0.0
C1450 C 0.57822 0.70827 0.05872 0.0
C1451 C 0.56653 0.71817 0.05845 0.0
C1452 C 0.57015 0.68858 0.05334 0.0
C1453 C 0.55032 0.67843 0.04742 0.0
C1454 C 0.53835 0.68804 0.04744 0.0
C1455 C 0.54639 0.70775 0.05291 0.0
C1456 C 0.54232 0.65789 0.04114 0.0
C1457 C 0.52345 0.64154 0.04546 0.0
C1458 C 0.55397 0.65417 0.03156 0.0
C1459 C 0.57307 0.67104 0.02573 0.0
C1460 C 0.57281 0.68772 0.01987 0.0
C1461 C 0.59086 0.70364 0.01448 0.0
C1462 C 0.60925 0.70299 0.01479 0.0
C1463 C 0.60962 0.68639 0.02048 0.0
C1464 C 0.59161 0.67044 0.0259 0.0
C1465 C 0.49855 0.56507 0.01542 0.0
C1466 C 0.51168 0.55711 0.01798 0.0
C1467 C 0.50396 0.58475 0.01991 0.0
C1468 C 0.52258 0.59676 0.02701 0.0
C1469 C 0.53571 0.58885 0.02954 0.0
C1470 C 0.53025 0.56917 0.02515 0.0
C1471 C 0.52861 0.61764 0.03183 0.0
C1472 C 0.54709 0.63406 0.02718 0.0
C1473 C 0.51646 0.62141 0.04094 0.0
C1474 C 0.49683 0.60459 0.04625 0.0
C1475 C 0.49642 0.58799 0.05271 0.0
C1476 C 0.47775 0.57199 0.05737 0.0
C1477 C 0.45941 0.57253 0.05579 0.0
C1478 C 0.45973 0.58914 0.0496 0.0
C1479 C 0.47834 0.60513 0.04484 0.0
H1480 H 0.44496 0.56012 0.05939 0.0
H1481 H 0.6232 0.71533 0.01061 0.0
H1482 H 0.82162 0.28917 0.9625 0.0
H1483 H 0.84642 0.3241 0.97024 0.0
H1484 H 0.88721 0.33021 0.93815 0.0
H1485 H 0.8624 0.2954 0.9303 0.0
H1486 H 0.90658 0.34174 0.96415 0.0
H1487 H 0.86249 0.35435 0.93528 0.0
H1488 H 0.82904 0.3494 0.92707 0.0
H1489 H 0.8179 0.3679 0.96528 0.0
H1490 H 0.85117 0.37268 0.97379 0.0
H1491 H 0.97896 0.44694 0.97412 0.0
H1492 H 0.9539 0.41406 0.96393 0.0
H1493 H 0.90618 0.41122 0.98943 0.0
H1494 H 0.93076 0.44454 0.99906 0.0
H1495 H 0.8904 0.39792 0.96603 0.0
H1496 H 0.93214 0.38409 0.99567 0.0
H1497 H 0.96464 0.38833 0.0052 0.0
H1498 H 0.97891 0.37085 0.96763 0.0
H1499 H 0.94662 0.3668 0.95781 0.0
C1500 C 0.83584 0.29803 0.95707 0.0
C1501 C 0.84007 0.28963 0.94577 0.0
C1502 C 0.84994 0.31795 0.96147 0.0
C1503 C 0.86861 0.32971 0.95474 0.0
C1504 C 0.87287 0.32137 0.94346 0.0
C1505 C 0.85864 0.30157 0.93894 0.0
C1506 C 0.88391 0.35055 0.95966 0.0
C1507 C 0.9032 0.35414 0.96439 0.0
C1508 C 0.8792 0.36648 0.96032 0.0
C1509 C 0.85922 0.36367 0.95521 0.0
C1510 C 0.85282 0.35719 0.94197 0.0
C1511 C 0.83391 0.35445 0.93725 0.0
C1512 C 0.82132 0.35828 0.94566 0.0
C1513 C 0.82765 0.36491 0.95879 0.0
C1514 C 0.84654 0.36765 0.96356 0.0
C1515 C 0.96312 0.43938 0.97752 0.0
C1516 C 0.95702 0.44821 0.98765 0.0
C1517 C 0.94881 0.42049 0.97173 0.0
C1518 C 0.92822 0.40988 0.97611 0.0
C1519 C 0.92199 0.41897 0.98594 0.0
C1520 C 0.93618 0.43797 0.99157 0.0
C1521 C 0.91318 0.38922 0.9706 0.0
C1522 C 0.89389 0.3856 0.96577 0.0
C1523 C 0.91775 0.37313 0.97007 0.0
C1524 C 0.93707 0.37535 0.97597 0.0
C1525 C 0.94228 0.38128 0.98941 0.0
C1526 C 0.96065 0.38364 0.99487 0.0
C1527 C 0.97385 0.37991 0.98701 0.0
C1528 C 0.96868 0.37376 0.97369 0.0
C1529 C 0.95034 0.37142 0.96818 0.0
H1530 H 0.98807 0.38175 0.99125 0.0
H1531 H 0.80669 0.35616 0.94198 0.0
H1532 H 0.69475 0.51492 0.95603 0.0
H1533 H 0.6622 0.50818 0.96647 0.0
H1534 H 0.66705 0.56143 0.9478 0.0
H1535 H 0.6993 0.56812 0.93731 0.0
H1536 H 0.66027 0.5596 0.97571 0.0
H1537 H 0.63292 0.5171 0.9361 0.0
H1538 H 0.62771 0.48953 0.92038 0.0
H1539 H 0.60139 0.44558 0.95147 0.0
H1540 H 0.60677 0.47297 0.96744 0.0
H1541 H 0.56436 0.55335 0.98703 0.0
H1542 H 0.59672 0.55659 0.97933 0.0
H1543 H 0.57467 0.49351 0.98902 0.0
H1544 H 0.54144 0.48983 0.99551 0.0
H1545 H 0.59112 0.49865 0.96714 0.0
H1546 H 0.62117 0.53929 0.0072 0.0
H1547 H 0.62847 0.56598 0.02432 0.0
H1548 H 0.65069 0.61167 0.99416 0.0
H1549 H 0.64373 0.58526 0.97696 0.0
C1550 C 0.68875 0.52507 0.95409 0.0
C1551 C 0.69953 0.54198 0.94579 0.0
C1552 C 0.67015 0.52117 0.96001 0.0
C1553 C 0.66218 0.53428 0.95788 0.0
C1554 C 0.67288 0.55109 0.94955 0.0
C1555 C 0.69124 0.55481 0.94349 0.0
C1556 C 0.64323 0.53118 0.96475 0.0
C1557 C 0.6451 0.54634 0.97377 0.0
C1558 C 0.62359 0.51356 0.96259 0.0
C1559 C 0.62052 0.49713 0.95301 0.0
C1560 C 0.62626 0.5016 0.93963 0.0
C1561 C 0.62322 0.48599 0.93066 0.0
C1562 C 0.6143 0.46583 0.93493 0.0
C1563 C 0.60835 0.46122 0.94818 0.0
C1564 C 0.61139 0.47677 0.95719 0.0
C1565 C 0.56657 0.54027 0.98773 0.0
C1566 C 0.55052 0.5215 0.99225 0.0
C1567 C 0.58526 0.54219 0.98346 0.0
C1568 C 0.58866 0.52549 0.98388 0.0
C1569 C 0.57269 0.50675 0.98865 0.0
C1570 C 0.55372 0.50469 0.99257 0.0
C1571 C 0.60799 0.52716 0.97821 0.0
C1572 C 0.60626 0.51179 0.96931 0.0
C1573 C 0.6279 0.54443 0.98066 0.0
C1574 C 0.6316 0.56028 0.99084 0.0
C1575 C 0.62736 0.555 0.00426 0.0
C1576 C 0.63157 0.57008 0.01396 0.0
C1577 C 0.63985 0.59048 0.01031 0.0
C1578 C 0.64418 0.59586 0.99697 0.0
C1579 C 0.64022 0.58087 0.98726 0.0
H1580 H 0.64302 0.60211 0.01783 0.0
H1581 H 0.61194 0.45377 0.92797 0.0
H1582 H 0.45833 0.16969 0.94999 0.0
H1583 H 0.45762 0.14189 0.96257 0.0
H1584 H 0.49366 0.13372 0.9322 0.0
H1585 H 0.49345 0.16066 0.91923 0.0
H1586 H 0.46572 0.09798 0.94071 0.0
H1587 H 0.51577 0.16177 0.96171 0.0
H1588 H 0.52791 0.19545 0.97253 0.0
H1589 H 0.48393 0.16698 0.00375 0.0
H1590 H 0.47135 0.13314 0.99302 0.0
H1591 H 0.50813 0.04747 0.9756 0.0
H1592 H 0.50405 0.07346 0.96386 0.0
H1593 H 0.4669 0.07552 0.99603 0.0
H1594 H 0.47177 0.04997 0.00802 0.0
H1595 H 0.49243 0.11296 0.98728 0.0
H1596 H 0.44491 0.04796 0.96647 0.0
H1597 H 0.4358 0.0149 0.95572 0.0
H1598 H 0.47747 0.04628 0.92386 0.0
H1599 H 0.48709 0.07951 0.93459 0.0
C1600 C 0.46578 0.16174 0.94586 0.0
C1601 C 0.47617 0.16762 0.93365 0.0
C1602 C 0.46556 0.14598 0.95315 0.0
C1603 C 0.47597 0.13598 0.94848 0.0
C1604 C 0.48566 0.1413 0.93607 0.0
C1605 C 0.48572 0.15689 0.92873 0.0
C1606 C 0.47744 0.12048 0.95666 0.0
C1607 C 0.47166 0.10131 0.95086 0.0
C1608 C 0.48487 0.12465 0.97 0.0
C1609 C 0.49246 0.14497 0.97648 0.0
C1610 C 0.50859 0.16272 0.97083 0.0
C1611 C 0.51557 0.18183 0.97696 0.0
C1612 C 0.50666 0.18336 0.9888 0.0
C1613 C 0.49079 0.16577 0.99457 0.0
C1614 C 0.48374 0.14662 0.98847 0.0
C1615 C 0.49927 0.05368 0.98017 0.0
C1616 C 0.49017 0.04689 0.9926 0.0
C1617 C 0.49681 0.06837 0.97345 0.0
C1618 C 0.48472 0.07606 0.97891 0.0
C1619 C 0.47615 0.06967 0.99159 0.0
C1620 C 0.4789 0.05515 0.99841 0.0
C1621 C 0.48089 0.09057 0.97129 0.0
C1622 C 0.48622 0.10954 0.97718 0.0
C1623 C 0.4732 0.08626 0.958 0.0
C1624 C 0.46677 0.06624 0.95133 0.0
C1625 C 0.45216 0.04781 0.95718 0.0
C1626 C 0.44692 0.02903 0.95111 0.0
C1627 C 0.45605 0.02848 0.93912 0.0
C1628 C 0.47039 0.04671 0.93315 0.0
C1629 C 0.47571 0.06552 0.9392 0.0
H1630 H 0.45197 0.01393 0.93445 0.0
H1631 H 0.51208 0.19817 0.99353 0.0
H1632 H 0.69168 0.16883 0.94989 0.0
H1633 H 0.65855 0.14583 0.96036 0.0
H1634 H 0.67346 0.0976 0.95979 0.0
H1635 H 0.70681 0.12053 0.94987 0.0
H1636 H 0.63351 0.08563 0.94969 0.0
H1637 H 0.67746 0.12182 0.98791 0.0
H1638 H 0.70061 0.15261 1.00134 0.0
H1639 H 0.65275 0.16828 0.00378 0.0
H1640 H 0.62941 0.13771 0.99018 0.0
H1641 H 0.56252 0.00959 0.9904 0.0
H1642 H 0.59554 0.03769 0.98273 0.0
H1643 H 0.57242 0.07948 0.9876 0.0
H1644 H 0.53928 0.05132 0.99517 0.0
H1645 H 0.61467 0.09702 0.99505 0.0
H1646 H 0.57024 0.06192 0.95821 0.0
H1647 H 0.54584 0.03191 0.9446 0.0
H1648 H 0.59292 0.01583 0.93862 0.0
H1649 H 0.61751 0.04558 0.95241 0.0
C1650 C 0.68807 0.15341 0.95213 0.0
C1651 C 0.70199 0.14658 0.94892 0.0
C1652 C 0.66906 0.14027 0.95807 0.0
C1653 C 0.66357 0.12002 0.96085 0.0
C1654 C 0.67735 0.11314 0.95764 0.0
C1655 C 0.69638 0.12628 0.95186 0.0
C1656 C 0.64336 0.10573 0.96691 0.0
C1657 C 0.62948 0.08805 0.95964 0.0
C1658 C 0.63776 0.10928 0.9797 0.0
C1659 C 0.65179 0.12763 0.98788 0.0
C1660 C 0.67195 0.13194 0.99119 0.0
C1661 C 0.68509 0.14933 0.99886 0.0
C1662 C 0.67818 0.16244 0.00337 0.0
C1663 C 0.6581 0.15814 1.00025 0.0
C1664 C 0.6449 0.14078 0.99257 0.0
C1665 C 0.56467 0.02487 0.99009 0.0
C1666 C 0.54852 0.02836 0.99362 0.0
C1667 C 0.58348 0.04088 0.98569 0.0
C1668 C 0.58635 0.06062 0.98449 0.0
C1669 C 0.57054 0.06437 0.98851 0.0
C1670 C 0.55164 0.04829 0.9929 0.0
C1671 C 0.60516 0.07672 0.97794 0.0
C1672 C 0.61868 0.09472 0.98506 0.0
C1673 C 0.61031 0.07369 0.96489 0.0
C1674 C 0.59568 0.0559 0.95644 0.0
C1675 C 0.57535 0.05191 0.95408 0.0
C1676 C 0.56149 0.03495 0.94632 0.0
C1677 C 0.56782 0.02195 0.94077 0.0
C1678 C 0.58803 0.02591 0.94294 0.0
C1679 C 0.60195 0.04283 0.95072 0.0
H1680 H 0.55706 0.00884 0.93476 0.0
H1681 H 0.68838 0.17589 0.00931 0.0
H1682 H 0.87268 0.57298 0.93698 0.0
H1683 H 0.89619 0.56374 0.94759 0.0
H1684 H 0.8443 0.51182 0.96541 0.0
H1685 H 0.82069 0.5217 0.95543 0.0
H1686 H 0.87287 0.53076 0.98334 0.0
H1687 H 0.87365 0.50737 0.93909 0.0
H1688 H 0.87704 0.50938 0.91467 0.0
H1689 H 0.93997 0.55838 0.91891 0.0
H1690 H 0.93688 0.55686 0.94336 0.0
H1691 H 0.94639 0.49079 0.99519 0.0
H1692 H 0.91637 0.49326 0.98771 0.0
H1693 H 0.95451 0.55884 0.98639 0.0
H1694 H 0.98446 0.55651 0.99416 0.0
H1695 H 0.93035 0.52849 0.96036 0.0
H1696 H 0.92332 0.5582 0.00354 0.0
H1697 H 0.91646 0.5592 0.0275 0.0
H1698 H 0.86497 0.49779 0.0245 0.0
H1699 H 0.87138 0.49664 1.00049 0.0
C1700 C 0.86619 0.55961 0.94319 0.0
C1701 C 0.8447 0.54822 0.94541 0.0
C1702 C 0.87969 0.55414 0.94911 0.0
C1703 C 0.87209 0.5369 0.95721 0.0
C1704 C 0.8506 0.52516 0.95918 0.0
C1705 C 0.83707 0.53074 0.95335 0.0
C1706 C 0.88669 0.53202 0.96433 0.0
C1707 C 0.88515 0.52984 0.97821 0.0
C1708 C 0.90304 0.53115 0.95778 0.0
C1709 C 0.90497 0.53209 0.94307 0.0
C1710 C 0.88816 0.51867 0.93482 0.0
C1711 C 0.89004 0.51971 0.92097 0.0
C1712 C 0.9087 0.53402 0.91524 0.0
C1713 C 0.92553 0.5473 0.92336 0.0
C1714 C 0.92373 0.54634 0.93721 0.0
C1715 C 0.94822 0.50577 0.99383 0.0
C1716 C 0.96777 0.5235 0.99545 0.0
C1717 C 0.93104 0.50715 0.9895 0.0
C1718 C 0.93319 0.52625 0.98659 0.0
C1719 C 0.95246 0.54399 0.98874 0.0
C1720 C 0.96956 0.54262 0.99314 0.0
C1721 C 0.91657 0.52759 0.97928 0.0
C1722 C 0.91778 0.52905 0.96536 0.0
C1723 C 0.89991 0.52776 0.98573 0.0
C1724 C 0.89801 0.52724 1.00035 0.0
C1725 C 0.91077 0.54482 0.00808 0.0
C1726 C 0.90676 0.54552 0.0216 0.0
C1727 C 0.89015 0.52863 0.02749 0.0
C1728 C 0.87773 0.5109 0.01991 0.0
C1729 C 0.88154 0.51022 0.00636 0.0
H1730 H 0.88708 0.5292 0.03796 0.0
H1731 H 0.91012 0.5348 0.90452 0.0
H1732 H 0.4966 0.30484 0.9545 0.0
H1733 H 0.49677 0.33372 0.96593 0.0
H1734 H 0.45727 0.33547 0.93507 0.0
H1735 H 0.45736 0.30683 0.92345 0.0
H1736 H 0.49032 0.37325 0.94067 0.0
H1737 H 0.43788 0.31755 0.96529 0.0
H1738 H 0.42299 0.28607 0.97842 0.0
H1739 H 0.47005 0.31712 0.00857 0.0
H1740 H 0.4854 0.34872 0.99553 0.0
H1741 H 0.46657 0.44227 0.97475 0.0
H1742 H 0.46289 0.41142 0.96398 0.0
H1743 H 0.50686 0.41122 0.99192 0.0
H1744 H 0.51129 0.44246 0.00246 0.0
H1745 H 0.47024 0.37228 0.9878 0.0
H1746 H 0.52408 0.42639 0.96334 0.0
H1747 H 0.54105 0.45806 0.95042 0.0
H1748 H 0.49311 0.4305 0.92047 0.0
H1749 H 0.47574 0.39861 0.93325 0.0
C1750 C 0.48791 0.31134 0.95017 0.0
C1751 C 0.47696 0.30355 0.93808 0.0
C1752 C 0.4879 0.32775 0.95676 0.0
C1753 C 0.47691 0.33665 0.95139 0.0
C1754 C 0.4658 0.32878 0.9394 0.0
C1755 C 0.46573 0.31231 0.93284 0.0
C1756 C 0.47773 0.35471 0.95803 0.0
C1757 C 0.48555 0.37292 0.9509 0.0
C1758 C 0.4721 0.35444 0.97149 0.0
C1759 C 0.4629 0.33545 0.97936 0.0
C1760 C 0.44516 0.31762 0.97466 0.0
C1761 C 0.43662 0.29976 0.9821 0.0
C1762 C 0.4456 0.29958 0.99431 0.0
C1763 C 0.46312 0.31728 0.99911 0.0
C1764 C 0.47173 0.33517 0.9917 0.0
C1765 C 0.47546 0.4357 0.97865 0.0
C1766 C 0.4891 0.44482 0.98959 0.0
C1767 C 0.47332 0.41806 0.97246 0.0
C1768 C 0.4846 0.40908 0.97717 0.0
C1769 C 0.49793 0.41787 0.9882 0.0
C1770 C 0.50034 0.4357 0.99426 0.0
C1771 C 0.48276 0.3907 0.97042 0.0
C1772 C 0.47479 0.37249 0.97753 0.0
C1773 C 0.48839 0.39099 0.95698 0.0
C1774 C 0.49848 0.41019 0.94934 0.0
C1775 C 0.51702 0.42714 0.95406 0.0
C1776 C 0.52677 0.44509 0.94674 0.0
C1777 C 0.51817 0.44626 0.93462 0.0
C1778 C 0.49976 0.4295 0.92983 0.0
C1779 C 0.48997 0.41148 0.93711 0.0
H1780 H 0.52584 0.46013 0.92894 0.0
H1781 H 0.43896 0.28574 1.00005 0.0
H1782 H 0.19083 0.69193 0.06516 0.0
H1783 H 0.16245 0.66211 0.05401 0.0
H1784 H 0.12083 0.68435 0.0634 0.0
H1785 H 0.14936 0.71486 0.07408 0.0
H1786 H 0.1065 0.64239 0.07038 0.0
H1787 H 0.13388 0.6869 0.03299 0.0
H1788 H 0.1614 0.71023 0.01794 0.0
H1789 H 0.17433 0.66252 0.0074 0.0
H1790 H 0.14708 0.63899 0.02254 0.0
H1791 H 0.02204 0.56342 0.03265 0.0
H1792 H 0.04811 0.59587 0.04293 0.0
H1793 H 0.09667 0.58787 0.02588 0.0
H1794 H 0.07076 0.55603 0.01517 0.0
H1795 H 0.10632 0.62452 0.02268 0.0
H1796 H 0.08224 0.5807 0.0605 0.0
H1797 H 0.05795 0.55737 0.0771 0.0
H1798 H 0.04128 0.60231 0.08806 0.0
H1799 H 0.06532 0.62585 0.07141 0.0
C1800 C 0.17582 0.69086 0.06461 0.0
C1801 C 0.17252 0.70597 0.07054 0.0
C1802 C 0.15954 0.67365 0.0583 0.0
C1803 C 0.13956 0.67105 0.05788 0.0
C1804 C 0.13614 0.68606 0.06368 0.0
C1805 C 0.15248 0.70345 0.06984 0.0
C1806 C 0.12219 0.65228 0.05172 0.0
C1807 C 0.10618 0.63856 0.0599 0.0
C1808 C 0.12223 0.64713 0.03816 0.0
C1809 C 0.13855 0.66123 0.02899 0.0
C1810 C 0.14271 0.68143 0.02755 0.0
C1811 C 0.15823 0.69468 0.01899 0.0
C1812 C 0.16963 0.68787 0.01175 0.0
C1813 C 0.1655 0.66778 0.01303 0.0
C1814 C 0.15 0.65447 0.02159 0.0
C1815 C 0.03829 0.56857 0.03115 0.0
C1816 C 0.04433 0.55718 0.02307 0.0
C1817 C 0.05321 0.58708 0.0371 0.0
C1818 C 0.07446 0.59431 0.03535 0.0
C1819 C 0.08043 0.58276 0.02738 0.0
C1820 C 0.06556 0.56449 0.02126 0.0
C1821 C 0.09057 0.61418 0.04137 0.0
C1822 C 0.1064 0.62823 0.03316 0.0
C1823 C 0.09055 0.61943 0.05498 0.0
C1824 C 0.0754 0.60494 0.06458 0.0
C1825 C 0.07318 0.5855 0.06632 0.0
C1826 C 0.0595 0.57226 0.07577 0.0
C1827 C 0.04802 0.57833 0.0836 0.0
C1828 C 0.05014 0.59762 0.08197 0.0
C1829 C 0.0638 0.61091 0.07253 0.0
H1830 H 0.03754 0.56816 0.09099 0.0
H1831 H 0.18165 0.69816 0.00512 0.0
H1832 H 0.28507 0.42468 0.05227 0.0
H1833 H 0.31884 0.43434 0.043 0.0
H1834 H 0.34581 0.49227 0.06414 0.0
H1835 H 0.31184 0.48262 0.07354 0.0
H1836 H 0.36108 0.49705 0.03918 0.0
H1837 H 0.35322 0.45475 0.07581 0.0
H1838 H 0.33569 0.42448 0.09 0.0
H1839 H 0.33424 0.38604 0.05765 0.0
H1840 H 0.3515 0.41605 0.04319 0.0
H1841 H 0.46274 0.51339 0.02278 0.0
H1842 H 0.43208 0.51144 0.03258 0.0
H1843 H 0.3969 0.44708 0.02213 0.0
H1844 H 0.42842 0.44869 0.01398 0.0
H1845 H 0.3881 0.44954 0.04481 0.0
H1846 H 0.38188 0.49423 0.00741 0.0
H1847 H 0.39619 0.5263 0.99477 0.0
H1848 H 0.42651 0.56126 0.03013 0.0
H1849 H 0.41113 0.5296 0.04317 0.0
C1850 C 0.29818 0.43944 0.05504 0.0
C1851 C 0.29576 0.45274 0.06382 0.0
C1852 C 0.31751 0.44498 0.04969 0.0
C1853 C 0.335 0.46389 0.05305 0.0
C1854 C 0.33257 0.47756 0.06144 0.0
C1855 C 0.31313 0.47204 0.06679 0.0
C1856 C 0.35575 0.469 0.04793 0.0
C1857 C 0.36708 0.48672 0.04046 0.0
C1858 C 0.36377 0.45572 0.0497 0.0
C1859 C 0.35352 0.43764 0.05839 0.0
C1860 C 0.34904 0.43982 0.07169 0.0
C1861 C 0.33917 0.42271 0.07979 0.0
C1862 C 0.33382 0.40335 0.07472 0.0
C1863 C 0.33838 0.40106 0.06156 0.0
C1864 C 0.34823 0.41811 0.05341 0.0
C1865 C 0.44829 0.49898 0.02225 0.0
C1866 C 0.44781 0.48127 0.01728 0.0
C1867 C 0.43052 0.49788 0.02776 0.0
C1868 C 0.41162 0.4792 0.02792 0.0
C1869 C 0.41111 0.46174 0.0223 0.0
C1870 C 0.42909 0.46264 0.01748 0.0
C1871 C 0.39295 0.47691 0.0351 0.0
C1872 C 0.38209 0.4598 0.04327 0.0
C1873 C 0.38552 0.49088 0.03408 0.0
C1874 C 0.39589 0.5096 0.02614 0.0
C1875 C 0.3918 0.50876 0.01243 0.0
C1876 C 0.39995 0.52685 0.00523 0.0
C1877 C 0.4127 0.54572 0.01156 0.0
C1878 C 0.41685 0.54663 0.0252 0.0
C1879 C 0.40819 0.52867 0.03254 0.0
H1880 H 0.41914 0.55966 0.00592 0.0
H1881 H 0.32618 0.39012 0.08101 0.0
H1882 H 0.5699 0.84574 0.0385 0.0
H1883 H 0.55605 0.86637 0.02943 0.0
H1884 H 0.53949 0.87565 0.06892 0.0
H1885 H 0.55352 0.85515 0.07811 0.0
H1886 H 0.50914 0.8683 0.05039 0.0
H1887 H 0.58266 0.9123 0.0554 0.0
H1888 H 0.61943 0.92267 0.05251 0.0
H1889 H 0.61186 0.92181 0.01005 0.0
H1890 H 0.57493 0.91112 0.01268 0.0
H1891 H 0.50443 0.95915 0.0387 0.0
H1892 H 0.51363 0.93424 0.04687 0.0
H1893 H 0.52413 0.92157 0.00657 0.0
H1894 H 0.51493 0.94645 0.99841 0.0
H1895 H 0.55682 0.93 0.02505 0.0
H1896 H 0.4836 0.88698 0.02005 0.0
H1897 H 0.44696 0.87706 0.0229 0.0
H1898 H 0.45407 0.87662 0.06532 0.0
H1899 H 0.49092 0.88689 0.06274 0.0
C1900 C 0.56335 0.8522 0.04527 0.0
C1901 C 0.56303 0.84899 0.05905 0.0
C1902 C 0.55538 0.86392 0.04006 0.0
C1903 C 0.54701 0.87277 0.04853 0.0
C1904 C 0.5459 0.86896 0.06222 0.0
C1905 C 0.55388 0.85721 0.06745 0.0
C1906 C 0.54018 0.88665 0.04313 0.0
C1907 C 0.51962 0.88192 0.04499 0.0
C1908 C 0.55376 0.9042 0.03585 0.0
C1909 C 0.57598 0.9107 0.03423 0.0
C1910 C 0.58879 0.91416 0.04544 0.0
C1911 C 0.60967 0.92012 0.04385 0.0
C1912 C 0.61796 0.92284 0.0311 0.0
C1913 C 0.6054 0.91966 0.01992 0.0
C1914 C 0.5845 0.91366 0.02145 0.0
C1915 C 0.50854 0.9509 0.0316 0.0
C1916 C 0.50866 0.95442 0.0179 0.0
C1917 C 0.51372 0.93667 0.03626 0.0
C1918 C 0.51941 0.926 0.0273 0.0
C1919 C 0.51963 0.92957 0.01362 0.0
C1920 C 0.51413 0.94357 0.00894 0.0
C1921 C 0.52581 0.91163 0.0323 0.0
C1922 C 0.54633 0.91633 0.03041 0.0
C1923 C 0.51221 0.89412 0.03957 0.0
C1924 C 0.49008 0.88791 0.0412 0.0
C1925 C 0.47742 0.88497 0.03 0.0
C1926 C 0.45661 0.87924 0.03156 0.0
C1927 C 0.44823 0.87625 0.04428 0.0
C1928 C 0.46062 0.87897 0.05548 0.0
C1929 C 0.48147 0.88473 0.05397 0.0
H1930 H 0.43211 0.87174 0.04545 0.0
H1931 H 0.63413 0.92747 0.02989 0.0
H1932 H 0.0039 0.15596 0.40638 0.0
H1933 H 0.03072 0.18342 0.39332 0.0
H1934 H 0.99145 0.20968 0.38826 0.0
H1935 H 0.96451 0.1822 0.40135 0.0
H1936 H 0.00971 0.21025 0.36538 0.0
H1937 H 0.03194 0.22946 0.41079 0.0
H1938 H 0.04182 0.22568 0.43359 0.0
H1939 H 0.09167 0.2188 0.41826 0.0
H1940 H 0.08188 0.22225 0.39536 0.0
H1941 H 0.09314 0.31465 0.35338 0.0
H1942 H 0.06301 0.28353 0.36141 0.0
H1943 H 0.09626 0.25082 0.35696 0.0
H1944 H 0.12647 0.28195 0.3491 0.0
H1945 H 0.08097 0.25304 0.38372 0.0
H1946 H 0.04049 0.21499 0.33932 0.0
H1947 H 0.02781 0.21703 0.31694 0.0
H1948 H 0.01431 0.26281 0.33136 0.0
H1949 H 0.02636 0.26053 0.3539 0.0
C1950 C 1.00101 0.16766 0.40258 0.0
C1951 C 0.9821 0.16695 0.40501 0.0
C1952 C 0.01637 0.18335 0.39509 0.0
C1953 C 0.01325 0.19881 0.38996 0.0
C1954 C 0.99423 0.19793 0.39213 0.0
C1955 C 0.97881 0.18218 0.39959 0.0
C1956 C 0.02984 0.2159 0.38235 0.0
C1957 C 0.02522 0.2197 0.36949 0.0
C1958 C 0.05024 0.22811 0.38755 0.0
C1959 C 0.05599 0.22582 0.40133 0.0
C1960 C 0.04487 0.22691 0.41227 0.0
C1961 C 0.05048 0.22488 0.42522 0.0
C1962 C 0.06732 0.22193 0.42737 0.0
C1963 C 0.0786 0.22103 0.41658 0.0
C1964 C 0.07302 0.22302 0.40362 0.0
C1965 C 0.09375 0.30064 0.35374 0.0
C1966 C 0.11203 0.30065 0.35042 0.0
C1967 C 0.07649 0.28283 0.35822 0.0
C1968 C 0.07724 0.26475 0.35955 0.0
C1969 C 0.09524 0.26453 0.3558 0.0
C1970 C 0.11249 0.28233 0.35127 0.0
C1971 C 0.06074 0.24732 0.36686 0.0
C1972 C 0.06544 0.24347 0.37967 0.0
C1973 C 0.0404 0.23527 0.36174 0.0
C1974 C 0.03464 0.23787 0.34815 0.0
C1975 C 0.03494 0.22557 0.33765 0.0
C1976 C 0.02765 0.2266 0.325 0.0
C1977 C 0.02025 0.24004 0.32273 0.0
C1978 C 0.02009 0.25245 0.33312 0.0
C1979 C 0.02709 0.25126 0.34584 0.0
H1980 H 0.0147 0.24089 0.31291 0.0
H1981 H 0.07166 0.22039 0.43741 0.0
H1982 H 0.83799 0.8235 0.40425 0.0
H1983 H 0.8126 0.83109 0.39409 0.0
H1984 H 0.77982 0.77004 0.37704 0.0
H1985 H 0.80524 0.76265 0.38687 0.0
H1986 H 0.78381 0.7954 0.359 0.0
H1987 H 0.76272 0.78706 0.40495 0.0
H1988 H 0.76675 0.79459 0.4291 0.0
H1989 H 0.78124 0.85624 0.42192 0.0
H1990 H 0.7776 0.84918 0.39771 0.0
H1991 H 0.68009 0.78223 0.35068 0.0
H1992 H 0.71002 0.77997 0.35835 0.0
H1993 H 0.74792 0.84562 0.3576 0.0
H1994 H 0.71762 0.84804 0.35067 0.0
H1995 H 0.74414 0.82183 0.38328 0.0
H1996 H 0.7866 0.82487 0.33782 0.0
H1997 H 0.7846 0.81406 0.31429 0.0
H1998 H 0.72645 0.75972 0.32146 0.0
H1999 H 0.72869 0.76975 0.34511 0.0
C2000 C 0.82527 0.8117 0.39839 0.0
C2001 C 0.82375 0.79254 0.39625 0.0
C2002 C 0.81072 0.81602 0.39262 0.0
C2003 C 0.79416 0.80112 0.3848 0.0
C2004 C 0.79249 0.78189 0.38291 0.0
C2005 C 0.80709 0.77768 0.38852 0.0
C2006 C 0.77887 0.80547 0.3781 0.0
C2007 C 0.7751 0.80108 0.3644 0.0
C2008 C 0.76773 0.81335 0.38496 0.0
C2009 C 0.7702 0.81767 0.3995 0.0
C2010 C 0.76702 0.80229 0.40851 0.0
C2011 C 0.76921 0.80647 0.42221 0.0
C2012 C 0.7744 0.82592 0.42704 0.0
C2013 C 0.77735 0.84122 0.41817 0.0
C2014 C 0.77522 0.83714 0.40446 0.0
C2015 C 0.69493 0.79617 0.35183 0.0
C2016 C 0.69661 0.81527 0.34969 0.0
C2017 C 0.71212 0.79483 0.35604 0.0
C2018 C 0.73147 0.81255 0.35803 0.0
C2019 C 0.73329 0.83171 0.35579 0.0
C2020 C 0.71598 0.83307 0.35175 0.0
C2021 C 0.74872 0.81107 0.36437 0.0
C2022 C 0.75302 0.81626 0.37795 0.0
C2023 C 0.76013 0.80359 0.35749 0.0
C2024 C 0.75736 0.7985 0.3431 0.0
C2025 C 0.77325 0.81077 0.3343 0.0
C2026 C 0.77227 0.8046 0.321 0.0
C2027 C 0.75534 0.78626 0.31636 0.0
C2028 C 0.73944 0.77402 0.32503 0.0
C2029 C 0.74055 0.77996 0.33839 0.0
H2030 H 0.75455 0.78154 0.30605 0.0
H2031 H 0.77599 0.82909 0.43765 0.0
H2032 H 0.20625 0.05184 0.39105 0.0
H2033 H 0.19151 0.01734 0.38134 0.0
H2034 H 0.25207 0.02309 0.38207 0.0
H2035 H 0.26687 0.05756 0.39163 0.0
H2036 H 0.2333 0.00688 0.35913 0.0
H2037 H 0.21462 0.9951 0.40536 0.0
H2038 H 0.19879 0.99802 0.42615 0.0
H2039 H 0.13908 0.96974 0.40679 0.0
H2040 H 0.15461 0.96691 0.38581 0.0
H2041 H 0.21183 0.9048 0.35796 0.0
H2042 H 0.221 0.93926 0.36532 0.0
H2043 H 0.16013 0.92756 0.35394 0.0
H2044 H 0.15081 0.89294 0.34636 0.0
H2045 H 0.17557 0.94649 0.3805 0.0
H2046 H 0.19474 0.95537 0.33469 0.0
H2047 H 0.21121 0.95104 0.31467 0.0
H2048 H 0.27088 0.98403 0.33398 0.0
H2049 H 0.25471 0.98822 0.35424 0.0
C2050 C 0.21637 0.04567 0.38921 0.0
C2051 C 0.23772 0.0574 0.3921 0.0
C2052 C 0.20794 0.02597 0.38366 0.0
C2053 C 0.22065 0.01755 0.38107 0.0
C2054 C 0.24197 0.02929 0.38391 0.0
C2055 C 0.25041 0.049 0.38937 0.0
C2056 C 0.2119 0.99651 0.37542 0.0
C2057 C 0.22077 0.99369 0.36387 0.0
C2058 C 0.19517 0.97931 0.38139 0.0
C2059 C 0.18582 0.98103 0.39398 0.0
C2060 C 0.19814 0.98967 0.4055 0.0
C2061 C 0.18922 0.99128 0.41733 0.0
C2062 C 0.16795 0.98413 0.41778 0.0
C2063 C 0.15556 0.97531 0.40642 0.0
C2064 C 0.16441 0.9737 0.39456 0.0
C2065 C 0.20036 0.90949 0.35701 0.0
C2066 C 0.18063 0.89617 0.35151 0.0
C2067 C 0.20565 0.9292 0.3612 0.0
C2068 C 0.19126 0.93591 0.36011 0.0
C2069 C 0.17142 0.9226 0.35484 0.0
C2070 C 0.16619 0.90291 0.35045 0.0
C2071 C 0.19726 0.95697 0.36443 0.0
C2072 C 0.18789 0.95976 0.3757 0.0
C2073 C 0.21363 0.97414 0.35828 0.0
C2074 C 0.22348 0.97197 0.34603 0.0
C2075 C 0.21136 0.96157 0.33471 0.0
C2076 C 0.22064 0.95916 0.32331 0.0
C2077 C 0.24208 0.96723 0.32306 0.0
C2078 C 0.25427 0.97778 0.3342 0.0
C2079 C 0.24505 0.98019 0.34564 0.0
H2080 H 0.24924 0.96534 0.31423 0.0
H2081 H 0.16107 0.98538 0.42695 0.0
H2082 H 0.48914 0.62013 0.29734 0.0
H2083 H 0.51391 0.6551 0.305 0.0
H2084 H 0.54919 0.66483 0.26925 0.0
H2085 H 0.52436 0.62996 0.26148 0.0
H2086 H 0.57303 0.67642 0.29394 0.0
H2087 H 0.52207 0.68653 0.2708 0.0
H2088 H 0.48666 0.67953 0.26585 0.0
H2089 H 0.48075 0.69506 0.30624 0.0
H2090 H 0.51604 0.70187 0.31148 0.0
H2091 H 0.64238 0.78182 0.30614 0.0
H2092 H 0.61759 0.74928 0.2955 0.0
H2093 H 0.57108 0.74233 0.32366 0.0
H2094 H 0.59513 0.77555 0.33353 0.0
H2095 H 0.55311 0.72927 0.30155 0.0
H2096 H 0.60133 0.71707 0.32588 0.0
H2097 H 0.63586 0.72296 0.33241 0.0
H2098 H 0.64588 0.70966 0.29235 0.0
H2099 H 0.61152 0.70396 0.28554 0.0
C2100 C 0.50215 0.62977 0.29111 0.0
C2101 C 0.50481 0.62238 0.2788 0.0
C2102 C 0.51622 0.64972 0.29547 0.0
C2103 C 0.53333 0.66253 0.28767 0.0
C2104 C 0.53606 0.65518 0.2754 0.0
C2105 C 0.52182 0.63534 0.27094 0.0
C2106 C 0.54853 0.6835 0.29243 0.0
C2107 C 0.56882 0.68812 0.29544 0.0
C2108 C 0.54279 0.69848 0.29473 0.0
C2109 C 0.52163 0.69453 0.29156 0.0
C2110 C 0.51316 0.68829 0.27866 0.0
C2111 C 0.49312 0.68438 0.27579 0.0
C2112 C 0.48144 0.6868 0.28573 0.0
C2113 C 0.48981 0.69317 0.29855 0.0
C2114 C 0.50983 0.69708 0.30147 0.0
C2115 C 0.62685 0.77343 0.31004 0.0
C2116 C 0.62099 0.78109 0.32099 0.0
C2117 C 0.6127 0.75469 0.304 0.0
C2118 C 0.59256 0.74294 0.309 0.0
C2119 C 0.58654 0.7509 0.31966 0.0
C2120 C 0.60048 0.76985 0.32546 0.0
C2121 C 0.57777 0.72231 0.30326 0.0
C2122 C 0.55748 0.71769 0.30004 0.0
C2123 C 0.5834 0.70716 0.30106 0.0
C2124 C 0.60394 0.71029 0.30517 0.0
C2125 C 0.61095 0.71551 0.31845 0.0
C2126 C 0.63049 0.71881 0.3222 0.0
C2127 C 0.64308 0.71674 0.31279 0.0
C2128 C 0.63612 0.71129 0.29962 0.0
C2129 C 0.61662 0.70801 0.29581 0.0
H2130 H 0.6582 0.71932 0.31571 0.0
H2131 H 0.46593 0.68377 0.28349 0.0
H2132 H 0.36905 0.91009 0.27398 0.0
H2133 H 0.33642 0.90281 0.28429 0.0
H2134 H 0.33042 0.84791 0.30108 0.0
H2135 H 0.3634 0.85534 0.29094 0.0
H2136 H 0.29287 0.84454 0.28731 0.0
H2137 H 0.34383 0.88306 0.32152 0.0
H2138 H 0.37631 0.91223 0.33031 0.0
H2139 H 0.35491 0.95346 0.3197 0.0
H2140 H 0.32241 0.92455 0.31065 0.0
H2141 H 0.20683 0.82678 0.32657 0.0
H2142 H 0.23994 0.83069 0.31965 0.0
H2143 H 0.26228 0.89426 0.31135 0.0
H2144 H 0.22945 0.89055 0.31899 0.0
H2145 H 0.29217 0.89124 0.32226 0.0
H2146 H 0.24391 0.8558 0.28641 0.0
H2147 H 0.21174 0.82842 0.27589 0.0
H2148 H 0.22795 0.78369 0.28751 0.0
H2149 H 0.26012 0.81078 0.29823 0.0
C2150 C 0.36071 0.89639 0.27979 0.0
C2151 C 0.36872 0.88323 0.28162 0.0
C2152 C 0.34214 0.89231 0.28572 0.0
C2153 C 0.33106 0.87486 0.29347 0.0
C2154 C 0.33877 0.86146 0.29513 0.0
C2155 C 0.35759 0.86574 0.28939 0.0
C2156 C 0.31151 0.87089 0.29987 0.0
C2157 C 0.29268 0.8545 0.29513 0.0
C2158 C 0.3113 0.88426 0.30978 0.0
C2159 C 0.33077 0.90165 0.31529 0.0
C2160 C 0.34612 0.89836 0.32095 0.0
C2161 C 0.36452 0.91485 0.326 0.0
C2162 C 0.36769 0.93469 0.32553 0.0
C2163 C 0.35244 0.93808 0.32004 0.0
C2164 C 0.33402 0.92165 0.31496 0.0
C2165 C 0.21895 0.84169 0.32361 0.0
C2166 C 0.2158 0.85853 0.32372 0.0
C2167 C 0.23782 0.84386 0.31943 0.0
C2168 C 0.25364 0.86275 0.31483 0.0
C2169 C 0.25042 0.87956 0.31492 0.0
C2170 C 0.23166 0.87743 0.31924 0.0
C2171 C 0.27334 0.86498 0.30961 0.0
C2172 C 0.29226 0.8811 0.31455 0.0
C2173 C 0.2736 0.85159 0.29968 0.0
C2174 C 0.25431 0.83528 0.29324 0.0
C2175 C 0.24054 0.84011 0.2868 0.0
C2176 C 0.22233 0.82466 0.2808 0.0
C2177 C 0.21783 0.80437 0.28108 0.0
C2178 C 0.23149 0.79944 0.28733 0.0
C2179 C 0.24972 0.81483 0.29336 0.0
H2180 H 0.20379 0.79246 0.27641 0.0
H2181 H 0.38195 0.94744 0.32945 0.0
H2182 H 0.15218 0.52338 0.29021 0.0
H2183 H 0.15233 0.49611 0.30311 0.0
H2184 H 0.12762 0.45512 0.26909 0.0
H2185 H 0.12768 0.48243 0.25608 0.0
H2186 H 0.10921 0.43773 0.29513 0.0
H2187 H 0.17542 0.47574 0.27315 0.0
H2188 H 0.20759 0.50729 0.26747 0.0
H2189 H 0.22448 0.51943 0.30891 0.0
H2190 H 0.19221 0.48809 0.31485 0.0
H2191 H 0.13253 0.36056 0.31027 0.0
H2192 H 0.12806 0.38724 0.30022 0.0
H2193 H 0.16902 0.43069 0.32997 0.0
H2194 H 0.17464 0.40437 0.33956 0.0
H2195 H 0.17831 0.44777 0.30735 0.0
H2196 H 0.11444 0.40962 0.32994 0.0
H2197 H 0.08223 0.37887 0.33659 0.0
H2198 H 0.0604 0.3679 0.29601 0.0
H2199 H 0.09262 0.39843 0.28908 0.0
C2200 C 0.14647 0.50845 0.28556 0.0
C2201 C 0.13998 0.50498 0.27215 0.0
C2202 C 0.14662 0.49295 0.29292 0.0
C2203 C 0.14006 0.47368 0.28701 0.0
C2204 C 0.1327 0.4699 0.27381 0.0
C2205 C 0.13286 0.48549 0.26638 0.0
C2206 C 0.14218 0.45793 0.29431 0.0
C2207 C 0.12428 0.43977 0.29773 0.0
C2208 C 0.16185 0.46096 0.29801 0.0
C2209 C 0.1813 0.47971 0.29445 0.0
C2210 C 0.1859 0.48524 0.28106 0.0
C2211 C 0.20417 0.50306 0.27779 0.0
C2212 C 0.21804 0.51539 0.28783 0.0
C2213 C 0.2137 0.50989 0.30115 0.0
C2214 C 0.19543 0.49209 0.30447 0.0
C2215 C 0.14056 0.37576 0.31474 0.0
C2216 C 0.15374 0.38019 0.32588 0.0
C2217 C 0.13783 0.391 0.30902 0.0
C2218 C 0.14783 0.41094 0.31449 0.0
C2219 C 0.16099 0.41541 0.32561 0.0
C2220 C 0.16403 0.40025 0.33119 0.0
C2221 C 0.14529 0.42729 0.30822 0.0
C2222 C 0.16316 0.44564 0.30492 0.0
C2223 C 0.12554 0.42452 0.30484 0.0
C2224 C 0.10604 0.40624 0.30898 0.0
C2225 C 0.10283 0.40058 0.32242 0.0
C2226 C 0.08456 0.3832 0.32624 0.0
C2227 C 0.0693 0.37142 0.31673 0.0
C2228 C 0.07224 0.37703 0.30337 0.0
C2229 C 0.0905 0.3944 0.29949 0.0
H2230 H 0.05517 0.35795 0.3197 0.0
H2231 H 0.23218 0.52918 0.28528 0.0
H2232 H 0.351 0.46485 0.2674 0.0
H2233 H 0.31884 0.44323 0.27931 0.0
H2234 H 0.34509 0.4806 0.31475 0.0
H2235 H 0.3773 0.50228 0.30289 0.0
H2236 H 0.3277 0.43902 0.31929 0.0
H2237 H 0.3085 0.48392 0.29855 0.0
H2238 H 0.30379 0.50213 0.27988 0.0
H2239 H 0.26148 0.44478 0.26074 0.0
H2240 H 0.26616 0.42621 0.27921 0.0
H2241 H 0.20671 0.38801 0.33279 0.0
H2242 H 0.24046 0.41743 0.32751 0.0
H2243 H 0.26509 0.37704 0.32152 0.0
H2244 H 0.23179 0.34793 0.32749 0.0
H2245 H 0.25789 0.42452 0.30475 0.0
H2246 H 0.31306 0.39767 0.3226 0.0
H2247 H 0.31922 0.38114 0.34173 0.0
H2248 H 0.29131 0.40563 0.36782 0.0
H2249 H 0.2847 0.42207 0.34873 0.0
C2250 C 0.34985 0.46853 0.27771 0.0
C2251 C 0.36667 0.48525 0.28422 0.0
C2252 C 0.33144 0.45625 0.28447 0.0
C2253 C 0.32955 0.46036 0.2979 0.0
C2254 C 0.34621 0.4772 0.30438 0.0
C2255 C 0.36454 0.48963 0.29758 0.0
C2256 C 0.31057 0.44645 0.30534 0.0
C2257 C 0.31244 0.43595 0.31618 0.0
C2258 C 0.29069 0.44256 0.30135 0.0
C2259 C 0.28782 0.45368 0.29023 0.0
C2260 C 0.29832 0.47519 0.29031 0.0
C2261 C 0.29563 0.48558 0.27977 0.0
C2262 C 0.28238 0.47462 0.26912 0.0
C2263 C 0.27175 0.45325 0.269 0.0
C2264 C 0.2744 0.44278 0.27951 0.0
C2265 C 0.21957 0.38556 0.33091 0.0
C2266 C 0.21676 0.36573 0.33085 0.0
C2267 C 0.23884 0.40236 0.32774 0.0
C2268 C 0.25555 0.39962 0.32424 0.0
C2269 C 0.2528 0.37982 0.32454 0.0
C2270 C 0.23366 0.36311 0.32785 0.0
C2271 C 0.2749 0.4168 0.31869 0.0
C2272 C 0.27314 0.4278 0.30806 0.0
C2273 C 0.29492 0.4212 0.32288 0.0
C2274 C 0.29817 0.41086 0.33427 0.0
C2275 C 0.30814 0.39942 0.33241 0.0
C2276 C 0.31166 0.39003 0.34322 0.0
C2277 C 0.30551 0.39222 0.35596 0.0
C2278 C 0.29583 0.40379 0.35791 0.0
C2279 C 0.29206 0.41301 0.3471 0.0
H2280 H 0.30834 0.38503 0.36434 0.0
H2281 H 0.28031 0.48269 0.26097 0.0
H2282 H 0.53661 0.90266 0.26883 0.0
H2283 H 0.55975 0.89298 0.2796 0.0
H2284 H 0.51069 0.85349 0.30584 0.0
H2285 H 0.48761 0.86371 0.29539 0.0
H2286 H 0.54518 0.87604 0.31966 0.0
H2287 H 0.52755 0.83413 0.28042 0.0
H2288 H 0.5228 0.82593 0.25636 0.0
H2289 H 0.58777 0.86649 0.2503 0.0
H2290 H 0.59287 0.87518 0.2743 0.0
H2291 H 0.61109 0.82439 0.32907 0.0
H2292 H 0.58131 0.82776 0.32226 0.0
H2293 H 0.62114 0.89302 0.31975 0.0
H2294 H 0.65064 0.88988 0.32728 0.0
H2295 H 0.58799 0.85328 0.29536 0.0
H2296 H 0.60151 0.90063 0.33474 0.0
H2297 H 0.60353 0.90901 0.35868 0.0
H2298 H 0.5434 0.85637 0.36421 0.0
H2299 H 0.54144 0.84727 0.34034 0.0
C2300 C 0.5307 0.89191 0.27689 0.0
C2301 C 0.51023 0.88406 0.28127 0.0
C2302 C 0.54391 0.88619 0.28296 0.0
C2303 C 0.53696 0.87233 0.29348 0.0
C2304 C 0.51642 0.86416 0.29772 0.0
C2305 C 0.50317 0.86989 0.29165 0.0
C2306 C 0.5515 0.86734 0.30051 0.0
C2307 C 0.55433 0.8708 0.31433 0.0
C2308 C 0.56357 0.86058 0.29361 0.0
C2309 C 0.56056 0.85544 0.27916 0.0
C2310 C 0.5408 0.84144 0.27394 0.0
C2311 C 0.53805 0.83668 0.26032 0.0
C2312 C 0.55496 0.84572 0.25181 0.0
C2313 C 0.57468 0.85951 0.25691 0.0
C2314 C 0.57751 0.86435 0.27052 0.0
C2315 C 0.61332 0.83952 0.32766 0.0
C2316 C 0.63313 0.85695 0.32908 0.0
C2317 C 0.5963 0.84142 0.3237 0.0
C2318 C 0.59886 0.86072 0.3209 0.0
C2319 C 0.61859 0.87809 0.32239 0.0
C2320 C 0.63548 0.87624 0.32656 0.0
C2321 C 0.58195 0.86251 0.31438 0.0
C2322 C 0.57865 0.85833 0.30065 0.0
C2323 C 0.56944 0.86859 0.32133 0.0
C2324 C 0.57164 0.87292 0.33584 0.0
C2325 C 0.58905 0.89046 0.34112 0.0
C2326 C 0.59008 0.89547 0.35466 0.0
C2327 C 0.57362 0.88322 0.36297 0.0
C2328 C 0.55616 0.86584 0.35777 0.0
C2329 C 0.55516 0.86066 0.34427 0.0
H2330 H 0.5744 0.88718 0.37344 0.0
H2331 H 0.5528 0.842 0.24126 0.0
H2332 H 0.17962 0.65865 0.27935 0.0
H2333 H 0.17873 0.6864 0.29146 0.0
H2334 H 0.11655 0.66489 0.27692 0.0
H2335 H 0.11705 0.63668 0.26501 0.0
H2336 H 0.14225 0.70705 0.27473 0.0
H2337 H 0.12289 0.656 0.308 0.0
H2338 H 0.12632 0.63075 0.32143 0.0
H2339 H 0.18482 0.67814 0.33705 0.0
H2340 H 0.18189 0.70365 0.32357 0.0
H2341 H 0.12594 0.7734 0.31738 0.0
H2342 H 0.12171 0.74247 0.30635 0.0
H2343 H 0.18119 0.75546 0.32197 0.0
H2344 H 0.18532 0.78605 0.33326 0.0
H2345 H 0.15418 0.71609 0.32361 0.0
H2346 H 0.17365 0.76726 0.29013 0.0
H2347 H 0.1701 0.79247 0.27669 0.0
H2348 H 0.11167 0.74499 0.26112 0.0
H2349 H 0.1146 0.71956 0.27469 0.0
C2350 C 0.16561 0.65958 0.27886 0.0
C2351 C 0.14835 0.64531 0.27125 0.0
C2352 C 0.16518 0.67554 0.28574 0.0
C2353 C 0.14752 0.6776 0.28516 0.0
C2354 C 0.13035 0.66358 0.27747 0.0
C2355 C 0.1307 0.64751 0.27064 0.0
C2356 C 0.14709 0.69446 0.29258 0.0
C2357 C 0.14452 0.70889 0.28544 0.0
C2358 C 0.15046 0.697 0.30652 0.0
C2359 C 0.15225 0.68171 0.31468 0.0
C2360 C 0.13657 0.66102 0.31422 0.0
C2361 C 0.13841 0.64666 0.32185 0.0
C2362 C 0.1558 0.65283 0.33006 0.0
C2363 C 0.17137 0.67338 0.33068 0.0
C2364 C 0.16962 0.6878 0.32305 0.0
C2365 C 0.13805 0.76959 0.31856 0.0
C2366 C 0.15599 0.78223 0.32618 0.0
C2367 C 0.13564 0.75195 0.31219 0.0
C2368 C 0.15128 0.74682 0.31316 0.0
C2369 C 0.16892 0.75911 0.32107 0.0
C2370 C 0.17125 0.77662 0.32753 0.0
C2371 C 0.14957 0.7289 0.30576 0.0
C2372 C 0.15177 0.71424 0.3129 0.0
C2373 C 0.14591 0.72621 0.29181 0.0
C2374 C 0.14425 0.74153 0.28356 0.0
C2375 C 0.15996 0.76222 0.28393 0.0
C2376 C 0.15804 0.77656 0.2763 0.0
C2377 C 0.14064 0.77034 0.26811 0.0
C2378 C 0.12511 0.74978 0.26751 0.0
C2379 C 0.12688 0.73541 0.27518 0.0
H2380 H 0.13923 0.7814 0.26215 0.0
H2381 H 0.1572 0.64169 0.33597 0.0
H2382 H 0.84186 0.04534 0.39233 0.0
H2383 H 0.81197 0.01601 0.38162 0.0
H2384 H 0.81408 0.97621 0.41126 0.0
H2385 H 0.84426 0.00539 0.42175 0.0
H2386 H 0.80696 0.95799 0.38829 0.0
H2387 H 0.77764 0.99286 0.41169 0.0
H2388 H 0.77341 0.02209 0.41832 0.0
H2389 H 0.75849 0.02805 0.37788 0.0
H2390 H 0.76292 0.99902 0.37098 0.0
H2391 H 0.7057 0.87362 0.37593 0.0
H2392 H 0.73404 0.90388 0.38723 0.0
H2393 H 0.74042 0.94013 0.35285 0.0
H2394 H 0.71206 0.90993 0.34162 0.0
H2395 H 0.74265 0.95973 0.37818 0.0
H2396 H 0.77166 0.92329 0.35542 0.0
H2397 H 0.77358 0.89235 0.35005 0.0
H2398 H 0.78732 0.88794 0.39103 0.0
H2399 H 0.78503 0.91863 0.39671 0.0
C2400 C 0.83588 0.03033 0.39657 0.0
C2401 C 0.84538 0.02766 0.40788 0.0
C2402 C 0.81876 0.01357 0.39047 0.0
C2403 C 0.81052 0.99387 0.39573 0.0
C2404 C 0.82012 0.9912 0.40698 0.0
C2405 C 0.83739 0.0079 0.41297 0.0
C2406 C 0.79193 0.97603 0.38954 0.0
C2407 C 0.79284 0.95834 0.38625 0.0
C2408 C 0.77351 0.97645 0.38667 0.0
C2409 C 0.77082 0.9939 0.39079 0.0
C2410 C 0.77362 0.00051 0.40419 0.0
C2411 C 0.77116 0.01702 0.408 0.0
C2412 C 0.76574 0.02696 0.39852 0.0
C2413 C 0.76272 0.02036 0.38521 0.0
C2414 C 0.76519 0.00387 0.38135 0.0
C2415 C 0.71302 0.88815 0.37091 0.0
C2416 C 0.70707 0.88954 0.35788 0.0
C2417 C 0.72919 0.90535 0.37732 0.0
C2418 C 0.73944 0.92416 0.3708 0.0
C2419 C 0.73277 0.92573 0.35801 0.0
C2420 C 0.71677 0.90848 0.35155 0.0
C2421 C 0.75781 0.94191 0.37702 0.0
C2422 C 0.75683 0.9595 0.38027 0.0
C2423 C 0.77605 0.94131 0.38 0.0
C2424 C 0.77801 0.92318 0.37652 0.0
C2425 C 0.77496 0.91566 0.36331 0.0
C2426 C 0.77611 0.89816 0.36021 0.0
C2427 C 0.78056 0.88818 0.3702 0.0
C2428 C 0.78387 0.89569 0.38331 0.0
C2429 C 0.78266 0.91314 0.38647 0.0
H2430 H 0.78149 0.87467 0.36779 0.0
H2431 H 0.76384 0.03974 0.40149 0.0
H2432 H 0.96104 0.80396 0.38186 0.0
H2433 H 0.99411 0.81199 0.37208 0.0
H2434 H 0.01321 0.79769 0.40908 0.0
H2435 H 0.98067 0.79075 0.41917 0.0
H2436 H 0.04527 0.8287 0.39868 0.0
H2437 H 0.99247 0.76278 0.38231 0.0
H2438 H 0.95942 0.73803 0.37133 0.0
H2439 H 0.9792 0.77171 0.3351 0.0
H2440 H 0.01227 0.79683 0.34592 0.0
H2441 H 0.10377 0.78587 0.35938 0.0
H2442 H 0.07146 0.78258 0.36783 0.0
H2443 H 0.09603 0.84728 0.36286 0.0
H2444 H 0.1283 0.85059 0.35439 0.0
H2445 H 0.04252 0.79157 0.35689 0.0
H2446 H 0.08034 0.86329 0.39156 0.0
H2447 H 0.11332 0.88456 0.40379 0.0
H2448 H 0.12321 0.83335 0.40569 0.0
H2449 H 0.09013 0.81169 0.39371 0.0
C2450 C 0.97241 0.80295 0.38804 0.0
C2451 C 0.96797 0.79648 0.40131 0.0
C2452 C 0.99128 0.80732 0.38236 0.0
C2453 C 0.00607 0.80505 0.38973 0.0
C2454 C 0.00206 0.79944 0.40313 0.0
C2455 C 0.98328 0.79525 0.40885 0.0
C2456 C 0.02528 0.80763 0.38337 0.0
C2457 C 0.04462 0.82067 0.38949 0.0
C2458 C 0.02458 0.79689 0.37151 0.0
C2459 C 0.00473 0.7818 0.36497 0.0
C2460 C 0.9897 0.76499 0.37203 0.0
C2461 C 0.97098 0.75089 0.36583 0.0
C2462 C 0.96719 0.75333 0.35254 0.0
C2463 C 0.98214 0.76986 0.3454 0.0
C2464 C 1.00087 0.78403 0.35156 0.0
C2465 C 0.1021 0.79931 0.35991 0.0
C2466 C 0.11832 0.81837 0.35595 0.0
C2467 C 0.08366 0.79742 0.36471 0.0
C2468 C 0.08134 0.81468 0.366 0.0
C2469 C 0.0975 0.83377 0.36196 0.0
C2470 C 0.11587 0.83561 0.35701 0.0
C2471 C 0.06236 0.81276 0.37211 0.0
C2472 C 0.04311 0.79981 0.36596 0.0
C2473 C 0.06312 0.82315 0.38413 0.0
C2474 C 0.08289 0.83596 0.39155 0.0
C2475 C 0.08953 0.85656 0.39462 0.0
C2476 C 0.10824 0.86868 0.40151 0.0
C2477 C 0.12042 0.86035 0.40543 0.0
C2478 C 0.11384 0.83983 0.40255 0.0
C2479 C 0.09511 0.82763 0.39571 0.0
H2480 H 0.13489 0.86974 0.41077 0.0
H2481 H 0.95269 0.74239 0.34775 0.0
H2482 H 0.23953 0.18373 0.3735 0.0
H2483 H 0.22526 0.20428 0.3649 0.0
H2484 H 0.20722 0.21091 0.40456 0.0
H2485 H 0.22133 0.19013 0.41322 0.0
H2486 H 0.17793 0.20572 0.38624 0.0
H2487 H 0.25145 0.24852 0.39174 0.0
H2488 H 0.28812 0.25841 0.38897 0.0
H2489 H 0.28135 0.25928 0.34655 0.0
H2490 H 0.24454 0.2491 0.34905 0.0
H2491 H 0.17232 0.29603 0.37354 0.0
H2492 H 0.18178 0.27169 0.38244 0.0
H2493 H 0.19576 0.25998 0.34279 0.0
H2494 H 0.18663 0.28448 0.33395 0.0
H2495 H 0.22661 0.26777 0.36156 0.0
H2496 H 0.15298 0.22529 0.35625 0.0
H2497 H 0.11655 0.21611 0.3592 0.0
H2498 H 0.12381 0.21566 0.4016 0.0
H2499 H 0.16044 0.22516 0.39892 0.0
C2500 C 0.23244 0.18949 0.38037 0.0
C2501 C 0.23176 0.18554 0.39405 0.0
C2502 C 0.22427 0.20121 0.37545 0.0
C2503 C 0.21553 0.20945 0.38413 0.0
C2504 C 0.21395 0.20474 0.3977 0.0
C2505 C 0.22199 0.19287 0.40263 0.0
C2506 C 0.2091 0.22383 0.37911 0.0
C2507 C 0.18863 0.21942 0.38099 0.0
C2508 C 0.223 0.24158 0.37211 0.0
C2509 C 0.24518 0.24786 0.37057 0.0
C2510 C 0.25774 0.25068 0.38181 0.0
C2511 C 0.27855 0.25635 0.38029 0.0
C2512 C 0.28704 0.25942 0.36759 0.0
C2513 C 0.27475 0.25687 0.35638 0.0
C2514 C 0.25391 0.25116 0.35784 0.0
C2515 C 0.17737 0.2882 0.36674 0.0
C2516 C 0.17841 0.29181 0.35301 0.0
C2517 C 0.18265 0.27425 0.37182 0.0
C2518 C 0.18925 0.2639 0.36324 0.0
C2519 C 0.19052 0.2677 0.34954 0.0
C2520 C 0.18504 0.28147 0.34447 0.0
C2521 C 0.19543 0.24955 0.36857 0.0
C2522 C 0.2159 0.25405 0.3668 0.0
C2523 C 0.18156 0.232 0.37572 0.0
C2524 C 0.15951 0.22612 0.37739 0.0
C2525 C 0.14687 0.2234 0.36621 0.0
C2526 C 0.12618 0.21811 0.36783 0.0
C2527 C 0.11788 0.21532 0.38058 0.0
C2528 C 0.13027 0.21782 0.39174 0.0
C2529 C 0.15099 0.22315 0.39017 0.0
H2530 H 0.10184 0.21114 0.38179 0.0
H2531 H 0.30316 0.26382 0.36644 0.0
H2532 H 0.6399 0.52729 0.74358 0.0
H2533 H 0.6675 0.55461 0.7307 0.0
H2534 H 0.68119 0.51079 0.71249 0.0
H2535 H 0.65358 0.4834 0.72532 0.0
H2536 H 0.71661 0.54674 0.72226 0.0
H2537 H 0.65664 0.52737 0.6945 0.0
H2538 H 0.62115 0.52014 0.68958 0.0
H2539 H 0.63851 0.58173 0.70093 0.0
H2540 H 0.67405 0.58925 0.70611 0.0
H2541 H 0.78987 0.61631 0.67916 0.0
H2542 H 0.75867 0.58594 0.68603 0.0
H2543 H 0.73299 0.6233 0.69879 0.0
H2544 H 0.7635 0.65365 0.6904 0.0
H2545 H 0.70299 0.58875 0.69067 0.0
H2546 H 0.76135 0.60777 0.7205 0.0
H2547 H 0.79745 0.61652 0.72506 0.0
H2548 H 0.78363 0.55719 0.71063 0.0
H2549 H 0.74747 0.54816 0.70587 0.0
C2550 C 0.64879 0.5235 0.73682 0.0
C2551 C 0.64454 0.50322 0.73542 0.0
C2552 C 0.66447 0.53908 0.72943 0.0
C2553 C 0.67631 0.53468 0.72059 0.0
C2554 C 0.6722 0.51448 0.71923 0.0
C2555 C 0.65634 0.49885 0.72649 0.0
C2556 C 0.69318 0.55126 0.71293 0.0
C2557 C 0.71363 0.55576 0.71522 0.0
C2558 C 0.68931 0.56328 0.70396 0.0
C2559 C 0.66796 0.55881 0.70082 0.0
C2560 C 0.65285 0.53932 0.69606 0.0
C2561 C 0.63273 0.53518 0.6932 0.0
C2562 C 0.62756 0.55045 0.69498 0.0
C2563 C 0.64252 0.56991 0.69958 0.0
C2564 C 0.66266 0.57413 0.70247 0.0
C2565 C 0.77733 0.61807 0.68285 0.0
C2566 C 0.77905 0.63742 0.68392 0.0
C2567 C 0.75954 0.60063 0.68707 0.0
C2568 C 0.74367 0.60232 0.69336 0.0
C2569 C 0.74501 0.62154 0.69404 0.0
C2570 C 0.7625 0.63889 0.6893 0.0
C2571 C 0.72653 0.58448 0.70011 0.0
C2572 C 0.70602 0.57972 0.69767 0.0
C2573 C 0.73038 0.57241 0.70912 0.0
C2574 C 0.75174 0.57733 0.71277 0.0
C2575 C 0.766 0.59657 0.71834 0.0
C2576 C 0.78648 0.6016 0.72093 0.0
C2577 C 0.79284 0.58743 0.71811 0.0
C2578 C 0.77867 0.56814 0.71281 0.0
C2579 C 0.75817 0.56304 0.7102 0.0
H2580 H 0.80873 0.59139 0.72003 0.0
H2581 H 0.61198 0.54722 0.69275 0.0
H2582 H 0.51083 0.14737 0.71987 0.0
H2583 H 0.48382 0.15318 0.71036 0.0
H2584 H 0.43879 0.10777 0.73624 0.0
H2585 H 0.4657 0.1021 0.74588 0.0
H2586 H 0.42703 0.10274 0.70855 0.0
H2587 H 0.45363 0.15452 0.74335 0.0
H2588 H 0.4809 0.18455 0.75563 0.0
H2589 H 0.49494 0.22046 0.72038 0.0
H2590 H 0.46793 0.19053 0.70783 0.0
H2591 H 0.34049 0.11449 0.69563 0.0
H2592 H 0.36849 0.11012 0.70431 0.0
H2593 H 0.41313 0.1703 0.69068 0.0
H2594 H 0.38483 0.17562 0.68378 0.0
H2595 H 0.42645 0.16797 0.71179 0.0
H2596 H 0.40513 0.11679 0.67591 0.0
H2597 H 0.38101 0.08659 0.66218 0.0
H2598 H 0.35961 0.05035 0.69731 0.0
H2599 H 0.38384 0.08025 0.71115 0.0
C2600 C 0.4952 0.13876 0.72358 0.0
C2601 C 0.49039 0.12434 0.73365 0.0
C2602 C 0.47982 0.14213 0.71818 0.0
C2603 C 0.45932 0.13093 0.72262 0.0
C2604 C 0.45452 0.1166 0.7327 0.0
C2605 C 0.46993 0.11347 0.73825 0.0
C2606 C 0.44266 0.13353 0.71641 0.0
C2607 C 0.42676 0.11695 0.70931 0.0
C2608 C 0.44269 0.15223 0.71708 0.0
C2609 C 0.45892 0.17022 0.72462 0.0
C2610 C 0.46267 0.16876 0.73818 0.0
C2611 C 0.47805 0.18578 0.7452 0.0
C2612 C 0.48969 0.20439 0.73878 0.0
C2613 C 0.48594 0.20603 0.72534 0.0
C2614 C 0.47058 0.18905 0.71827 0.0
C2615 C 0.35632 0.12668 0.69434 0.0
C2616 C 0.36042 0.14509 0.68848 0.0
C2617 C 0.37247 0.12405 0.69913 0.0
C2618 C 0.39329 0.1395 0.69778 0.0
C2619 C 0.39735 0.15793 0.69183 0.0
C2620 C 0.38111 0.16088 0.68758 0.0
C2621 C 0.41061 0.13718 0.70357 0.0
C2622 C 0.42668 0.15379 0.71074 0.0
C2623 C 0.411 0.11858 0.70273 0.0
C2624 C 0.39597 0.1008 0.69453 0.0
C2625 C 0.39507 0.10243 0.68067 0.0
C2626 C 0.38149 0.08536 0.67289 0.0
C2627 C 0.36863 0.06664 0.67889 0.0
C2628 C 0.3695 0.06489 0.69267 0.0
C2629 C 0.38323 0.08185 0.70048 0.0
H2630 H 0.35809 0.05347 0.67284 0.0
H2631 H 0.50159 0.21755 0.74423 0.0
H2632 H 0.89306 0.37307 0.74731 0.0
H2633 H 0.87958 0.33784 0.73958 0.0
H2634 H 0.88406 0.35695 0.69886 0.0
H2635 H 0.89649 0.39205 0.70653 0.0
H2636 H 0.84989 0.32118 0.70182 0.0
H2637 H 0.92193 0.35004 0.71364 0.0
H2638 H 0.95276 0.36717 0.72837 0.0
H2639 H 0.92382 0.31832 0.75619 0.0
H2640 H 0.89268 0.30102 0.74169 0.0
H2641 H 0.85532 0.24192 0.66802 0.0
H2642 H 0.86358 0.27487 0.67781 0.0
H2643 H 0.85411 0.24929 0.71704 0.0
H2644 H 0.8457 0.21608 0.70711 0.0
H2645 H 0.88861 0.28689 0.71602 0.0
H2646 H 0.81722 0.25667 0.70238 0.0
H2647 H 0.7886 0.23909 0.68602 0.0
H2648 H 0.81797 0.29067 0.66029 0.0
H2649 H 0.84695 0.30843 0.6764 0.0
C2650 C 0.89078 0.36975 0.73672 0.0
C2651 C 0.89606 0.38547 0.72754 0.0
C2652 C 0.88327 0.34961 0.73231 0.0
C2653 C 0.88118 0.34481 0.71863 0.0
C2654 C 0.88566 0.3603 0.70946 0.0
C2655 C 0.893 0.38042 0.71387 0.0
C2656 C 0.87523 0.32389 0.71383 0.0
C2657 C 0.85843 0.31374 0.70487 0.0
C2658 C 0.88617 0.31402 0.71795 0.0
C2659 C 0.90489 0.32436 0.72666 0.0
C2660 C 0.92208 0.34303 0.72295 0.0
C2661 C 0.93962 0.35276 0.73125 0.0
C2662 C 0.94023 0.34387 0.74323 0.0
C2663 C 0.92331 0.32521 0.74692 0.0
C2664 C 0.90572 0.31543 0.73866 0.0
C2665 C 0.8545 0.24317 0.67866 0.0
C2666 C 0.84923 0.22634 0.68676 0.0
C2667 C 0.85943 0.26206 0.68428 0.0
C2668 C 0.85898 0.2644 0.69814 0.0
C2669 C 0.85437 0.24775 0.70631 0.0
C2670 C 0.84957 0.22884 0.70065 0.0
C2671 C 0.86338 0.28428 0.70401 0.0
C2672 C 0.8799 0.29423 0.71313 0.0
C2673 C 0.8523 0.29401 0.69995 0.0
C2674 C 0.83432 0.28385 0.69058 0.0
C2675 C 0.81758 0.26427 0.69323 0.0
C2676 C 0.80131 0.25425 0.68399 0.0
C2677 C 0.80148 0.26375 0.67212 0.0
C2678 C 0.81786 0.28334 0.6695 0.0
C2679 C 0.8342 0.2934 0.67869 0.0
H2680 H 0.78892 0.25593 0.66495 0.0
H2681 H 0.95382 0.35142 0.74964 0.0
H2682 H 0.20381 0.95552 0.60525 0.0
H2683 H 0.22645 0.98941 0.61507 0.0
H2684 H 0.17304 0.99274 0.62773 0.0
H2685 H 0.15019 0.95866 0.61793 0.0
H2686 H 0.20414 0.02979 0.61837 0.0
H2687 H 0.19759 0.97955 0.64962 0.0
H2688 H 0.19824 0.9489 0.65704 0.0
H2689 H 0.26276 0.97706 0.64753 0.0
H2690 H 0.26242 0.00779 0.63985 0.0
H2691 H 0.26153 0.11059 0.66581 0.0
H2692 H 0.23606 0.07747 0.65602 0.0
H2693 H 0.2855 0.069 0.64125 0.0
H2694 H 0.31104 0.10192 0.65108 0.0
H2695 H 0.2546 0.03436 0.65263 0.0
H2696 H 0.26096 0.084 0.62068 0.0
H2697 H 0.2608 0.11505 0.61364 0.0
H2698 H 0.19703 0.08841 0.62475 0.0
H2699 H 0.19691 0.05728 0.63206 0.0
C2700 C 0.19686 0.96346 0.6101 0.0
C2701 C 0.1752 0.95429 0.61097 0.0
C2702 C 0.20982 0.98286 0.61568 0.0
C2703 C 0.20143 0.99344 0.62234 0.0
C2704 C 0.17982 0.9848 0.62267 0.0
C2705 C 0.1668 0.96536 0.61704 0.0
C2706 C 0.21532 0.01299 0.62951 0.0
C2707 C 0.21496 0.03075 0.626 0.0
C2708 C 0.22963 0.01429 0.63934 0.0
C2709 C 0.22993 0.9959 0.64405 0.0
C2710 C 0.21188 0.97915 0.64902 0.0
C2711 C 0.2122 0.96177 0.65328 0.0
C2712 C 0.23052 0.96101 0.65273 0.0
C2713 C 0.24857 0.97766 0.64794 0.0
C2714 C 0.24834 0.99507 0.64364 0.0
C2715 C 0.267 0.1016 0.6606 0.0
C2716 C 0.28834 0.1089 0.65925 0.0
C2717 C 0.25241 0.08274 0.65494 0.0
C2718 C 0.25891 0.07088 0.64782 0.0
C2719 C 0.28017 0.07793 0.6467 0.0
C2720 C 0.29475 0.0968 0.65229 0.0
C2721 C 0.24363 0.05119 0.64138 0.0
C2722 C 0.2437 0.03339 0.64505 0.0
C2723 C 0.22911 0.04989 0.63172 0.0
C2724 C 0.22898 0.06839 0.62704 0.0
C2725 C 0.24694 0.08481 0.6217 0.0
C2726 C 0.2469 0.10243 0.61765 0.0
C2727 C 0.22894 0.10374 0.61878 0.0
C2728 C 0.21095 0.08739 0.6239 0.0
C2729 C 0.21091 0.06974 0.62799 0.0
H2730 H 0.22895 0.1174 0.61566 0.0
H2731 H 0.23073 0.94754 0.65604 0.0
H2732 H 0.04919 0.2232 0.63877 0.0
H2733 H 0.01539 0.21429 0.64755 0.0
H2734 H 0.98742 0.19076 0.60888 0.0
H2735 H 0.02144 0.20095 0.59978 0.0
H2736 H 0.97272 0.21217 0.61781 0.0
H2737 H 0.98089 0.15933 0.63667 0.0
H2738 H 0.99783 0.14362 0.64906 0.0
H2739 H 0.99806 0.17576 0.68469 0.0
H2740 H 0.98139 0.19191 0.67248 0.0
H2741 H 0.87277 0.15614 0.65899 0.0
H2742 H 0.90503 0.15829 0.65168 0.0
H2743 H 0.93402 0.22402 0.65049 0.0
H2744 H 0.90176 0.22188 0.6579 0.0
H2745 H 0.94546 0.17699 0.66058 0.0
H2746 H 0.96162 0.24004 0.62216 0.0
H2747 H 0.94174 0.25146 0.6086 0.0
H2748 H 0.88838 0.19116 0.60958 0.0
H2749 H 0.90804 0.1793 0.62294 0.0
C2750 C 0.03591 0.21623 0.63206 0.0
C2751 C 0.03824 0.213 0.61849 0.0
C2752 C 0.01644 0.21083 0.63718 0.0
C2753 C 0.99866 0.20162 0.62895 0.0
C2754 C 1.00083 0.19783 0.61548 0.0
C2755 C 0.02035 0.20348 0.61031 0.0
C2756 C 0.9781 0.19713 0.63417 0.0
C2757 C 0.96682 0.2044 0.62714 0.0
C2758 C 0.96997 0.18661 0.64623 0.0
C2759 C 0.98007 0.17699 0.65361 0.0
C2760 C 0.98471 0.16319 0.64712 0.0
C2761 C 0.99424 0.15418 0.65412 0.0
C2762 C 0.99907 0.15873 0.66765 0.0
C2763 C 0.99434 0.17227 0.67421 0.0
C2764 C 0.98483 0.18134 0.66726 0.0
C2765 C 0.88616 0.17106 0.65756 0.0
C2766 C 0.88491 0.1889 0.65932 0.0
C2767 C 0.90459 0.17227 0.6533 0.0
C2768 C 0.9219 0.19131 0.65043 0.0
C2769 C 0.92081 0.20916 0.65253 0.0
C2770 C 0.90243 0.20794 0.6568 0.0
C2771 C 0.94065 0.19255 0.64438 0.0
C2772 C 0.95148 0.18468 0.65124 0.0
C2773 C 0.94807 0.20194 0.63195 0.0
C2774 C 0.93628 0.20885 0.62366 0.0
C2775 C 0.94569 0.2292 0.61942 0.0
C2776 C 0.93445 0.23575 0.61178 0.0
C2777 C 0.9138 0.22206 0.60827 0.0
C2778 C 0.90436 0.20177 0.61234 0.0
C2779 C 0.91555 0.19513 0.61996 0.0
H2780 H 0.90512 0.22718 0.60237 0.0
H2781 H 0.00644 0.15173 0.67305 0.0
H2782 H 0.82197 0.82711 0.5847 0.0
H2783 H 0.82052 0.7993 0.59765 0.0
H2784 H 0.81141 0.82573 0.6335 0.0
H2785 H 0.8134 0.85396 0.62063 0.0
H2786 H 0.83992 0.81369 0.63725 0.0
H2787 H 0.77144 0.78475 0.61875 0.0
H2788 H 0.745 0.77521 0.60103 0.0
H2789 H 0.76559 0.73738 0.58208 0.0
H2790 H 0.79235 0.74691 0.5996 0.0
H2791 H 0.81588 0.72622 0.6755 0.0
H2792 H 0.81272 0.75333 0.66466 0.0
H2793 H 0.81967 0.73111 0.62633 0.0
H2794 H 0.82272 0.70401 0.63719 0.0
H2795 H 0.79022 0.74116 0.62527 0.0
H2796 H 0.86045 0.77232 0.64228 0.0
H2797 H 0.886 0.78003 0.66035 0.0
H2798 H 0.8619 0.81274 0.68203 0.0
H2799 H 0.83595 0.80491 0.66419 0.0
C2800 C 0.81978 0.82709 0.59535 0.0
C2801 C 0.81778 0.84273 0.60163 0.0
C2802 C 0.81879 0.81109 0.60272 0.0
C2803 C 0.81565 0.81035 0.61652 0.0
C2804 C 0.81377 0.82599 0.62285 0.0
C2805 C 0.81473 0.842 0.61547 0.0
C2806 C 0.81451 0.79328 0.6243 0.0
C2807 C 0.82885 0.79784 0.63476 0.0
C2808 C 0.80027 0.77259 0.62092 0.0
C2809 C 0.78409 0.76676 0.61041 0.0
C2810 C 0.77047 0.77454 0.61074 0.0
C2811 C 0.75539 0.7691 0.60075 0.0
C2812 C 0.75367 0.75575 0.59041 0.0
C2813 C 0.76697 0.74775 0.59008 0.0
C2814 C 0.78208 0.75316 0.60004 0.0
C2815 C 0.81695 0.72727 0.66482 0.0
C2816 C 0.81984 0.71322 0.65723 0.0
C2817 C 0.815 0.74266 0.6586 0.0
C2818 C 0.81627 0.74442 0.64469 0.0
C2819 C 0.81862 0.73003 0.63708 0.0
C2820 C 0.82034 0.71455 0.64329 0.0
C2821 C 0.81582 0.76157 0.63802 0.0
C2822 C 0.8012 0.75703 0.62779 0.0
C2823 C 0.82985 0.78224 0.64156 0.0
C2824 C 0.84616 0.78791 0.65195 0.0
C2825 C 0.86059 0.78114 0.65091 0.0
C2826 C 0.87512 0.7855 0.66112 0.0
C2827 C 0.87554 0.79683 0.67234 0.0
C2828 C 0.86153 0.80395 0.67334 0.0
C2829 C 0.84692 0.79957 0.66318 0.0
H2830 H 0.88674 0.80012 0.68026 0.0
H2831 H 0.74198 0.75156 0.58269 0.0
H2832 H 0.01409 0.80874 0.59601 0.0
H2833 H 0.9818 0.78566 0.6072 0.0
H2834 H 0.01175 0.80944 0.64535 0.0
H2835 H 0.04426 0.83169 0.63432 0.0
H2836 H 0.99224 0.76998 0.6456 0.0
H2837 H 0.97447 0.81987 0.63234 0.0
H2838 H 0.96965 0.84219 0.61681 0.0
H2839 H 0.92487 0.78955 0.59433 0.0
H2840 H 0.92964 0.76691 0.60962 0.0
H2841 H 0.87283 0.72113 0.66345 0.0
H2842 H 0.90618 0.7504 0.65732 0.0
H2843 H 0.92897 0.70929 0.64795 0.0
H2844 H 0.89649 0.68051 0.65526 0.0
H2845 H 0.92279 0.76034 0.63523 0.0
H2846 H 0.9746 0.72665 0.64624 0.0
H2847 H 0.98131 0.70766 0.66354 0.0
H2848 H 0.96079 0.73409 0.69365 0.0
H2849 H 0.95384 0.7531 0.6764 0.0
C2850 C 0.01381 0.8091 0.60678 0.0
C2851 C 0.03188 0.82209 0.61423 0.0
C2852 C 0.99524 0.79604 0.61317 0.0
C2853 C 0.99427 0.79587 0.62713 0.0
C2854 C 0.01209 0.80929 0.63457 0.0
C2855 C 0.03066 0.82221 0.62821 0.0
C2856 C 0.97524 0.78069 0.63405 0.0
C2857 C 0.97708 0.768 0.64337 0.0
C2858 C 0.95544 0.77813 0.6313 0.0
C2859 C 0.95255 0.7917 0.62207 0.0
C2860 C 0.96372 0.81306 0.62403 0.0
C2861 C 0.96097 0.82577 0.61527 0.0
C2862 C 0.947 0.8173 0.60457 0.0
C2863 C 0.93571 0.79609 0.60261 0.0
C2864 C 0.93841 0.78331 0.61133 0.0
C2865 C 0.88531 0.71852 0.66066 0.0
C2866 C 0.88233 0.69863 0.66027 0.0
C2867 C 0.90432 0.73523 0.65696 0.0
C2868 C 0.92048 0.73228 0.65239 0.0
C2869 C 0.91731 0.71231 0.65196 0.0
C2870 C 0.89858 0.69576 0.65599 0.0
C2871 C 0.93976 0.74961 0.64685 0.0
C2872 C 0.93798 0.76253 0.63763 0.0
C2873 C 0.95974 0.75272 0.64986 0.0
C2874 C 0.96329 0.74088 0.6601 0.0
C2875 C 0.9714 0.72826 0.65655 0.0
C2876 C 0.97522 0.7175 0.66632 0.0
C2877 C 0.97129 0.71953 0.67967 0.0
C2878 C 0.96357 0.73235 0.68328 0.0
C2879 C 0.95953 0.74297 0.67352 0.0
H2880 H 0.97434 0.71126 0.68723 0.0
H2881 H 0.94489 0.82717 0.59781 0.0
H2882 H 0.15535 0.18922 0.62352 0.0
H2883 H 0.17891 0.17816 0.63212 0.0
H2884 H 0.23004 0.22856 0.6126 0.0
H2885 H 0.20655 0.23913 0.60355 0.0
H2886 H 0.23354 0.19586 0.61003 0.0
H2887 H 0.21965 0.2295 0.64639 0.0
H2888 H 0.1979 0.23499 0.66242 0.0
H2889 H 0.17567 0.17484 0.67778 0.0
H2890 H 0.19708 0.16889 0.6617 0.0
H2891 H 0.32124 0.21718 0.6503 0.0
H2892 H 0.29158 0.21917 0.64148 0.0
H2893 H 0.25088 0.15585 0.65082 0.0
H2894 H 0.2806 0.1535 0.65902 0.0
H2895 H 0.23924 0.18989 0.65882 0.0
H2896 H 0.25535 0.15746 0.62298 0.0
H2897 H 0.27917 0.15376 0.60779 0.0
H2898 H 0.29869 0.2132 0.59209 0.0
H2899 H 0.27526 0.21743 0.60739 0.0
C2900 C 0.17155 0.19776 0.62089 0.0
C2901 C 0.17905 0.21522 0.61294 0.0
C2902 C 0.18506 0.19154 0.62593 0.0
C2903 C 0.20636 0.20271 0.6232 0.0
C2904 C 0.21372 0.21971 0.61492 0.0
C2905 C 0.20026 0.22588 0.60985 0.0
C2906 C 0.22123 0.19718 0.62916 0.0
C2907 C 0.23476 0.19462 0.6207 0.0
C2908 C 0.22267 0.1951 0.64309 0.0
C2909 C 0.20972 0.19864 0.65271 0.0
C2910 C 0.20996 0.21737 0.65309 0.0
C2911 C 0.19773 0.22058 0.6622 0.0
C2912 C 0.18534 0.20524 0.67107 0.0
C2913 C 0.18522 0.18668 0.67087 0.0
C2914 C 0.19739 0.18338 0.66176 0.0
C2915 C 0.30593 0.20374 0.65057 0.0
C2916 C 0.30316 0.18538 0.65575 0.0
C2917 C 0.28905 0.2049 0.64555 0.0
C2918 C 0.26908 0.1877 0.64561 0.0
C2919 C 0.26617 0.16933 0.65083 0.0
C2920 C 0.28315 0.16807 0.65562 0.0
C2921 C 0.25152 0.18893 0.63969 0.0
C2922 C 0.23765 0.19078 0.64814 0.0
C2923 C 0.24981 0.19044 0.62579 0.0
C2924 C 0.2637 0.18785 0.61643 0.0
C2925 C 0.26487 0.16983 0.61639 0.0
C2926 C 0.27827 0.16762 0.60774 0.0
C2927 C 0.29047 0.18325 0.59901 0.0
C2928 C 0.28924 0.20111 0.59888 0.0
C2929 C 0.2759 0.20342 0.60753 0.0
H2930 H 0.30083 0.18151 0.59231 0.0
H2931 H 0.1759 0.20776 0.67813 0.0
H2932 H 0.78137 0.96697 0.59506 0.0
H2933 H 0.77958 0.9945 0.60699 0.0
H2934 H 0.83996 0.01494 0.62441 0.0
H2935 H 0.84208 0.98782 0.61237 0.0
H2936 H 0.81253 0.0142 0.6427 0.0
H2937 H 0.8346 0.03882 0.59826 0.0
H2938 H 0.83155 0.03743 0.57376 0.0
H2939 H 0.7742 0.03762 0.57633 0.0
H2940 H 0.77673 0.03864 0.60087 0.0
H2941 H 0.84924 0.11555 0.66339 0.0
H2942 H 0.84321 0.08396 0.65269 0.0
H2943 H 0.78595 0.07493 0.63557 0.0
H2944 H 0.79217 0.10702 0.64608 0.0
H2945 H 0.80691 0.06736 0.61757 0.0
H2946 H 0.78627 0.04566 0.66213 0.0
H2947 H 0.78978 0.04757 0.68661 0.0
H2948 H 0.84441 0.04241 0.68391 0.0
H2949 H 0.84134 0.04063 0.6594 0.0
C2950 C 0.79431 0.97738 0.60138 0.0
C2951 C 0.81189 0.97519 0.60273 0.0
C2952 C 0.79322 0.99305 0.60822 0.0
C2953 C 0.80969 0.00682 0.61651 0.0
C2954 C 0.82703 0.0044 0.61811 0.0
C2955 C 0.82817 0.98882 0.61125 0.0
C2956 C 0.80926 0.02413 0.6233 0.0
C2957 C 0.8114 0.02589 0.63721 0.0
C2958 C 0.80721 0.03906 0.61615 0.0
C2959 C 0.8057 0.0385 0.6014 0.0
C2960 C 0.82123 0.03835 0.5936 0.0
C2961 C 0.81962 0.03766 0.57971 0.0
C2962 C 0.80264 0.03732 0.5735 0.0
C2963 C 0.7873 0.03779 0.58116 0.0
C2964 C 0.78881 0.03842 0.59506 0.0
C2965 C 0.83522 0.10677 0.65749 0.0
C2966 C 0.82106 0.11369 0.65571 0.0
C2967 C 0.83177 0.08864 0.65138 0.0
C2968 C 0.81391 0.07682 0.64354 0.0
C2969 C 0.79978 0.08374 0.64165 0.0
C2970 C 0.80333 0.10205 0.64767 0.0
C2971 C 0.81052 0.05764 0.63698 0.0
C2972 C 0.80768 0.05552 0.6231 0.0
C2973 C 0.81188 0.04235 0.64417 0.0
C2974 C 0.81361 0.04308 0.65892 0.0
C2975 C 0.79907 0.04499 0.66675 0.0
C2976 C 0.80096 0.04601 0.68063 0.0
C2977 C 0.8173 0.04508 0.68681 0.0
C2978 C 0.83175 0.04308 0.67911 0.0
C2979 C 0.8299 0.042 0.66523 0.0
H2980 H 0.81878 0.04596 0.69755 0.0
H2981 H 0.80141 0.03674 0.56274 0.0
H2982 H 0.48631 0.37059 0.74626 0.0
H2983 H 0.45713 0.34205 0.73447 0.0
H2984 H 0.49912 0.32607 0.71571 0.0
H2985 H 0.52839 0.35501 0.72702 0.0
H2986 H 0.47092 0.32279 0.69825 0.0
H2987 H 0.47005 0.30048 0.74313 0.0
H2988 H 0.46856 0.30178 0.76762 0.0
H2989 H 0.40972 0.29902 0.76485 0.0
H2990 H 0.41099 0.29795 0.74034 0.0
H2991 H 0.4039 0.21963 0.67931 0.0
H2992 H 0.43063 0.25154 0.68951 0.0
H2993 H 0.38364 0.26259 0.70579 0.0
H2994 H 0.35666 0.23042 0.69575 0.0
H2995 H 0.41269 0.26975 0.7241 0.0
H2996 H 0.41262 0.28949 0.67899 0.0
H2997 H 0.41347 0.28573 0.65462 0.0
H2998 H 0.47383 0.29201 0.65786 0.0
H2999 H 0.47323 0.29553 0.68228 0.0
C3000 C 0.48937 0.36119 0.73948 0.0
C3001 C 0.5097 0.36502 0.73767 0.0
C3002 C 0.47264 0.34474 0.73285 0.0
C3003 C 0.47588 0.3317 0.72436 0.0
C3004 C 0.4962 0.33584 0.72226 0.0
C3005 C 0.51292 0.35229 0.72884 0.0
C3006 C 0.45817 0.31352 0.71781 0.0
C3007 C 0.45827 0.31113 0.70392 0.0
C3008 C 0.44138 0.29849 0.72515 0.0
C3009 C 0.44074 0.2994 0.7399 0.0
C3010 C 0.45689 0.30035 0.74774 0.0
C3011 C 0.45606 0.301 0.76163 0.0
C3012 C 0.43908 0.30053 0.76779 0.0
C3013 C 0.42288 0.2994 0.76007 0.0
C3014 C 0.42365 0.29877 0.74618 0.0
C3015 C 0.39918 0.22892 0.68493 0.0
C3016 C 0.3781 0.22253 0.68661 0.0
C3017 C 0.41453 0.2472 0.69075 0.0
C3018 C 0.40917 0.25963 0.69827 0.0
C3019 C 0.38814 0.25328 0.7 0.0
C3020 C 0.37274 0.23491 0.69422 0.0
C3021 C 0.42555 0.27896 0.70459 0.0
C3022 C 0.42521 0.28155 0.71842 0.0
C3023 C 0.44213 0.29412 0.6972 0.0
C3024 C 0.44283 0.29266 0.68248 0.0
C3025 C 0.42605 0.29001 0.67451 0.0
C3026 C 0.42649 0.28792 0.66069 0.0
C3027 C 0.44369 0.28862 0.6547 0.0
C3028 C 0.46052 0.29149 0.66251 0.0
C3029 C 0.46016 0.29357 0.67635 0.0
H3030 H 0.44396 0.28693 0.64399 0.0
H3031 H 0.43845 0.301 0.77855 0.0
H3032 H 0.65122 0.1285 0.75134 0.0
H3033 H 0.68323 0.13605 0.73998 0.0
H3034 H 0.65724 0.14132 0.7028 0.0
H3035 H 0.62516 0.13353 0.71404 0.0
H3036 H 0.67328 0.11619 0.70048 0.0
H3037 H 0.69538 0.18343 0.71822 0.0
H3038 H 0.70159 0.20903 0.73581 0.0
H3039 H 0.74291 0.19403 0.75613 0.0
H3040 H 0.73673 0.16813 0.73874 0.0
H3041 H 0.7927 0.18165 0.68225 0.0
H3042 H 0.76021 0.17899 0.68978 0.0
H3043 H 0.73547 0.11468 0.69683 0.0
H3044 H 0.76715 0.11708 0.68842 0.0
H3045 H 0.74425 0.17138 0.7128 0.0
H3046 H 0.69058 0.08867 0.69836 0.0
H3047 H 0.6825 0.0637 0.67993 0.0
H3048 H 0.70194 0.11175 0.65158 0.0
H3049 H 0.71031 0.137 0.66997 0.0
C3050 C 0.65239 0.13141 0.74076 0.0
C3051 C 0.6356 0.1304 0.7336 0.0
C3052 C 0.67075 0.13586 0.7343 0.0
C3053 C 0.67269 0.13933 0.72054 0.0
C3054 C 0.65613 0.13874 0.71343 0.0
C3055 C 0.63784 0.13444 0.71989 0.0
C3056 C 0.69141 0.14228 0.71338 0.0
C3057 C 0.68879 0.12834 0.70316 0.0
C3058 C 0.71167 0.15813 0.71678 0.0
C3059 C 0.71544 0.17371 0.72724 0.0
C3060 C 0.70566 0.18547 0.7265 0.0
C3061 C 0.7092 0.20006 0.73642 0.0
C3062 C 0.7226 0.20312 0.7471 0.0
C3063 C 0.73252 0.19163 0.74786 0.0
C3064 C 0.72902 0.17701 0.73796 0.0
C3065 C 0.77999 0.16683 0.68492 0.0
C3066 C 0.78224 0.14944 0.68438 0.0
C3067 C 0.76148 0.16533 0.68938 0.0
C3068 C 0.745 0.14651 0.69367 0.0
C3069 C 0.74739 0.12921 0.69312 0.0
C3070 C 0.76568 0.13063 0.68844 0.0
C3071 C 0.72617 0.14526 0.69984 0.0
C3072 C 0.72875 0.15938 0.71001 0.0
C3073 C 0.70579 0.12962 0.69638 0.0
C3074 C 0.70149 0.1147 0.68544 0.0
C3075 C 0.69327 0.09388 0.68818 0.0
C3076 C 0.68867 0.07971 0.67778 0.0
C3077 C 0.6919 0.08618 0.6646 0.0
C3078 C 0.6997 0.10682 0.66181 0.0
C3079 C 0.70455 0.12108 0.6722 0.0
H3080 H 0.68824 0.07519 0.65654 0.0
H3081 H 0.72532 0.21442 0.75477 0.0
H3082 H 0.91376 0.547 0.73961 0.0
H3083 H 0.89755 0.56566 0.73103 0.0
H3084 H 0.85201 0.51137 0.70983 0.0
H3085 H 0.86893 0.49283 0.7178 0.0
H3086 H 0.86588 0.54289 0.69423 0.0
H3087 H 0.8391 0.52989 0.73823 0.0
H3088 H 0.84052 0.52857 0.76271 0.0
H3089 H 0.88062 0.59374 0.76489 0.0
H3090 H 0.87951 0.59545 0.74044 0.0
H3091 H 0.81484 0.59805 0.67584 0.0
H3092 H 0.82069 0.57198 0.68582 0.0
H3093 H 0.87324 0.61898 0.70785 0.0
H3094 H 0.86743 0.64505 0.69808 0.0
H3095 H 0.84948 0.58643 0.72322 0.0
H3096 H 0.87931 0.59813 0.67899 0.0
H3097 H 0.87751 0.59935 0.65452 0.0
H3098 H 0.8307 0.53579 0.65294 0.0
H3099 H 0.83203 0.53428 0.67744 0.0
C3100 C 0.90038 0.53901 0.73306 0.0
C3101 C 0.89273 0.51842 0.72935 0.0
C3102 C 0.89091 0.54964 0.72831 0.0
C3103 C 0.87332 0.53984 0.71995 0.0
C3104 C 0.86548 0.51922 0.71634 0.0
C3105 C 0.87507 0.50859 0.721 0.0
C3106 C 0.86393 0.55156 0.71448 0.0
C3107 C 0.86187 0.55206 0.7006 0.0
C3108 C 0.85886 0.5637 0.72275 0.0
C3109 C 0.8593 0.56278 0.73749 0.0
C3110 C 0.84827 0.54393 0.74393 0.0
C3111 C 0.84899 0.54312 0.75781 0.0
C3112 C 0.86063 0.56106 0.76536 0.0
C3113 C 0.87153 0.57986 0.75905 0.0
C3114 C 0.87082 0.58077 0.74518 0.0
C3115 C 0.82772 0.60285 0.68275 0.0
C3116 C 0.84086 0.62367 0.68602 0.0
C3117 C 0.83098 0.58792 0.68848 0.0
C3118 C 0.84752 0.59357 0.69748 0.0
C3119 C 0.86037 0.61429 0.70094 0.0
C3120 C 0.85708 0.62919 0.69528 0.0
C3121 C 0.85207 0.57816 0.70303 0.0
C3122 C 0.85316 0.57695 0.71691 0.0
C3123 C 0.85615 0.56531 0.69477 0.0
C3124 C 0.85563 0.56614 0.68004 0.0
C3125 C 0.86856 0.58445 0.67343 0.0
C3126 C 0.86764 0.58518 0.65956 0.0
C3127 C 0.85399 0.56766 0.65218 0.0
C3128 C 0.84126 0.54935 0.65867 0.0
C3129 C 0.8421 0.54854 0.67254 0.0
H3130 H 0.85327 0.56826 0.64144 0.0
H3131 H 0.86122 0.56039 0.7761 0.0
H3132 H 0.43768 0.92982 0.19563 0.0
H3133 H 0.44594 0.94125 0.17258 0.0
H3134 H 0.50685 0.94886 0.17779 0.0
H3135 H 0.49862 0.93728 0.2008 0.0
H3136 H 0.50642 0.98353 0.1675 0.0
H3137 H 0.47373 0.91094 0.15924 0.0
H3138 H 0.4456 0.87504 0.16038 0.0
H3139 H 0.40448 0.88997 0.13973 0.0
H3140 H 0.43228 0.92605 0.13866 0.0
H3141 H 0.54264 0.00816 0.10229 0.0
H3142 H 0.53205 0.99108 0.12366 0.0
H3143 H 0.46849 0.97324 0.11465 0.0
H3144 H 0.47904 0.98989 0.09301 0.0
H3145 H 0.46941 0.94327 0.12692 0.0
H3146 H 0.49972 0.01491 0.13552 0.0
H3147 H 0.5263 0.05144 0.13461 0.0
H3148 H 0.56968 0.03947 0.15512 0.0
H3149 H 0.54344 0.00279 0.15598 0.0
C3150 C 0.45276 0.93376 0.19181 0.0
C3151 C 0.46751 0.93265 0.20001 0.0
C3152 C 0.45742 0.94019 0.17863 0.0
C3153 C 0.47699 0.94586 0.17346 0.0
C3154 C 0.49164 0.94451 0.18157 0.0
C3155 C 0.48688 0.93778 0.19468 0.0
C3156 C 0.48261 0.9543 0.15987 0.0
C3157 C 0.49855 0.97464 0.15861 0.0
C3158 C 0.47179 0.94293 0.14832 0.0
C3159 C 0.45503 0.92125 0.149 0.0
C3160 C 0.45863 0.90662 0.15507 0.0
C3161 C 0.44275 0.88622 0.15567 0.0
C3162 C 0.42324 0.88024 0.15017 0.0
C3163 C 0.41958 0.89463 0.14402 0.0
C3164 C 0.4354 0.91505 0.1434 0.0
C3165 C 0.5264 0.00054 0.10485 0.0
C3166 C 0.5117 0.00055 0.09605 0.0
C3167 C 0.52035 0.99081 0.11709 0.0
C3168 C 0.49951 0.98125 0.12095 0.0
C3169 C 0.48467 0.98058 0.11195 0.0
C3170 C 0.49069 0.99009 0.09959 0.0
C3171 C 0.49343 0.97252 0.13451 0.0
C3172 C 0.47734 0.95218 0.1358 0.0
C3173 C 0.50386 0.98401 0.14615 0.0
C3174 C 0.51967 0.00607 0.14569 0.0
C3175 C 0.51498 0.02004 0.13975 0.0
C3176 C 0.52997 0.04078 0.13925 0.0
C3177 C 0.54968 0.04777 0.14477 0.0
C3178 C 0.55442 0.03403 0.15083 0.0
C3179 C 0.53948 0.01327 0.15133 0.0
H3180 H 0.56127 0.06383 0.14438 0.0
H3181 H 0.41098 0.86443 0.15064 0.0
H3182 H 0.07658 0.52231 0.1971 0.0
H3183 H 0.05513 0.51205 0.17689 0.0
H3184 H 0.09717 0.56997 0.1593 0.0
H3185 H 0.11815 0.58074 0.17972 0.0
H3186 H 0.05894 0.56019 0.15363 0.0
H3187 H 0.09792 0.52596 0.15093 0.0
H3188 H 0.11188 0.50425 0.15842 0.0
H3189 H 0.05017 0.45282 0.16066 0.0
H3190 H 0.03581 0.47431 0.15336 0.0
H3191 H 0.02429 0.53085 0.08688 0.0
H3192 H 0.0457 0.5413 0.10711 0.0
H3193 H 1.00088 0.48578 0.12605 0.0
H3194 H 0.97972 0.47491 0.10563 0.0
H3195 H 0.04074 0.49455 0.13077 0.0
H3196 H 0.00262 0.53094 0.13328 0.0
H3197 H 0.99059 0.55331 0.12397 0.0
H3198 H 0.05362 0.60172 0.12022 0.0
H3199 H 0.06602 0.57958 0.12944 0.0
C3200 C 0.08113 0.53299 0.18901 0.0
C3201 C 0.09918 0.55231 0.19002 0.0
C3202 C 0.06896 0.527 0.1774 0.0
C3203 C 0.07472 0.5401 0.16648 0.0
C3204 C 0.09248 0.55956 0.16756 0.0
C3205 C 0.10457 0.56561 0.1792 0.0
C3206 C 0.06233 0.53347 0.15391 0.0
C3207 C 0.05517 0.54594 0.14858 0.0
C3208 C 0.05722 0.51479 0.14733 0.0
C3209 C 0.06578 0.50181 0.15174 0.0
C3210 C 0.08731 0.51006 0.15313 0.0
C3211 C 0.0953 0.49779 0.15732 0.0
C3212 C 0.08192 0.47718 0.16005 0.0
C3213 C 0.06051 0.46879 0.15856 0.0
C3214 C 0.05244 0.48101 0.15439 0.0
C3215 C 0.0191 0.52078 0.09529 0.0
C3216 C 1.00028 0.5021 0.09465 0.0
C3217 C 0.03126 0.52684 0.10689 0.0
C3218 C 0.02474 0.51443 0.11814 0.0
C3219 C 0.00613 0.49562 0.11749 0.0
C3220 C 0.99398 0.48953 0.10587 0.0
C3221 C 0.03726 0.52115 0.13062 0.0
C3222 C 0.04447 0.50873 0.1359 0.0
C3223 C 0.04268 0.54 0.13703 0.0
C3224 C 0.03524 0.55358 0.13199 0.0
C3225 C 0.0139 0.54636 0.13046 0.0
C3226 C 0.00702 0.55899 0.1252 0.0
C3227 C 0.02134 0.57891 0.12149 0.0
C3228 C 0.04256 0.58629 0.12311 0.0
C3229 C 0.04952 0.57373 0.12839 0.0
H3230 H 0.01598 0.58864 0.11737 0.0
H3231 H 0.08813 0.46769 0.16328 0.0
H3232 H 0.47615 0.55718 0.19482 0.0
H3233 H 0.48208 0.55158 0.1715 0.0
H3234 H 0.4486 0.48638 0.17725 0.0
H3235 H 0.44232 0.49188 0.20049 0.0
H3236 H 0.49023 0.50382 0.16613 0.0
H3237 H 0.42574 0.50327 0.15971 0.0
H3238 H 0.40244 0.51747 0.16168 0.0
H3239 H 0.44511 0.57016 0.13974 0.0
H3240 H 0.46883 0.5564 0.13781 0.0
H3241 H 0.49162 0.46998 0.1012 0.0
H3242 H 0.47948 0.47471 0.12279 0.0
H3243 H 0.49734 0.53672 0.11269 0.0
H3244 H 0.50865 0.53163 0.09078 0.0
H3245 H 0.46343 0.52152 0.12617 0.0
H3246 H 0.52837 0.52479 0.13278 0.0
H3247 H 0.55404 0.51343 0.13116 0.0
H3248 H 0.51429 0.45971 0.15326 0.0
H3249 H 0.48823 0.47062 0.15485 0.0
C3250 C 0.46988 0.54166 0.19104 0.0
C3251 C 0.45875 0.52495 0.19942 0.0
C3252 C 0.47321 0.53849 0.17774 0.0
C3253 C 0.46573 0.51857 0.17268 0.0
C3254 C 0.45442 0.50186 0.18098 0.0
C3255 C 0.45076 0.50501 0.1942 0.0
C3256 C 0.47075 0.51521 0.15896 0.0
C3257 C 0.48414 0.50738 0.15736 0.0
C3258 C 0.46343 0.52065 0.14761 0.0
C3259 C 0.44916 0.52891 0.14875 0.0
C3260 C 0.43026 0.51798 0.15542 0.0
C3261 C 0.41695 0.52593 0.15651 0.0
C3262 C 0.42231 0.54473 0.15088 0.0
C3263 C 0.44098 0.5556 0.14412 0.0
C3264 C 0.45436 0.54773 0.14302 0.0
C3265 C 0.49276 0.48454 0.10357 0.0
C3266 C 0.50121 0.50051 0.09441 0.0
C3267 C 0.48593 0.48729 0.11593 0.0
C3268 C 0.48799 0.50627 0.11955 0.0
C3269 C 0.49568 0.52198 0.11018 0.0
C3270 C 0.50215 0.51909 0.09768 0.0
C3271 C 0.48279 0.50985 0.13325 0.0
C3272 C 0.4695 0.51786 0.13489 0.0
C3273 C 0.49058 0.505 0.1447 0.0
C3274 C 0.50626 0.49843 0.14382 0.0
C3275 C 0.52504 0.51049 0.13722 0.0
C3276 C 0.53967 0.50414 0.13631 0.0
C3277 C 0.53578 0.48583 0.14208 0.0
C3278 C 0.51727 0.47387 0.14879 0.0
C3279 C 0.50257 0.48013 0.1497 0.0
H3280 H 0.54713 0.48094 0.14137 0.0
H3281 H 0.41199 0.55085 0.15172 0.0
H3282 H 0.93314 0.49511 0.8118 0.0
H3283 H 0.93908 0.49769 0.83588 0.0
H3284 H 0.96836 0.46104 0.83227 0.0
H3285 H 0.96149 0.45746 0.80834 0.0
H3286 H 0.9456 0.45081 0.85381 0.0
H3287 H 0.9966 0.51422 0.83429 0.0
H3288 H 0.00859 0.54538 0.82109 0.0
H3289 H 0.97621 0.56538 0.84686 0.0
H3290 H 0.96381 0.53418 0.86012 0.0
H3291 H 0.01721 0.48448 0.90782 0.0
H3292 H 0.99919 0.47642 0.88625 0.0
H3293 H 0.9674 0.50831 0.89845 0.0
H3294 H 0.98546 0.51644 0.92012 0.0
H3295 H 0.98666 0.52046 0.87386 0.0
H3296 H 0.94012 0.45836 0.89532 0.0
H3297 H 0.93005 0.4276 0.90856 0.0
H3298 H 0.95597 0.4054 0.87919 0.0
H3299 H 0.96649 0.43619 0.86586 0.0
C3300 C 0.94048 0.48726 0.81615 0.0
C3301 C 0.94704 0.47625 0.80809 0.0
C3302 C 0.94405 0.48892 0.82991 0.0
C3303 C 0.9545 0.47986 0.83586 0.0
C3304 C 0.96037 0.46825 0.82791 0.0
C3305 C 0.95665 0.46643 0.81419 0.0
C3306 C 0.96021 0.48315 0.85024 0.0
C3307 C 0.95466 0.46604 0.85818 0.0
C3308 C 0.97161 0.50301 0.85604 0.0
C3309 C 0.97907 0.52176 0.84809 0.0
C3310 C 0.99191 0.52519 0.83707 0.0
C3311 C 0.9988 0.54286 0.8296 0.0
C3312 C 0.99311 0.55731 0.83311 0.0
C3313 C 0.98056 0.55415 0.84414 0.0
C3314 C 0.9736 0.53648 0.85164 0.0
C3315 C 0.00626 0.48963 0.90593 0.0
C3316 C 0.00276 0.50113 0.9156 0.0
C3317 C 0.99588 0.4849 0.89366 0.0
C3318 C 0.98188 0.49167 0.8908 0.0
C3319 C 0.97808 0.50288 0.90051 0.0
C3320 C 0.98831 0.50743 0.91287 0.0
C3321 C 0.97239 0.48815 0.87733 0.0
C3322 C 0.97727 0.50522 0.86955 0.0
C3323 C 0.96059 0.46828 0.87167 0.0
C3324 C 0.95422 0.44967 0.87963 0.0
C3325 C 0.94382 0.447 0.89173 0.0
C3326 C 0.93801 0.42954 0.89924 0.0
C3327 C 0.9424 0.41457 0.89473 0.0
C3328 C 0.95259 0.41701 0.88267 0.0
C3329 C 0.95845 0.43446 0.87512 0.0
H3330 H 0.93789 0.40106 0.90056 0.0
H3331 H 0.99846 0.57099 0.82731 0.0
H3332 H 0.53266 0.46712 0.80894 0.0
H3333 H 0.52083 0.47571 0.82941 0.0
H3334 H 0.55133 0.45077 0.85274 0.0
H3335 H 0.56398 0.44291 0.83245 0.0
H3336 H 0.50989 0.43709 0.86026 0.0
H3337 H 0.57301 0.49991 0.85163 0.0
H3338 H 0.5969 0.52921 0.83808 0.0
H3339 H 0.55124 0.54767 0.83449 0.0
H3340 H 0.52694 0.51828 0.84787 0.0
H3341 H 0.49952 0.47033 0.92408 0.0
H3342 H 0.51334 0.46385 0.90387 0.0
H3343 H 0.49543 0.50129 0.8818 0.0
H3344 H 0.48344 0.50945 0.90224 0.0
H3345 H 0.53033 0.50839 0.87327 0.0
H3346 H 0.46689 0.44606 0.88156 0.0
H3347 H 0.44227 0.41666 0.89477 0.0
H3348 H 0.48676 0.39669 0.89833 0.0
H3349 H 0.51177 0.42615 0.88529 0.0
C3350 C 0.53714 0.46372 0.81841 0.0
C3351 C 0.54928 0.45424 0.81897 0.0
C3352 C 0.53024 0.46853 0.8301 0.0
C3353 C 0.53521 0.46386 0.84258 0.0
C3354 C 0.54721 0.45437 0.8432 0.0
C3355 C 0.55432 0.44977 0.83155 0.0
C3356 C 0.52784 0.46878 0.85502 0.0
C3357 C 0.5145 0.45268 0.8632 0.0
C3358 C 0.53348 0.48908 0.85865 0.0
C3359 C 0.54807 0.50677 0.85062 0.0
C3360 C 0.56799 0.5101 0.84785 0.0
C3361 C 0.58162 0.52675 0.84022 0.0
C3362 C 0.57557 0.54026 0.8354 0.0
C3363 C 0.55589 0.53717 0.83822 0.0
C3364 C 0.54219 0.52053 0.84583 0.0
C3365 C 0.49893 0.47759 0.91501 0.0
C3366 C 0.49033 0.49045 0.91489 0.0
C3367 C 0.5065 0.47353 0.90336 0.0
C3368 C 0.50501 0.48166 0.89117 0.0
C3369 C 0.49665 0.49469 0.89103 0.0
C3370 C 0.48953 0.49914 0.90274 0.0
C3371 C 0.51219 0.47666 0.8786 0.0
C3372 C 0.52556 0.49275 0.87036 0.0
C3373 C 0.50637 0.45629 0.87484 0.0
C3374 C 0.49126 0.43841 0.88254 0.0
C3375 C 0.47146 0.43546 0.88522 0.0
C3376 C 0.45743 0.41878 0.89267 0.0
C3377 C 0.46296 0.40482 0.89739 0.0
C3378 C 0.48249 0.40749 0.89464 0.0
C3379 C 0.4966 0.42418 0.88722 0.0
H3380 H 0.4521 0.39195 0.90319 0.0
H3381 H 0.58615 0.55314 0.8295 0.0
H3382 H 0.56656 0.08407 0.81827 0.0
H3383 H 0.56044 0.07388 0.8416 0.0
H3384 H 0.49665 0.05845 0.83716 0.0
H3385 H 0.50279 0.06914 0.81399 0.0
H3386 H 0.51252 0.07754 0.8608 0.0
H3387 H 0.51063 0.02172 0.8355 0.0
H3388 H 0.52463 0.00581 0.82033 0.0
H3389 H 0.57587 0.02275 0.84724 0.0
H3390 H 0.5623 0.03901 0.86249 0.0
H3391 H 0.45968 0.00368 0.90995 0.0
H3392 H 0.47354 0.02289 0.88954 0.0
H3393 H 0.53508 0.03701 0.90133 0.0
H3394 H 0.52122 0.01775 0.92188 0.0
H3395 H 0.52468 0.02183 0.87529 0.0
H3396 H 0.52604 0.07564 0.90122 0.0
H3397 H 0.51282 0.09205 0.91653 0.0
H3398 H 0.46319 0.07887 0.88903 0.0
H3399 H 0.47625 0.06248 0.87349 0.0
C3400 C 0.55131 0.07881 0.82232 0.0
C3401 C 0.53512 0.07726 0.81421 0.0
C3402 C 0.54779 0.07282 0.83563 0.0
C3403 C 0.528 0.06511 0.84111 0.0
C3404 C 0.51202 0.06426 0.83317 0.0
C3405 C 0.51552 0.07021 0.81987 0.0
C3406 C 0.52361 0.05722 0.85492 0.0
C3407 C 0.51506 0.06527 0.86392 0.0
C3408 C 0.52746 0.04161 0.85918 0.0
C3409 C 0.53558 0.03178 0.85005 0.0
C3410 C 0.52497 0.02219 0.83813 0.0
C3411 C 0.53281 0.01309 0.82953 0.0
C3412 C 0.55116 0.01333 0.8328 0.0
C3413 C 0.56168 0.02262 0.8447 0.0
C3414 C 0.55392 0.03177 0.85333 0.0
C3415 C 0.47618 0.01095 0.90823 0.0
C3416 C 0.48935 0.00913 0.91748 0.0
C3417 C 0.48411 0.02206 0.89661 0.0
C3418 C 0.50537 0.03147 0.89392 0.0
C3419 C 0.51863 0.02991 0.90321 0.0
C3420 C 0.51072 0.019 0.91496 0.0
C3421 C 0.51332 0.04194 0.88106 0.0
C3422 C 0.52244 0.03432 0.87222 0.0
C3423 C 0.51006 0.05796 0.87696 0.0
C3424 C 0.50204 0.06771 0.88624 0.0
C3425 C 0.51224 0.07613 0.89848 0.0
C3426 C 0.50481 0.08549 0.90718 0.0
C3427 C 0.4871 0.08642 0.9038 0.0
C3428 C 0.47689 0.07812 0.89165 0.0
C3429 C 0.48436 0.06888 0.88286 0.0
H3430 H 0.48133 0.0936 0.91058 0.0
H3431 H 0.55721 0.00627 0.82613 0.0
H3432 H 0.12304 0.28496 0.53584 0.0
H3433 H 0.12834 0.2947 0.51253 0.0
H3434 H 0.13214 0.24092 0.50269 0.0
H3435 H 0.12721 0.23129 0.52618 0.0
H3436 H 0.16106 0.27147 0.49038 0.0
H3437 H 0.08883 0.24525 0.49393 0.0
H3438 H 0.0564 0.24064 0.50346 0.0
H3439 H 0.07656 0.30394 0.49701 0.0
H3440 H 0.10925 0.30901 0.4876 0.0
H3441 H 0.13352 0.30526 0.42242 0.0
H3442 H 0.12284 0.28466 0.44255 0.0
H3443 H 0.18267 0.32486 0.46062 0.0
H3444 H 0.1937 0.34486 0.44043 0.0
H3445 H 0.11766 0.29405 0.46669 0.0
H3446 H 0.19638 0.30077 0.48242 0.0
H3447 H 0.22639 0.30147 0.47169 0.0
H3448 H 0.18874 0.26982 0.43736 0.0
H3449 H 0.15844 0.26866 0.44796 0.0
C3450 C 0.12468 0.27501 0.52869 0.0
C3451 C 0.12453 0.25724 0.53287 0.0
C3452 C 0.1277 0.2806 0.51533 0.0
C3453 C 0.1303 0.26839 0.50573 0.0
C3454 C 0.13013 0.2506 0.50987 0.0
C3455 C 0.12731 0.2451 0.52329 0.0
C3456 C 0.13403 0.27476 0.49154 0.0
C3457 C 0.15149 0.2763 0.48519 0.0
C3458 C 0.12124 0.2805 0.48452 0.0
C3459 C 0.10156 0.27753 0.49014 0.0
C3460 C 0.08641 0.25822 0.49462 0.0
C3461 C 0.06797 0.25552 0.49999 0.0
C3462 C 0.06443 0.27199 0.50086 0.0
C3463 C 0.07932 0.29119 0.49633 0.0
C3464 C 0.0978 0.29398 0.49096 0.0
C3465 C 0.14455 0.30946 0.43058 0.0
C3466 C 0.16446 0.32681 0.42979 0.0
C3467 C 0.13835 0.29776 0.44214 0.0
C3468 C 0.15196 0.30307 0.45312 0.0
C3469 C 0.17194 0.32019 0.45225 0.0
C3470 C 0.17815 0.33181 0.44072 0.0
C3471 C 0.14512 0.29151 0.46576 0.0
C3472 C 0.12709 0.28901 0.47182 0.0
C3473 C 0.15704 0.28433 0.47235 0.0
C3474 C 0.17517 0.28478 0.46596 0.0
C3475 C 0.19447 0.29386 0.47262 0.0
C3476 C 0.21154 0.29436 0.46655 0.0
C3477 C 0.20949 0.28574 0.45384 0.0
C3478 C 0.19034 0.27655 0.44719 0.0
C3479 C 0.17322 0.276 0.45321 0.0
H3480 H 0.22272 0.28615 0.44916 0.0
H3481 H 0.05015 0.26987 0.50503 0.0
H3482 H 0.77814 0.91408 0.51358 0.0
H3483 H 0.75536 0.9024 0.49395 0.0
H3484 H 0.72958 0.83984 0.50616 0.0
H3485 H 0.75276 0.8514 0.52568 0.0
H3486 H 0.7382 0.84395 0.4797 0.0
H3487 H 0.70251 0.86404 0.51044 0.0
H3488 H 0.69857 0.88705 0.52626 0.0
H3489 H 0.71296 0.93084 0.49543 0.0
H3490 H 0.71728 0.90821 0.47946 0.0
H3491 H 0.64895 0.80181 0.43678 0.0
H3492 H 0.67122 0.81274 0.45677 0.0
H3493 H 0.70252 0.87494 0.44317 0.0
H3494 H 0.68041 0.86406 0.42311 0.0
H3495 H 0.69055 0.87042 0.47043 0.0
H3496 H 0.72664 0.85048 0.4398 0.0
H3497 H 0.7302 0.8273 0.42392 0.0
H3498 H 0.71477 0.78307 0.45458 0.0
H3499 H 0.71075 0.80584 0.4706 0.0
C3500 C 0.76774 0.89782 0.51204 0.0
C3501 C 0.76725 0.88366 0.52119 0.0
C3502 C 0.7546 0.89118 0.50088 0.0
C3503 C 0.74064 0.87026 0.49866 0.0
C3504 C 0.74021 0.85605 0.5077 0.0
C3505 C 0.75333 0.86269 0.5189 0.0
C3506 C 0.72658 0.86327 0.48686 0.0
C3507 C 0.72755 0.84949 0.47777 0.0
C3508 C 0.71303 0.87086 0.48421 0.0
C3509 C 0.71042 0.88451 0.49379 0.0
C3510 C 0.70501 0.87865 0.50706 0.0
C3511 C 0.70267 0.89161 0.51605 0.0
C3512 C 0.70556 0.91042 0.51186 0.0
C3513 C 0.71075 0.91628 0.49866 0.0
C3514 C 0.71313 0.90338 0.48963 0.0
C3515 C 0.6605 0.81782 0.43812 0.0
C3516 C 0.66301 0.83211 0.42843 0.0
C3517 C 0.67326 0.82401 0.44947 0.0
C3518 C 0.68855 0.84461 0.45137 0.0
C3519 C 0.69082 0.85897 0.44184 0.0
C3520 C 0.67827 0.85274 0.4304 0.0
C3521 C 0.70222 0.85117 0.46331 0.0
C3522 C 0.70116 0.86485 0.4724 0.0
C3523 C 0.71566 0.84348 0.46597 0.0
C3524 C 0.71813 0.82976 0.45636 0.0
C3525 C 0.72379 0.83572 0.44313 0.0
C3526 C 0.72592 0.82267 0.4341 0.0
C3527 C 0.72262 0.80369 0.43822 0.0
C3528 C 0.71726 0.79775 0.45139 0.0
C3529 C 0.71506 0.81073 0.46045 0.0
H3530 H 0.72428 0.79361 0.43122 0.0
H3531 H 0.70374 0.92043 0.51883 0.0
H3532 H 0.13305 0.82995 0.53564 0.0
H3533 H 0.14146 0.82797 0.51242 0.0
H3534 H 0.13816 0.88209 0.50396 0.0
H3535 H 0.12988 0.8843 0.52732 0.0
H3536 H 0.12078 0.85184 0.48346 0.0
H3537 H 0.18387 0.8877 0.50904 0.0
H3538 H 0.20758 0.89295 0.52781 0.0
H3539 H 0.2082 0.83828 0.51642 0.0
H3540 H 0.18422 0.83253 0.49768 0.0
H3541 H 0.17845 0.87166 0.42306 0.0
H3542 H 0.16491 0.87404 0.44474 0.0
H3543 H 0.17297 0.82477 0.45895 0.0
H3544 H 0.1867 0.8225 0.43738 0.0
H3545 H 0.18815 0.85506 0.47638 0.0
H3546 H 0.12455 0.81876 0.45089 0.0
H3547 H 0.10062 0.81335 0.43221 0.0
H3548 H 0.10089 0.8686 0.44313 0.0
H3549 H 0.12507 0.87453 0.46177 0.0
C3550 C 0.13408 0.84144 0.52885 0.0
C3551 C 0.13112 0.85747 0.53338 0.0
C3552 C 0.13878 0.84022 0.51557 0.0
C3553 C 0.14073 0.85505 0.50652 0.0
C3554 C 0.13675 0.8705 0.5108 0.0
C3555 C 0.13201 0.87173 0.52414 0.0
C3556 C 0.14828 0.85504 0.49288 0.0
C3557 C 0.13562 0.85281 0.48186 0.0
C3558 C 0.16753 0.85607 0.49084 0.0
C3559 C 0.18211 0.85959 0.50203 0.0
C3560 C 0.18894 0.87671 0.51059 0.0
C3561 C 0.20244 0.87979 0.52122 0.0
C3562 C 0.20935 0.86593 0.52332 0.0
C3563 C 0.20281 0.84899 0.51478 0.0
C3564 C 0.18928 0.84582 0.50415 0.0
C3565 C 0.17712 0.8612 0.43077 0.0
C3566 C 0.18375 0.84696 0.42854 0.0
C3567 C 0.16934 0.86255 0.44315 0.0
C3568 C 0.16778 0.84949 0.45347 0.0
C3569 C 0.17411 0.83507 0.45117 0.0
C3570 C 0.18202 0.83383 0.43885 0.0
C3571 C 0.16046 0.85134 0.46687 0.0
C3572 C 0.17328 0.85408 0.4779 0.0
C3573 C 0.14137 0.85076 0.46885 0.0
C3574 C 0.12677 0.84718 0.45767 0.0
C3575 C 0.11963 0.82984 0.44926 0.0
C3576 C 0.10599 0.82666 0.43869 0.0
C3577 C 0.09922 0.84061 0.4365 0.0
C3578 C 0.10612 0.8578 0.44485 0.0
C3579 C 0.11979 0.86107 0.45543 0.0
H3580 H 0.08862 0.83809 0.42834 0.0
H3581 H 0.2198 0.86834 0.53156 0.0
H3582 H 0.63831 0.79943 0.14072 0.0
H3583 H 0.64619 0.80291 0.16452 0.0
H3584 H 0.59531 0.81348 0.17186 0.0
H3585 H 0.58763 0.81042 0.14788 0.0
H3586 H 0.62783 0.84 0.18549 0.0
H3587 H 0.59311 0.76754 0.1802 0.0
H3588 H 0.58526 0.73444 0.17013 0.0
H3589 H 0.64673 0.74698 0.17984 0.0
H3590 H 0.65506 0.78029 0.18981 0.0
H3591 H 0.64672 0.84118 0.25512 0.0
H3592 H 0.62888 0.83044 0.23353 0.0
H3593 H 0.67703 0.81994 0.21874 0.0
H3594 H 0.69433 0.82954 0.24047 0.0
H3595 H 0.64033 0.7906 0.21008 0.0
H3596 H 0.67575 0.86505 0.21256 0.0
H3597 H 0.68324 0.89804 0.22268 0.0
H3598 H 0.61917 0.88085 0.21843 0.0
H3599 H 0.61128 0.84768 0.2084 0.0
C3600 C 0.6286 0.80219 0.14742 0.0
C3601 C 0.61226 0.80451 0.14246 0.0
C3602 C 0.63309 0.80414 0.16104 0.0
C3603 C 0.62111 0.80808 0.17005 0.0
C3604 C 0.60472 0.81035 0.16512 0.0
C3605 C 0.60036 0.80862 0.15144 0.0
C3606 C 0.62647 0.81083 0.18449 0.0
C3607 C 0.63014 0.82898 0.19093 0.0
C3608 C 0.62973 0.79659 0.19159 0.0
C3609 C 0.62474 0.77649 0.18569 0.0
C3610 C 0.605 0.7633 0.18012 0.0
C3611 C 0.60046 0.74449 0.17444 0.0
C3612 C 0.6155 0.73862 0.17433 0.0
C3613 C 0.6351 0.75154 0.17993 0.0
C3614 C 0.63972 0.77038 0.18562 0.0
C3615 C 0.65334 0.83624 0.24736 0.0
C3616 C 0.6721 0.83642 0.24952 0.0
C3617 C 0.64322 0.83031 0.23496 0.0
C3618 C 0.6518 0.82473 0.22443 0.0
C3619 C 0.67016 0.82429 0.22669 0.0
C3620 C 0.68017 0.83002 0.23909 0.0
C3621 C 0.6422 0.81997 0.2109 0.0
C3622 C 0.63771 0.80144 0.20466 0.0
C3623 C 0.63809 0.83379 0.20399 0.0
C3624 C 0.6429 0.85383 0.20986 0.0
C3625 C 0.66325 0.86828 0.21385 0.0
C3626 C 0.66757 0.88701 0.21956 0.0
C3627 C 0.65168 0.89152 0.22123 0.0
C3628 C 0.63146 0.87733 0.21715 0.0
C3629 C 0.62706 0.85858 0.21144 0.0
H3630 H 0.65505 0.90602 0.22566 0.0
H3631 H 0.61195 0.72405 0.16992 0.0
H3632 H 0.18036 0.76928 0.15105 0.0
H3633 H 0.16715 0.77635 0.17155 0.0
H3634 H 0.22928 0.82233 0.18315 0.0
H3635 H 0.24255 0.81557 0.16248 0.0
H3636 H 0.20401 0.79126 0.2034 0.0
H3637 H 0.20179 0.83968 0.17342 0.0
H3638 H 0.19223 0.84989 0.15254 0.0
H3639 H 0.12778 0.80926 0.16023 0.0
H3640 H 0.13698 0.79857 0.18107 0.0
H3641 H 0.18107 0.83722 0.25768 0.0
H3642 H 0.19426 0.82998 0.2374 0.0
H3643 H 0.13201 0.79526 0.22144 0.0
H3644 H 0.1186 0.80215 0.24182 0.0
H3645 H 0.15741 0.82045 0.20323 0.0
H3646 H 0.15694 0.77003 0.23129 0.0
H3647 H 0.16365 0.75496 0.25099 0.0
H3648 H 0.22914 0.79489 0.24674 0.0
H3649 H 0.22284 0.81004 0.22688 0.0
C3650 C 0.19117 0.78095 0.15796 0.0
C3651 C 0.21245 0.79191 0.15521 0.0
C3652 C 0.18362 0.78499 0.16963 0.0
C3653 C 0.19726 0.79985 0.17883 0.0
C3654 C 0.21854 0.8108 0.17614 0.0
C3655 C 0.22606 0.80702 0.16434 0.0
C3656 C 0.18922 0.80373 0.19133 0.0
C3657 C 0.19411 0.79798 0.20343 0.0
C3658 C 0.17564 0.81169 0.19123 0.0
C3659 C 0.17009 0.81817 0.17874 0.0
C3660 C 0.18559 0.83278 0.1706 0.0
C3661 C 0.18024 0.83869 0.15878 0.0
C3662 C 0.15942 0.83019 0.15504 0.0
C3663 C 0.1439 0.81581 0.16313 0.0
C3664 C 0.14918 0.80983 0.17495 0.0
C3665 C 0.17011 0.82782 0.24995 0.0
C3666 C 0.14873 0.8203 0.25141 0.0
C3667 C 0.1777 0.8237 0.23834 0.0
C3668 C 0.16412 0.81194 0.22792 0.0
C3669 C 0.14279 0.80442 0.22933 0.0
C3670 C 0.13517 0.80849 0.24096 0.0
C3671 C 0.17229 0.80812 0.21541 0.0
C3672 C 0.16738 0.81383 0.20328 0.0
C3673 C 0.18551 0.79971 0.21544 0.0
C3674 C 0.18941 0.79127 0.22766 0.0
C3675 C 0.17277 0.77572 0.23462 0.0
C3676 C 0.1765 0.76711 0.24578 0.0
C3677 C 0.1968 0.77398 0.25012 0.0
C3678 C 0.21342 0.78955 0.24334 0.0
C3679 C 0.20979 0.79809 0.2321 0.0
H3680 H 0.19964 0.76719 0.25871 0.0
H3681 H 0.1553 0.83479 0.1459 0.0
H3682 H 0.23161 0.43215 0.15355 0.0
H3683 H 0.2257 0.42115 0.17673 0.0
H3684 H 0.16166 0.37825 0.16721 0.0
H3685 H 0.16746 0.38874 0.14407 0.0
H3686 H 0.1658 0.39892 0.19065 0.0
H3687 H 0.19668 0.3625 0.1698 0.0
H3688 H 0.22392 0.35999 0.15757 0.0
H3689 H 0.26833 0.39549 0.18827 0.0
H3690 H 0.24139 0.39844 0.2006 0.0
H3691 H 0.13055 0.32487 0.24032 0.0
H3692 H 0.14151 0.34432 0.21989 0.0
H3693 H 0.20384 0.37959 0.23565 0.0
H3694 H 0.19305 0.35959 0.25608 0.0
H3695 H 0.20422 0.36768 0.21056 0.0
H3696 H 0.17298 0.40101 0.23275 0.0
H3697 H 0.14615 0.4039 0.24521 0.0
H3698 H 0.10326 0.37554 0.21252 0.0
H3699 H 0.12974 0.3722 0.19993 0.0
C3700 C 0.21628 0.42032 0.15636 0.0
C3701 C 0.20003 0.41137 0.14687 0.0
C3702 C 0.21292 0.4141 0.16964 0.0
C3703 C 0.19325 0.39878 0.17371 0.0
C3704 C 0.17693 0.39017 0.16434 0.0
C3705 C 0.18028 0.3963 0.15108 0.0
C3706 C 0.18962 0.39119 0.18759 0.0
C3707 C 0.17411 0.39198 0.19498 0.0
C3708 C 0.20093 0.38275 0.19343 0.0
C3709 C 0.21709 0.3809 0.18604 0.0
C3710 C 0.21229 0.36992 0.17389 0.0
C3711 C 0.22767 0.36839 0.16694 0.0
C3712 C 0.24786 0.37763 0.17211 0.0
C3713 C 0.2527 0.38837 0.18426 0.0
C3714 C 0.23738 0.38997 0.19123 0.0
C3715 C 0.14662 0.33671 0.23946 0.0
C3716 C 0.16094 0.34057 0.24984 0.0
C3717 C 0.15283 0.34801 0.2278 0.0
C3718 C 0.17347 0.36361 0.22625 0.0
C3719 C 0.18781 0.36768 0.23663 0.0
C3720 C 0.18159 0.35634 0.24835 0.0
C3721 C 0.18004 0.37497 0.21354 0.0
C3722 C 0.1961 0.3749 0.20635 0.0
C3723 C 0.16932 0.3842 0.20792 0.0
C3724 C 0.15333 0.38623 0.21543 0.0
C3725 C 0.15778 0.39525 0.22825 0.0
C3726 C 0.14264 0.39699 0.23533 0.0
C3727 C 0.123 0.38988 0.22967 0.0
C3728 C 0.11848 0.38104 0.2169 0.0
C3729 C 0.13356 0.37925 0.20977 0.0
H3730 H 0.11129 0.39124 0.23517 0.0
H3731 H 0.25974 0.37643 0.16673 0.0
H3732 H 0.80953 0.63207 0.87035 0.0
H3733 H 0.81448 0.64222 0.84714 0.0
H3734 H 0.79615 0.58053 0.83481 0.0
H3735 H 0.79041 0.56993 0.8581 0.0
H3736 H 0.83208 0.61089 0.82197 0.0
H3737 H 0.76272 0.59551 0.83015 0.0
H3738 H 0.73495 0.59698 0.84243 0.0
H3739 H 0.76534 0.66193 0.83708 0.0
H3740 H 0.79348 0.6609 0.82494 0.0
H3741 H 0.83233 0.63818 0.75394 0.0
H3742 H 0.82083 0.6199 0.77495 0.0
H3743 H 0.82766 0.67439 0.79417 0.0
H3744 H 0.83822 0.69237 0.77319 0.0
H3745 H 0.79393 0.64267 0.80246 0.0
H3746 H 0.86475 0.65902 0.79651 0.0
H3747 H 0.89372 0.65857 0.78512 0.0
H3748 H 0.86189 0.59302 0.78703 0.0
H3749 H 0.83253 0.59306 0.79817 0.0
C3750 C 0.80621 0.6205 0.86275 0.0
C3751 C 0.79928 0.60007 0.86618 0.0
C3752 C 0.80919 0.6264 0.84945 0.0
C3753 C 0.80545 0.61209 0.83923 0.0
C3754 C 0.79908 0.59181 0.84255 0.0
C3755 C 0.79591 0.58582 0.85589 0.0
C3756 C 0.80824 0.61855 0.82511 0.0
C3757 C 0.82347 0.61747 0.81758 0.0
C3758 C 0.79726 0.62747 0.81949 0.0
C3759 C 0.78029 0.62814 0.82672 0.0
C3760 C 0.76357 0.61013 0.83168 0.0
C3761 C 0.74775 0.61088 0.8386 0.0
C3762 C 0.7484 0.62954 0.84055 0.0
C3763 C 0.76486 0.64749 0.83556 0.0
C3764 C 0.78074 0.64683 0.82865 0.0
C3765 C 0.83107 0.64617 0.76259 0.0
C3766 C 0.83644 0.66685 0.76188 0.0
C3767 C 0.8247 0.63575 0.77465 0.0
C3768 C 0.82369 0.64584 0.78625 0.0
C3769 C 0.82839 0.66625 0.78542 0.0
C3770 C 0.83464 0.67661 0.77341 0.0
C3771 C 0.81818 0.63551 0.79936 0.0
C3772 C 0.80239 0.63584 0.80673 0.0
C3773 C 0.82878 0.62606 0.80486 0.0
C3774 C 0.84632 0.62603 0.79801 0.0
C3775 C 0.86382 0.6445 0.79436 0.0
C3776 C 0.88033 0.64432 0.78796 0.0
C3777 C 0.87961 0.62577 0.78529 0.0
C3778 C 0.86239 0.60737 0.78903 0.0
C3779 C 0.84581 0.60746 0.79538 0.0
H3780 H 0.89244 0.62568 0.78037 0.0
H3781 H 0.73614 0.63009 0.84591 0.0
H3782 H 0.39773 0.19234 0.86464 0.0
H3783 H 0.3753 0.18417 0.84492 0.0
H3784 H 0.42545 0.23342 0.82392 0.0
H3785 H 0.44777 0.2418 0.84363 0.0
H3786 H 0.39107 0.23401 0.81964 0.0
H3787 H 0.41071 0.18238 0.81824 0.0
H3788 H 0.41459 0.15408 0.82692 0.0
H3789 H 0.34868 0.11763 0.83141 0.0
H3790 H 0.34443 0.14583 0.82291 0.0
H3791 H 0.3547 0.20729 0.75315 0.0
H3792 H 0.37411 0.21443 0.77407 0.0
H3793 H 0.32013 0.16621 0.79288 0.0
H3794 H 0.30076 0.1585 0.77181 0.0
H3795 H 0.35446 0.1645 0.79901 0.0
H3796 H 0.33535 0.21642 0.7987 0.0
H3797 H 0.33249 0.24496 0.78941 0.0
H3798 H 0.39878 0.28134 0.7876 0.0
H3799 H 0.40204 0.25287 0.7966 0.0
C3800 C 0.40397 0.20132 0.85578 0.0
C3801 C 0.42449 0.21772 0.85568 0.0
C3802 C 0.39116 0.19664 0.84452 0.0
C3803 C 0.39874 0.20807 0.83288 0.0
C3804 C 0.41922 0.22445 0.83279 0.0
C3805 C 0.43195 0.22923 0.84406 0.0
C3806 C 0.38538 0.20316 0.82081 0.0
C3807 C 0.38325 0.21886 0.81505 0.0
C3808 C 0.37476 0.18328 0.81499 0.0
C3809 C 0.37728 0.1663 0.82008 0.0
C3810 C 0.39706 0.16839 0.82118 0.0
C3811 C 0.39933 0.15236 0.82605 0.0
C3812 C 0.3819 0.1341 0.82975 0.0
C3813 C 0.36217 0.1318 0.82856 0.0
C3814 C 0.35982 0.1478 0.82371 0.0
C3815 C 0.34697 0.19811 0.76171 0.0
C3816 C 0.32617 0.1823 0.7608 0.0
C3817 C 0.35804 0.20235 0.7737 0.0
C3818 C 0.3485 0.19101 0.78508 0.0
C3819 C 0.32776 0.17521 0.78423 0.0
C3820 C 0.31667 0.17093 0.77221 0.0
C3821 C 0.36036 0.1954 0.79778 0.0
C3822 C 0.36219 0.17961 0.80365 0.0
C3823 C 0.37086 0.21525 0.80364 0.0
C3824 C 0.36892 0.23242 0.79823 0.0
C3825 C 0.34931 0.23043 0.79621 0.0
C3826 C 0.34762 0.24661 0.79099 0.0
C3827 C 0.36544 0.26492 0.78786 0.0
C3828 C 0.38499 0.26712 0.78997 0.0
C3829 C 0.38677 0.25097 0.79514 0.0
H3830 H 0.3641 0.27744 0.78383 0.0
H3831 H 0.38369 0.1217 0.83352 0.0
H3832 H 0.8277 0.18734 0.87148 0.0
H3833 H 0.8345 0.18465 0.84807 0.0
H3834 H 0.7853 0.19578 0.83665 0.0
H3835 H 0.77898 0.19962 0.86013 0.0
H3836 H 0.7859 0.16068 0.82327 0.0
H3837 H 0.82917 0.23271 0.83241 0.0
H3838 H 0.85519 0.26289 0.84521 0.0
H3839 H 0.90035 0.24438 0.8388 0.0
H3840 H 0.87449 0.2139 0.82613 0.0
H3841 H 0.81255 0.16526 0.75508 0.0
H3842 H 0.8031 0.17334 0.77659 0.0
H3843 H 0.86052 0.18289 0.79375 0.0
H3844 H 0.87082 0.17653 0.77211 0.0
H3845 H 0.85348 0.20983 0.80364 0.0
H3846 H 0.81118 0.13681 0.79709 0.0
H3847 H 0.78585 0.105 0.78535 0.0
H3848 H 0.73989 0.12322 0.78787 0.0
H3849 H 0.76504 0.15527 0.79949 0.0
C3850 C 0.8185 0.18961 0.86406 0.0
C3851 C 0.8029 0.19394 0.86781 0.0
C3852 C 0.82232 0.18787 0.85065 0.0
C3853 C 0.81048 0.19013 0.84066 0.0
C3854 C 0.79458 0.19397 0.84425 0.0
C3855 C 0.79094 0.19604 0.8577 0.0
C3856 C 0.81494 0.18852 0.82647 0.0
C3857 C 0.8005 0.17161 0.81885 0.0
C3858 C 0.8342 0.20252 0.82089 0.0
C3859 C 0.84983 0.22092 0.82841 0.0
C3860 C 0.8446 0.23498 0.83383 0.0
C3861 C 0.85933 0.25216 0.84104 0.0
C3862 C 0.8794 0.25553 0.84284 0.0
C3863 C 0.88479 0.24175 0.8374 0.0
C3864 C 0.87011 0.22452 0.83019 0.0
C3865 C 0.82339 0.16947 0.76334 0.0
C3866 C 0.84242 0.17001 0.76179 0.0
C3867 C 0.81779 0.1738 0.77573 0.0
C3868 C 0.83086 0.17829 0.78693 0.0
C3869 C 0.85005 0.17934 0.78533 0.0
C3870 C 0.85582 0.1754 0.77292 0.0
C3871 C 0.82462 0.18167 0.80038 0.0
C3872 C 0.83875 0.19896 0.80792 0.0
C3873 C 0.8052 0.16779 0.80597 0.0
C3874 C 0.79005 0.14852 0.79902 0.0
C3875 C 0.79572 0.13409 0.79506 0.0
C3876 C 0.78139 0.11602 0.78844 0.0
C3877 C 0.7613 0.11212 0.78583 0.0
C3878 C 0.75547 0.12628 0.78987 0.0
C3879 C 0.76975 0.14439 0.79648 0.0
H3880 H 0.75023 0.09812 0.7807 0.0
H3881 H 0.89078 0.26885 0.84843 0.0
H3882 H 0.27376 0.11245 0.4795 0.0
H3883 H 0.28241 0.11548 0.50311 0.0
H3884 H 0.30074 0.17947 0.50282 0.0
H3885 H 0.29375 0.17698 0.47895 0.0
H3886 H 0.32809 0.17623 0.51563 0.0
H3887 H 0.25483 0.14131 0.51832 0.0
H3888 H 0.21862 0.115 0.51326 0.0
H3889 H 0.23019 0.06841 0.52781 0.0
H3890 H 0.26657 0.0944 0.53278 0.0
H3891 H 0.33745 0.18176 0.58722 0.0
H3892 H 0.32214 0.18029 0.56521 0.0
H3893 H 0.32235 0.12454 0.55578 0.0
H3894 H 0.33798 0.12615 0.57764 0.0
H3895 H 0.28361 0.12581 0.54911 0.0
H3896 H 0.35876 0.16286 0.54394 0.0
H3897 H 0.39406 0.19063 0.54973 0.0
H3898 H 0.37655 0.23534 0.54065 0.0
H3899 H 0.34103 0.2078 0.535 0.0
C3900 C 0.27976 0.12723 0.48439 0.0
C3901 C 0.28314 0.14449 0.4772 0.0
C3902 C 0.28437 0.12886 0.49801 0.0
C3903 C 0.29196 0.14765 0.50486 0.0
C3904 C 0.29484 0.16478 0.4978 0.0
C3905 C 0.29058 0.16325 0.48413 0.0
C3906 C 0.2982 0.1497 0.51915 0.0
C3907 C 0.31812 0.16541 0.52296 0.0
C3908 C 0.28536 0.13553 0.5288 0.0
C3909 C 0.26349 0.11981 0.52582 0.0
C3910 C 0.2497 0.12543 0.52035 0.0
C3911 C 0.22914 0.11058 0.51751 0.0
C3912 C 0.22212 0.09004 0.52019 0.0
C3913 C 0.23565 0.08432 0.52573 0.0
C3914 C 0.25624 0.09912 0.52857 0.0
C3915 C 0.33407 0.16915 0.58046 0.0
C3916 C 0.33901 0.15415 0.58403 0.0
C3917 C 0.32537 0.16833 0.56794 0.0
C3918 C 0.32117 0.15231 0.55893 0.0
C3919 C 0.32546 0.13697 0.56264 0.0
C3920 C 0.3345 0.13799 0.57505 0.0
C3921 C 0.31338 0.15206 0.54533 0.0
C3922 C 0.29329 0.13671 0.54171 0.0
C3923 C 0.32584 0.16676 0.53591 0.0
C3924 C 0.3472 0.18329 0.53921 0.0
C3925 C 0.36239 0.17861 0.5433 0.0
C3926 C 0.38244 0.19431 0.54653 0.0
C3927 C 0.38752 0.21474 0.5456 0.0
C3928 C 0.37258 0.21951 0.54139 0.0
C3929 C 0.35249 0.20387 0.53817 0.0
H3930 H 0.40306 0.22687 0.5481 0.0
H3931 H 0.2062 0.07857 0.51799 0.0
H3932 H 0.88591 0.1508 0.4779 0.0
H3933 H 0.87458 0.16028 0.49826 0.0
H3934 H 0.87069 0.10811 0.51799 0.0
H3935 H 0.88189 0.09853 0.49771 0.0
H3936 H 0.83765 0.11104 0.52329 0.0
H3937 H 0.9112 0.15739 0.52397 0.0
H3938 H 0.94462 0.18382 0.51507 0.0
H3939 H 0.92138 0.22542 0.51229 0.0
H3940 H 0.88771 0.19912 0.52101 0.0
H3941 H 0.82976 0.13796 0.58978 0.0
H3942 H 0.84247 0.13032 0.56939 0.0
H3943 H 0.84441 0.18223 0.55057 0.0
H3944 H 0.83249 0.19048 0.57112 0.0
H3945 H 0.8781 0.17986 0.54457 0.0
H3946 H 0.80464 0.13344 0.54434 0.0
H3947 H 0.77147 0.10699 0.55351 0.0
H3948 H 0.79472 0.06536 0.55553 0.0
H3949 H 0.82819 0.09168 0.54661 0.0
C3950 C 0.88277 0.14144 0.48661 0.0
C3951 C 0.88476 0.12388 0.48616 0.0
C3952 C 0.8763 0.14687 0.49825 0.0
C3953 C 0.87195 0.13502 0.50972 0.0
C3954 C 0.87387 0.11747 0.50927 0.0
C3955 C 0.88022 0.11197 0.49764 0.0
C3956 C 0.86517 0.14068 0.52219 0.0
C3957 C 0.84664 0.12601 0.52803 0.0
C3958 C 0.87663 0.16036 0.52823 0.0
C3959 C 0.89687 0.17621 0.52302 0.0
C3960 C 0.91317 0.17212 0.52136 0.0
C3961 C 0.93216 0.18708 0.51637 0.0
C3962 C 0.9351 0.20627 0.51308 0.0
C3963 C 0.91907 0.21054 0.51482 0.0
C3964 C 0.90003 0.19562 0.5198 0.0
C3965 C 0.83316 0.14794 0.58138 0.0
C3966 C 0.82999 0.16479 0.58209 0.0
C3967 C 0.84022 0.14342 0.56966 0.0
C3968 C 0.84409 0.15551 0.55836 0.0
C3969 C 0.84142 0.17261 0.55913 0.0
C3970 C 0.83442 0.17719 0.57086 0.0
C3971 C 0.85066 0.15018 0.54569 0.0
C3972 C 0.86911 0.1649 0.53982 0.0
C3973 C 0.83916 0.13052 0.53962 0.0
C3974 C 0.81899 0.11461 0.54492 0.0
C3975 C 0.80274 0.1187 0.54684 0.0
C3976 C 0.78388 0.10372 0.552 0.0
C3977 C 0.78102 0.08453 0.55516 0.0
C3978 C 0.79699 0.08025 0.55313 0.0
C3979 C 0.81591 0.09519 0.54802 0.0
H3980 H 0.76641 0.07295 0.55915 0.0
H3981 H 0.94982 0.21783 0.50922 0.0
H3982 H 0.89705 0.753 0.48369 0.0
H3983 H 0.89122 0.74196 0.5068 0.0
H3984 H 0.82718 0.72596 0.50295 0.0
H3985 H 0.83312 0.73791 0.48007 0.0
H3986 H 0.84147 0.74257 0.52663 0.0
H3987 H 0.84318 0.68977 0.50013 0.0
H3988 H 0.85842 0.67569 0.48448 0.0
H3989 H 0.91003 0.69373 0.51125 0.0
H3990 H 0.89522 0.70817 0.52699 0.0
H3991 H 0.79297 0.66507 0.57505 0.0
H3992 H 0.80508 0.68496 0.55468 0.0
H3993 H 0.86833 0.705 0.56609 0.0
H3994 H 0.85625 0.68522 0.58661 0.0
H3995 H 0.85789 0.68915 0.5398 0.0
H3996 H 0.85374 0.73874 0.56737 0.0
H3997 H 0.83814 0.75273 0.58278 0.0
H3998 H 0.79024 0.73997 0.55396 0.0
H3999 H 0.80537 0.7256 0.53843 0.0
C4000 C 0.88181 0.74752 0.48781 0.0
C4001 C 0.86551 0.74619 0.47991 0.0
C4002 C 0.87844 0.74097 0.50102 0.0
C4003 C 0.85864 0.73271 0.50658 0.0
C4004 C 0.84256 0.73212 0.49889 0.0
C4005 C 0.84595 0.73878 0.48573 0.0
C4006 C 0.85439 0.72404 0.52022 0.0
C4007 C 0.8449 0.73076 0.52945 0.0
C4008 C 0.85933 0.70898 0.52409 0.0
C4009 C 0.86821 0.70026 0.51466 0.0
C4010 C 0.85786 0.69087 0.50263 0.0
C4011 C 0.8664 0.6828 0.49375 0.0
C4012 C 0.88521 0.68387 0.49685 0.0
C4013 C 0.89548 0.69296 0.50886 0.0
C4014 C 0.88702 0.70107 0.51776 0.0
C4015 C 0.80947 0.67382 0.57325 0.0
C4016 C 0.82367 0.67356 0.5824 0.0
C4017 C 0.81637 0.68527 0.56166 0.0
C4018 C 0.83762 0.69654 0.55889 0.0
C4019 C 0.85187 0.69645 0.56805 0.0
C4020 C 0.84498 0.68524 0.57978 0.0
C4021 C 0.8447 0.70748 0.54609 0.0
C4022 C 0.85467 0.70112 0.53701 0.0
C4023 C 0.84006 0.72274 0.54234 0.0
C4024 C 0.83061 0.73093 0.55177 0.0
C4025 C 0.83974 0.73868 0.56437 0.0
C4026 C 0.83101 0.74674 0.57311 0.0
C4027 C 0.81322 0.74723 0.56935 0.0
C4028 C 0.80404 0.73958 0.55686 0.0
C4029 C 0.81269 0.73149 0.54808 0.0
H4030 H 0.80661 0.75365 0.57607 0.0
H4031 H 0.8918 0.67761 0.48997 0.0
loop_
_geom_bond_atom_site_label_1
_geom_bond_atom_site_label_2
_geom_bond_distance
_geom_bond_site_symmetry_2
_ccdc_geom_bond_type
P0 O11 1.490 . S
P0 C14 1.812 . S
P0 C20 1.803 . S
P0 C26 1.819 . S
H1 C15 0.941 . S
H2 C16 0.939 . S
H3 C18 0.940 . S
H4 C19 0.940 . S
H5 C21 0.939 . S
H6 C22 0.942 . S
H7 C24 0.940 . S
H8 C25 0.939 . S
H9 C27 0.941 . S
H10 C31 0.939 . S
O11 P0 1.490 . S
H12 C28 0.939 . S
H13 C30 0.940 . S
C14 P0 1.812 . S
C14 C15 1.389 . S
C14 C19 1.391 . S
C15 H1 0.941 . S
C15 C14 1.389 . S
C15 C16 1.397 . S
C16 H2 0.939 . S
C16 C15 1.397 . S
C16 C17 1.378 . S
C17 C16 1.378 . S
C17 C18 1.378 . S
C18 H3 0.940 . S
C18 C17 1.378 . S
C18 C19 1.396 . S
C19 H4 0.940 . S
C19 C14 1.391 . S
C19 C18 1.396 . S
C20 P0 1.803 . S
C20 C21 1.378 . S
C20 C25 1.400 . S
C21 H5 0.939 . S
C21 C20 1.378 . S
C21 C22 1.361 . S
C22 H6 0.942 . S
C22 C21 1.361 . S
C22 C23 1.369 . S
C23 C22 1.369 . S
C23 C24 1.404 . S
C24 H7 0.940 . S
C24 C23 1.404 . S
C24 C25 1.389 . S
C25 H8 0.939 . S
C25 C20 1.400 . S
C25 C24 1.389 . S
C26 P0 1.819 . S
C26 C27 1.391 . S
C26 C31 1.391 . S
C27 H9 0.941 . S
C27 C26 1.391 . S
C27 C28 1.396 . S
C28 H12 0.939 . S
C28 C27 1.396 . S
C28 C29 1.397 . S
C29 C28 1.397 . S
C29 C30 1.385 . S
C30 H13 0.940 . S
C30 C29 1.385 . S
C30 C31 1.388 . S
C31 H10 0.939 . S
C31 C26 1.391 . S
C31 C30 1.388 . S
P32 O43 1.490 . S
P32 C46 1.812 . S
P32 C52 1.803 . S
P32 C58 1.819 . S
H33 C47 0.941 . S
H34 C48 0.939 . S
H35 C50 0.940 . S
H36 C51 0.940 . S
H37 C53 0.939 . S
H38 C54 0.942 . S
H39 C56 0.940 . S
H40 C57 0.939 . S
H41 C59 0.941 . S
H42 C63 0.939 . S
O43 P32 1.490 . S
H44 C60 0.939 . S
H45 C62 0.940 . S
C46 P32 1.812 . S
C46 C47 1.389 . S
C46 C51 1.391 . S
C47 H33 0.941 . S
C47 C46 1.389 . S
C47 C48 1.397 . S
C48 H34 0.939 . S
C48 C47 1.397 . S
C48 C49 1.378 . S
C49 C48 1.378 . S
C49 C50 1.378 . S
C50 H35 0.940 . S
C50 C49 1.378 . S
C50 C51 1.396 . S
C51 H36 0.940 . S
C51 C46 1.391 . S
C51 C50 1.396 . S
C52 P32 1.803 . S
C52 C53 1.378 . S
C52 C57 1.400 . S
C53 H37 0.939 . S
C53 C52 1.378 . S
C53 C54 1.361 . S
C54 H38 0.942 . S
C54 C53 1.361 . S
C54 C55 1.369 . S
C55 C54 1.369 . S
C55 C56 1.404 . S
C56 H39 0.940 . S
C56 C55 1.404 . S
C56 C57 1.389 . S
C57 H40 0.939 . S
C57 C52 1.400 . S
C57 C56 1.389 . S
C58 P32 1.819 . S
C58 C59 1.391 . S
C58 C63 1.391 . S
C59 H41 0.941 . S
C59 C58 1.391 . S
C59 C60 1.396 . S
C60 H44 0.939 . S
C60 C59 1.396 . S
C60 C61 1.397 . S
C61 C60 1.397 . S
C61 C62 1.385 . S
C62 H45 0.940 . S
C62 C61 1.385 . S
C62 C63 1.388 . S
C63 H42 0.939 . S
C63 C58 1.391 . S
C63 C62 1.388 . S
P64 O75 1.490 . S
P64 C78 1.812 . S
P64 C84 1.803 . S
P64 C90 1.819 . S
H65 C79 0.941 . S
H66 C80 0.939 . S
H67 C82 0.940 . S
H68 C83 0.940 . S
H69 C85 0.939 . S
H70 C86 0.942 . S
H71 C88 0.940 . S
H72 C89 0.939 . S
H73 C91 0.941 . S
H74 C95 0.939 . S
O75 P64 1.490 . S
H76 C92 0.939 . S
H77 C94 0.940 . S
C78 P64 1.812 . S
C78 C79 1.389 . S
C78 C83 1.391 . S
C79 H65 0.941 . S
C79 C78 1.389 . S
C79 C80 1.397 . S
C80 H66 0.939 . S
C80 C79 1.397 . S
C80 C81 1.378 . S
C81 C80 1.378 . S
C81 C82 1.378 . S
C82 H67 0.940 . S
C82 C81 1.378 . S
C82 C83 1.396 . S
C83 H68 0.940 . S
C83 C78 1.391 . S
C83 C82 1.396 . S
C84 P64 1.803 . S
C84 C85 1.378 . S
C84 C89 1.400 . S
C85 H69 0.939 . S
C85 C84 1.378 . S
C85 C86 1.361 . S
C86 H70 0.942 . S
C86 C85 1.361 . S
C86 C87 1.369 . S
C87 C86 1.369 . S
C87 C88 1.404 . S
C88 H71 0.940 . S
C88 C87 1.404 . S
C88 C89 1.389 . S
C89 H72 0.939 . S
C89 C84 1.400 . S
C89 C88 1.389 . S
C90 P64 1.819 . S
C90 C91 1.391 . S
C90 C95 1.391 . S
C91 H73 0.941 . S
C91 C90 1.391 . S
C91 C92 1.396 . S
C92 H76 0.939 . S
C92 C91 1.396 . S
C92 C93 1.397 . S
C93 C92 1.397 . S
C93 C94 1.385 . S
C94 H77 0.940 . S
C94 C93 1.385 . S
C94 C95 1.388 . S
C95 H74 0.939 . S
C95 C90 1.391 . S
C95 C94 1.388 . S
P96 O107 1.490 . S
P96 C110 1.812 . S
P96 C116 1.803 . S
P96 C122 1.819 . S
H97 C111 0.941 . S
H98 C112 0.939 . S
H99 C114 0.940 . S
H100 C115 0.940 . S
H101 C117 0.939 . S
H102 C118 0.942 . S
H103 C120 0.940 . S
H104 C121 0.939 . S
H105 C123 0.941 . S
H106 C127 0.939 . S
O107 P96 1.490 . S
H108 C124 0.939 . S
H109 C126 0.940 . S
C110 P96 1.812 . S
C110 C111 1.389 . S
C110 C115 1.391 . S
C111 H97 0.941 . S
C111 C110 1.389 . S
C111 C112 1.397 . S
C112 H98 0.939 . S
C112 C111 1.397 . S
C112 C113 1.378 . S
C113 C112 1.378 . S
C113 C114 1.378 . S
C114 H99 0.940 . S
C114 C113 1.378 . S
C114 C115 1.396 . S
C115 H100 0.940 . S
C115 C110 1.391 . S
C115 C114 1.396 . S
C116 P96 1.803 . S
C116 C117 1.378 . S
C116 C121 1.400 . S
C117 H101 0.939 . S
C117 C116 1.378 . S
C117 C118 1.361 . S
C118 H102 0.942 . S
C118 C117 1.361 . S
C118 C119 1.369 . S
C119 C118 1.369 . S
C119 C120 1.404 . S
C120 H103 0.940 . S
C120 C119 1.404 . S
C120 C121 1.389 . S
C121 H104 0.939 . S
C121 C116 1.400 . S
C121 C120 1.389 . S
C122 P96 1.819 . S
C122 C123 1.391 . S
C122 C127 1.391 . S
C123 H105 0.941 . S
C123 C122 1.391 . S
C123 C124 1.396 . S
C124 H108 0.939 . S
C124 C123 1.396 . S
C124 C125 1.397 . S
C125 C124 1.397 . S
C125 C126 1.385 . S
C126 H109 0.940 . S
C126 C125 1.385 . S
C126 C127 1.388 . S
C127 H106 0.939 . S
C127 C122 1.391 . S
C127 C126 1.388 . S
P128 O139 1.490 . S
P128 C142 1.812 . S
P128 C148 1.803 . S
P128 C154 1.819 . S
H129 C143 0.941 . S
H130 C144 0.939 . S
H131 C146 0.940 . S
H132 C147 0.940 . S
H133 C149 0.939 . S
H134 C150 0.942 . S
H135 C152 0.940 . S
H136 C153 0.939 . S
H137 C155 0.941 . S
H138 C159 0.939 . S
O139 P128 1.490 . S
H140 C156 0.939 . S
H141 C158 0.940 . S
C142 P128 1.812 . S
C142 C143 1.389 . S
C142 C147 1.391 . S
C143 H129 0.941 . S
C143 C142 1.389 . S
C143 C144 1.397 . S
C144 H130 0.939 . S
C144 C143 1.397 . S
C144 C145 1.378 . S
C145 C144 1.378 . S
C145 C146 1.378 . S
C146 H131 0.940 . S
C146 C145 1.378 . S
C146 C147 1.396 . S
C147 H132 0.940 . S
C147 C142 1.391 . S
C147 C146 1.396 . S
C148 P128 1.803 . S
C148 C149 1.378 . S
C148 C153 1.400 . S
C149 H133 0.939 . S
C149 C148 1.378 . S
C149 C150 1.361 . S
C150 H134 0.942 . S
C150 C149 1.361 . S
C150 C151 1.369 . S
C151 C150 1.369 . S
C151 C152 1.404 . S
C152 H135 0.940 . S
C152 C151 1.404 . S
C152 C153 1.389 . S
C153 H136 0.939 . S
C153 C148 1.400 . S
C153 C152 1.389 . S
C154 P128 1.819 . S
C154 C155 1.391 . S
C154 C159 1.391 . S
C155 H137 0.941 . S
C155 C154 1.391 . S
C155 C156 1.396 . S
C156 H140 0.939 . S
C156 C155 1.396 . S
C156 C157 1.397 . S
C157 C156 1.397 . S
C157 C158 1.385 . S
C158 H141 0.940 . S
C158 C157 1.385 . S
C158 C159 1.388 . S
C159 H138 0.939 . S
C159 C154 1.391 . S
C159 C158 1.388 . S
P160 O171 1.490 . S
P160 C174 1.812 . S
P160 C180 1.803 . S
P160 C186 1.819 . S
H161 C175 0.941 . S
H162 C176 0.939 . S
H163 C178 0.940 . S
H164 C179 0.940 . S
H165 C181 0.939 . S
H166 C182 0.942 . S
H167 C184 0.940 . S
H168 C185 0.939 . S
H169 C187 0.941 . S
H170 C191 0.939 . S
O171 P160 1.490 . S
H172 C188 0.939 . S
H173 C190 0.940 . S
C174 P160 1.812 . S
C174 C175 1.389 . S
C174 C179 1.391 . S
C175 H161 0.941 . S
C175 C174 1.389 . S
C175 C176 1.397 . S
C176 H162 0.939 . S
C176 C175 1.397 . S
C176 C177 1.378 . S
C177 C176 1.378 . S
C177 C178 1.378 . S
C178 H163 0.940 . S
C178 C177 1.378 . S
C178 C179 1.396 . S
C179 H164 0.940 . S
C179 C174 1.391 . S
C179 C178 1.396 . S
C180 P160 1.803 . S
C180 C181 1.378 . S
C180 C185 1.400 . S
C181 H165 0.939 . S
C181 C180 1.378 . S
C181 C182 1.361 . S
C182 H166 0.942 . S
C182 C181 1.361 . S
C182 C183 1.369 . S
C183 C182 1.369 . S
C183 C184 1.404 . S
C184 H167 0.940 . S
C184 C183 1.404 . S
C184 C185 1.389 . S
C185 H168 0.939 . S
C185 C180 1.400 . S
C185 C184 1.389 . S
C186 P160 1.819 . S
C186 C187 1.391 . S
C186 C191 1.391 . S
C187 H169 0.941 . S
C187 C186 1.391 . S
C187 C188 1.396 . S
C188 H172 0.939 . S
C188 C187 1.396 . S
C188 C189 1.397 . S
C189 C188 1.397 . S
C189 C190 1.385 . S
C190 H173 0.940 . S
C190 C189 1.385 . S
C190 C191 1.388 . S
C191 H170 0.939 . S
C191 C186 1.391 . S
C191 C190 1.388 . S
P192 O203 1.490 . S
P192 C206 1.812 . S
P192 C212 1.803 . S
P192 C218 1.819 . S
H193 C207 0.941 . S
H194 C208 0.939 . S
H195 C210 0.940 . S
H196 C211 0.940 . S
H197 C213 0.939 . S
H198 C214 0.942 . S
H199 C216 0.940 . S
H200 C217 0.939 . S
H201 C219 0.941 . S
H202 C223 0.939 . S
O203 P192 1.490 . S
H204 C220 0.939 . S
H205 C222 0.940 . S
C206 P192 1.812 . S
C206 C207 1.389 . S
C206 C211 1.391 . S
C207 H193 0.941 . S
C207 C206 1.389 . S
C207 C208 1.397 . S
C208 H194 0.939 . S
C208 C207 1.397 . S
C208 C209 1.378 . S
C209 C208 1.378 . S
C209 C210 1.378 . S
C210 H195 0.940 . S
C210 C209 1.378 . S
C210 C211 1.396 . S
C211 H196 0.940 . S
C211 C206 1.391 . S
C211 C210 1.396 . S
C212 P192 1.803 . S
C212 C213 1.378 . S
C212 C217 1.400 . S
C213 H197 0.939 . S
C213 C212 1.378 . S
C213 C214 1.361 . S
C214 H198 0.942 . S
C214 C213 1.361 . S
C214 C215 1.369 . S
C215 C214 1.369 . S
C215 C216 1.404 . S
C216 H199 0.940 . S
C216 C215 1.404 . S
C216 C217 1.389 . S
C217 H200 0.939 . S
C217 C212 1.400 . S
C217 C216 1.389 . S
C218 P192 1.819 . S
C218 C219 1.391 . S
C218 C223 1.391 . S
C219 H201 0.941 . S
C219 C218 1.391 . S
C219 C220 1.396 . S
C220 H204 0.939 . S
C220 C219 1.396 . S
C220 C221 1.397 . S
C221 C220 1.397 . S
C221 C222 1.385 . S
C222 H205 0.940 . S
C222 C221 1.385 . S
C222 C223 1.388 . S
C223 H202 0.939 . S
C223 C218 1.391 . S
C223 C222 1.388 . S
P224 O235 1.490 . S
P224 C238 1.812 . S
P224 C244 1.803 . S
P224 C250 1.819 . S
H225 C239 0.941 . S
H226 C240 0.939 . S
H227 C242 0.940 . S
H228 C243 0.940 . S
H229 C245 0.939 . S
H230 C246 0.942 . S
H231 C248 0.940 . S
H232 C249 0.939 . S
H233 C251 0.941 . S
H234 C255 0.939 . S
O235 P224 1.490 . S
H236 C252 0.939 . S
H237 C254 0.940 . S
C238 P224 1.812 . S
C238 C239 1.389 . S
C238 C243 1.391 . S
C239 H225 0.941 . S
C239 C238 1.389 . S
C239 C240 1.397 . S
C240 H226 0.939 . S
C240 C239 1.397 . S
C240 C241 1.378 . S
C241 C240 1.378 . S
C241 C242 1.378 . S
C242 H227 0.940 . S
C242 C241 1.378 . S
C242 C243 1.396 . S
C243 H228 0.940 . S
C243 C238 1.391 . S
C243 C242 1.396 . S
C244 P224 1.803 . S
C244 C245 1.378 . S
C244 C249 1.400 . S
C245 H229 0.939 . S
C245 C244 1.378 . S
C245 C246 1.361 . S
C246 H230 0.942 . S
C246 C245 1.361 . S
C246 C247 1.369 . S
C247 C246 1.369 . S
C247 C248 1.404 . S
C248 H231 0.940 . S
C248 C247 1.404 . S
C248 C249 1.389 . S
C249 H232 0.939 . S
C249 C244 1.400 . S
C249 C248 1.389 . S
C250 P224 1.819 . S
C250 C251 1.391 . S
C250 C255 1.391 . S
C251 H233 0.941 . S
C251 C250 1.391 . S
C251 C252 1.396 . S
C252 H236 0.939 . S
C252 C251 1.396 . S
C252 C253 1.397 . S
C253 C252 1.397 . S
C253 C254 1.385 . S
C254 H237 0.940 . S
C254 C253 1.385 . S
C254 C255 1.388 . S
C255 H234 0.939 . S
C255 C250 1.391 . S
C255 C254 1.388 . S
P256 O267 1.490 . S
P256 C270 1.812 . S
P256 C276 1.803 . S
P256 C282 1.819 . S
H257 C271 0.941 . S
H258 C272 0.939 . S
H259 C274 0.940 . S
H260 C275 0.940 . S
H261 C277 0.939 . S
H262 C278 0.942 . S
H263 C280 0.940 . S
H264 C281 0.939 . S
H265 C283 0.941 . S
H266 C287 0.939 . S
O267 P256 1.490 . S
H268 C284 0.939 . S
H269 C286 0.940 . S
C270 P256 1.812 . S
C270 C271 1.389 . S
C270 C275 1.391 . S
C271 H257 0.941 . S
C271 C270 1.389 . S
C271 C272 1.397 . S
C272 H258 0.939 . S
C272 C271 1.397 . S
C272 C273 1.378 . S
C273 C272 1.378 . S
C273 C274 1.378 . S
C274 H259 0.940 . S
C274 C273 1.378 . S
C274 C275 1.396 . S
C275 H260 0.940 . S
C275 C270 1.391 . S
C275 C274 1.396 . S
C276 P256 1.803 . S
C276 C277 1.378 . S
C276 C281 1.400 . S
C277 H261 0.939 . S
C277 C276 1.378 . S
C277 C278 1.361 . S
C278 H262 0.942 . S
C278 C277 1.361 . S
C278 C279 1.369 . S
C279 C278 1.369 . S
C279 C280 1.404 . S
C280 H263 0.940 . S
C280 C279 1.404 . S
C280 C281 1.389 . S
C281 H264 0.939 . S
C281 C276 1.400 . S
C281 C280 1.389 . S
C282 P256 1.819 . S
C282 C283 1.391 . S
C282 C287 1.391 . S
C283 H265 0.941 . S
C283 C282 1.391 . S
C283 C284 1.396 . S
C284 H268 0.939 . S
C284 C283 1.396 . S
C284 C285 1.397 . S
C285 C284 1.397 . S
C285 C286 1.385 . S
C286 H269 0.940 . S
C286 C285 1.385 . S
C286 C287 1.388 . S
C287 H266 0.939 . S
C287 C282 1.391 . S
C287 C286 1.388 . S
P288 O299 1.490 . S
P288 C302 1.812 . S
P288 C308 1.803 . S
P288 C314 1.819 . S
H289 C303 0.941 . S
H290 C304 0.939 . S
H291 C306 0.940 . S
H292 C307 0.940 . S
H293 C309 0.939 . S
H294 C310 0.942 . S
H295 C312 0.940 . S
H296 C313 0.939 . S
H297 C315 0.941 . S
H298 C319 0.939 . S
O299 P288 1.490 . S
H300 C316 0.939 . S
H301 C318 0.940 . S
C302 P288 1.812 . S
C302 C303 1.389 . S
C302 C307 1.391 . S
C303 H289 0.941 . S
C303 C302 1.389 . S
C303 C304 1.397 . S
C304 H290 0.939 . S
C304 C303 1.397 . S
C304 C305 1.378 . S
C305 C304 1.378 . S
C305 C306 1.378 . S
C306 H291 0.940 . S
C306 C305 1.378 . S
C306 C307 1.396 . S
C307 H292 0.940 . S
C307 C302 1.391 . S
C307 C306 1.396 . S
C308 P288 1.803 . S
C308 C309 1.378 . S
C308 C313 1.400 . S
C309 H293 0.939 . S
C309 C308 1.378 . S
C309 C310 1.361 . S
C310 H294 0.942 . S
C310 C309 1.361 . S
C310 C311 1.369 . S
C311 C310 1.369 . S
C311 C312 1.404 . S
C312 H295 0.940 . S
C312 C311 1.404 . S
C312 C313 1.389 . S
C313 H296 0.939 . S
C313 C308 1.400 . S
C313 C312 1.389 . S
C314 P288 1.819 . S
C314 C315 1.391 . S
C314 C319 1.391 . S
C315 H297 0.941 . S
C315 C314 1.391 . S
C315 C316 1.396 . S
C316 H300 0.939 . S
C316 C315 1.396 . S
C316 C317 1.397 . S
C317 C316 1.397 . S
C317 C318 1.385 . S
C318 H301 0.940 . S
C318 C317 1.385 . S
C318 C319 1.388 . S
C319 H298 0.939 . S
C319 C314 1.391 . S
C319 C318 1.388 . S
P320 O331 1.490 . S
P320 C334 1.812 . S
P320 C340 1.803 . S
P320 C346 1.819 . S
H321 C335 0.941 . S
H322 C336 0.939 . S
H323 C338 0.940 . S
H324 C339 0.940 . S
H325 C341 0.939 . S
H326 C342 0.942 . S
H327 C344 0.940 . S
H328 C345 0.939 . S
H329 C347 0.941 . S
H330 C351 0.939 . S
O331 P320 1.490 . S
H332 C348 0.939 . S
H333 C350 0.940 . S
C334 P320 1.812 . S
C334 C335 1.389 . S
C334 C339 1.391 . S
C335 H321 0.941 . S
C335 C334 1.389 . S
C335 C336 1.397 . S
C336 H322 0.939 . S
C336 C335 1.397 . S
C336 C337 1.378 . S
C337 C336 1.378 . S
C337 C338 1.378 . S
C338 H323 0.940 . S
C338 C337 1.378 . S
C338 C339 1.396 . S
C339 H324 0.940 . S
C339 C334 1.391 . S
C339 C338 1.396 . S
C340 P320 1.803 . S
C340 C341 1.378 . S
C340 C345 1.400 . S
C341 H325 0.939 . S
C341 C340 1.378 . S
C341 C342 1.361 . S
C342 H326 0.942 . S
C342 C341 1.361 . S
C342 C343 1.369 . S
C343 C342 1.369 . S
C343 C344 1.404 . S
C344 H327 0.940 . S
C344 C343 1.404 . S
C344 C345 1.389 . S
C345 H328 0.939 . S
C345 C340 1.400 . S
C345 C344 1.389 . S
C346 P320 1.819 . S
C346 C347 1.391 . S
C346 C351 1.391 . S
C347 H329 0.941 . S
C347 C346 1.391 . S
C347 C348 1.396 . S
C348 H332 0.939 . S
C348 C347 1.396 . S
C348 C349 1.397 . S
C349 C348 1.397 . S
C349 C350 1.385 . S
C350 H333 0.940 . S
C350 C349 1.385 . S
C350 C351 1.388 . S
C351 H330 0.939 . S
C351 C346 1.391 . S
C351 C350 1.388 . S
P352 O363 1.490 . S
P352 C366 1.812 . S
P352 C372 1.803 . S
P352 C378 1.819 . S
H353 C367 0.941 . S
H354 C368 0.939 . S
H355 C370 0.940 . S
H356 C371 0.940 . S
H357 C373 0.939 . S
H358 C374 0.942 . S
H359 C376 0.940 . S
H360 C377 0.939 . S
H361 C379 0.941 . S
H362 C383 0.939 . S
O363 P352 1.490 . S
H364 C380 0.939 . S
H365 C382 0.940 . S
C366 P352 1.812 . S
C366 C367 1.389 . S
C366 C371 1.391 . S
C367 H353 0.941 . S
C367 C366 1.389 . S
C367 C368 1.397 . S
C368 H354 0.939 . S
C368 C367 1.397 . S
C368 C369 1.378 . S
C369 C368 1.378 . S
C369 C370 1.378 . S
C370 H355 0.940 . S
C370 C369 1.378 . S
C370 C371 1.396 . S
C371 H356 0.940 . S
C371 C366 1.391 . S
C371 C370 1.396 . S
C372 P352 1.803 . S
C372 C373 1.378 . S
C372 C377 1.400 . S
C373 H357 0.939 . S
C373 C372 1.378 . S
C373 C374 1.361 . S
C374 H358 0.942 . S
C374 C373 1.361 . S
C374 C375 1.369 . S
C375 C374 1.369 . S
C375 C376 1.404 . S
C376 H359 0.940 . S
C376 C375 1.404 . S
C376 C377 1.389 . S
C377 H360 0.939 . S
C377 C372 1.400 . S
C377 C376 1.389 . S
C378 P352 1.819 . S
C378 C379 1.391 . S
C378 C383 1.391 . S
C379 H361 0.941 . S
C379 C378 1.391 . S
C379 C380 1.396 . S
C380 H364 0.939 . S
C380 C379 1.396 . S
C380 C381 1.397 . S
C381 C380 1.397 . S
C381 C382 1.385 . S
C382 H365 0.940 . S
C382 C381 1.385 . S
C382 C383 1.388 . S
C383 H362 0.939 . S
C383 C378 1.391 . S
C383 C382 1.388 . S
P384 O395 1.490 . S
P384 C398 1.812 . S
P384 C404 1.803 . S
P384 C410 1.819 . S
H385 C399 0.941 . S
H386 C400 0.939 . S
H387 C402 0.940 . S
H388 C403 0.940 . S
H389 C405 0.939 . S
H390 C406 0.942 . S
H391 C408 0.940 . S
H392 C409 0.939 . S
H393 C411 0.941 . S
H394 C415 0.939 . S
O395 P384 1.490 . S
H396 C412 0.939 . S
H397 C414 0.940 . S
C398 P384 1.812 . S
C398 C399 1.389 . S
C398 C403 1.391 . S
C399 H385 0.941 . S
C399 C398 1.389 . S
C399 C400 1.397 . S
C400 H386 0.939 . S
C400 C399 1.397 . S
C400 C401 1.378 . S
C401 C400 1.378 . S
C401 C402 1.378 . S
C402 H387 0.940 . S
C402 C401 1.378 . S
C402 C403 1.396 . S
C403 H388 0.940 . S
C403 C398 1.391 . S
C403 C402 1.396 . S
C404 P384 1.803 . S
C404 C405 1.378 . S
C404 C409 1.400 . S
C405 H389 0.939 . S
C405 C404 1.378 . S
C405 C406 1.361 . S
C406 H390 0.942 . S
C406 C405 1.361 . S
C406 C407 1.369 . S
C407 C406 1.369 . S
C407 C408 1.404 . S
C408 H391 0.940 . S
C408 C407 1.404 . S
C408 C409 1.389 . S
C409 H392 0.939 . S
C409 C404 1.400 . S
C409 C408 1.389 . S
C410 P384 1.819 . S
C410 C411 1.391 . S
C410 C415 1.391 . S
C411 H393 0.941 . S
C411 C410 1.391 . S
C411 C412 1.396 . S
C412 H396 0.939 . S
C412 C411 1.396 . S
C412 C413 1.397 . S
C413 C412 1.397 . S
C413 C414 1.385 . S
C414 H397 0.940 . S
C414 C413 1.385 . S
C414 C415 1.388 . S
C415 H394 0.939 . S
C415 C410 1.391 . S
C415 C414 1.388 . S
P416 O427 1.490 . S
P416 C430 1.812 . S
P416 C436 1.803 . S
P416 C442 1.819 . S
H417 C431 0.941 . S
H418 C432 0.939 . S
H419 C434 0.940 . S
H420 C435 0.940 . S
H421 C437 0.939 . S
H422 C438 0.942 . S
H423 C440 0.940 . S
H424 C441 0.939 . S
H425 C443 0.941 . S
H426 C447 0.939 . S
O427 P416 1.490 . S
H428 C444 0.939 . S
H429 C446 0.940 . S
C430 P416 1.812 . S
C430 C431 1.389 . S
C430 C435 1.391 . S
C431 H417 0.941 . S
C431 C430 1.389 . S
C431 C432 1.397 . S
C432 H418 0.939 . S
C432 C431 1.397 . S
C432 C433 1.378 . S
C433 C432 1.378 . S
C433 C434 1.378 . S
C434 H419 0.940 . S
C434 C433 1.378 . S
C434 C435 1.396 . S
C435 H420 0.940 . S
C435 C430 1.391 . S
C435 C434 1.396 . S
C436 P416 1.803 . S
C436 C437 1.378 . S
C436 C441 1.400 . S
C437 H421 0.939 . S
C437 C436 1.378 . S
C437 C438 1.361 . S
C438 H422 0.942 . S
C438 C437 1.361 . S
C438 C439 1.369 . S
C439 C438 1.369 . S
C439 C440 1.404 . S
C440 H423 0.940 . S
C440 C439 1.404 . S
C440 C441 1.389 . S
C441 H424 0.939 . S
C441 C436 1.400 . S
C441 C440 1.389 . S
C442 P416 1.819 . S
C442 C443 1.391 . S
C442 C447 1.391 . S
C443 H425 0.941 . S
C443 C442 1.391 . S
C443 C444 1.396 . S
C444 H428 0.939 . S
C444 C443 1.396 . S
C444 C445 1.397 . S
C445 C444 1.397 . S
C445 C446 1.385 . S
C446 H429 0.940 . S
C446 C445 1.385 . S
C446 C447 1.388 . S
C447 H426 0.939 . S
C447 C442 1.391 . S
C447 C446 1.388 . S
P448 O459 1.490 . S
P448 C462 1.812 . S
P448 C468 1.803 . S
P448 C474 1.819 . S
H449 C463 0.941 . S
H450 C464 0.939 . S
H451 C466 0.940 . S
H452 C467 0.940 . S
H453 C469 0.939 . S
H454 C470 0.942 . S
H455 C472 0.940 . S
H456 C473 0.939 . S
H457 C475 0.941 . S
H458 C479 0.939 . S
O459 P448 1.490 . S
H460 C476 0.939 . S
H461 C478 0.940 . S
C462 P448 1.812 . S
C462 C463 1.389 . S
C462 C467 1.391 . S
C463 H449 0.941 . S
C463 C462 1.389 . S
C463 C464 1.397 . S
C464 H450 0.939 . S
C464 C463 1.397 . S
C464 C465 1.378 . S
C465 C464 1.378 . S
C465 C466 1.378 . S
C466 H451 0.940 . S
C466 C465 1.378 . S
C466 C467 1.396 . S
C467 H452 0.940 . S
C467 C462 1.391 . S
C467 C466 1.396 . S
C468 P448 1.803 . S
C468 C469 1.378 . S
C468 C473 1.400 . S
C469 H453 0.939 . S
C469 C468 1.378 . S
C469 C470 1.361 . S
C470 H454 0.942 . S
C470 C469 1.361 . S
C470 C471 1.369 . S
C471 C470 1.369 . S
C471 C472 1.404 . S
C472 H455 0.940 . S
C472 C471 1.404 . S
C472 C473 1.389 . S
C473 H456 0.939 . S
C473 C468 1.400 . S
C473 C472 1.389 . S
C474 P448 1.819 . S
C474 C475 1.391 . S
C474 C479 1.391 . S
C475 H457 0.941 . S
C475 C474 1.391 . S
C475 C476 1.396 . S
C476 H460 0.939 . S
C476 C475 1.396 . S
C476 C477 1.397 . S
C477 C476 1.397 . S
C477 C478 1.385 . S
C478 H461 0.940 . S
C478 C477 1.385 . S
C478 C479 1.388 . S
C479 H458 0.939 . S
C479 C474 1.391 . S
C479 C478 1.388 . S
P480 O491 1.490 . S
P480 C494 1.812 . S
P480 C500 1.803 . S
P480 C506 1.819 . S
H481 C495 0.941 . S
H482 C496 0.939 . S
H483 C498 0.940 . S
H484 C499 0.940 . S
H485 C501 0.939 . S
H486 C502 0.942 . S
H487 C504 0.940 . S
H488 C505 0.939 . S
H489 C507 0.941 . S
H490 C511 0.939 . S
O491 P480 1.490 . S
H492 C508 0.939 . S
H493 C510 0.940 . S
C494 P480 1.812 . S
C494 C495 1.389 . S
C494 C499 1.391 . S
C495 H481 0.941 . S
C495 C494 1.389 . S
C495 C496 1.397 . S
C496 H482 0.939 . S
C496 C495 1.397 . S
C496 C497 1.378 . S
C497 C496 1.378 . S
C497 C498 1.378 . S
C498 H483 0.940 . S
C498 C497 1.378 . S
C498 C499 1.396 . S
C499 H484 0.940 . S
C499 C494 1.391 . S
C499 C498 1.396 . S
C500 P480 1.803 . S
C500 C501 1.378 . S
C500 C505 1.400 . S
C501 H485 0.939 . S
C501 C500 1.378 . S
C501 C502 1.361 . S
C502 H486 0.942 . S
C502 C501 1.361 . S
C502 C503 1.369 . S
C503 C502 1.369 . S
C503 C504 1.404 . S
C504 H487 0.940 . S
C504 C503 1.404 . S
C504 C505 1.389 . S
C505 H488 0.939 . S
C505 C500 1.400 . S
C505 C504 1.389 . S
C506 P480 1.819 . S
C506 C507 1.391 . S
C506 C511 1.391 . S
C507 H489 0.941 . S
C507 C506 1.391 . S
C507 C508 1.396 . S
C508 H492 0.939 . S
C508 C507 1.396 . S
C508 C509 1.397 . S
C509 C508 1.397 . S
C509 C510 1.385 . S
C510 H493 0.940 . S
C510 C509 1.385 . S
C510 C511 1.388 . S
C511 H490 0.939 . S
C511 C506 1.391 . S
C511 C510 1.388 . S
P512 O523 1.490 . S
P512 C526 1.812 . S
P512 C532 1.803 . S
P512 C538 1.819 . S
H513 C527 0.941 . S
H514 C528 0.939 . S
H515 C530 0.940 . S
H516 C531 0.940 . S
H517 C533 0.939 . S
H518 C534 0.942 . S
H519 C536 0.940 . S
H520 C537 0.939 . S
H521 C539 0.941 . S
H522 C543 0.939 . S
O523 P512 1.490 . S
H524 C540 0.939 . S
H525 C542 0.940 . S
C526 P512 1.812 . S
C526 C527 1.389 . S
C526 C531 1.391 . S
C527 H513 0.941 . S
C527 C526 1.389 . S
C527 C528 1.397 . S
C528 H514 0.939 . S
C528 C527 1.397 . S
C528 C529 1.378 . S
C529 C528 1.378 . S
C529 C530 1.378 . S
C530 H515 0.940 . S
C530 C529 1.378 . S
C530 C531 1.396 . S
C531 H516 0.940 . S
C531 C526 1.391 . S
C531 C530 1.396 . S
C532 P512 1.803 . S
C532 C533 1.378 . S
C532 C537 1.400 . S
C533 H517 0.939 . S
C533 C532 1.378 . S
C533 C534 1.361 . S
C534 H518 0.942 . S
C534 C533 1.361 . S
C534 C535 1.369 . S
C535 C534 1.369 . S
C535 C536 1.404 . S
C536 H519 0.940 . S
C536 C535 1.404 . S
C536 C537 1.389 . S
C537 H520 0.939 . S
C537 C532 1.400 . S
C537 C536 1.389 . S
C538 P512 1.819 . S
C538 C539 1.391 . S
C538 C543 1.391 . S
C539 H521 0.941 . S
C539 C538 1.391 . S
C539 C540 1.396 . S
C540 H524 0.939 . S
C540 C539 1.396 . S
C540 C541 1.397 . S
C541 C540 1.397 . S
C541 C542 1.385 . S
C542 H525 0.940 . S
C542 C541 1.385 . S
C542 C543 1.388 . S
C543 H522 0.939 . S
C543 C538 1.391 . S
C543 C542 1.388 . S
P544 O555 1.490 . S
P544 C558 1.812 . S
P544 C564 1.803 . S
P544 C570 1.819 . S
H545 C559 0.941 . S
H546 C560 0.939 . S
H547 C562 0.940 . S
H548 C563 0.940 . S
H549 C565 0.939 . S
H550 C566 0.942 . S
H551 C568 0.940 . S
H552 C569 0.939 . S
H553 C571 0.941 . S
H554 C575 0.939 . S
O555 P544 1.490 . S
H556 C572 0.939 . S
H557 C574 0.940 . S
C558 P544 1.812 . S
C558 C559 1.389 . S
C558 C563 1.391 . S
C559 H545 0.941 . S
C559 C558 1.389 . S
C559 C560 1.397 . S
C560 H546 0.939 . S
C560 C559 1.397 . S
C560 C561 1.378 . S
C561 C560 1.378 . S
C561 C562 1.378 . S
C562 H547 0.940 . S
C562 C561 1.378 . S
C562 C563 1.396 . S
C563 H548 0.940 . S
C563 C558 1.391 . S
C563 C562 1.396 . S
C564 P544 1.803 . S
C564 C565 1.378 . S
C564 C569 1.400 . S
C565 H549 0.939 . S
C565 C564 1.378 . S
C565 C566 1.361 . S
C566 H550 0.942 . S
C566 C565 1.361 . S
C566 C567 1.369 . S
C567 C566 1.369 . S
C567 C568 1.404 . S
C568 H551 0.940 . S
C568 C567 1.404 . S
C568 C569 1.389 . S
C569 H552 0.939 . S
C569 C564 1.400 . S
C569 C568 1.389 . S
C570 P544 1.819 . S
C570 C571 1.391 . S
C570 C575 1.391 . S
C571 H553 0.941 . S
C571 C570 1.391 . S
C571 C572 1.396 . S
C572 H556 0.939 . S
C572 C571 1.396 . S
C572 C573 1.397 . S
C573 C572 1.397 . S
C573 C574 1.385 . S
C574 H557 0.940 . S
C574 C573 1.385 . S
C574 C575 1.388 . S
C575 H554 0.939 . S
C575 C570 1.391 . S
C575 C574 1.388 . S
Tb576 N607 2.660 . S
Tb576 N614 2.600 . S
Tb576 O620 2.546 . S
Tb576 O621 2.577 1_566 S
Tb576 O623 2.320 1_565 S
Tb576 O624 2.552 1_565 S
Tb576 O625 2.413 . S
Tb576 O627 2.362 1_556 S
Tb576 O628 2.421 . S
Tb576 C640 2.833 . S
C577 C580 1.432 . S
C577 C581 1.414 . S
C577 N584 1.359 . S
C578 C580 1.417 . S
C578 C582 1.432 . S
C578 C590 1.410 . S
C579 C581 1.444 . S
C579 C582 1.317 . S
C579 H602 0.929 . S
C580 C577 1.432 . S
C580 C578 1.417 . S
C580 N588 1.360 . S
C581 C577 1.414 . S
C581 C579 1.444 . S
C581 C586 1.385 . S
C582 C578 1.432 . S
C582 C579 1.317 . S
C582 H594 0.930 . S
C583 C585 1.392 . S
C583 C586 1.370 . S
C583 H595 0.931 . S
N584 C577 1.359 . S
N584 C585 1.327 . S
N584 Tb587 2.600 . S
C585 C583 1.392 . S
C585 N584 1.327 . S
C585 H592 0.930 . S
C586 C581 1.385 . S
C586 C583 1.370 . S
C586 H605 0.930 . S
Tb587 N584 2.600 . S
Tb587 N588 2.660 . S
Tb587 O621 2.416 . S
Tb587 O622 2.421 . S
Tb587 O626 2.546 . S
Tb587 O627 2.610 1_545 S
Tb587 O629 2.320 1_545 S
Tb587 O630 2.552 1_545 S
Tb587 O631 2.413 . S
Tb587 C651 2.833 . S
N588 C580 1.360 . S
N588 Tb587 2.660 . S
N588 C589 1.305 . S
C589 N588 1.305 . S
C589 C591 1.407 . S
C589 H596 0.930 . S
C590 C578 1.410 . S
C590 C591 1.345 . S
C590 H598 0.930 . S
C591 C589 1.407 . S
C591 C590 1.345 . S
C591 H593 0.930 . S
H592 C585 0.930 . S
H593 C591 0.930 . S
H594 C582 0.930 . S
H595 C583 0.931 . S
H596 C589 0.930 . S
H597 C611 0.930 . S
H598 C590 0.930 . S
H599 C617 0.930 . S
H600 C608 0.930 . S
H601 C615 0.931 . S
H602 C579 0.929 . S
H603 C609 0.930 . S
H604 C642 0.930 . S
H605 C586 0.930 . S
H606 C641 0.929 . S
N607 Tb576 2.660 . S
N607 C608 1.305 . S
N607 C612 1.360 . S
C608 H600 0.930 . S
C608 N607 1.305 . S
C608 C611 1.407 . S
C609 H603 0.930 . S
C609 C610 1.410 . S
C609 C611 1.345 . S
C610 C609 1.410 . S
C610 C612 1.417 . S
C610 C642 1.432 . S
C611 H597 0.930 . S
C611 C608 1.407 . S
C611 C609 1.345 . S
C612 N607 1.360 . S
C612 C610 1.417 . S
C612 C616 1.432 . S
H613 C618 0.930 . S
N614 Tb576 2.600 . S
N614 C616 1.359 . S
N614 C617 1.327 . S
C615 H601 0.931 . S
C615 C617 1.392 . S
C615 C618 1.370 . S
C616 C612 1.432 . S
C616 N614 1.359 . S
C616 C619 1.414 . S
C617 H599 0.930 . S
C617 N614 1.327 . S
C617 C615 1.392 . S
C618 H613 0.930 . S
C618 C615 1.370 . S
C618 C619 1.385 . S
C619 C616 1.414 . S
C619 C618 1.385 . S
C619 C641 1.444 . S
O620 Tb576 2.546 . S
O620 C640 1.251 . S
O621 Tb576 2.577 1_544 S
O621 Tb587 2.416 . S
O621 C632 1.239 1_554 S
O622 Tb587 2.421 . S
O622 C639 1.262 1_554 S
O623 Tb576 2.320 1_545 S
O623 C639 1.260 . S
O624 Tb576 2.552 1_545 S
O624 C632 1.243 . S
O625 Tb576 2.413 . S
O625 C640 1.256 . S
O626 Tb587 2.546 . S
O626 C651 1.251 . S
O627 Tb576 2.362 1_554 S
O627 Tb587 2.610 1_565 S
O627 C643 1.283 . S
O628 Tb576 2.421 . S
O628 C650 1.262 1_556 S
O629 Tb587 2.320 1_565 S
O629 C650 1.260 . S
O630 Tb587 2.552 1_565 S
O630 C643 1.243 . S
O631 Tb587 2.413 . S
O631 C651 1.256 . S
C632 O621 1.239 1_556 S
C632 O624 1.243 . S
C633 C635 1.382 1_565 S
C633 C637 1.393 . S
C633 C640 1.500 . S
C634 C635 1.400 . S
C634 C636 1.384 1_545 S
C635 C633 1.382 1_545 S
C635 C634 1.400 . S
C635 H652 0.930 . S
C636 C634 1.384 1_565 S
C636 C638 1.392 . S
C636 H653 0.933 . S
C637 C633 1.393 . S
C637 C638 1.401 . S
C637 H654 0.930 . S
C638 C636 1.392 . S
C638 C637 1.401 . S
C638 H655 0.930 . S
C639 O622 1.262 1_556 S
C639 O623 1.260 . S
C640 Tb576 2.833 . S
C640 O620 1.251 . S
C640 O625 1.256 . S
C640 C633 1.500 . S
C641 H606 0.929 . S
C641 C619 1.444 . S
C641 C642 1.317 . S
C642 H604 0.930 . S
C642 C610 1.432 . S
C642 C641 1.317 . S
C643 O627 1.283 . S
C643 O630 1.243 . S
C644 C645 1.382 1_545 S
C644 C648 1.393 . S
C644 C651 1.500 . S
C645 C644 1.382 1_565 S
C645 C646 1.400 . S
C645 H656 0.930 . S
C646 C645 1.400 . S
C646 C647 1.384 1_565 S
C647 C646 1.384 1_545 S
C647 C649 1.392 . S
C647 H657 0.931 . S
C648 C644 1.393 . S
C648 C649 1.401 . S
C648 H658 0.930 . S
C649 C647 1.392 . S
C649 C648 1.401 . S
C649 H659 0.930 . S
C650 O628 1.262 1_554 S
C650 O629 1.260 . S
C651 Tb587 2.833 . S
C651 O626 1.251 . S
C651 O631 1.256 . S
C651 C644 1.500 . S
H652 C635 0.930 . S
H653 C636 0.933 . S
H654 C637 0.930 . S
H655 C638 0.930 . S
H656 C645 0.930 . S
H657 C647 0.931 . S
H658 C648 0.930 . S
H659 C649 0.930 . S
Tb660 N691 2.660 . S
Tb660 N698 2.600 . S
Tb660 O704 2.546 . S
Tb660 O705 2.576 1_456 S
Tb660 O707 2.320 1_455 S
Tb660 O708 2.552 1_455 S
Tb660 O709 2.413 . S
Tb660 O711 2.362 1_556 S
Tb660 O712 2.414 1_556 S
Tb660 C724 2.833 . S
C661 C664 1.432 . S
C661 C665 1.414 . S
C661 N668 1.359 . S
C662 C664 1.417 . S
C662 C666 1.432 . S
C662 C674 1.410 . S
C663 C665 1.444 . S
C663 C666 1.317 . S
C663 H686 0.929 . S
C664 C661 1.432 . S
C664 C662 1.417 . S
C664 N672 1.360 . S
C665 C661 1.414 . S
C665 C663 1.444 . S
C665 C670 1.385 . S
C666 C662 1.432 . S
C666 C663 1.317 . S
C666 H678 0.930 . S
C667 C669 1.392 . S
C667 C670 1.370 . S
C667 H679 0.931 . S
N668 C661 1.359 . S
N668 C669 1.327 . S
N668 Tb671 2.600 . S
C669 C667 1.392 . S
C669 N668 1.327 . S
C669 H676 0.930 . S
C670 C665 1.385 . S
C670 C667 1.370 . S
C670 H689 0.930 . S
Tb671 N668 2.600 . S
Tb671 N672 2.660 . S
Tb671 O705 2.419 . S
Tb671 O706 2.421 . S
Tb671 O710 2.546 . S
Tb671 O711 2.610 1_655 S
Tb671 O713 2.320 1_655 S
Tb671 O714 2.552 1_655 S
Tb671 O715 2.413 . S
Tb671 C735 2.833 . S
N672 C664 1.360 . S
N672 Tb671 2.660 . S
N672 C673 1.305 . S
C673 N672 1.305 . S
C673 C675 1.407 . S
C673 H680 0.930 . S
C674 C662 1.410 . S
C674 C675 1.345 . S
C674 H682 0.930 . S
C675 C673 1.407 . S
C675 C674 1.345 . S
C675 H677 0.930 . S
H676 C669 0.930 . S
H677 C675 0.930 . S
H678 C666 0.930 . S
H679 C667 0.931 . S
H680 C673 0.930 . S
H681 C695 0.930 . S
H682 C674 0.930 . S
H683 C701 0.930 . S
H684 C692 0.930 . S
H685 C699 0.931 . S
H686 C663 0.929 . S
H687 C693 0.930 . S
H688 C726 0.930 . S
H689 C670 0.930 . S
H690 C725 0.929 . S
N691 Tb660 2.660 . S
N691 C692 1.305 . S
N691 C696 1.360 . S
C692 H684 0.930 . S
C692 N691 1.305 . S
C692 C695 1.407 . S
C693 H687 0.930 . S
C693 C694 1.410 . S
C693 C695 1.345 . S
C694 C693 1.410 . S
C694 C696 1.417 . S
C694 C726 1.432 . S
C695 H681 0.930 . S
C695 C692 1.407 . S
C695 C693 1.345 . S
C696 N691 1.360 . S
C696 C694 1.417 . S
C696 C700 1.432 . S
H697 C702 0.930 . S
N698 Tb660 2.600 . S
N698 C700 1.359 . S
N698 C701 1.327 . S
C699 H685 0.931 . S
C699 C701 1.392 . S
C699 C702 1.370 . S
C700 C696 1.432 . S
C700 N698 1.359 . S
C700 C703 1.414 . S
C701 H683 0.930 . S
C701 N698 1.327 . S
C701 C699 1.392 . S
C702 H697 0.930 . S
C702 C699 1.370 . S
C702 C703 1.385 . S
C703 C700 1.414 . S
C703 C702 1.385 . S
C703 C725 1.444 . S
O704 Tb660 2.546 . S
O704 C724 1.251 . S
O705 Tb660 2.576 1_654 S
O705 Tb671 2.419 . S
O705 C716 1.237 1_554 S
O706 Tb671 2.421 . S
O706 C723 1.262 1_554 S
O707 Tb660 2.320 1_655 S
O707 C723 1.260 . S
O708 Tb660 2.552 1_655 S
O708 C716 1.243 . S
O709 Tb660 2.413 . S
O709 C724 1.256 . S
O710 Tb671 2.546 . S
O710 C735 1.251 . S
O711 Tb660 2.362 1_554 S
O711 Tb671 2.610 1_455 S
O711 C727 1.283 . S
O712 Tb660 2.414 1_554 S
O712 C734 1.274 . S
O713 Tb671 2.320 1_455 S
O713 C734 1.260 . S
O714 Tb671 2.552 1_455 S
O714 C727 1.243 . S
O715 Tb671 2.413 . S
O715 C735 1.256 . S
C716 O705 1.237 1_556 S
C716 O708 1.243 . S
C717 C719 1.382 1_455 S
C717 C721 1.393 . S
C717 C724 1.500 . S
C718 C719 1.400 . S
C718 C720 1.384 1_655 S
C719 C717 1.382 1_655 S
C719 C718 1.400 . S
C719 H736 0.930 . S
C720 C718 1.384 1_455 S
C720 C722 1.392 . S
C720 H737 0.931 . S
C721 C717 1.393 . S
C721 C722 1.401 . S
C721 H738 0.930 . S
C722 C720 1.392 . S
C722 C721 1.401 . S
C722 H739 0.930 . S
C723 O706 1.262 1_556 S
C723 O707 1.260 . S
C724 Tb660 2.833 . S
C724 O704 1.251 . S
C724 O709 1.256 . S
C724 C717 1.500 . S
C725 H690 0.929 . S
C725 C703 1.444 . S
C725 C726 1.317 . S
C726 H688 0.930 . S
C726 C694 1.432 . S
C726 C725 1.317 . S
C727 O711 1.283 . S
C727 O714 1.243 . S
C728 C729 1.382 1_655 S
C728 C732 1.393 . S
C728 C735 1.500 . S
C729 C728 1.382 1_455 S
C729 C730 1.400 . S
C729 H740 0.930 . S
C730 C729 1.400 . S
C730 C731 1.384 1_455 S
C731 C730 1.384 1_655 S
C731 C733 1.392 . S
C731 H741 0.931 . S
C732 C728 1.393 . S
C732 C733 1.401 . S
C732 H742 0.930 . S
C733 C731 1.392 . S
C733 C732 1.401 . S
C733 H743 0.930 . S
C734 O712 1.274 . S
C734 O713 1.260 . S
C735 Tb671 2.833 . S
C735 O710 1.251 . S
C735 O715 1.256 . S
C735 C728 1.500 . S
H736 C719 0.930 . S
H737 C720 0.931 . S
H738 C721 0.930 . S
H739 C722 0.930 . S
H740 C729 0.930 . S
H741 C731 0.931 . S
H742 C732 0.930 . S
H743 C733 0.930 . S
Tb744 N775 2.660 . S
Tb744 N782 2.600 . S
Tb744 O788 2.546 . S
Tb744 O789 2.610 . S
Tb744 O791 2.320 . S
Tb744 O792 2.552 . S
Tb744 O793 2.413 . S
Tb744 O795 2.371 1_554 S
Tb744 O796 2.421 . S
Tb744 C808 2.833 . S
C745 C748 1.432 . S
C745 C749 1.414 . S
C745 N752 1.359 . S
C746 C748 1.417 . S
C746 C750 1.432 . S
C746 C758 1.410 . S
C747 C749 1.444 . S
C747 C750 1.317 . S
C747 H770 0.929 . S
C748 C745 1.432 . S
C748 C746 1.417 . S
C748 N756 1.360 . S
C749 C745 1.414 . S
C749 C747 1.444 . S
C749 C754 1.385 . S
C750 C746 1.432 . S
C750 C747 1.317 . S
C750 H762 0.930 . S
C751 C753 1.392 . S
C751 C754 1.370 . S
C751 H763 0.931 . S
N752 C745 1.359 . S
N752 C753 1.327 . S
N752 Tb755 2.600 . S
C753 C751 1.392 . S
C753 N752 1.327 . S
C753 H760 0.930 . S
C754 C749 1.385 . S
C754 C751 1.370 . S
C754 H773 0.930 . S
Tb755 N752 2.600 . S
Tb755 N756 2.660 . S
Tb755 O789 2.362 1_556 S
Tb755 O790 2.421 . S
Tb755 O794 2.546 . S
Tb755 O795 2.604 . S
Tb755 O797 2.320 . S
Tb755 O798 2.552 . S
Tb755 O799 2.413 . S
Tb755 C819 2.833 . S
N756 C748 1.360 . S
N756 Tb755 2.660 . S
N756 C757 1.305 . S
C757 N756 1.305 . S
C757 C759 1.407 . S
C757 H764 0.930 . S
C758 C746 1.410 . S
C758 C759 1.345 . S
C758 H766 0.930 . S
C759 C757 1.407 . S
C759 C758 1.345 . S
C759 H761 0.930 . S
H760 C753 0.930 . S
H761 C759 0.930 . S
H762 C750 0.930 . S
H763 C751 0.931 . S
H764 C757 0.930 . S
H765 C779 0.930 . S
H766 C758 0.930 . S
H767 C785 0.930 . S
H768 C776 0.930 . S
H769 C783 0.931 . S
H770 C747 0.929 . S
H771 C777 0.930 . S
H772 C810 0.930 . S
H773 C754 0.930 . S
H774 C809 0.929 . S
N775 Tb744 2.660 . S
N775 C776 1.305 . S
N775 C780 1.360 . S
C776 H768 0.930 . S
C776 N775 1.305 . S
C776 C779 1.407 . S
C777 H771 0.930 . S
C777 C778 1.410 . S
C777 C779 1.345 . S
C778 C777 1.410 . S
C778 C780 1.417 . S
C778 C810 1.432 . S
C779 H765 0.930 . S
C779 C776 1.407 . S
C779 C777 1.345 . S
C780 N775 1.360 . S
C780 C778 1.417 . S
C780 C784 1.432 . S
H781 C786 0.930 . S
N782 Tb744 2.600 . S
N782 C784 1.359 . S
N782 C785 1.327 . S
C783 H769 0.931 . S
C783 C785 1.392 . S
C783 C786 1.370 . S
C784 C780 1.432 . S
C784 N782 1.359 . S
C784 C787 1.414 . S
C785 H767 0.930 . S
C785 N782 1.327 . S
C785 C783 1.392 . S
C786 H781 0.930 . S
C786 C783 1.370 . S
C786 C787 1.385 . S
C787 C784 1.414 . S
C787 C786 1.385 . S
C787 C809 1.444 . S
O788 Tb744 2.546 . S
O788 C808 1.251 . S
O789 Tb744 2.610 . S
O789 Tb755 2.362 1_554 S
O789 C800 1.283 . S
O790 Tb755 2.421 . S
O790 C807 1.262 1_556 S
O791 Tb744 2.320 . S
O791 C807 1.260 . S
O792 Tb744 2.552 . S
O792 C800 1.243 . S
O793 Tb744 2.413 . S
O793 C808 1.256 . S
O794 Tb755 2.546 . S
O794 C819 1.251 . S
O795 Tb744 2.371 1_556 S
O795 Tb755 2.604 . S
O795 C811 1.275 . S
O796 Tb744 2.421 . S
O796 C818 1.262 1_554 S
O797 Tb755 2.320 . S
O797 C818 1.260 . S
O798 Tb755 2.552 . S
O798 C811 1.243 . S
O799 Tb755 2.413 . S
O799 C819 1.256 . S
C800 O789 1.283 . S
C800 O792 1.243 . S
C801 C803 1.382 . S
C801 C805 1.393 . S
C801 C808 1.500 . S
C802 C803 1.400 . S
C802 C804 1.384 . S
C803 C801 1.382 . S
C803 C802 1.400 . S
C803 H820 0.930 . S
C804 C802 1.384 . S
C804 C806 1.392 . S
C804 H821 0.931 . S
C805 C801 1.393 . S
C805 C806 1.401 . S
C805 H822 0.930 . S
C806 C804 1.392 . S
C806 C805 1.401 . S
C806 H823 0.930 . S
C807 O790 1.262 1_554 S
C807 O791 1.260 . S
C808 Tb744 2.833 . S
C808 O788 1.251 . S
C808 O793 1.256 . S
C808 C801 1.500 . S
C809 H774 0.929 . S
C809 C787 1.444 . S
C809 C810 1.317 . S
C810 H772 0.930 . S
C810 C778 1.432 . S
C810 C809 1.317 . S
C811 O795 1.275 . S
C811 O798 1.243 . S
C812 C813 1.382 . S
C812 C816 1.393 . S
C812 C819 1.500 . S
C813 C812 1.382 . S
C813 C814 1.400 . S
C813 H824 0.930 . S
C814 C813 1.400 . S
C814 C815 1.384 . S
C815 C814 1.384 . S
C815 C817 1.392 . S
C815 H825 0.931 . S
C816 C812 1.393 . S
C816 C817 1.401 . S
C816 H826 0.930 . S
C817 C815 1.392 . S
C817 C816 1.401 . S
C817 H827 0.930 . S
C818 O796 1.262 1_556 S
C818 O797 1.260 . S
C819 Tb755 2.833 . S
C819 O794 1.251 . S
C819 O799 1.256 . S
C819 C812 1.500 . S
H820 C803 0.930 . S
H821 C804 0.931 . S
H822 C805 0.930 . S
H823 C806 0.930 . S
H824 C813 0.930 . S
H825 C815 0.931 . S
H826 C816 0.930 . S
H827 C817 0.930 . S
Tb828 N859 2.660 . S
Tb828 N866 2.600 . S
Tb828 O872 2.546 . S
Tb828 O873 2.610 . S
Tb828 O875 2.320 . S
Tb828 O876 2.552 . S
Tb828 O877 2.413 . S
Tb828 O879 2.362 . S
Tb828 O880 2.421 . S
Tb828 C892 2.833 . S
C829 C832 1.432 . S
C829 C833 1.414 . S
C829 N836 1.359 . S
C830 C832 1.417 . S
C830 C834 1.432 . S
C830 C842 1.410 . S
C831 C833 1.444 . S
C831 C834 1.317 . S
C831 H854 0.929 . S
C832 C829 1.432 . S
C832 C830 1.417 . S
C832 N840 1.360 . S
C833 C829 1.414 . S
C833 C831 1.444 . S
C833 C838 1.385 . S
C834 C830 1.432 . S
C834 C831 1.317 . S
C834 H846 0.930 . S
C835 C837 1.392 . S
C835 C838 1.370 . S
C835 H847 0.931 . S
N836 C829 1.359 . S
N836 C837 1.327 . S
N836 Tb839 2.600 . S
C837 C835 1.392 . S
C837 N836 1.327 . S
C837 H844 0.930 . S
C838 C833 1.385 . S
C838 C835 1.370 . S
C838 H857 0.930 . S
Tb839 N836 2.600 . S
Tb839 N840 2.660 . S
Tb839 O873 2.362 . S
Tb839 O874 2.421 . S
Tb839 O878 2.546 . S
Tb839 O879 2.610 . S
Tb839 O881 2.320 . S
Tb839 O882 2.552 . S
Tb839 O883 2.413 . S
Tb839 C903 2.833 . S
N840 C832 1.360 . S
N840 Tb839 2.660 . S
N840 C841 1.305 . S
C841 N840 1.305 . S
C841 C843 1.407 . S
C841 H848 0.930 . S
C842 C830 1.410 . S
C842 C843 1.345 . S
C842 H850 0.930 . S
C843 C841 1.407 . S
C843 C842 1.345 . S
C843 H845 0.930 . S
H844 C837 0.930 . S
H845 C843 0.930 . S
H846 C834 0.930 . S
H847 C835 0.931 . S
H848 C841 0.930 . S
H849 C863 0.930 . S
H850 C842 0.930 . S
H851 C869 0.930 . S
H852 C860 0.930 . S
H853 C867 0.931 . S
H854 C831 0.929 . S
H855 C861 0.930 . S
H856 C894 0.930 . S
H857 C838 0.930 . S
H858 C893 0.929 . S
N859 Tb828 2.660 . S
N859 C860 1.305 . S
N859 C864 1.360 . S
C860 H852 0.930 . S
C860 N859 1.305 . S
C860 C863 1.407 . S
C861 H855 0.930 . S
C861 C862 1.410 . S
C861 C863 1.345 . S
C862 C861 1.410 . S
C862 C864 1.417 . S
C862 C894 1.432 . S
C863 H849 0.930 . S
C863 C860 1.407 . S
C863 C861 1.345 . S
C864 N859 1.360 . S
C864 C862 1.417 . S
C864 C868 1.432 . S
H865 C870 0.930 . S
N866 Tb828 2.600 . S
N866 C868 1.359 . S
N866 C869 1.327 . S
C867 H853 0.931 . S
C867 C869 1.392 . S
C867 C870 1.370 . S
C868 C864 1.432 . S
C868 N866 1.359 . S
C868 C871 1.414 . S
C869 H851 0.930 . S
C869 N866 1.327 . S
C869 C867 1.392 . S
C870 H865 0.930 . S
C870 C867 1.370 . S
C870 C871 1.385 . S
C871 C868 1.414 . S
C871 C870 1.385 . S
C871 C893 1.444 . S
O872 Tb828 2.546 . S
O872 C892 1.251 . S
O873 Tb828 2.610 . S
O873 Tb839 2.362 . S
O873 C884 1.283 . S
O874 Tb839 2.421 . S
O874 C891 1.262 . S
O875 Tb828 2.320 . S
O875 C891 1.260 . S
O876 Tb828 2.552 . S
O876 C884 1.243 . S
O877 Tb828 2.413 . S
O877 C892 1.256 . S
O878 Tb839 2.546 . S
O878 C903 1.251 . S
O879 Tb828 2.362 . S
O879 Tb839 2.610 . S
O879 C895 1.283 . S
O880 Tb828 2.421 . S
O880 C902 1.262 . S
O881 Tb839 2.320 . S
O881 C902 1.260 . S
O882 Tb839 2.552 . S
O882 C895 1.243 . S
O883 Tb839 2.413 . S
O883 C903 1.256 . S
C884 O873 1.283 . S
C884 O876 1.243 . S
C885 C887 1.382 . S
C885 C889 1.393 . S
C885 C892 1.500 . S
C886 C887 1.400 . S
C886 C888 1.384 . S
C887 C885 1.382 . S
C887 C886 1.400 . S
C887 H904 0.930 . S
C888 C886 1.384 . S
C888 C890 1.392 . S
C888 H905 0.931 . S
C889 C885 1.393 . S
C889 C890 1.401 . S
C889 H906 0.930 . S
C890 C888 1.392 . S
C890 C889 1.401 . S
C890 H907 0.930 . S
C891 O874 1.262 . S
C891 O875 1.260 . S
C892 Tb828 2.833 . S
C892 O872 1.251 . S
C892 O877 1.256 . S
C892 C885 1.500 . S
C893 H858 0.929 . S
C893 C871 1.444 . S
C893 C894 1.317 . S
C894 H856 0.930 . S
C894 C862 1.432 . S
C894 C893 1.317 . S
C895 O879 1.283 . S
C895 O882 1.243 . S
C896 C897 1.382 . S
C896 C900 1.393 . S
C896 C903 1.500 . S
C897 C896 1.382 . S
C897 C898 1.400 . S
C897 H908 0.930 . S
C898 C897 1.400 . S
C898 C899 1.384 . S
C899 C898 1.384 . S
C899 C901 1.392 . S
C899 H909 0.931 . S
C900 C896 1.393 . S
C900 C901 1.401 . S
C900 H910 0.930 . S
C901 C899 1.392 . S
C901 C900 1.401 . S
C901 H911 0.930 . S
C902 O880 1.262 . S
C902 O881 1.260 . S
C903 Tb839 2.833 . S
C903 O878 1.251 . S
C903 O883 1.256 . S
C903 C896 1.500 . S
H904 C887 0.930 . S
H905 C888 0.931 . S
H906 C889 0.930 . S
H907 C890 0.930 . S
H908 C897 0.930 . S
H909 C899 0.931 . S
H910 C900 0.930 . S
H911 C901 0.930 . S
Tb912 N943 2.660 . S
Tb912 N950 2.600 . S
Tb912 O956 2.546 . S
Tb912 O957 2.610 . S
Tb912 O959 2.320 . S
Tb912 O960 2.552 . S
Tb912 O961 2.413 . S
Tb912 O963 2.362 . S
Tb912 O964 2.421 . S
Tb912 C976 2.833 . S
C913 C916 1.432 . S
C913 C917 1.414 . S
C913 N920 1.359 . S
C914 C916 1.417 . S
C914 C918 1.432 . S
C914 C926 1.410 . S
C915 C917 1.444 . S
C915 C918 1.317 . S
C915 H938 0.929 . S
C916 C913 1.432 . S
C916 C914 1.417 . S
C916 N924 1.360 . S
C917 C913 1.414 . S
C917 C915 1.444 . S
C917 C922 1.385 . S
C918 C914 1.432 . S
C918 C915 1.317 . S
C918 H930 0.930 . S
C919 C921 1.392 . S
C919 C922 1.370 . S
C919 H931 0.931 . S
N920 C913 1.359 . S
N920 C921 1.327 . S
N920 Tb923 2.600 . S
C921 C919 1.392 . S
C921 N920 1.327 . S
C921 H928 0.930 . S
C922 C917 1.385 . S
C922 C919 1.370 . S
C922 H941 0.930 . S
Tb923 N920 2.600 . S
Tb923 N924 2.660 . S
Tb923 O957 2.362 . S
Tb923 O958 2.421 . S
Tb923 O962 2.546 . S
Tb923 O963 2.610 . S
Tb923 O965 2.320 . S
Tb923 O966 2.552 . S
Tb923 O967 2.413 . S
Tb923 C987 2.833 . S
N924 C916 1.360 . S
N924 Tb923 2.660 . S
N924 C925 1.305 . S
C925 N924 1.305 . S
C925 C927 1.407 . S
C925 H932 0.930 . S
C926 C914 1.410 . S
C926 C927 1.345 . S
C926 H934 0.930 . S
C927 C925 1.407 . S
C927 C926 1.345 . S
C927 H929 0.930 . S
H928 C921 0.930 . S
H929 C927 0.930 . S
H930 C918 0.930 . S
H931 C919 0.931 . S
H932 C925 0.930 . S
H933 C947 0.930 . S
H934 C926 0.930 . S
H935 C953 0.930 . S
H936 C944 0.930 . S
H937 C951 0.931 . S
H938 C915 0.929 . S
H939 C945 0.930 . S
H940 C978 0.930 . S
H941 C922 0.930 . S
H942 C977 0.929 . S
N943 Tb912 2.660 . S
N943 C944 1.305 . S
N943 C948 1.360 . S
C944 H936 0.930 . S
C944 N943 1.305 . S
C944 C947 1.407 . S
C945 H939 0.930 . S
C945 C946 1.410 . S
C945 C947 1.345 . S
C946 C945 1.410 . S
C946 C948 1.417 . S
C946 C978 1.432 . S
C947 H933 0.930 . S
C947 C944 1.407 . S
C947 C945 1.345 . S
C948 N943 1.360 . S
C948 C946 1.417 . S
C948 C952 1.432 . S
H949 C954 0.930 . S
N950 Tb912 2.600 . S
N950 C952 1.359 . S
N950 C953 1.327 . S
C951 H937 0.931 . S
C951 C953 1.392 . S
C951 C954 1.370 . S
C952 C948 1.432 . S
C952 N950 1.359 . S
C952 C955 1.414 . S
C953 H935 0.930 . S
C953 N950 1.327 . S
C953 C951 1.392 . S
C954 H949 0.930 . S
C954 C951 1.370 . S
C954 C955 1.385 . S
C955 C952 1.414 . S
C955 C954 1.385 . S
C955 C977 1.444 . S
O956 Tb912 2.546 . S
O956 C976 1.251 . S
O957 Tb912 2.610 . S
O957 Tb923 2.362 . S
O957 C968 1.283 . S
O958 Tb923 2.421 . S
O958 C975 1.262 . S
O959 Tb912 2.320 . S
O959 C975 1.260 . S
O960 Tb912 2.552 . S
O960 C968 1.243 . S
O961 Tb912 2.413 . S
O961 C976 1.256 . S
O962 Tb923 2.546 . S
O962 C987 1.251 . S
O963 Tb912 2.362 . S
O963 Tb923 2.610 . S
O963 C979 1.283 . S
O964 Tb912 2.421 . S
O964 C986 1.262 . S
O965 Tb923 2.320 . S
O965 C986 1.260 . S
O966 Tb923 2.552 . S
O966 C979 1.243 . S
O967 Tb923 2.413 . S
O967 C987 1.256 . S
C968 O957 1.283 . S
C968 O960 1.243 . S
C969 C971 1.382 . S
C969 C973 1.393 . S
C969 C976 1.500 . S
C970 C971 1.400 . S
C970 C972 1.384 . S
C971 C969 1.382 . S
C971 C970 1.400 . S
C971 H988 0.930 . S
C972 C970 1.384 . S
C972 C974 1.392 . S
C972 H989 0.931 . S
C973 C969 1.393 . S
C973 C974 1.401 . S
C973 H990 0.930 . S
C974 C972 1.392 . S
C974 C973 1.401 . S
C974 H991 0.930 . S
C975 O958 1.262 . S
C975 O959 1.260 . S
C976 Tb912 2.833 . S
C976 O956 1.251 . S
C976 O961 1.256 . S
C976 C969 1.500 . S
C977 H942 0.929 . S
C977 C955 1.444 . S
C977 C978 1.317 . S
C978 H940 0.930 . S
C978 C946 1.432 . S
C978 C977 1.317 . S
C979 O963 1.283 . S
C979 O966 1.243 . S
C980 C981 1.382 . S
C980 C984 1.393 . S
C980 C987 1.500 . S
C981 C980 1.382 . S
C981 C982 1.400 . S
C981 H992 0.930 . S
C982 C981 1.400 . S
C982 C983 1.384 . S
C983 C982 1.384 . S
C983 C985 1.392 . S
C983 H993 0.931 . S
C984 C980 1.393 . S
C984 C985 1.401 . S
C984 H994 0.930 . S
C985 C983 1.392 . S
C985 C984 1.401 . S
C985 H995 0.930 . S
C986 O964 1.262 . S
C986 O965 1.260 . S
C987 Tb923 2.833 . S
C987 O962 1.251 . S
C987 O967 1.256 . S
C987 C980 1.500 . S
H988 C971 0.930 . S
H989 C972 0.931 . S
H990 C973 0.930 . S
H991 C974 0.930 . S
H992 C981 0.930 . S
H993 C983 0.931 . S
H994 C984 0.930 . S
H995 C985 0.930 . S
Tb996 N1027 2.660 . S
Tb996 N1034 2.600 . S
Tb996 O1040 2.546 . S
Tb996 O1041 2.610 . S
Tb996 O1043 2.320 . S
Tb996 O1044 2.552 . S
Tb996 O1045 2.413 . S
Tb996 O1047 2.362 . S
Tb996 O1048 2.421 . S
Tb996 C1060 2.833 . S
C997 C1000 1.432 . S
C997 C1001 1.414 . S
C997 N1004 1.359 . S
C998 C1000 1.417 . S
C998 C1002 1.432 . S
C998 C1010 1.410 . S
C999 C1001 1.444 . S
C999 C1002 1.317 . S
C999 H1022 0.929 . S
C1000 C997 1.432 . S
C1000 C998 1.417 . S
C1000 N1008 1.360 . S
C1001 C997 1.414 . S
C1001 C999 1.444 . S
C1001 C1006 1.385 . S
C1002 C998 1.432 . S
C1002 C999 1.317 . S
C1002 H1014 0.930 . S
C1003 C1005 1.392 . S
C1003 C1006 1.370 . S
C1003 H1015 0.931 . S
N1004 C997 1.359 . S
N1004 C1005 1.327 . S
N1004 Tb1007 2.600 . S
C1005 C1003 1.392 . S
C1005 N1004 1.327 . S
C1005 H1012 0.930 . S
C1006 C1001 1.385 . S
C1006 C1003 1.370 . S
C1006 H1025 0.930 . S
Tb1007 N1004 2.600 . S
Tb1007 N1008 2.660 . S
Tb1007 O1041 2.362 . S
Tb1007 O1042 2.421 . S
Tb1007 O1046 2.546 . S
Tb1007 O1047 2.610 . S
Tb1007 O1049 2.320 . S
Tb1007 O1050 2.552 . S
Tb1007 O1051 2.413 . S
Tb1007 C1071 2.833 . S
N1008 C1000 1.360 . S
N1008 Tb1007 2.660 . S
N1008 C1009 1.305 . S
C1009 N1008 1.305 . S
C1009 C1011 1.407 . S
C1009 H1016 0.930 . S
C1010 C998 1.410 . S
C1010 C1011 1.345 . S
C1010 H1018 0.930 . S
C1011 C1009 1.407 . S
C1011 C1010 1.345 . S
C1011 H1013 0.930 . S
H1012 C1005 0.930 . S
H1013 C1011 0.930 . S
H1014 C1002 0.930 . S
H1015 C1003 0.931 . S
H1016 C1009 0.930 . S
H1017 C1031 0.930 . S
H1018 C1010 0.930 . S
H1019 C1037 0.930 . S
H1020 C1028 0.930 . S
H1021 C1035 0.931 . S
H1022 C999 0.929 . S
H1023 C1029 0.930 . S
H1024 C1062 0.930 . S
H1025 C1006 0.930 . S
H1026 C1061 0.929 . S
N1027 Tb996 2.660 . S
N1027 C1028 1.305 . S
N1027 C1032 1.360 . S
C1028 H1020 0.930 . S
C1028 N1027 1.305 . S
C1028 C1031 1.407 . S
C1029 H1023 0.930 . S
C1029 C1030 1.410 . S
C1029 C1031 1.345 . S
C1030 C1029 1.410 . S
C1030 C1032 1.417 . S
C1030 C1062 1.432 . S
C1031 H1017 0.930 . S
C1031 C1028 1.407 . S
C1031 C1029 1.345 . S
C1032 N1027 1.360 . S
C1032 C1030 1.417 . S
C1032 C1036 1.432 . S
H1033 C1038 0.930 . S
N1034 Tb996 2.600 . S
N1034 C1036 1.359 . S
N1034 C1037 1.327 . S
C1035 H1021 0.931 . S
C1035 C1037 1.392 . S
C1035 C1038 1.370 . S
C1036 C1032 1.432 . S
C1036 N1034 1.359 . S
C1036 C1039 1.414 . S
C1037 H1019 0.930 . S
C1037 N1034 1.327 . S
C1037 C1035 1.392 . S
C1038 H1033 0.930 . S
C1038 C1035 1.370 . S
C1038 C1039 1.385 . S
C1039 C1036 1.414 . S
C1039 C1038 1.385 . S
C1039 C1061 1.444 . S
O1040 Tb996 2.546 . S
O1040 C1060 1.251 . S
O1041 Tb996 2.610 . S
O1041 Tb1007 2.362 . S
O1041 C1052 1.283 . S
O1042 Tb1007 2.421 . S
O1042 C1059 1.262 . S
O1043 Tb996 2.320 . S
O1043 C1059 1.260 . S
O1044 Tb996 2.552 . S
O1044 C1052 1.243 . S
O1045 Tb996 2.413 . S
O1045 C1060 1.256 . S
O1046 Tb1007 2.546 . S
O1046 C1071 1.251 . S
O1047 Tb996 2.362 . S
O1047 Tb1007 2.610 . S
O1047 C1063 1.283 . S
O1048 Tb996 2.421 . S
O1048 C1070 1.262 . S
O1049 Tb1007 2.320 . S
O1049 C1070 1.260 . S
O1050 Tb1007 2.552 . S
O1050 C1063 1.243 . S
O1051 Tb1007 2.413 . S
O1051 C1071 1.256 . S
C1052 O1041 1.283 . S
C1052 O1044 1.243 . S
C1053 C1055 1.382 . S
C1053 C1057 1.393 . S
C1053 C1060 1.500 . S
C1054 C1055 1.400 . S
C1054 C1056 1.384 . S
C1055 C1053 1.382 . S
C1055 C1054 1.400 . S
C1055 H1072 0.930 . S
C1056 C1054 1.384 . S
C1056 C1058 1.392 . S
C1056 H1073 0.931 . S
C1057 C1053 1.393 . S
C1057 C1058 1.401 . S
C1057 H1074 0.930 . S
C1058 C1056 1.392 . S
C1058 C1057 1.401 . S
C1058 H1075 0.930 . S
C1059 O1042 1.262 . S
C1059 O1043 1.260 . S
C1060 Tb996 2.833 . S
C1060 O1040 1.251 . S
C1060 O1045 1.256 . S
C1060 C1053 1.500 . S
C1061 H1026 0.929 . S
C1061 C1039 1.444 . S
C1061 C1062 1.317 . S
C1062 H1024 0.930 . S
C1062 C1030 1.432 . S
C1062 C1061 1.317 . S
C1063 O1047 1.283 . S
C1063 O1050 1.243 . S
C1064 C1065 1.382 . S
C1064 C1068 1.393 . S
C1064 C1071 1.500 . S
C1065 C1064 1.382 . S
C1065 C1066 1.400 . S
C1065 H1076 0.930 . S
C1066 C1065 1.400 . S
C1066 C1067 1.384 . S
C1067 C1066 1.384 . S
C1067 C1069 1.392 . S
C1067 H1077 0.931 . S
C1068 C1064 1.393 . S
C1068 C1069 1.401 . S
C1068 H1078 0.930 . S
C1069 C1067 1.392 . S
C1069 C1068 1.401 . S
C1069 H1079 0.930 . S
C1070 O1048 1.262 . S
C1070 O1049 1.260 . S
C1071 Tb1007 2.833 . S
C1071 O1046 1.251 . S
C1071 O1051 1.256 . S
C1071 C1064 1.500 . S
H1072 C1055 0.930 . S
H1073 C1056 0.931 . S
H1074 C1057 0.930 . S
H1075 C1058 0.930 . S
H1076 C1065 0.930 . S
H1077 C1067 0.931 . S
H1078 C1068 0.930 . S
H1079 C1069 0.930 . S
Tb1080 N1111 2.660 . S
Tb1080 N1118 2.600 . S
Tb1080 O1124 2.546 . S
Tb1080 O1125 2.610 . S
Tb1080 O1127 2.320 . S
Tb1080 O1128 2.552 . S
Tb1080 O1129 2.413 . S
Tb1080 O1131 2.362 . S
Tb1080 O1132 2.421 . S
Tb1080 C1144 2.833 . S
C1081 C1084 1.432 . S
C1081 C1085 1.414 . S
C1081 N1088 1.359 . S
C1082 C1084 1.417 . S
C1082 C1086 1.432 . S
C1082 C1094 1.410 . S
C1083 C1085 1.444 . S
C1083 C1086 1.317 . S
C1083 H1106 0.929 . S
C1084 C1081 1.432 . S
C1084 C1082 1.417 . S
C1084 N1092 1.360 . S
C1085 C1081 1.414 . S
C1085 C1083 1.444 . S
C1085 C1090 1.385 . S
C1086 C1082 1.432 . S
C1086 C1083 1.317 . S
C1086 H1098 0.930 . S
C1087 C1089 1.392 . S
C1087 C1090 1.370 . S
C1087 H1099 0.931 . S
N1088 C1081 1.359 . S
N1088 C1089 1.327 . S
N1088 Tb1091 2.600 . S
C1089 C1087 1.392 . S
C1089 N1088 1.327 . S
C1089 H1096 0.930 . S
C1090 C1085 1.385 . S
C1090 C1087 1.370 . S
C1090 H1109 0.930 . S
Tb1091 N1088 2.600 . S
Tb1091 N1092 2.660 . S
Tb1091 O1125 2.362 . S
Tb1091 O1126 2.421 . S
Tb1091 O1130 2.546 . S
Tb1091 O1131 2.610 . S
Tb1091 O1133 2.320 . S
Tb1091 O1134 2.552 . S
Tb1091 O1135 2.413 . S
Tb1091 C1155 2.833 . S
N1092 C1084 1.360 . S
N1092 Tb1091 2.660 . S
N1092 C1093 1.305 . S
C1093 N1092 1.305 . S
C1093 C1095 1.407 . S
C1093 H1100 0.930 . S
C1094 C1082 1.410 . S
C1094 C1095 1.345 . S
C1094 H1102 0.930 . S
C1095 C1093 1.407 . S
C1095 C1094 1.345 . S
C1095 H1097 0.930 . S
H1096 C1089 0.930 . S
H1097 C1095 0.930 . S
H1098 C1086 0.930 . S
H1099 C1087 0.931 . S
H1100 C1093 0.930 . S
H1101 C1115 0.930 . S
H1102 C1094 0.930 . S
H1103 C1121 0.930 . S
H1104 C1112 0.930 . S
H1105 C1119 0.931 . S
H1106 C1083 0.929 . S
H1107 C1113 0.930 . S
H1108 C1146 0.930 . S
H1109 C1090 0.930 . S
H1110 C1145 0.929 . S
N1111 Tb1080 2.660 . S
N1111 C1112 1.305 . S
N1111 C1116 1.360 . S
C1112 H1104 0.930 . S
C1112 N1111 1.305 . S
C1112 C1115 1.407 . S
C1113 H1107 0.930 . S
C1113 C1114 1.410 . S
C1113 C1115 1.345 . S
C1114 C1113 1.410 . S
C1114 C1116 1.417 . S
C1114 C1146 1.432 . S
C1115 H1101 0.930 . S
C1115 C1112 1.407 . S
C1115 C1113 1.345 . S
C1116 N1111 1.360 . S
C1116 C1114 1.417 . S
C1116 C1120 1.432 . S
H1117 C1122 0.930 . S
N1118 Tb1080 2.600 . S
N1118 C1120 1.359 . S
N1118 C1121 1.327 . S
C1119 H1105 0.931 . S
C1119 C1121 1.392 . S
C1119 C1122 1.370 . S
C1120 C1116 1.432 . S
C1120 N1118 1.359 . S
C1120 C1123 1.414 . S
C1121 H1103 0.930 . S
C1121 N1118 1.327 . S
C1121 C1119 1.392 . S
C1122 H1117 0.930 . S
C1122 C1119 1.370 . S
C1122 C1123 1.385 . S
C1123 C1120 1.414 . S
C1123 C1122 1.385 . S
C1123 C1145 1.444 . S
O1124 Tb1080 2.546 . S
O1124 C1144 1.251 . S
O1125 Tb1080 2.610 . S
O1125 Tb1091 2.362 . S
O1125 C1136 1.283 . S
O1126 Tb1091 2.421 . S
O1126 C1143 1.262 . S
O1127 Tb1080 2.320 . S
O1127 C1143 1.260 . S
O1128 Tb1080 2.552 . S
O1128 C1136 1.243 . S
O1129 Tb1080 2.413 . S
O1129 C1144 1.256 . S
O1130 Tb1091 2.546 . S
O1130 C1155 1.251 . S
O1131 Tb1080 2.362 . S
O1131 Tb1091 2.610 . S
O1131 C1147 1.283 . S
O1132 Tb1080 2.421 . S
O1132 C1154 1.262 . S
O1133 Tb1091 2.320 . S
O1133 C1154 1.260 . S
O1134 Tb1091 2.552 . S
O1134 C1147 1.243 . S
O1135 Tb1091 2.413 . S
O1135 C1155 1.256 . S
C1136 O1125 1.283 . S
C1136 O1128 1.243 . S
C1137 C1139 1.382 . S
C1137 C1141 1.393 . S
C1137 C1144 1.500 . S
C1138 C1139 1.400 . S
C1138 C1140 1.384 . S
C1139 C1137 1.382 . S
C1139 C1138 1.400 . S
C1139 H1156 0.930 . S
C1140 C1138 1.384 . S
C1140 C1142 1.392 . S
C1140 H1157 0.931 . S
C1141 C1137 1.393 . S
C1141 C1142 1.401 . S
C1141 H1158 0.930 . S
C1142 C1140 1.392 . S
C1142 C1141 1.401 . S
C1142 H1159 0.930 . S
C1143 O1126 1.262 . S
C1143 O1127 1.260 . S
C1144 Tb1080 2.833 . S
C1144 O1124 1.251 . S
C1144 O1129 1.256 . S
C1144 C1137 1.500 . S
C1145 H1110 0.929 . S
C1145 C1123 1.444 . S
C1145 C1146 1.317 . S
C1146 H1108 0.930 . S
C1146 C1114 1.432 . S
C1146 C1145 1.317 . S
C1147 O1131 1.283 . S
C1147 O1134 1.243 . S
C1148 C1149 1.382 . S
C1148 C1152 1.393 . S
C1148 C1155 1.500 . S
C1149 C1148 1.382 . S
C1149 C1150 1.400 . S
C1149 H1160 0.930 . S
C1150 C1149 1.400 . S
C1150 C1151 1.384 . S
C1151 C1150 1.384 . S
C1151 C1153 1.392 . S
C1151 H1161 0.931 . S
C1152 C1148 1.393 . S
C1152 C1153 1.401 . S
C1152 H1162 0.930 . S
C1153 C1151 1.392 . S
C1153 C1152 1.401 . S
C1153 H1163 0.930 . S
C1154 O1132 1.262 . S
C1154 O1133 1.260 . S
C1155 Tb1091 2.833 . S
C1155 O1130 1.251 . S
C1155 O1135 1.256 . S
C1155 C1148 1.500 . S
H1156 C1139 0.930 . S
H1157 C1140 0.931 . S
H1158 C1141 0.930 . S
H1159 C1142 0.930 . S
H1160 C1149 0.930 . S
H1161 C1151 0.931 . S
H1162 C1152 0.930 . S
H1163 C1153 0.930 . S
Tb1164 N1195 2.660 . S
Tb1164 N1202 2.600 . S
Tb1164 O1208 2.546 . S
Tb1164 O1209 2.610 . S
Tb1164 O1211 2.320 . S
Tb1164 O1212 2.552 . S
Tb1164 O1213 2.413 . S
Tb1164 O1215 2.362 . S
Tb1164 O1216 2.421 . S
Tb1164 C1228 2.833 . S
C1165 C1168 1.432 . S
C1165 C1169 1.414 . S
C1165 N1172 1.359 . S
C1166 C1168 1.417 . S
C1166 C1170 1.432 . S
C1166 C1178 1.410 . S
C1167 C1169 1.444 . S
C1167 C1170 1.317 . S
C1167 H1190 0.929 . S
C1168 C1165 1.432 . S
C1168 C1166 1.417 . S
C1168 N1176 1.360 . S
C1169 C1165 1.414 . S
C1169 C1167 1.444 . S
C1169 C1174 1.385 . S
C1170 C1166 1.432 . S
C1170 C1167 1.317 . S
C1170 H1182 0.930 . S
C1171 C1173 1.392 . S
C1171 C1174 1.370 . S
C1171 H1183 0.931 . S
N1172 C1165 1.359 . S
N1172 C1173 1.327 . S
N1172 Tb1175 2.600 . S
C1173 C1171 1.392 . S
C1173 N1172 1.327 . S
C1173 H1180 0.930 . S
C1174 C1169 1.385 . S
C1174 C1171 1.370 . S
C1174 H1193 0.930 . S
Tb1175 N1172 2.600 . S
Tb1175 N1176 2.660 . S
Tb1175 O1209 2.362 . S
Tb1175 O1210 2.421 . S
Tb1175 O1214 2.546 . S
Tb1175 O1215 2.610 . S
Tb1175 O1217 2.320 . S
Tb1175 O1218 2.552 . S
Tb1175 O1219 2.413 . S
Tb1175 C1239 2.833 . S
N1176 C1168 1.360 . S
N1176 Tb1175 2.660 . S
N1176 C1177 1.305 . S
C1177 N1176 1.305 . S
C1177 C1179 1.407 . S
C1177 H1184 0.930 . S
C1178 C1166 1.410 . S
C1178 C1179 1.345 . S
C1178 H1186 0.930 . S
C1179 C1177 1.407 . S
C1179 C1178 1.345 . S
C1179 H1181 0.930 . S
H1180 C1173 0.930 . S
H1181 C1179 0.930 . S
H1182 C1170 0.930 . S
H1183 C1171 0.931 . S
H1184 C1177 0.930 . S
H1185 C1199 0.930 . S
H1186 C1178 0.930 . S
H1187 C1205 0.930 . S
H1188 C1196 0.930 . S
H1189 C1203 0.931 . S
H1190 C1167 0.929 . S
H1191 C1197 0.930 . S
H1192 C1230 0.930 . S
H1193 C1174 0.930 . S
H1194 C1229 0.929 . S
N1195 Tb1164 2.660 . S
N1195 C1196 1.305 . S
N1195 C1200 1.360 . S
C1196 H1188 0.930 . S
C1196 N1195 1.305 . S
C1196 C1199 1.407 . S
C1197 H1191 0.930 . S
C1197 C1198 1.410 . S
C1197 C1199 1.345 . S
C1198 C1197 1.410 . S
C1198 C1200 1.417 . S
C1198 C1230 1.432 . S
C1199 H1185 0.930 . S
C1199 C1196 1.407 . S
C1199 C1197 1.345 . S
C1200 N1195 1.360 . S
C1200 C1198 1.417 . S
C1200 C1204 1.432 . S
H1201 C1206 0.930 . S
N1202 Tb1164 2.600 . S
N1202 C1204 1.359 . S
N1202 C1205 1.327 . S
C1203 H1189 0.931 . S
C1203 C1205 1.392 . S
C1203 C1206 1.370 . S
C1204 C1200 1.432 . S
C1204 N1202 1.359 . S
C1204 C1207 1.414 . S
C1205 H1187 0.930 . S
C1205 N1202 1.327 . S
C1205 C1203 1.392 . S
C1206 H1201 0.930 . S
C1206 C1203 1.370 . S
C1206 C1207 1.385 . S
C1207 C1204 1.414 . S
C1207 C1206 1.385 . S
C1207 C1229 1.444 . S
O1208 Tb1164 2.546 . S
O1208 C1228 1.251 . S
O1209 Tb1164 2.610 . S
O1209 Tb1175 2.362 . S
O1209 C1220 1.283 . S
O1210 Tb1175 2.421 . S
O1210 C1227 1.262 . S
O1211 Tb1164 2.320 . S
O1211 C1227 1.260 . S
O1212 Tb1164 2.552 . S
O1212 C1220 1.243 . S
O1213 Tb1164 2.413 . S
O1213 C1228 1.256 . S
O1214 Tb1175 2.546 . S
O1214 C1239 1.251 . S
O1215 Tb1164 2.362 . S
O1215 Tb1175 2.610 . S
O1215 C1231 1.283 . S
O1216 Tb1164 2.421 . S
O1216 C1238 1.262 . S
O1217 Tb1175 2.320 . S
O1217 C1238 1.260 . S
O1218 Tb1175 2.552 . S
O1218 C1231 1.243 . S
O1219 Tb1175 2.413 . S
O1219 C1239 1.256 . S
C1220 O1209 1.283 . S
C1220 O1212 1.243 . S
C1221 C1223 1.382 . S
C1221 C1225 1.393 . S
C1221 C1228 1.500 . S
C1222 C1223 1.400 . S
C1222 C1224 1.384 . S
C1223 C1221 1.382 . S
C1223 C1222 1.400 . S
C1223 H1240 0.930 . S
C1224 C1222 1.384 . S
C1224 C1226 1.392 . S
C1224 H1241 0.931 . S
C1225 C1221 1.393 . S
C1225 C1226 1.401 . S
C1225 H1242 0.930 . S
C1226 C1224 1.392 . S
C1226 C1225 1.401 . S
C1226 H1243 0.930 . S
C1227 O1210 1.262 . S
C1227 O1211 1.260 . S
C1228 Tb1164 2.833 . S
C1228 O1208 1.251 . S
C1228 O1213 1.256 . S
C1228 C1221 1.500 . S
C1229 H1194 0.929 . S
C1229 C1207 1.444 . S
C1229 C1230 1.317 . S
C1230 H1192 0.930 . S
C1230 C1198 1.432 . S
C1230 C1229 1.317 . S
C1231 O1215 1.283 . S
C1231 O1218 1.243 . S
C1232 C1233 1.382 . S
C1232 C1236 1.393 . S
C1232 C1239 1.500 . S
C1233 C1232 1.382 . S
C1233 C1234 1.400 . S
C1233 H1244 0.930 . S
C1234 C1233 1.400 . S
C1234 C1235 1.384 . S
C1235 C1234 1.384 . S
C1235 C1237 1.392 . S
C1235 H1245 0.931 . S
C1236 C1232 1.393 . S
C1236 C1237 1.401 . S
C1236 H1246 0.930 . S
C1237 C1235 1.392 . S
C1237 C1236 1.401 . S
C1237 H1247 0.930 . S
C1238 O1216 1.262 . S
C1238 O1217 1.260 . S
C1239 Tb1175 2.833 . S
C1239 O1214 1.251 . S
C1239 O1219 1.256 . S
C1239 C1232 1.500 . S
H1240 C1223 0.930 . S
H1241 C1224 0.931 . S
H1242 C1225 0.930 . S
H1243 C1226 0.930 . S
H1244 C1233 0.930 . S
H1245 C1235 0.931 . S
H1246 C1236 0.930 . S
H1247 C1237 0.930 . S
Tb1248 N1279 2.660 . S
Tb1248 N1286 2.600 . S
Tb1248 O1292 2.546 . S
Tb1248 O1293 2.610 . S
Tb1248 O1295 2.320 . S
Tb1248 O1296 2.552 . S
Tb1248 O1297 2.413 . S
Tb1248 O1299 2.362 . S
Tb1248 O1300 2.421 . S
Tb1248 C1312 2.833 . S
C1249 C1252 1.432 . S
C1249 C1253 1.414 . S
C1249 N1256 1.359 . S
C1250 C1252 1.417 . S
C1250 C1254 1.432 . S
C1250 C1262 1.410 . S
C1251 C1253 1.444 . S
C1251 C1254 1.317 . S
C1251 H1274 0.929 . S
C1252 C1249 1.432 . S
C1252 C1250 1.417 . S
C1252 N1260 1.360 . S
C1253 C1249 1.414 . S
C1253 C1251 1.444 . S
C1253 C1258 1.385 . S
C1254 C1250 1.432 . S
C1254 C1251 1.317 . S
C1254 H1266 0.930 . S
C1255 C1257 1.392 . S
C1255 C1258 1.370 . S
C1255 H1267 0.931 . S
N1256 C1249 1.359 . S
N1256 C1257 1.327 . S
N1256 Tb1259 2.600 . S
C1257 C1255 1.392 . S
C1257 N1256 1.327 . S
C1257 H1264 0.930 . S
C1258 C1253 1.385 . S
C1258 C1255 1.370 . S
C1258 H1277 0.930 . S
Tb1259 N1256 2.600 . S
Tb1259 N1260 2.660 . S
Tb1259 O1293 2.362 . S
Tb1259 O1294 2.421 . S
Tb1259 O1298 2.546 . S
Tb1259 O1299 2.610 . S
Tb1259 O1301 2.320 . S
Tb1259 O1302 2.552 . S
Tb1259 O1303 2.413 . S
Tb1259 C1323 2.833 . S
N1260 C1252 1.360 . S
N1260 Tb1259 2.660 . S
N1260 C1261 1.305 . S
C1261 N1260 1.305 . S
C1261 C1263 1.407 . S
C1261 H1268 0.930 . S
C1262 C1250 1.410 . S
C1262 C1263 1.345 . S
C1262 H1270 0.930 . S
C1263 C1261 1.407 . S
C1263 C1262 1.345 . S
C1263 H1265 0.930 . S
H1264 C1257 0.930 . S
H1265 C1263 0.930 . S
H1266 C1254 0.930 . S
H1267 C1255 0.931 . S
H1268 C1261 0.930 . S
H1269 C1283 0.930 . S
H1270 C1262 0.930 . S
H1271 C1289 0.930 . S
H1272 C1280 0.930 . S
H1273 C1287 0.931 . S
H1274 C1251 0.929 . S
H1275 C1281 0.930 . S
H1276 C1314 0.930 . S
H1277 C1258 0.930 . S
H1278 C1313 0.929 . S
N1279 Tb1248 2.660 . S
N1279 C1280 1.305 . S
N1279 C1284 1.360 . S
C1280 H1272 0.930 . S
C1280 N1279 1.305 . S
C1280 C1283 1.407 . S
C1281 H1275 0.930 . S
C1281 C1282 1.410 . S
C1281 C1283 1.345 . S
C1282 C1281 1.410 . S
C1282 C1284 1.417 . S
C1282 C1314 1.432 . S
C1283 H1269 0.930 . S
C1283 C1280 1.407 . S
C1283 C1281 1.345 . S
C1284 N1279 1.360 . S
C1284 C1282 1.417 . S
C1284 C1288 1.432 . S
H1285 C1290 0.930 . S
N1286 Tb1248 2.600 . S
N1286 C1288 1.359 . S
N1286 C1289 1.327 . S
C1287 H1273 0.931 . S
C1287 C1289 1.392 . S
C1287 C1290 1.370 . S
C1288 C1284 1.432 . S
C1288 N1286 1.359 . S
C1288 C1291 1.414 . S
C1289 H1271 0.930 . S
C1289 N1286 1.327 . S
C1289 C1287 1.392 . S
C1290 H1285 0.930 . S
C1290 C1287 1.370 . S
C1290 C1291 1.385 . S
C1291 C1288 1.414 . S
C1291 C1290 1.385 . S
C1291 C1313 1.444 . S
O1292 Tb1248 2.546 . S
O1292 C1312 1.251 . S
O1293 Tb1248 2.610 . S
O1293 Tb1259 2.362 . S
O1293 C1304 1.283 . S
O1294 Tb1259 2.421 . S
O1294 C1311 1.262 . S
O1295 Tb1248 2.320 . S
O1295 C1311 1.260 . S
O1296 Tb1248 2.552 . S
O1296 C1304 1.243 . S
O1297 Tb1248 2.413 . S
O1297 C1312 1.256 . S
O1298 Tb1259 2.546 . S
O1298 C1323 1.251 . S
O1299 Tb1248 2.362 . S
O1299 Tb1259 2.610 . S
O1299 C1315 1.283 . S
O1300 Tb1248 2.421 . S
O1300 C1322 1.262 . S
O1301 Tb1259 2.320 . S
O1301 C1322 1.260 . S
O1302 Tb1259 2.552 . S
O1302 C1315 1.243 . S
O1303 Tb1259 2.413 . S
O1303 C1323 1.256 . S
C1304 O1293 1.283 . S
C1304 O1296 1.243 . S
C1305 C1307 1.382 . S
C1305 C1309 1.393 . S
C1305 C1312 1.500 . S
C1306 C1307 1.400 . S
C1306 C1308 1.384 . S
C1307 C1305 1.382 . S
C1307 C1306 1.400 . S
C1307 H1324 0.930 . S
C1308 C1306 1.384 . S
C1308 C1310 1.392 . S
C1308 H1325 0.931 . S
C1309 C1305 1.393 . S
C1309 C1310 1.401 . S
C1309 H1326 0.930 . S
C1310 C1308 1.392 . S
C1310 C1309 1.401 . S
C1310 H1327 0.930 . S
C1311 O1294 1.262 . S
C1311 O1295 1.260 . S
C1312 Tb1248 2.833 . S
C1312 O1292 1.251 . S
C1312 O1297 1.256 . S
C1312 C1305 1.500 . S
C1313 H1278 0.929 . S
C1313 C1291 1.444 . S
C1313 C1314 1.317 . S
C1314 H1276 0.930 . S
C1314 C1282 1.432 . S
C1314 C1313 1.317 . S
C1315 O1299 1.283 . S
C1315 O1302 1.243 . S
C1316 C1317 1.382 . S
C1316 C1320 1.393 . S
C1316 C1323 1.500 . S
C1317 C1316 1.382 . S
C1317 C1318 1.400 . S
C1317 H1328 0.930 . S
C1318 C1317 1.400 . S
C1318 C1319 1.384 . S
C1319 C1318 1.384 . S
C1319 C1321 1.392 . S
C1319 H1329 0.931 . S
C1320 C1316 1.393 . S
C1320 C1321 1.401 . S
C1320 H1330 0.930 . S
C1321 C1319 1.392 . S
C1321 C1320 1.401 . S
C1321 H1331 0.930 . S
C1322 O1300 1.262 . S
C1322 O1301 1.260 . S
C1323 Tb1259 2.833 . S
C1323 O1298 1.251 . S
C1323 O1303 1.256 . S
C1323 C1316 1.500 . S
H1324 C1307 0.930 . S
H1325 C1308 0.931 . S
H1326 C1309 0.930 . S
H1327 C1310 0.930 . S
H1328 C1317 0.930 . S
H1329 C1319 0.931 . S
H1330 C1320 0.930 . S
H1331 C1321 0.930 . S
H1332 C1350 0.951 . S
H1333 C1352 0.951 . S
H1334 C1354 0.950 . S
H1335 C1355 0.950 . S
H1336 C1357 0.950 . S
H1337 C1360 0.950 . S
H1338 C1361 0.950 . S
H1339 C1363 0.950 . S
H1340 C1364 0.950 . S
H1341 C1365 0.951 . S
H1342 C1367 0.951 . S
H1343 C1369 0.950 . S
H1344 C1370 0.950 . S
H1345 C1372 0.950 . S
H1346 C1375 0.950 . S
H1347 C1376 0.950 . S
H1348 C1378 0.950 . S
H1349 C1379 0.950 . S
C1350 H1332 0.951 . S
C1350 C1351 1.366 . S
C1350 C1352 1.388 . S
C1351 C1350 1.366 . S
C1351 C1355 1.385 . S
C1352 H1333 0.951 . S
C1352 C1350 1.388 . S
C1352 C1353 1.366 . S
C1353 C1352 1.366 . S
C1353 C1354 1.414 . S
C1353 C1356 1.499 . S
C1354 H1334 0.950 . S
C1354 C1353 1.414 . S
C1354 C1355 1.374 . S
C1355 H1335 0.950 . S
C1355 C1351 1.385 . S
C1355 C1354 1.374 . S
C1356 C1353 1.499 . S
C1356 C1357 1.373 . S
C1356 C1358 1.389 . S
C1357 H1336 0.950 . S
C1357 C1356 1.373 . S
C1357 C1373 1.377 . S
C1358 C1356 1.389 . S
C1358 C1359 1.524 . S
C1358 C1372 1.377 . S
C1359 C1358 1.524 . S
C1359 C1360 1.397 . S
C1359 C1364 1.363 . S
C1360 H1337 0.950 . S
C1360 C1359 1.397 . S
C1360 C1361 1.334 . S
C1361 H1338 0.950 . S
C1361 C1360 1.334 . S
C1361 C1362 1.287 . S
C1362 C1361 1.287 . S
C1362 C1363 1.524 . S
C1362 H1381 0.913 . S
C1363 H1339 0.950 . S
C1363 C1362 1.524 . S
C1363 C1364 1.415 . S
C1364 H1340 0.950 . S
C1364 C1359 1.363 . S
C1364 C1363 1.415 . S
C1365 H1341 0.951 . S
C1365 C1366 1.366 . S
C1365 C1367 1.388 . S
C1366 C1365 1.366 . S
C1366 C1370 1.385 . S
C1367 H1342 0.951 . S
C1367 C1365 1.388 . S
C1367 C1368 1.366 . S
C1368 C1367 1.366 . S
C1368 C1369 1.414 . S
C1368 C1371 1.499 . S
C1369 H1343 0.950 . S
C1369 C1368 1.414 . S
C1369 C1370 1.374 . S
C1370 H1344 0.950 . S
C1370 C1366 1.385 . S
C1370 C1369 1.374 . S
C1371 C1368 1.499 . S
C1371 C1372 1.373 . S
C1371 C1373 1.389 . S
C1372 H1345 0.950 . S
C1372 C1358 1.377 . S
C1372 C1371 1.373 . S
C1373 C1357 1.377 . S
C1373 C1371 1.389 . S
C1373 C1374 1.524 . S
C1374 C1373 1.524 . S
C1374 C1375 1.397 . S
C1374 C1379 1.363 . S
C1375 H1346 0.950 . S
C1375 C1374 1.397 . S
C1375 C1376 1.334 1_554 S
C1376 H1347 0.950 . S
C1376 C1375 1.334 1_556 S
C1376 C1377 1.287 . S
C1377 C1376 1.287 . S
C1377 C1378 1.524 . S
C1377 H1380 0.999 . S
C1378 H1348 0.950 . S
C1378 C1377 1.524 . S
C1378 C1379 1.415 1_556 S
C1379 H1349 0.950 . S
C1379 C1374 1.363 . S
C1379 C1378 1.415 1_554 S
H1380 C1377 0.999 . S
H1381 C1362 0.913 . S
H1382 C1400 0.951 . S
H1383 C1402 0.951 . S
H1384 C1404 0.950 . S
H1385 C1405 0.950 . S
H1386 C1407 0.950 . S
H1387 C1410 0.950 . S
H1388 C1411 0.950 . S
H1389 C1413 0.950 . S
H1390 C1414 0.950 . S
H1391 C1415 0.951 . S
H1392 C1417 0.951 . S
H1393 C1419 0.950 . S
H1394 C1420 0.950 . S
H1395 C1422 0.950 . S
H1396 C1425 0.950 . S
H1397 C1426 0.950 . S
H1398 C1428 0.950 . S
H1399 C1429 0.950 . S
C1400 H1382 0.951 . S
C1400 C1401 1.366 . S
C1400 C1402 1.388 . S
C1401 C1400 1.366 . S
C1401 C1405 1.385 . S
C1402 H1383 0.951 . S
C1402 C1400 1.388 . S
C1402 C1403 1.366 . S
C1403 C1402 1.366 . S
C1403 C1404 1.414 . S
C1403 C1406 1.499 . S
C1404 H1384 0.950 . S
C1404 C1403 1.414 . S
C1404 C1405 1.374 . S
C1405 H1385 0.950 . S
C1405 C1401 1.385 . S
C1405 C1404 1.374 . S
C1406 C1403 1.499 . S
C1406 C1407 1.373 . S
C1406 C1408 1.389 . S
C1407 H1386 0.950 . S
C1407 C1406 1.373 . S
C1407 C1423 1.377 . S
C1408 C1406 1.389 . S
C1408 C1409 1.524 . S
C1408 C1422 1.377 . S
C1409 C1408 1.524 . S
C1409 C1410 1.397 . S
C1409 C1414 1.363 . S
C1410 H1387 0.950 . S
C1410 C1409 1.397 . S
C1410 C1411 1.334 . S
C1411 H1388 0.950 . S
C1411 C1410 1.334 . S
C1411 C1412 1.287 . S
C1412 C1411 1.287 . S
C1412 C1413 1.524 . S
C1412 H1431 0.913 . S
C1413 H1389 0.950 . S
C1413 C1412 1.524 . S
C1413 C1414 1.415 . S
C1414 H1390 0.950 . S
C1414 C1409 1.363 . S
C1414 C1413 1.415 . S
C1415 H1391 0.951 . S
C1415 C1416 1.366 . S
C1415 C1417 1.388 . S
C1416 C1415 1.366 . S
C1416 C1420 1.385 . S
C1417 H1392 0.951 . S
C1417 C1415 1.388 . S
C1417 C1418 1.366 . S
C1418 C1417 1.366 . S
C1418 C1419 1.414 . S
C1418 C1421 1.499 . S
C1419 H1393 0.950 . S
C1419 C1418 1.414 . S
C1419 C1420 1.374 . S
C1420 H1394 0.950 . S
C1420 C1416 1.385 . S
C1420 C1419 1.374 . S
C1421 C1418 1.499 . S
C1421 C1422 1.373 . S
C1421 C1423 1.389 . S
C1422 H1395 0.950 . S
C1422 C1408 1.377 . S
C1422 C1421 1.373 . S
C1423 C1407 1.377 . S
C1423 C1421 1.389 . S
C1423 C1424 1.524 . S
C1424 C1423 1.524 . S
C1424 C1425 1.397 . S
C1424 C1429 1.363 . S
C1425 H1396 0.950 . S
C1425 C1424 1.397 . S
C1425 C1426 1.334 . S
C1426 H1397 0.950 . S
C1426 C1425 1.334 . S
C1426 C1427 1.287 1_554 S
C1427 C1426 1.287 1_556 S
C1427 C1428 1.524 . S
C1427 H1430 0.999 . S
C1428 H1398 0.950 . S
C1428 C1427 1.524 . S
C1428 C1429 1.415 1_556 S
C1429 H1399 0.950 . S
C1429 C1424 1.363 . S
C1429 C1428 1.415 1_554 S
H1430 C1427 0.999 . S
H1431 C1412 0.913 . S
H1432 C1450 0.951 . S
H1433 C1452 0.951 . S
H1434 C1454 0.950 . S
H1435 C1455 0.950 . S
H1436 C1457 0.950 . S
H1437 C1460 0.950 . S
H1438 C1461 0.950 . S
H1439 C1463 0.950 . S
H1440 C1464 0.950 . S
H1441 C1465 0.951 . S
H1442 C1467 0.951 . S
H1443 C1469 0.950 . S
H1444 C1470 0.950 . S
H1445 C1472 0.950 . S
H1446 C1475 0.950 . S
H1447 C1476 0.950 . S
H1448 C1478 0.950 . S
H1449 C1479 0.950 . S
C1450 H1432 0.951 . S
C1450 C1451 1.366 . S
C1450 C1452 1.388 . S
C1451 C1450 1.366 . S
C1451 C1455 1.385 . S
C1452 H1433 0.951 . S
C1452 C1450 1.388 . S
C1452 C1453 1.366 . S
C1453 C1452 1.366 . S
C1453 C1454 1.414 . S
C1453 C1456 1.499 . S
C1454 H1434 0.950 . S
C1454 C1453 1.414 . S
C1454 C1455 1.374 . S
C1455 H1435 0.950 . S
C1455 C1451 1.385 . S
C1455 C1454 1.374 . S
C1456 C1453 1.499 . S
C1456 C1457 1.373 . S
C1456 C1458 1.389 . S
C1457 H1436 0.950 . S
C1457 C1456 1.373 . S
C1457 C1473 1.377 . S
C1458 C1456 1.389 . S
C1458 C1459 1.524 . S
C1458 C1472 1.377 . S
C1459 C1458 1.524 . S
C1459 C1460 1.397 . S
C1459 C1464 1.363 . S
C1460 H1437 0.950 . S
C1460 C1459 1.397 . S
C1460 C1461 1.334 . S
C1461 H1438 0.950 . S
C1461 C1460 1.334 . S
C1461 C1462 1.287 . S
C1462 C1461 1.287 . S
C1462 C1463 1.524 . S
C1462 H1481 0.913 . S
C1463 H1439 0.950 . S
C1463 C1462 1.524 . S
C1463 C1464 1.415 . S
C1464 H1440 0.950 . S
C1464 C1459 1.363 . S
C1464 C1463 1.415 . S
C1465 H1441 0.951 . S
C1465 C1466 1.366 . S
C1465 C1467 1.388 . S
C1466 C1465 1.366 . S
C1466 C1470 1.385 . S
C1467 H1442 0.951 . S
C1467 C1465 1.388 . S
C1467 C1468 1.366 . S
C1468 C1467 1.366 . S
C1468 C1469 1.414 . S
C1468 C1471 1.499 . S
C1469 H1443 0.950 . S
C1469 C1468 1.414 . S
C1469 C1470 1.374 . S
C1470 H1444 0.950 . S
C1470 C1466 1.385 . S
C1470 C1469 1.374 . S
C1471 C1468 1.499 . S
C1471 C1472 1.373 . S
C1471 C1473 1.389 . S
C1472 H1445 0.950 . S
C1472 C1458 1.377 . S
C1472 C1471 1.373 . S
C1473 C1457 1.377 . S
C1473 C1471 1.389 . S
C1473 C1474 1.524 . S
C1474 C1473 1.524 . S
C1474 C1475 1.397 . S
C1474 C1479 1.363 . S
C1475 H1446 0.950 . S
C1475 C1474 1.397 . S
C1475 C1476 1.334 . S
C1476 H1447 0.950 . S
C1476 C1475 1.334 . S
C1476 C1477 1.287 . S
C1477 C1476 1.287 . S
C1477 C1478 1.524 . S
C1477 H1480 0.999 . S
C1478 H1448 0.950 . S
C1478 C1477 1.524 . S
C1478 C1479 1.415 . S
C1479 H1449 0.950 . S
C1479 C1474 1.363 . S
C1479 C1478 1.415 . S
H1480 C1477 0.999 . S
H1481 C1462 0.913 . S
H1482 C1500 0.951 . S
H1483 C1502 0.951 . S
H1484 C1504 0.950 . S
H1485 C1505 0.950 . S
H1486 C1507 0.950 . S
H1487 C1510 0.950 . S
H1488 C1511 0.950 . S
H1489 C1513 0.950 . S
H1490 C1514 0.950 . S
H1491 C1515 0.951 . S
H1492 C1517 0.951 . S
H1493 C1519 0.950 . S
H1494 C1520 0.950 1_554 S
H1495 C1522 0.950 . S
H1496 C1525 0.950 . S
H1497 C1526 0.950 1_554 S
H1498 C1528 0.950 . S
H1499 C1529 0.950 . S
C1500 H1482 0.951 . S
C1500 C1501 1.366 . S
C1500 C1502 1.388 . S
C1501 C1500 1.366 . S
C1501 C1505 1.385 . S
C1502 H1483 0.951 . S
C1502 C1500 1.388 . S
C1502 C1503 1.366 . S
C1503 C1502 1.366 . S
C1503 C1504 1.414 . S
C1503 C1506 1.499 . S
C1504 H1484 0.950 . S
C1504 C1503 1.414 . S
C1504 C1505 1.374 . S
C1505 H1485 0.950 . S
C1505 C1501 1.385 . S
C1505 C1504 1.374 . S
C1506 C1503 1.499 . S
C1506 C1507 1.373 . S
C1506 C1508 1.389 . S
C1507 H1486 0.950 . S
C1507 C1506 1.373 . S
C1507 C1523 1.377 . S
C1508 C1506 1.389 . S
C1508 C1509 1.524 . S
C1508 C1522 1.377 . S
C1509 C1508 1.524 . S
C1509 C1510 1.397 . S
C1509 C1514 1.363 . S
C1510 H1487 0.950 . S
C1510 C1509 1.397 . S
C1510 C1511 1.334 . S
C1511 H1488 0.950 . S
C1511 C1510 1.334 . S
C1511 C1512 1.287 . S
C1512 C1511 1.287 . S
C1512 C1513 1.524 . S
C1512 H1531 0.913 . S
C1513 H1489 0.950 . S
C1513 C1512 1.524 . S
C1513 C1514 1.415 . S
C1514 H1490 0.950 . S
C1514 C1509 1.363 . S
C1514 C1513 1.415 . S
C1515 H1491 0.951 . S
C1515 C1516 1.366 . S
C1515 C1517 1.388 . S
C1516 C1515 1.366 . S
C1516 C1520 1.385 . S
C1517 H1492 0.951 . S
C1517 C1515 1.388 . S
C1517 C1518 1.366 . S
C1518 C1517 1.366 . S
C1518 C1519 1.414 . S
C1518 C1521 1.499 . S
C1519 H1493 0.950 . S
C1519 C1518 1.414 . S
C1519 C1520 1.374 . S
C1520 H1494 0.950 1_556 S
C1520 C1516 1.385 . S
C1520 C1519 1.374 . S
C1521 C1518 1.499 . S
C1521 C1522 1.373 . S
C1521 C1523 1.389 . S
C1522 H1495 0.950 . S
C1522 C1508 1.377 . S
C1522 C1521 1.373 . S
C1523 C1507 1.377 . S
C1523 C1521 1.389 . S
C1523 C1524 1.524 . S
C1524 C1523 1.524 . S
C1524 C1525 1.397 . S
C1524 C1529 1.363 . S
C1525 H1496 0.950 . S
C1525 C1524 1.397 . S
C1525 C1526 1.334 . S
C1526 H1497 0.950 1_556 S
C1526 C1525 1.334 . S
C1526 C1527 1.287 . S
C1527 C1526 1.287 . S
C1527 C1528 1.524 . S
C1527 H1530 0.999 . S
C1528 H1498 0.950 . S
C1528 C1527 1.524 . S
C1528 C1529 1.415 . S
C1529 H1499 0.950 . S
C1529 C1524 1.363 . S
C1529 C1528 1.415 . S
H1530 C1527 0.999 . S
H1531 C1512 0.913 . S
H1532 C1550 0.951 . S
H1533 C1552 0.951 . S
H1534 C1554 0.950 . S
H1535 C1555 0.950 . S
H1536 C1557 0.950 . S
H1537 C1560 0.950 . S
H1538 C1561 0.950 . S
H1539 C1563 0.950 . S
H1540 C1564 0.950 . S
H1541 C1565 0.951 . S
H1542 C1567 0.951 . S
H1543 C1569 0.950 . S
H1544 C1570 0.950 1_554 S
H1545 C1572 0.950 . S
H1546 C1575 0.950 . S
H1547 C1576 0.950 . S
H1548 C1578 0.950 . S
H1549 C1579 0.950 . S
C1550 H1532 0.951 . S
C1550 C1551 1.366 . S
C1550 C1552 1.388 . S
C1551 C1550 1.366 . S
C1551 C1555 1.385 . S
C1552 H1533 0.951 . S
C1552 C1550 1.388 . S
C1552 C1553 1.366 . S
C1553 C1552 1.366 . S
C1553 C1554 1.414 . S
C1553 C1556 1.499 . S
C1554 H1534 0.950 . S
C1554 C1553 1.414 . S
C1554 C1555 1.374 . S
C1555 H1535 0.950 . S
C1555 C1551 1.385 . S
C1555 C1554 1.374 . S
C1556 C1553 1.499 . S
C1556 C1557 1.373 . S
C1556 C1558 1.389 . S
C1557 H1536 0.950 . S
C1557 C1556 1.373 . S
C1557 C1573 1.377 . S
C1558 C1556 1.389 . S
C1558 C1559 1.524 . S
C1558 C1572 1.377 . S
C1559 C1558 1.524 . S
C1559 C1560 1.397 . S
C1559 C1564 1.363 . S
C1560 H1537 0.950 . S
C1560 C1559 1.397 . S
C1560 C1561 1.334 . S
C1561 H1538 0.950 . S
C1561 C1560 1.334 . S
C1561 C1562 1.287 . S
C1562 C1561 1.287 . S
C1562 C1563 1.524 . S
C1562 H1581 0.913 . S
C1563 H1539 0.950 . S
C1563 C1562 1.524 . S
C1563 C1564 1.415 . S
C1564 H1540 0.950 . S
C1564 C1559 1.363 . S
C1564 C1563 1.415 . S
C1565 H1541 0.951 . S
C1565 C1566 1.366 . S
C1565 C1567 1.388 . S
C1566 C1565 1.366 . S
C1566 C1570 1.385 . S
C1567 H1542 0.951 . S
C1567 C1565 1.388 . S
C1567 C1568 1.366 . S
C1568 C1567 1.366 . S
C1568 C1569 1.414 . S
C1568 C1571 1.499 . S
C1569 H1543 0.950 . S
C1569 C1568 1.414 . S
C1569 C1570 1.374 . S
C1570 H1544 0.950 1_556 S
C1570 C1566 1.385 . S
C1570 C1569 1.374 . S
C1571 C1568 1.499 . S
C1571 C1572 1.373 . S
C1571 C1573 1.389 . S
C1572 H1545 0.950 . S
C1572 C1558 1.377 . S
C1572 C1571 1.373 . S
C1573 C1557 1.377 . S
C1573 C1571 1.389 . S
C1573 C1574 1.524 . S
C1574 C1573 1.524 . S
C1574 C1575 1.397 . S
C1574 C1579 1.363 . S
C1575 H1546 0.950 . S
C1575 C1574 1.397 . S
C1575 C1576 1.334 . S
C1576 H1547 0.950 . S
C1576 C1575 1.334 . S
C1576 C1577 1.287 . S
C1577 C1576 1.287 . S
C1577 C1578 1.524 . S
C1577 H1580 0.999 . S
C1578 H1548 0.950 . S
C1578 C1577 1.524 . S
C1578 C1579 1.415 . S
C1579 H1549 0.950 . S
C1579 C1574 1.363 . S
C1579 C1578 1.415 . S
H1580 C1577 0.999 . S
H1581 C1562 0.913 . S
H1582 C1600 0.951 . S
H1583 C1602 0.951 . S
H1584 C1604 0.950 . S
H1585 C1605 0.950 . S
H1586 C1607 0.950 . S
H1587 C1610 0.950 . S
H1588 C1611 0.950 . S
H1589 C1613 0.950 . S
H1590 C1614 0.950 . S
H1591 C1615 0.951 . S
H1592 C1617 0.951 . S
H1593 C1619 0.950 . S
H1594 C1620 0.950 1_554 S
H1595 C1622 0.950 . S
H1596 C1625 0.950 . S
H1597 C1626 0.950 . S
H1598 C1628 0.950 . S
H1599 C1629 0.950 . S
C1600 H1582 0.951 . S
C1600 C1601 1.366 . S
C1600 C1602 1.388 . S
C1601 C1600 1.366 . S
C1601 C1605 1.385 . S
C1602 H1583 0.951 . S
C1602 C1600 1.388 . S
C1602 C1603 1.366 . S
C1603 C1602 1.366 . S
C1603 C1604 1.414 . S
C1603 C1606 1.499 . S
C1604 H1584 0.950 . S
C1604 C1603 1.414 . S
C1604 C1605 1.374 . S
C1605 H1585 0.950 . S
C1605 C1601 1.385 . S
C1605 C1604 1.374 . S
C1606 C1603 1.499 . S
C1606 C1607 1.373 . S
C1606 C1608 1.389 . S
C1607 H1586 0.950 . S
C1607 C1606 1.373 . S
C1607 C1623 1.377 . S
C1608 C1606 1.389 . S
C1608 C1609 1.524 . S
C1608 C1622 1.377 . S
C1609 C1608 1.524 . S
C1609 C1610 1.397 . S
C1609 C1614 1.363 1_556 S
C1610 H1587 0.950 . S
C1610 C1609 1.397 . S
C1610 C1611 1.334 . S
C1611 H1588 0.950 . S
C1611 C1610 1.334 . S
C1611 C1612 1.287 1_556 S
C1612 C1611 1.287 1_554 S
C1612 C1613 1.524 . S
C1612 H1631 0.913 . S
C1613 H1589 0.950 . S
C1613 C1612 1.524 . S
C1613 C1614 1.415 . S
C1614 H1590 0.950 . S
C1614 C1609 1.363 1_554 S
C1614 C1613 1.415 . S
C1615 H1591 0.951 . S
C1615 C1616 1.366 . S
C1615 C1617 1.388 . S
C1616 C1615 1.366 . S
C1616 C1620 1.385 . S
C1617 H1592 0.951 . S
C1617 C1615 1.388 . S
C1617 C1618 1.366 . S
C1618 C1617 1.366 . S
C1618 C1619 1.414 . S
C1618 C1621 1.499 . S
C1619 H1593 0.950 . S
C1619 C1618 1.414 . S
C1619 C1620 1.374 . S
C1620 H1594 0.950 1_556 S
C1620 C1616 1.385 . S
C1620 C1619 1.374 . S
C1621 C1618 1.499 . S
C1621 C1622 1.373 . S
C1621 C1623 1.389 . S
C1622 H1595 0.950 . S
C1622 C1608 1.377 . S
C1622 C1621 1.373 . S
C1623 C1607 1.377 . S
C1623 C1621 1.389 . S
C1623 C1624 1.524 . S
C1624 C1623 1.524 . S
C1624 C1625 1.397 . S
C1624 C1629 1.363 . S
C1625 H1596 0.950 . S
C1625 C1624 1.397 . S
C1625 C1626 1.334 . S
C1626 H1597 0.950 . S
C1626 C1625 1.334 . S
C1626 C1627 1.287 . S
C1627 C1626 1.287 . S
C1627 C1628 1.524 . S
C1627 H1630 0.999 . S
C1628 H1598 0.950 . S
C1628 C1627 1.524 . S
C1628 C1629 1.415 . S
C1629 H1599 0.950 . S
C1629 C1624 1.363 . S
C1629 C1628 1.415 . S
H1630 C1627 0.999 . S
H1631 C1612 0.913 . S
H1632 C1650 0.951 . S
H1633 C1652 0.951 . S
H1634 C1654 0.950 . S
H1635 C1655 0.950 . S
H1636 C1657 0.950 . S
H1637 C1660 0.950 . S
H1638 C1661 0.950 . S
H1639 C1663 0.950 . S
H1640 C1664 0.950 . S
H1641 C1665 0.951 1_554 S
H1642 C1667 0.951 . S
H1643 C1669 0.950 . S
H1644 C1670 0.950 . S
H1645 C1672 0.950 . S
H1646 C1675 0.950 . S
H1647 C1676 0.950 . S
H1648 C1678 0.911 1_554 S
H1649 C1679 0.950 . S
C1650 H1632 0.951 . S
C1650 C1651 1.366 . S
C1650 C1652 1.388 . S
C1651 C1650 1.366 . S
C1651 C1655 1.385 . S
C1652 H1633 0.951 . S
C1652 C1650 1.388 . S
C1652 C1653 1.366 . S
C1653 C1652 1.366 . S
C1653 C1654 1.414 . S
C1653 C1656 1.499 . S
C1654 H1634 0.950 . S
C1654 C1653 1.414 . S
C1654 C1655 1.374 . S
C1655 H1635 0.950 . S
C1655 C1651 1.385 . S
C1655 C1654 1.374 . S
C1656 C1653 1.499 . S
C1656 C1657 1.373 . S
C1656 C1658 1.389 . S
C1657 H1636 0.950 . S
C1657 C1656 1.373 . S
C1657 C1673 1.377 . S
C1658 C1656 1.389 . S
C1658 C1659 1.524 . S
C1658 C1672 1.377 . S
C1659 C1658 1.524 . S
C1659 C1660 1.397 . S
C1659 C1664 1.363 . S
C1660 H1637 0.950 . S
C1660 C1659 1.397 . S
C1660 C1661 1.334 . S
C1661 H1638 0.950 . S
C1661 C1660 1.334 . S
C1661 C1662 1.287 . S
C1662 C1661 1.287 . S
C1662 C1663 1.524 . S
C1662 H1681 0.913 . S
C1663 H1639 0.950 . S
C1663 C1662 1.524 . S
C1663 C1664 1.415 . S
C1664 H1640 0.950 . S
C1664 C1659 1.363 . S
C1664 C1663 1.415 . S
C1665 H1641 0.951 1_556 S
C1665 C1666 1.366 . S
C1665 C1667 1.388 . S
C1666 C1665 1.366 . S
C1666 C1670 1.385 . S
C1667 H1642 0.951 . S
C1667 C1665 1.388 . S
C1667 C1668 1.366 . S
C1668 C1667 1.366 . S
C1668 C1669 1.414 . S
C1668 C1671 1.499 . S
C1669 H1643 0.950 . S
C1669 C1668 1.414 . S
C1669 C1670 1.374 . S
C1670 H1644 0.950 . S
C1670 C1666 1.385 . S
C1670 C1669 1.374 . S
C1671 C1668 1.499 . S
C1671 C1672 1.373 . S
C1671 C1673 1.389 . S
C1672 H1645 0.950 . S
C1672 C1658 1.377 . S
C1672 C1671 1.373 . S
C1673 C1657 1.377 . S
C1673 C1671 1.389 . S
C1673 C1674 1.524 . S
C1674 C1673 1.524 . S
C1674 C1675 1.397 . S
C1674 C1679 1.363 . S
C1675 H1646 0.950 . S
C1675 C1674 1.397 . S
C1675 C1676 1.334 . S
C1676 H1647 0.950 . S
C1676 C1675 1.334 . S
C1676 C1677 1.287 . S
C1677 C1676 1.287 . S
C1677 C1678 1.524 . S
C1677 H1680 0.999 . S
C1678 H1648 0.911 1_556 S
C1678 C1677 1.524 . S
C1678 C1679 1.415 . S
C1679 H1649 0.950 . S
C1679 C1674 1.363 . S
C1679 C1678 1.415 . S
H1680 C1677 0.999 . S
H1681 C1662 0.913 . S
H1682 C1700 0.951 . S
H1683 C1702 0.951 . S
H1684 C1704 0.950 . S
H1685 C1705 0.950 . S
H1686 C1707 0.950 . S
H1687 C1710 0.950 . S
H1688 C1711 0.950 . S
H1689 C1713 0.950 . S
H1690 C1714 0.950 . S
H1691 C1715 0.951 . S
H1692 C1717 0.951 . S
H1693 C1719 0.950 . S
H1694 C1720 0.950 . S
H1695 C1722 0.950 . S
H1696 C1725 0.975 . S
H1697 C1726 0.950 . S
H1698 C1728 0.950 . S
H1699 C1729 0.950 . S
C1700 H1682 0.951 . S
C1700 C1701 1.366 . S
C1700 C1702 1.388 . S
C1701 C1700 1.366 . S
C1701 C1705 1.385 . S
C1702 H1683 0.951 . S
C1702 C1700 1.388 . S
C1702 C1703 1.366 . S
C1703 C1702 1.366 . S
C1703 C1704 1.414 . S
C1703 C1706 1.499 . S
C1704 H1684 0.950 . S
C1704 C1703 1.414 . S
C1704 C1705 1.374 . S
C1705 H1685 0.950 . S
C1705 C1701 1.385 . S
C1705 C1704 1.374 . S
C1706 C1703 1.499 . S
C1706 C1707 1.373 . S
C1706 C1708 1.389 . S
C1707 H1686 0.950 . S
C1707 C1706 1.373 . S
C1707 C1723 1.377 . S
C1708 C1706 1.389 . S
C1708 C1709 1.524 . S
C1708 C1722 1.377 . S
C1709 C1708 1.524 . S
C1709 C1710 1.397 . S
C1709 C1714 1.363 . S
C1710 H1687 0.950 . S
C1710 C1709 1.397 . S
C1710 C1711 1.334 . S
C1711 H1688 0.950 . S
C1711 C1710 1.334 . S
C1711 C1712 1.287 . S
C1712 C1711 1.287 . S
C1712 C1713 1.524 . S
C1712 H1731 0.913 . S
C1713 H1689 0.950 . S
C1713 C1712 1.524 . S
C1713 C1714 1.415 . S
C1714 H1690 0.950 . S
C1714 C1709 1.363 . S
C1714 C1713 1.415 . S
C1715 H1691 0.951 . S
C1715 C1716 1.366 . S
C1715 C1717 1.388 . S
C1716 C1715 1.366 . S
C1716 C1720 1.385 . S
C1717 H1692 0.951 . S
C1717 C1715 1.388 . S
C1717 C1718 1.366 . S
C1718 C1717 1.366 . S
C1718 C1719 1.414 . S
C1718 C1721 1.499 . S
C1719 H1693 0.950 . S
C1719 C1718 1.414 . S
C1719 C1720 1.374 . S
C1720 H1694 0.950 . S
C1720 C1716 1.385 . S
C1720 C1719 1.374 . S
C1721 C1718 1.499 . S
C1721 C1722 1.373 . S
C1721 C1723 1.389 . S
C1722 H1695 0.950 . S
C1722 C1708 1.377 . S
C1722 C1721 1.373 . S
C1723 C1707 1.377 . S
C1723 C1721 1.389 . S
C1723 C1724 1.524 . S
C1724 C1723 1.524 . S
C1724 C1725 1.397 1_556 S
C1724 C1729 1.363 . S
C1725 H1696 0.975 . S
C1725 C1724 1.397 1_554 S
C1725 C1726 1.334 . S
C1726 H1697 0.950 . S
C1726 C1725 1.334 . S
C1726 C1727 1.287 . S
C1727 C1726 1.287 . S
C1727 C1728 1.524 . S
C1727 H1730 0.999 . S
C1728 H1698 0.950 . S
C1728 C1727 1.524 . S
C1728 C1729 1.415 1_554 S
C1729 H1699 0.950 . S
C1729 C1724 1.363 . S
C1729 C1728 1.415 1_556 S
H1730 C1727 0.999 . S
H1731 C1712 0.913 . S
H1732 C1750 0.951 . S
H1733 C1752 0.951 . S
H1734 C1754 0.950 . S
H1735 C1755 0.950 . S
H1736 C1757 0.950 . S
H1737 C1760 0.950 . S
H1738 C1761 0.950 . S
H1739 C1763 0.950 . S
H1740 C1764 0.950 1_554 S
H1741 C1765 0.951 . S
H1742 C1767 0.951 . S
H1743 C1769 0.950 . S
H1744 C1770 0.950 1_554 S
H1745 C1772 0.950 . S
H1746 C1775 0.950 . S
H1747 C1776 0.950 . S
H1748 C1778 0.950 . S
H1749 C1779 0.950 . S
C1750 H1732 0.951 . S
C1750 C1751 1.366 . S
C1750 C1752 1.388 . S
C1751 C1750 1.366 . S
C1751 C1755 1.385 . S
C1752 H1733 0.951 . S
C1752 C1750 1.388 . S
C1752 C1753 1.366 . S
C1753 C1752 1.366 . S
C1753 C1754 1.414 . S
C1753 C1756 1.499 . S
C1754 H1734 0.950 . S
C1754 C1753 1.414 . S
C1754 C1755 1.374 . S
C1755 H1735 0.950 . S
C1755 C1751 1.385 . S
C1755 C1754 1.374 . S
C1756 C1753 1.499 . S
C1756 C1757 1.373 . S
C1756 C1758 1.389 . S
C1757 H1736 0.950 . S
C1757 C1756 1.373 . S
C1757 C1773 1.377 . S
C1758 C1756 1.389 . S
C1758 C1759 1.524 . S
C1758 C1772 1.377 . S
C1759 C1758 1.524 . S
C1759 C1760 1.397 . S
C1759 C1764 1.363 . S
C1760 H1737 0.950 . S
C1760 C1759 1.397 . S
C1760 C1761 1.334 . S
C1761 H1738 0.950 . S
C1761 C1760 1.334 . S
C1761 C1762 1.287 . S
C1762 C1761 1.287 . S
C1762 C1763 1.524 1_556 S
C1762 H1781 0.913 1_556 S
C1763 H1739 0.950 . S
C1763 C1762 1.524 1_554 S
C1763 C1764 1.415 1_554 S
C1764 H1740 0.950 1_556 S
C1764 C1759 1.363 . S
C1764 C1763 1.415 1_556 S
C1765 H1741 0.951 . S
C1765 C1766 1.366 . S
C1765 C1767 1.388 . S
C1766 C1765 1.366 . S
C1766 C1770 1.385 . S
C1767 H1742 0.951 . S
C1767 C1765 1.388 . S
C1767 C1768 1.366 . S
C1768 C1767 1.366 . S
C1768 C1769 1.414 . S
C1768 C1771 1.499 . S
C1769 H1743 0.950 . S
C1769 C1768 1.414 . S
C1769 C1770 1.374 . S
C1770 H1744 0.950 1_556 S
C1770 C1766 1.385 . S
C1770 C1769 1.374 . S
C1771 C1768 1.499 . S
C1771 C1772 1.373 . S
C1771 C1773 1.389 . S
C1772 H1745 0.950 . S
C1772 C1758 1.377 . S
C1772 C1771 1.373 . S
C1773 C1757 1.377 . S
C1773 C1771 1.389 . S
C1773 C1774 1.524 . S
C1774 C1773 1.524 . S
C1774 C1775 1.397 . S
C1774 C1779 1.363 . S
C1775 H1746 0.950 . S
C1775 C1774 1.397 . S
C1775 C1776 1.334 . S
C1776 H1747 0.950 . S
C1776 C1775 1.334 . S
C1776 C1777 1.287 . S
C1777 C1776 1.287 . S
C1777 C1778 1.524 . S
C1777 H1780 0.999 . S
C1778 H1748 0.950 . S
C1778 C1777 1.524 . S
C1778 C1779 1.415 . S
C1779 H1749 0.950 . S
C1779 C1774 1.363 . S
C1779 C1778 1.415 . S
H1780 C1777 0.999 . S
H1781 C1762 0.913 1_554 S
H1782 C1800 0.951 . S
H1783 C1802 0.951 . S
H1784 C1804 0.950 . S
H1785 C1805 0.950 . S
H1786 C1807 0.950 . S
H1787 C1810 0.950 . S
H1788 C1811 0.950 . S
H1789 C1813 0.950 . S
H1790 C1814 0.950 . S
H1791 C1815 0.951 . S
H1792 C1817 0.951 . S
H1793 C1819 0.950 . S
H1794 C1820 0.950 . S
H1795 C1822 0.950 . S
H1796 C1825 0.950 . S
H1797 C1826 0.950 . S
H1798 C1828 0.950 . S
H1799 C1829 0.950 . S
C1800 H1782 0.951 . S
C1800 C1801 1.366 . S
C1800 C1802 1.388 . S
C1801 C1800 1.366 . S
C1801 C1805 1.385 . S
C1802 H1783 0.951 . S
C1802 C1800 1.388 . S
C1802 C1803 1.366 . S
C1803 C1802 1.366 . S
C1803 C1804 1.414 . S
C1803 C1806 1.499 . S
C1804 H1784 0.950 . S
C1804 C1803 1.414 . S
C1804 C1805 1.374 . S
C1805 H1785 0.950 . S
C1805 C1801 1.385 . S
C1805 C1804 1.374 . S
C1806 C1803 1.499 . S
C1806 C1807 1.373 . S
C1806 C1808 1.389 . S
C1807 H1786 0.950 . S
C1807 C1806 1.373 . S
C1807 C1823 1.377 . S
C1808 C1806 1.389 . S
C1808 C1809 1.524 . S
C1808 C1822 1.377 . S
C1809 C1808 1.524 . S
C1809 C1810 1.397 . S
C1809 C1814 1.363 . S
C1810 H1787 0.950 . S
C1810 C1809 1.397 . S
C1810 C1811 1.334 . S
C1811 H1788 0.950 . S
C1811 C1810 1.334 . S
C1811 C1812 1.287 . S
C1812 C1811 1.287 . S
C1812 C1813 1.524 . S
C1812 H1831 0.913 . S
C1813 H1789 0.950 . S
C1813 C1812 1.524 . S
C1813 C1814 1.415 . S
C1814 H1790 0.950 . S
C1814 C1809 1.363 . S
C1814 C1813 1.415 . S
C1815 H1791 0.951 . S
C1815 C1816 1.366 . S
C1815 C1817 1.388 . S
C1816 C1815 1.366 . S
C1816 C1820 1.385 . S
C1817 H1792 0.951 . S
C1817 C1815 1.388 . S
C1817 C1818 1.366 . S
C1818 C1817 1.366 . S
C1818 C1819 1.414 . S
C1818 C1821 1.499 . S
C1819 H1793 0.950 . S
C1819 C1818 1.414 . S
C1819 C1820 1.374 . S
C1820 H1794 0.950 . S
C1820 C1816 1.385 . S
C1820 C1819 1.374 . S
C1821 C1818 1.499 . S
C1821 C1822 1.373 . S
C1821 C1823 1.389 . S
C1822 H1795 0.950 . S
C1822 C1808 1.377 . S
C1822 C1821 1.373 . S
C1823 C1807 1.377 . S
C1823 C1821 1.389 . S
C1823 C1824 1.524 . S
C1824 C1823 1.524 . S
C1824 C1825 1.397 . S
C1824 C1829 1.363 . S
C1825 H1796 0.950 . S
C1825 C1824 1.397 . S
C1825 C1826 1.334 . S
C1826 H1797 0.950 . S
C1826 C1825 1.334 . S
C1826 C1827 1.287 . S
C1827 C1826 1.287 . S
C1827 C1828 1.524 . S
C1827 H1830 0.999 . S
C1828 H1798 0.950 . S
C1828 C1827 1.524 . S
C1828 C1829 1.415 . S
C1829 H1799 0.950 . S
C1829 C1824 1.363 . S
C1829 C1828 1.415 . S
H1830 C1827 0.999 . S
H1831 C1812 0.913 . S
H1832 C1850 0.951 . S
H1833 C1852 0.951 . S
H1834 C1854 0.950 . S
H1835 C1855 0.950 . S
H1836 C1857 0.950 . S
H1837 C1860 0.950 . S
H1838 C1861 0.950 . S
H1839 C1863 0.950 . S
H1840 C1864 0.950 . S
H1841 C1865 0.951 . S
H1842 C1867 0.951 . S
H1843 C1869 0.950 . S
H1844 C1870 0.950 . S
H1845 C1872 0.950 . S
H1846 C1875 0.950 . S
H1847 C1876 0.950 1_556 S
H1848 C1878 0.950 . S
H1849 C1879 0.950 . S
C1850 H1832 0.951 . S
C1850 C1851 1.366 . S
C1850 C1852 1.388 . S
C1851 C1850 1.366 . S
C1851 C1855 1.385 . S
C1852 H1833 0.951 . S
C1852 C1850 1.388 . S
C1852 C1853 1.366 . S
C1853 C1852 1.366 . S
C1853 C1854 1.414 . S
C1853 C1856 1.499 . S
C1854 H1834 0.950 . S
C1854 C1853 1.414 . S
C1854 C1855 1.374 . S
C1855 H1835 0.950 . S
C1855 C1851 1.385 . S
C1855 C1854 1.374 . S
C1856 C1853 1.499 . S
C1856 C1857 1.373 . S
C1856 C1858 1.389 . S
C1857 H1836 0.950 . S
C1857 C1856 1.373 . S
C1857 C1873 1.377 . S
C1858 C1856 1.389 . S
C1858 C1859 1.524 . S
C1858 C1872 1.377 . S
C1859 C1858 1.524 . S
C1859 C1860 1.397 . S
C1859 C1864 1.363 . S
C1860 H1837 0.950 . S
C1860 C1859 1.397 . S
C1860 C1861 1.334 . S
C1861 H1838 0.950 . S
C1861 C1860 1.334 . S
C1861 C1862 1.287 . S
C1862 C1861 1.287 . S
C1862 C1863 1.524 . S
C1862 H1881 0.913 . S
C1863 H1839 0.950 . S
C1863 C1862 1.524 . S
C1863 C1864 1.415 . S
C1864 H1840 0.950 . S
C1864 C1859 1.363 . S
C1864 C1863 1.415 . S
C1865 H1841 0.951 . S
C1865 C1866 1.366 . S
C1865 C1867 1.388 . S
C1866 C1865 1.366 . S
C1866 C1870 1.385 . S
C1867 H1842 0.951 . S
C1867 C1865 1.388 . S
C1867 C1868 1.366 . S
C1868 C1867 1.366 . S
C1868 C1869 1.414 . S
C1868 C1871 1.499 . S
C1869 H1843 0.950 . S
C1869 C1868 1.414 . S
C1869 C1870 1.374 . S
C1870 H1844 0.950 . S
C1870 C1866 1.385 . S
C1870 C1869 1.374 . S
C1871 C1868 1.499 . S
C1871 C1872 1.373 . S
C1871 C1873 1.389 . S
C1872 H1845 0.950 . S
C1872 C1858 1.377 . S
C1872 C1871 1.373 . S
C1873 C1857 1.377 . S
C1873 C1871 1.389 . S
C1873 C1874 1.524 . S
C1874 C1873 1.524 . S
C1874 C1875 1.397 . S
C1874 C1879 1.363 . S
C1875 H1846 0.950 . S
C1875 C1874 1.397 . S
C1875 C1876 1.334 . S
C1876 H1847 0.950 1_554 S
C1876 C1875 1.334 . S
C1876 C1877 1.287 . S
C1877 C1876 1.287 . S
C1877 C1878 1.524 . S
C1877 H1880 0.999 . S
C1878 H1848 0.950 . S
C1878 C1877 1.524 . S
C1878 C1879 1.415 . S
C1879 H1849 0.950 . S
C1879 C1874 1.363 . S
C1879 C1878 1.415 . S
H1880 C1877 0.999 . S
H1881 C1862 0.913 . S
H1882 C1900 0.951 . S
H1883 C1902 0.951 . S
H1884 C1904 0.950 . S
H1885 C1905 0.950 . S
H1886 C1907 0.950 . S
H1887 C1910 0.950 . S
H1888 C1911 0.950 . S
H1889 C1913 0.950 . S
H1890 C1914 0.950 . S
H1891 C1915 0.951 . S
H1892 C1917 0.951 . S
H1893 C1919 0.950 . S
H1894 C1920 0.950 . S
H1895 C1922 0.950 . S
H1896 C1925 0.950 . S
H1897 C1926 0.950 . S
H1898 C1928 0.950 . S
H1899 C1929 0.950 . S
C1900 H1882 0.951 . S
C1900 C1901 1.366 . S
C1900 C1902 1.388 . S
C1901 C1900 1.366 . S
C1901 C1905 1.385 . S
C1902 H1883 0.951 . S
C1902 C1900 1.388 . S
C1902 C1903 1.366 . S
C1903 C1902 1.366 . S
C1903 C1904 1.414 . S
C1903 C1906 1.499 . S
C1904 H1884 0.950 . S
C1904 C1903 1.414 . S
C1904 C1905 1.374 . S
C1905 H1885 0.950 . S
C1905 C1901 1.385 . S
C1905 C1904 1.374 . S
C1906 C1903 1.499 . S
C1906 C1907 1.373 . S
C1906 C1908 1.389 . S
C1907 H1886 0.950 . S
C1907 C1906 1.373 . S
C1907 C1923 1.377 . S
C1908 C1906 1.389 . S
C1908 C1909 1.524 . S
C1908 C1922 1.377 . S
C1909 C1908 1.524 . S
C1909 C1910 1.397 . S
C1909 C1914 1.363 . S
C1910 H1887 0.950 . S
C1910 C1909 1.397 . S
C1910 C1911 1.334 . S
C1911 H1888 0.950 . S
C1911 C1910 1.334 . S
C1911 C1912 1.287 . S
C1912 C1911 1.287 . S
C1912 C1913 1.524 . S
C1912 H1931 0.913 . S
C1913 H1889 0.950 . S
C1913 C1912 1.524 . S
C1913 C1914 1.415 . S
C1914 H1890 0.950 . S
C1914 C1909 1.363 . S
C1914 C1913 1.415 . S
C1915 H1891 0.951 . S
C1915 C1916 1.366 . S
C1915 C1917 1.388 . S
C1916 C1915 1.366 . S
C1916 C1920 1.385 . S
C1917 H1892 0.951 . S
C1917 C1915 1.388 . S
C1917 C1918 1.366 . S
C1918 C1917 1.366 . S
C1918 C1919 1.414 . S
C1918 C1921 1.499 . S
C1919 H1893 0.950 . S
C1919 C1918 1.414 . S
C1919 C1920 1.374 . S
C1920 H1894 0.950 . S
C1920 C1916 1.385 . S
C1920 C1919 1.374 . S
C1921 C1918 1.499 . S
C1921 C1922 1.373 . S
C1921 C1923 1.389 . S
C1922 H1895 0.950 . S
C1922 C1908 1.377 . S
C1922 C1921 1.373 . S
C1923 C1907 1.377 . S
C1923 C1921 1.389 . S
C1923 C1924 1.524 . S
C1924 C1923 1.524 . S
C1924 C1925 1.397 . S
C1924 C1929 1.363 . S
C1925 H1896 0.950 . S
C1925 C1924 1.397 . S
C1925 C1926 1.334 . S
C1926 H1897 0.950 . S
C1926 C1925 1.334 . S
C1926 C1927 1.287 . S
C1927 C1926 1.287 . S
C1927 C1928 1.524 . S
C1927 H1930 0.999 . S
C1928 H1898 0.950 . S
C1928 C1927 1.524 . S
C1928 C1929 1.415 . S
C1929 H1899 0.950 . S
C1929 C1924 1.363 . S
C1929 C1928 1.415 . S
H1930 C1927 0.999 . S
H1931 C1912 0.913 . S
H1932 C1950 0.951 . S
H1933 C1952 0.951 1_455 S
H1934 C1954 0.950 . S
H1935 C1955 0.950 . S
H1936 C1957 0.950 . S
H1937 C1960 0.950 . S
H1938 C1961 0.950 . S
H1939 C1963 0.950 . S
H1940 C1964 0.950 . S
H1941 C1965 0.951 . S
H1942 C1967 0.951 . S
H1943 C1969 0.950 . S
H1944 C1970 0.950 . S
H1945 C1972 0.950 . S
H1946 C1975 0.950 . S
H1947 C1976 0.950 . S
H1948 C1978 0.950 . S
H1949 C1979 0.950 . S
C1950 H1932 0.951 . S
C1950 C1951 1.366 . S
C1950 C1952 1.388 . S
C1951 C1950 1.366 . S
C1951 C1955 1.385 . S
C1952 H1933 0.951 1_655 S
C1952 C1950 1.388 . S
C1952 C1953 1.366 . S
C1953 C1952 1.366 . S
C1953 C1954 1.414 . S
C1953 C1956 1.499 1_655 S
C1954 H1934 0.950 . S
C1954 C1953 1.414 . S
C1954 C1955 1.374 . S
C1955 H1935 0.950 . S
C1955 C1951 1.385 . S
C1955 C1954 1.374 . S
C1956 C1953 1.499 1_455 S
C1956 C1957 1.373 . S
C1956 C1958 1.389 . S
C1957 H1936 0.950 . S
C1957 C1956 1.373 . S
C1957 C1973 1.377 . S
C1958 C1956 1.389 . S
C1958 C1959 1.524 . S
C1958 C1972 1.377 . S
C1959 C1958 1.524 . S
C1959 C1960 1.397 . S
C1959 C1964 1.363 . S
C1960 H1937 0.950 . S
C1960 C1959 1.397 . S
C1960 C1961 1.334 . S
C1961 H1938 0.950 . S
C1961 C1960 1.334 . S
C1961 C1962 1.287 . S
C1962 C1961 1.287 . S
C1962 C1963 1.524 . S
C1962 H1981 0.913 . S
C1963 H1939 0.950 . S
C1963 C1962 1.524 . S
C1963 C1964 1.415 . S
C1964 H1940 0.950 . S
C1964 C1959 1.363 . S
C1964 C1963 1.415 . S
C1965 H1941 0.951 . S
C1965 C1966 1.366 . S
C1965 C1967 1.388 . S
C1966 C1965 1.366 . S
C1966 C1970 1.385 . S
C1967 H1942 0.951 . S
C1967 C1965 1.388 . S
C1967 C1968 1.366 . S
C1968 C1967 1.366 . S
C1968 C1969 1.414 . S
C1968 C1971 1.499 . S
C1969 H1943 0.950 . S
C1969 C1968 1.414 . S
C1969 C1970 1.374 . S
C1970 H1944 0.950 . S
C1970 C1966 1.385 . S
C1970 C1969 1.374 . S
C1971 C1968 1.499 . S
C1971 C1972 1.373 . S
C1971 C1973 1.389 . S
C1972 H1945 0.950 . S
C1972 C1958 1.377 . S
C1972 C1971 1.373 . S
C1973 C1957 1.377 . S
C1973 C1971 1.389 . S
C1973 C1974 1.524 . S
C1974 C1973 1.524 . S
C1974 C1975 1.397 . S
C1974 C1979 1.363 . S
C1975 H1946 0.950 . S
C1975 C1974 1.397 . S
C1975 C1976 1.334 . S
C1976 H1947 0.950 . S
C1976 C1975 1.334 . S
C1976 C1977 1.287 . S
C1977 C1976 1.287 . S
C1977 C1978 1.524 . S
C1977 H1980 0.999 . S
C1978 H1948 0.950 . S
C1978 C1977 1.524 . S
C1978 C1979 1.415 . S
C1979 H1949 0.950 . S
C1979 C1974 1.363 . S
C1979 C1978 1.415 . S
H1980 C1977 0.999 . S
H1981 C1962 0.913 . S
H1982 C2000 0.951 . S
H1983 C2002 0.951 . S
H1984 C2004 0.950 . S
H1985 C2005 0.950 . S
H1986 C2007 0.950 . S
H1987 C2010 0.950 . S
H1988 C2011 0.950 . S
H1989 C2013 0.950 . S
H1990 C2014 0.950 . S
H1991 C2015 0.951 . S
H1992 C2017 0.951 . S
H1993 C2019 0.950 . S
H1994 C2020 0.950 . S
H1995 C2022 0.950 . S
H1996 C2025 0.950 . S
H1997 C2026 0.950 . S
H1998 C2028 0.950 . S
H1999 C2029 0.950 . S
C2000 H1982 0.951 . S
C2000 C2001 1.366 . S
C2000 C2002 1.388 . S
C2001 C2000 1.366 . S
C2001 C2005 1.385 . S
C2002 H1983 0.951 . S
C2002 C2000 1.388 . S
C2002 C2003 1.366 . S
C2003 C2002 1.366 . S
C2003 C2004 1.414 . S
C2003 C2006 1.499 . S
C2004 H1984 0.950 . S
C2004 C2003 1.414 . S
C2004 C2005 1.374 . S
C2005 H1985 0.950 . S
C2005 C2001 1.385 . S
C2005 C2004 1.374 . S
C2006 C2003 1.499 . S
C2006 C2007 1.373 . S
C2006 C2008 1.389 . S
C2007 H1986 0.950 . S
C2007 C2006 1.373 . S
C2007 C2023 1.377 . S
C2008 C2006 1.389 . S
C2008 C2009 1.524 . S
C2008 C2022 1.377 . S
C2009 C2008 1.524 . S
C2009 C2010 1.397 . S
C2009 C2014 1.363 . S
C2010 H1987 0.950 . S
C2010 C2009 1.397 . S
C2010 C2011 1.334 . S
C2011 H1988 0.950 . S
C2011 C2010 1.334 . S
C2011 C2012 1.287 . S
C2012 C2011 1.287 . S
C2012 C2013 1.524 . S
C2012 H2031 0.913 . S
C2013 H1989 0.950 . S
C2013 C2012 1.524 . S
C2013 C2014 1.415 . S
C2014 H1990 0.950 . S
C2014 C2009 1.363 . S
C2014 C2013 1.415 . S
C2015 H1991 0.951 . S
C2015 C2016 1.366 . S
C2015 C2017 1.388 . S
C2016 C2015 1.366 . S
C2016 C2020 1.385 . S
C2017 H1992 0.951 . S
C2017 C2015 1.388 . S
C2017 C2018 1.366 . S
C2018 C2017 1.366 . S
C2018 C2019 1.414 . S
C2018 C2021 1.499 . S
C2019 H1993 0.950 . S
C2019 C2018 1.414 . S
C2019 C2020 1.374 . S
C2020 H1994 0.950 . S
C2020 C2016 1.385 . S
C2020 C2019 1.374 . S
C2021 C2018 1.499 . S
C2021 C2022 1.373 . S
C2021 C2023 1.389 . S
C2022 H1995 0.950 . S
C2022 C2008 1.377 . S
C2022 C2021 1.373 . S
C2023 C2007 1.377 . S
C2023 C2021 1.389 . S
C2023 C2024 1.524 . S
C2024 C2023 1.524 . S
C2024 C2025 1.397 . S
C2024 C2029 1.363 . S
C2025 H1996 0.950 . S
C2025 C2024 1.397 . S
C2025 C2026 1.334 . S
C2026 H1997 0.950 . S
C2026 C2025 1.334 . S
C2026 C2027 1.287 . S
C2027 C2026 1.287 . S
C2027 C2028 1.524 . S
C2027 H2030 0.999 . S
C2028 H1998 0.950 . S
C2028 C2027 1.524 . S
C2028 C2029 1.415 . S
C2029 H1999 0.950 . S
C2029 C2024 1.363 . S
C2029 C2028 1.415 . S
H2030 C2027 0.999 . S
H2031 C2012 0.913 . S
H2032 C2050 0.951 . S
H2033 C2052 0.951 . S
H2034 C2054 0.950 . S
H2035 C2055 0.950 . S
H2036 C2057 0.950 1_545 S
H2037 C2060 0.950 . S
H2038 C2061 0.950 . S
H2039 C2063 0.950 . S
H2040 C2064 0.950 . S
H2041 C2065 0.951 . S
H2042 C2067 0.951 . S
H2043 C2069 0.950 . S
H2044 C2070 0.950 . S
H2045 C2072 0.950 . S
H2046 C2075 0.950 . S
H2047 C2076 0.950 . S
H2048 C2078 0.950 . S
H2049 C2079 0.950 . S
C2050 H2032 0.951 . S
C2050 C2051 1.366 . S
C2050 C2052 1.388 . S
C2051 C2050 1.366 . S
C2051 C2055 1.385 . S
C2052 H2033 0.951 . S
C2052 C2050 1.388 . S
C2052 C2053 1.366 . S
C2053 C2052 1.366 . S
C2053 C2054 1.414 . S
C2053 C2056 1.499 1_545 S
C2054 H2034 0.950 . S
C2054 C2053 1.414 . S
C2054 C2055 1.374 . S
C2055 H2035 0.950 . S
C2055 C2051 1.385 . S
C2055 C2054 1.374 . S
C2056 C2053 1.499 1_565 S
C2056 C2057 1.373 . S
C2056 C2058 1.389 . S
C2057 H2036 0.950 1_565 S
C2057 C2056 1.373 . S
C2057 C2073 1.377 . S
C2058 C2056 1.389 . S
C2058 C2059 1.524 . S
C2058 C2072 1.377 . S
C2059 C2058 1.524 . S
C2059 C2060 1.397 . S
C2059 C2064 1.363 . S
C2060 H2037 0.950 . S
C2060 C2059 1.397 . S
C2060 C2061 1.334 . S
C2061 H2038 0.950 . S
C2061 C2060 1.334 . S
C2061 C2062 1.287 . S
C2062 C2061 1.287 . S
C2062 C2063 1.524 . S
C2062 H2081 0.913 . S
C2063 H2039 0.950 . S
C2063 C2062 1.524 . S
C2063 C2064 1.415 . S
C2064 H2040 0.950 . S
C2064 C2059 1.363 . S
C2064 C2063 1.415 . S
C2065 H2041 0.951 . S
C2065 C2066 1.366 . S
C2065 C2067 1.388 . S
C2066 C2065 1.366 . S
C2066 C2070 1.385 . S
C2067 H2042 0.951 . S
C2067 C2065 1.388 . S
C2067 C2068 1.366 . S
C2068 C2067 1.366 . S
C2068 C2069 1.414 . S
C2068 C2071 1.499 . S
C2069 H2043 0.950 . S
C2069 C2068 1.414 . S
C2069 C2070 1.374 . S
C2070 H2044 0.950 . S
C2070 C2066 1.385 . S
C2070 C2069 1.374 . S
C2071 C2068 1.499 . S
C2071 C2072 1.373 . S
C2071 C2073 1.389 . S
C2072 H2045 0.950 . S
C2072 C2058 1.377 . S
C2072 C2071 1.373 . S
C2073 C2057 1.377 . S
C2073 C2071 1.389 . S
C2073 C2074 1.524 . S
C2074 C2073 1.524 . S
C2074 C2075 1.397 . S
C2074 C2079 1.363 . S
C2075 H2046 0.950 . S
C2075 C2074 1.397 . S
C2075 C2076 1.334 . S
C2076 H2047 0.950 . S
C2076 C2075 1.334 . S
C2076 C2077 1.287 . S
C2077 C2076 1.287 . S
C2077 C2078 1.524 . S
C2077 H2080 0.999 . S
C2078 H2048 0.950 . S
C2078 C2077 1.524 . S
C2078 C2079 1.415 . S
C2079 H2049 0.950 . S
C2079 C2074 1.363 . S
C2079 C2078 1.415 . S
H2080 C2077 0.999 . S
H2081 C2062 0.913 . S
H2082 C2100 0.951 . S
H2083 C2102 0.951 . S
H2084 C2104 0.950 . S
H2085 C2105 0.950 . S
H2086 C2107 0.950 . S
H2087 C2110 0.950 . S
H2088 C2111 0.950 . S
H2089 C2113 0.950 . S
H2090 C2114 0.950 . S
H2091 C2115 0.951 . S
H2092 C2117 0.951 . S
H2093 C2119 0.950 . S
H2094 C2120 0.950 . S
H2095 C2122 0.950 . S
H2096 C2125 0.950 . S
H2097 C2126 0.950 . S
H2098 C2128 0.950 . S
H2099 C2129 0.950 . S
C2100 H2082 0.951 . S
C2100 C2101 1.366 . S
C2100 C2102 1.388 . S
C2101 C2100 1.366 . S
C2101 C2105 1.385 . S
C2102 H2083 0.951 . S
C2102 C2100 1.388 . S
C2102 C2103 1.366 . S
C2103 C2102 1.366 . S
C2103 C2104 1.414 . S
C2103 C2106 1.499 . S
C2104 H2084 0.950 . S
C2104 C2103 1.414 . S
C2104 C2105 1.374 . S
C2105 H2085 0.950 . S
C2105 C2101 1.385 . S
C2105 C2104 1.374 . S
C2106 C2103 1.499 . S
C2106 C2107 1.373 . S
C2106 C2108 1.389 . S
C2107 H2086 0.950 . S
C2107 C2106 1.373 . S
C2107 C2123 1.377 . S
C2108 C2106 1.389 . S
C2108 C2109 1.524 . S
C2108 C2122 1.377 . S
C2109 C2108 1.524 . S
C2109 C2110 1.397 . S
C2109 C2114 1.363 . S
C2110 H2087 0.950 . S
C2110 C2109 1.397 . S
C2110 C2111 1.334 . S
C2111 H2088 0.950 . S
C2111 C2110 1.334 . S
C2111 C2112 1.287 . S
C2112 C2111 1.287 . S
C2112 C2113 1.524 . S
C2112 H2131 0.913 . S
C2113 H2089 0.950 . S
C2113 C2112 1.524 . S
C2113 C2114 1.415 . S
C2114 H2090 0.950 . S
C2114 C2109 1.363 . S
C2114 C2113 1.415 . S
C2115 H2091 0.951 . S
C2115 C2116 1.366 . S
C2115 C2117 1.388 . S
C2116 C2115 1.366 . S
C2116 C2120 1.385 . S
C2117 H2092 0.951 . S
C2117 C2115 1.388 . S
C2117 C2118 1.366 . S
C2118 C2117 1.366 . S
C2118 C2119 1.414 . S
C2118 C2121 1.499 . S
C2119 H2093 0.950 . S
C2119 C2118 1.414 . S
C2119 C2120 1.374 . S
C2120 H2094 0.950 . S
C2120 C2116 1.385 . S
C2120 C2119 1.374 . S
C2121 C2118 1.499 . S
C2121 C2122 1.373 . S
C2121 C2123 1.389 . S
C2122 H2095 0.950 . S
C2122 C2108 1.377 . S
C2122 C2121 1.373 . S
C2123 C2107 1.377 . S
C2123 C2121 1.389 . S
C2123 C2124 1.524 . S
C2124 C2123 1.524 . S
C2124 C2125 1.397 . S
C2124 C2129 1.363 . S
C2125 H2096 0.950 . S
C2125 C2124 1.397 . S
C2125 C2126 1.334 . S
C2126 H2097 0.950 . S
C2126 C2125 1.334 . S
C2126 C2127 1.287 . S
C2127 C2126 1.287 . S
C2127 C2128 1.524 . S
C2127 H2130 0.999 . S
C2128 H2098 0.950 . S
C2128 C2127 1.524 . S
C2128 C2129 1.415 . S
C2129 H2099 0.950 . S
C2129 C2124 1.363 . S
C2129 C2128 1.415 . S
H2130 C2127 0.999 . S
H2131 C2112 0.913 . S
H2132 C2150 0.951 . S
H2133 C2152 0.951 . S
H2134 C2154 0.950 . S
H2135 C2155 0.950 . S
H2136 C2157 0.950 . S
H2137 C2160 0.950 . S
H2138 C2161 0.950 . S
H2139 C2163 0.950 . S
H2140 C2164 0.950 . S
H2141 C2165 0.951 . S
H2142 C2167 0.951 . S
H2143 C2169 0.950 . S
H2144 C2170 0.950 . S
H2145 C2172 0.950 . S
H2146 C2175 0.950 . S
H2147 C2176 0.950 . S
H2148 C2178 0.950 . S
H2149 C2179 0.950 . S
C2150 H2132 0.951 . S
C2150 C2151 1.366 . S
C2150 C2152 1.388 . S
C2151 C2150 1.366 . S
C2151 C2155 1.385 . S
C2152 H2133 0.951 . S
C2152 C2150 1.388 . S
C2152 C2153 1.366 . S
C2153 C2152 1.366 . S
C2153 C2154 1.414 . S
C2153 C2156 1.499 . S
C2154 H2134 0.950 . S
C2154 C2153 1.414 . S
C2154 C2155 1.374 . S
C2155 H2135 0.950 . S
C2155 C2151 1.385 . S
C2155 C2154 1.374 . S
C2156 C2153 1.499 . S
C2156 C2157 1.373 . S
C2156 C2158 1.389 . S
C2157 H2136 0.950 . S
C2157 C2156 1.373 . S
C2157 C2173 1.377 . S
C2158 C2156 1.389 . S
C2158 C2159 1.524 . S
C2158 C2172 1.377 . S
C2159 C2158 1.524 . S
C2159 C2160 1.397 . S
C2159 C2164 1.363 . S
C2160 H2137 0.950 . S
C2160 C2159 1.397 . S
C2160 C2161 1.334 . S
C2161 H2138 0.950 . S
C2161 C2160 1.334 . S
C2161 C2162 1.287 . S
C2162 C2161 1.287 . S
C2162 C2163 1.524 . S
C2162 H2181 0.913 . S
C2163 H2139 0.950 . S
C2163 C2162 1.524 . S
C2163 C2164 1.415 . S
C2164 H2140 0.950 . S
C2164 C2159 1.363 . S
C2164 C2163 1.415 . S
C2165 H2141 0.951 . S
C2165 C2166 1.366 . S
C2165 C2167 1.388 . S
C2166 C2165 1.366 . S
C2166 C2170 1.385 . S
C2167 H2142 0.951 . S
C2167 C2165 1.388 . S
C2167 C2168 1.366 . S
C2168 C2167 1.366 . S
C2168 C2169 1.414 . S
C2168 C2171 1.499 . S
C2169 H2143 0.950 . S
C2169 C2168 1.414 . S
C2169 C2170 1.374 . S
C2170 H2144 0.950 . S
C2170 C2166 1.385 . S
C2170 C2169 1.374 . S
C2171 C2168 1.499 . S
C2171 C2172 1.373 . S
C2171 C2173 1.389 . S
C2172 H2145 0.950 . S
C2172 C2158 1.377 . S
C2172 C2171 1.373 . S
C2173 C2157 1.377 . S
C2173 C2171 1.389 . S
C2173 C2174 1.524 . S
C2174 C2173 1.524 . S
C2174 C2175 1.397 . S
C2174 C2179 1.363 . S
C2175 H2146 0.950 . S
C2175 C2174 1.397 . S
C2175 C2176 1.334 . S
C2176 H2147 0.950 . S
C2176 C2175 1.334 . S
C2176 C2177 1.287 . S
C2177 C2176 1.287 . S
C2177 C2178 1.524 . S
C2177 H2180 0.999 . S
C2178 H2148 0.950 . S
C2178 C2177 1.524 . S
C2178 C2179 1.415 . S
C2179 H2149 0.950 . S
C2179 C2174 1.363 . S
C2179 C2178 1.415 . S
H2180 C2177 0.999 . S
H2181 C2162 0.913 . S
H2182 C2200 0.951 . S
H2183 C2202 0.951 . S
H2184 C2204 0.950 . S
H2185 C2205 0.950 . S
H2186 C2207 0.950 . S
H2187 C2210 0.950 . S
H2188 C2211 0.950 . S
H2189 C2213 0.950 . S
H2190 C2214 0.950 . S
H2191 C2215 0.951 . S
H2192 C2217 0.951 . S
H2193 C2219 0.950 . S
H2194 C2220 0.950 . S
H2195 C2222 0.950 . S
H2196 C2225 0.950 . S
H2197 C2226 0.950 . S
H2198 C2228 0.950 . S
H2199 C2229 0.950 . S
C2200 H2182 0.951 . S
C2200 C2201 1.366 . S
C2200 C2202 1.388 . S
C2201 C2200 1.366 . S
C2201 C2205 1.385 . S
C2202 H2183 0.951 . S
C2202 C2200 1.388 . S
C2202 C2203 1.366 . S
C2203 C2202 1.366 . S
C2203 C2204 1.414 . S
C2203 C2206 1.499 . S
C2204 H2184 0.950 . S
C2204 C2203 1.414 . S
C2204 C2205 1.374 . S
C2205 H2185 0.950 . S
C2205 C2201 1.385 . S
C2205 C2204 1.374 . S
C2206 C2203 1.499 . S
C2206 C2207 1.373 . S
C2206 C2208 1.389 . S
C2207 H2186 0.950 . S
C2207 C2206 1.373 . S
C2207 C2223 1.377 . S
C2208 C2206 1.389 . S
C2208 C2209 1.524 . S
C2208 C2222 1.377 . S
C2209 C2208 1.524 . S
C2209 C2210 1.397 . S
C2209 C2214 1.363 . S
C2210 H2187 0.950 . S
C2210 C2209 1.397 . S
C2210 C2211 1.334 . S
C2211 H2188 0.950 . S
C2211 C2210 1.334 . S
C2211 C2212 1.287 . S
C2212 C2211 1.287 . S
C2212 C2213 1.524 . S
C2212 H2231 0.913 . S
C2213 H2189 0.950 . S
C2213 C2212 1.524 . S
C2213 C2214 1.415 . S
C2214 H2190 0.950 . S
C2214 C2209 1.363 . S
C2214 C2213 1.415 . S
C2215 H2191 0.951 . S
C2215 C2216 1.366 . S
C2215 C2217 1.388 . S
C2216 C2215 1.366 . S
C2216 C2220 1.385 . S
C2217 H2192 0.951 . S
C2217 C2215 1.388 . S
C2217 C2218 1.366 . S
C2218 C2217 1.366 . S
C2218 C2219 1.414 . S
C2218 C2221 1.499 . S
C2219 H2193 0.950 . S
C2219 C2218 1.414 . S
C2219 C2220 1.374 . S
C2220 H2194 0.950 . S
C2220 C2216 1.385 . S
C2220 C2219 1.374 . S
C2221 C2218 1.499 . S
C2221 C2222 1.373 . S
C2221 C2223 1.389 . S
C2222 H2195 0.950 . S
C2222 C2208 1.377 . S
C2222 C2221 1.373 . S
C2223 C2207 1.377 . S
C2223 C2221 1.389 . S
C2223 C2224 1.524 . S
C2224 C2223 1.524 . S
C2224 C2225 1.397 . S
C2224 C2229 1.363 . S
C2225 H2196 0.950 . S
C2225 C2224 1.397 . S
C2225 C2226 1.334 . S
C2226 H2197 0.950 . S
C2226 C2225 1.334 . S
C2226 C2227 1.287 . S
C2227 C2226 1.287 . S
C2227 C2228 1.524 . S
C2227 H2230 0.999 . S
C2228 H2198 0.950 . S
C2228 C2227 1.524 . S
C2228 C2229 1.415 . S
C2229 H2199 0.950 . S
C2229 C2224 1.363 . S
C2229 C2228 1.415 . S
H2230 C2227 0.999 . S
H2231 C2212 0.913 . S
H2232 C2250 0.951 . S
H2233 C2252 0.951 . S
H2234 C2254 0.950 . S
H2235 C2255 0.950 . S
H2236 C2257 0.950 . S
H2237 C2260 0.950 . S
H2238 C2261 0.950 . S
H2239 C2263 0.950 . S
H2240 C2264 0.950 . S
H2241 C2265 0.951 . S
H2242 C2267 0.951 . S
H2243 C2269 0.950 . S
H2244 C2270 0.950 . S
H2245 C2272 0.950 . S
H2246 C2275 0.950 . S
H2247 C2276 0.950 . S
H2248 C2278 0.950 . S
H2249 C2279 0.950 . S
C2250 H2232 0.951 . S
C2250 C2251 1.366 . S
C2250 C2252 1.388 . S
C2251 C2250 1.366 . S
C2251 C2255 1.385 . S
C2252 H2233 0.951 . S
C2252 C2250 1.388 . S
C2252 C2253 1.366 . S
C2253 C2252 1.366 . S
C2253 C2254 1.414 . S
C2253 C2256 1.499 . S
C2254 H2234 0.950 . S
C2254 C2253 1.414 . S
C2254 C2255 1.374 . S
C2255 H2235 0.950 . S
C2255 C2251 1.385 . S
C2255 C2254 1.374 . S
C2256 C2253 1.499 . S
C2256 C2257 1.373 . S
C2256 C2258 1.389 . S
C2257 H2236 0.950 . S
C2257 C2256 1.373 . S
C2257 C2273 1.377 . S
C2258 C2256 1.389 . S
C2258 C2259 1.524 . S
C2258 C2272 1.377 . S
C2259 C2258 1.524 . S
C2259 C2260 1.397 . S
C2259 C2264 1.363 . S
C2260 H2237 0.950 . S
C2260 C2259 1.397 . S
C2260 C2261 1.334 . S
C2261 H2238 0.950 . S
C2261 C2260 1.334 . S
C2261 C2262 1.287 . S
C2262 C2261 1.287 . S
C2262 C2263 1.524 . S
C2262 H2281 0.913 . S
C2263 H2239 0.950 . S
C2263 C2262 1.524 . S
C2263 C2264 1.415 . S
C2264 H2240 0.950 . S
C2264 C2259 1.363 . S
C2264 C2263 1.415 . S
C2265 H2241 0.951 . S
C2265 C2266 1.366 . S
C2265 C2267 1.388 . S
C2266 C2265 1.366 . S
C2266 C2270 1.385 . S
C2267 H2242 0.951 . S
C2267 C2265 1.388 . S
C2267 C2268 1.366 . S
C2268 C2267 1.366 . S
C2268 C2269 1.414 . S
C2268 C2271 1.499 . S
C2269 H2243 0.950 . S
C2269 C2268 1.414 . S
C2269 C2270 1.374 . S
C2270 H2244 0.950 . S
C2270 C2266 1.385 . S
C2270 C2269 1.374 . S
C2271 C2268 1.499 . S
C2271 C2272 1.373 . S
C2271 C2273 1.389 . S
C2272 H2245 0.950 . S
C2272 C2258 1.377 . S
C2272 C2271 1.373 . S
C2273 C2257 1.377 . S
C2273 C2271 1.389 . S
C2273 C2274 1.524 . S
C2274 C2273 1.524 . S
C2274 C2275 1.397 . S
C2274 C2279 1.363 . S
C2275 H2246 0.950 . S
C2275 C2274 1.397 . S
C2275 C2276 1.334 . S
C2276 H2247 0.950 . S
C2276 C2275 1.334 . S
C2276 C2277 1.287 . S
C2277 C2276 1.287 . S
C2277 C2278 1.524 . S
C2277 H2280 0.999 . S
C2278 H2248 0.950 . S
C2278 C2277 1.524 . S
C2278 C2279 1.415 . S
C2279 H2249 0.950 . S
C2279 C2274 1.363 . S
C2279 C2278 1.415 . S
H2280 C2277 0.999 . S
H2281 C2262 0.913 . S
H2282 C2300 0.951 . S
H2283 C2302 0.951 . S
H2284 C2304 0.950 . S
H2285 C2305 0.950 . S
H2286 C2307 0.950 . S
H2287 C2310 0.950 . S
H2288 C2311 0.950 . S
H2289 C2313 0.950 . S
H2290 C2314 0.950 . S
H2291 C2315 0.951 . S
H2292 C2317 0.951 . S
H2293 C2319 0.950 . S
H2294 C2320 0.950 . S
H2295 C2322 0.950 . S
H2296 C2325 0.950 . S
H2297 C2326 0.950 . S
H2298 C2328 0.950 . S
H2299 C2329 0.950 . S
C2300 H2282 0.951 . S
C2300 C2301 1.366 . S
C2300 C2302 1.388 . S
C2301 C2300 1.366 . S
C2301 C2305 1.385 . S
C2302 H2283 0.951 . S
C2302 C2300 1.388 . S
C2302 C2303 1.366 . S
C2303 C2302 1.366 . S
C2303 C2304 1.414 . S
C2303 C2306 1.499 . S
C2304 H2284 0.950 . S
C2304 C2303 1.414 . S
C2304 C2305 1.374 . S
C2305 H2285 0.950 . S
C2305 C2301 1.385 . S
C2305 C2304 1.374 . S
C2306 C2303 1.499 . S
C2306 C2307 1.373 . S
C2306 C2308 1.389 . S
C2307 H2286 0.950 . S
C2307 C2306 1.373 . S
C2307 C2323 1.377 . S
C2308 C2306 1.389 . S
C2308 C2309 1.524 . S
C2308 C2322 1.377 . S
C2309 C2308 1.524 . S
C2309 C2310 1.397 . S
C2309 C2314 1.363 . S
C2310 H2287 0.950 . S
C2310 C2309 1.397 . S
C2310 C2311 1.334 . S
C2311 H2288 0.950 . S
C2311 C2310 1.334 . S
C2311 C2312 1.287 . S
C2312 C2311 1.287 . S
C2312 C2313 1.524 . S
C2312 H2331 0.913 . S
C2313 H2289 0.950 . S
C2313 C2312 1.524 . S
C2313 C2314 1.415 . S
C2314 H2290 0.950 . S
C2314 C2309 1.363 . S
C2314 C2313 1.415 . S
C2315 H2291 0.951 . S
C2315 C2316 1.366 . S
C2315 C2317 1.388 . S
C2316 C2315 1.366 . S
C2316 C2320 1.385 . S
C2317 H2292 0.951 . S
C2317 C2315 1.388 . S
C2317 C2318 1.366 . S
C2318 C2317 1.366 . S
C2318 C2319 1.414 . S
C2318 C2321 1.499 . S
C2319 H2293 0.950 . S
C2319 C2318 1.414 . S
C2319 C2320 1.374 . S
C2320 H2294 0.950 . S
C2320 C2316 1.385 . S
C2320 C2319 1.374 . S
C2321 C2318 1.499 . S
C2321 C2322 1.373 . S
C2321 C2323 1.389 . S
C2322 H2295 0.950 . S
C2322 C2308 1.377 . S
C2322 C2321 1.373 . S
C2323 C2307 1.377 . S
C2323 C2321 1.389 . S
C2323 C2324 1.524 . S
C2324 C2323 1.524 . S
C2324 C2325 1.397 . S
C2324 C2329 1.363 . S
C2325 H2296 0.950 . S
C2325 C2324 1.397 . S
C2325 C2326 1.334 . S
C2326 H2297 0.950 . S
C2326 C2325 1.334 . S
C2326 C2327 1.287 . S
C2327 C2326 1.287 . S
C2327 C2328 1.524 . S
C2327 H2330 0.999 . S
C2328 H2298 0.950 . S
C2328 C2327 1.524 . S
C2328 C2329 1.415 . S
C2329 H2299 0.950 . S
C2329 C2324 1.363 . S
C2329 C2328 1.415 . S
H2330 C2327 0.999 . S
H2331 C2312 0.913 . S
H2332 C2350 0.951 . S
H2333 C2352 0.951 . S
H2334 C2354 0.950 . S
H2335 C2355 0.950 . S
H2336 C2357 0.950 . S
H2337 C2360 0.950 . S
H2338 C2361 0.950 . S
H2339 C2363 0.950 . S
H2340 C2364 0.950 . S
H2341 C2365 0.951 . S
H2342 C2367 0.951 . S
H2343 C2369 0.950 . S
H2344 C2370 0.950 . S
H2345 C2372 0.950 . S
H2346 C2375 0.950 . S
H2347 C2376 0.950 . S
H2348 C2378 0.950 . S
H2349 C2379 0.950 . S
C2350 H2332 0.951 . S
C2350 C2351 1.366 . S
C2350 C2352 1.388 . S
C2351 C2350 1.366 . S
C2351 C2355 1.385 . S
C2352 H2333 0.951 . S
C2352 C2350 1.388 . S
C2352 C2353 1.366 . S
C2353 C2352 1.366 . S
C2353 C2354 1.414 . S
C2353 C2356 1.499 . S
C2354 H2334 0.950 . S
C2354 C2353 1.414 . S
C2354 C2355 1.374 . S
C2355 H2335 0.950 . S
C2355 C2351 1.385 . S
C2355 C2354 1.374 . S
C2356 C2353 1.499 . S
C2356 C2357 1.373 . S
C2356 C2358 1.389 . S
C2357 H2336 0.950 . S
C2357 C2356 1.373 . S
C2357 C2373 1.377 . S
C2358 C2356 1.389 . S
C2358 C2359 1.524 . S
C2358 C2372 1.377 . S
C2359 C2358 1.524 . S
C2359 C2360 1.397 . S
C2359 C2364 1.363 . S
C2360 H2337 0.950 . S
C2360 C2359 1.397 . S
C2360 C2361 1.334 . S
C2361 H2338 0.950 . S
C2361 C2360 1.334 . S
C2361 C2362 1.287 . S
C2362 C2361 1.287 . S
C2362 C2363 1.524 . S
C2362 H2381 0.913 . S
C2363 H2339 0.950 . S
C2363 C2362 1.524 . S
C2363 C2364 1.415 . S
C2364 H2340 0.950 . S
C2364 C2359 1.363 . S
C2364 C2363 1.415 . S
C2365 H2341 0.951 . S
C2365 C2366 1.366 . S
C2365 C2367 1.388 . S
C2366 C2365 1.366 . S
C2366 C2370 1.385 . S
C2367 H2342 0.951 . S
C2367 C2365 1.388 . S
C2367 C2368 1.366 . S
C2368 C2367 1.366 . S
C2368 C2369 1.414 . S
C2368 C2371 1.499 . S
C2369 H2343 0.950 . S
C2369 C2368 1.414 . S
C2369 C2370 1.374 . S
C2370 H2344 0.950 . S
C2370 C2366 1.385 . S
C2370 C2369 1.374 . S
C2371 C2368 1.499 . S
C2371 C2372 1.373 . S
C2371 C2373 1.389 . S
C2372 H2345 0.950 . S
C2372 C2358 1.377 . S
C2372 C2371 1.373 . S
C2373 C2357 1.377 . S
C2373 C2371 1.389 . S
C2373 C2374 1.524 . S
C2374 C2373 1.524 . S
C2374 C2375 1.397 . S
C2374 C2379 1.363 . S
C2375 H2346 0.950 . S
C2375 C2374 1.397 . S
C2375 C2376 1.334 . S
C2376 H2347 0.950 . S
C2376 C2375 1.334 . S
C2376 C2377 1.287 . S
C2377 C2376 1.287 . S
C2377 C2378 1.524 . S
C2377 H2380 0.999 . S
C2378 H2348 0.950 . S
C2378 C2377 1.524 . S
C2378 C2379 1.415 . S
C2379 H2349 0.950 . S
C2379 C2374 1.363 . S
C2379 C2378 1.415 . S
H2380 C2377 0.999 . S
H2381 C2362 0.913 . S
H2382 C2400 0.951 . S
H2383 C2402 0.951 . S
H2384 C2404 0.946 1_565 S
H2385 C2405 0.950 . S
H2386 C2407 0.950 . S
H2387 C2410 0.932 1_565 S
H2388 C2411 0.950 . S
H2389 C2413 0.950 . S
H2390 C2414 0.950 . S
H2391 C2415 0.951 . S
H2392 C2417 0.951 . S
H2393 C2419 0.950 . S
H2394 C2420 0.950 . S
H2395 C2422 0.950 . S
H2396 C2425 0.950 . S
H2397 C2426 0.950 . S
H2398 C2428 0.950 . S
H2399 C2429 0.950 . S
C2400 H2382 0.951 . S
C2400 C2401 1.366 . S
C2400 C2402 1.388 . S
C2401 C2400 1.366 . S
C2401 C2405 1.385 . S
C2402 H2383 0.951 . S
C2402 C2400 1.388 . S
C2402 C2403 1.366 . S
C2403 C2402 1.366 . S
C2403 C2404 1.414 . S
C2403 C2406 1.499 1_545 S
C2404 H2384 0.946 1_545 S
C2404 C2403 1.414 . S
C2404 C2405 1.374 . S
C2405 H2385 0.950 . S
C2405 C2401 1.385 . S
C2405 C2404 1.374 . S
C2406 C2403 1.499 1_565 S
C2406 C2407 1.373 . S
C2406 C2408 1.389 . S
C2407 H2386 0.950 . S
C2407 C2406 1.373 . S
C2407 C2423 1.377 . S
C2408 C2406 1.389 . S
C2408 C2409 1.524 . S
C2408 C2422 1.377 . S
C2409 C2408 1.524 . S
C2409 C2410 1.389 1_565 S
C2409 C2414 1.363 . S
C2410 H2387 0.932 1_545 S
C2410 C2409 1.389 1_545 S
C2410 C2411 1.360 . S
C2411 H2388 0.950 . S
C2411 C2410 1.360 . S
C2411 C2412 1.287 . S
C2412 C2411 1.287 . S
C2412 C2413 1.524 . S
C2412 H2431 0.913 . S
C2413 H2389 0.950 . S
C2413 C2412 1.524 . S
C2413 C2414 1.415 1_545 S
C2414 H2390 0.950 . S
C2414 C2409 1.363 . S
C2414 C2413 1.415 1_565 S
C2415 H2391 0.951 . S
C2415 C2416 1.366 . S
C2415 C2417 1.388 . S
C2416 C2415 1.366 . S
C2416 C2420 1.385 . S
C2417 H2392 0.951 . S
C2417 C2415 1.388 . S
C2417 C2418 1.366 . S
C2418 C2417 1.366 . S
C2418 C2419 1.414 . S
C2418 C2421 1.499 . S
C2419 H2393 0.950 . S
C2419 C2418 1.414 . S
C2419 C2420 1.374 . S
C2420 H2394 0.950 . S
C2420 C2416 1.385 . S
C2420 C2419 1.374 . S
C2421 C2418 1.499 . S
C2421 C2422 1.373 . S
C2421 C2423 1.389 . S
C2422 H2395 0.950 . S
C2422 C2408 1.377 . S
C2422 C2421 1.373 . S
C2423 C2407 1.377 . S
C2423 C2421 1.389 . S
C2423 C2424 1.524 . S
C2424 C2423 1.524 . S
C2424 C2425 1.397 . S
C2424 C2429 1.363 . S
C2425 H2396 0.950 . S
C2425 C2424 1.397 . S
C2425 C2426 1.334 . S
C2426 H2397 0.950 . S
C2426 C2425 1.334 . S
C2426 C2427 1.287 . S
C2427 C2426 1.287 . S
C2427 C2428 1.524 . S
C2427 H2430 0.999 . S
C2428 H2398 0.950 . S
C2428 C2427 1.524 . S
C2428 C2429 1.415 . S
C2429 H2399 0.950 . S
C2429 C2424 1.363 . S
C2429 C2428 1.415 . S
H2430 C2427 0.999 . S
H2431 C2412 0.913 . S
H2432 C2450 0.951 . S
H2433 C2452 0.951 . S
H2434 C2454 0.950 1_455 S
H2435 C2455 0.950 . S
H2436 C2457 0.950 . S
H2437 C2460 0.950 . S
H2438 C2461 0.950 . S
H2439 C2463 0.950 . S
H2440 C2464 0.950 . S
H2441 C2465 0.951 . S
H2442 C2467 0.951 . S
H2443 C2469 0.950 . S
H2444 C2470 0.950 . S
H2445 C2472 0.950 . S
H2446 C2475 0.950 . S
H2447 C2476 0.950 . S
H2448 C2478 0.950 . S
H2449 C2479 0.950 . S
C2450 H2432 0.951 . S
C2450 C2451 1.366 . S
C2450 C2452 1.388 . S
C2451 C2450 1.366 . S
C2451 C2455 1.385 . S
C2452 H2433 0.951 . S
C2452 C2450 1.388 . S
C2452 C2453 1.326 1_655 S
C2453 C2452 1.326 1_455 S
C2453 C2454 1.412 1_455 S
C2453 C2456 1.541 . S
C2454 H2434 0.950 1_655 S
C2454 C2453 1.412 1_655 S
C2454 C2455 1.374 . S
C2455 H2435 0.950 . S
C2455 C2451 1.385 . S
C2455 C2454 1.374 . S
C2456 C2453 1.541 . S
C2456 C2457 1.373 . S
C2456 C2458 1.389 . S
C2457 H2436 0.950 . S
C2457 C2456 1.373 . S
C2457 C2473 1.377 . S
C2458 C2456 1.389 . S
C2458 C2459 1.524 . S
C2458 C2472 1.377 . S
C2459 C2458 1.524 . S
C2459 C2460 1.397 1_455 S
C2459 C2464 1.363 . S
C2460 H2437 0.950 . S
C2460 C2459 1.397 1_655 S
C2460 C2461 1.334 . S
C2461 H2438 0.950 . S
C2461 C2460 1.334 . S
C2461 C2462 1.287 . S
C2462 C2461 1.287 . S
C2462 C2463 1.524 . S
C2462 H2481 0.913 . S
C2463 H2439 0.950 . S
C2463 C2462 1.524 . S
C2463 C2464 1.415 1_655 S
C2464 H2440 0.950 . S
C2464 C2459 1.363 . S
C2464 C2463 1.415 1_455 S
C2465 H2441 0.951 . S
C2465 C2466 1.366 . S
C2465 C2467 1.388 . S
C2466 C2465 1.366 . S
C2466 C2470 1.385 . S
C2467 H2442 0.951 . S
C2467 C2465 1.388 . S
C2467 C2468 1.366 . S
C2468 C2467 1.366 . S
C2468 C2469 1.414 . S
C2468 C2471 1.499 . S
C2469 H2443 0.950 . S
C2469 C2468 1.414 . S
C2469 C2470 1.374 . S
C2470 H2444 0.950 . S
C2470 C2466 1.385 . S
C2470 C2469 1.374 . S
C2471 C2468 1.499 . S
C2471 C2472 1.373 . S
C2471 C2473 1.389 . S
C2472 H2445 0.950 . S
C2472 C2458 1.377 . S
C2472 C2471 1.373 . S
C2473 C2457 1.377 . S
C2473 C2471 1.389 . S
C2473 C2474 1.524 . S
C2474 C2473 1.524 . S
C2474 C2475 1.397 . S
C2474 C2479 1.363 . S
C2475 H2446 0.950 . S
C2475 C2474 1.397 . S
C2475 C2476 1.334 . S
C2476 H2447 0.950 . S
C2476 C2475 1.334 . S
C2476 C2477 1.287 . S
C2477 C2476 1.287 . S
C2477 C2478 1.524 . S
C2477 H2480 0.999 . S
C2478 H2448 0.950 . S
C2478 C2477 1.524 . S
C2478 C2479 1.415 . S
C2479 H2449 0.950 . S
C2479 C2474 1.363 . S
C2479 C2478 1.415 . S
H2480 C2477 0.999 . S
H2481 C2462 0.913 . S
H2482 C2500 0.951 . S
H2483 C2502 0.951 . S
H2484 C2504 0.950 . S
H2485 C2505 0.950 . S
H2486 C2507 0.950 . S
H2487 C2510 0.950 . S
H2488 C2511 0.950 . S
H2489 C2513 0.950 . S
H2490 C2514 0.950 . S
H2491 C2515 0.951 . S
H2492 C2517 0.951 . S
H2493 C2519 0.950 . S
H2494 C2520 0.950 . S
H2495 C2522 0.950 . S
H2496 C2525 0.950 . S
H2497 C2526 0.950 . S
H2498 C2528 0.950 . S
H2499 C2529 0.950 . S
C2500 H2482 0.951 . S
C2500 C2501 1.366 . S
C2500 C2502 1.388 . S
C2501 C2500 1.366 . S
C2501 C2505 1.385 . S
C2502 H2483 0.951 . S
C2502 C2500 1.388 . S
C2502 C2503 1.366 . S
C2503 C2502 1.366 . S
C2503 C2504 1.414 . S
C2503 C2506 1.499 . S
C2504 H2484 0.950 . S
C2504 C2503 1.414 . S
C2504 C2505 1.374 . S
C2505 H2485 0.950 . S
C2505 C2501 1.385 . S
C2505 C2504 1.374 . S
C2506 C2503 1.499 . S
C2506 C2507 1.373 . S
C2506 C2508 1.389 . S
C2507 H2486 0.950 . S
C2507 C2506 1.373 . S
C2507 C2523 1.377 . S
C2508 C2506 1.389 . S
C2508 C2509 1.524 . S
C2508 C2522 1.377 . S
C2509 C2508 1.524 . S
C2509 C2510 1.397 . S
C2509 C2514 1.363 . S
C2510 H2487 0.950 . S
C2510 C2509 1.397 . S
C2510 C2511 1.334 . S
C2511 H2488 0.950 . S
C2511 C2510 1.334 . S
C2511 C2512 1.287 . S
C2512 C2511 1.287 . S
C2512 C2513 1.524 . S
C2512 H2531 0.913 . S
C2513 H2489 0.950 . S
C2513 C2512 1.524 . S
C2513 C2514 1.415 . S
C2514 H2490 0.950 . S
C2514 C2509 1.363 . S
C2514 C2513 1.415 . S
C2515 H2491 0.951 . S
C2515 C2516 1.366 . S
C2515 C2517 1.388 . S
C2516 C2515 1.366 . S
C2516 C2520 1.385 . S
C2517 H2492 0.951 . S
C2517 C2515 1.388 . S
C2517 C2518 1.366 . S
C2518 C2517 1.366 . S
C2518 C2519 1.414 . S
C2518 C2521 1.499 . S
C2519 H2493 0.950 . S
C2519 C2518 1.414 . S
C2519 C2520 1.374 . S
C2520 H2494 0.950 . S
C2520 C2516 1.385 . S
C2520 C2519 1.374 . S
C2521 C2518 1.499 . S
C2521 C2522 1.373 . S
C2521 C2523 1.389 . S
C2522 H2495 0.950 . S
C2522 C2508 1.377 . S
C2522 C2521 1.373 . S
C2523 C2507 1.377 . S
C2523 C2521 1.389 . S
C2523 C2524 1.524 . S
C2524 C2523 1.524 . S
C2524 C2525 1.397 . S
C2524 C2529 1.363 . S
C2525 H2496 0.950 . S
C2525 C2524 1.397 . S
C2525 C2526 1.334 . S
C2526 H2497 0.950 . S
C2526 C2525 1.334 . S
C2526 C2527 1.287 . S
C2527 C2526 1.287 . S
C2527 C2528 1.524 . S
C2527 H2530 0.999 . S
C2528 H2498 0.950 . S
C2528 C2527 1.524 . S
C2528 C2529 1.415 . S
C2529 H2499 0.950 . S
C2529 C2524 1.363 . S
C2529 C2528 1.415 . S
H2530 C2527 0.999 . S
H2531 C2512 0.913 . S
H2532 C2550 0.951 . S
H2533 C2552 0.951 . S
H2534 C2554 0.950 . S
H2535 C2555 0.950 . S
H2536 C2557 0.950 . S
H2537 C2560 0.950 . S
H2538 C2561 0.950 . S
H2539 C2563 0.950 . S
H2540 C2564 0.950 . S
H2541 C2565 0.951 . S
H2542 C2567 0.951 . S
H2543 C2569 0.950 . S
H2544 C2570 0.950 . S
H2545 C2572 0.950 . S
H2546 C2575 0.950 . S
H2547 C2576 0.950 . S
H2548 C2578 0.950 . S
H2549 C2579 0.950 . S
C2550 H2532 0.951 . S
C2550 C2551 1.366 . S
C2550 C2552 1.388 . S
C2551 C2550 1.366 . S
C2551 C2555 1.385 . S
C2552 H2533 0.951 . S
C2552 C2550 1.388 . S
C2552 C2553 1.366 . S
C2553 C2552 1.366 . S
C2553 C2554 1.414 . S
C2553 C2556 1.499 . S
C2554 H2534 0.950 . S
C2554 C2553 1.414 . S
C2554 C2555 1.374 . S
C2555 H2535 0.950 . S
C2555 C2551 1.385 . S
C2555 C2554 1.374 . S
C2556 C2553 1.499 . S
C2556 C2557 1.373 . S
C2556 C2558 1.389 . S
C2557 H2536 0.950 . S
C2557 C2556 1.373 . S
C2557 C2573 1.377 . S
C2558 C2556 1.389 . S
C2558 C2559 1.524 . S
C2558 C2572 1.377 . S
C2559 C2558 1.524 . S
C2559 C2560 1.397 . S
C2559 C2564 1.363 . S
C2560 H2537 0.950 . S
C2560 C2559 1.397 . S
C2560 C2561 1.334 . S
C2561 H2538 0.950 . S
C2561 C2560 1.334 . S
C2561 C2562 1.287 . S
C2562 C2561 1.287 . S
C2562 C2563 1.524 . S
C2562 H2581 0.913 . S
C2563 H2539 0.950 . S
C2563 C2562 1.524 . S
C2563 C2564 1.415 . S
C2564 H2540 0.950 . S
C2564 C2559 1.363 . S
C2564 C2563 1.415 . S
C2565 H2541 0.951 . S
C2565 C2566 1.366 . S
C2565 C2567 1.388 . S
C2566 C2565 1.366 . S
C2566 C2570 1.385 . S
C2567 H2542 0.951 . S
C2567 C2565 1.388 . S
C2567 C2568 1.366 . S
C2568 C2567 1.366 . S
C2568 C2569 1.414 . S
C2568 C2571 1.499 . S
C2569 H2543 0.950 . S
C2569 C2568 1.414 . S
C2569 C2570 1.374 . S
C2570 H2544 0.950 . S
C2570 C2566 1.385 . S
C2570 C2569 1.374 . S
C2571 C2568 1.499 . S
C2571 C2572 1.373 . S
C2571 C2573 1.389 . S
C2572 H2545 0.950 . S
C2572 C2558 1.377 . S
C2572 C2571 1.373 . S
C2573 C2557 1.377 . S
C2573 C2571 1.389 . S
C2573 C2574 1.524 . S
C2574 C2573 1.524 . S
C2574 C2575 1.397 . S
C2574 C2579 1.363 . S
C2575 H2546 0.950 . S
C2575 C2574 1.397 . S
C2575 C2576 1.334 . S
C2576 H2547 0.950 . S
C2576 C2575 1.334 . S
C2576 C2577 1.287 . S
C2577 C2576 1.287 . S
C2577 C2578 1.524 . S
C2577 H2580 0.999 . S
C2578 H2548 0.950 . S
C2578 C2577 1.524 . S
C2578 C2579 1.415 . S
C2579 H2549 0.950 . S
C2579 C2574 1.363 . S
C2579 C2578 1.415 . S
H2580 C2577 0.999 . S
H2581 C2562 0.913 . S
H2582 C2600 0.951 . S
H2583 C2602 0.951 . S
H2584 C2604 0.950 . S
H2585 C2605 0.950 . S
H2586 C2607 0.950 . S
H2587 C2610 0.950 . S
H2588 C2611 0.950 . S
H2589 C2613 0.950 . S
H2590 C2614 0.950 . S
H2591 C2615 0.951 . S
H2592 C2617 0.951 . S
H2593 C2619 0.950 . S
H2594 C2620 0.950 . S
H2595 C2622 0.950 . S
H2596 C2625 0.950 . S
H2597 C2626 0.950 . S
H2598 C2628 0.950 . S
H2599 C2629 0.950 . S
C2600 H2582 0.951 . S
C2600 C2601 1.366 . S
C2600 C2602 1.388 . S
C2601 C2600 1.366 . S
C2601 C2605 1.385 . S
C2602 H2583 0.951 . S
C2602 C2600 1.388 . S
C2602 C2603 1.366 . S
C2603 C2602 1.366 . S
C2603 C2604 1.414 . S
C2603 C2606 1.499 . S
C2604 H2584 0.950 . S
C2604 C2603 1.414 . S
C2604 C2605 1.374 . S
C2605 H2585 0.950 . S
C2605 C2601 1.385 . S
C2605 C2604 1.374 . S
C2606 C2603 1.499 . S
C2606 C2607 1.373 . S
C2606 C2608 1.389 . S
C2607 H2586 0.950 . S
C2607 C2606 1.373 . S
C2607 C2623 1.377 . S
C2608 C2606 1.389 . S
C2608 C2609 1.524 . S
C2608 C2622 1.377 . S
C2609 C2608 1.524 . S
C2609 C2610 1.397 . S
C2609 C2614 1.363 . S
C2610 H2587 0.950 . S
C2610 C2609 1.397 . S
C2610 C2611 1.334 . S
C2611 H2588 0.950 . S
C2611 C2610 1.334 . S
C2611 C2612 1.287 . S
C2612 C2611 1.287 . S
C2612 C2613 1.524 . S
C2612 H2631 0.913 . S
C2613 H2589 0.950 . S
C2613 C2612 1.524 . S
C2613 C2614 1.415 . S
C2614 H2590 0.950 . S
C2614 C2609 1.363 . S
C2614 C2613 1.415 . S
C2615 H2591 0.951 . S
C2615 C2616 1.366 . S
C2615 C2617 1.388 . S
C2616 C2615 1.366 . S
C2616 C2620 1.385 . S
C2617 H2592 0.951 . S
C2617 C2615 1.388 . S
C2617 C2618 1.366 . S
C2618 C2617 1.366 . S
C2618 C2619 1.414 . S
C2618 C2621 1.499 . S
C2619 H2593 0.950 . S
C2619 C2618 1.414 . S
C2619 C2620 1.374 . S
C2620 H2594 0.950 . S
C2620 C2616 1.385 . S
C2620 C2619 1.374 . S
C2621 C2618 1.499 . S
C2621 C2622 1.373 . S
C2621 C2623 1.389 . S
C2622 H2595 0.950 . S
C2622 C2608 1.377 . S
C2622 C2621 1.373 . S
C2623 C2607 1.377 . S
C2623 C2621 1.389 . S
C2623 C2624 1.524 . S
C2624 C2623 1.524 . S
C2624 C2625 1.397 . S
C2624 C2629 1.363 . S
C2625 H2596 0.950 . S
C2625 C2624 1.397 . S
C2625 C2626 1.334 . S
C2626 H2597 0.950 . S
C2626 C2625 1.334 . S
C2626 C2627 1.287 . S
C2627 C2626 1.287 . S
C2627 C2628 1.524 . S
C2627 H2630 0.999 . S
C2628 H2598 0.950 . S
C2628 C2627 1.524 . S
C2628 C2629 1.415 . S
C2629 H2599 0.950 . S
C2629 C2624 1.363 . S
C2629 C2628 1.415 . S
H2630 C2627 0.999 . S
H2631 C2612 0.913 . S
H2632 C2650 0.951 . S
H2633 C2652 0.951 . S
H2634 C2654 0.950 . S
H2635 C2655 0.950 . S
H2636 C2657 0.950 . S
H2637 C2660 0.950 . S
H2638 C2661 0.950 . S
H2639 C2663 0.950 . S
H2640 C2664 0.950 . S
H2641 C2665 0.951 . S
H2642 C2667 0.951 . S
H2643 C2669 0.950 . S
H2644 C2670 0.950 . S
H2645 C2672 0.950 . S
H2646 C2675 0.950 . S
H2647 C2676 0.950 . S
H2648 C2678 0.950 . S
H2649 C2679 0.950 . S
C2650 H2632 0.951 . S
C2650 C2651 1.366 . S
C2650 C2652 1.388 . S
C2651 C2650 1.366 . S
C2651 C2655 1.385 . S
C2652 H2633 0.951 . S
C2652 C2650 1.388 . S
C2652 C2653 1.366 . S
C2653 C2652 1.366 . S
C2653 C2654 1.414 . S
C2653 C2656 1.499 . S
C2654 H2634 0.950 . S
C2654 C2653 1.414 . S
C2654 C2655 1.374 . S
C2655 H2635 0.950 . S
C2655 C2651 1.385 . S
C2655 C2654 1.374 . S
C2656 C2653 1.499 . S
C2656 C2657 1.373 . S
C2656 C2658 1.389 . S
C2657 H2636 0.950 . S
C2657 C2656 1.373 . S
C2657 C2673 1.377 . S
C2658 C2656 1.389 . S
C2658 C2659 1.524 . S
C2658 C2672 1.377 . S
C2659 C2658 1.524 . S
C2659 C2660 1.397 . S
C2659 C2664 1.363 . S
C2660 H2637 0.950 . S
C2660 C2659 1.397 . S
C2660 C2661 1.334 . S
C2661 H2638 0.950 . S
C2661 C2660 1.334 . S
C2661 C2662 1.287 . S
C2662 C2661 1.287 . S
C2662 C2663 1.524 . S
C2662 H2681 0.913 . S
C2663 H2639 0.950 . S
C2663 C2662 1.524 . S
C2663 C2664 1.415 . S
C2664 H2640 0.950 . S
C2664 C2659 1.363 . S
C2664 C2663 1.415 . S
C2665 H2641 0.951 . S
C2665 C2666 1.366 . S
C2665 C2667 1.388 . S
C2666 C2665 1.366 . S
C2666 C2670 1.385 . S
C2667 H2642 0.951 . S
C2667 C2665 1.388 . S
C2667 C2668 1.366 . S
C2668 C2667 1.366 . S
C2668 C2669 1.414 . S
C2668 C2671 1.499 . S
C2669 H2643 0.950 . S
C2669 C2668 1.414 . S
C2669 C2670 1.374 . S
C2670 H2644 0.950 . S
C2670 C2666 1.385 . S
C2670 C2669 1.374 . S
C2671 C2668 1.499 . S
C2671 C2672 1.373 . S
C2671 C2673 1.389 . S
C2672 H2645 0.950 . S
C2672 C2658 1.377 . S
C2672 C2671 1.373 . S
C2673 C2657 1.377 . S
C2673 C2671 1.389 . S
C2673 C2674 1.524 . S
C2674 C2673 1.524 . S
C2674 C2675 1.397 . S
C2674 C2679 1.363 . S
C2675 H2646 0.950 . S
C2675 C2674 1.397 . S
C2675 C2676 1.334 . S
C2676 H2647 0.950 . S
C2676 C2675 1.334 . S
C2676 C2677 1.287 . S
C2677 C2676 1.287 . S
C2677 C2678 1.524 . S
C2677 H2680 0.999 . S
C2678 H2648 0.950 . S
C2678 C2677 1.524 . S
C2678 C2679 1.415 . S
C2679 H2649 0.950 . S
C2679 C2674 1.363 . S
C2679 C2678 1.415 . S
H2680 C2677 0.999 . S
H2681 C2662 0.913 . S
H2682 C2700 0.951 . S
H2683 C2702 0.951 . S
H2684 C2704 0.950 . S
H2685 C2705 0.950 . S
H2686 C2707 0.950 . S
H2687 C2710 0.950 . S
H2688 C2711 0.950 . S
H2689 C2713 0.950 . S
H2690 C2714 0.950 . S
H2691 C2715 0.951 . S
H2692 C2717 0.951 . S
H2693 C2719 0.950 . S
H2694 C2720 0.950 . S
H2695 C2722 0.950 . S
H2696 C2725 0.950 . S
H2697 C2726 0.950 . S
H2698 C2728 0.950 . S
H2699 C2729 0.950 . S
C2700 H2682 0.951 . S
C2700 C2701 1.366 . S
C2700 C2702 1.388 . S
C2701 C2700 1.366 . S
C2701 C2705 1.385 . S
C2702 H2683 0.951 . S
C2702 C2700 1.388 . S
C2702 C2703 1.366 . S
C2703 C2702 1.366 . S
C2703 C2704 1.414 . S
C2703 C2706 1.499 1_565 S
C2704 H2684 0.950 . S
C2704 C2703 1.414 . S
C2704 C2705 1.374 . S
C2705 H2685 0.950 . S
C2705 C2701 1.385 . S
C2705 C2704 1.374 . S
C2706 C2703 1.499 1_545 S
C2706 C2707 1.373 . S
C2706 C2708 1.389 . S
C2707 H2686 0.950 . S
C2707 C2706 1.373 . S
C2707 C2723 1.377 . S
C2708 C2706 1.389 . S
C2708 C2709 1.524 . S
C2708 C2722 1.377 . S
C2709 C2708 1.524 . S
C2709 C2710 1.397 1_545 S
C2709 C2714 1.363 . S
C2710 H2687 0.950 . S
C2710 C2709 1.397 1_565 S
C2710 C2711 1.334 . S
C2711 H2688 0.950 . S
C2711 C2710 1.334 . S
C2711 C2712 1.287 . S
C2712 C2711 1.287 . S
C2712 C2713 1.524 . S
C2712 H2731 0.913 . S
C2713 H2689 0.950 . S
C2713 C2712 1.524 . S
C2713 C2714 1.415 1_565 S
C2714 H2690 0.950 . S
C2714 C2709 1.363 . S
C2714 C2713 1.415 1_545 S
C2715 H2691 0.951 . S
C2715 C2716 1.366 . S
C2715 C2717 1.388 . S
C2716 C2715 1.366 . S
C2716 C2720 1.385 . S
C2717 H2692 0.951 . S
C2717 C2715 1.388 . S
C2717 C2718 1.366 . S
C2718 C2717 1.366 . S
C2718 C2719 1.414 . S
C2718 C2721 1.499 . S
C2719 H2693 0.950 . S
C2719 C2718 1.414 . S
C2719 C2720 1.374 . S
C2720 H2694 0.950 . S
C2720 C2716 1.385 . S
C2720 C2719 1.374 . S
C2721 C2718 1.499 . S
C2721 C2722 1.373 . S
C2721 C2723 1.389 . S
C2722 H2695 0.950 . S
C2722 C2708 1.377 . S
C2722 C2721 1.373 . S
C2723 C2707 1.377 . S
C2723 C2721 1.389 . S
C2723 C2724 1.524 . S
C2724 C2723 1.524 . S
C2724 C2725 1.397 . S
C2724 C2729 1.363 . S
C2725 H2696 0.950 . S
C2725 C2724 1.397 . S
C2725 C2726 1.334 . S
C2726 H2697 0.950 . S
C2726 C2725 1.334 . S
C2726 C2727 1.287 . S
C2727 C2726 1.287 . S
C2727 C2728 1.524 . S
C2727 H2730 0.999 . S
C2728 H2698 0.950 . S
C2728 C2727 1.524 . S
C2728 C2729 1.415 . S
C2729 H2699 0.950 . S
C2729 C2724 1.363 . S
C2729 C2728 1.415 . S
H2730 C2727 0.999 . S
H2731 C2712 0.913 . S
H2732 C2750 0.951 . S
H2733 C2752 0.951 . S
H2734 C2754 0.950 1_655 S
H2735 C2755 0.950 . S
H2736 C2757 0.950 . S
H2737 C2760 0.950 . S
H2738 C2761 0.950 1_455 S
H2739 C2763 0.943 1_455 S
H2740 C2764 0.950 . S
H2741 C2765 0.951 . S
H2742 C2767 0.951 . S
H2743 C2769 0.950 . S
H2744 C2770 0.950 . S
H2745 C2772 0.950 . S
H2746 C2775 0.950 . S
H2747 C2776 0.950 . S
H2748 C2778 0.950 . S
H2749 C2779 0.950 . S
C2750 H2732 0.951 . S
C2750 C2751 1.366 . S
C2750 C2752 1.388 . S
C2751 C2750 1.366 . S
C2751 C2755 1.385 . S
C2752 H2733 0.951 . S
C2752 C2750 1.388 . S
C2752 C2753 1.366 . S
C2753 C2752 1.366 . S
C2753 C2754 1.414 . S
C2753 C2756 1.499 1_455 S
C2754 H2734 0.950 1_455 S
C2754 C2753 1.414 . S
C2754 C2755 1.374 . S
C2755 H2735 0.950 . S
C2755 C2751 1.385 . S
C2755 C2754 1.374 . S
C2756 C2753 1.499 1_655 S
C2756 C2757 1.373 . S
C2756 C2758 1.389 . S
C2757 H2736 0.950 . S
C2757 C2756 1.373 . S
C2757 C2773 1.377 . S
C2758 C2756 1.389 . S
C2758 C2759 1.524 . S
C2758 C2772 1.377 . S
C2759 C2758 1.524 . S
C2759 C2760 1.397 . S
C2759 C2764 1.363 . S
C2760 H2737 0.950 . S
C2760 C2759 1.397 . S
C2760 C2761 1.334 . S
C2761 H2738 0.950 1_655 S
C2761 C2760 1.334 . S
C2761 C2762 1.287 1_655 S
C2762 C2761 1.287 1_455 S
C2762 C2763 1.509 1_455 S
C2762 H2781 0.913 . S
C2763 H2739 0.943 1_655 S
C2763 C2762 1.509 1_655 S
C2763 C2764 1.438 . S
C2764 H2740 0.950 . S
C2764 C2759 1.363 . S
C2764 C2763 1.438 . S
C2765 H2741 0.951 . S
C2765 C2766 1.366 . S
C2765 C2767 1.388 . S
C2766 C2765 1.366 . S
C2766 C2770 1.385 . S
C2767 H2742 0.951 . S
C2767 C2765 1.388 . S
C2767 C2768 1.366 . S
C2768 C2767 1.366 . S
C2768 C2769 1.414 . S
C2768 C2771 1.499 . S
C2769 H2743 0.950 . S
C2769 C2768 1.414 . S
C2769 C2770 1.374 . S
C2770 H2744 0.950 . S
C2770 C2766 1.385 . S
C2770 C2769 1.374 . S
C2771 C2768 1.499 . S
C2771 C2772 1.373 . S
C2771 C2773 1.389 . S
C2772 H2745 0.950 . S
C2772 C2758 1.377 . S
C2772 C2771 1.373 . S
C2773 C2757 1.377 . S
C2773 C2771 1.389 . S
C2773 C2774 1.524 . S
C2774 C2773 1.524 . S
C2774 C2775 1.397 . S
C2774 C2779 1.363 . S
C2775 H2746 0.950 . S
C2775 C2774 1.397 . S
C2775 C2776 1.334 . S
C2776 H2747 0.950 . S
C2776 C2775 1.334 . S
C2776 C2777 1.287 . S
C2777 C2776 1.287 . S
C2777 C2778 1.524 . S
C2777 H2780 0.999 . S
C2778 H2748 0.950 . S
C2778 C2777 1.524 . S
C2778 C2779 1.415 . S
C2779 H2749 0.950 . S
C2779 C2774 1.363 . S
C2779 C2778 1.415 . S
H2780 C2777 0.999 . S
H2781 C2762 0.913 . S
H2782 C2800 0.951 . S
H2783 C2802 0.951 . S
H2784 C2804 0.950 . S
H2785 C2805 0.950 . S
H2786 C2807 0.950 . S
H2787 C2810 0.950 . S
H2788 C2811 0.950 . S
H2789 C2813 0.950 . S
H2790 C2814 0.950 . S
H2791 C2815 0.951 . S
H2792 C2817 0.951 . S
H2793 C2819 0.950 . S
H2794 C2820 0.950 . S
H2795 C2822 0.950 . S
H2796 C2825 0.950 . S
H2797 C2826 0.950 . S
H2798 C2828 0.950 . S
H2799 C2829 0.950 . S
C2800 H2782 0.951 . S
C2800 C2801 1.366 . S
C2800 C2802 1.388 . S
C2801 C2800 1.366 . S
C2801 C2805 1.385 . S
C2802 H2783 0.951 . S
C2802 C2800 1.388 . S
C2802 C2803 1.366 . S
C2803 C2802 1.366 . S
C2803 C2804 1.414 . S
C2803 C2806 1.499 . S
C2804 H2784 0.950 . S
C2804 C2803 1.414 . S
C2804 C2805 1.374 . S
C2805 H2785 0.950 . S
C2805 C2801 1.385 . S
C2805 C2804 1.374 . S
C2806 C2803 1.499 . S
C2806 C2807 1.373 . S
C2806 C2808 1.389 . S
C2807 H2786 0.950 . S
C2807 C2806 1.373 . S
C2807 C2823 1.377 . S
C2808 C2806 1.389 . S
C2808 C2809 1.524 . S
C2808 C2822 1.377 . S
C2809 C2808 1.524 . S
C2809 C2810 1.397 . S
C2809 C2814 1.363 . S
C2810 H2787 0.950 . S
C2810 C2809 1.397 . S
C2810 C2811 1.334 . S
C2811 H2788 0.950 . S
C2811 C2810 1.334 . S
C2811 C2812 1.287 . S
C2812 C2811 1.287 . S
C2812 C2813 1.524 . S
C2812 H2831 0.913 . S
C2813 H2789 0.950 . S
C2813 C2812 1.524 . S
C2813 C2814 1.415 . S
C2814 H2790 0.950 . S
C2814 C2809 1.363 . S
C2814 C2813 1.415 . S
C2815 H2791 0.951 . S
C2815 C2816 1.366 . S
C2815 C2817 1.388 . S
C2816 C2815 1.366 . S
C2816 C2820 1.385 . S
C2817 H2792 0.951 . S
C2817 C2815 1.388 . S
C2817 C2818 1.366 . S
C2818 C2817 1.366 . S
C2818 C2819 1.414 . S
C2818 C2821 1.499 . S
C2819 H2793 0.950 . S
C2819 C2818 1.414 . S
C2819 C2820 1.374 . S
C2820 H2794 0.950 . S
C2820 C2816 1.385 . S
C2820 C2819 1.374 . S
C2821 C2818 1.499 . S
C2821 C2822 1.373 . S
C2821 C2823 1.389 . S
C2822 H2795 0.950 . S
C2822 C2808 1.377 . S
C2822 C2821 1.373 . S
C2823 C2807 1.377 . S
C2823 C2821 1.389 . S
C2823 C2824 1.524 . S
C2824 C2823 1.524 . S
C2824 C2825 1.397 . S
C2824 C2829 1.363 . S
C2825 H2796 0.950 . S
C2825 C2824 1.397 . S
C2825 C2826 1.334 . S
C2826 H2797 0.950 . S
C2826 C2825 1.334 . S
C2826 C2827 1.287 . S
C2827 C2826 1.287 . S
C2827 C2828 1.524 . S
C2827 H2830 0.999 . S
C2828 H2798 0.950 . S
C2828 C2827 1.524 . S
C2828 C2829 1.415 . S
C2829 H2799 0.950 . S
C2829 C2824 1.363 . S
C2829 C2828 1.415 . S
H2830 C2827 0.999 . S
H2831 C2812 0.913 . S
H2832 C2850 0.951 . S
H2833 C2852 0.951 . S
H2834 C2854 0.950 . S
H2835 C2855 0.950 . S
H2836 C2857 0.950 . S
H2837 C2860 0.950 . S
H2838 C2861 0.950 . S
H2839 C2863 0.950 . S
H2840 C2864 0.950 . S
H2841 C2865 0.951 . S
H2842 C2867 0.951 . S
H2843 C2869 0.950 . S
H2844 C2870 0.950 . S
H2845 C2872 0.950 . S
H2846 C2875 0.950 . S
H2847 C2876 0.950 . S
H2848 C2878 0.950 . S
H2849 C2879 0.950 . S
C2850 H2832 0.951 . S
C2850 C2851 1.366 . S
C2850 C2852 1.388 . S
C2851 C2850 1.366 . S
C2851 C2855 1.385 . S
C2852 H2833 0.951 . S
C2852 C2850 1.388 . S
C2852 C2853 1.366 . S
C2853 C2852 1.366 . S
C2853 C2854 1.414 . S
C2853 C2856 1.499 1_455 S
C2854 H2834 0.950 . S
C2854 C2853 1.414 . S
C2854 C2855 1.374 . S
C2855 H2835 0.950 . S
C2855 C2851 1.385 . S
C2855 C2854 1.374 . S
C2856 C2853 1.499 1_655 S
C2856 C2857 1.373 . S
C2856 C2858 1.389 . S
C2857 H2836 0.950 . S
C2857 C2856 1.373 . S
C2857 C2873 1.377 . S
C2858 C2856 1.389 . S
C2858 C2859 1.524 . S
C2858 C2872 1.377 . S
C2859 C2858 1.524 . S
C2859 C2860 1.397 . S
C2859 C2864 1.363 . S
C2860 H2837 0.950 . S
C2860 C2859 1.397 . S
C2860 C2861 1.334 . S
C2861 H2838 0.950 . S
C2861 C2860 1.334 . S
C2861 C2862 1.287 . S
C2862 C2861 1.287 . S
C2862 C2863 1.524 . S
C2862 H2881 0.913 . S
C2863 H2839 0.950 . S
C2863 C2862 1.524 . S
C2863 C2864 1.415 . S
C2864 H2840 0.950 . S
C2864 C2859 1.363 . S
C2864 C2863 1.415 . S
C2865 H2841 0.951 . S
C2865 C2866 1.366 . S
C2865 C2867 1.388 . S
C2866 C2865 1.366 . S
C2866 C2870 1.385 . S
C2867 H2842 0.951 . S
C2867 C2865 1.388 . S
C2867 C2868 1.366 . S
C2868 C2867 1.366 . S
C2868 C2869 1.414 . S
C2868 C2871 1.499 . S
C2869 H2843 0.950 . S
C2869 C2868 1.414 . S
C2869 C2870 1.374 . S
C2870 H2844 0.950 . S
C2870 C2866 1.385 . S
C2870 C2869 1.374 . S
C2871 C2868 1.499 . S
C2871 C2872 1.373 . S
C2871 C2873 1.389 . S
C2872 H2845 0.950 . S
C2872 C2858 1.377 . S
C2872 C2871 1.373 . S
C2873 C2857 1.377 . S
C2873 C2871 1.389 . S
C2873 C2874 1.524 . S
C2874 C2873 1.524 . S
C2874 C2875 1.397 . S
C2874 C2879 1.363 . S
C2875 H2846 0.950 . S
C2875 C2874 1.397 . S
C2875 C2876 1.334 . S
C2876 H2847 0.950 . S
C2876 C2875 1.334 . S
C2876 C2877 1.287 . S
C2877 C2876 1.287 . S
C2877 C2878 1.524 . S
C2877 H2880 0.999 . S
C2878 H2848 0.950 . S
C2878 C2877 1.524 . S
C2878 C2879 1.415 . S
C2879 H2849 0.950 . S
C2879 C2874 1.363 . S
C2879 C2878 1.415 . S
H2880 C2877 0.999 . S
H2881 C2862 0.913 . S
H2882 C2900 0.951 . S
H2883 C2902 0.951 . S
H2884 C2904 0.950 . S
H2885 C2905 0.950 . S
H2886 C2907 0.950 . S
H2887 C2910 0.950 . S
H2888 C2911 0.950 . S
H2889 C2913 0.950 . S
H2890 C2914 0.950 . S
H2891 C2915 0.951 . S
H2892 C2917 0.951 . S
H2893 C2919 0.950 . S
H2894 C2920 0.950 . S
H2895 C2922 0.950 . S
H2896 C2925 0.950 . S
H2897 C2926 0.950 . S
H2898 C2928 0.950 . S
H2899 C2929 0.950 . S
C2900 H2882 0.951 . S
C2900 C2901 1.366 . S
C2900 C2902 1.388 . S
C2901 C2900 1.366 . S
C2901 C2905 1.385 . S
C2902 H2883 0.951 . S
C2902 C2900 1.388 . S
C2902 C2903 1.366 . S
C2903 C2902 1.366 . S
C2903 C2904 1.414 . S
C2903 C2906 1.499 . S
C2904 H2884 0.950 . S
C2904 C2903 1.414 . S
C2904 C2905 1.374 . S
C2905 H2885 0.950 . S
C2905 C2901 1.385 . S
C2905 C2904 1.374 . S
C2906 C2903 1.499 . S
C2906 C2907 1.373 . S
C2906 C2908 1.389 . S
C2907 H2886 0.950 . S
C2907 C2906 1.373 . S
C2907 C2923 1.377 . S
C2908 C2906 1.389 . S
C2908 C2909 1.524 . S
C2908 C2922 1.377 . S
C2909 C2908 1.524 . S
C2909 C2910 1.397 . S
C2909 C2914 1.363 . S
C2910 H2887 0.950 . S
C2910 C2909 1.397 . S
C2910 C2911 1.334 . S
C2911 H2888 0.950 . S
C2911 C2910 1.334 . S
C2911 C2912 1.287 . S
C2912 C2911 1.287 . S
C2912 C2913 1.524 . S
C2912 H2931 0.913 . S
C2913 H2889 0.950 . S
C2913 C2912 1.524 . S
C2913 C2914 1.415 . S
C2914 H2890 0.950 . S
C2914 C2909 1.363 . S
C2914 C2913 1.415 . S
C2915 H2891 0.951 . S
C2915 C2916 1.366 . S
C2915 C2917 1.388 . S
C2916 C2915 1.366 . S
C2916 C2920 1.385 . S
C2917 H2892 0.951 . S
C2917 C2915 1.388 . S
C2917 C2918 1.366 . S
C2918 C2917 1.366 . S
C2918 C2919 1.414 . S
C2918 C2921 1.499 . S
C2919 H2893 0.950 . S
C2919 C2918 1.414 . S
C2919 C2920 1.374 . S
C2920 H2894 0.950 . S
C2920 C2916 1.385 . S
C2920 C2919 1.374 . S
C2921 C2918 1.499 . S
C2921 C2922 1.373 . S
C2921 C2923 1.389 . S
C2922 H2895 0.950 . S
C2922 C2908 1.377 . S
C2922 C2921 1.373 . S
C2923 C2907 1.377 . S
C2923 C2921 1.389 . S
C2923 C2924 1.524 . S
C2924 C2923 1.524 . S
C2924 C2925 1.397 . S
C2924 C2929 1.363 . S
C2925 H2896 0.950 . S
C2925 C2924 1.397 . S
C2925 C2926 1.334 . S
C2926 H2897 0.950 . S
C2926 C2925 1.334 . S
C2926 C2927 1.287 . S
C2927 C2926 1.287 . S
C2927 C2928 1.524 . S
C2927 H2930 0.999 . S
C2928 H2898 0.950 . S
C2928 C2927 1.524 . S
C2928 C2929 1.415 . S
C2929 H2899 0.950 . S
C2929 C2924 1.363 . S
C2929 C2928 1.415 . S
H2930 C2927 0.999 . S
H2931 C2912 0.913 . S
H2932 C2950 0.951 . S
H2933 C2952 0.951 . S
H2934 C2954 0.933 1_545 S
H2935 C2955 0.950 . S
H2936 C2957 0.950 . S
H2937 C2960 0.950 . S
H2938 C2961 0.950 . S
H2939 C2963 0.958 1_565 S
H2940 C2964 0.950 . S
H2941 C2965 0.951 . S
H2942 C2967 0.951 . S
H2943 C2969 0.950 . S
H2944 C2970 0.950 . S
H2945 C2972 0.950 . S
H2946 C2975 0.950 . S
H2947 C2976 0.950 . S
H2948 C2978 0.950 . S
H2949 C2979 0.950 . S
C2950 H2932 0.951 . S
C2950 C2951 1.366 . S
C2950 C2952 1.388 . S
C2951 C2950 1.366 . S
C2951 C2955 1.385 . S
C2952 H2933 0.951 . S
C2952 C2950 1.388 . S
C2952 C2953 1.366 . S
C2953 C2952 1.366 . S
C2953 C2954 1.414 . S
C2953 C2956 1.499 1_565 S
C2954 H2934 0.933 1_565 S
C2954 C2953 1.414 . S
C2954 C2955 1.374 . S
C2955 H2935 0.950 . S
C2955 C2951 1.385 . S
C2955 C2954 1.374 . S
C2956 C2953 1.499 1_545 S
C2956 C2957 1.373 . S
C2956 C2958 1.389 . S
C2957 H2936 0.950 . S
C2957 C2956 1.373 . S
C2957 C2973 1.377 . S
C2958 C2956 1.389 . S
C2958 C2959 1.524 . S
C2958 C2972 1.377 . S
C2959 C2958 1.524 . S
C2959 C2960 1.397 . S
C2959 C2964 1.363 . S
C2960 H2937 0.950 . S
C2960 C2959 1.397 . S
C2960 C2961 1.334 1_545 S
C2961 H2938 0.950 . S
C2961 C2960 1.334 1_565 S
C2961 C2962 1.287 . S
C2962 C2961 1.287 . S
C2962 C2963 1.516 1_565 S
C2962 H2981 0.913 . S
C2963 H2939 0.958 1_545 S
C2963 C2962 1.516 1_545 S
C2963 C2964 1.414 . S
C2964 H2940 0.950 . S
C2964 C2959 1.363 . S
C2964 C2963 1.414 . S
C2965 H2941 0.951 . S
C2965 C2966 1.366 . S
C2965 C2967 1.388 . S
C2966 C2965 1.366 . S
C2966 C2970 1.385 . S
C2967 H2942 0.951 . S
C2967 C2965 1.388 . S
C2967 C2968 1.366 . S
C2968 C2967 1.366 . S
C2968 C2969 1.414 . S
C2968 C2971 1.499 . S
C2969 H2943 0.950 . S
C2969 C2968 1.414 . S
C2969 C2970 1.374 . S
C2970 H2944 0.950 . S
C2970 C2966 1.385 . S
C2970 C2969 1.374 . S
C2971 C2968 1.499 . S
C2971 C2972 1.373 . S
C2971 C2973 1.389 . S
C2972 H2945 0.950 . S
C2972 C2958 1.377 . S
C2972 C2971 1.373 . S
C2973 C2957 1.377 . S
C2973 C2971 1.389 . S
C2973 C2974 1.524 . S
C2974 C2973 1.524 . S
C2974 C2975 1.397 . S
C2974 C2979 1.363 . S
C2975 H2946 0.950 . S
C2975 C2974 1.397 . S
C2975 C2976 1.334 . S
C2976 H2947 0.950 . S
C2976 C2975 1.334 . S
C2976 C2977 1.287 . S
C2977 C2976 1.287 . S
C2977 C2978 1.524 . S
C2977 H2980 0.999 . S
C2978 H2948 0.950 . S
C2978 C2977 1.524 . S
C2978 C2979 1.415 . S
C2979 H2949 0.950 . S
C2979 C2974 1.363 . S
C2979 C2978 1.415 . S
H2980 C2977 0.999 . S
H2981 C2962 0.913 . S
H2982 C3000 0.951 . S
H2983 C3002 0.951 . S
H2984 C3004 0.950 . S
H2985 C3005 0.950 . S
H2986 C3007 0.950 . S
H2987 C3010 0.950 . S
H2988 C3011 0.950 . S
H2989 C3013 0.950 . S
H2990 C3014 0.950 . S
H2991 C3015 0.951 . S
H2992 C3017 0.951 . S
H2993 C3019 0.950 . S
H2994 C3020 0.950 . S
H2995 C3022 0.950 . S
H2996 C3025 0.950 . S
H2997 C3026 0.950 . S
H2998 C3028 0.950 . S
H2999 C3029 0.950 . S
C3000 H2982 0.951 . S
C3000 C3001 1.366 . S
C3000 C3002 1.388 . S
C3001 C3000 1.366 . S
C3001 C3005 1.385 . S
C3002 H2983 0.951 . S
C3002 C3000 1.388 . S
C3002 C3003 1.366 . S
C3003 C3002 1.366 . S
C3003 C3004 1.414 . S
C3003 C3006 1.499 . S
C3004 H2984 0.950 . S
C3004 C3003 1.414 . S
C3004 C3005 1.374 . S
C3005 H2985 0.950 . S
C3005 C3001 1.385 . S
C3005 C3004 1.374 . S
C3006 C3003 1.499 . S
C3006 C3007 1.373 . S
C3006 C3008 1.389 . S
C3007 H2986 0.950 . S
C3007 C3006 1.373 . S
C3007 C3023 1.377 . S
C3008 C3006 1.389 . S
C3008 C3009 1.524 . S
C3008 C3022 1.377 . S
C3009 C3008 1.524 . S
C3009 C3010 1.397 . S
C3009 C3014 1.363 . S
C3010 H2987 0.950 . S
C3010 C3009 1.397 . S
C3010 C3011 1.334 . S
C3011 H2988 0.950 . S
C3011 C3010 1.334 . S
C3011 C3012 1.287 . S
C3012 C3011 1.287 . S
C3012 C3013 1.524 . S
C3012 H3031 0.913 . S
C3013 H2989 0.950 . S
C3013 C3012 1.524 . S
C3013 C3014 1.415 . S
C3014 H2990 0.950 . S
C3014 C3009 1.363 . S
C3014 C3013 1.415 . S
C3015 H2991 0.951 . S
C3015 C3016 1.366 . S
C3015 C3017 1.388 . S
C3016 C3015 1.366 . S
C3016 C3020 1.385 . S
C3017 H2992 0.951 . S
C3017 C3015 1.388 . S
C3017 C3018 1.366 . S
C3018 C3017 1.366 . S
C3018 C3019 1.414 . S
C3018 C3021 1.499 . S
C3019 H2993 0.950 . S
C3019 C3018 1.414 . S
C3019 C3020 1.374 . S
C3020 H2994 0.950 . S
C3020 C3016 1.385 . S
C3020 C3019 1.374 . S
C3021 C3018 1.499 . S
C3021 C3022 1.373 . S
C3021 C3023 1.389 . S
C3022 H2995 0.950 . S
C3022 C3008 1.377 . S
C3022 C3021 1.373 . S
C3023 C3007 1.377 . S
C3023 C3021 1.389 . S
C3023 C3024 1.524 . S
C3024 C3023 1.524 . S
C3024 C3025 1.397 . S
C3024 C3029 1.363 . S
C3025 H2996 0.950 . S
C3025 C3024 1.397 . S
C3025 C3026 1.334 . S
C3026 H2997 0.950 . S
C3026 C3025 1.334 . S
C3026 C3027 1.287 . S
C3027 C3026 1.287 . S
C3027 C3028 1.524 . S
C3027 H3030 0.999 . S
C3028 H2998 0.950 . S
C3028 C3027 1.524 . S
C3028 C3029 1.415 . S
C3029 H2999 0.950 . S
C3029 C3024 1.363 . S
C3029 C3028 1.415 . S
H3030 C3027 0.999 . S
H3031 C3012 0.913 . S
H3032 C3050 0.951 . S
H3033 C3052 0.951 . S
H3034 C3054 0.950 . S
H3035 C3055 0.950 . S
H3036 C3057 0.950 . S
H3037 C3060 0.950 . S
H3038 C3061 0.950 . S
H3039 C3063 0.950 . S
H3040 C3064 0.950 . S
H3041 C3065 0.951 . S
H3042 C3067 0.951 . S
H3043 C3069 0.950 . S
H3044 C3070 0.950 . S
H3045 C3072 0.950 . S
H3046 C3075 0.950 . S
H3047 C3076 0.950 . S
H3048 C3078 0.950 . S
H3049 C3079 0.950 . S
C3050 H3032 0.951 . S
C3050 C3051 1.366 . S
C3050 C3052 1.388 . S
C3051 C3050 1.366 . S
C3051 C3055 1.385 . S
C3052 H3033 0.951 . S
C3052 C3050 1.388 . S
C3052 C3053 1.366 . S
C3053 C3052 1.366 . S
C3053 C3054 1.414 . S
C3053 C3056 1.499 . S
C3054 H3034 0.950 . S
C3054 C3053 1.414 . S
C3054 C3055 1.374 . S
C3055 H3035 0.950 . S
C3055 C3051 1.385 . S
C3055 C3054 1.374 . S
C3056 C3053 1.499 . S
C3056 C3057 1.373 . S
C3056 C3058 1.389 . S
C3057 H3036 0.950 . S
C3057 C3056 1.373 . S
C3057 C3073 1.377 . S
C3058 C3056 1.389 . S
C3058 C3059 1.524 . S
C3058 C3072 1.377 . S
C3059 C3058 1.524 . S
C3059 C3060 1.397 . S
C3059 C3064 1.363 . S
C3060 H3037 0.950 . S
C3060 C3059 1.397 . S
C3060 C3061 1.334 . S
C3061 H3038 0.950 . S
C3061 C3060 1.334 . S
C3061 C3062 1.287 . S
C3062 C3061 1.287 . S
C3062 C3063 1.524 . S
C3062 H3081 0.913 . S
C3063 H3039 0.950 . S
C3063 C3062 1.524 . S
C3063 C3064 1.415 . S
C3064 H3040 0.950 . S
C3064 C3059 1.363 . S
C3064 C3063 1.415 . S
C3065 H3041 0.951 . S
C3065 C3066 1.366 . S
C3065 C3067 1.388 . S
C3066 C3065 1.366 . S
C3066 C3070 1.385 . S
C3067 H3042 0.951 . S
C3067 C3065 1.388 . S
C3067 C3068 1.366 . S
C3068 C3067 1.366 . S
C3068 C3069 1.414 . S
C3068 C3071 1.499 . S
C3069 H3043 0.950 . S
C3069 C3068 1.414 . S
C3069 C3070 1.374 . S
C3070 H3044 0.950 . S
C3070 C3066 1.385 . S
C3070 C3069 1.374 . S
C3071 C3068 1.499 . S
C3071 C3072 1.373 . S
C3071 C3073 1.389 . S
C3072 H3045 0.950 . S
C3072 C3058 1.377 . S
C3072 C3071 1.373 . S
C3073 C3057 1.377 . S
C3073 C3071 1.389 . S
C3073 C3074 1.524 . S
C3074 C3073 1.524 . S
C3074 C3075 1.397 . S
C3074 C3079 1.363 . S
C3075 H3046 0.950 . S
C3075 C3074 1.397 . S
C3075 C3076 1.334 . S
C3076 H3047 0.950 . S
C3076 C3075 1.334 . S
C3076 C3077 1.287 . S
C3077 C3076 1.287 . S
C3077 C3078 1.524 . S
C3077 H3080 0.999 . S
C3078 H3048 0.950 . S
C3078 C3077 1.524 . S
C3078 C3079 1.415 . S
C3079 H3049 0.950 . S
C3079 C3074 1.363 . S
C3079 C3078 1.415 . S
H3080 C3077 0.999 . S
H3081 C3062 0.913 . S
H3082 C3100 0.951 . S
H3083 C3102 0.951 . S
H3084 C3104 0.950 . S
H3085 C3105 0.950 . S
H3086 C3107 0.950 . S
H3087 C3110 0.950 . S
H3088 C3111 0.950 . S
H3089 C3113 0.950 . S
H3090 C3114 0.950 . S
H3091 C3115 0.951 . S
H3092 C3117 0.951 . S
H3093 C3119 0.950 . S
H3094 C3120 0.950 . S
H3095 C3122 0.950 . S
H3096 C3125 0.950 . S
H3097 C3126 0.950 . S
H3098 C3128 0.950 . S
H3099 C3129 0.950 . S
C3100 H3082 0.951 . S
C3100 C3101 1.366 . S
C3100 C3102 1.388 . S
C3101 C3100 1.366 . S
C3101 C3105 1.385 . S
C3102 H3083 0.951 . S
C3102 C3100 1.388 . S
C3102 C3103 1.366 . S
C3103 C3102 1.366 . S
C3103 C3104 1.414 . S
C3103 C3106 1.499 . S
C3104 H3084 0.950 . S
C3104 C3103 1.414 . S
C3104 C3105 1.374 . S
C3105 H3085 0.950 . S
C3105 C3101 1.385 . S
C3105 C3104 1.374 . S
C3106 C3103 1.499 . S
C3106 C3107 1.373 . S
C3106 C3108 1.389 . S
C3107 H3086 0.950 . S
C3107 C3106 1.373 . S
C3107 C3123 1.377 . S
C3108 C3106 1.389 . S
C3108 C3109 1.524 . S
C3108 C3122 1.377 . S
C3109 C3108 1.524 . S
C3109 C3110 1.397 . S
C3109 C3114 1.363 . S
C3110 H3087 0.950 . S
C3110 C3109 1.397 . S
C3110 C3111 1.334 . S
C3111 H3088 0.950 . S
C3111 C3110 1.334 . S
C3111 C3112 1.287 . S
C3112 C3111 1.287 . S
C3112 C3113 1.524 . S
C3112 H3131 0.913 . S
C3113 H3089 0.950 . S
C3113 C3112 1.524 . S
C3113 C3114 1.415 . S
C3114 H3090 0.950 . S
C3114 C3109 1.363 . S
C3114 C3113 1.415 . S
C3115 H3091 0.951 . S
C3115 C3116 1.366 . S
C3115 C3117 1.388 . S
C3116 C3115 1.366 . S
C3116 C3120 1.385 . S
C3117 H3092 0.951 . S
C3117 C3115 1.388 . S
C3117 C3118 1.366 . S
C3118 C3117 1.366 . S
C3118 C3119 1.414 . S
C3118 C3121 1.499 . S
C3119 H3093 0.950 . S
C3119 C3118 1.414 . S
C3119 C3120 1.374 . S
C3120 H3094 0.950 . S
C3120 C3116 1.385 . S
C3120 C3119 1.374 . S
C3121 C3118 1.499 . S
C3121 C3122 1.373 . S
C3121 C3123 1.389 . S
C3122 H3095 0.950 . S
C3122 C3108 1.377 . S
C3122 C3121 1.373 . S
C3123 C3107 1.377 . S
C3123 C3121 1.389 . S
C3123 C3124 1.524 . S
C3124 C3123 1.524 . S
C3124 C3125 1.397 . S
C3124 C3129 1.363 . S
C3125 H3096 0.950 . S
C3125 C3124 1.397 . S
C3125 C3126 1.334 . S
C3126 H3097 0.950 . S
C3126 C3125 1.334 . S
C3126 C3127 1.287 . S
C3127 C3126 1.287 . S
C3127 C3128 1.524 . S
C3127 H3130 0.999 . S
C3128 H3098 0.950 . S
C3128 C3127 1.524 . S
C3128 C3129 1.415 . S
C3129 H3099 0.950 . S
C3129 C3124 1.363 . S
C3129 C3128 1.415 . S
H3130 C3127 0.999 . S
H3131 C3112 0.913 . S
H3132 C3150 0.951 . S
H3133 C3152 0.951 . S
H3134 C3154 0.950 . S
H3135 C3155 0.950 . S
H3136 C3157 0.950 . S
H3137 C3160 0.950 . S
H3138 C3161 0.950 . S
H3139 C3163 0.950 . S
H3140 C3164 0.950 . S
H3141 C3165 0.951 . S
H3142 C3167 0.951 . S
H3143 C3169 0.950 . S
H3144 C3170 0.950 . S
H3145 C3172 0.950 . S
H3146 C3175 0.950 1_565 S
H3147 C3176 0.950 . S
H3148 C3178 0.950 . S
H3149 C3179 0.950 1_565 S
C3150 H3132 0.951 . S
C3150 C3151 1.366 . S
C3150 C3152 1.388 . S
C3151 C3150 1.366 . S
C3151 C3155 1.385 . S
C3152 H3133 0.951 . S
C3152 C3150 1.388 . S
C3152 C3153 1.366 . S
C3153 C3152 1.366 . S
C3153 C3154 1.414 . S
C3153 C3156 1.499 . S
C3154 H3134 0.950 . S
C3154 C3153 1.414 . S
C3154 C3155 1.374 . S
C3155 H3135 0.950 . S
C3155 C3151 1.385 . S
C3155 C3154 1.374 . S
C3156 C3153 1.499 . S
C3156 C3157 1.373 . S
C3156 C3158 1.389 . S
C3157 H3136 0.950 . S
C3157 C3156 1.373 . S
C3157 C3173 1.377 . S
C3158 C3156 1.389 . S
C3158 C3159 1.524 . S
C3158 C3172 1.377 . S
C3159 C3158 1.524 . S
C3159 C3160 1.397 . S
C3159 C3164 1.363 . S
C3160 H3137 0.950 . S
C3160 C3159 1.397 . S
C3160 C3161 1.334 . S
C3161 H3138 0.950 . S
C3161 C3160 1.334 . S
C3161 C3162 1.287 . S
C3162 C3161 1.287 . S
C3162 C3163 1.524 . S
C3162 H3181 0.913 . S
C3163 H3139 0.950 . S
C3163 C3162 1.524 . S
C3163 C3164 1.415 . S
C3164 H3140 0.950 . S
C3164 C3159 1.363 . S
C3164 C3163 1.415 . S
C3165 H3141 0.951 . S
C3165 C3166 1.366 . S
C3165 C3167 1.388 . S
C3166 C3165 1.366 . S
C3166 C3170 1.385 . S
C3167 H3142 0.951 . S
C3167 C3165 1.388 . S
C3167 C3168 1.366 . S
C3168 C3167 1.366 . S
C3168 C3169 1.414 . S
C3168 C3171 1.499 . S
C3169 H3143 0.950 . S
C3169 C3168 1.414 . S
C3169 C3170 1.374 . S
C3170 H3144 0.950 . S
C3170 C3166 1.385 . S
C3170 C3169 1.374 . S
C3171 C3168 1.499 . S
C3171 C3172 1.373 . S
C3171 C3173 1.389 . S
C3172 H3145 0.950 . S
C3172 C3158 1.377 . S
C3172 C3171 1.373 . S
C3173 C3157 1.377 . S
C3173 C3171 1.389 . S
C3173 C3174 1.524 . S
C3174 C3173 1.524 . S
C3174 C3175 1.397 1_565 S
C3174 C3179 1.363 1_565 S
C3175 H3146 0.950 1_545 S
C3175 C3174 1.397 1_545 S
C3175 C3176 1.334 . S
C3176 H3147 0.950 . S
C3176 C3175 1.334 . S
C3176 C3177 1.287 . S
C3177 C3176 1.287 . S
C3177 C3178 1.524 . S
C3177 H3180 0.999 . S
C3178 H3148 0.950 . S
C3178 C3177 1.524 . S
C3178 C3179 1.415 . S
C3179 H3149 0.950 1_545 S
C3179 C3174 1.363 1_545 S
C3179 C3178 1.415 . S
H3180 C3177 0.999 . S
H3181 C3162 0.913 . S
H3182 C3200 0.951 . S
H3183 C3202 0.951 . S
H3184 C3204 0.950 . S
H3185 C3205 0.950 . S
H3186 C3207 0.950 . S
H3187 C3210 0.950 . S
H3188 C3211 0.950 . S
H3189 C3213 0.950 . S
H3190 C3214 0.950 . S
H3191 C3215 0.951 . S
H3192 C3217 0.951 . S
H3193 C3219 0.950 . S
H3194 C3220 0.950 . S
H3195 C3222 0.950 . S
H3196 C3225 0.950 . S
H3197 C3226 0.950 . S
H3198 C3228 0.950 . S
H3199 C3229 0.950 . S
C3200 H3182 0.951 . S
C3200 C3201 1.366 . S
C3200 C3202 1.388 . S
C3201 C3200 1.366 . S
C3201 C3205 1.385 . S
C3202 H3183 0.951 . S
C3202 C3200 1.388 . S
C3202 C3203 1.366 . S
C3203 C3202 1.366 . S
C3203 C3204 1.414 . S
C3203 C3206 1.499 . S
C3204 H3184 0.950 . S
C3204 C3203 1.414 . S
C3204 C3205 1.374 . S
C3205 H3185 0.950 . S
C3205 C3201 1.385 . S
C3205 C3204 1.374 . S
C3206 C3203 1.499 . S
C3206 C3207 1.373 . S
C3206 C3208 1.389 . S
C3207 H3186 0.950 . S
C3207 C3206 1.373 . S
C3207 C3223 1.377 . S
C3208 C3206 1.389 . S
C3208 C3209 1.524 . S
C3208 C3222 1.377 . S
C3209 C3208 1.524 . S
C3209 C3210 1.397 . S
C3209 C3214 1.363 . S
C3210 H3187 0.950 . S
C3210 C3209 1.397 . S
C3210 C3211 1.334 . S
C3211 H3188 0.950 . S
C3211 C3210 1.334 . S
C3211 C3212 1.287 . S
C3212 C3211 1.287 . S
C3212 C3213 1.524 . S
C3212 H3231 0.913 . S
C3213 H3189 0.950 . S
C3213 C3212 1.524 . S
C3213 C3214 1.415 . S
C3214 H3190 0.950 . S
C3214 C3209 1.363 . S
C3214 C3213 1.415 . S
C3215 H3191 0.951 . S
C3215 C3216 1.366 . S
C3215 C3217 1.388 . S
C3216 C3215 1.366 . S
C3216 C3220 1.385 . S
C3217 H3192 0.951 . S
C3217 C3215 1.388 . S
C3217 C3218 1.366 . S
C3218 C3217 1.366 . S
C3218 C3219 1.414 . S
C3218 C3221 1.499 . S
C3219 H3193 0.950 . S
C3219 C3218 1.414 . S
C3219 C3220 1.374 . S
C3220 H3194 0.950 . S
C3220 C3216 1.385 . S
C3220 C3219 1.374 . S
C3221 C3218 1.499 . S
C3221 C3222 1.373 . S
C3221 C3223 1.389 . S
C3222 H3195 0.950 . S
C3222 C3208 1.377 . S
C3222 C3221 1.373 . S
C3223 C3207 1.377 . S
C3223 C3221 1.389 . S
C3223 C3224 1.524 . S
C3224 C3223 1.524 . S
C3224 C3225 1.397 1_455 S
C3224 C3229 1.363 . S
C3225 H3196 0.950 . S
C3225 C3224 1.397 1_655 S
C3225 C3226 1.334 . S
C3226 H3197 0.950 . S
C3226 C3225 1.334 . S
C3226 C3227 1.287 . S
C3227 C3226 1.287 . S
C3227 C3228 1.524 1_655 S
C3227 H3230 0.999 . S
C3228 H3198 0.950 . S
C3228 C3227 1.524 1_455 S
C3228 C3229 1.415 . S
C3229 H3199 0.950 . S
C3229 C3224 1.363 . S
C3229 C3228 1.415 . S
H3230 C3227 0.999 . S
H3231 C3212 0.913 . S
H3232 C3250 0.951 . S
H3233 C3252 0.951 . S
H3234 C3254 0.950 . S
H3235 C3255 0.950 . S
H3236 C3257 0.950 . S
H3237 C3260 0.950 . S
H3238 C3261 0.950 . S
H3239 C3263 0.950 . S
H3240 C3264 0.950 . S
H3241 C3265 0.951 . S
H3242 C3267 0.951 . S
H3243 C3269 0.950 . S
H3244 C3270 0.950 . S
H3245 C3272 0.950 . S
H3246 C3275 0.950 . S
H3247 C3276 0.950 . S
H3248 C3278 0.950 . S
H3249 C3279 0.950 . S
C3250 H3232 0.951 . S
C3250 C3251 1.366 . S
C3250 C3252 1.388 . S
C3251 C3250 1.366 . S
C3251 C3255 1.385 . S
C3252 H3233 0.951 . S
C3252 C3250 1.388 . S
C3252 C3253 1.366 . S
C3253 C3252 1.366 . S
C3253 C3254 1.414 . S
C3253 C3256 1.499 . S
C3254 H3234 0.950 . S
C3254 C3253 1.414 . S
C3254 C3255 1.374 . S
C3255 H3235 0.950 . S
C3255 C3251 1.385 . S
C3255 C3254 1.374 . S
C3256 C3253 1.499 . S
C3256 C3257 1.373 . S
C3256 C3258 1.389 . S
C3257 H3236 0.950 . S
C3257 C3256 1.373 . S
C3257 C3273 1.377 . S
C3258 C3256 1.389 . S
C3258 C3259 1.524 . S
C3258 C3272 1.377 . S
C3259 C3258 1.524 . S
C3259 C3260 1.397 . S
C3259 C3264 1.363 . S
C3260 H3237 0.950 . S
C3260 C3259 1.397 . S
C3260 C3261 1.334 . S
C3261 H3238 0.950 . S
C3261 C3260 1.334 . S
C3261 C3262 1.287 . S
C3262 C3261 1.287 . S
C3262 C3263 1.524 . S
C3262 H3281 0.913 . S
C3263 H3239 0.950 . S
C3263 C3262 1.524 . S
C3263 C3264 1.415 . S
C3264 H3240 0.950 . S
C3264 C3259 1.363 . S
C3264 C3263 1.415 . S
C3265 H3241 0.951 . S
C3265 C3266 1.366 . S
C3265 C3267 1.388 . S
C3266 C3265 1.366 . S
C3266 C3270 1.385 . S
C3267 H3242 0.951 . S
C3267 C3265 1.388 . S
C3267 C3268 1.366 . S
C3268 C3267 1.366 . S
C3268 C3269 1.414 . S
C3268 C3271 1.499 . S
C3269 H3243 0.950 . S
C3269 C3268 1.414 . S
C3269 C3270 1.374 . S
C3270 H3244 0.950 . S
C3270 C3266 1.385 . S
C3270 C3269 1.374 . S
C3271 C3268 1.499 . S
C3271 C3272 1.373 . S
C3271 C3273 1.389 . S
C3272 H3245 0.950 . S
C3272 C3258 1.377 . S
C3272 C3271 1.373 . S
C3273 C3257 1.377 . S
C3273 C3271 1.389 . S
C3273 C3274 1.524 . S
C3274 C3273 1.524 . S
C3274 C3275 1.397 . S
C3274 C3279 1.363 . S
C3275 H3246 0.950 . S
C3275 C3274 1.397 . S
C3275 C3276 1.334 . S
C3276 H3247 0.950 . S
C3276 C3275 1.334 . S
C3276 C3277 1.287 . S
C3277 C3276 1.287 . S
C3277 C3278 1.524 . S
C3277 H3280 0.999 . S
C3278 H3248 0.950 . S
C3278 C3277 1.524 . S
C3278 C3279 1.415 . S
C3279 H3249 0.950 . S
C3279 C3274 1.363 . S
C3279 C3278 1.415 . S
H3280 C3277 0.999 . S
H3281 C3262 0.913 . S
H3282 C3300 0.951 . S
H3283 C3302 0.951 . S
H3284 C3304 0.950 . S
H3285 C3305 0.950 . S
H3286 C3307 0.950 . S
H3287 C3310 0.950 . S
H3288 C3311 0.950 . S
H3289 C3313 0.950 . S
H3290 C3314 0.950 . S
H3291 C3315 0.951 . S
H3292 C3317 0.951 . S
H3293 C3319 0.950 . S
H3294 C3320 0.950 . S
H3295 C3322 0.950 . S
H3296 C3325 0.950 . S
H3297 C3326 0.950 . S
H3298 C3328 0.950 . S
H3299 C3329 0.950 . S
C3300 H3282 0.951 . S
C3300 C3301 1.366 . S
C3300 C3302 1.388 . S
C3301 C3300 1.366 . S
C3301 C3305 1.385 . S
C3302 H3283 0.951 . S
C3302 C3300 1.388 . S
C3302 C3303 1.366 . S
C3303 C3302 1.366 . S
C3303 C3304 1.414 . S
C3303 C3306 1.499 . S
C3304 H3284 0.950 . S
C3304 C3303 1.414 . S
C3304 C3305 1.374 . S
C3305 H3285 0.950 . S
C3305 C3301 1.385 . S
C3305 C3304 1.374 . S
C3306 C3303 1.499 . S
C3306 C3307 1.373 . S
C3306 C3308 1.389 . S
C3307 H3286 0.950 . S
C3307 C3306 1.373 . S
C3307 C3323 1.377 . S
C3308 C3306 1.389 . S
C3308 C3309 1.524 . S
C3308 C3322 1.377 . S
C3309 C3308 1.524 . S
C3309 C3310 1.397 . S
C3309 C3314 1.363 . S
C3310 H3287 0.950 . S
C3310 C3309 1.397 . S
C3310 C3311 1.334 . S
C3311 H3288 0.950 . S
C3311 C3310 1.334 . S
C3311 C3312 1.287 . S
C3312 C3311 1.287 . S
C3312 C3313 1.524 . S
C3312 H3331 0.913 . S
C3313 H3289 0.950 . S
C3313 C3312 1.524 . S
C3313 C3314 1.415 . S
C3314 H3290 0.950 . S
C3314 C3309 1.363 . S
C3314 C3313 1.415 . S
C3315 H3291 0.951 . S
C3315 C3316 1.366 . S
C3315 C3317 1.388 . S
C3316 C3315 1.366 . S
C3316 C3320 1.385 . S
C3317 H3292 0.951 . S
C3317 C3315 1.388 . S
C3317 C3318 1.366 . S
C3318 C3317 1.366 . S
C3318 C3319 1.414 . S
C3318 C3321 1.499 . S
C3319 H3293 0.950 . S
C3319 C3318 1.414 . S
C3319 C3320 1.374 . S
C3320 H3294 0.950 . S
C3320 C3316 1.385 . S
C3320 C3319 1.374 . S
C3321 C3318 1.499 . S
C3321 C3322 1.373 . S
C3321 C3323 1.389 . S
C3322 H3295 0.950 . S
C3322 C3308 1.377 . S
C3322 C3321 1.373 . S
C3323 C3307 1.377 . S
C3323 C3321 1.389 . S
C3323 C3324 1.524 . S
C3324 C3323 1.524 . S
C3324 C3325 1.397 . S
C3324 C3329 1.363 . S
C3325 H3296 0.950 . S
C3325 C3324 1.397 . S
C3325 C3326 1.334 . S
C3326 H3297 0.950 . S
C3326 C3325 1.334 . S
C3326 C3327 1.287 . S
C3327 C3326 1.287 . S
C3327 C3328 1.524 . S
C3327 H3330 0.999 . S
C3328 H3298 0.950 . S
C3328 C3327 1.524 . S
C3328 C3329 1.415 . S
C3329 H3299 0.950 . S
C3329 C3324 1.363 . S
C3329 C3328 1.415 . S
H3330 C3327 0.999 . S
H3331 C3312 0.913 . S
H3332 C3350 0.951 . S
H3333 C3352 0.951 . S
H3334 C3354 0.950 . S
H3335 C3355 0.950 . S
H3336 C3357 0.950 . S
H3337 C3360 0.950 . S
H3338 C3361 0.950 . S
H3339 C3363 0.950 . S
H3340 C3364 0.950 . S
H3341 C3365 0.951 . S
H3342 C3367 0.951 . S
H3343 C3369 0.950 . S
H3344 C3370 0.950 . S
H3345 C3372 0.950 . S
H3346 C3375 0.950 . S
H3347 C3376 0.950 . S
H3348 C3378 0.950 . S
H3349 C3379 0.950 . S
C3350 H3332 0.951 . S
C3350 C3351 1.366 . S
C3350 C3352 1.388 . S
C3351 C3350 1.366 . S
C3351 C3355 1.385 . S
C3352 H3333 0.951 . S
C3352 C3350 1.388 . S
C3352 C3353 1.366 . S
C3353 C3352 1.366 . S
C3353 C3354 1.414 . S
C3353 C3356 1.499 . S
C3354 H3334 0.950 . S
C3354 C3353 1.414 . S
C3354 C3355 1.374 . S
C3355 H3335 0.950 . S
C3355 C3351 1.385 . S
C3355 C3354 1.374 . S
C3356 C3353 1.499 . S
C3356 C3357 1.373 . S
C3356 C3358 1.389 . S
C3357 H3336 0.950 . S
C3357 C3356 1.373 . S
C3357 C3373 1.377 . S
C3358 C3356 1.389 . S
C3358 C3359 1.524 . S
C3358 C3372 1.377 . S
C3359 C3358 1.524 . S
C3359 C3360 1.397 . S
C3359 C3364 1.363 . S
C3360 H3337 0.950 . S
C3360 C3359 1.397 . S
C3360 C3361 1.334 . S
C3361 H3338 0.950 . S
C3361 C3360 1.334 . S
C3361 C3362 1.287 . S
C3362 C3361 1.287 . S
C3362 C3363 1.524 . S
C3362 H3381 0.913 . S
C3363 H3339 0.950 . S
C3363 C3362 1.524 . S
C3363 C3364 1.415 . S
C3364 H3340 0.950 . S
C3364 C3359 1.363 . S
C3364 C3363 1.415 . S
C3365 H3341 0.951 . S
C3365 C3366 1.366 . S
C3365 C3367 1.388 . S
C3366 C3365 1.366 . S
C3366 C3370 1.385 . S
C3367 H3342 0.951 . S
C3367 C3365 1.388 . S
C3367 C3368 1.366 . S
C3368 C3367 1.366 . S
C3368 C3369 1.414 . S
C3368 C3371 1.499 . S
C3369 H3343 0.950 . S
C3369 C3368 1.414 . S
C3369 C3370 1.374 . S
C3370 H3344 0.950 . S
C3370 C3366 1.385 . S
C3370 C3369 1.374 . S
C3371 C3368 1.499 . S
C3371 C3372 1.373 . S
C3371 C3373 1.389 . S
C3372 H3345 0.950 . S
C3372 C3358 1.377 . S
C3372 C3371 1.373 . S
C3373 C3357 1.377 . S
C3373 C3371 1.389 . S
C3373 C3374 1.524 . S
C3374 C3373 1.524 . S
C3374 C3375 1.397 . S
C3374 C3379 1.363 . S
C3375 H3346 0.950 . S
C3375 C3374 1.397 . S
C3375 C3376 1.334 . S
C3376 H3347 0.950 . S
C3376 C3375 1.334 . S
C3376 C3377 1.287 . S
C3377 C3376 1.287 . S
C3377 C3378 1.524 . S
C3377 H3380 0.999 . S
C3378 H3348 0.950 . S
C3378 C3377 1.524 . S
C3378 C3379 1.415 . S
C3379 H3349 0.950 . S
C3379 C3374 1.363 . S
C3379 C3378 1.415 . S
H3380 C3377 0.999 . S
H3381 C3362 0.913 . S
H3382 C3400 0.951 . S
H3383 C3402 0.951 . S
H3384 C3404 0.950 . S
H3385 C3405 0.950 . S
H3386 C3407 0.950 . S
H3387 C3410 0.950 . S
H3388 C3411 0.955 . S
H3389 C3413 0.950 . S
H3390 C3414 0.950 . S
H3391 C3415 0.951 . S
H3392 C3417 0.951 . S
H3393 C3419 0.950 . S
H3394 C3420 0.950 . S
H3395 C3422 0.950 . S
H3396 C3425 0.950 . S
H3397 C3426 0.950 . S
H3398 C3428 0.950 . S
H3399 C3429 0.950 . S
C3400 H3382 0.951 . S
C3400 C3401 1.366 . S
C3400 C3402 1.388 . S
C3401 C3400 1.366 . S
C3401 C3405 1.385 . S
C3402 H3383 0.951 . S
C3402 C3400 1.388 . S
C3402 C3403 1.366 . S
C3403 C3402 1.366 . S
C3403 C3404 1.414 . S
C3403 C3406 1.499 . S
C3404 H3384 0.950 . S
C3404 C3403 1.414 . S
C3404 C3405 1.374 . S
C3405 H3385 0.950 . S
C3405 C3401 1.385 . S
C3405 C3404 1.374 . S
C3406 C3403 1.499 . S
C3406 C3407 1.373 . S
C3406 C3408 1.389 . S
C3407 H3386 0.950 . S
C3407 C3406 1.373 . S
C3407 C3423 1.377 . S
C3408 C3406 1.389 . S
C3408 C3409 1.524 . S
C3408 C3422 1.377 . S
C3409 C3408 1.524 . S
C3409 C3410 1.397 . S
C3409 C3414 1.363 . S
C3410 H3387 0.950 . S
C3410 C3409 1.397 . S
C3410 C3411 1.334 . S
C3411 H3388 0.955 . S
C3411 C3410 1.334 . S
C3411 C3412 1.330 . S
C3412 C3411 1.330 . S
C3412 C3413 1.524 . S
C3412 H3431 0.870 1_545 S
C3413 H3389 0.950 . S
C3413 C3412 1.524 . S
C3413 C3414 1.415 . S
C3414 H3390 0.950 . S
C3414 C3409 1.363 . S
C3414 C3413 1.415 . S
C3415 H3391 0.951 . S
C3415 C3416 1.366 . S
C3415 C3417 1.388 . S
C3416 C3415 1.366 . S
C3416 C3420 1.385 . S
C3417 H3392 0.951 . S
C3417 C3415 1.388 . S
C3417 C3418 1.366 . S
C3418 C3417 1.366 . S
C3418 C3419 1.414 . S
C3418 C3421 1.499 . S
C3419 H3393 0.950 . S
C3419 C3418 1.414 . S
C3419 C3420 1.374 . S
C3420 H3394 0.950 . S
C3420 C3416 1.385 . S
C3420 C3419 1.374 . S
C3421 C3418 1.499 . S
C3421 C3422 1.373 . S
C3421 C3423 1.389 . S
C3422 H3395 0.950 . S
C3422 C3408 1.377 . S
C3422 C3421 1.373 . S
C3423 C3407 1.377 . S
C3423 C3421 1.389 . S
C3423 C3424 1.524 . S
C3424 C3423 1.524 . S
C3424 C3425 1.397 . S
C3424 C3429 1.363 . S
C3425 H3396 0.950 . S
C3425 C3424 1.397 . S
C3425 C3426 1.334 . S
C3426 H3397 0.950 . S
C3426 C3425 1.334 . S
C3426 C3427 1.287 . S
C3427 C3426 1.287 . S
C3427 C3428 1.524 . S
C3427 H3430 0.999 . S
C3428 H3398 0.950 . S
C3428 C3427 1.524 . S
C3428 C3429 1.415 . S
C3429 H3399 0.950 . S
C3429 C3424 1.363 . S
C3429 C3428 1.415 . S
H3430 C3427 0.999 . S
H3431 C3412 0.870 1_565 S
H3432 C3450 0.951 . S
H3433 C3452 0.951 . S
H3434 C3454 0.950 . S
H3435 C3455 0.950 . S
H3436 C3457 0.950 . S
H3437 C3460 0.950 . S
H3438 C3461 0.950 . S
H3439 C3463 0.950 . S
H3440 C3464 0.950 . S
H3441 C3465 0.951 . S
H3442 C3467 0.951 . S
H3443 C3469 0.950 . S
H3444 C3470 0.950 . S
H3445 C3472 0.950 . S
H3446 C3475 0.950 . S
H3447 C3476 0.950 . S
H3448 C3478 0.950 . S
H3449 C3479 0.950 . S
C3450 H3432 0.951 . S
C3450 C3451 1.366 . S
C3450 C3452 1.388 . S
C3451 C3450 1.366 . S
C3451 C3455 1.385 . S
C3452 H3433 0.951 . S
C3452 C3450 1.388 . S
C3452 C3453 1.366 . S
C3453 C3452 1.366 . S
C3453 C3454 1.414 . S
C3453 C3456 1.499 . S
C3454 H3434 0.950 . S
C3454 C3453 1.414 . S
C3454 C3455 1.374 . S
C3455 H3435 0.950 . S
C3455 C3451 1.385 . S
C3455 C3454 1.374 . S
C3456 C3453 1.499 . S
C3456 C3457 1.373 . S
C3456 C3458 1.389 . S
C3457 H3436 0.950 . S
C3457 C3456 1.373 . S
C3457 C3473 1.377 . S
C3458 C3456 1.389 . S
C3458 C3459 1.524 . S
C3458 C3472 1.377 . S
C3459 C3458 1.524 . S
C3459 C3460 1.397 . S
C3459 C3464 1.363 . S
C3460 H3437 0.950 . S
C3460 C3459 1.397 . S
C3460 C3461 1.334 . S
C3461 H3438 0.950 . S
C3461 C3460 1.334 . S
C3461 C3462 1.287 . S
C3462 C3461 1.287 . S
C3462 C3463 1.524 . S
C3462 H3481 0.913 . S
C3463 H3439 0.950 . S
C3463 C3462 1.524 . S
C3463 C3464 1.415 . S
C3464 H3440 0.950 . S
C3464 C3459 1.363 . S
C3464 C3463 1.415 . S
C3465 H3441 0.951 . S
C3465 C3466 1.366 . S
C3465 C3467 1.388 . S
C3466 C3465 1.366 . S
C3466 C3470 1.385 . S
C3467 H3442 0.951 . S
C3467 C3465 1.388 . S
C3467 C3468 1.366 . S
C3468 C3467 1.366 . S
C3468 C3469 1.414 . S
C3468 C3471 1.499 . S
C3469 H3443 0.950 . S
C3469 C3468 1.414 . S
C3469 C3470 1.374 . S
C3470 H3444 0.950 . S
C3470 C3466 1.385 . S
C3470 C3469 1.374 . S
C3471 C3468 1.499 . S
C3471 C3472 1.373 . S
C3471 C3473 1.389 . S
C3472 H3445 0.950 . S
C3472 C3458 1.377 . S
C3472 C3471 1.373 . S
C3473 C3457 1.377 . S
C3473 C3471 1.389 . S
C3473 C3474 1.524 . S
C3474 C3473 1.524 . S
C3474 C3475 1.397 . S
C3474 C3479 1.363 . S
C3475 H3446 0.950 . S
C3475 C3474 1.397 . S
C3475 C3476 1.334 . S
C3476 H3447 0.950 . S
C3476 C3475 1.334 . S
C3476 C3477 1.287 . S
C3477 C3476 1.287 . S
C3477 C3478 1.524 . S
C3477 H3480 0.999 . S
C3478 H3448 0.950 . S
C3478 C3477 1.524 . S
C3478 C3479 1.415 . S
C3479 H3449 0.950 . S
C3479 C3474 1.363 . S
C3479 C3478 1.415 . S
H3480 C3477 0.999 . S
H3481 C3462 0.913 . S
H3482 C3500 0.951 . S
H3483 C3502 0.951 . S
H3484 C3504 0.950 . S
H3485 C3505 0.950 . S
H3486 C3507 0.950 . S
H3487 C3510 0.950 . S
H3488 C3511 0.950 . S
H3489 C3513 0.950 . S
H3490 C3514 0.950 . S
H3491 C3515 0.951 . S
H3492 C3517 0.951 . S
H3493 C3519 0.950 . S
H3494 C3520 0.950 . S
H3495 C3522 0.950 . S
H3496 C3525 0.950 . S
H3497 C3526 0.950 . S
H3498 C3528 0.950 . S
H3499 C3529 0.950 . S
C3500 H3482 0.951 . S
C3500 C3501 1.366 . S
C3500 C3502 1.388 . S
C3501 C3500 1.366 . S
C3501 C3505 1.385 . S
C3502 H3483 0.951 . S
C3502 C3500 1.388 . S
C3502 C3503 1.366 . S
C3503 C3502 1.366 . S
C3503 C3504 1.414 . S
C3503 C3506 1.499 . S
C3504 H3484 0.950 . S
C3504 C3503 1.414 . S
C3504 C3505 1.374 . S
C3505 H3485 0.950 . S
C3505 C3501 1.385 . S
C3505 C3504 1.374 . S
C3506 C3503 1.499 . S
C3506 C3507 1.373 . S
C3506 C3508 1.389 . S
C3507 H3486 0.950 . S
C3507 C3506 1.373 . S
C3507 C3523 1.377 . S
C3508 C3506 1.389 . S
C3508 C3509 1.524 . S
C3508 C3522 1.377 . S
C3509 C3508 1.524 . S
C3509 C3510 1.397 . S
C3509 C3514 1.363 . S
C3510 H3487 0.950 . S
C3510 C3509 1.397 . S
C3510 C3511 1.334 . S
C3511 H3488 0.950 . S
C3511 C3510 1.334 . S
C3511 C3512 1.287 . S
C3512 C3511 1.287 . S
C3512 C3513 1.524 . S
C3512 H3531 0.913 . S
C3513 H3489 0.950 . S
C3513 C3512 1.524 . S
C3513 C3514 1.415 . S
C3514 H3490 0.950 . S
C3514 C3509 1.363 . S
C3514 C3513 1.415 . S
C3515 H3491 0.951 . S
C3515 C3516 1.366 . S
C3515 C3517 1.388 . S
C3516 C3515 1.366 . S
C3516 C3520 1.385 . S
C3517 H3492 0.951 . S
C3517 C3515 1.388 . S
C3517 C3518 1.366 . S
C3518 C3517 1.366 . S
C3518 C3519 1.414 . S
C3518 C3521 1.499 . S
C3519 H3493 0.950 . S
C3519 C3518 1.414 . S
C3519 C3520 1.374 . S
C3520 H3494 0.950 . S
C3520 C3516 1.385 . S
C3520 C3519 1.374 . S
C3521 C3518 1.499 . S
C3521 C3522 1.373 . S
C3521 C3523 1.389 . S
C3522 H3495 0.950 . S
C3522 C3508 1.377 . S
C3522 C3521 1.373 . S
C3523 C3507 1.377 . S
C3523 C3521 1.389 . S
C3523 C3524 1.524 . S
C3524 C3523 1.524 . S
C3524 C3525 1.397 . S
C3524 C3529 1.363 . S
C3525 H3496 0.950 . S
C3525 C3524 1.397 . S
C3525 C3526 1.334 . S
C3526 H3497 0.950 . S
C3526 C3525 1.334 . S
C3526 C3527 1.287 . S
C3527 C3526 1.287 . S
C3527 C3528 1.524 . S
C3527 H3530 0.999 . S
C3528 H3498 0.950 . S
C3528 C3527 1.524 . S
C3528 C3529 1.415 . S
C3529 H3499 0.950 . S
C3529 C3524 1.363 . S
C3529 C3528 1.415 . S
H3530 C3527 0.999 . S
H3531 C3512 0.913 . S
H3532 C3550 0.951 . S
H3533 C3552 0.951 . S
H3534 C3554 0.950 . S
H3535 C3555 0.950 . S
H3536 C3557 0.950 . S
H3537 C3560 0.950 . S
H3538 C3561 0.950 . S
H3539 C3563 0.950 . S
H3540 C3564 0.950 . S
H3541 C3565 0.951 . S
H3542 C3567 0.951 . S
H3543 C3569 0.950 . S
H3544 C3570 0.950 . S
H3545 C3572 0.950 . S
H3546 C3575 0.950 . S
H3547 C3576 0.950 . S
H3548 C3578 0.950 . S
H3549 C3579 0.950 . S
C3550 H3532 0.951 . S
C3550 C3551 1.366 . S
C3550 C3552 1.388 . S
C3551 C3550 1.366 . S
C3551 C3555 1.385 . S
C3552 H3533 0.951 . S
C3552 C3550 1.388 . S
C3552 C3553 1.366 . S
C3553 C3552 1.366 . S
C3553 C3554 1.414 . S
C3553 C3556 1.499 . S
C3554 H3534 0.950 . S
C3554 C3553 1.414 . S
C3554 C3555 1.374 . S
C3555 H3535 0.950 . S
C3555 C3551 1.385 . S
C3555 C3554 1.374 . S
C3556 C3553 1.499 . S
C3556 C3557 1.373 . S
C3556 C3558 1.389 . S
C3557 H3536 0.950 . S
C3557 C3556 1.373 . S
C3557 C3573 1.377 . S
C3558 C3556 1.389 . S
C3558 C3559 1.524 . S
C3558 C3572 1.377 . S
C3559 C3558 1.524 . S
C3559 C3560 1.397 . S
C3559 C3564 1.363 . S
C3560 H3537 0.950 . S
C3560 C3559 1.397 . S
C3560 C3561 1.334 . S
C3561 H3538 0.950 . S
C3561 C3560 1.334 . S
C3561 C3562 1.287 . S
C3562 C3561 1.287 . S
C3562 C3563 1.524 . S
C3562 H3581 0.913 . S
C3563 H3539 0.950 . S
C3563 C3562 1.524 . S
C3563 C3564 1.415 . S
C3564 H3540 0.950 . S
C3564 C3559 1.363 . S
C3564 C3563 1.415 . S
C3565 H3541 0.951 . S
C3565 C3566 1.366 . S
C3565 C3567 1.388 . S
C3566 C3565 1.366 . S
C3566 C3570 1.385 . S
C3567 H3542 0.951 . S
C3567 C3565 1.388 . S
C3567 C3568 1.366 . S
C3568 C3567 1.366 . S
C3568 C3569 1.414 . S
C3568 C3571 1.499 . S
C3569 H3543 0.950 . S
C3569 C3568 1.414 . S
C3569 C3570 1.374 . S
C3570 H3544 0.950 . S
C3570 C3566 1.385 . S
C3570 C3569 1.374 . S
C3571 C3568 1.499 . S
C3571 C3572 1.373 . S
C3571 C3573 1.389 . S
C3572 H3545 0.950 . S
C3572 C3558 1.377 . S
C3572 C3571 1.373 . S
C3573 C3557 1.377 . S
C3573 C3571 1.389 . S
C3573 C3574 1.524 . S
C3574 C3573 1.524 . S
C3574 C3575 1.397 . S
C3574 C3579 1.363 . S
C3575 H3546 0.950 . S
C3575 C3574 1.397 . S
C3575 C3576 1.334 . S
C3576 H3547 0.950 . S
C3576 C3575 1.334 . S
C3576 C3577 1.287 . S
C3577 C3576 1.287 . S
C3577 C3578 1.524 . S
C3577 H3580 0.999 . S
C3578 H3548 0.950 . S
C3578 C3577 1.524 . S
C3578 C3579 1.415 . S
C3579 H3549 0.950 . S
C3579 C3574 1.363 . S
C3579 C3578 1.415 . S
H3580 C3577 0.999 . S
H3581 C3562 0.913 . S
H3582 C3600 0.951 . S
H3583 C3602 0.951 . S
H3584 C3604 0.950 . S
H3585 C3605 0.950 . S
H3586 C3607 0.950 . S
H3587 C3610 0.950 . S
H3588 C3611 0.950 . S
H3589 C3613 0.950 . S
H3590 C3614 0.950 . S
H3591 C3615 0.951 . S
H3592 C3617 0.951 . S
H3593 C3619 0.950 . S
H3594 C3620 0.950 . S
H3595 C3622 0.950 . S
H3596 C3625 0.950 . S
H3597 C3626 0.950 . S
H3598 C3628 0.950 . S
H3599 C3629 0.950 . S
C3600 H3582 0.951 . S
C3600 C3601 1.366 . S
C3600 C3602 1.388 . S
C3601 C3600 1.366 . S
C3601 C3605 1.385 . S
C3602 H3583 0.951 . S
C3602 C3600 1.388 . S
C3602 C3603 1.366 . S
C3603 C3602 1.366 . S
C3603 C3604 1.414 . S
C3603 C3606 1.499 . S
C3604 H3584 0.950 . S
C3604 C3603 1.414 . S
C3604 C3605 1.374 . S
C3605 H3585 0.950 . S
C3605 C3601 1.385 . S
C3605 C3604 1.374 . S
C3606 C3603 1.499 . S
C3606 C3607 1.373 . S
C3606 C3608 1.389 . S
C3607 H3586 0.950 . S
C3607 C3606 1.373 . S
C3607 C3623 1.377 . S
C3608 C3606 1.389 . S
C3608 C3609 1.524 . S
C3608 C3622 1.377 . S
C3609 C3608 1.524 . S
C3609 C3610 1.397 . S
C3609 C3614 1.363 . S
C3610 H3587 0.950 . S
C3610 C3609 1.397 . S
C3610 C3611 1.334 . S
C3611 H3588 0.950 . S
C3611 C3610 1.334 . S
C3611 C3612 1.287 . S
C3612 C3611 1.287 . S
C3612 C3613 1.524 . S
C3612 H3631 0.913 . S
C3613 H3589 0.950 . S
C3613 C3612 1.524 . S
C3613 C3614 1.415 . S
C3614 H3590 0.950 . S
C3614 C3609 1.363 . S
C3614 C3613 1.415 . S
C3615 H3591 0.951 . S
C3615 C3616 1.366 . S
C3615 C3617 1.388 . S
C3616 C3615 1.366 . S
C3616 C3620 1.385 . S
C3617 H3592 0.951 . S
C3617 C3615 1.388 . S
C3617 C3618 1.366 . S
C3618 C3617 1.366 . S
C3618 C3619 1.414 . S
C3618 C3621 1.499 . S
C3619 H3593 0.950 . S
C3619 C3618 1.414 . S
C3619 C3620 1.374 . S
C3620 H3594 0.950 . S
C3620 C3616 1.385 . S
C3620 C3619 1.374 . S
C3621 C3618 1.499 . S
C3621 C3622 1.373 . S
C3621 C3623 1.389 . S
C3622 H3595 0.950 . S
C3622 C3608 1.377 . S
C3622 C3621 1.373 . S
C3623 C3607 1.377 . S
C3623 C3621 1.389 . S
C3623 C3624 1.524 . S
C3624 C3623 1.524 . S
C3624 C3625 1.397 . S
C3624 C3629 1.363 . S
C3625 H3596 0.950 . S
C3625 C3624 1.397 . S
C3625 C3626 1.334 . S
C3626 H3597 0.950 . S
C3626 C3625 1.334 . S
C3626 C3627 1.287 . S
C3627 C3626 1.287 . S
C3627 C3628 1.524 . S
C3627 H3630 0.999 . S
C3628 H3598 0.950 . S
C3628 C3627 1.524 . S
C3628 C3629 1.415 . S
C3629 H3599 0.950 . S
C3629 C3624 1.363 . S
C3629 C3628 1.415 . S
H3630 C3627 0.999 . S
H3631 C3612 0.913 . S
H3632 C3650 0.951 . S
H3633 C3652 0.951 . S
H3634 C3654 0.950 . S
H3635 C3655 0.950 . S
H3636 C3657 0.950 . S
H3637 C3660 0.950 . S
H3638 C3661 0.950 . S
H3639 C3663 0.950 . S
H3640 C3664 0.950 . S
H3641 C3665 0.951 . S
H3642 C3667 0.951 . S
H3643 C3669 0.950 . S
H3644 C3670 0.950 . S
H3645 C3672 0.950 . S
H3646 C3675 0.950 . S
H3647 C3676 0.950 . S
H3648 C3678 0.950 . S
H3649 C3679 0.950 . S
C3650 H3632 0.951 . S
C3650 C3651 1.366 . S
C3650 C3652 1.388 . S
C3651 C3650 1.366 . S
C3651 C3655 1.385 . S
C3652 H3633 0.951 . S
C3652 C3650 1.388 . S
C3652 C3653 1.366 . S
C3653 C3652 1.366 . S
C3653 C3654 1.414 . S
C3653 C3656 1.499 . S
C3654 H3634 0.950 . S
C3654 C3653 1.414 . S
C3654 C3655 1.374 . S
C3655 H3635 0.950 . S
C3655 C3651 1.385 . S
C3655 C3654 1.374 . S
C3656 C3653 1.499 . S
C3656 C3657 1.373 . S
C3656 C3658 1.389 . S
C3657 H3636 0.950 . S
C3657 C3656 1.373 . S
C3657 C3673 1.377 . S
C3658 C3656 1.389 . S
C3658 C3659 1.524 . S
C3658 C3672 1.377 . S
C3659 C3658 1.524 . S
C3659 C3660 1.397 . S
C3659 C3664 1.363 . S
C3660 H3637 0.950 . S
C3660 C3659 1.397 . S
C3660 C3661 1.334 . S
C3661 H3638 0.950 . S
C3661 C3660 1.334 . S
C3661 C3662 1.287 . S
C3662 C3661 1.287 . S
C3662 C3663 1.524 . S
C3662 H3681 0.913 . S
C3663 H3639 0.950 . S
C3663 C3662 1.524 . S
C3663 C3664 1.415 . S
C3664 H3640 0.950 . S
C3664 C3659 1.363 . S
C3664 C3663 1.415 . S
C3665 H3641 0.951 . S
C3665 C3666 1.366 . S
C3665 C3667 1.388 . S
C3666 C3665 1.366 . S
C3666 C3670 1.385 . S
C3667 H3642 0.951 . S
C3667 C3665 1.388 . S
C3667 C3668 1.366 . S
C3668 C3667 1.366 . S
C3668 C3669 1.414 . S
C3668 C3671 1.499 . S
C3669 H3643 0.950 . S
C3669 C3668 1.414 . S
C3669 C3670 1.374 . S
C3670 H3644 0.950 . S
C3670 C3666 1.385 . S
C3670 C3669 1.374 . S
C3671 C3668 1.499 . S
C3671 C3672 1.373 . S
C3671 C3673 1.389 . S
C3672 H3645 0.950 . S
C3672 C3658 1.377 . S
C3672 C3671 1.373 . S
C3673 C3657 1.377 . S
C3673 C3671 1.389 . S
C3673 C3674 1.524 . S
C3674 C3673 1.524 . S
C3674 C3675 1.397 . S
C3674 C3679 1.363 . S
C3675 H3646 0.950 . S
C3675 C3674 1.397 . S
C3675 C3676 1.334 . S
C3676 H3647 0.950 . S
C3676 C3675 1.334 . S
C3676 C3677 1.287 . S
C3677 C3676 1.287 . S
C3677 C3678 1.524 . S
C3677 H3680 0.999 . S
C3678 H3648 0.950 . S
C3678 C3677 1.524 . S
C3678 C3679 1.415 . S
C3679 H3649 0.950 . S
C3679 C3674 1.363 . S
C3679 C3678 1.415 . S
H3680 C3677 0.999 . S
H3681 C3662 0.913 . S
H3682 C3700 0.951 . S
H3683 C3702 0.951 . S
H3684 C3704 0.950 . S
H3685 C3705 0.950 . S
H3686 C3707 0.950 . S
H3687 C3710 0.950 . S
H3688 C3711 0.950 . S
H3689 C3713 0.950 . S
H3690 C3714 0.950 . S
H3691 C3715 0.951 . S
H3692 C3717 0.951 . S
H3693 C3719 0.950 . S
H3694 C3720 0.950 . S
H3695 C3722 0.950 . S
H3696 C3725 0.950 . S
H3697 C3726 0.950 . S
H3698 C3728 0.950 . S
H3699 C3729 0.950 . S
C3700 H3682 0.951 . S
C3700 C3701 1.366 . S
C3700 C3702 1.388 . S
C3701 C3700 1.366 . S
C3701 C3705 1.385 . S
C3702 H3683 0.951 . S
C3702 C3700 1.388 . S
C3702 C3703 1.366 . S
C3703 C3702 1.366 . S
C3703 C3704 1.414 . S
C3703 C3706 1.499 . S
C3704 H3684 0.950 . S
C3704 C3703 1.414 . S
C3704 C3705 1.374 . S
C3705 H3685 0.950 . S
C3705 C3701 1.385 . S
C3705 C3704 1.374 . S
C3706 C3703 1.499 . S
C3706 C3707 1.373 . S
C3706 C3708 1.389 . S
C3707 H3686 0.950 . S
C3707 C3706 1.373 . S
C3707 C3723 1.377 . S
C3708 C3706 1.389 . S
C3708 C3709 1.524 . S
C3708 C3722 1.377 . S
C3709 C3708 1.524 . S
C3709 C3710 1.397 . S
C3709 C3714 1.363 . S
C3710 H3687 0.950 . S
C3710 C3709 1.397 . S
C3710 C3711 1.334 . S
C3711 H3688 0.950 . S
C3711 C3710 1.334 . S
C3711 C3712 1.287 . S
C3712 C3711 1.287 . S
C3712 C3713 1.524 . S
C3712 H3731 0.913 . S
C3713 H3689 0.950 . S
C3713 C3712 1.524 . S
C3713 C3714 1.415 . S
C3714 H3690 0.950 . S
C3714 C3709 1.363 . S
C3714 C3713 1.415 . S
C3715 H3691 0.951 . S
C3715 C3716 1.366 . S
C3715 C3717 1.388 . S
C3716 C3715 1.366 . S
C3716 C3720 1.385 . S
C3717 H3692 0.951 . S
C3717 C3715 1.388 . S
C3717 C3718 1.366 . S
C3718 C3717 1.366 . S
C3718 C3719 1.414 . S
C3718 C3721 1.499 . S
C3719 H3693 0.950 . S
C3719 C3718 1.414 . S
C3719 C3720 1.374 . S
C3720 H3694 0.950 . S
C3720 C3716 1.385 . S
C3720 C3719 1.374 . S
C3721 C3718 1.499 . S
C3721 C3722 1.373 . S
C3721 C3723 1.389 . S
C3722 H3695 0.950 . S
C3722 C3708 1.377 . S
C3722 C3721 1.373 . S
C3723 C3707 1.377 . S
C3723 C3721 1.389 . S
C3723 C3724 1.524 . S
C3724 C3723 1.524 . S
C3724 C3725 1.397 . S
C3724 C3729 1.363 . S
C3725 H3696 0.950 . S
C3725 C3724 1.397 . S
C3725 C3726 1.334 . S
C3726 H3697 0.950 . S
C3726 C3725 1.334 . S
C3726 C3727 1.287 . S
C3727 C3726 1.287 . S
C3727 C3728 1.524 . S
C3727 H3730 0.999 . S
C3728 H3698 0.950 . S
C3728 C3727 1.524 . S
C3728 C3729 1.415 . S
C3729 H3699 0.950 . S
C3729 C3724 1.363 . S
C3729 C3728 1.415 . S
H3730 C3727 0.999 . S
H3731 C3712 0.913 . S
H3732 C3750 0.951 . S
H3733 C3752 0.951 . S
H3734 C3754 0.950 . S
H3735 C3755 0.950 . S
H3736 C3757 0.950 . S
H3737 C3760 0.950 . S
H3738 C3761 0.950 . S
H3739 C3763 0.950 . S
H3740 C3764 0.950 . S
H3741 C3765 0.951 . S
H3742 C3767 0.951 . S
H3743 C3769 0.950 . S
H3744 C3770 0.950 . S
H3745 C3772 0.950 . S
H3746 C3775 0.950 . S
H3747 C3776 0.950 . S
H3748 C3778 0.950 . S
H3749 C3779 0.950 . S
C3750 H3732 0.951 . S
C3750 C3751 1.366 . S
C3750 C3752 1.388 . S
C3751 C3750 1.366 . S
C3751 C3755 1.385 . S
C3752 H3733 0.951 . S
C3752 C3750 1.388 . S
C3752 C3753 1.366 . S
C3753 C3752 1.366 . S
C3753 C3754 1.414 . S
C3753 C3756 1.499 . S
C3754 H3734 0.950 . S
C3754 C3753 1.414 . S
C3754 C3755 1.374 . S
C3755 H3735 0.950 . S
C3755 C3751 1.385 . S
C3755 C3754 1.374 . S
C3756 C3753 1.499 . S
C3756 C3757 1.373 . S
C3756 C3758 1.389 . S
C3757 H3736 0.950 . S
C3757 C3756 1.373 . S
C3757 C3773 1.377 . S
C3758 C3756 1.389 . S
C3758 C3759 1.524 . S
C3758 C3772 1.377 . S
C3759 C3758 1.524 . S
C3759 C3760 1.397 . S
C3759 C3764 1.363 . S
C3760 H3737 0.950 . S
C3760 C3759 1.397 . S
C3760 C3761 1.334 . S
C3761 H3738 0.950 . S
C3761 C3760 1.334 . S
C3761 C3762 1.287 . S
C3762 C3761 1.287 . S
C3762 C3763 1.524 . S
C3762 H3781 0.913 . S
C3763 H3739 0.950 . S
C3763 C3762 1.524 . S
C3763 C3764 1.415 . S
C3764 H3740 0.950 . S
C3764 C3759 1.363 . S
C3764 C3763 1.415 . S
C3765 H3741 0.951 . S
C3765 C3766 1.366 . S
C3765 C3767 1.388 . S
C3766 C3765 1.366 . S
C3766 C3770 1.385 . S
C3767 H3742 0.951 . S
C3767 C3765 1.388 . S
C3767 C3768 1.366 . S
C3768 C3767 1.366 . S
C3768 C3769 1.414 . S
C3768 C3771 1.499 . S
C3769 H3743 0.950 . S
C3769 C3768 1.414 . S
C3769 C3770 1.374 . S
C3770 H3744 0.950 . S
C3770 C3766 1.385 . S
C3770 C3769 1.374 . S
C3771 C3768 1.499 . S
C3771 C3772 1.373 . S
C3771 C3773 1.389 . S
C3772 H3745 0.950 . S
C3772 C3758 1.377 . S
C3772 C3771 1.373 . S
C3773 C3757 1.377 . S
C3773 C3771 1.389 . S
C3773 C3774 1.524 . S
C3774 C3773 1.524 . S
C3774 C3775 1.397 . S
C3774 C3779 1.363 . S
C3775 H3746 0.950 . S
C3775 C3774 1.397 . S
C3775 C3776 1.334 . S
C3776 H3747 0.950 . S
C3776 C3775 1.334 . S
C3776 C3777 1.287 . S
C3777 C3776 1.287 . S
C3777 C3778 1.524 . S
C3777 H3780 0.999 . S
C3778 H3748 0.950 . S
C3778 C3777 1.524 . S
C3778 C3779 1.415 . S
C3779 H3749 0.950 . S
C3779 C3774 1.363 . S
C3779 C3778 1.415 . S
H3780 C3777 0.999 . S
H3781 C3762 0.913 . S
H3782 C3800 0.951 . S
H3783 C3802 0.951 . S
H3784 C3804 0.950 . S
H3785 C3805 0.950 . S
H3786 C3807 0.950 . S
H3787 C3810 0.950 . S
H3788 C3811 0.950 . S
H3789 C3813 0.950 . S
H3790 C3814 0.950 . S
H3791 C3815 0.951 . S
H3792 C3817 0.951 . S
H3793 C3819 0.950 . S
H3794 C3820 0.950 . S
H3795 C3822 0.950 . S
H3796 C3825 0.950 . S
H3797 C3826 0.950 . S
H3798 C3828 0.950 . S
H3799 C3829 0.950 . S
C3800 H3782 0.951 . S
C3800 C3801 1.366 . S
C3800 C3802 1.388 . S
C3801 C3800 1.366 . S
C3801 C3805 1.385 . S
C3802 H3783 0.951 . S
C3802 C3800 1.388 . S
C3802 C3803 1.366 . S
C3803 C3802 1.366 . S
C3803 C3804 1.414 . S
C3803 C3806 1.499 . S
C3804 H3784 0.950 . S
C3804 C3803 1.414 . S
C3804 C3805 1.374 . S
C3805 H3785 0.950 . S
C3805 C3801 1.385 . S
C3805 C3804 1.374 . S
C3806 C3803 1.499 . S
C3806 C3807 1.373 . S
C3806 C3808 1.389 . S
C3807 H3786 0.950 . S
C3807 C3806 1.373 . S
C3807 C3823 1.377 . S
C3808 C3806 1.389 . S
C3808 C3809 1.524 . S
C3808 C3822 1.377 . S
C3809 C3808 1.524 . S
C3809 C3810 1.397 . S
C3809 C3814 1.363 . S
C3810 H3787 0.950 . S
C3810 C3809 1.397 . S
C3810 C3811 1.334 . S
C3811 H3788 0.950 . S
C3811 C3810 1.334 . S
C3811 C3812 1.287 . S
C3812 C3811 1.287 . S
C3812 C3813 1.524 . S
C3812 H3831 0.913 . S
C3813 H3789 0.950 . S
C3813 C3812 1.524 . S
C3813 C3814 1.415 . S
C3814 H3790 0.950 . S
C3814 C3809 1.363 . S
C3814 C3813 1.415 . S
C3815 H3791 0.951 . S
C3815 C3816 1.366 . S
C3815 C3817 1.388 . S
C3816 C3815 1.366 . S
C3816 C3820 1.385 . S
C3817 H3792 0.951 . S
C3817 C3815 1.388 . S
C3817 C3818 1.366 . S
C3818 C3817 1.366 . S
C3818 C3819 1.414 . S
C3818 C3821 1.499 . S
C3819 H3793 0.950 . S
C3819 C3818 1.414 . S
C3819 C3820 1.374 . S
C3820 H3794 0.950 . S
C3820 C3816 1.385 . S
C3820 C3819 1.374 . S
C3821 C3818 1.499 . S
C3821 C3822 1.373 . S
C3821 C3823 1.389 . S
C3822 H3795 0.950 . S
C3822 C3808 1.377 . S
C3822 C3821 1.373 . S
C3823 C3807 1.377 . S
C3823 C3821 1.389 . S
C3823 C3824 1.524 . S
C3824 C3823 1.524 . S
C3824 C3825 1.397 . S
C3824 C3829 1.363 . S
C3825 H3796 0.950 . S
C3825 C3824 1.397 . S
C3825 C3826 1.334 . S
C3826 H3797 0.950 . S
C3826 C3825 1.334 . S
C3826 C3827 1.287 . S
C3827 C3826 1.287 . S
C3827 C3828 1.524 . S
C3827 H3830 0.999 . S
C3828 H3798 0.950 . S
C3828 C3827 1.524 . S
C3828 C3829 1.415 . S
C3829 H3799 0.950 . S
C3829 C3824 1.363 . S
C3829 C3828 1.415 . S
H3830 C3827 0.999 . S
H3831 C3812 0.913 . S
H3832 C3850 0.951 . S
H3833 C3852 0.951 . S
H3834 C3854 0.950 . S
H3835 C3855 0.950 . S
H3836 C3857 0.950 . S
H3837 C3860 0.950 . S
H3838 C3861 0.950 . S
H3839 C3863 0.950 . S
H3840 C3864 0.950 . S
H3841 C3865 0.951 . S
H3842 C3867 0.951 . S
H3843 C3869 0.950 . S
H3844 C3870 0.950 . S
H3845 C3872 0.950 . S
H3846 C3875 0.950 . S
H3847 C3876 0.950 . S
H3848 C3878 0.950 . S
H3849 C3879 0.950 . S
C3850 H3832 0.951 . S
C3850 C3851 1.366 . S
C3850 C3852 1.388 . S
C3851 C3850 1.366 . S
C3851 C3855 1.385 . S
C3852 H3833 0.951 . S
C3852 C3850 1.388 . S
C3852 C3853 1.366 . S
C3853 C3852 1.366 . S
C3853 C3854 1.414 . S
C3853 C3856 1.499 . S
C3854 H3834 0.950 . S
C3854 C3853 1.414 . S
C3854 C3855 1.374 . S
C3855 H3835 0.950 . S
C3855 C3851 1.385 . S
C3855 C3854 1.374 . S
C3856 C3853 1.499 . S
C3856 C3857 1.373 . S
C3856 C3858 1.389 . S
C3857 H3836 0.950 . S
C3857 C3856 1.373 . S
C3857 C3873 1.377 . S
C3858 C3856 1.389 . S
C3858 C3859 1.524 . S
C3858 C3872 1.377 . S
C3859 C3858 1.524 . S
C3859 C3860 1.397 . S
C3859 C3864 1.363 . S
C3860 H3837 0.950 . S
C3860 C3859 1.397 . S
C3860 C3861 1.334 . S
C3861 H3838 0.950 . S
C3861 C3860 1.334 . S
C3861 C3862 1.287 . S
C3862 C3861 1.287 . S
C3862 C3863 1.524 . S
C3862 H3881 0.913 . S
C3863 H3839 0.950 . S
C3863 C3862 1.524 . S
C3863 C3864 1.415 . S
C3864 H3840 0.950 . S
C3864 C3859 1.363 . S
C3864 C3863 1.415 . S
C3865 H3841 0.951 . S
C3865 C3866 1.366 . S
C3865 C3867 1.388 . S
C3866 C3865 1.366 . S
C3866 C3870 1.385 . S
C3867 H3842 0.951 . S
C3867 C3865 1.388 . S
C3867 C3868 1.366 . S
C3868 C3867 1.366 . S
C3868 C3869 1.414 . S
C3868 C3871 1.499 . S
C3869 H3843 0.950 . S
C3869 C3868 1.414 . S
C3869 C3870 1.374 . S
C3870 H3844 0.950 . S
C3870 C3866 1.385 . S
C3870 C3869 1.374 . S
C3871 C3868 1.499 . S
C3871 C3872 1.373 . S
C3871 C3873 1.389 . S
C3872 H3845 0.950 . S
C3872 C3858 1.377 . S
C3872 C3871 1.373 . S
C3873 C3857 1.377 . S
C3873 C3871 1.389 . S
C3873 C3874 1.524 . S
C3874 C3873 1.524 . S
C3874 C3875 1.397 . S
C3874 C3879 1.363 . S
C3875 H3846 0.950 . S
C3875 C3874 1.397 . S
C3875 C3876 1.334 . S
C3876 H3847 0.950 . S
C3876 C3875 1.334 . S
C3876 C3877 1.287 . S
C3877 C3876 1.287 . S
C3877 C3878 1.524 . S
C3877 H3880 0.999 . S
C3878 H3848 0.950 . S
C3878 C3877 1.524 . S
C3878 C3879 1.415 . S
C3879 H3849 0.950 . S
C3879 C3874 1.363 . S
C3879 C3878 1.415 . S
H3880 C3877 0.999 . S
H3881 C3862 0.913 . S
H3882 C3900 0.951 . S
H3883 C3902 0.951 . S
H3884 C3904 0.950 . S
H3885 C3905 0.950 . S
H3886 C3907 0.950 . S
H3887 C3910 0.950 . S
H3888 C3911 0.950 . S
H3889 C3913 0.950 . S
H3890 C3914 0.950 . S
H3891 C3915 0.951 . S
H3892 C3917 0.951 . S
H3893 C3919 0.950 . S
H3894 C3920 0.950 . S
H3895 C3922 0.950 . S
H3896 C3925 0.950 . S
H3897 C3926 0.950 . S
H3898 C3928 0.950 . S
H3899 C3929 0.950 . S
C3900 H3882 0.951 . S
C3900 C3901 1.366 . S
C3900 C3902 1.388 . S
C3901 C3900 1.366 . S
C3901 C3905 1.385 . S
C3902 H3883 0.951 . S
C3902 C3900 1.388 . S
C3902 C3903 1.366 . S
C3903 C3902 1.366 . S
C3903 C3904 1.414 . S
C3903 C3906 1.499 . S
C3904 H3884 0.950 . S
C3904 C3903 1.414 . S
C3904 C3905 1.374 . S
C3905 H3885 0.950 . S
C3905 C3901 1.385 . S
C3905 C3904 1.374 . S
C3906 C3903 1.499 . S
C3906 C3907 1.373 . S
C3906 C3908 1.389 . S
C3907 H3886 0.950 . S
C3907 C3906 1.373 . S
C3907 C3923 1.377 . S
C3908 C3906 1.389 . S
C3908 C3909 1.524 . S
C3908 C3922 1.377 . S
C3909 C3908 1.524 . S
C3909 C3910 1.397 . S
C3909 C3914 1.363 . S
C3910 H3887 0.950 . S
C3910 C3909 1.397 . S
C3910 C3911 1.334 . S
C3911 H3888 0.950 . S
C3911 C3910 1.334 . S
C3911 C3912 1.287 . S
C3912 C3911 1.287 . S
C3912 C3913 1.524 . S
C3912 H3931 0.913 . S
C3913 H3889 0.950 . S
C3913 C3912 1.524 . S
C3913 C3914 1.415 . S
C3914 H3890 0.950 . S
C3914 C3909 1.363 . S
C3914 C3913 1.415 . S
C3915 H3891 0.951 . S
C3915 C3916 1.366 . S
C3915 C3917 1.388 . S
C3916 C3915 1.366 . S
C3916 C3920 1.385 . S
C3917 H3892 0.951 . S
C3917 C3915 1.388 . S
C3917 C3918 1.366 . S
C3918 C3917 1.366 . S
C3918 C3919 1.414 . S
C3918 C3921 1.499 . S
C3919 H3893 0.950 . S
C3919 C3918 1.414 . S
C3919 C3920 1.374 . S
C3920 H3894 0.950 . S
C3920 C3916 1.385 . S
C3920 C3919 1.374 . S
C3921 C3918 1.499 . S
C3921 C3922 1.373 . S
C3921 C3923 1.389 . S
C3922 H3895 0.950 . S
C3922 C3908 1.377 . S
C3922 C3921 1.373 . S
C3923 C3907 1.377 . S
C3923 C3921 1.389 . S
C3923 C3924 1.524 . S
C3924 C3923 1.524 . S
C3924 C3925 1.397 . S
C3924 C3929 1.363 . S
C3925 H3896 0.950 . S
C3925 C3924 1.397 . S
C3925 C3926 1.334 . S
C3926 H3897 0.950 . S
C3926 C3925 1.334 . S
C3926 C3927 1.287 . S
C3927 C3926 1.287 . S
C3927 C3928 1.524 . S
C3927 H3930 0.999 . S
C3928 H3898 0.950 . S
C3928 C3927 1.524 . S
C3928 C3929 1.415 . S
C3929 H3899 0.950 . S
C3929 C3924 1.363 . S
C3929 C3928 1.415 . S
H3930 C3927 0.999 . S
H3931 C3912 0.913 . S
H3932 C3950 0.951 . S
H3933 C3952 0.951 . S
H3934 C3954 0.950 . S
H3935 C3955 0.950 . S
H3936 C3957 0.950 . S
H3937 C3960 0.950 . S
H3938 C3961 0.950 . S
H3939 C3963 0.950 . S
H3940 C3964 0.950 . S
H3941 C3965 0.951 . S
H3942 C3967 0.951 . S
H3943 C3969 0.950 . S
H3944 C3970 0.950 . S
H3945 C3972 0.950 . S
H3946 C3975 0.950 . S
H3947 C3976 0.950 . S
H3948 C3978 0.950 . S
H3949 C3979 0.950 . S
C3950 H3932 0.951 . S
C3950 C3951 1.366 . S
C3950 C3952 1.388 . S
C3951 C3950 1.366 . S
C3951 C3955 1.385 . S
C3952 H3933 0.951 . S
C3952 C3950 1.388 . S
C3952 C3953 1.366 . S
C3953 C3952 1.366 . S
C3953 C3954 1.414 . S
C3953 C3956 1.499 . S
C3954 H3934 0.950 . S
C3954 C3953 1.414 . S
C3954 C3955 1.374 . S
C3955 H3935 0.950 . S
C3955 C3951 1.385 . S
C3955 C3954 1.374 . S
C3956 C3953 1.499 . S
C3956 C3957 1.373 . S
C3956 C3958 1.389 . S
C3957 H3936 0.950 . S
C3957 C3956 1.373 . S
C3957 C3973 1.377 . S
C3958 C3956 1.389 . S
C3958 C3959 1.524 . S
C3958 C3972 1.377 . S
C3959 C3958 1.524 . S
C3959 C3960 1.397 . S
C3959 C3964 1.363 . S
C3960 H3937 0.950 . S
C3960 C3959 1.397 . S
C3960 C3961 1.334 . S
C3961 H3938 0.950 . S
C3961 C3960 1.334 . S
C3961 C3962 1.287 . S
C3962 C3961 1.287 . S
C3962 C3963 1.524 . S
C3962 H3981 0.913 . S
C3963 H3939 0.950 . S
C3963 C3962 1.524 . S
C3963 C3964 1.415 . S
C3964 H3940 0.950 . S
C3964 C3959 1.363 . S
C3964 C3963 1.415 . S
C3965 H3941 0.951 . S
C3965 C3966 1.366 . S
C3965 C3967 1.388 . S
C3966 C3965 1.366 . S
C3966 C3970 1.385 . S
C3967 H3942 0.951 . S
C3967 C3965 1.388 . S
C3967 C3968 1.366 . S
C3968 C3967 1.366 . S
C3968 C3969 1.414 . S
C3968 C3971 1.499 . S
C3969 H3943 0.950 . S
C3969 C3968 1.414 . S
C3969 C3970 1.374 . S
C3970 H3944 0.950 . S
C3970 C3966 1.385 . S
C3970 C3969 1.374 . S
C3971 C3968 1.499 . S
C3971 C3972 1.373 . S
C3971 C3973 1.389 . S
C3972 H3945 0.950 . S
C3972 C3958 1.377 . S
C3972 C3971 1.373 . S
C3973 C3957 1.377 . S
C3973 C3971 1.389 . S
C3973 C3974 1.524 . S
C3974 C3973 1.524 . S
C3974 C3975 1.397 . S
C3974 C3979 1.363 . S
C3975 H3946 0.950 . S
C3975 C3974 1.397 . S
C3975 C3976 1.334 . S
C3976 H3947 0.950 . S
C3976 C3975 1.334 . S
C3976 C3977 1.287 . S
C3977 C3976 1.287 . S
C3977 C3978 1.524 . S
C3977 H3980 0.999 . S
C3978 H3948 0.950 . S
C3978 C3977 1.524 . S
C3978 C3979 1.415 . S
C3979 H3949 0.950 . S
C3979 C3974 1.363 . S
C3979 C3978 1.415 . S
H3980 C3977 0.999 . S
H3981 C3962 0.913 . S
H3982 C4000 0.951 . S
H3983 C4002 0.951 . S
H3984 C4004 0.950 . S
H3985 C4005 0.950 . S
H3986 C4007 0.950 . S
H3987 C4010 0.950 . S
H3988 C4011 0.950 . S
H3989 C4013 0.950 . S
H3990 C4014 0.950 . S
H3991 C4015 0.951 . S
H3992 C4017 0.951 . S
H3993 C4019 0.950 . S
H3994 C4020 0.950 . S
H3995 C4022 0.950 . S
H3996 C4025 0.950 . S
H3997 C4026 0.950 . S
H3998 C4028 0.950 . S
H3999 C4029 0.950 . S
C4000 H3982 0.951 . S
C4000 C4001 1.366 . S
C4000 C4002 1.388 . S
C4001 C4000 1.366 . S
C4001 C4005 1.385 . S
C4002 H3983 0.951 . S
C4002 C4000 1.388 . S
C4002 C4003 1.366 . S
C4003 C4002 1.366 . S
C4003 C4004 1.414 . S
C4003 C4006 1.499 . S
C4004 H3984 0.950 . S
C4004 C4003 1.414 . S
C4004 C4005 1.374 . S
C4005 H3985 0.950 . S
C4005 C4001 1.385 . S
C4005 C4004 1.374 . S
C4006 C4003 1.499 . S
C4006 C4007 1.373 . S
C4006 C4008 1.389 . S
C4007 H3986 0.950 . S
C4007 C4006 1.373 . S
C4007 C4023 1.377 . S
C4008 C4006 1.389 . S
C4008 C4009 1.524 . S
C4008 C4022 1.377 . S
C4009 C4008 1.524 . S
C4009 C4010 1.397 . S
C4009 C4014 1.363 . S
C4010 H3987 0.950 . S
C4010 C4009 1.397 . S
C4010 C4011 1.334 . S
C4011 H3988 0.950 . S
C4011 C4010 1.334 . S
C4011 C4012 1.287 . S
C4012 C4011 1.287 . S
C4012 C4013 1.524 . S
C4012 H4031 0.913 . S
C4013 H3989 0.950 . S
C4013 C4012 1.524 . S
C4013 C4014 1.415 . S
C4014 H3990 0.950 . S
C4014 C4009 1.363 . S
C4014 C4013 1.415 . S
C4015 H3991 0.951 . S
C4015 C4016 1.366 . S
C4015 C4017 1.388 . S
C4016 C4015 1.366 . S
C4016 C4020 1.385 . S
C4017 H3992 0.951 . S
C4017 C4015 1.388 . S
C4017 C4018 1.366 . S
C4018 C4017 1.366 . S
C4018 C4019 1.414 . S
C4018 C4021 1.499 . S
C4019 H3993 0.950 . S
C4019 C4018 1.414 . S
C4019 C4020 1.374 . S
C4020 H3994 0.950 . S
C4020 C4016 1.385 . S
C4020 C4019 1.374 . S
C4021 C4018 1.499 . S
C4021 C4022 1.373 . S
C4021 C4023 1.389 . S
C4022 H3995 0.950 . S
C4022 C4008 1.377 . S
C4022 C4021 1.373 . S
C4023 C4007 1.377 . S
C4023 C4021 1.389 . S
C4023 C4024 1.524 . S
C4024 C4023 1.524 . S
C4024 C4025 1.397 . S
C4024 C4029 1.363 . S
C4025 H3996 0.950 . S
C4025 C4024 1.397 . S
C4025 C4026 1.334 . S
C4026 H3997 0.950 . S
C4026 C4025 1.334 . S
C4026 C4027 1.287 . S
C4027 C4026 1.287 . S
C4027 C4028 1.524 . S
C4027 H4030 0.999 . S
C4028 H3998 0.950 . S
C4028 C4027 1.524 . S
C4028 C4029 1.415 . S
C4029 H3999 0.950 . S
C4029 C4024 1.363 . S
C4029 C4028 1.415 . S
H4030 C4027 0.999 . S
H4031 C4012 0.913 . S
C1351 C439 1.330 . S
C1366 C643 1.298 . S
C1401 C465 1.492 . S
C1416 C727 1.428 . S
C1451 C401 1.442 . S
C1466 C807 1.407 . S
C1501 C369 1.396 . S
C1516 C723 1.369 . S
C1566 C811 1.358 . S
C1551 C305 1.424 . S
C1601 C343 1.288 . S
C1616 C639 1.298 . S
C1666 C632 1.338 . S
C1651 C375 1.404 . S
C1716 C716 1.392 . S
C1701 C311 1.454 . S
C1751 C337 1.402 . S
C1766 C818 1.407 . S
C1801 C433 1.367 . S
C1816 C734 1.368 . S
C1851 C471 1.386 . S
C1866 C800 1.321 . S
C1916 C650 1.338 . S
C1901 C407 1.371 . S
C1966 C895 1.297 . S
C1951 C55 1.330 . S
C2001 C81 1.492 . S
C2016 C979 1.428 . S
C2051 C17 1.442 . S
C2066 C1059 1.408 . S
C2101 C561 1.396 . S
C2116 C975 1.369 . S
C2151 C497 1.424 . S
C2166 C1063 1.358 . S
C2201 C535 1.289 . S
C2216 C891 1.298 . S
C2251 C567 1.404 . S
C2266 C884 1.337 . S
C2301 C503 1.454 . S
C2316 C968 1.392 . S
C2366 C1070 1.407 . S
C2351 C529 1.402 . S
C2401 C49 1.366 . S
C2416 C986 1.368 . S
C2466 C1052 1.323 . S
C2451 C87 1.386 . S
C2501 C23 1.371 . S
C2516 C902 1.338 . S
C2566 C1147 1.297 . S
C2551 C247 1.329 . S
C2601 C273 1.492 . S
C2616 C1231 1.429 . S
C2666 C1311 1.407 . S
C2651 C209 1.443 . S
C2716 C1227 1.368 . S
C2701 C177 1.396 . S
C2766 C1315 1.359 . S
C2751 C113 1.424 . S
C2801 C151 1.288 . S
C2816 C1143 1.297 . S
C2851 C183 1.404 . S
C2866 C1136 1.337 . S
C2901 C119 1.454 . S
C2916 C1220 1.393 . S
C2966 C1322 1.407 . S
C2951 C145 1.402 . S
C3001 C241 1.367 . S
C3016 C1238 1.369 . S
C3051 C279 1.385 . S
C3066 C1304 1.322 . S
C3101 C215 1.370 . S
C3116 C1154 1.338 . S
C3151 C509 1.426 . S
C3166 C646 1.335 . S
C3216 C730 1.332 . S
C3201 C541 1.432 . S
C3251 C573 1.440 . S
C3266 C802 1.330 . S
C3301 C221 1.485 . S
C3316 C718 1.357 . S
C3351 C253 1.400 . S
C3366 C814 1.302 . S
C3416 C634 1.332 . S
C3401 C285 1.426 . S
C3451 C125 1.426 . S
C3466 C898 1.334 . S
C3501 C157 1.431 . S
C3516 C982 1.330 . S
C3551 C189 1.441 . S
C3566 C1054 1.329 . S
C3601 C413 1.485 . S
C3616 C970 1.357 . S
C3666 C1066 1.302 . S
C3651 C445 1.399 . S
C3701 C477 1.425 . S
C3716 C886 1.332 . S
C3751 C317 1.426 . S
C3766 C1150 1.334 . S
C3801 C349 1.432 . S
C3816 C1234 1.331 . S
C3866 C1306 1.329 . S
C3851 C381 1.441 . S
C3901 C29 1.484 . S
C3916 C1222 1.358 . S
C3951 C61 1.400 . S
C3966 C1318 1.303 . S
C4001 C93 1.426 . S
C4016 C1138 1.332 . S
