# Generated by pormake.
# Topology pth, (4,4)-cn, num edge types: 1
# Building blocks:
#     Node 0, Type 0, BuildingBlock: AZAVOO_clean_sbu_0, # of connection points: 4
#     Node 1, Type 0, BuildingBlock: AZAVOO_clean_sbu_0, # of connection points: 4
#     Node 2, Type 0, BuildingBlock: AZAVOO_clean_sbu_0, # of connection points: 4
#     Node 3, Type 1, BuildingBlock: NAHDIM_clean_linker_0, # of connection points: 4
#     Node 4, Type 1, BuildingBlock: NAHDIM_clean_linker_0, # of connection points: 4
#     Node 5, Type 1, BuildingBlock: NAHDIM_clean_linker_0, # of connection points: 4
#     Edge 6, Type (0, 1), BuildingBlock: XUDNAN_clean_linker_2, # of connection points: 2
#     Edge 7, Type (0, 1), BuildingBlock: XUDNAN_clean_linker_2, # of connection points: 2
#     Edge 8, Type (0, 1), BuildingBlock: XUDNAN_clean_linker_2, # of connection points: 2
#     Edge 9, Type (0, 1), BuildingBlock: XUDNAN_clean_linker_2, # of connection points: 2
#     Edge 10, Type (0, 1), BuildingBlock: XUDNAN_clean_linker_2, # of connection points: 2
#     Edge 11, Type (0, 1), BuildingBlock: XUDNAN_clean_linker_2, # of connection points: 2
#     Edge 12, Type (0, 1), BuildingBlock: XUDNAN_clean_linker_2, # of connection points: 2
#     Edge 13, Type (0, 1), BuildingBlock: XUDNAN_clean_linker_2, # of connection points: 2
#     Edge 14, Type (0, 1), BuildingBlock: XUDNAN_clean_linker_2, # of connection points: 2
#     Edge 15, Type (0, 1), BuildingBlock: XUDNAN_clean_linker_2, # of connection points: 2
#     Edge 16, Type (0, 1), BuildingBlock: XUDNAN_clean_linker_2, # of connection points: 2
#     Edge 17, Type (0, 1), BuildingBlock: XUDNAN_clean_linker_2, # of connection points: 2
# Relax obj value: 0.086
# Max RMSD: 0.220
# Mean RMSD: 0.131
data_MOF--net-pth--node1-AZAVOO_clean_sbu_0--node2-NAHDIM_clean_linker_0--edge1-XUDNAN_clean_linker_2
_symmetry_space_group_name_H-M    P1
_symmetry_Int_Tables_number       1
_symmetry_cell_setting            triclinic
loop_
_symmetry_equiv_pos_as_xyz
'x, y, z'
_cell_length_a     31.458684
_cell_length_b     32.047216
_cell_length_c     79.510332
_cell_angle_alpha  90.410824
_cell_angle_beta   93.196582
_cell_angle_gamma 121.94004
loop_
_atom_site_label
_atom_site_type_symbol
_atom_site_fract_x
_atom_site_fract_y
_atom_site_fract_z
_atom_type_partial_charge
Mg0 Mg 0.10097 0.08796 0.0392 0.0
O1 O 0.03376 0.03577 0.02111 0.0
O2 O 0.00417 0.07654 0.00734 0.0
Mg3 Mg 0.05315 0.15674 0.0172 0.0
C4 C 0.00266 0.03677 0.0104 0.0
C5 C 0.10137 0.01699 0.06668 0.0
O6 O 0.11846 0.05615 0.07674 0.0
O7 O 0.0494 0.09119 0.0576 0.0
O8 O 0.02222 0.13359 0.04323 0.0
O9 O 0.15217 0.10645 0.01814 0.0
O10 O 0.11622 0.14727 0.02462 0.0
C11 C 0.0232 0.11089 0.05625 0.0
C12 C 0.14388 0.14119 0.01485 0.0
O13 O 0.09276 0.01969 0.05105 0.0
Mg14 Mg 0.01553 0.08063 0.36276 0.0
O15 O 0.07072 0.07833 0.3822 0.0
O16 O 0.08447 0.12855 0.40422 0.0
Mg17 Mg 0.03783 0.16326 0.39874 0.0
C18 C 0.09199 0.09792 0.39669 0.0
C19 C 0.02429 0.99828 0.34597 0.0
O20 O 0.00186 0.97718 0.35963 0.0
O21 O 0.07639 0.15594 0.35488 0.0
O22 O 0.08659 0.20517 0.37684 0.0
O23 O 0.95153 0.0204 0.37546 0.0
O24 O 0.98472 0.09944 0.38179 0.0
C25 C 0.09716 0.19858 0.36213 0.0
C26 C 0.95312 0.05423 0.38497 0.0
O27 O 0.03554 0.04199 0.34341 0.0
Mg28 Mg 0.96453 0.00758 0.67943 0.0
O29 O 0.02557 0.06781 0.69756 0.0
O30 O 0.99023 0.08945 0.71654 0.0
Mg31 Mg 0.90514 0.04109 0.7107 0.0
C32 C 0.02896 0.09395 0.71035 0.0
C33 C 0.04011 0.99107 0.66166 0.0
O34 O 0.01597 0.95058 0.66999 0.0
O35 O 0.95251 0.06441 0.66645 0.0
O36 O 0.91301 0.07954 0.68581 0.0
O37 O 0.95889 0.95019 0.69654 0.0
O38 O 0.91387 0.98418 0.69845 0.0
C39 C 0.93052 0.08592 0.67129 0.0
C40 C 0.92704 0.95517 0.70454 0.0
O41 O 0.02615 0.0217 0.66218 0.0
C42 C 0.99075 0.74478 0.25654 0.0
C43 C 0.0279 0.75396 0.27158 0.0
C44 C 0.0787 0.72461 0.25976 0.0
C45 C 0.12469 0.73935 0.25319 0.0
C46 C 0.13344 0.70495 0.24573 0.0
C47 C 0.09506 0.65452 0.24484 0.0
C48 C 0.04899 0.63907 0.25194 0.0
C49 C 0.04131 0.67416 0.25937 0.0
C50 C 0.18312 0.72249 0.2384 0.0
C51 C 0.00738 0.58544 0.25133 0.0
C52 C 0.26162 0.44937 0.26679 0.0
C53 C 0.23263 0.45652 0.28023 0.0
C54 C 0.17187 0.47265 0.26554 0.0
C55 C 0.12064 0.45463 0.26293 0.0
C56 C 0.1035 0.4816 0.25433 0.0
C57 C 0.13866 0.52723 0.24773 0.0
C58 C 0.19068 0.54611 0.25049 0.0
C59 C 0.20684 0.51882 0.25949 0.0
C60 C 0.04776 0.46083 0.25203 0.0
C61 C 0.22913 0.59463 0.2436 0.0
C62 C 0.00914 0.35109 0.15191 0.0
C63 C 0.97582 0.35662 0.16138 0.0
C64 C 0.98684 0.40348 0.16653 0.0
C65 C 0.03233 0.44576 0.16232 0.0
C66 C 0.06555 0.44049 0.15258 0.0
C67 C 0.05344 0.39313 0.14749 0.0
C68 C 0.95028 0.40774 0.17683 0.0
C69 C 0.11435 0.4848 0.14794 0.0
C70 C 0.95329 0.72718 0.14403 0.0
C71 C 0.99796 0.73029 0.13604 0.0
C72 C 0.99736 0.65464 0.13787 0.0
C73 C 0.96 0.6081 0.14257 0.0
C74 C 0.97241 0.57819 0.15169 0.0
C75 C 0.0236 0.59486 0.15563 0.0
C76 C 0.06156 0.64085 0.14994 0.0
C77 C 0.04795 0.67057 0.14131 0.0
C78 C 0.93082 0.52952 0.15751 0.0
C79 C 0.11653 0.65912 0.15325 0.0
C80 C 0.10153 0.61799 0.23565 0.0
C81 C 0.11909 0.59235 0.24482 0.0
C82 C 0.12094 0.55392 0.23721 0.0
C83 C 0.1044 0.54023 0.22001 0.0
C84 C 0.10386 0.5005 0.21212 0.0
C85 C 0.08481 0.48556 0.1955 0.0
C86 C 0.06726 0.51087 0.18593 0.0
C87 C 0.04617 0.49489 0.16923 0.0
C88 C 0.03304 0.52322 0.15956 0.0
C89 C 0.03753 0.56576 0.16651 0.0
C90 C 0.05409 0.57957 0.18372 0.0
C91 C 0.05431 0.61911 0.19163 0.0
C92 C 0.06987 0.63181 0.20861 0.0
C93 C 0.08659 0.606 0.21829 0.0
C94 C 0.0874 0.56655 0.21052 0.0
C95 C 0.07002 0.55261 0.19333 0.0
C96 C 0.96346 0.24323 0.16707 0.0
C97 C 0.95887 0.26029 0.14946 0.0
O98 O 0.07189 0.76016 0.26606 0.0
O99 O 0.98392 0.6837 0.12999 0.0
O100 O 0.00065 0.30635 0.14699 0.0
O101 O 0.1854 0.44369 0.27358 0.0
H102 H 0.01037 0.72206 0.27987 0.0
H103 H 0.9796 0.71024 0.24939 0.0
H104 H 0.00785 0.77554 0.2478 0.0
H105 H 0.95618 0.74123 0.26102 0.0
H106 H 0.15351 0.7782 0.25364 0.0
H107 H 0.00568 0.66167 0.26458 0.0
H108 H 0.19989 0.70204 0.24375 0.0
H109 H 0.21016 0.76256 0.24092 0.0
H110 H 0.17705 0.71472 0.22456 0.0
H111 H 0.9741 0.57919 0.25773 0.0
H112 H 0.0213 0.56344 0.25744 0.0
H113 H 0.99545 0.57161 0.23801 0.0
H114 H 0.25433 0.4958 0.2848 0.0
H115 H 0.29863 0.45775 0.27238 0.0
H116 H 0.26842 0.4745 0.25635 0.0
H117 H 0.24026 0.41103 0.26137 0.0
H118 H 0.09396 0.41909 0.26769 0.0
H119 H 0.24664 0.53338 0.26141 0.0
H120 H 0.03951 0.48944 0.25534 0.0
H121 H 0.02598 0.42858 0.25988 0.0
H122 H 0.0347 0.44908 0.23861 0.0
H123 H 0.26815 0.60358 0.24636 0.0
H124 H 0.22581 0.62459 0.24915 0.0
H125 H 0.22184 0.59368 0.22973 0.0
H126 H 0.92429 0.26175 0.14833 0.0
H127 H 0.94148 0.32476 0.16505 0.0
H128 H 0.07895 0.38865 0.14018 0.0
H129 H 0.96743 0.42175 0.18981 0.0
H130 H 0.91444 0.37188 0.17764 0.0
H131 H 0.94189 0.43449 0.17126 0.0
H132 H 0.1358 0.47461 0.14004 0.0
H133 H 0.13794 0.50494 0.15959 0.0
H134 H 0.10675 0.51034 0.14096 0.0
H135 H 0.02935 0.74423 0.14602 0.0
H136 H 0.96377 0.76379 0.14939 0.0
H137 H 0.94136 0.70106 0.1544 0.0
H138 H 0.92108 0.71401 0.13451 0.0
H139 H 0.92101 0.59606 0.1396 0.0
H140 H 0.07666 0.70623 0.1372 0.0
H141 H 0.93695 0.52664 0.17124 0.0
H142 H 0.93105 0.49908 0.15086 0.0
H143 H 0.89323 0.52443 0.155 0.0
H144 H 0.14052 0.69038 0.1453 0.0
H145 H 0.12333 0.62902 0.15082 0.0
H146 H 0.1282 0.67175 0.16667 0.0
H147 H 0.13031 0.60165 0.25814 0.0
H148 H 0.11719 0.47981 0.21879 0.0
H149 H 0.08435 0.4541 0.1902 0.0
H150 H 0.01798 0.51134 0.14662 0.0
H151 H 0.0417 0.64025 0.18486 0.0
H152 H 0.06871 0.66226 0.21402 0.0
H153 H 0.93088 0.20555 0.16877 0.0
H154 H 0.96393 0.26824 0.17691 0.0
H155 H 0.99865 0.24315 0.16902 0.0
C156 C 0.40583 0.18598 0.62932 0.0
C157 C 0.3721 0.14724 0.61539 0.0
C158 C 0.43162 0.13323 0.60105 0.0
C159 C 0.45617 0.17776 0.59268 0.0
C160 C 0.4959 0.18886 0.58258 0.0
C161 C 0.51129 0.15488 0.58087 0.0
C162 C 0.48687 0.11032 0.58941 0.0
C163 C 0.44725 0.10009 0.59931 0.0
C164 C 0.52117 0.23658 0.57359 0.0
C165 C 0.50249 0.07332 0.58801 0.0
C166 C 0.89724 0.36633 0.62025 0.0
C167 C 0.85299 0.31407 0.61586 0.0
C168 C 0.79111 0.28147 0.59178 0.0
C169 C 0.7564 0.23563 0.59803 0.0
C170 C 0.70763 0.20661 0.5903 0.0
C171 C 0.69283 0.22458 0.57638 0.0
C172 C 0.7277 0.27124 0.57027 0.0
C173 C 0.77679 0.29839 0.57779 0.0
C174 C 0.67213 0.1567 0.59701 0.0
C175 C 0.71326 0.29288 0.55589 0.0
C176 C 0.70356 0.07342 0.48176 0.0
C177 C 0.67318 0.04301 0.49423 0.0
C178 C 0.63777 0.05077 0.50117 0.0
C179 C 0.63313 0.09028 0.4958 0.0
C180 C 0.6634 0.12085 0.48323 0.0
C181 C 0.69806 0.11181 0.47632 0.0
C182 C 0.60551 0.01687 0.51438 0.0
C183 C 0.65955 0.1634 0.47729 0.0
C184 C 0.24296 0.97879 0.48716 0.0
C185 C 0.28477 0.01799 0.47705 0.0
C186 C 0.36402 0.0216 0.47922 0.0
C187 C 0.37915 0.9903 0.48523 0.0
C188 C 0.42747 0.0093 0.49297 0.0
C189 C 0.46181 0.06089 0.49417 0.0
C190 C 0.44752 0.09256 0.48712 0.0
C191 C 0.39853 0.07254 0.47985 0.0
C192 C 0.44129 0.97434 0.50026 0.0
C193 C 0.48369 0.14759 0.48751 0.0
C194 C 0.55218 0.16488 0.56994 0.0
C195 C 0.60161 0.19099 0.57704 0.0
C196 C 0.64093 0.19498 0.5683 0.0
C197 C 0.63048 0.17129 0.55216 0.0
C198 C 0.66802 0.17043 0.54363 0.0
C199 C 0.65728 0.14708 0.52776 0.0
C200 C 0.60873 0.12423 0.51972 0.0
C201 C 0.59722 0.09979 0.5037 0.0
C202 C 0.54945 0.08021 0.49559 0.0
C203 C 0.51171 0.08191 0.50347 0.0
C204 C 0.52146 0.10274 0.52005 0.0
C205 C 0.48329 0.10125 0.52896 0.0
C206 C 0.49319 0.1214 0.54532 0.0
C207 C 0.54186 0.14476 0.55327 0.0
C208 C 0.58102 0.14734 0.54445 0.0
C209 C 0.57048 0.12504 0.52801 0.0
C210 C 0.78746 0.05159 0.49488 0.0
C211 C 0.75195 0.03366 0.47887 0.0
O212 O 0.39296 0.12032 0.61093 0.0
O213 O 0.31601 0.00176 0.47282 0.0
O214 O 0.7386 0.06742 0.47473 0.0
O215 O 0.8387 0.31014 0.59884 0.0
H216 H 0.36763 0.16556 0.6042 0.0
H217 H 0.44364 0.21167 0.6249 0.0
H218 H 0.41011 0.16802 0.64065 0.0
H219 H 0.3895 0.2079 0.63292 0.0
H220 H 0.4446 0.20391 0.5939 0.0
H221 H 0.42815 0.06593 0.60583 0.0
H222 H 0.56172 0.25859 0.57779 0.0
H223 H 0.50439 0.25889 0.57597 0.0
H224 H 0.51829 0.22878 0.5598 0.0
H225 H 0.48172 0.04184 0.59626 0.0
H226 H 0.54335 0.09139 0.59146 0.0
H227 H 0.49555 0.05884 0.57477 0.0
H228 H 0.82161 0.30847 0.62338 0.0
H229 H 0.9088 0.37072 0.63393 0.0
H230 H 0.88614 0.39322 0.61722 0.0
H231 H 0.92977 0.37479 0.61292 0.0
H232 H 0.7675 0.22198 0.60873 0.0
H233 H 0.80394 0.3338 0.57307 0.0
H234 H 0.65231 0.12867 0.58649 0.0
H235 H 0.64338 0.15834 0.60396 0.0
H236 H 0.69191 0.14454 0.60576 0.0
H237 H 0.74069 0.333 0.55513 0.0
H238 H 0.67547 0.28683 0.55726 0.0
H239 H 0.71194 0.27456 0.54381 0.0
H240 H 0.71778 0.99741 0.48102 0.0
H241 H 0.67676 0.01322 0.49874 0.0
H242 H 0.72154 0.13512 0.46671 0.0
H243 H 0.61595 0.03758 0.5267 0.0
H244 H 0.6099 0.98489 0.51591 0.0
H245 H 0.56533 0.00301 0.51102 0.0
H246 H 0.68713 0.18496 0.46789 0.0
H247 H 0.66584 0.18827 0.48822 0.0
H248 H 0.62115 0.14937 0.47153 0.0
H249 H 0.30575 0.0522 0.48529 0.0
H250 H 0.21774 0.99117 0.49093 0.0
H251 H 0.25957 0.97226 0.49877 0.0
H252 H 0.22048 0.94353 0.47959 0.0
H253 H 0.3523 0.95093 0.4844 0.0
H254 H 0.38713 0.09657 0.47463 0.0
H255 H 0.45591 0.98541 0.51363 0.0
H256 H 0.47159 0.97603 0.4932 0.0
H257 H 0.40887 0.93568 0.49963 0.0
H258 H 0.46978 0.16608 0.47913 0.0
H259 H 0.5209 0.15653 0.48364 0.0
H260 H 0.48909 0.16284 0.50058 0.0
H261 H 0.60938 0.20753 0.58967 0.0
H262 H 0.70603 0.18736 0.54921 0.0
H263 H 0.68762 0.1475 0.52181 0.0
H264 H 0.54121 0.06241 0.48315 0.0
H265 H 0.44514 0.0839 0.52348 0.0
H266 H 0.46229 0.11889 0.5516 0.0
H267 H 0.79863 0.02484 0.49808 0.0
H268 H 0.7686 0.05519 0.50569 0.0
H269 H 0.82175 0.08807 0.49311 0.0
C270 C 0.85979 0.75648 0.8149 0.0
C271 C 0.81599 0.74322 0.80207 0.0
C272 C 0.73497 0.69733 0.81516 0.0
C273 C 0.69372 0.70027 0.81875 0.0
C274 C 0.64969 0.65924 0.82393 0.0
C275 C 0.64743 0.61428 0.82592 0.0
C276 C 0.68923 0.61101 0.82244 0.0
C277 C 0.73272 0.65264 0.81706 0.0
C278 C 0.6057 0.66407 0.82732 0.0
C279 C 0.68806 0.56371 0.82462 0.0
C280 C 0.35222 0.42136 0.75218 0.0
C281 C 0.3325 0.38153 0.76528 0.0
C282 C 0.40605 0.4077 0.78517 0.0
C283 C 0.44195 0.39699 0.79087 0.0
C284 C 0.47902 0.42617 0.80369 0.0
C285 C 0.48021 0.46724 0.81091 0.0
C286 C 0.44419 0.47854 0.80516 0.0
C287 C 0.40734 0.44856 0.79244 0.0
C288 C 0.51676 0.41305 0.80958 0.0
C289 C 0.44466 0.52242 0.81247 0.0
C290 C 0.32214 0.37199 0.90184 0.0
C291 C 0.36232 0.36637 0.90694 0.0
C292 C 0.41215 0.40424 0.90487 0.0
C293 C 0.42188 0.44873 0.89791 0.0
C294 C 0.38172 0.45579 0.89405 0.0
C295 C 0.33236 0.41715 0.89598 0.0
C296 C 0.45431 0.39608 0.90948 0.0
C297 C 0.39074 0.50336 0.88713 0.0
C298 C 0.74883 0.77857 0.92074 0.0
C299 C 0.72684 0.7683 0.93809 0.0
C300 C 0.6651 0.67983 0.93286 0.0
C301 C 0.66018 0.63394 0.93372 0.0
C302 C 0.62277 0.59326 0.92374 0.0
C303 C 0.58902 0.59866 0.91286 0.0
C304 C 0.59149 0.64406 0.91285 0.0
C305 C 0.6296 0.68424 0.92281 0.0
C306 C 0.62076 0.54521 0.9242 0.0
C307 C 0.55515 0.65074 0.90176 0.0
C308 C 0.60146 0.57113 0.83192 0.0
C309 C 0.56526 0.53717 0.81985 0.0
C310 C 0.51891 0.49852 0.82451 0.0
C311 C 0.5084 0.49302 0.8417 0.0
C312 C 0.46231 0.45438 0.84682 0.0
C313 C 0.45107 0.45111 0.86361 0.0
C314 C 0.48534 0.48657 0.87592 0.0
C315 C 0.47286 0.4855 0.89281 0.0
C316 C 0.50763 0.5216 0.90471 0.0
C317 C 0.55492 0.55895 0.90015 0.0
C318 C 0.56813 0.56033 0.88334 0.0
C319 C 0.61547 0.59719 0.87836 0.0
C320 C 0.62695 0.60012 0.8616 0.0
C321 C 0.5915 0.56641 0.84916 0.0
C322 C 0.54451 0.52762 0.85402 0.0
C323 C 0.53286 0.52452 0.87115 0.0
C324 C 0.20541 0.25498 0.89378 0.0
C325 C 0.25373 0.28591 0.90504 0.0
O326 O 0.77622 0.73886 0.81029 0.0
O327 O 0.70519 0.71891 0.94152 0.0
O328 O 0.27315 0.33517 0.90208 0.0
O329 O 0.37142 0.37795 0.77264 0.0
H330 H 0.8044 0.70801 0.79519 0.0
H331 H 0.84796 0.72739 0.82424 0.0
H332 H 0.87254 0.79201 0.82173 0.0
H333 H 0.89175 0.75956 0.80848 0.0
H334 H 0.69604 0.73503 0.81734 0.0
H335 H 0.7649 0.65022 0.81468 0.0
H336 H 0.57105 0.63428 0.82033 0.0
H337 H 0.61184 0.70014 0.82363 0.0
H338 H 0.59935 0.6602 0.84096 0.0
H339 H 0.72423 0.56752 0.82197 0.0
H340 H 0.65774 0.53435 0.816 0.0
H341 H 0.67935 0.55166 0.83772 0.0
H342 H 0.31483 0.39097 0.77514 0.0
H343 H 0.37063 0.41309 0.74228 0.0
H344 H 0.38013 0.45792 0.75821 0.0
H345 H 0.32082 0.42361 0.74613 0.0
H346 H 0.44078 0.36549 0.78523 0.0
H347 H 0.38005 0.45766 0.78825 0.0
H348 H 0.55514 0.44366 0.80715 0.0
H349 H 0.50964 0.37883 0.80314 0.0
H350 H 0.51574 0.40813 0.82339 0.0
H351 H 0.41627 0.52823 0.80585 0.0
H352 H 0.48235 0.55622 0.81173 0.0
H353 H 0.43686 0.51711 0.82599 0.0
H354 H 0.27992 0.27456 0.9014 0.0
H355 H 0.35522 0.33247 0.91226 0.0
H356 H 0.30121 0.42154 0.89244 0.0
H357 H 0.4735 0.39749 0.89799 0.0
H358 H 0.44083 0.36011 0.91529 0.0
H359 H 0.48254 0.42597 0.91843 0.0
H360 H 0.35679 0.50578 0.88719 0.0
H361 H 0.40159 0.50608 0.87395 0.0
H362 H 0.42211 0.53532 0.89462 0.0
H363 H 0.698 0.77832 0.93831 0.0
H364 H 0.76749 0.81837 0.91825 0.0
H365 H 0.71884 0.75794 0.91056 0.0
H366 H 0.77674 0.76744 0.92017 0.0
H367 H 0.68723 0.63065 0.94172 0.0
H368 H 0.63194 0.71912 0.92238 0.0
H369 H 0.62834 0.53626 0.91163 0.0
H370 H 0.58256 0.51505 0.92702 0.0
H371 H 0.64851 0.54641 0.93379 0.0
H372 H 0.55743 0.68572 0.90493 0.0
H373 H 0.51608 0.61958 0.90297 0.0
H374 H 0.56365 0.65098 0.88839 0.0
H375 H 0.57255 0.54193 0.8066 0.0
H376 H 0.43415 0.42652 0.83787 0.0
H377 H 0.41477 0.42077 0.86674 0.0
H378 H 0.49735 0.52131 0.91752 0.0
H379 H 0.64405 0.62463 0.88731 0.0
H380 H 0.66373 0.62962 0.85849 0.0
H381 H 0.17725 0.26449 0.89663 0.0
H382 H 0.18916 0.21513 0.89566 0.0
H383 H 0.21363 0.26202 0.88033 0.0
H384 H 0.06382 0.14286 0.08819 0.0
H385 H 0.92734 0.08938 0.05629 0.0
H386 H 0.89074 0.1111 0.07895 0.0
H387 H 0.00586 0.11325 0.13041 0.0
H388 H 0.05758 0.16999 0.14003 0.0
H389 H 0.06793 0.13909 0.12318 0.0
H390 H 0.10708 0.21889 0.10652 0.0
H391 H 0.09623 0.24977 0.12312 0.0
H392 H 0.07111 0.24687 0.10191 0.0
H393 H 0.87416 0.14952 0.10298 0.0
H394 H 0.87914 0.20329 0.1264 0.0
H395 H 0.0291 0.2376 0.14182 0.0
C396 C 0.02535 0.1336 0.08637 0.0
C397 C 0.99764 0.11325 0.07079 0.0
C398 C 0.94848 0.10399 0.06835 0.0
C399 C 0.9275 0.1162 0.08113 0.0
C400 C 0.95652 0.13819 0.09616 0.0
C401 C 0.0044 0.14675 0.09887 0.0
C402 C 0.03056 0.17759 0.11497 0.0
C403 C 0.04109 0.14821 0.12792 0.0
C404 C 0.07908 0.22614 0.1114 0.0
C405 C 0.99073 0.1866 0.12052 0.0
C406 C 0.94789 0.1626 0.10973 0.0
C407 C 0.90717 0.16783 0.11168 0.0
C408 C 0.91042 0.19861 0.12496 0.0
C409 C 0.95438 0.22436 0.13597 0.0
C410 C 0.99477 0.21778 0.13375 0.0
H411 H 0.94209 0.11673 0.40542 0.0
H412 H 0.89007 0.96257 0.39652 0.0
H413 H 0.83341 0.94063 0.4196 0.0
H414 H 0.94016 0.11425 0.45095 0.0
H415 H 0.9188 0.15636 0.45227 0.0
H416 H 0.95619 0.15991 0.43534 0.0
H417 H 0.88697 0.15071 0.41357 0.0
H418 H 0.84923 0.14681 0.43042 0.0
H419 H 0.82373 0.09849 0.41419 0.0
H420 H 0.78173 0.93536 0.44337 0.0
H421 H 0.73863 0.94721 0.46628 0.0
H422 H 0.82402 0.10465 0.45955 0.0
C423 C 0.91918 0.0784 0.40842 0.0
C424 C 0.92067 0.04136 0.39921 0.0
C425 C 0.88962 0.99158 0.40342 0.0
C426 C 0.85732 0.97874 0.4165 0.0
C427 C 0.85652 0.01613 0.42524 0.0
C428 C 0.88668 0.06494 0.42141 0.0
C429 C 0.87808 0.09792 0.43257 0.0
C430 C 0.92617 0.13425 0.44343 0.0
C431 C 0.85832 0.12507 0.42206 0.0
C432 C 0.83813 0.05998 0.44322 0.0
C433 C 0.82631 0.01304 0.43881 0.0
C434 C 0.79052 0.97192 0.44689 0.0
C435 C 0.76614 0.97897 0.45982 0.0
C436 C 0.77731 0.0267 0.46445 0.0
C437 C 0.81415 0.06768 0.45608 0.0
H438 H 0.93178 0.87791 0.71683 0.0
H439 H 0.87951 0.97532 0.72832 0.0
H440 H 0.85004 0.93489 0.75499 0.0
H441 H 0.82653 0.77047 0.73233 0.0
H442 H 0.86263 0.74551 0.74061 0.0
H443 H 0.88317 0.78448 0.72287 0.0
H444 H 0.96941 0.84259 0.73906 0.0
H445 H 0.94907 0.80382 0.75688 0.0
H446 H 0.97173 0.86836 0.75957 0.0
H447 H 0.82765 0.88533 0.78066 0.0
H448 H 0.80512 0.82376 0.80229 0.0
H449 H 0.86512 0.75335 0.77337 0.0
C450 C 0.91454 0.89104 0.72503 0.0
C451 C 0.90882 0.93052 0.72055 0.0
C452 C 0.88507 0.9458 0.73147 0.0
C453 C 0.86816 0.92301 0.74672 0.0
C454 C 0.87456 0.88442 0.75077 0.0
C455 C 0.89656 0.86804 0.74018 0.0
C456 C 0.89603 0.82382 0.7471 0.0
C457 C 0.86524 0.77839 0.73501 0.0
C458 C 0.94976 0.83536 0.75088 0.0
C459 C 0.87007 0.81788 0.76319 0.0
C460 C 0.85876 0.85373 0.76517 0.0
C461 C 0.83566 0.85662 0.77917 0.0
C462 C 0.82282 0.82129 0.79135 0.0
C463 C 0.83192 0.78272 0.78925 0.0
C464 C 0.85679 0.78178 0.77511 0.0
H465 H 0.11707 0.99802 0.09934 0.0
H466 H 0.05434 0.92719 0.04975 0.0
H467 H 0.02574 0.84633 0.06164 0.0
H468 H 0.15916 0.91554 0.11322 0.0
H469 H 0.14321 0.91636 0.1346 0.0
H470 H 0.16191 0.96906 0.12196 0.0
H471 H 0.07925 0.96479 0.12741 0.0
H472 H 0.06025 0.91206 0.14001 0.0
H473 H 0.01994 0.90839 0.12228 0.0
H474 H 0.99659 0.77259 0.07939 0.0
H475 H 0.97315 0.71182 0.10148 0.0
H476 H 0.05781 0.83054 0.13927 0.0
C477 C 0.09795 0.96561 0.09093 0.0
C478 C 0.088 0.96904 0.0736 0.0
C479 C 0.0626 0.92561 0.06305 0.0
C480 C 0.04616 0.87945 0.06968 0.0
C481 C 0.05585 0.8773 0.08686 0.0
C482 C 0.08159 0.91925 0.09731 0.0
C483 C 0.08562 0.90666 0.11542 0.0
C484 C 0.14076 0.92818 0.12166 0.0
C485 C 0.05971 0.924 0.12695 0.0
C486 C 0.05721 0.85105 0.11356 0.0
C487 C 0.04039 0.83481 0.09699 0.0
C488 C 0.0105 0.78485 0.09236 0.0
C489 C 0.99747 0.75058 0.105 0.0
C490 C 0.01494 0.76646 0.12205 0.0
C491 C 0.04517 0.8174 0.12628 0.0
H492 H 0.14528 0.13242 0.42744 0.0
H493 H 0.11278 0.02967 0.38556 0.0
H494 H 0.16364 0.00198 0.40064 0.0
H495 H 0.27436 0.16479 0.43788 0.0
H496 H 0.26912 0.16826 0.46024 0.0
H497 H 0.23303 0.1824 0.44564 0.0
H498 H 0.15112 0.11696 0.45866 0.0
H499 H 0.1869 0.10266 0.47328 0.0
H500 H 0.13644 0.05455 0.45976 0.0
H501 H 0.21238 0.98071 0.42129 0.0
H502 H 0.25664 0.96895 0.44573 0.0
H503 H 0.2586 0.08666 0.4737 0.0
C504 C 0.14925 0.1045 0.42131 0.0
C505 C 0.12497 0.08332 0.40528 0.0
C506 C 0.13105 0.04664 0.39781 0.0
C507 C 0.15994 0.03066 0.40626 0.0
C508 C 0.18283 0.05193 0.42213 0.0
C509 C 0.17803 0.08824 0.42953 0.0
C510 C 0.2047 0.10373 0.44697 0.0
C511 C 0.24787 0.15802 0.44772 0.0
C512 C 0.16757 0.09386 0.46046 0.0
C513 C 0.22443 0.06978 0.44835 0.0
C514 C 0.21167 0.04034 0.43387 0.0
C515 C 0.22343 0.00421 0.43257 0.0
C516 C 0.2487 0.9979 0.44648 0.0
C517 C 0.26234 0.02791 0.46141 0.0
C518 C 0.24991 0.06421 0.46227 0.0
H519 H 0.05335 0.16686 0.73431 0.0
H520 H 0.11919 0.10615 0.7034 0.0
H521 H 0.20364 0.17024 0.71524 0.0
H522 H 0.14613 0.29199 0.7295 0.0
H523 H 0.14541 0.31151 0.75075 0.0
H524 H 0.08992 0.25888 0.74071 0.0
H525 H 0.08722 0.20543 0.76543 0.0
H526 H 0.14277 0.25795 0.77556 0.0
H527 H 0.14157 0.20207 0.77115 0.0
H528 H 0.28121 0.24305 0.7295 0.0
H529 H 0.34623 0.32027 0.74487 0.0
H530 H 0.22978 0.33382 0.76607 0.0
C531 C 0.08542 0.16662 0.73015 0.0
C532 C 0.0795 0.13128 0.71796 0.0
C533 C 0.12265 0.13276 0.71273 0.0
C534 C 0.17082 0.16896 0.71941 0.0
C535 C 0.17529 0.20344 0.7313 0.0
C536 C 0.13378 0.20261 0.73662 0.0
C537 C 0.14898 0.24517 0.74897 0.0
C538 C 0.13159 0.27888 0.74206 0.0
C539 C 0.12894 0.22652 0.76631 0.0
C540 C 0.20555 0.27041 0.74961 0.0
C541 C 0.21999 0.24555 0.73944 0.0
C542 C 0.27037 0.26258 0.73764 0.0
C543 C 0.30698 0.30632 0.74642 0.0
C544 C 0.29298 0.33249 0.75686 0.0
C545 C 0.24155 0.31413 0.75841 0.0
H546 H 0.87987 0.132 0.67685 0.0
H547 H 0.96629 0.11441 0.63983 0.0
H548 H 0.95438 0.16923 0.62104 0.0
H549 H 0.78935 0.13252 0.64741 0.0
H550 H 0.78554 0.17774 0.65971 0.0
H551 H 0.80067 0.1369 0.67002 0.0
H552 H 0.88237 0.21187 0.68402 0.0
H553 H 0.86741 0.25291 0.67381 0.0
H554 H 0.92677 0.25879 0.67097 0.0
H555 H 0.93392 0.22797 0.60658 0.0
H556 H 0.90683 0.28507 0.5979 0.0
H557 H 0.8337 0.26217 0.64453 0.0
C558 C 0.89642 0.13952 0.6648 0.0
C559 C 0.92411 0.11884 0.65985 0.0
C560 C 0.94491 0.12976 0.64392 0.0
C561 C 0.9383 0.16082 0.63316 0.0
C562 C 0.91068 0.18046 0.63849 0.0
C563 C 0.89009 0.17013 0.65395 0.0
C564 C 0.86232 0.19593 0.65688 0.0
C565 C 0.80615 0.15853 0.6586 0.0
C566 C 0.88616 0.23202 0.67233 0.0
C567 C 0.87074 0.22283 0.6407 0.0
C568 C 0.89858 0.21346 0.63019 0.0
C569 C 0.91175 0.23519 0.61466 0.0
C570 C 0.89614 0.26739 0.60981 0.0
C571 C 0.86741 0.27717 0.62043 0.0
C572 C 0.85488 0.25465 0.63606 0.0
H573 H 0.92186 0.02035 0.9896 0.0
H574 H 0.99549 0.94773 0.01052 0.0
H575 H 0.93153 0.87045 0.99519 0.0
H576 H 0.79465 0.91681 0.99154 0.0
H577 H 0.77258 0.92941 0.97198 0.0
H578 H 0.82392 0.97909 0.98473 0.0
H579 H 0.87958 0.00498 0.95931 0.0
H580 H 0.82838 0.95552 0.94647 0.0
H581 H 0.88817 0.96032 0.94871 0.0
H582 H 0.86194 0.80206 0.97652 0.0
H583 H 0.79013 0.74691 0.95646 0.0
H584 H 0.75997 0.86295 0.94862 0.0
C585 C 0.92458 0.98823 0.99099 0.0
C586 C 0.96385 0.99027 0.00127 0.0
C587 C 0.9658 0.94722 0.00276 0.0
C588 C 0.92962 0.90307 0.9941 0.0
C589 C 0.8915 0.9024 0.98408 0.0
C590 C 0.8886 0.94376 0.98254 0.0
C591 C 0.84396 0.93325 0.97088 0.0
C592 C 0.80657 0.94004 0.98035 0.0
C593 C 0.86106 0.96542 0.95543 0.0
C594 C 0.82245 0.87962 0.96603 0.0
C595 C 0.85046 0.86252 0.97375 0.0
C596 C 0.83917 0.81474 0.97062 0.0
C597 C 0.79817 0.78361 0.95928 0.0
C598 C 0.76843 0.80015 0.95142 0.0
C599 C 0.78112 0.84891 0.95484 0.0
H600 H 0.99011 0.90008 0.34503 0.0
H601 H 0.08167 0.03424 0.31875 0.0
H602 H 0.09718 0.98738 0.29773 0.0
H603 H 0.06318 0.84467 0.338 0.0
H604 H 0.00843 0.7834 0.33495 0.0
H605 H 0.00724 0.82812 0.34845 0.0
H606 H 0.9287 0.81481 0.33091 0.0
H607 H 0.92958 0.77001 0.31741 0.0
H608 H 0.93099 0.82221 0.30846 0.0
H609 H 0.1001 0.92488 0.27901 0.0
H610 H 0.08751 0.8513 0.2636 0.0
H611 H 0.99251 0.75862 0.30194 0.0
C612 C 0.01388 0.9198 0.33497 0.0
C613 C 0.03489 0.97087 0.33357 0.0
C614 C 0.06522 0.99511 0.32007 0.0
C615 C 0.07437 0.96884 0.30811 0.0
C616 C 0.0528 0.91841 0.30981 0.0
C617 C 0.02305 0.89415 0.32288 0.0
C618 C 0.00222 0.83945 0.32145 0.0
C619 C 0.02143 0.82296 0.33661 0.0
C620 C 0.94446 0.8099 0.31943 0.0
C621 C 0.02449 0.83656 0.30544 0.0
C622 C 0.05395 0.88251 0.29898 0.0
C623 C 0.07744 0.88878 0.28403 0.0
C624 C 0.07022 0.84692 0.27539 0.0
C625 C 0.03965 0.79944 0.28172 0.0
C626 C 0.01672 0.7945 0.29696 0.0
H627 H 0.10147 0.07329 0.64411 0.0
H628 H 0.08375 0.93669 0.66102 0.0
H629 H 0.16466 0.95993 0.64991 0.0
H630 H 0.16163 0.07787 0.6052 0.0
H631 H 0.20328 0.14381 0.60704 0.0
H632 H 0.14227 0.11504 0.61535 0.0
H633 H 0.18397 0.15736 0.64464 0.0
H634 H 0.24507 0.18597 0.63647 0.0
H635 H 0.23143 0.1486 0.65461 0.0
H636 H 0.25077 0.00125 0.63967 0.0
H637 H 0.33388 0.05505 0.62883 0.0
H638 H 0.29494 0.16345 0.61717 0.0
C639 C 0.1142 0.0479 0.64524 0.0
C640 C 0.08618 0.00313 0.65345 0.0
C641 C 0.1044 0.97113 0.65477 0.0
C642 C 0.15039 0.98401 0.64851 0.0
C643 C 0.17753 0.0288 0.64081 0.0
C644 C 0.15995 0.06003 0.63896 0.0
C645 C 0.19727 0.10666 0.63059 0.0
C646 C 0.17476 0.11108 0.61353 0.0
C647 C 0.21551 0.15233 0.64228 0.0
C648 C 0.23889 0.09702 0.62829 0.0
C649 C 0.22673 0.05194 0.63432 0.0
C650 C 0.26031 0.03613 0.63454 0.0
C651 C 0.30748 0.067 0.62831 0.0
C652 C 0.32041 0.11293 0.62162 0.0
C653 C 0.28555 0.12802 0.62176 0.0
H654 H 0.1872 0.12743 0.98778 0.0
H655 H 0.14339 0.22408 0.00836 0.0
H656 H 0.17171 0.27434 0.98343 0.0
H657 H 0.29909 0.22361 0.9684 0.0
H658 H 0.28917 0.18527 0.95007 0.0
H659 H 0.26802 0.15786 0.97002 0.0
H660 H 0.17784 0.10128 0.95624 0.0
H661 H 0.19873 0.12843 0.93628 0.0
H662 H 0.1473 0.12842 0.9452 0.0
H663 H 0.19907 0.31104 0.95579 0.0
H664 H 0.22485 0.33252 0.92683 0.0
H665 H 0.25332 0.21423 0.92395 0.0
C666 C 0.18406 0.15944 0.98709 0.0
C667 C 0.16283 0.17165 -1e-05 0.0
C668 C 0.15905 0.21365 -0.00142 0.0
C669 C 0.17531 0.24268 0.9845 0.0
C670 C 0.19552 0.22944 0.97194 0.0
C671 C 0.20012 0.18895 0.97306 0.0
C672 C 0.22144 0.18197 0.95739 0.0
C673 C 0.27247 0.18752 0.96173 0.0
C674 C 0.18409 0.13207 0.94824 0.0
C675 C 0.22732 0.22442 0.94726 0.0
C676 C 0.21236 0.25142 0.95596 0.0
C677 C 0.21179 0.29081 0.94894 0.0
C678 C 0.22669 0.30285 0.93251 0.0
C679 C 0.24254 0.27595 0.92335 0.0
C680 C 0.24276 0.23623 0.93087 0.0
H681 H 0.10214 0.20479 0.32795 0.0
H682 H 0.16716 0.29148 0.37491 0.0
H683 H 0.21641 0.36629 0.35888 0.0
H684 H 0.21322 0.2753 0.30287 0.0
H685 H 0.17481 0.26928 0.28421 0.0
H686 H 0.15077 0.2217 0.29932 0.0
H687 H 0.07381 0.23006 0.30194 0.0
H688 H 0.09767 0.27774 0.28694 0.0
H689 H 0.08371 0.28937 0.3075 0.0
H690 H 0.25221 0.43268 0.33777 0.0
H691 H 0.26989 0.48543 0.31331 0.0
H692 H 0.17854 0.35535 0.28042 0.0
C693 C 0.12782 0.23924 0.33488 0.0
C694 C 0.13122 0.24224 0.35268 0.0
C695 C 0.16416 0.28831 0.36127 0.0
C696 C 0.1924 0.33096 0.35227 0.0
C697 C 0.18716 0.32691 0.33471 0.0
C698 C 0.15571 0.28218 0.32611 0.0
C699 C 0.15291 0.28837 0.3073 0.0
C700 C 0.17421 0.26211 0.29787 0.0
C701 C 0.09883 0.27033 0.30054 0.0
C702 C 0.18669 0.34368 0.3067 0.0
C703 C 0.20677 0.36523 0.32259 0.0
C704 C 0.23721 0.41616 0.32524 0.0
C705 C 0.24698 0.44581 0.3113 0.0
C706 C 0.22593 0.42444 0.29497 0.0
C707 C 0.19581 0.37265 0.29271 0.0
loop_
_geom_bond_atom_site_label_1
_geom_bond_atom_site_label_2
_geom_bond_distance
_geom_bond_site_symmetry_2
_ccdc_geom_bond_type
Mg0 O1 2.028 . S
Mg0 O7 1.986 . S
Mg0 O9 2.114 . S
Mg0 O10 2.251 . S
Mg0 O13 2.010 . S
O1 Mg0 2.028 . S
O1 C4 1.250 . S
O2 Mg3 2.028 . S
O2 C4 1.248 . S
Mg3 O2 2.028 . S
Mg3 O8 2.032 . S
Mg3 O10 2.079 . S
C4 O1 1.250 . S
C4 O2 1.248 . S
C5 O6 1.264 . S
C5 O13 1.249 . S
O6 C5 1.264 . S
O7 Mg0 1.986 . S
O7 C11 1.246 . S
O8 Mg3 2.032 . S
O8 C11 1.259 . S
O9 Mg0 2.114 . S
O9 C12 1.252 . S
O10 Mg0 2.251 . S
O10 Mg3 2.079 . S
O10 C12 1.273 . S
C11 O7 1.246 . S
C11 O8 1.259 . S
C12 O9 1.252 . S
C12 O10 1.273 . S
O13 Mg0 2.010 . S
O13 C5 1.249 . S
Mg14 O15 2.028 1_655 S
Mg14 O21 1.986 1_655 S
Mg14 O23 2.112 1_545 S
Mg14 O24 2.251 . S
Mg14 O27 2.010 1_545 S
O15 Mg14 2.028 1_455 S
O15 C18 1.250 . S
O16 Mg17 2.028 . S
O16 C18 1.248 . S
Mg17 O16 2.028 . S
Mg17 O22 2.032 . S
Mg17 O24 2.079 1_455 S
C18 O15 1.250 . S
C18 O16 1.248 . S
C19 O20 1.264 . S
C19 O27 1.249 . S
O20 C19 1.264 . S
O21 Mg14 1.986 1_455 S
O21 C25 1.246 . S
O22 Mg17 2.032 . S
O22 C25 1.259 . S
O23 Mg14 2.112 1_565 S
O23 C26 1.245 1_565 S
O24 Mg14 2.251 . S
O24 Mg17 2.079 1_655 S
O24 C26 1.273 . S
C25 O21 1.246 . S
C25 O22 1.259 . S
C26 O23 1.245 1_545 S
C26 O24 1.273 . S
O27 Mg14 2.010 1_565 S
O27 C19 1.249 . S
Mg28 O29 2.028 . S
Mg28 O35 1.986 . S
Mg28 O37 2.114 1_545 S
Mg28 O38 2.251 1_455 S
Mg28 O41 2.010 . S
O29 Mg28 2.028 . S
O29 C32 1.250 . S
O30 Mg31 2.028 1_455 S
O30 C32 1.248 . S
Mg31 O30 2.028 1_655 S
Mg31 O36 2.032 . S
Mg31 O38 2.079 . S
C32 O29 1.250 . S
C32 O30 1.248 . S
C33 O34 1.264 1_545 S
C33 O41 1.249 . S
O34 C33 1.264 1_565 S
O35 Mg28 1.986 . S
O35 C39 1.246 1_455 S
O36 Mg31 2.032 . S
O36 C39 1.259 . S
O37 Mg28 2.114 1_565 S
O37 C40 1.252 1_455 S
O38 Mg28 2.251 1_655 S
O38 Mg31 2.079 . S
O38 C40 1.273 1_545 S
C39 O35 1.246 1_655 S
C39 O36 1.259 . S
C40 O37 1.252 1_655 S
C40 O38 1.273 1_565 S
O41 Mg28 2.010 . S
O41 C33 1.249 . S
C42 C43 1.560 1_655 S
C42 H103 0.959 . S
C42 H104 0.959 . S
C42 H105 0.960 . S
C43 C42 1.560 1_455 S
C43 O98 1.426 1_455 S
C43 H102 0.980 . S
C44 C45 1.407 . S
C44 C49 1.418 1_455 S
C44 O98 1.334 1_455 S
C45 C44 1.407 . S
C45 C46 1.360 . S
C45 H106 0.929 . S
C46 C45 1.360 . S
C46 C47 1.401 . S
C46 C50 1.527 . S
C47 C46 1.401 . S
C47 C48 1.405 1_455 S
C47 C80 1.587 . S
C48 C47 1.405 1_655 S
C48 C49 1.332 . S
C48 C51 1.496 . S
C49 C44 1.418 1_655 S
C49 C48 1.332 . S
C49 H107 0.929 . S
C50 C46 1.527 . S
C50 H108 0.959 . S
C50 H109 0.961 . S
C50 H110 0.961 . S
C51 C48 1.496 . S
C51 H111 0.960 . S
C51 H112 0.960 . S
C51 H113 0.961 . S
C52 C53 1.517 . S
C52 H115 0.961 . S
C52 H116 0.960 . S
C52 H117 0.959 . S
C53 C52 1.517 . S
C53 O101 1.468 . S
C53 H114 0.980 . S
C54 C55 1.349 . S
C54 C59 1.367 . S
C54 O101 1.408 . S
C55 C54 1.349 . S
C55 C56 1.407 . S
C55 H118 0.930 . S
C56 C55 1.407 . S
C56 C57 1.449 . S
C56 C60 1.535 1_455 S
C57 C56 1.449 . S
C57 C58 1.384 . S
C57 C82 1.553 . S
C58 C57 1.384 . S
C58 C59 1.364 . S
C58 C61 1.450 . S
C59 C54 1.367 . S
C59 C58 1.364 . S
C59 H119 0.931 . S
C60 C56 1.535 1_655 S
C60 H120 0.959 . S
C60 H121 0.961 . S
C60 H122 0.959 . S
C61 C58 1.450 . S
C61 H123 0.960 . S
C61 H124 0.960 . S
C61 H125 0.960 . S
C62 C63 1.309 . S
C62 C67 1.304 . S
C62 O100 1.435 . S
C63 C62 1.309 . S
C63 C64 1.476 . S
C63 H127 0.930 . S
C64 C63 1.476 . S
C64 C65 1.400 . S
C64 C68 1.567 1_455 S
C65 C64 1.400 . S
C65 C66 1.373 . S
C65 C87 1.432 . S
C66 C65 1.373 . S
C66 C67 1.339 . S
C66 C69 1.530 . S
C67 C62 1.304 . S
C67 C66 1.339 . S
C67 H128 0.930 . S
C68 C64 1.567 1_655 S
C68 H129 0.961 . S
C68 H130 0.960 . S
C68 H131 0.958 . S
C69 C66 1.530 . S
C69 H132 0.961 . S
C69 H133 0.960 . S
C69 H134 0.960 . S
C70 C71 1.530 . S
C70 H136 0.961 . S
C70 H137 0.961 1_455 S
C70 H138 0.959 1_455 S
C71 C70 1.530 . S
C71 O99 1.412 . S
C71 H135 0.980 . S
C72 C73 1.288 1_455 S
C72 C77 1.377 . S
C72 O99 1.393 . S
C73 C72 1.288 1_655 S
C73 C74 1.369 1_655 S
C73 H139 0.932 . S
C74 C73 1.369 1_455 S
C74 C75 1.398 . S
C74 C78 1.527 1_455 S
C75 C74 1.398 . S
C75 C76 1.380 . S
C75 C89 1.497 . S
C76 C75 1.380 . S
C76 C77 1.383 . S
C76 C79 1.603 . S
C77 C72 1.377 . S
C77 C76 1.383 . S
C77 H140 0.929 . S
C78 C74 1.527 1_655 S
C78 H141 0.961 . S
C78 H142 0.959 . S
C78 H143 0.959 . S
C79 C76 1.603 . S
C79 H144 0.960 . S
C79 H145 0.962 . S
C79 H146 0.961 . S
C80 C47 1.587 . S
C80 C81 1.360 . S
C80 C93 1.412 . S
C81 C80 1.360 . S
C81 C82 1.365 . S
C81 H147 0.929 . S
C82 C57 1.553 . S
C82 C81 1.365 . S
C82 C83 1.404 . S
C83 C82 1.404 . S
C83 C84 1.395 . S
C83 C94 1.451 . S
C84 C83 1.395 . S
C84 C85 1.322 . S
C84 H148 0.930 . S
C85 C84 1.322 . S
C85 C86 1.459 . S
C85 H149 0.929 . S
C86 C85 1.459 . S
C86 C87 1.445 . S
C86 C95 1.395 . S
C87 C65 1.432 . S
C87 C86 1.445 . S
C87 C88 1.370 . S
C88 C87 1.370 . S
C88 C89 1.438 . S
C88 H150 0.930 . S
C89 C75 1.497 . S
C89 C88 1.438 . S
C89 C90 1.360 . S
C90 C89 1.360 . S
C90 C91 1.401 . S
C90 C95 1.446 . S
C91 C90 1.401 . S
C91 C92 1.347 . S
C91 H151 0.929 . S
C92 C91 1.347 . S
C92 C93 1.455 . S
C92 H152 0.930 . S
C93 C80 1.412 . S
C93 C92 1.455 . S
C93 C94 1.331 . S
C94 C83 1.451 . S
C94 C93 1.331 . S
C94 C95 1.497 . S
C95 C86 1.395 . S
C95 C90 1.446 . S
C95 C94 1.497 . S
C96 C97 1.582 . S
C96 H153 0.962 . S
C96 H154 0.959 . S
C96 H155 0.958 . S
C97 C96 1.582 . S
C97 O100 1.458 . S
C97 H126 0.980 . S
O98 C43 1.426 1_655 S
O98 C44 1.334 1_655 S
O99 C71 1.412 . S
O99 C72 1.393 . S
O100 C62 1.435 . S
O100 C97 1.458 . S
O101 C53 1.468 . S
O101 C54 1.408 . S
H102 C43 0.980 . S
H103 C42 0.959 . S
H104 C42 0.959 . S
H105 C42 0.960 . S
H106 C45 0.929 . S
H107 C49 0.929 . S
H108 C50 0.959 . S
H109 C50 0.961 . S
H110 C50 0.961 . S
H111 C51 0.960 . S
H112 C51 0.960 . S
H113 C51 0.961 . S
H114 C53 0.980 . S
H115 C52 0.961 . S
H116 C52 0.960 . S
H117 C52 0.959 . S
H118 C55 0.930 . S
H119 C59 0.931 . S
H120 C60 0.959 . S
H121 C60 0.961 . S
H122 C60 0.959 . S
H123 C61 0.960 . S
H124 C61 0.960 . S
H125 C61 0.960 . S
H126 C97 0.980 . S
H127 C63 0.930 . S
H128 C67 0.930 . S
H129 C68 0.961 . S
H130 C68 0.960 . S
H131 C68 0.958 . S
H132 C69 0.961 . S
H133 C69 0.960 . S
H134 C69 0.960 . S
H135 C71 0.980 . S
H136 C70 0.961 . S
H137 C70 0.961 1_655 S
H138 C70 0.959 1_655 S
H139 C73 0.932 . S
H140 C77 0.929 . S
H141 C78 0.961 . S
H142 C78 0.959 . S
H143 C78 0.959 . S
H144 C79 0.960 . S
H145 C79 0.962 . S
H146 C79 0.961 . S
H147 C81 0.929 . S
H148 C84 0.930 . S
H149 C85 0.929 . S
H150 C88 0.930 . S
H151 C91 0.929 . S
H152 C92 0.930 . S
H153 C96 0.962 . S
H154 C96 0.959 . S
H155 C96 0.958 . S
C156 C157 1.560 . S
C156 H217 0.959 . S
C156 H218 0.959 . S
C156 H219 0.960 . S
C157 C156 1.560 . S
C157 O212 1.426 . S
C157 H216 0.980 . S
C158 C159 1.407 . S
C158 C163 1.418 . S
C158 O212 1.334 . S
C159 C158 1.407 . S
C159 C160 1.360 . S
C159 H220 0.929 . S
C160 C159 1.360 . S
C160 C161 1.401 . S
C160 C164 1.527 . S
C161 C160 1.401 . S
C161 C162 1.405 . S
C161 C194 1.587 . S
C162 C161 1.405 . S
C162 C163 1.332 . S
C162 C165 1.496 . S
C163 C158 1.418 . S
C163 C162 1.332 . S
C163 H221 0.929 1_545 S
C164 C160 1.527 . S
C164 H222 0.959 . S
C164 H223 0.961 . S
C164 H224 0.961 . S
C165 C162 1.496 . S
C165 H225 0.960 1_545 S
C165 H226 0.960 . S
C165 H227 0.961 . S
C166 C167 1.517 . S
C166 H229 0.961 . S
C166 H230 0.960 . S
C166 H231 0.959 . S
C167 C166 1.517 . S
C167 O215 1.468 . S
C167 H228 0.980 . S
C168 C169 1.349 . S
C168 C173 1.367 . S
C168 O215 1.408 . S
C169 C168 1.349 . S
C169 C170 1.407 . S
C169 H232 0.930 . S
C170 C169 1.407 . S
C170 C171 1.449 . S
C170 C174 1.535 . S
C171 C170 1.449 . S
C171 C172 1.384 . S
C171 C196 1.553 . S
C172 C171 1.384 . S
C172 C173 1.364 . S
C172 C175 1.450 . S
C173 C168 1.367 . S
C173 C172 1.364 . S
C173 H233 0.931 . S
C174 C170 1.535 . S
C174 H234 0.959 . S
C174 H235 0.961 . S
C174 H236 0.959 . S
C175 C172 1.450 . S
C175 H237 0.960 . S
C175 H238 0.960 . S
C175 H239 0.960 . S
C176 C177 1.309 . S
C176 C181 1.304 . S
C176 O214 1.435 . S
C177 C176 1.309 . S
C177 C178 1.476 . S
C177 H241 0.930 . S
C178 C177 1.476 . S
C178 C179 1.400 . S
C178 C182 1.567 . S
C179 C178 1.400 . S
C179 C180 1.373 . S
C179 C201 1.432 . S
C180 C179 1.373 . S
C180 C181 1.339 . S
C180 C183 1.530 . S
C181 C176 1.304 . S
C181 C180 1.339 . S
C181 H242 0.930 . S
C182 C178 1.567 . S
C182 H243 0.961 . S
C182 H244 0.960 . S
C182 H245 0.958 . S
C183 C180 1.530 . S
C183 H246 0.961 . S
C183 H247 0.960 . S
C183 H248 0.960 . S
C184 C185 1.530 . S
C184 H250 0.961 . S
C184 H251 0.961 . S
C184 H252 0.959 . S
C185 C184 1.530 . S
C185 O213 1.412 . S
C185 H249 0.980 . S
C186 C187 1.288 . S
C186 C191 1.377 . S
C186 O213 1.393 . S
C187 C186 1.288 . S
C187 C188 1.369 . S
C187 H253 0.932 1_545 S
C188 C187 1.369 . S
C188 C189 1.398 . S
C188 C192 1.527 1_545 S
C189 C188 1.398 . S
C189 C190 1.380 . S
C189 C203 1.497 . S
C190 C189 1.380 . S
C190 C191 1.383 . S
C190 C193 1.603 . S
C191 C186 1.377 . S
C191 C190 1.383 . S
C191 H254 0.929 . S
C192 C188 1.527 1_565 S
C192 H255 0.961 1_565 S
C192 H256 0.959 . S
C192 H257 0.959 . S
C193 C190 1.603 . S
C193 H258 0.960 . S
C193 H259 0.962 . S
C193 H260 0.961 . S
C194 C161 1.587 . S
C194 C195 1.360 . S
C194 C207 1.412 . S
C195 C194 1.360 . S
C195 C196 1.365 . S
C195 H261 0.929 . S
C196 C171 1.553 . S
C196 C195 1.365 . S
C196 C197 1.404 . S
C197 C196 1.404 . S
C197 C198 1.395 . S
C197 C208 1.451 . S
C198 C197 1.395 . S
C198 C199 1.322 . S
C198 H262 0.930 . S
C199 C198 1.322 . S
C199 C200 1.459 . S
C199 H263 0.929 . S
C200 C199 1.459 . S
C200 C201 1.445 . S
C200 C209 1.395 . S
C201 C179 1.432 . S
C201 C200 1.445 . S
C201 C202 1.370 . S
C202 C201 1.370 . S
C202 C203 1.438 . S
C202 H264 0.930 . S
C203 C189 1.497 . S
C203 C202 1.438 . S
C203 C204 1.360 . S
C204 C203 1.360 . S
C204 C205 1.401 . S
C204 C209 1.446 . S
C205 C204 1.401 . S
C205 C206 1.347 . S
C205 H265 0.929 . S
C206 C205 1.347 . S
C206 C207 1.455 . S
C206 H266 0.930 . S
C207 C194 1.412 . S
C207 C206 1.455 . S
C207 C208 1.331 . S
C208 C197 1.451 . S
C208 C207 1.331 . S
C208 C209 1.497 . S
C209 C200 1.395 . S
C209 C204 1.446 . S
C209 C208 1.497 . S
C210 C211 1.582 . S
C210 H267 0.962 . S
C210 H268 0.959 . S
C210 H269 0.958 . S
C211 C210 1.582 . S
C211 O214 1.458 . S
C211 H240 0.980 . S
O212 C157 1.426 . S
O212 C158 1.334 . S
O213 C185 1.412 . S
O213 C186 1.393 . S
O214 C176 1.435 . S
O214 C211 1.458 . S
O215 C167 1.468 . S
O215 C168 1.408 . S
H216 C157 0.980 . S
H217 C156 0.959 . S
H218 C156 0.959 . S
H219 C156 0.960 . S
H220 C159 0.929 . S
H221 C163 0.929 1_565 S
H222 C164 0.959 . S
H223 C164 0.961 . S
H224 C164 0.961 . S
H225 C165 0.960 1_565 S
H226 C165 0.960 . S
H227 C165 0.961 . S
H228 C167 0.980 . S
H229 C166 0.961 . S
H230 C166 0.960 . S
H231 C166 0.959 . S
H232 C169 0.930 . S
H233 C173 0.931 . S
H234 C174 0.959 . S
H235 C174 0.961 . S
H236 C174 0.959 . S
H237 C175 0.960 . S
H238 C175 0.960 . S
H239 C175 0.960 . S
H240 C211 0.980 . S
H241 C177 0.930 . S
H242 C181 0.930 . S
H243 C182 0.961 . S
H244 C182 0.960 . S
H245 C182 0.958 . S
H246 C183 0.961 . S
H247 C183 0.960 . S
H248 C183 0.960 . S
H249 C185 0.980 . S
H250 C184 0.961 . S
H251 C184 0.961 . S
H252 C184 0.959 . S
H253 C187 0.932 1_565 S
H254 C191 0.929 . S
H255 C192 0.961 1_545 S
H256 C192 0.959 . S
H257 C192 0.959 . S
H258 C193 0.960 . S
H259 C193 0.962 . S
H260 C193 0.961 . S
H261 C195 0.929 . S
H262 C198 0.930 . S
H263 C199 0.929 . S
H264 C202 0.930 . S
H265 C205 0.929 . S
H266 C206 0.930 . S
H267 C210 0.962 . S
H268 C210 0.959 . S
H269 C210 0.958 . S
C270 C271 1.560 . S
C270 H331 0.959 . S
C270 H332 0.959 . S
C270 H333 0.960 . S
C271 C270 1.560 . S
C271 O326 1.426 . S
C271 H330 0.980 . S
C272 C273 1.407 . S
C272 C277 1.418 . S
C272 O326 1.334 . S
C273 C272 1.407 . S
C273 C274 1.360 . S
C273 H334 0.929 . S
C274 C273 1.360 . S
C274 C275 1.401 . S
C274 C278 1.527 . S
C275 C274 1.401 . S
C275 C276 1.405 . S
C275 C308 1.587 . S
C276 C275 1.405 . S
C276 C277 1.332 . S
C276 C279 1.496 . S
C277 C272 1.418 . S
C277 C276 1.332 . S
C277 H335 0.929 . S
C278 C274 1.527 . S
C278 H336 0.959 . S
C278 H337 0.961 . S
C278 H338 0.961 . S
C279 C276 1.496 . S
C279 H339 0.960 . S
C279 H340 0.960 . S
C279 H341 0.961 . S
C280 C281 1.517 . S
C280 H343 0.961 . S
C280 H344 0.960 . S
C280 H345 0.959 . S
C281 C280 1.517 . S
C281 O329 1.468 . S
C281 H342 0.980 . S
C282 C283 1.349 . S
C282 C287 1.367 . S
C282 O329 1.408 . S
C283 C282 1.349 . S
C283 C284 1.407 . S
C283 H346 0.930 . S
C284 C283 1.407 . S
C284 C285 1.449 . S
C284 C288 1.535 . S
C285 C284 1.449 . S
C285 C286 1.384 . S
C285 C310 1.553 . S
C286 C285 1.384 . S
C286 C287 1.364 . S
C286 C289 1.450 . S
C287 C282 1.367 . S
C287 C286 1.364 . S
C287 H347 0.931 . S
C288 C284 1.535 . S
C288 H348 0.959 . S
C288 H349 0.961 . S
C288 H350 0.959 . S
C289 C286 1.450 . S
C289 H351 0.960 . S
C289 H352 0.960 . S
C289 H353 0.960 . S
C290 C291 1.309 . S
C290 C295 1.304 . S
C290 O328 1.435 . S
C291 C290 1.309 . S
C291 C292 1.476 . S
C291 H355 0.930 . S
C292 C291 1.476 . S
C292 C293 1.400 . S
C292 C296 1.567 . S
C293 C292 1.400 . S
C293 C294 1.373 . S
C293 C315 1.432 . S
C294 C293 1.373 . S
C294 C295 1.339 . S
C294 C297 1.530 . S
C295 C290 1.304 . S
C295 C294 1.339 . S
C295 H356 0.930 . S
C296 C292 1.567 . S
C296 H357 0.961 . S
C296 H358 0.960 . S
C296 H359 0.958 . S
C297 C294 1.530 . S
C297 H360 0.961 . S
C297 H361 0.960 . S
C297 H362 0.960 . S
C298 C299 1.530 . S
C298 H364 0.961 . S
C298 H365 0.961 . S
C298 H366 0.959 . S
C299 C298 1.530 . S
C299 O327 1.412 . S
C299 H363 0.980 . S
C300 C301 1.288 . S
C300 C305 1.377 . S
C300 O327 1.393 . S
C301 C300 1.288 . S
C301 C302 1.369 . S
C301 H367 0.932 . S
C302 C301 1.369 . S
C302 C303 1.398 . S
C302 C306 1.527 . S
C303 C302 1.398 . S
C303 C304 1.380 . S
C303 C317 1.497 . S
C304 C303 1.380 . S
C304 C305 1.383 . S
C304 C307 1.603 . S
C305 C300 1.377 . S
C305 C304 1.383 . S
C305 H368 0.929 . S
C306 C302 1.527 . S
C306 H369 0.961 . S
C306 H370 0.959 . S
C306 H371 0.959 . S
C307 C304 1.603 . S
C307 H372 0.960 . S
C307 H373 0.962 . S
C307 H374 0.961 . S
C308 C275 1.587 . S
C308 C309 1.360 . S
C308 C321 1.412 . S
C309 C308 1.360 . S
C309 C310 1.365 . S
C309 H375 0.929 . S
C310 C285 1.553 . S
C310 C309 1.365 . S
C310 C311 1.404 . S
C311 C310 1.404 . S
C311 C312 1.395 . S
C311 C322 1.451 . S
C312 C311 1.395 . S
C312 C313 1.322 . S
C312 H376 0.930 . S
C313 C312 1.322 . S
C313 C314 1.459 . S
C313 H377 0.929 . S
C314 C313 1.459 . S
C314 C315 1.445 . S
C314 C323 1.395 . S
C315 C293 1.432 . S
C315 C314 1.445 . S
C315 C316 1.370 . S
C316 C315 1.370 . S
C316 C317 1.438 . S
C316 H378 0.930 . S
C317 C303 1.497 . S
C317 C316 1.438 . S
C317 C318 1.360 . S
C318 C317 1.360 . S
C318 C319 1.401 . S
C318 C323 1.446 . S
C319 C318 1.401 . S
C319 C320 1.347 . S
C319 H379 0.929 . S
C320 C319 1.347 . S
C320 C321 1.455 . S
C320 H380 0.930 . S
C321 C308 1.412 . S
C321 C320 1.455 . S
C321 C322 1.331 . S
C322 C311 1.451 . S
C322 C321 1.331 . S
C322 C323 1.497 . S
C323 C314 1.395 . S
C323 C318 1.446 . S
C323 C322 1.497 . S
C324 C325 1.582 . S
C324 H381 0.962 . S
C324 H382 0.959 . S
C324 H383 0.958 . S
C325 C324 1.582 . S
C325 O328 1.458 . S
C325 H354 0.980 . S
O326 C271 1.426 . S
O326 C272 1.334 . S
O327 C299 1.412 . S
O327 C300 1.393 . S
O328 C290 1.435 . S
O328 C325 1.458 . S
O329 C281 1.468 . S
O329 C282 1.408 . S
H330 C271 0.980 . S
H331 C270 0.959 . S
H332 C270 0.959 . S
H333 C270 0.960 . S
H334 C273 0.929 . S
H335 C277 0.929 . S
H336 C278 0.959 . S
H337 C278 0.961 . S
H338 C278 0.961 . S
H339 C279 0.960 . S
H340 C279 0.960 . S
H341 C279 0.961 . S
H342 C281 0.980 . S
H343 C280 0.961 . S
H344 C280 0.960 . S
H345 C280 0.959 . S
H346 C283 0.930 . S
H347 C287 0.931 . S
H348 C288 0.959 . S
H349 C288 0.961 . S
H350 C288 0.959 . S
H351 C289 0.960 . S
H352 C289 0.960 . S
H353 C289 0.960 . S
H354 C325 0.980 . S
H355 C291 0.930 . S
H356 C295 0.930 . S
H357 C296 0.961 . S
H358 C296 0.960 . S
H359 C296 0.958 . S
H360 C297 0.961 . S
H361 C297 0.960 . S
H362 C297 0.960 . S
H363 C299 0.980 . S
H364 C298 0.961 . S
H365 C298 0.961 . S
H366 C298 0.959 . S
H367 C301 0.932 . S
H368 C305 0.929 . S
H369 C306 0.961 . S
H370 C306 0.959 . S
H371 C306 0.959 . S
H372 C307 0.960 . S
H373 C307 0.962 . S
H374 C307 0.961 . S
H375 C309 0.929 . S
H376 C312 0.930 . S
H377 C313 0.929 . S
H378 C316 0.930 . S
H379 C319 0.929 . S
H380 C320 0.930 . S
H381 C324 0.962 . S
H382 C324 0.959 . S
H383 C324 0.958 . S
H384 C396 0.930 1_655 S
H385 C398 0.930 . S
H386 C399 0.930 . S
H387 C403 0.959 . S
H388 C403 0.959 . S
H389 C403 0.961 . S
H390 C404 0.960 1_655 S
H391 C404 0.961 1_655 S
H392 C404 0.959 . S
H393 C407 0.929 . S
H394 C408 0.931 . S
H395 C410 0.930 1_655 S
C396 H384 0.930 1_455 S
C396 C397 1.399 . S
C396 C401 1.399 . S
C397 C396 1.399 . S
C397 C398 1.376 . S
C398 H385 0.930 . S
C398 C397 1.376 . S
C398 C399 1.388 . S
C399 H386 0.930 . S
C399 C398 1.388 . S
C399 C400 1.390 . S
C400 C399 1.390 . S
C400 C401 1.394 . S
C400 C406 1.465 . S
C401 C396 1.399 . S
C401 C400 1.394 . S
C401 C402 1.516 . S
C402 C401 1.516 . S
C402 C403 1.502 1_455 S
C402 C404 1.561 . S
C402 C405 1.526 . S
C403 H387 0.959 . S
C403 H388 0.959 . S
C403 H389 0.961 . S
C403 C402 1.502 1_655 S
C404 H390 0.960 1_455 S
C404 H391 0.961 1_455 S
C404 H392 0.959 . S
C404 C402 1.561 . S
C405 C402 1.526 . S
C405 C406 1.396 . S
C405 C410 1.390 . S
C406 C400 1.465 . S
C406 C405 1.396 . S
C406 C407 1.399 . S
C407 H393 0.929 . S
C407 C406 1.399 . S
C407 C408 1.385 . S
C408 H394 0.931 . S
C408 C407 1.385 . S
C408 C409 1.389 . S
C409 C408 1.389 . S
C409 C410 1.387 . S
C410 H395 0.930 1_455 S
C410 C405 1.390 . S
C410 C409 1.387 . S
H411 C423 0.930 . S
H412 C425 0.930 . S
H413 C426 0.930 . S
H414 C430 0.959 . S
H415 C430 0.959 . S
H416 C430 0.961 . S
H417 C431 0.960 . S
H418 C431 0.961 . S
H419 C431 0.959 . S
H420 C434 0.929 1_565 S
H421 C435 0.931 1_565 S
H422 C437 0.930 . S
C423 H411 0.930 . S
C423 C424 1.399 . S
C423 C428 1.399 . S
C424 C423 1.399 . S
C424 C425 1.376 1_545 S
C425 H412 0.930 . S
C425 C424 1.376 1_565 S
C425 C426 1.388 . S
C426 H413 0.930 . S
C426 C425 1.388 . S
C426 C427 1.390 1_565 S
C427 C426 1.390 1_545 S
C427 C428 1.394 . S
C427 C433 1.465 . S
C428 C423 1.399 . S
C428 C427 1.394 . S
C428 C429 1.516 . S
C429 C428 1.516 . S
C429 C430 1.502 . S
C429 C431 1.561 . S
C429 C432 1.526 . S
C430 H414 0.959 . S
C430 H415 0.959 . S
C430 H416 0.961 . S
C430 C429 1.502 . S
C431 H417 0.960 . S
C431 H418 0.961 . S
C431 H419 0.959 . S
C431 C429 1.561 . S
C432 C429 1.526 . S
C432 C433 1.396 . S
C432 C437 1.390 . S
C433 C427 1.465 . S
C433 C432 1.396 . S
C433 C434 1.399 . S
C434 H420 0.929 1_545 S
C434 C433 1.399 . S
C434 C435 1.385 . S
C435 H421 0.931 1_545 S
C435 C434 1.385 . S
C435 C436 1.389 . S
C436 C435 1.389 . S
C436 C437 1.387 . S
C437 H422 0.930 . S
C437 C432 1.390 . S
C437 C436 1.387 . S
H438 C450 0.930 . S
H439 C452 0.930 . S
H440 C453 0.930 . S
H441 C457 0.959 . S
H442 C457 0.959 . S
H443 C457 0.961 . S
H444 C458 0.960 . S
H445 C458 0.961 . S
H446 C458 0.959 . S
H447 C461 0.929 . S
H448 C462 0.931 . S
H449 C464 0.930 . S
C450 H438 0.930 . S
C450 C451 1.399 . S
C450 C455 1.399 . S
C451 C450 1.399 . S
C451 C452 1.376 . S
C452 H439 0.930 . S
C452 C451 1.376 . S
C452 C453 1.388 . S
C453 H440 0.930 . S
C453 C452 1.388 . S
C453 C454 1.390 . S
C454 C453 1.390 . S
C454 C455 1.394 . S
C454 C460 1.465 . S
C455 C450 1.399 . S
C455 C454 1.394 . S
C455 C456 1.516 . S
C456 C455 1.516 . S
C456 C457 1.502 . S
C456 C458 1.561 . S
C456 C459 1.526 . S
C457 H441 0.959 . S
C457 H442 0.959 . S
C457 H443 0.961 . S
C457 C456 1.502 . S
C458 H444 0.960 . S
C458 H445 0.961 . S
C458 H446 0.959 . S
C458 C456 1.561 . S
C459 C456 1.526 . S
C459 C460 1.396 . S
C459 C464 1.390 . S
C460 C454 1.465 . S
C460 C459 1.396 . S
C460 C461 1.399 . S
C461 H447 0.929 . S
C461 C460 1.399 . S
C461 C462 1.385 . S
C462 H448 0.931 . S
C462 C461 1.385 . S
C462 C463 1.389 . S
C463 C462 1.389 . S
C463 C464 1.387 . S
C464 H449 0.930 . S
C464 C459 1.390 . S
C464 C463 1.387 . S
H465 C477 0.930 . S
H466 C479 0.930 . S
H467 C480 0.930 1_655 S
H468 C484 0.959 . S
H469 C484 0.959 . S
H470 C484 0.961 . S
H471 C485 0.960 . S
H472 C485 0.961 . S
H473 C485 0.959 . S
H474 C488 0.929 1_655 S
H475 C489 0.931 1_655 S
H476 C491 0.930 . S
C477 H465 0.930 . S
C477 C478 1.399 . S
C477 C482 1.399 . S
C478 C477 1.399 . S
C478 C479 1.376 . S
C479 H466 0.930 . S
C479 C478 1.376 . S
C479 C480 1.388 . S
C480 H467 0.930 1_455 S
C480 C479 1.388 . S
C480 C481 1.390 . S
C481 C480 1.390 . S
C481 C482 1.394 . S
C481 C487 1.465 . S
C482 C477 1.399 . S
C482 C481 1.394 . S
C482 C483 1.516 . S
C483 C482 1.516 . S
C483 C484 1.502 . S
C483 C485 1.561 . S
C483 C486 1.526 . S
C484 H468 0.959 . S
C484 H469 0.959 . S
C484 H470 0.961 . S
C484 C483 1.502 . S
C485 H471 0.960 . S
C485 H472 0.961 . S
C485 H473 0.959 . S
C485 C483 1.561 . S
C486 C483 1.526 . S
C486 C487 1.396 . S
C486 C491 1.390 . S
C487 C481 1.465 . S
C487 C486 1.396 . S
C487 C488 1.399 . S
C488 H474 0.929 1_455 S
C488 C487 1.399 . S
C488 C489 1.385 . S
C489 H475 0.931 1_455 S
C489 C488 1.385 . S
C489 C490 1.389 . S
C490 C489 1.389 . S
C490 C491 1.387 . S
C491 H476 0.930 . S
C491 C486 1.390 . S
C491 C490 1.387 . S
H492 C504 0.930 . S
H493 C506 0.930 . S
H494 C507 0.930 . S
H495 C511 0.959 . S
H496 C511 0.959 . S
H497 C511 0.961 . S
H498 C512 0.960 . S
H499 C512 0.961 . S
H500 C512 0.959 . S
H501 C515 0.929 . S
H502 C516 0.931 . S
H503 C518 0.930 . S
C504 H492 0.930 . S
C504 C505 1.399 . S
C504 C509 1.399 . S
C505 C504 1.399 . S
C505 C506 1.376 . S
C506 H493 0.930 . S
C506 C505 1.376 . S
C506 C507 1.388 . S
C507 H494 0.930 . S
C507 C506 1.388 . S
C507 C508 1.390 . S
C508 C507 1.390 . S
C508 C509 1.394 . S
C508 C514 1.465 . S
C509 C504 1.399 . S
C509 C508 1.394 . S
C509 C510 1.516 . S
C510 C509 1.516 . S
C510 C511 1.502 . S
C510 C512 1.561 . S
C510 C513 1.526 . S
C511 H495 0.959 . S
C511 H496 0.959 . S
C511 H497 0.961 . S
C511 C510 1.502 . S
C512 H498 0.960 . S
C512 H499 0.961 . S
C512 H500 0.959 . S
C512 C510 1.561 . S
C513 C510 1.526 . S
C513 C514 1.396 . S
C513 C518 1.390 . S
C514 C508 1.465 . S
C514 C513 1.396 . S
C514 C515 1.399 . S
C515 H501 0.929 . S
C515 C514 1.399 . S
C515 C516 1.385 . S
C516 H502 0.931 . S
C516 C515 1.385 . S
C516 C517 1.389 . S
C517 C516 1.389 . S
C517 C518 1.387 . S
C518 H503 0.930 . S
C518 C513 1.390 . S
C518 C517 1.387 . S
H519 C531 0.930 . S
H520 C533 0.930 . S
H521 C534 0.930 . S
H522 C538 0.959 . S
H523 C538 0.959 . S
H524 C538 0.961 . S
H525 C539 0.960 . S
H526 C539 0.961 . S
H527 C539 0.959 . S
H528 C542 0.929 . S
H529 C543 0.931 . S
H530 C545 0.930 . S
C531 H519 0.930 . S
C531 C532 1.399 . S
C531 C536 1.399 . S
C532 C531 1.399 . S
C532 C533 1.376 . S
C533 H520 0.930 . S
C533 C532 1.376 . S
C533 C534 1.388 . S
C534 H521 0.930 . S
C534 C533 1.388 . S
C534 C535 1.390 . S
C535 C534 1.390 . S
C535 C536 1.394 . S
C535 C541 1.465 . S
C536 C531 1.399 . S
C536 C535 1.394 . S
C536 C537 1.516 . S
C537 C536 1.516 . S
C537 C538 1.502 . S
C537 C539 1.561 . S
C537 C540 1.526 . S
C538 H522 0.959 . S
C538 H523 0.959 . S
C538 H524 0.961 . S
C538 C537 1.502 . S
C539 H525 0.960 . S
C539 H526 0.961 . S
C539 H527 0.959 . S
C539 C537 1.561 . S
C540 C537 1.526 . S
C540 C541 1.396 . S
C540 C545 1.390 . S
C541 C535 1.465 . S
C541 C540 1.396 . S
C541 C542 1.399 . S
C542 H528 0.929 . S
C542 C541 1.399 . S
C542 C543 1.385 . S
C543 H529 0.931 . S
C543 C542 1.385 . S
C543 C544 1.389 . S
C544 C543 1.389 . S
C544 C545 1.387 . S
C545 H530 0.930 . S
C545 C540 1.390 . S
C545 C544 1.387 . S
H546 C558 0.930 . S
H547 C560 0.930 . S
H548 C561 0.930 1_565 S
H549 C565 0.959 . S
H550 C565 0.959 . S
H551 C565 0.961 . S
H552 C566 0.960 . S
H553 C566 0.961 . S
H554 C566 0.959 . S
H555 C569 0.929 1_565 S
H556 C570 0.931 . S
H557 C572 0.930 . S
C558 H546 0.930 . S
C558 C559 1.399 . S
C558 C563 1.399 . S
C559 C558 1.399 . S
C559 C560 1.376 . S
C560 H547 0.930 . S
C560 C559 1.376 . S
C560 C561 1.388 . S
C561 H548 0.930 1_545 S
C561 C560 1.388 . S
C561 C562 1.390 . S
C562 C561 1.390 . S
C562 C563 1.394 . S
C562 C568 1.465 . S
C563 C558 1.399 . S
C563 C562 1.394 . S
C563 C564 1.516 . S
C564 C563 1.516 . S
C564 C565 1.502 . S
C564 C566 1.561 . S
C564 C567 1.526 . S
C565 H549 0.959 . S
C565 H550 0.959 . S
C565 H551 0.961 . S
C565 C564 1.502 . S
C566 H552 0.960 . S
C566 H553 0.961 . S
C566 H554 0.959 . S
C566 C564 1.561 . S
C567 C564 1.526 . S
C567 C568 1.396 . S
C567 C572 1.390 . S
C568 C562 1.465 . S
C568 C567 1.396 . S
C568 C569 1.399 . S
C569 H555 0.929 1_545 S
C569 C568 1.399 . S
C569 C570 1.385 . S
C570 H556 0.931 . S
C570 C569 1.385 . S
C570 C571 1.389 . S
C571 C570 1.389 . S
C571 C572 1.387 . S
C572 H557 0.930 . S
C572 C567 1.390 . S
C572 C571 1.387 . S
H573 C585 0.930 1_545 S
H574 C587 0.930 1_455 S
H575 C588 0.930 . S
H576 C592 0.959 . S
H577 C592 0.959 . S
H578 C592 0.961 . S
H579 C593 0.960 . S
H580 C593 0.961 . S
H581 C593 0.959 . S
H582 C596 0.929 . S
H583 C597 0.931 . S
H584 C599 0.930 . S
C585 H573 0.930 1_565 S
C585 C586 1.399 . S
C585 C590 1.399 1_554 S
C586 C585 1.399 . S
C586 C587 1.376 . S
C587 H574 0.930 1_655 S
C587 C586 1.376 . S
C587 C588 1.388 1_554 S
C588 H575 0.930 . S
C588 C587 1.388 1_556 S
C588 C589 1.390 . S
C589 C588 1.390 . S
C589 C590 1.394 . S
C589 C595 1.465 . S
C590 C585 1.399 1_556 S
C590 C589 1.394 . S
C590 C591 1.516 . S
C591 C590 1.516 . S
C591 C592 1.502 . S
C591 C593 1.561 . S
C591 C594 1.526 . S
C592 H576 0.959 . S
C592 H577 0.959 . S
C592 H578 0.961 . S
C592 C591 1.502 . S
C593 H579 0.960 . S
C593 H580 0.961 . S
C593 H581 0.959 . S
C593 C591 1.561 . S
C594 C591 1.526 . S
C594 C595 1.396 . S
C594 C599 1.390 . S
C595 C589 1.465 . S
C595 C594 1.396 . S
C595 C596 1.399 . S
C596 H582 0.929 . S
C596 C595 1.399 . S
C596 C597 1.385 . S
C597 H583 0.931 . S
C597 C596 1.385 . S
C597 C598 1.389 . S
C598 C597 1.389 . S
C598 C599 1.387 . S
C599 H584 0.930 . S
C599 C594 1.390 . S
C599 C598 1.387 . S
H600 C612 0.930 . S
H601 C614 0.930 . S
H602 C615 0.930 . S
H603 C619 0.959 1_455 S
H604 C619 0.959 . S
H605 C619 0.961 . S
H606 C620 0.960 . S
H607 C620 0.961 . S
H608 C620 0.959 . S
H609 C623 0.929 . S
H610 C624 0.931 . S
H611 C626 0.930 . S
C612 H600 0.930 . S
C612 C613 1.399 . S
C612 C617 1.399 . S
C613 C612 1.399 . S
C613 C614 1.376 1_655 S
C614 H601 0.930 . S
C614 C613 1.376 1_455 S
C614 C615 1.388 . S
C615 H602 0.930 . S
C615 C614 1.388 . S
C615 C616 1.390 . S
C616 C615 1.390 . S
C616 C617 1.394 1_455 S
C616 C622 1.465 . S
C617 C612 1.399 . S
C617 C616 1.394 1_655 S
C617 C618 1.516 . S
C618 C617 1.516 . S
C618 C619 1.502 . S
C618 C620 1.561 . S
C618 C621 1.526 . S
C619 H603 0.959 1_655 S
C619 H604 0.959 . S
C619 H605 0.961 . S
C619 C618 1.502 . S
C620 H606 0.960 . S
C620 H607 0.961 . S
C620 H608 0.959 . S
C620 C618 1.561 . S
C621 C618 1.526 . S
C621 C622 1.396 1_655 S
C621 C626 1.390 . S
C622 C616 1.465 . S
C622 C621 1.396 1_455 S
C622 C623 1.399 . S
C623 H609 0.929 . S
C623 C622 1.399 . S
C623 C624 1.385 . S
C624 H610 0.931 . S
C624 C623 1.385 . S
C624 C625 1.389 . S
C625 C624 1.389 . S
C625 C626 1.387 1_455 S
C626 H611 0.930 . S
C626 C621 1.390 . S
C626 C625 1.387 1_655 S
H627 C639 0.930 . S
H628 C641 0.930 . S
H629 C642 0.930 . S
H630 C646 0.959 . S
H631 C646 0.959 . S
H632 C646 0.961 . S
H633 C647 0.960 . S
H634 C647 0.961 . S
H635 C647 0.959 . S
H636 C650 0.929 1_565 S
H637 C651 0.931 . S
H638 C653 0.930 . S
C639 H627 0.930 . S
C639 C640 1.399 . S
C639 C644 1.399 . S
C640 C639 1.399 . S
C640 C641 1.376 1_545 S
C641 H628 0.930 . S
C641 C640 1.376 1_565 S
C641 C642 1.388 . S
C642 H629 0.930 . S
C642 C641 1.388 . S
C642 C643 1.390 1_565 S
C643 C642 1.390 1_545 S
C643 C644 1.394 . S
C643 C649 1.465 . S
C644 C639 1.399 . S
C644 C643 1.394 . S
C644 C645 1.516 . S
C645 C644 1.516 . S
C645 C646 1.502 . S
C645 C647 1.561 . S
C645 C648 1.526 . S
C646 H630 0.959 . S
C646 H631 0.959 . S
C646 H632 0.961 . S
C646 C645 1.502 . S
C647 H633 0.960 . S
C647 H634 0.961 . S
C647 H635 0.959 . S
C647 C645 1.561 . S
C648 C645 1.526 . S
C648 C649 1.396 . S
C648 C653 1.390 . S
C649 C643 1.465 . S
C649 C648 1.396 . S
C649 C650 1.399 . S
C650 H636 0.929 1_545 S
C650 C649 1.399 . S
C650 C651 1.385 . S
C651 H637 0.931 . S
C651 C650 1.385 . S
C651 C652 1.389 . S
C652 C651 1.389 . S
C652 C653 1.387 . S
C653 H638 0.930 . S
C653 C648 1.390 . S
C653 C652 1.387 . S
H654 C666 0.930 . S
H655 C668 0.930 . S
H656 C669 0.930 . S
H657 C673 0.959 . S
H658 C673 0.959 . S
H659 C673 0.961 . S
H660 C674 0.960 . S
H661 C674 0.961 . S
H662 C674 0.959 . S
H663 C677 0.929 . S
H664 C678 0.931 . S
H665 C680 0.930 . S
C666 H654 0.930 . S
C666 C667 1.399 1_556 S
C666 C671 1.399 . S
C667 C666 1.399 1_554 S
C667 C668 1.376 . S
C668 H655 0.930 . S
C668 C667 1.376 . S
C668 C669 1.388 . S
C669 H656 0.930 . S
C669 C668 1.388 . S
C669 C670 1.390 1_554 S
C670 C669 1.390 1_556 S
C670 C671 1.394 . S
C670 C676 1.465 . S
C671 C666 1.399 . S
C671 C670 1.394 . S
C671 C672 1.516 . S
C672 C671 1.516 . S
C672 C673 1.502 . S
C672 C674 1.561 . S
C672 C675 1.526 . S
C673 H657 0.959 . S
C673 H658 0.959 . S
C673 H659 0.961 . S
C673 C672 1.502 . S
C674 H660 0.960 . S
C674 H661 0.961 . S
C674 H662 0.959 . S
C674 C672 1.561 . S
C675 C672 1.526 . S
C675 C676 1.396 . S
C675 C680 1.390 . S
C676 C670 1.465 . S
C676 C675 1.396 . S
C676 C677 1.399 . S
C677 H663 0.929 . S
C677 C676 1.399 . S
C677 C678 1.385 . S
C678 H664 0.931 . S
C678 C677 1.385 . S
C678 C679 1.389 . S
C679 C678 1.389 . S
C679 C680 1.387 . S
C680 H665 0.930 . S
C680 C675 1.390 . S
C680 C679 1.387 . S
H681 C693 0.930 . S
H682 C695 0.930 . S
H683 C696 0.930 1_655 S
H684 C700 0.959 . S
H685 C700 0.959 . S
H686 C700 0.961 . S
H687 C701 0.960 . S
H688 C701 0.961 . S
H689 C701 0.959 . S
H690 C704 0.929 1_655 S
H691 C705 0.947 . S
H692 C707 0.930 . S
C693 H681 0.930 . S
C693 C694 1.399 . S
C693 C698 1.399 . S
C694 C693 1.399 . S
C694 C695 1.376 . S
C695 H682 0.930 . S
C695 C694 1.376 . S
C695 C696 1.388 . S
C696 H683 0.930 1_455 S
C696 C695 1.388 . S
C696 C697 1.390 . S
C697 C696 1.390 . S
C697 C698 1.394 . S
C697 C703 1.465 . S
C698 C693 1.399 . S
C698 C697 1.394 . S
C698 C699 1.516 . S
C699 C698 1.516 . S
C699 C700 1.502 . S
C699 C701 1.561 . S
C699 C702 1.526 . S
C700 H684 0.959 . S
C700 H685 0.959 . S
C700 H686 0.961 . S
C700 C699 1.502 . S
C701 H687 0.960 . S
C701 H688 0.961 . S
C701 H689 0.959 . S
C701 C699 1.561 . S
C702 C699 1.526 . S
C702 C703 1.396 . S
C702 C707 1.390 . S
C703 C697 1.465 . S
C703 C702 1.396 . S
C703 C704 1.399 . S
C704 H690 0.929 1_455 S
C704 C703 1.399 . S
C704 C705 1.385 . S
C705 H691 0.947 . S
C705 C704 1.385 . S
C705 C706 1.389 . S
C706 C705 1.389 . S
C706 C707 1.387 . S
C707 H692 0.930 . S
C707 C702 1.390 . S
C707 C706 1.387 . S
C409 C97 1.047 . S
C397 C11 1.426 . S
C424 C26 1.594 . S
C436 C211 1.301 . S
C451 C40 1.218 . S
C463 C271 0.882 . S
C478 C5 1.177 1_565 S
C490 C71 0.977 . S
C517 C185 1.054 . S
C505 C18 1.439 . S
C532 C32 1.389 . S
C544 C281 0.748 . S
C571 C167 0.901 . S
C559 C39 1.243 . S
C586 C4 1.322 1_665 S
C598 C299 0.997 . S
C625 C43 1.068 . S
C613 C19 1.028 . S
C652 C157 0.784 . S
C640 C33 1.018 . S
C679 C325 1.163 . S
C667 C12 1.449 . S
C694 C25 1.339 . S
C706 C53 0.793 . S
