# Generated by pormake.
# Topology anh, (6,3)-cn, num edge types: 1
# Building blocks:
#     Node 0, Type 0, BuildingBlock: PAMTUU_clean_sbu_0, # of connection points: 6
#     Node 1, Type 0, BuildingBlock: PAMTUU_clean_sbu_0, # of connection points: 6
#     Node 2, Type 0, BuildingBlock: PAMTUU_clean_sbu_0, # of connection points: 6
#     Node 3, Type 1, BuildingBlock: VETTIZ_charged_linker_0, # of connection points: 3
#     Node 4, Type 1, BuildingBlock: VETTIZ_charged_linker_0, # of connection points: 3
#     Node 5, Type 1, BuildingBlock: VETTIZ_charged_linker_0, # of connection points: 3
#     Node 6, Type 1, BuildingBlock: VETTIZ_charged_linker_0, # of connection points: 3
#     Node 7, Type 1, BuildingBlock: VETTIZ_charged_linker_0, # of connection points: 3
#     Node 8, Type 1, BuildingBlock: VETTIZ_charged_linker_0, # of connection points: 3
#     Edge 9, Type (0, 1), BuildingBlock: TEMPAE_clean_linker_10, # of connection points: 2
#     Edge 10, Type (0, 1), BuildingBlock: TEMPAE_clean_linker_10, # of connection points: 2
#     Edge 11, Type (0, 1), BuildingBlock: TEMPAE_clean_linker_10, # of connection points: 2
#     Edge 12, Type (0, 1), BuildingBlock: TEMPAE_clean_linker_10, # of connection points: 2
#     Edge 13, Type (0, 1), BuildingBlock: TEMPAE_clean_linker_10, # of connection points: 2
#     Edge 14, Type (0, 1), BuildingBlock: TEMPAE_clean_linker_10, # of connection points: 2
#     Edge 15, Type (0, 1), BuildingBlock: TEMPAE_clean_linker_10, # of connection points: 2
#     Edge 16, Type (0, 1), BuildingBlock: TEMPAE_clean_linker_10, # of connection points: 2
#     Edge 17, Type (0, 1), BuildingBlock: TEMPAE_clean_linker_10, # of connection points: 2
#     Edge 18, Type (0, 1), BuildingBlock: TEMPAE_clean_linker_10, # of connection points: 2
#     Edge 19, Type (0, 1), BuildingBlock: TEMPAE_clean_linker_10, # of connection points: 2
#     Edge 20, Type (0, 1), BuildingBlock: TEMPAE_clean_linker_10, # of connection points: 2
#     Edge 21, Type (0, 1), BuildingBlock: TEMPAE_clean_linker_10, # of connection points: 2
#     Edge 22, Type (0, 1), BuildingBlock: TEMPAE_clean_linker_10, # of connection points: 2
#     Edge 23, Type (0, 1), BuildingBlock: TEMPAE_clean_linker_10, # of connection points: 2
#     Edge 24, Type (0, 1), BuildingBlock: TEMPAE_clean_linker_10, # of connection points: 2
#     Edge 25, Type (0, 1), BuildingBlock: TEMPAE_clean_linker_10, # of connection points: 2
#     Edge 26, Type (0, 1), BuildingBlock: TEMPAE_clean_linker_10, # of connection points: 2
# Relax obj value: 0.240
# Max RMSD: 0.190
# Mean RMSD: 0.158
data_MOF--net-anh--node1-PAMTUU_clean_sbu_0--node2-VETTIZ_charged_linker_0--edge1-TEMPAE_clean_linker_10
_symmetry_space_group_name_H-M    P1
_symmetry_Int_Tables_number       1
_symmetry_cell_setting            triclinic
loop_
_symmetry_equiv_pos_as_xyz
'x, y, z'
_cell_length_a     37.721262
_cell_length_b     37.69666
_cell_length_c     67.441617
_cell_angle_alpha  93.27407
_cell_angle_beta   90.622133
_cell_angle_gamma 119.88396
loop_
_atom_site_label
_atom_site_type_symbol
_atom_site_fract_x
_atom_site_fract_y
_atom_site_fract_z
_atom_type_partial_charge
Tb0 Tb 0.08448 0.6072 0.16134 0.0
Tb1 Tb 0.13249 0.55822 0.1625 0.0
C2 C 0.1083 0.57784 0.12174 0.0
C3 C 0.99995 0.62494 0.16683 0.0
C4 C 0.91594 0.56885 0.16553 0.0
C5 C 0.93119 0.60366 0.15453 0.0
C6 C 0.97319 0.63159 0.15512 0.0
C7 C 0.98392 0.59316 0.1798 0.0
C8 C 0.94207 0.56521 0.17913 0.0
C9 C 1.04256 0.64208 0.16129 0.0
O10 O 1.03229 0.54132 0.15989 0.0
O11 O 0.06745 0.50705 0.16434 0.0
O12 O 0.13722 0.58562 0.19245 0.0
O13 O 0.07642 0.58345 0.19026 0.0
O14 O 0.17484 0.54296 0.15084 0.0
O15 O 0.14299 0.51668 0.17731 0.0
O16 O 0.18368 0.62319 0.16026 0.0
O17 O 0.14974 0.65814 0.16778 0.0
O18 O 0.10593 0.60764 0.13144 0.0
O19 O 0.11096 0.55 0.13144 0.0
C20 C 1.0319 0.50627 0.16256 0.0
O21 O 0.06925 0.64866 0.17557 0.0
O22 O 1.04662 0.62272 0.1456 0.0
C23 C 0.10617 0.58529 0.20105 0.0
C24 C 0.21172 0.5317 0.1761 0.0
C25 C 0.28527 0.54337 0.19373 0.0
C26 C 0.24862 0.52375 0.20376 0.0
C27 C 0.21215 0.51782 0.19499 0.0
C28 C 0.24871 0.55316 0.16658 0.0
C29 C 0.28501 0.55897 0.17529 0.0
C30 C 0.17269 0.52188 0.16594 0.0
C31 C 0.18486 0.6587 0.16463 0.0
H32 H 0.91143 0.60678 0.14384 0.0
H33 H 0.98505 0.65565 0.14487 0.0
H34 H 1.00401 0.58723 0.18888 0.0
H35 H 0.9307 0.53861 0.18778 0.0
H36 H 0.24783 0.51146 0.21798 0.0
H37 H 0.18407 0.50119 0.20271 0.0
H38 H 0.24948 0.56413 0.152 0.0
H39 H 0.31238 0.57335 0.16686 0.0
Tb40 Tb 0.58342 0.05596 0.49058 0.0
Tb41 Tb 0.67888 0.10558 0.49596 0.0
C42 C 0.6371 0.08232 0.45369 0.0
C43 C 0.47475 0.9772 0.49301 0.0
C44 C 0.41226 0.90093 0.50333 0.0
C45 C 0.45325 0.91261 0.50767 0.0
C46 C 0.48449 0.95069 0.50247 0.0
C47 C 0.43395 0.96619 0.48934 0.0
C48 C 0.40287 0.92833 0.4945 0.0
C49 C 0.50672 1.01632 0.48676 0.0
O50 O 0.59906 1.00526 0.48873 0.0
O51 O 0.66608 0.04128 0.50032 0.0
O52 O 0.65279 0.11162 0.52373 0.0
O53 O 0.59807 0.04803 0.52042 0.0
O54 O 0.73651 0.14243 0.48452 0.0
O55 O 0.73102 0.12874 0.51531 0.0
O56 O 0.66332 0.15482 0.49046 0.0
O57 O 0.5962 0.12056 0.49801 0.0
O58 O 0.60557 0.08111 0.4622 0.0
O59 O 0.66637 0.08295 0.46464 0.0
C60 C 0.63268 1.00528 0.49515 0.0
O61 O 0.52691 0.04435 0.50111 0.0
O62 O 0.53069 1.0142 0.47352 0.0
C63 C 0.62408 0.07976 0.53179 0.0
C64 C 0.77225 0.19742 0.50766 0.0
C65 C 0.79202 0.27937 0.50484 0.0
C66 C 0.8196 0.26624 0.49883 0.0
C67 C 0.80947 0.22536 0.49996 0.0
C68 C 0.74722 0.21168 0.51597 0.0
C69 C 0.7568 0.25219 0.51442 0.0
C70 C 0.75418 0.15336 0.50225 0.0
C71 C 0.6295 0.15582 0.49476 0.0
H72 H 0.46105 0.89189 0.51445 0.0
H73 H 0.51613 0.9592 0.5055 0.0
H74 H 0.42614 0.98663 0.48225 0.0
H75 H 0.37137 0.92016 0.49133 0.0
H76 H 0.84775 0.28682 0.49199 0.0
H77 H 0.8291 0.21495 0.49342 0.0
H78 H 0.71821 0.19063 0.52198 0.0
H79 H 0.73478 0.26098 0.51922 0.0
Tb80 Tb 0.58319 0.53105 0.82084 0.0
Tb81 Tb 0.63209 0.62749 0.82964 0.0
C82 C 0.61134 0.58713 0.78592 0.0
C83 C 0.55497 0.42311 0.82223 0.0
C84 C 0.57228 0.36302 0.83407 0.0
C85 C 0.60125 0.40478 0.83789 0.0
C86 C 0.59261 0.43469 0.83201 0.0
C87 C 0.52552 0.38164 0.81901 0.0
C88 C 0.53404 0.35175 0.82493 0.0
C89 C 0.54625 0.45416 0.81544 0.0
O90 O 0.64929 0.54606 0.8203 0.0
O91 O 0.68179 0.61189 0.83457 0.0
O92 O 0.60367 0.60205 0.85707 0.0
O93 O 0.60471 0.54285 0.85158 0.0
O94 O 0.65338 0.68485 0.81834 0.0
O95 O 0.66726 0.68026 0.84889 0.0
O96 O 0.56663 0.61441 0.82714 0.0
O97 O 0.53176 0.54416 0.82618 0.0
O98 O 0.58033 0.55523 0.79282 0.0
O99 O 0.63998 0.61509 0.79829 0.0
C100 C 0.68344 0.57864 0.8282 0.0
O101 O 0.53801 0.47391 0.82944 0.0
O102 O 0.5718 0.47872 0.80303 0.0
C103 C 0.60195 0.56941 0.86375 0.0
C104 C 0.64801 0.72911 0.84157 0.0
C105 C 0.59218 0.75713 0.83837 0.0
C106 C 0.58467 0.72594 0.85092 0.0
C107 C 0.61235 0.71181 0.85245 0.0
C108 C 0.65823 0.76412 0.83138 0.0
C109 C 0.6304 0.77813 0.82979 0.0
C110 C 0.66662 0.7042 0.83582 0.0
C111 C 0.53115 0.57924 0.82739 0.0
H112 H 0.63101 0.41427 0.84477 0.0
H113 H 0.61551 0.46678 0.83478 0.0
H114 H 0.49615 0.37237 0.81171 0.0
H115 H 0.51094 0.31975 0.82209 0.0
H116 H 0.55569 0.70993 0.85796 0.0
H117 H 0.60367 0.68461 0.86035 0.0
H118 H 0.68542 0.77763 0.82278 0.0
H119 H 0.63682 0.80228 0.82001 0.0
C120 C 0.72313 0.19146 0.17762 0.0
C121 C 0.75587 0.22803 0.18888 0.0
C122 C 0.74957 0.22987 0.20941 0.0
C123 C 0.68787 0.16169 0.20813 0.0
C124 C 0.68876 0.15865 0.18768 0.0
C125 C 0.64918 0.11738 0.17995 0.0
H126 H 0.47129 0.93938 0.21337 0.0
C127 C 0.65215 0.12383 0.21543 0.0
C128 C 0.62695 0.09664 0.19914 0.0
H129 H 0.48809 0.95951 0.15114 0.0
H130 H 0.5536 1.02475 0.15989 0.0
H131 H 0.56005 0.95951 0.22219 0.0
H132 H 0.49459 1.02483 0.22845 0.0
H133 H 0.5262 1.04015 0.25007 0.0
H134 H 0.48896 0.98663 0.2448 0.0
H135 H 0.52659 0.95227 0.24212 0.0
H136 H 0.58055 0.98972 0.24446 0.0
C137 C 0.6613 0.08949 0.16799 0.0
C138 C 0.6216 0.12712 0.16718 0.0
C139 C 0.65198 0.10972 0.29071 0.0
C140 C 0.62594 0.07872 0.30294 0.0
C141 C 0.59094 0.04421 0.29391 0.0
C142 C 0.58247 1.04014 0.27336 0.0
C143 C 0.60911 0.07083 0.2612 0.0
C144 C 0.64296 0.10499 0.27001 0.0
C145 C 0.66704 0.13506 0.25495 0.0
C146 C 0.64331 0.11235 0.2354 0.0
C147 C 0.60912 0.07503 0.23926 0.0
C148 C 0.71086 0.14114 0.25584 0.0
C149 C 0.66464 0.17459 0.26003 0.0
C150 C 0.4882 0.95616 0.20106 0.0
C151 C 0.47235 0.94137 0.18138 0.0
C152 C 0.49766 0.96815 0.16668 0.0
C153 C 0.53612 1.00638 0.1717 0.0
C154 C 0.55104 1.01963 0.19181 0.0
C155 C 0.52589 0.99332 0.20568 0.0
C156 C 0.54321 1.00815 0.22632 0.0
C157 C 0.58194 0.04829 0.22346 0.0
C158 C 0.58905 0.05733 0.20312 0.0
C159 C 0.55292 0.97586 0.23438 0.0
C160 C 0.51175 1.0151 0.23819 0.0
H161 H 0.71736 0.20321 0.23442 0.0
H162 H 0.72447 0.18823 0.16165 0.0
H163 H 0.61311 0.14748 0.17592 0.0
H164 H 0.59304 0.0986 0.16206 0.0
H165 H 0.63768 0.14291 0.15392 0.0
H166 H 0.68153 0.08285 0.17728 0.0
H167 H 0.67797 0.10446 0.15469 0.0
H168 H 0.63369 0.0599 0.16298 0.0
H169 H 0.67907 0.13688 0.29703 0.0
H170 H 0.56948 1.0203 0.3028 0.0
H171 H 0.55507 1.01303 0.26789 0.0
H172 H 0.70973 0.11135 0.25737 0.0
H173 H 0.72925 0.16221 0.2688 0.0
H174 H 0.72775 0.15283 0.24229 0.0
H175 H 0.63869 0.16886 0.26959 0.0
H176 H 0.65877 0.18686 0.24659 0.0
H177 H 0.69304 0.19888 0.26809 0.0
H178 H 0.77001 0.25684 0.21889 0.0
C179 C 0.71739 0.19801 0.21873 0.0
C180 C 0.62966 0.69085 0.50919 0.0
C181 C 0.63155 0.72644 0.52034 0.0
C182 C 0.63697 0.72717 0.54109 0.0
C183 C 0.63456 0.66062 0.53992 0.0
C184 C 0.63134 0.65806 0.51942 0.0
C185 C 0.63001 0.61703 0.51174 0.0
H186 H 0.63084 0.4379 0.54429 0.0
C187 C 0.63401 0.62321 0.54723 0.0
C188 C 0.6319 0.5962 0.53095 0.0
H189 H 0.6297 0.45889 0.48232 0.0
H190 H 0.6295 0.524 0.49153 0.0
H191 H 0.69635 0.52551 0.55883 0.0
H192 H 0.56532 0.46043 0.55512 0.0
H193 H 0.57808 0.49073 0.57753 0.0
H194 H 0.59401 0.45292 0.57414 0.0
H195 H 0.66603 0.48751 0.57557 0.0
H196 H 0.68237 0.54105 0.58089 0.0
C197 C 0.66721 0.62707 0.49924 0.0
C198 C 0.58999 0.58912 0.49953 0.0
C199 C 0.63366 0.61421 0.62286 0.0
C200 C 0.63196 0.58459 0.63533 0.0
C201 C 0.63009 0.54899 0.62626 0.0
C202 C 0.63029 0.54314 0.60553 0.0
C203 C 0.63216 0.573 0.59323 0.0
C204 C 0.63372 0.6077 0.60202 0.0
C205 C 0.63555 0.6361 0.58675 0.0
C206 C 0.6341 0.6125 0.56722 0.0
C207 C 0.63252 0.57573 0.57113 0.0
C208 C 0.67718 0.67666 0.59036 0.0
C209 C 0.59693 0.64056 0.58879 0.0
C210 C 0.63134 0.45592 0.53227 0.0
C211 C 0.6312 0.44152 0.51245 0.0
C212 C 0.63005 0.46762 0.49791 0.0
C213 C 0.63009 0.50581 0.50322 0.0
C214 C 0.63084 0.5194 0.52345 0.0
C215 C 0.63117 0.49322 0.5372 0.0
C216 C 0.63096 0.50859 0.55797 0.0
C217 C 0.63164 0.54863 0.55526 0.0
C218 C 0.63136 0.55717 0.53492 0.0
C219 C 0.67067 0.51586 0.56907 0.0
C220 C 0.59029 0.47662 0.56684 0.0
H221 H 0.64174 0.70015 0.56639 0.0
H222 H 0.62626 0.68824 0.49314 0.0
H223 H 0.56321 0.58229 0.50863 0.0
H224 H 0.58814 0.55963 0.49455 0.0
H225 H 0.58802 0.60418 0.4862 0.0
H226 H 0.69606 0.64751 0.50814 0.0
H227 H 0.66661 0.64288 0.48593 0.0
H228 H 0.66747 0.59866 0.4942 0.0
H229 H 0.63545 0.64217 0.62913 0.0
H230 H 0.62789 0.52507 0.63521 0.0
H231 H 0.62899 0.51531 0.59999 0.0
H232 H 0.70078 0.67145 0.5975 0.0
H233 H 0.67411 0.69953 0.60021 0.0
H234 H 0.69077 0.69047 0.57636 0.0
H235 H 0.5705 0.61189 0.59357 0.0
H236 H 0.58584 0.64565 0.5746 0.0
H237 H 0.6025 0.66574 0.60001 0.0
H238 H 0.64047 0.75305 0.55054 0.0
C239 C 0.63821 0.69564 0.55058 0.0
C240 C 0.21526 0.57434 0.84415 0.0
C241 C 0.25099 0.57836 0.85527 0.0
C242 C 0.25155 0.58733 0.87591 0.0
C243 C 0.18392 0.58214 0.87486 0.0
C244 C 0.18201 0.57681 0.85439 0.0
C245 C 0.14124 0.57478 0.84677 0.0
H246 H 0.96017 0.57609 0.87987 0.0
C247 C 0.14581 0.58111 0.88226 0.0
C248 C 0.11948 0.57781 0.86604 0.0
H249 H 0.98581 0.57548 0.81784 0.0
H250 H 1.05052 0.57612 0.82688 0.0
H251 H 0.98206 0.5096 0.88958 0.0
H252 H 1.04554 0.64091 0.89505 0.0
H253 H 1.05956 0.62703 0.91686 0.0
H254 H 1.00636 0.61014 0.91139 0.0
H255 H 0.97267 0.53797 0.909 0.0
H256 H 1.01072 0.5227 0.91206 0.0
C257 C 0.11401 0.53397 0.83464 0.0
C258 C 0.1518 0.61121 0.83423 0.0
C259 C 0.13008 0.57773 0.95773 0.0
C260 C 0.09895 0.57451 0.97023 0.0
C261 C 0.06432 0.57334 0.96132 0.0
C262 C 1.06043 0.57464 0.94067 0.0
C263 C 0.09144 0.57723 0.92831 0.0
C264 C 0.12557 0.57896 0.93699 0.0
C265 C 0.15577 0.58243 0.92174 0.0
C266 C 0.13356 0.5809 0.90227 0.0
C267 C 0.0961 0.57838 0.90625 0.0
C268 C 0.16158 0.54461 0.92295 0.0
C269 C 0.19524 0.62476 0.92622 0.0
C270 C 0.97824 0.57532 0.86771 0.0
C271 C 0.96511 0.57501 0.84794 0.0
C272 C 0.99321 0.57565 0.8334 0.0
C273 C 1.03112 0.57593 0.83859 0.0
C274 C 1.04283 0.57584 0.85874 0.0
C275 C 1.01539 0.57559 0.87253 0.0
C276 C 1.02937 0.57561 0.89325 0.0
C277 C 0.06992 0.57698 0.89045 0.0
C278 C 0.07998 0.57683 0.8701 0.0
C279 C 0.99713 0.53466 0.90159 0.0
C280 C 1.03532 0.61516 0.90491 0.0
H281 H 0.2236 0.59459 0.90113 0.0
H282 H 0.21297 0.5689 0.82815 0.0
H283 H 0.17172 0.64063 0.84309 0.0
H284 H 0.12364 0.61111 0.8292 0.0
H285 H 0.16828 0.60985 0.82091 0.0
H286 H 0.10683 0.50777 0.84377 0.0
H287 H 0.12972 0.53123 0.82128 0.0
H288 H 0.08475 0.53178 0.8297 0.0
H289 H 0.15722 0.57871 0.96387 0.0
H290 H 1.04018 0.57195 0.97036 0.0
H291 H 1.0332 0.57378 0.93525 0.0
H292 H 0.13217 0.51681 0.9259 0.0
H293 H 0.18401 0.5497 0.93514 0.0
H294 H 0.17121 0.536 0.90897 0.0
H295 H 0.189 0.64694 0.93489 0.0
H296 H 0.20873 0.64014 0.9125 0.0
H297 H 0.21866 0.62183 0.93496 0.0
H298 H 0.27775 0.59369 0.88533 0.0
C299 C 0.21935 0.58871 0.8854 0.0
C300 C 0.90484 0.57835 0.45664 0.0
C301 C 0.87381 0.54098 0.44769 0.0
C302 C 0.87608 0.53153 0.42735 0.0
C303 C 0.94627 0.58745 0.42806 0.0
C304 C 0.94213 0.59852 0.44746 0.0
C305 C 0.98266 0.62306 0.45871 0.0
H306 H 0.18234 0.6838 0.4652 0.0
C307 C 0.99057 0.6068 0.42461 0.0
C308 C 1.01181 0.62706 0.44267 0.0
H309 H 0.10701 0.69147 0.51118 0.0
H310 H 1.05123 0.67001 0.48702 0.0
H311 H 0.11356 0.59777 0.43993 0.0
H312 H 0.15747 0.72605 0.43532 0.0
H313 H 0.13767 0.70304 0.41135 0.0
H314 H 0.18053 0.70077 0.42212 0.0
H315 H 0.16512 0.63586 0.4351 0.0
H316 H 0.12702 0.61125 0.41525 0.0
C317 C 0.98393 0.59685 0.47546 0.0
C318 C 0.98781 0.66509 0.46607 0.0
C319 C 1.04114 0.59324 0.35641 0.0
C320 C 0.08075 0.60909 0.34921 0.0
C321 C 0.1149 0.63096 0.36259 0.0
C322 C 0.10984 0.63721 0.38276 0.0
C323 C 0.07022 0.6215 0.38972 0.0
C324 C 1.0366 0.60024 0.37664 0.0
C325 C 0.99688 0.58643 0.38687 0.0
C326 C 1.01261 0.60572 0.40784 0.0
C327 C 1.05549 0.62486 0.40949 0.0
C328 C 0.9732 0.53884 0.38616 0.0
C329 C 0.97295 0.6046 0.37696 0.0
C330 C 0.15319 0.67909 0.47018 0.0
C331 C 0.14826 0.68735 0.49027 0.0
C332 C 0.11102 0.68407 0.49592 0.0
C333 C 0.07877 0.67164 0.48186 0.0
C334 C 0.08337 0.66127 0.46206 0.0
C335 C 0.12052 0.66634 0.45636 0.0
C336 C 0.12098 0.65794 0.43429 0.0
C337 C 0.07657 0.64281 0.42811 0.0
C338 C 1.05484 0.64465 0.44448 0.0
C339 C 0.13239 0.62399 0.43082 0.0
C340 C 0.15078 0.69885 0.42522 0.0
H341 H 0.91322 0.54548 0.40222 0.0
H342 H 0.9036 0.58644 0.4722 0.0
H343 H 0.97311 0.6756 0.45527 0.0
H344 H 1.02026 0.68973 0.46745 0.0
H345 H 0.97348 0.66326 0.48056 0.0
H346 H 0.96829 0.56382 0.47023 0.0
H347 H 0.96862 0.60019 0.48884 0.0
H348 H 1.01474 0.60332 0.48002 0.0
H349 H 1.01435 0.57654 0.34643 0.0
H350 H 0.14565 0.64314 0.35741 0.0
H351 H 0.13697 0.65393 0.3922 0.0
H352 H 0.99351 0.52583 0.383 0.0
H353 H 0.94822 0.52542 0.37442 0.0
H354 H 0.96014 0.52725 0.40061 0.0
H355 H 0.99305 0.63816 0.37583 0.0
H356 H 0.94651 0.60055 0.38548 0.0
H357 H 0.96151 0.59009 0.36171 0.0
H358 H 0.85228 0.50321 0.41988 0.0
C359 C 0.91204 0.55535 0.41732 0.0
C360 C 0.45107 0.88099 0.77866 0.0
C361 C 0.43843 0.84765 0.76454 0.0
C362 C 0.43849 0.85434 0.74418 0.0
C363 C 0.47255 0.92773 0.7524 0.0
C364 C 0.46914 0.9206 0.77235 0.0
C365 C 0.49319 0.95912 0.78561 0.0
H366 H 0.6201 0.16325 0.79556 0.0
C367 C 0.50026 0.97217 0.75094 0.0
C368 C 0.51266 0.99049 0.77035 0.0
H369 H 0.56532 0.08003 0.84199 0.0
H370 H 0.53421 1.02281 0.81738 0.0
H371 H 0.64653 0.10586 0.76957 0.0
H372 H 0.54301 0.12435 0.76628 0.0
H373 H 0.55963 0.12401 0.74201 0.0
H374 H 0.59388 0.1625 0.76062 0.0
H375 H 0.64941 0.14939 0.75861 0.0
H376 H 0.63301 0.10144 0.74422 0.0
C377 C 0.52567 0.95506 0.79816 0.0
C378 C 0.46248 0.966 0.79796 0.0
C379 C 0.54195 1.02925 0.68332 0.0
C380 C 0.57119 0.06799 0.67757 0.0
C381 C 0.59295 0.10038 0.69214 0.0
C382 C 0.58581 0.09421 0.71233 0.0
C383 C 0.5571 0.05504 0.71797 0.0
C384 C 0.53571 1.02333 0.70357 0.0
C385 C 0.50886 0.98311 0.71239 0.0
C386 C 0.51686 0.99617 0.73444 0.0
C387 C 0.54511 1.03829 0.73759 0.0
C388 C 0.52424 0.95301 0.70606 0.0
C389 C 0.46391 0.96798 0.70574 0.0
C390 C 0.60261 0.13258 0.80053 0.0
C391 C 0.59524 0.12617 0.8208 0.0
C392 C 0.5713 0.08579 0.82648 0.0
C393 C 0.55301 0.05266 0.81213 0.0
C394 C 0.55884 0.05994 0.79187 0.0
C395 C 0.58408 0.09925 0.7864 0.0
C396 C 0.58635 0.1013 0.76419 0.0
C397 C 0.55733 0.0568 0.75724 0.0
C398 C 0.54132 1.0329 0.7735 0.0
C399 C 0.63108 0.11547 0.75872 0.0
C400 C 0.57017 0.12968 0.75779 0.0
H401 H 0.45621 0.89781 0.72233 0.0
H402 H 0.45241 0.87708 0.7944 0.0
H403 H 0.43409 0.95708 0.78888 0.0
H404 H 0.47434 0.99848 0.80303 0.0
H405 H 0.45348 0.94724 0.81106 0.0
H406 H 0.5356 0.93523 0.79001 0.0
H407 H 0.5133 0.94128 0.81239 0.0
H408 H 0.5543 0.98455 0.80138 0.0
H409 H 0.52555 1.00371 0.67233 0.0
H410 H 0.61568 0.13039 0.68787 0.0
H411 H 0.60336 0.12001 0.72278 0.0
H412 H 0.55725 0.96968 0.70272 0.0
H413 H 0.50706 0.93338 0.69251 0.0
H414 H 0.52231 0.93323 0.71797 0.0
H415 H 0.45733 0.99367 0.70712 0.0
H416 H 0.44168 0.94425 0.71497 0.0
H417 H 0.4577 0.95561 0.68996 0.0
H418 H 0.42889 0.82903 0.73304 0.0
C419 C 0.4551 0.89431 0.73803 0.0
C420 C 0.62645 0.38216 0.10795 0.0
C421 C 0.65501 0.38026 0.09538 0.0
C422 C 0.64817 0.37802 0.07463 0.0
C423 C 0.59325 0.39266 0.0798 0.0
C424 C 0.59621 0.3889 0.09992 0.0
C425 C 0.56887 0.39977 0.11163 0.0
H426 H 0.45976 0.49617 0.11686 0.0
C427 C 0.566 0.40971 0.07681 0.0
C428 C 0.5511 0.41326 0.09536 0.0
H429 H 0.4834 0.43466 0.16312 0.0
H430 H 0.51736 0.41186 0.13989 0.0
H431 H 0.54805 0.5316 0.09607 0.0
H432 H 0.42995 0.42354 0.08445 0.0
H433 H 0.45157 0.43729 0.06124 0.0
H434 H 0.44094 0.47214 0.07605 0.0
H435 H 0.5032 0.53262 0.08774 0.0
H436 H 0.53539 0.52562 0.07042 0.0
C437 C 0.59594 0.43562 0.12722 0.0
C438 C 0.53561 0.36046 0.12062 0.0
C439 C 0.56413 0.4682 0.01109 0.0
C440 C 0.54572 0.49019 0.00455 0.0
C441 C 0.51963 0.49662 0.01716 0.0
C442 C 0.51316 0.48259 0.03632 0.0
C443 C 0.53308 0.46202 0.04294 0.0
C444 C 0.5573 0.45432 0.03022 0.0
C445 C 0.57573 0.43171 0.03967 0.0
C446 C 0.55848 0.42699 0.06021 0.0
C447 C 0.53427 0.4456 0.06214 0.0
C448 C 0.62288 0.45984 0.04033 0.0
C449 C 0.55982 0.38972 0.02783 0.0
C450 C 0.47203 0.47758 0.12201 0.0
C451 C 0.46918 0.4675 0.14193 0.0
C452 C 0.48584 0.44349 0.14797 0.0
C453 C 0.50514 0.42991 0.13441 0.0
C454 C 0.50815 0.44073 0.11464 0.0
C455 C 0.49111 0.46355 0.10865 0.0
C456 C 0.49569 0.47066 0.08688 0.0
C457 C 0.51866 0.44854 0.08083 0.0
C458 C 0.5265 0.43182 0.09724 0.0
C459 C 0.52173 0.51752 0.085 0.0
C460 C 0.45244 0.4502 0.07651 0.0
H461 H 0.61507 0.38471 0.05092 0.0
H462 H 0.63059 0.38374 0.12395 0.0
H463 H 0.5297 0.33227 0.11156 0.0
H464 H 0.50554 0.35894 0.12083 0.0
H465 H 0.54494 0.358 0.13592 0.0
H466 H 0.62484 0.45825 0.12066 0.0
H467 H 0.60424 0.42426 0.14032 0.0
H468 H 0.58161 0.45345 0.13254 0.0
H469 H 0.58365 0.46208 0.00153 0.0
H470 H 0.50502 0.51339 0.01237 0.0
H471 H 0.49351 0.48896 0.04537 0.0
H472 H 0.63157 0.49201 0.04511 0.0
H473 H 0.63514 0.45995 0.02541 0.0
H474 H 0.63919 0.45139 0.051 0.0
H475 H 0.5289 0.37852 0.02079 0.0
H476 H 0.55581 0.36528 0.03745 0.0
H477 H 0.58054 0.39184 0.01581 0.0
H478 H 0.6691 0.37538 0.06459 0.0
C479 C 0.61718 0.38401 0.06675 0.0
C480 C 0.31684 0.50354 0.20555 0.0
C481 C 0.32178 0.54111 0.20017 0.0
C482 C 0.34856 0.4947 0.20322 0.0
C483 C 0.38513 0.52376 0.19492 0.0
C484 C 0.39297 0.56427 0.1934 0.0
C485 C 0.36105 0.57264 0.19622 0.0
C486 C 0.34032 0.45203 0.20642 0.0
C487 C 0.43251 0.5968 0.18561 0.0
C488 C 0.4627 0.49499 0.17576 0.0
C489 C 0.44763 0.48093 0.15605 0.0
C490 C 0.44249 0.50844 0.18893 0.0
C491 C 0.40703 0.50859 0.18201 0.0
C492 C 0.39161 0.49407 0.16216 0.0
C493 C 0.41179 0.47999 0.14958 0.0
C494 C 0.45986 0.52325 0.20996 0.0
C495 C 0.35374 0.4935 0.15404 0.0
H496 H 0.28694 0.47916 0.20916 0.0
H497 H 0.36553 0.60242 0.19298 0.0
H498 H 0.32945 0.43301 0.19211 0.0
H499 H 0.36861 0.45263 0.21167 0.0
H500 H 0.31633 0.43717 0.21737 0.0
H501 H 0.43724 0.62805 0.18915 0.0
H502 H 0.45892 0.59523 0.1919 0.0
H503 H 0.43172 0.59157 0.1692 0.0
H504 H 0.49063 0.49611 0.18083 0.0
H505 H 0.39935 0.46812 0.13456 0.0
H506 H 0.43569 0.51778 0.22058 0.0
H507 H 0.48175 0.55672 0.21058 0.0
H508 H 0.47685 0.50802 0.21489 0.0
H509 H 0.32685 0.47298 0.16245 0.0
H510 H 0.34689 0.48267 0.13805 0.0
H511 H 0.35764 0.52471 0.15576 0.0
C512 C 0.78481 0.34223 0.51073 0.0
C513 C 0.79708 0.31889 0.49872 0.0
C514 C 0.78802 0.37854 0.50433 0.0
C515 C 0.80429 0.39191 0.48563 0.0
C516 C 0.81604 0.36814 0.47336 0.0
C517 C 0.81174 0.33177 0.47993 0.0
C518 C 0.77376 0.4024 0.51744 0.0
C519 C 0.83475 0.38186 0.45354 0.0
C520 C 0.80985 0.47596 0.45553 0.0
C521 C 0.84992 0.5072 0.46075 0.0
C522 C 0.79201 0.43934 0.46533 0.0
C523 C 0.81557 0.43357 0.47999 0.0
C524 C 0.8546 0.46631 0.48639 0.0
C525 C 0.87082 0.50276 0.47696 0.0
C526 C 0.74894 0.4061 0.45935 0.0
C527 C 0.8816 0.46137 0.50146 0.0
H528 H 0.77297 0.33236 0.52519 0.0
H529 H 0.81977 0.31326 0.47017 0.0
H530 H 0.79804 0.43501 0.51988 0.0
H531 H 0.74723 0.40201 0.50994 0.0
H532 H 0.7646 0.38952 0.53214 0.0
H533 H 0.8427 0.35997 0.44595 0.0
H534 H 0.81316 0.38518 0.44358 0.0
H535 H 0.86301 0.41229 0.45568 0.0
H536 H 0.79326 0.47946 0.44328 0.0
H537 H 0.9018 0.52634 0.48121 0.0
H538 H 0.72981 0.39917 0.47252 0.0
H539 H 0.74851 0.37751 0.45399 0.0
H540 H 0.73493 0.41513 0.44751 0.0
H541 H 0.86489 0.44852 0.51502 0.0
H542 H 0.90979 0.49087 0.50592 0.0
H543 H 0.89083 0.43959 0.495 0.0
C544 C 0.524 0.72606 0.82102 0.0
C545 C 0.55774 0.7609 0.83039 0.0
C546 C 0.4943 0.72931 0.80994 0.0
C547 C 0.49852 0.76835 0.80824 0.0
C548 C 0.53154 0.80348 0.81848 0.0
C549 C 0.561 0.79933 0.82937 0.0
C550 C 0.45976 0.69139 0.79918 0.0
C551 C 0.53714 0.84579 0.81696 0.0
C552 C 0.46744 0.80179 0.76315 0.0
C553 C 0.43863 0.81103 0.77118 0.0
C554 C 0.4845 0.78359 0.77445 0.0
C555 C 0.47164 0.77374 0.79401 0.0
C556 C 0.43771 0.77654 0.80079 0.0
C557 C 0.42146 0.79526 0.78922 0.0
C558 C 0.52025 0.78055 0.76649 0.0
C559 C 0.42205 0.76475 0.82125 0.0
H560 H 0.52215 0.69648 0.82135 0.0
H561 H 0.58736 0.82623 0.83647 0.0
H562 H 0.43008 0.68813 0.80351 0.0
H563 H 0.46138 0.69422 0.7829 0.0
H564 H 0.46047 0.66321 0.80245 0.0
H565 H 0.5628 0.8694 0.82685 0.0
H566 H 0.5434 0.85458 0.80141 0.0
H567 H 0.50871 0.84594 0.82085 0.0
H568 H 0.48077 0.81374 0.74918 0.0
H569 H 0.3987 0.80186 0.79531 0.0
H570 H 0.51858 0.75148 0.77017 0.0
H571 H 0.54915 0.80619 0.7735 0.0
H572 H 0.52169 0.78245 0.75012 0.0
H573 H 0.42226 0.73663 0.82507 0.0
H574 H 0.3905 0.75961 0.82242 0.0
H575 H 0.44232 0.78989 0.83239 0.0
C576 C 0.87705 0.49818 0.15014 0.0
C577 C 0.87665 0.53247 0.15904 0.0
C578 C 0.8419 0.46583 0.14041 0.0
C579 C 0.8055 0.46779 0.13977 0.0
C580 C 0.80438 0.50143 0.14969 0.0
C581 C 0.84029 0.53377 0.15905 0.0
C582 C 0.84449 0.43106 0.12967 0.0
C583 C 0.76598 0.5045 0.14932 0.0
C584 C 0.73044 0.42447 0.09577 0.0
C585 C 0.6962 0.39256 0.10402 0.0
C586 C 0.76744 0.44736 0.10684 0.0
C587 C 0.77027 0.43792 0.12658 0.0
C588 C 0.73753 0.40282 0.13416 0.0
C589 C 0.70071 0.3804 0.12273 0.0
C590 C 0.80194 0.48426 0.09807 0.0
C591 C 0.74001 0.3912 0.15496 0.0
H592 H 0.9056 0.49782 0.14977 0.0
H593 H 0.84037 0.56063 0.16577 0.0
H594 H 0.84132 0.43221 0.11338 0.0
H595 H 0.87404 0.43244 0.13308 0.0
H596 H 0.81899 0.40126 0.13375 0.0
H597 H 0.76908 0.53041 0.15935 0.0
H598 H 0.75893 0.50903 0.13397 0.0
H599 H 0.73957 0.47562 0.15378 0.0
H600 H 0.72736 0.43441 0.08141 0.0
H601 H 0.67452 0.35533 0.12905 0.0
H602 H 0.83159 0.48553 0.10085 0.0
H603 H 0.80444 0.51267 0.10529 0.0
H604 H 0.79694 0.48411 0.08179 0.0
H605 H 0.77002 0.3935 0.15818 0.0
H606 H 0.71525 0.35957 0.15732 0.0
H607 H 0.73714 0.4128 0.16581 0.0
C608 C 0.37384 0.84375 0.52551 0.0
C609 C 0.37876 0.85961 0.50681 0.0
C610 C 0.33792 0.80747 0.5294 0.0
C611 C 0.30685 0.78723 0.51417 0.0
C612 C 0.3136 0.80156 0.4948 0.0
C613 C 0.34962 0.8374 0.49139 0.0
C614 C 0.33289 0.79148 0.54979 0.0
C615 C 0.28169 0.78086 0.47787 0.0
C616 C 0.21096 0.68948 0.50411 0.0
C617 C 0.18403 0.70501 0.50441 0.0
C618 C 0.25154 0.7141 0.51141 0.0
C619 C 0.26501 0.75504 0.51843 0.0
C620 C 0.23593 0.76757 0.52238 0.0
C621 C 0.19546 0.74223 0.51522 0.0
C622 C 0.28123 0.69868 0.50856 0.0
C623 C 0.24876 0.81051 0.5307 0.0
H624 H 0.39703 0.86071 0.5373 0.0
H625 H 0.35427 0.84924 0.47678 0.0
H626 H 0.30209 0.78243 0.55525 0.0
H627 H 0.33594 0.76365 0.54893 0.0
H628 H 0.3564 0.8144 0.56082 0.0
H629 H 0.29236 0.79597 0.46375 0.0
H630 H 0.27357 0.74834 0.4752 0.0
H631 H 0.25341 0.78142 0.48166 0.0
H632 H 0.20154 0.65984 0.49644 0.0
H633 H 0.17443 0.75397 0.51588 0.0
H634 H 0.30595 0.71238 0.5204 0.0
H635 H 0.29557 0.70755 0.49404 0.0
H636 H 0.26544 0.66471 0.50854 0.0
H637 H 0.27278 0.82082 0.54274 0.0
H638 H 0.22241 0.81258 0.53661 0.0
H639 H 0.26159 0.83189 0.5187 0.0
C640 C 0.60242 0.33235 0.85616 0.0
C641 C 0.58274 0.33114 0.83814 0.0
C642 C 0.61187 0.3016 0.85987 0.0
C643 C 0.60186 0.26952 0.84505 0.0
C644 C 0.58259 0.26872 0.82671 0.0
C645 C 0.57337 0.29952 0.82353 0.0
C646 C 0.63291 0.30393 0.87945 0.0
C647 C 0.57138 0.23516 0.81037 0.0
C648 C 0.64183 0.19923 0.83309 0.0
C649 C 0.60573 0.16188 0.83497 0.0
C650 C 0.6443 0.23636 0.83967 0.0
C651 C 0.60988 0.23554 0.84824 0.0
C652 C 0.57712 0.19796 0.85377 0.0
C653 C 0.57526 0.16128 0.84693 0.0
C654 C 0.68079 0.27606 0.83452 0.0
C655 C 0.54071 0.19601 0.86382 0.0
H656 H 0.60987 0.35698 0.86745 0.0
H657 H 0.55908 0.29911 0.80942 0.0
H658 H 0.62179 0.27304 0.88488 0.0
H659 H 0.66625 0.31783 0.87742 0.0
H660 H 0.62838 0.32329 0.89104 0.0
H661 H 0.5568 0.23944 0.79701 0.0
H662 H 0.59912 0.23432 0.80578 0.0
H663 H 0.54979 0.20487 0.81584 0.0
H664 H 0.66623 0.1997 0.82454 0.0
H665 H 0.54751 0.13255 0.84885 0.0
H666 H 0.68813 0.30082 0.84628 0.0
H667 H 0.6736 0.28553 0.82043 0.0
H668 H 0.70816 0.27268 0.83242 0.0
H669 H 0.55038 0.22234 0.87495 0.0
H670 H 0.52324 0.16701 0.87128 0.0
H671 H 0.51994 0.19738 0.85249 0.0
C672 C 0.66388 0.96103 0.50762 0.0
C673 C 0.63258 0.96358 0.49697 0.0
C674 C 0.6635 0.9229 0.50994 0.0
C675 C 0.63152 0.88433 0.50116 0.0
C676 C 0.60022 0.88682 0.49009 0.0
C677 C 0.60086 0.92525 0.48838 0.0
C678 C 0.69753 0.92392 0.52231 0.0
C679 C 0.56543 0.84835 0.47988 0.0
C680 C 0.64858 0.78707 0.49658 0.0
C681 C 0.62776 0.76361 0.51271 0.0
C682 C 0.64937 0.82493 0.49239 0.0
C683 C 0.62955 0.84193 0.50457 0.0
C684 C 0.60783 0.81782 0.52048 0.0
C685 C 0.60681 0.78002 0.52403 0.0
C686 C 0.67237 0.84732 0.47489 0.0
C687 C 0.58617 0.83262 0.53442 0.0
H688 H 0.68883 0.98919 0.51462 0.0
H689 H 0.57609 0.92513 0.48004 0.0
H690 H 0.68458 0.90432 0.53495 0.0
H691 H 0.71348 0.91115 0.51325 0.0
H692 H 0.7203 0.95547 0.52827 0.0
H693 H 0.54567 0.85492 0.47021 0.0
H694 H 0.57755 0.83172 0.47071 0.0
H695 H 0.54627 0.82759 0.49116 0.0
H696 H 0.66551 0.77663 0.48745 0.0
H697 H 0.58968 0.76337 0.53639 0.0
H698 H 0.69982 0.87663 0.48026 0.0
H699 H 0.65295 0.85501 0.46563 0.0
H700 H 0.68233 0.82903 0.46546 0.0
H701 H 0.60836 0.86344 0.54141 0.0
H702 H 0.5712 0.81157 0.54636 0.0
H703 H 0.56255 0.83573 0.52603 0.0
C704 C 0.72888 0.54376 0.82321 0.0
C705 C 0.72489 0.5779 0.83013 0.0
C706 C 0.76667 0.54278 0.82505 0.0
C707 C 0.80341 0.5766 0.83422 0.0
C708 C 0.79955 0.6111 0.84122 0.0
C709 C 0.76147 0.61137 0.8391 0.0
C710 C 0.76712 0.50486 0.81709 0.0
C711 C 0.83609 0.64827 0.85128 0.0
C712 C 0.89096 0.5594 0.85718 0.0
C713 C 0.92308 0.57417 0.84352 0.0
C714 C 0.85331 0.56006 0.85438 0.0
C715 C 0.84473 0.57538 0.83715 0.0
C716 C 0.87635 0.58957 0.82301 0.0
C717 C 0.91411 0.58885 0.82626 0.0
C718 C 0.82232 0.54419 0.87025 0.0
C719 C 0.87041 0.60606 0.80421 0.0
H720 H 0.70205 0.51721 0.81624 0.0
H721 H 0.76044 0.63833 0.84472 0.0
H722 H 0.79144 0.51316 0.80622 0.0
H723 H 0.77443 0.49091 0.82939 0.0
H724 H 0.73733 0.48158 0.80974 0.0
H725 H 0.82935 0.67305 0.85575 0.0
H726 H 0.84631 0.6395 0.8647 0.0
H727 H 0.86193 0.66046 0.84116 0.0
H728 H 0.89469 0.54647 0.87041 0.0
H729 H 0.93707 0.60063 0.8152 0.0
H730 H 0.79304 0.51815 0.86384 0.0
H731 H 0.81591 0.56858 0.87589 0.0
H732 H 0.83281 0.53377 0.88297 0.0
H733 H 0.84162 0.58275 0.7961 0.0
H734 H 0.89623 0.61472 0.7942 0.0
H735 H 0.86736 0.63344 0.80796 0.0
C736 C 0.26438 0.70303 0.16043 0.0
C737 C 0.22701 0.70038 0.16612 0.0
C738 C 0.30323 0.74094 0.16169 0.0
C739 C 0.30706 0.77914 0.16917 0.0
C740 C 0.26947 0.77663 0.17499 0.0
C741 C 0.2309 0.7384 0.1733 0.0
C742 C 0.34066 0.73996 0.1549 0.0
C743 C 0.26995 0.81478 0.18338 0.0
C744 C 0.4145 0.86905 0.19168 0.0
C745 C 0.43045 0.89909 0.17733 0.0
C746 C 0.37565 0.83152 0.18929 0.0
C747 C 0.34989 0.82059 0.17172 0.0
C748 C 0.36593 0.84985 0.15683 0.0
C749 C 0.40486 0.88781 0.15975 0.0
C750 C 0.36197 0.80323 0.206 0.0
C751 C 0.34162 0.84107 0.13753 0.0
H752 H 0.26342 0.67507 0.15478 0.0
H753 H 0.20349 0.73838 0.17792 0.0
H754 H 0.35599 0.76279 0.14371 0.0
H755 H 0.36287 0.74857 0.16767 0.0
H756 H 0.33322 0.70921 0.14831 0.0
H757 H 0.239 0.80885 0.18723 0.0
H758 H 0.29051 0.82745 0.19695 0.0
H759 H 0.28234 0.83859 0.17247 0.0
H760 H 0.43262 0.87427 0.20518 0.0
H761 H 0.41493 0.909 0.14814 0.0
H762 H 0.35867 0.77325 0.20079 0.0
H763 H 0.3315 0.79731 0.21071 0.0
H764 H 0.38377 0.81598 0.21913 0.0
H765 H 0.33467 0.81081 0.1305 0.0
H766 H 0.35807 0.8649 0.1269 0.0
H767 H 0.31194 0.83936 0.14045 0.0
C768 C 0.59777 0.20208 0.50537 0.0
C769 C 0.62913 0.19752 0.49619 0.0
C770 C 0.59762 0.24044 0.50715 0.0
C771 C 0.62921 0.27701 0.49937 0.0
C772 C 0.66042 0.27226 0.48971 0.0
C773 C 0.66028 0.23379 0.48847 0.0
C774 C 0.56312 0.24175 0.51756 0.0
C775 C 0.69409 0.30797 0.48012 0.0
C776 C 0.61343 0.37274 0.49088 0.0
C777 C 0.63213 0.40011 0.50804 0.0
C778 C 0.61224 0.3337 0.48786 0.0
C779 C 0.63047 0.31983 0.50205 0.0
C780 C 0.65025 0.34775 0.51907 0.0
C781 C 0.65075 0.38624 0.52179 0.0
C782 C 0.59083 0.30684 0.46928 0.0
C783 C 0.67098 0.33671 0.53484 0.0
H784 H 0.57312 0.17543 0.51156 0.0
H785 H 0.68486 0.23214 0.4811 0.0
H786 H 0.57549 0.26365 0.5309 0.0
H787 H 0.54784 0.25301 0.50759 0.0
H788 H 0.53992 0.21122 0.52224 0.0
H789 H 0.71958 0.3026 0.4761 0.0
H790 H 0.68156 0.31325 0.46636 0.0
H791 H 0.70613 0.33619 0.49013 0.0
H792 H 0.59863 0.38131 0.4798 0.0
H793 H 0.66652 0.4059 0.535 0.0
H794 H 0.56676 0.27608 0.47325 0.0
H795 H 0.61305 0.30242 0.46036 0.0
H796 H 0.57656 0.3201 0.45993 0.0
H797 H 0.64754 0.31038 0.54254 0.0
H798 H 0.68896 0.36262 0.54609 0.0
H799 H 0.69167 0.32698 0.52796 0.0
C800 C 0.45065 0.54383 0.82357 0.0
C801 C 0.48915 0.57882 0.8294 0.0
C802 C 0.4119 0.5427 0.82555 0.0
C803 C 0.40928 0.57691 0.8342 0.0
C804 C 0.44798 0.61224 0.84019 0.0
C805 C 0.4864 0.61292 0.83757 0.0
C806 C 0.37322 0.5043 0.81822 0.0
C807 C 0.44873 0.64967 0.84981 0.0
C808 C 0.30809 0.58703 0.82946 0.0
C809 C 0.28867 0.5741 0.84769 0.0
C810 C 0.34567 0.58715 0.82458 0.0
C811 C 0.36678 0.57496 0.83819 0.0
C812 C 0.34645 0.56061 0.85618 0.0
C813 C 0.30866 0.55965 0.86035 0.0
C814 C 0.36163 0.59978 0.80433 0.0
C815 C 0.365 0.54625 0.8715 0.0
H816 H 0.45064 0.51682 0.81715 0.0
H817 H 0.51464 0.64033 0.84249 0.0
H818 H 0.35333 0.49074 0.83085 0.0
H819 H 0.35593 0.51198 0.80751 0.0
H820 H 0.37943 0.48094 0.81087 0.0
H821 H 0.48028 0.675 0.85374 0.0
H822 H 0.43345 0.66061 0.83965 0.0
H823 H 0.43125 0.64165 0.86355 0.0
H824 H 0.29443 0.59788 0.81892 0.0
H825 H 0.29473 0.54738 0.87412 0.0
H826 H 0.39262 0.60404 0.80254 0.0
H827 H 0.36184 0.6285 0.80125 0.0
H828 H 0.34046 0.57572 0.79298 0.0
H829 H 0.36787 0.52018 0.86496 0.0
H830 H 0.34655 0.53638 0.8849 0.0
H831 H 0.39629 0.5713 0.87618 0.0
C832 C 0.98684 0.42555 0.15961 0.0
C833 C 0.99037 0.46454 0.16407 0.0
C834 C 0.94942 0.38699 0.16132 0.0
C835 C 0.9129 0.38513 0.16844 0.0
C836 C 0.91628 0.42436 0.17305 0.0
C837 C 0.95374 0.46254 0.17058 0.0
C838 C 0.949 0.34768 0.15532 0.0
C839 C 0.88006 0.42602 0.18115 0.0
C840 C 0.80169 0.28303 0.16302 0.0
C841 C 0.79686 0.26542 0.18158 0.0
C842 C 0.8385 0.32031 0.15829 0.0
C843 C 0.87281 0.34302 0.17237 0.0
C844 C 0.86841 0.32461 0.19075 0.0
C845 C 0.83228 0.28695 0.19475 0.0
C846 C 0.84012 0.33417 0.13769 0.0
C847 C 0.90225 0.34519 0.2067 0.0
H848 H 1.01368 0.42499 0.15448 0.0
H849 H 0.95459 0.49122 0.17441 0.0
H850 H 0.94428 0.32976 0.16849 0.0
H851 H 0.92305 0.32861 0.14447 0.0
H852 H 0.97792 0.35326 0.14858 0.0
H853 H 0.88621 0.45794 0.18396 0.0
H854 H 0.85317 0.4089 0.17059 0.0
H855 H 0.87178 0.41075 0.19532 0.0
H856 H 0.77639 0.2681 0.15209 0.0
H857 H 0.83204 0.2744 0.20881 0.0
H858 H 0.86616 0.36534 0.136 0.0
H859 H 0.81102 0.33316 0.13361 0.0
H860 H 0.84308 0.31242 0.12698 0.0
H861 H 0.93064 0.34692 0.20122 0.0
H862 H 0.89438 0.32872 0.22054 0.0
H863 H 0.90904 0.37711 0.21036 0.0
C864 C 0.11486 0.54743 0.08841 0.0
C865 C 0.10826 0.57623 0.09946 0.0
C866 C 0.11489 0.54602 0.06742 0.0
C867 C 0.10791 0.57388 0.05707 0.0
C868 C 0.10129 0.603 0.06815 0.0
C869 C 0.10166 0.60389 0.08908 0.0
C870 C 0.12229 0.51459 0.0563 0.0
C871 C 0.09341 0.63313 0.05787 0.0
C872 C 0.13952 0.59643 0.0033 0.0
C873 C 0.1021 0.57262 0.9924 0.0
C874 C 0.14209 0.59641 0.02422 0.0
C875 C 0.10641 0.57208 0.03468 0.0
C876 C 0.06879 0.5473 0.02374 0.0
C877 C 0.06714 0.54774 0.00287 0.0
C878 C 0.18289 0.6232 0.03518 0.0
C879 C 1.02994 0.52081 0.03413 0.0
H880 H 0.12013 0.52596 0.09616 0.0
H881 H 0.09644 0.62628 0.09732 0.0
H882 H 0.09531 0.49386 0.04633 0.0
H883 H 0.14885 0.53008 0.04678 0.0
H884 H 0.12823 0.49576 0.06646 0.0
H885 H 0.08932 0.6542 0.06857 0.0
H886 H 0.11928 0.65172 0.04844 0.0
H887 H 0.0655 0.61632 0.04793 0.0
H888 H 0.16673 0.61607 0.99554 0.0
H889 H 1.03818 0.52846 0.99472 0.0
H890 H 0.19009 0.6047 0.04494 0.0
H891 H 0.18152 0.64723 0.04488 0.0
H892 H 0.2082 0.63838 0.0249 0.0
H893 H 1.03414 0.49972 0.04343 0.0
H894 H 1.00339 0.5023 0.02351 0.0
H895 H 1.02268 0.5404 0.04422 0.0
C896 C 0.6052 0.07749 0.42004 0.0
C897 C 0.63923 0.08349 0.4316 0.0
C898 C 0.60605 0.07835 0.39922 0.0
C899 C 0.64195 0.08574 0.38949 0.0
C900 C 0.67662 0.09222 0.40103 0.0
C901 C 0.6748 0.09083 0.42191 0.0
C902 C 0.56819 0.07086 0.3876 0.0
C903 C 0.7156 0.10049 0.39132 0.0
C904 C 0.6256 0.04668 0.33483 0.0
C905 C 0.63419 0.08184 0.32499 0.0
C906 C 0.62927 0.04785 0.35567 0.0
C907 C 0.64233 0.08522 0.3672 0.0
C908 C 0.65282 0.12125 0.35737 0.0
C909 C 0.64856 0.11914 0.33645 0.0
C910 C 0.61771 1.00864 0.3654 0.0
C911 C 0.66717 0.16182 0.36902 0.0
H912 H 0.57746 0.07169 0.42726 0.0
H913 H 0.70135 0.09571 0.43063 0.0
H914 H 0.57547 0.09728 0.37866 0.0
H915 H 0.55731 0.04339 0.37707 0.0
H916 H 0.54288 0.06608 0.39738 0.0
H917 H 0.7403 0.10623 0.40235 0.0
H918 H 0.70969 0.07394 0.381 0.0
H919 H 0.72653 0.12751 0.38234 0.0
H920 H 0.61542 1.01786 0.3262 0.0
H921 H 0.65511 0.14649 0.32913 0.0
H922 H 0.59061 1.00031 0.37445 0.0
H923 H 0.64302 1.013 0.37562 0.0
H924 H 0.61036 0.98262 0.35436 0.0
H925 H 0.64176 0.1604 0.37772 0.0
H926 H 0.67779 0.18763 0.35923 0.0
H927 H 0.69252 0.16832 0.37977 0.0
C928 C 0.64667 0.62477 0.75583 0.0
C929 C 0.61473 0.59022 0.76389 0.0
C930 C 0.65061 0.62708 0.73506 0.0
C931 C 0.62213 0.59397 0.72192 0.0
C932 C 0.58959 0.55928 0.72999 0.0
C933 C 0.58623 0.55789 0.75075 0.0
C934 C 0.6856 0.66479 0.72718 0.0
C935 C 0.55861 0.52313 0.71667 0.0
C936 C 0.60967 0.60696 0.66673 0.0
C937 C 0.63173 0.58998 0.65761 0.0
C938 C 0.60718 0.60952 0.6876 0.0
C939 C 0.62707 0.59464 0.6998 0.0
C940 C 0.65025 0.57849 0.69073 0.0
C941 C 0.65243 0.57656 0.66989 0.0
C942 C 0.58233 0.62719 0.69657 0.0
C943 C 0.67205 0.5623 0.70303 0.0
H944 H 0.66883 0.65001 0.76574 0.0
H945 H 0.56141 0.53097 0.75669 0.0
H946 H 0.70601 0.65632 0.71903 0.0
H947 H 0.67373 0.67806 0.71646 0.0
H948 H 0.70403 0.68869 0.73922 0.0
H949 H 0.53447 0.49893 0.72518 0.0
H950 H 0.54378 0.53336 0.70587 0.0
H951 H 0.57424 0.50948 0.70797 0.0
H952 H 0.59325 0.61718 0.65752 0.0
H953 H 0.67037 0.56423 0.66318 0.0
H954 H 0.60094 0.65175 0.70829 0.0
H955 H 0.55558 0.60295 0.70376 0.0
H956 H 0.57109 0.64006 0.68529 0.0
H957 H 0.6931 0.58633 0.7144 0.0
H958 H 0.68994 0.55199 0.69383 0.0
H959 H 0.6494 0.53602 0.71104 0.0
C960 C 0.60145 0.04359 0.56283 0.0
C961 C 0.61906 0.08037 0.5534 0.0
C962 C 0.59523 0.04325 0.58328 0.0
C963 C 0.60576 0.08046 0.59439 0.0
C964 C 0.62347 0.11771 0.5849 0.0
C965 C 0.63051 0.1173 0.56451 0.0
C966 C 0.57732 1.00306 0.59298 0.0
C967 C 0.63407 0.15779 0.59616 0.0
C968 C 0.55042 0.06795 0.64238 0.0
C969 C 0.5807 0.07385 0.65647 0.0
C970 C 0.55868 0.07159 0.62213 0.0
C971 C 0.59774 0.08009 0.61591 0.0
C972 C 0.62846 0.08629 0.63019 0.0
C973 C 0.61968 0.08359 0.65038 0.0
C974 C 0.52546 0.06573 0.60739 0.0
C975 C 0.67009 0.09435 0.62409 0.0
H976 H 0.59286 1.01506 0.55422 0.0
H977 H 0.64379 0.1457 0.55714 0.0
H978 H 0.59772 1.00569 0.60564 0.0
H979 H 0.54733 0.99551 0.59904 0.0
H980 H 0.57284 0.97728 0.58243 0.0
H981 H 0.64747 0.184 0.58656 0.0
H982 H 0.60616 0.15557 0.60262 0.0
H983 H 0.6562 0.1643 0.60871 0.0
H984 H 0.52033 0.06051 0.64724 0.0
H985 H 0.64285 0.08774 0.66139 0.0
H986 H 0.51613 1.03782 0.59739 0.0
H987 H 0.53714 0.09213 0.59794 0.0
H988 H 0.49797 0.06256 0.6148 0.0
H989 H 0.66673 0.06787 0.61447 0.0
H990 H 0.69084 0.09941 0.63708 0.0
H991 H 0.68466 0.12165 0.61526 0.0
C992 C 0.58769 0.52341 0.89129 0.0
C993 C 0.59505 0.56119 0.88494 0.0
C994 C 0.5796 0.51415 0.91112 0.0
C995 C 0.57917 0.5435 0.925 0.0
C996 C 0.58694 0.58188 0.91877 0.0
C997 C 0.59464 0.59024 0.89875 0.0
C998 C 0.57127 0.47279 0.91717 0.0
C999 C 0.58708 0.61401 0.93325 0.0
C1000 C 0.52235 0.50067 0.97166 0.0
C1001 C 0.55435 0.50676 0.98471 0.0
C1002 C 0.53012 0.51381 0.95232 0.0
C1003 C 0.57087 0.53377 0.94605 0.0
C1004 C 0.60343 0.54147 0.95946 0.0
C1005 C 0.59474 0.52769 0.97862 0.0
C1006 C 0.49461 0.5048 0.93836 0.0
C1007 C 0.64731 0.56306 0.95338 0.0
H1008 H 0.58775 0.50069 0.88071 0.0
H1009 H 0.60033 0.6195 0.89394 0.0
H1010 H 0.59421 0.47685 0.92884 0.0
H1011 H 0.5407 0.45636 0.92361 0.0
H1012 H 0.57225 0.45321 0.90448 0.0
H1013 H 0.59398 0.64243 0.92606 0.0
H1014 H 0.55684 0.60168 0.93999 0.0
H1015 H 0.61018 0.62205 0.94554 0.0
H1016 H 0.4911 0.48434 0.97634 0.0
H1017 H 0.61957 0.53299 0.98884 0.0
H1018 H 0.49173 0.48259 0.92603 0.0
H1019 H 0.50006 0.53317 0.93162 0.0
H1020 H 0.46518 0.49177 0.94596 0.0
H1021 H 0.65152 0.54367 0.94171 0.0
H1022 H 0.66926 0.5697 0.96607 0.0
H1023 H 0.65493 0.59232 0.94693 0.0
C1024 C 0.07492 0.59525 0.2317 0.0
C1025 C 0.1043 0.58761 0.22297 0.0
C1026 C 0.07223 0.59775 0.25237 0.0
C1027 C 0.09929 0.59205 0.26471 0.0
C1028 C 0.12883 0.58396 0.25604 0.0
C1029 C 0.13117 0.58208 0.23523 0.0
C1030 C 1.04062 0.60692 0.26101 0.0
C1031 C 0.1579 0.5773 0.26874 0.0
C1032 C 0.11475 0.63793 0.3178 0.0
C1033 C 0.08675 0.60406 0.32775 0.0
C1034 C 0.11998 0.63419 0.29738 0.0
C1035 C 0.09693 0.59553 0.28668 0.0
C1036 C 0.06938 0.56096 0.29676 0.0
C1037 C 0.06438 0.56571 0.31717 0.0
C1038 C 0.14917 0.67192 0.28713 0.0
C1039 C 1.04461 0.51916 0.2859 0.0
H1040 H 1.05412 0.59975 0.22236 0.0
H1041 H 0.15378 0.57595 0.22857 0.0
H1042 H 1.01983 0.58184 0.27019 0.0
H1043 H 1.05593 0.63553 0.27091 0.0
H1044 H 1.02188 0.61056 0.24934 0.0
H1045 H 0.17828 0.57015 0.2597 0.0
H1046 H 0.17714 0.60515 0.27871 0.0
H1047 H 0.14038 0.55173 0.27834 0.0
H1048 H 0.13181 0.66771 0.32591 0.0
H1049 H 1.04307 0.53939 0.3249 0.0
H1050 H 0.13187 0.67892 0.27611 0.0
H1051 H 0.17141 0.66634 0.27887 0.0
H1052 H 0.16638 0.69922 0.29775 0.0
H1053 H 1.02284 0.51967 0.27489 0.0
H1054 H 1.02697 0.49487 0.29616 0.0
H1055 H 0.06502 0.51095 0.27757 0.0
loop_
_geom_bond_atom_site_label_1
_geom_bond_atom_site_label_2
_geom_bond_distance
_geom_bond_site_symmetry_2
_ccdc_geom_bond_type
Tb0 C9 2.764 1_455 S
Tb0 O10 2.325 1_455 S
Tb0 O13 2.303 . S
Tb0 O17 2.322 . S
Tb0 O18 2.349 . S
Tb0 O21 2.415 1_455 S
Tb0 O22 2.399 1_455 S
Tb1 O11 2.322 . S
Tb1 O12 2.349 . S
Tb1 O14 2.415 . S
Tb1 O15 2.399 . S
Tb1 O16 2.325 . S
Tb1 O19 2.303 . S
Tb1 C30 2.764 . S
C2 O18 1.261 . S
C2 O19 1.257 . S
C3 C6 1.358 . S
C3 C7 1.332 . S
C3 C9 1.504 . S
C4 C5 1.373 . S
C4 C8 1.308 . S
C5 C4 1.373 . S
C5 C6 1.429 . S
C5 H32 0.932 . S
C6 C3 1.358 . S
C6 C5 1.429 . S
C6 H33 0.930 . S
C7 C3 1.332 . S
C7 C8 1.394 . S
C7 H34 0.932 . S
C8 C4 1.308 . S
C8 C7 1.394 . S
C8 H35 0.929 . S
C9 Tb0 2.764 1_655 S
C9 C3 1.504 . S
C9 O21 1.239 . S
C9 O22 1.263 . S
O10 Tb0 2.325 1_655 S
O10 C20 1.236 . S
O11 Tb1 2.322 . S
O11 C20 1.257 1_455 S
O12 Tb1 2.349 . S
O12 C23 1.261 . S
O13 Tb0 2.303 . S
O13 C23 1.257 . S
O14 Tb1 2.415 . S
O14 C30 1.239 . S
O15 Tb1 2.399 . S
O15 C30 1.263 . S
O16 Tb1 2.325 . S
O16 C31 1.236 . S
O17 Tb0 2.322 . S
O17 C31 1.257 . S
O18 Tb0 2.349 . S
O18 C2 1.261 . S
O19 Tb1 2.303 . S
O19 C2 1.257 . S
C20 O10 1.236 . S
C20 O11 1.257 1_655 S
O21 Tb0 2.415 1_655 S
O21 C9 1.239 . S
O22 Tb0 2.399 1_655 S
O22 C9 1.263 . S
C23 O12 1.261 . S
C23 O13 1.257 . S
C24 C27 1.358 . S
C24 C28 1.332 . S
C24 C30 1.504 . S
C25 C26 1.373 . S
C25 C29 1.308 . S
C26 C25 1.373 . S
C26 C27 1.429 . S
C26 H36 0.932 . S
C27 C24 1.358 . S
C27 C26 1.429 . S
C27 H37 0.930 . S
C28 C24 1.332 . S
C28 C29 1.394 . S
C28 H38 0.932 . S
C29 C25 1.308 . S
C29 C28 1.394 . S
C29 H39 0.929 . S
C30 Tb1 2.764 . S
C30 O14 1.239 . S
C30 O15 1.263 . S
C30 C24 1.504 . S
C31 O16 1.236 . S
C31 O17 1.257 . S
H32 C5 0.932 . S
H33 C6 0.930 . S
H34 C7 0.932 . S
H35 C8 0.929 . S
H36 C26 0.932 . S
H37 C27 0.930 . S
H38 C28 0.932 . S
H39 C29 0.929 . S
Tb40 C49 2.764 . S
Tb40 O50 2.325 . S
Tb40 O53 2.303 1_565 S
Tb40 O57 2.322 1_565 S
Tb40 O58 2.349 1_565 S
Tb40 O61 2.415 . S
Tb40 O62 2.399 . S
Tb41 O51 2.322 1_545 S
Tb41 O52 2.349 . S
Tb41 O54 2.415 . S
Tb41 O55 2.399 . S
Tb41 O56 2.325 . S
Tb41 O59 2.303 . S
Tb41 C70 2.764 . S
C42 O58 1.261 . S
C42 O59 1.257 . S
C43 C46 1.358 . S
C43 C47 1.332 . S
C43 C49 1.504 . S
C44 C45 1.373 . S
C44 C48 1.308 . S
C45 C44 1.373 . S
C45 C46 1.429 . S
C45 H72 0.932 . S
C46 C43 1.358 . S
C46 C45 1.429 . S
C46 H73 0.930 . S
C47 C43 1.332 . S
C47 C48 1.394 . S
C47 H74 0.932 . S
C48 C44 1.308 . S
C48 C47 1.394 . S
C48 H75 0.929 . S
C49 Tb40 2.764 . S
C49 C43 1.504 . S
C49 O61 1.239 . S
C49 O62 1.263 . S
O50 Tb40 2.325 . S
O50 C60 1.236 . S
O51 Tb41 2.322 1_565 S
O51 C60 1.257 . S
O52 Tb41 2.349 . S
O52 C63 1.261 . S
O53 Tb40 2.303 1_545 S
O53 C63 1.257 . S
O54 Tb41 2.415 . S
O54 C70 1.239 . S
O55 Tb41 2.399 . S
O55 C70 1.263 . S
O56 Tb41 2.325 . S
O56 C71 1.236 . S
O57 Tb40 2.322 1_545 S
O57 C71 1.257 . S
O58 Tb40 2.349 1_545 S
O58 C42 1.261 . S
O59 Tb41 2.303 . S
O59 C42 1.257 . S
C60 O50 1.236 . S
C60 O51 1.257 . S
O61 Tb40 2.415 . S
O61 C49 1.239 . S
O62 Tb40 2.399 . S
O62 C49 1.263 . S
C63 O52 1.261 . S
C63 O53 1.257 . S
C64 C67 1.358 . S
C64 C68 1.332 . S
C64 C70 1.504 . S
C65 C66 1.373 . S
C65 C69 1.308 . S
C66 C65 1.373 . S
C66 C67 1.429 . S
C66 H76 0.932 . S
C67 C64 1.358 . S
C67 C66 1.429 . S
C67 H77 0.930 . S
C68 C64 1.332 . S
C68 C69 1.394 . S
C68 H78 0.932 . S
C69 C65 1.308 . S
C69 C68 1.394 . S
C69 H79 0.929 . S
C70 Tb41 2.764 . S
C70 O54 1.239 . S
C70 O55 1.263 . S
C70 C64 1.504 . S
C71 O56 1.236 . S
C71 O57 1.257 . S
H72 C45 0.932 . S
H73 C46 0.930 . S
H74 C47 0.932 . S
H75 C48 0.929 . S
H76 C66 0.932 . S
H77 C67 0.930 . S
H78 C68 0.932 . S
H79 C69 0.929 . S
Tb80 C89 2.764 . S
Tb80 O90 2.325 . S
Tb80 O93 2.303 . S
Tb80 O97 2.322 . S
Tb80 O98 2.349 . S
Tb80 O101 2.415 . S
Tb80 O102 2.399 . S
Tb81 O91 2.322 . S
Tb81 O92 2.349 . S
Tb81 O94 2.415 . S
Tb81 O95 2.399 . S
Tb81 O96 2.325 . S
Tb81 O99 2.303 . S
Tb81 C110 2.764 . S
C82 O98 1.261 . S
C82 O99 1.257 . S
C83 C86 1.358 . S
C83 C87 1.332 . S
C83 C89 1.504 . S
C84 C85 1.373 . S
C84 C88 1.308 . S
C85 C84 1.373 . S
C85 C86 1.429 . S
C85 H112 0.932 . S
C86 C83 1.358 . S
C86 C85 1.429 . S
C86 H113 0.930 . S
C87 C83 1.332 . S
C87 C88 1.394 . S
C87 H114 0.932 . S
C88 C84 1.308 . S
C88 C87 1.394 . S
C88 H115 0.929 . S
C89 Tb80 2.764 . S
C89 C83 1.504 . S
C89 O101 1.239 . S
C89 O102 1.263 . S
O90 Tb80 2.325 . S
O90 C100 1.236 . S
O91 Tb81 2.322 . S
O91 C100 1.257 . S
O92 Tb81 2.349 . S
O92 C103 1.261 . S
O93 Tb80 2.303 . S
O93 C103 1.257 . S
O94 Tb81 2.415 . S
O94 C110 1.239 . S
O95 Tb81 2.399 . S
O95 C110 1.263 . S
O96 Tb81 2.325 . S
O96 C111 1.236 . S
O97 Tb80 2.322 . S
O97 C111 1.257 . S
O98 Tb80 2.349 . S
O98 C82 1.261 . S
O99 Tb81 2.303 . S
O99 C82 1.257 . S
C100 O90 1.236 . S
C100 O91 1.257 . S
O101 Tb80 2.415 . S
O101 C89 1.239 . S
O102 Tb80 2.399 . S
O102 C89 1.263 . S
C103 O92 1.261 . S
C103 O93 1.257 . S
C104 C107 1.358 . S
C104 C108 1.332 . S
C104 C110 1.504 . S
C105 C106 1.373 . S
C105 C109 1.308 . S
C106 C105 1.373 . S
C106 C107 1.429 . S
C106 H116 0.932 . S
C107 C104 1.358 . S
C107 C106 1.429 . S
C107 H117 0.930 . S
C108 C104 1.332 . S
C108 C109 1.394 . S
C108 H118 0.932 . S
C109 C105 1.308 . S
C109 C108 1.394 . S
C109 H119 0.929 . S
C110 Tb81 2.764 . S
C110 O94 1.239 . S
C110 O95 1.263 . S
C110 C104 1.504 . S
C111 O96 1.236 . S
C111 O97 1.257 . S
H112 C85 0.932 . S
H113 C86 0.930 . S
H114 C87 0.932 . S
H115 C88 0.929 . S
H116 C106 0.932 . S
H117 C107 0.930 . S
H118 C108 0.932 . S
H119 C109 0.929 . S
C120 C121 1.391 . S
C120 C124 1.391 . S
C120 H162 0.948 . S
C121 C120 1.391 . S
C121 C122 1.391 . S
C122 C121 1.391 . S
C122 H178 0.947 . S
C122 C179 1.392 . S
C123 C124 1.391 . S
C123 C127 1.397 . S
C123 C179 1.419 . S
C124 C120 1.391 . S
C124 C123 1.391 . S
C124 C125 1.399 . S
C125 C124 1.399 . S
C125 C128 1.396 . S
C125 C137 1.453 . S
C125 C138 1.684 . S
H126 C150 0.948 . S
C127 C123 1.397 . S
C127 C128 1.394 . S
C127 C146 1.723 . S
C128 C125 1.396 . S
C128 C127 1.394 . S
C128 C158 1.723 1_545 S
H129 C152 0.947 . S
H130 C153 0.948 . S
H131 C159 0.982 . S
H132 C160 0.979 . S
H133 C160 0.980 . S
H134 C160 0.983 . S
H135 C159 0.979 . S
H136 C159 0.977 . S
C137 C125 1.453 . S
C137 H166 0.982 . S
C137 H167 0.979 . S
C137 H168 0.977 . S
C138 C125 1.684 . S
C138 H163 0.979 . S
C138 H164 0.980 . S
C138 H165 0.983 . S
C139 C140 1.391 . S
C139 C144 1.391 . S
C139 H169 0.948 . S
C140 C139 1.391 . S
C140 C141 1.391 . S
C141 C140 1.391 . S
C141 C142 1.392 1_545 S
C141 H170 0.947 1_545 S
C142 C141 1.392 1_565 S
C142 C143 1.419 1_565 S
C142 H171 0.948 . S
C143 C142 1.419 1_545 S
C143 C144 1.391 . S
C143 C147 1.397 . S
C144 C139 1.391 . S
C144 C143 1.391 . S
C144 C145 1.399 . S
C145 C144 1.399 . S
C145 C146 1.396 . S
C145 C148 1.453 . S
C145 C149 1.684 . S
C146 C127 1.723 . S
C146 C145 1.396 . S
C146 C147 1.394 . S
C147 C143 1.397 . S
C147 C146 1.394 . S
C147 C157 1.723 1_545 S
C148 C145 1.453 . S
C148 H172 0.982 . S
C148 H173 0.979 . S
C148 H174 0.977 . S
C149 C145 1.684 . S
C149 H175 0.979 . S
C149 H176 0.980 . S
C149 H177 0.983 . S
C150 H126 0.948 . S
C150 C151 1.391 . S
C150 C155 1.391 . S
C151 C150 1.391 . S
C151 C152 1.391 . S
C152 H129 0.947 . S
C152 C151 1.391 . S
C152 C153 1.392 . S
C153 H130 0.948 . S
C153 C152 1.392 . S
C153 C154 1.419 . S
C154 C153 1.419 . S
C154 C155 1.391 . S
C154 C158 1.397 . S
C155 C150 1.391 . S
C155 C154 1.391 . S
C155 C156 1.399 . S
C156 C155 1.399 . S
C156 C157 1.396 . S
C156 C159 1.453 . S
C156 C160 1.684 . S
C157 C147 1.723 1_565 S
C157 C156 1.396 . S
C157 C158 1.394 . S
C158 C128 1.723 1_565 S
C158 C154 1.397 . S
C158 C157 1.394 . S
C159 H131 0.982 . S
C159 H135 0.979 . S
C159 H136 0.977 . S
C159 C156 1.453 . S
C160 H132 0.979 . S
C160 H133 0.980 . S
C160 H134 0.983 . S
C160 C156 1.684 . S
H161 C179 0.948 . S
H162 C120 0.948 . S
H163 C138 0.979 . S
H164 C138 0.980 . S
H165 C138 0.983 . S
H166 C137 0.982 . S
H167 C137 0.979 . S
H168 C137 0.977 . S
H169 C139 0.948 . S
H170 C141 0.947 1_565 S
H171 C142 0.948 . S
H172 C148 0.982 . S
H173 C148 0.979 . S
H174 C148 0.977 . S
H175 C149 0.979 . S
H176 C149 0.980 . S
H177 C149 0.983 . S
H178 C122 0.947 . S
C179 C122 1.392 . S
C179 C123 1.419 . S
C179 H161 0.948 . S
C180 C181 1.391 . S
C180 C184 1.391 . S
C180 H222 0.948 . S
C181 C180 1.391 . S
C181 C182 1.391 . S
C182 C181 1.391 . S
C182 H238 0.947 . S
C182 C239 1.392 . S
C183 C184 1.391 . S
C183 C187 1.397 . S
C183 C239 1.419 . S
C184 C180 1.391 . S
C184 C183 1.391 . S
C184 C185 1.399 . S
C185 C184 1.399 . S
C185 C188 1.396 . S
C185 C197 1.453 . S
C185 C198 1.684 . S
H186 C210 0.948 . S
C187 C183 1.397 . S
C187 C188 1.394 . S
C187 C206 1.723 . S
C188 C185 1.396 . S
C188 C187 1.394 . S
C188 C218 1.723 . S
H189 C212 0.947 . S
H190 C213 0.948 . S
H191 C219 0.982 . S
H192 C220 0.979 . S
H193 C220 0.980 . S
H194 C220 0.983 . S
H195 C219 0.979 . S
H196 C219 0.977 . S
C197 C185 1.453 . S
C197 H226 0.982 . S
C197 H227 0.979 . S
C197 H228 0.977 . S
C198 C185 1.684 . S
C198 H223 0.979 . S
C198 H224 0.980 . S
C198 H225 0.983 . S
C199 C200 1.391 . S
C199 C204 1.391 . S
C199 H229 0.948 . S
C200 C199 1.391 . S
C200 C201 1.391 . S
C201 C200 1.391 . S
C201 C202 1.392 . S
C201 H230 0.947 . S
C202 C201 1.392 . S
C202 C203 1.419 . S
C202 H231 0.948 . S
C203 C202 1.419 . S
C203 C204 1.391 . S
C203 C207 1.397 . S
C204 C199 1.391 . S
C204 C203 1.391 . S
C204 C205 1.399 . S
C205 C204 1.399 . S
C205 C206 1.396 . S
C205 C208 1.453 . S
C205 C209 1.684 . S
C206 C187 1.723 . S
C206 C205 1.396 . S
C206 C207 1.394 . S
C207 C203 1.397 . S
C207 C206 1.394 . S
C207 C217 1.723 . S
C208 C205 1.453 . S
C208 H232 0.982 . S
C208 H233 0.979 . S
C208 H234 0.977 . S
C209 C205 1.684 . S
C209 H235 0.979 . S
C209 H236 0.980 . S
C209 H237 0.983 . S
C210 H186 0.948 . S
C210 C211 1.391 . S
C210 C215 1.391 . S
C211 C210 1.391 . S
C211 C212 1.391 . S
C212 H189 0.947 . S
C212 C211 1.391 . S
C212 C213 1.392 . S
C213 H190 0.948 . S
C213 C212 1.392 . S
C213 C214 1.419 . S
C214 C213 1.419 . S
C214 C215 1.391 . S
C214 C218 1.397 . S
C215 C210 1.391 . S
C215 C214 1.391 . S
C215 C216 1.399 . S
C216 C215 1.399 . S
C216 C217 1.396 . S
C216 C219 1.453 . S
C216 C220 1.684 . S
C217 C207 1.723 . S
C217 C216 1.396 . S
C217 C218 1.394 . S
C218 C188 1.723 . S
C218 C214 1.397 . S
C218 C217 1.394 . S
C219 H191 0.982 . S
C219 H195 0.979 . S
C219 H196 0.977 . S
C219 C216 1.453 . S
C220 H192 0.979 . S
C220 H193 0.980 . S
C220 H194 0.983 . S
C220 C216 1.684 . S
H221 C239 0.948 . S
H222 C180 0.948 . S
H223 C198 0.979 . S
H224 C198 0.980 . S
H225 C198 0.983 . S
H226 C197 0.982 . S
H227 C197 0.979 . S
H228 C197 0.977 . S
H229 C199 0.948 . S
H230 C201 0.947 . S
H231 C202 0.948 . S
H232 C208 0.982 . S
H233 C208 0.979 . S
H234 C208 0.977 . S
H235 C209 0.979 . S
H236 C209 0.980 . S
H237 C209 0.983 . S
H238 C182 0.947 . S
C239 C182 1.392 . S
C239 C183 1.419 . S
C239 H221 0.948 . S
C240 C241 1.391 . S
C240 C244 1.391 . S
C240 H282 0.948 . S
C241 C240 1.391 . S
C241 C242 1.391 . S
C242 C241 1.391 . S
C242 H298 0.947 . S
C242 C299 1.392 . S
C243 C244 1.391 . S
C243 C247 1.397 . S
C243 C299 1.419 . S
C244 C240 1.391 . S
C244 C243 1.391 . S
C244 C245 1.399 . S
C245 C244 1.399 . S
C245 C248 1.396 . S
C245 C257 1.453 . S
C245 C258 1.684 . S
H246 C270 0.948 . S
C247 C243 1.397 . S
C247 C248 1.394 . S
C247 C266 1.723 . S
C248 C245 1.396 . S
C248 C247 1.394 . S
C248 C278 1.723 . S
H249 C272 0.947 . S
H250 C273 0.948 . S
H251 C279 0.982 . S
H252 C280 0.979 1_455 S
H253 C280 0.980 . S
H254 C280 0.983 . S
H255 C279 0.979 . S
H256 C279 0.977 . S
C257 C245 1.453 . S
C257 H286 0.982 . S
C257 H287 0.979 . S
C257 H288 0.977 . S
C258 C245 1.684 . S
C258 H283 0.979 . S
C258 H284 0.980 . S
C258 H285 0.983 . S
C259 C260 1.391 . S
C259 C264 1.391 . S
C259 H289 0.948 . S
C260 C259 1.391 . S
C260 C261 1.391 . S
C261 C260 1.391 . S
C261 C262 1.392 . S
C261 H290 0.947 . S
C262 C261 1.392 . S
C262 C263 1.419 . S
C262 H291 0.948 . S
C263 C262 1.419 . S
C263 C264 1.391 . S
C263 C267 1.397 . S
C264 C259 1.391 . S
C264 C263 1.391 . S
C264 C265 1.399 . S
C265 C264 1.399 . S
C265 C266 1.396 . S
C265 C268 1.453 . S
C265 C269 1.684 . S
C266 C247 1.723 . S
C266 C265 1.396 . S
C266 C267 1.394 . S
C267 C263 1.397 . S
C267 C266 1.394 . S
C267 C277 1.723 . S
C268 C265 1.453 . S
C268 H292 0.982 . S
C268 H293 0.979 . S
C268 H294 0.977 . S
C269 C265 1.684 . S
C269 H295 0.979 . S
C269 H296 0.980 . S
C269 H297 0.983 . S
C270 H246 0.948 . S
C270 C271 1.391 . S
C270 C275 1.391 . S
C271 C270 1.391 . S
C271 C272 1.391 . S
C272 H249 0.947 . S
C272 C271 1.391 . S
C272 C273 1.392 1_655 S
C273 H250 0.948 . S
C273 C272 1.392 1_455 S
C273 C274 1.419 . S
C274 C273 1.419 . S
C274 C275 1.391 1_455 S
C274 C278 1.397 . S
C275 C270 1.391 . S
C275 C274 1.391 1_655 S
C275 C276 1.399 . S
C276 C275 1.399 . S
C276 C277 1.396 1_655 S
C276 C279 1.453 . S
C276 C280 1.684 . S
C277 C267 1.723 . S
C277 C276 1.396 1_455 S
C277 C278 1.394 . S
C278 C248 1.723 . S
C278 C274 1.397 . S
C278 C277 1.394 . S
C279 H251 0.982 . S
C279 H255 0.979 . S
C279 H256 0.977 . S
C279 C276 1.453 . S
C280 H252 0.979 1_655 S
C280 H253 0.980 . S
C280 H254 0.983 . S
C280 C276 1.684 . S
H281 C299 0.948 . S
H282 C240 0.948 . S
H283 C258 0.979 . S
H284 C258 0.980 . S
H285 C258 0.983 . S
H286 C257 0.982 . S
H287 C257 0.979 . S
H288 C257 0.977 . S
H289 C259 0.948 . S
H290 C261 0.947 . S
H291 C262 0.948 . S
H292 C268 0.982 . S
H293 C268 0.979 . S
H294 C268 0.977 . S
H295 C269 0.979 . S
H296 C269 0.980 . S
H297 C269 0.983 . S
H298 C242 0.947 . S
C299 C242 1.392 . S
C299 C243 1.419 . S
C299 H281 0.948 . S
C300 C301 1.391 . S
C300 C304 1.391 . S
C300 H342 0.948 . S
C301 C300 1.391 . S
C301 C302 1.391 . S
C302 C301 1.391 . S
C302 H358 0.947 . S
C302 C359 1.392 . S
C303 C304 1.391 . S
C303 C307 1.397 . S
C303 C359 1.419 . S
C304 C300 1.391 . S
C304 C303 1.391 . S
C304 C305 1.399 . S
C305 C304 1.399 . S
C305 C308 1.396 . S
C305 C317 1.453 . S
C305 C318 1.684 . S
H306 C330 0.948 . S
C307 C303 1.397 . S
C307 C308 1.394 . S
C307 C326 1.723 . S
C308 C305 1.396 . S
C308 C307 1.394 . S
C308 C338 1.723 1_655 S
H309 C332 0.947 . S
H310 C333 0.948 . S
H311 C339 0.982 . S
H312 C340 0.979 . S
H313 C340 0.980 . S
H314 C340 0.983 . S
H315 C339 0.979 . S
H316 C339 0.977 . S
C317 C305 1.453 . S
C317 H346 0.982 1_655 S
C317 H347 0.979 . S
C317 H348 0.977 1_655 S
C318 C305 1.684 . S
C318 H343 0.979 . S
C318 H344 0.980 . S
C318 H345 0.983 . S
C319 C320 1.391 1_655 S
C319 C324 1.391 . S
C319 H349 0.948 . S
C320 C319 1.391 1_455 S
C320 C321 1.391 . S
C321 C320 1.391 . S
C321 C322 1.392 . S
C321 H350 0.947 . S
C322 C321 1.392 . S
C322 C323 1.419 . S
C322 H351 0.948 . S
C323 C322 1.419 . S
C323 C324 1.391 1_455 S
C323 C327 1.397 . S
C324 C319 1.391 . S
C324 C323 1.391 1_655 S
C324 C325 1.399 . S
C325 C324 1.399 . S
C325 C326 1.396 . S
C325 C328 1.453 . S
C325 C329 1.684 . S
C326 C307 1.723 . S
C326 C325 1.396 . S
C326 C327 1.394 1_655 S
C327 C323 1.397 . S
C327 C326 1.394 1_455 S
C327 C337 1.723 . S
C328 C325 1.453 . S
C328 H352 0.982 . S
C328 H353 0.979 . S
C328 H354 0.977 . S
C329 C325 1.684 . S
C329 H355 0.979 . S
C329 H356 0.980 . S
C329 H357 0.983 . S
C330 H306 0.948 . S
C330 C331 1.391 . S
C330 C335 1.391 . S
C331 C330 1.391 . S
C331 C332 1.391 . S
C332 H309 0.947 . S
C332 C331 1.391 . S
C332 C333 1.392 . S
C333 H310 0.948 . S
C333 C332 1.392 . S
C333 C334 1.419 . S
C334 C333 1.419 . S
C334 C335 1.391 . S
C334 C338 1.397 . S
C335 C330 1.391 . S
C335 C334 1.391 . S
C335 C336 1.399 . S
C336 C335 1.399 . S
C336 C337 1.396 . S
C336 C339 1.453 . S
C336 C340 1.684 . S
C337 C327 1.723 . S
C337 C336 1.396 . S
C337 C338 1.394 . S
C338 C308 1.723 1_455 S
C338 C334 1.397 . S
C338 C337 1.394 . S
C339 H311 0.982 . S
C339 H315 0.979 . S
C339 H316 0.977 . S
C339 C336 1.453 . S
C340 H312 0.979 . S
C340 H313 0.980 . S
C340 H314 0.983 . S
C340 C336 1.684 . S
H341 C359 0.948 . S
H342 C300 0.948 . S
H343 C318 0.979 . S
H344 C318 0.980 . S
H345 C318 0.983 . S
H346 C317 0.982 1_455 S
H347 C317 0.979 . S
H348 C317 0.977 1_455 S
H349 C319 0.948 . S
H350 C321 0.947 . S
H351 C322 0.948 . S
H352 C328 0.982 . S
H353 C328 0.979 . S
H354 C328 0.977 . S
H355 C329 0.979 . S
H356 C329 0.980 . S
H357 C329 0.983 . S
H358 C302 0.947 . S
C359 C302 1.392 . S
C359 C303 1.419 . S
C359 H341 0.948 . S
C360 C361 1.391 . S
C360 C364 1.391 . S
C360 H402 0.948 . S
C361 C360 1.391 . S
C361 C362 1.391 . S
C362 C361 1.391 . S
C362 H418 0.947 . S
C362 C419 1.392 . S
C363 C364 1.391 . S
C363 C367 1.397 . S
C363 C419 1.419 . S
C364 C360 1.391 . S
C364 C363 1.391 . S
C364 C365 1.399 . S
C365 C364 1.399 . S
C365 C368 1.396 . S
C365 C377 1.453 1_565 S
C365 C378 1.684 . S
H366 C390 0.948 . S
C367 C363 1.397 . S
C367 C368 1.394 . S
C367 C386 1.723 . S
C368 C365 1.396 . S
C368 C367 1.394 . S
C368 C398 1.723 1_565 S
H369 C392 0.947 . S
H370 C393 0.948 . S
H371 C399 0.982 . S
H372 C400 0.979 . S
H373 C400 0.980 . S
H374 C400 0.983 . S
H375 C399 0.979 . S
H376 C399 0.977 . S
C377 C365 1.453 1_545 S
C377 H406 0.982 . S
C377 H407 0.979 1_545 S
C377 H408 0.977 . S
C378 C365 1.684 . S
C378 H403 0.979 . S
C378 H404 1.008 . S
C378 H405 0.983 . S
C379 C380 1.391 . S
C379 C384 1.391 . S
C379 H409 0.948 . S
C380 C379 1.391 . S
C380 C381 1.391 1_565 S
C381 C380 1.391 1_545 S
C381 C382 1.392 . S
C381 H410 0.947 . S
C382 C381 1.392 . S
C382 C383 1.419 . S
C382 H411 0.948 . S
C383 C382 1.419 . S
C383 C384 1.391 1_545 S
C383 C387 1.397 . S
C384 C379 1.391 . S
C384 C383 1.391 1_565 S
C384 C385 1.399 . S
C385 C384 1.399 . S
C385 C386 1.396 . S
C385 C388 1.453 . S
C385 C389 1.684 . S
C386 C367 1.723 . S
C386 C385 1.396 . S
C386 C387 1.394 1_565 S
C387 C383 1.397 . S
C387 C386 1.394 1_545 S
C387 C397 1.723 . S
C388 C385 1.453 . S
C388 H412 0.982 . S
C388 H413 0.979 . S
C388 H414 0.977 . S
C389 C385 1.684 . S
C389 H415 0.979 . S
C389 H416 0.980 . S
C389 H417 0.983 . S
C390 H366 0.948 . S
C390 C391 1.391 . S
C390 C395 1.391 . S
C391 C390 1.391 . S
C391 C392 1.391 . S
C392 H369 0.947 . S
C392 C391 1.391 . S
C392 C393 1.392 . S
C393 H370 0.948 . S
C393 C392 1.392 . S
C393 C394 1.419 . S
C394 C393 1.419 . S
C394 C395 1.391 . S
C394 C398 1.397 . S
C395 C390 1.391 . S
C395 C394 1.391 . S
C395 C396 1.399 . S
C396 C395 1.399 . S
C396 C397 1.396 . S
C396 C399 1.453 . S
C396 C400 1.684 . S
C397 C387 1.723 . S
C397 C396 1.396 . S
C397 C398 1.394 . S
C398 C368 1.723 1_545 S
C398 C394 1.397 . S
C398 C397 1.394 . S
C399 H371 0.982 . S
C399 H375 0.979 . S
C399 H376 0.977 . S
C399 C396 1.453 . S
C400 H372 0.979 . S
C400 H373 0.980 . S
C400 H374 0.983 . S
C400 C396 1.684 . S
H401 C419 0.948 . S
H402 C360 0.948 . S
H403 C378 0.979 . S
H404 C378 1.008 . S
H405 C378 0.983 . S
H406 C377 0.982 . S
H407 C377 0.979 1_565 S
H408 C377 0.977 . S
H409 C379 0.948 . S
H410 C381 0.947 . S
H411 C382 0.948 . S
H412 C388 0.982 . S
H413 C388 0.979 . S
H414 C388 0.977 . S
H415 C389 0.979 . S
H416 C389 0.980 . S
H417 C389 0.983 . S
H418 C362 0.947 . S
C419 C362 1.392 . S
C419 C363 1.419 . S
C419 H401 0.948 . S
C420 C421 1.391 . S
C420 C424 1.391 . S
C420 H462 0.948 . S
C421 C420 1.391 . S
C421 C422 1.391 . S
C422 C421 1.391 . S
C422 H478 0.947 . S
C422 C479 1.392 . S
C423 C424 1.391 . S
C423 C427 1.397 . S
C423 C479 1.419 . S
C424 C420 1.391 . S
C424 C423 1.391 . S
C424 C425 1.399 . S
C425 C424 1.399 . S
C425 C428 1.396 . S
C425 C437 1.453 . S
C425 C438 1.684 . S
H426 C450 0.948 . S
C427 C423 1.397 . S
C427 C428 1.394 . S
C427 C446 1.723 . S
C428 C425 1.396 . S
C428 C427 1.394 . S
C428 C458 1.723 . S
H429 C452 0.947 . S
H430 C453 0.948 . S
H431 C459 0.982 . S
H432 C460 0.979 . S
H433 C460 0.980 . S
H434 C460 0.983 . S
H435 C459 0.979 . S
H436 C459 0.977 . S
C437 C425 1.453 . S
C437 H466 0.982 . S
C437 H467 0.979 . S
C437 H468 0.977 . S
C438 C425 1.684 . S
C438 H463 0.979 . S
C438 H464 0.980 . S
C438 H465 0.983 . S
C439 C440 1.391 . S
C439 C444 1.391 . S
C439 H469 0.948 . S
C440 C439 1.391 . S
C440 C441 1.391 . S
C441 C440 1.391 . S
C441 C442 1.392 . S
C441 H470 0.947 . S
C442 C441 1.392 . S
C442 C443 1.419 . S
C442 H471 0.948 . S
C443 C442 1.419 . S
C443 C444 1.391 . S
C443 C447 1.397 . S
C444 C439 1.391 . S
C444 C443 1.391 . S
C444 C445 1.399 . S
C445 C444 1.399 . S
C445 C446 1.396 . S
C445 C448 1.453 . S
C445 C449 1.684 . S
C446 C427 1.723 . S
C446 C445 1.396 . S
C446 C447 1.394 . S
C447 C443 1.397 . S
C447 C446 1.394 . S
C447 C457 1.723 . S
C448 C445 1.453 . S
C448 H472 0.982 . S
C448 H473 0.979 . S
C448 H474 0.977 . S
C449 C445 1.684 . S
C449 H475 0.979 . S
C449 H476 0.980 . S
C449 H477 0.983 . S
C450 H426 0.948 . S
C450 C451 1.391 . S
C450 C455 1.391 . S
C451 C450 1.391 . S
C451 C452 1.391 . S
C452 H429 0.947 . S
C452 C451 1.391 . S
C452 C453 1.392 . S
C453 H430 0.948 . S
C453 C452 1.392 . S
C453 C454 1.419 . S
C454 C453 1.419 . S
C454 C455 1.391 . S
C454 C458 1.397 . S
C455 C450 1.391 . S
C455 C454 1.391 . S
C455 C456 1.399 . S
C456 C455 1.399 . S
C456 C457 1.396 . S
C456 C459 1.453 . S
C456 C460 1.684 . S
C457 C447 1.723 . S
C457 C456 1.396 . S
C457 C458 1.394 . S
C458 C428 1.723 . S
C458 C454 1.397 . S
C458 C457 1.394 . S
C459 H431 0.982 . S
C459 H435 0.979 . S
C459 H436 0.977 . S
C459 C456 1.453 . S
C460 H432 0.979 . S
C460 H433 0.980 . S
C460 H434 0.983 . S
C460 C456 1.684 . S
H461 C479 0.948 . S
H462 C420 0.948 . S
H463 C438 0.979 . S
H464 C438 0.980 . S
H465 C438 0.983 . S
H466 C437 0.982 . S
H467 C437 0.979 . S
H468 C437 0.977 . S
H469 C439 0.948 . S
H470 C441 0.947 . S
H471 C442 0.948 . S
H472 C448 0.982 . S
H473 C448 0.979 . S
H474 C448 0.977 . S
H475 C449 0.979 . S
H476 C449 0.980 . S
H477 C449 0.983 . S
H478 C422 0.947 . S
C479 C422 1.392 . S
C479 C423 1.419 . S
C479 H461 0.948 . S
C480 C481 1.391 . S
C480 C482 1.394 . S
C480 H496 0.931 . S
C481 C480 1.391 . S
C481 C485 1.376 . S
C482 C480 1.394 . S
C482 C483 1.369 . S
C482 C486 1.531 . S
C483 C482 1.369 . S
C483 C484 1.410 . S
C483 C491 1.503 . S
C484 C483 1.410 . S
C484 C485 1.392 . S
C484 C487 1.511 . S
C485 C481 1.376 . S
C485 C484 1.392 . S
C485 H497 0.929 . S
C486 C482 1.531 . S
C486 H498 0.960 . S
C486 H499 0.962 . S
C486 H500 0.960 . S
C487 C484 1.511 . S
C487 H501 0.961 . S
C487 H502 0.961 . S
C487 H503 0.961 . S
C488 C489 1.370 . S
C488 C490 1.363 . S
C488 H504 0.931 . S
C489 C488 1.370 . S
C489 C493 1.408 . S
C490 C488 1.363 . S
C490 C491 1.370 . S
C490 C494 1.524 . S
C491 C483 1.503 . S
C491 C490 1.370 . S
C491 C492 1.403 . S
C492 C491 1.403 . S
C492 C493 1.404 . S
C492 C495 1.539 . S
C493 C489 1.408 . S
C493 C492 1.404 . S
C493 H505 0.930 . S
C494 C490 1.524 . S
C494 H506 0.956 . S
C494 H507 0.961 . S
C494 H508 0.961 . S
C495 C492 1.539 . S
C495 H509 0.958 . S
C495 H510 0.961 . S
C495 H511 0.960 . S
H496 C480 0.931 . S
H497 C485 0.929 . S
H498 C486 0.960 . S
H499 C486 0.962 . S
H500 C486 0.960 . S
H501 C487 0.961 . S
H502 C487 0.961 . S
H503 C487 0.961 . S
H504 C488 0.931 . S
H505 C493 0.930 . S
H506 C494 0.956 . S
H507 C494 0.961 . S
H508 C494 0.961 . S
H509 C495 0.958 . S
H510 C495 0.961 . S
H511 C495 0.960 . S
C512 C513 1.391 . S
C512 C514 1.394 . S
C512 H528 0.931 . S
C513 C512 1.391 . S
C513 C517 1.376 . S
C514 C512 1.394 . S
C514 C515 1.369 . S
C514 C518 1.531 . S
C515 C514 1.369 . S
C515 C516 1.410 . S
C515 C523 1.503 . S
C516 C515 1.410 . S
C516 C517 1.392 . S
C516 C519 1.511 . S
C517 C513 1.376 . S
C517 C516 1.392 . S
C517 H529 0.929 . S
C518 C514 1.531 . S
C518 H530 0.960 . S
C518 H531 0.962 . S
C518 H532 0.960 . S
C519 C516 1.511 . S
C519 H533 0.961 . S
C519 H534 0.961 . S
C519 H535 0.961 . S
C520 C521 1.370 . S
C520 C522 1.363 . S
C520 H536 0.931 . S
C521 C520 1.370 . S
C521 C525 1.408 . S
C522 C520 1.363 . S
C522 C523 1.370 . S
C522 C526 1.524 . S
C523 C515 1.503 . S
C523 C522 1.370 . S
C523 C524 1.403 . S
C524 C523 1.403 . S
C524 C525 1.404 . S
C524 C527 1.539 . S
C525 C521 1.408 . S
C525 C524 1.404 . S
C525 H537 0.930 . S
C526 C522 1.524 . S
C526 H538 0.956 . S
C526 H539 0.961 . S
C526 H540 0.961 . S
C527 C524 1.539 . S
C527 H541 0.958 . S
C527 H542 0.961 . S
C527 H543 0.960 . S
H528 C512 0.931 . S
H529 C517 0.929 . S
H530 C518 0.960 . S
H531 C518 0.962 . S
H532 C518 0.960 . S
H533 C519 0.961 . S
H534 C519 0.961 . S
H535 C519 0.961 . S
H536 C520 0.931 . S
H537 C525 0.930 . S
H538 C526 0.956 . S
H539 C526 0.961 . S
H540 C526 0.961 . S
H541 C527 0.958 . S
H542 C527 0.961 . S
H543 C527 0.960 . S
C544 C545 1.391 . S
C544 C546 1.394 . S
C544 H560 0.931 . S
C545 C544 1.391 . S
C545 C549 1.376 . S
C546 C544 1.394 . S
C546 C547 1.369 . S
C546 C550 1.531 . S
C547 C546 1.369 . S
C547 C548 1.410 . S
C547 C555 1.503 . S
C548 C547 1.410 . S
C548 C549 1.392 . S
C548 C551 1.511 . S
C549 C545 1.376 . S
C549 C548 1.392 . S
C549 H561 0.929 . S
C550 C546 1.531 . S
C550 H562 0.960 . S
C550 H563 0.962 . S
C550 H564 0.960 . S
C551 C548 1.511 . S
C551 H565 0.961 . S
C551 H566 0.961 . S
C551 H567 0.961 . S
C552 C553 1.370 . S
C552 C554 1.363 . S
C552 H568 0.931 . S
C553 C552 1.370 . S
C553 C557 1.408 . S
C554 C552 1.363 . S
C554 C555 1.370 . S
C554 C558 1.524 . S
C555 C547 1.503 . S
C555 C554 1.370 . S
C555 C556 1.403 . S
C556 C555 1.403 . S
C556 C557 1.404 . S
C556 C559 1.539 . S
C557 C553 1.408 . S
C557 C556 1.404 . S
C557 H569 0.930 . S
C558 C554 1.524 . S
C558 H570 0.956 . S
C558 H571 0.961 . S
C558 H572 0.961 . S
C559 C556 1.539 . S
C559 H573 0.958 . S
C559 H574 0.961 . S
C559 H575 0.960 . S
H560 C544 0.931 . S
H561 C549 0.929 . S
H562 C550 0.960 . S
H563 C550 0.962 . S
H564 C550 0.960 . S
H565 C551 0.961 . S
H566 C551 0.961 . S
H567 C551 0.961 . S
H568 C552 0.931 . S
H569 C557 0.930 . S
H570 C558 0.956 . S
H571 C558 0.961 . S
H572 C558 0.961 . S
H573 C559 0.958 . S
H574 C559 0.961 . S
H575 C559 0.960 . S
C576 C577 1.391 . S
C576 C578 1.394 . S
C576 H592 0.931 . S
C577 C576 1.391 . S
C577 C581 1.376 . S
C578 C576 1.394 . S
C578 C579 1.369 . S
C578 C582 1.531 . S
C579 C578 1.369 . S
C579 C580 1.410 . S
C579 C587 1.503 . S
C580 C579 1.410 . S
C580 C581 1.392 . S
C580 C583 1.511 . S
C581 C577 1.376 . S
C581 C580 1.392 . S
C581 H593 0.929 . S
C582 C578 1.531 . S
C582 H594 0.960 . S
C582 H595 0.962 . S
C582 H596 0.960 . S
C583 C580 1.511 . S
C583 H597 0.961 . S
C583 H598 0.961 . S
C583 H599 0.961 . S
C584 C585 1.370 . S
C584 C586 1.363 . S
C584 H600 0.931 . S
C585 C584 1.370 . S
C585 C589 1.408 . S
C586 C584 1.363 . S
C586 C587 1.370 . S
C586 C590 1.524 . S
C587 C579 1.503 . S
C587 C586 1.370 . S
C587 C588 1.403 . S
C588 C587 1.403 . S
C588 C589 1.404 . S
C588 C591 1.539 . S
C589 C585 1.408 . S
C589 C588 1.404 . S
C589 H601 0.930 . S
C590 C586 1.524 . S
C590 H602 0.956 . S
C590 H603 0.961 . S
C590 H604 0.961 . S
C591 C588 1.539 . S
C591 H605 0.958 . S
C591 H606 0.961 . S
C591 H607 0.960 . S
H592 C576 0.931 . S
H593 C581 0.929 . S
H594 C582 0.960 . S
H595 C582 0.962 . S
H596 C582 0.960 . S
H597 C583 0.961 . S
H598 C583 0.961 . S
H599 C583 0.961 . S
H600 C584 0.931 . S
H601 C589 0.930 . S
H602 C590 0.956 . S
H603 C590 0.961 . S
H604 C590 0.961 . S
H605 C591 0.958 . S
H606 C591 0.961 . S
H607 C591 0.960 . S
C608 C609 1.391 . S
C608 C610 1.394 . S
C608 H624 0.931 . S
C609 C608 1.391 . S
C609 C613 1.376 . S
C610 C608 1.394 . S
C610 C611 1.369 . S
C610 C614 1.531 . S
C611 C610 1.369 . S
C611 C612 1.410 . S
C611 C619 1.503 . S
C612 C611 1.410 . S
C612 C613 1.392 . S
C612 C615 1.511 . S
C613 C609 1.376 . S
C613 C612 1.392 . S
C613 H625 0.929 . S
C614 C610 1.531 . S
C614 H626 0.960 . S
C614 H627 0.962 . S
C614 H628 0.960 . S
C615 C612 1.511 . S
C615 H629 0.961 . S
C615 H630 0.961 . S
C615 H631 0.961 . S
C616 C617 1.370 . S
C616 C618 1.363 . S
C616 H632 0.931 . S
C617 C616 1.370 . S
C617 C621 1.408 . S
C618 C616 1.363 . S
C618 C619 1.370 . S
C618 C622 1.524 . S
C619 C611 1.503 . S
C619 C618 1.370 . S
C619 C620 1.403 . S
C620 C619 1.403 . S
C620 C621 1.404 . S
C620 C623 1.539 . S
C621 C617 1.408 . S
C621 C620 1.404 . S
C621 H633 0.930 . S
C622 C618 1.524 . S
C622 H634 0.956 . S
C622 H635 0.961 . S
C622 H636 0.961 . S
C623 C620 1.539 . S
C623 H637 0.958 . S
C623 H638 0.961 . S
C623 H639 0.960 . S
H624 C608 0.931 . S
H625 C613 0.929 . S
H626 C614 0.960 . S
H627 C614 0.962 . S
H628 C614 0.960 . S
H629 C615 0.961 . S
H630 C615 0.961 . S
H631 C615 0.961 . S
H632 C616 0.931 . S
H633 C621 0.930 . S
H634 C622 0.956 . S
H635 C622 0.961 . S
H636 C622 0.961 . S
H637 C623 0.958 . S
H638 C623 0.961 . S
H639 C623 0.960 . S
C640 C641 1.391 . S
C640 C642 1.394 . S
C640 H656 0.931 . S
C641 C640 1.391 . S
C641 C645 1.376 . S
C642 C640 1.394 . S
C642 C643 1.369 . S
C642 C646 1.531 . S
C643 C642 1.369 . S
C643 C644 1.410 . S
C643 C651 1.503 . S
C644 C643 1.410 . S
C644 C645 1.392 . S
C644 C647 1.511 . S
C645 C641 1.376 . S
C645 C644 1.392 . S
C645 H657 0.929 . S
C646 C642 1.531 . S
C646 H658 0.960 . S
C646 H659 0.962 . S
C646 H660 0.960 . S
C647 C644 1.511 . S
C647 H661 0.961 . S
C647 H662 0.961 . S
C647 H663 0.961 . S
C648 C649 1.370 . S
C648 C650 1.363 . S
C648 H664 0.931 . S
C649 C648 1.370 . S
C649 C653 1.408 . S
C650 C648 1.363 . S
C650 C651 1.370 . S
C650 C654 1.524 . S
C651 C643 1.503 . S
C651 C650 1.370 . S
C651 C652 1.403 . S
C652 C651 1.403 . S
C652 C653 1.404 . S
C652 C655 1.539 . S
C653 C649 1.408 . S
C653 C652 1.404 . S
C653 H665 0.930 . S
C654 C650 1.524 . S
C654 H666 0.956 . S
C654 H667 0.961 . S
C654 H668 0.961 . S
C655 C652 1.539 . S
C655 H669 0.958 . S
C655 H670 0.961 . S
C655 H671 0.960 . S
H656 C640 0.931 . S
H657 C645 0.929 . S
H658 C646 0.960 . S
H659 C646 0.962 . S
H660 C646 0.960 . S
H661 C647 0.961 . S
H662 C647 0.961 . S
H663 C647 0.961 . S
H664 C648 0.931 . S
H665 C653 0.930 . S
H666 C654 0.956 . S
H667 C654 0.961 . S
H668 C654 0.961 . S
H669 C655 0.958 . S
H670 C655 0.961 . S
H671 C655 0.960 . S
C672 C673 1.391 . S
C672 C674 1.394 . S
C672 H688 0.931 . S
C673 C672 1.391 . S
C673 C677 1.376 . S
C674 C672 1.394 . S
C674 C675 1.369 . S
C674 C678 1.531 . S
C675 C674 1.369 . S
C675 C676 1.410 . S
C675 C683 1.503 . S
C676 C675 1.410 . S
C676 C677 1.392 . S
C676 C679 1.511 . S
C677 C673 1.376 . S
C677 C676 1.392 . S
C677 H689 0.929 . S
C678 C674 1.531 . S
C678 H690 0.960 . S
C678 H691 0.962 . S
C678 H692 0.960 . S
C679 C676 1.511 . S
C679 H693 0.961 . S
C679 H694 0.961 . S
C679 H695 0.961 . S
C680 C681 1.370 . S
C680 C682 1.363 . S
C680 H696 0.931 . S
C681 C680 1.370 . S
C681 C685 1.408 . S
C682 C680 1.363 . S
C682 C683 1.370 . S
C682 C686 1.524 . S
C683 C675 1.503 . S
C683 C682 1.370 . S
C683 C684 1.403 . S
C684 C683 1.403 . S
C684 C685 1.404 . S
C684 C687 1.539 . S
C685 C681 1.408 . S
C685 C684 1.404 . S
C685 H697 0.930 . S
C686 C682 1.524 . S
C686 H698 0.956 . S
C686 H699 0.961 . S
C686 H700 0.961 . S
C687 C684 1.539 . S
C687 H701 0.958 . S
C687 H702 0.961 . S
C687 H703 0.960 . S
H688 C672 0.931 . S
H689 C677 0.929 . S
H690 C678 0.960 . S
H691 C678 0.962 . S
H692 C678 0.960 . S
H693 C679 0.961 . S
H694 C679 0.961 . S
H695 C679 0.961 . S
H696 C680 0.931 . S
H697 C685 0.930 . S
H698 C686 0.956 . S
H699 C686 0.961 . S
H700 C686 0.961 . S
H701 C687 0.958 . S
H702 C687 0.961 . S
H703 C687 0.960 . S
C704 C705 1.391 . S
C704 C706 1.394 . S
C704 H720 0.931 . S
C705 C704 1.391 . S
C705 C709 1.376 . S
C706 C704 1.394 . S
C706 C707 1.369 . S
C706 C710 1.531 . S
C707 C706 1.369 . S
C707 C708 1.410 . S
C707 C715 1.503 . S
C708 C707 1.410 . S
C708 C709 1.392 . S
C708 C711 1.511 . S
C709 C705 1.376 . S
C709 C708 1.392 . S
C709 H721 0.929 . S
C710 C706 1.531 . S
C710 H722 0.960 . S
C710 H723 0.962 . S
C710 H724 0.960 . S
C711 C708 1.511 . S
C711 H725 0.961 . S
C711 H726 0.961 . S
C711 H727 0.961 . S
C712 C713 1.370 . S
C712 C714 1.363 . S
C712 H728 0.931 . S
C713 C712 1.370 . S
C713 C717 1.408 . S
C714 C712 1.363 . S
C714 C715 1.370 . S
C714 C718 1.524 . S
C715 C707 1.503 . S
C715 C714 1.370 . S
C715 C716 1.403 . S
C716 C715 1.403 . S
C716 C717 1.404 . S
C716 C719 1.539 . S
C717 C713 1.408 . S
C717 C716 1.404 . S
C717 H729 0.930 . S
C718 C714 1.524 . S
C718 H730 0.956 . S
C718 H731 0.961 . S
C718 H732 0.961 . S
C719 C716 1.539 . S
C719 H733 0.958 . S
C719 H734 0.961 . S
C719 H735 0.960 . S
H720 C704 0.931 . S
H721 C709 0.929 . S
H722 C710 0.960 . S
H723 C710 0.962 . S
H724 C710 0.960 . S
H725 C711 0.961 . S
H726 C711 0.961 . S
H727 C711 0.961 . S
H728 C712 0.931 . S
H729 C717 0.930 . S
H730 C718 0.956 . S
H731 C718 0.961 . S
H732 C718 0.961 . S
H733 C719 0.958 . S
H734 C719 0.961 . S
H735 C719 0.960 . S
C736 C737 1.391 . S
C736 C738 1.394 . S
C736 H752 0.931 . S
C737 C736 1.391 . S
C737 C741 1.376 . S
C738 C736 1.394 . S
C738 C739 1.369 . S
C738 C742 1.531 . S
C739 C738 1.369 . S
C739 C740 1.410 . S
C739 C747 1.503 . S
C740 C739 1.410 . S
C740 C741 1.392 . S
C740 C743 1.511 . S
C741 C737 1.376 . S
C741 C740 1.392 . S
C741 H753 0.929 . S
C742 C738 1.531 . S
C742 H754 0.960 . S
C742 H755 0.962 . S
C742 H756 0.960 . S
C743 C740 1.511 . S
C743 H757 0.961 . S
C743 H758 0.961 . S
C743 H759 0.961 . S
C744 C745 1.370 . S
C744 C746 1.363 . S
C744 H760 0.931 . S
C745 C744 1.370 . S
C745 C749 1.408 . S
C746 C744 1.363 . S
C746 C747 1.370 . S
C746 C750 1.524 . S
C747 C739 1.503 . S
C747 C746 1.370 . S
C747 C748 1.403 . S
C748 C747 1.403 . S
C748 C749 1.404 . S
C748 C751 1.539 . S
C749 C745 1.408 . S
C749 C748 1.404 . S
C749 H761 0.930 . S
C750 C746 1.524 . S
C750 H762 0.956 . S
C750 H763 0.961 . S
C750 H764 0.961 . S
C751 C748 1.539 . S
C751 H765 0.958 . S
C751 H766 0.961 . S
C751 H767 0.960 . S
H752 C736 0.931 . S
H753 C741 0.929 . S
H754 C742 0.960 . S
H755 C742 0.962 . S
H756 C742 0.960 . S
H757 C743 0.961 . S
H758 C743 0.961 . S
H759 C743 0.961 . S
H760 C744 0.931 . S
H761 C749 0.930 . S
H762 C750 0.956 . S
H763 C750 0.961 . S
H764 C750 0.961 . S
H765 C751 0.958 . S
H766 C751 0.961 . S
H767 C751 0.960 . S
C768 C769 1.391 . S
C768 C770 1.394 . S
C768 H784 0.931 . S
C769 C768 1.391 . S
C769 C773 1.376 . S
C770 C768 1.394 . S
C770 C771 1.369 . S
C770 C774 1.531 . S
C771 C770 1.369 . S
C771 C772 1.410 . S
C771 C779 1.503 . S
C772 C771 1.410 . S
C772 C773 1.392 . S
C772 C775 1.511 . S
C773 C769 1.376 . S
C773 C772 1.392 . S
C773 H785 0.929 . S
C774 C770 1.531 . S
C774 H786 0.960 . S
C774 H787 0.962 . S
C774 H788 0.960 . S
C775 C772 1.511 . S
C775 H789 0.961 . S
C775 H790 0.961 . S
C775 H791 0.961 . S
C776 C777 1.370 . S
C776 C778 1.363 . S
C776 H792 0.931 . S
C777 C776 1.370 . S
C777 C781 1.408 . S
C778 C776 1.363 . S
C778 C779 1.370 . S
C778 C782 1.524 . S
C779 C771 1.503 . S
C779 C778 1.370 . S
C779 C780 1.403 . S
C780 C779 1.403 . S
C780 C781 1.404 . S
C780 C783 1.539 . S
C781 C777 1.408 . S
C781 C780 1.404 . S
C781 H793 0.930 . S
C782 C778 1.524 . S
C782 H794 0.956 . S
C782 H795 0.961 . S
C782 H796 0.961 . S
C783 C780 1.539 . S
C783 H797 0.958 . S
C783 H798 0.961 . S
C783 H799 0.960 . S
H784 C768 0.931 . S
H785 C773 0.929 . S
H786 C774 0.960 . S
H787 C774 0.962 . S
H788 C774 0.960 . S
H789 C775 0.961 . S
H790 C775 0.961 . S
H791 C775 0.961 . S
H792 C776 0.931 . S
H793 C781 0.930 . S
H794 C782 0.956 . S
H795 C782 0.961 . S
H796 C782 0.961 . S
H797 C783 0.958 . S
H798 C783 0.961 . S
H799 C783 0.960 . S
C800 C801 1.391 . S
C800 C802 1.394 . S
C800 H816 0.931 . S
C801 C800 1.391 . S
C801 C805 1.376 . S
C802 C800 1.394 . S
C802 C803 1.369 . S
C802 C806 1.531 . S
C803 C802 1.369 . S
C803 C804 1.410 . S
C803 C811 1.503 . S
C804 C803 1.410 . S
C804 C805 1.392 . S
C804 C807 1.511 . S
C805 C801 1.376 . S
C805 C804 1.392 . S
C805 H817 0.929 . S
C806 C802 1.531 . S
C806 H818 0.960 . S
C806 H819 0.962 . S
C806 H820 0.960 . S
C807 C804 1.511 . S
C807 H821 0.961 . S
C807 H822 0.961 . S
C807 H823 0.961 . S
C808 C809 1.370 . S
C808 C810 1.363 . S
C808 H824 0.931 . S
C809 C808 1.370 . S
C809 C813 1.408 . S
C810 C808 1.363 . S
C810 C811 1.370 . S
C810 C814 1.524 . S
C811 C803 1.503 . S
C811 C810 1.370 . S
C811 C812 1.403 . S
C812 C811 1.403 . S
C812 C813 1.404 . S
C812 C815 1.539 . S
C813 C809 1.408 . S
C813 C812 1.404 . S
C813 H825 0.930 . S
C814 C810 1.524 . S
C814 H826 0.956 . S
C814 H827 0.961 . S
C814 H828 0.961 . S
C815 C812 1.539 . S
C815 H829 0.958 . S
C815 H830 0.961 . S
C815 H831 0.960 . S
H816 C800 0.931 . S
H817 C805 0.929 . S
H818 C806 0.960 . S
H819 C806 0.962 . S
H820 C806 0.960 . S
H821 C807 0.961 . S
H822 C807 0.961 . S
H823 C807 0.961 . S
H824 C808 0.931 . S
H825 C813 0.930 . S
H826 C814 0.956 . S
H827 C814 0.961 . S
H828 C814 0.961 . S
H829 C815 0.958 . S
H830 C815 0.961 . S
H831 C815 0.960 . S
C832 C833 1.391 . S
C832 C834 1.394 . S
C832 H848 0.931 . S
C833 C832 1.391 . S
C833 C837 1.376 . S
C834 C832 1.394 . S
C834 C835 1.369 . S
C834 C838 1.531 . S
C835 C834 1.369 . S
C835 C836 1.410 . S
C835 C843 1.503 . S
C836 C835 1.410 . S
C836 C837 1.392 . S
C836 C839 1.511 . S
C837 C833 1.376 . S
C837 C836 1.392 . S
C837 H849 0.929 . S
C838 C834 1.531 . S
C838 H850 0.960 . S
C838 H851 0.962 . S
C838 H852 0.960 . S
C839 C836 1.511 . S
C839 H853 0.961 . S
C839 H854 0.961 . S
C839 H855 0.961 . S
C840 C841 1.370 . S
C840 C842 1.363 . S
C840 H856 0.931 . S
C841 C840 1.370 . S
C841 C845 1.408 . S
C842 C840 1.363 . S
C842 C843 1.370 . S
C842 C846 1.524 . S
C843 C835 1.503 . S
C843 C842 1.370 . S
C843 C844 1.403 . S
C844 C843 1.403 . S
C844 C845 1.404 . S
C844 C847 1.539 . S
C845 C841 1.408 . S
C845 C844 1.404 . S
C845 H857 0.930 . S
C846 C842 1.524 . S
C846 H858 0.956 . S
C846 H859 0.961 . S
C846 H860 0.961 . S
C847 C844 1.539 . S
C847 H861 0.958 . S
C847 H862 0.961 . S
C847 H863 0.960 . S
H848 C832 0.931 . S
H849 C837 0.929 . S
H850 C838 0.960 . S
H851 C838 0.962 . S
H852 C838 0.960 . S
H853 C839 0.961 . S
H854 C839 0.961 . S
H855 C839 0.961 . S
H856 C840 0.931 . S
H857 C845 0.930 . S
H858 C846 0.956 . S
H859 C846 0.961 . S
H860 C846 0.961 . S
H861 C847 0.958 . S
H862 C847 0.961 . S
H863 C847 0.960 . S
C864 C865 1.391 . S
C864 C866 1.394 . S
C864 H880 0.931 . S
C865 C864 1.391 . S
C865 C869 1.376 . S
C866 C864 1.394 . S
C866 C867 1.369 . S
C866 C870 1.531 . S
C867 C866 1.369 . S
C867 C868 1.410 . S
C867 C875 1.503 . S
C868 C867 1.410 . S
C868 C869 1.392 . S
C868 C871 1.511 . S
C869 C865 1.376 . S
C869 C868 1.392 . S
C869 H881 0.929 . S
C870 C866 1.531 . S
C870 H882 0.960 . S
C870 H883 0.962 . S
C870 H884 0.960 . S
C871 C868 1.511 . S
C871 H885 0.961 . S
C871 H886 0.961 . S
C871 H887 0.978 . S
C872 C873 1.370 . S
C872 C874 1.363 . S
C872 H888 0.931 . S
C873 C872 1.370 . S
C873 C877 1.408 . S
C874 C872 1.363 . S
C874 C875 1.370 . S
C874 C878 1.524 . S
C875 C867 1.503 . S
C875 C874 1.370 . S
C875 C876 1.403 . S
C876 C875 1.403 . S
C876 C877 1.404 . S
C876 C879 1.539 1_455 S
C877 C873 1.408 . S
C877 C876 1.404 . S
C877 H889 0.899 1_454 S
C878 C874 1.524 . S
C878 H890 0.956 . S
C878 H891 0.961 . S
C878 H892 0.961 . S
C879 C876 1.539 1_655 S
C879 H893 0.958 . S
C879 H894 0.961 . S
C879 H895 0.960 . S
H880 C864 0.931 . S
H881 C869 0.929 . S
H882 C870 0.960 . S
H883 C870 0.962 . S
H884 C870 0.960 . S
H885 C871 0.961 . S
H886 C871 0.961 . S
H887 C871 0.978 . S
H888 C872 0.931 . S
H889 C877 0.899 1_656 S
H890 C878 0.956 . S
H891 C878 0.961 . S
H892 C878 0.961 . S
H893 C879 0.958 . S
H894 C879 0.961 . S
H895 C879 0.960 . S
C896 C897 1.391 . S
C896 C898 1.394 . S
C896 H912 0.931 . S
C897 C896 1.391 . S
C897 C901 1.376 . S
C898 C896 1.394 . S
C898 C899 1.369 . S
C898 C902 1.531 . S
C899 C898 1.369 . S
C899 C900 1.410 . S
C899 C907 1.503 . S
C900 C899 1.410 . S
C900 C901 1.392 . S
C900 C903 1.511 . S
C901 C897 1.376 . S
C901 C900 1.392 . S
C901 H913 0.929 . S
C902 C898 1.531 . S
C902 H914 0.960 . S
C902 H915 0.962 . S
C902 H916 0.960 . S
C903 C900 1.511 . S
C903 H917 0.961 . S
C903 H918 0.961 . S
C903 H919 0.961 . S
C904 C905 1.370 . S
C904 C906 1.363 . S
C904 H920 0.931 1_545 S
C905 C904 1.370 . S
C905 C909 1.408 . S
C906 C904 1.363 . S
C906 C907 1.370 . S
C906 C910 1.524 1_545 S
C907 C899 1.503 . S
C907 C906 1.370 . S
C907 C908 1.403 . S
C908 C907 1.403 . S
C908 C909 1.404 . S
C908 C911 1.539 . S
C909 C905 1.408 . S
C909 C908 1.404 . S
C909 H921 0.930 . S
C910 C906 1.524 1_565 S
C910 H922 0.956 . S
C910 H923 0.961 . S
C910 H924 0.961 . S
C911 C908 1.539 . S
C911 H925 0.958 . S
C911 H926 0.961 . S
C911 H927 0.960 . S
H912 C896 0.931 . S
H913 C901 0.929 . S
H914 C902 0.960 . S
H915 C902 0.962 . S
H916 C902 0.960 . S
H917 C903 0.961 . S
H918 C903 0.961 . S
H919 C903 0.961 . S
H920 C904 0.931 1_565 S
H921 C909 0.930 . S
H922 C910 0.956 . S
H923 C910 0.961 . S
H924 C910 0.961 . S
H925 C911 0.958 . S
H926 C911 0.961 . S
H927 C911 0.960 . S
C928 C929 1.391 . S
C928 C930 1.394 . S
C928 H944 0.931 . S
C929 C928 1.391 . S
C929 C933 1.376 . S
C930 C928 1.394 . S
C930 C931 1.369 . S
C930 C934 1.531 . S
C931 C930 1.369 . S
C931 C932 1.410 . S
C931 C939 1.503 . S
C932 C931 1.410 . S
C932 C933 1.392 . S
C932 C935 1.511 . S
C933 C929 1.376 . S
C933 C932 1.392 . S
C933 H945 0.929 . S
C934 C930 1.531 . S
C934 H946 0.960 . S
C934 H947 0.962 . S
C934 H948 0.960 . S
C935 C932 1.511 . S
C935 H949 0.961 . S
C935 H950 0.961 . S
C935 H951 0.961 . S
C936 C937 1.370 . S
C936 C938 1.363 . S
C936 H952 0.931 . S
C937 C936 1.370 . S
C937 C941 1.408 . S
C938 C936 1.363 . S
C938 C939 1.370 . S
C938 C942 1.524 . S
C939 C931 1.503 . S
C939 C938 1.370 . S
C939 C940 1.403 . S
C940 C939 1.403 . S
C940 C941 1.404 . S
C940 C943 1.539 . S
C941 C937 1.408 . S
C941 C940 1.404 . S
C941 H953 0.930 . S
C942 C938 1.524 . S
C942 H954 0.956 . S
C942 H955 0.961 . S
C942 H956 0.961 . S
C943 C940 1.539 . S
C943 H957 0.958 . S
C943 H958 0.961 . S
C943 H959 0.960 . S
H944 C928 0.931 . S
H945 C933 0.929 . S
H946 C934 0.960 . S
H947 C934 0.962 . S
H948 C934 0.960 . S
H949 C935 0.961 . S
H950 C935 0.961 . S
H951 C935 0.961 . S
H952 C936 0.931 . S
H953 C941 0.930 . S
H954 C942 0.956 . S
H955 C942 0.961 . S
H956 C942 0.961 . S
H957 C943 0.958 . S
H958 C943 0.961 . S
H959 C943 0.960 . S
C960 C961 1.391 . S
C960 C962 1.394 . S
C960 H976 0.931 . S
C961 C960 1.391 . S
C961 C965 1.376 . S
C962 C960 1.394 . S
C962 C963 1.369 . S
C962 C966 1.531 . S
C963 C962 1.369 . S
C963 C964 1.410 . S
C963 C971 1.503 . S
C964 C963 1.410 . S
C964 C965 1.392 . S
C964 C967 1.511 . S
C965 C961 1.376 . S
C965 C964 1.392 . S
C965 H977 0.929 . S
C966 C962 1.531 . S
C966 H978 0.960 . S
C966 H979 0.962 . S
C966 H980 0.960 . S
C967 C964 1.511 . S
C967 H981 0.961 1_545 S
C967 H982 0.961 1_545 S
C967 H983 0.961 . S
C968 C969 1.370 . S
C968 C970 1.363 . S
C968 H984 0.931 . S
C969 C968 1.370 . S
C969 C973 1.408 1_565 S
C970 C968 1.363 . S
C970 C971 1.370 1_565 S
C970 C974 1.524 . S
C971 C963 1.503 . S
C971 C970 1.370 1_545 S
C971 C972 1.403 . S
C972 C971 1.403 . S
C972 C973 1.404 . S
C972 C975 1.539 . S
C973 C969 1.408 1_545 S
C973 C972 1.404 . S
C973 H985 0.930 . S
C974 C970 1.524 . S
C974 H986 0.956 . S
C974 H987 0.961 . S
C974 H988 0.961 . S
C975 C972 1.539 . S
C975 H989 0.958 . S
C975 H990 0.961 . S
C975 H991 0.960 . S
H976 C960 0.931 . S
H977 C965 0.929 . S
H978 C966 0.960 . S
H979 C966 0.962 . S
H980 C966 0.960 . S
H981 C967 0.961 1_565 S
H982 C967 0.961 1_565 S
H983 C967 0.961 . S
H984 C968 0.931 . S
H985 C973 0.930 . S
H986 C974 0.956 . S
H987 C974 0.961 . S
H988 C974 0.961 . S
H989 C975 0.958 . S
H990 C975 0.961 . S
H991 C975 0.960 . S
C992 C993 1.391 . S
C992 C994 1.394 . S
C992 H1008 0.931 . S
C993 C992 1.391 . S
C993 C997 1.376 . S
C994 C992 1.394 . S
C994 C995 1.369 . S
C994 C998 1.531 . S
C995 C994 1.369 . S
C995 C996 1.410 . S
C995 C1003 1.503 . S
C996 C995 1.410 . S
C996 C997 1.392 . S
C996 C999 1.511 . S
C997 C993 1.376 . S
C997 C996 1.392 . S
C997 H1009 0.929 . S
C998 C994 1.531 . S
C998 H1010 0.960 . S
C998 H1011 0.962 . S
C998 H1012 0.960 . S
C999 C996 1.511 . S
C999 H1013 0.961 . S
C999 H1014 0.961 . S
C999 H1015 0.961 . S
C1000 C1001 1.370 . S
C1000 C1002 1.363 . S
C1000 H1016 0.931 . S
C1001 C1000 1.370 . S
C1001 C1005 1.408 . S
C1002 C1000 1.363 . S
C1002 C1003 1.370 . S
C1002 C1006 1.524 . S
C1003 C995 1.503 . S
C1003 C1002 1.370 . S
C1003 C1004 1.403 . S
C1004 C1003 1.403 . S
C1004 C1005 1.404 . S
C1004 C1007 1.539 . S
C1005 C1001 1.408 . S
C1005 C1004 1.404 . S
C1005 H1017 0.930 . S
C1006 C1002 1.524 . S
C1006 H1018 0.956 . S
C1006 H1019 0.961 . S
C1006 H1020 0.961 . S
C1007 C1004 1.539 . S
C1007 H1021 0.958 . S
C1007 H1022 0.961 . S
C1007 H1023 0.960 . S
H1008 C992 0.931 . S
H1009 C997 0.929 . S
H1010 C998 0.960 . S
H1011 C998 0.962 . S
H1012 C998 0.960 . S
H1013 C999 0.961 . S
H1014 C999 0.961 . S
H1015 C999 0.961 . S
H1016 C1000 0.931 . S
H1017 C1005 0.930 . S
H1018 C1006 0.956 . S
H1019 C1006 0.961 . S
H1020 C1006 0.961 . S
H1021 C1007 0.958 . S
H1022 C1007 0.961 . S
H1023 C1007 0.960 . S
C1024 C1025 1.391 1_655 S
C1024 C1026 1.394 . S
C1024 H1040 0.931 . S
C1025 C1024 1.391 1_455 S
C1025 C1029 1.376 . S
C1026 C1024 1.394 . S
C1026 C1027 1.369 1_655 S
C1026 C1030 1.531 . S
C1027 C1026 1.369 1_455 S
C1027 C1028 1.410 . S
C1027 C1035 1.503 . S
C1028 C1027 1.410 . S
C1028 C1029 1.392 . S
C1028 C1031 1.511 . S
C1029 C1025 1.376 . S
C1029 C1028 1.392 . S
C1029 H1041 0.929 . S
C1030 C1026 1.531 . S
C1030 H1042 0.960 . S
C1030 H1043 0.962 . S
C1030 H1044 0.960 . S
C1031 C1028 1.511 . S
C1031 H1045 0.961 . S
C1031 H1046 0.961 . S
C1031 H1047 0.961 . S
C1032 C1033 1.371 . S
C1032 C1034 1.370 . S
C1032 H1048 0.931 . S
C1033 C1032 1.371 . S
C1033 C1037 1.407 1_655 S
C1034 C1032 1.370 . S
C1034 C1035 1.350 1_655 S
C1034 C1038 1.538 . S
C1035 C1027 1.503 . S
C1035 C1034 1.350 1_455 S
C1035 C1036 1.403 . S
C1036 C1035 1.403 . S
C1036 C1037 1.404 . S
C1036 C1039 1.539 . S
C1037 C1033 1.407 1_455 S
C1037 C1036 1.404 . S
C1037 H1049 0.930 . S
C1038 C1034 1.538 . S
C1038 H1050 0.956 . S
C1038 H1051 0.961 1_655 S
C1038 H1052 0.961 . S
C1039 C1036 1.539 . S
C1039 H1053 0.958 . S
C1039 H1054 0.961 . S
C1039 H1055 0.960 . S
H1040 C1024 0.931 . S
H1041 C1029 0.929 . S
H1042 C1030 0.960 . S
H1043 C1030 0.962 . S
H1044 C1030 0.960 . S
H1045 C1031 0.961 . S
H1046 C1031 0.961 . S
H1047 C1031 0.961 . S
H1048 C1032 0.931 . S
H1049 C1037 0.930 . S
H1050 C1038 0.956 . S
H1051 C1038 0.961 1_455 S
H1052 C1038 0.961 . S
H1053 C1039 0.958 . S
H1054 C1039 0.961 . S
H1055 C1039 0.960 . S
C481 C25 0.333 . S
C489 C451 0.373 . S
C513 C65 0.467 . S
C521 C301 0.351 . S
C545 C105 0.483 . S
C553 C361 0.389 . S
C577 C4 0.508 . S
C585 C421 0.399 . S
C617 C331 0.330 . S
C609 C44 0.466 . S
C649 C391 0.408 . S
C641 C84 0.464 . S
C673 C60 2.911 . S
C681 C181 2.750 . S
C705 C100 3.092 . S
C713 C271 3.088 . S
C737 C31 3.110 . S
C745 C151 3.101 . S
C777 C211 3.092 . S
C769 C71 3.093 . S
C809 C241 2.771 . S
C801 C111 2.912 . S
C833 C20 2.911 . S
C841 C121 2.761 . S
C873 C260 1.779 1_554 S
C865 C2 1.722 . S
C897 C42 1.770 . S
C905 C140 1.766 . S
C929 C82 1.752 . S
C937 C200 1.770 . S
C969 C380 1.039 . S
C961 C63 1.045 . S
C1001 C440 1.091 1_556 S
C993 C103 1.069 . S
C1025 C23 1.023 . S
C1033 C320 1.045 1_655 S
