# Generated by pormake.
# Topology pyr, (3,6)-cn, num edge types: 1
# Building blocks:
#     Node 0, Type 0, BuildingBlock: BETDIP_clean_linker_0, # of connection points: 3
#     Node 1, Type 0, BuildingBlock: BETDIP_clean_linker_0, # of connection points: 3
#     Node 2, Type 0, BuildingBlock: BETDIP_clean_linker_0, # of connection points: 3
#     Node 3, Type 0, BuildingBlock: BETDIP_clean_linker_0, # of connection points: 3
#     Node 4, Type 0, BuildingBlock: BETDIP_clean_linker_0, # of connection points: 3
#     Node 5, Type 0, BuildingBlock: BETDIP_clean_linker_0, # of connection points: 3
#     Node 6, Type 0, BuildingBlock: BETDIP_clean_linker_0, # of connection points: 3
#     Node 7, Type 0, BuildingBlock: BETDIP_clean_linker_0, # of connection points: 3
#     Node 8, Type 1, BuildingBlock: GEDQOX_clean_sbu_0, # of connection points: 6
#     Node 9, Type 1, BuildingBlock: GEDQOX_clean_sbu_0, # of connection points: 6
#     Node 10, Type 1, BuildingBlock: GEDQOX_clean_sbu_0, # of connection points: 6
#     Node 11, Type 1, BuildingBlock: GEDQOX_clean_sbu_0, # of connection points: 6
#     Edge 12, Type (0, 1), None
#     Edge 13, Type (0, 1), None
#     Edge 14, Type (0, 1), None
#     Edge 15, Type (0, 1), None
#     Edge 16, Type (0, 1), None
#     Edge 17, Type (0, 1), None
#     Edge 18, Type (0, 1), None
#     Edge 19, Type (0, 1), None
#     Edge 20, Type (0, 1), None
#     Edge 21, Type (0, 1), None
#     Edge 22, Type (0, 1), None
#     Edge 23, Type (0, 1), None
#     Edge 24, Type (0, 1), None
#     Edge 25, Type (0, 1), None
#     Edge 26, Type (0, 1), None
#     Edge 27, Type (0, 1), None
#     Edge 28, Type (0, 1), None
#     Edge 29, Type (0, 1), None
#     Edge 30, Type (0, 1), None
#     Edge 31, Type (0, 1), None
#     Edge 32, Type (0, 1), None
#     Edge 33, Type (0, 1), None
#     Edge 34, Type (0, 1), None
#     Edge 35, Type (0, 1), None
# Relax obj value: 0.523
# Max RMSD: 0.250
# Mean RMSD: 0.188
data_MOF--net-pyr--node1-GEDQOX_clean_sbu_0--node2-BETDIP_clean_linker_0--edge1-none
_symmetry_space_group_name_H-M    P1
_symmetry_Int_Tables_number       1
_symmetry_cell_setting            triclinic
loop_
_symmetry_equiv_pos_as_xyz
'x, y, z'
_cell_length_a     17.259164
_cell_length_b     17.586645
_cell_length_c     14.9099
_cell_angle_alpha  95.885035
_cell_angle_beta   83.019507
_cell_angle_gamma 84.764247
loop_
_atom_site_label
_atom_site_type_symbol
_atom_site_fract_x
_atom_site_fract_y
_atom_site_fract_z
_atom_type_partial_charge
H0 H 0.14553 0.22216 0.40234 0.0
H1 H 0.34887 0.24282 0.20951 0.0
H2 H 0.35179 0.06117 0.38371 0.0
H3 H 0.28174 0.35184 0.18403 0.0
C4 C 0.22151 0.3627 0.21687 0.0
C5 C 0.2043 0.20076 0.37023 0.0
C6 C 0.24256 0.13509 0.40033 0.0
C7 C 0.23984 0.24051 0.30071 0.0
C8 C 0.31856 0.21241 0.26014 0.0
C9 C 0.36023 0.14611 0.28754 0.0
C10 C 0.32045 0.10874 0.35807 0.0
N11 N 0.19466 0.3086 0.27722 0.0
H12 H 0.4131 0.94025 0.99085 0.0
H13 H 0.42747 0.71673 0.84092 0.0
H14 H 0.63914 0.82421 0.86984 0.0
H15 H 0.23988 0.75544 0.95059 0.0
C16 C 0.28199 0.77605 0.90121 0.0
C17 C 0.44874 0.89216 0.94976 0.0
C18 C 0.53083 0.89153 0.93652 0.0
C19 C 0.41159 0.82962 0.91603 0.0
C20 C 0.45652 0.76504 0.86637 0.0
C21 C 0.53797 0.7627 0.84527 0.0
C22 C 0.57583 0.8261 0.88222 0.0
N23 N 0.32857 0.83219 0.93597 0.0
H24 H 0.97619 0.591 0.87298 0.0
H25 H 0.78304 0.45403 0.87121 0.0
H26 H 0.94115 0.42751 1.06961 0.0
H27 H 0.85606 0.44842 0.70214 0.0
C28 C 0.82523 0.50608 0.71565 0.0
C29 C 0.94347 0.54756 0.90171 0.0
C30 C 0.96833 0.5122 0.97693 0.0
C31 C 0.87727 0.52554 0.86208 0.0
C32 C 0.83511 0.46988 0.89957 0.0
C33 C 0.85739 0.43418 0.97297 0.0
C34 C 0.92414 0.45507 1.01222 0.0
N35 N 0.85252 0.55673 0.78363 0.0
H36 H 0.74704 0.99553 0.38607 0.0
H37 H 0.98158 0.0574 0.38992 0.0
H38 H 0.84168 1.02013 0.63751 0.0
H39 H 0.79615 0.95547 0.20576 0.0
C40 C 0.84501 0.94296 0.24295 0.0
C41 C 0.79275 1.01377 0.42459 0.0
C42 C 0.7882 1.00233 0.51613 0.0
C43 C 0.86414 1.02835 0.37746 0.0
C44 C 0.92571 1.04726 0.42588 0.0
C45 C 0.91583 1.04746 0.52065 0.0
C46 C 0.84596 1.02767 0.56574 0.0
N47 N 0.87899 1.007 0.28238 0.0
H48 H 0.8295 0.89151 1.07073 0.0
H49 H 1.05394 0.88497 0.90778 0.0
H50 H 0.86473 0.05557 0.87925 0.0
H51 H 0.09998 0.83143 1.0333 0.0
C52 C 1.05407 0.79955 1.06259 0.0
C53 C 0.86864 0.91845 1.02473 0.0
C54 C 0.83896 0.98312 0.98599 0.0
C55 C 0.94729 0.88539 1.00241 0.0
C56 C 0.99477 0.91198 0.9293 0.0
C57 C 0.96526 0.97269 0.8823 0.0
C58 C 0.88789 1.00875 0.91351 0.0
N59 N 0.97411 0.82366 1.05221 0.0
H60 H 0.80651 0.17886 0.27116 0.0
H61 H 0.81395 0.39058 0.43718 0.0
H62 H 0.59124 0.30203 0.41486 0.0
H63 H 0.99921 0.34426 0.3205 0.0
C64 C 0.95447 0.32398 0.36723 0.0
C65 C 0.77562 0.22647 0.3177 0.0
C66 C 0.69328 0.23239 0.33692 0.0
C67 C 0.81893 0.28308 0.3536 0.0
C68 C 0.78 0.34652 0.41102 0.0
C69 C 0.6987 0.35331 0.43749 0.0
C70 C 0.65453 0.29626 0.39859 0.0
N71 N 0.90174 0.27634 0.32812 0.0
H72 H 0.23715 0.55906 0.44315 0.0
H73 H 0.4172 0.70365 0.49044 0.0
H74 H 0.28696 0.7334 0.26586 0.0
H75 H 0.44264 0.51379 0.42658 0.0
C76 C 0.43608 0.53762 0.49776 0.0
C77 C 0.2674 0.60815 0.42658 0.0
C78 C 0.24988 0.64741 0.35142 0.0
C79 C 0.32811 0.62858 0.47647 0.0
C80 C 0.36908 0.6896 0.45329 0.0
C81 C 0.35669 0.72557 0.37631 0.0
C82 C 0.29579 0.70602 0.32624 0.0
N83 N 0.36195 0.5784 0.53366 0.0
H84 H 0.16628 0.09504 0.89151 0.0
H85 H 0.25248 0.29234 0.78418 0.0
H86 H 0.38116 0.07514 0.7084 0.0
H87 H 1.05096 0.34552 0.91096 0.0
C88 C 0.11205 0.32293 0.90698 0.0
C89 C 0.2131 0.12172 0.85543 0.0
C90 C 0.26628 0.07761 0.78652 0.0
C91 C 0.2028 0.20071 0.8533 0.0
C92 C 0.25935 0.23359 0.79772 0.0
C93 C 0.32946 0.18999 0.75976 0.0
C94 C 0.33275 0.10998 0.75094 0.0
N95 N 0.13123 0.24198 0.8979 0.0
Nd96 Nd 0.13703 0.96926 0.60143 0.0
Nd97 Nd 1.08131 0.12368 0.67823 0.0
C98 C 0.17287 0.82112 0.56698 0.0
C99 C 0.21433 0.78208 0.63395 0.0
C100 C 0.17195 0.74346 0.6985 0.0
C101 C 0.19759 0.73663 0.78328 0.0
C102 C 0.26533 0.7692 0.80533 0.0
C103 C 0.31198 0.80001 0.73717 0.0
C104 C 0.28776 0.80462 0.65189 0.0
C105 C 0.22847 1.0272 0.72564 0.0
C106 C 1.01493 0.99969 0.80207 0.0
C107 C 1.04932 0.27237 0.70846 0.0
C108 C 1.01056 0.31091 0.63922 0.0
C109 C 1.05392 0.35293 0.57944 0.0
C110 C 1.03202 0.36144 0.49313 0.0
C111 C 0.96744 0.32678 0.46446 0.0
C112 C 0.92054 0.29064 0.52735 0.0
C113 C 0.9404 0.28507 0.61439 0.0
C114 C 0.97703 0.06403 0.57624 0.0
C115 C 0.20174 0.09965 0.48091 0.0
O116 O 0.21242 0.86905 0.52342 0.0
O117 O 0.10074 0.85058 0.59665 0.0
O118 O 0.25839 0.99422 0.64609 0.0
O119 O 0.15565 1.03276 0.73194 0.0
O120 O 1.03986 0.95278 0.72543 0.0
O121 O 1.03465 0.07088 0.80782 0.0
O122 O 0.12103 0.24087 0.68063 0.0
O123 O 1.00761 0.22649 0.75296 0.0
O124 O 0.95881 0.10325 0.65464 0.0
O125 O 1.05017 1.05465 0.55092 0.0
O126 O 0.17623 0.14424 0.55796 0.0
O127 O 0.18552 1.02718 0.47407 0.0
H128 H 0.11529 0.72532 0.687 0.0
H129 H 0.16103 0.71133 0.8341 0.0
H130 H 0.36477 0.82521 0.75033 0.0
H131 H 0.32306 0.83361 0.60367 0.0
H132 H 0.10847 0.37313 0.5961 0.0
H133 H 1.06902 0.39026 0.44637 0.0
H134 H 0.87101 0.2622 0.50889 0.0
H135 H 0.90461 0.2531 0.65859 0.0
Nd136 Nd 0.60864 1.02443 0.17695 0.0
Nd137 Nd 0.5979 0.11226 1.0999 0.0
C138 C 0.60332 0.90937 0.27664 0.0
C139 C 0.53931 0.86473 0.30528 0.0
C140 C 0.55661 0.78628 0.31021 0.0
C141 C 0.4962 0.74083 0.32888 0.0
C142 C 0.41741 0.77311 0.34282 0.0
C143 C 0.39971 0.85131 0.33519 0.0
C144 C 0.46062 0.89694 0.3159 0.0
C145 C 0.44964 0.12651 0.26095 0.0
C146 C 0.56582 0.95446 0.99133 0.0
C147 C 0.61269 0.23577 1.01527 0.0
C148 C 0.67958 0.28373 1.0091 0.0
C149 C 0.66959 0.35848 1.05544 0.0
C150 C 0.73178 0.40436 1.05378 0.0
C151 C 0.80567 0.37701 1.00531 0.0
C152 C 0.81685 0.30125 0.96167 0.0
C153 C 0.75469 0.25474 0.96427 0.0
C154 C 0.75322 1.01532 1.00889 0.0
C155 C 0.6517 0.17422 0.28429 0.0
O156 O 0.62456 0.90047 0.18915 0.0
O157 O 0.59864 0.98096 0.31229 0.0
O158 O 0.48188 0.0852 0.18491 0.0
O159 O 0.48311 0.08542 0.18625 0.0
O160 O 0.6129 0.93613 1.04931 0.0
O161 O 0.53692 1.0277 1.00295 0.0
O162 O 0.57526 0.23774 1.09672 0.0
O163 O 0.62207 0.16654 0.97143 0.0
O164 O 0.72278 1.04968 1.08913 0.0
O165 O 0.72194 1.04966 1.08822 0.0
O166 O 0.60029 0.19525 0.23217 0.0
O167 O 0.679 0.10157 0.26752 0.0
H168 H 0.61688 0.7602 0.29949 0.0
H169 H 0.51103 0.68037 0.33431 0.0
H170 H 0.33943 0.87722 0.34629 0.0
H171 H 0.4465 0.95703 0.30874 0.0
H172 H 0.61286 0.38218 1.09161 0.0
H173 H 0.72061 0.46342 1.08496 0.0
H174 H 0.87227 0.27977 0.92079 0.0
H175 H 0.76503 0.19694 0.92928 0.0
Nd176 Nd 0.59118 0.51291 0.69577 0.0
Nd177 Nd 0.63975 0.60169 0.58124 0.0
C178 C 0.51871 0.42716 0.80646 0.0
C179 C 0.48161 0.35774 0.78297 0.0
C180 C 0.44179 0.35138 0.70612 0.0
C181 C 0.40016 0.28853 0.68875 0.0
C182 C 0.399 0.23111 0.7473 0.0
C183 C 0.44582 0.23354 0.81807 0.0
C184 C 0.48646 0.29709 0.83631 0.0
C185 C 0.75159 0.51273 0.69359 0.0
C186 C 0.57722 0.69422 0.78057 0.0
C187 C 0.69093 0.70683 0.48388 0.0
C188 C 0.70981 0.78494 0.50927 0.0
C189 C 0.78061 0.79713 0.54249 0.0
C190 C 0.80066 0.87127 0.55933 0.0
C191 C 0.75094 0.93438 0.54133 0.0
C192 C 0.67647 0.92271 0.51767 0.0
C193 C 0.6561 0.84827 0.50158 0.0
C194 C 0.50312 0.55008 0.53148 0.0
C195 C 0.66525 0.42246 0.50376 0.0
O196 O 0.59459 0.42056 0.7866 0.0
O197 O 0.48505 0.49056 0.78399 0.0
O198 O 0.71683 0.45243 0.67439 0.0
O199 O 0.70374 0.57283 0.70177 0.0
O200 O 0.56905 0.62374 0.80077 0.0
O201 O 0.60071 0.70292 0.69557 0.0
O202 O 0.61682 0.69728 0.50089 0.0
O203 O 0.73775 0.64986 0.50395 0.0
O204 O 0.56859 0.54401 0.47863 0.0
O205 O 0.51128 0.57729 0.61136 0.0
O206 O 0.70117 0.48586 0.50518 0.0
O207 O 0.60502 0.4215 0.56697 0.0
H208 H 0.43916 0.39695 0.66251 0.0
H209 H 0.36285 0.28843 0.63528 0.0
H210 H 0.44394 0.19064 0.86534 0.0
H211 H 0.51809 0.30086 0.89471 0.0
H212 H 0.82246 0.74953 0.55116 0.0
H213 H 0.85907 0.878 0.5765 0.0
H214 H 0.63737 0.97043 0.50331 0.0
H215 H 0.5997 0.84028 0.47944 0.0
Nd216 Nd 1.05824 0.58351 0.21891 0.0
Nd217 Nd 0.17487 0.58291 1.08697 0.0
C218 C 0.92206 0.63181 0.3149 0.0
C219 C 0.88961 0.71345 0.31772 0.0
C220 C 0.82535 0.73275 0.27182 0.0
C221 C 0.80959 0.8079 0.24999 0.0
C222 C 0.85765 0.86519 0.2736 0.0
C223 C 0.91915 0.84684 0.32371 0.0
C224 C 0.93437 0.77236 0.34634 0.0
C225 C 0.18749 0.62215 0.29737 0.0
C226 C 1.07646 0.73606 1.1027 0.0
C227 C 0.29401 0.55016 0.96138 0.0
C228 C 0.28782 0.47805 0.90355 0.0
C229 C 0.29796 0.41034 0.9455 0.0
C230 C 0.23772 0.36286 0.95215 0.0
C231 C 0.1726 0.3763 0.90584 0.0
C232 C 0.17185 0.43345 0.84706 0.0
C233 C 0.23156 0.48193 0.8425 0.0
C234 C 1.03937 0.53654 1.01767 0.0
C235 C 0.18036 0.42975 0.19971 0.0
O236 O 0.92737 0.59073 0.23588 0.0
O237 O 0.98562 0.62003 0.35285 0.0
O238 O 0.14104 0.57334 0.32526 0.0
O239 O 0.16675 0.65002 0.227 0.0
O240 O 1.02659 0.69098 0.13846 0.0
O241 O 0.15094 0.71274 1.09763 0.0
O242 O 0.30167 0.54206 1.04628 0.0
O243 O 0.23984 0.60574 0.9558 0.0
O244 O 1.08158 0.58736 0.98707 0.0
O245 O 1.06789 0.51134 1.08456 0.0
O246 O 0.21974 0.4736 0.14816 0.0
O247 O 0.10595 0.45446 0.23237 0.0
H248 H 0.79043 0.68869 0.24771 0.0
H249 H 0.76185 0.82034 0.21121 0.0
H250 H 0.95812 0.8889 0.34222 0.0
H251 H 0.98503 0.7601 0.38084 0.0
H252 H 0.34404 0.40236 0.98802 0.0
H253 H 0.24162 0.31604 0.99386 0.0
H254 H 0.12452 0.44139 0.80622 0.0
H255 H 0.22508 0.53076 0.80417 0.0
loop_
_geom_bond_atom_site_label_1
_geom_bond_atom_site_label_2
_geom_bond_distance
_geom_bond_site_symmetry_2
_ccdc_geom_bond_type
H0 C5 0.930 . S
H1 C8 0.930 . S
H2 C10 0.930 . S
H3 C4 1.016 . S
C4 H3 1.016 . S
C4 N11 1.286 . S
C5 H0 0.930 . S
C5 C6 1.397 . S
C5 C7 1.361 . S
C6 C5 1.397 . S
C6 C10 1.390 . S
C7 C5 1.361 . S
C7 C8 1.393 . S
C7 N11 1.413 . S
C8 H1 0.930 . S
C8 C7 1.393 . S
C8 C9 1.399 . S
C9 C8 1.399 . S
C9 C10 1.381 . S
C10 H2 0.930 . S
C10 C6 1.390 . S
C10 C9 1.381 . S
N11 C4 1.286 . S
N11 C7 1.413 . S
H12 C17 0.930 . S
H13 C20 0.930 . S
H14 C22 0.930 . S
H15 C16 1.016 . S
C16 H15 1.016 . S
C16 N23 1.286 . S
C17 H12 0.930 . S
C17 C18 1.397 . S
C17 C19 1.361 . S
C18 C17 1.397 . S
C18 C22 1.390 . S
C19 C17 1.361 . S
C19 C20 1.393 . S
C19 N23 1.413 . S
C20 H13 0.930 . S
C20 C19 1.393 . S
C20 C21 1.399 . S
C21 C20 1.399 . S
C21 C22 1.381 . S
C22 H14 0.930 . S
C22 C18 1.390 . S
C22 C21 1.381 . S
N23 C16 1.286 . S
N23 C19 1.413 . S
H24 C29 0.930 . S
H25 C32 0.930 . S
H26 C34 0.930 . S
H27 C28 1.016 . S
C28 H27 1.016 . S
C28 N35 1.286 . S
C29 H24 0.930 . S
C29 C30 1.397 . S
C29 C31 1.361 . S
C30 C29 1.397 . S
C30 C34 1.390 . S
C31 C29 1.361 . S
C31 C32 1.393 . S
C31 N35 1.413 . S
C32 H25 0.930 . S
C32 C31 1.393 . S
C32 C33 1.399 . S
C33 C32 1.399 . S
C33 C34 1.381 . S
C34 H26 0.930 . S
C34 C30 1.390 . S
C34 C33 1.381 . S
N35 C28 1.286 . S
N35 C31 1.413 . S
H36 C41 0.930 . S
H37 C44 0.930 . S
H38 C46 0.930 1_545 S
H39 C40 1.016 . S
C40 H39 1.016 . S
C40 N47 1.286 . S
C41 H36 0.930 . S
C41 C42 1.397 . S
C41 C43 1.361 . S
C42 C41 1.397 . S
C42 C46 1.390 . S
C43 C41 1.361 . S
C43 C44 1.393 . S
C43 N47 1.413 . S
C44 H37 0.930 . S
C44 C43 1.393 . S
C44 C45 1.399 1_565 S
C45 C44 1.399 1_545 S
C45 C46 1.381 1_545 S
C46 H38 0.930 1_565 S
C46 C42 1.390 . S
C46 C45 1.381 1_565 S
N47 C40 1.286 . S
N47 C43 1.413 . S
H48 C53 0.930 . S
H49 C56 0.930 . S
H50 C58 0.930 . S
H51 C52 1.016 . S
C52 H51 1.016 . S
C52 N59 1.286 . S
C53 H48 0.930 . S
C53 C54 1.397 . S
C53 C55 1.361 . S
C54 C53 1.397 . S
C54 C58 1.390 . S
C55 C53 1.361 . S
C55 C56 1.393 . S
C55 N59 1.413 . S
C56 H49 0.930 . S
C56 C55 1.393 . S
C56 C57 1.399 . S
C57 C56 1.399 . S
C57 C58 1.381 . S
C58 H50 0.930 . S
C58 C54 1.390 . S
C58 C57 1.381 . S
N59 C52 1.286 . S
N59 C55 1.413 . S
H60 C65 0.930 . S
H61 C68 0.930 . S
H62 C70 0.930 . S
H63 C64 1.016 . S
C64 H63 1.016 . S
C64 N71 1.286 . S
C65 H60 0.930 . S
C65 C66 1.397 . S
C65 C67 1.361 . S
C66 C65 1.397 . S
C66 C70 1.390 . S
C67 C65 1.361 . S
C67 C68 1.393 . S
C67 N71 1.413 . S
C68 H61 0.930 . S
C68 C67 1.393 . S
C68 C69 1.399 . S
C69 C68 1.399 . S
C69 C70 1.381 . S
C70 H62 0.930 . S
C70 C66 1.390 . S
C70 C69 1.381 . S
N71 C64 1.286 . S
N71 C67 1.413 . S
H72 C77 0.930 . S
H73 C80 0.930 . S
H74 C82 0.930 . S
H75 C76 1.016 . S
C76 H75 1.016 . S
C76 N83 1.286 . S
C77 H72 0.930 . S
C77 C78 1.397 . S
C77 C79 1.361 . S
C78 C77 1.397 . S
C78 C82 1.390 . S
C79 C77 1.361 . S
C79 C80 1.393 . S
C79 N83 1.413 . S
C80 H73 0.930 . S
C80 C79 1.393 . S
C80 C81 1.399 . S
C81 C80 1.399 . S
C81 C82 1.381 . S
C82 H74 0.930 . S
C82 C78 1.390 . S
C82 C81 1.381 . S
N83 C76 1.286 . S
N83 C79 1.413 . S
H84 C89 0.930 . S
H85 C92 0.930 . S
H86 C94 0.930 . S
H87 C88 1.016 . S
C88 H87 1.016 . S
C88 N95 1.286 . S
C89 H84 0.930 . S
C89 C90 1.397 1_545 S
C89 C91 1.361 . S
C90 C89 1.397 1_565 S
C90 C94 1.390 1_565 S
C91 C89 1.361 . S
C91 C92 1.393 . S
C91 N95 1.413 . S
C92 H85 0.930 . S
C92 C91 1.393 . S
C92 C93 1.399 . S
C93 C92 1.399 . S
C93 C94 1.381 . S
C94 H86 0.930 . S
C94 C90 1.390 1_545 S
C94 C93 1.381 . S
N95 C88 1.286 . S
N95 C91 1.413 . S
Nd96 C98 2.836 . S
Nd96 O116 2.500 . S
Nd96 O117 2.492 . S
Nd96 O118 2.487 1_565 S
Nd96 O119 2.682 1_565 S
Nd96 O120 2.410 . S
Nd96 O125 2.414 1_455 S
Nd96 O127 2.424 . S
Nd97 C107 2.836 . S
Nd97 O119 2.414 1_655 S
Nd97 O121 2.424 . S
Nd97 O122 2.500 . S
Nd97 O123 2.492 . S
Nd97 O124 2.487 1_545 S
Nd97 O125 2.682 1_545 S
Nd97 O126 2.410 . S
C98 Nd96 2.836 . S
C98 C99 1.498 . S
C98 O116 1.258 . S
C98 O117 1.239 . S
C99 C98 1.498 . S
C99 C100 1.366 . S
C99 C104 1.407 . S
C100 C99 1.366 . S
C100 C101 1.392 . S
C100 H128 0.930 . S
C101 C100 1.392 . S
C101 C102 1.398 . S
C101 H129 0.929 . S
C102 C101 1.398 . S
C102 C103 1.352 . S
C103 C102 1.352 . S
C103 C104 1.384 . S
C103 H130 0.930 . S
C104 C99 1.407 . S
C104 C103 1.384 . S
C104 H131 0.929 . S
C105 O118 1.241 . S
C105 O119 1.273 . S
C106 O120 1.251 1_655 S
C106 O121 1.268 1_565 S
C107 Nd97 2.836 . S
C107 C108 1.498 . S
C107 O122 1.258 . S
C107 O123 1.239 . S
C108 C107 1.498 . S
C108 C109 1.366 . S
C108 C113 1.407 . S
C109 C108 1.366 . S
C109 C110 1.392 . S
C109 H132 0.930 . S
C110 C109 1.392 . S
C110 C111 1.398 . S
C110 H133 0.929 . S
C111 C110 1.398 . S
C111 C112 1.352 . S
C112 C111 1.352 . S
C112 C113 1.384 . S
C112 H134 0.930 . S
C113 C108 1.407 . S
C113 C112 1.384 . S
C113 H135 0.929 . S
C114 O124 1.241 . S
C114 O125 1.273 . S
C115 O126 1.251 1_455 S
C115 O127 1.268 1_545 S
O116 Nd96 2.500 . S
O116 C98 1.258 . S
O117 Nd96 2.492 . S
O117 C98 1.239 . S
O118 Nd96 2.487 1_545 S
O118 C105 1.241 . S
O119 Nd96 2.682 1_545 S
O119 Nd97 2.414 1_455 S
O119 C105 1.273 . S
O120 Nd96 2.410 . S
O120 C106 1.251 1_455 S
O121 Nd97 2.424 . S
O121 C106 1.268 1_545 S
O122 Nd97 2.500 . S
O122 C107 1.258 . S
O123 Nd97 2.492 . S
O123 C107 1.239 . S
O124 Nd97 2.487 1_565 S
O124 C114 1.241 . S
O125 Nd96 2.414 1_655 S
O125 Nd97 2.682 1_565 S
O125 C114 1.273 . S
O126 Nd97 2.410 . S
O126 C115 1.251 1_655 S
O127 Nd96 2.424 . S
O127 C115 1.268 1_565 S
H128 C100 0.930 . S
H129 C101 0.929 . S
H130 C103 0.930 . S
H131 C104 0.929 . S
H132 C109 0.930 . S
H133 C110 0.929 . S
H134 C112 0.930 . S
H135 C113 0.929 . S
Nd136 C138 2.836 . S
Nd136 O156 2.500 . S
Nd136 O157 2.492 . S
Nd136 O158 2.487 1_565 S
Nd136 O159 2.682 1_565 S
Nd136 O160 2.410 1_554 S
Nd136 O165 2.414 . S
Nd136 O167 2.424 1_565 S
Nd137 C147 2.836 . S
Nd137 O159 2.414 1_556 S
Nd137 O161 2.424 1_545 S
Nd137 O162 2.500 . S
Nd137 O163 2.492 . S
Nd137 O164 2.487 . S
Nd137 O165 2.682 1_546 S
Nd137 O166 2.410 1_556 S
C138 Nd136 2.836 . S
C138 C139 1.498 . S
C138 O156 1.258 . S
C138 O157 1.239 . S
C139 C138 1.498 . S
C139 C140 1.366 . S
C139 C144 1.407 . S
C140 C139 1.366 . S
C140 C141 1.392 . S
C140 H168 0.930 . S
C141 C140 1.392 . S
C141 C142 1.398 . S
C141 H169 0.929 . S
C142 C141 1.398 . S
C142 C143 1.352 . S
C143 C142 1.352 . S
C143 C144 1.384 . S
C143 H170 0.930 . S
C144 C139 1.407 . S
C144 C143 1.384 . S
C144 H171 0.929 . S
C145 O158 1.241 . S
C145 O159 1.273 . S
C146 O160 1.251 . S
C146 O161 1.268 . S
C147 Nd137 2.836 . S
C147 C148 1.498 . S
C147 O162 1.258 . S
C147 O163 1.239 . S
C148 C147 1.498 . S
C148 C149 1.366 . S
C148 C153 1.407 . S
C149 C148 1.366 . S
C149 C150 1.392 . S
C149 H172 0.930 . S
C150 C149 1.392 . S
C150 C151 1.398 . S
C150 H173 0.929 . S
C151 C150 1.398 . S
C151 C152 1.352 . S
C152 C151 1.352 . S
C152 C153 1.384 . S
C152 H174 0.930 . S
C153 C148 1.407 . S
C153 C152 1.384 . S
C153 H175 0.929 . S
C154 O164 1.241 1_565 S
C154 O165 1.273 1_556 S
C155 O166 1.251 . S
C155 O167 1.268 . S
O156 Nd136 2.500 . S
O156 C138 1.258 . S
O157 Nd136 2.492 . S
O157 C138 1.239 . S
O158 Nd136 2.487 1_545 S
O158 C145 1.241 . S
O159 Nd136 2.682 1_545 S
O159 Nd137 2.414 1_554 S
O159 C145 1.273 . S
O160 Nd136 2.410 1_556 S
O160 C146 1.251 . S
O161 Nd137 2.424 1_565 S
O161 C146 1.268 . S
O162 Nd137 2.500 . S
O162 C147 1.258 . S
O163 Nd137 2.492 . S
O163 C147 1.239 . S
O164 Nd137 2.487 . S
O164 C154 1.241 1_545 S
O165 Nd136 2.414 . S
O165 Nd137 2.682 1_564 S
O165 C154 1.273 1_554 S
O166 Nd137 2.410 1_554 S
O166 C155 1.251 . S
O167 Nd136 2.424 1_545 S
O167 C155 1.268 . S
H168 C140 0.930 . S
H169 C141 0.929 . S
H170 C143 0.930 . S
H171 C144 0.929 . S
H172 C149 0.930 . S
H173 C150 0.929 . S
H174 C152 0.930 . S
H175 C153 0.929 . S
Nd176 C178 2.836 . S
Nd176 O196 2.500 . S
Nd176 O197 2.492 . S
Nd176 O198 2.487 . S
Nd176 O199 2.682 . S
Nd176 O200 2.410 . S
Nd176 O205 2.414 . S
Nd176 O207 2.424 . S
Nd177 C187 2.836 . S
Nd177 O199 2.414 . S
Nd177 O201 2.424 . S
Nd177 O202 2.500 . S
Nd177 O203 2.492 . S
Nd177 O204 2.487 . S
Nd177 O205 2.682 . S
Nd177 O206 2.410 . S
C178 Nd176 2.836 . S
C178 C179 1.498 . S
C178 O196 1.258 . S
C178 O197 1.239 . S
C179 C178 1.498 . S
C179 C180 1.366 . S
C179 C184 1.407 . S
C180 C179 1.366 . S
C180 C181 1.392 . S
C180 H208 0.930 . S
C181 C180 1.392 . S
C181 C182 1.398 . S
C181 H209 0.929 . S
C182 C181 1.398 . S
C182 C183 1.352 . S
C183 C182 1.352 . S
C183 C184 1.384 . S
C183 H210 0.930 . S
C184 C179 1.407 . S
C184 C183 1.384 . S
C184 H211 0.929 . S
C185 O198 1.241 . S
C185 O199 1.273 . S
C186 O200 1.251 . S
C186 O201 1.268 . S
C187 Nd177 2.836 . S
C187 C188 1.498 . S
C187 O202 1.258 . S
C187 O203 1.239 . S
C188 C187 1.498 . S
C188 C189 1.366 . S
C188 C193 1.407 . S
C189 C188 1.366 . S
C189 C190 1.392 . S
C189 H212 0.930 . S
C190 C189 1.392 . S
C190 C191 1.398 . S
C190 H213 0.929 . S
C191 C190 1.398 . S
C191 C192 1.352 . S
C192 C191 1.352 . S
C192 C193 1.384 . S
C192 H214 0.930 . S
C193 C188 1.407 . S
C193 C192 1.384 . S
C193 H215 0.929 . S
C194 O204 1.241 . S
C194 O205 1.273 . S
C195 O206 1.251 . S
C195 O207 1.268 . S
O196 Nd176 2.500 . S
O196 C178 1.258 . S
O197 Nd176 2.492 . S
O197 C178 1.239 . S
O198 Nd176 2.487 . S
O198 C185 1.241 . S
O199 Nd176 2.682 . S
O199 Nd177 2.414 . S
O199 C185 1.273 . S
O200 Nd176 2.410 . S
O200 C186 1.251 . S
O201 Nd177 2.424 . S
O201 C186 1.268 . S
O202 Nd177 2.500 . S
O202 C187 1.258 . S
O203 Nd177 2.492 . S
O203 C187 1.239 . S
O204 Nd177 2.487 . S
O204 C194 1.241 . S
O205 Nd176 2.414 . S
O205 Nd177 2.682 . S
O205 C194 1.273 . S
O206 Nd177 2.410 . S
O206 C195 1.251 . S
O207 Nd176 2.424 . S
O207 C195 1.268 . S
H208 C180 0.930 . S
H209 C181 0.929 . S
H210 C183 0.930 . S
H211 C184 0.929 . S
H212 C189 0.930 . S
H213 C190 0.929 . S
H214 C192 0.930 . S
H215 C193 0.929 . S
Nd216 C218 2.836 1_455 S
Nd216 O236 2.500 1_455 S
Nd216 O237 2.492 . S
Nd216 O238 2.487 . S
Nd216 O239 2.682 . S
Nd216 O240 2.410 . S
Nd216 O245 2.414 1_454 S
Nd216 O247 2.424 . S
Nd217 C227 2.836 . S
Nd217 O239 2.414 1_556 S
Nd217 O241 2.424 . S
Nd217 O242 2.500 . S
Nd217 O243 2.492 . S
Nd217 O244 2.487 1_455 S
Nd217 O245 2.682 1_455 S
Nd217 O246 2.410 . S
C218 Nd216 2.836 1_655 S
C218 C219 1.498 . S
C218 O236 1.258 . S
C218 O237 1.239 1_655 S
C219 C218 1.498 . S
C219 C220 1.366 . S
C219 C224 1.407 . S
C220 C219 1.366 . S
C220 C221 1.392 . S
C220 H248 0.930 . S
C221 C220 1.392 . S
C221 C222 1.398 . S
C221 H249 0.929 . S
C222 C221 1.398 . S
C222 C223 1.352 . S
C223 C222 1.352 . S
C223 C224 1.384 . S
C223 H250 0.930 . S
C224 C219 1.407 . S
C224 C223 1.384 . S
C224 H251 0.929 1_655 S
C225 O238 1.241 . S
C225 O239 1.273 . S
C226 O240 1.251 1_556 S
C226 O241 1.268 . S
C227 Nd217 2.836 . S
C227 C228 1.498 . S
C227 O242 1.258 . S
C227 O243 1.239 . S
C228 C227 1.498 . S
C228 C229 1.366 . S
C228 C233 1.407 . S
C229 C228 1.366 . S
C229 C230 1.392 . S
C229 H252 0.930 . S
C230 C229 1.392 . S
C230 C231 1.398 . S
C230 H253 0.929 . S
C231 C230 1.398 . S
C231 C232 1.352 . S
C232 C231 1.352 . S
C232 C233 1.384 . S
C232 H254 0.930 . S
C233 C228 1.407 . S
C233 C232 1.384 . S
C233 H255 0.929 . S
C234 O244 1.241 . S
C234 O245 1.273 . S
C235 O246 1.251 1_554 S
C235 O247 1.268 . S
O236 Nd216 2.500 1_655 S
O236 C218 1.258 . S
O237 Nd216 2.492 . S
O237 C218 1.239 1_455 S
O238 Nd216 2.487 . S
O238 C225 1.241 . S
O239 Nd216 2.682 . S
O239 Nd217 2.414 1_554 S
O239 C225 1.273 . S
O240 Nd216 2.410 . S
O240 C226 1.251 1_554 S
O241 Nd217 2.424 . S
O241 C226 1.268 . S
O242 Nd217 2.500 . S
O242 C227 1.258 . S
O243 Nd217 2.492 . S
O243 C227 1.239 . S
O244 Nd217 2.487 1_655 S
O244 C234 1.241 . S
O245 Nd216 2.414 1_656 S
O245 Nd217 2.682 1_655 S
O245 C234 1.273 . S
O246 Nd217 2.410 . S
O246 C235 1.251 1_556 S
O247 Nd216 2.424 . S
O247 C235 1.268 . S
H248 C220 0.930 . S
H249 C221 0.929 . S
H250 C223 0.930 . S
H251 C224 0.929 1_455 S
H252 C229 0.930 . S
H253 C230 0.929 . S
H254 C232 0.930 . S
H255 C233 0.929 . S
C6 C115 4.657 . S
C18 C146 3.490 . S
C185 C28 1.984 . S
C40 C222 1.532 . S
C145 C9 4.503 . S
C102 C16 1.828 . S
C234 C30 2.204 . S
C191 C42 2.676 . S
C4 C235 3.474 . S
C151 C33 1.895 . S
C45 C114 2.427 1_545 S
C21 C186 3.282 . S
C106 C57 4.746 . S
C66 C155 3.388 . S
C76 C194 2.016 . S
C88 C231 1.522 . S
C54 C154 4.382 . S
C111 C64 1.618 . S
C225 C78 2.047 . S
C182 C93 2.823 . S
C52 C226 3.385 1_655 S
C142 C81 1.836 . S
C105 C90 2.121 1_545 S
C69 C195 3.343 . S
