# Generated by pormake.
# Topology anh, (6,3)-cn, num edge types: 1
# Building blocks:
#     Node 0, Type 0, BuildingBlock: BETGAK_clean_sbu_0, # of connection points: 6
#     Node 1, Type 0, BuildingBlock: BETGAK_clean_sbu_0, # of connection points: 6
#     Node 2, Type 0, BuildingBlock: BETGAK_clean_sbu_0, # of connection points: 6
#     Node 3, Type 1, BuildingBlock: KAKCAD_clean_linker_0, # of connection points: 3
#     Node 4, Type 1, BuildingBlock: KAKCAD_clean_linker_0, # of connection points: 3
#     Node 5, Type 1, BuildingBlock: KAKCAD_clean_linker_0, # of connection points: 3
#     Node 6, Type 1, BuildingBlock: KAKCAD_clean_linker_0, # of connection points: 3
#     Node 7, Type 1, BuildingBlock: KAKCAD_clean_linker_0, # of connection points: 3
#     Node 8, Type 1, BuildingBlock: KAKCAD_clean_linker_0, # of connection points: 3
#     Edge 9, Type (0, 1), BuildingBlock: CIFDUS_clean_linker_0, # of connection points: 2
#     Edge 10, Type (0, 1), BuildingBlock: CIFDUS_clean_linker_0, # of connection points: 2
#     Edge 11, Type (0, 1), BuildingBlock: CIFDUS_clean_linker_0, # of connection points: 2
#     Edge 12, Type (0, 1), BuildingBlock: CIFDUS_clean_linker_0, # of connection points: 2
#     Edge 13, Type (0, 1), BuildingBlock: CIFDUS_clean_linker_0, # of connection points: 2
#     Edge 14, Type (0, 1), BuildingBlock: CIFDUS_clean_linker_0, # of connection points: 2
#     Edge 15, Type (0, 1), BuildingBlock: CIFDUS_clean_linker_0, # of connection points: 2
#     Edge 16, Type (0, 1), BuildingBlock: CIFDUS_clean_linker_0, # of connection points: 2
#     Edge 17, Type (0, 1), BuildingBlock: CIFDUS_clean_linker_0, # of connection points: 2
#     Edge 18, Type (0, 1), BuildingBlock: CIFDUS_clean_linker_0, # of connection points: 2
#     Edge 19, Type (0, 1), BuildingBlock: CIFDUS_clean_linker_0, # of connection points: 2
#     Edge 20, Type (0, 1), BuildingBlock: CIFDUS_clean_linker_0, # of connection points: 2
#     Edge 21, Type (0, 1), BuildingBlock: CIFDUS_clean_linker_0, # of connection points: 2
#     Edge 22, Type (0, 1), BuildingBlock: CIFDUS_clean_linker_0, # of connection points: 2
#     Edge 23, Type (0, 1), BuildingBlock: CIFDUS_clean_linker_0, # of connection points: 2
#     Edge 24, Type (0, 1), BuildingBlock: CIFDUS_clean_linker_0, # of connection points: 2
#     Edge 25, Type (0, 1), BuildingBlock: CIFDUS_clean_linker_0, # of connection points: 2
#     Edge 26, Type (0, 1), BuildingBlock: CIFDUS_clean_linker_0, # of connection points: 2
# Relax obj value: 0.195
# Max RMSD: 0.213
# Mean RMSD: 0.159
data_MOF--net-anh--node1-BETGAK_clean_sbu_0--node2-KAKCAD_clean_linker_0--edge1-CIFDUS_clean_linker_0
_symmetry_space_group_name_H-M    P1
_symmetry_Int_Tables_number       1
_symmetry_cell_setting            triclinic
loop_
_symmetry_equiv_pos_as_xyz
'x, y, z'
_cell_length_a     32.4601
_cell_length_b     39.577994
_cell_length_c     60.1552
_cell_angle_alpha  92.390312
_cell_angle_beta   89.462541
_cell_angle_gamma 129.13331
loop_
_atom_site_label
_atom_site_type_symbol
_atom_site_fract_x
_atom_site_fract_y
_atom_site_fract_z
_atom_type_partial_charge
La0 La 0.20067 0.58416 0.15326 0.0
La1 La 0.12543 0.60197 0.16276 0.0
C2 C 0.26905 0.57985 0.13706 0.0
C3 C 0.27725 0.54749 0.13517 0.0
C4 C 0.23912 0.50514 0.14253 0.0
C5 C 0.24867 0.47523 0.14113 0.0
C6 C 0.29662 0.48749 0.13251 0.0
C7 C 0.33432 0.52994 0.12503 0.0
C8 C 0.32469 0.55965 0.12638 0.0
C9 C 0.17873 0.58325 0.19527 0.0
C10 C 0.24224 0.68253 0.1584 0.0
C11 C 1.0508 0.59745 0.17913 0.0
C12 C 0.99284 0.56129 0.17766 0.0
C13 C 0.96475 0.55025 0.15744 0.0
C14 C 0.91214 0.51233 0.1551 0.0
C15 C 0.88629 0.48457 0.17288 0.0
C16 C 0.91334 0.49652 0.19343 0.0
C17 C 0.96623 0.53458 0.1958 0.0
C18 C 0.14367 0.59832 0.12019 0.0
C19 C 1.08266 0.50266 0.15895 0.0
O20 O 0.22894 0.57094 0.12554 0.0
O21 O 0.27226 0.595 0.15727 0.0
O22 O 0.18712 0.55791 0.18609 0.0
O23 O 0.18623 0.60964 0.18148 0.0
O24 O 0.24839 0.65513 0.14884 0.0
O25 O 0.19777 0.66799 0.16841 0.0
O26 O 1.07398 0.61683 0.16064 0.0
O27 O 1.07824 0.58966 0.1903 0.0
O28 O 0.13478 0.62379 0.12866 0.0
O29 O 0.13829 0.57459 0.13506 0.0
O30 O 1.07402 0.53057 0.16414 0.0
O31 O 0.12961 0.51598 0.15232 0.0
H32 H 0.2023 0.4954 0.14947 0.0
H33 H 0.21903 0.44282 0.14709 0.0
H34 H 0.37117 0.54011 0.11791 0.0
H35 H 0.35443 0.59223 0.12062 0.0
H36 H 0.98375 0.57011 0.14314 0.0
H37 H 0.89181 0.50441 0.1392 0.0
H38 H 0.89425 0.4757 0.20741 0.0
H39 H 0.98691 0.54231 0.21158 0.0
La40 La 0.68918 0.07061 0.48229 0.0
La41 La 0.60786 0.08797 0.47427 0.0
C42 C 0.73589 0.04198 0.49417 0.0
C43 C 0.72239 1.00022 0.50012 0.0
C44 C 0.75366 0.98965 0.49178 0.0
C45 C 0.7413 0.94981 0.49619 0.0
C46 C 0.6974 0.91957 0.50916 0.0
C47 C 0.66631 0.93036 0.51777 0.0
C48 C 0.67849 0.97027 0.51318 0.0
C49 C 0.68318 0.09126 0.4422 0.0
C50 C 0.56372 0.99098 0.4753 0.0
C51 C 0.56131 0.11298 0.45738 0.0
C52 C 0.56083 0.14966 0.46328 0.0
C53 C 0.52493 0.14467 0.47885 0.0
C54 C 0.52671 0.17994 0.48544 0.0
C55 C 0.56424 0.22114 0.47654 0.0
C56 C 0.59923 0.22581 0.46053 0.0
C57 C 0.59746 0.19053 0.45395 0.0
C58 C 0.62518 0.08698 0.51729 0.0
C59 C 0.7318 0.16687 0.48501 0.0
O60 O 0.72628 0.044 0.47337 0.0
O61 O 0.7233 0.06055 0.50806 0.0
O62 O 0.72652 0.10268 0.4514 0.0
O63 O 0.64458 0.0672 0.45482 0.0
O64 O 0.61131 1.00545 0.4823 0.0
O65 O 0.55425 0.0173 0.46899 0.0
O66 O 0.53866 0.08133 0.47135 0.0
O67 O 0.60628 0.12371 0.44999 0.0
O68 O 0.59484 0.09498 0.50996 0.0
O69 O 0.643 0.08092 0.50055 0.0
O70 O 0.68573 0.15289 0.47626 0.0
O71 O 0.74071 0.14016 0.49131 0.0
H72 H 0.78764 1.01222 0.48166 0.0
H73 H 0.76648 0.94283 0.48956 0.0
H74 H 0.632 0.90762 0.52769 0.0
H75 H 0.6534 0.97747 0.51963 0.0
H76 H 0.49594 0.11367 0.48631 0.0
H77 H 0.49947 0.17512 0.49796 0.0
H78 H 0.62804 0.25679 0.45302 0.0
H79 H 0.62534 0.19549 0.44173 0.0
La80 La 0.62672 0.55474 0.85053 0.0
La81 La 0.55806 0.45878 0.84229 0.0
C82 C 0.67499 0.63548 0.85045 0.0
C83 C 0.66534 0.66528 0.84385 0.0
C84 C 0.69381 0.70639 0.85478 0.0
C85 C 0.68896 0.73688 0.84768 0.0
C86 C 0.65577 0.72688 0.82936 0.0
C87 C 0.62576 0.68493 0.81892 0.0
C88 C 0.63039 0.6543 0.82616 0.0
C89 C 0.60083 0.50824 0.8858 0.0
C90 C 0.50082 0.49914 0.84694 0.0
C91 C 0.51372 0.37906 0.84476 0.0
C92 C 0.52776 0.35211 0.83662 0.0
C93 C 0.57242 0.37003 0.82338 0.0
C94 C 0.58475 0.34404 0.81496 0.0
C95 C 0.5525 0.29957 0.81956 0.0
C96 C 0.50826 0.28196 0.83319 0.0
C97 C 0.496 0.30808 0.84164 0.0
C98 C 0.58118 0.50188 0.8058 0.0
C99 C 0.68597 0.51584 0.84605 0.0
O100 O 0.64857 0.61171 0.86744 0.0
O101 O 0.67692 0.61333 0.83431 0.0
O102 O 0.64759 0.54512 0.88319 0.0
O103 O 0.57148 0.49979 0.86957 0.0
O104 O 0.548 0.53688 0.84298 0.0
O105 O 0.49687 0.46446 0.85093 0.0
O106 O 0.50253 0.39459 0.8293 0.0
O107 O 0.54518 0.40869 0.86036 0.0
O108 O 0.5379 0.46279 0.80872 0.0
O109 O 0.61221 0.51374 0.82221 0.0
O110 O 0.63819 0.4767 0.84531 0.0
O111 O 0.69111 0.55179 0.84638 0.0
H112 H 0.72066 0.71525 0.86857 0.0
H113 H 0.71175 0.76851 0.85639 0.0
H114 H 0.6001 0.67623 0.80468 0.0
H115 H 0.60776 0.62252 0.81759 0.0
H116 H 0.59741 0.40402 0.81934 0.0
H117 H 0.61951 0.35874 0.8048 0.0
H118 H 0.48234 0.24775 0.83685 0.0
H119 H 0.46134 0.29379 0.85183 0.0
C120 C 0.65304 0.11904 0.30138 0.0
C121 C 0.63984 0.08238 0.31181 0.0
C122 C 0.65771 0.12148 0.27825 0.0
C123 C 0.65035 0.08768 0.26508 0.0
C124 C 0.63752 0.05116 0.27572 0.0
C125 C 0.63183 0.04838 0.29878 0.0
C126 C 0.65563 0.09031 0.24038 0.0
C127 C 0.69292 0.1305 0.23061 0.0
C128 C 0.6971 0.13359 0.20732 0.0
C129 C 0.66409 0.09517 0.19363 0.0
C130 C 0.62745 0.05453 0.20322 0.0
C131 C 0.62317 0.05259 0.22644 0.0
C132 C 0.59238 1.0132 0.18959 0.0
C133 C 0.55183 1.00492 0.17591 0.0
C134 C 0.59427 0.97931 0.19298 0.0
C135 C 0.55511 0.93741 0.18369 0.0
C136 C 0.51265 0.92826 0.17103 0.0
C137 C 0.73617 0.17736 0.19783 0.0
C138 C 0.74258 0.21352 0.20736 0.0
C139 C 0.76937 0.18414 0.18033 0.0
C140 C 0.80917 0.22635 0.17307 0.0
C141 C 0.8164 0.26266 0.18307 0.0
C142 C 0.78215 0.25545 0.20018 0.0
C143 C 0.51209 0.96272 0.16681 0.0
H144 H 0.6592 0.1456 0.31111 0.0
H145 H 0.66654 0.14972 0.27072 0.0
H146 H 0.63267 0.02488 0.26632 0.0
H147 H 0.62242 0.02007 0.30651 0.0
H148 H 0.71965 0.1596 0.2412 0.0
H149 H 0.59337 0.02135 0.23356 0.0
H150 H 0.66671 0.0968 0.17568 0.0
H151 H 0.54924 0.03045 0.17328 0.0
H152 H 0.62491 0.98487 0.20366 0.0
H153 H 0.55652 0.91164 0.18747 0.0
H154 H 0.71732 0.20952 0.22068 0.0
H155 H 0.76566 0.15704 0.17269 0.0
H156 H 0.48009 0.95676 0.157 0.0
H157 H 0.78669 0.28242 0.20855 0.0
H158 H 0.83436 0.23053 0.15968 0.0
C159 C 0.60551 0.55992 0.66731 0.0
C160 C 0.62978 0.54407 0.67632 0.0
C161 C 0.60826 0.56673 0.6445 0.0
C162 C 0.63611 0.5585 0.6303 0.0
C163 C 0.66244 0.54457 0.63971 0.0
C164 C 0.65877 0.53696 0.66239 0.0
C165 C 0.63611 0.56277 0.60571 0.0
C166 C 0.63622 0.59515 0.5969 0.0
C167 C 0.63509 0.59872 0.57377 0.0
C168 C 0.63493 0.56973 0.55923 0.0
C169 C 0.63535 0.53731 0.56774 0.0
C170 C 0.63522 0.53388 0.59091 0.0
C171 C 0.63593 0.50654 0.55289 0.0
C172 C 0.59961 0.48321 0.53492 0.0
C173 C 0.67084 0.49804 0.55772 0.0
C174 C 0.66856 0.4662 0.54537 0.0
C175 C 0.63117 0.44176 0.52785 0.0
C176 C 0.63491 0.63345 0.56524 0.0
C177 C 0.60158 0.64111 0.57473 0.0
C178 C 0.67021 0.66099 0.54876 0.0
C179 C 0.67375 0.69658 0.54268 0.0
C180 C 0.64179 0.70525 0.55284 0.0
C181 C 0.60483 0.67638 0.56858 0.0
C182 C 0.59701 0.45094 0.52261 0.0
H183 H 0.58243 0.56515 0.67773 0.0
H184 H 0.58687 0.57691 0.63794 0.0
H185 H 0.68551 0.53901 0.62953 0.0
H186 H 0.67805 0.52494 0.66904 0.0
H187 H 0.63838 0.61844 0.60808 0.0
H188 H 0.63322 0.50774 0.59738 0.0
H189 H 0.63459 0.57244 0.54139 0.0
H190 H 0.57201 0.48887 0.53088 0.0
H191 H 0.69952 0.51565 0.57137 0.0
H192 H 0.69512 0.45979 0.55005 0.0
H193 H 0.57331 0.62002 0.5872 0.0
H194 H 0.69667 0.65612 0.54125 0.0
H195 H 0.56807 0.43299 0.50909 0.0
H196 H 0.57862 0.68126 0.57636 0.0
H197 H 0.70298 0.71823 0.53063 0.0
C198 C 0.18032 0.60251 0.9729 0.0
C199 C 0.1386 0.57556 0.98749 0.0
C200 C 0.174 0.59106 0.95012 0.0
C201 C 0.12546 0.55303 0.94151 0.0
C202 C 1.0837 0.52622 0.95608 0.0
C203 C 1.09041 0.53713 0.97891 0.0
C204 C 0.11789 0.54173 0.91729 0.0
C205 C 0.15119 0.53608 0.90602 0.0
C206 C 0.1441 0.52464 0.88309 0.0
C207 C 0.10296 0.52021 0.87121 0.0
C208 C 1.06932 0.52659 0.88249 0.0
C209 C 1.07716 0.53661 0.90555 0.0
C210 C 1.02544 0.52338 0.87138 0.0
C211 C 1.02123 0.55631 0.87592 0.0
C212 C 0.98311 0.48521 0.85961 0.0
C213 C 0.93683 0.47935 0.85368 0.0
C214 C 0.9315 0.51152 0.85931 0.0
C215 C 0.18096 0.51786 0.87268 0.0
C216 C 0.21384 0.54252 0.85495 0.0
C217 C 0.18961 0.49145 0.88305 0.0
C218 C 0.23119 0.49121 0.87671 0.0
C219 C 0.26604 0.51748 0.85974 0.0
C220 C 0.25584 0.54243 0.84861 0.0
C221 C 0.97528 0.55052 0.87008 0.0
H222 H 0.21789 0.63223 0.97916 0.0
H223 H 0.20665 0.6123 0.93916 0.0
H224 H 1.04596 0.4967 0.9498 0.0
H225 H 1.05759 0.51596 0.98982 0.0
H226 H 0.18276 0.54032 0.91531 0.0
H227 H 1.05146 0.54086 0.91453 0.0
H228 H 0.09723 0.51196 0.85351 0.0
H229 H 1.05286 0.58614 0.88502 0.0
H230 H 0.98459 0.45896 0.856 0.0
H231 H 0.90476 0.4491 0.84505 0.0
H232 H 0.20884 0.56359 0.84673 0.0
H233 H 0.1653 0.47214 0.89683 0.0
H234 H 0.97337 0.57608 0.87508 0.0
H235 H 0.28098 0.56266 0.83523 0.0
H236 H 0.23743 0.47184 0.88596 0.0
C237 C 1.08781 0.53162 0.33739 0.0
C238 C 0.13508 0.55794 0.3256 0.0
C239 C 1.08892 0.53468 0.36066 0.0
C240 C 0.13751 0.56342 0.37262 0.0
C241 C 0.18481 0.58929 0.36058 0.0
C242 C 0.18349 0.58693 0.33735 0.0
C243 C 0.13911 0.56655 0.39747 0.0
C244 C 0.10262 0.52975 0.40983 0.0
C245 C 0.10389 0.53251 0.43326 0.0
C246 C 0.14339 0.5728 0.44449 0.0
C247 C 0.18069 0.60985 0.43233 0.0
C248 C 0.17761 0.60646 0.40898 0.0
C249 C 0.22349 0.6528 0.44336 0.0
C250 C 0.2116 0.67385 0.45815 0.0
C251 C 0.27627 0.67532 0.43683 0.0
C252 C 0.316 0.71863 0.44406 0.0
C253 C 0.30389 0.74068 0.45791 0.0
C254 C 1.06373 0.4926 0.44548 0.0
C255 C 1.01004 0.46573 0.43865 0.0
C256 C 1.07883 0.47906 0.46262 0.0
C257 C 1.04129 0.43851 0.47198 0.0
C258 C 0.98783 0.41098 0.46457 0.0
C259 C 0.97264 0.42554 0.44805 0.0
C260 C 0.25142 0.71753 0.46526 0.0
H261 H 1.05002 0.50908 0.32856 0.0
H262 H 1.05157 0.51479 0.36922 0.0
H263 H 0.22314 0.611 0.36904 0.0
H264 H 0.22048 0.60708 0.32852 0.0
H265 H 1.0737 0.49838 0.40125 0.0
H266 H 0.20513 0.63555 0.3998 0.0
H267 H 0.14514 0.57532 0.46252 0.0
H268 H 0.17113 0.65728 0.46328 0.0
H269 H 0.28644 0.6598 0.4254 0.0
H270 H 0.35575 0.73547 0.43789 0.0
H271 H 0.99713 0.4754 0.42558 0.0
H272 H 0.11998 0.499 0.46814 0.0
H273 H 0.24093 0.73349 0.47609 0.0
H274 H 0.93208 0.40511 0.44171 0.0
H275 H 1.05423 0.42844 0.4848 0.0
C276 C 0.62374 0.99742 0.64862 0.0
C277 C 0.65677 0.03958 0.64047 0.0
C278 C 0.61773 0.99157 0.67153 0.0
C279 C 0.64485 0.02779 0.68674 0.0
C280 C 0.67987 0.06986 0.67854 0.0
C281 C 0.68564 0.07568 0.65567 0.0
C282 C 0.63475 0.02196 0.71098 0.0
C283 C 0.62917 0.98831 0.72152 0.0
C284 C 0.61881 0.98249 0.74438 0.0
C285 C 0.61397 1.01074 0.75671 0.0
C286 C 0.61935 0.04451 0.74644 0.0
C287 C 0.6296 0.04976 0.72358 0.0
C288 C 0.61349 0.07402 0.75934 0.0
C289 C 0.57206 0.05733 0.77444 0.0
C290 C 0.64838 0.11905 0.75606 0.0
C291 C 0.64124 0.14662 0.76718 0.0
C292 C 0.59896 0.12983 0.78183 0.0
C293 C 0.61389 0.94729 0.7554 0.0
C294 C 0.58415 0.90519 0.74526 0.0
C295 C 0.63973 0.95578 0.77595 0.0
C296 C 0.63677 0.92311 0.78594 0.0
C297 C 0.60768 0.88118 0.77566 0.0
C298 C 0.58093 0.87242 0.75533 0.0
C299 C 0.56485 0.08495 0.78556 0.0
H300 H 0.60062 0.96902 0.63727 0.0
H301 H 0.59015 0.95874 0.67729 0.0
H302 H 0.70227 0.09841 0.68981 0.0
H303 H 0.71199 0.10854 0.64985 0.0
H304 H 0.63416 0.96726 0.71205 0.0
H305 H 0.63201 0.07486 0.71544 0.0
H306 H 0.60599 1.00643 0.77434 0.0
H307 H 0.5442 0.02272 0.77715 0.0
H308 H 0.68125 0.13299 0.74483 0.0
H309 H 0.66883 0.18117 0.76427 0.0
H310 H 0.56339 0.8976 0.72952 0.0
H311 H 0.66324 0.98799 0.78408 0.0
H312 H 0.53156 0.07092 0.79656 0.0
H313 H 0.55855 0.84051 0.74693 0.0
H314 H 0.65739 0.93069 0.80172 0.0
C315 C 0.49497 0.30898 0.97928 0.0
C316 C 0.54641 0.3497 0.98043 0.0
C317 C 0.47272 0.28388 0.99803 0.0
C318 C 0.50185 0.29851 0.01816 0.0
C319 C 0.55479 0.33722 0.01879 0.0
C320 C 0.57678 0.36265 1.00016 0.0
C321 C 0.47502 0.27841 0.03927 0.0
C322 C 0.49935 0.27111 0.05532 0.0
C323 C 0.48194 0.26342 0.07739 0.0
C324 C 0.43886 0.26209 0.08315 0.0
C325 C 0.41472 0.27004 0.06731 0.0
C326 C 0.43148 0.27612 0.04519 0.0
C327 C 0.38215 0.28258 0.07481 0.0
C328 C 0.34243 0.25911 0.09074 0.0
C329 C 0.3955 0.32177 0.06776 0.0
C330 C 0.37131 0.33798 0.07694 0.0
C331 C 0.33307 0.31542 0.09331 0.0
C332 C 0.51667 0.26739 0.09497 0.0
C333 C 0.54003 0.24743 0.09196 0.0
C334 C 0.53383 0.29748 0.113 0.0
C335 C 0.57699 0.3107 0.12634 0.0
C336 C 0.60389 0.29396 0.12204 0.0
C337 C 0.58301 0.26036 0.10549 0.0
C338 C 0.31766 0.27531 0.09983 0.0
H339 H 0.47092 0.29738 0.96417 0.0
H340 H 0.43189 0.25407 0.99713 0.0
H341 H 0.57791 0.3496 0.03421 0.0
H342 H 0.61627 0.39387 0.00179 0.0
H343 H 0.53487 0.27539 0.05105 0.0
H344 H 0.4143 0.28387 0.03309 0.0
H345 H 0.42765 0.25914 0.10042 0.0
H346 H 0.33159 0.22894 0.09653 0.0
H347 H 0.42675 0.34126 0.05595 0.0
H348 H 0.38369 0.36901 0.07171 0.0
H349 H 0.52712 0.22377 0.07831 0.0
H350 H 0.51716 0.3139 0.11562 0.0
H351 H 0.28823 0.25756 0.11252 0.0
H352 H 0.60196 0.24601 0.10206 0.0
H353 H 0.59199 0.33696 0.13868 0.0
H354 H 0.22932 0.40178 0.11822 0.0
H355 H 0.38896 0.50358 0.14323 0.0
H356 H 0.41227 0.4566 0.13562 0.0
H357 H 0.39038 0.39008 0.11799 0.0
H358 H 0.23187 0.28796 0.09256 0.0
H359 H 0.2043 0.331 0.10471 0.0
C360 C 0.26883 0.41328 0.12243 0.0
C361 C 0.30767 0.4564 0.13086 0.0
C362 C 0.2821 0.3861 0.11789 0.0
C363 C 0.35875 0.4709 0.13622 0.0
C364 C 0.37206 0.44402 0.13197 0.0
C365 C 0.34954 0.37702 0.11557 0.0
C366 C 0.31312 0.33633 0.10438 0.0
C367 C 0.33456 0.40214 0.1222 0.0
C368 C 0.2603 0.31929 0.10126 0.0
C369 C 0.24479 0.34402 0.10803 0.0
H370 H 0.83919 0.2109 0.48545 0.0
H371 H 0.7225 0.23044 0.4863 0.0
H372 H 0.7921 0.30831 0.48226 0.0
H373 H 0.88477 0.36992 0.47511 0.0
H374 H 1.00176 0.35091 0.47231 0.0
H375 H 0.93395 0.27443 0.48101 0.0
C376 C 0.82918 0.23235 0.48518 0.0
C377 C 0.77559 0.2147 0.48603 0.0
C378 C 0.86953 0.27733 0.48238 0.0
C379 C 0.76331 0.24299 0.48549 0.0
C380 C 0.80312 0.28762 0.48316 0.0
C381 C 0.89554 0.34911 0.47648 0.0
C382 C 0.94827 0.36617 0.47282 0.0
C383 C 0.85614 0.30497 0.48098 0.0
C384 C 0.96163 0.33886 0.47516 0.0
C385 C 0.92271 0.29494 0.47996 0.0
H386 H 0.56994 0.71726 0.81367 0.0
H387 H 0.73954 0.813 0.82498 0.0
H388 H 0.73903 0.86908 0.81021 0.0
H389 H 0.69131 0.89073 0.79303 0.0
H390 H 0.52237 0.79532 0.78053 0.0
H391 H 0.52195 0.73911 0.79634 0.0
C392 C 0.60683 0.75032 0.81277 0.0
C393 C 0.65462 0.76084 0.82058 0.0
C394 C 0.60648 0.78244 0.80391 0.0
C395 C 0.70197 0.80405 0.81951 0.0
C396 C 0.70185 0.83614 0.81089 0.0
C397 C 0.65429 0.85774 0.794 0.0
C398 C 0.60694 0.84722 0.78571 0.0
C399 C 0.65441 0.82569 0.803 0.0
C400 C 0.55943 0.80413 0.78667 0.0
C401 C 0.55914 0.77206 0.79578 0.0
H402 H 0.84918 0.42552 0.13849 0.0
H403 H 0.80106 0.45025 0.19995 0.0
H404 H 0.70843 0.38663 0.19154 0.0
H405 H 0.64059 0.33074 0.1642 0.0
H406 H 0.69028 0.31105 0.10145 0.0
H407 H 0.78262 0.36446 0.11335 0.0
C408 C 0.81837 0.41682 0.15008 0.0
C409 C 0.83155 0.44303 0.16951 0.0
C410 C 0.76547 0.38083 0.14498 0.0
C411 C 0.79171 0.43069 0.18478 0.0
C412 C 0.7388 0.39444 0.17995 0.0
C413 C 0.67158 0.33777 0.15321 0.0
C414 C 0.65812 0.31729 0.13178 0.0
C415 C 0.72505 0.37024 0.1597 0.0
C416 C 0.69892 0.32587 0.11808 0.0
C417 C 0.75204 0.35703 0.12472 0.0
H418 H 0.45749 0.94681 0.46766 0.0
H419 H 0.57141 0.92687 0.48037 0.0
H420 H 0.50104 0.84825 0.47743 0.0
H421 H 0.40764 0.78475 0.46997 0.0
H422 H 0.29329 0.80394 0.45719 0.0
H423 H 0.36296 0.88288 0.4619 0.0
C424 C 0.46697 0.9253 0.4698 0.0
C425 C 0.51996 0.94303 0.47403 0.0
C426 C 0.42608 0.87979 0.46822 0.0
C427 C 0.53119 0.91444 0.47701 0.0
C428 C 0.49089 0.8693 0.47534 0.0
C429 C 0.39793 0.80621 0.46826 0.0
C430 C 0.34528 0.78835 0.46316 0.0
C431 C 0.43829 0.8516 0.47076 0.0
C432 C 0.33331 0.81667 0.46135 0.0
C433 C 0.37327 0.8619 0.46384 0.0
H434 H 0.54848 0.23681 0.83942 0.0
H435 H 0.58209 0.29907 0.77706 0.0
H436 H 0.60049 0.25286 0.76018 0.0
H437 H 0.60485 0.19366 0.76275 0.0
H438 H 0.57115 0.13081 0.82488 0.0
H439 H 0.55374 0.17767 0.84207 0.0
C440 C 0.55951 0.24005 0.8221 0.0
C441 C 0.56405 0.27147 0.80956 0.0
C442 C 0.56969 0.21311 0.81241 0.0
C443 C 0.57906 0.27563 0.7872 0.0
C444 C 0.58926 0.24902 0.77748 0.0
C445 C 0.59436 0.19055 0.78013 0.0
C446 C 0.58946 0.15884 0.79251 0.0
C447 C 0.58463 0.21765 0.78991 0.0
C448 C 0.57472 0.15467 0.81491 0.0
C449 C 0.565 0.18159 0.82478 0.0
H450 H 0.67101 0.87922 0.54859 0.0
H451 H 0.69531 0.86444 0.47941 0.0
H452 H 0.67948 0.79682 0.48657 0.0
H453 H 0.66032 0.74238 0.51262 0.0
H454 H 0.63881 0.75855 0.58207 0.0
H455 H 0.65081 0.82426 0.57456 0.0
C456 C 0.67224 0.86092 0.53505 0.0
C457 C 0.68457 0.87704 0.51352 0.0
C458 C 0.66349 0.82213 0.53931 0.0
C459 C 0.68658 0.85311 0.4962 0.0
C460 C 0.67736 0.81433 0.50027 0.0
C461 C 0.65857 0.76037 0.52616 0.0
C462 C 0.6484 0.74513 0.54788 0.0
C463 C 0.6663 0.79871 0.5218 0.0
C464 C 0.6456 0.76881 0.5651 0.0
C465 C 0.65287 0.80672 0.56087 0.0
H466 H 0.69694 0.45235 0.85138 0.0
H467 H 0.78824 0.59 0.84178 0.0
H468 H 0.87025 0.60018 0.84385 0.0
H469 H 0.9175 0.57129 0.84919 0.0
H470 H 0.82806 0.43449 0.86046 0.0
H471 H 0.74517 0.42299 0.85636 0.0
C472 C 0.73473 0.48455 0.84963 0.0
C473 C 0.73566 0.52031 0.84648 0.0
C474 C 0.78271 0.49053 0.85103 0.0
C475 C 0.78552 0.56172 0.84431 0.0
C476 C 0.83285 0.56769 0.84548 0.0
C477 C 0.88009 0.53888 0.85095 0.0
C478 C 0.88009 0.50397 0.85524 0.0
C479 C 0.83212 0.5325 0.84903 0.0
C480 C 0.8303 0.46217 0.85686 0.0
C481 C 0.78246 0.45554 0.85472 0.0
H482 H 0.34622 0.72537 0.1476 0.0
H483 H 0.2385 0.7475 0.171 0.0
H484 H 0.31173 0.82554 0.17512 0.0
H485 H 0.40723 0.88716 0.17467 0.0
H486 H 0.51595 0.86561 0.15239 0.0
H487 H 0.44171 0.78805 0.14521 0.0
C488 C 0.33866 0.7473 0.15338 0.0
C489 C 0.28678 0.73033 0.1591 0.0
C490 C 0.38129 0.79239 0.15604 0.0
C491 C 0.27793 0.75939 0.16662 0.0
C492 C 0.31987 0.80417 0.16898 0.0
C493 C 0.41462 0.86568 0.16782 0.0
C494 C 0.46714 0.88226 0.16408 0.0
C495 C 0.37182 0.82099 0.16408 0.0
C496 C 0.47597 0.85369 0.15557 0.0
C497 C 0.43351 0.80931 0.15146 0.0
H498 H 0.65352 0.30552 0.48487 0.0
H499 H 0.48241 0.22251 0.48605 0.0
H500 H 0.48782 0.28355 0.50101 0.0
H501 H 0.54124 0.35992 0.51532 0.0
H502 H 0.71224 0.44295 0.51346 0.0
H503 H 0.70663 0.38273 0.49696 0.0
C504 C 0.61732 0.30084 0.48803 0.0
C505 C 0.56762 0.2592 0.4844 0.0
C506 C 0.62067 0.33617 0.4966 0.0
C507 C 0.52126 0.25387 0.489 0.0
C508 C 0.52429 0.28889 0.49745 0.0
C509 C 0.57726 0.36506 0.51097 0.0
C510 C 0.62711 0.40597 0.51579 0.0
C511 C 0.57379 0.33011 0.50154 0.0
C512 C 0.67335 0.41173 0.51026 0.0
C513 C 0.6702 0.3773 0.50075 0.0
H514 H 0.49124 0.56347 0.84235 0.0
H515 H 0.39927 0.42693 0.85508 0.0
H516 H 0.31972 0.42022 0.85922 0.0
H517 H 0.2754 0.45272 0.86016 0.0
H518 H 0.36658 0.58944 0.84825 0.0
H519 H 0.44582 0.59586 0.84249 0.0
C520 C 0.45379 0.53216 0.84594 0.0
C521 C 0.45199 0.49581 0.84843 0.0
C522 C 0.40741 0.52834 0.8484 0.0
C523 C 0.40261 0.45564 0.85307 0.0
C524 C 0.35672 0.45168 0.85547 0.0
C525 C 0.31253 0.4841 0.85642 0.0
C526 C 0.31414 0.5205 0.85474 0.0
C527 C 0.35857 0.48781 0.85336 0.0
C528 C 0.36309 0.5605 0.8494 0.0
C529 C 0.40891 0.56436 0.84627 0.0
H530 H 0.97867 0.46387 0.16542 0.0
H531 H 1.08569 0.43474 0.15683 0.0
H532 H 1.01244 0.35757 0.16238 0.0
H533 H 0.91869 0.29898 0.1718 0.0
H534 H 0.81247 0.32927 0.1792 0.0
H535 H 0.88526 0.40539 0.17257 0.0
C536 C 0.98618 0.44074 0.16465 0.0
C537 C 1.03788 0.45532 0.16083 0.0
C538 C 0.94398 0.3965 0.16785 0.0
C539 C 1.04639 0.42457 0.15973 0.0
C540 C 1.00448 0.38038 0.16296 0.0
C541 C 0.91109 0.32198 0.17149 0.0
C542 C 0.85997 0.30813 0.17634 0.0
C543 C 0.95313 0.366 0.16726 0.0
C544 C 0.85139 0.33882 0.17605 0.0
C545 C 0.89291 0.38245 0.17203 0.0
H546 H 0.16388 0.64967 0.08608 0.0
H547 H 0.12424 0.52645 0.1005 0.0
H548 H 0.11926 0.50852 0.06077 0.0
H549 H 0.1235 0.52679 0.02178 0.0
H550 H 0.16791 0.65142 0.00704 0.0
H551 H 0.17396 0.67006 0.0469 0.0
C552 C 0.15437 0.61902 0.08045 0.0
C553 C 0.14402 0.58929 0.09614 0.0
C554 C 0.15234 0.60916 0.05753 0.0
C555 C 0.13231 0.54986 0.08872 0.0
C556 C 0.12932 0.53951 0.06601 0.0
C557 C 0.13458 0.55803 0.02737 0.0
C558 C 0.14488 0.5876 0.01161 0.0
C559 C 0.13878 0.56872 0.05026 0.0
C560 C 0.15992 0.62823 0.01895 0.0
C561 C 0.16321 0.6388 0.0417 0.0
H562 H 0.59924 0.0392 0.41342 0.0
H563 H 0.7594 0.16044 0.41892 0.0
H564 H 0.7583 0.17056 0.37915 0.0
H565 H 0.71453 0.14189 0.3423 0.0
H566 H 0.55771 0.01734 0.33601 0.0
H567 H 0.55448 1.01126 0.37648 0.0
C568 C 0.63345 0.06809 0.40589 0.0
C569 C 0.6793 0.09913 0.41892 0.0
C570 C 0.63326 0.07276 0.38285 0.0
C571 C 0.72377 0.13616 0.40907 0.0
C572 C 0.72319 0.14189 0.38637 0.0
C573 C 0.67944 0.11376 0.34988 0.0
C574 C 0.63639 0.08016 0.33633 0.0
C575 C 0.67861 0.10996 0.37302 0.0
C576 C 0.59137 0.04349 0.34621 0.0
C577 C 0.58952 0.04006 0.3693 0.0
H578 H 0.56404 0.45494 0.76843 0.0
H579 H 0.63694 0.58571 0.79299 0.0
H580 H 0.65891 0.61107 0.75485 0.0
H581 H 0.65387 0.59466 0.7141 0.0
H582 H 0.58519 0.46408 0.69059 0.0
H583 H 0.565 0.43979 0.7287 0.0
C584 C 0.585 0.48905 0.76541 0.0
C585 C 0.59869 0.5185 0.78334 0.0
C586 C 0.59801 0.50323 0.74362 0.0
C587 C 0.62636 0.56265 0.77937 0.0
C588 C 0.6386 0.577 0.75758 0.0
C589 C 0.63472 0.56101 0.71746 0.0
C590 C 0.62076 0.53105 0.69968 0.0
C591 C 0.62411 0.54745 0.73952 0.0
C592 C 0.59639 0.48761 0.70409 0.0
C593 C 0.58473 0.47372 0.72583 0.0
H594 H 0.64784 0.03848 0.53541 0.0
H595 H 0.62428 0.1322 0.55165 0.0
H596 H 0.63555 0.12787 0.59125 0.0
H597 H 0.64708 0.09459 0.6212 0.0
H598 H 0.66665 0.99818 0.60569 0.0
H599 H 0.66226 1.00638 0.56579 0.0
C600 C 0.64652 0.05861 0.54765 0.0
C601 C 0.63616 0.08612 0.54078 0.0
C602 C 0.6518 0.05513 0.57044 0.0
C603 C 0.63247 0.11096 0.5567 0.0
C604 C 0.63884 0.10847 0.57929 0.0
C605 C 0.65131 0.07592 0.60909 0.0
C606 C 0.65755 0.04607 0.61633 0.0
C607 C 0.64787 0.08029 0.58635 0.0
C608 C 0.66167 0.02128 0.60047 0.0
C609 C 0.65925 0.02602 0.57769 0.0
H610 H 0.66251 0.4985 0.91055 0.0
H611 H 0.50143 0.4489 0.90001 0.0
H612 H 0.47033 0.39492 0.9279 0.0
H613 H 0.48867 0.36257 0.95546 0.0
H614 H 0.64821 0.40757 0.96483 0.0
H615 H 0.68024 0.46276 0.93736 0.0
C616 C 0.62078 0.47606 0.91461 0.0
C617 C 0.5843 0.47784 0.90356 0.0
C618 C 0.60288 0.4442 0.9303 0.0
C619 C 0.53016 0.44816 0.90848 0.0
C620 C 0.51234 0.41723 0.92435 0.0
C621 C 0.53029 0.38366 0.95121 0.0
C622 C 0.5658 0.38062 0.96221 0.0
C623 C 0.54827 0.41485 0.93528 0.0
C624 C 0.61992 0.40933 0.95681 0.0
C625 C 0.6383 0.44088 0.94105 0.0
H626 H 0.13677 0.51801 0.22335 0.0
H627 H 0.19843 0.6512 0.22031 0.0
H628 H 0.18909 0.65494 0.26062 0.0
H629 H 0.16785 0.62122 0.29703 0.0
H630 H 0.10124 0.48676 0.29961 0.0
H631 H 0.10763 0.48227 0.25913 0.0
C632 C 0.14787 0.54773 0.23156 0.0
C633 C 0.16894 0.58448 0.21911 0.0
C634 C 0.14156 0.54934 0.25459 0.0
C635 C 0.18235 0.62261 0.2297 0.0
C636 C 0.17714 0.62477 0.25271 0.0
C637 C 0.15441 0.59095 0.28859 0.0
C638 C 0.1345 0.55443 0.30108 0.0
C639 C 0.15753 0.58853 0.26536 0.0
C640 C 0.11662 0.51515 0.29017 0.0
C641 C 0.12046 0.51267 0.26711 0.0
loop_
_geom_bond_atom_site_label_1
_geom_bond_atom_site_label_2
_geom_bond_distance
_geom_bond_site_symmetry_2
_ccdc_geom_bond_type
La0 C2 2.928 . S
La0 O20 2.521 . S
La0 O21 2.628 . S
La0 O22 2.554 . S
La0 O23 2.757 . S
La0 O24 2.470 . S
La0 O29 2.482 . S
La0 O31 2.503 1_455 S
La1 C11 2.928 . S
La1 O23 2.482 1_655 S
La1 O25 2.503 1_655 S
La1 O26 2.521 . S
La1 O27 2.628 . S
La1 O28 2.554 . S
La1 O29 2.757 1_655 S
La1 O30 2.470 . S
C2 La0 2.928 . S
C2 C3 1.503 . S
C2 O20 1.261 . S
C2 O21 1.243 . S
C3 C2 1.503 . S
C3 C4 1.394 . S
C3 C8 1.373 . S
C4 C3 1.394 . S
C4 C5 1.380 . S
C4 H32 0.930 . S
C5 C4 1.380 . S
C5 C6 1.376 . S
C5 H33 0.930 . S
C6 C5 1.376 . S
C6 C7 1.370 . S
C7 C6 1.370 . S
C7 C8 1.396 . S
C7 H34 0.929 . S
C8 C3 1.373 . S
C8 C7 1.396 . S
C8 H35 0.929 . S
C9 O22 1.240 . S
C9 O23 1.289 . S
C10 O24 1.258 . S
C10 O25 1.256 . S
C11 La1 2.928 . S
C11 C12 1.503 . S
C11 O26 1.261 . S
C11 O27 1.243 . S
C12 C11 1.503 . S
C12 C13 1.394 . S
C12 C17 1.373 . S
C13 C12 1.394 . S
C13 C14 1.380 . S
C13 H36 0.930 . S
C14 C13 1.380 . S
C14 C15 1.376 . S
C14 H37 0.930 . S
C15 C14 1.376 . S
C15 C16 1.370 . S
C16 C15 1.370 . S
C16 C17 1.396 . S
C16 H38 0.929 . S
C17 C12 1.373 . S
C17 C16 1.396 . S
C17 H39 0.929 . S
C18 O28 1.240 1_455 S
C18 O29 1.289 . S
C19 O30 1.258 . S
C19 O31 1.256 . S
O20 La0 2.521 . S
O20 C2 1.261 . S
O21 La0 2.628 . S
O21 C2 1.243 . S
O22 La0 2.554 . S
O22 C9 1.240 . S
O23 La0 2.757 . S
O23 La1 2.482 1_455 S
O23 C9 1.289 . S
O24 La0 2.470 . S
O24 C10 1.258 . S
O25 La1 2.503 1_455 S
O25 C10 1.256 . S
O26 La1 2.521 . S
O26 C11 1.261 . S
O27 La1 2.628 . S
O27 C11 1.243 . S
O28 La1 2.554 . S
O28 C18 1.240 1_655 S
O29 La0 2.482 . S
O29 La1 2.757 1_455 S
O29 C18 1.289 . S
O30 La1 2.470 . S
O30 C19 1.258 . S
O31 La0 2.503 1_655 S
O31 C19 1.256 . S
H32 C4 0.930 . S
H33 C5 0.930 . S
H34 C7 0.929 . S
H35 C8 0.929 . S
H36 C13 0.930 . S
H37 C14 0.930 . S
H38 C16 0.929 . S
H39 C17 0.929 . S
La40 C42 2.928 . S
La40 O60 2.521 . S
La40 O61 2.628 . S
La40 O62 2.554 . S
La40 O63 2.757 1_565 S
La40 O64 2.470 . S
La40 O69 2.482 . S
La40 O71 2.503 1_565 S
La41 C51 2.928 . S
La41 O63 2.482 . S
La41 O65 2.503 1_545 S
La41 O66 2.521 . S
La41 O67 2.628 . S
La41 O68 2.554 . S
La41 O69 2.757 1_545 S
La41 O70 2.470 . S
C42 La40 2.928 . S
C42 C43 1.503 . S
C42 O60 1.261 . S
C42 O61 1.243 . S
C43 C42 1.503 . S
C43 C44 1.394 . S
C43 C48 1.373 . S
C44 C43 1.394 . S
C44 C45 1.380 . S
C44 H72 0.930 . S
C45 C44 1.380 . S
C45 C46 1.376 . S
C45 H73 0.930 . S
C46 C45 1.376 . S
C46 C47 1.370 . S
C47 C46 1.370 . S
C47 C48 1.396 . S
C47 H74 0.929 . S
C48 C43 1.373 . S
C48 C47 1.396 . S
C48 H75 0.929 . S
C49 O62 1.240 1_545 S
C49 O63 1.289 . S
C50 O64 1.258 . S
C50 O65 1.256 . S
C51 La41 2.928 . S
C51 C52 1.503 . S
C51 O66 1.261 . S
C51 O67 1.243 . S
C52 C51 1.503 . S
C52 C53 1.394 . S
C52 C57 1.373 . S
C53 C52 1.394 . S
C53 C54 1.380 . S
C53 H76 0.930 . S
C54 C53 1.380 . S
C54 C55 1.376 . S
C54 H77 0.930 . S
C55 C54 1.376 . S
C55 C56 1.370 . S
C56 C55 1.370 . S
C56 C57 1.396 . S
C56 H78 0.929 . S
C57 C52 1.373 . S
C57 C56 1.396 . S
C57 H79 0.929 . S
C58 O68 1.240 . S
C58 O69 1.289 1_545 S
C59 O70 1.258 . S
C59 O71 1.256 . S
O60 La40 2.521 . S
O60 C42 1.261 . S
O61 La40 2.628 . S
O61 C42 1.243 . S
O62 La40 2.554 . S
O62 C49 1.240 1_565 S
O63 La40 2.757 1_545 S
O63 La41 2.482 . S
O63 C49 1.289 . S
O64 La40 2.470 . S
O64 C50 1.258 . S
O65 La41 2.503 1_565 S
O65 C50 1.256 . S
O66 La41 2.521 . S
O66 C51 1.261 . S
O67 La41 2.628 . S
O67 C51 1.243 . S
O68 La41 2.554 . S
O68 C58 1.240 . S
O69 La40 2.482 . S
O69 La41 2.757 1_565 S
O69 C58 1.289 1_565 S
O70 La41 2.470 . S
O70 C59 1.258 . S
O71 La40 2.503 1_545 S
O71 C59 1.256 . S
H72 C44 0.930 . S
H73 C45 0.930 . S
H74 C47 0.929 . S
H75 C48 0.929 . S
H76 C53 0.930 . S
H77 C54 0.930 . S
H78 C56 0.929 . S
H79 C57 0.929 . S
La80 C82 2.928 . S
La80 O100 2.521 . S
La80 O101 2.628 . S
La80 O102 2.554 . S
La80 O103 2.757 . S
La80 O104 2.470 . S
La80 O109 2.482 . S
La80 O111 2.503 . S
La81 C91 2.928 . S
La81 O103 2.482 . S
La81 O105 2.503 . S
La81 O106 2.521 . S
La81 O107 2.628 . S
La81 O108 2.554 . S
La81 O109 2.757 . S
La81 O110 2.470 . S
C82 La80 2.928 . S
C82 C83 1.503 . S
C82 O100 1.261 . S
C82 O101 1.243 . S
C83 C82 1.503 . S
C83 C84 1.394 . S
C83 C88 1.373 . S
C84 C83 1.394 . S
C84 C85 1.380 . S
C84 H112 0.930 . S
C85 C84 1.380 . S
C85 C86 1.376 . S
C85 H113 0.930 . S
C86 C85 1.376 . S
C86 C87 1.370 . S
C87 C86 1.370 . S
C87 C88 1.396 . S
C87 H114 0.929 . S
C88 C83 1.373 . S
C88 C87 1.396 . S
C88 H115 0.929 . S
C89 O102 1.240 . S
C89 O103 1.289 . S
C90 O104 1.258 . S
C90 O105 1.256 . S
C91 La81 2.928 . S
C91 C92 1.503 . S
C91 O106 1.261 . S
C91 O107 1.243 . S
C92 C91 1.503 . S
C92 C93 1.394 . S
C92 C97 1.373 . S
C93 C92 1.394 . S
C93 C94 1.380 . S
C93 H116 0.930 . S
C94 C93 1.380 . S
C94 C95 1.376 . S
C94 H117 0.930 . S
C95 C94 1.376 . S
C95 C96 1.370 . S
C96 C95 1.370 . S
C96 C97 1.396 . S
C96 H118 0.929 . S
C97 C92 1.373 . S
C97 C96 1.396 . S
C97 H119 0.929 . S
C98 O108 1.240 . S
C98 O109 1.289 . S
C99 O110 1.258 . S
C99 O111 1.256 . S
O100 La80 2.521 . S
O100 C82 1.261 . S
O101 La80 2.628 . S
O101 C82 1.243 . S
O102 La80 2.554 . S
O102 C89 1.240 . S
O103 La80 2.757 . S
O103 La81 2.482 . S
O103 C89 1.289 . S
O104 La80 2.470 . S
O104 C90 1.258 . S
O105 La81 2.503 . S
O105 C90 1.256 . S
O106 La81 2.521 . S
O106 C91 1.261 . S
O107 La81 2.628 . S
O107 C91 1.243 . S
O108 La81 2.554 . S
O108 C98 1.240 . S
O109 La80 2.482 . S
O109 La81 2.757 . S
O109 C98 1.289 . S
O110 La81 2.470 . S
O110 C99 1.258 . S
O111 La80 2.503 . S
O111 C99 1.256 . S
H112 C84 0.930 . S
H113 C85 0.930 . S
H114 C87 0.929 . S
H115 C88 0.929 . S
H116 C93 0.930 . S
H117 C94 0.930 . S
H118 C96 0.929 . S
H119 C97 0.929 . S
C120 C121 1.386 . S
C120 C122 1.397 . S
C120 H144 0.931 . S
C121 C120 1.386 . S
C121 C125 1.397 1_545 S
C122 C120 1.397 . S
C122 C123 1.384 . S
C122 H145 0.930 . S
C123 C122 1.384 . S
C123 C124 1.377 1_545 S
C123 C126 1.481 . S
C124 C123 1.377 1_565 S
C124 C125 1.389 . S
C124 H146 0.929 . S
C125 C121 1.397 1_565 S
C125 C124 1.389 . S
C125 H147 0.931 . S
C126 C123 1.481 . S
C126 C127 1.387 . S
C126 C131 1.390 1_545 S
C127 C126 1.387 . S
C127 C128 1.401 . S
C127 H148 0.930 . S
C128 C127 1.401 . S
C128 C129 1.376 . S
C128 C137 1.511 . S
C129 C128 1.376 . S
C129 C130 1.392 1_545 S
C129 H150 0.931 . S
C130 C129 1.392 1_565 S
C130 C131 1.361 . S
C130 C132 1.500 . S
C131 C126 1.390 1_565 S
C131 C130 1.361 . S
C131 H149 0.931 . S
C132 C130 1.500 . S
C132 C133 1.371 . S
C132 C134 1.365 . S
C133 C132 1.371 . S
C133 C143 1.386 . S
C133 H151 0.931 . S
C134 C132 1.365 . S
C134 C135 1.409 . S
C134 H152 0.929 . S
C135 C134 1.409 . S
C135 C136 1.380 . S
C135 H153 0.930 . S
C136 C135 1.380 . S
C136 C143 1.357 . S
C137 C128 1.511 . S
C137 C138 1.341 . S
C137 C139 1.371 . S
C138 C137 1.341 . S
C138 C142 1.394 . S
C138 H154 0.930 . S
C139 C137 1.371 . S
C139 C140 1.392 . S
C139 H155 0.931 . S
C140 C139 1.392 . S
C140 C141 1.331 . S
C140 H158 0.932 . S
C141 C140 1.331 . S
C141 C142 1.336 . S
C142 C138 1.394 . S
C142 C141 1.336 . S
C142 H157 0.929 . S
C143 C133 1.386 . S
C143 C136 1.357 . S
C143 H156 0.928 . S
H144 C120 0.931 . S
H145 C122 0.930 . S
H146 C124 0.929 . S
H147 C125 0.931 . S
H148 C127 0.930 . S
H149 C131 0.931 . S
H150 C129 0.931 . S
H151 C133 0.931 . S
H152 C134 0.929 . S
H153 C135 0.930 . S
H154 C138 0.930 . S
H155 C139 0.931 . S
H156 C143 0.928 . S
H157 C142 0.929 . S
H158 C140 0.932 . S
C159 C160 1.386 . S
C159 C161 1.397 . S
C159 H183 0.931 . S
C160 C159 1.386 . S
C160 C164 1.397 . S
C161 C159 1.397 . S
C161 C162 1.384 . S
C161 H184 0.930 . S
C162 C161 1.384 . S
C162 C163 1.377 . S
C162 C165 1.481 . S
C163 C162 1.377 . S
C163 C164 1.389 . S
C163 H185 0.929 . S
C164 C160 1.397 . S
C164 C163 1.389 . S
C164 H186 0.931 . S
C165 C162 1.481 . S
C165 C166 1.387 . S
C165 C170 1.390 . S
C166 C165 1.387 . S
C166 C167 1.401 . S
C166 H187 0.930 . S
C167 C166 1.401 . S
C167 C168 1.376 . S
C167 C176 1.511 . S
C168 C167 1.376 . S
C168 C169 1.392 . S
C168 H189 0.931 . S
C169 C168 1.392 . S
C169 C170 1.361 . S
C169 C171 1.500 . S
C170 C165 1.390 . S
C170 C169 1.361 . S
C170 H188 0.931 . S
C171 C169 1.500 . S
C171 C172 1.371 . S
C171 C173 1.365 . S
C172 C171 1.371 . S
C172 C182 1.386 . S
C172 H190 0.931 . S
C173 C171 1.365 . S
C173 C174 1.409 . S
C173 H191 0.929 . S
C174 C173 1.409 . S
C174 C175 1.380 . S
C174 H192 0.930 . S
C175 C174 1.380 . S
C175 C182 1.357 . S
C176 C167 1.511 . S
C176 C177 1.341 . S
C176 C178 1.371 . S
C177 C176 1.341 . S
C177 C181 1.394 . S
C177 H193 0.930 . S
C178 C176 1.371 . S
C178 C179 1.392 . S
C178 H194 0.931 . S
C179 C178 1.392 . S
C179 C180 1.331 . S
C179 H197 0.932 . S
C180 C179 1.331 . S
C180 C181 1.336 . S
C181 C177 1.394 . S
C181 C180 1.336 . S
C181 H196 0.929 . S
C182 C172 1.386 . S
C182 C175 1.357 . S
C182 H195 0.928 . S
H183 C159 0.931 . S
H184 C161 0.930 . S
H185 C163 0.929 . S
H186 C164 0.931 . S
H187 C166 0.930 . S
H188 C170 0.931 . S
H189 C168 0.931 . S
H190 C172 0.931 . S
H191 C173 0.929 . S
H192 C174 0.930 . S
H193 C177 0.930 . S
H194 C178 0.931 . S
H195 C182 0.928 . S
H196 C181 0.929 . S
H197 C179 0.932 . S
C198 C199 1.386 . S
C198 C200 1.397 . S
C198 H222 0.931 . S
C199 C198 1.386 . S
C199 C203 1.412 . S
C200 C198 1.397 . S
C200 C201 1.384 . S
C200 H223 0.930 . S
C201 C200 1.384 . S
C201 C202 1.377 . S
C201 C204 1.481 . S
C202 C201 1.377 . S
C202 C203 1.390 . S
C202 H224 0.929 1_455 S
C203 C199 1.412 . S
C203 C202 1.390 . S
C203 H225 0.916 1_455 S
C204 C201 1.481 . S
C204 C205 1.387 . S
C204 C209 1.390 . S
C205 C204 1.387 . S
C205 C206 1.401 . S
C205 H226 0.930 . S
C206 C205 1.401 . S
C206 C207 1.376 . S
C206 C215 1.511 . S
C207 C206 1.376 . S
C207 C208 1.392 . S
C207 H228 0.931 . S
C208 C207 1.392 . S
C208 C209 1.361 . S
C208 C210 1.500 1_455 S
C209 C204 1.390 . S
C209 C208 1.361 . S
C209 H227 0.931 1_455 S
C210 C208 1.500 1_655 S
C210 C211 1.371 . S
C210 C212 1.365 . S
C211 C210 1.371 . S
C211 C221 1.386 . S
C211 H229 0.931 1_655 S
C212 C210 1.365 . S
C212 C213 1.409 . S
C212 H230 0.929 . S
C213 C212 1.409 . S
C213 C214 1.380 . S
C213 H231 0.930 . S
C214 C213 1.380 . S
C214 C221 1.357 . S
C215 C206 1.511 . S
C215 C216 1.341 . S
C215 C217 1.371 . S
C216 C215 1.341 . S
C216 C220 1.394 . S
C216 H232 0.930 . S
C217 C215 1.371 . S
C217 C218 1.392 . S
C217 H233 0.931 . S
C218 C217 1.392 . S
C218 C219 1.331 . S
C218 H236 0.932 . S
C219 C218 1.331 . S
C219 C220 1.336 . S
C220 C216 1.394 . S
C220 C219 1.336 . S
C220 H235 0.929 . S
C221 C211 1.386 . S
C221 C214 1.357 . S
C221 H234 0.928 . S
H222 C198 0.931 . S
H223 C200 0.930 . S
H224 C202 0.929 1_655 S
H225 C203 0.916 1_655 S
H226 C205 0.930 . S
H227 C209 0.931 1_655 S
H228 C207 0.931 . S
H229 C211 0.931 1_455 S
H230 C212 0.929 . S
H231 C213 0.930 . S
H232 C216 0.930 . S
H233 C217 0.931 . S
H234 C221 0.928 . S
H235 C220 0.929 . S
H236 C218 0.932 . S
C237 C238 1.393 . S
C237 C239 1.397 . S
C237 H261 0.931 . S
C238 C237 1.393 . S
C238 C242 1.390 1_655 S
C239 C237 1.397 . S
C239 C240 1.384 . S
C239 H262 0.930 . S
C240 C239 1.384 . S
C240 C241 1.377 1_655 S
C240 C243 1.481 . S
C241 C240 1.377 1_455 S
C241 C242 1.389 . S
C241 H263 0.929 . S
C242 C238 1.390 1_455 S
C242 C241 1.389 . S
C242 H264 0.931 . S
C243 C240 1.481 . S
C243 C244 1.387 . S
C243 C248 1.390 1_655 S
C244 C243 1.387 . S
C244 C245 1.401 . S
C244 H265 0.930 . S
C245 C244 1.401 . S
C245 C246 1.376 . S
C245 C254 1.511 . S
C246 C245 1.376 . S
C246 C247 1.392 1_655 S
C246 H267 0.931 . S
C247 C246 1.392 1_455 S
C247 C248 1.361 . S
C247 C249 1.500 . S
C248 C243 1.390 1_455 S
C248 C247 1.361 . S
C248 H266 0.931 . S
C249 C247 1.500 . S
C249 C250 1.371 . S
C249 C251 1.365 . S
C250 C249 1.371 . S
C250 C260 1.386 . S
C250 H268 0.931 . S
C251 C249 1.365 . S
C251 C252 1.409 . S
C251 H269 0.929 . S
C252 C251 1.409 . S
C252 C253 1.380 . S
C252 H270 0.930 . S
C253 C252 1.380 . S
C253 C260 1.357 . S
C254 C245 1.511 . S
C254 C255 1.341 . S
C254 C256 1.371 . S
C255 C254 1.341 . S
C255 C259 1.394 . S
C255 H271 0.930 . S
C256 C254 1.371 . S
C256 C257 1.392 . S
C256 H272 0.931 . S
C257 C256 1.392 . S
C257 C258 1.331 . S
C257 H275 0.932 . S
C258 C257 1.331 . S
C258 C259 1.336 . S
C259 C255 1.394 . S
C259 C258 1.336 . S
C259 H274 0.929 . S
C260 C250 1.386 . S
C260 C253 1.357 . S
C260 H273 0.928 . S
H261 C237 0.931 . S
H262 C239 0.930 . S
H263 C241 0.929 . S
H264 C242 0.931 . S
H265 C244 0.930 . S
H266 C248 0.931 . S
H267 C246 0.931 . S
H268 C250 0.931 . S
H269 C251 0.929 . S
H270 C252 0.930 . S
H271 C255 0.930 . S
H272 C256 0.931 . S
H273 C260 0.928 . S
H274 C259 0.929 . S
H275 C257 0.932 . S
C276 C277 1.386 . S
C276 C278 1.397 . S
C276 H300 0.931 . S
C277 C276 1.386 . S
C277 C281 1.397 1_565 S
C278 C276 1.397 . S
C278 C279 1.384 . S
C278 H301 0.930 . S
C279 C278 1.384 . S
C279 C280 1.377 1_565 S
C279 C282 1.480 . S
C280 C279 1.377 1_545 S
C280 C281 1.389 . S
C280 H302 0.929 . S
C281 C277 1.397 1_545 S
C281 C280 1.389 . S
C281 H303 0.931 . S
C282 C279 1.480 . S
C282 C283 1.419 . S
C282 C287 1.359 1_565 S
C283 C282 1.419 . S
C283 C284 1.401 . S
C283 H304 0.930 . S
C284 C283 1.401 . S
C284 C285 1.376 1_565 S
C284 C293 1.511 . S
C285 C284 1.376 1_545 S
C285 C286 1.392 . S
C285 H306 0.931 . S
C286 C285 1.392 . S
C286 C287 1.361 . S
C286 C288 1.500 . S
C287 C282 1.359 1_545 S
C287 C286 1.361 . S
C287 H305 0.931 . S
C288 C286 1.500 . S
C288 C289 1.371 . S
C288 C290 1.365 . S
C289 C288 1.371 . S
C289 C299 1.386 . S
C289 H307 0.931 . S
C290 C288 1.365 . S
C290 C291 1.409 . S
C290 H308 0.929 . S
C291 C290 1.409 . S
C291 C292 1.380 . S
C291 H309 0.930 . S
C292 C291 1.380 . S
C292 C299 1.357 . S
C293 C284 1.511 . S
C293 C294 1.341 . S
C293 C295 1.371 . S
C294 C293 1.341 . S
C294 C298 1.394 . S
C294 H310 0.930 . S
C295 C293 1.371 . S
C295 C296 1.392 . S
C295 H311 0.931 . S
C296 C295 1.392 . S
C296 C297 1.331 . S
C296 H314 0.932 . S
C297 C296 1.331 . S
C297 C298 1.336 . S
C298 C294 1.394 . S
C298 C297 1.336 . S
C298 H313 0.929 . S
C299 C289 1.386 . S
C299 C292 1.357 . S
C299 H312 0.928 . S
H300 C276 0.931 . S
H301 C278 0.930 . S
H302 C280 0.929 . S
H303 C281 0.931 . S
H304 C283 0.930 . S
H305 C287 0.931 . S
H306 C285 0.931 . S
H307 C289 0.931 . S
H308 C290 0.929 . S
H309 C291 0.930 . S
H310 C294 0.930 . S
H311 C295 0.931 . S
H312 C299 0.928 . S
H313 C298 0.929 . S
H314 C296 0.932 . S
C315 C316 1.386 1_554 S
C315 C317 1.397 . S
C315 H339 0.931 1_554 S
C316 C315 1.386 1_556 S
C316 C320 1.397 1_556 S
C317 C315 1.397 . S
C317 C318 1.384 . S
C317 H340 0.930 . S
C318 C317 1.384 . S
C318 C319 1.377 . S
C318 C321 1.481 . S
C319 C318 1.377 . S
C319 C320 1.389 . S
C319 H341 0.929 . S
C320 C316 1.397 1_554 S
C320 C319 1.389 . S
C320 H342 0.931 1_554 S
C321 C318 1.481 . S
C321 C322 1.387 . S
C321 C326 1.390 . S
C322 C321 1.387 . S
C322 C323 1.401 . S
C322 H343 0.930 . S
C323 C322 1.401 . S
C323 C324 1.376 . S
C323 C332 1.511 . S
C324 C323 1.376 . S
C324 C325 1.392 . S
C324 H345 0.931 . S
C325 C324 1.392 . S
C325 C326 1.361 . S
C325 C327 1.500 . S
C326 C321 1.390 . S
C326 C325 1.361 . S
C326 H344 0.931 . S
C327 C325 1.500 . S
C327 C328 1.371 . S
C327 C329 1.365 . S
C328 C327 1.371 . S
C328 C338 1.386 . S
C328 H346 0.931 . S
C329 C327 1.365 . S
C329 C330 1.409 . S
C329 H347 0.929 . S
C330 C329 1.409 . S
C330 C331 1.380 . S
C330 H348 0.930 . S
C331 C330 1.380 . S
C331 C338 1.357 . S
C332 C323 1.511 . S
C332 C333 1.341 . S
C332 C334 1.371 . S
C333 C332 1.341 . S
C333 C337 1.394 . S
C333 H349 0.930 . S
C334 C332 1.371 . S
C334 C335 1.392 . S
C334 H350 0.931 . S
C335 C334 1.392 . S
C335 C336 1.331 . S
C335 H353 0.932 . S
C336 C335 1.331 . S
C336 C337 1.336 . S
C337 C333 1.394 . S
C337 C336 1.336 . S
C337 H352 0.929 . S
C338 C328 1.386 . S
C338 C331 1.357 . S
C338 H351 0.928 . S
H339 C315 0.931 1_556 S
H340 C317 0.930 . S
H341 C319 0.929 . S
H342 C320 0.931 1_556 S
H343 C322 0.930 . S
H344 C326 0.931 . S
H345 C324 0.931 . S
H346 C328 0.931 . S
H347 C329 0.929 . S
H348 C330 0.930 . S
H349 C333 0.930 . S
H350 C334 0.931 . S
H351 C338 0.928 . S
H352 C337 0.929 . S
H353 C335 0.932 . S
H354 C360 0.930 . S
H355 C363 0.930 . S
H356 C364 0.930 . S
H357 C365 0.930 . S
H358 C368 0.930 . S
H359 C369 0.930 . S
C360 H354 0.930 . S
C360 C361 1.355 . S
C360 C362 1.415 . S
C361 C360 1.355 . S
C361 C363 1.419 . S
C362 C360 1.415 . S
C362 C367 1.425 . S
C362 C369 1.409 . S
C363 H355 0.930 . S
C363 C361 1.419 . S
C363 C364 1.362 . S
C364 H356 0.930 . S
C364 C363 1.362 . S
C364 C367 1.409 . S
C365 H357 0.930 . S
C365 C366 1.355 . S
C365 C367 1.415 . S
C366 C365 1.355 . S
C366 C368 1.419 . S
C367 C362 1.425 . S
C367 C364 1.409 . S
C367 C365 1.415 . S
C368 H358 0.930 . S
C368 C366 1.419 . S
C368 C369 1.362 . S
C369 H359 0.930 . S
C369 C362 1.409 . S
C369 C368 1.362 . S
H370 C376 0.930 . S
H371 C379 0.930 . S
H372 C380 0.930 . S
H373 C381 0.930 . S
H374 C384 0.930 . S
H375 C385 0.930 . S
C376 H370 0.930 . S
C376 C377 1.355 . S
C376 C378 1.415 . S
C377 C376 1.355 . S
C377 C379 1.419 . S
C378 C376 1.415 . S
C378 C383 1.425 . S
C378 C385 1.409 . S
C379 H371 0.930 . S
C379 C377 1.419 . S
C379 C380 1.362 . S
C380 H372 0.930 . S
C380 C379 1.362 . S
C380 C383 1.409 . S
C381 H373 0.930 . S
C381 C382 1.355 . S
C381 C383 1.415 . S
C382 C381 1.355 . S
C382 C384 1.419 . S
C383 C378 1.425 . S
C383 C380 1.409 . S
C383 C381 1.415 . S
C384 H374 0.930 . S
C384 C382 1.419 . S
C384 C385 1.362 . S
C385 H375 0.930 . S
C385 C378 1.409 . S
C385 C384 1.362 . S
H386 C392 0.930 . S
H387 C395 0.930 . S
H388 C396 0.930 . S
H389 C397 0.930 . S
H390 C400 0.930 . S
H391 C401 0.930 . S
C392 H386 0.930 . S
C392 C393 1.355 . S
C392 C394 1.415 . S
C393 C392 1.355 . S
C393 C395 1.419 . S
C394 C392 1.415 . S
C394 C399 1.425 . S
C394 C401 1.409 . S
C395 H387 0.930 . S
C395 C393 1.419 . S
C395 C396 1.362 . S
C396 H388 0.930 . S
C396 C395 1.362 . S
C396 C399 1.409 . S
C397 H389 0.930 . S
C397 C398 1.355 . S
C397 C399 1.415 . S
C398 C397 1.355 . S
C398 C400 1.419 . S
C399 C394 1.425 . S
C399 C396 1.409 . S
C399 C397 1.415 . S
C400 H390 0.930 . S
C400 C398 1.419 . S
C400 C401 1.362 . S
C401 H391 0.930 . S
C401 C394 1.409 . S
C401 C400 1.362 . S
H402 C408 0.930 . S
H403 C411 0.930 . S
H404 C412 0.930 . S
H405 C413 0.930 . S
H406 C416 0.930 . S
H407 C417 0.930 . S
C408 H402 0.930 . S
C408 C409 1.355 . S
C408 C410 1.415 . S
C409 C408 1.355 . S
C409 C411 1.419 . S
C410 C408 1.415 . S
C410 C415 1.425 . S
C410 C417 1.409 . S
C411 H403 0.930 . S
C411 C409 1.419 . S
C411 C412 1.362 . S
C412 H404 0.930 . S
C412 C411 1.362 . S
C412 C415 1.409 . S
C413 H405 0.930 . S
C413 C414 1.355 . S
C413 C415 1.415 . S
C414 C413 1.355 . S
C414 C416 1.419 . S
C415 C410 1.425 . S
C415 C412 1.409 . S
C415 C413 1.415 . S
C416 H406 0.930 . S
C416 C414 1.419 . S
C416 C417 1.362 . S
C417 H407 0.930 . S
C417 C410 1.409 . S
C417 C416 1.362 . S
H418 C424 0.930 . S
H419 C427 0.930 . S
H420 C428 0.930 . S
H421 C429 0.930 . S
H422 C432 0.930 . S
H423 C433 0.930 . S
C424 H418 0.930 . S
C424 C425 1.355 . S
C424 C426 1.415 . S
C425 C424 1.355 . S
C425 C427 1.419 . S
C426 C424 1.415 . S
C426 C431 1.425 . S
C426 C433 1.409 . S
C427 H419 0.930 . S
C427 C425 1.419 . S
C427 C428 1.362 . S
C428 H420 0.930 . S
C428 C427 1.362 . S
C428 C431 1.409 . S
C429 H421 0.930 . S
C429 C430 1.355 . S
C429 C431 1.415 . S
C430 C429 1.355 . S
C430 C432 1.419 . S
C431 C426 1.425 . S
C431 C428 1.409 . S
C431 C429 1.415 . S
C432 H422 0.930 . S
C432 C430 1.419 . S
C432 C433 1.362 . S
C433 H423 0.930 . S
C433 C426 1.409 . S
C433 C432 1.362 . S
H434 C440 0.930 . S
H435 C443 0.930 . S
H436 C444 0.930 . S
H437 C445 0.930 . S
H438 C448 0.930 . S
H439 C449 0.930 . S
C440 H434 0.930 . S
C440 C441 1.355 . S
C440 C442 1.415 . S
C441 C440 1.355 . S
C441 C443 1.419 . S
C442 C440 1.415 . S
C442 C447 1.425 . S
C442 C449 1.409 . S
C443 H435 0.930 . S
C443 C441 1.419 . S
C443 C444 1.362 . S
C444 H436 0.930 . S
C444 C443 1.362 . S
C444 C447 1.409 . S
C445 H437 0.930 . S
C445 C446 1.355 . S
C445 C447 1.415 . S
C446 C445 1.355 . S
C446 C448 1.419 . S
C447 C442 1.425 . S
C447 C444 1.409 . S
C447 C445 1.415 . S
C448 H438 0.930 . S
C448 C446 1.419 . S
C448 C449 1.362 . S
C449 H439 0.930 . S
C449 C442 1.409 . S
C449 C448 1.362 . S
H450 C456 0.930 . S
H451 C459 0.930 . S
H452 C460 0.930 . S
H453 C461 0.930 . S
H454 C464 0.930 . S
H455 C465 0.930 . S
C456 H450 0.930 . S
C456 C457 1.355 . S
C456 C458 1.415 . S
C457 C456 1.355 . S
C457 C459 1.419 . S
C458 C456 1.415 . S
C458 C463 1.425 . S
C458 C465 1.409 . S
C459 H451 0.930 . S
C459 C457 1.419 . S
C459 C460 1.362 . S
C460 H452 0.930 . S
C460 C459 1.362 . S
C460 C463 1.409 . S
C461 H453 0.930 . S
C461 C462 1.355 . S
C461 C463 1.415 . S
C462 C461 1.355 . S
C462 C464 1.419 . S
C463 C458 1.425 . S
C463 C460 1.409 . S
C463 C461 1.415 . S
C464 H454 0.930 . S
C464 C462 1.419 . S
C464 C465 1.362 . S
C465 H455 0.930 . S
C465 C458 1.409 . S
C465 C464 1.362 . S
H466 C472 0.930 . S
H467 C475 0.930 . S
H468 C476 0.930 . S
H469 C477 0.930 . S
H470 C480 0.930 . S
H471 C481 0.930 . S
C472 H466 0.930 . S
C472 C473 1.355 . S
C472 C474 1.415 . S
C473 C472 1.355 . S
C473 C475 1.419 . S
C474 C472 1.415 . S
C474 C479 1.425 . S
C474 C481 1.409 . S
C475 H467 0.930 . S
C475 C473 1.419 . S
C475 C476 1.362 . S
C476 H468 0.930 . S
C476 C475 1.362 . S
C476 C479 1.409 . S
C477 H469 0.930 . S
C477 C478 1.355 . S
C477 C479 1.415 . S
C478 C477 1.355 . S
C478 C480 1.419 . S
C479 C474 1.425 . S
C479 C476 1.409 . S
C479 C477 1.415 . S
C480 H470 0.930 . S
C480 C478 1.419 . S
C480 C481 1.362 . S
C481 H471 0.930 . S
C481 C474 1.409 . S
C481 C480 1.362 . S
H482 C488 0.930 . S
H483 C491 0.930 . S
H484 C492 0.930 . S
H485 C493 0.930 . S
H486 C496 0.930 . S
H487 C497 0.930 . S
C488 H482 0.930 . S
C488 C489 1.355 . S
C488 C490 1.415 . S
C489 C488 1.355 . S
C489 C491 1.419 . S
C490 C488 1.415 . S
C490 C495 1.425 . S
C490 C497 1.409 . S
C491 H483 0.930 . S
C491 C489 1.419 . S
C491 C492 1.362 . S
C492 H484 0.930 . S
C492 C491 1.362 . S
C492 C495 1.409 . S
C493 H485 0.930 . S
C493 C494 1.355 . S
C493 C495 1.415 . S
C494 C493 1.355 . S
C494 C496 1.419 . S
C495 C490 1.425 . S
C495 C492 1.409 . S
C495 C493 1.415 . S
C496 H486 0.930 . S
C496 C494 1.419 . S
C496 C497 1.362 . S
C497 H487 0.930 . S
C497 C490 1.409 . S
C497 C496 1.362 . S
H498 C504 0.930 . S
H499 C507 0.930 . S
H500 C508 0.930 . S
H501 C509 0.930 . S
H502 C512 0.930 . S
H503 C513 0.930 . S
C504 H498 0.930 . S
C504 C505 1.355 . S
C504 C506 1.415 . S
C505 C504 1.355 . S
C505 C507 1.419 . S
C506 C504 1.415 . S
C506 C511 1.425 . S
C506 C513 1.409 . S
C507 H499 0.930 . S
C507 C505 1.419 . S
C507 C508 1.362 . S
C508 H500 0.930 . S
C508 C507 1.362 . S
C508 C511 1.409 . S
C509 H501 0.930 . S
C509 C510 1.355 . S
C509 C511 1.415 . S
C510 C509 1.355 . S
C510 C512 1.419 . S
C511 C506 1.425 . S
C511 C508 1.409 . S
C511 C509 1.415 . S
C512 H502 0.930 . S
C512 C510 1.419 . S
C512 C513 1.362 . S
C513 H503 0.930 . S
C513 C506 1.409 . S
C513 C512 1.362 . S
H514 C520 0.930 . S
H515 C523 0.930 . S
H516 C524 0.930 . S
H517 C525 0.930 . S
H518 C528 0.930 . S
H519 C529 0.930 . S
C520 H514 0.930 . S
C520 C521 1.355 . S
C520 C522 1.415 . S
C521 C520 1.355 . S
C521 C523 1.419 . S
C522 C520 1.415 . S
C522 C527 1.425 . S
C522 C529 1.409 . S
C523 H515 0.930 . S
C523 C521 1.419 . S
C523 C524 1.362 . S
C524 H516 0.930 . S
C524 C523 1.362 . S
C524 C527 1.409 . S
C525 H517 0.930 . S
C525 C526 1.355 . S
C525 C527 1.415 . S
C526 C525 1.355 . S
C526 C528 1.419 . S
C527 C522 1.425 . S
C527 C524 1.409 . S
C527 C525 1.415 . S
C528 H518 0.930 . S
C528 C526 1.419 . S
C528 C529 1.362 . S
C529 H519 0.930 . S
C529 C522 1.409 . S
C529 C528 1.362 . S
H530 C536 0.930 . S
H531 C539 0.930 . S
H532 C540 0.930 . S
H533 C541 0.930 . S
H534 C544 0.930 . S
H535 C545 0.930 . S
C536 H530 0.930 . S
C536 C537 1.355 . S
C536 C538 1.415 . S
C537 C536 1.355 . S
C537 C539 1.419 . S
C538 C536 1.415 . S
C538 C543 1.425 . S
C538 C545 1.409 . S
C539 H531 0.930 . S
C539 C537 1.419 . S
C539 C540 1.362 . S
C540 H532 0.930 . S
C540 C539 1.362 . S
C540 C543 1.409 . S
C541 H533 0.930 . S
C541 C542 1.355 . S
C541 C543 1.415 . S
C542 C541 1.355 . S
C542 C544 1.419 . S
C543 C538 1.425 . S
C543 C540 1.409 . S
C543 C541 1.415 . S
C544 H534 0.930 . S
C544 C542 1.419 . S
C544 C545 1.362 . S
C545 H535 0.930 . S
C545 C538 1.409 . S
C545 C544 1.362 . S
H546 C552 0.930 . S
H547 C555 0.930 . S
H548 C556 0.930 . S
H549 C557 0.930 1_655 S
H550 C560 0.930 . S
H551 C561 0.930 . S
C552 H546 0.930 . S
C552 C553 1.355 . S
C552 C554 1.415 . S
C553 C552 1.355 . S
C553 C555 1.419 1_455 S
C554 C552 1.415 . S
C554 C559 1.425 . S
C554 C561 1.409 . S
C555 H547 0.930 . S
C555 C553 1.419 1_655 S
C555 C556 1.362 . S
C556 H548 0.930 . S
C556 C555 1.362 . S
C556 C559 1.409 1_655 S
C557 H549 0.930 1_455 S
C557 C558 1.355 . S
C557 C559 1.415 . S
C558 C557 1.355 . S
C558 C560 1.419 . S
C559 C554 1.425 . S
C559 C556 1.409 1_455 S
C559 C557 1.415 . S
C560 H550 0.930 . S
C560 C558 1.419 . S
C560 C561 1.362 . S
C561 H551 0.930 . S
C561 C554 1.409 . S
C561 C560 1.362 . S
H562 C568 0.930 . S
H563 C571 0.930 . S
H564 C572 0.930 . S
H565 C573 0.930 . S
H566 C576 0.930 . S
H567 C577 0.930 . S
C568 H562 0.930 . S
C568 C569 1.355 1_565 S
C568 C570 1.415 1_565 S
C569 C568 1.355 1_545 S
C569 C571 1.419 . S
C570 C568 1.415 1_545 S
C570 C575 1.425 . S
C570 C577 1.409 1_545 S
C571 H563 0.930 . S
C571 C569 1.419 . S
C571 C572 1.362 . S
C572 H564 0.930 . S
C572 C571 1.362 . S
C572 C575 1.409 . S
C573 H565 0.930 . S
C573 C574 1.355 . S
C573 C575 1.415 . S
C574 C573 1.355 . S
C574 C576 1.419 1_545 S
C575 C570 1.425 . S
C575 C572 1.409 . S
C575 C573 1.415 . S
C576 H566 0.930 . S
C576 C574 1.419 1_565 S
C576 C577 1.362 . S
C577 H567 0.930 . S
C577 C570 1.409 1_565 S
C577 C576 1.362 . S
H578 C584 0.930 . S
H579 C587 0.930 . S
H580 C588 0.930 . S
H581 C589 0.930 . S
H582 C592 0.930 . S
H583 C593 0.930 . S
C584 H578 0.930 . S
C584 C585 1.355 . S
C584 C586 1.415 . S
C585 C584 1.355 . S
C585 C587 1.419 . S
C586 C584 1.415 . S
C586 C591 1.425 . S
C586 C593 1.409 . S
C587 H579 0.930 . S
C587 C585 1.419 . S
C587 C588 1.362 . S
C588 H580 0.930 . S
C588 C587 1.362 . S
C588 C591 1.409 . S
C589 H581 0.930 . S
C589 C590 1.355 . S
C589 C591 1.415 . S
C590 C589 1.355 . S
C590 C592 1.419 . S
C591 C586 1.425 . S
C591 C588 1.409 . S
C591 C589 1.415 . S
C592 H582 0.930 . S
C592 C590 1.419 . S
C592 C593 1.362 . S
C593 H583 0.930 . S
C593 C586 1.409 . S
C593 C592 1.362 . S
H594 C600 0.930 . S
H595 C603 0.930 . S
H596 C604 0.930 . S
H597 C605 0.930 . S
H598 C608 0.930 . S
H599 C609 0.930 . S
C600 H594 0.930 . S
C600 C601 1.355 1_565 S
C600 C602 1.415 . S
C601 C600 1.355 1_545 S
C601 C603 1.419 . S
C602 C600 1.415 . S
C602 C607 1.425 1_565 S
C602 C609 1.409 . S
C603 H595 0.930 . S
C603 C601 1.419 . S
C603 C604 1.362 . S
C604 H596 0.930 . S
C604 C603 1.362 . S
C604 C607 1.409 . S
C605 H597 0.930 . S
C605 C606 1.355 1_545 S
C605 C607 1.415 . S
C606 C605 1.355 1_565 S
C606 C608 1.419 . S
C607 C602 1.425 1_545 S
C607 C604 1.409 . S
C607 C605 1.415 . S
C608 H598 0.930 . S
C608 C606 1.419 . S
C608 C609 1.362 . S
C609 H599 0.930 . S
C609 C602 1.409 . S
C609 C608 1.362 . S
H610 C616 0.930 . S
H611 C619 0.930 . S
H612 C620 0.930 . S
H613 C621 0.930 . S
H614 C624 0.930 . S
H615 C625 0.930 . S
C616 H610 0.930 . S
C616 C617 1.355 . S
C616 C618 1.415 . S
C617 C616 1.355 . S
C617 C619 1.419 . S
C618 C616 1.415 . S
C618 C623 1.425 . S
C618 C625 1.409 . S
C619 H611 0.930 . S
C619 C617 1.419 . S
C619 C620 1.362 . S
C620 H612 0.930 . S
C620 C619 1.362 . S
C620 C623 1.409 . S
C621 H613 0.930 . S
C621 C622 1.355 . S
C621 C623 1.415 . S
C622 C621 1.355 . S
C622 C624 1.419 . S
C623 C618 1.425 . S
C623 C620 1.409 . S
C623 C621 1.415 . S
C624 H614 0.930 . S
C624 C622 1.419 . S
C624 C625 1.362 . S
C625 H615 0.930 . S
C625 C618 1.409 . S
C625 C624 1.362 . S
H626 C632 0.930 . S
H627 C635 0.930 . S
H628 C636 0.930 . S
H629 C637 0.930 . S
H630 C640 0.930 . S
H631 C641 0.930 . S
C632 H626 0.930 . S
C632 C633 1.355 1_655 S
C632 C634 1.415 . S
C633 C632 1.355 1_455 S
C633 C635 1.419 . S
C634 C632 1.415 . S
C634 C639 1.425 1_655 S
C634 C641 1.409 . S
C635 H627 0.930 . S
C635 C633 1.419 . S
C635 C636 1.362 . S
C636 H628 0.930 . S
C636 C635 1.362 . S
C636 C639 1.409 . S
C637 H629 0.930 . S
C637 C638 1.354 . S
C637 C639 1.415 . S
C638 C637 1.354 . S
C638 C640 1.422 1_455 S
C639 C634 1.425 1_455 S
C639 C636 1.409 . S
C639 C637 1.415 . S
C640 H630 0.930 . S
C640 C638 1.422 1_655 S
C640 C641 1.362 . S
C641 H631 0.930 . S
C641 C634 1.409 . S
C641 C640 1.362 . S
C361 C6 0.761 . S
C366 C331 0.687 . S
C377 C59 1.964 . S
C382 C258 1.921 . S
C393 C86 1.278 . S
C398 C297 1.306 . S
C409 C15 0.563 . S
C414 C336 0.359 . S
C430 C253 2.019 . S
C425 C50 2.068 . S
C446 C292 1.340 . S
C441 C95 1.287 . S
C457 C46 1.261 . S
C462 C180 1.237 . S
C473 C99 3.147 . S
C478 C214 3.098 . S
C489 C10 2.074 . S
C494 C136 2.033 . S
C510 C175 1.330 . S
C505 C55 1.268 . S
C526 C219 3.029 . S
C521 C90 3.047 . S
C537 C19 1.953 . S
C542 C141 1.945 . S
C558 C199 1.778 1_554 S
C553 C18 1.680 . S
C569 C49 1.287 . S
C574 C121 1.367 . S
C585 C98 1.466 . S
C590 C160 1.501 . S
C606 C277 1.482 . S
C601 C58 1.399 . S
C622 C316 1.061 . S
C617 C89 1.093 . S
C633 C9 1.343 . S
C638 C238 1.352 1_455 S
