# Generated by pormake.
# Topology zzz, (3,6)-cn, num edge types: 1
# Building blocks:
#     Node 0, Type 0, BuildingBlock: CUQRIR_clean_linker_1, # of connection points: 3
#     Node 1, Type 0, BuildingBlock: CUQRIR_clean_linker_1, # of connection points: 3
#     Node 2, Type 0, BuildingBlock: CUQRIR_clean_linker_1, # of connection points: 3
#     Node 3, Type 0, BuildingBlock: CUQRIR_clean_linker_1, # of connection points: 3
#     Node 4, Type 0, BuildingBlock: CUQRIR_clean_linker_1, # of connection points: 3
#     Node 5, Type 0, BuildingBlock: CUQRIR_clean_linker_1, # of connection points: 3
#     Node 6, Type 0, BuildingBlock: CUQRIR_clean_linker_1, # of connection points: 3
#     Node 7, Type 0, BuildingBlock: CUQRIR_clean_linker_1, # of connection points: 3
#     Node 8, Type 1, BuildingBlock: KUMBUR_clean_sbu_1, # of connection points: 6
#     Node 9, Type 1, BuildingBlock: KUMBUR_clean_sbu_1, # of connection points: 6
#     Node 10, Type 1, BuildingBlock: KUMBUR_clean_sbu_1, # of connection points: 6
#     Node 11, Type 1, BuildingBlock: KUMBUR_clean_sbu_1, # of connection points: 6
#     Edge 12, Type (0, 1), BuildingBlock: AJUNOK_clean_linker_0, # of connection points: 2
#     Edge 13, Type (0, 1), BuildingBlock: AJUNOK_clean_linker_0, # of connection points: 2
#     Edge 14, Type (0, 1), BuildingBlock: AJUNOK_clean_linker_0, # of connection points: 2
#     Edge 15, Type (0, 1), BuildingBlock: AJUNOK_clean_linker_0, # of connection points: 2
#     Edge 16, Type (0, 1), BuildingBlock: AJUNOK_clean_linker_0, # of connection points: 2
#     Edge 17, Type (0, 1), BuildingBlock: AJUNOK_clean_linker_0, # of connection points: 2
#     Edge 18, Type (0, 1), BuildingBlock: AJUNOK_clean_linker_0, # of connection points: 2
#     Edge 19, Type (0, 1), BuildingBlock: AJUNOK_clean_linker_0, # of connection points: 2
#     Edge 20, Type (0, 1), BuildingBlock: AJUNOK_clean_linker_0, # of connection points: 2
#     Edge 21, Type (0, 1), BuildingBlock: AJUNOK_clean_linker_0, # of connection points: 2
#     Edge 22, Type (0, 1), BuildingBlock: AJUNOK_clean_linker_0, # of connection points: 2
#     Edge 23, Type (0, 1), BuildingBlock: AJUNOK_clean_linker_0, # of connection points: 2
#     Edge 24, Type (0, 1), BuildingBlock: AJUNOK_clean_linker_0, # of connection points: 2
#     Edge 25, Type (0, 1), BuildingBlock: AJUNOK_clean_linker_0, # of connection points: 2
#     Edge 26, Type (0, 1), BuildingBlock: AJUNOK_clean_linker_0, # of connection points: 2
#     Edge 27, Type (0, 1), BuildingBlock: AJUNOK_clean_linker_0, # of connection points: 2
#     Edge 28, Type (0, 1), BuildingBlock: AJUNOK_clean_linker_0, # of connection points: 2
#     Edge 29, Type (0, 1), BuildingBlock: AJUNOK_clean_linker_0, # of connection points: 2
#     Edge 30, Type (0, 1), BuildingBlock: AJUNOK_clean_linker_0, # of connection points: 2
#     Edge 31, Type (0, 1), BuildingBlock: AJUNOK_clean_linker_0, # of connection points: 2
#     Edge 32, Type (0, 1), BuildingBlock: AJUNOK_clean_linker_0, # of connection points: 2
#     Edge 33, Type (0, 1), BuildingBlock: AJUNOK_clean_linker_0, # of connection points: 2
#     Edge 34, Type (0, 1), BuildingBlock: AJUNOK_clean_linker_0, # of connection points: 2
#     Edge 35, Type (0, 1), BuildingBlock: AJUNOK_clean_linker_0, # of connection points: 2
# Relax obj value: 0.312
# Max RMSD: 0.139
# Mean RMSD: 0.096
data_MOF--net-zzz--node1-KUMBUR_clean_sbu_1--node2-CUQRIR_clean_linker_1--edge1-AJUNOK_clean_linker_0
_symmetry_space_group_name_H-M    P1
_symmetry_Int_Tables_number       1
_symmetry_cell_setting            triclinic
loop_
_symmetry_equiv_pos_as_xyz
'x, y, z'
_cell_length_a     33.036457
_cell_length_b     32.994367
_cell_length_c     10.353231
_cell_angle_alpha  90.067094
_cell_angle_beta   90.459006
_cell_angle_gamma 90.056625
loop_
_atom_site_label
_atom_site_type_symbol
_atom_site_fract_x
_atom_site_fract_y
_atom_site_fract_z
_atom_type_partial_charge
C0 C 0.75751 0.56221 0.43227 0.0
N1 N 0.7977 0.57291 0.4486 0.0
N2 N 0.73823 0.58345 0.33336 0.0
C3 C 0.73762 0.53072 0.51183 0.0
C4 C 0.76866 0.60846 0.29711 0.0
N5 N 0.80514 0.59813 0.35015 0.0
C6 C 0.76267 0.64656 0.21952 0.0
H7 H 0.70434 0.53211 0.49968 0.0
H8 H 0.74628 0.53469 0.61472 0.0
H9 H 0.74921 0.50089 0.48031 0.0
H10 H 0.74357 0.66782 0.27541 0.0
H11 H 0.7468 0.64004 0.12705 0.0
H12 H 0.79203 0.66175 0.20065 0.0
C13 C 1.02374 0.76983 0.41395 0.0
N14 N 0.0428 0.80769 0.41817 0.0
N15 N 0.03387 0.7466 0.30555 0.0
C16 C 0.9997 0.75329 0.52201 0.0
C17 C 0.05991 0.77159 0.246 0.0
N18 N 0.06575 0.80649 0.31296 0.0
C19 C 0.08097 0.76148 0.12006 0.0
H20 H 1.00904 0.72145 0.53797 0.0
H21 H 0.96723 0.75409 0.49428 0.0
H22 H 1.00454 0.77095 0.61205 0.0
H23 H 0.08071 0.78747 0.0528 0.0
H24 H 0.06663 0.73581 0.06796 0.0
H25 H 0.1131 0.75395 0.14085 0.0
C26 C 0.8162 1.02914 0.46442 0.0
N27 N 0.77566 1.02932 0.43142 0.0
N28 N 0.84187 1.02207 0.35831 0.0
C29 C 0.82882 0.04123 0.59735 0.0
C30 C 0.81355 1.01894 0.26268 0.0
N31 N 0.7754 1.02715 0.30344 0.0
C32 C 0.82364 1.01471 0.12104 0.0
H33 H 0.86169 0.04125 0.60628 0.0
H34 H 0.81458 1.02077 0.66868 0.0
H35 H 0.81665 0.07173 0.61979 0.0
H36 H 0.8515 0.99697 0.10629 0.0
H37 H 0.82781 0.04523 0.07815 0.0
H38 H 0.79873 0.99932 0.06823 0.0
C39 C 0.55345 0.79309 0.29948 0.0
N40 N 0.52677 0.76721 0.36238 0.0
N41 N 0.534 0.81774 0.20896 0.0
C42 C 0.59827 0.78577 0.30076 0.0
C43 C 0.4969 0.80018 0.20608 0.0
N44 N 0.49056 0.7754 0.30902 0.0
C45 C 0.47829 0.79044 0.07469 0.0
H46 H 0.60694 0.76208 0.3716 0.0
H47 H 0.61506 0.81346 0.32501 0.0
H48 H 0.60781 0.77592 0.20312 0.0
H49 H 0.50201 0.7909 0.99922 0.0
H50 H 0.45531 0.81301 0.04502 0.0
H51 H 0.46427 0.75985 0.07361 0.0
C52 C 0.31082 0.51828 0.16371 0.0
N53 N 0.26972 0.52434 0.1818 0.0
N54 N 0.33168 0.50931 0.27777 0.0
C55 C 0.32953 0.51662 0.03408 0.0
C56 C 0.30074 0.50738 0.36143 0.0
N57 N 0.26528 0.52082 0.30897 0.0
C58 C 0.30687 0.49887 0.50404 0.0
H59 H 0.32267 0.48651 0.99164 0.0
H60 H 0.36276 0.52042 0.04284 0.0
H61 H 0.31575 0.53955 0.96915 0.0
H62 H 0.30813 0.52775 0.55898 0.0
H63 H 0.3353 0.48192 0.52227 0.0
H64 H 0.28147 0.48048 0.54135 0.0
C65 C 0.03622 0.32468 0.15055 0.0
N66 N 0.03235 0.28286 0.15627 0.0
N67 N 0.05108 0.34174 0.2648 0.0
C68 C 1.02436 0.34851 0.0348 0.0
C69 C 0.05841 0.30756 0.3333 0.0
N70 N 0.04098 0.27404 0.27918 0.0
C71 C 0.07783 0.30721 0.46558 0.0
H72 H 0.03833 0.33498 0.94789 0.0
H73 H 0.0335 0.38051 0.04662 0.0
H74 H 0.99122 0.34622 1.02159 0.0
H75 H 0.06144 0.32792 0.53112 0.0
H76 H 0.10946 0.31822 0.45844 0.0
H77 H 0.07825 0.27618 0.50691 0.0
C78 C 0.25572 0.0631 0.17048 0.0
N79 N 0.29455 0.0467 0.16673 0.0
N80 N 0.2373 0.05871 0.29057 0.0
C81 C 0.23501 0.08129 0.05604 0.0
C82 C 0.26706 0.04043 0.35896 0.0
N83 N 0.29937 1.03118 0.28495 0.0
C84 C 0.26389 1.02926 0.50051 0.0
H85 H 0.24827 0.06984 0.96487 0.0
H86 H 0.23911 0.11462 0.06018 0.0
H87 H 0.20215 0.0746 0.05889 0.0
H88 H 0.26201 0.99582 0.51074 0.0
H89 H 0.23747 0.04345 0.54789 0.0
H90 H 0.29132 0.03956 0.55331 0.0
C91 C 0.52531 0.28694 0.22909 0.0
N92 N 0.55461 0.30574 0.15109 0.0
N93 N 0.53706 0.24851 0.27486 0.0
C94 C 0.4854 0.30594 0.26081 0.0
C95 C 0.57404 0.24532 0.22147 0.0
N96 N 0.58483 0.27888 0.15662 0.0
C97 C 0.60185 0.20936 0.236 0.0
H98 H 0.47945 0.30448 0.3652 0.0
H99 H 0.46066 0.28925 0.21092 0.0
H100 H 0.48471 0.33814 0.23232 0.0
H101 H 0.63335 0.2155 0.20613 0.0
H102 H 0.59121 0.18546 0.16952 0.0
H103 H 0.60192 0.19845 0.33716 0.0
Tb104 Tb 0.98704 0.04983 0.67954 0.0
C105 C 0.12194 0.11771 1.01338 0.0
N106 N 0.12075 0.0946 0.904 0.0
C107 C 0.17656 0.13312 0.81834 0.0
C108 C 0.14982 0.15002 0.02733 0.0
C109 C 0.14894 0.10117 0.80935 0.0
C110 C 0.17676 0.15793 0.92713 0.0
C111 C 0.09367 0.13399 0.22182 0.0
C112 C 0.09385 0.10986 0.1091 0.0
C113 C 0.12072 0.16659 0.23487 0.0
C114 C 0.14896 0.17437 0.13835 0.0
Tb115 Tb 0.07548 0.04069 0.90893 0.0
N116 N 0.06679 0.07883 0.09224 0.0
C117 C 0.06709 0.12391 0.32039 0.0
C118 C 0.0418 0.06874 0.19097 0.0
C119 C 0.04224 0.0903 0.30581 0.0
H120 H 0.15287 0.07992 0.7324 0.0
H121 H 1.02197 0.08158 0.38049 0.0
H122 H 0.91411 1.00184 0.85086 0.0
H123 H 0.07843 0.97494 0.31139 0.0
H124 H 1.02151 0.04395 0.1856 0.0
H125 H 0.06571 0.14157 0.40858 0.0
H126 H 0.06452 0.99713 0.52568 0.0
H127 H 0.19859 0.13776 0.74292 0.0
H128 H 0.12055 0.18547 0.32058 0.0
H129 H 0.16985 0.19946 0.15009 0.0
H130 H 0.85551 0.95946 0.81607 0.0
H131 H 0.1984 0.18255 0.93404 0.0
H132 H 1.02448 0.95779 0.16332 0.0
N133 N 0.93463 1.00149 0.65783 0.0
C134 C 0.92878 0.98631 0.53675 0.0
C135 C 0.87414 0.96683 0.7338 0.0
C136 C 0.88309 0.96302 0.50089 0.0
C137 C 0.90888 0.99072 0.75474 0.0
C138 C 0.86071 0.95475 0.61088 0.0
N139 N 1.00298 1.00819 0.50663 0.0
C140 C 0.04021 0.9979 0.46154 0.0
C141 C 0.97654 0.97172 0.3029 0.0
C142 C 0.97084 0.99053 0.45057 0.0
C143 C 1.01652 0.97076 0.2556 0.0
C144 C 0.04756 0.98114 0.33959 0.0
H145 H 0.83271 0.93786 0.60234 0.0
H146 H 0.8361 0.9274 0.3548 0.0
H147 H 0.88687 0.91992 0.13543 0.0
O148 O 0.97069 0.09086 0.53067 0.0
O149 O 0.99887 0.98498 0.73369 0.0
O150 O 0.06701 0.98525 0.77583 0.0
O151 O 0.92651 0.06496 0.65249 0.0
O152 O 0.04943 0.07197 0.5996 0.0
O153 O 0.09469 0.03273 0.71089 0.0
O154 O 0.09525 0.99624 0.04366 0.0
O155 O 0.05996 0.10504 0.85198 0.0
O156 O 0.99253 0.10525 0.81239 0.0
O157 O 0.13687 0.03533 0.95052 0.0
O158 O 1.01452 1.01715 0.98559 0.0
O159 O 0.96864 0.05732 0.88188 0.0
C160 C 0.03386 0.96528 0.73399 0.0
C161 C 0.90925 0.12714 0.56624 0.0
C162 C 0.91288 0.19952 0.56244 0.0
C163 C 0.8724 0.20222 0.52217 0.0
C164 C 0.87028 0.1294 0.51138 0.0
C165 C 0.85069 0.16668 0.49881 0.0
C166 C 0.9278 0.16262 0.60955 0.0
C167 C 0.0877 0.05783 0.6154 0.0
C168 C 0.93236 0.08926 0.55803 0.0
C169 C 0.86594 0.94093 0.35758 0.0
C170 C 0.89644 0.93566 0.22339 0.0
C171 C 1.02528 0.12502 0.85461 0.0
C172 C 0.16066 0.97149 0.99235 0.0
C173 C 0.17605 0.90297 0.04633 0.0
C174 C 0.19187 0.89617 0.92289 0.0
C175 C 0.17633 0.9656 0.86742 0.0
C176 C 0.16617 0.94205 0.08512 0.0
C177 C 0.19368 0.9283 0.83503 0.0
C178 C 0.97702 0.03276 0.97756 0.0
C179 C 0.13328 1.00467 1.02416 0.0
H180 H 0.86012 0.23077 0.48833 0.0
H181 H 0.85611 0.10313 0.46982 0.0
H182 H 0.8207 0.16815 0.45616 0.0
H183 H 0.95899 0.16114 0.64298 0.0
H184 H 0.19882 0.86572 0.89084 0.0
H185 H 0.17332 0.9887 0.79369 0.0
H186 H 0.15203 0.94647 0.17824 0.0
H187 H 0.20468 0.92317 0.73819 0.0
Tb188 Tb 0.5415 0.07093 0.91874 0.0
C189 C 0.54453 0.92356 0.56098 0.0
N190 N 0.55313 0.96213 0.52519 0.0
C191 C 0.60331 0.9373 0.37818 0.0
C192 C 0.56706 0.89058 0.51454 0.0
C193 C 0.58138 0.96917 0.43125 0.0
C194 C 0.59744 0.89817 0.42443 0.0
C195 C 0.49999 0.87761 0.6738 0.0
C196 C 0.51217 0.91721 0.64183 0.0
C197 C 0.52387 0.84474 0.63523 0.0
C198 C 0.55798 0.85134 0.5582 0.0
Tb199 Tb 0.51713 1.01215 0.62816 0.0
N200 N 0.49145 0.95008 0.684 0.0
C201 C 0.46365 0.87234 0.74009 0.0
C202 C 0.45458 0.945 0.73972 0.0
C203 C 0.44001 0.9062 0.76859 0.0
H204 H 0.58756 0.99949 0.397 0.0
H205 H 0.41095 0.90255 0.81474 0.0
H206 H 0.46266 0.08401 0.12286 0.0
H207 H 0.63931 0.1818 0.68679 0.0
H208 H 0.43581 0.97058 0.75775 0.0
H209 H 0.45292 0.84236 0.76532 0.0
H210 H 0.61351 0.11452 0.73071 0.0
H211 H 0.62595 0.94322 0.30553 0.0
H212 H 0.51565 0.81423 0.66271 0.0
H213 H 0.57648 0.82586 0.53063 0.0
H214 H 0.42332 0.14083 0.20711 0.0
H215 H 0.61657 0.87441 0.38902 0.0
H216 H 0.6054 0.24159 0.77951 0.0
N217 N 0.50223 0.12097 1.0099 0.0
C218 C 0.51343 0.15963 0.98174 0.0
C219 C 0.44795 0.14649 0.14119 0.0
C220 C 0.49038 0.19288 0.02449 0.0
C221 C 0.47026 0.11421 0.09141 0.0
C222 C 0.45696 0.18592 0.10327 0.0
N223 N 0.56722 0.13322 0.85835 0.0
C224 C 0.59932 0.13906 0.77785 0.0
C225 C 0.56092 0.20585 0.88129 0.0
C226 C 0.54807 0.16599 0.9094 0.0
C227 C 0.59473 0.21147 0.80338 0.0
C228 C 0.61383 0.17786 0.75069 0.0
H229 H 0.43911 0.21087 0.14009 0.0
H230 H 0.48352 0.25739 1.01891 0.0
H231 H 0.54665 0.26951 0.89978 0.0
O232 O 0.59294 0.05433 0.02624 0.0
O233 O 0.51191 0.10881 0.75992 0.0
O234 O 0.5352 0.07512 0.58741 0.0
O235 O 0.54371 0.08453 0.11717 0.0
O236 O 0.59972 0.05054 0.81237 0.0
O237 O 0.58117 0.03233 0.60586 0.0
O238 O 0.46131 1.00929 0.5319 0.0
O239 O 0.5508 0.97552 0.77925 0.0
O240 O 0.52473 1.00602 0.95309 0.0
O241 O 0.51638 1.01826 0.42629 0.0
O242 O 0.46083 0.03876 0.73205 0.0
O243 O 0.48036 0.04334 0.94192 0.0
C244 C 0.51875 0.10809 0.63417 0.0
C245 C 0.60782 0.09982 0.19378 0.0
C246 C 0.67169 0.13394 0.17689 0.0
C247 C 0.67104 0.14146 0.31193 0.0
C248 C 0.60981 0.10229 0.32852 0.0
C249 C 0.63952 0.12619 0.38665 0.0
C250 C 0.63563 0.12112 0.11913 0.0
C251 C 0.61016 0.03973 0.69139 0.0
C252 C 0.5801 0.07163 0.13128 0.0
C253 C 0.50219 0.23213 0.99181 0.0
C254 C 0.53805 0.23882 0.9243 0.0
C255 C 0.54378 0.97436 0.90433 0.0
C256 C 0.46714 0.97749 0.32962 0.0
C257 C 0.41502 0.92761 0.29981 0.0
C258 C 0.41608 0.93475 0.16546 0.0
C259 C 0.46519 0.98789 0.20038 0.0
C260 C 0.44836 0.94177 0.37187 0.0
C261 C 0.44087 0.96548 0.11795 0.0
C262 C 0.45051 0.04308 0.85663 0.0
C263 C 0.47844 1.00952 0.41936 0.0
H264 H 0.69666 0.15464 0.36246 0.0
H265 H 0.58903 0.08546 0.38817 0.0
H266 H 0.63978 0.13033 0.49003 0.0
H267 H 0.63348 0.11979 1.01513 0.0
H268 H 0.394 0.92149 0.10022 0.0
H269 H 0.48079 1.01446 0.16565 0.0
H270 H 0.44987 0.93408 0.47282 0.0
H271 H 0.44107 0.97275 1.01739 0.0
Tb272 Tb 0.58595 0.52708 0.65711 0.0
C273 C 0.45146 0.48397 1.00397 0.0
N274 N 0.44933 0.51058 0.90399 0.0
C275 C 0.39016 0.47626 0.823 0.0
C276 C 0.42475 0.45076 1.01225 0.0
C277 C 0.41739 0.50869 0.81926 0.0
C278 C 0.39421 0.44678 0.91882 0.0
C279 C 0.48862 0.45965 0.19045 0.0
C280 C 0.48269 0.48858 0.09234 0.0
C281 C 0.46276 0.42595 0.19768 0.0
C282 C 0.43059 0.42172 0.10965 0.0
Tb283 Tb 0.50152 0.5568 0.89085 0.0
N284 N 0.50839 0.52055 0.07844 0.0
C285 C 0.52 0.46586 0.27942 0.0
C286 C 0.53596 0.52891 0.17311 0.0
C287 C 0.5425 0.5015 0.2732 0.0
H288 H 0.41231 0.53206 0.74863 0.0
H289 H 0.56463 0.50831 0.34574 0.0
H290 H 0.67152 0.49607 0.80992 0.0
H291 H 0.59662 0.64276 0.28359 0.0
H292 H 0.55274 0.5568 0.17326 0.0
H293 H 0.52571 0.44446 0.35674 0.0
H294 H 0.57997 0.57464 0.36825 0.0
H295 H 0.36564 0.4744 0.75331 0.0
H296 H 0.46652 0.40389 0.274 0.0
H297 H 0.41057 0.39583 0.11736 0.0
H298 H 0.72959 0.52895 0.91833 0.0
H299 H 0.3732 0.42156 0.92116 0.0
H300 H 0.6382 0.6898 0.41315 0.0
N301 N 0.64753 0.55115 0.73569 0.0
C302 C 0.65528 0.5908 0.714 0.0
C303 C 0.70884 0.54691 0.86111 0.0
C304 C 0.68767 0.61113 0.77447 0.0
C305 C 0.67633 0.52816 0.79711 0.0
C306 C 0.71279 0.58907 0.85639 0.0
N307 N 0.60856 0.5846 0.54925 0.0
C308 C 0.59851 0.5947 0.4249 0.0
C309 C 0.6463 0.64709 0.56955 0.0
C310 C 0.6349 0.60846 0.61466 0.0
C311 C 0.6307 0.66021 0.45142 0.0
C312 C 0.60777 0.63333 0.37704 0.0
H313 H 0.73631 0.60436 0.91027 0.0
H314 H 0.72019 0.66813 0.79013 0.0
H315 H 0.68368 0.69989 0.60785 0.0
O316 O 0.58712 0.46862 0.56932 0.0
O317 O 0.54685 0.58005 0.60723 0.0
O318 O 0.53457 0.60924 0.80004 0.0
O319 O 0.62789 0.51515 0.51214 0.0
O320 O 0.52132 0.51454 0.57553 0.0
O321 O 0.47742 0.5548 0.69219 0.0
O322 O 0.47745 0.58768 0.04905 0.0
O323 O 0.51214 0.49014 0.84275 0.0
O324 O 0.5795 0.48205 0.81828 0.0
O325 O 0.45367 0.59813 0.85793 0.0
O326 O 0.56401 0.5765 0.95893 0.0
O327 O 0.60229 0.52662 0.86964 0.0
C328 C 0.5396 0.61334 0.67418 0.0
C329 C 0.64949 0.44918 0.47026 0.0
C330 C 0.67964 0.40004 0.32519 0.0
C331 C 0.71561 0.40134 0.39835 0.0
C332 C 0.68483 0.44857 0.54585 0.0
C333 C 0.71791 0.42514 0.50922 0.0
C334 C 0.64693 0.42469 0.3602 0.0
C335 C 0.4841 0.53071 0.59296 0.0
C336 C 0.61685 0.47818 0.49423 0.0
C337 C 0.69589 0.65169 0.74253 0.0
C338 C 0.67519 0.66972 0.63889 0.0
C339 C 0.54519 0.46839 0.86723 0.0
C340 C 0.41467 0.62276 0.03574 0.0
C341 C 0.38373 0.66912 0.18871 0.0
C342 C 0.34575 0.6519 0.16368 0.0
C343 C 0.37669 0.60611 1.0076 0.0
C344 C 0.41725 0.65562 0.11974 0.0
C345 C 0.34226 0.62082 0.07137 0.0
C346 C 0.59801 0.55488 0.9596 0.0
C347 C 0.45268 0.6088 0.97851 0.0
H348 H 0.74071 0.3816 0.37494 0.0
H349 H 0.68761 0.46715 0.63028 0.0
H350 H 0.74525 0.42519 0.56758 0.0
H351 H 0.61892 0.42355 0.30482 0.0
H352 H 0.31917 0.66262 0.21378 0.0
H353 H 0.37381 0.58253 0.93557 0.0
H354 H 0.44566 0.67158 0.13053 0.0
H355 H 0.31291 0.60811 0.04932 0.0
Tb356 Tb 0.04525 0.5848 0.68055 0.0
C357 C 0.09312 0.43777 0.98716 0.0
N358 N 0.06696 0.44357 0.88644 0.0
C359 C 0.08923 0.38097 0.79136 0.0
C360 C 0.11981 0.40432 0.98972 0.0
C361 C 0.06318 0.41429 0.79332 0.0
C362 C 0.11785 0.37605 0.88943 0.0
C363 C 0.12432 0.46364 0.18317 0.0
C364 C 0.09459 0.46666 0.08488 0.0
C365 C 0.15088 0.43047 0.1857 0.0
C366 C 0.14822 0.40056 0.09036 0.0
Tb367 Tb 1.02441 0.49833 0.9053 0.0
N368 N 0.0692 0.49926 0.07767 0.0
C369 C 0.12779 0.49495 0.273 0.0
C370 C 0.07219 0.52914 0.16843 0.0
C371 C 0.10169 0.52779 0.26559 0.0
H372 H 0.03904 0.41511 0.72313 0.0
H373 H 0.10414 0.55212 0.33523 0.0
H374 H 1.02784 0.66921 0.86189 0.0
H375 H 0.98402 0.54172 0.2172 0.0
H376 H 0.0523 0.55431 0.16839 0.0
H377 H 0.15042 0.49395 0.34845 0.0
H378 H 0.0293 0.53608 0.40327 0.0
H379 H 0.08638 0.35834 0.71647 0.0
H380 H 0.1738 0.42784 0.26069 0.0
H381 H 0.16895 0.37515 0.09357 0.0
H382 H 0.97574 0.72131 0.87774 0.0
H383 H 0.13775 0.34997 0.88802 0.0
H384 H 0.93798 0.5999 0.19749 0.0
N385 N 0.99946 0.63736 0.70562 0.0
C386 C 0.97337 0.64262 0.6041 0.0
C387 C 0.97373 0.6985 0.80271 0.0
C388 C 0.94507 0.67468 0.60214 0.0
C389 C 1.00223 0.66728 0.7974 0.0
C390 C 0.94421 0.70153 0.70665 0.0
N391 N 1.00395 0.58628 0.50302 0.0
C392 C 1.00763 0.56017 0.40148 0.0
C393 C 0.95275 0.62368 0.38706 0.0
C394 C 0.97704 0.61752 0.49731 0.0
C395 C 0.9564 0.59663 0.28387 0.0
C396 C 0.98265 0.56391 0.29353 0.0
H397 H 0.92292 0.72647 0.7089 0.0
H398 H 0.89833 0.70489 0.49007 0.0
H399 H 0.90529 0.66035 0.30115 0.0
O400 O 0.0934 0.59273 0.55204 0.0
O401 O 0.98373 0.55536 0.65533 0.0
O402 O 0.96577 0.531 0.85203 0.0
O403 O 0.05898 0.64353 0.61708 0.0
O404 O 0.06427 0.52293 0.60172 0.0
O405 O 1.0163 0.48349 0.69654 0.0
O406 O 1.00441 0.46706 0.06892 0.0
O407 O 0.08996 0.50835 0.85159 0.0
O408 O 0.09579 0.57604 0.83005 0.0
O409 O 0.98602 0.4482 0.87885 0.0
O410 O 1.00723 0.55983 0.99348 0.0
O411 O 0.05025 0.6023 0.88643 0.0
C412 C 0.95472 0.54561 0.73691 0.0
C413 C 0.12824 0.65336 0.597 0.0
C414 C 0.20005 0.64413 0.60147 0.0
C415 C 0.20397 0.66915 0.70998 0.0
C416 C 0.13112 0.67905 0.70565 0.0
C417 C 0.16933 0.68826 0.75848 0.0
C418 C 0.16308 0.64033 0.53839 0.0
C419 C 0.04265 0.48859 0.60293 0.0
C420 C 0.09112 0.63218 0.55853 0.0
C421 C 0.92018 0.68043 0.49311 0.0
C422 C 0.92442 0.65536 0.38514 0.0
C423 C 0.11205 0.54138 0.87099 0.0
C424 C 0.94001 0.43989 0.04289 0.0
C425 C 0.88266 0.47533 0.12593 0.0
C426 C 0.85929 0.4399 0.12096 0.0
C427 C 0.91729 0.40394 0.03627 0.0
C428 C 0.92216 0.47535 0.08451 0.0
C429 C 0.8768 0.40404 0.07562 0.0
C430 C 1.02493 0.59631 0.98199 0.0
C431 C 0.98169 0.4424 1.00175 0.0
H432 H 0.23276 0.6722 0.75976 0.0
H433 H 0.10423 0.69015 0.75322 0.0
H434 H 0.17163 0.70736 0.84329 0.0
H435 H 0.16069 0.61964 0.45708 0.0
H436 H 0.82806 0.44007 0.15202 0.0
H437 H 0.93037 0.37629 0.99962 0.0
H438 H 0.93912 0.50354 0.08479 0.0
H439 H 0.85908 0.37646 0.07087 0.0
C440 C 0.17607 0.09571 0.38434 0.0
C441 C 0.19457 0.05977 0.33715 0.0
C442 C 0.14086 0.09534 0.46649 0.0
C443 C 0.12174 0.05905 0.50934 0.0
H444 H 0.19037 0.12449 0.36399 0.0
H445 H 0.13014 0.12401 0.50363 0.0
S446 S 0.16708 0.9567 0.45 0.0
N447 N 0.19356 0.98692 0.35637 0.0
N448 N 0.13421 0.9863 0.52248 0.0
C449 C 0.14267 1.02316 0.47094 0.0
C450 C 0.17638 1.02351 0.38127 0.0
C451 C 0.52433 0.17424 0.32426 0.0
C452 C 0.5203 0.21563 0.36032 0.0
C453 C 0.52143 0.14114 0.4109 0.0
C454 C 0.51424 0.14582 0.54395 0.0
H455 H 0.5321 0.16664 0.22729 0.0
H456 H 0.52541 0.11106 0.37167 0.0
S457 S 0.48014 0.24451 0.6814 0.0
N458 N 0.49675 0.25731 0.53738 0.0
N459 N 0.48725 0.19506 0.69578 0.0
C460 C 0.5035 0.18621 0.57949 0.0
C461 C 0.50768 0.22071 0.4902 0.0
C462 C 0.40179 0.48531 0.34957 0.0
C463 C 0.37395 0.51726 0.32502 0.0
C464 C 0.43771 0.48985 0.42917 0.0
C465 C 0.44808 0.52649 0.49365 0.0
H466 H 0.39383 0.45541 0.31542 0.0
H467 H 0.45584 0.46327 0.44864 0.0
S468 S 0.3748 0.61208 0.51696 0.0
N469 N 0.35446 0.58275 0.40546 0.0
N470 N 0.41863 0.59113 0.55497 0.0
C471 C 0.41817 0.55738 0.47966 0.0
C472 C 0.38251 0.55294 0.39635 0.0
C473 C 0.08302 0.40055 0.38564 0.0
C474 C 0.04799 0.38297 0.32651 0.0
C475 C 0.08239 0.43528 0.46693 0.0
C476 C 0.0461 0.45457 0.49726 0.0
H477 H 0.11184 0.38577 0.37162 0.0
H478 H 0.11035 0.44569 0.51102 0.0
S479 S 0.93312 0.42485 0.38663 0.0
N480 N 0.9848 0.42931 0.41228 0.0
N481 N 0.97304 0.44803 0.45357 0.0
C482 C 1.00889 0.43455 0.43354 0.0
C483 C 1.00845 0.39951 0.34954 0.0
C484 C 0.89648 0.06061 0.24686 0.0
C485 C 0.88658 1.02661 0.32702 0.0
C486 C 0.92474 0.06148 0.14085 0.0
C487 C 0.94411 1.02728 0.08442 0.0
H488 H 0.87878 0.08786 0.25977 0.0
H489 H 0.92984 0.0906 0.09582 0.0
S490 S 0.96082 0.90402 0.23723 0.0
N491 N 0.93337 0.93541 0.38368 0.0
N492 N 0.95399 0.94824 0.10507 0.0
C493 C 0.93297 0.99011 0.1415 0.0
C494 C 0.91475 0.99262 0.30208 0.0
C495 C 0.50762 0.88001 0.09564 0.0
C496 C 0.54162 0.85657 0.13524 0.0
C497 C 0.50991 0.91424 1.01434 0.0
C498 C 0.54583 0.93328 0.97936 0.0
H499 H 0.47757 0.8716 0.12561 0.0
H500 H 0.48256 0.92523 0.97367 0.0
S501 S 0.64686 0.88749 0.04773 0.0
N502 N 0.61534 0.85525 0.11671 0.0
N503 N 0.6188 0.92413 0.98507 0.0
C504 C 0.58122 0.91147 1.01795 0.0
C505 C 0.57926 0.87325 0.09268 0.0
C506 C 0.67516 0.60666 0.20546 0.0
C507 C 0.70073 0.57529 0.25392 0.0
C508 C 0.6423 0.59986 0.11533 0.0
C509 C 0.63231 0.56114 0.06482 0.0
H510 H 0.68045 0.63742 0.23696 0.0
H511 H 0.62512 0.62579 0.08206 0.0
S512 S 0.69777 0.47113 0.12442 0.0
N513 N 0.7184 0.50567 0.21852 0.0
N514 N 0.65705 0.49189 0.05885 0.0
C515 C 0.65892 0.52979 0.10852 0.0
C516 C 0.69264 0.53703 0.19899 0.0
C517 C 0.99176 0.6935 0.1836 0.0
C518 C 1.02631 0.70409 0.25955 0.0
C519 C 0.99009 0.65783 0.1023 0.0
C520 C 1.02313 0.6303 0.08843 0.0
H521 H 0.96633 0.71415 0.18142 0.0
H522 H 0.96292 0.65268 0.0455 0.0
S523 S 0.1236 0.64871 0.2396 0.0
N524 N 0.09564 0.68511 0.30124 0.0
N525 N 0.09351 0.62171 0.14561 0.0
C526 C 0.05801 0.64165 0.16013 0.0
C527 C 0.05921 0.67685 0.24598 0.0
C528 C 0.98886 0.27619 0.45224 0.0
C529 C 1.01041 0.25398 0.35611 0.0
C530 C 0.95675 0.25923 0.51994 0.0
C531 C 0.94233 0.22129 0.48466 0.0
H532 H 0.99609 0.3073 0.47532 0.0
H533 H 0.94291 0.27593 0.59817 0.0
S534 S 0.9793 0.15441 0.22545 0.0
N535 N 1.01321 0.19108 0.235 0.0
N536 N 0.94478 0.16551 0.33257 0.0
C537 C 0.95998 0.20077 0.38059 0.0
C538 C 0.99598 0.21539 0.32422 0.0
C539 C 0.35071 0.9979 0.41889 0.0
C540 C 0.32339 0.99651 0.31519 0.0
C541 C 0.37203 0.96313 0.45392 0.0
C542 C 0.37466 0.93081 0.3641 0.0
H543 H 0.35542 1.02568 0.47269 0.0
H544 H 0.39314 0.96588 0.53372 0.0
S545 S 0.28918 0.90315 0.14827 0.0
N546 N 0.28144 0.95138 0.18417 0.0
N547 N 0.33105 0.88976 0.22581 0.0
C548 C 0.3398 0.92494 0.28788 0.0
C549 C 0.3138 0.95834 0.2629 0.0
C550 C 0.64714 0.29341 0.27256 0.0
C551 C 0.62544 0.291 0.15441 0.0
C552 C 0.66995 0.32717 0.31281 0.0
C553 C 0.67131 0.36434 0.24584 0.0
H554 H 0.64185 0.27097 0.34661 0.0
H555 H 0.68204 0.32574 0.41044 0.0
S556 S 0.62166 0.38141 0.8313 0.0
N557 N 0.61297 0.3217 0.91469 0.0
N558 N 0.65213 0.40193 1.00973 0.0
C559 C 0.65533 0.36495 0.12125 0.0
C560 C 0.63323 0.31815 0.06508 0.0
C561 C 0.26245 0.59195 0.36931 0.0
C562 C 0.24664 0.55244 0.38076 0.0
C563 C 0.25349 0.62202 0.45918 0.0
C564 C 0.22902 0.61313 0.56487 0.0
H565 H 0.28274 0.59923 0.29139 0.0
H566 H 0.26292 0.65291 0.44031 0.0
S567 S 0.18356 0.51341 0.64347 0.0
N568 N 0.20797 0.50547 0.50783 0.0
N569 N 0.192 0.56132 0.68211 0.0
C570 C 0.21625 0.57274 0.58347 0.0
C571 C 0.22381 0.54289 0.4884 0.0
C572 C 0.13378 0.83356 0.29514 0.0
C573 C 0.09218 0.83701 0.26722 0.0
C574 C 0.16248 0.85272 0.21771 0.0
C575 C 0.15007 0.87289 0.10546 0.0
H576 H 0.14395 0.81484 0.37486 0.0
H577 H 0.19416 0.852 0.2455 0.0
S578 S 0.04491 0.88683 0.9855 0.0
N579 N 0.04022 0.86173 0.12232 0.0
N580 N 0.09398 0.89391 0.96694 0.0
C581 C 0.10859 0.8752 0.07469 0.0
C582 C 0.07966 0.8588 0.1591 0.0
C583 C 0.76574 0.09854 0.25114 0.0
C584 C 0.75442 0.05768 0.23264 0.0
C585 C 0.74551 0.12949 0.18528 0.0
C586 C 0.71009 0.11977 0.11629 0.0
H587 H 0.78924 0.1064 0.32027 0.0
H588 H 0.75147 0.16054 0.21393 0.0
S589 S 0.68985 1.01892 0.96835 0.0
N590 N 0.72094 1.0097 0.09049 0.0
N591 N 0.68437 0.06869 0.96369 0.0
C592 C 0.70866 0.08 0.06393 0.0
C593 C 0.72846 0.04816 0.13084 0.0
C594 C 0.44561 0.72553 0.42266 0.0
C595 C 0.45046 0.75986 0.34488 0.0
C596 C 0.4189 0.69518 0.38252 0.0
C597 C 0.39093 0.70217 0.28182 0.0
H598 H 0.46506 0.71926 0.50371 0.0
H599 H 0.42514 0.66503 0.41611 0.0
S600 S 0.36689 0.80277 0.14635 0.0
N601 N 0.40857 0.8101 0.23285 0.0
N602 N 0.35545 0.75423 0.16089 0.0
C603 C 0.38562 0.74226 0.24193 0.0
C604 C 0.41502 0.77199 0.27762 0.0
C605 C 0.87228 0.57049 0.3178 0.0
C606 C 0.83797 0.5882 0.26276 0.0
C607 C 0.88509 0.53223 0.27821 0.0
C608 C 0.86714 0.51372 0.1708 0.0
H609 H 0.88497 0.5828 0.40521 0.0
H610 H 0.90858 0.51687 0.33286 0.0
S611 S 0.80884 0.5668 0.92143 0.0
N612 N 0.80808 0.5976 0.04717 0.0
N613 N 0.83355 0.52609 0.96771 0.0
C614 C 0.84284 0.53705 0.09077 0.0
C615 C 0.82908 0.57535 0.13461 0.0
C616 C 0.06331 0.22961 1.00684 0.0
C617 C 1.02875 0.25099 0.05112 0.0
C618 C 0.06107 0.19227 0.93434 0.0
C619 C 1.02457 0.17053 0.90815 0.0
H620 H 0.09295 0.24149 0.03123 0.0
H621 H 0.08888 0.18011 0.89801 0.0
S622 S 0.92355 0.21591 0.9785 0.0
N623 N 0.95528 0.24989 0.03924 0.0
N624 N 0.95156 0.17939 0.91606 0.0
C625 C 0.98939 0.19353 0.9408 0.0
C626 C 0.99143 0.23304 1.00927 0.0
C627 C 0.34415 1.0116 1.01007 0.0
C628 C 0.32755 0.04738 0.06525 0.0
C629 C 0.38012 1.01098 0.93228 0.0
C630 C 0.40478 0.04568 0.90727 0.0
H631 H 0.32916 0.98309 0.02472 0.0
H632 H 0.38869 0.98182 0.89511 0.0
S633 S 0.36487 0.14963 0.97204 0.0
N634 N 0.3326 0.12043 0.05004 0.0
N635 N 0.3989 0.11909 0.90733 0.0
C636 C 0.38517 0.08236 0.94605 0.0
C637 C 0.34775 0.08316 1.02389 0.0
C638 C 0.59098 0.37283 0.03705 0.0
C639 C 0.55476 0.34597 0.07248 0.0
C640 C 0.57711 0.41608 0.02771 0.0
C641 C 0.54491 0.42716 0.9438 0.0
H642 H 0.65946 0.35126 0.94258 0.0
H643 H 0.59702 0.44106 0.05045 0.0
S644 S 0.46014 0.35646 0.87429 0.0
N645 N 0.48821 0.33158 0.98026 0.0
N646 N 0.4835 0.39999 0.8495 0.0
C647 C 0.51598 0.39605 0.9295 0.0
C648 C 0.51915 0.35782 1.00109 0.0
C649 C 0.21306 0.4968 0.03435 0.0
C650 C 0.23455 0.53009 0.08872 0.0
C651 C 0.17584 0.50108 0.96121 0.0
C652 C 0.15526 0.53867 0.9408 0.0
H653 H 0.22494 0.46661 0.04957 0.0
H654 H 0.16302 0.47399 0.91941 0.0
S655 S 0.20271 0.63713 0.03471 0.0
N656 N 0.23457 0.60351 0.09471 0.0
N657 N 0.16569 0.61108 0.96537 0.0
C658 C 0.17795 0.5725 0.98769 0.0
C659 C 0.21648 0.56829 0.05982 0.0
C660 C 0.07477 0.86718 0.54844 0.0
C661 C 0.04012 0.84386 0.50965 0.0
C662 C 0.07284 0.9044 0.62217 0.0
C663 C 0.03604 0.92208 0.66525 0.0
H664 H 0.10448 0.85652 0.5231 0.0
H665 H 0.10097 0.91975 0.64464 0.0
S666 S 0.93597 0.87107 0.61512 0.0
N667 N 0.96728 0.84123 0.53587 0.0
N668 N 0.96387 0.90815 0.67594 0.0
C669 C 1.00129 0.89783 0.63422 0.0
C670 C 1.00322 0.86006 0.55766 0.0
C671 C 0.72152 0.0685 0.56287 0.0
C672 C 0.73771 1.03181 0.51228 0.0
C673 C 0.68269 0.07074 0.62739 0.0
C674 C 0.65594 0.03683 0.6434 0.0
H675 H 0.73868 0.09617 0.55068 0.0
H676 H 0.6737 0.10009 0.66226 0.0
S677 S 0.68759 0.9319 0.55542 0.0
N678 N 0.72535 0.95977 0.50134 0.0
N679 N 0.65467 0.96373 0.61921 0.0
C680 C 0.67338 0.99978 0.59962 0.0
C681 C 0.71292 0.99745 0.53526 0.0
C682 C 0.54644 0.72958 0.57252 0.0
C683 C 0.53607 0.72959 0.4384 0.0
C684 C 0.54689 0.69311 0.6501 0.0
C685 C 0.53589 0.6544 0.59961 0.0
H686 H 0.55403 0.75792 0.61879 0.0
H687 H 0.55619 0.69536 0.75033 0.0
S688 S 0.50838 0.63703 0.2568 0.0
N689 N 0.51887 0.68584 0.25973 0.0
N690 N 0.51277 0.62046 0.40573 0.0
C691 C 0.52481 0.65476 0.46715 0.0
C692 C 0.52747 0.69089 0.38687 0.0
C693 C 0.85 0.52361 0.55196 0.0
C694 C 0.82878 0.56139 0.55105 0.0
C695 C 0.8891 0.51811 0.61499 0.0
C696 C 0.90902 0.54888 0.68946 0.0
H697 H 0.83847 0.49922 0.49205 0.0
H698 H 0.90465 0.48963 0.60071 0.0
S699 S 0.86022 0.64842 0.75743 0.0
N700 N 0.82867 0.62738 0.65248 0.0
N701 N 0.89744 0.61561 0.78017 0.0
C702 C 0.88546 0.58477 0.70205 0.0
C703 C 0.84691 0.59113 0.63253 0.0
loop_
_geom_bond_atom_site_label_1
_geom_bond_atom_site_label_2
_geom_bond_distance
_geom_bond_site_symmetry_2
_ccdc_geom_bond_type
C0 N1 1.317 . S
C0 N2 1.348 . S
C0 C3 1.485 . S
N1 C0 1.317 . S
N1 N5 1.370 . S
N2 C0 1.348 . S
N2 C4 1.346 . S
C3 C0 1.485 . S
C3 H7 0.960 . S
C3 H8 0.961 . S
C3 H9 0.960 . S
C4 N2 1.346 . S
C4 N5 1.307 . S
C4 C6 1.486 . S
N5 N1 1.370 . S
N5 C4 1.307 . S
C6 C4 1.486 . S
C6 H10 0.960 . S
C6 H11 0.960 . S
C6 H12 0.959 . S
H7 C3 0.960 . S
H8 C3 0.961 . S
H9 C3 0.960 . S
H10 C6 0.960 . S
H11 C6 0.960 . S
H12 C6 0.959 . S
C13 N14 1.317 . S
C13 N15 1.348 . S
C13 C16 1.485 . S
N14 C13 1.317 . S
N14 N18 1.370 . S
N15 C13 1.348 . S
N15 C17 1.346 . S
C16 C13 1.485 . S
C16 H20 0.960 1_655 S
C16 H21 0.961 . S
C16 H22 0.960 . S
C17 N15 1.346 . S
C17 N18 1.307 . S
C17 C19 1.486 . S
N18 N14 1.370 . S
N18 C17 1.307 . S
C19 C17 1.486 . S
C19 H23 0.960 . S
C19 H24 0.960 1_655 S
C19 H25 0.959 . S
H20 C16 0.960 1_455 S
H21 C16 0.961 . S
H22 C16 0.960 . S
H23 C19 0.960 . S
H24 C19 0.960 1_455 S
H25 C19 0.959 . S
C26 N27 1.317 . S
C26 N28 1.348 . S
C26 C29 1.485 . S
N27 C26 1.317 . S
N27 N31 1.370 . S
N28 C26 1.348 . S
N28 C30 1.346 . S
C29 C26 1.485 . S
C29 H33 0.960 1_565 S
C29 H34 0.961 . S
C29 H35 0.960 . S
C30 N28 1.346 . S
C30 N31 1.307 . S
C30 C32 1.486 . S
N31 N27 1.370 . S
N31 C30 1.307 . S
C32 C30 1.486 . S
C32 H36 0.960 . S
C32 H37 0.960 1_565 S
C32 H38 0.959 . S
H33 C29 0.960 1_545 S
H34 C29 0.961 . S
H35 C29 0.960 . S
H36 C32 0.960 . S
H37 C32 0.960 1_545 S
H38 C32 0.959 . S
C39 N40 1.317 . S
C39 N41 1.348 . S
C39 C42 1.485 . S
N40 C39 1.317 . S
N40 N44 1.370 . S
N41 C39 1.348 . S
N41 C43 1.346 . S
C42 C39 1.485 . S
C42 H46 0.960 . S
C42 H47 0.961 . S
C42 H48 0.960 . S
C43 N41 1.346 . S
C43 N44 1.307 . S
C43 C45 1.486 . S
N44 N40 1.370 . S
N44 C43 1.307 . S
C45 C43 1.486 . S
C45 H49 0.960 . S
C45 H50 0.960 . S
C45 H51 0.959 . S
H46 C42 0.960 . S
H47 C42 0.961 . S
H48 C42 0.960 . S
H49 C45 0.960 . S
H50 C45 0.960 . S
H51 C45 0.959 . S
C52 N53 1.317 . S
C52 N54 1.348 1_556 S
C52 C55 1.485 . S
N53 C52 1.317 . S
N53 N57 1.370 1_556 S
N54 C52 1.348 1_554 S
N54 C56 1.346 . S
C55 C52 1.485 . S
C55 H59 0.960 . S
C55 H60 0.961 . S
C55 H61 0.960 . S
C56 N54 1.346 . S
C56 N57 1.307 . S
C56 C58 1.486 . S
N57 N53 1.370 1_554 S
N57 C56 1.307 . S
C58 C56 1.486 . S
C58 H62 0.960 . S
C58 H63 0.960 . S
C58 H64 0.959 . S
H59 C55 0.960 . S
H60 C55 0.961 . S
H61 C55 0.960 . S
H62 C58 0.960 . S
H63 C58 0.960 . S
H64 C58 0.959 . S
C65 N66 1.317 . S
C65 N67 1.348 1_556 S
C65 C68 1.485 . S
N66 C65 1.317 . S
N66 N70 1.370 1_556 S
N67 C65 1.348 1_554 S
N67 C69 1.346 . S
C68 C65 1.485 . S
C68 H72 0.960 . S
C68 H73 0.961 . S
C68 H74 0.960 . S
C69 N67 1.346 . S
C69 N70 1.307 . S
C69 C71 1.486 . S
N70 N66 1.370 1_554 S
N70 C69 1.307 . S
C71 C69 1.486 . S
C71 H75 0.960 . S
C71 H76 0.960 . S
C71 H77 0.959 . S
H72 C68 0.960 . S
H73 C68 0.961 . S
H74 C68 0.960 . S
H75 C71 0.960 . S
H76 C71 0.960 . S
H77 C71 0.959 . S
C78 N79 1.317 . S
C78 N80 1.348 1_556 S
C78 C81 1.485 . S
N79 C78 1.317 . S
N79 N83 1.370 1_556 S
N80 C78 1.348 1_554 S
N80 C82 1.346 . S
C81 C78 1.485 . S
C81 H85 0.960 . S
C81 H86 0.961 . S
C81 H87 0.960 . S
C82 N80 1.346 . S
C82 N83 1.307 . S
C82 C84 1.486 . S
N83 N79 1.370 1_554 S
N83 C82 1.307 . S
C84 C82 1.486 . S
C84 H88 0.960 . S
C84 H89 0.960 . S
C84 H90 0.959 . S
H85 C81 0.960 . S
H86 C81 0.961 . S
H87 C81 0.960 . S
H88 C84 0.960 . S
H89 C84 0.960 . S
H90 C84 0.959 . S
C91 N92 1.317 . S
C91 N93 1.348 1_556 S
C91 C94 1.485 . S
N92 C91 1.317 . S
N92 N96 1.370 1_556 S
N93 C91 1.348 1_554 S
N93 C95 1.346 . S
C94 C91 1.485 . S
C94 H98 0.960 . S
C94 H99 0.961 . S
C94 H100 0.960 . S
C95 N93 1.346 . S
C95 N96 1.307 . S
C95 C97 1.486 . S
N96 N92 1.370 1_554 S
N96 C95 1.307 . S
C97 C95 1.486 . S
C97 H101 0.960 . S
C97 H102 0.960 . S
C97 H103 0.959 . S
H98 C94 0.960 . S
H99 C94 0.961 . S
H100 C94 0.960 . S
H101 C97 0.960 . S
H102 C97 0.960 . S
H103 C97 0.959 . S
Tb104 N133 2.617 . S
Tb104 N139 2.572 . S
Tb104 O148 2.465 . S
Tb104 O149 2.387 1_545 S
Tb104 O151 2.428 . S
Tb104 O152 2.308 1_655 S
Tb104 O156 2.344 1_655 S
Tb104 O159 2.393 . S
Tb104 C168 2.802 . S
C105 N106 1.379 1_554 S
C105 C108 1.416 . S
C105 C112 1.424 . S
N106 C105 1.379 1_556 S
N106 C109 1.334 . S
N106 Tb115 2.617 1_545 S
C107 C109 1.390 . S
C107 C110 1.339 1_556 S
C107 H127 0.930 . S
C108 C105 1.416 . S
C108 C110 1.416 . S
C108 C114 1.448 . S
C109 N106 1.334 . S
C109 C107 1.390 . S
C109 H120 0.930 1_545 S
C110 C107 1.339 1_554 S
C110 C108 1.416 . S
C110 H131 0.930 . S
C111 C112 1.413 . S
C111 C113 1.427 . S
C111 C117 1.416 . S
C112 C105 1.424 . S
C112 C111 1.413 . S
C112 N116 1.361 . S
C113 C111 1.427 . S
C113 C114 1.328 . S
C113 H128 0.929 . S
C114 C108 1.448 . S
C114 C113 1.328 . S
C114 H129 0.930 . S
Tb115 N106 2.617 1_565 S
Tb115 N116 2.572 1_566 S
Tb115 O150 2.349 . S
Tb115 O153 2.393 . S
Tb115 O154 2.465 1_556 S
Tb115 O155 2.387 1_565 S
Tb115 O157 2.428 . S
Tb115 O158 2.308 1_465 S
Tb115 C179 2.802 1_556 S
N116 C112 1.361 . S
N116 Tb115 2.572 1_544 S
N116 C118 1.340 . S
C117 C111 1.416 . S
C117 C119 1.332 . S
C117 H125 0.931 . S
C118 N116 1.340 . S
C118 C119 1.407 . S
C118 H124 0.930 . S
C119 C117 1.332 . S
C119 C118 1.407 . S
C119 H121 0.929 . S
H120 C109 0.930 1_565 S
H121 C119 0.929 . S
H122 C137 0.930 . S
H123 C144 0.929 1_455 S
H124 C118 0.930 . S
H125 C117 0.931 . S
H126 C140 0.930 1_445 S
H127 C107 0.930 . S
H128 C113 0.929 . S
H129 C114 0.930 . S
H130 C135 0.931 . S
H131 C110 0.930 . S
H132 C143 0.931 . S
N133 Tb104 2.617 . S
N133 C134 1.379 1_545 S
N133 C137 1.334 . S
C134 N133 1.379 1_565 S
C134 C136 1.416 . S
C134 C142 1.424 . S
C135 H130 0.931 . S
C135 C137 1.392 . S
C135 C138 1.336 1_545 S
C136 C134 1.416 . S
C136 C138 1.416 . S
C136 C169 1.448 . S
C137 H122 0.930 . S
C137 N133 1.334 . S
C137 C135 1.392 . S
C138 C135 1.336 1_565 S
C138 C136 1.416 . S
C138 H145 0.930 . S
N139 Tb104 2.572 . S
N139 C140 1.340 1_545 S
N139 C142 1.361 1_545 S
C140 H126 0.930 1_665 S
C140 N139 1.340 1_565 S
C140 C144 1.407 . S
C141 C142 1.413 . S
C141 C143 1.416 . S
C141 C170 1.427 . S
C142 C134 1.424 . S
C142 N139 1.361 1_565 S
C142 C141 1.413 . S
C143 H132 0.931 . S
C143 C141 1.416 . S
C143 C144 1.332 . S
C144 H123 0.929 1_655 S
C144 C140 1.407 . S
C144 C143 1.332 . S
H145 C138 0.930 . S
H146 C169 0.930 . S
H147 C170 0.929 . S
O148 Tb104 2.465 . S
O148 C168 1.264 . S
O149 Tb104 2.387 1_565 S
O149 C160 1.264 . S
O150 Tb115 2.349 . S
O150 C160 1.243 1_455 S
O151 Tb104 2.428 . S
O151 C168 1.256 . S
O152 Tb104 2.308 1_455 S
O152 C167 1.266 . S
O153 Tb115 2.393 . S
O153 C167 1.248 1_565 S
O154 Tb115 2.465 1_554 S
O154 C179 1.264 . S
O155 Tb115 2.387 1_545 S
O155 C171 1.264 . S
O156 Tb104 2.344 1_455 S
O156 C171 1.251 . S
O157 Tb115 2.428 . S
O157 C179 1.256 1_556 S
O158 Tb115 2.308 1_645 S
O158 C178 1.266 . S
O159 Tb104 2.393 . S
O159 C178 1.248 . S
C160 O149 1.264 . S
C160 O150 1.243 1_655 S
C161 C164 1.399 . S
C161 C166 1.383 . S
C161 C168 1.496 . S
C162 C163 1.399 . S
C162 C166 1.389 . S
C163 C162 1.399 . S
C163 C165 1.380 . S
C163 H180 0.929 . S
C164 C161 1.399 . S
C164 C165 1.392 . S
C164 H181 0.929 . S
C165 C163 1.380 . S
C165 C164 1.392 . S
C165 H182 0.929 . S
C166 C161 1.383 . S
C166 C162 1.389 . S
C166 H183 0.931 1_655 S
C167 O152 1.266 . S
C167 O153 1.248 1_545 S
C168 Tb104 2.802 . S
C168 O148 1.264 . S
C168 O151 1.256 . S
C168 C161 1.496 . S
C169 C136 1.448 . S
C169 H146 0.930 . S
C169 C170 1.328 . S
C170 C141 1.427 . S
C170 H147 0.929 . S
C170 C169 1.328 . S
C171 O155 1.264 . S
C171 O156 1.251 . S
C172 C175 1.399 . S
C172 C176 1.383 . S
C172 C179 1.496 . S
C173 C174 1.399 . S
C173 C176 1.389 . S
C174 C173 1.399 . S
C174 C177 1.380 . S
C174 H184 0.929 . S
C175 C172 1.399 . S
C175 C177 1.392 . S
C175 H185 0.929 . S
C176 C172 1.383 . S
C176 C173 1.389 . S
C176 H186 0.931 . S
C177 C174 1.380 . S
C177 C175 1.392 . S
C177 H187 0.929 . S
C178 O158 1.266 . S
C178 O159 1.248 . S
C179 Tb115 2.802 1_554 S
C179 O154 1.264 . S
C179 O157 1.256 1_554 S
C179 C172 1.496 . S
H180 C163 0.929 . S
H181 C164 0.929 . S
H182 C165 0.929 . S
H183 C166 0.931 1_455 S
H184 C174 0.929 . S
H185 C175 0.929 . S
H186 C176 0.931 . S
H187 C177 0.929 . S
Tb188 N217 2.617 . S
Tb188 N223 2.572 . S
Tb188 O232 2.465 1_556 S
Tb188 O233 2.387 . S
Tb188 O235 2.428 1_556 S
Tb188 O236 2.308 . S
Tb188 O240 2.349 1_545 S
Tb188 O243 2.393 . S
Tb188 C252 2.802 1_556 S
C189 N190 1.379 . S
C189 C192 1.416 . S
C189 C196 1.424 . S
N190 C189 1.379 . S
N190 C193 1.334 . S
N190 Tb199 2.617 . S
C191 C193 1.390 . S
C191 C194 1.339 . S
C191 H211 0.930 . S
C192 C189 1.416 . S
C192 C194 1.416 . S
C192 C198 1.448 . S
C193 N190 1.334 . S
C193 C191 1.390 . S
C193 H204 0.930 . S
C194 C191 1.339 . S
C194 C192 1.416 . S
C194 H215 0.930 . S
C195 C196 1.413 . S
C195 C197 1.427 . S
C195 C201 1.416 . S
C196 C189 1.424 . S
C196 C195 1.413 . S
C196 N200 1.361 . S
C197 C195 1.427 . S
C197 C198 1.328 . S
C197 H212 0.929 . S
C198 C192 1.448 . S
C198 C197 1.328 . S
C198 H213 0.930 . S
Tb199 N190 2.617 . S
Tb199 N200 2.572 . S
Tb199 O234 2.349 1_565 S
Tb199 O237 2.393 . S
Tb199 O238 2.465 . S
Tb199 O239 2.387 . S
Tb199 O241 2.428 . S
Tb199 O242 2.308 1_565 S
Tb199 C263 2.802 . S
N200 C196 1.361 . S
N200 Tb199 2.572 . S
N200 C202 1.340 . S
C201 C195 1.416 . S
C201 C203 1.332 . S
C201 H209 0.931 . S
C202 N200 1.340 . S
C202 C203 1.407 . S
C202 H208 0.930 . S
C203 C201 1.332 . S
C203 C202 1.407 . S
C203 H205 0.929 . S
H204 C193 0.930 . S
H205 C203 0.929 . S
H206 C221 0.930 . S
H207 C228 0.929 . S
H208 C202 0.930 . S
H209 C201 0.931 . S
H210 C224 0.930 . S
H211 C191 0.930 . S
H212 C197 0.929 . S
H213 C198 0.930 . S
H214 C219 0.930 . S
H215 C194 0.930 . S
H216 C227 0.931 . S
N217 Tb188 2.617 . S
N217 C218 1.379 . S
N217 C221 1.334 1_556 S
C218 N217 1.379 . S
C218 C220 1.416 . S
C218 C226 1.424 . S
C219 H214 0.930 . S
C219 C221 1.390 . S
C219 C222 1.339 . S
C220 C218 1.416 . S
C220 C222 1.416 1_556 S
C220 C253 1.448 . S
C221 H206 0.930 . S
C221 N217 1.334 1_554 S
C221 C219 1.390 . S
C222 C219 1.339 . S
C222 C220 1.416 1_554 S
C222 H229 0.930 . S
N223 Tb188 2.572 . S
N223 C224 1.340 . S
N223 C226 1.361 . S
C224 H210 0.930 . S
C224 N223 1.340 . S
C224 C228 1.407 . S
C225 C226 1.413 . S
C225 C227 1.416 . S
C225 C254 1.427 . S
C226 C218 1.424 . S
C226 N223 1.361 . S
C226 C225 1.413 . S
C227 H216 0.931 . S
C227 C225 1.416 . S
C227 C228 1.332 . S
C228 H207 0.929 . S
C228 C224 1.407 . S
C228 C227 1.332 . S
H229 C222 0.930 . S
H230 C253 0.930 . S
H231 C254 0.929 . S
O232 Tb188 2.465 1_554 S
O232 C252 1.264 . S
O233 Tb188 2.387 . S
O233 C244 1.264 . S
O234 Tb199 2.349 1_545 S
O234 C244 1.243 . S
O235 Tb188 2.428 1_554 S
O235 C252 1.256 . S
O236 Tb188 2.308 . S
O236 C251 1.266 1_545 S
O237 Tb199 2.393 . S
O237 C251 1.248 . S
O238 Tb199 2.465 . S
O238 C263 1.264 . S
O239 Tb199 2.387 . S
O239 C255 1.264 . S
O240 Tb188 2.349 1_565 S
O240 C255 1.243 . S
O241 Tb199 2.428 . S
O241 C263 1.256 . S
O242 Tb199 2.308 1_545 S
O242 C262 1.266 . S
O243 Tb188 2.393 . S
O243 C262 1.248 . S
C244 O233 1.264 . S
C244 O234 1.243 . S
C245 C248 1.399 . S
C245 C250 1.383 . S
C245 C252 1.496 . S
C246 C247 1.399 . S
C246 C250 1.389 . S
C247 C246 1.399 . S
C247 C249 1.380 . S
C247 H264 0.929 . S
C248 C245 1.399 . S
C248 C249 1.392 . S
C248 H265 0.929 . S
C249 C247 1.380 . S
C249 C248 1.392 . S
C249 H266 0.929 . S
C250 C245 1.383 . S
C250 C246 1.389 . S
C250 H267 0.931 . S
C251 O236 1.266 1_565 S
C251 O237 1.248 . S
C252 Tb188 2.802 1_554 S
C252 O232 1.264 . S
C252 O235 1.256 . S
C252 C245 1.496 . S
C253 C220 1.448 . S
C253 H230 0.930 . S
C253 C254 1.328 . S
C254 C225 1.427 . S
C254 H231 0.929 . S
C254 C253 1.328 . S
C255 O239 1.264 . S
C255 O240 1.243 . S
C256 C259 1.399 . S
C256 C260 1.383 . S
C256 C263 1.496 . S
C257 C258 1.399 . S
C257 C260 1.389 . S
C258 C257 1.399 . S
C258 C261 1.380 . S
C258 H268 0.929 . S
C259 C256 1.399 . S
C259 C261 1.392 . S
C259 H269 0.929 . S
C260 C256 1.383 . S
C260 C257 1.389 . S
C260 H270 0.931 . S
C261 C258 1.380 . S
C261 C259 1.392 . S
C261 H271 0.929 . S
C262 O242 1.266 . S
C262 O243 1.248 . S
C263 Tb199 2.802 . S
C263 O238 1.264 . S
C263 O241 1.256 . S
C263 C256 1.496 . S
H264 C247 0.929 . S
H265 C248 0.929 . S
H266 C249 0.929 . S
H267 C250 0.931 . S
H268 C258 0.929 . S
H269 C259 0.929 . S
H270 C260 0.931 . S
H271 C261 0.929 . S
Tb272 N301 2.617 . S
Tb272 N307 2.572 . S
Tb272 O316 2.465 . S
Tb272 O317 2.387 . S
Tb272 O319 2.428 . S
Tb272 O320 2.308 . S
Tb272 O324 2.349 . S
Tb272 O327 2.393 . S
Tb272 C336 2.802 . S
C273 N274 1.379 1_554 S
C273 C276 1.416 . S
C273 C280 1.424 . S
N274 C273 1.379 1_556 S
N274 C277 1.334 . S
N274 Tb283 2.617 . S
C275 C277 1.390 . S
C275 C278 1.339 1_556 S
C275 H295 0.930 . S
C276 C273 1.416 . S
C276 C278 1.416 . S
C276 C282 1.448 . S
C277 N274 1.334 . S
C277 C275 1.390 . S
C277 H288 0.930 . S
C278 C275 1.339 1_554 S
C278 C276 1.416 . S
C278 H299 0.930 . S
C279 C280 1.413 . S
C279 C281 1.427 . S
C279 C285 1.416 . S
C280 C273 1.424 . S
C280 C279 1.413 . S
C280 N284 1.361 . S
C281 C279 1.427 . S
C281 C282 1.328 . S
C281 H296 0.929 . S
C282 C276 1.448 . S
C282 C281 1.328 . S
C282 H297 0.930 . S
Tb283 N274 2.617 . S
Tb283 N284 2.572 1_556 S
Tb283 O318 2.349 . S
Tb283 O321 2.393 . S
Tb283 O322 2.465 1_556 S
Tb283 O323 2.387 . S
Tb283 O325 2.428 . S
Tb283 O326 2.308 . S
Tb283 C347 2.802 1_556 S
N284 C280 1.361 . S
N284 Tb283 2.572 1_554 S
N284 C286 1.340 . S
C285 C279 1.416 . S
C285 C287 1.332 . S
C285 H293 0.931 . S
C286 N284 1.340 . S
C286 C287 1.407 . S
C286 H292 0.930 . S
C287 C285 1.332 . S
C287 C286 1.407 . S
C287 H289 0.929 . S
H288 C277 0.930 . S
H289 C287 0.929 . S
H290 C305 0.930 . S
H291 C312 0.929 . S
H292 C286 0.930 . S
H293 C285 0.931 . S
H294 C308 0.930 . S
H295 C275 0.930 . S
H296 C281 0.929 . S
H297 C282 0.930 . S
H298 C303 0.930 . S
H299 C278 0.930 . S
H300 C311 0.931 . S
N301 Tb272 2.617 . S
N301 C302 1.379 . S
N301 C305 1.334 . S
C302 N301 1.379 . S
C302 C304 1.416 . S
C302 C310 1.424 . S
C303 H298 0.930 . S
C303 C305 1.390 . S
C303 C306 1.339 . S
C304 C302 1.416 . S
C304 C306 1.416 . S
C304 C337 1.448 . S
C305 H290 0.930 . S
C305 N301 1.334 . S
C305 C303 1.390 . S
C306 C303 1.339 . S
C306 C304 1.416 . S
C306 H313 0.930 . S
N307 Tb272 2.572 . S
N307 C308 1.340 . S
N307 C310 1.361 . S
C308 H294 0.930 . S
C308 N307 1.340 . S
C308 C312 1.407 . S
C309 C310 1.413 . S
C309 C311 1.416 . S
C309 C338 1.427 . S
C310 C302 1.424 . S
C310 N307 1.361 . S
C310 C309 1.413 . S
C311 H300 0.931 . S
C311 C309 1.416 . S
C311 C312 1.332 . S
C312 H291 0.929 . S
C312 C308 1.407 . S
C312 C311 1.332 . S
H313 C306 0.930 . S
H314 C337 0.930 . S
H315 C338 0.929 . S
O316 Tb272 2.465 . S
O316 C336 1.264 . S
O317 Tb272 2.387 . S
O317 C328 1.264 . S
O318 Tb283 2.349 . S
O318 C328 1.243 . S
O319 Tb272 2.428 . S
O319 C336 1.256 . S
O320 Tb272 2.308 . S
O320 C335 1.266 . S
O321 Tb283 2.393 . S
O321 C335 1.248 . S
O322 Tb283 2.465 1_554 S
O322 C347 1.264 . S
O323 Tb283 2.387 . S
O323 C339 1.264 . S
O324 Tb272 2.349 . S
O324 C339 1.243 . S
O325 Tb283 2.428 . S
O325 C347 1.256 1_556 S
O326 Tb283 2.308 . S
O326 C346 1.266 . S
O327 Tb272 2.393 . S
O327 C346 1.248 . S
C328 O317 1.264 . S
C328 O318 1.243 . S
C329 C332 1.399 . S
C329 C334 1.383 . S
C329 C336 1.496 . S
C330 C331 1.399 . S
C330 C334 1.389 . S
C331 C330 1.399 . S
C331 C333 1.380 . S
C331 H348 0.929 . S
C332 C329 1.399 . S
C332 C333 1.392 . S
C332 H349 0.929 . S
C333 C331 1.380 . S
C333 C332 1.392 . S
C333 H350 0.929 . S
C334 C329 1.383 . S
C334 C330 1.389 . S
C334 H351 0.931 . S
C335 O320 1.266 . S
C335 O321 1.248 . S
C336 Tb272 2.802 . S
C336 O316 1.264 . S
C336 O319 1.256 . S
C336 C329 1.496 . S
C337 C304 1.448 . S
C337 H314 0.930 . S
C337 C338 1.328 . S
C338 C309 1.427 . S
C338 H315 0.929 . S
C338 C337 1.328 . S
C339 O323 1.264 . S
C339 O324 1.243 . S
C340 C343 1.399 . S
C340 C344 1.383 . S
C340 C347 1.496 . S
C341 C342 1.399 . S
C341 C344 1.389 . S
C342 C341 1.399 . S
C342 C345 1.380 . S
C342 H352 0.929 . S
C343 C340 1.399 . S
C343 C345 1.392 . S
C343 H353 0.929 . S
C344 C340 1.383 . S
C344 C341 1.389 . S
C344 H354 0.931 . S
C345 C342 1.380 . S
C345 C343 1.392 . S
C345 H355 0.929 . S
C346 O326 1.266 . S
C346 O327 1.248 . S
C347 Tb283 2.802 1_554 S
C347 O322 1.264 . S
C347 O325 1.256 1_554 S
C347 C340 1.496 . S
H348 C331 0.929 . S
H349 C332 0.929 . S
H350 C333 0.929 . S
H351 C334 0.931 . S
H352 C342 0.929 . S
H353 C343 0.929 . S
H354 C344 0.931 . S
H355 C345 0.929 . S
Tb356 N385 2.617 . S
Tb356 N391 2.572 . S
Tb356 O400 2.465 . S
Tb356 O401 2.387 1_455 S
Tb356 O403 2.428 . S
Tb356 O404 2.308 . S
Tb356 O408 2.349 . S
Tb356 O411 2.393 . S
Tb356 C420 2.802 . S
C357 N358 1.379 1_554 S
C357 C360 1.416 . S
C357 C364 1.424 . S
N358 C357 1.379 1_556 S
N358 C361 1.335 1_455 S
N358 Tb367 2.617 1_455 S
C359 C361 1.391 1_455 S
C359 C362 1.339 1_556 S
C359 H379 0.930 . S
C360 C357 1.416 . S
C360 C362 1.416 . S
C360 C366 1.448 . S
C361 N358 1.335 1_655 S
C361 C359 1.391 1_655 S
C361 H372 0.929 . S
C362 C359 1.339 1_554 S
C362 C360 1.416 . S
C362 H383 0.930 . S
C363 C364 1.413 . S
C363 C365 1.427 . S
C363 C369 1.416 . S
C364 C357 1.424 . S
C364 C363 1.413 . S
C364 N368 1.361 . S
C365 C363 1.427 . S
C365 C366 1.328 . S
C365 H380 0.929 . S
C366 C360 1.448 . S
C366 C365 1.328 . S
C366 H381 0.930 . S
Tb367 N358 2.617 1_655 S
Tb367 N368 2.572 1_656 S
Tb367 O402 2.349 . S
Tb367 O405 2.393 . S
Tb367 O406 2.465 1_556 S
Tb367 O407 2.387 1_655 S
Tb367 O409 2.428 . S
Tb367 O410 2.308 1_655 S
Tb367 C431 2.802 1_556 S
N368 C364 1.361 . S
N368 Tb367 2.572 1_454 S
N368 C370 1.340 . S
C369 C363 1.416 . S
C369 C371 1.332 . S
C369 H377 0.931 . S
C370 N368 1.340 . S
C370 C371 1.407 . S
C370 H376 0.930 . S
C371 C369 1.332 . S
C371 C370 1.407 . S
C371 H373 0.929 . S
H372 C361 0.929 . S
H373 C371 0.929 . S
H374 C389 0.930 . S
H375 C396 0.929 . S
H376 C370 0.930 . S
H377 C369 0.931 . S
H378 C392 0.930 1_455 S
H379 C359 0.930 . S
H380 C365 0.929 . S
H381 C366 0.930 . S
H382 C387 0.933 . S
H383 C362 0.930 . S
H384 C395 0.931 . S
N385 Tb356 2.617 . S
N385 C386 1.379 1_455 S
N385 C389 1.334 . S
C386 N385 1.379 1_655 S
C386 C388 1.416 . S
C386 C394 1.424 . S
C387 H382 0.933 . S
C387 C389 1.395 . S
C387 C390 1.332 1_455 S
C388 C386 1.416 . S
C388 C390 1.416 . S
C388 C421 1.448 . S
C389 H374 0.930 . S
C389 N385 1.334 . S
C389 C387 1.395 . S
C390 C387 1.332 1_655 S
C390 C388 1.416 . S
C390 H397 0.930 . S
N391 Tb356 2.572 . S
N391 C392 1.340 1_455 S
N391 C394 1.361 1_455 S
C392 H378 0.930 1_655 S
C392 N391 1.340 1_655 S
C392 C396 1.407 . S
C393 C394 1.413 . S
C393 C395 1.416 . S
C393 C422 1.427 . S
C394 C386 1.424 . S
C394 N391 1.361 1_655 S
C394 C393 1.413 . S
C395 H384 0.931 . S
C395 C393 1.416 . S
C395 C396 1.332 . S
C396 H375 0.929 . S
C396 C392 1.407 . S
C396 C395 1.332 . S
H397 C390 0.930 . S
H398 C421 0.930 . S
H399 C422 0.929 . S
O400 Tb356 2.465 . S
O400 C420 1.264 . S
O401 Tb356 2.387 1_655 S
O401 C412 1.264 . S
O402 Tb367 2.349 . S
O402 C412 1.243 . S
O403 Tb356 2.428 . S
O403 C420 1.256 . S
O404 Tb356 2.308 . S
O404 C419 1.266 . S
O405 Tb367 2.393 . S
O405 C419 1.248 1_655 S
O406 Tb367 2.465 1_554 S
O406 C431 1.264 . S
O407 Tb367 2.387 1_455 S
O407 C423 1.264 . S
O408 Tb356 2.349 . S
O408 C423 1.243 . S
O409 Tb367 2.428 . S
O409 C431 1.256 1_556 S
O410 Tb367 2.308 1_455 S
O410 C430 1.266 . S
O411 Tb356 2.393 . S
O411 C430 1.248 . S
C412 O401 1.264 . S
C412 O402 1.243 . S
C413 C416 1.399 . S
C413 C418 1.383 . S
C413 C420 1.496 . S
C414 C415 1.399 . S
C414 C418 1.389 . S
C415 C414 1.399 . S
C415 C417 1.380 . S
C415 H432 0.929 . S
C416 C413 1.399 . S
C416 C417 1.392 . S
C416 H433 0.929 . S
C417 C415 1.380 . S
C417 C416 1.392 . S
C417 H434 0.929 . S
C418 C413 1.383 . S
C418 C414 1.389 . S
C418 H435 0.931 . S
C419 O404 1.266 . S
C419 O405 1.248 1_455 S
C420 Tb356 2.802 . S
C420 O400 1.264 . S
C420 O403 1.256 . S
C420 C413 1.496 . S
C421 C388 1.448 . S
C421 H398 0.930 . S
C421 C422 1.328 . S
C422 C393 1.427 . S
C422 H399 0.929 . S
C422 C421 1.328 . S
C423 O407 1.264 . S
C423 O408 1.243 . S
C424 C427 1.399 . S
C424 C428 1.383 . S
C424 C431 1.496 . S
C425 C426 1.399 . S
C425 C428 1.389 . S
C426 C425 1.399 . S
C426 C429 1.380 . S
C426 H436 0.929 . S
C427 C424 1.399 . S
C427 C429 1.392 . S
C427 H437 0.929 . S
C428 C424 1.383 . S
C428 C425 1.389 . S
C428 H438 0.931 . S
C429 C426 1.380 . S
C429 C427 1.392 . S
C429 H439 0.929 . S
C430 O410 1.266 . S
C430 O411 1.248 . S
C431 Tb367 2.802 1_554 S
C431 O406 1.264 . S
C431 O409 1.256 1_554 S
C431 C424 1.496 . S
H432 C415 0.929 . S
H433 C416 0.929 . S
H434 C417 0.929 . S
H435 C418 0.931 . S
H436 C426 0.929 . S
H437 C427 0.929 . S
H438 C428 0.931 . S
H439 C429 0.929 . S
C440 C441 1.369 . S
C440 C442 1.419 . S
C440 H444 0.930 . S
C441 C440 1.369 . S
C441 C450 1.429 1_545 S
C442 C440 1.419 . S
C442 C443 1.363 . S
C442 H445 0.929 . S
C443 C442 1.363 . S
C443 C449 1.428 1_545 S
H444 C440 0.930 . S
H445 C442 0.929 . S
S446 N447 1.613 . S
S446 N448 1.610 . S
N447 S446 1.613 . S
N447 C450 1.350 . S
N448 S446 1.610 . S
N448 C449 1.351 . S
C449 C443 1.428 1_565 S
C449 N448 1.351 . S
C449 C450 1.434 . S
C450 C441 1.429 1_565 S
C450 N447 1.350 . S
C450 C449 1.434 . S
C451 C452 1.369 . S
C451 C453 1.419 . S
C451 H455 0.930 . S
C452 C451 1.369 . S
C452 C461 1.429 . S
C453 C451 1.419 . S
C453 C454 1.363 . S
C453 H456 0.929 . S
C454 C453 1.363 . S
C454 C460 1.428 . S
H455 C451 0.930 . S
H456 C453 0.929 . S
S457 N458 1.613 . S
S457 N459 1.610 . S
N458 S457 1.613 . S
N458 C461 1.350 . S
N459 S457 1.610 . S
N459 C460 1.351 . S
C460 C454 1.428 . S
C460 N459 1.351 . S
C460 C461 1.434 . S
C461 C452 1.429 . S
C461 N458 1.350 . S
C461 C460 1.434 . S
C462 C463 1.369 . S
C462 C464 1.419 . S
C462 H466 0.930 . S
C463 C462 1.369 . S
C463 C472 1.429 . S
C464 C462 1.419 . S
C464 C465 1.363 . S
C464 H467 0.929 . S
C465 C464 1.363 . S
C465 C471 1.428 . S
H466 C462 0.930 . S
H467 C464 0.929 . S
S468 N469 1.613 . S
S468 N470 1.610 . S
N469 S468 1.613 . S
N469 C472 1.350 . S
N470 S468 1.610 . S
N470 C471 1.351 . S
C471 C465 1.428 . S
C471 N470 1.351 . S
C471 C472 1.434 . S
C472 C463 1.429 . S
C472 N469 1.350 . S
C472 C471 1.434 . S
C473 C474 1.369 . S
C473 C475 1.419 . S
C473 H477 0.930 . S
C474 C473 1.369 . S
C474 C483 1.429 . S
C475 C473 1.419 . S
C475 C476 1.363 . S
C475 H478 0.929 . S
C476 C475 1.363 . S
C476 C482 1.428 . S
H477 C473 0.930 . S
H478 C475 0.929 . S
S479 N480 1.613 . S
S479 N481 1.610 . S
N480 S479 1.613 . S
N480 C483 1.350 . S
N481 S479 1.610 . S
N481 C482 1.351 . S
C482 C476 1.428 . S
C482 N481 1.351 . S
C482 C483 1.434 . S
C483 C474 1.429 . S
C483 N480 1.350 . S
C483 C482 1.434 . S
C484 C485 1.369 1_545 S
C484 C486 1.419 . S
C484 H488 0.930 . S
C485 C484 1.369 1_565 S
C485 C494 1.429 . S
C486 C484 1.419 . S
C486 C487 1.363 1_545 S
C486 H489 0.929 . S
C487 C486 1.363 1_565 S
C487 C493 1.428 . S
H488 C484 0.930 . S
H489 C486 0.929 . S
S490 N491 1.613 . S
S490 N492 1.610 . S
N491 S490 1.613 . S
N491 C494 1.350 . S
N492 S490 1.610 . S
N492 C493 1.351 . S
C493 C487 1.428 . S
C493 N492 1.351 . S
C493 C494 1.434 . S
C494 C485 1.429 . S
C494 N491 1.350 . S
C494 C493 1.434 . S
C495 C496 1.369 . S
C495 C497 1.419 . S
C495 H499 0.930 . S
C496 C495 1.369 . S
C496 C505 1.429 . S
C497 C495 1.419 . S
C497 C498 1.363 . S
C497 H500 0.929 . S
C498 C497 1.363 . S
C498 C504 1.428 . S
H499 C495 0.930 . S
H500 C497 0.929 . S
S501 N502 1.613 . S
S501 N503 1.610 . S
N502 S501 1.613 . S
N502 C505 1.350 . S
N503 S501 1.610 . S
N503 C504 1.351 . S
C504 C498 1.428 . S
C504 N503 1.351 . S
C504 C505 1.434 . S
C505 C496 1.429 . S
C505 N502 1.350 . S
C505 C504 1.434 . S
C506 C507 1.369 . S
C506 C508 1.419 . S
C506 H510 0.930 . S
C507 C506 1.369 . S
C507 C516 1.429 . S
C508 C506 1.419 . S
C508 C509 1.363 . S
C508 H511 0.929 . S
C509 C508 1.363 . S
C509 C515 1.428 . S
H510 C506 0.930 . S
H511 C508 0.929 . S
S512 N513 1.613 . S
S512 N514 1.610 . S
N513 S512 1.613 . S
N513 C516 1.350 . S
N514 S512 1.610 . S
N514 C515 1.351 . S
C515 C509 1.428 . S
C515 N514 1.351 . S
C515 C516 1.434 . S
C516 C507 1.429 . S
C516 N513 1.350 . S
C516 C515 1.434 . S
C517 C518 1.369 . S
C517 C519 1.419 . S
C517 H521 0.930 . S
C518 C517 1.369 . S
C518 C527 1.429 1_655 S
C519 C517 1.419 . S
C519 C520 1.363 . S
C519 H522 0.929 . S
C520 C519 1.363 . S
C520 C526 1.428 1_655 S
H521 C517 0.930 . S
H522 C519 0.929 . S
S523 N524 1.613 . S
S523 N525 1.610 . S
N524 S523 1.613 . S
N524 C527 1.350 . S
N525 S523 1.610 . S
N525 C526 1.351 . S
C526 C520 1.428 1_455 S
C526 N525 1.351 . S
C526 C527 1.434 . S
C527 C518 1.429 1_455 S
C527 N524 1.350 . S
C527 C526 1.434 . S
C528 C529 1.369 . S
C528 C530 1.419 1_455 S
C528 H532 0.930 . S
C529 C528 1.369 . S
C529 C538 1.429 . S
C530 C528 1.419 1_655 S
C530 C531 1.363 . S
C530 H533 0.929 . S
C531 C530 1.363 . S
C531 C537 1.428 1_655 S
H532 C528 0.930 . S
H533 C530 0.929 . S
S534 N535 1.613 . S
S534 N536 1.610 1_556 S
N535 S534 1.613 . S
N535 C538 1.350 1_556 S
N536 S534 1.610 1_554 S
N536 C537 1.351 . S
C537 C531 1.428 1_455 S
C537 N536 1.351 . S
C537 C538 1.434 . S
C538 C529 1.429 . S
C538 N535 1.350 1_554 S
C538 C537 1.434 . S
C539 C540 1.369 . S
C539 C541 1.419 . S
C539 H543 0.930 . S
C540 C539 1.369 . S
C540 C549 1.429 . S
C541 C539 1.419 . S
C541 C542 1.363 1_545 S
C541 H544 0.929 . S
C542 C541 1.363 1_565 S
C542 C548 1.428 . S
H543 C539 0.930 . S
H544 C541 0.929 . S
S545 N546 1.613 1_565 S
S545 N547 1.610 1_556 S
N546 S545 1.613 1_545 S
N546 C549 1.350 1_556 S
N547 S545 1.610 1_554 S
N547 C548 1.351 . S
C548 C542 1.428 . S
C548 N547 1.351 . S
C548 C549 1.434 1_565 S
C549 C540 1.429 . S
C549 N546 1.350 1_554 S
C549 C548 1.434 1_545 S
C550 C551 1.369 . S
C550 C552 1.419 . S
C550 H554 0.930 . S
C551 C550 1.369 . S
C551 C560 1.429 . S
C552 C550 1.419 . S
C552 C553 1.363 . S
C552 H555 0.929 . S
C553 C552 1.363 . S
C553 C559 1.428 . S
H554 C550 0.930 . S
H555 C552 0.929 . S
S556 N557 1.613 . S
S556 N558 1.610 1_556 S
N557 S556 1.613 . S
N557 C560 1.350 1_556 S
N558 S556 1.610 1_554 S
N558 C559 1.351 . S
C559 C553 1.428 . S
C559 N558 1.351 . S
C559 C560 1.434 . S
C560 C551 1.429 . S
C560 N557 1.350 1_554 S
C560 C559 1.434 . S
C561 C562 1.369 . S
C561 C563 1.419 . S
C561 H565 0.930 . S
C562 C561 1.369 . S
C562 C571 1.429 . S
C563 C561 1.419 . S
C563 C564 1.363 . S
C563 H566 0.929 . S
C564 C563 1.363 . S
C564 C570 1.428 . S
H565 C561 0.930 . S
H566 C563 0.929 . S
S567 N568 1.613 . S
S567 N569 1.610 . S
N568 S567 1.613 . S
N568 C571 1.350 . S
N569 S567 1.610 . S
N569 C570 1.351 . S
C570 C564 1.428 . S
C570 N569 1.351 . S
C570 C571 1.434 . S
C571 C562 1.429 . S
C571 N568 1.350 . S
C571 C570 1.434 . S
C572 C573 1.369 1_455 S
C572 C574 1.419 . S
C572 H576 0.930 . S
C573 C572 1.369 1_655 S
C573 C582 1.429 . S
C574 C572 1.419 . S
C574 C575 1.363 . S
C574 H577 0.929 . S
C575 C574 1.363 . S
C575 C581 1.428 1_455 S
H576 C572 0.930 . S
H577 C574 0.929 . S
S578 N579 1.613 . S
S578 N580 1.610 . S
N579 S578 1.613 . S
N579 C582 1.350 . S
N580 S578 1.610 . S
N580 C581 1.351 . S
C581 C575 1.428 1_655 S
C581 N580 1.351 . S
C581 C582 1.434 . S
C582 C573 1.429 . S
C582 N579 1.350 . S
C582 C581 1.434 . S
C583 C584 1.369 1_545 S
C583 C585 1.419 . S
C583 H587 0.930 . S
C584 C583 1.369 1_565 S
C584 C593 1.429 . S
C585 C583 1.419 . S
C585 C586 1.363 . S
C585 H588 0.929 . S
C586 C585 1.363 . S
C586 C592 1.428 1_545 S
H587 C583 0.930 . S
H588 C585 0.929 . S
S589 N590 1.613 . S
S589 N591 1.610 . S
N590 S589 1.613 . S
N590 C593 1.350 . S
N591 S589 1.610 . S
N591 C592 1.351 . S
C592 C586 1.428 1_565 S
C592 N591 1.351 . S
C592 C593 1.434 . S
C593 C584 1.429 . S
C593 N590 1.350 . S
C593 C592 1.434 . S
C594 C595 1.369 . S
C594 C596 1.419 . S
C594 H598 0.930 . S
C595 C594 1.369 . S
C595 C604 1.429 . S
C596 C594 1.419 . S
C596 C597 1.363 . S
C596 H599 0.929 . S
C597 C596 1.363 . S
C597 C603 1.428 . S
H598 C594 0.930 . S
H599 C596 0.929 . S
S600 N601 1.613 . S
S600 N602 1.610 . S
N601 S600 1.613 . S
N601 C604 1.350 . S
N602 S600 1.610 . S
N602 C603 1.351 . S
C603 C597 1.428 . S
C603 N602 1.351 . S
C603 C604 1.434 . S
C604 C595 1.429 . S
C604 N601 1.350 . S
C604 C603 1.434 . S
C605 C606 1.369 . S
C605 C607 1.419 . S
C605 H609 0.930 . S
C606 C605 1.369 . S
C606 C615 1.429 . S
C607 C605 1.419 . S
C607 C608 1.363 . S
C607 H610 0.929 . S
C608 C607 1.363 . S
C608 C614 1.428 . S
H609 C605 0.930 . S
H610 C607 0.929 . S
S611 N612 1.613 . S
S611 N613 1.610 . S
N612 S611 1.613 . S
N612 C615 1.350 . S
N613 S611 1.610 . S
N613 C614 1.351 . S
C614 C608 1.428 . S
C614 N613 1.351 . S
C614 C615 1.434 . S
C615 C606 1.429 . S
C615 N612 1.350 . S
C615 C614 1.434 . S
C616 C617 1.369 . S
C616 C618 1.419 . S
C616 H620 0.930 . S
C617 C616 1.369 . S
C617 C626 1.429 1_455 S
C618 C616 1.419 . S
C618 C619 1.363 . S
C618 H621 0.929 . S
C619 C618 1.363 . S
C619 C625 1.428 1_455 S
H620 C616 0.930 . S
H621 C618 0.929 . S
S622 N623 1.613 . S
S622 N624 1.610 . S
N623 S622 1.613 . S
N623 C626 1.350 1_554 S
N624 S622 1.610 . S
N624 C625 1.351 1_554 S
C625 C619 1.428 1_655 S
C625 N624 1.351 1_556 S
C625 C626 1.434 . S
C626 C617 1.429 1_655 S
C626 N623 1.350 1_556 S
C626 C625 1.434 . S
C627 C628 1.376 . S
C627 C629 1.418 1_545 S
C627 H631 0.924 1_545 S
C628 C627 1.376 . S
C628 C637 1.429 . S
C629 C627 1.418 1_565 S
C629 C630 1.359 1_565 S
C629 H632 0.933 . S
C630 C629 1.359 1_545 S
C630 C636 1.428 . S
H631 C627 0.924 1_565 S
H632 C629 0.933 . S
S633 N634 1.613 1_554 S
S633 N635 1.610 1_554 S
N634 S633 1.613 1_556 S
N634 C637 1.350 . S
N635 S633 1.610 1_556 S
N635 C636 1.351 . S
C636 C630 1.428 . S
C636 N635 1.351 . S
C636 C637 1.434 . S
C637 C628 1.429 . S
C637 N634 1.350 . S
C637 C636 1.434 . S
C638 C639 1.369 . S
C638 C640 1.419 . S
C638 H642 0.930 . S
C639 C638 1.369 . S
C639 C648 1.429 . S
C640 C638 1.419 . S
C640 C641 1.363 . S
C640 H643 0.929 . S
C641 C640 1.363 . S
C641 C647 1.428 . S
H642 C638 0.930 . S
H643 C640 0.929 . S
S644 N645 1.613 . S
S644 N646 1.610 . S
N645 S644 1.613 . S
N645 C648 1.350 . S
N646 S644 1.610 . S
N646 C647 1.351 . S
C647 C641 1.428 . S
C647 N646 1.351 . S
C647 C648 1.434 . S
C648 C639 1.429 . S
C648 N645 1.350 . S
C648 C647 1.434 . S
C649 C650 1.369 . S
C649 C651 1.419 . S
C649 H653 0.930 . S
C650 C649 1.369 . S
C650 C659 1.429 1_556 S
C651 C649 1.419 . S
C651 C652 1.363 . S
C651 H654 0.929 . S
C652 C651 1.363 . S
C652 C658 1.428 . S
H653 C649 0.930 . S
H654 C651 0.929 . S
S655 N656 1.613 . S
S655 N657 1.610 . S
N656 S655 1.613 . S
N656 C659 1.350 . S
N657 S655 1.610 . S
N657 C658 1.351 1_554 S
C658 C652 1.428 . S
C658 N657 1.351 1_556 S
C658 C659 1.434 1_556 S
C659 C650 1.429 1_554 S
C659 N656 1.350 . S
C659 C658 1.434 1_554 S
C660 C661 1.369 1_455 S
C660 C662 1.419 . S
C660 H664 0.930 . S
C661 C660 1.369 1_655 S
C661 C670 1.429 . S
C662 C660 1.419 . S
C662 C663 1.363 1_455 S
C662 H665 0.929 . S
C663 C662 1.363 1_655 S
C663 C669 1.428 . S
H664 C660 0.930 . S
H665 C662 0.929 . S
S666 N667 1.613 . S
S666 N668 1.610 . S
N667 S666 1.613 . S
N667 C670 1.350 . S
N668 S666 1.610 . S
N668 C669 1.351 . S
C669 C663 1.428 . S
C669 N668 1.351 . S
C669 C670 1.434 . S
C670 C661 1.429 . S
C670 N667 1.350 . S
C670 C669 1.434 . S
C671 C672 1.369 1_545 S
C671 C673 1.419 . S
C671 H675 0.930 . S
C672 C671 1.369 1_565 S
C672 C681 1.429 . S
C673 C671 1.419 . S
C673 C674 1.363 1_545 S
C673 H676 0.929 . S
C674 C673 1.363 1_565 S
C674 C680 1.428 . S
H675 C671 0.930 . S
H676 C673 0.929 . S
S677 N678 1.613 . S
S677 N679 1.610 . S
N678 S677 1.613 . S
N678 C681 1.350 . S
N679 S677 1.610 . S
N679 C680 1.351 . S
C680 C674 1.428 . S
C680 N679 1.351 . S
C680 C681 1.434 . S
C681 C672 1.429 . S
C681 N678 1.350 . S
C681 C680 1.434 . S
C682 C683 1.369 . S
C682 C684 1.419 . S
C682 H686 0.930 . S
C683 C682 1.369 . S
C683 C692 1.429 . S
C684 C682 1.419 . S
C684 C685 1.363 . S
C684 H687 0.929 . S
C685 C684 1.363 . S
C685 C691 1.428 . S
H686 C682 0.930 . S
H687 C684 0.929 . S
S688 N689 1.613 . S
S688 N690 1.610 . S
N689 S688 1.613 . S
N689 C692 1.350 . S
N690 S688 1.610 . S
N690 C691 1.351 . S
C691 C685 1.428 . S
C691 N690 1.351 . S
C691 C692 1.434 . S
C692 C683 1.429 . S
C692 N689 1.350 . S
C692 C691 1.434 . S
C693 C694 1.369 . S
C693 C695 1.419 . S
C693 H697 0.930 . S
C694 C693 1.369 . S
C694 C703 1.429 . S
C695 C693 1.419 . S
C695 C696 1.363 . S
C695 H698 0.929 . S
C696 C695 1.363 . S
C696 C702 1.428 . S
H697 C693 0.930 . S
H698 C695 0.929 . S
S699 N700 1.613 . S
S699 N701 1.610 . S
N700 S699 1.613 . S
N700 C703 1.350 . S
N701 S699 1.610 . S
N701 C702 1.351 . S
C702 C696 1.428 . S
C702 N701 1.351 . S
C702 C703 1.434 . S
C703 C694 1.429 . S
C703 N700 1.350 . S
C703 C702 1.434 . S
C441 N80 2.022 . S
C443 C167 2.149 . S
C454 C244 2.159 . S
C452 N93 2.015 . S
C465 C335 2.151 . S
C463 N54 2.013 . S
C476 C419 2.142 . S
C474 N67 2.006 . S
C487 C178 2.152 1_564 S
C485 N28 2.027 . S
C496 N41 2.022 . S
C498 C255 2.158 1_554 S
C507 N2 2.017 . S
C509 C346 2.151 1_554 S
C518 N15 2.014 . S
C520 C430 2.140 1_654 S
C531 C162 0.734 . S
C529 N70 0.728 . S
C542 C257 0.716 . S
C540 N83 0.715 . S
C553 C330 0.737 . S
C551 N96 0.730 . S
C562 N57 0.726 . S
C564 C414 0.720 . S
C573 N18 0.733 . S
C575 C173 0.728 . S
C586 C246 0.717 . S
C584 N31 0.728 . S
C597 C341 0.728 . S
C595 N44 0.729 . S
C606 N5 0.711 . S
C608 C425 0.710 . S
C617 N66 2.152 . S
C619 C171 2.261 . S
C628 N79 2.162 . S
C630 C262 2.290 . S
C641 C339 2.273 . S
C639 N92 2.170 . S
C652 C423 2.279 . S
C650 N53 2.167 . S
C661 N14 2.156 . S
C663 C160 2.261 . S
C674 C251 2.289 . S
C672 N27 2.159 . S
C685 C328 2.274 . S
C683 N40 2.163 . S
C694 N1 2.169 . S
C696 C412 2.279 . S
