# Generated by pormake.
# Topology pth, (4,4)-cn, num edge types: 1
# Building blocks:
#     Node 0, Type 0, BuildingBlock: NAHDIM_clean_sbu_0, # of connection points: 4
#     Node 1, Type 0, BuildingBlock: NAHDIM_clean_sbu_0, # of connection points: 4
#     Node 2, Type 0, BuildingBlock: NAHDIM_clean_sbu_0, # of connection points: 4
#     Node 3, Type 1, BuildingBlock: NAHDIM_clean_linker_0, # of connection points: 4
#     Node 4, Type 1, BuildingBlock: NAHDIM_clean_linker_0, # of connection points: 4
#     Node 5, Type 1, BuildingBlock: NAHDIM_clean_linker_0, # of connection points: 4
#     Edge 6, Type (0, 1), BuildingBlock: OJICUG_clean_linker_0, # of connection points: 2
#     Edge 7, Type (0, 1), BuildingBlock: OJICUG_clean_linker_0, # of connection points: 2
#     Edge 8, Type (0, 1), BuildingBlock: OJICUG_clean_linker_0, # of connection points: 2
#     Edge 9, Type (0, 1), BuildingBlock: OJICUG_clean_linker_0, # of connection points: 2
#     Edge 10, Type (0, 1), BuildingBlock: OJICUG_clean_linker_0, # of connection points: 2
#     Edge 11, Type (0, 1), BuildingBlock: OJICUG_clean_linker_0, # of connection points: 2
#     Edge 12, Type (0, 1), BuildingBlock: OJICUG_clean_linker_0, # of connection points: 2
#     Edge 13, Type (0, 1), BuildingBlock: OJICUG_clean_linker_0, # of connection points: 2
#     Edge 14, Type (0, 1), BuildingBlock: OJICUG_clean_linker_0, # of connection points: 2
#     Edge 15, Type (0, 1), BuildingBlock: OJICUG_clean_linker_0, # of connection points: 2
#     Edge 16, Type (0, 1), BuildingBlock: OJICUG_clean_linker_0, # of connection points: 2
#     Edge 17, Type (0, 1), BuildingBlock: OJICUG_clean_linker_0, # of connection points: 2
# Relax obj value: 0.060
# Max RMSD: 0.179
# Mean RMSD: 0.115
data_MOF--net-pth--node1-NAHDIM_clean_sbu_0--node2-NAHDIM_clean_linker_0--edge1-OJICUG_clean_linker_0
_symmetry_space_group_name_H-M    P1
_symmetry_Int_Tables_number       1
_symmetry_cell_setting            triclinic
loop_
_symmetry_equiv_pos_as_xyz
'x, y, z'
_cell_length_a     25.530748
_cell_length_b     25.632414
_cell_length_c     63.954262
_cell_angle_alpha  91.882065
_cell_angle_beta   90.339278
_cell_angle_gamma 120.64158
loop_
_atom_site_label
_atom_site_type_symbol
_atom_site_fract_x
_atom_site_fract_y
_atom_site_fract_z
_atom_type_partial_charge
C0 C 0.10543 0.01702 0.10845 0.0
O1 O 0.1278 0.07409 0.11454 0.0
O2 O 0.05473 0.10925 0.0909 0.0
Zn3 Zn 0.06821 0.05314 0.07183 0.0
O4 O 0.99289 0.99559 0.05502 0.0
C5 C 0.17394 0.15675 0.05478 0.0
O6 O 0.18364 0.17956 0.07407 0.0
O7 O 0.08479 0.00029 0.0898 0.0
C8 C 0.97879 0.00961 0.03789 0.0
O9 O 0.01137 0.06556 0.03177 0.0
C10 C 0.0567 0.15727 0.08524 0.0
O11 O 0.06297 0.17014 0.06536 0.0
O12 O 0.13265 0.10173 0.05116 0.0
C13 C 0.08761 0.14322 0.36252 0.0
O14 O 0.0728 0.08887 0.35521 0.0
O15 O 0.06615 0.01337 0.38956 0.0
Zn16 Zn 0.09252 0.09617 0.40261 0.0
O17 O 0.02964 0.09092 0.42241 0.0
C18 C 0.19745 0.09483 0.41808 0.0
O19 O 0.1867 0.05982 0.40121 0.0
O20 O 0.10242 0.15752 0.38173 0.0
C21 C 0.01343 0.05661 0.43786 0.0
O22 O 0.03535 0.02051 0.44016 0.0
C23 C 0.01345 0.97412 0.38243 0.0
O24 O 0.96991 0.98717 0.3824 0.0
O25 O 0.16701 0.12115 0.42068 0.0
C26 C 0.1276 0.97857 0.72191 0.0
O27 O 0.07332 0.95151 0.71278 0.0
O28 O 0.03215 0.03725 0.71876 0.0
Zn29 Zn 0.07744 0.0398 0.74496 0.0
O30 O 0.12071 0.12488 0.75773 0.0
C31 C 0.9618 0.96908 0.76324 0.0
O32 O 0.95155 0.00587 0.75245 0.0
O33 O 0.13982 0.01771 0.73672 0.0
C34 C 0.09989 0.1465 0.77129 0.0
O35 O 0.04611 0.11094 0.77905 0.0
C36 C 0.03416 0.08259 0.71054 0.0
O37 O 0.06911 0.13737 0.7189 0.0
O38 O 0.01515 0.97679 0.76362 0.0
C39 C 0.9087 0.68678 0.37502 0.0
C40 C 0.95983 0.72937 0.36086 0.0
C41 C 0.968 0.68967 0.32667 0.0
C42 C 0.03144 0.71585 0.32592 0.0
C43 C 0.05729 0.69138 0.31236 0.0
C44 C 0.01882 0.63964 0.29937 0.0
C45 C 0.95486 0.6141 0.29979 0.0
C46 C 0.93042 0.64024 0.31321 0.0
C47 C 0.12562 0.72059 0.31195 0.0
C48 C 0.91221 0.55863 0.28633 0.0
C49 C 0.09979 0.26029 0.32492 0.0
C50 C 0.08571 0.29757 0.31112 0.0
C51 C 0.10765 0.40163 0.30834 0.0
C52 C 0.05396 0.38555 0.29687 0.0
C53 C 0.04328 0.43006 0.2893 0.0
C54 C 0.08837 0.49208 0.29241 0.0
C55 C 0.14222 0.5086 0.3041 0.0
C56 C 0.15076 0.46302 0.31214 0.0
C57 C 0.98402 0.41046 0.27765 0.0
C58 C 0.19119 0.57426 0.3077 0.0
C59 C 0.1125 0.4333 0.15607 0.0
C60 C 0.05661 0.41422 0.16556 0.0
C61 C 0.04725 0.45515 0.17772 0.0
C62 C 0.09516 0.51625 0.18058 0.0
C63 C 0.15092 0.53596 0.17044 0.0
C64 C 0.15855 0.4942 0.15804 0.0
C65 C 0.9863 0.4329 0.18764 0.0
C66 C 0.20273 0.60074 0.17305 0.0
C67 C 0.94201 0.85173 0.17729 0.0
C68 C 0.99577 0.84306 0.17251 0.0
C69 C 0.996 0.74781 0.17226 0.0
C70 C 0.9561 0.68529 0.1728 0.0
C71 C 0.97558 0.64718 0.18045 0.0
C72 C 0.03692 0.67248 0.18727 0.0
C73 C 0.07856 0.73521 0.18539 0.0
C74 C 0.0576 0.7724 0.17797 0.0
C75 C 0.93017 0.5803 0.18194 0.0
C76 C 0.14473 0.76312 0.19183 0.0
C77 C 0.04514 0.61125 0.28569 0.0
C78 C 0.0598 0.57108 0.29465 0.0
C79 C 0.08014 0.539 0.28242 0.0
C80 C 0.08653 0.54732 0.26063 0.0
C81 C 0.10698 0.51586 0.24786 0.0
C82 C 0.10817 0.52031 0.22625 0.0
C83 C 0.08983 0.55711 0.21658 0.0
C84 C 0.08695 0.55882 0.19454 0.0
C85 C 0.07106 0.59784 0.18545 0.0
C86 C 0.05623 0.6342 0.19782 0.0
C87 C 0.05636 0.63123 0.21988 0.0
C88 C 0.03914 0.66529 0.23275 0.0
C89 C 0.03674 0.6599 0.25435 0.0
C90 C 0.05114 0.62 0.26391 0.0
C91 C 0.0709 0.58709 0.25131 0.0
C92 C 0.07304 0.59235 0.22926 0.0
C93 C 0.17158 0.34818 0.16144 0.0
C94 C 0.11256 0.33891 0.15153 0.0
O95 O 0.94172 0.71107 0.34013 0.0
O96 O 0.97322 0.78285 0.16637 0.0
O97 O 0.12272 0.39401 0.14466 0.0
O98 O 0.11927 0.35946 0.31598 0.0
H99 H -0.00012 0.72513 0.36506 0.0
H100 H 0.90002 0.63987 0.37264 0.0
H101 H 0.86581 0.68622 0.37136 0.0
H102 H 0.9219 0.70124 0.39172 0.0
H103 H 0.06074 0.7556 0.33582 0.0
H104 H 0.88155 0.62093 0.31374 0.0
H105 H 0.13904 0.68879 0.31795 0.0
H106 H 0.14938 0.76359 0.32161 0.0
H107 H 0.1412 0.73011 0.2956 0.0
H108 H 0.8637 0.54069 0.29012 0.0
H109 H 0.92305 0.52224 0.28833 0.0
H110 H 0.91821 0.57019 0.26961 0.0
H111 H 0.08387 0.28681 0.29399 0.0
H112 H 0.01813 0.2079 0.34064 0.0
H113 H 0.14429 0.29258 0.33334 0.0
H114 H 0.11985 0.2395 0.31428 0.0
H115 H 0.01994 0.33837 0.29372 0.0
H116 H 0.19188 0.47513 0.32108 0.0
H117 H 0.99217 0.4149 0.2606 0.0
H118 H 0.96539 0.43973 0.28245 0.0
H119 H 0.94921 0.36248 0.28037 0.0
H120 H 0.23183 0.57948 0.31616 0.0
H121 H 0.17281 0.59846 0.31698 0.0
H122 H 0.20548 0.59644 0.29248 0.0
H123 H 0.0772 0.32131 0.16369 0.0
H124 H 0.02011 0.36749 0.1633 0.0
H125 H 0.2012 0.5085 0.15033 0.0
H126 H 0.99133 0.43142 0.20483 0.0
H127 H 0.95146 0.38676 0.18157 0.0
H128 H 0.96963 0.46455 0.18479 0.0
H129 H 0.24435 0.60803 0.16508 0.0
H130 H 0.21388 0.61349 0.18994 0.0
H131 H 0.18873 0.63152 0.16651 0.0
H132 H 0.02352 0.85479 0.18729 0.0
H133 H 0.95845 0.89934 0.18274 0.0
H134 H 0.91465 0.82131 0.18986 0.0
H135 H 0.91212 0.84067 0.16314 0.0
H136 H 0.90892 0.66675 0.16796 0.0
H137 H 0.08926 0.82056 0.17677 0.0
H138 H 0.92778 0.56698 0.19841 0.0
H139 H 0.94534 0.55363 0.17243 0.0
H140 H 0.88381 0.568 0.17637 0.0
H141 H 0.17262 0.81086 0.18711 0.0
H142 H 0.16363 0.73622 0.18476 0.0
H143 H 0.14871 0.76225 0.2091 0.0
H144 H 0.05338 0.56316 0.31125 0.0
H145 H 0.12123 0.48649 0.2544 0.0
H146 H 0.12315 0.49411 0.21718 0.0
H147 H 0.06862 0.59875 0.16853 0.0
H148 H 0.02645 0.69591 0.22628 0.0
H149 H 0.02262 0.68678 0.26344 0.0
H150 H 0.20833 0.36521 0.14982 0.0
H151 H 0.16445 0.30485 0.16742 0.0
H152 H 0.18643 0.38183 0.17481 0.0
C153 C 0.29725 0.86392 0.70357 0.0
C154 C 0.31066 0.92308 0.69386 0.0
C155 C 0.35775 0.94852 0.65981 0.0
C156 C 0.39659 0.01136 0.66304 0.0
C157 C 0.44809 0.04324 0.65075 0.0
C158 C 0.46116 0.01136 0.63513 0.0
C159 C 0.42053 0.94824 0.63138 0.0
C160 C 0.36855 0.91802 0.64351 0.0
C161 C 0.48937 0.11064 0.65485 0.0
C162 C 0.43305 0.91194 0.6152 0.0
C163 C 0.88916 0.04918 0.68642 0.0
C164 C 0.8352 0.03287 0.67285 0.0
C165 C 0.77159 0.07335 0.66189 0.0
C166 C 0.73411 0.0238 0.64815 0.0
C167 C 0.68647 0.02228 0.63664 0.0
C168 C 0.67703 0.07204 0.63846 0.0
C169 C 0.71489 0.12222 0.6521 0.0
C170 C 0.76156 0.12201 0.66376 0.0
C171 C 0.64615 0.96732 0.62256 0.0
C172 C 0.70612 0.17604 0.65429 0.0
C173 C 0.79402 0.10777 0.50734 0.0
C174 C 0.74792 0.05239 0.51468 0.0
C175 C 0.6971 0.04839 0.52448 0.0
C176 C 0.69241 0.10095 0.52703 0.0
C177 C 0.73761 0.15627 0.51891 0.0
C178 C 0.78765 0.15875 0.50895 0.0
C179 C 0.64863 0.98797 0.53226 0.0
C180 C 0.7336 0.21288 0.52115 0.0
C181 C 0.22953 6e-05 0.50291 0.0
C182 C 0.28913 0.0476 0.4934 0.0
C183 C 0.37767 0.03766 0.50101 0.0
C184 C 0.39003 0.99167 0.50484 0.0
C185 C 0.44202 0.00378 0.51647 0.0
C186 C 0.483 0.06375 0.5241 0.0
C187 C 0.47216 0.11106 0.51948 0.0
C188 C 0.41962 0.09758 0.50787 0.0
C189 C 0.45281 0.95243 0.52081 0.0
C190 C 0.51594 0.17569 0.52694 0.0
C191 C 0.52038 0.04204 0.62443 0.0
C192 C 0.57153 0.05084 0.63571 0.0
C193 C 0.6272 0.07102 0.62609 0.0
C194 C 0.63252 0.08298 0.60457 0.0
C195 C 0.68751 0.10174 0.59429 0.0
C196 C 0.69073 0.10786 0.57275 0.0
C197 C 0.63939 0.09648 0.56074 0.0
C198 C 0.6408 0.09775 0.53867 0.0
C199 C 0.58988 0.08881 0.52725 0.0
C200 C 0.5365 0.07658 0.53727 0.0
C201 C 0.5332 0.07223 0.55927 0.0
C202 C 0.47924 0.05703 0.56977 0.0
C203 C 0.47528 0.04858 0.59124 0.0
C204 C 0.5252 0.0553 0.60299 0.0
C205 C 0.58111 0.07434 0.59293 0.0
C206 C 0.58484 0.08193 0.57101 0.0
C207 C 0.92518 0.13026 0.52145 0.0
C208 C 0.87779 0.08775 0.50486 0.0
O209 O 0.30986 0.91593 0.67225 0.0
O210 O 0.32565 0.02264 0.49023 0.0
O211 O 0.84429 0.11326 0.49815 0.0
O212 O 0.81743 0.07575 0.6736 0.0
H213 H 0.35672 0.95882 0.69986 0.0
H214 H 0.33262 0.85298 0.69904 0.0
H215 H 0.25206 0.82574 0.69804 0.0
H216 H 0.29782 0.86856 0.72092 0.0
H217 H 0.38685 0.03537 0.67521 0.0
H218 H 0.33758 0.86963 0.641 0.0
H219 H 0.53166 0.1193 0.66306 0.0
H220 H 0.46755 0.13038 0.66471 0.0
H221 H 0.50257 0.1343 0.63986 0.0
H222 H 0.40187 0.86228 0.61641 0.0
H223 H 0.4807 0.92209 0.61688 0.0
H224 H 0.42707 0.92451 0.5993 0.0
H225 H 0.79656 0.98552 0.67444 0.0
H226 H 0.87203 0.01355 0.69853 0.0
H227 H 0.89482 0.08651 0.69773 0.0
H228 H 0.95605 0.06071 0.66509 0.0
H229 H 0.74143 0.9859 0.64635 0.0
H230 H 0.79071 0.16008 0.67434 0.0
H231 H 0.65431 0.97993 0.60596 0.0
H232 H 0.59744 0.95075 0.62554 0.0
H233 H 0.65487 0.92958 0.62482 0.0
H234 H 0.74166 0.21308 0.66462 0.0
H235 H 0.66079 0.16149 0.6609 0.0
H236 H 0.70704 0.19403 0.63865 0.0
H237 H 0.84806 0.04354 0.51205 0.0
H238 H 0.75075 0.01188 0.51249 0.0
H239 H 0.82294 0.201 0.50284 0.0
H240 H 0.65009 0.98976 0.54963 0.0
H241 H 0.65494 0.9501 0.52665 0.0
H242 H 0.60274 0.97801 0.52708 0.0
H243 H 0.77367 0.25292 0.51468 0.0
H244 H 0.73003 0.22294 0.53794 0.0
H245 H 0.69179 0.20538 0.51289 0.0
H246 H 0.31079 0.08727 0.50471 0.0
H247 H 0.1994 0.01891 0.50583 0.0
H248 H 0.2393 0.9864 0.51808 0.0
H249 H 0.20525 0.95904 0.49227 0.0
H250 H 0.35793 0.94582 0.49908 0.0
H251 H 0.41192 0.13398 0.504 0.0
H252 H 0.45579 0.94853 0.53796 0.0
H253 H 0.49691 0.9622 0.51423 0.0
H254 H 0.41614 0.9082 0.51397 0.0
H255 H 0.50189 0.20764 0.52156 0.0
H256 H 0.56216 0.19027 0.52116 0.0
H257 H 0.519 0.17851 0.54431 0.0
H258 H 0.56722 0.03906 0.65202 0.0
H259 H 0.72828 0.11044 0.60271 0.0
H260 H 0.73382 0.12098 0.56558 0.0
H261 H 0.59103 0.08922 0.51029 0.0
H262 H 0.43903 0.05021 0.56145 0.0
H263 H 0.43237 0.03579 0.59849 0.0
H264 H 0.95251 0.11058 0.52701 0.0
H265 H 0.902 0.13666 0.53509 0.0
H266 H 0.95622 0.17532 0.51498 0.0
C267 C 0.75164 0.69522 0.77259 0.0
C268 C 0.7549 0.74282 0.78849 0.0
C269 C 0.71026 0.69708 0.82109 0.0
C270 C 0.67259 0.72084 0.82551 0.0
C271 C 0.62112 0.68934 0.83781 0.0
C272 C 0.60697 0.63272 0.84566 0.0
C273 C 0.64578 0.60935 0.84154 0.0
C274 C 0.69765 0.64251 0.82956 0.0
C275 C 0.58172 0.71638 0.84233 0.0
C276 C 0.6319 0.54889 0.84946 0.0
C277 C 0.18609 0.42853 0.77302 0.0
C278 C 0.22301 0.40796 0.78558 0.0
C279 C 0.27722 0.4487 0.81898 0.0
C280 C 0.31551 0.42435 0.81801 0.0
C281 C 0.36806 0.44845 0.83092 0.0
C282 C 0.38332 0.49891 0.84467 0.0
C283 C 0.34442 0.52327 0.8457 0.0
C284 C 0.291 0.49668 0.8332 0.0
C285 C 0.40743 0.42025 0.82971 0.0
C286 C 0.35974 0.57828 0.85959 0.0
C287 C 0.28521 0.39866 0.97811 0.0
C288 C 0.32292 0.37732 0.97076 0.0
C289 C 0.37672 0.41578 0.96041 0.0
C290 C 0.39294 0.4766 0.95741 0.0
C291 C 0.35611 0.49871 0.96546 0.0
C292 C 0.30288 0.45942 0.97589 0.0
C293 C 0.41596 0.39135 0.9525 0.0
C294 C 0.37244 0.56351 0.96271 0.0
C295 C 0.8591 0.81081 0.96347 0.0
C296 C 0.81649 0.82039 0.97771 0.0
C297 C 0.72103 0.72454 0.97848 0.0
C298 C 0.70583 0.66401 0.97624 0.0
C299 C 0.65079 0.6203 0.96633 0.0
C300 C 0.60986 0.63783 0.95899 0.0
C301 C 0.62336 0.69829 0.96253 0.0
C302 C 0.67902 0.74113 0.97222 0.0
C303 C 0.63731 0.55604 0.96302 0.0
C304 C 0.57968 0.71798 0.95558 0.0
C305 C 0.55106 0.59735 0.85784 0.0
C306 C 0.49542 0.56418 0.84685 0.0
C307 C 0.44123 0.52813 0.85723 0.0
C308 C 0.44268 0.52327 0.87916 0.0
C309 C 0.38985 0.48439 0.88998 0.0
C310 C 0.39142 0.48163 0.91167 0.0
C311 C 0.44584 0.51791 0.92336 0.0
C312 C 0.44772 0.51675 0.94545 0.0
C313 C 0.50198 0.55523 0.95664 0.0
C314 C 0.55507 0.59443 0.94629 0.0
C315 C 0.55481 0.59442 0.92419 0.0
C316 C 0.60812 0.63173 0.9133 0.0
C317 C 0.60714 0.63244 0.89158 0.0
C318 C 0.55272 0.59633 0.87991 0.0
C319 C 0.49843 0.55857 0.89057 0.0
C320 C 0.49975 0.55672 0.91271 0.0
C321 C 0.12899 0.28315 0.98275 0.0
C322 C 0.19557 0.29986 0.98456 0.0
O323 O 0.75869 0.72586 0.80854 0.0
O324 O 0.77646 0.76609 0.98673 0.0
O325 O 0.23164 0.3623 0.98743 0.0
O326 O 0.22706 0.42738 0.8063 0.0
H327 H 0.71233 0.74423 0.78622 0.0
H328 H 0.71018 0.65062 0.77512 0.0
H329 H 0.79211 0.69008 0.77431 0.0
H330 H 0.74918 0.70837 0.75639 0.0
H331 H 0.68363 0.76409 0.81937 0.0
H332 H 0.7275 0.62498 0.82617 0.0
H333 H 0.53678 0.68824 0.83419 0.0
H334 H 0.60252 0.7636 0.83707 0.0
H335 H 0.57358 0.71626 0.85938 0.0
H336 H 0.66325 0.53445 0.84319 0.0
H337 H 0.58435 0.51344 0.84506 0.0
H338 H 0.63604 0.55189 0.8668 0.0
H339 H 0.26935 0.43034 0.77885 0.0
H340 H 0.18267 0.41388 0.75627 0.0
H341 H 0.20896 0.47882 0.77407 0.0
H342 H 0.13948 0.40929 0.77919 0.0
H343 H 0.30423 0.38629 0.80729 0.0
H344 H 0.26088 0.51487 0.83386 0.0
H345 H 0.42035 0.41416 0.84567 0.0
H346 H 0.44999 0.45095 0.82158 0.0
H347 H 0.3842 0.37557 0.82101 0.0
H348 H 0.33096 0.59786 0.85573 0.0
H349 H 0.40832 0.61396 0.85817 0.0
H350 H 0.35236 0.56526 0.87616 0.0
H351 H 0.20606 0.28427 0.96954 0.0
H352 H 0.31067 0.33085 0.97312 0.0
H353 H 0.27386 0.47559 0.98191 0.0
H354 H 0.41693 0.39203 0.93515 0.0
H355 H 0.39909 0.34415 0.95721 0.0
H356 H 0.46349 0.42081 0.95854 0.0
H357 H 0.33796 0.57312 0.96934 0.0
H358 H 0.37685 0.57329 0.94582 0.0
H359 H 0.41721 0.59484 0.97052 0.0
H360 H 0.79146 0.83612 0.96791 0.0
H361 H 0.89142 0.85374 0.95598 0.0
H362 H 0.83209 0.77604 0.95093 0.0
H363 H 0.88533 0.79507 0.97256 0.0
H364 H 0.73831 0.65164 0.98153 0.0
H365 H 0.6898 0.78757 0.97486 0.0
H366 H 0.63223 0.54385 0.94601 0.0
H367 H 0.59351 0.52427 0.9703 0.0
H368 H 0.67371 0.5496 0.96979 0.0
H369 H 0.59365 0.76453 0.96162 0.0
H370 H 0.53315 0.68598 0.96098 0.0
H371 H 0.57748 0.7171 0.93822 0.0
H372 H 0.4942 0.56697 0.82997 0.0
H373 H 0.34667 0.4557 0.88179 0.0
H374 H 0.34926 0.45117 0.91916 0.0
H375 H 0.50268 0.55532 0.9736 0.0
H376 H 0.65131 0.66076 0.92144 0.0
H377 H 0.64949 0.66221 0.88406 0.0
H378 H 0.1152 0.29759 0.99726 0.0
H379 H 0.09877 0.23336 0.97999 0.0
H380 H 0.12277 0.30616 0.96935 0.0
C381 C 0.04584 0.18607 0.12196 0.0
C382 C 0.06351 0.20304 0.10136 0.0
H383 H 0.04681 0.21588 0.15372 0.0
C384 C 0.09359 0.26484 0.09687 0.0
H385 H 0.02287 0.13878 0.1259 0.0
C386 C 0.10814 0.30899 0.11286 0.0
C387 C 0.09145 0.29207 0.13357 0.0
H388 H 0.1086 0.27935 0.0812 0.0
H389 H 0.13387 0.35635 0.10907 0.0
C390 C 0.05946 0.2301 0.13787 0.0
C391 C 0.95342 0.02159 0.47055 0.0
C392 C 0.97521 0.06189 0.45411 0.0
H393 H 0.9053 0.99816 0.49929 0.0
C394 C 0.96305 0.10957 0.45396 0.0
H395 H 0.96231 0.98461 0.47117 0.0
C396 C 0.93091 0.11754 0.47012 0.0
C397 C 0.90906 0.07723 0.48656 0.0
H398 H 0.97976 0.14184 0.44165 0.0
H399 H 0.92389 0.15578 0.46988 0.0
C400 C 0.92071 0.02923 0.48661 0.0
C401 C 0.85044 0.90329 0.7693 0.0
C402 C 0.91012 0.91489 0.77224 0.0
H403 H 0.75516 0.84021 0.77209 0.0
C404 C 0.91898 0.87181 0.78224 0.0
H405 H 0.84189 0.93545 0.76167 0.0
C406 C 0.869 0.8172 0.78833 0.0
C407 C 0.80927 0.80464 0.78452 0.0
H408 H 0.96437 0.87936 0.78475 0.0
H409 H 0.87689 0.78388 0.79539 0.0
C410 C 0.80063 0.84871 0.77527 0.0
C411 C 0.10511 0.98772 0.14543 0.0
C412 C 0.08835 0.97043 0.12425 0.0
H413 H 0.08913 0.96047 0.1772 0.0
C414 C 0.04713 0.90897 0.1188 0.0
H415 H 0.13674 0.03465 0.15016 0.0
C416 C 0.01941 0.86683 0.13429 0.0
C417 C 0.03344 0.88492 0.15555 0.0
H418 H 0.03307 0.89401 0.10264 0.0
H419 H 0.98489 0.82075 0.12964 0.0
C420 C 0.07788 0.94534 0.16092 0.0
C421 C 0.24098 0.12585 0.45461 0.0
C422 C 0.23204 0.09111 0.43603 0.0
H423 H 0.26648 0.13932 0.4872 0.0
C424 C 0.24857 0.04651 0.43579 0.0
H425 H 0.22855 0.16044 0.45534 0.0
C426 C 0.2696 0.03407 0.45407 0.0
C427 C 0.27591 0.06693 0.47289 0.0
H428 H 0.24191 0.01865 0.42179 0.0
H429 H 0.27855 0.99704 0.45365 0.0
C430 C 0.26264 0.1138 0.47286 0.0
C431 C 0.18859 0.25088 0.76666 0.0
C432 C 0.13367 0.21253 0.77654 0.0
H433 H 0.2594 0.34216 0.76181 0.0
C434 C 0.10991 0.23841 0.79046 0.0
H435 H 0.20819 0.23255 0.75583 0.0
C436 C 0.13961 0.30141 0.79393 0.0
C437 C 0.19365 0.33965 0.7836 0.0
H438 H 0.06767 0.21017 0.7983 0.0
H439 H 0.11966 0.32042 0.80432 0.0
C440 C 0.21804 0.3137 0.77008 0.0
C441 C 0.99075 0.13559 0.68228 0.0
C442 C 0.99299 0.07226 0.69288 0.0
H443 H 0.93049 0.16013 0.65683 0.0
C444 C 0.94422 0.99528 0.68277 0.0
H445 H 0.02183 0.18121 0.68837 0.0
C446 C 0.8877 0.9782 0.66263 0.0
C447 C 0.87599 0.04215 0.6568 0.0
H448 H 0.94794 0.95875 0.68918 0.0
H449 H 0.85452 0.93173 0.65796 0.0
C450 C 0.93571 0.12328 0.66205 0.0
C451 C 0.90853 0.89999 0.0279 0.0
C452 C 0.93217 0.96142 0.02366 0.0
H453 H 0.85455 0.80754 0.01672 0.0
C454 C 0.91466 0.97606 0.00491 0.0
H455 H 0.92155 0.88714 0.04212 0.0
C456 C 0.87554 0.93024 0.99046 0.0
C457 C 0.85315 0.86892 0.99447 0.0
H458 H 0.9323 0.02294 0.00115 0.0
H459 H 0.86399 0.94273 0.97586 0.0
C460 C 0.87001 0.85428 0.01336 0.0
C461 C 0.94517 0.87058 0.36562 0.0
C462 C 0.00098 0.91308 0.37546 0.0
H463 H 0.8889 0.77967 0.35291 0.0
C464 C 0.04444 0.89605 0.37931 0.0
H465 H 0.91092 0.88241 0.36233 0.0
C466 C 0.03159 0.83728 0.37411 0.0
C467 C 0.97527 0.79432 0.36476 0.0
H468 H 0.08796 0.92764 0.38684 0.0
H469 H 0.06538 0.82509 0.37777 0.0
C470 C 0.93257 0.81186 0.36022 0.0
C471 C 0.23306 0.99491 0.72395 0.0
C472 C 0.17438 0.96488 0.71462 0.0
H473 H 0.32186 0.00536 0.72459 0.0
C474 C 0.16094 0.92197 0.69811 0.0
H475 H 0.24488 0.02816 0.73671 0.0
C476 C 0.20513 0.90919 0.69115 0.0
C477 C 0.26384 0.93941 0.70043 0.0
H478 H 0.11616 0.89795 0.6906 0.0
H479 H 0.1933 0.87527 0.67861 0.0
C480 C 0.27725 0.98214 0.71696 0.0
C481 C 0.21111 0.25867 0.04017 0.0
C482 C 0.19466 0.19758 0.03702 0.0
H483 H 0.22347 0.33878 0.02617 0.0
C484 C 0.18726 0.17341 0.01644 0.0
H485 H 0.21641 0.27847 0.05583 0.0
C486 C 0.19188 0.20823 -0.00056 0.0
C487 C 0.20388 0.26783 0.00264 0.0
H488 H 0.17437 0.12643 0.01352 0.0
H489 H 0.18261 0.18742 0.9838 0.0
C490 C 0.21497 0.29325 0.02316 0.0
C491 C 0.0818 0.25007 0.3622 0.0
C492 C 0.07328 0.18143 0.35005 0.0
H493 H 0.06276 0.33612 0.35552 0.0
C494 C 0.03384 0.15075 0.32516 0.0
H495 H 0.10215 0.26489 0.37773 0.0
C496 C 0.00475 0.19002 0.31075 0.0
C497 C 0.02992 0.268 0.32124 0.0
H498 H 0.02627 0.10757 0.31901 0.0
H499 H 0.98542 0.17454 0.29511 0.0
C500 C 0.05434 0.29289 0.34908 0.0
loop_
_geom_bond_atom_site_label_1
_geom_bond_atom_site_label_2
_geom_bond_distance
_geom_bond_site_symmetry_2
_ccdc_geom_bond_type
C0 O1 1.160 . S
C0 O7 1.185 . S
O1 C0 1.160 . S
O2 Zn3 1.899 . S
O2 C10 1.284 . S
Zn3 O2 1.899 . S
Zn3 O4 2.032 1_445 S
Zn3 O7 2.086 1_545 S
Zn3 O12 1.977 . S
O4 Zn3 2.032 1_665 S
O4 C8 1.278 . S
C5 O6 1.203 . S
C5 O12 1.267 . S
O6 C5 1.203 . S
O7 C0 1.185 . S
O7 Zn3 2.086 1_565 S
C8 O4 1.278 . S
C8 O9 1.211 1_565 S
O9 C8 1.211 1_545 S
C10 O2 1.284 . S
C10 O11 1.273 1_455 S
O11 C10 1.273 1_655 S
O12 Zn3 1.977 . S
O12 C5 1.267 . S
C13 O14 1.160 . S
C13 O20 1.185 . S
O14 C13 1.160 . S
O15 Zn16 1.899 . S
O15 C23 1.284 1_545 S
Zn16 O15 1.899 . S
Zn16 O17 2.032 . S
Zn16 O20 2.086 . S
Zn16 O25 1.977 . S
O17 Zn16 2.032 . S
O17 C21 1.278 1_455 S
C18 O19 1.203 . S
C18 O25 1.267 . S
O19 C18 1.203 . S
O20 C13 1.185 . S
O20 Zn16 2.086 . S
C21 O17 1.278 1_655 S
C21 O22 1.211 1_655 S
O22 C21 1.211 1_455 S
C23 O15 1.284 1_565 S
C23 O24 1.273 . S
O24 C23 1.273 . S
O25 Zn16 1.977 . S
O25 C18 1.267 . S
C26 O27 1.160 . S
C26 O33 1.185 1_545 S
O27 C26 1.160 . S
O28 Zn29 1.899 1_655 S
O28 C36 1.284 . S
Zn29 O28 1.899 1_455 S
Zn29 O30 2.032 . S
Zn29 O33 2.086 1_545 S
Zn29 O38 1.977 1_545 S
O30 Zn29 2.032 . S
O30 C34 1.278 . S
C31 O32 1.203 . S
C31 O38 1.267 1_655 S
O32 C31 1.203 . S
O33 C26 1.185 1_565 S
O33 Zn29 2.086 1_565 S
C34 O30 1.278 . S
C34 O35 1.211 . S
O35 C34 1.211 . S
C36 O28 1.284 . S
C36 O37 1.273 . S
O37 C36 1.273 . S
O38 Zn29 1.977 1_565 S
O38 C31 1.267 1_455 S
C39 C40 1.560 1_655 S
C39 H100 0.959 . S
C39 H101 0.959 . S
C39 H102 0.960 . S
C40 C39 1.560 1_455 S
C40 O95 1.426 1_455 S
C40 H99 0.980 . S
C41 C42 1.407 . S
C41 C46 1.418 1_455 S
C41 O95 1.334 1_455 S
C42 C41 1.407 . S
C42 C43 1.360 . S
C42 H103 0.929 . S
C43 C42 1.360 . S
C43 C44 1.401 . S
C43 C47 1.527 . S
C44 C43 1.401 . S
C44 C45 1.405 1_455 S
C44 C77 1.587 . S
C45 C44 1.405 1_655 S
C45 C46 1.332 . S
C45 C48 1.496 . S
C46 C41 1.418 1_655 S
C46 C45 1.332 . S
C46 H104 0.929 . S
C47 C43 1.527 . S
C47 H105 0.959 . S
C47 H106 0.961 . S
C47 H107 0.961 . S
C48 C45 1.496 . S
C48 H108 0.960 . S
C48 H109 0.960 . S
C48 H110 0.961 . S
C49 C50 1.517 . S
C49 H112 0.961 . S
C49 H113 0.960 . S
C49 H114 0.959 . S
C50 C49 1.517 . S
C50 O98 1.468 . S
C50 H111 0.980 . S
C51 C52 1.349 . S
C51 C56 1.367 . S
C51 O98 1.408 . S
C52 C51 1.349 . S
C52 C53 1.407 . S
C52 H115 0.930 . S
C53 C52 1.407 . S
C53 C54 1.449 . S
C53 C57 1.535 1_455 S
C54 C53 1.449 . S
C54 C55 1.384 . S
C54 C79 1.553 . S
C55 C54 1.384 . S
C55 C56 1.364 . S
C55 C58 1.450 . S
C56 C51 1.367 . S
C56 C55 1.364 . S
C56 H116 0.931 . S
C57 C53 1.535 1_655 S
C57 H117 0.959 . S
C57 H118 0.961 . S
C57 H119 0.959 . S
C58 C55 1.450 . S
C58 H120 0.960 . S
C58 H121 0.960 . S
C58 H122 0.960 . S
C59 C60 1.309 . S
C59 C64 1.304 . S
C59 O97 1.435 . S
C60 C59 1.309 . S
C60 C61 1.476 . S
C60 H124 0.930 1_455 S
C61 C60 1.476 . S
C61 C62 1.400 . S
C61 C65 1.567 1_455 S
C62 C61 1.400 . S
C62 C63 1.373 . S
C62 C84 1.432 . S
C63 C62 1.373 . S
C63 C64 1.339 . S
C63 C66 1.530 . S
C64 C59 1.304 . S
C64 C63 1.339 . S
C64 H125 0.930 . S
C65 C61 1.567 1_655 S
C65 H126 0.961 . S
C65 H127 0.960 . S
C65 H128 0.958 . S
C66 C63 1.530 . S
C66 H129 0.961 . S
C66 H130 0.960 . S
C66 H131 0.960 . S
C67 C68 1.530 1_655 S
C67 H133 0.961 . S
C67 H134 0.961 . S
C67 H135 0.959 . S
C68 C67 1.530 1_455 S
C68 O96 1.412 1_455 S
C68 H132 0.980 . S
C69 C70 1.288 . S
C69 C74 1.377 1_655 S
C69 O96 1.393 . S
C70 C69 1.288 . S
C70 C71 1.369 . S
C70 H136 0.932 . S
C71 C70 1.369 . S
C71 C72 1.398 1_655 S
C71 C75 1.527 . S
C72 C71 1.398 1_455 S
C72 C73 1.380 . S
C72 C86 1.497 . S
C73 C72 1.380 . S
C73 C74 1.383 . S
C73 C76 1.603 . S
C74 C69 1.377 1_455 S
C74 C73 1.383 . S
C74 H137 0.929 . S
C75 C71 1.527 . S
C75 H138 0.961 . S
C75 H139 0.959 . S
C75 H140 0.959 . S
C76 C73 1.603 . S
C76 H141 0.960 . S
C76 H142 0.962 . S
C76 H143 0.961 . S
C77 C44 1.587 . S
C77 C78 1.360 . S
C77 C90 1.412 . S
C78 C77 1.360 . S
C78 C79 1.365 . S
C78 H144 0.929 . S
C79 C54 1.553 . S
C79 C78 1.365 . S
C79 C80 1.404 . S
C80 C79 1.404 . S
C80 C81 1.395 . S
C80 C91 1.451 . S
C81 C80 1.395 . S
C81 C82 1.322 . S
C81 H145 0.930 . S
C82 C81 1.322 . S
C82 C83 1.459 . S
C82 H146 0.929 . S
C83 C82 1.459 . S
C83 C84 1.445 . S
C83 C92 1.395 . S
C84 C62 1.432 . S
C84 C83 1.445 . S
C84 C85 1.370 . S
C85 C84 1.370 . S
C85 C86 1.438 . S
C85 H147 0.930 . S
C86 C72 1.497 . S
C86 C85 1.438 . S
C86 C87 1.360 . S
C87 C86 1.360 . S
C87 C88 1.401 . S
C87 C92 1.446 . S
C88 C87 1.401 . S
C88 C89 1.347 . S
C88 H148 0.929 . S
C89 C88 1.347 . S
C89 C90 1.455 . S
C89 H149 0.930 . S
C90 C77 1.412 . S
C90 C89 1.455 . S
C90 C91 1.331 . S
C91 C80 1.451 . S
C91 C90 1.331 . S
C91 C92 1.497 . S
C92 C83 1.395 . S
C92 C87 1.446 . S
C92 C91 1.497 . S
C93 C94 1.582 . S
C93 H150 0.962 . S
C93 H151 0.959 . S
C93 H152 0.958 . S
C94 C93 1.582 . S
C94 O97 1.458 . S
C94 H123 0.980 . S
O95 C40 1.426 1_655 S
O95 C41 1.334 1_655 S
O96 C68 1.412 1_655 S
O96 C69 1.393 . S
O97 C59 1.435 . S
O97 C94 1.458 . S
O98 C50 1.468 . S
O98 C51 1.408 . S
H99 C40 0.980 . S
H100 C39 0.959 . S
H101 C39 0.959 . S
H102 C39 0.960 . S
H103 C42 0.929 . S
H104 C46 0.929 . S
H105 C47 0.959 . S
H106 C47 0.961 . S
H107 C47 0.961 . S
H108 C48 0.960 . S
H109 C48 0.960 . S
H110 C48 0.961 . S
H111 C50 0.980 . S
H112 C49 0.961 . S
H113 C49 0.960 . S
H114 C49 0.959 . S
H115 C52 0.930 . S
H116 C56 0.931 . S
H117 C57 0.959 . S
H118 C57 0.961 . S
H119 C57 0.959 . S
H120 C58 0.960 . S
H121 C58 0.960 . S
H122 C58 0.960 . S
H123 C94 0.980 . S
H124 C60 0.930 1_655 S
H125 C64 0.930 . S
H126 C65 0.961 . S
H127 C65 0.960 . S
H128 C65 0.958 . S
H129 C66 0.961 . S
H130 C66 0.960 . S
H131 C66 0.960 . S
H132 C68 0.980 . S
H133 C67 0.961 . S
H134 C67 0.961 . S
H135 C67 0.959 . S
H136 C70 0.932 . S
H137 C74 0.929 . S
H138 C75 0.961 . S
H139 C75 0.959 . S
H140 C75 0.959 . S
H141 C76 0.960 . S
H142 C76 0.962 . S
H143 C76 0.961 . S
H144 C78 0.929 . S
H145 C81 0.930 . S
H146 C82 0.929 . S
H147 C85 0.930 . S
H148 C88 0.929 . S
H149 C89 0.930 . S
H150 C93 0.962 . S
H151 C93 0.959 . S
H152 C93 0.958 . S
C153 C154 1.560 1_565 S
C153 H214 0.959 . S
C153 H215 0.959 . S
C153 H216 0.960 . S
C154 C153 1.560 1_545 S
C154 O209 1.426 1_545 S
C154 H213 0.980 . S
C155 C156 1.407 . S
C155 C160 1.418 1_545 S
C155 O209 1.334 1_545 S
C156 C155 1.407 . S
C156 C157 1.360 . S
C156 H217 0.929 . S
C157 C156 1.360 . S
C157 C158 1.401 . S
C157 C161 1.527 . S
C158 C157 1.401 . S
C158 C159 1.405 1_545 S
C158 C191 1.587 . S
C159 C158 1.405 1_565 S
C159 C160 1.332 . S
C159 C162 1.496 . S
C160 C155 1.418 1_565 S
C160 C159 1.332 . S
C160 H218 0.929 . S
C161 C157 1.527 . S
C161 H219 0.959 . S
C161 H220 0.961 . S
C161 H221 0.961 . S
C162 C159 1.496 . S
C162 H222 0.960 . S
C162 H223 0.960 . S
C162 H224 0.961 . S
C163 C164 1.517 . S
C163 H226 0.961 . S
C163 H227 0.960 . S
C163 H228 0.959 . S
C164 C163 1.517 . S
C164 O212 1.468 . S
C164 H225 0.980 . S
C165 C166 1.349 . S
C165 C170 1.367 . S
C165 O212 1.408 . S
C166 C165 1.349 . S
C166 C167 1.407 . S
C166 H229 0.930 . S
C167 C166 1.407 . S
C167 C168 1.449 . S
C167 C171 1.535 1_545 S
C168 C167 1.449 . S
C168 C169 1.384 . S
C168 C193 1.553 . S
C169 C168 1.384 . S
C169 C170 1.364 . S
C169 C172 1.450 . S
C170 C165 1.367 . S
C170 C169 1.364 . S
C170 H230 0.931 . S
C171 C167 1.535 1_565 S
C171 H231 0.959 . S
C171 H232 0.961 . S
C171 H233 0.959 . S
C172 C169 1.450 . S
C172 H234 0.960 . S
C172 H235 0.960 . S
C172 H236 0.960 . S
C173 C174 1.309 . S
C173 C178 1.304 . S
C173 O211 1.435 . S
C174 C173 1.309 . S
C174 C175 1.476 . S
C174 H238 0.930 . S
C175 C174 1.476 . S
C175 C176 1.400 . S
C175 C179 1.567 1_545 S
C176 C175 1.400 . S
C176 C177 1.373 . S
C176 C198 1.432 . S
C177 C176 1.373 . S
C177 C178 1.339 . S
C177 C180 1.530 . S
C178 C173 1.304 . S
C178 C177 1.339 . S
C178 H239 0.930 . S
C179 C175 1.567 1_565 S
C179 H240 0.961 . S
C179 H241 0.960 . S
C179 H242 0.958 . S
C180 C177 1.530 . S
C180 H243 0.961 . S
C180 H244 0.960 . S
C180 H245 0.960 . S
C181 C182 1.530 . S
C181 H247 0.961 . S
C181 H248 0.961 1_545 S
C181 H249 0.959 1_545 S
C182 C181 1.530 . S
C182 O210 1.412 . S
C182 H246 0.980 . S
C183 C184 1.288 1_545 S
C183 C188 1.377 . S
C183 O210 1.393 . S
C184 C183 1.288 1_565 S
C184 C185 1.369 . S
C184 H250 0.932 . S
C185 C184 1.369 . S
C185 C186 1.398 1_565 S
C185 C189 1.527 . S
C186 C185 1.398 1_545 S
C186 C187 1.380 . S
C186 C200 1.497 . S
C187 C186 1.380 . S
C187 C188 1.383 . S
C187 C190 1.603 . S
C188 C183 1.377 . S
C188 C187 1.383 . S
C188 H251 0.929 . S
C189 C185 1.527 . S
C189 H252 0.961 . S
C189 H253 0.959 . S
C189 H254 0.959 . S
C190 C187 1.603 . S
C190 H255 0.960 . S
C190 H256 0.962 . S
C190 H257 0.961 . S
C191 C158 1.587 . S
C191 C192 1.360 . S
C191 C204 1.412 . S
C192 C191 1.360 . S
C192 C193 1.365 . S
C192 H258 0.929 . S
C193 C168 1.553 . S
C193 C192 1.365 . S
C193 C194 1.404 . S
C194 C193 1.404 . S
C194 C195 1.395 . S
C194 C205 1.451 . S
C195 C194 1.395 . S
C195 C196 1.322 . S
C195 H259 0.930 . S
C196 C195 1.322 . S
C196 C197 1.459 . S
C196 H260 0.929 . S
C197 C196 1.459 . S
C197 C198 1.445 . S
C197 C206 1.395 . S
C198 C176 1.432 . S
C198 C197 1.445 . S
C198 C199 1.370 . S
C199 C198 1.370 . S
C199 C200 1.438 . S
C199 H261 0.930 . S
C200 C186 1.497 . S
C200 C199 1.438 . S
C200 C201 1.360 . S
C201 C200 1.360 . S
C201 C202 1.401 . S
C201 C206 1.446 . S
C202 C201 1.401 . S
C202 C203 1.347 . S
C202 H262 0.929 . S
C203 C202 1.347 . S
C203 C204 1.455 . S
C203 H263 0.930 . S
C204 C191 1.412 . S
C204 C203 1.455 . S
C204 C205 1.331 . S
C205 C194 1.451 . S
C205 C204 1.331 . S
C205 C206 1.497 . S
C206 C197 1.395 . S
C206 C201 1.446 . S
C206 C205 1.497 . S
C207 C208 1.582 . S
C207 H264 0.962 . S
C207 H265 0.959 . S
C207 H266 0.958 . S
C208 C207 1.582 . S
C208 O211 1.458 . S
C208 H237 0.980 . S
O209 C154 1.426 1_565 S
O209 C155 1.334 1_565 S
O210 C182 1.412 . S
O210 C183 1.393 . S
O211 C173 1.435 . S
O211 C208 1.458 . S
O212 C164 1.468 . S
O212 C165 1.408 . S
H213 C154 0.980 . S
H214 C153 0.959 . S
H215 C153 0.959 . S
H216 C153 0.960 . S
H217 C156 0.929 . S
H218 C160 0.929 . S
H219 C161 0.959 . S
H220 C161 0.961 . S
H221 C161 0.961 . S
H222 C162 0.960 . S
H223 C162 0.960 . S
H224 C162 0.961 . S
H225 C164 0.980 . S
H226 C163 0.961 . S
H227 C163 0.960 . S
H228 C163 0.959 . S
H229 C166 0.930 . S
H230 C170 0.931 . S
H231 C171 0.959 . S
H232 C171 0.961 . S
H233 C171 0.959 . S
H234 C172 0.960 . S
H235 C172 0.960 . S
H236 C172 0.960 . S
H237 C208 0.980 . S
H238 C174 0.930 . S
H239 C178 0.930 . S
H240 C179 0.961 . S
H241 C179 0.960 . S
H242 C179 0.958 . S
H243 C180 0.961 . S
H244 C180 0.960 . S
H245 C180 0.960 . S
H246 C182 0.980 . S
H247 C181 0.961 . S
H248 C181 0.961 1_565 S
H249 C181 0.959 1_565 S
H250 C184 0.932 . S
H251 C188 0.929 . S
H252 C189 0.961 . S
H253 C189 0.959 . S
H254 C189 0.959 . S
H255 C190 0.960 . S
H256 C190 0.962 . S
H257 C190 0.961 . S
H258 C192 0.929 . S
H259 C195 0.930 . S
H260 C196 0.929 . S
H261 C199 0.930 . S
H262 C202 0.929 . S
H263 C203 0.930 . S
H264 C207 0.962 . S
H265 C207 0.959 . S
H266 C207 0.958 . S
C267 C268 1.560 . S
C267 H328 0.959 . S
C267 H329 0.959 . S
C267 H330 0.960 . S
C268 C267 1.560 . S
C268 O323 1.426 . S
C268 H327 0.980 . S
C269 C270 1.407 . S
C269 C274 1.418 . S
C269 O323 1.334 . S
C270 C269 1.407 . S
C270 C271 1.360 . S
C270 H331 0.929 . S
C271 C270 1.360 . S
C271 C272 1.401 . S
C271 C275 1.527 . S
C272 C271 1.401 . S
C272 C273 1.405 . S
C272 C305 1.587 . S
C273 C272 1.405 . S
C273 C274 1.332 . S
C273 C276 1.496 . S
C274 C269 1.418 . S
C274 C273 1.332 . S
C274 H332 0.929 . S
C275 C271 1.527 . S
C275 H333 0.959 . S
C275 H334 0.961 . S
C275 H335 0.961 . S
C276 C273 1.496 . S
C276 H336 0.960 . S
C276 H337 0.960 . S
C276 H338 0.961 . S
C277 C278 1.517 . S
C277 H340 0.961 . S
C277 H341 0.960 . S
C277 H342 0.959 . S
C278 C277 1.517 . S
C278 O326 1.468 . S
C278 H339 0.980 . S
C279 C280 1.349 . S
C279 C284 1.367 . S
C279 O326 1.408 . S
C280 C279 1.349 . S
C280 C281 1.407 . S
C280 H343 0.930 . S
C281 C280 1.407 . S
C281 C282 1.449 . S
C281 C285 1.535 . S
C282 C281 1.449 . S
C282 C283 1.384 . S
C282 C307 1.553 . S
C283 C282 1.384 . S
C283 C284 1.364 . S
C283 C286 1.450 . S
C284 C279 1.367 . S
C284 C283 1.364 . S
C284 H344 0.931 . S
C285 C281 1.535 . S
C285 H345 0.959 . S
C285 H346 0.961 . S
C285 H347 0.959 . S
C286 C283 1.450 . S
C286 H348 0.960 . S
C286 H349 0.960 . S
C286 H350 0.960 . S
C287 C288 1.309 . S
C287 C292 1.304 . S
C287 O325 1.435 . S
C288 C287 1.309 . S
C288 C289 1.476 . S
C288 H352 0.930 . S
C289 C288 1.476 . S
C289 C290 1.400 . S
C289 C293 1.567 . S
C290 C289 1.400 . S
C290 C291 1.373 . S
C290 C312 1.432 . S
C291 C290 1.373 . S
C291 C292 1.339 . S
C291 C294 1.530 . S
C292 C287 1.304 . S
C292 C291 1.339 . S
C292 H353 0.930 . S
C293 C289 1.567 . S
C293 H354 0.961 . S
C293 H355 0.960 . S
C293 H356 0.958 . S
C294 C291 1.530 . S
C294 H357 0.961 . S
C294 H358 0.960 . S
C294 H359 0.960 . S
C295 C296 1.537 . S
C295 H361 0.961 . S
C295 H362 0.961 1_554 S
C295 H363 0.959 . S
C296 C295 1.537 . S
C296 O324 1.408 1_554 S
C296 H360 0.959 1_554 S
C297 C298 1.288 . S
C297 C302 1.377 . S
C297 O324 1.393 . S
C298 C297 1.288 . S
C298 C299 1.369 . S
C298 H364 0.932 . S
C299 C298 1.369 . S
C299 C300 1.398 . S
C299 C303 1.527 . S
C300 C299 1.398 . S
C300 C301 1.380 . S
C300 C314 1.497 . S
C301 C300 1.380 . S
C301 C302 1.383 . S
C301 C304 1.603 . S
C302 C297 1.377 . S
C302 C301 1.383 . S
C302 H365 0.929 . S
C303 C299 1.527 . S
C303 H366 0.961 . S
C303 H367 0.959 . S
C303 H368 0.959 . S
C304 C301 1.603 . S
C304 H369 0.960 . S
C304 H370 0.962 . S
C304 H371 0.961 . S
C305 C272 1.587 . S
C305 C306 1.360 . S
C305 C318 1.412 . S
C306 C305 1.360 . S
C306 C307 1.365 . S
C306 H372 0.929 . S
C307 C282 1.553 . S
C307 C306 1.365 . S
C307 C308 1.404 . S
C308 C307 1.404 . S
C308 C309 1.395 . S
C308 C319 1.451 . S
C309 C308 1.395 . S
C309 C310 1.322 . S
C309 H373 0.930 . S
C310 C309 1.322 . S
C310 C311 1.459 . S
C310 H374 0.929 . S
C311 C310 1.459 . S
C311 C312 1.445 . S
C311 C320 1.395 . S
C312 C290 1.432 . S
C312 C311 1.445 . S
C312 C313 1.370 . S
C313 C312 1.370 . S
C313 C314 1.438 . S
C313 H375 0.930 . S
C314 C300 1.497 . S
C314 C313 1.438 . S
C314 C315 1.360 . S
C315 C314 1.360 . S
C315 C316 1.401 . S
C315 C320 1.446 . S
C316 C315 1.401 . S
C316 C317 1.347 . S
C316 H376 0.929 . S
C317 C316 1.347 . S
C317 C318 1.455 . S
C317 H377 0.930 . S
C318 C305 1.412 . S
C318 C317 1.455 . S
C318 C319 1.331 . S
C319 C308 1.451 . S
C319 C318 1.331 . S
C319 C320 1.497 . S
C320 C311 1.395 . S
C320 C315 1.446 . S
C320 C319 1.497 . S
C321 C322 1.582 1_554 S
C321 H378 0.962 . S
C321 H379 0.959 1_554 S
C321 H380 0.958 . S
C322 C321 1.582 1_556 S
C322 O325 1.458 . S
C322 H351 0.980 . S
O323 C268 1.426 . S
O323 C269 1.334 . S
O324 C296 1.408 1_556 S
O324 C297 1.393 . S
O325 C287 1.435 . S
O325 C322 1.458 . S
O326 C278 1.468 . S
O326 C279 1.408 . S
H327 C268 0.980 . S
H328 C267 0.959 . S
H329 C267 0.959 . S
H330 C267 0.960 . S
H331 C270 0.929 . S
H332 C274 0.929 . S
H333 C275 0.959 . S
H334 C275 0.961 . S
H335 C275 0.961 . S
H336 C276 0.960 . S
H337 C276 0.960 . S
H338 C276 0.961 . S
H339 C278 0.980 . S
H340 C277 0.961 . S
H341 C277 0.960 . S
H342 C277 0.959 . S
H343 C280 0.930 . S
H344 C284 0.931 . S
H345 C285 0.959 . S
H346 C285 0.961 . S
H347 C285 0.959 . S
H348 C286 0.960 . S
H349 C286 0.960 . S
H350 C286 0.960 . S
H351 C322 0.980 . S
H352 C288 0.930 . S
H353 C292 0.930 . S
H354 C293 0.961 . S
H355 C293 0.960 . S
H356 C293 0.958 . S
H357 C294 0.961 . S
H358 C294 0.960 . S
H359 C294 0.960 . S
H360 C296 0.959 1_556 S
H361 C295 0.961 . S
H362 C295 0.961 1_556 S
H363 C295 0.959 . S
H364 C298 0.932 . S
H365 C302 0.929 . S
H366 C303 0.961 . S
H367 C303 0.959 . S
H368 C303 0.959 . S
H369 C304 0.960 . S
H370 C304 0.962 . S
H371 C304 0.961 . S
H372 C306 0.929 . S
H373 C309 0.930 . S
H374 C310 0.929 . S
H375 C313 0.930 . S
H376 C316 0.929 . S
H377 C317 0.930 . S
H378 C321 0.962 . S
H379 C321 0.959 1_556 S
H380 C321 0.958 . S
C381 C382 1.387 . S
C381 H385 0.950 . S
C381 C390 1.390 . S
C382 C381 1.387 . S
C382 C384 1.387 1_455 S
H383 C390 0.950 . S
C384 C382 1.387 1_655 S
C384 C386 1.390 . S
C384 H388 0.950 . S
H385 C381 0.950 . S
C386 C384 1.390 . S
C386 C387 1.387 1_655 S
C386 H389 0.950 . S
C387 C386 1.387 1_455 S
C387 C390 1.387 . S
H388 C384 0.950 . S
H389 C386 0.950 . S
C390 C381 1.390 . S
C390 H383 0.950 . S
C390 C387 1.387 . S
C391 C392 1.387 . S
C391 H395 0.950 1_545 S
C391 C400 1.390 . S
C392 C391 1.387 . S
C392 C394 1.387 . S
H393 C400 0.950 1_565 S
C394 C392 1.387 . S
C394 C396 1.390 . S
C394 H398 0.950 . S
H395 C391 0.950 1_565 S
C396 C394 1.390 . S
C396 C397 1.387 . S
C396 H399 0.950 . S
C397 C396 1.387 . S
C397 C400 1.387 . S
H398 C394 0.950 . S
H399 C396 0.950 . S
C400 C391 1.390 . S
C400 H393 0.950 1_545 S
C400 C397 1.387 . S
C401 C402 1.387 . S
C401 H405 0.950 . S
C401 C410 1.390 . S
C402 C401 1.387 . S
C402 C404 1.387 . S
H403 C410 0.950 . S
C404 C402 1.387 . S
C404 C406 1.390 . S
C404 H408 0.950 . S
H405 C401 0.950 . S
C406 C404 1.390 . S
C406 C407 1.387 . S
C406 H409 0.950 . S
C407 C406 1.387 . S
C407 C410 1.387 . S
H408 C404 0.950 . S
H409 C406 0.950 . S
C410 C401 1.390 . S
C410 H403 0.950 . S
C410 C407 1.387 . S
C411 C412 1.387 . S
C411 H415 0.950 . S
C411 C420 1.390 . S
C412 C411 1.387 . S
C412 C414 1.387 . S
H413 C420 0.950 . S
C414 C412 1.387 . S
C414 C416 1.390 . S
C414 H418 0.950 1_455 S
H415 C411 0.950 . S
C416 C414 1.390 . S
C416 C417 1.387 . S
C416 H419 0.950 1_455 S
C417 C416 1.387 . S
C417 C420 1.387 . S
H418 C414 0.950 1_655 S
H419 C416 0.950 1_655 S
C420 C411 1.390 . S
C420 H413 0.950 . S
C420 C417 1.387 . S
C421 C422 1.387 . S
C421 H425 0.950 . S
C421 C430 1.390 . S
C422 C421 1.387 . S
C422 C424 1.387 . S
H423 C430 0.950 . S
C424 C422 1.387 . S
C424 C426 1.390 . S
C424 H428 0.950 . S
H425 C421 0.950 . S
C426 C424 1.390 . S
C426 C427 1.387 . S
C426 H429 0.950 1_545 S
C427 C426 1.387 . S
C427 C430 1.387 . S
H428 C424 0.950 . S
H429 C426 0.950 1_565 S
C430 C421 1.390 . S
C430 H423 0.950 . S
C430 C427 1.387 . S
C431 C432 1.387 . S
C431 H435 0.950 . S
C431 C440 1.390 . S
C432 C431 1.387 . S
C432 C434 1.387 . S
H433 C440 0.950 . S
C434 C432 1.387 . S
C434 C436 1.390 . S
C434 H438 0.950 . S
H435 C431 0.950 . S
C436 C434 1.390 . S
C436 C437 1.387 . S
C436 H439 0.950 . S
C437 C436 1.387 . S
C437 C440 1.387 . S
H438 C434 0.950 . S
H439 C436 0.950 . S
C440 C431 1.390 . S
C440 H433 0.950 . S
C440 C437 1.387 . S
C441 C442 1.387 . S
C441 H445 0.950 . S
C441 C450 1.390 . S
C442 C441 1.387 . S
C442 C444 1.387 . S
H443 C450 0.950 . S
C444 C442 1.387 . S
C444 C446 1.394 1_545 S
C444 H448 0.950 1_545 S
H445 C441 0.950 . S
C446 C444 1.394 1_565 S
C446 C447 1.376 1_565 S
C446 H449 0.957 . S
C447 C446 1.376 1_545 S
C447 C450 1.387 . S
H448 C444 0.950 1_565 S
H449 C446 0.957 . S
C450 C441 1.390 . S
C450 H443 0.950 . S
C450 C447 1.387 . S
C451 C452 1.387 . S
C451 H455 0.950 . S
C451 C460 1.390 . S
C452 C451 1.387 . S
C452 C454 1.387 . S
H453 C460 0.950 . S
C454 C452 1.387 . S
C454 C456 1.390 . S
C454 H458 0.950 . S
H455 C451 0.950 . S
C456 C454 1.390 . S
C456 C457 1.387 . S
C456 H459 0.950 . S
C457 C456 1.387 . S
C457 C460 1.387 . S
H458 C454 0.950 . S
H459 C456 0.950 . S
C460 C451 1.390 . S
C460 H453 0.950 . S
C460 C457 1.387 . S
C461 C462 1.387 . S
C461 H465 0.950 . S
C461 C470 1.390 . S
C462 C461 1.387 . S
C462 C464 1.387 . S
H463 C470 0.950 . S
C464 C462 1.387 . S
C464 C466 1.390 . S
C464 H468 0.950 1_455 S
H465 C461 0.950 . S
C466 C464 1.390 . S
C466 C467 1.387 . S
C466 H469 0.950 1_455 S
C467 C466 1.387 . S
C467 C470 1.387 . S
H468 C464 0.950 1_655 S
H469 C466 0.950 1_655 S
C470 C461 1.390 . S
C470 H463 0.950 . S
C470 C467 1.387 . S
C471 C472 1.387 . S
C471 H475 0.950 . S
C471 C480 1.390 . S
C472 C471 1.387 . S
C472 C474 1.387 . S
H473 C480 0.950 . S
C474 C472 1.387 . S
C474 C476 1.390 . S
C474 H478 0.950 . S
H475 C471 0.950 . S
C476 C474 1.390 . S
C476 C477 1.387 . S
C476 H479 0.950 . S
C477 C476 1.387 . S
C477 C480 1.387 . S
H478 C474 0.950 . S
H479 C476 0.950 . S
C480 C471 1.390 . S
C480 H473 0.950 . S
C480 C477 1.387 . S
C481 C482 1.387 . S
C481 H485 0.950 . S
C481 C490 1.390 . S
C482 C481 1.387 . S
C482 C484 1.387 . S
H483 C490 0.950 . S
C484 C482 1.387 . S
C484 C486 1.397 . S
C484 H488 0.950 . S
H485 C481 0.950 . S
C486 C484 1.397 . S
C486 C487 1.390 . S
C486 H489 0.941 1_554 S
C487 C486 1.390 . S
C487 C490 1.387 . S
H488 C484 0.950 . S
H489 C486 0.941 1_556 S
C490 C481 1.390 . S
C490 H483 0.950 . S
C490 C487 1.387 . S
C491 C492 1.387 . S
C491 H495 0.950 . S
C491 C500 1.390 . S
C492 C491 1.387 . S
C492 C494 1.387 . S
H493 C500 0.950 . S
C494 C492 1.387 . S
C494 C496 1.390 . S
C494 H498 0.950 . S
H495 C491 0.950 . S
C496 C494 1.390 . S
C496 C497 1.387 . S
C496 H499 0.950 . S
C497 C496 1.387 . S
C497 C500 1.387 . S
H498 C494 0.950 . S
H499 C496 0.950 . S
C500 C491 1.390 . S
C500 H493 0.950 . S
C500 C497 1.387 . S
C387 C94 1.086 . S
C382 C10 1.501 . S
C392 C21 1.518 . S
C397 C208 1.154 . S
C402 C31 1.261 . S
C407 C268 1.019 . S
C412 C0 1.363 . S
C417 C68 1.153 . S
C427 C182 1.136 . S
C422 C18 1.340 . S
C432 C34 1.401 . S
C437 C278 0.905 . S
C447 C164 0.807 . S
C442 C36 1.425 . S
C452 C8 1.395 . S
C457 C296 1.088 . S
C467 C40 1.071 . S
C462 C23 1.304 . S
C477 C154 0.999 . S
C472 C26 1.215 . S
C487 C322 1.245 1_554 S
C482 C5 1.448 . S
C492 C13 1.371 . S
C497 C50 0.780 . S
