# Generated by pormake.
# Topology tsx, (6,3)-cn, num edge types: 1
# Building blocks:
#     Node 0, Type 0, BuildingBlock: VOLQOD_clean_sbu_1, # of connection points: 6
#     Node 1, Type 0, BuildingBlock: VOLQOD_clean_sbu_1, # of connection points: 6
#     Node 2, Type 1, BuildingBlock: PAMTOO_clean_linker_0, # of connection points: 3
#     Node 3, Type 1, BuildingBlock: PAMTOO_clean_linker_0, # of connection points: 3
#     Node 4, Type 1, BuildingBlock: PAMTOO_clean_linker_0, # of connection points: 3
#     Node 5, Type 1, BuildingBlock: PAMTOO_clean_linker_0, # of connection points: 3
#     Edge 6, Type (0, 1), BuildingBlock: UVAHIK_clean_linker_0, # of connection points: 2
#     Edge 7, Type (0, 1), BuildingBlock: UVAHIK_clean_linker_0, # of connection points: 2
#     Edge 8, Type (0, 1), BuildingBlock: UVAHIK_clean_linker_0, # of connection points: 2
#     Edge 9, Type (0, 1), BuildingBlock: UVAHIK_clean_linker_0, # of connection points: 2
#     Edge 10, Type (0, 1), BuildingBlock: UVAHIK_clean_linker_0, # of connection points: 2
#     Edge 11, Type (0, 1), BuildingBlock: UVAHIK_clean_linker_0, # of connection points: 2
#     Edge 12, Type (0, 1), BuildingBlock: UVAHIK_clean_linker_0, # of connection points: 2
#     Edge 13, Type (0, 1), BuildingBlock: UVAHIK_clean_linker_0, # of connection points: 2
#     Edge 14, Type (0, 1), BuildingBlock: UVAHIK_clean_linker_0, # of connection points: 2
#     Edge 15, Type (0, 1), BuildingBlock: UVAHIK_clean_linker_0, # of connection points: 2
#     Edge 16, Type (0, 1), BuildingBlock: UVAHIK_clean_linker_0, # of connection points: 2
#     Edge 17, Type (0, 1), BuildingBlock: UVAHIK_clean_linker_0, # of connection points: 2
# Relax obj value: 0.054
# Max RMSD: 0.115
# Mean RMSD: 0.102
data_MOF--net-tsx--node1-VOLQOD_clean_sbu_1--node2-PAMTOO_clean_linker_0--edge1-UVAHIK_clean_linker_0
_symmetry_space_group_name_H-M    P1
_symmetry_Int_Tables_number       1
_symmetry_cell_setting            triclinic
loop_
_symmetry_equiv_pos_as_xyz
'x, y, z'
_cell_length_a     27.188958
_cell_length_b     28.015131
_cell_length_c     48.195074
_cell_angle_alpha  82.216594
_cell_angle_beta   89.784138
_cell_angle_gamma 89.995063
loop_
_atom_site_label
_atom_site_type_symbol
_atom_site_fract_x
_atom_site_fract_y
_atom_site_fract_z
_atom_type_partial_charge
O0 O 0.0707 0.99004 0.07067 0.0
Zn1 Zn 0.08864 0.99265 0.0295 0.0
O2 O 0.02999 0.0029 0.0056 0.0
Zn3 Zn 0.01998 0.94799 0.98521 0.0
Zn4 Zn 0.97233 0.00999 0.02886 0.0
Zn5 Zn 0.03784 0.06115 0.97861 0.0
O6 O 0.01885 0.96838 0.94346 0.0
O7 O 0.03359 0.04694 0.93882 0.0
O8 O 0.12388 0.93083 0.02338 0.0
O9 O 0.07509 0.90087 0.99312 0.0
O10 O 0.95616 0.91349 0.99596 0.0
O11 O 0.92212 0.95895 0.02507 0.0
O12 O 0.93987 0.07426 0.01879 0.0
O13 O 0.13599 0.04833 0.02057 0.0
O14 O 0.98509 0.10972 0.98352 0.0
O15 O 0.10217 0.09356 0.9842 0.0
C16 C 0.0301 0.99615 0.08306 0.0
C17 C 0.02519 0.00863 0.92812 0.0
C18 C 0.9207 0.92278 0.01171 0.0
C19 C 0.11357 0.89822 0.00823 0.0
C20 C 0.94896 0.11016 0.00036 0.0
C21 C 0.13676 0.08527 0.00194 0.0
O22 O 0.99038 0.00429 0.06937 0.0
O23 O 0.57925 0.48379 0.57387 0.0
Zn24 Zn 0.59831 0.48749 0.5329 0.0
O25 O 0.54051 0.49787 0.50856 0.0
Zn26 Zn 0.52993 0.44185 0.4891 0.0
Zn27 Zn 0.48296 0.50816 0.53138 0.0
Zn28 Zn 0.55043 0.55448 0.48071 0.0
O29 O 0.52913 0.46029 0.44708 0.0
O30 O 0.5476 0.53812 0.44137 0.0
O31 O 0.63371 0.42608 0.52698 0.0
O32 O 0.58456 0.39395 0.49775 0.0
O33 O 0.46533 0.40937 0.50035 0.0
O34 O 0.43223 0.45692 0.52867 0.0
O35 O 0.45095 0.57207 0.51903 0.0
O36 O 0.64579 0.54329 0.52461 0.0
O37 O 0.49777 0.60389 0.48353 0.0
O38 O 0.61453 0.58673 0.4868 0.0
C39 C 0.53958 0.49421 0.5859 0.0
C40 C 0.53755 0.49963 0.43122 0.0
C41 C 0.43011 0.42004 0.51589 0.0
C42 C 0.62335 0.39244 0.5126 0.0
C43 C 0.46097 0.60626 0.49967 0.0
C44 C 0.6478 0.57934 0.50541 0.0
O45 O 0.50073 0.50593 0.57197 0.0
H46 H 0.0984 0.94274 0.3789 0.0
H47 H 0.98335 0.0438 0.39033 0.0
H48 H 0.07107 0.98407 0.46042 0.0
H49 H 0.97666 -0.00069 0.48008 0.0
C50 C 0.96074 0.02001 0.46089 0.0
O51 O -0.00181 0.04157 0.44429 0.0
H52 H 0.94015 0.99413 0.44962 0.0
C53 C 0.07739 0.96295 0.39252 0.0
C54 C 0.08918 0.95906 0.42107 0.0
C55 C 0.03949 0.9934 0.38114 0.0
C56 C 0.01316 0.02054 0.39866 0.0
C57 C 0.02472 0.01696 0.4272 0.0
C58 C 0.06306 0.9869 0.43825 0.0
H59 H 0.04697 0.10816 0.62589 0.0
H60 H 0.95205 0.98628 0.62167 0.0
H61 H 0.01406 0.06218 0.54638 0.0
H62 H 0.91228 0.02763 0.53893 0.0
C63 C 0.91123 -0.00169 0.55694 0.0
O64 O 0.95813 0.99029 0.56731 0.0
H65 H 0.88645 0.00967 0.57328 0.0
C66 C 0.0273 0.08452 0.61373 0.0
C67 C 0.03331 0.09042 0.58452 0.0
C68 C -0.00181 0.04712 0.62754 0.0
C69 C 0.9749 0.01531 0.6116 0.0
C70 C 0.98048 0.02111 0.58242 0.0
C71 C 0.00983 0.05831 0.56894 0.0
H72 H 0.61401 0.45656 0.88702 0.0
H73 H 0.47911 0.53658 0.89061 0.0
H74 H 0.56579 0.50122 0.96457 0.0
H75 H 0.46659 0.50086 0.97923 0.0
C76 C 0.45031 0.52111 0.95999 0.0
O77 O 0.48698 0.54491 0.94379 0.0
H78 H 0.43152 0.49472 0.94829 0.0
C79 C 0.58738 0.47476 0.89863 0.0
C80 C 0.59459 0.47543 0.92743 0.0
C81 C 0.54591 0.49658 0.88484 0.0
C82 C 0.51175 0.51994 0.90044 0.0
C83 C 0.51929 0.52164 0.92906 0.0
C84 C 0.5606 0.49967 0.94242 0.0
H85 H 0.55268 0.59734 0.12903 0.0
H86 H 0.45469 0.47761 0.12505 0.0
H87 H 0.51499 0.55422 0.04945 0.0
H88 H 0.41347 0.52362 0.04296 0.0
C89 C 0.41166 0.49304 0.06025 0.0
O90 O 0.45836 0.48306 0.07048 0.0
H91 H 0.38727 0.50351 0.07702 0.0
C92 C 0.53199 0.57433 0.11695 0.0
C93 C 0.53671 0.58092 0.08765 0.0
C94 C 0.50263 0.53721 0.13085 0.0
C95 C 0.47783 0.50635 0.11491 0.0
C96 C 0.48226 0.5128 0.08565 0.0
C97 C 0.51187 0.54971 0.07209 0.0
C98 C 0.20784 0.12003 0.02552 0.0
C99 C 0.17599 0.12182 0.00249 0.0
C100 C 0.24003 0.15814 0.02792 0.0
C101 C 0.25079 0.28829 0.00469 0.0
H102 H 0.3786 0.27276 0.04017 0.0
C103 C 0.36976 0.4514 0.02342 0.0
C104 C 0.39048 0.44892 0.0502 0.0
C105 C 0.34849 0.41058 0.01465 0.0
C106 C 0.34289 0.27761 0.0303 0.0
H107 H 0.1555 0.16357 0.96296 0.0
H108 H 0.21228 0.22945 0.96691 0.0
H109 H 0.33409 0.2019 0.0293 0.0
H110 H 0.40463 0.40255 0.08903 0.0
H111 H 0.36732 0.33108 0.07384 0.0
H112 H 0.25918 0.36382 0.00608 0.0
C113 C 0.21146 0.1992 0.98348 0.0
C114 C 0.31739 0.23706 0.02409 0.0
C115 C 0.1791 0.16125 0.98114 0.0
C116 C 0.38948 0.40505 0.06812 0.0
C117 C 0.36839 0.3642 0.05935 0.0
C118 C 0.27634 0.32878 0.01079 0.0
C119 C 0.2413 0.19875 0.00727 0.0
C120 C 0.2707 0.24186 0.01158 0.0
C121 C 0.34739 0.36657 0.03259 0.0
C122 C 0.32232 0.32385 0.02405 0.0
H123 H 0.2064 0.09023 0.04235 0.0
H124 H 0.26218 0.15674 0.04664 0.0
H125 H 0.21454 0.29331 0.99551 0.0
H126 H 0.36956 0.48498 0.00938 0.0
H127 H 0.3328 0.41348 0.99387 0.0
C128 C 0.13631 0.82192 0.98981 0.0
C129 C 0.14762 0.85719 0.00697 0.0
C130 C 0.1693 0.78485 0.98686 0.0
C131 C 0.27566 0.71746 0.0185 0.0
H132 H 0.29747 0.69064 0.94255 0.0
C133 C 0.42664 0.58662 0.98849 0.0
C134 C 0.41424 0.55745 0.96807 0.0
C135 C 0.39433 0.62244 0.9949 0.0
C136 C 0.29136 0.69716 0.96393 0.0
H137 H 0.20206 0.88005 0.03525 0.0
H138 H 0.25995 0.81486 0.03 0.0
H139 H 0.24096 0.75434 0.95107 0.0
H140 H 0.3588 0.54241 0.93834 0.0
H141 H 0.30186 0.60427 0.94977 0.0
H142 H 0.32599 0.65982 0.03132 0.0
C143 C 0.2253 0.81616 0.01891 0.0
C144 C 0.25905 0.73378 0.96881 0.0
C145 C 0.19223 0.85355 0.02182 0.0
C146 C 0.369 0.56437 0.95426 0.0
C147 C 0.33667 0.60002 0.96068 0.0
C148 C 0.30798 0.68052 0.01363 0.0
C149 C 0.21446 0.78193 0.001 0.0
C150 C 0.25043 0.74406 0.99614 0.0
C151 C 0.34918 0.62993 0.98081 0.0
C152 C 0.31581 0.66968 0.98628 0.0
H153 H 0.10218 0.82322 0.97822 0.0
H154 H 0.15949 0.7585 0.97331 0.0
H155 H 0.26951 0.72442 0.0398 0.0
H156 H 0.46164 0.58205 0.99919 0.0
H157 H 0.40532 0.64511 0.01029 0.0
C158 C 0.87633 0.84744 0.00321 0.0
C159 C 0.87735 0.89051 0.0152 0.0
C160 C 0.83627 0.816 0.00787 0.0
C161 C 0.73692 0.78399 0.05886 0.0
H162 H 0.68162 0.71539 0.00158 0.0
C163 C 0.56675 0.66592 0.08201 0.0
C164 C 0.56886 0.61975 0.07381 0.0
C165 C 0.60092 0.70106 0.07173 0.0
C166 C 0.69692 0.7341 0.0178 0.0
H167 H 0.83614 0.93512 0.04057 0.0
H168 H 0.76641 0.88068 0.04839 0.0
H169 H 0.74871 0.77287 0.98956 0.0
H170 H 0.60676 0.57475 0.0474 0.0
H171 H 0.66707 0.63622 0.02955 0.0
H172 H 0.68598 0.74512 0.0872 0.0
C173 C 0.79692 0.87074 0.03584 0.0
C174 C 0.73531 0.76693 0.01094 0.0
C175 C 0.83687 0.90204 0.03125 0.0
C176 C 0.60423 0.61015 0.05397 0.0
C177 C 0.63868 0.64534 0.04375 0.0
C178 C 0.69873 0.75132 0.06569 0.0
C179 C 0.79648 0.82703 0.02459 0.0
C180 C 0.75559 0.79231 0.03142 0.0
C181 C 0.63817 0.69074 0.05314 0.0
C182 C 0.67814 0.7261 0.04526 0.0
H183 H 0.90688 0.83749 0.9907 0.0
H184 H 0.83716 0.78242 0.99908 0.0
H185 H 0.75246 0.80211 0.07528 0.0
H186 H 0.53924 0.67452 0.09688 0.0
H187 H 0.59882 0.73607 0.07883 0.0
C188 C 0.92433 0.1922 0.97724 0.0
C189 C 0.91651 0.15291 0.99823 0.0
C190 C 0.89249 0.23166 0.97454 0.0
C191 C 0.76546 0.263 0.9902 0.0
H192 H 0.81077 0.39407 0.9685 0.0
C193 C 0.62783 0.41811 0.96734 0.0
C194 C 0.63595 0.44809 0.94192 0.0
C195 C 0.66473 0.38707 0.97901 0.0
C196 C 0.79759 0.35764 0.97453 0.0
H197 H 0.86993 0.12507 0.03342 0.0
H198 H 0.81463 0.19406 0.02877 0.0
H199 H 0.87068 0.32941 0.97985 0.0
H200 H 0.69018 0.47165 0.90988 0.0
H201 H 0.7542 0.41677 0.92987 0.0
H202 H 0.69256 0.29072 0.98415 0.0
C203 C 0.84502 0.194 0.01418 0.0
C204 C 0.83186 0.32065 0.98098 0.0
C205 C 0.87683 0.15452 0.01688 0.0
C206 C 0.68262 0.44841 0.92927 0.0
C207 C 0.71948 0.41735 0.94091 0.0
C208 C 0.73127 0.29992 0.98376 0.0
C209 C 0.85216 0.23274 0.99278 0.0
C210 C 0.81614 0.2728 0.98843 0.0
C211 C 0.71047 0.38537 0.96548 0.0
C212 C 0.74693 0.34752 0.97539 0.0
H213 H 0.95456 0.1922 0.96254 0.0
H214 H 0.89862 0.26065 0.95761 0.0
H215 H 0.75214 0.22645 0.99545 0.0
H216 H 0.5922 0.41689 0.97754 0.0
H217 H 0.65693 0.36334 0.99819 0.0
C218 C 0.71576 0.61672 0.53018 0.0
C219 C 0.68672 0.61611 0.50616 0.0
C220 C 0.74718 0.65548 0.53248 0.0
C221 C 0.75875 0.78418 0.50547 0.0
H222 H 0.8825 0.77362 0.54554 0.0
C223 C 0.87332 0.95149 0.52115 0.0
C224 C 0.89134 0.95253 0.54831 0.0
C225 C 0.85348 0.90911 0.5136 0.0
C226 C 0.84789 0.77708 0.53439 0.0
H227 H 0.67067 0.65401 0.46487 0.0
H228 H 0.72614 0.72095 0.46867 0.0
H229 H 0.84027 0.70066 0.53593 0.0
H230 H 0.90255 0.91076 0.58894 0.0
H231 H 0.86759 0.83652 0.57588 0.0
H232 H 0.76589 0.86042 0.50429 0.0
C233 C 0.72364 0.69217 0.48606 0.0
C234 C 0.82371 0.73534 0.52889 0.0
C235 C 0.69204 0.65362 0.48382 0.0
C236 C 0.88929 0.91053 0.56778 0.0
C237 C 0.86959 0.86811 0.56024 0.0
C238 C 0.78297 0.82583 0.51087 0.0
C239 C 0.75044 0.6943 0.51074 0.0
C240 C 0.77854 0.73839 0.51465 0.0
C241 C 0.85116 0.86702 0.53311 0.0
C242 C 0.82748 0.82275 0.5257 0.0
H243 H 0.71253 0.58842 0.54779 0.0
H244 H 0.76701 0.65609 0.55187 0.0
H245 H 0.72357 0.78791 0.49494 0.0
H246 H 0.87412 0.98353 0.50587 0.0
H247 H 0.83986 0.90932 0.49249 0.0
C248 C 0.64627 0.31396 0.49664 0.0
C249 C 0.65773 0.35145 0.51219 0.0
C250 C 0.67948 0.27651 0.49489 0.0
C251 C 0.81121 0.2478 0.50069 0.0
H252 H 0.76497 0.11718 0.49933 0.0
C253 C 0.94233 0.08872 0.48804 0.0
C254 C 0.92669 0.0579 0.46917 0.0
C255 C 0.91038 0.12342 0.49622 0.0
C256 C 0.7784 0.15353 0.49952 0.0
H257 H 0.71288 0.37827 0.53864 0.0
H258 H 0.77081 0.31247 0.5357 0.0
H259 H 0.70717 0.17927 0.50925 0.0
H260 H 0.86624 0.03961 0.44345 0.0
H261 H 0.81045 0.10036 0.45749 0.0
H262 H 0.88237 0.22205 0.49057 0.0
C263 C 0.73623 0.3125 0.52462 0.0
C264 C 0.74531 0.1891 0.50521 0.0
C265 C 0.7029 0.35005 0.52642 0.0
C266 C 0.87895 0.06273 0.45823 0.0
C267 C 0.84697 0.09723 0.46645 0.0
C268 C 0.84437 0.21214 0.49505 0.0
C269 C 0.72501 0.2755 0.50865 0.0
C270 C 0.76112 0.23684 0.50533 0.0
C271 C 0.86225 0.12787 0.48559 0.0
C272 C 0.82811 0.16484 0.49389 0.0
H273 H 0.61189 0.31382 0.48538 0.0
H274 H 0.66994 0.24899 0.48208 0.0
H275 H 0.82449 0.28432 0.50033 0.0
H276 H 0.97913 0.08558 0.49663 0.0
H277 H 0.92311 0.14631 0.51112 0.0
C278 C 0.38349 0.34602 0.50737 0.0
C279 C 0.38577 0.38907 0.51932 0.0
C280 C 0.34199 0.31637 0.51132 0.0
C281 C 0.23781 0.28912 0.55981 0.0
H282 H 0.18471 0.22254 0.50105 0.0
C283 C 0.06366 0.17537 0.57877 0.0
C284 C 0.066 0.12899 0.57088 0.0
C285 C 0.09879 0.20999 0.56913 0.0
C286 C 0.19932 0.24074 0.51767 0.0
H287 H 0.3455 0.43535 0.54411 0.0
H288 H 0.2732 0.384 0.55069 0.0
H289 H 0.25444 0.27742 0.49088 0.0
H290 H 0.10524 0.08318 0.5455 0.0
H291 H 0.16709 0.14371 0.52873 0.0
H292 H 0.18345 0.25225 0.58671 0.0
C293 C 0.30381 0.3727 0.53869 0.0
C294 C 0.23925 0.27207 0.51188 0.0
C295 C 0.34525 0.40223 0.53482 0.0
C296 C 0.10247 0.11875 0.55182 0.0
C297 C 0.13784 0.15341 0.54222 0.0
C298 C 0.19801 0.25797 0.56557 0.0
C299 C 0.30189 0.32918 0.52726 0.0
C300 C 0.25895 0.29655 0.53293 0.0
C301 C 0.13718 0.19893 0.55147 0.0
C302 C 0.17829 0.23339 0.54461 0.0
H303 H 0.41403 0.33482 0.49529 0.0
H304 H 0.34185 0.28283 0.50248 0.0
H305 H 0.25272 0.3066 0.57666 0.0
H306 H 0.03535 0.18448 0.59304 0.0
H307 H 0.09662 0.24511 0.5761 0.0
C308 C 0.43713 0.68573 0.47289 0.0
C309 C 0.42812 0.64869 0.49507 0.0
C310 C 0.40412 0.7239 0.46714 0.0
C311 C 0.30996 0.77446 0.4472 0.0
H312 H 0.24319 0.83632 0.50406 0.0
C313 C 0.13148 0.87937 0.4239 0.0
C314 C 0.1281 0.92508 0.43268 0.0
C315 C 0.16973 0.84824 0.43315 0.0
C316 C 0.26187 0.8196 0.48798 0.0
H317 H 0.37838 0.62391 0.52936 0.0
H318 H 0.32057 0.69039 0.5191 0.0
H319 H 0.30974 0.77895 0.51758 0.0
H320 H 0.16127 0.97334 0.45886 0.0
H321 H 0.22823 0.9183 0.47537 0.0
H322 H 0.26209 0.81456 0.41764 0.0
C323 C 0.35337 0.68999 0.5063 0.0
C324 C 0.29962 0.78658 0.49571 0.0
C325 C 0.38635 0.65172 0.51204 0.0
C326 C 0.16283 0.93826 0.45182 0.0
C327 C 0.20112 0.90686 0.46123 0.0
C328 C 0.27216 0.80711 0.43953 0.0
C329 C 0.36143 0.72594 0.48345 0.0
C330 C 0.32373 0.76339 0.4754 0.0
C331 C 0.20536 0.86193 0.45154 0.0
C332 C 0.24731 0.82953 0.45985 0.0
H333 H 0.46914 0.68479 0.45953 0.0
H334 H 0.41162 0.75148 0.44962 0.0
H335 H 0.32744 0.75681 0.43111 0.0
H336 H 0.10459 0.86765 0.40972 0.0
H337 H 0.17148 0.81336 0.42585 0.0
C338 C 0.98332 0.99628 0.12791 0.0
C339 C 0.02873 0.9953 0.11389 0.0
C340 C 0.98149 0.9973 0.15677 0.0
C341 C 0.05401 0.02993 0.2156 0.0
H342 H 0.96129 0.94801 0.26122 0.0
C343 C 0.02361 0.9537 0.33866 0.0
C344 C 0.02832 0.99621 0.3509 0.0
C345 C 0.01899 0.95561 0.30972 0.0
C346 C 0.98733 0.97113 0.24875 0.0
H347 H 0.10789 0.99442 0.11938 0.0
H348 H 0.10462 0.99615 0.16994 0.0
H349 H 0.96477 0.94593 0.21078 0.0
H350 H 0.03031 0.07411 0.34264 0.0
H351 H 0.0222 0.07757 0.29172 0.0
H352 H 0.07713 0.05451 0.2537 0.0
C353 C 0.07046 0.99644 0.15843 0.0
C354 C 0.98912 0.97016 0.21986 0.0
C355 C 0.07232 0.99507 0.12951 0.0
C356 C 0.02651 0.04084 0.33371 0.0
C357 C 0.02236 0.04276 0.30462 0.0
C358 C 0.05196 0.03116 0.2445 0.0
C359 C 0.025 -0.00235 0.17234 0.0
C360 C 0.02275 -0.00075 0.20299 0.0
C361 C 0.01931 9e-05 0.29231 0.0
C362 C 0.0189 0.00144 0.26141 0.0
H363 H 0.94897 0.99651 0.11657 0.0
H364 H 0.94592 -0.00134 0.16683 0.0
H365 H 0.07992 0.05315 0.20311 0.0
H366 H 0.02463 0.91882 0.35149 0.0
H367 H 0.01706 0.92211 0.30088 0.0
C368 C 0.01834 0.96886 0.88461 0.0
C369 C 0.02178 0.01112 0.89726 0.0
C370 C 0.01446 0.97138 0.85552 0.0
C371 C 0.03607 0.05414 0.78978 0.0
H372 H 0.94984 0.96642 0.75734 0.0
C373 C 0.98963 0.08157 0.6727 0.0
C374 C 0.99388 0.04099 0.65858 0.0
C375 C 0.99063 0.07661 0.70189 0.0
C376 C 0.97432 0.99089 0.76613 0.0
H377 H 0.02339 0.08922 0.88918 0.0
H378 H 0.01566 0.09362 0.83867 0.0
H379 H 0.95719 0.96043 0.80822 0.0
H380 H 0.00067 0.96314 0.66419 0.0
H381 H 0.00171 0.95445 0.71536 0.0
H382 H 0.05271 0.08495 0.74774 0.0
C383 C 0.017 0.05844 0.85112 0.0
C384 C 0.97868 0.98741 0.79526 0.0
C385 C 0.02119 0.05592 0.88015 0.0
C386 C -0.00307 0.99507 0.67441 0.0
C387 C -0.00235 0.99009 0.7037 0.0
C388 C 0.03143 0.05782 0.76074 0.0
C389 C 0.01368 0.01622 0.83841 0.0
C390 C 0.00949 0.01914 0.80744 0.0
C391 C 0.99554 0.03094 0.71769 0.0
C392 C 0.00037 0.0264 0.7486 0.0
H393 H 0.01887 0.93373 0.89715 0.0
H394 H 0.01269 0.93813 0.84644 0.0
H395 H 0.06094 0.07849 0.79837 0.0
H396 H 0.98614 0.11736 0.66115 0.0
H397 H 0.98791 0.10865 0.71211 0.0
C398 C 0.50461 0.52231 0.62894 0.0
C399 C 0.53859 0.49368 0.61664 0.0
C400 C 0.50389 0.52261 0.65791 0.0
C401 C 0.57908 0.48693 0.7222 0.0
H402 H 0.45601 0.5072 0.7599 0.0
C403 C 0.55416 0.4541 0.84223 0.0
C404 C 0.53901 0.49482 0.85428 0.0
C405 C 0.55205 0.45388 0.81332 0.0
C406 C 0.49059 0.50171 0.74954 0.0
H407 H 0.59778 0.44209 0.62507 0.0
H408 H 0.59503 0.44055 0.67569 0.0
H409 H 0.45667 0.50529 0.70942 0.0
H410 H 0.5077 0.56652 0.84504 0.0
H411 H 0.50198 0.56495 0.79451 0.0
H412 H 0.61229 0.48131 0.7628 0.0
C413 C 0.57005 0.46432 0.66301 0.0
C414 C 0.49119 0.50092 0.72058 0.0
C415 C 0.57147 0.46486 0.63394 0.0
C416 C 0.51932 0.53437 0.83666 0.0
C417 C 0.51627 0.53368 0.80771 0.0
C418 C 0.57822 0.48668 0.75121 0.0
C419 C 0.53644 0.49346 0.67543 0.0
C420 C 0.53552 0.4937 0.70643 0.0
C421 C 0.53358 0.4938 0.7958 0.0
C422 C 0.53404 0.49423 0.76509 0.0
H423 H 0.47911 0.54531 0.6161 0.0
H424 H 0.4782 0.54639 0.66642 0.0
H425 H 0.61416 0.48241 0.71219 0.0
H426 H 0.56807 0.42232 0.85509 0.0
H427 H 0.56492 0.42244 0.80459 0.0
C428 C 0.52863 0.45858 0.38822 0.0
C429 C 0.53421 0.50114 0.4004 0.0
C430 C 0.52447 0.4604 0.35916 0.0
C431 C 0.54826 0.54094 0.29269 0.0
H432 H 0.45716 0.45636 0.26124 0.0
C433 C 0.49698 0.57095 0.17638 0.0
C434 C 0.4994 0.53059 0.16196 0.0
C435 C 0.4992 0.56549 0.20555 0.0
C436 C 0.48301 0.47992 0.26976 0.0
H437 H 0.53932 0.57902 0.39149 0.0
H438 H 0.53106 0.58224 0.34112 0.0
H439 H 0.46615 0.45039 0.31205 0.0
H440 H 0.50402 0.45259 0.16709 0.0
H441 H 0.50708 0.44304 0.21828 0.0
H442 H 0.56447 0.57099 0.25045 0.0
C443 C 0.53101 0.54731 0.35387 0.0
C444 C 0.48832 0.47644 0.29885 0.0
C445 C 0.53551 0.54548 0.38285 0.0
C446 C 0.50172 0.4844 0.17754 0.0
C447 C 0.50362 0.47891 0.20684 0.0
C448 C 0.54264 0.54466 0.2637 0.0
C449 C 0.52552 0.50483 0.34162 0.0
C450 C 0.5208 0.50717 0.31068 0.0
C451 C 0.50348 0.51951 0.22108 0.0
C452 C 0.50973 0.51446 0.25192 0.0
H453 H 0.52763 0.42379 0.40112 0.0
H454 H 0.52095 0.42692 0.35044 0.0
H455 H 0.57444 0.56444 0.30097 0.0
H456 H 0.49402 0.60697 0.16507 0.0
H457 H 0.49796 0.59737 0.21599 0.0
loop_
_geom_bond_atom_site_label_1
_geom_bond_atom_site_label_2
_geom_bond_distance
_geom_bond_site_symmetry_2
_ccdc_geom_bond_type
O0 Zn1 1.953 1_565 S
O0 C16 1.225 1_565 S
Zn1 O0 1.953 1_545 S
Zn1 O2 1.949 . S
Zn1 O8 1.919 1_545 S
Zn1 O13 1.924 . S
O2 Zn1 1.949 . S
O2 Zn3 1.923 1_544 S
O2 Zn4 1.950 1_455 S
O2 Zn5 1.945 1_554 S
Zn3 O2 1.923 1_566 S
Zn3 O6 1.933 . S
Zn3 O9 1.941 . S
Zn3 O10 1.965 1_455 S
Zn4 O2 1.950 1_655 S
Zn4 O11 1.938 1_545 S
Zn4 O12 1.906 . S
Zn4 O22 1.953 . S
Zn5 O2 1.945 1_556 S
Zn5 O7 1.932 . S
Zn5 O14 1.977 1_455 S
Zn5 O15 1.910 . S
O6 Zn3 1.933 . S
O6 C17 1.226 1_565 S
O7 Zn5 1.932 . S
O7 C17 1.307 . S
O8 Zn1 1.919 1_565 S
O8 C19 1.253 . S
O9 Zn3 1.941 . S
O9 C19 1.283 1_556 S
O10 Zn3 1.965 1_655 S
O10 C18 1.303 1_556 S
O11 Zn4 1.938 1_565 S
O11 C18 1.247 . S
O12 Zn4 1.906 . S
O12 C20 1.304 1_554 S
O13 Zn1 1.924 . S
O13 C21 1.311 . S
O14 Zn5 1.977 1_655 S
O14 C20 1.272 . S
O15 Zn5 1.910 . S
O15 C21 1.231 1_556 S
C16 O0 1.225 1_545 S
C16 O22 1.298 1_455 S
C17 O6 1.226 1_545 S
C17 O7 1.307 . S
C18 O10 1.303 1_554 S
C18 O11 1.247 . S
C19 O8 1.253 . S
C19 O9 1.283 1_554 S
C20 O12 1.304 1_556 S
C20 O14 1.272 . S
C21 O13 1.311 . S
C21 O15 1.231 1_554 S
O22 Zn4 1.953 . S
O22 C16 1.298 1_655 S
O23 Zn24 1.953 . S
O23 C39 1.225 . S
Zn24 O23 1.953 . S
Zn24 O25 1.949 . S
Zn24 O31 1.919 . S
Zn24 O36 1.924 . S
O25 Zn24 1.949 . S
O25 Zn26 1.923 . S
O25 Zn27 1.950 . S
O25 Zn28 1.945 . S
Zn26 O25 1.923 . S
Zn26 O29 1.933 . S
Zn26 O32 1.941 . S
Zn26 O33 1.965 . S
Zn27 O25 1.950 . S
Zn27 O34 1.938 . S
Zn27 O35 1.906 . S
Zn27 O45 1.953 . S
Zn28 O25 1.945 . S
Zn28 O30 1.932 . S
Zn28 O37 1.977 . S
Zn28 O38 1.910 . S
O29 Zn26 1.933 . S
O29 C40 1.226 . S
O30 Zn28 1.932 . S
O30 C40 1.307 . S
O31 Zn24 1.919 . S
O31 C42 1.253 . S
O32 Zn26 1.941 . S
O32 C42 1.283 . S
O33 Zn26 1.965 . S
O33 C41 1.303 . S
O34 Zn27 1.938 . S
O34 C41 1.247 . S
O35 Zn27 1.906 . S
O35 C43 1.304 . S
O36 Zn24 1.924 . S
O36 C44 1.311 . S
O37 Zn28 1.977 . S
O37 C43 1.272 . S
O38 Zn28 1.910 . S
O38 C44 1.231 . S
C39 O23 1.225 . S
C39 O45 1.298 . S
C40 O29 1.226 . S
C40 O30 1.307 . S
C41 O33 1.303 . S
C41 O34 1.247 . S
C42 O31 1.253 . S
C42 O32 1.283 . S
C43 O35 1.304 . S
C43 O37 1.272 . S
C44 O36 1.311 . S
C44 O38 1.231 . S
O45 Zn27 1.953 . S
O45 C39 1.298 . S
H46 C53 0.929 . S
H47 C56 0.930 . S
H48 C58 0.929 . S
H49 C50 0.969 . S
C50 H49 0.969 . S
C50 O51 1.550 . S
C50 H52 0.973 . S
O51 C50 1.550 . S
O51 C57 1.412 . S
H52 C50 0.973 . S
C53 H46 0.929 . S
C53 C54 1.400 . S
C53 C55 1.364 . S
C54 C53 1.400 . S
C54 C58 1.377 . S
C55 C53 1.364 . S
C55 C56 1.374 1_465 S
C56 H47 0.930 . S
C56 C55 1.374 1_645 S
C56 C57 1.383 . S
C57 O51 1.412 . S
C57 C56 1.383 . S
C57 C58 1.395 1_645 S
C58 H48 0.929 . S
C58 C54 1.377 . S
C58 C57 1.395 1_465 S
H59 C66 0.929 . S
H60 C69 0.930 1_655 S
H61 C71 0.929 . S
H62 C63 0.969 . S
C63 H62 0.969 . S
C63 O64 1.550 . S
C63 H65 0.973 . S
O64 C63 1.550 . S
O64 C70 1.412 1_665 S
H65 C63 0.973 . S
C66 H59 0.929 . S
C66 C67 1.400 . S
C66 C68 1.364 . S
C67 C66 1.400 . S
C67 C71 1.377 . S
C68 C66 1.364 . S
C68 C69 1.374 1_545 S
C69 H60 0.930 1_455 S
C69 C68 1.374 1_565 S
C69 C70 1.383 1_565 S
C70 O64 1.412 1_445 S
C70 C69 1.383 1_545 S
C70 C71 1.394 . S
C71 H61 0.929 . S
C71 C67 1.377 . S
C71 C70 1.394 . S
H72 C79 0.929 . S
H73 C82 0.930 . S
H74 C84 0.929 . S
H75 C76 0.969 . S
C76 H75 0.969 . S
C76 O77 1.550 . S
C76 H78 0.973 . S
O77 C76 1.550 . S
O77 C83 1.412 . S
H78 C76 0.973 . S
C79 H72 0.929 . S
C79 C80 1.400 . S
C79 C81 1.364 . S
C80 C79 1.400 . S
C80 C84 1.377 . S
C81 C79 1.364 . S
C81 C82 1.374 . S
C82 H73 0.930 . S
C82 C81 1.374 . S
C82 C83 1.383 . S
C83 O77 1.412 . S
C83 C82 1.383 . S
C83 C84 1.394 . S
C84 H74 0.929 . S
C84 C80 1.377 . S
C84 C83 1.394 . S
H85 C92 0.929 . S
H86 C95 0.930 . S
H87 C97 0.929 . S
H88 C89 0.969 . S
C89 H88 0.969 . S
C89 O90 1.550 . S
C89 H91 0.973 . S
O90 C89 1.550 . S
O90 C96 1.412 . S
H91 C89 0.973 . S
C92 H85 0.929 . S
C92 C93 1.400 . S
C92 C94 1.364 . S
C93 C92 1.400 . S
C93 C97 1.377 . S
C94 C92 1.364 . S
C94 C95 1.374 . S
C95 H86 0.930 . S
C95 C94 1.374 . S
C95 C96 1.383 . S
C96 O90 1.412 . S
C96 C95 1.383 . S
C96 C97 1.394 . S
C97 H87 0.929 . S
C97 C93 1.377 . S
C97 C96 1.394 . S
C98 C99 1.349 . S
C98 C100 1.327 . S
C98 H123 0.950 . S
C99 C98 1.349 . S
C99 C115 1.349 . S
C100 C98 1.327 . S
C100 C119 1.429 . S
C100 H124 0.950 . S
C101 C118 1.574 . S
C101 C120 1.368 . S
C101 H125 0.949 . S
H102 C106 0.949 . S
C103 C104 1.349 . S
C103 C105 1.327 . S
C103 H126 0.950 . S
C104 C103 1.349 . S
C104 C116 1.349 . S
C105 C103 1.327 . S
C105 C121 1.429 . S
C105 H127 0.950 . S
C106 H102 0.949 . S
C106 C114 1.574 . S
C106 C122 1.368 . S
H107 C115 0.950 . S
H108 C113 0.950 . S
H109 C114 0.949 . S
H110 C116 0.950 . S
H111 C117 0.950 . S
H112 C118 0.949 . S
C113 H108 0.950 . S
C113 C115 1.327 . S
C113 C119 1.429 . S
C114 C106 1.574 . S
C114 H109 0.949 . S
C114 C120 1.368 . S
C115 C99 1.349 . S
C115 H107 0.950 . S
C115 C113 1.327 . S
C116 C104 1.349 . S
C116 H110 0.950 . S
C116 C117 1.327 . S
C117 H111 0.950 . S
C117 C116 1.327 . S
C117 C121 1.429 . S
C118 C101 1.574 . S
C118 H112 0.949 . S
C118 C122 1.368 . S
C119 C100 1.429 . S
C119 C113 1.429 . S
C119 C120 1.523 . S
C120 C101 1.368 . S
C120 C114 1.368 . S
C120 C119 1.523 . S
C121 C105 1.429 . S
C121 C117 1.429 . S
C121 C122 1.523 . S
C122 C106 1.368 . S
C122 C118 1.368 . S
C122 C121 1.523 . S
H123 C98 0.950 . S
H124 C100 0.950 . S
H125 C101 0.949 . S
H126 C103 0.950 . S
H127 C105 0.950 . S
C128 C129 1.349 . S
C128 C130 1.327 . S
C128 H153 0.950 . S
C129 C128 1.349 . S
C129 C145 1.349 1_556 S
C130 C128 1.327 . S
C130 C149 1.429 . S
C130 H154 0.950 . S
C131 C148 1.574 . S
C131 C150 1.368 . S
C131 H155 0.949 1_556 S
H132 C136 0.949 . S
C133 C134 1.349 . S
C133 C135 1.327 . S
C133 H156 0.950 . S
C134 C133 1.349 . S
C134 C146 1.349 . S
C135 C133 1.327 . S
C135 C151 1.429 . S
C135 H157 0.950 . S
C136 H132 0.949 . S
C136 C144 1.574 . S
C136 C152 1.368 . S
H137 C145 0.950 . S
H138 C143 0.950 . S
H139 C144 0.949 . S
H140 C146 0.950 . S
H141 C147 0.950 . S
H142 C148 0.949 . S
C143 H138 0.950 . S
C143 C145 1.327 . S
C143 C149 1.429 1_554 S
C144 C136 1.574 . S
C144 H139 0.949 . S
C144 C150 1.368 . S
C145 C129 1.349 1_554 S
C145 H137 0.950 . S
C145 C143 1.327 . S
C146 C134 1.349 . S
C146 H140 0.950 . S
C146 C147 1.327 . S
C147 H141 0.950 . S
C147 C146 1.327 . S
C147 C151 1.429 . S
C148 C131 1.574 . S
C148 H142 0.949 . S
C148 C152 1.368 . S
C149 C130 1.429 . S
C149 C143 1.429 1_556 S
C149 C150 1.523 . S
C150 C131 1.368 . S
C150 C144 1.368 . S
C150 C149 1.523 . S
C151 C135 1.429 . S
C151 C147 1.429 . S
C151 C152 1.523 . S
C152 C136 1.368 . S
C152 C148 1.368 . S
C152 C151 1.523 . S
H153 C128 0.950 . S
H154 C130 0.950 . S
H155 C131 0.949 1_554 S
H156 C133 0.950 . S
H157 C135 0.950 . S
C158 C159 1.349 . S
C158 C160 1.327 . S
C158 H183 0.950 1_554 S
C159 C158 1.349 . S
C159 C175 1.349 . S
C160 C158 1.327 . S
C160 C179 1.429 . S
C160 H184 0.950 . S
C161 C178 1.574 . S
C161 C180 1.368 . S
C161 H185 0.949 . S
H162 C166 0.949 . S
C163 C164 1.349 . S
C163 C165 1.327 . S
C163 H186 0.950 . S
C164 C163 1.349 . S
C164 C176 1.349 . S
C165 C163 1.327 . S
C165 C181 1.429 . S
C165 H187 0.950 . S
C166 H162 0.949 . S
C166 C174 1.574 . S
C166 C182 1.368 . S
H167 C175 0.950 . S
H168 C173 0.950 . S
H169 C174 0.949 . S
H170 C176 0.950 . S
H171 C177 0.950 . S
H172 C178 0.949 . S
C173 H168 0.950 . S
C173 C175 1.327 . S
C173 C179 1.429 . S
C174 C166 1.574 . S
C174 H169 0.949 . S
C174 C180 1.368 . S
C175 C159 1.349 . S
C175 H167 0.950 . S
C175 C173 1.327 . S
C176 C164 1.349 . S
C176 H170 0.950 . S
C176 C177 1.327 . S
C177 H171 0.950 . S
C177 C176 1.327 . S
C177 C181 1.429 . S
C178 C161 1.574 . S
C178 H172 0.949 . S
C178 C182 1.368 . S
C179 C160 1.429 . S
C179 C173 1.429 . S
C179 C180 1.523 . S
C180 C161 1.368 . S
C180 C174 1.368 . S
C180 C179 1.523 . S
C181 C165 1.429 . S
C181 C177 1.429 . S
C181 C182 1.523 . S
C182 C166 1.368 . S
C182 C178 1.368 . S
C182 C181 1.523 . S
H183 C158 0.950 1_556 S
H184 C160 0.950 . S
H185 C161 0.949 . S
H186 C163 0.950 . S
H187 C165 0.950 . S
C188 C189 1.349 . S
C188 C190 1.327 . S
C188 H213 0.950 1_556 S
C189 C188 1.349 . S
C189 C205 1.349 . S
C190 C188 1.327 . S
C190 C209 1.429 . S
C190 H214 0.950 . S
C191 C208 1.574 . S
C191 C210 1.368 . S
C191 H215 0.949 . S
H192 C196 0.949 . S
C193 C194 1.349 . S
C193 C195 1.327 . S
C193 H216 0.950 . S
C194 C193 1.349 . S
C194 C206 1.349 . S
C195 C193 1.327 . S
C195 C211 1.429 . S
C195 H217 0.950 . S
C196 H192 0.949 . S
C196 C204 1.574 . S
C196 C212 1.368 . S
H197 C205 0.950 . S
H198 C203 0.950 . S
H199 C204 0.949 . S
H200 C206 0.950 . S
H201 C207 0.950 . S
H202 C208 0.949 . S
C203 H198 0.950 . S
C203 C205 1.327 . S
C203 C209 1.429 . S
C204 C196 1.574 . S
C204 H199 0.949 . S
C204 C210 1.368 . S
C205 C189 1.349 . S
C205 H197 0.950 . S
C205 C203 1.327 . S
C206 C194 1.349 . S
C206 H200 0.950 . S
C206 C207 1.327 . S
C207 H201 0.950 . S
C207 C206 1.327 . S
C207 C211 1.429 . S
C208 C191 1.574 . S
C208 H202 0.949 . S
C208 C212 1.368 . S
C209 C190 1.429 . S
C209 C203 1.429 . S
C209 C210 1.523 . S
C210 C191 1.368 . S
C210 C204 1.368 . S
C210 C209 1.523 . S
C211 C195 1.429 . S
C211 C207 1.429 . S
C211 C212 1.523 . S
C212 C196 1.368 . S
C212 C208 1.368 . S
C212 C211 1.523 . S
H213 C188 0.950 1_554 S
H214 C190 0.950 . S
H215 C191 0.949 . S
H216 C193 0.950 . S
H217 C195 0.950 . S
C218 C219 1.349 . S
C218 C220 1.327 . S
C218 H243 0.950 . S
C219 C218 1.349 . S
C219 C235 1.349 . S
C220 C218 1.327 . S
C220 C239 1.429 . S
C220 H244 0.950 . S
C221 C238 1.574 . S
C221 C240 1.368 . S
C221 H245 0.949 . S
H222 C226 0.949 . S
C223 C224 1.349 . S
C223 C225 1.327 . S
C223 H246 0.950 . S
C224 C223 1.349 . S
C224 C236 1.349 . S
C225 C223 1.327 . S
C225 C241 1.429 . S
C225 H247 0.950 . S
C226 H222 0.949 . S
C226 C234 1.574 . S
C226 C242 1.368 . S
H227 C235 0.950 . S
H228 C233 0.950 . S
H229 C234 0.949 . S
H230 C236 0.950 . S
H231 C237 0.950 . S
H232 C238 0.949 . S
C233 H228 0.950 . S
C233 C235 1.327 . S
C233 C239 1.429 . S
C234 C226 1.574 . S
C234 H229 0.949 . S
C234 C240 1.368 . S
C235 C219 1.349 . S
C235 H227 0.950 . S
C235 C233 1.327 . S
C236 C224 1.349 . S
C236 H230 0.950 . S
C236 C237 1.327 . S
C237 H231 0.950 . S
C237 C236 1.327 . S
C237 C241 1.429 . S
C238 C221 1.574 . S
C238 H232 0.949 . S
C238 C242 1.368 . S
C239 C220 1.429 . S
C239 C233 1.429 . S
C239 C240 1.523 . S
C240 C221 1.368 . S
C240 C234 1.368 . S
C240 C239 1.523 . S
C241 C225 1.429 . S
C241 C237 1.429 . S
C241 C242 1.523 . S
C242 C226 1.368 . S
C242 C238 1.368 . S
C242 C241 1.523 . S
H243 C218 0.950 . S
H244 C220 0.950 . S
H245 C221 0.949 . S
H246 C223 0.950 . S
H247 C225 0.950 . S
C248 C249 1.349 . S
C248 C250 1.327 . S
C248 H273 0.950 . S
C249 C248 1.349 . S
C249 C265 1.349 . S
C250 C248 1.327 . S
C250 C269 1.429 . S
C250 H274 0.950 . S
C251 C268 1.574 . S
C251 C270 1.368 . S
C251 H275 0.949 . S
H252 C256 0.949 . S
C253 C254 1.349 . S
C253 C255 1.327 . S
C253 H276 0.950 . S
C254 C253 1.349 . S
C254 C266 1.349 . S
C255 C253 1.327 . S
C255 C271 1.429 . S
C255 H277 0.950 . S
C256 H252 0.949 . S
C256 C264 1.574 . S
C256 C272 1.368 . S
H257 C265 0.950 . S
H258 C263 0.950 . S
H259 C264 0.949 . S
H260 C266 0.950 . S
H261 C267 0.950 . S
H262 C268 0.949 . S
C263 H258 0.950 . S
C263 C265 1.327 . S
C263 C269 1.429 . S
C264 C256 1.574 . S
C264 H259 0.949 . S
C264 C270 1.368 . S
C265 C249 1.349 . S
C265 H257 0.950 . S
C265 C263 1.327 . S
C266 C254 1.349 . S
C266 H260 0.950 . S
C266 C267 1.327 . S
C267 H261 0.950 . S
C267 C266 1.327 . S
C267 C271 1.429 . S
C268 C251 1.574 . S
C268 H262 0.949 . S
C268 C272 1.368 . S
C269 C250 1.429 . S
C269 C263 1.429 . S
C269 C270 1.523 . S
C270 C251 1.368 . S
C270 C264 1.368 . S
C270 C269 1.523 . S
C271 C255 1.429 . S
C271 C267 1.429 . S
C271 C272 1.523 . S
C272 C256 1.368 . S
C272 C268 1.368 . S
C272 C271 1.523 . S
H273 C248 0.950 . S
H274 C250 0.950 . S
H275 C251 0.949 . S
H276 C253 0.950 . S
H277 C255 0.950 . S
C278 C279 1.349 . S
C278 C280 1.327 . S
C278 H303 0.950 . S
C279 C278 1.349 . S
C279 C295 1.349 . S
C280 C278 1.327 . S
C280 C299 1.429 . S
C280 H304 0.950 . S
C281 C298 1.574 . S
C281 C300 1.368 . S
C281 H305 0.949 . S
H282 C286 0.949 . S
C283 C284 1.349 . S
C283 C285 1.327 . S
C283 H306 0.950 . S
C284 C283 1.349 . S
C284 C296 1.349 . S
C285 C283 1.327 . S
C285 C301 1.429 . S
C285 H307 0.950 . S
C286 H282 0.949 . S
C286 C294 1.574 . S
C286 C302 1.368 . S
H287 C295 0.950 . S
H288 C293 0.950 . S
H289 C294 0.949 . S
H290 C296 0.950 . S
H291 C297 0.950 . S
H292 C298 0.949 . S
C293 H288 0.950 . S
C293 C295 1.327 . S
C293 C299 1.429 . S
C294 C286 1.574 . S
C294 H289 0.949 . S
C294 C300 1.368 . S
C295 C279 1.349 . S
C295 H287 0.950 . S
C295 C293 1.327 . S
C296 C284 1.349 . S
C296 H290 0.950 . S
C296 C297 1.327 . S
C297 H291 0.950 . S
C297 C296 1.327 . S
C297 C301 1.429 . S
C298 C281 1.574 . S
C298 H292 0.949 . S
C298 C302 1.368 . S
C299 C280 1.429 . S
C299 C293 1.429 . S
C299 C300 1.523 . S
C300 C281 1.368 . S
C300 C294 1.368 . S
C300 C299 1.523 . S
C301 C285 1.429 . S
C301 C297 1.429 . S
C301 C302 1.523 . S
C302 C286 1.368 . S
C302 C298 1.368 . S
C302 C301 1.523 . S
H303 C278 0.950 . S
H304 C280 0.950 . S
H305 C281 0.949 . S
H306 C283 0.950 . S
H307 C285 0.950 . S
C308 C309 1.349 . S
C308 C310 1.327 . S
C308 H333 0.950 . S
C309 C308 1.349 . S
C309 C325 1.349 . S
C310 C308 1.327 . S
C310 C329 1.429 . S
C310 H334 0.950 . S
C311 C328 1.574 . S
C311 C330 1.368 . S
C311 H335 0.949 . S
H312 C316 0.949 . S
C313 C314 1.349 . S
C313 C315 1.327 . S
C313 H336 0.950 . S
C314 C313 1.349 . S
C314 C326 1.349 . S
C315 C313 1.327 . S
C315 C331 1.429 . S
C315 H337 0.950 . S
C316 H312 0.949 . S
C316 C324 1.574 . S
C316 C332 1.368 . S
H317 C325 0.950 . S
H318 C323 0.950 . S
H319 C324 0.949 . S
H320 C326 0.950 . S
H321 C327 0.950 . S
H322 C328 0.949 . S
C323 H318 0.950 . S
C323 C325 1.327 . S
C323 C329 1.429 . S
C324 C316 1.574 . S
C324 H319 0.949 . S
C324 C330 1.368 . S
C325 C309 1.349 . S
C325 H317 0.950 . S
C325 C323 1.327 . S
C326 C314 1.349 . S
C326 H320 0.950 . S
C326 C327 1.327 . S
C327 H321 0.950 . S
C327 C326 1.327 . S
C327 C331 1.429 . S
C328 C311 1.574 . S
C328 H322 0.949 . S
C328 C332 1.368 . S
C329 C310 1.429 . S
C329 C323 1.429 . S
C329 C330 1.523 . S
C330 C311 1.368 . S
C330 C324 1.368 . S
C330 C329 1.523 . S
C331 C315 1.429 . S
C331 C327 1.429 . S
C331 C332 1.523 . S
C332 C316 1.368 . S
C332 C328 1.368 . S
C332 C331 1.523 . S
H333 C308 0.950 . S
H334 C310 0.950 . S
H335 C311 0.949 . S
H336 C313 0.950 . S
H337 C315 0.950 . S
C338 C339 1.349 . S
C338 C340 1.327 . S
C338 H363 0.950 1_455 S
C339 C338 1.349 . S
C339 C355 1.349 1_545 S
C340 C338 1.327 . S
C340 C359 1.429 . S
C340 H364 0.950 1_455 S
C341 C358 1.574 . S
C341 C360 1.368 1_565 S
C341 H365 0.949 . S
H342 C346 0.952 . S
C343 C344 1.349 . S
C343 C345 1.327 . S
C343 H366 0.950 . S
C344 C343 1.349 . S
C344 C356 1.349 1_465 S
C345 C343 1.327 . S
C345 C361 1.438 . S
C345 H367 0.950 . S
C346 H342 0.952 . S
C346 C354 1.574 1_655 S
C346 C362 1.367 1_645 S
H347 C355 0.950 . S
H348 C353 0.950 . S
H349 C354 0.949 1_655 S
H350 C356 0.950 . S
H351 C357 0.950 . S
H352 C358 0.949 . S
C353 H348 0.950 . S
C353 C355 1.327 . S
C353 C359 1.429 1_565 S
C354 C346 1.574 1_455 S
C354 H349 0.949 1_455 S
C354 C360 1.368 . S
C355 C339 1.349 1_565 S
C355 H347 0.950 . S
C355 C353 1.327 . S
C356 C344 1.349 1_645 S
C356 H350 0.950 . S
C356 C357 1.327 . S
C357 H351 0.950 . S
C357 C356 1.327 . S
C357 C361 1.417 1_645 S
C358 C341 1.574 . S
C358 H352 0.949 . S
C358 C362 1.367 . S
C359 C340 1.429 . S
C359 C353 1.429 1_545 S
C359 C360 1.523 . S
C360 C341 1.368 1_545 S
C360 C354 1.368 . S
C360 C359 1.523 . S
C361 C345 1.438 . S
C361 C357 1.417 1_465 S
C361 C362 1.525 . S
C362 C346 1.367 1_465 S
C362 C358 1.367 . S
C362 C361 1.525 . S
H363 C338 0.950 1_655 S
H364 C340 0.950 1_655 S
H365 C341 0.949 . S
H366 C343 0.950 . S
H367 C345 0.950 . S
C368 C369 1.349 1_565 S
C368 C370 1.327 . S
C368 H393 0.950 1_455 S
C369 C368 1.349 1_545 S
C369 C385 1.349 . S
C370 C368 1.327 . S
C370 C389 1.429 1_565 S
C370 H394 0.950 1_455 S
C371 C388 1.574 . S
C371 C390 1.368 . S
C371 H395 0.949 . S
H372 C376 0.949 1_655 S
C373 C374 1.349 . S
C373 C375 1.327 . S
C373 H396 0.950 . S
C374 C373 1.349 . S
C374 C386 1.349 1_545 S
C375 C373 1.327 . S
C375 C391 1.429 . S
C375 H397 0.950 . S
C376 H372 0.949 1_455 S
C376 C384 1.574 . S
C376 C392 1.368 1_565 S
H377 C385 0.950 . S
H378 C383 0.950 . S
H379 C384 0.949 1_655 S
H380 C386 0.950 1_655 S
H381 C387 0.950 1_655 S
H382 C388 0.949 . S
C383 H378 0.950 . S
C383 C385 1.327 . S
C383 C389 1.429 . S
C384 C376 1.574 . S
C384 H379 0.949 1_455 S
C384 C390 1.368 1_565 S
C385 C369 1.349 . S
C385 H377 0.950 . S
C385 C383 1.327 . S
C386 C374 1.349 1_565 S
C386 H380 0.950 1_455 S
C386 C387 1.327 . S
C387 H381 0.950 1_455 S
C387 C386 1.327 . S
C387 C391 1.429 1_565 S
C388 C371 1.574 . S
C388 H382 0.949 . S
C388 C392 1.368 . S
C389 C370 1.429 1_545 S
C389 C383 1.429 . S
C389 C390 1.523 . S
C390 C371 1.368 . S
C390 C384 1.368 1_545 S
C390 C389 1.523 . S
C391 C375 1.429 . S
C391 C387 1.429 1_545 S
C391 C392 1.523 . S
C392 C376 1.368 1_545 S
C392 C388 1.368 . S
C392 C391 1.523 . S
H393 C368 0.950 1_655 S
H394 C370 0.950 1_655 S
H395 C371 0.949 . S
H396 C373 0.950 . S
H397 C375 0.950 . S
C398 C399 1.349 . S
C398 C400 1.327 . S
C398 H423 0.950 . S
C399 C398 1.349 . S
C399 C415 1.349 . S
C400 C398 1.327 . S
C400 C419 1.429 . S
C400 H424 0.950 . S
C401 C418 1.574 . S
C401 C420 1.368 . S
C401 H425 0.949 . S
H402 C406 0.949 . S
C403 C404 1.349 . S
C403 C405 1.327 . S
C403 H426 0.950 . S
C404 C403 1.349 . S
C404 C416 1.349 . S
C405 C403 1.327 . S
C405 C421 1.429 . S
C405 H427 0.950 . S
C406 H402 0.949 . S
C406 C414 1.574 . S
C406 C422 1.368 . S
H407 C415 0.950 . S
H408 C413 0.950 . S
H409 C414 0.949 . S
H410 C416 0.950 . S
H411 C417 0.950 . S
H412 C418 0.949 . S
C413 H408 0.950 . S
C413 C415 1.327 . S
C413 C419 1.429 . S
C414 C406 1.574 . S
C414 H409 0.949 . S
C414 C420 1.368 . S
C415 C399 1.349 . S
C415 H407 0.950 . S
C415 C413 1.327 . S
C416 C404 1.349 . S
C416 H410 0.950 . S
C416 C417 1.327 . S
C417 H411 0.950 . S
C417 C416 1.327 . S
C417 C421 1.429 . S
C418 C401 1.574 . S
C418 H412 0.949 . S
C418 C422 1.368 . S
C419 C400 1.429 . S
C419 C413 1.429 . S
C419 C420 1.523 . S
C420 C401 1.368 . S
C420 C414 1.368 . S
C420 C419 1.523 . S
C421 C405 1.429 . S
C421 C417 1.429 . S
C421 C422 1.523 . S
C422 C406 1.368 . S
C422 C418 1.368 . S
C422 C421 1.523 . S
H423 C398 0.950 . S
H424 C400 0.950 . S
H425 C401 0.949 . S
H426 C403 0.950 . S
H427 C405 0.950 . S
C428 C429 1.349 . S
C428 C430 1.327 . S
C428 H453 0.950 . S
C429 C428 1.349 . S
C429 C445 1.349 . S
C430 C428 1.327 . S
C430 C449 1.429 . S
C430 H454 0.950 . S
C431 C448 1.574 . S
C431 C450 1.368 . S
C431 H455 0.949 . S
H432 C436 0.949 . S
C433 C434 1.349 . S
C433 C435 1.327 . S
C433 H456 0.950 . S
C434 C433 1.349 . S
C434 C446 1.349 . S
C435 C433 1.327 . S
C435 C451 1.429 . S
C435 H457 0.950 . S
C436 H432 0.949 . S
C436 C444 1.574 . S
C436 C452 1.368 . S
H437 C445 0.950 . S
H438 C443 0.950 . S
H439 C444 0.949 . S
H440 C446 0.950 . S
H441 C447 0.950 . S
H442 C448 0.949 . S
C443 H438 0.950 . S
C443 C445 1.327 . S
C443 C449 1.429 . S
C444 C436 1.574 . S
C444 H439 0.949 . S
C444 C450 1.368 . S
C445 C429 1.349 . S
C445 H437 0.950 . S
C445 C443 1.327 . S
C446 C434 1.349 . S
C446 H440 0.950 . S
C446 C447 1.327 . S
C447 H441 0.950 . S
C447 C446 1.327 . S
C447 C451 1.429 . S
C448 C431 1.574 . S
C448 H442 0.949 . S
C448 C452 1.368 . S
C449 C430 1.429 . S
C449 C443 1.429 . S
C449 C450 1.523 . S
C450 C431 1.368 . S
C450 C444 1.368 . S
C450 C449 1.523 . S
C451 C435 1.429 . S
C451 C447 1.429 . S
C451 C452 1.523 . S
C452 C436 1.368 . S
C452 C448 1.368 . S
C452 C451 1.523 . S
H453 C428 0.950 . S
H454 C430 0.950 . S
H455 C431 0.949 . S
H456 C433 0.950 . S
H457 C435 0.950 . S
C104 C89 1.299 . S
C99 C21 1.383 . S
C129 C19 1.377 1_556 S
C134 C76 1.302 . S
C159 C18 1.482 . S
C164 C93 1.501 . S
C189 C20 1.514 . S
C194 C80 1.514 . S
C219 C44 1.383 . S
C224 C63 1.299 . S
C249 C42 1.377 . S
C254 C50 1.302 . S
C284 C67 1.501 . S
C279 C41 1.482 . S
C314 C54 1.514 . S
C309 C43 1.514 . S
C339 C16 1.529 . S
C344 C55 1.525 . S
C369 C17 1.491 . S
C374 C68 1.489 . S
C404 C81 1.525 . S
C399 C39 1.529 . S
C429 C40 1.491 . S
C434 C94 1.489 . S
