# Generated by pormake.
# Topology the, (3,8)-cn, num edge types: 1
# Building blocks:
#     Node 0, Type 0, BuildingBlock: CUQRIR_clean_linker_1, # of connection points: 3
#     Node 1, Type 0, BuildingBlock: CUQRIR_clean_linker_1, # of connection points: 3
#     Node 2, Type 0, BuildingBlock: CUQRIR_clean_linker_1, # of connection points: 3
#     Node 3, Type 0, BuildingBlock: CUQRIR_clean_linker_1, # of connection points: 3
#     Node 4, Type 0, BuildingBlock: CUQRIR_clean_linker_1, # of connection points: 3
#     Node 5, Type 0, BuildingBlock: CUQRIR_clean_linker_1, # of connection points: 3
#     Node 6, Type 0, BuildingBlock: CUQRIR_clean_linker_1, # of connection points: 3
#     Node 7, Type 0, BuildingBlock: CUQRIR_clean_linker_1, # of connection points: 3
#     Node 8, Type 1, BuildingBlock: GIZVER_clean_sbu_0, # of connection points: 8
#     Node 9, Type 1, BuildingBlock: GIZVER_clean_sbu_0, # of connection points: 8
#     Node 10, Type 1, BuildingBlock: GIZVER_clean_sbu_0, # of connection points: 8
#     Edge 11, Type (0, 1), BuildingBlock: ZUJKAS_clean_linker_0, # of connection points: 2
#     Edge 12, Type (0, 1), BuildingBlock: ZUJKAS_clean_linker_0, # of connection points: 2
#     Edge 13, Type (0, 1), BuildingBlock: ZUJKAS_clean_linker_0, # of connection points: 2
#     Edge 14, Type (0, 1), BuildingBlock: ZUJKAS_clean_linker_0, # of connection points: 2
#     Edge 15, Type (0, 1), BuildingBlock: ZUJKAS_clean_linker_0, # of connection points: 2
#     Edge 16, Type (0, 1), BuildingBlock: ZUJKAS_clean_linker_0, # of connection points: 2
#     Edge 17, Type (0, 1), BuildingBlock: ZUJKAS_clean_linker_0, # of connection points: 2
#     Edge 18, Type (0, 1), BuildingBlock: ZUJKAS_clean_linker_0, # of connection points: 2
#     Edge 19, Type (0, 1), BuildingBlock: ZUJKAS_clean_linker_0, # of connection points: 2
#     Edge 20, Type (0, 1), BuildingBlock: ZUJKAS_clean_linker_0, # of connection points: 2
#     Edge 21, Type (0, 1), BuildingBlock: ZUJKAS_clean_linker_0, # of connection points: 2
#     Edge 22, Type (0, 1), BuildingBlock: ZUJKAS_clean_linker_0, # of connection points: 2
#     Edge 23, Type (0, 1), BuildingBlock: ZUJKAS_clean_linker_0, # of connection points: 2
#     Edge 24, Type (0, 1), BuildingBlock: ZUJKAS_clean_linker_0, # of connection points: 2
#     Edge 25, Type (0, 1), BuildingBlock: ZUJKAS_clean_linker_0, # of connection points: 2
#     Edge 26, Type (0, 1), BuildingBlock: ZUJKAS_clean_linker_0, # of connection points: 2
#     Edge 27, Type (0, 1), BuildingBlock: ZUJKAS_clean_linker_0, # of connection points: 2
#     Edge 28, Type (0, 1), BuildingBlock: ZUJKAS_clean_linker_0, # of connection points: 2
#     Edge 29, Type (0, 1), BuildingBlock: ZUJKAS_clean_linker_0, # of connection points: 2
#     Edge 30, Type (0, 1), BuildingBlock: ZUJKAS_clean_linker_0, # of connection points: 2
#     Edge 31, Type (0, 1), BuildingBlock: ZUJKAS_clean_linker_0, # of connection points: 2
#     Edge 32, Type (0, 1), BuildingBlock: ZUJKAS_clean_linker_0, # of connection points: 2
#     Edge 33, Type (0, 1), BuildingBlock: ZUJKAS_clean_linker_0, # of connection points: 2
#     Edge 34, Type (0, 1), BuildingBlock: ZUJKAS_clean_linker_0, # of connection points: 2
# Relax obj value: 0.076
# Max RMSD: 0.228
# Mean RMSD: 0.156
data_MOF--net-the--node1-GIZVER_clean_sbu_0--node2-CUQRIR_clean_linker_1--edge1-ZUJKAS_clean_linker_0
_symmetry_space_group_name_H-M    P1
_symmetry_Int_Tables_number       1
_symmetry_cell_setting            triclinic
loop_
_symmetry_equiv_pos_as_xyz
'x, y, z'
_cell_length_a     49.724136
_cell_length_b     47.093298
_cell_length_c     42.467856
_cell_angle_alpha  85.001764
_cell_angle_beta   96.161833
_cell_angle_gamma 104.77832
loop_
_atom_site_label
_atom_site_type_symbol
_atom_site_fract_x
_atom_site_fract_y
_atom_site_fract_z
_atom_type_partial_charge
C0 C 0.37016 0.3244 0.42256 0.0
N1 N 0.38813 0.32573 0.40032 0.0
N2 N 0.36101 0.34926 0.42049 0.0
C3 C 0.3629 0.29979 0.44767 0.0
C4 C 0.37408 0.36582 0.39629 0.0
N5 N 0.39088 0.3517 0.38434 0.0
C6 C 0.36844 0.3945 0.38244 0.0
H7 H 0.34521 0.28235 0.43799 0.0
H8 H 0.35655 0.30773 0.46889 0.0
H9 H 0.3809 0.29005 0.45484 0.0
H10 H 0.38356 0.41285 0.39435 0.0
H11 H 0.34702 0.39566 0.3862 0.0
H12 H 0.37101 0.3975 0.35664 0.0
C13 C 0.73146 0.30454 0.26686 0.0
N14 N 0.7489 0.29881 0.29206 0.0
N15 N 0.73952 0.33299 0.25589 0.0
C16 C 0.70478 0.28332 0.25522 0.0
C17 C 0.76221 0.34455 0.27554 0.0
N18 N 0.76782 0.32386 0.29777 0.0
C19 C 0.77949 0.37573 0.27205 0.0
H20 H 0.70974 0.26854 0.23895 0.0
H21 H 0.68976 0.29494 0.24222 0.0
H22 H 0.69468 0.26956 0.27533 0.0
H23 H 0.77224 0.38946 0.28764 0.0
H24 H 0.77721 0.3849 0.24721 0.0
H25 H 0.80186 0.37693 0.27919 0.0
C26 C 0.77102 0.72172 0.3713 0.0
N27 N 0.77344 0.70132 0.35177 0.0
N28 N 0.75335 0.73762 0.3574 0.0
C29 C 0.7859 0.72634 0.40394 0.0
C30 C 0.74524 0.72647 0.32863 0.0
N31 N 0.75777 0.70472 0.32495 0.0
C32 C 0.72428 0.73596 0.30453 0.0
H33 H 0.77301 0.71173 0.42153 0.0
H34 H 0.78901 0.74936 0.4103 0.0
H35 H 0.80651 0.72103 0.40545 0.0
H36 H 0.71416 0.75143 0.31403 0.0
H37 H 0.7081 0.71636 0.2965 0.0
H38 H 0.73497 0.74698 0.28349 0.0
C39 C 0.34584 0.6744 0.31293 0.0
N40 N 0.3713 0.69325 0.31022 0.0
N41 N 0.3334 0.68106 0.33722 0.0
C42 C 0.33424 0.64782 0.2938 0.0
C43 C 0.35234 0.70445 0.34943 0.0
N44 N 0.37546 0.71172 0.33327 0.0
C45 C 0.34775 0.72107 0.37625 0.0
H46 H 0.32294 0.65444 0.27153 0.0
H47 H 0.31945 0.6304 0.30703 0.0
H48 H 0.35123 0.63862 0.28743 0.0
H49 H 0.35707 0.71242 0.39879 0.0
H50 H 0.32515 0.71838 0.37821 0.0
H51 H 0.35806 0.74484 0.37286 0.0
C52 C 0.3562 0.69672 0.74873 0.0
N53 N 0.38102 0.71689 0.75278 0.0
N54 N 0.34122 0.70374 0.72193 0.0
C55 C 0.34773 0.66876 0.76924 0.0
C56 C 0.35788 0.72878 0.70975 0.0
N57 N 0.38205 0.73669 0.72836 0.0
C58 C 0.35072 0.74539 0.67945 0.0
H59 H 0.33286 0.65129 0.75581 0.0
H60 H 0.33743 0.67331 0.78949 0.0
H61 H 0.36624 0.66067 0.77889 0.0
H62 H 0.35925 0.76942 0.68129 0.0
H63 H 0.32779 0.74065 0.67355 0.0
H64 H 0.36032 0.7386 0.65986 0.0
C65 C 0.36731 0.29209 0.68174 0.0
N66 N 0.36475 0.31412 0.6989 0.0
N67 N 0.39248 0.28589 0.68923 0.0
C68 C 0.34649 0.27872 0.65531 0.0
C69 C 0.40529 0.30522 0.7113 0.0
N70 N 0.38857 0.32253 0.71702 0.0
C71 C 0.43362 0.30629 0.72834 0.0
H72 H 0.3307 0.26001 0.66542 0.0
H73 H 0.35677 0.2704 0.63742 0.0
H74 H 0.33556 0.29503 0.64329 0.0
H75 H 0.44953 0.32308 0.71583 0.0
H76 H 0.43882 0.2847 0.72868 0.0
H77 H 0.43453 0.31263 0.75306 0.0
C78 C 0.73752 0.31332 0.73439 0.0
N79 N 0.75473 0.3073 0.71462 0.0
N80 N 0.74769 0.34077 0.74471 0.0
C81 C 0.71036 0.29272 0.74265 0.0
C82 C 0.77152 0.35135 0.73025 0.0
N83 N 0.77563 0.33114 0.71166 0.0
C84 C 0.79041 0.38169 0.7336 0.0
H85 H 0.69746 0.28507 0.72057 0.0
H86 H 0.69846 0.30311 0.75682 0.0
H87 H 0.71468 0.27307 0.75657 0.0
H88 H 0.78801 0.39106 0.75586 0.0
H89 H 0.78501 0.39641 0.71339 0.0
H90 H 0.81255 0.38125 0.73301 0.0
C91 C 0.73089 0.6751 0.63783 0.0
N92 N 0.74602 0.65479 0.64431 0.0
N93 N 0.74101 0.69438 0.61383 0.0
C94 C 0.70767 0.67748 0.6567 0.0
C95 C 0.76301 0.68533 0.60611 0.0
N96 N 0.76628 0.66148 0.6249 0.0
C97 C 0.78199 0.7006 0.58119 0.0
H98 H 0.69133 0.65648 0.65675 0.0
H99 H 0.6979 0.69544 0.6469 0.0
H100 H 0.71601 0.68137 0.68168 0.0
H101 H 0.77097 0.71263 0.56266 0.0
H102 H 0.79023 0.68454 0.56992 0.0
H103 H 0.79989 0.71674 0.59258 0.0
Co104 Co 0.11441 0.46545 0.54797 0.0
Co105 Co 0.08663 0.44874 0.49332 0.0
Co106 Co 0.05541 0.48833 0.52431 0.0
O107 O 0.07542 0.45602 0.53193 0.0
H108 H 0.06446 0.43827 0.54199 0.0
O109 O 0.03592 0.52087 0.51725 0.0
Co110 Co 0.99761 0.5139 0.50058 0.0
Co111 Co 0.02445 0.52752 0.55574 0.0
H112 H 0.0475 0.53876 0.50816 0.0
O113 O 0.0991 0.41528 0.48771 0.0
O114 O 0.12459 0.45786 0.50648 0.0
O115 O 0.08271 0.47634 0.45777 0.0
O116 O 0.0795 0.51003 0.48965 0.0
O117 O 0.02804 0.46428 0.4924 0.0
O118 O 0.96289 0.51074 0.4833 0.0
O119 O 0.99829 0.55157 0.48668 0.0
O120 O 0.99199 0.47334 0.51205 0.0
O121 O 0.03125 0.46638 0.55853 0.0
O122 O 0.02686 0.49912 0.59085 0.0
O123 O 0.98665 0.52078 0.54231 0.0
O124 O 0.01457 0.56184 0.56245 0.0
C125 C 0.14192 0.44307 0.57161 0.0
C126 C 0.1084 0.51975 0.55263 0.0
C127 C 0.08641 0.50307 0.46371 0.0
C128 C 0.12318 0.43194 0.49719 0.0
C129 C 0.97247 0.53885 0.47723 0.0
C130 C 1.00181 0.45793 0.49533 0.0
C131 C 0.02379 0.47263 0.58443 0.0
C132 C 0.98977 0.54647 0.55335 0.0
O133 O 0.14954 0.47108 0.56391 0.0
O134 O 0.11617 0.42861 0.5639 0.0
O135 O 0.08239 0.51244 0.55634 0.0
O136 O 0.11805 0.5052 0.53483 0.0
Co137 Co 0.59752 0.95826 0.49996 0.0
Co138 Co 0.61422 0.98469 0.55342 0.0
Co139 Co 0.57088 0.01543 0.51222 0.0
O140 O 0.60343 0.99768 0.5124 0.0
H141 H 0.61918 0.01104 0.50319 0.0
O142 O 0.53862 0.03376 0.51128 0.0
Co143 Co 0.54403 0.07343 0.52363 0.0
Co144 Co 0.52956 0.04779 0.46968 0.0
H145 H 0.5225 0.02033 0.51971 0.0
O146 O 0.64851 0.97454 0.56466 0.0
O147 O 0.60863 0.9458 0.5438 0.0
O148 O 0.58883 0.98398 0.58464 0.0
O149 O 0.55365 0.98835 0.54884 0.0
O150 O 0.59396 0.04414 0.5429 0.0
O151 O 0.54557 0.10896 0.53616 0.0
O152 O 0.50847 0.0699 0.53301 0.0
O153 O 0.58228 0.08232 0.51674 0.0
O154 O 0.58866 0.04256 0.47654 0.0
O155 O 0.55597 0.04936 0.4388 0.0
O156 O 0.53522 0.08675 0.47922 0.0
O157 O 0.49577 0.05826 0.45682 0.0
C158 C 0.621 0.9345 0.48194 0.0
C159 C 0.54425 0.95868 0.48766 0.0
C160 C 0.56288 0.9805 0.57679 0.0
C161 C 0.6343 0.94899 0.55564 0.0
C162 C 0.51946 0.09705 0.54042 0.0
C163 C 0.59866 0.07189 0.53679 0.0
C164 C 0.58144 0.05178 0.44852 0.0
C165 C 0.51035 0.08398 0.46495 0.0
O166 O 0.59513 0.9227 0.48735 0.0
O167 O 0.63228 0.96183 0.48844 0.0
O168 O 0.54786 0.98636 0.4813 0.0
O169 O 0.56026 0.94978 0.50938 0.0
Co170 Co 0.53477 0.547 0.07916 0.0
Co171 Co 0.51472 0.49677 0.05446 0.0
Co172 Co 0.56286 0.53596 0.0127 0.0
O173 O 0.52965 0.53428 0.03661 0.0
H174 H 0.51535 0.54152 0.0236 0.0
O175 O 0.59623 0.53732 0.98957 0.0
Co176 Co 0.59184 0.52127 0.94903 0.0
Co177 Co 0.61169 0.57354 0.96967 0.0
H178 H 0.61067 0.53112 1.00344 0.0
O179 O 0.47862 0.48435 0.06717 0.0
O180 O 0.51759 0.50673 0.09623 0.0
O181 O 0.53676 0.46859 0.05468 0.0
O182 O 0.57393 0.50162 0.03803 0.0
O183 O 0.53723 0.50849 0.98203 0.0
O184 O 0.59049 0.50501 0.91249 0.0
O185 O 0.62391 0.50938 0.95325 0.0
O186 O 0.55733 0.53096 0.93993 0.0
O187 O 0.55204 0.57046 0.98675 0.0
O188 O 0.58876 0.60101 0.96552 0.0
O189 O 0.61074 0.55991 0.92977 0.0
O190 O 0.64875 0.58386 0.95892 0.0
C191 C 0.51289 0.56544 0.10693 0.0
C192 C 0.5903 0.55619 0.0732 0.0
C193 C 0.56256 0.4763 0.05056 0.0
C194 C 0.49146 0.49237 0.09444 0.0
C195 C 0.61404 0.50015 0.92519 0.0
C196 C 0.5367 0.51324 0.9519 0.0
C197 C 0.56329 0.59448 0.9713 0.0
C198 C 0.63742 0.5719 0.93273 0.0
O199 O 0.53686 0.56032 0.11753 0.0
O200 O 0.50209 0.55779 0.07853 0.0
O201 O 0.58857 0.56311 0.04342 0.0
O202 O 0.5699 0.53829 0.08538 0.0
H203 H 0.3651 0.39697 0.45297 0.0
H204 H 0.32702 0.40999 0.47631 0.0
H205 H 0.27089 0.32833 0.44807 0.0
H206 H 0.30897 0.31548 0.4249 0.0
H207 H 0.27981 0.41739 0.44081 0.0
H208 H 0.25118 0.33225 0.53811 0.0
H209 H 0.28399 0.33928 0.52064 0.0
H210 H 0.25276 0.31689 0.50132 0.0
C211 C 0.34469 0.38172 0.45238 0.0
C212 C 0.33975 0.35529 0.43734 0.0
C213 C 0.32306 0.38904 0.46571 0.0
C214 C 0.29624 0.36993 0.46431 0.0
C215 C 0.29157 0.34304 0.45015 0.0
H216 H 0.12813 0.37911 0.47947 0.0
H217 H 0.17128 0.36439 0.475 0.0
C218 C 0.31321 0.33575 0.43685 0.0
C219 C 0.27243 0.37956 0.47401 0.0
H220 H 0.2169 0.359 0.51896 0.0
C221 C 0.26632 0.40494 0.45832 0.0
C222 C 0.25479 0.3631 0.49664 0.0
C223 C 0.26114 0.33652 0.51538 0.0
C224 C 0.24248 0.41378 0.46381 0.0
C225 C 0.2245 0.39699 0.48598 0.0
C226 C 0.23078 0.37182 0.50202 0.0
C227 C 0.19857 0.40478 0.49181 0.0
C228 C 0.23612 0.4403 0.4448 0.0
C229 C 0.1997 0.43203 0.5035 0.0
C230 C 0.17517 0.44071 0.50554 0.0
C231 C 0.14902 0.422 0.49659 0.0
C232 C 0.14793 0.39411 0.48634 0.0
C233 C 0.17253 0.38559 0.48394 0.0
H234 H 0.24821 0.44635 0.42363 0.0
H235 H 0.21354 0.43623 0.43679 0.0
H236 H 0.24176 0.45939 0.45989 0.0
H237 H 0.21961 0.44688 0.51031 0.0
H238 H 0.1768 0.4623 0.51365 0.0
H239 H 0.74496 0.24416 0.27505 0.0
H240 H 0.7225 0.1984 0.30407 0.0
H241 H 0.71885 0.24772 0.38381 0.0
H242 H 0.74042 0.29358 0.35412 0.0
H243 H 0.72932 0.16711 0.3614 0.0
H244 H 0.63679 0.21366 0.35545 0.0
H245 H 0.66692 0.23085 0.3343 0.0
H246 H 0.66756 0.2354 0.37601 0.0
C247 C 0.74006 0.24497 0.29914 0.0
C248 C 0.74404 0.2722 0.31234 0.0
C249 C 0.72722 0.21891 0.31568 0.0
C250 C 0.71829 0.21974 0.34576 0.0
C251 C 0.72499 0.24667 0.36032 0.0
H252 H 0.63714 0.07131 0.46683 0.0
H253 H 0.67133 0.10979 0.44036 0.0
C254 C 0.73765 0.27278 0.34361 0.0
C255 C 0.69934 0.19318 0.36004 0.0
H256 H 0.63324 0.16729 0.38284 0.0
C257 C 0.70832 0.16712 0.36619 0.0
C258 C 0.67167 0.19299 0.36542 0.0
C259 C 0.65999 0.2196 0.35719 0.0
C260 C 0.69053 0.14101 0.37808 0.0
C261 C 0.6632 0.14115 0.38451 0.0
C262 C 0.65419 0.16716 0.37801 0.0
C263 C 0.64357 0.11495 0.39858 0.0
C264 C 0.70099 0.11343 0.38293 0.0
C265 C 0.61643 0.10482 0.38397 0.0
C266 C 0.59657 0.08297 0.39928 0.0
C267 C 0.60344 0.0708 0.42959 0.0
C268 C 0.63107 0.07996 0.44342 0.0
C269 C 0.65081 0.10196 0.42821 0.0
H270 H 0.71816 0.1145 0.3678 0.0
H271 H 0.70932 0.11094 0.40805 0.0
H272 H 0.68396 0.09361 0.37757 0.0
H273 H 0.61033 0.11455 0.36112 0.0
H274 H 0.57555 0.07651 0.38792 0.0
H275 H 0.7722 0.66326 0.40302 0.0
H276 H 0.80649 0.63496 0.42081 0.0
H277 H 0.8451 0.66098 0.33298 0.0
H278 H 0.81193 0.6914 0.31645 0.0
H279 H 0.82095 0.59127 0.40388 0.0
H280 H 0.91183 0.68712 0.39298 0.0
H281 H 0.87641 0.69074 0.38752 0.0
H282 H 0.89168 0.6792 0.35578 0.0
C283 C 0.78812 0.66298 0.38763 0.0
C284 C 0.78999 0.68009 0.35882 0.0
C285 C 0.80763 0.64666 0.39768 0.0
C286 C 0.82913 0.64655 0.37879 0.0
C287 C 0.82948 0.66161 0.34862 0.0
H288 H 0.93164 0.52117 0.43038 0.0
H289 H 0.89795 0.54764 0.40502 0.0
C290 C 0.81024 0.67853 0.33887 0.0
C291 C 0.85124 0.63119 0.39132 0.0
H292 H 0.92186 0.64077 0.40634 0.0
C293 C 0.84301 0.60217 0.40441 0.0
C294 C 0.8801 0.64551 0.39281 0.0
C295 C 0.89056 0.67744 0.38185 0.0
C296 C 0.8626 0.58719 0.41893 0.0
C297 C 0.8915 0.60099 0.41901 0.0
C298 C 0.89978 0.63 0.40596 0.0
C299 C 0.91338 0.58583 0.43285 0.0
C300 C 0.85191 0.55716 0.43513 0.0
C301 C 0.93451 0.59913 0.45563 0.0
C302 C 0.9545 0.58439 0.46935 0.0
C303 C 0.95341 0.55594 0.46084 0.0
C304 C 0.93274 0.54298 0.4376 0.0
C305 C 0.91327 0.55798 0.42333 0.0
H306 H 0.83047 0.5543 0.44224 0.0
H307 H 0.851 0.54003 0.41841 0.0
H308 H 0.86568 0.55342 0.45662 0.0
H309 H 0.93518 0.62066 0.4633 0.0
H310 H 0.97012 0.59475 0.48741 0.0
H311 H 0.38952 0.76254 0.29764 0.0
H312 H 0.42195 0.80851 0.31518 0.0
H313 H 0.44509 0.76213 0.40183 0.0
H314 H 0.41279 0.71657 0.38412 0.0
H315 H 0.41638 0.83469 0.36993 0.0
H316 H 0.52065 0.81187 0.37699 0.0
H317 H 0.49068 0.7905 0.35421 0.0
H318 H 0.49575 0.78308 0.39644 0.0
C319 C 0.40246 0.76214 0.31979 0.0
C320 C 0.39921 0.73611 0.33934 0.0
C321 C 0.42071 0.78836 0.32998 0.0
C322 C 0.43621 0.78881 0.35975 0.0
C323 C 0.43389 0.76234 0.37852 0.0
H324 H 0.52822 0.8997 0.50097 0.0
H325 H 0.50193 0.86174 0.46641 0.0
C326 C 0.41555 0.73629 0.36842 0.0
C327 C 0.45257 0.81711 0.37286 0.0
H328 H 0.51651 0.85043 0.40833 0.0
C329 C 0.43842 0.83845 0.37779 0.0
C330 C 0.48131 0.82204 0.38313 0.0
C331 C 0.49807 0.80079 0.37715 0.0
C332 C 0.45179 0.86364 0.39436 0.0
C333 C 0.48023 0.86786 0.4059 0.0
C334 C 0.49467 0.84718 0.39966 0.0
C335 C 0.49481 0.89196 0.42693 0.0
C336 C 0.43501 0.88469 0.40089 0.0
C337 C 0.49931 0.92189 0.41654 0.0
C338 C 0.5144 0.94396 0.43654 0.0
C339 C 0.52542 0.9364 0.46714 0.0
C340 C 0.52021 0.90644 0.47755 0.0
C341 C 0.5052 0.88459 0.45773 0.0
H342 H 0.41223 0.87549 0.39551 0.0
H343 H 0.43899 0.89033 0.4261 0.0
H344 H 0.44138 0.90534 0.38587 0.0
H345 H 0.49183 0.92817 0.39273 0.0
H346 H 0.51821 0.96678 0.42768 0.0
H347 H 0.29164 0.68647 0.74714 0.0
H348 H 0.24778 0.65591 0.72253 0.0
H349 H 0.2894 0.65175 0.63963 0.0
H350 H 0.33301 0.68198 0.66431 0.0
H351 H 0.21783 0.66669 0.65929 0.0
H352 H 0.25476 0.56422 0.67094 0.0
H353 H 0.2708 0.59533 0.69442 0.0
H354 H 0.27855 0.59582 0.65398 0.0
C355 C 0.29119 0.67894 0.72367 0.0
C356 C 0.31543 0.68646 0.70745 0.0
C357 C 0.26627 0.66167 0.70964 0.0
C358 C 0.26547 0.65145 0.67938 0.0
C359 C 0.28967 0.65924 0.6631 0.0
H360 H 0.16164 0.54667 0.54053 0.0
H361 H 0.1969 0.57973 0.57351 0.0
C362 C 0.31445 0.67658 0.67704 0.0
C363 C 0.2396 0.63225 0.66469 0.0
H364 H 0.21383 0.56412 0.63631 0.0
C365 C 0.21669 0.64412 0.6546 0.0
C366 C 0.23822 0.60282 0.65883 0.0
C367 C 0.26177 0.58861 0.67033 0.0
C368 C 0.19296 0.62771 0.6372 0.0
C369 C 0.19212 0.59865 0.63022 0.0
C370 C 0.21458 0.58647 0.64154 0.0
C371 C 0.16934 0.58108 0.60914 0.0
C372 C 0.16958 0.64196 0.62514 0.0
C373 C 0.14184 0.5713 0.61787 0.0
C374 C 0.12139 0.55233 0.59883 0.0
C375 C 0.12832 0.54268 0.57103 0.0
C376 C 0.15564 0.55344 0.56193 0.0
C377 C 0.17587 0.57237 0.58076 0.0
H378 H 0.17554 0.66606 0.62793 0.0
H379 H 0.16324 0.63801 0.5997 0.0
H380 H 0.15118 0.63208 0.63863 0.0
H381 H 0.13645 0.57746 0.6399 0.0
H382 H 0.10057 0.54429 0.60651 0.0
H383 H 0.36892 0.22784 0.68493 0.0
H384 H 0.38677 0.19249 0.65904 0.0
H385 H 0.45903 0.26138 0.63645 0.0
H386 H 0.44078 0.29673 0.66167 0.0
H387 H 0.43346 0.22849 0.58497 0.0
H388 H 0.45141 0.15496 0.69052 0.0
H389 H 0.4169 0.16088 0.68396 0.0
H390 H 0.44611 0.19108 0.6938 0.0
C391 C 0.38865 0.23525 0.67451 0.0
C392 C 0.40361 0.26487 0.67538 0.0
C393 C 0.39895 0.21507 0.65998 0.0
C394 C 0.42446 0.22417 0.64618 0.0
C395 C 0.43941 0.2538 0.64712 0.0
H396 H 0.53395 0.15607 0.54798 0.0
H397 H 0.50831 0.18506 0.572 0.0
C398 C 0.42911 0.27393 0.66164 0.0
C399 C 0.43515 0.20326 0.62958 0.0
H400 H 0.45939 0.14103 0.64087 0.0
C401 C 0.43903 0.20931 0.59721 0.0
C402 C 0.44222 0.17809 0.64545 0.0
C403 C 0.4392 0.17086 0.68041 0.0
C404 C 0.45009 0.19117 0.58038 0.0
C405 C 0.45797 0.16651 0.5964 0.0
C406 C 0.45334 0.15991 0.62857 0.0
C407 C 0.47284 0.14861 0.58074 0.0
C408 C 0.45352 0.19881 0.54562 0.0
C409 C 0.46162 0.11827 0.57788 0.0
C410 C 0.47633 0.10148 0.56406 0.0
C411 C 0.50273 0.11469 0.5533 0.0
C412 C 0.51373 0.14511 0.55605 0.0
C413 C 0.49899 0.16182 0.56963 0.0
H414 H 0.43912 0.21228 0.53485 0.0
H415 H 0.4752 0.21195 0.54312 0.0
H416 H 0.44984 0.17874 0.53224 0.0
H417 H 0.44152 0.10758 0.58641 0.0
H418 H 0.4673 0.07811 0.56239 0.0
H419 H 0.79121 0.37196 0.66448 0.0
H420 H 0.83615 0.3844 0.64149 0.0
H421 H 0.85828 0.31029 0.6952 0.0
H422 H 0.81329 0.29843 0.71882 0.0
H423 H 0.89805 0.3605 0.70424 0.0
H424 H 0.87022 0.35171 0.57556 0.0
H425 H 0.85109 0.37389 0.59135 0.0
H426 H 0.84565 0.33556 0.60445 0.0
C427 C 0.80549 0.35802 0.6707 0.0
C428 C 0.7991 0.3344 0.69338 0.0
C429 C 0.83105 0.36495 0.65744 0.0
C430 C 0.85057 0.34812 0.66635 0.0
C431 C 0.84352 0.32349 0.68784 0.0
H432 H 1.00551 0.41403 0.57318 0.0
H433 H 0.96665 0.37825 0.596 0.0
C434 C 0.81785 0.31659 0.70113 0.0
C435 C 0.87928 0.3585 0.65605 0.0
H436 H 0.91474 0.38513 0.59092 0.0
C437 C 0.9018 0.3653 0.67941 0.0
C438 C 0.88436 0.36438 0.62369 0.0
C439 C 0.86155 0.35569 0.59735 0.0
C440 C 0.92884 0.37959 0.67138 0.0
C441 C 0.93339 0.38781 0.63917 0.0
C442 C 0.91127 0.37922 0.61569 0.0
C443 C 0.96003 0.40748 0.62935 0.0
C444 C 0.95214 0.38616 0.69757 0.0
C445 C 0.96983 0.43558 0.64112 0.0
C446 C 0.9922 0.45606 0.6283 0.0
C447 C 1.00503 0.44903 0.60308 0.0
C448 C 0.99623 0.42026 0.59261 0.0
C449 C 0.97388 0.39976 0.60553 0.0
H450 H 0.94806 0.36979 0.71807 0.0
H451 H 0.97256 0.38624 0.68919 0.0
H452 H 0.95352 0.40814 0.70612 0.0
H453 H 0.95917 0.44235 0.65898 0.0
H454 H 0.99824 0.47798 0.6369 0.0
H455 H 0.74988 0.74142 0.64818 0.0
H456 H 0.73415 0.78658 0.63318 0.0
H457 H 0.70025 0.75338 0.54192 0.0
H458 H 0.71599 0.70806 0.55721 0.0
H459 H 0.7333 0.81899 0.54536 0.0
H460 H 0.64608 0.77954 0.62283 0.0
H461 H 0.68021 0.77759 0.64034 0.0
H462 H 0.66384 0.75497 0.6083 0.0
C463 C 0.73934 0.74411 0.62486 0.0
C464 C 0.73387 0.7216 0.6038 0.0
C465 C 0.73045 0.76973 0.61629 0.0
C466 C 0.716 0.77312 0.58654 0.0
C467 C 0.71147 0.7511 0.56494 0.0
H468 H 0.60854 0.89203 0.54386 0.0
H469 H 0.62939 0.85022 0.54714 0.0
C470 C 0.72032 0.72536 0.57361 0.0
C471 C 0.7038 0.79863 0.5792 0.0
H472 H 0.65317 0.82827 0.60052 0.0
C473 C 0.7157 0.82107 0.55721 0.0
C474 C 0.68071 0.80096 0.59456 0.0
C475 C 0.66673 0.77694 0.61768 0.0
C476 C 0.70537 0.8463 0.55069 0.0
C477 C 0.68273 0.84901 0.5668 0.0
C478 C 0.67056 0.82619 0.58827 0.0
C479 C 0.67108 0.87519 0.56197 0.0
C480 C 0.71869 0.8697 0.52663 0.0
C481 C 0.68763 0.90318 0.56916 0.0
C482 C 0.6758 0.92731 0.56701 0.0
C483 C 0.64715 0.92372 0.55794 0.0
C484 C 0.6307 0.89563 0.55078 0.0
C485 C 0.64257 0.87167 0.55263 0.0
H486 H 0.72972 0.8607 0.50998 0.0
H487 H 0.70292 0.87979 0.51275 0.0
H488 H 0.73427 0.88728 0.53918 0.0
H489 H 0.70956 0.90625 0.57714 0.0
H490 H 0.68902 0.94866 0.57271 0.0
H491 H 0.44376 0.33385 0.40059 0.0
H492 H 0.46908 0.29509 0.40271 0.0
H493 H 0.39051 0.22962 0.39482 0.0
H494 H 0.36552 0.26844 0.3913 0.0
H495 H 0.46645 0.25382 0.44971 0.0
H496 H 0.4336 0.19836 0.33768 0.0
H497 H 0.42801 0.23401 0.34288 0.0
H498 H 0.40391 0.20091 0.35671 0.0
C499 C 0.4321 0.31123 0.3982 0.0
C500 C 0.40283 0.3039 0.39602 0.0
C501 C 0.44647 0.28912 0.39961 0.0
C502 C 0.43173 0.2594 0.39869 0.0
C503 C 0.40242 0.25234 0.39487 0.0
H504 H 0.4563 0.08689 0.44885 0.0
H505 H 0.43947 0.13094 0.43233 0.0
C506 C 0.38812 0.27443 0.39324 0.0
C507 C 0.44658 0.23563 0.40582 0.0
H508 H 0.45052 0.16963 0.38173 0.0
C509 C 0.46338 0.23564 0.43459 0.0
C510 C 0.44254 0.21191 0.3861 0.0
C511 C 0.42626 0.21145 0.35398 0.0
C512 C 0.47513 0.21198 0.44494 0.0
C513 C 0.47006 0.18762 0.42589 0.0
C514 C 0.45406 0.18808 0.39658 0.0
C515 C 0.48046 0.1611 0.43628 0.0
C516 C 0.49195 0.21288 0.47677 0.0
C517 C 0.50906 0.16336 0.4439 0.0
C518 C 0.51861 0.13835 0.45404 0.0
C519 C 0.49982 0.11045 0.45583 0.0
C520 C 0.47124 0.1081 0.4477 0.0
C521 C 0.46164 0.13324 0.43817 0.0
H522 H 0.48831 0.22977 0.49136 0.0
H523 H 0.48693 0.19113 0.49015 0.0
H524 H 0.51451 0.21878 0.47315 0.0
H525 H 0.5241 0.1844 0.44166 0.0
H526 H 0.54082 0.14082 0.45972 0.0
H527 H 0.77931 0.36377 0.34204 0.0
H528 H 0.82262 0.37756 0.3769 0.0
H529 H 0.85131 0.30745 0.3436 0.0
H530 H 0.80788 0.2939 0.30825 0.0
H531 H 0.86073 0.31962 0.41648 0.0
H532 H 0.89883 0.41429 0.33129 0.0
H533 H 0.86369 0.40927 0.34165 0.0
H534 H 0.87203 0.3821 0.31991 0.0
C535 C 0.79474 0.35111 0.34258 0.0
C536 C 0.79061 0.32808 0.32231 0.0
C537 C 0.81938 0.35894 0.36242 0.0
C538 C 0.84027 0.34376 0.36247 0.0
C539 C 0.83544 0.31946 0.3438 0.0
H540 H 1.00874 0.43316 0.44127 0.0
H541 H 0.97234 0.39986 0.40858 0.0
C542 C 0.8107 0.31166 0.3238 0.0
C543 C 0.86778 0.35496 0.38027 0.0
H544 H 0.92402 0.41438 0.38206 0.0
C545 C 0.87482 0.3401 0.4088 0.0
C546 C 0.88628 0.38143 0.36993 0.0
C547 C 0.88006 0.39769 0.3389 0.0
C548 C 0.89927 0.35193 0.42814 0.0
C549 C 0.91689 0.37941 0.41875 0.0
C550 C 0.91055 0.39336 0.38932 0.0
C551 C 0.94014 0.39573 0.44039 0.0
C552 C 0.90574 0.33516 0.4587 0.0
C553 C 0.93425 0.40418 0.46924 0.0
C554 C 0.95483 0.42318 0.48773 0.0
C555 C 0.98185 0.43431 0.4778 0.0
C556 C 0.98819 0.42482 0.44963 0.0
C557 C 0.9674 0.40588 0.43091 0.0
H558 H 0.89632 0.31117 0.45731 0.0
H559 H 0.92861 0.3388 0.46467 0.0
H560 H 0.89677 0.34278 0.47827 0.0
H561 H 0.91331 0.39722 0.47679 0.0
H562 H 0.94926 0.42997 0.50936 0.0
H563 H 0.78019 0.79357 0.36859 0.0
H564 H 0.76193 0.82928 0.39359 0.0
H565 H 0.68404 0.76406 0.40269 0.0
H566 H 0.70263 0.72849 0.37817 0.0
H567 H 0.71598 0.85066 0.3731 0.0
H568 H 0.70269 0.79313 0.49191 0.0
H569 H 0.72339 0.78356 0.464 0.0
H570 H 0.68599 0.77006 0.46037 0.0
C571 C 0.75927 0.78706 0.3762 0.0
C572 C 0.7427 0.75854 0.37176 0.0
C573 C 0.74887 0.8073 0.39042 0.0
C574 C 0.7218 0.79916 0.40056 0.0
C575 C 0.7052 0.77061 0.3958 0.0
H576 H 0.6034 0.87681 0.46855 0.0
H577 H 0.63031 0.84596 0.45003 0.0
C578 C 0.71564 0.75044 0.38161 0.0
C579 C 0.71031 0.82085 0.41463 0.0
H580 H 0.6787 0.8312 0.47874 0.0
C581 C 0.70823 0.84668 0.39641 0.0
C582 C 0.70026 0.81562 0.44509 0.0
C583 C 0.70343 0.78923 0.46663 0.0
C584 C 0.69526 0.86678 0.40722 0.0
C585 C 0.6844 0.86105 0.43722 0.0
C586 C 0.68707 0.83558 0.45576 0.0
C587 C 0.66865 0.88022 0.44896 0.0
C588 C 0.69217 0.89331 0.38586 0.0
C589 C 0.68138 0.90973 0.45492 0.0
C590 C 0.66599 0.92756 0.46556 0.0
C591 C 0.63762 0.91614 0.47038 0.0
C592 C 0.62513 0.88645 0.46479 0.0
C593 C 0.6405 0.8687 0.45431 0.0
H594 H 0.69646 0.89132 0.3611 0.0
H595 H 0.6708 0.89656 0.38557 0.0
H596 H 0.70719 0.91322 0.39497 0.0
H597 H 0.70326 0.91888 0.45158 0.0
H598 H 0.67632 0.95021 0.47006 0.0
H599 H 0.28334 0.66862 0.30296 0.0
H600 H 0.23838 0.64097 0.3217 0.0
H601 H 0.27877 0.63165 0.41579 0.0
H602 H 0.32376 0.65858 0.39672 0.0
H603 H 0.24491 0.57961 0.39586 0.0
H604 H 0.18783 0.66755 0.37647 0.0
H605 H 0.20269 0.66094 0.34192 0.0
H606 H 0.22526 0.67501 0.37599 0.0
C607 C 0.28245 0.66067 0.32762 0.0
C608 C 0.30684 0.66577 0.34849 0.0
C609 C 0.25679 0.64516 0.33839 0.0
C610 C 0.25508 0.63463 0.3703 0.0
C611 C 0.27952 0.63975 0.39114 0.0
H612 H 0.11176 0.56013 0.47744 0.0
H613 H 0.15118 0.59304 0.45247 0.0
C614 C 0.30514 0.65522 0.38035 0.0
C615 C 0.22814 0.6171 0.38171 0.0
H616 H 0.16108 0.61935 0.39027 0.0
C617 C 0.2266 0.58832 0.39464 0.0
C618 C 0.20431 0.62858 0.38044 0.0
C619 C 0.20506 0.6598 0.36824 0.0
C620 C 0.2019 0.57062 0.40604 0.0
C621 C 0.17783 0.58178 0.40395 0.0
C622 C 0.17942 0.61069 0.39141 0.0
C623 C 0.15125 0.56392 0.41583 0.0
C624 C 0.20197 0.54031 0.42089 0.0
C625 C 0.13729 0.53727 0.40257 0.0
C626 C 0.1147 0.51836 0.41673 0.0
C627 C 0.1055 0.52581 0.44442 0.0
C628 C 0.11818 0.55362 0.45615 0.0
C629 C 0.14084 0.57247 0.44198 0.0
H630 H 0.22351 0.53778 0.42743 0.0
H631 H 0.19041 0.53555 0.44248 0.0
H632 H 0.1915 0.52364 0.40368 0.0
H633 H 0.14461 0.53052 0.38198 0.0
H634 H 0.10537 0.49727 0.40688 0.0
H635 H 0.38772 0.7907 0.74774 0.0
H636 H 0.41837 0.83642 0.72654 0.0
H637 H 0.45652 0.78541 0.67349 0.0
H638 H 0.42479 0.74006 0.69352 0.0
H639 H 0.47277 0.86133 0.72564 0.0
H640 H 0.42811 0.83562 0.60345 0.0
H641 H 0.41392 0.81422 0.63785 0.0
H642 H 0.44387 0.80751 0.62219 0.0
C643 C 0.40326 0.78947 0.73223 0.0
C644 C 0.4044 0.76214 0.72252 0.0
C645 C 0.42059 0.81548 0.71996 0.0
C646 C 0.43929 0.81444 0.69775 0.0
C647 C 0.44175 0.78687 0.68988 0.0
H648 H 0.57556 0.95043 0.63203 0.0
H649 H 0.54392 0.91331 0.66284 0.0
C650 C 0.42409 0.76096 0.70175 0.0
C651 C 0.45506 0.84204 0.68156 0.0
H652 H 0.46917 0.87499 0.60827 0.0
C653 C 0.47184 0.86442 0.69997 0.0
C654 C 0.45318 0.8466 0.64805 0.0
C655 C 0.43355 0.82486 0.62676 0.0
C656 C 0.48763 0.89063 0.6858 0.0
C657 C 0.48735 0.8942 0.65228 0.0
C658 C 0.46972 0.87228 0.63394 0.0
C659 C 0.50622 0.91947 0.63563 0.0
C660 C 0.50416 0.91428 0.70701 0.0
C661 C 0.4958 0.93537 0.60961 0.0
C662 C 0.51404 0.95638 0.5913 0.0
C663 C 0.5431 0.96201 0.59873 0.0
C664 C 0.55333 0.94698 0.62565 0.0
C665 C 0.53516 0.92576 0.64359 0.0
H666 H 0.49417 0.91336 0.72939 0.0
H667 H 0.52532 0.91073 0.71351 0.0
H668 H 0.50628 0.93658 0.69509 0.0
H669 H 0.47356 0.93088 0.60286 0.0
H670 H 0.50542 0.96745 0.57072 0.0
H671 H 0.36766 0.37145 0.68284 0.0
H672 H 0.32808 0.39325 0.66588 0.0
H673 H 0.27085 0.3095 0.68632 0.0
H674 H 0.31043 0.28818 0.70417 0.0
H675 H 0.29059 0.37582 0.61559 0.0
H676 H 0.23389 0.36434 0.72329 0.0
H677 H 0.26923 0.36055 0.72483 0.0
H678 H 0.24029 0.33046 0.7136 0.0
C679 C 0.34659 0.35813 0.68476 0.0
C680 C 0.34195 0.32826 0.69492 0.0
C681 C 0.324 0.37043 0.67478 0.0
C682 C 0.29639 0.3531 0.67497 0.0
C683 C 0.29183 0.32353 0.6865 0.0
H684 H 0.13564 0.3845 0.59182 0.0
H685 H 0.17231 0.36101 0.61658 0.0
C686 C 0.3144 0.31131 0.69656 0.0
C687 C 0.27262 0.36509 0.6604 0.0
H688 H 0.20972 0.37633 0.67436 0.0
C689 C 0.27302 0.37606 0.62856 0.0
C690 C 0.24946 0.36513 0.67712 0.0
C691 C 0.24823 0.35474 0.71168 0.0
C692 C 0.25098 0.38699 0.61302 0.0
C693 C 0.22796 0.38722 0.6298 0.0
C694 C 0.2273 0.37592 0.66148 0.0
C695 C 0.20541 0.40103 0.61539 0.0
C696 C 0.25251 0.39812 0.57867 0.0
C697 C 0.2118 0.43127 0.60694 0.0
C698 C 0.19106 0.44465 0.59305 0.0
C699 C 0.16328 0.42816 0.58727 0.0
C700 C 0.15677 0.39783 0.596 0.0
C701 C 0.17768 0.38441 0.61013 0.0
H702 H 0.26649 0.38833 0.5667 0.0
H703 H 0.2315 0.39321 0.56548 0.0
H704 H 0.261 0.42234 0.57741 0.0
H705 H 0.23294 0.4446 0.61113 0.0
H706 H 0.19696 0.46804 0.58667 0.0
H707 H 0.75066 0.2513 0.73711 0.0
H708 H 0.73276 0.20705 0.70705 0.0
H709 H 0.72621 0.26191 0.62112 0.0
H710 H 0.7447 0.30595 0.6513 0.0
H711 H 0.68196 0.19215 0.67773 0.0
H712 H 0.75741 0.2006 0.58873 0.0
H713 H 0.76534 0.22266 0.62281 0.0
H714 H 0.74543 0.2335 0.58793 0.0
C715 C 0.74601 0.25368 0.71167 0.0
C716 C 0.74901 0.28177 0.69633 0.0
C717 C 0.73578 0.22851 0.69452 0.0
C718 C 0.72835 0.23103 0.66169 0.0
C719 C 0.73244 0.25926 0.6462 0.0
H720 H 0.61901 0.13037 0.52198 0.0
H721 H 0.65343 0.16604 0.55326 0.0
C722 C 0.74289 0.28441 0.66338 0.0
C723 C 0.71339 0.20447 0.64448 0.0
H724 H 0.7115 0.16892 0.57711 0.0
C725 C 0.68875 0.18675 0.65606 0.0
C726 C 0.72214 0.19739 0.61613 0.0
C727 C 0.74919 0.21438 0.60336 0.0
C728 C 0.67201 0.16309 0.63941 0.0
C729 C 0.68023 0.15672 0.6105 0.0
C730 C 0.70526 0.17383 0.59931 0.0
C731 C 0.66177 0.1341 0.59028 0.0
C732 C 0.64495 0.14592 0.65208 0.0
C733 C 0.65556 0.10408 0.60031 0.0
C734 C 0.63583 0.08347 0.58236 0.0
C735 C 0.62191 0.09263 0.55421 0.0
C736 C 0.62913 0.12256 0.54368 0.0
C737 C 0.6489 0.14302 0.56146 0.0
H738 H 0.63954 0.15651 0.67209 0.0
H739 H 0.62754 0.1436 0.63301 0.0
H740 H 0.64681 0.12351 0.66067 0.0
H741 H 0.66551 0.09672 0.62236 0.0
H742 H 0.63081 0.06059 0.59107 0.0
H743 H 0.82164 0.68383 0.63464 0.0
H744 H 0.85811 0.66083 0.62254 0.0
H745 H 0.79523 0.58172 0.59989 0.0
H746 H 0.75875 0.60493 0.61227 0.0
H747 H 0.84544 0.57199 0.63395 0.0
H748 H 0.86664 0.65025 0.52884 0.0
H749 H 0.86887 0.66777 0.56526 0.0
H750 H 0.83592 0.64537 0.54985 0.0
C751 C 0.81583 0.66138 0.62758 0.0
C752 C 0.78764 0.64611 0.62392 0.0
C753 C 0.83652 0.64834 0.62051 0.0
C754 C 0.82924 0.61989 0.60952 0.0
C755 C 0.8012 0.60382 0.60804 0.0
H756 H 0.93458 0.51791 0.54233 0.0
H757 H 0.89395 0.53444 0.55375 0.0
C758 C 0.78047 0.61691 0.61523 0.0
C759 C 0.85082 0.60769 0.59809 0.0
H760 H 0.89913 0.62098 0.54371 0.0
C761 C 0.85702 0.58247 0.61405 0.0
C762 C 0.86567 0.62133 0.57191 0.0
C763 C 0.85881 0.64751 0.55274 0.0
C764 C 0.8786 0.57126 0.60534 0.0
C765 C 0.89401 0.5855 0.57981 0.0
C766 C 0.8873 0.61024 0.56335 0.0
C767 C 0.9182 0.57602 0.57097 0.0
C768 C 0.88544 0.54494 0.62418 0.0
C769 C 0.94512 0.5944 0.57585 0.0
C770 C 0.96834 0.58509 0.56934 0.0
C771 C 0.96502 0.55726 0.55765 0.0
C772 C 0.93788 0.53937 0.55157 0.0
C773 C 0.91465 0.54868 0.55821 0.0
H774 H 0.87479 0.53964 0.64643 0.0
H775 H 0.87865 0.5255 0.6096 0.0
H776 H 0.90832 0.54885 0.63028 0.0
H777 H 0.94822 0.61569 0.58545 0.0
H778 H 0.98891 0.59952 0.57404 0.0
H779 H 0.38043 0.32641 0.32855 0.0
H780 H 0.39887 0.34864 0.27806 0.0
H781 H 0.45177 0.4218 0.32726 0.0
H782 H 0.4331 0.3996 0.37747 0.0
H783 H 0.39398 0.4095 0.2558 0.0
H784 H 0.50276 0.39653 0.26677 0.0
H785 H 0.47553 0.37245 0.28844 0.0
H786 H 0.49143 0.40884 0.30087 0.0
C787 C 0.39663 0.34675 0.32848 0.0
C788 C 0.40565 0.36135 0.35654 0.0
C789 C 0.40696 0.3595 0.2998 0.0
C790 C 0.42673 0.38677 0.29905 0.0
C791 C 0.43678 0.40059 0.32744 0.0
H792 H 0.50956 0.50878 0.15475 0.0
H793 H 0.49188 0.48421 0.20417 0.0
C794 C 0.42623 0.38798 0.35599 0.0
C795 C 0.4349 0.40225 0.26841 0.0
H796 H 0.49033 0.42776 0.22401 0.0
C797 C 0.41497 0.41333 0.24863 0.0
C798 C 0.46236 0.40747 0.2595 0.0
C799 C 0.48431 0.39558 0.27982 0.0
C800 C 0.42195 0.43009 0.22033 0.0
C801 C 0.44943 0.43522 0.21125 0.0
C802 C 0.46929 0.42391 0.23102 0.0
C803 C 0.45809 0.45197 0.18121 0.0
C804 C 0.40006 0.44288 0.201 0.0
C805 C 0.44461 0.44243 0.15184 0.0
C806 C 0.45445 0.45669 0.12352 0.0
C807 C 0.47828 0.48043 0.12404 0.0
C808 C 0.49119 0.49053 0.15349 0.0
C809 C 0.48118 0.47644 0.18178 0.0
H810 H 0.38335 0.44453 0.21563 0.0
H811 H 0.4094 0.46509 0.19024 0.0
H812 H 0.39018 0.42831 0.18159 0.0
H813 H 0.42712 0.42325 0.15077 0.0
H814 H 0.44417 0.44817 0.10126 0.0
H815 H 0.38011 0.71725 0.8159 0.0
H816 H 0.41404 0.70316 0.85675 0.0
H817 H 0.46556 0.6958 0.78385 0.0
H818 H 0.43127 0.70931 0.74317 0.0
H819 H 0.45153 0.64541 0.82361 0.0
H820 H 0.49281 0.74331 0.89449 0.0
H821 H 0.45538 0.73217 0.88848 0.0
H822 H 0.47543 0.74534 0.85506 0.0
C823 C 0.39916 0.7135 0.80888 0.0
C824 C 0.40345 0.71481 0.7766 0.0
C825 C 0.41853 0.70552 0.83212 0.0
C826 C 0.44253 0.69873 0.82341 0.0
C827 C 0.44734 0.70122 0.79115 0.0
H828 H 0.57941 0.64828 0.93912 0.0
H829 H 0.54959 0.67479 0.90553 0.0
C830 C 0.42797 0.70925 0.76794 0.0
C831 C 0.4608 0.68578 0.84739 0.0
H832 H 0.50291 0.69843 0.91648 0.0
C833 C 0.46285 0.65707 0.84383 0.0
C834 C 0.47561 0.70103 0.87374 0.0
C835 C 0.47497 0.73227 0.87814 0.0
C836 C 0.47903 0.64306 0.86602 0.0
C837 C 0.49328 0.65799 0.8928 0.0
C838 C 0.49163 0.68689 0.89617 0.0
C839 C 0.51088 0.64413 0.91668 0.0
C840 C 0.48109 0.6125 0.86036 0.0
C841 C 0.49894 0.6187 0.93508 0.0
C842 C 0.51592 0.60344 0.95442 0.0
C843 C 0.54521 0.61334 0.95566 0.0
C844 C 0.55698 0.63987 0.93864 0.0
C845 C 0.53996 0.65512 0.91942 0.0
H846 H 0.47385 0.60666 0.83554 0.0
H847 H 0.50292 0.61049 0.86555 0.0
H848 H 0.46785 0.59628 0.87643 0.0
H849 H 0.47649 0.61007 0.93363 0.0
H850 H 0.50608 0.58318 0.9672 0.0
H851 H 0.36364 0.32229 0.77041 0.0
H852 H 0.38048 0.35628 0.81341 0.0
H853 H 0.44601 0.40655 0.75754 0.0
H854 H 0.42933 0.3724 0.71503 0.0
H855 H 0.43869 0.36679 0.8435 0.0
H856 H 0.41124 0.46918 0.79196 0.0
H857 H 0.39335 0.43321 0.77866 0.0
H858 H 0.42712 0.45138 0.76593 0.0
C859 C 0.38117 0.34108 0.7672 0.0
C860 C 0.39516 0.34504 0.73955 0.0
C861 C 0.39088 0.36033 0.79172 0.0
C862 C 0.4144 0.38408 0.7886 0.0
C863 C 0.42762 0.38864 0.76033 0.0
H864 H 0.53297 0.5165 0.88723 0.0
H865 H 0.50007 0.48468 0.85102 0.0
C866 C 0.41815 0.36922 0.73609 0.0
C867 C 0.4268 0.40271 0.81564 0.0
H868 H 0.44494 0.4739 0.83677 0.0
C869 C 0.43968 0.39013 0.84238 0.0
C870 C 0.42818 0.43313 0.81401 0.0
C871 C 0.41406 0.44759 0.78623 0.0
C872 C 0.45524 0.40745 0.86671 0.0
C873 C 0.45734 0.43814 0.86467 0.0
C874 C 0.4434 0.45043 0.83847 0.0
C875 C 0.4761 0.45832 0.88759 0.0
C876 C 0.47064 0.39294 0.89334 0.0
C877 C 0.47341 0.4547 0.92047 0.0
C878 C 0.49259 0.47288 0.94157 0.0
C879 C 0.51462 0.49524 0.93012 0.0
C880 C 0.51644 0.49947 0.89709 0.0
C881 C 0.49751 0.48126 0.87619 0.0
H882 H 0.47202 0.37081 0.8876 0.0
H883 H 0.49213 0.40666 0.89876 0.0
H884 H 0.45937 0.39023 0.91501 0.0
H885 H 0.45667 0.43765 0.92987 0.0
H886 H 0.49041 0.46912 0.9668 0.0
H887 H 0.70088 0.35912 0.72863 0.0
H888 H 0.67959 0.38708 0.76086 0.0
H889 H 0.74478 0.38542 0.83622 0.0
H890 H 0.76587 0.35735 0.80386 0.0
H891 H 0.66081 0.37033 0.82298 0.0
H892 H 0.74498 0.47392 0.82067 0.0
H893 H 0.74131 0.44593 0.79292 0.0
H894 H 0.7562 0.44091 0.83281 0.0
C895 C 0.71045 0.36475 0.75213 0.0
C896 C 0.73489 0.35634 0.76396 0.0
C897 C 0.69842 0.38069 0.77044 0.0
C898 C 0.71085 0.38867 0.80073 0.0
C899 C 0.73515 0.37994 0.8127 0.0
H900 H 0.66344 0.48501 0.94403 0.0
H901 H 0.68763 0.45796 0.9145 0.0
C902 C 0.74707 0.36386 0.79441 0.0
C903 C 0.69796 0.40555 0.82002 0.0
H904 H 0.70851 0.47158 0.85307 0.0
C905 C 0.67121 0.39247 0.82956 0.0
C906 C 0.71166 0.43439 0.82863 0.0
C907 C 0.74004 0.44982 0.81808 0.0
C908 C 0.65782 0.40737 0.84768 0.0
C909 C 0.67135 0.43634 0.85598 0.0
C910 C 0.69823 0.44935 0.84672 0.0
C911 C 0.65745 0.45372 0.87342 0.0
C912 C 0.62941 0.39182 0.85812 0.0
C913 C 0.63288 0.46088 0.8598 0.0
C914 C 0.61904 0.4762 0.87655 0.0
C915 C 0.62955 0.48485 0.90728 0.0
C916 C 0.65467 0.47845 0.92053 0.0
C917 C 0.66854 0.46306 0.90369 0.0
H918 H 0.62527 0.36757 0.85717 0.0
H919 H 0.62739 0.39696 0.88266 0.0
H920 H 0.61314 0.39935 0.84206 0.0
H921 H 0.6243 0.45445 0.8362 0.0
H922 H 0.59994 0.48107 0.86542 0.0
H923 H 0.78382 0.65854 0.69482 0.0
H924 H 0.77496 0.63455 0.74774 0.0
H925 H 0.69464 0.58433 0.70963 0.0
H926 H 0.704 0.60789 0.65686 0.0
H927 H 0.73251 0.64487 0.7753 0.0
H928 H 0.71709 0.52453 0.77453 0.0
H929 H 0.7349 0.54983 0.74452 0.0
H930 H 0.69733 0.53854 0.74173 0.0
C931 C 0.76495 0.6413 0.69767 0.0
C932 C 0.74454 0.6349 0.67209 0.0
C933 C 0.75978 0.62776 0.72783 0.0
C934 C 0.73416 0.60751 0.73273 0.0
C935 C 0.71478 0.59936 0.70647 0.0
H936 H 0.61924 0.55382 0.87291 0.0
H937 H 0.64654 0.55985 0.82721 0.0
C938 C 0.72002 0.61288 0.67637 0.0
C939 C 0.72543 0.59935 0.76537 0.0
H940 H 0.69424 0.5415 0.81423 0.0
C941 C 0.72476 0.62224 0.78414 0.0
C942 C 0.71504 0.56984 0.77677 0.0
C943 C 0.71637 0.54429 0.75843 0.0
C944 C 0.71264 0.61656 0.81309 0.0
C945 C 0.70132 0.58708 0.82397 0.0
C946 C 0.70291 0.56408 0.80584 0.0
C947 C 0.68583 0.58007 0.85279 0.0
C948 C 0.71064 0.64225 0.83088 0.0
C949 C 0.69901 0.58862 0.8826 0.0
C950 C 0.68341 0.58539 0.9088 0.0
C951 C 0.65437 0.57333 0.90569 0.0
C952 C 0.64151 0.56341 0.87613 0.0
C953 C 0.65711 0.5667 0.84997 0.0
H954 H 0.71512 0.66328 0.81607 0.0
H955 H 0.68953 0.63858 0.83919 0.0
H956 H 0.72607 0.64465 0.85199 0.0
H957 H 0.72125 0.5985 0.88541 0.0
H958 H 0.69404 0.59288 0.93131 0.0
H959 H 0.73051 0.64752 0.32438 0.0
H960 H 0.71084 0.62041 0.27689 0.0
H961 H 0.75155 0.69483 0.21778 0.0
H962 H 0.7707 0.72185 0.26538 0.0
H963 H 0.69633 0.67838 0.20145 0.0
H964 H 0.73832 0.57961 0.21144 0.0
H965 H 0.72327 0.58401 0.24669 0.0
H966 H 0.75369 0.61105 0.23465 0.0
C967 C 0.73599 0.65748 0.30123 0.0
C968 C 0.75213 0.68655 0.29828 0.0
C969 C 0.7248 0.64208 0.2741 0.0
C970 C 0.72986 0.65546 0.24363 0.0
C971 C 0.7474 0.68398 0.24094 0.0
H972 H 0.63498 0.60291 0.0601 0.0
H973 H 0.67276 0.62753 0.09818 0.0
C974 C 0.75843 0.69935 0.26803 0.0
C975 C 0.71409 0.64141 0.21482 0.0
H976 H 0.69675 0.5777 0.17612 0.0
C977 C 0.69682 0.65657 0.19557 0.0
C978 C 0.71464 0.61293 0.20716 0.0
C979 C 0.73369 0.59606 0.2259 0.0
C980 C 0.67912 0.64354 0.16989 0.0
C981 C 0.67898 0.61468 0.16284 0.0
C982 C 0.69692 0.59986 0.18145 0.0
C983 C 0.65826 0.59845 0.13857 0.0
C984 C 0.65961 0.6602 0.15161 0.0
C985 C 0.63825 0.57333 0.1483 0.0
C986 C 0.61688 0.55926 0.12672 0.0
C987 C 0.61495 0.56987 0.09472 0.0
C988 C 0.63575 0.59428 0.08457 0.0
C989 C 0.65725 0.60846 0.10635 0.0
H990 H 0.6586 0.67979 0.1638 0.0
H991 H 0.66706 0.66784 0.12788 0.0
H992 H 0.63819 0.64577 0.1481 0.0
H993 H 0.63861 0.56512 0.17295 0.0
H994 H 0.60143 0.54035 0.13542 0.0
H995 H 0.42179 0.68224 0.32608 0.0
H996 H 0.44964 0.66537 0.29043 0.0
H997 H 0.39161 0.67908 0.21096 0.0
H998 H 0.36436 0.69638 0.24656 0.0
H999 H 0.42892 0.61616 0.25726 0.0
H1000 H 0.4651 0.71114 0.17259 0.0
H1001 H 0.45227 0.71502 0.20978 0.0
H1002 H 0.42822 0.70283 0.17603 0.0
C1003 C 0.41581 0.68278 0.3008 0.0
C1004 C 0.3912 0.69085 0.28889 0.0
C1005 C 0.43147 0.67285 0.28048 0.0
C1006 C 0.42288 0.67107 0.24786 0.0
C1007 C 0.3991 0.68077 0.2358 0.0
H1008 H 0.46537 0.58556 0.09171 0.0
H1009 H 0.44317 0.61077 0.12587 0.0
C1010 C 0.3835 0.69065 0.2561 0.0
C1011 C 0.43675 0.65611 0.22718 0.0
H1012 H 0.46728 0.6641 0.15737 0.0
C1013 C 0.43757 0.62679 0.2356 0.0
C1014 C 0.44777 0.66977 0.19866 0.0
C1015 C 0.44857 0.70151 0.18884 0.0
C1016 C 0.44859 0.61066 0.21615 0.0
C1017 C 0.45953 0.62428 0.18761 0.0
C1018 C 0.45876 0.6536 0.17914 0.0
C1019 C 0.47266 0.6087 0.16684 0.0
C1020 C 0.44784 0.5789 0.22597 0.0
C1021 C 0.49666 0.59929 0.1784 0.0
C1022 C 0.50933 0.58495 0.15902 0.0
C1023 C 0.49839 0.57972 0.12747 0.0
C1024 C 0.47428 0.5891 0.11589 0.0
C1025 C 0.46163 0.60361 0.13535 0.0
H1026 H 0.43234 0.56959 0.2435 0.0
H1027 H 0.44271 0.56519 0.20512 0.0
H1028 H 0.4687 0.57741 0.23715 0.0
H1029 H 0.50584 0.60336 0.2024 0.0
H1030 H 0.52789 0.57813 0.16881 0.0
H1031 H 0.7286 0.32108 0.19434 0.0
H1032 H 0.70148 0.34498 0.15328 0.0
H1033 H 0.68946 0.40149 0.22252 0.0
H1034 H 0.71726 0.37811 0.26303 0.0
H1035 H 0.64855 0.34658 0.14994 0.0
H1036 H 0.71321 0.46094 0.15134 0.0
H1037 H 0.72541 0.43037 0.17081 0.0
H1038 H 0.70331 0.44706 0.19017 0.0
C1039 C 0.72045 0.33894 0.2004 0.0
C1040 C 0.72512 0.34814 0.23148 0.0
C1041 C 0.70495 0.35251 0.17711 0.0
C1042 C 0.69381 0.37544 0.18461 0.0
C1043 C 0.69851 0.38452 0.21584 0.0
H1044 H 0.5505 0.43029 0.09503 0.0
H1045 H 0.58285 0.40415 0.12406 0.0
C1046 C 0.71425 0.37115 0.23899 0.0
C1047 C 0.67602 0.38875 0.16036 0.0
H1048 H 0.66611 0.45455 0.12773 0.0
C1049 C 0.6526 0.37018 0.14479 0.0
C1050 C 0.6815 0.41949 0.15311 0.0
C1051 C 0.7074 0.44056 0.16699 0.0
C1052 C 0.63397 0.38155 0.12314 0.0
C1053 C 0.63843 0.41242 0.11757 0.0
C1054 C 0.66244 0.43091 0.13222 0.0
C1055 C 0.61808 0.42618 0.09769 0.0
C1056 C 0.60984 0.36031 0.10636 0.0
C1057 C 0.62704 0.44755 0.07329 0.0
C1058 C 0.60866 0.46294 0.05695 0.0
C1059 C 0.58086 0.4572 0.0646 0.0
C1060 C 0.57165 0.43502 0.08822 0.0
C1061 C 0.59014 0.41991 0.1048 0.0
H1062 H 0.61477 0.33884 0.10442 0.0
H1063 H 0.59139 0.35612 0.12025 0.0
H1064 H 0.60422 0.36922 0.08217 0.0
H1065 H 0.6485 0.45284 0.0674 0.0
H1066 H 0.61644 0.47987 0.03889 0.0
loop_
_geom_bond_atom_site_label_1
_geom_bond_atom_site_label_2
_geom_bond_distance
_geom_bond_site_symmetry_2
_ccdc_geom_bond_type
C0 N1 1.317 . S
C0 N2 1.348 . S
C0 C3 1.485 . S
N1 C0 1.317 . S
N1 N5 1.370 . S
N2 C0 1.348 . S
N2 C4 1.346 . S
C3 C0 1.485 . S
C3 H7 0.960 . S
C3 H8 0.961 . S
C3 H9 0.960 . S
C4 N2 1.346 . S
C4 N5 1.307 . S
C4 C6 1.486 . S
N5 N1 1.370 . S
N5 C4 1.307 . S
C6 C4 1.486 . S
C6 H10 0.960 . S
C6 H11 0.960 . S
C6 H12 0.959 . S
H7 C3 0.960 . S
H8 C3 0.961 . S
H9 C3 0.960 . S
H10 C6 0.960 . S
H11 C6 0.960 . S
H12 C6 0.959 . S
C13 N14 1.317 . S
C13 N15 1.348 . S
C13 C16 1.485 . S
N14 C13 1.317 . S
N14 N18 1.370 . S
N15 C13 1.348 . S
N15 C17 1.346 . S
C16 C13 1.485 . S
C16 H20 0.960 . S
C16 H21 0.961 . S
C16 H22 0.960 . S
C17 N15 1.346 . S
C17 N18 1.307 . S
C17 C19 1.486 . S
N18 N14 1.370 . S
N18 C17 1.307 . S
C19 C17 1.486 . S
C19 H23 0.960 . S
C19 H24 0.960 . S
C19 H25 0.959 . S
H20 C16 0.960 . S
H21 C16 0.961 . S
H22 C16 0.960 . S
H23 C19 0.960 . S
H24 C19 0.960 . S
H25 C19 0.959 . S
C26 N27 1.317 . S
C26 N28 1.348 . S
C26 C29 1.485 . S
N27 C26 1.317 . S
N27 N31 1.370 . S
N28 C26 1.348 . S
N28 C30 1.346 . S
C29 C26 1.485 . S
C29 H33 0.960 . S
C29 H34 0.961 . S
C29 H35 0.960 . S
C30 N28 1.346 . S
C30 N31 1.307 . S
C30 C32 1.486 . S
N31 N27 1.370 . S
N31 C30 1.307 . S
C32 C30 1.486 . S
C32 H36 0.960 . S
C32 H37 0.960 . S
C32 H38 0.959 . S
H33 C29 0.960 . S
H34 C29 0.961 . S
H35 C29 0.960 . S
H36 C32 0.960 . S
H37 C32 0.960 . S
H38 C32 0.959 . S
C39 N40 1.317 . S
C39 N41 1.348 . S
C39 C42 1.485 . S
N40 C39 1.317 . S
N40 N44 1.370 . S
N41 C39 1.348 . S
N41 C43 1.346 . S
C42 C39 1.485 . S
C42 H46 0.960 . S
C42 H47 0.961 . S
C42 H48 0.960 . S
C43 N41 1.346 . S
C43 N44 1.307 . S
C43 C45 1.486 . S
N44 N40 1.370 . S
N44 C43 1.307 . S
C45 C43 1.486 . S
C45 H49 0.960 . S
C45 H50 0.960 . S
C45 H51 0.959 . S
H46 C42 0.960 . S
H47 C42 0.961 . S
H48 C42 0.960 . S
H49 C45 0.960 . S
H50 C45 0.960 . S
H51 C45 0.959 . S
C52 N53 1.317 . S
C52 N54 1.348 . S
C52 C55 1.485 . S
N53 C52 1.317 . S
N53 N57 1.370 . S
N54 C52 1.348 . S
N54 C56 1.346 . S
C55 C52 1.485 . S
C55 H59 0.960 . S
C55 H60 0.961 . S
C55 H61 0.960 . S
C56 N54 1.346 . S
C56 N57 1.307 . S
C56 C58 1.486 . S
N57 N53 1.370 . S
N57 C56 1.307 . S
C58 C56 1.486 . S
C58 H62 0.960 . S
C58 H63 0.960 . S
C58 H64 0.959 . S
H59 C55 0.960 . S
H60 C55 0.961 . S
H61 C55 0.960 . S
H62 C58 0.960 . S
H63 C58 0.960 . S
H64 C58 0.959 . S
C65 N66 1.317 . S
C65 N67 1.348 . S
C65 C68 1.485 . S
N66 C65 1.317 . S
N66 N70 1.370 . S
N67 C65 1.348 . S
N67 C69 1.346 . S
C68 C65 1.485 . S
C68 H72 0.960 . S
C68 H73 0.961 . S
C68 H74 0.960 . S
C69 N67 1.346 . S
C69 N70 1.307 . S
C69 C71 1.486 . S
N70 N66 1.370 . S
N70 C69 1.307 . S
C71 C69 1.486 . S
C71 H75 0.960 . S
C71 H76 0.960 . S
C71 H77 0.959 . S
H72 C68 0.960 . S
H73 C68 0.961 . S
H74 C68 0.960 . S
H75 C71 0.960 . S
H76 C71 0.960 . S
H77 C71 0.959 . S
C78 N79 1.317 . S
C78 N80 1.348 . S
C78 C81 1.485 . S
N79 C78 1.317 . S
N79 N83 1.370 . S
N80 C78 1.348 . S
N80 C82 1.346 . S
C81 C78 1.485 . S
C81 H85 0.960 . S
C81 H86 0.961 . S
C81 H87 0.960 . S
C82 N80 1.346 . S
C82 N83 1.307 . S
C82 C84 1.486 . S
N83 N79 1.370 . S
N83 C82 1.307 . S
C84 C82 1.486 . S
C84 H88 0.960 . S
C84 H89 0.960 . S
C84 H90 0.959 . S
H85 C81 0.960 . S
H86 C81 0.961 . S
H87 C81 0.960 . S
H88 C84 0.960 . S
H89 C84 0.960 . S
H90 C84 0.959 . S
C91 N92 1.317 . S
C91 N93 1.348 . S
C91 C94 1.485 . S
N92 C91 1.317 . S
N92 N96 1.370 . S
N93 C91 1.348 . S
N93 C95 1.346 . S
C94 C91 1.485 . S
C94 H98 0.960 . S
C94 H99 0.961 . S
C94 H100 0.960 . S
C95 N93 1.346 . S
C95 N96 1.307 . S
C95 C97 1.486 . S
N96 N92 1.370 . S
N96 C95 1.307 . S
C97 C95 1.486 . S
C97 H101 0.960 . S
C97 H102 0.960 . S
C97 H103 0.959 . S
H98 C94 0.960 . S
H99 C94 0.961 . S
H100 C94 0.960 . S
H101 C97 0.960 . S
H102 C97 0.960 . S
H103 C97 0.959 . S
Co104 O107 2.042 . S
Co104 O114 2.264 . S
Co104 O133 2.286 . S
Co104 O134 2.069 . S
Co104 O136 2.015 . S
Co105 O107 2.122 . S
Co105 O113 2.073 . S
Co105 O114 2.327 . S
Co105 O115 1.976 . S
Co106 O107 2.087 . S
Co106 O109 2.087 . S
Co106 O116 2.111 . S
Co106 O117 2.143 . S
Co106 O121 2.111 . S
Co106 O135 2.143 . S
O107 Co104 2.042 . S
O107 Co105 2.122 . S
O107 Co106 2.087 . S
O107 H108 0.980 . S
H108 O107 0.980 . S
O109 Co106 2.087 . S
O109 Co110 2.042 1_455 S
O109 Co111 2.122 1_455 S
O109 H112 0.980 . S
Co110 O109 2.042 1_655 S
Co110 O118 2.286 . S
Co110 O119 2.069 . S
Co110 O120 2.015 . S
Co110 O123 2.264 . S
Co111 O109 2.122 1_655 S
Co111 O122 1.976 . S
Co111 O123 2.327 . S
Co111 O124 2.073 . S
H112 O109 0.980 . S
O113 Co105 2.073 . S
O113 C128 1.245 . S
O114 Co104 2.264 . S
O114 Co105 2.327 . S
O114 C128 1.257 . S
O115 Co105 1.976 . S
O115 C127 1.251 . S
O116 Co106 2.111 . S
O116 C127 1.274 . S
O117 Co106 2.143 . S
O117 C130 1.246 1_455 S
O118 Co110 2.286 . S
O118 C129 1.259 . S
O119 Co110 2.069 . S
O119 C129 1.289 . S
O120 Co110 2.015 . S
O120 C130 1.257 . S
O121 Co106 2.111 . S
O121 C131 1.274 1_455 S
O122 Co111 1.976 . S
O122 C131 1.251 . S
O123 Co110 2.264 . S
O123 Co111 2.327 . S
O123 C132 1.257 . S
O124 Co111 2.073 . S
O124 C132 1.245 . S
C125 O133 1.259 . S
C125 O134 1.289 . S
C126 O135 1.246 . S
C126 O136 1.257 . S
C127 O115 1.251 . S
C127 O116 1.274 . S
C128 O113 1.245 . S
C128 O114 1.257 . S
C129 O118 1.259 . S
C129 O119 1.289 . S
C130 O117 1.246 1_655 S
C130 O120 1.257 . S
C131 O121 1.274 1_655 S
C131 O122 1.251 . S
C132 O123 1.257 . S
C132 O124 1.245 . S
O133 Co104 2.286 . S
O133 C125 1.259 . S
O134 Co104 2.069 . S
O134 C125 1.289 . S
O135 Co106 2.143 . S
O135 C126 1.246 . S
O136 Co104 2.015 . S
O136 C126 1.257 . S
Co137 O140 2.042 . S
Co137 O147 2.264 . S
Co137 O166 2.286 . S
Co137 O167 2.069 . S
Co137 O169 2.015 . S
Co138 O140 2.122 . S
Co138 O146 2.073 . S
Co138 O147 2.327 . S
Co138 O148 1.976 . S
Co139 O140 2.087 1_545 S
Co139 O142 2.087 . S
Co139 O149 2.111 1_545 S
Co139 O150 2.143 . S
Co139 O154 2.111 . S
Co139 O168 2.143 1_545 S
O140 Co137 2.042 . S
O140 Co138 2.122 . S
O140 Co139 2.087 1_565 S
O140 H141 0.980 1_565 S
H141 O140 0.980 1_545 S
O142 Co139 2.087 . S
O142 Co143 2.042 . S
O142 Co144 2.122 . S
O142 H145 0.980 . S
Co143 O142 2.042 . S
Co143 O151 2.286 . S
Co143 O152 2.069 . S
Co143 O153 2.015 . S
Co143 O156 2.264 . S
Co144 O142 2.122 . S
Co144 O155 1.976 . S
Co144 O156 2.327 . S
Co144 O157 2.073 . S
H145 O142 0.980 . S
O146 Co138 2.073 . S
O146 C161 1.245 . S
O147 Co137 2.264 . S
O147 Co138 2.327 . S
O147 C161 1.257 . S
O148 Co138 1.976 . S
O148 C160 1.251 . S
O149 Co139 2.111 1_565 S
O149 C160 1.274 . S
O150 Co139 2.143 . S
O150 C163 1.246 . S
O151 Co143 2.286 . S
O151 C162 1.259 . S
O152 Co143 2.069 . S
O152 C162 1.289 . S
O153 Co143 2.015 . S
O153 C163 1.257 . S
O154 Co139 2.111 . S
O154 C164 1.274 . S
O155 Co144 1.976 . S
O155 C164 1.251 . S
O156 Co143 2.264 . S
O156 Co144 2.327 . S
O156 C165 1.257 . S
O157 Co144 2.073 . S
O157 C165 1.245 . S
C158 O166 1.259 . S
C158 O167 1.289 . S
C159 O168 1.246 . S
C159 O169 1.257 . S
C160 O148 1.251 . S
C160 O149 1.274 . S
C161 O146 1.245 . S
C161 O147 1.257 . S
C162 O151 1.259 . S
C162 O152 1.289 . S
C163 O150 1.246 . S
C163 O153 1.257 . S
C164 O154 1.274 . S
C164 O155 1.251 . S
C165 O156 1.257 . S
C165 O157 1.245 . S
O166 Co137 2.286 . S
O166 C158 1.259 . S
O167 Co137 2.069 . S
O167 C158 1.289 . S
O168 Co139 2.143 1_565 S
O168 C159 1.246 . S
O169 Co137 2.015 . S
O169 C159 1.257 . S
Co170 O173 2.042 . S
Co170 O180 2.264 . S
Co170 O199 2.286 . S
Co170 O200 2.069 . S
Co170 O202 2.015 . S
Co171 O173 2.122 . S
Co171 O179 2.073 . S
Co171 O180 2.327 . S
Co171 O181 1.976 . S
Co172 O173 2.087 . S
Co172 O175 2.087 1_554 S
Co172 O182 2.111 . S
Co172 O183 2.143 1_554 S
Co172 O187 2.111 1_554 S
Co172 O201 2.143 . S
O173 Co170 2.042 . S
O173 Co171 2.122 . S
O173 Co172 2.087 . S
O173 H174 0.980 . S
H174 O173 0.980 . S
O175 Co172 2.087 1_556 S
O175 Co176 2.042 . S
O175 Co177 2.122 . S
O175 H178 0.980 . S
Co176 O175 2.042 . S
Co176 O184 2.286 . S
Co176 O185 2.069 . S
Co176 O186 2.015 . S
Co176 O189 2.264 . S
Co177 O175 2.122 . S
Co177 O188 1.976 . S
Co177 O189 2.327 . S
Co177 O190 2.073 . S
H178 O175 0.980 . S
O179 Co171 2.073 . S
O179 C194 1.245 . S
O180 Co170 2.264 . S
O180 Co171 2.327 . S
O180 C194 1.257 . S
O181 Co171 1.976 . S
O181 C193 1.251 . S
O182 Co172 2.111 . S
O182 C193 1.274 . S
O183 Co172 2.143 1_556 S
O183 C196 1.246 . S
O184 Co176 2.286 . S
O184 C195 1.259 . S
O185 Co176 2.069 . S
O185 C195 1.289 . S
O186 Co176 2.015 . S
O186 C196 1.257 . S
O187 Co172 2.111 1_556 S
O187 C197 1.274 . S
O188 Co177 1.976 . S
O188 C197 1.251 . S
O189 Co176 2.264 . S
O189 Co177 2.327 . S
O189 C198 1.257 . S
O190 Co177 2.073 . S
O190 C198 1.245 . S
C191 O199 1.259 . S
C191 O200 1.289 . S
C192 O201 1.246 . S
C192 O202 1.257 . S
C193 O181 1.251 . S
C193 O182 1.274 . S
C194 O179 1.245 . S
C194 O180 1.257 . S
C195 O184 1.259 . S
C195 O185 1.289 . S
C196 O183 1.246 . S
C196 O186 1.257 . S
C197 O187 1.274 . S
C197 O188 1.251 . S
C198 O189 1.257 . S
C198 O190 1.245 . S
O199 Co170 2.286 . S
O199 C191 1.259 . S
O200 Co170 2.069 . S
O200 C191 1.289 . S
O201 Co172 2.143 . S
O201 C192 1.246 . S
O202 Co170 2.015 . S
O202 C192 1.257 . S
H203 C211 0.929 . S
H204 C213 0.930 . S
H205 C215 0.930 . S
H206 C218 0.929 . S
H207 C221 0.930 . S
H208 C223 0.960 . S
H209 C223 0.960 . S
H210 C223 0.960 . S
C211 H203 0.929 . S
C211 C212 1.377 . S
C211 C213 1.384 . S
C212 C211 1.377 . S
C212 C218 1.390 . S
C213 H204 0.930 . S
C213 C211 1.384 . S
C213 C214 1.372 . S
C214 C213 1.372 . S
C214 C215 1.400 . S
C214 C219 1.490 . S
C215 H205 0.930 . S
C215 C214 1.400 . S
C215 C218 1.386 . S
H216 C232 0.930 . S
H217 C233 0.931 . S
C218 H206 0.929 . S
C218 C212 1.390 . S
C218 C215 1.386 . S
C219 C214 1.490 . S
C219 C221 1.395 . S
C219 C222 1.403 . S
H220 C226 0.930 . S
C221 H207 0.930 . S
C221 C219 1.395 . S
C221 C224 1.403 . S
C222 C219 1.403 . S
C222 C223 1.524 . S
C222 C226 1.400 . S
C223 H208 0.960 . S
C223 H209 0.960 . S
C223 H210 0.960 . S
C223 C222 1.524 . S
C224 C221 1.403 . S
C224 C225 1.392 . S
C224 C228 1.495 . S
C225 C224 1.392 . S
C225 C226 1.385 . S
C225 C227 1.478 . S
C226 H220 0.930 . S
C226 C222 1.400 . S
C226 C225 1.385 . S
C227 C225 1.478 . S
C227 C229 1.381 . S
C227 C233 1.383 . S
C228 C224 1.495 . S
C228 H234 0.959 . S
C228 H235 0.961 . S
C228 H236 0.960 . S
C229 C227 1.381 . S
C229 C230 1.394 . S
C229 H237 0.930 . S
C230 C229 1.394 . S
C230 C231 1.383 . S
C230 H238 0.929 . S
C231 C230 1.383 . S
C231 C232 1.377 . S
C232 H216 0.930 . S
C232 C231 1.377 . S
C232 C233 1.379 . S
C233 H217 0.931 . S
C233 C227 1.383 . S
C233 C232 1.379 . S
H234 C228 0.959 . S
H235 C228 0.961 . S
H236 C228 0.960 . S
H237 C229 0.930 . S
H238 C230 0.929 . S
H239 C247 0.929 . S
H240 C249 0.930 . S
H241 C251 0.930 . S
H242 C254 0.929 . S
H243 C257 0.930 . S
H244 C259 0.960 . S
H245 C259 0.960 . S
H246 C259 0.960 . S
C247 H239 0.929 . S
C247 C248 1.377 . S
C247 C249 1.384 . S
C248 C247 1.377 . S
C248 C254 1.390 . S
C249 H240 0.930 . S
C249 C247 1.384 . S
C249 C250 1.372 . S
C250 C249 1.372 . S
C250 C251 1.400 . S
C250 C255 1.490 . S
C251 H241 0.930 . S
C251 C250 1.400 . S
C251 C254 1.386 . S
H252 C268 0.930 . S
H253 C269 0.931 . S
C254 H242 0.929 . S
C254 C248 1.390 . S
C254 C251 1.386 . S
C255 C250 1.490 . S
C255 C257 1.395 . S
C255 C258 1.403 . S
H256 C262 0.930 . S
C257 H243 0.930 . S
C257 C255 1.395 . S
C257 C260 1.403 . S
C258 C255 1.403 . S
C258 C259 1.524 . S
C258 C262 1.400 . S
C259 H244 0.960 . S
C259 H245 0.960 . S
C259 H246 0.960 . S
C259 C258 1.524 . S
C260 C257 1.403 . S
C260 C261 1.392 . S
C260 C264 1.495 . S
C261 C260 1.392 . S
C261 C262 1.385 . S
C261 C263 1.478 . S
C262 H256 0.930 . S
C262 C258 1.400 . S
C262 C261 1.385 . S
C263 C261 1.478 . S
C263 C265 1.381 . S
C263 C269 1.383 . S
C264 C260 1.495 . S
C264 H270 0.959 . S
C264 H271 0.961 . S
C264 H272 0.960 . S
C265 C263 1.381 . S
C265 C266 1.394 . S
C265 H273 0.930 . S
C266 C265 1.394 . S
C266 C267 1.383 . S
C266 H274 0.929 . S
C267 C266 1.383 . S
C267 C268 1.377 . S
C268 H252 0.930 . S
C268 C267 1.377 . S
C268 C269 1.379 . S
C269 H253 0.931 . S
C269 C263 1.383 . S
C269 C268 1.379 . S
H270 C264 0.959 . S
H271 C264 0.961 . S
H272 C264 0.960 . S
H273 C265 0.930 . S
H274 C266 0.929 . S
H275 C283 0.929 . S
H276 C285 0.930 . S
H277 C287 0.930 . S
H278 C290 0.929 . S
H279 C293 0.930 . S
H280 C295 0.960 . S
H281 C295 0.960 . S
H282 C295 0.960 . S
C283 H275 0.929 . S
C283 C284 1.377 . S
C283 C285 1.384 . S
C284 C283 1.377 . S
C284 C290 1.390 . S
C285 H276 0.930 . S
C285 C283 1.384 . S
C285 C286 1.372 . S
C286 C285 1.372 . S
C286 C287 1.400 . S
C286 C291 1.490 . S
C287 H277 0.930 . S
C287 C286 1.400 . S
C287 C290 1.386 . S
H288 C304 0.930 . S
H289 C305 0.931 . S
C290 H278 0.929 . S
C290 C284 1.390 . S
C290 C287 1.386 . S
C291 C286 1.490 . S
C291 C293 1.395 . S
C291 C294 1.403 . S
H292 C298 0.930 . S
C293 H279 0.930 . S
C293 C291 1.395 . S
C293 C296 1.403 . S
C294 C291 1.403 . S
C294 C295 1.524 . S
C294 C298 1.400 . S
C295 H280 0.960 . S
C295 H281 0.960 . S
C295 H282 0.960 . S
C295 C294 1.524 . S
C296 C293 1.403 . S
C296 C297 1.392 . S
C296 C300 1.495 . S
C297 C296 1.392 . S
C297 C298 1.385 . S
C297 C299 1.478 . S
C298 H292 0.930 . S
C298 C294 1.400 . S
C298 C297 1.385 . S
C299 C297 1.478 . S
C299 C301 1.381 . S
C299 C305 1.383 . S
C300 C296 1.495 . S
C300 H306 0.959 . S
C300 H307 0.961 . S
C300 H308 0.960 . S
C301 C299 1.381 . S
C301 C302 1.394 . S
C301 H309 0.930 . S
C302 C301 1.394 . S
C302 C303 1.383 . S
C302 H310 0.929 . S
C303 C302 1.383 . S
C303 C304 1.377 . S
C304 H288 0.930 . S
C304 C303 1.377 . S
C304 C305 1.379 . S
C305 H289 0.931 . S
C305 C299 1.383 . S
C305 C304 1.379 . S
H306 C300 0.959 . S
H307 C300 0.961 . S
H308 C300 0.960 . S
H309 C301 0.930 . S
H310 C302 0.929 . S
H311 C319 0.929 . S
H312 C321 0.930 . S
H313 C323 0.930 . S
H314 C326 0.929 . S
H315 C329 0.930 . S
H316 C331 0.960 . S
H317 C331 0.960 . S
H318 C331 0.960 . S
C319 H311 0.929 . S
C319 C320 1.377 . S
C319 C321 1.384 . S
C320 C319 1.377 . S
C320 C326 1.390 . S
C321 H312 0.930 . S
C321 C319 1.384 . S
C321 C322 1.372 . S
C322 C321 1.372 . S
C322 C323 1.400 . S
C322 C327 1.490 . S
C323 H313 0.930 . S
C323 C322 1.400 . S
C323 C326 1.386 . S
H324 C340 0.930 . S
H325 C341 0.931 . S
C326 H314 0.929 . S
C326 C320 1.390 . S
C326 C323 1.386 . S
C327 C322 1.490 . S
C327 C329 1.395 . S
C327 C330 1.403 . S
H328 C334 0.930 . S
C329 H315 0.930 . S
C329 C327 1.395 . S
C329 C332 1.403 . S
C330 C327 1.403 . S
C330 C331 1.524 . S
C330 C334 1.400 . S
C331 H316 0.960 . S
C331 H317 0.960 . S
C331 H318 0.960 . S
C331 C330 1.524 . S
C332 C329 1.403 . S
C332 C333 1.392 . S
C332 C336 1.495 . S
C333 C332 1.392 . S
C333 C334 1.385 . S
C333 C335 1.478 . S
C334 H328 0.930 . S
C334 C330 1.400 . S
C334 C333 1.385 . S
C335 C333 1.478 . S
C335 C337 1.381 . S
C335 C341 1.383 . S
C336 C332 1.495 . S
C336 H342 0.959 . S
C336 H343 0.961 . S
C336 H344 0.960 . S
C337 C335 1.381 . S
C337 C338 1.394 . S
C337 H345 0.930 . S
C338 C337 1.394 . S
C338 C339 1.383 . S
C338 H346 0.929 . S
C339 C338 1.383 . S
C339 C340 1.377 . S
C340 H324 0.930 . S
C340 C339 1.377 . S
C340 C341 1.379 . S
C341 H325 0.931 . S
C341 C335 1.383 . S
C341 C340 1.379 . S
H342 C336 0.959 . S
H343 C336 0.961 . S
H344 C336 0.960 . S
H345 C337 0.930 . S
H346 C338 0.929 . S
H347 C355 0.929 . S
H348 C357 0.930 . S
H349 C359 0.930 . S
H350 C362 0.929 . S
H351 C365 0.930 . S
H352 C367 0.960 . S
H353 C367 0.960 . S
H354 C367 0.960 . S
C355 H347 0.929 . S
C355 C356 1.377 . S
C355 C357 1.384 . S
C356 C355 1.377 . S
C356 C362 1.390 . S
C357 H348 0.930 . S
C357 C355 1.384 . S
C357 C358 1.372 . S
C358 C357 1.372 . S
C358 C359 1.400 . S
C358 C363 1.490 . S
C359 H349 0.930 . S
C359 C358 1.400 . S
C359 C362 1.386 . S
H360 C376 0.930 . S
H361 C377 0.931 . S
C362 H350 0.929 . S
C362 C356 1.390 . S
C362 C359 1.386 . S
C363 C358 1.490 . S
C363 C365 1.395 . S
C363 C366 1.403 . S
H364 C370 0.930 . S
C365 H351 0.930 . S
C365 C363 1.395 . S
C365 C368 1.403 . S
C366 C363 1.403 . S
C366 C367 1.524 . S
C366 C370 1.400 . S
C367 H352 0.960 . S
C367 H353 0.960 . S
C367 H354 0.960 . S
C367 C366 1.524 . S
C368 C365 1.403 . S
C368 C369 1.392 . S
C368 C372 1.495 . S
C369 C368 1.392 . S
C369 C370 1.385 . S
C369 C371 1.478 . S
C370 H364 0.930 . S
C370 C366 1.400 . S
C370 C369 1.385 . S
C371 C369 1.478 . S
C371 C373 1.381 . S
C371 C377 1.383 . S
C372 C368 1.495 . S
C372 H378 0.959 . S
C372 H379 0.961 . S
C372 H380 0.960 . S
C373 C371 1.381 . S
C373 C374 1.394 . S
C373 H381 0.930 . S
C374 C373 1.394 . S
C374 C375 1.383 . S
C374 H382 0.929 . S
C375 C374 1.383 . S
C375 C376 1.377 . S
C376 H360 0.930 . S
C376 C375 1.377 . S
C376 C377 1.379 . S
C377 H361 0.931 . S
C377 C371 1.383 . S
C377 C376 1.379 . S
H378 C372 0.959 . S
H379 C372 0.961 . S
H380 C372 0.960 . S
H381 C373 0.930 . S
H382 C374 0.929 . S
H383 C391 0.929 . S
H384 C393 0.930 . S
H385 C395 0.930 . S
H386 C398 0.929 . S
H387 C401 0.930 . S
H388 C403 0.960 . S
H389 C403 0.960 . S
H390 C403 0.960 . S
C391 H383 0.929 . S
C391 C392 1.377 . S
C391 C393 1.384 . S
C392 C391 1.377 . S
C392 C398 1.390 . S
C393 H384 0.930 . S
C393 C391 1.384 . S
C393 C394 1.372 . S
C394 C393 1.372 . S
C394 C395 1.400 . S
C394 C399 1.490 . S
C395 H385 0.930 . S
C395 C394 1.400 . S
C395 C398 1.386 . S
H396 C412 0.930 . S
H397 C413 0.931 . S
C398 H386 0.929 . S
C398 C392 1.390 . S
C398 C395 1.386 . S
C399 C394 1.490 . S
C399 C401 1.395 . S
C399 C402 1.403 . S
H400 C406 0.930 . S
C401 H387 0.930 . S
C401 C399 1.395 . S
C401 C404 1.403 . S
C402 C399 1.403 . S
C402 C403 1.524 . S
C402 C406 1.400 . S
C403 H388 0.960 . S
C403 H389 0.960 . S
C403 H390 0.960 . S
C403 C402 1.524 . S
C404 C401 1.403 . S
C404 C405 1.392 . S
C404 C408 1.495 . S
C405 C404 1.392 . S
C405 C406 1.385 . S
C405 C407 1.478 . S
C406 H400 0.930 . S
C406 C402 1.400 . S
C406 C405 1.385 . S
C407 C405 1.478 . S
C407 C409 1.381 . S
C407 C413 1.383 . S
C408 C404 1.495 . S
C408 H414 0.959 . S
C408 H415 0.961 . S
C408 H416 0.960 . S
C409 C407 1.381 . S
C409 C410 1.394 . S
C409 H417 0.930 . S
C410 C409 1.394 . S
C410 C411 1.383 . S
C410 H418 0.929 . S
C411 C410 1.383 . S
C411 C412 1.377 . S
C412 H396 0.930 . S
C412 C411 1.377 . S
C412 C413 1.379 . S
C413 H397 0.931 . S
C413 C407 1.383 . S
C413 C412 1.379 . S
H414 C408 0.959 . S
H415 C408 0.961 . S
H416 C408 0.960 . S
H417 C409 0.930 . S
H418 C410 0.929 . S
H419 C427 0.929 . S
H420 C429 0.930 . S
H421 C431 0.930 . S
H422 C434 0.929 . S
H423 C437 0.930 . S
H424 C439 0.960 . S
H425 C439 0.960 . S
H426 C439 0.960 . S
C427 H419 0.929 . S
C427 C428 1.377 . S
C427 C429 1.384 . S
C428 C427 1.377 . S
C428 C434 1.390 . S
C429 H420 0.930 . S
C429 C427 1.384 . S
C429 C430 1.372 . S
C430 C429 1.372 . S
C430 C431 1.400 . S
C430 C435 1.490 . S
C431 H421 0.930 . S
C431 C430 1.400 . S
C431 C434 1.386 . S
H432 C448 0.930 . S
H433 C449 0.931 . S
C434 H422 0.929 . S
C434 C428 1.390 . S
C434 C431 1.386 . S
C435 C430 1.490 . S
C435 C437 1.395 . S
C435 C438 1.403 . S
H436 C442 0.930 . S
C437 H423 0.930 . S
C437 C435 1.395 . S
C437 C440 1.403 . S
C438 C435 1.403 . S
C438 C439 1.524 . S
C438 C442 1.400 . S
C439 H424 0.960 . S
C439 H425 0.960 . S
C439 H426 0.960 . S
C439 C438 1.524 . S
C440 C437 1.403 . S
C440 C441 1.392 . S
C440 C444 1.495 . S
C441 C440 1.392 . S
C441 C442 1.385 . S
C441 C443 1.478 . S
C442 H436 0.930 . S
C442 C438 1.400 . S
C442 C441 1.385 . S
C443 C441 1.478 . S
C443 C445 1.381 . S
C443 C449 1.383 . S
C444 C440 1.495 . S
C444 H450 0.959 . S
C444 H451 0.961 . S
C444 H452 0.960 . S
C445 C443 1.381 . S
C445 C446 1.394 . S
C445 H453 0.930 . S
C446 C445 1.394 . S
C446 C447 1.383 . S
C446 H454 0.929 . S
C447 C446 1.383 . S
C447 C448 1.377 . S
C448 H432 0.930 . S
C448 C447 1.377 . S
C448 C449 1.379 . S
C449 H433 0.931 . S
C449 C443 1.383 . S
C449 C448 1.379 . S
H450 C444 0.959 . S
H451 C444 0.961 . S
H452 C444 0.960 . S
H453 C445 0.930 . S
H454 C446 0.929 . S
H455 C463 0.929 . S
H456 C465 0.930 . S
H457 C467 0.930 . S
H458 C470 0.929 . S
H459 C473 0.930 . S
H460 C475 0.960 . S
H461 C475 0.960 . S
H462 C475 0.960 . S
C463 H455 0.929 . S
C463 C464 1.377 . S
C463 C465 1.384 . S
C464 C463 1.377 . S
C464 C470 1.390 . S
C465 H456 0.930 . S
C465 C463 1.384 . S
C465 C466 1.372 . S
C466 C465 1.372 . S
C466 C467 1.400 . S
C466 C471 1.490 . S
C467 H457 0.930 . S
C467 C466 1.400 . S
C467 C470 1.386 . S
H468 C484 0.930 . S
H469 C485 0.931 . S
C470 H458 0.929 . S
C470 C464 1.390 . S
C470 C467 1.386 . S
C471 C466 1.490 . S
C471 C473 1.395 . S
C471 C474 1.403 . S
H472 C478 0.930 . S
C473 H459 0.930 . S
C473 C471 1.395 . S
C473 C476 1.403 . S
C474 C471 1.403 . S
C474 C475 1.524 . S
C474 C478 1.400 . S
C475 H460 0.960 . S
C475 H461 0.960 . S
C475 H462 0.960 . S
C475 C474 1.524 . S
C476 C473 1.403 . S
C476 C477 1.392 . S
C476 C480 1.495 . S
C477 C476 1.392 . S
C477 C478 1.385 . S
C477 C479 1.478 . S
C478 H472 0.930 . S
C478 C474 1.400 . S
C478 C477 1.385 . S
C479 C477 1.478 . S
C479 C481 1.381 . S
C479 C485 1.383 . S
C480 C476 1.495 . S
C480 H486 0.959 . S
C480 H487 0.961 . S
C480 H488 0.960 . S
C481 C479 1.381 . S
C481 C482 1.394 . S
C481 H489 0.930 . S
C482 C481 1.394 . S
C482 C483 1.383 . S
C482 H490 0.929 . S
C483 C482 1.383 . S
C483 C484 1.377 . S
C484 H468 0.930 . S
C484 C483 1.377 . S
C484 C485 1.379 . S
C485 H469 0.931 . S
C485 C479 1.383 . S
C485 C484 1.379 . S
H486 C480 0.959 . S
H487 C480 0.961 . S
H488 C480 0.960 . S
H489 C481 0.930 . S
H490 C482 0.929 . S
H491 C499 0.929 . S
H492 C501 0.930 . S
H493 C503 0.930 . S
H494 C506 0.929 . S
H495 C509 0.930 . S
H496 C511 0.960 . S
H497 C511 0.960 . S
H498 C511 0.960 . S
C499 H491 0.929 . S
C499 C500 1.377 . S
C499 C501 1.384 . S
C500 C499 1.377 . S
C500 C506 1.390 . S
C501 H492 0.930 . S
C501 C499 1.384 . S
C501 C502 1.372 . S
C502 C501 1.372 . S
C502 C503 1.400 . S
C502 C507 1.490 . S
C503 H493 0.930 . S
C503 C502 1.400 . S
C503 C506 1.386 . S
H504 C520 0.930 . S
H505 C521 0.931 . S
C506 H494 0.929 . S
C506 C500 1.390 . S
C506 C503 1.386 . S
C507 C502 1.490 . S
C507 C509 1.395 . S
C507 C510 1.403 . S
H508 C514 0.930 . S
C509 H495 0.930 . S
C509 C507 1.395 . S
C509 C512 1.403 . S
C510 C507 1.403 . S
C510 C511 1.524 . S
C510 C514 1.400 . S
C511 H496 0.960 . S
C511 H497 0.960 . S
C511 H498 0.960 . S
C511 C510 1.524 . S
C512 C509 1.403 . S
C512 C513 1.392 . S
C512 C516 1.495 . S
C513 C512 1.392 . S
C513 C514 1.385 . S
C513 C515 1.478 . S
C514 H508 0.930 . S
C514 C510 1.400 . S
C514 C513 1.385 . S
C515 C513 1.478 . S
C515 C517 1.381 . S
C515 C521 1.383 . S
C516 C512 1.495 . S
C516 H522 0.959 . S
C516 H523 0.961 . S
C516 H524 0.960 . S
C517 C515 1.381 . S
C517 C518 1.394 . S
C517 H525 0.930 . S
C518 C517 1.394 . S
C518 C519 1.383 . S
C518 H526 0.929 . S
C519 C518 1.383 . S
C519 C520 1.377 . S
C520 H504 0.930 . S
C520 C519 1.377 . S
C520 C521 1.379 . S
C521 H505 0.931 . S
C521 C515 1.383 . S
C521 C520 1.379 . S
H522 C516 0.959 . S
H523 C516 0.961 . S
H524 C516 0.960 . S
H525 C517 0.930 . S
H526 C518 0.929 . S
H527 C535 0.929 . S
H528 C537 0.930 . S
H529 C539 0.930 . S
H530 C542 0.929 . S
H531 C545 0.930 . S
H532 C547 0.960 . S
H533 C547 0.960 . S
H534 C547 0.960 . S
C535 H527 0.929 . S
C535 C536 1.377 . S
C535 C537 1.384 . S
C536 C535 1.377 . S
C536 C542 1.390 . S
C537 H528 0.930 . S
C537 C535 1.384 . S
C537 C538 1.372 . S
C538 C537 1.372 . S
C538 C539 1.400 . S
C538 C543 1.490 . S
C539 H529 0.930 . S
C539 C538 1.400 . S
C539 C542 1.386 . S
H540 C556 0.930 . S
H541 C557 0.931 . S
C542 H530 0.929 . S
C542 C536 1.390 . S
C542 C539 1.386 . S
C543 C538 1.490 . S
C543 C545 1.395 . S
C543 C546 1.403 . S
H544 C550 0.930 . S
C545 H531 0.930 . S
C545 C543 1.395 . S
C545 C548 1.403 . S
C546 C543 1.403 . S
C546 C547 1.524 . S
C546 C550 1.400 . S
C547 H532 0.960 . S
C547 H533 0.960 . S
C547 H534 0.960 . S
C547 C546 1.524 . S
C548 C545 1.403 . S
C548 C549 1.392 . S
C548 C552 1.495 . S
C549 C548 1.392 . S
C549 C550 1.385 . S
C549 C551 1.478 . S
C550 H544 0.930 . S
C550 C546 1.400 . S
C550 C549 1.385 . S
C551 C549 1.478 . S
C551 C553 1.381 . S
C551 C557 1.383 . S
C552 C548 1.495 . S
C552 H558 0.959 . S
C552 H559 0.961 . S
C552 H560 0.960 . S
C553 C551 1.381 . S
C553 C554 1.394 . S
C553 H561 0.930 . S
C554 C553 1.394 . S
C554 C555 1.383 . S
C554 H562 0.929 . S
C555 C554 1.383 . S
C555 C556 1.377 . S
C556 H540 0.930 . S
C556 C555 1.377 . S
C556 C557 1.379 . S
C557 H541 0.931 . S
C557 C551 1.383 . S
C557 C556 1.379 . S
H558 C552 0.959 . S
H559 C552 0.961 . S
H560 C552 0.960 . S
H561 C553 0.930 . S
H562 C554 0.929 . S
H563 C571 0.929 . S
H564 C573 0.930 . S
H565 C575 0.930 . S
H566 C578 0.929 . S
H567 C581 0.930 . S
H568 C583 0.960 . S
H569 C583 0.960 . S
H570 C583 0.960 . S
C571 H563 0.929 . S
C571 C572 1.377 . S
C571 C573 1.384 . S
C572 C571 1.377 . S
C572 C578 1.390 . S
C573 H564 0.930 . S
C573 C571 1.384 . S
C573 C574 1.372 . S
C574 C573 1.372 . S
C574 C575 1.400 . S
C574 C579 1.490 . S
C575 H565 0.930 . S
C575 C574 1.400 . S
C575 C578 1.386 . S
H576 C592 0.930 . S
H577 C593 0.931 . S
C578 H566 0.929 . S
C578 C572 1.390 . S
C578 C575 1.386 . S
C579 C574 1.490 . S
C579 C581 1.395 . S
C579 C582 1.403 . S
H580 C586 0.930 . S
C581 H567 0.930 . S
C581 C579 1.395 . S
C581 C584 1.403 . S
C582 C579 1.403 . S
C582 C583 1.524 . S
C582 C586 1.400 . S
C583 H568 0.960 . S
C583 H569 0.960 . S
C583 H570 0.960 . S
C583 C582 1.524 . S
C584 C581 1.403 . S
C584 C585 1.392 . S
C584 C588 1.495 . S
C585 C584 1.392 . S
C585 C586 1.385 . S
C585 C587 1.478 . S
C586 H580 0.930 . S
C586 C582 1.400 . S
C586 C585 1.385 . S
C587 C585 1.478 . S
C587 C589 1.381 . S
C587 C593 1.383 . S
C588 C584 1.495 . S
C588 H594 0.959 . S
C588 H595 0.961 . S
C588 H596 0.960 . S
C589 C587 1.381 . S
C589 C590 1.394 . S
C589 H597 0.930 . S
C590 C589 1.394 . S
C590 C591 1.383 . S
C590 H598 0.929 . S
C591 C590 1.383 . S
C591 C592 1.377 . S
C592 H576 0.930 . S
C592 C591 1.377 . S
C592 C593 1.379 . S
C593 H577 0.931 . S
C593 C587 1.383 . S
C593 C592 1.379 . S
H594 C588 0.959 . S
H595 C588 0.961 . S
H596 C588 0.960 . S
H597 C589 0.930 . S
H598 C590 0.929 . S
H599 C607 0.929 . S
H600 C609 0.930 . S
H601 C611 0.930 . S
H602 C614 0.929 . S
H603 C617 0.930 . S
H604 C619 0.960 . S
H605 C619 0.960 . S
H606 C619 0.960 . S
C607 H599 0.929 . S
C607 C608 1.377 . S
C607 C609 1.384 . S
C608 C607 1.377 . S
C608 C614 1.390 . S
C609 H600 0.930 . S
C609 C607 1.384 . S
C609 C610 1.372 . S
C610 C609 1.372 . S
C610 C611 1.400 . S
C610 C615 1.490 . S
C611 H601 0.930 . S
C611 C610 1.400 . S
C611 C614 1.386 . S
H612 C628 0.930 . S
H613 C629 0.931 . S
C614 H602 0.929 . S
C614 C608 1.390 . S
C614 C611 1.386 . S
C615 C610 1.490 . S
C615 C617 1.395 . S
C615 C618 1.403 . S
H616 C622 0.930 . S
C617 H603 0.930 . S
C617 C615 1.395 . S
C617 C620 1.403 . S
C618 C615 1.403 . S
C618 C619 1.524 . S
C618 C622 1.400 . S
C619 H604 0.960 . S
C619 H605 0.960 . S
C619 H606 0.960 . S
C619 C618 1.524 . S
C620 C617 1.403 . S
C620 C621 1.392 . S
C620 C624 1.495 . S
C621 C620 1.392 . S
C621 C622 1.385 . S
C621 C623 1.478 . S
C622 H616 0.930 . S
C622 C618 1.400 . S
C622 C621 1.385 . S
C623 C621 1.478 . S
C623 C625 1.381 . S
C623 C629 1.383 . S
C624 C620 1.495 . S
C624 H630 0.959 . S
C624 H631 0.961 . S
C624 H632 0.960 . S
C625 C623 1.381 . S
C625 C626 1.394 . S
C625 H633 0.930 . S
C626 C625 1.394 . S
C626 C627 1.383 . S
C626 H634 0.929 . S
C627 C626 1.383 . S
C627 C628 1.377 . S
C628 H612 0.930 . S
C628 C627 1.377 . S
C628 C629 1.379 . S
C629 H613 0.931 . S
C629 C623 1.383 . S
C629 C628 1.379 . S
H630 C624 0.959 . S
H631 C624 0.961 . S
H632 C624 0.960 . S
H633 C625 0.930 . S
H634 C626 0.929 . S
H635 C643 0.929 . S
H636 C645 0.930 . S
H637 C647 0.930 . S
H638 C650 0.929 . S
H639 C653 0.930 . S
H640 C655 0.960 . S
H641 C655 0.960 . S
H642 C655 0.960 . S
C643 H635 0.929 . S
C643 C644 1.377 . S
C643 C645 1.384 . S
C644 C643 1.377 . S
C644 C650 1.390 . S
C645 H636 0.930 . S
C645 C643 1.384 . S
C645 C646 1.372 . S
C646 C645 1.372 . S
C646 C647 1.400 . S
C646 C651 1.490 . S
C647 H637 0.930 . S
C647 C646 1.400 . S
C647 C650 1.386 . S
H648 C664 0.930 . S
H649 C665 0.931 . S
C650 H638 0.929 . S
C650 C644 1.390 . S
C650 C647 1.386 . S
C651 C646 1.490 . S
C651 C653 1.395 . S
C651 C654 1.403 . S
H652 C658 0.930 . S
C653 H639 0.930 . S
C653 C651 1.395 . S
C653 C656 1.403 . S
C654 C651 1.403 . S
C654 C655 1.524 . S
C654 C658 1.400 . S
C655 H640 0.960 . S
C655 H641 0.960 . S
C655 H642 0.960 . S
C655 C654 1.524 . S
C656 C653 1.403 . S
C656 C657 1.392 . S
C656 C660 1.495 . S
C657 C656 1.392 . S
C657 C658 1.385 . S
C657 C659 1.478 . S
C658 H652 0.930 . S
C658 C654 1.400 . S
C658 C657 1.385 . S
C659 C657 1.478 . S
C659 C661 1.381 . S
C659 C665 1.383 . S
C660 C656 1.495 . S
C660 H666 0.959 . S
C660 H667 0.961 . S
C660 H668 0.960 . S
C661 C659 1.381 . S
C661 C662 1.394 . S
C661 H669 0.930 . S
C662 C661 1.394 . S
C662 C663 1.383 . S
C662 H670 0.929 . S
C663 C662 1.383 . S
C663 C664 1.377 . S
C664 H648 0.930 . S
C664 C663 1.377 . S
C664 C665 1.379 . S
C665 H649 0.931 . S
C665 C659 1.383 . S
C665 C664 1.379 . S
H666 C660 0.959 . S
H667 C660 0.961 . S
H668 C660 0.960 . S
H669 C661 0.930 . S
H670 C662 0.929 . S
H671 C679 0.929 . S
H672 C681 0.930 . S
H673 C683 0.930 . S
H674 C686 0.929 . S
H675 C689 0.930 . S
H676 C691 0.960 . S
H677 C691 0.960 . S
H678 C691 0.960 . S
C679 H671 0.929 . S
C679 C680 1.377 . S
C679 C681 1.384 . S
C680 C679 1.377 . S
C680 C686 1.390 . S
C681 H672 0.930 . S
C681 C679 1.384 . S
C681 C682 1.372 . S
C682 C681 1.372 . S
C682 C683 1.400 . S
C682 C687 1.490 . S
C683 H673 0.930 . S
C683 C682 1.400 . S
C683 C686 1.386 . S
H684 C700 0.930 . S
H685 C701 0.931 . S
C686 H674 0.929 . S
C686 C680 1.390 . S
C686 C683 1.386 . S
C687 C682 1.490 . S
C687 C689 1.395 . S
C687 C690 1.403 . S
H688 C694 0.930 . S
C689 H675 0.930 . S
C689 C687 1.395 . S
C689 C692 1.403 . S
C690 C687 1.403 . S
C690 C691 1.524 . S
C690 C694 1.400 . S
C691 H676 0.960 . S
C691 H677 0.960 . S
C691 H678 0.960 . S
C691 C690 1.524 . S
C692 C689 1.403 . S
C692 C693 1.392 . S
C692 C696 1.495 . S
C693 C692 1.392 . S
C693 C694 1.385 . S
C693 C695 1.478 . S
C694 H688 0.930 . S
C694 C690 1.400 . S
C694 C693 1.385 . S
C695 C693 1.478 . S
C695 C697 1.381 . S
C695 C701 1.383 . S
C696 C692 1.495 . S
C696 H702 0.959 . S
C696 H703 0.961 . S
C696 H704 0.960 . S
C697 C695 1.381 . S
C697 C698 1.394 . S
C697 H705 0.930 . S
C698 C697 1.394 . S
C698 C699 1.383 . S
C698 H706 0.929 . S
C699 C698 1.383 . S
C699 C700 1.377 . S
C700 H684 0.930 . S
C700 C699 1.377 . S
C700 C701 1.379 . S
C701 H685 0.931 . S
C701 C695 1.383 . S
C701 C700 1.379 . S
H702 C696 0.959 . S
H703 C696 0.961 . S
H704 C696 0.960 . S
H705 C697 0.930 . S
H706 C698 0.929 . S
H707 C715 0.929 . S
H708 C717 0.930 . S
H709 C719 0.930 . S
H710 C722 0.929 . S
H711 C725 0.930 . S
H712 C727 0.960 . S
H713 C727 0.960 . S
H714 C727 0.960 . S
C715 H707 0.929 . S
C715 C716 1.377 . S
C715 C717 1.384 . S
C716 C715 1.377 . S
C716 C722 1.390 . S
C717 H708 0.930 . S
C717 C715 1.384 . S
C717 C718 1.372 . S
C718 C717 1.372 . S
C718 C719 1.400 . S
C718 C723 1.490 . S
C719 H709 0.930 . S
C719 C718 1.400 . S
C719 C722 1.386 . S
H720 C736 0.930 . S
H721 C737 0.931 . S
C722 H710 0.929 . S
C722 C716 1.390 . S
C722 C719 1.386 . S
C723 C718 1.490 . S
C723 C725 1.395 . S
C723 C726 1.403 . S
H724 C730 0.930 . S
C725 H711 0.930 . S
C725 C723 1.395 . S
C725 C728 1.403 . S
C726 C723 1.403 . S
C726 C727 1.524 . S
C726 C730 1.400 . S
C727 H712 0.960 . S
C727 H713 0.960 . S
C727 H714 0.960 . S
C727 C726 1.524 . S
C728 C725 1.403 . S
C728 C729 1.392 . S
C728 C732 1.495 . S
C729 C728 1.392 . S
C729 C730 1.385 . S
C729 C731 1.478 . S
C730 H724 0.930 . S
C730 C726 1.400 . S
C730 C729 1.385 . S
C731 C729 1.478 . S
C731 C733 1.381 . S
C731 C737 1.383 . S
C732 C728 1.495 . S
C732 H738 0.959 . S
C732 H739 0.961 . S
C732 H740 0.960 . S
C733 C731 1.381 . S
C733 C734 1.394 . S
C733 H741 0.930 . S
C734 C733 1.394 . S
C734 C735 1.383 . S
C734 H742 0.929 . S
C735 C734 1.383 . S
C735 C736 1.377 . S
C736 H720 0.930 . S
C736 C735 1.377 . S
C736 C737 1.379 . S
C737 H721 0.931 . S
C737 C731 1.383 . S
C737 C736 1.379 . S
H738 C732 0.959 . S
H739 C732 0.961 . S
H740 C732 0.960 . S
H741 C733 0.930 . S
H742 C734 0.929 . S
H743 C751 0.929 . S
H744 C753 0.930 . S
H745 C755 0.930 . S
H746 C758 0.929 . S
H747 C761 0.930 . S
H748 C763 0.960 . S
H749 C763 0.960 . S
H750 C763 0.960 . S
C751 H743 0.929 . S
C751 C752 1.377 . S
C751 C753 1.384 . S
C752 C751 1.377 . S
C752 C758 1.390 . S
C753 H744 0.930 . S
C753 C751 1.384 . S
C753 C754 1.372 . S
C754 C753 1.372 . S
C754 C755 1.400 . S
C754 C759 1.490 . S
C755 H745 0.930 . S
C755 C754 1.400 . S
C755 C758 1.386 . S
H756 C772 0.930 . S
H757 C773 0.931 . S
C758 H746 0.929 . S
C758 C752 1.390 . S
C758 C755 1.386 . S
C759 C754 1.490 . S
C759 C761 1.395 . S
C759 C762 1.403 . S
H760 C766 0.930 . S
C761 H747 0.930 . S
C761 C759 1.395 . S
C761 C764 1.403 . S
C762 C759 1.403 . S
C762 C763 1.524 . S
C762 C766 1.400 . S
C763 H748 0.960 . S
C763 H749 0.960 . S
C763 H750 0.960 . S
C763 C762 1.524 . S
C764 C761 1.403 . S
C764 C765 1.392 . S
C764 C768 1.495 . S
C765 C764 1.392 . S
C765 C766 1.385 . S
C765 C767 1.478 . S
C766 H760 0.930 . S
C766 C762 1.400 . S
C766 C765 1.385 . S
C767 C765 1.478 . S
C767 C769 1.381 . S
C767 C773 1.383 . S
C768 C764 1.495 . S
C768 H774 0.959 . S
C768 H775 0.961 . S
C768 H776 0.960 . S
C769 C767 1.381 . S
C769 C770 1.394 . S
C769 H777 0.930 . S
C770 C769 1.394 . S
C770 C771 1.383 . S
C770 H778 0.929 . S
C771 C770 1.383 . S
C771 C772 1.377 . S
C772 H756 0.930 . S
C772 C771 1.377 . S
C772 C773 1.379 . S
C773 H757 0.931 . S
C773 C767 1.383 . S
C773 C772 1.379 . S
H774 C768 0.959 . S
H775 C768 0.961 . S
H776 C768 0.960 . S
H777 C769 0.930 . S
H778 C770 0.929 . S
H779 C787 0.929 . S
H780 C789 0.930 . S
H781 C791 0.930 . S
H782 C794 0.929 . S
H783 C797 0.930 . S
H784 C799 0.960 . S
H785 C799 0.960 . S
H786 C799 0.960 . S
C787 H779 0.929 . S
C787 C788 1.377 . S
C787 C789 1.384 . S
C788 C787 1.377 . S
C788 C794 1.390 . S
C789 H780 0.930 . S
C789 C787 1.384 . S
C789 C790 1.372 . S
C790 C789 1.372 . S
C790 C791 1.400 . S
C790 C795 1.490 . S
C791 H781 0.930 . S
C791 C790 1.400 . S
C791 C794 1.386 . S
H792 C808 0.930 . S
H793 C809 0.931 . S
C794 H782 0.929 . S
C794 C788 1.390 . S
C794 C791 1.386 . S
C795 C790 1.490 . S
C795 C797 1.395 . S
C795 C798 1.403 . S
H796 C802 0.930 . S
C797 H783 0.930 . S
C797 C795 1.395 . S
C797 C800 1.403 . S
C798 C795 1.403 . S
C798 C799 1.524 . S
C798 C802 1.400 . S
C799 H784 0.960 . S
C799 H785 0.960 . S
C799 H786 0.960 . S
C799 C798 1.524 . S
C800 C797 1.403 . S
C800 C801 1.392 . S
C800 C804 1.495 . S
C801 C800 1.392 . S
C801 C802 1.385 . S
C801 C803 1.478 . S
C802 H796 0.930 . S
C802 C798 1.400 . S
C802 C801 1.385 . S
C803 C801 1.478 . S
C803 C805 1.381 . S
C803 C809 1.383 . S
C804 C800 1.495 . S
C804 H810 0.959 . S
C804 H811 0.961 . S
C804 H812 0.960 . S
C805 C803 1.381 . S
C805 C806 1.394 . S
C805 H813 0.930 . S
C806 C805 1.394 . S
C806 C807 1.383 . S
C806 H814 0.929 . S
C807 C806 1.383 . S
C807 C808 1.377 . S
C808 H792 0.930 . S
C808 C807 1.377 . S
C808 C809 1.379 . S
C809 H793 0.931 . S
C809 C803 1.383 . S
C809 C808 1.379 . S
H810 C804 0.959 . S
H811 C804 0.961 . S
H812 C804 0.960 . S
H813 C805 0.930 . S
H814 C806 0.929 . S
H815 C823 0.929 . S
H816 C825 0.930 . S
H817 C827 0.930 . S
H818 C830 0.929 . S
H819 C833 0.930 . S
H820 C835 0.960 . S
H821 C835 0.960 . S
H822 C835 0.960 . S
C823 H815 0.929 . S
C823 C824 1.377 . S
C823 C825 1.384 . S
C824 C823 1.377 . S
C824 C830 1.390 . S
C825 H816 0.930 . S
C825 C823 1.384 . S
C825 C826 1.372 . S
C826 C825 1.372 . S
C826 C827 1.400 . S
C826 C831 1.490 . S
C827 H817 0.930 . S
C827 C826 1.400 . S
C827 C830 1.386 . S
H828 C844 0.930 . S
H829 C845 0.931 . S
C830 H818 0.929 . S
C830 C824 1.390 . S
C830 C827 1.386 . S
C831 C826 1.490 . S
C831 C833 1.395 . S
C831 C834 1.403 . S
H832 C838 0.930 . S
C833 H819 0.930 . S
C833 C831 1.395 . S
C833 C836 1.403 . S
C834 C831 1.403 . S
C834 C835 1.524 . S
C834 C838 1.400 . S
C835 H820 0.960 . S
C835 H821 0.960 . S
C835 H822 0.960 . S
C835 C834 1.524 . S
C836 C833 1.403 . S
C836 C837 1.392 . S
C836 C840 1.495 . S
C837 C836 1.392 . S
C837 C838 1.385 . S
C837 C839 1.478 . S
C838 H832 0.930 . S
C838 C834 1.400 . S
C838 C837 1.385 . S
C839 C837 1.478 . S
C839 C841 1.381 . S
C839 C845 1.383 . S
C840 C836 1.495 . S
C840 H846 0.959 . S
C840 H847 0.961 . S
C840 H848 0.960 . S
C841 C839 1.381 . S
C841 C842 1.394 . S
C841 H849 0.930 . S
C842 C841 1.394 . S
C842 C843 1.383 . S
C842 H850 0.929 . S
C843 C842 1.383 . S
C843 C844 1.377 . S
C844 H828 0.930 . S
C844 C843 1.377 . S
C844 C845 1.379 . S
C845 H829 0.931 . S
C845 C839 1.383 . S
C845 C844 1.379 . S
H846 C840 0.959 . S
H847 C840 0.961 . S
H848 C840 0.960 . S
H849 C841 0.930 . S
H850 C842 0.929 . S
H851 C859 0.929 . S
H852 C861 0.930 . S
H853 C863 0.930 . S
H854 C866 0.929 . S
H855 C869 0.930 . S
H856 C871 0.960 . S
H857 C871 0.960 . S
H858 C871 0.960 . S
C859 H851 0.929 . S
C859 C860 1.377 . S
C859 C861 1.384 . S
C860 C859 1.377 . S
C860 C866 1.390 . S
C861 H852 0.930 . S
C861 C859 1.384 . S
C861 C862 1.372 . S
C862 C861 1.372 . S
C862 C863 1.400 . S
C862 C867 1.490 . S
C863 H853 0.930 . S
C863 C862 1.400 . S
C863 C866 1.386 . S
H864 C880 0.930 . S
H865 C881 0.931 . S
C866 H854 0.929 . S
C866 C860 1.390 . S
C866 C863 1.386 . S
C867 C862 1.490 . S
C867 C869 1.395 . S
C867 C870 1.403 . S
H868 C874 0.930 . S
C869 H855 0.930 . S
C869 C867 1.395 . S
C869 C872 1.403 . S
C870 C867 1.403 . S
C870 C871 1.524 . S
C870 C874 1.400 . S
C871 H856 0.960 . S
C871 H857 0.960 . S
C871 H858 0.960 . S
C871 C870 1.524 . S
C872 C869 1.403 . S
C872 C873 1.392 . S
C872 C876 1.495 . S
C873 C872 1.392 . S
C873 C874 1.385 . S
C873 C875 1.478 . S
C874 H868 0.930 . S
C874 C870 1.400 . S
C874 C873 1.385 . S
C875 C873 1.478 . S
C875 C877 1.381 . S
C875 C881 1.383 . S
C876 C872 1.495 . S
C876 H882 0.959 . S
C876 H883 0.961 . S
C876 H884 0.960 . S
C877 C875 1.381 . S
C877 C878 1.394 . S
C877 H885 0.930 . S
C878 C877 1.394 . S
C878 C879 1.383 . S
C878 H886 0.929 . S
C879 C878 1.383 . S
C879 C880 1.377 . S
C880 H864 0.930 . S
C880 C879 1.377 . S
C880 C881 1.379 . S
C881 H865 0.931 . S
C881 C875 1.383 . S
C881 C880 1.379 . S
H882 C876 0.959 . S
H883 C876 0.961 . S
H884 C876 0.960 . S
H885 C877 0.930 . S
H886 C878 0.929 . S
H887 C895 0.929 . S
H888 C897 0.930 . S
H889 C899 0.930 . S
H890 C902 0.929 . S
H891 C905 0.930 . S
H892 C907 0.960 . S
H893 C907 0.960 . S
H894 C907 0.960 . S
C895 H887 0.929 . S
C895 C896 1.377 . S
C895 C897 1.384 . S
C896 C895 1.377 . S
C896 C902 1.390 . S
C897 H888 0.930 . S
C897 C895 1.384 . S
C897 C898 1.372 . S
C898 C897 1.372 . S
C898 C899 1.400 . S
C898 C903 1.490 . S
C899 H889 0.930 . S
C899 C898 1.400 . S
C899 C902 1.386 . S
H900 C916 0.930 . S
H901 C917 0.931 . S
C902 H890 0.929 . S
C902 C896 1.390 . S
C902 C899 1.386 . S
C903 C898 1.490 . S
C903 C905 1.395 . S
C903 C906 1.403 . S
H904 C910 0.930 . S
C905 H891 0.930 . S
C905 C903 1.395 . S
C905 C908 1.403 . S
C906 C903 1.403 . S
C906 C907 1.524 . S
C906 C910 1.400 . S
C907 H892 0.960 . S
C907 H893 0.960 . S
C907 H894 0.960 . S
C907 C906 1.524 . S
C908 C905 1.403 . S
C908 C909 1.392 . S
C908 C912 1.495 . S
C909 C908 1.392 . S
C909 C910 1.385 . S
C909 C911 1.478 . S
C910 H904 0.930 . S
C910 C906 1.400 . S
C910 C909 1.385 . S
C911 C909 1.478 . S
C911 C913 1.381 . S
C911 C917 1.383 . S
C912 C908 1.495 . S
C912 H918 0.959 . S
C912 H919 0.961 . S
C912 H920 0.960 . S
C913 C911 1.381 . S
C913 C914 1.394 . S
C913 H921 0.930 . S
C914 C913 1.394 . S
C914 C915 1.383 . S
C914 H922 0.929 . S
C915 C914 1.383 . S
C915 C916 1.377 . S
C916 H900 0.930 . S
C916 C915 1.377 . S
C916 C917 1.379 . S
C917 H901 0.931 . S
C917 C911 1.383 . S
C917 C916 1.379 . S
H918 C912 0.959 . S
H919 C912 0.961 . S
H920 C912 0.960 . S
H921 C913 0.930 . S
H922 C914 0.929 . S
H923 C931 0.929 . S
H924 C933 0.930 . S
H925 C935 0.930 . S
H926 C938 0.929 . S
H927 C941 0.930 . S
H928 C943 0.960 . S
H929 C943 0.960 . S
H930 C943 0.960 . S
C931 H923 0.929 . S
C931 C932 1.377 . S
C931 C933 1.384 . S
C932 C931 1.377 . S
C932 C938 1.390 . S
C933 H924 0.930 . S
C933 C931 1.384 . S
C933 C934 1.372 . S
C934 C933 1.372 . S
C934 C935 1.400 . S
C934 C939 1.490 . S
C935 H925 0.930 . S
C935 C934 1.400 . S
C935 C938 1.386 . S
H936 C952 0.930 . S
H937 C953 0.931 . S
C938 H926 0.929 . S
C938 C932 1.390 . S
C938 C935 1.386 . S
C939 C934 1.490 . S
C939 C941 1.395 . S
C939 C942 1.403 . S
H940 C946 0.930 . S
C941 H927 0.930 . S
C941 C939 1.395 . S
C941 C944 1.403 . S
C942 C939 1.403 . S
C942 C943 1.524 . S
C942 C946 1.400 . S
C943 H928 0.960 . S
C943 H929 0.960 . S
C943 H930 0.960 . S
C943 C942 1.524 . S
C944 C941 1.403 . S
C944 C945 1.392 . S
C944 C948 1.495 . S
C945 C944 1.392 . S
C945 C946 1.385 . S
C945 C947 1.478 . S
C946 H940 0.930 . S
C946 C942 1.400 . S
C946 C945 1.385 . S
C947 C945 1.478 . S
C947 C949 1.381 . S
C947 C953 1.383 . S
C948 C944 1.495 . S
C948 H954 0.959 . S
C948 H955 0.961 . S
C948 H956 0.960 . S
C949 C947 1.381 . S
C949 C950 1.394 . S
C949 H957 0.930 . S
C950 C949 1.394 . S
C950 C951 1.383 . S
C950 H958 0.929 . S
C951 C950 1.383 . S
C951 C952 1.377 . S
C952 H936 0.930 . S
C952 C951 1.377 . S
C952 C953 1.379 . S
C953 H937 0.931 . S
C953 C947 1.383 . S
C953 C952 1.379 . S
H954 C948 0.959 . S
H955 C948 0.961 . S
H956 C948 0.960 . S
H957 C949 0.930 . S
H958 C950 0.929 . S
H959 C967 0.929 . S
H960 C969 0.930 . S
H961 C971 0.930 . S
H962 C974 0.929 . S
H963 C977 0.930 . S
H964 C979 0.960 . S
H965 C979 0.960 . S
H966 C979 0.960 . S
C967 H959 0.929 . S
C967 C968 1.377 . S
C967 C969 1.384 . S
C968 C967 1.377 . S
C968 C974 1.390 . S
C969 H960 0.930 . S
C969 C967 1.384 . S
C969 C970 1.372 . S
C970 C969 1.372 . S
C970 C971 1.400 . S
C970 C975 1.490 . S
C971 H961 0.930 . S
C971 C970 1.400 . S
C971 C974 1.386 . S
H972 C988 0.930 . S
H973 C989 0.931 . S
C974 H962 0.929 . S
C974 C968 1.390 . S
C974 C971 1.386 . S
C975 C970 1.490 . S
C975 C977 1.395 . S
C975 C978 1.403 . S
H976 C982 0.930 . S
C977 H963 0.930 . S
C977 C975 1.395 . S
C977 C980 1.403 . S
C978 C975 1.403 . S
C978 C979 1.524 . S
C978 C982 1.400 . S
C979 H964 0.960 . S
C979 H965 0.960 . S
C979 H966 0.960 . S
C979 C978 1.524 . S
C980 C977 1.403 . S
C980 C981 1.392 . S
C980 C984 1.495 . S
C981 C980 1.392 . S
C981 C982 1.385 . S
C981 C983 1.478 . S
C982 H976 0.930 . S
C982 C978 1.400 . S
C982 C981 1.385 . S
C983 C981 1.478 . S
C983 C985 1.381 . S
C983 C989 1.383 . S
C984 C980 1.495 . S
C984 H990 0.959 . S
C984 H991 0.961 . S
C984 H992 0.960 . S
C985 C983 1.381 . S
C985 C986 1.394 . S
C985 H993 0.930 . S
C986 C985 1.394 . S
C986 C987 1.383 . S
C986 H994 0.929 . S
C987 C986 1.383 . S
C987 C988 1.377 . S
C988 H972 0.930 . S
C988 C987 1.377 . S
C988 C989 1.379 . S
C989 H973 0.931 . S
C989 C983 1.383 . S
C989 C988 1.379 . S
H990 C984 0.959 . S
H991 C984 0.961 . S
H992 C984 0.960 . S
H993 C985 0.930 . S
H994 C986 0.929 . S
H995 C1003 0.929 . S
H996 C1005 0.930 . S
H997 C1007 0.930 . S
H998 C1010 0.929 . S
H999 C1013 0.930 . S
H1000 C1015 0.960 . S
H1001 C1015 0.960 . S
H1002 C1015 0.960 . S
C1003 H995 0.929 . S
C1003 C1004 1.377 . S
C1003 C1005 1.384 . S
C1004 C1003 1.377 . S
C1004 C1010 1.390 . S
C1005 H996 0.930 . S
C1005 C1003 1.384 . S
C1005 C1006 1.372 . S
C1006 C1005 1.372 . S
C1006 C1007 1.400 . S
C1006 C1011 1.490 . S
C1007 H997 0.930 . S
C1007 C1006 1.400 . S
C1007 C1010 1.386 . S
H1008 C1024 0.930 . S
H1009 C1025 0.931 . S
C1010 H998 0.929 . S
C1010 C1004 1.390 . S
C1010 C1007 1.386 . S
C1011 C1006 1.490 . S
C1011 C1013 1.395 . S
C1011 C1014 1.403 . S
H1012 C1018 0.930 . S
C1013 H999 0.930 . S
C1013 C1011 1.395 . S
C1013 C1016 1.403 . S
C1014 C1011 1.403 . S
C1014 C1015 1.524 . S
C1014 C1018 1.400 . S
C1015 H1000 0.960 . S
C1015 H1001 0.960 . S
C1015 H1002 0.960 . S
C1015 C1014 1.524 . S
C1016 C1013 1.403 . S
C1016 C1017 1.392 . S
C1016 C1020 1.495 . S
C1017 C1016 1.392 . S
C1017 C1018 1.385 . S
C1017 C1019 1.478 . S
C1018 H1012 0.930 . S
C1018 C1014 1.400 . S
C1018 C1017 1.385 . S
C1019 C1017 1.478 . S
C1019 C1021 1.381 . S
C1019 C1025 1.383 . S
C1020 C1016 1.495 . S
C1020 H1026 0.959 . S
C1020 H1027 0.961 . S
C1020 H1028 0.960 . S
C1021 C1019 1.381 . S
C1021 C1022 1.394 . S
C1021 H1029 0.930 . S
C1022 C1021 1.394 . S
C1022 C1023 1.383 . S
C1022 H1030 0.929 . S
C1023 C1022 1.383 . S
C1023 C1024 1.377 . S
C1024 H1008 0.930 . S
C1024 C1023 1.377 . S
C1024 C1025 1.379 . S
C1025 H1009 0.931 . S
C1025 C1019 1.383 . S
C1025 C1024 1.379 . S
H1026 C1020 0.959 . S
H1027 C1020 0.961 . S
H1028 C1020 0.960 . S
H1029 C1021 0.930 . S
H1030 C1022 0.929 . S
H1031 C1039 0.929 . S
H1032 C1041 0.930 . S
H1033 C1043 0.930 . S
H1034 C1046 0.929 . S
H1035 C1049 0.930 . S
H1036 C1051 0.960 . S
H1037 C1051 0.960 . S
H1038 C1051 0.960 . S
C1039 H1031 0.929 . S
C1039 C1040 1.377 . S
C1039 C1041 1.384 . S
C1040 C1039 1.377 . S
C1040 C1046 1.390 . S
C1041 H1032 0.930 . S
C1041 C1039 1.384 . S
C1041 C1042 1.372 . S
C1042 C1041 1.372 . S
C1042 C1043 1.400 . S
C1042 C1047 1.490 . S
C1043 H1033 0.930 . S
C1043 C1042 1.400 . S
C1043 C1046 1.386 . S
H1044 C1060 0.930 . S
H1045 C1061 0.931 . S
C1046 H1034 0.929 . S
C1046 C1040 1.390 . S
C1046 C1043 1.386 . S
C1047 C1042 1.490 . S
C1047 C1049 1.395 . S
C1047 C1050 1.403 . S
H1048 C1054 0.930 . S
C1049 H1035 0.930 . S
C1049 C1047 1.395 . S
C1049 C1052 1.403 . S
C1050 C1047 1.403 . S
C1050 C1051 1.524 . S
C1050 C1054 1.400 . S
C1051 H1036 0.960 . S
C1051 H1037 0.960 . S
C1051 H1038 0.960 . S
C1051 C1050 1.524 . S
C1052 C1049 1.403 . S
C1052 C1053 1.392 . S
C1052 C1056 1.495 . S
C1053 C1052 1.392 . S
C1053 C1054 1.385 . S
C1053 C1055 1.478 . S
C1054 H1048 0.930 . S
C1054 C1050 1.400 . S
C1054 C1053 1.385 . S
C1055 C1053 1.478 . S
C1055 C1057 1.381 . S
C1055 C1061 1.383 . S
C1056 C1052 1.495 . S
C1056 H1062 0.959 . S
C1056 H1063 0.961 . S
C1056 H1064 0.960 . S
C1057 C1055 1.381 . S
C1057 C1058 1.394 . S
C1057 H1065 0.930 . S
C1058 C1057 1.394 . S
C1058 C1059 1.383 . S
C1058 H1066 0.929 . S
C1059 C1058 1.383 . S
C1059 C1060 1.377 . S
C1060 H1044 0.930 . S
C1060 C1059 1.377 . S
C1060 C1061 1.379 . S
C1061 H1045 0.931 . S
C1061 C1055 1.383 . S
C1061 C1060 1.379 . S
H1062 C1056 0.959 . S
H1063 C1056 0.961 . S
H1064 C1056 0.960 . S
H1065 C1057 0.930 . S
H1066 C1058 0.929 . S
C231 C128 1.123 . S
C212 N2 1.244 . S
C267 C164 1.161 . S
C248 N14 1.182 . S
C303 C129 1.606 . S
C284 N27 1.614 . S
C339 C159 1.812 . S
C320 N44 1.839 . S
C375 C126 1.049 . S
C356 N54 1.058 . S
C392 N67 1.639 . S
C411 C162 1.637 . S
C428 N83 0.703 . S
C447 C131 0.700 . S
C483 C161 1.155 . S
C464 N93 1.153 . S
C519 C165 1.724 . S
C500 N1 1.781 . S
C555 C130 0.945 . S
C536 N18 1.009 . S
C591 C158 1.289 . S
C572 N28 1.297 . S
C627 C127 1.103 . S
C608 N41 1.260 . S
C663 C160 1.826 . S
C644 N57 1.910 . S
C680 N66 1.606 . S
C699 C125 1.563 . S
C716 N79 1.501 . S
C735 C163 1.453 . S
C771 C132 1.379 . S
C752 N96 1.451 . S
C807 C194 1.982 . S
C788 N5 2.076 . S
C824 N53 1.917 . S
C843 C197 1.833 . S
C879 C196 1.989 . S
C860 N70 2.044 . S
C896 N80 1.703 . S
C915 C195 1.656 . S
C951 C198 1.842 . S
C932 N92 1.901 . S
C968 N31 1.707 . S
C987 C192 1.662 . S
C1023 C191 2.323 . S
C1004 N40 2.305 . S
C1040 N15 1.117 . S
C1059 C193 1.007 . S
