# Generated by pormake.
# Topology anh, (6,3)-cn, num edge types: 1
# Building blocks:
#     Node 0, Type 0, BuildingBlock: BETGAK_clean_sbu_0, # of connection points: 6
#     Node 1, Type 0, BuildingBlock: BETGAK_clean_sbu_0, # of connection points: 6
#     Node 2, Type 0, BuildingBlock: BETGAK_clean_sbu_0, # of connection points: 6
#     Node 3, Type 1, BuildingBlock: ESEHIV_clean_linker_0, # of connection points: 3
#     Node 4, Type 1, BuildingBlock: ESEHIV_clean_linker_0, # of connection points: 3
#     Node 5, Type 1, BuildingBlock: ESEHIV_clean_linker_0, # of connection points: 3
#     Node 6, Type 1, BuildingBlock: ESEHIV_clean_linker_0, # of connection points: 3
#     Node 7, Type 1, BuildingBlock: ESEHIV_clean_linker_0, # of connection points: 3
#     Node 8, Type 1, BuildingBlock: ESEHIV_clean_linker_0, # of connection points: 3
#     Edge 9, Type (0, 1), BuildingBlock: AJUNOK_clean_linker_0, # of connection points: 2
#     Edge 10, Type (0, 1), BuildingBlock: AJUNOK_clean_linker_0, # of connection points: 2
#     Edge 11, Type (0, 1), BuildingBlock: AJUNOK_clean_linker_0, # of connection points: 2
#     Edge 12, Type (0, 1), BuildingBlock: AJUNOK_clean_linker_0, # of connection points: 2
#     Edge 13, Type (0, 1), BuildingBlock: AJUNOK_clean_linker_0, # of connection points: 2
#     Edge 14, Type (0, 1), BuildingBlock: AJUNOK_clean_linker_0, # of connection points: 2
#     Edge 15, Type (0, 1), BuildingBlock: AJUNOK_clean_linker_0, # of connection points: 2
#     Edge 16, Type (0, 1), BuildingBlock: AJUNOK_clean_linker_0, # of connection points: 2
#     Edge 17, Type (0, 1), BuildingBlock: AJUNOK_clean_linker_0, # of connection points: 2
#     Edge 18, Type (0, 1), BuildingBlock: AJUNOK_clean_linker_0, # of connection points: 2
#     Edge 19, Type (0, 1), BuildingBlock: AJUNOK_clean_linker_0, # of connection points: 2
#     Edge 20, Type (0, 1), BuildingBlock: AJUNOK_clean_linker_0, # of connection points: 2
#     Edge 21, Type (0, 1), BuildingBlock: AJUNOK_clean_linker_0, # of connection points: 2
#     Edge 22, Type (0, 1), BuildingBlock: AJUNOK_clean_linker_0, # of connection points: 2
#     Edge 23, Type (0, 1), BuildingBlock: AJUNOK_clean_linker_0, # of connection points: 2
#     Edge 24, Type (0, 1), BuildingBlock: AJUNOK_clean_linker_0, # of connection points: 2
#     Edge 25, Type (0, 1), BuildingBlock: AJUNOK_clean_linker_0, # of connection points: 2
#     Edge 26, Type (0, 1), BuildingBlock: AJUNOK_clean_linker_0, # of connection points: 2
# Relax obj value: 0.288
# Max RMSD: 0.257
# Mean RMSD: 0.181
data_MOF--net-anh--node1-BETGAK_clean_sbu_0--node2-ESEHIV_clean_linker_0--edge1-AJUNOK_clean_linker_0
_symmetry_space_group_name_H-M    P1
_symmetry_Int_Tables_number       1
_symmetry_cell_setting            triclinic
loop_
_symmetry_equiv_pos_as_xyz
'x, y, z'
_cell_length_a     20.745846
_cell_length_b     26.619204
_cell_length_c     37.756155
_cell_angle_alpha  91.401733
_cell_angle_beta   89.247052
_cell_angle_gamma 133.50613
loop_
_atom_site_label
_atom_site_type_symbol
_atom_site_fract_x
_atom_site_fract_y
_atom_site_fract_z
_atom_type_partial_charge
La0 La 0.2891 0.60865 0.15114 0.0
La1 La 0.1607 0.61973 0.17299 0.0
C2 C 0.35474 0.57202 0.11614 0.0
C3 C 0.32787 0.50464 0.11332 0.0
C4 C 0.3002 0.46414 0.14339 0.0
C5 C 0.27498 0.40028 0.14051 0.0
C6 C 0.27597 0.37531 0.10751 0.0
C7 C 0.30026 0.41482 0.07722 0.0
C8 C 0.3258 0.47891 0.08013 0.0
C9 C 0.27771 0.6181 0.21985 0.0
C10 C 0.36862 0.7589 0.16501 0.0
C11 C 1.06898 0.632 0.20858 0.0
C12 C 0.97425 0.57684 0.21706 0.0
C13 C 0.936 0.50827 0.2183 0.0
C14 C 0.84719 0.45365 0.20897 0.0
C15 C 0.79463 0.4669 0.20004 0.0
C16 C 0.82856 0.53381 0.20709 0.0
C17 C 0.91891 0.58907 0.2144 0.0
C18 C 0.16862 0.605 0.10415 0.0
C19 C 1.0812 0.46829 0.16333 0.0
O20 O 0.29785 0.57312 0.10283 0.0
O21 O 0.38618 0.60446 0.14694 0.0
O22 O 0.34908 0.6403 0.20412 0.0
O23 O 0.21482 0.58515 0.19778 0.0
O24 O 0.38184 0.7219 0.1487 0.0
O25 O 0.28948 0.72834 0.1783 0.0
O26 O 1.08539 0.64578 0.17475 0.0
O27 O 1.1207 0.62621 0.22284 0.0
O28 O 1.0969 0.58047 0.12058 0.0
O29 O 0.23336 0.64152 0.12556 0.0
O30 O 1.0653 0.50684 0.17309 0.0
O31 O 0.16251 0.49728 0.15386 0.0
H32 H 0.29957 0.48233 0.16926 0.0
H33 H 0.25822 0.37164 0.16433 0.0
H34 H 0.30462 0.39826 0.05156 0.0
H35 H 0.34583 0.5091 0.05658 0.0
H36 H 0.97674 0.49725 0.22218 0.0
H37 H 0.82432 0.40324 0.20448 0.0
H38 H 0.78841 0.54516 0.20213 0.0
H39 H 0.94678 0.64155 0.21422 0.0
La40 La 0.79524 0.10264 0.47704 0.0
La41 La 0.67377 0.12116 0.47035 0.0
C42 C 0.87001 0.06337 0.4966 0.0
C43 C 0.84065 0.99919 0.51096 0.0
C44 C 0.83938 0.95518 0.48896 0.0
C45 C 0.81396 0.89527 0.50232 0.0
C46 C 0.78975 0.87831 0.53801 0.0
C47 C 0.79086 0.92223 0.56004 0.0
C48 C 0.81585 0.98199 0.54666 0.0
C49 C 0.77832 0.12495 0.41152 0.0
C50 C 0.58737 0.96939 0.46611 0.0
C51 C 0.59971 0.16388 0.45777 0.0
C52 C 0.61098 0.21904 0.47624 0.0
C53 C 0.62278 0.22782 0.5132 0.0
C54 C 0.63789 0.28192 0.5307 0.0
C55 C 0.64268 0.32909 0.51166 0.0
C56 C 0.63193 0.32078 0.47458 0.0
C57 C 0.61591 0.26602 0.45704 0.0
C58 C 0.68945 0.0976 0.53593 0.0
C59 C 0.88625 0.2565 0.47297 0.0
O60 O 0.84766 0.05978 0.46376 0.0
O61 O 0.86074 0.09854 0.517 0.0
O62 O 0.85156 0.14779 0.42519 0.0
O63 O 0.71652 0.08762 0.43366 0.0
O64 O 0.66229 0.9954 0.48166 0.0
O65 O 0.58254 1.01236 0.45282 0.0
O66 O 0.56297 0.10895 0.47625 0.0
O67 O 0.66915 0.18449 0.44046 0.0
O68 O 0.61773 0.07649 0.52212 0.0
O69 O 0.75187 0.13593 0.51409 0.0
O70 O 0.80448 0.22955 0.46753 0.0
O71 O 0.89945 0.21591 0.48063 0.0
H72 H 0.85866 0.96732 0.46142 0.0
H73 H 0.81355 0.86226 0.48474 0.0
H74 H 0.77451 0.91132 0.58787 0.0
H75 H 0.81674 1.01503 0.56444 0.0
H76 H 0.62098 0.19312 0.52866 0.0
H77 H 0.64551 0.28667 0.55925 0.0
H78 H 0.63736 0.35722 0.45906 0.0
H79 H 0.6087 0.26096 0.42847 0.0
La80 La 0.70397 0.6056 0.86792 0.0
La81 La 0.56989 0.4544 0.85989 0.0
C82 C 0.79497 0.73202 0.85564 0.0
C83 C 0.77917 0.77449 0.84193 0.0
C84 C 0.84752 0.84698 0.84385 0.0
C85 C 0.8369 0.88833 0.82846 0.0
C86 C 0.75755 0.85803 0.81077 0.0
C87 C 0.68812 0.78531 0.80973 0.0
C88 C 0.69905 0.74393 0.82493 0.0
C89 C 0.65625 0.53725 0.92674 0.0
C90 C 0.48964 0.52355 0.8702 0.0
C91 C 0.49108 0.32885 0.86273 0.0
C92 C 0.51633 0.29289 0.84667 0.0
C93 C 0.54389 0.30389 0.81115 0.0
C94 C 0.57226 0.27317 0.79643 0.0
C95 C 0.57548 0.2315 0.81691 0.0
C96 C 0.54682 0.21968 0.85235 0.0
C97 C 0.5179 0.25031 0.86711 0.0
C98 C 0.61486 0.51993 0.80019 0.0
C99 C 0.78598 0.53768 0.86536 0.0
O100 O 0.76249 0.70464 0.88683 0.0
O101 O 0.7826 0.68815 0.83285 0.0
O102 O 0.73762 0.59431 0.92034 0.0
O103 O 0.60653 0.52308 0.90173 0.0
O104 O 0.57488 0.58225 0.86446 0.0
O105 O 0.47269 0.46513 0.87371 0.0
O106 O 0.46931 0.35226 0.8406 0.0
O107 O 0.54316 0.37423 0.88805 0.0
O108 O 0.53573 0.4623 0.80753 0.0
O109 O 0.66685 0.53638 0.82499 0.0
O110 O 0.69958 0.47817 0.86267 0.0
O111 O 0.80499 0.59708 0.86658 0.0
H112 H 0.90992 0.87171 0.85675 0.0
H113 H 0.89102 0.94415 0.83028 0.0
H114 H 0.62629 0.76042 0.79626 0.0
H115 H 0.64564 0.68813 0.8227 0.0
H116 H 0.54434 0.33685 0.79464 0.0
H117 H 0.5915 0.282 0.76883 0.0
H118 H 0.54862 0.18798 0.86889 0.0
H119 H 0.49792 0.24152 0.89463 0.0
H120 H 0.62227 1.01057 0.25612 0.0
H121 H 0.84821 0.22986 0.25295 0.0
H122 H 0.72081 0.11248 0.1555 0.0
C123 C 0.66821 0.0575 0.24099 0.0
C124 C 0.66137 0.05319 0.2038 0.0
C125 C 0.73519 0.12071 0.25887 0.0
C126 C 0.79645 0.18088 0.23919 0.0
C127 C 0.79251 0.17914 0.20203 0.0
C128 C 0.72449 0.11471 0.18415 0.0
H129 H 0.71488 0.67521 0.65252 0.0
H130 H 0.68157 0.49723 0.64314 0.0
H131 H 0.7213 0.60529 0.54971 0.0
C132 C 0.71163 0.63948 0.63612 0.0
C133 C 0.72035 0.6469 0.59925 0.0
C134 C 0.69859 0.5861 0.65204 0.0
C135 C 0.69437 0.53979 0.6309 0.0
C136 C 0.70102 0.5457 0.59384 0.0
C137 C 0.71546 0.6001 0.57825 0.0
H138 H 1.06037 0.56507 0.94578 0.0
H139 H 0.25895 0.55622 0.94918 0.0
H140 H 1.13167 0.52206 0.84908 0.0
C141 C 1.09932 0.55787 0.93149 0.0
C142 C 1.08453 0.54298 0.89487 0.0
C143 C 0.16087 0.56235 0.95077 0.0
C144 C 0.21209 0.55223 0.9335 0.0
C145 C 0.20598 0.53834 0.89675 0.0
C146 C 1.13961 0.53301 0.87729 0.0
H147 H 1.13403 0.49469 0.37849 0.0
H148 H 0.35051 0.71588 0.37727 0.0
H149 H 0.23827 0.61279 0.47695 0.0
C150 C 0.18145 0.54391 0.39267 0.0
C151 C 0.17873 0.54539 0.42996 0.0
C152 C 0.24326 0.60506 0.3735 0.0
C153 C 0.30244 0.6687 0.39202 0.0
C154 C 0.30188 0.67305 0.42914 0.0
C155 C 0.24005 0.61059 0.44831 0.0
H156 H 0.67959 0.13746 0.69505 0.0
H157 H 0.73399 1.00841 0.68817 0.0
H158 H 0.68869 0.05637 0.7901 0.0
C159 C 0.69098 0.10828 0.7081 0.0
C160 C 0.68347 0.10209 0.74514 0.0
C161 C 0.70966 0.07503 0.68752 0.0
C162 C 0.72189 0.03551 0.70423 0.0
C163 C 0.71492 1.02857 0.74138 0.0
C164 C 0.69441 0.06138 0.76156 0.0
H165 H 0.3774 0.27238 0.01943 0.0
H166 H 0.6404 0.3686 0.04741 0.0
H167 H 0.42709 0.23023 0.11922 0.0
C168 C 0.42084 0.27543 0.03691 0.0
C169 C 0.39118 0.24717 0.071 0.0
C170 C 0.51136 0.3207 0.02807 0.0
C171 C 0.56946 0.32904 0.05194 0.0
C172 C 0.54001 0.29885 0.08546 0.0
C173 C 0.44892 0.25108 0.09284 0.0
C174 C 0.32364 0.31812 0.12919 0.0
C175 C 0.27088 0.31699 0.10567 0.0
C176 C 0.34971 0.28308 0.12086 0.0
C177 C 0.32491 0.24615 0.08833 0.0
H178 H 0.3545 0.35311 0.15201 0.0
H179 H 0.39997 0.29432 0.13791 0.0
S180 S 0.15382 0.2018 0.0265 0.0
N181 N 0.171 0.25824 0.05493 0.0
N182 N 0.21849 0.19022 0.03956 0.0
C183 C 0.25703 0.23278 0.06866 0.0
C184 C 0.23112 0.26938 0.07701 0.0
C185 C 0.94943 0.37597 0.45811 0.0
C186 C 0.96428 0.33345 0.46747 0.0
C187 C 1.01973 0.44583 0.44848 0.0
C188 C 1.10884 0.47734 0.44814 0.0
H189 H 0.88228 0.35452 0.45688 0.0
H190 H 1.00376 0.47468 0.43978 0.0
S191 S 0.18664 0.39188 0.47146 0.0
N192 N 1.07783 0.33078 0.47676 0.0
N193 N 0.2084 0.46118 0.45874 0.0
C194 C 1.12539 0.43668 0.45856 0.0
C195 C 1.05386 0.36534 0.46828 0.0
C196 C 0.67349 0.89305 0.7995 0.0
C197 C 0.7479 0.9021 0.79288 0.0
C198 C 0.66378 0.93452 0.78313 0.0
C199 C 0.72735 0.98598 0.75901 0.0
H200 H 0.62278 0.85407 0.8178 0.0
H201 H 0.60538 0.92559 0.78905 0.0
S202 S 0.93353 1.0297 0.73206 0.0
N203 N 0.88564 0.96597 0.76012 0.0
N204 N 0.86756 0.04368 0.72955 0.0
C205 C 0.80175 0.99522 0.75203 0.0
C206 C 0.81202 0.95349 0.76891 0.0
C207 C 0.71637 0.45002 0.14534 0.0
C208 C 0.72006 0.41986 0.17433 0.0
C209 C 0.65884 0.41007 0.11709 0.0
C210 C 0.60341 0.33778 0.1156 0.0
H211 H 0.76068 0.50565 0.14345 0.0
H212 H 0.658 0.43672 0.09614 0.0
S213 S 0.58099 0.23141 0.1856 0.0
N214 N 0.65712 0.3118 0.20121 0.0
N215 N 0.55136 0.23648 0.14644 0.0
C216 C 0.60387 0.30601 0.14465 0.0
C217 C 0.66184 0.34701 0.17421 0.0
C218 C 0.43354 0.86532 0.44278 0.0
C219 C 0.51041 0.89188 0.46143 0.0
C220 C 0.36366 0.79391 0.43506 0.0
C221 C 0.3661 0.7448 0.44577 0.0
H222 H 0.42824 0.90018 0.43288 0.0
H223 H 0.30845 0.77715 0.41909 0.0
S224 S 0.5485 0.785 0.49728 0.0
N225 N 0.58164 0.86133 0.4922 0.0
N226 N 0.4506 0.72779 0.47741 0.0
C227 C 0.44037 0.76984 0.4658 0.0
C228 C 0.51216 0.84293 0.47364 0.0
C229 C 0.56073 0.12997 0.80547 0.0
C230 C 0.60841 0.20057 0.80104 0.0
C231 C 0.587 0.09886 0.78837 0.0
C232 C 0.66182 0.13709 0.76613 0.0
H233 H 0.50092 0.09793 0.82131 0.0
H234 H 0.54667 0.04395 0.79158 0.0
S235 S 0.81679 0.32538 0.74972 0.0
N236 N 0.73978 0.30912 0.77565 0.0
N237 N 0.78797 0.25052 0.74337 0.0
C238 C 0.7122 0.20821 0.76275 0.0
C239 C 0.68585 0.23992 0.78021 0.0
C240 C 0.82388 0.80552 0.5456 0.0
C241 C 0.76784 0.81684 0.55259 0.0
C242 C 0.80718 0.7497 0.56031 0.0
C243 C 0.73414 0.70347 0.58268 0.0
H244 H 0.88232 0.841 0.52928 0.0
H245 H 0.85289 0.7436 0.55482 0.0
S246 S 0.56221 0.7058 0.60636 0.0
N247 N 0.63257 0.77397 0.58119 0.0
N248 N 0.60187 0.66946 0.6092 0.0
C249 C 0.6763 0.71303 0.58918 0.0
C250 C 0.693 0.76963 0.57407 0.0
C251 C 0.95377 0.59949 0.87503 0.0
C252 C 0.86295 0.53774 0.86851 0.0
C253 C 1.024 0.60078 0.88039 0.0
C254 C 1.01163 0.54081 0.87901 0.0
H255 H 0.97117 0.64823 0.87717 0.0
H256 H 1.08949 0.65024 0.88706 0.0
S257 S 0.78792 0.36359 0.8639 0.0
N258 N 0.7671 0.4132 0.86148 0.0
N259 N 0.89574 0.41605 0.87145 0.0
C260 C 0.92133 0.47866 0.87218 0.0
C261 C 0.84928 0.47712 0.86688 0.0
C262 C 0.42929 0.87399 0.18936 0.0
C263 C 0.44391 0.83651 0.17002 0.0
C264 C 0.49898 0.94496 0.19789 0.0
C265 C 0.58717 0.98283 0.18725 0.0
H266 H 0.36361 0.84788 0.19925 0.0
H267 H 0.48425 0.96997 0.21424 0.0
S268 S 0.66263 0.9123 0.13433 0.0
N269 N 0.55475 0.84514 0.13893 0.0
N270 N 0.68492 0.97824 0.15502 0.0
C271 C 0.60267 0.94733 0.16657 0.0
C272 C 0.53154 0.87453 0.15799 0.0
C273 C 0.72538 0.4252 0.55749 0.0
C274 C 0.65948 0.38674 0.53085 0.0
C275 C 0.73913 0.47701 0.5775 0.0
C276 C 0.68815 0.49283 0.57139 0.0
H277 H 0.76654 0.415 0.56304 0.0
H278 H 0.79002 0.50493 0.59791 0.0
S279 S 0.50505 0.406 0.50596 0.0
N280 N 0.54094 0.367 0.50033 0.0
N281 N 0.56806 0.46526 0.53751 0.0
C282 C 0.62271 0.45543 0.54469 0.0
C283 C 0.60816 0.40228 0.52449 0.0
C284 C 0.43097 0.5868 0.87109 0.0
C285 C 0.41358 0.52479 0.87372 0.0
C286 C 0.364 0.58985 0.87567 0.0
C287 C 0.27214 0.53101 0.88249 0.0
H288 H 0.49857 0.63489 0.86624 0.0
H289 H 0.38569 0.64021 0.87494 0.0
S290 S 0.18614 0.35462 0.89312 0.0
N291 N 0.29237 0.40194 0.88439 0.0
N292 N 0.17084 0.40787 0.89276 0.0
C293 C 0.25377 0.46872 0.88504 0.0
C294 C 0.32197 0.46552 0.88057 0.0
C295 C 0.91757 0.3577 0.16462 0.0
C296 C 1.00754 0.39097 0.16707 0.0
C297 C 0.84702 0.28695 0.17272 0.0
C298 C 0.8633 0.24631 0.18367 0.0
H299 H 0.90149 0.38719 0.15749 0.0
H300 H 0.77961 0.26507 0.1724 0.0
S301 S 1.08498 0.30726 0.19538 0.0
N302 N 1.10739 0.37622 0.18144 0.0
N303 N 0.97565 0.24448 0.19661 0.0
C304 C 0.9524 0.27822 0.18521 0.0
C305 C 1.02412 0.34997 0.17686 0.0
C306 C 0.15441 0.53929 0.05092 0.0
C307 C 0.17423 0.59796 0.0653 0.0
C308 C 0.15355 0.52939 0.01397 0.0
C309 C 0.17019 0.5769 0.98996 0.0
H310 H 1.13818 0.50022 0.06836 0.0
H311 H 1.13685 0.48305 0.00409 0.0
S312 S 0.22587 0.73905 0.01432 0.0
N313 N 0.2123 0.7046 0.05281 0.0
N314 N 0.20863 0.68552 0.98362 0.0
C315 C 0.19051 0.63592 0.00417 0.0
C316 C 0.19285 0.64648 0.04173 0.0
C317 C 0.83818 0.1591 0.35003 0.0
C318 C 0.76557 0.12608 0.37309 0.0
C319 C 0.82782 0.15784 0.3133 0.0
C320 C 0.74446 0.12358 0.29811 0.0
H321 H 0.90342 0.18521 0.36032 0.0
H322 H 0.8854 0.18268 0.29658 0.0
S323 S 0.53461 0.03413 0.34709 0.0
N324 N 0.6083 0.0614 0.37826 0.0
N325 N 0.58901 0.05952 0.30923 0.0
C326 C 0.67169 0.09192 0.32094 0.0
C327 C 0.68228 0.09321 0.35841 0.0
C328 C 0.72181 0.56948 0.7497 0.0
C329 C 0.6415 0.54509 0.76368 0.0
C330 C 0.74075 0.58341 0.71343 0.0
C331 C 0.68089 0.57486 0.69043 0.0
H332 H 0.7683 0.57492 0.76651 0.0
H333 H 0.80191 0.60015 0.70321 0.0
S334 S 0.46502 0.51692 0.71453 0.0
N335 N 0.50382 0.5157 0.75209 0.0
N336 N 0.54069 0.54371 0.68429 0.0
C337 C 0.60236 0.55324 0.70441 0.0
C338 C 0.58238 0.53793 0.74101 0.0
C339 C 0.77922 0.13099 0.59159 0.0
C340 C 0.69673 0.08777 0.57379 0.0
C341 C 0.78399 0.12544 0.62838 0.0
C342 C 0.70653 0.07608 0.64831 0.0
H343 H 0.83999 0.17075 0.57731 0.0
H344 H 0.84818 0.16106 0.64148 0.0
S345 S 0.47583 0.94663 0.614 0.0
N346 N 0.53673 0.99079 0.57885 0.0
N347 N 0.54644 0.981 0.64746 0.0
C348 C 0.62456 1.03103 0.6306 0.0
C349 C 0.61949 0.03664 0.59346 0.0
C350 C 0.54925 0.45692 0.97285 0.0
C351 C 0.6269 0.48695 0.95413 0.0
C352 C 0.51213 0.4029 0.99612 0.0
C353 C 0.54842 0.37387 0.00031 0.0
H354 H 0.51724 0.47586 0.9697 0.0
H355 H 0.45536 0.38507 0.0114 0.0
S356 S 0.74919 0.43177 0.95455 0.0
N357 N 0.74002 0.4851 0.94092 0.0
N358 N 0.66492 0.37808 0.9816 0.0
C359 C 0.62536 0.4027 0.98077 0.0
C360 C 0.66578 0.46041 0.95842 0.0
C361 C 0.26135 0.65544 0.27765 0.0
C362 C 0.26513 0.61167 0.25855 0.0
C363 C 0.25202 0.65164 0.31464 0.0
C364 C 0.24634 0.60398 0.33394 0.0
H365 H 0.26712 0.69368 0.26397 0.0
H366 H 0.24988 0.68674 0.32829 0.0
S367 S 0.25246 0.47755 0.29556 0.0
N368 N 0.26133 0.51872 0.26093 0.0
N369 N 0.24508 0.51187 0.33055 0.0
C370 C 0.24892 0.55925 0.31484 0.0
C371 C 0.25838 0.56324 0.27714 0.0
loop_
_geom_bond_atom_site_label_1
_geom_bond_atom_site_label_2
_geom_bond_distance
_geom_bond_site_symmetry_2
_ccdc_geom_bond_type
La0 C2 2.928 . S
La0 O20 2.521 . S
La0 O21 2.628 . S
La0 O22 2.554 . S
La0 O23 2.757 . S
La0 O24 2.470 . S
La0 O29 2.482 . S
La0 O31 2.503 1_455 S
La1 C11 2.928 . S
La1 O23 2.482 1_655 S
La1 O25 2.503 1_655 S
La1 O26 2.521 . S
La1 O27 2.628 . S
La1 O28 2.554 . S
La1 O29 2.757 1_655 S
La1 O30 2.470 . S
C2 La0 2.928 . S
C2 C3 1.503 . S
C2 O20 1.261 . S
C2 O21 1.243 . S
C3 C2 1.503 . S
C3 C4 1.394 . S
C3 C8 1.373 . S
C4 C3 1.394 . S
C4 C5 1.380 . S
C4 H32 0.930 . S
C5 C4 1.380 . S
C5 C6 1.376 . S
C5 H33 0.930 . S
C6 C5 1.376 . S
C6 C7 1.370 . S
C7 C6 1.370 . S
C7 C8 1.396 . S
C7 H34 0.929 . S
C8 C3 1.373 . S
C8 C7 1.396 . S
C8 H35 0.929 . S
C9 O22 1.240 . S
C9 O23 1.289 . S
C10 O24 1.258 . S
C10 O25 1.256 . S
C11 La1 2.928 . S
C11 C12 1.503 . S
C11 O26 1.261 . S
C11 O27 1.243 . S
C12 C11 1.503 . S
C12 C13 1.394 . S
C12 C17 1.373 . S
C13 C12 1.394 . S
C13 C14 1.380 . S
C13 H36 0.930 . S
C14 C13 1.380 . S
C14 C15 1.376 . S
C14 H37 0.930 . S
C15 C14 1.376 . S
C15 C16 1.370 . S
C16 C15 1.370 . S
C16 C17 1.396 . S
C16 H38 0.929 . S
C17 C12 1.373 . S
C17 C16 1.396 . S
C17 H39 0.929 . S
C18 O28 1.240 1_455 S
C18 O29 1.289 . S
C19 O30 1.258 . S
C19 O31 1.256 . S
O20 La0 2.521 . S
O20 C2 1.261 . S
O21 La0 2.628 . S
O21 C2 1.243 . S
O22 La0 2.554 . S
O22 C9 1.240 . S
O23 La0 2.757 . S
O23 La1 2.482 1_455 S
O23 C9 1.289 . S
O24 La0 2.470 . S
O24 C10 1.258 . S
O25 La1 2.503 1_455 S
O25 C10 1.256 . S
O26 La1 2.521 . S
O26 C11 1.261 . S
O27 La1 2.628 . S
O27 C11 1.243 . S
O28 La1 2.554 . S
O28 C18 1.240 1_655 S
O29 La0 2.482 . S
O29 La1 2.757 1_455 S
O29 C18 1.289 . S
O30 La1 2.470 . S
O30 C19 1.258 . S
O31 La0 2.503 1_655 S
O31 C19 1.256 . S
H32 C4 0.930 . S
H33 C5 0.930 . S
H34 C7 0.929 . S
H35 C8 0.929 . S
H36 C13 0.930 . S
H37 C14 0.930 . S
H38 C16 0.929 . S
H39 C17 0.929 . S
La40 C42 2.928 . S
La40 O60 2.521 . S
La40 O61 2.628 . S
La40 O62 2.554 . S
La40 O63 2.757 1_565 S
La40 O64 2.470 . S
La40 O69 2.482 . S
La40 O71 2.503 1_565 S
La41 C51 2.928 . S
La41 O63 2.482 . S
La41 O65 2.503 1_545 S
La41 O66 2.521 . S
La41 O67 2.628 . S
La41 O68 2.554 . S
La41 O69 2.757 1_545 S
La41 O70 2.470 . S
C42 La40 2.928 . S
C42 C43 1.503 . S
C42 O60 1.261 . S
C42 O61 1.243 . S
C43 C42 1.503 . S
C43 C44 1.394 . S
C43 C48 1.373 . S
C44 C43 1.394 . S
C44 C45 1.380 . S
C44 H72 0.930 . S
C45 C44 1.380 . S
C45 C46 1.376 . S
C45 H73 0.930 . S
C46 C45 1.376 . S
C46 C47 1.370 . S
C47 C46 1.370 . S
C47 C48 1.396 . S
C47 H74 0.929 . S
C48 C43 1.373 . S
C48 C47 1.396 . S
C48 H75 0.929 . S
C49 O62 1.240 1_545 S
C49 O63 1.289 . S
C50 O64 1.258 . S
C50 O65 1.256 . S
C51 La41 2.928 . S
C51 C52 1.503 . S
C51 O66 1.261 . S
C51 O67 1.243 . S
C52 C51 1.503 . S
C52 C53 1.394 . S
C52 C57 1.373 . S
C53 C52 1.394 . S
C53 C54 1.380 . S
C53 H76 0.930 . S
C54 C53 1.380 . S
C54 C55 1.376 . S
C54 H77 0.930 . S
C55 C54 1.376 . S
C55 C56 1.370 . S
C56 C55 1.370 . S
C56 C57 1.396 . S
C56 H78 0.929 . S
C57 C52 1.373 . S
C57 C56 1.396 . S
C57 H79 0.929 . S
C58 O68 1.240 . S
C58 O69 1.289 1_545 S
C59 O70 1.258 . S
C59 O71 1.256 . S
O60 La40 2.521 . S
O60 C42 1.261 . S
O61 La40 2.628 . S
O61 C42 1.243 . S
O62 La40 2.554 . S
O62 C49 1.240 1_565 S
O63 La40 2.757 1_545 S
O63 La41 2.482 . S
O63 C49 1.289 . S
O64 La40 2.470 . S
O64 C50 1.258 . S
O65 La41 2.503 1_565 S
O65 C50 1.256 . S
O66 La41 2.521 . S
O66 C51 1.261 . S
O67 La41 2.628 . S
O67 C51 1.243 . S
O68 La41 2.554 . S
O68 C58 1.240 . S
O69 La40 2.482 . S
O69 La41 2.757 1_565 S
O69 C58 1.289 1_565 S
O70 La41 2.470 . S
O70 C59 1.258 . S
O71 La40 2.503 1_545 S
O71 C59 1.256 . S
H72 C44 0.930 . S
H73 C45 0.930 . S
H74 C47 0.929 . S
H75 C48 0.929 . S
H76 C53 0.930 . S
H77 C54 0.930 . S
H78 C56 0.929 . S
H79 C57 0.929 . S
La80 C82 2.928 . S
La80 O100 2.521 . S
La80 O101 2.628 . S
La80 O102 2.554 . S
La80 O103 2.757 . S
La80 O104 2.470 . S
La80 O109 2.482 . S
La80 O111 2.503 . S
La81 C91 2.928 . S
La81 O103 2.482 . S
La81 O105 2.503 . S
La81 O106 2.521 . S
La81 O107 2.628 . S
La81 O108 2.554 . S
La81 O109 2.757 . S
La81 O110 2.470 . S
C82 La80 2.928 . S
C82 C83 1.503 . S
C82 O100 1.261 . S
C82 O101 1.243 . S
C83 C82 1.503 . S
C83 C84 1.394 . S
C83 C88 1.373 . S
C84 C83 1.394 . S
C84 C85 1.380 . S
C84 H112 0.930 . S
C85 C84 1.380 . S
C85 C86 1.376 . S
C85 H113 0.930 . S
C86 C85 1.376 . S
C86 C87 1.370 . S
C87 C86 1.370 . S
C87 C88 1.396 . S
C87 H114 0.929 . S
C88 C83 1.373 . S
C88 C87 1.396 . S
C88 H115 0.929 . S
C89 O102 1.240 . S
C89 O103 1.289 . S
C90 O104 1.258 . S
C90 O105 1.256 . S
C91 La81 2.928 . S
C91 C92 1.503 . S
C91 O106 1.261 . S
C91 O107 1.243 . S
C92 C91 1.503 . S
C92 C93 1.394 . S
C92 C97 1.373 . S
C93 C92 1.394 . S
C93 C94 1.380 . S
C93 H116 0.930 . S
C94 C93 1.380 . S
C94 C95 1.376 . S
C94 H117 0.930 . S
C95 C94 1.376 . S
C95 C96 1.370 . S
C96 C95 1.370 . S
C96 C97 1.396 . S
C96 H118 0.929 . S
C97 C92 1.373 . S
C97 C96 1.396 . S
C97 H119 0.929 . S
C98 O108 1.240 . S
C98 O109 1.289 . S
C99 O110 1.258 . S
C99 O111 1.256 . S
O100 La80 2.521 . S
O100 C82 1.261 . S
O101 La80 2.628 . S
O101 C82 1.243 . S
O102 La80 2.554 . S
O102 C89 1.240 . S
O103 La80 2.757 . S
O103 La81 2.482 . S
O103 C89 1.289 . S
O104 La80 2.470 . S
O104 C90 1.258 . S
O105 La81 2.503 . S
O105 C90 1.256 . S
O106 La81 2.521 . S
O106 C91 1.261 . S
O107 La81 2.628 . S
O107 C91 1.243 . S
O108 La81 2.554 . S
O108 C98 1.240 . S
O109 La80 2.482 . S
O109 La81 2.757 . S
O109 C98 1.289 . S
O110 La81 2.470 . S
O110 C99 1.258 . S
O111 La80 2.503 . S
O111 C99 1.256 . S
H112 C84 0.930 . S
H113 C85 0.930 . S
H114 C87 0.929 . S
H115 C88 0.929 . S
H116 C93 0.930 . S
H117 C94 0.930 . S
H118 C96 0.929 . S
H119 C97 0.929 . S
H120 C123 0.931 . S
H121 C126 0.928 . S
H122 C128 0.930 . S
C123 H120 0.931 . S
C123 C124 1.413 . S
C123 C125 1.360 1_565 S
C124 C123 1.413 . S
C124 C128 1.429 1_565 S
C125 C123 1.360 1_545 S
C125 C126 1.372 . S
C126 H121 0.928 . S
C126 C125 1.372 . S
C126 C127 1.404 . S
C127 C126 1.404 . S
C127 C128 1.391 . S
C128 H122 0.930 . S
C128 C124 1.429 1_545 S
C128 C127 1.391 . S
H129 C132 0.931 . S
H130 C135 0.928 . S
H131 C137 0.930 . S
C132 H129 0.931 . S
C132 C133 1.413 . S
C132 C134 1.360 . S
C133 C132 1.413 . S
C133 C137 1.429 . S
C134 C132 1.360 . S
C134 C135 1.372 . S
C135 H130 0.928 . S
C135 C134 1.372 . S
C135 C136 1.404 . S
C136 C135 1.404 . S
C136 C137 1.391 . S
C137 H131 0.930 . S
C137 C133 1.429 . S
C137 C136 1.391 . S
H138 C141 0.931 1_655 S
H139 C144 0.928 . S
H140 C146 0.930 . S
C141 H138 0.931 1_455 S
C141 C142 1.413 . S
C141 C143 1.360 . S
C142 C141 1.413 . S
C142 C146 1.429 . S
C143 C141 1.360 . S
C143 C144 1.372 . S
C144 H139 0.928 . S
C144 C143 1.372 . S
C144 C145 1.404 . S
C145 C144 1.404 . S
C145 C146 1.391 . S
C146 H140 0.930 . S
C146 C142 1.429 . S
C146 C145 1.391 . S
H147 C150 0.931 . S
H148 C153 0.928 . S
H149 C155 0.930 . S
C150 H147 0.931 . S
C150 C151 1.413 . S
C150 C152 1.356 1_655 S
C151 C150 1.413 . S
C151 C155 1.429 1_655 S
C152 C150 1.356 1_455 S
C152 C153 1.376 . S
C153 H148 0.928 . S
C153 C152 1.376 . S
C153 C154 1.404 . S
C154 C153 1.404 . S
C154 C155 1.391 . S
C155 H149 0.930 . S
C155 C151 1.429 1_455 S
C155 C154 1.391 . S
H156 C159 0.931 . S
H157 C162 0.928 . S
H158 C164 0.930 . S
C159 H156 0.931 . S
C159 C160 1.413 . S
C159 C161 1.360 1_545 S
C160 C159 1.413 . S
C160 C164 1.429 . S
C161 C159 1.360 1_565 S
C161 C162 1.372 . S
C162 H157 0.928 . S
C162 C161 1.372 . S
C162 C163 1.404 . S
C163 C162 1.404 . S
C163 C164 1.391 1_565 S
C164 H158 0.930 . S
C164 C160 1.429 . S
C164 C163 1.391 1_545 S
H165 C168 0.931 . S
H166 C171 0.928 . S
H167 C173 0.930 . S
C168 H165 0.931 . S
C168 C169 1.413 . S
C168 C170 1.360 . S
C169 C168 1.413 . S
C169 C173 1.429 . S
C170 C168 1.360 . S
C170 C171 1.372 . S
C171 H166 0.928 . S
C171 C170 1.372 . S
C171 C172 1.404 . S
C172 C171 1.404 . S
C172 C173 1.391 . S
C173 H167 0.930 . S
C173 C169 1.429 . S
C173 C172 1.391 . S
C174 C175 1.369 . S
C174 C176 1.419 . S
C174 H178 0.930 . S
C175 C174 1.369 . S
C175 C184 1.429 . S
C176 C174 1.419 . S
C176 C177 1.363 . S
C176 H179 0.929 . S
C177 C176 1.363 . S
C177 C183 1.428 . S
H178 C174 0.930 . S
H179 C176 0.929 . S
S180 N181 1.613 . S
S180 N182 1.610 . S
N181 S180 1.613 . S
N181 C184 1.350 . S
N182 S180 1.610 . S
N182 C183 1.351 . S
C183 C177 1.428 . S
C183 N182 1.351 . S
C183 C184 1.434 . S
C184 C175 1.429 . S
C184 N181 1.350 . S
C184 C183 1.434 . S
C185 C186 1.369 . S
C185 C187 1.419 . S
C185 H189 0.930 . S
C186 C185 1.369 . S
C186 C195 1.429 . S
C187 C185 1.419 . S
C187 C188 1.363 . S
C187 H190 0.929 . S
C188 C187 1.363 . S
C188 C194 1.428 . S
H189 C185 0.930 . S
H190 C187 0.929 . S
S191 N192 1.613 . S
S191 N193 1.610 . S
N192 S191 1.613 . S
N192 C195 1.350 . S
N193 S191 1.610 . S
N193 C194 1.351 . S
C194 C188 1.428 . S
C194 N193 1.351 . S
C194 C195 1.434 . S
C195 C186 1.429 . S
C195 N192 1.350 . S
C195 C194 1.434 . S
C196 C197 1.369 . S
C196 C198 1.419 . S
C196 H200 0.930 . S
C197 C196 1.369 . S
C197 C206 1.429 . S
C198 C196 1.419 . S
C198 C199 1.363 . S
C198 H201 0.929 . S
C199 C198 1.363 . S
C199 C205 1.428 . S
H200 C196 0.930 . S
H201 C198 0.929 . S
S202 N203 1.613 1_545 S
S202 N204 1.610 1_545 S
N203 S202 1.613 1_565 S
N203 C206 1.350 . S
N204 S202 1.610 1_565 S
N204 C205 1.351 . S
C205 C199 1.428 . S
C205 N204 1.351 . S
C205 C206 1.434 . S
C206 C197 1.429 . S
C206 N203 1.350 . S
C206 C205 1.434 . S
C207 C208 1.369 . S
C207 C209 1.419 . S
C207 H211 0.930 . S
C208 C207 1.369 . S
C208 C217 1.429 . S
C209 C207 1.419 . S
C209 C210 1.363 . S
C209 H212 0.929 . S
C210 C209 1.363 . S
C210 C216 1.428 . S
H211 C207 0.930 . S
H212 C209 0.929 . S
S213 N214 1.613 . S
S213 N215 1.610 . S
N214 S213 1.613 . S
N214 C217 1.350 . S
N215 S213 1.610 . S
N215 C216 1.351 . S
C216 C210 1.428 . S
C216 N215 1.351 . S
C216 C217 1.434 . S
C217 C208 1.429 . S
C217 N214 1.350 . S
C217 C216 1.434 . S
C218 C219 1.369 . S
C218 C220 1.419 . S
C218 H222 0.930 . S
C219 C218 1.369 . S
C219 C228 1.429 . S
C220 C218 1.419 . S
C220 C221 1.363 . S
C220 H223 0.929 . S
C221 C220 1.363 . S
C221 C227 1.428 . S
H222 C218 0.930 . S
H223 C220 0.929 . S
S224 N225 1.613 . S
S224 N226 1.610 . S
N225 S224 1.613 . S
N225 C228 1.350 . S
N226 S224 1.610 . S
N226 C227 1.351 . S
C227 C221 1.428 . S
C227 N226 1.351 . S
C227 C228 1.434 . S
C228 C219 1.429 . S
C228 N225 1.350 . S
C228 C227 1.434 . S
C229 C230 1.369 . S
C229 C231 1.419 . S
C229 H233 0.930 . S
C230 C229 1.369 . S
C230 C239 1.429 . S
C231 C229 1.419 . S
C231 C232 1.363 . S
C231 H234 0.929 . S
C232 C231 1.363 . S
C232 C238 1.428 . S
H233 C229 0.930 . S
H234 C231 0.929 . S
S235 N236 1.613 . S
S235 N237 1.610 . S
N236 S235 1.613 . S
N236 C239 1.350 . S
N237 S235 1.610 . S
N237 C238 1.351 . S
C238 C232 1.428 . S
C238 N237 1.351 . S
C238 C239 1.434 . S
C239 C230 1.429 . S
C239 N236 1.350 . S
C239 C238 1.434 . S
C240 C241 1.369 . S
C240 C242 1.419 . S
C240 H244 0.930 . S
C241 C240 1.369 . S
C241 C250 1.429 . S
C242 C240 1.419 . S
C242 C243 1.363 . S
C242 H245 0.929 . S
C243 C242 1.363 . S
C243 C249 1.428 . S
H244 C240 0.930 . S
H245 C242 0.929 . S
S246 N247 1.613 . S
S246 N248 1.610 . S
N247 S246 1.613 . S
N247 C250 1.350 . S
N248 S246 1.610 . S
N248 C249 1.351 . S
C249 C243 1.428 . S
C249 N248 1.351 . S
C249 C250 1.434 . S
C250 C241 1.429 . S
C250 N247 1.350 . S
C250 C249 1.434 . S
C251 C252 1.369 . S
C251 C253 1.419 . S
C251 H255 0.930 . S
C252 C251 1.369 . S
C252 C261 1.429 . S
C253 C251 1.419 . S
C253 C254 1.363 . S
C253 H256 0.929 . S
C254 C253 1.363 . S
C254 C260 1.428 . S
H255 C251 0.930 . S
H256 C253 0.929 . S
S257 N258 1.613 . S
S257 N259 1.610 . S
N258 S257 1.613 . S
N258 C261 1.350 . S
N259 S257 1.610 . S
N259 C260 1.351 . S
C260 C254 1.428 . S
C260 N259 1.351 . S
C260 C261 1.434 . S
C261 C252 1.429 . S
C261 N258 1.350 . S
C261 C260 1.434 . S
C262 C263 1.369 . S
C262 C264 1.419 . S
C262 H266 0.930 . S
C263 C262 1.369 . S
C263 C272 1.429 . S
C264 C262 1.419 . S
C264 C265 1.363 . S
C264 H267 0.929 . S
C265 C264 1.363 . S
C265 C271 1.428 . S
H266 C262 0.930 . S
H267 C264 0.929 . S
S268 N269 1.613 . S
S268 N270 1.610 . S
N269 S268 1.613 . S
N269 C272 1.350 . S
N270 S268 1.610 . S
N270 C271 1.351 . S
C271 C265 1.428 . S
C271 N270 1.351 . S
C271 C272 1.434 . S
C272 C263 1.429 . S
C272 N269 1.350 . S
C272 C271 1.434 . S
C273 C274 1.369 . S
C273 C275 1.419 . S
C273 H277 0.930 . S
C274 C273 1.369 . S
C274 C283 1.429 . S
C275 C273 1.419 . S
C275 C276 1.363 . S
C275 H278 0.929 . S
C276 C275 1.363 . S
C276 C282 1.428 . S
H277 C273 0.930 . S
H278 C275 0.929 . S
S279 N280 1.613 . S
S279 N281 1.610 . S
N280 S279 1.613 . S
N280 C283 1.350 . S
N281 S279 1.610 . S
N281 C282 1.351 . S
C282 C276 1.428 . S
C282 N281 1.351 . S
C282 C283 1.434 . S
C283 C274 1.429 . S
C283 N280 1.350 . S
C283 C282 1.434 . S
C284 C285 1.369 . S
C284 C286 1.419 . S
C284 H288 0.930 . S
C285 C284 1.369 . S
C285 C294 1.429 . S
C286 C284 1.419 . S
C286 C287 1.363 . S
C286 H289 0.929 . S
C287 C286 1.363 . S
C287 C293 1.428 . S
H288 C284 0.930 . S
H289 C286 0.929 . S
S290 N291 1.613 . S
S290 N292 1.610 . S
N291 S290 1.613 . S
N291 C294 1.350 . S
N292 S290 1.610 . S
N292 C293 1.351 . S
C293 C287 1.428 . S
C293 N292 1.351 . S
C293 C294 1.434 . S
C294 C285 1.429 . S
C294 N291 1.350 . S
C294 C293 1.434 . S
C295 C296 1.369 . S
C295 C297 1.419 . S
C295 H299 0.930 . S
C296 C295 1.369 . S
C296 C305 1.429 . S
C297 C295 1.419 . S
C297 C298 1.363 . S
C297 H300 0.929 . S
C298 C297 1.363 . S
C298 C304 1.428 . S
H299 C295 0.930 . S
H300 C297 0.929 . S
S301 N302 1.613 . S
S301 N303 1.610 . S
N302 S301 1.613 . S
N302 C305 1.350 . S
N303 S301 1.610 . S
N303 C304 1.351 . S
C304 C298 1.428 . S
C304 N303 1.351 . S
C304 C305 1.434 . S
C305 C296 1.429 . S
C305 N302 1.350 . S
C305 C304 1.434 . S
C306 C307 1.369 . S
C306 C308 1.419 . S
C306 H310 0.930 . S
C307 C306 1.369 . S
C307 C316 1.429 . S
C308 C306 1.419 . S
C308 C309 1.363 1_554 S
C308 H311 0.929 1_554 S
C309 C308 1.363 1_556 S
C309 C315 1.428 1_556 S
H310 C306 0.930 . S
H311 C308 0.929 1_556 S
S312 N313 1.613 . S
S312 N314 1.610 . S
N313 S312 1.613 . S
N313 C316 1.350 . S
N314 S312 1.610 . S
N314 C315 1.351 . S
C315 C309 1.428 1_554 S
C315 N314 1.351 . S
C315 C316 1.434 . S
C316 C307 1.429 . S
C316 N313 1.350 . S
C316 C315 1.434 . S
C317 C318 1.369 . S
C317 C319 1.419 . S
C317 H321 0.930 1_545 S
C318 C317 1.369 . S
C318 C327 1.429 . S
C319 C317 1.419 . S
C319 C320 1.363 . S
C319 H322 0.929 1_545 S
C320 C319 1.363 . S
C320 C326 1.428 . S
H321 C317 0.930 1_565 S
H322 C319 0.929 1_565 S
S323 N324 1.613 . S
S323 N325 1.610 . S
N324 S323 1.613 . S
N324 C327 1.350 . S
N325 S323 1.610 . S
N325 C326 1.351 . S
C326 C320 1.428 . S
C326 N325 1.351 . S
C326 C327 1.434 . S
C327 C318 1.429 . S
C327 N324 1.350 . S
C327 C326 1.434 . S
C328 C329 1.369 . S
C328 C330 1.419 . S
C328 H332 0.930 . S
C329 C328 1.369 . S
C329 C338 1.429 . S
C330 C328 1.419 . S
C330 C331 1.363 . S
C330 H333 0.929 . S
C331 C330 1.363 . S
C331 C337 1.428 . S
H332 C328 0.930 . S
H333 C330 0.929 . S
S334 N335 1.613 . S
S334 N336 1.610 . S
N335 S334 1.613 . S
N335 C338 1.350 . S
N336 S334 1.610 . S
N336 C337 1.351 . S
C337 C331 1.428 . S
C337 N336 1.351 . S
C337 C338 1.434 . S
C338 C329 1.429 . S
C338 N335 1.350 . S
C338 C337 1.434 . S
C339 C340 1.369 . S
C339 C341 1.419 . S
C339 H343 0.930 . S
C340 C339 1.369 . S
C340 C349 1.429 1_545 S
C341 C339 1.419 . S
C341 C342 1.363 1_545 S
C341 H344 0.929 . S
C342 C341 1.363 1_565 S
C342 C348 1.428 . S
H343 C339 0.930 . S
H344 C341 0.929 . S
S345 N346 1.613 . S
S345 N347 1.610 . S
N346 S345 1.613 . S
N346 C349 1.350 . S
N347 S345 1.610 . S
N347 C348 1.351 . S
C348 C342 1.428 . S
C348 N347 1.351 . S
C348 C349 1.434 . S
C349 C340 1.429 1_565 S
C349 N346 1.350 . S
C349 C348 1.434 . S
C350 C351 1.369 . S
C350 C352 1.419 . S
C350 H354 0.930 . S
C351 C350 1.369 . S
C351 C360 1.429 . S
C352 C350 1.419 . S
C352 C353 1.363 1_556 S
C352 H355 0.929 1_556 S
C353 C352 1.363 1_554 S
C353 C359 1.428 1_554 S
H354 C350 0.930 . S
H355 C352 0.929 1_554 S
S356 N357 1.613 . S
S356 N358 1.610 . S
N357 S356 1.613 . S
N357 C360 1.350 . S
N358 S356 1.610 . S
N358 C359 1.351 . S
C359 C353 1.428 1_556 S
C359 N358 1.351 . S
C359 C360 1.434 . S
C360 C351 1.429 . S
C360 N357 1.350 . S
C360 C359 1.434 . S
C361 C362 1.369 . S
C361 C363 1.419 1_455 S
C361 H365 0.930 1_455 S
C362 C361 1.369 . S
C362 C371 1.429 . S
C363 C361 1.419 1_655 S
C363 C364 1.363 1_655 S
C363 H366 0.929 . S
C364 C363 1.363 1_455 S
C364 C370 1.428 . S
H365 C361 0.930 1_655 S
H366 C363 0.929 . S
S367 N368 1.613 . S
S367 N369 1.610 . S
N368 S367 1.613 . S
N368 C371 1.350 . S
N369 S367 1.610 . S
N369 C370 1.351 . S
C370 C364 1.428 . S
C370 N369 1.351 . S
C370 C371 1.434 . S
C371 C362 1.429 . S
C371 N368 1.350 . S
C371 C370 1.434 . S
C175 C6 1.199 . S
C177 C169 1.389 . S
C186 C59 1.872 . S
C188 C151 1.852 . S
C197 C86 1.646 . S
C199 C163 1.779 . S
C208 C15 0.969 . S
C210 C172 1.109 . S
C221 C154 1.860 . S
C219 C50 1.880 . S
C232 C160 1.600 . S
C230 C95 1.493 . S
C241 C46 1.460 . S
C243 C133 1.558 . S
C252 C99 3.060 . S
C254 C142 3.029 1_655 S
C263 C10 1.910 . S
C265 C124 1.935 . S
C276 C136 1.655 . S
C274 C55 1.534 . S
C287 C145 3.010 . S
C285 C90 2.987 . S
C296 C19 1.870 . S
C298 C127 1.871 . S
C309 C143 1.816 . S
C307 C18 1.735 . S
C318 C49 1.288 . S
C320 C125 1.334 . S
C329 C98 1.420 . S
C331 C134 1.495 . S
C342 C161 1.459 . S
C340 C58 1.403 . S
C353 C170 0.982 . S
C351 C89 0.988 . S
C362 C9 1.263 . S
C364 C152 1.309 . S
