# Generated by pormake.
# Topology ptr, (4,4)-cn, num edge types: 1
# Building blocks:
#     Node 0, Type 0, BuildingBlock: UXUYUI_clean_sbu_0, # of connection points: 4
#     Node 1, Type 0, BuildingBlock: UXUYUI_clean_sbu_0, # of connection points: 4
#     Node 2, Type 0, BuildingBlock: UXUYUI_clean_sbu_0, # of connection points: 4
#     Node 3, Type 0, BuildingBlock: UXUYUI_clean_sbu_0, # of connection points: 4
#     Node 4, Type 0, BuildingBlock: UXUYUI_clean_sbu_0, # of connection points: 4
#     Node 5, Type 0, BuildingBlock: UXUYUI_clean_sbu_0, # of connection points: 4
#     Node 6, Type 0, BuildingBlock: UXUYUI_clean_sbu_0, # of connection points: 4
#     Node 7, Type 0, BuildingBlock: UXUYUI_clean_sbu_0, # of connection points: 4
#     Node 8, Type 0, BuildingBlock: UXUYUI_clean_sbu_0, # of connection points: 4
#     Node 9, Type 0, BuildingBlock: UXUYUI_clean_sbu_0, # of connection points: 4
#     Node 10, Type 0, BuildingBlock: UXUYUI_clean_sbu_0, # of connection points: 4
#     Node 11, Type 0, BuildingBlock: UXUYUI_clean_sbu_0, # of connection points: 4
#     Node 12, Type 0, BuildingBlock: UXUYUI_clean_sbu_0, # of connection points: 4
#     Node 13, Type 0, BuildingBlock: UXUYUI_clean_sbu_0, # of connection points: 4
#     Node 14, Type 0, BuildingBlock: UXUYUI_clean_sbu_0, # of connection points: 4
#     Node 15, Type 0, BuildingBlock: UXUYUI_clean_sbu_0, # of connection points: 4
#     Node 16, Type 0, BuildingBlock: UXUYUI_clean_sbu_0, # of connection points: 4
#     Node 17, Type 0, BuildingBlock: UXUYUI_clean_sbu_0, # of connection points: 4
#     Node 18, Type 1, BuildingBlock: NAHDIM_clean_linker_0, # of connection points: 4
#     Node 19, Type 1, BuildingBlock: NAHDIM_clean_linker_0, # of connection points: 4
#     Node 20, Type 1, BuildingBlock: NAHDIM_clean_linker_0, # of connection points: 4
#     Node 21, Type 1, BuildingBlock: NAHDIM_clean_linker_0, # of connection points: 4
#     Node 22, Type 1, BuildingBlock: NAHDIM_clean_linker_0, # of connection points: 4
#     Node 23, Type 1, BuildingBlock: NAHDIM_clean_linker_0, # of connection points: 4
#     Node 24, Type 1, BuildingBlock: NAHDIM_clean_linker_0, # of connection points: 4
#     Node 25, Type 1, BuildingBlock: NAHDIM_clean_linker_0, # of connection points: 4
#     Node 26, Type 1, BuildingBlock: NAHDIM_clean_linker_0, # of connection points: 4
#     Node 27, Type 1, BuildingBlock: NAHDIM_clean_linker_0, # of connection points: 4
#     Node 28, Type 1, BuildingBlock: NAHDIM_clean_linker_0, # of connection points: 4
#     Node 29, Type 1, BuildingBlock: NAHDIM_clean_linker_0, # of connection points: 4
#     Node 30, Type 1, BuildingBlock: NAHDIM_clean_linker_0, # of connection points: 4
#     Node 31, Type 1, BuildingBlock: NAHDIM_clean_linker_0, # of connection points: 4
#     Node 32, Type 1, BuildingBlock: NAHDIM_clean_linker_0, # of connection points: 4
#     Node 33, Type 1, BuildingBlock: NAHDIM_clean_linker_0, # of connection points: 4
#     Node 34, Type 1, BuildingBlock: NAHDIM_clean_linker_0, # of connection points: 4
#     Node 35, Type 1, BuildingBlock: NAHDIM_clean_linker_0, # of connection points: 4
#     Edge 36, Type (0, 1), BuildingBlock: AJUNOK_clean_linker_0, # of connection points: 2
#     Edge 37, Type (0, 1), BuildingBlock: AJUNOK_clean_linker_0, # of connection points: 2
#     Edge 38, Type (0, 1), BuildingBlock: AJUNOK_clean_linker_0, # of connection points: 2
#     Edge 39, Type (0, 1), BuildingBlock: AJUNOK_clean_linker_0, # of connection points: 2
#     Edge 40, Type (0, 1), BuildingBlock: AJUNOK_clean_linker_0, # of connection points: 2
#     Edge 41, Type (0, 1), BuildingBlock: AJUNOK_clean_linker_0, # of connection points: 2
#     Edge 42, Type (0, 1), BuildingBlock: AJUNOK_clean_linker_0, # of connection points: 2
#     Edge 43, Type (0, 1), BuildingBlock: AJUNOK_clean_linker_0, # of connection points: 2
#     Edge 44, Type (0, 1), BuildingBlock: AJUNOK_clean_linker_0, # of connection points: 2
#     Edge 45, Type (0, 1), BuildingBlock: AJUNOK_clean_linker_0, # of connection points: 2
#     Edge 46, Type (0, 1), BuildingBlock: AJUNOK_clean_linker_0, # of connection points: 2
#     Edge 47, Type (0, 1), BuildingBlock: AJUNOK_clean_linker_0, # of connection points: 2
#     Edge 48, Type (0, 1), BuildingBlock: AJUNOK_clean_linker_0, # of connection points: 2
#     Edge 49, Type (0, 1), BuildingBlock: AJUNOK_clean_linker_0, # of connection points: 2
#     Edge 50, Type (0, 1), BuildingBlock: AJUNOK_clean_linker_0, # of connection points: 2
#     Edge 51, Type (0, 1), BuildingBlock: AJUNOK_clean_linker_0, # of connection points: 2
#     Edge 52, Type (0, 1), BuildingBlock: AJUNOK_clean_linker_0, # of connection points: 2
#     Edge 53, Type (0, 1), BuildingBlock: AJUNOK_clean_linker_0, # of connection points: 2
#     Edge 54, Type (0, 1), BuildingBlock: AJUNOK_clean_linker_0, # of connection points: 2
#     Edge 55, Type (0, 1), BuildingBlock: AJUNOK_clean_linker_0, # of connection points: 2
#     Edge 56, Type (0, 1), BuildingBlock: AJUNOK_clean_linker_0, # of connection points: 2
#     Edge 57, Type (0, 1), BuildingBlock: AJUNOK_clean_linker_0, # of connection points: 2
#     Edge 58, Type (0, 1), BuildingBlock: AJUNOK_clean_linker_0, # of connection points: 2
#     Edge 59, Type (0, 1), BuildingBlock: AJUNOK_clean_linker_0, # of connection points: 2
#     Edge 60, Type (0, 1), BuildingBlock: AJUNOK_clean_linker_0, # of connection points: 2
#     Edge 61, Type (0, 1), BuildingBlock: AJUNOK_clean_linker_0, # of connection points: 2
#     Edge 62, Type (0, 1), BuildingBlock: AJUNOK_clean_linker_0, # of connection points: 2
#     Edge 63, Type (0, 1), BuildingBlock: AJUNOK_clean_linker_0, # of connection points: 2
#     Edge 64, Type (0, 1), BuildingBlock: AJUNOK_clean_linker_0, # of connection points: 2
#     Edge 65, Type (0, 1), BuildingBlock: AJUNOK_clean_linker_0, # of connection points: 2
#     Edge 66, Type (0, 1), BuildingBlock: AJUNOK_clean_linker_0, # of connection points: 2
#     Edge 67, Type (0, 1), BuildingBlock: AJUNOK_clean_linker_0, # of connection points: 2
#     Edge 68, Type (0, 1), BuildingBlock: AJUNOK_clean_linker_0, # of connection points: 2
#     Edge 69, Type (0, 1), BuildingBlock: AJUNOK_clean_linker_0, # of connection points: 2
#     Edge 70, Type (0, 1), BuildingBlock: AJUNOK_clean_linker_0, # of connection points: 2
#     Edge 71, Type (0, 1), BuildingBlock: AJUNOK_clean_linker_0, # of connection points: 2
#     Edge 72, Type (0, 1), BuildingBlock: AJUNOK_clean_linker_0, # of connection points: 2
#     Edge 73, Type (0, 1), BuildingBlock: AJUNOK_clean_linker_0, # of connection points: 2
#     Edge 74, Type (0, 1), BuildingBlock: AJUNOK_clean_linker_0, # of connection points: 2
#     Edge 75, Type (0, 1), BuildingBlock: AJUNOK_clean_linker_0, # of connection points: 2
#     Edge 76, Type (0, 1), BuildingBlock: AJUNOK_clean_linker_0, # of connection points: 2
#     Edge 77, Type (0, 1), BuildingBlock: AJUNOK_clean_linker_0, # of connection points: 2
#     Edge 78, Type (0, 1), BuildingBlock: AJUNOK_clean_linker_0, # of connection points: 2
#     Edge 79, Type (0, 1), BuildingBlock: AJUNOK_clean_linker_0, # of connection points: 2
#     Edge 80, Type (0, 1), BuildingBlock: AJUNOK_clean_linker_0, # of connection points: 2
#     Edge 81, Type (0, 1), BuildingBlock: AJUNOK_clean_linker_0, # of connection points: 2
#     Edge 82, Type (0, 1), BuildingBlock: AJUNOK_clean_linker_0, # of connection points: 2
#     Edge 83, Type (0, 1), BuildingBlock: AJUNOK_clean_linker_0, # of connection points: 2
#     Edge 84, Type (0, 1), BuildingBlock: AJUNOK_clean_linker_0, # of connection points: 2
#     Edge 85, Type (0, 1), BuildingBlock: AJUNOK_clean_linker_0, # of connection points: 2
#     Edge 86, Type (0, 1), BuildingBlock: AJUNOK_clean_linker_0, # of connection points: 2
#     Edge 87, Type (0, 1), BuildingBlock: AJUNOK_clean_linker_0, # of connection points: 2
#     Edge 88, Type (0, 1), BuildingBlock: AJUNOK_clean_linker_0, # of connection points: 2
#     Edge 89, Type (0, 1), BuildingBlock: AJUNOK_clean_linker_0, # of connection points: 2
#     Edge 90, Type (0, 1), BuildingBlock: AJUNOK_clean_linker_0, # of connection points: 2
#     Edge 91, Type (0, 1), BuildingBlock: AJUNOK_clean_linker_0, # of connection points: 2
#     Edge 92, Type (0, 1), BuildingBlock: AJUNOK_clean_linker_0, # of connection points: 2
#     Edge 93, Type (0, 1), BuildingBlock: AJUNOK_clean_linker_0, # of connection points: 2
#     Edge 94, Type (0, 1), BuildingBlock: AJUNOK_clean_linker_0, # of connection points: 2
#     Edge 95, Type (0, 1), BuildingBlock: AJUNOK_clean_linker_0, # of connection points: 2
#     Edge 96, Type (0, 1), BuildingBlock: AJUNOK_clean_linker_0, # of connection points: 2
#     Edge 97, Type (0, 1), BuildingBlock: AJUNOK_clean_linker_0, # of connection points: 2
#     Edge 98, Type (0, 1), BuildingBlock: AJUNOK_clean_linker_0, # of connection points: 2
#     Edge 99, Type (0, 1), BuildingBlock: AJUNOK_clean_linker_0, # of connection points: 2
#     Edge 100, Type (0, 1), BuildingBlock: AJUNOK_clean_linker_0, # of connection points: 2
#     Edge 101, Type (0, 1), BuildingBlock: AJUNOK_clean_linker_0, # of connection points: 2
#     Edge 102, Type (0, 1), BuildingBlock: AJUNOK_clean_linker_0, # of connection points: 2
#     Edge 103, Type (0, 1), BuildingBlock: AJUNOK_clean_linker_0, # of connection points: 2
#     Edge 104, Type (0, 1), BuildingBlock: AJUNOK_clean_linker_0, # of connection points: 2
#     Edge 105, Type (0, 1), BuildingBlock: AJUNOK_clean_linker_0, # of connection points: 2
#     Edge 106, Type (0, 1), BuildingBlock: AJUNOK_clean_linker_0, # of connection points: 2
#     Edge 107, Type (0, 1), BuildingBlock: AJUNOK_clean_linker_0, # of connection points: 2
# Relax obj value: 0.120
# Max RMSD: 0.338
# Mean RMSD: 0.137
data_MOF--net-ptr--node1-UXUYUI_clean_sbu_0--node2-NAHDIM_clean_linker_0--edge1-AJUNOK_clean_linker_0
_symmetry_space_group_name_H-M    P1
_symmetry_Int_Tables_number       1
_symmetry_cell_setting            triclinic
loop_
_symmetry_equiv_pos_as_xyz
'x, y, z'
_cell_length_a     93.22772
_cell_length_b     93.067797
_cell_length_c     76.464523
_cell_angle_alpha  90.909844
_cell_angle_beta   90.320541
_cell_angle_gamma 120.42968
loop_
_atom_site_label
_atom_site_type_symbol
_atom_site_fract_x
_atom_site_fract_y
_atom_site_fract_z
_atom_type_partial_charge
Li0 Li 0.99567 0.32724 0.00678 0.0
Li1 Li 0.02524 0.34467 0.01551 0.0
Li2 Li 0.00355 0.351 0.02567 0.0
Li3 Li 0.01218 0.35543 0.99593 0.0
C4 C 0.99785 0.31574 0.03731 0.0
N5 N 0.98176 0.28372 0.0499 0.0
C6 C 0.00575 0.30637 0.03719 0.0
C7 C 0.98179 0.30885 0.04392 0.0
C8 C 0.99741 0.2902 0.0436 0.0
C9 C 0.97385 0.29263 0.05018 0.0
C10 C 0.01728 0.33615 0.97423 0.0
C11 C 0.03393 0.34646 0.94839 0.0
N12 N 0.02015 0.33698 0.93825 0.0
C13 C 0.00329 0.32647 0.96354 0.0
C14 C 0.03274 0.34619 0.9666 0.0
C15 C 0.005 0.32706 0.94538 0.0
C16 C 0.96385 0.29974 0.99635 0.0
N17 N 0.98002 0.30494 0.00024 0.0
C18 C 0.97677 0.27913 0.98985 0.0
C19 C 0.98653 0.29495 0.99737 0.0
C20 C 0.96023 0.27366 0.98499 0.0
C21 C 0.95362 0.28397 0.98871 0.0
H22 H 0.95912 0.3081 0.99842 0.0
H23 H 0.99957 0.29964 0.00013 0.0
C24 C 0.04688 0.34359 0.04005 0.0
N25 N 0.04349 0.34255 0.02261 0.0
C26 C 0.05697 0.33775 0.04653 0.0
C27 C 0.06088 0.33113 0.01684 0.0
C28 C 0.05051 0.33687 0.01095 0.0
C29 C 0.06363 0.33096 0.03486 0.0
H30 H 0.04074 0.34778 0.04899 0.0
H31 H 0.0472 0.33577 0.99722 0.0
C32 C 0.97755 0.34824 0.00906 0.0
N33 N 0.95456 0.35706 0.01908 0.0
C34 C 0.9789 0.36303 0.0032 0.0
C35 C 0.96445 0.33789 0.0199 0.0
C36 C 0.96716 0.36727 0.00844 0.0
C37 C 0.95297 0.34258 0.02486 0.0
C38 C 0.04088 0.38085 0.0136 0.0
C39 C 0.04299 0.39636 0.01846 0.0
C40 C 0.05383 0.38005 0.00541 0.0
C41 C 0.05797 0.41084 0.01482 0.0
C42 C 0.06862 0.3948 0.00202 0.0
N43 N 0.07036 0.40976 0.00674 0.0
C44 C 0.99449 0.35377 0.06063 0.0
C45 C 0.00012 0.37598 0.0418 0.0
C46 C 0.99275 0.36241 0.0748 0.0
N47 N 0.99823 0.36074 0.04459 0.0
C48 C 0.99848 0.38502 0.05553 0.0
C49 C 0.995 0.37835 0.07233 0.0
H50 H 0.99349 0.34182 0.06256 0.0
H51 H 0.00341 0.38133 0.02898 0.0
C52 C 0.00026 0.36085 0.96522 0.0
N53 N 0.01402 0.36818 0.97579 0.0
C54 C 0.99904 0.36915 0.95079 0.0
C55 C 0.02635 0.39237 0.9581 0.0
C56 C 0.02711 0.38353 0.97232 0.0
C57 C 0.01202 0.3853 0.94736 0.0
H58 H 0.99002 0.34863 0.96824 0.0
H59 H 0.03799 0.38917 0.98069 0.0
O60 O 0.00573 0.33154 0.03092 0.0
O61 O 0.01579 0.33602 0.99205 0.0
O62 O 0.98901 0.34393 0.00422 0.0
O63 O 0.02632 0.36656 0.01715 0.0
H64 H 0.01811 0.3114 0.03199 0.0
H65 H 0.97551 0.31593 0.04416 0.0
H66 H 0.00336 0.28279 0.04352 0.0
H67 H 0.96141 0.28712 0.05528 0.0
H68 H 0.04581 0.35424 0.94232 0.0
H69 H 0.99117 0.31877 0.96913 0.0
H70 H 0.04371 0.35378 0.97461 0.0
H71 H 0.99426 0.3197 0.93696 0.0
H72 H 0.98236 0.27163 0.98697 0.0
H73 H 0.94087 0.28009 0.98522 0.0
H74 H 0.05883 0.3377 0.06052 0.0
H75 H 0.06569 0.32578 0.00754 0.0
H76 H 0.98902 0.37127 0.99492 0.0
H77 H 0.96319 0.32639 0.0245 0.0
H78 H 0.9681 0.37872 0.00409 0.0
H79 H 0.94281 0.33472 0.03331 0.0
H80 H 0.03318 0.39724 0.02492 0.0
H81 H 0.05246 0.36821 0.0016 0.0
H82 H 0.05974 0.42292 0.01844 0.0
H83 H 0.07871 0.39436 0.99561 0.0
H84 H 0.99039 0.35702 0.08766 0.0
H85 H 0.0003 0.39727 0.05314 0.0
H86 H 0.98797 0.36306 0.94255 0.0
H87 H 0.03665 0.40479 0.95583 0.0
Li88 Li 0.67222 0.65854 0.00208 0.0
Li89 Li 0.65802 0.66959 0.01971 0.0
Li90 Li 0.65113 0.64046 0.02202 0.0
Li91 Li 0.64309 0.6498 0.99606 0.0
C92 C 0.68883 0.66794 0.0314 0.0
N93 N 0.72282 0.68256 0.03616 0.0
C94 C 0.69894 0.68529 0.03168 0.0
C95 C 0.69598 0.65802 0.03362 0.0
C96 C 0.71611 0.69244 0.03409 0.0
C97 C 0.7132 0.66565 0.036 0.0
C98 C 0.65891 0.67915 0.98101 0.0
C99 C 0.64156 0.6887 0.96829 0.0
N100 N 0.64976 0.69127 0.95295 0.0
C101 C 0.66718 0.6819 0.96513 0.0
C102 C 0.64603 0.68261 0.98263 0.0
C103 C 0.66237 0.68805 0.95111 0.0
C104 C 0.69859 0.65392 0.98981 0.0
N105 N 0.69317 0.6649 0.99203 0.0
C106 C 0.71866 0.68706 0.98117 0.0
C107 C 0.70279 0.68118 0.9878 0.0
C108 C 0.72481 0.67614 0.97916 0.0
C109 C 0.71449 0.65932 0.9834 0.0
H110 H 0.69071 0.64106 0.99332 0.0
H111 H 0.69816 0.68964 0.98977 0.0
C112 C 0.6627 0.68843 0.05049 0.0
N113 N 0.66178 0.68879 0.03277 0.0
C114 C 0.66762 0.70286 0.06058 0.0
C115 C 0.67053 0.71776 0.034 0.0
C116 C 0.66551 0.70303 0.02443 0.0
C117 C 0.67179 0.71781 0.0523 0.0
H118 H 0.66032 0.6771 0.05674 0.0
H119 H 0.6653 0.70318 0.01032 0.0
C120 C 0.648 0.61925 0.99665 0.0
N121 N 0.63603 0.58536 0.99712 0.0
C122 C 0.63273 0.60812 0.98861 0.0
C123 C 0.65725 0.61316 0.0048 0.0
C124 C 0.62688 0.59103 0.98901 0.0
C125 C 0.65095 0.59598 0.00495 0.0
C126 C 0.62751 0.6528 0.03267 0.0
C127 C 0.62818 0.64888 0.05012 0.0
C128 C 0.61877 0.6608 0.02819 0.0
C129 C 0.62019 0.65315 0.06282 0.0
C130 C 0.61093 0.66484 0.04127 0.0
N131 N 0.6118 0.66098 0.05817 0.0
C132 C 0.65297 0.62385 0.05206 0.0
C133 C 0.62839 0.60874 0.03473 0.0
C134 C 0.64701 0.61105 0.06414 0.0
N135 N 0.64363 0.62245 0.03771 0.0
C136 C 0.6221 0.59551 0.04626 0.0
C137 C 0.63142 0.59671 0.06122 0.0
H138 H 0.66487 0.63506 0.05432 0.0
H139 H 0.62103 0.60818 0.02348 0.0
C140 C 0.63104 0.64351 0.96124 0.0
N141 N 0.6266 0.64319 0.97819 0.0
C142 C 0.61921 0.63875 0.94782 0.0
C143 C 0.59829 0.63272 0.96959 0.0
C144 C 0.61059 0.63783 0.98259 0.0
C145 C 0.60257 0.63329 0.95191 0.0
H146 H 0.6438 0.64744 0.95817 0.0
H147 H 0.60734 0.63731 0.9962 0.0
O148 O 0.67208 0.66069 0.02838 0.0
O149 O 0.66325 0.67289 0.99483 0.0
O150 O 0.65384 0.63602 0.99656 0.0
O151 O 0.63537 0.64886 0.02005 0.0
H152 H 0.69364 0.69316 0.02979 0.0
H153 H 0.68835 0.64457 0.03325 0.0
H154 H 0.72411 0.70585 0.03421 0.0
H155 H 0.71892 0.65813 0.03761 0.0
H156 H 0.63156 0.69135 0.96934 0.0
H157 H 0.67709 0.67917 0.9636 0.0
H158 H 0.63947 0.68049 0.99479 0.0
H159 H 0.66862 0.6902 0.93873 0.0
H160 H 0.72602 0.70002 0.97765 0.0
H161 H 0.71879 0.65051 0.98207 0.0
H162 H 0.66891 0.7025 0.07463 0.0
H163 H 0.67381 0.7291 0.02715 0.0
H164 H 0.62541 0.61262 0.98223 0.0
H165 H 0.66898 0.62157 0.01128 0.0
H166 H 0.61506 0.58227 0.9829 0.0
H167 H 0.6579 0.59108 0.01136 0.0
H168 H 0.63496 0.64281 0.05389 0.0
H169 H 0.61802 0.66383 0.01475 0.0
H170 H 0.62069 0.65027 0.07639 0.0
H171 H 0.60414 0.67104 0.03798 0.0
H172 H 0.65442 0.61233 0.07565 0.0
H173 H 0.60993 0.58466 0.04379 0.0
H174 H 0.62303 0.63934 0.93438 0.0
H175 H 0.58552 0.62806 0.97336 0.0
Li176 Li 0.35 0.99675 0.99379 0.0
Li177 Li 0.35565 0.00907 0.02335 0.0
Li178 Li 0.32672 0.98971 0.01315 0.0
Li179 Li 0.34218 0.01752 0.00174 0.0
C180 C 0.34403 0.97025 0.01849 0.0
N181 N 0.34192 0.93981 0.02291 0.0
C182 C 0.35717 0.96946 0.02637 0.0
C183 C 0.32968 0.95551 0.01316 0.0
C184 C 0.35591 0.95397 0.0284 0.0
C185 C 0.32889 0.94026 0.01542 0.0
C186 C 0.37638 0.03705 0.004 0.0
C187 C 0.38651 0.06243 0.02112 0.0
N188 N 0.39946 0.07034 0.01003 0.0
C189 C 0.38978 0.04541 0.99277 0.0
C190 C 0.37471 0.04561 0.01831 0.0
C191 C 0.40132 0.06225 0.99604 0.0
C192 C 0.35897 0.99544 0.9593 0.0
N193 N 0.35931 0.99007 0.97563 0.0
C194 C 0.37524 0.97802 0.96574 0.0
C195 C 0.36722 0.9815 0.97908 0.0
C196 C 0.37525 0.98359 0.94879 0.0
C197 C 0.36694 0.99234 0.94559 0.0
H198 H 0.3528 0.00246 0.95703 0.0
H199 H 0.36774 0.97779 0.99224 0.0
C200 C 0.36797 0.01832 0.05852 0.0
N201 N 0.37118 0.01515 0.04203 0.0
C202 C 0.37927 0.02132 0.07217 0.0
C203 C 0.3969 0.01787 0.05149 0.0
C204 C 0.38542 0.0152 0.03824 0.0
C205 C 0.39374 0.02075 0.0687 0.0
H206 H 0.3565 0.01814 0.06112 0.0
H207 H 0.38759 0.01264 0.02497 0.0
C208 C 0.31788 0.98464 0.97671 0.0
N209 N 0.29533 0.96098 0.95321 0.0
C210 C 0.30643 0.98746 0.96779 0.0
C211 C 0.31798 0.96987 0.97351 0.0
C212 C 0.29509 0.97532 0.95602 0.0
C213 C 0.30646 0.95804 0.96163 0.0
C214 C 0.3226 0.01336 0.03114 0.0
C215 C 0.31045 0.01086 0.01869 0.0
C216 C 0.32107 0.01746 0.04841 0.0
C217 C 0.29698 0.01252 0.02375 0.0
C218 C 0.30741 0.019 0.05296 0.0
N219 N 0.29574 0.01651 0.04064 0.0
C220 C 0.30443 0.96713 0.03729 0.0
C221 C 0.29138 0.97044 0.01222 0.0
C222 C 0.28903 0.95767 0.04526 0.0
N223 N 0.30532 0.9735 0.02119 0.0
C224 C 0.27579 0.96116 0.01971 0.0
C225 C 0.27456 0.95507 0.03661 0.0
H226 H 0.31575 0.97004 0.04426 0.0
H227 H 0.29236 0.97597 0.9997 0.0
C228 C 0.33531 0.03365 0.97558 0.0
N229 N 0.33952 0.03499 0.99281 0.0
C230 C 0.32994 0.04391 0.96859 0.0
C231 C 0.33439 0.05749 0.99697 0.0
C232 C 0.33958 0.04687 0.00346 0.0
C233 C 0.32909 0.05574 0.97944 0.0
H234 H 0.3354 0.02409 0.96745 0.0
H235 H 0.34279 0.04752 0.01717 0.0
O236 O 0.34502 0.98534 0.01661 0.0
O237 O 0.36499 0.02057 0.00089 0.0
O238 O 0.32912 0.99649 0.9882 0.0
O239 O 0.33571 0.0114 0.02662 0.0
H240 H 0.36829 0.98069 0.03077 0.0
H241 H 0.31917 0.95577 0.00749 0.0
H242 H 0.36605 0.95321 0.03436 0.0
H243 H 0.31787 0.92877 0.01131 0.0
H244 H 0.38536 0.06921 0.03213 0.0
H245 H 0.39123 0.03894 0.98164 0.0
H246 H 0.36444 0.03937 0.02715 0.0
H247 H 0.41175 0.06888 0.98745 0.0
H248 H 0.38183 0.97154 0.96876 0.0
H249 H 0.36674 0.99686 0.93267 0.0
H250 H 0.37649 0.02349 0.08535 0.0
H251 H 0.40802 0.01746 0.04839 0.0
H252 H 0.30617 0.99883 0.97009 0.0
H253 H 0.32696 0.96762 0.97995 0.0
H254 H 0.28609 0.97729 0.94912 0.0
H255 H 0.30641 0.94655 0.95905 0.0
H256 H 0.31134 0.00759 0.00528 0.0
H257 H 0.3303 0.01935 0.05823 0.0
H258 H 0.28748 0.01057 0.01426 0.0
H259 H 0.30606 0.02215 0.0663 0.0
H260 H 0.2885 0.95317 0.05836 0.0
H261 H 0.26485 0.95924 0.01261 0.0
H262 H 0.32601 0.04227 0.95499 0.0
H263 H 0.33368 0.06633 0.00577 0.0
Li264 Li 0.01436 0.67501 0.01566 0.0
Li265 Li 0.99408 0.64727 0.02474 0.0
Li266 Li 0.00324 0.65128 0.99535 0.0
Li267 Li 0.9849 0.66196 0.00574 0.0
C268 C 0.0277 0.65721 0.03022 0.0
N269 N 0.04873 0.66119 0.05785 0.0
C270 C 0.02488 0.66155 0.04691 0.0
C271 C 0.0412 0.65486 0.02761 0.0
C272 C 0.03564 0.66349 0.0607 0.0
C273 C 0.05171 0.65696 0.04173 0.0
C274 C 0.9883 0.67271 0.04321 0.0
C275 C 0.96527 0.67119 0.05901 0.0
N276 N 0.97614 0.68238 0.07106 0.0
C277 C 0.99925 0.68427 0.05569 0.0
C278 C 0.97118 0.66618 0.0448 0.0
C279 C 0.99285 0.68897 0.0697 0.0
C280 C 0.02657 0.70809 0.01855 0.0
N281 N 0.03131 0.69686 0.02229 0.0
C282 C 0.05559 0.71787 0.03751 0.0
C283 C 0.04572 0.70145 0.03121 0.0
C284 C 0.05049 0.7295 0.03453 0.0
C285 C 0.03607 0.72455 0.02442 0.0
H286 H 0.01507 0.70406 0.01139 0.0
H287 H 0.04935 0.69237 0.0339 0.0
C288 C 0.99227 0.61992 0.04136 0.0
N289 N 0.98782 0.63169 0.0433 0.0
C290 C 0.98888 0.60836 0.05441 0.0
C291 C 0.97653 0.62134 0.07139 0.0
C292 C 0.97999 0.63254 0.05789 0.0
C293 C 0.9811 0.60915 0.06974 0.0
H294 H 0.99861 0.61962 0.02967 0.0
H295 H 0.97658 0.64197 0.0592 0.0
C296 C 0.01821 0.68279 0.98043 0.0
N297 N 0.04386 0.70173 0.95804 0.0
C298 C 0.01648 0.69282 0.9682 0.0
C299 C 0.03299 0.6824 0.98131 0.0
C300 C 0.02959 0.7023 0.95698 0.0
C301 C 0.04581 0.69206 0.96987 0.0
C302 C 0.96838 0.62302 0.00803 0.0
C303 C 0.97064 0.60963 0.00385 0.0
C304 C 0.95456 0.62032 0.01764 0.0
C305 C 0.95912 0.59375 0.00962 0.0
C306 C 0.94333 0.60425 0.02318 0.0
N307 N 0.94583 0.59141 0.01911 0.0
C308 C 0.01315 0.63085 0.97793 0.0
C309 C 0.0007 0.64225 0.96001 0.0
C310 C 0.01284 0.62077 0.96402 0.0
N311 N 0.00677 0.64099 0.97574 0.0
C312 C 0.00022 0.63246 0.94576 0.0
C313 C 0.00586 0.62119 0.94787 0.0
H314 H 0.01773 0.63001 0.99068 0.0
H315 H 0.99546 0.65024 0.9588 0.0
C316 C 0.97291 0.68362 0.00429 0.0
N317 N 0.96913 0.66799 0.99933 0.0
C318 C 0.96304 0.68998 0.99862 0.0
C319 C 0.94542 0.66396 0.98296 0.0
C320 C 0.95566 0.65807 0.98898 0.0
C321 C 0.9492 0.68018 0.98767 0.0
H322 H 0.98383 0.69127 0.01236 0.0
H323 H 0.95317 0.64579 0.98501 0.0
O324 O 0.01726 0.655 0.01648 0.0
O325 O 0.99438 0.66822 0.02924 0.0
O326 O 0.00551 0.67353 0.99156 0.0
O327 O 0.97974 0.63872 0.00288 0.0
H328 H 0.01453 0.66342 0.04923 0.0
H329 H 0.04353 0.65146 0.01477 0.0
H330 H 0.0336 0.66685 0.07367 0.0
H331 H 0.06222 0.6552 0.03988 0.0
H332 H 0.95205 0.6662 0.06043 0.0
H333 H 0.01255 0.68957 0.05457 0.0
H334 H 0.96256 0.65735 0.03518 0.0
H335 H 0.00117 0.69788 0.07947 0.0
H336 H 0.06674 0.7213 0.04511 0.0
H337 H 0.032 0.73326 0.02132 0.0
H338 H 0.99261 0.59915 0.05274 0.0
H339 H 0.97034 0.62217 0.08297 0.0
H340 H 0.00511 0.69327 0.96742 0.0
H341 H 0.03458 0.67475 0.99074 0.0
H342 H 0.02842 0.71012 0.94744 0.0
H343 H 0.05732 0.69188 0.97039 0.0
H344 H 0.98128 0.61153 0.99641 0.0
H345 H 0.9526 0.63055 0.02087 0.0
H346 H 0.96077 0.58328 0.0066 0.0
H347 H 0.93263 0.60199 0.03073 0.0
H348 H 0.01762 0.61247 0.96605 0.0
H349 H 0.99454 0.63301 0.93359 0.0
H350 H 0.96629 0.70251 0.00261 0.0
H351 H 0.93501 0.65614 0.9743 0.0
Li352 Li 0.33117 0.35041 0.01754 0.0
Li353 Li 0.36013 0.35942 0.02378 0.0
Li354 Li 0.35281 0.36934 0.99732 0.0
Li355 Li 0.34645 0.34089 0.99939 0.0
C356 C 0.34938 0.38006 0.03857 0.0
N357 N 0.34916 0.39302 0.07128 0.0
C358 C 0.34133 0.36943 0.0524 0.0
C359 C 0.35727 0.3973 0.04136 0.0
C360 C 0.34137 0.3762 0.06884 0.0
C361 C 0.35703 0.40361 0.058 0.0
C362 C 0.34234 0.32833 0.03789 0.0
C363 C 0.35739 0.31733 0.05298 0.0
N364 N 0.34609 0.31216 0.06603 0.0
C365 C 0.33084 0.32284 0.05143 0.0
C366 C 0.35568 0.32549 0.03864 0.0
C367 C 0.33297 0.31472 0.06554 0.0
C368 C 0.2996 0.32563 0.02358 0.0
N369 N 0.30944 0.34235 0.02609 0.0
C370 C 0.28739 0.34384 0.04015 0.0
C371 C 0.30365 0.35162 0.03388 0.0
C372 C 0.27714 0.32645 0.03824 0.0
C373 C 0.28334 0.3174 0.02952 0.0
H374 H 0.30451 0.31868 0.01702 0.0
H375 H 0.31164 0.36498 0.03534 0.0
C376 C 0.39289 0.3752 0.03754 0.0
N377 N 0.37662 0.36602 0.042 0.0
C378 C 0.40545 0.38018 0.05026 0.0
C379 C 0.38429 0.36631 0.07194 0.0
C380 C 0.37217 0.36169 0.05887 0.0
C381 C 0.40118 0.37574 0.06773 0.0
H382 H 0.39612 0.37861 0.02407 0.0
H383 H 0.35923 0.35442 0.06222 0.0
C384 C 0.3203 0.35274 0.98456 0.0
N385 N 0.29754 0.36027 0.97062 0.0
C386 C 0.30934 0.34271 0.97119 0.0
C387 C 0.31965 0.36658 0.99089 0.0
C388 C 0.29794 0.34673 0.9643 0.0
C389 C 0.30806 0.37018 0.98366 0.0
C390 C 0.37658 0.35566 0.98906 0.0
C391 C 0.37538 0.35646 0.97092 0.0
C392 C 0.38542 0.34862 0.99612 0.0
C393 C 0.38287 0.34999 0.96011 0.0
C394 C 0.39275 0.34229 0.98488 0.0
N395 N 0.39131 0.34308 0.96725 0.0
C396 C 0.37006 0.40307 0.98836 0.0
C397 C 0.35518 0.3845 0.96473 0.0
C398 C 0.37629 0.41666 0.9773 0.0
N399 N 0.35977 0.3874 0.98192 0.0
C400 C 0.36117 0.39773 0.95317 0.0
C401 C 0.37195 0.41406 0.95943 0.0
H402 H 0.37368 0.40496 0.00203 0.0
H403 H 0.34718 0.37186 0.95991 0.0
C404 C 0.34188 0.30853 0.99333 0.0
N405 N 0.34242 0.32191 0.98577 0.0
C406 C 0.33521 0.29337 0.98412 0.0
C407 C 0.33055 0.30628 0.95924 0.0
C408 C 0.33732 0.32119 0.96893 0.0
C409 C 0.32889 0.292 0.96709 0.0
H410 H 0.34578 0.30931 0.00678 0.0
H411 H 0.33767 0.33197 0.96334 0.0
O412 O 0.34954 0.3737 0.02235 0.0
O413 O 0.3405 0.33642 0.02403 0.0
O414 O 0.33149 0.34889 0.99143 0.0
O415 O 0.36899 0.36157 0.99984 0.0
H416 H 0.33516 0.35608 0.05049 0.0
H417 H 0.36351 0.40574 0.03081 0.0
H418 H 0.33521 0.36809 0.07966 0.0
H419 H 0.3631 0.41693 0.06034 0.0
H420 H 0.36772 0.31514 0.05376 0.0
H421 H 0.32041 0.32489 0.0511 0.0
H422 H 0.36474 0.3297 0.02835 0.0
H423 H 0.32419 0.31046 0.07612 0.0
H424 H 0.28295 0.35125 0.0466 0.0
H425 H 0.27565 0.30408 0.02721 0.0
H426 H 0.41835 0.38746 0.04649 0.0
H427 H 0.38044 0.36223 0.08516 0.0
H428 H 0.30964 0.33192 0.9662 0.0
H429 H 0.32799 0.37448 0.00125 0.0
H430 H 0.28939 0.33909 0.95393 0.0
H431 H 0.30743 0.38085 0.98842 0.0
H432 H 0.36856 0.36185 0.96526 0.0
H433 H 0.38664 0.34807 0.01013 0.0
H434 H 0.38193 0.35041 0.94604 0.0
H435 H 0.39958 0.33676 0.99016 0.0
H436 H 0.38458 0.42906 0.98262 0.0
H437 H 0.35783 0.39515 0.93942 0.0
H438 H 0.33436 0.28266 0.9905 0.0
H439 H 0.32577 0.30568 0.94614 0.0
Li440 Li 0.6633 0.98978 0.01336 0.0
Li441 Li 0.65468 0.0096 0.02303 0.0
Li442 Li 0.64855 0.99784 0.99209 0.0
Li443 Li 0.67652 0.01834 0.00166 0.0
C444 C 0.62756 0.97067 0.01874 0.0
N445 N 0.60129 0.93967 0.0271 0.0
C446 C 0.6226 0.96702 0.0361 0.0
C447 C 0.61895 0.95861 0.00559 0.0
C448 C 0.60936 0.95126 0.04008 0.0
C449 C 0.60576 0.943 0.01009 0.0
C450 C 0.68243 0.0173 0.04242 0.0
C451 C 0.69244 0.03926 0.06441 0.0
N452 N 0.69351 0.02898 0.07613 0.0
C453 C 0.68371 0.00698 0.05465 0.0
C454 C 0.68692 0.0336 0.0473 0.0
C455 C 0.68931 0.01311 0.07163 0.0
C456 C 0.68425 0.97722 0.01681 0.0
N457 N 0.66877 0.97385 0.02124 0.0
C458 C 0.6656 0.9522 0.04005 0.0
C459 C 0.65929 0.96145 0.0324 0.0
C460 C 0.6818 0.95583 0.03618 0.0
C461 C 0.69105 0.96832 0.02414 0.0
H462 H 0.69163 0.98741 0.0082 0.0
H463 H 0.64718 0.9592 0.03602 0.0
C464 C 0.63808 0.02436 0.04003 0.0
N465 N 0.64568 0.01534 0.0425 0.0
C466 C 0.63012 0.0273 0.05393 0.0
C467 C 0.63829 0.01191 0.07265 0.0
C468 C 0.64594 0.00917 0.05842 0.0
C469 C 0.63008 0.02093 0.07048 0.0
H470 H 0.6378 0.02887 0.02716 0.0
H471 H 0.65169 0.0017 0.05999 0.0
C472 C 0.66742 0.98495 0.97694 0.0
N473 N 0.66383 0.96056 0.95323 0.0
C474 C 0.677 0.98931 0.96184 0.0
C475 C 0.65621 0.96817 0.98009 0.0
C476 C 0.67494 0.97681 0.94997 0.0
C477 C 0.65452 0.95603 0.96793 0.0
C478 C 0.66373 0.03666 0.99381 0.0
C479 C 0.66375 0.03851 0.97571 0.0
C480 C 0.67119 0.05078 0.00483 0.0
C481 C 0.67147 0.05451 0.9689 0.0
C482 C 0.67878 0.06657 0.9975 0.0
N483 N 0.67878 0.0681 0.97984 0.0
C484 C 0.61705 0.98669 0.97646 0.0
C485 C 0.63858 0.99251 0.95646 0.0
C486 C 0.60575 0.98315 0.96268 0.0
N487 N 0.63311 0.99127 0.97311 0.0
C488 C 0.62772 0.98906 0.94232 0.0
C489 C 0.61113 0.98456 0.94535 0.0
H490 H 0.61313 0.9861 0.98984 0.0
H491 H 0.65149 0.99659 0.95413 0.0
C492 C 0.71032 0.04437 0.00437 0.0
N493 N 0.69723 0.03544 0.99321 0.0
C494 C 0.72625 0.05457 0.99786 0.0
C495 C 0.71484 0.04652 0.9685 0.0
C496 C 0.69913 0.03656 0.97558 0.0
C497 C 0.72868 0.05542 0.97971 0.0
H498 H 0.70858 0.04292 0.01831 0.0
H499 H 0.68854 0.0291 0.96702 0.0
O500 O 0.64035 0.98615 0.01457 0.0
O501 O 0.67687 0.01147 0.02576 0.0
O502 O 0.66932 0.99707 0.98869 0.0
O503 O 0.65653 0.0211 0.00071 0.0
H504 H 0.629 0.97617 0.04644 0.0
H505 H 0.62231 0.96127 0.99203 0.0
H506 H 0.60549 0.94824 0.05348 0.0
H507 H 0.59905 0.93356 5e-05 0.0
H508 H 0.69588 0.05182 0.06838 0.0
H509 H 0.68035 0.99435 0.05111 0.0
H510 H 0.68607 0.04176 0.03799 0.0
H511 H 0.69031 0.00524 0.08125 0.0
H512 H 0.65812 0.9427 0.04933 0.0
H513 H 0.70373 0.97181 0.02115 0.0
H514 H 0.62364 0.03401 0.05159 0.0
H515 H 0.63859 0.00681 0.08519 0.0
H516 H 0.68589 0.00221 0.95925 0.0
H517 H 0.64906 0.96453 0.9919 0.0
H518 H 0.6822 0.98002 0.93818 0.0
H519 H 0.64586 0.94299 0.97023 0.0
H520 H 0.65801 0.0277 0.96702 0.0
H521 H 0.67109 0.04955 0.01887 0.0
H522 H 0.67168 0.05613 0.9549 0.0
H523 H 0.68466 0.07762 0.00587 0.0
H524 H 0.59306 0.97976 0.96553 0.0
H525 H 0.63228 0.99002 0.92914 0.0
H526 H 0.73668 0.06096 0.00693 0.0
H527 H 0.71626 0.04684 0.95443 0.0
Li528 Li 0.65415 0.66497 0.33511 0.0
Li529 Li 0.6805 0.67574 0.35068 0.0
Li530 Li 0.66153 0.686 0.35758 0.0
Li531 Li 0.67708 0.69339 0.33062 0.0
C532 C 0.65194 0.65978 0.37673 0.0
N533 N 0.64063 0.65431 0.41068 0.0
C534 C 0.66238 0.66069 0.39042 0.0
C535 C 0.63572 0.65605 0.3803 0.0
C536 C 0.65642 0.65786 0.40749 0.0
C537 C 0.63025 0.65336 0.39756 0.0
C538 C 0.68569 0.66563 0.32012 0.0
C539 C 0.71254 0.66825 0.316 0.0
N540 N 0.70493 0.65172 0.3118 0.0
C541 C 0.67813 0.64867 0.31574 0.0
C542 C 0.70303 0.67553 0.3202 0.0
C543 C 0.68808 0.64188 0.31157 0.0
C544 C 0.63635 0.64288 0.30672 0.0
N545 N 0.63663 0.64528 0.32434 0.0
C546 C 0.61275 0.61826 0.32758 0.0
C547 C 0.62514 0.6334 0.33478 0.0
C548 C 0.61231 0.61531 0.30949 0.0
C549 C 0.62424 0.62783 0.29897 0.0
H550 H 0.64579 0.6525 0.29878 0.0
H551 H 0.62585 0.6355 0.34875 0.0
C552 C 0.70986 0.67849 0.36699 0.0
N553 N 0.69449 0.66828 0.35986 0.0
C554 C 0.71926 0.67176 0.37337 0.0
C555 C 0.69692 0.64433 0.36471 0.0
C556 C 0.68788 0.65151 0.3588 0.0
C557 C 0.71273 0.65444 0.37231 0.0
H558 H 0.71474 0.69178 0.3678 0.0
H559 H 0.67559 0.64372 0.35314 0.0
C560 C 0.63992 0.68014 0.3227 0.0
N561 N 0.6131 0.66732 0.29968 0.0
C562 C 0.64247 0.68325 0.30483 0.0
C563 C 0.62372 0.6705 0.32886 0.0
C564 C 0.62874 0.67669 0.2934 0.0
C565 C 0.61033 0.66412 0.31701 0.0
C566 C 0.69727 0.71544 0.35366 0.0
C567 C 0.69255 0.72717 0.35761 0.0
C568 C 0.71324 0.72075 0.34749 0.0
C569 C 0.70388 0.74406 0.35517 0.0
C570 C 0.7242 0.73775 0.3452 0.0
N571 N 0.71933 0.74896 0.34904 0.0
C572 C 0.66079 0.69806 0.39164 0.0
C573 C 0.64077 0.69701 0.37159 0.0
C574 C 0.65504 0.70435 0.40482 0.0
N575 N 0.65348 0.69438 0.37548 0.0
C576 C 0.63468 0.70333 0.38433 0.0
C577 C 0.64175 0.70696 0.40124 0.0
H578 H 0.67108 0.69611 0.39427 0.0
H579 H 0.6355 0.69441 0.35851 0.0
C580 C 0.69898 0.71259 0.30305 0.0
N581 N 0.68714 0.711 0.31444 0.0
C582 C 0.70564 0.72565 0.29124 0.0
C583 C 0.68774 0.73505 0.30312 0.0
C584 C 0.68153 0.72192 0.31474 0.0
C585 C 0.69983 0.73692 0.29109 0.0
H586 H 0.70313 0.70366 0.30299 0.0
H587 H 0.6721 0.72033 0.32396 0.0
O588 O 0.65761 0.66277 0.35994 0.0
O589 O 0.67617 0.67247 0.32453 0.0
O590 O 0.65321 0.68608 0.33404 0.0
O591 O 0.68619 0.69881 0.35549 0.0
H592 H 0.67499 0.66367 0.38797 0.0
H593 H 0.62755 0.65557 0.36992 0.0
H594 H 0.66438 0.65856 0.41822 0.0
H595 H 0.61779 0.6506 0.40052 0.0
H596 H 0.72598 0.67574 0.31614 0.0
H597 H 0.66475 0.64077 0.31576 0.0
H598 H 0.70911 0.68861 0.3238 0.0
H599 H 0.68239 0.62876 0.30823 0.0
H600 H 0.60396 0.60874 0.33613 0.0
H601 H 0.6243 0.62591 0.28497 0.0
H602 H 0.73136 0.68 0.37928 0.0
H603 H 0.6916 0.63104 0.36295 0.0
H604 H 0.65491 0.69048 0.29978 0.0
H605 H 0.62153 0.66773 0.3426 0.0
H606 H 0.63054 0.67896 0.27954 0.0
H607 H 0.59775 0.65655 0.32158 0.0
H608 H 0.68021 0.72327 0.36229 0.0
H609 H 0.71707 0.71183 0.34435 0.0
H610 H 0.70037 0.75327 0.35807 0.0
H611 H 0.73656 0.74204 0.34033 0.0
H612 H 0.66086 0.70707 0.41769 0.0
H613 H 0.62474 0.70563 0.3809 0.0
H614 H 0.71494 0.72672 0.28209 0.0
H615 H 0.68315 0.74366 0.30353 0.0
Li616 Li 0.30064 0.97828 0.33728 0.0
Li617 Li 0.30667 0.9676 0.36311 0.0
Li618 Li 0.32087 0.99817 0.35931 0.0
Li619 Li 0.32793 0.98063 0.34179 0.0
C620 C 0.28048 0.97385 0.36736 0.0
N621 N 0.2479 0.95722 0.37837 0.0
C622 C 0.26861 0.95922 0.35871 0.0
C623 C 0.27576 0.98006 0.38158 0.0
C624 C 0.25222 0.95098 0.36448 0.0
C625 C 0.25923 0.97146 0.38696 0.0
C626 C 0.29921 0.94334 0.33895 0.0
C627 C 0.30037 0.91937 0.34859 0.0
N628 N 0.28535 0.90918 0.34075 0.0
C629 C 0.28378 0.93261 0.33096 0.0
C630 C 0.30759 0.93666 0.34781 0.0
C631 C 0.27698 0.91539 0.33201 0.0
C632 C 0.28317 0.96588 0.30563 0.0
N633 N 0.2843 0.97496 0.32018 0.0
C634 C 0.26114 0.97725 0.31049 0.0
C635 C 0.27379 0.9809 0.3227 0.0
C636 C 0.25917 0.96721 0.29571 0.0
C637 C 0.27057 0.96172 0.29323 0.0
H638 H 0.29183 0.96148 0.30389 0.0
H639 H 0.27506 0.98824 0.33433 0.0
C640 C 0.30624 0.95383 0.39575 0.0
N641 N 0.2974 0.95082 0.38057 0.0
C642 C 0.30059 0.94182 0.40871 0.0
C643 C 0.27677 0.9239 0.39026 0.0
C644 C 0.28272 0.93634 0.37782 0.0
C645 C 0.28579 0.92658 0.40587 0.0
H646 H 0.31778 0.96549 0.39772 0.0
H647 H 0.27572 0.93423 0.36583 0.0
C648 C 0.32167 0.01032 0.3257 0.0
N649 N 0.31817 0.03485 0.30981 0.0
C650 C 0.33034 0.01761 0.31046 0.0
C651 C 0.31122 0.0155 0.33287 0.0
C652 C 0.32841 0.03 0.30262 0.0
C653 C 0.30962 0.02791 0.32464 0.0
C654 C 0.34608 0.98781 0.37046 0.0
C655 C 0.35951 0.00407 0.3692 0.0
C656 C 0.34899 0.97487 0.37431 0.0
C657 C 0.37569 0.00706 0.37151 0.0
C658 C 0.36535 0.97837 0.37653 0.0
N659 N 0.37825 0.99425 0.37507 0.0
C660 C 0.32445 0.01909 0.38787 0.0
C661 C 0.34139 0.03337 0.36384 0.0
C662 C 0.33122 0.03394 0.3977 0.0
N663 N 0.32962 0.01908 0.37129 0.0
C664 C 0.34847 0.04849 0.3732 0.0
C665 C 0.34343 0.04886 0.39038 0.0
H666 H 0.31537 0.00748 0.39359 0.0
H667 H 0.34554 0.03298 0.35076 0.0
C668 C 0.34631 0.96694 0.32615 0.0
N669 N 0.34632 0.98119 0.33036 0.0
C670 C 0.36031 0.96767 0.31876 0.0
C671 C 0.37389 0.99774 0.31956 0.0
C672 C 0.35961 0.99641 0.32692 0.0
C673 C 0.37442 0.98323 0.31564 0.0
H674 H 0.33552 0.95499 0.32865 0.0
H675 H 0.35918 0.00755 0.33018 0.0
O676 O 0.29659 0.98219 0.36188 0.0
O677 O 0.30603 0.96026 0.33815 0.0
O678 O 0.32341 0.99812 0.33343 0.0
O679 O 0.33018 0.98457 0.36772 0.0
H680 H 0.27204 0.95422 0.34771 0.0
H681 H 0.28476 0.99143 0.38836 0.0
H682 H 0.24293 0.93963 0.35791 0.0
H683 H 0.25541 0.97613 0.39796 0.0
H684 H 0.30669 0.91407 0.35551 0.0
H685 H 0.27701 0.93747 0.32415 0.0
H686 H 0.31942 0.94473 0.35424 0.0
H687 H 0.26503 0.90696 0.32594 0.0
H688 H 0.25295 0.98217 0.31265 0.0
H689 H 0.26951 0.95395 0.28204 0.0
H690 H 0.30786 0.94424 0.42063 0.0
H691 H 0.26524 0.9123 0.38774 0.0
H692 H 0.33847 0.01372 0.30475 0.0
H693 H 0.30444 0.01002 0.34468 0.0
H694 H 0.33504 0.03576 0.29082 0.0
H695 H 0.30158 0.03204 0.33005 0.0
H696 H 0.35751 0.01423 0.36618 0.0
H697 H 0.33875 0.96226 0.37559 0.0
H698 H 0.38621 0.01956 0.37039 0.0
H699 H 0.36778 0.96846 0.37942 0.0
H700 H 0.32735 0.03355 0.41108 0.0
H701 H 0.3578 0.05973 0.36703 0.0
H702 H 0.36023 0.9562 0.31586 0.0
H703 H 0.3844 0.00996 0.31699 0.0
Li704 Li 0.02391 0.32689 0.32885 0.0
Li705 Li 0.03232 0.34203 0.35683 0.0
Li706 Li 0.00284 0.32413 0.34871 0.0
Li707 Li 0.02013 0.35079 0.33464 0.0
C708 C 0.0233 0.30525 0.35134 0.0
N709 N 0.03162 0.28085 0.34701 0.0
C710 C 0.03843 0.30779 0.35797 0.0
C711 C 0.01232 0.29024 0.34267 0.0
C712 C 0.04242 0.29531 0.35562 0.0
C713 C 0.01679 0.27808 0.34055 0.0
C714 C 0.05041 0.3636 0.32309 0.0
C715 C 0.0661 0.39324 0.31856 0.0
N716 N 0.06779 0.39032 0.30142 0.0
C717 C 0.05232 0.36089 0.30545 0.0
C718 C 0.05739 0.3799 0.32974 0.0
C719 C 0.06116 0.37456 0.29471 0.0
C720 C 0.02045 0.30801 0.29775 0.0
N721 N 0.03028 0.31605 0.31196 0.0
C722 C 0.0505 0.30913 0.30268 0.0
C723 C 0.04516 0.31695 0.31448 0.0
C724 C 0.04057 0.30064 0.28797 0.0
C725 C 0.02545 0.30023 0.28544 0.0
H726 H 0.00881 0.30773 0.29593 0.0
H727 H 0.05289 0.32379 0.32568 0.0
C728 C 0.04395 0.34189 0.39114 0.0
N729 N 0.04833 0.34934 0.37536 0.0
C730 C 0.05556 0.3474 0.40491 0.0
C731 C 0.07607 0.36779 0.38575 0.0
C732 C 0.06405 0.36195 0.3724 0.0
C733 C 0.07183 0.36061 0.40231 0.0
H734 H 0.0314 0.33172 0.39303 0.0
H735 H 0.06729 0.3674 0.35963 0.0
C736 C 0.9882 0.32097 0.31813 0.0
N737 N 0.95477 0.3045 0.30922 0.0
C738 C 0.98009 0.32996 0.31557 0.0
C739 C 0.97935 0.30363 0.31601 0.0
C740 C 0.96317 0.32139 0.31108 0.0
C741 C 0.96244 0.29552 0.31156 0.0
C742 C 0.01655 0.35282 0.37614 0.0
C743 C 0.0067 0.34261 0.38955 0.0
C744 C 0.02951 0.36897 0.38016 0.0
C745 C 0.01002 0.34874 0.40679 0.0
C746 C 0.03246 0.37461 0.39758 0.0
N747 N 0.02274 0.36447 0.41042 0.0
C748 C 0.97602 0.29465 0.36326 0.0
C749 C 0.97089 0.31664 0.35766 0.0
C750 C 0.95995 0.28487 0.36969 0.0
N751 N 0.98108 0.31016 0.35733 0.0
C752 C 0.95472 0.30726 0.36377 0.0
C753 C 0.94904 0.29113 0.36988 0.0
H754 H 0.9845 0.28994 0.36316 0.0
H755 H 0.97538 0.32914 0.35314 0.0
C756 C 0.02101 0.37195 0.30746 0.0
N757 N 0.01973 0.36934 0.32499 0.0
C758 C 0.0205 0.38556 0.30067 0.0
C759 C 0.01707 0.39325 0.33003 0.0
C760 C 0.01771 0.37959 0.33624 0.0
C761 C 0.01836 0.39631 0.31204 0.0
H762 H 0.02236 0.36344 0.29878 0.0
H763 H 0.01649 0.37712 0.35005 0.0
O764 O 0.01931 0.31745 0.35322 0.0
O765 O 0.04157 0.35039 0.33377 0.0
O766 O 0.00467 0.3291 0.32286 0.0
O767 O 0.0137 0.34695 0.35921 0.0
H768 H 0.0471 0.31935 0.36468 0.0
H769 H 0.00057 0.28809 0.33744 0.0
H770 H 0.05413 0.29714 0.36059 0.0
H771 H 0.00847 0.26646 0.33373 0.0
H772 H 0.07146 0.40592 0.32349 0.0
H773 H 0.04694 0.34837 0.30006 0.0
H774 H 0.05588 0.38223 0.34332 0.0
H775 H 0.0627 0.37265 0.28101 0.0
H776 H 0.06238 0.30993 0.30485 0.0
H777 H 0.01757 0.29387 0.27414 0.0
H778 H 0.05184 0.3415 0.41748 0.0
H779 H 0.0886 0.37768 0.38308 0.0
H780 H 0.98674 0.34338 0.3172 0.0
H781 H 0.98544 0.29649 0.31797 0.0
H782 H 0.95671 0.32817 0.30915 0.0
H783 H 0.95541 0.2821 0.31001 0.0
H784 H 0.99669 0.33005 0.38671 0.0
H785 H 0.03737 0.37698 0.36998 0.0
H786 H 0.00254 0.34096 0.4173 0.0
H787 H 0.04252 0.38704 0.40089 0.0
H788 H 0.95622 0.27267 0.37471 0.0
H789 H 0.94672 0.31256 0.36364 0.0
H790 H 0.02152 0.38753 0.2867 0.0
H791 H 0.0157 0.40143 0.33924 0.0
Li792 Li 0.67924 0.99712 0.35223 0.0
Li793 Li 0.66242 0.96831 0.36014 0.0
Li794 Li 0.68055 0.97645 0.33329 0.0
Li795 Li 0.65456 0.97876 0.33425 0.0
C796 C 0.70004 0.98819 0.36991 0.0
N797 N 0.72642 0.00222 0.39347 0.0
C798 C 0.69755 0.99136 0.38722 0.0
C799 C 0.71589 0.99204 0.36459 0.0
C800 C 0.71107 0.9985 0.39893 0.0
C801 C 0.72908 0.99915 0.3767 0.0
C802 C 0.64723 0.98777 0.37198 0.0
C803 C 0.62152 0.98342 0.38409 0.0
N804 N 0.63007 0.993 0.3983 0.0
C805 C 0.65578 0.99771 0.38663 0.0
C806 C 0.62998 0.98068 0.37062 0.0
C807 C 0.64687 0.00014 0.39982 0.0
C808 C 0.68279 0.028 0.36076 0.0
N809 N 0.6915 0.01988 0.36065 0.0
C810 C 0.7162 0.04481 0.37013 0.0
C811 C 0.70796 0.02798 0.36504 0.0
C812 C 0.70746 0.05345 0.37048 0.0
C813 C 0.69055 0.04483 0.3656 0.0
H814 H 0.66986 0.02145 0.35665 0.0
H815 H 0.71488 0.0216 0.36418 0.0
C816 C 0.64992 0.93662 0.37583 0.0
N817 N 0.65392 0.9527 0.37882 0.0
C818 C 0.64306 0.92495 0.3891 0.0
C819 C 0.64514 0.94669 0.40846 0.0
C820 C 0.65189 0.95789 0.39485 0.0
C821 C 0.6406 0.92997 0.40567 0.0
H822 H 0.65195 0.93281 0.3631 0.0
H823 H 0.65544 0.97071 0.39714 0.0
C824 C 0.68722 0.01103 0.32154 0.0
N825 N 0.70762 0.04419 0.31376 0.0
C826 C 0.68031 0.02083 0.31739 0.0
C827 C 0.70448 0.01802 0.32162 0.0
C828 C 0.69084 0.0376 0.31352 0.0
C829 C 0.71459 0.03483 0.31768 0.0
C830 C 0.64166 0.94388 0.33413 0.0
C831 C 0.6399 0.93109 0.32289 0.0
C832 C 0.62802 0.94186 0.34362 0.0
C833 C 0.62445 0.91644 0.32131 0.0
C834 C 0.61278 0.92703 0.3417 0.0
N835 N 0.61132 0.91473 0.33066 0.0
C836 C 0.69906 0.9612 0.32143 0.0
C837 C 0.69538 0.9784 0.30154 0.0
C838 C 0.70761 0.95748 0.30881 0.0
N839 N 0.69317 0.9715 0.31754 0.0
C840 C 0.7039 0.97514 0.28866 0.0
C841 C 0.7101 0.9645 0.29216 0.0
H842 H 0.69692 0.95572 0.33421 0.0
H843 H 0.69037 0.98636 0.29872 0.0
C844 C 0.63135 0.98776 0.32226 0.0
N845 N 0.63722 0.97716 0.31977 0.0
C846 C 0.61943 0.98732 0.31072 0.0
C847 C 0.61963 0.96487 0.29459 0.0
C848 C 0.63169 0.96592 0.30623 0.0
C849 C 0.61351 0.97578 0.29668 0.0
H850 H 0.63615 0.99674 0.33303 0.0
H851 H 0.63692 0.95799 0.30423 0.0
O852 O 0.68702 0.98121 0.35822 0.0
O853 O 0.65574 0.98548 0.35873 0.0
O854 O 0.67716 0.99476 0.32597 0.0
O855 O 0.65668 0.95834 0.33575 0.0
H856 H 0.68537 0.98846 0.39151 0.0
H857 H 0.71797 0.98962 0.35122 0.0
H858 H 0.70936 0.0011 0.41235 0.0
H859 H 0.74143 0.00226 0.37277 0.0
H860 H 0.60817 0.97796 0.38323 0.0
H861 H 0.66912 0.00332 0.38792 0.0
H862 H 0.62318 0.97322 0.35924 0.0
H863 H 0.65332 0.00771 0.41128 0.0
H864 H 0.72931 0.05106 0.37357 0.0
H865 H 0.68348 0.05112 0.36501 0.0
H866 H 0.63976 0.91215 0.38646 0.0
H867 H 0.6432 0.95103 0.42096 0.0
H868 H 0.66696 0.0156 0.31736 0.0
H869 H 0.71001 0.0106 0.32496 0.0
H870 H 0.68568 0.04538 0.31039 0.0
H871 H 0.72798 0.04046 0.31782 0.0
H872 H 0.65037 0.9325 0.31544 0.0
H873 H 0.62924 0.95161 0.35245 0.0
H874 H 0.62289 0.90643 0.31263 0.0
H875 H 0.60213 0.92529 0.34899 0.0
H876 H 0.71192 0.94898 0.31194 0.0
H877 H 0.70564 0.9809 0.27606 0.0
H878 H 0.61485 0.99581 0.31284 0.0
H879 H 0.61558 0.95601 0.28372 0.0
Li880 Li 0.0327 0.69689 0.36081 0.0
Li881 Li 0.00328 0.68866 0.35305 0.0
Li882 Li 0.01715 0.67705 0.33772 0.0
Li883 Li 0.02525 0.70538 0.33204 0.0
C884 C 0.01013 0.65976 0.36558 0.0
N885 N 0.00633 0.62853 0.36915 0.0
C886 C 0.99423 0.6456 0.36538 0.0
C887 C 0.02409 0.65804 0.36767 0.0
C888 C 0.99258 0.62992 0.36717 0.0
C889 C 0.02191 0.64214 0.36946 0.0
C890 C 0.02189 0.72185 0.36876 0.0
C891 C 0.01989 0.746 0.37645 0.0
N892 N 0.01957 0.74239 0.39366 0.0
C893 C 0.02154 0.71837 0.38651 0.0
C894 C 0.02109 0.73578 0.36366 0.0
C895 C 0.02037 0.72891 0.39891 0.0
C896 C 0.06469 0.71524 0.37747 0.0
N897 N 0.04851 0.70317 0.37937 0.0
C898 C 0.05394 0.69841 0.40862 0.0
C899 C 0.043 0.6948 0.39455 0.0
C900 C 0.07075 0.71065 0.40704 0.0
C901 C 0.07613 0.7192 0.39125 0.0
H902 H 0.06871 0.72168 0.36523 0.0
H903 H 0.03007 0.68523 0.39567 0.0
C904 C 0.96938 0.6682 0.35527 0.0
N905 N 0.98187 0.68312 0.36153 0.0
C906 C 0.95302 0.66224 0.36039 0.0
C907 C 0.96254 0.6872 0.37822 0.0
C908 C 0.97876 0.6927 0.37272 0.0
C909 C 0.94944 0.67178 0.37201 0.0
H910 H 0.97217 0.66094 0.3462 0.0
H911 H 0.98874 0.70458 0.37742 0.0
C912 C 0.04978 0.69215 0.3272 0.0
N913 N 0.06919 0.68343 0.30775 0.0
C914 C 0.04747 0.68989 0.30908 0.0
C915 C 0.06204 0.69011 0.33543 0.0
C916 C 0.05738 0.68543 0.29948 0.0
C917 C 0.07171 0.68567 0.32536 0.0
C918 C 0.99307 0.68974 0.31933 0.0
C919 C 0.98356 0.68069 0.30468 0.0
C920 C 0.99219 0.70347 0.32553 0.0
C921 C 0.97329 0.68554 0.29648 0.0
C922 C 0.98176 0.70791 0.31699 0.0
N923 N 0.97261 0.69893 0.30275 0.0
C924 C 0.99647 0.64777 0.31968 0.0
C925 C 0.02318 0.65105 0.32399 0.0
C926 C 0.99122 0.6331 0.31 0.0
N927 N 0.0123 0.65661 0.32614 0.0
C928 C 0.01851 0.63652 0.31413 0.0
C929 C 0.00238 0.62748 0.30691 0.0
H930 H 0.98795 0.65224 0.32189 0.0
H931 H 0.03549 0.65789 0.32975 0.0
C932 C 0.04232 0.73834 0.31824 0.0
N933 N 0.03259 0.72177 0.31448 0.0
C934 C 0.04748 0.74991 0.30481 0.0
C935 C 0.03254 0.7271 0.28404 0.0
C936 C 0.0277 0.71603 0.29779 0.0
C937 C 0.04268 0.74427 0.28743 0.0
H938 H 0.0461 0.74255 0.33164 0.0
H939 H 0.01998 0.7028 0.29515 0.0
O940 O 0.01207 0.67519 0.36331 0.0
O941 O 0.02321 0.71181 0.3564 0.0
O942 O 0.04029 0.69659 0.33685 0.0
O943 O 0.00321 0.68511 0.32741 0.0
H944 H 0.9833 0.6467 0.36376 0.0
H945 H 0.03649 0.66885 0.36762 0.0
H946 H 0.98036 0.61884 0.36694 0.0
H947 H 0.0326 0.64062 0.37098 0.0
H948 H 0.01922 0.75681 0.37268 0.0
H949 H 0.02185 0.70749 0.39067 0.0
H950 H 0.02135 0.73866 0.34997 0.0
H951 H 0.02001 0.72633 0.41269 0.0
H952 H 0.04936 0.69147 0.42054 0.0
H953 H 0.08899 0.72884 0.38961 0.0
H954 H 0.94324 0.65037 0.35516 0.0
H955 H 0.96031 0.69484 0.38735 0.0
H956 H 0.03799 0.69135 0.30254 0.0
H957 H 0.06398 0.69183 0.34946 0.0
H958 H 0.05566 0.68353 0.28545 0.0
H959 H 0.0812 0.68398 0.33155 0.0
H960 H 0.98415 0.67007 0.29964 0.0
H961 H 0.99942 0.71062 0.33683 0.0
H962 H 0.96588 0.67866 0.28511 0.0
H963 H 0.98094 0.7185 0.32168 0.0
H964 H 0.97871 0.6265 0.3045 0.0
H965 H 0.02739 0.63244 0.31208 0.0
H966 H 0.05526 0.76308 0.30793 0.0
H967 H 0.02821 0.72226 0.27089 0.0
Li968 Li 0.31651 0.34355 0.36519 0.0
Li969 Li 0.32327 0.32252 0.35926 0.0
Li970 Li 0.33668 0.34715 0.34284 0.0
Li971 Li 0.30671 0.32625 0.33752 0.0
C972 C 0.34944 0.36067 0.37537 0.0
N973 N 0.3717 0.39172 0.38958 0.0
C974 C 0.36084 0.36232 0.38833 0.0
C975 C 0.34939 0.37483 0.36961 0.0
C976 C 0.37198 0.37812 0.39536 0.0
C977 C 0.36074 0.39041 0.37696 0.0
C978 C 0.29173 0.30647 0.37268 0.0
C979 C 0.26926 0.27851 0.37744 0.0
N980 N 0.27369 0.28024 0.39467 0.0
C981 C 0.29602 0.30802 0.39043 0.0
C982 C 0.27822 0.29166 0.36611 0.0
C983 C 0.28676 0.29459 0.40133 0.0
C984 C 0.29971 0.35943 0.37888 0.0
N985 N 0.31032 0.35391 0.38281 0.0
C986 C 0.31155 0.36206 0.41281 0.0
C987 C 0.31625 0.35507 0.39936 0.0
C988 C 0.30058 0.36785 0.40921 0.0
C989 C 0.29463 0.36648 0.39197 0.0
H990 H 0.29504 0.35815 0.36562 0.0
H991 H 0.32455 0.35045 0.40216 0.0
C992 C 0.34542 0.31391 0.37169 0.0
N993 N 0.32874 0.30717 0.36946 0.0
C994 C 0.35197 0.304 0.37653 0.0
C995 C 0.324 0.28039 0.37755 0.0
C996 C 0.31798 0.29077 0.37249 0.0
C997 C 0.34125 0.28692 0.37916 0.0
H998 H 0.35373 0.3269 0.3689 0.0
H999 H 0.30481 0.28549 0.37023 0.0
C1000 C 0.31717 0.35817 0.32522 0.0
N1001 N 0.3156 0.37159 0.29379 0.0
C1002 C 0.32052 0.35252 0.30957 0.0
C1003 C 0.31302 0.37063 0.32488 0.0
C1004 C 0.31965 0.35946 0.29382 0.0
C1005 C 0.31231 0.37728 0.30886 0.0
C1006 C 0.32673 0.30974 0.33018 0.0
C1007 C 0.34174 0.31047 0.32645 0.0
C1008 C 0.31213 0.29423 0.33114 0.0
C1009 C 0.34193 0.29565 0.32397 0.0
C1010 C 0.31282 0.27971 0.3285 0.0
N1011 N 0.32759 0.28071 0.32505 0.0
C1012 C 0.36911 0.3575 0.33514 0.0
C1013 C 0.36078 0.37537 0.32274 0.0
C1014 C 0.38448 0.36605 0.32706 0.0
N1015 N 0.35747 0.36195 0.33248 0.0
C1016 C 0.37607 0.38432 0.31438 0.0
C1017 C 0.38805 0.37952 0.31632 0.0
H1018 H 0.36623 0.347 0.34325 0.0
H1019 H 0.35155 0.37901 0.32119 0.0
C1020 C 0.27693 0.32041 0.32138 0.0
N1021 N 0.28961 0.31723 0.32005 0.0
C1022 C 0.26532 0.31585 0.3077 0.0
C1023 C 0.27973 0.30436 0.29186 0.0
C1024 C 0.29119 0.30935 0.3057 0.0
C1025 C 0.2668 0.30788 0.29267 0.0
H1026 H 0.2762 0.32699 0.33281 0.0
H1027 H 0.30169 0.3075 0.30467 0.0
O1028 O 0.33849 0.34521 0.36845 0.0
O1029 O 0.30056 0.31945 0.36178 0.0
O1030 O 0.3175 0.35129 0.34078 0.0
O1031 O 0.32634 0.32407 0.33327 0.0
H1032 H 0.36104 0.35148 0.39294 0.0
H1033 H 0.34071 0.37388 0.3596 0.0
H1034 H 0.38086 0.37957 0.40542 0.0
H1035 H 0.36082 0.40146 0.37263 0.0
H1036 H 0.2588 0.26694 0.37255 0.0
H1037 H 0.30649 0.3194 0.39567 0.0
H1038 H 0.27472 0.29033 0.35239 0.0
H1039 H 0.28998 0.29556 0.41509 0.0
H1040 H 0.31647 0.36296 0.4259 0.0
H1041 H 0.2859 0.37051 0.38872 0.0
H1042 H 0.36535 0.30952 0.37743 0.0
H1043 H 0.31529 0.26734 0.37971 0.0
H1044 H 0.32379 0.34291 0.30956 0.0
H1045 H 0.31033 0.37509 0.33688 0.0
H1046 H 0.3222 0.3552 0.28162 0.0
H1047 H 0.3091 0.38693 0.3084 0.0
H1048 H 0.35315 0.32231 0.32552 0.0
H1049 H 0.30042 0.29343 0.33419 0.0
H1050 H 0.35348 0.29604 0.32118 0.0
H1051 H 0.30163 0.26764 0.32935 0.0
H1052 H 0.39324 0.36175 0.32869 0.0
H1053 H 0.37843 0.39473 0.3063 0.0
H1054 H 0.25547 0.31876 0.3087 0.0
H1055 H 0.28135 0.29844 0.28033 0.0
Li1056 Li 0.32619 0.00711 0.66601 0.0
Li1057 Li 0.35144 0.02433 0.68248 0.0
Li1058 Li 0.32632 0.0277 0.68604 0.0
Li1059 Li 0.34344 0.03602 0.6584 0.0
C1060 C 0.31841 0.99286 0.69666 0.0
N1061 N 0.29615 0.96007 0.70435 0.0
C1062 C 0.32372 0.98127 0.69723 0.0
C1063 C 0.30184 0.98785 0.70013 0.0
C1064 C 0.31225 0.96472 0.70109 0.0
C1065 C 0.29077 0.97119 0.70397 0.0
C1066 C 0.35738 0.01941 0.64227 0.0
C1067 C 0.38269 0.03157 0.62571 0.0
N1068 N 0.37402 0.02187 0.61162 0.0
C1069 C 0.34874 0.00953 0.62761 0.0
C1070 C 0.37452 0.03048 0.64132 0.0
C1071 C 0.35737 0.01096 0.61225 0.0
C1072 C 0.29589 0.97679 0.6567 0.0
N1073 N 0.31279 0.98464 0.6574 0.0
C1074 C 0.31218 0.9603 0.64591 0.0
C1075 C 0.32096 0.97657 0.65266 0.0
C1076 C 0.29481 0.95224 0.64416 0.0
C1077 C 0.28661 0.96054 0.64993 0.0
H1078 H 0.28959 0.98303 0.66155 0.0
H1079 H 0.33436 0.98286 0.65399 0.0
C1080 C 0.37394 0.03054 0.71108 0.0
N1081 N 0.36972 0.02486 0.69427 0.0
C1082 C 0.38776 0.03118 0.71914 0.0
C1083 C 0.39226 0.01967 0.69259 0.0
C1084 C 0.37833 0.01913 0.68514 0.0
C1085 C 0.39726 0.0259 0.70975 0.0
H1086 H 0.36656 0.03455 0.71823 0.0
H1087 H 0.37439 0.01413 0.67203 0.0
C1088 C 0.30739 0.01682 0.64748 0.0
N1089 N 0.28465 0.00343 0.62001 0.0
C1090 C 0.31273 0.01641 0.63055 0.0
C1091 C 0.29045 0.01048 0.65042 0.0
C1092 C 0.30106 0.00957 0.61684 0.0
C1093 C 0.27916 0.00375 0.63637 0.0
C1094 C 0.36507 0.05735 0.6894 0.0
C1095 C 0.36613 0.06342 0.70648 0.0
C1096 C 0.3794 0.06371 0.67935 0.0
C1097 C 0.38159 0.07556 0.71333 0.0
C1098 C 0.39464 0.07584 0.68666 0.0
N1099 N 0.39541 0.08146 0.70336 0.0
C1100 C 0.31886 0.03747 0.71852 0.0
C1101 C 0.30242 0.03638 0.69419 0.0
C1102 C 0.31112 0.04376 0.72927 0.0
N1103 N 0.31453 0.03416 0.70129 0.0
C1104 C 0.29397 0.04205 0.70457 0.0
C1105 C 0.29854 0.04606 0.7222 0.0
H1106 H 0.32857 0.03561 0.7238 0.0
H1107 H 0.29965 0.03422 0.68036 0.0
C1108 C 0.35584 0.05215 0.62484 0.0
N1109 N 0.35201 0.05357 0.6417 0.0
C1110 C 0.36268 0.06598 0.61405 0.0
C1111 C 0.36128 0.08244 0.63797 0.0
C1112 C 0.35443 0.06831 0.64826 0.0
C1113 C 0.36551 0.08136 0.62064 0.0
H1114 H 0.35363 0.04036 0.61964 0.0
H1115 H 0.35123 0.06915 0.66166 0.0
O1116 O 0.32931 0.00898 0.6924 0.0
O1117 O 0.34918 0.01805 0.65753 0.0
O1118 O 0.31868 0.02334 0.66107 0.0
O1119 O 0.35011 0.04516 0.68261 0.0
H1120 H 0.33651 0.985 0.69451 0.0
H1121 H 0.29756 0.9967 0.69966 0.0
H1122 H 0.31613 0.95557 0.70146 0.0
H1123 H 0.27788 0.9671 0.70659 0.0
H1124 H 0.39593 0.04012 0.6248 0.0
H1125 H 0.33547 0.00097 0.62797 0.0
H1126 H 0.38148 0.03813 0.65252 0.0
H1127 H 0.35081 0.00343 0.60081 0.0
H1128 H 0.31891 0.95421 0.64174 0.0
H1129 H 0.27317 0.9545 0.64927 0.0
H1130 H 0.39089 0.0356 0.73258 0.0
H1131 H 0.39919 0.01543 0.68488 0.0
H1132 H 0.32572 0.02122 0.62803 0.0
H1133 H 0.28596 0.01033 0.66345 0.0
H1134 H 0.30506 0.00914 0.60369 0.0
H1135 H 0.26601 0.99868 0.6385 0.0
H1136 H 0.35516 0.05871 0.71442 0.0
H1137 H 0.37876 0.05932 0.66604 0.0
H1138 H 0.3826 0.08029 0.72657 0.0
H1139 H 0.40584 0.08081 0.67904 0.0
H1140 H 0.31491 0.04681 0.74288 0.0
H1141 H 0.28449 0.04399 0.6987 0.0
H1142 H 0.36556 0.06456 0.60066 0.0
H1143 H 0.36364 0.09413 0.64375 0.0
Li1144 Li 0.00079 0.31626 0.66962 0.0
Li1145 Li 0.98358 0.32513 0.68486 0.0
Li1146 Li 0.97877 0.29674 0.6877 0.0
Li1147 Li 0.97163 0.30543 0.66068 0.0
C1148 C 0.01451 0.32592 0.70104 0.0
N1149 N 0.04769 0.34244 0.71098 0.0
C1150 C 0.02275 0.34296 0.7052 0.0
C1151 C 0.02308 0.31724 0.70211 0.0
C1152 C 0.03954 0.35109 0.71017 0.0
C1153 C 0.03987 0.32583 0.7071 0.0
C1154 C 0.98863 0.33332 0.64404 0.0
C1155 C 0.9738 0.3408 0.62361 0.0
N1156 N 0.98396 0.34131 0.61065 0.0
C1157 C 0.99894 0.33393 0.63051 0.0
C1158 C 0.97597 0.33682 0.64058 0.0
C1159 C 0.99639 0.33801 0.61373 0.0
C1160 C 0.02742 0.31421 0.6537 0.0
N1161 N 0.02271 0.32445 0.66128 0.0
C1162 C 0.04932 0.3483 0.65607 0.0
C1163 C 0.03322 0.3412 0.66246 0.0
C1164 C 0.0546 0.33809 0.64814 0.0
C1165 C 0.04341 0.32082 0.64696 0.0
H1166 H 0.01868 0.30097 0.65258 0.0
H1167 H 0.02899 0.34907 0.66823 0.0
C1168 C 0.98119 0.34405 0.71353 0.0
N1169 N 0.98382 0.34369 0.69608 0.0
C1170 C 0.98044 0.35746 0.72104 0.0
C1171 C 0.98587 0.37011 0.69265 0.0
C1172 C 0.98646 0.3565 0.68572 0.0
C1173 C 0.9826 0.3706 0.71046 0.0
H1174 H 0.97946 0.33384 0.72155 0.0
H1175 H 0.98888 0.3561 0.672 0.0
C1176 C 0.97971 0.277 0.66303 0.0
N1177 N 0.97066 0.2438 0.66406 0.0
C1178 C 0.96465 0.26479 0.65543 0.0
C1179 C 0.99023 0.27235 0.67101 0.0
C1180 C 0.96029 0.24807 0.65611 0.0
C1181 C 0.98541 0.2555 0.67144 0.0
C1182 C 0.95271 0.30708 0.69489 0.0
C1183 C 0.95018 0.30145 0.71206 0.0
C1184 C 0.94613 0.31682 0.68928 0.0
C1185 C 0.94114 0.30571 0.72336 0.0
C1186 C 0.93721 0.32087 0.701 0.0
N1187 N 0.93492 0.31528 0.71766 0.0
C1188 C 0.97987 0.27711 0.71588 0.0
C1189 C 0.95537 0.26508 0.69825 0.0
C1190 C 0.97329 0.26276 0.72594 0.0
N1191 N 0.97085 0.27793 0.70231 0.0
C1192 C 0.94844 0.25049 0.70777 0.0
C1193 C 0.95735 0.24924 0.72192 0.0
H1194 H 0.99211 0.28757 0.71891 0.0
H1195 H 0.94848 0.26613 0.68741 0.0
C1196 C 0.96071 0.29618 0.62533 0.0
N1197 N 0.95606 0.29792 0.64169 0.0
C1198 C 0.94932 0.29101 0.61137 0.0
C1199 C 0.92848 0.28899 0.63147 0.0
C1200 C 0.94028 0.29427 0.64501 0.0
C1201 C 0.93301 0.28749 0.61436 0.0
H1202 H 0.97328 0.29891 0.62314 0.0
H1203 H 0.9368 0.29536 0.65819 0.0
O1204 O 0.99816 0.31781 0.69584 0.0
O1205 O 0.99075 0.3291 0.66052 0.0
O1206 O 0.98404 0.2934 0.66281 0.0
O1207 O 0.9618 0.30331 0.68371 0.0
H1208 H 0.0163 0.34987 0.70443 0.0
H1209 H 0.01687 0.30405 0.69893 0.0
H1210 H 0.04611 0.3643 0.71333 0.0
H1211 H 0.0467 0.3193 0.70785 0.0
H1212 H 0.96398 0.34341 0.62073 0.0
H1213 H 0.00872 0.33116 0.63289 0.0
H1214 H 0.96776 0.33622 0.65085 0.0
H1215 H 0.00424 0.33849 0.60313 0.0
H1216 H 0.05755 0.36167 0.65727 0.0
H1217 H 0.04682 0.31255 0.64054 0.0
H1218 H 0.97821 0.35756 0.73491 0.0
H1219 H 0.98761 0.38 0.68407 0.0
H1220 H 0.95634 0.26817 0.64924 0.0
H1221 H 0.00191 0.28165 0.67698 0.0
H1222 H 0.94863 0.23847 0.65037 0.0
H1223 H 0.99337 0.25171 0.67769 0.0
H1224 H 0.95527 0.294 0.71667 0.0
H1225 H 0.94812 0.32144 0.67609 0.0
H1226 H 0.93913 0.30149 0.7367 0.0
H1227 H 0.93218 0.32852 0.69689 0.0
H1228 H 0.98054 0.26237 0.73685 0.0
H1229 H 0.93641 0.24023 0.70373 0.0
H1230 H 0.95326 0.28993 0.59836 0.0
H1231 H 0.9159 0.2859 0.63442 0.0
Li1232 Li 0.67583 0.67772 0.66743 0.0
Li1233 Li 0.66326 0.65293 0.68555 0.0
Li1234 Li 0.69372 0.67486 0.68843 0.0
Li1235 Li 0.68392 0.65582 0.66342 0.0
C1236 C 0.66889 0.68778 0.69794 0.0
N1237 N 0.65863 0.71015 0.70644 0.0
C1238 C 0.65241 0.68203 0.70264 0.0
C1239 C 0.68021 0.70492 0.69792 0.0
C1240 C 0.64745 0.69352 0.7068 0.0
C1241 C 0.67478 0.71602 0.70215 0.0
C1242 C 0.64847 0.64096 0.65131 0.0
C1243 C 0.63296 0.61197 0.64228 0.0
N1244 N 0.62141 0.61462 0.63438 0.0
C1245 C 0.63657 0.64343 0.64287 0.0
C1246 C 0.64675 0.62514 0.65083 0.0
C1247 C 0.62293 0.62994 0.63448 0.0
C1248 C 0.68026 0.70516 0.64654 0.0
N1249 N 0.66968 0.69196 0.6563 0.0
C1250 C 0.64768 0.69752 0.65124 0.0
C1251 C 0.65365 0.68795 0.65863 0.0
C1252 C 0.65829 0.71133 0.64124 0.0
C1253 C 0.67478 0.71512 0.63885 0.0
H1254 H 0.69287 0.7079 0.64463 0.0
H1255 H 0.64547 0.67724 0.66626 0.0
C1256 C 0.64403 0.63375 0.71404 0.0
N1257 N 0.64329 0.63898 0.69773 0.0
C1258 C 0.62967 0.62567 0.72408 0.0
C1259 C 0.61409 0.62828 0.70024 0.0
C1260 C 0.62868 0.63626 0.69068 0.0
C1261 C 0.61454 0.62315 0.71726 0.0
H1262 H 0.6559 0.63645 0.71949 0.0
H1263 H 0.62848 0.64107 0.678 0.0
C1264 C 0.71446 0.6931 0.66338 0.0
N1265 N 0.7475 0.71814 0.66442 0.0
C1266 C 0.72688 0.6897 0.65851 0.0
C1267 C 0.71884 0.70933 0.66845 0.0
C1268 C 0.74352 0.7025 0.65921 0.0
C1269 C 0.7356 0.72179 0.66899 0.0
C1270 C 0.68231 0.63521 0.69121 0.0
C1271 C 0.69666 0.635 0.69619 0.0
C1272 C 0.6672 0.62017 0.68959 0.0
C1273 C 0.69576 0.61976 0.69886 0.0
C1274 C 0.66679 0.60517 0.69241 0.0
N1275 N 0.68098 0.60527 0.69691 0.0
C1276 C 0.71217 0.69586 0.71759 0.0
C1277 C 0.72489 0.68301 0.70225 0.0
C1278 C 0.7255 0.70326 0.72955 0.0
N1279 N 0.71212 0.68595 0.70431 0.0
C1280 C 0.73837 0.69002 0.71396 0.0
C1281 C 0.73873 0.70024 0.72784 0.0
H1282 H 0.70173 0.69776 0.71913 0.0
H1283 H 0.72452 0.67506 0.6916 0.0
C1284 C 0.6835 0.6405 0.63068 0.0
N1285 N 0.69069 0.6449 0.6469 0.0
C1286 C 0.68955 0.63393 0.61808 0.0
C1287 C 0.71052 0.63695 0.63895 0.0
C1288 C 0.70389 0.64316 0.65122 0.0
C1289 C 0.70335 0.63234 0.62215 0.0
H1290 H 0.67342 0.64255 0.62732 0.0
H1291 H 0.70977 0.64731 0.66396 0.0
O1292 O 0.67391 0.67669 0.69351 0.0
O1293 O 0.66188 0.65406 0.65966 0.0
O1294 O 0.69811 0.68065 0.66307 0.0
O1295 O 0.68296 0.65007 0.6887 0.0
H1296 H 0.64349 0.66885 0.70297 0.0
H1297 H 0.69307 0.70962 0.69472 0.0
H1298 H 0.6347 0.68922 0.71032 0.0
H1299 H 0.6834 0.72932 0.70206 0.0
H1300 H 0.6315 0.59968 0.64182 0.0
H1301 H 0.63779 0.65561 0.64283 0.0
H1302 H 0.65613 0.62311 0.65662 0.0
H1303 H 0.61358 0.63167 0.62802 0.0
H1304 H 0.63491 0.69422 0.65344 0.0
H1305 H 0.68324 0.72549 0.63093 0.0
H1306 H 0.63065 0.62227 0.73731 0.0
H1307 H 0.60265 0.62649 0.69445 0.0
H1308 H 0.72377 0.6773 0.65433 0.0
H1309 H 0.70941 0.71229 0.67188 0.0
H1310 H 0.75325 0.69999 0.65561 0.0
H1311 H 0.73915 0.73438 0.673 0.0
H1312 H 0.70841 0.64648 0.69789 0.0
H1313 H 0.65584 0.62002 0.68636 0.0
H1314 H 0.70682 0.61944 0.70255 0.0
H1315 H 0.65518 0.59346 0.69109 0.0
H1316 H 0.72525 0.71087 0.74028 0.0
H1317 H 0.74837 0.68743 0.71226 0.0
H1318 H 0.68394 0.63078 0.6051 0.0
H1319 H 0.72132 0.63606 0.64242 0.0
Li1320 Li 0.3375 0.32214 0.68106 0.0
Li1321 Li 0.31819 0.29307 0.68342 0.0
Li1322 Li 0.33492 0.30397 0.65622 0.0
Li1323 Li 0.31209 0.30949 0.66428 0.0
C1324 C 0.35888 0.3114 0.68687 0.0
N1325 N 0.39118 0.32618 0.69968 0.0
C1326 C 0.36211 0.31404 0.70488 0.0
C1327 C 0.37212 0.31629 0.6754 0.0
C1328 C 0.37852 0.32155 0.71109 0.0
C1329 C 0.38835 0.32371 0.68212 0.0
C1330 C 0.30857 0.30701 0.70622 0.0
C1331 C 0.28553 0.29169 0.72552 0.0
N1332 N 0.29637 0.2964 0.73931 0.0
C1333 C 0.31946 0.31176 0.72061 0.0
C1334 C 0.29145 0.29694 0.70869 0.0
C1335 C 0.31306 0.30625 0.73722 0.0
C1336 C 0.34308 0.35006 0.69996 0.0
N1337 N 0.35164 0.34317 0.69291 0.0
C1338 C 0.37752 0.36747 0.70101 0.0
C1339 C 0.36858 0.35163 0.69309 0.0
C1340 C 0.3689 0.37478 0.70828 0.0
C1341 C 0.35148 0.36589 0.70775 0.0
H1342 H 0.32965 0.3434 0.69917 0.0
H1343 H 0.37522 0.34639 0.68669 0.0
C1344 C 0.29234 0.2637 0.6989 0.0
N1345 N 0.309 0.27467 0.69893 0.0
C1346 C 0.2854 0.25152 0.71164 0.0
C1347 C 0.313 0.26148 0.72352 0.0
C1348 C 0.31938 0.2735 0.71062 0.0
C1349 C 0.29576 0.25059 0.72443 0.0
H1350 H 0.28435 0.26482 0.68943 0.0
H1351 H 0.33259 0.28211 0.71015 0.0
C1352 C 0.34486 0.34147 0.6537 0.0
N1353 N 0.36598 0.37544 0.65119 0.0
C1354 C 0.33886 0.35236 0.65646 0.0
C1355 C 0.36155 0.34782 0.64955 0.0
C1356 C 0.34975 0.36951 0.65518 0.0
C1357 C 0.37204 0.36505 0.64835 0.0
C1358 C 0.29766 0.28189 0.64655 0.0
C1359 C 0.30076 0.28144 0.62875 0.0
C1360 C 0.28155 0.27699 0.65198 0.0
C1361 C 0.28767 0.27616 0.61664 0.0
C1362 C 0.26881 0.27183 0.63946 0.0
N1363 N 0.27211 0.27152 0.6222 0.0
C1364 C 0.3485 0.28657 0.63934 0.0
C1365 C 0.34959 0.30854 0.62299 0.0
C1366 C 0.35634 0.28287 0.62596 0.0
N1367 N 0.34544 0.2993 0.63766 0.0
C1368 C 0.35738 0.30522 0.60926 0.0
C1369 C 0.36095 0.29233 0.61073 0.0
H1370 H 0.34491 0.27937 0.65113 0.0
H1371 H 0.34685 0.31849 0.62197 0.0
C1372 C 0.28732 0.31805 0.66649 0.0
N1373 N 0.29669 0.31517 0.65501 0.0
C1374 C 0.27861 0.32574 0.66101 0.0
C1375 C 0.28894 0.32694 0.63182 0.0
C1376 C 0.29742 0.31913 0.63786 0.0
C1377 C 0.27979 0.33076 0.64362 0.0
H1378 H 0.28743 0.31535 0.68014 0.0
H1379 H 0.30532 0.31707 0.62913 0.0
O1380 O 0.34286 0.30383 0.68054 0.0
O1381 O 0.31467 0.31182 0.68976 0.0
O1382 O 0.33453 0.32469 0.65546 0.0
O1383 O 0.31036 0.28731 0.65858 0.0
H1384 H 0.35211 0.31047 0.714 0.0
H1385 H 0.36996 0.31452 0.66144 0.0
H1386 H 0.38118 0.32371 0.72498 0.0
H1387 H 0.39869 0.32758 0.67338 0.0
H1388 H 0.27233 0.28377 0.72759 0.0
H1389 H 0.33273 0.31953 0.71897 0.0
H1390 H 0.28283 0.29287 0.6977 0.0
H1391 H 0.32136 0.30977 0.74844 0.0
H1392 H 0.391 0.37412 0.70105 0.0
H1393 H 0.34444 0.37116 0.71331 0.0
H1394 H 0.27203 0.24332 0.71189 0.0
H1395 H 0.32145 0.26087 0.73285 0.0
H1396 H 0.32599 0.34764 0.65981 0.0
H1397 H 0.36641 0.33955 0.64752 0.0
H1398 H 0.34532 0.3781 0.65741 0.0
H1399 H 0.38502 0.37016 0.64526 0.0
H1400 H 0.31313 0.28516 0.6243 0.0
H1401 H 0.27898 0.27751 0.66567 0.0
H1402 H 0.2899 0.27579 0.60281 0.0
H1403 H 0.25632 0.26814 0.64347 0.0
H1404 H 0.35865 0.27266 0.62744 0.0
H1405 H 0.36077 0.31279 0.5977 0.0
H1406 H 0.27187 0.32868 0.67055 0.0
H1407 H 0.29005 0.33054 0.61827 0.0
Li1408 Li 0.67256 0.01798 0.66809 0.0
Li1409 Li 0.70079 0.022 0.67417 0.0
Li1410 Li 0.69296 0.03002 0.64557 0.0
Li1411 Li 0.68169 0.00132 0.65256 0.0
C1412 C 0.69 0.04828 0.68019 0.0
N1413 N 0.67963 0.06514 0.70193 0.0
C1414 C 0.69325 0.04942 0.69818 0.0
C1415 C 0.68159 0.05581 0.67323 0.0
C1416 C 0.68789 0.05799 0.70896 0.0
C1417 C 0.6764 0.06424 0.68445 0.0
C1418 C 0.67241 0.98641 0.6829 0.0
C1419 C 0.67597 0.96308 0.68915 0.0
N1420 N 0.65919 0.95316 0.69042 0.0
C1421 C 0.65521 0.97603 0.68437 0.0
C1422 C 0.6829 0.97994 0.68539 0.0
C1423 C 0.64877 0.95923 0.68816 0.0
C1424 C 0.64253 0.01862 0.66985 0.0
N1425 N 0.65421 0.01746 0.67941 0.0
C1426 C 0.63955 0.01498 0.70578 0.0
C1427 C 0.65296 0.01559 0.69704 0.0
C1428 C 0.62745 0.0164 0.69624 0.0
C1429 C 0.629 0.01818 0.67805 0.0
H1430 H 0.64362 0.01973 0.65584 0.0
H1431 H 0.66238 0.01453 0.70428 0.0
C1432 C 0.73295 0.04085 0.68963 0.0
N1433 N 0.71724 0.02789 0.69187 0.0
C1434 C 0.74469 0.04604 0.70327 0.0
C1435 C 0.72392 0.02423 0.72104 0.0
C1436 C 0.71257 0.01956 0.70714 0.0
C1437 C 0.74012 0.03777 0.71926 0.0
H1438 H 0.73624 0.04732 0.67736 0.0
H1439 H 0.6999 0.00954 0.70868 0.0
C1440 C 0.66504 0.01418 0.62691 0.0
N1441 N 0.65666 0.01964 0.59394 0.0
C1442 C 0.66364 0.00378 0.61279 0.0
C1443 C 0.66219 0.02736 0.62423 0.0
C1444 C 0.65937 0.00673 0.59624 0.0
C1445 C 0.65798 0.02992 0.60747 0.0
C1446 C 0.71351 0.01077 0.64248 0.0
C1447 C 0.71122 0.00626 0.62472 0.0
C1448 C 0.72404 0.00764 0.65275 0.0
C1449 C 0.71948 0.9986 0.61753 0.0
C1450 C 0.73209 -3e-05 0.64506 0.0
N1451 N 0.72966 0.99565 0.62776 0.0
C1452 C 0.70741 0.06255 0.63188 0.0
C1453 C 0.70115 0.04121 0.61075 0.0
C1454 C 0.71268 0.07445 0.61881 0.0
N1455 N 0.70156 0.04625 0.62761 0.0
C1456 C 0.70593 0.05258 0.59727 0.0
C1457 C 0.71181 0.06948 0.60119 0.0
H1458 H 0.70781 0.06629 0.64541 0.0
H1459 H 0.69655 0.02825 0.60765 0.0
C1460 C 0.65606 0.97048 0.64118 0.0
N1461 N 0.67277 0.97871 0.64419 0.0
C1462 C 0.64741 0.95345 0.63721 0.0
C1463 C 0.67336 0.9536 0.639 0.0
C1464 C 0.68149 0.97062 0.64319 0.0
C1465 C 0.65602 0.94471 0.63634 0.0
H1466 H 0.64932 0.97706 0.64255 0.0
H1467 H 0.69459 0.97709 0.64634 0.0
O1468 O 0.69466 0.03947 0.66951 0.0
O1469 O 0.67891 0.00273 0.67859 0.0
O1470 O 0.66925 0.01152 0.64323 0.0
O1471 O 0.70576 0.01851 0.64973 0.0
H1472 H 0.69968 0.0436 0.7038 0.0
H1473 H 0.67892 0.05498 0.65935 0.0
H1474 H 0.69024 0.0589 0.72292 0.0
H1475 H 0.66977 0.07002 0.67926 0.0
H1476 H 0.68392 0.95786 0.69095 0.0
H1477 H 0.64693 0.98085 0.68238 0.0
H1478 H 0.69623 0.9878 0.68409 0.0
H1479 H 0.63548 0.95101 0.68921 0.0
H1480 H 0.63869 0.01352 0.71983 0.0
H1481 H 0.61968 0.01893 0.67022 0.0
H1482 H 0.75714 0.05646 0.70142 0.0
H1483 H 0.71992 0.01769 0.73325 0.0
H1484 H 0.66606 0.99369 0.6145 0.0
H1485 H 0.66351 0.03573 0.63489 0.0
H1486 H 0.65829 0.99882 0.5852 0.0
H1487 H 0.65585 0.04014 0.6052 0.0
H1488 H 0.70299 0.00842 0.61664 0.0
H1489 H 0.72595 0.01105 0.66651 0.0
H1490 H 0.71777 0.99496 0.60383 0.0
H1491 H 0.74026 0.99745 0.65285 0.0
H1492 H 0.71722 0.08736 0.62244 0.0
H1493 H 0.70451 0.04803 0.58389 0.0
H1494 H 0.63402 0.94706 0.63551 0.0
H1495 H 0.68052 0.9474 0.63824 0.0
Li1496 Li 0.97164 0.67745 0.68767 0.0
Li1497 Li 0.97658 0.6544 0.68255 0.0
Li1498 Li 0.99343 0.68196 0.66755 0.0
Li1499 Li 0.96417 0.66267 0.65877 0.0
C1500 C 0.99643 0.68423 0.70892 0.0
N1501 N 0.00376 0.69945 0.74166 0.0
C1502 C 0.99063 0.6746 0.72388 0.0
C1503 C 0.00613 0.70157 0.7106 0.0
C1504 C 0.99443 0.68254 0.74033 0.0
C1505 C 0.00965 0.70903 0.72727 0.0
C1506 C 0.94215 0.63727 0.68346 0.0
C1507 C 0.92694 0.60923 0.67146 0.0
N1508 N 0.91697 0.60438 0.68567 0.0
C1509 C 0.93168 0.63202 0.6979 0.0
C1510 C 0.9397 0.62579 0.67012 0.0
C1511 C 0.91906 0.61534 0.6988 0.0
C1512 C 0.97 0.70416 0.70436 0.0
N1513 N 0.96547 0.68784 0.7055 0.0
C1514 C 0.95406 0.68638 0.73378 0.0
C1515 C 0.95748 0.67886 0.71974 0.0
C1516 C 0.9592 0.7034 0.7333 0.0
C1517 C 0.96703 0.71224 0.71819 0.0
H1518 H 0.97629 0.71103 0.69291 0.0
H1519 H 0.95422 0.66598 0.72042 0.0
C1520 C 0.99057 0.63441 0.68543 0.0
N1521 N 0.9786 0.63691 0.69236 0.0
C1522 C 0.99337 0.62216 0.69199 0.0
C1523 C 0.97197 0.61571 0.71331 0.0
C1524 C 0.96935 0.62793 0.70609 0.0
C1525 C 0.98403 0.6127 0.7061 0.0
H1526 H 0.99809 0.6421 0.6749 0.0
H1527 H 0.9602 0.63046 0.71163 0.0
C1528 C 0.98225 0.70129 0.65442 0.0
N1529 N 0.99668 0.72997 0.63505 0.0
C1530 C 0.97695 0.7009 0.6372 0.0
C1531 C 0.99481 0.71631 0.66184 0.0
C1532 C 0.98442 0.71552 0.62761 0.0
C1533 C 0.00198 0.73066 0.65182 0.0
C1534 C 0.98498 0.65063 0.64382 0.0
C1535 C 0.99503 0.65945 0.62984 0.0
C1536 C 0.97707 0.63322 0.64359 0.0
C1537 C 0.99669 0.65074 0.6157 0.0
C1538 C 0.97906 0.62495 0.62923 0.0
N1539 N 0.98872 0.6338 0.61568 0.0
C1540 C 0.02786 0.69811 0.67063 0.0
C1541 C 0.01908 0.70457 0.64425 0.0
C1542 C 0.0445 0.70794 0.66606 0.0
N1543 N 0.01555 0.69667 0.65982 0.0
C1544 C 0.03559 0.71471 0.63924 0.0
C1545 C 0.0485 0.71644 0.65024 0.0
H1546 H 0.02473 0.69146 0.68278 0.0
H1547 H 0.00912 0.70283 0.63558 0.0
C1548 C 0.93224 0.64783 0.64219 0.0
N1549 N 0.9488 0.65449 0.63941 0.0
C1550 C 0.92079 0.64047 0.62833 0.0
C1551 C 0.94372 0.64773 0.60889 0.0
C1552 C 0.95467 0.65499 0.62308 0.0
C1553 C 0.92651 0.64004 0.61147 0.0
H1554 H 0.92788 0.64792 0.65525 0.0
H1555 H 0.96788 0.66091 0.62105 0.0
O1556 O 0.99234 0.67673 0.69269 0.0
O1557 O 0.95476 0.65351 0.68252 0.0
O1558 O 0.97503 0.68709 0.66401 0.0
O1559 O 0.98336 0.65903 0.65785 0.0
H1560 H 0.98307 0.66117 0.72279 0.0
H1561 H 0.01077 0.70918 0.69915 0.0
H1562 H 0.9899 0.67526 0.75202 0.0
H1563 H 0.01704 0.72245 0.72877 0.0
H1564 H 0.92493 0.60025 0.66119 0.0
H1565 H 0.93328 0.6407 0.70834 0.0
H1566 H 0.94745 0.62966 0.65874 0.0
H1567 H 0.91092 0.61112 0.70993 0.0
H1568 H 0.94764 0.67897 0.74498 0.0
H1569 H 0.97125 0.72539 0.71728 0.0
H1570 H 0.003 0.62034 0.68638 0.0
H1571 H 0.96471 0.60871 0.72435 0.0
H1572 H 0.96714 0.68945 0.6313 0.0
H1573 H 0.9992 0.71683 0.67507 0.0
H1574 H 0.98045 0.71539 0.61426 0.0
H1575 H 0.0118 0.74233 0.65735 0.0
H1576 H 0.0013 0.67288 0.62976 0.0
H1577 H 0.96965 0.62611 0.65446 0.0
H1578 H 0.00431 0.65743 0.60475 0.0
H1579 H 0.97297 0.61149 0.6289 0.0
H1580 H 0.05416 0.70898 0.67484 0.0
H1581 H 0.03825 0.72089 0.6268 0.0
H1582 H 0.90765 0.6351 0.63079 0.0
H1583 H 0.94866 0.64778 0.59609 0.0
C1584 C 0.19894 0.27544 0.04243 0.0
C1585 C 0.20703 0.28888 0.05684 0.0
C1586 C 0.19458 0.28306 0.08566 0.0
C1587 C 0.19647 0.29862 0.09004 0.0
C1588 C 0.18604 0.29994 0.10231 0.0
C1589 C 0.17342 0.28537 0.11019 0.0
C1590 C 0.1721 0.2698 0.10645 0.0
C1591 C 0.18295 0.26892 0.09441 0.0
C1592 C 0.18811 0.31681 0.10636 0.0
C1593 C 0.15875 0.25398 0.11451 0.0
C1594 C 0.08664 0.27723 0.03929 0.0
C1595 C 0.09272 0.29063 0.05378 0.0
C1596 C 0.09857 0.2844 0.08289 0.0
C1597 C 0.09529 0.27012 0.09184 0.0
C1598 C 0.10658 0.27063 0.1044 0.0
C1599 C 0.12118 0.286 0.10848 0.0
C1600 C 0.12395 0.30072 0.1003 0.0
C1601 C 0.11263 0.29975 0.0875 0.0
C1602 C 0.10327 0.25465 0.11269 0.0
C1603 C 0.13915 0.31738 0.10465 0.0
C1604 C 0.09163 0.28403 0.22088 0.0
C1605 C 0.09178 0.26921 0.21742 0.0
C1606 C 0.10516 0.26952 0.20872 0.0
C1607 C 0.11875 0.28495 0.20358 0.0
C1608 C 0.11883 0.2999 0.20742 0.0
C1609 C 0.10518 0.29921 0.21587 0.0
C1610 C 0.10467 0.25334 0.20478 0.0
C1611 C 0.13325 0.3166 0.20241 0.0
C1612 C 0.2328 0.28449 0.21538 0.0
C1613 C 0.22688 0.29293 0.22852 0.0
C1614 C 0.19754 0.2836 0.22335 0.0
C1615 C 0.18312 0.26883 0.21832 0.0
C1616 C 0.17016 0.26913 0.20921 0.0
C1617 C 0.17164 0.28463 0.20529 0.0
C1618 C 0.18585 0.29962 0.21113 0.0
C1619 C 0.19861 0.29895 0.22022 0.0
C1620 C 0.15504 0.25291 0.20344 0.0
C1621 C 0.18762 0.31633 0.20753 0.0
C1622 C 0.16038 0.28611 0.12053 0.0
C1623 C 0.14754 0.2862 0.11117 0.0
C1624 C 0.13441 0.28636 0.11967 0.0
C1625 C 0.13397 0.28639 0.13814 0.0
C1626 C 0.12093 0.2865 0.14714 0.0
C1627 C 0.12042 0.28611 0.16532 0.0
C1628 C 0.13306 0.28584 0.17521 0.0
C1629 C 0.13261 0.28537 0.19369 0.0
C1630 C 0.14535 0.28505 0.2031 0.0
C1631 C 0.15863 0.28519 0.19454 0.0
C1632 C 0.15933 0.28571 0.17607 0.0
C1633 C 0.17257 0.28595 0.16704 0.0
C1634 C 0.17304 0.28625 0.14885 0.0
C1635 C 0.16025 0.28621 0.139 0.0
C1636 C 0.14692 0.28623 0.14784 0.0
C1637 C 0.14646 0.28597 0.16639 0.0
C1638 C 0.05147 0.26098 0.22263 0.0
C1639 C 0.06499 0.27128 0.23646 0.0
O1640 O 0.20366 0.28128 0.07295 0.0
O1641 O 0.21002 0.28257 0.23137 0.0
O1642 O 0.07873 0.28435 0.22874 0.0
O1643 O 0.08802 0.28294 0.06981 0.0
H1644 H 0.20137 0.2969 0.05574 0.0
H1645 H 0.18527 0.26811 0.04429 0.0
H1646 H 0.20387 0.2668 0.04277 0.0
H1647 H 0.20133 0.28124 0.02937 0.0
H1648 H 0.20596 0.30968 0.08372 0.0
H1649 H 0.18183 0.25702 0.09111 0.0
H1650 H 0.17783 0.31762 0.09996 0.0
H1651 H 0.20011 0.32712 0.10157 0.0
H1652 H 0.18742 0.31853 0.12067 0.0
H1653 H 0.15918 0.24282 0.10992 0.0
H1654 H 0.14629 0.25214 0.11124 0.0
H1655 H 0.16019 0.255 0.12897 0.0
H1656 H 0.10653 0.29807 0.0529 0.0
H1657 H 0.09219 0.26925 0.04126 0.0
H1658 H 0.09045 0.28306 0.02629 0.0
H1659 H 0.07286 0.2692 0.03942 0.0
H1660 H 0.08422 0.25839 0.08833 0.0
H1661 H 0.11482 0.31093 0.08099 0.0
H1662 H 0.11383 0.25258 0.11025 0.0
H1663 H 0.09164 0.24365 0.10757 0.0
H1664 H 0.10225 0.25558 0.12706 0.0
H1665 H 0.13808 0.3279 0.09949 0.0
H1666 H 0.15023 0.31781 0.09882 0.0
H1667 H 0.14124 0.31909 0.11903 0.0
H1668 H 0.06868 0.26301 0.24291 0.0
H1669 H 0.08146 0.25733 0.2212 0.0
H1670 H 0.105 0.31058 0.21863 0.0
H1671 H 0.10614 0.25211 0.19052 0.0
H1672 H 0.09289 0.24231 0.20894 0.0
H1673 H 0.11522 0.25336 0.2116 0.0
H1674 H 0.13209 0.32715 0.20769 0.0
H1675 H 0.13393 0.31738 0.18794 0.0
H1676 H 0.14512 0.31794 0.2073 0.0
H1677 H 0.22943 0.30467 0.22232 0.0
H1678 H 0.24648 0.29218 0.21373 0.0
H1679 H 0.22667 0.28313 0.20246 0.0
H1680 H 0.22957 0.27186 0.21965 0.0
H1681 H 0.18226 0.25704 0.22113 0.0
H1682 H 0.20932 0.31042 0.22494 0.0
H1683 H 0.15398 0.2523 0.18895 0.0
H1684 H 0.14364 0.2523 0.20861 0.0
H1685 H 0.15555 0.24189 0.20796 0.0
H1686 H 0.19924 0.32684 0.21333 0.0
H1687 H 0.17681 0.3168 0.21288 0.0
H1688 H 0.18764 0.31802 0.19318 0.0
H1689 H 0.14766 0.28596 0.09697 0.0
H1690 H 0.11091 0.28676 0.1402 0.0
H1691 H 0.10997 0.28602 0.17152 0.0
H1692 H 0.14489 0.28463 0.21727 0.0
H1693 H 0.1827 0.28587 0.17392 0.0
H1694 H 0.1835 0.28641 0.14257 0.0
H1695 H 0.04027 0.25088 0.22896 0.0
H1696 H 0.05598 0.25514 0.21306 0.0
H1697 H 0.04788 0.26893 0.21531 0.0
C1698 C 0.73324 0.94615 0.0835 0.0
C1699 C 0.71728 0.93053 0.07698 0.0
C1700 C 0.70965 0.91023 0.10058 0.0
C1701 C 0.69747 0.90116 0.11286 0.0
C1702 C 0.69828 0.88923 0.12313 0.0
C1703 C 0.71194 0.88667 0.12141 0.0
C1704 C 0.72444 0.89594 0.10913 0.0
C1705 C 0.72309 0.9075 0.0987 0.0
C1706 C 0.68443 0.87927 0.1357 0.0
C1707 C 0.73923 0.89361 0.10699 0.0
C1708 C 0.71198 0.77612 0.11002 0.0
C1709 C 0.70389 0.77956 0.09433 0.0
C1710 C 0.69718 0.79989 0.1071 0.0
C1711 C 0.71363 0.81338 0.10825 0.0
C1712 C 0.71727 0.82849 0.1164 0.0
C1713 C 0.70423 0.83019 0.12354 0.0
C1714 C 0.68763 0.81683 0.12201 0.0
C1715 C 0.68433 0.80185 0.11377 0.0
C1716 C 0.73511 0.84258 0.11767 0.0
C1717 C 0.67345 0.8183 0.1294 0.0
C1718 C 0.71875 0.81306 0.23397 0.0
C1719 C 0.73421 0.82449 0.22687 0.0
C1720 C 0.73632 0.83856 0.21809 0.0
C1721 C 0.72275 0.84127 0.21647 0.0
C1722 C 0.7074 0.83016 0.22424 0.0
C1723 C 0.70564 0.81623 0.23293 0.0
C1724 C 0.7529 0.85031 0.21012 0.0
C1725 C 0.69272 0.83276 0.22287 0.0
C1726 C 0.76042 0.97444 0.2304 0.0
C1727 C 0.74641 0.95675 0.23418 0.0
C1728 C 0.74723 0.93118 0.22985 0.0
C1729 C 0.75858 0.92616 0.22552 0.0
C1730 C 0.75331 0.91071 0.21716 0.0
C1731 C 0.73616 0.89984 0.21354 0.0
C1732 C 0.7245 0.9045 0.21876 0.0
C1733 C 0.73018 0.92021 0.22673 0.0
C1734 C 0.7661 0.90613 0.21195 0.0
C1735 C 0.70606 0.89295 0.21581 0.0
C1736 C 0.71281 0.8739 0.13202 0.0
C1737 C 0.70824 0.85857 0.1239 0.0
C1738 C 0.70814 0.84573 0.13321 0.0
C1739 C 0.71219 0.84796 0.15126 0.0
C1740 C 0.71154 0.83504 0.16116 0.0
C1741 C 0.71541 0.8373 0.17894 0.0
C1742 C 0.7203 0.85263 0.18749 0.0
C1743 C 0.72419 0.85499 0.20559 0.0
C1744 C 0.72919 0.87042 0.21368 0.0
C1745 C 0.73048 0.88371 0.20413 0.0
C1746 C 0.7265 0.88155 0.18601 0.0
C1747 C 0.72765 0.89462 0.17596 0.0
C1748 C 0.72323 0.89219 0.15827 0.0
C1749 C 0.71769 0.87665 0.14989 0.0
C1750 C 0.71705 0.86351 0.15961 0.0
C1751 C 0.7213 0.8659 0.17772 0.0
C1752 C 0.72576 0.78468 0.22315 0.0
C1753 C 0.72551 0.79144 0.24153 0.0
O1754 O 0.7079 0.92147 0.09103 0.0
O1755 O 0.75315 0.94668 0.23693 0.0
O1756 O 0.71576 0.79877 0.24171 0.0
O1757 O 0.69311 0.78479 0.09992 0.0
H1758 H 0.72061 0.92266 0.06886 0.0
H1759 H 0.74067 0.95345 0.07221 0.0
H1760 H 0.74103 0.94273 0.09139 0.0
H1761 H 0.73023 0.95416 0.0918 0.0
H1762 H 0.68715 0.90332 0.1142 0.0
H1763 H 0.73263 0.91435 0.08925 0.0
H1764 H 0.67995 0.86576 0.13402 0.0
H1765 H 0.67373 0.88126 0.13386 0.0
H1766 H 0.68918 0.88298 0.14934 0.0
H1767 H 0.74898 0.90333 0.09874 0.0
H1768 H 0.73507 0.88123 0.10076 0.0
H1769 H 0.74479 0.89389 0.11996 0.0
H1770 H 0.71381 0.78942 0.08632 0.0
H1771 H 0.72028 0.77155 0.10542 0.0
H1772 H 0.71962 0.78766 0.11797 0.0
H1773 H 0.70237 0.76664 0.11858 0.0
H1774 H 0.72376 0.81225 0.103 0.0
H1775 H 0.67168 0.79145 0.11275 0.0
H1776 H 0.73621 0.85397 0.11192 0.0
H1777 H 0.74377 0.83955 0.11086 0.0
H1778 H 0.73901 0.84549 0.13164 0.0
H1779 H 0.66118 0.80691 0.12679 0.0
H1780 H 0.67334 0.82913 0.12365 0.0
H1781 H 0.67525 0.82059 0.14375 0.0
H1782 H 0.73844 0.80084 0.2457 0.0
H1783 H 0.7446 0.82243 0.22789 0.0
H1784 H 0.69383 0.80744 0.23862 0.0
H1785 H 0.75144 0.85008 0.19568 0.0
H1786 H 0.7625 0.84699 0.2133 0.0
H1787 H 0.75736 0.86326 0.21485 0.0
H1788 H 0.68187 0.82342 0.23032 0.0
H1789 H 0.68892 0.8319 0.20893 0.0
H1790 H 0.69629 0.84543 0.22786 0.0
H1791 H 0.7383 0.95241 0.22221 0.0
H1792 H 0.75525 0.98272 0.22814 0.0
H1793 H 0.76705 0.97427 0.21845 0.0
H1794 H 0.76957 0.97967 0.24143 0.0
H1795 H 0.7717 0.93465 0.22822 0.0
H1796 H 0.72129 0.92385 0.23059 0.0
H1797 H 0.76453 0.90242 0.19787 0.0
H1798 H 0.76424 0.89527 0.21956 0.0
H1799 H 0.77903 0.91655 0.21431 0.0
H1800 H 0.69856 0.89744 0.22271 0.0
H1801 H 0.70228 0.88026 0.22034 0.0
H1802 H 0.70311 0.89196 0.20161 0.0
H1803 H 0.70477 0.85662 0.11012 0.0
H1804 H 0.70787 0.82298 0.1553 0.0
H1805 H 0.71455 0.82685 0.18588 0.0
H1806 H 0.73213 0.8721 0.22758 0.0
H1807 H 0.73185 0.90685 0.18168 0.0
H1808 H 0.72425 0.90265 0.15122 0.0
H1809 H 0.71293 0.77575 0.21836 0.0
H1810 H 0.73306 0.77825 0.22334 0.0
H1811 H 0.73166 0.79496 0.21374 0.0
C1812 C 0.19696 0.91137 0.05524 0.0
C1813 C 0.20958 0.92164 0.06984 0.0
C1814 C 0.19657 0.9029 0.09454 0.0
C1815 C 0.18349 0.90611 0.09691 0.0
C1816 C 0.17029 0.89631 0.10804 0.0
C1817 C 0.17016 0.88304 0.11694 0.0
C1818 C 0.18362 0.8802 0.11511 0.0
C1819 C 0.19672 0.89028 0.10402 0.0
C1820 C 0.15624 0.89981 0.10992 0.0
C1821 C 0.18386 0.86614 0.12442 0.0
C1822 C 0.08587 0.80903 0.04436 0.0
C1823 C 0.0879 0.79903 0.05886 0.0
C1824 C 0.09254 0.81171 0.08794 0.0
C1825 C 0.10523 0.8093 0.09441 0.0
C1826 C 0.11622 0.8199 0.10757 0.0
C1827 C 0.1145 0.83323 0.11421 0.0
C1828 C 0.10118 0.83516 0.10824 0.0
C1829 C 0.09015 0.82413 0.09536 0.0
C1830 C 0.13002 0.81722 0.11392 0.0
C1831 C 0.09906 0.84934 0.11484 0.0
C1832 C 0.07795 0.81523 0.22467 0.0
C1833 C 0.0906 0.8116 0.2214 0.0
C1834 C 0.10545 0.82333 0.21351 0.0
C1835 C 0.10758 0.83891 0.20866 0.0
C1836 C 0.09506 0.84278 0.21253 0.0
C1837 C 0.08049 0.83093 0.22073 0.0
C1838 C 0.11875 0.81899 0.21009 0.0
C1839 C 0.09693 0.85929 0.20768 0.0
C1840 C 0.20792 0.95779 0.23062 0.0
C1841 C 0.20468 0.94457 0.24426 0.0
C1842 C 0.19 0.91737 0.22859 0.0
C1843 C 0.19113 0.90343 0.22385 0.0
C1844 C 0.17789 0.88956 0.21529 0.0
C1845 C 0.16331 0.8899 0.21088 0.0
C1846 C 0.16193 0.90385 0.21589 0.0
C1847 C 0.1752 0.91736 0.22488 0.0
C1848 C 0.17966 0.87472 0.21064 0.0
C1849 C 0.14654 0.90463 0.21147 0.0
C1850 C 0.15527 0.87123 0.12682 0.0
C1851 C 0.14221 0.8582 0.11735 0.0
C1852 C 0.12781 0.84632 0.12557 0.0
C1853 C 0.12638 0.84729 0.1439 0.0
C1854 C 0.1122 0.8354 0.15267 0.0
C1855 C 0.11088 0.83661 0.1707 0.0
C1856 C 0.12378 0.84964 0.18068 0.0
C1857 C 0.12261 0.85095 0.19903 0.0
C1858 C 0.13569 0.86407 0.20851 0.0
C1859 C 0.14994 0.87613 0.20013 0.0
C1860 C 0.15128 0.87511 0.18179 0.0
C1861 C 0.16533 0.88717 0.1729 0.0
C1862 C 0.16669 0.88592 0.15491 0.0
C1863 C 0.15398 0.87266 0.14508 0.0
C1864 C 0.13952 0.86056 0.15367 0.0
C1865 C 0.13821 0.86175 0.17207 0.0
C1866 C 0.03713 0.78181 0.22087 0.0
C1867 C 0.05461 0.78692 0.22755 0.0
O1868 O 0.20906 0.91135 0.08305 0.0
O1869 O 0.20357 0.93054 0.23632 0.0
O1870 O 0.06316 0.80386 0.23152 0.0
O1871 O 0.08247 0.80229 0.07448 0.0
H1872 H 0.20664 0.93095 0.07538 0.0
H1873 H 0.19767 0.9196 0.0445 0.0
H1874 H 0.19948 0.90172 0.04985 0.0
H1875 H 0.18409 0.90506 0.06025 0.0
H1876 H 0.18328 0.91603 0.08996 0.0
H1877 H 0.20693 0.88799 0.10225 0.0
H1878 H 0.14473 0.88938 0.10386 0.0
H1879 H 0.15896 0.91157 0.10358 0.0
H1880 H 0.15373 0.90061 0.12398 0.0
H1881 H 0.19537 0.86574 0.12185 0.0
H1882 H 0.17294 0.85406 0.12013 0.0
H1883 H 0.18287 0.86753 0.13874 0.0
H1884 H 0.10139 0.80319 0.05976 0.0
H1885 H 0.09028 0.80672 0.03173 0.0
H1886 H 0.09339 0.82256 0.04765 0.0
H1887 H 0.07264 0.80557 0.04282 0.0
H1888 H 0.10664 0.79924 0.08905 0.0
H1889 H 0.0801 0.82565 0.0904 0.0
H1890 H 0.13111 0.81834 0.12842 0.0
H1891 H 0.14201 0.82697 0.10854 0.0
H1892 H 0.12799 0.80482 0.10976 0.0
H1893 H 0.08836 0.8494 0.10843 0.0
H1894 H 0.11054 0.86142 0.11245 0.0
H1895 H 0.09707 0.84838 0.12917 0.0
H1896 H 0.06067 0.78411 0.21658 0.0
H1897 H 0.08888 0.79964 0.22505 0.0
H1898 H 0.07073 0.83367 0.22357 0.0
H1899 H 0.11986 0.81773 0.19578 0.0
H1900 H 0.11596 0.80714 0.21627 0.0
H1901 H 0.13098 0.82916 0.21512 0.0
H1902 H 0.08558 0.85991 0.21048 0.0
H1903 H 0.09973 0.86153 0.19355 0.0
H1904 H 0.10754 0.86947 0.21517 0.0
H1905 H 0.19278 0.9412 0.25075 0.0
H1906 H 0.2102 0.9695 0.23721 0.0
H1907 H 0.197 0.95341 0.22172 0.0
H1908 H 0.2188 0.9605 0.22247 0.0
H1909 H 0.20253 0.90347 0.22686 0.0
H1910 H 0.17398 0.92794 0.2286 0.0
H1911 H 0.18126 0.87428 0.19631 0.0
H1912 H 0.16824 0.86297 0.21416 0.0
H1913 H 0.19054 0.87529 0.21735 0.0
H1914 H 0.148 0.91696 0.21482 0.0
H1915 H 0.13586 0.89495 0.21879 0.0
H1916 H 0.14348 0.90197 0.19729 0.0
H1917 H 0.14326 0.85731 0.10328 0.0
H1918 H 0.10196 0.82505 0.14567 0.0
H1919 H 0.09962 0.82715 0.17672 0.0
H1920 H 0.13472 0.86498 0.22257 0.0
H1921 H 0.17549 0.89772 0.17975 0.0
H1922 H 0.17783 0.8955 0.14879 0.0
H1923 H 0.03 0.76824 0.21766 0.0
H1924 H 0.03799 0.7887 0.20882 0.0
H1925 H 0.03027 0.78472 0.23082 0.0
C1926 C 0.29001 0.09675 0.97052 0.0
C1927 C 0.29579 0.09079 0.95468 0.0
C1928 C 0.30161 0.11162 0.93211 0.0
C1929 C 0.28498 0.10718 0.92877 0.0
C1930 C 0.28109 0.11577 0.91644 0.0
C1931 C 0.29403 0.12894 0.90718 0.0
C1932 C 0.31072 0.13323 0.91026 0.0
C1933 C 0.31427 0.12453 0.92273 0.0
C1934 C 0.26317 0.11095 0.91348 0.0
C1935 C 0.32483 0.14718 0.90056 0.0
C1936 C 0.2764 0.23027 0.91792 0.0
C1937 C 0.28903 0.22848 0.9292 0.0
C1938 C 0.29583 0.20997 0.91235 0.0
C1939 C 0.30849 0.20936 0.90334 0.0
C1940 C 0.3062 0.19431 0.89637 0.0
C1941 C 0.29071 0.17949 0.89833 0.0
C1942 C 0.27778 0.17995 0.90739 0.0
C1943 C 0.28045 0.19519 0.91435 0.0
C1944 C 0.32032 0.19426 0.88687 0.0
C1945 C 0.2611 0.16435 0.90959 0.0
C1946 C 0.26355 0.17791 0.78602 0.0
C1947 C 0.28001 0.18333 0.79111 0.0
C1948 C 0.28382 0.17316 0.80115 0.0
C1949 C 0.27079 0.15746 0.80657 0.0
C1950 C 0.25424 0.15181 0.80096 0.0
C1951 C 0.25089 0.16203 0.79045 0.0
C1952 C 0.30172 0.17933 0.80619 0.0
C1953 C 0.24002 0.13514 0.80635 0.0
C1954 C 0.2805 0.05588 0.76131 0.0
C1955 C 0.27251 0.06221 0.77364 0.0
C1956 C 0.28124 0.08371 0.79648 0.0
C1957 C 0.29548 0.09748 0.80359 0.0
C1958 C 0.29465 0.11058 0.81192 0.0
C1959 C 0.27897 0.10935 0.81405 0.0
C1960 C 0.26439 0.09502 0.80758 0.0
C1961 C 0.26571 0.08247 0.79861 0.0
C1962 C 0.31062 0.12584 0.81804 0.0
C1963 C 0.24741 0.09303 0.80982 0.0
C1964 C 0.29022 0.13883 0.89495 0.0
C1965 C 0.29109 0.15333 0.90156 0.0
C1966 C 0.28812 0.16356 0.89078 0.0
C1967 C 0.28387 0.15912 0.87296 0.0
C1968 C 0.28023 0.16883 0.86193 0.0
C1969 C 0.27669 0.16474 0.84425 0.0
C1970 C 0.27704 0.15099 0.83683 0.0
C1971 C 0.27434 0.14724 0.81868 0.0
C1972 C 0.27498 0.13359 0.81175 0.0
C1973 C 0.2779 0.12327 0.8225 0.0
C1974 C 0.28024 0.1266 0.84074 0.0
C1975 C 0.28269 0.11622 0.85205 0.0
C1976 C 0.28582 0.1201 0.86984 0.0
C1977 C 0.28647 0.13442 0.87702 0.0
C1978 C 0.2834 0.14469 0.86597 0.0
C1979 C 0.28017 0.14073 0.84784 0.0
C1980 C 0.24891 0.20492 0.78623 0.0
C1981 C 0.2644 0.20408 0.78157 0.0
O1982 O 0.30611 0.10408 0.94431 0.0
O1983 O 0.28303 0.07219 0.78714 0.0
O1984 O 0.25959 0.18779 0.77683 0.0
O1985 O 0.29904 0.22506 0.91871 0.0
H1986 H 0.28465 0.08164 0.94691 0.0
H1987 H 0.28256 0.10234 0.9662 0.0
H1988 H 0.30078 0.1063 0.97839 0.0
H1989 H 0.28207 0.08607 0.97897 0.0
H1990 H 0.27496 0.09722 0.93583 0.0
H1991 H 0.32704 0.12786 0.92534 0.0
H1992 H 0.26162 0.12178 0.91659 0.0
H1993 H 0.25449 0.10032 0.92161 0.0
H1994 H 0.25968 0.1075 0.89949 0.0
H1995 H 0.337 0.14822 0.90358 0.0
H1996 H 0.32564 0.15918 0.90415 0.0
H1997 H 0.32241 0.14516 0.88624 0.0
H1998 H 0.28228 0.21818 0.93849 0.0
H1999 H 0.2684 0.23307 0.92633 0.0
H2000 H 0.26825 0.21852 0.91047 0.0
H2001 H 0.28286 0.24045 0.90844 0.0
H2002 H 0.32028 0.22081 0.90184 0.0
H2003 H 0.27041 0.19539 0.92115 0.0
H2004 H 0.31671 0.19058 0.87294 0.0
H2005 H 0.32294 0.18493 0.89264 0.0
H2006 H 0.33191 0.20665 0.88742 0.0
H2007 H 0.25209 0.16686 0.91644 0.0
H2008 H 0.26272 0.15518 0.91717 0.0
H2009 H 0.25579 0.15856 0.89657 0.0
H2010 H 0.27255 0.20804 0.79349 0.0
H2011 H 0.28984 0.1955 0.78718 0.0
H2012 H 0.23826 0.15792 0.7862 0.0
H2013 H 0.30375 0.18317 0.82022 0.0
H2014 H 0.3105 0.19021 0.7984 0.0
H2015 H 0.30467 0.16925 0.80439 0.0
H2016 H 0.22772 0.13338 0.80246 0.0
H2017 H 0.24031 0.13384 0.82074 0.0
H2018 H 0.24135 0.12506 0.80009 0.0
H2019 H 0.25997 0.05264 0.77823 0.0
H2020 H 0.27334 0.04195 0.76272 0.0
H2021 H 0.29206 0.05765 0.76811 0.0
H2022 H 0.28114 0.06742 0.73775 0.0
H2023 H 0.30739 0.09828 0.8019 0.0
H2024 H 0.25457 0.07172 0.79335 0.0
H2025 H 0.31183 0.12565 0.83246 0.0
H2026 H 0.3106 0.1374 0.81472 0.0
H2027 H 0.32172 0.12632 0.81214 0.0
H2028 H 0.23729 0.07991 0.80759 0.0
H2029 H 0.24574 0.10088 0.80019 0.0
H2030 H 0.24615 0.0972 0.82312 0.0
H2031 H 0.29441 0.15687 0.91522 0.0
H2032 H 0.28008 0.17973 0.86685 0.0
H2033 H 0.27395 0.17267 0.83643 0.0
H2034 H 0.27324 0.13099 0.79777 0.0
H2035 H 0.28237 0.10506 0.84725 0.0
H2036 H 0.28787 0.11181 0.87787 0.0
H2037 H 0.2402 0.20102 0.77483 0.0
H2038 H 0.25242 0.2178 0.7904 0.0
H2039 H 0.24241 0.19647 0.7972 0.0
C2040 C 0.80605 0.08134 0.97003 0.0
C2041 C 0.79739 0.08625 0.95632 0.0
C2042 C 0.80856 0.09032 0.92714 0.0
C2043 C 0.80706 0.10373 0.92144 0.0
C2044 C 0.81806 0.11476 0.90912 0.0
C2045 C 0.83096 0.11242 0.90264 0.0
C2046 C 0.83201 0.09844 0.90785 0.0
C2047 C 0.82054 0.08736 0.91984 0.0
C2048 C 0.81629 0.12928 0.90357 0.0
C2049 C 0.84572 0.09567 0.90143 0.0
C2050 C 0.94378 0.21684 0.92754 0.0
C2051 C 0.93024 0.21341 0.94093 0.0
C2052 C 0.90462 0.19585 0.92355 0.0
C2053 C 0.9063 0.18168 0.92228 0.0
C2054 C 0.89499 0.16768 0.91222 0.0
C2055 C 0.88158 0.16773 0.90354 0.0
C2056 C 0.87957 0.18177 0.90522 0.0
C2057 C 0.89121 0.19569 0.91512 0.0
C2058 C 0.8974 0.15284 0.91077 0.0
C2059 C 0.86517 0.18208 0.8965 0.0
C2060 C 0.90929 0.19275 0.79073 0.0
C2061 C 0.91241 0.18 0.79534 0.0
C2062 C 0.90052 0.16606 0.80443 0.0
C2063 C 0.88528 0.16489 0.809 0.0
C2064 C 0.88212 0.17768 0.80431 0.0
C2065 C 0.89421 0.19147 0.79527 0.0
C2066 C 0.90425 0.15264 0.80931 0.0
C2067 C 0.86599 0.17683 0.80894 0.0
C2068 C 0.77785 0.04424 0.79511 0.0
C2069 C 0.78154 0.05866 0.78299 0.0
C2070 C 0.81017 0.08108 0.78844 0.0
C2071 C 0.82557 0.08247 0.79184 0.0
C2072 C 0.83801 0.09608 0.80153 0.0
C2073 C 0.83504 0.10877 0.80759 0.0
C2074 C 0.81976 0.10783 0.80347 0.0
C2075 C 0.80747 0.09397 0.79399 0.0
C2076 C 0.85424 0.09681 0.8055 0.0
C2077 C 0.81641 0.12146 0.80915 0.0
C2078 C 0.84445 0.12568 0.89226 0.0
C2079 C 0.85658 0.13975 0.90147 0.0
C2080 C 0.86954 0.15303 0.89285 0.0
C2081 C 0.87066 0.15233 0.87447 0.0
C2082 C 0.88364 0.16546 0.86541 0.0
C2083 C 0.88439 0.16486 0.84728 0.0
C2084 C 0.87227 0.15104 0.83751 0.0
C2085 C 0.87273 0.1505 0.81904 0.0
C2086 C 0.86061 0.13649 0.80973 0.0
C2087 C 0.84781 0.12297 0.81837 0.0
C2088 C 0.847 0.12337 0.83684 0.0
C2089 C 0.83416 0.11012 0.84596 0.0
C2090 C 0.83322 0.11086 0.86409 0.0
C2091 C 0.84526 0.12474 0.87383 0.0
C2092 C 0.85843 0.13815 0.86492 0.0
C2093 C 0.85928 0.13748 0.84642 0.0
C2094 C 0.94181 0.22285 0.76161 0.0
C2095 C 0.93518 0.20929 0.77467 0.0
O2096 O 0.79886 0.08038 0.94002 0.0
O2097 O 0.79841 0.06738 0.77946 0.0
O2098 O 0.92033 0.20639 0.78181 0.0
O2099 O 0.91557 0.20996 0.93257 0.0
H2100 H 0.80381 0.10012 0.95655 0.0
H2101 H 0.81939 0.0868 0.96677 0.0
H2102 H 0.80022 0.06756 0.97039 0.0
H2103 H 0.8053 0.08611 0.9832 0.0
H2104 H 0.79744 0.10567 0.92685 0.0
H2105 H 0.82142 0.07683 0.92427 0.0
H2106 H 0.82627 0.14089 0.90995 0.0
H2107 H 0.80408 0.12771 0.90729 0.0
H2108 H 0.81769 0.13082 0.88919 0.0
H2109 H 0.84508 0.08447 0.90716 0.0
H2110 H 0.85802 0.10673 0.90481 0.0
H2111 H 0.84491 0.09415 0.88698 0.0
H2112 H 0.92795 0.20259 0.94895 0.0
H2113 H 0.94013 0.20571 0.91906 0.0
H2114 H 0.95561 0.22003 0.93439 0.0
H2115 H 0.94601 0.22731 0.91903 0.0
H2116 H 0.91641 0.18143 0.92896 0.0
H2117 H 0.88994 0.20661 0.91628 0.0
H2118 H 0.88671 0.14189 0.91676 0.0
H2119 H 0.90905 0.15515 0.91737 0.0
H2120 H 0.89772 0.14963 0.89678 0.0
H2121 H 0.86465 0.19339 0.90023 0.0
H2122 H 0.85326 0.17088 0.90004 0.0
H2123 H 0.86632 0.18175 0.88208 0.0
H2124 H 0.94434 0.21024 0.78474 0.0
H2125 H 0.92409 0.1809 0.79197 0.0
H2126 H 0.89191 0.20134 0.79162 0.0
H2127 H 0.90388 0.1514 0.82374 0.0
H2128 H 0.91663 0.1553 0.8047 0.0
H2129 H 0.89456 0.14048 0.80358 0.0
H2130 H 0.86529 0.18762 0.80399 0.0
H2131 H 0.86464 0.17649 0.82337 0.0
H2132 H 0.85534 0.16517 0.80338 0.0
H2133 H 0.77769 0.06649 0.79039 0.0
H2134 H 0.76424 0.03625 0.79704 0.0
H2135 H 0.78387 0.04932 0.80809 0.0
H2136 H 0.78294 0.03659 0.78976 0.0
H2137 H 0.82766 0.07262 0.78722 0.0
H2138 H 0.7959 0.09343 0.79074 0.0
H2139 H 0.85661 0.09804 0.81985 0.0
H2140 H 0.86461 0.10799 0.79945 0.0
H2141 H 0.85432 0.08557 0.80053 0.0
H2142 H 0.80458 0.11963 0.80352 0.0
H2143 H 0.82677 0.13377 0.80514 0.0
H2144 H 0.81574 0.12175 0.82362 0.0
H2145 H 0.85583 0.14045 0.91559 0.0
H2146 H 0.89332 0.17642 0.87224 0.0
H2147 H 0.89461 0.1754 0.84101 0.0
H2148 H 0.86096 0.13623 0.79555 0.0
H2149 H 0.82459 0.09907 0.83916 0.0
H2150 H 0.82296 0.1004 0.87041 0.0
H2151 H 0.94082 0.21054 0.7382 0.0
H2152 H 0.95384 0.23304 0.76757 0.0
H2153 H 0.93499 0.22986 0.76349 0.0
C2154 C 0.80087 0.69412 0.96406 0.0
C2155 C 0.79173 0.70008 0.95213 0.0
C2156 C 0.80389 0.69893 0.92425 0.0
C2157 C 0.81702 0.71551 0.92362 0.0
C2158 C 0.83072 0.71989 0.91287 0.0
C2159 C 0.83141 0.70739 0.90274 0.0
C2160 C 0.81795 0.69076 0.90296 0.0
C2161 C 0.8042 0.68683 0.91349 0.0
C2162 C 0.84467 0.73782 0.91266 0.0
C2163 C 0.81836 0.67705 0.89259 0.0
C2164 C 0.91251 0.7225 0.97908 0.0
C2165 C 0.91153 0.71108 0.96395 0.0
C2166 C 0.9093 0.7196 0.93473 0.0
C2167 C 0.89808 0.70422 0.92677 0.0
C2168 C 0.88769 0.70327 0.91291 0.0
C2169 C 0.88848 0.71802 0.90708 0.0
C2170 C 0.9005 0.73365 0.91446 0.0
C2171 C 0.91098 0.73424 0.92805 0.0
C2172 C 0.87534 0.68644 0.90505 0.0
C2173 C 0.90161 0.74961 0.9087 0.0
C2174 C 0.92868 0.74215 0.79675 0.0
C2175 C 0.91805 0.7254 0.80096 0.0
C2176 C 0.90271 0.72034 0.80893 0.0
C2177 C 0.89816 0.73237 0.81316 0.0
C2178 C 0.90878 0.74921 0.80861 0.0
C2179 C 0.92378 0.75379 0.80018 0.0
C2180 C 0.89138 0.70215 0.81282 0.0
C2181 C 0.90437 0.76241 0.81278 0.0
C2182 C 0.78462 0.72546 0.79824 0.0
C2183 C 0.79226 0.7253 0.78057 0.0
C2184 C 0.81276 0.71747 0.7899 0.0
C2185 C 0.81536 0.704 0.79117 0.0
C2186 C 0.8289 0.70537 0.80073 0.0
C2187 C 0.84024 0.72072 0.80907 0.0
C2188 C 0.83806 0.73461 0.80735 0.0
C2189 C 0.82431 0.73286 0.79781 0.0
C2190 C 0.83089 0.69033 0.80226 0.0
C2191 C 0.85008 0.75122 0.8159 0.0
C2192 C 0.84682 0.71149 0.89324 0.0
C2193 C 0.8601 0.7128 0.90306 0.0
C2194 C 0.87517 0.71681 0.89533 0.0
C2195 C 0.87714 0.71954 0.87715 0.0
C2196 C 0.89213 0.72363 0.86891 0.0
C2197 C 0.89395 0.72643 0.851 0.0
C2198 C 0.88073 0.72489 0.84059 0.0
C2199 C 0.88235 0.72745 0.82232 0.0
C2200 C 0.86893 0.72589 0.81243 0.0
C2201 C 0.85392 0.72201 0.82029 0.0
C2202 C 0.85208 0.71943 0.83851 0.0
C2203 C 0.83715 0.71558 0.84684 0.0
C2204 C 0.83545 0.71312 0.86477 0.0
C2205 C 0.84851 0.7142 0.87504 0.0
C2206 C 0.86371 0.71816 0.86696 0.0
C2207 C 0.8655 0.7208 0.84866 0.0
C2208 C 0.9719 0.75645 0.79504 0.0
C2209 C 0.95432 0.74152 0.7924 0.0
O2210 O 0.79085 0.69411 0.93516 0.0
O2211 O 0.79892 0.71493 0.7811 0.0
O2212 O 0.94362 0.74747 0.78917 0.0
O2213 O 0.91826 0.72056 0.94918 0.0
H2214 H 0.79856 0.71391 0.95232 0.0
H2215 H 0.81381 0.69907 0.95957 0.0
H2216 H 0.7944 0.68028 0.96387 0.0
H2217 H 0.80147 0.69866 0.97773 0.0
H2218 H 0.81666 0.72512 0.9314 0.0
H2219 H 0.79392 0.6741 0.91395 0.0
H2220 H 0.85571 0.73902 0.91964 0.0
H2221 H 0.84118 0.74638 0.9191 0.0
H2222 H 0.84833 0.74181 0.89899 0.0
H2223 H 0.80734 0.6646 0.89499 0.0
H2224 H 0.82979 0.67671 0.89601 0.0
H2225 H 0.81877 0.67956 0.87841 0.0
H2226 H 0.89811 0.70178 0.96171 0.0
H2227 H 0.90707 0.71516 0.99105 0.0
H2228 H 0.90537 0.72867 0.97562 0.0
H2229 H 0.92563 0.73228 0.98192 0.0
H2230 H 0.89722 0.69294 0.93165 0.0
H2231 H 0.91989 0.74606 0.93419 0.0
H2232 H 0.87524 0.68702 0.89055 0.0
H2233 H 0.86267 0.68278 0.90959 0.0
H2234 H 0.87816 0.67665 0.90886 0.0
H2235 H 0.91169 0.76075 0.91571 0.0
H2236 H 0.8896 0.74906 0.91109 0.0
H2237 H 0.90392 0.75111 0.89445 0.0
H2238 H 0.95091 0.73448 0.8048 0.0
H2239 H 0.92162 0.71627 0.7978 0.0
H2240 H 0.932 0.76664 0.79664 0.0
H2241 H 0.89116 0.70039 0.82715 0.0
H2242 H 0.89554 0.69411 0.80641 0.0
H2243 H 0.87846 0.69797 0.80839 0.0
H2244 H 0.91484 0.77517 0.81029 0.0
H2245 H 0.90076 0.76174 0.82669 0.0
H2246 H 0.89355 0.76016 0.80456 0.0
H2247 H 0.80222 0.73814 0.77743 0.0
H2248 H 0.77905 0.73355 0.79775 0.0
H2249 H 0.79425 0.73041 0.80879 0.0
H2250 H 0.77479 0.71264 0.80165 0.0
H2251 H 0.80647 0.69223 0.78493 0.0
H2252 H 0.82266 0.7435 0.79676 0.0
H2253 H 0.83049 0.68711 0.81624 0.0
H2254 H 0.84321 0.69326 0.79722 0.0
H2255 H 0.82103 0.6793 0.79492 0.0
H2256 H 0.84732 0.76112 0.81236 0.0
H2257 H 0.86299 0.75516 0.81201 0.0
H2258 H 0.84949 0.75001 0.83033 0.0
H2259 H 0.85869 0.71073 0.91704 0.0
H2260 H 0.90265 0.72479 0.87626 0.0
H2261 H 0.90585 0.72972 0.84542 0.0
H2262 H 0.87024 0.72788 0.79845 0.0
H2263 H 0.82661 0.71445 0.83959 0.0
H2264 H 0.82372 0.71028 0.87049 0.0
H2265 H 0.97605 0.76402 0.78304 0.0
H2266 H 0.98082 0.75224 0.79822 0.0
H2267 H 0.97209 0.76447 0.80606 0.0
C2268 C 0.86954 0.63511 0.37367 0.0
C2269 C 0.87958 0.64481 0.38997 0.0
C2270 C 0.86488 0.63363 0.41703 0.0
C2271 C 0.86787 0.64819 0.42594 0.0
C2272 C 0.85682 0.64764 0.43866 0.0
C2273 C 0.84249 0.63222 0.44244 0.0
C2274 C 0.83986 0.61741 0.43398 0.0
C2275 C 0.85129 0.6183 0.42154 0.0
C2276 C 0.86022 0.6636 0.44773 0.0
C2277 C 0.82469 0.60076 0.43762 0.0
C2278 C 0.73541 0.64365 0.40519 0.0
C2279 C 0.74398 0.63642 0.4151 0.0
C2280 C 0.77028 0.64475 0.43015 0.0
C2281 C 0.76714 0.62838 0.4319 0.0
C2282 C 0.77862 0.62529 0.44045 0.0
C2283 C 0.79351 0.63881 0.44746 0.0
C2284 C 0.79677 0.6553 0.44568 0.0
C2285 C 0.78508 0.65804 0.437 0.0
C2286 C 0.77487 0.60756 0.44198 0.0
C2287 C 0.81256 0.66997 0.45298 0.0
C2288 C 0.76317 0.62129 0.55948 0.0
C2289 C 0.75921 0.60702 0.54926 0.0
C2290 C 0.77146 0.60617 0.53945 0.0
C2291 C 0.78792 0.61994 0.53967 0.0
C2292 C 0.79201 0.63413 0.55028 0.0
C2293 C 0.77958 0.63453 0.56017 0.0
C2294 C 0.76678 0.59068 0.5286 0.0
C2295 C 0.80943 0.64903 0.55086 0.0
C2296 C 0.8907 0.59207 0.54452 0.0
C2297 C 0.88526 0.60442 0.55012 0.0
C2298 C 0.85758 0.60095 0.54737 0.0
C2299 C 0.8413 0.58884 0.54275 0.0
C2300 C 0.83013 0.59333 0.53597 0.0
C2301 C 0.83534 0.61039 0.53423 0.0
C2302 C 0.85149 0.62274 0.53995 0.0
C2303 C 0.86251 0.61788 0.54635 0.0
C2304 C 0.81293 0.57983 0.5302 0.0
C2305 C 0.85723 0.64105 0.53896 0.0
C2306 C 0.82958 0.63183 0.45404 0.0
C2307 C 0.81819 0.6356 0.44659 0.0
C2308 C 0.8057 0.63562 0.45654 0.0
C2309 C 0.80454 0.63197 0.47452 0.0
C2310 C 0.79231 0.63222 0.48497 0.0
C2311 C 0.79113 0.62841 0.50261 0.0
C2312 C 0.80202 0.624 0.51044 0.0
C2313 C 0.80072 0.6198 0.52829 0.0
C2314 C 0.81176 0.61552 0.53567 0.0
C2315 C 0.82417 0.6153 0.52567 0.0
C2316 C 0.82569 0.61948 0.50779 0.0
C2317 C 0.83803 0.6194 0.49733 0.0
C2318 C 0.83948 0.62364 0.47978 0.0
C2319 C 0.82844 0.6278 0.47193 0.0
C2320 C 0.81586 0.62789 0.4822 0.0
C2321 C 0.81454 0.62381 0.50016 0.0
C2322 C 0.72901 0.61741 0.54946 0.0
C2323 C 0.73447 0.61369 0.56696 0.0
O2324 O 0.87484 0.63407 0.40394 0.0
O2325 O 0.86822 0.59585 0.55257 0.0
O2326 O 0.75167 0.62294 0.56878 0.0
O2327 O 0.7594 0.6482 0.42196 0.0
H2328 H 0.87666 0.65485 0.39255 0.0
H2329 H 0.85605 0.62985 0.37602 0.0
H2330 H 0.87172 0.62469 0.37046 0.0
H2331 H 0.87307 0.64349 0.36232 0.0
H2332 H 0.87877 0.65998 0.42285 0.0
H2333 H 0.84927 0.60711 0.41472 0.0
H2334 H 0.85089 0.66687 0.44329 0.0
H2335 H 0.87284 0.67417 0.44493 0.0
H2336 H 0.85898 0.66191 0.4621 0.0
H2337 H 0.82432 0.59046 0.42971 0.0
H2338 H 0.81326 0.60125 0.43474 0.0
H2339 H 0.82452 0.59792 0.45168 0.0
H2340 H 0.73607 0.62695 0.42485 0.0
H2341 H 0.72396 0.64046 0.4129 0.0
H2342 H 0.73427 0.6348 0.37967 0.0
H2343 H 0.74201 0.65735 0.40876 0.0
H2344 H 0.75579 0.61792 0.4266 0.0
H2345 H 0.78743 0.67062 0.43557 0.0
H2346 H 0.785 0.60628 0.436 0.0
H2347 H 0.76288 0.59843 0.4355 0.0
H2348 H 0.77433 0.60441 0.456 0.0
H2349 H 0.81308 0.68201 0.45086 0.0
H2350 H 0.82347 0.67039 0.4467 0.0
H2351 H 0.81359 0.66848 0.46724 0.0
H2352 H 0.73024 0.60019 0.56756 0.0
H2353 H 0.74662 0.59654 0.5488 0.0
H2354 H 0.78255 0.64541 0.5682 0.0
H2355 H 0.76756 0.59362 0.51451 0.0
H2356 H 0.75396 0.58041 0.53126 0.0
H2357 H 0.77565 0.5863 0.53125 0.0
H2358 H 0.81045 0.65935 0.55929 0.0
H2359 H 0.81335 0.6537 0.53744 0.0
H2360 H 0.8182 0.64527 0.55593 0.0
H2361 H 0.88845 0.61317 0.53908 0.0
H2362 H 0.90435 0.59871 0.54244 0.0
H2363 H 0.88433 0.58572 0.53203 0.0
H2364 H 0.88749 0.58242 0.55453 0.0
H2365 H 0.83756 0.57581 0.54386 0.0
H2366 H 0.87495 0.62733 0.5505 0.0
H2367 H 0.81077 0.58143 0.51625 0.0
H2368 H 0.80348 0.58089 0.53798 0.0
H2369 H 0.81103 0.56714 0.53179 0.0
H2370 H 0.86927 0.64897 0.54597 0.0
H2371 H 0.84774 0.64355 0.54461 0.0
H2372 H 0.85875 0.64472 0.52505 0.0
H2373 H 0.81897 0.63842 0.43279 0.0
H2374 H 0.78352 0.63541 0.47964 0.0
H2375 H 0.7815 0.62887 0.51 0.0
H2376 H 0.81069 0.6123 0.54936 0.0
H2377 H 0.84676 0.6161 0.50259 0.0
H2378 H 0.84927 0.62347 0.4724 0.0
H2379 H 0.73339 0.63093 0.54864 0.0
H2380 H 0.71523 0.61023 0.54803 0.0
H2381 H 0.73421 0.6138 0.53835 0.0
C2382 C 0.38774 0.25552 0.37136 0.0
C2383 C 0.37522 0.24899 0.38621 0.0
C2384 C 0.38082 0.24041 0.41416 0.0
C2385 C 0.36456 0.22824 0.41845 0.0
C2386 C 0.36171 0.21602 0.43069 0.0
C2387 C 0.37542 0.21587 0.43856 0.0
C2388 C 0.39183 0.22839 0.43451 0.0
C2389 C 0.39428 0.24073 0.42261 0.0
C2390 C 0.34405 0.2031 0.43497 0.0
C2391 C 0.40678 0.22848 0.44232 0.0
C2392 C 0.35759 0.09342 0.4014 0.0
C2393 C 0.36538 0.11064 0.40906 0.0
C2394 C 0.35738 0.12921 0.42332 0.0
C2395 C 0.37363 0.14131 0.42863 0.0
C2396 C 0.37667 0.15568 0.43805 0.0
C2397 C 0.36321 0.15796 0.44233 0.0
C2398 C 0.34683 0.14577 0.43713 0.0
C2399 C 0.34415 0.13155 0.42766 0.0
C2400 C 0.3943 0.16848 0.44336 0.0
C2401 C 0.33221 0.14781 0.44154 0.0
C2402 C 0.36691 0.13915 0.55656 0.0
C2403 C 0.38205 0.14949 0.54823 0.0
C2404 C 0.38427 0.16314 0.53853 0.0
C2405 C 0.371 0.16631 0.53686 0.0
C2406 C 0.35582 0.15602 0.54537 0.0
C2407 C 0.35403 0.14262 0.5552 0.0
C2408 C 0.40074 0.17405 0.5299 0.0
C2409 C 0.34142 0.15905 0.54386 0.0
C2410 C 0.41024 0.30009 0.54833 0.0
C2411 C 0.39581 0.28272 0.55242 0.0
C2412 C 0.3961 0.2567 0.5488 0.0
C2413 C 0.40731 0.25121 0.54574 0.0
C2414 C 0.40207 0.2356 0.5378 0.0
C2415 C 0.38506 0.22505 0.53327 0.0
C2416 C 0.37348 0.23017 0.53724 0.0
C2417 C 0.37914 0.24602 0.54486 0.0
C2418 C 0.41477 0.23051 0.53396 0.0
C2419 C 0.35516 0.21897 0.53323 0.0
C2420 C 0.37258 0.20201 0.4501 0.0
C2421 C 0.36886 0.18689 0.44206 0.0
C2422 C 0.36635 0.17332 0.45191 0.0
C2423 C 0.36747 0.17474 0.47036 0.0
C2424 C 0.36479 0.16125 0.48067 0.0
C2425 C 0.36631 0.16289 0.49881 0.0
C2426 C 0.3707 0.17811 0.50733 0.0
C2427 C 0.37281 0.18004 0.52571 0.0
C2428 C 0.37715 0.19533 0.53378 0.0
C2429 C 0.37955 0.20891 0.52395 0.0
C2430 C 0.37748 0.20721 0.50553 0.0
C2431 C 0.3798 0.22058 0.4952 0.0
C2432 C 0.37788 0.21883 0.47708 0.0
C2433 C 0.37397 0.20375 0.46854 0.0
C2434 C 0.37145 0.19007 0.4787 0.0
C2435 C 0.37313 0.19177 0.49721 0.0
C2436 C 0.36983 0.10706 0.58188 0.0
C2437 C 0.37519 0.12 0.56825 0.0
O2438 O 0.38392 0.25196 0.40189 0.0
O2439 O 0.40209 0.27231 0.5556 0.0
O2440 O 0.36423 0.1258 0.56605 0.0
O2441 O 0.35393 0.1152 0.41405 0.0
H2442 H 0.36698 0.23533 0.3838 0.0
H2443 H 0.39516 0.24921 0.3714 0.0
H2444 H 0.39637 0.26917 0.37299 0.0
H2445 H 0.38121 0.25295 0.35849 0.0
H2446 H 0.35412 0.22832 0.41225 0.0
H2447 H 0.40678 0.25031 0.41929 0.0
H2448 H 0.34113 0.19086 0.42924 0.0
H2449 H 0.33491 0.20631 0.42972 0.0
H2450 H 0.34259 0.20172 0.44935 0.0
H2451 H 0.41861 0.23803 0.43644 0.0
H2452 H 0.40559 0.21605 0.44044 0.0
H2453 H 0.40748 0.23109 0.4566 0.0
H2454 H 0.37579 0.1204 0.40135 0.0
H2455 H 0.36171 0.09514 0.3874 0.0
H2456 H 0.34428 0.08945 0.39805 0.0
H2457 H 0.36406 0.08089 0.41933 0.0
H2458 H 0.38401 0.13967 0.42542 0.0
H2459 H 0.33166 0.12214 0.42357 0.0
H2460 H 0.3976 0.18077 0.43798 0.0
H2461 H 0.40346 0.16503 0.43874 0.0
H2462 H 0.39531 0.16991 0.45783 0.0
H2463 H 0.32017 0.13688 0.43718 0.0
H2464 H 0.33364 0.15911 0.4352 0.0
H2465 H 0.33189 0.14964 0.45589 0.0
H2466 H 0.37894 0.11686 0.55559 0.0
H2467 H 0.39216 0.147 0.54921 0.0
H2468 H 0.34244 0.13463 0.56174 0.0
H2469 H 0.39909 0.17236 0.51548 0.0
H2470 H 0.41037 0.17107 0.53402 0.0
H2471 H 0.4053 0.18738 0.53306 0.0
H2472 H 0.33023 0.14952 0.55072 0.0
H2473 H 0.33815 0.15898 0.52986 0.0
H2474 H 0.34511 0.17153 0.54951 0.0
H2475 H 0.38762 0.2783 0.54052 0.0
H2476 H 0.4055 0.30864 0.54551 0.0
H2477 H 0.41688 0.29938 0.53663 0.0
H2478 H 0.41924 0.30533 0.55949 0.0
H2479 H 0.42032 0.25946 0.54911 0.0
H2480 H 0.37031 0.25 0.5478 0.0
H2481 H 0.41411 0.22703 0.5199 0.0
H2482 H 0.41195 0.21939 0.54165 0.0
H2483 H 0.42765 0.24059 0.53726 0.0
H2484 H 0.34756 0.22394 0.53891 0.0
H2485 H 0.35076 0.20634 0.5384 0.0
H2486 H 0.35309 0.21764 0.51885 0.0
H2487 H 0.36809 0.18572 0.42789 0.0
H2488 H 0.36154 0.14929 0.47483 0.0
H2489 H 0.36411 0.15207 0.50605 0.0
H2490 H 0.37891 0.19676 0.54787 0.0
H2491 H 0.38312 0.23258 0.50099 0.0
H2492 H 0.37971 0.22951 0.46982 0.0
H2493 H 0.38847 0.11842 0.60111 0.0
H2494 H 0.36722 0.09537 0.57455 0.0
H2495 H 0.35634 0.10256 0.58454 0.0
C2496 C 0.86916 0.25295 0.37931 0.0
C2497 C 0.8805 0.25448 0.39474 0.0
C2498 C 0.86303 0.22918 0.41152 0.0
C2499 C 0.8518 0.23395 0.41766 0.0
C2500 C 0.83823 0.22321 0.42793 0.0
C2501 C 0.83594 0.20749 0.43235 0.0
C2502 C 0.84738 0.20279 0.42652 0.0
C2503 C 0.86075 0.2137 0.41613 0.0
C2504 C 0.82621 0.22858 0.4339 0.0
C2505 C 0.84538 0.18618 0.43114 0.0
C2506 C 0.73148 0.13093 0.36661 0.0
C2507 C 0.7399 0.12577 0.38034 0.0
C2508 C 0.75109 0.14074 0.40808 0.0
C2509 C 0.76386 0.13723 0.41096 0.0
C2510 C 0.77716 0.14723 0.42249 0.0
C2511 C 0.7778 0.16118 0.43102 0.0
C2512 C 0.76476 0.16456 0.42827 0.0
C2513 C 0.75136 0.15401 0.41713 0.0
C2514 C 0.79063 0.14302 0.42535 0.0
C2515 C 0.76513 0.17953 0.43671 0.0
C2516 C 0.7459 0.14116 0.54109 0.0
C2517 C 0.75802 0.13679 0.53779 0.0
C2518 C 0.77322 0.14816 0.53027 0.0
C2519 C 0.77632 0.1642 0.52596 0.0
C2520 C 0.76452 0.16895 0.5302 0.0
C2521 C 0.74948 0.15737 0.53789 0.0
C2522 C 0.78577 0.14289 0.52647 0.0
C2523 C 0.76756 0.18606 0.52604 0.0
C2524 C 0.89139 0.27316 0.54095 0.0
C2525 C 0.8833 0.26341 0.55751 0.0
C2526 C 0.86303 0.23534 0.54582 0.0
C2527 C 0.86008 0.21915 0.54338 0.0
C2528 C 0.84599 0.20699 0.53409 0.0
C2529 C 0.83449 0.21115 0.52718 0.0
C2530 C 0.83716 0.2274 0.52991 0.0
C2531 C 0.85144 0.23937 0.53913 0.0
C2532 C 0.84352 0.18978 0.53143 0.0
C2533 C 0.82501 0.23216 0.52287 0.0
C2534 C 0.82126 0.19575 0.44257 0.0
C2535 C 0.80701 0.18406 0.4333 0.0
C2536 C 0.79256 0.17278 0.44195 0.0
C2537 C 0.79226 0.17311 0.46045 0.0
C2538 C 0.77803 0.16184 0.46962 0.0
C2539 C 0.77769 0.16264 0.48779 0.0
C2540 C 0.79165 0.17458 0.49752 0.0
C2541 C 0.79137 0.17559 0.516 0.0
C2542 C 0.80547 0.18758 0.52527 0.0
C2543 C 0.81998 0.19867 0.51657 0.0
C2544 C 0.82052 0.19784 0.4981 0.0
C2545 C 0.83495 0.20874 0.48895 0.0
C2546 C 0.83527 0.20801 0.47078 0.0
C2547 C 0.82117 0.19637 0.46105 0.0
C2548 C 0.80657 0.18507 0.47001 0.0
C2549 C 0.80626 0.18581 0.48856 0.0
C2550 C 0.70437 0.10863 0.53591 0.0
C2551 C 0.72173 0.11317 0.54256 0.0
O2552 O 0.87603 0.2389 0.40103 0.0
O2553 O 0.87722 0.24654 0.55454 0.0
O2554 O 0.7306 0.13 0.54707 0.0
O2555 O 0.73838 0.13158 0.39663 0.0
H2556 H 0.87935 0.26215 0.40534 0.0
H2557 H 0.85607 0.24738 0.38353 0.0
H2558 H 0.86955 0.24493 0.36864 0.0
H2559 H 0.87311 0.26547 0.37408 0.0
H2560 H 0.85336 0.2459 0.4144 0.0
H2561 H 0.86947 0.21013 0.41142 0.0
H2562 H 0.81342 0.21933 0.42928 0.0
H2563 H 0.82947 0.24103 0.429 0.0
H2564 H 0.82608 0.229 0.44841 0.0
H2565 H 0.8559 0.1848 0.4265 0.0
H2566 H 0.83365 0.17599 0.42519 0.0
H2567 H 0.84445 0.18468 0.44554 0.0
H2568 H 0.75327 0.13179 0.37677 0.0
H2569 H 0.73279 0.12671 0.35334 0.0
H2570 H 0.73744 0.14473 0.36669 0.0
H2571 H 0.71805 0.12548 0.36941 0.0
H2572 H 0.76339 0.12665 0.40427 0.0
H2573 H 0.74133 0.15648 0.41488 0.0
H2574 H 0.79363 0.14363 0.43951 0.0
H2575 H 0.8021 0.15231 0.4187 0.0
H2576 H 0.787 0.13042 0.42006 0.0
H2577 H 0.75529 0.18166 0.43132 0.0
H2578 H 0.77743 0.19091 0.43482 0.0
H2579 H 0.76325 0.17765 0.45099 0.0
H2580 H 0.72758 0.11049 0.53129 0.0
H2581 H 0.75558 0.12447 0.54096 0.0
H2582 H 0.74017 0.16071 0.54079 0.0
H2583 H 0.787 0.14212 0.5121 0.0
H2584 H 0.78216 0.13057 0.53204 0.0
H2585 H 0.79817 0.15233 0.53188 0.0
H2586 H 0.75722 0.18789 0.53034 0.0
H2587 H 0.76911 0.18799 0.51173 0.0
H2588 H 0.77927 0.19571 0.53255 0.0
H2589 H 0.87292 0.26536 0.56137 0.0
H2590 H 0.89634 0.28669 0.54334 0.0
H2591 H 0.88213 0.26895 0.53006 0.0
H2592 H 0.90174 0.27126 0.53686 0.0
H2593 H 0.86904 0.21613 0.54862 0.0
H2594 H 0.85343 0.2518 0.54089 0.0
H2595 H 0.84282 0.18681 0.51721 0.0
H2596 H 0.83154 0.18042 0.53719 0.0
H2597 H 0.85371 0.18858 0.53747 0.0
H2598 H 0.82826 0.24496 0.52707 0.0
H2599 H 0.81226 0.22322 0.52734 0.0
H2600 H 0.8248 0.23148 0.50836 0.0
H2601 H 0.80712 0.18386 0.4191 0.0
H2602 H 0.76695 0.15236 0.46283 0.0
H2603 H 0.7663 0.15377 0.49409 0.0
H2604 H 0.80514 0.1883 0.53942 0.0
H2605 H 0.84616 0.21802 0.49573 0.0
H2606 H 0.8467 0.21676 0.46444 0.0
H2607 H 0.69686 0.09507 0.53272 0.0
H2608 H 0.70548 0.11559 0.52384 0.0
H2609 H 0.69774 0.1119 0.54578 0.0
C2610 C 0.03266 0.47066 0.30281 0.0
C2611 C 0.01994 0.45703 0.29041 0.0
C2612 C 0.0191 0.4685 0.26237 0.0
C2613 C 0.00199 0.46223 0.26006 0.0
C2614 C 0.99617 0.47031 0.24926 0.0
C2615 C 0.00774 0.48495 0.24062 0.0
C2616 C 0.025 0.49099 0.24252 0.0
C2617 C 0.03044 0.4825 0.25321 0.0
C2618 C 0.97768 0.46328 0.24716 0.0
C2619 C 0.03768 0.50655 0.2335 0.0
C2620 C 0.96434 0.57311 0.24581 0.0
C2621 C 0.97931 0.57367 0.25485 0.0
C2622 C 0.97968 0.54767 0.25495 0.0
C2623 C 0.9961 0.55357 0.24969 0.0
C2624 C 0.00067 0.54271 0.24201 0.0
C2625 C 0.98857 0.52565 0.23967 0.0
C2626 C 0.97228 0.51952 0.24593 0.0
C2627 C 0.96808 0.53065 0.25365 0.0
C2628 C 0.01828 0.54952 0.23592 0.0
C2629 C 0.95917 0.50134 0.2439 0.0
C2630 C 0.97079 0.53769 0.12745 0.0
C2631 C 0.98735 0.54467 0.13317 0.0
C2632 C 0.99267 0.53497 0.14187 0.0
C2633 C 0.98107 0.51803 0.14516 0.0
C2634 C 0.96447 0.51086 0.13888 0.0
C2635 C 0.95963 0.52077 0.12983 0.0
C2636 C 0.01063 0.54289 0.1477 0.0
C2637 C 0.95177 0.49283 0.14198 0.0
C2638 C 0.00716 0.41992 0.14569 0.0
C2639 C 0.9964 0.42038 0.13078 0.0
C2640 C 0.00026 0.4485 0.13181 0.0
C2641 C 0.01344 0.46497 0.13252 0.0
C2642 C 0.01145 0.47772 0.13997 0.0
C2643 C 0.99579 0.47384 0.14658 0.0
C2644 C 0.98215 0.45736 0.14499 0.0
C2645 C 0.98451 0.44484 0.13757 0.0
C2646 C 0.02618 0.49521 0.1413 0.0
C2647 C 0.96516 0.45291 0.15149 0.0
C2648 C 0.0018 0.4942 0.23001 0.0
C2649 C 0.99816 0.50524 0.23876 0.0
C2650 C 0.99261 0.51444 0.22961 0.0
C2651 C 0.99084 0.51282 0.21119 0.0
C2652 C 0.9854 0.522 0.20159 0.0
C2653 C 0.9838 0.52041 0.18346 0.0
C2654 C 0.98755 0.50958 0.1742 0.0
C2655 C 0.98612 0.50799 0.15573 0.0
C2656 C 0.98924 0.49654 0.14704 0.0
C2657 C 0.99388 0.48666 0.15632 0.0
C2658 C 0.99595 0.4885 0.1747 0.0
C2659 C 0.00103 0.47904 0.18435 0.0
C2660 C 0.00297 0.48088 0.20245 0.0
C2661 C 0.99983 0.49219 0.21162 0.0
C2662 C 0.99449 0.50168 0.20217 0.0
C2663 C 0.99272 0.49996 0.18367 0.0
C2664 C 0.95154 0.55877 0.1346 0.0
C2665 C 0.96755 0.56196 0.12578 0.0
O2666 O 0.02497 0.46125 0.27329 0.0
O2667 O 0.00317 0.43662 0.12512 0.0
O2668 O 0.96535 0.54694 0.11934 0.0
O2669 O 0.97461 0.55806 0.26124 0.0
H2670 H 0.00785 0.45639 0.29257 0.0
H2671 H 0.03342 0.48271 0.30003 0.0
H2672 H 0.0452 0.47222 0.30111 0.0
H2673 H 0.02886 0.46751 0.31662 0.0
H2674 H 0.99319 0.45098 0.26664 0.0
H2675 H 0.04362 0.48708 0.25491 0.0
H2676 H 0.9743 0.47209 0.25316 0.0
H2677 H 0.97031 0.451 0.25343 0.0
H2678 H 0.97419 0.46188 0.23306 0.0
H2679 H 0.05065 0.51008 0.23703 0.0
H2680 H 0.03578 0.51708 0.23702 0.0
H2681 H 0.036 0.50457 0.21911 0.0
H2682 H 0.9889 0.57727 0.2446 0.0
H2683 H 0.96784 0.58559 0.24078 0.0
H2684 H 0.95381 0.56909 0.25493 0.0
H2685 H 0.96008 0.56412 0.23457 0.0
H2686 H 0.00534 0.56664 0.25149 0.0
H2687 H 0.95553 0.5262 0.2581 0.0
H2688 H 0.01829 0.54841 0.22145 0.0
H2689 H 0.02349 0.5421 0.24136 0.0
H2690 H 0.02652 0.56282 0.23986 0.0
H2691 H 0.94718 0.49849 0.24982 0.0
H2692 H 0.96359 0.49357 0.25014 0.0
H2693 H 0.95698 0.49776 0.22979 0.0
H2694 H 0.9777 0.56745 0.13585 0.0
H2695 H 0.99613 0.55766 0.1307 0.0
H2696 H 0.94693 0.51547 0.12506 0.0
H2697 H 0.0115 0.54456 0.16214 0.0
H2698 H 0.01854 0.55527 0.1418 0.0
H2699 H 0.01565 0.53467 0.14416 0.0
H2700 H 0.93904 0.48961 0.13776 0.0
H2701 H 0.95159 0.49005 0.15608 0.0
H2702 H 0.95525 0.48471 0.1346 0.0
H2703 H 0.9837 0.41564 0.13583 0.0
H2704 H 0.00198 0.40695 0.15025 0.0
H2705 H 0.00737 0.42777 0.15689 0.0
H2706 H 0.02014 0.42473 0.14135 0.0
H2707 H 0.02546 0.46772 0.12769 0.0
H2708 H 0.97396 0.43234 0.13617 0.0
H2709 H 0.02926 0.49901 0.15529 0.0
H2710 H 0.02301 0.50402 0.1352 0.0
H2711 H 0.03736 0.49635 0.13487 0.0
H2712 H 0.9556 0.43975 0.14836 0.0
H2713 H 0.9612 0.4612 0.14557 0.0
H2714 H 0.96574 0.45491 0.16589 0.0
H2715 H 0.9996 0.50666 0.25288 0.0
H2716 H 0.98235 0.53056 0.20796 0.0
H2717 H 0.97954 0.52779 0.17681 0.0
H2718 H 0.98783 0.49513 0.13292 0.0
H2719 H 0.00365 0.47015 0.17803 0.0
H2720 H 0.00693 0.4733 0.20917 0.0
H2721 H 0.94096 0.55328 0.12507 0.0
H2722 H 0.95304 0.57058 0.14013 0.0
H2723 H 0.94859 0.54996 0.14547 0.0
C2724 C 0.4458 0.38825 0.26529 0.0
C2725 C 0.44756 0.40412 0.2738 0.0
C2726 C 0.46184 0.42598 0.252 0.0
C2727 C 0.46006 0.43686 0.24104 0.0
C2728 C 0.47349 0.4488 0.23144 0.0
C2729 C 0.48904 0.44959 0.23255 0.0
C2730 C 0.49091 0.43848 0.24343 0.0
C2731 C 0.47735 0.42688 0.25316 0.0
C2732 C 0.4711 0.46069 0.22029 0.0
C2733 C 0.50729 0.43892 0.24482 0.0
C2734 C 0.56468 0.53634 0.29916 0.0
C2735 C 0.56561 0.54762 0.28432 0.0
C2736 C 0.56109 0.53117 0.25771 0.0
C2737 C 0.56541 0.51939 0.25271 0.0
C2738 C 0.55501 0.50594 0.24151 0.0
C2739 C 0.54021 0.50464 0.23479 0.0
C2740 C 0.53619 0.517 0.23918 0.0
C2741 C 0.54669 0.53016 0.25064 0.0
C2742 C 0.55962 0.49293 0.23718 0.0
C2743 C 0.52071 0.5162 0.23191 0.0
C2744 C 0.57616 0.52659 0.12476 0.0
C2745 C 0.57694 0.5122 0.12823 0.0
C2746 C 0.5638 0.49859 0.13654 0.0
C2747 C 0.54939 0.49917 0.14104 0.0
C2748 C 0.54827 0.51333 0.13685 0.0
C2749 C 0.56179 0.52694 0.129 0.0
C2750 C 0.56543 0.48369 0.14076 0.0
C2751 C 0.53293 0.51424 0.14094 0.0
C2752 C 0.44524 0.36907 0.12827 0.0
C2753 C 0.44926 0.38655 0.12319 0.0
C2754 C 0.47693 0.41114 0.12416 0.0
C2755 C 0.49321 0.41494 0.12758 0.0
C2756 C 0.50483 0.4302 0.13555 0.0
C2757 C 0.50011 0.4421 0.13966 0.0
C2758 C 0.48398 0.4388 0.13496 0.0
C2759 C 0.47248 0.42326 0.12741 0.0
C2760 C 0.52197 0.43335 0.14013 0.0
C2761 C 0.4787 0.45144 0.13844 0.0
C2762 C 0.5035 0.46252 0.2229 0.0
C2763 C 0.51497 0.47689 0.23218 0.0
C2764 C 0.52851 0.48993 0.22389 0.0
C2765 C 0.53059 0.48883 0.20571 0.0
C2766 C 0.54381 0.50192 0.19686 0.0
C2767 C 0.54566 0.50074 0.17895 0.0
C2768 C 0.53428 0.48648 0.16914 0.0
C2769 C 0.53585 0.48532 0.15084 0.0
C2770 C 0.52447 0.47083 0.14157 0.0
C2771 C 0.51153 0.45735 0.1501 0.0
C2772 C 0.50968 0.45836 0.16837 0.0
C2773 C 0.49682 0.44503 0.1774 0.0
C2774 C 0.4948 0.44632 0.19526 0.0
C2775 C 0.50567 0.46091 0.20483 0.0
C2776 C 0.51911 0.47425 0.19615 0.0
C2777 C 0.52102 0.47303 0.17787 0.0
C2778 C 0.6163 0.54613 0.12593 0.0
C2779 C 0.60367 0.54252 0.11109 0.0
O2780 O 0.44829 0.41489 0.26106 0.0
O2781 O 0.46571 0.3956 0.1181 0.0
O2782 O 0.58893 0.54047 0.11765 0.0
O2783 O 0.57108 0.54345 0.26929 0.0
H2784 H 0.45914 0.41037 0.28194 0.0
H2785 H 0.44509 0.37958 0.27553 0.0
H2786 H 0.45665 0.39125 0.25701 0.0
H2787 H 0.43439 0.38184 0.25691 0.0
H2788 H 0.44808 0.43609 0.24021 0.0
H2789 H 0.47903 0.41858 0.26153 0.0
H2790 H 0.48088 0.47375 0.22348 0.0
H2791 H 0.45871 0.45944 0.22211 0.0
H2792 H 0.47234 0.45824 0.20629 0.0
H2793 H 0.50624 0.42827 0.25225 0.0
H2794 H 0.51662 0.45068 0.25155 0.0
H2795 H 0.51201 0.43873 0.23157 0.0
H2796 H 0.55295 0.54568 0.28213 0.0
H2797 H 0.55577 0.5231 0.29554 0.0
H2798 H 0.5603 0.53946 0.31133 0.0
H2799 H 0.57709 0.53776 0.30172 0.0
H2800 H 0.57671 0.52047 0.2581 0.0
H2801 H 0.5437 0.53969 0.25397 0.0
H2802 H 0.54933 0.48041 0.24076 0.0
H2803 H 0.57118 0.49537 0.24411 0.0
H2804 H 0.56147 0.49263 0.22288 0.0
H2805 H 0.52022 0.52762 0.23516 0.0
H2806 H 0.50956 0.5053 0.23734 0.0
H2807 H 0.5201 0.51444 0.21747 0.0
H2808 H 0.60116 0.53092 0.10398 0.0
H2809 H 0.58782 0.51154 0.1248 0.0
H2810 H 0.56121 0.53801 0.12615 0.0
H2811 H 0.56259 0.48047 0.15472 0.0
H2812 H 0.57808 0.48588 0.1381 0.0
H2813 H 0.5563 0.4728 0.13272 0.0
H2814 H 0.53296 0.52484 0.13442 0.0
H2815 H 0.53228 0.51582 0.15528 0.0
H2816 H 0.52155 0.50248 0.13678 0.0
H2817 H 0.44742 0.39227 0.13524 0.0
H2818 H 0.43205 0.36155 0.13229 0.0
H2819 H 0.45332 0.36997 0.13946 0.0
H2820 H 0.44741 0.36258 0.11719 0.0
H2821 H 0.49656 0.40558 0.12472 0.0
H2822 H 0.46001 0.42052 0.12418 0.0
H2823 H 0.52473 0.43666 0.15426 0.0
H2824 H 0.53137 0.44406 0.13262 0.0
H2825 H 0.52331 0.42237 0.13714 0.0
H2826 H 0.46697 0.4482 0.13136 0.0
H2827 H 0.4886 0.46403 0.13452 0.0
H2828 H 0.4767 0.45203 0.15267 0.0
H2829 H 0.51329 0.47799 0.24608 0.0
H2830 H 0.55285 0.51325 0.20369 0.0
H2831 H 0.55612 0.5112 0.17288 0.0
H2832 H 0.52576 0.47001 0.12755 0.0
H2833 H 0.48808 0.43345 0.17076 0.0
H2834 H 0.4846 0.43573 0.20147 0.0
H2835 H 0.62827 0.5484 0.12044 0.0
H2836 H 0.61169 0.53539 0.13475 0.0
H2837 H 0.61865 0.55718 0.13394 0.0
C2838 C 0.43457 0.97024 0.29749 0.0
C2839 C 0.43363 0.98438 0.28864 0.0
C2840 C 0.44587 0.98634 0.26017 0.0
C2841 C 0.45985 0.00245 0.26098 0.0
C2842 C 0.47376 0.00659 0.25065 0.0
C2843 C 0.47364 0.99436 0.23932 0.0
C2844 C 0.45929 0.97829 0.23801 0.0
C2845 C 0.44546 0.97457 0.24832 0.0
C2846 C 0.48871 0.02396 0.25206 0.0
C2847 C 0.45874 0.96496 0.22607 0.0
C2848 C 0.57443 0.97332 0.27982 0.0
C2849 C 0.56046 0.972 0.26896 0.0
C2850 C 0.54801 0.98862 0.2608 0.0
C2851 C 0.53728 0.97727 0.24787 0.0
C2852 C 0.52683 0.98081 0.23785 0.0
C2853 C 0.52729 0.99611 0.24061 0.0
C2854 C 0.53823 0.00765 0.25343 0.0
C2855 C 0.54839 0.0037 0.26343 0.0
C2856 C 0.51511 0.96807 0.22448 0.0
C2857 C 0.53908 0.02411 0.25665 0.0
C2858 C 0.57258 0.03213 0.13549 0.0
C2859 C 0.55899 0.01578 0.13578 0.0
C2860 C 0.54405 0.01232 0.1437 0.0
C2861 C 0.5427 0.0255 0.15144 0.0
C2862 C 0.55617 0.04207 0.15053 0.0
C2863 C 0.57091 0.04518 0.14238 0.0
C2864 C 0.52975 0.99456 0.14394 0.0
C2865 C 0.55509 0.05642 0.15847 0.0
C2866 C 0.4302 0.02176 0.14198 0.0
C2867 C 0.43999 0.02862 0.12511 0.0
C2868 C 0.46154 0.02115 0.12999 0.0
C2869 C 0.46453 0.00801 0.12747 0.0
C2870 C 0.47712 0.00734 0.13691 0.0
C2871 C 0.4873 0.02046 0.14882 0.0
C2872 C 0.48486 0.03423 0.15084 0.0
C2873 C 0.47186 0.03434 0.14157 0.0
C2874 C 0.47934 0.99247 0.13434 0.0
C2875 C 0.49587 0.04874 0.16293 0.0
C2876 C 0.4889 0.9981 0.22971 0.0
C2877 C 0.50088 0.99609 0.23859 0.0
C2878 C 0.51573 0.9996 0.23063 0.0
C2879 C 0.51892 0.00556 0.21336 0.0
C2880 C 0.53394 0.0097 0.20514 0.0
C2881 C 0.53681 0.01521 0.188 0.0
C2882 C 0.52472 0.0167 0.17839 0.0
C2883 C 0.52735 0.02187 0.16082 0.0
C2884 C 0.51508 0.02325 0.15168 0.0
C2885 C 0.50009 0.01946 0.15955 0.0
C2886 C 0.49723 0.01424 0.17712 0.0
C2887 C 0.48226 0.01023 0.18545 0.0
C2888 C 0.4796 0.00518 0.20274 0.0
C2889 C 0.49162 0.00355 0.21225 0.0
C2890 C 0.50673 0.00736 0.20408 0.0
C2891 C 0.50959 0.01284 0.18654 0.0
C2892 C 0.60849 0.03575 0.14615 0.0
C2893 C 0.59554 0.02702 0.13145 0.0
O2894 O 0.43262 0.98186 0.27063 0.0
O2895 O 0.44862 0.02053 0.12098 0.0
O2896 O 0.58734 0.03571 0.12842 0.0
O2897 O 0.55811 0.9855 0.27096 0.0
H2898 H 0.44507 0.99629 0.29231 0.0
H2899 H 0.44585 0.97009 0.29317 0.0
H2900 H 0.42344 0.95799 0.29401 0.0
H2901 H 0.43535 0.97205 0.31194 0.0
H2902 H 0.4599 0.0118 0.26962 0.0
H2903 H 0.43447 0.96225 0.24763 0.0
H2904 H 0.49935 0.02342 0.25791 0.0
H2905 H 0.4863 0.03245 0.26026 0.0
H2906 H 0.49244 0.02927 0.23884 0.0
H2907 H 0.44672 0.95302 0.22672 0.0
H2908 H 0.46898 0.96268 0.22965 0.0
H2909 H 0.4607 0.96923 0.21236 0.0
H2910 H 0.54864 0.95977 0.26962 0.0
H2911 H 0.56838 0.96278 0.28925 0.0
H2912 H 0.57751 0.98336 0.29006 0.0
H2913 H 0.5915 0.9749 0.26123 0.0
H2914 H 0.53684 0.96555 0.24563 0.0
H2915 H 0.55673 0.0124 0.27337 0.0
H2916 H 0.51844 0.97331 0.2112 0.0
H2917 H 0.50216 0.96507 0.22692 0.0
H2918 H 0.51551 0.95635 0.22469 0.0
H2919 H 0.54939 0.03241 0.2658 0.0
H2920 H 0.52718 0.02184 0.26226 0.0
H2921 H 0.54077 0.03059 0.2441 0.0
H2922 H 0.58673 0.01424 0.13601 0.0
H2923 H 0.55997 0.00573 0.12971 0.0
H2924 H 0.58138 0.05779 0.14178 0.0
H2925 H 0.52729 0.99027 0.15764 0.0
H2926 H 0.53231 0.98593 0.13619 0.0
H2927 H 0.51829 0.99386 0.13866 0.0
H2928 H 0.5668 0.06854 0.15703 0.0
H2929 H 0.55225 0.05428 0.1726 0.0
H2930 H 0.54476 0.05717 0.15211 0.0
H2931 H 0.44892 0.0422 0.12693 0.0
H2932 H 0.42295 0.02796 0.145 0.0
H2933 H 0.43881 0.02417 0.15317 0.0
H2934 H 0.4215 0.0081 0.14063 0.0
H2935 H 0.45661 0.99798 0.11837 0.0
H2936 H 0.46992 0.04477 0.14342 0.0
H2937 H 0.47925 0.987 0.14717 0.0
H2938 H 0.49158 0.99653 0.12832 0.0
H2939 H 0.46946 0.98265 0.12577 0.0
H2940 H 0.49404 0.05952 0.16104 0.0
H2941 H 0.50917 0.05283 0.1608 0.0
H2942 H 0.49302 0.0448 0.17671 0.0
H2943 H 0.49856 0.99159 0.25188 0.0
H2944 H 0.54365 0.00872 0.21187 0.0
H2945 H 0.5486 0.0182 0.18235 0.0
H2946 H 0.51714 0.02712 0.13817 0.0
H2947 H 0.47243 0.01099 0.17872 0.0
H2948 H 0.46791 0.00239 0.20851 0.0
H2949 H 0.61529 0.029 0.14858 0.0
H2950 H 0.60218 0.03584 0.1584 0.0
H2951 H 0.61758 0.04884 0.14284 0.0
C2952 C 0.55345 0.99965 0.71473 0.0
C2953 C 0.56757 0.00987 0.72794 0.0
C2954 C 0.55448 0.00311 0.75616 0.0
C2955 C 0.55878 0.01866 0.76359 0.0
C2956 C 0.54837 0.02016 0.77573 0.0
C2957 C 0.53329 0.0058 0.78035 0.0
C2958 C 0.52919 0.99001 0.7732 0.0
C2959 C 0.54005 0.98885 0.76141 0.0
C2960 C 0.5533 0.03713 0.78334 0.0
C2961 C 0.51309 0.97444 0.77755 0.0
C2962 C 0.47246 0.04154 0.72179 0.0
C2963 C 0.45873 0.0297 0.73401 0.0
C2964 C 0.47096 0.02964 0.76214 0.0
C2965 C 0.4654 0.01261 0.76369 0.0
C2966 C 0.47417 0.00727 0.77412 0.0
C2967 C 0.48867 0.01923 0.78332 0.0
C2968 C 0.4938 0.03634 0.78249 0.0
C2969 C 0.48476 0.04132 0.77199 0.0
C2970 C 0.46815 0.98889 0.77505 0.0
C2971 C 0.50909 0.04937 0.79232 0.0
C2972 C 0.44395 0.98836 0.88822 0.0
C2973 C 0.44301 0.97527 0.87786 0.0
C2974 C 0.45727 0.9767 0.87013 0.0
C2975 C 0.47281 0.99149 0.87279 0.0
C2976 C 0.4739 0.00451 0.88354 0.0
C2977 C 0.45943 0.00275 0.89112 0.0
C2978 C 0.45567 0.96255 0.85873 0.0
C2979 C 0.49028 0.02042 0.88662 0.0
C2980 C 0.56727 0.95593 0.87445 0.0
C2981 C 0.56627 0.9694 0.88518 0.0
C2982 C 0.54036 0.96976 0.88478 0.0
C2983 C 0.52396 0.95878 0.87942 0.0
C2984 C 0.51401 0.96472 0.87251 0.0
C2985 C 0.52055 0.98213 0.87149 0.0
C2986 C 0.53678 0.99331 0.8781 0.0
C2987 C 0.54658 0.987 0.88454 0.0
C2988 C 0.49669 0.95238 0.86588 0.0
C2989 C 0.54391 0.01192 0.87793 0.0
C2990 C 0.52122 0.00747 0.79154 0.0
C2991 C 0.51127 0.01284 0.78363 0.0
C2992 C 0.49898 0.01388 0.79294 0.0
C2993 C 0.49639 0.00935 0.81068 0.0
C2994 C 0.48383 0.00983 0.8203 0.0
C2995 C 0.48103 0.00482 0.83759 0.0
C2996 C 0.49078 0.99929 0.84599 0.0
C2997 C 0.48762 0.99362 0.86336 0.0
C2998 C 0.49778 0.98858 0.87149 0.0
C2999 C 0.51081 0.98856 0.86252 0.0
C3000 C 0.51382 0.9937 0.84492 0.0
C3001 C 0.52641 0.99327 0.83525 0.0
C3002 C 0.52904 0.99802 0.81786 0.0
C3003 C 0.51907 0.00321 0.80939 0.0
C3004 C 0.50649 0.004 0.81894 0.0
C3005 C 0.5038 0.99914 0.83668 0.0
C3006 C 0.40669 0.97595 0.87588 0.0
C3007 C 0.41387 0.97516 0.8937 0.0
O3008 O 0.56396 0.00165 0.7437 0.0
O3009 O 0.54991 0.96338 0.88998 0.0
O3010 O 0.43036 0.98781 0.89543 0.0
O3011 O 0.46332 0.03513 0.75122 0.0
H3012 H 0.56857 0.02222 0.72982 0.0
H3013 H 0.54161 0.99819 0.71966 0.0
H3014 H 0.55183 0.98706 0.71263 0.0
H3015 H 0.55614 0.00606 0.702 0.0
H3016 H 0.57025 0.02961 0.75981 0.0
H3017 H 0.53699 0.97689 0.75565 0.0
H3018 H 0.54503 0.04134 0.77781 0.0
H3019 H 0.56638 0.04657 0.7804 0.0
H3020 H 0.55172 0.03648 0.79775 0.0
H3021 H 0.5111 0.96343 0.76968 0.0
H3022 H 0.50241 0.97636 0.77522 0.0
H3023 H 0.51317 0.9717 0.7916 0.0
H3024 H 0.45739 0.01723 0.73184 0.0
H3025 H 0.46877 0.0375 0.70793 0.0
H3026 H 0.48408 0.04139 0.72464 0.0
H3027 H 0.47512 0.05453 0.72355 0.0
H3028 H 0.45423 0.00347 0.75674 0.0
H3029 H 0.48876 0.05442 0.77093 0.0
H3030 H 0.47772 0.9864 0.76962 0.0
H3031 H 0.45629 0.98113 0.76767 0.0
H3032 H 0.46631 0.98502 0.7889 0.0
H3033 H 0.51104 0.0621 0.7909 0.0
H3034 H 0.52022 0.04926 0.78739 0.0
H3035 H 0.50802 0.0464 0.80642 0.0
H3036 H 0.41309 0.9629 0.89482 0.0
H3037 H 0.43122 0.96398 0.87548 0.0
H3038 H 0.46008 0.01277 0.89917 0.0
H3039 H 0.45872 0.96673 0.84504 0.0
H3040 H 0.44294 0.95145 0.85886 0.0
H3041 H 0.46466 0.95883 0.86317 0.0
H3042 H 0.48915 0.02921 0.89573 0.0
H3043 H 0.49509 0.02666 0.87397 0.0
H3044 H 0.49957 0.01753 0.89208 0.0
H3045 H 0.57052 0.98023 0.87646 0.0
H3046 H 0.5803 0.96047 0.87047 0.0
H3047 H 0.5594 0.95281 0.86244 0.0
H3048 H 0.56279 0.94441 0.8821 0.0
H3049 H 0.51921 0.94549 0.87999 0.0
H3050 H 0.55911 0.99549 0.88935 0.0
H3051 H 0.49492 0.95531 0.8523 0.0
H3052 H 0.48747 0.95332 0.87419 0.0
H3053 H 0.49407 0.93933 0.86609 0.0
H3054 H 0.55549 0.01873 0.88599 0.0
H3055 H 0.53467 0.01512 0.88288 0.0
H3056 H 0.54682 0.01629 0.86429 0.0
H3057 H 0.51294 0.01601 0.7699 0.0
H3058 H 0.47592 0.01392 0.81449 0.0
H3059 H 0.47108 0.00532 0.84428 0.0
H3060 H 0.49522 0.98417 0.8848 0.0
H3061 H 0.53432 0.98914 0.84096 0.0
H3062 H 0.5389 0.99743 0.81108 0.0
H3063 H 0.40768 0.98827 0.87425 0.0
H3064 H 0.39339 0.96601 0.8747 0.0
H3065 H 0.41351 0.97406 0.86509 0.0
C3066 C 0.02248 0.57495 0.72791 0.0
C3067 C 0.00467 0.56799 0.73433 0.0
C3068 C 0.00252 0.5548 0.76175 0.0
C3069 C 0.98657 0.54235 0.76631 0.0
C3070 C 0.98426 0.52871 0.77608 0.0
C3071 C 0.99827 0.52758 0.78119 0.0
C3072 C 0.01444 0.54024 0.77655 0.0
C3073 C 0.01637 0.55387 0.76707 0.0
C3074 C 0.96688 0.51554 0.78097 0.0
C3075 C 0.02965 0.53934 0.78154 0.0
C3076 C 0.96218 0.42665 0.71852 0.0
C3077 C 0.97507 0.42704 0.73132 0.0
C3078 C 0.9751 0.44051 0.75886 0.0
C3079 C 0.99199 0.45271 0.76069 0.0
C3080 C 0.99701 0.46701 0.77123 0.0
C3081 C 0.98488 0.46905 0.78014 0.0
C3082 C 0.9679 0.45651 0.77872 0.0
C3083 C 0.96326 0.44226 0.76824 0.0
C3084 C 0.01526 0.47995 0.77284 0.0
C3085 C 0.95466 0.45827 0.78811 0.0
C3086 C 0.00164 0.44742 0.88917 0.0
C3087 C 0.01592 0.45935 0.88057 0.0
C3088 C 0.01633 0.47308 0.87277 0.0
C3089 C 0.00209 0.47478 0.87336 0.0
C3090 C 0.98786 0.46305 0.88243 0.0
C3091 C 0.98793 0.44962 0.89043 0.0
C3092 C 0.03193 0.48572 0.86374 0.0
C3093 C 0.97248 0.46451 0.88332 0.0
C3094 C 0.01413 0.59605 0.91428 0.0
C3095 C 0.01272 0.58429 0.89992 0.0
C3096 C 0.01376 0.55899 0.89549 0.0
C3097 C 0.02707 0.55648 0.8922 0.0
C3098 C 0.02481 0.54273 0.88209 0.0
C3099 C 0.0087 0.53097 0.87564 0.0
C3100 C 0.99507 0.5331 0.87959 0.0
C3101 C 0.99779 0.54719 0.88931 0.0
C3102 C 0.03962 0.54083 0.87821 0.0
C3103 C 0.97758 0.52045 0.87365 0.0
C3104 C 0.99606 0.51314 0.79131 0.0
C3105 C 0.99168 0.49835 0.78213 0.0
C3106 C 0.98992 0.48442 0.79073 0.0
C3107 C 0.99285 0.48528 0.80898 0.0
C3108 C 0.99166 0.47166 0.81795 0.0
C3109 C 0.9946 0.47265 0.8359 0.0
C3110 C 0.99877 0.48726 0.84558 0.0
C3111 C 0.0019 0.48843 0.86381 0.0
C3112 C 0.00528 0.50285 0.87319 0.0
C3113 C 0.00603 0.51643 0.86476 0.0
C3114 C 0.00369 0.51579 0.8464 0.0
C3115 C 0.00506 0.52948 0.83738 0.0
C3116 C 0.00252 0.52864 0.81936 0.0
C3117 C 0.99855 0.5141 0.80964 0.0
C3118 C 0.99707 0.50015 0.81847 0.0
C3119 C 0.99984 0.50107 0.83683 0.0
C3120 C 0.99786 0.41358 0.87521 0.0
C3121 C 0.00786 0.4248 0.89082 0.0
O3122 O 0.00456 0.5679 0.75244 0.0
O3123 O 0.01648 0.5724 0.90536 0.0
O3124 O 0.00067 0.43384 0.89671 0.0
O3125 O 0.9699 0.42685 0.74832 0.0
H3126 H 0.99684 0.555 0.72907 0.0
H3127 H 0.02722 0.56664 0.73175 0.0
H3128 H 0.03082 0.58759 0.73365 0.0
H3129 H 0.02286 0.57568 0.71342 0.0
H3130 H 0.97598 0.54336 0.76221 0.0
H3131 H 0.02868 0.56377 0.76366 0.0
H3132 H 0.96364 0.50354 0.77434 0.0
H3133 H 0.95746 0.51892 0.7772 0.0
H3134 H 0.96629 0.51355 0.79529 0.0
H3135 H 0.04111 0.54931 0.77546 0.0
H3136 H 0.02794 0.52704 0.77752 0.0
H3137 H 0.03141 0.54059 0.79597 0.0
H3138 H 0.98696 0.43878 0.72891 0.0
H3139 H 0.96609 0.42668 0.70481 0.0
H3140 H 0.96107 0.43787 0.72072 0.0
H3141 H 0.94977 0.41542 0.72037 0.0
H3142 H 0.00126 0.451 0.75404 0.0
H3143 H 0.95028 0.43262 0.76692 0.0
H3144 H 0.01743 0.49187 0.76739 0.0
H3145 H 0.02322 0.4761 0.76583 0.0
H3146 H 0.01912 0.48232 0.78684 0.0
H3147 H 0.94195 0.44766 0.78517 0.0
H3148 H 0.95524 0.47002 0.7843 0.0
H3149 H 0.95696 0.45903 0.80244 0.0
H3150 H 0.02077 0.43329 0.88654 0.0
H3151 H 0.0269 0.45824 0.8801 0.0
H3152 H 0.97706 0.44048 0.89732 0.0
H3153 H 0.02952 0.48492 0.84943 0.0
H3154 H 0.04253 0.48369 0.86615 0.0
H3155 H 0.03554 0.49852 0.86828 0.0
H3156 H 0.96222 0.454 0.89034 0.0
H3157 H 0.96808 0.46484 0.86989 0.0
H3158 H 0.97553 0.47637 0.89012 0.0
H3159 H 0.01901 0.59023 0.88752 0.0
H3160 H 0.98973 0.59123 0.91669 0.0
H3161 H 0.02474 0.60855 0.91042 0.0
H3162 H 0.02119 0.5945 0.9254 0.0
H3163 H 0.0393 0.56551 0.89732 0.0
H3164 H 0.9873 0.54866 0.8924 0.0
H3165 H 0.04025 0.53886 0.86394 0.0
H3166 H 0.03822 0.52969 0.88488 0.0
H3167 H 0.05152 0.55189 0.88268 0.0
H3168 H 0.96812 0.52263 0.87997 0.0
H3169 H 0.97477 0.50764 0.8766 0.0
H3170 H 0.97643 0.52113 0.85927 0.0
H3171 H 0.98965 0.49767 0.76808 0.0
H3172 H 0.98851 0.4601 0.81118 0.0
H3173 H 0.99349 0.46175 0.84209 0.0
H3174 H 0.00732 0.50349 0.88724 0.0
H3175 H 0.00817 0.54103 0.84415 0.0
H3176 H 0.00367 0.53954 0.81314 0.0
H3177 H 0.0034 0.40608 0.87065 0.0
H3178 H 0.99806 0.42134 0.86422 0.0
H3179 H 0.98471 0.40502 0.8788 0.0
C3180 C 0.57023 0.59463 0.72895 0.0
C3181 C 0.55339 0.58606 0.73683 0.0
C3182 C 0.5345 0.56 0.75124 0.0
C3183 C 0.52237 0.56424 0.75521 0.0
C3184 C 0.50855 0.55375 0.76532 0.0
C3185 C 0.50705 0.53895 0.77195 0.0
C3186 C 0.51925 0.53467 0.76797 0.0
C3187 C 0.53272 0.54519 0.75751 0.0
C3188 C 0.49558 0.55852 0.76896 0.0
C3189 C 0.5181 0.51901 0.77485 0.0
C3190 C 0.38823 0.43741 0.75927 0.0
C3191 C 0.40065 0.43928 0.74514 0.0
C3192 C 0.42759 0.45758 0.76012 0.0
C3193 C 0.44112 0.45782 0.76835 0.0
C3194 C 0.45378 0.47236 0.77656 0.0
C3195 C 0.45283 0.48705 0.77652 0.0
C3196 C 0.43929 0.48701 0.76804 0.0
C3197 C 0.42681 0.47229 0.75986 0.0
C3198 C 0.46812 0.47201 0.78537 0.0
C3199 C 0.43799 0.50252 0.76774 0.0
C3200 C 0.42877 0.48206 0.89434 0.0
C3201 C 0.44356 0.48198 0.89206 0.0
C3202 C 0.4553 0.49222 0.87984 0.0
C3203 C 0.45226 0.50309 0.86982 0.0
C3204 C 0.43713 0.50302 0.87177 0.0
C3205 C 0.42538 0.49228 0.88381 0.0
C3206 C 0.47114 0.4917 0.87801 0.0
C3207 C 0.43353 0.51453 0.86139 0.0
C3208 C 0.55814 0.62102 0.88086 0.0
C3209 C 0.55174 0.60897 0.89612 0.0
C3210 C 0.5346 0.581 0.8824 0.0
C3211 C 0.534 0.56592 0.87901 0.0
C3212 C 0.52023 0.55258 0.87051 0.0
C3213 C 0.50674 0.55446 0.86513 0.0
C3214 C 0.5072 0.56967 0.86852 0.0
C3215 C 0.52114 0.58282 0.87715 0.0
C3216 C 0.52017 0.53652 0.86715 0.0
C3217 C 0.49303 0.57205 0.86285 0.0
C3218 C 0.49281 0.52798 0.78316 0.0
C3219 C 0.47951 0.51366 0.77548 0.0
C3220 C 0.46603 0.50244 0.7854 0.0
C3221 C 0.46559 0.50562 0.80348 0.0
C3222 C 0.45224 0.49453 0.81386 0.0
C3223 C 0.45211 0.49758 0.83172 0.0
C3224 C 0.46523 0.51193 0.83986 0.0
C3225 C 0.46535 0.51506 0.85805 0.0
C3226 C 0.47876 0.52932 0.86573 0.0
C3227 C 0.49226 0.54049 0.85581 0.0
C3228 C 0.49232 0.53766 0.8376 0.0
C3229 C 0.50574 0.54866 0.82726 0.0
C3230 C 0.50595 0.54552 0.80945 0.0
C3231 C 0.49266 0.53135 0.80124 0.0
C3232 C 0.47895 0.52015 0.81141 0.0
C3233 C 0.47877 0.52332 0.82961 0.0
C3234 C 0.40668 0.48629 0.92297 0.0
C3235 C 0.40356 0.47072 0.9125 0.0
O3236 O 0.54806 0.5698 0.74151 0.0
O3237 O 0.54848 0.59333 0.89059 0.0
O3238 O 0.41845 0.47231 0.90706 0.0
O3239 O 0.41566 0.44289 0.75278 0.0
H3240 H 0.54376 0.58729 0.72937 0.0
H3241 H 0.57316 0.58464 0.72521 0.0
H3242 H 0.58456 0.61376 0.74705 0.0
H3243 H 0.56811 0.5971 0.71508 0.0
H3244 H 0.52353 0.57565 0.7504 0.0
H3245 H 0.54212 0.54202 0.75436 0.0
H3246 H 0.48296 0.54783 0.76591 0.0
H3247 H 0.49755 0.56937 0.76125 0.0
H3248 H 0.496 0.56173 0.78307 0.0
H3249 H 0.52944 0.51835 0.77208 0.0
H3250 H 0.50723 0.50796 0.76867 0.0
H3251 H 0.51615 0.51833 0.7892 0.0
H3252 H 0.40275 0.44947 0.73623 0.0
H3253 H 0.37616 0.43441 0.75316 0.0
H3254 H 0.39297 0.44916 0.76703 0.0
H3255 H 0.3861 0.42731 0.76833 0.0
H3256 H 0.44165 0.44646 0.76843 0.0
H3257 H 0.41652 0.47241 0.75343 0.0
H3258 H 0.46834 0.47483 0.79957 0.0
H3259 H 0.48006 0.48178 0.77991 0.0
H3260 H 0.4673 0.45973 0.78373 0.0
H3261 H 0.42652 0.5004 0.76087 0.0
H3262 H 0.44897 0.5126 0.7611 0.0
H3263 H 0.43805 0.50693 0.78133 0.0
H3264 H 0.39557 0.46892 0.90087 0.0
H3265 H 0.44599 0.47394 0.90012 0.0
H3266 H 0.41379 0.49218 0.88509 0.0
H3267 H 0.47414 0.49151 0.864 0.0
H3268 H 0.47032 0.48065 0.88436 0.0
H3269 H 0.48156 0.50308 0.88427 0.0
H3270 H 0.42173 0.51381 0.8653 0.0
H3271 H 0.43267 0.51125 0.84726 0.0
H3272 H 0.44388 0.5276 0.86318 0.0
H3273 H 0.54019 0.60807 0.90126 0.0
H3274 H 0.56077 0.63358 0.88525 0.0
H3275 H 0.54868 0.61655 0.87015 0.0
H3276 H 0.56971 0.62206 0.87559 0.0
H3277 H 0.54445 0.56465 0.88309 0.0
H3278 H 0.52142 0.59444 0.87956 0.0
H3279 H 0.51996 0.5342 0.85284 0.0
H3280 H 0.50878 0.52592 0.87261 0.0
H3281 H 0.53123 0.53677 0.873 0.0
H3282 H 0.49541 0.58476 0.86609 0.0
H3283 H 0.48142 0.56279 0.86932 0.0
H3284 H 0.49093 0.56982 0.84851 0.0
H3285 H 0.47978 0.51107 0.76163 0.0
H3286 H 0.44178 0.48331 0.80831 0.0
H3287 H 0.4416 0.48853 0.83909 0.0
H3288 H 0.47894 0.53148 0.87974 0.0
H3289 H 0.5163 0.55978 0.83284 0.0
H3290 H 0.5167 0.55434 0.80221 0.0
H3291 H 0.4151 0.48861 0.93436 0.0
H3292 H 0.39472 0.48464 0.92778 0.0
H3293 H 0.41248 0.49749 0.91475 0.0
C3294 C 0.62142 0.75316 0.62992 0.0
C3295 C 0.62894 0.74921 0.61403 0.0
C3296 C 0.63656 0.77331 0.59535 0.0
C3297 C 0.62024 0.76878 0.5903 0.0
C3298 C 0.61718 0.77934 0.58004 0.0
C3299 C 0.63068 0.7947 0.57467 0.0
C3300 C 0.64713 0.79918 0.57945 0.0
C3301 C 0.64984 0.78838 0.5897 0.0
C3302 C 0.59949 0.77418 0.57509 0.0
C3303 C 0.66179 0.81546 0.57386 0.0
C3304 C 0.60102 0.86752 0.64276 0.0
C3305 C 0.61454 0.87218 0.62914 0.0
C3306 C 0.61085 0.85859 0.60063 0.0
C3307 C 0.62735 0.86282 0.59766 0.0
C3308 C 0.63098 0.85368 0.58551 0.0
C3309 C 0.61779 0.83983 0.57646 0.0
C3310 C 0.60115 0.83578 0.57925 0.0
C3311 C 0.59796 0.84552 0.59101 0.0
C3312 C 0.64888 0.85861 0.58263 0.0
C3313 C 0.58666 0.82083 0.57033 0.0
C3314 C 0.6028 0.85809 0.46506 0.0
C3315 C 0.6195 0.86391 0.46961 0.0
C3316 C 0.62417 0.85339 0.47762 0.0
C3317 C 0.61184 0.83681 0.48136 0.0
C3318 C 0.59511 0.83076 0.47615 0.0
C3319 C 0.59086 0.84145 0.46783 0.0
C3320 C 0.64222 0.86006 0.48234 0.0
C3321 C 0.58165 0.81312 0.47976 0.0
C3322 C 0.61852 0.72903 0.47205 0.0
C3323 C 0.61869 0.73647 0.45425 0.0
C3324 C 0.62671 0.76531 0.46274 0.0
C3325 C 0.6401 0.78166 0.46389 0.0
C3326 C 0.63867 0.79427 0.47256 0.0
C3327 C 0.62334 0.79041 0.4801 0.0
C3328 C 0.60952 0.77403 0.47844 0.0
C3329 C 0.61135 0.76162 0.46987 0.0
C3330 C 0.65363 0.81161 0.47406 0.0
C3331 C 0.59291 0.76956 0.48608 0.0
C3332 C 0.62752 0.80631 0.56454 0.0
C3333 C 0.62484 0.81772 0.5739 0.0
C3334 C 0.62128 0.82874 0.56536 0.0
C3335 C 0.62045 0.82848 0.54686 0.0
C3336 C 0.61708 0.83949 0.53778 0.0
C3337 C 0.61566 0.83868 0.5196 0.0
C3338 C 0.61787 0.82704 0.50978 0.0
C3339 C 0.61628 0.82599 0.4913 0.0
C3340 C 0.61836 0.81413 0.48199 0.0
C3341 C 0.62201 0.80321 0.49064 0.0
C3342 C 0.62383 0.80419 0.50907 0.0
C3343 C 0.62768 0.79351 0.51814 0.0
C3344 C 0.62901 0.79425 0.53629 0.0
C3345 C 0.62657 0.80573 0.54608 0.0
C3346 C 0.62296 0.81681 0.53721 0.0
C3347 C 0.62163 0.81608 0.51866 0.0
C3348 C 0.59029 0.88829 0.46596 0.0
C3349 C 0.60447 0.88495 0.46232 0.0
O3350 O 0.64012 0.76374 0.60575 0.0
O3351 O 0.62929 0.75361 0.45487 0.0
O3352 O 0.59778 0.86819 0.45814 0.0
O3353 O 0.60695 0.86676 0.61281 0.0
H3354 H 0.61875 0.74096 0.6047 0.0
H3355 H 0.61429 0.75914 0.62579 0.0
H3356 H 0.63133 0.76175 0.6393 0.0
H3357 H 0.61276 0.74149 0.6367 0.0
H3358 H 0.60976 0.75714 0.59438 0.0
H3359 H 0.66238 0.79176 0.59358 0.0
H3360 H 0.5964 0.78341 0.58052 0.0
H3361 H 0.59035 0.76166 0.57996 0.0
H3362 H 0.59818 0.77405 0.56063 0.0
H3363 H 0.67385 0.81697 0.57835 0.0
H3364 H 0.66068 0.826 0.57924 0.0
H3365 H 0.66181 0.81619 0.55938 0.0
H3366 H 0.62129 0.86554 0.63256 0.0
H3367 H 0.60661 0.87122 0.65612 0.0
H3368 H 0.59237 0.85382 0.64239 0.0
H3369 H 0.59379 0.87377 0.64005 0.0
H3370 H 0.63737 0.87324 0.60483 0.0
H3371 H 0.58528 0.84249 0.59335 0.0
H3372 H 0.65129 0.85842 0.56844 0.0
H3373 H 0.65144 0.84948 0.58901 0.0
H3374 H 0.65767 0.87121 0.5882 0.0
H3375 H 0.57452 0.8181 0.57575 0.0
H3376 H 0.58787 0.80963 0.5717 0.0
H3377 H 0.58659 0.82316 0.55616 0.0
H3378 H 0.61189 0.88815 0.47471 0.0
H3379 H 0.62888 0.87666 0.46691 0.0
H3380 H 0.57806 0.83704 0.46401 0.0
H3381 H 0.64384 0.86127 0.49679 0.0
H3382 H 0.65051 0.87245 0.47665 0.0
H3383 H 0.64618 0.85124 0.47773 0.0
H3384 H 0.56909 0.81065 0.47584 0.0
H3385 H 0.58163 0.81059 0.49391 0.0
H3386 H 0.58421 0.80426 0.47247 0.0
H3387 H 0.60591 0.7336 0.45071 0.0
H3388 H 0.61019 0.71527 0.47149 0.0
H3389 H 0.61387 0.73414 0.48231 0.0
H3390 H 0.63127 0.73198 0.47588 0.0
H3391 H 0.65186 0.78444 0.45827 0.0
H3392 H 0.60077 0.74909 0.46899 0.0
H3393 H 0.65678 0.81526 0.48808 0.0
H3394 H 0.65067 0.82063 0.46812 0.0
H3395 H 0.66469 0.8126 0.46752 0.0
H3396 H 0.58297 0.75677 0.48215 0.0
H3397 H 0.58915 0.77856 0.48184 0.0
H3398 H 0.59397 0.77037 0.50057 0.0
H3399 H 0.62529 0.81784 0.58809 0.0
H3400 H 0.61534 0.84874 0.54465 0.0
H3401 H 0.61279 0.8473 0.51337 0.0
H3402 H 0.61692 0.81325 0.46786 0.0
H3403 H 0.62964 0.78437 0.51132 0.0
H3404 H 0.6319 0.78565 0.54257 0.0
H3405 H 0.59536 0.90167 0.4694 0.0
H3406 H 0.58291 0.88074 0.47714 0.0
H3407 H 0.58187 0.88491 0.45436 0.0
C3408 C 0.12869 0.75904 0.65289 0.0
C3409 C 0.11938 0.75801 0.63593 0.0
C3410 C 0.13463 0.76037 0.60942 0.0
C3411 C 0.13228 0.77204 0.60041 0.0
C3412 C 0.14376 0.78228 0.58795 0.0
C3413 C 0.15778 0.7807 0.5844 0.0
C3414 C 0.15958 0.76819 0.59266 0.0
C3415 C 0.14783 0.75803 0.60498 0.0
C3416 C 0.14123 0.7952 0.57904 0.0
C3417 C 0.17427 0.76604 0.58899 0.0
C3418 C 0.27126 0.88789 0.59361 0.0
C3419 C 0.2611 0.88636 0.60995 0.0
C3420 C 0.23299 0.86602 0.5987 0.0
C3421 C 0.23503 0.85204 0.59814 0.0
C3422 C 0.22297 0.83705 0.59003 0.0
C3423 C 0.20855 0.83597 0.58254 0.0
C3424 C 0.20613 0.84978 0.58376 0.0
C3425 C 0.21842 0.86463 0.59184 0.0
C3426 C 0.22578 0.82245 0.58913 0.0
C3427 C 0.19075 0.84895 0.57618 0.0
C3428 C 0.23576 0.85626 0.47123 0.0
C3429 C 0.23733 0.84221 0.47404 0.0
C3430 C 0.22492 0.82833 0.48276 0.0
C3431 C 0.21053 0.82836 0.48847 0.0
C3432 C 0.2086 0.84219 0.48498 0.0
C3433 C 0.22135 0.85602 0.47659 0.0
C3434 C 0.22737 0.81379 0.48622 0.0
C3435 C 0.19326 0.84253 0.49049 0.0
C3436 C 0.10648 0.69847 0.47172 0.0
C3437 C 0.11177 0.71653 0.46774 0.0
C3438 C 0.13954 0.74058 0.47317 0.0
C3439 C 0.15564 0.74418 0.4773 0.0
C3440 C 0.16698 0.75913 0.48597 0.0
C3441 C 0.16218 0.77095 0.49016 0.0
C3442 C 0.14614 0.76773 0.48522 0.0
C3443 C 0.13492 0.75251 0.47685 0.0
C3444 C 0.18402 0.76218 0.49088 0.0
C3445 C 0.14082 0.78031 0.48896 0.0
C3446 C 0.17136 0.79325 0.57355 0.0
C3447 C 0.18353 0.80783 0.58205 0.0
C3448 C 0.19631 0.82066 0.57276 0.0
C3449 C 0.19706 0.81904 0.55443 0.0
C3450 C 0.20973 0.83179 0.54469 0.0
C3451 C 0.21014 0.83028 0.52662 0.0
C3452 C 0.19793 0.81595 0.51757 0.0
C3453 C 0.19804 0.8145 0.49913 0.0
C3454 C 0.1861 0.79983 0.49059 0.0
C3455 C 0.17387 0.78651 0.49997 0.0
C3456 C 0.17323 0.78794 0.51838 0.0
C3457 C 0.16085 0.77497 0.52823 0.0
C3458 C 0.16015 0.77668 0.5463 0.0
C3459 C 0.172 0.79128 0.55524 0.0
C3460 C 0.18482 0.80432 0.54563 0.0
C3461 C 0.18532 0.80273 0.52718 0.0
C3462 C 0.27589 0.87735 0.47056 0.0
C3463 C 0.26251 0.87308 0.45638 0.0
O3464 O 0.12454 0.75143 0.62263 0.0
O3465 O 0.12885 0.72552 0.46564 0.0
O3466 O 0.24782 0.87038 0.46376 0.0
O3467 O 0.24472 0.88109 0.60546 0.0
H3468 H 0.12278 0.77104 0.63313 0.0
H3469 H 0.14225 0.76762 0.65123 0.0
H3470 H 0.12667 0.74661 0.65638 0.0
H3471 H 0.12446 0.76395 0.66381 0.0
H3472 H 0.12161 0.77332 0.60329 0.0
H3473 H 0.14933 0.74874 0.61179 0.0
H3474 H 0.15118 0.80784 0.58336 0.0
H3475 H 0.12898 0.79388 0.58205 0.0
H3476 H 0.14217 0.79422 0.56465 0.0
H3477 H 0.17335 0.75509 0.59567 0.0
H3478 H 0.1859 0.7774 0.59347 0.0
H3479 H 0.17525 0.76453 0.57469 0.0
H3480 H 0.26143 0.87722 0.61892 0.0
H3481 H 0.26656 0.87558 0.58703 0.0
H3482 H 0.28451 0.89277 0.59732 0.0
H3483 H 0.27057 0.89642 0.5841 0.0
H3484 H 0.24605 0.85277 0.60379 0.0
H3485 H 0.21687 0.8754 0.59252 0.0
H3486 H 0.21532 0.81153 0.59543 0.0
H3487 H 0.23762 0.82523 0.59565 0.0
H3488 H 0.22601 0.81891 0.57524 0.0
H3489 H 0.19023 0.86039 0.57923 0.0
H3490 H 0.17944 0.83802 0.58135 0.0
H3491 H 0.19049 0.84727 0.56176 0.0
H3492 H 0.26022 0.86161 0.44917 0.0
H3493 H 0.24828 0.84203 0.46982 0.0
H3494 H 0.22017 0.86684 0.47426 0.0
H3495 H 0.22598 0.81098 0.50038 0.0
H3496 H 0.23977 0.81616 0.48206 0.0
H3497 H 0.21764 0.80257 0.47903 0.0
H3498 H 0.19254 0.85297 0.48455 0.0
H3499 H 0.19341 0.844 0.50494 0.0
H3500 H 0.18187 0.8306 0.48676 0.0
H3501 H 0.10823 0.7214 0.47933 0.0
H3502 H 0.09282 0.69102 0.47365 0.0
H3503 H 0.1128 0.69808 0.48391 0.0
H3504 H 0.10987 0.6927 0.4609 0.0
H3505 H 0.15913 0.73497 0.47416 0.0
H3506 H 0.12263 0.75001 0.47309 0.0
H3507 H 0.18643 0.76513 0.5051 0.0
H3508 H 0.19361 0.77311 0.48376 0.0
H3509 H 0.18544 0.75128 0.4877 0.0
H3510 H 0.12854 0.7766 0.48288 0.0
H3511 H 0.15023 0.79269 0.48403 0.0
H3512 H 0.14 0.78167 0.50331 0.0
H3513 H 0.18292 0.8093 0.59609 0.0
H3514 H 0.21944 0.84314 0.5509 0.0
H3515 H 0.22018 0.84054 0.51985 0.0
H3516 H 0.18639 0.79873 0.47646 0.0
H3517 H 0.15146 0.76341 0.52206 0.0
H3518 H 0.15025 0.76639 0.55319 0.0
H3519 H 0.28777 0.88009 0.46443 0.0
H3520 H 0.27206 0.86672 0.4794 0.0
H3521 H 0.27808 0.8883 0.47866 0.0
C3522 C 0.13419 0.38016 0.63572 0.0
C3523 C 0.12213 0.37081 0.62037 0.0
C3524 C 0.13872 0.36321 0.60144 0.0
C3525 C 0.15009 0.37945 0.59601 0.0
C3526 C 0.16358 0.38253 0.58544 0.0
C3527 C 0.16562 0.3691 0.57995 0.0
C3528 C 0.15393 0.35269 0.5849 0.0
C3529 C 0.14066 0.35 0.59564 0.0
C3530 C 0.17586 0.40019 0.58041 0.0
C3531 C 0.15562 0.33806 0.57911 0.0
C3532 C 0.26196 0.38797 0.64999 0.0
C3533 C 0.2543 0.37585 0.63437 0.0
C3534 C 0.24711 0.38275 0.60641 0.0
C3535 C 0.23437 0.36686 0.60101 0.0
C3536 C 0.22229 0.36499 0.58872 0.0
C3537 C 0.22283 0.37933 0.58196 0.0
C3538 C 0.236 0.39538 0.58701 0.0
C3539 C 0.2482 0.39684 0.59893 0.0
C3540 C 0.20867 0.34768 0.58336 0.0
C3541 C 0.23686 0.41098 0.58037 0.0
C3542 C 0.25877 0.3985 0.47164 0.0
C3543 C 0.24723 0.38168 0.47471 0.0
C3544 C 0.23195 0.37705 0.48259 0.0
C3545 C 0.22827 0.38952 0.48763 0.0
C3546 C 0.23963 0.40641 0.48389 0.0
C3547 C 0.25466 0.41063 0.47572 0.0
C3548 C 0.21986 0.35888 0.48578 0.0
C3549 C 0.23604 0.42002 0.48889 0.0
C3550 C 0.11422 0.38351 0.47572 0.0
C3551 C 0.12222 0.38323 0.45835 0.0
C3552 C 0.1424 0.37498 0.4676 0.0
C3553 C 0.1451 0.36155 0.4684 0.0
C3554 C 0.1589 0.36294 0.47742 0.0
C3555 C 0.17039 0.37826 0.48571 0.0
C3556 C 0.16806 0.3921 0.48452 0.0
C3557 C 0.15404 0.39031 0.47556 0.0
C3558 C 0.16103 0.34795 0.47843 0.0
C3559 C 0.18023 0.40869 0.493 0.0
C3560 C 0.18051 0.37233 0.56988 0.0
C3561 C 0.19427 0.37422 0.57928 0.0
C3562 C 0.20887 0.37753 0.57086 0.0
C3563 C 0.2099 0.37916 0.55248 0.0
C3564 C 0.2244 0.38253 0.54357 0.0
C3565 C 0.22543 0.38456 0.52553 0.0
C3566 C 0.21188 0.38293 0.51566 0.0
C3567 C 0.21283 0.38503 0.49732 0.0
C3568 C 0.19911 0.38331 0.48793 0.0
C3569 C 0.18438 0.37958 0.49637 0.0
C3570 C 0.1832 0.37743 0.51468 0.0
C3571 C 0.16853 0.37359 0.52356 0.0
C3572 C 0.16759 0.37183 0.54162 0.0
C3573 C 0.18125 0.37381 0.5515 0.0
C3574 C 0.19605 0.37736 0.54279 0.0
C3575 C 0.19703 0.3792 0.52435 0.0
C3576 C 0.30051 0.41059 0.47632 0.0
C3577 C 0.28391 0.39678 0.46866 0.0
O3578 O 0.12594 0.35969 0.6124 0.0
O3579 O 0.12837 0.37246 0.4592 0.0
O3580 O 0.27391 0.40341 0.46474 0.0
O3581 O 0.25826 0.38485 0.61911 0.0
H3582 H 0.12312 0.38003 0.61065 0.0
H3583 H 0.14711 0.38782 0.63106 0.0
H3584 H 0.134 0.37133 0.64542 0.0
H3585 H 0.13071 0.38867 0.64232 0.0
H3586 H 0.14872 0.38985 0.60012 0.0
H3587 H 0.13181 0.3375 0.59977 0.0
H3588 H 0.18855 0.40362 0.58501 0.0
H3589 H 0.17271 0.40933 0.586 0.0
H3590 H 0.17618 0.40113 0.56595 0.0
H3591 H 0.14466 0.32595 0.58266 0.0
H3592 H 0.16689 0.33908 0.58534 0.0
H3593 H 0.15721 0.33818 0.56472 0.0
H3594 H 0.24056 0.36909 0.63627 0.0
H3595 H 0.2588 0.38103 0.6624 0.0
H3596 H 0.25694 0.39654 0.65044 0.0
H3597 H 0.27571 0.39554 0.64895 0.0
H3598 H 0.23381 0.35593 0.60651 0.0
H3599 H 0.25822 0.40905 0.60311 0.0
H3600 H 0.20656 0.34675 0.56897 0.0
H3601 H 0.19691 0.34502 0.58968 0.0
H3602 H 0.21161 0.338 0.58731 0.0
H3603 H 0.2471 0.42246 0.58674 0.0
H3604 H 0.22491 0.41056 0.58273 0.0
H3605 H 0.23887 0.41177 0.56605 0.0
H3606 H 0.27819 0.38731 0.47903 0.0
H3607 H 0.25012 0.37218 0.47089 0.0
H3608 H 0.26356 0.42354 0.47301 0.0
H3609 H 0.21883 0.35669 0.50007 0.0
H3610 H 0.22379 0.3506 0.47952 0.0
H3611 H 0.2073 0.3554 0.4807 0.0
H3612 H 0.24649 0.43261 0.48578 0.0
H3613 H 0.23357 0.41963 0.50312 0.0
H3614 H 0.22469 0.41794 0.48181 0.0
H3615 H 0.13254 0.39598 0.4555 0.0
H3616 H 0.10915 0.39202 0.475 0.0
H3617 H 0.12357 0.38803 0.48655 0.0
H3618 H 0.10397 0.3708 0.47884 0.0
H3619 H 0.13612 0.34981 0.46215 0.0
H3620 H 0.15227 0.40091 0.47501 0.0
H3621 H 0.16125 0.34477 0.49233 0.0
H3622 H 0.17314 0.35092 0.47273 0.0
H3623 H 0.15092 0.33687 0.47138 0.0
H3624 H 0.17749 0.41862 0.48959 0.0
H3625 H 0.19309 0.41259 0.48895 0.0
H3626 H 0.17978 0.40747 0.50744 0.0
H3627 H 0.19362 0.37314 0.5934 0.0
H3628 H 0.23517 0.38381 0.55047 0.0
H3629 H 0.237 0.38738 0.51944 0.0
H3630 H 0.19994 0.38503 0.4739 0.0
H3631 H 0.15762 0.37197 0.51666 0.0
H3632 H 0.15602 0.36895 0.54776 0.0
H3633 H 0.30871 0.40553 0.47957 0.0
H3634 H 0.29829 0.41577 0.48852 0.0
H3635 H 0.30697 0.42089 0.46697 0.0
C3636 C 0.00834 0.40498 0.08976 0.0
C3637 C 0.99495 0.3886 0.08732 0.0
C3638 C 0.00873 0.41506 0.10374 0.0
C3639 C 0.9956 0.40924 0.11568 0.0
H3640 H 0.01872 0.40999 0.08089 0.0
H3641 H 0.0194 0.42752 0.1052 0.0
S3642 S 0.95787 0.3671 0.11529 0.0
N3643 N 0.9684 0.36686 0.0981 0.0
N3644 N 0.96911 0.38581 0.12449 0.0
C3645 C 0.98226 0.39277 0.11354 0.0
C3646 C 0.98192 0.38247 0.09933 0.0
C3647 C 0.6219 0.5674 0.06942 0.0
C3648 C 0.62456 0.58323 0.07404 0.0
C3649 C 0.61525 0.55442 0.08141 0.0
C3650 C 0.61073 0.55675 0.09833 0.0
H3651 H 0.62511 0.56509 0.0565 0.0
H3652 H 0.61357 0.54245 0.07739 0.0
S3653 S 0.61462 0.59591 0.11629 0.0
N3654 N 0.62203 0.60063 0.09632 0.0
N3655 N 0.60906 0.57617 0.11877 0.0
C3656 C 0.61319 0.57257 0.10295 0.0
C3657 C 0.62021 0.58582 0.09082 0.0
C3658 C 0.41347 0.03719 0.0932 0.0
C3659 C 0.40521 0.02243 0.08304 0.0
C3660 C 0.42473 0.03907 0.10654 0.0
C3661 C 0.42807 0.02624 0.11023 0.0
H3662 H 0.41136 0.04739 0.09067 0.0
H3663 H 0.43089 0.05067 0.11405 0.0
S3664 S 0.40804 0.98445 0.08839 0.0
N3665 N 0.40018 0.99443 0.07808 0.0
N3666 N 0.42094 0.99768 0.10344 0.0
C3667 C 0.41933 0.01117 0.1005 0.0
C3668 C 0.40806 0.00937 0.08679 0.0
C3669 C 0.39641 0.99472 0.92522 0.0
C3670 C 0.38464 0.98104 0.93472 0.0
C3671 C 0.40583 0.99275 0.91221 0.0
C3672 C 0.40385 0.97701 0.9082 0.0
H3673 H 0.39851 0.0071 0.92802 0.0
H3674 H 0.41476 0.00364 0.90521 0.0
S3675 S 0.37368 0.93704 0.92846 0.0
N3676 N 0.37087 0.95114 0.93873 0.0
N3677 N 0.38849 0.94735 0.91418 0.0
C3678 C 0.39182 0.96317 0.91737 0.0
C3679 C 0.3823 0.96521 0.93068 0.0
C3680 C 0.02369 0.40345 0.92133 0.0
C3681 C 0.01049 0.39494 0.93293 0.0
C3682 C 0.02267 0.41291 0.90783 0.0
C3683 C 0.00847 0.41437 0.90553 0.0
H3684 H 0.03487 0.40269 0.92261 0.0
H3685 H 0.03312 0.4192 0.89916 0.0
S3686 S 0.97039 0.39438 0.93235 0.0
N3687 N 0.98278 0.38861 0.94132 0.0
N3688 N 0.98069 0.40604 0.91568 0.0
C3689 C 0.99505 0.40567 0.91687 0.0
C3690 C 0.99612 0.39609 0.93065 0.0
C3691 C 0.58944 0.61707 0.9242 0.0
C3692 C 0.58969 0.62755 0.9378 0.0
C3693 C 0.57733 0.61124 0.91085 0.0
C3694 C 0.56474 0.61538 0.91074 0.0
H3695 H 0.59858 0.61316 0.92394 0.0
H3696 H 0.5778 0.60332 0.90061 0.0
S3697 S 0.56082 0.64382 0.94232 0.0
N3698 N 0.5771 0.64297 0.94953 0.0
N3699 N 0.55402 0.63161 0.92467 0.0
C3700 C 0.5651 0.62622 0.92399 0.0
C3701 C 0.57756 0.6323 0.93751 0.0
C3702 C 0.00321 0.61466 0.91117 0.0
C3703 C 0.00293 0.60891 0.93385 0.0
C3704 C 0.99787 0.59939 0.89362 0.0
C3705 C 0.99575 0.57924 0.9006 0.0
H3706 H 0.00651 0.62725 0.90805 0.0
H3707 H 0.99934 0.60296 0.88007 0.0
S3708 S 0.98922 0.56173 0.95158 0.0
N3709 N 0.99491 0.58179 0.95588 0.0
N3710 N 0.98759 0.55724 0.92994 0.0
C3711 C 0.9909 0.5719 0.92344 0.0
C3712 C 0.99633 0.58771 0.93968 0.0
C3713 C 0.39673 0.43948 0.94808 0.0
C3714 C 0.37948 0.42825 0.94729 0.0
C3715 C 0.4043 0.45293 0.9368 0.0
C3716 C 0.39497 0.45566 0.92411 0.0
H3717 H 0.4045 0.43778 0.95743 0.0
H3718 H 0.41762 0.46131 0.93803 0.0
S3719 S 0.3492 0.43049 0.91744 0.0
N3720 N 0.35311 0.42115 0.9334 0.0
N3721 N 0.3674 0.44644 0.91203 0.0
C3722 C 0.37765 0.44467 0.92335 0.0
C3723 C 0.36992 0.43093 0.9349 0.0
C3724 C 0.5838 0.96686 0.92975 0.0
C3725 C 0.59954 0.98145 0.93048 0.0
C3726 C 0.57299 0.96329 0.91539 0.0
C3727 C 0.57747 0.97424 0.90129 0.0
H3728 H 0.57998 0.95792 0.94013 0.0
H3729 H 0.56117 0.9517 0.91514 0.0
S3730 S 0.61682 0.0147 0.89752 0.0
N3731 N 0.61867 0.00739 0.9164 0.0
N3732 N 0.5985 0.00057 0.88931 0.0
C3733 C 0.59303 0.98905 0.90207 0.0
C3734 C 0.60401 0.99269 0.91668 0.0
C3735 C 0.61055 0.00895 0.09547 0.0
C3736 C 0.62089 0.02284 0.08532 0.0
C3737 C 0.60221 0.01039 0.10997 0.0
C3738 C 0.60375 0.02575 0.11487 0.0
H3739 H 0.6089 0.99683 0.09222 0.0
H3740 H 0.59463 0.99938 0.11753 0.0
S3741 S 0.62944 0.06599 0.09277 0.0
N3742 N 0.63239 0.05254 0.08131 0.0
N3743 N 0.61643 0.05518 0.10839 0.0
C3744 C 0.6139 0.03973 0.10471 0.0
C3745 C 0.62248 0.03828 0.08997 0.0
C3746 C 0.96895 0.58011 0.0806 0.0
C3747 C 0.97798 0.59739 0.08401 0.0
C3748 C 0.96574 0.56875 0.09396 0.0
C3749 C 0.97182 0.57428 0.11115 0.0
H3750 H 0.96409 0.57534 0.06756 0.0
H3751 H 0.95836 0.55556 0.0908 0.0
S3752 S 0.99628 0.61834 0.1267 0.0
N3753 N 0.99298 0.61954 0.10568 0.0
N3754 N 0.98714 0.59825 0.13078 0.0
C3755 C 0.98089 0.59157 0.11466 0.0
C3756 C 0.98396 0.6031 0.1011 0.0
C3757 C 0.42735 0.3772 0.07843 0.0
C3758 C 0.41422 0.38022 0.08143 0.0
C3759 C 0.4389 0.37982 0.09172 0.0
C3760 C 0.43775 0.38555 0.10852 0.0
H3761 H 0.42837 0.3722 0.06591 0.0
H3762 H 0.44855 0.37691 0.08899 0.0
S3763 S 0.40678 0.3971 0.12246 0.0
N3764 N 0.40164 0.3907 0.10192 0.0
N3765 N 0.42309 0.39525 0.12702 0.0
C3766 C 0.42506 0.38923 0.11147 0.0
C3767 C 0.41337 0.38666 0.09791 0.0
C3768 C 0.647 0.72818 0.42475 0.0
C3769 C 0.63564 0.71398 0.41489 0.0
C3770 C 0.64152 0.73537 0.43731 0.0
C3771 C 0.62443 0.72875 0.44035 0.0
H3772 H 0.66024 0.73392 0.42258 0.0
H3773 H 0.65074 0.74623 0.44466 0.0
S3774 S 0.58976 0.69058 0.41939 0.0
N3775 N 0.60664 0.69273 0.41002 0.0
N3776 N 0.5963 0.70638 0.43347 0.0
C3777 C 0.61298 0.71424 0.43096 0.0
C3778 C 0.61858 0.70688 0.41822 0.0
C3779 C 0.27791 0.89773 0.41421 0.0
C3780 C 0.27993 0.91331 0.41891 0.0
C3781 C 0.27239 0.88493 0.42634 0.0
C3782 C 0.26841 0.88716 0.44353 0.0
H3783 H 0.2808 0.8955 0.4011 0.0
H3784 H 0.27119 0.87318 0.42221 0.0
S3785 S 0.27097 0.92558 0.46196 0.0
N3786 N 0.27735 0.93032 0.44165 0.0
N3787 N 0.26653 0.90615 0.46442 0.0
C3788 C 0.27023 0.90271 0.44829 0.0
C3789 C 0.2761 0.9158 0.43599 0.0
C3790 C 0.08655 0.35513 0.42649 0.0
C3791 C 0.08445 0.36661 0.41668 0.0
C3792 C 0.09868 0.36051 0.4398 0.0
C3793 C 0.10935 0.3776 0.44367 0.0
H3794 H 0.07889 0.34188 0.42372 0.0
H3795 H 0.09976 0.35119 0.44707 0.0
S3796 S 0.10763 0.41256 0.42312 0.0
N3797 N 0.09305 0.39574 0.41271 0.0
N3798 N 0.11604 0.40587 0.43755 0.0
C3799 C 0.107 0.38917 0.43431 0.0
C3800 C 0.09459 0.38368 0.42081 0.0
C3801 C 0.04835 0.29749 0.25757 0.0
C3802 C 0.04625 0.29264 0.2751 0.0
C3803 C 0.05441 0.2906 0.2453 0.0
C3804 C 0.05836 0.27842 0.25006 0.0
H3805 H 0.0456 0.30692 0.25339 0.0
H3806 H 0.05611 0.29491 0.23198 0.0
S3807 S 0.05415 0.26095 0.29431 0.0
N3808 N 0.04808 0.27473 0.29663 0.0
N3809 N 0.05917 0.26148 0.27356 0.0
C3810 C 0.05599 0.27327 0.26755 0.0
C3811 C 0.05002 0.28046 0.28007 0.0
C3812 C 0.72329 0.76161 0.27682 0.0
C3813 C 0.70612 0.75045 0.27824 0.0
C3814 C 0.7294 0.77479 0.26508 0.0
C3815 C 0.71854 0.77726 0.25434 0.0
H3816 H 0.73205 0.76028 0.28502 0.0
H3817 H 0.74272 0.78314 0.26442 0.0
S3818 S 0.67254 0.75037 0.25197 0.0
N3819 N 0.6784 0.74198 0.26724 0.0
N3820 N 0.6898 0.76663 0.24508 0.0
C3821 C 0.70134 0.76582 0.25531 0.0
C3822 C 0.69515 0.75249 0.26732 0.0
C3823 C 0.24815 0.96258 0.26492 0.0
C3824 C 0.24522 0.96219 0.28298 0.0
C3825 C 0.23513 0.95708 0.25264 0.0
C3826 C 0.21865 0.95126 0.25786 0.0
H3827 H 0.26062 0.96706 0.2602 0.0
H3828 H 0.238 0.9572 0.23892 0.0
S3829 S 0.20417 0.94682 0.30365 0.0
N3830 N 0.22446 0.95467 0.30554 0.0
N3831 N 0.20006 0.9449 0.28243 0.0
C3832 C 0.21553 0.95079 0.2759 0.0
C3833 C 0.22879 0.95619 0.28844 0.0
C3834 C 0.71216 0.95706 0.26107 0.0
C3835 C 0.71886 0.96078 0.27819 0.0
C3836 C 0.72086 0.95519 0.24719 0.0
C3837 C 0.73655 0.95682 0.24987 0.0
H3838 H 0.7002 0.95588 0.25828 0.0
H3839 H 0.7154 0.95283 0.23417 0.0
S3840 S 0.75937 0.96592 0.29228 0.0
N3841 N 0.74202 0.9657 0.29713 0.0
N3842 N 0.75821 0.96178 0.27107 0.0
C3843 C 0.74316 0.95996 0.26703 0.0
C3844 C 0.73433 0.96198 0.28118 0.0
C3845 C 0.04507 0.76974 0.27391 0.0
C3846 C 0.04769 0.75614 0.27284 0.0
C3847 C 0.04795 0.77999 0.25952 0.0
C3848 C 0.05361 0.77705 0.24356 0.0
H3849 H 0.04013 0.77208 0.28571 0.0
H3850 H 0.04523 0.78998 0.2607 0.0
S3851 S 0.06412 0.74415 0.23473 0.0
N3852 N 0.05766 0.74117 0.25512 0.0
N3853 N 0.0628 0.76022 0.22801 0.0
C3854 C 0.05694 0.76391 0.24261 0.0
C3855 C 0.05405 0.75353 0.25725 0.0
C3856 C 0.24646 0.28775 0.27047 0.0
C3857 C 0.25561 0.3041 0.27733 0.0
C3858 C 0.23683 0.28416 0.25514 0.0
C3859 C 0.2364 0.29688 0.2458 0.0
H3860 H 0.24686 0.27769 0.27697 0.0
H3861 H 0.22992 0.27136 0.25038 0.0
S3862 S 0.25768 0.34168 0.25891 0.0
N3863 N 0.26314 0.333 0.27424 0.0
N3864 N 0.24532 0.32639 0.24522 0.0
C3865 C 0.24515 0.31323 0.25287 0.0
C3866 C 0.25473 0.31681 0.26864 0.0
C3867 C 0.29012 0.36666 0.43953 0.0
C3868 C 0.29526 0.37499 0.42357 0.0
C3869 C 0.28599 0.37353 0.4537 0.0
C3870 C 0.28675 0.38896 0.45247 0.0
H3871 H 0.28942 0.35478 0.44115 0.0
H3872 H 0.28246 0.36683 0.46584 0.0
S3873 S 0.29955 0.41585 0.41359 0.0
N3874 N 0.30097 0.39955 0.40736 0.0
N3875 N 0.29298 0.41237 0.43394 0.0
C3876 C 0.29161 0.39731 0.43648 0.0
C3877 C 0.29586 0.39032 0.42204 0.0
C3878 C 0.61749 0.9029 0.41657 0.0
C3879 C 0.63265 0.91778 0.41982 0.0
C3880 C 0.60881 0.89208 0.43017 0.0
C3881 C 0.61502 0.89569 0.4475 0.0
H3882 H 0.61197 0.89993 0.40355 0.0
H3883 H 0.59689 0.88106 0.42721 0.0
S3884 S 0.655 0.93224 0.46252 0.0
N3885 N 0.65415 0.93491 0.44132 0.0
N3886 N 0.63775 0.91471 0.46692 0.0
C3887 C 0.63048 0.91021 0.45077 0.0
C3888 C 0.63931 0.9212 0.43693 0.0
C3889 C 0.07838 0.71677 0.43878 0.0
C3890 C 0.08248 0.71409 0.42184 0.0
C3891 C 0.0883 0.71826 0.45331 0.0
C3892 C 0.10272 0.71715 0.45147 0.0
H3893 H 0.06721 0.71737 0.44086 0.0
H3894 H 0.08439 0.71983 0.46616 0.0
S3895 S 0.11888 0.7102 0.40988 0.0
N3896 N 0.10196 0.71049 0.40398 0.0
N3897 N 0.12065 0.7133 0.4313 0.0
C3898 C 0.10716 0.71482 0.43453 0.0
C3899 C 0.09706 0.71335 0.41972 0.0
C3900 C 0.26834 0.04357 0.73289 0.0
C3901 C 0.29085 0.05355 0.73274 0.0
C3902 C 0.25836 0.05308 0.7447 0.0
C3903 C 0.27275 0.07133 0.75902 0.0
H3904 H 0.26081 0.03191 0.7258 0.0
H3905 H 0.245 0.04662 0.74615 0.0
S3906 S 0.3246 0.09894 0.75619 0.0
N3907 N 0.32073 0.08234 0.74345 0.0
N3908 N 0.30704 0.09807 0.76315 0.0
C3909 C 0.2955 0.08398 0.75502 0.0
C3910 C 0.30403 0.07361 0.74315 0.0
C3911 C 0.96399 0.22758 0.74183 0.0
C3912 C 0.95014 0.23387 0.73223 0.0
C3913 C 0.9557 0.20883 0.7546 0.0
C3914 C 0.93313 0.19919 0.75986 0.0
H3915 H 0.97726 0.23496 0.73989 0.0
H3916 H 0.96385 0.2057 0.76157 0.0
S3917 S 0.89862 0.20897 0.73632 0.0
N3918 N 0.91631 0.22467 0.72816 0.0
N3919 N 0.90203 0.19593 0.74835 0.0
C3920 C 0.91849 0.20259 0.74639 0.0
C3921 C 0.92775 0.22116 0.73413 0.0
C3922 C 0.7563 0.69606 0.74955 0.0
C3923 C 0.7525 0.70697 0.74093 0.0
C3924 C 0.76908 0.70198 0.76218 0.0
C3925 C 0.77887 0.71913 0.76636 0.0
H3926 H 0.74912 0.68278 0.74673 0.0
H3927 H 0.77125 0.69302 0.76876 0.0
S3928 S 0.7737 0.75279 0.74757 0.0
N3929 N 0.75924 0.73562 0.73754 0.0
N3930 N 0.78348 0.74686 0.76114 0.0
C3931 C 0.77507 0.73015 0.75787 0.0
C3932 C 0.76189 0.72406 0.74517 0.0
C3933 C 0.72754 0.63811 0.60367 0.0
C3934 C 0.71107 0.6271 0.60855 0.0
C3935 C 0.73505 0.63377 0.59041 0.0
C3936 C 0.7265 0.61802 0.58186 0.0
H3937 H 0.73456 0.65033 0.60991 0.0
H3938 H 0.74761 0.6429 0.5868 0.0
S3939 S 0.683 0.58481 0.58994 0.0
N3940 N 0.68629 0.60001 0.60381 0.0
N3941 N 0.7005 0.59156 0.57916 0.0
C3942 C 0.70998 0.60692 0.58671 0.0
C3943 C 0.70226 0.6115 0.6 0.0
C3944 C 0.38843 0.09838 0.5936 0.0
C3945 C 0.37309 0.0962 0.60959 0.0
C3946 C 0.39792 0.11624 0.57949 0.0
C3947 C 0.38818 0.12954 0.58033 0.0
H3948 H 0.39197 0.089 0.59244 0.0
H3949 H 0.40595 0.11697 0.56896 0.0
S3950 S 0.3561 0.12922 0.61829 0.0
N3951 N 0.35628 0.11181 0.6237 0.0
N3952 N 0.3693 0.13953 0.60201 0.0
C3953 C 0.37631 0.13013 0.59952 0.0
C3954 C 0.36768 0.11219 0.61275 0.0
C3955 C 0.9187 0.26916 0.58811 0.0
C3956 C 0.92063 0.28188 0.59978 0.0
C3957 C 0.90672 0.26328 0.57459 0.0
C3958 C 0.89605 0.26974 0.57237 0.0
H3959 H 0.92635 0.26355 0.58957 0.0
H3960 H 0.90576 0.25353 0.56588 0.0
S3961 S 0.89739 0.3045 0.59819 0.0
N3962 N 0.9119 0.30175 0.60731 0.0
N3963 N 0.88919 0.29051 0.58209 0.0
C3964 C 0.89824 0.28284 0.58361 0.0
C3965 C 0.9105 0.28888 0.59731 0.0
C3966 C 0.36354 0.287 0.57905 0.0
C3967 C 0.36947 0.28884 0.59636 0.0
C3968 C 0.37179 0.28446 0.56514 0.0
C3969 C 0.38629 0.28365 0.568 0.0
H3970 H 0.35248 0.28764 0.57621 0.0
H3971 H 0.36695 0.28343 0.55198 0.0
S3972 S 0.40723 0.28834 0.6109 0.0
N3973 N 0.39087 0.29001 0.61564 0.0
N3974 N 0.40643 0.28527 0.5895 0.0
C3975 C 0.39232 0.28543 0.5853 0.0
C3976 C 0.38387 0.28795 0.59947 0.0
C3977 C 0.71041 0.0931 0.58756 0.0
C3978 C 0.71602 0.08161 0.58689 0.0
C3979 C 0.71282 0.10359 0.57355 0.0
C3980 C 0.72064 0.1028 0.55816 0.0
H3981 H 0.70363 0.09365 0.59875 0.0
H3982 H 0.70812 0.11209 0.57459 0.0
S3983 S 0.73957 0.07648 0.55072 0.0
N3984 N 0.73153 0.07153 0.5704 0.0
N3985 N 0.73525 0.09057 0.54371 0.0
C3986 C 0.72692 0.09187 0.55761 0.0
C3987 C 0.72476 0.08142 0.57202 0.0
C3988 C 0.91773 0.6389 0.58022 0.0
C3989 C 0.91475 0.6313 0.59661 0.0
C3990 C 0.90784 0.63034 0.56554 0.0
C3991 C 0.89449 0.61387 0.56667 0.0
H3992 H 0.92799 0.6515 0.57866 0.0
H3993 H 0.91088 0.63655 0.55311 0.0
S3994 S 0.8813 0.58835 0.60656 0.0
N3995 N 0.89743 0.60632 0.61311 0.0
N3996 N 0.87859 0.59036 0.58557 0.0
C3997 C 0.89108 0.60625 0.58307 0.0
C3998 C 0.90123 0.61495 0.59802 0.0
C3999 C 0.95136 0.72346 0.7461 0.0
C4000 C 0.95694 0.71212 0.7486 0.0
C4001 C 0.95007 0.73256 0.76019 0.0
C4002 C 0.95405 0.73047 0.77741 0.0
H4003 H 0.9481 0.72545 0.73311 0.0
H4004 H 0.94617 0.74147 0.75749 0.0
S4005 S 0.97001 0.70297 0.79094 0.0
N4006 N 0.9672 0.6999 0.76957 0.0
N4007 N 0.96417 0.71653 0.79608 0.0
C4008 C 0.95953 0.71909 0.78009 0.0
C4009 C 0.96105 0.71 0.76573 0.0
C4010 C 0.27641 0.22196 0.73556 0.0
C4011 C 0.28852 0.23874 0.73899 0.0
C4012 C 0.26899 0.21075 0.74921 0.0
C4013 C 0.27353 0.21586 0.76681 0.0
H4014 H 0.27258 0.21748 0.72222 0.0
H4015 H 0.25947 0.19805 0.74596 0.0
S4016 S 0.30368 0.25874 0.7828 0.0
N4017 N 0.30403 0.26013 0.76129 0.0
N4018 N 0.2903 0.23902 0.7869 0.0
C4019 C 0.28552 0.23264 0.77039 0.0
C4020 C 0.29301 0.24406 0.75651 0.0
C4021 C 0.75475 0.0322 0.7434 0.0
C4022 C 0.75183 0.04355 0.73442 0.0
C4023 C 0.76466 0.03703 0.75865 0.0
C4024 C 0.77162 0.05333 0.76584 0.0
H4025 H 0.74923 0.01943 0.73864 0.0
H4026 H 0.76646 0.02772 0.76491 0.0
S4027 S 0.76851 0.08801 0.74651 0.0
N4028 N 0.75736 0.07196 0.73312 0.0
N4029 N 0.77581 0.08105 0.76189 0.0
C4030 C 0.76927 0.06492 0.75651 0.0
C4031 C 0.75937 0.06004 0.74086 0.0
C4032 C 0.08768 0.32616 0.03644 0.0
C4033 C 0.0715 0.32171 0.04143 0.0
C4034 C 0.09461 0.31644 0.04116 0.0
C4035 C 0.08555 0.30186 0.0509 0.0
H4036 H 0.09488 0.33705 0.02858 0.0
H4037 H 0.10699 0.32009 0.03674 0.0
S4038 S 0.04224 0.28449 0.06623 0.0
N4039 N 0.04642 0.30174 0.05622 0.0
N4040 N 0.05924 0.28324 0.0648 0.0
C4041 C 0.0693 0.29732 0.05593 0.0
C4042 C 0.06236 0.30733 0.0513 0.0
C4043 C 0.69409 0.74744 0.05753 0.0
C4044 C 0.6789 0.73367 0.06255 0.0
C4045 C 0.70179 0.76221 0.06762 0.0
C4046 C 0.6945 0.76388 0.08301 0.0
H4047 H 0.70035 0.74662 0.04599 0.0
H4048 H 0.7137 0.77232 0.06348 0.0
S4049 S 0.65441 0.73166 0.10142 0.0
N4050 N 0.65655 0.72275 0.08356 0.0
N4051 N 0.67102 0.75052 0.10261 0.0
C4052 C 0.67915 0.75027 0.08802 0.0
C4053 C 0.67135 0.73519 0.07777 0.0
C4054 C 0.2519 0.93095 0.05237 0.0
C4055 C 0.25838 0.94696 0.04555 0.0
C4056 C 0.23633 0.92294 0.06039 0.0
C4057 C 0.22688 0.93084 0.06224 0.0
H4058 H 0.25875 0.92444 0.05114 0.0
H4059 H 0.23157 0.9104 0.065 0.0
S4060 S 0.23872 0.97301 0.0469 0.0
N4061 N 0.25447 0.97059 0.04139 0.0
N4062 N 0.22524 0.9556 0.05648 0.0
C4063 C 0.23336 0.94692 0.05556 0.0
C4064 C 0.24912 0.95499 0.04728 0.0
C4065 C 0.30535 0.05637 0.96504 0.0
C4066 C 0.3213 0.06511 0.97283 0.0
C4067 C 0.29733 0.06473 0.95921 0.0
C4068 C 0.30504 0.08219 0.96071 0.0
H4069 H 0.29887 0.0429 0.96375 0.0
H4070 H 0.28494 0.05744 0.95354 0.0
S4071 S 0.34703 0.11085 0.97973 0.0
N4072 N 0.34467 0.09212 0.98157 0.0
N4073 N 0.32971 0.10796 0.9704 0.0
C4074 C 0.32109 0.09109 0.96837 0.0
C4075 C 0.32918 0.08253 0.97447 0.0
C4076 C 0.95009 0.24333 0.98016 0.0
C4077 C 0.95066 0.25795 0.97464 0.0
C4078 C 0.94297 0.22891 0.9695 0.0
C4079 C 0.93612 0.22855 0.95293 0.0
H4080 H 0.95554 0.24317 0.99265 0.0
H4081 H 0.9432 0.21807 0.97407 0.0
S4082 S 0.93487 0.26375 0.93228 0.0
N4083 N 0.94397 0.27131 0.95151 0.0
N4084 N 0.93049 0.2442 0.93149 0.0
C4085 C 0.9364 0.24305 0.94738 0.0
C4086 C 0.94363 0.25772 0.95825 0.0
C4087 C 0.74469 0.67321 0.95954 0.0
C4088 C 0.74189 0.68227 0.97263 0.0
C4089 C 0.76065 0.67893 0.95294 0.0
C4090 C 0.77439 0.69409 0.95898 0.0
H4091 H 0.73444 0.66168 0.95421 0.0
H4092 H 0.76218 0.67142 0.943 0.0
S4093 S 0.774 0.7215 0.99451 0.0
N4094 N 0.75444 0.70634 0.99251 0.0
N4095 N 0.78431 0.71735 0.97973 0.0
C4096 C 0.7718 0.70301 0.9724 0.0
C4097 C 0.7556 0.69709 0.97925 0.0
C4098 C 0.9473 0.70321 0.97351 0.0
C4099 C 0.93922 0.68726 0.9808 0.0
C4100 C 0.93831 0.71059 0.96767 0.0
C4101 C 0.92086 0.70225 0.96877 0.0
H4102 H 0.96072 0.71011 0.97241 0.0
H4103 H 0.94511 0.72305 0.96253 0.0
S4104 S 0.89384 0.66049 0.98739 0.0
N4105 N 0.91283 0.6635 0.98918 0.0
N4106 N 0.89588 0.67732 0.9781 0.0
C4107 C 0.91263 0.68626 0.97599 0.0
C4108 C 0.9218 0.67875 0.98195 0.0
C4109 C 0.32283 0.27346 0.94064 0.0
C4110 C 0.31933 0.27553 0.95805 0.0
C4111 C 0.31324 0.25826 0.93155 0.0
C4112 C 0.29981 0.24453 0.93956 0.0
H4113 H 0.33299 0.28371 0.93397 0.0
H4114 H 0.31623 0.25729 0.91808 0.0
S4115 S 0.28479 0.24399 0.98451 0.0
N4116 N 0.30103 0.26293 0.98267 0.0
N4117 N 0.28306 0.23433 0.96564 0.0
C4118 C 0.29608 0.24654 0.9569 0.0
C4119 C 0.30587 0.262 0.96615 0.0
C4120 C 0.75076 0.05546 0.96132 0.0
C4121 C 0.74574 0.06412 0.97261 0.0
C4122 C 0.76723 0.06275 0.95572 0.0
C4123 C 0.77926 0.07913 0.96092 0.0
H4124 H 0.74203 0.04269 0.9573 0.0
H4125 H 0.77066 0.05536 0.94757 0.0
S4126 S 0.77224 0.10729 0.98991 0.0
N4127 N 0.7539 0.09003 0.98844 0.0
N4128 N 0.78488 0.10383 0.97787 0.0
C4129 C 0.77428 0.08802 0.97196 0.0
C4130 C 0.75753 0.08052 0.97777 0.0
C4131 C 0.68903 0.94763 0.06437 0.0
C4132 C 0.68967 0.94791 0.04599 0.0
C4133 C 0.69763 0.94172 0.07416 0.0
C4134 C 0.70709 0.93566 0.06597 0.0
H4135 H 0.68229 0.95257 0.07128 0.0
H4136 H 0.69715 0.9422 0.0883 0.0
S4137 S 0.71226 0.93313 0.01814 0.0
N4138 N 0.70004 0.94112 0.01993 0.0
N4139 N 0.71638 0.93014 0.03835 0.0
C4140 C 0.70763 0.93566 0.04758 0.0
C4141 C 0.69887 0.9417 0.0376 0.0
C4142 C 0.07723 0.75636 0.03999 0.0
C4143 C 0.05992 0.74668 0.04205 0.0
C4144 C 0.08614 0.77302 0.04589 0.0
C4145 C 0.0781 0.78057 0.05422 0.0
H4146 H 0.08386 0.75119 0.0333 0.0
H4147 H 0.09939 0.78018 0.04359 0.0
S4148 S 0.03302 0.76021 0.06365 0.0
N4149 N 0.03518 0.74549 0.05385 0.0
N4150 N 0.05181 0.7769 0.06446 0.0
C4151 C 0.06082 0.7709 0.05662 0.0
C4152 C 0.05178 0.75393 0.05071 0.0
C4153 C 0.24897 0.32344 0.04058 0.0
C4154 C 0.25987 0.31769 0.04479 0.0
C4155 C 0.23214 0.31437 0.04508 0.0
C4156 C 0.22562 0.2993 0.05408 0.0
H4157 H 0.25332 0.33469 0.03317 0.0
H4158 H 0.22405 0.31895 0.04105 0.0
S4159 S 0.24935 0.27951 0.0692 0.0
N4160 N 0.26328 0.29659 0.05946 0.0
N4161 N 0.23159 0.27932 0.06751 0.0
C4162 C 0.23653 0.29366 0.05878 0.0
C4163 C 0.25366 0.30293 0.05428 0.0
C4164 C 0.74493 0.65886 0.37821 0.0
C4165 C 0.7223 0.64694 0.37896 0.0
C4166 C 0.75716 0.65014 0.38637 0.0
C4167 C 0.74497 0.63027 0.3985 0.0
H4168 H 0.75121 0.67118 0.37277 0.0
H4169 H 0.7706 0.65746 0.38715 0.0
S4170 S 0.69349 0.59942 0.39879 0.0
N4171 N 0.69481 0.61601 0.38867 0.0
N4172 N 0.71231 0.60158 0.40264 0.0
C4173 C 0.72226 0.6162 0.39502 0.0
C4174 C 0.71132 0.62576 0.38676 0.0
C4175 C 0.37338 0.07946 0.39718 0.0
C4176 C 0.35148 0.06458 0.40077 0.0
C4177 C 0.38394 0.099 0.40948 0.0
C4178 C 0.36995 0.1037 0.4227 0.0
H4179 H 0.38024 0.07667 0.38771 0.0
H4180 H 0.39653 0.10851 0.40646 0.0
S4181 S 0.32081 0.07032 0.43593 0.0
N4182 N 0.32369 0.05852 0.42097 0.0
N4183 N 0.3383 0.08873 0.44012 0.0
C4184 C 0.34921 0.08709 0.43013 0.0
C4185 C 0.33991 0.06826 0.41742 0.0
C4186 C 0.92567 0.28876 0.388 0.0
C4187 C 0.93188 0.28118 0.37668 0.0
C4188 C 0.9093 0.27999 0.39396 0.0
C4189 C 0.89849 0.26321 0.38901 0.0
H4190 H 0.93351 0.30163 0.39224 0.0
H4191 H 0.90503 0.28647 0.4024 0.0
S4192 S 0.90852 0.23763 0.35938 0.0
N4193 N 0.92581 0.25598 0.36046 0.0
N4194 N 0.89516 0.23934 0.37207 0.0
C4195 C 0.90459 0.2554 0.37785 0.0
C4196 C 0.92125 0.26439 0.37165 0.0
C4197 C 0.03042 0.42234 0.29459 0.0
C4198 C 0.01771 0.41082 0.30531 0.0
C4199 C 0.03081 0.43692 0.2894 0.0
C4200 C 0.01838 0.44041 0.29456 0.0
H4201 H 0.04044 0.42034 0.29069 0.0
H4202 H 0.04113 0.44574 0.28164 0.0
S4203 S 0.98177 0.41358 0.32163 0.0
N4204 N 0.99192 0.40335 0.3201 0.0
N4205 N 0.9927 0.43079 0.31051 0.0
C4206 C 0.00537 0.42874 0.3049 0.0
C4207 C 0.005 0.41393 0.3102 0.0
C4208 C 0.60568 0.58962 0.29227 0.0
C4209 C 0.6001 0.59879 0.3019 0.0
C4210 C 0.59454 0.57331 0.28635 0.0
C4211 C 0.57736 0.56572 0.2895 0.0
H4212 H 0.61882 0.59487 0.28984 0.0
H4213 H 0.59949 0.56651 0.27954 0.0
S4214 S 0.55653 0.58476 0.31373 0.0
N4215 N 0.5764 0.59936 0.31409 0.0
N4216 N 0.55539 0.56874 0.30283 0.0
C4217 C 0.57165 0.57491 0.29891 0.0
C4218 C 0.58302 0.59145 0.30508 0.0
C4219 C 0.38861 0.97438 0.2939 0.0
C4220 C 0.38967 0.98423 0.30855 0.0
C4221 C 0.40277 0.97469 0.28735 0.0
C4222 C 0.41859 0.98501 0.2951 0.0
H4223 H 0.37671 0.96631 0.28748 0.0
H4224 H 0.4013 0.96666 0.27624 0.0
S4225 S 0.42781 0.01218 0.33458 0.0
N4226 N 0.4076 0.00385 0.33121 0.0
N4227 N 0.43427 0.00461 0.31879 0.0
C4228 C 0.41976 0.99475 0.30989 0.0
C4229 C 0.40533 0.99439 0.31659 0.0
C4230 C 0.58572 0.9552 0.27465 0.0
C4231 C 0.60139 0.97528 0.28391 0.0
C4232 C 0.5709 0.95389 0.25837 0.0
C4233 C 0.57101 0.9738 0.25505 0.0
H4234 H 0.58514 0.94389 0.27891 0.0
H4235 H 0.56066 0.94198 0.25389 0.0
S4236 S 0.60851 0.02155 0.2707 0.0
N4237 N 0.61464 0.01007 0.28195 0.0
N4238 N 0.59172 0.00976 0.25773 0.0
C4239 C 0.58949 0.99456 0.26048 0.0
C4240 C 0.60344 0.99455 0.2764 0.0
C4241 C 0.00657 0.61473 0.27995 0.0
C4242 C 0.99744 0.61291 0.29513 0.0
C4243 C 0.0009 0.60184 0.26733 0.0
C4244 C 0.98601 0.58661 0.26958 0.0
H4245 H 0.01779 0.62645 0.27743 0.0
H4246 H 0.008 0.60399 0.25552 0.0
S4247 S 0.95846 0.57518 0.308 0.0
N4248 N 0.97346 0.5945 0.31236 0.0
N4249 N 0.96286 0.57012 0.28879 0.0
C4250 C 0.97718 0.58441 0.28513 0.0
C4251 C 0.98288 0.5976 0.29787 0.0
C4252 C 0.40296 0.3894 0.28805 0.0
C4253 C 0.40366 0.3876 0.30621 0.0
C4254 C 0.41719 0.39517 0.27783 0.0
C4255 C 0.43273 0.39953 0.28538 0.0
H4256 H 0.39119 0.38568 0.28158 0.0
H4257 H 0.41595 0.39582 0.26381 0.0
S4258 S 0.4414 0.39817 0.33258 0.0
N4259 N 0.42129 0.39155 0.33151 0.0
N4260 N 0.44803 0.40217 0.31227 0.0
C4261 C 0.43367 0.39821 0.30361 0.0
C4262 C 0.41917 0.39234 0.31402 0.0
C4263 C 0.36176 0.28123 0.39423 0.0
C4264 C 0.34832 0.27601 0.3824 0.0
C4265 C 0.37001 0.27223 0.39595 0.0
C4266 C 0.36495 0.25747 0.3861 0.0
H4267 H 0.36623 0.29261 0.40194 0.0
H4268 H 0.38068 0.27713 0.40473 0.0
S4269 S 0.33065 0.23856 0.3531 0.0
N4270 N 0.33055 0.25529 0.36043 0.0
N4271 N 0.34568 0.23807 0.3641 0.0
C4272 C 0.35129 0.25191 0.37452 0.0
C4273 C 0.34302 0.26118 0.37262 0.0
C4274 C 0.73145 0.08242 0.36686 0.0
C4275 C 0.71617 0.07162 0.37472 0.0
C4276 C 0.73924 0.09973 0.36937 0.0
C4277 C 0.73213 0.10696 0.37991 0.0
H4278 H 0.73716 0.07752 0.35817 0.0
H4279 H 0.7507 0.10758 0.36257 0.0
S4280 S 0.69273 0.08408 0.40429 0.0
N4281 N 0.69468 0.0693 0.39433 0.0
N4282 N 0.70907 0.10187 0.39862 0.0
C4283 C 0.71702 0.09627 0.38817 0.0
C4284 C 0.70914 0.07862 0.3857 0.0
C4285 C 0.92225 0.64909 0.38316 0.0
C4286 C 0.93205 0.66556 0.3775 0.0
C4287 C 0.90556 0.64264 0.38761 0.0
C4288 C 0.89804 0.65246 0.38668 0.0
H4289 H 0.92751 0.64106 0.38405 0.0
H4290 H 0.89841 0.62978 0.39154 0.0
S4291 S 0.91809 0.69613 0.37184 0.0
N4292 N 0.93291 0.6914 0.37066 0.0
N4293 N 0.90157 0.67934 0.37914 0.0
C4294 C 0.90771 0.66895 0.38102 0.0
C4295 C 0.92471 0.67551 0.37648 0.0
C4296 C 0.41492 0.01322 0.71527 0.0
C4297 C 0.41232 0.02676 0.71756 0.0
C4298 C 0.42965 0.01415 0.72104 0.0
C4299 C 0.44234 0.02861 0.72949 0.0
H4300 H 0.40558 0.00184 0.70873 0.0
H4301 H 0.43122 0.00354 0.71857 0.0
S4302 S 0.44157 0.06741 0.73914 0.0
N4303 N 0.42364 0.05505 0.72901 0.0
N4304 N 0.45113 0.0566 0.74038 0.0
C4305 C 0.43971 0.04207 0.73236 0.0
C4306 C 0.42474 0.04118 0.72632 0.0
C4307 C 0.99333 0.40117 0.71364 0.0
C4308 C 0.98119 0.38474 0.71763 0.0
C4309 C 0.99149 0.41468 0.71862 0.0
C4310 C 0.97747 0.41231 0.72786 0.0
H4311 H 0.00422 0.40358 0.7063 0.0
H4312 H 0.00095 0.42706 0.71485 0.0
S4313 S 0.94213 0.37172 0.74155 0.0
N4314 N 0.95469 0.36679 0.73139 0.0
N4315 N 0.9513 0.39223 0.74099 0.0
C4316 C 0.9654 0.39595 0.73228 0.0
C4317 C 0.96727 0.38217 0.72717 0.0
C4318 C 0.58564 0.62458 0.7252 0.0
C4319 C 0.59954 0.61638 0.72808 0.0
C4320 C 0.56685 0.61664 0.73784 0.0
C4321 C 0.56158 0.59768 0.75061 0.0
H4322 H 0.58857 0.63431 0.71594 0.0
H4323 H 0.55782 0.62041 0.73523 0.0
S4324 S 0.59311 0.57941 0.7623 0.0
N4325 N 0.60477 0.59373 0.74741 0.0
N4326 N 0.57557 0.57963 0.76705 0.0
C4327 C 0.57757 0.59241 0.75738 0.0
C4328 C 0.59571 0.60098 0.74436 0.0
C4329 C 0.63653 0.71351 0.62424 0.0
C4330 C 0.6519 0.72148 0.6333 0.0
C4331 C 0.62953 0.7226 0.61771 0.0
C4332 C 0.63766 0.74003 0.61987 0.0
H4333 H 0.62975 0.70009 0.62236 0.0
H4334 H 0.61749 0.71586 0.61117 0.0
S4335 S 0.67806 0.76681 0.64293 0.0
N4336 N 0.67497 0.74776 0.64432 0.0
N4337 N 0.6619 0.76492 0.63187 0.0
C4338 C 0.65315 0.74819 0.62875 0.0
C4339 C 0.66027 0.73891 0.63543 0.0
C4340 C 0.28782 0.92252 0.64185 0.0
C4341 C 0.28541 0.93538 0.63595 0.0
C4342 C 0.27965 0.90671 0.63368 0.0
C4343 C 0.26876 0.90318 0.61932 0.0
H4344 H 0.29616 0.92472 0.6528 0.0
H4345 H 0.28203 0.89722 0.63849 0.0
S4346 S 0.25903 0.93302 0.59829 0.0
N4347 N 0.27188 0.94384 0.6146 0.0
N4348 N 0.25656 0.91419 0.59916 0.0
C4349 C 0.26636 0.91604 0.61324 0.0
C4350 C 0.27461 0.93209 0.62162 0.0
C4351 C 0.07765 0.36 0.63053 0.0
C4352 C 0.07155 0.34565 0.64071 0.0
C4353 C 0.09376 0.36777 0.62383 0.0
C4354 C 0.1044 0.36144 0.62688 0.0
H4355 H 0.06991 0.3653 0.62771 0.0
H4356 H 0.09797 0.37893 0.61629 0.0
S4357 S 0.09462 0.32443 0.65312 0.0
N4358 N 0.07757 0.32566 0.65393 0.0
N4359 N 0.10774 0.34003 0.64096 0.0
C4360 C 0.09842 0.34703 0.63696 0.0
C4361 C 0.08203 0.33917 0.6439 0.0
C4362 C 0.25645 0.33668 0.64309 0.0
C4363 C 0.27281 0.34134 0.63855 0.0
C4364 C 0.25038 0.34759 0.64088 0.0
C4365 C 0.26044 0.36356 0.63403 0.0
H4366 H 0.24844 0.32471 0.64891 0.0
H4367 H 0.2379 0.34369 0.64514 0.0
S4368 S 0.30416 0.38167 0.61993 0.0
N4369 N 0.29893 0.3629 0.62669 0.0
N4370 N 0.28748 0.38335 0.6224 0.0
C4371 C 0.27667 0.36817 0.62893 0.0
C4372 C 0.28284 0.35705 0.63117 0.0
C4373 C 0.63387 0.91892 0.62085 0.0
C4374 C 0.64669 0.92631 0.63359 0.0
C4375 C 0.62388 0.90155 0.61905 0.0
C4376 C 0.62651 0.89088 0.62973 0.0
H4377 H 0.63134 0.92663 0.61239 0.0
H4378 H 0.61384 0.89649 0.60945 0.0
S4379 S 0.65804 0.90388 0.66544 0.0
N4380 N 0.66107 0.92156 0.65744 0.0
N4381 N 0.64269 0.88895 0.65362 0.0
C4382 C 0.63943 0.89811 0.64234 0.0
C4383 C 0.64946 0.91579 0.64432 0.0
C4384 C 0.07663 0.7202 0.64507 0.0
C4385 C 0.06613 0.72695 0.64531 0.0
C4386 C 0.09358 0.73012 0.64144 0.0
C4387 C 0.10073 0.74725 0.63821 0.0
H4388 H 0.07169 0.70714 0.64781 0.0
H4389 H 0.10125 0.72444 0.64153 0.0
S4390 S 0.07839 0.77081 0.63708 0.0
N4391 N 0.06386 0.75159 0.64165 0.0
N4392 N 0.0958 0.77039 0.63509 0.0
C4393 C 0.09026 0.75406 0.63811 0.0
C4394 C 0.07295 0.74388 0.6416 0.0
C4395 C 0.9939 0.6026 0.73082 0.0
C4396 C 0.98756 0.60029 0.71366 0.0
C4397 C 0.99909 0.59202 0.73759 0.0
C4398 C 0.99769 0.57849 0.72757 0.0
H4399 H 0.99546 0.61303 0.7388 0.0
H4400 H 0.00452 0.59469 0.75063 0.0
S4401 S 0.98135 0.56701 0.68202 0.0
N4402 N 0.97991 0.58359 0.68685 0.0
N4403 N 0.98924 0.5634 0.69966 0.0
C4404 C 0.991 0.57592 0.7105 0.0
C4405 C 0.98599 0.58686 0.70354 0.0
C4406 C 0.38863 0.39478 0.73087 0.0
C4407 C 0.3779 0.3916 0.71651 0.0
C4408 C 0.39614 0.41019 0.73984 0.0
C4409 C 0.39353 0.42314 0.73449 0.0
H4410 H 0.39077 0.38508 0.73555 0.0
H4411 H 0.40383 0.41186 0.75124 0.0
S4412 S 0.36681 0.42104 0.69723 0.0
N4413 N 0.36519 0.40253 0.69709 0.0
N4414 N 0.37947 0.43162 0.71378 0.0
C4415 C 0.38299 0.42011 0.71994 0.0
C4416 C 0.3752 0.40436 0.71096 0.0
C4417 C 0.60286 0.00194 0.71569 0.0
C4418 C 0.61295 0.01553 0.70511 0.0
C4419 C 0.58847 0.0003 0.72328 0.0
C4420 C 0.58384 0.01241 0.72087 0.0
H4421 H 0.60585 0.99224 0.71769 0.0
H4422 H 0.58077 0.98934 0.73086 0.0
S4423 S 0.60642 0.05058 0.69465 0.0
N4424 N 0.61761 0.04145 0.69285 0.0
N4425 N 0.59059 0.03844 0.70714 0.0
C4426 C 0.59399 0.02615 0.71046 0.0
C4427 C 0.60855 0.02773 0.70263 0.0
loop_
_geom_bond_atom_site_label_1
_geom_bond_atom_site_label_2
_geom_bond_distance
_geom_bond_site_symmetry_2
_ccdc_geom_bond_type
Li0 N17 1.995 . S
Li0 O60 1.940 1_556 S
Li0 O61 1.978 1_655 S
Li0 O62 1.962 . S
Li1 N25 1.990 . S
Li1 O60 1.970 1_455 S
Li1 O61 1.956 1_554 S
Li1 O63 1.961 . S
Li2 N47 1.990 . S
Li2 O60 1.961 . S
Li2 O62 1.956 1_554 S
Li2 O63 1.970 1_655 S
Li3 N53 1.990 . S
Li3 O61 1.961 . S
Li3 O62 1.970 1_455 S
Li3 O63 1.956 1_556 S
C4 C6 1.364 . S
C4 C7 1.356 . S
C4 O60 1.325 . S
N5 C8 1.314 . S
N5 C9 1.279 . S
C6 C4 1.364 . S
C6 C8 1.355 . S
C6 H64 0.912 1_655 S
C7 C4 1.356 . S
C7 C9 1.358 . S
C7 H65 0.930 . S
C8 N5 1.314 . S
C8 C6 1.355 . S
C8 H66 0.989 . S
C9 N5 1.279 . S
C9 C7 1.358 . S
C9 H67 0.930 . S
C10 C13 1.348 . S
C10 C14 1.356 . S
C10 O61 1.325 . S
C11 N12 1.279 . S
C11 C14 1.358 . S
C11 H68 0.930 . S
N12 C11 1.279 . S
N12 C15 1.314 . S
C13 C10 1.348 . S
C13 C15 1.353 . S
C13 H69 0.912 1_455 S
C14 C10 1.356 . S
C14 C11 1.358 . S
C14 H70 0.930 . S
C15 N12 1.314 . S
C15 C13 1.353 . S
C15 H71 0.930 . S
C16 N17 1.314 . S
C16 C21 1.353 . S
C16 H22 0.930 . S
N17 Li0 1.995 . S
N17 C16 1.314 . S
N17 C19 1.299 . S
C18 C19 1.373 . S
C18 C20 1.356 . S
C18 H72 0.931 1_556 S
C19 N17 1.299 . S
C19 C18 1.373 . S
C19 H23 0.894 1_556 S
C20 C18 1.356 . S
C20 C21 1.348 . S
C21 C16 1.353 . S
C21 C20 1.348 . S
C21 H73 0.929 . S
H22 C16 0.930 . S
H23 C19 0.894 1_554 S
C24 N25 1.314 . S
C24 C26 1.353 . S
C24 H30 0.930 . S
N25 Li1 1.990 . S
N25 C24 1.314 . S
N25 C28 1.279 . S
C26 C24 1.353 . S
C26 C29 1.348 . S
C26 H74 0.929 . S
C27 C28 1.358 . S
C27 C29 1.356 . S
C27 H75 0.930 . S
C28 N25 1.279 . S
C28 C27 1.358 . S
C28 H31 0.930 . S
C29 C26 1.348 . S
C29 C27 1.356 . S
H30 C24 0.930 . S
H31 C28 0.930 . S
C32 C34 1.348 . S
C32 C35 1.356 . S
C32 O62 1.325 . S
N33 C36 1.314 . S
N33 C37 1.279 . S
C34 C32 1.348 . S
C34 C36 1.353 . S
C34 H76 0.929 . S
C35 C32 1.356 . S
C35 C37 1.358 . S
C35 H77 0.930 1_556 S
C36 N33 1.314 . S
C36 C34 1.353 . S
C36 H78 0.930 . S
C37 N33 1.279 . S
C37 C35 1.358 . S
C37 H79 0.930 . S
C38 C39 1.348 . S
C38 C40 1.356 . S
C38 O63 1.325 . S
C39 C38 1.348 . S
C39 C41 1.353 . S
C39 H80 0.929 . S
C40 C38 1.356 . S
C40 C42 1.358 . S
C40 H81 0.930 . S
C41 C39 1.353 . S
C41 N43 1.314 . S
C41 H82 0.930 . S
C42 C40 1.358 . S
C42 N43 1.279 . S
C42 H83 0.930 . S
N43 C41 1.314 . S
N43 C42 1.279 . S
C44 C46 1.353 . S
C44 N47 1.314 . S
C44 H50 0.930 . S
C45 N47 1.279 . S
C45 C48 1.358 . S
C45 H51 0.930 . S
C46 C44 1.353 . S
C46 C49 1.348 . S
C46 H84 0.929 . S
N47 Li2 1.990 . S
N47 C44 1.314 . S
N47 C45 1.279 . S
C48 C45 1.358 . S
C48 C49 1.356 . S
C48 H85 0.930 . S
C49 C46 1.348 . S
C49 C48 1.356 . S
H50 C44 0.930 . S
H51 C45 0.930 . S
C52 N53 1.314 . S
C52 C54 1.353 . S
C52 H58 0.930 . S
N53 Li3 1.990 . S
N53 C52 1.314 . S
N53 C56 1.279 . S
C54 C52 1.353 . S
C54 C57 1.348 . S
C54 H86 0.929 . S
C55 C56 1.358 . S
C55 C57 1.356 . S
C55 H87 0.930 . S
C56 N53 1.279 . S
C56 C55 1.358 . S
C56 H59 0.930 . S
C57 C54 1.348 . S
C57 C55 1.356 . S
H58 C52 0.930 . S
H59 C56 0.930 . S
O60 Li0 1.940 1_554 S
O60 Li1 1.970 1_655 S
O60 Li2 1.961 . S
O60 C4 1.325 . S
O61 Li0 1.978 1_455 S
O61 Li1 1.956 1_556 S
O61 Li3 1.961 . S
O61 C10 1.325 . S
O62 Li0 1.962 . S
O62 Li2 1.956 1_556 S
O62 Li3 1.970 1_655 S
O62 C32 1.325 . S
O63 Li1 1.961 . S
O63 Li2 1.970 1_455 S
O63 Li3 1.956 1_554 S
O63 C38 1.325 . S
H64 C6 0.912 1_455 S
H65 C7 0.930 . S
H66 C8 0.989 . S
H67 C9 0.930 . S
H68 C11 0.930 . S
H69 C13 0.912 1_655 S
H70 C14 0.930 . S
H71 C15 0.930 . S
H72 C18 0.931 1_554 S
H73 C21 0.929 . S
H74 C26 0.929 . S
H75 C27 0.930 . S
H76 C34 0.929 . S
H77 C35 0.930 1_554 S
H78 C36 0.930 . S
H79 C37 0.930 . S
H80 C39 0.929 . S
H81 C40 0.930 . S
H82 C41 0.930 . S
H83 C42 0.930 . S
H84 C46 0.929 . S
H85 C48 0.930 . S
H86 C54 0.929 . S
H87 C55 0.930 . S
Li88 N105 1.990 1_554 S
Li88 O148 1.956 . S
Li88 O149 1.953 1_554 S
Li88 O150 1.961 . S
Li89 N113 1.990 . S
Li89 O148 1.970 . S
Li89 O149 1.899 1_554 S
Li89 O151 1.961 . S
Li90 N135 1.990 . S
Li90 O148 1.961 . S
Li90 O150 1.956 . S
Li90 O151 1.970 . S
Li91 N141 1.954 1_554 S
Li91 O149 1.954 1_554 S
Li91 O150 1.979 . S
Li91 O151 2.009 . S
C92 C94 1.348 . S
C92 C95 1.356 . S
C92 O148 1.325 . S
N93 C96 1.314 . S
N93 C97 1.279 . S
C94 C92 1.348 . S
C94 C96 1.353 . S
C94 H152 0.929 . S
C95 C92 1.356 . S
C95 C97 1.358 . S
C95 H153 0.930 . S
C96 N93 1.314 . S
C96 C94 1.353 . S
C96 H154 0.930 . S
C97 N93 1.279 . S
C97 C95 1.358 . S
C97 H155 0.930 . S
C98 C101 1.348 . S
C98 C102 1.356 . S
C98 O149 1.365 . S
C99 N100 1.279 . S
C99 C102 1.358 . S
C99 H156 0.930 . S
N100 C99 1.279 . S
N100 C103 1.314 . S
C101 C98 1.348 . S
C101 C103 1.353 . S
C101 H157 0.929 . S
C102 C98 1.356 . S
C102 C99 1.358 . S
C102 H158 0.930 . S
C103 N100 1.314 . S
C103 C101 1.353 . S
C103 H159 0.930 . S
C104 N105 1.314 . S
C104 C109 1.353 . S
C104 H110 0.930 . S
N105 Li88 1.990 1_556 S
N105 C104 1.314 . S
N105 C107 1.279 1_556 S
C106 C107 1.358 1_556 S
C106 C108 1.356 . S
C106 H160 0.930 1_556 S
C107 N105 1.279 1_554 S
C107 C106 1.358 1_554 S
C107 H111 0.930 . S
C108 C106 1.356 . S
C108 C109 1.348 . S
C109 C104 1.353 . S
C109 C108 1.348 . S
C109 H161 0.929 . S
H110 C104 0.930 . S
H111 C107 0.930 . S
C112 N113 1.314 . S
C112 C114 1.353 . S
C112 H118 0.930 . S
N113 Li89 1.990 . S
N113 C112 1.314 . S
N113 C116 1.279 . S
C114 C112 1.353 . S
C114 C117 1.348 . S
C114 H162 0.929 . S
C115 C116 1.358 . S
C115 C117 1.356 . S
C115 H163 0.930 . S
C116 N113 1.279 . S
C116 C115 1.358 . S
C116 H119 0.930 . S
C117 C114 1.348 . S
C117 C115 1.356 . S
H118 C112 0.930 . S
H119 C116 0.930 . S
C120 C122 1.348 . S
C120 C123 1.356 . S
C120 O150 1.325 1_556 S
N121 C124 1.314 . S
N121 C125 1.279 . S
C122 C120 1.348 . S
C122 C124 1.353 . S
C122 H164 0.929 . S
C123 C120 1.356 . S
C123 C125 1.358 . S
C123 H165 0.931 1_556 S
C124 N121 1.314 . S
C124 C122 1.353 . S
C124 H166 0.930 . S
C125 N121 1.279 . S
C125 C123 1.358 . S
C125 H167 0.930 . S
C126 C127 1.348 . S
C126 C128 1.356 . S
C126 O151 1.325 . S
C127 C126 1.348 . S
C127 C129 1.353 . S
C127 H168 0.929 . S
C128 C126 1.356 . S
C128 C130 1.358 . S
C128 H169 0.930 . S
C129 C127 1.353 . S
C129 N131 1.314 . S
C129 H170 0.930 . S
C130 C128 1.358 . S
C130 N131 1.279 . S
C130 H171 0.930 . S
N131 C129 1.314 . S
N131 C130 1.279 . S
C132 C134 1.353 . S
C132 N135 1.314 . S
C132 H138 0.930 . S
C133 N135 1.279 . S
C133 C136 1.358 . S
C133 H139 0.930 . S
C134 C132 1.353 . S
C134 C137 1.348 . S
C134 H172 0.929 . S
N135 Li90 1.990 . S
N135 C132 1.314 . S
N135 C133 1.279 . S
C136 C133 1.358 . S
C136 C137 1.356 . S
C136 H173 0.930 . S
C137 C134 1.348 . S
C137 C136 1.356 . S
H138 C132 0.930 . S
H139 C133 0.930 . S
C140 N141 1.314 . S
C140 C142 1.353 . S
C140 H146 0.930 . S
N141 Li91 1.954 1_556 S
N141 C140 1.314 . S
N141 C144 1.279 . S
C142 C140 1.353 . S
C142 C145 1.348 . S
C142 H174 0.929 . S
C143 C144 1.358 . S
C143 C145 1.356 . S
C143 H175 0.930 . S
C144 N141 1.279 . S
C144 C143 1.358 . S
C144 H147 0.930 . S
C145 C142 1.348 . S
C145 C143 1.356 . S
H146 C140 0.930 . S
H147 C144 0.930 . S
O148 Li88 1.956 . S
O148 Li89 1.970 . S
O148 Li90 1.961 . S
O148 C92 1.325 . S
O149 Li88 1.953 1_556 S
O149 Li89 1.899 1_556 S
O149 Li91 1.954 1_556 S
O149 C98 1.365 . S
O150 Li88 1.961 . S
O150 Li90 1.956 . S
O150 Li91 1.979 . S
O150 C120 1.325 1_554 S
O151 Li89 1.961 . S
O151 Li90 1.970 . S
O151 Li91 2.009 . S
O151 C126 1.325 . S
H152 C94 0.929 . S
H153 C95 0.930 . S
H154 C96 0.930 . S
H155 C97 0.930 . S
H156 C99 0.930 . S
H157 C101 0.929 . S
H158 C102 0.930 . S
H159 C103 0.930 . S
H160 C106 0.930 1_554 S
H161 C109 0.929 . S
H162 C114 0.929 . S
H163 C115 0.930 . S
H164 C122 0.929 . S
H165 C123 0.931 1_554 S
H166 C124 0.930 . S
H167 C125 0.930 . S
H168 C127 0.929 . S
H169 C128 0.930 . S
H170 C129 0.930 . S
H171 C130 0.930 . S
H172 C134 0.929 . S
H173 C136 0.930 . S
H174 C142 0.929 . S
H175 C143 0.930 . S
Li176 N193 1.990 . S
Li176 O236 1.956 1_556 S
Li176 O237 1.981 1_565 S
Li176 O238 1.961 . S
Li177 N201 1.990 . S
Li177 O236 1.970 1_545 S
Li177 O237 1.923 1_554 S
Li177 O239 1.961 . S
Li178 N223 1.990 . S
Li178 O236 1.961 . S
Li178 O238 1.956 1_554 S
Li178 O239 1.970 1_565 S
Li179 N229 1.990 1_554 S
Li179 O237 1.958 1_554 S
Li179 O238 1.970 1_544 S
Li179 O239 1.956 . S
C180 C182 1.348 . S
C180 C183 1.356 . S
C180 O236 1.325 . S
N181 C184 1.314 . S
N181 C185 1.279 . S
C182 C180 1.348 . S
C182 C184 1.353 . S
C182 H240 0.929 . S
C183 C180 1.356 . S
C183 C185 1.358 . S
C183 H241 0.930 . S
C184 N181 1.314 . S
C184 C182 1.353 . S
C184 H242 0.930 . S
C185 N181 1.279 . S
C185 C183 1.358 . S
C185 H243 0.930 . S
C186 C189 1.348 . S
C186 C190 1.360 . S
C186 O237 1.336 . S
C187 N188 1.279 . S
C187 C190 1.363 . S
C187 H244 0.930 . S
N188 C187 1.279 . S
N188 C191 1.314 . S
C189 C186 1.348 . S
C189 C191 1.353 . S
C189 H245 0.929 . S
C190 C186 1.360 . S
C190 C187 1.363 . S
C190 H246 0.922 1_556 S
C191 N188 1.314 . S
C191 C189 1.353 . S
C191 H247 0.930 . S
C192 N193 1.314 . S
C192 C197 1.353 . S
C192 H198 0.930 . S
N193 Li176 1.990 . S
N193 C192 1.314 . S
N193 C195 1.279 . S
C194 C195 1.358 . S
C194 C196 1.356 . S
C194 H248 0.930 . S
C195 N193 1.279 . S
C195 C194 1.358 . S
C195 H199 0.930 . S
C196 C194 1.356 . S
C196 C197 1.348 . S
C197 C192 1.353 . S
C197 C196 1.348 . S
C197 H249 0.929 . S
H198 C192 0.930 . S
H199 C195 0.930 . S
C200 N201 1.314 . S
C200 C202 1.353 . S
C200 H206 0.930 . S
N201 Li177 1.990 . S
N201 C200 1.314 . S
N201 C204 1.279 . S
C202 C200 1.353 . S
C202 C205 1.348 . S
C202 H250 0.929 . S
C203 C204 1.358 . S
C203 C205 1.356 . S
C203 H251 0.930 . S
C204 N201 1.279 . S
C204 C203 1.358 . S
C204 H207 0.930 . S
C205 C202 1.348 . S
C205 C203 1.356 . S
H206 C200 0.930 . S
H207 C204 0.930 . S
C208 C210 1.348 . S
C208 C211 1.356 . S
C208 O238 1.325 . S
N209 C212 1.314 . S
N209 C213 1.279 . S
C210 C208 1.348 . S
C210 C212 1.353 . S
C210 H252 0.929 1_565 S
C211 C208 1.356 . S
C211 C213 1.358 . S
C211 H253 0.930 . S
C212 N209 1.314 . S
C212 C210 1.353 . S
C212 H254 0.930 . S
C213 N209 1.279 . S
C213 C211 1.358 . S
C213 H255 0.930 . S
C214 C215 1.348 . S
C214 C216 1.356 . S
C214 O239 1.325 . S
C215 C214 1.348 . S
C215 C217 1.353 . S
C215 H256 0.929 1_545 S
C216 C214 1.356 . S
C216 C218 1.358 . S
C216 H257 0.930 . S
C217 C215 1.353 . S
C217 N219 1.314 . S
C217 H258 0.930 . S
C218 C216 1.358 . S
C218 N219 1.279 . S
C218 H259 0.930 . S
N219 C217 1.314 . S
N219 C218 1.279 . S
C220 C222 1.353 . S
C220 N223 1.314 . S
C220 H226 0.930 . S
C221 N223 1.279 . S
C221 C224 1.358 . S
C221 H227 0.930 . S
C222 C220 1.353 . S
C222 C225 1.348 . S
C222 H260 0.929 . S
N223 Li178 1.990 . S
N223 C220 1.314 . S
N223 C221 1.279 . S
C224 C221 1.358 . S
C224 C225 1.356 . S
C224 H261 0.930 . S
C225 C222 1.348 . S
C225 C224 1.356 . S
H226 C220 0.930 . S
H227 C221 0.930 . S
C228 N229 1.314 . S
C228 C230 1.353 . S
C228 H234 0.930 . S
N229 Li179 1.990 1_556 S
N229 C228 1.314 . S
N229 C232 1.279 1_556 S
C230 C228 1.353 . S
C230 C233 1.348 . S
C230 H262 0.929 . S
C231 C232 1.358 1_556 S
C231 C233 1.356 . S
C231 H263 0.930 1_556 S
C232 N229 1.279 1_554 S
C232 C231 1.358 1_554 S
C232 H235 0.930 . S
C233 C230 1.348 . S
C233 C231 1.356 . S
H234 C228 0.930 . S
H235 C232 0.930 . S
O236 Li176 1.956 1_554 S
O236 Li177 1.970 1_565 S
O236 Li178 1.961 . S
O236 C180 1.325 . S
O237 Li176 1.981 1_545 S
O237 Li177 1.923 1_556 S
O237 Li179 1.958 1_556 S
O237 C186 1.336 . S
O238 Li176 1.961 . S
O238 Li178 1.956 1_556 S
O238 Li179 1.970 1_566 S
O238 C208 1.325 . S
O239 Li177 1.961 . S
O239 Li178 1.970 1_545 S
O239 Li179 1.956 . S
O239 C214 1.325 . S
H240 C182 0.929 . S
H241 C183 0.930 . S
H242 C184 0.930 . S
H243 C185 0.930 . S
H244 C187 0.930 . S
H245 C189 0.929 . S
H246 C190 0.922 1_554 S
H247 C191 0.930 . S
H248 C194 0.930 . S
H249 C197 0.929 . S
H250 C202 0.929 . S
H251 C203 0.930 . S
H252 C210 0.929 1_545 S
H253 C211 0.930 . S
H254 C212 0.930 . S
H255 C213 0.930 . S
H256 C215 0.929 1_565 S
H257 C216 0.930 . S
H258 C217 0.930 . S
H259 C218 0.930 . S
H260 C222 0.929 . S
H261 C224 0.930 . S
H262 C230 0.929 . S
H263 C231 0.930 1_554 S
Li264 N281 1.990 . S
Li264 O324 1.956 . S
Li264 O325 1.970 1_455 S
Li264 O326 1.961 1_554 S
Li265 N289 1.990 . S
Li265 O324 1.970 1_655 S
Li265 O325 1.956 . S
Li265 O327 1.961 . S
Li266 N311 1.990 . S
Li266 O324 1.961 1_556 S
Li266 O326 1.956 . S
Li266 O327 1.970 1_456 S
Li267 N317 1.990 1_554 S
Li267 O325 1.961 . S
Li267 O326 1.970 1_654 S
Li267 O327 1.956 . S
C268 C270 1.348 . S
C268 C271 1.356 . S
C268 O324 1.325 . S
N269 C272 1.314 . S
N269 C273 1.279 . S
C270 C268 1.348 . S
C270 C272 1.353 . S
C270 H328 0.929 . S
C271 C268 1.356 . S
C271 C273 1.358 . S
C271 H329 0.930 . S
C272 N269 1.314 . S
C272 C270 1.353 . S
C272 H330 0.930 . S
C273 N269 1.279 . S
C273 C271 1.358 . S
C273 H331 0.930 . S
C274 C277 1.348 . S
C274 C278 1.356 . S
C274 O325 1.325 . S
C275 N276 1.279 . S
C275 C278 1.358 . S
C275 H332 0.930 . S
N276 C275 1.279 . S
N276 C279 1.314 . S
C277 C274 1.348 . S
C277 C279 1.353 . S
C277 H333 0.929 1_655 S
C278 C274 1.356 . S
C278 C275 1.358 . S
C278 H334 0.930 . S
C279 N276 1.314 . S
C279 C277 1.353 . S
C279 H335 0.930 . S
C280 N281 1.314 . S
C280 C285 1.353 . S
C280 H286 0.930 . S
N281 Li264 1.990 . S
N281 C280 1.314 . S
N281 C283 1.279 . S
C282 C283 1.358 . S
C282 C284 1.356 . S
C282 H336 0.930 . S
C283 N281 1.279 . S
C283 C282 1.358 . S
C283 H287 0.930 . S
C284 C282 1.356 . S
C284 C285 1.348 . S
C285 C280 1.353 . S
C285 C284 1.348 . S
C285 H337 0.929 . S
H286 C280 0.930 . S
H287 C283 0.930 . S
C288 N289 1.314 . S
C288 C290 1.353 . S
C288 H294 0.930 . S
N289 Li265 1.990 . S
N289 C288 1.314 . S
N289 C292 1.279 . S
C290 C288 1.353 . S
C290 C293 1.348 . S
C290 H338 0.929 . S
C291 C292 1.358 . S
C291 C293 1.356 . S
C291 H339 0.930 . S
C292 N289 1.279 . S
C292 C291 1.358 . S
C292 H295 0.930 . S
C293 C290 1.348 . S
C293 C291 1.356 . S
H294 C288 0.930 . S
H295 C292 0.930 . S
C296 C298 1.348 . S
C296 C299 1.356 . S
C296 O326 1.325 . S
N297 C300 1.314 . S
N297 C301 1.279 . S
C298 C296 1.348 . S
C298 C300 1.353 . S
C298 H340 0.929 1_455 S
C299 C296 1.356 . S
C299 C301 1.358 . S
C299 H341 0.930 . S
C300 N297 1.314 . S
C300 C298 1.353 . S
C300 H342 0.930 . S
C301 N297 1.279 . S
C301 C299 1.358 . S
C301 H343 0.930 . S
C302 C303 1.348 . S
C302 C304 1.356 1_556 S
C302 O327 1.325 1_556 S
C303 C302 1.348 . S
C303 C305 1.353 . S
C303 H344 0.929 . S
C304 C302 1.356 1_554 S
C304 C306 1.356 1_554 S
C304 H345 0.930 . S
C305 C303 1.353 . S
C305 N307 1.314 . S
C305 H346 0.930 . S
C306 C304 1.356 1_556 S
C306 N307 1.286 . S
C306 H347 0.926 1_556 S
N307 C305 1.314 . S
N307 C306 1.286 . S
C308 C310 1.353 . S
C308 N311 1.314 . S
C308 H314 0.930 . S
C309 N311 1.279 . S
C309 C312 1.358 . S
C309 H315 0.930 . S
C310 C308 1.353 . S
C310 C313 1.348 . S
C310 H348 0.929 . S
N311 Li266 1.990 . S
N311 C308 1.314 . S
N311 C309 1.279 . S
C312 C309 1.358 . S
C312 C313 1.356 . S
C312 H349 0.930 . S
C313 C310 1.348 . S
C313 C312 1.356 . S
H314 C308 0.930 . S
H315 C309 0.930 . S
C316 N317 1.315 . S
C316 C318 1.354 . S
C316 H322 0.927 1_556 S
N317 Li267 1.990 1_556 S
N317 C316 1.315 . S
N317 C320 1.279 . S
C318 C316 1.354 . S
C318 C321 1.348 . S
C318 H350 0.929 . S
C319 C320 1.358 . S
C319 C321 1.356 . S
C319 H351 0.930 . S
C320 N317 1.279 . S
C320 C319 1.358 . S
C320 H323 0.930 . S
C321 C318 1.348 . S
C321 C319 1.356 . S
H322 C316 0.927 1_554 S
H323 C320 0.930 . S
O324 Li264 1.956 . S
O324 Li265 1.970 1_455 S
O324 Li266 1.961 1_554 S
O324 C268 1.325 . S
O325 Li264 1.970 1_655 S
O325 Li265 1.956 . S
O325 Li267 1.961 . S
O325 C274 1.325 . S
O326 Li264 1.961 1_556 S
O326 Li266 1.956 . S
O326 Li267 1.970 1_456 S
O326 C296 1.325 . S
O327 Li265 1.961 . S
O327 Li266 1.970 1_654 S
O327 Li267 1.956 . S
O327 C302 1.325 1_554 S
H328 C270 0.929 . S
H329 C271 0.930 . S
H330 C272 0.930 . S
H331 C273 0.930 . S
H332 C275 0.930 . S
H333 C277 0.929 1_455 S
H334 C278 0.930 . S
H335 C279 0.930 . S
H336 C282 0.930 . S
H337 C285 0.929 . S
H338 C290 0.929 . S
H339 C291 0.930 . S
H340 C298 0.929 1_655 S
H341 C299 0.930 . S
H342 C300 0.930 . S
H343 C301 0.930 . S
H344 C303 0.929 . S
H345 C304 0.930 . S
H346 C305 0.930 . S
H347 C306 0.926 1_554 S
H348 C310 0.929 . S
H349 C312 0.930 . S
H350 C318 0.929 . S
H351 C319 0.930 . S
Li352 N369 1.990 . S
Li352 O412 1.956 . S
Li352 O413 1.970 . S
Li352 O414 1.961 1_554 S
Li353 N377 1.990 . S
Li353 O412 1.970 . S
Li353 O413 1.956 . S
Li353 O415 1.961 1_554 S
Li354 N399 1.990 . S
Li354 O412 1.961 1_556 S
Li354 O414 1.956 . S
Li354 O415 1.970 . S
Li355 N405 1.990 . S
Li355 O413 1.961 1_556 S
Li355 O414 1.970 . S
Li355 O415 1.956 . S
C356 C358 1.348 . S
C356 C359 1.356 . S
C356 O412 1.325 . S
N357 C360 1.314 . S
N357 C361 1.279 . S
C358 C356 1.348 . S
C358 C360 1.353 . S
C358 H416 0.929 . S
C359 C356 1.356 . S
C359 C361 1.358 . S
C359 H417 0.930 . S
C360 N357 1.314 . S
C360 C358 1.353 . S
C360 H418 0.930 . S
C361 N357 1.279 . S
C361 C359 1.358 . S
C361 H419 0.930 . S
C362 C365 1.348 . S
C362 C366 1.356 . S
C362 O413 1.325 . S
C363 N364 1.279 . S
C363 C366 1.358 . S
C363 H420 0.930 . S
N364 C363 1.279 . S
N364 C367 1.314 . S
C365 C362 1.348 . S
C365 C367 1.353 . S
C365 H421 0.929 . S
C366 C362 1.356 . S
C366 C363 1.358 . S
C366 H422 0.930 . S
C367 N364 1.314 . S
C367 C365 1.353 . S
C367 H423 0.930 . S
C368 N369 1.314 . S
C368 C373 1.353 . S
C368 H374 0.930 . S
N369 Li352 1.990 . S
N369 C368 1.314 . S
N369 C371 1.279 . S
C370 C371 1.358 . S
C370 C372 1.356 . S
C370 H424 0.930 . S
C371 N369 1.279 . S
C371 C370 1.358 . S
C371 H375 0.930 . S
C372 C370 1.356 . S
C372 C373 1.348 . S
C373 C368 1.353 . S
C373 C372 1.348 . S
C373 H425 0.929 . S
H374 C368 0.930 . S
H375 C371 0.930 . S
C376 N377 1.314 . S
C376 C378 1.353 . S
C376 H382 0.930 . S
N377 Li353 1.990 . S
N377 C376 1.314 . S
N377 C380 1.279 . S
C378 C376 1.353 . S
C378 C381 1.348 . S
C378 H426 0.929 . S
C379 C380 1.358 . S
C379 C381 1.356 . S
C379 H427 0.930 . S
C380 N377 1.279 . S
C380 C379 1.358 . S
C380 H383 0.930 . S
C381 C378 1.348 . S
C381 C379 1.356 . S
H382 C376 0.930 . S
H383 C380 0.930 . S
C384 C386 1.348 . S
C384 C387 1.356 . S
C384 O414 1.325 . S
N385 C388 1.314 . S
N385 C389 1.279 . S
C386 C384 1.348 . S
C386 C388 1.353 . S
C386 H428 0.929 . S
C387 C384 1.356 . S
C387 C389 1.358 . S
C387 H429 0.930 . S
C388 N385 1.314 . S
C388 C386 1.353 . S
C388 H430 0.930 . S
C389 N385 1.279 . S
C389 C387 1.358 . S
C389 H431 0.930 . S
C390 C391 1.348 . S
C390 C392 1.356 . S
C390 O415 1.325 . S
C391 C390 1.348 . S
C391 C393 1.353 . S
C391 H432 0.929 . S
C392 C390 1.356 . S
C392 C394 1.358 . S
C392 H433 0.930 1_556 S
C393 C391 1.353 . S
C393 N395 1.314 . S
C393 H434 0.930 . S
C394 C392 1.358 . S
C394 N395 1.279 . S
C394 H435 0.930 . S
N395 C393 1.314 . S
N395 C394 1.279 . S
C396 C398 1.353 . S
C396 N399 1.314 . S
C396 H402 0.930 . S
C397 N399 1.279 . S
C397 C400 1.358 . S
C397 H403 0.930 . S
C398 C396 1.353 . S
C398 C401 1.348 . S
C398 H436 0.929 . S
N399 Li354 1.990 . S
N399 C396 1.314 . S
N399 C397 1.279 . S
C400 C397 1.358 . S
C400 C401 1.356 . S
C400 H437 0.930 . S
C401 C398 1.348 . S
C401 C400 1.356 . S
H402 C396 0.930 . S
H403 C397 0.930 . S
C404 N405 1.314 . S
C404 C406 1.353 . S
C404 H410 0.930 . S
N405 Li355 1.990 . S
N405 C404 1.314 . S
N405 C408 1.279 . S
C406 C404 1.353 . S
C406 C409 1.348 . S
C406 H438 0.929 . S
C407 C408 1.358 . S
C407 C409 1.356 . S
C407 H439 0.930 . S
C408 N405 1.279 . S
C408 C407 1.358 . S
C408 H411 0.930 . S
C409 C406 1.348 . S
C409 C407 1.356 . S
H410 C404 0.930 . S
H411 C408 0.930 . S
O412 Li352 1.956 . S
O412 Li353 1.970 . S
O412 Li354 1.961 1_554 S
O412 C356 1.325 . S
O413 Li352 1.970 . S
O413 Li353 1.956 . S
O413 Li355 1.961 1_554 S
O413 C362 1.325 . S
O414 Li352 1.961 1_556 S
O414 Li354 1.956 . S
O414 Li355 1.970 . S
O414 C384 1.325 . S
O415 Li353 1.961 1_556 S
O415 Li354 1.970 . S
O415 Li355 1.956 . S
O415 C390 1.325 . S
H416 C358 0.929 . S
H417 C359 0.930 . S
H418 C360 0.930 . S
H419 C361 0.930 . S
H420 C363 0.930 . S
H421 C365 0.929 . S
H422 C366 0.930 . S
H423 C367 0.930 . S
H424 C370 0.930 . S
H425 C373 0.929 . S
H426 C378 0.929 . S
H427 C379 0.930 . S
H428 C386 0.929 . S
H429 C387 0.930 . S
H430 C388 0.930 . S
H431 C389 0.930 . S
H432 C391 0.929 . S
H433 C392 0.930 1_554 S
H434 C393 0.930 . S
H435 C394 0.930 . S
H436 C398 0.929 . S
H437 C400 0.930 . S
H438 C406 0.929 . S
H439 C407 0.930 . S
Li440 N457 1.990 . S
Li440 O500 1.956 . S
Li440 O501 1.970 1_565 S
Li440 O502 1.961 1_554 S
Li441 N465 1.990 . S
Li441 O500 1.970 1_545 S
Li441 O501 1.956 . S
Li441 O503 1.961 . S
Li442 N487 1.990 . S
Li442 O500 1.961 1_556 S
Li442 O502 1.956 . S
Li442 O503 1.970 1_566 S
Li443 N493 1.990 1_554 S
Li443 O501 1.961 . S
Li443 O502 1.970 1_544 S
Li443 O503 1.956 . S
C444 C446 1.348 . S
C444 C447 1.356 . S
C444 O500 1.325 . S
N445 C448 1.314 . S
N445 C449 1.279 . S
C446 C444 1.348 . S
C446 C448 1.353 . S
C446 H504 0.929 . S
C447 C444 1.356 . S
C447 C449 1.358 . S
C447 H505 0.930 . S
C448 N445 1.314 . S
C448 C446 1.353 . S
C448 H506 0.930 . S
C449 N445 1.279 . S
C449 C447 1.358 . S
C449 H507 0.930 . S
C450 C453 1.348 . S
C450 C454 1.356 . S
C450 O501 1.325 . S
C451 N452 1.279 . S
C451 C454 1.358 . S
C451 H508 0.930 . S
N452 C451 1.279 . S
N452 C455 1.314 . S
C453 C450 1.348 . S
C453 C455 1.353 . S
C453 H509 0.929 1_545 S
C454 C450 1.356 . S
C454 C451 1.358 . S
C454 H510 0.930 . S
C455 N452 1.314 . S
C455 C453 1.353 . S
C455 H511 0.930 . S
C456 N457 1.314 . S
C456 C461 1.353 . S
C456 H462 0.930 . S
N457 Li440 1.990 . S
N457 C456 1.314 . S
N457 C459 1.279 . S
C458 C459 1.358 . S
C458 C460 1.356 . S
C458 H512 0.930 . S
C459 N457 1.279 . S
C459 C458 1.358 . S
C459 H463 0.930 . S
C460 C458 1.356 . S
C460 C461 1.348 . S
C461 C456 1.353 . S
C461 C460 1.348 . S
C461 H513 0.929 . S
H462 C456 0.930 . S
H463 C459 0.930 . S
C464 N465 1.314 . S
C464 C466 1.353 . S
C464 H470 0.930 . S
N465 Li441 1.990 . S
N465 C464 1.314 . S
N465 C468 1.279 . S
C466 C464 1.353 . S
C466 C469 1.348 . S
C466 H514 0.929 . S
C467 C468 1.358 . S
C467 C469 1.356 . S
C467 H515 0.930 . S
C468 N465 1.279 . S
C468 C467 1.358 . S
C468 H471 0.930 . S
C469 C466 1.348 . S
C469 C467 1.356 . S
H470 C464 0.930 . S
H471 C468 0.930 . S
C472 C474 1.348 . S
C472 C475 1.356 . S
C472 O502 1.325 . S
N473 C476 1.314 . S
N473 C477 1.279 . S
C474 C472 1.348 . S
C474 C476 1.353 . S
C474 H516 0.929 1_565 S
C475 C472 1.356 . S
C475 C477 1.358 . S
C475 H517 0.930 . S
C476 N473 1.314 . S
C476 C474 1.353 . S
C476 H518 0.930 . S
C477 N473 1.279 . S
C477 C475 1.358 . S
C477 H519 0.930 . S
C478 C479 1.348 . S
C478 C480 1.356 1_556 S
C478 O503 1.325 1_556 S
C479 C478 1.348 . S
C479 C481 1.353 . S
C479 H520 0.929 . S
C480 C478 1.356 1_554 S
C480 C482 1.358 . S
C480 H521 0.930 . S
C481 C479 1.353 . S
C481 N483 1.314 . S
C481 H522 0.930 . S
C482 C480 1.358 . S
C482 N483 1.279 1_554 S
C482 H523 0.930 . S
N483 C481 1.314 . S
N483 C482 1.279 1_556 S
C484 C486 1.353 . S
C484 N487 1.314 . S
C484 H490 0.930 . S
C485 N487 1.279 . S
C485 C488 1.358 . S
C485 H491 0.930 . S
C486 C484 1.353 . S
C486 C489 1.348 . S
C486 H524 0.929 . S
N487 Li442 1.990 . S
N487 C484 1.314 . S
N487 C485 1.279 . S
C488 C485 1.358 . S
C488 C489 1.356 . S
C488 H525 0.930 . S
C489 C486 1.348 . S
C489 C488 1.356 . S
H490 C484 0.930 . S
H491 C485 0.930 . S
C492 N493 1.305 1_554 S
C492 C494 1.338 1_554 S
C492 H498 0.960 . S
N493 Li443 1.990 1_556 S
N493 C492 1.305 1_556 S
N493 C496 1.279 . S
C494 C492 1.338 1_556 S
C494 C497 1.348 . S
C494 H526 0.942 . S
C495 C496 1.358 . S
C495 C497 1.356 . S
C495 H527 0.930 . S
C496 N493 1.279 . S
C496 C495 1.358 . S
C496 H499 0.930 . S
C497 C494 1.348 . S
C497 C495 1.356 . S
H498 C492 0.960 . S
H499 C496 0.930 . S
O500 Li440 1.956 . S
O500 Li441 1.970 1_565 S
O500 Li442 1.961 1_554 S
O500 C444 1.325 . S
O501 Li440 1.970 1_545 S
O501 Li441 1.956 . S
O501 Li443 1.961 . S
O501 C450 1.325 . S
O502 Li440 1.961 1_556 S
O502 Li442 1.956 . S
O502 Li443 1.970 1_566 S
O502 C472 1.325 . S
O503 Li441 1.961 . S
O503 Li442 1.970 1_544 S
O503 Li443 1.956 . S
O503 C478 1.325 1_554 S
H504 C446 0.929 . S
H505 C447 0.930 . S
H506 C448 0.930 . S
H507 C449 0.930 . S
H508 C451 0.930 . S
H509 C453 0.929 1_565 S
H510 C454 0.930 . S
H511 C455 0.930 . S
H512 C458 0.930 . S
H513 C461 0.929 . S
H514 C466 0.929 . S
H515 C467 0.930 . S
H516 C474 0.929 1_545 S
H517 C475 0.930 . S
H518 C476 0.930 . S
H519 C477 0.930 . S
H520 C479 0.929 . S
H521 C480 0.930 . S
H522 C481 0.930 . S
H523 C482 0.930 . S
H524 C486 0.929 . S
H525 C488 0.930 . S
H526 C494 0.942 . S
H527 C495 0.930 . S
Li528 N545 1.990 . S
Li528 O588 1.956 . S
Li528 O589 1.970 . S
Li528 O590 1.961 . S
Li529 N553 1.990 . S
Li529 O588 1.970 . S
Li529 O589 1.956 . S
Li529 O591 1.961 . S
Li530 N575 1.990 . S
Li530 O588 1.961 . S
Li530 O590 1.956 . S
Li530 O591 1.970 . S
Li531 N581 1.990 . S
Li531 O589 1.961 . S
Li531 O590 1.970 . S
Li531 O591 1.956 . S
C532 C534 1.348 . S
C532 C535 1.356 . S
C532 O588 1.325 . S
N533 C536 1.314 . S
N533 C537 1.279 . S
C534 C532 1.348 . S
C534 C536 1.353 . S
C534 H592 0.929 . S
C535 C532 1.356 . S
C535 C537 1.358 . S
C535 H593 0.930 . S
C536 N533 1.314 . S
C536 C534 1.353 . S
C536 H594 0.930 . S
C537 N533 1.279 . S
C537 C535 1.358 . S
C537 H595 0.930 . S
C538 C541 1.348 . S
C538 C542 1.356 . S
C538 O589 1.325 . S
C539 N540 1.279 . S
C539 C542 1.358 . S
C539 H596 0.930 . S
N540 C539 1.279 . S
N540 C543 1.314 . S
C541 C538 1.348 . S
C541 C543 1.353 . S
C541 H597 0.929 . S
C542 C538 1.356 . S
C542 C539 1.358 . S
C542 H598 0.930 . S
C543 N540 1.314 . S
C543 C541 1.353 . S
C543 H599 0.930 . S
C544 N545 1.314 . S
C544 C549 1.353 . S
C544 H550 0.930 . S
N545 Li528 1.990 . S
N545 C544 1.314 . S
N545 C547 1.279 . S
C546 C547 1.358 . S
C546 C548 1.356 . S
C546 H600 0.930 . S
C547 N545 1.279 . S
C547 C546 1.358 . S
C547 H551 0.930 . S
C548 C546 1.356 . S
C548 C549 1.348 . S
C549 C544 1.353 . S
C549 C548 1.348 . S
C549 H601 0.929 . S
H550 C544 0.930 . S
H551 C547 0.930 . S
C552 N553 1.314 . S
C552 C554 1.353 . S
C552 H558 0.930 . S
N553 Li529 1.990 . S
N553 C552 1.314 . S
N553 C556 1.279 . S
C554 C552 1.353 . S
C554 C557 1.348 . S
C554 H602 0.929 . S
C555 C556 1.358 . S
C555 C557 1.356 . S
C555 H603 0.930 . S
C556 N553 1.279 . S
C556 C555 1.358 . S
C556 H559 0.930 . S
C557 C554 1.348 . S
C557 C555 1.356 . S
H558 C552 0.930 . S
H559 C556 0.930 . S
C560 C562 1.348 . S
C560 C563 1.356 . S
C560 O590 1.325 . S
N561 C564 1.314 . S
N561 C565 1.279 . S
C562 C560 1.348 . S
C562 C564 1.353 . S
C562 H604 0.929 . S
C563 C560 1.356 . S
C563 C565 1.358 . S
C563 H605 0.930 . S
C564 N561 1.314 . S
C564 C562 1.353 . S
C564 H606 0.930 . S
C565 N561 1.279 . S
C565 C563 1.358 . S
C565 H607 0.930 . S
C566 C567 1.348 . S
C566 C568 1.356 . S
C566 O591 1.325 . S
C567 C566 1.348 . S
C567 C569 1.353 . S
C567 H608 0.929 . S
C568 C566 1.356 . S
C568 C570 1.358 . S
C568 H609 0.930 . S
C569 C567 1.353 . S
C569 N571 1.314 . S
C569 H610 0.930 . S
C570 C568 1.358 . S
C570 N571 1.279 . S
C570 H611 0.930 . S
N571 C569 1.314 . S
N571 C570 1.279 . S
C572 C574 1.353 . S
C572 N575 1.314 . S
C572 H578 0.930 . S
C573 N575 1.279 . S
C573 C576 1.358 . S
C573 H579 0.930 . S
C574 C572 1.353 . S
C574 C577 1.348 . S
C574 H612 0.929 . S
N575 Li530 1.990 . S
N575 C572 1.314 . S
N575 C573 1.279 . S
C576 C573 1.358 . S
C576 C577 1.356 . S
C576 H613 0.930 . S
C577 C574 1.348 . S
C577 C576 1.356 . S
H578 C572 0.930 . S
H579 C573 0.930 . S
C580 N581 1.314 . S
C580 C582 1.353 . S
C580 H586 0.930 . S
N581 Li531 1.990 . S
N581 C580 1.314 . S
N581 C584 1.279 . S
C582 C580 1.353 . S
C582 C585 1.348 . S
C582 H614 0.929 . S
C583 C584 1.358 . S
C583 C585 1.356 . S
C583 H615 0.930 . S
C584 N581 1.279 . S
C584 C583 1.358 . S
C584 H587 0.930 . S
C585 C582 1.348 . S
C585 C583 1.356 . S
H586 C580 0.930 . S
H587 C584 0.930 . S
O588 Li528 1.956 . S
O588 Li529 1.970 . S
O588 Li530 1.961 . S
O588 C532 1.325 . S
O589 Li528 1.970 . S
O589 Li529 1.956 . S
O589 Li531 1.961 . S
O589 C538 1.325 . S
O590 Li528 1.961 . S
O590 Li530 1.956 . S
O590 Li531 1.970 . S
O590 C560 1.325 . S
O591 Li529 1.961 . S
O591 Li530 1.970 . S
O591 Li531 1.956 . S
O591 C566 1.325 . S
H592 C534 0.929 . S
H593 C535 0.930 . S
H594 C536 0.930 . S
H595 C537 0.930 . S
H596 C539 0.930 . S
H597 C541 0.929 . S
H598 C542 0.930 . S
H599 C543 0.930 . S
H600 C546 0.930 . S
H601 C549 0.929 . S
H602 C554 0.929 . S
H603 C555 0.930 . S
H604 C562 0.929 . S
H605 C563 0.930 . S
H606 C564 0.930 . S
H607 C565 0.930 . S
H608 C567 0.929 . S
H609 C568 0.930 . S
H610 C569 0.930 . S
H611 C570 0.930 . S
H612 C574 0.929 . S
H613 C576 0.930 . S
H614 C582 0.929 . S
H615 C583 0.930 . S
Li616 N633 1.990 . S
Li616 O676 1.956 . S
Li616 O677 1.970 . S
Li616 O678 1.961 . S
Li617 N641 1.990 . S
Li617 O676 1.970 . S
Li617 O677 1.956 . S
Li617 O679 1.961 . S
Li618 N663 1.982 . S
Li618 O676 1.965 1_545 S
Li618 O678 1.958 1_545 S
Li618 O679 1.978 1_545 S
Li619 N669 1.990 . S
Li619 O677 1.961 . S
Li619 O678 1.970 . S
Li619 O679 1.956 . S
C620 C622 1.348 . S
C620 C623 1.356 . S
C620 O676 1.325 . S
N621 C624 1.314 . S
N621 C625 1.279 . S
C622 C620 1.348 . S
C622 C624 1.353 . S
C622 H680 0.929 . S
C623 C620 1.356 . S
C623 C625 1.358 . S
C623 H681 0.933 . S
C624 N621 1.314 . S
C624 C622 1.353 . S
C624 H682 0.930 . S
C625 N621 1.279 . S
C625 C623 1.358 . S
C625 H683 0.930 . S
C626 C629 1.348 . S
C626 C630 1.356 . S
C626 O677 1.325 . S
C627 N628 1.279 . S
C627 C630 1.358 . S
C627 H684 0.930 . S
N628 C627 1.279 . S
N628 C631 1.314 . S
C629 C626 1.348 . S
C629 C631 1.353 . S
C629 H685 0.929 . S
C630 C626 1.356 . S
C630 C627 1.358 . S
C630 H686 0.930 . S
C631 N628 1.314 . S
C631 C629 1.353 . S
C631 H687 0.930 . S
C632 N633 1.314 . S
C632 C637 1.353 . S
C632 H638 0.930 . S
N633 Li616 1.990 . S
N633 C632 1.314 . S
N633 C635 1.279 . S
C634 C635 1.358 . S
C634 C636 1.356 . S
C634 H688 0.930 . S
C635 N633 1.279 . S
C635 C634 1.358 . S
C635 H639 0.930 . S
C636 C634 1.356 . S
C636 C637 1.348 . S
C637 C632 1.353 . S
C637 C636 1.348 . S
C637 H689 0.929 . S
H638 C632 0.930 . S
H639 C635 0.930 . S
C640 N641 1.314 . S
C640 C642 1.353 . S
C640 H646 0.930 . S
N641 Li617 1.990 . S
N641 C640 1.314 . S
N641 C644 1.279 . S
C642 C640 1.353 . S
C642 C645 1.348 . S
C642 H690 0.929 . S
C643 C644 1.358 . S
C643 C645 1.356 . S
C643 H691 0.930 . S
C644 N641 1.279 . S
C644 C643 1.358 . S
C644 H647 0.930 . S
C645 C642 1.348 . S
C645 C643 1.356 . S
H646 C640 0.930 . S
H647 C644 0.930 . S
C648 C650 1.348 . S
C648 C651 1.356 . S
C648 O678 1.325 1_545 S
N649 C652 1.314 . S
N649 C653 1.279 . S
C650 C648 1.348 . S
C650 C652 1.353 . S
C650 H692 0.929 . S
C651 C648 1.356 . S
C651 C653 1.358 . S
C651 H693 0.930 . S
C652 N649 1.314 . S
C652 C650 1.353 . S
C652 H694 0.930 . S
C653 N649 1.279 . S
C653 C651 1.358 . S
C653 H695 0.930 . S
C654 C655 1.348 1_565 S
C654 C656 1.356 . S
C654 O679 1.325 . S
C655 C654 1.348 1_545 S
C655 C657 1.353 . S
C655 H696 0.929 . S
C656 C654 1.356 . S
C656 C658 1.358 . S
C656 H697 0.930 . S
C657 C655 1.353 . S
C657 N659 1.327 . S
C657 H698 0.930 . S
C658 C656 1.358 . S
C658 N659 1.269 1_565 S
C658 H699 0.930 . S
N659 C657 1.327 . S
N659 C658 1.269 1_545 S
C660 C662 1.353 . S
C660 N663 1.314 . S
C660 H666 0.930 . S
C661 N663 1.279 . S
C661 C664 1.358 . S
C661 H667 0.930 . S
C662 C660 1.353 . S
C662 C665 1.348 . S
C662 H700 0.929 . S
N663 Li618 1.982 . S
N663 C660 1.314 . S
N663 C661 1.279 . S
C664 C661 1.358 . S
C664 C665 1.356 . S
C664 H701 0.930 . S
C665 C662 1.348 . S
C665 C664 1.356 . S
H666 C660 0.930 . S
H667 C661 0.930 . S
C668 N669 1.314 . S
C668 C670 1.353 . S
C668 H674 0.930 . S
N669 Li619 1.990 . S
N669 C668 1.314 . S
N669 C672 1.279 . S
C670 C668 1.353 . S
C670 C673 1.348 . S
C670 H702 0.929 . S
C671 C672 1.358 . S
C671 C673 1.356 . S
C671 H703 0.930 . S
C672 N669 1.279 . S
C672 C671 1.358 . S
C672 H675 0.930 . S
C673 C670 1.348 . S
C673 C671 1.356 . S
H674 C668 0.930 . S
H675 C672 0.930 . S
O676 Li616 1.956 . S
O676 Li617 1.970 . S
O676 Li618 1.965 1_565 S
O676 C620 1.325 . S
O677 Li616 1.970 . S
O677 Li617 1.956 . S
O677 Li619 1.961 . S
O677 C626 1.325 . S
O678 Li616 1.961 . S
O678 Li618 1.958 1_565 S
O678 Li619 1.970 . S
O678 C648 1.325 1_565 S
O679 Li617 1.961 . S
O679 Li618 1.978 1_565 S
O679 Li619 1.956 . S
O679 C654 1.325 . S
H680 C622 0.929 . S
H681 C623 0.933 . S
H682 C624 0.930 . S
H683 C625 0.930 . S
H684 C627 0.930 . S
H685 C629 0.929 . S
H686 C630 0.930 . S
H687 C631 0.930 . S
H688 C634 0.930 . S
H689 C637 0.929 . S
H690 C642 0.929 . S
H691 C643 0.930 . S
H692 C650 0.929 . S
H693 C651 0.930 . S
H694 C652 0.930 . S
H695 C653 0.930 . S
H696 C655 0.929 . S
H697 C656 0.930 . S
H698 C657 0.930 . S
H699 C658 0.930 . S
H700 C662 0.929 . S
H701 C664 0.930 . S
H702 C670 0.929 . S
H703 C671 0.930 . S
Li704 N721 1.990 . S
Li704 O764 1.956 . S
Li704 O765 1.970 . S
Li704 O766 1.961 . S
Li705 N729 1.990 . S
Li705 O764 1.970 . S
Li705 O765 1.956 . S
Li705 O767 1.961 . S
Li706 N751 1.990 1_455 S
Li706 O764 1.961 . S
Li706 O766 1.956 . S
Li706 O767 1.970 . S
Li707 N757 1.990 . S
Li707 O765 1.961 . S
Li707 O766 1.970 . S
Li707 O767 1.956 . S
C708 C710 1.348 . S
C708 C711 1.356 . S
C708 O764 1.325 . S
N709 C712 1.314 . S
N709 C713 1.279 . S
C710 C708 1.348 . S
C710 C712 1.353 . S
C710 H768 0.929 . S
C711 C708 1.356 . S
C711 C713 1.358 . S
C711 H769 0.930 . S
C712 N709 1.314 . S
C712 C710 1.353 . S
C712 H770 0.930 . S
C713 N709 1.279 . S
C713 C711 1.358 . S
C713 H771 0.930 . S
C714 C717 1.348 . S
C714 C718 1.356 . S
C714 O765 1.325 . S
C715 N716 1.279 . S
C715 C718 1.358 . S
C715 H772 0.930 . S
N716 C715 1.279 . S
N716 C719 1.314 . S
C717 C714 1.348 . S
C717 C719 1.353 . S
C717 H773 0.929 . S
C718 C714 1.356 . S
C718 C715 1.358 . S
C718 H774 0.930 . S
C719 N716 1.314 . S
C719 C717 1.353 . S
C719 H775 0.930 . S
C720 N721 1.314 . S
C720 C725 1.353 . S
C720 H726 0.930 . S
N721 Li704 1.990 . S
N721 C720 1.314 . S
N721 C723 1.279 . S
C722 C723 1.358 . S
C722 C724 1.356 . S
C722 H776 0.930 . S
C723 N721 1.279 . S
C723 C722 1.358 . S
C723 H727 0.930 . S
C724 C722 1.356 . S
C724 C725 1.348 . S
C725 C720 1.353 . S
C725 C724 1.348 . S
C725 H777 0.929 . S
H726 C720 0.930 . S
H727 C723 0.930 . S
C728 N729 1.314 . S
C728 C730 1.353 . S
C728 H734 0.930 . S
N729 Li705 1.990 . S
N729 C728 1.314 . S
N729 C732 1.279 . S
C730 C728 1.353 . S
C730 C733 1.348 . S
C730 H778 0.929 . S
C731 C732 1.358 . S
C731 C733 1.356 . S
C731 H779 0.930 . S
C732 N729 1.279 . S
C732 C731 1.358 . S
C732 H735 0.930 . S
C733 C730 1.348 . S
C733 C731 1.356 . S
H734 C728 0.930 . S
H735 C732 0.930 . S
C736 C738 1.348 . S
C736 C739 1.356 . S
C736 O766 1.325 1_655 S
N737 C740 1.314 . S
N737 C741 1.279 . S
C738 C736 1.348 . S
C738 C740 1.353 . S
C738 H780 0.929 . S
C739 C736 1.356 . S
C739 C741 1.358 . S
C739 H781 0.930 . S
C740 N737 1.314 . S
C740 C738 1.353 . S
C740 H782 0.930 . S
C741 N737 1.279 . S
C741 C739 1.358 . S
C741 H783 0.930 . S
C742 C743 1.348 1_455 S
C742 C744 1.356 . S
C742 O767 1.325 . S
C743 C742 1.348 1_655 S
C743 C745 1.353 . S
C743 H784 0.929 . S
C744 C742 1.356 . S
C744 C746 1.358 . S
C744 H785 0.930 . S
C745 C743 1.353 . S
C745 N747 1.314 1_655 S
C745 H786 0.930 . S
C746 C744 1.358 . S
C746 N747 1.279 . S
C746 H787 0.930 . S
N747 C745 1.314 1_455 S
N747 C746 1.279 . S
C748 C750 1.353 . S
C748 N751 1.314 . S
C748 H754 0.930 . S
C749 N751 1.279 . S
C749 C752 1.358 . S
C749 H755 0.930 . S
C750 C748 1.353 . S
C750 C753 1.348 . S
C750 H788 0.929 . S
N751 Li706 1.990 1_655 S
N751 C748 1.314 . S
N751 C749 1.279 . S
C752 C749 1.358 . S
C752 C753 1.356 . S
C752 H789 0.930 . S
C753 C750 1.348 . S
C753 C752 1.356 . S
H754 C748 0.930 . S
H755 C749 0.930 . S
C756 N757 1.314 . S
C756 C758 1.353 . S
C756 H762 0.930 . S
N757 Li707 1.990 . S
N757 C756 1.314 . S
N757 C760 1.279 . S
C758 C756 1.353 . S
C758 C761 1.348 . S
C758 H790 0.929 . S
C759 C760 1.358 . S
C759 C761 1.356 . S
C759 H791 0.930 . S
C760 N757 1.279 . S
C760 C759 1.358 . S
C760 H763 0.930 . S
C761 C758 1.348 . S
C761 C759 1.356 . S
H762 C756 0.930 . S
H763 C760 0.930 . S
O764 Li704 1.956 . S
O764 Li705 1.970 . S
O764 Li706 1.961 . S
O764 C708 1.325 . S
O765 Li704 1.970 . S
O765 Li705 1.956 . S
O765 Li707 1.961 . S
O765 C714 1.325 . S
O766 Li704 1.961 . S
O766 Li706 1.956 . S
O766 Li707 1.970 . S
O766 C736 1.325 1_455 S
O767 Li705 1.961 . S
O767 Li706 1.970 . S
O767 Li707 1.956 . S
O767 C742 1.325 . S
H768 C710 0.929 . S
H769 C711 0.930 . S
H770 C712 0.930 . S
H771 C713 0.930 . S
H772 C715 0.930 . S
H773 C717 0.929 . S
H774 C718 0.930 . S
H775 C719 0.930 . S
H776 C722 0.930 . S
H777 C725 0.929 . S
H778 C730 0.929 . S
H779 C731 0.930 . S
H780 C738 0.929 . S
H781 C739 0.930 . S
H782 C740 0.930 . S
H783 C741 0.930 . S
H784 C743 0.929 . S
H785 C744 0.930 . S
H786 C745 0.930 . S
H787 C746 0.930 . S
H788 C750 0.929 . S
H789 C752 0.930 . S
H790 C758 0.929 . S
H791 C759 0.930 . S
Li792 N809 1.990 1_565 S
Li792 O852 1.956 . S
Li792 O853 1.970 . S
Li792 O854 1.961 . S
Li793 N817 1.990 . S
Li793 O852 1.970 . S
Li793 O853 1.956 . S
Li793 O855 1.961 . S
Li794 N839 1.990 . S
Li794 O852 1.961 . S
Li794 O854 1.956 . S
Li794 O855 1.970 . S
Li795 N845 1.990 . S
Li795 O853 1.961 . S
Li795 O854 1.970 . S
Li795 O855 1.956 . S
C796 C798 1.348 . S
C796 C799 1.356 . S
C796 O852 1.325 . S
N797 C800 1.314 . S
N797 C801 1.279 . S
C798 C796 1.348 . S
C798 C800 1.353 . S
C798 H856 0.929 . S
C799 C796 1.356 . S
C799 C801 1.358 . S
C799 H857 0.930 . S
C800 N797 1.314 . S
C800 C798 1.353 . S
C800 H858 0.930 . S
C801 N797 1.279 . S
C801 C799 1.358 . S
C801 H859 0.930 . S
C802 C805 1.348 1_565 S
C802 C806 1.356 . S
C802 O853 1.325 . S
C803 N804 1.279 . S
C803 C806 1.358 . S
C803 H860 0.930 . S
N804 C803 1.279 . S
N804 C807 1.314 1_565 S
C805 C802 1.348 1_545 S
C805 C807 1.353 . S
C805 H861 0.929 . S
C806 C802 1.356 . S
C806 C803 1.358 . S
C806 H862 0.930 . S
C807 N804 1.314 1_545 S
C807 C805 1.353 . S
C807 H863 0.930 . S
C808 N809 1.314 . S
C808 C813 1.353 . S
C808 H814 0.930 . S
N809 Li792 1.990 1_545 S
N809 C808 1.314 . S
N809 C811 1.279 . S
C810 C811 1.358 . S
C810 C812 1.356 . S
C810 H864 0.930 . S
C811 N809 1.279 . S
C811 C810 1.358 . S
C811 H815 0.930 . S
C812 C810 1.356 . S
C812 C813 1.348 . S
C813 C808 1.353 . S
C813 C812 1.348 . S
C813 H865 0.929 . S
H814 C808 0.930 . S
H815 C811 0.930 . S
C816 N817 1.314 . S
C816 C818 1.353 . S
C816 H822 0.930 . S
N817 Li793 1.990 . S
N817 C816 1.314 . S
N817 C820 1.279 . S
C818 C816 1.353 . S
C818 C821 1.348 . S
C818 H866 0.929 . S
C819 C820 1.358 . S
C819 C821 1.356 . S
C819 H867 0.930 . S
C820 N817 1.279 . S
C820 C819 1.358 . S
C820 H823 0.930 . S
C821 C818 1.348 . S
C821 C819 1.356 . S
H822 C816 0.930 . S
H823 C820 0.930 . S
C824 C826 1.348 . S
C824 C827 1.356 . S
C824 O854 1.325 1_545 S
N825 C828 1.314 . S
N825 C829 1.279 . S
C826 C824 1.348 . S
C826 C828 1.353 . S
C826 H868 0.923 1_545 S
C827 C824 1.356 . S
C827 C829 1.358 . S
C827 H869 0.930 . S
C828 N825 1.314 . S
C828 C826 1.353 . S
C828 H870 0.930 . S
C829 N825 1.279 . S
C829 C827 1.358 . S
C829 H871 0.930 . S
C830 C831 1.348 . S
C830 C832 1.356 . S
C830 O855 1.325 . S
C831 C830 1.348 . S
C831 C833 1.353 . S
C831 H872 0.929 . S
C832 C830 1.356 . S
C832 C834 1.358 . S
C832 H873 0.930 . S
C833 C831 1.353 . S
C833 N835 1.314 . S
C833 H874 0.930 . S
C834 C832 1.358 . S
C834 N835 1.279 . S
C834 H875 0.930 . S
N835 C833 1.314 . S
N835 C834 1.279 . S
C836 C838 1.353 . S
C836 N839 1.314 . S
C836 H842 0.930 . S
C837 N839 1.279 . S
C837 C840 1.358 . S
C837 H843 0.930 . S
C838 C836 1.353 . S
C838 C841 1.348 . S
C838 H876 0.929 . S
N839 Li794 1.990 . S
N839 C836 1.314 . S
N839 C837 1.279 . S
C840 C837 1.358 . S
C840 C841 1.356 . S
C840 H877 0.930 . S
C841 C838 1.348 . S
C841 C840 1.356 . S
H842 C836 0.930 . S
H843 C837 0.930 . S
C844 N845 1.314 . S
C844 C846 1.353 . S
C844 H850 0.930 1_565 S
N845 Li795 1.990 . S
N845 C844 1.314 . S
N845 C848 1.279 . S
C846 C844 1.353 . S
C846 C849 1.348 . S
C846 H878 0.929 1_565 S
C847 C848 1.358 . S
C847 C849 1.356 . S
C847 H879 0.930 . S
C848 N845 1.279 . S
C848 C847 1.358 . S
C848 H851 0.930 . S
C849 C846 1.348 . S
C849 C847 1.356 . S
H850 C844 0.930 1_545 S
H851 C848 0.930 . S
O852 Li792 1.956 . S
O852 Li793 1.970 . S
O852 Li794 1.961 . S
O852 C796 1.325 . S
O853 Li792 1.970 . S
O853 Li793 1.956 . S
O853 Li795 1.961 . S
O853 C802 1.325 . S
O854 Li792 1.961 . S
O854 Li794 1.956 . S
O854 Li795 1.970 . S
O854 C824 1.325 1_565 S
O855 Li793 1.961 . S
O855 Li794 1.970 . S
O855 Li795 1.956 . S
O855 C830 1.325 . S
H856 C798 0.929 . S
H857 C799 0.930 . S
H858 C800 0.930 . S
H859 C801 0.930 . S
H860 C803 0.930 . S
H861 C805 0.929 . S
H862 C806 0.930 . S
H863 C807 0.930 . S
H864 C810 0.930 . S
H865 C813 0.929 . S
H866 C818 0.929 . S
H867 C819 0.930 . S
H868 C826 0.923 1_565 S
H869 C827 0.930 . S
H870 C828 0.930 . S
H871 C829 0.930 . S
H872 C831 0.929 . S
H873 C832 0.930 . S
H874 C833 0.930 . S
H875 C834 0.930 . S
H876 C838 0.929 . S
H877 C840 0.930 . S
H878 C846 0.929 1_545 S
H879 C847 0.930 . S
Li880 N897 1.990 . S
Li880 O940 1.956 . S
Li880 O941 1.970 . S
Li880 O942 1.961 . S
Li881 N905 1.990 1_455 S
Li881 O940 1.970 . S
Li881 O941 1.956 . S
Li881 O943 1.961 . S
Li882 N927 1.990 . S
Li882 O940 1.961 . S
Li882 O942 1.956 . S
Li882 O943 1.970 . S
Li883 N933 1.990 . S
Li883 O941 1.961 . S
Li883 O942 1.970 . S
Li883 O943 1.956 . S
C884 C886 1.348 1_455 S
C884 C887 1.356 . S
C884 O940 1.325 . S
N885 C888 1.314 1_455 S
N885 C889 1.279 . S
C886 C884 1.348 1_655 S
C886 C888 1.353 . S
C886 H944 0.929 . S
C887 C884 1.356 . S
C887 C889 1.358 . S
C887 H945 0.930 . S
C888 N885 1.314 1_655 S
C888 C886 1.353 . S
C888 H946 0.930 . S
C889 N885 1.279 . S
C889 C887 1.358 . S
C889 H947 0.930 . S
C890 C893 1.348 . S
C890 C894 1.356 . S
C890 O941 1.325 . S
C891 N892 1.279 . S
C891 C894 1.358 . S
C891 H948 0.930 . S
N892 C891 1.279 . S
N892 C895 1.314 . S
C893 C890 1.348 . S
C893 C895 1.353 . S
C893 H949 0.929 . S
C894 C890 1.356 . S
C894 C891 1.358 . S
C894 H950 0.930 . S
C895 N892 1.314 . S
C895 C893 1.353 . S
C895 H951 0.930 . S
C896 N897 1.314 . S
C896 C901 1.353 . S
C896 H902 0.930 . S
N897 Li880 1.990 . S
N897 C896 1.314 . S
N897 C899 1.279 . S
C898 C899 1.358 . S
C898 C900 1.356 . S
C898 H952 0.930 . S
C899 N897 1.279 . S
C899 C898 1.358 . S
C899 H903 0.930 . S
C900 C898 1.356 . S
C900 C901 1.348 . S
C901 C896 1.353 . S
C901 C900 1.348 . S
C901 H953 0.929 . S
H902 C896 0.930 . S
H903 C899 0.930 . S
C904 N905 1.314 . S
C904 C906 1.353 . S
C904 H910 0.930 . S
N905 Li881 1.990 1_655 S
N905 C904 1.314 . S
N905 C908 1.279 . S
C906 C904 1.353 . S
C906 C909 1.348 . S
C906 H954 0.929 . S
C907 C908 1.358 . S
C907 C909 1.356 . S
C907 H955 0.930 . S
C908 N905 1.279 . S
C908 C907 1.358 . S
C908 H911 0.930 . S
C909 C906 1.348 . S
C909 C907 1.356 . S
H910 C904 0.930 . S
H911 C908 0.930 . S
C912 C914 1.348 . S
C912 C915 1.356 . S
C912 O942 1.325 . S
N913 C916 1.314 . S
N913 C917 1.279 . S
C914 C912 1.348 . S
C914 C916 1.353 . S
C914 H956 0.929 . S
C915 C912 1.356 . S
C915 C917 1.358 . S
C915 H957 0.930 . S
C916 N913 1.314 . S
C916 C914 1.353 . S
C916 H958 0.930 . S
C917 N913 1.279 . S
C917 C915 1.358 . S
C917 H959 0.930 . S
C918 C919 1.348 . S
C918 C920 1.356 . S
C918 O943 1.325 1_655 S
C919 C918 1.348 . S
C919 C921 1.353 . S
C919 H960 0.983 . S
C920 C918 1.356 . S
C920 C922 1.358 . S
C920 H961 0.930 . S
C921 C919 1.353 . S
C921 N923 1.314 . S
C921 H962 0.930 . S
C922 C920 1.358 . S
C922 N923 1.279 . S
C922 H963 0.930 . S
N923 C921 1.314 . S
N923 C922 1.279 . S
C924 C926 1.353 . S
C924 N927 1.314 . S
C924 H930 0.930 1_455 S
C925 N927 1.279 . S
C925 C928 1.358 . S
C925 H931 0.930 . S
C926 C924 1.353 . S
C926 C929 1.348 . S
C926 H964 0.929 1_455 S
N927 Li882 1.990 . S
N927 C924 1.314 . S
N927 C925 1.279 . S
C928 C925 1.358 . S
C928 C929 1.356 . S
C928 H965 0.930 . S
C929 C926 1.348 . S
C929 C928 1.356 . S
H930 C924 0.930 1_655 S
H931 C925 0.930 . S
C932 N933 1.314 . S
C932 C934 1.353 . S
C932 H938 0.930 . S
N933 Li883 1.990 . S
N933 C932 1.314 . S
N933 C936 1.279 . S
C934 C932 1.353 . S
C934 C937 1.348 . S
C934 H966 0.929 . S
C935 C936 1.358 . S
C935 C937 1.356 . S
C935 H967 0.930 . S
C936 N933 1.279 . S
C936 C935 1.358 . S
C936 H939 0.930 . S
C937 C934 1.348 . S
C937 C935 1.356 . S
H938 C932 0.930 . S
H939 C936 0.930 . S
O940 Li880 1.956 . S
O940 Li881 1.970 . S
O940 Li882 1.961 . S
O940 C884 1.325 . S
O941 Li880 1.970 . S
O941 Li881 1.956 . S
O941 Li883 1.961 . S
O941 C890 1.325 . S
O942 Li880 1.961 . S
O942 Li882 1.956 . S
O942 Li883 1.970 . S
O942 C912 1.325 . S
O943 Li881 1.961 . S
O943 Li882 1.970 . S
O943 Li883 1.956 . S
O943 C918 1.325 1_455 S
H944 C886 0.929 . S
H945 C887 0.930 . S
H946 C888 0.930 . S
H947 C889 0.930 . S
H948 C891 0.930 . S
H949 C893 0.929 . S
H950 C894 0.930 . S
H951 C895 0.930 . S
H952 C898 0.930 . S
H953 C901 0.929 . S
H954 C906 0.929 . S
H955 C907 0.930 . S
H956 C914 0.929 . S
H957 C915 0.930 . S
H958 C916 0.930 . S
H959 C917 0.930 . S
H960 C919 0.983 . S
H961 C920 0.930 . S
H962 C921 0.930 . S
H963 C922 0.930 . S
H964 C926 0.929 1_655 S
H965 C928 0.930 . S
H966 C934 0.929 . S
H967 C935 0.930 . S
Li968 N985 1.990 . S
Li968 O1028 1.956 . S
Li968 O1029 1.970 . S
Li968 O1030 1.961 . S
Li969 N993 1.990 . S
Li969 O1028 1.970 . S
Li969 O1029 1.956 . S
Li969 O1031 1.961 . S
Li970 N1015 1.990 . S
Li970 O1028 1.961 . S
Li970 O1030 1.956 . S
Li970 O1031 1.970 . S
Li971 N1021 1.990 . S
Li971 O1029 1.961 . S
Li971 O1030 1.970 . S
Li971 O1031 1.956 . S
C972 C974 1.348 . S
C972 C975 1.356 . S
C972 O1028 1.325 . S
N973 C976 1.314 . S
N973 C977 1.279 . S
C974 C972 1.348 . S
C974 C976 1.353 . S
C974 H1032 0.929 . S
C975 C972 1.356 . S
C975 C977 1.358 . S
C975 H1033 0.930 . S
C976 N973 1.314 . S
C976 C974 1.353 . S
C976 H1034 0.930 . S
C977 N973 1.279 . S
C977 C975 1.358 . S
C977 H1035 0.930 . S
C978 C981 1.348 . S
C978 C982 1.356 . S
C978 O1029 1.325 . S
C979 N980 1.279 . S
C979 C982 1.358 . S
C979 H1036 0.930 . S
N980 C979 1.279 . S
N980 C983 1.314 . S
C981 C978 1.348 . S
C981 C983 1.353 . S
C981 H1037 0.929 . S
C982 C978 1.356 . S
C982 C979 1.358 . S
C982 H1038 0.930 . S
C983 N980 1.314 . S
C983 C981 1.353 . S
C983 H1039 0.930 . S
C984 N985 1.314 . S
C984 C989 1.353 . S
C984 H990 0.930 . S
N985 Li968 1.990 . S
N985 C984 1.314 . S
N985 C987 1.279 . S
C986 C987 1.358 . S
C986 C988 1.356 . S
C986 H1040 0.930 . S
C987 N985 1.279 . S
C987 C986 1.358 . S
C987 H991 0.930 . S
C988 C986 1.356 . S
C988 C989 1.348 . S
C989 C984 1.353 . S
C989 C988 1.348 . S
C989 H1041 0.929 . S
H990 C984 0.930 . S
H991 C987 0.930 . S
C992 N993 1.314 . S
C992 C994 1.353 . S
C992 H998 0.930 . S
N993 Li969 1.990 . S
N993 C992 1.314 . S
N993 C996 1.279 . S
C994 C992 1.353 . S
C994 C997 1.348 . S
C994 H1042 0.929 . S
C995 C996 1.358 . S
C995 C997 1.356 . S
C995 H1043 0.930 . S
C996 N993 1.279 . S
C996 C995 1.358 . S
C996 H999 0.930 . S
C997 C994 1.348 . S
C997 C995 1.356 . S
H998 C992 0.930 . S
H999 C996 0.930 . S
C1000 C1002 1.348 . S
C1000 C1003 1.356 . S
C1000 O1030 1.325 . S
N1001 C1004 1.314 . S
N1001 C1005 1.279 . S
C1002 C1000 1.348 . S
C1002 C1004 1.353 . S
C1002 H1044 0.929 . S
C1003 C1000 1.356 . S
C1003 C1005 1.358 . S
C1003 H1045 0.930 . S
C1004 N1001 1.314 . S
C1004 C1002 1.353 . S
C1004 H1046 0.930 . S
C1005 N1001 1.279 . S
C1005 C1003 1.358 . S
C1005 H1047 0.930 . S
C1006 C1007 1.348 . S
C1006 C1008 1.356 . S
C1006 O1031 1.325 . S
C1007 C1006 1.348 . S
C1007 C1009 1.353 . S
C1007 H1048 0.929 . S
C1008 C1006 1.356 . S
C1008 C1010 1.358 . S
C1008 H1049 0.930 . S
C1009 C1007 1.353 . S
C1009 N1011 1.314 . S
C1009 H1050 0.930 . S
C1010 C1008 1.358 . S
C1010 N1011 1.279 . S
C1010 H1051 0.930 . S
N1011 C1009 1.314 . S
N1011 C1010 1.279 . S
C1012 C1014 1.353 . S
C1012 N1015 1.314 . S
C1012 H1018 0.930 . S
C1013 N1015 1.279 . S
C1013 C1016 1.358 . S
C1013 H1019 0.930 . S
C1014 C1012 1.353 . S
C1014 C1017 1.348 . S
C1014 H1052 0.929 . S
N1015 Li970 1.990 . S
N1015 C1012 1.314 . S
N1015 C1013 1.279 . S
C1016 C1013 1.358 . S
C1016 C1017 1.356 . S
C1016 H1053 0.930 . S
C1017 C1014 1.348 . S
C1017 C1016 1.356 . S
H1018 C1012 0.930 . S
H1019 C1013 0.930 . S
C1020 N1021 1.314 . S
C1020 C1022 1.353 . S
C1020 H1026 0.930 . S
N1021 Li971 1.990 . S
N1021 C1020 1.314 . S
N1021 C1024 1.279 . S
C1022 C1020 1.353 . S
C1022 C1025 1.348 . S
C1022 H1054 0.929 . S
C1023 C1024 1.358 . S
C1023 C1025 1.356 . S
C1023 H1055 0.930 . S
C1024 N1021 1.279 . S
C1024 C1023 1.358 . S
C1024 H1027 0.930 . S
C1025 C1022 1.348 . S
C1025 C1023 1.356 . S
H1026 C1020 0.930 . S
H1027 C1024 0.930 . S
O1028 Li968 1.956 . S
O1028 Li969 1.970 . S
O1028 Li970 1.961 . S
O1028 C972 1.325 . S
O1029 Li968 1.970 . S
O1029 Li969 1.956 . S
O1029 Li971 1.961 . S
O1029 C978 1.325 . S
O1030 Li968 1.961 . S
O1030 Li970 1.956 . S
O1030 Li971 1.970 . S
O1030 C1000 1.325 . S
O1031 Li969 1.961 . S
O1031 Li970 1.970 . S
O1031 Li971 1.956 . S
O1031 C1006 1.325 . S
H1032 C974 0.929 . S
H1033 C975 0.930 . S
H1034 C976 0.930 . S
H1035 C977 0.930 . S
H1036 C979 0.930 . S
H1037 C981 0.929 . S
H1038 C982 0.930 . S
H1039 C983 0.930 . S
H1040 C986 0.930 . S
H1041 C989 0.929 . S
H1042 C994 0.929 . S
H1043 C995 0.930 . S
H1044 C1002 0.929 . S
H1045 C1003 0.930 . S
H1046 C1004 0.930 . S
H1047 C1005 0.930 . S
H1048 C1007 0.929 . S
H1049 C1008 0.930 . S
H1050 C1009 0.930 . S
H1051 C1010 0.930 . S
H1052 C1014 0.929 . S
H1053 C1016 0.930 . S
H1054 C1022 0.929 . S
H1055 C1023 0.930 . S
Li1056 N1073 1.990 1_545 S
Li1056 O1116 1.956 . S
Li1056 O1117 1.970 . S
Li1056 O1118 1.961 . S
Li1057 N1081 1.990 . S
Li1057 O1116 1.970 . S
Li1057 O1117 1.956 . S
Li1057 O1119 1.961 . S
Li1058 N1103 1.990 . S
Li1058 O1116 1.961 . S
Li1058 O1118 1.956 . S
Li1058 O1119 1.970 . S
Li1059 N1109 1.990 . S
Li1059 O1117 1.961 . S
Li1059 O1118 1.970 . S
Li1059 O1119 1.956 . S
C1060 C1062 1.348 . S
C1060 C1063 1.356 . S
C1060 O1116 1.325 1_565 S
N1061 C1064 1.314 . S
N1061 C1065 1.279 . S
C1062 C1060 1.348 . S
C1062 C1064 1.353 . S
C1062 H1120 0.929 . S
C1063 C1060 1.356 . S
C1063 C1065 1.358 . S
C1063 H1121 0.930 . S
C1064 N1061 1.314 . S
C1064 C1062 1.353 . S
C1064 H1122 0.930 . S
C1065 N1061 1.279 . S
C1065 C1063 1.358 . S
C1065 H1123 0.930 . S
C1066 C1069 1.348 1_545 S
C1066 C1070 1.356 . S
C1066 O1117 1.325 . S
C1067 N1068 1.279 . S
C1067 C1070 1.358 . S
C1067 H1124 0.930 . S
N1068 C1067 1.279 . S
N1068 C1071 1.314 1_545 S
C1069 C1066 1.348 1_565 S
C1069 C1071 1.353 . S
C1069 H1125 0.929 . S
C1070 C1066 1.356 . S
C1070 C1067 1.358 . S
C1070 H1126 0.930 . S
C1071 N1068 1.314 1_565 S
C1071 C1069 1.353 . S
C1071 H1127 0.930 . S
C1072 N1073 1.314 . S
C1072 C1077 1.353 . S
C1072 H1078 0.930 . S
N1073 Li1056 1.990 1_565 S
N1073 C1072 1.314 . S
N1073 C1075 1.279 . S
C1074 C1075 1.358 . S
C1074 C1076 1.356 . S
C1074 H1128 0.930 . S
C1075 N1073 1.279 . S
C1075 C1074 1.358 . S
C1075 H1079 0.930 . S
C1076 C1074 1.356 . S
C1076 C1077 1.348 . S
C1077 C1072 1.353 . S
C1077 C1076 1.348 . S
C1077 H1129 0.929 . S
H1078 C1072 0.930 . S
H1079 C1075 0.930 . S
C1080 N1081 1.314 . S
C1080 C1082 1.353 . S
C1080 H1086 0.930 . S
N1081 Li1057 1.990 . S
N1081 C1080 1.314 . S
N1081 C1084 1.279 . S
C1082 C1080 1.353 . S
C1082 C1085 1.348 . S
C1082 H1130 0.929 . S
C1083 C1084 1.358 . S
C1083 C1085 1.356 . S
C1083 H1131 0.930 . S
C1084 N1081 1.279 . S
C1084 C1083 1.358 . S
C1084 H1087 0.930 . S
C1085 C1082 1.348 . S
C1085 C1083 1.356 . S
H1086 C1080 0.930 . S
H1087 C1084 0.930 . S
C1088 C1090 1.348 . S
C1088 C1091 1.356 . S
C1088 O1118 1.325 . S
N1089 C1092 1.314 . S
N1089 C1093 1.279 . S
C1090 C1088 1.348 . S
C1090 C1092 1.353 . S
C1090 H1132 0.929 . S
C1091 C1088 1.356 . S
C1091 C1093 1.358 . S
C1091 H1133 0.930 . S
C1092 N1089 1.314 . S
C1092 C1090 1.353 . S
C1092 H1134 0.930 . S
C1093 N1089 1.279 . S
C1093 C1091 1.358 . S
C1093 H1135 0.930 . S
C1094 C1095 1.348 . S
C1094 C1096 1.356 . S
C1094 O1119 1.325 . S
C1095 C1094 1.348 . S
C1095 C1097 1.353 . S
C1095 H1136 0.929 . S
C1096 C1094 1.356 . S
C1096 C1098 1.358 . S
C1096 H1137 0.930 . S
C1097 C1095 1.353 . S
C1097 N1099 1.314 . S
C1097 H1138 0.930 . S
C1098 C1096 1.358 . S
C1098 N1099 1.279 . S
C1098 H1139 0.930 . S
N1099 C1097 1.314 . S
N1099 C1098 1.279 . S
C1100 C1102 1.353 . S
C1100 N1103 1.314 . S
C1100 H1106 0.930 . S
C1101 N1103 1.279 . S
C1101 C1104 1.358 . S
C1101 H1107 0.930 . S
C1102 C1100 1.353 . S
C1102 C1105 1.348 . S
C1102 H1140 0.929 . S
N1103 Li1058 1.990 . S
N1103 C1100 1.314 . S
N1103 C1101 1.279 . S
C1104 C1101 1.358 . S
C1104 C1105 1.356 . S
C1104 H1141 0.930 . S
C1105 C1102 1.348 . S
C1105 C1104 1.356 . S
H1106 C1100 0.930 . S
H1107 C1101 0.930 . S
C1108 N1109 1.314 . S
C1108 C1110 1.353 . S
C1108 H1114 0.930 . S
N1109 Li1059 1.990 . S
N1109 C1108 1.314 . S
N1109 C1112 1.279 . S
C1110 C1108 1.353 . S
C1110 C1113 1.348 . S
C1110 H1142 0.929 . S
C1111 C1112 1.358 . S
C1111 C1113 1.356 . S
C1111 H1143 0.930 . S
C1112 N1109 1.279 . S
C1112 C1111 1.358 . S
C1112 H1115 0.930 . S
C1113 C1110 1.348 . S
C1113 C1111 1.356 . S
H1114 C1108 0.930 . S
H1115 C1112 0.930 . S
O1116 Li1056 1.956 . S
O1116 Li1057 1.970 . S
O1116 Li1058 1.961 . S
O1116 C1060 1.325 1_545 S
O1117 Li1056 1.970 . S
O1117 Li1057 1.956 . S
O1117 Li1059 1.961 . S
O1117 C1066 1.325 . S
O1118 Li1056 1.961 . S
O1118 Li1058 1.956 . S
O1118 Li1059 1.970 . S
O1118 C1088 1.325 . S
O1119 Li1057 1.961 . S
O1119 Li1058 1.970 . S
O1119 Li1059 1.956 . S
O1119 C1094 1.325 . S
H1120 C1062 0.929 . S
H1121 C1063 0.930 . S
H1122 C1064 0.930 . S
H1123 C1065 0.930 . S
H1124 C1067 0.930 . S
H1125 C1069 0.929 . S
H1126 C1070 0.930 . S
H1127 C1071 0.930 . S
H1128 C1074 0.930 . S
H1129 C1077 0.929 . S
H1130 C1082 0.929 . S
H1131 C1083 0.930 . S
H1132 C1090 0.929 . S
H1133 C1091 0.930 . S
H1134 C1092 0.930 . S
H1135 C1093 0.930 . S
H1136 C1095 0.929 . S
H1137 C1096 0.930 . S
H1138 C1097 0.930 . S
H1139 C1098 0.930 . S
H1140 C1102 0.929 . S
H1141 C1104 0.930 . S
H1142 C1110 0.929 . S
H1143 C1111 0.930 . S
Li1144 N1161 1.990 . S
Li1144 O1204 1.956 1_455 S
Li1144 O1205 1.970 1_455 S
Li1144 O1206 1.961 1_455 S
Li1145 N1169 1.990 . S
Li1145 O1204 1.970 . S
Li1145 O1205 1.956 . S
Li1145 O1207 1.961 . S
Li1146 N1191 1.990 . S
Li1146 O1204 1.961 . S
Li1146 O1206 1.956 . S
Li1146 O1207 1.970 . S
Li1147 N1197 1.990 . S
Li1147 O1205 1.961 . S
Li1147 O1206 1.970 . S
Li1147 O1207 1.956 . S
C1148 C1150 1.348 . S
C1148 C1151 1.356 . S
C1148 O1204 1.325 1_455 S
N1149 C1152 1.314 . S
N1149 C1153 1.279 . S
C1150 C1148 1.348 . S
C1150 C1152 1.353 . S
C1150 H1208 0.929 . S
C1151 C1148 1.356 . S
C1151 C1153 1.358 . S
C1151 H1209 0.930 . S
C1152 N1149 1.314 . S
C1152 C1150 1.353 . S
C1152 H1210 0.930 . S
C1153 N1149 1.279 . S
C1153 C1151 1.358 . S
C1153 H1211 0.930 . S
C1154 C1157 1.348 1_655 S
C1154 C1158 1.356 . S
C1154 O1205 1.325 . S
C1155 N1156 1.231 1_655 S
C1155 C1158 1.358 . S
C1155 H1212 0.930 . S
N1156 C1155 1.231 1_455 S
N1156 C1159 1.375 . S
C1157 C1154 1.348 1_455 S
C1157 C1159 1.353 . S
C1157 H1213 0.929 . S
C1158 C1154 1.356 . S
C1158 C1155 1.358 . S
C1158 H1214 0.930 . S
C1159 N1156 1.375 . S
C1159 C1157 1.353 . S
C1159 H1215 0.930 . S
C1160 N1161 1.314 . S
C1160 C1165 1.353 . S
C1160 H1166 0.930 . S
N1161 Li1144 1.990 . S
N1161 C1160 1.314 . S
N1161 C1163 1.279 . S
C1162 C1163 1.358 . S
C1162 C1164 1.356 . S
C1162 H1216 0.930 . S
C1163 N1161 1.279 . S
C1163 C1162 1.358 . S
C1163 H1167 0.930 . S
C1164 C1162 1.356 . S
C1164 C1165 1.348 . S
C1165 C1160 1.353 . S
C1165 C1164 1.348 . S
C1165 H1217 0.929 . S
H1166 C1160 0.930 . S
H1167 C1163 0.930 . S
C1168 N1169 1.314 . S
C1168 C1170 1.353 . S
C1168 H1174 0.930 . S
N1169 Li1145 1.990 . S
N1169 C1168 1.314 . S
N1169 C1172 1.279 . S
C1170 C1168 1.353 . S
C1170 C1173 1.348 . S
C1170 H1218 0.929 . S
C1171 C1172 1.358 . S
C1171 C1173 1.356 . S
C1171 H1219 0.933 . S
C1172 N1169 1.279 . S
C1172 C1171 1.358 . S
C1172 H1175 0.930 . S
C1173 C1170 1.348 . S
C1173 C1171 1.356 . S
H1174 C1168 0.930 . S
H1175 C1172 0.930 . S
C1176 C1178 1.348 . S
C1176 C1179 1.356 . S
C1176 O1206 1.325 . S
N1177 C1180 1.314 . S
N1177 C1181 1.279 . S
C1178 C1176 1.348 . S
C1178 C1180 1.353 . S
C1178 H1220 0.929 . S
C1179 C1176 1.356 . S
C1179 C1181 1.358 . S
C1179 H1221 0.886 1_655 S
C1180 N1177 1.314 . S
C1180 C1178 1.353 . S
C1180 H1222 0.930 . S
C1181 N1177 1.279 . S
C1181 C1179 1.358 . S
C1181 H1223 0.930 . S
C1182 C1183 1.348 . S
C1182 C1184 1.356 . S
C1182 O1207 1.325 . S
C1183 C1182 1.348 . S
C1183 C1185 1.353 . S
C1183 H1224 0.929 . S
C1184 C1182 1.356 . S
C1184 C1186 1.358 . S
C1184 H1225 0.930 . S
C1185 C1183 1.353 . S
C1185 N1187 1.314 . S
C1185 H1226 0.930 . S
C1186 C1184 1.358 . S
C1186 N1187 1.279 . S
C1186 H1227 0.930 . S
N1187 C1185 1.314 . S
N1187 C1186 1.279 . S
C1188 C1190 1.353 . S
C1188 N1191 1.314 . S
C1188 H1194 0.930 . S
C1189 N1191 1.279 . S
C1189 C1192 1.358 . S
C1189 H1195 0.930 . S
C1190 C1188 1.353 . S
C1190 C1193 1.348 . S
C1190 H1228 0.929 . S
N1191 Li1146 1.990 . S
N1191 C1188 1.314 . S
N1191 C1189 1.279 . S
C1192 C1189 1.358 . S
C1192 C1193 1.356 . S
C1192 H1229 0.930 . S
C1193 C1190 1.348 . S
C1193 C1192 1.356 . S
H1194 C1188 0.930 . S
H1195 C1189 0.930 . S
C1196 N1197 1.314 . S
C1196 C1198 1.353 . S
C1196 H1202 0.930 . S
N1197 Li1147 1.990 . S
N1197 C1196 1.314 . S
N1197 C1200 1.279 . S
C1198 C1196 1.353 . S
C1198 C1201 1.348 . S
C1198 H1230 0.929 . S
C1199 C1200 1.358 . S
C1199 C1201 1.356 . S
C1199 H1231 0.930 . S
C1200 N1197 1.279 . S
C1200 C1199 1.358 . S
C1200 H1203 0.930 . S
C1201 C1198 1.348 . S
C1201 C1199 1.356 . S
H1202 C1196 0.930 . S
H1203 C1200 0.930 . S
O1204 Li1144 1.956 1_655 S
O1204 Li1145 1.970 . S
O1204 Li1146 1.961 . S
O1204 C1148 1.325 1_655 S
O1205 Li1144 1.970 1_655 S
O1205 Li1145 1.956 . S
O1205 Li1147 1.961 . S
O1205 C1154 1.325 . S
O1206 Li1144 1.961 1_655 S
O1206 Li1146 1.956 . S
O1206 Li1147 1.970 . S
O1206 C1176 1.325 . S
O1207 Li1145 1.961 . S
O1207 Li1146 1.970 . S
O1207 Li1147 1.956 . S
O1207 C1182 1.325 . S
H1208 C1150 0.929 . S
H1209 C1151 0.930 . S
H1210 C1152 0.930 . S
H1211 C1153 0.930 . S
H1212 C1155 0.930 . S
H1213 C1157 0.929 . S
H1214 C1158 0.930 . S
H1215 C1159 0.930 . S
H1216 C1162 0.930 . S
H1217 C1165 0.929 . S
H1218 C1170 0.929 . S
H1219 C1171 0.933 . S
H1220 C1178 0.929 . S
H1221 C1179 0.886 1_455 S
H1222 C1180 0.930 . S
H1223 C1181 0.930 . S
H1224 C1183 0.929 . S
H1225 C1184 0.930 . S
H1226 C1185 0.930 . S
H1227 C1186 0.930 . S
H1228 C1190 0.929 . S
H1229 C1192 0.930 . S
H1230 C1198 0.929 . S
H1231 C1199 0.930 . S
Li1232 N1249 1.990 . S
Li1232 O1292 1.956 . S
Li1232 O1293 1.970 . S
Li1232 O1294 1.961 . S
Li1233 N1257 1.990 . S
Li1233 O1292 1.970 . S
Li1233 O1293 1.956 . S
Li1233 O1295 1.961 . S
Li1234 N1279 1.990 . S
Li1234 O1292 1.961 . S
Li1234 O1294 1.956 . S
Li1234 O1295 1.970 . S
Li1235 N1285 1.990 . S
Li1235 O1293 1.961 . S
Li1235 O1294 1.970 . S
Li1235 O1295 1.956 . S
C1236 C1238 1.348 . S
C1236 C1239 1.356 . S
C1236 O1292 1.325 . S
N1237 C1240 1.314 . S
N1237 C1241 1.279 . S
C1238 C1236 1.348 . S
C1238 C1240 1.353 . S
C1238 H1296 0.929 . S
C1239 C1236 1.356 . S
C1239 C1241 1.358 . S
C1239 H1297 0.930 . S
C1240 N1237 1.314 . S
C1240 C1238 1.353 . S
C1240 H1298 0.930 . S
C1241 N1237 1.279 . S
C1241 C1239 1.358 . S
C1241 H1299 0.930 . S
C1242 C1245 1.348 . S
C1242 C1246 1.356 . S
C1242 O1293 1.325 . S
C1243 N1244 1.279 . S
C1243 C1246 1.358 . S
C1243 H1300 0.930 . S
N1244 C1243 1.279 . S
N1244 C1247 1.314 . S
C1245 C1242 1.348 . S
C1245 C1247 1.353 . S
C1245 H1301 0.929 . S
C1246 C1242 1.356 . S
C1246 C1243 1.358 . S
C1246 H1302 0.930 . S
C1247 N1244 1.314 . S
C1247 C1245 1.353 . S
C1247 H1303 0.930 . S
C1248 N1249 1.314 . S
C1248 C1253 1.353 . S
C1248 H1254 0.930 . S
N1249 Li1232 1.990 . S
N1249 C1248 1.314 . S
N1249 C1251 1.279 . S
C1250 C1251 1.358 . S
C1250 C1252 1.356 . S
C1250 H1304 0.930 . S
C1251 N1249 1.279 . S
C1251 C1250 1.358 . S
C1251 H1255 0.930 . S
C1252 C1250 1.356 . S
C1252 C1253 1.348 . S
C1253 C1248 1.353 . S
C1253 C1252 1.348 . S
C1253 H1305 0.929 . S
H1254 C1248 0.930 . S
H1255 C1251 0.930 . S
C1256 N1257 1.314 . S
C1256 C1258 1.353 . S
C1256 H1262 0.930 . S
N1257 Li1233 1.990 . S
N1257 C1256 1.314 . S
N1257 C1260 1.279 . S
C1258 C1256 1.353 . S
C1258 C1261 1.348 . S
C1258 H1306 0.929 . S
C1259 C1260 1.358 . S
C1259 C1261 1.356 . S
C1259 H1307 0.930 . S
C1260 N1257 1.279 . S
C1260 C1259 1.358 . S
C1260 H1263 0.930 . S
C1261 C1258 1.348 . S
C1261 C1259 1.356 . S
H1262 C1256 0.930 . S
H1263 C1260 0.930 . S
C1264 C1266 1.348 . S
C1264 C1267 1.356 . S
C1264 O1294 1.325 . S
N1265 C1268 1.314 . S
N1265 C1269 1.279 . S
C1266 C1264 1.348 . S
C1266 C1268 1.353 . S
C1266 H1308 0.929 . S
C1267 C1264 1.356 . S
C1267 C1269 1.358 . S
C1267 H1309 0.930 . S
C1268 N1265 1.314 . S
C1268 C1266 1.353 . S
C1268 H1310 0.930 . S
C1269 N1265 1.279 . S
C1269 C1267 1.358 . S
C1269 H1311 0.930 . S
C1270 C1271 1.348 . S
C1270 C1272 1.356 . S
C1270 O1295 1.325 . S
C1271 C1270 1.348 . S
C1271 C1273 1.353 . S
C1271 H1312 0.929 . S
C1272 C1270 1.356 . S
C1272 C1274 1.358 . S
C1272 H1313 0.930 . S
C1273 C1271 1.353 . S
C1273 N1275 1.314 . S
C1273 H1314 0.930 . S
C1274 C1272 1.358 . S
C1274 N1275 1.279 . S
C1274 H1315 0.930 . S
N1275 C1273 1.314 . S
N1275 C1274 1.279 . S
C1276 C1278 1.353 . S
C1276 N1279 1.314 . S
C1276 H1282 0.930 . S
C1277 N1279 1.279 . S
C1277 C1280 1.358 . S
C1277 H1283 0.930 . S
C1278 C1276 1.353 . S
C1278 C1281 1.348 . S
C1278 H1316 0.929 . S
N1279 Li1234 1.990 . S
N1279 C1276 1.314 . S
N1279 C1277 1.279 . S
C1280 C1277 1.358 . S
C1280 C1281 1.356 . S
C1280 H1317 0.930 . S
C1281 C1278 1.348 . S
C1281 C1280 1.356 . S
H1282 C1276 0.930 . S
H1283 C1277 0.930 . S
C1284 N1285 1.314 . S
C1284 C1286 1.353 . S
C1284 H1290 0.930 . S
N1285 Li1235 1.990 . S
N1285 C1284 1.314 . S
N1285 C1288 1.279 . S
C1286 C1284 1.353 . S
C1286 C1289 1.348 . S
C1286 H1318 0.929 . S
C1287 C1288 1.358 . S
C1287 C1289 1.356 . S
C1287 H1319 0.930 . S
C1288 N1285 1.279 . S
C1288 C1287 1.358 . S
C1288 H1291 0.930 . S
C1289 C1286 1.348 . S
C1289 C1287 1.356 . S
H1290 C1284 0.930 . S
H1291 C1288 0.930 . S
O1292 Li1232 1.956 . S
O1292 Li1233 1.970 . S
O1292 Li1234 1.961 . S
O1292 C1236 1.325 . S
O1293 Li1232 1.970 . S
O1293 Li1233 1.956 . S
O1293 Li1235 1.961 . S
O1293 C1242 1.325 . S
O1294 Li1232 1.961 . S
O1294 Li1234 1.956 . S
O1294 Li1235 1.970 . S
O1294 C1264 1.325 . S
O1295 Li1233 1.961 . S
O1295 Li1234 1.970 . S
O1295 Li1235 1.956 . S
O1295 C1270 1.325 . S
H1296 C1238 0.929 . S
H1297 C1239 0.930 . S
H1298 C1240 0.930 . S
H1299 C1241 0.930 . S
H1300 C1243 0.930 . S
H1301 C1245 0.929 . S
H1302 C1246 0.930 . S
H1303 C1247 0.930 . S
H1304 C1250 0.930 . S
H1305 C1253 0.929 . S
H1306 C1258 0.929 . S
H1307 C1259 0.930 . S
H1308 C1266 0.929 . S
H1309 C1267 0.930 . S
H1310 C1268 0.930 . S
H1311 C1269 0.930 . S
H1312 C1271 0.929 . S
H1313 C1272 0.930 . S
H1314 C1273 0.930 . S
H1315 C1274 0.930 . S
H1316 C1278 0.929 . S
H1317 C1280 0.930 . S
H1318 C1286 0.929 . S
H1319 C1287 0.930 . S
Li1320 N1337 1.990 . S
Li1320 O1380 1.956 . S
Li1320 O1381 1.970 . S
Li1320 O1382 1.961 . S
Li1321 N1345 1.990 . S
Li1321 O1380 1.970 . S
Li1321 O1381 1.956 . S
Li1321 O1383 1.961 . S
Li1322 N1367 1.990 . S
Li1322 O1380 1.961 . S
Li1322 O1382 1.956 . S
Li1322 O1383 1.970 . S
Li1323 N1373 1.990 . S
Li1323 O1381 1.961 . S
Li1323 O1382 1.970 . S
Li1323 O1383 1.956 . S
C1324 C1326 1.348 . S
C1324 C1327 1.356 . S
C1324 O1380 1.325 . S
N1325 C1328 1.314 . S
N1325 C1329 1.279 . S
C1326 C1324 1.348 . S
C1326 C1328 1.353 . S
C1326 H1384 0.929 . S
C1327 C1324 1.356 . S
C1327 C1329 1.358 . S
C1327 H1385 0.930 . S
C1328 N1325 1.314 . S
C1328 C1326 1.353 . S
C1328 H1386 0.930 . S
C1329 N1325 1.279 . S
C1329 C1327 1.358 . S
C1329 H1387 0.930 . S
C1330 C1333 1.348 . S
C1330 C1334 1.356 . S
C1330 O1381 1.325 . S
C1331 N1332 1.279 . S
C1331 C1334 1.358 . S
C1331 H1388 0.930 . S
N1332 C1331 1.279 . S
N1332 C1335 1.314 . S
C1333 C1330 1.348 . S
C1333 C1335 1.353 . S
C1333 H1389 0.929 . S
C1334 C1330 1.356 . S
C1334 C1331 1.358 . S
C1334 H1390 0.930 . S
C1335 N1332 1.314 . S
C1335 C1333 1.353 . S
C1335 H1391 0.930 . S
C1336 N1337 1.314 . S
C1336 C1341 1.353 . S
C1336 H1342 0.930 . S
N1337 Li1320 1.990 . S
N1337 C1336 1.314 . S
N1337 C1339 1.279 . S
C1338 C1339 1.358 . S
C1338 C1340 1.356 . S
C1338 H1392 0.930 . S
C1339 N1337 1.279 . S
C1339 C1338 1.358 . S
C1339 H1343 0.930 . S
C1340 C1338 1.356 . S
C1340 C1341 1.348 . S
C1341 C1336 1.353 . S
C1341 C1340 1.348 . S
C1341 H1393 0.929 . S
H1342 C1336 0.930 . S
H1343 C1339 0.930 . S
C1344 N1345 1.314 . S
C1344 C1346 1.353 . S
C1344 H1350 0.930 . S
N1345 Li1321 1.990 . S
N1345 C1344 1.314 . S
N1345 C1348 1.279 . S
C1346 C1344 1.353 . S
C1346 C1349 1.348 . S
C1346 H1394 0.929 . S
C1347 C1348 1.358 . S
C1347 C1349 1.356 . S
C1347 H1395 0.930 . S
C1348 N1345 1.279 . S
C1348 C1347 1.358 . S
C1348 H1351 0.930 . S
C1349 C1346 1.348 . S
C1349 C1347 1.356 . S
H1350 C1344 0.930 . S
H1351 C1348 0.930 . S
C1352 C1354 1.348 . S
C1352 C1355 1.356 . S
C1352 O1382 1.325 . S
N1353 C1356 1.314 . S
N1353 C1357 1.279 . S
C1354 C1352 1.348 . S
C1354 C1356 1.353 . S
C1354 H1396 0.929 . S
C1355 C1352 1.356 . S
C1355 C1357 1.358 . S
C1355 H1397 0.930 . S
C1356 N1353 1.314 . S
C1356 C1354 1.353 . S
C1356 H1398 0.930 . S
C1357 N1353 1.279 . S
C1357 C1355 1.358 . S
C1357 H1399 0.930 . S
C1358 C1359 1.348 . S
C1358 C1360 1.356 . S
C1358 O1383 1.325 . S
C1359 C1358 1.348 . S
C1359 C1361 1.353 . S
C1359 H1400 0.929 . S
C1360 C1358 1.356 . S
C1360 C1362 1.358 . S
C1360 H1401 0.930 . S
C1361 C1359 1.353 . S
C1361 N1363 1.314 . S
C1361 H1402 0.930 . S
C1362 C1360 1.358 . S
C1362 N1363 1.279 . S
C1362 H1403 0.930 . S
N1363 C1361 1.314 . S
N1363 C1362 1.279 . S
C1364 C1366 1.353 . S
C1364 N1367 1.314 . S
C1364 H1370 0.930 . S
C1365 N1367 1.279 . S
C1365 C1368 1.358 . S
C1365 H1371 0.930 . S
C1366 C1364 1.353 . S
C1366 C1369 1.348 . S
C1366 H1404 0.929 . S
N1367 Li1322 1.990 . S
N1367 C1364 1.314 . S
N1367 C1365 1.279 . S
C1368 C1365 1.358 . S
C1368 C1369 1.356 . S
C1368 H1405 0.930 . S
C1369 C1366 1.348 . S
C1369 C1368 1.356 . S
H1370 C1364 0.930 . S
H1371 C1365 0.930 . S
C1372 N1373 1.314 . S
C1372 C1374 1.353 . S
C1372 H1378 0.930 . S
N1373 Li1323 1.990 . S
N1373 C1372 1.314 . S
N1373 C1376 1.279 . S
C1374 C1372 1.353 . S
C1374 C1377 1.348 . S
C1374 H1406 0.929 . S
C1375 C1376 1.358 . S
C1375 C1377 1.356 . S
C1375 H1407 0.930 . S
C1376 N1373 1.279 . S
C1376 C1375 1.358 . S
C1376 H1379 0.930 . S
C1377 C1374 1.348 . S
C1377 C1375 1.356 . S
H1378 C1372 0.930 . S
H1379 C1376 0.930 . S
O1380 Li1320 1.956 . S
O1380 Li1321 1.970 . S
O1380 Li1322 1.961 . S
O1380 C1324 1.325 . S
O1381 Li1320 1.970 . S
O1381 Li1321 1.956 . S
O1381 Li1323 1.961 . S
O1381 C1330 1.325 . S
O1382 Li1320 1.961 . S
O1382 Li1322 1.956 . S
O1382 Li1323 1.970 . S
O1382 C1352 1.325 . S
O1383 Li1321 1.961 . S
O1383 Li1322 1.970 . S
O1383 Li1323 1.956 . S
O1383 C1358 1.325 . S
H1384 C1326 0.929 . S
H1385 C1327 0.930 . S
H1386 C1328 0.930 . S
H1387 C1329 0.930 . S
H1388 C1331 0.930 . S
H1389 C1333 0.929 . S
H1390 C1334 0.930 . S
H1391 C1335 0.930 . S
H1392 C1338 0.930 . S
H1393 C1341 0.929 . S
H1394 C1346 0.929 . S
H1395 C1347 0.930 . S
H1396 C1354 0.929 . S
H1397 C1355 0.930 . S
H1398 C1356 0.930 . S
H1399 C1357 0.930 . S
H1400 C1359 0.929 . S
H1401 C1360 0.930 . S
H1402 C1361 0.930 . S
H1403 C1362 0.930 . S
H1404 C1366 0.929 . S
H1405 C1368 0.930 . S
H1406 C1374 0.929 . S
H1407 C1375 0.930 . S
Li1408 N1425 1.990 . S
Li1408 O1468 1.956 . S
Li1408 O1469 1.970 . S
Li1408 O1470 1.961 . S
Li1409 N1433 1.990 . S
Li1409 O1468 1.970 . S
Li1409 O1469 1.956 . S
Li1409 O1471 1.961 . S
Li1410 N1455 1.990 . S
Li1410 O1468 1.961 . S
Li1410 O1470 1.956 . S
Li1410 O1471 1.970 . S
Li1411 N1461 1.917 1_545 S
Li1411 O1469 1.978 . S
Li1411 O1470 2.039 . S
Li1411 O1471 1.991 . S
C1412 C1414 1.348 . S
C1412 C1415 1.356 . S
C1412 O1468 1.325 . S
N1413 C1416 1.314 . S
N1413 C1417 1.279 . S
C1414 C1412 1.348 . S
C1414 C1416 1.353 . S
C1414 H1472 0.929 . S
C1415 C1412 1.356 . S
C1415 C1417 1.358 . S
C1415 H1473 0.930 . S
C1416 N1413 1.314 . S
C1416 C1414 1.353 . S
C1416 H1474 0.930 . S
C1417 N1413 1.279 . S
C1417 C1415 1.358 . S
C1417 H1475 0.930 . S
C1418 C1421 1.348 . S
C1418 C1422 1.356 . S
C1418 O1469 1.325 1_565 S
C1419 N1420 1.279 . S
C1419 C1422 1.358 . S
C1419 H1476 0.930 . S
N1420 C1419 1.279 . S
N1420 C1423 1.314 . S
C1421 C1418 1.348 . S
C1421 C1423 1.353 . S
C1421 H1477 0.993 . S
C1422 C1418 1.356 . S
C1422 C1419 1.358 . S
C1422 H1478 0.930 . S
C1423 N1420 1.314 . S
C1423 C1421 1.353 . S
C1423 H1479 0.930 . S
C1424 N1425 1.314 . S
C1424 C1429 1.353 . S
C1424 H1430 0.930 1_545 S
N1425 Li1408 1.990 . S
N1425 C1424 1.314 . S
N1425 C1427 1.279 . S
C1426 C1427 1.358 . S
C1426 C1428 1.356 . S
C1426 H1480 0.930 . S
C1427 N1425 1.279 . S
C1427 C1426 1.358 . S
C1427 H1431 0.930 . S
C1428 C1426 1.356 . S
C1428 C1429 1.348 . S
C1429 C1424 1.353 . S
C1429 C1428 1.348 . S
C1429 H1481 0.929 1_545 S
H1430 C1424 0.930 1_565 S
H1431 C1427 0.930 . S
C1432 N1433 1.314 . S
C1432 C1434 1.353 . S
C1432 H1438 0.930 . S
N1433 Li1409 1.990 . S
N1433 C1432 1.314 . S
N1433 C1436 1.279 . S
C1434 C1432 1.353 . S
C1434 C1437 1.348 . S
C1434 H1482 0.929 . S
C1435 C1436 1.358 . S
C1435 C1437 1.356 . S
C1435 H1483 0.930 . S
C1436 N1433 1.279 . S
C1436 C1435 1.358 . S
C1436 H1439 0.930 . S
C1437 C1434 1.348 . S
C1437 C1435 1.356 . S
H1438 C1432 0.930 . S
H1439 C1436 0.930 . S
C1440 C1442 1.348 1_545 S
C1440 C1443 1.356 . S
C1440 O1470 1.325 . S
N1441 C1444 1.314 1_545 S
N1441 C1445 1.279 . S
C1442 C1440 1.348 1_565 S
C1442 C1444 1.353 . S
C1442 H1484 0.929 . S
C1443 C1440 1.356 . S
C1443 C1445 1.358 . S
C1443 H1485 0.930 . S
C1444 N1441 1.314 1_565 S
C1444 C1442 1.353 . S
C1444 H1486 0.930 . S
C1445 N1441 1.279 . S
C1445 C1443 1.358 . S
C1445 H1487 0.930 . S
C1446 C1447 1.348 . S
C1446 C1448 1.356 . S
C1446 O1471 1.325 . S
C1447 C1446 1.348 . S
C1447 C1449 1.353 . S
C1447 H1488 0.929 . S
C1448 C1446 1.356 . S
C1448 C1450 1.358 . S
C1448 H1489 0.930 . S
C1449 C1447 1.353 . S
C1449 N1451 1.314 . S
C1449 H1490 0.930 . S
C1450 C1448 1.358 . S
C1450 N1451 1.279 . S
C1450 H1491 0.930 . S
N1451 C1449 1.314 . S
N1451 C1450 1.279 . S
C1452 C1454 1.353 . S
C1452 N1455 1.314 . S
C1452 H1458 0.930 . S
C1453 N1455 1.279 . S
C1453 C1456 1.358 . S
C1453 H1459 0.930 . S
C1454 C1452 1.353 . S
C1454 C1457 1.348 . S
C1454 H1492 0.929 . S
N1455 Li1410 1.990 . S
N1455 C1452 1.314 . S
N1455 C1453 1.279 . S
C1456 C1453 1.358 . S
C1456 C1457 1.356 . S
C1456 H1493 0.930 . S
C1457 C1454 1.348 . S
C1457 C1456 1.356 . S
H1458 C1452 0.930 . S
H1459 C1453 0.930 . S
C1460 N1461 1.314 . S
C1460 C1462 1.353 . S
C1460 H1466 0.930 . S
N1461 Li1411 1.917 1_565 S
N1461 C1460 1.314 . S
N1461 C1464 1.279 . S
C1462 C1460 1.353 . S
C1462 C1465 1.348 . S
C1462 H1494 0.929 . S
C1463 C1464 1.358 . S
C1463 C1465 1.356 . S
C1463 H1495 0.930 . S
C1464 N1461 1.279 . S
C1464 C1463 1.358 . S
C1464 H1467 0.930 . S
C1465 C1462 1.348 . S
C1465 C1463 1.356 . S
H1466 C1460 0.930 . S
H1467 C1464 0.930 . S
O1468 Li1408 1.956 . S
O1468 Li1409 1.970 . S
O1468 Li1410 1.961 . S
O1468 C1412 1.325 . S
O1469 Li1408 1.970 . S
O1469 Li1409 1.956 . S
O1469 Li1411 1.978 . S
O1469 C1418 1.325 1_545 S
O1470 Li1408 1.961 . S
O1470 Li1410 1.956 . S
O1470 Li1411 2.039 . S
O1470 C1440 1.325 . S
O1471 Li1409 1.961 . S
O1471 Li1410 1.970 . S
O1471 Li1411 1.991 . S
O1471 C1446 1.325 . S
H1472 C1414 0.929 . S
H1473 C1415 0.930 . S
H1474 C1416 0.930 . S
H1475 C1417 0.930 . S
H1476 C1419 0.930 . S
H1477 C1421 0.993 . S
H1478 C1422 0.930 . S
H1479 C1423 0.930 . S
H1480 C1426 0.930 . S
H1481 C1429 0.929 1_565 S
H1482 C1434 0.929 . S
H1483 C1435 0.930 . S
H1484 C1442 0.929 . S
H1485 C1443 0.930 . S
H1486 C1444 0.930 . S
H1487 C1445 0.930 . S
H1488 C1447 0.929 . S
H1489 C1448 0.930 . S
H1490 C1449 0.930 . S
H1491 C1450 0.930 . S
H1492 C1454 0.929 . S
H1493 C1456 0.930 . S
H1494 C1462 0.929 . S
H1495 C1463 0.930 . S
Li1496 N1513 1.990 . S
Li1496 O1556 1.956 . S
Li1496 O1557 1.970 . S
Li1496 O1558 1.961 . S
Li1497 N1521 1.990 . S
Li1497 O1556 1.970 . S
Li1497 O1557 1.956 . S
Li1497 O1559 1.961 . S
Li1498 N1543 1.990 1_655 S
Li1498 O1556 1.961 . S
Li1498 O1558 1.956 . S
Li1498 O1559 1.970 . S
Li1499 N1549 1.990 . S
Li1499 O1557 1.961 . S
Li1499 O1558 1.970 . S
Li1499 O1559 1.956 . S
C1500 C1502 1.348 . S
C1500 C1503 1.356 . S
C1500 O1556 1.325 1_455 S
N1501 C1504 1.314 . S
N1501 C1505 1.279 . S
C1502 C1500 1.348 . S
C1502 C1504 1.353 . S
C1502 H1560 0.920 1_455 S
C1503 C1500 1.356 . S
C1503 C1505 1.358 . S
C1503 H1561 0.930 . S
C1504 N1501 1.314 . S
C1504 C1502 1.353 . S
C1504 H1562 0.930 . S
C1505 N1501 1.279 . S
C1505 C1503 1.358 . S
C1505 H1563 0.930 . S
C1506 C1509 1.348 . S
C1506 C1510 1.356 . S
C1506 O1557 1.325 . S
C1507 N1508 1.279 . S
C1507 C1510 1.358 . S
C1507 H1564 0.930 . S
N1508 C1507 1.279 . S
N1508 C1511 1.314 . S
C1509 C1506 1.348 . S
C1509 C1511 1.353 . S
C1509 H1565 0.929 . S
C1510 C1506 1.356 . S
C1510 C1507 1.358 . S
C1510 H1566 0.930 . S
C1511 N1508 1.314 . S
C1511 C1509 1.353 . S
C1511 H1567 0.930 . S
C1512 N1513 1.314 . S
C1512 C1517 1.353 . S
C1512 H1518 0.930 . S
N1513 Li1496 1.990 . S
N1513 C1512 1.314 . S
N1513 C1515 1.279 . S
C1514 C1515 1.358 . S
C1514 C1516 1.356 . S
C1514 H1568 0.930 . S
C1515 N1513 1.279 . S
C1515 C1514 1.358 . S
C1515 H1519 0.930 . S
C1516 C1514 1.356 . S
C1516 C1517 1.348 . S
C1517 C1512 1.353 . S
C1517 C1516 1.348 . S
C1517 H1569 0.929 . S
H1518 C1512 0.930 . S
H1519 C1515 0.930 . S
C1520 N1521 1.314 . S
C1520 C1522 1.353 . S
C1520 H1526 0.913 1_655 S
N1521 Li1497 1.990 . S
N1521 C1520 1.314 . S
N1521 C1524 1.279 . S
C1522 C1520 1.353 . S
C1522 C1525 1.348 . S
C1522 H1570 0.929 1_655 S
C1523 C1524 1.358 . S
C1523 C1525 1.356 . S
C1523 H1571 0.930 . S
C1524 N1521 1.279 . S
C1524 C1523 1.358 . S
C1524 H1527 0.930 . S
C1525 C1522 1.348 . S
C1525 C1523 1.356 . S
H1526 C1520 0.913 1_455 S
H1527 C1524 0.930 . S
C1528 C1530 1.348 . S
C1528 C1531 1.356 . S
C1528 O1558 1.325 . S
N1529 C1532 1.314 . S
N1529 C1533 1.279 . S
C1530 C1528 1.348 . S
C1530 C1532 1.353 . S
C1530 H1572 0.929 . S
C1531 C1528 1.356 . S
C1531 C1533 1.358 . S
C1531 H1573 0.930 . S
C1532 N1529 1.314 . S
C1532 C1530 1.353 . S
C1532 H1574 0.930 . S
C1533 N1529 1.279 . S
C1533 C1531 1.358 . S
C1533 H1575 0.930 . S
C1534 C1535 1.347 1_655 S
C1534 C1536 1.356 . S
C1534 O1559 1.325 . S
C1535 C1534 1.347 1_455 S
C1535 C1537 1.353 . S
C1535 H1576 0.929 . S
C1536 C1534 1.356 . S
C1536 C1538 1.358 . S
C1536 H1577 0.930 . S
C1537 C1535 1.353 . S
C1537 N1539 1.314 1_455 S
C1537 H1578 0.930 . S
C1538 C1536 1.358 . S
C1538 N1539 1.279 . S
C1538 H1579 0.930 . S
N1539 C1537 1.314 1_655 S
N1539 C1538 1.279 . S
C1540 C1542 1.353 . S
C1540 N1543 1.314 . S
C1540 H1546 0.930 . S
C1541 N1543 1.279 . S
C1541 C1544 1.358 . S
C1541 H1547 0.930 . S
C1542 C1540 1.353 . S
C1542 C1545 1.348 . S
C1542 H1580 0.929 . S
N1543 Li1498 1.990 1_455 S
N1543 C1540 1.314 . S
N1543 C1541 1.279 . S
C1544 C1541 1.358 . S
C1544 C1545 1.356 . S
C1544 H1581 0.930 . S
C1545 C1542 1.348 . S
C1545 C1544 1.356 . S
H1546 C1540 0.930 . S
H1547 C1541 0.930 . S
C1548 N1549 1.314 . S
C1548 C1550 1.353 . S
C1548 H1554 0.930 . S
N1549 Li1499 1.990 . S
N1549 C1548 1.314 . S
N1549 C1552 1.279 . S
C1550 C1548 1.353 . S
C1550 C1553 1.348 . S
C1550 H1582 0.929 . S
C1551 C1552 1.358 . S
C1551 C1553 1.356 . S
C1551 H1583 0.930 . S
C1552 N1549 1.279 . S
C1552 C1551 1.358 . S
C1552 H1555 0.930 . S
C1553 C1550 1.348 . S
C1553 C1551 1.356 . S
H1554 C1548 0.930 . S
H1555 C1552 0.930 . S
O1556 Li1496 1.956 . S
O1556 Li1497 1.970 . S
O1556 Li1498 1.961 . S
O1556 C1500 1.325 1_655 S
O1557 Li1496 1.970 . S
O1557 Li1497 1.956 . S
O1557 Li1499 1.961 . S
O1557 C1506 1.325 . S
O1558 Li1496 1.961 . S
O1558 Li1498 1.956 . S
O1558 Li1499 1.970 . S
O1558 C1528 1.325 . S
O1559 Li1497 1.961 . S
O1559 Li1498 1.970 . S
O1559 Li1499 1.956 . S
O1559 C1534 1.325 . S
H1560 C1502 0.920 1_655 S
H1561 C1503 0.930 . S
H1562 C1504 0.930 . S
H1563 C1505 0.930 . S
H1564 C1507 0.930 . S
H1565 C1509 0.929 . S
H1566 C1510 0.930 . S
H1567 C1511 0.930 . S
H1568 C1514 0.930 . S
H1569 C1517 0.929 . S
H1570 C1522 0.929 1_455 S
H1571 C1523 0.930 . S
H1572 C1530 0.929 . S
H1573 C1531 0.930 . S
H1574 C1532 0.930 . S
H1575 C1533 0.930 . S
H1576 C1535 0.929 . S
H1577 C1536 0.930 . S
H1578 C1537 0.930 . S
H1579 C1538 0.930 . S
H1580 C1542 0.929 . S
H1581 C1544 0.930 . S
H1582 C1550 0.929 . S
H1583 C1551 0.930 . S
C1584 C1585 1.560 . S
C1584 H1645 0.959 . S
C1584 H1646 0.959 . S
C1584 H1647 0.960 . S
C1585 C1584 1.560 . S
C1585 O1640 1.426 . S
C1585 H1644 0.980 . S
C1586 C1587 1.407 . S
C1586 C1591 1.418 . S
C1586 O1640 1.334 . S
C1587 C1586 1.407 . S
C1587 C1588 1.360 . S
C1587 H1648 0.929 . S
C1588 C1587 1.360 . S
C1588 C1589 1.401 . S
C1588 C1592 1.527 . S
C1589 C1588 1.401 . S
C1589 C1590 1.405 . S
C1589 C1622 1.587 . S
C1590 C1589 1.405 . S
C1590 C1591 1.332 . S
C1590 C1593 1.496 . S
C1591 C1586 1.418 . S
C1591 C1590 1.332 . S
C1591 H1649 0.929 . S
C1592 C1588 1.527 . S
C1592 H1650 0.959 . S
C1592 H1651 0.961 . S
C1592 H1652 0.961 . S
C1593 C1590 1.496 . S
C1593 H1653 0.960 . S
C1593 H1654 0.960 . S
C1593 H1655 0.961 . S
C1594 C1595 1.517 . S
C1594 H1657 0.961 . S
C1594 H1658 0.960 . S
C1594 H1659 0.959 . S
C1595 C1594 1.517 . S
C1595 O1643 1.468 . S
C1595 H1656 0.980 . S
C1596 C1597 1.349 . S
C1596 C1601 1.367 . S
C1596 O1643 1.408 . S
C1597 C1596 1.349 . S
C1597 C1598 1.407 . S
C1597 H1660 0.930 . S
C1598 C1597 1.407 . S
C1598 C1599 1.449 . S
C1598 C1602 1.535 . S
C1599 C1598 1.449 . S
C1599 C1600 1.384 . S
C1599 C1624 1.553 . S
C1600 C1599 1.384 . S
C1600 C1601 1.364 . S
C1600 C1603 1.450 . S
C1601 C1596 1.367 . S
C1601 C1600 1.364 . S
C1601 H1661 0.931 . S
C1602 C1598 1.535 . S
C1602 H1662 0.959 . S
C1602 H1663 0.961 . S
C1602 H1664 0.959 . S
C1603 C1600 1.450 . S
C1603 H1665 0.960 . S
C1603 H1666 0.960 . S
C1603 H1667 0.960 . S
C1604 C1605 1.309 . S
C1604 C1609 1.304 . S
C1604 O1642 1.435 . S
C1605 C1604 1.309 . S
C1605 C1606 1.476 . S
C1605 H1669 0.930 . S
C1606 C1605 1.476 . S
C1606 C1607 1.400 . S
C1606 C1610 1.567 . S
C1607 C1606 1.400 . S
C1607 C1608 1.373 . S
C1607 C1629 1.432 . S
C1608 C1607 1.373 . S
C1608 C1609 1.339 . S
C1608 C1611 1.530 . S
C1609 C1604 1.304 . S
C1609 C1608 1.339 . S
C1609 H1670 0.930 . S
C1610 C1606 1.567 . S
C1610 H1671 0.961 . S
C1610 H1672 0.960 . S
C1610 H1673 0.958 . S
C1611 C1608 1.530 . S
C1611 H1674 0.961 . S
C1611 H1675 0.960 . S
C1611 H1676 0.960 . S
C1612 C1613 1.530 . S
C1612 H1678 0.961 . S
C1612 H1679 0.961 . S
C1612 H1680 0.959 . S
C1613 C1612 1.530 . S
C1613 O1641 1.412 . S
C1613 H1677 0.980 . S
C1614 C1615 1.288 . S
C1614 C1619 1.377 . S
C1614 O1641 1.393 . S
C1615 C1614 1.288 . S
C1615 C1616 1.369 . S
C1615 H1681 0.932 . S
C1616 C1615 1.369 . S
C1616 C1617 1.398 . S
C1616 C1620 1.527 . S
C1617 C1616 1.398 . S
C1617 C1618 1.380 . S
C1617 C1631 1.497 . S
C1618 C1617 1.380 . S
C1618 C1619 1.383 . S
C1618 C1621 1.603 . S
C1619 C1614 1.377 . S
C1619 C1618 1.383 . S
C1619 H1682 0.929 . S
C1620 C1616 1.527 . S
C1620 H1683 0.961 . S
C1620 H1684 0.959 . S
C1620 H1685 0.959 . S
C1621 C1618 1.603 . S
C1621 H1686 0.960 . S
C1621 H1687 0.962 . S
C1621 H1688 0.961 . S
C1622 C1589 1.587 . S
C1622 C1623 1.360 . S
C1622 C1635 1.412 . S
C1623 C1622 1.360 . S
C1623 C1624 1.365 . S
C1623 H1689 0.929 . S
C1624 C1599 1.553 . S
C1624 C1623 1.365 . S
C1624 C1625 1.404 . S
C1625 C1624 1.404 . S
C1625 C1626 1.395 . S
C1625 C1636 1.451 . S
C1626 C1625 1.395 . S
C1626 C1627 1.322 . S
C1626 H1690 0.930 . S
C1627 C1626 1.322 . S
C1627 C1628 1.459 . S
C1627 H1691 0.929 . S
C1628 C1627 1.459 . S
C1628 C1629 1.445 . S
C1628 C1637 1.395 . S
C1629 C1607 1.432 . S
C1629 C1628 1.445 . S
C1629 C1630 1.370 . S
C1630 C1629 1.370 . S
C1630 C1631 1.438 . S
C1630 H1692 0.930 . S
C1631 C1617 1.497 . S
C1631 C1630 1.438 . S
C1631 C1632 1.360 . S
C1632 C1631 1.360 . S
C1632 C1633 1.401 . S
C1632 C1637 1.446 . S
C1633 C1632 1.401 . S
C1633 C1634 1.347 . S
C1633 H1693 0.929 . S
C1634 C1633 1.347 . S
C1634 C1635 1.455 . S
C1634 H1694 0.930 . S
C1635 C1622 1.412 . S
C1635 C1634 1.455 . S
C1635 C1636 1.331 . S
C1636 C1625 1.451 . S
C1636 C1635 1.331 . S
C1636 C1637 1.497 . S
C1637 C1628 1.395 . S
C1637 C1632 1.446 . S
C1637 C1636 1.497 . S
C1638 C1639 1.582 . S
C1638 H1695 0.962 . S
C1638 H1696 0.959 . S
C1638 H1697 0.958 . S
C1639 C1638 1.582 . S
C1639 O1642 1.458 . S
C1639 H1668 0.980 . S
O1640 C1585 1.426 . S
O1640 C1586 1.334 . S
O1641 C1613 1.412 . S
O1641 C1614 1.393 . S
O1642 C1604 1.435 . S
O1642 C1639 1.458 . S
O1643 C1595 1.468 . S
O1643 C1596 1.408 . S
H1644 C1585 0.980 . S
H1645 C1584 0.959 . S
H1646 C1584 0.959 . S
H1647 C1584 0.960 . S
H1648 C1587 0.929 . S
H1649 C1591 0.929 . S
H1650 C1592 0.959 . S
H1651 C1592 0.961 . S
H1652 C1592 0.961 . S
H1653 C1593 0.960 . S
H1654 C1593 0.960 . S
H1655 C1593 0.961 . S
H1656 C1595 0.980 . S
H1657 C1594 0.961 . S
H1658 C1594 0.960 . S
H1659 C1594 0.959 . S
H1660 C1597 0.930 . S
H1661 C1601 0.931 . S
H1662 C1602 0.959 . S
H1663 C1602 0.961 . S
H1664 C1602 0.959 . S
H1665 C1603 0.960 . S
H1666 C1603 0.960 . S
H1667 C1603 0.960 . S
H1668 C1639 0.980 . S
H1669 C1605 0.930 . S
H1670 C1609 0.930 . S
H1671 C1610 0.961 . S
H1672 C1610 0.960 . S
H1673 C1610 0.958 . S
H1674 C1611 0.961 . S
H1675 C1611 0.960 . S
H1676 C1611 0.960 . S
H1677 C1613 0.980 . S
H1678 C1612 0.961 . S
H1679 C1612 0.961 . S
H1680 C1612 0.959 . S
H1681 C1615 0.932 . S
H1682 C1619 0.929 . S
H1683 C1620 0.961 . S
H1684 C1620 0.959 . S
H1685 C1620 0.959 . S
H1686 C1621 0.960 . S
H1687 C1621 0.962 . S
H1688 C1621 0.961 . S
H1689 C1623 0.929 . S
H1690 C1626 0.930 . S
H1691 C1627 0.929 . S
H1692 C1630 0.930 . S
H1693 C1633 0.929 . S
H1694 C1634 0.930 . S
H1695 C1638 0.962 . S
H1696 C1638 0.959 . S
H1697 C1638 0.958 . S
C1698 C1699 1.560 . S
C1698 H1759 0.959 . S
C1698 H1760 0.959 . S
C1698 H1761 0.960 . S
C1699 C1698 1.560 . S
C1699 O1754 1.426 . S
C1699 H1758 0.980 . S
C1700 C1701 1.407 . S
C1700 C1705 1.418 . S
C1700 O1754 1.334 . S
C1701 C1700 1.407 . S
C1701 C1702 1.360 . S
C1701 H1762 0.929 . S
C1702 C1701 1.360 . S
C1702 C1703 1.401 . S
C1702 C1706 1.527 . S
C1703 C1702 1.401 . S
C1703 C1704 1.405 . S
C1703 C1736 1.587 . S
C1704 C1703 1.405 . S
C1704 C1705 1.332 . S
C1704 C1707 1.496 . S
C1705 C1700 1.418 . S
C1705 C1704 1.332 . S
C1705 H1763 0.929 . S
C1706 C1702 1.527 . S
C1706 H1764 0.959 . S
C1706 H1765 0.961 . S
C1706 H1766 0.961 . S
C1707 C1704 1.496 . S
C1707 H1767 0.960 . S
C1707 H1768 0.960 . S
C1707 H1769 0.961 . S
C1708 C1709 1.517 . S
C1708 H1771 0.961 . S
C1708 H1772 0.960 . S
C1708 H1773 0.959 . S
C1709 C1708 1.517 . S
C1709 O1757 1.468 . S
C1709 H1770 0.980 . S
C1710 C1711 1.349 . S
C1710 C1715 1.367 . S
C1710 O1757 1.408 . S
C1711 C1710 1.349 . S
C1711 C1712 1.407 . S
C1711 H1774 0.930 . S
C1712 C1711 1.407 . S
C1712 C1713 1.449 . S
C1712 C1716 1.535 . S
C1713 C1712 1.449 . S
C1713 C1714 1.384 . S
C1713 C1738 1.553 . S
C1714 C1713 1.384 . S
C1714 C1715 1.364 . S
C1714 C1717 1.450 . S
C1715 C1710 1.367 . S
C1715 C1714 1.364 . S
C1715 H1775 0.931 . S
C1716 C1712 1.535 . S
C1716 H1776 0.959 . S
C1716 H1777 0.961 . S
C1716 H1778 0.959 . S
C1717 C1714 1.450 . S
C1717 H1779 0.960 . S
C1717 H1780 0.960 . S
C1717 H1781 0.960 . S
C1718 C1719 1.309 . S
C1718 C1723 1.304 . S
C1718 O1756 1.435 . S
C1719 C1718 1.309 . S
C1719 C1720 1.476 . S
C1719 H1783 0.930 . S
C1720 C1719 1.476 . S
C1720 C1721 1.400 . S
C1720 C1724 1.567 . S
C1721 C1720 1.400 . S
C1721 C1722 1.373 . S
C1721 C1743 1.432 . S
C1722 C1721 1.373 . S
C1722 C1723 1.339 . S
C1722 C1725 1.530 . S
C1723 C1718 1.304 . S
C1723 C1722 1.339 . S
C1723 H1784 0.930 . S
C1724 C1720 1.567 . S
C1724 H1785 0.961 . S
C1724 H1786 0.960 . S
C1724 H1787 0.958 . S
C1725 C1722 1.530 . S
C1725 H1788 0.961 . S
C1725 H1789 0.960 . S
C1725 H1790 0.960 . S
C1726 C1727 1.530 . S
C1726 H1792 0.961 . S
C1726 H1793 0.961 . S
C1726 H1794 0.959 . S
C1727 C1726 1.530 . S
C1727 O1755 1.412 . S
C1727 H1791 0.980 . S
C1728 C1729 1.288 . S
C1728 C1733 1.377 . S
C1728 O1755 1.393 . S
C1729 C1728 1.288 . S
C1729 C1730 1.369 . S
C1729 H1795 0.932 . S
C1730 C1729 1.369 . S
C1730 C1731 1.398 . S
C1730 C1734 1.527 . S
C1731 C1730 1.398 . S
C1731 C1732 1.380 . S
C1731 C1745 1.497 . S
C1732 C1731 1.380 . S
C1732 C1733 1.383 . S
C1732 C1735 1.603 . S
C1733 C1728 1.377 . S
C1733 C1732 1.383 . S
C1733 H1796 0.929 . S
C1734 C1730 1.527 . S
C1734 H1797 0.961 . S
C1734 H1798 0.959 . S
C1734 H1799 0.959 . S
C1735 C1732 1.603 . S
C1735 H1800 0.960 . S
C1735 H1801 0.962 . S
C1735 H1802 0.961 . S
C1736 C1703 1.587 . S
C1736 C1737 1.360 . S
C1736 C1749 1.412 . S
C1737 C1736 1.360 . S
C1737 C1738 1.365 . S
C1737 H1803 0.929 . S
C1738 C1713 1.553 . S
C1738 C1737 1.365 . S
C1738 C1739 1.404 . S
C1739 C1738 1.404 . S
C1739 C1740 1.395 . S
C1739 C1750 1.451 . S
C1740 C1739 1.395 . S
C1740 C1741 1.322 . S
C1740 H1804 0.930 . S
C1741 C1740 1.322 . S
C1741 C1742 1.459 . S
C1741 H1805 0.929 . S
C1742 C1741 1.459 . S
C1742 C1743 1.445 . S
C1742 C1751 1.395 . S
C1743 C1721 1.432 . S
C1743 C1742 1.445 . S
C1743 C1744 1.370 . S
C1744 C1743 1.370 . S
C1744 C1745 1.438 . S
C1744 H1806 0.930 . S
C1745 C1731 1.497 . S
C1745 C1744 1.438 . S
C1745 C1746 1.360 . S
C1746 C1745 1.360 . S
C1746 C1747 1.401 . S
C1746 C1751 1.446 . S
C1747 C1746 1.401 . S
C1747 C1748 1.347 . S
C1747 H1807 0.929 . S
C1748 C1747 1.347 . S
C1748 C1749 1.455 . S
C1748 H1808 0.930 . S
C1749 C1736 1.412 . S
C1749 C1748 1.455 . S
C1749 C1750 1.331 . S
C1750 C1739 1.451 . S
C1750 C1749 1.331 . S
C1750 C1751 1.497 . S
C1751 C1742 1.395 . S
C1751 C1746 1.446 . S
C1751 C1750 1.497 . S
C1752 C1753 1.582 . S
C1752 H1809 0.962 . S
C1752 H1810 0.959 . S
C1752 H1811 0.958 . S
C1753 C1752 1.582 . S
C1753 O1756 1.458 . S
C1753 H1782 0.980 . S
O1754 C1699 1.426 . S
O1754 C1700 1.334 . S
O1755 C1727 1.412 . S
O1755 C1728 1.393 . S
O1756 C1718 1.435 . S
O1756 C1753 1.458 . S
O1757 C1709 1.468 . S
O1757 C1710 1.408 . S
H1758 C1699 0.980 . S
H1759 C1698 0.959 . S
H1760 C1698 0.959 . S
H1761 C1698 0.960 . S
H1762 C1701 0.929 . S
H1763 C1705 0.929 . S
H1764 C1706 0.959 . S
H1765 C1706 0.961 . S
H1766 C1706 0.961 . S
H1767 C1707 0.960 . S
H1768 C1707 0.960 . S
H1769 C1707 0.961 . S
H1770 C1709 0.980 . S
H1771 C1708 0.961 . S
H1772 C1708 0.960 . S
H1773 C1708 0.959 . S
H1774 C1711 0.930 . S
H1775 C1715 0.931 . S
H1776 C1716 0.959 . S
H1777 C1716 0.961 . S
H1778 C1716 0.959 . S
H1779 C1717 0.960 . S
H1780 C1717 0.960 . S
H1781 C1717 0.960 . S
H1782 C1753 0.980 . S
H1783 C1719 0.930 . S
H1784 C1723 0.930 . S
H1785 C1724 0.961 . S
H1786 C1724 0.960 . S
H1787 C1724 0.958 . S
H1788 C1725 0.961 . S
H1789 C1725 0.960 . S
H1790 C1725 0.960 . S
H1791 C1727 0.980 . S
H1792 C1726 0.961 . S
H1793 C1726 0.961 . S
H1794 C1726 0.959 . S
H1795 C1729 0.932 . S
H1796 C1733 0.929 . S
H1797 C1734 0.961 . S
H1798 C1734 0.959 . S
H1799 C1734 0.959 . S
H1800 C1735 0.960 . S
H1801 C1735 0.962 . S
H1802 C1735 0.961 . S
H1803 C1737 0.929 . S
H1804 C1740 0.930 . S
H1805 C1741 0.929 . S
H1806 C1744 0.930 . S
H1807 C1747 0.929 . S
H1808 C1748 0.930 . S
H1809 C1752 0.962 . S
H1810 C1752 0.959 . S
H1811 C1752 0.958 . S
C1812 C1813 1.560 . S
C1812 H1873 0.959 . S
C1812 H1874 0.959 . S
C1812 H1875 0.960 . S
C1813 C1812 1.560 . S
C1813 O1868 1.426 . S
C1813 H1872 0.980 . S
C1814 C1815 1.407 . S
C1814 C1819 1.418 . S
C1814 O1868 1.334 . S
C1815 C1814 1.407 . S
C1815 C1816 1.360 . S
C1815 H1876 0.929 . S
C1816 C1815 1.360 . S
C1816 C1817 1.401 . S
C1816 C1820 1.527 . S
C1817 C1816 1.401 . S
C1817 C1818 1.405 . S
C1817 C1850 1.587 . S
C1818 C1817 1.405 . S
C1818 C1819 1.332 . S
C1818 C1821 1.496 . S
C1819 C1814 1.418 . S
C1819 C1818 1.332 . S
C1819 H1877 0.929 . S
C1820 C1816 1.527 . S
C1820 H1878 0.959 . S
C1820 H1879 0.961 . S
C1820 H1880 0.961 . S
C1821 C1818 1.496 . S
C1821 H1881 0.960 . S
C1821 H1882 0.960 . S
C1821 H1883 0.961 . S
C1822 C1823 1.517 . S
C1822 H1885 0.961 . S
C1822 H1886 0.960 . S
C1822 H1887 0.959 . S
C1823 C1822 1.517 . S
C1823 O1871 1.468 . S
C1823 H1884 0.980 . S
C1824 C1825 1.349 . S
C1824 C1829 1.367 . S
C1824 O1871 1.408 . S
C1825 C1824 1.349 . S
C1825 C1826 1.407 . S
C1825 H1888 0.930 . S
C1826 C1825 1.407 . S
C1826 C1827 1.449 . S
C1826 C1830 1.535 . S
C1827 C1826 1.449 . S
C1827 C1828 1.384 . S
C1827 C1852 1.553 . S
C1828 C1827 1.384 . S
C1828 C1829 1.364 . S
C1828 C1831 1.450 . S
C1829 C1824 1.367 . S
C1829 C1828 1.364 . S
C1829 H1889 0.931 . S
C1830 C1826 1.535 . S
C1830 H1890 0.959 . S
C1830 H1891 0.961 . S
C1830 H1892 0.959 . S
C1831 C1828 1.450 . S
C1831 H1893 0.960 . S
C1831 H1894 0.960 . S
C1831 H1895 0.960 . S
C1832 C1833 1.309 . S
C1832 C1837 1.304 . S
C1832 O1870 1.435 . S
C1833 C1832 1.309 . S
C1833 C1834 1.476 . S
C1833 H1897 0.930 . S
C1834 C1833 1.476 . S
C1834 C1835 1.400 . S
C1834 C1838 1.567 . S
C1835 C1834 1.400 . S
C1835 C1836 1.373 . S
C1835 C1857 1.432 . S
C1836 C1835 1.373 . S
C1836 C1837 1.339 . S
C1836 C1839 1.530 . S
C1837 C1832 1.304 . S
C1837 C1836 1.339 . S
C1837 H1898 0.930 . S
C1838 C1834 1.567 . S
C1838 H1899 0.961 . S
C1838 H1900 0.960 . S
C1838 H1901 0.958 . S
C1839 C1836 1.530 . S
C1839 H1902 0.961 . S
C1839 H1903 0.960 . S
C1839 H1904 0.960 . S
C1840 C1841 1.530 . S
C1840 H1906 0.961 . S
C1840 H1907 0.961 . S
C1840 H1908 0.959 . S
C1841 C1840 1.530 . S
C1841 O1869 1.412 . S
C1841 H1905 0.980 . S
C1842 C1843 1.288 . S
C1842 C1847 1.377 . S
C1842 O1869 1.393 . S
C1843 C1842 1.288 . S
C1843 C1844 1.369 . S
C1843 H1909 0.932 . S
C1844 C1843 1.369 . S
C1844 C1845 1.398 . S
C1844 C1848 1.527 . S
C1845 C1844 1.398 . S
C1845 C1846 1.380 . S
C1845 C1859 1.497 . S
C1846 C1845 1.380 . S
C1846 C1847 1.383 . S
C1846 C1849 1.603 . S
C1847 C1842 1.377 . S
C1847 C1846 1.383 . S
C1847 H1910 0.929 . S
C1848 C1844 1.527 . S
C1848 H1911 0.961 . S
C1848 H1912 0.959 . S
C1848 H1913 0.959 . S
C1849 C1846 1.603 . S
C1849 H1914 0.960 . S
C1849 H1915 0.962 . S
C1849 H1916 0.961 . S
C1850 C1817 1.587 . S
C1850 C1851 1.360 . S
C1850 C1863 1.412 . S
C1851 C1850 1.360 . S
C1851 C1852 1.365 . S
C1851 H1917 0.929 . S
C1852 C1827 1.553 . S
C1852 C1851 1.365 . S
C1852 C1853 1.404 . S
C1853 C1852 1.404 . S
C1853 C1854 1.395 . S
C1853 C1864 1.451 . S
C1854 C1853 1.395 . S
C1854 C1855 1.322 . S
C1854 H1918 0.930 . S
C1855 C1854 1.322 . S
C1855 C1856 1.459 . S
C1855 H1919 0.929 . S
C1856 C1855 1.459 . S
C1856 C1857 1.445 . S
C1856 C1865 1.395 . S
C1857 C1835 1.432 . S
C1857 C1856 1.445 . S
C1857 C1858 1.370 . S
C1858 C1857 1.370 . S
C1858 C1859 1.438 . S
C1858 H1920 0.930 . S
C1859 C1845 1.497 . S
C1859 C1858 1.438 . S
C1859 C1860 1.360 . S
C1860 C1859 1.360 . S
C1860 C1861 1.401 . S
C1860 C1865 1.446 . S
C1861 C1860 1.401 . S
C1861 C1862 1.347 . S
C1861 H1921 0.929 . S
C1862 C1861 1.347 . S
C1862 C1863 1.455 . S
C1862 H1922 0.930 . S
C1863 C1850 1.412 . S
C1863 C1862 1.455 . S
C1863 C1864 1.331 . S
C1864 C1853 1.451 . S
C1864 C1863 1.331 . S
C1864 C1865 1.497 . S
C1865 C1856 1.395 . S
C1865 C1860 1.446 . S
C1865 C1864 1.497 . S
C1866 C1867 1.582 . S
C1866 H1923 0.962 . S
C1866 H1924 0.959 . S
C1866 H1925 0.958 . S
C1867 C1866 1.582 . S
C1867 O1870 1.458 . S
C1867 H1896 0.980 . S
O1868 C1813 1.426 . S
O1868 C1814 1.334 . S
O1869 C1841 1.412 . S
O1869 C1842 1.393 . S
O1870 C1832 1.435 . S
O1870 C1867 1.458 . S
O1871 C1823 1.468 . S
O1871 C1824 1.408 . S
H1872 C1813 0.980 . S
H1873 C1812 0.959 . S
H1874 C1812 0.959 . S
H1875 C1812 0.960 . S
H1876 C1815 0.929 . S
H1877 C1819 0.929 . S
H1878 C1820 0.959 . S
H1879 C1820 0.961 . S
H1880 C1820 0.961 . S
H1881 C1821 0.960 . S
H1882 C1821 0.960 . S
H1883 C1821 0.961 . S
H1884 C1823 0.980 . S
H1885 C1822 0.961 . S
H1886 C1822 0.960 . S
H1887 C1822 0.959 . S
H1888 C1825 0.930 . S
H1889 C1829 0.931 . S
H1890 C1830 0.959 . S
H1891 C1830 0.961 . S
H1892 C1830 0.959 . S
H1893 C1831 0.960 . S
H1894 C1831 0.960 . S
H1895 C1831 0.960 . S
H1896 C1867 0.980 . S
H1897 C1833 0.930 . S
H1898 C1837 0.930 . S
H1899 C1838 0.961 . S
H1900 C1838 0.960 . S
H1901 C1838 0.958 . S
H1902 C1839 0.961 . S
H1903 C1839 0.960 . S
H1904 C1839 0.960 . S
H1905 C1841 0.980 . S
H1906 C1840 0.961 . S
H1907 C1840 0.961 . S
H1908 C1840 0.959 . S
H1909 C1843 0.932 . S
H1910 C1847 0.929 . S
H1911 C1848 0.961 . S
H1912 C1848 0.959 . S
H1913 C1848 0.959 . S
H1914 C1849 0.960 . S
H1915 C1849 0.962 . S
H1916 C1849 0.961 . S
H1917 C1851 0.929 . S
H1918 C1854 0.930 . S
H1919 C1855 0.929 . S
H1920 C1858 0.930 . S
H1921 C1861 0.929 . S
H1922 C1862 0.930 . S
H1923 C1866 0.962 . S
H1924 C1866 0.959 . S
H1925 C1866 0.958 . S
C1926 C1927 1.560 . S
C1926 H1987 0.959 . S
C1926 H1988 0.959 . S
C1926 H1989 0.960 . S
C1927 C1926 1.560 . S
C1927 O1982 1.426 . S
C1927 H1986 0.980 . S
C1928 C1929 1.407 . S
C1928 C1933 1.418 . S
C1928 O1982 1.334 . S
C1929 C1928 1.407 . S
C1929 C1930 1.360 . S
C1929 H1990 0.929 . S
C1930 C1929 1.360 . S
C1930 C1931 1.401 . S
C1930 C1934 1.527 . S
C1931 C1930 1.401 . S
C1931 C1932 1.405 . S
C1931 C1964 1.587 . S
C1932 C1931 1.405 . S
C1932 C1933 1.332 . S
C1932 C1935 1.496 . S
C1933 C1928 1.418 . S
C1933 C1932 1.332 . S
C1933 H1991 0.929 . S
C1934 C1930 1.527 . S
C1934 H1992 0.959 . S
C1934 H1993 0.961 . S
C1934 H1994 0.961 . S
C1935 C1932 1.496 . S
C1935 H1995 0.960 . S
C1935 H1996 0.960 . S
C1935 H1997 0.961 . S
C1936 C1937 1.517 . S
C1936 H1999 0.961 . S
C1936 H2000 0.960 . S
C1936 H2001 0.959 . S
C1937 C1936 1.517 . S
C1937 O1985 1.468 . S
C1937 H1998 0.980 . S
C1938 C1939 1.349 . S
C1938 C1943 1.367 . S
C1938 O1985 1.408 . S
C1939 C1938 1.349 . S
C1939 C1940 1.407 . S
C1939 H2002 0.930 . S
C1940 C1939 1.407 . S
C1940 C1941 1.449 . S
C1940 C1944 1.535 . S
C1941 C1940 1.449 . S
C1941 C1942 1.384 . S
C1941 C1966 1.553 . S
C1942 C1941 1.384 . S
C1942 C1943 1.364 . S
C1942 C1945 1.450 . S
C1943 C1938 1.367 . S
C1943 C1942 1.364 . S
C1943 H2003 0.931 . S
C1944 C1940 1.535 . S
C1944 H2004 0.959 . S
C1944 H2005 0.961 . S
C1944 H2006 0.959 . S
C1945 C1942 1.450 . S
C1945 H2007 0.960 . S
C1945 H2008 0.960 . S
C1945 H2009 0.960 . S
C1946 C1947 1.309 . S
C1946 C1951 1.304 . S
C1946 O1984 1.435 . S
C1947 C1946 1.309 . S
C1947 C1948 1.476 . S
C1947 H2011 0.930 . S
C1948 C1947 1.476 . S
C1948 C1949 1.400 . S
C1948 C1952 1.567 . S
C1949 C1948 1.400 . S
C1949 C1950 1.373 . S
C1949 C1971 1.432 . S
C1950 C1949 1.373 . S
C1950 C1951 1.339 . S
C1950 C1953 1.530 . S
C1951 C1946 1.304 . S
C1951 C1950 1.339 . S
C1951 H2012 0.930 . S
C1952 C1948 1.567 . S
C1952 H2013 0.961 . S
C1952 H2014 0.960 . S
C1952 H2015 0.958 . S
C1953 C1950 1.530 . S
C1953 H2016 0.961 . S
C1953 H2017 0.960 . S
C1953 H2018 0.960 . S
C1954 C1955 1.530 . S
C1954 H2020 0.961 . S
C1954 H2021 0.961 . S
C1954 H2022 0.959 . S
C1955 C1954 1.530 . S
C1955 O1983 1.412 . S
C1955 H2019 0.980 . S
C1956 C1957 1.288 . S
C1956 C1961 1.377 . S
C1956 O1983 1.393 . S
C1957 C1956 1.288 . S
C1957 C1958 1.369 . S
C1957 H2023 0.932 . S
C1958 C1957 1.369 . S
C1958 C1959 1.398 . S
C1958 C1962 1.527 . S
C1959 C1958 1.398 . S
C1959 C1960 1.380 . S
C1959 C1973 1.497 . S
C1960 C1959 1.380 . S
C1960 C1961 1.383 . S
C1960 C1963 1.603 . S
C1961 C1956 1.377 . S
C1961 C1960 1.383 . S
C1961 H2024 0.929 . S
C1962 C1958 1.527 . S
C1962 H2025 0.961 . S
C1962 H2026 0.959 . S
C1962 H2027 0.959 . S
C1963 C1960 1.603 . S
C1963 H2028 0.960 . S
C1963 H2029 0.962 . S
C1963 H2030 0.961 . S
C1964 C1931 1.587 . S
C1964 C1965 1.360 . S
C1964 C1977 1.412 . S
C1965 C1964 1.360 . S
C1965 C1966 1.365 . S
C1965 H2031 0.929 . S
C1966 C1941 1.553 . S
C1966 C1965 1.365 . S
C1966 C1967 1.404 . S
C1967 C1966 1.404 . S
C1967 C1968 1.395 . S
C1967 C1978 1.451 . S
C1968 C1967 1.395 . S
C1968 C1969 1.322 . S
C1968 H2032 0.930 . S
C1969 C1968 1.322 . S
C1969 C1970 1.459 . S
C1969 H2033 0.929 . S
C1970 C1969 1.459 . S
C1970 C1971 1.445 . S
C1970 C1979 1.395 . S
C1971 C1949 1.432 . S
C1971 C1970 1.445 . S
C1971 C1972 1.370 . S
C1972 C1971 1.370 . S
C1972 C1973 1.438 . S
C1972 H2034 0.930 . S
C1973 C1959 1.497 . S
C1973 C1972 1.438 . S
C1973 C1974 1.360 . S
C1974 C1973 1.360 . S
C1974 C1975 1.401 . S
C1974 C1979 1.446 . S
C1975 C1974 1.401 . S
C1975 C1976 1.347 . S
C1975 H2035 0.929 . S
C1976 C1975 1.347 . S
C1976 C1977 1.455 . S
C1976 H2036 0.930 . S
C1977 C1964 1.412 . S
C1977 C1976 1.455 . S
C1977 C1978 1.331 . S
C1978 C1967 1.451 . S
C1978 C1977 1.331 . S
C1978 C1979 1.497 . S
C1979 C1970 1.395 . S
C1979 C1974 1.446 . S
C1979 C1978 1.497 . S
C1980 C1981 1.582 . S
C1980 H2037 0.962 . S
C1980 H2038 0.959 . S
C1980 H2039 0.958 . S
C1981 C1980 1.582 . S
C1981 O1984 1.458 . S
C1981 H2010 0.980 . S
O1982 C1927 1.426 . S
O1982 C1928 1.334 . S
O1983 C1955 1.412 . S
O1983 C1956 1.393 . S
O1984 C1946 1.435 . S
O1984 C1981 1.458 . S
O1985 C1937 1.468 . S
O1985 C1938 1.408 . S
H1986 C1927 0.980 . S
H1987 C1926 0.959 . S
H1988 C1926 0.959 . S
H1989 C1926 0.960 . S
H1990 C1929 0.929 . S
H1991 C1933 0.929 . S
H1992 C1934 0.959 . S
H1993 C1934 0.961 . S
H1994 C1934 0.961 . S
H1995 C1935 0.960 . S
H1996 C1935 0.960 . S
H1997 C1935 0.961 . S
H1998 C1937 0.980 . S
H1999 C1936 0.961 . S
H2000 C1936 0.960 . S
H2001 C1936 0.959 . S
H2002 C1939 0.930 . S
H2003 C1943 0.931 . S
H2004 C1944 0.959 . S
H2005 C1944 0.961 . S
H2006 C1944 0.959 . S
H2007 C1945 0.960 . S
H2008 C1945 0.960 . S
H2009 C1945 0.960 . S
H2010 C1981 0.980 . S
H2011 C1947 0.930 . S
H2012 C1951 0.930 . S
H2013 C1952 0.961 . S
H2014 C1952 0.960 . S
H2015 C1952 0.958 . S
H2016 C1953 0.961 . S
H2017 C1953 0.960 . S
H2018 C1953 0.960 . S
H2019 C1955 0.980 . S
H2020 C1954 0.961 . S
H2021 C1954 0.961 . S
H2022 C1954 0.959 . S
H2023 C1957 0.932 . S
H2024 C1961 0.929 . S
H2025 C1962 0.961 . S
H2026 C1962 0.959 . S
H2027 C1962 0.959 . S
H2028 C1963 0.960 . S
H2029 C1963 0.962 . S
H2030 C1963 0.961 . S
H2031 C1965 0.929 . S
H2032 C1968 0.930 . S
H2033 C1969 0.929 . S
H2034 C1972 0.930 . S
H2035 C1975 0.929 . S
H2036 C1976 0.930 . S
H2037 C1980 0.962 . S
H2038 C1980 0.959 . S
H2039 C1980 0.958 . S
C2040 C2041 1.560 . S
C2040 H2101 0.959 . S
C2040 H2102 0.959 . S
C2040 H2103 0.960 . S
C2041 C2040 1.560 . S
C2041 O2096 1.426 . S
C2041 H2100 0.980 . S
C2042 C2043 1.407 . S
C2042 C2047 1.418 . S
C2042 O2096 1.334 . S
C2043 C2042 1.407 . S
C2043 C2044 1.360 . S
C2043 H2104 0.929 . S
C2044 C2043 1.360 . S
C2044 C2045 1.401 . S
C2044 C2048 1.527 . S
C2045 C2044 1.401 . S
C2045 C2046 1.405 . S
C2045 C2078 1.587 . S
C2046 C2045 1.405 . S
C2046 C2047 1.332 . S
C2046 C2049 1.496 . S
C2047 C2042 1.418 . S
C2047 C2046 1.332 . S
C2047 H2105 0.929 . S
C2048 C2044 1.527 . S
C2048 H2106 0.959 . S
C2048 H2107 0.961 . S
C2048 H2108 0.961 . S
C2049 C2046 1.496 . S
C2049 H2109 0.960 . S
C2049 H2110 0.960 . S
C2049 H2111 0.961 . S
C2050 C2051 1.517 . S
C2050 H2113 0.961 . S
C2050 H2114 0.960 . S
C2050 H2115 0.959 . S
C2051 C2050 1.517 . S
C2051 O2099 1.468 . S
C2051 H2112 0.980 . S
C2052 C2053 1.349 . S
C2052 C2057 1.367 . S
C2052 O2099 1.408 . S
C2053 C2052 1.349 . S
C2053 C2054 1.407 . S
C2053 H2116 0.930 . S
C2054 C2053 1.407 . S
C2054 C2055 1.449 . S
C2054 C2058 1.535 . S
C2055 C2054 1.449 . S
C2055 C2056 1.384 . S
C2055 C2080 1.553 . S
C2056 C2055 1.384 . S
C2056 C2057 1.364 . S
C2056 C2059 1.450 . S
C2057 C2052 1.367 . S
C2057 C2056 1.364 . S
C2057 H2117 0.931 . S
C2058 C2054 1.535 . S
C2058 H2118 0.959 . S
C2058 H2119 0.961 . S
C2058 H2120 0.959 . S
C2059 C2056 1.450 . S
C2059 H2121 0.960 . S
C2059 H2122 0.960 . S
C2059 H2123 0.960 . S
C2060 C2061 1.309 . S
C2060 C2065 1.304 . S
C2060 O2098 1.435 . S
C2061 C2060 1.309 . S
C2061 C2062 1.476 . S
C2061 H2125 0.930 . S
C2062 C2061 1.476 . S
C2062 C2063 1.400 . S
C2062 C2066 1.567 . S
C2063 C2062 1.400 . S
C2063 C2064 1.373 . S
C2063 C2085 1.432 . S
C2064 C2063 1.373 . S
C2064 C2065 1.339 . S
C2064 C2067 1.530 . S
C2065 C2060 1.304 . S
C2065 C2064 1.339 . S
C2065 H2126 0.930 . S
C2066 C2062 1.567 . S
C2066 H2127 0.961 . S
C2066 H2128 0.960 . S
C2066 H2129 0.958 . S
C2067 C2064 1.530 . S
C2067 H2130 0.961 . S
C2067 H2131 0.960 . S
C2067 H2132 0.960 . S
C2068 C2069 1.530 . S
C2068 H2134 0.961 . S
C2068 H2135 0.961 . S
C2068 H2136 0.959 . S
C2069 C2068 1.530 . S
C2069 O2097 1.412 . S
C2069 H2133 0.980 . S
C2070 C2071 1.288 . S
C2070 C2075 1.377 . S
C2070 O2097 1.393 . S
C2071 C2070 1.288 . S
C2071 C2072 1.369 . S
C2071 H2137 0.932 . S
C2072 C2071 1.369 . S
C2072 C2073 1.398 . S
C2072 C2076 1.527 . S
C2073 C2072 1.398 . S
C2073 C2074 1.380 . S
C2073 C2087 1.497 . S
C2074 C2073 1.380 . S
C2074 C2075 1.383 . S
C2074 C2077 1.603 . S
C2075 C2070 1.377 . S
C2075 C2074 1.383 . S
C2075 H2138 0.929 . S
C2076 C2072 1.527 . S
C2076 H2139 0.961 . S
C2076 H2140 0.959 . S
C2076 H2141 0.959 . S
C2077 C2074 1.603 . S
C2077 H2142 0.960 . S
C2077 H2143 0.962 . S
C2077 H2144 0.961 . S
C2078 C2045 1.587 . S
C2078 C2079 1.360 . S
C2078 C2091 1.412 . S
C2079 C2078 1.360 . S
C2079 C2080 1.365 . S
C2079 H2145 0.929 . S
C2080 C2055 1.553 . S
C2080 C2079 1.365 . S
C2080 C2081 1.404 . S
C2081 C2080 1.404 . S
C2081 C2082 1.395 . S
C2081 C2092 1.451 . S
C2082 C2081 1.395 . S
C2082 C2083 1.322 . S
C2082 H2146 0.930 . S
C2083 C2082 1.322 . S
C2083 C2084 1.459 . S
C2083 H2147 0.929 . S
C2084 C2083 1.459 . S
C2084 C2085 1.445 . S
C2084 C2093 1.395 . S
C2085 C2063 1.432 . S
C2085 C2084 1.445 . S
C2085 C2086 1.370 . S
C2086 C2085 1.370 . S
C2086 C2087 1.438 . S
C2086 H2148 0.930 . S
C2087 C2073 1.497 . S
C2087 C2086 1.438 . S
C2087 C2088 1.360 . S
C2088 C2087 1.360 . S
C2088 C2089 1.401 . S
C2088 C2093 1.446 . S
C2089 C2088 1.401 . S
C2089 C2090 1.347 . S
C2089 H2149 0.929 . S
C2090 C2089 1.347 . S
C2090 C2091 1.455 . S
C2090 H2150 0.930 . S
C2091 C2078 1.412 . S
C2091 C2090 1.455 . S
C2091 C2092 1.331 . S
C2092 C2081 1.451 . S
C2092 C2091 1.331 . S
C2092 C2093 1.497 . S
C2093 C2084 1.395 . S
C2093 C2088 1.446 . S
C2093 C2092 1.497 . S
C2094 C2095 1.582 . S
C2094 H2151 0.962 . S
C2094 H2152 0.959 . S
C2094 H2153 0.958 . S
C2095 C2094 1.582 . S
C2095 O2098 1.458 . S
C2095 H2124 0.980 . S
O2096 C2041 1.426 . S
O2096 C2042 1.334 . S
O2097 C2069 1.412 . S
O2097 C2070 1.393 . S
O2098 C2060 1.435 . S
O2098 C2095 1.458 . S
O2099 C2051 1.468 . S
O2099 C2052 1.408 . S
H2100 C2041 0.980 . S
H2101 C2040 0.959 . S
H2102 C2040 0.959 . S
H2103 C2040 0.960 . S
H2104 C2043 0.929 . S
H2105 C2047 0.929 . S
H2106 C2048 0.959 . S
H2107 C2048 0.961 . S
H2108 C2048 0.961 . S
H2109 C2049 0.960 . S
H2110 C2049 0.960 . S
H2111 C2049 0.961 . S
H2112 C2051 0.980 . S
H2113 C2050 0.961 . S
H2114 C2050 0.960 . S
H2115 C2050 0.959 . S
H2116 C2053 0.930 . S
H2117 C2057 0.931 . S
H2118 C2058 0.959 . S
H2119 C2058 0.961 . S
H2120 C2058 0.959 . S
H2121 C2059 0.960 . S
H2122 C2059 0.960 . S
H2123 C2059 0.960 . S
H2124 C2095 0.980 . S
H2125 C2061 0.930 . S
H2126 C2065 0.930 . S
H2127 C2066 0.961 . S
H2128 C2066 0.960 . S
H2129 C2066 0.958 . S
H2130 C2067 0.961 . S
H2131 C2067 0.960 . S
H2132 C2067 0.960 . S
H2133 C2069 0.980 . S
H2134 C2068 0.961 . S
H2135 C2068 0.961 . S
H2136 C2068 0.959 . S
H2137 C2071 0.932 . S
H2138 C2075 0.929 . S
H2139 C2076 0.961 . S
H2140 C2076 0.959 . S
H2141 C2076 0.959 . S
H2142 C2077 0.960 . S
H2143 C2077 0.962 . S
H2144 C2077 0.961 . S
H2145 C2079 0.929 . S
H2146 C2082 0.930 . S
H2147 C2083 0.929 . S
H2148 C2086 0.930 . S
H2149 C2089 0.929 . S
H2150 C2090 0.930 . S
H2151 C2094 0.962 . S
H2152 C2094 0.959 . S
H2153 C2094 0.958 . S
C2154 C2155 1.560 . S
C2154 H2215 0.959 . S
C2154 H2216 0.959 . S
C2154 H2217 0.960 . S
C2155 C2154 1.560 . S
C2155 O2210 1.426 . S
C2155 H2214 0.980 . S
C2156 C2157 1.407 . S
C2156 C2161 1.418 . S
C2156 O2210 1.334 . S
C2157 C2156 1.407 . S
C2157 C2158 1.360 . S
C2157 H2218 0.929 . S
C2158 C2157 1.360 . S
C2158 C2159 1.401 . S
C2158 C2162 1.527 . S
C2159 C2158 1.401 . S
C2159 C2160 1.405 . S
C2159 C2192 1.587 . S
C2160 C2159 1.405 . S
C2160 C2161 1.332 . S
C2160 C2163 1.496 . S
C2161 C2156 1.418 . S
C2161 C2160 1.332 . S
C2161 H2219 0.929 . S
C2162 C2158 1.527 . S
C2162 H2220 0.959 . S
C2162 H2221 0.961 . S
C2162 H2222 0.961 . S
C2163 C2160 1.496 . S
C2163 H2223 0.960 . S
C2163 H2224 0.960 . S
C2163 H2225 0.961 . S
C2164 C2165 1.517 . S
C2164 H2227 0.961 . S
C2164 H2228 0.960 . S
C2164 H2229 0.959 . S
C2165 C2164 1.517 . S
C2165 O2213 1.468 . S
C2165 H2226 0.980 . S
C2166 C2167 1.349 . S
C2166 C2171 1.367 . S
C2166 O2213 1.408 . S
C2167 C2166 1.349 . S
C2167 C2168 1.407 . S
C2167 H2230 0.930 . S
C2168 C2167 1.407 . S
C2168 C2169 1.449 . S
C2168 C2172 1.535 . S
C2169 C2168 1.449 . S
C2169 C2170 1.384 . S
C2169 C2194 1.553 . S
C2170 C2169 1.384 . S
C2170 C2171 1.364 . S
C2170 C2173 1.450 . S
C2171 C2166 1.367 . S
C2171 C2170 1.364 . S
C2171 H2231 0.931 . S
C2172 C2168 1.535 . S
C2172 H2232 0.959 . S
C2172 H2233 0.961 . S
C2172 H2234 0.959 . S
C2173 C2170 1.450 . S
C2173 H2235 0.960 . S
C2173 H2236 0.960 . S
C2173 H2237 0.960 . S
C2174 C2175 1.309 . S
C2174 C2179 1.304 . S
C2174 O2212 1.435 . S
C2175 C2174 1.309 . S
C2175 C2176 1.476 . S
C2175 H2239 0.930 . S
C2176 C2175 1.476 . S
C2176 C2177 1.400 . S
C2176 C2180 1.567 . S
C2177 C2176 1.400 . S
C2177 C2178 1.373 . S
C2177 C2199 1.432 . S
C2178 C2177 1.373 . S
C2178 C2179 1.339 . S
C2178 C2181 1.530 . S
C2179 C2174 1.304 . S
C2179 C2178 1.339 . S
C2179 H2240 0.930 . S
C2180 C2176 1.567 . S
C2180 H2241 0.961 . S
C2180 H2242 0.960 . S
C2180 H2243 0.958 . S
C2181 C2178 1.530 . S
C2181 H2244 0.961 . S
C2181 H2245 0.960 . S
C2181 H2246 0.960 . S
C2182 C2183 1.530 . S
C2182 H2248 0.961 . S
C2182 H2249 0.961 . S
C2182 H2250 0.959 . S
C2183 C2182 1.530 . S
C2183 O2211 1.412 . S
C2183 H2247 0.980 . S
C2184 C2185 1.288 . S
C2184 C2189 1.377 . S
C2184 O2211 1.393 . S
C2185 C2184 1.288 . S
C2185 C2186 1.369 . S
C2185 H2251 0.932 . S
C2186 C2185 1.369 . S
C2186 C2187 1.398 . S
C2186 C2190 1.527 . S
C2187 C2186 1.398 . S
C2187 C2188 1.380 . S
C2187 C2201 1.497 . S
C2188 C2187 1.380 . S
C2188 C2189 1.383 . S
C2188 C2191 1.603 . S
C2189 C2184 1.377 . S
C2189 C2188 1.383 . S
C2189 H2252 0.929 . S
C2190 C2186 1.527 . S
C2190 H2253 0.961 . S
C2190 H2254 0.959 . S
C2190 H2255 0.959 . S
C2191 C2188 1.603 . S
C2191 H2256 0.960 . S
C2191 H2257 0.962 . S
C2191 H2258 0.961 . S
C2192 C2159 1.587 . S
C2192 C2193 1.360 . S
C2192 C2205 1.412 . S
C2193 C2192 1.360 . S
C2193 C2194 1.365 . S
C2193 H2259 0.929 . S
C2194 C2169 1.553 . S
C2194 C2193 1.365 . S
C2194 C2195 1.404 . S
C2195 C2194 1.404 . S
C2195 C2196 1.395 . S
C2195 C2206 1.451 . S
C2196 C2195 1.395 . S
C2196 C2197 1.322 . S
C2196 H2260 0.930 . S
C2197 C2196 1.322 . S
C2197 C2198 1.459 . S
C2197 H2261 0.929 . S
C2198 C2197 1.459 . S
C2198 C2199 1.445 . S
C2198 C2207 1.395 . S
C2199 C2177 1.432 . S
C2199 C2198 1.445 . S
C2199 C2200 1.370 . S
C2200 C2199 1.370 . S
C2200 C2201 1.438 . S
C2200 H2262 0.930 . S
C2201 C2187 1.497 . S
C2201 C2200 1.438 . S
C2201 C2202 1.360 . S
C2202 C2201 1.360 . S
C2202 C2203 1.401 . S
C2202 C2207 1.446 . S
C2203 C2202 1.401 . S
C2203 C2204 1.347 . S
C2203 H2263 0.929 . S
C2204 C2203 1.347 . S
C2204 C2205 1.455 . S
C2204 H2264 0.930 . S
C2205 C2192 1.412 . S
C2205 C2204 1.455 . S
C2205 C2206 1.331 . S
C2206 C2195 1.451 . S
C2206 C2205 1.331 . S
C2206 C2207 1.497 . S
C2207 C2198 1.395 . S
C2207 C2202 1.446 . S
C2207 C2206 1.497 . S
C2208 C2209 1.582 . S
C2208 H2265 0.962 . S
C2208 H2266 0.959 . S
C2208 H2267 0.958 . S
C2209 C2208 1.582 . S
C2209 O2212 1.458 . S
C2209 H2238 0.980 . S
O2210 C2155 1.426 . S
O2210 C2156 1.334 . S
O2211 C2183 1.412 . S
O2211 C2184 1.393 . S
O2212 C2174 1.435 . S
O2212 C2209 1.458 . S
O2213 C2165 1.468 . S
O2213 C2166 1.408 . S
H2214 C2155 0.980 . S
H2215 C2154 0.959 . S
H2216 C2154 0.959 . S
H2217 C2154 0.960 . S
H2218 C2157 0.929 . S
H2219 C2161 0.929 . S
H2220 C2162 0.959 . S
H2221 C2162 0.961 . S
H2222 C2162 0.961 . S
H2223 C2163 0.960 . S
H2224 C2163 0.960 . S
H2225 C2163 0.961 . S
H2226 C2165 0.980 . S
H2227 C2164 0.961 . S
H2228 C2164 0.960 . S
H2229 C2164 0.959 . S
H2230 C2167 0.930 . S
H2231 C2171 0.931 . S
H2232 C2172 0.959 . S
H2233 C2172 0.961 . S
H2234 C2172 0.959 . S
H2235 C2173 0.960 . S
H2236 C2173 0.960 . S
H2237 C2173 0.960 . S
H2238 C2209 0.980 . S
H2239 C2175 0.930 . S
H2240 C2179 0.930 . S
H2241 C2180 0.961 . S
H2242 C2180 0.960 . S
H2243 C2180 0.958 . S
H2244 C2181 0.961 . S
H2245 C2181 0.960 . S
H2246 C2181 0.960 . S
H2247 C2183 0.980 . S
H2248 C2182 0.961 . S
H2249 C2182 0.961 . S
H2250 C2182 0.959 . S
H2251 C2185 0.932 . S
H2252 C2189 0.929 . S
H2253 C2190 0.961 . S
H2254 C2190 0.959 . S
H2255 C2190 0.959 . S
H2256 C2191 0.960 . S
H2257 C2191 0.962 . S
H2258 C2191 0.961 . S
H2259 C2193 0.929 . S
H2260 C2196 0.930 . S
H2261 C2197 0.929 . S
H2262 C2200 0.930 . S
H2263 C2203 0.929 . S
H2264 C2204 0.930 . S
H2265 C2208 0.962 . S
H2266 C2208 0.959 . S
H2267 C2208 0.958 . S
C2268 C2269 1.560 . S
C2268 H2329 0.959 . S
C2268 H2330 0.959 . S
C2268 H2331 0.960 . S
C2269 C2268 1.560 . S
C2269 O2324 1.426 . S
C2269 H2328 0.980 . S
C2270 C2271 1.407 . S
C2270 C2275 1.418 . S
C2270 O2324 1.334 . S
C2271 C2270 1.407 . S
C2271 C2272 1.360 . S
C2271 H2332 0.929 . S
C2272 C2271 1.360 . S
C2272 C2273 1.401 . S
C2272 C2276 1.527 . S
C2273 C2272 1.401 . S
C2273 C2274 1.405 . S
C2273 C2306 1.587 . S
C2274 C2273 1.405 . S
C2274 C2275 1.332 . S
C2274 C2277 1.496 . S
C2275 C2270 1.418 . S
C2275 C2274 1.332 . S
C2275 H2333 0.929 . S
C2276 C2272 1.527 . S
C2276 H2334 0.959 . S
C2276 H2335 0.961 . S
C2276 H2336 0.961 . S
C2277 C2274 1.496 . S
C2277 H2337 0.960 . S
C2277 H2338 0.960 . S
C2277 H2339 0.961 . S
C2278 C2279 1.517 . S
C2278 H2341 0.961 . S
C2278 H2342 0.960 . S
C2278 H2343 0.959 . S
C2279 C2278 1.517 . S
C2279 O2327 1.468 . S
C2279 H2340 0.980 . S
C2280 C2281 1.349 . S
C2280 C2285 1.367 . S
C2280 O2327 1.408 . S
C2281 C2280 1.349 . S
C2281 C2282 1.407 . S
C2281 H2344 0.930 . S
C2282 C2281 1.407 . S
C2282 C2283 1.449 . S
C2282 C2286 1.535 . S
C2283 C2282 1.449 . S
C2283 C2284 1.384 . S
C2283 C2308 1.553 . S
C2284 C2283 1.384 . S
C2284 C2285 1.364 . S
C2284 C2287 1.450 . S
C2285 C2280 1.367 . S
C2285 C2284 1.364 . S
C2285 H2345 0.931 . S
C2286 C2282 1.535 . S
C2286 H2346 0.959 . S
C2286 H2347 0.961 . S
C2286 H2348 0.959 . S
C2287 C2284 1.450 . S
C2287 H2349 0.960 . S
C2287 H2350 0.960 . S
C2287 H2351 0.960 . S
C2288 C2289 1.309 . S
C2288 C2293 1.304 . S
C2288 O2326 1.435 . S
C2289 C2288 1.309 . S
C2289 C2290 1.476 . S
C2289 H2353 0.930 . S
C2290 C2289 1.476 . S
C2290 C2291 1.400 . S
C2290 C2294 1.567 . S
C2291 C2290 1.400 . S
C2291 C2292 1.373 . S
C2291 C2313 1.432 . S
C2292 C2291 1.373 . S
C2292 C2293 1.339 . S
C2292 C2295 1.530 . S
C2293 C2288 1.304 . S
C2293 C2292 1.339 . S
C2293 H2354 0.930 . S
C2294 C2290 1.567 . S
C2294 H2355 0.961 . S
C2294 H2356 0.960 . S
C2294 H2357 0.958 . S
C2295 C2292 1.530 . S
C2295 H2358 0.961 . S
C2295 H2359 0.960 . S
C2295 H2360 0.960 . S
C2296 C2297 1.530 . S
C2296 H2362 0.961 . S
C2296 H2363 0.961 . S
C2296 H2364 0.959 . S
C2297 C2296 1.530 . S
C2297 O2325 1.412 . S
C2297 H2361 0.980 . S
C2298 C2299 1.288 . S
C2298 C2303 1.377 . S
C2298 O2325 1.393 . S
C2299 C2298 1.288 . S
C2299 C2300 1.369 . S
C2299 H2365 0.932 . S
C2300 C2299 1.369 . S
C2300 C2301 1.398 . S
C2300 C2304 1.527 . S
C2301 C2300 1.398 . S
C2301 C2302 1.380 . S
C2301 C2315 1.497 . S
C2302 C2301 1.380 . S
C2302 C2303 1.383 . S
C2302 C2305 1.603 . S
C2303 C2298 1.377 . S
C2303 C2302 1.383 . S
C2303 H2366 0.929 . S
C2304 C2300 1.527 . S
C2304 H2367 0.961 . S
C2304 H2368 0.959 . S
C2304 H2369 0.959 . S
C2305 C2302 1.603 . S
C2305 H2370 0.960 . S
C2305 H2371 0.962 . S
C2305 H2372 0.961 . S
C2306 C2273 1.587 . S
C2306 C2307 1.360 . S
C2306 C2319 1.412 . S
C2307 C2306 1.360 . S
C2307 C2308 1.365 . S
C2307 H2373 0.929 . S
C2308 C2283 1.553 . S
C2308 C2307 1.365 . S
C2308 C2309 1.404 . S
C2309 C2308 1.404 . S
C2309 C2310 1.395 . S
C2309 C2320 1.451 . S
C2310 C2309 1.395 . S
C2310 C2311 1.322 . S
C2310 H2374 0.930 . S
C2311 C2310 1.322 . S
C2311 C2312 1.459 . S
C2311 H2375 0.929 . S
C2312 C2311 1.459 . S
C2312 C2313 1.445 . S
C2312 C2321 1.395 . S
C2313 C2291 1.432 . S
C2313 C2312 1.445 . S
C2313 C2314 1.370 . S
C2314 C2313 1.370 . S
C2314 C2315 1.438 . S
C2314 H2376 0.930 . S
C2315 C2301 1.497 . S
C2315 C2314 1.438 . S
C2315 C2316 1.360 . S
C2316 C2315 1.360 . S
C2316 C2317 1.401 . S
C2316 C2321 1.446 . S
C2317 C2316 1.401 . S
C2317 C2318 1.347 . S
C2317 H2377 0.929 . S
C2318 C2317 1.347 . S
C2318 C2319 1.455 . S
C2318 H2378 0.930 . S
C2319 C2306 1.412 . S
C2319 C2318 1.455 . S
C2319 C2320 1.331 . S
C2320 C2309 1.451 . S
C2320 C2319 1.331 . S
C2320 C2321 1.497 . S
C2321 C2312 1.395 . S
C2321 C2316 1.446 . S
C2321 C2320 1.497 . S
C2322 C2323 1.582 . S
C2322 H2379 0.962 . S
C2322 H2380 0.959 . S
C2322 H2381 0.958 . S
C2323 C2322 1.582 . S
C2323 O2326 1.458 . S
C2323 H2352 0.980 . S
O2324 C2269 1.426 . S
O2324 C2270 1.334 . S
O2325 C2297 1.412 . S
O2325 C2298 1.393 . S
O2326 C2288 1.435 . S
O2326 C2323 1.458 . S
O2327 C2279 1.468 . S
O2327 C2280 1.408 . S
H2328 C2269 0.980 . S
H2329 C2268 0.959 . S
H2330 C2268 0.959 . S
H2331 C2268 0.960 . S
H2332 C2271 0.929 . S
H2333 C2275 0.929 . S
H2334 C2276 0.959 . S
H2335 C2276 0.961 . S
H2336 C2276 0.961 . S
H2337 C2277 0.960 . S
H2338 C2277 0.960 . S
H2339 C2277 0.961 . S
H2340 C2279 0.980 . S
H2341 C2278 0.961 . S
H2342 C2278 0.960 . S
H2343 C2278 0.959 . S
H2344 C2281 0.930 . S
H2345 C2285 0.931 . S
H2346 C2286 0.959 . S
H2347 C2286 0.961 . S
H2348 C2286 0.959 . S
H2349 C2287 0.960 . S
H2350 C2287 0.960 . S
H2351 C2287 0.960 . S
H2352 C2323 0.980 . S
H2353 C2289 0.930 . S
H2354 C2293 0.930 . S
H2355 C2294 0.961 . S
H2356 C2294 0.960 . S
H2357 C2294 0.958 . S
H2358 C2295 0.961 . S
H2359 C2295 0.960 . S
H2360 C2295 0.960 . S
H2361 C2297 0.980 . S
H2362 C2296 0.961 . S
H2363 C2296 0.961 . S
H2364 C2296 0.959 . S
H2365 C2299 0.932 . S
H2366 C2303 0.929 . S
H2367 C2304 0.961 . S
H2368 C2304 0.959 . S
H2369 C2304 0.959 . S
H2370 C2305 0.960 . S
H2371 C2305 0.962 . S
H2372 C2305 0.961 . S
H2373 C2307 0.929 . S
H2374 C2310 0.930 . S
H2375 C2311 0.929 . S
H2376 C2314 0.930 . S
H2377 C2317 0.929 . S
H2378 C2318 0.930 . S
H2379 C2322 0.962 . S
H2380 C2322 0.959 . S
H2381 C2322 0.958 . S
C2382 C2383 1.560 . S
C2382 H2443 0.959 . S
C2382 H2444 0.959 . S
C2382 H2445 0.960 . S
C2383 C2382 1.560 . S
C2383 O2438 1.426 . S
C2383 H2442 0.980 . S
C2384 C2385 1.407 . S
C2384 C2389 1.418 . S
C2384 O2438 1.334 . S
C2385 C2384 1.407 . S
C2385 C2386 1.360 . S
C2385 H2446 0.929 . S
C2386 C2385 1.360 . S
C2386 C2387 1.401 . S
C2386 C2390 1.527 . S
C2387 C2386 1.401 . S
C2387 C2388 1.405 . S
C2387 C2420 1.587 . S
C2388 C2387 1.405 . S
C2388 C2389 1.332 . S
C2388 C2391 1.496 . S
C2389 C2384 1.418 . S
C2389 C2388 1.332 . S
C2389 H2447 0.929 . S
C2390 C2386 1.527 . S
C2390 H2448 0.959 . S
C2390 H2449 0.961 . S
C2390 H2450 0.961 . S
C2391 C2388 1.496 . S
C2391 H2451 0.960 . S
C2391 H2452 0.960 . S
C2391 H2453 0.961 . S
C2392 C2393 1.517 . S
C2392 H2455 0.961 . S
C2392 H2456 0.960 . S
C2392 H2457 0.959 . S
C2393 C2392 1.517 . S
C2393 O2441 1.468 . S
C2393 H2454 0.980 . S
C2394 C2395 1.349 . S
C2394 C2399 1.367 . S
C2394 O2441 1.408 . S
C2395 C2394 1.349 . S
C2395 C2396 1.407 . S
C2395 H2458 0.930 . S
C2396 C2395 1.407 . S
C2396 C2397 1.449 . S
C2396 C2400 1.535 . S
C2397 C2396 1.449 . S
C2397 C2398 1.384 . S
C2397 C2422 1.553 . S
C2398 C2397 1.384 . S
C2398 C2399 1.364 . S
C2398 C2401 1.450 . S
C2399 C2394 1.367 . S
C2399 C2398 1.364 . S
C2399 H2459 0.931 . S
C2400 C2396 1.535 . S
C2400 H2460 0.959 . S
C2400 H2461 0.961 . S
C2400 H2462 0.959 . S
C2401 C2398 1.450 . S
C2401 H2463 0.960 . S
C2401 H2464 0.960 . S
C2401 H2465 0.960 . S
C2402 C2403 1.309 . S
C2402 C2407 1.304 . S
C2402 O2440 1.435 . S
C2403 C2402 1.309 . S
C2403 C2404 1.476 . S
C2403 H2467 0.930 . S
C2404 C2403 1.476 . S
C2404 C2405 1.400 . S
C2404 C2408 1.567 . S
C2405 C2404 1.400 . S
C2405 C2406 1.373 . S
C2405 C2427 1.432 . S
C2406 C2405 1.373 . S
C2406 C2407 1.339 . S
C2406 C2409 1.530 . S
C2407 C2402 1.304 . S
C2407 C2406 1.339 . S
C2407 H2468 0.930 . S
C2408 C2404 1.567 . S
C2408 H2469 0.961 . S
C2408 H2470 0.960 . S
C2408 H2471 0.958 . S
C2409 C2406 1.530 . S
C2409 H2472 0.961 . S
C2409 H2473 0.960 . S
C2409 H2474 0.960 . S
C2410 C2411 1.530 . S
C2410 H2476 0.961 . S
C2410 H2477 0.961 . S
C2410 H2478 0.959 . S
C2411 C2410 1.530 . S
C2411 O2439 1.412 . S
C2411 H2475 0.980 . S
C2412 C2413 1.288 . S
C2412 C2417 1.377 . S
C2412 O2439 1.393 . S
C2413 C2412 1.288 . S
C2413 C2414 1.369 . S
C2413 H2479 0.932 . S
C2414 C2413 1.369 . S
C2414 C2415 1.398 . S
C2414 C2418 1.527 . S
C2415 C2414 1.398 . S
C2415 C2416 1.380 . S
C2415 C2429 1.497 . S
C2416 C2415 1.380 . S
C2416 C2417 1.383 . S
C2416 C2419 1.603 . S
C2417 C2412 1.377 . S
C2417 C2416 1.383 . S
C2417 H2480 0.929 . S
C2418 C2414 1.527 . S
C2418 H2481 0.961 . S
C2418 H2482 0.959 . S
C2418 H2483 0.959 . S
C2419 C2416 1.603 . S
C2419 H2484 0.960 . S
C2419 H2485 0.962 . S
C2419 H2486 0.961 . S
C2420 C2387 1.587 . S
C2420 C2421 1.360 . S
C2420 C2433 1.412 . S
C2421 C2420 1.360 . S
C2421 C2422 1.365 . S
C2421 H2487 0.929 . S
C2422 C2397 1.553 . S
C2422 C2421 1.365 . S
C2422 C2423 1.404 . S
C2423 C2422 1.404 . S
C2423 C2424 1.395 . S
C2423 C2434 1.451 . S
C2424 C2423 1.395 . S
C2424 C2425 1.322 . S
C2424 H2488 0.930 . S
C2425 C2424 1.322 . S
C2425 C2426 1.459 . S
C2425 H2489 0.929 . S
C2426 C2425 1.459 . S
C2426 C2427 1.445 . S
C2426 C2435 1.395 . S
C2427 C2405 1.432 . S
C2427 C2426 1.445 . S
C2427 C2428 1.370 . S
C2428 C2427 1.370 . S
C2428 C2429 1.438 . S
C2428 H2490 0.930 . S
C2429 C2415 1.497 . S
C2429 C2428 1.438 . S
C2429 C2430 1.360 . S
C2430 C2429 1.360 . S
C2430 C2431 1.401 . S
C2430 C2435 1.446 . S
C2431 C2430 1.401 . S
C2431 C2432 1.347 . S
C2431 H2491 0.929 . S
C2432 C2431 1.347 . S
C2432 C2433 1.455 . S
C2432 H2492 0.930 . S
C2433 C2420 1.412 . S
C2433 C2432 1.455 . S
C2433 C2434 1.331 . S
C2434 C2423 1.451 . S
C2434 C2433 1.331 . S
C2434 C2435 1.497 . S
C2435 C2426 1.395 . S
C2435 C2430 1.446 . S
C2435 C2434 1.497 . S
C2436 C2437 1.582 . S
C2436 H2493 0.962 . S
C2436 H2494 0.959 . S
C2436 H2495 0.958 . S
C2437 C2436 1.582 . S
C2437 O2440 1.458 . S
C2437 H2466 0.980 . S
O2438 C2383 1.426 . S
O2438 C2384 1.334 . S
O2439 C2411 1.412 . S
O2439 C2412 1.393 . S
O2440 C2402 1.435 . S
O2440 C2437 1.458 . S
O2441 C2393 1.468 . S
O2441 C2394 1.408 . S
H2442 C2383 0.980 . S
H2443 C2382 0.959 . S
H2444 C2382 0.959 . S
H2445 C2382 0.960 . S
H2446 C2385 0.929 . S
H2447 C2389 0.929 . S
H2448 C2390 0.959 . S
H2449 C2390 0.961 . S
H2450 C2390 0.961 . S
H2451 C2391 0.960 . S
H2452 C2391 0.960 . S
H2453 C2391 0.961 . S
H2454 C2393 0.980 . S
H2455 C2392 0.961 . S
H2456 C2392 0.960 . S
H2457 C2392 0.959 . S
H2458 C2395 0.930 . S
H2459 C2399 0.931 . S
H2460 C2400 0.959 . S
H2461 C2400 0.961 . S
H2462 C2400 0.959 . S
H2463 C2401 0.960 . S
H2464 C2401 0.960 . S
H2465 C2401 0.960 . S
H2466 C2437 0.980 . S
H2467 C2403 0.930 . S
H2468 C2407 0.930 . S
H2469 C2408 0.961 . S
H2470 C2408 0.960 . S
H2471 C2408 0.958 . S
H2472 C2409 0.961 . S
H2473 C2409 0.960 . S
H2474 C2409 0.960 . S
H2475 C2411 0.980 . S
H2476 C2410 0.961 . S
H2477 C2410 0.961 . S
H2478 C2410 0.959 . S
H2479 C2413 0.932 . S
H2480 C2417 0.929 . S
H2481 C2418 0.961 . S
H2482 C2418 0.959 . S
H2483 C2418 0.959 . S
H2484 C2419 0.960 . S
H2485 C2419 0.962 . S
H2486 C2419 0.961 . S
H2487 C2421 0.929 . S
H2488 C2424 0.930 . S
H2489 C2425 0.929 . S
H2490 C2428 0.930 . S
H2491 C2431 0.929 . S
H2492 C2432 0.930 . S
H2493 C2436 0.962 . S
H2494 C2436 0.959 . S
H2495 C2436 0.958 . S
C2496 C2497 1.560 . S
C2496 H2557 0.959 . S
C2496 H2558 0.959 . S
C2496 H2559 0.960 . S
C2497 C2496 1.560 . S
C2497 O2552 1.426 . S
C2497 H2556 0.980 . S
C2498 C2499 1.407 . S
C2498 C2503 1.418 . S
C2498 O2552 1.334 . S
C2499 C2498 1.407 . S
C2499 C2500 1.360 . S
C2499 H2560 0.929 . S
C2500 C2499 1.360 . S
C2500 C2501 1.401 . S
C2500 C2504 1.527 . S
C2501 C2500 1.401 . S
C2501 C2502 1.405 . S
C2501 C2534 1.587 . S
C2502 C2501 1.405 . S
C2502 C2503 1.332 . S
C2502 C2505 1.496 . S
C2503 C2498 1.418 . S
C2503 C2502 1.332 . S
C2503 H2561 0.929 . S
C2504 C2500 1.527 . S
C2504 H2562 0.959 . S
C2504 H2563 0.961 . S
C2504 H2564 0.961 . S
C2505 C2502 1.496 . S
C2505 H2565 0.960 . S
C2505 H2566 0.960 . S
C2505 H2567 0.961 . S
C2506 C2507 1.517 . S
C2506 H2569 0.961 . S
C2506 H2570 0.960 . S
C2506 H2571 0.959 . S
C2507 C2506 1.517 . S
C2507 O2555 1.468 . S
C2507 H2568 0.980 . S
C2508 C2509 1.349 . S
C2508 C2513 1.367 . S
C2508 O2555 1.408 . S
C2509 C2508 1.349 . S
C2509 C2510 1.407 . S
C2509 H2572 0.930 . S
C2510 C2509 1.407 . S
C2510 C2511 1.449 . S
C2510 C2514 1.535 . S
C2511 C2510 1.449 . S
C2511 C2512 1.384 . S
C2511 C2536 1.553 . S
C2512 C2511 1.384 . S
C2512 C2513 1.364 . S
C2512 C2515 1.450 . S
C2513 C2508 1.367 . S
C2513 C2512 1.364 . S
C2513 H2573 0.931 . S
C2514 C2510 1.535 . S
C2514 H2574 0.959 . S
C2514 H2575 0.961 . S
C2514 H2576 0.959 . S
C2515 C2512 1.450 . S
C2515 H2577 0.960 . S
C2515 H2578 0.960 . S
C2515 H2579 0.960 . S
C2516 C2517 1.309 . S
C2516 C2521 1.304 . S
C2516 O2554 1.435 . S
C2517 C2516 1.309 . S
C2517 C2518 1.476 . S
C2517 H2581 0.930 . S
C2518 C2517 1.476 . S
C2518 C2519 1.400 . S
C2518 C2522 1.567 . S
C2519 C2518 1.400 . S
C2519 C2520 1.373 . S
C2519 C2541 1.432 . S
C2520 C2519 1.373 . S
C2520 C2521 1.339 . S
C2520 C2523 1.530 . S
C2521 C2516 1.304 . S
C2521 C2520 1.339 . S
C2521 H2582 0.930 . S
C2522 C2518 1.567 . S
C2522 H2583 0.961 . S
C2522 H2584 0.960 . S
C2522 H2585 0.958 . S
C2523 C2520 1.530 . S
C2523 H2586 0.961 . S
C2523 H2587 0.960 . S
C2523 H2588 0.960 . S
C2524 C2525 1.530 . S
C2524 H2590 0.961 . S
C2524 H2591 0.961 . S
C2524 H2592 0.959 . S
C2525 C2524 1.530 . S
C2525 O2553 1.412 . S
C2525 H2589 0.980 . S
C2526 C2527 1.288 . S
C2526 C2531 1.377 . S
C2526 O2553 1.393 . S
C2527 C2526 1.288 . S
C2527 C2528 1.369 . S
C2527 H2593 0.932 . S
C2528 C2527 1.369 . S
C2528 C2529 1.398 . S
C2528 C2532 1.527 . S
C2529 C2528 1.398 . S
C2529 C2530 1.380 . S
C2529 C2543 1.497 . S
C2530 C2529 1.380 . S
C2530 C2531 1.383 . S
C2530 C2533 1.603 . S
C2531 C2526 1.377 . S
C2531 C2530 1.383 . S
C2531 H2594 0.929 . S
C2532 C2528 1.527 . S
C2532 H2595 0.961 . S
C2532 H2596 0.959 . S
C2532 H2597 0.959 . S
C2533 C2530 1.603 . S
C2533 H2598 0.960 . S
C2533 H2599 0.962 . S
C2533 H2600 0.961 . S
C2534 C2501 1.587 . S
C2534 C2535 1.360 . S
C2534 C2547 1.412 . S
C2535 C2534 1.360 . S
C2535 C2536 1.365 . S
C2535 H2601 0.929 . S
C2536 C2511 1.553 . S
C2536 C2535 1.365 . S
C2536 C2537 1.404 . S
C2537 C2536 1.404 . S
C2537 C2538 1.395 . S
C2537 C2548 1.451 . S
C2538 C2537 1.395 . S
C2538 C2539 1.322 . S
C2538 H2602 0.930 . S
C2539 C2538 1.322 . S
C2539 C2540 1.459 . S
C2539 H2603 0.929 . S
C2540 C2539 1.459 . S
C2540 C2541 1.445 . S
C2540 C2549 1.395 . S
C2541 C2519 1.432 . S
C2541 C2540 1.445 . S
C2541 C2542 1.370 . S
C2542 C2541 1.370 . S
C2542 C2543 1.438 . S
C2542 H2604 0.930 . S
C2543 C2529 1.497 . S
C2543 C2542 1.438 . S
C2543 C2544 1.360 . S
C2544 C2543 1.360 . S
C2544 C2545 1.401 . S
C2544 C2549 1.446 . S
C2545 C2544 1.401 . S
C2545 C2546 1.347 . S
C2545 H2605 0.929 . S
C2546 C2545 1.347 . S
C2546 C2547 1.455 . S
C2546 H2606 0.930 . S
C2547 C2534 1.412 . S
C2547 C2546 1.455 . S
C2547 C2548 1.331 . S
C2548 C2537 1.451 . S
C2548 C2547 1.331 . S
C2548 C2549 1.497 . S
C2549 C2540 1.395 . S
C2549 C2544 1.446 . S
C2549 C2548 1.497 . S
C2550 C2551 1.582 . S
C2550 H2607 0.962 . S
C2550 H2608 0.959 . S
C2550 H2609 0.958 . S
C2551 C2550 1.582 . S
C2551 O2554 1.458 . S
C2551 H2580 0.980 . S
O2552 C2497 1.426 . S
O2552 C2498 1.334 . S
O2553 C2525 1.412 . S
O2553 C2526 1.393 . S
O2554 C2516 1.435 . S
O2554 C2551 1.458 . S
O2555 C2507 1.468 . S
O2555 C2508 1.408 . S
H2556 C2497 0.980 . S
H2557 C2496 0.959 . S
H2558 C2496 0.959 . S
H2559 C2496 0.960 . S
H2560 C2499 0.929 . S
H2561 C2503 0.929 . S
H2562 C2504 0.959 . S
H2563 C2504 0.961 . S
H2564 C2504 0.961 . S
H2565 C2505 0.960 . S
H2566 C2505 0.960 . S
H2567 C2505 0.961 . S
H2568 C2507 0.980 . S
H2569 C2506 0.961 . S
H2570 C2506 0.960 . S
H2571 C2506 0.959 . S
H2572 C2509 0.930 . S
H2573 C2513 0.931 . S
H2574 C2514 0.959 . S
H2575 C2514 0.961 . S
H2576 C2514 0.959 . S
H2577 C2515 0.960 . S
H2578 C2515 0.960 . S
H2579 C2515 0.960 . S
H2580 C2551 0.980 . S
H2581 C2517 0.930 . S
H2582 C2521 0.930 . S
H2583 C2522 0.961 . S
H2584 C2522 0.960 . S
H2585 C2522 0.958 . S
H2586 C2523 0.961 . S
H2587 C2523 0.960 . S
H2588 C2523 0.960 . S
H2589 C2525 0.980 . S
H2590 C2524 0.961 . S
H2591 C2524 0.961 . S
H2592 C2524 0.959 . S
H2593 C2527 0.932 . S
H2594 C2531 0.929 . S
H2595 C2532 0.961 . S
H2596 C2532 0.959 . S
H2597 C2532 0.959 . S
H2598 C2533 0.960 . S
H2599 C2533 0.962 . S
H2600 C2533 0.961 . S
H2601 C2535 0.929 . S
H2602 C2538 0.930 . S
H2603 C2539 0.929 . S
H2604 C2542 0.930 . S
H2605 C2545 0.929 . S
H2606 C2546 0.930 . S
H2607 C2550 0.962 . S
H2608 C2550 0.959 . S
H2609 C2550 0.958 . S
C2610 C2611 1.560 . S
C2610 H2671 0.959 . S
C2610 H2672 0.959 . S
C2610 H2673 0.960 . S
C2611 C2610 1.560 . S
C2611 O2666 1.426 . S
C2611 H2670 0.980 . S
C2612 C2613 1.407 1_455 S
C2612 C2617 1.418 . S
C2612 O2666 1.334 . S
C2613 C2612 1.407 1_655 S
C2613 C2614 1.360 . S
C2613 H2674 0.929 . S
C2614 C2613 1.360 . S
C2614 C2615 1.401 1_655 S
C2614 C2618 1.527 . S
C2615 C2614 1.401 1_455 S
C2615 C2616 1.405 . S
C2615 C2648 1.587 1_455 S
C2616 C2615 1.405 . S
C2616 C2617 1.332 . S
C2616 C2619 1.496 . S
C2617 C2612 1.418 . S
C2617 C2616 1.332 . S
C2617 H2675 0.929 . S
C2618 C2614 1.527 . S
C2618 H2676 0.959 . S
C2618 H2677 0.961 . S
C2618 H2678 0.961 . S
C2619 C2616 1.496 . S
C2619 H2679 0.960 . S
C2619 H2680 0.960 . S
C2619 H2681 0.961 . S
C2620 C2621 1.517 . S
C2620 H2683 0.963 . S
C2620 H2684 0.960 . S
C2620 H2685 0.959 . S
C2621 C2620 1.517 . S
C2621 O2669 1.468 . S
C2621 H2682 0.980 1_655 S
C2622 C2623 1.349 . S
C2622 C2627 1.367 . S
C2622 O2669 1.408 . S
C2623 C2622 1.349 . S
C2623 C2624 1.407 1_655 S
C2623 H2686 0.930 1_655 S
C2624 C2623 1.407 1_455 S
C2624 C2625 1.449 1_455 S
C2624 C2628 1.535 . S
C2625 C2624 1.449 1_655 S
C2625 C2626 1.384 . S
C2625 C2650 1.553 . S
C2626 C2625 1.384 . S
C2626 C2627 1.364 . S
C2626 C2629 1.450 . S
C2627 C2622 1.367 . S
C2627 C2626 1.364 . S
C2627 H2687 0.931 . S
C2628 C2624 1.535 . S
C2628 H2688 0.959 . S
C2628 H2689 0.961 . S
C2628 H2690 0.959 . S
C2629 C2626 1.450 . S
C2629 H2691 0.960 . S
C2629 H2692 0.960 . S
C2629 H2693 0.960 . S
C2630 C2631 1.309 . S
C2630 C2635 1.304 . S
C2630 O2668 1.435 . S
C2631 C2630 1.309 . S
C2631 C2632 1.479 1_655 S
C2631 H2695 0.930 1_655 S
C2632 C2631 1.479 1_455 S
C2632 C2633 1.402 1_455 S
C2632 C2636 1.562 . S
C2633 C2632 1.402 1_655 S
C2633 C2634 1.373 . S
C2633 C2655 1.432 . S
C2634 C2633 1.373 . S
C2634 C2635 1.339 . S
C2634 C2637 1.530 . S
C2635 C2630 1.304 . S
C2635 C2634 1.339 . S
C2635 H2696 0.930 . S
C2636 C2632 1.562 . S
C2636 H2697 0.961 . S
C2636 H2698 0.960 . S
C2636 H2699 0.958 . S
C2637 C2634 1.530 . S
C2637 H2700 0.961 . S
C2637 H2701 0.960 . S
C2637 H2702 0.960 . S
C2638 C2639 1.499 1_455 S
C2638 H2704 0.961 . S
C2638 H2705 0.961 . S
C2638 H2706 0.959 . S
C2639 C2638 1.499 1_655 S
C2639 O2667 1.406 1_655 S
C2639 H2703 0.989 . S
C2640 C2641 1.288 . S
C2640 C2645 1.377 1_455 S
C2640 O2667 1.393 . S
C2641 C2640 1.288 . S
C2641 C2642 1.369 . S
C2641 H2707 0.932 . S
C2642 C2641 1.369 . S
C2642 C2643 1.398 1_455 S
C2642 C2646 1.527 . S
C2643 C2642 1.398 1_655 S
C2643 C2644 1.380 . S
C2643 C2657 1.497 . S
C2644 C2643 1.380 . S
C2644 C2645 1.383 . S
C2644 C2647 1.603 . S
C2645 C2640 1.377 1_655 S
C2645 C2644 1.383 . S
C2645 H2708 0.929 . S
C2646 C2642 1.527 . S
C2646 H2709 0.961 . S
C2646 H2710 0.959 . S
C2646 H2711 0.959 . S
C2647 C2644 1.603 . S
C2647 H2712 0.960 . S
C2647 H2713 0.962 . S
C2647 H2714 0.961 . S
C2648 C2615 1.587 1_655 S
C2648 C2649 1.360 . S
C2648 C2661 1.412 . S
C2649 C2648 1.360 . S
C2649 C2650 1.365 . S
C2649 H2715 0.929 . S
C2650 C2625 1.553 . S
C2650 C2649 1.365 . S
C2650 C2651 1.404 . S
C2651 C2650 1.404 . S
C2651 C2652 1.395 . S
C2651 C2662 1.451 . S
C2652 C2651 1.395 . S
C2652 C2653 1.322 . S
C2652 H2716 0.930 . S
C2653 C2652 1.322 . S
C2653 C2654 1.459 . S
C2653 H2717 0.929 . S
C2654 C2653 1.459 . S
C2654 C2655 1.445 . S
C2654 C2663 1.395 . S
C2655 C2633 1.432 . S
C2655 C2654 1.445 . S
C2655 C2656 1.370 . S
C2656 C2655 1.370 . S
C2656 C2657 1.438 . S
C2656 H2718 0.930 . S
C2657 C2643 1.497 . S
C2657 C2656 1.438 . S
C2657 C2658 1.360 . S
C2658 C2657 1.360 . S
C2658 C2659 1.401 . S
C2658 C2663 1.446 . S
C2659 C2658 1.401 . S
C2659 C2660 1.347 . S
C2659 H2719 0.929 . S
C2660 C2659 1.347 . S
C2660 C2661 1.455 . S
C2660 H2720 0.930 . S
C2661 C2648 1.412 . S
C2661 C2660 1.455 . S
C2661 C2662 1.331 . S
C2662 C2651 1.451 . S
C2662 C2661 1.331 . S
C2662 C2663 1.497 . S
C2663 C2654 1.395 . S
C2663 C2658 1.446 . S
C2663 C2662 1.497 . S
C2664 C2665 1.582 . S
C2664 H2721 0.962 . S
C2664 H2722 0.959 . S
C2664 H2723 0.958 . S
C2665 C2664 1.582 . S
C2665 O2668 1.458 . S
C2665 H2694 0.980 . S
O2666 C2611 1.426 . S
O2666 C2612 1.334 . S
O2667 C2639 1.406 1_455 S
O2667 C2640 1.393 . S
O2668 C2630 1.435 . S
O2668 C2665 1.458 . S
O2669 C2621 1.468 . S
O2669 C2622 1.408 . S
H2670 C2611 0.980 . S
H2671 C2610 0.959 . S
H2672 C2610 0.959 . S
H2673 C2610 0.960 . S
H2674 C2613 0.929 . S
H2675 C2617 0.929 . S
H2676 C2618 0.959 . S
H2677 C2618 0.961 . S
H2678 C2618 0.961 . S
H2679 C2619 0.960 . S
H2680 C2619 0.960 . S
H2681 C2619 0.961 . S
H2682 C2621 0.980 1_455 S
H2683 C2620 0.963 . S
H2684 C2620 0.960 . S
H2685 C2620 0.959 . S
H2686 C2623 0.930 1_455 S
H2687 C2627 0.931 . S
H2688 C2628 0.959 . S
H2689 C2628 0.961 . S
H2690 C2628 0.959 . S
H2691 C2629 0.960 . S
H2692 C2629 0.960 . S
H2693 C2629 0.960 . S
H2694 C2665 0.980 . S
H2695 C2631 0.930 1_455 S
H2696 C2635 0.930 . S
H2697 C2636 0.961 . S
H2698 C2636 0.960 . S
H2699 C2636 0.958 . S
H2700 C2637 0.961 . S
H2701 C2637 0.960 . S
H2702 C2637 0.960 . S
H2703 C2639 0.989 . S
H2704 C2638 0.961 . S
H2705 C2638 0.961 . S
H2706 C2638 0.959 . S
H2707 C2641 0.932 . S
H2708 C2645 0.929 . S
H2709 C2646 0.961 . S
H2710 C2646 0.959 . S
H2711 C2646 0.959 . S
H2712 C2647 0.960 . S
H2713 C2647 0.962 . S
H2714 C2647 0.961 . S
H2715 C2649 0.929 . S
H2716 C2652 0.930 . S
H2717 C2653 0.929 . S
H2718 C2656 0.930 . S
H2719 C2659 0.929 . S
H2720 C2660 0.930 . S
H2721 C2664 0.962 . S
H2722 C2664 0.959 . S
H2723 C2664 0.958 . S
C2724 C2725 1.560 . S
C2724 H2785 0.959 . S
C2724 H2786 0.959 . S
C2724 H2787 0.960 . S
C2725 C2724 1.560 . S
C2725 O2780 1.426 . S
C2725 H2784 0.980 . S
C2726 C2727 1.407 . S
C2726 C2731 1.418 . S
C2726 O2780 1.334 . S
C2727 C2726 1.407 . S
C2727 C2728 1.360 . S
C2727 H2788 0.929 . S
C2728 C2727 1.360 . S
C2728 C2729 1.401 . S
C2728 C2732 1.527 . S
C2729 C2728 1.401 . S
C2729 C2730 1.405 . S
C2729 C2762 1.587 . S
C2730 C2729 1.405 . S
C2730 C2731 1.332 . S
C2730 C2733 1.496 . S
C2731 C2726 1.418 . S
C2731 C2730 1.332 . S
C2731 H2789 0.929 . S
C2732 C2728 1.527 . S
C2732 H2790 0.959 . S
C2732 H2791 0.961 . S
C2732 H2792 0.961 . S
C2733 C2730 1.496 . S
C2733 H2793 0.960 . S
C2733 H2794 0.960 . S
C2733 H2795 0.961 . S
C2734 C2735 1.517 . S
C2734 H2797 0.961 . S
C2734 H2798 0.960 . S
C2734 H2799 0.959 . S
C2735 C2734 1.517 . S
C2735 O2783 1.468 . S
C2735 H2796 0.980 . S
C2736 C2737 1.349 . S
C2736 C2741 1.367 . S
C2736 O2783 1.408 . S
C2737 C2736 1.349 . S
C2737 C2738 1.407 . S
C2737 H2800 0.930 . S
C2738 C2737 1.407 . S
C2738 C2739 1.449 . S
C2738 C2742 1.535 . S
C2739 C2738 1.449 . S
C2739 C2740 1.384 . S
C2739 C2764 1.553 . S
C2740 C2739 1.384 . S
C2740 C2741 1.364 . S
C2740 C2743 1.450 . S
C2741 C2736 1.367 . S
C2741 C2740 1.364 . S
C2741 H2801 0.931 . S
C2742 C2738 1.535 . S
C2742 H2802 0.959 . S
C2742 H2803 0.961 . S
C2742 H2804 0.959 . S
C2743 C2740 1.450 . S
C2743 H2805 0.960 . S
C2743 H2806 0.960 . S
C2743 H2807 0.960 . S
C2744 C2745 1.309 . S
C2744 C2749 1.304 . S
C2744 O2782 1.435 . S
C2745 C2744 1.309 . S
C2745 C2746 1.476 . S
C2745 H2809 0.930 . S
C2746 C2745 1.476 . S
C2746 C2747 1.400 . S
C2746 C2750 1.567 . S
C2747 C2746 1.400 . S
C2747 C2748 1.373 . S
C2747 C2769 1.432 . S
C2748 C2747 1.373 . S
C2748 C2749 1.339 . S
C2748 C2751 1.530 . S
C2749 C2744 1.304 . S
C2749 C2748 1.339 . S
C2749 H2810 0.930 . S
C2750 C2746 1.567 . S
C2750 H2811 0.961 . S
C2750 H2812 0.960 . S
C2750 H2813 0.958 . S
C2751 C2748 1.530 . S
C2751 H2814 0.961 . S
C2751 H2815 0.960 . S
C2751 H2816 0.960 . S
C2752 C2753 1.530 . S
C2752 H2818 0.961 . S
C2752 H2819 0.961 . S
C2752 H2820 0.959 . S
C2753 C2752 1.530 . S
C2753 O2781 1.412 . S
C2753 H2817 0.980 . S
C2754 C2755 1.288 . S
C2754 C2759 1.377 . S
C2754 O2781 1.393 . S
C2755 C2754 1.288 . S
C2755 C2756 1.369 . S
C2755 H2821 0.932 . S
C2756 C2755 1.369 . S
C2756 C2757 1.398 . S
C2756 C2760 1.527 . S
C2757 C2756 1.398 . S
C2757 C2758 1.380 . S
C2757 C2771 1.497 . S
C2758 C2757 1.380 . S
C2758 C2759 1.383 . S
C2758 C2761 1.603 . S
C2759 C2754 1.377 . S
C2759 C2758 1.383 . S
C2759 H2822 0.929 . S
C2760 C2756 1.527 . S
C2760 H2823 0.961 . S
C2760 H2824 0.959 . S
C2760 H2825 0.959 . S
C2761 C2758 1.603 . S
C2761 H2826 0.960 . S
C2761 H2827 0.962 . S
C2761 H2828 0.961 . S
C2762 C2729 1.587 . S
C2762 C2763 1.360 . S
C2762 C2775 1.412 . S
C2763 C2762 1.360 . S
C2763 C2764 1.365 . S
C2763 H2829 0.929 . S
C2764 C2739 1.553 . S
C2764 C2763 1.365 . S
C2764 C2765 1.404 . S
C2765 C2764 1.404 . S
C2765 C2766 1.395 . S
C2765 C2776 1.451 . S
C2766 C2765 1.395 . S
C2766 C2767 1.322 . S
C2766 H2830 0.930 . S
C2767 C2766 1.322 . S
C2767 C2768 1.459 . S
C2767 H2831 0.929 . S
C2768 C2767 1.459 . S
C2768 C2769 1.445 . S
C2768 C2777 1.395 . S
C2769 C2747 1.432 . S
C2769 C2768 1.445 . S
C2769 C2770 1.370 . S
C2770 C2769 1.370 . S
C2770 C2771 1.438 . S
C2770 H2832 0.930 . S
C2771 C2757 1.497 . S
C2771 C2770 1.438 . S
C2771 C2772 1.360 . S
C2772 C2771 1.360 . S
C2772 C2773 1.401 . S
C2772 C2777 1.446 . S
C2773 C2772 1.401 . S
C2773 C2774 1.347 . S
C2773 H2833 0.929 . S
C2774 C2773 1.347 . S
C2774 C2775 1.455 . S
C2774 H2834 0.930 . S
C2775 C2762 1.412 . S
C2775 C2774 1.455 . S
C2775 C2776 1.331 . S
C2776 C2765 1.451 . S
C2776 C2775 1.331 . S
C2776 C2777 1.497 . S
C2777 C2768 1.395 . S
C2777 C2772 1.446 . S
C2777 C2776 1.497 . S
C2778 C2779 1.582 . S
C2778 H2835 0.962 . S
C2778 H2836 0.959 . S
C2778 H2837 0.958 . S
C2779 C2778 1.582 . S
C2779 O2782 1.458 . S
C2779 H2808 0.980 . S
O2780 C2725 1.426 . S
O2780 C2726 1.334 . S
O2781 C2753 1.412 . S
O2781 C2754 1.393 . S
O2782 C2744 1.435 . S
O2782 C2779 1.458 . S
O2783 C2735 1.468 . S
O2783 C2736 1.408 . S
H2784 C2725 0.980 . S
H2785 C2724 0.959 . S
H2786 C2724 0.959 . S
H2787 C2724 0.960 . S
H2788 C2727 0.929 . S
H2789 C2731 0.929 . S
H2790 C2732 0.959 . S
H2791 C2732 0.961 . S
H2792 C2732 0.961 . S
H2793 C2733 0.960 . S
H2794 C2733 0.960 . S
H2795 C2733 0.961 . S
H2796 C2735 0.980 . S
H2797 C2734 0.961 . S
H2798 C2734 0.960 . S
H2799 C2734 0.959 . S
H2800 C2737 0.930 . S
H2801 C2741 0.931 . S
H2802 C2742 0.959 . S
H2803 C2742 0.961 . S
H2804 C2742 0.959 . S
H2805 C2743 0.960 . S
H2806 C2743 0.960 . S
H2807 C2743 0.960 . S
H2808 C2779 0.980 . S
H2809 C2745 0.930 . S
H2810 C2749 0.930 . S
H2811 C2750 0.961 . S
H2812 C2750 0.960 . S
H2813 C2750 0.958 . S
H2814 C2751 0.961 . S
H2815 C2751 0.960 . S
H2816 C2751 0.960 . S
H2817 C2753 0.980 . S
H2818 C2752 0.961 . S
H2819 C2752 0.961 . S
H2820 C2752 0.959 . S
H2821 C2755 0.932 . S
H2822 C2759 0.929 . S
H2823 C2760 0.961 . S
H2824 C2760 0.959 . S
H2825 C2760 0.959 . S
H2826 C2761 0.960 . S
H2827 C2761 0.962 . S
H2828 C2761 0.961 . S
H2829 C2763 0.929 . S
H2830 C2766 0.930 . S
H2831 C2767 0.929 . S
H2832 C2770 0.930 . S
H2833 C2773 0.929 . S
H2834 C2774 0.930 . S
H2835 C2778 0.962 . S
H2836 C2778 0.959 . S
H2837 C2778 0.958 . S
C2838 C2839 1.560 . S
C2838 H2899 0.959 . S
C2838 H2900 0.959 . S
C2838 H2901 0.960 . S
C2839 C2838 1.560 . S
C2839 O2894 1.426 . S
C2839 H2898 0.980 . S
C2840 C2841 1.407 1_565 S
C2840 C2845 1.418 . S
C2840 O2894 1.334 . S
C2841 C2840 1.407 1_545 S
C2841 C2842 1.360 . S
C2841 H2902 0.929 . S
C2842 C2841 1.360 . S
C2842 C2843 1.401 1_545 S
C2842 C2846 1.527 . S
C2843 C2842 1.401 1_565 S
C2843 C2844 1.405 . S
C2843 C2876 1.587 1_565 S
C2844 C2843 1.405 . S
C2844 C2845 1.332 . S
C2844 C2847 1.496 . S
C2845 C2840 1.418 . S
C2845 C2844 1.332 . S
C2845 H2903 0.929 . S
C2846 C2842 1.527 . S
C2846 H2904 0.959 . S
C2846 H2905 0.961 . S
C2846 H2906 0.961 . S
C2847 C2844 1.496 . S
C2847 H2907 0.960 . S
C2847 H2908 0.960 . S
C2847 H2909 0.961 . S
C2848 C2849 1.517 . S
C2848 H2911 0.961 1_545 S
C2848 H2912 0.960 . S
C2848 H2913 0.959 . S
C2849 C2848 1.517 . S
C2849 O2897 1.468 . S
C2849 H2910 0.980 1_545 S
C2850 C2851 1.379 . S
C2850 C2855 1.367 . S
C2850 O2897 1.408 . S
C2851 C2850 1.379 . S
C2851 C2852 1.425 1_545 S
C2851 H2914 0.882 1_545 S
C2852 C2851 1.425 1_565 S
C2852 C2853 1.449 1_565 S
C2852 C2856 1.535 . S
C2853 C2852 1.449 1_545 S
C2853 C2854 1.384 . S
C2853 C2878 1.553 . S
C2854 C2853 1.384 . S
C2854 C2855 1.364 . S
C2854 C2857 1.450 . S
C2855 C2850 1.367 . S
C2855 C2854 1.364 . S
C2855 H2915 0.931 . S
C2856 C2852 1.535 . S
C2856 H2916 0.959 . S
C2856 H2917 0.961 . S
C2856 H2918 0.959 . S
C2857 C2854 1.450 . S
C2857 H2919 0.960 . S
C2857 H2920 0.960 . S
C2857 H2921 0.960 . S
C2858 C2859 1.309 . S
C2858 C2863 1.304 . S
C2858 O2896 1.435 . S
C2859 C2858 1.309 . S
C2859 C2860 1.489 1_545 S
C2859 H2923 0.930 1_545 S
C2860 C2859 1.489 1_565 S
C2860 C2861 1.357 1_565 S
C2860 C2864 1.596 . S
C2861 C2860 1.357 1_545 S
C2861 C2862 1.373 . S
C2861 C2883 1.432 . S
C2862 C2861 1.373 . S
C2862 C2863 1.339 . S
C2862 C2865 1.530 . S
C2863 C2858 1.304 . S
C2863 C2862 1.339 . S
C2863 H2924 0.930 . S
C2864 C2860 1.596 . S
C2864 H2925 0.961 . S
C2864 H2926 0.960 . S
C2864 H2927 0.958 . S
C2865 C2862 1.530 . S
C2865 H2928 0.961 . S
C2865 H2929 0.960 . S
C2865 H2930 0.960 . S
C2866 C2867 1.530 1_565 S
C2866 H2932 0.961 . S
C2866 H2933 0.961 . S
C2866 H2934 0.959 . S
C2867 C2866 1.530 1_545 S
C2867 O2895 1.412 1_545 S
C2867 H2931 0.980 . S
C2868 C2869 1.288 . S
C2868 C2873 1.377 1_565 S
C2868 O2895 1.393 . S
C2869 C2868 1.288 . S
C2869 C2870 1.369 . S
C2869 H2935 0.932 . S
C2870 C2869 1.369 . S
C2870 C2871 1.398 1_565 S
C2870 C2874 1.527 . S
C2871 C2870 1.398 1_545 S
C2871 C2872 1.380 . S
C2871 C2885 1.497 . S
C2872 C2871 1.380 . S
C2872 C2873 1.383 . S
C2872 C2875 1.603 . S
C2873 C2868 1.377 1_545 S
C2873 C2872 1.383 . S
C2873 H2936 0.929 . S
C2874 C2870 1.527 . S
C2874 H2937 0.961 . S
C2874 H2938 0.959 . S
C2874 H2939 0.959 . S
C2875 C2872 1.603 . S
C2875 H2940 0.960 . S
C2875 H2941 0.962 . S
C2875 H2942 0.961 . S
C2876 C2843 1.587 1_545 S
C2876 C2877 1.360 . S
C2876 C2889 1.412 . S
C2877 C2876 1.360 . S
C2877 C2878 1.365 . S
C2877 H2943 0.929 . S
C2878 C2853 1.553 . S
C2878 C2877 1.365 . S
C2878 C2879 1.404 . S
C2879 C2878 1.404 . S
C2879 C2880 1.395 . S
C2879 C2890 1.451 . S
C2880 C2879 1.395 . S
C2880 C2881 1.322 . S
C2880 H2944 0.930 . S
C2881 C2880 1.322 . S
C2881 C2882 1.459 . S
C2881 H2945 0.929 . S
C2882 C2881 1.459 . S
C2882 C2883 1.445 . S
C2882 C2891 1.395 . S
C2883 C2861 1.432 . S
C2883 C2882 1.445 . S
C2883 C2884 1.370 . S
C2884 C2883 1.370 . S
C2884 C2885 1.438 . S
C2884 H2946 0.930 . S
C2885 C2871 1.497 . S
C2885 C2884 1.438 . S
C2885 C2886 1.360 . S
C2886 C2885 1.360 . S
C2886 C2887 1.401 . S
C2886 C2891 1.446 . S
C2887 C2886 1.401 . S
C2887 C2888 1.347 . S
C2887 H2947 0.929 . S
C2888 C2887 1.347 . S
C2888 C2889 1.455 . S
C2888 H2948 0.930 . S
C2889 C2876 1.412 . S
C2889 C2888 1.455 . S
C2889 C2890 1.331 . S
C2890 C2879 1.451 . S
C2890 C2889 1.331 . S
C2890 C2891 1.497 . S
C2891 C2882 1.395 . S
C2891 C2886 1.446 . S
C2891 C2890 1.497 . S
C2892 C2893 1.582 . S
C2892 H2949 0.962 . S
C2892 H2950 0.959 . S
C2892 H2951 0.958 . S
C2893 C2892 1.582 . S
C2893 O2896 1.458 . S
C2893 H2922 0.980 . S
O2894 C2839 1.426 . S
O2894 C2840 1.334 . S
O2895 C2867 1.412 1_565 S
O2895 C2868 1.393 . S
O2896 C2858 1.435 . S
O2896 C2893 1.458 . S
O2897 C2849 1.468 . S
O2897 C2850 1.408 . S
H2898 C2839 0.980 . S
H2899 C2838 0.959 . S
H2900 C2838 0.959 . S
H2901 C2838 0.960 . S
H2902 C2841 0.929 . S
H2903 C2845 0.929 . S
H2904 C2846 0.959 . S
H2905 C2846 0.961 . S
H2906 C2846 0.961 . S
H2907 C2847 0.960 . S
H2908 C2847 0.960 . S
H2909 C2847 0.961 . S
H2910 C2849 0.980 1_565 S
H2911 C2848 0.961 1_565 S
H2912 C2848 0.960 . S
H2913 C2848 0.959 . S
H2914 C2851 0.882 1_565 S
H2915 C2855 0.931 . S
H2916 C2856 0.959 . S
H2917 C2856 0.961 . S
H2918 C2856 0.959 . S
H2919 C2857 0.960 . S
H2920 C2857 0.960 . S
H2921 C2857 0.960 . S
H2922 C2893 0.980 . S
H2923 C2859 0.930 1_565 S
H2924 C2863 0.930 . S
H2925 C2864 0.961 . S
H2926 C2864 0.960 . S
H2927 C2864 0.958 . S
H2928 C2865 0.961 . S
H2929 C2865 0.960 . S
H2930 C2865 0.960 . S
H2931 C2867 0.980 . S
H2932 C2866 0.961 . S
H2933 C2866 0.961 . S
H2934 C2866 0.959 . S
H2935 C2869 0.932 . S
H2936 C2873 0.929 . S
H2937 C2874 0.961 . S
H2938 C2874 0.959 . S
H2939 C2874 0.959 . S
H2940 C2875 0.960 . S
H2941 C2875 0.962 . S
H2942 C2875 0.961 . S
H2943 C2877 0.929 . S
H2944 C2880 0.930 . S
H2945 C2881 0.929 . S
H2946 C2884 0.930 . S
H2947 C2887 0.929 . S
H2948 C2888 0.930 . S
H2949 C2892 0.962 . S
H2950 C2892 0.959 . S
H2951 C2892 0.958 . S
C2952 C2953 1.560 . S
C2952 H3013 0.959 . S
C2952 H3014 0.959 . S
C2952 H3015 0.960 . S
C2953 C2952 1.560 . S
C2953 O3008 1.426 . S
C2953 H3012 0.980 1_565 S
C2954 C2955 1.407 1_565 S
C2954 C2959 1.418 . S
C2954 O3008 1.334 . S
C2955 C2954 1.407 1_545 S
C2955 C2956 1.360 . S
C2955 H3016 0.929 . S
C2956 C2955 1.360 . S
C2956 C2957 1.401 . S
C2956 C2960 1.527 . S
C2957 C2956 1.401 . S
C2957 C2958 1.405 1_545 S
C2957 C2990 1.587 . S
C2958 C2957 1.405 1_565 S
C2958 C2959 1.332 . S
C2958 C2961 1.496 . S
C2959 C2954 1.418 . S
C2959 C2958 1.332 . S
C2959 H3017 0.929 . S
C2960 C2956 1.527 . S
C2960 H3018 0.959 . S
C2960 H3019 0.961 . S
C2960 H3020 0.961 . S
C2961 C2958 1.496 . S
C2961 H3021 0.960 . S
C2961 H3022 0.960 . S
C2961 H3023 0.961 . S
C2962 C2963 1.517 . S
C2962 H3025 0.961 . S
C2962 H3026 0.960 . S
C2962 H3027 0.959 . S
C2963 C2962 1.517 . S
C2963 O3011 1.468 . S
C2963 H3024 0.980 . S
C2964 C2965 1.349 . S
C2964 C2969 1.367 . S
C2964 O3011 1.408 . S
C2965 C2964 1.349 . S
C2965 C2966 1.407 . S
C2965 H3028 0.936 . S
C2966 C2965 1.407 . S
C2966 C2967 1.449 . S
C2966 C2970 1.535 1_545 S
C2967 C2966 1.449 . S
C2967 C2968 1.384 . S
C2967 C2992 1.553 . S
C2968 C2967 1.384 . S
C2968 C2969 1.364 . S
C2968 C2971 1.450 . S
C2969 C2964 1.367 . S
C2969 C2968 1.364 . S
C2969 H3029 0.931 . S
C2970 C2966 1.535 1_565 S
C2970 H3030 0.959 . S
C2970 H3031 0.961 . S
C2970 H3032 0.959 . S
C2971 C2968 1.450 . S
C2971 H3033 0.960 . S
C2971 H3034 0.960 . S
C2971 H3035 0.960 . S
C2972 C2973 1.309 1_545 S
C2972 C2977 1.304 . S
C2972 O3010 1.435 . S
C2973 C2972 1.309 1_565 S
C2973 C2974 1.476 . S
C2973 H3037 0.930 . S
C2974 C2973 1.476 . S
C2974 C2975 1.400 1_565 S
C2974 C2978 1.567 . S
C2975 C2974 1.400 1_545 S
C2975 C2976 1.373 . S
C2975 C2997 1.432 . S
C2976 C2975 1.373 . S
C2976 C2977 1.339 . S
C2976 C2979 1.530 . S
C2977 C2972 1.304 . S
C2977 C2976 1.339 . S
C2977 H3038 0.930 . S
C2978 C2974 1.567 . S
C2978 H3039 0.961 . S
C2978 H3040 0.960 . S
C2978 H3041 0.958 . S
C2979 C2976 1.530 . S
C2979 H3042 0.961 . S
C2979 H3043 0.960 . S
C2979 H3044 0.960 . S
C2980 C2981 1.530 . S
C2980 H3046 0.961 . S
C2980 H3047 0.961 . S
C2980 H3048 0.959 . S
C2981 C2980 1.530 . S
C2981 O3009 1.412 . S
C2981 H3045 0.980 . S
C2982 C2983 1.288 . S
C2982 C2987 1.377 1_565 S
C2982 O3009 1.393 . S
C2983 C2982 1.288 . S
C2983 C2984 1.369 . S
C2983 H3049 0.932 . S
C2984 C2983 1.369 . S
C2984 C2985 1.398 . S
C2984 C2988 1.527 . S
C2985 C2984 1.398 . S
C2985 C2986 1.380 1_565 S
C2985 C2999 1.497 1_565 S
C2986 C2985 1.380 1_545 S
C2986 C2987 1.383 . S
C2986 C2989 1.603 . S
C2987 C2982 1.377 1_545 S
C2987 C2986 1.383 . S
C2987 H3050 0.929 . S
C2988 C2984 1.527 . S
C2988 H3051 0.961 . S
C2988 H3052 0.959 . S
C2988 H3053 0.959 . S
C2989 C2986 1.603 . S
C2989 H3054 0.960 . S
C2989 H3055 0.962 . S
C2989 H3056 0.961 . S
C2990 C2957 1.587 . S
C2990 C2991 1.360 . S
C2990 C3003 1.412 . S
C2991 C2990 1.360 . S
C2991 C2992 1.365 . S
C2991 H3057 0.929 . S
C2992 C2967 1.553 . S
C2992 C2991 1.365 . S
C2992 C2993 1.404 . S
C2993 C2992 1.404 . S
C2993 C2994 1.395 . S
C2993 C3004 1.451 . S
C2994 C2993 1.395 . S
C2994 C2995 1.322 . S
C2994 H3058 0.930 . S
C2995 C2994 1.322 . S
C2995 C2996 1.459 . S
C2995 H3059 0.929 . S
C2996 C2995 1.459 . S
C2996 C2997 1.445 . S
C2996 C3005 1.395 . S
C2997 C2975 1.432 . S
C2997 C2996 1.445 . S
C2997 C2998 1.370 . S
C2998 C2997 1.370 . S
C2998 C2999 1.438 . S
C2998 H3060 0.930 . S
C2999 C2985 1.497 1_545 S
C2999 C2998 1.438 . S
C2999 C3000 1.360 . S
C3000 C2999 1.360 . S
C3000 C3001 1.401 . S
C3000 C3005 1.446 . S
C3001 C3000 1.401 . S
C3001 C3002 1.347 . S
C3001 H3061 0.959 . S
C3002 C3001 1.347 . S
C3002 C3003 1.455 . S
C3002 H3062 0.930 . S
C3003 C2990 1.412 . S
C3003 C3002 1.455 . S
C3003 C3004 1.331 . S
C3004 C2993 1.451 . S
C3004 C3003 1.331 . S
C3004 C3005 1.497 . S
C3005 C2996 1.395 . S
C3005 C3000 1.446 . S
C3005 C3004 1.497 . S
C3006 C3007 1.628 . S
C3006 H3063 0.962 . S
C3006 H3064 0.959 . S
C3006 H3065 0.958 . S
C3007 C3006 1.628 . S
C3007 O3010 1.476 . S
C3007 H3036 0.981 1_545 S
O3008 C2953 1.426 . S
O3008 C2954 1.334 . S
O3009 C2981 1.412 . S
O3009 C2982 1.393 . S
O3010 C2972 1.435 . S
O3010 C3007 1.476 . S
O3011 C2963 1.468 . S
O3011 C2964 1.408 . S
H3012 C2953 0.980 1_545 S
H3013 C2952 0.959 . S
H3014 C2952 0.959 . S
H3015 C2952 0.960 . S
H3016 C2955 0.929 . S
H3017 C2959 0.929 . S
H3018 C2960 0.959 . S
H3019 C2960 0.961 . S
H3020 C2960 0.961 . S
H3021 C2961 0.960 . S
H3022 C2961 0.960 . S
H3023 C2961 0.961 . S
H3024 C2963 0.980 . S
H3025 C2962 0.961 . S
H3026 C2962 0.960 . S
H3027 C2962 0.959 . S
H3028 C2965 0.936 . S
H3029 C2969 0.931 . S
H3030 C2970 0.959 . S
H3031 C2970 0.961 . S
H3032 C2970 0.959 . S
H3033 C2971 0.960 . S
H3034 C2971 0.960 . S
H3035 C2971 0.960 . S
H3036 C3007 0.981 1_565 S
H3037 C2973 0.930 . S
H3038 C2977 0.930 . S
H3039 C2978 0.961 . S
H3040 C2978 0.960 . S
H3041 C2978 0.958 . S
H3042 C2979 0.961 . S
H3043 C2979 0.960 . S
H3044 C2979 0.960 . S
H3045 C2981 0.980 . S
H3046 C2980 0.961 . S
H3047 C2980 0.961 . S
H3048 C2980 0.959 . S
H3049 C2983 0.932 . S
H3050 C2987 0.929 . S
H3051 C2988 0.961 . S
H3052 C2988 0.959 . S
H3053 C2988 0.959 . S
H3054 C2989 0.960 . S
H3055 C2989 0.962 . S
H3056 C2989 0.961 . S
H3057 C2991 0.929 . S
H3058 C2994 0.930 . S
H3059 C2995 0.929 . S
H3060 C2998 0.930 . S
H3061 C3001 0.959 . S
H3062 C3002 0.930 . S
H3063 C3006 0.962 . S
H3064 C3006 0.959 . S
H3065 C3006 0.958 . S
C3066 C3067 1.560 . S
C3066 H3127 0.959 . S
C3066 H3128 0.959 . S
C3066 H3129 0.960 . S
C3067 C3066 1.560 . S
C3067 O3122 1.426 . S
C3067 H3126 0.980 1_455 S
C3068 C3069 1.407 1_455 S
C3068 C3073 1.418 . S
C3068 O3122 1.334 . S
C3069 C3068 1.407 1_655 S
C3069 C3070 1.360 . S
C3069 H3130 0.929 . S
C3070 C3069 1.360 . S
C3070 C3071 1.401 . S
C3070 C3074 1.527 . S
C3071 C3070 1.401 . S
C3071 C3072 1.405 1_655 S
C3071 C3104 1.587 . S
C3072 C3071 1.405 1_455 S
C3072 C3073 1.332 . S
C3072 C3075 1.496 . S
C3073 C3068 1.418 . S
C3073 C3072 1.332 . S
C3073 H3131 0.929 . S
C3074 C3070 1.527 . S
C3074 H3132 0.959 . S
C3074 H3133 0.961 . S
C3074 H3134 0.961 . S
C3075 C3072 1.496 . S
C3075 H3135 0.960 . S
C3075 H3136 0.960 . S
C3075 H3137 0.961 . S
C3076 C3077 1.517 . S
C3076 H3139 0.961 . S
C3076 H3140 0.960 . S
C3076 H3141 0.959 . S
C3077 C3076 1.517 . S
C3077 O3125 1.468 . S
C3077 H3138 0.980 . S
C3078 C3079 1.349 . S
C3078 C3083 1.367 . S
C3078 O3125 1.408 . S
C3079 C3078 1.349 . S
C3079 C3080 1.407 . S
C3079 H3142 0.923 . S
C3080 C3079 1.407 . S
C3080 C3081 1.449 . S
C3080 C3084 1.535 1_655 S
C3081 C3080 1.449 . S
C3081 C3082 1.384 . S
C3081 C3106 1.553 . S
C3082 C3081 1.384 . S
C3082 C3083 1.364 . S
C3082 C3085 1.450 . S
C3083 C3078 1.367 . S
C3083 C3082 1.364 . S
C3083 H3143 0.931 . S
C3084 C3080 1.535 1_455 S
C3084 H3144 0.959 . S
C3084 H3145 0.961 . S
C3084 H3146 0.959 . S
C3085 C3082 1.450 . S
C3085 H3147 0.960 . S
C3085 H3148 0.960 . S
C3085 H3149 0.960 . S
C3086 C3087 1.309 1_655 S
C3086 C3091 1.304 . S
C3086 O3124 1.435 . S
C3087 C3086 1.309 1_455 S
C3087 C3088 1.476 . S
C3087 H3151 0.930 . S
C3088 C3087 1.476 . S
C3088 C3089 1.400 1_455 S
C3088 C3092 1.567 . S
C3089 C3088 1.400 1_655 S
C3089 C3090 1.373 . S
C3089 C3111 1.432 . S
C3090 C3089 1.373 . S
C3090 C3091 1.339 . S
C3090 C3093 1.530 . S
C3091 C3086 1.304 . S
C3091 C3090 1.339 . S
C3091 H3152 0.930 . S
C3092 C3088 1.567 . S
C3092 H3153 0.961 . S
C3092 H3154 0.960 . S
C3092 H3155 0.958 . S
C3093 C3090 1.530 . S
C3093 H3156 0.961 . S
C3093 H3157 0.960 . S
C3093 H3158 0.960 . S
C3094 C3095 1.530 . S
C3094 H3160 0.961 . S
C3094 H3161 0.961 . S
C3094 H3162 0.959 . S
C3095 C3094 1.530 . S
C3095 O3123 1.412 . S
C3095 H3159 0.992 . S
C3096 C3097 1.288 . S
C3096 C3101 1.377 1_455 S
C3096 O3123 1.393 . S
C3097 C3096 1.288 . S
C3097 C3098 1.369 . S
C3097 H3163 0.932 . S
C3098 C3097 1.369 . S
C3098 C3099 1.398 . S
C3098 C3102 1.527 . S
C3099 C3098 1.398 . S
C3099 C3100 1.380 1_455 S
C3099 C3113 1.497 1_455 S
C3100 C3099 1.380 1_655 S
C3100 C3101 1.383 . S
C3100 C3103 1.603 . S
C3101 C3096 1.377 1_655 S
C3101 C3100 1.383 . S
C3101 H3164 0.929 . S
C3102 C3098 1.527 . S
C3102 H3165 0.961 . S
C3102 H3166 0.959 . S
C3102 H3167 0.959 . S
C3103 C3100 1.603 . S
C3103 H3168 0.960 . S
C3103 H3169 0.962 . S
C3103 H3170 0.961 . S
C3104 C3071 1.587 . S
C3104 C3105 1.360 . S
C3104 C3117 1.412 . S
C3105 C3104 1.360 . S
C3105 C3106 1.365 . S
C3105 H3171 0.929 . S
C3106 C3081 1.553 . S
C3106 C3105 1.365 . S
C3106 C3107 1.404 . S
C3107 C3106 1.404 . S
C3107 C3108 1.395 . S
C3107 C3118 1.451 . S
C3108 C3107 1.395 . S
C3108 C3109 1.322 . S
C3108 H3172 0.930 . S
C3109 C3108 1.322 . S
C3109 C3110 1.459 . S
C3109 H3173 0.929 . S
C3110 C3109 1.459 . S
C3110 C3111 1.445 . S
C3110 C3119 1.395 . S
C3111 C3089 1.432 . S
C3111 C3110 1.445 . S
C3111 C3112 1.370 . S
C3112 C3111 1.370 . S
C3112 C3113 1.438 . S
C3112 H3174 0.930 . S
C3113 C3099 1.497 1_655 S
C3113 C3112 1.438 . S
C3113 C3114 1.360 . S
C3114 C3113 1.360 . S
C3114 C3115 1.401 . S
C3114 C3119 1.446 . S
C3115 C3114 1.401 . S
C3115 C3116 1.347 . S
C3115 H3175 0.929 . S
C3116 C3115 1.347 . S
C3116 C3117 1.455 . S
C3116 H3176 0.930 . S
C3117 C3104 1.412 . S
C3117 C3116 1.455 . S
C3117 C3118 1.331 . S
C3118 C3107 1.451 . S
C3118 C3117 1.331 . S
C3118 C3119 1.497 . S
C3119 C3110 1.395 . S
C3119 C3114 1.446 . S
C3119 C3118 1.497 . S
C3120 C3121 1.582 1_655 S
C3120 H3177 0.944 1_655 S
C3120 H3178 0.959 . S
C3120 H3179 0.958 . S
C3121 C3120 1.582 1_455 S
C3121 O3124 1.458 1_455 S
C3121 H3150 0.980 . S
O3122 C3067 1.426 . S
O3122 C3068 1.334 . S
O3123 C3095 1.412 . S
O3123 C3096 1.393 . S
O3124 C3086 1.435 . S
O3124 C3121 1.458 1_655 S
O3125 C3077 1.468 . S
O3125 C3078 1.408 . S
H3126 C3067 0.980 1_655 S
H3127 C3066 0.959 . S
H3128 C3066 0.959 . S
H3129 C3066 0.960 . S
H3130 C3069 0.929 . S
H3131 C3073 0.929 . S
H3132 C3074 0.959 . S
H3133 C3074 0.961 . S
H3134 C3074 0.961 . S
H3135 C3075 0.960 . S
H3136 C3075 0.960 . S
H3137 C3075 0.961 . S
H3138 C3077 0.980 . S
H3139 C3076 0.961 . S
H3140 C3076 0.960 . S
H3141 C3076 0.959 . S
H3142 C3079 0.923 . S
H3143 C3083 0.931 . S
H3144 C3084 0.959 . S
H3145 C3084 0.961 . S
H3146 C3084 0.959 . S
H3147 C3085 0.960 . S
H3148 C3085 0.960 . S
H3149 C3085 0.960 . S
H3150 C3121 0.980 . S
H3151 C3087 0.930 . S
H3152 C3091 0.930 . S
H3153 C3092 0.961 . S
H3154 C3092 0.960 . S
H3155 C3092 0.958 . S
H3156 C3093 0.961 . S
H3157 C3093 0.960 . S
H3158 C3093 0.960 . S
H3159 C3095 0.992 . S
H3160 C3094 0.961 . S
H3161 C3094 0.961 . S
H3162 C3094 0.959 . S
H3163 C3097 0.932 . S
H3164 C3101 0.929 . S
H3165 C3102 0.961 . S
H3166 C3102 0.959 . S
H3167 C3102 0.959 . S
H3168 C3103 0.960 . S
H3169 C3103 0.962 . S
H3170 C3103 0.961 . S
H3171 C3105 0.929 . S
H3172 C3108 0.930 . S
H3173 C3109 0.929 . S
H3174 C3112 0.930 . S
H3175 C3115 0.929 . S
H3176 C3116 0.930 . S
H3177 C3120 0.944 1_455 S
H3178 C3120 0.959 . S
H3179 C3120 0.958 . S
C3180 C3181 1.560 . S
C3180 H3241 0.959 . S
C3180 H3242 0.959 . S
C3180 H3243 0.960 . S
C3181 C3180 1.560 . S
C3181 O3236 1.426 . S
C3181 H3240 0.980 . S
C3182 C3183 1.407 . S
C3182 C3187 1.418 . S
C3182 O3236 1.334 . S
C3183 C3182 1.407 . S
C3183 C3184 1.360 . S
C3183 H3244 0.929 . S
C3184 C3183 1.360 . S
C3184 C3185 1.401 . S
C3184 C3188 1.527 . S
C3185 C3184 1.401 . S
C3185 C3186 1.405 . S
C3185 C3218 1.587 . S
C3186 C3185 1.405 . S
C3186 C3187 1.332 . S
C3186 C3189 1.496 . S
C3187 C3182 1.418 . S
C3187 C3186 1.332 . S
C3187 H3245 0.929 . S
C3188 C3184 1.527 . S
C3188 H3246 0.959 . S
C3188 H3247 0.961 . S
C3188 H3248 0.961 . S
C3189 C3186 1.496 . S
C3189 H3249 0.960 . S
C3189 H3250 0.960 . S
C3189 H3251 0.961 . S
C3190 C3191 1.517 . S
C3190 H3253 0.961 . S
C3190 H3254 0.960 . S
C3190 H3255 0.959 . S
C3191 C3190 1.517 . S
C3191 O3239 1.468 . S
C3191 H3252 0.980 . S
C3192 C3193 1.349 . S
C3192 C3197 1.367 . S
C3192 O3239 1.408 . S
C3193 C3192 1.349 . S
C3193 C3194 1.407 . S
C3193 H3256 0.930 . S
C3194 C3193 1.407 . S
C3194 C3195 1.449 . S
C3194 C3198 1.535 . S
C3195 C3194 1.449 . S
C3195 C3196 1.384 . S
C3195 C3220 1.553 . S
C3196 C3195 1.384 . S
C3196 C3197 1.364 . S
C3196 C3199 1.450 . S
C3197 C3192 1.367 . S
C3197 C3196 1.364 . S
C3197 H3257 0.931 . S
C3198 C3194 1.535 . S
C3198 H3258 0.959 . S
C3198 H3259 0.961 . S
C3198 H3260 0.959 . S
C3199 C3196 1.450 . S
C3199 H3261 0.960 . S
C3199 H3262 0.960 . S
C3199 H3263 0.960 . S
C3200 C3201 1.309 . S
C3200 C3205 1.304 . S
C3200 O3238 1.435 . S
C3201 C3200 1.309 . S
C3201 C3202 1.476 . S
C3201 H3265 0.930 . S
C3202 C3201 1.476 . S
C3202 C3203 1.400 . S
C3202 C3206 1.567 . S
C3203 C3202 1.400 . S
C3203 C3204 1.373 . S
C3203 C3225 1.432 . S
C3204 C3203 1.373 . S
C3204 C3205 1.339 . S
C3204 C3207 1.530 . S
C3205 C3200 1.304 . S
C3205 C3204 1.339 . S
C3205 H3266 0.930 . S
C3206 C3202 1.567 . S
C3206 H3267 0.961 . S
C3206 H3268 0.960 . S
C3206 H3269 0.958 . S
C3207 C3204 1.530 . S
C3207 H3270 0.961 . S
C3207 H3271 0.960 . S
C3207 H3272 0.960 . S
C3208 C3209 1.530 . S
C3208 H3274 0.961 . S
C3208 H3275 0.961 . S
C3208 H3276 0.959 . S
C3209 C3208 1.530 . S
C3209 O3237 1.412 . S
C3209 H3273 0.980 . S
C3210 C3211 1.288 . S
C3210 C3215 1.377 . S
C3210 O3237 1.393 . S
C3211 C3210 1.288 . S
C3211 C3212 1.369 . S
C3211 H3277 0.932 . S
C3212 C3211 1.369 . S
C3212 C3213 1.398 . S
C3212 C3216 1.527 . S
C3213 C3212 1.398 . S
C3213 C3214 1.380 . S
C3213 C3227 1.497 . S
C3214 C3213 1.380 . S
C3214 C3215 1.383 . S
C3214 C3217 1.603 . S
C3215 C3210 1.377 . S
C3215 C3214 1.383 . S
C3215 H3278 0.929 . S
C3216 C3212 1.527 . S
C3216 H3279 0.961 . S
C3216 H3280 0.959 . S
C3216 H3281 0.959 . S
C3217 C3214 1.603 . S
C3217 H3282 0.960 . S
C3217 H3283 0.962 . S
C3217 H3284 0.961 . S
C3218 C3185 1.587 . S
C3218 C3219 1.360 . S
C3218 C3231 1.412 . S
C3219 C3218 1.360 . S
C3219 C3220 1.365 . S
C3219 H3285 0.929 . S
C3220 C3195 1.553 . S
C3220 C3219 1.365 . S
C3220 C3221 1.404 . S
C3221 C3220 1.404 . S
C3221 C3222 1.395 . S
C3221 C3232 1.451 . S
C3222 C3221 1.395 . S
C3222 C3223 1.322 . S
C3222 H3286 0.930 . S
C3223 C3222 1.322 . S
C3223 C3224 1.459 . S
C3223 H3287 0.929 . S
C3224 C3223 1.459 . S
C3224 C3225 1.445 . S
C3224 C3233 1.395 . S
C3225 C3203 1.432 . S
C3225 C3224 1.445 . S
C3225 C3226 1.370 . S
C3226 C3225 1.370 . S
C3226 C3227 1.438 . S
C3226 H3288 0.930 . S
C3227 C3213 1.497 . S
C3227 C3226 1.438 . S
C3227 C3228 1.360 . S
C3228 C3227 1.360 . S
C3228 C3229 1.401 . S
C3228 C3233 1.446 . S
C3229 C3228 1.401 . S
C3229 C3230 1.347 . S
C3229 H3289 0.929 . S
C3230 C3229 1.347 . S
C3230 C3231 1.455 . S
C3230 H3290 0.930 . S
C3231 C3218 1.412 . S
C3231 C3230 1.455 . S
C3231 C3232 1.331 . S
C3232 C3221 1.451 . S
C3232 C3231 1.331 . S
C3232 C3233 1.497 . S
C3233 C3224 1.395 . S
C3233 C3228 1.446 . S
C3233 C3232 1.497 . S
C3234 C3235 1.582 . S
C3234 H3291 0.962 . S
C3234 H3292 0.959 . S
C3234 H3293 0.958 . S
C3235 C3234 1.582 . S
C3235 O3238 1.458 . S
C3235 H3264 0.980 . S
O3236 C3181 1.426 . S
O3236 C3182 1.334 . S
O3237 C3209 1.412 . S
O3237 C3210 1.393 . S
O3238 C3200 1.435 . S
O3238 C3235 1.458 . S
O3239 C3191 1.468 . S
O3239 C3192 1.408 . S
H3240 C3181 0.980 . S
H3241 C3180 0.959 . S
H3242 C3180 0.959 . S
H3243 C3180 0.960 . S
H3244 C3183 0.929 . S
H3245 C3187 0.929 . S
H3246 C3188 0.959 . S
H3247 C3188 0.961 . S
H3248 C3188 0.961 . S
H3249 C3189 0.960 . S
H3250 C3189 0.960 . S
H3251 C3189 0.961 . S
H3252 C3191 0.980 . S
H3253 C3190 0.961 . S
H3254 C3190 0.960 . S
H3255 C3190 0.959 . S
H3256 C3193 0.930 . S
H3257 C3197 0.931 . S
H3258 C3198 0.959 . S
H3259 C3198 0.961 . S
H3260 C3198 0.959 . S
H3261 C3199 0.960 . S
H3262 C3199 0.960 . S
H3263 C3199 0.960 . S
H3264 C3235 0.980 . S
H3265 C3201 0.930 . S
H3266 C3205 0.930 . S
H3267 C3206 0.961 . S
H3268 C3206 0.960 . S
H3269 C3206 0.958 . S
H3270 C3207 0.961 . S
H3271 C3207 0.960 . S
H3272 C3207 0.960 . S
H3273 C3209 0.980 . S
H3274 C3208 0.961 . S
H3275 C3208 0.961 . S
H3276 C3208 0.959 . S
H3277 C3211 0.932 . S
H3278 C3215 0.929 . S
H3279 C3216 0.961 . S
H3280 C3216 0.959 . S
H3281 C3216 0.959 . S
H3282 C3217 0.960 . S
H3283 C3217 0.962 . S
H3284 C3217 0.961 . S
H3285 C3219 0.929 . S
H3286 C3222 0.930 . S
H3287 C3223 0.929 . S
H3288 C3226 0.930 . S
H3289 C3229 0.929 . S
H3290 C3230 0.930 . S
H3291 C3234 0.962 . S
H3292 C3234 0.959 . S
H3293 C3234 0.958 . S
C3294 C3295 1.560 . S
C3294 H3355 0.959 . S
C3294 H3356 0.959 . S
C3294 H3357 0.960 . S
C3295 C3294 1.560 . S
C3295 O3350 1.426 . S
C3295 H3354 0.980 . S
C3296 C3297 1.407 . S
C3296 C3301 1.418 . S
C3296 O3350 1.334 . S
C3297 C3296 1.407 . S
C3297 C3298 1.360 . S
C3297 H3358 0.929 . S
C3298 C3297 1.360 . S
C3298 C3299 1.401 . S
C3298 C3302 1.527 . S
C3299 C3298 1.401 . S
C3299 C3300 1.405 . S
C3299 C3332 1.587 . S
C3300 C3299 1.405 . S
C3300 C3301 1.332 . S
C3300 C3303 1.496 . S
C3301 C3296 1.418 . S
C3301 C3300 1.332 . S
C3301 H3359 0.929 . S
C3302 C3298 1.527 . S
C3302 H3360 0.959 . S
C3302 H3361 0.961 . S
C3302 H3362 0.961 . S
C3303 C3300 1.496 . S
C3303 H3363 0.960 . S
C3303 H3364 0.960 . S
C3303 H3365 0.961 . S
C3304 C3305 1.517 . S
C3304 H3367 0.961 . S
C3304 H3368 0.960 . S
C3304 H3369 0.959 . S
C3305 C3304 1.517 . S
C3305 O3353 1.468 . S
C3305 H3366 0.980 . S
C3306 C3307 1.349 . S
C3306 C3311 1.367 . S
C3306 O3353 1.408 . S
C3307 C3306 1.349 . S
C3307 C3308 1.407 . S
C3307 H3370 0.930 . S
C3308 C3307 1.407 . S
C3308 C3309 1.449 . S
C3308 C3312 1.535 . S
C3309 C3308 1.449 . S
C3309 C3310 1.384 . S
C3309 C3334 1.553 . S
C3310 C3309 1.384 . S
C3310 C3311 1.364 . S
C3310 C3313 1.450 . S
C3311 C3306 1.367 . S
C3311 C3310 1.364 . S
C3311 H3371 0.931 . S
C3312 C3308 1.535 . S
C3312 H3372 0.959 . S
C3312 H3373 0.961 . S
C3312 H3374 0.959 . S
C3313 C3310 1.450 . S
C3313 H3375 0.960 . S
C3313 H3376 0.960 . S
C3313 H3377 0.960 . S
C3314 C3315 1.309 . S
C3314 C3319 1.304 . S
C3314 O3352 1.435 . S
C3315 C3314 1.309 . S
C3315 C3316 1.476 . S
C3315 H3379 0.930 . S
C3316 C3315 1.476 . S
C3316 C3317 1.400 . S
C3316 C3320 1.567 . S
C3317 C3316 1.400 . S
C3317 C3318 1.373 . S
C3317 C3339 1.432 . S
C3318 C3317 1.373 . S
C3318 C3319 1.339 . S
C3318 C3321 1.530 . S
C3319 C3314 1.304 . S
C3319 C3318 1.339 . S
C3319 H3380 0.930 . S
C3320 C3316 1.567 . S
C3320 H3381 0.961 . S
C3320 H3382 0.960 . S
C3320 H3383 0.958 . S
C3321 C3318 1.530 . S
C3321 H3384 0.961 . S
C3321 H3385 0.960 . S
C3321 H3386 0.960 . S
C3322 C3323 1.530 . S
C3322 H3388 0.961 . S
C3322 H3389 0.961 . S
C3322 H3390 0.959 . S
C3323 C3322 1.530 . S
C3323 O3351 1.412 . S
C3323 H3387 0.980 . S
C3324 C3325 1.288 . S
C3324 C3329 1.377 . S
C3324 O3351 1.393 . S
C3325 C3324 1.288 . S
C3325 C3326 1.369 . S
C3325 H3391 0.932 . S
C3326 C3325 1.369 . S
C3326 C3327 1.398 . S
C3326 C3330 1.527 . S
C3327 C3326 1.398 . S
C3327 C3328 1.380 . S
C3327 C3341 1.497 . S
C3328 C3327 1.380 . S
C3328 C3329 1.383 . S
C3328 C3331 1.603 . S
C3329 C3324 1.377 . S
C3329 C3328 1.383 . S
C3329 H3392 0.929 . S
C3330 C3326 1.527 . S
C3330 H3393 0.961 . S
C3330 H3394 0.959 . S
C3330 H3395 0.959 . S
C3331 C3328 1.603 . S
C3331 H3396 0.960 . S
C3331 H3397 0.962 . S
C3331 H3398 0.961 . S
C3332 C3299 1.587 . S
C3332 C3333 1.360 . S
C3332 C3345 1.412 . S
C3333 C3332 1.360 . S
C3333 C3334 1.365 . S
C3333 H3399 0.929 . S
C3334 C3309 1.553 . S
C3334 C3333 1.365 . S
C3334 C3335 1.404 . S
C3335 C3334 1.404 . S
C3335 C3336 1.395 . S
C3335 C3346 1.451 . S
C3336 C3335 1.395 . S
C3336 C3337 1.322 . S
C3336 H3400 0.930 . S
C3337 C3336 1.322 . S
C3337 C3338 1.459 . S
C3337 H3401 0.929 . S
C3338 C3337 1.459 . S
C3338 C3339 1.445 . S
C3338 C3347 1.395 . S
C3339 C3317 1.432 . S
C3339 C3338 1.445 . S
C3339 C3340 1.370 . S
C3340 C3339 1.370 . S
C3340 C3341 1.438 . S
C3340 H3402 0.930 . S
C3341 C3327 1.497 . S
C3341 C3340 1.438 . S
C3341 C3342 1.360 . S
C3342 C3341 1.360 . S
C3342 C3343 1.401 . S
C3342 C3347 1.446 . S
C3343 C3342 1.401 . S
C3343 C3344 1.347 . S
C3343 H3403 0.929 . S
C3344 C3343 1.347 . S
C3344 C3345 1.455 . S
C3344 H3404 0.930 . S
C3345 C3332 1.412 . S
C3345 C3344 1.455 . S
C3345 C3346 1.331 . S
C3346 C3335 1.451 . S
C3346 C3345 1.331 . S
C3346 C3347 1.497 . S
C3347 C3338 1.395 . S
C3347 C3342 1.446 . S
C3347 C3346 1.497 . S
C3348 C3349 1.582 . S
C3348 H3405 0.962 . S
C3348 H3406 0.959 . S
C3348 H3407 0.958 . S
C3349 C3348 1.582 . S
C3349 O3352 1.458 . S
C3349 H3378 0.980 . S
O3350 C3295 1.426 . S
O3350 C3296 1.334 . S
O3351 C3323 1.412 . S
O3351 C3324 1.393 . S
O3352 C3314 1.435 . S
O3352 C3349 1.458 . S
O3353 C3305 1.468 . S
O3353 C3306 1.408 . S
H3354 C3295 0.980 . S
H3355 C3294 0.959 . S
H3356 C3294 0.959 . S
H3357 C3294 0.960 . S
H3358 C3297 0.929 . S
H3359 C3301 0.929 . S
H3360 C3302 0.959 . S
H3361 C3302 0.961 . S
H3362 C3302 0.961 . S
H3363 C3303 0.960 . S
H3364 C3303 0.960 . S
H3365 C3303 0.961 . S
H3366 C3305 0.980 . S
H3367 C3304 0.961 . S
H3368 C3304 0.960 . S
H3369 C3304 0.959 . S
H3370 C3307 0.930 . S
H3371 C3311 0.931 . S
H3372 C3312 0.959 . S
H3373 C3312 0.961 . S
H3374 C3312 0.959 . S
H3375 C3313 0.960 . S
H3376 C3313 0.960 . S
H3377 C3313 0.960 . S
H3378 C3349 0.980 . S
H3379 C3315 0.930 . S
H3380 C3319 0.930 . S
H3381 C3320 0.961 . S
H3382 C3320 0.960 . S
H3383 C3320 0.958 . S
H3384 C3321 0.961 . S
H3385 C3321 0.960 . S
H3386 C3321 0.960 . S
H3387 C3323 0.980 . S
H3388 C3322 0.961 . S
H3389 C3322 0.961 . S
H3390 C3322 0.959 . S
H3391 C3325 0.932 . S
H3392 C3329 0.929 . S
H3393 C3330 0.961 . S
H3394 C3330 0.959 . S
H3395 C3330 0.959 . S
H3396 C3331 0.960 . S
H3397 C3331 0.962 . S
H3398 C3331 0.961 . S
H3399 C3333 0.929 . S
H3400 C3336 0.930 . S
H3401 C3337 0.929 . S
H3402 C3340 0.930 . S
H3403 C3343 0.929 . S
H3404 C3344 0.930 . S
H3405 C3348 0.962 . S
H3406 C3348 0.959 . S
H3407 C3348 0.958 . S
C3408 C3409 1.560 . S
C3408 H3469 0.959 . S
C3408 H3470 0.959 . S
C3408 H3471 0.960 . S
C3409 C3408 1.560 . S
C3409 O3464 1.426 . S
C3409 H3468 0.980 . S
C3410 C3411 1.407 . S
C3410 C3415 1.418 . S
C3410 O3464 1.334 . S
C3411 C3410 1.407 . S
C3411 C3412 1.360 . S
C3411 H3472 0.929 . S
C3412 C3411 1.360 . S
C3412 C3413 1.401 . S
C3412 C3416 1.527 . S
C3413 C3412 1.401 . S
C3413 C3414 1.405 . S
C3413 C3446 1.587 . S
C3414 C3413 1.405 . S
C3414 C3415 1.332 . S
C3414 C3417 1.496 . S
C3415 C3410 1.418 . S
C3415 C3414 1.332 . S
C3415 H3473 0.929 . S
C3416 C3412 1.527 . S
C3416 H3474 0.959 . S
C3416 H3475 0.961 . S
C3416 H3476 0.961 . S
C3417 C3414 1.496 . S
C3417 H3477 0.960 . S
C3417 H3478 0.960 . S
C3417 H3479 0.961 . S
C3418 C3419 1.517 . S
C3418 H3481 0.961 . S
C3418 H3482 0.960 . S
C3418 H3483 0.959 . S
C3419 C3418 1.517 . S
C3419 O3467 1.468 . S
C3419 H3480 0.980 . S
C3420 C3421 1.349 . S
C3420 C3425 1.367 . S
C3420 O3467 1.408 . S
C3421 C3420 1.349 . S
C3421 C3422 1.407 . S
C3421 H3484 0.930 . S
C3422 C3421 1.407 . S
C3422 C3423 1.449 . S
C3422 C3426 1.535 . S
C3423 C3422 1.449 . S
C3423 C3424 1.384 . S
C3423 C3448 1.553 . S
C3424 C3423 1.384 . S
C3424 C3425 1.364 . S
C3424 C3427 1.450 . S
C3425 C3420 1.367 . S
C3425 C3424 1.364 . S
C3425 H3485 0.931 . S
C3426 C3422 1.535 . S
C3426 H3486 0.959 . S
C3426 H3487 0.961 . S
C3426 H3488 0.959 . S
C3427 C3424 1.450 . S
C3427 H3489 0.960 . S
C3427 H3490 0.960 . S
C3427 H3491 0.960 . S
C3428 C3429 1.309 . S
C3428 C3433 1.304 . S
C3428 O3466 1.435 . S
C3429 C3428 1.309 . S
C3429 C3430 1.476 . S
C3429 H3493 0.930 . S
C3430 C3429 1.476 . S
C3430 C3431 1.400 . S
C3430 C3434 1.567 . S
C3431 C3430 1.400 . S
C3431 C3432 1.373 . S
C3431 C3453 1.432 . S
C3432 C3431 1.373 . S
C3432 C3433 1.339 . S
C3432 C3435 1.530 . S
C3433 C3428 1.304 . S
C3433 C3432 1.339 . S
C3433 H3494 0.930 . S
C3434 C3430 1.567 . S
C3434 H3495 0.961 . S
C3434 H3496 0.960 . S
C3434 H3497 0.958 . S
C3435 C3432 1.530 . S
C3435 H3498 0.961 . S
C3435 H3499 0.960 . S
C3435 H3500 0.960 . S
C3436 C3437 1.530 . S
C3436 H3502 0.961 . S
C3436 H3503 0.961 . S
C3436 H3504 0.959 . S
C3437 C3436 1.530 . S
C3437 O3465 1.412 . S
C3437 H3501 0.980 . S
C3438 C3439 1.288 . S
C3438 C3443 1.377 . S
C3438 O3465 1.393 . S
C3439 C3438 1.288 . S
C3439 C3440 1.369 . S
C3439 H3505 0.932 . S
C3440 C3439 1.369 . S
C3440 C3441 1.398 . S
C3440 C3444 1.527 . S
C3441 C3440 1.398 . S
C3441 C3442 1.380 . S
C3441 C3455 1.497 . S
C3442 C3441 1.380 . S
C3442 C3443 1.383 . S
C3442 C3445 1.603 . S
C3443 C3438 1.377 . S
C3443 C3442 1.383 . S
C3443 H3506 0.929 . S
C3444 C3440 1.527 . S
C3444 H3507 0.961 . S
C3444 H3508 0.959 . S
C3444 H3509 0.959 . S
C3445 C3442 1.603 . S
C3445 H3510 0.960 . S
C3445 H3511 0.962 . S
C3445 H3512 0.961 . S
C3446 C3413 1.587 . S
C3446 C3447 1.360 . S
C3446 C3459 1.412 . S
C3447 C3446 1.360 . S
C3447 C3448 1.365 . S
C3447 H3513 0.929 . S
C3448 C3423 1.553 . S
C3448 C3447 1.365 . S
C3448 C3449 1.404 . S
C3449 C3448 1.404 . S
C3449 C3450 1.395 . S
C3449 C3460 1.451 . S
C3450 C3449 1.395 . S
C3450 C3451 1.322 . S
C3450 H3514 0.930 . S
C3451 C3450 1.322 . S
C3451 C3452 1.459 . S
C3451 H3515 0.929 . S
C3452 C3451 1.459 . S
C3452 C3453 1.445 . S
C3452 C3461 1.395 . S
C3453 C3431 1.432 . S
C3453 C3452 1.445 . S
C3453 C3454 1.370 . S
C3454 C3453 1.370 . S
C3454 C3455 1.438 . S
C3454 H3516 0.930 . S
C3455 C3441 1.497 . S
C3455 C3454 1.438 . S
C3455 C3456 1.360 . S
C3456 C3455 1.360 . S
C3456 C3457 1.401 . S
C3456 C3461 1.446 . S
C3457 C3456 1.401 . S
C3457 C3458 1.347 . S
C3457 H3517 0.929 . S
C3458 C3457 1.347 . S
C3458 C3459 1.455 . S
C3458 H3518 0.930 . S
C3459 C3446 1.412 . S
C3459 C3458 1.455 . S
C3459 C3460 1.331 . S
C3460 C3449 1.451 . S
C3460 C3459 1.331 . S
C3460 C3461 1.497 . S
C3461 C3452 1.395 . S
C3461 C3456 1.446 . S
C3461 C3460 1.497 . S
C3462 C3463 1.582 . S
C3462 H3519 0.962 . S
C3462 H3520 0.959 . S
C3462 H3521 0.958 . S
C3463 C3462 1.582 . S
C3463 O3466 1.458 . S
C3463 H3492 0.980 . S
O3464 C3409 1.426 . S
O3464 C3410 1.334 . S
O3465 C3437 1.412 . S
O3465 C3438 1.393 . S
O3466 C3428 1.435 . S
O3466 C3463 1.458 . S
O3467 C3419 1.468 . S
O3467 C3420 1.408 . S
H3468 C3409 0.980 . S
H3469 C3408 0.959 . S
H3470 C3408 0.959 . S
H3471 C3408 0.960 . S
H3472 C3411 0.929 . S
H3473 C3415 0.929 . S
H3474 C3416 0.959 . S
H3475 C3416 0.961 . S
H3476 C3416 0.961 . S
H3477 C3417 0.960 . S
H3478 C3417 0.960 . S
H3479 C3417 0.961 . S
H3480 C3419 0.980 . S
H3481 C3418 0.961 . S
H3482 C3418 0.960 . S
H3483 C3418 0.959 . S
H3484 C3421 0.930 . S
H3485 C3425 0.931 . S
H3486 C3426 0.959 . S
H3487 C3426 0.961 . S
H3488 C3426 0.959 . S
H3489 C3427 0.960 . S
H3490 C3427 0.960 . S
H3491 C3427 0.960 . S
H3492 C3463 0.980 . S
H3493 C3429 0.930 . S
H3494 C3433 0.930 . S
H3495 C3434 0.961 . S
H3496 C3434 0.960 . S
H3497 C3434 0.958 . S
H3498 C3435 0.961 . S
H3499 C3435 0.960 . S
H3500 C3435 0.960 . S
H3501 C3437 0.980 . S
H3502 C3436 0.961 . S
H3503 C3436 0.961 . S
H3504 C3436 0.959 . S
H3505 C3439 0.932 . S
H3506 C3443 0.929 . S
H3507 C3444 0.961 . S
H3508 C3444 0.959 . S
H3509 C3444 0.959 . S
H3510 C3445 0.960 . S
H3511 C3445 0.962 . S
H3512 C3445 0.961 . S
H3513 C3447 0.929 . S
H3514 C3450 0.930 . S
H3515 C3451 0.929 . S
H3516 C3454 0.930 . S
H3517 C3457 0.929 . S
H3518 C3458 0.930 . S
H3519 C3462 0.962 . S
H3520 C3462 0.959 . S
H3521 C3462 0.958 . S
C3522 C3523 1.560 . S
C3522 H3583 0.959 . S
C3522 H3584 0.959 . S
C3522 H3585 0.960 . S
C3523 C3522 1.560 . S
C3523 O3578 1.426 . S
C3523 H3582 0.980 . S
C3524 C3525 1.407 . S
C3524 C3529 1.418 . S
C3524 O3578 1.334 . S
C3525 C3524 1.407 . S
C3525 C3526 1.360 . S
C3525 H3586 0.929 . S
C3526 C3525 1.360 . S
C3526 C3527 1.401 . S
C3526 C3530 1.527 . S
C3527 C3526 1.401 . S
C3527 C3528 1.405 . S
C3527 C3560 1.587 . S
C3528 C3527 1.405 . S
C3528 C3529 1.332 . S
C3528 C3531 1.496 . S
C3529 C3524 1.418 . S
C3529 C3528 1.332 . S
C3529 H3587 0.929 . S
C3530 C3526 1.527 . S
C3530 H3588 0.959 . S
C3530 H3589 0.961 . S
C3530 H3590 0.961 . S
C3531 C3528 1.496 . S
C3531 H3591 0.960 . S
C3531 H3592 0.960 . S
C3531 H3593 0.961 . S
C3532 C3533 1.517 . S
C3532 H3595 0.961 . S
C3532 H3596 0.960 . S
C3532 H3597 0.959 . S
C3533 C3532 1.517 . S
C3533 O3581 1.468 . S
C3533 H3594 0.980 . S
C3534 C3535 1.349 . S
C3534 C3539 1.367 . S
C3534 O3581 1.408 . S
C3535 C3534 1.349 . S
C3535 C3536 1.407 . S
C3535 H3598 0.930 . S
C3536 C3535 1.407 . S
C3536 C3537 1.449 . S
C3536 C3540 1.535 . S
C3537 C3536 1.449 . S
C3537 C3538 1.384 . S
C3537 C3562 1.553 . S
C3538 C3537 1.384 . S
C3538 C3539 1.364 . S
C3538 C3541 1.450 . S
C3539 C3534 1.367 . S
C3539 C3538 1.364 . S
C3539 H3599 0.931 . S
C3540 C3536 1.535 . S
C3540 H3600 0.959 . S
C3540 H3601 0.961 . S
C3540 H3602 0.959 . S
C3541 C3538 1.450 . S
C3541 H3603 0.960 . S
C3541 H3604 0.960 . S
C3541 H3605 0.960 . S
C3542 C3543 1.309 . S
C3542 C3547 1.304 . S
C3542 O3580 1.435 . S
C3543 C3542 1.309 . S
C3543 C3544 1.476 . S
C3543 H3607 0.930 . S
C3544 C3543 1.476 . S
C3544 C3545 1.400 . S
C3544 C3548 1.567 . S
C3545 C3544 1.400 . S
C3545 C3546 1.373 . S
C3545 C3567 1.432 . S
C3546 C3545 1.373 . S
C3546 C3547 1.339 . S
C3546 C3549 1.530 . S
C3547 C3542 1.304 . S
C3547 C3546 1.339 . S
C3547 H3608 0.930 . S
C3548 C3544 1.567 . S
C3548 H3609 0.961 . S
C3548 H3610 0.960 . S
C3548 H3611 0.958 . S
C3549 C3546 1.530 . S
C3549 H3612 0.961 . S
C3549 H3613 0.960 . S
C3549 H3614 0.960 . S
C3550 C3551 1.530 . S
C3550 H3616 0.961 . S
C3550 H3617 0.961 . S
C3550 H3618 0.959 . S
C3551 C3550 1.530 . S
C3551 O3579 1.412 . S
C3551 H3615 0.980 . S
C3552 C3553 1.288 . S
C3552 C3557 1.377 . S
C3552 O3579 1.393 . S
C3553 C3552 1.288 . S
C3553 C3554 1.369 . S
C3553 H3619 0.932 . S
C3554 C3553 1.369 . S
C3554 C3555 1.398 . S
C3554 C3558 1.527 . S
C3555 C3554 1.398 . S
C3555 C3556 1.380 . S
C3555 C3569 1.497 . S
C3556 C3555 1.380 . S
C3556 C3557 1.383 . S
C3556 C3559 1.603 . S
C3557 C3552 1.377 . S
C3557 C3556 1.383 . S
C3557 H3620 0.929 . S
C3558 C3554 1.527 . S
C3558 H3621 0.961 . S
C3558 H3622 0.959 . S
C3558 H3623 0.959 . S
C3559 C3556 1.603 . S
C3559 H3624 0.960 . S
C3559 H3625 0.962 . S
C3559 H3626 0.961 . S
C3560 C3527 1.587 . S
C3560 C3561 1.360 . S
C3560 C3573 1.412 . S
C3561 C3560 1.360 . S
C3561 C3562 1.365 . S
C3561 H3627 0.929 . S
C3562 C3537 1.553 . S
C3562 C3561 1.365 . S
C3562 C3563 1.404 . S
C3563 C3562 1.404 . S
C3563 C3564 1.395 . S
C3563 C3574 1.451 . S
C3564 C3563 1.395 . S
C3564 C3565 1.322 . S
C3564 H3628 0.930 . S
C3565 C3564 1.322 . S
C3565 C3566 1.459 . S
C3565 H3629 0.929 . S
C3566 C3565 1.459 . S
C3566 C3567 1.445 . S
C3566 C3575 1.395 . S
C3567 C3545 1.432 . S
C3567 C3566 1.445 . S
C3567 C3568 1.370 . S
C3568 C3567 1.370 . S
C3568 C3569 1.438 . S
C3568 H3630 0.930 . S
C3569 C3555 1.497 . S
C3569 C3568 1.438 . S
C3569 C3570 1.360 . S
C3570 C3569 1.360 . S
C3570 C3571 1.401 . S
C3570 C3575 1.446 . S
C3571 C3570 1.401 . S
C3571 C3572 1.347 . S
C3571 H3631 0.929 . S
C3572 C3571 1.347 . S
C3572 C3573 1.455 . S
C3572 H3632 0.930 . S
C3573 C3560 1.412 . S
C3573 C3572 1.455 . S
C3573 C3574 1.331 . S
C3574 C3563 1.451 . S
C3574 C3573 1.331 . S
C3574 C3575 1.497 . S
C3575 C3566 1.395 . S
C3575 C3570 1.446 . S
C3575 C3574 1.497 . S
C3576 C3577 1.582 . S
C3576 H3633 0.962 . S
C3576 H3634 0.959 . S
C3576 H3635 0.958 . S
C3577 C3576 1.582 . S
C3577 O3580 1.458 . S
C3577 H3606 0.980 . S
O3578 C3523 1.426 . S
O3578 C3524 1.334 . S
O3579 C3551 1.412 . S
O3579 C3552 1.393 . S
O3580 C3542 1.435 . S
O3580 C3577 1.458 . S
O3581 C3533 1.468 . S
O3581 C3534 1.408 . S
H3582 C3523 0.980 . S
H3583 C3522 0.959 . S
H3584 C3522 0.959 . S
H3585 C3522 0.960 . S
H3586 C3525 0.929 . S
H3587 C3529 0.929 . S
H3588 C3530 0.959 . S
H3589 C3530 0.961 . S
H3590 C3530 0.961 . S
H3591 C3531 0.960 . S
H3592 C3531 0.960 . S
H3593 C3531 0.961 . S
H3594 C3533 0.980 . S
H3595 C3532 0.961 . S
H3596 C3532 0.960 . S
H3597 C3532 0.959 . S
H3598 C3535 0.930 . S
H3599 C3539 0.931 . S
H3600 C3540 0.959 . S
H3601 C3540 0.961 . S
H3602 C3540 0.959 . S
H3603 C3541 0.960 . S
H3604 C3541 0.960 . S
H3605 C3541 0.960 . S
H3606 C3577 0.980 . S
H3607 C3543 0.930 . S
H3608 C3547 0.930 . S
H3609 C3548 0.961 . S
H3610 C3548 0.960 . S
H3611 C3548 0.958 . S
H3612 C3549 0.961 . S
H3613 C3549 0.960 . S
H3614 C3549 0.960 . S
H3615 C3551 0.980 . S
H3616 C3550 0.961 . S
H3617 C3550 0.961 . S
H3618 C3550 0.959 . S
H3619 C3553 0.932 . S
H3620 C3557 0.929 . S
H3621 C3558 0.961 . S
H3622 C3558 0.959 . S
H3623 C3558 0.959 . S
H3624 C3559 0.960 . S
H3625 C3559 0.962 . S
H3626 C3559 0.961 . S
H3627 C3561 0.929 . S
H3628 C3564 0.930 . S
H3629 C3565 0.929 . S
H3630 C3568 0.930 . S
H3631 C3571 0.929 . S
H3632 C3572 0.930 . S
H3633 C3576 0.962 . S
H3634 C3576 0.959 . S
H3635 C3576 0.958 . S
C3636 C3637 1.369 . S
C3636 C3638 1.419 . S
C3636 H3640 0.930 . S
C3637 C3636 1.369 . S
C3637 C3646 1.429 . S
C3638 C3636 1.419 . S
C3638 C3639 1.363 . S
C3638 H3641 0.929 . S
C3639 C3638 1.363 . S
C3639 C3645 1.428 . S
H3640 C3636 0.930 . S
H3641 C3638 0.929 . S
S3642 N3643 1.613 . S
S3642 N3644 1.610 . S
N3643 S3642 1.613 . S
N3643 C3646 1.350 . S
N3644 S3642 1.610 . S
N3644 C3645 1.351 . S
C3645 C3639 1.428 . S
C3645 N3644 1.351 . S
C3645 C3646 1.434 . S
C3646 C3637 1.429 . S
C3646 N3643 1.350 . S
C3646 C3645 1.434 . S
C3647 C3648 1.369 . S
C3647 C3649 1.419 . S
C3647 H3651 0.930 . S
C3648 C3647 1.369 . S
C3648 C3657 1.429 . S
C3649 C3647 1.419 . S
C3649 C3650 1.363 . S
C3649 H3652 0.929 . S
C3650 C3649 1.363 . S
C3650 C3656 1.428 . S
H3651 C3647 0.930 . S
H3652 C3649 0.929 . S
S3653 N3654 1.613 . S
S3653 N3655 1.610 . S
N3654 S3653 1.613 . S
N3654 C3657 1.350 . S
N3655 S3653 1.610 . S
N3655 C3656 1.351 . S
C3656 C3650 1.428 . S
C3656 N3655 1.351 . S
C3656 C3657 1.434 . S
C3657 C3648 1.429 . S
C3657 N3654 1.350 . S
C3657 C3656 1.434 . S
C3658 C3659 1.369 . S
C3658 C3660 1.419 . S
C3658 H3662 0.930 . S
C3659 C3658 1.369 . S
C3659 C3668 1.429 . S
C3660 C3658 1.419 . S
C3660 C3661 1.363 . S
C3660 H3663 0.929 . S
C3661 C3660 1.363 . S
C3661 C3667 1.428 . S
H3662 C3658 0.930 . S
H3663 C3660 0.929 . S
S3664 N3665 1.613 . S
S3664 N3666 1.610 . S
N3665 S3664 1.613 . S
N3665 C3668 1.350 . S
N3666 S3664 1.610 . S
N3666 C3667 1.351 . S
C3667 C3661 1.428 . S
C3667 N3666 1.351 . S
C3667 C3668 1.434 . S
C3668 C3659 1.429 . S
C3668 N3665 1.350 . S
C3668 C3667 1.434 . S
C3669 C3670 1.369 . S
C3669 C3671 1.419 . S
C3669 H3673 0.930 . S
C3670 C3669 1.369 . S
C3670 C3679 1.429 . S
C3671 C3669 1.419 . S
C3671 C3672 1.363 . S
C3671 H3674 0.929 1_565 S
C3672 C3671 1.363 . S
C3672 C3678 1.428 . S
H3673 C3669 0.930 . S
H3674 C3671 0.929 1_545 S
S3675 N3676 1.613 . S
S3675 N3677 1.610 . S
N3676 S3675 1.613 . S
N3676 C3679 1.350 . S
N3677 S3675 1.610 . S
N3677 C3678 1.351 . S
C3678 C3672 1.428 . S
C3678 N3677 1.351 . S
C3678 C3679 1.434 . S
C3679 C3670 1.429 . S
C3679 N3676 1.350 . S
C3679 C3678 1.434 . S
C3680 C3681 1.369 . S
C3680 C3682 1.419 . S
C3680 H3684 0.930 . S
C3681 C3680 1.369 . S
C3681 C3690 1.429 . S
C3682 C3680 1.419 . S
C3682 C3683 1.363 . S
C3682 H3685 0.929 . S
C3683 C3682 1.363 . S
C3683 C3689 1.428 . S
H3684 C3680 0.930 . S
H3685 C3682 0.929 . S
S3686 N3687 1.613 . S
S3686 N3688 1.610 . S
N3687 S3686 1.613 . S
N3687 C3690 1.350 . S
N3688 S3686 1.610 . S
N3688 C3689 1.351 . S
C3689 C3683 1.428 . S
C3689 N3688 1.351 . S
C3689 C3690 1.434 . S
C3690 C3681 1.429 . S
C3690 N3687 1.350 . S
C3690 C3689 1.434 . S
C3691 C3692 1.369 . S
C3691 C3693 1.419 . S
C3691 H3695 0.930 . S
C3692 C3691 1.369 . S
C3692 C3701 1.429 . S
C3693 C3691 1.419 . S
C3693 C3694 1.363 . S
C3693 H3696 0.929 . S
C3694 C3693 1.363 . S
C3694 C3700 1.428 . S
H3695 C3691 0.930 . S
H3696 C3693 0.929 . S
S3697 N3698 1.613 . S
S3697 N3699 1.610 . S
N3698 S3697 1.613 . S
N3698 C3701 1.350 . S
N3699 S3697 1.610 . S
N3699 C3700 1.351 . S
C3700 C3694 1.428 . S
C3700 N3699 1.351 . S
C3700 C3701 1.434 . S
C3701 C3692 1.429 . S
C3701 N3698 1.350 . S
C3701 C3700 1.434 . S
C3702 C3703 1.369 . S
C3702 C3704 1.419 . S
C3702 H3706 0.930 . S
C3703 C3702 1.369 . S
C3703 C3712 1.429 . S
C3704 C3702 1.419 . S
C3704 C3705 1.363 . S
C3704 H3707 0.929 . S
C3705 C3704 1.363 . S
C3705 C3711 1.428 . S
H3706 C3702 0.930 . S
H3707 C3704 0.929 . S
S3708 N3709 1.612 1_655 S
S3708 N3710 1.609 . S
N3709 S3708 1.612 1_455 S
N3709 C3712 1.350 . S
N3710 S3708 1.609 . S
N3710 C3711 1.351 1_655 S
C3711 C3705 1.428 . S
C3711 N3710 1.351 1_455 S
C3711 C3712 1.434 . S
C3712 C3703 1.429 . S
C3712 N3709 1.350 . S
C3712 C3711 1.434 . S
C3713 C3714 1.369 . S
C3713 C3715 1.419 . S
C3713 H3717 0.930 . S
C3714 C3713 1.369 . S
C3714 C3723 1.429 . S
C3715 C3713 1.419 . S
C3715 C3716 1.363 . S
C3715 H3718 0.929 . S
C3716 C3715 1.363 . S
C3716 C3722 1.428 . S
H3717 C3713 0.930 . S
H3718 C3715 0.929 . S
S3719 N3720 1.613 . S
S3719 N3721 1.610 . S
N3720 S3719 1.613 . S
N3720 C3723 1.350 . S
N3721 S3719 1.610 . S
N3721 C3722 1.351 . S
C3722 C3716 1.428 . S
C3722 N3721 1.351 . S
C3722 C3723 1.434 . S
C3723 C3714 1.429 . S
C3723 N3720 1.350 . S
C3723 C3722 1.434 . S
C3724 C3725 1.369 . S
C3724 C3726 1.419 . S
C3724 H3728 0.930 . S
C3725 C3724 1.369 . S
C3725 C3734 1.429 . S
C3726 C3724 1.419 . S
C3726 C3727 1.363 . S
C3726 H3729 0.929 . S
C3727 C3726 1.363 . S
C3727 C3733 1.428 . S
H3728 C3724 0.930 . S
H3729 C3726 0.929 . S
S3730 N3731 1.613 . S
S3730 N3732 1.610 . S
N3731 S3730 1.613 . S
N3731 C3734 1.350 . S
N3732 S3730 1.610 . S
N3732 C3733 1.351 . S
C3733 C3727 1.428 . S
C3733 N3732 1.351 . S
C3733 C3734 1.434 . S
C3734 C3725 1.429 . S
C3734 N3731 1.350 . S
C3734 C3733 1.434 . S
C3735 C3736 1.369 . S
C3735 C3737 1.417 1_545 S
C3735 H3739 0.930 . S
C3736 C3735 1.369 . S
C3736 C3745 1.429 . S
C3737 C3735 1.417 1_565 S
C3737 C3738 1.324 1_565 S
C3737 H3740 0.973 . S
C3738 C3737 1.324 1_545 S
C3738 C3744 1.428 . S
H3739 C3735 0.930 . S
H3740 C3737 0.973 . S
S3741 N3742 1.613 . S
S3741 N3743 1.610 . S
N3742 S3741 1.613 . S
N3742 C3745 1.350 . S
N3743 S3741 1.610 . S
N3743 C3744 1.351 . S
C3744 C3738 1.428 . S
C3744 N3743 1.351 . S
C3744 C3745 1.434 . S
C3745 C3736 1.429 . S
C3745 N3742 1.350 . S
C3745 C3744 1.434 . S
C3746 C3747 1.369 . S
C3746 C3748 1.419 . S
C3746 H3750 0.930 . S
C3747 C3746 1.369 . S
C3747 C3756 1.429 . S
C3748 C3746 1.419 . S
C3748 C3749 1.363 . S
C3748 H3751 0.929 . S
C3749 C3748 1.363 . S
C3749 C3755 1.428 . S
H3750 C3746 0.930 . S
H3751 C3748 0.929 . S
S3752 N3753 1.613 1_455 S
S3752 N3754 1.610 . S
N3753 S3752 1.613 1_655 S
N3753 C3756 1.350 . S
N3754 S3752 1.610 . S
N3754 C3755 1.351 1_455 S
C3755 C3749 1.428 . S
C3755 N3754 1.351 1_655 S
C3755 C3756 1.434 . S
C3756 C3747 1.429 . S
C3756 N3753 1.350 . S
C3756 C3755 1.434 . S
C3757 C3758 1.369 . S
C3757 C3759 1.419 . S
C3757 H3761 0.930 . S
C3758 C3757 1.369 . S
C3758 C3767 1.429 . S
C3759 C3757 1.419 . S
C3759 C3760 1.363 . S
C3759 H3762 0.929 . S
C3760 C3759 1.363 . S
C3760 C3766 1.428 . S
H3761 C3757 0.930 . S
H3762 C3759 0.929 . S
S3763 N3764 1.613 . S
S3763 N3765 1.610 . S
N3764 S3763 1.613 . S
N3764 C3767 1.350 . S
N3765 S3763 1.610 . S
N3765 C3766 1.351 . S
C3766 C3760 1.428 . S
C3766 N3765 1.351 . S
C3766 C3767 1.434 . S
C3767 C3758 1.429 . S
C3767 N3764 1.350 . S
C3767 C3766 1.434 . S
C3768 C3769 1.369 . S
C3768 C3770 1.419 . S
C3768 H3772 0.930 . S
C3769 C3768 1.369 . S
C3769 C3778 1.429 . S
C3770 C3768 1.419 . S
C3770 C3771 1.363 . S
C3770 H3773 0.929 . S
C3771 C3770 1.363 . S
C3771 C3777 1.428 . S
H3772 C3768 0.930 . S
H3773 C3770 0.929 . S
S3774 N3775 1.613 . S
S3774 N3776 1.610 . S
N3775 S3774 1.613 . S
N3775 C3778 1.350 . S
N3776 S3774 1.610 . S
N3776 C3777 1.351 . S
C3777 C3771 1.428 . S
C3777 N3776 1.351 . S
C3777 C3778 1.434 . S
C3778 C3769 1.429 . S
C3778 N3775 1.350 . S
C3778 C3777 1.434 . S
C3779 C3780 1.369 . S
C3779 C3781 1.419 . S
C3779 H3783 0.930 . S
C3780 C3779 1.369 . S
C3780 C3789 1.429 . S
C3781 C3779 1.419 . S
C3781 C3782 1.363 . S
C3781 H3784 0.929 . S
C3782 C3781 1.363 . S
C3782 C3788 1.428 . S
H3783 C3779 0.930 . S
H3784 C3781 0.929 . S
S3785 N3786 1.613 . S
S3785 N3787 1.610 . S
N3786 S3785 1.613 . S
N3786 C3789 1.350 . S
N3787 S3785 1.610 . S
N3787 C3788 1.351 . S
C3788 C3782 1.428 . S
C3788 N3787 1.351 . S
C3788 C3789 1.434 . S
C3789 C3780 1.429 . S
C3789 N3786 1.350 . S
C3789 C3788 1.434 . S
C3790 C3791 1.369 . S
C3790 C3792 1.419 . S
C3790 H3794 0.930 . S
C3791 C3790 1.369 . S
C3791 C3800 1.429 . S
C3792 C3790 1.419 . S
C3792 C3793 1.363 . S
C3792 H3795 0.929 . S
C3793 C3792 1.363 . S
C3793 C3799 1.428 . S
H3794 C3790 0.930 . S
H3795 C3792 0.929 . S
S3796 N3797 1.613 . S
S3796 N3798 1.610 . S
N3797 S3796 1.613 . S
N3797 C3800 1.350 . S
N3798 S3796 1.610 . S
N3798 C3799 1.351 . S
C3799 C3793 1.428 . S
C3799 N3798 1.351 . S
C3799 C3800 1.434 . S
C3800 C3791 1.429 . S
C3800 N3797 1.350 . S
C3800 C3799 1.434 . S
C3801 C3802 1.369 . S
C3801 C3803 1.419 . S
C3801 H3805 0.930 . S
C3802 C3801 1.369 . S
C3802 C3811 1.429 . S
C3803 C3801 1.419 . S
C3803 C3804 1.363 . S
C3803 H3806 0.929 . S
C3804 C3803 1.363 . S
C3804 C3810 1.428 . S
H3805 C3801 0.930 . S
H3806 C3803 0.929 . S
S3807 N3808 1.613 . S
S3807 N3809 1.610 . S
N3808 S3807 1.613 . S
N3808 C3811 1.350 . S
N3809 S3807 1.610 . S
N3809 C3810 1.351 . S
C3810 C3804 1.428 . S
C3810 N3809 1.351 . S
C3810 C3811 1.434 . S
C3811 C3802 1.429 . S
C3811 N3808 1.350 . S
C3811 C3810 1.434 . S
C3812 C3813 1.369 . S
C3812 C3814 1.419 . S
C3812 H3816 0.930 . S
C3813 C3812 1.369 . S
C3813 C3822 1.429 . S
C3814 C3812 1.419 . S
C3814 C3815 1.363 . S
C3814 H3817 0.929 . S
C3815 C3814 1.363 . S
C3815 C3821 1.428 . S
H3816 C3812 0.930 . S
H3817 C3814 0.929 . S
S3818 N3819 1.613 . S
S3818 N3820 1.610 . S
N3819 S3818 1.613 . S
N3819 C3822 1.350 . S
N3820 S3818 1.610 . S
N3820 C3821 1.351 . S
C3821 C3815 1.428 . S
C3821 N3820 1.351 . S
C3821 C3822 1.434 . S
C3822 C3813 1.429 . S
C3822 N3819 1.350 . S
C3822 C3821 1.434 . S
C3823 C3824 1.369 . S
C3823 C3825 1.419 . S
C3823 H3827 0.930 . S
C3824 C3823 1.369 . S
C3824 C3833 1.429 . S
C3825 C3823 1.419 . S
C3825 C3826 1.363 . S
C3825 H3828 0.929 . S
C3826 C3825 1.363 . S
C3826 C3832 1.428 . S
H3827 C3823 0.930 . S
H3828 C3825 0.929 . S
S3829 N3830 1.613 . S
S3829 N3831 1.610 . S
N3830 S3829 1.613 . S
N3830 C3833 1.350 . S
N3831 S3829 1.610 . S
N3831 C3832 1.351 . S
C3832 C3826 1.428 . S
C3832 N3831 1.351 . S
C3832 C3833 1.434 . S
C3833 C3824 1.429 . S
C3833 N3830 1.350 . S
C3833 C3832 1.434 . S
C3834 C3835 1.369 . S
C3834 C3836 1.419 . S
C3834 H3838 0.930 . S
C3835 C3834 1.369 . S
C3835 C3844 1.429 . S
C3836 C3834 1.419 . S
C3836 C3837 1.363 . S
C3836 H3839 0.929 . S
C3837 C3836 1.363 . S
C3837 C3843 1.428 . S
H3838 C3834 0.930 . S
H3839 C3836 0.929 . S
S3840 N3841 1.613 . S
S3840 N3842 1.610 . S
N3841 S3840 1.613 . S
N3841 C3844 1.350 . S
N3842 S3840 1.610 . S
N3842 C3843 1.351 . S
C3843 C3837 1.428 . S
C3843 N3842 1.351 . S
C3843 C3844 1.434 . S
C3844 C3835 1.429 . S
C3844 N3841 1.350 . S
C3844 C3843 1.434 . S
C3845 C3846 1.369 . S
C3845 C3847 1.419 . S
C3845 H3849 0.930 . S
C3846 C3845 1.369 . S
C3846 C3855 1.429 . S
C3847 C3845 1.419 . S
C3847 C3848 1.363 . S
C3847 H3850 0.929 . S
C3848 C3847 1.363 . S
C3848 C3854 1.428 . S
H3849 C3845 0.930 . S
H3850 C3847 0.929 . S
S3851 N3852 1.613 . S
S3851 N3853 1.610 . S
N3852 S3851 1.613 . S
N3852 C3855 1.350 . S
N3853 S3851 1.610 . S
N3853 C3854 1.351 . S
C3854 C3848 1.428 . S
C3854 N3853 1.351 . S
C3854 C3855 1.434 . S
C3855 C3846 1.429 . S
C3855 N3852 1.350 . S
C3855 C3854 1.434 . S
C3856 C3857 1.369 . S
C3856 C3858 1.419 . S
C3856 H3860 0.930 . S
C3857 C3856 1.369 . S
C3857 C3866 1.429 . S
C3858 C3856 1.419 . S
C3858 C3859 1.363 . S
C3858 H3861 0.929 . S
C3859 C3858 1.363 . S
C3859 C3865 1.428 . S
H3860 C3856 0.930 . S
H3861 C3858 0.929 . S
S3862 N3863 1.613 . S
S3862 N3864 1.610 . S
N3863 S3862 1.613 . S
N3863 C3866 1.350 . S
N3864 S3862 1.610 . S
N3864 C3865 1.351 . S
C3865 C3859 1.428 . S
C3865 N3864 1.351 . S
C3865 C3866 1.434 . S
C3866 C3857 1.429 . S
C3866 N3863 1.350 . S
C3866 C3865 1.434 . S
C3867 C3868 1.369 . S
C3867 C3869 1.419 . S
C3867 H3871 0.930 . S
C3868 C3867 1.369 . S
C3868 C3877 1.429 . S
C3869 C3867 1.419 . S
C3869 C3870 1.363 . S
C3869 H3872 0.929 . S
C3870 C3869 1.363 . S
C3870 C3876 1.428 . S
H3871 C3867 0.930 . S
H3872 C3869 0.929 . S
S3873 N3874 1.613 . S
S3873 N3875 1.610 . S
N3874 S3873 1.613 . S
N3874 C3877 1.350 . S
N3875 S3873 1.610 . S
N3875 C3876 1.351 . S
C3876 C3870 1.428 . S
C3876 N3875 1.351 . S
C3876 C3877 1.434 . S
C3877 C3868 1.429 . S
C3877 N3874 1.350 . S
C3877 C3876 1.434 . S
C3878 C3879 1.369 . S
C3878 C3880 1.419 . S
C3878 H3882 0.930 . S
C3879 C3878 1.369 . S
C3879 C3888 1.429 . S
C3880 C3878 1.419 . S
C3880 C3881 1.363 . S
C3880 H3883 0.929 . S
C3881 C3880 1.363 . S
C3881 C3887 1.428 . S
H3882 C3878 0.930 . S
H3883 C3880 0.929 . S
S3884 N3885 1.613 . S
S3884 N3886 1.610 . S
N3885 S3884 1.613 . S
N3885 C3888 1.350 . S
N3886 S3884 1.610 . S
N3886 C3887 1.351 . S
C3887 C3881 1.428 . S
C3887 N3886 1.351 . S
C3887 C3888 1.434 . S
C3888 C3879 1.429 . S
C3888 N3885 1.350 . S
C3888 C3887 1.434 . S
C3889 C3890 1.369 . S
C3889 C3891 1.419 . S
C3889 H3893 0.930 . S
C3890 C3889 1.369 . S
C3890 C3899 1.429 . S
C3891 C3889 1.419 . S
C3891 C3892 1.363 . S
C3891 H3894 0.929 . S
C3892 C3891 1.363 . S
C3892 C3898 1.428 . S
H3893 C3889 0.930 . S
H3894 C3891 0.929 . S
S3895 N3896 1.613 . S
S3895 N3897 1.610 . S
N3896 S3895 1.613 . S
N3896 C3899 1.350 . S
N3897 S3895 1.610 . S
N3897 C3898 1.351 . S
C3898 C3892 1.428 . S
C3898 N3897 1.351 . S
C3898 C3899 1.434 . S
C3899 C3890 1.429 . S
C3899 N3896 1.350 . S
C3899 C3898 1.434 . S
C3900 C3901 1.369 . S
C3900 C3902 1.419 . S
C3900 H3904 0.930 . S
C3901 C3900 1.369 . S
C3901 C3910 1.429 . S
C3902 C3900 1.419 . S
C3902 C3903 1.363 . S
C3902 H3905 0.929 . S
C3903 C3902 1.363 . S
C3903 C3909 1.428 . S
H3904 C3900 0.930 . S
H3905 C3902 0.929 . S
S3906 N3907 1.613 . S
S3906 N3908 1.610 . S
N3907 S3906 1.613 . S
N3907 C3910 1.350 . S
N3908 S3906 1.610 . S
N3908 C3909 1.351 . S
C3909 C3903 1.428 . S
C3909 N3908 1.351 . S
C3909 C3910 1.434 . S
C3910 C3901 1.429 . S
C3910 N3907 1.350 . S
C3910 C3909 1.434 . S
C3911 C3912 1.369 . S
C3911 C3913 1.419 . S
C3911 H3915 0.930 . S
C3912 C3911 1.369 . S
C3912 C3921 1.429 . S
C3913 C3911 1.419 . S
C3913 C3914 1.363 . S
C3913 H3916 0.929 . S
C3914 C3913 1.363 . S
C3914 C3920 1.428 . S
H3915 C3911 0.930 . S
H3916 C3913 0.929 . S
S3917 N3918 1.613 . S
S3917 N3919 1.610 . S
N3918 S3917 1.613 . S
N3918 C3921 1.350 . S
N3919 S3917 1.610 . S
N3919 C3920 1.351 . S
C3920 C3914 1.428 . S
C3920 N3919 1.351 . S
C3920 C3921 1.434 . S
C3921 C3912 1.429 . S
C3921 N3918 1.350 . S
C3921 C3920 1.434 . S
C3922 C3923 1.369 . S
C3922 C3924 1.419 . S
C3922 H3926 0.930 . S
C3923 C3922 1.369 . S
C3923 C3932 1.429 . S
C3924 C3922 1.419 . S
C3924 C3925 1.363 . S
C3924 H3927 0.929 . S
C3925 C3924 1.363 . S
C3925 C3931 1.428 . S
H3926 C3922 0.930 . S
H3927 C3924 0.929 . S
S3928 N3929 1.613 . S
S3928 N3930 1.610 . S
N3929 S3928 1.613 . S
N3929 C3932 1.350 . S
N3930 S3928 1.610 . S
N3930 C3931 1.351 . S
C3931 C3925 1.428 . S
C3931 N3930 1.351 . S
C3931 C3932 1.434 . S
C3932 C3923 1.429 . S
C3932 N3929 1.350 . S
C3932 C3931 1.434 . S
C3933 C3934 1.369 . S
C3933 C3935 1.419 . S
C3933 H3937 0.930 . S
C3934 C3933 1.369 . S
C3934 C3943 1.429 . S
C3935 C3933 1.419 . S
C3935 C3936 1.363 . S
C3935 H3938 0.929 . S
C3936 C3935 1.363 . S
C3936 C3942 1.428 . S
H3937 C3933 0.930 . S
H3938 C3935 0.929 . S
S3939 N3940 1.613 . S
S3939 N3941 1.610 . S
N3940 S3939 1.613 . S
N3940 C3943 1.350 . S
N3941 S3939 1.610 . S
N3941 C3942 1.351 . S
C3942 C3936 1.428 . S
C3942 N3941 1.351 . S
C3942 C3943 1.434 . S
C3943 C3934 1.429 . S
C3943 N3940 1.350 . S
C3943 C3942 1.434 . S
C3944 C3945 1.369 . S
C3944 C3946 1.419 . S
C3944 H3948 0.930 . S
C3945 C3944 1.369 . S
C3945 C3954 1.429 . S
C3946 C3944 1.419 . S
C3946 C3947 1.363 . S
C3946 H3949 0.929 . S
C3947 C3946 1.363 . S
C3947 C3953 1.428 . S
H3948 C3944 0.930 . S
H3949 C3946 0.929 . S
S3950 N3951 1.613 . S
S3950 N3952 1.610 . S
N3951 S3950 1.613 . S
N3951 C3954 1.350 . S
N3952 S3950 1.610 . S
N3952 C3953 1.351 . S
C3953 C3947 1.428 . S
C3953 N3952 1.351 . S
C3953 C3954 1.434 . S
C3954 C3945 1.429 . S
C3954 N3951 1.350 . S
C3954 C3953 1.434 . S
C3955 C3956 1.369 . S
C3955 C3957 1.419 . S
C3955 H3959 0.930 . S
C3956 C3955 1.369 . S
C3956 C3965 1.429 . S
C3957 C3955 1.419 . S
C3957 C3958 1.363 . S
C3957 H3960 0.929 . S
C3958 C3957 1.363 . S
C3958 C3964 1.428 . S
H3959 C3955 0.930 . S
H3960 C3957 0.929 . S
S3961 N3962 1.613 . S
S3961 N3963 1.610 . S
N3962 S3961 1.613 . S
N3962 C3965 1.350 . S
N3963 S3961 1.610 . S
N3963 C3964 1.351 . S
C3964 C3958 1.428 . S
C3964 N3963 1.351 . S
C3964 C3965 1.434 . S
C3965 C3956 1.429 . S
C3965 N3962 1.350 . S
C3965 C3964 1.434 . S
C3966 C3967 1.369 . S
C3966 C3968 1.419 . S
C3966 H3970 0.930 . S
C3967 C3966 1.369 . S
C3967 C3976 1.429 . S
C3968 C3966 1.419 . S
C3968 C3969 1.363 . S
C3968 H3971 0.929 . S
C3969 C3968 1.363 . S
C3969 C3975 1.428 . S
H3970 C3966 0.930 . S
H3971 C3968 0.929 . S
S3972 N3973 1.613 . S
S3972 N3974 1.610 . S
N3973 S3972 1.613 . S
N3973 C3976 1.350 . S
N3974 S3972 1.610 . S
N3974 C3975 1.351 . S
C3975 C3969 1.428 . S
C3975 N3974 1.351 . S
C3975 C3976 1.434 . S
C3976 C3967 1.429 . S
C3976 N3973 1.350 . S
C3976 C3975 1.434 . S
C3977 C3978 1.369 . S
C3977 C3979 1.419 . S
C3977 H3981 0.930 . S
C3978 C3977 1.369 . S
C3978 C3987 1.429 . S
C3979 C3977 1.419 . S
C3979 C3980 1.363 . S
C3979 H3982 0.929 . S
C3980 C3979 1.363 . S
C3980 C3986 1.428 . S
H3981 C3977 0.930 . S
H3982 C3979 0.929 . S
S3983 N3984 1.613 . S
S3983 N3985 1.610 . S
N3984 S3983 1.613 . S
N3984 C3987 1.350 . S
N3985 S3983 1.610 . S
N3985 C3986 1.351 . S
C3986 C3980 1.428 . S
C3986 N3985 1.351 . S
C3986 C3987 1.434 . S
C3987 C3978 1.429 . S
C3987 N3984 1.350 . S
C3987 C3986 1.434 . S
C3988 C3989 1.369 . S
C3988 C3990 1.419 . S
C3988 H3992 0.930 . S
C3989 C3988 1.369 . S
C3989 C3998 1.429 . S
C3990 C3988 1.419 . S
C3990 C3991 1.363 . S
C3990 H3993 0.929 . S
C3991 C3990 1.363 . S
C3991 C3997 1.428 . S
H3992 C3988 0.930 . S
H3993 C3990 0.929 . S
S3994 N3995 1.613 . S
S3994 N3996 1.610 . S
N3995 S3994 1.613 . S
N3995 C3998 1.350 . S
N3996 S3994 1.610 . S
N3996 C3997 1.351 . S
C3997 C3991 1.428 . S
C3997 N3996 1.351 . S
C3997 C3998 1.434 . S
C3998 C3989 1.429 . S
C3998 N3995 1.350 . S
C3998 C3997 1.434 . S
C3999 C4000 1.369 . S
C3999 C4001 1.419 . S
C3999 H4003 0.930 . S
C4000 C3999 1.369 . S
C4000 C4009 1.429 . S
C4001 C3999 1.419 . S
C4001 C4002 1.363 . S
C4001 H4004 0.929 . S
C4002 C4001 1.363 . S
C4002 C4008 1.428 . S
H4003 C3999 0.930 . S
H4004 C4001 0.929 . S
S4005 N4006 1.613 . S
S4005 N4007 1.610 . S
N4006 S4005 1.613 . S
N4006 C4009 1.350 . S
N4007 S4005 1.610 . S
N4007 C4008 1.351 . S
C4008 C4002 1.428 . S
C4008 N4007 1.351 . S
C4008 C4009 1.434 . S
C4009 C4000 1.429 . S
C4009 N4006 1.350 . S
C4009 C4008 1.434 . S
C4010 C4011 1.369 . S
C4010 C4012 1.419 . S
C4010 H4014 0.930 . S
C4011 C4010 1.369 . S
C4011 C4020 1.429 . S
C4012 C4010 1.419 . S
C4012 C4013 1.363 . S
C4012 H4015 0.929 . S
C4013 C4012 1.363 . S
C4013 C4019 1.428 . S
H4014 C4010 0.930 . S
H4015 C4012 0.929 . S
S4016 N4017 1.613 . S
S4016 N4018 1.610 . S
N4017 S4016 1.613 . S
N4017 C4020 1.350 . S
N4018 S4016 1.610 . S
N4018 C4019 1.351 . S
C4019 C4013 1.428 . S
C4019 N4018 1.351 . S
C4019 C4020 1.434 . S
C4020 C4011 1.429 . S
C4020 N4017 1.350 . S
C4020 C4019 1.434 . S
C4021 C4022 1.369 . S
C4021 C4023 1.419 . S
C4021 H4025 0.930 . S
C4022 C4021 1.369 . S
C4022 C4031 1.429 . S
C4023 C4021 1.419 . S
C4023 C4024 1.363 . S
C4023 H4026 0.929 . S
C4024 C4023 1.363 . S
C4024 C4030 1.428 . S
H4025 C4021 0.930 . S
H4026 C4023 0.929 . S
S4027 N4028 1.613 . S
S4027 N4029 1.610 . S
N4028 S4027 1.613 . S
N4028 C4031 1.350 . S
N4029 S4027 1.610 . S
N4029 C4030 1.351 . S
C4030 C4024 1.428 . S
C4030 N4029 1.351 . S
C4030 C4031 1.434 . S
C4031 C4022 1.429 . S
C4031 N4028 1.350 . S
C4031 C4030 1.434 . S
C4032 C4033 1.369 . S
C4032 C4034 1.419 . S
C4032 H4036 0.930 . S
C4033 C4032 1.369 . S
C4033 C4042 1.429 . S
C4034 C4032 1.419 . S
C4034 C4035 1.363 . S
C4034 H4037 0.929 . S
C4035 C4034 1.363 . S
C4035 C4041 1.428 . S
H4036 C4032 0.930 . S
H4037 C4034 0.929 . S
S4038 N4039 1.613 . S
S4038 N4040 1.610 . S
N4039 S4038 1.613 . S
N4039 C4042 1.350 . S
N4040 S4038 1.610 . S
N4040 C4041 1.351 . S
C4041 C4035 1.428 . S
C4041 N4040 1.351 . S
C4041 C4042 1.434 . S
C4042 C4033 1.429 . S
C4042 N4039 1.350 . S
C4042 C4041 1.434 . S
C4043 C4044 1.369 . S
C4043 C4045 1.419 . S
C4043 H4047 0.930 . S
C4044 C4043 1.369 . S
C4044 C4053 1.429 . S
C4045 C4043 1.419 . S
C4045 C4046 1.363 . S
C4045 H4048 0.929 . S
C4046 C4045 1.363 . S
C4046 C4052 1.428 . S
H4047 C4043 0.930 . S
H4048 C4045 0.929 . S
S4049 N4050 1.613 . S
S4049 N4051 1.610 . S
N4050 S4049 1.613 . S
N4050 C4053 1.350 . S
N4051 S4049 1.610 . S
N4051 C4052 1.351 . S
C4052 C4046 1.428 . S
C4052 N4051 1.351 . S
C4052 C4053 1.434 . S
C4053 C4044 1.429 . S
C4053 N4050 1.350 . S
C4053 C4052 1.434 . S
C4054 C4055 1.369 . S
C4054 C4056 1.419 . S
C4054 H4058 0.930 . S
C4055 C4054 1.369 . S
C4055 C4064 1.429 . S
C4056 C4054 1.419 . S
C4056 C4057 1.363 . S
C4056 H4059 0.929 . S
C4057 C4056 1.363 . S
C4057 C4063 1.428 . S
H4058 C4054 0.930 . S
H4059 C4056 0.929 . S
S4060 N4061 1.613 . S
S4060 N4062 1.610 . S
N4061 S4060 1.613 . S
N4061 C4064 1.350 . S
N4062 S4060 1.610 . S
N4062 C4063 1.351 . S
C4063 C4057 1.428 . S
C4063 N4062 1.351 . S
C4063 C4064 1.434 . S
C4064 C4055 1.429 . S
C4064 N4061 1.350 . S
C4064 C4063 1.434 . S
C4065 C4066 1.369 . S
C4065 C4067 1.419 . S
C4065 H4069 0.930 . S
C4066 C4065 1.369 . S
C4066 C4075 1.429 . S
C4067 C4065 1.419 . S
C4067 C4068 1.363 . S
C4067 H4070 0.929 . S
C4068 C4067 1.363 . S
C4068 C4074 1.428 . S
H4069 C4065 0.930 . S
H4070 C4067 0.929 . S
S4071 N4072 1.613 . S
S4071 N4073 1.610 . S
N4072 S4071 1.613 . S
N4072 C4075 1.350 . S
N4073 S4071 1.610 . S
N4073 C4074 1.351 . S
C4074 C4068 1.428 . S
C4074 N4073 1.351 . S
C4074 C4075 1.434 . S
C4075 C4066 1.429 . S
C4075 N4072 1.350 . S
C4075 C4074 1.434 . S
C4076 C4077 1.369 . S
C4076 C4078 1.419 . S
C4076 H4080 0.930 . S
C4077 C4076 1.369 . S
C4077 C4086 1.429 . S
C4078 C4076 1.419 . S
C4078 C4079 1.363 . S
C4078 H4081 0.929 . S
C4079 C4078 1.363 . S
C4079 C4085 1.428 . S
H4080 C4076 0.930 . S
H4081 C4078 0.929 . S
S4082 N4083 1.613 . S
S4082 N4084 1.610 . S
N4083 S4082 1.613 . S
N4083 C4086 1.350 . S
N4084 S4082 1.610 . S
N4084 C4085 1.351 . S
C4085 C4079 1.428 . S
C4085 N4084 1.351 . S
C4085 C4086 1.434 . S
C4086 C4077 1.429 . S
C4086 N4083 1.350 . S
C4086 C4085 1.434 . S
C4087 C4088 1.369 . S
C4087 C4089 1.419 . S
C4087 H4091 0.930 . S
C4088 C4087 1.369 . S
C4088 C4097 1.429 . S
C4089 C4087 1.419 . S
C4089 C4090 1.363 . S
C4089 H4092 0.929 . S
C4090 C4089 1.363 . S
C4090 C4096 1.428 . S
H4091 C4087 0.930 . S
H4092 C4089 0.929 . S
S4093 N4094 1.613 1_554 S
S4093 N4095 1.610 1_554 S
N4094 S4093 1.613 1_556 S
N4094 C4097 1.350 . S
N4095 S4093 1.610 1_556 S
N4095 C4096 1.351 . S
C4096 C4090 1.428 . S
C4096 N4095 1.351 . S
C4096 C4097 1.434 . S
C4097 C4088 1.429 . S
C4097 N4094 1.350 . S
C4097 C4096 1.434 . S
C4098 C4099 1.369 . S
C4098 C4100 1.419 . S
C4098 H4102 0.930 . S
C4099 C4098 1.369 . S
C4099 C4108 1.429 . S
C4100 C4098 1.419 . S
C4100 C4101 1.363 . S
C4100 H4103 0.929 . S
C4101 C4100 1.363 . S
C4101 C4107 1.428 . S
H4102 C4098 0.930 . S
H4103 C4100 0.929 . S
S4104 N4105 1.613 . S
S4104 N4106 1.610 . S
N4105 S4104 1.613 . S
N4105 C4108 1.350 . S
N4106 S4104 1.610 . S
N4106 C4107 1.351 . S
C4107 C4101 1.428 . S
C4107 N4106 1.351 . S
C4107 C4108 1.434 . S
C4108 C4099 1.429 . S
C4108 N4105 1.350 . S
C4108 C4107 1.434 . S
C4109 C4110 1.369 . S
C4109 C4111 1.419 . S
C4109 H4113 0.930 . S
C4110 C4109 1.369 . S
C4110 C4119 1.429 . S
C4111 C4109 1.419 . S
C4111 C4112 1.363 . S
C4111 H4114 0.929 . S
C4112 C4111 1.363 . S
C4112 C4118 1.428 . S
H4113 C4109 0.930 . S
H4114 C4111 0.929 . S
S4115 N4116 1.613 . S
S4115 N4117 1.610 . S
N4116 S4115 1.613 . S
N4116 C4119 1.350 . S
N4117 S4115 1.610 . S
N4117 C4118 1.351 . S
C4118 C4112 1.428 . S
C4118 N4117 1.351 . S
C4118 C4119 1.434 . S
C4119 C4110 1.429 . S
C4119 N4116 1.350 . S
C4119 C4118 1.434 . S
C4120 C4121 1.369 . S
C4120 C4122 1.419 . S
C4120 H4124 0.930 . S
C4121 C4120 1.369 . S
C4121 C4130 1.429 . S
C4122 C4120 1.419 . S
C4122 C4123 1.363 . S
C4122 H4125 0.929 . S
C4123 C4122 1.363 . S
C4123 C4129 1.428 . S
H4124 C4120 0.930 . S
H4125 C4122 0.929 . S
S4126 N4127 1.613 . S
S4126 N4128 1.610 . S
N4127 S4126 1.613 . S
N4127 C4130 1.350 . S
N4128 S4126 1.610 . S
N4128 C4129 1.351 . S
C4129 C4123 1.428 . S
C4129 N4128 1.351 . S
C4129 C4130 1.434 . S
C4130 C4121 1.429 . S
C4130 N4127 1.350 . S
C4130 C4129 1.434 . S
C4131 C4132 1.369 . S
C4131 C4133 1.419 . S
C4131 H4135 0.930 . S
C4132 C4131 1.369 . S
C4132 C4141 1.429 . S
C4133 C4131 1.419 . S
C4133 C4134 1.363 . S
C4133 H4136 0.929 . S
C4134 C4133 1.363 . S
C4134 C4140 1.428 . S
H4135 C4131 0.930 . S
H4136 C4133 0.929 . S
S4137 N4138 1.613 . S
S4137 N4139 1.610 . S
N4138 S4137 1.613 . S
N4138 C4141 1.350 . S
N4139 S4137 1.610 . S
N4139 C4140 1.351 . S
C4140 C4134 1.428 . S
C4140 N4139 1.351 . S
C4140 C4141 1.434 . S
C4141 C4132 1.429 . S
C4141 N4138 1.350 . S
C4141 C4140 1.434 . S
C4142 C4143 1.369 . S
C4142 C4144 1.419 . S
C4142 H4146 0.930 . S
C4143 C4142 1.369 . S
C4143 C4152 1.429 . S
C4144 C4142 1.419 . S
C4144 C4145 1.363 . S
C4144 H4147 0.929 . S
C4145 C4144 1.363 . S
C4145 C4151 1.428 . S
H4146 C4142 0.930 . S
H4147 C4144 0.929 . S
S4148 N4149 1.613 . S
S4148 N4150 1.610 . S
N4149 S4148 1.613 . S
N4149 C4152 1.350 . S
N4150 S4148 1.610 . S
N4150 C4151 1.351 . S
C4151 C4145 1.428 . S
C4151 N4150 1.351 . S
C4151 C4152 1.434 . S
C4152 C4143 1.429 . S
C4152 N4149 1.350 . S
C4152 C4151 1.434 . S
C4153 C4154 1.369 . S
C4153 C4155 1.419 . S
C4153 H4157 0.930 . S
C4154 C4153 1.369 . S
C4154 C4163 1.429 . S
C4155 C4153 1.419 . S
C4155 C4156 1.363 . S
C4155 H4158 0.929 . S
C4156 C4155 1.363 . S
C4156 C4162 1.428 . S
H4157 C4153 0.930 . S
H4158 C4155 0.929 . S
S4159 N4160 1.613 . S
S4159 N4161 1.610 . S
N4160 S4159 1.613 . S
N4160 C4163 1.350 . S
N4161 S4159 1.610 . S
N4161 C4162 1.351 . S
C4162 C4156 1.428 . S
C4162 N4161 1.351 . S
C4162 C4163 1.434 . S
C4163 C4154 1.429 . S
C4163 N4160 1.350 . S
C4163 C4162 1.434 . S
C4164 C4165 1.369 . S
C4164 C4166 1.419 . S
C4164 H4168 0.930 . S
C4165 C4164 1.369 . S
C4165 C4174 1.429 . S
C4166 C4164 1.419 . S
C4166 C4167 1.363 . S
C4166 H4169 0.929 . S
C4167 C4166 1.363 . S
C4167 C4173 1.428 . S
H4168 C4164 0.930 . S
H4169 C4166 0.929 . S
S4170 N4171 1.613 . S
S4170 N4172 1.610 . S
N4171 S4170 1.613 . S
N4171 C4174 1.350 . S
N4172 S4170 1.610 . S
N4172 C4173 1.351 . S
C4173 C4167 1.428 . S
C4173 N4172 1.351 . S
C4173 C4174 1.434 . S
C4174 C4165 1.429 . S
C4174 N4171 1.350 . S
C4174 C4173 1.434 . S
C4175 C4176 1.369 . S
C4175 C4177 1.419 . S
C4175 H4179 0.930 . S
C4176 C4175 1.369 . S
C4176 C4185 1.429 . S
C4177 C4175 1.419 . S
C4177 C4178 1.363 . S
C4177 H4180 0.929 . S
C4178 C4177 1.363 . S
C4178 C4184 1.428 . S
H4179 C4175 0.930 . S
H4180 C4177 0.929 . S
S4181 N4182 1.613 . S
S4181 N4183 1.610 . S
N4182 S4181 1.613 . S
N4182 C4185 1.350 . S
N4183 S4181 1.610 . S
N4183 C4184 1.351 . S
C4184 C4178 1.428 . S
C4184 N4183 1.351 . S
C4184 C4185 1.434 . S
C4185 C4176 1.429 . S
C4185 N4182 1.350 . S
C4185 C4184 1.434 . S
C4186 C4187 1.369 . S
C4186 C4188 1.419 . S
C4186 H4190 0.930 . S
C4187 C4186 1.369 . S
C4187 C4196 1.429 . S
C4188 C4186 1.419 . S
C4188 C4189 1.363 . S
C4188 H4191 0.929 . S
C4189 C4188 1.363 . S
C4189 C4195 1.428 . S
H4190 C4186 0.930 . S
H4191 C4188 0.929 . S
S4192 N4193 1.613 . S
S4192 N4194 1.610 . S
N4193 S4192 1.613 . S
N4193 C4196 1.350 . S
N4194 S4192 1.610 . S
N4194 C4195 1.351 . S
C4195 C4189 1.428 . S
C4195 N4194 1.351 . S
C4195 C4196 1.434 . S
C4196 C4187 1.429 . S
C4196 N4193 1.350 . S
C4196 C4195 1.434 . S
C4197 C4198 1.369 . S
C4197 C4199 1.419 . S
C4197 H4201 0.930 . S
C4198 C4197 1.369 . S
C4198 C4207 1.429 . S
C4199 C4197 1.419 . S
C4199 C4200 1.363 . S
C4199 H4202 0.929 . S
C4200 C4199 1.363 . S
C4200 C4206 1.428 1_455 S
H4201 C4197 0.930 . S
H4202 C4199 0.929 . S
S4203 N4204 1.613 . S
S4203 N4205 1.610 . S
N4204 S4203 1.613 . S
N4204 C4207 1.350 1_655 S
N4205 S4203 1.610 . S
N4205 C4206 1.351 . S
C4206 C4200 1.428 1_655 S
C4206 N4205 1.351 . S
C4206 C4207 1.434 1_655 S
C4207 C4198 1.429 . S
C4207 N4204 1.350 1_455 S
C4207 C4206 1.434 1_455 S
C4208 C4209 1.369 . S
C4208 C4210 1.419 . S
C4208 H4212 0.930 . S
C4209 C4208 1.369 . S
C4209 C4218 1.429 . S
C4210 C4208 1.419 . S
C4210 C4211 1.363 . S
C4210 H4213 0.929 . S
C4211 C4210 1.363 . S
C4211 C4217 1.428 . S
H4212 C4208 0.930 . S
H4213 C4210 0.929 . S
S4214 N4215 1.613 . S
S4214 N4216 1.610 . S
N4215 S4214 1.613 . S
N4215 C4218 1.350 . S
N4216 S4214 1.610 . S
N4216 C4217 1.351 . S
C4217 C4211 1.428 . S
C4217 N4216 1.351 . S
C4217 C4218 1.434 . S
C4218 C4209 1.429 . S
C4218 N4215 1.350 . S
C4218 C4217 1.434 . S
C4219 C4220 1.369 . S
C4219 C4221 1.419 . S
C4219 H4223 0.930 . S
C4220 C4219 1.369 . S
C4220 C4229 1.429 . S
C4221 C4219 1.419 . S
C4221 C4222 1.363 . S
C4221 H4224 0.929 . S
C4222 C4221 1.363 . S
C4222 C4228 1.428 . S
H4223 C4219 0.930 . S
H4224 C4221 0.929 . S
S4225 N4226 1.613 . S
S4225 N4227 1.610 . S
N4226 S4225 1.613 . S
N4226 C4229 1.350 . S
N4227 S4225 1.610 . S
N4227 C4228 1.351 . S
C4228 C4222 1.428 . S
C4228 N4227 1.351 . S
C4228 C4229 1.434 . S
C4229 C4220 1.429 . S
C4229 N4226 1.350 . S
C4229 C4228 1.434 . S
C4230 C4231 1.369 . S
C4230 C4232 1.419 . S
C4230 H4234 0.930 . S
C4231 C4230 1.369 . S
C4231 C4240 1.429 1_565 S
C4232 C4230 1.419 . S
C4232 C4233 1.363 . S
C4232 H4235 0.929 . S
C4233 C4232 1.363 . S
C4233 C4239 1.428 1_565 S
H4234 C4230 0.930 . S
H4235 C4232 0.929 . S
S4236 N4237 1.613 . S
S4236 N4238 1.610 . S
N4237 S4236 1.613 . S
N4237 C4240 1.350 . S
N4238 S4236 1.610 . S
N4238 C4239 1.351 . S
C4239 C4233 1.428 1_545 S
C4239 N4238 1.351 . S
C4239 C4240 1.434 . S
C4240 C4231 1.429 1_545 S
C4240 N4237 1.350 . S
C4240 C4239 1.434 . S
C4241 C4242 1.369 . S
C4241 C4243 1.419 . S
C4241 H4245 0.930 . S
C4242 C4241 1.369 . S
C4242 C4251 1.429 1_455 S
C4243 C4241 1.419 . S
C4243 C4244 1.363 . S
C4243 H4246 0.929 . S
C4244 C4243 1.363 . S
C4244 C4250 1.428 1_455 S
H4245 C4241 0.930 . S
H4246 C4243 0.929 . S
S4247 N4248 1.613 . S
S4247 N4249 1.610 . S
N4248 S4247 1.613 . S
N4248 C4251 1.350 . S
N4249 S4247 1.610 . S
N4249 C4250 1.351 . S
C4250 C4244 1.428 1_655 S
C4250 N4249 1.351 . S
C4250 C4251 1.434 . S
C4251 C4242 1.429 1_655 S
C4251 N4248 1.350 . S
C4251 C4250 1.434 . S
C4252 C4253 1.369 . S
C4252 C4254 1.419 . S
C4252 H4256 0.930 . S
C4253 C4252 1.369 . S
C4253 C4262 1.429 . S
C4254 C4252 1.419 . S
C4254 C4255 1.363 . S
C4254 H4257 0.929 . S
C4255 C4254 1.363 . S
C4255 C4261 1.428 . S
H4256 C4252 0.930 . S
H4257 C4254 0.929 . S
S4258 N4259 1.613 . S
S4258 N4260 1.610 . S
N4259 S4258 1.613 . S
N4259 C4262 1.350 . S
N4260 S4258 1.610 . S
N4260 C4261 1.351 . S
C4261 C4255 1.428 . S
C4261 N4260 1.351 . S
C4261 C4262 1.434 . S
C4262 C4253 1.429 . S
C4262 N4259 1.350 . S
C4262 C4261 1.434 . S
C4263 C4264 1.369 . S
C4263 C4265 1.419 . S
C4263 H4267 0.930 . S
C4264 C4263 1.369 . S
C4264 C4273 1.429 . S
C4265 C4263 1.419 . S
C4265 C4266 1.363 . S
C4265 H4268 0.929 . S
C4266 C4265 1.363 . S
C4266 C4272 1.428 . S
H4267 C4263 0.930 . S
H4268 C4265 0.929 . S
S4269 N4270 1.613 . S
S4269 N4271 1.610 . S
N4270 S4269 1.613 . S
N4270 C4273 1.350 . S
N4271 S4269 1.610 . S
N4271 C4272 1.351 . S
C4272 C4266 1.428 . S
C4272 N4271 1.351 . S
C4272 C4273 1.434 . S
C4273 C4264 1.429 . S
C4273 N4270 1.350 . S
C4273 C4272 1.434 . S
C4274 C4275 1.369 . S
C4274 C4276 1.419 . S
C4274 H4278 0.930 . S
C4275 C4274 1.369 . S
C4275 C4284 1.429 . S
C4276 C4274 1.419 . S
C4276 C4277 1.363 . S
C4276 H4279 0.929 . S
C4277 C4276 1.363 . S
C4277 C4283 1.428 . S
H4278 C4274 0.930 . S
H4279 C4276 0.929 . S
S4280 N4281 1.613 . S
S4280 N4282 1.610 . S
N4281 S4280 1.613 . S
N4281 C4284 1.350 . S
N4282 S4280 1.610 . S
N4282 C4283 1.351 . S
C4283 C4277 1.428 . S
C4283 N4282 1.351 . S
C4283 C4284 1.434 . S
C4284 C4275 1.429 . S
C4284 N4281 1.350 . S
C4284 C4283 1.434 . S
C4285 C4286 1.369 . S
C4285 C4287 1.419 . S
C4285 H4289 0.930 . S
C4286 C4285 1.369 . S
C4286 C4295 1.429 . S
C4287 C4285 1.419 . S
C4287 C4288 1.363 . S
C4287 H4290 0.929 . S
C4288 C4287 1.363 . S
C4288 C4294 1.428 . S
H4289 C4285 0.930 . S
H4290 C4287 0.929 . S
S4291 N4292 1.613 . S
S4291 N4293 1.610 . S
N4292 S4291 1.613 . S
N4292 C4295 1.350 . S
N4293 S4291 1.610 . S
N4293 C4294 1.351 . S
C4294 C4288 1.428 . S
C4294 N4293 1.351 . S
C4294 C4295 1.434 . S
C4295 C4286 1.429 . S
C4295 N4292 1.350 . S
C4295 C4294 1.434 . S
C4296 C4297 1.369 . S
C4296 C4298 1.430 . S
C4296 H4300 0.930 1_545 S
C4297 C4296 1.369 . S
C4297 C4306 1.429 . S
C4298 C4296 1.430 . S
C4298 C4299 1.372 . S
C4298 H4301 0.908 1_545 S
C4299 C4298 1.372 . S
C4299 C4305 1.428 . S
H4300 C4296 0.930 1_565 S
H4301 C4298 0.908 1_565 S
S4302 N4303 1.613 . S
S4302 N4304 1.610 . S
N4303 S4302 1.613 . S
N4303 C4306 1.350 . S
N4304 S4302 1.610 . S
N4304 C4305 1.351 . S
C4305 C4299 1.428 . S
C4305 N4304 1.351 . S
C4305 C4306 1.434 . S
C4306 C4297 1.429 . S
C4306 N4303 1.350 . S
C4306 C4305 1.434 . S
C4307 C4308 1.369 . S
C4307 C4309 1.422 1_655 S
C4307 H4311 0.930 1_655 S
C4308 C4307 1.369 . S
C4308 C4317 1.429 . S
C4309 C4307 1.422 1_455 S
C4309 C4310 1.359 1_455 S
C4309 H4312 0.930 . S
C4310 C4309 1.359 1_655 S
C4310 C4316 1.428 . S
H4311 C4307 0.930 1_455 S
H4312 C4309 0.930 . S
S4313 N4314 1.613 . S
S4313 N4315 1.610 . S
N4314 S4313 1.613 . S
N4314 C4317 1.350 . S
N4315 S4313 1.610 . S
N4315 C4316 1.351 . S
C4316 C4310 1.428 . S
C4316 N4315 1.351 . S
C4316 C4317 1.434 . S
C4317 C4308 1.429 . S
C4317 N4314 1.350 . S
C4317 C4316 1.434 . S
C4318 C4319 1.369 . S
C4318 C4320 1.419 . S
C4318 H4322 0.930 . S
C4319 C4318 1.369 . S
C4319 C4328 1.429 . S
C4320 C4318 1.419 . S
C4320 C4321 1.363 . S
C4320 H4323 0.929 . S
C4321 C4320 1.363 . S
C4321 C4327 1.428 . S
H4322 C4318 0.930 . S
H4323 C4320 0.929 . S
S4324 N4325 1.613 . S
S4324 N4326 1.610 . S
N4325 S4324 1.613 . S
N4325 C4328 1.350 . S
N4326 S4324 1.610 . S
N4326 C4327 1.351 . S
C4327 C4321 1.428 . S
C4327 N4326 1.351 . S
C4327 C4328 1.434 . S
C4328 C4319 1.429 . S
C4328 N4325 1.350 . S
C4328 C4327 1.434 . S
C4329 C4330 1.369 . S
C4329 C4331 1.419 . S
C4329 H4333 0.930 . S
C4330 C4329 1.369 . S
C4330 C4339 1.429 . S
C4331 C4329 1.419 . S
C4331 C4332 1.363 . S
C4331 H4334 0.929 . S
C4332 C4331 1.363 . S
C4332 C4338 1.428 . S
H4333 C4329 0.930 . S
H4334 C4331 0.929 . S
S4335 N4336 1.613 . S
S4335 N4337 1.610 . S
N4336 S4335 1.613 . S
N4336 C4339 1.350 . S
N4337 S4335 1.610 . S
N4337 C4338 1.351 . S
C4338 C4332 1.428 . S
C4338 N4337 1.351 . S
C4338 C4339 1.434 . S
C4339 C4330 1.429 . S
C4339 N4336 1.350 . S
C4339 C4338 1.434 . S
C4340 C4341 1.369 . S
C4340 C4342 1.419 . S
C4340 H4344 0.930 . S
C4341 C4340 1.369 . S
C4341 C4350 1.429 . S
C4342 C4340 1.419 . S
C4342 C4343 1.363 . S
C4342 H4345 0.929 . S
C4343 C4342 1.363 . S
C4343 C4349 1.428 . S
H4344 C4340 0.930 . S
H4345 C4342 0.929 . S
S4346 N4347 1.613 . S
S4346 N4348 1.610 . S
N4347 S4346 1.613 . S
N4347 C4350 1.350 . S
N4348 S4346 1.610 . S
N4348 C4349 1.351 . S
C4349 C4343 1.428 . S
C4349 N4348 1.351 . S
C4349 C4350 1.434 . S
C4350 C4341 1.429 . S
C4350 N4347 1.350 . S
C4350 C4349 1.434 . S
C4351 C4352 1.369 . S
C4351 C4353 1.419 . S
C4351 H4355 0.930 . S
C4352 C4351 1.369 . S
C4352 C4361 1.429 . S
C4353 C4351 1.419 . S
C4353 C4354 1.363 . S
C4353 H4356 0.929 . S
C4354 C4353 1.363 . S
C4354 C4360 1.428 . S
H4355 C4351 0.930 . S
H4356 C4353 0.929 . S
S4357 N4358 1.613 . S
S4357 N4359 1.610 . S
N4358 S4357 1.613 . S
N4358 C4361 1.350 . S
N4359 S4357 1.610 . S
N4359 C4360 1.351 . S
C4360 C4354 1.428 . S
C4360 N4359 1.351 . S
C4360 C4361 1.434 . S
C4361 C4352 1.429 . S
C4361 N4358 1.350 . S
C4361 C4360 1.434 . S
C4362 C4363 1.369 . S
C4362 C4364 1.419 . S
C4362 H4366 0.930 . S
C4363 C4362 1.369 . S
C4363 C4372 1.429 . S
C4364 C4362 1.419 . S
C4364 C4365 1.363 . S
C4364 H4367 0.929 . S
C4365 C4364 1.363 . S
C4365 C4371 1.428 . S
H4366 C4362 0.930 . S
H4367 C4364 0.929 . S
S4368 N4369 1.613 . S
S4368 N4370 1.610 . S
N4369 S4368 1.613 . S
N4369 C4372 1.350 . S
N4370 S4368 1.610 . S
N4370 C4371 1.351 . S
C4371 C4365 1.428 . S
C4371 N4370 1.351 . S
C4371 C4372 1.434 . S
C4372 C4363 1.429 . S
C4372 N4369 1.350 . S
C4372 C4371 1.434 . S
C4373 C4374 1.369 . S
C4373 C4375 1.419 . S
C4373 H4377 0.930 . S
C4374 C4373 1.369 . S
C4374 C4383 1.429 . S
C4375 C4373 1.419 . S
C4375 C4376 1.363 . S
C4375 H4378 0.929 . S
C4376 C4375 1.363 . S
C4376 C4382 1.428 . S
H4377 C4373 0.930 . S
H4378 C4375 0.929 . S
S4379 N4380 1.613 . S
S4379 N4381 1.610 . S
N4380 S4379 1.613 . S
N4380 C4383 1.350 . S
N4381 S4379 1.610 . S
N4381 C4382 1.351 . S
C4382 C4376 1.428 . S
C4382 N4381 1.351 . S
C4382 C4383 1.434 . S
C4383 C4374 1.429 . S
C4383 N4380 1.350 . S
C4383 C4382 1.434 . S
C4384 C4385 1.369 . S
C4384 C4386 1.419 . S
C4384 H4388 0.930 . S
C4385 C4384 1.369 . S
C4385 C4394 1.429 . S
C4386 C4384 1.419 . S
C4386 C4387 1.363 . S
C4386 H4389 0.929 . S
C4387 C4386 1.363 . S
C4387 C4393 1.428 . S
H4388 C4384 0.930 . S
H4389 C4386 0.929 . S
S4390 N4391 1.613 . S
S4390 N4392 1.610 . S
N4391 S4390 1.613 . S
N4391 C4394 1.350 . S
N4392 S4390 1.610 . S
N4392 C4393 1.351 . S
C4393 C4387 1.428 . S
C4393 N4392 1.351 . S
C4393 C4394 1.434 . S
C4394 C4385 1.429 . S
C4394 N4391 1.350 . S
C4394 C4393 1.434 . S
C4395 C4396 1.369 . S
C4395 C4397 1.419 . S
C4395 H4399 0.930 . S
C4396 C4395 1.369 . S
C4396 C4405 1.429 . S
C4397 C4395 1.419 . S
C4397 C4398 1.363 . S
C4397 H4400 0.929 . S
C4398 C4397 1.363 . S
C4398 C4404 1.428 . S
H4399 C4395 0.930 . S
H4400 C4397 0.929 . S
S4401 N4402 1.613 . S
S4401 N4403 1.610 . S
N4402 S4401 1.613 . S
N4402 C4405 1.350 . S
N4403 S4401 1.610 . S
N4403 C4404 1.351 . S
C4404 C4398 1.428 . S
C4404 N4403 1.351 . S
C4404 C4405 1.434 . S
C4405 C4396 1.429 . S
C4405 N4402 1.350 . S
C4405 C4404 1.434 . S
C4406 C4407 1.369 . S
C4406 C4408 1.419 . S
C4406 H4410 0.930 . S
C4407 C4406 1.369 . S
C4407 C4416 1.429 . S
C4408 C4406 1.419 . S
C4408 C4409 1.363 . S
C4408 H4411 0.929 . S
C4409 C4408 1.363 . S
C4409 C4415 1.428 . S
H4410 C4406 0.930 . S
H4411 C4408 0.929 . S
S4412 N4413 1.613 . S
S4412 N4414 1.610 . S
N4413 S4412 1.613 . S
N4413 C4416 1.350 . S
N4414 S4412 1.610 . S
N4414 C4415 1.351 . S
C4415 C4409 1.428 . S
C4415 N4414 1.351 . S
C4415 C4416 1.434 . S
C4416 C4407 1.429 . S
C4416 N4413 1.350 . S
C4416 C4415 1.434 . S
C4417 C4418 1.369 . S
C4417 C4419 1.414 . S
C4417 H4421 0.930 . S
C4418 C4417 1.369 . S
C4418 C4427 1.429 . S
C4419 C4417 1.414 . S
C4419 C4420 1.382 . S
C4419 H4422 0.915 1_545 S
C4420 C4419 1.382 . S
C4420 C4426 1.428 . S
H4421 C4417 0.930 . S
H4422 C4419 0.915 1_565 S
S4423 N4424 1.613 . S
S4423 N4425 1.610 . S
N4424 S4423 1.613 . S
N4424 C4427 1.350 . S
N4425 S4423 1.610 . S
N4425 C4426 1.351 . S
C4426 C4420 1.428 . S
C4426 N4425 1.351 . S
C4426 C4427 1.434 . S
C4427 C4418 1.429 . S
C4427 N4424 1.350 . S
C4427 C4426 1.434 . S
C3637 C49 1.508 . S
C3639 C2639 1.346 . S
C3648 C137 1.716 . S
C3650 C2779 1.059 . S
C3661 C2867 1.439 . S
C3659 C205 1.562 . S
C3670 C196 1.587 . S
C3672 C3007 1.356 1_565 S
C3681 C57 1.590 . S
C3683 C3121 1.394 . S
C3692 C145 1.717 . S
C3694 C3209 1.246 . S
C3703 C313 1.582 . S
C3705 C3095 1.178 . S
C3716 C3235 1.316 . S
C3714 C401 1.625 . S
C3727 C2981 1.229 . S
C3725 C489 1.621 . S
C3736 C469 1.665 . S
C3738 C2893 1.093 . S
C3749 C2665 1.084 . S
C3747 C293 1.634 . S
C3758 C381 1.625 . S
C3760 C2753 1.411 . S
C3769 C577 1.796 . S
C3771 C3323 1.267 . S
C3780 C645 1.833 . S
C3782 C3463 1.115 . S
C3793 C3551 1.219 . S
C3791 C733 1.739 . S
C3802 C724 1.750 . S
C3804 C1639 1.123 . S
C3813 C585 1.817 . S
C3815 C1753 1.143 . S
C3824 C636 1.818 . S
C3826 C1841 1.320 . S
C3835 C841 1.541 . S
C3837 C1727 1.353 . S
C3846 C937 1.722 . S
C3848 C1867 1.478 . S
C3859 C1613 1.493 . S
C3857 C1025 1.687 . S
C3870 C3577 1.525 . S
C3868 C988 1.795 . S
C3881 C3349 1.404 . S
C3879 C821 1.655 . S
C3892 C3437 1.557 . S
C3890 C900 1.709 . S
C3901 C1105 1.656 . S
C3903 C1955 1.141 . S
C3912 C1193 1.834 . S
C3914 C2095 1.150 . S
C3923 C1281 1.789 . S
C3925 C2183 1.298 . S
C3934 C1289 1.889 . S
C3936 C2323 1.236 . S
C3947 C2437 1.082 . S
C3945 C1113 1.768 . S
C3958 C2525 1.306 . S
C3956 C1201 1.825 . S
C3969 C2411 1.499 . S
C3967 C1369 1.688 . S
C3980 C2551 1.489 . S
C3978 C1457 1.708 . S
C3989 C1553 1.615 . S
C3991 C2297 1.444 . S
C4002 C2209 1.390 . S
C4000 C1516 1.646 . S
C4011 C1349 1.725 . S
C4013 C1981 1.428 . S
C4024 C2069 1.549 . S
C4022 C1437 1.707 . S
C4035 C1595 1.114 . S
C4033 C29 2.099 . S
C4044 C117 1.840 . S
C4046 C1709 0.971 . S
C4057 C1813 1.409 . S
C4055 C225 2.067 . S
C4068 C1927 1.292 . S
C4066 C233 1.921 . S
C4079 C2051 1.116 . S
C4077 C20 2.075 . S
C4090 C2155 1.284 . S
C4088 C108 1.879 . S
C4099 C321 2.258 . S
C4101 C2165 1.963 . S
C4110 C409 2.005 . S
C4112 C1937 1.791 . S
C4121 C497 2.265 . S
C4123 C2041 2.161 . S
C4132 C460 2.088 . S
C4134 C1699 2.002 . S
C4145 C1823 2.009 . S
C4143 C284 2.254 . S
C4154 C372 2.042 . S
C4156 C1585 1.958 . S
C4167 C2279 0.975 . S
C4165 C557 1.883 . S
C4176 C665 1.887 . S
C4178 C2393 1.011 . S
C4187 C753 1.901 . S
C4189 C2497 1.336 . S
C4200 C2611 0.886 . S
C4198 C761 1.065 . S
C4209 C548 1.792 . S
C4211 C2735 0.911 . S
C4220 C673 1.190 . S
C4222 C2839 0.939 . S
C4231 C849 1.301 . S
C4233 C2849 0.842 1_565 S
C4242 C929 1.191 . S
C4244 C2621 0.826 1_455 S
C4255 C2725 1.855 . S
C4253 C1017 1.961 . S
C4264 C997 1.927 . S
C4266 C2383 1.868 . S
C4275 C812 2.040 . S
C4277 C2507 1.770 . S
C4288 C2269 1.933 . S
C4286 C909 2.075 . S
C4299 C2963 0.749 . S
C4297 C1085 1.269 . S
C4308 C1173 1.139 . S
C4310 C3077 0.758 . S
C4319 C1261 1.795 . S
C4321 C3181 1.213 . S
C4332 C3295 1.208 . S
C4330 C1252 1.752 . S
C4343 C3419 1.052 . S
C4341 C1076 1.898 . S
C4352 C1164 1.915 . S
C4354 C3523 1.329 . S
C4363 C1377 2.052 . S
C4365 C3533 1.786 . S
C4374 C1465 2.042 . S
C4376 C3305 1.748 . S
C4387 C3409 1.946 . S
C4385 C1545 2.059 . S
C4398 C3067 0.942 1_655 S
C4396 C1525 1.093 . S
C4409 C3191 1.695 . S
C4407 C1340 1.952 . S
C4418 C1428 1.229 . S
C4420 C2953 1.013 1_545 S
