# Generated by pormake.
# Topology ctn, (3,4)-cn, num edge types: 1
# Building blocks:
#     Node 0, Type 0, BuildingBlock: BETDAH_clean_linker_0, # of connection points: 3
#     Node 1, Type 0, BuildingBlock: BETDAH_clean_linker_0, # of connection points: 3
#     Node 2, Type 0, BuildingBlock: BETDAH_clean_linker_0, # of connection points: 3
#     Node 3, Type 0, BuildingBlock: BETDAH_clean_linker_0, # of connection points: 3
#     Node 4, Type 0, BuildingBlock: BETDAH_clean_linker_0, # of connection points: 3
#     Node 5, Type 0, BuildingBlock: BETDAH_clean_linker_0, # of connection points: 3
#     Node 6, Type 0, BuildingBlock: BETDAH_clean_linker_0, # of connection points: 3
#     Node 7, Type 0, BuildingBlock: BETDAH_clean_linker_0, # of connection points: 3
#     Node 8, Type 0, BuildingBlock: BETDAH_clean_linker_0, # of connection points: 3
#     Node 9, Type 0, BuildingBlock: BETDAH_clean_linker_0, # of connection points: 3
#     Node 10, Type 0, BuildingBlock: BETDAH_clean_linker_0, # of connection points: 3
#     Node 11, Type 0, BuildingBlock: BETDAH_clean_linker_0, # of connection points: 3
#     Node 12, Type 0, BuildingBlock: BETDAH_clean_linker_0, # of connection points: 3
#     Node 13, Type 0, BuildingBlock: BETDAH_clean_linker_0, # of connection points: 3
#     Node 14, Type 0, BuildingBlock: BETDAH_clean_linker_0, # of connection points: 3
#     Node 15, Type 0, BuildingBlock: BETDAH_clean_linker_0, # of connection points: 3
#     Node 16, Type 1, BuildingBlock: KUFVIS_clean_sbu_0, # of connection points: 4
#     Node 17, Type 1, BuildingBlock: KUFVIS_clean_sbu_0, # of connection points: 4
#     Node 18, Type 1, BuildingBlock: KUFVIS_clean_sbu_0, # of connection points: 4
#     Node 19, Type 1, BuildingBlock: KUFVIS_clean_sbu_0, # of connection points: 4
#     Node 20, Type 1, BuildingBlock: KUFVIS_clean_sbu_0, # of connection points: 4
#     Node 21, Type 1, BuildingBlock: KUFVIS_clean_sbu_0, # of connection points: 4
#     Node 22, Type 1, BuildingBlock: KUFVIS_clean_sbu_0, # of connection points: 4
#     Node 23, Type 1, BuildingBlock: KUFVIS_clean_sbu_0, # of connection points: 4
#     Node 24, Type 1, BuildingBlock: KUFVIS_clean_sbu_0, # of connection points: 4
#     Node 25, Type 1, BuildingBlock: KUFVIS_clean_sbu_0, # of connection points: 4
#     Node 26, Type 1, BuildingBlock: KUFVIS_clean_sbu_0, # of connection points: 4
#     Node 27, Type 1, BuildingBlock: KUFVIS_clean_sbu_0, # of connection points: 4
#     Edge 28, Type (0, 1), BuildingBlock: MIFKUJ_clean_linker_0, # of connection points: 2
#     Edge 29, Type (0, 1), BuildingBlock: MIFKUJ_clean_linker_0, # of connection points: 2
#     Edge 30, Type (0, 1), BuildingBlock: MIFKUJ_clean_linker_0, # of connection points: 2
#     Edge 31, Type (0, 1), BuildingBlock: MIFKUJ_clean_linker_0, # of connection points: 2
#     Edge 32, Type (0, 1), BuildingBlock: MIFKUJ_clean_linker_0, # of connection points: 2
#     Edge 33, Type (0, 1), BuildingBlock: MIFKUJ_clean_linker_0, # of connection points: 2
#     Edge 34, Type (0, 1), BuildingBlock: MIFKUJ_clean_linker_0, # of connection points: 2
#     Edge 35, Type (0, 1), BuildingBlock: MIFKUJ_clean_linker_0, # of connection points: 2
#     Edge 36, Type (0, 1), BuildingBlock: MIFKUJ_clean_linker_0, # of connection points: 2
#     Edge 37, Type (0, 1), BuildingBlock: MIFKUJ_clean_linker_0, # of connection points: 2
#     Edge 38, Type (0, 1), BuildingBlock: MIFKUJ_clean_linker_0, # of connection points: 2
#     Edge 39, Type (0, 1), BuildingBlock: MIFKUJ_clean_linker_0, # of connection points: 2
#     Edge 40, Type (0, 1), BuildingBlock: MIFKUJ_clean_linker_0, # of connection points: 2
#     Edge 41, Type (0, 1), BuildingBlock: MIFKUJ_clean_linker_0, # of connection points: 2
#     Edge 42, Type (0, 1), BuildingBlock: MIFKUJ_clean_linker_0, # of connection points: 2
#     Edge 43, Type (0, 1), BuildingBlock: MIFKUJ_clean_linker_0, # of connection points: 2
#     Edge 44, Type (0, 1), BuildingBlock: MIFKUJ_clean_linker_0, # of connection points: 2
#     Edge 45, Type (0, 1), BuildingBlock: MIFKUJ_clean_linker_0, # of connection points: 2
#     Edge 46, Type (0, 1), BuildingBlock: MIFKUJ_clean_linker_0, # of connection points: 2
#     Edge 47, Type (0, 1), BuildingBlock: MIFKUJ_clean_linker_0, # of connection points: 2
#     Edge 48, Type (0, 1), BuildingBlock: MIFKUJ_clean_linker_0, # of connection points: 2
#     Edge 49, Type (0, 1), BuildingBlock: MIFKUJ_clean_linker_0, # of connection points: 2
#     Edge 50, Type (0, 1), BuildingBlock: MIFKUJ_clean_linker_0, # of connection points: 2
#     Edge 51, Type (0, 1), BuildingBlock: MIFKUJ_clean_linker_0, # of connection points: 2
#     Edge 52, Type (0, 1), BuildingBlock: MIFKUJ_clean_linker_0, # of connection points: 2
#     Edge 53, Type (0, 1), BuildingBlock: MIFKUJ_clean_linker_0, # of connection points: 2
#     Edge 54, Type (0, 1), BuildingBlock: MIFKUJ_clean_linker_0, # of connection points: 2
#     Edge 55, Type (0, 1), BuildingBlock: MIFKUJ_clean_linker_0, # of connection points: 2
#     Edge 56, Type (0, 1), BuildingBlock: MIFKUJ_clean_linker_0, # of connection points: 2
#     Edge 57, Type (0, 1), BuildingBlock: MIFKUJ_clean_linker_0, # of connection points: 2
#     Edge 58, Type (0, 1), BuildingBlock: MIFKUJ_clean_linker_0, # of connection points: 2
#     Edge 59, Type (0, 1), BuildingBlock: MIFKUJ_clean_linker_0, # of connection points: 2
#     Edge 60, Type (0, 1), BuildingBlock: MIFKUJ_clean_linker_0, # of connection points: 2
#     Edge 61, Type (0, 1), BuildingBlock: MIFKUJ_clean_linker_0, # of connection points: 2
#     Edge 62, Type (0, 1), BuildingBlock: MIFKUJ_clean_linker_0, # of connection points: 2
#     Edge 63, Type (0, 1), BuildingBlock: MIFKUJ_clean_linker_0, # of connection points: 2
#     Edge 64, Type (0, 1), BuildingBlock: MIFKUJ_clean_linker_0, # of connection points: 2
#     Edge 65, Type (0, 1), BuildingBlock: MIFKUJ_clean_linker_0, # of connection points: 2
#     Edge 66, Type (0, 1), BuildingBlock: MIFKUJ_clean_linker_0, # of connection points: 2
#     Edge 67, Type (0, 1), BuildingBlock: MIFKUJ_clean_linker_0, # of connection points: 2
#     Edge 68, Type (0, 1), BuildingBlock: MIFKUJ_clean_linker_0, # of connection points: 2
#     Edge 69, Type (0, 1), BuildingBlock: MIFKUJ_clean_linker_0, # of connection points: 2
#     Edge 70, Type (0, 1), BuildingBlock: MIFKUJ_clean_linker_0, # of connection points: 2
#     Edge 71, Type (0, 1), BuildingBlock: MIFKUJ_clean_linker_0, # of connection points: 2
#     Edge 72, Type (0, 1), BuildingBlock: MIFKUJ_clean_linker_0, # of connection points: 2
#     Edge 73, Type (0, 1), BuildingBlock: MIFKUJ_clean_linker_0, # of connection points: 2
#     Edge 74, Type (0, 1), BuildingBlock: MIFKUJ_clean_linker_0, # of connection points: 2
#     Edge 75, Type (0, 1), BuildingBlock: MIFKUJ_clean_linker_0, # of connection points: 2
# Relax obj value: 0.059
# Max RMSD: 0.160
# Mean RMSD: 0.108
data_MOF--net-ctn--node1-KUFVIS_clean_sbu_0--node2-BETDAH_clean_linker_0--edge1-MIFKUJ_clean_linker_0
_symmetry_space_group_name_H-M    P1
_symmetry_Int_Tables_number       1
_symmetry_cell_setting            triclinic
loop_
_symmetry_equiv_pos_as_xyz
'x, y, z'
_cell_length_a     69.979071
_cell_length_b     69.621443
_cell_length_c     71.021108
_cell_angle_alpha  99.44309
_cell_angle_beta   90.821694
_cell_angle_gamma 96.219853
loop_
_atom_site_label
_atom_site_type_symbol
_atom_site_fract_x
_atom_site_fract_y
_atom_site_fract_z
_atom_type_partial_charge
H0 H 0.07772 0.02681 0.08581 0.0
H1 H 0.07937 0.03592 0.02744 0.0
H2 H 0.03813 0.06217 0.06421 0.0
C3 C 0.07247 0.03366 0.07444 0.0
C4 C 0.05674 0.04482 0.07752 0.0
C5 C 0.08118 0.03072 0.05658 0.0
C6 C 0.0737 0.03889 0.04161 0.0
C7 C 0.05849 0.05042 0.04442 0.0
C8 C 0.05018 0.05358 0.06239 0.0
N9 N 0.04992 0.05601 0.02823 0.0
C10 C 0.0482 0.07525 0.02602 0.0
H11 H 0.33873 0.68323 0.22657 0.0
H12 H 0.37372 0.72918 0.20546 0.0
H13 H 0.31784 0.70784 0.17944 0.0
C14 C 0.34086 0.6935 0.21663 0.0
C15 C 0.32633 0.69405 0.20294 0.0
C16 C 0.35801 0.7061 0.21771 0.0
C17 C 0.36048 0.71943 0.20488 0.0
C18 C 0.34615 0.72029 0.19113 0.0
C19 C 0.32899 0.70743 0.19005 0.0
N20 N 0.34996 0.73414 0.17863 0.0
C21 C 0.33689 0.73971 0.16616 0.0
H22 H 0.0171 0.46282 0.05998 0.0
H23 H 0.00429 0.52269 0.07194 0.0
H24 H 0.98249 0.48563 0.02012 0.0
C25 C 0.0097 0.47471 0.05642 0.0
C26 C 0.99913 0.47188 0.039 0.0
C27 C 0.01182 0.49297 0.06857 0.0
C28 C 0.00293 0.50843 0.06295 0.0
C29 C 0.99213 0.50581 0.04576 0.0
C30 C 0.99024 0.4875 0.03373 0.0
N31 N 0.98538 0.52252 0.04 0.0
C32 C 0.96676 0.52349 0.03336 0.0
H33 H 0.75958 0.82437 0.17961 0.0
H34 H 0.70557 0.79934 0.19844 0.0
H35 H 0.73172 0.85531 0.22701 0.0
C36 C 0.74794 0.82508 0.18951 0.0
C37 C 0.74774 0.84173 0.20365 0.0
C38 C 0.73284 0.80968 0.18747 0.0
C39 C 0.71733 0.81101 0.19994 0.0
C40 C 0.71702 0.82763 0.21415 0.0
C41 C 0.73212 0.84277 0.21581 0.0
N42 N 0.70156 0.83031 0.2267 0.0
C43 C 0.6883 0.81573 0.23159 0.0
H44 H 0.07467 0.00389 0.45983 0.0
H45 H 0.07421 0.97259 0.50752 0.0
H46 H 0.02231 0.97228 0.47432 0.0
C47 C 0.06714 0.99431 0.46856 0.0
C48 C 0.04743 0.98843 0.46487 0.0
C49 C 0.07701 0.98884 0.48394 0.0
C50 C 0.06687 0.97687 0.49559 0.0
C51 C 0.04708 0.97088 0.49203 0.0
C52 C 0.03754 0.97693 0.4769 0.0
N53 N 0.03584 0.95971 0.50382 0.0
C54 C 0.04228 0.94675 0.51487 0.0
H55 H 0.25595 0.69507 0.84354 0.0
H56 H 0.20336 0.70849 0.81897 0.0
H57 H 0.23008 0.65833 0.79299 0.0
C58 C 0.2447 0.6918 0.83246 0.0
C59 C 0.24488 0.67521 0.81825 0.0
C60 C 0.22962 0.70369 0.83297 0.0
C61 C 0.2149 0.69927 0.81869 0.0
C62 C 0.21522 0.68298 0.8041 0.0
C63 C 0.23001 0.67093 0.8042 0.0
N64 N 0.20095 0.67802 0.78912 0.0
C65 C 0.18691 0.68964 0.78515 0.0
H66 H 0.96477 0.55383 0.51894 0.0
H67 H 0.0108 0.55759 0.47932 0.0
H68 H 0.9694 0.50645 0.47295 0.0
C69 C 0.97221 0.5476 0.50652 0.0
C70 C 0.96504 0.52906 0.49659 0.0
C71 C 0.98859 0.55826 0.50035 0.0
C72 C 0.99824 0.54964 0.48429 0.0
C73 C 0.9913 0.53082 0.47448 0.0
C74 C 0.97473 0.52085 0.48066 0.0
N75 N 1.00027 0.52118 0.45831 0.0
C76 C 0.01599 0.52865 0.44891 0.0
H77 H 0.84992 0.78422 0.82293 0.0
H78 H 0.82665 0.83257 0.80293 0.0
H79 H 0.79917 0.80624 0.84743 0.0
C80 C 0.83942 0.79464 0.82381 0.0
C81 C 0.8245 0.79344 0.8368 0.0
C82 C 0.84041 0.80867 0.81141 0.0
C83 C 0.82611 0.82166 0.81222 0.0
C84 C 0.81117 0.82058 0.82519 0.0
C85 C 0.8106 0.80661 0.83731 0.0
N86 N 0.79614 0.83291 0.82661 0.0
C87 C 0.79423 0.84872 0.81724 0.0
H88 H 0.35359 0.28565 0.32605 0.0
H89 H 0.33066 0.33436 0.30652 0.0
H90 H 0.30301 0.30773 0.35088 0.0
C91 C 0.34312 0.29612 0.32703 0.0
C92 C 0.32815 0.29481 0.33992 0.0
C93 C 0.34421 0.31032 0.31485 0.0
C94 C 0.32996 0.32334 0.3157 0.0
C95 C 0.3151 0.32233 0.32878 0.0
C96 C 0.31442 0.30818 0.34074 0.0
N97 N 0.30056 0.33524 0.33077 0.0
C98 C 0.29728 0.34916 0.31943 0.0
H99 H 0.52055 0.95288 0.55159 0.0
H100 H 0.50976 0.01324 0.55753 0.0
H101 H 0.49581 0.9748 0.50454 0.0
C102 C 0.51538 0.96477 0.54561 0.0
C103 C 0.50837 0.96137 0.52653 0.0
C104 C 0.51627 0.98343 0.55698 0.0
C105 C 0.50866 0.99855 0.54938 0.0
C106 C 0.50061 0.99519 0.53076 0.0
C107 C 0.50072 0.97673 0.51933 0.0
N108 N 0.49574 0.01127 0.52248 0.0
C109 C 0.477 0.01596 0.52097 0.0
H110 H 0.25314 0.32372 0.68334 0.0
H111 H 0.21669 0.27471 0.69731 0.0
H112 H 0.22663 0.3279 0.73817 0.0
C113 C 0.24356 0.31746 0.69317 0.0
C114 C 0.24092 0.32827 0.71135 0.0
C115 C 0.235 0.2981 0.68807 0.0
C116 C 0.22332 0.2897 0.7011 0.0
C117 C 0.21981 0.30043 0.71891 0.0
C118 C 0.22875 0.31974 0.72414 0.0
N119 N 0.20791 0.29078 0.73132 0.0
C120 C 0.19834 0.29972 0.74682 0.0
H121 H 0.83724 0.18933 0.73185 0.0
H122 H 0.87029 0.2366 0.71072 0.0
H123 H 0.81513 0.21277 0.68458 0.0
C124 C 0.83883 0.19987 0.72216 0.0
C125 C 0.82414 0.19972 0.7084 0.0
C126 C 0.85565 0.21302 0.72321 0.0
C127 C 0.85761 0.22606 0.71003 0.0
C128 C 0.84317 0.22619 0.69615 0.0
C129 C 0.82637 0.21288 0.69526 0.0
N130 N 0.84649 0.23988 0.68341 0.0
C131 C 0.83314 0.24506 0.67095 0.0
H132 H 0.57251 0.51919 0.58969 0.0
H133 H 0.57619 0.54686 0.53947 0.0
H134 H 0.52968 0.55558 0.57722 0.0
C135 C 0.56723 0.52901 0.58099 0.0
C136 C 0.55018 0.53737 0.58602 0.0
C137 C 0.57694 0.53233 0.5643 0.0
C138 C 0.56923 0.5443 0.55249 0.0
C139 C 0.55198 0.55235 0.55716 0.0
C140 C 0.54278 0.54894 0.57383 0.0
N141 N 0.54216 0.56214 0.5446 0.0
C142 C 0.55034 0.5752 0.53331 0.0
H143 H 0.57008 0.502 0.96397 0.0
H144 H 0.57106 0.46847 0.01001 0.0
H145 H 0.51855 0.46886 0.97801 0.0
C146 C 0.56298 0.4919 0.97243 0.0
C147 C 0.54331 0.48577 0.96888 0.0
C148 C 0.57325 0.48595 0.98731 0.0
C149 C 0.56346 0.47326 0.99854 0.0
C150 C 0.54366 0.46714 0.99515 0.0
C151 C 0.53377 0.47365 0.98053 0.0
N152 N 0.53277 0.45518 0.00649 0.0
C153 C 0.53976 0.44267 0.01772 0.0
H154 H 0.7581 0.19571 0.34752 0.0
H155 H 0.70713 0.2104 0.32077 0.0
H156 H 0.73662 0.16288 0.29339 0.0
C157 C 0.74769 0.19326 0.33568 0.0
C158 C 0.74926 0.17795 0.32043 0.0
C159 C 0.73238 0.20492 0.3361 0.0
C160 C 0.71877 0.20133 0.32074 0.0
C161 C 0.72037 0.18618 0.30526 0.0
C162 C 0.73546 0.17451 0.30537 0.0
N163 N 0.70724 0.18213 0.28927 0.0
C164 C 0.6922 0.19287 0.28606 0.0
H165 H 0.47259 0.05095 0.01948 0.0
H166 H 0.51679 0.05372 0.97787 0.0
H167 H 0.47179 0.00563 0.97052 0.0
C168 C 0.47915 0.04465 0.00651 0.0
C169 C 0.47026 0.02714 0.99584 0.0
C170 C 0.49589 0.05451 1.00014 0.0
C171 C 0.50385 0.0464 0.98284 0.0
C172 C 0.49517 0.02861 0.97224 0.0
C173 C 0.47843 0.01927 0.97879 0.0
N174 N 0.50264 0.0193 0.95502 0.0
C175 C 0.51838 0.02631 0.94536 0.0
Mn176 Mn 0.26318 0.88221 0.01892 0.0
Mn177 Mn 0.26306 0.90047 0.97766 0.0
C178 C 0.2483 0.86339 0.99134 0.0
C179 C 0.27663 0.86491 0.04051 0.0
C180 C 0.23705 0.91263 0.01025 0.0
O181 O 0.28502 0.90486 0.02385 0.0
O182 O 0.28386 0.91487 0.99531 0.0
C183 C 0.30045 0.88908 0.96335 0.0
N184 N 0.28111 0.88883 0.9607 0.0
C185 C 0.28203 0.87119 0.92868 0.0
C186 C 0.30198 0.87132 0.93103 0.0
C187 C 0.31121 0.88024 0.94847 0.0
C188 C 0.27206 0.88019 0.94404 0.0
H189 H 0.30762 0.89598 0.9767 0.0
C190 C 0.29127 0.91601 0.0121 0.0
O191 O 0.26471 0.87762 0.04587 0.0
O192 O 0.28134 0.86279 0.02273 0.0
N193 N 0.24383 0.88781 0.95901 0.0
C194 C 0.2244 0.88812 0.95942 0.0
C195 C 0.21303 0.87998 0.94302 0.0
C196 C 0.22177 0.87167 0.92641 0.0
C197 C 0.24171 0.87111 0.92647 0.0
C198 C 0.25233 0.87979 0.9431 0.0
H199 H 0.21768 0.89482 0.97205 0.0
O200 O 0.24331 0.86002 0.00812 0.0
O201 O 0.26168 0.87787 0.99117 0.0
O202 O 0.24278 0.90154 0.02128 0.0
O203 O 0.24381 0.91341 0.99377 0.0
C204 C 0.25146 0.86234 0.91067 0.0
C205 C 0.2716 0.86225 0.91182 0.0
H206 H 0.31032 0.8645 0.91959 0.0
H207 H 0.32659 0.88035 0.95041 0.0
H208 H 0.19761 0.88034 0.94309 0.0
H209 H 0.21308 0.86588 0.91361 0.0
H210 H 0.24359 0.85544 0.89763 0.0
H211 H 0.27891 0.85521 0.89969 0.0
Mn212 Mn 0.16878 0.52058 0.26155 0.0
Mn213 Mn 0.15426 0.56593 0.26684 0.0
C214 C 0.18585 0.54492 0.24761 0.0
C215 C 0.18631 0.49692 0.27154 0.0
C216 C 0.13593 0.53212 0.23775 0.0
O217 O 0.1506 0.52025 0.28388 0.0
O218 O 0.14149 0.55035 0.28507 0.0
C219 C 0.17206 0.5802 0.3054 0.0
N220 N 0.16948 0.58254 0.2869 0.0
C221 C 0.18868 0.61387 0.29252 0.0
C222 C 0.19146 0.61187 0.31167 0.0
C223 C 0.18318 0.59491 0.3181 0.0
C224 C 0.17755 0.59868 0.28051 0.0
H225 H 0.16566 0.56723 0.31042 0.0
C226 C 0.14072 0.53389 0.29096 0.0
O227 O 0.17127 0.49207 0.26016 0.0
O228 O 0.19083 0.51552 0.27761 0.0
N229 N 0.16501 0.58334 0.25062 0.0
C230 C 0.16155 0.58264 0.23158 0.0
C231 C 0.16861 0.59858 0.22292 0.0
C232 C 0.17906 0.61509 0.23393 0.0
C233 C 0.18258 0.61541 0.25344 0.0
C234 C 0.17488 0.59926 0.26136 0.0
H235 H 0.15331 0.5701 0.22311 0.0
O236 O 0.18698 0.52651 0.24138 0.0
O237 O 0.175 0.54879 0.26226 0.0
O238 O 0.1458 0.51922 0.24264 0.0
O239 O 0.13813 0.55008 0.24572 0.0
C240 C 0.19348 0.6311 0.26534 0.0
C241 C 0.19665 0.63026 0.28484 0.0
H242 H 0.2 0.62319 0.32152 0.0
H243 H 0.18532 0.59321 0.33284 0.0
H244 H 0.16571 0.59825 0.20788 0.0
H245 H 0.18415 0.62756 0.22736 0.0
H246 H 0.19968 0.64376 0.25958 0.0
H247 H 0.20527 0.64228 0.29379 0.0
Mn248 Mn 0.775 0.63596 0.99817 0.0
Mn249 Mn 0.73349 0.64743 0.98014 0.0
C250 C 0.74608 0.61677 1.0013 0.0
C251 C 0.80314 0.6203 0.99642 0.0
C252 C 0.75147 0.66807 0.01801 0.0
O253 O 0.78488 0.65467 0.97997 0.0
O254 O 0.75621 0.66146 0.96998 0.0
C255 C 0.73852 0.62877 0.94019 0.0
N256 N 0.72764 0.63102 0.95599 0.0
C257 C 0.70132 0.60933 0.93961 0.0
C258 C 0.71219 0.60685 0.92312 0.0
C259 C 0.73091 0.61655 0.92345 0.0
C260 C 0.70974 0.62157 0.9559 0.0
H261 H 0.75287 0.63627 0.94034 0.0
C262 C 0.77459 0.66361 0.97002 0.0
O263 O 0.80142 0.63583 0.00883 0.0
O264 O 0.78876 0.61425 0.98435 0.0
N265 N 0.7099 0.63526 0.9881 0.0
C266 C 0.70152 0.63886 0.00532 0.0
C267 C 0.68262 0.63061 0.00731 0.0
C268 C 0.6725 0.61887 0.99155 0.0
C269 C 0.68147 0.61521 0.97403 0.0
C270 C 0.7002 0.62412 0.97281 0.0
H271 H 0.7091 0.64819 0.01737 0.0
O272 O 0.7608 0.61695 0.01264 0.0
O273 O 0.74867 0.62758 0.98796 0.0
O274 O 0.76637 0.65892 0.01692 0.0
O275 O 0.73806 0.66479 0.00513 0.0
C276 C 0.67253 0.60314 0.95772 0.0
C277 C 0.68251 0.60007 0.94056 0.0
H278 H 0.70634 0.59749 0.91017 0.0
H279 H 0.73941 0.61467 0.91081 0.0
H280 H 0.67578 0.6336 0.02087 0.0
H281 H 0.65776 0.61296 0.9929 0.0
H282 H 0.65805 0.59599 0.95828 0.0
H283 H 0.67559 0.59057 0.92817 0.0
Mn284 Mn 0.91622 0.02757 0.27137 0.0
Mn285 Mn 0.93365 0.98363 0.26424 0.0
C286 C 0.89898 1.00062 0.25272 0.0
C287 C 0.89795 0.05068 0.28801 0.0
C288 C 0.94847 0.01698 0.24388 0.0
O289 O 0.93639 0.03047 0.29324 0.0
O290 O 0.94638 1.00031 0.28736 0.0
C291 C 0.91785 0.96902 0.29839 0.0
N292 N 0.91953 0.96672 0.27908 0.0
C293 C 0.89912 0.93609 0.27467 0.0
C294 C 0.8973 0.93805 0.29451 0.0
C295 C 0.9066 0.95465 0.3064 0.0
C296 C 0.91041 0.95094 0.26749 0.0
H297 H 0.92495 0.98176 0.30759 0.0
C298 C 0.94676 0.0175 0.29725 0.0
O299 O 0.91189 0.05575 0.27734 0.0
O300 O 0.89526 0.03233 0.2898 0.0
N301 N 0.92233 0.96596 0.24245 0.0
C302 C 0.92459 0.96685 0.22358 0.0
C303 C 0.91569 0.95164 0.20975 0.0
C304 C 0.90471 0.93561 0.21547 0.0
C305 C 0.90275 0.93492 0.23497 0.0
C306 C 0.91202 0.95046 0.2481 0.0
H307 H 0.93303 0.97912 0.21909 0.0
O308 O 0.89608 0.01823 0.25051 0.0
O309 O 0.91199 0.9994 0.26554 0.0
O310 O 0.93713 0.02899 0.25148 0.0
O311 O 0.94874 0.99981 0.24795 0.0
C312 C 0.89178 0.91954 0.24189 0.0
C313 C 0.88989 0.92016 0.26173 0.0
H314 H 0.88862 0.92702 0.30075 0.0
H315 H 0.90503 0.95637 0.32169 0.0
H316 H 0.91726 0.95228 0.19473 0.0
H317 H 0.89775 0.92396 0.20476 0.0
H318 H 0.88446 0.90731 0.23207 0.0
H319 H 0.8811 0.90842 0.26685 0.0
Mn320 Mn 0.28384 0.13144 0.49696 0.0
Mn321 Mn 0.24122 0.14134 0.47986 0.0
C322 C 0.25567 0.1116 0.50088 0.0
C323 C 0.31244 0.11659 0.4943 0.0
C324 C 0.26127 0.16434 0.51601 0.0
O325 O 0.29201 0.15014 0.47812 0.0
O326 O 0.26271 0.15366 0.46644 0.0
C327 C 0.24197 0.11882 0.44077 0.0
N328 N 0.23301 0.12266 0.45764 0.0
C329 C 0.20603 0.09895 0.44619 0.0
C330 C 0.21493 0.09479 0.42865 0.0
C331 C 0.233 0.10472 0.42595 0.0
C332 C 0.21569 0.11309 0.46044 0.0
H333 H 0.25585 0.12645 0.43866 0.0
C334 C 0.2811 0.15696 0.46678 0.0
O335 O 0.31075 0.13217 0.50666 0.0
O336 O 0.29775 0.11006 0.48274 0.0
N337 N 0.219 0.13039 0.49146 0.0
C338 C 0.21264 0.13573 0.50941 0.0
C339 C 0.1947 0.12724 0.51442 0.0
C340 C 0.18344 0.11351 0.50089 0.0
C341 C 0.19029 0.10824 0.48252 0.0
C342 C 0.20815 0.11738 0.47827 0.0
H343 H 0.22111 0.14646 0.5198 0.0
O344 O 0.27068 0.11207 0.51194 0.0
O345 O 0.25758 0.12258 0.48773 0.0
O346 O 0.27533 0.15413 0.51584 0.0
O347 O 0.24803 0.16121 0.50296 0.0
C348 C 0.18015 0.09419 0.46829 0.0
C349 C 0.18806 0.08947 0.45018 0.0
H350 H 0.20807 0.08392 0.41719 0.0
H351 H 0.23999 0.10154 0.41248 0.0
H352 H 0.18952 0.13138 0.52863 0.0
H353 H 0.16954 0.10714 0.50475 0.0
H354 H 0.16636 0.08676 0.47122 0.0
H355 H 0.18025 0.07846 0.43944 0.0
Mn356 Mn 0.40658 0.51706 0.77657 0.0
Mn357 Mn 0.42455 0.47345 0.77254 0.0
C358 C 0.38935 0.48911 0.75932 0.0
C359 C 0.3884 0.54125 0.79143 0.0
C360 C 0.43882 0.50481 0.74967 0.0
O361 O 0.4266 0.52177 0.7987 0.0
O362 O 0.43745 0.49205 0.79434 0.0
C363 C 0.41036 0.46175 0.80856 0.0
N364 N 0.41156 0.45783 0.78921 0.0
C365 C 0.39375 0.42603 0.7878 0.0
C366 C 0.39239 0.42969 0.80772 0.0
C367 C 0.40067 0.44765 0.81813 0.0
C368 C 0.40356 0.44064 0.77905 0.0
H369 H 0.41674 0.47552 0.81662 0.0
C370 C 0.43751 0.50958 0.80332 0.0
O371 O 0.40239 0.54527 0.78044 0.0
O372 O 0.38546 0.5233 0.79451 0.0
N373 N 0.41338 0.45381 0.75223 0.0
C374 C 0.41509 0.45305 0.73304 0.0
C375 C 0.40765 0.43601 0.72057 0.0
C376 C 0.39861 0.41997 0.72798 0.0
C377 C 0.39666 0.42126 0.74773 0.0
C378 C 0.40466 0.43846 0.75947 0.0
H379 H 0.42229 0.46524 0.72732 0.0
O380 O 0.38675 0.50642 0.75591 0.0
O381 O 0.40227 0.4886 0.77258 0.0
O382 O 0.42766 0.51723 0.75673 0.0
O383 O 0.43891 0.48801 0.75459 0.0
C384 C 0.38708 0.40616 0.75623 0.0
C385 C 0.38551 0.4086 0.77625 0.0
H386 H 0.3849 0.41887 0.81515 0.0
H387 H 0.39962 0.45061 0.8335 0.0
H388 H 0.4091 0.43515 0.70532 0.0
H389 H 0.39328 0.40667 0.7184 0.0
H390 H 0.38068 0.39271 0.74749 0.0
H391 H 0.37787 0.39701 0.7826 0.0
Mn392 Mn 0.75754 0.38339 0.52015 0.0
Mn393 Mn 0.75629 0.40018 0.47817 0.0
C394 C 0.74211 0.36388 0.49313 0.0
C395 C 0.77143 0.36657 0.54197 0.0
C396 C 0.73129 0.41368 0.51122 0.0
O397 O 0.77959 0.40585 0.52388 0.0
O398 O 0.77769 0.41493 0.49493 0.0
C399 C 0.79313 0.38825 0.46279 0.0
N400 N 0.7737 0.38788 0.46087 0.0
C401 C 0.77336 0.36892 0.42931 0.0
C402 C 0.79338 0.36916 0.4309 0.0
C403 C 0.8033 0.37882 0.44774 0.0
C404 C 0.76401 0.37859 0.44476 0.0
H405 H 0.80081 0.3957 0.47568 0.0
C406 C 0.78559 0.41646 0.51158 0.0
O407 O 0.75978 0.37955 0.54733 0.0
O408 O 0.77563 0.3639 0.52405 0.0
N409 N 0.73642 0.38691 0.46056 0.0
C410 C 0.71701 0.38676 0.46195 0.0
C411 C 0.70493 0.37741 0.44646 0.0
C412 C 0.71296 0.36841 0.42975 0.0
C413 C 0.73295 0.36843 0.42877 0.0
C414 C 0.74427 0.37815 0.44457 0.0
H415 H 0.7108 0.39377 0.47474 0.0
O416 O 0.73735 0.36107 0.51015 0.0
O417 O 0.75541 0.37826 0.49245 0.0
O418 O 0.7374 0.40312 0.52259 0.0
O419 O 0.73754 0.41368 0.49445 0.0
C420 C 0.74208 0.35909 0.4128 0.0
C421 C 0.76226 0.35922 0.41312 0.0
H422 H 0.80127 0.36185 0.41935 0.0
H423 H 0.81874 0.379 0.44911 0.0
H424 H 0.6895 0.37729 0.44734 0.0
H425 H 0.70363 0.36164 0.41775 0.0
H426 H 0.73373 0.3516 0.40029 0.0
H427 H 0.76909 0.3517 0.4009 0.0
Mn428 Mn 0.66688 0.01908 0.75464 0.0
Mn429 Mn 0.64876 0.06277 0.76127 0.0
C430 C 0.68254 0.04537 0.74238 0.0
C431 C 0.68571 0.99628 0.76439 0.0
C432 C 0.63298 0.02882 0.73096 0.0
O433 O 0.64824 0.01642 0.7763 0.0
O434 O 0.63712 0.04581 0.77886 0.0
C435 C 0.66553 0.07734 0.80019 0.0
N436 N 0.6629 0.07988 0.78176 0.0
C437 C 0.68005 0.11223 0.78821 0.0
C438 C 0.6829 0.11001 0.80729 0.0
C439 C 0.67567 0.09245 0.81328 0.0
C440 C 0.66996 0.09661 0.7758 0.0
H441 H 0.65991 0.06391 0.80488 0.0
C442 C 0.63745 0.02903 0.78387 0.0
O443 O 0.67125 0.99094 0.75235 0.0
O444 O 0.68906 0.01488 0.77109 0.0
N445 N 0.65833 0.08123 0.74559 0.0
C446 C 0.6548 0.08078 0.7266 0.0
C447 C 0.66073 0.09737 0.71839 0.0
C448 C 0.67006 0.11426 0.72983 0.0
C449 C 0.67379 0.11428 0.74926 0.0
C450 C 0.66725 0.09745 0.75671 0.0
H451 H 0.64725 0.06798 0.71785 0.0
O452 O 0.68522 0.02745 0.73548 0.0
O453 O 0.67096 0.04756 0.75663 0.0
O454 O 0.64432 0.01681 0.73511 0.0
O455 O 0.63348 0.04639 0.73979 0.0
C456 C 0.68365 0.13036 0.76154 0.0
C457 C 0.68692 0.12928 0.78098 0.0
H458 H 0.69066 0.12166 0.81743 0.0
H459 H 0.67783 0.0906 0.82797 0.0
H460 H 0.65779 0.09726 0.70338 0.0
H461 H 0.67403 0.12725 0.72367 0.0
H462 H 0.68894 0.14355 0.75615 0.0
H463 H 0.69473 0.14164 0.79023 0.0
Mn464 Mn 0.02646 0.25535 0.89338 0.0
Mn465 Mn 0.9812 0.25196 0.90935 0.0
C466 C 1.00116 0.23829 0.87383 0.0
C467 C 0.0518 0.27079 0.87821 0.0
C468 C 0.01203 0.22896 0.92213 0.0
O469 O 0.02764 0.27813 0.91579 0.0
O470 O 0.99663 0.27516 0.92447 0.0
C471 C 0.96844 0.28785 0.89827 0.0
N472 N 0.96613 0.26802 0.89719 0.0
C473 C 0.9376 0.26498 0.87713 0.0
C474 C 0.93962 0.28537 0.87809 0.0
C475 C 0.95515 0.29685 0.88865 0.0
C476 C 0.95133 0.25683 0.88695 0.0
H477 H 0.98032 0.29674 0.90642 0.0
C478 C 0.01381 0.28393 0.92607 0.0
O479 O 0.05479 0.25925 0.89029 0.0
O480 O 0.0341 0.27383 0.87531 0.0
N481 N 0.96484 0.23026 0.8955 0.0
C482 C 0.96558 0.21073 0.89512 0.0
C483 C 0.95147 0.19717 0.88456 0.0
C484 C 0.93669 0.20384 0.87463 0.0
C485 C 0.93617 0.22402 0.87533 0.0
C486 C 0.95063 0.23683 0.88606 0.0
H487 H 0.97688 0.20552 0.90277 0.0
O488 O 0.01866 0.23423 0.87082 0.0
O489 O 0.99911 0.25171 0.88839 0.0
O490 O 0.02512 0.23522 0.91162 0.0
O491 O 0.99523 0.23453 0.92258 0.0
C492 C 0.92196 0.23192 0.86567 0.0
C493 C 0.92264 0.25239 0.86663 0.0
H494 H 0.9294 0.29236 0.87069 0.0
H495 H 0.95685 0.3126 0.88941 0.0
H496 H 0.95199 0.18162 0.88407 0.0
H497 H 0.92587 0.19334 0.86645 0.0
H498 H 0.91057 0.22238 0.85728 0.0
H499 H 0.91173 0.25829 0.859 0.0
Mn500 Mn 0.52846 0.74074 0.38247 0.0
Mn501 Mn 0.48659 0.73966 0.40551 0.0
C502 C 0.50069 0.72308 0.36753 0.0
C503 C 0.5508 0.75395 0.3625 0.0
C504 C 0.51912 0.71688 0.41456 0.0
O505 O 0.53301 0.76492 0.40346 0.0
O506 O 0.50408 0.76304 0.41722 0.0
C507 C 0.472 0.77505 0.39514 0.0
N508 N 0.46963 0.7554 0.39532 0.0
C509 C 0.43811 0.75215 0.38038 0.0
C510 C 0.44019 0.77236 0.38009 0.0
C511 C 0.45724 0.78383 0.38743 0.0
C512 C 0.45331 0.74421 0.38823 0.0
H513 H 0.48505 0.78395 0.40084 0.0
C514 C 0.52107 0.77148 0.41573 0.0
O515 O 0.55576 0.74342 0.37483 0.0
O516 O 0.53294 0.75743 0.36222 0.0
N517 N 0.46834 0.71788 0.39523 0.0
C518 C 0.46921 0.69845 0.39537 0.0
C519 C 0.45351 0.68487 0.38803 0.0
C520 C 0.43707 0.69143 0.38075 0.0
C521 C 0.43658 0.71149 0.38063 0.0
C522 C 0.45263 0.72433 0.3882 0.0
H523 H 0.48176 0.69336 0.40108 0.0
O524 O 0.51754 0.71841 0.36236 0.0
O525 O 0.50067 0.73753 0.38167 0.0
O526 O 0.53035 0.72213 0.40192 0.0
O527 O 0.50258 0.72277 0.41719 0.0
C528 C 0.42084 0.71925 0.37325 0.0
C529 C 0.42166 0.73954 0.37298 0.0
H530 H 0.42884 0.77919 0.37413 0.0
H531 H 0.45898 0.79943 0.38719 0.0
H532 H 0.45401 0.6694 0.3881 0.0
H533 H 0.42494 0.68092 0.37533 0.0
H534 H 0.40806 0.70977 0.36766 0.0
H535 H 0.40959 0.74527 0.36696 0.0
Mn536 Mn 0.01902 0.77001 0.64953 0.0
Mn537 Mn 0.99469 0.7305 0.66395 0.0
C538 C 0.01984 0.7389 0.63162 0.0
C539 C 0.02102 0.79675 0.63296 0.0
C540 C 0.03338 0.74922 0.68126 0.0
O541 O 1.00053 0.7825 0.66882 0.0
O542 O 0.98556 0.75501 0.67719 0.0
C543 C 0.9566 0.73428 0.64709 0.0
N544 N 0.97122 0.72331 0.64919 0.0
C545 C 0.95395 0.69483 0.6301 0.0
C546 C 0.93864 0.70577 0.62779 0.0
C547 C 0.94002 0.72561 0.63624 0.0
C548 C 0.97015 0.70431 0.64092 0.0
H549 H 0.95758 0.7495 0.65366 0.0
C550 C 0.98823 0.77362 0.67845 0.0
O551 O 0.03259 0.79628 0.64727 0.0
O552 O 0.00789 0.78193 0.62859 0.0
N553 N 1.00149 0.7054 0.65281 0.0
C554 C 0.01775 0.6971 0.65599 0.0
C555 C 0.01856 0.67718 0.64891 0.0
C556 C 0.00261 0.66601 0.63877 0.0
C557 C 0.98618 0.67493 0.6354 0.0
C558 C 0.98606 0.69473 0.64313 0.0
H559 H 0.02987 0.70551 0.66417 0.0
O560 O 0.03306 0.75313 0.63022 0.0
O561 O 0.00611 0.7433 0.64326 0.0
O562 O 0.03544 0.76289 0.6712 0.0
O563 O 0.01866 0.73645 0.67967 0.0
C564 C 0.96986 0.66493 0.6248 0.0
C565 C 0.95382 0.67492 0.622 0.0
H566 H 0.92581 0.69912 0.61949 0.0
H567 H 0.9283 0.73417 0.63448 0.0
H568 H 0.03129 0.67039 0.65159 0.0
H569 H 0.00296 0.65052 0.63391 0.0
H570 H 0.96958 0.64961 0.61859 0.0
H571 H 0.94146 0.66716 0.61362 0.0
Mn572 Mn 0.51987 0.26482 0.15047 0.0
Mn573 Mn 0.49763 0.22307 0.16241 0.0
C574 C 0.5232 0.23462 0.13147 0.0
C575 C 0.52029 0.29217 0.13493 0.0
C576 C 0.53439 0.24469 0.1823 0.0
O577 O 0.49999 0.27495 0.16972 0.0
O578 O 0.4849 0.2459 0.17418 0.0
C579 C 0.46023 0.22215 0.14201 0.0
N580 N 0.47584 0.21315 0.14581 0.0
C581 C 0.46256 0.18287 0.12645 0.0
C582 C 0.44623 0.19174 0.12247 0.0
C583 C 0.44513 0.2115 0.13018 0.0
C584 C 0.4772 0.19427 0.13821 0.0
H585 H 0.45935 0.23731 0.14797 0.0
C586 C 0.48661 0.26463 0.17687 0.0
O587 O 0.53166 0.29207 0.14949 0.0
O588 O 0.50814 0.27664 0.12981 0.0
N589 N 0.508 0.19941 0.15221 0.0
C590 C 0.52515 0.19341 0.15667 0.0
C591 C 0.52844 0.1739 0.15044 0.0
C592 C 0.51408 0.1608 0.13975 0.0
C593 C 0.49679 0.16744 0.13484 0.0
C594 C 0.49413 0.18691 0.14184 0.0
H595 H 0.53605 0.20327 0.16532 0.0
O596 O 0.53552 0.24985 0.13096 0.0
O597 O 0.509 0.2375 0.14288 0.0
O598 O 0.53652 0.25814 0.17204 0.0
O599 O 0.51999 0.23151 0.18026 0.0
C600 C 0.48202 0.15548 0.12343 0.0
C601 C 0.465 0.16326 0.11906 0.0
H602 H 0.43453 0.18356 0.11338 0.0
H603 H 0.43263 0.21848 0.12708 0.0
H604 H 0.54185 0.16889 0.15422 0.0
H605 H 0.51633 0.14558 0.13563 0.0
H606 H 0.48371 0.14037 0.11774 0.0
H607 H 0.45388 0.15404 0.11 0.0
H608 H 0.25764 0.7339 0.84412 0.0
H609 H 0.25774 0.76046 0.87134 0.0
H610 H 0.20105 0.73701 0.88541 0.0
H611 H 0.2006 0.711 0.85749 0.0
H612 H 0.2023 0.77392 0.89219 0.0
H613 H 0.24368 0.73027 0.91016 0.0
H614 H 0.27008 0.70933 0.90746 0.0
H615 H 0.31112 0.75975 0.90689 0.0
H616 H 0.28493 0.78097 0.9093 0.0
H617 H 0.2141 0.84029 0.98251 0.0
H618 H 0.20763 0.81194 0.95701 0.0
H619 H 0.26486 0.82386 0.93655 0.0
H620 H 0.27202 0.84992 0.96372 0.0
H621 H 0.25989 0.78892 0.93569 0.0
H622 H 0.21233 0.83033 0.91149 0.0
H623 H 0.18307 0.84771 0.91555 0.0
H624 H 0.15166 0.79698 0.93185 0.0
H625 H 0.1805 0.77937 0.92773 0.0
C626 C 0.24517 0.73454 0.85298 0.0
C627 C 0.22915 0.7204 0.8488 0.0
C628 C 0.24527 0.74962 0.86863 0.0
C629 C 0.22961 0.75053 0.88083 0.0
C630 C 0.21336 0.73665 0.87633 0.0
C631 C 0.21309 0.72179 0.8604 0.0
C632 C 0.23033 0.76587 0.89826 0.0
C633 C 0.21489 0.77714 0.90175 0.0
C634 C 0.24648 0.76989 0.91111 0.0
C635 C 0.26231 0.7572 0.90976 0.0
C636 C 0.25832 0.73688 0.90934 0.0
C637 C 0.27325 0.72496 0.90787 0.0
C638 C 0.29226 0.7332 0.90696 0.0
C639 C 0.29639 0.75338 0.90757 0.0
C640 C 0.28151 0.76537 0.90901 0.0
C641 C 0.22513 0.83692 0.97234 0.0
C642 C 0.24324 0.84807 0.97441 0.0
C643 C 0.22136 0.82082 0.95753 0.0
C644 C 0.23548 0.81587 0.94418 0.0
C645 C 0.25352 0.82723 0.94636 0.0
C646 C 0.25751 0.84262 0.96163 0.0
C647 C 0.23251 0.79813 0.92884 0.0
C648 C 0.24742 0.78601 0.92597 0.0
C649 C 0.21566 0.793 0.91692 0.0
C650 C 0.19857 0.80376 0.91961 0.0
C651 C 0.19919 0.82307 0.91612 0.0
C652 C 0.18273 0.83289 0.91837 0.0
C653 C 0.16565 0.82353 0.92412 0.0
C654 C 0.16492 0.80425 0.92748 0.0
C655 C 0.18127 0.79434 0.92512 0.0
H656 H 0.15296 0.83117 0.92587 0.0
H657 H 0.3038 0.72394 0.90583 0.0
H658 H 0.04745 0.50965 0.44427 0.0
H659 H 0.07013 0.51019 0.41831 0.0
H660 H 0.04101 0.55461 0.39767 0.0
H661 H 0.01809 0.55372 0.4235 0.0
H662 H 0.04553 0.52607 0.36939 0.0
H663 H 0.0872 0.56433 0.41911 0.0
H664 H 0.10436 0.57186 0.45047 0.0
H665 H 0.1341 0.52088 0.43618 0.0
H666 H 0.11692 0.51289 0.40482 0.0
H667 H 0.11181 0.5555 0.30339 0.0
H668 H 0.0919 0.55326 0.33087 0.0
H669 H 0.12035 0.50461 0.34318 0.0
H670 H 0.14065 0.50678 0.31542 0.0
H671 H 0.11675 0.53302 0.37559 0.0
H672 H 0.07583 0.49578 0.32514 0.0
H673 H 0.05897 0.48896 0.29363 0.0
H674 H 0.02795 0.53881 0.30936 0.0
H675 H 0.04483 0.54611 0.34088 0.0
C676 C 0.04628 0.51989 0.43446 0.0
C677 C 0.03132 0.53187 0.43594 0.0
C678 C 0.05921 0.52018 0.41961 0.0
C679 C 0.05742 0.53254 0.40603 0.0
C680 C 0.04273 0.54497 0.40795 0.0
C681 C 0.02976 0.54461 0.42278 0.0
C682 C 0.06994 0.5315 0.38913 0.0
C683 C 0.06111 0.52788 0.37081 0.0
C684 C 0.09029 0.53314 0.39084 0.0
C685 C 0.10062 0.5379 0.4097 0.0
C686 C 0.09727 0.55463 0.42272 0.0
C687 C 0.10703 0.559 0.44048 0.0
C688 C 0.12027 0.54683 0.44534 0.0
C689 C 0.12382 0.53028 0.43241 0.0
C690 C 0.11409 0.52583 0.41464 0.0
C691 C 0.11387 0.54421 0.31182 0.0
C692 C 0.12789 0.5313 0.30712 0.0
C693 C 0.10236 0.54293 0.32754 0.0
C694 C 0.10451 0.5287 0.33904 0.0
C695 C 0.11843 0.5157 0.33447 0.0
C696 C 0.12993 0.51687 0.31854 0.0
C697 C 0.09231 0.5279 0.35597 0.0
C698 C 0.10117 0.53113 0.37425 0.0
C699 C 0.07198 0.52597 0.35425 0.0
C700 C 0.06172 0.52158 0.33533 0.0
C701 C 0.06552 0.50538 0.32183 0.0
C702 C 0.05594 0.50142 0.30398 0.0
C703 C 0.04242 0.51347 0.29948 0.0
C704 C 0.03843 0.52949 0.31286 0.0
C705 C 0.04798 0.53354 0.33073 0.0
H706 H 0.03502 0.51038 0.28565 0.0
H707 H 0.12781 0.55024 0.45909 0.0
H708 H 0.79207 0.77211 0.84667 0.0
H709 H 0.78907 0.75057 0.87051 0.0
H710 H 0.85056 0.75854 0.88019 0.0
H711 H 0.85371 0.78075 0.85656 0.0
H712 H 0.83233 0.7182 0.8789 0.0
H713 H 0.82751 0.78321 0.91146 0.0
H714 H 0.81579 0.81575 0.91624 0.0
H715 H 0.75792 0.78902 0.91935 0.0
H716 H 0.76926 0.75628 0.91428 0.0
H717 H 0.81334 0.673 0.9635 0.0
H718 H 0.82712 0.69518 0.94228 0.0
H719 H 0.77004 0.70627 0.92673 0.0
H720 H 0.75634 0.68472 0.94768 0.0
H721 H 0.7927 0.73957 0.93419 0.0
H722 H 0.79653 0.67494 0.89737 0.0
H723 H 0.80736 0.64199 0.89141 0.0
H724 H 0.86626 0.66754 0.89587 0.0
H725 H 0.85576 0.70066 0.9021 0.0
C726 C 0.80501 0.76943 0.85387 0.0
C727 C 0.82312 0.77854 0.84987 0.0
C728 C 0.80327 0.75695 0.86744 0.0
C729 C 0.81956 0.75311 0.87732 0.0
C730 C 0.83779 0.76132 0.87275 0.0
C731 C 0.83956 0.77398 0.8592 0.0
C732 C 0.81709 0.74141 0.89309 0.0
C733 C 0.82401 0.72301 0.89121 0.0
C734 C 0.80611 0.7476 0.90908 0.0
C735 C 0.79924 0.76728 0.91236 0.0
C736 C 0.81227 0.78426 0.91303 0.0
C737 C 0.80569 0.80274 0.91581 0.0
C738 C 0.78612 0.80445 0.91806 0.0
C739 C 0.77308 0.78767 0.91759 0.0
C740 C 0.77958 0.76915 0.91479 0.0
C741 C 0.80376 0.68021 0.95558 0.0
C742 C 0.7837 0.677 0.95744 0.0
C743 C 0.81166 0.69284 0.94339 0.0
C744 C 0.79962 0.70243 0.93283 0.0
C745 C 0.77968 0.69921 0.93475 0.0
C746 C 0.77185 0.68673 0.9468 0.0
C747 C 0.80729 0.71596 0.91972 0.0
C748 C 0.80136 0.73483 0.92211 0.0
C749 C 0.81907 0.71012 0.90421 0.0
C750 C 0.82537 0.69024 0.90045 0.0
C751 C 0.81179 0.67352 0.89725 0.0
C752 C 0.81787 0.65482 0.89379 0.0
C753 C 0.83749 0.65267 0.89333 0.0
C754 C 0.85107 0.66922 0.89628 0.0
C755 C 0.84506 0.68796 0.89977 0.0
H756 H 0.84217 0.63818 0.89064 0.0
H757 H 0.78105 0.81877 0.92021 0.0
H758 H 0.05966 0.98845 0.42843 0.0
H759 H 0.04293 0.99807 0.40163 0.0
H760 H 0.99539 0.01183 0.43752 0.0
H761 H 0.01201 1.00196 0.46436 0.0
H762 H 0.98206 0.99258 0.40447 0.0
H763 H 0.02816 0.04819 0.42364 0.0
H764 H 0.06025 0.06603 0.43247 0.0
H765 H 0.08015 0.04478 0.37682 0.0
H766 H 0.04825 0.02656 0.36774 0.0
H767 H 0.93816 0.03594 0.3327 0.0
H768 H 0.95573 0.03586 0.36294 0.0
H769 H 1.00018 0.00731 0.3319 0.0
H770 H 0.9825 0.00689 0.30182 0.0
H771 H 0.0139 0.03783 0.36431 0.0
H772 H 0.96944 0.97866 0.34771 0.0
H773 H 0.93755 0.9605 0.33882 0.0
H774 H 0.91457 0.98974 0.39012 0.0
H775 H 0.94643 0.00815 0.39928 0.0
C776 C 0.04572 0.9937 0.43068 0.0
C777 C 0.03722 0.99448 0.44858 0.0
C778 C 0.03616 0.99926 0.41533 0.0
C779 C 0.01798 0.00602 0.41755 0.0
C780 C 0.0094 0.00671 0.4354 0.0
C781 C 0.0189 1.00101 0.45073 0.0
C782 C 0.0077 0.01172 0.40109 0.0
C783 C 0.98894 1.00281 0.39599 0.0
C784 C 0.01665 0.02485 0.38971 0.0
C785 C 0.03584 0.03589 0.39506 0.0
C786 C 0.03941 0.04721 0.41332 0.0
C787 C 0.05757 0.05741 0.41837 0.0
C788 C 0.07224 0.05651 0.40522 0.0
C789 C 0.06877 0.04545 0.38699 0.0
C790 C 0.05065 0.0352 0.38188 0.0
C791 C 0.95194 0.03017 0.33233 0.0
C792 C 0.959 0.02147 0.31493 0.0
C793 C 0.9619 0.03001 0.3496 0.0
C794 C 0.97923 0.0215 0.34966 0.0
C795 C 0.98689 0.01401 0.33219 0.0
C796 C 0.97677 0.01377 0.31502 0.0
C797 C 0.98848 0.0186 0.36781 0.0
C798 C 0.00701 0.02792 0.37311 0.0
C799 C 0.97933 0.00596 0.37945 0.0
C800 C 0.96021 0.99493 0.37405 0.0
C801 C 0.95754 0.98133 0.35701 0.0
C802 C 0.93948 0.97097 0.35194 0.0
C803 C 0.92399 0.97404 0.36384 0.0
C804 C 0.92657 0.98741 0.38089 0.0
C805 C 0.94463 0.99779 0.38605 0.0
H806 H 0.91 0.96601 0.35988 0.0
H807 H 0.08629 0.06441 0.40916 0.0
H808 H 0.24882 0.26265 0.68195 0.0
H809 H 0.2544 0.24251 0.65122 0.0
H810 H 0.23478 0.28639 0.62157 0.0
H811 H 0.22962 0.30687 0.65239 0.0
H812 H 0.2176 0.24398 0.60943 0.0
H813 H 0.27786 0.28561 0.62004 0.0
H814 H 0.30685 0.30127 0.639 0.0
H815 H 0.32397 0.24471 0.64329 0.0
H816 H 0.2949 0.2287 0.6246 0.0
H817 H 0.24072 0.19594 0.51812 0.0
H818 H 0.23744 0.2211 0.54589 0.0
H819 H 0.27442 0.19296 0.57935 0.0
H820 H 0.27844 0.16834 0.55144 0.0
H821 H 0.2828 0.22995 0.58872 0.0
H822 H 0.2235 0.18767 0.5812 0.0
H823 H 0.19422 0.16996 0.56412 0.0
H824 H 0.17457 0.22458 0.55647 0.0
H825 H 0.20391 0.24262 0.57323 0.0
C826 C 0.24577 0.268 0.66886 0.0
C827 C 0.23879 0.28626 0.66947 0.0
C828 C 0.24899 0.25654 0.65137 0.0
C829 C 0.24499 0.263 0.63418 0.0
C830 C 0.23794 0.28119 0.63471 0.0
C831 C 0.23508 0.29287 0.65225 0.0
C832 C 0.24799 0.25048 0.61572 0.0
C833 C 0.23184 0.24115 0.60465 0.0
C834 C 0.26655 0.24637 0.60993 0.0
C835 C 0.2841 0.25596 0.62107 0.0
C836 C 0.28771 0.27651 0.62518 0.0
C837 C 0.30417 0.28545 0.63584 0.0
C838 C 0.31722 0.27399 0.64239 0.0
C839 C 0.31384 0.25357 0.63823 0.0
C840 C 0.29738 0.24455 0.62758 0.0
C841 C 0.24824 0.19519 0.53137 0.0
C842 C 0.25979 0.18008 0.53257 0.0
C843 C 0.24627 0.20953 0.54729 0.0
C844 C 0.25538 0.20878 0.56489 0.0
C845 C 0.26723 0.19392 0.56598 0.0
C846 C 0.26949 0.1798 0.54999 0.0
C847 C 0.25236 0.22319 0.58228 0.0
C848 C 0.26851 0.23286 0.59326 0.0
C849 C 0.23374 0.22728 0.58821 0.0
C850 C 0.216 0.21648 0.57829 0.0
C851 C 0.21299 0.1959 0.57576 0.0
C852 C 0.19638 0.1858 0.56614 0.0
C853 C 0.18256 0.19613 0.55917 0.0
C854 C 0.1853 0.2166 0.56185 0.0
C855 C 0.20192 0.22677 0.57141 0.0
H856 H 0.16971 0.18829 0.55173 0.0
H857 H 0.32996 0.28094 0.65064 0.0
H858 H 0.56547 0.53279 0.6209 0.0
H859 H 0.54819 0.52742 0.64967 0.0
H860 H 0.49427 0.52945 0.62047 0.0
H861 H 0.51108 0.53346 0.59133 0.0
H862 H 0.5039 0.55553 0.66053 0.0
H863 H 0.49939 0.48891 0.62419 0.0
H864 H 0.51386 0.46052 0.60713 0.0
H865 H 0.54734 0.45773 0.65756 0.0
H866 H 0.53325 0.48631 0.67483 0.0
H867 H 0.4321 0.52649 0.72205 0.0
H868 H 0.45242 0.53248 0.69549 0.0
H869 H 0.49561 0.50086 0.71673 0.0
H870 H 0.47462 0.4937 0.74254 0.0
H871 H 0.49427 0.49084 0.68173 0.0
H872 H 0.49922 0.55424 0.7196 0.0
H873 H 0.48828 0.58393 0.73822 0.0
H874 H 0.45901 0.5952 0.68829 0.0
H875 H 0.46957 0.56543 0.66942 0.0
C876 C 0.54992 0.53176 0.62041 0.0
C877 C 0.53979 0.53374 0.60364 0.0
C878 C 0.54009 0.52888 0.63696 0.0
C879 C 0.51999 0.52821 0.6372 0.0
C880 C 0.50982 0.53015 0.62061 0.0
C881 C 0.51955 0.5326 0.60397 0.0
C882 C 0.50943 0.5254 0.65468 0.0
C883 C 0.50161 0.54139 0.66516 0.0
C884 C 0.50715 0.50714 0.66105 0.0
C885 C 0.51545 0.48987 0.65072 0.0
C886 C 0.50998 0.48236 0.63158 0.0
C887 C 0.51808 0.46621 0.62188 0.0
C888 C 0.53156 0.45737 0.63124 0.0
C889 C 0.53692 0.46462 0.65033 0.0
C890 C 0.52887 0.48078 0.66007 0.0
C891 C 0.44601 0.52098 0.72113 0.0
C892 C 0.45182 0.50972 0.73443 0.0
C893 C 0.45773 0.52452 0.70597 0.0
C894 C 0.47587 0.51752 0.70416 0.0
C895 C 0.48175 0.50646 0.71766 0.0
C896 C 0.46977 0.50243 0.7325 0.0
C897 C 0.48831 0.52101 0.6878 0.0
C898 C 0.49656 0.50512 0.67741 0.0
C899 C 0.49144 0.53957 0.68185 0.0
C900 C 0.48505 0.5575 0.69314 0.0
C901 C 0.49034 0.56297 0.71262 0.0
C902 C 0.48423 0.57983 0.72321 0.0
C903 C 0.47292 0.59141 0.71445 0.0
C904 C 0.46775 0.5862 0.69506 0.0
C905 C 0.47382 0.56935 0.68441 0.0
H906 H 0.4682 0.60446 0.72268 0.0
H907 H 0.53782 0.44487 0.62371 0.0
H908 H 0.81027 0.27394 0.6791 0.0
H909 H 0.79825 0.29346 0.65661 0.0
H910 H 0.82227 0.25678 0.60999 0.0
H911 H 0.83446 0.23744 0.63258 0.0
H912 H 0.83266 0.29453 0.60877 0.0
H913 H 0.77308 0.25554 0.61559 0.0
H914 H 0.74659 0.24099 0.63309 0.0
H915 H 0.73334 0.29845 0.65749 0.0
H916 H 0.75994 0.31336 0.64033 0.0
H917 H 0.79219 0.33523 0.5338 0.0
H918 H 0.8015 0.31366 0.55541 0.0
H919 H 0.77584 0.3486 0.60211 0.0
H920 H 0.76609 0.36996 0.58044 0.0
H921 H 0.76595 0.31125 0.60302 0.0
H922 H 0.82556 0.3504 0.5972 0.0
H923 H 0.85213 0.36547 0.58016 0.0
H924 H 0.8656 0.30843 0.55467 0.0
H925 H 0.83892 0.29301 0.57136 0.0
C926 C 0.81248 0.26977 0.66397 0.0
C927 C 0.82296 0.25407 0.65744 0.0
C928 C 0.80566 0.28094 0.65112 0.0
C929 C 0.80924 0.27657 0.63152 0.0
C930 C 0.81929 0.26045 0.625 0.0
C931 C 0.82609 0.2493 0.63786 0.0
C932 C 0.80364 0.28953 0.61805 0.0
C933 C 0.818 0.29792 0.60729 0.0
C934 C 0.78465 0.29449 0.6165 0.0
C935 C 0.76862 0.28556 0.62681 0.0
C936 C 0.76462 0.26508 0.62481 0.0
C937 C 0.74956 0.25677 0.63464 0.0
C938 C 0.73832 0.26879 0.64643 0.0
C939 C 0.74208 0.28915 0.64837 0.0
C940 C 0.75713 0.29754 0.63858 0.0
C941 C 0.78869 0.33845 0.54871 0.0
C942 C 0.77846 0.35439 0.55539 0.0
C943 C 0.79406 0.3261 0.56109 0.0
C944 C 0.78955 0.32954 0.58051 0.0
C945 C 0.77948 0.34557 0.58722 0.0
C946 C 0.77401 0.35786 0.57482 0.0
C947 C 0.79497 0.31623 0.59371 0.0
C948 C 0.7806 0.30781 0.60446 0.0
C949 C 0.81399 0.31132 0.59534 0.0
C950 C 0.83012 0.32055 0.58539 0.0
C951 C 0.8341 0.34107 0.58785 0.0
C952 C 0.84919 0.34968 0.57827 0.0
C953 C 0.86051 0.33792 0.5663 0.0
C954 C 0.8568 0.31752 0.56393 0.0
C955 C 0.84171 0.30884 0.57346 0.0
H956 H 0.87218 0.34461 0.55888 0.0
H957 H 0.72667 0.26232 0.65403 0.0
H958 H 0.5073 0.00733 0.58991 0.0
H959 H 0.52519 0.0144 0.62064 0.0
H960 H 0.56625 0.97541 0.5981 0.0
H961 H 0.54893 0.96872 0.56733 0.0
H962 H 0.55513 0.97013 0.63441 0.0
H963 H 0.57732 0.02341 0.60139 0.0
H964 H 0.57316 0.05108 0.58461 0.0
H965 H 0.54737 0.0808 0.63397 0.0
H966 H 0.55114 0.05316 0.65096 0.0
H967 H 0.63366 0.99813 0.70135 0.0
H968 H 0.61203 0.98969 0.67317 0.0
H969 H 0.57882 0.0366 0.69542 0.0
H970 H 0.6008 0.04557 0.72322 0.0
H971 H 0.58394 0.03778 0.66013 0.0
H972 H 0.56269 0.98599 0.69411 0.0
H973 H 0.56581 0.95838 0.71127 0.0
H974 H 0.58807 0.92588 0.66129 0.0
H975 H 0.58533 0.95341 0.64389 0.0
C976 C 0.52018 1.00033 0.59144 0.0
C977 C 0.52655 0.98736 0.57606 0.0
C978 C 0.53035 0.00433 0.60905 0.0
C979 C 0.54708 0.99545 0.61166 0.0
C980 C 0.5533 0.98231 0.59648 0.0
C981 C 0.54326 0.97842 0.57888 0.0
C982 C 0.5585 1.00014 0.62999 0.0
C983 C 0.56157 0.98489 0.64 0.0
C984 C 0.56648 0.01947 0.63753 0.0
C985 C 0.56432 0.03613 0.62736 0.0
C986 C 0.57062 0.03578 0.60861 0.0
C987 C 0.56836 0.05147 0.59907 0.0
C988 C 0.55995 0.06766 0.6082 0.0
C989 C 0.55385 0.06823 0.62691 0.0
C990 C 0.55605 0.05256 0.6365 0.0
C991 C 0.62163 0.00652 0.70035 0.0
C992 C 0.61899 0.02252 0.71458 0.0
C993 C 0.60919 1.00162 0.68423 0.0
C994 C 0.59357 0.01234 0.68218 0.0
C995 C 0.59074 0.0281 0.69657 0.0
C996 C 0.60332 0.03318 0.71252 0.0
C997 C 0.58069 0.00774 0.6647 0.0
C998 C 0.57738 0.02302 0.65476 0.0
C999 C 0.57232 0.98844 0.65735 0.0
C1000 C 0.57396 0.97184 0.66776 0.0
C1001 C 0.56838 0.97301 0.68682 0.0
C1002 C 0.57006 0.95737 0.69658 0.0
C1003 C 0.57718 0.94041 0.68739 0.0
C1004 C 0.58258 0.93904 0.6684 0.0
C1005 C 0.58095 0.95465 0.65857 0.0
H1006 H 0.57846 0.92831 0.69498 0.0
H1007 H 0.55821 0.0798 0.60079 0.0
H1008 H 0.85112 0.20726 0.76036 0.0
H1009 H 0.87598 0.20834 0.78499 0.0
H1010 H 0.91967 0.22163 0.74539 0.0
H1011 H 0.89495 0.21931 0.72024 0.0
H1012 H 0.93231 0.19811 0.76671 0.0
H1013 H 0.90243 0.25763 0.77884 0.0
H1014 H 0.87576 0.27805 0.7848 0.0
H1015 H 0.86219 0.25357 0.83533 0.0
H1016 H 0.88859 0.23277 0.8295 0.0
H1017 H 0.98381 0.26425 0.85753 0.0
H1018 H 0.96016 0.25788 0.83113 0.0
H1019 H 0.96162 0.19561 0.82836 0.0
H1020 H 0.98633 0.20221 0.85432 0.0
H1021 H 0.9265 0.24306 0.82756 0.0
H1022 H 0.94749 0.17099 0.78383 0.0
H1023 H 0.97647 0.15422 0.7765 0.0
H1024 H 0.01177 0.20954 0.78728 0.0
H1025 H 0.98298 0.22664 0.79444 0.0
C1026 C 0.86602 0.21003 0.75669 0.0
C1027 C 0.87093 0.21331 0.73823 0.0
C1028 C 0.88025 0.21086 0.77092 0.0
C1029 C 0.89973 0.2154 0.76719 0.0
C1030 C 0.90475 0.21818 0.74868 0.0
C1031 C 0.89053 0.21711 0.73435 0.0
C1032 C 0.91476 0.21811 0.78278 0.0
C1033 C 0.93098 0.20781 0.78011 0.0
C1034 C 0.91329 0.23107 0.80015 0.0
C1035 C 0.89733 0.24347 0.8036 0.0
C1036 C 0.89364 0.25647 0.79112 0.0
C1037 C 0.87859 0.26813 0.79449 0.0
C1038 C 0.86724 0.26706 0.8104 0.0
C1039 C 0.87095 0.25435 0.82299 0.0
C1040 C 0.88595 0.24262 0.81966 0.0
C1041 C 0.97909 0.24919 0.85124 0.0
C1042 C 0.98657 0.23368 0.8581 0.0
C1043 C 0.96554 0.24554 0.83614 0.0
C1044 C 0.95902 0.22625 0.82756 0.0
C1045 C 0.9666 0.21065 0.83441 0.0
C1046 C 0.98058 0.21437 0.84933 0.0
C1047 C 0.944 0.22279 0.81184 0.0
C1048 C 0.92774 0.23301 0.81442 0.0
C1049 C 0.94572 0.21016 0.79428 0.0
C1050 C 0.9631 0.20005 0.78988 0.0
C1051 C 0.96143 0.17957 0.78458 0.0
C1052 C 0.97782 0.17001 0.78047 0.0
C1053 C 0.99595 0.18081 0.7815 0.0
C1054 C 0.99773 0.20119 0.78657 0.0
C1055 C 0.98138 0.21082 0.79068 0.0
H1056 H 0.00862 0.17338 0.77832 0.0
H1057 H 0.85561 0.27612 0.813 0.0
H1058 H 0.53775 0.93826 0.52699 0.0
H1059 H 0.5411 0.90702 0.50719 0.0
H1060 H 0.48843 0.91045 0.47622 0.0
H1061 H 0.48409 0.94115 0.49714 0.0
H1062 H 0.48851 0.87544 0.48129 0.0
H1063 H 0.535 0.91899 0.45738 0.0
H1064 H 0.56218 0.94486 0.45831 0.0
H1065 H 0.59946 0.90884 0.48143 0.0
H1066 H 0.57245 0.88285 0.48088 0.0
H1067 H 0.5379 0.80507 0.40498 0.0
H1068 H 0.53745 0.83848 0.42247 0.0
H1069 H 0.51408 0.81502 0.47096 0.0
H1070 H 0.51362 0.78181 0.45316 0.0
H1071 H 0.55101 0.86144 0.45307 0.0
H1072 H 0.48077 0.84069 0.49167 0.0
H1073 H 0.45211 0.81625 0.48619 0.0
H1074 H 0.45948 0.80973 0.42566 0.0
H1075 H 0.48805 0.83424 0.43074 0.0
C1076 C 0.5266 0.93229 0.51625 0.0
C1077 C 0.51049 0.94231 0.51391 0.0
C1078 C 0.52878 0.9145 0.50461 0.0
C1079 C 0.51525 0.90643 0.48988 0.0
C1080 C 0.49916 0.91636 0.48741 0.0
C1081 C 0.49677 0.93406 0.4993 0.0
C1082 C 0.51767 0.88736 0.47754 0.0
C1083 C 0.50218 0.87247 0.47509 0.0
C1084 C 0.53532 0.88346 0.46891 0.0
C1085 C 0.55165 0.89902 0.46922 0.0
C1086 C 0.54897 0.91663 0.46278 0.0
C1087 C 0.56435 0.93131 0.46323 0.0
C1088 C 0.58253 0.92851 0.46996 0.0
C1089 C 0.58537 0.911 0.47623 0.0
C1090 C 0.57003 0.89627 0.47583 0.0
C1091 C 0.53317 0.8071 0.41956 0.0
C1092 C 0.52574 0.79091 0.42773 0.0
C1093 C 0.5328 0.82619 0.42952 0.0
C1094 C 0.52518 0.82934 0.44786 0.0
C1095 C 0.51944 0.81305 0.45662 0.0
C1096 C 0.5194 0.79405 0.44654 0.0
C1097 C 0.52206 0.84945 0.45739 0.0
C1098 C 0.53736 0.8645 0.45925 0.0
C1099 C 0.50401 0.85375 0.46483 0.0
C1100 C 0.48665 0.83919 0.46161 0.0
C1101 C 0.47622 0.8341 0.47718 0.0
C1102 C 0.46002 0.8202 0.47415 0.0
C1103 C 0.45403 0.81138 0.45559 0.0
C1104 C 0.46419 0.81649 0.44002 0.0
C1105 C 0.4804 0.83037 0.44297 0.0
H1106 H 0.44149 0.80062 0.45327 0.0
H1107 H 0.59441 0.9399 0.47029 0.0
H1108 H 0.16216 0.30901 0.7445 0.0
H1109 H 0.13862 0.30968 0.76977 0.0
H1110 H 0.18261 0.30042 0.8095 0.0
H1111 H 0.20606 0.29949 0.78406 0.0
H1112 H 0.15206 0.27414 0.80894 0.0
H1113 H 0.16185 0.34407 0.81425 0.0
H1114 H 0.164 0.37561 0.80246 0.0
H1115 H 0.1051 0.3634 0.78229 0.0
H1116 H 0.10266 0.33165 0.79372 0.0
H1117 H 0.09037 0.27298 0.88601 0.0
H1118 H 0.1167 0.28333 0.86639 0.0
H1119 H 0.07571 0.29638 0.82564 0.0
H1120 H 0.04933 0.28677 0.84565 0.0
H1121 H 0.10595 0.32251 0.82825 0.0
H1122 H 0.09658 0.25218 0.81945 0.0
H1123 H 0.09365 0.21975 0.82949 0.0
H1124 H 0.15096 0.23174 0.85413 0.0
H1125 H 0.15414 0.26437 0.84443 0.0
C1126 C 0.16687 0.30776 0.75881 0.0
C1127 C 0.18586 0.30446 0.76252 0.0
C1128 C 0.15343 0.30813 0.77325 0.0
C1129 C 0.15882 0.30521 0.79163 0.0
C1130 C 0.17811 0.30277 0.79548 0.0
C1131 C 0.19152 0.30238 0.78102 0.0
C1132 C 0.144 0.30254 0.80612 0.0
C1133 C 0.14225 0.28493 0.81347 0.0
C1134 C 0.13072 0.31627 0.81152 0.0
C1135 C 0.13212 0.3354 0.80472 0.0
C1136 C 0.14939 0.34804 0.80717 0.0
C1137 C 0.15066 0.36597 0.80058 0.0
C1138 C 0.13471 0.37149 0.7916 0.0
C1139 C 0.11745 0.3591 0.78924 0.0
C1140 C 0.11611 0.34115 0.7958 0.0
C1141 C 0.08697 0.27827 0.87299 0.0
C1142 C 0.06776 0.2789 0.8673 0.0
C1143 C 0.10205 0.2841 0.86171 0.0
C1144 C 0.09823 0.29021 0.84426 0.0
C1145 C 0.07907 0.29166 0.83898 0.0
C1146 C 0.06398 0.28612 0.85042 0.0
C1147 C 0.11409 0.29413 0.8311 0.0
C1148 C 0.11594 0.31187 0.82391 0.0
C1149 C 0.12738 0.28042 0.82561 0.0
C1150 C 0.12552 0.26079 0.8314 0.0
C1151 C 0.1085 0.24795 0.82712 0.0
C1152 C 0.10681 0.22953 0.83274 0.0
C1153 C 0.12209 0.22371 0.84249 0.0
C1154 C 0.13913 0.23628 0.8466 0.0
C1155 C 0.14089 0.25473 0.84104 0.0
H1156 H 0.12075 0.20944 0.84683 0.0
H1157 H 0.13572 0.38537 0.7865 0.0
H1158 H 0.56685 0.57436 0.49863 0.0
H1159 H 0.56524 0.59906 0.47754 0.0
H1160 H 0.53639 0.63482 0.52115 0.0
H1161 H 0.53824 0.61044 0.54215 0.0
H1162 H 0.51655 0.6257 0.48509 0.0
H1163 H 0.58037 0.64997 0.51197 0.0
H1164 H 0.61438 0.64709 0.51933 0.0
H1165 H 0.62449 0.6319 0.45951 0.0
H1166 H 0.59045 0.63443 0.45181 0.0
H1167 H 0.50654 0.7119 0.44981 0.0
H1168 H 0.51533 0.68824 0.46926 0.0
H1169 H 0.55377 0.66609 0.42604 0.0
H1170 H 0.54563 0.69047 0.40682 0.0
H1171 H 0.56962 0.66589 0.45928 0.0
H1172 H 0.50773 0.64213 0.43123 0.0
H1173 H 0.47383 0.64354 0.42214 0.0
H1174 H 0.45976 0.65455 0.4813 0.0
H1175 H 0.49364 0.65354 0.49076 0.0
C1176 C 0.5607 0.58779 0.50381 0.0
C1177 C 0.55287 0.59074 0.52201 0.0
C1178 C 0.5597 0.60182 0.49178 0.0
C1179 C 0.55064 0.61878 0.49777 0.0
C1180 C 0.54342 0.62188 0.51623 0.0
C1181 C 0.5446 0.60803 0.52825 0.0
C1182 C 0.54723 0.63262 0.4845 0.0
C1183 C 0.52814 0.63464 0.47959 0.0
C1184 C 0.56236 0.64367 0.47669 0.0
C1185 C 0.58281 0.64216 0.48133 0.0
C1186 C 0.58979 0.64583 0.5004 0.0
C1187 C 0.60909 0.6443 0.50463 0.0
C1188 C 0.62157 0.63925 0.4899 0.0
C1189 C 0.6148 0.63578 0.47091 0.0
C1190 C 0.59551 0.63727 0.4666 0.0
C1191 C 0.51693 0.70205 0.44444 0.0
C1192 C 0.52524 0.70298 0.42666 0.0
C1193 C 0.52189 0.68843 0.45556 0.0
C1194 C 0.53487 0.67495 0.44896 0.0
C1195 C 0.54365 0.67621 0.43145 0.0
C1196 C 0.53895 0.69014 0.42045 0.0
C1197 C 0.53884 0.65938 0.46021 0.0
C1198 C 0.55799 0.65691 0.46466 0.0
C1199 C 0.52374 0.64755 0.46732 0.0
C1200 C 0.50327 0.64791 0.4617 0.0
C1201 C 0.49743 0.64496 0.4423 0.0
C1202 C 0.47821 0.64569 0.43709 0.0
C1203 C 0.46466 0.64917 0.45113 0.0
C1204 C 0.47028 0.65188 0.47043 0.0
C1205 C 0.48949 0.65121 0.47573 0.0
H1206 H 0.44979 0.64973 0.44707 0.0
H1207 H 0.63651 0.63809 0.4932 0.0
H1208 H 0.83824 0.81466 0.77409 0.0
H1209 H 0.86383 0.81414 0.75097 0.0
H1210 H 0.90376 0.80295 0.79363 0.0
H1211 H 0.87849 0.80426 0.81701 0.0
H1212 H 0.92116 0.82783 0.7734 0.0
H1213 H 0.8819 0.76597 0.75881 0.0
H1214 H 0.85188 0.74389 0.75078 0.0
H1215 H 0.84452 0.76744 0.69926 0.0
H1216 H 0.87439 0.78986 0.70713 0.0
H1217 H 0.98882 0.7764 0.71681 0.0
H1218 H 0.96433 0.78836 0.73867 0.0
H1219 H 0.93426 0.80593 0.69199 0.0
H1220 H 0.95911 0.79425 0.67012 0.0
H1221 H 0.91121 0.78127 0.71235 0.0
H1222 H 0.95369 0.84054 0.72608 0.0
H1223 H 0.98463 0.8609 0.73454 0.0
H1224 H 0.98693 0.84035 0.78823 0.0
H1225 H 0.95613 0.81962 0.77998 0.0
C1226 C 0.85253 0.8124 0.77867 0.0
C1227 C 0.85619 0.80934 0.79745 0.0
C1228 C 0.86714 0.81191 0.76535 0.0
C1229 C 0.88573 0.8082 0.77041 0.0
C1230 C 0.88956 0.80575 0.78929 0.0
C1231 C 0.875 0.8063 0.80262 0.0
C1232 C 0.90107 0.80627 0.75601 0.0
C1233 C 0.919 0.81755 0.76011 0.0
C1234 C 0.89823 0.79317 0.73842 0.0
C1235 C 0.88024 0.77976 0.73368 0.0
C1236 C 0.87379 0.76656 0.74586 0.0
C1237 C 0.85682 0.75396 0.74132 0.0
C1238 C 0.84626 0.75431 0.72455 0.0
C1239 C 0.85269 0.76722 0.71226 0.0
C1240 C 0.86964 0.77987 0.71675 0.0
C1241 C 0.97734 0.78346 0.71139 0.0
C1242 C 0.97602 0.78482 0.69192 0.0
C1243 C 0.96331 0.79021 0.72385 0.0
C1244 C 0.94746 0.79812 0.71701 0.0
C1245 C 0.94641 0.8 0.69761 0.0
C1246 C 0.96068 0.79353 0.68517 0.0
C1247 C 0.93131 0.80268 0.72984 0.0
C1248 C 0.91325 0.79179 0.72549 0.0
C1249 C 0.93412 0.81594 0.74728 0.0
C1250 C 0.95265 0.8284 0.75233 0.0
C1251 C 0.96087 0.84023 0.73962 0.0
C1252 C 0.97837 0.85186 0.7444 0.0
C1253 C 0.98776 0.85189 0.7619 0.0
C1254 C 0.97964 0.8403 0.77468 0.0
C1255 C 0.96215 0.82863 0.76997 0.0
H1256 H 1.0013 0.86091 0.76557 0.0
H1257 H 0.83313 0.74454 0.72106 0.0
H1258 H 0.06228 0.94873 0.54851 0.0
H1259 H 0.06036 0.92342 0.56917 0.0
H1260 H 0.02242 0.88515 0.52734 0.0
H1261 H 0.0244 0.91033 0.50684 0.0
H1262 H 0.00794 0.8882 0.56294 0.0
H1263 H 0.06833 0.87598 0.53408 0.0
H1264 H 0.10171 0.88478 0.52529 0.0
H1265 H 0.11864 0.90188 0.58454 0.0
H1266 H 0.08528 0.89342 0.59369 0.0
H1267 H 0.00242 0.79912 0.59936 0.0
H1268 H 0.00748 0.82499 0.57989 0.0
H1269 H 0.04982 0.85712 0.62137 0.0
H1270 H 0.04521 0.83096 0.64063 0.0
H1271 H 0.06264 0.85859 0.58733 0.0
H1272 H 0.00328 0.87082 0.61677 0.0
H1273 H 0.97003 0.86299 0.62645 0.0
H1274 H 0.95116 0.84753 0.56759 0.0
H1275 H 0.98436 0.85503 0.55754 0.0
C1276 C 0.0539 0.93473 0.54364 0.0
C1277 C 0.04366 0.93129 0.52606 0.0
C1278 C 0.05276 0.9203 0.55543 0.0
C1279 C 0.04124 0.90231 0.54982 0.0
C1280 C 0.03136 0.89886 0.53202 0.0
C1281 C 0.0326 0.91319 0.52025 0.0
C1282 C 0.0386 0.88741 0.56276 0.0
C1283 C 0.01989 0.88156 0.56809 0.0
C1284 C 0.05421 0.87919 0.57003 0.0
C1285 C 0.07427 0.88427 0.56456 0.0
C1286 C 0.07913 0.88178 0.54523 0.0
C1287 C 0.09806 0.88667 0.54018 0.0
C1288 C 0.11228 0.89394 0.55434 0.0
C1289 C 0.1076 0.89628 0.57359 0.0
C1290 C 0.08869 0.89143 0.57871 0.0
C1291 C 0.01271 0.81175 0.60442 0.0
C1292 C 0.02332 0.81299 0.62162 0.0
C1293 C 0.01557 0.82661 0.59328 0.0
C1294 C 0.02888 0.84325 0.59921 0.0
C1295 C 0.03947 0.8445 0.61642 0.0
C1296 C 0.03674 0.82955 0.62749 0.0
C1297 C 0.0319 0.85916 0.58735 0.0
C1298 C 0.05067 0.86526 0.58226 0.0
C1299 C 0.01635 0.86779 0.58043 0.0
C1300 C 0.99635 0.86332 0.58641 0.0
C1301 C 0.99207 0.86562 0.60589 0.0
C1302 C 0.97322 0.86126 0.61144 0.0
C1303 C 0.9585 0.85472 0.59765 0.0
C1304 C 0.96258 0.85258 0.57826 0.0
C1305 C 0.98141 0.8569 0.57263 0.0
H1306 H 0.94392 0.85136 0.60198 0.0
H1307 H 0.12692 0.89771 0.55041 0.0
H1308 H 0.19065 0.72124 0.76733 0.0
H1309 H 0.16477 0.7345 0.75147 0.0
H1310 H 0.12304 0.69225 0.77074 0.0
H1311 H 0.14894 0.67895 0.7864 0.0
H1312 H 0.11819 0.69227 0.73326 0.0
H1313 H 0.12657 0.74122 0.78992 0.0
H1314 H 0.14478 0.76653 0.81383 0.0
H1315 H 0.16058 0.80067 0.77016 0.0
H1316 H 0.14267 0.77543 0.74593 0.0
H1317 H 0.03233 0.72538 0.70827 0.0
H1318 H 0.05897 0.71859 0.72764 0.0
H1319 H 0.09723 0.76061 0.70401 0.0
H1320 H 0.07044 0.76776 0.68458 0.0
H1321 H 0.10493 0.76174 0.74265 0.0
H1322 H 0.09614 0.71339 0.68611 0.0
H1323 H 0.07731 0.68861 0.66216 0.0
H1324 H 0.06262 0.65341 0.70525 0.0
H1325 H 0.08106 0.67815 0.72954 0.0
C1326 C 0.17588 0.71512 0.76846 0.0
C1327 C 0.17162 0.69928 0.77818 0.0
C1328 C 0.16112 0.72267 0.75941 0.0
C1329 C 0.1419 0.71444 0.75996 0.0
C1330 C 0.13771 0.69885 0.7701 0.0
C1331 C 0.15246 0.69134 0.77915 0.0
C1332 C 0.12629 0.72124 0.7491 0.0
C1333 C 0.11515 0.70742 0.73552 0.0
C1334 C 0.1227 0.74113 0.75153 0.0
C1335 C 0.13345 0.75633 0.76608 0.0
C1336 C 0.13406 0.75405 0.78538 0.0
C1337 C 0.1443 0.76839 0.799 0.0
C1338 C 0.15388 0.78517 0.79351 0.0
C1339 C 0.15319 0.78765 0.77439 0.0
C1340 C 0.14298 0.77334 0.76071 0.0
C1341 C 0.04633 0.73339 0.70727 0.0
C1342 C 0.04923 0.74699 0.69465 0.0
C1343 C 0.06159 0.72944 0.71837 0.0
C1344 C 0.08018 0.7388 0.71701 0.0
C1345 C 0.08301 0.75314 0.70521 0.0
C1346 C 0.06767 0.75719 0.6941 0.0
C1347 C 0.09669 0.7327 0.72713 0.0
C1348 C 0.10803 0.74662 0.74042 0.0
C1349 C 0.10058 0.7129 0.72438 0.0
C1350 C 0.08987 0.69772 0.70969 0.0
C1351 C 0.08881 0.70042 0.69051 0.0
C1352 C 0.0782 0.68639 0.67687 0.0
C1353 C 0.06874 0.66948 0.68219 0.0
C1354 C 0.06994 0.66653 0.70115 0.0
C1355 C 0.08048 0.68055 0.71486 0.0
H1356 H 0.06051 0.65864 0.67163 0.0
H1357 H 0.16179 0.79626 0.80407 0.0
H1358 H 0.96631 0.58686 0.51468 0.0
H1359 H 0.97638 0.61847 0.53424 0.0
H1360 H 0.03579 0.60788 0.52842 0.0
H1361 H 0.02566 0.57549 0.50956 0.0
H1362 H 0.03043 0.6217 0.56372 0.0
H1363 H 0.01578 0.64298 0.50596 0.0
H1364 H 0.99717 0.64509 0.47677 0.0
H1365 H 0.95171 0.66745 0.51076 0.0
H1366 H 0.96991 0.66523 0.54017 0.0
H1367 H 0.05026 0.71944 0.61957 0.0
H1368 H 0.05033 0.69099 0.59447 0.0
H1369 H 0.98858 0.6875 0.58821 0.0
H1370 H 0.98904 0.71775 0.61126 0.0
H1371 H 1.00219 0.68218 0.55545 0.0
H1372 H 0.01585 0.63522 0.60622 0.0
H1373 H 0.03545 0.63094 0.63421 0.0
H1374 H 0.08578 0.6575 0.61051 0.0
H1375 H 0.06636 0.66177 0.58245 0.0
C1376 C 0.98154 0.59114 0.51758 0.0
C1377 C 0.99514 0.57844 0.51068 0.0
C1378 C 0.98732 0.60945 0.52857 0.0
C1379 C 0.0069 0.61581 0.53266 0.0
C1380 C 0.0206 0.60338 0.52543 0.0
C1381 C 0.01479 0.58491 0.5145 0.0
C1382 C 0.01274 0.63487 0.54549 0.0
C1383 C 0.02452 0.63502 0.56169 0.0
C1384 C 0.0052 0.65238 0.54294 0.0
C1385 C 0.99419 0.65384 0.52529 0.0
C1386 C 1.00176 0.64824 0.50722 0.0
C1387 C 0.99129 0.64947 0.49063 0.0
C1388 C 0.97326 0.65638 0.49191 0.0
C1389 C 0.96568 0.66211 0.50979 0.0
C1390 C 0.97609 0.6609 0.52643 0.0
C1391 C 0.03669 0.71235 0.61301 0.0
C1392 C 0.01945 0.72015 0.61818 0.0
C1393 C 0.03668 0.69571 0.59888 0.0
C1394 C 0.01938 0.68611 0.58995 0.0
C1395 C 1.00218 0.69419 0.59502 0.0
C1396 C 0.00232 0.71128 0.60855 0.0
C1397 C 0.01896 0.66874 0.57428 0.0
C1398 C 0.00827 0.66893 0.55738 0.0
C1399 C 0.02786 0.65168 0.57597 0.0
C1400 C 0.03948 0.64987 0.59296 0.0
C1401 C 0.031 0.64059 0.60734 0.0
C1402 C 0.0421 0.63794 0.62305 0.0
C1403 C 0.06179 0.64429 0.62432 0.0
C1404 C 0.07047 0.6529 0.60968 0.0
C1405 C 0.05942 0.6554 0.59388 0.0
H1406 H 0.07036 0.6423 0.63652 0.0
H1407 H 0.96518 0.65731 0.47905 0.0
H1408 H 0.78651 0.83931 0.19955 0.0
H1409 H 0.81267 0.86603 0.20477 0.0
H1410 H 0.77161 0.90768 0.21902 0.0
H1411 H 0.74535 0.88128 0.21259 0.0
H1412 H 0.79811 0.92337 0.20014 0.0
H1413 H 0.79772 0.88918 0.25345 0.0
H1414 H 0.79892 0.86095 0.27019 0.0
H1415 H 0.85507 0.85272 0.24886 0.0
H1416 H 0.85408 0.88072 0.23175 0.0
H1417 H 0.8781 0.97844 0.27435 0.0
H1418 H 0.85259 0.95187 0.26397 0.0
H1419 H 0.86139 0.95883 0.20526 0.0
H1420 H 0.88622 0.98639 0.21596 0.0
H1421 H 0.85105 0.91852 0.24559 0.0
H1422 H 0.82115 0.94317 0.17782 0.0
H1423 H 0.81724 0.97376 0.16559 0.0
H1424 H 0.81739 0.00501 0.223 0.0
H1425 H 0.82106 0.97457 0.23555 0.0
C1426 C 0.78298 0.85418 0.20343 0.0
C1427 C 0.76375 0.85804 0.20586 0.0
C1428 C 0.79801 0.86945 0.20663 0.0
C1429 C 0.79419 0.88888 0.21267 0.0
C1430 C 0.77499 0.89284 0.21448 0.0
C1431 C 0.75997 0.87764 0.21104 0.0
C1432 C 0.8101 0.90503 0.21783 0.0
C1433 C 0.8098 0.92224 0.20995 0.0
C1434 C 0.82517 0.90384 0.23098 0.0
C1435 C 0.82571 0.88688 0.24111 0.0
C1436 C 0.81024 0.88123 0.25218 0.0
C1437 C 0.8109 0.86529 0.26176 0.0
C1438 C 0.82703 0.855 0.26053 0.0
C1439 C 0.84256 0.86066 0.24975 0.0
C1440 C 0.84196 0.87656 0.24011 0.0
C1441 C 0.87454 0.97424 0.25923 0.0
C1442 C 0.88426 0.98411 0.24587 0.0
C1443 C 0.85997 0.95904 0.25327 0.0
C1444 C 0.85486 0.95328 0.23379 0.0
C1445 C 0.8647 0.96318 0.22039 0.0
C1446 C 0.87899 0.97879 0.22645 0.0
C1447 C 0.83932 0.93688 0.22775 0.0
C1448 C 0.83965 0.91958 0.23547 0.0
C1449 C 0.82396 0.93829 0.21499 0.0
C1450 C 0.82161 0.95664 0.2076 0.0
C1451 C 0.8203 0.95656 0.18782 0.0
C1452 C 0.81813 0.97387 0.18084 0.0
C1453 C 0.81714 0.99133 0.19351 0.0
C1454 C 0.81824 0.99149 0.2132 0.0
C1455 C 0.82038 0.97422 0.22025 0.0
H1456 H 0.81547 0.00471 0.18807 0.0
H1457 H 0.82752 0.84268 0.26797 0.0
H1458 H 0.78774 0.18993 0.32612 0.0
H1459 H 0.81429 0.16937 0.32379 0.0
H1460 H 0.77354 0.11751 0.3118 0.0
H1461 H 0.74698 0.13798 0.31384 0.0
H1462 H 0.80453 0.11608 0.33952 0.0
H1463 H 0.79411 0.13118 0.27613 0.0
H1464 H 0.79104 0.15359 0.25301 0.0
H1465 H 0.84825 0.18123 0.26841 0.0
H1466 H 0.85154 0.15915 0.29185 0.0
H1467 H 0.86166 0.04235 0.3002 0.0
H1468 H 0.83782 0.06509 0.30888 0.0
H1469 H 0.87986 0.11362 0.30269 0.0
H1470 H 0.90347 0.09072 0.293 0.0
H1471 H 0.84923 0.11869 0.28619 0.0
H1472 H 0.86159 0.10356 0.34788 0.0
H1473 H 0.86557 0.08276 0.3723 0.0
H1474 H 0.80681 0.05747 0.36257 0.0
H1475 H 0.80255 0.07792 0.33789 0.0
C1476 C 0.78447 0.17414 0.32315 0.0
C1477 C 0.76531 0.16554 0.32008 0.0
C1478 C 0.79962 0.16243 0.32178 0.0
C1479 C 0.79587 0.14192 0.31757 0.0
C1480 C 0.77673 0.1333 0.31508 0.0
C1481 C 0.7616 0.145 0.31613 0.0
C1482 C 0.8119 0.12946 0.31499 0.0
C1483 C 0.81425 0.11648 0.32779 0.0
C1484 C 0.82491 0.13048 0.30005 0.0
C1485 C 0.82298 0.14367 0.28589 0.0
C1486 C 0.80596 0.14215 0.27471 0.0
C1487 C 0.8042 0.15477 0.26153 0.0
C1488 C 0.81942 0.16887 0.25929 0.0
C1489 C 0.83646 0.17033 0.27019 0.0
C1490 C 0.83828 0.15776 0.28342 0.0
C1491 C 0.86592 0.0579 0.301 0.0
C1492 C 0.88447 0.06474 0.29595 0.0
C1493 C 0.85227 0.07095 0.30607 0.0
C1494 C 0.85698 0.09123 0.30672 0.0
C1495 C 0.87576 0.0981 0.30228 0.0
C1496 C 0.8893 0.085 0.29684 0.0
C1497 C 0.84203 0.10504 0.31072 0.0
C1498 C 0.83976 0.11831 0.29811 0.0
C1499 C 0.82931 0.1045 0.32607 0.0
C1500 C 0.8318 0.09217 0.34091 0.0
C1501 C 0.84956 0.09346 0.35084 0.0
C1502 C 0.85186 0.08175 0.36475 0.0
C1503 C 0.83647 0.06877 0.36895 0.0
C1504 C 0.81873 0.06751 0.35929 0.0
C1505 C 0.81635 0.07918 0.34535 0.0
H1506 H 0.83828 0.05972 0.37972 0.0
H1507 H 0.81803 0.17862 0.24907 0.0
H1508 H 0.43689 0.01532 0.97501 0.0
H1509 H 0.40697 0.99882 0.98503 0.0
H1510 H 0.43279 0.99974 0.04069 0.0
H1511 H 0.46279 0.01668 0.03081 0.0
H1512 H 0.41165 0.96131 0.02067 0.0
H1513 H 0.40345 0.0289 0.04158 0.0
H1514 H 0.40403 0.0636 0.03804 0.0
H1515 H 0.36196 0.04774 0.99194 0.0
H1516 H 0.36136 0.0129 0.995 0.0
H1517 H 0.31781 0.91929 0.04216 0.0
H1518 H 0.34843 0.94071 0.047 0.0
H1519 H 0.33491 0.96576 0.99741 0.0
H1520 H 0.30447 0.94527 0.99295 0.0
H1521 H 0.35154 0.99329 0.02269 0.0
H1522 H 0.36422 0.92691 0.99666 0.0
H1523 H 0.36386 0.89154 0.99727 0.0
H1524 H 0.39734 0.90427 0.04987 0.0
H1525 H 0.3977 0.93974 0.04966 0.0
C1526 C 0.43619 0.012 0.98938 0.0
C1527 C 0.45214 0.01726 0.00213 0.0
C1528 C 0.4191 1.00263 0.9951 0.0
C1529 C 0.41768 0.99809 0.0136 0.0
C1530 C 0.43363 0.00312 0.02636 0.0
C1531 C 0.45067 0.01286 0.02074 0.0
C1532 C 0.39938 0.98812 0.01935 0.0
C1533 C 0.39854 0.96839 0.02158 0.0
C1534 C 0.38229 0.9973 0.02021 0.0
C1535 C 0.38246 0.01826 0.01845 0.0
C1536 C 0.39443 0.03279 0.03059 0.0
C1537 C 0.39475 0.05249 0.02868 0.0
C1538 C 0.38306 0.05787 0.01475 0.0
C1539 C 0.37101 0.04356 0.00272 0.0
C1540 C 0.37066 0.02383 0.00455 0.0
C1541 C 0.32124 0.92965 0.03254 0.0
C1542 C 0.3087 0.93035 0.01706 0.0
C1543 C 0.33882 0.94178 0.03523 0.0
C1544 C 0.34419 0.95468 0.02238 0.0
C1545 C 0.33122 0.95599 0.00754 0.0
C1546 C 0.31376 0.94408 0.00494 0.0
C1547 C 0.36357 0.96617 0.02333 0.0
C1548 C 0.36466 0.98626 0.02231 0.0
C1549 C 0.38084 0.95721 0.02324 0.0
C1550 C 0.38079 0.93594 0.02327 0.0
C1551 C 0.37141 0.92215 0.0084 0.0
C1552 C 0.37122 0.90209 0.00867 0.0
C1553 C 0.38052 0.89566 0.02364 0.0
C1554 C 0.3901 0.90928 0.03832 0.0
C1555 C 0.39031 0.92935 0.03813 0.0
H1556 H 0.38034 0.88013 0.02383 0.0
H1557 H 0.38333 0.07313 0.0133 0.0
H1558 H 0.26699 0.34428 0.29474 0.0
H1559 H 0.25006 0.37017 0.28479 0.0
H1560 H 0.29293 0.41392 0.31526 0.0
H1561 H 0.30963 0.3879 0.32549 0.0
H1562 H 0.25822 0.42271 0.32449 0.0
H1563 H 0.28865 0.4045 0.26528 0.0
H1564 H 0.29805 0.38195 0.23732 0.0
H1565 H 0.23862 0.36493 0.22061 0.0
H1566 H 0.22884 0.38719 0.24863 0.0
H1567 H 0.22049 0.50303 0.2921 0.0
H1568 H 0.24106 0.47851 0.29871 0.0
H1569 H 0.19999 0.43252 0.26886 0.0
H1570 H 0.17956 0.45701 0.26185 0.0
H1571 H 0.23519 0.42576 0.2588 0.0
H1572 H 0.20469 0.44236 0.31853 0.0
H1573 H 0.19488 0.46447 0.34662 0.0
H1574 H 0.25412 0.484 0.3624 0.0
H1575 H 0.26429 0.46218 0.33425 0.0
C1576 C 0.27305 0.35942 0.29882 0.0
C1577 C 0.28972 0.36418 0.31057 0.0
C1578 C 0.26337 0.37423 0.29316 0.0
C1579 C 0.27025 0.39409 0.29912 0.0
C1580 C 0.28733 0.39875 0.31043 0.0
C1581 C 0.29697 0.38391 0.31612 0.0
C1582 C 0.25887 0.40988 0.29479 0.0
C1583 C 0.2535 0.42357 0.31006 0.0
C1584 C 0.25217 0.41075 0.27606 0.0
C1585 C 0.25801 0.3974 0.25916 0.0
C1586 C 0.27758 0.39584 0.25573 0.0
C1587 C 0.28297 0.38313 0.23985 0.0
C1588 C 0.26894 0.37198 0.22722 0.0
C1589 C 0.24948 0.37356 0.23042 0.0
C1590 C 0.244 0.38624 0.24628 0.0
C1591 C 0.21576 0.48769 0.28705 0.0
C1592 C 0.19831 0.482 0.27651 0.0
C1593 C 0.22754 0.47365 0.29087 0.0
C1594 C 0.22205 0.45357 0.28446 0.0
C1595 C 0.2046 0.44788 0.27396 0.0
C1596 C 0.19287 0.46192 0.27005 0.0
C1597 C 0.23453 0.43852 0.2885 0.0
C1598 C 0.24004 0.42496 0.27319 0.0
C1599 C 0.24132 0.43771 0.30721 0.0
C1600 C 0.23524 0.45079 0.32418 0.0
C1601 C 0.21562 0.45148 0.32791 0.0
C1602 C 0.20999 0.46394 0.34386 0.0
C1603 C 0.22386 0.47567 0.35626 0.0
C1604 C 0.24339 0.47493 0.35277 0.0
C1605 C 0.2491 0.4625 0.33683 0.0
H1606 H 0.21948 0.48531 0.36859 0.0
H1607 H 0.27315 0.36215 0.21494 0.0
H1608 H 0.09459 0.00469 0.51869 0.0
H1609 H 0.12698 0.02219 0.52467 0.0
H1610 H 0.13795 0.0094 0.46456 0.0
H1611 H 0.10591 0.99141 0.45861 0.0
H1612 H 0.16965 0.00739 0.48485 0.0
H1613 H 0.12314 0.05346 0.48491 0.0
H1614 H 0.0943 0.06925 0.49531 0.0
H1615 H 0.11841 0.08479 0.55243 0.0
H1616 H 0.14729 0.06883 0.54241 0.0
H1617 H 0.23993 0.08454 0.47136 0.0
H1618 H 0.21172 0.06052 0.47155 0.0
H1619 H 0.2068 0.07998 0.53203 0.0
H1620 H 0.2348 0.10448 0.53162 0.0
H1621 H 0.17313 0.07703 0.5155 0.0
H1622 H 0.22185 0.03419 0.51315 0.0
H1623 H 0.25081 0.01939 0.50143 0.0
H1624 H 0.22272 0.99895 0.44655 0.0
H1625 H 0.19367 0.01386 0.45785 0.0
C1626 C 0.10407 0.00519 0.50683 0.0
C1627 C 0.09757 0.99682 0.48814 0.0
C1628 C 0.12253 0.01539 0.51023 0.0
C1629 C 0.13482 0.01748 0.49501 0.0
C1630 C 0.12875 0.00813 0.47653 0.0
C1631 C 0.11035 0.99794 0.47313 0.0
C1632 C 0.15348 0.03032 0.49801 0.0
C1633 C 0.17038 0.02268 0.49135 0.0
C1634 C 0.1546 0.0502 0.50689 0.0
C1635 C 0.13724 0.05971 0.51298 0.0
C1636 C 0.1222 0.06008 0.49973 0.0
C1637 C 0.10587 0.06909 0.50554 0.0
C1638 C 0.1045 0.07795 0.52453 0.0
C1639 C 0.11948 0.07787 0.53773 0.0
C1640 C 0.13583 0.06884 0.532 0.0
C1641 C 0.23273 0.0837 0.48465 0.0
C1642 C 0.23903 0.09674 0.50133 0.0
C1643 C 0.21678 0.06976 0.48484 0.0
C1644 C 0.2071 0.06826 0.50184 0.0
C1645 C 0.21392 0.08086 0.51871 0.0
C1646 C 0.2299 0.09482 0.5185 0.0
C1647 C 0.18925 0.05437 0.50171 0.0
C1648 C 0.17248 0.06177 0.50898 0.0
C1649 C 0.18823 0.03439 0.49314 0.0
C1650 C 0.20562 0.02526 0.48633 0.0
C1651 C 0.22188 0.02664 0.49855 0.0
C1652 C 0.23831 0.01822 0.49198 0.0
C1653 C 0.23861 0.00827 0.47325 0.0
C1654 C 0.22246 0.00667 0.46105 0.0
C1655 C 0.206 0.01508 0.46754 0.0
H1656 H 0.25135 1.00177 0.46819 0.0
H1657 H 0.09185 0.08493 0.52901 0.0
H1658 H 0.80061 0.1955 0.73778 0.0
H1659 H 0.77553 0.16868 0.73972 0.0
H1660 H 0.78398 0.14422 0.68097 0.0
H1661 H 0.80892 0.17152 0.67888 0.0
H1662 H 0.74647 0.13929 0.68917 0.0
H1663 H 0.80497 0.12638 0.71685 0.0
H1664 H 0.83422 0.13368 0.73769 0.0
H1665 H 0.79958 0.14049 0.78725 0.0
H1666 H 0.77011 0.13356 0.7667 0.0
H1667 H 0.69357 0.04862 0.70634 0.0
H1668 H 0.71714 0.0733 0.69664 0.0
H1669 H 0.72281 0.10381 0.75481 0.0
H1670 H 0.70135 0.07754 0.76476 0.0
H1671 H 0.7556 0.10274 0.74235 0.0
H1672 H 0.70226 0.1343 0.70796 0.0
H1673 H 0.67383 0.1294 0.68584 0.0
H1674 H 0.70059 0.08657 0.64769 0.0
H1675 H 0.72906 0.09137 0.66965 0.0
C1676 C 0.79685 0.18459 0.72517 0.0
C1677 C 0.80673 0.18549 0.70821 0.0
C1678 C 0.78263 0.16919 0.72633 0.0
C1679 C 0.77822 0.15411 0.71065 0.0
C1680 C 0.78724 0.15559 0.6933 0.0
C1681 C 0.80141 0.1712 0.69208 0.0
C1682 C 0.76487 0.13651 0.71287 0.0
C1683 C 0.74858 0.13114 0.70067 0.0
C1684 C 0.76762 0.12572 0.72776 0.0
C1685 C 0.78532 0.12957 0.74021 0.0
C1686 C 0.80358 0.12954 0.73219 0.0
C1687 C 0.82021 0.13361 0.74395 0.0
C1688 C 0.81876 0.13758 0.76378 0.0
C1689 C 0.80068 0.13742 0.77189 0.0
C1690 C 0.78401 0.13341 0.76019 0.0
C1691 C 0.69966 0.06081 0.71696 0.0
C1692 C 0.69483 0.06175 0.73619 0.0
C1693 C 0.7129 0.07522 0.71131 0.0
C1694 C 0.72129 0.09119 0.72471 0.0
C1695 C 0.71644 0.09195 0.74399 0.0
C1696 C 0.70381 0.07714 0.7497 0.0
C1697 C 0.73644 0.1061 0.71934 0.0
C1698 C 0.75338 0.11083 0.73085 0.0
C1699 C 0.73442 0.11609 0.70364 0.0
C1700 C 0.71719 0.11247 0.69083 0.0
C1701 C 0.70175 0.12351 0.69506 0.0
C1702 C 0.68578 0.12092 0.68247 0.0
C1703 C 0.68527 0.10745 0.6655 0.0
C1704 C 0.70088 0.0968 0.66095 0.0
C1705 C 0.71692 0.09949 0.67345 0.0
H1706 H 0.67288 0.10542 0.6558 0.0
H1707 H 0.83165 0.14074 0.77286 0.0
H1708 H 0.46525 0.04814 0.5417 0.0
H1709 H 0.43608 0.06326 0.5362 0.0
H1710 H 0.41882 0.01636 0.48941 0.0
H1711 H 0.44834 1.00145 0.49476 0.0
H1712 H 0.41408 0.05051 0.47921 0.0
H1713 H 0.39577 0.02002 0.53261 0.0
H1714 H 0.39892 0.01143 0.56475 0.0
H1715 H 0.4007 0.07209 0.58983 0.0
H1716 H 0.39783 0.08109 0.55781 0.0
H1717 H 0.31956 0.082 0.47208 0.0
H1718 H 0.3467 0.0631 0.47544 0.0
H1719 H 0.3712 0.10799 0.52116 0.0
H1720 H 0.34423 0.12681 0.51796 0.0
H1721 H 0.37044 0.07208 0.53096 0.0
H1722 H 0.39046 0.10236 0.477 0.0
H1723 H 0.38689 0.11054 0.44473 0.0
H1724 H 0.38108 0.04938 0.42061 0.0
H1725 H 0.38436 0.04083 0.45279 0.0
C1726 C 0.45505 0.04095 0.53044 0.0
C1727 C 0.4588 0.02358 0.51878 0.0
C1728 C 0.43836 0.04956 0.5273 0.0
C1729 C 0.42504 0.04087 0.51251 0.0
C1730 C 0.4288 0.02334 0.50093 0.0
C1731 C 0.44556 0.01476 0.50406 0.0
C1732 C 0.40763 0.05052 0.50879 0.0
C1733 C 0.40435 0.05491 0.49046 0.0
C1734 C 0.39503 0.05659 0.52349 0.0
C1735 C 0.39675 0.05124 0.54279 0.0
C1736 C 0.39699 0.03155 0.54497 0.0
C1737 C 0.39869 0.0266 0.56317 0.0
C1738 C 0.40005 0.04121 0.57932 0.0
C1739 C 0.39966 0.0608 0.5773 0.0
C1740 C 0.39797 0.06583 0.55913 0.0
C1741 C 0.33086 0.08795 0.48268 0.0
C1742 C 0.3297 0.10594 0.49474 0.0
C1743 C 0.34638 0.07713 0.48459 0.0
C1744 C 0.36104 0.0841 0.49857 0.0
C1745 C 0.36005 0.10223 0.51034 0.0
C1746 C 0.34463 0.11305 0.50841 0.0
C1747 C 0.37712 0.07236 0.50151 0.0
C1748 C 0.38011 0.06755 0.51969 0.0
C1749 C 0.38936 0.06583 0.48666 0.0
C1750 C 0.38744 0.07095 0.46732 0.0
C1751 C 0.38826 0.09065 0.46483 0.0
C1752 C 0.38632 0.09535 0.44656 0.0
C1753 C 0.3837 0.08049 0.43064 0.0
C1754 C 0.38307 0.06088 0.43296 0.0
C1755 C 0.38498 0.0561 0.45121 0.0
H1756 H 0.3822 0.08415 0.4165 0.0
H1757 H 0.40136 0.03735 0.5934 0.0
H1758 H 0.58746 0.51622 0.52839 0.0
H1759 H 0.61452 0.49751 0.51995 0.0
H1760 H 0.6324 0.50552 0.57936 0.0
H1761 H 0.6061 0.5253 0.58779 0.0
H1762 H 0.66284 0.5076 0.55944 0.0
H1763 H 0.60628 0.46202 0.55537 0.0
H1764 H 0.57327 0.44772 0.54503 0.0
H1765 H 0.58999 0.43887 0.48658 0.0
H1766 H 0.62305 0.45338 0.49655 0.0
H1767 H 0.71957 0.42591 0.5477 0.0
H1768 H 0.69423 0.44697 0.55734 0.0
H1769 H 0.68267 0.45082 0.49839 0.0
H1770 H 0.70802 0.43017 0.48865 0.0
H1771 H 0.64922 0.44213 0.51903 0.0
H1772 H 0.70667 0.48825 0.52483 0.0
H1773 H 0.73953 0.50135 0.53682 0.0
H1774 H 0.72057 0.5073 0.59452 0.0
H1775 H 0.68763 0.49396 0.58287 0.0
C1776 C 0.59735 0.5144 0.53966 0.0
C1777 C 0.59436 0.52219 0.55884 0.0
C1778 C 0.61271 0.5034 0.53483 0.0
C1779 C 0.62531 0.49961 0.54905 0.0
C1780 C 0.62284 0.50802 0.5681 0.0
C1781 C 0.60761 0.5192 0.57293 0.0
C1782 C 0.64078 0.48657 0.54414 0.0
C1783 C 0.65976 0.49319 0.55081 0.0
C1784 C 0.63695 0.46774 0.53276 0.0
C1785 C 0.61709 0.45897 0.5267 0.0
C1786 C 0.60288 0.45716 0.5403 0.0
C1787 C 0.58417 0.449 0.53451 0.0
C1788 C 0.57952 0.44244 0.51516 0.0
C1789 C 0.5936 0.44398 0.50156 0.0
C1790 C 0.61233 0.45217 0.50728 0.0
C1791 C 0.71164 0.43124 0.53679 0.0
C1792 C 0.71591 0.42633 0.51739 0.0
C1793 C 0.6972 0.44332 0.54233 0.0
C1794 C 0.68659 0.45052 0.52858 0.0
C1795 C 0.69065 0.44544 0.50924 0.0
C1796 C 0.70524 0.43366 0.50372 0.0
C1797 C 0.67116 0.46327 0.5342 0.0
C1798 C 0.65221 0.45654 0.52769 0.0
C1799 C 0.67497 0.48181 0.54598 0.0
C1800 C 0.69474 0.4899 0.55299 0.0
C1801 C 0.70954 0.49219 0.54008 0.0
C1802 C 0.72818 0.49969 0.54682 0.0
C1803 C 0.73215 0.5051 0.56642 0.0
C1804 C 0.71748 0.50307 0.57934 0.0
C1805 C 0.69883 0.49555 0.57268 0.0
H1806 H 0.74658 0.51091 0.57161 0.0
H1807 H 0.56502 0.43611 0.5107 0.0
H1808 H 0.76091 0.23168 0.35451 0.0
H1809 H 0.75828 0.25691 0.38232 0.0
H1810 H 0.69736 0.23902 0.3833 0.0
H1811 H 0.6999 0.2138 0.35528 0.0
H1812 H 0.70355 0.27723 0.38898 0.0
H1813 H 0.72933 0.2275 0.41643 0.0
H1814 H 0.75142 0.20295 0.42002 0.0
H1815 H 0.79891 0.24828 0.43022 0.0
H1816 H 0.77716 0.27308 0.42641 0.0
H1817 H 0.70735 0.34178 0.48388 0.0
H1818 H 0.70056 0.31328 0.45851 0.0
H1819 H 0.75867 0.32212 0.43971 0.0
H1820 H 0.766 0.34891 0.46639 0.0
H1821 H 0.74794 0.28501 0.44538 0.0
H1822 H 0.71386 0.31913 0.38966 0.0
H1823 H 0.68872 0.33921 0.38206 0.0
H1824 H 0.65475 0.32128 0.42732 0.0
H1825 H 0.67911 0.30012 0.43424 0.0
C1826 C 0.74697 0.23302 0.36072 0.0
C1827 C 0.73063 0.22066 0.35273 0.0
C1828 C 0.74548 0.24742 0.37668 0.0
C1829 C 0.72768 0.24966 0.38519 0.0
C1830 C 0.71127 0.23754 0.37706 0.0
C1831 C 0.71273 0.22319 0.361 0.0
C1832 C 0.7262 0.26504 0.40221 0.0
C1833 C 0.7131 0.27879 0.40145 0.0
C1834 C 0.73847 0.26699 0.41859 0.0
C1835 C 0.75161 0.25214 0.42101 0.0
C1836 C 0.7445 0.23222 0.41932 0.0
C1837 C 0.75696 0.21826 0.42141 0.0
C1838 C 0.77656 0.22405 0.42532 0.0
C1839 C 0.78372 0.24381 0.42719 0.0
C1840 C 0.77133 0.25784 0.42509 0.0
C1841 C 0.7185 0.33781 0.47404 0.0
C1842 C 0.73696 0.34822 0.47649 0.0
C1843 C 0.71449 0.32173 0.45923 0.0
C1844 C 0.72875 0.31603 0.44638 0.0
C1845 C 0.7472 0.32647 0.449 0.0
C1846 C 0.75135 0.34201 0.46411 0.0
C1847 C 0.72581 0.29776 0.43186 0.0
C1848 C 0.7382 0.28335 0.43305 0.0
C1849 C 0.71265 0.29504 0.41603 0.0
C1850 C 0.69889 0.3091 0.41332 0.0
C1851 C 0.70119 0.31982 0.39822 0.0
C1852 C 0.68688 0.33103 0.39374 0.0
C1853 C 0.67031 0.33183 0.40444 0.0
C1854 C 0.66779 0.32101 0.41932 0.0
C1855 C 0.68184 0.30938 0.42351 0.0
H1856 H 0.65932 0.34065 0.40107 0.0
H1857 H 0.78618 0.21321 0.42693 0.0
H1858 H 0.51616 0.04546 0.91557 0.0
H1859 H 0.53817 0.04482 0.88894 0.0
H1860 H 0.57522 0.0121 0.91734 0.0
H1861 H 0.5532 0.01291 0.94408 0.0
H1862 H 0.5961 0.03895 0.89873 0.0
H1863 H 0.54381 0.98808 0.8839 0.0
H1864 H 0.50982 0.97399 0.88039 0.0
H1865 H 0.49967 0.01017 0.8386 0.0
H1866 H 0.53355 0.02469 0.84207 0.0
H1867 H 0.64377 0.00703 0.81179 0.0
H1868 H 0.62474 0.00473 0.84041 0.0
H1869 H 0.58418 0.03986 0.82035 0.0
H1870 H 0.60305 0.04233 0.79208 0.0
H1871 H 0.56628 0.00871 0.83548 0.0
H1872 H 0.618 0.06092 0.85182 0.0
H1873 H 0.65205 0.07481 0.85494 0.0
H1874 H 0.66337 0.03573 0.89364 0.0
H1875 H 0.62941 0.02135 0.89046 0.0
C1876 C 0.52929 0.03863 0.91632 0.0
C1877 C 0.53319 0.02941 0.93184 0.0
C1878 C 0.54176 0.0381 0.90106 0.0
C1879 C 0.55821 0.02813 0.90099 0.0
C1880 C 0.56263 0.01985 0.91706 0.0
C1881 C 0.55012 0.02038 0.93234 0.0
C1882 C 0.56996 0.02523 0.88362 0.0
C1883 C 0.58965 0.03207 0.88496 0.0
C1884 C 0.56155 0.01636 0.86558 0.0
C1885 C 0.54118 0.0076 0.86338 0.0
C1886 C 0.5343 0.99314 0.87407 0.0
C1887 C 0.51505 0.98506 0.87207 0.0
C1888 C 0.50258 0.99121 0.85932 0.0
C1889 C 0.50934 0.00543 0.8485 0.0
C1890 C 0.52857 0.01358 0.85046 0.0
C1891 C 0.63061 0.01393 0.81337 0.0
C1892 C 0.62494 0.02493 0.79974 0.0
C1893 C 0.61983 0.01273 0.82976 0.0
C1894 C 0.60312 0.02229 0.83259 0.0
C1895 C 0.597 0.0324 0.8185 0.0
C1896 C 0.60785 0.03383 0.80236 0.0
C1897 C 0.59232 0.02271 0.85053 0.0
C1898 C 0.57279 0.0154 0.84929 0.0
C1899 C 0.60088 0.03111 0.86862 0.0
C1900 C 0.62123 0.03989 0.87072 0.0
C1901 C 0.62779 0.05517 0.86087 0.0
C1902 C 0.64706 0.06315 0.86266 0.0
C1903 C 0.65988 0.05612 0.87444 0.0
C1904 C 0.65343 0.04113 0.88449 0.0
C1905 C 0.63417 0.03306 0.88269 0.0
H1906 H 0.6748 0.06232 0.87582 0.0
H1907 H 0.48769 0.98494 0.85779 0.0
H1908 H 0.29565 0.27245 0.3478 0.0
H1909 H 0.29217 0.2492 0.37005 0.0
H1910 H 0.35325 0.25866 0.38263 0.0
H1911 H 0.35686 0.28217 0.36026 0.0
H1912 H 0.33907 0.21954 0.3801 0.0
H1913 H 0.32406 0.28074 0.41368 0.0
H1914 H 0.30845 0.31119 0.41881 0.0
H1915 H 0.25294 0.27762 0.41555 0.0
H1916 H 0.26819 0.24695 0.4101 0.0
H1917 H 0.31922 0.1717 0.46353 0.0
H1918 H 0.3317 0.19493 0.44276 0.0
H1919 H 0.27445 0.19478 0.41947 0.0
H1920 H 0.26198 0.17187 0.43975 0.0
H1921 H 0.2919 0.23186 0.43095 0.0
H1922 H 0.30743 0.17074 0.39408 0.0
H1923 H 0.32333 0.14046 0.389 0.0
H1924 H 0.37856 0.17442 0.39949 0.0
H1925 H 0.36294 0.2049 0.40489 0.0
C1926 C 0.30837 0.26968 0.35532 0.0
C1927 C 0.3265 0.27946 0.35244 0.0
C1928 C 0.30637 0.2563 0.36802 0.0
C1929 C 0.32239 0.25242 0.37833 0.0
C1930 C 0.34066 0.26147 0.37492 0.0
C1931 C 0.3427 0.27489 0.36211 0.0
C1932 C 0.31966 0.23945 0.39308 0.0
C1933 C 0.32903 0.22241 0.39144 0.0
C1934 C 0.30654 0.24311 0.4079 0.0
C1935 C 0.29728 0.26153 0.41135 0.0
C1936 C 0.30852 0.27984 0.41393 0.0
C1937 C 0.29973 0.29714 0.41691 0.0
C1938 C 0.27972 0.29634 0.41747 0.0
C1939 C 0.26844 0.27822 0.4151 0.0
C1940 C 0.27715 0.26087 0.41209 0.0
C1941 C 0.30934 0.1765 0.45386 0.0
C1942 C 0.28954 0.16993 0.45351 0.0
C1943 C 0.31649 0.18977 0.44199 0.0
C1944 C 0.30398 0.1967 0.4296 0.0
C1945 C 0.28437 0.18981 0.42899 0.0
C1946 C 0.27728 0.17661 0.44067 0.0
C1947 C 0.31075 0.21159 0.41757 0.0
C1948 C 0.30217 0.2291 0.41979 0.0
C1949 C 0.32464 0.20837 0.40342 0.0
C1950 C 0.33401 0.19007 0.40013 0.0
C1951 C 0.32295 0.17173 0.39548 0.0
C1952 C 0.33192 0.15454 0.3925 0.0
C1953 C 0.35194 0.15551 0.39399 0.0
C1954 C 0.36305 0.17368 0.39839 0.0
C1955 C 0.35415 0.19092 0.4014 0.0
H1956 H 0.35886 0.14218 0.39168 0.0
H1957 H 0.27294 0.30975 0.41978 0.0
H1958 H 0.50851 0.50052 0.96983 0.0
H1959 H 0.49091 0.51015 0.94347 0.0
H1960 H 0.53642 0.49437 0.90557 0.0
H1961 H 0.55429 0.48533 0.93205 0.0
H1962 H 0.52478 0.52611 0.89756 0.0
H1963 H 0.49245 0.46417 0.90719 0.0
H1964 H 0.47555 0.44059 0.92537 0.0
H1965 H 0.43095 0.47816 0.93764 0.0
H1966 H 0.44774 0.50211 0.91973 0.0
H1967 H 0.47366 0.50016 0.80795 0.0
H1968 H 0.49204 0.5026 0.83794 0.0
H1969 H 0.44765 0.53184 0.86841 0.0
H1970 H 0.42929 0.52978 0.83817 0.0
H1971 H 0.45724 0.49748 0.88211 0.0
H1972 H 0.48906 0.55727 0.86755 0.0
H1973 H 0.50633 0.57863 0.8474 0.0
H1974 H 0.55242 0.54228 0.84209 0.0
H1975 H 0.5353 0.52053 0.86198 0.0
C1976 C 0.51473 0.4991 0.95586 0.0
C1977 C 0.53273 0.49205 0.95299 0.0
C1978 C 0.50465 0.50458 0.94077 0.0
C1979 C 0.51214 0.50271 0.92236 0.0
C1980 C 0.53029 0.496 0.91959 0.0
C1981 C 0.5405 0.4908 0.93473 0.0
C1982 C 0.50097 0.50733 0.90589 0.0
C1983 C 0.51005 0.51972 0.89414 0.0
C1984 C 0.48158 0.49939 0.90155 0.0
C1985 C 0.47147 0.48503 0.91232 0.0
C1986 C 0.47912 0.46747 0.9139 0.0
C1987 C 0.46955 0.45403 0.92413 0.0
C1988 C 0.45222 0.4579 0.93271 0.0
C1989 C 0.4444 0.4752 0.93103 0.0
C1990 C 0.45393 0.48871 0.92083 0.0
C1991 C 0.46807 0.50762 0.82097 0.0
C1992 C 0.45011 0.51488 0.82073 0.0
C1993 C 0.47858 0.509 0.8381 0.0
C1994 C 0.47123 0.5174 0.85542 0.0
C1995 C 0.45361 0.52536 0.85518 0.0
C1996 C 0.44323 0.52433 0.83791 0.0
C1997 C 0.48115 0.51601 0.87373 0.0
C1998 C 0.47186 0.50413 0.88576 0.0
C1999 C 0.50043 0.5241 0.8781 0.0
C2000 C 0.51081 0.53718 0.86616 0.0
C2001 C 0.50281 0.55373 0.86196 0.0
C2002 C 0.51259 0.56593 0.85061 0.0
C2003 C 0.53045 0.5618 0.84344 0.0
C2004 C 0.53858 0.54547 0.84764 0.0
C2005 C 0.52885 0.53321 0.85898 0.0
H2006 H 0.538 0.57126 0.83466 0.0
H2007 H 0.44483 0.44747 0.94062 0.0
H2008 H 0.70393 0.79286 0.1616 0.0
H2009 H 0.70613 0.76775 0.13342 0.0
H2010 H 0.76497 0.76332 0.1496 0.0
H2011 H 0.76289 0.78861 0.17754 0.0
H2012 H 0.76291 0.76646 0.11363 0.0
H2013 H 0.72721 0.72671 0.15308 0.0
H2014 H 0.70066 0.7176 0.1735 0.0
H2015 H 0.65995 0.71541 0.12717 0.0
H2016 H 0.68624 0.72478 0.10654 0.0
H2017 H 0.77751 0.68125 0.04786 0.0
H2018 H 0.77337 0.70439 0.07691 0.0
H2019 H 0.71638 0.71117 0.057 0.0
H2020 H 0.72028 0.68791 0.02793 0.0
H2021 H 0.71691 0.70678 0.09446 0.0
H2022 H 0.75306 0.7465 0.05515 0.0
H2023 H 0.77987 0.75531 0.03491 0.0
H2024 H 0.82013 0.75713 0.08153 0.0
H2025 H 0.79357 0.74807 0.10199 0.0
C2026 C 0.7172 0.78624 0.15932 0.0
C2027 C 0.73325 0.79274 0.17175 0.0
C2028 C 0.71846 0.77189 0.14319 0.0
C2029 C 0.73572 0.76354 0.13935 0.0
C2030 C 0.75154 0.76959 0.15214 0.0
C2031 C 0.75033 0.78403 0.16813 0.0
C2032 C 0.73771 0.7493 0.12155 0.0
C2033 C 0.75299 0.75326 0.10963 0.0
C2034 C 0.72451 0.73231 0.11596 0.0
C2035 C 0.70868 0.72664 0.12832 0.0
C2036 C 0.71258 0.72444 0.14729 0.0
C2037 C 0.69758 0.7192 0.15889 0.0
C2038 C 0.67863 0.71598 0.15165 0.0
C2039 C 0.67464 0.71794 0.13277 0.0
C2040 C 0.68958 0.72319 0.12111 0.0
C2041 C 0.7641 0.68768 0.04956 0.0
C2042 C 0.74928 0.68272 0.03542 0.0
C2043 C 0.76178 0.70097 0.06621 0.0
C2044 C 0.74461 0.70965 0.06909 0.0
C2045 C 0.72975 0.70467 0.05509 0.0
C2046 C 0.73207 0.69142 0.03841 0.0
C2047 C 0.74219 0.7239 0.08673 0.0
C2048 C 0.72682 0.71997 0.09855 0.0
C2049 C 0.75535 0.74089 0.0923 0.0
C2050 C 0.77134 0.74642 0.08004 0.0
C2051 C 0.76764 0.74863 0.06104 0.0
C2052 C 0.78279 0.75369 0.04954 0.0
C2053 C 0.80169 0.75673 0.05691 0.0
C2054 C 0.80548 0.75475 0.07583 0.0
C2055 C 0.79039 0.74967 0.08739 0.0
H2056 H 0.8134 0.76065 0.04798 0.0
H2057 H 0.66703 0.71193 0.16066 0.0
H2058 H 0.07192 0.04607 0.11393 0.0
H2059 H 0.05446 0.04345 0.14311 0.0
H2060 H 1.0009 0.04461 0.11296 0.0
H2061 H 0.01792 0.04584 0.08334 0.0
H2062 H 0.01072 0.07082 0.15452 0.0
H2063 H 0.00422 0.00461 0.11649 0.0
H2064 H 0.0181 0.97649 0.09814 0.0
H2065 H 0.05352 0.97244 0.1469 0.0
H2066 H 0.04005 1.00076 0.16544 0.0
H2067 H 0.94105 0.04024 0.21789 0.0
H2068 H 0.96034 0.0472 0.19096 0.0
H2069 H 0.0041 0.01416 0.20884 0.0
H2070 H 0.98409 0.00606 0.23504 0.0
H2071 H 1.00111 0.00521 0.17382 0.0
H2072 H 0.008 0.06786 0.21332 0.0
H2073 H 0.99789 0.09725 0.23324 0.0
H2074 H 0.96686 0.11027 0.18514 0.0
H2075 H 0.97658 0.08081 0.16498 0.0
C2076 C 0.05641 0.04561 0.11333 0.0
C2077 C 0.04643 0.04594 0.096 0.0
C2078 C 0.04649 0.04433 0.13015 0.0
C2079 C 0.02641 0.04379 0.13016 0.0
C2080 C 0.01643 0.04511 0.11324 0.0
C2081 C 0.02628 0.04596 0.09631 0.0
C2082 C 0.01575 0.04062 0.14751 0.0
C2083 C 0.00838 0.05648 0.15871 0.0
C2084 C 0.01342 0.02207 0.15332 0.0
C2085 C 0.02131 0.00492 0.14225 0.0
C2086 C 0.01511 0.99784 0.12323 0.0
C2087 C 0.02287 0.98184 0.11281 0.0
C2088 C 0.03673 0.97272 0.12133 0.0
C2089 C 0.04281 0.97954 0.14031 0.0
C2090 C 0.03511 0.99555 0.15077 0.0
C2091 C 0.95489 0.03466 0.21619 0.0
C2092 C 0.96111 0.0227 0.22866 0.0
C2093 C 0.96603 0.03875 0.2008 0.0
C2094 C 0.984 0.03159 0.19789 0.0
C2095 C 0.99034 0.0199 0.21061 0.0
C2096 C 0.97894 0.01534 0.22568 0.0
C2097 C 0.9957 0.03545 0.18112 0.0
C2098 C 0.00337 0.01968 0.16991 0.0
C2099 C 0.99874 0.05426 0.17563 0.0
C2100 C 0.99288 0.07202 0.18769 0.0
C2101 C 0.99891 0.07691 0.20702 0.0
C2102 C 0.99327 0.0936 0.21835 0.0
C2103 C 0.9817 0.10559 0.21047 0.0
C2104 C 0.9758 0.10095 0.19123 0.0
C2105 C 0.98139 0.08427 0.17984 0.0
H2106 H 0.97735 0.1185 0.21926 0.0
H2107 H 0.04272 0.96034 0.11324 0.0
H2108 H 0.31125 0.76606 0.17403 0.0
H2109 H 0.29944 0.78626 0.15203 0.0
H2110 H 0.32966 0.75521 0.10618 0.0
H2111 H 0.34156 0.73519 0.12826 0.0
H2112 H 0.33769 0.79403 0.10841 0.0
H2113 H 0.28031 0.74932 0.10719 0.0
H2114 H 0.25331 0.73105 0.12092 0.0
H2115 H 0.23343 0.78516 0.14677 0.0
H2116 H 0.26048 0.80377 0.1334 0.0
H2117 H 0.29982 0.83552 0.03269 0.0
H2118 H 0.30895 0.81343 0.05388 0.0
H2119 H 0.27782 0.84378 0.09937 0.0
H2120 H 0.2684 0.86574 0.07816 0.0
H2121 H 0.26993 0.80512 0.09725 0.0
H2122 H 0.32718 0.84989 0.09924 0.0
H2123 H 0.35409 0.86859 0.08581 0.0
H2124 H 0.37432 0.81494 0.05921 0.0
H2125 H 0.34735 0.7959 0.07226 0.0
C2126 C 0.31489 0.76325 0.15912 0.0
C2127 C 0.32702 0.74896 0.15266 0.0
C2128 C 0.3082 0.7748 0.14657 0.0
C2129 C 0.31359 0.77224 0.12738 0.0
C2130 C 0.32529 0.75748 0.12088 0.0
C2131 C 0.33194 0.74594 0.13342 0.0
C2132 C 0.30814 0.78574 0.11444 0.0
C2133 C 0.32284 0.7962 0.10574 0.0
C2134 C 0.28882 0.78909 0.11138 0.0
C2135 C 0.27254 0.77794 0.11945 0.0
C2136 C 0.27028 0.75732 0.11594 0.0
C2137 C 0.25495 0.74691 0.12363 0.0
C2138 C 0.24169 0.75694 0.13476 0.0
C2139 C 0.24373 0.77741 0.13817 0.0
C2140 C 0.25905 0.7879 0.13053 0.0
C2141 C 0.29506 0.83762 0.04726 0.0
C2142 C 0.28343 0.85246 0.05374 0.0
C2143 C 0.30031 0.82497 0.05938 0.0
C2144 C 0.29419 0.82698 0.07831 0.0
C2145 C 0.2827 0.84189 0.08484 0.0
C2146 C 0.27742 0.85452 0.07272 0.0
C2147 C 0.29949 0.81333 0.09116 0.0
C2148 C 0.28478 0.8029 0.09989 0.0
C2149 C 0.31881 0.81007 0.09433 0.0
C2150 C 0.33513 0.82147 0.08657 0.0
C2151 C 0.33728 0.84208 0.09041 0.0
C2152 C 0.35256 0.85274 0.08288 0.0
C2153 C 0.36588 0.84296 0.07162 0.0
C2154 C 0.36398 0.82249 0.06791 0.0
C2155 C 0.3487 0.81175 0.07538 0.0
H2156 H 0.37769 0.85124 0.0658 0.0
H2157 H 0.22983 0.74884 0.14069 0.0
H2158 H 0.01666 0.46672 0.09295 0.0
H2159 H 0.0377 0.47135 0.12131 0.0
H2160 H 0.05459 0.5312 0.11444 0.0
H2161 H 0.03497 0.52618 0.08513 0.0
H2162 H 0.08443 0.51744 0.12405 0.0
H2163 H 0.02117 0.51654 0.14911 0.0
H2164 H 0.9875 0.50344 0.15279 0.0
H2165 H 0.00645 0.45265 0.17114 0.0
H2166 H 0.04024 0.46534 0.16734 0.0
H2167 H 0.11814 0.55641 0.21838 0.0
H2168 H 0.09694 0.54752 0.19008 0.0
H2169 H 0.10024 0.4863 0.19136 0.0
H2170 H 0.12194 0.49503 0.21969 0.0
H2171 H 0.06108 0.49862 0.18484 0.0
H2172 H 0.12542 0.50252 0.16093 0.0
H2173 H 0.15836 0.51868 0.15932 0.0
H2174 H 0.13591 0.56763 0.1406 0.0
H2175 H 0.10279 0.55187 0.14237 0.0
C2176 C 0.02502 0.48082 0.09726 0.0
C2177 C 0.02395 0.49607 0.08659 0.0
C2178 C 0.03687 0.48354 0.11374 0.0
C2179 C 0.04756 0.50175 0.12034 0.0
C2180 C 0.04649 0.51701 0.10977 0.0
C2181 C 0.03496 0.51418 0.09308 0.0
C2182 C 0.0601 0.5049 0.13802 0.0
C2183 C 0.07917 0.51348 0.13734 0.0
C2184 C 0.05352 0.49945 0.15543 0.0
C2185 C 0.03322 0.49179 0.15774 0.0
C2186 C 0.01815 0.50251 0.15379 0.0
C2187 C 0.99905 0.49517 0.15592 0.0
C2188 C 0.99484 0.47719 0.16214 0.0
C2189 C 0.00973 0.46655 0.1663 0.0
C2190 C 0.02886 0.47382 0.16417 0.0
C2191 C 0.11435 0.54101 0.2128 0.0
C2192 C 0.1219 0.52643 0.22132 0.0
C2193 C 0.10221 0.53598 0.19657 0.0
C2194 C 0.09713 0.51628 0.18858 0.0
C2195 C 0.10404 0.5016 0.19734 0.0
C2196 C 0.11647 0.50663 0.21348 0.0
C2197 C 0.0851 0.51125 0.17072 0.0
C2198 C 0.06622 0.50238 0.17143 0.0
C2199 C 0.0917 0.51678 0.15345 0.0
C2200 C 0.11161 0.52607 0.15193 0.0
C2201 C 0.1275 0.51678 0.15658 0.0
C2202 C 0.1462 0.52586 0.15563 0.0
C2203 C 0.14922 0.54419 0.14991 0.0
C2204 C 0.13354 0.55343 0.14504 0.0
C2205 C 0.1148 0.54442 0.14599 0.0
H2206 H 0.16372 0.5512 0.1492 0.0
H2207 H 0.98004 0.47154 0.16378 0.0
H2208 H 0.37776 0.73688 0.24148 0.0
H2209 H 0.40223 0.7358 0.26606 0.0
H2210 H 0.39726 0.67275 0.25149 0.0
H2211 H 0.37235 0.67377 0.22721 0.0
H2212 H 0.39931 0.68215 0.28815 0.0
H2213 H 0.43668 0.7032 0.23837 0.0
H2214 H 0.44618 0.72327 0.21377 0.0
H2215 H 0.45606 0.77462 0.25685 0.0
H2216 H 0.44636 0.75492 0.2817 0.0
H2217 H 0.48949 0.68698 0.34627 0.0
H2218 H 0.46539 0.6793 0.31989 0.0
H2219 H 0.45092 0.73865 0.33141 0.0
H2220 H 0.47612 0.74671 0.35635 0.0
H2221 H 0.46066 0.72588 0.29378 0.0
H2222 H 0.39886 0.69739 0.33164 0.0
H2223 H 0.38732 0.67475 0.35349 0.0
H2224 H 0.42711 0.63485 0.33056 0.0
H2225 H 0.4383 0.65697 0.30816 0.0
C2226 C 0.38201 0.72281 0.24341 0.0
C2227 C 0.37321 0.70543 0.23235 0.0
C2228 C 0.39605 0.72219 0.25744 0.0
C2229 C 0.40191 0.70421 0.26044 0.0
C2230 C 0.39306 0.68681 0.24945 0.0
C2231 C 0.37882 0.68741 0.23558 0.0
C2232 C 0.41691 0.70361 0.27539 0.0
C2233 C 0.41286 0.69151 0.28916 0.0
C2234 C 0.43469 0.71568 0.27677 0.0
C2235 C 0.44066 0.72759 0.26189 0.0
C2236 C 0.44077 0.71879 0.24259 0.0
C2237 C 0.4462 0.7301 0.2286 0.0
C2238 C 0.45169 0.75021 0.23374 0.0
C2239 C 0.4518 0.75904 0.25289 0.0
C2240 C 0.44636 0.74781 0.26694 0.0
C2241 C 0.48078 0.69819 0.34342 0.0
C2242 C 0.48406 0.71723 0.35395 0.0
C2243 C 0.4668 0.69372 0.32851 0.0
C2244 C 0.45575 0.70819 0.32405 0.0
C2245 C 0.45891 0.72711 0.33481 0.0
C2246 C 0.47314 0.73165 0.3493 0.0
C2247 C 0.44281 0.70481 0.30674 0.0
C2248 C 0.44724 0.71629 0.29252 0.0
C2249 C 0.42564 0.69184 0.30468 0.0
C2250 C 0.41994 0.67916 0.31885 0.0
C2251 C 0.40527 0.68388 0.33147 0.0
C2252 C 0.39862 0.67104 0.34376 0.0
C2253 C 0.4066 0.65345 0.34354 0.0
C2254 C 0.4211 0.64858 0.33088 0.0
C2255 C 0.42759 0.66126 0.31839 0.0
H2256 H 0.4015 0.64357 0.35312 0.0
H2257 H 0.45589 0.75894 0.22289 0.0
H2258 H 0.01102 0.46556 0.00231 0.0
H2259 H 0.01545 0.43405 0.98273 0.0
H2260 H 0.99125 0.4039 0.02688 0.0
H2261 H 0.9877 0.43545 0.04675 0.0
H2262 H 0.02129 0.3886 0.01593 0.0
H2263 H 0.96722 0.40483 0.98201 0.0
H2264 H 0.94868 0.42511 0.96483 0.0
H2265 H 0.99158 0.42528 0.92221 0.0
H2266 H 0.01052 0.40521 0.93928 0.0
H2267 H 0.99671 0.29361 0.95992 0.0
H2268 H 0.99705 0.32626 0.97903 0.0
H2269 H 0.03686 0.34995 0.9407 0.0
H2270 H 0.03692 0.3171 0.92167 0.0
H2271 H 1.00146 0.36897 0.94756 0.0
H2272 H 0.05388 0.34974 0.98186 0.0
H2273 H 0.06999 0.32773 0.99915 0.0
H2274 H 0.02673 0.33143 0.04146 0.0
H2275 H 0.01018 0.35323 0.02426 0.0
C2276 C 0.00631 0.45216 0.00761 0.0
C2277 C 0.9989 0.45288 0.02595 0.0
C2278 C 0.00884 0.43413 0.99642 0.0
C2279 C 0.00357 0.41645 0.00319 0.0
C2280 C 0.99555 0.41725 0.02131 0.0
C2281 C 0.99337 0.43526 0.03261 0.0
C2282 C 0.0072 0.3972 0.99191 0.0
C2283 C 0.01671 0.38429 1.00104 0.0
C2284 C 1.00172 0.39159 0.97231 0.0
C2285 C 0.99039 0.4037 0.96204 0.0
C2286 C 0.97278 0.40933 0.96906 0.0
C2287 C 0.96219 0.42076 0.95933 0.0
C2288 C 0.96898 0.42653 0.94247 0.0
C2289 C 0.98636 0.42083 0.93529 0.0
C2290 C 0.99702 0.40942 0.94498 0.0
C2291 C 0.00589 0.30569 0.95581 0.0
C2292 C 0.01687 0.3028 0.93936 0.0
C2293 C 0.00604 0.32433 0.96672 0.0
C2294 C 0.01692 0.34051 0.96123 0.0
C2295 C 0.02837 0.33762 0.94515 0.0
C2296 C 0.02854 0.31885 0.93442 0.0
C2297 C 0.01525 0.36051 0.9717 0.0
C2298 C 0.00611 0.37348 0.96242 0.0
C2299 C 0.02072 0.36602 0.99123 0.0
C2300 C 0.0307 0.353 1.00167 0.0
C2301 C 0.0477 0.34573 0.99476 0.0
C2302 C 0.05694 0.33332 0.00456 0.0
C2303 C 0.04937 0.32815 0.02137 0.0
C2304 C 0.03257 0.33543 0.02843 0.0
C2305 C 0.02327 0.34784 0.01867 0.0
H2306 H 0.05653 0.31854 0.02894 0.0
H2307 H 0.96075 0.43537 0.93496 0.0
H2308 H 0.69377 0.79367 0.25858 0.0
H2309 H 0.66904 0.78066 0.27873 0.0
H2310 H 0.62518 0.80069 0.24579 0.0
H2311 H 0.65001 0.81389 0.22582 0.0
H2312 H 0.62184 0.81313 0.28298 0.0
H2313 H 0.62885 0.75142 0.24419 0.0
H2314 H 0.64635 0.72469 0.22833 0.0
H2315 H 0.6672 0.71518 0.28282 0.0
H2316 H 0.65004 0.74205 0.29901 0.0
H2317 H 0.54351 0.77179 0.33194 0.0
H2318 H 0.56598 0.78039 0.30777 0.0
H2319 H 0.61179 0.75961 0.33742 0.0
H2320 H 0.58931 0.75057 0.36135 0.0
H2321 H 0.61298 0.74671 0.30046 0.0
H2322 H 0.60785 0.80929 0.33911 0.0
H2323 H 0.59098 0.83635 0.35537 0.0
H2324 H 0.56733 0.84452 0.3015 0.0
H2325 H 0.58387 0.81733 0.28494 0.0
C2326 C 0.67878 0.7947 0.25533 0.0
C2327 C 0.67364 0.80444 0.24056 0.0
C2328 C 0.66466 0.78733 0.26685 0.0
C2329 C 0.64519 0.7896 0.26375 0.0
C2330 C 0.64006 0.79872 0.24846 0.0
C2331 C 0.6542 0.80609 0.23695 0.0
C2332 C 0.63047 0.784 0.27741 0.0
C2333 C 0.61965 0.79849 0.28653 0.0
C2334 C 0.62798 0.76508 0.2825 0.0
C2335 C 0.63828 0.74888 0.2728 0.0
C2336 C 0.63729 0.74374 0.25279 0.0
C2337 C 0.64712 0.72854 0.24374 0.0
C2338 C 0.65791 0.71827 0.25456 0.0
C2339 C 0.65885 0.72315 0.27446 0.0
C2340 C 0.64905 0.73836 0.28358 0.0
C2341 C 0.55841 0.76921 0.3334 0.0
C2342 C 0.56463 0.76056 0.34862 0.0
C2343 C 0.57126 0.77416 0.31957 0.0
C2344 C 0.59066 0.7708 0.32081 0.0
C2345 C 0.59691 0.76231 0.3361 0.0
C2346 C 0.58405 0.75724 0.34985 0.0
C2347 C 0.60442 0.77587 0.30607 0.0
C2348 C 0.61507 0.76131 0.2968 0.0
C2349 C 0.60684 0.79476 0.30089 0.0
C2350 C 0.59693 0.81114 0.31081 0.0
C2351 C 0.59893 0.81676 0.33075 0.0
C2352 C 0.58945 0.83214 0.34002 0.0
C2353 C 0.57804 0.84211 0.32948 0.0
C2354 C 0.57614 0.83676 0.30964 0.0
C2355 C 0.58558 0.82138 0.30031 0.0
H2356 H 0.57072 0.85401 0.33668 0.0
H2357 H 0.66552 0.70651 0.24752 0.0
H2358 H 0.02092 0.09984 0.0351 0.0
H2359 H 0.01549 0.12825 0.01999 0.0
H2360 H 0.06522 0.11918 0.98577 0.0
H2361 H 0.07081 0.09117 1.00119 0.0
H2362 H 0.06365 0.15723 0.99652 0.0
H2363 H 0.01865 0.10221 0.96836 0.0
H2364 H 0.99271 0.07531 0.96872 0.0
H2365 H 0.95509 0.11659 0.99372 0.0
H2366 H 0.98091 0.14372 0.99372 0.0
H2367 H 0.04301 0.20769 0.92071 0.0
H2368 H 0.04969 0.18333 0.94034 0.0
H2369 H 0.99798 0.19305 0.97114 0.0
H2370 H 0.99087 0.21694 0.95115 0.0
H2371 H 1.00033 0.1558 0.96373 0.0
H2372 H 0.04504 0.21123 0.99023 0.0
H2373 H 0.07106 0.23796 0.98949 0.0
H2374 H 0.1093 0.19604 0.96747 0.0
H2375 H 0.08343 0.16907 0.96784 0.0
C2376 C 0.03086 0.10425 0.02463 0.0
C2377 C 0.04634 0.09354 0.01933 0.0
C2378 C 0.02768 0.12033 0.01588 0.0
C2379 C 0.03976 0.12572 1.00147 0.0
C2380 C 0.05568 0.11538 0.9968 0.0
C2381 C 0.05889 0.0994 0.00561 0.0
C2382 C 0.03543 0.14146 0.99059 0.0
C2383 C 0.04985 0.15683 0.98923 0.0
C2384 C 0.01732 0.14123 0.98132 0.0
C2385 C 1.00177 0.12496 0.98122 0.0
C2386 C 0.00489 0.10553 0.97405 0.0
C2387 C 0.9902 0.09025 0.97417 0.0
C2388 C 0.97228 0.09423 0.98129 0.0
C2389 C 0.96899 0.11352 0.98824 0.0
C2390 C 0.98364 0.12886 0.98817 0.0
C2391 C 0.03308 0.20473 0.93171 0.0
C2392 C 0.01641 0.21439 0.93434 0.0
C2393 C 0.03698 0.19083 0.94304 0.0
C2394 C 0.02453 0.1865 0.95752 0.0
C2395 C 0.00786 0.1961 0.96012 0.0
C2396 C 0.00383 0.20982 0.94867 0.0
C2397 C 0.02855 0.17162 0.96961 0.0
C2398 C 0.01408 0.15635 0.97115 0.0
C2399 C 0.04663 0.17195 0.97902 0.0
C2400 C 0.06224 0.18814 0.97892 0.0
C2401 C 0.05896 0.20772 0.98512 0.0
C2402 C 0.07369 0.22291 0.98478 0.0
C2403 C 0.09181 0.2187 0.9784 0.0
C2404 C 0.09526 0.19928 0.97239 0.0
C2405 C 0.08057 0.18404 0.97268 0.0
H2406 H 0.10319 0.23049 0.97814 0.0
H2407 H 0.96093 0.08238 0.98137 0.0
H2408 H 0.342 0.31464 0.27711 0.0
H2409 H 0.36748 0.31195 0.25378 0.0
H2410 H 0.40772 0.30497 0.29803 0.0
H2411 H 0.38239 0.3076 0.32135 0.0
H2412 H 0.40365 0.3305 0.24883 0.0
H2413 H 0.43438 0.26872 0.28051 0.0
H2414 H 0.42385 0.24337 0.29988 0.0
H2415 H 0.36562 0.24188 0.27931 0.0
H2416 H 0.37584 0.26699 0.25962 0.0
H2417 H 0.48976 0.30132 0.19962 0.0
H2418 H 0.46646 0.31383 0.22297 0.0
H2419 H 0.4273 0.26158 0.20479 0.0
H2420 H 0.4503 0.24903 0.18206 0.0
H2421 H 0.43186 0.26745 0.24184 0.0
H2422 H 0.41915 0.30684 0.19419 0.0
H2423 H 0.42753 0.33093 0.17292 0.0
H2424 H 0.44613 0.37476 0.22143 0.0
H2425 H 0.4381 0.35084 0.24298 0.0
C2426 C 0.35636 0.31291 0.28194 0.0
C2427 C 0.36007 0.31104 0.30105 0.0
C2428 C 0.37093 0.3114 0.26858 0.0
C2429 C 0.38948 0.30799 0.27407 0.0
C2430 C 0.39347 0.30729 0.29337 0.0
C2431 C 0.37893 0.30871 0.30668 0.0
C2432 C 0.40408 0.30328 0.25943 0.0
C2433 C 0.40991 0.31677 0.24734 0.0
C2434 C 0.41211 0.28527 0.25728 0.0
C2435 C 0.40586 0.26989 0.26878 0.0
C2436 C 0.41934 0.26292 0.28008 0.0
C2437 C 0.41343 0.2486 0.29111 0.0
C2438 C 0.39407 0.24107 0.29088 0.0
C2439 C 0.38059 0.24777 0.27954 0.0
C2440 C 0.38644 0.26205 0.26845 0.0
C2441 C 0.47604 0.29271 0.20044 0.0
C2442 C 0.47201 0.27408 0.1891 0.0
C2443 C 0.46273 0.29985 0.21379 0.0
C2444 C 0.44513 0.28857 0.21579 0.0
C2445 C 0.44082 0.27047 0.20376 0.0
C2446 C 0.45405 0.26332 0.19068 0.0
C2447 C 0.43149 0.29461 0.23106 0.0
C2448 C 0.42584 0.28132 0.24338 0.0
C2449 C 0.42342 0.31261 0.2331 0.0
C2450 C 0.42823 0.32699 0.22017 0.0
C2451 C 0.42518 0.32156 0.20031 0.0
C2452 C 0.42984 0.3352 0.1882 0.0
C2453 C 0.43741 0.35435 0.19581 0.0
C2454 C 0.4403 0.35991 0.21555 0.0
C2455 C 0.43569 0.34633 0.22772 0.0
H2456 H 0.441 0.36488 0.18642 0.0
H2457 H 0.38951 0.23001 0.29945 0.0
H2458 H 0.5268 0.40469 0.00807 0.0
H2459 H 0.52504 0.3797 0.0288 0.0
H2460 H 0.55462 0.42168 0.07415 0.0
H2461 H 0.55631 0.4468 0.05329 0.0
H2462 H 0.56665 0.38343 0.07106 0.0
H2463 H 0.50791 0.41367 0.0754 0.0
H2464 H 0.47906 0.42514 0.06257 0.0
H2465 H 0.45904 0.36628 0.0361 0.0
H2466 H 0.48793 0.3545 0.04855 0.0
H2467 H 0.54151 0.32801 0.14448 0.0
H2468 H 0.54601 0.35429 0.12542 0.0
H2469 H 0.50829 0.31965 0.08101 0.0
H2470 H 0.50325 0.29361 0.10031 0.0
H2471 H 0.50096 0.35557 0.08462 0.0
H2472 H 0.55929 0.32496 0.07875 0.0
H2473 H 0.58837 0.31271 0.09017 0.0
H2474 H 0.60945 0.37084 0.11789 0.0
H2475 H 0.58036 0.38339 0.10684 0.0
C2476 C 0.53328 0.40843 0.02234 0.0
C2477 C 0.54183 0.42752 0.0291 0.0
C2478 C 0.53216 0.3942 0.03421 0.0
C2479 C 0.53949 0.39885 0.05312 0.0
C2480 C 0.54886 0.41775 0.05962 0.0
C2481 C 0.54988 0.43206 0.04772 0.0
C2482 C 0.53635 0.38425 0.06628 0.0
C2483 C 0.5523 0.37753 0.07427 0.0
C2484 C 0.51763 0.37621 0.07013 0.0
C2485 C 0.50017 0.38323 0.06276 0.0
C2486 C 0.49743 0.40319 0.06672 0.0
C2487 C 0.48105 0.40975 0.05954 0.0
C2488 C 0.46724 0.39645 0.04849 0.0
C2489 C 0.46976 0.37657 0.04464 0.0
C2490 C 0.48612 0.36994 0.05177 0.0
C2491 C 0.53406 0.32604 0.13071 0.0
C2492 C 0.52205 0.30866 0.12391 0.0
C2493 C 0.53677 0.34105 0.11973 0.0
C2494 C 0.52782 0.3389 0.10153 0.0
C2495 C 0.51544 0.32173 0.09494 0.0
C2496 C 0.51256 0.30681 0.10601 0.0
C2497 C 0.53128 0.35446 0.08933 0.0
C2498 C 0.51536 0.36144 0.08151 0.0
C2499 C 0.55004 0.36257 0.0855 0.0
C2500 C 0.56755 0.35507 0.09214 0.0
C2501 C 0.57006 0.3351 0.0874 0.0
C2502 C 0.58655 0.32811 0.09379 0.0
C2503 C 0.60072 0.34098 0.10479 0.0
C2504 C 0.59845 0.36088 0.10939 0.0
C2505 C 0.58197 0.36794 0.10306 0.0
H2506 H 0.61349 0.33554 0.10972 0.0
H2507 H 0.45458 0.40156 0.04294 0.0
H2508 H 0.69324 0.22585 0.27045 0.0
H2509 H 0.66607 0.23772 0.2552 0.0
H2510 H 0.62771 0.19073 0.2713 0.0
H2511 H 0.65491 0.17884 0.28636 0.0
H2512 H 0.62323 0.19249 0.23407 0.0
H2513 H 0.62672 0.23858 0.29279 0.0
H2514 H 0.64259 0.26406 0.3181 0.0
H2515 H 0.65572 0.30201 0.27697 0.0
H2516 H 0.64015 0.27664 0.25135 0.0
H2517 H 0.53442 0.21907 0.2077 0.0
H2518 H 0.56125 0.21337 0.2275 0.0
H2519 H 0.59694 0.26026 0.20816 0.0
H2520 H 0.57 0.26627 0.1883 0.0
H2521 H 0.60355 0.25966 0.24646 0.0
H2522 H 0.60018 0.21435 0.1879 0.0
H2523 H 0.5848 0.18911 0.16208 0.0
H2524 H 0.57244 0.14984 0.20214 0.0
H2525 H 0.58741 0.17497 0.22828 0.0
C2526 C 0.6789 0.21839 0.27105 0.0
C2527 C 0.67599 0.20162 0.27968 0.0
C2528 C 0.6634 0.22514 0.26235 0.0
C2529 C 0.64478 0.21517 0.26215 0.0
C2530 C 0.6419 0.19867 0.27126 0.0
C2531 C 0.65738 0.19196 0.27997 0.0
C2532 C 0.62854 0.22108 0.25142 0.0
C2533 C 0.61876 0.2071 0.237 0.0
C2534 C 0.62311 0.24035 0.25473 0.0
C2535 C 0.63244 0.25563 0.27012 0.0
C2536 C 0.63314 0.2523 0.28911 0.0
C2537 C 0.64205 0.26673 0.30352 0.0
C2538 C 0.6502 0.28462 0.29914 0.0
C2539 C 0.64942 0.28814 0.28034 0.0
C2540 C 0.64054 0.27374 0.26587 0.0
C2541 C 0.54786 0.2284 0.20777 0.0
C2542 C 0.55003 0.24304 0.19619 0.0
C2543 C 0.56324 0.22505 0.2191 0.0
C2544 C 0.58122 0.23614 0.21906 0.0
C2545 C 0.58321 0.25146 0.20834 0.0
C2546 C 0.56778 0.25486 0.19698 0.0
C2547 C 0.59807 0.23095 0.22941 0.0
C2548 C 0.60802 0.24505 0.24361 0.0
C2549 C 0.60378 0.21181 0.22582 0.0
C2550 C 0.59479 0.19663 0.2101 0.0
C2551 C 0.59404 0.2004 0.19124 0.0
C2552 C 0.58541 0.1861 0.17654 0.0
C2553 C 0.57765 0.1679 0.18047 0.0
C2554 C 0.57846 0.16396 0.19912 0.0
C2555 C 0.58702 0.17822 0.21388 0.0
H2556 H 0.57105 0.15682 0.16907 0.0
H2557 H 0.65709 0.29578 0.31031 0.0
H2558 H 0.50177 0.06339 0.03883 0.0
H2559 H 0.51178 0.09536 0.05806 0.0
H2560 H 0.51996 0.12058 0.00679 0.0
H2561 H 0.50935 0.08856 0.98739 0.0
H2562 H 0.54305 0.12108 0.06223 0.0
H2563 H 0.50657 0.16745 0.01596 0.0
H2564 H 0.48042 0.16399 0.99151 0.0
H2565 H 0.45112 0.11635 0.01505 0.0
H2566 H 0.47697 0.11971 0.03975 0.0
H2567 H 0.555 0.21824 0.1178 0.0
H2568 H 0.55634 0.1906 0.09209 0.0
H2569 H 0.49427 0.18235 0.08777 0.0
H2570 H 0.49341 0.2123 0.11073 0.0
H2571 H 0.50383 0.17494 0.05582 0.0
H2572 H 0.53052 0.13725 0.1074 0.0
H2573 H 0.5539 0.13734 0.13398 0.0
H2574 H 0.59896 0.16229 0.10198 0.0
H2575 H 0.57569 0.16236 0.07546 0.0
C2576 C 0.50576 0.07571 0.03161 0.0
C2577 C 0.5045 0.07346 0.01157 0.0
C2578 C 0.51164 0.09398 0.04264 0.0
C2579 C 0.51641 0.11049 0.03393 0.0
C2580 C 0.51612 0.10813 0.01387 0.0
C2581 C 0.5102 0.08978 0.00278 0.0
C2582 C 0.52044 0.13018 0.04607 0.0
C2583 C 0.53454 0.13292 0.06078 0.0
C2584 C 0.5095 0.14573 0.04419 0.0
C2585 C 0.49382 0.14367 0.0295 0.0
C2586 C 0.49453 0.15626 0.01591 0.0
C2587 C 0.47976 0.15432 0.00202 0.0
C2588 C 0.46416 0.13991 1.00168 0.0
C2589 C 0.46325 0.12746 0.01528 0.0
C2590 C 0.47796 0.12936 0.02921 0.0
C2591 C 0.54167 0.21034 0.11141 0.0
C2592 C 0.52394 0.21659 0.11725 0.0
C2593 C 0.54242 0.19412 0.09692 0.0
C2594 C 0.52543 0.18327 0.0884 0.0
C2595 C 0.50774 0.18999 0.09406 0.0
C2596 C 0.50711 0.20681 0.10773 0.0
C2597 C 0.52564 0.16559 0.07305 0.0
C2598 C 0.51252 0.16327 0.05737 0.0
C2599 C 0.53728 0.15028 0.07423 0.0
C2600 C 0.55124 0.15082 0.09012 0.0
C2601 C 0.54532 0.14328 0.10645 0.0
C2602 C 0.55856 0.14309 0.12134 0.0
C2603 C 0.57784 0.15018 0.11984 0.0
C2604 C 0.58397 0.15708 0.10326 0.0
C2605 C 0.57077 0.15713 0.0883 0.0
H2606 H 0.58806 0.15011 0.1314 0.0
H2607 H 0.45276 0.13842 0.99091 0.0
H2608 H 0.26275 0.34104 0.74404 0.0
H2609 H 0.28539 0.37072 0.75146 0.0
H2610 H 0.26766 0.38902 0.69932 0.0
H2611 H 0.24541 0.35896 0.6916 0.0
H2612 H 0.30418 0.39295 0.70133 0.0
H2613 H 0.25716 0.41316 0.74541 0.0
H2614 H 0.23419 0.41089 0.77116 0.0
H2615 H 0.28037 0.40643 0.81011 0.0
H2616 H 0.30361 0.4084 0.78453 0.0
H2617 H 0.36965 0.48087 0.72499 0.0
H2618 H 0.34183 0.45657 0.71583 0.0
H2619 H 0.34791 0.43545 0.76929 0.0
H2620 H 0.37347 0.46184 0.77945 0.0
H2621 H 0.31393 0.43577 0.76445 0.0
H2622 H 0.35898 0.40801 0.71538 0.0
H2623 H 0.38011 0.41011 0.68783 0.0
H2624 H 0.33505 0.43065 0.65758 0.0
H2625 H 0.31375 0.42847 0.68474 0.0
C2626 C 0.26336 0.35162 0.73439 0.0
C2627 C 0.25229 0.3477 0.71725 0.0
C2628 C 0.27632 0.36864 0.73865 0.0
C2629 C 0.2782 0.3823 0.72605 0.0
C2630 C 0.26657 0.37873 0.70927 0.0
C2631 C 0.25381 0.36158 0.70488 0.0
C2632 C 0.29333 0.39944 0.72964 0.0
C2633 C 0.30615 0.40245 0.7151 0.0
C2634 C 0.29604 0.41193 0.74753 0.0
C2635 C 0.28211 0.41078 0.76299 0.0
C2636 C 0.26241 0.41155 0.75943 0.0
C2637 C 0.24934 0.41034 0.77401 0.0
C2638 C 0.25581 0.40848 0.79225 0.0
C2639 C 0.27538 0.40786 0.79597 0.0
C2640 C 0.28851 0.40905 0.78144 0.0
C2641 C 0.36515 0.47079 0.73461 0.0
C2642 C 0.37453 0.47246 0.75251 0.0
C2643 C 0.34934 0.45664 0.72925 0.0
C2644 C 0.34292 0.4434 0.74146 0.0
C2645 C 0.35246 0.44517 0.75936 0.0
C2646 C 0.36759 0.4599 0.76501 0.0
C2647 C 0.32559 0.4286 0.73651 0.0
C2648 C 0.3121 0.42619 0.75072 0.0
C2649 C 0.32211 0.41681 0.71824 0.0
C2650 C 0.33502 0.4184 0.70215 0.0
C2651 C 0.35378 0.41317 0.70289 0.0
C2652 C 0.3657 0.4143 0.68737 0.0
C2653 C 0.35899 0.4207 0.6711 0.0
C2654 C 0.34028 0.42579 0.67022 0.0
C2655 C 0.32826 0.42454 0.68563 0.0
H2656 H 0.36826 0.42159 0.65913 0.0
H2657 H 0.24567 0.40755 0.80352 0.0
H2658 H 0.28378 0.6858 0.82136 0.0
H2659 H 0.30939 0.66414 0.8197 0.0
H2660 H 0.26673 0.61377 0.8133 0.0
H2661 H 0.2411 0.63531 0.81475 0.0
H2662 H 0.29822 0.61308 0.84011 0.0
H2663 H 0.28663 0.62358 0.77532 0.0
H2664 H 0.28373 0.64403 0.7504 0.0
H2665 H 0.34204 0.66993 0.76252 0.0
H2666 H 0.34519 0.64982 0.78773 0.0
H2667 H 0.3521 0.53493 0.80454 0.0
H2668 H 0.32905 0.55883 0.81199 0.0
H2669 H 0.3721 0.60502 0.80199 0.0
H2670 H 0.39489 0.58097 0.79364 0.0
H2671 H 0.34135 0.60962 0.78513 0.0
H2672 H 0.35471 0.59911 0.84834 0.0
H2673 H 0.35863 0.58031 0.87443 0.0
H2674 H 0.2992 0.55672 0.86747 0.0
H2675 H 0.29497 0.57518 0.84116 0.0
C2676 C 0.27989 0.67011 0.81974 0.0
C2677 C 0.26045 0.66223 0.81808 0.0
C2678 C 0.29451 0.65777 0.81875 0.0
C2679 C 0.28995 0.63734 0.81632 0.0
C2680 C 0.27056 0.62948 0.81519 0.0
C2681 C 0.25595 0.64178 0.81589 0.0
C2682 C 0.30536 0.62409 0.81422 0.0
C2683 C 0.30758 0.61215 0.82803 0.0
C2684 C 0.31792 0.62337 0.79877 0.0
C2685 C 0.31607 0.63536 0.78355 0.0
C2686 C 0.29878 0.63376 0.77279 0.0
C2687 C 0.2971 0.64527 0.75859 0.0
C2688 C 0.31267 0.65832 0.75492 0.0
C2689 C 0.32998 0.65984 0.7654 0.0
C2690 C 0.33172 0.64839 0.77964 0.0
C2691 C 0.35674 0.55023 0.80423 0.0
C2692 C 0.37533 0.55606 0.79852 0.0
C2693 C 0.34355 0.56395 0.80858 0.0
C2694 C 0.34879 0.58389 0.80778 0.0
C2695 C 0.3676 0.58978 0.80267 0.0
C2696 C 0.38068 0.57601 0.79799 0.0
C2697 C 0.33437 0.59836 0.81104 0.0
C2698 C 0.33222 0.61056 0.79739 0.0
C2699 C 0.3221 0.59953 0.82683 0.0
C2700 C 0.32457 0.5884 0.84266 0.0
C2701 C 0.34251 0.5898 0.85228 0.0
C2702 C 0.34478 0.57923 0.86712 0.0
C2703 C 0.32919 0.56729 0.87257 0.0
C2704 C 0.31127 0.56595 0.86322 0.0
C2705 C 0.30892 0.57649 0.84835 0.0
H2706 H 0.33098 0.55912 0.88407 0.0
H2707 H 0.31135 0.66721 0.74392 0.0
H2708 H 0.93358 0.51364 0.474 0.0
H2709 H 0.90353 0.49665 0.48317 0.0
H2710 H 0.92565 0.5034 0.54113 0.0
H2711 H 0.95577 0.52082 0.53206 0.0
H2712 H 0.90642 0.46301 0.52247 0.0
H2713 H 0.8959 0.53078 0.53753 0.0
H2714 H 0.89626 0.56456 0.53111 0.0
H2715 H 0.85741 0.54418 0.48288 0.0
H2716 H 0.85708 0.51022 0.48883 0.0
H2717 H 0.81136 0.42214 0.54257 0.0
H2718 H 0.84198 0.44355 0.54686 0.0
H2719 H 0.83062 0.46342 0.49379 0.0
H2720 H 0.80019 0.44292 0.48975 0.0
H2721 H 0.8457 0.49297 0.51785 0.0
H2722 H 0.86034 0.42604 0.49829 0.0
H2723 H 0.86042 0.39141 0.50193 0.0
H2724 H 0.89152 0.40906 0.55564 0.0
H2725 H 0.89142 0.44382 0.5524 0.0
C2726 C 0.93207 0.51144 0.48868 0.0
C2727 C 0.94699 0.51853 0.50232 0.0
C2728 C 0.91491 0.50178 0.49391 0.0
C2729 C 0.91239 0.49879 0.51282 0.0
C2730 C 0.92735 0.50555 0.52646 0.0
C2731 C 0.94446 0.51557 0.52129 0.0
C2732 C 0.89386 0.48888 0.51812 0.0
C2733 C 0.89315 0.46967 0.52191 0.0
C2734 C 0.87658 0.49749 0.51707 0.0
C2735 C 0.87658 0.51793 0.51356 0.0
C2736 C 0.88756 0.53348 0.52547 0.0
C2737 C 0.88773 0.55266 0.52193 0.0
C2738 C 0.87689 0.55651 0.50658 0.0
C2739 C 0.86581 0.54118 0.49476 0.0
C2740 C 0.86561 0.52196 0.49823 0.0
C2741 C 0.81529 0.43131 0.53199 0.0
C2742 C 0.80328 0.43063 0.51576 0.0
C2743 C 0.83287 0.44345 0.53438 0.0
C2744 C 0.8388 0.45496 0.52051 0.0
C2745 C 0.82646 0.45477 0.50474 0.0
C2746 C 0.80899 0.44286 0.50241 0.0
C2747 C 0.85804 0.46672 0.52157 0.0
C2748 C 0.85894 0.48637 0.51891 0.0
C2749 C 0.87545 0.45836 0.52336 0.0
C2750 C 0.87566 0.4375 0.52523 0.0
C2751 C 0.86708 0.42252 0.51093 0.0
C2752 C 0.86715 0.40288 0.51291 0.0
C2753 C 0.87591 0.39804 0.52904 0.0
C2754 C 0.8847 0.41283 0.54318 0.0
C2755 C 0.88464 0.4325 0.54128 0.0
H2756 H 0.87593 0.38282 0.53056 0.0
H2757 H 0.87704 0.57137 0.50386 0.0
H2758 H 0.78899 0.85534 0.78081 0.0
H2759 H 0.77269 0.88209 0.77125 0.0
H2760 H 0.76713 0.90634 0.83058 0.0
H2761 H 0.78342 0.87981 0.84003 0.0
H2762 H 0.73285 0.90171 0.81057 0.0
H2763 H 0.798 0.92936 0.80411 0.0
H2764 H 0.83084 0.92971 0.79194 0.0
H2765 H 0.80814 0.92281 0.73443 0.0
H2766 H 0.77513 0.92215 0.74626 0.0
H2767 H 0.72031 0.00347 0.78433 0.0
H2768 H 0.74074 0.97943 0.79271 0.0
H2769 H 0.69952 0.93241 0.76502 0.0
H2770 H 0.67912 0.95629 0.75649 0.0
H2771 H 0.75799 0.94938 0.76962 0.0
H2772 H 0.69767 0.89599 0.79287 0.0
H2773 H 0.66528 0.89648 0.80612 0.0
H2774 H 0.67951 0.95653 0.8324 0.0
H2775 H 0.71205 0.95631 0.81954 0.0
C2776 C 0.78467 0.86669 0.79171 0.0
C2777 C 0.7876 0.86577 0.81111 0.0
C2778 C 0.77532 0.88191 0.78628 0.0
C2779 C 0.76865 0.89624 0.80021 0.0
C2780 C 0.77209 0.89547 0.81959 0.0
C2781 C 0.78153 0.88041 0.82497 0.0
C2782 C 0.75709 0.91141 0.79481 0.0
C2783 C 0.73836 0.91208 0.80157 0.0
C2784 C 0.76426 0.92507 0.78318 0.0
C2785 C 0.78409 0.92551 0.77606 0.0
C2786 C 0.8 0.92775 0.78886 0.0
C2787 C 0.81865 0.92803 0.78203 0.0
C2788 C 0.82157 0.92623 0.76242 0.0
C2789 C 0.80586 0.92418 0.74961 0.0
C2790 C 0.78717 0.92387 0.75637 0.0
C2791 C 0.71558 0.98801 0.78004 0.0
C2792 C 0.69803 0.98181 0.76981 0.0
C2793 C 0.72734 0.97429 0.78474 0.0
C2794 C 0.72166 0.9541 0.77954 0.0
C2795 C 0.70417 0.94789 0.76927 0.0
C2796 C 0.69251 0.96158 0.76441 0.0
C2797 C 0.73373 0.93951 0.78526 0.0
C2798 C 0.75249 0.93892 0.77854 0.0
C2799 C 0.72665 0.92595 0.79702 0.0
C2800 C 0.70722 0.92618 0.80507 0.0
C2801 C 0.6939 0.90927 0.80154 0.0
C2802 C 0.67551 0.9095 0.80897 0.0
C2803 C 0.67032 0.92654 0.82004 0.0
C2804 C 0.68353 0.94336 0.82376 0.0
C2805 C 0.70193 0.9432 0.81638 0.0
H2806 H 0.65608 0.9267 0.82576 0.0
H2807 H 0.83602 0.92646 0.75716 0.0
H2808 H 0.60127 0.49274 0.96179 0.0
H2809 H 0.63261 0.51161 0.96841 0.0
H2810 H 0.62403 0.51588 0.02894 0.0
H2811 H 0.59189 0.49815 0.02235 0.0
H2812 H 0.6357 0.54959 0.02276 0.0
H2813 H 0.65976 0.48886 0.00397 0.0
H2814 H 0.66318 0.45684 0.98434 0.0
H2815 H 0.68173 0.48536 0.93749 0.0
H2816 H 0.67815 0.51755 0.95673 0.0
H2817 H 0.72962 0.60719 0.03342 0.0
H2818 H 0.70342 0.58172 0.03578 0.0
H2819 H 0.697 0.56928 0.97437 0.0
H2820 H 0.72514 0.59285 0.97212 0.0
H2821 H 0.69482 0.53709 0.9874 0.0
H2822 H 0.64309 0.58926 0.00905 0.0
H2823 H 0.63661 0.6195 0.03036 0.0
H2824 H 0.6706 0.60404 0.07524 0.0
H2825 H 0.67693 0.57365 0.05417 0.0
C2826 C 0.60602 0.49762 0.97655 0.0
C2827 C 0.59381 0.49414 0.99152 0.0
C2828 C 0.62419 0.50818 0.98034 0.0
C2829 C 0.63095 0.51514 0.99921 0.0
C2830 C 0.61923 0.51074 0.01423 0.0
C2831 C 0.60088 0.50039 0.01044 0.0
C2832 C 0.64921 0.52865 0.00309 0.0
C2833 C 0.64875 0.54661 0.01529 0.0
C2834 C 0.66636 0.52498 0.99345 0.0
C2835 C 0.66858 0.50564 0.98179 0.0
C2836 C 0.66444 0.48831 0.98944 0.0
C2837 C 0.66643 0.47012 0.97838 0.0
C2838 C 0.67264 0.46906 0.95967 0.0
C2839 C 0.67692 0.4862 0.95199 0.0
C2840 C 0.67494 0.50443 0.96298 0.0
C2841 C 0.72237 0.59921 0.02044 0.0
C2842 C 0.7287 0.60283 0.00253 0.0
C2843 C 0.70698 0.58489 0.02182 0.0
C2844 C 0.69714 0.5742 0.00534 0.0
C2845 C 0.70386 0.57757 0.98742 0.0
C2846 C 0.71974 0.59134 0.98606 0.0
C2847 C 0.68099 0.55839 0.00637 0.0
C2848 C 0.68186 0.53991 0.99508 0.0
C2849 C 0.66435 0.56138 0.01722 0.0
C2850 C 0.6617 0.58007 0.02958 0.0
C2851 C 0.64967 0.59273 0.02326 0.0
C2852 C 0.64575 0.60969 0.03539 0.0
C2853 C 0.65356 0.61393 0.05402 0.0
C2854 C 0.66492 0.60098 0.06067 0.0
C2855 C 0.66869 0.58391 0.04862 0.0
H2856 H 0.65055 0.62709 0.06339 0.0
H2857 H 0.67417 0.45497 0.95113 0.0
H2858 H 0.30066 0.69297 0.23095 0.0
H2859 H 0.27561 0.66637 0.2339 0.0
H2860 H 0.28793 0.63675 0.17788 0.0
H2861 H 0.31281 0.66379 0.17474 0.0
H2862 H 0.24942 0.63109 0.18494 0.0
H2863 H 0.30839 0.62439 0.2159 0.0
H2864 H 0.33707 0.6355 0.23705 0.0
H2865 H 0.30116 0.64516 0.28544 0.0
H2866 H 0.27222 0.63449 0.26453 0.0
H2867 H 0.19618 0.54463 0.21077 0.0
H2868 H 0.22008 0.56721 0.19864 0.0
H2869 H 0.22813 0.60191 0.25503 0.0
H2870 H 0.20676 0.57731 0.26752 0.0
H2871 H 0.25964 0.60123 0.24252 0.0
H2872 H 0.20435 0.62508 0.20241 0.0
H2873 H 0.17676 0.61583 0.17934 0.0
H2874 H 0.20783 0.57271 0.1465 0.0
H2875 H 0.23546 0.58183 0.16949 0.0
C2876 C 0.29761 0.68104 0.21906 0.0
C2877 C 0.30858 0.68035 0.20263 0.0
C2878 C 0.28342 0.66579 0.2208 0.0
C2879 C 0.28021 0.64933 0.2063 0.0
C2880 C 0.29023 0.64925 0.18928 0.0
C2881 C 0.30436 0.66469 0.18745 0.0
C2882 C 0.26757 0.63173 0.20978 0.0
C2883 C 0.25167 0.62445 0.19748 0.0
C2884 C 0.2707 0.62279 0.22589 0.0
C2885 C 0.28811 0.62874 0.23861 0.0
C2886 C 0.30659 0.62897 0.23104 0.0
C2887 C 0.3229 0.6352 0.24298 0.0
C2888 C 0.32094 0.64105 0.26257 0.0
C2889 C 0.30266 0.64063 0.27026 0.0
C2890 C 0.28629 0.63448 0.25837 0.0
C2891 C 0.20296 0.55724 0.22048 0.0
C2892 C 0.19874 0.5599 0.23995 0.0
C2893 C 0.21638 0.57052 0.21341 0.0
C2894 C 0.22545 0.58716 0.22551 0.0
C2895 C 0.22132 0.5895 0.24509 0.0
C2896 C 0.20867 0.57569 0.25227 0.0
C2897 C 0.24031 0.60141 0.21859 0.0
C2898 C 0.25708 0.60789 0.23007 0.0
C2899 C 0.23808 0.60939 0.20158 0.0
C2900 C 0.2214 0.6034 0.18817 0.0
C2901 C 0.20495 0.61326 0.19057 0.0
C2902 C 0.18946 0.60821 0.17739 0.0
C2903 C 0.1904 0.59344 0.16163 0.0
C2904 C 0.207 0.58397 0.15884 0.0
C2905 C 0.22258 0.58912 0.1719 0.0
H2906 H 0.17837 0.58951 0.15148 0.0
H2907 H 0.33358 0.64588 0.27179 0.0
H2908 H 0.94358 0.50961 1.00172 0.0
H2909 H 0.91389 0.52262 0.99299 0.0
H2910 H 0.91987 0.56471 0.04521 0.0
H2911 H 0.94901 0.55138 0.05403 0.0
H2912 H 0.88393 0.55121 0.03945 0.0
H2913 H 0.93353 0.57602 1.00011 0.0
H2914 H 0.95874 0.57325 0.97621 0.0
H2915 H 0.91758 0.5405 0.93436 0.0
H2916 H 0.89216 0.54287 0.95811 0.0
H2917 H 0.83318 0.62832 0.02239 0.0
H2918 H 0.85933 0.6086 0.02605 0.0
H2919 H 0.83778 0.56728 0.97636 0.0
H2920 H 0.81131 0.587 0.97261 0.0
H2921 H 0.87873 0.57611 0.97821 0.0
H2922 H 0.82835 0.55509 0.01762 0.0
H2923 H 0.80363 0.5595 0.04186 0.0
H2924 H 0.84704 0.58663 0.08411 0.0
H2925 H 0.87201 0.58265 0.06005 0.0
C2926 C 0.93829 0.52144 0.01137 0.0
C2927 C 0.94837 0.52948 0.02857 0.0
C2928 C 0.92146 0.52899 0.00634 0.0
C2929 C 0.91468 0.54487 0.01832 0.0
C2930 C 0.92467 0.55247 0.03571 0.0
C2931 C 0.94133 0.54487 0.04076 0.0
C2932 C 0.89751 0.55401 0.01285 0.0
C2933 C 0.88291 0.55673 0.02609 0.0
C2934 C 0.89577 0.56083 0.9952 0.0
C2935 C 0.91101 0.55941 0.98094 0.0
C2936 C 0.92989 0.56809 0.98585 0.0
C2937 C 0.94421 0.56662 0.97233 0.0
C2938 C 0.93978 0.55665 0.9538 0.0
C2939 C 0.921 0.54818 0.94873 0.0
C2940 C 0.90663 0.54959 0.96221 0.0
C2941 C 0.83404 0.61515 0.01209 0.0
C2942 C 0.82005 0.60921 0.99725 0.0
C2943 C 0.84899 0.60384 0.01426 0.0
C2944 C 0.85039 0.58632 1.00164 0.0
C2945 C 0.83694 0.58071 0.98631 0.0
C2946 C 0.82182 0.59199 0.9842 0.0
C2947 C 0.86556 0.57371 0.00504 0.0
C2948 C 0.87969 0.57034 0.99144 0.0
C2949 C 0.867 0.56642 0.02242 0.0
C2950 C 0.85204 0.5687 0.03698 0.0
C2951 C 0.83262 0.56212 0.03205 0.0
C2952 C 0.81856 0.56453 0.04576 0.0
C2953 C 0.82375 0.57337 0.0645 0.0
C2954 C 0.84303 0.57979 0.06958 0.0
C2955 C 0.85715 0.57744 0.05591 0.0
H2956 H 0.81285 0.57522 0.0751 0.0
H2957 H 0.95088 0.55553 0.94335 0.0
H2958 H 0.08697 0.99698 0.07055 0.0
H2959 H 0.11358 0.97699 0.06429 0.0
H2960 H 0.13879 0.0163 0.02816 0.0
H2961 H 0.11268 0.03677 0.03484 0.0
H2962 H 0.13654 0.97677 0.01139 0.0
H2963 H 0.15819 0.01783 0.07108 0.0
H2964 H 0.1552 0.03216 0.1049 0.0
H2965 H 0.14948 0.97466 0.12012 0.0
H2966 H 0.15217 0.95996 0.08633 0.0
H2967 H 0.22743 0.94458 0.996 0.0
H2968 H 0.20131 0.96425 0.00535 0.0
H2969 H 0.18482 0.9282 0.04768 0.0
H2970 H 0.21151 0.90883 0.03884 0.0
H2971 H 0.18135 0.9646 0.06182 0.0
H2972 H 0.16021 0.92298 0.00348 0.0
H2973 H 0.16236 0.9074 0.96992 0.0
H2974 H 0.16516 0.96369 0.9522 0.0
H2975 H 0.16336 0.97966 0.98571 0.0
C2976 C 0.09832 1.00162 0.06154 0.0
C2977 C 0.09758 0.01858 0.05322 0.0
C2978 C 0.11349 0.99008 0.05789 0.0
C2979 C 0.1282 0.99516 0.04577 0.0
C2980 C 0.12755 0.01204 0.03747 0.0
C2981 C 0.11252 0.02368 0.04125 0.0
C2982 C 0.14413 0.98276 0.04141 0.0
C2983 C 0.14648 0.97428 0.02238 0.0
C2984 C 0.15669 0.97896 0.05583 0.0
C2985 C 0.15518 0.98779 0.07615 0.0
C2986 C 0.15613 0.00823 0.08162 0.0
C2987 C 0.15453 0.01642 0.10078 0.0
C2988 C 0.1521 0.00432 0.11464 0.0
C2989 C 0.15133 0.98401 0.10936 0.0
C2990 C 0.15291 0.97574 0.09021 0.0
C2991 C 0.2183 0.94082 0.00734 0.0
C2992 C 0.22152 0.92499 0.01656 0.0
C2993 C 0.20327 0.95206 0.01263 0.0
C2994 C 0.19074 0.94749 0.02695 0.0
C2995 C 0.1942 0.932 0.03653 0.0
C2996 C 0.20946 0.9209 0.03143 0.0
C2997 C 0.17398 0.95876 0.03169 0.0
C2998 C 0.1714 0.96699 0.0508 0.0
C2999 C 0.161 0.9621 0.01736 0.0
C3000 C 0.16181 0.95253 0.99714 0.0
C3001 C 0.1614 0.93205 0.99245 0.0
C3002 C 0.16255 0.92315 0.97343 0.0
C3003 C 0.16393 0.93455 0.95894 0.0
C3004 C 0.16411 0.95488 0.96344 0.0
C3005 C 0.16301 0.96386 0.98245 0.0
H3006 H 0.16483 0.92763 0.94423 0.0
H3007 H 0.15086 0.01069 0.12947 0.0
loop_
_geom_bond_atom_site_label_1
_geom_bond_atom_site_label_2
_geom_bond_distance
_geom_bond_site_symmetry_2
_ccdc_geom_bond_type
H0 C3 0.929 . S
H1 C6 0.929 . S
H2 C8 0.930 . S
C3 H0 0.929 . S
C3 C4 1.398 . S
C3 C5 1.396 . S
C4 C3 1.398 . S
C4 C8 1.407 . S
C5 C3 1.396 . S
C5 C6 1.394 . S
C6 H1 0.929 . S
C6 C5 1.394 . S
C6 C7 1.382 . S
C7 C6 1.382 . S
C7 C8 1.392 . S
C7 N9 1.420 . S
C8 H2 0.930 . S
C8 C4 1.407 . S
C8 C7 1.392 . S
N9 C7 1.420 . S
N9 C10 1.244 . S
C10 N9 1.244 . S
H11 C14 0.929 . S
H12 C17 0.929 . S
H13 C19 0.930 . S
C14 H11 0.929 . S
C14 C15 1.398 . S
C14 C16 1.396 . S
C15 C14 1.398 . S
C15 C19 1.407 . S
C16 C14 1.396 . S
C16 C17 1.394 . S
C17 H12 0.929 . S
C17 C16 1.394 . S
C17 C18 1.382 . S
C18 C17 1.382 . S
C18 C19 1.392 . S
C18 N20 1.420 . S
C19 H13 0.930 . S
C19 C15 1.407 . S
C19 C18 1.392 . S
N20 C18 1.420 . S
N20 C21 1.244 . S
C21 N20 1.244 . S
H22 C25 0.929 . S
H23 C28 0.929 . S
H24 C30 0.930 . S
C25 H22 0.929 . S
C25 C26 1.398 1_455 S
C25 C27 1.396 . S
C26 C25 1.398 1_655 S
C26 C30 1.407 . S
C27 C25 1.396 . S
C27 C28 1.394 1_455 S
C28 H23 0.929 . S
C28 C27 1.394 1_655 S
C28 C29 1.382 . S
C29 C28 1.382 . S
C29 C30 1.392 . S
C29 N31 1.420 . S
C30 H24 0.930 . S
C30 C26 1.407 . S
C30 C29 1.392 . S
N31 C29 1.420 . S
N31 C32 1.244 . S
C32 N31 1.244 . S
H33 C36 0.929 . S
H34 C39 0.929 . S
H35 C41 0.930 . S
C36 H33 0.929 . S
C36 C37 1.398 . S
C36 C38 1.396 . S
C37 C36 1.398 . S
C37 C41 1.407 . S
C38 C36 1.396 . S
C38 C39 1.394 . S
C39 H34 0.929 . S
C39 C38 1.394 . S
C39 C40 1.382 . S
C40 C39 1.382 . S
C40 C41 1.392 . S
C40 N42 1.420 . S
C41 H35 0.930 . S
C41 C37 1.407 . S
C41 C40 1.392 . S
N42 C40 1.420 . S
N42 C43 1.244 . S
C43 N42 1.244 . S
H44 C47 0.971 . S
H45 C50 0.929 . S
H46 C52 0.930 . S
C47 H44 0.971 . S
C47 C48 1.398 . S
C47 C49 1.396 . S
C48 C47 1.398 . S
C48 C52 1.407 . S
C49 C47 1.396 . S
C49 C50 1.394 . S
C50 H45 0.929 . S
C50 C49 1.394 . S
C50 C51 1.382 . S
C51 C50 1.382 . S
C51 C52 1.392 . S
C51 N53 1.420 . S
C52 H46 0.930 . S
C52 C48 1.407 . S
C52 C51 1.392 . S
N53 C51 1.420 . S
N53 C54 1.244 . S
C54 N53 1.244 . S
H55 C58 0.929 . S
H56 C61 0.929 . S
H57 C63 0.930 . S
C58 H55 0.929 . S
C58 C59 1.398 . S
C58 C60 1.396 . S
C59 C58 1.398 . S
C59 C63 1.407 . S
C60 C58 1.396 . S
C60 C61 1.394 . S
C61 H56 0.929 . S
C61 C60 1.394 . S
C61 C62 1.382 . S
C62 C61 1.382 . S
C62 C63 1.392 . S
C62 N64 1.420 . S
C63 H57 0.930 . S
C63 C59 1.407 . S
C63 C62 1.392 . S
N64 C62 1.420 . S
N64 C65 1.244 . S
C65 N64 1.244 . S
H66 C69 0.929 . S
H67 C72 0.929 . S
H68 C74 0.930 . S
C69 H66 0.929 . S
C69 C70 1.398 . S
C69 C71 1.396 . S
C70 C69 1.398 . S
C70 C74 1.407 . S
C71 C69 1.396 . S
C71 C72 1.394 1_655 S
C72 H67 0.929 . S
C72 C71 1.394 1_455 S
C72 C73 1.382 . S
C73 C72 1.382 . S
C73 C74 1.391 1_455 S
C73 N75 1.421 . S
C74 H68 0.930 . S
C74 C70 1.407 . S
C74 C73 1.391 1_655 S
N75 C73 1.421 . S
N75 C76 1.244 . S
C76 N75 1.244 . S
H77 C80 0.929 . S
H78 C83 0.929 . S
H79 C85 0.930 . S
C80 H77 0.929 . S
C80 C81 1.398 . S
C80 C82 1.396 . S
C81 C80 1.398 . S
C81 C85 1.407 . S
C82 C80 1.396 . S
C82 C83 1.394 . S
C83 H78 0.929 . S
C83 C82 1.394 . S
C83 C84 1.382 . S
C84 C83 1.382 . S
C84 C85 1.392 . S
C84 N86 1.420 . S
C85 H79 0.930 . S
C85 C81 1.407 . S
C85 C84 1.392 . S
N86 C84 1.420 . S
N86 C87 1.244 . S
C87 N86 1.244 . S
H88 C91 0.929 . S
H89 C94 0.929 . S
H90 C96 0.930 . S
C91 H88 0.929 . S
C91 C92 1.398 . S
C91 C93 1.396 . S
C92 C91 1.398 . S
C92 C96 1.407 . S
C93 C91 1.396 . S
C93 C94 1.394 . S
C94 H89 0.929 . S
C94 C93 1.394 . S
C94 C95 1.382 . S
C95 C94 1.382 . S
C95 C96 1.392 . S
C95 N97 1.420 . S
C96 H90 0.930 . S
C96 C92 1.407 . S
C96 C95 1.392 . S
N97 C95 1.420 . S
N97 C98 1.244 . S
C98 N97 1.244 . S
H99 C102 0.929 . S
H100 C105 0.929 1_545 S
H101 C107 0.930 . S
C102 H99 0.929 . S
C102 C103 1.398 . S
C102 C104 1.396 . S
C103 C102 1.398 . S
C103 C107 1.407 . S
C104 C102 1.396 . S
C104 C105 1.394 . S
C105 H100 0.929 1_565 S
C105 C104 1.394 . S
C105 C106 1.382 . S
C106 C105 1.382 . S
C106 C107 1.392 . S
C106 N108 1.420 1_565 S
C107 H101 0.930 . S
C107 C103 1.407 . S
C107 C106 1.392 . S
N108 C106 1.420 1_545 S
N108 C109 1.244 . S
C109 N108 1.244 . S
H110 C113 0.929 . S
H111 C116 0.929 . S
H112 C118 0.930 . S
C113 H110 0.929 . S
C113 C114 1.398 . S
C113 C115 1.396 . S
C114 C113 1.398 . S
C114 C118 1.407 . S
C115 C113 1.396 . S
C115 C116 1.394 . S
C116 H111 0.929 . S
C116 C115 1.394 . S
C116 C117 1.382 . S
C117 C116 1.382 . S
C117 C118 1.392 . S
C117 N119 1.420 . S
C118 H112 0.930 . S
C118 C114 1.407 . S
C118 C117 1.392 . S
N119 C117 1.420 . S
N119 C120 1.244 . S
C120 N119 1.244 . S
H121 C124 0.929 . S
H122 C127 0.929 . S
H123 C129 0.930 . S
C124 H121 0.929 . S
C124 C125 1.398 . S
C124 C126 1.396 . S
C125 C124 1.398 . S
C125 C129 1.407 . S
C126 C124 1.396 . S
C126 C127 1.394 . S
C127 H122 0.929 . S
C127 C126 1.394 . S
C127 C128 1.382 . S
C128 C127 1.382 . S
C128 C129 1.392 . S
C128 N130 1.420 . S
C129 H123 0.930 . S
C129 C125 1.407 . S
C129 C128 1.392 . S
N130 C128 1.420 . S
N130 C131 1.244 . S
C131 N130 1.244 . S
H132 C135 0.929 . S
H133 C138 0.929 . S
H134 C140 0.930 . S
C135 H132 0.929 . S
C135 C136 1.398 . S
C135 C137 1.396 . S
C136 C135 1.398 . S
C136 C140 1.407 . S
C137 C135 1.396 . S
C137 C138 1.394 . S
C138 H133 0.929 . S
C138 C137 1.394 . S
C138 C139 1.382 . S
C139 C138 1.382 . S
C139 C140 1.392 . S
C139 N141 1.420 . S
C140 H134 0.930 . S
C140 C136 1.407 . S
C140 C139 1.392 . S
N141 C139 1.420 . S
N141 C142 1.244 . S
C142 N141 1.244 . S
H143 C146 0.929 . S
H144 C149 0.929 . S
H145 C151 0.930 . S
C146 H143 0.929 . S
C146 C147 1.398 . S
C146 C148 1.396 . S
C147 C146 1.398 . S
C147 C151 1.407 . S
C148 C146 1.396 . S
C148 C149 1.394 1_556 S
C149 H144 0.929 . S
C149 C148 1.394 1_554 S
C149 C150 1.382 1_554 S
C150 C149 1.382 1_556 S
C150 C151 1.392 . S
C150 N152 1.420 1_556 S
C151 H145 0.930 . S
C151 C147 1.407 . S
C151 C150 1.392 . S
N152 C150 1.420 1_554 S
N152 C153 1.244 . S
C153 N152 1.244 . S
H154 C157 0.929 . S
H155 C160 0.929 . S
H156 C162 0.930 . S
C157 H154 0.929 . S
C157 C158 1.398 . S
C157 C159 1.396 . S
C158 C157 1.398 . S
C158 C162 1.407 . S
C159 C157 1.396 . S
C159 C160 1.394 . S
C160 H155 0.929 . S
C160 C159 1.394 . S
C160 C161 1.382 . S
C161 C160 1.382 . S
C161 C162 1.392 . S
C161 N163 1.420 . S
C162 H156 0.930 . S
C162 C158 1.407 . S
C162 C161 1.392 . S
N163 C161 1.420 . S
N163 C164 1.244 . S
C164 N163 1.244 . S
H165 C168 0.941 . S
H166 C171 0.929 . S
H167 C173 0.930 . S
C168 H165 0.941 . S
C168 C169 1.398 . S
C168 C170 1.396 . S
C169 C168 1.398 . S
C169 C173 1.407 . S
C170 C168 1.396 . S
C170 C171 1.394 . S
C171 H166 0.929 . S
C171 C170 1.394 . S
C171 C172 1.382 . S
C172 C171 1.382 . S
C172 C173 1.392 . S
C172 N174 1.420 . S
C173 H167 0.930 . S
C173 C169 1.407 . S
C173 C172 1.392 . S
N174 C172 1.420 . S
N174 C175 1.244 . S
C175 N174 1.244 . S
Mn176 O181 2.095 . S
Mn176 O191 2.162 . S
Mn176 O192 2.297 . S
Mn176 O200 2.385 . S
Mn176 O201 2.209 . S
Mn176 O202 2.094 . S
Mn177 O182 2.121 . S
Mn177 N184 2.257 1_554 S
Mn177 N193 2.282 1_554 S
Mn177 O201 2.215 . S
Mn177 O203 2.117 . S
C178 O200 1.234 . S
C178 O201 1.283 . S
C179 O191 1.281 . S
C179 O192 1.236 . S
C180 O202 1.240 . S
C180 O203 1.264 . S
O181 Mn176 2.095 . S
O181 C190 1.250 . S
O182 Mn177 2.121 . S
O182 C190 1.258 . S
C183 N184 1.326 . S
C183 C187 1.460 . S
C183 H189 0.929 . S
N184 Mn177 2.257 1_556 S
N184 C183 1.326 . S
N184 C188 1.362 . S
C185 C186 1.258 . S
C185 C188 1.431 . S
C185 C205 1.449 . S
C186 C185 1.258 . S
C186 C187 1.477 . S
C186 H206 0.931 . S
C187 C183 1.460 . S
C187 C186 1.477 . S
C187 H207 0.930 . S
C188 N184 1.362 . S
C188 C185 1.431 . S
C188 C198 1.476 . S
H189 C183 0.929 . S
C190 O181 1.250 . S
C190 O182 1.258 . S
O191 Mn176 2.162 . S
O191 C179 1.281 . S
O192 Mn176 2.297 . S
O192 C179 1.236 . S
N193 Mn177 2.282 1_556 S
N193 C194 1.328 . S
N193 C198 1.318 . S
C194 N193 1.328 . S
C194 C195 1.457 . S
C194 H199 0.929 1_556 S
C195 C194 1.457 . S
C195 C196 1.291 . S
C195 H208 0.931 . S
C196 C195 1.291 . S
C196 C197 1.373 . S
C196 H209 0.929 . S
C197 C196 1.373 . S
C197 C198 1.396 . S
C197 C204 1.403 . S
C198 C188 1.476 . S
C198 N193 1.318 . S
C198 C197 1.396 . S
H199 C194 0.929 1_554 S
O200 Mn176 2.385 . S
O200 C178 1.234 . S
O201 Mn176 2.209 . S
O201 Mn177 2.215 . S
O201 C178 1.283 . S
O202 Mn176 2.094 . S
O202 C180 1.240 . S
O203 Mn177 2.117 . S
O203 C180 1.264 . S
C204 C197 1.403 . S
C204 C205 1.399 . S
C204 H210 0.929 . S
C205 C185 1.449 . S
C205 C204 1.399 . S
C205 H211 0.930 . S
H206 C186 0.931 . S
H207 C187 0.930 . S
H208 C195 0.931 . S
H209 C196 0.929 . S
H210 C204 0.929 . S
H211 C205 0.930 . S
Mn212 O217 2.095 . S
Mn212 O227 2.162 . S
Mn212 O228 2.297 . S
Mn212 O236 2.385 . S
Mn212 O237 2.209 . S
Mn212 O238 2.094 . S
Mn213 O218 2.121 . S
Mn213 N220 2.257 . S
Mn213 N229 2.282 . S
Mn213 O237 2.215 . S
Mn213 O239 2.117 . S
C214 O236 1.234 . S
C214 O237 1.283 . S
C215 O227 1.281 . S
C215 O228 1.236 . S
C216 O238 1.240 . S
C216 O239 1.264 . S
O217 Mn212 2.095 . S
O217 C226 1.250 . S
O218 Mn213 2.121 . S
O218 C226 1.258 . S
C219 N220 1.326 . S
C219 C223 1.460 . S
C219 H225 0.929 . S
N220 Mn213 2.257 . S
N220 C219 1.326 . S
N220 C224 1.362 . S
C221 C222 1.258 . S
C221 C224 1.431 . S
C221 C241 1.449 . S
C222 C221 1.258 . S
C222 C223 1.477 . S
C222 H242 0.931 . S
C223 C219 1.460 . S
C223 C222 1.477 . S
C223 H243 0.930 . S
C224 N220 1.362 . S
C224 C221 1.431 . S
C224 C234 1.476 . S
H225 C219 0.929 . S
C226 O217 1.250 . S
C226 O218 1.258 . S
O227 Mn212 2.162 . S
O227 C215 1.281 . S
O228 Mn212 2.297 . S
O228 C215 1.236 . S
N229 Mn213 2.282 . S
N229 C230 1.328 . S
N229 C234 1.318 . S
C230 N229 1.328 . S
C230 C231 1.457 . S
C230 H235 0.929 . S
C231 C230 1.457 . S
C231 C232 1.291 . S
C231 H244 0.931 . S
C232 C231 1.291 . S
C232 C233 1.373 . S
C232 H245 0.929 . S
C233 C232 1.373 . S
C233 C234 1.396 . S
C233 C240 1.403 . S
C234 C224 1.476 . S
C234 N229 1.318 . S
C234 C233 1.396 . S
H235 C230 0.929 . S
O236 Mn212 2.385 . S
O236 C214 1.234 . S
O237 Mn212 2.209 . S
O237 Mn213 2.215 . S
O237 C214 1.283 . S
O238 Mn212 2.094 . S
O238 C216 1.240 . S
O239 Mn213 2.117 . S
O239 C216 1.264 . S
C240 C233 1.403 . S
C240 C241 1.399 . S
C240 H246 0.929 . S
C241 C221 1.449 . S
C241 C240 1.399 . S
C241 H247 0.930 . S
H242 C222 0.931 . S
H243 C223 0.930 . S
H244 C231 0.931 . S
H245 C232 0.929 . S
H246 C240 0.929 . S
H247 C241 0.930 . S
Mn248 O253 2.095 1_554 S
Mn248 O263 2.162 . S
Mn248 O264 2.297 1_554 S
Mn248 O272 2.385 . S
Mn248 O273 2.209 1_554 S
Mn248 O274 2.094 . S
Mn249 O254 2.121 . S
Mn249 N256 2.257 . S
Mn249 N265 2.282 1_556 S
Mn249 O273 2.215 . S
Mn249 O275 2.117 1_556 S
C250 O272 1.252 . S
C250 O273 1.268 1_554 S
C251 O263 1.311 . S
C251 O264 1.205 1_554 S
C252 O274 1.240 . S
C252 O275 1.264 . S
O253 Mn248 2.095 1_556 S
O253 C262 1.250 . S
O254 Mn249 2.121 . S
O254 C262 1.258 . S
C255 N256 1.326 . S
C255 C259 1.460 . S
C255 H261 0.929 . S
N256 Mn249 2.257 . S
N256 C255 1.326 . S
N256 C260 1.362 . S
C257 C258 1.258 . S
C257 C260 1.431 . S
C257 C277 1.449 . S
C258 C257 1.258 . S
C258 C259 1.477 . S
C258 H278 0.931 . S
C259 C255 1.460 . S
C259 C258 1.477 . S
C259 H279 0.930 . S
C260 N256 1.362 . S
C260 C257 1.431 . S
C260 C270 1.476 . S
H261 C255 0.929 . S
C262 O253 1.250 . S
C262 O254 1.258 . S
O263 Mn248 2.162 . S
O263 C251 1.311 . S
O264 Mn248 2.297 1_556 S
O264 C251 1.205 1_556 S
N265 Mn249 2.282 1_554 S
N265 C266 1.328 . S
N265 C270 1.318 1_554 S
C266 N265 1.328 . S
C266 C267 1.457 . S
C266 H271 0.929 . S
C267 C266 1.457 . S
C267 C268 1.291 . S
C267 H280 0.931 . S
C268 C267 1.291 . S
C268 C269 1.373 1_554 S
C268 H281 0.929 . S
C269 C268 1.373 1_556 S
C269 C270 1.396 . S
C269 C276 1.403 . S
C270 C260 1.476 . S
C270 N265 1.318 1_556 S
C270 C269 1.396 . S
H271 C266 0.929 . S
O272 Mn248 2.385 . S
O272 C250 1.252 . S
O273 Mn248 2.209 1_556 S
O273 Mn249 2.215 . S
O273 C250 1.268 1_556 S
O274 Mn248 2.094 . S
O274 C252 1.240 . S
O275 Mn249 2.117 1_554 S
O275 C252 1.264 . S
C276 C269 1.403 . S
C276 C277 1.399 . S
C276 H282 0.929 . S
C277 C257 1.449 . S
C277 C276 1.399 . S
C277 H283 0.930 . S
H278 C258 0.931 . S
H279 C259 0.930 . S
H280 C267 0.931 . S
H281 C268 0.929 . S
H282 C276 0.929 . S
H283 C277 0.930 . S
Mn284 O289 2.095 . S
Mn284 O299 2.162 . S
Mn284 O300 2.297 . S
Mn284 O308 2.385 . S
Mn284 O309 2.209 . S
Mn284 O310 2.094 . S
Mn285 O290 2.121 1_565 S
Mn285 N292 2.257 . S
Mn285 N301 2.282 . S
Mn285 O309 2.215 1_565 S
Mn285 O311 2.117 1_565 S
C286 O308 1.234 . S
C286 O309 1.283 . S
C287 O299 1.281 . S
C287 O300 1.236 . S
C288 O310 1.240 . S
C288 O311 1.264 . S
O289 Mn284 2.095 . S
O289 C298 1.250 . S
O290 Mn285 2.121 1_545 S
O290 C298 1.258 . S
C291 N292 1.326 . S
C291 C295 1.460 . S
C291 H297 0.929 . S
N292 Mn285 2.257 . S
N292 C291 1.326 . S
N292 C296 1.362 . S
C293 C294 1.258 . S
C293 C296 1.431 . S
C293 C313 1.449 . S
C294 C293 1.258 . S
C294 C295 1.477 . S
C294 H314 0.931 . S
C295 C291 1.460 . S
C295 C294 1.477 . S
C295 H315 0.930 . S
C296 N292 1.362 . S
C296 C293 1.431 . S
C296 C306 1.476 . S
H297 C291 0.929 . S
C298 O289 1.250 . S
C298 O290 1.258 . S
O299 Mn284 2.162 . S
O299 C287 1.281 . S
O300 Mn284 2.297 . S
O300 C287 1.236 . S
N301 Mn285 2.282 . S
N301 C302 1.328 . S
N301 C306 1.318 . S
C302 N301 1.328 . S
C302 C303 1.457 . S
C302 H307 0.929 . S
C303 C302 1.457 . S
C303 C304 1.291 . S
C303 H316 0.931 . S
C304 C303 1.291 . S
C304 C305 1.373 . S
C304 H317 0.929 . S
C305 C304 1.373 . S
C305 C306 1.396 . S
C305 C312 1.403 . S
C306 C296 1.476 . S
C306 N301 1.318 . S
C306 C305 1.396 . S
H307 C302 0.929 . S
O308 Mn284 2.385 . S
O308 C286 1.234 . S
O309 Mn284 2.209 . S
O309 Mn285 2.215 1_545 S
O309 C286 1.283 . S
O310 Mn284 2.094 . S
O310 C288 1.240 . S
O311 Mn285 2.117 1_545 S
O311 C288 1.264 . S
C312 C305 1.403 . S
C312 C313 1.399 . S
C312 H318 0.929 . S
C313 C293 1.449 . S
C313 C312 1.399 . S
C313 H319 0.930 . S
H314 C294 0.931 . S
H315 C295 0.930 . S
H316 C303 0.931 . S
H317 C304 0.929 . S
H318 C312 0.929 . S
H319 C313 0.930 . S
Mn320 O325 2.095 . S
Mn320 O335 2.162 . S
Mn320 O336 2.297 . S
Mn320 O344 2.385 . S
Mn320 O345 2.209 . S
Mn320 O346 2.094 . S
Mn321 O326 2.121 . S
Mn321 N328 2.257 . S
Mn321 N337 2.282 . S
Mn321 O345 2.215 . S
Mn321 O347 2.117 . S
C322 O344 1.234 . S
C322 O345 1.283 . S
C323 O335 1.281 . S
C323 O336 1.236 . S
C324 O346 1.240 . S
C324 O347 1.264 . S
O325 Mn320 2.095 . S
O325 C334 1.250 . S
O326 Mn321 2.121 . S
O326 C334 1.258 . S
C327 N328 1.326 . S
C327 C331 1.460 . S
C327 H333 0.929 . S
N328 Mn321 2.257 . S
N328 C327 1.326 . S
N328 C332 1.362 . S
C329 C330 1.258 . S
C329 C332 1.431 . S
C329 C349 1.449 . S
C330 C329 1.258 . S
C330 C331 1.477 . S
C330 H350 0.931 . S
C331 C327 1.460 . S
C331 C330 1.477 . S
C331 H351 0.930 . S
C332 N328 1.362 . S
C332 C329 1.431 . S
C332 C342 1.476 . S
H333 C327 0.929 . S
C334 O325 1.250 . S
C334 O326 1.258 . S
O335 Mn320 2.162 . S
O335 C323 1.281 . S
O336 Mn320 2.297 . S
O336 C323 1.236 . S
N337 Mn321 2.282 . S
N337 C338 1.328 . S
N337 C342 1.318 . S
C338 N337 1.328 . S
C338 C339 1.457 . S
C338 H343 0.929 . S
C339 C338 1.457 . S
C339 C340 1.291 . S
C339 H352 0.931 . S
C340 C339 1.291 . S
C340 C341 1.373 . S
C340 H353 0.929 . S
C341 C340 1.373 . S
C341 C342 1.396 . S
C341 C348 1.403 . S
C342 C332 1.476 . S
C342 N337 1.318 . S
C342 C341 1.396 . S
H343 C338 0.929 . S
O344 Mn320 2.385 . S
O344 C322 1.234 . S
O345 Mn320 2.209 . S
O345 Mn321 2.215 . S
O345 C322 1.283 . S
O346 Mn320 2.094 . S
O346 C324 1.240 . S
O347 Mn321 2.117 . S
O347 C324 1.264 . S
C348 C341 1.403 . S
C348 C349 1.399 . S
C348 H354 0.929 . S
C349 C329 1.449 . S
C349 C348 1.399 . S
C349 H355 0.930 . S
H350 C330 0.931 . S
H351 C331 0.930 . S
H352 C339 0.931 . S
H353 C340 0.929 . S
H354 C348 0.929 . S
H355 C349 0.930 . S
Mn356 O361 2.095 . S
Mn356 O371 2.162 . S
Mn356 O372 2.297 . S
Mn356 O380 2.385 . S
Mn356 O381 2.209 . S
Mn356 O382 2.094 . S
Mn357 O362 2.121 . S
Mn357 N364 2.257 . S
Mn357 N373 2.282 . S
Mn357 O381 2.215 . S
Mn357 O383 2.117 . S
C358 O380 1.234 . S
C358 O381 1.283 . S
C359 O371 1.281 . S
C359 O372 1.236 . S
C360 O382 1.240 . S
C360 O383 1.264 . S
O361 Mn356 2.095 . S
O361 C370 1.250 . S
O362 Mn357 2.121 . S
O362 C370 1.258 . S
C363 N364 1.326 . S
C363 C367 1.460 . S
C363 H369 0.929 . S
N364 Mn357 2.257 . S
N364 C363 1.326 . S
N364 C368 1.362 . S
C365 C366 1.258 . S
C365 C368 1.431 . S
C365 C385 1.449 . S
C366 C365 1.258 . S
C366 C367 1.477 . S
C366 H386 0.931 . S
C367 C363 1.460 . S
C367 C366 1.477 . S
C367 H387 0.930 . S
C368 N364 1.362 . S
C368 C365 1.431 . S
C368 C378 1.476 . S
H369 C363 0.929 . S
C370 O361 1.250 . S
C370 O362 1.258 . S
O371 Mn356 2.162 . S
O371 C359 1.281 . S
O372 Mn356 2.297 . S
O372 C359 1.236 . S
N373 Mn357 2.282 . S
N373 C374 1.328 . S
N373 C378 1.318 . S
C374 N373 1.328 . S
C374 C375 1.457 . S
C374 H379 0.929 . S
C375 C374 1.457 . S
C375 C376 1.291 . S
C375 H388 0.931 . S
C376 C375 1.291 . S
C376 C377 1.373 . S
C376 H389 0.929 . S
C377 C376 1.373 . S
C377 C378 1.396 . S
C377 C384 1.403 . S
C378 C368 1.476 . S
C378 N373 1.318 . S
C378 C377 1.396 . S
H379 C374 0.929 . S
O380 Mn356 2.385 . S
O380 C358 1.234 . S
O381 Mn356 2.209 . S
O381 Mn357 2.215 . S
O381 C358 1.283 . S
O382 Mn356 2.094 . S
O382 C360 1.240 . S
O383 Mn357 2.117 . S
O383 C360 1.264 . S
C384 C377 1.403 . S
C384 C385 1.399 . S
C384 H390 0.929 . S
C385 C365 1.449 . S
C385 C384 1.399 . S
C385 H391 0.930 . S
H386 C366 0.931 . S
H387 C367 0.930 . S
H388 C375 0.931 . S
H389 C376 0.929 . S
H390 C384 0.929 . S
H391 C385 0.930 . S
Mn392 O397 2.095 . S
Mn392 O407 2.162 . S
Mn392 O408 2.297 . S
Mn392 O416 2.385 . S
Mn392 O417 2.209 . S
Mn392 O418 2.094 . S
Mn393 O398 2.121 . S
Mn393 N400 2.257 . S
Mn393 N409 2.282 . S
Mn393 O417 2.215 . S
Mn393 O419 2.117 . S
C394 O416 1.234 . S
C394 O417 1.283 . S
C395 O407 1.281 . S
C395 O408 1.236 . S
C396 O418 1.240 . S
C396 O419 1.264 . S
O397 Mn392 2.095 . S
O397 C406 1.250 . S
O398 Mn393 2.121 . S
O398 C406 1.258 . S
C399 N400 1.326 . S
C399 C403 1.460 . S
C399 H405 0.929 . S
N400 Mn393 2.257 . S
N400 C399 1.326 . S
N400 C404 1.362 . S
C401 C402 1.258 . S
C401 C404 1.431 . S
C401 C421 1.449 . S
C402 C401 1.258 . S
C402 C403 1.477 . S
C402 H422 0.931 . S
C403 C399 1.460 . S
C403 C402 1.477 . S
C403 H423 0.930 . S
C404 N400 1.362 . S
C404 C401 1.431 . S
C404 C414 1.476 . S
H405 C399 0.929 . S
C406 O397 1.250 . S
C406 O398 1.258 . S
O407 Mn392 2.162 . S
O407 C395 1.281 . S
O408 Mn392 2.297 . S
O408 C395 1.236 . S
N409 Mn393 2.282 . S
N409 C410 1.328 . S
N409 C414 1.318 . S
C410 N409 1.328 . S
C410 C411 1.457 . S
C410 H415 0.929 . S
C411 C410 1.457 . S
C411 C412 1.291 . S
C411 H424 0.931 . S
C412 C411 1.291 . S
C412 C413 1.373 . S
C412 H425 0.929 . S
C413 C412 1.373 . S
C413 C414 1.396 . S
C413 C420 1.403 . S
C414 C404 1.476 . S
C414 N409 1.318 . S
C414 C413 1.396 . S
H415 C410 0.929 . S
O416 Mn392 2.385 . S
O416 C394 1.234 . S
O417 Mn392 2.209 . S
O417 Mn393 2.215 . S
O417 C394 1.283 . S
O418 Mn392 2.094 . S
O418 C396 1.240 . S
O419 Mn393 2.117 . S
O419 C396 1.264 . S
C420 C413 1.403 . S
C420 C421 1.399 . S
C420 H426 0.929 . S
C421 C401 1.449 . S
C421 C420 1.399 . S
C421 H427 0.930 . S
H422 C402 0.931 . S
H423 C403 0.930 . S
H424 C411 0.931 . S
H425 C412 0.929 . S
H426 C420 0.929 . S
H427 C421 0.930 . S
Mn428 O433 2.095 . S
Mn428 O443 2.162 . S
Mn428 O444 2.297 . S
Mn428 O452 2.385 1_565 S
Mn428 O453 2.209 1_565 S
Mn428 O454 2.094 . S
Mn429 O434 2.121 . S
Mn429 N436 2.257 . S
Mn429 N445 2.282 . S
Mn429 O453 2.215 . S
Mn429 O455 2.117 . S
C430 O452 1.234 . S
C430 O453 1.283 . S
C431 O443 1.281 . S
C431 O444 1.236 . S
C432 O454 1.257 . S
C432 O455 1.246 1_565 S
O433 Mn428 2.095 . S
O433 C442 1.250 1_565 S
O434 Mn429 2.121 . S
O434 C442 1.258 . S
C435 N436 1.326 . S
C435 C439 1.460 . S
C435 H441 0.929 . S
N436 Mn429 2.257 . S
N436 C435 1.326 . S
N436 C440 1.362 . S
C437 C438 1.258 . S
C437 C440 1.431 . S
C437 C457 1.449 . S
C438 C437 1.258 . S
C438 C439 1.477 . S
C438 H458 0.931 . S
C439 C435 1.460 . S
C439 C438 1.477 . S
C439 H459 0.930 . S
C440 N436 1.362 . S
C440 C437 1.431 . S
C440 C450 1.476 . S
H441 C435 0.929 . S
C442 O433 1.250 1_545 S
C442 O434 1.258 . S
O443 Mn428 2.162 . S
O443 C431 1.281 . S
O444 Mn428 2.297 . S
O444 C431 1.236 . S
N445 Mn429 2.282 . S
N445 C446 1.328 . S
N445 C450 1.318 . S
C446 N445 1.328 . S
C446 C447 1.457 . S
C446 H451 0.929 . S
C447 C446 1.457 . S
C447 C448 1.291 . S
C447 H460 0.931 . S
C448 C447 1.291 . S
C448 C449 1.373 . S
C448 H461 0.929 . S
C449 C448 1.373 . S
C449 C450 1.396 . S
C449 C456 1.403 . S
C450 C440 1.476 . S
C450 N445 1.318 . S
C450 C449 1.396 . S
H451 C446 0.929 . S
O452 Mn428 2.385 1_545 S
O452 C430 1.234 . S
O453 Mn428 2.209 1_545 S
O453 Mn429 2.215 . S
O453 C430 1.283 . S
O454 Mn428 2.094 . S
O454 C432 1.257 . S
O455 Mn429 2.117 . S
O455 C432 1.246 1_545 S
C456 C449 1.403 . S
C456 C457 1.399 . S
C456 H462 0.929 . S
C457 C437 1.449 . S
C457 C456 1.399 . S
C457 H463 0.930 . S
H458 C438 0.931 . S
H459 C439 0.930 . S
H460 C447 0.931 . S
H461 C448 0.929 . S
H462 C456 0.929 . S
H463 C457 0.930 . S
Mn464 O469 2.095 . S
Mn464 O479 2.162 . S
Mn464 O480 2.297 . S
Mn464 O488 2.385 . S
Mn464 O489 2.209 1_455 S
Mn464 O490 2.094 . S
Mn465 O470 2.121 . S
Mn465 N472 2.257 . S
Mn465 N481 2.282 . S
Mn465 O489 2.215 . S
Mn465 O491 2.117 1_655 S
C466 O488 1.234 1_655 S
C466 O489 1.283 . S
C467 O479 1.281 . S
C467 O480 1.236 . S
C468 O490 1.240 . S
C468 O491 1.264 . S
O469 Mn464 2.095 . S
O469 C478 1.250 . S
O470 Mn465 2.121 . S
O470 C478 1.258 1_655 S
C471 N472 1.326 . S
C471 C475 1.460 . S
C471 H477 0.929 . S
N472 Mn465 2.257 . S
N472 C471 1.326 . S
N472 C476 1.362 . S
C473 C474 1.258 . S
C473 C476 1.431 . S
C473 C493 1.449 . S
C474 C473 1.258 . S
C474 C475 1.477 . S
C474 H494 0.931 . S
C475 C471 1.460 . S
C475 C474 1.477 . S
C475 H495 0.930 . S
C476 N472 1.362 . S
C476 C473 1.431 . S
C476 C486 1.476 . S
H477 C471 0.929 . S
C478 O469 1.250 . S
C478 O470 1.258 1_455 S
O479 Mn464 2.162 . S
O479 C467 1.281 . S
O480 Mn464 2.297 . S
O480 C467 1.236 . S
N481 Mn465 2.282 . S
N481 C482 1.328 . S
N481 C486 1.318 . S
C482 N481 1.328 . S
C482 C483 1.457 . S
C482 H487 0.929 . S
C483 C482 1.457 . S
C483 C484 1.291 . S
C483 H496 0.931 . S
C484 C483 1.291 . S
C484 C485 1.373 . S
C484 H497 0.929 . S
C485 C484 1.373 . S
C485 C486 1.396 . S
C485 C492 1.403 . S
C486 C476 1.476 . S
C486 N481 1.318 . S
C486 C485 1.396 . S
H487 C482 0.929 . S
O488 Mn464 2.385 . S
O488 C466 1.234 1_455 S
O489 Mn464 2.209 1_655 S
O489 Mn465 2.215 . S
O489 C466 1.283 . S
O490 Mn464 2.094 . S
O490 C468 1.240 . S
O491 Mn465 2.117 1_455 S
O491 C468 1.264 . S
C492 C485 1.403 . S
C492 C493 1.399 . S
C492 H498 0.929 . S
C493 C473 1.449 . S
C493 C492 1.399 . S
C493 H499 0.930 . S
H494 C474 0.931 . S
H495 C475 0.930 . S
H496 C483 0.931 . S
H497 C484 0.929 . S
H498 C492 0.929 . S
H499 C493 0.930 . S
Mn500 O505 2.095 . S
Mn500 O515 2.162 . S
Mn500 O516 2.297 . S
Mn500 O524 2.385 . S
Mn500 O525 2.209 . S
Mn500 O526 2.094 . S
Mn501 O506 2.121 . S
Mn501 N508 2.257 . S
Mn501 N517 2.282 . S
Mn501 O525 2.215 . S
Mn501 O527 2.117 . S
C502 O524 1.234 . S
C502 O525 1.283 . S
C503 O515 1.281 . S
C503 O516 1.236 . S
C504 O526 1.240 . S
C504 O527 1.264 . S
O505 Mn500 2.095 . S
O505 C514 1.250 . S
O506 Mn501 2.121 . S
O506 C514 1.258 . S
C507 N508 1.326 . S
C507 C511 1.460 . S
C507 H513 0.929 . S
N508 Mn501 2.257 . S
N508 C507 1.326 . S
N508 C512 1.362 . S
C509 C510 1.258 . S
C509 C512 1.431 . S
C509 C529 1.449 . S
C510 C509 1.258 . S
C510 C511 1.477 . S
C510 H530 0.931 . S
C511 C507 1.460 . S
C511 C510 1.477 . S
C511 H531 0.930 . S
C512 N508 1.362 . S
C512 C509 1.431 . S
C512 C522 1.476 . S
H513 C507 0.929 . S
C514 O505 1.250 . S
C514 O506 1.258 . S
O515 Mn500 2.162 . S
O515 C503 1.281 . S
O516 Mn500 2.297 . S
O516 C503 1.236 . S
N517 Mn501 2.282 . S
N517 C518 1.328 . S
N517 C522 1.318 . S
C518 N517 1.328 . S
C518 C519 1.457 . S
C518 H523 0.929 . S
C519 C518 1.457 . S
C519 C520 1.291 . S
C519 H532 0.931 . S
C520 C519 1.291 . S
C520 C521 1.373 . S
C520 H533 0.929 . S
C521 C520 1.373 . S
C521 C522 1.396 . S
C521 C528 1.403 . S
C522 C512 1.476 . S
C522 N517 1.318 . S
C522 C521 1.396 . S
H523 C518 0.929 . S
O524 Mn500 2.385 . S
O524 C502 1.234 . S
O525 Mn500 2.209 . S
O525 Mn501 2.215 . S
O525 C502 1.283 . S
O526 Mn500 2.094 . S
O526 C504 1.240 . S
O527 Mn501 2.117 . S
O527 C504 1.264 . S
C528 C521 1.403 . S
C528 C529 1.399 . S
C528 H534 0.929 . S
C529 C509 1.449 . S
C529 C528 1.399 . S
C529 H535 0.930 . S
H530 C510 0.931 . S
H531 C511 0.930 . S
H532 C519 0.931 . S
H533 C520 0.929 . S
H534 C528 0.929 . S
H535 C529 0.930 . S
Mn536 O541 2.097 1_455 S
Mn536 O551 2.162 . S
Mn536 O552 2.297 . S
Mn536 O560 2.385 . S
Mn536 O561 2.214 . S
Mn536 O562 2.094 . S
Mn537 O542 2.121 . S
Mn537 N544 2.257 . S
Mn537 N553 2.282 1_655 S
Mn537 O561 2.213 1_655 S
Mn537 O563 2.117 1_655 S
C538 O560 1.234 . S
C538 O561 1.291 . S
C539 O551 1.281 . S
C539 O552 1.236 . S
C540 O562 1.240 . S
C540 O563 1.264 . S
O541 Mn536 2.097 1_655 S
O541 C550 1.248 . S
O542 Mn537 2.121 . S
O542 C550 1.258 . S
C543 N544 1.326 . S
C543 C547 1.460 . S
C543 H549 0.929 . S
N544 Mn537 2.257 . S
N544 C543 1.326 . S
N544 C548 1.362 . S
C545 C546 1.258 . S
C545 C548 1.431 . S
C545 C565 1.449 . S
C546 C545 1.258 . S
C546 C547 1.477 . S
C546 H566 0.931 . S
C547 C543 1.460 . S
C547 C546 1.477 . S
C547 H567 0.930 . S
C548 N544 1.362 . S
C548 C545 1.431 . S
C548 C558 1.476 . S
H549 C543 0.929 . S
C550 O541 1.248 . S
C550 O542 1.258 . S
O551 Mn536 2.162 . S
O551 C539 1.281 . S
O552 Mn536 2.297 . S
O552 C539 1.236 . S
N553 Mn537 2.282 1_455 S
N553 C554 1.328 . S
N553 C558 1.318 1_455 S
C554 N553 1.328 . S
C554 C555 1.457 . S
C554 H559 0.929 . S
C555 C554 1.457 . S
C555 C556 1.291 . S
C555 H568 0.931 . S
C556 C555 1.291 . S
C556 C557 1.373 1_455 S
C556 H569 0.929 . S
C557 C556 1.373 1_655 S
C557 C558 1.396 . S
C557 C564 1.403 . S
C558 C548 1.476 . S
C558 N553 1.318 1_655 S
C558 C557 1.396 . S
H559 C554 0.929 . S
O560 Mn536 2.385 . S
O560 C538 1.234 . S
O561 Mn536 2.214 . S
O561 Mn537 2.213 1_455 S
O561 C538 1.291 . S
O562 Mn536 2.094 . S
O562 C540 1.240 . S
O563 Mn537 2.117 1_455 S
O563 C540 1.264 . S
C564 C557 1.403 . S
C564 C565 1.399 . S
C564 H570 0.929 . S
C565 C545 1.449 . S
C565 C564 1.399 . S
C565 H571 0.930 . S
H566 C546 0.931 . S
H567 C547 0.930 . S
H568 C555 0.931 . S
H569 C556 0.929 . S
H570 C564 0.929 . S
H571 C565 0.930 . S
Mn572 O577 2.095 . S
Mn572 O587 2.162 . S
Mn572 O588 2.297 . S
Mn572 O596 2.385 . S
Mn572 O597 2.209 . S
Mn572 O598 2.094 . S
Mn573 O578 2.121 . S
Mn573 N580 2.257 . S
Mn573 N589 2.282 . S
Mn573 O597 2.215 . S
Mn573 O599 2.117 . S
C574 O596 1.234 . S
C574 O597 1.283 . S
C575 O587 1.281 . S
C575 O588 1.236 . S
C576 O598 1.240 . S
C576 O599 1.264 . S
O577 Mn572 2.095 . S
O577 C586 1.250 . S
O578 Mn573 2.121 . S
O578 C586 1.258 . S
C579 N580 1.326 . S
C579 C583 1.460 . S
C579 H585 0.929 . S
N580 Mn573 2.257 . S
N580 C579 1.326 . S
N580 C584 1.362 . S
C581 C582 1.258 . S
C581 C584 1.431 . S
C581 C601 1.449 . S
C582 C581 1.258 . S
C582 C583 1.477 . S
C582 H602 0.931 . S
C583 C579 1.460 . S
C583 C582 1.477 . S
C583 H603 0.930 . S
C584 N580 1.362 . S
C584 C581 1.431 . S
C584 C594 1.476 . S
H585 C579 0.929 . S
C586 O577 1.250 . S
C586 O578 1.258 . S
O587 Mn572 2.162 . S
O587 C575 1.281 . S
O588 Mn572 2.297 . S
O588 C575 1.236 . S
N589 Mn573 2.282 . S
N589 C590 1.328 . S
N589 C594 1.318 . S
C590 N589 1.328 . S
C590 C591 1.457 . S
C590 H595 0.929 . S
C591 C590 1.457 . S
C591 C592 1.291 . S
C591 H604 0.931 . S
C592 C591 1.291 . S
C592 C593 1.373 . S
C592 H605 0.929 . S
C593 C592 1.373 . S
C593 C594 1.396 . S
C593 C600 1.403 . S
C594 C584 1.476 . S
C594 N589 1.318 . S
C594 C593 1.396 . S
H595 C590 0.929 . S
O596 Mn572 2.385 . S
O596 C574 1.234 . S
O597 Mn572 2.209 . S
O597 Mn573 2.215 . S
O597 C574 1.283 . S
O598 Mn572 2.094 . S
O598 C576 1.240 . S
O599 Mn573 2.117 . S
O599 C576 1.264 . S
C600 C593 1.403 . S
C600 C601 1.399 . S
C600 H606 0.929 . S
C601 C581 1.449 . S
C601 C600 1.399 . S
C601 H607 0.930 . S
H602 C582 0.931 . S
H603 C583 0.930 . S
H604 C591 0.931 . S
H605 C592 0.929 . S
H606 C600 0.929 . S
H607 C601 0.930 . S
H608 C626 0.951 . S
H609 C628 0.951 . S
H610 C630 0.950 . S
H611 C631 0.950 . S
H612 C633 0.950 . S
H613 C636 0.950 . S
H614 C637 0.950 . S
H615 C639 0.950 . S
H616 C640 0.950 . S
H617 C641 0.951 . S
H618 C643 0.951 . S
H619 C645 0.950 . S
H620 C646 0.950 . S
H621 C648 0.950 . S
H622 C651 0.950 . S
H623 C652 0.950 . S
H624 C654 0.950 . S
H625 C655 0.950 . S
C626 H608 0.951 . S
C626 C627 1.366 . S
C626 C628 1.388 . S
C627 C626 1.366 . S
C627 C631 1.385 . S
C628 H609 0.951 . S
C628 C626 1.388 . S
C628 C629 1.366 . S
C629 C628 1.366 . S
C629 C630 1.414 . S
C629 C632 1.499 . S
C630 H610 0.950 . S
C630 C629 1.414 . S
C630 C631 1.374 . S
C631 H611 0.950 . S
C631 C627 1.385 . S
C631 C630 1.374 . S
C632 C629 1.499 . S
C632 C633 1.373 . S
C632 C634 1.389 . S
C633 H612 0.950 . S
C633 C632 1.373 . S
C633 C649 1.377 . S
C634 C632 1.389 . S
C634 C635 1.524 . S
C634 C648 1.377 . S
C635 C634 1.524 . S
C635 C636 1.397 . S
C635 C640 1.363 . S
C636 H613 0.950 . S
C636 C635 1.397 . S
C636 C637 1.334 . S
C637 H614 0.950 . S
C637 C636 1.334 . S
C637 C638 1.287 . S
C638 C637 1.287 . S
C638 C639 1.524 . S
C638 H657 0.913 . S
C639 H615 0.950 . S
C639 C638 1.524 . S
C639 C640 1.415 . S
C640 H616 0.950 . S
C640 C635 1.363 . S
C640 C639 1.415 . S
C641 H617 0.951 . S
C641 C642 1.366 1_554 S
C641 C643 1.388 1_554 S
C642 C641 1.366 1_556 S
C642 C646 1.385 . S
C643 H618 0.951 . S
C643 C641 1.388 1_556 S
C643 C644 1.366 . S
C644 C643 1.366 . S
C644 C645 1.414 . S
C644 C647 1.499 . S
C645 H619 0.950 . S
C645 C644 1.414 . S
C645 C646 1.374 . S
C646 H620 0.950 . S
C646 C642 1.385 . S
C646 C645 1.374 . S
C647 C644 1.499 . S
C647 C648 1.373 . S
C647 C649 1.389 . S
C648 H621 0.950 . S
C648 C634 1.377 . S
C648 C647 1.373 . S
C649 C633 1.377 . S
C649 C647 1.389 . S
C649 C650 1.524 . S
C650 C649 1.524 . S
C650 C651 1.397 . S
C650 C655 1.363 . S
C651 H622 0.950 . S
C651 C650 1.397 . S
C651 C652 1.334 . S
C652 H623 0.950 . S
C652 C651 1.334 . S
C652 C653 1.287 . S
C653 C652 1.287 . S
C653 C654 1.524 . S
C653 H656 0.999 . S
C654 H624 0.950 . S
C654 C653 1.524 . S
C654 C655 1.415 . S
C655 H625 0.950 . S
C655 C650 1.363 . S
C655 C654 1.415 . S
H656 C653 0.999 . S
H657 C638 0.913 . S
H658 C676 0.951 . S
H659 C678 0.951 . S
H660 C680 0.950 . S
H661 C681 0.950 . S
H662 C683 0.950 . S
H663 C686 0.950 . S
H664 C687 0.950 . S
H665 C689 0.950 . S
H666 C690 0.950 . S
H667 C691 0.951 . S
H668 C693 0.951 . S
H669 C695 0.950 . S
H670 C696 0.950 . S
H671 C698 0.950 . S
H672 C701 0.950 . S
H673 C702 0.950 . S
H674 C704 0.950 . S
H675 C705 0.950 . S
C676 H658 0.951 . S
C676 C677 1.366 . S
C676 C678 1.388 . S
C677 C676 1.366 . S
C677 C681 1.385 . S
C678 H659 0.951 . S
C678 C676 1.388 . S
C678 C679 1.366 . S
C679 C678 1.366 . S
C679 C680 1.414 . S
C679 C682 1.499 . S
C680 H660 0.950 . S
C680 C679 1.414 . S
C680 C681 1.374 . S
C681 H661 0.950 . S
C681 C677 1.385 . S
C681 C680 1.374 . S
C682 C679 1.499 . S
C682 C683 1.373 . S
C682 C684 1.389 . S
C683 H662 0.950 . S
C683 C682 1.373 . S
C683 C699 1.377 . S
C684 C682 1.389 . S
C684 C685 1.524 . S
C684 C698 1.377 . S
C685 C684 1.524 . S
C685 C686 1.397 . S
C685 C690 1.363 . S
C686 H663 0.950 . S
C686 C685 1.397 . S
C686 C687 1.334 . S
C687 H664 0.950 . S
C687 C686 1.334 . S
C687 C688 1.287 . S
C688 C687 1.287 . S
C688 C689 1.524 . S
C688 H707 0.913 . S
C689 H665 0.950 . S
C689 C688 1.524 . S
C689 C690 1.415 . S
C690 H666 0.950 . S
C690 C685 1.363 . S
C690 C689 1.415 . S
C691 H667 0.951 . S
C691 C692 1.366 . S
C691 C693 1.388 . S
C692 C691 1.366 . S
C692 C696 1.385 . S
C693 H668 0.951 . S
C693 C691 1.388 . S
C693 C694 1.366 . S
C694 C693 1.366 . S
C694 C695 1.414 . S
C694 C697 1.499 . S
C695 H669 0.950 . S
C695 C694 1.414 . S
C695 C696 1.374 . S
C696 H670 0.950 . S
C696 C692 1.385 . S
C696 C695 1.374 . S
C697 C694 1.499 . S
C697 C698 1.373 . S
C697 C699 1.389 . S
C698 H671 0.950 . S
C698 C684 1.377 . S
C698 C697 1.373 . S
C699 C683 1.377 . S
C699 C697 1.389 . S
C699 C700 1.524 . S
C700 C699 1.524 . S
C700 C701 1.397 . S
C700 C705 1.363 . S
C701 H672 0.950 . S
C701 C700 1.397 . S
C701 C702 1.334 . S
C702 H673 0.950 . S
C702 C701 1.334 . S
C702 C703 1.287 . S
C703 C702 1.287 . S
C703 C704 1.524 . S
C703 H706 0.999 . S
C704 H674 0.950 . S
C704 C703 1.524 . S
C704 C705 1.415 . S
C705 H675 0.950 . S
C705 C700 1.363 . S
C705 C704 1.415 . S
H706 C703 0.999 . S
H707 C688 0.913 . S
H708 C726 0.951 . S
H709 C728 0.951 . S
H710 C730 0.950 . S
H711 C731 0.950 . S
H712 C733 0.950 . S
H713 C736 0.950 . S
H714 C737 0.950 . S
H715 C739 0.950 . S
H716 C740 0.950 . S
H717 C741 0.951 . S
H718 C743 0.951 . S
H719 C745 0.950 . S
H720 C746 0.950 . S
H721 C748 0.950 . S
H722 C751 0.950 . S
H723 C752 0.950 . S
H724 C754 0.950 . S
H725 C755 0.950 . S
C726 H708 0.951 . S
C726 C727 1.366 . S
C726 C728 1.388 . S
C727 C726 1.366 . S
C727 C731 1.385 . S
C728 H709 0.951 . S
C728 C726 1.388 . S
C728 C729 1.366 . S
C729 C728 1.366 . S
C729 C730 1.414 . S
C729 C732 1.499 . S
C730 H710 0.950 . S
C730 C729 1.414 . S
C730 C731 1.374 . S
C731 H711 0.950 . S
C731 C727 1.385 . S
C731 C730 1.374 . S
C732 C729 1.499 . S
C732 C733 1.373 . S
C732 C734 1.389 . S
C733 H712 0.950 . S
C733 C732 1.373 . S
C733 C749 1.377 . S
C734 C732 1.389 . S
C734 C735 1.524 . S
C734 C748 1.377 . S
C735 C734 1.524 . S
C735 C736 1.397 . S
C735 C740 1.363 . S
C736 H713 0.950 . S
C736 C735 1.397 . S
C736 C737 1.334 . S
C737 H714 0.950 . S
C737 C736 1.334 . S
C737 C738 1.287 . S
C738 C737 1.287 . S
C738 C739 1.524 . S
C738 H757 0.913 . S
C739 H715 0.950 . S
C739 C738 1.524 . S
C739 C740 1.415 . S
C740 H716 0.950 . S
C740 C735 1.363 . S
C740 C739 1.415 . S
C741 H717 0.951 . S
C741 C742 1.366 . S
C741 C743 1.388 . S
C742 C741 1.366 . S
C742 C746 1.385 . S
C743 H718 0.951 . S
C743 C741 1.388 . S
C743 C744 1.366 . S
C744 C743 1.366 . S
C744 C745 1.414 . S
C744 C747 1.499 . S
C745 H719 0.950 . S
C745 C744 1.414 . S
C745 C746 1.374 . S
C746 H720 0.950 . S
C746 C742 1.385 . S
C746 C745 1.374 . S
C747 C744 1.499 . S
C747 C748 1.373 . S
C747 C749 1.389 . S
C748 H721 0.950 . S
C748 C734 1.377 . S
C748 C747 1.373 . S
C749 C733 1.377 . S
C749 C747 1.389 . S
C749 C750 1.524 . S
C750 C749 1.524 . S
C750 C751 1.397 . S
C750 C755 1.363 . S
C751 H722 0.950 . S
C751 C750 1.397 . S
C751 C752 1.334 . S
C752 H723 0.950 . S
C752 C751 1.334 . S
C752 C753 1.287 . S
C753 C752 1.287 . S
C753 C754 1.524 . S
C753 H756 0.999 . S
C754 H724 0.950 . S
C754 C753 1.524 . S
C754 C755 1.415 . S
C755 H725 0.950 . S
C755 C750 1.363 . S
C755 C754 1.415 . S
H756 C753 0.999 . S
H757 C738 0.913 . S
H758 C776 0.951 . S
H759 C778 0.951 . S
H760 C780 0.950 1_645 S
H761 C781 0.950 . S
H762 C783 0.950 . S
H763 C786 0.950 . S
H764 C787 0.950 . S
H765 C789 0.950 . S
H766 C790 0.950 . S
H767 C791 0.951 . S
H768 C793 0.951 . S
H769 C795 0.950 . S
H770 C796 0.950 . S
H771 C798 0.950 . S
H772 C801 0.950 . S
H773 C802 0.950 . S
H774 C804 0.950 . S
H775 C805 0.950 . S
C776 H758 0.951 . S
C776 C777 1.366 . S
C776 C778 1.388 . S
C777 C776 1.366 . S
C777 C781 1.385 . S
C778 H759 0.951 . S
C778 C776 1.388 . S
C778 C779 1.366 . S
C779 C778 1.366 . S
C779 C780 1.414 . S
C779 C782 1.498 1_565 S
C780 H760 0.950 1_465 S
C780 C779 1.414 . S
C780 C781 1.374 . S
C781 H761 0.950 . S
C781 C777 1.385 . S
C781 C780 1.374 . S
C782 C779 1.498 1_545 S
C782 C783 1.373 1_445 S
C782 C784 1.391 . S
C783 H762 0.950 . S
C783 C782 1.373 1_665 S
C783 C799 1.377 . S
C784 C782 1.391 . S
C784 C785 1.524 . S
C784 C798 1.377 . S
C785 C784 1.524 . S
C785 C786 1.397 . S
C785 C790 1.363 . S
C786 H763 0.950 . S
C786 C785 1.397 . S
C786 C787 1.334 . S
C787 H764 0.950 . S
C787 C786 1.334 . S
C787 C788 1.287 . S
C788 C787 1.287 . S
C788 C789 1.524 . S
C788 H807 0.913 . S
C789 H765 0.950 . S
C789 C788 1.524 . S
C789 C790 1.415 . S
C790 H766 0.950 . S
C790 C785 1.363 . S
C790 C789 1.415 . S
C791 H767 0.951 . S
C791 C792 1.366 . S
C791 C793 1.388 . S
C792 C791 1.366 . S
C792 C796 1.385 . S
C793 H768 0.951 . S
C793 C791 1.388 . S
C793 C794 1.366 . S
C794 C793 1.366 . S
C794 C795 1.414 . S
C794 C797 1.499 . S
C795 H769 0.950 . S
C795 C794 1.414 . S
C795 C796 1.374 . S
C796 H770 0.950 . S
C796 C792 1.385 . S
C796 C795 1.374 . S
C797 C794 1.499 . S
C797 C798 1.373 1_655 S
C797 C799 1.389 1_545 S
C798 H771 0.950 . S
C798 C784 1.377 . S
C798 C797 1.373 1_455 S
C799 C783 1.377 . S
C799 C797 1.389 1_565 S
C799 C800 1.524 . S
C800 C799 1.524 . S
C800 C801 1.397 . S
C800 C805 1.363 . S
C801 H772 0.950 . S
C801 C800 1.397 . S
C801 C802 1.334 . S
C802 H773 0.950 . S
C802 C801 1.334 . S
C802 C803 1.287 . S
C803 C802 1.287 . S
C803 C804 1.524 . S
C803 H806 0.999 . S
C804 H774 0.950 . S
C804 C803 1.524 . S
C804 C805 1.415 . S
C805 H775 0.950 . S
C805 C800 1.363 . S
C805 C804 1.415 . S
H806 C803 0.999 . S
H807 C788 0.913 . S
H808 C826 0.951 . S
H809 C828 0.951 . S
H810 C830 0.950 . S
H811 C831 0.950 . S
H812 C833 0.950 . S
H813 C836 0.950 . S
H814 C837 0.950 . S
H815 C839 0.950 . S
H816 C840 0.950 . S
H817 C841 0.951 . S
H818 C843 0.951 . S
H819 C845 0.950 . S
H820 C846 0.950 . S
H821 C848 0.950 . S
H822 C851 0.950 . S
H823 C852 0.950 . S
H824 C854 0.950 . S
H825 C855 0.950 . S
C826 H808 0.951 . S
C826 C827 1.366 . S
C826 C828 1.388 . S
C827 C826 1.366 . S
C827 C831 1.385 . S
C828 H809 0.951 . S
C828 C826 1.388 . S
C828 C829 1.366 . S
C829 C828 1.366 . S
C829 C830 1.414 . S
C829 C832 1.499 . S
C830 H810 0.950 . S
C830 C829 1.414 . S
C830 C831 1.374 . S
C831 H811 0.950 . S
C831 C827 1.385 . S
C831 C830 1.374 . S
C832 C829 1.499 . S
C832 C833 1.373 . S
C832 C834 1.389 . S
C833 H812 0.950 . S
C833 C832 1.373 . S
C833 C849 1.377 . S
C834 C832 1.389 . S
C834 C835 1.524 . S
C834 C848 1.377 . S
C835 C834 1.524 . S
C835 C836 1.397 . S
C835 C840 1.363 . S
C836 H813 0.950 . S
C836 C835 1.397 . S
C836 C837 1.334 . S
C837 H814 0.950 . S
C837 C836 1.334 . S
C837 C838 1.287 . S
C838 C837 1.287 . S
C838 C839 1.524 . S
C838 H857 0.913 . S
C839 H815 0.950 . S
C839 C838 1.524 . S
C839 C840 1.415 . S
C840 H816 0.950 . S
C840 C835 1.363 . S
C840 C839 1.415 . S
C841 H817 0.951 . S
C841 C842 1.366 . S
C841 C843 1.388 . S
C842 C841 1.366 . S
C842 C846 1.385 . S
C843 H818 0.951 . S
C843 C841 1.388 . S
C843 C844 1.366 . S
C844 C843 1.366 . S
C844 C845 1.414 . S
C844 C847 1.499 . S
C845 H819 0.950 . S
C845 C844 1.414 . S
C845 C846 1.374 . S
C846 H820 0.950 . S
C846 C842 1.385 . S
C846 C845 1.374 . S
C847 C844 1.499 . S
C847 C848 1.373 . S
C847 C849 1.389 . S
C848 H821 0.950 . S
C848 C834 1.377 . S
C848 C847 1.373 . S
C849 C833 1.377 . S
C849 C847 1.389 . S
C849 C850 1.524 . S
C850 C849 1.524 . S
C850 C851 1.397 . S
C850 C855 1.363 . S
C851 H822 0.950 . S
C851 C850 1.397 . S
C851 C852 1.334 . S
C852 H823 0.950 . S
C852 C851 1.334 . S
C852 C853 1.287 . S
C853 C852 1.287 . S
C853 C854 1.524 . S
C853 H856 0.999 . S
C854 H824 0.950 . S
C854 C853 1.524 . S
C854 C855 1.415 . S
C855 H825 0.950 . S
C855 C850 1.363 . S
C855 C854 1.415 . S
H856 C853 0.999 . S
H857 C838 0.913 . S
H858 C876 0.951 . S
H859 C878 0.951 . S
H860 C880 0.950 . S
H861 C881 0.950 . S
H862 C883 0.950 . S
H863 C886 0.950 . S
H864 C887 0.950 . S
H865 C889 0.950 . S
H866 C890 0.950 . S
H867 C891 0.951 . S
H868 C893 0.951 . S
H869 C895 0.950 . S
H870 C896 0.950 . S
H871 C898 0.950 . S
H872 C901 0.950 . S
H873 C902 0.950 . S
H874 C904 0.950 . S
H875 C905 0.950 . S
C876 H858 0.951 . S
C876 C877 1.366 . S
C876 C878 1.388 . S
C877 C876 1.366 . S
C877 C881 1.385 . S
C878 H859 0.951 . S
C878 C876 1.388 . S
C878 C879 1.366 . S
C879 C878 1.366 . S
C879 C880 1.414 . S
C879 C882 1.499 . S
C880 H860 0.950 . S
C880 C879 1.414 . S
C880 C881 1.374 . S
C881 H861 0.950 . S
C881 C877 1.385 . S
C881 C880 1.374 . S
C882 C879 1.499 . S
C882 C883 1.373 . S
C882 C884 1.389 . S
C883 H862 0.950 . S
C883 C882 1.373 . S
C883 C899 1.377 . S
C884 C882 1.389 . S
C884 C885 1.524 . S
C884 C898 1.377 . S
C885 C884 1.524 . S
C885 C886 1.397 . S
C885 C890 1.363 . S
C886 H863 0.950 . S
C886 C885 1.397 . S
C886 C887 1.334 . S
C887 H864 0.950 . S
C887 C886 1.334 . S
C887 C888 1.287 . S
C888 C887 1.287 . S
C888 C889 1.524 . S
C888 H907 0.913 . S
C889 H865 0.950 . S
C889 C888 1.524 . S
C889 C890 1.415 . S
C890 H866 0.950 . S
C890 C885 1.363 . S
C890 C889 1.415 . S
C891 H867 0.951 . S
C891 C892 1.366 . S
C891 C893 1.388 . S
C892 C891 1.366 . S
C892 C896 1.385 . S
C893 H868 0.951 . S
C893 C891 1.388 . S
C893 C894 1.366 . S
C894 C893 1.366 . S
C894 C895 1.414 . S
C894 C897 1.499 . S
C895 H869 0.950 . S
C895 C894 1.414 . S
C895 C896 1.374 . S
C896 H870 0.950 . S
C896 C892 1.385 . S
C896 C895 1.374 . S
C897 C894 1.499 . S
C897 C898 1.373 . S
C897 C899 1.389 . S
C898 H871 0.950 . S
C898 C884 1.377 . S
C898 C897 1.373 . S
C899 C883 1.377 . S
C899 C897 1.389 . S
C899 C900 1.524 . S
C900 C899 1.524 . S
C900 C901 1.397 . S
C900 C905 1.363 . S
C901 H872 0.950 . S
C901 C900 1.397 . S
C901 C902 1.334 . S
C902 H873 0.950 . S
C902 C901 1.334 . S
C902 C903 1.287 . S
C903 C902 1.287 . S
C903 C904 1.524 . S
C903 H906 0.999 . S
C904 H874 0.950 . S
C904 C903 1.524 . S
C904 C905 1.415 . S
C905 H875 0.950 . S
C905 C900 1.363 . S
C905 C904 1.415 . S
H906 C903 0.999 . S
H907 C888 0.913 . S
H908 C926 0.951 . S
H909 C928 0.951 . S
H910 C930 0.950 . S
H911 C931 0.950 . S
H912 C933 0.950 . S
H913 C936 0.950 . S
H914 C937 0.950 . S
H915 C939 0.950 . S
H916 C940 0.950 . S
H917 C941 0.951 . S
H918 C943 0.951 . S
H919 C945 0.950 . S
H920 C946 0.950 . S
H921 C948 0.950 . S
H922 C951 0.950 . S
H923 C952 0.950 . S
H924 C954 0.950 . S
H925 C955 0.950 . S
C926 H908 0.951 . S
C926 C927 1.366 . S
C926 C928 1.388 . S
C927 C926 1.366 . S
C927 C931 1.385 . S
C928 H909 0.951 . S
C928 C926 1.388 . S
C928 C929 1.366 . S
C929 C928 1.366 . S
C929 C930 1.414 . S
C929 C932 1.499 . S
C930 H910 0.950 . S
C930 C929 1.414 . S
C930 C931 1.374 . S
C931 H911 0.950 . S
C931 C927 1.385 . S
C931 C930 1.374 . S
C932 C929 1.499 . S
C932 C933 1.373 . S
C932 C934 1.389 . S
C933 H912 0.950 . S
C933 C932 1.373 . S
C933 C949 1.377 . S
C934 C932 1.389 . S
C934 C935 1.524 . S
C934 C948 1.377 . S
C935 C934 1.524 . S
C935 C936 1.397 . S
C935 C940 1.363 . S
C936 H913 0.950 . S
C936 C935 1.397 . S
C936 C937 1.334 . S
C937 H914 0.950 . S
C937 C936 1.334 . S
C937 C938 1.287 . S
C938 C937 1.287 . S
C938 C939 1.524 . S
C938 H957 0.913 . S
C939 H915 0.950 . S
C939 C938 1.524 . S
C939 C940 1.415 . S
C940 H916 0.950 . S
C940 C935 1.363 . S
C940 C939 1.415 . S
C941 H917 0.951 . S
C941 C942 1.366 . S
C941 C943 1.388 . S
C942 C941 1.366 . S
C942 C946 1.385 . S
C943 H918 0.951 . S
C943 C941 1.388 . S
C943 C944 1.366 . S
C944 C943 1.366 . S
C944 C945 1.414 . S
C944 C947 1.499 . S
C945 H919 0.950 . S
C945 C944 1.414 . S
C945 C946 1.374 . S
C946 H920 0.950 . S
C946 C942 1.385 . S
C946 C945 1.374 . S
C947 C944 1.499 . S
C947 C948 1.373 . S
C947 C949 1.389 . S
C948 H921 0.950 . S
C948 C934 1.377 . S
C948 C947 1.373 . S
C949 C933 1.377 . S
C949 C947 1.389 . S
C949 C950 1.524 . S
C950 C949 1.524 . S
C950 C951 1.397 . S
C950 C955 1.363 . S
C951 H922 0.950 . S
C951 C950 1.397 . S
C951 C952 1.334 . S
C952 H923 0.950 . S
C952 C951 1.334 . S
C952 C953 1.287 . S
C953 C952 1.287 . S
C953 C954 1.524 . S
C953 H956 0.999 . S
C954 H924 0.950 . S
C954 C953 1.524 . S
C954 C955 1.415 . S
C955 H925 0.950 . S
C955 C950 1.363 . S
C955 C954 1.415 . S
H956 C953 0.999 . S
H957 C938 0.913 . S
H958 C976 0.951 . S
H959 C978 0.951 . S
H960 C980 0.950 . S
H961 C981 0.950 . S
H962 C983 0.950 . S
H963 C986 0.950 . S
H964 C987 0.950 . S
H965 C989 0.950 . S
H966 C990 0.950 . S
H967 C991 0.952 . S
H968 C993 0.951 . S
H969 C995 0.950 . S
H970 C996 0.950 . S
H971 C998 0.950 . S
H972 C1001 0.950 . S
H973 C1002 0.950 . S
H974 C1004 0.950 . S
H975 C1005 0.950 . S
C976 H958 0.951 . S
C976 C977 1.366 . S
C976 C978 1.388 . S
C977 C976 1.366 . S
C977 C981 1.385 . S
C978 H959 0.951 . S
C978 C976 1.388 . S
C978 C979 1.366 . S
C979 C978 1.366 . S
C979 C980 1.414 . S
C979 C982 1.499 . S
C980 H960 0.950 . S
C980 C979 1.414 . S
C980 C981 1.374 . S
C981 H961 0.950 . S
C981 C977 1.385 . S
C981 C980 1.374 . S
C982 C979 1.499 . S
C982 C983 1.373 . S
C982 C984 1.389 1_565 S
C983 H962 0.950 . S
C983 C982 1.373 . S
C983 C999 1.377 . S
C984 C982 1.389 1_545 S
C984 C985 1.524 . S
C984 C998 1.377 . S
C985 C984 1.524 . S
C985 C986 1.397 . S
C985 C990 1.363 . S
C986 H963 0.950 . S
C986 C985 1.397 . S
C986 C987 1.334 . S
C987 H964 0.950 . S
C987 C986 1.334 . S
C987 C988 1.287 . S
C988 C987 1.287 . S
C988 C989 1.524 . S
C988 H1007 0.913 . S
C989 H965 0.950 . S
C989 C988 1.524 . S
C989 C990 1.415 . S
C990 H966 0.950 . S
C990 C985 1.363 . S
C990 C989 1.415 . S
C991 H967 0.952 . S
C991 C992 1.366 . S
C991 C993 1.388 . S
C992 C991 1.366 . S
C992 C996 1.385 . S
C993 H968 0.951 . S
C993 C991 1.388 . S
C993 C994 1.366 . S
C994 C993 1.366 . S
C994 C995 1.414 . S
C994 C997 1.499 . S
C995 H969 0.950 . S
C995 C994 1.414 . S
C995 C996 1.374 . S
C996 H970 0.950 . S
C996 C992 1.385 . S
C996 C995 1.374 . S
C997 C994 1.499 . S
C997 C998 1.373 1_565 S
C997 C999 1.389 . S
C998 H971 0.950 . S
C998 C984 1.377 . S
C998 C997 1.373 1_545 S
C999 C983 1.377 . S
C999 C997 1.389 . S
C999 C1000 1.524 . S
C1000 C999 1.524 . S
C1000 C1001 1.397 . S
C1000 C1005 1.363 . S
C1001 H972 0.950 . S
C1001 C1000 1.397 . S
C1001 C1002 1.334 . S
C1002 H973 0.950 . S
C1002 C1001 1.334 . S
C1002 C1003 1.287 . S
C1003 C1002 1.287 . S
C1003 C1004 1.524 . S
C1003 H1006 0.999 . S
C1004 H974 0.950 . S
C1004 C1003 1.524 . S
C1004 C1005 1.415 . S
C1005 H975 0.950 . S
C1005 C1000 1.363 . S
C1005 C1004 1.415 . S
H1006 C1003 0.999 . S
H1007 C988 0.913 . S
H1008 C1026 0.951 . S
H1009 C1028 0.951 . S
H1010 C1030 0.950 . S
H1011 C1031 0.950 . S
H1012 C1033 0.950 . S
H1013 C1036 0.950 . S
H1014 C1037 0.950 . S
H1015 C1039 0.950 . S
H1016 C1040 0.950 . S
H1017 C1041 0.951 . S
H1018 C1043 0.951 . S
H1019 C1045 0.950 . S
H1020 C1046 0.950 . S
H1021 C1048 0.950 . S
H1022 C1051 0.950 . S
H1023 C1052 0.950 . S
H1024 C1054 0.950 1_455 S
H1025 C1055 0.950 . S
C1026 H1008 0.951 . S
C1026 C1027 1.366 . S
C1026 C1028 1.388 . S
C1027 C1026 1.366 . S
C1027 C1031 1.385 . S
C1028 H1009 0.951 . S
C1028 C1026 1.388 . S
C1028 C1029 1.366 . S
C1029 C1028 1.366 . S
C1029 C1030 1.414 . S
C1029 C1032 1.499 . S
C1030 H1010 0.950 . S
C1030 C1029 1.414 . S
C1030 C1031 1.374 . S
C1031 H1011 0.950 . S
C1031 C1027 1.385 . S
C1031 C1030 1.374 . S
C1032 C1029 1.499 . S
C1032 C1033 1.373 . S
C1032 C1034 1.389 . S
C1033 H1012 0.950 . S
C1033 C1032 1.373 . S
C1033 C1049 1.377 . S
C1034 C1032 1.389 . S
C1034 C1035 1.524 . S
C1034 C1048 1.377 . S
C1035 C1034 1.524 . S
C1035 C1036 1.397 . S
C1035 C1040 1.363 . S
C1036 H1013 0.950 . S
C1036 C1035 1.397 . S
C1036 C1037 1.334 . S
C1037 H1014 0.950 . S
C1037 C1036 1.334 . S
C1037 C1038 1.287 . S
C1038 C1037 1.287 . S
C1038 C1039 1.524 . S
C1038 H1057 0.913 . S
C1039 H1015 0.950 . S
C1039 C1038 1.524 . S
C1039 C1040 1.415 . S
C1040 H1016 0.950 . S
C1040 C1035 1.363 . S
C1040 C1039 1.415 . S
C1041 H1017 0.951 . S
C1041 C1042 1.366 . S
C1041 C1043 1.388 . S
C1042 C1041 1.366 . S
C1042 C1046 1.385 . S
C1043 H1018 0.951 . S
C1043 C1041 1.388 . S
C1043 C1044 1.366 . S
C1044 C1043 1.366 . S
C1044 C1045 1.414 . S
C1044 C1047 1.499 . S
C1045 H1019 0.950 . S
C1045 C1044 1.414 . S
C1045 C1046 1.374 . S
C1046 H1020 0.950 . S
C1046 C1042 1.385 . S
C1046 C1045 1.374 . S
C1047 C1044 1.499 . S
C1047 C1048 1.373 . S
C1047 C1049 1.389 . S
C1048 H1021 0.950 . S
C1048 C1034 1.377 . S
C1048 C1047 1.373 . S
C1049 C1033 1.377 . S
C1049 C1047 1.389 . S
C1049 C1050 1.524 . S
C1050 C1049 1.524 . S
C1050 C1051 1.397 . S
C1050 C1055 1.363 . S
C1051 H1022 0.950 . S
C1051 C1050 1.397 . S
C1051 C1052 1.334 . S
C1052 H1023 0.950 . S
C1052 C1051 1.334 . S
C1052 C1053 1.287 . S
C1053 C1052 1.287 . S
C1053 C1054 1.524 . S
C1053 H1056 0.999 1_655 S
C1054 H1024 0.950 1_655 S
C1054 C1053 1.524 . S
C1054 C1055 1.415 . S
C1055 H1025 0.950 . S
C1055 C1050 1.363 . S
C1055 C1054 1.415 . S
H1056 C1053 0.999 1_455 S
H1057 C1038 0.913 . S
H1058 C1076 0.951 . S
H1059 C1078 0.951 . S
H1060 C1080 0.950 . S
H1061 C1081 0.950 . S
H1062 C1083 0.950 . S
H1063 C1086 0.950 . S
H1064 C1087 0.950 . S
H1065 C1089 0.950 . S
H1066 C1090 0.950 . S
H1067 C1091 0.951 . S
H1068 C1093 0.951 . S
H1069 C1095 0.950 . S
H1070 C1096 0.950 . S
H1071 C1098 0.950 . S
H1072 C1101 0.950 . S
H1073 C1102 0.950 . S
H1074 C1104 0.950 . S
H1075 C1105 0.950 . S
C1076 H1058 0.951 . S
C1076 C1077 1.366 . S
C1076 C1078 1.388 . S
C1077 C1076 1.366 . S
C1077 C1081 1.385 . S
C1078 H1059 0.951 . S
C1078 C1076 1.388 . S
C1078 C1079 1.366 . S
C1079 C1078 1.366 . S
C1079 C1080 1.414 . S
C1079 C1082 1.499 . S
C1080 H1060 0.950 . S
C1080 C1079 1.414 . S
C1080 C1081 1.374 . S
C1081 H1061 0.950 . S
C1081 C1077 1.385 . S
C1081 C1080 1.374 . S
C1082 C1079 1.499 . S
C1082 C1083 1.373 . S
C1082 C1084 1.389 . S
C1083 H1062 0.950 . S
C1083 C1082 1.373 . S
C1083 C1099 1.377 . S
C1084 C1082 1.389 . S
C1084 C1085 1.524 . S
C1084 C1098 1.377 . S
C1085 C1084 1.524 . S
C1085 C1086 1.397 . S
C1085 C1090 1.363 . S
C1086 H1063 0.950 . S
C1086 C1085 1.397 . S
C1086 C1087 1.334 . S
C1087 H1064 0.950 . S
C1087 C1086 1.334 . S
C1087 C1088 1.287 . S
C1088 C1087 1.287 . S
C1088 C1089 1.524 . S
C1088 H1107 0.913 . S
C1089 H1065 0.950 . S
C1089 C1088 1.524 . S
C1089 C1090 1.415 . S
C1090 H1066 0.950 . S
C1090 C1085 1.363 . S
C1090 C1089 1.415 . S
C1091 H1067 0.951 . S
C1091 C1092 1.366 . S
C1091 C1093 1.388 . S
C1092 C1091 1.366 . S
C1092 C1096 1.385 . S
C1093 H1068 0.951 . S
C1093 C1091 1.388 . S
C1093 C1094 1.366 . S
C1094 C1093 1.366 . S
C1094 C1095 1.414 . S
C1094 C1097 1.499 . S
C1095 H1069 0.950 . S
C1095 C1094 1.414 . S
C1095 C1096 1.374 . S
C1096 H1070 0.950 . S
C1096 C1092 1.385 . S
C1096 C1095 1.374 . S
C1097 C1094 1.499 . S
C1097 C1098 1.373 . S
C1097 C1099 1.389 . S
C1098 H1071 0.950 . S
C1098 C1084 1.377 . S
C1098 C1097 1.373 . S
C1099 C1083 1.377 . S
C1099 C1097 1.389 . S
C1099 C1100 1.524 . S
C1100 C1099 1.524 . S
C1100 C1101 1.397 . S
C1100 C1105 1.363 . S
C1101 H1072 0.950 . S
C1101 C1100 1.397 . S
C1101 C1102 1.334 . S
C1102 H1073 0.950 . S
C1102 C1101 1.334 . S
C1102 C1103 1.287 . S
C1103 C1102 1.287 . S
C1103 C1104 1.524 . S
C1103 H1106 0.999 . S
C1104 H1074 0.950 . S
C1104 C1103 1.524 . S
C1104 C1105 1.415 . S
C1105 H1075 0.950 . S
C1105 C1100 1.363 . S
C1105 C1104 1.415 . S
H1106 C1103 0.999 . S
H1107 C1088 0.913 . S
H1108 C1126 0.951 . S
H1109 C1128 0.951 . S
H1110 C1130 0.950 . S
H1111 C1131 0.950 . S
H1112 C1133 0.950 . S
H1113 C1136 0.950 . S
H1114 C1137 0.950 . S
H1115 C1139 0.950 . S
H1116 C1140 0.950 . S
H1117 C1141 0.951 . S
H1118 C1143 0.951 . S
H1119 C1145 0.950 . S
H1120 C1146 0.950 . S
H1121 C1148 0.950 . S
H1122 C1151 0.950 . S
H1123 C1152 0.950 . S
H1124 C1154 0.950 . S
H1125 C1155 0.950 . S
C1126 H1108 0.951 . S
C1126 C1127 1.366 . S
C1126 C1128 1.388 . S
C1127 C1126 1.366 . S
C1127 C1131 1.385 . S
C1128 H1109 0.951 . S
C1128 C1126 1.388 . S
C1128 C1129 1.366 . S
C1129 C1128 1.366 . S
C1129 C1130 1.414 . S
C1129 C1132 1.499 . S
C1130 H1110 0.950 . S
C1130 C1129 1.414 . S
C1130 C1131 1.374 . S
C1131 H1111 0.950 . S
C1131 C1127 1.385 . S
C1131 C1130 1.374 . S
C1132 C1129 1.499 . S
C1132 C1133 1.373 . S
C1132 C1134 1.389 . S
C1133 H1112 0.950 . S
C1133 C1132 1.373 . S
C1133 C1149 1.377 . S
C1134 C1132 1.389 . S
C1134 C1135 1.524 . S
C1134 C1148 1.377 . S
C1135 C1134 1.524 . S
C1135 C1136 1.397 . S
C1135 C1140 1.363 . S
C1136 H1113 0.950 . S
C1136 C1135 1.397 . S
C1136 C1137 1.334 . S
C1137 H1114 0.950 . S
C1137 C1136 1.334 . S
C1137 C1138 1.287 . S
C1138 C1137 1.287 . S
C1138 C1139 1.524 . S
C1138 H1157 0.913 . S
C1139 H1115 0.950 . S
C1139 C1138 1.524 . S
C1139 C1140 1.415 . S
C1140 H1116 0.950 . S
C1140 C1135 1.363 . S
C1140 C1139 1.415 . S
C1141 H1117 0.951 . S
C1141 C1142 1.366 . S
C1141 C1143 1.388 . S
C1142 C1141 1.366 . S
C1142 C1146 1.385 . S
C1143 H1118 0.951 . S
C1143 C1141 1.388 . S
C1143 C1144 1.366 . S
C1144 C1143 1.366 . S
C1144 C1145 1.414 . S
C1144 C1147 1.499 . S
C1145 H1119 0.950 . S
C1145 C1144 1.414 . S
C1145 C1146 1.374 . S
C1146 H1120 0.950 . S
C1146 C1142 1.385 . S
C1146 C1145 1.374 . S
C1147 C1144 1.499 . S
C1147 C1148 1.373 . S
C1147 C1149 1.389 . S
C1148 H1121 0.950 . S
C1148 C1134 1.377 . S
C1148 C1147 1.373 . S
C1149 C1133 1.377 . S
C1149 C1147 1.389 . S
C1149 C1150 1.524 . S
C1150 C1149 1.524 . S
C1150 C1151 1.397 . S
C1150 C1155 1.363 . S
C1151 H1122 0.950 . S
C1151 C1150 1.397 . S
C1151 C1152 1.334 . S
C1152 H1123 0.950 . S
C1152 C1151 1.334 . S
C1152 C1153 1.287 . S
C1153 C1152 1.287 . S
C1153 C1154 1.524 . S
C1153 H1156 0.999 . S
C1154 H1124 0.950 . S
C1154 C1153 1.524 . S
C1154 C1155 1.415 . S
C1155 H1125 0.950 . S
C1155 C1150 1.363 . S
C1155 C1154 1.415 . S
H1156 C1153 0.999 . S
H1157 C1138 0.913 . S
H1158 C1176 0.951 . S
H1159 C1178 0.951 . S
H1160 C1180 0.950 . S
H1161 C1181 0.950 . S
H1162 C1183 0.950 . S
H1163 C1186 0.950 . S
H1164 C1187 0.950 . S
H1165 C1189 0.950 . S
H1166 C1190 0.950 . S
H1167 C1191 0.951 . S
H1168 C1193 0.951 . S
H1169 C1195 0.950 . S
H1170 C1196 0.950 . S
H1171 C1198 0.950 . S
H1172 C1201 0.950 . S
H1173 C1202 0.950 . S
H1174 C1204 0.950 . S
H1175 C1205 0.950 . S
C1176 H1158 0.951 . S
C1176 C1177 1.366 . S
C1176 C1178 1.388 . S
C1177 C1176 1.366 . S
C1177 C1181 1.385 . S
C1178 H1159 0.951 . S
C1178 C1176 1.388 . S
C1178 C1179 1.366 . S
C1179 C1178 1.366 . S
C1179 C1180 1.414 . S
C1179 C1182 1.499 . S
C1180 H1160 0.950 . S
C1180 C1179 1.414 . S
C1180 C1181 1.374 . S
C1181 H1161 0.950 . S
C1181 C1177 1.385 . S
C1181 C1180 1.374 . S
C1182 C1179 1.499 . S
C1182 C1183 1.373 . S
C1182 C1184 1.389 . S
C1183 H1162 0.950 . S
C1183 C1182 1.373 . S
C1183 C1199 1.377 . S
C1184 C1182 1.389 . S
C1184 C1185 1.524 . S
C1184 C1198 1.377 . S
C1185 C1184 1.524 . S
C1185 C1186 1.397 . S
C1185 C1190 1.363 . S
C1186 H1163 0.950 . S
C1186 C1185 1.397 . S
C1186 C1187 1.334 . S
C1187 H1164 0.950 . S
C1187 C1186 1.334 . S
C1187 C1188 1.287 . S
C1188 C1187 1.287 . S
C1188 C1189 1.524 . S
C1188 H1207 0.913 . S
C1189 H1165 0.950 . S
C1189 C1188 1.524 . S
C1189 C1190 1.415 . S
C1190 H1166 0.950 . S
C1190 C1185 1.363 . S
C1190 C1189 1.415 . S
C1191 H1167 0.951 . S
C1191 C1192 1.366 . S
C1191 C1193 1.388 . S
C1192 C1191 1.366 . S
C1192 C1196 1.385 . S
C1193 H1168 0.951 . S
C1193 C1191 1.388 . S
C1193 C1194 1.366 . S
C1194 C1193 1.366 . S
C1194 C1195 1.414 . S
C1194 C1197 1.499 . S
C1195 H1169 0.950 . S
C1195 C1194 1.414 . S
C1195 C1196 1.374 . S
C1196 H1170 0.950 . S
C1196 C1192 1.385 . S
C1196 C1195 1.374 . S
C1197 C1194 1.499 . S
C1197 C1198 1.373 . S
C1197 C1199 1.389 . S
C1198 H1171 0.950 . S
C1198 C1184 1.377 . S
C1198 C1197 1.373 . S
C1199 C1183 1.377 . S
C1199 C1197 1.389 . S
C1199 C1200 1.524 . S
C1200 C1199 1.524 . S
C1200 C1201 1.397 . S
C1200 C1205 1.363 . S
C1201 H1172 0.950 . S
C1201 C1200 1.397 . S
C1201 C1202 1.334 . S
C1202 H1173 0.950 . S
C1202 C1201 1.334 . S
C1202 C1203 1.287 . S
C1203 C1202 1.287 . S
C1203 C1204 1.524 . S
C1203 H1206 0.999 . S
C1204 H1174 0.950 . S
C1204 C1203 1.524 . S
C1204 C1205 1.415 . S
C1205 H1175 0.950 . S
C1205 C1200 1.363 . S
C1205 C1204 1.415 . S
H1206 C1203 0.999 . S
H1207 C1188 0.913 . S
H1208 C1226 0.951 . S
H1209 C1228 0.951 . S
H1210 C1230 0.950 . S
H1211 C1231 0.950 . S
H1212 C1233 0.950 . S
H1213 C1236 0.950 . S
H1214 C1237 0.950 . S
H1215 C1239 0.950 . S
H1216 C1240 0.950 . S
H1217 C1241 0.951 . S
H1218 C1243 0.951 . S
H1219 C1245 0.950 . S
H1220 C1246 0.950 . S
H1221 C1248 0.950 . S
H1222 C1251 0.950 . S
H1223 C1252 0.950 . S
H1224 C1254 0.950 . S
H1225 C1255 0.950 . S
C1226 H1208 0.951 . S
C1226 C1227 1.366 . S
C1226 C1228 1.388 . S
C1227 C1226 1.366 . S
C1227 C1231 1.385 . S
C1228 H1209 0.951 . S
C1228 C1226 1.388 . S
C1228 C1229 1.366 . S
C1229 C1228 1.366 . S
C1229 C1230 1.414 . S
C1229 C1232 1.499 . S
C1230 H1210 0.950 . S
C1230 C1229 1.414 . S
C1230 C1231 1.374 . S
C1231 H1211 0.950 . S
C1231 C1227 1.385 . S
C1231 C1230 1.374 . S
C1232 C1229 1.499 . S
C1232 C1233 1.373 . S
C1232 C1234 1.389 . S
C1233 H1212 0.950 . S
C1233 C1232 1.373 . S
C1233 C1249 1.377 . S
C1234 C1232 1.389 . S
C1234 C1235 1.524 . S
C1234 C1248 1.377 . S
C1235 C1234 1.524 . S
C1235 C1236 1.397 . S
C1235 C1240 1.363 . S
C1236 H1213 0.950 . S
C1236 C1235 1.397 . S
C1236 C1237 1.334 . S
C1237 H1214 0.950 . S
C1237 C1236 1.334 . S
C1237 C1238 1.287 . S
C1238 C1237 1.287 . S
C1238 C1239 1.524 . S
C1238 H1257 0.913 . S
C1239 H1215 0.950 . S
C1239 C1238 1.524 . S
C1239 C1240 1.415 . S
C1240 H1216 0.950 . S
C1240 C1235 1.363 . S
C1240 C1239 1.415 . S
C1241 H1217 0.951 . S
C1241 C1242 1.366 . S
C1241 C1243 1.388 . S
C1242 C1241 1.366 . S
C1242 C1246 1.385 . S
C1243 H1218 0.951 . S
C1243 C1241 1.388 . S
C1243 C1244 1.366 . S
C1244 C1243 1.366 . S
C1244 C1245 1.414 . S
C1244 C1247 1.499 . S
C1245 H1219 0.950 . S
C1245 C1244 1.414 . S
C1245 C1246 1.374 . S
C1246 H1220 0.950 . S
C1246 C1242 1.385 . S
C1246 C1245 1.374 . S
C1247 C1244 1.499 . S
C1247 C1248 1.373 . S
C1247 C1249 1.389 . S
C1248 H1221 0.950 . S
C1248 C1234 1.377 . S
C1248 C1247 1.373 . S
C1249 C1233 1.377 . S
C1249 C1247 1.389 . S
C1249 C1250 1.524 . S
C1250 C1249 1.524 . S
C1250 C1251 1.397 . S
C1250 C1255 1.363 . S
C1251 H1222 0.950 . S
C1251 C1250 1.397 . S
C1251 C1252 1.334 . S
C1252 H1223 0.950 . S
C1252 C1251 1.334 . S
C1252 C1253 1.287 . S
C1253 C1252 1.287 . S
C1253 C1254 1.524 . S
C1253 H1256 0.999 . S
C1254 H1224 0.950 . S
C1254 C1253 1.524 . S
C1254 C1255 1.415 . S
C1255 H1225 0.950 . S
C1255 C1250 1.363 . S
C1255 C1254 1.415 . S
H1256 C1253 0.999 . S
H1257 C1238 0.913 . S
H1258 C1276 0.951 . S
H1259 C1278 0.951 . S
H1260 C1280 0.950 . S
H1261 C1281 0.950 . S
H1262 C1283 0.950 . S
H1263 C1286 0.950 . S
H1264 C1287 0.950 . S
H1265 C1289 0.950 . S
H1266 C1290 0.950 . S
H1267 C1291 0.951 . S
H1268 C1293 0.951 . S
H1269 C1295 0.950 . S
H1270 C1296 0.950 . S
H1271 C1298 0.950 . S
H1272 C1301 0.950 1_455 S
H1273 C1302 0.950 . S
H1274 C1304 0.950 . S
H1275 C1305 0.950 . S
C1276 H1258 0.951 . S
C1276 C1277 1.366 . S
C1276 C1278 1.388 . S
C1277 C1276 1.366 . S
C1277 C1281 1.385 . S
C1278 H1259 0.951 . S
C1278 C1276 1.388 . S
C1278 C1279 1.366 . S
C1279 C1278 1.366 . S
C1279 C1280 1.414 . S
C1279 C1282 1.499 . S
C1280 H1260 0.950 . S
C1280 C1279 1.414 . S
C1280 C1281 1.374 . S
C1281 H1261 0.950 . S
C1281 C1277 1.385 . S
C1281 C1280 1.374 . S
C1282 C1279 1.499 . S
C1282 C1283 1.373 . S
C1282 C1284 1.389 . S
C1283 H1262 0.950 . S
C1283 C1282 1.373 . S
C1283 C1299 1.377 . S
C1284 C1282 1.389 . S
C1284 C1285 1.524 . S
C1284 C1298 1.377 . S
C1285 C1284 1.524 . S
C1285 C1286 1.397 . S
C1285 C1290 1.363 . S
C1286 H1263 0.950 . S
C1286 C1285 1.397 . S
C1286 C1287 1.334 . S
C1287 H1264 0.950 . S
C1287 C1286 1.334 . S
C1287 C1288 1.287 . S
C1288 C1287 1.287 . S
C1288 C1289 1.524 . S
C1288 H1307 0.913 . S
C1289 H1265 0.950 . S
C1289 C1288 1.524 . S
C1289 C1290 1.415 . S
C1290 H1266 0.950 . S
C1290 C1285 1.363 . S
C1290 C1289 1.415 . S
C1291 H1267 0.951 . S
C1291 C1292 1.366 . S
C1291 C1293 1.388 . S
C1292 C1291 1.366 . S
C1292 C1296 1.385 . S
C1293 H1268 0.951 . S
C1293 C1291 1.388 . S
C1293 C1294 1.366 . S
C1294 C1293 1.366 . S
C1294 C1295 1.414 . S
C1294 C1297 1.499 . S
C1295 H1269 0.950 . S
C1295 C1294 1.414 . S
C1295 C1296 1.374 . S
C1296 H1270 0.950 . S
C1296 C1292 1.385 . S
C1296 C1295 1.374 . S
C1297 C1294 1.499 . S
C1297 C1298 1.373 . S
C1297 C1299 1.389 . S
C1298 H1271 0.950 . S
C1298 C1284 1.377 . S
C1298 C1297 1.373 . S
C1299 C1283 1.377 . S
C1299 C1297 1.389 . S
C1299 C1300 1.524 1_455 S
C1300 C1299 1.524 1_655 S
C1300 C1301 1.397 . S
C1300 C1305 1.363 . S
C1301 H1272 0.950 1_655 S
C1301 C1300 1.397 . S
C1301 C1302 1.334 . S
C1302 H1273 0.950 . S
C1302 C1301 1.334 . S
C1302 C1303 1.287 . S
C1303 C1302 1.287 . S
C1303 C1304 1.524 . S
C1303 H1306 0.999 . S
C1304 H1274 0.950 . S
C1304 C1303 1.524 . S
C1304 C1305 1.415 . S
C1305 H1275 0.950 . S
C1305 C1300 1.363 . S
C1305 C1304 1.415 . S
H1306 C1303 0.999 . S
H1307 C1288 0.913 . S
H1308 C1326 0.951 . S
H1309 C1328 0.951 . S
H1310 C1330 0.950 . S
H1311 C1331 0.950 . S
H1312 C1333 0.950 . S
H1313 C1336 0.950 . S
H1314 C1337 0.950 . S
H1315 C1339 0.950 . S
H1316 C1340 0.950 . S
H1317 C1341 0.951 . S
H1318 C1343 0.951 . S
H1319 C1345 0.950 . S
H1320 C1346 0.950 . S
H1321 C1348 0.950 . S
H1322 C1351 0.950 . S
H1323 C1352 0.950 . S
H1324 C1354 0.950 . S
H1325 C1355 0.950 . S
C1326 H1308 0.951 . S
C1326 C1327 1.366 . S
C1326 C1328 1.388 . S
C1327 C1326 1.366 . S
C1327 C1331 1.385 . S
C1328 H1309 0.951 . S
C1328 C1326 1.388 . S
C1328 C1329 1.366 . S
C1329 C1328 1.366 . S
C1329 C1330 1.414 . S
C1329 C1332 1.499 . S
C1330 H1310 0.950 . S
C1330 C1329 1.414 . S
C1330 C1331 1.374 . S
C1331 H1311 0.950 . S
C1331 C1327 1.385 . S
C1331 C1330 1.374 . S
C1332 C1329 1.499 . S
C1332 C1333 1.373 . S
C1332 C1334 1.389 . S
C1333 H1312 0.950 . S
C1333 C1332 1.373 . S
C1333 C1349 1.377 . S
C1334 C1332 1.389 . S
C1334 C1335 1.524 . S
C1334 C1348 1.377 . S
C1335 C1334 1.524 . S
C1335 C1336 1.397 . S
C1335 C1340 1.363 . S
C1336 H1313 0.950 . S
C1336 C1335 1.397 . S
C1336 C1337 1.334 . S
C1337 H1314 0.950 . S
C1337 C1336 1.334 . S
C1337 C1338 1.287 . S
C1338 C1337 1.287 . S
C1338 C1339 1.524 . S
C1338 H1357 0.913 . S
C1339 H1315 0.950 . S
C1339 C1338 1.524 . S
C1339 C1340 1.415 . S
C1340 H1316 0.950 . S
C1340 C1335 1.363 . S
C1340 C1339 1.415 . S
C1341 H1317 0.951 . S
C1341 C1342 1.366 . S
C1341 C1343 1.388 . S
C1342 C1341 1.366 . S
C1342 C1346 1.385 . S
C1343 H1318 0.951 . S
C1343 C1341 1.388 . S
C1343 C1344 1.366 . S
C1344 C1343 1.366 . S
C1344 C1345 1.414 . S
C1344 C1347 1.499 . S
C1345 H1319 0.950 . S
C1345 C1344 1.414 . S
C1345 C1346 1.374 . S
C1346 H1320 0.950 . S
C1346 C1342 1.385 . S
C1346 C1345 1.374 . S
C1347 C1344 1.499 . S
C1347 C1348 1.373 . S
C1347 C1349 1.389 . S
C1348 H1321 0.950 . S
C1348 C1334 1.377 . S
C1348 C1347 1.373 . S
C1349 C1333 1.377 . S
C1349 C1347 1.389 . S
C1349 C1350 1.524 . S
C1350 C1349 1.524 . S
C1350 C1351 1.397 . S
C1350 C1355 1.363 . S
C1351 H1322 0.950 . S
C1351 C1350 1.397 . S
C1351 C1352 1.334 . S
C1352 H1323 0.950 . S
C1352 C1351 1.334 . S
C1352 C1353 1.287 . S
C1353 C1352 1.287 . S
C1353 C1354 1.524 . S
C1353 H1356 0.999 . S
C1354 H1324 0.950 . S
C1354 C1353 1.524 . S
C1354 C1355 1.415 . S
C1355 H1325 0.950 . S
C1355 C1350 1.363 . S
C1355 C1354 1.415 . S
H1356 C1353 0.999 . S
H1357 C1338 0.913 . S
H1358 C1376 0.951 . S
H1359 C1378 0.951 . S
H1360 C1380 0.950 . S
H1361 C1381 0.950 . S
H1362 C1383 0.950 . S
H1363 C1386 0.950 . S
H1364 C1387 0.950 . S
H1365 C1389 0.950 . S
H1366 C1390 0.950 . S
H1367 C1391 0.951 . S
H1368 C1393 0.951 . S
H1369 C1395 0.950 . S
H1370 C1396 0.950 . S
H1371 C1398 0.950 . S
H1372 C1401 0.950 . S
H1373 C1402 0.950 . S
H1374 C1404 0.950 . S
H1375 C1405 0.950 . S
C1376 H1358 0.951 . S
C1376 C1377 1.366 . S
C1376 C1378 1.388 . S
C1377 C1376 1.366 . S
C1377 C1381 1.385 1_655 S
C1378 H1359 0.951 . S
C1378 C1376 1.388 . S
C1378 C1379 1.374 . S
C1379 C1378 1.374 . S
C1379 C1380 1.405 1_655 S
C1379 C1382 1.499 1_655 S
C1380 H1360 0.950 . S
C1380 C1379 1.405 1_455 S
C1380 C1381 1.374 . S
C1381 H1361 0.950 . S
C1381 C1377 1.385 1_455 S
C1381 C1380 1.374 . S
C1382 C1379 1.499 1_455 S
C1382 C1383 1.373 . S
C1382 C1384 1.389 . S
C1383 H1362 0.950 . S
C1383 C1382 1.373 . S
C1383 C1399 1.377 . S
C1384 C1382 1.389 . S
C1384 C1385 1.524 . S
C1384 C1398 1.377 . S
C1385 C1384 1.524 . S
C1385 C1386 1.397 . S
C1385 C1390 1.363 1_455 S
C1386 H1363 0.950 . S
C1386 C1385 1.397 . S
C1386 C1387 1.334 . S
C1387 H1364 0.950 . S
C1387 C1386 1.334 . S
C1387 C1388 1.287 . S
C1388 C1387 1.287 . S
C1388 C1389 1.524 1_455 S
C1388 H1407 0.913 . S
C1389 H1365 0.950 . S
C1389 C1388 1.524 1_655 S
C1389 C1390 1.415 . S
C1390 H1366 0.950 . S
C1390 C1385 1.363 1_655 S
C1390 C1389 1.415 . S
C1391 H1367 0.951 . S
C1391 C1392 1.366 . S
C1391 C1393 1.388 . S
C1392 C1391 1.366 . S
C1392 C1396 1.385 1_455 S
C1393 H1368 0.951 . S
C1393 C1391 1.388 . S
C1393 C1394 1.366 . S
C1394 C1393 1.366 . S
C1394 C1395 1.414 1_455 S
C1394 C1397 1.499 . S
C1395 H1369 0.950 . S
C1395 C1394 1.414 1_655 S
C1395 C1396 1.374 . S
C1396 H1370 0.950 . S
C1396 C1392 1.385 1_655 S
C1396 C1395 1.374 . S
C1397 C1394 1.499 . S
C1397 C1398 1.373 . S
C1397 C1399 1.389 . S
C1398 H1371 0.950 . S
C1398 C1384 1.377 . S
C1398 C1397 1.373 . S
C1399 C1383 1.377 . S
C1399 C1397 1.389 . S
C1399 C1400 1.524 1_455 S
C1400 C1399 1.524 1_655 S
C1400 C1401 1.402 . S
C1400 C1405 1.358 1_655 S
C1401 H1372 0.950 . S
C1401 C1400 1.402 . S
C1401 C1402 1.334 . S
C1402 H1373 0.950 . S
C1402 C1401 1.334 . S
C1402 C1403 1.287 . S
C1403 C1402 1.287 . S
C1403 C1404 1.524 1_655 S
C1403 H1406 0.999 . S
C1404 H1374 0.950 . S
C1404 C1403 1.524 1_455 S
C1404 C1405 1.415 . S
C1405 H1375 0.950 . S
C1405 C1400 1.358 1_455 S
C1405 C1404 1.415 . S
H1406 C1403 0.999 . S
H1407 C1388 0.913 . S
H1408 C1426 0.951 . S
H1409 C1428 0.951 . S
H1410 C1430 0.950 . S
H1411 C1431 0.950 . S
H1412 C1433 0.950 . S
H1413 C1436 0.950 . S
H1414 C1437 0.950 . S
H1415 C1439 0.950 . S
H1416 C1440 0.950 . S
H1417 C1441 0.910 1_545 S
H1418 C1443 0.951 . S
H1419 C1445 0.950 . S
H1420 C1446 0.950 . S
H1421 C1448 0.950 . S
H1422 C1451 0.950 . S
H1423 C1452 0.950 . S
H1424 C1454 0.950 1_545 S
H1425 C1455 0.950 . S
C1426 H1408 0.951 . S
C1426 C1427 1.366 . S
C1426 C1428 1.388 . S
C1427 C1426 1.366 . S
C1427 C1431 1.385 . S
C1428 H1409 0.951 . S
C1428 C1426 1.388 . S
C1428 C1429 1.366 . S
C1429 C1428 1.366 . S
C1429 C1430 1.414 . S
C1429 C1432 1.499 . S
C1430 H1410 0.950 . S
C1430 C1429 1.414 . S
C1430 C1431 1.374 . S
C1431 H1411 0.950 . S
C1431 C1427 1.385 . S
C1431 C1430 1.374 . S
C1432 C1429 1.499 . S
C1432 C1433 1.373 . S
C1432 C1434 1.389 . S
C1433 H1412 0.950 . S
C1433 C1432 1.373 . S
C1433 C1449 1.377 . S
C1434 C1432 1.389 . S
C1434 C1435 1.524 . S
C1434 C1448 1.377 . S
C1435 C1434 1.524 . S
C1435 C1436 1.397 . S
C1435 C1440 1.363 . S
C1436 H1413 0.950 . S
C1436 C1435 1.397 . S
C1436 C1437 1.334 . S
C1437 H1414 0.950 . S
C1437 C1436 1.334 . S
C1437 C1438 1.287 . S
C1438 C1437 1.287 . S
C1438 C1439 1.524 . S
C1438 H1457 0.913 . S
C1439 H1415 0.950 . S
C1439 C1438 1.524 . S
C1439 C1440 1.415 . S
C1440 H1416 0.950 . S
C1440 C1435 1.363 . S
C1440 C1439 1.415 . S
C1441 H1417 0.910 1_565 S
C1441 C1442 1.366 . S
C1441 C1443 1.388 . S
C1442 C1441 1.366 . S
C1442 C1446 1.385 . S
C1443 H1418 0.951 . S
C1443 C1441 1.388 . S
C1443 C1444 1.366 . S
C1444 C1443 1.366 . S
C1444 C1445 1.414 . S
C1444 C1447 1.499 . S
C1445 H1419 0.950 . S
C1445 C1444 1.414 . S
C1445 C1446 1.374 . S
C1446 H1420 0.950 . S
C1446 C1442 1.385 . S
C1446 C1445 1.374 . S
C1447 C1444 1.499 . S
C1447 C1448 1.373 . S
C1447 C1449 1.389 . S
C1448 H1421 0.950 . S
C1448 C1434 1.377 . S
C1448 C1447 1.373 . S
C1449 C1433 1.377 . S
C1449 C1447 1.389 . S
C1449 C1450 1.524 . S
C1450 C1449 1.524 . S
C1450 C1451 1.397 . S
C1450 C1455 1.363 . S
C1451 H1422 0.950 . S
C1451 C1450 1.397 . S
C1451 C1452 1.334 . S
C1452 H1423 0.950 . S
C1452 C1451 1.334 . S
C1452 C1453 1.287 1_565 S
C1453 C1452 1.287 1_545 S
C1453 C1454 1.524 1_545 S
C1453 H1456 0.999 . S
C1454 H1424 0.950 1_565 S
C1454 C1453 1.524 1_565 S
C1454 C1455 1.415 . S
C1455 H1425 0.950 . S
C1455 C1450 1.363 . S
C1455 C1454 1.415 . S
H1456 C1453 0.999 . S
H1457 C1438 0.913 . S
H1458 C1476 0.951 . S
H1459 C1478 0.951 . S
H1460 C1480 0.950 . S
H1461 C1481 0.950 . S
H1462 C1483 0.950 . S
H1463 C1486 0.950 . S
H1464 C1487 0.950 . S
H1465 C1489 0.950 . S
H1466 C1490 0.950 . S
H1467 C1491 0.951 . S
H1468 C1493 0.951 . S
H1469 C1495 0.950 . S
H1470 C1496 0.950 . S
H1471 C1498 0.950 . S
H1472 C1501 0.950 . S
H1473 C1502 0.950 . S
H1474 C1504 0.950 . S
H1475 C1505 0.950 . S
C1476 H1458 0.951 . S
C1476 C1477 1.366 . S
C1476 C1478 1.388 . S
C1477 C1476 1.366 . S
C1477 C1481 1.385 . S
C1478 H1459 0.951 . S
C1478 C1476 1.388 . S
C1478 C1479 1.366 . S
C1479 C1478 1.366 . S
C1479 C1480 1.414 . S
C1479 C1482 1.499 . S
C1480 H1460 0.950 . S
C1480 C1479 1.414 . S
C1480 C1481 1.374 . S
C1481 H1461 0.950 . S
C1481 C1477 1.385 . S
C1481 C1480 1.374 . S
C1482 C1479 1.499 . S
C1482 C1483 1.373 . S
C1482 C1484 1.389 . S
C1483 H1462 0.950 . S
C1483 C1482 1.373 . S
C1483 C1499 1.377 . S
C1484 C1482 1.389 . S
C1484 C1485 1.524 . S
C1484 C1498 1.377 . S
C1485 C1484 1.524 . S
C1485 C1486 1.397 . S
C1485 C1490 1.363 . S
C1486 H1463 0.950 . S
C1486 C1485 1.397 . S
C1486 C1487 1.334 . S
C1487 H1464 0.950 . S
C1487 C1486 1.334 . S
C1487 C1488 1.287 . S
C1488 C1487 1.287 . S
C1488 C1489 1.524 . S
C1488 H1507 0.913 . S
C1489 H1465 0.950 . S
C1489 C1488 1.524 . S
C1489 C1490 1.415 . S
C1490 H1466 0.950 . S
C1490 C1485 1.363 . S
C1490 C1489 1.415 . S
C1491 H1467 0.951 . S
C1491 C1492 1.366 . S
C1491 C1493 1.388 . S
C1492 C1491 1.366 . S
C1492 C1496 1.385 . S
C1493 H1468 0.951 . S
C1493 C1491 1.388 . S
C1493 C1494 1.366 . S
C1494 C1493 1.366 . S
C1494 C1495 1.414 . S
C1494 C1497 1.499 . S
C1495 H1469 0.950 . S
C1495 C1494 1.414 . S
C1495 C1496 1.374 . S
C1496 H1470 0.950 . S
C1496 C1492 1.385 . S
C1496 C1495 1.374 . S
C1497 C1494 1.499 . S
C1497 C1498 1.373 . S
C1497 C1499 1.389 . S
C1498 H1471 0.950 . S
C1498 C1484 1.377 . S
C1498 C1497 1.373 . S
C1499 C1483 1.377 . S
C1499 C1497 1.389 . S
C1499 C1500 1.524 . S
C1500 C1499 1.524 . S
C1500 C1501 1.397 . S
C1500 C1505 1.363 . S
C1501 H1472 0.950 . S
C1501 C1500 1.397 . S
C1501 C1502 1.334 . S
C1502 H1473 0.950 . S
C1502 C1501 1.334 . S
C1502 C1503 1.287 . S
C1503 C1502 1.287 . S
C1503 C1504 1.524 . S
C1503 H1506 0.999 . S
C1504 H1474 0.950 . S
C1504 C1503 1.524 . S
C1504 C1505 1.415 . S
C1505 H1475 0.950 . S
C1505 C1500 1.363 . S
C1505 C1504 1.415 . S
H1506 C1503 0.999 . S
H1507 C1488 0.913 . S
H1508 C1526 0.951 . S
H1509 C1528 0.951 . S
H1510 C1530 0.950 . S
H1511 C1531 0.950 . S
H1512 C1533 0.950 . S
H1513 C1536 0.994 . S
H1514 C1537 0.950 1_554 S
H1515 C1539 0.950 . S
H1516 C1540 0.968 . S
H1517 C1541 0.951 . S
H1518 C1543 0.951 . S
H1519 C1545 0.950 1_556 S
H1520 C1546 0.950 . S
H1521 C1548 0.950 . S
H1522 C1551 0.950 . S
H1523 C1552 0.950 . S
H1524 C1554 0.950 . S
H1525 C1555 0.950 . S
C1526 H1508 0.951 . S
C1526 C1527 1.366 . S
C1526 C1528 1.388 1_545 S
C1527 C1526 1.366 . S
C1527 C1531 1.385 1_556 S
C1528 H1509 0.951 . S
C1528 C1526 1.388 1_565 S
C1528 C1529 1.366 . S
C1529 C1528 1.366 . S
C1529 C1530 1.414 1_556 S
C1529 C1532 1.499 1_556 S
C1530 H1510 0.950 . S
C1530 C1529 1.414 1_554 S
C1530 C1531 1.374 1_565 S
C1531 H1511 0.950 . S
C1531 C1527 1.385 1_554 S
C1531 C1530 1.374 1_545 S
C1532 C1529 1.499 1_554 S
C1532 C1533 1.373 . S
C1532 C1534 1.382 1_554 S
C1533 H1512 0.950 . S
C1533 C1532 1.373 . S
C1533 C1549 1.377 . S
C1534 C1532 1.382 1_556 S
C1534 C1535 1.545 1_565 S
C1534 C1548 1.363 1_556 S
C1535 C1534 1.545 1_545 S
C1535 C1536 1.379 1_556 S
C1535 C1540 1.366 1_545 S
C1536 H1513 0.994 . S
C1536 C1535 1.379 1_554 S
C1536 C1537 1.311 1_554 S
C1537 H1514 0.950 1_556 S
C1537 C1536 1.311 1_556 S
C1537 C1538 1.287 . S
C1538 C1537 1.287 . S
C1538 C1539 1.524 . S
C1538 H1557 0.913 . S
C1539 H1515 0.950 . S
C1539 C1538 1.524 . S
C1539 C1540 1.395 1_545 S
C1540 H1516 0.968 . S
C1540 C1535 1.366 1_565 S
C1540 C1539 1.395 1_565 S
C1541 H1517 0.951 . S
C1541 C1542 1.366 . S
C1541 C1543 1.388 . S
C1542 C1541 1.366 . S
C1542 C1546 1.385 . S
C1543 H1518 0.951 . S
C1543 C1541 1.388 . S
C1543 C1544 1.366 . S
C1544 C1543 1.366 . S
C1544 C1545 1.414 . S
C1544 C1547 1.499 . S
C1545 H1519 0.950 1_554 S
C1545 C1544 1.414 . S
C1545 C1546 1.374 . S
C1546 H1520 0.950 . S
C1546 C1542 1.385 . S
C1546 C1545 1.374 . S
C1547 C1544 1.499 . S
C1547 C1548 1.373 . S
C1547 C1549 1.389 . S
C1548 H1521 0.950 . S
C1548 C1534 1.363 1_554 S
C1548 C1547 1.373 . S
C1549 C1533 1.377 . S
C1549 C1547 1.389 . S
C1549 C1550 1.524 . S
C1550 C1549 1.524 . S
C1550 C1551 1.397 . S
C1550 C1555 1.363 . S
C1551 H1522 0.950 . S
C1551 C1550 1.397 . S
C1551 C1552 1.334 . S
C1552 H1523 0.950 . S
C1552 C1551 1.334 . S
C1552 C1553 1.287 . S
C1553 C1552 1.287 . S
C1553 C1554 1.524 . S
C1553 H1556 0.999 . S
C1554 H1524 0.950 . S
C1554 C1553 1.524 . S
C1554 C1555 1.415 . S
C1555 H1525 0.950 . S
C1555 C1550 1.363 . S
C1555 C1554 1.415 . S
H1556 C1553 0.999 . S
H1557 C1538 0.913 . S
H1558 C1576 0.951 . S
H1559 C1578 0.951 . S
H1560 C1580 0.950 . S
H1561 C1581 0.950 . S
H1562 C1583 0.950 . S
H1563 C1586 0.950 . S
H1564 C1587 0.950 . S
H1565 C1589 0.950 . S
H1566 C1590 0.950 . S
H1567 C1591 0.951 . S
H1568 C1593 0.951 . S
H1569 C1595 0.950 . S
H1570 C1596 0.950 . S
H1571 C1598 0.950 . S
H1572 C1601 0.950 . S
H1573 C1602 0.950 . S
H1574 C1604 0.950 . S
H1575 C1605 0.950 . S
C1576 H1558 0.951 . S
C1576 C1577 1.366 . S
C1576 C1578 1.388 . S
C1577 C1576 1.366 . S
C1577 C1581 1.385 . S
C1578 H1559 0.951 . S
C1578 C1576 1.388 . S
C1578 C1579 1.366 . S
C1579 C1578 1.366 . S
C1579 C1580 1.414 . S
C1579 C1582 1.499 . S
C1580 H1560 0.950 . S
C1580 C1579 1.414 . S
C1580 C1581 1.374 . S
C1581 H1561 0.950 . S
C1581 C1577 1.385 . S
C1581 C1580 1.374 . S
C1582 C1579 1.499 . S
C1582 C1583 1.373 . S
C1582 C1584 1.389 . S
C1583 H1562 0.950 . S
C1583 C1582 1.373 . S
C1583 C1599 1.377 . S
C1584 C1582 1.389 . S
C1584 C1585 1.524 . S
C1584 C1598 1.377 . S
C1585 C1584 1.524 . S
C1585 C1586 1.397 . S
C1585 C1590 1.363 . S
C1586 H1563 0.950 . S
C1586 C1585 1.397 . S
C1586 C1587 1.334 . S
C1587 H1564 0.950 . S
C1587 C1586 1.334 . S
C1587 C1588 1.287 . S
C1588 C1587 1.287 . S
C1588 C1589 1.524 . S
C1588 H1607 0.913 . S
C1589 H1565 0.950 . S
C1589 C1588 1.524 . S
C1589 C1590 1.415 . S
C1590 H1566 0.950 . S
C1590 C1585 1.363 . S
C1590 C1589 1.415 . S
C1591 H1567 0.951 . S
C1591 C1592 1.366 . S
C1591 C1593 1.388 . S
C1592 C1591 1.366 . S
C1592 C1596 1.385 . S
C1593 H1568 0.951 . S
C1593 C1591 1.388 . S
C1593 C1594 1.366 . S
C1594 C1593 1.366 . S
C1594 C1595 1.414 . S
C1594 C1597 1.499 . S
C1595 H1569 0.950 . S
C1595 C1594 1.414 . S
C1595 C1596 1.374 . S
C1596 H1570 0.950 . S
C1596 C1592 1.385 . S
C1596 C1595 1.374 . S
C1597 C1594 1.499 . S
C1597 C1598 1.373 . S
C1597 C1599 1.389 . S
C1598 H1571 0.950 . S
C1598 C1584 1.377 . S
C1598 C1597 1.373 . S
C1599 C1583 1.377 . S
C1599 C1597 1.389 . S
C1599 C1600 1.524 . S
C1600 C1599 1.524 . S
C1600 C1601 1.397 . S
C1600 C1605 1.363 . S
C1601 H1572 0.950 . S
C1601 C1600 1.397 . S
C1601 C1602 1.334 . S
C1602 H1573 0.950 . S
C1602 C1601 1.334 . S
C1602 C1603 1.287 . S
C1603 C1602 1.287 . S
C1603 C1604 1.524 . S
C1603 H1606 0.999 . S
C1604 H1574 0.950 . S
C1604 C1603 1.524 . S
C1604 C1605 1.415 . S
C1605 H1575 0.950 . S
C1605 C1600 1.363 . S
C1605 C1604 1.415 . S
H1606 C1603 0.999 . S
H1607 C1588 0.913 . S
H1608 C1626 0.951 . S
H1609 C1628 0.951 . S
H1610 C1630 0.950 . S
H1611 C1631 0.940 1_565 S
H1612 C1633 0.950 . S
H1613 C1636 0.950 . S
H1614 C1637 0.950 . S
H1615 C1639 0.950 . S
H1616 C1640 0.950 . S
H1617 C1641 0.951 . S
H1618 C1643 0.951 . S
H1619 C1645 0.950 . S
H1620 C1646 0.950 . S
H1621 C1648 0.950 . S
H1622 C1651 0.950 . S
H1623 C1652 0.950 . S
H1624 C1654 0.950 . S
H1625 C1655 0.950 . S
C1626 H1608 0.951 . S
C1626 C1627 1.366 . S
C1626 C1628 1.388 . S
C1627 C1626 1.366 . S
C1627 C1631 1.388 . S
C1628 H1609 0.951 . S
C1628 C1626 1.388 . S
C1628 C1629 1.366 . S
C1629 C1628 1.366 . S
C1629 C1630 1.414 . S
C1629 C1632 1.499 . S
C1630 H1610 0.950 . S
C1630 C1629 1.414 . S
C1630 C1631 1.381 . S
C1631 H1611 0.940 1_545 S
C1631 C1627 1.388 . S
C1631 C1630 1.381 . S
C1632 C1629 1.499 . S
C1632 C1633 1.373 . S
C1632 C1634 1.389 . S
C1633 H1612 0.950 . S
C1633 C1632 1.373 . S
C1633 C1649 1.377 . S
C1634 C1632 1.389 . S
C1634 C1635 1.524 . S
C1634 C1648 1.377 . S
C1635 C1634 1.524 . S
C1635 C1636 1.397 . S
C1635 C1640 1.363 . S
C1636 H1613 0.950 . S
C1636 C1635 1.397 . S
C1636 C1637 1.334 . S
C1637 H1614 0.950 . S
C1637 C1636 1.334 . S
C1637 C1638 1.287 . S
C1638 C1637 1.287 . S
C1638 C1639 1.524 . S
C1638 H1657 0.913 . S
C1639 H1615 0.950 . S
C1639 C1638 1.524 . S
C1639 C1640 1.415 . S
C1640 H1616 0.950 . S
C1640 C1635 1.363 . S
C1640 C1639 1.415 . S
C1641 H1617 0.951 . S
C1641 C1642 1.366 . S
C1641 C1643 1.388 . S
C1642 C1641 1.366 . S
C1642 C1646 1.385 . S
C1643 H1618 0.951 . S
C1643 C1641 1.388 . S
C1643 C1644 1.366 . S
C1644 C1643 1.366 . S
C1644 C1645 1.414 . S
C1644 C1647 1.499 . S
C1645 H1619 0.950 . S
C1645 C1644 1.414 . S
C1645 C1646 1.374 . S
C1646 H1620 0.950 . S
C1646 C1642 1.385 . S
C1646 C1645 1.374 . S
C1647 C1644 1.499 . S
C1647 C1648 1.373 . S
C1647 C1649 1.389 . S
C1648 H1621 0.950 . S
C1648 C1634 1.377 . S
C1648 C1647 1.373 . S
C1649 C1633 1.377 . S
C1649 C1647 1.389 . S
C1649 C1650 1.524 . S
C1650 C1649 1.524 . S
C1650 C1651 1.397 . S
C1650 C1655 1.363 . S
C1651 H1622 0.950 . S
C1651 C1650 1.397 . S
C1651 C1652 1.334 . S
C1652 H1623 0.950 . S
C1652 C1651 1.334 . S
C1652 C1653 1.287 . S
C1653 C1652 1.287 . S
C1653 C1654 1.524 . S
C1653 H1656 0.999 . S
C1654 H1624 0.950 . S
C1654 C1653 1.524 . S
C1654 C1655 1.415 . S
C1655 H1625 0.950 . S
C1655 C1650 1.363 . S
C1655 C1654 1.415 . S
H1656 C1653 0.999 . S
H1657 C1638 0.913 . S
H1658 C1676 0.951 . S
H1659 C1678 0.951 . S
H1660 C1680 0.950 . S
H1661 C1681 0.950 . S
H1662 C1683 0.950 . S
H1663 C1686 0.950 . S
H1664 C1687 0.950 . S
H1665 C1689 0.950 . S
H1666 C1690 0.950 . S
H1667 C1691 0.951 . S
H1668 C1693 0.951 . S
H1669 C1695 0.950 . S
H1670 C1696 0.950 . S
H1671 C1698 0.950 . S
H1672 C1701 0.950 . S
H1673 C1702 0.950 . S
H1674 C1704 0.950 . S
H1675 C1705 0.950 . S
C1676 H1658 0.951 . S
C1676 C1677 1.366 . S
C1676 C1678 1.388 . S
C1677 C1676 1.366 . S
C1677 C1681 1.385 . S
C1678 H1659 0.951 . S
C1678 C1676 1.388 . S
C1678 C1679 1.366 . S
C1679 C1678 1.366 . S
C1679 C1680 1.414 . S
C1679 C1682 1.499 . S
C1680 H1660 0.950 . S
C1680 C1679 1.414 . S
C1680 C1681 1.374 . S
C1681 H1661 0.950 . S
C1681 C1677 1.385 . S
C1681 C1680 1.374 . S
C1682 C1679 1.499 . S
C1682 C1683 1.373 . S
C1682 C1684 1.389 . S
C1683 H1662 0.950 . S
C1683 C1682 1.373 . S
C1683 C1699 1.377 . S
C1684 C1682 1.389 . S
C1684 C1685 1.524 . S
C1684 C1698 1.377 . S
C1685 C1684 1.524 . S
C1685 C1686 1.397 . S
C1685 C1690 1.363 . S
C1686 H1663 0.950 . S
C1686 C1685 1.397 . S
C1686 C1687 1.334 . S
C1687 H1664 0.950 . S
C1687 C1686 1.334 . S
C1687 C1688 1.287 . S
C1688 C1687 1.287 . S
C1688 C1689 1.524 . S
C1688 H1707 0.913 . S
C1689 H1665 0.950 . S
C1689 C1688 1.524 . S
C1689 C1690 1.415 . S
C1690 H1666 0.950 . S
C1690 C1685 1.363 . S
C1690 C1689 1.415 . S
C1691 H1667 0.951 . S
C1691 C1692 1.366 . S
C1691 C1693 1.388 . S
C1692 C1691 1.366 . S
C1692 C1696 1.385 . S
C1693 H1668 0.951 . S
C1693 C1691 1.388 . S
C1693 C1694 1.366 . S
C1694 C1693 1.366 . S
C1694 C1695 1.414 . S
C1694 C1697 1.499 . S
C1695 H1669 0.950 . S
C1695 C1694 1.414 . S
C1695 C1696 1.374 . S
C1696 H1670 0.950 . S
C1696 C1692 1.385 . S
C1696 C1695 1.374 . S
C1697 C1694 1.499 . S
C1697 C1698 1.373 . S
C1697 C1699 1.389 . S
C1698 H1671 0.950 . S
C1698 C1684 1.377 . S
C1698 C1697 1.373 . S
C1699 C1683 1.377 . S
C1699 C1697 1.389 . S
C1699 C1700 1.524 . S
C1700 C1699 1.524 . S
C1700 C1701 1.397 . S
C1700 C1705 1.363 . S
C1701 H1672 0.950 . S
C1701 C1700 1.397 . S
C1701 C1702 1.334 . S
C1702 H1673 0.950 . S
C1702 C1701 1.334 . S
C1702 C1703 1.287 . S
C1703 C1702 1.287 . S
C1703 C1704 1.524 . S
C1703 H1706 0.999 . S
C1704 H1674 0.950 . S
C1704 C1703 1.524 . S
C1704 C1705 1.415 . S
C1705 H1675 0.950 . S
C1705 C1700 1.363 . S
C1705 C1704 1.415 . S
H1706 C1703 0.999 . S
H1707 C1688 0.913 . S
H1708 C1726 0.951 . S
H1709 C1728 0.951 . S
H1710 C1730 0.950 . S
H1711 C1731 0.950 . S
H1712 C1733 0.950 . S
H1713 C1736 0.950 . S
H1714 C1737 0.950 . S
H1715 C1739 0.950 . S
H1716 C1740 0.950 . S
H1717 C1741 0.951 . S
H1718 C1743 0.951 . S
H1719 C1745 0.950 . S
H1720 C1746 0.950 . S
H1721 C1748 0.950 . S
H1722 C1751 0.950 . S
H1723 C1752 0.950 . S
H1724 C1754 0.950 . S
H1725 C1755 0.950 . S
C1726 H1708 0.951 . S
C1726 C1727 1.366 . S
C1726 C1728 1.388 . S
C1727 C1726 1.366 . S
C1727 C1731 1.385 . S
C1728 H1709 0.951 . S
C1728 C1726 1.388 . S
C1728 C1729 1.366 . S
C1729 C1728 1.366 . S
C1729 C1730 1.414 . S
C1729 C1732 1.499 . S
C1730 H1710 0.950 . S
C1730 C1729 1.414 . S
C1730 C1731 1.374 . S
C1731 H1711 0.950 . S
C1731 C1727 1.385 . S
C1731 C1730 1.374 . S
C1732 C1729 1.499 . S
C1732 C1733 1.373 . S
C1732 C1734 1.389 . S
C1733 H1712 0.950 . S
C1733 C1732 1.373 . S
C1733 C1749 1.377 . S
C1734 C1732 1.389 . S
C1734 C1735 1.524 . S
C1734 C1748 1.377 . S
C1735 C1734 1.524 . S
C1735 C1736 1.397 . S
C1735 C1740 1.363 . S
C1736 H1713 0.950 . S
C1736 C1735 1.397 . S
C1736 C1737 1.334 . S
C1737 H1714 0.950 . S
C1737 C1736 1.334 . S
C1737 C1738 1.287 . S
C1738 C1737 1.287 . S
C1738 C1739 1.524 . S
C1738 H1757 0.913 . S
C1739 H1715 0.950 . S
C1739 C1738 1.524 . S
C1739 C1740 1.415 . S
C1740 H1716 0.950 . S
C1740 C1735 1.363 . S
C1740 C1739 1.415 . S
C1741 H1717 0.951 . S
C1741 C1742 1.366 . S
C1741 C1743 1.388 . S
C1742 C1741 1.366 . S
C1742 C1746 1.385 . S
C1743 H1718 0.951 . S
C1743 C1741 1.388 . S
C1743 C1744 1.366 . S
C1744 C1743 1.366 . S
C1744 C1745 1.414 . S
C1744 C1747 1.499 . S
C1745 H1719 0.950 . S
C1745 C1744 1.414 . S
C1745 C1746 1.374 . S
C1746 H1720 0.950 . S
C1746 C1742 1.385 . S
C1746 C1745 1.374 . S
C1747 C1744 1.499 . S
C1747 C1748 1.373 . S
C1747 C1749 1.389 . S
C1748 H1721 0.950 . S
C1748 C1734 1.377 . S
C1748 C1747 1.373 . S
C1749 C1733 1.377 . S
C1749 C1747 1.389 . S
C1749 C1750 1.524 . S
C1750 C1749 1.524 . S
C1750 C1751 1.397 . S
C1750 C1755 1.363 . S
C1751 H1722 0.950 . S
C1751 C1750 1.397 . S
C1751 C1752 1.334 . S
C1752 H1723 0.950 . S
C1752 C1751 1.334 . S
C1752 C1753 1.287 . S
C1753 C1752 1.287 . S
C1753 C1754 1.524 . S
C1753 H1756 0.999 . S
C1754 H1724 0.950 . S
C1754 C1753 1.524 . S
C1754 C1755 1.415 . S
C1755 H1725 0.950 . S
C1755 C1750 1.363 . S
C1755 C1754 1.415 . S
H1756 C1753 0.999 . S
H1757 C1738 0.913 . S
H1758 C1776 0.951 . S
H1759 C1778 0.951 . S
H1760 C1780 0.950 . S
H1761 C1781 0.950 . S
H1762 C1783 0.950 . S
H1763 C1786 0.950 . S
H1764 C1787 0.950 . S
H1765 C1789 0.950 . S
H1766 C1790 0.950 . S
H1767 C1791 0.951 . S
H1768 C1793 0.951 . S
H1769 C1795 0.950 . S
H1770 C1796 0.950 . S
H1771 C1798 0.950 . S
H1772 C1801 0.950 . S
H1773 C1802 0.950 . S
H1774 C1804 0.950 . S
H1775 C1805 0.950 . S
C1776 H1758 0.951 . S
C1776 C1777 1.366 . S
C1776 C1778 1.388 . S
C1777 C1776 1.366 . S
C1777 C1781 1.385 . S
C1778 H1759 0.951 . S
C1778 C1776 1.388 . S
C1778 C1779 1.366 . S
C1779 C1778 1.366 . S
C1779 C1780 1.414 . S
C1779 C1782 1.499 . S
C1780 H1760 0.950 . S
C1780 C1779 1.414 . S
C1780 C1781 1.374 . S
C1781 H1761 0.950 . S
C1781 C1777 1.385 . S
C1781 C1780 1.374 . S
C1782 C1779 1.499 . S
C1782 C1783 1.373 . S
C1782 C1784 1.389 . S
C1783 H1762 0.950 . S
C1783 C1782 1.373 . S
C1783 C1799 1.377 . S
C1784 C1782 1.389 . S
C1784 C1785 1.524 . S
C1784 C1798 1.377 . S
C1785 C1784 1.524 . S
C1785 C1786 1.397 . S
C1785 C1790 1.363 . S
C1786 H1763 0.950 . S
C1786 C1785 1.397 . S
C1786 C1787 1.334 . S
C1787 H1764 0.950 . S
C1787 C1786 1.334 . S
C1787 C1788 1.287 . S
C1788 C1787 1.287 . S
C1788 C1789 1.524 . S
C1788 H1807 0.913 . S
C1789 H1765 0.950 . S
C1789 C1788 1.524 . S
C1789 C1790 1.415 . S
C1790 H1766 0.950 . S
C1790 C1785 1.363 . S
C1790 C1789 1.415 . S
C1791 H1767 0.951 . S
C1791 C1792 1.366 . S
C1791 C1793 1.388 . S
C1792 C1791 1.366 . S
C1792 C1796 1.385 . S
C1793 H1768 0.951 . S
C1793 C1791 1.388 . S
C1793 C1794 1.366 . S
C1794 C1793 1.366 . S
C1794 C1795 1.414 . S
C1794 C1797 1.499 . S
C1795 H1769 0.950 . S
C1795 C1794 1.414 . S
C1795 C1796 1.374 . S
C1796 H1770 0.950 . S
C1796 C1792 1.385 . S
C1796 C1795 1.374 . S
C1797 C1794 1.499 . S
C1797 C1798 1.373 . S
C1797 C1799 1.389 . S
C1798 H1771 0.950 . S
C1798 C1784 1.377 . S
C1798 C1797 1.373 . S
C1799 C1783 1.377 . S
C1799 C1797 1.389 . S
C1799 C1800 1.524 . S
C1800 C1799 1.524 . S
C1800 C1801 1.397 . S
C1800 C1805 1.363 . S
C1801 H1772 0.950 . S
C1801 C1800 1.397 . S
C1801 C1802 1.334 . S
C1802 H1773 0.950 . S
C1802 C1801 1.334 . S
C1802 C1803 1.287 . S
C1803 C1802 1.287 . S
C1803 C1804 1.524 . S
C1803 H1806 0.999 . S
C1804 H1774 0.950 . S
C1804 C1803 1.524 . S
C1804 C1805 1.415 . S
C1805 H1775 0.950 . S
C1805 C1800 1.363 . S
C1805 C1804 1.415 . S
H1806 C1803 0.999 . S
H1807 C1788 0.913 . S
H1808 C1826 0.951 . S
H1809 C1828 0.951 . S
H1810 C1830 0.950 . S
H1811 C1831 0.950 . S
H1812 C1833 0.950 . S
H1813 C1836 0.950 . S
H1814 C1837 0.950 . S
H1815 C1839 0.950 . S
H1816 C1840 0.950 . S
H1817 C1841 0.951 . S
H1818 C1843 0.951 . S
H1819 C1845 0.950 . S
H1820 C1846 0.950 . S
H1821 C1848 0.950 . S
H1822 C1851 0.950 . S
H1823 C1852 0.950 . S
H1824 C1854 0.950 . S
H1825 C1855 0.950 . S
C1826 H1808 0.951 . S
C1826 C1827 1.366 . S
C1826 C1828 1.388 . S
C1827 C1826 1.366 . S
C1827 C1831 1.385 . S
C1828 H1809 0.951 . S
C1828 C1826 1.388 . S
C1828 C1829 1.366 . S
C1829 C1828 1.366 . S
C1829 C1830 1.414 . S
C1829 C1832 1.499 . S
C1830 H1810 0.950 . S
C1830 C1829 1.414 . S
C1830 C1831 1.374 . S
C1831 H1811 0.950 . S
C1831 C1827 1.385 . S
C1831 C1830 1.374 . S
C1832 C1829 1.499 . S
C1832 C1833 1.373 . S
C1832 C1834 1.389 . S
C1833 H1812 0.950 . S
C1833 C1832 1.373 . S
C1833 C1849 1.377 . S
C1834 C1832 1.389 . S
C1834 C1835 1.524 . S
C1834 C1848 1.377 . S
C1835 C1834 1.524 . S
C1835 C1836 1.397 . S
C1835 C1840 1.363 . S
C1836 H1813 0.950 . S
C1836 C1835 1.397 . S
C1836 C1837 1.334 . S
C1837 H1814 0.950 . S
C1837 C1836 1.334 . S
C1837 C1838 1.287 . S
C1838 C1837 1.287 . S
C1838 C1839 1.524 . S
C1838 H1857 0.913 . S
C1839 H1815 0.950 . S
C1839 C1838 1.524 . S
C1839 C1840 1.415 . S
C1840 H1816 0.950 . S
C1840 C1835 1.363 . S
C1840 C1839 1.415 . S
C1841 H1817 0.951 . S
C1841 C1842 1.366 . S
C1841 C1843 1.388 . S
C1842 C1841 1.366 . S
C1842 C1846 1.385 . S
C1843 H1818 0.951 . S
C1843 C1841 1.388 . S
C1843 C1844 1.366 . S
C1844 C1843 1.366 . S
C1844 C1845 1.414 . S
C1844 C1847 1.499 . S
C1845 H1819 0.950 . S
C1845 C1844 1.414 . S
C1845 C1846 1.374 . S
C1846 H1820 0.950 . S
C1846 C1842 1.385 . S
C1846 C1845 1.374 . S
C1847 C1844 1.499 . S
C1847 C1848 1.373 . S
C1847 C1849 1.389 . S
C1848 H1821 0.950 . S
C1848 C1834 1.377 . S
C1848 C1847 1.373 . S
C1849 C1833 1.377 . S
C1849 C1847 1.389 . S
C1849 C1850 1.524 . S
C1850 C1849 1.524 . S
C1850 C1851 1.397 . S
C1850 C1855 1.363 . S
C1851 H1822 0.950 . S
C1851 C1850 1.397 . S
C1851 C1852 1.334 . S
C1852 H1823 0.950 . S
C1852 C1851 1.334 . S
C1852 C1853 1.287 . S
C1853 C1852 1.287 . S
C1853 C1854 1.524 . S
C1853 H1856 0.999 . S
C1854 H1824 0.950 . S
C1854 C1853 1.524 . S
C1854 C1855 1.415 . S
C1855 H1825 0.950 . S
C1855 C1850 1.363 . S
C1855 C1854 1.415 . S
H1856 C1853 0.999 . S
H1857 C1838 0.913 . S
H1858 C1876 0.951 . S
H1859 C1878 0.951 . S
H1860 C1880 0.950 . S
H1861 C1881 0.950 . S
H1862 C1883 0.950 . S
H1863 C1886 0.950 . S
H1864 C1887 0.950 . S
H1865 C1889 0.950 . S
H1866 C1890 0.950 . S
H1867 C1891 0.951 . S
H1868 C1893 0.951 . S
H1869 C1895 0.950 . S
H1870 C1896 0.946 1_565 S
H1871 C1898 0.950 1_565 S
H1872 C1901 0.950 . S
H1873 C1902 0.950 . S
H1874 C1904 0.950 . S
H1875 C1905 0.950 . S
C1876 H1858 0.951 . S
C1876 C1877 1.366 . S
C1876 C1878 1.388 . S
C1877 C1876 1.366 . S
C1877 C1881 1.385 . S
C1878 H1859 0.951 . S
C1878 C1876 1.388 . S
C1878 C1879 1.366 . S
C1879 C1878 1.366 . S
C1879 C1880 1.414 . S
C1879 C1882 1.499 . S
C1880 H1860 0.950 . S
C1880 C1879 1.414 . S
C1880 C1881 1.374 . S
C1881 H1861 0.950 . S
C1881 C1877 1.385 . S
C1881 C1880 1.374 . S
C1882 C1879 1.499 . S
C1882 C1883 1.373 . S
C1882 C1884 1.389 . S
C1883 H1862 0.950 . S
C1883 C1882 1.373 . S
C1883 C1899 1.377 . S
C1884 C1882 1.389 . S
C1884 C1885 1.524 1_545 S
C1884 C1898 1.377 . S
C1885 C1884 1.524 1_565 S
C1885 C1886 1.397 . S
C1885 C1890 1.363 . S
C1886 H1863 0.950 . S
C1886 C1885 1.397 . S
C1886 C1887 1.334 . S
C1887 H1864 0.950 . S
C1887 C1886 1.334 . S
C1887 C1888 1.287 . S
C1888 C1887 1.287 . S
C1888 C1889 1.524 . S
C1888 H1907 0.913 . S
C1889 H1865 0.950 . S
C1889 C1888 1.524 . S
C1889 C1890 1.415 . S
C1890 H1866 0.950 . S
C1890 C1885 1.363 . S
C1890 C1889 1.415 . S
C1891 H1867 0.951 . S
C1891 C1892 1.366 . S
C1891 C1893 1.388 . S
C1892 C1891 1.366 . S
C1892 C1896 1.385 . S
C1893 H1868 0.951 . S
C1893 C1891 1.388 . S
C1893 C1894 1.366 . S
C1894 C1893 1.366 . S
C1894 C1895 1.414 . S
C1894 C1897 1.499 . S
C1895 H1869 0.950 . S
C1895 C1894 1.414 . S
C1895 C1896 1.374 . S
C1896 H1870 0.946 1_545 S
C1896 C1892 1.385 . S
C1896 C1895 1.374 . S
C1897 C1894 1.499 . S
C1897 C1898 1.373 . S
C1897 C1899 1.389 . S
C1898 H1871 0.950 1_545 S
C1898 C1884 1.377 . S
C1898 C1897 1.373 . S
C1899 C1883 1.377 . S
C1899 C1897 1.389 . S
C1899 C1900 1.524 . S
C1900 C1899 1.524 . S
C1900 C1901 1.397 . S
C1900 C1905 1.363 . S
C1901 H1872 0.950 . S
C1901 C1900 1.397 . S
C1901 C1902 1.334 . S
C1902 H1873 0.950 . S
C1902 C1901 1.334 . S
C1902 C1903 1.287 . S
C1903 C1902 1.287 . S
C1903 C1904 1.524 . S
C1903 H1906 0.999 . S
C1904 H1874 0.950 . S
C1904 C1903 1.524 . S
C1904 C1905 1.415 . S
C1905 H1875 0.950 . S
C1905 C1900 1.363 . S
C1905 C1904 1.415 . S
H1906 C1903 0.999 . S
H1907 C1888 0.913 . S
H1908 C1926 0.951 . S
H1909 C1928 0.951 . S
H1910 C1930 0.950 . S
H1911 C1931 0.950 . S
H1912 C1933 0.950 . S
H1913 C1936 0.950 . S
H1914 C1937 0.950 . S
H1915 C1939 0.950 . S
H1916 C1940 0.950 . S
H1917 C1941 0.951 . S
H1918 C1943 0.951 . S
H1919 C1945 0.950 . S
H1920 C1946 0.950 . S
H1921 C1948 0.950 . S
H1922 C1951 0.950 . S
H1923 C1952 0.950 . S
H1924 C1954 0.950 . S
H1925 C1955 0.950 . S
C1926 H1908 0.951 . S
C1926 C1927 1.366 . S
C1926 C1928 1.388 . S
C1927 C1926 1.366 . S
C1927 C1931 1.385 . S
C1928 H1909 0.951 . S
C1928 C1926 1.388 . S
C1928 C1929 1.366 . S
C1929 C1928 1.366 . S
C1929 C1930 1.414 . S
C1929 C1932 1.499 . S
C1930 H1910 0.950 . S
C1930 C1929 1.414 . S
C1930 C1931 1.374 . S
C1931 H1911 0.950 . S
C1931 C1927 1.385 . S
C1931 C1930 1.374 . S
C1932 C1929 1.499 . S
C1932 C1933 1.373 . S
C1932 C1934 1.389 . S
C1933 H1912 0.950 . S
C1933 C1932 1.373 . S
C1933 C1949 1.377 . S
C1934 C1932 1.389 . S
C1934 C1935 1.524 . S
C1934 C1948 1.377 . S
C1935 C1934 1.524 . S
C1935 C1936 1.397 . S
C1935 C1940 1.363 . S
C1936 H1913 0.950 . S
C1936 C1935 1.397 . S
C1936 C1937 1.334 . S
C1937 H1914 0.950 . S
C1937 C1936 1.334 . S
C1937 C1938 1.287 . S
C1938 C1937 1.287 . S
C1938 C1939 1.524 . S
C1938 H1957 0.913 . S
C1939 H1915 0.950 . S
C1939 C1938 1.524 . S
C1939 C1940 1.415 . S
C1940 H1916 0.950 . S
C1940 C1935 1.363 . S
C1940 C1939 1.415 . S
C1941 H1917 0.951 . S
C1941 C1942 1.366 . S
C1941 C1943 1.388 . S
C1942 C1941 1.366 . S
C1942 C1946 1.385 . S
C1943 H1918 0.951 . S
C1943 C1941 1.388 . S
C1943 C1944 1.366 . S
C1944 C1943 1.366 . S
C1944 C1945 1.414 . S
C1944 C1947 1.499 . S
C1945 H1919 0.950 . S
C1945 C1944 1.414 . S
C1945 C1946 1.374 . S
C1946 H1920 0.950 . S
C1946 C1942 1.385 . S
C1946 C1945 1.374 . S
C1947 C1944 1.499 . S
C1947 C1948 1.373 . S
C1947 C1949 1.389 . S
C1948 H1921 0.950 . S
C1948 C1934 1.377 . S
C1948 C1947 1.373 . S
C1949 C1933 1.377 . S
C1949 C1947 1.389 . S
C1949 C1950 1.524 . S
C1950 C1949 1.524 . S
C1950 C1951 1.397 . S
C1950 C1955 1.363 . S
C1951 H1922 0.950 . S
C1951 C1950 1.397 . S
C1951 C1952 1.334 . S
C1952 H1923 0.950 . S
C1952 C1951 1.334 . S
C1952 C1953 1.287 . S
C1953 C1952 1.287 . S
C1953 C1954 1.524 . S
C1953 H1956 0.999 . S
C1954 H1924 0.950 . S
C1954 C1953 1.524 . S
C1954 C1955 1.415 . S
C1955 H1925 0.950 . S
C1955 C1950 1.363 . S
C1955 C1954 1.415 . S
H1956 C1953 0.999 . S
H1957 C1938 0.913 . S
H1958 C1976 0.951 . S
H1959 C1978 0.951 . S
H1960 C1980 0.950 . S
H1961 C1981 0.950 . S
H1962 C1983 0.950 . S
H1963 C1986 0.950 . S
H1964 C1987 0.950 . S
H1965 C1989 0.950 . S
H1966 C1990 0.950 . S
H1967 C1991 0.951 . S
H1968 C1993 0.951 . S
H1969 C1995 0.950 . S
H1970 C1996 0.950 . S
H1971 C1998 0.950 . S
H1972 C2001 0.950 . S
H1973 C2002 0.950 . S
H1974 C2004 0.950 . S
H1975 C2005 0.950 . S
C1976 H1958 0.951 . S
C1976 C1977 1.366 . S
C1976 C1978 1.388 . S
C1977 C1976 1.366 . S
C1977 C1981 1.385 . S
C1978 H1959 0.951 . S
C1978 C1976 1.388 . S
C1978 C1979 1.366 . S
C1979 C1978 1.366 . S
C1979 C1980 1.414 . S
C1979 C1982 1.499 . S
C1980 H1960 0.950 . S
C1980 C1979 1.414 . S
C1980 C1981 1.374 . S
C1981 H1961 0.950 . S
C1981 C1977 1.385 . S
C1981 C1980 1.374 . S
C1982 C1979 1.499 . S
C1982 C1983 1.373 . S
C1982 C1984 1.389 . S
C1983 H1962 0.950 . S
C1983 C1982 1.373 . S
C1983 C1999 1.377 . S
C1984 C1982 1.389 . S
C1984 C1985 1.524 . S
C1984 C1998 1.377 . S
C1985 C1984 1.524 . S
C1985 C1986 1.397 . S
C1985 C1990 1.363 . S
C1986 H1963 0.950 . S
C1986 C1985 1.397 . S
C1986 C1987 1.334 . S
C1987 H1964 0.950 . S
C1987 C1986 1.334 . S
C1987 C1988 1.287 . S
C1988 C1987 1.287 . S
C1988 C1989 1.524 . S
C1988 H2007 0.913 . S
C1989 H1965 0.950 . S
C1989 C1988 1.524 . S
C1989 C1990 1.415 . S
C1990 H1966 0.950 . S
C1990 C1985 1.363 . S
C1990 C1989 1.415 . S
C1991 H1967 0.951 . S
C1991 C1992 1.366 . S
C1991 C1993 1.388 . S
C1992 C1991 1.366 . S
C1992 C1996 1.385 . S
C1993 H1968 0.951 . S
C1993 C1991 1.388 . S
C1993 C1994 1.366 . S
C1994 C1993 1.366 . S
C1994 C1995 1.414 . S
C1994 C1997 1.499 . S
C1995 H1969 0.950 . S
C1995 C1994 1.414 . S
C1995 C1996 1.374 . S
C1996 H1970 0.950 . S
C1996 C1992 1.385 . S
C1996 C1995 1.374 . S
C1997 C1994 1.499 . S
C1997 C1998 1.373 . S
C1997 C1999 1.389 . S
C1998 H1971 0.950 . S
C1998 C1984 1.377 . S
C1998 C1997 1.373 . S
C1999 C1983 1.377 . S
C1999 C1997 1.389 . S
C1999 C2000 1.524 . S
C2000 C1999 1.524 . S
C2000 C2001 1.397 . S
C2000 C2005 1.363 . S
C2001 H1972 0.950 . S
C2001 C2000 1.397 . S
C2001 C2002 1.334 . S
C2002 H1973 0.950 . S
C2002 C2001 1.334 . S
C2002 C2003 1.287 . S
C2003 C2002 1.287 . S
C2003 C2004 1.524 . S
C2003 H2006 0.999 . S
C2004 H1974 0.950 . S
C2004 C2003 1.524 . S
C2004 C2005 1.415 . S
C2005 H1975 0.950 . S
C2005 C2000 1.363 . S
C2005 C2004 1.415 . S
H2006 C2003 0.999 . S
H2007 C1988 0.913 . S
H2008 C2026 0.951 . S
H2009 C2028 0.951 . S
H2010 C2030 0.950 . S
H2011 C2031 0.950 . S
H2012 C2033 0.950 . S
H2013 C2036 0.950 . S
H2014 C2037 0.950 . S
H2015 C2039 0.950 . S
H2016 C2040 0.950 . S
H2017 C2041 0.951 . S
H2018 C2043 0.951 . S
H2019 C2045 0.950 . S
H2020 C2046 0.950 . S
H2021 C2048 0.950 . S
H2022 C2051 0.950 . S
H2023 C2052 0.950 . S
H2024 C2054 0.950 . S
H2025 C2055 0.950 . S
C2026 H2008 0.951 . S
C2026 C2027 1.366 . S
C2026 C2028 1.388 . S
C2027 C2026 1.366 . S
C2027 C2031 1.385 . S
C2028 H2009 0.951 . S
C2028 C2026 1.388 . S
C2028 C2029 1.366 . S
C2029 C2028 1.366 . S
C2029 C2030 1.414 . S
C2029 C2032 1.499 . S
C2030 H2010 0.950 . S
C2030 C2029 1.414 . S
C2030 C2031 1.374 . S
C2031 H2011 0.950 . S
C2031 C2027 1.385 . S
C2031 C2030 1.374 . S
C2032 C2029 1.499 . S
C2032 C2033 1.373 . S
C2032 C2034 1.389 . S
C2033 H2012 0.950 . S
C2033 C2032 1.373 . S
C2033 C2049 1.377 . S
C2034 C2032 1.389 . S
C2034 C2035 1.524 . S
C2034 C2048 1.377 . S
C2035 C2034 1.524 . S
C2035 C2036 1.397 . S
C2035 C2040 1.363 . S
C2036 H2013 0.950 . S
C2036 C2035 1.397 . S
C2036 C2037 1.334 . S
C2037 H2014 0.950 . S
C2037 C2036 1.334 . S
C2037 C2038 1.287 . S
C2038 C2037 1.287 . S
C2038 C2039 1.524 . S
C2038 H2057 0.913 . S
C2039 H2015 0.950 . S
C2039 C2038 1.524 . S
C2039 C2040 1.415 . S
C2040 H2016 0.950 . S
C2040 C2035 1.363 . S
C2040 C2039 1.415 . S
C2041 H2017 0.951 . S
C2041 C2042 1.366 . S
C2041 C2043 1.388 . S
C2042 C2041 1.366 . S
C2042 C2046 1.385 . S
C2043 H2018 0.951 . S
C2043 C2041 1.388 . S
C2043 C2044 1.366 . S
C2044 C2043 1.366 . S
C2044 C2045 1.414 . S
C2044 C2047 1.499 . S
C2045 H2019 0.950 . S
C2045 C2044 1.414 . S
C2045 C2046 1.374 . S
C2046 H2020 0.950 . S
C2046 C2042 1.385 . S
C2046 C2045 1.374 . S
C2047 C2044 1.499 . S
C2047 C2048 1.373 . S
C2047 C2049 1.389 . S
C2048 H2021 0.950 . S
C2048 C2034 1.377 . S
C2048 C2047 1.373 . S
C2049 C2033 1.377 . S
C2049 C2047 1.389 . S
C2049 C2050 1.524 . S
C2050 C2049 1.524 . S
C2050 C2051 1.397 . S
C2050 C2055 1.363 . S
C2051 H2022 0.950 . S
C2051 C2050 1.397 . S
C2051 C2052 1.334 . S
C2052 H2023 0.950 . S
C2052 C2051 1.334 . S
C2052 C2053 1.287 . S
C2053 C2052 1.287 . S
C2053 C2054 1.524 . S
C2053 H2056 0.999 . S
C2054 H2024 0.950 . S
C2054 C2053 1.524 . S
C2054 C2055 1.415 . S
C2055 H2025 0.950 . S
C2055 C2050 1.363 . S
C2055 C2054 1.415 . S
H2056 C2053 0.999 . S
H2057 C2038 0.913 . S
H2058 C2076 0.951 . S
H2059 C2078 0.951 . S
H2060 C2080 0.950 1_655 S
H2061 C2081 0.950 . S
H2062 C2083 0.950 . S
H2063 C2086 0.949 1_565 S
H2064 C2087 0.950 . S
H2065 C2089 0.950 . S
H2066 C2090 0.950 . S
H2067 C2091 0.951 . S
H2068 C2093 0.951 . S
H2069 C2095 0.950 . S
H2070 C2096 0.950 . S
H2071 C2098 0.950 . S
H2072 C2101 0.950 . S
H2073 C2102 0.950 . S
H2074 C2104 0.950 . S
H2075 C2105 0.950 . S
C2076 H2058 0.951 . S
C2076 C2077 1.366 . S
C2076 C2078 1.388 . S
C2077 C2076 1.366 . S
C2077 C2081 1.385 . S
C2078 H2059 0.951 . S
C2078 C2076 1.388 . S
C2078 C2079 1.366 . S
C2079 C2078 1.366 . S
C2079 C2080 1.414 . S
C2079 C2082 1.499 . S
C2080 H2060 0.950 1_455 S
C2080 C2079 1.414 . S
C2080 C2081 1.374 . S
C2081 H2061 0.950 . S
C2081 C2077 1.385 . S
C2081 C2080 1.374 . S
C2082 C2079 1.499 . S
C2082 C2083 1.373 1_455 S
C2082 C2084 1.389 . S
C2083 H2062 0.950 . S
C2083 C2082 1.373 1_655 S
C2083 C2099 1.377 . S
C2084 C2082 1.389 . S
C2084 C2085 1.524 . S
C2084 C2098 1.377 . S
C2085 C2084 1.524 . S
C2085 C2086 1.413 . S
C2085 C2090 1.363 . S
C2086 H2063 0.949 1_545 S
C2086 C2085 1.413 . S
C2086 C2087 1.319 1_545 S
C2087 H2064 0.950 . S
C2087 C2086 1.319 1_565 S
C2087 C2088 1.287 . S
C2088 C2087 1.287 . S
C2088 C2089 1.524 1_565 S
C2088 H2107 0.913 . S
C2089 H2065 0.950 . S
C2089 C2088 1.524 1_545 S
C2089 C2090 1.415 . S
C2090 H2066 0.950 . S
C2090 C2085 1.363 . S
C2090 C2089 1.415 . S
C2091 H2067 0.951 . S
C2091 C2092 1.366 . S
C2091 C2093 1.388 . S
C2092 C2091 1.366 . S
C2092 C2096 1.385 . S
C2093 H2068 0.951 . S
C2093 C2091 1.388 . S
C2093 C2094 1.366 . S
C2094 C2093 1.366 . S
C2094 C2095 1.414 . S
C2094 C2097 1.499 . S
C2095 H2069 0.950 . S
C2095 C2094 1.414 . S
C2095 C2096 1.374 . S
C2096 H2070 0.950 . S
C2096 C2092 1.385 . S
C2096 C2095 1.374 . S
C2097 C2094 1.499 . S
C2097 C2098 1.373 1_655 S
C2097 C2099 1.389 . S
C2098 H2071 0.950 . S
C2098 C2084 1.377 . S
C2098 C2097 1.373 1_455 S
C2099 C2083 1.377 . S
C2099 C2097 1.389 . S
C2099 C2100 1.524 . S
C2100 C2099 1.524 . S
C2100 C2101 1.397 . S
C2100 C2105 1.363 . S
C2101 H2072 0.950 . S
C2101 C2100 1.397 . S
C2101 C2102 1.334 . S
C2102 H2073 0.950 . S
C2102 C2101 1.334 . S
C2102 C2103 1.287 . S
C2103 C2102 1.287 . S
C2103 C2104 1.524 . S
C2103 H2106 0.999 . S
C2104 H2074 0.950 . S
C2104 C2103 1.524 . S
C2104 C2105 1.415 . S
C2105 H2075 0.950 . S
C2105 C2100 1.363 . S
C2105 C2104 1.415 . S
H2106 C2103 0.999 . S
H2107 C2088 0.913 . S
H2108 C2126 0.951 . S
H2109 C2128 0.951 . S
H2110 C2130 0.950 . S
H2111 C2131 0.950 . S
H2112 C2133 0.950 . S
H2113 C2136 0.950 . S
H2114 C2137 0.950 . S
H2115 C2139 0.950 . S
H2116 C2140 0.950 . S
H2117 C2141 0.951 . S
H2118 C2143 0.951 . S
H2119 C2145 0.950 . S
H2120 C2146 0.950 . S
H2121 C2148 0.950 . S
H2122 C2151 0.950 . S
H2123 C2152 0.950 . S
H2124 C2154 0.950 . S
H2125 C2155 0.950 . S
C2126 H2108 0.951 . S
C2126 C2127 1.366 . S
C2126 C2128 1.388 . S
C2127 C2126 1.366 . S
C2127 C2131 1.385 . S
C2128 H2109 0.951 . S
C2128 C2126 1.388 . S
C2128 C2129 1.366 . S
C2129 C2128 1.366 . S
C2129 C2130 1.414 . S
C2129 C2132 1.499 . S
C2130 H2110 0.950 . S
C2130 C2129 1.414 . S
C2130 C2131 1.374 . S
C2131 H2111 0.950 . S
C2131 C2127 1.385 . S
C2131 C2130 1.374 . S
C2132 C2129 1.499 . S
C2132 C2133 1.373 . S
C2132 C2134 1.389 . S
C2133 H2112 0.950 . S
C2133 C2132 1.373 . S
C2133 C2149 1.377 . S
C2134 C2132 1.389 . S
C2134 C2135 1.524 . S
C2134 C2148 1.377 . S
C2135 C2134 1.524 . S
C2135 C2136 1.397 . S
C2135 C2140 1.363 . S
C2136 H2113 0.950 . S
C2136 C2135 1.397 . S
C2136 C2137 1.334 . S
C2137 H2114 0.950 . S
C2137 C2136 1.334 . S
C2137 C2138 1.287 . S
C2138 C2137 1.287 . S
C2138 C2139 1.524 . S
C2138 H2157 0.913 . S
C2139 H2115 0.950 . S
C2139 C2138 1.524 . S
C2139 C2140 1.415 . S
C2140 H2116 0.950 . S
C2140 C2135 1.363 . S
C2140 C2139 1.415 . S
C2141 H2117 0.951 . S
C2141 C2142 1.366 . S
C2141 C2143 1.388 . S
C2142 C2141 1.366 . S
C2142 C2146 1.385 . S
C2143 H2118 0.951 . S
C2143 C2141 1.388 . S
C2143 C2144 1.366 . S
C2144 C2143 1.366 . S
C2144 C2145 1.414 . S
C2144 C2147 1.499 . S
C2145 H2119 0.950 . S
C2145 C2144 1.414 . S
C2145 C2146 1.374 . S
C2146 H2120 0.950 . S
C2146 C2142 1.385 . S
C2146 C2145 1.374 . S
C2147 C2144 1.499 . S
C2147 C2148 1.373 . S
C2147 C2149 1.389 . S
C2148 H2121 0.950 . S
C2148 C2134 1.377 . S
C2148 C2147 1.373 . S
C2149 C2133 1.377 . S
C2149 C2147 1.389 . S
C2149 C2150 1.524 . S
C2150 C2149 1.524 . S
C2150 C2151 1.397 . S
C2150 C2155 1.363 . S
C2151 H2122 0.950 . S
C2151 C2150 1.397 . S
C2151 C2152 1.334 . S
C2152 H2123 0.950 . S
C2152 C2151 1.334 . S
C2152 C2153 1.287 . S
C2153 C2152 1.287 . S
C2153 C2154 1.524 . S
C2153 H2156 0.999 . S
C2154 H2124 0.950 . S
C2154 C2153 1.524 . S
C2154 C2155 1.415 . S
C2155 H2125 0.950 . S
C2155 C2150 1.363 . S
C2155 C2154 1.415 . S
H2156 C2153 0.999 . S
H2157 C2138 0.913 . S
H2158 C2176 0.951 1_655 S
H2159 C2178 0.951 . S
H2160 C2180 0.950 . S
H2161 C2181 0.950 . S
H2162 C2183 0.950 . S
H2163 C2186 0.950 . S
H2164 C2187 0.950 . S
H2165 C2189 0.950 1_655 S
H2166 C2190 0.950 . S
H2167 C2191 0.951 . S
H2168 C2193 0.951 . S
H2169 C2195 0.950 . S
H2170 C2196 0.950 . S
H2171 C2198 0.950 . S
H2172 C2201 0.950 . S
H2173 C2202 0.950 . S
H2174 C2204 0.950 . S
H2175 C2205 0.950 . S
C2176 H2158 0.951 1_455 S
C2176 C2177 1.366 . S
C2176 C2178 1.388 . S
C2177 C2176 1.366 . S
C2177 C2181 1.385 . S
C2178 H2159 0.951 . S
C2178 C2176 1.388 . S
C2178 C2179 1.366 . S
C2179 C2178 1.366 . S
C2179 C2180 1.414 . S
C2179 C2182 1.499 . S
C2180 H2160 0.950 . S
C2180 C2179 1.414 . S
C2180 C2181 1.374 . S
C2181 H2161 0.950 . S
C2181 C2177 1.385 . S
C2181 C2180 1.374 . S
C2182 C2179 1.499 . S
C2182 C2183 1.373 . S
C2182 C2184 1.389 . S
C2183 H2162 0.950 . S
C2183 C2182 1.373 . S
C2183 C2199 1.377 . S
C2184 C2182 1.389 . S
C2184 C2185 1.524 . S
C2184 C2198 1.377 . S
C2185 C2184 1.524 . S
C2185 C2186 1.397 . S
C2185 C2190 1.363 . S
C2186 H2163 0.950 . S
C2186 C2185 1.397 . S
C2186 C2187 1.334 . S
C2187 H2164 0.950 . S
C2187 C2186 1.334 . S
C2187 C2188 1.287 . S
C2188 C2187 1.287 . S
C2188 C2189 1.524 . S
C2188 H2207 0.913 1_455 S
C2189 H2165 0.950 1_455 S
C2189 C2188 1.524 . S
C2189 C2190 1.415 . S
C2190 H2166 0.950 . S
C2190 C2185 1.363 . S
C2190 C2189 1.415 . S
C2191 H2167 0.951 . S
C2191 C2192 1.366 . S
C2191 C2193 1.388 . S
C2192 C2191 1.366 . S
C2192 C2196 1.385 . S
C2193 H2168 0.951 . S
C2193 C2191 1.388 . S
C2193 C2194 1.366 . S
C2194 C2193 1.366 . S
C2194 C2195 1.414 . S
C2194 C2197 1.499 . S
C2195 H2169 0.950 . S
C2195 C2194 1.414 . S
C2195 C2196 1.374 . S
C2196 H2170 0.950 . S
C2196 C2192 1.385 . S
C2196 C2195 1.374 . S
C2197 C2194 1.499 . S
C2197 C2198 1.373 . S
C2197 C2199 1.389 . S
C2198 H2171 0.950 . S
C2198 C2184 1.377 . S
C2198 C2197 1.373 . S
C2199 C2183 1.377 . S
C2199 C2197 1.389 . S
C2199 C2200 1.524 . S
C2200 C2199 1.524 . S
C2200 C2201 1.397 . S
C2200 C2205 1.363 . S
C2201 H2172 0.950 . S
C2201 C2200 1.397 . S
C2201 C2202 1.334 . S
C2202 H2173 0.950 . S
C2202 C2201 1.334 . S
C2202 C2203 1.287 . S
C2203 C2202 1.287 . S
C2203 C2204 1.524 . S
C2203 H2206 0.999 . S
C2204 H2174 0.950 . S
C2204 C2203 1.524 . S
C2204 C2205 1.415 . S
C2205 H2175 0.950 . S
C2205 C2200 1.363 . S
C2205 C2204 1.415 . S
H2206 C2203 0.999 . S
H2207 C2188 0.913 1_655 S
H2208 C2226 0.951 . S
H2209 C2228 0.951 . S
H2210 C2230 0.950 . S
H2211 C2231 0.950 . S
H2212 C2233 0.950 . S
H2213 C2236 0.950 . S
H2214 C2237 0.950 . S
H2215 C2239 0.950 . S
H2216 C2240 0.950 . S
H2217 C2241 0.951 . S
H2218 C2243 0.951 . S
H2219 C2245 0.950 . S
H2220 C2246 0.950 . S
H2221 C2248 0.950 . S
H2222 C2251 0.950 . S
H2223 C2252 0.950 . S
H2224 C2254 0.950 . S
H2225 C2255 0.950 . S
C2226 H2208 0.951 . S
C2226 C2227 1.366 . S
C2226 C2228 1.388 . S
C2227 C2226 1.366 . S
C2227 C2231 1.385 . S
C2228 H2209 0.951 . S
C2228 C2226 1.388 . S
C2228 C2229 1.366 . S
C2229 C2228 1.366 . S
C2229 C2230 1.414 . S
C2229 C2232 1.499 . S
C2230 H2210 0.950 . S
C2230 C2229 1.414 . S
C2230 C2231 1.374 . S
C2231 H2211 0.950 . S
C2231 C2227 1.385 . S
C2231 C2230 1.374 . S
C2232 C2229 1.499 . S
C2232 C2233 1.373 . S
C2232 C2234 1.389 . S
C2233 H2212 0.950 . S
C2233 C2232 1.373 . S
C2233 C2249 1.377 . S
C2234 C2232 1.389 . S
C2234 C2235 1.524 . S
C2234 C2248 1.377 . S
C2235 C2234 1.524 . S
C2235 C2236 1.397 . S
C2235 C2240 1.363 . S
C2236 H2213 0.950 . S
C2236 C2235 1.397 . S
C2236 C2237 1.334 . S
C2237 H2214 0.950 . S
C2237 C2236 1.334 . S
C2237 C2238 1.287 . S
C2238 C2237 1.287 . S
C2238 C2239 1.524 . S
C2238 H2257 0.913 . S
C2239 H2215 0.950 . S
C2239 C2238 1.524 . S
C2239 C2240 1.415 . S
C2240 H2216 0.950 . S
C2240 C2235 1.363 . S
C2240 C2239 1.415 . S
C2241 H2217 0.951 . S
C2241 C2242 1.366 . S
C2241 C2243 1.388 . S
C2242 C2241 1.366 . S
C2242 C2246 1.385 . S
C2243 H2218 0.951 . S
C2243 C2241 1.388 . S
C2243 C2244 1.366 . S
C2244 C2243 1.366 . S
C2244 C2245 1.414 . S
C2244 C2247 1.499 . S
C2245 H2219 0.950 . S
C2245 C2244 1.414 . S
C2245 C2246 1.374 . S
C2246 H2220 0.950 . S
C2246 C2242 1.385 . S
C2246 C2245 1.374 . S
C2247 C2244 1.499 . S
C2247 C2248 1.373 . S
C2247 C2249 1.389 . S
C2248 H2221 0.950 . S
C2248 C2234 1.377 . S
C2248 C2247 1.373 . S
C2249 C2233 1.377 . S
C2249 C2247 1.389 . S
C2249 C2250 1.524 . S
C2250 C2249 1.524 . S
C2250 C2251 1.397 . S
C2250 C2255 1.363 . S
C2251 H2222 0.950 . S
C2251 C2250 1.397 . S
C2251 C2252 1.334 . S
C2252 H2223 0.950 . S
C2252 C2251 1.334 . S
C2252 C2253 1.287 . S
C2253 C2252 1.287 . S
C2253 C2254 1.524 . S
C2253 H2256 0.999 . S
C2254 H2224 0.950 . S
C2254 C2253 1.524 . S
C2254 C2255 1.415 . S
C2255 H2225 0.950 . S
C2255 C2250 1.363 . S
C2255 C2254 1.415 . S
H2256 C2253 0.999 . S
H2257 C2238 0.913 . S
H2258 C2276 0.951 . S
H2259 C2278 0.951 . S
H2260 C2280 0.963 . S
H2261 C2281 0.950 . S
H2262 C2283 0.950 . S
H2263 C2286 0.950 . S
H2264 C2287 0.950 . S
H2265 C2289 0.950 . S
H2266 C2290 0.950 . S
H2267 C2291 0.951 1_655 S
H2268 C2293 0.951 1_655 S
H2269 C2295 0.950 . S
H2270 C2296 0.950 . S
H2271 C2298 0.950 . S
H2272 C2301 0.950 . S
H2273 C2302 0.950 . S
H2274 C2304 0.950 . S
H2275 C2305 0.946 1_654 S
C2276 H2258 0.951 . S
C2276 C2277 1.366 1_456 S
C2276 C2278 1.388 . S
C2277 C2276 1.366 1_654 S
C2277 C2281 1.385 . S
C2278 H2259 0.951 . S
C2278 C2276 1.388 . S
C2278 C2279 1.377 . S
C2279 C2278 1.377 . S
C2279 C2280 1.372 1_456 S
C2279 C2282 1.504 . S
C2280 H2260 0.963 . S
C2280 C2279 1.372 1_654 S
C2280 C2281 1.388 . S
C2281 H2261 0.950 . S
C2281 C2277 1.385 . S
C2281 C2280 1.388 . S
C2282 C2279 1.504 . S
C2282 C2283 1.373 . S
C2282 C2284 1.389 . S
C2283 H2262 0.950 . S
C2283 C2282 1.373 . S
C2283 C2299 1.377 . S
C2284 C2282 1.389 . S
C2284 C2285 1.524 1_455 S
C2284 C2298 1.377 . S
C2285 C2284 1.524 1_655 S
C2285 C2286 1.397 . S
C2285 C2290 1.363 1_655 S
C2286 H2263 0.950 . S
C2286 C2285 1.397 . S
C2286 C2287 1.334 . S
C2287 H2264 0.950 . S
C2287 C2286 1.334 . S
C2287 C2288 1.287 . S
C2288 C2287 1.287 . S
C2288 C2289 1.524 1_655 S
C2288 H2307 0.913 . S
C2289 H2265 0.950 . S
C2289 C2288 1.524 1_455 S
C2289 C2290 1.415 . S
C2290 H2266 0.950 . S
C2290 C2285 1.363 1_455 S
C2290 C2289 1.415 . S
C2291 H2267 0.951 1_455 S
C2291 C2292 1.366 . S
C2291 C2293 1.388 . S
C2292 C2291 1.366 . S
C2292 C2296 1.385 . S
C2293 H2268 0.951 1_455 S
C2293 C2291 1.388 . S
C2293 C2294 1.366 . S
C2294 C2293 1.366 . S
C2294 C2295 1.414 . S
C2294 C2297 1.499 . S
C2295 H2269 0.950 . S
C2295 C2294 1.414 . S
C2295 C2296 1.374 . S
C2296 H2270 0.950 . S
C2296 C2292 1.385 . S
C2296 C2295 1.374 . S
C2297 C2294 1.499 . S
C2297 C2298 1.373 . S
C2297 C2299 1.389 . S
C2298 H2271 0.950 . S
C2298 C2284 1.377 . S
C2298 C2297 1.373 . S
C2299 C2283 1.377 . S
C2299 C2297 1.389 . S
C2299 C2300 1.524 . S
C2300 C2299 1.524 . S
C2300 C2301 1.397 . S
C2300 C2305 1.363 . S
C2301 H2272 0.950 . S
C2301 C2300 1.397 . S
C2301 C2302 1.334 . S
C2302 H2273 0.950 . S
C2302 C2301 1.334 . S
C2302 C2303 1.287 1_556 S
C2303 C2302 1.287 1_554 S
C2303 C2304 1.524 . S
C2303 H2306 0.999 . S
C2304 H2274 0.950 . S
C2304 C2303 1.524 . S
C2304 C2305 1.415 1_554 S
C2305 H2275 0.946 1_456 S
C2305 C2300 1.363 . S
C2305 C2304 1.415 1_556 S
H2306 C2303 0.999 . S
H2307 C2288 0.913 . S
H2308 C2326 0.951 . S
H2309 C2328 0.951 . S
H2310 C2330 0.950 . S
H2311 C2331 0.950 . S
H2312 C2333 0.950 . S
H2313 C2336 0.950 . S
H2314 C2337 0.950 . S
H2315 C2339 0.950 . S
H2316 C2340 0.950 . S
H2317 C2341 0.951 . S
H2318 C2343 0.951 . S
H2319 C2345 0.950 . S
H2320 C2346 0.950 . S
H2321 C2348 0.950 . S
H2322 C2351 0.950 . S
H2323 C2352 0.950 . S
H2324 C2354 0.950 . S
H2325 C2355 0.950 . S
C2326 H2308 0.951 . S
C2326 C2327 1.366 . S
C2326 C2328 1.388 . S
C2327 C2326 1.366 . S
C2327 C2331 1.385 . S
C2328 H2309 0.951 . S
C2328 C2326 1.388 . S
C2328 C2329 1.366 . S
C2329 C2328 1.366 . S
C2329 C2330 1.414 . S
C2329 C2332 1.499 . S
C2330 H2310 0.950 . S
C2330 C2329 1.414 . S
C2330 C2331 1.374 . S
C2331 H2311 0.950 . S
C2331 C2327 1.385 . S
C2331 C2330 1.374 . S
C2332 C2329 1.499 . S
C2332 C2333 1.373 . S
C2332 C2334 1.389 . S
C2333 H2312 0.950 . S
C2333 C2332 1.373 . S
C2333 C2349 1.377 . S
C2334 C2332 1.389 . S
C2334 C2335 1.524 . S
C2334 C2348 1.377 . S
C2335 C2334 1.524 . S
C2335 C2336 1.397 . S
C2335 C2340 1.363 . S
C2336 H2313 0.950 . S
C2336 C2335 1.397 . S
C2336 C2337 1.334 . S
C2337 H2314 0.950 . S
C2337 C2336 1.334 . S
C2337 C2338 1.287 . S
C2338 C2337 1.287 . S
C2338 C2339 1.524 . S
C2338 H2357 0.913 . S
C2339 H2315 0.950 . S
C2339 C2338 1.524 . S
C2339 C2340 1.415 . S
C2340 H2316 0.950 . S
C2340 C2335 1.363 . S
C2340 C2339 1.415 . S
C2341 H2317 0.951 . S
C2341 C2342 1.366 . S
C2341 C2343 1.388 . S
C2342 C2341 1.366 . S
C2342 C2346 1.385 . S
C2343 H2318 0.951 . S
C2343 C2341 1.388 . S
C2343 C2344 1.366 . S
C2344 C2343 1.366 . S
C2344 C2345 1.414 . S
C2344 C2347 1.499 . S
C2345 H2319 0.950 . S
C2345 C2344 1.414 . S
C2345 C2346 1.374 . S
C2346 H2320 0.950 . S
C2346 C2342 1.385 . S
C2346 C2345 1.374 . S
C2347 C2344 1.499 . S
C2347 C2348 1.373 . S
C2347 C2349 1.389 . S
C2348 H2321 0.950 . S
C2348 C2334 1.377 . S
C2348 C2347 1.373 . S
C2349 C2333 1.377 . S
C2349 C2347 1.389 . S
C2349 C2350 1.524 . S
C2350 C2349 1.524 . S
C2350 C2351 1.397 . S
C2350 C2355 1.363 . S
C2351 H2322 0.950 . S
C2351 C2350 1.397 . S
C2351 C2352 1.334 . S
C2352 H2323 0.950 . S
C2352 C2351 1.334 . S
C2352 C2353 1.287 . S
C2353 C2352 1.287 . S
C2353 C2354 1.524 . S
C2353 H2356 0.999 . S
C2354 H2324 0.950 . S
C2354 C2353 1.524 . S
C2354 C2355 1.415 . S
C2355 H2325 0.950 . S
C2355 C2350 1.363 . S
C2355 C2354 1.415 . S
H2356 C2353 0.999 . S
H2357 C2338 0.913 . S
H2358 C2376 0.951 . S
H2359 C2378 0.951 . S
H2360 C2380 0.950 . S
H2361 C2381 0.950 . S
H2362 C2383 0.950 . S
H2363 C2386 0.950 . S
H2364 C2387 0.950 . S
H2365 C2389 0.950 . S
H2366 C2390 0.950 . S
H2367 C2391 0.951 . S
H2368 C2393 0.951 . S
H2369 C2395 0.950 . S
H2370 C2396 0.950 . S
H2371 C2398 0.950 . S
H2372 C2401 0.950 . S
H2373 C2402 0.950 . S
H2374 C2404 0.950 . S
H2375 C2405 0.950 . S
C2376 H2358 0.951 . S
C2376 C2377 1.366 . S
C2376 C2378 1.388 . S
C2377 C2376 1.366 . S
C2377 C2381 1.385 1_554 S
C2378 H2359 0.951 . S
C2378 C2376 1.388 . S
C2378 C2379 1.366 1_554 S
C2379 C2378 1.366 1_556 S
C2379 C2380 1.414 . S
C2379 C2382 1.499 . S
C2380 H2360 0.950 . S
C2380 C2379 1.414 . S
C2380 C2381 1.374 . S
C2381 H2361 0.950 . S
C2381 C2377 1.385 1_556 S
C2381 C2380 1.374 . S
C2382 C2379 1.499 . S
C2382 C2383 1.373 . S
C2382 C2384 1.389 . S
C2383 H2362 0.950 . S
C2383 C2382 1.373 . S
C2383 C2399 1.377 . S
C2384 C2382 1.389 . S
C2384 C2385 1.524 . S
C2384 C2398 1.377 . S
C2385 C2384 1.524 . S
C2385 C2386 1.397 . S
C2385 C2390 1.363 1_556 S
C2386 H2363 0.950 . S
C2386 C2385 1.397 . S
C2386 C2387 1.334 1_456 S
C2387 H2364 0.950 . S
C2387 C2386 1.334 1_654 S
C2387 C2388 1.287 . S
C2388 C2387 1.287 . S
C2388 C2389 1.524 1_655 S
C2388 H2407 0.913 . S
C2389 H2365 0.950 . S
C2389 C2388 1.524 1_455 S
C2389 C2390 1.415 . S
C2390 H2366 0.950 . S
C2390 C2385 1.363 1_554 S
C2390 C2389 1.415 . S
C2391 H2367 0.951 . S
C2391 C2392 1.366 . S
C2391 C2393 1.388 . S
C2392 C2391 1.366 . S
C2392 C2396 1.385 . S
C2393 H2368 0.951 . S
C2393 C2391 1.388 . S
C2393 C2394 1.366 . S
C2394 C2393 1.366 . S
C2394 C2395 1.414 . S
C2394 C2397 1.499 . S
C2395 H2369 0.950 . S
C2395 C2394 1.414 . S
C2395 C2396 1.374 . S
C2396 H2370 0.950 . S
C2396 C2392 1.385 . S
C2396 C2395 1.374 . S
C2397 C2394 1.499 . S
C2397 C2398 1.373 . S
C2397 C2399 1.389 . S
C2398 H2371 0.950 . S
C2398 C2384 1.377 . S
C2398 C2397 1.373 . S
C2399 C2383 1.377 . S
C2399 C2397 1.389 . S
C2399 C2400 1.524 . S
C2400 C2399 1.524 . S
C2400 C2401 1.397 . S
C2400 C2405 1.363 . S
C2401 H2372 0.950 . S
C2401 C2400 1.397 . S
C2401 C2402 1.334 . S
C2402 H2373 0.950 . S
C2402 C2401 1.334 . S
C2402 C2403 1.287 . S
C2403 C2402 1.287 . S
C2403 C2404 1.524 . S
C2403 H2406 0.999 . S
C2404 H2374 0.950 . S
C2404 C2403 1.524 . S
C2404 C2405 1.415 . S
C2405 H2375 0.950 . S
C2405 C2400 1.363 . S
C2405 C2404 1.415 . S
H2406 C2403 0.999 . S
H2407 C2388 0.913 . S
H2408 C2426 0.951 . S
H2409 C2428 0.951 . S
H2410 C2430 0.950 . S
H2411 C2431 0.950 . S
H2412 C2433 0.950 . S
H2413 C2436 0.950 . S
H2414 C2437 0.950 . S
H2415 C2439 0.950 . S
H2416 C2440 0.950 . S
H2417 C2441 0.951 . S
H2418 C2443 0.951 . S
H2419 C2445 0.950 . S
H2420 C2446 0.950 . S
H2421 C2448 0.950 . S
H2422 C2451 0.950 . S
H2423 C2452 0.950 . S
H2424 C2454 0.950 . S
H2425 C2455 0.950 . S
C2426 H2408 0.951 . S
C2426 C2427 1.366 . S
C2426 C2428 1.388 . S
C2427 C2426 1.366 . S
C2427 C2431 1.385 . S
C2428 H2409 0.951 . S
C2428 C2426 1.388 . S
C2428 C2429 1.366 . S
C2429 C2428 1.366 . S
C2429 C2430 1.414 . S
C2429 C2432 1.499 . S
C2430 H2410 0.950 . S
C2430 C2429 1.414 . S
C2430 C2431 1.374 . S
C2431 H2411 0.950 . S
C2431 C2427 1.385 . S
C2431 C2430 1.374 . S
C2432 C2429 1.499 . S
C2432 C2433 1.373 . S
C2432 C2434 1.389 . S
C2433 H2412 0.950 . S
C2433 C2432 1.373 . S
C2433 C2449 1.377 . S
C2434 C2432 1.389 . S
C2434 C2435 1.524 . S
C2434 C2448 1.377 . S
C2435 C2434 1.524 . S
C2435 C2436 1.397 . S
C2435 C2440 1.363 . S
C2436 H2413 0.950 . S
C2436 C2435 1.397 . S
C2436 C2437 1.334 . S
C2437 H2414 0.950 . S
C2437 C2436 1.334 . S
C2437 C2438 1.287 . S
C2438 C2437 1.287 . S
C2438 C2439 1.524 . S
C2438 H2457 0.913 . S
C2439 H2415 0.950 . S
C2439 C2438 1.524 . S
C2439 C2440 1.415 . S
C2440 H2416 0.950 . S
C2440 C2435 1.363 . S
C2440 C2439 1.415 . S
C2441 H2417 0.951 . S
C2441 C2442 1.366 . S
C2441 C2443 1.388 . S
C2442 C2441 1.366 . S
C2442 C2446 1.385 . S
C2443 H2418 0.951 . S
C2443 C2441 1.388 . S
C2443 C2444 1.366 . S
C2444 C2443 1.366 . S
C2444 C2445 1.414 . S
C2444 C2447 1.499 . S
C2445 H2419 0.950 . S
C2445 C2444 1.414 . S
C2445 C2446 1.374 . S
C2446 H2420 0.950 . S
C2446 C2442 1.385 . S
C2446 C2445 1.374 . S
C2447 C2444 1.499 . S
C2447 C2448 1.373 . S
C2447 C2449 1.389 . S
C2448 H2421 0.950 . S
C2448 C2434 1.377 . S
C2448 C2447 1.373 . S
C2449 C2433 1.377 . S
C2449 C2447 1.389 . S
C2449 C2450 1.524 . S
C2450 C2449 1.524 . S
C2450 C2451 1.397 . S
C2450 C2455 1.363 . S
C2451 H2422 0.950 . S
C2451 C2450 1.397 . S
C2451 C2452 1.334 . S
C2452 H2423 0.950 . S
C2452 C2451 1.334 . S
C2452 C2453 1.287 . S
C2453 C2452 1.287 . S
C2453 C2454 1.524 . S
C2453 H2456 0.999 . S
C2454 H2424 0.950 . S
C2454 C2453 1.524 . S
C2454 C2455 1.415 . S
C2455 H2425 0.950 . S
C2455 C2450 1.363 . S
C2455 C2454 1.415 . S
H2456 C2453 0.999 . S
H2457 C2438 0.913 . S
H2458 C2476 0.951 . S
H2459 C2478 0.951 . S
H2460 C2480 0.950 . S
H2461 C2481 0.950 . S
H2462 C2483 0.950 . S
H2463 C2486 0.950 . S
H2464 C2487 0.950 . S
H2465 C2489 0.950 . S
H2466 C2490 0.950 . S
H2467 C2491 0.951 . S
H2468 C2493 0.951 . S
H2469 C2495 0.950 . S
H2470 C2496 0.950 . S
H2471 C2498 0.950 . S
H2472 C2501 0.950 . S
H2473 C2502 0.950 . S
H2474 C2504 0.950 . S
H2475 C2505 0.950 . S
C2476 H2458 0.951 . S
C2476 C2477 1.366 . S
C2476 C2478 1.388 . S
C2477 C2476 1.366 . S
C2477 C2481 1.385 . S
C2478 H2459 0.951 . S
C2478 C2476 1.388 . S
C2478 C2479 1.366 . S
C2479 C2478 1.366 . S
C2479 C2480 1.414 . S
C2479 C2482 1.499 . S
C2480 H2460 0.950 . S
C2480 C2479 1.414 . S
C2480 C2481 1.374 . S
C2481 H2461 0.950 . S
C2481 C2477 1.385 . S
C2481 C2480 1.374 . S
C2482 C2479 1.499 . S
C2482 C2483 1.373 . S
C2482 C2484 1.389 . S
C2483 H2462 0.950 . S
C2483 C2482 1.373 . S
C2483 C2499 1.377 . S
C2484 C2482 1.389 . S
C2484 C2485 1.524 . S
C2484 C2498 1.377 . S
C2485 C2484 1.524 . S
C2485 C2486 1.397 . S
C2485 C2490 1.363 . S
C2486 H2463 0.950 . S
C2486 C2485 1.397 . S
C2486 C2487 1.334 . S
C2487 H2464 0.950 . S
C2487 C2486 1.334 . S
C2487 C2488 1.287 . S
C2488 C2487 1.287 . S
C2488 C2489 1.524 . S
C2488 H2507 0.913 . S
C2489 H2465 0.950 . S
C2489 C2488 1.524 . S
C2489 C2490 1.415 . S
C2490 H2466 0.950 . S
C2490 C2485 1.363 . S
C2490 C2489 1.415 . S
C2491 H2467 0.951 . S
C2491 C2492 1.366 . S
C2491 C2493 1.388 . S
C2492 C2491 1.366 . S
C2492 C2496 1.385 . S
C2493 H2468 0.951 . S
C2493 C2491 1.388 . S
C2493 C2494 1.366 . S
C2494 C2493 1.366 . S
C2494 C2495 1.414 . S
C2494 C2497 1.499 . S
C2495 H2469 0.950 . S
C2495 C2494 1.414 . S
C2495 C2496 1.374 . S
C2496 H2470 0.950 . S
C2496 C2492 1.385 . S
C2496 C2495 1.374 . S
C2497 C2494 1.499 . S
C2497 C2498 1.373 . S
C2497 C2499 1.389 . S
C2498 H2471 0.950 . S
C2498 C2484 1.377 . S
C2498 C2497 1.373 . S
C2499 C2483 1.377 . S
C2499 C2497 1.389 . S
C2499 C2500 1.524 . S
C2500 C2499 1.524 . S
C2500 C2501 1.397 . S
C2500 C2505 1.363 . S
C2501 H2472 0.950 . S
C2501 C2500 1.397 . S
C2501 C2502 1.334 . S
C2502 H2473 0.950 . S
C2502 C2501 1.334 . S
C2502 C2503 1.287 . S
C2503 C2502 1.287 . S
C2503 C2504 1.524 . S
C2503 H2506 0.999 . S
C2504 H2474 0.950 . S
C2504 C2503 1.524 . S
C2504 C2505 1.415 . S
C2505 H2475 0.950 . S
C2505 C2500 1.363 . S
C2505 C2504 1.415 . S
H2506 C2503 0.999 . S
H2507 C2488 0.913 . S
H2508 C2526 0.951 . S
H2509 C2528 0.951 . S
H2510 C2530 0.950 . S
H2511 C2531 0.950 . S
H2512 C2533 0.950 . S
H2513 C2536 0.950 . S
H2514 C2537 0.950 . S
H2515 C2539 0.950 . S
H2516 C2540 0.950 . S
H2517 C2541 0.951 . S
H2518 C2543 0.951 . S
H2519 C2545 0.950 . S
H2520 C2546 0.950 . S
H2521 C2548 0.950 . S
H2522 C2551 0.950 . S
H2523 C2552 0.950 . S
H2524 C2554 0.950 . S
H2525 C2555 0.950 . S
C2526 H2508 0.951 . S
C2526 C2527 1.366 . S
C2526 C2528 1.388 . S
C2527 C2526 1.366 . S
C2527 C2531 1.385 . S
C2528 H2509 0.951 . S
C2528 C2526 1.388 . S
C2528 C2529 1.366 . S
C2529 C2528 1.366 . S
C2529 C2530 1.414 . S
C2529 C2532 1.499 . S
C2530 H2510 0.950 . S
C2530 C2529 1.414 . S
C2530 C2531 1.374 . S
C2531 H2511 0.950 . S
C2531 C2527 1.385 . S
C2531 C2530 1.374 . S
C2532 C2529 1.499 . S
C2532 C2533 1.373 . S
C2532 C2534 1.389 . S
C2533 H2512 0.950 . S
C2533 C2532 1.373 . S
C2533 C2549 1.377 . S
C2534 C2532 1.389 . S
C2534 C2535 1.524 . S
C2534 C2548 1.377 . S
C2535 C2534 1.524 . S
C2535 C2536 1.397 . S
C2535 C2540 1.363 . S
C2536 H2513 0.950 . S
C2536 C2535 1.397 . S
C2536 C2537 1.334 . S
C2537 H2514 0.950 . S
C2537 C2536 1.334 . S
C2537 C2538 1.287 . S
C2538 C2537 1.287 . S
C2538 C2539 1.524 . S
C2538 H2557 0.913 . S
C2539 H2515 0.950 . S
C2539 C2538 1.524 . S
C2539 C2540 1.415 . S
C2540 H2516 0.950 . S
C2540 C2535 1.363 . S
C2540 C2539 1.415 . S
C2541 H2517 0.951 . S
C2541 C2542 1.366 . S
C2541 C2543 1.388 . S
C2542 C2541 1.366 . S
C2542 C2546 1.385 . S
C2543 H2518 0.951 . S
C2543 C2541 1.388 . S
C2543 C2544 1.366 . S
C2544 C2543 1.366 . S
C2544 C2545 1.414 . S
C2544 C2547 1.499 . S
C2545 H2519 0.950 . S
C2545 C2544 1.414 . S
C2545 C2546 1.374 . S
C2546 H2520 0.950 . S
C2546 C2542 1.385 . S
C2546 C2545 1.374 . S
C2547 C2544 1.499 . S
C2547 C2548 1.373 . S
C2547 C2549 1.389 . S
C2548 H2521 0.950 . S
C2548 C2534 1.377 . S
C2548 C2547 1.373 . S
C2549 C2533 1.377 . S
C2549 C2547 1.389 . S
C2549 C2550 1.524 . S
C2550 C2549 1.524 . S
C2550 C2551 1.397 . S
C2550 C2555 1.363 . S
C2551 H2522 0.950 . S
C2551 C2550 1.397 . S
C2551 C2552 1.334 . S
C2552 H2523 0.950 . S
C2552 C2551 1.334 . S
C2552 C2553 1.287 . S
C2553 C2552 1.287 . S
C2553 C2554 1.524 . S
C2553 H2556 0.999 . S
C2554 H2524 0.950 . S
C2554 C2553 1.524 . S
C2554 C2555 1.415 . S
C2555 H2525 0.950 . S
C2555 C2550 1.363 . S
C2555 C2554 1.415 . S
H2556 C2553 0.999 . S
H2557 C2538 0.913 . S
H2558 C2576 0.951 . S
H2559 C2578 0.951 . S
H2560 C2580 0.950 . S
H2561 C2581 0.950 . S
H2562 C2583 0.950 . S
H2563 C2586 0.950 . S
H2564 C2587 0.950 . S
H2565 C2589 0.950 . S
H2566 C2590 0.950 . S
H2567 C2591 0.951 . S
H2568 C2593 0.951 . S
H2569 C2595 0.950 . S
H2570 C2596 0.950 . S
H2571 C2598 0.950 . S
H2572 C2601 0.950 . S
H2573 C2602 0.950 . S
H2574 C2604 0.950 . S
H2575 C2605 0.950 . S
C2576 H2558 0.951 . S
C2576 C2577 1.346 1_554 S
C2576 C2578 1.388 . S
C2577 C2576 1.346 1_556 S
C2577 C2581 1.392 . S
C2578 H2559 0.951 . S
C2578 C2576 1.388 . S
C2578 C2579 1.366 . S
C2579 C2578 1.366 . S
C2579 C2580 1.414 . S
C2579 C2582 1.499 . S
C2580 H2560 0.950 . S
C2580 C2579 1.414 . S
C2580 C2581 1.374 1_554 S
C2581 H2561 0.950 . S
C2581 C2577 1.392 . S
C2581 C2580 1.374 1_556 S
C2582 C2579 1.499 . S
C2582 C2583 1.373 . S
C2582 C2584 1.389 . S
C2583 H2562 0.950 . S
C2583 C2582 1.373 . S
C2583 C2599 1.377 . S
C2584 C2582 1.389 . S
C2584 C2585 1.524 . S
C2584 C2598 1.377 . S
C2585 C2584 1.524 . S
C2585 C2586 1.397 . S
C2585 C2590 1.363 . S
C2586 H2563 0.950 . S
C2586 C2585 1.397 . S
C2586 C2587 1.334 . S
C2587 H2564 0.950 . S
C2587 C2586 1.334 . S
C2587 C2588 1.287 . S
C2588 C2587 1.287 . S
C2588 C2589 1.524 . S
C2588 H2607 0.913 . S
C2589 H2565 0.950 . S
C2589 C2588 1.524 . S
C2589 C2590 1.415 . S
C2590 H2566 0.950 . S
C2590 C2585 1.363 . S
C2590 C2589 1.415 . S
C2591 H2567 0.951 . S
C2591 C2592 1.366 . S
C2591 C2593 1.388 . S
C2592 C2591 1.366 . S
C2592 C2596 1.385 . S
C2593 H2568 0.951 . S
C2593 C2591 1.388 . S
C2593 C2594 1.366 . S
C2594 C2593 1.366 . S
C2594 C2595 1.414 . S
C2594 C2597 1.499 . S
C2595 H2569 0.950 . S
C2595 C2594 1.414 . S
C2595 C2596 1.374 . S
C2596 H2570 0.950 . S
C2596 C2592 1.385 . S
C2596 C2595 1.374 . S
C2597 C2594 1.499 . S
C2597 C2598 1.373 . S
C2597 C2599 1.389 . S
C2598 H2571 0.950 . S
C2598 C2584 1.377 . S
C2598 C2597 1.373 . S
C2599 C2583 1.377 . S
C2599 C2597 1.389 . S
C2599 C2600 1.524 . S
C2600 C2599 1.524 . S
C2600 C2601 1.397 . S
C2600 C2605 1.363 . S
C2601 H2572 0.950 . S
C2601 C2600 1.397 . S
C2601 C2602 1.334 . S
C2602 H2573 0.950 . S
C2602 C2601 1.334 . S
C2602 C2603 1.287 . S
C2603 C2602 1.287 . S
C2603 C2604 1.524 . S
C2603 H2606 0.999 . S
C2604 H2574 0.950 . S
C2604 C2603 1.524 . S
C2604 C2605 1.415 . S
C2605 H2575 0.950 . S
C2605 C2600 1.363 . S
C2605 C2604 1.415 . S
H2606 C2603 0.999 . S
H2607 C2588 0.913 . S
H2608 C2626 0.951 . S
H2609 C2628 0.951 . S
H2610 C2630 0.950 . S
H2611 C2631 0.950 . S
H2612 C2633 0.950 . S
H2613 C2636 0.950 . S
H2614 C2637 0.950 . S
H2615 C2639 0.950 . S
H2616 C2640 0.950 . S
H2617 C2641 0.951 . S
H2618 C2643 0.951 . S
H2619 C2645 0.950 . S
H2620 C2646 0.950 . S
H2621 C2648 0.950 . S
H2622 C2651 0.950 . S
H2623 C2652 0.950 . S
H2624 C2654 0.950 . S
H2625 C2655 0.950 . S
C2626 H2608 0.951 . S
C2626 C2627 1.366 . S
C2626 C2628 1.388 . S
C2627 C2626 1.366 . S
C2627 C2631 1.385 . S
C2628 H2609 0.951 . S
C2628 C2626 1.388 . S
C2628 C2629 1.366 . S
C2629 C2628 1.366 . S
C2629 C2630 1.414 . S
C2629 C2632 1.499 . S
C2630 H2610 0.950 . S
C2630 C2629 1.414 . S
C2630 C2631 1.374 . S
C2631 H2611 0.950 . S
C2631 C2627 1.385 . S
C2631 C2630 1.374 . S
C2632 C2629 1.499 . S
C2632 C2633 1.373 . S
C2632 C2634 1.389 . S
C2633 H2612 0.950 . S
C2633 C2632 1.373 . S
C2633 C2649 1.377 . S
C2634 C2632 1.389 . S
C2634 C2635 1.524 . S
C2634 C2648 1.377 . S
C2635 C2634 1.524 . S
C2635 C2636 1.397 . S
C2635 C2640 1.363 . S
C2636 H2613 0.950 . S
C2636 C2635 1.397 . S
C2636 C2637 1.334 . S
C2637 H2614 0.950 . S
C2637 C2636 1.334 . S
C2637 C2638 1.287 . S
C2638 C2637 1.287 . S
C2638 C2639 1.524 . S
C2638 H2657 0.913 . S
C2639 H2615 0.950 . S
C2639 C2638 1.524 . S
C2639 C2640 1.415 . S
C2640 H2616 0.950 . S
C2640 C2635 1.363 . S
C2640 C2639 1.415 . S
C2641 H2617 0.951 . S
C2641 C2642 1.366 . S
C2641 C2643 1.388 . S
C2642 C2641 1.366 . S
C2642 C2646 1.385 . S
C2643 H2618 0.951 . S
C2643 C2641 1.388 . S
C2643 C2644 1.366 . S
C2644 C2643 1.366 . S
C2644 C2645 1.414 . S
C2644 C2647 1.499 . S
C2645 H2619 0.950 . S
C2645 C2644 1.414 . S
C2645 C2646 1.374 . S
C2646 H2620 0.950 . S
C2646 C2642 1.385 . S
C2646 C2645 1.374 . S
C2647 C2644 1.499 . S
C2647 C2648 1.373 . S
C2647 C2649 1.389 . S
C2648 H2621 0.950 . S
C2648 C2634 1.377 . S
C2648 C2647 1.373 . S
C2649 C2633 1.377 . S
C2649 C2647 1.389 . S
C2649 C2650 1.524 . S
C2650 C2649 1.524 . S
C2650 C2651 1.397 . S
C2650 C2655 1.363 . S
C2651 H2622 0.950 . S
C2651 C2650 1.397 . S
C2651 C2652 1.334 . S
C2652 H2623 0.950 . S
C2652 C2651 1.334 . S
C2652 C2653 1.287 . S
C2653 C2652 1.287 . S
C2653 C2654 1.524 . S
C2653 H2656 0.999 . S
C2654 H2624 0.950 . S
C2654 C2653 1.524 . S
C2654 C2655 1.415 . S
C2655 H2625 0.950 . S
C2655 C2650 1.363 . S
C2655 C2654 1.415 . S
H2656 C2653 0.999 . S
H2657 C2638 0.913 . S
H2658 C2676 0.951 . S
H2659 C2678 0.951 . S
H2660 C2680 0.950 . S
H2661 C2681 0.950 . S
H2662 C2683 0.950 . S
H2663 C2686 0.950 . S
H2664 C2687 0.950 . S
H2665 C2689 0.950 . S
H2666 C2690 0.950 . S
H2667 C2691 0.951 . S
H2668 C2693 0.951 . S
H2669 C2695 0.950 . S
H2670 C2696 0.950 . S
H2671 C2698 0.950 . S
H2672 C2701 0.950 . S
H2673 C2702 0.950 . S
H2674 C2704 0.950 . S
H2675 C2705 0.950 . S
C2676 H2658 0.951 . S
C2676 C2677 1.366 . S
C2676 C2678 1.388 . S
C2677 C2676 1.366 . S
C2677 C2681 1.385 . S
C2678 H2659 0.951 . S
C2678 C2676 1.388 . S
C2678 C2679 1.366 . S
C2679 C2678 1.366 . S
C2679 C2680 1.414 . S
C2679 C2682 1.499 . S
C2680 H2660 0.950 . S
C2680 C2679 1.414 . S
C2680 C2681 1.374 . S
C2681 H2661 0.950 . S
C2681 C2677 1.385 . S
C2681 C2680 1.374 . S
C2682 C2679 1.499 . S
C2682 C2683 1.373 . S
C2682 C2684 1.389 . S
C2683 H2662 0.950 . S
C2683 C2682 1.373 . S
C2683 C2699 1.377 . S
C2684 C2682 1.389 . S
C2684 C2685 1.524 . S
C2684 C2698 1.377 . S
C2685 C2684 1.524 . S
C2685 C2686 1.397 . S
C2685 C2690 1.363 . S
C2686 H2663 0.950 . S
C2686 C2685 1.397 . S
C2686 C2687 1.334 . S
C2687 H2664 0.950 . S
C2687 C2686 1.334 . S
C2687 C2688 1.287 . S
C2688 C2687 1.287 . S
C2688 C2689 1.524 . S
C2688 H2707 0.913 . S
C2689 H2665 0.950 . S
C2689 C2688 1.524 . S
C2689 C2690 1.415 . S
C2690 H2666 0.950 . S
C2690 C2685 1.363 . S
C2690 C2689 1.415 . S
C2691 H2667 0.951 . S
C2691 C2692 1.366 . S
C2691 C2693 1.388 . S
C2692 C2691 1.366 . S
C2692 C2696 1.385 . S
C2693 H2668 0.951 . S
C2693 C2691 1.388 . S
C2693 C2694 1.366 . S
C2694 C2693 1.366 . S
C2694 C2695 1.414 . S
C2694 C2697 1.499 . S
C2695 H2669 0.950 . S
C2695 C2694 1.414 . S
C2695 C2696 1.374 . S
C2696 H2670 0.950 . S
C2696 C2692 1.385 . S
C2696 C2695 1.374 . S
C2697 C2694 1.499 . S
C2697 C2698 1.373 . S
C2697 C2699 1.389 . S
C2698 H2671 0.950 . S
C2698 C2684 1.377 . S
C2698 C2697 1.373 . S
C2699 C2683 1.377 . S
C2699 C2697 1.389 . S
C2699 C2700 1.524 . S
C2700 C2699 1.524 . S
C2700 C2701 1.397 . S
C2700 C2705 1.363 . S
C2701 H2672 0.950 . S
C2701 C2700 1.397 . S
C2701 C2702 1.334 . S
C2702 H2673 0.950 . S
C2702 C2701 1.334 . S
C2702 C2703 1.287 . S
C2703 C2702 1.287 . S
C2703 C2704 1.524 . S
C2703 H2706 0.999 . S
C2704 H2674 0.950 . S
C2704 C2703 1.524 . S
C2704 C2705 1.415 . S
C2705 H2675 0.950 . S
C2705 C2700 1.363 . S
C2705 C2704 1.415 . S
H2706 C2703 0.999 . S
H2707 C2688 0.913 . S
H2708 C2726 0.951 . S
H2709 C2728 0.951 . S
H2710 C2730 0.950 . S
H2711 C2731 0.950 . S
H2712 C2733 0.950 . S
H2713 C2736 0.950 . S
H2714 C2737 0.950 . S
H2715 C2739 0.950 . S
H2716 C2740 0.950 . S
H2717 C2741 0.951 . S
H2718 C2743 0.951 . S
H2719 C2745 0.950 . S
H2720 C2746 0.950 . S
H2721 C2748 0.950 . S
H2722 C2751 0.950 . S
H2723 C2752 0.950 . S
H2724 C2754 0.950 . S
H2725 C2755 0.950 . S
C2726 H2708 0.951 . S
C2726 C2727 1.366 . S
C2726 C2728 1.388 . S
C2727 C2726 1.366 . S
C2727 C2731 1.385 . S
C2728 H2709 0.951 . S
C2728 C2726 1.388 . S
C2728 C2729 1.366 . S
C2729 C2728 1.366 . S
C2729 C2730 1.414 . S
C2729 C2732 1.499 . S
C2730 H2710 0.950 . S
C2730 C2729 1.414 . S
C2730 C2731 1.374 . S
C2731 H2711 0.950 . S
C2731 C2727 1.385 . S
C2731 C2730 1.374 . S
C2732 C2729 1.499 . S
C2732 C2733 1.373 . S
C2732 C2734 1.389 . S
C2733 H2712 0.950 . S
C2733 C2732 1.373 . S
C2733 C2749 1.377 . S
C2734 C2732 1.389 . S
C2734 C2735 1.524 . S
C2734 C2748 1.377 . S
C2735 C2734 1.524 . S
C2735 C2736 1.397 . S
C2735 C2740 1.363 . S
C2736 H2713 0.950 . S
C2736 C2735 1.397 . S
C2736 C2737 1.334 . S
C2737 H2714 0.950 . S
C2737 C2736 1.334 . S
C2737 C2738 1.287 . S
C2738 C2737 1.287 . S
C2738 C2739 1.524 . S
C2738 H2757 0.913 . S
C2739 H2715 0.950 . S
C2739 C2738 1.524 . S
C2739 C2740 1.415 . S
C2740 H2716 0.950 . S
C2740 C2735 1.363 . S
C2740 C2739 1.415 . S
C2741 H2717 0.951 . S
C2741 C2742 1.366 . S
C2741 C2743 1.388 . S
C2742 C2741 1.366 . S
C2742 C2746 1.385 . S
C2743 H2718 0.951 . S
C2743 C2741 1.388 . S
C2743 C2744 1.366 . S
C2744 C2743 1.366 . S
C2744 C2745 1.414 . S
C2744 C2747 1.499 . S
C2745 H2719 0.950 . S
C2745 C2744 1.414 . S
C2745 C2746 1.374 . S
C2746 H2720 0.950 . S
C2746 C2742 1.385 . S
C2746 C2745 1.374 . S
C2747 C2744 1.499 . S
C2747 C2748 1.373 . S
C2747 C2749 1.389 . S
C2748 H2721 0.950 . S
C2748 C2734 1.377 . S
C2748 C2747 1.373 . S
C2749 C2733 1.377 . S
C2749 C2747 1.389 . S
C2749 C2750 1.524 . S
C2750 C2749 1.524 . S
C2750 C2751 1.397 . S
C2750 C2755 1.363 . S
C2751 H2722 0.950 . S
C2751 C2750 1.397 . S
C2751 C2752 1.334 . S
C2752 H2723 0.950 . S
C2752 C2751 1.334 . S
C2752 C2753 1.287 . S
C2753 C2752 1.287 . S
C2753 C2754 1.524 . S
C2753 H2756 0.999 . S
C2754 H2724 0.950 . S
C2754 C2753 1.524 . S
C2754 C2755 1.415 . S
C2755 H2725 0.950 . S
C2755 C2750 1.363 . S
C2755 C2754 1.415 . S
H2756 C2753 0.999 . S
H2757 C2738 0.913 . S
H2758 C2776 0.951 . S
H2759 C2778 0.951 . S
H2760 C2780 0.950 . S
H2761 C2781 0.950 . S
H2762 C2783 0.950 . S
H2763 C2786 0.950 . S
H2764 C2787 0.950 . S
H2765 C2789 0.950 . S
H2766 C2790 0.950 . S
H2767 C2791 0.951 . S
H2768 C2793 0.951 . S
H2769 C2795 0.950 . S
H2770 C2796 0.950 . S
H2771 C2798 0.950 . S
H2772 C2801 0.950 . S
H2773 C2802 0.950 . S
H2774 C2804 0.950 . S
H2775 C2805 0.950 . S
C2776 H2758 0.951 . S
C2776 C2777 1.366 . S
C2776 C2778 1.388 . S
C2777 C2776 1.366 . S
C2777 C2781 1.385 . S
C2778 H2759 0.951 . S
C2778 C2776 1.388 . S
C2778 C2779 1.366 . S
C2779 C2778 1.366 . S
C2779 C2780 1.414 . S
C2779 C2782 1.499 . S
C2780 H2760 0.950 . S
C2780 C2779 1.414 . S
C2780 C2781 1.374 . S
C2781 H2761 0.950 . S
C2781 C2777 1.385 . S
C2781 C2780 1.374 . S
C2782 C2779 1.499 . S
C2782 C2783 1.373 . S
C2782 C2784 1.389 . S
C2783 H2762 0.950 . S
C2783 C2782 1.373 . S
C2783 C2799 1.377 . S
C2784 C2782 1.389 . S
C2784 C2785 1.524 . S
C2784 C2798 1.377 . S
C2785 C2784 1.524 . S
C2785 C2786 1.397 . S
C2785 C2790 1.363 . S
C2786 H2763 0.950 . S
C2786 C2785 1.397 . S
C2786 C2787 1.334 . S
C2787 H2764 0.950 . S
C2787 C2786 1.334 . S
C2787 C2788 1.287 . S
C2788 C2787 1.287 . S
C2788 C2789 1.524 . S
C2788 H2807 0.913 . S
C2789 H2765 0.950 . S
C2789 C2788 1.524 . S
C2789 C2790 1.415 . S
C2790 H2766 0.950 . S
C2790 C2785 1.363 . S
C2790 C2789 1.415 . S
C2791 H2767 0.951 . S
C2791 C2792 1.366 . S
C2791 C2793 1.388 . S
C2792 C2791 1.366 . S
C2792 C2796 1.385 . S
C2793 H2768 0.951 . S
C2793 C2791 1.388 . S
C2793 C2794 1.366 . S
C2794 C2793 1.366 . S
C2794 C2795 1.414 . S
C2794 C2797 1.499 . S
C2795 H2769 0.950 . S
C2795 C2794 1.414 . S
C2795 C2796 1.374 . S
C2796 H2770 0.950 . S
C2796 C2792 1.385 . S
C2796 C2795 1.374 . S
C2797 C2794 1.499 . S
C2797 C2798 1.373 . S
C2797 C2799 1.389 . S
C2798 H2771 0.950 . S
C2798 C2784 1.377 . S
C2798 C2797 1.373 . S
C2799 C2783 1.377 . S
C2799 C2797 1.389 . S
C2799 C2800 1.524 . S
C2800 C2799 1.524 . S
C2800 C2801 1.397 . S
C2800 C2805 1.363 . S
C2801 H2772 0.950 . S
C2801 C2800 1.397 . S
C2801 C2802 1.334 . S
C2802 H2773 0.950 . S
C2802 C2801 1.334 . S
C2802 C2803 1.287 . S
C2803 C2802 1.287 . S
C2803 C2804 1.524 . S
C2803 H2806 0.999 . S
C2804 H2774 0.950 . S
C2804 C2803 1.524 . S
C2804 C2805 1.415 . S
C2805 H2775 0.950 . S
C2805 C2800 1.363 . S
C2805 C2804 1.415 . S
H2806 C2803 0.999 . S
H2807 C2788 0.913 . S
H2808 C2826 0.951 . S
H2809 C2828 0.951 . S
H2810 C2830 0.950 . S
H2811 C2831 0.950 . S
H2812 C2833 0.950 . S
H2813 C2836 0.950 1_554 S
H2814 C2837 0.967 . S
H2815 C2839 0.950 . S
H2816 C2840 0.950 . S
H2817 C2841 0.951 . S
H2818 C2843 0.951 . S
H2819 C2845 0.950 . S
H2820 C2846 0.950 . S
H2821 C2848 0.950 . S
H2822 C2851 0.950 . S
H2823 C2852 0.950 . S
H2824 C2854 0.950 . S
H2825 C2855 0.950 . S
C2826 H2808 0.951 . S
C2826 C2827 1.366 . S
C2826 C2828 1.388 . S
C2827 C2826 1.366 . S
C2827 C2831 1.385 1_556 S
C2828 H2809 0.951 . S
C2828 C2826 1.388 . S
C2828 C2829 1.366 . S
C2829 C2828 1.366 . S
C2829 C2830 1.414 1_556 S
C2829 C2832 1.499 . S
C2830 H2810 0.950 . S
C2830 C2829 1.414 1_554 S
C2830 C2831 1.374 . S
C2831 H2811 0.950 . S
C2831 C2827 1.385 1_554 S
C2831 C2830 1.374 . S
C2832 C2829 1.499 . S
C2832 C2833 1.373 1_556 S
C2832 C2834 1.389 . S
C2833 H2812 0.950 . S
C2833 C2832 1.373 1_554 S
C2833 C2849 1.377 . S
C2834 C2832 1.389 . S
C2834 C2835 1.524 . S
C2834 C2848 1.377 . S
C2835 C2834 1.524 . S
C2835 C2836 1.397 . S
C2835 C2840 1.363 . S
C2836 H2813 0.950 1_556 S
C2836 C2835 1.397 . S
C2836 C2837 1.334 . S
C2837 H2814 0.967 . S
C2837 C2836 1.334 . S
C2837 C2838 1.287 . S
C2838 C2837 1.287 . S
C2838 C2839 1.524 . S
C2838 H2857 0.913 . S
C2839 H2815 0.950 . S
C2839 C2838 1.524 . S
C2839 C2840 1.415 . S
C2840 H2816 0.950 . S
C2840 C2835 1.363 . S
C2840 C2839 1.415 . S
C2841 H2817 0.951 . S
C2841 C2842 1.366 1_554 S
C2841 C2843 1.388 . S
C2842 C2841 1.366 1_556 S
C2842 C2846 1.385 . S
C2843 H2818 0.951 . S
C2843 C2841 1.388 . S
C2843 C2844 1.366 1_554 S
C2844 C2843 1.366 1_556 S
C2844 C2845 1.414 . S
C2844 C2847 1.499 . S
C2845 H2819 0.950 . S
C2845 C2844 1.414 . S
C2845 C2846 1.374 . S
C2846 H2820 0.950 . S
C2846 C2842 1.385 . S
C2846 C2845 1.374 . S
C2847 C2844 1.499 . S
C2847 C2848 1.373 . S
C2847 C2849 1.389 1_556 S
C2848 H2821 0.950 . S
C2848 C2834 1.377 . S
C2848 C2847 1.373 . S
C2849 C2833 1.377 . S
C2849 C2847 1.389 1_554 S
C2849 C2850 1.524 . S
C2850 C2849 1.524 . S
C2850 C2851 1.397 1_554 S
C2850 C2855 1.363 . S
C2851 H2822 0.950 . S
C2851 C2850 1.397 1_556 S
C2851 C2852 1.334 . S
C2852 H2823 0.950 . S
C2852 C2851 1.334 . S
C2852 C2853 1.287 1_556 S
C2853 C2852 1.287 1_554 S
C2853 C2854 1.524 . S
C2853 H2856 0.999 . S
C2854 H2824 0.950 . S
C2854 C2853 1.524 . S
C2854 C2855 1.415 . S
C2855 H2825 0.950 . S
C2855 C2850 1.363 . S
C2855 C2854 1.415 . S
H2856 C2853 0.999 . S
H2857 C2838 0.913 . S
H2858 C2876 0.951 . S
H2859 C2878 0.951 . S
H2860 C2880 0.950 . S
H2861 C2881 0.950 . S
H2862 C2883 0.950 . S
H2863 C2886 0.950 . S
H2864 C2887 0.950 . S
H2865 C2889 0.950 . S
H2866 C2890 0.950 . S
H2867 C2891 0.951 . S
H2868 C2893 0.951 . S
H2869 C2895 0.950 . S
H2870 C2896 0.950 . S
H2871 C2898 0.950 . S
H2872 C2901 0.950 . S
H2873 C2902 0.950 . S
H2874 C2904 0.950 . S
H2875 C2905 0.950 . S
C2876 H2858 0.951 . S
C2876 C2877 1.366 . S
C2876 C2878 1.388 . S
C2877 C2876 1.366 . S
C2877 C2881 1.385 . S
C2878 H2859 0.951 . S
C2878 C2876 1.388 . S
C2878 C2879 1.366 . S
C2879 C2878 1.366 . S
C2879 C2880 1.414 . S
C2879 C2882 1.499 . S
C2880 H2860 0.950 . S
C2880 C2879 1.414 . S
C2880 C2881 1.374 . S
C2881 H2861 0.950 . S
C2881 C2877 1.385 . S
C2881 C2880 1.374 . S
C2882 C2879 1.499 . S
C2882 C2883 1.373 . S
C2882 C2884 1.389 . S
C2883 H2862 0.950 . S
C2883 C2882 1.373 . S
C2883 C2899 1.377 . S
C2884 C2882 1.389 . S
C2884 C2885 1.524 . S
C2884 C2898 1.377 . S
C2885 C2884 1.524 . S
C2885 C2886 1.397 . S
C2885 C2890 1.363 . S
C2886 H2863 0.950 . S
C2886 C2885 1.397 . S
C2886 C2887 1.334 . S
C2887 H2864 0.950 . S
C2887 C2886 1.334 . S
C2887 C2888 1.287 . S
C2888 C2887 1.287 . S
C2888 C2889 1.524 . S
C2888 H2907 0.913 . S
C2889 H2865 0.950 . S
C2889 C2888 1.524 . S
C2889 C2890 1.415 . S
C2890 H2866 0.950 . S
C2890 C2885 1.363 . S
C2890 C2889 1.415 . S
C2891 H2867 0.951 . S
C2891 C2892 1.366 . S
C2891 C2893 1.388 . S
C2892 C2891 1.366 . S
C2892 C2896 1.385 . S
C2893 H2868 0.951 . S
C2893 C2891 1.388 . S
C2893 C2894 1.366 . S
C2894 C2893 1.366 . S
C2894 C2895 1.414 . S
C2894 C2897 1.499 . S
C2895 H2869 0.950 . S
C2895 C2894 1.414 . S
C2895 C2896 1.374 . S
C2896 H2870 0.950 . S
C2896 C2892 1.385 . S
C2896 C2895 1.374 . S
C2897 C2894 1.499 . S
C2897 C2898 1.373 . S
C2897 C2899 1.389 . S
C2898 H2871 0.950 . S
C2898 C2884 1.377 . S
C2898 C2897 1.373 . S
C2899 C2883 1.377 . S
C2899 C2897 1.389 . S
C2899 C2900 1.524 . S
C2900 C2899 1.524 . S
C2900 C2901 1.397 . S
C2900 C2905 1.363 . S
C2901 H2872 0.950 . S
C2901 C2900 1.397 . S
C2901 C2902 1.334 . S
C2902 H2873 0.950 . S
C2902 C2901 1.334 . S
C2902 C2903 1.287 . S
C2903 C2902 1.287 . S
C2903 C2904 1.524 . S
C2903 H2906 0.999 . S
C2904 H2874 0.950 . S
C2904 C2903 1.524 . S
C2904 C2905 1.415 . S
C2905 H2875 0.950 . S
C2905 C2900 1.363 . S
C2905 C2904 1.415 . S
H2906 C2903 0.999 . S
H2907 C2888 0.913 . S
H2908 C2926 0.979 . S
H2909 C2928 0.951 1_556 S
H2910 C2930 0.950 . S
H2911 C2931 0.950 . S
H2912 C2933 0.950 . S
H2913 C2936 0.950 1_554 S
H2914 C2937 0.950 . S
H2915 C2939 0.950 . S
H2916 C2940 0.950 . S
H2917 C2941 0.951 . S
H2918 C2943 0.951 . S
H2919 C2945 0.950 . S
H2920 C2946 0.950 . S
H2921 C2948 1.005 . S
H2922 C2951 0.950 . S
H2923 C2952 0.950 . S
H2924 C2954 0.950 . S
H2925 C2955 0.950 . S
C2926 H2908 0.979 . S
C2926 C2927 1.366 . S
C2926 C2928 1.388 . S
C2927 C2926 1.366 . S
C2927 C2931 1.385 . S
C2928 H2909 0.951 1_554 S
C2928 C2926 1.388 . S
C2928 C2929 1.366 . S
C2929 C2928 1.366 . S
C2929 C2930 1.414 . S
C2929 C2932 1.499 . S
C2930 H2910 0.950 . S
C2930 C2929 1.414 . S
C2930 C2931 1.374 . S
C2931 H2911 0.950 . S
C2931 C2927 1.385 . S
C2931 C2930 1.374 . S
C2932 C2929 1.499 . S
C2932 C2933 1.373 . S
C2932 C2934 1.389 . S
C2933 H2912 0.950 . S
C2933 C2932 1.373 . S
C2933 C2949 1.377 . S
C2934 C2932 1.389 . S
C2934 C2935 1.524 1_554 S
C2934 C2948 1.362 1_554 S
C2935 C2934 1.524 1_556 S
C2935 C2936 1.397 . S
C2935 C2940 1.363 . S
C2936 H2913 0.950 1_556 S
C2936 C2935 1.397 . S
C2936 C2937 1.334 . S
C2937 H2914 0.950 . S
C2937 C2936 1.334 . S
C2937 C2938 1.287 . S
C2938 C2937 1.287 . S
C2938 C2939 1.524 . S
C2938 H2957 0.913 . S
C2939 H2915 0.950 . S
C2939 C2938 1.524 . S
C2939 C2940 1.415 . S
C2940 H2916 0.950 . S
C2940 C2935 1.363 . S
C2940 C2939 1.415 . S
C2941 H2917 0.951 . S
C2941 C2942 1.366 . S
C2941 C2943 1.388 . S
C2942 C2941 1.366 . S
C2942 C2946 1.385 1_554 S
C2943 H2918 0.951 . S
C2943 C2941 1.388 . S
C2943 C2944 1.366 . S
C2944 C2943 1.366 . S
C2944 C2945 1.414 1_554 S
C2944 C2947 1.499 . S
C2945 H2919 0.950 . S
C2945 C2944 1.414 1_556 S
C2945 C2946 1.374 . S
C2946 H2920 0.950 . S
C2946 C2942 1.385 1_556 S
C2946 C2945 1.374 . S
C2947 C2944 1.499 . S
C2947 C2948 1.335 1_554 S
C2947 C2949 1.389 . S
C2948 H2921 1.005 . S
C2948 C2934 1.362 1_556 S
C2948 C2947 1.335 1_556 S
C2949 C2933 1.377 . S
C2949 C2947 1.389 . S
C2949 C2950 1.524 . S
C2950 C2949 1.524 . S
C2950 C2951 1.397 . S
C2950 C2955 1.363 . S
C2951 H2922 0.950 . S
C2951 C2950 1.397 . S
C2951 C2952 1.334 . S
C2952 H2923 0.950 . S
C2952 C2951 1.334 . S
C2952 C2953 1.287 . S
C2953 C2952 1.287 . S
C2953 C2954 1.524 . S
C2953 H2956 0.999 . S
C2954 H2924 0.950 . S
C2954 C2953 1.524 . S
C2954 C2955 1.415 . S
C2955 H2925 0.950 . S
C2955 C2950 1.363 . S
C2955 C2954 1.415 . S
H2956 C2953 0.999 . S
H2957 C2938 0.913 . S
H2958 C2976 0.951 . S
H2959 C2978 0.951 . S
H2960 C2980 0.950 . S
H2961 C2981 0.950 . S
H2962 C2983 0.950 1_545 S
H2963 C2986 0.950 . S
H2964 C2987 0.950 . S
H2965 C2989 0.950 . S
H2966 C2990 0.950 . S
H2967 C2991 0.951 . S
H2968 C2993 0.951 . S
H2969 C2995 0.950 . S
H2970 C2996 0.950 . S
H2971 C2998 0.950 . S
H2972 C3001 0.950 . S
H2973 C3002 0.950 . S
H2974 C3004 0.950 . S
H2975 C3005 0.950 . S
C2976 H2958 0.951 . S
C2976 C2977 1.366 1_565 S
C2976 C2978 1.388 . S
C2977 C2976 1.366 1_545 S
C2977 C2981 1.385 . S
C2978 H2959 0.951 . S
C2978 C2976 1.388 . S
C2978 C2979 1.366 . S
C2979 C2978 1.366 . S
C2979 C2980 1.414 1_565 S
C2979 C2982 1.499 . S
C2980 H2960 0.950 . S
C2980 C2979 1.414 1_545 S
C2980 C2981 1.374 . S
C2981 H2961 0.950 . S
C2981 C2977 1.385 . S
C2981 C2980 1.374 . S
C2982 C2979 1.499 . S
C2982 C2983 1.373 . S
C2982 C2984 1.389 . S
C2983 H2962 0.950 1_565 S
C2983 C2982 1.373 . S
C2983 C2999 1.377 . S
C2984 C2982 1.389 . S
C2984 C2985 1.524 . S
C2984 C2998 1.377 . S
C2985 C2984 1.524 . S
C2985 C2986 1.397 . S
C2985 C2990 1.363 . S
C2986 H2963 0.950 . S
C2986 C2985 1.397 . S
C2986 C2987 1.334 . S
C2987 H2964 0.950 . S
C2987 C2986 1.334 . S
C2987 C2988 1.287 . S
C2988 C2987 1.287 . S
C2988 C2989 1.524 . S
C2988 H3007 0.913 . S
C2989 H2965 0.950 . S
C2989 C2988 1.524 . S
C2989 C2990 1.415 . S
C2990 H2966 0.950 . S
C2990 C2985 1.363 . S
C2990 C2989 1.415 . S
C2991 H2967 0.951 . S
C2991 C2992 1.366 . S
C2991 C2993 1.388 . S
C2992 C2991 1.366 . S
C2992 C2996 1.385 . S
C2993 H2968 0.951 . S
C2993 C2991 1.388 . S
C2993 C2994 1.366 . S
C2994 C2993 1.366 . S
C2994 C2995 1.414 . S
C2994 C2997 1.499 . S
C2995 H2969 0.950 . S
C2995 C2994 1.414 . S
C2995 C2996 1.374 . S
C2996 H2970 0.950 . S
C2996 C2992 1.385 . S
C2996 C2995 1.374 . S
C2997 C2994 1.499 . S
C2997 C2998 1.373 . S
C2997 C2999 1.389 . S
C2998 H2971 0.950 . S
C2998 C2984 1.377 . S
C2998 C2997 1.373 . S
C2999 C2983 1.377 . S
C2999 C2997 1.389 . S
C2999 C3000 1.524 . S
C3000 C2999 1.524 . S
C3000 C3001 1.397 . S
C3000 C3005 1.363 1_565 S
C3001 H2972 0.950 . S
C3001 C3000 1.397 . S
C3001 C3002 1.334 1_554 S
C3002 H2973 0.950 . S
C3002 C3001 1.334 1_556 S
C3002 C3003 1.287 . S
C3003 C3002 1.287 . S
C3003 C3004 1.524 1_566 S
C3003 H3006 0.999 . S
C3004 H2974 0.950 . S
C3004 C3003 1.524 1_544 S
C3004 C3005 1.415 . S
C3005 H2975 0.950 . S
C3005 C3000 1.363 1_545 S
C3005 C3004 1.415 . S
H3006 C3003 0.999 . S
H3007 C2988 0.913 . S
C642 C178 1.502 1_556 S
C627 C60 1.496 . S
C692 C226 1.398 . S
C677 C76 1.435 . S
C727 C81 1.546 . S
C742 C262 1.479 . S
C792 C298 1.679 . S
C777 C48 1.753 . S
C842 C324 1.413 . S
C827 C115 1.407 . S
C892 C360 1.753 . S
C877 C136 1.765 . S
C927 C131 1.337 . S
C942 C395 1.347 . S
C992 C432 1.562 . S
C977 C104 1.561 . S
C1027 C126 1.428 . S
C1042 C466 1.431 . S
C1092 C514 1.487 . S
C1077 C103 1.525 . S
C1127 C120 1.314 . S
C1142 C467 1.322 . S
C1192 C504 1.568 . S
C1177 C142 1.567 . S
C1227 C82 1.336 . S
C1242 C550 1.291 . S
C1277 C54 1.954 . S
C1292 C539 1.954 . S
C1327 C65 1.439 . S
C1342 C540 1.444 . S
C1377 C71 1.338 . S
C1392 C538 1.338 . S
C1427 C37 1.467 . S
C1442 C286 1.465 1_565 S
C1477 C158 1.971 . S
C1492 C287 1.978 . S
C1542 C190 1.492 . S
C1527 C169 1.567 . S
C1592 C215 1.095 . S
C1577 C98 1.092 . S
C1627 C49 1.861 1_545 S
C1642 C322 1.860 . S
C1692 C430 1.375 . S
C1677 C125 1.383 . S
C1742 C323 1.413 . S
C1727 C109 1.418 . S
C1792 C396 1.936 . S
C1777 C137 1.943 . S
C1842 C394 1.502 . S
C1827 C159 1.496 . S
C1877 C175 1.435 . S
C1892 C442 1.399 . S
C1927 C92 1.546 . S
C1942 C334 1.479 . S
C1992 C370 1.679 . S
C1977 C147 1.753 . S
C2027 C38 1.406 . S
C2042 C252 1.413 . S
C2092 C288 1.753 . S
C2077 C4 1.765 . S
C2142 C179 1.347 . S
C2127 C21 1.337 . S
C2192 C216 1.563 . S
C2177 C27 1.561 . S
C2227 C16 1.428 . S
C2242 C502 1.431 . S
C2277 C26 1.525 . S
C2292 C478 1.486 . S
C2327 C43 1.315 . S
C2342 C503 1.322 . S
C2377 C10 1.566 . S
C2392 C468 1.568 . S
C2442 C586 1.291 . S
C2427 C93 1.335 . S
C2492 C575 1.954 . S
C2477 C153 1.954 . S
C2542 C576 1.444 . S
C2527 C164 1.439 . S
C2577 C170 1.350 . S
C2592 C574 1.339 . S
C2627 C114 1.467 . S
C2642 C358 1.465 . S
C2692 C359 1.978 . S
C2677 C59 1.970 . S
C2742 C406 1.492 . S
C2727 C70 1.567 . S
C2792 C431 1.095 . S
C2777 C87 1.092 . S
C2827 C148 1.861 . S
C2842 C250 1.860 1_556 S
C2892 C214 1.375 . S
C2877 C15 1.383 . S
C2927 C32 1.418 . S
C2942 C251 1.420 . S
C2992 C180 1.936 . S
C2977 C5 1.943 . S
