# Generated by pormake.
# Topology ctn, (3,4)-cn, num edge types: 1
# Building blocks:
#     Node 0, Type 0, BuildingBlock: CUQRIR_clean_linker_1, # of connection points: 3
#     Node 1, Type 0, BuildingBlock: CUQRIR_clean_linker_1, # of connection points: 3
#     Node 2, Type 0, BuildingBlock: CUQRIR_clean_linker_1, # of connection points: 3
#     Node 3, Type 0, BuildingBlock: CUQRIR_clean_linker_1, # of connection points: 3
#     Node 4, Type 0, BuildingBlock: CUQRIR_clean_linker_1, # of connection points: 3
#     Node 5, Type 0, BuildingBlock: CUQRIR_clean_linker_1, # of connection points: 3
#     Node 6, Type 0, BuildingBlock: CUQRIR_clean_linker_1, # of connection points: 3
#     Node 7, Type 0, BuildingBlock: CUQRIR_clean_linker_1, # of connection points: 3
#     Node 8, Type 0, BuildingBlock: CUQRIR_clean_linker_1, # of connection points: 3
#     Node 9, Type 0, BuildingBlock: CUQRIR_clean_linker_1, # of connection points: 3
#     Node 10, Type 0, BuildingBlock: CUQRIR_clean_linker_1, # of connection points: 3
#     Node 11, Type 0, BuildingBlock: CUQRIR_clean_linker_1, # of connection points: 3
#     Node 12, Type 0, BuildingBlock: CUQRIR_clean_linker_1, # of connection points: 3
#     Node 13, Type 0, BuildingBlock: CUQRIR_clean_linker_1, # of connection points: 3
#     Node 14, Type 0, BuildingBlock: CUQRIR_clean_linker_1, # of connection points: 3
#     Node 15, Type 0, BuildingBlock: CUQRIR_clean_linker_1, # of connection points: 3
#     Node 16, Type 1, BuildingBlock: QUQFOY_clean_sbu_1, # of connection points: 4
#     Node 17, Type 1, BuildingBlock: QUQFOY_clean_sbu_1, # of connection points: 4
#     Node 18, Type 1, BuildingBlock: QUQFOY_clean_sbu_1, # of connection points: 4
#     Node 19, Type 1, BuildingBlock: QUQFOY_clean_sbu_1, # of connection points: 4
#     Node 20, Type 1, BuildingBlock: QUQFOY_clean_sbu_1, # of connection points: 4
#     Node 21, Type 1, BuildingBlock: QUQFOY_clean_sbu_1, # of connection points: 4
#     Node 22, Type 1, BuildingBlock: QUQFOY_clean_sbu_1, # of connection points: 4
#     Node 23, Type 1, BuildingBlock: QUQFOY_clean_sbu_1, # of connection points: 4
#     Node 24, Type 1, BuildingBlock: QUQFOY_clean_sbu_1, # of connection points: 4
#     Node 25, Type 1, BuildingBlock: QUQFOY_clean_sbu_1, # of connection points: 4
#     Node 26, Type 1, BuildingBlock: QUQFOY_clean_sbu_1, # of connection points: 4
#     Node 27, Type 1, BuildingBlock: QUQFOY_clean_sbu_1, # of connection points: 4
#     Edge 28, Type (0, 1), BuildingBlock: CIFDUS_clean_linker_0, # of connection points: 2
#     Edge 29, Type (0, 1), BuildingBlock: CIFDUS_clean_linker_0, # of connection points: 2
#     Edge 30, Type (0, 1), BuildingBlock: CIFDUS_clean_linker_0, # of connection points: 2
#     Edge 31, Type (0, 1), BuildingBlock: CIFDUS_clean_linker_0, # of connection points: 2
#     Edge 32, Type (0, 1), BuildingBlock: CIFDUS_clean_linker_0, # of connection points: 2
#     Edge 33, Type (0, 1), BuildingBlock: CIFDUS_clean_linker_0, # of connection points: 2
#     Edge 34, Type (0, 1), BuildingBlock: CIFDUS_clean_linker_0, # of connection points: 2
#     Edge 35, Type (0, 1), BuildingBlock: CIFDUS_clean_linker_0, # of connection points: 2
#     Edge 36, Type (0, 1), BuildingBlock: CIFDUS_clean_linker_0, # of connection points: 2
#     Edge 37, Type (0, 1), BuildingBlock: CIFDUS_clean_linker_0, # of connection points: 2
#     Edge 38, Type (0, 1), BuildingBlock: CIFDUS_clean_linker_0, # of connection points: 2
#     Edge 39, Type (0, 1), BuildingBlock: CIFDUS_clean_linker_0, # of connection points: 2
#     Edge 40, Type (0, 1), BuildingBlock: CIFDUS_clean_linker_0, # of connection points: 2
#     Edge 41, Type (0, 1), BuildingBlock: CIFDUS_clean_linker_0, # of connection points: 2
#     Edge 42, Type (0, 1), BuildingBlock: CIFDUS_clean_linker_0, # of connection points: 2
#     Edge 43, Type (0, 1), BuildingBlock: CIFDUS_clean_linker_0, # of connection points: 2
#     Edge 44, Type (0, 1), BuildingBlock: CIFDUS_clean_linker_0, # of connection points: 2
#     Edge 45, Type (0, 1), BuildingBlock: CIFDUS_clean_linker_0, # of connection points: 2
#     Edge 46, Type (0, 1), BuildingBlock: CIFDUS_clean_linker_0, # of connection points: 2
#     Edge 47, Type (0, 1), BuildingBlock: CIFDUS_clean_linker_0, # of connection points: 2
#     Edge 48, Type (0, 1), BuildingBlock: CIFDUS_clean_linker_0, # of connection points: 2
#     Edge 49, Type (0, 1), BuildingBlock: CIFDUS_clean_linker_0, # of connection points: 2
#     Edge 50, Type (0, 1), BuildingBlock: CIFDUS_clean_linker_0, # of connection points: 2
#     Edge 51, Type (0, 1), BuildingBlock: CIFDUS_clean_linker_0, # of connection points: 2
#     Edge 52, Type (0, 1), BuildingBlock: CIFDUS_clean_linker_0, # of connection points: 2
#     Edge 53, Type (0, 1), BuildingBlock: CIFDUS_clean_linker_0, # of connection points: 2
#     Edge 54, Type (0, 1), BuildingBlock: CIFDUS_clean_linker_0, # of connection points: 2
#     Edge 55, Type (0, 1), BuildingBlock: CIFDUS_clean_linker_0, # of connection points: 2
#     Edge 56, Type (0, 1), BuildingBlock: CIFDUS_clean_linker_0, # of connection points: 2
#     Edge 57, Type (0, 1), BuildingBlock: CIFDUS_clean_linker_0, # of connection points: 2
#     Edge 58, Type (0, 1), BuildingBlock: CIFDUS_clean_linker_0, # of connection points: 2
#     Edge 59, Type (0, 1), BuildingBlock: CIFDUS_clean_linker_0, # of connection points: 2
#     Edge 60, Type (0, 1), BuildingBlock: CIFDUS_clean_linker_0, # of connection points: 2
#     Edge 61, Type (0, 1), BuildingBlock: CIFDUS_clean_linker_0, # of connection points: 2
#     Edge 62, Type (0, 1), BuildingBlock: CIFDUS_clean_linker_0, # of connection points: 2
#     Edge 63, Type (0, 1), BuildingBlock: CIFDUS_clean_linker_0, # of connection points: 2
#     Edge 64, Type (0, 1), BuildingBlock: CIFDUS_clean_linker_0, # of connection points: 2
#     Edge 65, Type (0, 1), BuildingBlock: CIFDUS_clean_linker_0, # of connection points: 2
#     Edge 66, Type (0, 1), BuildingBlock: CIFDUS_clean_linker_0, # of connection points: 2
#     Edge 67, Type (0, 1), BuildingBlock: CIFDUS_clean_linker_0, # of connection points: 2
#     Edge 68, Type (0, 1), BuildingBlock: CIFDUS_clean_linker_0, # of connection points: 2
#     Edge 69, Type (0, 1), BuildingBlock: CIFDUS_clean_linker_0, # of connection points: 2
#     Edge 70, Type (0, 1), BuildingBlock: CIFDUS_clean_linker_0, # of connection points: 2
#     Edge 71, Type (0, 1), BuildingBlock: CIFDUS_clean_linker_0, # of connection points: 2
#     Edge 72, Type (0, 1), BuildingBlock: CIFDUS_clean_linker_0, # of connection points: 2
#     Edge 73, Type (0, 1), BuildingBlock: CIFDUS_clean_linker_0, # of connection points: 2
#     Edge 74, Type (0, 1), BuildingBlock: CIFDUS_clean_linker_0, # of connection points: 2
#     Edge 75, Type (0, 1), BuildingBlock: CIFDUS_clean_linker_0, # of connection points: 2
# Relax obj value: 0.110
# Max RMSD: 0.207
# Mean RMSD: 0.153
data_MOF--net-ctn--node1-QUQFOY_clean_sbu_1--node2-CUQRIR_clean_linker_1--edge1-CIFDUS_clean_linker_0
_symmetry_space_group_name_H-M    P1
_symmetry_Int_Tables_number       1
_symmetry_cell_setting            triclinic
loop_
_symmetry_equiv_pos_as_xyz
'x, y, z'
_cell_length_a     45.434162
_cell_length_b     41.753098
_cell_length_c     43.239258
_cell_angle_alpha  100.53604
_cell_angle_beta   88.603898
_cell_angle_gamma 98.467127
loop_
_atom_site_label
_atom_site_type_symbol
_atom_site_fract_x
_atom_site_fract_y
_atom_site_fract_z
_atom_type_partial_charge
C0 C 0.03511 0.03702 0.10426 0.0
N1 N 0.04705 0.04414 0.07676 0.0
N2 N 0.00798 0.04679 0.10897 0.0
C3 C 0.04918 0.01881 0.12573 0.0
C4 C 0.00356 0.05975 0.08335 0.0
N5 N 0.02707 0.05779 0.06356 0.0
C6 C 0.97549 0.07251 0.07666 0.0
H7 H 0.0581 0.99731 0.11177 0.0
H8 H 0.03349 0.01031 0.14353 0.0
H9 H 0.06792 0.03547 0.13866 0.0
H10 H 0.96309 0.08016 0.09849 0.0
H11 H 0.9609 0.05268 0.06117 0.0
H12 H 0.9807 0.09371 0.06427 0.0
C13 C 0.27969 0.75543 0.25035 0.0
N14 N 0.28843 0.73757 0.27076 0.0
N15 N 0.29869 0.78382 0.25122 0.0
C16 C 0.25403 0.74393 0.22768 0.0
C17 C 0.31933 0.78248 0.27286 0.0
N18 N 0.31294 0.75458 0.28498 0.0
C19 C 0.34627 0.8079 0.28141 0.0
H20 H 0.26273 0.73366 0.20433 0.0
H21 H 0.24233 0.76465 0.22478 0.0
H22 H 0.23771 0.72471 0.23576 0.0
H23 H 0.34249 0.83215 0.27651 0.0
H24 H 0.36545 0.79995 0.26721 0.0
H25 H 0.35195 0.81027 0.30663 0.0
C26 C 0.97088 0.5142 0.08312 0.0
N27 N 0.98667 0.489 0.08304 0.0
N28 N 0.95265 0.50811 0.05763 0.0
C29 C 0.97115 0.54316 0.10963 0.0
C30 C 0.95784 0.47811 0.04225 0.0
N31 N 0.97809 0.46639 0.05791 0.0
C32 C 0.94516 0.46133 0.01056 0.0
H33 H 0.97669 0.53651 0.13227 0.0
H34 H 0.94924 0.55207 0.11183 0.0
H35 H 0.9883 0.56348 0.10486 0.0
H36 H 0.93993 0.47955 0.99656 0.0
H37 H 0.92444 0.44465 0.01397 0.0
H38 H 0.96098 0.44623 0.9971 0.0
C39 C 0.7085 0.74197 0.24638 0.0
N40 N 0.73139 0.76346 0.23826 0.0
N41 N 0.69865 0.75289 0.27568 0.0
C42 C 0.69322 0.7126 0.22417 0.0
C43 C 0.71636 0.78195 0.28494 0.0
N44 N 0.73579 0.78881 0.26197 0.0
C45 C 0.71305 0.80456 0.31583 0.0
H46 H 0.68046 0.72123 0.20652 0.0
H47 H 0.6778 0.69638 0.23691 0.0
H48 H 0.70996 0.69837 0.21135 0.0
H49 H 0.7075 0.79008 0.33481 0.0
H50 H 0.69449 0.81868 0.314 0.0
H51 H 0.73377 0.82198 0.32234 0.0
C52 C 0.01054 0.99685 0.5062 0.0
N53 N 0.03719 0.99979 0.52062 0.0
N54 N 0.01057 0.02021 0.48831 0.0
C55 C 0.98559 0.96897 0.50681 0.0
C56 C 0.03828 0.03742 0.49217 0.0
N57 N 0.05448 0.02522 0.51199 0.0
C58 C 0.05054 0.064 0.47405 0.0
H59 H 0.99005 0.94751 0.48899 0.0
H60 H 0.964 0.97598 0.50112 0.0
H61 H 0.98417 0.96149 0.5302 0.0
H62 H 0.05656 0.08754 0.49068 0.0
H63 H 0.03426 0.06778 0.45684 0.0
H64 H 0.07111 0.05763 0.46157 0.0
C65 C 0.1948 0.77074 0.83354 0.0
N66 N 0.21126 0.75527 0.85008 0.0
N67 N 0.19433 0.75713 0.80273 0.0
C68 C 0.17813 0.79857 0.84745 0.0
C69 C 0.21124 0.73271 0.80099 0.0
N70 N 0.22213 0.732 0.82978 0.0
C71 C 0.21439 0.70749 0.77192 0.0
H72 H 0.15568 0.78822 0.85476 0.0
H73 H 0.17535 0.81416 0.82982 0.0
H74 H 0.18995 0.81404 0.86838 0.0
H75 H 0.23642 0.71372 0.76116 0.0
H76 H 0.19695 0.70702 0.75427 0.0
H77 H 0.2133 0.68265 0.77803 0.0
C78 C 0.9346 0.5583 0.44858 0.0
N79 N 0.95907 0.58155 0.45319 0.0
N80 N 0.91377 0.56548 0.47067 0.0
C81 C 0.93231 0.52697 0.42464 0.0
C82 C 0.92641 0.59362 0.48896 0.0
N83 N 0.95393 0.60332 0.47849 0.0
C84 C 0.91219 0.61108 0.51774 0.0
H85 H 0.92706 0.53235 0.40136 0.0
H86 H 0.91456 0.50791 0.43072 0.0
H87 H 0.95385 0.51721 0.42261 0.0
H88 H 0.92004 0.60312 0.53883 0.0
H89 H 0.88758 0.60507 0.51649 0.0
H90 H 0.91867 0.63814 0.52046 0.0
C91 C 0.77505 0.82306 0.84485 0.0
N92 N 0.79914 0.80764 0.83709 0.0
N93 N 0.77273 0.84516 0.8261 0.0
C94 C 0.75405 0.81692 0.87128 0.0
C95 C 0.79643 0.84289 0.80665 0.0
N96 N 0.81247 0.81976 0.813 0.0
C97 C 0.80593 0.86641 0.78444 0.0
H98 H 0.75147 0.79069 0.87383 0.0
H99 H 0.73191 0.82364 0.86724 0.0
H100 H 0.76337 0.83214 0.89361 0.0
H101 H 0.83049 0.87055 0.78193 0.0
H102 H 0.79827 0.89053 0.79279 0.0
H103 H 0.79582 0.85596 0.76099 0.0
C104 C 0.27266 0.31144 0.3346 0.0
N105 N 0.29843 0.29863 0.32928 0.0
N106 N 0.27181 0.33607 0.31835 0.0
C107 C 0.24881 0.30096 0.35694 0.0
C108 C 0.29815 0.33795 0.30298 0.0
N109 N 0.31451 0.31537 0.30974 0.0
C110 C 0.30877 0.36352 0.2832 0.0
H111 H 0.2469 0.27412 0.35672 0.0
H112 H 0.22701 0.3071 0.35071 0.0
H113 H 0.25485 0.3141 0.38114 0.0
H114 H 0.32006 0.38594 0.29862 0.0
H115 H 0.28991 0.37046 0.2714 0.0
H116 H 0.32477 0.35444 0.26506 0.0
C117 C 0.45155 0.01485 0.58713 0.0
N118 N 0.46724 0.98972 0.58768 0.0
N119 N 0.43515 0.00951 0.56037 0.0
C120 C 0.45026 0.0431 0.61408 0.0
C121 C 0.44143 0.98005 0.54473 0.0
N122 N 0.46076 0.96803 0.56136 0.0
C123 C 0.42958 0.96337 0.51269 0.0
H124 H 0.42812 0.05148 0.61526 0.0
H125 H 0.46741 0.06397 0.61064 0.0
H126 H 0.45481 0.03589 0.63676 0.0
H127 H 0.42473 0.98167 0.49859 0.0
H128 H 0.40875 0.94662 0.51552 0.0
H129 H 0.44564 0.94837 0.49963 0.0
C130 C 0.22562 0.24999 0.76915 0.0
N131 N 0.24733 0.27042 0.75754 0.0
N132 N 0.2188 0.26296 0.79909 0.0
C133 C 0.20788 0.22027 0.74955 0.0
C134 C 0.23719 0.29195 0.80509 0.0
N135 N 0.25404 0.2969 0.77972 0.0
C136 C 0.23761 0.31602 0.83566 0.0
H137 H 0.19145 0.20696 0.76384 0.0
H138 H 0.2231 0.20326 0.73802 0.0
H139 H 0.19606 0.22816 0.73071 0.0
H140 H 0.25991 0.33097 0.84005 0.0
H141 H 0.23153 0.30275 0.85545 0.0
H142 H 0.22102 0.33281 0.83466 0.0
C143 C 0.79132 0.23569 0.72932 0.0
N144 N 0.80091 0.22174 0.7524 0.0
N145 N 0.81186 0.26062 0.72321 0.0
C146 C 0.76305 0.22309 0.71068 0.0
C147 C 0.83465 0.26096 0.74298 0.0
N148 N 0.8281 0.2371 0.7607 0.0
C149 C 0.86209 0.28634 0.74672 0.0
H150 H 0.76572 0.22774 0.68623 0.0
H151 H 0.74487 0.23611 0.72195 0.0
H152 H 0.75651 0.19628 0.7099 0.0
H153 H 0.85751 0.30956 0.74004 0.0
H154 H 0.87976 0.27684 0.73104 0.0
H155 H 0.87038 0.2916 0.77132 0.0
C156 C 0.56195 0.58466 0.63211 0.0
N157 N 0.57033 0.58636 0.60204 0.0
N158 N 0.53921 0.60188 0.64096 0.0
C159 C 0.57605 0.56639 0.65339 0.0
C160 C 0.53433 0.61482 0.61541 0.0
N161 N 0.55316 0.60547 0.59176 0.0
C162 C 0.50929 0.63409 0.61258 0.0
H163 H 0.5641 0.54092 0.65104 0.0
H164 H 0.57443 0.5786 0.67831 0.0
H165 H 0.59977 0.56527 0.64718 0.0
H166 H 0.504 0.64848 0.63566 0.0
H167 H 0.48912 0.61667 0.60387 0.0
H168 H 0.51498 0.6512 0.59578 0.0
C169 C 0.51542 0.50981 0.02287 0.0
N170 N 0.54072 0.51368 0.04012 0.0
N171 N 0.52085 0.52242 0.99628 0.0
C172 C 0.48604 0.4911 0.0305 0.0
C173 C 0.55027 0.53382 0.99769 0.0
N174 N 0.56249 0.52811 0.02403 0.0
C175 C 0.56681 0.55204 0.974 0.0
H176 H 0.47215 0.48174 0.00911 0.0
H177 H 0.47383 0.50781 0.0473 0.0
H178 H 0.48946 0.47003 0.04168 0.0
H179 H 0.58413 0.57179 0.98572 0.0
H180 H 0.55146 0.56313 0.96093 0.0
H181 H 0.57799 0.53452 0.95695 0.0
C182 C 0.70432 0.27521 0.30421 0.0
N183 N 0.71979 0.26 0.32211 0.0
N184 N 0.7007 0.25771 0.27464 0.0
C185 C 0.69123 0.30634 0.31592 0.0
C186 C 0.71488 0.2314 0.27508 0.0
N187 N 0.72693 0.23307 0.3038 0.0
C188 C 0.71458 0.20258 0.24846 0.0
H189 H 0.66753 0.29979 0.32206 0.0
H190 H 0.69212 0.32163 0.29742 0.0
H191 H 0.7033 0.32123 0.33693 0.0
H192 H 0.73767 0.20047 0.24036 0.0
H193 H 0.70123 0.20522 0.22818 0.0
H194 H 0.70556 0.17952 0.25689 0.0
C195 C 0.42707 0.07326 0.9392 0.0
N196 N 0.45006 0.09822 0.94208 0.0
N197 N 0.40448 0.08181 0.95832 0.0
C198 C 0.42724 0.03977 0.91925 0.0
C199 C 0.41444 0.11291 0.97284 0.0
N200 N 0.44208 0.12321 0.96266 0.0
C201 C 0.39871 0.13156 0.99989 0.0
H202 H 0.44051 0.04156 0.89758 0.0
H203 H 0.40425 0.02775 0.91271 0.0
H204 H 0.43742 0.02412 0.93288 0.0
H205 H 0.41326 0.13769 0.02103 0.0
H206 H 0.37726 0.11746 0.00558 0.0
H207 H 0.39404 0.15498 0.9938 0.0
O208 O 0.26643 0.8675 0.03348 0.0
Cd209 Cd 0.27188 0.9049 0.07214 0.0
Cd210 Cd 0.22891 0.92559 0.03886 0.0
O211 O 0.22303 0.87651 0.01777 0.0
O212 O 0.29673 0.8876 0.10083 0.0
O213 O 0.25148 0.89895 0.11317 0.0
C214 C 0.27498 0.88789 0.1205 0.0
C215 C 0.18884 0.95508 0.05088 0.0
C216 C 0.24369 0.85872 0.01581 0.0
C217 C 0.29143 0.96205 0.04184 0.0
O218 O 0.26691 0.95413 0.02695 0.0
O219 O 0.29652 0.94805 0.06449 0.0
O220 O 0.19596 0.9448 0.02215 0.0
O221 O 0.20352 0.94717 0.07289 0.0
O222 O 0.17906 0.56438 0.32339 0.0
Cd223 Cd 0.14891 0.52276 0.32401 0.0
Cd224 Cd 0.12515 0.54127 0.27182 0.0
O225 O 0.16687 0.56988 0.27572 0.0
O226 O 0.16874 0.49265 0.34458 0.0
O227 O 0.15508 0.48122 0.29446 0.0
C228 C 0.16794 0.4731 0.31766 0.0
C229 C 0.10388 0.5287 0.22111 0.0
C230 C 0.18388 0.57831 0.29966 0.0
C231 C 0.08996 0.5443 0.33379 0.0
O232 O 0.09357 0.55133 0.3064 0.0
O233 O 0.10891 0.53018 0.34531 0.0
O234 O 0.10871 0.55827 0.23669 0.0
O235 O 0.1117 0.50564 0.2339 0.0
O236 O 0.7828 0.69221 0.97415 0.0
Cd237 Cd 0.76766 0.67204 0.01355 0.0
Cd238 Cd 0.7889 0.61827 0.97799 0.0
O239 O 0.79528 0.64761 0.9438 0.0
O240 O 0.75879 0.70945 0.04652 0.0
O241 O 0.79236 0.6778 0.05273 0.0
C242 C 0.77756 0.70132 0.06451 0.0
C243 C 0.82667 0.59241 0.99333 0.0
C244 C 0.79221 0.67792 0.94795 0.0
C245 C 0.72569 0.60765 1.0006 0.0
O246 O 0.74681 0.59515 0.98555 0.0
O247 O 0.72903 0.63815 0.01244 0.0
O248 O 0.81218 0.58095 0.96744 0.0
O249 O 0.82085 0.61976 0.00995 0.0
O250 O 0.89565 0.02174 0.33845 0.0
Cd251 Cd 0.87357 0.01654 0.29659 0.0
Cd252 Cd 0.83113 0.04025 0.33512 0.0
O253 O 0.86157 0.04164 0.37052 0.0
O254 O 0.90393 0.00549 0.26422 0.0
O255 O 0.88312 0.05083 0.26903 0.0
C256 C 0.90145 0.03236 0.25458 0.0
C257 C 0.8149 0.08836 0.32679 0.0
C258 C 0.88702 0.03231 0.36611 0.0
C259 C 0.81482 0.97295 0.29642 0.0
O260 O 0.80596 0.9956 0.31672 0.0
O261 O 0.84097 0.97672 0.28542 0.0
O262 O 0.80371 0.0733 0.34889 0.0
O263 O 0.83575 0.07619 0.30968 0.0
O264 O 0.28376 0.20543 0.49033 0.0
Cd265 Cd 0.26588 0.18238 0.5266 0.0
Cd266 Cd 0.27654 0.12846 0.48323 0.0
O267 O 0.28746 0.16231 0.45313 0.0
O268 O 0.26145 0.21916 0.56218 0.0
O269 O 0.2894 0.18078 0.56512 0.0
C270 C 0.27811 0.20637 0.57878 0.0
C271 C 0.31175 0.09863 0.49748 0.0
C272 C 0.29014 0.19342 0.46215 0.0
C273 C 0.21476 0.12663 0.50945 0.0
O274 O 0.23254 0.11072 0.49189 0.0
O275 O 0.22354 0.15586 0.52347 0.0
O276 O 0.29712 0.08899 0.4714 0.0
O277 O 0.30715 0.12596 0.51509 0.0
O278 O 0.40967 0.528 0.84466 0.0
Cd279 Cd 0.3894 0.52405 0.80202 0.0
Cd280 Cd 0.34572 0.5486 0.84074 0.0
O281 O 0.37593 0.54955 0.87613 0.0
O282 O 0.42072 0.51082 0.77157 0.0
O283 O 0.40293 0.5578 0.77457 0.0
C284 C 0.42087 0.53803 0.7616 0.0
C285 C 0.32533 0.59596 0.8373 0.0
C286 C 0.40089 0.53903 0.87213 0.0
C287 C 0.33007 0.48128 0.80096 0.0
O288 O 0.32143 0.50374 0.82163 0.0
O289 O 0.35614 0.48504 0.7897 0.0
O290 O 0.31619 0.5781 0.85801 0.0
O291 O 0.34659 0.58712 0.81872 0.0
O292 O 0.74189 0.35378 0.51382 0.0
Cd293 Cd 0.75684 0.38534 0.55478 0.0
Cd294 Cd 0.71646 0.42438 0.52973 0.0
O295 O 0.70738 0.38028 0.49887 0.0
O296 O 0.78212 0.35922 0.57451 0.0
O297 O 0.74232 0.37711 0.59764 0.0
C298 C 0.76468 0.36143 0.59847 0.0
C299 C 0.67705 0.45442 0.54455 0.0
C300 C 0.72119 0.35546 0.49517 0.0
C301 C 0.78288 0.44953 0.536 0.0
O302 O 0.75747 0.452 0.5258 0.0
O303 O 0.78653 0.42615 0.54993 0.0
O304 O 0.6893 0.45373 0.51734 0.0
O305 O 0.6868 0.4377 0.56342 0.0
O306 O 0.67645 0.06727 0.80958 0.0
Cd307 Cd 0.64663 0.02682 0.81688 0.0
Cd308 Cd 0.61118 0.04985 0.77354 0.0
O309 O 0.64961 0.08279 0.77447 0.0
O310 O 0.67055 1.00128 0.83881 0.0
O311 O 0.65144 0.98235 0.79134 0.0
C312 C 0.66739 0.97829 0.81428 0.0
C313 C 0.58537 0.03563 0.72529 0.0
C314 C 0.67308 0.08665 0.7909 0.0
C315 C 0.58792 0.04876 0.8396 0.0
O316 O 0.58508 0.0567 0.81295 0.0
O317 O 0.60988 0.03498 0.84536 0.0
O318 O 0.58816 0.06491 0.74159 0.0
O319 O 0.59721 0.01373 0.73622 0.0
O320 O 0.97439 0.25997 0.97078 0.0
Cd321 Cd 0.97757 0.21753 0.93865 0.0
Cd322 Cd 0.01516 0.25624 0.90761 0.0
O323 O 0.00964 0.28994 0.94821 0.0
O324 O 0.97317 0.17825 0.95951 0.0
O325 O 0.01589 0.19907 0.93995 0.0
C326 C 0.0013 0.17764 0.95487 0.0
C327 C 0.0619 0.26203 0.88354 0.0
C328 C 0.99107 0.28717 0.9704 0.0
C329 C 0.95642 0.22332 0.87601 0.0
O330 O 0.98072 0.2426 0.87531 0.0
O331 O 0.95022 0.20909 0.89943 0.0
O332 O 0.04386 0.2831 0.88389 0.0
O333 O 0.05379 0.23755 0.89776 0.0
O334 O 0.4793 0.77519 0.47313 0.0
Cd335 Cd 0.4729 0.72825 0.44653 0.0
Cd336 Cd 0.51017 0.75361 0.40569 0.0
O337 O 0.51115 0.79564 0.43995 0.0
O338 O 0.46369 0.69439 0.47381 0.0
O339 O 0.50576 0.70094 0.44704 0.0
C340 C 0.48947 0.68578 0.46633 0.0
C341 C 0.55479 0.74394 0.38015 0.0
C342 C 0.49654 0.7994 0.46553 0.0
C343 C 0.44702 0.72661 0.38378 0.0
O344 O 0.47298 0.73944 0.3772 0.0
O345 O 0.44148 0.71961 0.41091 0.0
O346 O 0.54034 0.76653 0.3745 0.0
O347 O 0.54433 0.72694 0.40109 0.0
O348 O 0.97028 0.79203 0.70683 0.0
Cd349 Cd 0.00871 0.77953 0.68428 0.0
Cd350 Cd 0.98962 0.81616 0.64056 0.0
O351 O 0.95242 0.81444 0.67008 0.0
O352 O 0.02324 0.75408 0.71375 0.0
O353 O 0.05014 0.79817 0.70089 0.0
C354 C 0.04787 0.77393 0.71595 0.0
C355 C 0.00949 0.86568 0.62469 0.0
C356 C 0.94957 0.80451 0.69635 0.0
C357 C 0.00126 0.74707 0.61551 0.0
O358 O 0.99551 0.77395 0.60898 0.0
O359 O 0.00556 0.74459 0.64381 0.0
O360 O 0.98543 0.84827 0.61241 0.0
O361 O 0.02217 0.85568 0.64684 0.0
O362 O 0.46998 0.27473 0.19329 0.0
Cd363 Cd 0.50792 0.27446 0.16585 0.0
Cd364 Cd 0.48817 0.32806 0.1499 0.0
O365 O 0.46127 0.32448 0.18953 0.0
O366 O 0.52878 0.24159 0.18094 0.0
O367 O 0.54864 0.29367 0.18359 0.0
C368 C 0.55088 0.26459 0.18872 0.0
C369 C 0.51507 0.37765 0.1404 0.0
C370 C 0.45541 0.29861 0.20157 0.0
C371 C 0.48813 0.26814 0.09947 0.0
O372 O 0.47725 0.29472 0.10836 0.0
O373 O 0.50311 0.25718 0.11854 0.0
O374 O 0.48641 0.37235 0.1392 0.0
O375 O 0.52863 0.35561 0.14904 0.0
H376 H 0.26159 0.77496 0.88366 0.0
H377 H 0.16681 0.75 0.89147 0.0
H378 H 0.16863 0.77692 0.94675 0.0
H379 H 0.19619 0.81651 0.98912 0.0
H380 H 0.29149 0.83989 0.98234 0.0
H381 H 0.29077 0.80425 0.93075 0.0
C382 C 0.24165 0.77448 0.89797 0.0
C383 C 0.21404 0.76153 0.88374 0.0
C384 C 0.24294 0.7902 0.92966 0.0
C385 C 0.18818 0.76058 0.90218 0.0
C386 C 0.18921 0.77607 0.93362 0.0
C387 C 0.21683 0.81305 0.97665 0.0
C388 C 0.24372 0.83117 0.9891 0.0
C389 C 0.21627 0.79246 0.94708 0.0
C390 C 0.27045 0.82622 0.97308 0.0
C391 C 0.27006 0.80602 0.94348 0.0
H392 H 0.96767 0.58075 0.3919 0.0
H393 H 0.01192 0.5773 0.47772 0.0
H394 H 0.05718 0.56554 0.4483 0.0
H395 H 0.08278 0.55272 0.39746 0.0
H396 H 0.03801 0.55661 0.31159 0.0
H397 H 0.99421 0.57128 0.34148 0.0
C398 C 0.98749 0.57789 0.40399 0.0
C399 C 0.98683 0.58004 0.43673 0.0
C400 C 0.01304 0.57065 0.38685 0.0
C401 C 0.01234 0.57627 0.45251 0.0
C402 C 0.03798 0.56916 0.43566 0.0
C403 C 0.06341 0.55673 0.38532 0.0
C404 C 0.06357 0.55323 0.35231 0.0
C405 C 0.03838 0.56564 0.40272 0.0
C406 C 0.03846 0.55903 0.33696 0.0
C407 C 0.0134 0.56747 0.35402 0.0
H408 H 0.79151 0.74141 0.82607 0.0
H409 H 0.82822 0.82749 0.89153 0.0
H410 H 0.83109 0.79428 0.93223 0.0
H411 H 0.81625 0.74207 0.95119 0.0
H412 H 0.78101 0.65504 0.88552 0.0
H413 H 0.78443 0.68688 0.84293 0.0
C414 C 0.80134 0.75243 0.84884 0.0
C415 C 0.81009 0.78669 0.85582 0.0
C416 C 0.80235 0.73311 0.8723 0.0
C417 C 0.822 0.80104 0.88564 0.0
C418 C 0.82316 0.78213 0.90899 0.0
C419 C 0.80971 0.73003 0.92745 0.0
C420 C 0.79796 0.69638 0.92161 0.0
C421 C 0.81227 0.74837 0.90297 0.0
C422 C 0.79002 0.68095 0.89064 0.0
C423 C 0.79193 0.69917 0.86628 0.0
H424 H 0.95861 0.04393 0.4928 0.0
H425 H 0.01783 0.99471 0.42794 0.0
H426 H 0.98461 0.99419 0.38394 0.0
H427 H 0.9393 0.00823 0.36425 0.0
H428 H 0.87906 0.05737 0.42862 0.0
H429 H 0.91202 0.0576 0.47267 0.0
C430 C 0.96391 0.0331 0.46895 0.0
C431 C 0.99035 0.01943 0.46315 0.0
C432 C 0.94469 0.03302 0.44392 0.0
C433 C 0.99745 0.00534 0.43246 0.0
C434 C 0.97855 0.00511 0.4075 0.0
C435 C 0.9333 0.0191 0.38787 0.0
C436 C 0.90676 0.03288 0.39306 0.0
C437 C 0.9522 0.019 0.41295 0.0
C438 C 0.89936 0.04663 0.42393 0.0
C439 C 0.91819 0.04675 0.44913 0.0
H440 H 0.27901 0.22575 0.72661 0.0
H441 H 0.235 0.30757 0.71633 0.0
H442 H 0.24406 0.29737 0.65944 0.0
H443 H 0.25964 0.26134 0.61239 0.0
H444 H 0.30274 0.17831 0.62243 0.0
H445 H 0.29943 0.19294 0.67966 0.0
C446 C 0.27196 0.24152 0.71175 0.0
C447 C 0.25642 0.26727 0.72518 0.0
C448 C 0.27693 0.23512 0.67916 0.0
C449 C 0.2472 0.28779 0.70619 0.0
C450 C 0.25223 0.28179 0.67378 0.0
C451 C 0.26876 0.24673 0.62708 0.0
C452 C 0.28113 0.21855 0.61312 0.0
C453 C 0.26637 0.25499 0.65992 0.0
C454 C 0.29305 0.20007 0.63253 0.0
C455 C 0.291 0.2083 0.66527 0.0
H456 H 0.50901 0.54422 0.64781 0.0
H457 H 0.52224 0.64727 0.68839 0.0
H458 H 0.48455 0.63728 0.72875 0.0
H459 H 0.44849 0.59828 0.75282 0.0
H460 H 0.43909 0.49457 0.7136 0.0
H461 H 0.4747 0.50549 0.67235 0.0
C462 C 0.50378 0.56432 0.66579 0.0
C463 C 0.51814 0.59633 0.66543 0.0
C464 C 0.48276 0.55819 0.68895 0.0
C465 C 0.51114 0.62247 0.68836 0.0
C466 C 0.48972 0.61671 0.71132 0.0
C467 C 0.45413 0.57823 0.73503 0.0
C468 C 0.44115 0.54571 0.73603 0.0
C469 C 0.47536 0.5846 0.71184 0.0
C470 C 0.44888 0.51979 0.71324 0.0
C471 C 0.46922 0.52598 0.68969 0.0
H472 H 0.76795 0.29592 0.71895 0.0
H473 H 0.85026 0.27136 0.67654 0.0
H474 H 0.84355 0.30189 0.63443 0.0
H475 H 0.81258 0.33246 0.60818 0.0
H476 H 0.72945 0.35614 0.65009 0.0
H477 H 0.7379 0.32879 0.69383 0.0
C478 C 0.78439 0.29752 0.70049 0.0
C479 C 0.8095 0.28148 0.70056 0.0
C480 C 0.78003 0.31458 0.67622 0.0
C481 C 0.83094 0.28382 0.6769 0.0
C482 C 0.82694 0.301 0.65279 0.0
C483 C 0.79631 0.33175 0.62691 0.0
C484 C 0.77027 0.34612 0.6257 0.0
C485 C 0.80131 0.31599 0.65194 0.0
C486 C 0.7496 0.34519 0.65035 0.0
C487 C 0.75442 0.32956 0.67537 0.0
H488 H 0.51416 0.03571 0.60261 0.0
H489 H 0.47097 0.94344 0.62361 0.0
H490 H 0.50681 0.94706 0.66614 0.0
H491 H 0.5474 0.97998 0.70103 0.0
H492 H 0.58608 0.07532 0.68262 0.0
H493 H 0.55519 0.06735 0.6357 0.0
C494 C 0.51287 0.01633 0.61643 0.0
C495 C 0.49016 0.98935 0.61006 0.0
C496 C 0.53262 0.01942 0.64155 0.0
C497 C 0.4886 0.96416 0.62779 0.0
C498 C 0.50889 0.96647 0.65232 0.0
C499 C 0.54933 0.99865 0.68635 0.0
C500 C 0.56896 0.02819 0.69516 0.0
C501 C 0.5306 0.99441 0.65992 0.0
C502 C 0.57103 0.05247 0.67631 0.0
C503 C 0.55338 0.04794 0.64951 0.0
H504 H 0.88483 0.22671 0.75409 0.0
H505 H 0.81302 0.23187 0.8207 0.0
H506 H 0.84565 0.22331 0.8619 0.0
H507 H 0.8961 0.21936 0.87998 0.0
H508 H 0.96883 0.22034 0.81406 0.0
H509 H 0.93469 0.22166 0.77165 0.0
C510 C 0.87646 0.22601 0.77768 0.0
C511 C 0.8467 0.23001 0.78447 0.0
C512 C 0.89563 0.2223 0.80136 0.0
C513 C 0.83581 0.22852 0.81492 0.0
C514 C 0.85453 0.22386 0.83848 0.0
C515 C 0.90427 0.21922 0.85618 0.0
C516 C 0.93487 0.21954 0.85005 0.0
C517 C 0.88465 0.2213 0.83212 0.0
C518 C 0.94535 0.22003 0.81928 0.0
C519 C 0.92587 0.22089 0.79507 0.0
H520 H 0.50509 0.95083 0.523 0.0
H521 H 0.43413 0.91347 0.58002 0.0
H522 H 0.44121 0.85674 0.5578 0.0
H523 H 0.4635 0.81824 0.51742 0.0
H524 H 0.53264 0.85584 0.45766 0.0
H525 H 0.53065 0.91182 0.48558 0.0
C526 C 0.49196 0.9301 0.53108 0.0
C527 C 0.46957 0.93589 0.55342 0.0
C528 C 0.49549 0.89768 0.51725 0.0
C529 C 0.4519 0.9092 0.56331 0.0
C530 C 0.45575 0.87691 0.55035 0.0
C531 C 0.47847 0.83858 0.51077 0.0
C532 C 0.49795 0.83275 0.4852 0.0
C533 C 0.47686 0.87085 0.52657 0.0
C534 C 0.51721 0.85953 0.47704 0.0
C535 C 0.5161 0.89163 0.493 0.0
H536 H 0.17499 0.29874 0.80305 0.0
H537 H 0.20064 0.21256 0.82972 0.0
H538 H 0.15359 0.20388 0.85877 0.0
H539 H 0.10561 0.22238 0.87737 0.0
H540 H 0.08213 0.31034 0.85092 0.0
H541 H 0.12802 0.31715 0.82135 0.0
C542 C 0.17009 0.27812 0.81531 0.0
C543 C 0.19087 0.25634 0.81462 0.0
C544 C 0.14359 0.27386 0.83213 0.0
C545 C 0.18466 0.22947 0.83015 0.0
C546 C 0.15794 0.22469 0.84675 0.0
C547 C 0.11062 0.24303 0.86518 0.0
C548 C 0.09043 0.26583 0.86645 0.0
C549 C 0.1373 0.24696 0.84811 0.0
C550 C 0.09722 0.29244 0.85047 0.0
C551 C 0.12346 0.29638 0.83344 0.0
H552 H 0.50941 0.58332 0.55014 0.0
H553 H 0.59249 0.64782 0.56639 0.0
H554 H 0.58241 0.67455 0.52274 0.0
H555 H 0.54528 0.68701 0.4877 0.0
H556 H 0.458 0.62951 0.47967 0.0
H557 H 0.47374 0.59289 0.51221 0.0
C558 C 0.52572 0.60229 0.54303 0.0
C559 C 0.55207 0.61289 0.56063 0.0
C560 C 0.51834 0.61958 0.52003 0.0
C561 C 0.57275 0.63826 0.55223 0.0
C562 C 0.56656 0.65411 0.5278 0.0
C563 C 0.53003 0.66593 0.49246 0.0
C564 C 0.50056 0.66084 0.48139 0.0
C565 C 0.53878 0.64608 0.51262 0.0
C566 C 0.48076 0.63388 0.48811 0.0
C567 C 0.48976 0.61298 0.50669 0.0
H568 H 0.81919 0.80506 0.7507 0.0
H569 H 0.86591 0.81582 0.83823 0.0
H570 H 0.91261 0.80986 0.80957 0.0
H571 H 0.94088 0.80665 0.75951 0.0
H572 H 0.89435 0.80404 0.67304 0.0
H573 H 0.84714 0.80322 0.70133 0.0
C574 C 0.83964 0.80601 0.76345 0.0
C575 C 0.83903 0.81082 0.79654 0.0
C576 C 0.86659 0.80496 0.74696 0.0
C577 C 0.86556 0.8115 0.8128 0.0
C578 C 0.89237 0.80869 0.79639 0.0
C579 C 0.92039 0.80592 0.74689 0.0
C580 C 0.92121 0.80554 0.71415 0.0
C581 C 0.89328 0.80625 0.76349 0.0
C582 C 0.89446 0.80473 0.6982 0.0
C583 C 0.8674 0.804 0.71434 0.0
H584 H 0.0342 0.00346 0.58299 0.0
H585 H 0.05542 0.9425 0.49653 0.0
H586 H 0.05174 0.89473 0.52266 0.0
H587 H 0.03388 0.86883 0.56782 0.0
H588 H 0.01235 0.92933 0.65468 0.0
H589 H 0.02471 0.9789 0.63114 0.0
C590 C 0.03937 0.98 0.57047 0.0
C591 C 0.04558 0.97638 0.53812 0.0
C592 C 0.03629 0.95251 0.58558 0.0
C593 C 0.05136 0.94578 0.52162 0.0
C594 C 0.04872 0.91844 0.53645 0.0
C595 C 0.03264 0.89301 0.58172 0.0
C596 C 0.02214 0.89567 0.61277 0.0
C597 C 0.03989 0.92123 0.56804 0.0
C598 C 0.0205 0.92692 0.63073 0.0
C599 C 0.02746 0.95517 0.61722 0.0
H600 H 0.13835 0.7289 0.80144 0.0
H601 H 0.20083 0.7939 0.75727 0.0
H602 H 0.16048 0.80591 0.72605 0.0
H603 H 0.10672 0.79923 0.71349 0.0
H604 H 0.04479 0.73407 0.75913 0.0
H605 H 0.0854 0.72096 0.78798 0.0
C606 C 0.14294 0.74514 0.78443 0.0
C607 C 0.17212 0.7602 0.78097 0.0
C608 C 0.1197 0.75226 0.76741 0.0
C609 C 0.17834 0.78176 0.7596 0.0
C610 C 0.1553 0.78879 0.74214 0.0
C611 C 0.10218 0.78234 0.72989 0.0
C612 C 0.07278 0.76781 0.7343 0.0
C613 C 0.12577 0.77455 0.74624 0.0
C614 C 0.06721 0.74564 0.75534 0.0
C615 C 0.09041 0.73801 0.77179 0.0
H616 H 0.98393 0.60669 0.53095 0.0
H617 H 0.96566 0.66241 0.46133 0.0
H618 H 0.98272 0.71409 0.49749 0.0
H619 H 0.99369 0.74246 0.55215 0.0
H620 H 0.00935 0.68535 0.6224 0.0
H621 H 0.00264 0.63522 0.58297 0.0
C622 C 0.98512 0.63025 0.52343 0.0
C623 C 0.97396 0.63116 0.49375 0.0
C624 C 0.99356 0.65951 0.54484 0.0
C625 C 0.97473 0.66149 0.48403 0.0
C626 C 0.98394 0.69089 0.5049 0.0
C627 C 0.99609 0.71913 0.55874 0.0
C628 C 0.00132 0.71767 0.5904 0.0
C629 C 0.99191 0.69015 0.53592 0.0
C630 C 0.00483 0.68725 0.59837 0.0
C631 C 0.00107 0.65848 0.57581 0.0
H632 H 0.71694 0.84756 0.27177 0.0
H633 H 0.7944 0.7998 0.24928 0.0
H634 H 0.82594 0.85369 0.25467 0.0
H635 H 0.83164 0.9139 0.27158 0.0
H636 H 0.75425 0.96087 0.29973 0.0
H637 H 0.72234 0.90769 0.2871 0.0
C638 C 0.74076 0.84912 0.2682 0.0
C639 C 0.75364 0.82007 0.26094 0.0
C640 C 0.75862 0.87992 0.27282 0.0
C641 C 0.78426 0.82204 0.25514 0.0
C642 C 0.80218 0.85274 0.25846 0.0
C643 C 0.80775 0.91256 0.27462 0.0
C644 C 0.7953 0.94125 0.2867 0.0
C645 C 0.78968 0.8818 0.2682 0.0
C646 C 0.76436 0.9391 0.29071 0.0
C647 C 0.74612 0.90874 0.28343 0.0
H648 H 0.77675 0.2113 0.28017 0.0
H649 H 0.70871 0.19898 0.34967 0.0
H650 H 0.7311 0.15395 0.36451 0.0
H651 H 0.76848 0.11624 0.35544 0.0
H652 H 0.8355 0.12715 0.28412 0.0
H653 H 0.81501 0.17433 0.27194 0.0
C654 C 0.76696 0.19858 0.29851 0.0
C655 C 0.74122 0.20813 0.31384 0.0
C656 C 0.77965 0.17242 0.30636 0.0
C657 C 0.72873 0.19206 0.33787 0.0
C658 C 0.74141 0.16626 0.34614 0.0
C659 C 0.77874 0.12904 0.33736 0.0
C660 C 0.80344 0.11806 0.32064 0.0
C661 C 0.76666 0.15595 0.33025 0.0
C662 C 0.81643 0.13498 0.29729 0.0
C663 C 0.80472 0.16197 0.29029 0.0
H664 H 0.40474 0.05774 0.01094 0.0
H665 H 0.35225 0.05712 0.92944 0.0
H666 H 0.31141 0.02036 0.94883 0.0
H667 H 0.29135 0.98859 0.98902 0.0
H668 H 0.34448 0.98909 0.07068 0.0
H669 H 0.38448 0.02618 0.05149 0.0
C670 C 0.38425 0.04933 0.99764 0.0
C671 C 0.38103 0.05967 0.96902 0.0
C672 C 0.36118 0.02858 0.00905 0.0
C673 C 0.35478 0.04907 0.95153 0.0
C674 C 0.33161 0.02829 0.96267 0.0
C675 C 0.31157 0.99697 0.00277 0.0
C676 C 0.31489 0.98611 0.03128 0.0
C677 C 0.33458 0.01796 0.99145 0.0
C678 C 0.34134 0.99707 0.04867 0.0
C679 C 0.36426 0.01821 0.0377 0.0
H680 H 0.23547 0.3498 0.27591 0.0
H681 H 0.26417 0.37681 0.37242 0.0
H682 H 0.23265 0.42043 0.38152 0.0
H683 H 0.19916 0.45261 0.36122 0.0
H684 H 0.17128 0.42718 0.26402 0.0
H685 H 0.2001 0.38124 0.25585 0.0
C686 C 0.23461 0.36533 0.29884 0.0
C687 C 0.25201 0.36044 0.32351 0.0
C688 C 0.2167 0.39059 0.30368 0.0
C689 C 0.25076 0.38028 0.35327 0.0
C690 C 0.23287 0.4052 0.35838 0.0
C691 C 0.19912 0.43688 0.33829 0.0
C692 C 0.18311 0.44344 0.31326 0.0
C693 C 0.21602 0.41083 0.33366 0.0
C694 C 0.1834 0.42274 0.28371 0.0
C695 C 0.19995 0.3965 0.27899 0.0
H696 H 0.08007 0.0835 0.54209 0.0
H697 H 0.09872 0.99008 0.4918 0.0
H698 H 0.15131 0.01297 0.48724 0.0
H699 H 0.19045 0.06171 0.49226 0.0
H700 H 0.16997 0.156 0.54023 0.0
H701 H 0.11965 0.13103 0.55039 0.0
C702 C 0.096 0.06806 0.53105 0.0
C703 C 0.08586 0.03517 0.51769 0.0
C704 C 0.12563 0.08191 0.52717 0.0
C705 C 0.10631 0.01526 0.5029 0.0
C706 C 0.13619 0.02857 0.49977 0.0
C707 C 0.17498 0.0768 0.50493 0.0
C708 C 0.18402 0.11085 0.51507 0.0
C709 C 0.14586 0.06222 0.51083 0.0
C710 C 0.1637 0.12985 0.53185 0.0
C711 C 0.13488 0.11556 0.53786 0.0
H712 H 0.7467 0.22224 0.77641 0.0
H713 H 0.81716 0.16307 0.75782 0.0
H714 H 0.78435 0.11573 0.77231 0.0
H715 H 0.73332 0.08976 0.78398 0.0
H716 H 0.66206 0.14867 0.79518 0.0
H717 H 0.69706 0.19748 0.78951 0.0
C718 C 0.75479 0.19896 0.77584 0.0
C719 C 0.78395 0.19577 0.76587 0.0
C720 C 0.73544 0.17178 0.78239 0.0
C721 C 0.79469 0.16588 0.76557 0.0
C722 C 0.77586 0.13886 0.77352 0.0
C723 C 0.72572 0.11344 0.78554 0.0
C724 C 0.69529 0.11583 0.78984 0.0
C725 C 0.74586 0.14124 0.781 0.0
C726 C 0.68541 0.1464 0.7916 0.0
C727 C 0.70537 0.17427 0.78845 0.0
H728 H 0.3797 0.991 0.53667 0.0
H729 H 0.44714 0.07522 0.5622 0.0
H730 H 0.41414 0.11107 0.54702 0.0
H731 H 0.36614 0.11817 0.5252 0.0
H732 H 0.3021 0.03244 0.49232 0.0
H733 H 0.33392 0.99723 0.51063 0.0
C734 C 0.38736 0.01708 0.53835 0.0
C735 C 0.41575 0.03045 0.55077 0.0
C736 C 0.36889 0.0372 0.52801 0.0
C737 C 0.42514 0.06446 0.5534 0.0
C738 C 0.40638 0.0849 0.54442 0.0
C739 C 0.35929 0.09177 0.52206 0.0
C740 C 0.33185 0.07783 0.50764 0.0
C741 C 0.3782 0.07154 0.53163 0.0
C742 C 0.32324 0.0436 0.50328 0.0
C743 C 0.34135 0.02351 0.51383 0.0
H744 H 0.56529 0.5209 0.59532 0.0
H745 H 0.61894 0.60503 0.56819 0.0
H746 H 0.65538 0.57028 0.54422 0.0
H747 H 0.67471 0.51685 0.53648 0.0
H748 H 0.62531 0.43592 0.57343 0.0
H749 H 0.58501 0.46848 0.58929 0.0
C750 C 0.58499 0.53155 0.5841 0.0
C751 C 0.58932 0.56547 0.58336 0.0
C752 C 0.60693 0.51199 0.5729 0.0
C753 C 0.61463 0.57895 0.56834 0.0
C754 C 0.63577 0.55912 0.55519 0.0
C755 C 0.65498 0.50641 0.54784 0.0
C756 C 0.65277 0.47409 0.55377 0.0
C757 C 0.63255 0.5258 0.55814 0.0
C758 C 0.62743 0.46081 0.56884 0.0
C759 C 0.60439 0.47935 0.57774 0.0
H760 H 0.67787 0.2696 0.36569 0.0
H761 H 0.77216 0.27078 0.3531 0.0
H762 H 0.78068 0.29583 0.40878 0.0
H763 H 0.76152 0.32497 0.45837 0.0
H764 H 0.6676 0.33048 0.46771 0.0
H765 H 0.6584 0.29551 0.41596 0.0
C766 C 0.70021 0.27525 0.37537 0.0
C767 C 0.72447 0.26924 0.35554 0.0
C768 C 0.70486 0.29117 0.40663 0.0
C769 C 0.7533 0.27558 0.36813 0.0
C770 C 0.7581 0.29007 0.39978 0.0
C771 C 0.739 0.31782 0.4493 0.0
C772 C 0.7152 0.33012 0.46666 0.0
C773 C 0.73412 0.29911 0.41891 0.0
C774 C 0.68617 0.32126 0.4546 0.0
C775 C 0.68095 0.30138 0.42506 0.0
H776 H 0.48954 0.05717 0.94531 0.0
H777 H 0.47254 0.13781 0.90246 0.0
H778 H 0.51521 0.13054 0.86721 0.0
H779 H 0.55404 0.09765 0.84554 0.0
H780 H 0.57175 0.01723 0.88893 0.0
H781 H 0.53196 0.02769 0.92708 0.0
C782 C 0.49562 0.0733 0.92847 0.0
C783 C 0.47805 0.09771 0.92592 0.0
C784 C 0.51986 0.06862 0.90823 0.0
C785 C 0.486 0.11895 0.90456 0.0
C786 C 0.51013 0.11456 0.88435 0.0
C787 C 0.54925 0.08247 0.86342 0.0
C788 C 0.56543 0.05633 0.86411 0.0
C789 C 0.52666 0.08887 0.8854 0.0
C790 C 0.55946 0.03734 0.88782 0.0
C791 C 0.53673 0.04331 0.90959 0.0
H792 H 0.31628 0.31184 0.38884 0.0
H793 H 0.29829 0.23368 0.30921 0.0
H794 H 0.29722 0.19255 0.34345 0.0
H795 H 0.29357 0.1796 0.3974 0.0
H796 H 0.30832 0.2594 0.47699 0.0
H797 H 0.31843 0.29893 0.4418 0.0
C798 C 0.31342 0.28574 0.37902 0.0
C799 C 0.30794 0.27563 0.34664 0.0
C800 C 0.31134 0.26255 0.39908 0.0
C801 C 0.30329 0.24186 0.334 0.0
C802 C 0.30214 0.21845 0.35369 0.0
C803 C 0.29947 0.20557 0.40702 0.0
C804 C 0.2997 0.2164 0.43993 0.0
C805 C 0.30488 0.22854 0.3865 0.0
C806 C 0.30748 0.25024 0.45187 0.0
C807 C 0.3134 0.27298 0.43173 0.0
H808 H 0.46984 0.54807 0.9998 0.0
H809 H 0.52743 0.49472 0.93612 0.0
H810 H 0.49521 0.49534 0.89173 0.0
H811 H 0.45145 0.51183 0.87123 0.0
H812 H 0.39283 0.56497 0.93439 0.0
H813 H 0.42457 0.56367 0.97898 0.0
C814 C 0.47497 0.53644 0.97616 0.0
C815 C 0.50082 0.5215 0.97087 0.0
C816 C 0.45633 0.537 0.95085 0.0
C817 C 0.50766 0.50653 0.94035 0.0
C818 C 0.48929 0.50689 0.91513 0.0
C819 C 0.44554 0.52323 0.89471 0.0
C820 C 0.41985 0.53863 0.8994 0.0
C821 C 0.46372 0.52227 0.92009 0.0
C822 C 0.41251 0.55302 0.93008 0.0
C823 C 0.43063 0.55226 0.95559 0.0
H824 H 0.77077 0.7253 0.21201 0.0
H825 H 0.71837 0.79814 0.1953 0.0
H826 H 0.7316 0.78845 0.13927 0.0
H827 H 0.75271 0.75392 0.09448 0.0
H828 H 0.80466 0.6801 0.11119 0.0
H829 H 0.79766 0.69583 0.16783 0.0
C830 C 0.763 0.73948 0.19602 0.0
C831 C 0.74373 0.7623 0.20725 0.0
C832 C 0.77043 0.73336 0.16396 0.0
C833 C 0.7334 0.78062 0.18679 0.0
C834 C 0.74081 0.77489 0.15489 0.0
C835 C 0.76302 0.7417 0.11052 0.0
C836 C 0.77885 0.71555 0.09856 0.0
C837 C 0.75853 0.75055 0.14305 0.0
C838 C 0.79228 0.70022 0.11971 0.0
C839 C 0.78813 0.70905 0.15214 0.0
H840 H 0.98591 0.09011 0.15372 0.0
H841 H 0.98201 0.98683 0.11608 0.0
H842 H 0.94787 0.97306 0.15803 0.0
H843 H 0.92099 0.99055 0.20639 0.0
H844 H 0.92163 0.09394 0.24267 0.0
H845 H 0.95489 0.10791 0.20001 0.0
C846 C 0.97722 0.06472 0.15478 0.0
C847 C 0.98654 0.03936 0.1325 0.0
C848 C 0.95718 0.05718 0.17856 0.0
C849 C 0.97521 0.00648 0.13349 0.0
C850 C 0.95577 0.99871 0.15733 0.0
C851 C 0.92834 0.01615 0.20487 0.0
C852 C 0.91929 0.04122 0.22771 0.0
C853 C 0.94693 0.02385 0.18018 0.0
C854 C 0.92843 0.07428 0.22527 0.0
C855 C 0.94749 0.08223 0.201 0.0
H856 H 0.25864 0.82252 0.24195 0.0
H857 H 0.34282 0.79333 0.21016 0.0
H858 H 0.34425 0.82582 0.16823 0.0
H859 H 0.3196 0.8586 0.13824 0.0
H860 H 0.23369 0.88538 0.16768 0.0
H861 H 0.23463 0.85764 0.21279 0.0
C862 C 0.27722 0.82349 0.22577 0.0
C863 C 0.30052 0.80557 0.22878 0.0
C864 C 0.2774 0.8415 0.20126 0.0
C865 C 0.32481 0.80718 0.2082 0.0
C866 C 0.32548 0.82553 0.18419 0.0
C867 C 0.30117 0.85869 0.15465 0.0
C868 C 0.27654 0.87393 0.14947 0.0
C869 C 0.30163 0.84223 0.18013 0.0
C870 C 0.25289 0.87377 0.17105 0.0
C871 C 0.25339 0.85786 0.19682 0.0
H872 H 0.03421 0.53414 0.09903 0.0
H873 H 0.98991 0.44094 0.11667 0.0
H874 H 0.02545 0.44249 0.15908 0.0
H875 H 0.06581 0.47393 0.19497 0.0
H876 H 0.1068 0.56943 0.17894 0.0
H877 H 0.07611 0.56363 0.13221 0.0
C878 C 0.03259 0.51415 0.11213 0.0
C879 C 0.00949 0.48767 0.10515 0.0
C880 C 0.05242 0.51583 0.1369 0.0
C881 C 0.00767 0.4615 0.12171 0.0
C882 C 0.02783 0.46256 0.14604 0.0
C883 C 0.06838 0.49308 0.18081 0.0
C884 C 0.08847 0.5221 0.19038 0.0
C885 C 0.04987 0.49005 0.1544 0.0
C886 C 0.09137 0.54696 0.1721 0.0
C887 C 0.0738 0.5437 0.14542 0.0
H888 H 0.36494 0.7333 0.27065 0.0
H889 H 0.30353 0.75344 0.34637 0.0
H890 H 0.33823 0.74113 0.38366 0.0
H891 H 0.38847 0.73079 0.39539 0.0
H892 H 0.45185 0.71637 0.32006 0.0
H893 H 0.41426 0.71996 0.28188 0.0
C894 C 0.35915 0.73424 0.29525 0.0
C895 C 0.33163 0.74332 0.30585 0.0
C896 C 0.37975 0.72849 0.31657 0.0
C897 C 0.32425 0.74536 0.33774 0.0
C898 C 0.34425 0.73875 0.35903 0.0
C899 C 0.3938 0.72768 0.37053 0.0
C900 C 0.42287 0.72328 0.36054 0.0
C901 C 0.37236 0.73099 0.34883 0.0
C902 C 0.42964 0.71985 0.32831 0.0
C903 C 0.40819 0.722 0.30648 0.0
H904 H 0.94675 0.40762 0.05894 0.0
H905 H 0.03184 0.45603 0.03433 0.0
H906 H 0.0451 0.40312 0.00686 0.0
H907 H 0.0294 0.34452 0.98451 0.0
H908 H 0.94381 0.29627 0.00957 0.0
H909 H 0.9338 0.34748 0.04262 0.0
C910 C 0.96847 0.40614 0.04826 0.0
C911 C 0.98844 0.43518 0.04847 0.0
C912 C 0.97555 0.37585 0.03231 0.0
C913 C 0.01644 0.43365 0.0345 0.0
C914 C 0.02379 0.40355 0.01863 0.0
C915 C 0.00873 0.34509 0.99755 0.0
C916 C 0.98719 0.3167 0.99416 0.0
C917 C 0.00308 0.37467 0.0165 0.0
C918 C 0.96072 0.31774 0.0116 0.0
C919 C 0.95491 0.34707 0.03043 0.0
H920 H 0.68378 0.72819 0.328 0.0
H921 H 0.64827 0.7621 0.25054 0.0
H922 H 0.59926 0.76012 0.27544 0.0
H923 H 0.56833 0.75449 0.3217 0.0
H924 H 0.6028 0.72004 0.39966 0.0
H925 H 0.6505 0.71627 0.37231 0.0
C926 C 0.66498 0.7343 0.31647 0.0
C927 C 0.66922 0.74512 0.28759 0.0
C928 C 0.63702 0.73352 0.33124 0.0
C929 C 0.64508 0.75334 0.27263 0.0
C930 C 0.61728 0.75252 0.287 0.0
C931 C 0.58623 0.74591 0.33259 0.0
C932 C 0.58238 0.73809 0.36278 0.0
C933 C 0.61326 0.7436 0.31669 0.0
C934 C 0.60542 0.72636 0.37644 0.0
C935 C 0.63266 0.72429 0.36086 0.0
H936 H 0.06181 0.11082 0.04944 0.0
H937 H 0.99472 0.03015 0.01226 0.0
H938 H 0.9824 0.05943 0.9713 0.0
H939 H 0.98402 0.11252 0.95355 0.0
H940 H 0.05238 0.1929 0.98906 0.0
H941 H 0.07123 0.15947 0.02306 0.0
C942 C 0.04558 0.09918 0.03135 0.0
C943 C 0.02899 0.0686 0.03374 0.0
C944 C 0.03832 0.11657 0.00824 0.0
C945 C 0.00772 0.05367 0.01055 0.0
C946 C 0.00041 0.07062 0.9875 0.0
C947 C 0.00355 0.1223 0.96812 0.0
C948 C 0.01658 0.15514 0.96925 0.0
C949 C 0.01444 0.10281 0.98725 0.0
C950 C 0.04202 0.16762 0.9879 0.0
C951 C 0.05269 0.14857 0.00745 0.0
H952 H 0.33439 0.26463 0.27179 0.0
H953 H 0.36191 0.36182 0.32438 0.0
H954 H 0.40909 0.36558 0.29572 0.0
H955 H 0.43978 0.34359 0.251 0.0
H956 H 0.4139 0.24473 0.20069 0.0
H957 H 0.36901 0.23903 0.23286 0.0
C958 C 0.35127 0.28601 0.27767 0.0
C959 C 0.3448 0.31298 0.29996 0.0
C960 C 0.37831 0.28797 0.2609 0.0
C961 C 0.3666 0.34082 0.30725 0.0
C962 C 0.39338 0.34309 0.29063 0.0
C963 C 0.4244 0.32075 0.24736 0.0
C964 C 0.42984 0.29483 0.22321 0.0
C965 C 0.39901 0.3173 0.26656 0.0
C966 C 0.41007 0.2651 0.21906 0.0
C967 C 0.38439 0.26181 0.23744 0.0
H968 H 0.57353 0.46722 0.04819 0.0
H969 H 0.51223 0.52954 0.09437 0.0
H970 H 0.5013 0.49424 0.13378 0.0
H971 H 0.50176 0.43981 0.148 0.0
H972 H 0.56425 0.37788 0.10327 0.0
H973 H 0.58258 0.41879 0.07069 0.0
C974 C 0.55889 0.47374 0.06777 0.0
C975 C 0.54337 0.50059 0.06835 0.0
C976 C 0.55243 0.45293 0.09009 0.0
C977 C 0.52425 0.50885 0.0936 0.0
C978 C 0.51777 0.48846 0.11586 0.0
C979 C 0.52003 0.4358 0.13181 0.0
C980 C 0.5314 0.40578 0.12772 0.0
C981 C 0.53052 0.45949 0.11329 0.0
C982 C 0.55519 0.40087 0.10685 0.0
C983 C 0.56552 0.42416 0.08803 0.0
H984 H 0.64956 0.2177 0.26258 0.0
H985 H 0.70129 0.30498 0.23969 0.0
H986 H 0.65909 0.31521 0.21018 0.0
H987 H 0.60624 0.3008 0.19411 0.0
H988 H 0.55536 0.21218 0.21637 0.0
H989 H 0.59839 0.20073 0.24276 0.0
C990 C 0.65162 0.23845 0.25041 0.0
C991 C 0.67817 0.26059 0.25301 0.0
C992 C 0.62735 0.24407 0.23381 0.0
C993 C 0.68085 0.28773 0.23773 0.0
C994 C 0.65676 0.29359 0.2211 0.0
C995 C 0.60466 0.27897 0.20468 0.0
C996 C 0.57758 0.25757 0.20357 0.0
C997 C 0.62966 0.27228 0.21956 0.0
C998 C 0.57592 0.22911 0.21697 0.0
C999 C 0.60051 0.22251 0.23208 0.0
H1000 H 0.43491 0.18673 0.9712 0.0
H1001 H 0.49248 0.12066 0.99264 0.0
H1002 H 0.51567 0.16303 0.03518 0.0
H1003 H 0.51225 0.21411 0.07232 0.0
H1004 H 0.45085 0.27834 0.05438 0.0
H1005 H 0.43606 0.24146 0.0048 0.0
C1006 C 0.45313 0.18218 0.98474 0.0
C1007 C 0.46188 0.15074 0.97919 0.0
C1008 C 0.46487 0.20592 0.01042 0.0
C1009 C 0.48566 0.14485 0.9964 0.0
C1010 C 0.49848 0.16886 0.02108 0.0
C1011 C 0.49589 0.22034 0.05743 0.0
C1012 C 0.48218 0.24859 0.06744 0.0
C1013 C 0.48708 0.19873 0.02934 0.0
C1014 C 0.46146 0.25653 0.04749 0.0
C1015 C 0.453 0.23546 0.01911 0.0
H1016 H 0.23401 0.35472 0.78686 0.0
H1017 H 0.31152 0.30765 0.76228 0.0
H1018 H 0.34189 0.36161 0.76257 0.0
H1019 H 0.34701 0.42213 0.7764 0.0
H1020 H 0.26972 0.4687 0.80616 0.0
H1021 H 0.23846 0.41498 0.79771 0.0
C1022 C 0.25759 0.35648 0.78163 0.0
C1023 C 0.27091 0.32771 0.77537 0.0
C1024 C 0.27481 0.3874 0.78313 0.0
C1025 C 0.30111 0.32974 0.76745 0.0
C1026 C 0.31836 0.36049 0.76782 0.0
C1027 C 0.32325 0.42057 0.78054 0.0
C1028 C 0.31069 0.44934 0.79208 0.0
C1029 C 0.30559 0.38953 0.77662 0.0
C1030 C 0.27992 0.4469 0.79753 0.0
C1031 C 0.26205 0.41622 0.79271 0.0
H1032 H 0.27383 0.71812 0.80372 0.0
H1033 H 0.20895 0.69248 0.87259 0.0
H1034 H 0.23655 0.64927 0.88274 0.0
H1035 H 0.27734 0.6166 0.86941 0.0
H1036 H 0.34102 0.6404 0.79834 0.0
H1037 H 0.3156 0.68627 0.79132 0.0
C1038 C 0.26591 0.703 0.82094 0.0
C1039 C 0.23956 0.70836 0.83747 0.0
C1040 C 0.28151 0.67776 0.82599 0.0
C1041 C 0.22946 0.68903 0.86 0.0
C1042 C 0.24508 0.66418 0.86555 0.0
C1043 C 0.28582 0.63194 0.85253 0.0
C1044 C 0.31101 0.62496 0.83434 0.0
C1045 C 0.2709 0.65802 0.84835 0.0
C1046 C 0.32164 0.64512 0.81257 0.0
C1047 C 0.30711 0.67136 0.80853 0.0
H1048 H 0.90637 0.53585 0.52023 0.0
H1049 H 0.86307 0.54906 0.43715 0.0
H1050 H 0.81721 0.51554 0.45116 0.0
H1051 H 0.79007 0.48238 0.48721 0.0
H1052 H 0.83469 0.46715 0.56917 0.0
H1053 H 0.87953 0.50203 0.55589 0.0
C1054 C 0.88676 0.53119 0.50536 0.0
C1055 C 0.88758 0.5446 0.47788 0.0
C1056 C 0.8609 0.51193 0.51355 0.0
C1057 C 0.86251 0.53862 0.45835 0.0
C1058 C 0.83646 0.51971 0.46646 0.0
C1059 C 0.8095 0.48704 0.50234 0.0
C1060 C 0.80907 0.47251 0.52927 0.0
C1061 C 0.8354 0.50633 0.49409 0.0
C1062 C 0.83455 0.47818 0.54836 0.0
C1063 C 0.86017 0.498 0.54075 0.0
H1064 H 0.73642 0.85516 0.78186 0.0
H1065 H 0.7652 0.88981 0.87776 0.0
H1066 H 0.73351 0.93315 0.88325 0.0
H1067 H 0.69957 0.96262 0.85996 0.0
H1068 H 0.67083 0.92879 0.76362 0.0
H1069 H 0.70033 0.88361 0.75901 0.0
C1070 C 0.73545 0.87219 0.80391 0.0
C1071 C 0.75281 0.8694 0.82947 0.0
C1072 C 0.71731 0.89714 0.80672 0.0
C1073 C 0.75163 0.89141 0.85801 0.0
C1074 C 0.73369 0.91622 0.86104 0.0
C1075 C 0.69954 0.94525 0.83799 0.0
C1076 C 0.68308 0.94921 0.81213 0.0
C1077 C 0.71666 0.91951 0.83547 0.0
C1078 C 0.68327 0.92635 0.7839 0.0
C1079 C 0.70022 0.90055 0.78121 0.0
H1080 H 0.60899 0.50427 0.99534 0.0
H1081 H 0.58378 0.57743 0.07051 0.0
H1082 H 0.63394 0.60901 0.07119 0.0
H1083 H 0.6822 0.61964 0.04431 0.0
H1084 H 0.70605 0.54663 0.96727 0.0
H1085 H 0.6592 0.51136 0.9729 0.0
C1086 C 0.61511 0.52639 0.01275 0.0
C1087 C 0.59311 0.53853 0.03304 0.0
C1088 C 0.64334 0.54502 0.01171 0.0
C1089 C 0.60069 0.56748 0.05515 0.0
C1090 C 0.62912 0.5858 0.05499 0.0
C1091 C 0.67716 0.59597 0.02882 0.0
C1092 C 0.69741 0.58613 0.00497 0.0
C1093 C 0.65014 0.57557 0.03232 0.0
C1094 C 0.69079 0.55505 0.98557 0.0
C1095 C 0.66404 0.53474 0.98886 0.0
H1096 H 0.26342 0.71666 0.32165 0.0
H1097 H 0.28487 0.68458 0.22459 0.0
H1098 H 0.25533 0.63059 0.22507 0.0
H1099 H 0.21918 0.595 0.25196 0.0
H1100 H 0.20101 0.6256 0.3504 0.0
H1101 H 0.23423 0.67746 0.35105 0.0
C1102 C 0.26255 0.69738 0.30109 0.0
C1103 C 0.27608 0.70435 0.27312 0.0
C1104 C 0.24592 0.66638 0.30178 0.0
C1105 C 0.2743 0.67953 0.24625 0.0
C1106 C 0.25741 0.64883 0.24653 0.0
C1107 C 0.22293 0.61285 0.27362 0.0
C1108 C 0.20748 0.60682 0.30097 0.0
C1109 C 0.24239 0.64233 0.27393 0.0
C1110 C 0.21272 0.62981 0.32906 0.0
C1111 C 0.23157 0.65951 0.3294 0.0
H1112 H 0.89626 0.48898 0.03746 0.0
H1113 H 0.96408 0.57362 0.05739 0.0
H1114 H 0.93028 0.60834 0.04155 0.0
H1115 H 0.8816 0.61399 0.01984 0.0
H1116 H 0.81732 0.52707 0.99238 0.0
H1117 H 0.8497 0.49359 0.01231 0.0
C1118 C 0.90379 0.5149 0.03785 0.0
C1119 C 0.93258 0.5287 0.04869 0.0
C1120 C 0.88487 0.5342 0.02703 0.0
C1121 C 0.94181 0.56254 0.04974 0.0
C1122 C 0.92259 0.58231 0.04037 0.0
C1123 C 0.87484 0.58773 0.01828 0.0
C1124 C 0.8472 0.57292 0.0048 0.0
C1125 C 0.8941 0.56836 0.02873 0.0
C1126 C 0.83865 0.53887 0.00253 0.0
C1127 C 0.85707 0.51976 0.01401 0.0
H1128 H 0.1012 0.05614 0.10291 0.0
H1129 H 0.05257 0.00672 0.01944 0.0
H1130 H 0.0941 0.97628 0.00218 0.0
H1131 H 0.14128 0.95822 0.01484 0.0
H1132 H 0.18507 1.00133 0.10326 0.0
H1133 H 0.14792 0.03852 0.11553 0.0
C1134 C 0.09989 0.03881 0.08086 0.0
C1135 C 0.07384 0.03336 0.06264 0.0
C1136 C 0.12259 0.01945 0.07264 0.0
C1137 C 0.07255 0.01158 0.03368 0.0
C1138 C 0.09605 0.99372 0.02417 0.0
C1139 C 0.14266 0.97583 0.03674 0.0
C1140 C 0.16573 0.97686 0.05826 0.0
C1141 C 0.12065 0.99648 0.0441 0.0
C1142 C 0.16728 0.99973 0.08656 0.0
C1143 C 0.14621 0.0212 0.09346 0.0
loop_
_geom_bond_atom_site_label_1
_geom_bond_atom_site_label_2
_geom_bond_distance
_geom_bond_site_symmetry_2
_ccdc_geom_bond_type
C0 N1 1.317 . S
C0 N2 1.348 . S
C0 C3 1.485 . S
N1 C0 1.317 . S
N1 N5 1.370 . S
N2 C0 1.348 . S
N2 C4 1.346 . S
C3 C0 1.485 . S
C3 H7 0.960 . S
C3 H8 0.961 . S
C3 H9 0.960 . S
C4 N2 1.346 . S
C4 N5 1.307 . S
C4 C6 1.486 . S
N5 N1 1.370 . S
N5 C4 1.307 . S
C6 C4 1.486 . S
C6 H10 0.960 . S
C6 H11 0.960 . S
C6 H12 0.959 . S
H7 C3 0.960 . S
H8 C3 0.961 . S
H9 C3 0.960 . S
H10 C6 0.960 . S
H11 C6 0.960 . S
H12 C6 0.959 . S
C13 N14 1.317 . S
C13 N15 1.348 . S
C13 C16 1.485 . S
N14 C13 1.317 . S
N14 N18 1.370 . S
N15 C13 1.348 . S
N15 C17 1.346 . S
C16 C13 1.485 . S
C16 H20 0.960 . S
C16 H21 0.961 . S
C16 H22 0.960 . S
C17 N15 1.346 . S
C17 N18 1.307 . S
C17 C19 1.486 . S
N18 N14 1.370 . S
N18 C17 1.307 . S
C19 C17 1.486 . S
C19 H23 0.960 . S
C19 H24 0.960 . S
C19 H25 0.959 . S
H20 C16 0.960 . S
H21 C16 0.961 . S
H22 C16 0.960 . S
H23 C19 0.960 . S
H24 C19 0.960 . S
H25 C19 0.959 . S
C26 N27 1.317 . S
C26 N28 1.348 . S
C26 C29 1.485 . S
N27 C26 1.317 . S
N27 N31 1.370 . S
N28 C26 1.348 . S
N28 C30 1.346 . S
C29 C26 1.485 . S
C29 H33 0.960 . S
C29 H34 0.961 . S
C29 H35 0.960 . S
C30 N28 1.346 . S
C30 N31 1.307 . S
C30 C32 1.486 . S
N31 N27 1.370 . S
N31 C30 1.307 . S
C32 C30 1.486 . S
C32 H36 0.960 . S
C32 H37 0.960 . S
C32 H38 0.959 . S
H33 C29 0.960 . S
H34 C29 0.961 . S
H35 C29 0.960 . S
H36 C32 0.960 . S
H37 C32 0.960 . S
H38 C32 0.959 . S
C39 N40 1.317 . S
C39 N41 1.348 . S
C39 C42 1.485 . S
N40 C39 1.317 . S
N40 N44 1.370 . S
N41 C39 1.348 . S
N41 C43 1.346 . S
C42 C39 1.485 . S
C42 H46 0.960 . S
C42 H47 0.961 . S
C42 H48 0.960 . S
C43 N41 1.346 . S
C43 N44 1.307 . S
C43 C45 1.486 . S
N44 N40 1.370 . S
N44 C43 1.307 . S
C45 C43 1.486 . S
C45 H49 0.960 . S
C45 H50 0.960 . S
C45 H51 0.959 . S
H46 C42 0.960 . S
H47 C42 0.961 . S
H48 C42 0.960 . S
H49 C45 0.960 . S
H50 C45 0.960 . S
H51 C45 0.959 . S
C52 N53 1.317 . S
C52 N54 1.348 . S
C52 C55 1.485 . S
N53 C52 1.317 . S
N53 N57 1.370 . S
N54 C52 1.348 . S
N54 C56 1.346 . S
C55 C52 1.485 . S
C55 H59 0.960 . S
C55 H60 0.961 . S
C55 H61 0.960 . S
C56 N54 1.346 . S
C56 N57 1.307 . S
C56 C58 1.486 1_565 S
N57 N53 1.370 . S
N57 C56 1.307 . S
C58 C56 1.486 1_545 S
C58 H62 0.960 . S
C58 H63 0.959 1_545 S
C58 H64 0.959 . S
H59 C55 0.960 . S
H60 C55 0.961 . S
H61 C55 0.960 . S
H62 C58 0.960 . S
H63 C58 0.959 1_565 S
H64 C58 0.959 . S
C65 N66 1.317 . S
C65 N67 1.348 . S
C65 C68 1.485 . S
N66 C65 1.317 . S
N66 N70 1.370 . S
N67 C65 1.348 . S
N67 C69 1.346 . S
C68 C65 1.485 . S
C68 H72 0.960 . S
C68 H73 0.961 . S
C68 H74 0.960 . S
C69 N67 1.346 . S
C69 N70 1.307 . S
C69 C71 1.486 . S
N70 N66 1.370 . S
N70 C69 1.307 . S
C71 C69 1.486 . S
C71 H75 0.960 . S
C71 H76 0.960 . S
C71 H77 0.959 . S
H72 C68 0.960 . S
H73 C68 0.961 . S
H74 C68 0.960 . S
H75 C71 0.960 . S
H76 C71 0.960 . S
H77 C71 0.959 . S
C78 N79 1.317 . S
C78 N80 1.348 . S
C78 C81 1.485 . S
N79 C78 1.317 . S
N79 N83 1.370 . S
N80 C78 1.348 . S
N80 C82 1.346 . S
C81 C78 1.485 . S
C81 H85 0.960 . S
C81 H86 0.961 . S
C81 H87 0.960 . S
C82 N80 1.346 . S
C82 N83 1.307 . S
C82 C84 1.486 . S
N83 N79 1.370 . S
N83 C82 1.307 . S
C84 C82 1.486 . S
C84 H88 0.960 . S
C84 H89 0.960 . S
C84 H90 0.959 . S
H85 C81 0.960 . S
H86 C81 0.961 . S
H87 C81 0.960 . S
H88 C84 0.960 . S
H89 C84 0.960 . S
H90 C84 0.959 . S
C91 N92 1.317 . S
C91 N93 1.348 . S
C91 C94 1.485 . S
N92 C91 1.317 . S
N92 N96 1.370 . S
N93 C91 1.348 . S
N93 C95 1.346 . S
C94 C91 1.485 . S
C94 H98 0.960 . S
C94 H99 0.961 . S
C94 H100 0.960 . S
C95 N93 1.346 . S
C95 N96 1.307 . S
C95 C97 1.486 . S
N96 N92 1.370 . S
N96 C95 1.307 . S
C97 C95 1.486 . S
C97 H101 0.960 . S
C97 H102 0.960 . S
C97 H103 0.959 . S
H98 C94 0.960 . S
H99 C94 0.961 . S
H100 C94 0.960 . S
H101 C97 0.960 . S
H102 C97 0.960 . S
H103 C97 0.959 . S
C104 N105 1.317 . S
C104 N106 1.348 . S
C104 C107 1.485 . S
N105 C104 1.317 . S
N105 N109 1.370 . S
N106 C104 1.348 . S
N106 C108 1.346 . S
C107 C104 1.485 . S
C107 H111 0.960 . S
C107 H112 0.961 . S
C107 H113 0.960 . S
C108 N106 1.346 . S
C108 N109 1.307 . S
C108 C110 1.486 . S
N109 N105 1.370 . S
N109 C108 1.307 . S
C110 C108 1.486 . S
C110 H114 0.960 . S
C110 H115 0.960 . S
C110 H116 0.959 . S
H111 C107 0.960 . S
H112 C107 0.961 . S
H113 C107 0.960 . S
H114 C110 0.960 . S
H115 C110 0.960 . S
H116 C110 0.959 . S
C117 N118 1.317 . S
C117 N119 1.348 . S
C117 C120 1.485 . S
N118 C117 1.317 . S
N118 N122 1.370 . S
N119 C117 1.348 . S
N119 C121 1.346 . S
C120 C117 1.485 . S
C120 H124 0.960 . S
C120 H125 0.961 . S
C120 H126 0.960 . S
C121 N119 1.346 . S
C121 N122 1.307 . S
C121 C123 1.486 . S
N122 N118 1.370 . S
N122 C121 1.307 . S
C123 C121 1.486 . S
C123 H127 0.960 . S
C123 H128 0.960 . S
C123 H129 0.959 . S
H124 C120 0.960 . S
H125 C120 0.961 . S
H126 C120 0.960 . S
H127 C123 0.960 . S
H128 C123 0.960 . S
H129 C123 0.959 . S
C130 N131 1.317 . S
C130 N132 1.348 . S
C130 C133 1.485 . S
N131 C130 1.317 . S
N131 N135 1.370 . S
N132 C130 1.348 . S
N132 C134 1.346 . S
C133 C130 1.485 . S
C133 H137 0.960 . S
C133 H138 0.961 . S
C133 H139 0.960 . S
C134 N132 1.346 . S
C134 N135 1.307 . S
C134 C136 1.486 . S
N135 N131 1.370 . S
N135 C134 1.307 . S
C136 C134 1.486 . S
C136 H140 0.960 . S
C136 H141 0.960 . S
C136 H142 0.959 . S
H137 C133 0.960 . S
H138 C133 0.961 . S
H139 C133 0.960 . S
H140 C136 0.960 . S
H141 C136 0.960 . S
H142 C136 0.959 . S
C143 N144 1.317 . S
C143 N145 1.348 . S
C143 C146 1.485 . S
N144 C143 1.317 . S
N144 N148 1.370 . S
N145 C143 1.348 . S
N145 C147 1.346 . S
C146 C143 1.485 . S
C146 H150 0.960 . S
C146 H151 0.961 . S
C146 H152 0.960 . S
C147 N145 1.346 . S
C147 N148 1.307 . S
C147 C149 1.486 . S
N148 N144 1.370 . S
N148 C147 1.307 . S
C149 C147 1.486 . S
C149 H153 0.960 . S
C149 H154 0.960 . S
C149 H155 0.959 . S
H150 C146 0.960 . S
H151 C146 0.961 . S
H152 C146 0.960 . S
H153 C149 0.960 . S
H154 C149 0.960 . S
H155 C149 0.959 . S
C156 N157 1.317 . S
C156 N158 1.348 . S
C156 C159 1.485 . S
N157 C156 1.317 . S
N157 N161 1.370 . S
N158 C156 1.348 . S
N158 C160 1.346 . S
C159 C156 1.485 . S
C159 H163 0.960 . S
C159 H164 0.961 . S
C159 H165 0.960 . S
C160 N158 1.346 . S
C160 N161 1.307 . S
C160 C162 1.486 . S
N161 N157 1.370 . S
N161 C160 1.307 . S
C162 C160 1.486 . S
C162 H166 0.960 . S
C162 H167 0.960 . S
C162 H168 0.959 . S
H163 C159 0.960 . S
H164 C159 0.961 . S
H165 C159 0.960 . S
H166 C162 0.960 . S
H167 C162 0.960 . S
H168 C162 0.959 . S
C169 N170 1.317 . S
C169 N171 1.348 . S
C169 C172 1.485 . S
N170 C169 1.317 . S
N170 N174 1.370 . S
N171 C169 1.348 . S
N171 C173 1.346 . S
C172 C169 1.485 . S
C172 H176 0.960 . S
C172 H177 0.961 . S
C172 H178 0.960 . S
C173 N171 1.346 . S
C173 N174 1.307 . S
C173 C175 1.486 . S
N174 N170 1.370 . S
N174 C173 1.307 . S
C175 C173 1.486 . S
C175 H179 0.960 . S
C175 H180 0.960 . S
C175 H181 0.959 . S
H176 C172 0.960 . S
H177 C172 0.961 . S
H178 C172 0.960 . S
H179 C175 0.960 . S
H180 C175 0.960 . S
H181 C175 0.959 . S
C182 N183 1.317 . S
C182 N184 1.348 . S
C182 C185 1.485 . S
N183 C182 1.317 . S
N183 N187 1.370 . S
N184 C182 1.348 . S
N184 C186 1.346 . S
C185 C182 1.485 . S
C185 H189 0.960 . S
C185 H190 0.961 . S
C185 H191 0.960 . S
C186 N184 1.346 . S
C186 N187 1.307 . S
C186 C188 1.486 . S
N187 N183 1.370 . S
N187 C186 1.307 . S
C188 C186 1.486 . S
C188 H192 0.960 . S
C188 H193 0.960 . S
C188 H194 0.959 . S
H189 C185 0.960 . S
H190 C185 0.961 . S
H191 C185 0.960 . S
H192 C188 0.960 . S
H193 C188 0.960 . S
H194 C188 0.959 . S
C195 N196 1.317 . S
C195 N197 1.348 . S
C195 C198 1.485 . S
N196 C195 1.317 . S
N196 N200 1.370 . S
N197 C195 1.348 . S
N197 C199 1.346 . S
C198 C195 1.485 . S
C198 H202 0.960 . S
C198 H203 0.961 . S
C198 H204 0.960 . S
C199 N197 1.346 . S
C199 N200 1.307 . S
C199 C201 1.488 1_556 S
N200 N196 1.370 . S
N200 C199 1.307 . S
C201 C199 1.488 1_554 S
C201 H205 0.958 . S
C201 H206 0.960 1_554 S
C201 H207 0.959 . S
H202 C198 0.960 . S
H203 C198 0.961 . S
H204 C198 0.960 . S
H205 C201 0.958 . S
H206 C201 0.960 1_556 S
H207 C201 0.959 . S
O208 Cd209 2.223 . S
O208 C216 1.315 . S
Cd209 O208 2.223 . S
Cd209 O212 2.297 . S
Cd209 O213 2.439 . S
Cd209 O219 2.240 . S
Cd210 O211 2.240 . S
Cd210 O218 2.223 . S
Cd210 O220 2.297 . S
Cd210 O221 2.439 . S
O211 Cd210 2.240 . S
O211 C216 1.279 . S
O212 Cd209 2.297 . S
O212 C214 1.247 . S
O213 Cd209 2.439 . S
O213 C214 1.208 . S
C214 O212 1.247 . S
C214 O213 1.208 . S
C215 O220 1.247 . S
C215 O221 1.208 . S
C216 O208 1.315 . S
C216 O211 1.279 . S
C217 O218 1.315 . S
C217 O219 1.279 . S
O218 Cd210 2.223 . S
O218 C217 1.315 . S
O219 Cd209 2.240 . S
O219 C217 1.279 . S
O220 Cd210 2.297 . S
O220 C215 1.247 . S
O221 Cd210 2.439 . S
O221 C215 1.208 . S
O222 Cd223 2.223 . S
O222 C230 1.315 . S
Cd223 O222 2.223 . S
Cd223 O226 2.297 . S
Cd223 O227 2.439 . S
Cd223 O233 2.240 . S
Cd224 O225 2.240 . S
Cd224 O232 2.223 . S
Cd224 O234 2.297 . S
Cd224 O235 2.439 . S
O225 Cd224 2.240 . S
O225 C230 1.279 . S
O226 Cd223 2.297 . S
O226 C228 1.247 . S
O227 Cd223 2.439 . S
O227 C228 1.208 . S
C228 O226 1.247 . S
C228 O227 1.208 . S
C229 O234 1.247 . S
C229 O235 1.208 . S
C230 O222 1.315 . S
C230 O225 1.279 . S
C231 O232 1.315 . S
C231 O233 1.279 . S
O232 Cd224 2.223 . S
O232 C231 1.315 . S
O233 Cd223 2.240 . S
O233 C231 1.279 . S
O234 Cd224 2.297 . S
O234 C229 1.247 . S
O235 Cd224 2.439 . S
O235 C229 1.208 . S
O236 Cd237 2.223 1_556 S
O236 C244 1.315 . S
Cd237 O236 2.223 1_554 S
Cd237 O240 2.297 . S
Cd237 O241 2.439 . S
Cd237 O247 2.240 . S
Cd238 O239 2.240 . S
Cd238 O246 2.223 . S
Cd238 O248 2.297 . S
Cd238 O249 2.439 1_556 S
O239 Cd238 2.240 . S
O239 C244 1.279 . S
O240 Cd237 2.297 . S
O240 C242 1.247 . S
O241 Cd237 2.439 . S
O241 C242 1.208 . S
C242 O240 1.247 . S
C242 O241 1.208 . S
C243 O248 1.247 1_554 S
C243 O249 1.208 . S
C244 O236 1.315 . S
C244 O239 1.279 . S
C245 O246 1.315 . S
C245 O247 1.279 1_556 S
O246 Cd238 2.223 . S
O246 C245 1.315 . S
O247 Cd237 2.240 . S
O247 C245 1.279 1_554 S
O248 Cd238 2.297 . S
O248 C243 1.247 1_556 S
O249 Cd238 2.439 1_554 S
O249 C243 1.208 . S
O250 Cd251 2.223 . S
O250 C258 1.315 . S
Cd251 O250 2.223 . S
Cd251 O254 2.297 . S
Cd251 O255 2.439 . S
Cd251 O261 2.240 . S
Cd252 O253 2.240 . S
Cd252 O260 2.223 . S
Cd252 O262 2.297 . S
Cd252 O263 2.439 . S
O253 Cd252 2.240 . S
O253 C258 1.279 . S
O254 Cd251 2.297 . S
O254 C256 1.247 . S
O255 Cd251 2.439 . S
O255 C256 1.208 . S
C256 O254 1.247 . S
C256 O255 1.208 . S
C257 O262 1.247 . S
C257 O263 1.208 . S
C258 O250 1.315 . S
C258 O253 1.279 . S
C259 O260 1.315 . S
C259 O261 1.279 . S
O260 Cd252 2.223 . S
O260 C259 1.315 . S
O261 Cd251 2.240 . S
O261 C259 1.279 . S
O262 Cd252 2.297 . S
O262 C257 1.247 . S
O263 Cd252 2.439 . S
O263 C257 1.208 . S
O264 Cd265 2.223 . S
O264 C272 1.315 . S
Cd265 O264 2.223 . S
Cd265 O268 2.297 . S
Cd265 O269 2.439 . S
Cd265 O275 2.240 . S
Cd266 O267 2.240 . S
Cd266 O274 2.223 . S
Cd266 O276 2.297 . S
Cd266 O277 2.439 . S
O267 Cd266 2.240 . S
O267 C272 1.279 . S
O268 Cd265 2.297 . S
O268 C270 1.247 . S
O269 Cd265 2.439 . S
O269 C270 1.208 . S
C270 O268 1.247 . S
C270 O269 1.208 . S
C271 O276 1.247 . S
C271 O277 1.208 . S
C272 O264 1.315 . S
C272 O267 1.279 . S
C273 O274 1.315 . S
C273 O275 1.279 . S
O274 Cd266 2.223 . S
O274 C273 1.315 . S
O275 Cd265 2.240 . S
O275 C273 1.279 . S
O276 Cd266 2.297 . S
O276 C271 1.247 . S
O277 Cd266 2.439 . S
O277 C271 1.208 . S
O278 Cd279 2.223 . S
O278 C286 1.315 . S
Cd279 O278 2.223 . S
Cd279 O282 2.297 . S
Cd279 O283 2.439 . S
Cd279 O289 2.240 . S
Cd280 O281 2.240 . S
Cd280 O288 2.223 . S
Cd280 O290 2.297 . S
Cd280 O291 2.439 . S
O281 Cd280 2.240 . S
O281 C286 1.279 . S
O282 Cd279 2.297 . S
O282 C284 1.247 . S
O283 Cd279 2.439 . S
O283 C284 1.208 . S
C284 O282 1.247 . S
C284 O283 1.208 . S
C285 O290 1.247 . S
C285 O291 1.208 . S
C286 O278 1.315 . S
C286 O281 1.279 . S
C287 O288 1.315 . S
C287 O289 1.279 . S
O288 Cd280 2.223 . S
O288 C287 1.315 . S
O289 Cd279 2.240 . S
O289 C287 1.279 . S
O290 Cd280 2.297 . S
O290 C285 1.247 . S
O291 Cd280 2.439 . S
O291 C285 1.208 . S
O292 Cd293 2.223 . S
O292 C300 1.315 . S
Cd293 O292 2.223 . S
Cd293 O296 2.297 . S
Cd293 O297 2.439 . S
Cd293 O303 2.240 . S
Cd294 O295 2.240 . S
Cd294 O302 2.223 . S
Cd294 O304 2.297 . S
Cd294 O305 2.439 . S
O295 Cd294 2.240 . S
O295 C300 1.279 . S
O296 Cd293 2.297 . S
O296 C298 1.247 . S
O297 Cd293 2.439 . S
O297 C298 1.208 . S
C298 O296 1.247 . S
C298 O297 1.208 . S
C299 O304 1.247 . S
C299 O305 1.208 . S
C300 O292 1.315 . S
C300 O295 1.279 . S
C301 O302 1.315 . S
C301 O303 1.279 . S
O302 Cd294 2.223 . S
O302 C301 1.315 . S
O303 Cd293 2.240 . S
O303 C301 1.279 . S
O304 Cd294 2.297 . S
O304 C299 1.247 . S
O305 Cd294 2.439 . S
O305 C299 1.208 . S
O306 Cd307 2.223 1_545 S
O306 C314 1.315 . S
Cd307 O306 2.223 1_565 S
Cd307 O310 2.297 . S
Cd307 O311 2.439 . S
Cd307 O317 2.240 1_565 S
Cd308 O309 2.240 . S
Cd308 O316 2.223 . S
Cd308 O318 2.297 . S
Cd308 O319 2.439 1_545 S
O309 Cd308 2.240 . S
O309 C314 1.279 . S
O310 Cd307 2.297 . S
O310 C312 1.247 . S
O311 Cd307 2.439 . S
O311 C312 1.208 . S
C312 O310 1.247 . S
C312 O311 1.208 . S
C313 O318 1.247 1_565 S
C313 O319 1.208 . S
C314 O306 1.315 . S
C314 O309 1.279 . S
C315 O316 1.315 . S
C315 O317 1.279 . S
O316 Cd308 2.223 . S
O316 C315 1.315 . S
O317 Cd307 2.240 1_545 S
O317 C315 1.279 . S
O318 Cd308 2.297 . S
O318 C313 1.247 1_545 S
O319 Cd308 2.439 1_565 S
O319 C313 1.208 . S
O320 Cd321 2.223 . S
O320 C328 1.315 . S
Cd321 O320 2.223 . S
Cd321 O324 2.297 . S
Cd321 O325 2.439 1_655 S
Cd321 O331 2.240 . S
Cd322 O323 2.240 1_455 S
Cd322 O330 2.223 1_455 S
Cd322 O332 2.297 . S
Cd322 O333 2.439 . S
O323 Cd322 2.240 1_655 S
O323 C328 1.279 . S
O324 Cd321 2.297 . S
O324 C326 1.247 1_655 S
O325 Cd321 2.439 1_455 S
O325 C326 1.208 . S
C326 O324 1.247 1_455 S
C326 O325 1.208 . S
C327 O332 1.247 . S
C327 O333 1.208 . S
C328 O320 1.315 . S
C328 O323 1.279 . S
C329 O330 1.315 . S
C329 O331 1.279 . S
O330 Cd322 2.223 1_655 S
O330 C329 1.315 . S
O331 Cd321 2.240 . S
O331 C329 1.279 . S
O332 Cd322 2.297 . S
O332 C327 1.247 . S
O333 Cd322 2.439 . S
O333 C327 1.208 . S
O334 Cd335 2.223 . S
O334 C342 1.315 . S
Cd335 O334 2.223 . S
Cd335 O338 2.297 . S
Cd335 O339 2.439 . S
Cd335 O345 2.240 . S
Cd336 O337 2.240 . S
Cd336 O344 2.223 . S
Cd336 O346 2.297 . S
Cd336 O347 2.439 . S
O337 Cd336 2.240 . S
O337 C342 1.279 . S
O338 Cd335 2.297 . S
O338 C340 1.247 . S
O339 Cd335 2.439 . S
O339 C340 1.208 . S
C340 O338 1.247 . S
C340 O339 1.208 . S
C341 O346 1.247 . S
C341 O347 1.208 . S
C342 O334 1.315 . S
C342 O337 1.279 . S
C343 O344 1.315 . S
C343 O345 1.279 . S
O344 Cd336 2.223 . S
O344 C343 1.315 . S
O345 Cd335 2.240 . S
O345 C343 1.279 . S
O346 Cd336 2.297 . S
O346 C341 1.247 . S
O347 Cd336 2.439 . S
O347 C341 1.208 . S
O348 Cd349 2.223 1_655 S
O348 C356 1.315 . S
Cd349 O348 2.223 1_455 S
Cd349 O352 2.297 . S
Cd349 O353 2.439 . S
Cd349 O359 2.240 . S
Cd350 O351 2.239 . S
Cd350 O358 2.223 1_455 S
Cd350 O360 2.297 . S
Cd350 O361 2.439 . S
O351 Cd350 2.239 . S
O351 C356 1.268 1_455 S
O352 Cd349 2.297 . S
O352 C354 1.247 . S
O353 Cd349 2.439 . S
O353 C354 1.208 . S
C354 O352 1.247 . S
C354 O353 1.208 . S
C355 O360 1.247 . S
C355 O361 1.208 . S
C356 O348 1.315 . S
C356 O351 1.268 1_655 S
C357 O358 1.315 . S
C357 O359 1.279 1_655 S
O358 Cd350 2.223 1_655 S
O358 C357 1.315 . S
O359 Cd349 2.240 . S
O359 C357 1.279 1_455 S
O360 Cd350 2.297 . S
O360 C355 1.247 . S
O361 Cd350 2.439 . S
O361 C355 1.208 . S
O362 Cd363 2.223 . S
O362 C370 1.315 . S
Cd363 O362 2.223 . S
Cd363 O366 2.297 . S
Cd363 O367 2.439 . S
Cd363 O373 2.240 . S
Cd364 O365 2.240 . S
Cd364 O372 2.223 . S
Cd364 O374 2.297 . S
Cd364 O375 2.439 . S
O365 Cd364 2.240 . S
O365 C370 1.279 . S
O366 Cd363 2.297 . S
O366 C368 1.247 . S
O367 Cd363 2.439 . S
O367 C368 1.208 . S
C368 O366 1.247 . S
C368 O367 1.208 . S
C369 O374 1.247 . S
C369 O375 1.208 . S
C370 O362 1.315 . S
C370 O365 1.279 . S
C371 O372 1.315 . S
C371 O373 1.279 . S
O372 Cd364 2.223 . S
O372 C371 1.315 . S
O373 Cd363 2.240 . S
O373 C371 1.279 . S
O374 Cd364 2.297 . S
O374 C369 1.247 . S
O375 Cd364 2.439 . S
O375 C369 1.208 . S
H376 C382 0.930 . S
H377 C385 0.930 . S
H378 C386 0.930 . S
H379 C387 0.930 . S
H380 C390 0.930 . S
H381 C391 0.930 . S
C382 H376 0.930 . S
C382 C383 1.355 . S
C382 C384 1.415 . S
C383 C382 1.355 . S
C383 C385 1.419 . S
C384 C382 1.415 . S
C384 C389 1.425 . S
C384 C391 1.409 . S
C385 H377 0.930 . S
C385 C383 1.419 . S
C385 C386 1.362 . S
C386 H378 0.930 . S
C386 C385 1.362 . S
C386 C389 1.409 . S
C387 H379 0.930 . S
C387 C388 1.355 . S
C387 C389 1.415 . S
C388 C387 1.355 . S
C388 C390 1.419 . S
C389 C384 1.425 . S
C389 C386 1.409 . S
C389 C387 1.415 . S
C390 H380 0.930 . S
C390 C388 1.419 . S
C390 C391 1.362 . S
C391 H381 0.930 . S
C391 C384 1.409 . S
C391 C390 1.362 . S
H392 C398 0.930 . S
H393 C401 0.930 . S
H394 C402 0.930 . S
H395 C403 0.930 . S
H396 C406 0.930 . S
H397 C407 0.935 . S
C398 H392 0.930 . S
C398 C399 1.355 . S
C398 C400 1.415 . S
C399 C398 1.355 . S
C399 C401 1.419 . S
C400 C398 1.415 . S
C400 C405 1.425 1_655 S
C400 C407 1.411 . S
C401 H393 0.930 . S
C401 C399 1.419 . S
C401 C402 1.362 1_655 S
C402 H394 0.930 . S
C402 C401 1.362 1_455 S
C402 C405 1.409 . S
C403 H395 0.930 . S
C403 C404 1.355 . S
C403 C405 1.415 . S
C404 C403 1.355 . S
C404 C406 1.419 . S
C405 C400 1.425 1_455 S
C405 C402 1.409 . S
C405 C403 1.415 . S
C406 H396 0.930 . S
C406 C404 1.419 . S
C406 C407 1.356 1_455 S
C407 H397 0.935 . S
C407 C400 1.411 . S
C407 C406 1.356 1_655 S
H408 C414 0.930 . S
H409 C417 0.930 . S
H410 C418 0.930 . S
H411 C419 0.930 . S
H412 C422 0.930 . S
H413 C423 0.930 . S
C414 H408 0.930 . S
C414 C415 1.355 . S
C414 C416 1.415 . S
C415 C414 1.355 . S
C415 C417 1.419 . S
C416 C414 1.415 . S
C416 C421 1.425 . S
C416 C423 1.409 . S
C417 H409 0.930 . S
C417 C415 1.419 . S
C417 C418 1.362 . S
C418 H410 0.930 . S
C418 C417 1.362 . S
C418 C421 1.409 . S
C419 H411 0.930 . S
C419 C420 1.355 . S
C419 C421 1.415 . S
C420 C419 1.355 . S
C420 C422 1.419 . S
C421 C416 1.425 . S
C421 C418 1.409 . S
C421 C419 1.415 . S
C422 H412 0.930 . S
C422 C420 1.419 . S
C422 C423 1.362 . S
C423 H413 0.930 . S
C423 C416 1.409 . S
C423 C422 1.362 . S
H424 C430 0.930 1_545 S
H425 C433 0.928 1_455 S
H426 C434 0.930 . S
H427 C435 0.930 . S
H428 C438 0.930 . S
H429 C439 0.930 1_455 S
C430 H424 0.930 1_565 S
C430 C431 1.355 . S
C430 C432 1.415 1_465 S
C431 C430 1.355 . S
C431 C433 1.414 1_455 S
C432 C430 1.415 1_645 S
C432 C437 1.425 1_545 S
C432 C439 1.409 . S
C433 H425 0.928 1_655 S
C433 C431 1.414 1_655 S
C433 C434 1.369 . S
C434 H426 0.930 . S
C434 C433 1.369 . S
C434 C437 1.409 . S
C435 H427 0.930 . S
C435 C436 1.355 1_565 S
C435 C437 1.415 . S
C436 C435 1.355 1_545 S
C436 C438 1.419 . S
C437 C432 1.425 1_565 S
C437 C434 1.409 . S
C437 C435 1.415 . S
C438 H428 0.930 . S
C438 C436 1.419 . S
C438 C439 1.362 . S
C439 H429 0.930 1_655 S
C439 C432 1.409 . S
C439 C438 1.362 . S
H440 C446 0.930 . S
H441 C449 0.930 . S
H442 C450 0.930 . S
H443 C451 0.930 . S
H444 C454 0.930 . S
H445 C455 0.930 . S
C446 H440 0.930 . S
C446 C447 1.355 . S
C446 C448 1.415 . S
C447 C446 1.355 . S
C447 C449 1.419 . S
C448 C446 1.415 . S
C448 C453 1.425 . S
C448 C455 1.409 . S
C449 H441 0.930 . S
C449 C447 1.419 . S
C449 C450 1.362 . S
C450 H442 0.930 . S
C450 C449 1.362 . S
C450 C453 1.409 . S
C451 H443 0.930 . S
C451 C452 1.355 . S
C451 C453 1.415 . S
C452 C451 1.355 . S
C452 C454 1.419 . S
C453 C448 1.425 . S
C453 C450 1.409 . S
C453 C451 1.415 . S
C454 H444 0.930 . S
C454 C452 1.419 . S
C454 C455 1.362 . S
C455 H445 0.930 . S
C455 C448 1.409 . S
C455 C454 1.362 . S
H456 C462 0.930 . S
H457 C465 0.930 . S
H458 C466 0.930 . S
H459 C467 0.930 . S
H460 C470 0.930 . S
H461 C471 0.930 . S
C462 H456 0.930 . S
C462 C463 1.355 . S
C462 C464 1.415 . S
C463 C462 1.355 . S
C463 C465 1.419 . S
C464 C462 1.415 . S
C464 C469 1.425 . S
C464 C471 1.409 . S
C465 H457 0.930 . S
C465 C463 1.419 . S
C465 C466 1.362 . S
C466 H458 0.930 . S
C466 C465 1.362 . S
C466 C469 1.409 . S
C467 H459 0.930 . S
C467 C468 1.355 . S
C467 C469 1.415 . S
C468 C467 1.355 . S
C468 C470 1.419 . S
C469 C464 1.425 . S
C469 C466 1.409 . S
C469 C467 1.415 . S
C470 H460 0.930 . S
C470 C468 1.419 . S
C470 C471 1.362 . S
C471 H461 0.930 . S
C471 C464 1.409 . S
C471 C470 1.362 . S
H472 C478 0.930 . S
H473 C481 0.930 . S
H474 C482 0.930 . S
H475 C483 0.930 . S
H476 C486 0.930 . S
H477 C487 0.930 . S
C478 H472 0.930 . S
C478 C479 1.355 . S
C478 C480 1.415 . S
C479 C478 1.355 . S
C479 C481 1.419 . S
C480 C478 1.415 . S
C480 C485 1.425 . S
C480 C487 1.409 . S
C481 H473 0.930 . S
C481 C479 1.419 . S
C481 C482 1.362 . S
C482 H474 0.930 . S
C482 C481 1.362 . S
C482 C485 1.409 . S
C483 H475 0.930 . S
C483 C484 1.355 . S
C483 C485 1.415 . S
C484 C483 1.355 . S
C484 C486 1.419 . S
C485 C480 1.425 . S
C485 C482 1.409 . S
C485 C483 1.415 . S
C486 H476 0.930 . S
C486 C484 1.419 . S
C486 C487 1.362 . S
C487 H477 0.930 . S
C487 C480 1.409 . S
C487 C486 1.362 . S
H488 C494 0.930 . S
H489 C497 0.930 . S
H490 C498 0.930 . S
H491 C499 0.930 . S
H492 C502 0.930 1_545 S
H493 C503 0.930 1_545 S
C494 H488 0.930 . S
C494 C495 1.355 . S
C494 C496 1.415 . S
C495 C494 1.355 . S
C495 C497 1.419 . S
C496 C494 1.415 . S
C496 C501 1.425 . S
C496 C503 1.409 . S
C497 H489 0.930 . S
C497 C495 1.419 . S
C497 C498 1.362 . S
C498 H490 0.930 . S
C498 C497 1.362 . S
C498 C501 1.409 . S
C499 H491 0.930 . S
C499 C500 1.355 . S
C499 C501 1.415 . S
C500 C499 1.355 . S
C500 C502 1.419 . S
C501 C496 1.425 . S
C501 C498 1.409 . S
C501 C499 1.415 . S
C502 H492 0.930 1_565 S
C502 C500 1.419 . S
C502 C503 1.362 . S
C503 H493 0.930 1_565 S
C503 C496 1.409 . S
C503 C502 1.362 . S
H504 C510 0.930 . S
H505 C513 0.930 . S
H506 C514 0.930 . S
H507 C515 0.930 . S
H508 C518 0.930 . S
H509 C519 0.930 . S
C510 H504 0.930 . S
C510 C511 1.355 . S
C510 C512 1.415 . S
C511 C510 1.355 . S
C511 C513 1.419 . S
C512 C510 1.415 . S
C512 C517 1.425 . S
C512 C519 1.409 . S
C513 H505 0.930 . S
C513 C511 1.419 . S
C513 C514 1.362 . S
C514 H506 0.930 . S
C514 C513 1.362 . S
C514 C517 1.409 . S
C515 H507 0.930 . S
C515 C516 1.355 . S
C515 C517 1.415 . S
C516 C515 1.355 . S
C516 C518 1.419 . S
C517 C512 1.425 . S
C517 C514 1.409 . S
C517 C515 1.415 . S
C518 H508 0.930 . S
C518 C516 1.419 . S
C518 C519 1.362 . S
C519 H509 0.930 . S
C519 C512 1.409 . S
C519 C518 1.362 . S
H520 C526 0.930 . S
H521 C529 0.930 . S
H522 C530 0.930 . S
H523 C531 0.930 . S
H524 C534 0.930 . S
H525 C535 0.930 . S
C526 H520 0.930 . S
C526 C527 1.355 . S
C526 C528 1.415 . S
C527 C526 1.355 . S
C527 C529 1.419 . S
C528 C526 1.415 . S
C528 C533 1.425 . S
C528 C535 1.409 . S
C529 H521 0.930 . S
C529 C527 1.419 . S
C529 C530 1.362 . S
C530 H522 0.930 . S
C530 C529 1.362 . S
C530 C533 1.409 . S
C531 H523 0.930 . S
C531 C532 1.355 . S
C531 C533 1.415 . S
C532 C531 1.355 . S
C532 C534 1.419 . S
C533 C528 1.425 . S
C533 C530 1.409 . S
C533 C531 1.415 . S
C534 H524 0.930 . S
C534 C532 1.419 . S
C534 C535 1.362 . S
C535 H525 0.930 . S
C535 C528 1.409 . S
C535 C534 1.362 . S
H536 C542 0.930 . S
H537 C545 0.930 . S
H538 C546 0.930 . S
H539 C547 0.930 . S
H540 C550 0.930 . S
H541 C551 0.930 . S
C542 H536 0.930 . S
C542 C543 1.355 . S
C542 C544 1.415 . S
C543 C542 1.355 . S
C543 C545 1.419 . S
C544 C542 1.415 . S
C544 C549 1.425 . S
C544 C551 1.409 . S
C545 H537 0.930 . S
C545 C543 1.419 . S
C545 C546 1.362 . S
C546 H538 0.930 . S
C546 C545 1.362 . S
C546 C549 1.409 . S
C547 H539 0.930 . S
C547 C548 1.355 . S
C547 C549 1.415 . S
C548 C547 1.355 . S
C548 C550 1.419 . S
C549 C544 1.425 . S
C549 C546 1.409 . S
C549 C547 1.415 . S
C550 H540 0.930 . S
C550 C548 1.419 . S
C550 C551 1.362 . S
C551 H541 0.930 . S
C551 C544 1.409 . S
C551 C550 1.362 . S
H552 C558 0.930 . S
H553 C561 0.930 . S
H554 C562 0.930 . S
H555 C563 0.930 . S
H556 C566 0.930 . S
H557 C567 0.930 . S
C558 H552 0.930 . S
C558 C559 1.355 . S
C558 C560 1.415 . S
C559 C558 1.355 . S
C559 C561 1.419 . S
C560 C558 1.415 . S
C560 C565 1.425 . S
C560 C567 1.409 . S
C561 H553 0.930 . S
C561 C559 1.419 . S
C561 C562 1.362 . S
C562 H554 0.930 . S
C562 C561 1.362 . S
C562 C565 1.409 . S
C563 H555 0.930 . S
C563 C564 1.355 . S
C563 C565 1.415 . S
C564 C563 1.355 . S
C564 C566 1.419 . S
C565 C560 1.425 . S
C565 C562 1.409 . S
C565 C563 1.415 . S
C566 H556 0.930 . S
C566 C564 1.419 . S
C566 C567 1.362 . S
C567 H557 0.930 . S
C567 C560 1.409 . S
C567 C566 1.362 . S
H568 C574 0.930 . S
H569 C577 0.930 . S
H570 C578 0.930 . S
H571 C579 0.930 . S
H572 C582 0.930 . S
H573 C583 0.930 . S
C574 H568 0.930 . S
C574 C575 1.355 . S
C574 C576 1.415 . S
C575 C574 1.355 . S
C575 C577 1.419 . S
C576 C574 1.415 . S
C576 C581 1.425 . S
C576 C583 1.409 . S
C577 H569 0.930 . S
C577 C575 1.419 . S
C577 C578 1.362 . S
C578 H570 0.930 . S
C578 C577 1.362 . S
C578 C581 1.409 . S
C579 H571 0.930 . S
C579 C580 1.355 . S
C579 C581 1.415 . S
C580 C579 1.355 . S
C580 C582 1.419 . S
C581 C576 1.425 . S
C581 C578 1.409 . S
C581 C579 1.415 . S
C582 H572 0.930 . S
C582 C580 1.419 . S
C582 C583 1.362 . S
C583 H573 0.930 . S
C583 C576 1.409 . S
C583 C582 1.362 . S
H584 C590 0.930 . S
H585 C593 0.930 . S
H586 C594 0.930 . S
H587 C595 0.930 . S
H588 C598 0.930 . S
H589 C599 0.930 . S
C590 H584 0.930 . S
C590 C591 1.355 . S
C590 C592 1.415 . S
C591 C590 1.355 . S
C591 C593 1.419 . S
C592 C590 1.415 . S
C592 C597 1.425 . S
C592 C599 1.409 . S
C593 H585 0.930 . S
C593 C591 1.419 . S
C593 C594 1.362 . S
C594 H586 0.930 . S
C594 C593 1.362 . S
C594 C597 1.409 . S
C595 H587 0.930 . S
C595 C596 1.355 . S
C595 C597 1.415 . S
C596 C595 1.355 . S
C596 C598 1.419 . S
C597 C592 1.425 . S
C597 C594 1.409 . S
C597 C595 1.415 . S
C598 H588 0.930 . S
C598 C596 1.419 . S
C598 C599 1.362 . S
C599 H589 0.930 . S
C599 C592 1.409 . S
C599 C598 1.362 . S
H600 C606 0.930 . S
H601 C609 0.930 . S
H602 C610 0.930 . S
H603 C611 0.930 . S
H604 C614 0.930 . S
H605 C615 0.930 . S
C606 H600 0.930 . S
C606 C607 1.355 . S
C606 C608 1.415 . S
C607 C606 1.355 . S
C607 C609 1.419 . S
C608 C606 1.415 . S
C608 C613 1.425 . S
C608 C615 1.409 . S
C609 H601 0.930 . S
C609 C607 1.419 . S
C609 C610 1.362 . S
C610 H602 0.930 . S
C610 C609 1.362 . S
C610 C613 1.409 . S
C611 H603 0.930 . S
C611 C612 1.355 . S
C611 C613 1.415 . S
C612 C611 1.355 . S
C612 C614 1.419 . S
C613 C608 1.425 . S
C613 C610 1.409 . S
C613 C611 1.415 . S
C614 H604 0.930 . S
C614 C612 1.419 . S
C614 C615 1.362 . S
C615 H605 0.930 . S
C615 C608 1.409 . S
C615 C614 1.362 . S
H616 C622 0.930 . S
H617 C625 0.930 . S
H618 C626 0.930 . S
H619 C627 0.930 1_455 S
H620 C630 0.930 . S
H621 C631 0.930 . S
C622 H616 0.930 . S
C622 C623 1.355 . S
C622 C624 1.415 . S
C623 C622 1.355 . S
C623 C625 1.419 . S
C624 C622 1.415 . S
C624 C629 1.425 . S
C624 C631 1.409 . S
C625 H617 0.930 . S
C625 C623 1.419 . S
C625 C626 1.362 . S
C626 H618 0.930 . S
C626 C625 1.362 . S
C626 C629 1.409 . S
C627 H619 0.930 1_655 S
C627 C628 1.355 . S
C627 C629 1.415 . S
C628 C627 1.355 . S
C628 C630 1.419 . S
C629 C624 1.425 . S
C629 C626 1.409 . S
C629 C627 1.415 . S
C630 H620 0.930 . S
C630 C628 1.419 . S
C630 C631 1.362 . S
C631 H621 0.930 . S
C631 C624 1.409 . S
C631 C630 1.362 . S
H632 C638 0.930 . S
H633 C641 0.930 . S
H634 C642 0.930 . S
H635 C643 0.930 . S
H636 C646 0.930 1_545 S
H637 C647 0.930 . S
C638 H632 0.930 . S
C638 C639 1.355 . S
C638 C640 1.415 . S
C639 C638 1.355 . S
C639 C641 1.419 . S
C640 C638 1.415 . S
C640 C645 1.425 . S
C640 C647 1.409 . S
C641 H633 0.930 . S
C641 C639 1.419 . S
C641 C642 1.362 . S
C642 H634 0.930 . S
C642 C641 1.362 . S
C642 C645 1.409 . S
C643 H635 0.930 . S
C643 C644 1.355 . S
C643 C645 1.415 . S
C644 C643 1.355 . S
C644 C646 1.419 . S
C645 C640 1.425 . S
C645 C642 1.409 . S
C645 C643 1.415 . S
C646 H636 0.930 1_565 S
C646 C644 1.419 . S
C646 C647 1.362 . S
C647 H637 0.930 . S
C647 C640 1.409 . S
C647 C646 1.362 . S
H648 C654 0.930 . S
H649 C657 0.930 . S
H650 C658 0.930 . S
H651 C659 0.930 . S
H652 C662 0.930 . S
H653 C663 0.930 . S
C654 H648 0.930 . S
C654 C655 1.355 . S
C654 C656 1.415 . S
C655 C654 1.355 . S
C655 C657 1.419 . S
C656 C654 1.415 . S
C656 C661 1.425 . S
C656 C663 1.409 . S
C657 H649 0.930 . S
C657 C655 1.419 . S
C657 C658 1.362 . S
C658 H650 0.930 . S
C658 C657 1.362 . S
C658 C661 1.409 . S
C659 H651 0.930 . S
C659 C660 1.355 . S
C659 C661 1.415 . S
C660 C659 1.355 . S
C660 C662 1.419 . S
C661 C656 1.425 . S
C661 C658 1.409 . S
C661 C659 1.415 . S
C662 H652 0.930 . S
C662 C660 1.419 . S
C662 C663 1.362 . S
C663 H653 0.930 . S
C663 C656 1.409 . S
C663 C662 1.362 . S
H664 C670 0.930 . S
H665 C673 0.930 . S
H666 C674 0.930 . S
H667 C675 0.929 . S
H668 C678 0.930 . S
H669 C679 0.930 . S
C670 H664 0.930 . S
C670 C671 1.355 . S
C670 C672 1.417 . S
C671 C670 1.355 . S
C671 C673 1.419 . S
C672 C670 1.417 . S
C672 C677 1.427 . S
C672 C679 1.406 1_556 S
C673 H665 0.930 . S
C673 C671 1.419 . S
C673 C674 1.362 . S
C674 H666 0.930 . S
C674 C673 1.362 . S
C674 C677 1.409 . S
C675 H667 0.929 . S
C675 C676 1.356 1_556 S
C675 C677 1.414 1_565 S
C676 C675 1.356 1_554 S
C676 C678 1.419 . S
C677 C672 1.427 . S
C677 C674 1.409 . S
C677 C675 1.414 1_545 S
C678 H668 0.930 . S
C678 C676 1.419 . S
C678 C679 1.362 1_565 S
C679 H669 0.930 . S
C679 C672 1.406 1_554 S
C679 C678 1.362 1_545 S
H680 C686 0.930 . S
H681 C689 0.930 . S
H682 C690 0.930 . S
H683 C691 0.930 . S
H684 C694 0.930 . S
H685 C695 0.930 . S
C686 H680 0.930 . S
C686 C687 1.355 . S
C686 C688 1.415 . S
C687 C686 1.355 . S
C687 C689 1.419 . S
C688 C686 1.415 . S
C688 C693 1.425 . S
C688 C695 1.409 . S
C689 H681 0.930 . S
C689 C687 1.419 . S
C689 C690 1.362 . S
C690 H682 0.930 . S
C690 C689 1.362 . S
C690 C693 1.409 . S
C691 H683 0.930 . S
C691 C692 1.355 . S
C691 C693 1.415 . S
C692 C691 1.355 . S
C692 C694 1.419 . S
C693 C688 1.425 . S
C693 C690 1.409 . S
C693 C691 1.415 . S
C694 H684 0.930 . S
C694 C692 1.419 . S
C694 C695 1.362 . S
C695 H685 0.930 . S
C695 C688 1.409 . S
C695 C694 1.362 . S
H696 C702 0.930 . S
H697 C705 0.930 . S
H698 C706 0.930 . S
H699 C707 0.930 . S
H700 C710 0.930 . S
H701 C711 0.930 . S
C702 H696 0.930 . S
C702 C703 1.355 1_545 S
C702 C704 1.415 . S
C703 C702 1.355 1_565 S
C703 C705 1.419 . S
C704 C702 1.415 . S
C704 C709 1.425 . S
C704 C711 1.409 . S
C705 H697 0.930 . S
C705 C703 1.419 . S
C705 C706 1.362 . S
C706 H698 0.930 . S
C706 C705 1.362 . S
C706 C709 1.409 1_565 S
C707 H699 0.930 . S
C707 C708 1.355 . S
C707 C709 1.415 . S
C708 C707 1.355 . S
C708 C710 1.419 . S
C709 C704 1.425 . S
C709 C706 1.409 1_545 S
C709 C707 1.415 . S
C710 H700 0.930 . S
C710 C708 1.419 . S
C710 C711 1.362 . S
C711 H701 0.930 . S
C711 C704 1.409 . S
C711 C710 1.362 . S
H712 C718 0.930 . S
H713 C721 0.930 . S
H714 C722 0.930 . S
H715 C723 0.930 . S
H716 C726 0.930 . S
H717 C727 0.930 . S
C718 H712 0.930 . S
C718 C719 1.355 . S
C718 C720 1.415 . S
C719 C718 1.355 . S
C719 C721 1.419 . S
C720 C718 1.415 . S
C720 C725 1.425 . S
C720 C727 1.409 . S
C721 H713 0.930 . S
C721 C719 1.419 . S
C721 C722 1.362 . S
C722 H714 0.930 . S
C722 C721 1.362 . S
C722 C725 1.409 . S
C723 H715 0.930 . S
C723 C724 1.355 . S
C723 C725 1.415 . S
C724 C723 1.355 . S
C724 C726 1.419 . S
C725 C720 1.425 . S
C725 C722 1.409 . S
C725 C723 1.415 . S
C726 H716 0.930 . S
C726 C724 1.419 . S
C726 C727 1.362 . S
C727 H717 0.930 . S
C727 C720 1.409 . S
C727 C726 1.362 . S
H728 C734 0.930 . S
H729 C737 0.930 . S
H730 C738 0.930 . S
H731 C739 0.930 . S
H732 C742 0.930 . S
H733 C743 0.930 1_565 S
C734 H728 0.930 . S
C734 C735 1.355 . S
C734 C736 1.415 . S
C735 C734 1.355 . S
C735 C737 1.419 . S
C736 C734 1.415 . S
C736 C741 1.425 1_565 S
C736 C743 1.409 1_565 S
C737 H729 0.930 . S
C737 C735 1.419 . S
C737 C738 1.362 1_565 S
C738 H730 0.930 . S
C738 C737 1.362 1_545 S
C738 C741 1.409 . S
C739 H731 0.930 . S
C739 C740 1.355 . S
C739 C741 1.415 . S
C740 C739 1.355 . S
C740 C742 1.419 . S
C741 C736 1.425 1_545 S
C741 C738 1.409 . S
C741 C739 1.415 . S
C742 H732 0.930 . S
C742 C740 1.419 . S
C742 C743 1.362 . S
C743 H733 0.930 1_545 S
C743 C736 1.409 1_545 S
C743 C742 1.362 . S
H744 C750 0.930 . S
H745 C753 0.930 . S
H746 C754 0.930 . S
H747 C755 0.930 . S
H748 C758 0.930 . S
H749 C759 0.930 . S
C750 H744 0.930 . S
C750 C751 1.355 . S
C750 C752 1.415 . S
C751 C750 1.355 . S
C751 C753 1.419 . S
C752 C750 1.415 . S
C752 C757 1.425 . S
C752 C759 1.409 . S
C753 H745 0.930 . S
C753 C751 1.419 . S
C753 C754 1.362 . S
C754 H746 0.930 . S
C754 C753 1.362 . S
C754 C757 1.409 . S
C755 H747 0.930 . S
C755 C756 1.355 . S
C755 C757 1.415 . S
C756 C755 1.355 . S
C756 C758 1.419 . S
C757 C752 1.425 . S
C757 C754 1.409 . S
C757 C755 1.415 . S
C758 H748 0.930 . S
C758 C756 1.419 . S
C758 C759 1.362 . S
C759 H749 0.930 . S
C759 C752 1.409 . S
C759 C758 1.362 . S
H760 C766 0.930 . S
H761 C769 0.930 . S
H762 C770 0.930 . S
H763 C771 0.930 . S
H764 C774 0.930 . S
H765 C775 0.930 . S
C766 H760 0.930 . S
C766 C767 1.355 . S
C766 C768 1.415 . S
C767 C766 1.355 . S
C767 C769 1.419 . S
C768 C766 1.415 . S
C768 C773 1.425 . S
C768 C775 1.409 . S
C769 H761 0.930 . S
C769 C767 1.419 . S
C769 C770 1.362 . S
C770 H762 0.930 . S
C770 C769 1.362 . S
C770 C773 1.409 . S
C771 H763 0.930 . S
C771 C772 1.355 . S
C771 C773 1.415 . S
C772 C771 1.355 . S
C772 C774 1.419 . S
C773 C768 1.425 . S
C773 C770 1.409 . S
C773 C771 1.415 . S
C774 H764 0.930 . S
C774 C772 1.419 . S
C774 C775 1.362 . S
C775 H765 0.930 . S
C775 C768 1.409 . S
C775 C774 1.362 . S
H776 C782 0.930 . S
H777 C785 0.930 . S
H778 C786 0.930 . S
H779 C787 0.930 . S
H780 C790 0.930 . S
H781 C791 0.930 . S
C782 H776 0.930 . S
C782 C783 1.355 . S
C782 C784 1.415 . S
C783 C782 1.355 . S
C783 C785 1.419 . S
C784 C782 1.415 . S
C784 C789 1.425 . S
C784 C791 1.409 . S
C785 H777 0.930 . S
C785 C783 1.419 . S
C785 C786 1.362 . S
C786 H778 0.930 . S
C786 C785 1.362 . S
C786 C789 1.409 . S
C787 H779 0.930 . S
C787 C788 1.355 . S
C787 C789 1.415 . S
C788 C787 1.355 . S
C788 C790 1.419 . S
C789 C784 1.425 . S
C789 C786 1.409 . S
C789 C787 1.415 . S
C790 H780 0.930 . S
C790 C788 1.419 . S
C790 C791 1.362 . S
C791 H781 0.930 . S
C791 C784 1.409 . S
C791 C790 1.362 . S
H792 C798 0.930 . S
H793 C801 0.930 . S
H794 C802 0.930 . S
H795 C803 0.930 . S
H796 C806 0.930 . S
H797 C807 0.930 . S
C798 H792 0.930 . S
C798 C799 1.355 . S
C798 C800 1.415 . S
C799 C798 1.355 . S
C799 C801 1.419 . S
C800 C798 1.415 . S
C800 C805 1.425 . S
C800 C807 1.409 . S
C801 H793 0.930 . S
C801 C799 1.419 . S
C801 C802 1.362 . S
C802 H794 0.930 . S
C802 C801 1.362 . S
C802 C805 1.409 . S
C803 H795 0.930 . S
C803 C804 1.355 . S
C803 C805 1.415 . S
C804 C803 1.355 . S
C804 C806 1.419 . S
C805 C800 1.425 . S
C805 C802 1.409 . S
C805 C803 1.415 . S
C806 H796 0.930 . S
C806 C804 1.419 . S
C806 C807 1.362 . S
C807 H797 0.930 . S
C807 C800 1.409 . S
C807 C806 1.362 . S
H808 C814 0.930 . S
H809 C817 0.930 . S
H810 C818 0.930 . S
H811 C819 0.930 . S
H812 C822 0.930 . S
H813 C823 0.930 . S
C814 H808 0.930 . S
C814 C815 1.355 . S
C814 C816 1.415 . S
C815 C814 1.355 . S
C815 C817 1.419 . S
C816 C814 1.415 . S
C816 C821 1.425 . S
C816 C823 1.409 . S
C817 H809 0.930 . S
C817 C815 1.419 . S
C817 C818 1.362 . S
C818 H810 0.930 . S
C818 C817 1.362 . S
C818 C821 1.409 . S
C819 H811 0.930 . S
C819 C820 1.355 . S
C819 C821 1.415 . S
C820 C819 1.355 . S
C820 C822 1.419 . S
C821 C816 1.425 . S
C821 C818 1.409 . S
C821 C819 1.415 . S
C822 H812 0.930 . S
C822 C820 1.419 . S
C822 C823 1.362 . S
C823 H813 0.930 . S
C823 C816 1.409 . S
C823 C822 1.362 . S
H824 C830 0.930 . S
H825 C833 0.930 . S
H826 C834 0.930 . S
H827 C835 0.930 . S
H828 C838 0.930 . S
H829 C839 0.930 . S
C830 H824 0.930 . S
C830 C831 1.355 . S
C830 C832 1.415 . S
C831 C830 1.355 . S
C831 C833 1.419 . S
C832 C830 1.415 . S
C832 C837 1.425 . S
C832 C839 1.409 . S
C833 H825 0.930 . S
C833 C831 1.419 . S
C833 C834 1.362 . S
C834 H826 0.930 . S
C834 C833 1.362 . S
C834 C837 1.409 . S
C835 H827 0.930 . S
C835 C836 1.355 . S
C835 C837 1.415 . S
C836 C835 1.355 . S
C836 C838 1.419 . S
C837 C832 1.425 . S
C837 C834 1.409 . S
C837 C835 1.415 . S
C838 H828 0.930 . S
C838 C836 1.419 . S
C838 C839 1.362 . S
C839 H829 0.930 . S
C839 C832 1.409 . S
C839 C838 1.362 . S
H840 C846 0.930 . S
H841 C849 0.930 . S
H842 C850 0.930 . S
H843 C851 0.930 . S
H844 C854 0.930 . S
H845 C855 0.930 . S
C846 H840 0.930 . S
C846 C847 1.355 . S
C846 C848 1.415 . S
C847 C846 1.355 . S
C847 C849 1.419 . S
C848 C846 1.415 . S
C848 C853 1.425 1_455 S
C848 C855 1.409 . S
C849 H841 0.930 . S
C849 C847 1.419 . S
C849 C850 1.362 1_455 S
C850 H842 0.930 . S
C850 C849 1.362 1_655 S
C850 C853 1.409 . S
C851 H843 0.930 . S
C851 C852 1.355 . S
C851 C853 1.415 . S
C852 C851 1.355 . S
C852 C854 1.419 . S
C853 C848 1.425 1_655 S
C853 C850 1.409 . S
C853 C851 1.415 . S
C854 H844 0.930 . S
C854 C852 1.419 . S
C854 C855 1.362 1_655 S
C855 H845 0.930 . S
C855 C848 1.409 . S
C855 C854 1.362 1_455 S
H856 C862 0.930 . S
H857 C865 0.930 . S
H858 C866 0.930 . S
H859 C867 0.930 . S
H860 C870 0.930 . S
H861 C871 0.930 . S
C862 H856 0.930 . S
C862 C863 1.355 . S
C862 C864 1.415 . S
C863 C862 1.355 . S
C863 C865 1.419 . S
C864 C862 1.415 . S
C864 C869 1.425 . S
C864 C871 1.409 . S
C865 H857 0.930 . S
C865 C863 1.419 . S
C865 C866 1.362 . S
C866 H858 0.930 . S
C866 C865 1.362 . S
C866 C869 1.409 . S
C867 H859 0.930 . S
C867 C868 1.355 . S
C867 C869 1.415 . S
C868 C867 1.355 . S
C868 C870 1.419 . S
C869 C864 1.425 . S
C869 C866 1.409 . S
C869 C867 1.415 . S
C870 H860 0.930 . S
C870 C868 1.419 . S
C870 C871 1.362 . S
C871 H861 0.930 . S
C871 C864 1.409 . S
C871 C870 1.362 . S
H872 C878 0.930 . S
H873 C881 0.930 . S
H874 C882 0.930 . S
H875 C883 0.930 1_655 S
H876 C886 0.930 . S
H877 C887 0.930 . S
C878 H872 0.930 . S
C878 C879 1.355 . S
C878 C880 1.415 . S
C879 C878 1.355 . S
C879 C881 1.419 . S
C880 C878 1.415 . S
C880 C885 1.425 . S
C880 C887 1.409 1_655 S
C881 H873 0.930 . S
C881 C879 1.419 . S
C881 C882 1.362 . S
C882 H874 0.930 . S
C882 C881 1.362 . S
C882 C885 1.409 . S
C883 H875 0.930 1_455 S
C883 C884 1.355 . S
C883 C885 1.415 1_455 S
C884 C883 1.355 . S
C884 C886 1.419 . S
C885 C880 1.425 . S
C885 C882 1.409 . S
C885 C883 1.415 1_655 S
C886 H876 0.930 . S
C886 C884 1.419 . S
C886 C887 1.362 . S
C887 H877 0.930 . S
C887 C880 1.409 1_455 S
C887 C886 1.362 . S
H888 C894 0.930 . S
H889 C897 0.930 . S
H890 C898 0.930 . S
H891 C899 0.930 . S
H892 C902 0.930 . S
H893 C903 0.930 . S
C894 H888 0.930 . S
C894 C895 1.355 . S
C894 C896 1.415 . S
C895 C894 1.355 . S
C895 C897 1.419 . S
C896 C894 1.415 . S
C896 C901 1.425 . S
C896 C903 1.409 . S
C897 H889 0.930 . S
C897 C895 1.419 . S
C897 C898 1.362 . S
C898 H890 0.930 . S
C898 C897 1.362 . S
C898 C901 1.409 . S
C899 H891 0.930 . S
C899 C900 1.355 . S
C899 C901 1.415 . S
C900 C899 1.355 . S
C900 C902 1.419 . S
C901 C896 1.425 . S
C901 C898 1.409 . S
C901 C899 1.415 . S
C902 H892 0.930 . S
C902 C900 1.419 . S
C902 C903 1.362 . S
C903 H893 0.930 . S
C903 C896 1.409 . S
C903 C902 1.362 . S
H904 C910 0.930 . S
H905 C913 0.930 . S
H906 C914 0.930 1_556 S
H907 C915 0.930 . S
H908 C918 0.930 . S
H909 C919 0.930 . S
C910 H904 0.930 . S
C910 C911 1.355 . S
C910 C912 1.415 . S
C911 C910 1.355 . S
C911 C913 1.419 . S
C912 C910 1.415 . S
C912 C917 1.425 . S
C912 C919 1.409 . S
C913 H905 0.930 . S
C913 C911 1.419 . S
C913 C914 1.362 . S
C914 H906 0.930 1_554 S
C914 C913 1.362 . S
C914 C917 1.409 . S
C915 H907 0.930 . S
C915 C916 1.355 . S
C915 C917 1.415 1_556 S
C916 C915 1.355 . S
C916 C918 1.419 1_556 S
C917 C912 1.425 . S
C917 C914 1.409 . S
C917 C915 1.415 1_554 S
C918 H908 0.930 . S
C918 C916 1.419 1_554 S
C918 C919 1.362 . S
C919 H909 0.930 . S
C919 C912 1.409 . S
C919 C918 1.362 . S
H920 C926 0.930 . S
H921 C929 0.930 . S
H922 C930 0.930 . S
H923 C931 0.930 . S
H924 C934 0.930 . S
H925 C935 0.930 . S
C926 H920 0.930 . S
C926 C927 1.355 . S
C926 C928 1.415 . S
C927 C926 1.355 . S
C927 C929 1.419 . S
C928 C926 1.415 . S
C928 C933 1.425 . S
C928 C935 1.409 . S
C929 H921 0.930 . S
C929 C927 1.419 . S
C929 C930 1.362 . S
C930 H922 0.930 . S
C930 C929 1.362 . S
C930 C933 1.409 . S
C931 H923 0.930 . S
C931 C932 1.355 . S
C931 C933 1.415 . S
C932 C931 1.355 . S
C932 C934 1.419 . S
C933 C928 1.425 . S
C933 C930 1.409 . S
C933 C931 1.415 . S
C934 H924 0.930 . S
C934 C932 1.419 . S
C934 C935 1.362 . S
C935 H925 0.930 . S
C935 C928 1.409 . S
C935 C934 1.362 . S
H936 C942 0.930 . S
H937 C945 0.930 . S
H938 C946 0.930 . S
H939 C947 0.930 . S
H940 C950 0.930 . S
H941 C951 0.930 . S
C942 H936 0.930 . S
C942 C943 1.355 . S
C942 C944 1.415 . S
C943 C942 1.355 . S
C943 C945 1.419 . S
C944 C942 1.415 . S
C944 C949 1.425 . S
C944 C951 1.409 . S
C945 H937 0.930 . S
C945 C943 1.419 . S
C945 C946 1.362 . S
C946 H938 0.930 . S
C946 C945 1.362 . S
C946 C949 1.409 . S
C947 H939 0.930 . S
C947 C948 1.355 . S
C947 C949 1.415 . S
C948 C947 1.355 . S
C948 C950 1.419 . S
C949 C944 1.425 . S
C949 C946 1.409 . S
C949 C947 1.415 . S
C950 H940 0.930 . S
C950 C948 1.419 . S
C950 C951 1.362 . S
C951 H941 0.930 . S
C951 C944 1.409 . S
C951 C950 1.362 . S
H952 C958 0.930 . S
H953 C961 0.930 . S
H954 C962 0.930 . S
H955 C963 0.930 . S
H956 C966 0.930 . S
H957 C967 0.930 . S
C958 H952 0.930 . S
C958 C959 1.355 . S
C958 C960 1.415 . S
C959 C958 1.355 . S
C959 C961 1.419 . S
C960 C958 1.415 . S
C960 C965 1.425 . S
C960 C967 1.409 . S
C961 H953 0.930 . S
C961 C959 1.419 . S
C961 C962 1.362 . S
C962 H954 0.930 . S
C962 C961 1.362 . S
C962 C965 1.409 . S
C963 H955 0.930 . S
C963 C964 1.355 . S
C963 C965 1.415 . S
C964 C963 1.355 . S
C964 C966 1.419 . S
C965 C960 1.425 . S
C965 C962 1.409 . S
C965 C963 1.415 . S
C966 H956 0.930 . S
C966 C964 1.419 . S
C966 C967 1.362 . S
C967 H957 0.930 . S
C967 C960 1.409 . S
C967 C966 1.362 . S
H968 C974 0.930 . S
H969 C977 0.930 . S
H970 C978 0.930 . S
H971 C979 0.930 . S
H972 C982 0.930 . S
H973 C983 0.930 1_556 S
C974 H968 0.930 . S
C974 C975 1.355 . S
C974 C976 1.415 . S
C975 C974 1.355 . S
C975 C977 1.419 . S
C976 C974 1.415 . S
C976 C981 1.425 1_556 S
C976 C983 1.409 1_556 S
C977 H969 0.930 . S
C977 C975 1.419 . S
C977 C978 1.362 1_556 S
C978 H970 0.930 . S
C978 C977 1.362 1_554 S
C978 C981 1.409 . S
C979 H971 0.930 . S
C979 C980 1.355 . S
C979 C981 1.415 . S
C980 C979 1.355 . S
C980 C982 1.419 . S
C981 C976 1.425 1_554 S
C981 C978 1.409 . S
C981 C979 1.415 . S
C982 H972 0.930 . S
C982 C980 1.419 . S
C982 C983 1.362 . S
C983 H973 0.930 1_554 S
C983 C976 1.409 1_554 S
C983 C982 1.362 . S
H984 C990 0.930 . S
H985 C993 0.930 . S
H986 C994 0.930 . S
H987 C995 0.930 . S
H988 C998 0.930 . S
H989 C999 0.930 . S
C990 H984 0.930 . S
C990 C991 1.355 . S
C990 C992 1.415 . S
C991 C990 1.355 . S
C991 C993 1.419 . S
C992 C990 1.415 . S
C992 C997 1.425 . S
C992 C999 1.409 . S
C993 H985 0.930 . S
C993 C991 1.419 . S
C993 C994 1.362 . S
C994 H986 0.930 . S
C994 C993 1.362 . S
C994 C997 1.409 . S
C995 H987 0.930 . S
C995 C996 1.355 . S
C995 C997 1.415 . S
C996 C995 1.355 . S
C996 C998 1.419 . S
C997 C992 1.425 . S
C997 C994 1.409 . S
C997 C995 1.415 . S
C998 H988 0.930 . S
C998 C996 1.419 . S
C998 C999 1.362 . S
C999 H989 0.930 . S
C999 C992 1.409 . S
C999 C998 1.362 . S
H1000 C1006 0.930 . S
H1001 C1009 0.930 . S
H1002 C1010 0.930 . S
H1003 C1011 0.930 . S
H1004 C1014 0.930 . S
H1005 C1015 0.930 1_556 S
C1006 H1000 0.930 . S
C1006 C1007 1.355 . S
C1006 C1008 1.415 1_556 S
C1007 C1006 1.355 . S
C1007 C1009 1.419 1_556 S
C1008 C1006 1.415 1_554 S
C1008 C1013 1.425 . S
C1008 C1015 1.409 . S
C1009 H1001 0.930 . S
C1009 C1007 1.419 1_554 S
C1009 C1010 1.362 . S
C1010 H1002 0.930 . S
C1010 C1009 1.362 . S
C1010 C1013 1.409 . S
C1011 H1003 0.930 . S
C1011 C1012 1.355 . S
C1011 C1013 1.415 . S
C1012 C1011 1.355 . S
C1012 C1014 1.419 . S
C1013 C1008 1.425 . S
C1013 C1010 1.409 . S
C1013 C1011 1.415 . S
C1014 H1004 0.930 . S
C1014 C1012 1.419 . S
C1014 C1015 1.362 . S
C1015 H1005 0.930 1_554 S
C1015 C1008 1.409 . S
C1015 C1014 1.362 . S
H1016 C1022 0.930 . S
H1017 C1025 0.930 . S
H1018 C1026 0.930 . S
H1019 C1027 0.930 . S
H1020 C1030 0.930 . S
H1021 C1031 0.930 . S
C1022 H1016 0.930 . S
C1022 C1023 1.355 . S
C1022 C1024 1.415 . S
C1023 C1022 1.355 . S
C1023 C1025 1.419 . S
C1024 C1022 1.415 . S
C1024 C1029 1.425 . S
C1024 C1031 1.409 . S
C1025 H1017 0.930 . S
C1025 C1023 1.419 . S
C1025 C1026 1.362 . S
C1026 H1018 0.930 . S
C1026 C1025 1.362 . S
C1026 C1029 1.409 . S
C1027 H1019 0.930 . S
C1027 C1028 1.355 . S
C1027 C1029 1.415 . S
C1028 C1027 1.355 . S
C1028 C1030 1.419 . S
C1029 C1024 1.425 . S
C1029 C1026 1.409 . S
C1029 C1027 1.415 . S
C1030 H1020 0.930 . S
C1030 C1028 1.419 . S
C1030 C1031 1.362 . S
C1031 H1021 0.930 . S
C1031 C1024 1.409 . S
C1031 C1030 1.362 . S
H1032 C1038 0.930 . S
H1033 C1041 0.930 . S
H1034 C1042 0.930 . S
H1035 C1043 0.930 . S
H1036 C1046 0.930 . S
H1037 C1047 0.930 . S
C1038 H1032 0.930 . S
C1038 C1039 1.355 . S
C1038 C1040 1.415 . S
C1039 C1038 1.355 . S
C1039 C1041 1.419 . S
C1040 C1038 1.415 . S
C1040 C1045 1.425 . S
C1040 C1047 1.409 . S
C1041 H1033 0.930 . S
C1041 C1039 1.419 . S
C1041 C1042 1.362 . S
C1042 H1034 0.930 . S
C1042 C1041 1.362 . S
C1042 C1045 1.409 . S
C1043 H1035 0.930 . S
C1043 C1044 1.355 . S
C1043 C1045 1.415 . S
C1044 C1043 1.355 . S
C1044 C1046 1.419 . S
C1045 C1040 1.425 . S
C1045 C1042 1.409 . S
C1045 C1043 1.415 . S
C1046 H1036 0.930 . S
C1046 C1044 1.419 . S
C1046 C1047 1.362 . S
C1047 H1037 0.930 . S
C1047 C1040 1.409 . S
C1047 C1046 1.362 . S
H1048 C1054 0.930 . S
H1049 C1057 0.930 . S
H1050 C1058 0.930 . S
H1051 C1059 0.930 . S
H1052 C1062 0.930 . S
H1053 C1063 0.930 . S
C1054 H1048 0.930 . S
C1054 C1055 1.355 . S
C1054 C1056 1.415 . S
C1055 C1054 1.355 . S
C1055 C1057 1.419 . S
C1056 C1054 1.415 . S
C1056 C1061 1.425 . S
C1056 C1063 1.409 . S
C1057 H1049 0.930 . S
C1057 C1055 1.419 . S
C1057 C1058 1.362 . S
C1058 H1050 0.930 . S
C1058 C1057 1.362 . S
C1058 C1061 1.409 . S
C1059 H1051 0.930 . S
C1059 C1060 1.355 . S
C1059 C1061 1.415 . S
C1060 C1059 1.355 . S
C1060 C1062 1.419 . S
C1061 C1056 1.425 . S
C1061 C1058 1.409 . S
C1061 C1059 1.415 . S
C1062 H1052 0.930 . S
C1062 C1060 1.419 . S
C1062 C1063 1.362 . S
C1063 H1053 0.930 . S
C1063 C1056 1.409 . S
C1063 C1062 1.362 . S
H1064 C1070 0.930 . S
H1065 C1073 0.930 . S
H1066 C1074 0.930 . S
H1067 C1075 0.930 . S
H1068 C1078 0.930 . S
H1069 C1079 0.930 . S
C1070 H1064 0.930 . S
C1070 C1071 1.355 . S
C1070 C1072 1.415 . S
C1071 C1070 1.355 . S
C1071 C1073 1.419 . S
C1072 C1070 1.415 . S
C1072 C1077 1.425 . S
C1072 C1079 1.409 . S
C1073 H1065 0.930 . S
C1073 C1071 1.419 . S
C1073 C1074 1.362 . S
C1074 H1066 0.930 . S
C1074 C1073 1.362 . S
C1074 C1077 1.409 . S
C1075 H1067 0.930 . S
C1075 C1076 1.355 . S
C1075 C1077 1.415 . S
C1076 C1075 1.355 . S
C1076 C1078 1.419 . S
C1077 C1072 1.425 . S
C1077 C1074 1.409 . S
C1077 C1075 1.415 . S
C1078 H1068 0.930 . S
C1078 C1076 1.419 . S
C1078 C1079 1.362 . S
C1079 H1069 0.930 . S
C1079 C1072 1.409 . S
C1079 C1078 1.362 . S
H1080 C1086 0.930 . S
H1081 C1089 0.930 . S
H1082 C1090 0.930 . S
H1083 C1091 0.930 . S
H1084 C1094 0.930 . S
H1085 C1095 0.930 . S
C1086 H1080 0.930 . S
C1086 C1087 1.355 . S
C1086 C1088 1.415 . S
C1087 C1086 1.355 . S
C1087 C1089 1.419 . S
C1088 C1086 1.415 . S
C1088 C1093 1.425 . S
C1088 C1095 1.409 . S
C1089 H1081 0.930 . S
C1089 C1087 1.419 . S
C1089 C1090 1.362 . S
C1090 H1082 0.930 . S
C1090 C1089 1.362 . S
C1090 C1093 1.409 . S
C1091 H1083 0.930 . S
C1091 C1092 1.355 . S
C1091 C1093 1.415 . S
C1092 C1091 1.355 . S
C1092 C1094 1.419 . S
C1093 C1088 1.425 . S
C1093 C1090 1.409 . S
C1093 C1091 1.415 . S
C1094 H1084 0.930 . S
C1094 C1092 1.419 . S
C1094 C1095 1.362 . S
C1095 H1085 0.930 . S
C1095 C1088 1.409 . S
C1095 C1094 1.362 . S
H1096 C1102 0.930 . S
H1097 C1105 0.930 . S
H1098 C1106 0.930 . S
H1099 C1107 0.930 . S
H1100 C1110 0.930 . S
H1101 C1111 0.930 . S
C1102 H1096 0.930 . S
C1102 C1103 1.355 . S
C1102 C1104 1.415 . S
C1103 C1102 1.355 . S
C1103 C1105 1.419 . S
C1104 C1102 1.415 . S
C1104 C1109 1.425 . S
C1104 C1111 1.409 . S
C1105 H1097 0.930 . S
C1105 C1103 1.419 . S
C1105 C1106 1.362 . S
C1106 H1098 0.930 . S
C1106 C1105 1.362 . S
C1106 C1109 1.409 . S
C1107 H1099 0.930 . S
C1107 C1108 1.355 . S
C1107 C1109 1.415 . S
C1108 C1107 1.355 . S
C1108 C1110 1.419 . S
C1109 C1104 1.425 . S
C1109 C1106 1.409 . S
C1109 C1107 1.415 . S
C1110 H1100 0.930 . S
C1110 C1108 1.419 . S
C1110 C1111 1.362 . S
C1111 H1101 0.930 . S
C1111 C1104 1.409 . S
C1111 C1110 1.362 . S
H1112 C1118 0.930 . S
H1113 C1121 0.930 . S
H1114 C1122 0.930 . S
H1115 C1123 0.930 . S
H1116 C1126 0.930 . S
H1117 C1127 0.930 . S
C1118 H1112 0.930 . S
C1118 C1119 1.355 . S
C1118 C1120 1.415 . S
C1119 C1118 1.355 . S
C1119 C1121 1.419 . S
C1120 C1118 1.415 . S
C1120 C1125 1.425 . S
C1120 C1127 1.409 . S
C1121 H1113 0.930 . S
C1121 C1119 1.419 . S
C1121 C1122 1.362 . S
C1122 H1114 0.930 . S
C1122 C1121 1.362 . S
C1122 C1125 1.409 . S
C1123 H1115 0.930 . S
C1123 C1124 1.355 . S
C1123 C1125 1.415 . S
C1124 C1123 1.355 . S
C1124 C1126 1.419 . S
C1125 C1120 1.425 . S
C1125 C1122 1.409 . S
C1125 C1123 1.415 . S
C1126 H1116 0.930 . S
C1126 C1124 1.419 . S
C1126 C1127 1.362 . S
C1127 H1117 0.930 . S
C1127 C1120 1.409 . S
C1127 C1126 1.362 . S
H1128 C1134 0.930 . S
H1129 C1137 0.930 . S
H1130 C1138 0.930 . S
H1131 C1139 0.930 1_565 S
H1132 C1142 0.930 . S
H1133 C1143 0.930 . S
C1134 H1128 0.930 . S
C1134 C1135 1.355 . S
C1134 C1136 1.415 . S
C1135 C1134 1.355 . S
C1135 C1137 1.419 . S
C1136 C1134 1.415 . S
C1136 C1141 1.425 . S
C1136 C1143 1.409 . S
C1137 H1129 0.930 . S
C1137 C1135 1.419 . S
C1137 C1138 1.362 . S
C1138 H1130 0.930 . S
C1138 C1137 1.362 . S
C1138 C1141 1.409 . S
C1139 H1131 0.930 1_545 S
C1139 C1140 1.355 . S
C1139 C1141 1.415 . S
C1140 C1139 1.355 . S
C1140 C1142 1.419 . S
C1141 C1136 1.425 . S
C1141 C1138 1.409 . S
C1141 C1139 1.415 . S
C1142 H1132 0.930 . S
C1142 C1140 1.419 . S
C1142 C1143 1.362 . S
C1143 H1133 0.930 . S
C1143 C1136 1.409 . S
C1143 C1142 1.362 . S
C388 C216 1.434 1_556 S
C383 N66 1.432 . S
C404 C231 1.678 . S
C399 N79 1.723 . S
C415 N92 1.838 . S
C420 C244 1.838 . S
C436 C258 1.341 . S
C431 N54 1.432 . S
C452 C270 1.622 . S
C447 N131 1.761 . S
C468 C284 1.054 . S
C463 N158 1.122 . S
C479 N145 1.711 . S
C484 C298 1.691 . S
C500 C313 1.582 . S
C495 N118 1.638 . S
C511 N148 1.912 . S
C516 C329 1.863 . S
C532 C342 1.502 . S
C527 N122 1.483 . S
C543 N132 1.488 . S
C548 C327 1.413 . S
C564 C340 1.522 . S
C559 N161 1.521 . S
C575 N96 2.069 . S
C580 C356 2.096 . S
C591 N53 1.664 . S
C596 C355 1.648 . S
C607 N67 1.346 . S
C612 C354 1.290 . S
C623 N83 1.366 . S
C628 C357 1.388 . S
C639 N44 1.621 . S
C644 C259 1.627 1_565 S
C655 N187 1.452 . S
C660 C257 1.465 . S
C676 C217 1.303 . S
C671 N197 1.309 . S
C692 C228 1.469 . S
C687 N106 1.502 . S
C703 N57 1.858 . S
C708 C273 1.873 . S
C724 C314 1.806 . S
C719 N144 1.805 . S
C740 C271 1.424 . S
C735 N119 1.377 . S
C756 C299 1.613 . S
C751 N157 1.653 . S
C772 C300 1.421 . S
C767 N183 1.399 . S
C783 N196 1.741 . S
C788 C315 1.738 . S
C799 N105 1.832 . S
C804 C272 1.853 . S
C820 C286 1.354 . S
C815 N171 1.443 . S
C831 N40 1.760 . S
C836 C242 1.641 . S
C852 C256 1.085 . S
C847 N2 1.065 . S
C868 C214 1.651 . S
C863 N15 1.700 . S
C884 C229 1.581 . S
C879 N27 1.648 . S
C895 N18 1.917 . S
C900 C343 1.843 . S
C911 N31 1.458 . S
C916 C328 1.485 . S
C927 N41 1.483 . S
C932 C341 1.390 . S
C943 N5 1.461 . S
C948 C326 1.551 1_554 S
C964 C370 2.093 . S
C959 N109 2.066 . S
C980 C369 1.665 . S
C975 N170 1.633 . S
C996 C368 1.285 . S
C991 N184 1.345 . S
C1007 N200 1.278 . S
C1012 C371 1.325 . S
C1023 N135 1.588 . S
C1028 C287 1.629 . S
C1044 C285 1.460 . S
C1039 N70 1.445 . S
C1060 C301 1.261 . S
C1055 N80 1.271 . S
C1076 C312 1.502 . S
C1071 N93 1.493 . S
C1087 N174 1.847 . S
C1092 C245 1.879 . S
C1108 C230 1.789 . S
C1103 N14 1.773 . S
C1119 N28 1.375 . S
C1124 C243 1.428 . S
C1140 C215 1.652 1_545 S
C1135 N1 1.632 . S
