# Generated by pormake.
# Topology zzz, (3,6)-cn, num edge types: 1
# Building blocks:
#     Node 0, Type 0, BuildingBlock: INOVEN_clean_linker_0, # of connection points: 3
#     Node 1, Type 0, BuildingBlock: INOVEN_clean_linker_0, # of connection points: 3
#     Node 2, Type 0, BuildingBlock: INOVEN_clean_linker_0, # of connection points: 3
#     Node 3, Type 0, BuildingBlock: INOVEN_clean_linker_0, # of connection points: 3
#     Node 4, Type 0, BuildingBlock: INOVEN_clean_linker_0, # of connection points: 3
#     Node 5, Type 0, BuildingBlock: INOVEN_clean_linker_0, # of connection points: 3
#     Node 6, Type 0, BuildingBlock: INOVEN_clean_linker_0, # of connection points: 3
#     Node 7, Type 0, BuildingBlock: INOVEN_clean_linker_0, # of connection points: 3
#     Node 8, Type 1, BuildingBlock: NUHQIS_clean_sbu_0, # of connection points: 6
#     Node 9, Type 1, BuildingBlock: NUHQIS_clean_sbu_0, # of connection points: 6
#     Node 10, Type 1, BuildingBlock: NUHQIS_clean_sbu_0, # of connection points: 6
#     Node 11, Type 1, BuildingBlock: NUHQIS_clean_sbu_0, # of connection points: 6
#     Edge 12, Type (0, 1), None
#     Edge 13, Type (0, 1), None
#     Edge 14, Type (0, 1), None
#     Edge 15, Type (0, 1), None
#     Edge 16, Type (0, 1), None
#     Edge 17, Type (0, 1), None
#     Edge 18, Type (0, 1), None
#     Edge 19, Type (0, 1), None
#     Edge 20, Type (0, 1), None
#     Edge 21, Type (0, 1), None
#     Edge 22, Type (0, 1), None
#     Edge 23, Type (0, 1), None
#     Edge 24, Type (0, 1), None
#     Edge 25, Type (0, 1), None
#     Edge 26, Type (0, 1), None
#     Edge 27, Type (0, 1), None
#     Edge 28, Type (0, 1), None
#     Edge 29, Type (0, 1), None
#     Edge 30, Type (0, 1), None
#     Edge 31, Type (0, 1), None
#     Edge 32, Type (0, 1), None
#     Edge 33, Type (0, 1), None
#     Edge 34, Type (0, 1), None
#     Edge 35, Type (0, 1), None
# Relax obj value: 0.626
# Max RMSD: 0.225
# Mean RMSD: 0.132
data_MOF--net-zzz--node1-NUHQIS_clean_sbu_0--node2-INOVEN_clean_linker_0--edge1-none
_symmetry_space_group_name_H-M    P1
_symmetry_Int_Tables_number       1
_symmetry_cell_setting            triclinic
loop_
_symmetry_equiv_pos_as_xyz
'x, y, z'
_cell_length_a     22.636709
_cell_length_b     22.789781
_cell_length_c     6.7986609
_cell_angle_alpha  89.892238
_cell_angle_beta   90.380126
_cell_angle_gamma 89.487214
loop_
_atom_site_label
_atom_site_type_symbol
_atom_site_fract_x
_atom_site_fract_y
_atom_site_fract_z
_atom_type_partial_charge
H0 H 0.83218 0.63189 0.56192 0.0
H1 H 0.87474 0.50828 0.58122 0.0
H2 H 0.76555 0.49729 0.17686 0.0
N3 N 0.73597 0.59706 0.30078 0.0
N4 N 0.68685 0.57099 0.29739 0.0
C5 C 0.83097 0.58637 0.51746 0.0
C6 C 0.87592 0.5402 0.60268 0.0
C7 C 0.7866 0.56507 0.37993 0.0
C8 C 0.79267 0.50821 0.30326 0.0
C9 C 0.82748 0.46371 0.38691 0.0
C10 C 0.86643 0.47546 0.54034 0.0
H11 H 0.96915 0.85392 0.41703 0.0
H12 H 0.06181 0.84445 0.73075 0.0
H13 H 0.11293 0.74106 0.35955 0.0
N14 N 1.00956 0.73881 0.25451 0.0
N15 N 1.01883 0.68388 0.27332 0.0
C16 C 1.00682 0.83262 0.48615 0.0
C17 C 1.0382 0.85952 0.67064 0.0
C18 C 1.03109 0.77724 0.4123 0.0
C19 C 0.08898 0.76426 0.46884 0.0
C20 C 0.12001 0.7881 0.62859 0.0
C21 C 0.08705 0.81936 0.76454 0.0
H22 H 0.76571 0.95985 0.58454 0.0
H23 H 0.71058 0.07762 0.53264 0.0
H24 H 0.83192 0.09017 0.17394 0.0
N25 N 0.86298 0.99337 0.33318 0.0
N26 N 0.90785 1.0249 0.30625 0.0
C27 C 0.76343 1.00313 0.51926 0.0
C28 C 0.71234 0.04715 0.57063 0.0
C29 C 0.80858 1.02355 0.38408 0.0
C30 C 0.80098 0.0778 0.28727 0.0
C31 C 0.75971 0.11994 0.33832 0.0
C32 C 0.71626 0.10895 0.47685 0.0
H33 H 0.61752 0.73248 0.37501 0.0
H34 H 0.53816 0.74883 0.72642 0.0
H35 H 0.48015 0.85282 0.34874 0.0
N36 N 0.57932 0.84812 0.21137 0.0
N37 N 0.57318 0.90345 0.22633 0.0
C38 C 0.58381 0.75658 0.45379 0.0
C39 C 0.55861 0.73328 0.64909 0.0
C40 C 0.56056 0.81258 0.37986 0.0
C41 C 0.50598 0.83007 0.45456 0.0
C42 C 0.47713 0.80332 0.61034 0.0
C43 C 0.51574 0.77846 0.74742 0.0
H44 H 0.25386 0.43508 0.27431 0.0
H45 H 0.25653 0.60138 0.99477 0.0
H46 H 0.35109 0.57448 0.5341 0.0
N47 N 0.36919 0.45798 0.42939 0.0
N48 N 0.4166 0.4656 0.52921 0.0
C49 C 0.2679 0.48033 0.27334 0.0
C50 C 0.23722 0.52267 0.14927 0.0
C51 C 0.31998 0.49795 0.38649 0.0
C52 C 0.32644 0.55801 0.41201 0.0
C53 C 0.30062 0.59744 0.27728 0.0
C54 C 0.26882 0.57377 0.11794 0.0
H55 H 0.13457 0.27254 0.12028 0.0
H56 H 0.9991 0.16763 0.37879 0.0
H57 H 1.04043 0.32895 0.64527 0.0
N58 N 0.12033 0.36882 0.36466 0.0
N59 N 0.11402 0.41575 0.4657 0.0
C60 C 0.10287 0.26521 0.23602 0.0
C61 C 0.06981 0.21098 0.23725 0.0
C62 C 0.09278 0.31111 0.38285 0.0
C63 C 0.05091 0.29941 0.52855 0.0
C64 C 1.01506 0.2508 0.51455 0.0
C65 C 1.02697 0.206 0.38014 0.0
H66 H 0.34576 0.13583 0.32989 0.0
H67 H 0.32739 0.99591 0.90734 0.0
H68 H 0.25567 0.98593 0.48588 0.0
N69 N 0.23751 0.09375 0.5351 0.0
N70 N 0.18278 0.08165 0.52388 0.0
C71 C 0.32717 0.09461 0.28251 0.0
C72 C 0.35271 0.06213 0.11672 0.0
C73 C 0.27684 0.06928 0.38501 0.0
C74 C 0.27196 1.00945 0.36137 0.0
C75 C 0.29165 0.98004 0.19309 0.0
C76 C 0.31816 1.0152 0.04941 0.0
H77 H 0.45058 0.3211 0.09728 0.0
H78 H 0.60547 0.40983 0.28683 0.0
H79 H 0.55615 0.25734 0.59381 0.0
N80 N 0.46825 0.2218 0.33005 0.0
N81 N 0.47441 0.17471 0.43116 0.0
C82 C 0.48698 0.32527 0.20008 0.0
C83 C 0.525 0.37604 0.1866 0.0
C84 C 0.49862 0.27819 0.34306 0.0
C85 C 0.54535 0.2867 0.47617 0.0
C86 C 0.58518 0.3313 0.44674 0.0
C87 C 0.57379 0.37548 0.30797 0.0
Tb88 Tb 0.08992 1.02356 0.07508 0.0
Eu89 Eu 0.99702 0.0607 0.81405 0.0
C90 C 0.13836 0.08008 0.67958 0.0
C91 C 0.07198 0.15811 0.09682 0.0
C92 C 0.16589 0.91949 0.42822 0.0
C93 C 0.19372 0.819 0.38845 0.0
C94 C 0.17625 0.87187 0.30514 0.0
C95 C 0.18084 0.91464 0.62941 0.0
C96 C 0.19691 0.85938 0.70469 0.0
C97 C 0.18141 0.81061 0.58953 0.0
C98 C 0.1487 0.97551 0.34451 0.0
O99 O 1.00773 0.04332 0.23672 0.0
O100 O 0.95925 0.99269 1.02554 0.0
O101 O 1.00202 0.97182 0.65973 0.0
O102 O 0.06431 0.94287 0.90587 0.0
C103 C 0.96157 1.01037 0.20601 0.0
O104 O 0.90431 0.07966 0.87295 0.0
O105 O 0.94159 0.09926 0.58793 0.0
O106 O 0.08111 0.08313 0.62954 0.0
O107 O 0.15243 0.05801 0.85319 0.0
O108 O 0.11081 0.11637 0.12969 0.0
O109 O 1.02275 0.14263 1.00364 0.0
C110 C 1.03118 0.92958 0.74924 0.0
O111 O 0.1682 0.98689 0.16906 0.0
O112 O 0.09442 0.99257 0.36668 0.0
C113 C 0.87915 0.16929 0.7293 0.0
C114 C 0.95745 0.25035 0.61022 0.0
C115 C 0.90939 0.23762 0.48764 0.0
C116 C 0.86973 0.19653 0.54903 0.0
C117 C 0.90933 0.20139 0.87514 0.0
C118 C 0.95267 0.24043 0.81235 0.0
C119 C 0.8973 0.10794 0.70837 0.0
H120 H 0.19767 0.78356 0.28839 0.0
H121 H 0.16997 0.8754 0.14836 0.0
H122 H 0.18022 0.95245 0.72518 0.0
H123 H 0.20486 0.85427 0.86005 0.0
H124 H 0.91157 0.24615 0.33075 0.0
H125 H 0.85166 0.17212 0.43153 0.0
H126 H 0.91188 0.18497 1.02457 0.0
H127 H 0.9872 0.25393 0.913 0.0
Tb128 Tb 0.55324 0.09023 0.98467 0.0
Eu129 Eu 0.51066 1.01443 0.69614 0.0
C130 C 0.51034 0.16581 0.60428 0.0
C131 C 0.41527 0.06386 1.02299 0.0
C132 C 0.64763 0.20592 0.14517 0.0
C133 C 0.74485 0.17729 1.04069 0.0
C134 C 0.68661 0.19181 0.99091 0.0
C135 C 0.67084 0.22108 0.32763 0.0
C136 C 0.73155 0.22052 0.35508 0.0
C137 C 0.75971 0.17816 0.2411 0.0
C138 C 0.58914 0.18191 0.14448 0.0
O139 O 0.5737 1.00496 0.1377 0.0
O140 O 0.54076 0.94036 0.90788 0.0
O141 O 0.60732 1.01011 0.60399 0.0
O142 O 0.64097 0.06386 0.85874 0.0
C143 C 0.56784 0.94957 0.0773 0.0
O144 O 0.50384 0.9464 0.48922 0.0
O145 O 0.45479 1.02568 0.4344 0.0
O146 O 0.52127 0.11464 0.69169 0.0
O147 O 0.51971 0.11265 0.68229 0.0
O148 O 0.46043 0.09235 0.09897 0.0
O149 O 0.42644 1.02707 0.87653 0.0
C150 C 0.65251 1.0307 0.70279 0.0
O151 O 0.56327 0.18165 0.97439 0.0
O152 O 0.58483 0.13178 0.23677 0.0
C153 C 0.41631 0.93713 0.32057 0.0
C154 C 0.30605 0.91496 0.20512 0.0
C155 C 0.35061 0.89846 0.07293 0.0
C156 C 0.40736 0.91781 0.12511 0.0
C157 C 0.3762 0.91925 0.46462 0.0
C158 C 0.32185 0.89834 0.39873 0.0
C159 C 0.46626 0.97255 0.37444 0.0
H160 H 0.77055 0.15166 0.93766 0.0
H161 H 0.67026 0.18052 0.84588 0.0
H162 H 0.64334 0.22187 0.45643 0.0
H163 H 0.74713 0.22809 0.50408 0.0
H164 H 0.34016 0.88967 0.92036 0.0
H165 H 0.44082 0.92146 1.01442 0.0
H166 H 0.38511 0.92479 0.62008 0.0
H167 H 0.28947 0.88829 0.50697 0.0
Tb168 Tb 0.50707 0.56641 1.01482 0.0
Eu169 Eu 0.58844 0.53077 0.77112 0.0
C170 C 0.43028 0.51164 0.66766 0.0
C171 C 0.5226 0.43077 0.0524 0.0
C172 C 0.42025 0.66737 0.31236 0.0
C173 C 0.4034 0.77083 0.35282 0.0
C174 C 0.40386 0.7217 0.23248 0.0
C175 C 0.42622 0.66245 0.51703 0.0
C176 C 0.42134 0.71143 0.63543 0.0
C177 C 0.42537 0.76657 0.54739 0.0
C178 C 0.42446 0.61477 0.19022 0.0
O179 O 0.5842 0.56354 0.2193 0.0
O180 O 0.6454 0.58503 0.9808 0.0
O181 O 0.57612 0.618 0.60949 0.0
O182 O 0.54681 0.65022 0.90463 0.0
C183 C 0.63694 0.58183 0.16881 0.0
O184 O 0.68291 0.52046 0.7354 0.0
O185 O 0.621 0.48491 0.51799 0.0
O186 O 0.48544 0.52393 0.72672 0.0
O187 O 0.48513 0.52374 0.72571 0.0
O188 O 0.48634 0.47412 0.0932 0.0
O189 O 0.5704 0.44533 0.95135 0.0
C190 C 0.56561 0.66269 0.72446 0.0
O191 O 0.43253 0.6215 1.00173 0.0
O192 O 0.45594 0.57203 0.26516 0.0
C193 C 0.70229 0.42811 0.61442 0.0
C194 C 0.64377 0.32941 0.54063 0.0
C195 C 0.68961 0.34439 0.41299 0.0
C196 C 0.71249 0.3989 0.43903 0.0
C197 C 0.68284 0.39559 0.77761 0.0
C198 C 0.64858 0.34637 0.73758 0.0
C199 C 0.67548 0.4851 0.5876 0.0
H200 H 0.39661 0.81209 0.28218 0.0
H201 H 0.39216 0.72655 0.0792 0.0
H202 H 0.4366 0.62146 0.5866 0.0
H203 H 0.4309 0.70615 0.78926 0.0
H204 H 0.68827 0.33013 0.26082 0.0
H205 H 0.71891 0.42268 0.30413 0.0
H206 H 0.6793 0.416 0.92081 0.0
H207 H 0.6175 0.33111 0.8464 0.0
Tb208 Tb 1.03586 0.49725 1.02142 0.0
Eu209 Eu 0.07701 0.57555 0.73791 0.0
C210 C 0.07975 0.42383 0.64127 0.0
C211 C 0.17456 0.52224 0.05469 0.0
C212 C 0.94241 0.37904 0.18798 0.0
C213 C 0.8429 0.4039 0.09348 0.0
C214 C 0.90095 0.39188 1.03822 0.0
C215 C 0.92225 0.36202 0.37263 0.0
C216 C 0.86215 0.36346 0.41023 0.0
C217 C 0.8311 0.40444 0.29597 0.0
C218 C 1.00042 0.40454 0.17939 0.0
O219 O 1.01765 0.58179 0.18336 0.0
O220 O 0.04831 0.64753 0.95503 0.0
O221 O 0.98088 0.57937 0.63702 0.0
O222 O 0.94857 0.52359 0.88893 0.0
C223 C 1.02276 0.63758 0.1249 0.0
O224 O 0.08955 0.65088 0.56463 0.0
O225 O 0.12621 0.56843 0.46324 0.0
O226 O 0.06892 0.47482 0.7292 0.0
O227 O 0.07031 0.47668 0.72049 0.0
O228 O 0.12988 0.49276 0.1282 0.0
O229 O 0.16235 0.56143 0.91584 0.0
C230 C 0.93642 0.55694 0.73281 0.0
O231 O 1.02361 0.40616 1.00604 0.0
O232 O 1.0054 0.45442 0.2723 0.0
C233 C 0.17843 0.65428 0.41171 0.0
C234 C 0.29244 0.66109 0.32924 0.0
C235 C 0.25395 0.69055 0.19958 0.0
C236 C 0.1945 0.67644 0.22677 0.0
C237 C 0.21804 0.65881 0.57083 0.0
C238 C 0.27711 0.66854 0.52784 0.0
C239 C 0.12332 0.62517 0.43752 0.0
H240 H 0.8143 0.42659 0.98959 0.0
H241 H 0.91486 0.40342 0.8911 0.0
H242 H 0.95198 0.35882 0.49624 0.0
H243 H 0.84881 0.35598 0.56116 0.0
H244 H 0.26856 0.70287 0.05393 0.0
H245 H 0.16318 0.67987 0.10607 0.0
H246 H 0.20485 0.64935 0.72003 0.0
H247 H 0.3091 0.66281 0.64512 0.0
loop_
_geom_bond_atom_site_label_1
_geom_bond_atom_site_label_2
_geom_bond_distance
_geom_bond_site_symmetry_2
_ccdc_geom_bond_type
H0 C5 0.929 . S
H1 C10 0.931 . S
H2 C8 0.930 . S
N3 N4 1.234 . S
N3 C7 1.453 . S
N4 N3 1.234 . S
C5 H0 0.929 . S
C5 C6 1.373 . S
C5 C7 1.368 . S
C6 C5 1.373 . S
C6 C10 1.397 . S
C7 N3 1.453 . S
C7 C5 1.368 . S
C7 C8 1.373 . S
C8 H2 0.930 . S
C8 C7 1.373 . S
C8 C9 1.371 . S
C9 C8 1.371 . S
C9 C10 1.383 . S
C10 H1 0.931 . S
C10 C6 1.397 . S
C10 C9 1.383 . S
H11 C16 0.929 . S
H12 C21 0.931 . S
H13 C19 0.930 . S
N14 N15 1.234 1_455 S
N14 C18 1.453 . S
N15 N14 1.234 1_655 S
C16 H11 0.929 . S
C16 C17 1.373 . S
C16 C18 1.368 . S
C17 C16 1.373 . S
C17 C21 1.397 1_455 S
C18 N14 1.453 . S
C18 C16 1.368 . S
C18 C19 1.373 . S
C19 H13 0.930 . S
C19 C18 1.373 . S
C19 C20 1.371 . S
C20 C19 1.371 . S
C20 C21 1.383 1_455 S
C21 H12 0.931 . S
C21 C17 1.397 1_655 S
C21 C20 1.383 1_655 S
H22 C27 0.929 . S
H23 C32 0.931 . S
H24 C30 0.930 . S
N25 N26 1.234 1_545 S
N25 C29 1.453 . S
N26 N25 1.234 1_565 S
C27 H22 0.929 . S
C27 C28 1.373 . S
C27 C29 1.368 . S
C28 C27 1.373 . S
C28 C32 1.397 1_545 S
C29 N25 1.453 . S
C29 C27 1.368 . S
C29 C30 1.373 . S
C30 H24 0.930 . S
C30 C29 1.373 . S
C30 C31 1.371 . S
C31 C30 1.371 . S
C31 C32 1.383 1_545 S
C32 H23 0.931 . S
C32 C28 1.397 1_565 S
C32 C31 1.383 1_565 S
H33 C38 0.929 . S
H34 C43 0.931 . S
H35 C41 0.930 . S
N36 N37 1.234 . S
N36 C40 1.453 . S
N37 N36 1.234 . S
C38 H33 0.929 . S
C38 C39 1.373 . S
C38 C40 1.368 . S
C39 C38 1.373 . S
C39 C43 1.397 . S
C40 N36 1.453 . S
C40 C38 1.368 . S
C40 C41 1.373 . S
C41 H35 0.930 . S
C41 C40 1.373 . S
C41 C42 1.371 . S
C42 C41 1.371 . S
C42 C43 1.383 . S
C43 H34 0.931 . S
C43 C39 1.397 . S
C43 C42 1.383 . S
H44 C49 0.929 . S
H45 C54 0.931 . S
H46 C52 0.930 . S
N47 N48 1.234 . S
N47 C51 1.453 . S
N48 N47 1.234 . S
C49 H44 0.929 . S
C49 C50 1.373 . S
C49 C51 1.368 1_556 S
C50 C49 1.373 . S
C50 C54 1.397 . S
C51 N47 1.453 . S
C51 C49 1.368 1_554 S
C51 C52 1.373 . S
C52 H46 0.930 . S
C52 C51 1.373 . S
C52 C53 1.371 . S
C53 C52 1.371 . S
C53 C54 1.383 1_554 S
C54 H45 0.931 . S
C54 C50 1.397 . S
C54 C53 1.383 1_556 S
H55 C60 0.929 . S
H56 C65 0.931 1_556 S
H57 C63 0.930 . S
N58 N59 1.234 1_455 S
N58 C62 1.453 . S
N59 N58 1.234 1_655 S
C60 H55 0.929 . S
C60 C61 1.373 . S
C60 C62 1.368 1_556 S
C61 C60 1.373 . S
C61 C65 1.396 1_456 S
C62 N58 1.453 . S
C62 C60 1.368 1_554 S
C62 C63 1.373 . S
C63 H57 0.930 . S
C63 C62 1.373 . S
C63 C64 1.371 . S
C64 C63 1.371 . S
C64 C65 1.385 1_455 S
C65 H56 0.931 1_554 S
C65 C61 1.396 1_654 S
C65 C64 1.385 1_655 S
H66 C71 0.929 . S
H67 C76 0.931 . S
H68 C74 0.930 . S
N69 N70 1.234 1_545 S
N69 C73 1.453 . S
N70 N69 1.234 1_565 S
C71 H66 0.929 . S
C71 C72 1.373 . S
C71 C73 1.368 1_556 S
C72 C71 1.373 . S
C72 C76 1.397 1_545 S
C73 N69 1.453 . S
C73 C71 1.368 1_554 S
C73 C74 1.373 . S
C74 H68 0.930 . S
C74 C73 1.373 . S
C74 C75 1.371 . S
C75 C74 1.371 . S
C75 C76 1.383 1_544 S
C76 H67 0.931 . S
C76 C72 1.397 1_565 S
C76 C75 1.383 1_566 S
H77 C82 0.929 . S
H78 C87 0.931 . S
H79 C85 0.930 . S
N80 N81 1.234 . S
N80 C84 1.453 . S
N81 N80 1.234 . S
C82 H77 0.929 . S
C82 C83 1.373 . S
C82 C84 1.368 1_556 S
C83 C82 1.373 . S
C83 C87 1.397 . S
C84 N80 1.453 . S
C84 C82 1.368 1_554 S
C84 C85 1.373 . S
C85 H79 0.930 . S
C85 C84 1.373 . S
C85 C86 1.371 . S
C86 C85 1.371 . S
C86 C87 1.383 1_554 S
C87 H78 0.931 . S
C87 C83 1.397 . S
C87 C86 1.383 1_556 S
Tb88 C98 2.825 . S
Tb88 O99 2.347 1_455 S
Tb88 O102 2.366 1_554 S
Tb88 O107 2.418 1_554 S
Tb88 O108 2.383 1_564 S
Tb88 O111 2.479 . S
Tb88 O112 2.471 . S
Eu89 O100 2.418 . S
Eu89 O101 2.384 1_545 S
Eu89 O104 2.479 . S
Eu89 O105 2.471 . S
Eu89 O106 2.347 1_655 S
Eu89 O109 2.366 . S
Eu89 C119 2.825 . S
C90 O106 1.259 1_565 S
C90 O107 1.265 . S
C91 O108 1.256 . S
C91 O109 1.265 1_455 S
C92 C94 1.380 . S
C92 C95 1.374 . S
C92 C98 1.507 . S
C93 C94 1.384 . S
C93 C97 1.387 . S
C93 H120 0.930 . S
C94 C92 1.380 . S
C94 C93 1.384 . S
C94 H121 0.931 . S
C95 C92 1.374 . S
C95 C96 1.390 . S
C95 H122 0.930 . S
C96 C95 1.390 . S
C96 C97 1.391 . S
C96 H123 0.930 . S
C97 C93 1.387 . S
C97 C96 1.391 . S
C98 Tb88 2.825 . S
C98 C92 1.507 . S
C98 O111 1.238 . S
C98 O112 1.247 . S
O99 Tb88 2.347 1_655 S
O99 C103 1.259 1_565 S
O100 Eu89 2.418 . S
O100 C103 1.265 1_556 S
O101 Eu89 2.384 1_565 S
O101 C110 1.255 . S
O102 Tb88 2.366 1_556 S
O102 C110 1.265 1_455 S
C103 O99 1.259 1_545 S
C103 O100 1.265 1_554 S
O104 Eu89 2.479 . S
O104 C119 1.238 . S
O105 Eu89 2.471 . S
O105 C119 1.247 . S
O106 Eu89 2.347 1_455 S
O106 C90 1.259 1_545 S
O107 Tb88 2.418 1_556 S
O107 C90 1.265 . S
O108 Tb88 2.383 1_546 S
O108 C91 1.256 . S
O109 Eu89 2.366 . S
O109 C91 1.265 1_655 S
C110 O101 1.255 . S
C110 O102 1.265 1_655 S
O111 Tb88 2.479 . S
O111 C98 1.238 . S
O112 Tb88 2.471 . S
O112 C98 1.247 . S
C113 C116 1.380 . S
C113 C117 1.374 . S
C113 C119 1.507 . S
C114 C115 1.387 . S
C114 C118 1.391 . S
C115 C114 1.387 . S
C115 C116 1.384 . S
C115 H124 0.930 . S
C116 C113 1.380 . S
C116 C115 1.384 . S
C116 H125 0.931 . S
C117 C113 1.374 . S
C117 C118 1.390 . S
C117 H126 0.930 . S
C118 C114 1.391 . S
C118 C117 1.390 . S
C118 H127 0.930 . S
C119 Eu89 2.825 . S
C119 O104 1.238 . S
C119 O105 1.247 . S
C119 C113 1.507 . S
H120 C93 0.930 . S
H121 C94 0.931 . S
H122 C95 0.930 . S
H123 C96 0.930 . S
H124 C115 0.930 . S
H125 C116 0.931 . S
H126 C117 0.930 . S
H127 C118 0.930 . S
Tb128 C138 2.825 . S
Tb128 O139 2.347 1_545 S
Tb128 O142 2.366 1_554 S
Tb128 O147 2.418 1_554 S
Tb128 O148 2.384 1_554 S
Tb128 O151 2.479 . S
Tb128 O152 2.471 . S
Eu129 O140 2.418 . S
Eu129 O141 2.384 . S
Eu129 O144 2.479 . S
Eu129 O145 2.471 . S
Eu129 O146 2.347 1_565 S
Eu129 O149 2.366 . S
Eu129 C159 2.825 . S
C130 O146 1.259 . S
C130 O147 1.265 . S
C131 O148 1.255 . S
C131 O149 1.265 1_545 S
C132 C134 1.380 . S
C132 C135 1.374 . S
C132 C138 1.507 . S
C133 C134 1.384 . S
C133 C137 1.387 . S
C133 H160 0.930 . S
C134 C132 1.380 . S
C134 C133 1.384 . S
C134 H161 0.931 . S
C135 C132 1.374 . S
C135 C136 1.390 . S
C135 H162 0.930 1_545 S
C136 C135 1.390 . S
C136 C137 1.391 . S
C136 H163 0.930 . S
C137 C133 1.387 . S
C137 C136 1.391 . S
C138 Tb128 2.825 . S
C138 C132 1.507 . S
C138 O151 1.238 . S
C138 O152 1.247 . S
O139 Tb128 2.347 1_565 S
O139 C143 1.259 . S
O140 Eu129 2.418 . S
O140 C143 1.265 1_556 S
O141 Eu129 2.384 . S
O141 C150 1.255 . S
O142 Tb128 2.366 1_556 S
O142 C150 1.265 1_545 S
C143 O139 1.259 . S
C143 O140 1.265 1_554 S
O144 Eu129 2.479 . S
O144 C159 1.238 . S
O145 Eu129 2.471 . S
O145 C159 1.247 . S
O146 Eu129 2.347 1_545 S
O146 C130 1.259 . S
O147 Tb128 2.418 1_556 S
O147 C130 1.265 . S
O148 Tb128 2.384 1_556 S
O148 C131 1.255 . S
O149 Eu129 2.366 . S
O149 C131 1.265 1_565 S
C150 O141 1.255 . S
C150 O142 1.265 1_565 S
O151 Tb128 2.479 . S
O151 C138 1.238 . S
O152 Tb128 2.471 . S
O152 C138 1.247 . S
C153 C156 1.380 . S
C153 C157 1.374 . S
C153 C159 1.507 . S
C154 C155 1.387 . S
C154 C158 1.391 . S
C155 C154 1.387 . S
C155 C156 1.384 . S
C155 H164 0.930 . S
C156 C153 1.380 . S
C156 C155 1.384 . S
C156 H165 0.931 . S
C157 C153 1.374 . S
C157 C158 1.390 . S
C157 H166 0.930 1_565 S
C158 C154 1.391 . S
C158 C157 1.390 . S
C158 H167 0.930 . S
C159 Eu129 2.825 . S
C159 O144 1.238 . S
C159 O145 1.247 . S
C159 C153 1.507 . S
H160 C133 0.930 . S
H161 C134 0.931 . S
H162 C135 0.930 1_565 S
H163 C136 0.930 . S
H164 C155 0.930 . S
H165 C156 0.931 . S
H166 C157 0.930 1_545 S
H167 C158 0.930 . S
Tb168 C178 2.825 . S
Tb168 O179 2.347 . S
Tb168 O182 2.366 1_554 S
Tb168 O187 2.418 1_554 S
Tb168 O188 2.384 1_554 S
Tb168 O191 2.479 . S
Tb168 O192 2.471 . S
Eu169 O180 2.418 . S
Eu169 O181 2.384 . S
Eu169 O184 2.479 . S
Eu169 O185 2.471 . S
Eu169 O186 2.347 . S
Eu169 O189 2.366 . S
Eu169 C199 2.825 . S
C170 O186 1.259 . S
C170 O187 1.265 . S
C171 O188 1.255 . S
C171 O189 1.265 . S
C172 C174 1.380 . S
C172 C175 1.374 . S
C172 C178 1.507 . S
C173 C174 1.384 . S
C173 C177 1.387 . S
C173 H200 0.930 . S
C174 C172 1.380 . S
C174 C173 1.384 . S
C174 H201 0.931 . S
C175 C172 1.374 . S
C175 C176 1.390 . S
C175 H202 0.930 . S
C176 C175 1.390 . S
C176 C177 1.391 . S
C176 H203 0.930 . S
C177 C173 1.387 . S
C177 C176 1.391 . S
C178 Tb168 2.825 . S
C178 C172 1.507 . S
C178 O191 1.238 . S
C178 O192 1.247 . S
O179 Tb168 2.347 . S
O179 C183 1.259 . S
O180 Eu169 2.418 . S
O180 C183 1.265 1_556 S
O181 Eu169 2.384 . S
O181 C190 1.255 . S
O182 Tb168 2.366 1_556 S
O182 C190 1.265 . S
C183 O179 1.259 . S
C183 O180 1.265 1_554 S
O184 Eu169 2.479 . S
O184 C199 1.238 . S
O185 Eu169 2.471 . S
O185 C199 1.247 . S
O186 Eu169 2.347 . S
O186 C170 1.259 . S
O187 Tb168 2.418 1_556 S
O187 C170 1.265 . S
O188 Tb168 2.384 1_556 S
O188 C171 1.255 . S
O189 Eu169 2.366 . S
O189 C171 1.265 . S
C190 O181 1.255 . S
C190 O182 1.265 . S
O191 Tb168 2.479 . S
O191 C178 1.238 . S
O192 Tb168 2.471 . S
O192 C178 1.247 . S
C193 C196 1.380 . S
C193 C197 1.374 . S
C193 C199 1.507 . S
C194 C195 1.387 . S
C194 C198 1.391 . S
C195 C194 1.387 . S
C195 C196 1.384 . S
C195 H204 0.930 . S
C196 C193 1.380 . S
C196 C195 1.384 . S
C196 H205 0.931 . S
C197 C193 1.374 . S
C197 C198 1.390 . S
C197 H206 0.930 . S
C198 C194 1.391 . S
C198 C197 1.390 . S
C198 H207 0.930 . S
C199 Eu169 2.825 . S
C199 O184 1.238 . S
C199 O185 1.247 . S
C199 C193 1.507 . S
H200 C173 0.930 . S
H201 C174 0.931 . S
H202 C175 0.930 . S
H203 C176 0.930 . S
H204 C195 0.930 . S
H205 C196 0.931 . S
H206 C197 0.930 . S
H207 C198 0.930 . S
Tb208 C218 2.825 . S
Tb208 O219 2.347 . S
Tb208 O222 2.366 1_554 S
Tb208 O227 2.418 1_554 S
Tb208 O228 2.384 1_654 S
Tb208 O231 2.479 . S
Tb208 O232 2.471 . S
Eu209 O220 2.418 . S
Eu209 O221 2.384 1_455 S
Eu209 O224 2.479 . S
Eu209 O225 2.471 . S
Eu209 O226 2.347 . S
Eu209 O229 2.366 . S
Eu209 C239 2.825 . S
C210 O226 1.259 1_655 S
C210 O227 1.265 . S
C211 O228 1.255 . S
C211 O229 1.265 . S
C212 C214 1.380 . S
C212 C215 1.374 . S
C212 C218 1.507 . S
C213 C214 1.384 . S
C213 C217 1.387 . S
C213 H240 0.930 . S
C214 C212 1.380 . S
C214 C213 1.384 . S
C214 H241 0.931 . S
C215 C212 1.374 . S
C215 C216 1.390 . S
C215 H242 0.930 . S
C216 C215 1.390 . S
C216 C217 1.391 . S
C216 H243 0.930 . S
C217 C213 1.387 . S
C217 C216 1.391 . S
C218 Tb208 2.825 . S
C218 C212 1.507 . S
C218 O231 1.238 . S
C218 O232 1.247 . S
O219 Tb208 2.347 . S
O219 C223 1.259 1_655 S
O220 Eu209 2.418 . S
O220 C223 1.265 1_556 S
O221 Eu209 2.384 1_655 S
O221 C230 1.255 . S
O222 Tb208 2.366 1_556 S
O222 C230 1.265 . S
C223 O219 1.259 1_455 S
C223 O220 1.265 1_554 S
O224 Eu209 2.479 . S
O224 C239 1.238 . S
O225 Eu209 2.471 . S
O225 C239 1.247 . S
O226 Eu209 2.347 . S
O226 C210 1.259 1_455 S
O227 Tb208 2.418 1_556 S
O227 C210 1.265 . S
O228 Tb208 2.384 1_456 S
O228 C211 1.255 . S
O229 Eu209 2.366 . S
O229 C211 1.265 . S
C230 O221 1.255 . S
C230 O222 1.265 . S
O231 Tb208 2.479 . S
O231 C218 1.238 . S
O232 Tb208 2.471 . S
O232 C218 1.247 . S
C233 C236 1.380 . S
C233 C237 1.374 . S
C233 C239 1.507 . S
C234 C235 1.387 . S
C234 C238 1.391 . S
C235 C234 1.387 . S
C235 C236 1.384 . S
C235 H244 0.930 . S
C236 C233 1.380 . S
C236 C235 1.384 . S
C236 H245 0.931 . S
C237 C233 1.374 . S
C237 C238 1.390 . S
C237 H246 0.930 . S
C238 C234 1.391 . S
C238 C237 1.390 . S
C238 H247 0.930 . S
C239 Eu209 2.825 . S
C239 O224 1.238 . S
C239 O225 1.247 . S
C239 C233 1.507 . S
H240 C213 0.930 . S
H241 C214 0.931 . S
H242 C215 0.930 . S
H243 C216 0.930 . S
H244 C235 0.930 . S
H245 C236 0.931 . S
H246 C237 0.930 . S
H247 C238 0.930 . S
N70 C90 3.526 . S
C130 N81 3.557 . S
C170 N48 3.586 . S
C210 N59 3.544 . S
C103 N26 3.528 1_545 S
N37 C143 3.550 . S
N4 C183 3.578 . S
N15 C223 3.546 1_655 S
C114 C64 2.399 1_655 S
C154 C75 2.234 1_565 S
C194 C86 2.095 . S
C53 C234 2.231 . S
C20 C97 2.342 . S
C137 C31 2.179 . S
C177 C42 2.034 . S
C9 C217 2.170 . S
C61 C91 3.957 . S
C72 C131 3.878 . S
C171 C83 3.877 . S
C211 C50 3.952 . S
C17 C110 3.976 1_455 S
C150 C28 3.895 1_565 S
C190 C39 3.909 . S
C6 C230 3.986 . S
