# Generated by pormake.
# Topology ant, (3,6)-cn, num edge types: 1
# Building blocks:
#     Node 0, Type 0, BuildingBlock: BETDIP_clean_linker_0, # of connection points: 3
#     Node 1, Type 0, BuildingBlock: BETDIP_clean_linker_0, # of connection points: 3
#     Node 2, Type 0, BuildingBlock: BETDIP_clean_linker_0, # of connection points: 3
#     Node 3, Type 0, BuildingBlock: BETDIP_clean_linker_0, # of connection points: 3
#     Node 4, Type 0, BuildingBlock: BETDIP_clean_linker_0, # of connection points: 3
#     Node 5, Type 0, BuildingBlock: BETDIP_clean_linker_0, # of connection points: 3
#     Node 6, Type 0, BuildingBlock: BETDIP_clean_linker_0, # of connection points: 3
#     Node 7, Type 0, BuildingBlock: BETDIP_clean_linker_0, # of connection points: 3
#     Node 8, Type 1, BuildingBlock: MIDCAF_clean_sbu_0, # of connection points: 6
#     Node 9, Type 1, BuildingBlock: MIDCAF_clean_sbu_0, # of connection points: 6
#     Node 10, Type 1, BuildingBlock: MIDCAF_clean_sbu_0, # of connection points: 6
#     Node 11, Type 1, BuildingBlock: MIDCAF_clean_sbu_0, # of connection points: 6
#     Edge 12, Type (0, 1), BuildingBlock: KIFKEQ_clean_linker_1, # of connection points: 2
#     Edge 13, Type (0, 1), BuildingBlock: KIFKEQ_clean_linker_1, # of connection points: 2
#     Edge 14, Type (0, 1), BuildingBlock: KIFKEQ_clean_linker_1, # of connection points: 2
#     Edge 15, Type (0, 1), BuildingBlock: KIFKEQ_clean_linker_1, # of connection points: 2
#     Edge 16, Type (0, 1), BuildingBlock: KIFKEQ_clean_linker_1, # of connection points: 2
#     Edge 17, Type (0, 1), BuildingBlock: KIFKEQ_clean_linker_1, # of connection points: 2
#     Edge 18, Type (0, 1), BuildingBlock: KIFKEQ_clean_linker_1, # of connection points: 2
#     Edge 19, Type (0, 1), BuildingBlock: KIFKEQ_clean_linker_1, # of connection points: 2
#     Edge 20, Type (0, 1), BuildingBlock: KIFKEQ_clean_linker_1, # of connection points: 2
#     Edge 21, Type (0, 1), BuildingBlock: KIFKEQ_clean_linker_1, # of connection points: 2
#     Edge 22, Type (0, 1), BuildingBlock: KIFKEQ_clean_linker_1, # of connection points: 2
#     Edge 23, Type (0, 1), BuildingBlock: KIFKEQ_clean_linker_1, # of connection points: 2
#     Edge 24, Type (0, 1), BuildingBlock: KIFKEQ_clean_linker_1, # of connection points: 2
#     Edge 25, Type (0, 1), BuildingBlock: KIFKEQ_clean_linker_1, # of connection points: 2
#     Edge 26, Type (0, 1), BuildingBlock: KIFKEQ_clean_linker_1, # of connection points: 2
#     Edge 27, Type (0, 1), BuildingBlock: KIFKEQ_clean_linker_1, # of connection points: 2
#     Edge 28, Type (0, 1), BuildingBlock: KIFKEQ_clean_linker_1, # of connection points: 2
#     Edge 29, Type (0, 1), BuildingBlock: KIFKEQ_clean_linker_1, # of connection points: 2
#     Edge 30, Type (0, 1), BuildingBlock: KIFKEQ_clean_linker_1, # of connection points: 2
#     Edge 31, Type (0, 1), BuildingBlock: KIFKEQ_clean_linker_1, # of connection points: 2
#     Edge 32, Type (0, 1), BuildingBlock: KIFKEQ_clean_linker_1, # of connection points: 2
#     Edge 33, Type (0, 1), BuildingBlock: KIFKEQ_clean_linker_1, # of connection points: 2
#     Edge 34, Type (0, 1), BuildingBlock: KIFKEQ_clean_linker_1, # of connection points: 2
#     Edge 35, Type (0, 1), BuildingBlock: KIFKEQ_clean_linker_1, # of connection points: 2
# Relax obj value: 0.091
# Max RMSD: 0.189
# Mean RMSD: 0.127
data_MOF--net-ant--node1-MIDCAF_clean_sbu_0--node2-BETDIP_clean_linker_0--edge1-KIFKEQ_clean_linker_1
_symmetry_space_group_name_H-M    P1
_symmetry_Int_Tables_number       1
_symmetry_cell_setting            triclinic
loop_
_symmetry_equiv_pos_as_xyz
'x, y, z'
_cell_length_a     29.585908
_cell_length_b     29.253779
_cell_length_c     71.958146
_cell_angle_alpha  94.550702
_cell_angle_beta   94.197216
_cell_angle_gamma 89.817493
loop_
_atom_site_label
_atom_site_type_symbol
_atom_site_fract_x
_atom_site_fract_y
_atom_site_fract_z
_atom_type_partial_charge
H0 H 0.17962 0.25754 0.0994 0.0
H1 H 0.18847 0.15755 0.05242 0.0
H2 H 0.17189 0.29967 0.04325 0.0
H3 H 0.14143 0.12096 0.07182 0.0
C4 C 0.16568 0.12387 0.08397 0.0
C5 C 0.18032 0.24925 0.08448 0.0
C6 C 0.17526 0.28418 0.07208 0.0
C7 C 0.18373 0.20321 0.07745 0.0
C8 C 0.18451 0.19269 0.05803 0.0
C9 C 0.18056 0.2273 0.0457 0.0
C10 C 0.17581 0.27283 0.05282 0.0
N11 N 0.18528 0.16747 0.0898 0.0
H12 H 0.05009 0.83616 0.34494 0.0
H13 H 0.12918 0.79574 0.2988 0.0
H14 H 0.98377 0.7872 0.29178 0.0
H15 H 0.15513 0.75483 0.33483 0.0
C16 C 0.16593 0.79036 0.33771 0.0
C17 C 0.05157 0.82364 0.33041 0.0
C18 C 0.01149 0.81267 0.31922 0.0
C19 C 0.09384 0.81695 0.32309 0.0
C20 C 0.09627 0.80033 0.30437 0.0
C21 C 0.05657 0.79061 0.29283 0.0
C22 C 0.01438 0.79676 0.30039 0.0
N23 N 0.13408 0.82583 0.3347 0.0
H24 H 0.67766 0.75545 0.59484 0.0
H25 H 0.69046 0.65087 0.55007 0.0
H26 H 0.67796 0.791 0.53769 0.0
H27 H 0.64351 0.61635 0.56951 0.0
C28 C 0.66678 0.62113 0.58194 0.0
C29 C 0.68059 0.746 0.58012 0.0
C30 C 0.67744 0.77967 0.56705 0.0
C31 C 0.68474 0.69944 0.5741 0.0
C32 C 0.68687 0.6866 0.55495 0.0
C33 C 0.68379 0.71941 0.54188 0.0
C34 C 0.68017 0.76583 0.54798 0.0
N35 N 0.68519 0.66547 0.58721 0.0
H36 H 0.53909 0.31809 0.84805 0.0
H37 H 0.63561 0.29451 0.80667 0.0
H38 H 0.49268 0.28224 0.79067 0.0
H39 H 0.64959 0.24533 0.84394 0.0
C40 C 0.65946 0.28114 0.84671 0.0
C41 C 0.54619 0.3095 0.83362 0.0
C42 C 0.51049 0.30063 0.81983 0.0
C43 C 0.5912 0.30673 0.82883 0.0
C44 C 0.60062 0.29559 0.8102 0.0
C45 C 0.56528 0.2874 0.79617 0.0
C46 C 0.52029 0.28993 0.80119 0.0
N47 N 0.62727 0.31566 0.84268 0.0
H48 H 0.02434 0.73451 0.88694 0.0
H49 H 0.05151 0.79205 0.94351 0.0
H50 H 0.02148 0.64841 0.93268 0.0
H51 H 0.00244 0.85064 0.92837 0.0
C52 C 0.02741 0.85339 0.91815 0.0
C53 C 0.02751 0.73041 0.90182 0.0
C54 C 0.02095 0.6871 0.9084 0.0
C55 C 0.03667 0.76875 0.91455 0.0
C56 C 0.04194 0.76292 0.93379 0.0
C57 C 0.03717 0.71951 0.94048 0.0
C58 C 0.02582 0.68201 0.92768 0.0
N59 N 0.04181 0.81288 0.90797 0.0
H60 H 0.59746 0.78352 0.14027 0.0
H61 H 0.69528 0.78916 0.18757 0.0
H62 H 0.55357 0.79006 0.19631 0.0
H63 H 0.72258 0.84684 0.16207 0.0
C64 C 0.72555 0.81303 0.15481 0.0
C65 C 0.60487 0.78605 0.15529 0.0
C66 C 0.56945 0.78695 0.16735 0.0
C67 C 0.65014 0.78826 0.16259 0.0
C68 C 0.66025 0.78983 0.18201 0.0
C69 C 0.62553 0.78916 0.19416 0.0
C70 C 0.58034 0.78889 0.18678 0.0
N71 N 0.68572 0.78631 0.1504 0.0
H72 H 0.5324 0.23365 0.39133 0.0
H73 H 0.57572 0.28438 0.44767 0.0
H74 H 0.54001 0.14261 0.43563 0.0
H75 H 0.53234 0.34856 0.43688 0.0
C76 C 0.54942 0.35037 0.42409 0.0
C77 C 0.53901 0.22799 0.40598 0.0
C78 C 0.5335 0.18401 0.41206 0.0
C79 C 0.5523 0.2649 0.41891 0.0
C80 C 0.56298 0.2568 0.43775 0.0
C81 C 0.55856 0.2127 0.44376 0.0
C82 C 0.54275 0.17683 0.431 0.0
N83 N 0.55645 0.30945 0.41261 0.0
H84 H 0.11271 0.3013 0.63914 0.0
H85 H 0.19557 0.29321 0.69018 0.0
H86 H 0.05085 0.29044 0.69115 0.0
H87 H 0.2364 0.35027 0.67099 0.0
C88 C 0.23846 0.32024 0.66116 0.0
C89 C 0.1152 0.29881 0.65411 0.0
C90 C 0.07576 0.29694 0.66393 0.0
C91 C 0.1583 0.29848 0.66361 0.0
C92 C 0.16224 0.29551 0.68301 0.0
C93 C 0.12369 0.29252 0.69304 0.0
C94 C 0.08062 0.2934 0.68342 0.0
N95 N 0.19771 0.29838 0.65348 0.0
Zn96 Zn 0.20462 0.6523 0.14825 0.0
Zn97 Zn 0.09593 0.7729 0.10994 0.0
Zn98 Zn 0.13994 0.71626 0.11992 0.0
C99 C 0.11798 0.7254 0.07808 0.0
C100 C 0.16347 0.82085 0.1251 0.0
O101 O 0.11164 0.70444 0.14732 0.0
O102 O 0.1584 0.66515 0.16625 0.0
C103 C 0.15656 0.62375 0.10813 0.0
O104 O 0.12109 0.69438 0.08989 0.0
O105 O 0.1153 0.76691 0.08417 0.0
O106 O 0.12155 0.82498 0.12699 0.0
O107 O 0.1791 0.78105 0.11994 0.0
O108 O 0.17545 0.63504 0.1239 0.0
O109 O 0.13742 0.6557 0.09943 0.0
O110 O 0.20956 0.74385 0.12665 0.0
O111 O 0.24948 0.70162 0.14672 0.0
C112 C 0.24607 0.73544 0.13674 0.0
O113 O 0.07719 0.72252 0.13552 0.0
O114 O 0.03436 0.75055 0.11291 0.0
C115 C 0.12183 0.68678 0.16309 0.0
C116 C 0.03762 0.73218 0.12817 0.0
Zn117 Zn 0.55522 0.71177 0.34396 0.0
Zn118 Zn 0.63555 0.81804 0.39277 0.0
Zn119 Zn 0.59953 0.76498 0.36867 0.0
C120 C 0.56984 0.86974 0.37858 0.0
C121 C 0.70192 0.79595 0.36884 0.0
O122 O 0.59443 0.69603 0.38019 0.0
O123 O 0.56389 0.65382 0.35568 0.0
C124 C 0.49432 0.77859 0.35454 0.0
O125 O 0.55788 0.82873 0.37228 0.0
O126 O 0.60786 0.87681 0.38734 0.0
O127 O 0.69844 0.80868 0.38584 0.0
O128 O 0.66622 0.78216 0.35856 0.0
O129 O 0.49512 0.74159 0.34431 0.0
O130 O 0.53049 0.79384 0.36408 0.0
O131 O 0.6379 0.76328 0.34311 0.0
O132 O 0.59197 0.72087 0.32308 0.0
C133 C 0.62743 0.74474 0.32649 0.0
O134 O 0.61208 0.72877 0.39446 0.0
O135 O 0.61721 0.78933 0.41491 0.0
C136 C 0.58109 0.65672 0.37229 0.0
C137 C 0.61424 0.7465 0.41148 0.0
Zn138 Zn 0.60573 0.2625 0.6058 0.0
Zn139 Zn 0.69704 0.16966 0.63743 0.0
Zn140 Zn 0.65065 0.21508 0.62084 0.0
C141 C 0.75672 0.22267 0.62359 0.0
C142 C 0.6505 0.10957 0.61322 0.0
O143 O 0.58685 0.22675 0.63565 0.0
O144 O 0.54611 0.23523 0.60939 0.0
C145 C 0.66782 0.31888 0.622 0.0
O146 O 0.71992 0.24635 0.62367 0.0
O147 O 0.75483 0.18051 0.62603 0.0
O148 O 0.66438 0.11163 0.63026 0.0
O149 O 0.64863 0.14672 0.6047 0.0
O150 O 0.62509 0.31983 0.62114 0.0
O151 O 0.68784 0.28005 0.61916 0.0
O152 O 0.63648 0.18087 0.5923 0.0
O153 O 0.63219 0.24897 0.58144 0.0
C154 C 0.63667 0.20619 0.57845 0.0
O155 O 0.62191 0.21451 0.64847 0.0
O156 O 0.68845 0.20031 0.66249 0.0
C157 C 0.54776 0.22864 0.62653 0.0
C158 C 0.64787 0.21299 0.66361 0.0
Zn159 Zn 0.04903 0.20912 0.84813 0.0
Zn160 Zn 0.141 0.32961 0.88835 0.0
Zn161 Zn 0.0959 0.2676 0.86957 0.0
C162 C 0.12447 0.26275 0.91244 0.0
C163 C 0.06556 0.37349 0.87615 0.0
O164 O 0.1276 0.25828 0.84229 0.0
O165 O 0.07802 0.21408 0.82479 0.0
C166 C 0.08446 0.16219 0.87792 0.0
O167 O 0.11339 0.23947 0.89683 0.0
O168 O 0.13418 0.30477 0.91266 0.0
O169 O 0.10539 0.38355 0.88242 0.0
O170 O 0.05375 0.33122 0.87222 0.0
O171 O 0.06568 0.15536 0.86164 0.0
O172 O 0.09571 0.20319 0.88454 0.0
O173 O 0.02582 0.29461 0.86628 0.0
O174 O 0.98825 0.23641 0.85083 0.0
C175 C 0.98837 0.27588 0.85927 0.0
O176 O 0.15876 0.28025 0.85539 0.0
O177 O 0.19917 0.32395 0.87695 0.0
C178 C 0.11402 0.23745 0.82639 0.0
C179 C 0.19594 0.3014 0.86124 0.0
H180 H 0.108 0.34121 0.0605 0.0
H181 H 0.22836 0.33683 0.09794 0.0
H182 H 0.10157 0.42365 0.06834 0.0
H183 H 0.22314 0.41943 0.10539 0.0
H184 H 0.17773 0.5549 0.12969 0.0
H185 H 0.17922 0.474 0.12141 0.0
H186 H 0.13598 0.49694 0.06422 0.0
H187 H 0.13294 0.58007 0.07285 0.0
C188 C 0.13298 0.35805 0.07049 0.0
C189 C 0.16862 0.3328 0.0787 0.0
C190 C 0.1296 0.4053 0.0748 0.0
C191 C 0.16195 0.4284 0.08737 0.0
C192 C 0.19718 0.40277 0.09583 0.0
C193 C 0.20024 0.35542 0.09165 0.0
C194 C 0.16854 0.54321 0.11524 0.0
C195 C 0.15564 0.5743 0.10183 0.0
C196 C 0.16974 0.4964 0.1105 0.0
C197 C 0.1586 0.47874 0.09209 0.0
C198 C 0.14472 0.50949 0.07859 0.0
C199 C 0.14311 0.55703 0.08344 0.0
H200 H 0.93156 0.84514 0.30387 0.0
H201 H 0.99008 0.78342 0.35262 0.0
H202 H 0.85654 0.84097 0.31571 0.0
H203 H 0.9152 0.77933 0.36446 0.0
H204 H 0.78129 0.82225 0.38818 0.0
H205 H 0.85564 0.8287 0.37653 0.0
H206 H 0.80081 0.78128 0.3211 0.0
H207 H 0.72599 0.77498 0.33285 0.0
C208 C 0.92838 0.83078 0.31713 0.0
C209 C 0.96671 0.81454 0.32729 0.0
C210 C 0.88542 0.82821 0.32386 0.0
C211 C 0.87989 0.80949 0.34094 0.0
C212 C 0.91839 0.79435 0.35134 0.0
C213 C 0.96133 0.79687 0.34459 0.0
C214 C 0.78483 0.81312 0.37348 0.0
C215 C 0.74723 0.79835 0.36137 0.0
C216 C 0.82767 0.81665 0.36684 0.0
C217 C 0.83416 0.80563 0.34789 0.0
C218 C 0.79676 0.79066 0.33575 0.0
C219 C 0.75381 0.78688 0.34246 0.0
H220 H 0.70235 0.61215 0.61797 0.0
H221 H 0.66962 0.53691 0.56469 0.0
H222 H 0.72238 0.53976 0.63182 0.0
H223 H 0.69036 0.46549 0.57818 0.0
H224 H 0.7364 0.3415 0.60121 0.0
H225 H 0.75369 0.41966 0.59394 0.0
H226 H 0.66814 0.4736 0.63656 0.0
H227 H 0.65076 0.39581 0.64364 0.0
C228 C 0.70051 0.5803 0.60918 0.0
C229 C 0.68413 0.57969 0.59036 0.0
C230 C 0.71204 0.53907 0.61705 0.0
C231 C 0.70843 0.49709 0.60602 0.0
C232 C 0.6944 0.49727 0.58696 0.0
C233 C 0.68197 0.53806 0.57928 0.0
C234 C 0.72325 0.37017 0.60963 0.0
C235 C 0.69195 0.36291 0.62283 0.0
C236 C 0.73285 0.41483 0.6054 0.0
C237 C 0.71167 0.45258 0.61451 0.0
C238 C 0.68511 0.44526 0.62938 0.0
C239 C 0.67506 0.40072 0.63341 0.0
H240 H 0.70575 0.36186 0.84476 0.0
H241 H 0.72043 0.22488 0.86266 0.0
H242 H 0.78742 0.37483 0.85164 0.0
H243 H 0.80146 0.23808 0.86987 0.0
H244 H 0.94137 0.27659 0.88999 0.0
H245 H 0.85956 0.28906 0.89087 0.0
H246 H 0.85437 0.3336 0.83497 0.0
H247 H 0.936 0.32032 0.83408 0.0
C248 C 0.72622 0.335 0.8506 0.0
C249 C 0.70697 0.29229 0.85319 0.0
C250 C 0.77285 0.3424 0.85448 0.0
C251 C 0.80062 0.30758 0.86139 0.0
C252 C 0.78077 0.2658 0.86484 0.0
C253 C 0.7345 0.25811 0.86061 0.0
C254 C 0.92292 0.29096 0.87825 0.0
C255 C 0.94458 0.29794 0.86202 0.0
C256 C 0.8762 0.29773 0.87869 0.0
C257 C 0.85068 0.31194 0.86293 0.0
C258 C 0.87328 0.32302 0.84736 0.0
C259 C 0.91989 0.31555 0.84683 0.0
H260 H 0.94667 0.63241 0.90656 0.0
H261 H 0.07424 0.64782 0.88238 0.0
H262 H 0.93995 0.5539 0.89228 0.0
H263 H 0.06879 0.56896 0.86862 0.0
H264 H 0.06143 0.42677 0.84729 0.0
H265 H 0.03594 0.50641 0.84884 0.0
H266 H 0.98022 0.48795 0.90166 0.0
H267 H 0.00469 0.40831 0.89962 0.0
C268 C 0.97257 0.61926 0.89769 0.0
C269 C 0.01106 0.64578 0.89559 0.0
C270 C 0.96897 0.57425 0.88964 0.0
C271 C 0.00417 0.55466 0.87959 0.0
C272 C 0.04074 0.58283 0.87611 0.0
C273 C 0.04405 0.62809 0.88401 0.0
C274 C 0.04141 0.43928 0.85865 0.0
C275 C 0.03438 0.41161 0.87323 0.0
C276 C 0.02748 0.48505 0.85972 0.0
C277 C 0.00682 0.50401 0.87554 0.0
C278 C 0.99563 0.47464 0.88916 0.0
C279 C 0.0094 0.42881 0.88801 0.0
H280 H 0.74945 0.72356 0.14513 0.0
H281 H 0.80449 0.85889 0.16042 0.0
H282 H 0.82624 0.69301 0.14336 0.0
H283 H 0.88079 0.82918 0.15801 0.0
H284 H 0.01533 0.77358 0.16134 0.0
H285 H 0.93893 0.78397 0.17139 0.0
H286 H 0.88722 0.69559 0.12359 0.0
H287 H 0.96421 0.68293 0.11452 0.0
C288 C 0.77798 0.7468 0.14797 0.0
C289 C 0.77122 0.79369 0.15277 0.0
C290 C 0.82196 0.72931 0.14701 0.0
C291 C 0.85989 0.75847 0.15073 0.0
C292 C 0.85267 0.80535 0.15555 0.0
C293 C 0.8089 0.82263 0.15666 0.0
C294 C 0.98809 0.75383 0.15383 0.0
C295 C 0.99575 0.72647 0.13751 0.0
C296 C 0.94398 0.76082 0.15921 0.0
C297 C 0.90667 0.74155 0.14803 0.0
C298 C 0.91494 0.71088 0.13261 0.0
C299 C 0.95908 0.70354 0.12739 0.0
H300 H 0.60814 0.37124 0.39828 0.0
H301 H 0.51491 0.43217 0.43637 0.0
H302 H 0.62441 0.44661 0.3882 0.0
H303 H 0.52871 0.50746 0.42553 0.0
H304 H 0.57629 0.64388 0.4097 0.0
H305 H 0.57643 0.57072 0.42399 0.0
H306 H 0.5904 0.4994 0.3697 0.0
H307 H 0.59372 0.57196 0.35606 0.0
C308 C 0.59079 0.40082 0.40435 0.0
C309 C 0.55985 0.39594 0.41792 0.0
C310 C 0.59994 0.44412 0.39854 0.0
C311 C 0.57754 0.48345 0.40585 0.0
C312 C 0.5472 0.47836 0.41974 0.0
C313 C 0.53883 0.43513 0.42582 0.0
C314 C 0.58127 0.61262 0.40108 0.0
C315 C 0.58565 0.6138 0.38185 0.0
C316 C 0.58035 0.5705 0.40914 0.0
C317 C 0.58326 0.52873 0.39804 0.0
C318 C 0.58892 0.53044 0.37888 0.0
C319 C 0.5903 0.57226 0.37096 0.0
H320 H 0.04851 0.25789 0.62878 0.0
H321 H 0.99767 0.33603 0.67633 0.0
H322 H 0.97207 0.2514 0.61404 0.0
H323 H 0.92095 0.32598 0.66236 0.0
H324 H 0.7835 0.31159 0.63409 0.0
H325 H 0.8617 0.33929 0.63973 0.0
H326 H 0.9098 0.20675 0.6186 0.0
H327 H 0.83249 0.18043 0.6123 0.0
C328 C 0.02125 0.27415 0.63606 0.0
C329 C 0.02954 0.29678 0.65398 0.0
C330 C 0.9771 0.26988 0.62767 0.0
C331 C 0.93989 0.2874 0.63709 0.0
C332 C 0.94849 0.31222 0.65454 0.0
C333 C 0.99267 0.31716 0.66278 0.0
C334 C 0.81086 0.28914 0.63004 0.0
C335 C 0.80193 0.24371 0.62296 0.0
C336 C 0.85575 0.30471 0.63351 0.0
C337 C 0.89241 0.27507 0.62997 0.0
C338 C 0.8829 0.23091 0.62143 0.0
C339 C 0.83832 0.21555 0.61794 0.0
H340 H 0.31892 0.36332 0.66847 0.0
H341 H 0.25961 0.23424 0.64603 0.0
H342 H 0.39414 0.33377 0.66299 0.0
H343 H 0.33504 0.20333 0.64145 0.0
H344 H 0.46862 0.19095 0.61197 0.0
H345 H 0.3936 0.20839 0.62199 0.0
H346 H 0.45357 0.28545 0.67145 0.0
H347 H 0.52878 0.27063 0.66041 0.0
C348 C 0.32218 0.32841 0.66247 0.0
C349 C 0.28356 0.30135 0.65741 0.0
C350 C 0.36537 0.31111 0.65957 0.0
C351 C 0.37109 0.2659 0.65184 0.0
C352 C 0.33216 0.2385 0.64714 0.0
C353 C 0.28883 0.25617 0.64975 0.0
C354 C 0.46572 0.2107 0.62522 0.0
C355 C 0.50454 0.22896 0.63554 0.0
C356 C 0.42258 0.22059 0.63106 0.0
C357 C 0.41711 0.24893 0.64746 0.0
C358 C 0.45629 0.26432 0.65853 0.0
C359 C 0.49958 0.25487 0.65251 0.0
H360 H 0.50095 0.73908 0.18027 0.0
H361 H 0.52825 0.82933 0.13763 0.0
H362 H 0.42069 0.74116 0.17075 0.0
H363 H 0.44702 0.8297 0.12757 0.0
H364 H 0.30211 0.74512 0.10897 0.0
H365 H 0.38273 0.76571 0.11446 0.0
H366 H 0.36162 0.80821 0.17199 0.0
H367 H 0.28175 0.78739 0.1665 0.0
C368 C 0.48987 0.75963 0.16892 0.0
C369 C 0.52106 0.78492 0.16002 0.0
C370 C 0.44383 0.76071 0.16345 0.0
C371 C 0.42768 0.78652 0.14874 0.0
C372 C 0.45874 0.81 0.1391 0.0
C373 C 0.50514 0.80947 0.14478 0.0
C374 C 0.31439 0.76127 0.12246 0.0
C375 C 0.28611 0.76494 0.13734 0.0
C376 C 0.36046 0.77269 0.12564 0.0
C377 C 0.37832 0.78763 0.14373 0.0
C378 C 0.34869 0.79624 0.15798 0.0
C379 C 0.30297 0.78484 0.15481 0.0
H380 H 0.44049 0.34802 0.80402 0.0
H381 H 0.47309 0.25409 0.84632 0.0
H382 H 0.36058 0.34607 0.81077 0.0
H383 H 0.39295 0.25164 0.85291 0.0
H384 H 0.23842 0.22608 0.84595 0.0
H385 H 0.31468 0.22464 0.83433 0.0
H386 H 0.31913 0.37259 0.84069 0.0
H387 H 0.244 0.37382 0.85272 0.0
C388 C 0.43042 0.32694 0.81473 0.0
C389 C 0.46276 0.3013 0.8247 0.0
C390 C 0.38485 0.32575 0.81855 0.0
C391 C 0.37066 0.29822 0.83216 0.0
C392 C 0.403 0.27254 0.84213 0.0
C393 C 0.44877 0.27438 0.83855 0.0
C394 C 0.25538 0.25814 0.84434 0.0
C395 C 0.23568 0.30005 0.85013 0.0
C396 C 0.29899 0.25736 0.83792 0.0
C397 C 0.32275 0.29853 0.83679 0.0
C398 C 0.3015 0.34043 0.84138 0.0
C399 C 0.25858 0.34114 0.8482 0.0
H400 H 0.21392 0.87046 0.3369 0.0
H401 H 0.22514 0.73179 0.35322 0.0
H402 H 0.29554 0.88181 0.34475 0.0
H403 H 0.30605 0.7435 0.36148 0.0
H404 H 0.44488 0.78255 0.38469 0.0
H405 H 0.36298 0.79627 0.38432 0.0
H406 H 0.36294 0.83657 0.3279 0.0
H407 H 0.44445 0.82144 0.32814 0.0
C408 C 0.23361 0.84286 0.34258 0.0
C409 C 0.21346 0.80019 0.34448 0.0
C410 C 0.28015 0.84937 0.34704 0.0
C411 C 0.30682 0.81368 0.35387 0.0
C412 C 0.28609 0.77182 0.35654 0.0
C413 C 0.23995 0.76501 0.35171 0.0
C414 C 0.42756 0.79623 0.37255 0.0
C415 C 0.45054 0.8013 0.35647 0.0
C416 C 0.38082 0.80376 0.37229 0.0
C417 C 0.35681 0.81725 0.35605 0.0
C418 C 0.38077 0.82658 0.34063 0.0
C419 C 0.42728 0.81802 0.34075 0.0
H420 H 0.62443 0.84148 0.54847 0.0
H421 H 0.71049 0.82963 0.59912 0.0
H422 H 0.61234 0.92235 0.55762 0.0
H423 H 0.69631 0.91 0.60856 0.0
H424 H 0.62169 0.03572 0.62908 0.0
H425 H 0.62474 0.956 0.61692 0.0
H426 H 0.66244 0.99819 0.56403 0.0
H427 H 0.65987 0.07908 0.57639 0.0
C428 C 0.64119 0.85603 0.56147 0.0
C429 C 0.66897 0.82883 0.57296 0.0
C430 C 0.63392 0.90236 0.5667 0.0
C431 C 0.65334 0.92231 0.58375 0.0
C432 C 0.68059 0.89525 0.59538 0.0
C433 C 0.68852 0.84912 0.59001 0.0
C434 C 0.62983 0.02818 0.61472 0.0
C435 C 0.64122 0.06356 0.60375 0.0
C436 C 0.63183 0.9825 0.60783 0.0
C437 C 0.64489 0.97101 0.58974 0.0
C438 C 0.65253 0.00632 0.57811 0.0
C439 C 0.65078 0.05249 0.5851 0.0
H440 H 0.21095 0.1121 0.11831 0.0
H441 H 0.15464 0.03917 0.06742 0.0
H442 H 0.23009 0.03842 0.13128 0.0
H443 H 0.17419 0.96646 0.08004 0.0
H444 H 0.16008 0.89805 0.1484 0.0
H445 H 0.17701 0.975 0.14006 0.0
H446 H 0.23991 0.91695 0.09132 0.0
H447 H 0.22335 0.83979 0.09986 0.0
C448 C 0.20344 0.08042 0.10982 0.0
C449 C 0.18111 0.08105 0.09193 0.0
C450 C 0.21446 0.03841 0.11719 0.0
C451 C 0.20424 0.99673 0.10657 0.0
C452 C 0.18347 0.99789 0.08843 0.0
C453 C 0.17176 0.03951 0.08128 0.0
C454 C 0.17963 0.90178 0.13645 0.0
C455 C 0.19002 0.86317 0.12466 0.0
C456 C 0.18932 0.94585 0.13166 0.0
C457 C 0.20894 0.95193 0.11484 0.0
C458 C 0.22434 0.91316 0.10428 0.0
C459 C 0.21527 0.86899 0.10925 0.0
H460 H 0.58485 0.14528 0.38541 0.0
H461 H 0.45786 0.13112 0.41015 0.0
H462 H 0.57788 0.06699 0.37123 0.0
H463 H 0.44927 0.05331 0.39527 0.0
H464 H 0.51004 0.90665 0.40191 0.0
H465 H 0.48744 0.98671 0.40408 0.0
H466 H 0.54563 0.00466 0.35169 0.0
H467 H 0.56934 0.92436 0.35006 0.0
C468 C 0.55435 0.126 0.38702 0.0
C469 C 0.52199 0.14383 0.39888 0.0
C470 C 0.55017 0.08105 0.37887 0.0
C471 C 0.51328 0.05331 0.38235 0.0
C472 C 0.47859 0.07323 0.39264 0.0
C473 C 0.48317 0.1179 0.40101 0.0
C474 C 0.51584 0.92724 0.39043 0.0
C475 C 0.54083 0.90957 0.37574 0.0
C476 C 0.50304 0.97332 0.39164 0.0
C477 C 0.51529 1.00261 0.37818 0.0
C478 C 0.5363 0.98338 0.36246 0.0
C479 C 0.54924 0.93726 0.36133 0.0
H480 H 0.98757 0.93437 0.9273 0.0
H481 H 0.10427 0.87621 0.90174 0.0
H482 H 0.01164 0.01093 0.92121 0.0
H483 H 0.13041 0.95291 0.8967 0.0
H484 H 0.12004 0.083 0.86485 0.0
H485 H 0.11302 0.00897 0.87696 0.0
H486 H 0.06014 0.07408 0.92697 0.0
H487 H 0.06514 0.14882 0.91397 0.0
C488 C 0.01876 0.9382 0.92055 0.0
C489 C 0.04358 0.89948 0.91465 0.0
C490 C 0.03303 0.98218 0.9173 0.0
C491 C 0.0731 0.98858 0.9084 0.0
C492 C 0.09886 0.94957 0.90319 0.0
C493 C 0.08397 0.90548 0.90608 0.0
C494 C 0.10808 0.08159 0.87868 0.0
C495 C 0.09295 0.12147 0.88844 0.0
C496 C 0.10419 0.03896 0.88573 0.0
C497 C 0.08527 0.03497 0.90289 0.0
C498 C 0.07385 0.07559 0.91349 0.0
C499 C 0.07747 0.11856 0.90627 0.0
H500 H 0.12635 0.16436 0.02478 0.0
H501 H 0.22922 0.2667 0.02065 0.0
H502 H 0.11141 0.15888 0.99062 0.0
H503 H 0.21431 0.26099 0.98668 0.0
H504 H 0.0945 0.30208 0.94409 0.0
H505 H 0.11126 0.27939 0.97567 0.0
H506 H 0.17595 0.15635 0.95376 0.0
H507 H 0.159 0.17925 0.92165 0.0
C508 C 0.14685 0.18434 0.01651 0.0
C509 C 0.17855 0.21636 0.02525 0.0
C510 C 0.1384 0.18104 -0.00295 0.0
C511 C 0.16198 0.20932 0.98622 0.0
C512 C 0.19614 0.23856 0.99485 0.0
C513 C 0.20437 0.24208 0.01421 0.0
C514 C 0.11125 0.26957 0.94593 0.0
C515 C 0.12572 0.24246 0.93052 0.0
C516 C 0.12077 0.25668 0.96395 0.0
C517 C 0.14506 0.21649 0.96696 0.0
C518 C 0.15701 0.18746 0.9516 0.0
C519 C 0.14718 0.20039 0.93335 0.0
H520 H 0.00554 0.81689 0.26228 0.0
H521 H 0.11282 0.72455 0.27862 0.0
H522 H 0.00965 0.78809 0.2296 0.0
H523 H 0.11761 0.69656 0.246 0.0
H524 H 0.09797 0.62945 0.18857 0.0
H525 H 0.07419 0.65233 0.2198 0.0
H526 H 0.06634 0.79327 0.20591 0.0
H527 H 0.0907 0.7702 0.17486 0.0
C528 C 0.02977 0.79023 0.25889 0.0
C529 C 0.05895 0.77304 0.273 0.0
C530 C 0.03224 0.77394 0.2402 0.0
C531 C 0.06368 0.73986 0.23525 0.0
C532 C 0.09247 0.7223 0.2494 0.0
C533 C 0.09021 0.73878 0.26805 0.0
C534 C 0.0895 0.66503 0.19203 0.0
C535 C 0.09507 0.69802 0.17924 0.0
C536 C 0.07639 0.6782 0.20993 0.0
C537 C 0.0689 0.72466 0.21536 0.0
C538 C 0.07137 0.75715 0.20208 0.0
C539 C 0.08478 0.74395 0.18422 0.0
H540 H 0.62215 0.65966 0.5241 0.0
H541 H 0.73324 0.74789 0.51439 0.0
H542 H 0.60406 0.6467 0.49032 0.0
H543 H 0.71584 0.73399 0.4806 0.0
H544 H 0.55768 0.74514 0.43913 0.0
H545 H 0.57737 0.71998 0.47026 0.0
H546 H 0.70335 0.66489 0.45169 0.0
H547 H 0.68258 0.68859 0.42019 0.0
C548 C 0.6436 0.67495 0.51469 0.0
C549 C 0.67889 0.70497 0.52171 0.0
C550 C 0.63328 0.66747 0.49545 0.0
C551 C 0.6588 0.68908 0.48298 0.0
C552 C 0.69617 0.7164 0.48998 0.0
C553 C 0.70588 0.72467 0.50923 0.0
C554 C 0.5884 0.72549 0.44149 0.0
C555 C 0.61857 0.71837 0.42742 0.0
C556 C 0.5997 0.71117 0.45925 0.0
C557 C 0.64192 0.69076 0.46327 0.0
C558 C 0.67055 0.6804 0.4488 0.0
C559 C 0.65862 0.69367 0.43085 0.0
H560 H 0.63304 0.23285 0.7828 0.0
H561 H 0.51981 0.31609 0.76454 0.0
H562 H 0.65028 0.21574 0.75038 0.0
H563 H 0.53653 0.29773 0.73203 0.0
H564 H 0.56205 0.20754 0.67574 0.0
H565 H 0.53935 0.22676 0.70763 0.0
H566 H 0.67764 0.26407 0.72566 0.0
H567 H 0.69967 0.24669 0.694 0.0
C568 C 0.61193 0.24768 0.77192 0.0
C569 C 0.57519 0.27608 0.77634 0.0
C570 C 0.62168 0.23766 0.75334 0.0
C571 C 0.59474 0.25548 0.73871 0.0
C572 C 0.55752 0.28314 0.74303 0.0
C573 C 0.54799 0.29356 0.76165 0.0
C574 C 0.58707 0.22124 0.68643 0.0
C575 C 0.63234 0.22638 0.68232 0.0
C576 C 0.5743 0.23171 0.70468 0.0
C577 C 0.60688 0.24656 0.71912 0.0
C578 C 0.65195 0.25208 0.71489 0.0
C579 C 0.66449 0.24222 0.69673 0.0
H580 H 0.08367 0.64983 0.95669 0.0
H581 H 0.01066 0.77493 0.97006 0.0
H582 H 0.10433 0.64384 0.99001 0.0
H583 H 0.03219 0.7693 0.00317 0.0
H584 H 0.13663 0.78315 0.05231 0.0
H585 H 0.11463 0.77591 0.01913 0.0
H586 H 0.06655 0.63835 0.02346 0.0
H587 H 0.08805 0.64584 0.05737 0.0
C588 C 0.07133 0.67556 0.96673 0.0
C589 C 0.04595 0.7132 0.96072 0.0
C590 C 0.08322 0.67206 0.98577 0.0
C591 C 0.07023 0.70631 -0.00094 0.0
C592 C 0.04315 0.74274 0.99313 0.0
C593 C 0.03104 0.74609 0.97419 0.0
C594 C 0.12191 0.75097 0.04627 0.0
C595 C 0.11353 0.71521 0.05754 0.0
C596 C 0.1091 0.74703 0.02725 0.0
C597 C 0.08796 0.70705 0.01887 0.0
C598 C 0.08252 0.6697 0.02971 0.0
C599 C 0.09509 0.67382 0.04902 0.0
H600 H 0.58878 0.72899 0.21553 0.0
H601 H 0.68687 0.83875 0.21827 0.0
H602 H 0.60596 0.71985 0.24857 0.0
H603 H 0.70435 0.82945 0.25173 0.0
H604 H 0.64704 0.82766 0.3143 0.0
H605 H 0.65829 0.84023 0.28165 0.0
H606 H 0.67273 0.69429 0.26934 0.0
H607 H 0.66064 0.68193 0.30172 0.0
C608 C 0.61397 0.75128 0.22325 0.0
C609 C 0.63627 0.78477 0.21438 0.0
C610 C 0.6243 0.74564 0.24211 0.0
C611 C 0.65702 0.77351 0.25264 0.0
C612 C 0.67923 0.80735 0.24388 0.0
C613 C 0.66926 0.81261 0.22481 0.0
C614 C 0.65494 0.79865 0.30479 0.0
C615 C 0.6527 0.75385 0.31035 0.0
C616 C 0.66115 0.80576 0.2861 0.0
C617 C 0.66516 0.76808 0.27292 0.0
C618 C 0.6688 0.72384 0.27916 0.0
C619 C 0.66234 0.71677 0.2977 0.0
H620 H 0.50676 0.19131 0.4716 0.0
H621 H 0.64496 0.21052 0.45866 0.0
H622 H 0.53269 0.17626 0.50362 0.0
H623 H 0.67161 0.19291 0.49021 0.0
H624 H 0.68894 0.23753 0.55337 0.0
H625 H 0.67342 0.23055 0.51982 0.0
H626 H 0.57051 0.12864 0.52515 0.0
H627 H 0.58565 0.1372 0.55926 0.0
C628 C 0.54276 0.1918 0.47567 0.0
C629 C 0.57395 0.20293 0.46298 0.0
C630 C 0.55778 0.1825 0.49388 0.0
C631 C 0.60438 0.18338 0.49963 0.0
C632 C 0.63549 0.19277 0.48649 0.0
C633 C 0.62037 0.2029 0.46843 0.0
C634 C 0.66422 0.2123 0.54731 0.0
C635 C 0.63841 0.188 0.55885 0.0
C636 C 0.65519 0.20824 0.52798 0.0
C637 C 0.62002 0.17963 0.51966 0.0
C638 C 0.59714 0.1518 0.53112 0.0
C639 C 0.60632 0.15594 0.55062 0.0
H640 H 0.18264 0.33585 0.71998 0.0
H641 H 0.07674 0.23334 0.71196 0.0
H642 H 0.19371 0.32112 0.75301 0.0
H643 H 0.08655 0.21992 0.74489 0.0
H644 H 0.14519 0.31737 0.81477 0.0
H645 H 0.15453 0.33143 0.78214 0.0
H646 H 0.14087 0.18616 0.76652 0.0
H647 H 0.12994 0.17268 0.79885 0.0
C648 C 0.16171 0.31023 0.72528 0.0
C649 C 0.1288 0.28574 0.71334 0.0
C650 C 0.16792 0.302 0.7442 0.0
C651 C 0.14152 0.2689 0.75155 0.0
C652 C 0.10824 0.24492 0.73963 0.0
C653 C 0.10202 0.25317 0.72078 0.0
C654 C 0.14599 0.28842 0.80443 0.0
C655 C 0.13626 0.24407 0.80917 0.0
C656 C 0.15106 0.29641 0.78573 0.0
C657 C 0.14689 0.26002 0.77166 0.0
C658 C 0.1427 0.21509 0.77693 0.0
C659 C 0.13707 0.20725 0.79546 0.0
loop_
_geom_bond_atom_site_label_1
_geom_bond_atom_site_label_2
_geom_bond_distance
_geom_bond_site_symmetry_2
_ccdc_geom_bond_type
H0 C5 0.930 . S
H1 C8 0.930 . S
H2 C10 0.930 . S
H3 C4 1.016 . S
C4 H3 1.016 . S
C4 N11 1.286 . S
C5 H0 0.930 . S
C5 C6 1.397 . S
C5 C7 1.361 . S
C6 C5 1.397 . S
C6 C10 1.390 . S
C7 C5 1.361 . S
C7 C8 1.393 . S
C7 N11 1.413 . S
C8 H1 0.930 . S
C8 C7 1.393 . S
C8 C9 1.399 . S
C9 C8 1.399 . S
C9 C10 1.381 . S
C10 H2 0.930 . S
C10 C6 1.390 . S
C10 C9 1.381 . S
N11 C4 1.286 . S
N11 C7 1.413 . S
H12 C17 0.930 . S
H13 C20 0.930 . S
H14 C22 0.930 . S
H15 C16 1.016 . S
C16 H15 1.016 . S
C16 N23 1.286 . S
C17 H12 0.930 . S
C17 C18 1.397 . S
C17 C19 1.361 . S
C18 C17 1.397 . S
C18 C22 1.390 . S
C19 C17 1.361 . S
C19 C20 1.393 . S
C19 N23 1.413 . S
C20 H13 0.930 . S
C20 C19 1.393 . S
C20 C21 1.399 . S
C21 C20 1.399 . S
C21 C22 1.381 . S
C22 H14 0.930 . S
C22 C18 1.390 . S
C22 C21 1.381 . S
N23 C16 1.286 . S
N23 C19 1.413 . S
H24 C29 0.930 . S
H25 C32 0.930 . S
H26 C34 0.930 . S
H27 C28 1.016 . S
C28 H27 1.016 . S
C28 N35 1.286 . S
C29 H24 0.930 . S
C29 C30 1.397 . S
C29 C31 1.361 . S
C30 C29 1.397 . S
C30 C34 1.390 . S
C31 C29 1.361 . S
C31 C32 1.393 . S
C31 N35 1.413 . S
C32 H25 0.930 . S
C32 C31 1.393 . S
C32 C33 1.399 . S
C33 C32 1.399 . S
C33 C34 1.381 . S
C34 H26 0.930 . S
C34 C30 1.390 . S
C34 C33 1.381 . S
N35 C28 1.286 . S
N35 C31 1.413 . S
H36 C41 0.930 . S
H37 C44 0.930 . S
H38 C46 0.930 . S
H39 C40 1.016 . S
C40 H39 1.016 . S
C40 N47 1.286 . S
C41 H36 0.930 . S
C41 C42 1.397 . S
C41 C43 1.361 . S
C42 C41 1.397 . S
C42 C46 1.390 . S
C43 C41 1.361 . S
C43 C44 1.393 . S
C43 N47 1.413 . S
C44 H37 0.930 . S
C44 C43 1.393 . S
C44 C45 1.399 . S
C45 C44 1.399 . S
C45 C46 1.381 . S
C46 H38 0.930 . S
C46 C42 1.390 . S
C46 C45 1.381 . S
N47 C40 1.286 . S
N47 C43 1.413 . S
H48 C53 0.930 . S
H49 C56 0.930 . S
H50 C58 0.930 . S
H51 C52 1.016 . S
C52 H51 1.016 . S
C52 N59 1.286 . S
C53 H48 0.930 . S
C53 C54 1.397 . S
C53 C55 1.361 . S
C54 C53 1.397 . S
C54 C58 1.390 . S
C55 C53 1.361 . S
C55 C56 1.393 . S
C55 N59 1.413 . S
C56 H49 0.930 . S
C56 C55 1.393 . S
C56 C57 1.399 . S
C57 C56 1.399 . S
C57 C58 1.381 . S
C58 H50 0.930 . S
C58 C54 1.390 . S
C58 C57 1.381 . S
N59 C52 1.286 . S
N59 C55 1.413 . S
H60 C65 0.930 . S
H61 C68 0.930 . S
H62 C70 0.930 . S
H63 C64 1.016 . S
C64 H63 1.016 . S
C64 N71 1.286 . S
C65 H60 0.930 . S
C65 C66 1.397 . S
C65 C67 1.361 . S
C66 C65 1.397 . S
C66 C70 1.390 . S
C67 C65 1.361 . S
C67 C68 1.393 . S
C67 N71 1.413 . S
C68 H61 0.930 . S
C68 C67 1.393 . S
C68 C69 1.399 . S
C69 C68 1.399 . S
C69 C70 1.381 . S
C70 H62 0.930 . S
C70 C66 1.390 . S
C70 C69 1.381 . S
N71 C64 1.286 . S
N71 C67 1.413 . S
H72 C77 0.930 . S
H73 C80 0.930 . S
H74 C82 0.930 . S
H75 C76 1.016 . S
C76 H75 1.016 . S
C76 N83 1.286 . S
C77 H72 0.930 . S
C77 C78 1.397 . S
C77 C79 1.361 . S
C78 C77 1.397 . S
C78 C82 1.390 . S
C79 C77 1.361 . S
C79 C80 1.393 . S
C79 N83 1.413 . S
C80 H73 0.930 . S
C80 C79 1.393 . S
C80 C81 1.399 . S
C81 C80 1.399 . S
C81 C82 1.381 . S
C82 H74 0.930 . S
C82 C78 1.390 . S
C82 C81 1.381 . S
N83 C76 1.286 . S
N83 C79 1.413 . S
H84 C89 0.930 . S
H85 C92 0.930 . S
H86 C94 0.930 . S
H87 C88 1.016 . S
C88 H87 1.016 . S
C88 N95 1.286 . S
C89 H84 0.930 . S
C89 C90 1.397 . S
C89 C91 1.361 . S
C90 C89 1.397 . S
C90 C94 1.390 . S
C91 C89 1.361 . S
C91 C92 1.393 . S
C91 N95 1.413 . S
C92 H85 0.930 . S
C92 C91 1.393 . S
C92 C93 1.399 . S
C93 C92 1.399 . S
C93 C94 1.381 . S
C94 H86 0.930 . S
C94 C90 1.390 . S
C94 C93 1.381 . S
N95 C88 1.286 . S
N95 C91 1.413 . S
Zn96 O102 1.920 . S
Zn96 O108 1.898 . S
Zn96 O111 1.905 . S
Zn97 O105 1.905 . S
Zn97 O106 1.898 . S
Zn97 O114 1.920 . S
Zn98 O101 2.080 . S
Zn98 O104 2.114 . S
Zn98 O107 2.120 . S
Zn98 O109 2.120 . S
Zn98 O110 2.114 . S
Zn98 O113 2.080 . S
C99 O104 1.166 . S
C99 O105 1.182 . S
C100 O106 1.167 . S
C100 O107 1.299 . S
O101 Zn98 2.080 . S
O101 C115 1.305 . S
O102 Zn96 1.920 . S
O102 C115 1.234 . S
C103 O108 1.167 . S
C103 O109 1.299 . S
O104 Zn98 2.114 . S
O104 C99 1.166 . S
O105 Zn97 1.905 . S
O105 C99 1.182 . S
O106 Zn97 1.898 . S
O106 C100 1.167 . S
O107 Zn98 2.120 . S
O107 C100 1.299 . S
O108 Zn96 1.898 . S
O108 C103 1.167 . S
O109 Zn98 2.120 . S
O109 C103 1.299 . S
O110 Zn98 2.114 . S
O110 C112 1.166 . S
O111 Zn96 1.905 . S
O111 C112 1.182 . S
C112 O110 1.166 . S
C112 O111 1.182 . S
O113 Zn98 2.080 . S
O113 C116 1.305 . S
O114 Zn97 1.920 . S
O114 C116 1.234 . S
C115 O101 1.305 . S
C115 O102 1.234 . S
C116 O113 1.305 . S
C116 O114 1.234 . S
Zn117 O123 1.920 . S
Zn117 O129 1.898 . S
Zn117 O132 1.905 . S
Zn118 O126 1.905 . S
Zn118 O127 1.898 . S
Zn118 O135 1.920 . S
Zn119 O122 2.080 . S
Zn119 O125 2.114 . S
Zn119 O128 2.120 . S
Zn119 O130 2.120 . S
Zn119 O131 2.114 . S
Zn119 O134 2.080 . S
C120 O125 1.166 . S
C120 O126 1.182 . S
C121 O127 1.167 . S
C121 O128 1.299 . S
O122 Zn119 2.080 . S
O122 C136 1.305 . S
O123 Zn117 1.920 . S
O123 C136 1.234 . S
C124 O129 1.167 . S
C124 O130 1.299 . S
O125 Zn119 2.114 . S
O125 C120 1.166 . S
O126 Zn118 1.905 . S
O126 C120 1.182 . S
O127 Zn118 1.898 . S
O127 C121 1.167 . S
O128 Zn119 2.120 . S
O128 C121 1.299 . S
O129 Zn117 1.898 . S
O129 C124 1.167 . S
O130 Zn119 2.120 . S
O130 C124 1.299 . S
O131 Zn119 2.114 . S
O131 C133 1.166 . S
O132 Zn117 1.905 . S
O132 C133 1.182 . S
C133 O131 1.166 . S
C133 O132 1.182 . S
O134 Zn119 2.080 . S
O134 C137 1.305 . S
O135 Zn118 1.920 . S
O135 C137 1.234 . S
C136 O122 1.305 . S
C136 O123 1.234 . S
C137 O134 1.305 . S
C137 O135 1.234 . S
Zn138 O144 1.920 . S
Zn138 O150 1.898 . S
Zn138 O153 1.905 . S
Zn139 O147 1.905 . S
Zn139 O148 1.898 . S
Zn139 O156 1.920 . S
Zn140 O143 2.080 . S
Zn140 O146 2.114 . S
Zn140 O149 2.120 . S
Zn140 O151 2.120 . S
Zn140 O152 2.114 . S
Zn140 O155 2.080 . S
C141 O146 1.166 . S
C141 O147 1.182 . S
C142 O148 1.167 . S
C142 O149 1.299 . S
O143 Zn140 2.080 . S
O143 C157 1.305 . S
O144 Zn138 1.920 . S
O144 C157 1.234 . S
C145 O150 1.167 . S
C145 O151 1.299 . S
O146 Zn140 2.114 . S
O146 C141 1.166 . S
O147 Zn139 1.905 . S
O147 C141 1.182 . S
O148 Zn139 1.898 . S
O148 C142 1.167 . S
O149 Zn140 2.120 . S
O149 C142 1.299 . S
O150 Zn138 1.898 . S
O150 C145 1.167 . S
O151 Zn140 2.120 . S
O151 C145 1.299 . S
O152 Zn140 2.114 . S
O152 C154 1.166 . S
O153 Zn138 1.905 . S
O153 C154 1.182 . S
C154 O152 1.166 . S
C154 O153 1.182 . S
O155 Zn140 2.080 . S
O155 C158 1.305 . S
O156 Zn139 1.920 . S
O156 C158 1.234 . S
C157 O143 1.305 . S
C157 O144 1.234 . S
C158 O155 1.305 . S
C158 O156 1.234 . S
Zn159 O165 1.920 . S
Zn159 O171 1.898 . S
Zn159 O174 1.905 1_455 S
Zn160 O168 1.905 . S
Zn160 O169 1.898 . S
Zn160 O177 1.920 . S
Zn161 O164 2.080 . S
Zn161 O167 2.114 . S
Zn161 O170 2.120 . S
Zn161 O172 2.120 . S
Zn161 O173 2.114 . S
Zn161 O176 2.080 . S
C162 O167 1.166 . S
C162 O168 1.182 . S
C163 O169 1.167 . S
C163 O170 1.299 . S
O164 Zn161 2.080 . S
O164 C178 1.305 . S
O165 Zn159 1.920 . S
O165 C178 1.234 . S
C166 O171 1.167 . S
C166 O172 1.299 . S
O167 Zn161 2.114 . S
O167 C162 1.166 . S
O168 Zn160 1.905 . S
O168 C162 1.182 . S
O169 Zn160 1.898 . S
O169 C163 1.167 . S
O170 Zn161 2.120 . S
O170 C163 1.299 . S
O171 Zn159 1.898 . S
O171 C166 1.167 . S
O172 Zn161 2.120 . S
O172 C166 1.299 . S
O173 Zn161 2.114 . S
O173 C175 1.166 . S
O174 Zn159 1.905 1_655 S
O174 C175 1.182 1_655 S
C175 O173 1.166 . S
C175 O174 1.182 1_455 S
O176 Zn161 2.080 . S
O176 C179 1.305 . S
O177 Zn160 1.920 . S
O177 C179 1.234 . S
C178 O164 1.305 . S
C178 O165 1.234 . S
C179 O176 1.305 . S
C179 O177 1.234 . S
H180 C188 0.950 . S
H181 C193 0.950 . S
H182 C190 0.950 . S
H183 C192 0.950 . S
H184 C194 0.950 . S
H185 C196 0.950 . S
H186 C198 0.950 . S
H187 C199 0.950 . S
C188 H180 0.950 . S
C188 C189 1.386 . S
C188 C190 1.391 . S
C189 C188 1.386 . S
C189 C193 1.393 . S
C190 H182 0.950 . S
C190 C188 1.391 . S
C190 C191 1.400 . S
C191 C190 1.400 . S
C191 C192 1.398 . S
C191 C197 1.491 . S
C192 H183 0.950 . S
C192 C191 1.398 . S
C192 C193 1.391 . S
C193 H181 0.950 . S
C193 C189 1.393 . S
C193 C192 1.391 . S
C194 H184 0.950 . S
C194 C195 1.386 . S
C194 C196 1.391 . S
C195 C194 1.386 . S
C195 C199 1.393 . S
C196 H185 0.950 . S
C196 C194 1.391 . S
C196 C197 1.400 . S
C197 C191 1.491 . S
C197 C196 1.400 . S
C197 C198 1.398 . S
C198 H186 0.950 . S
C198 C197 1.398 . S
C198 C199 1.391 . S
C199 H187 0.950 . S
C199 C195 1.393 . S
C199 C198 1.391 . S
H200 C208 0.950 . S
H201 C213 0.950 1_455 S
H202 C210 0.950 . S
H203 C212 0.950 . S
H204 C214 0.950 . S
H205 C216 0.950 . S
H206 C218 0.950 . S
H207 C219 0.950 . S
C208 H200 0.950 . S
C208 C209 1.386 . S
C208 C210 1.391 . S
C209 C208 1.386 . S
C209 C213 1.393 . S
C210 H202 0.950 . S
C210 C208 1.391 . S
C210 C211 1.400 . S
C211 C210 1.400 . S
C211 C212 1.398 . S
C211 C217 1.491 . S
C212 H203 0.950 . S
C212 C211 1.398 . S
C212 C213 1.391 . S
C213 H201 0.950 1_655 S
C213 C209 1.393 . S
C213 C212 1.391 . S
C214 H204 0.950 . S
C214 C215 1.386 . S
C214 C216 1.391 . S
C215 C214 1.386 . S
C215 C219 1.393 . S
C216 H205 0.950 . S
C216 C214 1.391 . S
C216 C217 1.400 . S
C217 C211 1.491 . S
C217 C216 1.400 . S
C217 C218 1.398 . S
C218 H206 0.950 . S
C218 C217 1.398 . S
C218 C219 1.391 . S
C219 H207 0.950 . S
C219 C215 1.393 . S
C219 C218 1.391 . S
H220 C228 0.950 . S
H221 C233 0.950 . S
H222 C230 0.950 . S
H223 C232 0.950 . S
H224 C234 0.950 . S
H225 C236 0.950 . S
H226 C238 0.950 . S
H227 C239 0.950 . S
C228 H220 0.950 . S
C228 C229 1.386 . S
C228 C230 1.391 . S
C229 C228 1.386 . S
C229 C233 1.393 . S
C230 H222 0.950 . S
C230 C228 1.391 . S
C230 C231 1.400 . S
C231 C230 1.400 . S
C231 C232 1.398 . S
C231 C237 1.491 . S
C232 H223 0.950 . S
C232 C231 1.398 . S
C232 C233 1.391 . S
C233 H221 0.950 . S
C233 C229 1.393 . S
C233 C232 1.391 . S
C234 H224 0.950 . S
C234 C235 1.386 . S
C234 C236 1.391 . S
C235 C234 1.386 . S
C235 C239 1.393 . S
C236 H225 0.950 . S
C236 C234 1.391 . S
C236 C237 1.400 . S
C237 C231 1.491 . S
C237 C236 1.400 . S
C237 C238 1.398 . S
C238 H226 0.950 . S
C238 C237 1.398 . S
C238 C239 1.391 . S
C239 H227 0.950 . S
C239 C235 1.393 . S
C239 C238 1.391 . S
H240 C248 0.950 . S
H241 C253 0.950 . S
H242 C250 0.950 . S
H243 C252 0.950 . S
H244 C254 0.950 . S
H245 C256 0.950 . S
H246 C258 0.950 . S
H247 C259 0.950 . S
C248 H240 0.950 . S
C248 C249 1.386 . S
C248 C250 1.391 . S
C249 C248 1.386 . S
C249 C253 1.393 . S
C250 H242 0.950 . S
C250 C248 1.391 . S
C250 C251 1.400 . S
C251 C250 1.400 . S
C251 C252 1.398 . S
C251 C257 1.491 . S
C252 H243 0.950 . S
C252 C251 1.398 . S
C252 C253 1.391 . S
C253 H241 0.950 . S
C253 C249 1.393 . S
C253 C252 1.391 . S
C254 H244 0.950 . S
C254 C255 1.386 . S
C254 C256 1.391 . S
C255 C254 1.386 . S
C255 C259 1.393 . S
C256 H245 0.950 . S
C256 C254 1.391 . S
C256 C257 1.400 . S
C257 C251 1.491 . S
C257 C256 1.400 . S
C257 C258 1.398 . S
C258 H246 0.950 . S
C258 C257 1.398 . S
C258 C259 1.391 . S
C259 H247 0.950 . S
C259 C255 1.393 . S
C259 C258 1.391 . S
H260 C268 0.950 1_655 S
H261 C273 0.950 . S
H262 C270 0.950 1_655 S
H263 C272 0.950 . S
H264 C274 0.950 . S
H265 C276 0.950 . S
H266 C278 0.950 . S
H267 C279 0.950 . S
C268 H260 0.950 1_455 S
C268 C269 1.386 . S
C268 C270 1.391 . S
C269 C268 1.386 . S
C269 C273 1.393 . S
C270 H262 0.950 1_455 S
C270 C268 1.391 . S
C270 C271 1.400 . S
C271 C270 1.400 . S
C271 C272 1.398 . S
C271 C277 1.491 . S
C272 H263 0.950 . S
C272 C271 1.398 . S
C272 C273 1.391 . S
C273 H261 0.950 . S
C273 C269 1.393 . S
C273 C272 1.391 . S
C274 H264 0.950 . S
C274 C275 1.386 . S
C274 C276 1.391 . S
C275 C274 1.386 . S
C275 C279 1.393 . S
C276 H265 0.950 . S
C276 C274 1.391 . S
C276 C277 1.400 . S
C277 C271 1.491 . S
C277 C276 1.400 . S
C277 C278 1.398 . S
C278 H266 0.950 . S
C278 C277 1.398 . S
C278 C279 1.391 . S
C279 H267 0.950 . S
C279 C275 1.393 . S
C279 C278 1.391 . S
H280 C288 0.950 . S
H281 C293 0.950 . S
H282 C290 0.950 . S
H283 C292 0.950 . S
H284 C294 0.950 . S
H285 C296 0.950 . S
H286 C298 0.950 . S
H287 C299 0.950 . S
C288 H280 0.950 . S
C288 C289 1.386 . S
C288 C290 1.391 . S
C289 C288 1.386 . S
C289 C293 1.393 . S
C290 H282 0.950 . S
C290 C288 1.391 . S
C290 C291 1.400 . S
C291 C290 1.400 . S
C291 C292 1.398 . S
C291 C297 1.491 . S
C292 H283 0.950 . S
C292 C291 1.398 . S
C292 C293 1.391 . S
C293 H281 0.950 . S
C293 C289 1.393 . S
C293 C292 1.391 . S
C294 H284 0.950 . S
C294 C295 1.386 . S
C294 C296 1.391 . S
C295 C294 1.386 . S
C295 C299 1.393 . S
C296 H285 0.950 . S
C296 C294 1.391 . S
C296 C297 1.400 . S
C297 C291 1.491 . S
C297 C296 1.400 . S
C297 C298 1.398 . S
C298 H286 0.950 . S
C298 C297 1.398 . S
C298 C299 1.391 . S
C299 H287 0.950 . S
C299 C295 1.393 . S
C299 C298 1.391 . S
H300 C308 0.950 . S
H301 C313 0.950 . S
H302 C310 0.950 . S
H303 C312 0.950 . S
H304 C314 0.950 . S
H305 C316 0.950 . S
H306 C318 0.950 . S
H307 C319 0.950 . S
C308 H300 0.950 . S
C308 C309 1.386 . S
C308 C310 1.391 . S
C309 C308 1.386 . S
C309 C313 1.393 . S
C310 H302 0.950 . S
C310 C308 1.391 . S
C310 C311 1.400 . S
C311 C310 1.400 . S
C311 C312 1.398 . S
C311 C317 1.491 . S
C312 H303 0.950 . S
C312 C311 1.398 . S
C312 C313 1.391 . S
C313 H301 0.950 . S
C313 C309 1.393 . S
C313 C312 1.391 . S
C314 H304 0.950 . S
C314 C315 1.386 . S
C314 C316 1.391 . S
C315 C314 1.386 . S
C315 C319 1.393 . S
C316 H305 0.950 . S
C316 C314 1.391 . S
C316 C317 1.400 . S
C317 C311 1.491 . S
C317 C316 1.400 . S
C317 C318 1.398 . S
C318 H306 0.950 . S
C318 C317 1.398 . S
C318 C319 1.391 . S
C319 H307 0.950 . S
C319 C315 1.393 . S
C319 C318 1.391 . S
H320 C328 0.950 1_455 S
H321 C333 0.950 . S
H322 C330 0.950 . S
H323 C332 0.950 . S
H324 C334 0.950 . S
H325 C336 0.950 . S
H326 C338 0.950 . S
H327 C339 0.950 . S
C328 H320 0.950 1_655 S
C328 C329 1.386 1_655 S
C328 C330 1.391 . S
C329 C328 1.386 1_455 S
C329 C333 1.393 1_455 S
C330 H322 0.950 . S
C330 C328 1.391 . S
C330 C331 1.400 . S
C331 C330 1.400 . S
C331 C332 1.398 . S
C331 C337 1.491 . S
C332 H323 0.950 . S
C332 C331 1.398 . S
C332 C333 1.391 . S
C333 H321 0.950 . S
C333 C329 1.393 1_655 S
C333 C332 1.391 . S
C334 H324 0.950 . S
C334 C335 1.386 . S
C334 C336 1.391 . S
C335 C334 1.386 . S
C335 C339 1.393 . S
C336 H325 0.950 . S
C336 C334 1.391 . S
C336 C337 1.400 . S
C337 C331 1.491 . S
C337 C336 1.400 . S
C337 C338 1.398 . S
C338 H326 0.950 . S
C338 C337 1.398 . S
C338 C339 1.391 . S
C339 H327 0.950 . S
C339 C335 1.393 . S
C339 C338 1.391 . S
H340 C348 0.950 . S
H341 C353 0.950 . S
H342 C350 0.950 . S
H343 C352 0.950 . S
H344 C354 0.950 . S
H345 C356 0.950 . S
H346 C358 0.950 . S
H347 C359 0.950 . S
C348 H340 0.950 . S
C348 C349 1.386 . S
C348 C350 1.391 . S
C349 C348 1.386 . S
C349 C353 1.393 . S
C350 H342 0.950 . S
C350 C348 1.391 . S
C350 C351 1.400 . S
C351 C350 1.400 . S
C351 C352 1.398 . S
C351 C357 1.491 . S
C352 H343 0.950 . S
C352 C351 1.398 . S
C352 C353 1.391 . S
C353 H341 0.950 . S
C353 C349 1.393 . S
C353 C352 1.391 . S
C354 H344 0.950 . S
C354 C355 1.386 . S
C354 C356 1.391 . S
C355 C354 1.386 . S
C355 C359 1.393 . S
C356 H345 0.950 . S
C356 C354 1.391 . S
C356 C357 1.400 . S
C357 C351 1.491 . S
C357 C356 1.400 . S
C357 C358 1.398 . S
C358 H346 0.950 . S
C358 C357 1.398 . S
C358 C359 1.391 . S
C359 H347 0.950 . S
C359 C355 1.393 . S
C359 C358 1.391 . S
H360 C368 0.950 . S
H361 C373 0.950 . S
H362 C370 0.950 . S
H363 C372 0.950 . S
H364 C374 0.950 . S
H365 C376 0.950 . S
H366 C378 0.950 . S
H367 C379 0.950 . S
C368 H360 0.950 . S
C368 C369 1.386 . S
C368 C370 1.391 . S
C369 C368 1.386 . S
C369 C373 1.393 . S
C370 H362 0.950 . S
C370 C368 1.391 . S
C370 C371 1.400 . S
C371 C370 1.400 . S
C371 C372 1.398 . S
C371 C377 1.491 . S
C372 H363 0.950 . S
C372 C371 1.398 . S
C372 C373 1.391 . S
C373 H361 0.950 . S
C373 C369 1.393 . S
C373 C372 1.391 . S
C374 H364 0.950 . S
C374 C375 1.386 . S
C374 C376 1.391 . S
C375 C374 1.386 . S
C375 C379 1.393 . S
C376 H365 0.950 . S
C376 C374 1.391 . S
C376 C377 1.400 . S
C377 C371 1.491 . S
C377 C376 1.400 . S
C377 C378 1.398 . S
C378 H366 0.950 . S
C378 C377 1.398 . S
C378 C379 1.391 . S
C379 H367 0.950 . S
C379 C375 1.393 . S
C379 C378 1.391 . S
H380 C388 0.950 . S
H381 C393 0.950 . S
H382 C390 0.950 . S
H383 C392 0.950 . S
H384 C394 0.950 . S
H385 C396 0.950 . S
H386 C398 0.950 . S
H387 C399 0.950 . S
C388 H380 0.950 . S
C388 C389 1.386 . S
C388 C390 1.391 . S
C389 C388 1.386 . S
C389 C393 1.393 . S
C390 H382 0.950 . S
C390 C388 1.391 . S
C390 C391 1.400 . S
C391 C390 1.400 . S
C391 C392 1.398 . S
C391 C397 1.491 . S
C392 H383 0.950 . S
C392 C391 1.398 . S
C392 C393 1.391 . S
C393 H381 0.950 . S
C393 C389 1.393 . S
C393 C392 1.391 . S
C394 H384 0.950 . S
C394 C395 1.386 . S
C394 C396 1.391 . S
C395 C394 1.386 . S
C395 C399 1.393 . S
C396 H385 0.950 . S
C396 C394 1.391 . S
C396 C397 1.400 . S
C397 C391 1.491 . S
C397 C396 1.400 . S
C397 C398 1.398 . S
C398 H386 0.950 . S
C398 C397 1.398 . S
C398 C399 1.391 . S
C399 H387 0.950 . S
C399 C395 1.393 . S
C399 C398 1.391 . S
H400 C408 0.950 . S
H401 C413 0.950 . S
H402 C410 0.950 . S
H403 C412 0.950 . S
H404 C414 0.950 . S
H405 C416 0.950 . S
H406 C418 0.950 . S
H407 C419 0.950 . S
C408 H400 0.950 . S
C408 C409 1.386 . S
C408 C410 1.391 . S
C409 C408 1.386 . S
C409 C413 1.393 . S
C410 H402 0.950 . S
C410 C408 1.391 . S
C410 C411 1.400 . S
C411 C410 1.400 . S
C411 C412 1.398 . S
C411 C417 1.491 . S
C412 H403 0.950 . S
C412 C411 1.398 . S
C412 C413 1.391 . S
C413 H401 0.950 . S
C413 C409 1.393 . S
C413 C412 1.391 . S
C414 H404 0.950 . S
C414 C415 1.386 . S
C414 C416 1.391 . S
C415 C414 1.386 . S
C415 C419 1.393 . S
C416 H405 0.950 . S
C416 C414 1.391 . S
C416 C417 1.400 . S
C417 C411 1.491 . S
C417 C416 1.400 . S
C417 C418 1.398 . S
C418 H406 0.950 . S
C418 C417 1.398 . S
C418 C419 1.391 . S
C419 H407 0.950 . S
C419 C415 1.393 . S
C419 C418 1.391 . S
H420 C428 0.950 . S
H421 C433 0.950 . S
H422 C430 0.950 . S
H423 C432 0.950 . S
H424 C434 0.950 . S
H425 C436 0.950 . S
H426 C438 0.960 . S
H427 C439 0.950 . S
C428 H420 0.950 . S
C428 C429 1.386 . S
C428 C430 1.391 . S
C429 C428 1.386 . S
C429 C433 1.393 . S
C430 H422 0.950 . S
C430 C428 1.391 . S
C430 C431 1.400 . S
C431 C430 1.400 . S
C431 C432 1.398 . S
C431 C437 1.491 . S
C432 H423 0.950 . S
C432 C431 1.398 . S
C432 C433 1.391 . S
C433 H421 0.950 . S
C433 C429 1.393 . S
C433 C432 1.391 . S
C434 H424 0.950 . S
C434 C435 1.386 . S
C434 C436 1.391 1_545 S
C435 C434 1.386 . S
C435 C439 1.393 . S
C436 H425 0.950 . S
C436 C434 1.391 1_565 S
C436 C437 1.400 . S
C437 C431 1.491 . S
C437 C436 1.400 . S
C437 C438 1.413 . S
C438 H426 0.960 . S
C438 C437 1.413 . S
C438 C439 1.366 1_565 S
C439 H427 0.950 . S
C439 C435 1.393 . S
C439 C438 1.366 1_545 S
H440 C448 0.950 . S
H441 C453 0.950 . S
H442 C450 0.943 1_565 S
H443 C452 0.950 . S
H444 C454 0.950 . S
H445 C456 0.950 . S
H446 C458 0.950 . S
H447 C459 0.950 . S
C448 H440 0.950 . S
C448 C449 1.386 . S
C448 C450 1.391 . S
C449 C448 1.386 . S
C449 C453 1.393 . S
C450 H442 0.943 1_545 S
C450 C448 1.391 . S
C450 C451 1.394 1_545 S
C451 C450 1.394 1_565 S
C451 C452 1.388 1_565 S
C451 C457 1.506 . S
C452 H443 0.950 . S
C452 C451 1.388 1_545 S
C452 C453 1.391 . S
C453 H441 0.950 . S
C453 C449 1.393 . S
C453 C452 1.391 . S
C454 H444 0.950 . S
C454 C455 1.386 . S
C454 C456 1.391 . S
C455 C454 1.386 . S
C455 C459 1.393 . S
C456 H445 0.950 . S
C456 C454 1.391 . S
C456 C457 1.400 . S
C457 C451 1.506 . S
C457 C456 1.400 . S
C457 C458 1.398 . S
C458 H446 0.950 . S
C458 C457 1.398 . S
C458 C459 1.391 . S
C459 H447 0.950 . S
C459 C455 1.393 . S
C459 C458 1.391 . S
H460 C468 0.950 . S
H461 C473 0.950 . S
H462 C470 0.950 . S
H463 C472 0.950 . S
H464 C474 0.950 . S
H465 C476 0.950 . S
H466 C478 0.950 1_545 S
H467 C479 0.950 . S
C468 H460 0.950 . S
C468 C469 1.386 . S
C468 C470 1.391 . S
C469 C468 1.386 . S
C469 C473 1.393 . S
C470 H462 0.950 . S
C470 C468 1.391 . S
C470 C471 1.400 . S
C471 C470 1.400 . S
C471 C472 1.398 . S
C471 C477 1.491 . S
C472 H463 0.950 . S
C472 C471 1.398 . S
C472 C473 1.391 . S
C473 H461 0.950 . S
C473 C469 1.393 . S
C473 C472 1.391 . S
C474 H464 0.950 . S
C474 C475 1.386 . S
C474 C476 1.391 . S
C475 C474 1.386 . S
C475 C479 1.393 . S
C476 H465 0.950 . S
C476 C474 1.391 . S
C476 C477 1.400 1_565 S
C477 C471 1.491 . S
C477 C476 1.400 1_545 S
C477 C478 1.398 1_545 S
C478 H466 0.950 1_565 S
C478 C477 1.398 1_565 S
C478 C479 1.391 . S
C479 H467 0.950 . S
C479 C475 1.393 . S
C479 C478 1.391 . S
H480 C488 0.950 1_655 S
H481 C493 0.950 . S
H482 C490 0.950 1_655 S
H483 C492 0.950 . S
H484 C494 0.950 . S
H485 C496 0.950 . S
H486 C498 0.950 . S
H487 C499 0.950 . S
C488 H480 0.950 1_455 S
C488 C489 1.386 . S
C488 C490 1.391 . S
C489 C488 1.386 . S
C489 C493 1.393 . S
C490 H482 0.950 1_455 S
C490 C488 1.391 . S
C490 C491 1.400 . S
C491 C490 1.400 . S
C491 C492 1.398 . S
C491 C497 1.491 1_565 S
C492 H483 0.950 . S
C492 C491 1.398 . S
C492 C493 1.391 . S
C493 H481 0.950 . S
C493 C489 1.393 . S
C493 C492 1.391 . S
C494 H484 0.950 . S
C494 C495 1.386 . S
C494 C496 1.391 . S
C495 C494 1.386 . S
C495 C499 1.393 . S
C496 H485 0.950 . S
C496 C494 1.391 . S
C496 C497 1.400 . S
C497 C491 1.491 1_545 S
C497 C496 1.400 . S
C497 C498 1.398 . S
C498 H486 0.950 . S
C498 C497 1.398 . S
C498 C499 1.391 . S
C499 H487 0.950 . S
C499 C495 1.393 . S
C499 C498 1.391 . S
H500 C508 0.950 . S
H501 C513 0.950 . S
H502 C510 0.950 1_556 S
H503 C512 0.950 1_556 S
H504 C514 0.950 . S
H505 C516 0.950 . S
H506 C518 0.950 . S
H507 C519 0.950 . S
C508 H500 0.950 . S
C508 C509 1.386 . S
C508 C510 1.391 . S
C509 C508 1.386 . S
C509 C513 1.393 . S
C510 H502 0.950 1_554 S
C510 C508 1.391 . S
C510 C511 1.400 1_554 S
C511 C510 1.400 1_556 S
C511 C512 1.398 1_556 S
C511 C517 1.491 . S
C512 H503 0.950 1_554 S
C512 C511 1.398 1_554 S
C512 C513 1.391 . S
C513 H501 0.950 . S
C513 C509 1.393 . S
C513 C512 1.391 . S
C514 H504 0.950 . S
C514 C515 1.386 . S
C514 C516 1.391 . S
C515 C514 1.386 . S
C515 C519 1.393 . S
C516 H505 0.950 . S
C516 C514 1.391 . S
C516 C517 1.400 . S
C517 C511 1.491 . S
C517 C516 1.400 . S
C517 C518 1.398 . S
C518 H506 0.950 . S
C518 C517 1.398 . S
C518 C519 1.391 . S
C519 H507 0.950 . S
C519 C515 1.393 . S
C519 C518 1.391 . S
H520 C528 0.950 . S
H521 C533 0.950 . S
H522 C530 0.950 . S
H523 C532 0.950 . S
H524 C534 0.950 . S
H525 C536 0.950 . S
H526 C538 0.950 . S
H527 C539 0.950 . S
C528 H520 0.950 . S
C528 C529 1.386 . S
C528 C530 1.391 . S
C529 C528 1.386 . S
C529 C533 1.393 . S
C530 H522 0.950 . S
C530 C528 1.391 . S
C530 C531 1.400 . S
C531 C530 1.400 . S
C531 C532 1.398 . S
C531 C537 1.491 . S
C532 H523 0.950 . S
C532 C531 1.398 . S
C532 C533 1.391 . S
C533 H521 0.950 . S
C533 C529 1.393 . S
C533 C532 1.391 . S
C534 H524 0.950 . S
C534 C535 1.386 . S
C534 C536 1.391 . S
C535 C534 1.386 . S
C535 C539 1.393 . S
C536 H525 0.950 . S
C536 C534 1.391 . S
C536 C537 1.400 . S
C537 C531 1.491 . S
C537 C536 1.400 . S
C537 C538 1.398 . S
C538 H526 0.950 . S
C538 C537 1.398 . S
C538 C539 1.391 . S
C539 H527 0.950 . S
C539 C535 1.393 . S
C539 C538 1.391 . S
H540 C548 0.950 . S
H541 C553 0.950 . S
H542 C550 0.950 . S
H543 C552 0.950 . S
H544 C554 0.950 . S
H545 C556 0.950 . S
H546 C558 0.950 . S
H547 C559 0.950 . S
C548 H540 0.950 . S
C548 C549 1.386 . S
C548 C550 1.391 . S
C549 C548 1.386 . S
C549 C553 1.393 . S
C550 H542 0.950 . S
C550 C548 1.391 . S
C550 C551 1.400 . S
C551 C550 1.400 . S
C551 C552 1.398 . S
C551 C557 1.491 . S
C552 H543 0.950 . S
C552 C551 1.398 . S
C552 C553 1.391 . S
C553 H541 0.950 . S
C553 C549 1.393 . S
C553 C552 1.391 . S
C554 H544 0.950 . S
C554 C555 1.386 . S
C554 C556 1.391 . S
C555 C554 1.386 . S
C555 C559 1.393 . S
C556 H545 0.950 . S
C556 C554 1.391 . S
C556 C557 1.400 . S
C557 C551 1.491 . S
C557 C556 1.400 . S
C557 C558 1.398 . S
C558 H546 0.950 . S
C558 C557 1.398 . S
C558 C559 1.391 . S
C559 H547 0.950 . S
C559 C555 1.393 . S
C559 C558 1.391 . S
H560 C568 0.950 . S
H561 C573 0.950 . S
H562 C570 0.950 . S
H563 C572 0.950 . S
H564 C574 0.950 . S
H565 C576 0.950 . S
H566 C578 0.950 . S
H567 C579 0.950 . S
C568 H560 0.950 . S
C568 C569 1.386 . S
C568 C570 1.391 . S
C569 C568 1.386 . S
C569 C573 1.393 . S
C570 H562 0.950 . S
C570 C568 1.391 . S
C570 C571 1.400 . S
C571 C570 1.400 . S
C571 C572 1.398 . S
C571 C577 1.491 . S
C572 H563 0.950 . S
C572 C571 1.398 . S
C572 C573 1.391 . S
C573 H561 0.950 . S
C573 C569 1.393 . S
C573 C572 1.391 . S
C574 H564 0.950 . S
C574 C575 1.386 . S
C574 C576 1.391 . S
C575 C574 1.386 . S
C575 C579 1.393 . S
C576 H565 0.950 . S
C576 C574 1.391 . S
C576 C577 1.400 . S
C577 C571 1.491 . S
C577 C576 1.400 . S
C577 C578 1.398 . S
C578 H566 0.950 . S
C578 C577 1.398 . S
C578 C579 1.391 . S
C579 H567 0.950 . S
C579 C575 1.393 . S
C579 C578 1.391 . S
H580 C588 0.950 . S
H581 C593 0.950 . S
H582 C590 0.950 . S
H583 C592 0.950 1_554 S
H584 C594 0.950 . S
H585 C596 0.950 . S
H586 C598 0.950 . S
H587 C599 0.950 . S
C588 H580 0.950 . S
C588 C589 1.386 . S
C588 C590 1.391 . S
C589 C588 1.386 . S
C589 C593 1.393 . S
C590 H582 0.950 . S
C590 C588 1.391 . S
C590 C591 1.400 1_556 S
C591 C590 1.400 1_554 S
C591 C592 1.398 1_554 S
C591 C597 1.491 . S
C592 H583 0.950 1_556 S
C592 C591 1.398 1_556 S
C592 C593 1.391 . S
C593 H581 0.950 . S
C593 C589 1.393 . S
C593 C592 1.391 . S
C594 H584 0.950 . S
C594 C595 1.386 . S
C594 C596 1.391 . S
C595 C594 1.386 . S
C595 C599 1.393 . S
C596 H585 0.950 . S
C596 C594 1.391 . S
C596 C597 1.400 . S
C597 C591 1.491 . S
C597 C596 1.400 . S
C597 C598 1.398 . S
C598 H586 0.950 . S
C598 C597 1.398 . S
C598 C599 1.391 . S
C599 H587 0.950 . S
C599 C595 1.393 . S
C599 C598 1.391 . S
H600 C608 0.950 . S
H601 C613 0.950 . S
H602 C610 0.950 . S
H603 C612 0.950 . S
H604 C614 0.950 . S
H605 C616 0.950 . S
H606 C618 0.950 . S
H607 C619 0.950 . S
C608 H600 0.950 . S
C608 C609 1.386 . S
C608 C610 1.391 . S
C609 C608 1.386 . S
C609 C613 1.393 . S
C610 H602 0.950 . S
C610 C608 1.391 . S
C610 C611 1.400 . S
C611 C610 1.400 . S
C611 C612 1.398 . S
C611 C617 1.491 . S
C612 H603 0.950 . S
C612 C611 1.398 . S
C612 C613 1.391 . S
C613 H601 0.950 . S
C613 C609 1.393 . S
C613 C612 1.391 . S
C614 H604 0.950 . S
C614 C615 1.386 . S
C614 C616 1.391 . S
C615 C614 1.386 . S
C615 C619 1.393 . S
C616 H605 0.950 . S
C616 C614 1.391 . S
C616 C617 1.400 . S
C617 C611 1.491 . S
C617 C616 1.400 . S
C617 C618 1.398 . S
C618 H606 0.950 . S
C618 C617 1.398 . S
C618 C619 1.391 . S
C619 H607 0.950 . S
C619 C615 1.393 . S
C619 C618 1.391 . S
H620 C628 0.950 . S
H621 C633 0.950 . S
H622 C630 0.950 . S
H623 C632 0.950 . S
H624 C634 0.950 . S
H625 C636 0.950 . S
H626 C638 0.950 . S
H627 C639 0.950 . S
C628 H620 0.950 . S
C628 C629 1.386 . S
C628 C630 1.391 . S
C629 C628 1.386 . S
C629 C633 1.393 . S
C630 H622 0.950 . S
C630 C628 1.391 . S
C630 C631 1.400 . S
C631 C630 1.400 . S
C631 C632 1.398 . S
C631 C637 1.491 . S
C632 H623 0.950 . S
C632 C631 1.398 . S
C632 C633 1.391 . S
C633 H621 0.950 . S
C633 C629 1.393 . S
C633 C632 1.391 . S
C634 H624 0.950 . S
C634 C635 1.386 . S
C634 C636 1.391 . S
C635 C634 1.386 . S
C635 C639 1.393 . S
C636 H625 0.950 . S
C636 C634 1.391 . S
C636 C637 1.400 . S
C637 C631 1.491 . S
C637 C636 1.400 . S
C637 C638 1.398 . S
C638 H626 0.950 . S
C638 C637 1.398 . S
C638 C639 1.391 . S
C639 H627 0.950 . S
C639 C635 1.393 . S
C639 C638 1.391 . S
H640 C648 0.950 . S
H641 C653 0.950 . S
H642 C650 0.950 . S
H643 C652 0.950 . S
H644 C654 0.950 . S
H645 C656 0.950 . S
H646 C658 0.950 . S
H647 C659 0.950 . S
C648 H640 0.950 . S
C648 C649 1.386 . S
C648 C650 1.391 . S
C649 C648 1.386 . S
C649 C653 1.393 . S
C650 H642 0.950 . S
C650 C648 1.391 . S
C650 C651 1.400 . S
C651 C650 1.400 . S
C651 C652 1.398 . S
C651 C657 1.491 . S
C652 H643 0.950 . S
C652 C651 1.398 . S
C652 C653 1.391 . S
C653 H641 0.950 . S
C653 C649 1.393 . S
C653 C652 1.391 . S
C654 H644 0.950 . S
C654 C655 1.386 . S
C654 C656 1.391 . S
C655 C654 1.386 . S
C655 C659 1.393 . S
C656 H645 0.950 . S
C656 C654 1.391 . S
C656 C657 1.400 . S
C657 C651 1.491 . S
C657 C656 1.400 . S
C657 C658 1.398 . S
C658 H646 0.950 . S
C658 C657 1.398 . S
C658 C659 1.391 . S
C659 H647 0.950 . S
C659 C655 1.393 . S
C659 C658 1.391 . S
C195 C103 1.439 . S
C189 C6 1.579 . S
C215 C121 1.582 . S
C209 C18 1.691 1_655 S
C229 C28 1.387 . S
C235 C145 1.322 . S
C255 C175 1.108 1_655 S
C249 C40 1.215 . S
C275 C163 1.243 . S
C269 C54 1.351 . S
C289 C64 1.197 . S
C295 C116 1.157 1_655 S
C309 C76 1.609 . S
C315 C136 1.521 . S
C329 C90 1.702 . S
C335 C141 1.547 . S
C349 C88 1.172 . S
C355 C157 1.105 . S
C369 C66 1.716 . S
C375 C112 1.508 . S
C395 C179 1.588 . S
C389 C42 1.695 . S
C415 C124 1.100 . S
C409 C16 1.212 . S
C429 C30 1.573 . S
C435 C142 1.431 . S
C449 C4 1.414 . S
C455 C100 1.304 . S
C475 C120 1.255 . S
C469 C78 1.331 . S
C495 C166 1.487 . S
C489 C52 1.592 . S
C515 C162 1.367 . S
C509 C9 1.486 . S
C535 C115 1.482 . S
C529 C21 1.559 . S
C549 C33 1.467 . S
C555 C137 1.339 . S
C569 C45 1.577 . S
C575 C158 1.489 . S
C595 C99 1.334 . S
C589 C57 1.547 . S
C609 C69 1.516 . S
C615 C133 1.371 . S
C635 C154 1.334 . S
C629 C81 1.561 . S
C655 C178 1.364 . S
C649 C93 1.495 . S
