# Generated by pormake.
# Topology tbo, (3,4)-cn, num edge types: 1
# Building blocks:
#     Node 0, Type 0, BuildingBlock: OLANEW_clean_sbu_2, # of connection points: 3
#     Node 1, Type 0, BuildingBlock: OLANEW_clean_sbu_2, # of connection points: 3
#     Node 2, Type 0, BuildingBlock: OLANEW_clean_sbu_2, # of connection points: 3
#     Node 3, Type 0, BuildingBlock: OLANEW_clean_sbu_2, # of connection points: 3
#     Node 4, Type 0, BuildingBlock: OLANEW_clean_sbu_2, # of connection points: 3
#     Node 5, Type 0, BuildingBlock: OLANEW_clean_sbu_2, # of connection points: 3
#     Node 6, Type 0, BuildingBlock: OLANEW_clean_sbu_2, # of connection points: 3
#     Node 7, Type 0, BuildingBlock: OLANEW_clean_sbu_2, # of connection points: 3
#     Node 8, Type 0, BuildingBlock: OLANEW_clean_sbu_2, # of connection points: 3
#     Node 9, Type 0, BuildingBlock: OLANEW_clean_sbu_2, # of connection points: 3
#     Node 10, Type 0, BuildingBlock: OLANEW_clean_sbu_2, # of connection points: 3
#     Node 11, Type 0, BuildingBlock: OLANEW_clean_sbu_2, # of connection points: 3
#     Node 12, Type 0, BuildingBlock: OLANEW_clean_sbu_2, # of connection points: 3
#     Node 13, Type 0, BuildingBlock: OLANEW_clean_sbu_2, # of connection points: 3
#     Node 14, Type 0, BuildingBlock: OLANEW_clean_sbu_2, # of connection points: 3
#     Node 15, Type 0, BuildingBlock: OLANEW_clean_sbu_2, # of connection points: 3
#     Node 16, Type 0, BuildingBlock: OLANEW_clean_sbu_2, # of connection points: 3
#     Node 17, Type 0, BuildingBlock: OLANEW_clean_sbu_2, # of connection points: 3
#     Node 18, Type 0, BuildingBlock: OLANEW_clean_sbu_2, # of connection points: 3
#     Node 19, Type 0, BuildingBlock: OLANEW_clean_sbu_2, # of connection points: 3
#     Node 20, Type 0, BuildingBlock: OLANEW_clean_sbu_2, # of connection points: 3
#     Node 21, Type 0, BuildingBlock: OLANEW_clean_sbu_2, # of connection points: 3
#     Node 22, Type 0, BuildingBlock: OLANEW_clean_sbu_2, # of connection points: 3
#     Node 23, Type 0, BuildingBlock: OLANEW_clean_sbu_2, # of connection points: 3
#     Node 24, Type 0, BuildingBlock: OLANEW_clean_sbu_2, # of connection points: 3
#     Node 25, Type 0, BuildingBlock: OLANEW_clean_sbu_2, # of connection points: 3
#     Node 26, Type 0, BuildingBlock: OLANEW_clean_sbu_2, # of connection points: 3
#     Node 27, Type 0, BuildingBlock: OLANEW_clean_sbu_2, # of connection points: 3
#     Node 28, Type 0, BuildingBlock: OLANEW_clean_sbu_2, # of connection points: 3
#     Node 29, Type 0, BuildingBlock: OLANEW_clean_sbu_2, # of connection points: 3
#     Node 30, Type 0, BuildingBlock: OLANEW_clean_sbu_2, # of connection points: 3
#     Node 31, Type 0, BuildingBlock: OLANEW_clean_sbu_2, # of connection points: 3
#     Node 32, Type 1, BuildingBlock: KUFVIS_clean_linker_0, # of connection points: 4
#     Node 33, Type 1, BuildingBlock: KUFVIS_clean_linker_0, # of connection points: 4
#     Node 34, Type 1, BuildingBlock: KUFVIS_clean_linker_0, # of connection points: 4
#     Node 35, Type 1, BuildingBlock: KUFVIS_clean_linker_0, # of connection points: 4
#     Node 36, Type 1, BuildingBlock: KUFVIS_clean_linker_0, # of connection points: 4
#     Node 37, Type 1, BuildingBlock: KUFVIS_clean_linker_0, # of connection points: 4
#     Node 38, Type 1, BuildingBlock: KUFVIS_clean_linker_0, # of connection points: 4
#     Node 39, Type 1, BuildingBlock: KUFVIS_clean_linker_0, # of connection points: 4
#     Node 40, Type 1, BuildingBlock: KUFVIS_clean_linker_0, # of connection points: 4
#     Node 41, Type 1, BuildingBlock: KUFVIS_clean_linker_0, # of connection points: 4
#     Node 42, Type 1, BuildingBlock: KUFVIS_clean_linker_0, # of connection points: 4
#     Node 43, Type 1, BuildingBlock: KUFVIS_clean_linker_0, # of connection points: 4
#     Node 44, Type 1, BuildingBlock: KUFVIS_clean_linker_0, # of connection points: 4
#     Node 45, Type 1, BuildingBlock: KUFVIS_clean_linker_0, # of connection points: 4
#     Node 46, Type 1, BuildingBlock: KUFVIS_clean_linker_0, # of connection points: 4
#     Node 47, Type 1, BuildingBlock: KUFVIS_clean_linker_0, # of connection points: 4
#     Node 48, Type 1, BuildingBlock: KUFVIS_clean_linker_0, # of connection points: 4
#     Node 49, Type 1, BuildingBlock: KUFVIS_clean_linker_0, # of connection points: 4
#     Node 50, Type 1, BuildingBlock: KUFVIS_clean_linker_0, # of connection points: 4
#     Node 51, Type 1, BuildingBlock: KUFVIS_clean_linker_0, # of connection points: 4
#     Node 52, Type 1, BuildingBlock: KUFVIS_clean_linker_0, # of connection points: 4
#     Node 53, Type 1, BuildingBlock: KUFVIS_clean_linker_0, # of connection points: 4
#     Node 54, Type 1, BuildingBlock: KUFVIS_clean_linker_0, # of connection points: 4
#     Node 55, Type 1, BuildingBlock: KUFVIS_clean_linker_0, # of connection points: 4
#     Edge 56, Type (0, 1), BuildingBlock: AJUNOK_clean_linker_0, # of connection points: 2
#     Edge 57, Type (0, 1), BuildingBlock: AJUNOK_clean_linker_0, # of connection points: 2
#     Edge 58, Type (0, 1), BuildingBlock: AJUNOK_clean_linker_0, # of connection points: 2
#     Edge 59, Type (0, 1), BuildingBlock: AJUNOK_clean_linker_0, # of connection points: 2
#     Edge 60, Type (0, 1), BuildingBlock: AJUNOK_clean_linker_0, # of connection points: 2
#     Edge 61, Type (0, 1), BuildingBlock: AJUNOK_clean_linker_0, # of connection points: 2
#     Edge 62, Type (0, 1), BuildingBlock: AJUNOK_clean_linker_0, # of connection points: 2
#     Edge 63, Type (0, 1), BuildingBlock: AJUNOK_clean_linker_0, # of connection points: 2
#     Edge 64, Type (0, 1), BuildingBlock: AJUNOK_clean_linker_0, # of connection points: 2
#     Edge 65, Type (0, 1), BuildingBlock: AJUNOK_clean_linker_0, # of connection points: 2
#     Edge 66, Type (0, 1), BuildingBlock: AJUNOK_clean_linker_0, # of connection points: 2
#     Edge 67, Type (0, 1), BuildingBlock: AJUNOK_clean_linker_0, # of connection points: 2
#     Edge 68, Type (0, 1), BuildingBlock: AJUNOK_clean_linker_0, # of connection points: 2
#     Edge 69, Type (0, 1), BuildingBlock: AJUNOK_clean_linker_0, # of connection points: 2
#     Edge 70, Type (0, 1), BuildingBlock: AJUNOK_clean_linker_0, # of connection points: 2
#     Edge 71, Type (0, 1), BuildingBlock: AJUNOK_clean_linker_0, # of connection points: 2
#     Edge 72, Type (0, 1), BuildingBlock: AJUNOK_clean_linker_0, # of connection points: 2
#     Edge 73, Type (0, 1), BuildingBlock: AJUNOK_clean_linker_0, # of connection points: 2
#     Edge 74, Type (0, 1), BuildingBlock: AJUNOK_clean_linker_0, # of connection points: 2
#     Edge 75, Type (0, 1), BuildingBlock: AJUNOK_clean_linker_0, # of connection points: 2
#     Edge 76, Type (0, 1), BuildingBlock: AJUNOK_clean_linker_0, # of connection points: 2
#     Edge 77, Type (0, 1), BuildingBlock: AJUNOK_clean_linker_0, # of connection points: 2
#     Edge 78, Type (0, 1), BuildingBlock: AJUNOK_clean_linker_0, # of connection points: 2
#     Edge 79, Type (0, 1), BuildingBlock: AJUNOK_clean_linker_0, # of connection points: 2
#     Edge 80, Type (0, 1), BuildingBlock: AJUNOK_clean_linker_0, # of connection points: 2
#     Edge 81, Type (0, 1), BuildingBlock: AJUNOK_clean_linker_0, # of connection points: 2
#     Edge 82, Type (0, 1), BuildingBlock: AJUNOK_clean_linker_0, # of connection points: 2
#     Edge 83, Type (0, 1), BuildingBlock: AJUNOK_clean_linker_0, # of connection points: 2
#     Edge 84, Type (0, 1), BuildingBlock: AJUNOK_clean_linker_0, # of connection points: 2
#     Edge 85, Type (0, 1), BuildingBlock: AJUNOK_clean_linker_0, # of connection points: 2
#     Edge 86, Type (0, 1), BuildingBlock: AJUNOK_clean_linker_0, # of connection points: 2
#     Edge 87, Type (0, 1), BuildingBlock: AJUNOK_clean_linker_0, # of connection points: 2
#     Edge 88, Type (0, 1), BuildingBlock: AJUNOK_clean_linker_0, # of connection points: 2
#     Edge 89, Type (0, 1), BuildingBlock: AJUNOK_clean_linker_0, # of connection points: 2
#     Edge 90, Type (0, 1), BuildingBlock: AJUNOK_clean_linker_0, # of connection points: 2
#     Edge 91, Type (0, 1), BuildingBlock: AJUNOK_clean_linker_0, # of connection points: 2
#     Edge 92, Type (0, 1), BuildingBlock: AJUNOK_clean_linker_0, # of connection points: 2
#     Edge 93, Type (0, 1), BuildingBlock: AJUNOK_clean_linker_0, # of connection points: 2
#     Edge 94, Type (0, 1), BuildingBlock: AJUNOK_clean_linker_0, # of connection points: 2
#     Edge 95, Type (0, 1), BuildingBlock: AJUNOK_clean_linker_0, # of connection points: 2
#     Edge 96, Type (0, 1), BuildingBlock: AJUNOK_clean_linker_0, # of connection points: 2
#     Edge 97, Type (0, 1), BuildingBlock: AJUNOK_clean_linker_0, # of connection points: 2
#     Edge 98, Type (0, 1), BuildingBlock: AJUNOK_clean_linker_0, # of connection points: 2
#     Edge 99, Type (0, 1), BuildingBlock: AJUNOK_clean_linker_0, # of connection points: 2
#     Edge 100, Type (0, 1), BuildingBlock: AJUNOK_clean_linker_0, # of connection points: 2
#     Edge 101, Type (0, 1), BuildingBlock: AJUNOK_clean_linker_0, # of connection points: 2
#     Edge 102, Type (0, 1), BuildingBlock: AJUNOK_clean_linker_0, # of connection points: 2
#     Edge 103, Type (0, 1), BuildingBlock: AJUNOK_clean_linker_0, # of connection points: 2
#     Edge 104, Type (0, 1), BuildingBlock: AJUNOK_clean_linker_0, # of connection points: 2
#     Edge 105, Type (0, 1), BuildingBlock: AJUNOK_clean_linker_0, # of connection points: 2
#     Edge 106, Type (0, 1), BuildingBlock: AJUNOK_clean_linker_0, # of connection points: 2
#     Edge 107, Type (0, 1), BuildingBlock: AJUNOK_clean_linker_0, # of connection points: 2
#     Edge 108, Type (0, 1), BuildingBlock: AJUNOK_clean_linker_0, # of connection points: 2
#     Edge 109, Type (0, 1), BuildingBlock: AJUNOK_clean_linker_0, # of connection points: 2
#     Edge 110, Type (0, 1), BuildingBlock: AJUNOK_clean_linker_0, # of connection points: 2
#     Edge 111, Type (0, 1), BuildingBlock: AJUNOK_clean_linker_0, # of connection points: 2
#     Edge 112, Type (0, 1), BuildingBlock: AJUNOK_clean_linker_0, # of connection points: 2
#     Edge 113, Type (0, 1), BuildingBlock: AJUNOK_clean_linker_0, # of connection points: 2
#     Edge 114, Type (0, 1), BuildingBlock: AJUNOK_clean_linker_0, # of connection points: 2
#     Edge 115, Type (0, 1), BuildingBlock: AJUNOK_clean_linker_0, # of connection points: 2
#     Edge 116, Type (0, 1), BuildingBlock: AJUNOK_clean_linker_0, # of connection points: 2
#     Edge 117, Type (0, 1), BuildingBlock: AJUNOK_clean_linker_0, # of connection points: 2
#     Edge 118, Type (0, 1), BuildingBlock: AJUNOK_clean_linker_0, # of connection points: 2
#     Edge 119, Type (0, 1), BuildingBlock: AJUNOK_clean_linker_0, # of connection points: 2
#     Edge 120, Type (0, 1), BuildingBlock: AJUNOK_clean_linker_0, # of connection points: 2
#     Edge 121, Type (0, 1), BuildingBlock: AJUNOK_clean_linker_0, # of connection points: 2
#     Edge 122, Type (0, 1), BuildingBlock: AJUNOK_clean_linker_0, # of connection points: 2
#     Edge 123, Type (0, 1), BuildingBlock: AJUNOK_clean_linker_0, # of connection points: 2
#     Edge 124, Type (0, 1), BuildingBlock: AJUNOK_clean_linker_0, # of connection points: 2
#     Edge 125, Type (0, 1), BuildingBlock: AJUNOK_clean_linker_0, # of connection points: 2
#     Edge 126, Type (0, 1), BuildingBlock: AJUNOK_clean_linker_0, # of connection points: 2
#     Edge 127, Type (0, 1), BuildingBlock: AJUNOK_clean_linker_0, # of connection points: 2
#     Edge 128, Type (0, 1), BuildingBlock: AJUNOK_clean_linker_0, # of connection points: 2
#     Edge 129, Type (0, 1), BuildingBlock: AJUNOK_clean_linker_0, # of connection points: 2
#     Edge 130, Type (0, 1), BuildingBlock: AJUNOK_clean_linker_0, # of connection points: 2
#     Edge 131, Type (0, 1), BuildingBlock: AJUNOK_clean_linker_0, # of connection points: 2
#     Edge 132, Type (0, 1), BuildingBlock: AJUNOK_clean_linker_0, # of connection points: 2
#     Edge 133, Type (0, 1), BuildingBlock: AJUNOK_clean_linker_0, # of connection points: 2
#     Edge 134, Type (0, 1), BuildingBlock: AJUNOK_clean_linker_0, # of connection points: 2
#     Edge 135, Type (0, 1), BuildingBlock: AJUNOK_clean_linker_0, # of connection points: 2
#     Edge 136, Type (0, 1), BuildingBlock: AJUNOK_clean_linker_0, # of connection points: 2
#     Edge 137, Type (0, 1), BuildingBlock: AJUNOK_clean_linker_0, # of connection points: 2
#     Edge 138, Type (0, 1), BuildingBlock: AJUNOK_clean_linker_0, # of connection points: 2
#     Edge 139, Type (0, 1), BuildingBlock: AJUNOK_clean_linker_0, # of connection points: 2
#     Edge 140, Type (0, 1), BuildingBlock: AJUNOK_clean_linker_0, # of connection points: 2
#     Edge 141, Type (0, 1), BuildingBlock: AJUNOK_clean_linker_0, # of connection points: 2
#     Edge 142, Type (0, 1), BuildingBlock: AJUNOK_clean_linker_0, # of connection points: 2
#     Edge 143, Type (0, 1), BuildingBlock: AJUNOK_clean_linker_0, # of connection points: 2
#     Edge 144, Type (0, 1), BuildingBlock: AJUNOK_clean_linker_0, # of connection points: 2
#     Edge 145, Type (0, 1), BuildingBlock: AJUNOK_clean_linker_0, # of connection points: 2
#     Edge 146, Type (0, 1), BuildingBlock: AJUNOK_clean_linker_0, # of connection points: 2
#     Edge 147, Type (0, 1), BuildingBlock: AJUNOK_clean_linker_0, # of connection points: 2
#     Edge 148, Type (0, 1), BuildingBlock: AJUNOK_clean_linker_0, # of connection points: 2
#     Edge 149, Type (0, 1), BuildingBlock: AJUNOK_clean_linker_0, # of connection points: 2
#     Edge 150, Type (0, 1), BuildingBlock: AJUNOK_clean_linker_0, # of connection points: 2
#     Edge 151, Type (0, 1), BuildingBlock: AJUNOK_clean_linker_0, # of connection points: 2
# Relax obj value: 0.021
# Max RMSD: 0.154
# Mean RMSD: 0.096
data_MOF--net-tbo--node1-OLANEW_clean_sbu_2--node2-KUFVIS_clean_linker_0--edge1-AJUNOK_clean_linker_0
_symmetry_space_group_name_H-M    P1
_symmetry_Int_Tables_number       1
_symmetry_cell_setting            triclinic
loop_
_symmetry_equiv_pos_as_xyz
'x, y, z'
_cell_length_a     57.505707
_cell_length_b     59.492061
_cell_length_c     56.880217
_cell_angle_alpha  96.67479
_cell_angle_beta   87.763368
_cell_angle_gamma 97.405952
loop_
_atom_site_label
_atom_site_type_symbol
_atom_site_fract_x
_atom_site_fract_y
_atom_site_fract_z
_atom_type_partial_charge
O0 O 0.22017 0.1617 0.15412 0.0
Cd1 Cd 0.19674 0.13875 0.18207 0.0
O2 O 0.19362 0.18356 0.14675 0.0
Cd3 Cd 0.1664 0.17546 0.17363 0.0
O4 O 0.13955 0.19029 0.19699 0.0
C5 C 0.1217 0.19611 0.18783 0.0
O6 O 0.11909 0.19136 0.16487 0.0
C7 C 0.21379 0.17704 0.14278 0.0
C8 C 0.22284 0.11349 0.20792 0.0
O9 O 0.21647 0.10599 0.18681 0.0
O10 O 0.21731 0.133 0.2166 0.0
O11 O 0.88951 0.19087 0.17077 0.0
Cd12 Cd 0.86187 0.15936 0.15264 0.0
O13 O 0.91612 0.16907 0.17729 0.0
Cd14 Cd 0.89245 0.13751 0.16998 0.0
O15 O 0.86973 0.11094 0.18616 0.0
C16 C 0.86979 0.11361 0.20866 0.0
O17 O 0.88313 0.1312 0.21923 0.0
C18 C 0.90982 0.18884 0.17771 0.0
C19 C 0.83163 0.17613 0.12357 0.0
O20 O 0.82574 0.17319 0.14506 0.0
O21 O 0.85163 0.17078 0.11577 0.0
O22 O 0.89385 0.82838 0.15613 0.0
Cd23 Cd 0.91813 0.85602 0.18321 0.0
O24 O 0.87654 0.85516 0.14292 0.0
Cd25 Cd 0.88794 0.88248 0.1706 0.0
O26 O 0.87433 0.90758 0.19701 0.0
C27 C 0.85216 0.90461 0.19993 0.0
O28 O 0.84017 0.88724 0.18749 0.0
C29 C 0.88005 0.83438 0.14174 0.0
C30 C 0.94585 0.83538 0.21162 0.0
O31 O 0.92595 0.84119 0.21918 0.0
O32 O 0.95259 0.83915 0.19053 0.0
O33 O 0.21856 0.90915 0.1598 0.0
Cd34 Cd 0.19231 0.87759 0.13989 0.0
O35 O 0.23371 0.88525 0.17995 0.0
Cd36 Cd 0.20542 0.8571 0.17441 0.0
O37 O 0.17868 0.83012 0.18437 0.0
C38 C 0.15871 0.83538 0.19163 0.0
O39 O 0.15451 0.85655 0.19136 0.0
C40 C 0.23403 0.90509 0.17358 0.0
C41 C 0.21781 0.84996 0.10831 0.0
O42 O 0.21682 0.84823 0.13052 0.0
O43 O 0.20639 0.86459 0.10057 0.0
O44 O 0.23569 0.88065 0.84142 0.0
Cd45 Cd 0.21012 0.84745 0.85373 0.0
O46 O 0.20808 0.89615 0.82571 0.0
Cd47 Cd 0.17866 0.87087 0.83362 0.0
O48 O 0.14592 0.84857 0.826 0.0
C49 C 0.13048 0.85577 0.81437 0.0
O50 O 0.13443 0.87666 0.80848 0.0
C51 C 0.22953 0.89634 0.83049 0.0
C52 C 0.23113 0.82343 0.88501 0.0
O53 O 0.2366 0.82166 0.86289 0.0
O54 O 0.21594 0.8367 0.89258 0.0
O55 O 0.22193 0.15427 0.8961 0.0
Cd56 Cd 0.20072 0.13536 0.8615 0.0
O57 O 0.19337 0.17281 0.91171 0.0
Cd58 Cd 0.17019 0.16209 0.88166 0.0
O59 O 0.14905 0.16903 0.85264 0.0
C60 C 0.15403 0.189 0.84653 0.0
O61 O 0.17105 0.20263 0.85746 0.0
C62 C 0.21413 0.16777 0.91262 0.0
C63 C 0.2294 0.10725 0.83454 0.0
O64 O 0.23094 0.12861 0.83243 0.0
O65 O 0.21406 0.09904 0.84925 0.0
O66 O 0.91433 0.2238 0.95099 0.0
Cd67 Cd 0.95299 0.21181 0.94245 0.0
O68 O 0.89685 0.19543 0.92753 0.0
Cd69 Cd 0.86991 0.17046 0.90957 0.0
O70 O 0.85284 0.14361 0.88393 0.0
C71 C 0.83067 0.13925 0.8826 0.0
O72 O 0.81748 0.15101 0.89743 0.0
C73 C 0.89556 0.21332 0.94194 0.0
C74 C 0.96885 0.21937 0.89692 0.0
O75 O 0.95881 0.19973 0.9013 0.0
O76 O 0.97128 0.23541 0.91407 0.0
O77 O 0.90464 0.87041 0.83036 0.0
Cd78 Cd 0.88342 0.89764 0.8563 0.0
O79 O 0.89316 0.8401 0.849 0.0
Cd80 Cd 0.87065 0.85268 0.87826 0.0
O81 O 0.84912 0.84018 0.90799 0.0
C82 C 0.85936 0.83155 0.92357 0.0
O83 O 0.88228 0.83215 0.92193 0.0
C84 C 0.90487 0.84932 0.8324 0.0
C85 C 0.85993 0.9272 0.83306 0.0
O86 O 0.88155 0.93247 0.83838 0.0
O87 O 0.84968 0.90793 0.83834 0.0
O88 O 0.2163 0.67093 0.66126 0.0
Cd89 Cd 0.1923 0.6463 0.68692 0.0
O90 O 0.18932 0.69205 0.6535 0.0
Cd91 Cd 0.16109 0.67989 0.67773 0.0
O92 O 0.13128 0.68822 0.70106 0.0
C93 C 0.11287 0.69312 0.69212 0.0
O94 O 0.11163 0.69136 0.66895 0.0
C95 C 0.21002 0.68664 0.65043 0.0
C96 C 0.21931 0.62442 0.71513 0.0
O97 O 0.21481 0.61617 0.69374 0.0
O98 O 0.21132 0.64306 0.72304 0.0
O99 O 0.87837 0.69513 0.6654 0.0
Cd100 Cd 0.84939 0.66687 0.64423 0.0
O101 O 0.89475 0.66987 0.68224 0.0
Cd102 Cd 0.86829 0.64094 0.6718 0.0
O103 O 0.84309 0.61268 0.68197 0.0
C104 C 0.85084 0.59602 0.68988 0.0
O105 O 0.87365 0.59572 0.68994 0.0
C106 C 0.89422 0.69042 0.67835 0.0
C107 C 0.82279 0.68762 0.61478 0.0
O108 O 0.81568 0.68437 0.63589 0.0
O109 O 0.84241 0.6809 0.60754 0.0
O110 O 0.89267 0.30122 0.65301 0.0
Cd111 Cd 0.91153 0.32167 0.68848 0.0
O112 O 0.87589 0.33071 0.64537 0.0
Cd113 Cd 0.88576 0.35327 0.6775 0.0
O114 O 0.87352 0.3777 0.70558 0.0
C115 C 0.86165 0.39233 0.69894 0.0
O116 O 0.85893 0.39252 0.67613 0.0
C117 C 0.88 0.31024 0.63982 0.0
C118 C 0.94029 0.29564 0.70964 0.0
O119 O 0.91813 0.29385 0.71395 0.0
O120 O 0.94894 0.30973 0.69522 0.0
O121 O 0.20719 0.41462 0.68261 0.0
Cd122 Cd 0.18674 0.38297 0.6572 0.0
O123 O 0.18224 0.40845 0.71215 0.0
Cd124 Cd 0.16036 0.37975 0.69358 0.0
O125 O 0.14171 0.34617 0.69781 0.0
C126 C 0.14978 0.33709 0.71437 0.0
O127 O 0.16815 0.34808 0.72559 0.0
C128 C 0.20054 0.41954 0.70397 0.0
C129 C 0.21824 0.35686 0.63189 0.0
O130 O 0.20884 0.37173 0.62214 0.0
O131 O 0.21269 0.35425 0.65353 0.0
O132 O 0.22299 0.4163 0.39138 0.0
Cd133 Cd 0.20551 0.39299 0.42186 0.0
O134 O 0.19203 0.40333 0.37052 0.0
Cd135 Cd 0.16747 0.39829 0.34138 0.0
O136 O 0.13751 0.38027 0.32156 0.0
C137 C 0.13877 0.37436 0.29941 0.0
O138 O 0.15841 0.38028 0.28783 0.0
C139 C 0.21163 0.41592 0.37257 0.0
C140 C 0.23483 0.36417 0.4379 0.0
O141 O 0.22165 0.35746 0.42013 0.0
O142 O 0.23443 0.38464 0.44771 0.0
O143 O 0.20883 0.67323 0.41042 0.0
Cd144 Cd 0.18618 0.65741 0.37563 0.0
O145 O 0.18625 0.69959 0.42302 0.0
Cd146 Cd 0.16341 0.69341 0.39247 0.0
O147 O 0.14345 0.70266 0.36379 0.0
C148 C 0.14962 0.72212 0.35674 0.0
O149 O 0.16769 0.73507 0.36662 0.0
C150 C 0.20399 0.68947 0.42564 0.0
C151 C 0.20973 0.62434 0.34932 0.0
O152 O 0.2152 0.64561 0.34734 0.0
O153 O 0.19281 0.61851 0.36358 0.0
O154 O 0.90357 0.72775 0.43619 0.0
Cd155 Cd 0.94151 0.71395 0.42812 0.0
O156 O 0.88615 0.69436 0.42208 0.0
Cd157 Cd 0.85802 0.66813 0.40902 0.0
O158 O 0.84225 0.63908 0.38527 0.0
C159 C 0.8205 0.6318 0.3857 0.0
O160 O 0.80671 0.64176 0.40147 0.0
C161 C 0.88476 0.71482 0.43085 0.0
C162 C 0.95956 0.72674 0.38485 0.0
O163 O 0.94861 0.70673 0.38616 0.0
O164 O 0.96216 0.74041 0.40397 0.0
O165 O 0.90212 0.36436 0.32238 0.0
Cd166 Cd 0.87644 0.38775 0.34773 0.0
O167 O 0.90546 0.33939 0.34763 0.0
Cd168 Cd 0.87914 0.34763 0.37527 0.0
O169 O 0.85503 0.33462 0.40309 0.0
C170 C 0.86345 0.32393 0.41824 0.0
O171 O 0.88607 0.32243 0.41714 0.0
C172 C 0.91115 0.34732 0.32806 0.0
C173 C 0.85331 0.41774 0.32469 0.0
O174 O 0.87417 0.42377 0.33219 0.0
O175 O 0.84372 0.39755 0.32767 0.0
O176 O 0.71659 0.16553 0.64742 0.0
Cd177 Cd 0.69253 0.14228 0.67444 0.0
O178 O 0.69102 0.18809 0.63938 0.0
Cd179 Cd 0.66269 0.17903 0.66491 0.0
O180 O 0.63488 0.19118 0.68893 0.0
C181 C 0.61579 0.19537 0.68077 0.0
O182 O 0.61232 0.1906 0.65793 0.0
C183 C 0.71112 0.18127 0.6361 0.0
C184 C 0.71886 0.1207 0.70372 0.0
O185 O 0.71475 0.11217 0.68233 0.0
O186 O 0.71093 0.1395 0.7111 0.0
O187 O 0.37593 0.19649 0.68362 0.0
Cd188 Cd 0.34637 0.17044 0.66072 0.0
O189 O 0.40546 0.18246 0.6639 0.0
Cd190 Cd 0.38222 0.15095 0.65381 0.0
O191 O 0.36057 0.1214 0.66636 0.0
C192 C 0.37094 0.10798 0.67694 0.0
O193 O 0.3939 0.11172 0.67813 0.0
C194 C 0.39779 0.19772 0.67863 0.0
C195 C 0.32722 0.19456 0.62841 0.0
O196 O 0.31721 0.1919 0.6486 0.0
O197 O 0.34596 0.18529 0.62326 0.0
O198 O 0.40543 0.80566 0.65873 0.0
Cd199 Cd 0.43469 0.83016 0.68325 0.0
O200 O 0.39024 0.83515 0.64867 0.0
Cd201 Cd 0.40709 0.8605 0.67574 0.0
O202 O 0.3994 0.88762 0.70327 0.0
C203 C 0.39128 0.90461 0.69648 0.0
O204 O 0.38999 0.90565 0.67362 0.0
C205 C 0.3912 0.81376 0.64642 0.0
C206 C 0.45721 0.80706 0.71391 0.0
O207 O 0.43953 0.81737 0.72096 0.0
O208 O 0.46401 0.80729 0.6922 0.0
O209 O 0.71018 0.90802 0.67447 0.0
Cd210 Cd 0.68793 0.87285 0.65585 0.0
O211 O 0.72996 0.88849 0.69566 0.0
Cd212 Cd 0.70689 0.85649 0.68984 0.0
O213 O 0.68305 0.82743 0.69975 0.0
C214 C 0.6667 0.83207 0.71446 0.0
O215 O 0.66478 0.8536 0.7215 0.0
C216 C 0.72647 0.90732 0.68877 0.0
C217 C 0.7144 0.84713 0.62304 0.0
O218 O 0.71557 0.84635 0.64532 0.0
O219 O 0.70072 0.86019 0.61592 0.0
O220 O 0.717 0.88647 0.36323 0.0
Cd221 Cd 0.69118 0.85488 0.37826 0.0
O222 O 0.68872 0.90324 0.35044 0.0
Cd223 Cd 0.66012 0.87604 0.35521 0.0
O224 O 0.63087 0.85281 0.33914 0.0
C225 C 0.62775 0.85461 0.31745 0.0
O226 O 0.64162 0.87006 0.30713 0.0
C227 C 0.7104 0.90299 0.35394 0.0
C228 C 0.71547 0.82926 0.40521 0.0
O229 O 0.71263 0.82348 0.38299 0.0
O230 O 0.70677 0.84705 0.41463 0.0
O231 O 0.70124 0.16839 0.39971 0.0
Cd232 Cd 0.67807 0.14768 0.36704 0.0
O233 O 0.67708 0.19253 0.41485 0.0
Cd234 Cd 0.64996 0.18383 0.38814 0.0
O235 O 0.62532 0.19431 0.36421 0.0
C236 C 0.6238 0.21559 0.36617 0.0
O237 O 0.63651 0.22901 0.38212 0.0
C238 C 0.69647 0.18443 0.41523 0.0
C239 C 0.70599 0.11706 0.34273 0.0
O240 O 0.70835 0.13812 0.33923 0.0
O241 O 0.68977 0.10998 0.35717 0.0
O242 O 0.35056 0.19589 0.39058 0.0
Cd243 Cd 0.3663 0.17034 0.35897 0.0
O244 O 0.37086 0.18924 0.42047 0.0
Cd245 Cd 0.38291 0.16029 0.39804 0.0
O246 O 0.37339 0.13054 0.3722 0.0
C247 C 0.35147 0.12393 0.37242 0.0
O248 O 0.33828 0.13416 0.38859 0.0
C249 C 0.35597 0.20017 0.41225 0.0
C250 C 0.40259 0.19335 0.33406 0.0
O251 O 0.38108 0.19491 0.33028 0.0
O252 O 0.40717 0.18069 0.34961 0.0
O253 O 0.40189 0.858 0.33179 0.0
Cd254 Cd 0.37718 0.88246 0.35698 0.0
O255 O 0.39568 0.82848 0.35248 0.0
Cd256 Cd 0.3732 0.8413 0.38167 0.0
O257 O 0.35181 0.83262 0.41295 0.0
C258 C 0.36156 0.82462 0.42932 0.0
O259 O 0.38424 0.82353 0.42747 0.0
C260 C 0.40525 0.8378 0.33488 0.0
C261 C 0.35589 0.91238 0.33216 0.0
O262 O 0.37632 0.91817 0.3408 0.0
O263 O 0.34563 0.89243 0.33512 0.0
O264 O 0.72141 0.67168 0.15306 0.0
Cd265 Cd 0.69631 0.64574 0.17669 0.0
O266 O 0.69395 0.69254 0.14597 0.0
Cd267 Cd 0.66578 0.67983 0.17 0.0
O268 O 0.63574 0.68858 0.19281 0.0
C269 C 0.61783 0.69394 0.18333 0.0
O270 O 0.61734 0.6923 0.16012 0.0
C271 C 0.7148 0.68758 0.14275 0.0
C272 C 0.7205 0.62185 0.20559 0.0
O273 O 0.7179 0.61489 0.18356 0.0
O274 O 0.71221 0.64027 0.21375 0.0
O275 O 0.37988 0.69589 0.16078 0.0
Cd276 Cd 0.35047 0.6688 0.13868 0.0
O277 O 0.39861 0.66917 0.17203 0.0
Cd278 Cd 0.37166 0.64089 0.16092 0.0
O279 O 0.34734 0.61394 0.17494 0.0
C280 C 0.35224 0.61077 0.19581 0.0
O281 O 0.37084 0.62296 0.20555 0.0
C282 C 0.39703 0.69019 0.17122 0.0
C283 C 0.32522 0.69033 0.10863 0.0
O284 O 0.3176 0.68727 0.12964 0.0
O285 O 0.34476 0.68318 0.10185 0.0
O286 O 0.39045 0.33027 0.13986 0.0
Cd287 Cd 0.41692 0.35708 0.16548 0.0
O288 O 0.35977 0.34787 0.15092 0.0
Cd289 Cd 0.3756 0.37613 0.17546 0.0
O290 O 0.36269 0.40277 0.20049 0.0
C291 C 0.34042 0.40075 0.20206 0.0
O292 O 0.32849 0.38368 0.18914 0.0
C293 C 0.36865 0.33164 0.13877 0.0
C294 C 0.44017 0.33375 0.19546 0.0
O295 O 0.42067 0.3412 0.20182 0.0
O296 O 0.44879 0.33759 0.17499 0.0
O297 O 0.70981 0.39272 0.18025 0.0
Cd298 Cd 0.68441 0.3588 0.16405 0.0
O299 O 0.68105 0.41192 0.19388 0.0
Cd300 Cd 0.65495 0.38268 0.18425 0.0
O301 O 0.6339 0.35231 0.19513 0.0
C302 C 0.63914 0.34747 0.21529 0.0
O303 O 0.6563 0.36045 0.22668 0.0
C304 C 0.7029 0.41079 0.19084 0.0
C305 C 0.71004 0.3294 0.13509 0.0
O306 O 0.70941 0.32947 0.15764 0.0
O307 O 0.69831 0.34307 0.12611 0.0
O308 O 0.73045 0.39181 0.88256 0.0
Cd309 Cd 0.70826 0.36825 0.91053 0.0
O310 O 0.69814 0.38632 0.86276 0.0
Cd311 Cd 0.67275 0.38379 0.83457 0.0
O312 O 0.64137 0.36922 0.81507 0.0
C313 C 0.64109 0.3666 0.79259 0.0
O314 O 0.66001 0.37397 0.78067 0.0
C315 C 0.71941 0.39529 0.86464 0.0
C316 C 0.7333 0.33832 0.93083 0.0
O317 O 0.7232 0.33228 0.91099 0.0
O318 O 0.73201 0.35864 0.94066 0.0
O319 O 0.72007 0.6558 0.90979 0.0
Cd320 Cd 0.69288 0.62957 0.88447 0.0
O321 O 0.69252 0.6769 0.92278 0.0
Cd322 Cd 0.66835 0.6634 0.89427 0.0
O323 O 0.64917 0.67149 0.86441 0.0
C324 C 0.657 0.69048 0.85708 0.0
O325 O 0.67546 0.7024 0.86734 0.0
C326 C 0.7133 0.67199 0.9239 0.0
C327 C 0.71579 0.60009 0.85254 0.0
O328 O 0.70972 0.61855 0.84647 0.0
O329 O 0.71122 0.59561 0.87385 0.0
O330 O 0.41508 0.73181 0.95091 0.0
Cd331 Cd 0.45489 0.72236 0.95181 0.0
O332 O 0.40326 0.69817 0.9323 0.0
Cd333 Cd 0.37876 0.67198 0.91298 0.0
O334 O 0.3623 0.64428 0.88809 0.0
C335 C 0.34016 0.63948 0.88729 0.0
O336 O 0.32697 0.65139 0.90197 0.0
C337 C 0.39887 0.71793 0.94083 0.0
C338 C 0.47613 0.73125 0.90862 0.0
O339 O 0.46707 0.71101 0.91198 0.0
O340 O 0.47588 0.74702 0.92597 0.0
O341 O 0.402 0.36661 0.8281 0.0
Cd342 Cd 0.37104 0.3851 0.85102 0.0
O343 O 0.40708 0.34134 0.85248 0.0
Cd344 Cd 0.38037 0.3462 0.88068 0.0
O345 O 0.36024 0.32474 0.90541 0.0
C346 C 0.35175 0.33063 0.92587 0.0
O347 O 0.35378 0.35234 0.9341 0.0
C348 C 0.41252 0.35037 0.83345 0.0
C349 C 0.35401 0.41969 0.82921 0.0
O350 O 0.36876 0.42479 0.8459 0.0
O351 O 0.34768 0.39851 0.82267 0.0
H352 H 0.28594 0.24361 0.94876 0.0
H353 H 0.31144 0.27728 0.01481 0.0
H354 H 0.2671 0.21204 0.01146 0.0
H355 H 0.26102 0.21886 0.04833 0.0
H356 H 0.29463 0.24607 0.11287 0.0
H357 H 0.32101 0.27145 0.04869 0.0
C358 C 0.28723 0.24383 0.96777 0.0
C359 C 0.27475 0.22628 0.9791 0.0
C360 C 0.30107 0.26178 0.98061 0.0
C361 C 0.30146 0.26261 0.00541 0.0
C362 C 0.28945 0.24473 0.0175 0.0
C363 C 0.27617 0.22651 0.00367 0.0
C364 C 0.29097 0.2449 0.04411 0.0
C365 C 0.27511 0.23018 0.05694 0.0
C366 C 0.27709 0.22985 0.08146 0.0
C367 C 0.29382 0.24547 0.09377 0.0
C368 C 0.30894 0.26093 0.08191 0.0
C369 C 0.30822 0.25993 0.05718 0.0
H370 H 0.76474 0.24481 0.1039 0.0
H371 H 0.78926 0.21744 0.03589 0.0
H372 H 0.76037 0.28153 0.04417 0.0
H373 H 0.75408 0.2732 0.00583 0.0
H374 H 0.80389 0.2673 0.94798 0.0
H375 H 0.81156 0.23395 0.00952 0.0
C376 C 0.76732 0.24595 0.0851 0.0
C377 C 0.76016 0.26445 0.0753 0.0
C378 C 0.7786 0.22944 0.07107 0.0
C379 C 0.78149 0.23088 0.04663 0.0
C380 C 0.77524 0.24969 0.03638 0.0
C381 C 0.76453 0.26638 0.0511 0.0
C382 C 0.78179 0.25295 0.01106 0.0
C383 C 0.76969 0.26651 -0.00173 0.0
C384 C 0.77782 0.27213 0.97579 0.0
C385 C 0.79729 0.26262 0.96508 0.0
C386 C 0.80916 0.24838 0.97711 0.0
C387 C 0.80147 0.24394 5e-05 0.0
H388 H 0.78938 0.75177 0.95209 0.0
H389 H 0.77307 0.71982 0.01523 0.0
H390 H 0.81634 0.78522 0.01798 0.0
H391 H 0.83088 0.77449 0.04899 0.0
H392 H 0.80238 0.75515 0.11542 0.0
H393 H 0.76517 0.73031 0.05206 0.0
C394 C 0.79105 0.75205 0.97105 0.0
C395 C 0.80522 0.77001 0.98367 0.0
C396 C 0.77884 0.73447 0.98267 0.0
C397 C 0.78162 0.73431 0.00704 0.0
C398 C 0.79533 0.75238 0.02041 0.0
C399 C 0.80664 0.77046 0.00836 0.0
C400 C 0.7976 0.75254 0.04674 0.0
C401 C 0.81684 0.76545 0.0587 0.0
C402 C 0.81825 0.76711 0.08345 0.0
C403 C 0.80139 0.75402 0.09631 0.0
C404 C 0.78252 0.74039 0.0849 0.0
C405 C 0.78041 0.74017 0.06032 0.0
H406 H 0.26851 0.76559 0.08159 0.0
H407 H 0.28963 0.72944 0.01645 0.0
H408 H 0.2645 0.79489 0.01668 0.0
H409 H 0.25614 0.78114 0.979 0.0
H410 H 0.30104 0.76065 0.91999 0.0
H411 H 0.31364 0.74378 0.9889 0.0
C412 C 0.27074 0.76444 0.06251 0.0
C413 C 0.26463 0.78198 0.05037 0.0
C414 C 0.28037 0.7458 0.05042 0.0
C415 C 0.28296 0.74434 0.02568 0.0
C416 C 0.27752 0.76199 0.01302 0.0
C417 C 0.26818 0.78074 0.02569 0.0
C418 C 0.28322 0.76142 0.98702 0.0
C419 C 0.27053 0.77225 0.97183 0.0
C420 C 0.27676 0.77224 0.94754 0.0
C421 C 0.29591 0.76101 0.93856 0.0
C422 C 0.30886 0.75049 0.95349 0.0
C423 C 0.30253 0.75086 0.97748 0.0
H424 H 0.0998 0.28407 0.24599 0.0
H425 H 0.03212 0.24742 0.2305 0.0
H426 H 0.03878 0.31844 0.25957 0.0
H427 H 0.00303 0.30815 0.27468 0.0
H428 H 0.93727 0.27854 0.24499 0.0
H429 H 0.00098 0.25673 0.21422 0.0
C430 C 0.0809 0.28367 0.24587 0.0
C431 C 0.07071 0.30322 0.25466 0.0
C432 C 0.06706 0.26368 0.23682 0.0
C433 C 0.04258 0.26328 0.23676 0.0
C434 C 0.0318 0.2829 0.24504 0.0
C435 C 0.04628 0.30289 0.25379 0.0
C436 C 0.00561 0.28248 0.24453 0.0
C437 C 0.99355 0.29664 0.26117 0.0
C438 C 0.96899 0.29582 0.26083 0.0
C439 C 0.95627 0.28014 0.24427 0.0
C440 C 0.96776 0.26561 0.22787 0.0
C441 C 0.99235 0.26739 0.22765 0.0
H442 H 0.78835 0.93312 0.28697 0.0
H443 H 0.80854 0.99225 0.25165 0.0
H444 H 0.76645 -0.00328 0.31656 0.0
H445 H 0.75702 0.02772 0.30556 0.0
H446 H 0.78706 0.0881 0.27591 0.0
H447 H 0.81998 0.02768 0.26098 0.0
C448 C 0.78853 0.95131 0.28648 0.0
C449 C 0.77566 0.96381 0.30353 0.0
C450 C 0.80105 0.96183 0.26832 0.0
C451 C 0.80018 0.98507 0.26691 0.0
C452 C 0.78806 -0.00152 0.28429 0.0
C453 C 0.77587 0.98738 0.30269 0.0
C454 C 0.78796 0.02365 0.28278 0.0
C455 C 0.77069 0.03602 0.29484 0.0
C456 C 0.77103 0.05954 0.29341 0.0
C457 C 0.78756 0.07036 0.27834 0.0
C458 C 0.80489 0.05874 0.26645 0.0
C459 C 0.80545 0.03573 0.26921 0.0
H460 H 0.12962 0.76846 0.26524 0.0
H461 H 0.06637 0.75439 0.30523 0.0
H462 H 0.06521 0.78314 0.2388 0.0
H463 H 0.03313 0.79496 0.25166 0.0
H464 H 0.9692 0.77522 0.28928 0.0
H465 H 0.03007 0.74496 0.30176 0.0
C466 C 0.11072 0.76798 0.26682 0.0
C467 C 0.09864 0.77741 0.2502 0.0
C468 C 0.09872 0.75864 0.286 0.0
C469 C 0.07455 0.75971 0.28905 0.0
C470 C 0.06162 0.76837 0.27222 0.0
C471 C 0.07413 0.77673 0.25249 0.0
C472 C 0.0356 0.76957 0.2759 0.0
C473 C 0.02383 0.78424 0.26392 0.0
C474 C -0.00019 0.78601 0.26819 0.0
C475 C 0.98761 0.77384 0.28547 0.0
C476 C 0.99892 0.75973 0.29799 0.0
C477 C 0.02234 0.7568 0.29239 0.0
H478 H 0.29248 0.09459 0.28322 0.0
H479 H 0.27074 0.03053 0.24289 0.0
H480 H 0.3249 0.03654 0.29509 0.0
H481 H 0.31553 0.00065 0.29618 0.0
H482 H 0.30158 0.93873 0.2504 0.0
H483 H 0.28589 0.00088 0.22729 0.0
C484 C 0.29382 0.07656 0.27895 0.0
C485 C 0.30904 0.0664 0.29178 0.0
C486 C 0.28022 0.06375 0.26102 0.0
C487 C 0.28236 0.04036 0.25581 0.0
C488 C 0.29855 0.02981 0.26775 0.0
C489 C 0.31216 0.04349 0.28551 0.0
C490 C 0.30051 0.00461 0.26246 0.0
C491 C 0.30985 0.99236 0.27909 0.0
C492 C 0.31117 0.96882 0.27435 0.0
C493 C 0.3018 0.95707 0.25341 0.0
C494 C 0.29227 0.96855 0.23665 0.0
C495 C 0.29239 0.9923 0.24093 0.0
H496 H 0.08604 0.76847 0.76168 0.0
H497 H 0.01879 0.73811 0.73691 0.0
H498 H 0.02735 0.80569 0.77595 0.0
H499 H 0.99029 0.79917 0.78411 0.0
H500 H 0.92587 0.77542 0.74913 0.0
H501 H 0.98856 0.74877 0.72251 0.0
C502 C 0.06734 0.76917 0.76069 0.0
C503 C 0.05788 0.78851 0.77118 0.0
C504 C 0.05336 0.75126 0.74796 0.0
C505 C 0.0293 0.75261 0.74607 0.0
C506 C 0.01915 0.77219 0.75607 0.0
C507 C 0.03401 0.79019 0.76843 0.0
C508 C 0.99335 0.77381 0.75361 0.0
C509 C 0.98138 0.78881 0.76949 0.0
C510 C 0.95728 0.78994 0.76743 0.0
C511 C 0.94466 0.77533 0.74999 0.0
C512 C 0.95592 0.76017 0.73413 0.0
C513 C 0.98021 0.75995 0.73561 0.0
H514 H 0.31888 0.93003 0.77361 0.0
H515 H 0.34563 -0.00681 0.7475 0.0
H516 H 0.28098 0.98746 0.78916 0.0
H517 H 0.28925 0.02448 0.79648 0.0
H518 H 0.30002 0.07964 0.75357 0.0
H519 H 0.32935 0.01807 0.73067 0.0
C520 C 0.31785 0.948 0.77289 0.0
C521 C 0.2991 0.95795 0.78445 0.0
C522 C 0.33437 0.96057 0.75919 0.0
C523 C 0.33219 0.98355 0.75739 0.0
C524 C 0.31286 -0.00623 0.76784 0.0
C525 C 0.29634 0.98054 0.78131 0.0
C526 C 0.30953 0.01777 0.76402 0.0
C527 C 0.29613 0.03095 0.78028 0.0
C528 C 0.29177 0.05284 0.77611 0.0
C529 C 0.3026 0.06246 0.75646 0.0
C530 C 0.31709 0.05033 0.74072 0.0
C531 C 0.31959 0.02773 0.744 0.0
H532 H 0.13151 0.24441 0.76274 0.0
H533 H 0.06718 0.21361 0.7924 0.0
H534 H 0.06687 0.26887 0.74968 0.0
H535 H 0.03 0.25125 0.74167 0.0
H536 H 0.97275 0.24875 0.79268 0.0
H537 H 0.03877 0.23099 0.811 0.0
C538 C 0.11255 0.243 0.76456 0.0
C539 C 0.10038 0.2577 0.75358 0.0
C540 C 0.10078 0.22754 0.77915 0.0
C541 C 0.07619 0.22564 0.78122 0.0
C542 C 0.06346 0.24025 0.77034 0.0
C543 C 0.07592 0.2563 0.75665 0.0
C544 C 0.03777 0.24075 0.77548 0.0
C545 C 0.02315 0.24782 0.75908 0.0
C546 C -0.00036 0.25076 0.76505 0.0
C547 C 0.99059 0.24599 0.78747 0.0
C548 C 0.00452 0.23804 0.8035 0.0
C549 C 0.02801 0.23575 0.79764 0.0
H550 H 0.7798 0.10593 0.7897 0.0
H551 H 0.77042 0.04394 0.74337 0.0
H552 H 0.80367 0.04664 0.81109 0.0
H553 H 0.81662 0.01557 0.79838 0.0
H554 H 0.79489 0.95053 0.76049 0.0
H555 H 0.766 0.00851 0.74243 0.0
C556 C 0.78153 0.08791 0.78613 0.0
C557 C 0.79281 0.07745 0.80243 0.0
C558 C 0.7725 0.07552 0.76536 0.0
C559 C 0.7766 0.05262 0.76007 0.0
C560 C 0.78798 0.04132 0.77619 0.0
C561 C 0.79578 0.05428 0.79758 0.0
C562 C 0.79079 0.01611 0.77124 0.0
C563 C 0.80588 0.00571 0.78477 0.0
C564 C 0.80698 0.98203 0.78124 0.0
C565 C 0.79399 0.96875 0.76324 0.0
C566 C 0.77961 0.97841 0.749 0.0
C567 C 0.7778 0.00185 0.75328 0.0
H568 H 0.28478 0.75479 0.46079 0.0
H569 H 0.26543 0.72169 0.52258 0.0
H570 H 0.31638 0.78239 0.52659 0.0
H571 H 0.33 0.76801 0.55592 0.0
H572 H 0.30253 0.74585 0.62154 0.0
H573 H 0.26023 0.73118 0.56011 0.0
C574 C 0.28663 0.75412 0.47959 0.0
C575 C 0.30281 0.77009 0.49235 0.0
C576 C 0.27275 0.73724 0.49076 0.0
C577 C 0.27558 0.7357 0.51484 0.0
C578 C 0.29157 0.75166 0.52838 0.0
C579 C 0.30474 0.76917 0.51679 0.0
C580 C 0.29462 0.74993 0.55428 0.0
C581 C 0.31556 0.75959 0.56567 0.0
C582 C 0.31839 0.75842 0.58988 0.0
C583 C 0.30058 0.74653 0.60276 0.0
C584 C 0.27978 0.73637 0.59191 0.0
C585 C 0.27671 0.73852 0.56791 0.0
H586 H 0.76513 0.76291 0.59177 0.0
H587 H 0.78436 0.72876 0.52475 0.0
H588 H 0.75792 0.79391 0.52853 0.0
H589 H 0.74617 0.77962 0.49161 0.0
H590 H 0.78998 0.76608 0.42989 0.0
H591 H 0.80595 0.74337 0.49541 0.0
C592 C 0.76663 0.76232 0.57268 0.0
C593 C 0.75979 0.78019 0.56155 0.0
C594 C 0.77601 0.74404 0.55954 0.0
C595 C 0.77773 0.7433 0.53477 0.0
C596 C 0.77126 0.76115 0.52309 0.0
C597 C 0.76225 0.77955 0.53682 0.0
C598 C 0.77536 0.76134 0.49692 0.0
C599 C 0.76134 0.77255 0.48345 0.0
C600 C 0.76678 0.77488 0.45943 0.0
C601 C 0.7856 0.76448 0.44838 0.0
C602 C 0.79922 0.75252 0.46128 0.0
C603 C 0.79426 0.75134 0.48545 0.0
H604 H 0.78188 0.25257 0.44513 0.0
H605 H 0.76211 0.21905 0.50657 0.0
H606 H 0.8146 0.27851 0.51072 0.0
H607 H 0.8275 0.26521 0.54036 0.0
H608 H 0.8014 0.24069 0.60522 0.0
H609 H 0.75882 0.22572 0.54422 0.0
C610 C 0.78382 0.25159 0.46385 0.0
C611 C 0.80073 0.2668 0.47656 0.0
C612 C 0.76937 0.23504 0.47504 0.0
C613 C 0.77255 0.23297 0.49898 0.0
C614 C 0.78915 0.24824 0.51253 0.0
C615 C 0.80262 0.2656 0.50097 0.0
C616 C 0.79258 0.24591 0.53833 0.0
C617 C 0.81333 0.25615 0.54986 0.0
C618 C 0.81628 0.25489 0.57404 0.0
C619 C 0.79928 0.24166 0.58652 0.0
C620 C 0.77899 0.23051 0.57549 0.0
C621 C 0.77529 0.2334 0.5518 0.0
H622 H 0.27789 0.27463 0.60572 0.0
H623 H 0.27982 0.31346 0.54696 0.0
H624 H 0.30231 0.24626 0.53823 0.0
H625 H 0.31756 0.25518 0.50509 0.0
H626 H 0.30215 0.28648 0.44433 0.0
H627 H 0.2702 0.30659 0.51101 0.0
C628 C 0.28199 0.27636 0.58723 0.0
C629 C 0.29265 0.25927 0.57335 0.0
C630 C 0.27659 0.29556 0.57746 0.0
C631 C 0.2824 0.29768 0.55356 0.0
C632 C 0.29108 0.27987 0.53851 0.0
C633 C 0.29607 0.26059 0.54889 0.0
C634 C 0.29434 0.28143 0.51224 0.0
C635 C 0.30841 0.26735 0.49769 0.0
C636 C 0.31028 0.26826 0.47305 0.0
C637 C 0.29979 0.28487 0.46309 0.0
C638 C 0.28604 0.29923 0.47708 0.0
C639 C 0.28263 0.29674 0.50121 0.0
H640 H 0.78964 0.41645 0.77993 0.0
H641 H 0.75681 0.47626 0.80148 0.0
H642 H 0.81529 0.47824 0.75112 0.0
H643 H 0.80255 0.50644 0.73886 0.0
H644 H 0.77981 0.5699 0.76653 0.0
H645 H 0.76168 0.5122 0.80459 0.0
C646 C 0.78875 0.43443 0.7791 0.0
C647 C 0.80401 0.44626 0.76371 0.0
C648 C 0.7721 0.44539 0.79317 0.0
C649 C 0.77005 0.46836 0.7908 0.0
C650 C 0.78508 0.48084 0.77522 0.0
C651 C 0.80245 0.46941 0.76228 0.0
C652 C 0.78287 0.50552 0.77247 0.0
C653 C 0.79352 0.51597 0.75287 0.0
C654 C 0.79257 0.5391 0.75075 0.0
C655 C 0.77991 0.55185 0.76767 0.0
C656 C 0.76789 0.54183 0.78642 0.0
C657 C 0.7701 0.51902 0.78922 0.0
H658 H 0.28575 0.60807 0.79706 0.0
H659 H 0.26835 0.54548 0.75267 0.0
H660 H 0.30558 0.54625 0.81748 0.0
H661 H 0.31863 0.51478 0.79826 0.0
H662 H 0.28093 0.4503 0.77136 0.0
H663 H 0.25395 0.51158 0.76073 0.0
C664 C 0.2859 0.58978 0.79359 0.0
C665 C 0.29735 0.57854 0.80915 0.0
C666 C 0.27464 0.57778 0.7737 0.0
C667 C 0.27628 0.55434 0.76862 0.0
C668 C 0.28733 0.54236 0.78425 0.0
C669 C 0.29778 0.55486 0.80461 0.0
C670 C 0.28648 0.51682 0.78013 0.0
C671 C 0.30363 0.50522 0.78927 0.0
C672 C 0.30169 0.48113 0.78646 0.0
C673 C 0.28286 0.4688 0.7737 0.0
C674 C 0.26632 0.47992 0.76388 0.0
C675 C 0.26786 0.50367 0.76745 0.0
H676 H 0.2725 0.43295 0.2842 0.0
H677 H 0.24597 0.49604 0.30537 0.0
H678 H 0.30034 0.49122 0.25045 0.0
H679 H 0.29707 0.52421 0.24383 0.0
H680 H 0.27646 0.58861 0.27017 0.0
H681 H 0.25316 0.53139 0.30755 0.0
C682 C 0.27253 0.45087 0.28222 0.0
C683 C 0.28744 0.46085 0.26529 0.0
C684 C 0.25824 0.46389 0.29711 0.0
C685 C 0.25826 0.48707 0.29438 0.0
C686 C 0.27354 0.498 0.27779 0.0
C687 C 0.28824 0.48428 0.26346 0.0
C688 C 0.27417 0.52331 0.27555 0.0
C689 C 0.28726 0.53372 0.25712 0.0
C690 C 0.28871 0.55725 0.25586 0.0
C691 C 0.27576 0.57056 0.27185 0.0
C692 C 0.26229 0.56102 0.29005 0.0
C693 C 0.26218 0.53769 0.29224 0.0
H694 H 0.77501 0.59999 0.293 0.0
H695 H 0.76662 0.54018 0.24309 0.0
H696 H 0.79573 0.53812 0.3119 0.0
H697 H 0.81114 0.50823 0.2948 0.0
H698 H 0.78507 0.4448 0.25522 0.0
H699 H 0.75468 0.50471 0.2457 0.0
C700 C 0.77643 0.58199 0.28848 0.0
C701 C 0.78636 0.57019 0.3046 0.0
C702 C 0.76837 0.57098 0.26671 0.0
C703 C 0.77193 0.54808 0.26044 0.0
C704 C 0.78171 0.5355 0.2765 0.0
C705 C 0.78886 0.54703 0.29872 0.0
C706 C 0.78332 0.51033 0.27048 0.0
C707 C 0.79928 0.49894 0.28175 0.0
C708 C 0.79959 0.47518 0.27673 0.0
C709 C 0.78486 0.46304 0.2593 0.0
C710 C 0.76915 0.47383 0.24777 0.0
C711 C 0.76799 0.49716 0.25386 0.0
H712 H 0.43398 0.28519 0.74847 0.0
H713 H 0.50226 0.30838 0.77575 0.0
H714 H 0.4933 0.25485 0.71743 0.0
H715 H 0.52593 0.24553 0.72965 0.0
H716 H 0.59539 0.28021 0.73958 0.0
H717 H 0.53683 0.31679 0.75837 0.0
C718 C 0.45271 0.28428 0.74763 0.0
C719 C 0.46191 0.26797 0.7313 0.0
C720 C 0.46719 0.29885 0.76362 0.0
C721 C 0.49143 0.29746 0.76283 0.0
C722 C 0.50147 0.28201 0.7458 0.0
C723 C 0.4863 0.26724 0.73024 0.0
C724 C 0.52758 0.28125 0.74432 0.0
C725 C 0.53717 0.26114 0.73509 0.0
C726 C 0.56157 0.26077 0.73322 0.0
C727 C 0.57655 0.28045 0.74092 0.0
C728 C 0.56762 0.30046 0.75028 0.0
C729 C 0.54327 0.30088 0.75179 0.0
H730 H 0.63971 0.74864 0.77267 0.0
H731 H 0.57446 0.72213 0.80421 0.0
H732 H 0.57686 0.77586 0.75898 0.0
H733 H 0.53946 0.76247 0.75386 0.0
H734 H 0.48173 0.75938 0.80409 0.0
H735 H 0.54743 0.74105 0.82282 0.0
C736 C 0.62083 0.74813 0.77463 0.0
C737 C 0.60937 0.76301 0.76313 0.0
C738 C 0.60837 0.73361 0.7898 0.0
C739 C 0.58395 0.73343 0.79257 0.0
C740 C 0.57208 0.74865 0.78163 0.0
C741 C 0.58516 0.76337 0.76693 0.0
C742 C 0.54666 0.75065 0.78719 0.0
C743 C 0.53245 0.75872 0.77109 0.0
C744 C 0.5093 0.76279 0.77736 0.0
C745 C 0.49981 0.75722 0.79934 0.0
C746 C 0.51355 0.74913 0.81548 0.0
C747 C 0.53685 0.74608 0.80948 0.0
H748 H 0.42814 0.76889 0.24886 0.0
H749 H 0.49294 0.79282 0.2831 0.0
H750 H 0.49161 0.74635 0.21843 0.0
H751 H 0.52287 0.73574 0.23211 0.0
H752 H 0.59026 0.76986 0.25314 0.0
H753 H 0.52939 0.80255 0.27267 0.0
C754 C 0.44704 0.76933 0.24912 0.0
C755 C 0.45855 0.75581 0.23175 0.0
C756 C 0.4596 0.78318 0.26712 0.0
C757 C 0.48392 0.78291 0.26825 0.0
C758 C 0.49612 0.76948 0.25097 0.0
C759 C 0.48302 0.75627 0.23253 0.0
C760 C 0.52226 0.76921 0.25212 0.0
C761 C 0.53319 0.75066 0.24079 0.0
C762 C 0.55771 0.75097 0.24067 0.0
C763 C 0.57134 0.7694 0.25308 0.0
C764 C 0.561 0.78759 0.26504 0.0
C765 C 0.53667 0.78767 0.26427 0.0
H766 H 0.60864 0.27068 0.28504 0.0
H767 H 0.55036 0.28548 0.24801 0.0
H768 H 0.53924 0.24742 0.30884 0.0
H769 H 0.50426 0.23794 0.2972 0.0
H770 H 0.44737 0.2606 0.26388 0.0
H771 H 0.51648 0.29442 0.25494 0.0
C772 C 0.58982 0.26934 0.28298 0.0
C773 C 0.57474 0.25708 0.29821 0.0
C774 C 0.58092 0.27994 0.2652 0.0
C775 C 0.5566 0.27764 0.2623 0.0
C776 C 0.54072 0.26614 0.27788 0.0
C777 C 0.55033 0.25587 0.29594 0.0
C778 C 0.51452 0.2652 0.27515 0.0
C779 C 0.49831 0.24926 0.28591 0.0
C780 C 0.474 0.24812 0.28269 0.0
C781 C 0.46592 0.26219 0.26748 0.0
C782 C 0.48136 0.27849 0.25706 0.0
C783 C 0.50534 0.28046 0.26168 0.0
C784 C 0.22155 0.20213 0.11001 0.0
C785 C 0.23012 0.18834 0.12546 0.0
C786 C 0.2367 0.21465 0.09494 0.0
C787 C 0.26103 0.21406 0.09488 0.0
H788 H 0.203 0.20367 0.10985 0.0
H789 H 0.22942 0.22559 0.08396 0.0
S790 S 0.29248 0.17957 0.13032 0.0
N791 N 0.26467 0.17393 0.1385 0.0
N792 N 0.29299 0.19763 0.1103 0.0
C793 C 0.2698 0.19977 0.1095 0.0
C794 C 0.2544 0.18685 0.12472 0.0
C795 C 0.82675 0.19749 0.08918 0.0
C796 C 0.81665 0.18694 0.10868 0.0
C797 C 0.81389 0.21021 0.07641 0.0
C798 C 0.79031 0.21271 0.08244 0.0
H799 H 0.84508 0.19682 0.08434 0.0
H800 H 0.8229 0.21907 0.06243 0.0
S801 S 0.75455 0.18538 0.12953 0.0
N802 N 0.78095 0.17785 0.13188 0.0
N803 N 0.75658 0.20126 0.1074 0.0
C804 C 0.77955 0.20104 0.10094 0.0
C805 C 0.79275 0.18828 0.11415 0.0
C806 C 0.86408 0.79383 0.1283 0.0
C807 C 0.86657 0.81709 0.1248 0.0
C808 C 0.84904 0.77758 0.11435 0.0
C809 C 0.83616 0.78391 0.09619 0.0
H810 H 0.87309 0.78821 0.1425 0.0
H811 H 0.84713 0.75999 0.11811 0.0
S812 S 0.83759 0.84225 0.07864 0.0
N813 N 0.85586 0.84532 0.10078 0.0
N814 N 0.82752 0.81486 0.07487 0.0
C815 C 0.83922 0.80692 0.09186 0.0
C816 C 0.85443 0.82347 0.10608 0.0
C817 C 0.22263 0.82527 0.07018 0.0
C818 C 0.23142 0.83499 0.09229 0.0
C819 C 0.23399 0.80872 0.05619 0.0
C820 C 0.25464 0.80162 0.06375 0.0
H821 H 0.20631 0.82966 0.0642 0.0
H822 H 0.22602 0.80075 0.03985 0.0
S823 S 0.28693 0.82525 0.1182 0.0
N824 N 0.26322 0.83839 0.11985 0.0
N825 N 0.2851 0.80809 0.09317 0.0
C826 C 0.26443 0.81251 0.08504 0.0
C827 C 0.25267 0.82899 0.09942 0.0
C828 C 0.26648 0.80978 0.89982 0.0
C829 C 0.24217 0.81053 0.90127 0.0
C830 C 0.27741 0.7976 0.91497 0.0
C831 C 0.26438 0.78507 0.93175 0.0
H832 H 0.27722 0.81904 0.88714 0.0
H833 H 0.29631 0.79825 0.91362 0.0
S834 S 0.19961 0.77993 0.94077 0.0
N835 N 0.20514 0.79734 0.92008 0.0
N836 N 0.2253 0.77313 0.94752 0.0
C837 C 0.23985 0.78531 0.93291 0.0
C838 C 0.22886 0.79832 0.91792 0.0
C839 C 0.22058 0.19222 0.95142 0.0
C840 C 0.22989 0.17947 0.93163 0.0
C841 C 0.23527 0.2062 0.96777 0.0
C842 C 0.25976 0.20807 0.96478 0.0
H843 H 0.20179 0.19209 0.95387 0.0
H844 H 0.22742 0.21656 0.9821 0.0
S845 S 0.29326 0.17683 0.91766 0.0
N846 N 0.2655 0.16834 0.91135 0.0
N847 N 0.29286 0.19492 0.94194 0.0
C848 C 0.26936 0.19458 0.94593 0.0
C849 C 0.25449 0.18016 0.92941 0.0
C850 C 0.87122 0.23288 0.97283 0.0
C851 C 0.87298 0.22162 0.9498 0.0
C852 C 0.85071 0.24169 0.9812 0.0
C853 C 0.83092 0.23958 0.96696 0.0
H854 H 0.88584 0.23487 0.98466 0.0
H855 H 0.85042 0.25034 -0.00096 0.0
S856 S 0.82683 0.21309 0.90467 0.0
N857 N 0.85369 0.21033 0.9122 0.0
N858 N 0.81455 0.22599 0.92836 0.0
C859 C 0.83247 0.22872 0.94371 0.0
C860 C 0.85358 0.21986 0.93506 0.0
C861 C 0.82107 0.8129 0.93909 0.0
C862 C 0.84554 0.8183 0.9412 0.0
C863 C 0.80803 0.79797 0.95348 0.0
C864 C 0.81886 0.78795 0.9707 0.0
H865 H 0.81196 0.81958 0.92564 0.0
H866 H 0.78935 0.79386 0.95075 0.0
S867 S 0.88206 0.79778 0.98479 0.0
N868 N 0.87979 0.81353 0.96313 0.0
N869 N 0.85528 0.78533 0.98987 0.0
C870 C 0.84309 0.794 0.97378 0.0
C871 C 0.85641 0.80917 0.95911 0.0
C872 C 0.08734 0.21843 0.19079 0.0
C873 C 0.1058 0.2107 0.20199 0.0
C874 C 0.07399 0.23461 0.20264 0.0
C875 C 0.07859 0.24379 0.22613 0.0
H876 H 0.08365 0.2126 0.17241 0.0
H877 H 0.06073 0.24081 0.19294 0.0
S878 S 0.12252 0.22715 0.26468 0.0
N879 N 0.12623 0.21193 0.23893 0.0
N880 N 0.10108 0.2423 0.26105 0.0
C881 C 0.09598 0.23527 0.23802 0.0
C882 C 0.10956 0.21873 0.22601 0.0
C883 C 0.85079 0.10502 0.24733 0.0
C884 C 0.85423 0.0983 0.22301 0.0
C885 C 0.83526 0.09181 0.26131 0.0
C886 C 0.82273 0.0712 0.25162 0.0
H887 H 0.85975 0.12092 0.25565 0.0
H888 H 0.83281 0.09791 0.27984 0.0
S889 S 0.82606 0.04518 0.18934 0.0
N890 N 0.84431 0.06908 0.19004 0.0
N891 N 0.81515 0.04419 0.21654 0.0
C892 C 0.82644 0.06383 0.22756 0.0
C893 C 0.84214 0.07741 0.21319 0.0
C894 C 0.9768 0.81024 0.2159 0.0
C895 C 0.96041 0.82416 0.22655 0.0
C896 C 0.9899 0.79846 0.22954 0.0
C897 C 0.98729 0.80032 0.25437 0.0
H898 H 0.97907 0.80789 0.19682 0.0
H899 H 0.00167 0.78728 0.2205 0.0
S900 S 0.94911 0.83708 0.29109 0.0
N901 N 0.9437 0.8406 0.26354 0.0
N902 N 0.96883 0.81904 0.28918 0.0
C903 C 0.97175 0.81501 0.2653 0.0
C904 C 0.95819 0.82678 0.2514 0.0
C905 C 0.24284 0.94381 0.19549 0.0
C906 C 0.25086 0.92368 0.1847 0.0
C907 C 0.25707 0.95923 0.21105 0.0
C908 C 0.27988 0.95517 0.21604 0.0
H909 H 0.22489 0.94679 0.19335 0.0
H910 H 0.24951 0.97356 0.22047 0.0
S911 S 0.31063 0.90745 0.18782 0.0
N912 N 0.2839 0.90203 0.17725 0.0
N913 N 0.31111 0.93157 0.20551 0.0
C914 C 0.28882 0.93625 0.20337 0.0
C915 C 0.27418 0.92035 0.18796 0.0
C916 C 0.10614 0.81759 0.8117 0.0
C917 C 0.10971 0.84 0.80545 0.0
C918 C 0.08852 0.80142 0.8014 0.0
C919 C 0.07369 0.80697 0.78444 0.0
H920 H 0.11751 0.81219 0.82413 0.0
H921 H 0.08694 0.78418 0.80622 0.0
S922 S 0.07432 0.86357 0.76305 0.0
N923 N 0.09569 0.86727 0.78222 0.0
N924 N 0.06281 0.83664 0.76267 0.0
C925 C 0.07621 0.82954 0.77883 0.0
C926 C 0.09416 0.8461 0.78936 0.0
C927 C 0.26721 0.10256 0.81263 0.0
C928 C 0.24518 0.09271 0.82055 0.0
C929 C 0.2824 0.08942 0.79894 0.0
C930 C 0.27602 0.06596 0.79225 0.0
H931 H 0.27287 0.12058 0.81715 0.0
H932 H 0.29927 0.09779 0.79347 0.0
S933 S 0.21981 0.03214 0.80779 0.0
N934 N 0.21765 0.05811 0.82079 0.0
N935 N 0.24579 0.03355 0.79423 0.0
C936 C 0.25403 0.05587 0.80015 0.0
C937 C 0.23871 0.06921 0.81446 0.0
C938 C 0.97928 0.24571 0.86597 0.0
C939 C 0.97743 0.22353 0.87279 0.0
C940 C 0.98761 0.25022 0.84329 0.0
C941 C 0.99481 0.2328 0.82691 0.0
H942 H 0.97412 0.25967 0.87817 0.0
H943 H 0.98883 0.26751 0.83867 0.0
S944 S 0.99376 0.17202 0.83588 0.0
N945 N 0.9834 0.18396 0.86114 0.0
N946 N -0.0004 0.1927 0.81871 0.0
C947 C 0.99312 0.21062 0.83343 0.0
C948 C 0.98426 0.20591 0.85633 0.0
C949 C 0.82255 0.93741 0.81851 0.0
C950 C 0.84694 0.94272 0.82122 0.0
C951 C 0.80977 0.95087 0.80655 0.0
C952 C 0.82075 0.97026 0.79663 0.0
H953 H 0.81317 0.9225 0.82543 0.0
H954 H 0.79111 0.94577 0.8046 0.0
S955 S 0.88399 0.9923 0.79931 0.0
N956 N 0.88147 0.96944 0.81362 0.0
N957 N 0.85732 -0.00548 0.79081 0.0
C958 C 0.84496 0.97627 0.79977 0.0
C959 C 0.85807 0.96255 0.81207 0.0
C960 C 0.24999 0.08394 0.21018 0.0
C961 C 0.23628 0.10005 0.2218 0.0
C962 C 0.26362 0.07177 0.22296 0.0
C963 C 0.26386 0.07506 0.24787 0.0
H964 H 0.25074 0.08114 0.19102 0.0
H965 H 0.27457 0.0602 0.21321 0.0
S966 S 0.22834 0.11279 0.28685 0.0
N967 N 0.22226 0.11716 0.25975 0.0
N968 N 0.24712 0.09381 0.2837 0.0
C969 C 0.24931 0.0903 0.25971 0.0
C970 C 0.23574 0.10291 0.24671 0.0
C971 C 0.24079 0.92816 0.80535 0.0
C972 C 0.24744 0.91376 0.82125 0.0
C973 C 0.25748 0.94294 0.79414 0.0
C974 C 0.28153 0.94399 0.79839 0.0
H975 H 0.22258 0.92753 0.80083 0.0
H976 H 0.25155 0.95298 0.78137 0.0
S977 S 0.30814 0.91217 0.84056 0.0
N978 N 0.27981 0.90305 0.84211 0.0
N979 N 0.31107 0.93104 0.8212 0.0
C980 C 0.28838 0.93056 0.81507 0.0
C981 C 0.2714 0.91544 0.82647 0.0
C982 C 0.14555 0.22053 0.82412 0.0
C983 C 0.14051 0.19756 0.82838 0.0
C984 C 0.13286 0.22973 0.80793 0.0
C985 C 0.11457 0.21639 0.79508 0.0
H986 H 0.15924 0.23178 0.83364 0.0
H987 H 0.1371 0.24769 0.80591 0.0
S988 S 0.09493 0.15497 0.79856 0.0
N989 N 0.11624 0.16139 0.81778 0.0
N990 N 0.09254 0.17876 0.787 0.0
C991 C 0.10948 0.19329 0.7988 0.0
C992 C 0.12243 0.18385 0.81545 0.0
C993 C 0.8345 0.10841 0.84909 0.0
C994 C 0.82009 0.12202 0.86365 0.0
C995 C 0.82537 0.09322 0.82996 0.0
C996 C 0.80153 0.09118 0.82453 0.0
H997 H 0.85313 0.1098 0.85216 0.0
H998 H 0.83722 0.08365 0.81879 0.0
S999 S 0.7558 0.12116 0.85799 0.0
N1000 N 0.78027 0.13112 0.87198 0.0
N1001 N 0.7633 0.10262 0.83602 0.0
C1002 C 0.78673 0.10393 0.83939 0.0
C1003 C 0.79595 0.11931 0.85894 0.0
C1004 C 0.91248 0.81104 0.81271 0.0
C1005 C 0.91866 0.83489 0.81548 0.0
C1006 C 0.92513 0.79671 0.79728 0.0
C1007 C 0.94474 0.80556 0.78422 0.0
H1008 H 0.89754 0.8033 0.82241 0.0
H1009 H 0.91959 0.77849 0.79563 0.0
S1010 S 0.96864 0.86656 0.78501 0.0
N1011 N 0.94593 0.86666 0.80373 0.0
N1012 N 0.96989 0.83955 0.77493 0.0
C1013 C 0.95133 0.82929 0.78688 0.0
C1014 C 0.93822 0.84399 0.80238 0.0
C1015 C 0.81576 0.91384 0.22243 0.0
C1016 C 0.83972 0.91996 0.21713 0.0
C1017 C 0.80339 0.92758 0.23877 0.0
C1018 C 0.81439 0.94812 0.25036 0.0
H1019 H 0.80642 0.89815 0.21408 0.0
H1020 H 0.78502 0.92209 0.24234 0.0
S1021 S 0.87661 0.97225 0.24281 0.0
N1022 N 0.8739 0.94827 0.22477 0.0
N1023 N 0.85051 0.97407 0.25551 0.0
C1024 C 0.83821 0.95467 0.2451 0.0
C1025 C 0.85092 0.94059 0.22853 0.0
C1026 C 0.12221 0.82678 0.216 0.0
C1027 C 0.14175 0.81899 0.20343 0.0
C1028 C 0.10766 0.81275 0.23008 0.0
C1029 C 0.11198 0.79033 0.23211 0.0
H1030 H 0.11862 0.84419 0.21584 0.0
H1031 H 0.09359 0.81994 0.24038 0.0
S1032 S 0.15849 0.7604 0.2 0.0
N1033 N 0.16306 0.78643 0.19195 0.0
N1034 N 0.13546 0.76005 0.21829 0.0
C1035 C 0.13051 0.7818 0.2185 0.0
C1036 C 0.14541 0.79611 0.20417 0.0
C1037 C 0.94571 0.20604 0.19989 0.0
C1038 C 0.92549 0.20914 0.18807 0.0
C1039 C 0.95964 0.2245 0.21196 0.0
C1040 C 0.95403 0.24689 0.21267 0.0
H1041 H 0.9505 0.18911 0.20056 0.0
H1042 H 0.97445 0.22105 0.22158 0.0
S1043 S 0.90471 0.26482 0.18229 0.0
N1044 N 0.90168 0.23678 0.17628 0.0
N1045 N 0.92814 0.27149 0.19878 0.0
C1046 C 0.93452 0.25046 0.20007 0.0
C1047 C 0.92023 0.23161 0.18779 0.0
C1048 C 0.25068 0.69469 0.6332 0.0
C1049 C 0.22713 0.69909 0.63462 0.0
C1050 C 0.26744 0.7067 0.61922 0.0
C1051 C 0.26137 0.7235 0.60594 0.0
H1052 H 0.25638 0.68203 0.64316 0.0
H1053 H 0.28535 0.70277 0.61879 0.0
S1054 S 0.20236 0.74175 0.60326 0.0
N1055 N 0.19871 0.72158 0.62117 0.0
N1056 N 0.23036 0.74414 0.59511 0.0
C1057 C 0.23794 0.72798 0.60693 0.0
C1058 C 0.22082 0.71581 0.62122 0.0
C1059 C 0.82054 0.70885 0.5796 0.0
C1060 C 0.80944 0.69981 0.59956 0.0
C1061 C 0.80918 0.72226 0.56613 0.0
C1062 C 0.7862 0.72707 0.57199 0.0
H1063 H 0.83849 0.70627 0.57478 0.0
H1064 H 0.81887 0.72972 0.55163 0.0
S1065 S 0.74812 0.70484 0.62042 0.0
N1066 N 0.77329 0.6949 0.62315 0.0
N1067 N 0.75184 0.71975 0.59753 0.0
C1068 C 0.77442 0.71713 0.5911 0.0
C1069 C 0.78605 0.7036 0.60494 0.0
C1070 C 0.86431 0.27225 0.61884 0.0
C1071 C 0.86752 0.29621 0.6197 0.0
C1072 C 0.84877 0.25879 0.60295 0.0
C1073 C 0.83606 0.26873 0.58713 0.0
H1074 H 0.87279 0.26386 0.63144 0.0
H1075 H 0.84592 0.24053 0.60373 0.0
S1076 S 0.84043 0.33034 0.58001 0.0
N1077 N 0.85853 0.32906 0.60151 0.0
N1078 N 0.82923 0.30374 0.57185 0.0
C1079 C 0.84039 0.29247 0.58659 0.0
C1080 C 0.85612 0.3062 0.60283 0.0
C1081 C 0.2305 0.33546 0.59415 0.0
C1082 C 0.23432 0.34249 0.61826 0.0
C1083 C 0.24452 0.32065 0.58112 0.0
C1084 C 0.26327 0.31266 0.59154 0.0
H1085 H 0.21604 0.34082 0.58545 0.0
H1086 H 0.24018 0.31494 0.56285 0.0
S1087 S 0.28248 0.32877 0.65347 0.0
N1088 N 0.25904 0.34182 0.65177 0.0
N1089 N 0.28627 0.31493 0.62699 0.0
C1090 C 0.26792 0.32047 0.61544 0.0
C1091 C 0.25325 0.33515 0.62885 0.0
C1092 C 0.24853 0.32566 0.43678 0.0
C1093 C 0.24933 0.3484 0.44731 0.0
C1094 C 0.26087 0.31 0.44613 0.0
C1095 C 0.2744 0.31641 0.46644 0.0
H1096 H 0.23797 0.31973 0.42141 0.0
H1097 H 0.2593 0.29257 0.43777 0.0
S1098 S 0.28403 0.37414 0.49968 0.0
N1099 N 0.26601 0.37673 0.47854 0.0
N1100 N 0.28917 0.34728 0.49592 0.0
C1101 C 0.27594 0.33919 0.47675 0.0
C1102 C 0.26344 0.35517 0.46723 0.0
C1103 C 0.24463 0.69622 0.44111 0.0
C1104 C 0.22063 0.69847 0.44473 0.0
C1105 C 0.26141 0.70791 0.45681 0.0
C1106 C 0.25474 0.72182 0.47696 0.0
H1107 H 0.25068 0.68643 0.42532 0.0
H1108 H 0.27982 0.70677 0.45272 0.0
S1109 S 0.19416 0.73139 0.49609 0.0
N1110 N 0.19097 0.7143 0.47106 0.0
N1111 N 0.22263 0.73589 0.5008 0.0
C1112 C 0.23078 0.72305 0.48166 0.0
C1113 C 0.21368 0.71148 0.46548 0.0
C1114 C 0.8425 0.71001 0.44394 0.0
C1115 C 0.86196 0.72375 0.43529 0.0
C1116 C 0.82185 0.71926 0.45151 0.0
C1117 C 0.81982 0.74242 0.45024 0.0
H1118 H 0.84364 0.69233 0.44605 0.0
H1119 H 0.80758 0.70839 0.45902 0.0
S1120 S 0.86504 0.7851 0.42723 0.0
N1121 N 0.87741 0.76134 0.42466 0.0
N1122 N 0.8385 0.77855 0.43861 0.0
C1123 C 0.83871 0.75603 0.44058 0.0
C1124 C 0.85982 0.74673 0.4332 0.0
C1125 C 0.82324 0.30974 0.43354 0.0
C1126 C 0.84779 0.31132 0.43517 0.0
C1127 C 0.80813 0.29599 0.44756 0.0
C1128 C 0.81691 0.28332 0.46389 0.0
H1129 H 0.81554 0.31867 0.42086 0.0
H1130 H 0.78939 0.29495 0.44528 0.0
S1131 S 0.87968 0.28236 0.4761 0.0
N1132 N 0.8801 0.29981 0.45551 0.0
N1133 N 0.85172 0.2738 0.48143 0.0
C1134 C 0.84136 0.28537 0.46635 0.0
C1135 C 0.85677 0.29937 0.4521 0.0
C1136 C 0.0774 0.71391 0.69668 0.0
C1137 C 0.09487 0.70414 0.70729 0.0
C1138 C 0.06268 0.72777 0.71023 0.0
C1139 C 0.06484 0.73236 0.73489 0.0
H1140 H 0.07582 0.71188 0.67762 0.0
H1141 H 0.05058 0.7361 0.70114 0.0
S1142 S 0.10459 0.70774 0.77187 0.0
N1143 N 0.11118 0.69771 0.74446 0.0
N1144 N 0.08345 0.72368 0.76978 0.0
C1145 C 0.08085 0.72126 0.74593 0.0
C1146 C 0.09587 0.70716 0.73218 0.0
C1147 C 0.84442 0.56324 0.71431 0.0
C1148 C 0.83488 0.57909 0.70209 0.0
C1149 C 0.83034 0.54933 0.72892 0.0
C1150 C 0.80617 0.5507 0.73187 0.0
H1151 H 0.86311 0.56222 0.71348 0.0
H1152 H 0.83866 0.53831 0.73896 0.0
S1153 S 0.77177 0.5865 0.70105 0.0
N1154 N 0.79911 0.5933 0.69191 0.0
N1155 N 0.77274 0.56701 0.71929 0.0
C1156 C 0.7961 0.56526 0.71855 0.0
C1157 C 0.81042 0.57946 0.70366 0.0
C1158 C 0.9795 0.29077 0.72467 0.0
C1159 C 0.95558 0.2826 0.72181 0.0
C1160 C 0.99386 0.27989 0.73795 0.0
C1161 C 0.98489 0.2603 0.74867 0.0
H1162 H 0.98703 0.30618 0.71736 0.0
H1163 H 0.01188 0.2874 0.74057 0.0
S1164 S 0.92437 0.23008 0.74346 0.0
N1165 N 0.92414 0.2525 0.7289 0.0
N1166 N 0.95125 0.23173 0.75325 0.0
C1167 C 0.96133 0.25125 0.74482 0.0
C1168 C 0.94666 0.26247 0.73155 0.0
C1169 C 0.23159 0.45313 0.71041 0.0
C1170 C 0.21523 0.43665 0.71991 0.0
C1171 C 0.24737 0.46791 0.72498 0.0
C1172 C 0.24755 0.46643 0.74943 0.0
H1173 H 0.23253 0.45432 0.69153 0.0
H1174 H 0.26013 0.47996 0.71696 0.0
S1175 S 0.20795 0.42722 0.78339 0.0
N1176 N 0.19966 0.42061 0.75571 0.0
N1177 N 0.22971 0.44817 0.78279 0.0
C1178 C 0.23097 0.4506 0.75929 0.0
C1179 C 0.21467 0.43578 0.7446 0.0
C1180 C 0.12296 0.34897 0.26389 0.0
C1181 C 0.11954 0.35858 0.28739 0.0
C1182 C 0.10654 0.33182 0.25305 0.0
C1183 C 0.08596 0.32368 0.26518 0.0
H1184 H 0.13885 0.35409 0.25398 0.0
H1185 H 0.1103 0.32442 0.2352 0.0
S1186 S 0.06746 0.34435 0.3262 0.0
N1187 N 0.09297 0.35971 0.32185 0.0
N1188 N 0.06232 0.32731 0.30142 0.0
C1189 C 0.08167 0.33389 0.2882 0.0
C1190 C 0.09841 0.35136 0.29932 0.0
C1191 C 0.24652 0.61336 0.32926 0.0
C1192 C 0.22291 0.6072 0.33563 0.0
C1193 C 0.25932 0.59797 0.31543 0.0
C1194 C 0.2489 0.57593 0.30695 0.0
H1195 H 0.25524 0.63024 0.33499 0.0
H1196 H 0.2775 0.60356 0.31109 0.0
S1197 S 0.18737 0.55151 0.31861 0.0
N1198 N 0.18964 0.57743 0.333 0.0
N1199 N 0.21339 0.54876 0.30607 0.0
C1200 C 0.22535 0.5694 0.31355 0.0
C1201 C 0.21243 0.58499 0.32806 0.0
C1202 C 0.9711 0.75759 0.35907 0.0
C1203 C 0.96859 0.73424 0.36197 0.0
C1204 C 0.98007 0.76546 0.33789 0.0
C1205 C 0.98723 0.75033 0.31898 0.0
H1206 H 0.96611 0.76994 0.37328 0.0
H1207 H 0.98206 0.78364 0.33655 0.0
S1208 S 0.98415 0.6876 0.31732 0.0
N1209 N 0.97355 0.69597 0.34387 0.0
N1210 N 0.99098 0.71099 0.30416 0.0
C1211 C 0.98467 0.72694 0.32147 0.0
C1212 C 0.97515 0.71883 0.34294 0.0
C1213 C 0.81598 0.42804 0.31023 0.0
C1214 C 0.84029 0.43353 0.3133 0.0
C1215 C 0.80307 0.44205 0.29917 0.0
C1216 C 0.81384 0.46215 0.2904 0.0
H1217 H 0.80673 0.4127 0.31639 0.0
H1218 H 0.7844 0.43694 0.29724 0.0
S1219 S 0.87698 0.48455 0.29402 0.0
N1220 N 0.87463 0.46092 0.30704 0.0
N1221 N 0.85028 0.487 0.28575 0.0
C1222 C 0.83804 0.46817 0.2937 0.0
C1223 C 0.85127 0.45391 0.30519 0.0
C1224 C 0.24871 0.59761 0.71999 0.0
C1225 C 0.23319 0.61266 0.7303 0.0
C1226 C 0.26208 0.58641 0.73404 0.0
C1227 C 0.26029 0.58967 0.75893 0.0
H1228 H 0.25079 0.59467 0.70092 0.0
H1229 H 0.27411 0.57533 0.72533 0.0
S1230 S 0.22037 0.62545 0.79457 0.0
N1231 N 0.2159 0.62924 0.76689 0.0
N1232 N 0.24032 0.60771 0.79318 0.0
C1233 C 0.24436 0.60423 0.7694 0.0
C1234 C 0.23101 0.61583 0.75513 0.0
C1235 C 0.21837 0.42089 0.32957 0.0
C1236 C 0.22155 0.4295 0.35348 0.0
C1237 C 0.22964 0.4325 0.31133 0.0
C1238 C 0.24424 0.45327 0.31636 0.0
H1239 H 0.20799 0.40458 0.32489 0.0
H1240 H 0.22732 0.42494 0.29317 0.0
S1241 S 0.25742 0.48356 0.37597 0.0
N1242 N 0.23967 0.46045 0.38115 0.0
N1243 N 0.26074 0.48224 0.3469 0.0
C1244 C 0.24693 0.46241 0.34014 0.0
C1245 C 0.23567 0.45051 0.35869 0.0
C1246 C 0.14426 0.75206 0.3306 0.0
C1247 C 0.13651 0.73058 0.33823 0.0
C1248 C 0.13211 0.76091 0.31361 0.0
C1249 C 0.11162 0.74869 0.3036 0.0
H1250 H 0.15982 0.7623 0.33788 0.0
H1251 H 0.1386 0.77763 0.30856 0.0
S1252 S 0.08426 0.69135 0.31653 0.0
N1253 N 0.10717 0.69706 0.33382 0.0
N1254 N 0.08448 0.71372 0.30181 0.0
C1255 C 0.10376 0.72712 0.3108 0.0
C1256 C 0.11616 0.71805 0.32808 0.0
C1257 C 0.82613 0.60113 0.35259 0.0
C1258 C 0.8108 0.61368 0.36719 0.0
C1259 C 0.81787 0.58582 0.33318 0.0
C1260 C 0.79404 0.58266 0.32759 0.0
H1261 H 0.84479 0.60364 0.35571 0.0
H1262 H 0.83037 0.57731 0.32179 0.0
S1263 S 0.74624 0.60935 0.36115 0.0
N1264 N 0.77021 0.62029 0.37555 0.0
N1265 N 0.7549 0.59169 0.33894 0.0
C1266 C 0.77835 0.5941 0.34263 0.0
C1267 C 0.78667 0.60955 0.36249 0.0
C1268 C 0.92652 0.33671 0.28685 0.0
C1269 C 0.92763 0.33575 0.31139 0.0
C1270 C 0.94033 0.32414 0.27066 0.0
C1271 C 0.95612 0.31049 0.27839 0.0
H1272 H 0.91431 0.34662 0.28001 0.0
H1273 H 0.93843 0.32486 0.25189 0.0
S1274 S 0.96685 0.30309 0.34069 0.0
N1275 N 0.94665 0.32064 0.34261 0.0
N1276 N 0.97266 0.2973 0.31213 0.0
C1277 C 0.95803 0.30998 0.30285 0.0
C1278 C 0.94377 0.32251 0.31934 0.0
C1279 C 0.83505 0.42251 0.70801 0.0
C1280 C 0.84908 0.40747 0.71629 0.0
C1281 C 0.8212 0.43552 0.72356 0.0
C1282 C 0.82073 0.43403 0.74806 0.0
H1283 H 0.83425 0.42389 0.68925 0.0
H1284 H 0.81013 0.44625 0.71624 0.0
S1285 S 0.85593 0.39924 0.7793 0.0
N1286 N 0.86285 0.3932 0.75102 0.0
N1287 N 0.83684 0.41784 0.7802 0.0
C1288 C 0.83534 0.41983 0.75676 0.0
C1289 C 0.84952 0.40655 0.74092 0.0
C1290 C 0.14463 0.30897 0.74396 0.0
C1291 C 0.13774 0.31575 0.72266 0.0
C1292 C 0.13276 0.28994 0.75343 0.0
C1293 C 0.11358 0.2767 0.74192 0.0
H1294 H 0.15897 0.31877 0.75387 0.0
H1295 H 0.13826 0.286 0.77032 0.0
S1296 S 0.08966 0.28582 0.68464 0.0
N1297 N 0.11116 0.30691 0.68962 0.0
N1298 N 0.08908 0.27077 0.70734 0.0
C1299 C 0.10689 0.28279 0.72024 0.0
C1300 C 0.11893 0.30234 0.7106 0.0
C1301 C 0.92901 0.70304 0.704 0.0
C1302 C 0.9113 0.70882 0.6902 0.0
C1303 C 0.94398 0.71982 0.7173 0.0
C1304 C 0.94184 0.74311 0.71745 0.0
H1305 H 0.93102 0.68534 0.7051 0.0
H1306 H 0.95673 0.71445 0.7283 0.0
S1307 S 0.90021 0.76772 0.68263 0.0
N1308 N 0.89378 0.73987 0.67623 0.0
N1309 N 0.92203 0.77131 0.70126 0.0
C1310 C 0.92496 0.74927 0.70301 0.0
C1311 C 0.90971 0.73218 0.68935 0.0
C1312 C 0.72183 0.20909 0.60616 0.0
C1313 C 0.7284 0.19238 0.61943 0.0
C1314 C 0.73802 0.22081 0.59134 0.0
C1315 C 0.76147 0.21642 0.58931 0.0
H1316 H 0.70408 0.21347 0.60747 0.0
H1317 H 0.73231 0.23391 0.58199 0.0
S1318 S 0.78754 0.17332 0.61851 0.0
N1319 N 0.76002 0.17129 0.62828 0.0
N1320 N 0.79026 0.19336 0.60047 0.0
C1321 C 0.76817 0.19934 0.60181 0.0
C1322 C 0.75171 0.18731 0.61683 0.0
C1323 C 0.29493 0.21447 0.61552 0.0
C1324 C 0.31797 0.20891 0.61216 0.0
C1325 C 0.28645 0.22984 0.60206 0.0
C1326 C 0.30075 0.24049 0.58485 0.0
H1327 H 0.28342 0.20721 0.62897 0.0
H1328 H 0.2687 0.23381 0.60557 0.0
S1329 S 0.36232 0.23145 0.56876 0.0
N1330 N 0.35471 0.21466 0.58965 0.0
N1331 N 0.33901 0.24402 0.56488 0.0
C1332 C 0.32359 0.23452 0.58077 0.0
C1333 C 0.33215 0.21866 0.5943 0.0
C1334 C 0.36195 0.8081 0.61419 0.0
C1335 C 0.37471 0.79854 0.63033 0.0
C1336 C 0.34454 0.79474 0.6004 0.0
C1337 C 0.33904 0.77131 0.6023 0.0
H1338 H 0.36501 0.8262 0.61253 0.0
H1339 H 0.33464 0.80303 0.58887 0.0
S1340 S 0.36848 0.73736 0.64011 0.0
N1341 N 0.38159 0.76368 0.64612 0.0
N1342 N 0.34875 0.73866 0.62014 0.0
C1343 C 0.35223 0.76128 0.61758 0.0
C1344 C 0.37012 0.77485 0.63155 0.0
C1345 C 0.71812 0.82302 0.5843 0.0
C1346 C 0.72766 0.83242 0.6062 0.0
C1347 C 0.72906 0.80671 0.56949 0.0
C1348 C 0.75005 0.79947 0.57597 0.0
H1349 H 0.70154 0.82748 0.57907 0.0
H1350 H 0.72053 0.79906 0.55332 0.0
S1351 S 0.78423 0.82211 0.6295 0.0
N1352 N 0.76053 0.83528 0.63242 0.0
N1353 N 0.78153 0.80536 0.60424 0.0
C1354 C 0.76054 0.80997 0.59708 0.0
C1355 C 0.74923 0.82625 0.61228 0.0
C1356 C 0.73348 0.79386 0.41008 0.0
C1357 C 0.72837 0.8157 0.4195 0.0
C1358 C 0.74569 0.78072 0.42312 0.0
C1359 C 0.75338 0.78889 0.44609 0.0
H1360 H 0.72788 0.78674 0.39251 0.0
H1361 H 0.74901 0.76394 0.41518 0.0
S1362 S 0.74593 0.84555 0.47836 0.0
N1363 N 0.73271 0.84517 0.45305 0.0
N1364 N 0.75604 0.8207 0.47725 0.0
C1365 C 0.74864 0.81079 0.45563 0.0
C1366 C 0.73608 0.82412 0.44243 0.0
C1367 C 0.73852 0.19444 0.42629 0.0
C1368 C 0.7146 0.19526 0.43228 0.0
C1369 C 0.75618 0.20687 0.44053 0.0
C1370 C 0.75061 0.22018 0.46154 0.0
H1371 H 0.74368 0.1849 0.40995 0.0
H1372 H 0.77434 0.2064 0.43487 0.0
S1373 S 0.69097 0.2268 0.48624 0.0
N1374 N 0.68642 0.20968 0.46139 0.0
N1375 N 0.71973 0.23267 0.48833 0.0
C1376 C 0.72689 0.22038 0.46832 0.0
C1377 C 0.70886 0.20803 0.45364 0.0
C1378 C 0.35497 0.22884 0.44837 0.0
C1379 C 0.34425 0.2174 0.42774 0.0
C1380 C 0.34406 0.24539 0.46293 0.0
C1381 C 0.32197 0.25097 0.45745 0.0
H1382 H 0.37204 0.2252 0.45315 0.0
H1383 H 0.35307 0.25402 0.47845 0.0
S1384 S 0.28537 0.22414 0.4069 0.0
N1385 N 0.30962 0.21188 0.40344 0.0
N1386 N 0.289 0.2424 0.431 0.0
C1387 C 0.31084 0.23921 0.43721 0.0
C1388 C 0.32199 0.22259 0.42233 0.0
C1389 C 0.32246 0.81203 0.44787 0.0
C1390 C 0.3471 0.8137 0.44821 0.0
C1391 C 0.30826 0.79895 0.46315 0.0
C1392 C 0.31808 0.78704 0.47949 0.0
H1393 H 0.31396 0.82014 0.43505 0.0
H1394 H 0.28939 0.79751 0.46161 0.0
S1395 S 0.38151 0.78749 0.48934 0.0
N1396 N 0.38067 0.80378 0.46787 0.0
N1397 N 0.35389 0.77896 0.49625 0.0
C1398 C 0.34262 0.78961 0.48104 0.0
C1399 C 0.35714 0.80296 0.46548 0.0
C1400 C 0.58045 0.21644 0.68554 0.0
C1401 C 0.5994 0.20865 0.69589 0.0
C1402 C 0.56703 0.23206 0.69832 0.0
C1403 C 0.57203 0.24049 0.72192 0.0
H1404 H 0.57662 0.21134 0.66706 0.0
H1405 H 0.55359 0.23864 0.68922 0.0
S1406 S 0.61691 0.22284 0.75859 0.0
N1407 N 0.62038 0.20857 0.73227 0.0
N1408 N 0.59514 0.23792 0.75609 0.0
C1409 C 0.58968 0.2316 0.73303 0.0
C1410 C 0.60334 0.21567 0.72009 0.0
C1411 C 0.33264 0.08949 0.69261 0.0
C1412 C 0.35725 0.09056 0.69052 0.0
C1413 C 0.3196 0.07555 0.70797 0.0
C1414 C 0.3306 0.06204 0.72179 0.0
H1415 H 0.32338 0.10013 0.68301 0.0
H1416 H 0.30081 0.07587 0.70954 0.0
S1417 S 0.39428 0.05705 0.7215 0.0
N1418 N 0.39185 0.07541 0.70237 0.0
N1419 N 0.36737 0.04964 0.73146 0.0
C1420 C 0.35501 0.06202 0.71898 0.0
C1421 C 0.36831 0.07618 0.70332 0.0
C1422 C 0.48259 0.77766 0.72172 0.0
C1423 C 0.46979 0.79562 0.73042 0.0
C1424 C 0.49507 0.76692 0.73697 0.0
C1425 C 0.49545 0.77393 0.76148 0.0
H1426 H 0.48285 0.77171 0.70298 0.0
H1427 H 0.50441 0.75296 0.72951 0.0
S1428 S 0.46642 0.82156 0.79282 0.0
N1429 N 0.45896 0.82053 0.76495 0.0
N1430 N 0.48307 0.80103 0.79345 0.0
C1431 C 0.483 0.79215 0.77032 0.0
C1432 C 0.47002 0.80282 0.75485 0.0
C1433 C 0.76443 0.92927 0.70127 0.0
C1434 C 0.74005 0.92836 0.69966 0.0
C1435 C 0.77728 0.9466 0.71595 0.0
C1436 C 0.76612 0.96328 0.73016 0.0
H1437 H 0.77351 0.91596 0.69182 0.0
H1438 H 0.796 0.94629 0.71705 0.0
S1439 S 0.70246 0.96866 0.73148 0.0
N1440 N 0.70525 0.94617 0.71211 0.0
N1441 N 0.72916 0.9782 0.74075 0.0
C1442 C 0.74181 0.96317 0.72778 0.0
C1443 C 0.72882 0.94577 0.71231 0.0
C1444 C 0.59176 0.82567 0.31552 0.0
C1445 C 0.60961 0.83895 0.30373 0.0
C1446 C 0.57523 0.80985 0.30286 0.0
C1447 C 0.57615 0.80661 0.27801 0.0
H1448 H 0.59073 0.82726 0.33469 0.0
H1449 H 0.56219 0.7995 0.31256 0.0
S1450 S 0.61842 0.83743 0.23848 0.0
N1451 N 0.62636 0.84822 0.26547 0.0
N1452 N 0.59548 0.81825 0.24196 0.0
C1453 C 0.59341 0.82007 0.26597 0.0
C1454 C 0.61007 0.83632 0.27876 0.0
C1455 C 0.7146 0.07976 0.32089 0.0
C1456 C 0.72255 0.10185 0.33143 0.0
C1457 C 0.73035 0.06579 0.30904 0.0
C1458 C 0.75458 0.07335 0.30779 0.0
H1459 H 0.69605 0.07355 0.32113 0.0
H1460 H 0.72345 0.04928 0.30025 0.0
S1461 S 0.78436 0.12835 0.33632 0.0
N1462 N 0.75617 0.12977 0.34192 0.0
N1463 N 0.78586 0.10327 0.32092 0.0
C1464 C 0.76273 0.09491 0.31961 0.0
C1465 C 0.7467 0.10923 0.33108 0.0
C1466 C 0.41891 0.22914 0.31786 0.0
C1467 C 0.42146 0.20668 0.32146 0.0
C1468 C 0.43623 0.24235 0.30578 0.0
C1469 C 0.45655 0.23343 0.29614 0.0
H1470 H 0.40352 0.23672 0.32475 0.0
H1471 H 0.43364 0.25979 0.30405 0.0
S1472 S 0.47077 0.17479 0.29979 0.0
N1473 N 0.44555 0.1758 0.31458 0.0
N1474 N 0.47765 0.20015 0.29048 0.0
C1475 C 0.45921 0.21081 0.29952 0.0
C1476 C 0.44176 0.19754 0.31247 0.0
C1477 C 0.32146 0.92139 0.31081 0.0
C1478 C 0.34444 0.92801 0.3189 0.0
C1479 C 0.31054 0.93508 0.29726 0.0
C1480 C 0.3221 0.95602 0.29116 0.0
H1481 H 0.31184 0.90531 0.31467 0.0
H1482 H 0.29297 0.92904 0.2912 0.0
S1483 S 0.38214 0.98166 0.30828 0.0
N1484 N 0.37814 0.95745 0.3203 0.0
N1485 N 0.35764 0.98295 0.29458 0.0
C1486 C 0.34481 0.96319 0.29961 0.0
C1487 C 0.35598 0.94925 0.31348 0.0
C1488 C 0.74898 0.09505 0.71013 0.0
C1489 C 0.7321 0.10903 0.71954 0.0
C1490 C 0.76191 0.08415 0.72492 0.0
C1491 C 0.75822 0.08657 0.74967 0.0
H1492 H 0.75256 0.09285 0.69122 0.0
H1493 H 0.77515 0.07408 0.71692 0.0
S1494 S 0.71391 0.119 0.78281 0.0
N1495 N 0.71134 0.12348 0.75498 0.0
N1496 N 0.73477 0.10235 0.78259 0.0
C1497 C 0.74075 0.09987 0.75915 0.0
C1498 C 0.72794 0.11125 0.74417 0.0
C1499 C 0.72019 0.93814 0.33329 0.0
C1500 C 0.72792 0.92091 0.34499 0.0
C1501 C 0.736 0.95311 0.32134 0.0
C1502 C 0.76016 0.95145 0.32058 0.0
H1503 H 0.70165 0.93949 0.33237 0.0
H1504 H 0.72909 0.96515 0.31143 0.0
S1505 S 0.79006 0.91209 0.35142 0.0
N1506 N 0.7619 0.90506 0.35736 0.0
N1507 N 0.79149 0.93328 0.33487 0.0
C1508 C 0.76836 0.9355 0.3336 0.0
C1509 C 0.75229 0.92025 0.34583 0.0
C1510 C 0.61299 0.24936 0.34871 0.0
C1511 C 0.60948 0.22563 0.34985 0.0
C1512 C 0.60111 0.25942 0.33248 0.0
C1513 C 0.58497 0.24624 0.31692 0.0
H1514 H 0.62552 0.2603 0.35999 0.0
H1515 H 0.60486 0.27766 0.33182 0.0
S1516 S 0.56816 0.1837 0.3135 0.0
N1517 N 0.58777 0.18933 0.33454 0.0
N1518 N 0.56531 0.20845 0.30414 0.0
C1519 C 0.58057 0.22266 0.31837 0.0
C1520 C 0.59288 0.2123 0.33476 0.0
C1521 C 0.35458 0.09793 0.33454 0.0
C1522 C 0.34058 0.10742 0.35308 0.0
C1523 C 0.34442 0.08407 0.31494 0.0
C1524 C 0.31995 0.07945 0.31316 0.0
H1525 H 0.37351 0.10164 0.33485 0.0
H1526 H 0.35572 0.0775 0.3008 0.0
S1527 S 0.27542 0.09812 0.3575 0.0
N1528 N 0.30078 0.10958 0.36886 0.0
N1529 N 0.28198 0.08384 0.33199 0.0
C1530 C 0.3058 0.08807 0.33184 0.0
C1531 C 0.31603 0.10196 0.35182 0.0
C1532 C 0.41583 0.80047 0.31535 0.0
C1533 C 0.41985 0.8245 0.31774 0.0
C1534 C 0.42893 0.78726 0.29914 0.0
C1535 C 0.44691 0.79753 0.28503 0.0
H1536 H 0.40212 0.79173 0.32579 0.0
H1537 H 0.42496 0.76885 0.29759 0.0
S1538 S 0.46513 0.85955 0.28474 0.0
N1539 N 0.44345 0.85793 0.30466 0.0
N1540 N 0.46838 0.83295 0.27453 0.0
C1541 C 0.45147 0.82144 0.28745 0.0
C1542 C 0.43784 0.83496 0.30368 0.0
C1543 C 0.36803 0.93749 0.70504 0.0
C1544 C 0.38008 0.92105 0.71361 0.0
C1545 C 0.35435 0.95107 0.72017 0.0
C1546 C 0.35217 0.94884 0.74452 0.0
H1547 H 0.3683 0.9393 0.6863 0.0
H1548 H 0.34444 0.96257 0.71248 0.0
S1549 S 0.38291 0.91103 0.77665 0.0
N1550 N 0.39089 0.90515 0.74863 0.0
N1551 N 0.3653 0.93092 0.77704 0.0
C1552 C 0.36529 0.93358 0.75363 0.0
C1553 C 0.37924 0.91968 0.73821 0.0
C1554 C 0.63437 0.81977 0.74258 0.0
C1555 C 0.65125 0.81378 0.72515 0.0
C1556 C 0.6206 0.8032 0.75435 0.0
C1557 C 0.62312 0.77995 0.74919 0.0
H1558 H 0.63202 0.83748 0.74761 0.0
H1559 H 0.60833 0.80873 0.76809 0.0
S1560 S 0.6633 0.75486 0.70387 0.0
N1561 N 0.66875 0.78262 0.70247 0.0
N1562 N 0.64265 0.7515 0.72462 0.0
C1563 C 0.63939 0.77357 0.73139 0.0
C1564 C 0.65346 0.79046 0.71933 0.0
C1565 C 0.4095 0.22377 0.71485 0.0
C1566 C 0.41421 0.21604 0.69108 0.0
C1567 C 0.42501 0.24049 0.72752 0.0
C1568 C 0.44565 0.25062 0.71682 0.0
H1569 H 0.39397 0.2164 0.72397 0.0
H1570 H 0.42092 0.24519 0.74605 0.0
S1571 S 0.46479 0.23779 0.6541 0.0
N1572 N 0.44039 0.22023 0.65689 0.0
N1573 N 0.46902 0.25262 0.68031 0.0
C1574 C 0.45024 0.24344 0.69278 0.0
C1575 C 0.43464 0.22596 0.68001 0.0
C1576 C 0.75578 0.69915 0.1278 0.0
C1577 C 0.73158 0.70076 0.12726 0.0
C1578 C 0.77206 0.71198 0.11403 0.0
C1579 C 0.7648 0.72673 0.09894 0.0
H1580 H 0.76231 0.68812 0.1392 0.0
H1581 H 0.79051 0.71027 0.11513 0.0
S1582 S 0.70365 0.73723 0.09065 0.0
N1583 N 0.70126 0.71837 0.11 0.0
N1584 N 0.73194 0.74239 0.08427 0.0
C1585 C 0.74072 0.7284 0.09799 0.0
C1586 C 0.72412 0.71547 0.11211 0.0
C1587 C 0.32404 0.71105 0.07292 0.0
C1588 C 0.31245 0.70259 0.09294 0.0
C1589 C 0.31315 0.72419 0.05876 0.0
C1590 C 0.29014 0.72931 0.06392 0.0
H1591 H 0.34199 0.70816 0.06853 0.0
H1592 H 0.3232 0.73115 0.04418 0.0
S1593 S 0.25097 0.70877 0.11241 0.0
N1594 N 0.27589 0.69869 0.11601 0.0
N1595 N 0.2553 0.72301 0.08906 0.0
C1596 C 0.27792 0.72004 0.08318 0.0
C1597 C 0.28909 0.70679 0.09775 0.0
C1598 C 0.36297 0.29865 0.10666 0.0
C1599 C 0.35324 0.31404 0.12387 0.0
C1600 C 0.34862 0.28169 0.09274 0.0
C1601 C 0.3241 0.27935 0.09581 0.0
H1602 H 0.3818 0.29969 0.1039 0.0
H1603 H 0.35674 0.27009 0.0798 0.0
S1604 S 0.28964 0.31534 0.13772 0.0
N1605 N 0.31722 0.32585 0.14262 0.0
N1606 N 0.29058 0.29399 0.11656 0.0
C1607 C 0.31413 0.29467 0.11268 0.0
C1608 C 0.3286 0.312 0.12668 0.0
C1609 C 0.71608 0.3052 0.09695 0.0
C1610 C 0.72367 0.31371 0.11984 0.0
C1611 C 0.72815 0.28951 0.08258 0.0
C1612 C 0.74845 0.28202 0.09044 0.0
H1613 H 0.70033 0.31022 0.09031 0.0
H1614 H 0.72123 0.28283 0.06537 0.0
S1615 S 0.77733 0.30179 0.14774 0.0
N1616 N 0.75364 0.31494 0.14907 0.0
N1617 N 0.77692 0.28625 0.12172 0.0
C1618 C 0.75677 0.29122 0.11294 0.0
C1619 C 0.74424 0.30686 0.12771 0.0
C1620 C 0.74853 0.3005 0.93022 0.0
C1621 C 0.74546 0.32202 0.94235 0.0
C1622 C 0.75922 0.2845 0.94098 0.0
C1623 C 0.76697 0.28931 0.96437 0.0
H1624 H 0.74255 0.29588 0.91228 0.0
H1625 H 0.76108 0.26811 0.93108 0.0
S1626 S 0.76429 0.34334 0.00356 0.0
N1627 N 0.75194 0.34741 0.97893 0.0
N1628 N 0.77193 0.31736 -0.00102 0.0
C1629 C 0.76437 0.31082 0.97657 0.0
C1630 C 0.75367 0.32716 0.96562 0.0
C1631 C 0.75415 0.6888 0.93475 0.0
C1632 C 0.72997 0.68617 0.94047 0.0
C1633 C 0.77001 0.70405 0.9488 0.0
C1634 C 0.76232 0.71682 0.96932 0.0
H1635 H 0.76077 0.67969 0.91881 0.0
H1636 H 0.78836 0.70614 0.94338 0.0
S1637 S 0.70125 0.71506 0.99306 0.0
N1638 N 0.69935 0.69688 0.96875 0.0
N1639 N 0.72927 0.72523 0.99528 0.0
C1640 C 0.73841 0.71369 0.97578 0.0
C1641 C 0.7222 0.69846 0.96131 0.0
C1642 C 0.35521 0.71034 0.94505 0.0
C1643 C 0.37533 0.72503 0.93955 0.0
C1644 C 0.33323 0.71829 0.94806 0.0
C1645 C 0.33063 0.741 0.94512 0.0
H1646 H 0.3567 0.69307 0.94854 0.0
H1647 H 0.31835 0.70694 0.95377 0.0
S1648 S 0.37744 0.78539 0.9281 0.0
N1649 N 0.39099 0.76274 0.92945 0.0
N1650 N 0.34958 0.77749 0.93469 0.0
C1651 C 0.35032 0.75535 0.93807 0.0
C1652 C 0.37272 0.74741 0.93542 0.0
C1653 C 0.3259 0.31923 0.96042 0.0
C1654 C 0.33978 0.31297 0.94031 0.0
C1655 C 0.31388 0.30273 0.97382 0.0
C1656 C 0.31531 0.27935 0.96763 0.0
H1657 H 0.32392 0.337 0.96563 0.0
H1658 H 0.3029 0.30827 0.98874 0.0
S1659 S 0.35122 0.25397 0.91835 0.0
N1660 N 0.35545 0.28161 0.91605 0.0
N1661 N 0.33317 0.25088 0.94134 0.0
C1662 C 0.32976 0.27292 0.94814 0.0
C1663 C 0.34189 0.28962 0.93446 0.0
C1664 C 0.6025 0.71008 0.22278 0.0
C1665 C 0.59967 0.7051 0.19816 0.0
C1666 C 0.58788 0.72374 0.23668 0.0
C1667 C 0.56975 0.73293 0.2266 0.0
H1668 H 0.61675 0.70423 0.23132 0.0
H1669 H 0.59137 0.72787 0.25537 0.0
S1670 S 0.55316 0.72312 0.16353 0.0
N1671 N 0.57577 0.70882 0.1647 0.0
N1672 N 0.54864 0.73474 0.19084 0.0
C1673 C 0.56573 0.72694 0.20233 0.0
C1674 C 0.58061 0.71299 0.18812 0.0
C1675 C 0.33961 0.59702 0.23461 0.0
C1676 C 0.33654 0.59539 0.21 0.0
C1677 C 0.32434 0.58411 0.24906 0.0
C1678 C 0.30557 0.5688 0.2395 0.0
H1679 H 0.35356 0.60884 0.24302 0.0
H1680 H 0.327 0.58639 0.26799 0.0
S1681 S 0.29034 0.55686 0.17627 0.0
N1682 N 0.31358 0.57639 0.17662 0.0
N1683 N 0.28502 0.55186 0.20407 0.0
C1684 C 0.30261 0.56629 0.21494 0.0
C1685 C 0.31805 0.57968 0.20012 0.0
C1686 C 0.44229 0.3175 0.23389 0.0
C1687 C 0.45193 0.32063 0.21118 0.0
C1688 C 0.45219 0.30427 0.24873 0.0
C1689 C 0.47215 0.29361 0.24152 0.0
H1690 H 0.42679 0.32513 0.24025 0.0
H1691 H 0.44405 0.3023 0.266 0.0
S1692 S 0.5044 0.2964 0.18395 0.0
N1693 N 0.48299 0.31215 0.18239 0.0
N1694 N 0.5013 0.28704 0.21023 0.0
C1695 C 0.48224 0.29685 0.21905 0.0
C1696 C 0.4722 0.31038 0.20391 0.0
C1697 C 0.71244 0.44552 0.21977 0.0
C1698 C 0.72014 0.42918 0.20224 0.0
C1699 C 0.72844 0.46067 0.23372 0.0
C1700 C 0.75272 0.4601 0.2306 0.0
H1701 H 0.69389 0.44593 0.22362 0.0
H1702 H 0.7217 0.47213 0.2478 0.0
S1703 S 0.78216 0.42334 0.18471 0.0
N1704 N 0.75389 0.41525 0.18081 0.0
N1705 N 0.78385 0.4439 0.20695 0.0
C1706 C 0.76072 0.44496 0.21214 0.0
C1707 C 0.74446 0.42949 0.19796 0.0
C1708 C 0.60077 0.3449 0.79375 0.0
C1709 C 0.62076 0.35272 0.78039 0.0
C1710 C 0.58278 0.32909 0.78347 0.0
C1711 C 0.58415 0.32044 0.75949 0.0
H1712 H 0.59938 0.35031 0.81254 0.0
H1713 H 0.56835 0.32265 0.79466 0.0
S1714 S 0.63075 0.33754 0.71588 0.0
N1715 N 0.63938 0.35226 0.74113 0.0
N1716 N 0.60554 0.32246 0.72201 0.0
C1717 C 0.60316 0.32914 0.74556 0.0
C1718 C 0.62145 0.34533 0.75595 0.0
C1719 C 0.74276 0.57014 0.84367 0.0
C1720 C 0.72797 0.58453 0.8355 0.0
C1721 C 0.75531 0.55602 0.82778 0.0
C1722 C 0.7533 0.5556 0.80316 0.0
H1723 H 0.74516 0.57022 0.86248 0.0
H1724 H 0.76711 0.54583 0.83483 0.0
S1725 S 0.71454 0.58782 0.77281 0.0
N1726 N 0.71071 0.59621 0.80124 0.0
N1727 N 0.73361 0.56919 0.77145 0.0
C1728 C 0.73778 0.5692 0.79482 0.0
C1729 C 0.7253 0.58378 0.81096 0.0
C1730 C 0.49414 0.71889 0.86932 0.0
C1731 C 0.48603 0.73633 0.88517 0.0
C1732 C 0.5032 0.72319 0.84682 0.0
C1733 C 0.50396 0.74492 0.83925 0.0
H1734 H 0.49366 0.70184 0.87439 0.0
H1735 H 0.50942 0.70938 0.83514 0.0
S1736 S 0.48475 0.79634 0.8737 0.0
N1737 N 0.47941 0.77622 0.8916 0.0
N1738 N 0.4961 0.78407 0.84912 0.0
C1739 C 0.49585 0.76247 0.8548 0.0
C1740 C 0.48698 0.75823 0.87783 0.0
C1741 C 0.33779 0.43337 0.79415 0.0
C1742 C 0.34388 0.43748 0.81808 0.0
C1743 C 0.32573 0.44851 0.78371 0.0
C1744 C 0.31861 0.46815 0.79689 0.0
H1745 H 0.342 0.41805 0.78347 0.0
H1746 H 0.32119 0.44432 0.76527 0.0
S1747 S 0.33125 0.48718 0.8601 0.0
N1748 N 0.34332 0.46333 0.8544 0.0
N1749 N 0.3196 0.4913 0.83511 0.0
C1750 C 0.32551 0.47299 0.82062 0.0
C1751 C 0.33832 0.45775 0.83114 0.0
C1752 C 0.74926 0.59481 0.21194 0.0
C1753 C 0.73233 0.60877 0.22125 0.0
C1754 C 0.76076 0.58249 0.2266 0.0
C1755 C 0.75554 0.58345 0.25107 0.0
H1756 H 0.75398 0.59369 0.19326 0.0
H1757 H 0.77411 0.57245 0.21877 0.0
S1758 S 0.71042 0.61526 0.28359 0.0
N1759 N 0.70983 0.62163 0.25616 0.0
N1760 N 0.73063 0.5979 0.28344 0.0
C1761 C 0.73801 0.59674 0.26037 0.0
C1762 C 0.72664 0.60954 0.24556 0.0
C1763 C 0.75618 0.40784 0.84256 0.0
C1764 C 0.73189 0.40823 0.84611 0.0
C1765 C 0.76882 0.41986 0.82545 0.0
C1766 C 0.75777 0.43284 0.81108 0.0
H1767 H 0.76558 0.39804 0.85304 0.0
H1768 H 0.78755 0.41913 0.82365 0.0
S1769 S 0.69464 0.44054 0.8141 0.0
N1770 N 0.69749 0.42395 0.83488 0.0
N1771 N 0.72097 0.44547 0.80169 0.0
C1772 C 0.73348 0.43355 0.81453 0.0
C1773 C 0.72061 0.42147 0.83223 0.0
C1774 C 0.65222 0.72271 0.83397 0.0
C1775 C 0.64494 0.7001 0.8386 0.0
C1776 C 0.64064 0.73303 0.81775 0.0
C1777 C 0.62132 0.72119 0.80527 0.0
H1778 H 0.66672 0.73285 0.84334 0.0
H1779 H 0.6465 0.75072 0.81554 0.0
S1780 S 0.59632 0.66104 0.80923 0.0
N1781 N 0.61778 0.66574 0.82835 0.0
N1782 N 0.59623 0.68515 0.7975 0.0
C1783 C 0.61419 0.69836 0.80913 0.0
C1784 C 0.62596 0.68782 0.82582 0.0
C1785 C 0.30532 0.62115 0.86409 0.0
C1786 C 0.32931 0.62206 0.86874 0.0
C1787 C 0.29499 0.60644 0.84529 0.0
C1788 C 0.30814 0.59188 0.83052 0.0
H1789 H 0.29452 0.63238 0.87457 0.0
H1790 H 0.27661 0.60677 0.84198 0.0
S1791 S 0.37106 0.58623 0.83604 0.0
N1792 N 0.36562 0.60599 0.85772 0.0
N1793 N 0.34602 0.57837 0.82237 0.0
C1794 C 0.33185 0.59184 0.83551 0.0
C1795 C 0.34248 0.60695 0.85458 0.0
C1796 C 0.42814 0.34194 0.79197 0.0
C1797 C 0.42946 0.34003 0.81632 0.0
C1798 C 0.44118 0.32929 0.77508 0.0
C1799 C 0.45634 0.31455 0.78187 0.0
H1800 H 0.41607 0.35238 0.78578 0.0
H1801 H 0.43887 0.33055 0.75648 0.0
S1802 S 0.468 0.30503 0.84335 0.0
N1803 N 0.44859 0.32341 0.84638 0.0
N1804 N 0.47306 0.29981 0.81458 0.0
C1805 C 0.45885 0.31343 0.80615 0.0
C1806 C 0.44542 0.32611 0.82337 0.0
C1807 C 0.30321 0.41211 0.22111 0.0
C1808 C 0.32773 0.4168 0.21819 0.0
C1809 C 0.29047 0.42651 0.23628 0.0
C1810 C 0.30163 0.44633 0.24905 0.0
H1811 H 0.29366 0.39706 0.21173 0.0
H1812 H 0.27163 0.42215 0.23794 0.0
S1813 S 0.36536 0.46657 0.24805 0.0
N1814 N 0.3627 0.44289 0.22954 0.0
N1815 N 0.33856 0.46997 0.25811 0.0
C1816 C 0.32607 0.45142 0.24629 0.0
C1817 C 0.33916 0.43664 0.23089 0.0
C1818 C 0.62735 0.32812 0.25128 0.0
C1819 C 0.62517 0.32888 0.22684 0.0
C1820 C 0.61346 0.31182 0.26326 0.0
C1821 C 0.59691 0.29542 0.2513 0.0
H1822 H 0.63943 0.34065 0.26151 0.0
H1823 H 0.61518 0.31257 0.28225 0.0
S1824 S 0.58606 0.28832 0.18682 0.0
N1825 N 0.6062 0.31078 0.19074 0.0
N1826 N 0.58045 0.27971 0.21325 0.0
C1827 C 0.59515 0.29535 0.22668 0.0
C1828 C 0.60919 0.31215 0.21446 0.0
C1829 C 0.43245 0.70093 0.19643 0.0
C1830 C 0.41424 0.70779 0.18409 0.0
C1831 C 0.44736 0.71673 0.21093 0.0
C1832 C 0.44466 0.74004 0.21378 0.0
H1833 H 0.43484 0.68309 0.19551 0.0
H1834 H 0.46048 0.71048 0.22077 0.0
S1835 S 0.40182 0.76749 0.18339 0.0
N1836 N 0.39582 0.74005 0.17424 0.0
N1837 N 0.42395 0.76962 0.20148 0.0
C1838 C 0.42736 0.74736 0.20071 0.0
C1839 C 0.41217 0.73129 0.18586 0.0
loop_
_geom_bond_atom_site_label_1
_geom_bond_atom_site_label_2
_geom_bond_distance
_geom_bond_site_symmetry_2
_ccdc_geom_bond_type
O0 Cd1 2.300 . S
O0 C7 1.275 . S
Cd1 O0 2.300 . S
Cd1 O9 2.381 . S
Cd1 O10 2.378 . S
O2 Cd3 2.385 . S
O2 C7 1.255 . S
Cd3 O2 2.385 . S
Cd3 O4 2.317 . S
O4 Cd3 2.317 . S
O4 C5 1.232 . S
C5 O4 1.232 . S
C5 O6 1.218 . S
O6 C5 1.218 . S
C7 O0 1.275 . S
C7 O2 1.255 . S
C8 O9 1.258 . S
C8 O10 1.256 . S
O9 Cd1 2.381 . S
O9 C8 1.258 . S
O10 Cd1 2.378 . S
O10 C8 1.256 . S
O11 Cd12 2.300 . S
O11 C18 1.275 . S
Cd12 O11 2.300 . S
Cd12 O20 2.381 . S
Cd12 O21 2.378 . S
O13 Cd14 2.385 . S
O13 C18 1.255 . S
Cd14 O13 2.385 . S
Cd14 O15 2.317 . S
O15 Cd14 2.317 . S
O15 C16 1.232 . S
C16 O15 1.232 . S
C16 O17 1.218 . S
O17 C16 1.218 . S
C18 O11 1.275 . S
C18 O13 1.255 . S
C19 O20 1.258 . S
C19 O21 1.256 . S
O20 Cd12 2.381 . S
O20 C19 1.258 . S
O21 Cd12 2.378 . S
O21 C19 1.256 . S
O22 Cd23 2.300 . S
O22 C29 1.275 . S
Cd23 O22 2.300 . S
Cd23 O31 2.381 . S
Cd23 O32 2.378 . S
O24 Cd25 2.385 . S
O24 C29 1.255 . S
Cd25 O24 2.385 . S
Cd25 O26 2.317 . S
O26 Cd25 2.317 . S
O26 C27 1.232 . S
C27 O26 1.232 . S
C27 O28 1.218 . S
O28 C27 1.218 . S
C29 O22 1.275 . S
C29 O24 1.255 . S
C30 O31 1.258 . S
C30 O32 1.256 . S
O31 Cd23 2.381 . S
O31 C30 1.258 . S
O32 Cd23 2.378 . S
O32 C30 1.256 . S
O33 Cd34 2.300 . S
O33 C40 1.275 . S
Cd34 O33 2.300 . S
Cd34 O42 2.381 . S
Cd34 O43 2.378 . S
O35 Cd36 2.385 . S
O35 C40 1.255 . S
Cd36 O35 2.385 . S
Cd36 O37 2.317 . S
O37 Cd36 2.317 . S
O37 C38 1.232 . S
C38 O37 1.232 . S
C38 O39 1.218 . S
O39 C38 1.218 . S
C40 O33 1.275 . S
C40 O35 1.255 . S
C41 O42 1.258 . S
C41 O43 1.256 . S
O42 Cd34 2.381 . S
O42 C41 1.258 . S
O43 Cd34 2.378 . S
O43 C41 1.256 . S
O44 Cd45 2.300 . S
O44 C51 1.275 . S
Cd45 O44 2.300 . S
Cd45 O53 2.381 . S
Cd45 O54 2.378 . S
O46 Cd47 2.385 . S
O46 C51 1.255 . S
Cd47 O46 2.385 . S
Cd47 O48 2.317 . S
O48 Cd47 2.317 . S
O48 C49 1.232 . S
C49 O48 1.232 . S
C49 O50 1.218 . S
O50 C49 1.218 . S
C51 O44 1.275 . S
C51 O46 1.255 . S
C52 O53 1.258 . S
C52 O54 1.256 . S
O53 Cd45 2.381 . S
O53 C52 1.258 . S
O54 Cd45 2.378 . S
O54 C52 1.256 . S
O55 Cd56 2.300 . S
O55 C62 1.275 . S
Cd56 O55 2.300 . S
Cd56 O64 2.381 . S
Cd56 O65 2.378 . S
O57 Cd58 2.385 . S
O57 C62 1.255 . S
Cd58 O57 2.385 . S
Cd58 O59 2.317 . S
O59 Cd58 2.317 . S
O59 C60 1.232 . S
C60 O59 1.232 . S
C60 O61 1.218 . S
O61 C60 1.218 . S
C62 O55 1.275 . S
C62 O57 1.255 . S
C63 O64 1.258 . S
C63 O65 1.256 . S
O64 Cd56 2.381 . S
O64 C63 1.258 . S
O65 Cd56 2.378 . S
O65 C63 1.256 . S
O66 Cd67 2.300 . S
O66 C73 1.275 . S
Cd67 O66 2.300 . S
Cd67 O75 2.381 . S
Cd67 O76 2.378 . S
O68 Cd69 2.385 . S
O68 C73 1.255 . S
Cd69 O68 2.385 . S
Cd69 O70 2.317 . S
O70 Cd69 2.317 . S
O70 C71 1.232 . S
C71 O70 1.232 . S
C71 O72 1.218 . S
O72 C71 1.218 . S
C73 O66 1.275 . S
C73 O68 1.255 . S
C74 O75 1.258 . S
C74 O76 1.256 . S
O75 Cd67 2.381 . S
O75 C74 1.258 . S
O76 Cd67 2.378 . S
O76 C74 1.256 . S
O77 Cd78 2.300 . S
O77 C84 1.275 . S
Cd78 O77 2.300 . S
Cd78 O86 2.381 . S
Cd78 O87 2.378 . S
O79 Cd80 2.385 . S
O79 C84 1.255 . S
Cd80 O79 2.385 . S
Cd80 O81 2.317 . S
O81 Cd80 2.317 . S
O81 C82 1.232 . S
C82 O81 1.232 . S
C82 O83 1.218 . S
O83 C82 1.218 . S
C84 O77 1.275 . S
C84 O79 1.255 . S
C85 O86 1.258 . S
C85 O87 1.256 . S
O86 Cd78 2.381 . S
O86 C85 1.258 . S
O87 Cd78 2.378 . S
O87 C85 1.256 . S
O88 Cd89 2.300 . S
O88 C95 1.275 . S
Cd89 O88 2.300 . S
Cd89 O97 2.381 . S
Cd89 O98 2.378 . S
O90 Cd91 2.385 . S
O90 C95 1.255 . S
Cd91 O90 2.385 . S
Cd91 O92 2.317 . S
O92 Cd91 2.317 . S
O92 C93 1.232 . S
C93 O92 1.232 . S
C93 O94 1.218 . S
O94 C93 1.218 . S
C95 O88 1.275 . S
C95 O90 1.255 . S
C96 O97 1.258 . S
C96 O98 1.256 . S
O97 Cd89 2.381 . S
O97 C96 1.258 . S
O98 Cd89 2.378 . S
O98 C96 1.256 . S
O99 Cd100 2.300 . S
O99 C106 1.275 . S
Cd100 O99 2.300 . S
Cd100 O108 2.381 . S
Cd100 O109 2.378 . S
O101 Cd102 2.385 . S
O101 C106 1.255 . S
Cd102 O101 2.385 . S
Cd102 O103 2.317 . S
O103 Cd102 2.317 . S
O103 C104 1.232 . S
C104 O103 1.232 . S
C104 O105 1.218 . S
O105 C104 1.218 . S
C106 O99 1.275 . S
C106 O101 1.255 . S
C107 O108 1.258 . S
C107 O109 1.256 . S
O108 Cd100 2.381 . S
O108 C107 1.258 . S
O109 Cd100 2.378 . S
O109 C107 1.256 . S
O110 Cd111 2.300 . S
O110 C117 1.275 . S
Cd111 O110 2.300 . S
Cd111 O119 2.381 . S
Cd111 O120 2.378 . S
O112 Cd113 2.385 . S
O112 C117 1.255 . S
Cd113 O112 2.385 . S
Cd113 O114 2.317 . S
O114 Cd113 2.317 . S
O114 C115 1.232 . S
C115 O114 1.232 . S
C115 O116 1.218 . S
O116 C115 1.218 . S
C117 O110 1.275 . S
C117 O112 1.255 . S
C118 O119 1.258 . S
C118 O120 1.256 . S
O119 Cd111 2.381 . S
O119 C118 1.258 . S
O120 Cd111 2.378 . S
O120 C118 1.256 . S
O121 Cd122 2.300 . S
O121 C128 1.275 . S
Cd122 O121 2.300 . S
Cd122 O130 2.381 . S
Cd122 O131 2.378 . S
O123 Cd124 2.385 . S
O123 C128 1.255 . S
Cd124 O123 2.385 . S
Cd124 O125 2.317 . S
O125 Cd124 2.317 . S
O125 C126 1.232 . S
C126 O125 1.232 . S
C126 O127 1.218 . S
O127 C126 1.218 . S
C128 O121 1.275 . S
C128 O123 1.255 . S
C129 O130 1.258 . S
C129 O131 1.256 . S
O130 Cd122 2.381 . S
O130 C129 1.258 . S
O131 Cd122 2.378 . S
O131 C129 1.256 . S
O132 Cd133 2.300 . S
O132 C139 1.275 . S
Cd133 O132 2.300 . S
Cd133 O141 2.381 . S
Cd133 O142 2.378 . S
O134 Cd135 2.385 . S
O134 C139 1.255 . S
Cd135 O134 2.385 . S
Cd135 O136 2.317 . S
O136 Cd135 2.317 . S
O136 C137 1.232 . S
C137 O136 1.232 . S
C137 O138 1.218 . S
O138 C137 1.218 . S
C139 O132 1.275 . S
C139 O134 1.255 . S
C140 O141 1.258 . S
C140 O142 1.256 . S
O141 Cd133 2.381 . S
O141 C140 1.258 . S
O142 Cd133 2.378 . S
O142 C140 1.256 . S
O143 Cd144 2.300 . S
O143 C150 1.275 . S
Cd144 O143 2.300 . S
Cd144 O152 2.381 . S
Cd144 O153 2.378 . S
O145 Cd146 2.385 . S
O145 C150 1.255 . S
Cd146 O145 2.385 . S
Cd146 O147 2.317 . S
O147 Cd146 2.317 . S
O147 C148 1.232 . S
C148 O147 1.232 . S
C148 O149 1.218 . S
O149 C148 1.218 . S
C150 O143 1.275 . S
C150 O145 1.255 . S
C151 O152 1.258 . S
C151 O153 1.256 . S
O152 Cd144 2.381 . S
O152 C151 1.258 . S
O153 Cd144 2.378 . S
O153 C151 1.256 . S
O154 Cd155 2.300 . S
O154 C161 1.275 . S
Cd155 O154 2.300 . S
Cd155 O163 2.381 . S
Cd155 O164 2.378 . S
O156 Cd157 2.385 . S
O156 C161 1.255 . S
Cd157 O156 2.385 . S
Cd157 O158 2.317 . S
O158 Cd157 2.317 . S
O158 C159 1.232 . S
C159 O158 1.232 . S
C159 O160 1.218 . S
O160 C159 1.218 . S
C161 O154 1.275 . S
C161 O156 1.255 . S
C162 O163 1.258 . S
C162 O164 1.256 . S
O163 Cd155 2.381 . S
O163 C162 1.258 . S
O164 Cd155 2.378 . S
O164 C162 1.256 . S
O165 Cd166 2.300 . S
O165 C172 1.275 . S
Cd166 O165 2.300 . S
Cd166 O174 2.381 . S
Cd166 O175 2.378 . S
O167 Cd168 2.385 . S
O167 C172 1.255 . S
Cd168 O167 2.385 . S
Cd168 O169 2.317 . S
O169 Cd168 2.317 . S
O169 C170 1.232 . S
C170 O169 1.232 . S
C170 O171 1.218 . S
O171 C170 1.218 . S
C172 O165 1.275 . S
C172 O167 1.255 . S
C173 O174 1.258 . S
C173 O175 1.256 . S
O174 Cd166 2.381 . S
O174 C173 1.258 . S
O175 Cd166 2.378 . S
O175 C173 1.256 . S
O176 Cd177 2.300 . S
O176 C183 1.275 . S
Cd177 O176 2.300 . S
Cd177 O185 2.381 . S
Cd177 O186 2.378 . S
O178 Cd179 2.385 . S
O178 C183 1.255 . S
Cd179 O178 2.385 . S
Cd179 O180 2.317 . S
O180 Cd179 2.317 . S
O180 C181 1.232 . S
C181 O180 1.232 . S
C181 O182 1.218 . S
O182 C181 1.218 . S
C183 O176 1.275 . S
C183 O178 1.255 . S
C184 O185 1.258 . S
C184 O186 1.256 . S
O185 Cd177 2.381 . S
O185 C184 1.258 . S
O186 Cd177 2.378 . S
O186 C184 1.256 . S
O187 Cd188 2.300 . S
O187 C194 1.275 . S
Cd188 O187 2.300 . S
Cd188 O196 2.381 . S
Cd188 O197 2.378 . S
O189 Cd190 2.385 . S
O189 C194 1.255 . S
Cd190 O189 2.385 . S
Cd190 O191 2.317 . S
O191 Cd190 2.317 . S
O191 C192 1.232 . S
C192 O191 1.232 . S
C192 O193 1.218 . S
O193 C192 1.218 . S
C194 O187 1.275 . S
C194 O189 1.255 . S
C195 O196 1.258 . S
C195 O197 1.256 . S
O196 Cd188 2.381 . S
O196 C195 1.258 . S
O197 Cd188 2.378 . S
O197 C195 1.256 . S
O198 Cd199 2.300 . S
O198 C205 1.275 . S
Cd199 O198 2.300 . S
Cd199 O207 2.381 . S
Cd199 O208 2.378 . S
O200 Cd201 2.385 . S
O200 C205 1.255 . S
Cd201 O200 2.385 . S
Cd201 O202 2.317 . S
O202 Cd201 2.317 . S
O202 C203 1.232 . S
C203 O202 1.232 . S
C203 O204 1.218 . S
O204 C203 1.218 . S
C205 O198 1.275 . S
C205 O200 1.255 . S
C206 O207 1.258 . S
C206 O208 1.256 . S
O207 Cd199 2.381 . S
O207 C206 1.258 . S
O208 Cd199 2.378 . S
O208 C206 1.256 . S
O209 Cd210 2.300 . S
O209 C216 1.275 . S
Cd210 O209 2.300 . S
Cd210 O218 2.381 . S
Cd210 O219 2.378 . S
O211 Cd212 2.385 . S
O211 C216 1.255 . S
Cd212 O211 2.385 . S
Cd212 O213 2.317 . S
O213 Cd212 2.317 . S
O213 C214 1.232 . S
C214 O213 1.232 . S
C214 O215 1.218 . S
O215 C214 1.218 . S
C216 O209 1.275 . S
C216 O211 1.255 . S
C217 O218 1.258 . S
C217 O219 1.256 . S
O218 Cd210 2.381 . S
O218 C217 1.258 . S
O219 Cd210 2.378 . S
O219 C217 1.256 . S
O220 Cd221 2.300 . S
O220 C227 1.275 . S
Cd221 O220 2.300 . S
Cd221 O229 2.381 . S
Cd221 O230 2.378 . S
O222 Cd223 2.385 . S
O222 C227 1.255 . S
Cd223 O222 2.385 . S
Cd223 O224 2.317 . S
O224 Cd223 2.317 . S
O224 C225 1.232 . S
C225 O224 1.232 . S
C225 O226 1.218 . S
O226 C225 1.218 . S
C227 O220 1.275 . S
C227 O222 1.255 . S
C228 O229 1.258 . S
C228 O230 1.256 . S
O229 Cd221 2.381 . S
O229 C228 1.258 . S
O230 Cd221 2.378 . S
O230 C228 1.256 . S
O231 Cd232 2.300 . S
O231 C238 1.275 . S
Cd232 O231 2.300 . S
Cd232 O240 2.381 . S
Cd232 O241 2.378 . S
O233 Cd234 2.385 . S
O233 C238 1.255 . S
Cd234 O233 2.385 . S
Cd234 O235 2.317 . S
O235 Cd234 2.317 . S
O235 C236 1.232 . S
C236 O235 1.232 . S
C236 O237 1.218 . S
O237 C236 1.218 . S
C238 O231 1.275 . S
C238 O233 1.255 . S
C239 O240 1.258 . S
C239 O241 1.256 . S
O240 Cd232 2.381 . S
O240 C239 1.258 . S
O241 Cd232 2.378 . S
O241 C239 1.256 . S
O242 Cd243 2.300 . S
O242 C249 1.275 . S
Cd243 O242 2.300 . S
Cd243 O251 2.381 . S
Cd243 O252 2.378 . S
O244 Cd245 2.385 . S
O244 C249 1.255 . S
Cd245 O244 2.385 . S
Cd245 O246 2.317 . S
O246 Cd245 2.317 . S
O246 C247 1.232 . S
C247 O246 1.232 . S
C247 O248 1.218 . S
O248 C247 1.218 . S
C249 O242 1.275 . S
C249 O244 1.255 . S
C250 O251 1.258 . S
C250 O252 1.256 . S
O251 Cd243 2.381 . S
O251 C250 1.258 . S
O252 Cd243 2.378 . S
O252 C250 1.256 . S
O253 Cd254 2.300 . S
O253 C260 1.275 . S
Cd254 O253 2.300 . S
Cd254 O262 2.381 . S
Cd254 O263 2.378 . S
O255 Cd256 2.385 . S
O255 C260 1.255 . S
Cd256 O255 2.385 . S
Cd256 O257 2.317 . S
O257 Cd256 2.317 . S
O257 C258 1.232 . S
C258 O257 1.232 . S
C258 O259 1.218 . S
O259 C258 1.218 . S
C260 O253 1.275 . S
C260 O255 1.255 . S
C261 O262 1.258 . S
C261 O263 1.256 . S
O262 Cd254 2.381 . S
O262 C261 1.258 . S
O263 Cd254 2.378 . S
O263 C261 1.256 . S
O264 Cd265 2.300 . S
O264 C271 1.275 . S
Cd265 O264 2.300 . S
Cd265 O273 2.381 . S
Cd265 O274 2.378 . S
O266 Cd267 2.385 . S
O266 C271 1.255 . S
Cd267 O266 2.385 . S
Cd267 O268 2.317 . S
O268 Cd267 2.317 . S
O268 C269 1.232 . S
C269 O268 1.232 . S
C269 O270 1.218 . S
O270 C269 1.218 . S
C271 O264 1.275 . S
C271 O266 1.255 . S
C272 O273 1.258 . S
C272 O274 1.256 . S
O273 Cd265 2.381 . S
O273 C272 1.258 . S
O274 Cd265 2.378 . S
O274 C272 1.256 . S
O275 Cd276 2.300 . S
O275 C282 1.275 . S
Cd276 O275 2.300 . S
Cd276 O284 2.381 . S
Cd276 O285 2.378 . S
O277 Cd278 2.385 . S
O277 C282 1.255 . S
Cd278 O277 2.385 . S
Cd278 O279 2.317 . S
O279 Cd278 2.317 . S
O279 C280 1.232 . S
C280 O279 1.232 . S
C280 O281 1.218 . S
O281 C280 1.218 . S
C282 O275 1.275 . S
C282 O277 1.255 . S
C283 O284 1.258 . S
C283 O285 1.256 . S
O284 Cd276 2.381 . S
O284 C283 1.258 . S
O285 Cd276 2.378 . S
O285 C283 1.256 . S
O286 Cd287 2.300 . S
O286 C293 1.275 . S
Cd287 O286 2.300 . S
Cd287 O295 2.381 . S
Cd287 O296 2.378 . S
O288 Cd289 2.385 . S
O288 C293 1.255 . S
Cd289 O288 2.385 . S
Cd289 O290 2.317 . S
O290 Cd289 2.317 . S
O290 C291 1.232 . S
C291 O290 1.232 . S
C291 O292 1.218 . S
O292 C291 1.218 . S
C293 O286 1.275 . S
C293 O288 1.255 . S
C294 O295 1.258 . S
C294 O296 1.256 . S
O295 Cd287 2.381 . S
O295 C294 1.258 . S
O296 Cd287 2.378 . S
O296 C294 1.256 . S
O297 Cd298 2.300 . S
O297 C304 1.275 . S
Cd298 O297 2.300 . S
Cd298 O306 2.381 . S
Cd298 O307 2.378 . S
O299 Cd300 2.385 . S
O299 C304 1.255 . S
Cd300 O299 2.385 . S
Cd300 O301 2.317 . S
O301 Cd300 2.317 . S
O301 C302 1.232 . S
C302 O301 1.232 . S
C302 O303 1.218 . S
O303 C302 1.218 . S
C304 O297 1.275 . S
C304 O299 1.255 . S
C305 O306 1.258 . S
C305 O307 1.256 . S
O306 Cd298 2.381 . S
O306 C305 1.258 . S
O307 Cd298 2.378 . S
O307 C305 1.256 . S
O308 Cd309 2.300 . S
O308 C315 1.275 . S
Cd309 O308 2.300 . S
Cd309 O317 2.381 . S
Cd309 O318 2.378 . S
O310 Cd311 2.385 . S
O310 C315 1.255 . S
Cd311 O310 2.385 . S
Cd311 O312 2.317 . S
O312 Cd311 2.317 . S
O312 C313 1.232 . S
C313 O312 1.232 . S
C313 O314 1.218 . S
O314 C313 1.218 . S
C315 O308 1.275 . S
C315 O310 1.255 . S
C316 O317 1.258 . S
C316 O318 1.256 . S
O317 Cd309 2.381 . S
O317 C316 1.258 . S
O318 Cd309 2.378 . S
O318 C316 1.256 . S
O319 Cd320 2.300 . S
O319 C326 1.275 . S
Cd320 O319 2.300 . S
Cd320 O328 2.381 . S
Cd320 O329 2.378 . S
O321 Cd322 2.385 . S
O321 C326 1.255 . S
Cd322 O321 2.385 . S
Cd322 O323 2.317 . S
O323 Cd322 2.317 . S
O323 C324 1.232 . S
C324 O323 1.232 . S
C324 O325 1.218 . S
O325 C324 1.218 . S
C326 O319 1.275 . S
C326 O321 1.255 . S
C327 O328 1.258 . S
C327 O329 1.256 . S
O328 Cd320 2.381 . S
O328 C327 1.258 . S
O329 Cd320 2.378 . S
O329 C327 1.256 . S
O330 Cd331 2.300 . S
O330 C337 1.275 . S
Cd331 O330 2.300 . S
Cd331 O339 2.381 . S
Cd331 O340 2.378 . S
O332 Cd333 2.385 . S
O332 C337 1.255 . S
Cd333 O332 2.385 . S
Cd333 O334 2.317 . S
O334 Cd333 2.317 . S
O334 C335 1.232 . S
C335 O334 1.232 . S
C335 O336 1.218 . S
O336 C335 1.218 . S
C337 O330 1.275 . S
C337 O332 1.255 . S
C338 O339 1.258 . S
C338 O340 1.256 . S
O339 Cd331 2.381 . S
O339 C338 1.258 . S
O340 Cd331 2.378 . S
O340 C338 1.256 . S
O341 Cd342 2.300 . S
O341 C348 1.275 . S
Cd342 O341 2.300 . S
Cd342 O350 2.381 . S
Cd342 O351 2.378 . S
O343 Cd344 2.385 . S
O343 C348 1.255 . S
Cd344 O343 2.385 . S
Cd344 O345 2.317 . S
O345 Cd344 2.317 . S
O345 C346 1.232 . S
C346 O345 1.232 . S
C346 O347 1.218 . S
O347 C346 1.218 . S
C348 O341 1.275 . S
C348 O343 1.255 . S
C349 O350 1.258 . S
C349 O351 1.256 . S
O350 Cd342 2.381 . S
O350 C349 1.258 . S
O351 Cd342 2.378 . S
O351 C349 1.256 . S
H352 C358 0.930 . S
H353 C361 0.931 . S
H354 C363 0.931 . S
H355 C365 0.930 . S
H356 C367 0.930 . S
H357 C369 0.931 . S
C358 H352 0.930 . S
C358 C359 1.380 . S
C358 C360 1.394 . S
C359 C358 1.380 . S
C359 C363 1.382 1_556 S
C360 C358 1.394 . S
C360 C361 1.400 1_556 S
C361 H353 0.931 . S
C361 C360 1.400 1_554 S
C361 C362 1.375 . S
C362 C361 1.375 . S
C362 C363 1.415 . S
C362 C364 1.501 . S
C363 H354 0.931 . S
C363 C359 1.382 1_554 S
C363 C362 1.415 . S
C364 C362 1.501 . S
C364 C365 1.384 . S
C364 C369 1.408 . S
C365 H355 0.930 . S
C365 C364 1.384 . S
C365 C366 1.389 . S
C366 C365 1.389 . S
C366 C367 1.405 . S
C367 H356 0.930 . S
C367 C366 1.405 . S
C367 C368 1.364 . S
C368 C367 1.364 . S
C368 C369 1.400 . S
C369 H357 0.931 . S
C369 C364 1.408 . S
C369 C368 1.400 . S
H370 C376 0.930 . S
H371 C379 0.931 . S
H372 C381 0.931 . S
H373 C383 0.930 . S
H374 C385 0.930 . S
H375 C387 0.931 . S
C376 H370 0.930 . S
C376 C377 1.380 . S
C376 C378 1.394 . S
C377 C376 1.380 . S
C377 C381 1.382 . S
C378 C376 1.394 . S
C378 C379 1.400 . S
C379 H371 0.931 . S
C379 C378 1.400 . S
C379 C380 1.375 . S
C380 C379 1.375 . S
C380 C381 1.415 . S
C380 C382 1.501 1_554 S
C381 H372 0.931 . S
C381 C377 1.382 . S
C381 C380 1.415 . S
C382 C380 1.501 1_556 S
C382 C383 1.384 . S
C382 C387 1.408 . S
C383 H373 0.930 . S
C383 C382 1.384 . S
C383 C384 1.389 . S
C384 C383 1.389 . S
C384 C385 1.405 . S
C385 H374 0.930 . S
C385 C384 1.405 . S
C385 C386 1.364 . S
C386 C385 1.364 . S
C386 C387 1.400 . S
C387 H375 0.931 . S
C387 C382 1.408 . S
C387 C386 1.400 . S
H388 C394 0.930 . S
H389 C397 0.931 . S
H390 C399 0.931 . S
H391 C401 0.930 . S
H392 C403 0.930 . S
H393 C405 0.931 . S
C394 H388 0.930 . S
C394 C395 1.380 . S
C394 C396 1.394 . S
C395 C394 1.380 . S
C395 C399 1.382 1_556 S
C396 C394 1.394 . S
C396 C397 1.400 1_556 S
C397 H389 0.931 . S
C397 C396 1.400 1_554 S
C397 C398 1.375 . S
C398 C397 1.375 . S
C398 C399 1.415 . S
C398 C400 1.501 . S
C399 H390 0.931 . S
C399 C395 1.382 1_554 S
C399 C398 1.415 . S
C400 C398 1.501 . S
C400 C401 1.384 . S
C400 C405 1.408 . S
C401 H391 0.930 . S
C401 C400 1.384 . S
C401 C402 1.389 . S
C402 C401 1.389 . S
C402 C403 1.405 . S
C403 H392 0.930 . S
C403 C402 1.405 . S
C403 C404 1.364 . S
C404 C403 1.364 . S
C404 C405 1.400 . S
C405 H393 0.931 . S
C405 C400 1.408 . S
C405 C404 1.400 . S
H406 C412 0.930 . S
H407 C415 0.931 . S
H408 C417 0.931 . S
H409 C419 0.930 . S
H410 C421 0.930 . S
H411 C423 0.931 . S
C412 H406 0.930 . S
C412 C413 1.380 . S
C412 C414 1.394 . S
C413 C412 1.380 . S
C413 C417 1.382 . S
C414 C412 1.394 . S
C414 C415 1.400 . S
C415 H407 0.931 . S
C415 C414 1.400 . S
C415 C416 1.375 . S
C416 C415 1.375 . S
C416 C417 1.415 . S
C416 C418 1.501 1_554 S
C417 H408 0.931 . S
C417 C413 1.382 . S
C417 C416 1.415 . S
C418 C416 1.501 1_556 S
C418 C419 1.384 . S
C418 C423 1.408 . S
C419 H409 0.930 . S
C419 C418 1.384 . S
C419 C420 1.389 . S
C420 C419 1.389 . S
C420 C421 1.405 . S
C421 H410 0.930 . S
C421 C420 1.405 . S
C421 C422 1.364 . S
C422 C421 1.364 . S
C422 C423 1.400 . S
C423 H411 0.931 . S
C423 C418 1.408 . S
C423 C422 1.400 . S
H424 C430 0.930 . S
H425 C433 0.931 . S
H426 C435 0.931 . S
H427 C437 0.930 . S
H428 C439 0.930 . S
H429 C441 0.931 . S
C430 H424 0.930 . S
C430 C431 1.380 . S
C430 C432 1.394 . S
C431 C430 1.380 . S
C431 C435 1.382 . S
C432 C430 1.394 . S
C432 C433 1.400 . S
C433 H425 0.931 . S
C433 C432 1.400 . S
C433 C434 1.375 . S
C434 C433 1.375 . S
C434 C435 1.415 . S
C434 C436 1.501 1_455 S
C435 H426 0.931 . S
C435 C431 1.382 . S
C435 C434 1.415 . S
C436 C434 1.501 1_655 S
C436 C437 1.384 . S
C436 C441 1.408 . S
C437 H427 0.930 . S
C437 C436 1.384 . S
C437 C438 1.389 . S
C438 C437 1.389 . S
C438 C439 1.405 . S
C439 H428 0.930 . S
C439 C438 1.405 . S
C439 C440 1.364 . S
C440 C439 1.364 . S
C440 C441 1.400 . S
C441 H429 0.931 . S
C441 C436 1.408 . S
C441 C440 1.400 . S
H442 C448 0.930 . S
H443 C451 0.931 . S
H444 C453 0.931 . S
H445 C455 0.930 . S
H446 C457 0.930 . S
H447 C459 0.931 . S
C448 H442 0.930 . S
C448 C449 1.380 . S
C448 C450 1.394 . S
C449 C448 1.380 . S
C449 C453 1.382 . S
C450 C448 1.394 . S
C450 C451 1.400 . S
C451 H443 0.931 . S
C451 C450 1.400 . S
C451 C452 1.375 . S
C452 C451 1.375 . S
C452 C453 1.415 . S
C452 C454 1.501 1_565 S
C453 H444 0.931 . S
C453 C449 1.382 . S
C453 C452 1.415 . S
C454 C452 1.501 1_545 S
C454 C455 1.384 . S
C454 C459 1.408 . S
C455 H445 0.930 . S
C455 C454 1.384 . S
C455 C456 1.389 . S
C456 C455 1.389 . S
C456 C457 1.405 . S
C457 H446 0.930 . S
C457 C456 1.405 . S
C457 C458 1.364 . S
C458 C457 1.364 . S
C458 C459 1.400 . S
C459 H447 0.931 . S
C459 C454 1.408 . S
C459 C458 1.400 . S
H460 C466 0.930 . S
H461 C469 0.931 . S
H462 C471 0.931 . S
H463 C473 0.930 . S
H464 C475 0.930 1_655 S
H465 C477 0.931 . S
C466 H460 0.930 . S
C466 C467 1.380 . S
C466 C468 1.394 . S
C467 C466 1.380 . S
C467 C471 1.382 . S
C468 C466 1.394 . S
C468 C469 1.400 . S
C469 H461 0.931 . S
C469 C468 1.400 . S
C469 C470 1.375 . S
C470 C469 1.375 . S
C470 C471 1.415 . S
C470 C472 1.501 . S
C471 H462 0.931 . S
C471 C467 1.382 . S
C471 C470 1.415 . S
C472 C470 1.501 . S
C472 C473 1.384 . S
C472 C477 1.408 . S
C473 H463 0.930 . S
C473 C472 1.384 . S
C473 C474 1.389 . S
C474 C473 1.389 . S
C474 C475 1.405 . S
C475 H464 0.930 1_455 S
C475 C474 1.405 . S
C475 C476 1.364 . S
C476 C475 1.364 . S
C476 C477 1.400 . S
C477 H465 0.931 . S
C477 C472 1.408 . S
C477 C476 1.400 . S
H478 C484 0.930 . S
H479 C487 0.931 . S
H480 C489 0.931 . S
H481 C491 0.946 . S
H482 C493 0.930 . S
H483 C495 0.931 . S
C484 H478 0.930 . S
C484 C485 1.380 . S
C484 C486 1.394 . S
C485 C484 1.380 . S
C485 C489 1.382 . S
C486 C484 1.394 . S
C486 C487 1.400 . S
C487 H479 0.931 . S
C487 C486 1.400 . S
C487 C488 1.375 . S
C488 C487 1.375 . S
C488 C489 1.415 . S
C488 C490 1.501 . S
C489 H480 0.931 . S
C489 C485 1.382 . S
C489 C488 1.415 . S
C490 C488 1.501 . S
C490 C491 1.398 . S
C490 C495 1.408 1_545 S
C491 H481 0.946 . S
C491 C490 1.398 . S
C491 C492 1.361 1_545 S
C492 C491 1.361 1_565 S
C492 C493 1.405 . S
C493 H482 0.930 . S
C493 C492 1.405 . S
C493 C494 1.364 . S
C494 C493 1.364 . S
C494 C495 1.400 . S
C495 H483 0.931 . S
C495 C490 1.408 1_565 S
C495 C494 1.400 . S
H496 C502 0.930 . S
H497 C505 0.931 . S
H498 C507 0.931 . S
H499 C509 0.930 . S
H500 C511 0.930 . S
H501 C513 0.931 . S
C502 H496 0.930 . S
C502 C503 1.380 . S
C502 C504 1.394 . S
C503 C502 1.380 . S
C503 C507 1.382 . S
C504 C502 1.394 . S
C504 C505 1.400 . S
C505 H497 0.931 . S
C505 C504 1.400 . S
C505 C506 1.375 . S
C506 C505 1.375 . S
C506 C507 1.415 . S
C506 C508 1.501 1_455 S
C507 H498 0.931 . S
C507 C503 1.382 . S
C507 C506 1.415 . S
C508 C506 1.501 1_655 S
C508 C509 1.384 . S
C508 C513 1.408 . S
C509 H499 0.930 . S
C509 C508 1.384 . S
C509 C510 1.389 . S
C510 C509 1.389 . S
C510 C511 1.405 . S
C511 H500 0.930 . S
C511 C510 1.405 . S
C511 C512 1.364 . S
C512 C511 1.364 . S
C512 C513 1.400 . S
C513 H501 0.931 . S
C513 C508 1.408 . S
C513 C512 1.400 . S
H514 C520 0.930 . S
H515 C523 0.931 . S
H516 C525 0.931 . S
H517 C527 0.930 . S
H518 C529 0.930 . S
H519 C531 0.931 . S
C520 H514 0.930 . S
C520 C521 1.380 . S
C520 C522 1.394 . S
C521 C520 1.380 . S
C521 C525 1.382 . S
C522 C520 1.394 . S
C522 C523 1.400 . S
C523 H515 0.931 . S
C523 C522 1.400 . S
C523 C524 1.375 . S
C524 C523 1.375 . S
C524 C525 1.415 . S
C524 C526 1.501 1_565 S
C525 H516 0.931 . S
C525 C521 1.382 . S
C525 C524 1.415 . S
C526 C524 1.501 1_545 S
C526 C527 1.384 . S
C526 C531 1.408 . S
C527 H517 0.930 . S
C527 C526 1.384 . S
C527 C528 1.389 . S
C528 C527 1.389 . S
C528 C529 1.405 . S
C529 H518 0.930 . S
C529 C528 1.405 . S
C529 C530 1.364 . S
C530 C529 1.364 . S
C530 C531 1.400 . S
C531 H519 0.931 . S
C531 C526 1.408 . S
C531 C530 1.400 . S
H532 C538 0.930 . S
H533 C541 0.931 . S
H534 C543 0.931 . S
H535 C545 0.930 . S
H536 C547 0.930 1_655 S
H537 C549 0.931 . S
C538 H532 0.930 . S
C538 C539 1.380 . S
C538 C540 1.394 . S
C539 C538 1.380 . S
C539 C543 1.382 . S
C540 C538 1.394 . S
C540 C541 1.400 . S
C541 H533 0.931 . S
C541 C540 1.400 . S
C541 C542 1.375 . S
C542 C541 1.375 . S
C542 C543 1.415 . S
C542 C544 1.501 . S
C543 H534 0.931 . S
C543 C539 1.382 . S
C543 C542 1.415 . S
C544 C542 1.501 . S
C544 C545 1.384 . S
C544 C549 1.408 . S
C545 H535 0.930 . S
C545 C544 1.384 . S
C545 C546 1.389 . S
C546 C545 1.389 . S
C546 C547 1.405 . S
C547 H536 0.930 1_455 S
C547 C546 1.405 . S
C547 C548 1.364 . S
C548 C547 1.364 . S
C548 C549 1.400 . S
C549 H537 0.931 . S
C549 C544 1.408 . S
C549 C548 1.400 . S
H550 C556 0.930 . S
H551 C559 0.931 . S
H552 C561 0.931 . S
H553 C563 0.956 . S
H554 C565 0.930 . S
H555 C567 0.931 . S
C556 H550 0.930 . S
C556 C557 1.380 . S
C556 C558 1.394 . S
C557 C556 1.380 . S
C557 C561 1.382 . S
C558 C556 1.394 . S
C558 C559 1.400 . S
C559 H551 0.931 . S
C559 C558 1.400 . S
C559 C560 1.375 . S
C560 C559 1.375 . S
C560 C561 1.415 . S
C560 C562 1.501 . S
C561 H552 0.931 . S
C561 C557 1.382 . S
C561 C560 1.415 . S
C562 C560 1.501 . S
C562 C563 1.406 . S
C562 C567 1.408 1_545 S
C563 H553 0.956 . S
C563 C562 1.406 . S
C563 C564 1.343 1_545 S
C564 C563 1.343 1_565 S
C564 C565 1.405 . S
C565 H554 0.930 . S
C565 C564 1.405 . S
C565 C566 1.364 . S
C566 C565 1.364 . S
C566 C567 1.400 . S
C567 H555 0.931 . S
C567 C562 1.408 1_565 S
C567 C566 1.400 . S
H568 C574 0.930 . S
H569 C577 0.931 . S
H570 C579 0.931 . S
H571 C581 0.930 . S
H572 C583 0.930 . S
H573 C585 0.931 . S
C574 H568 0.930 . S
C574 C575 1.380 . S
C574 C576 1.394 . S
C575 C574 1.380 . S
C575 C579 1.382 . S
C576 C574 1.394 . S
C576 C577 1.400 . S
C577 H569 0.931 . S
C577 C576 1.400 . S
C577 C578 1.375 . S
C578 C577 1.375 . S
C578 C579 1.415 . S
C578 C580 1.501 . S
C579 H570 0.931 . S
C579 C575 1.382 . S
C579 C578 1.415 . S
C580 C578 1.501 . S
C580 C581 1.384 . S
C580 C585 1.408 . S
C581 H571 0.930 . S
C581 C580 1.384 . S
C581 C582 1.389 . S
C582 C581 1.389 . S
C582 C583 1.405 . S
C583 H572 0.930 . S
C583 C582 1.405 . S
C583 C584 1.364 . S
C584 C583 1.364 . S
C584 C585 1.400 . S
C585 H573 0.931 . S
C585 C580 1.408 . S
C585 C584 1.400 . S
H586 C592 0.930 . S
H587 C595 0.931 . S
H588 C597 0.931 . S
H589 C599 0.930 . S
H590 C601 0.930 . S
H591 C603 0.931 . S
C592 H586 0.930 . S
C592 C593 1.380 . S
C592 C594 1.394 . S
C593 C592 1.380 . S
C593 C597 1.382 . S
C594 C592 1.394 . S
C594 C595 1.400 . S
C595 H587 0.931 . S
C595 C594 1.400 . S
C595 C596 1.375 . S
C596 C595 1.375 . S
C596 C597 1.415 . S
C596 C598 1.501 . S
C597 H588 0.931 . S
C597 C593 1.382 . S
C597 C596 1.415 . S
C598 C596 1.501 . S
C598 C599 1.384 . S
C598 C603 1.408 . S
C599 H589 0.930 . S
C599 C598 1.384 . S
C599 C600 1.389 . S
C600 C599 1.389 . S
C600 C601 1.405 . S
C601 H590 0.930 . S
C601 C600 1.405 . S
C601 C602 1.364 . S
C602 C601 1.364 . S
C602 C603 1.400 . S
C603 H591 0.931 . S
C603 C598 1.408 . S
C603 C602 1.400 . S
H604 C610 0.930 . S
H605 C613 0.931 . S
H606 C615 0.931 . S
H607 C617 0.930 . S
H608 C619 0.930 . S
H609 C621 0.931 . S
C610 H604 0.930 . S
C610 C611 1.380 . S
C610 C612 1.394 . S
C611 C610 1.380 . S
C611 C615 1.382 . S
C612 C610 1.394 . S
C612 C613 1.400 . S
C613 H605 0.931 . S
C613 C612 1.400 . S
C613 C614 1.375 . S
C614 C613 1.375 . S
C614 C615 1.415 . S
C614 C616 1.501 . S
C615 H606 0.931 . S
C615 C611 1.382 . S
C615 C614 1.415 . S
C616 C614 1.501 . S
C616 C617 1.384 . S
C616 C621 1.408 . S
C617 H607 0.930 . S
C617 C616 1.384 . S
C617 C618 1.389 . S
C618 C617 1.389 . S
C618 C619 1.405 . S
C619 H608 0.930 . S
C619 C618 1.405 . S
C619 C620 1.364 . S
C620 C619 1.364 . S
C620 C621 1.400 . S
C621 H609 0.931 . S
C621 C616 1.408 . S
C621 C620 1.400 . S
H622 C628 0.930 . S
H623 C631 0.931 . S
H624 C633 0.931 . S
H625 C635 0.930 . S
H626 C637 0.930 . S
H627 C639 0.931 . S
C628 H622 0.930 . S
C628 C629 1.380 . S
C628 C630 1.394 . S
C629 C628 1.380 . S
C629 C633 1.382 . S
C630 C628 1.394 . S
C630 C631 1.400 . S
C631 H623 0.931 . S
C631 C630 1.400 . S
C631 C632 1.375 . S
C632 C631 1.375 . S
C632 C633 1.415 . S
C632 C634 1.501 . S
C633 H624 0.931 . S
C633 C629 1.382 . S
C633 C632 1.415 . S
C634 C632 1.501 . S
C634 C635 1.384 . S
C634 C639 1.408 . S
C635 H625 0.930 . S
C635 C634 1.384 . S
C635 C636 1.389 . S
C636 C635 1.389 . S
C636 C637 1.405 . S
C637 H626 0.930 . S
C637 C636 1.405 . S
C637 C638 1.364 . S
C638 C637 1.364 . S
C638 C639 1.400 . S
C639 H627 0.931 . S
C639 C634 1.408 . S
C639 C638 1.400 . S
H640 C646 0.930 . S
H641 C649 0.931 . S
H642 C651 0.931 . S
H643 C653 0.930 . S
H644 C655 0.930 . S
H645 C657 0.931 . S
C646 H640 0.930 . S
C646 C647 1.380 . S
C646 C648 1.394 . S
C647 C646 1.380 . S
C647 C651 1.382 . S
C648 C646 1.394 . S
C648 C649 1.400 . S
C649 H641 0.931 . S
C649 C648 1.400 . S
C649 C650 1.375 . S
C650 C649 1.375 . S
C650 C651 1.415 . S
C650 C652 1.501 . S
C651 H642 0.931 . S
C651 C647 1.382 . S
C651 C650 1.415 . S
C652 C650 1.501 . S
C652 C653 1.384 . S
C652 C657 1.408 . S
C653 H643 0.930 . S
C653 C652 1.384 . S
C653 C654 1.389 . S
C654 C653 1.389 . S
C654 C655 1.405 . S
C655 H644 0.930 . S
C655 C654 1.405 . S
C655 C656 1.364 . S
C656 C655 1.364 . S
C656 C657 1.400 . S
C657 H645 0.931 . S
C657 C652 1.408 . S
C657 C656 1.400 . S
H658 C664 0.930 . S
H659 C667 0.931 . S
H660 C669 0.931 . S
H661 C671 0.930 . S
H662 C673 0.930 . S
H663 C675 0.931 . S
C664 H658 0.930 . S
C664 C665 1.380 . S
C664 C666 1.394 . S
C665 C664 1.380 . S
C665 C669 1.382 . S
C666 C664 1.394 . S
C666 C667 1.400 . S
C667 H659 0.931 . S
C667 C666 1.400 . S
C667 C668 1.375 . S
C668 C667 1.375 . S
C668 C669 1.415 . S
C668 C670 1.501 . S
C669 H660 0.931 . S
C669 C665 1.382 . S
C669 C668 1.415 . S
C670 C668 1.501 . S
C670 C671 1.384 . S
C670 C675 1.408 . S
C671 H661 0.930 . S
C671 C670 1.384 . S
C671 C672 1.389 . S
C672 C671 1.389 . S
C672 C673 1.405 . S
C673 H662 0.930 . S
C673 C672 1.405 . S
C673 C674 1.364 . S
C674 C673 1.364 . S
C674 C675 1.400 . S
C675 H663 0.931 . S
C675 C670 1.408 . S
C675 C674 1.400 . S
H676 C682 0.930 . S
H677 C685 0.931 . S
H678 C687 0.931 . S
H679 C689 0.930 . S
H680 C691 0.930 . S
H681 C693 0.931 . S
C682 H676 0.930 . S
C682 C683 1.380 . S
C682 C684 1.394 . S
C683 C682 1.380 . S
C683 C687 1.382 . S
C684 C682 1.394 . S
C684 C685 1.400 . S
C685 H677 0.931 . S
C685 C684 1.400 . S
C685 C686 1.375 . S
C686 C685 1.375 . S
C686 C687 1.415 . S
C686 C688 1.501 . S
C687 H678 0.931 . S
C687 C683 1.382 . S
C687 C686 1.415 . S
C688 C686 1.501 . S
C688 C689 1.384 . S
C688 C693 1.408 . S
C689 H679 0.930 . S
C689 C688 1.384 . S
C689 C690 1.389 . S
C690 C689 1.389 . S
C690 C691 1.405 . S
C691 H680 0.930 . S
C691 C690 1.405 . S
C691 C692 1.364 . S
C692 C691 1.364 . S
C692 C693 1.400 . S
C693 H681 0.931 . S
C693 C688 1.408 . S
C693 C692 1.400 . S
H694 C700 0.930 . S
H695 C703 0.931 . S
H696 C705 0.931 . S
H697 C707 0.930 . S
H698 C709 0.930 . S
H699 C711 0.931 . S
C700 H694 0.930 . S
C700 C701 1.380 . S
C700 C702 1.394 . S
C701 C700 1.380 . S
C701 C705 1.382 . S
C702 C700 1.394 . S
C702 C703 1.400 . S
C703 H695 0.931 . S
C703 C702 1.400 . S
C703 C704 1.375 . S
C704 C703 1.375 . S
C704 C705 1.415 . S
C704 C706 1.501 . S
C705 H696 0.931 . S
C705 C701 1.382 . S
C705 C704 1.415 . S
C706 C704 1.501 . S
C706 C707 1.384 . S
C706 C711 1.408 . S
C707 H697 0.930 . S
C707 C706 1.384 . S
C707 C708 1.389 . S
C708 C707 1.389 . S
C708 C709 1.405 . S
C709 H698 0.930 . S
C709 C708 1.405 . S
C709 C710 1.364 . S
C710 C709 1.364 . S
C710 C711 1.400 . S
C711 H699 0.931 . S
C711 C706 1.408 . S
C711 C710 1.400 . S
H712 C718 0.930 . S
H713 C721 0.931 . S
H714 C723 0.931 . S
H715 C725 0.930 . S
H716 C727 0.930 . S
H717 C729 0.931 . S
C718 H712 0.930 . S
C718 C719 1.380 . S
C718 C720 1.394 . S
C719 C718 1.380 . S
C719 C723 1.382 . S
C720 C718 1.394 . S
C720 C721 1.400 . S
C721 H713 0.931 . S
C721 C720 1.400 . S
C721 C722 1.375 . S
C722 C721 1.375 . S
C722 C723 1.415 . S
C722 C724 1.501 . S
C723 H714 0.931 . S
C723 C719 1.382 . S
C723 C722 1.415 . S
C724 C722 1.501 . S
C724 C725 1.384 . S
C724 C729 1.408 . S
C725 H715 0.930 . S
C725 C724 1.384 . S
C725 C726 1.389 . S
C726 C725 1.389 . S
C726 C727 1.405 . S
C727 H716 0.930 . S
C727 C726 1.405 . S
C727 C728 1.364 . S
C728 C727 1.364 . S
C728 C729 1.400 . S
C729 H717 0.931 . S
C729 C724 1.408 . S
C729 C728 1.400 . S
H730 C736 0.930 . S
H731 C739 0.931 . S
H732 C741 0.931 . S
H733 C743 0.930 . S
H734 C745 0.930 . S
H735 C747 0.931 . S
C736 H730 0.930 . S
C736 C737 1.380 . S
C736 C738 1.394 . S
C737 C736 1.380 . S
C737 C741 1.382 . S
C738 C736 1.394 . S
C738 C739 1.400 . S
C739 H731 0.931 . S
C739 C738 1.400 . S
C739 C740 1.375 . S
C740 C739 1.375 . S
C740 C741 1.415 . S
C740 C742 1.501 . S
C741 H732 0.931 . S
C741 C737 1.382 . S
C741 C740 1.415 . S
C742 C740 1.501 . S
C742 C743 1.384 . S
C742 C747 1.408 . S
C743 H733 0.930 . S
C743 C742 1.384 . S
C743 C744 1.389 . S
C744 C743 1.389 . S
C744 C745 1.405 . S
C745 H734 0.930 . S
C745 C744 1.405 . S
C745 C746 1.364 . S
C746 C745 1.364 . S
C746 C747 1.400 . S
C747 H735 0.931 . S
C747 C742 1.408 . S
C747 C746 1.400 . S
H748 C754 0.930 . S
H749 C757 0.931 . S
H750 C759 0.931 . S
H751 C761 0.930 . S
H752 C763 0.930 . S
H753 C765 0.931 . S
C754 H748 0.930 . S
C754 C755 1.380 . S
C754 C756 1.394 . S
C755 C754 1.380 . S
C755 C759 1.382 . S
C756 C754 1.394 . S
C756 C757 1.400 . S
C757 H749 0.931 . S
C757 C756 1.400 . S
C757 C758 1.375 . S
C758 C757 1.375 . S
C758 C759 1.415 . S
C758 C760 1.501 . S
C759 H750 0.931 . S
C759 C755 1.382 . S
C759 C758 1.415 . S
C760 C758 1.501 . S
C760 C761 1.384 . S
C760 C765 1.408 . S
C761 H751 0.930 . S
C761 C760 1.384 . S
C761 C762 1.389 . S
C762 C761 1.389 . S
C762 C763 1.405 . S
C763 H752 0.930 . S
C763 C762 1.405 . S
C763 C764 1.364 . S
C764 C763 1.364 . S
C764 C765 1.400 . S
C765 H753 0.931 . S
C765 C760 1.408 . S
C765 C764 1.400 . S
H766 C772 0.930 . S
H767 C775 0.931 . S
H768 C777 0.931 . S
H769 C779 0.930 . S
H770 C781 0.930 . S
H771 C783 0.931 . S
C772 H766 0.930 . S
C772 C773 1.380 . S
C772 C774 1.394 . S
C773 C772 1.380 . S
C773 C777 1.382 . S
C774 C772 1.394 . S
C774 C775 1.400 . S
C775 H767 0.931 . S
C775 C774 1.400 . S
C775 C776 1.375 . S
C776 C775 1.375 . S
C776 C777 1.415 . S
C776 C778 1.501 . S
C777 H768 0.931 . S
C777 C773 1.382 . S
C777 C776 1.415 . S
C778 C776 1.501 . S
C778 C779 1.384 . S
C778 C783 1.408 . S
C779 H769 0.930 . S
C779 C778 1.384 . S
C779 C780 1.389 . S
C780 C779 1.389 . S
C780 C781 1.405 . S
C781 H770 0.930 . S
C781 C780 1.405 . S
C781 C782 1.364 . S
C782 C781 1.364 . S
C782 C783 1.400 . S
C783 H771 0.931 . S
C783 C778 1.408 . S
C783 C782 1.400 . S
C784 C785 1.369 . S
C784 C786 1.419 . S
C784 H788 0.930 . S
C785 C784 1.369 . S
C785 C794 1.429 . S
C786 C784 1.419 . S
C786 C787 1.363 . S
C786 H789 0.929 . S
C787 C786 1.363 . S
C787 C793 1.428 . S
H788 C784 0.930 . S
H789 C786 0.929 . S
S790 N791 1.613 . S
S790 N792 1.610 . S
N791 S790 1.613 . S
N791 C794 1.350 . S
N792 S790 1.610 . S
N792 C793 1.351 . S
C793 C787 1.428 . S
C793 N792 1.351 . S
C793 C794 1.434 . S
C794 C785 1.429 . S
C794 N791 1.350 . S
C794 C793 1.434 . S
C795 C796 1.369 . S
C795 C797 1.419 . S
C795 H799 0.930 . S
C796 C795 1.369 . S
C796 C805 1.429 . S
C797 C795 1.419 . S
C797 C798 1.363 . S
C797 H800 0.929 . S
C798 C797 1.363 . S
C798 C804 1.428 . S
H799 C795 0.930 . S
H800 C797 0.929 . S
S801 N802 1.613 . S
S801 N803 1.610 . S
N802 S801 1.613 . S
N802 C805 1.350 . S
N803 S801 1.610 . S
N803 C804 1.351 . S
C804 C798 1.428 . S
C804 N803 1.351 . S
C804 C805 1.434 . S
C805 C796 1.429 . S
C805 N802 1.350 . S
C805 C804 1.434 . S
C806 C807 1.369 . S
C806 C808 1.419 . S
C806 H810 0.930 . S
C807 C806 1.369 . S
C807 C816 1.429 . S
C808 C806 1.419 . S
C808 C809 1.363 . S
C808 H811 0.929 . S
C809 C808 1.363 . S
C809 C815 1.428 . S
H810 C806 0.930 . S
H811 C808 0.929 . S
S812 N813 1.613 . S
S812 N814 1.610 . S
N813 S812 1.613 . S
N813 C816 1.350 . S
N814 S812 1.610 . S
N814 C815 1.351 . S
C815 C809 1.428 . S
C815 N814 1.351 . S
C815 C816 1.434 . S
C816 C807 1.429 . S
C816 N813 1.350 . S
C816 C815 1.434 . S
C817 C818 1.369 . S
C817 C819 1.419 . S
C817 H821 0.930 . S
C818 C817 1.369 . S
C818 C827 1.429 . S
C819 C817 1.419 . S
C819 C820 1.363 . S
C819 H822 0.929 . S
C820 C819 1.363 . S
C820 C826 1.428 . S
H821 C817 0.930 . S
H822 C819 0.929 . S
S823 N824 1.613 . S
S823 N825 1.610 . S
N824 S823 1.613 . S
N824 C827 1.350 . S
N825 S823 1.610 . S
N825 C826 1.351 . S
C826 C820 1.428 . S
C826 N825 1.351 . S
C826 C827 1.434 . S
C827 C818 1.429 . S
C827 N824 1.350 . S
C827 C826 1.434 . S
C828 C829 1.369 . S
C828 C830 1.419 . S
C828 H832 0.930 . S
C829 C828 1.369 . S
C829 C838 1.429 . S
C830 C828 1.419 . S
C830 C831 1.363 . S
C830 H833 0.929 . S
C831 C830 1.363 . S
C831 C837 1.428 . S
H832 C828 0.930 . S
H833 C830 0.929 . S
S834 N835 1.613 . S
S834 N836 1.610 . S
N835 S834 1.613 . S
N835 C838 1.350 . S
N836 S834 1.610 . S
N836 C837 1.351 . S
C837 C831 1.428 . S
C837 N836 1.351 . S
C837 C838 1.434 . S
C838 C829 1.429 . S
C838 N835 1.350 . S
C838 C837 1.434 . S
C839 C840 1.369 . S
C839 C841 1.419 . S
C839 H843 0.930 . S
C840 C839 1.369 . S
C840 C849 1.429 . S
C841 C839 1.419 . S
C841 C842 1.363 . S
C841 H844 0.929 . S
C842 C841 1.363 . S
C842 C848 1.428 . S
H843 C839 0.930 . S
H844 C841 0.929 . S
S845 N846 1.613 . S
S845 N847 1.610 . S
N846 S845 1.613 . S
N846 C849 1.350 . S
N847 S845 1.610 . S
N847 C848 1.351 . S
C848 C842 1.428 . S
C848 N847 1.351 . S
C848 C849 1.434 . S
C849 C840 1.429 . S
C849 N846 1.350 . S
C849 C848 1.434 . S
C850 C851 1.369 . S
C850 C852 1.419 . S
C850 H854 0.930 . S
C851 C850 1.369 . S
C851 C860 1.429 . S
C852 C850 1.419 . S
C852 C853 1.363 . S
C852 H855 0.929 . S
C853 C852 1.363 . S
C853 C859 1.428 . S
H854 C850 0.930 . S
H855 C852 0.929 . S
S856 N857 1.613 . S
S856 N858 1.610 . S
N857 S856 1.613 . S
N857 C860 1.350 . S
N858 S856 1.610 . S
N858 C859 1.351 . S
C859 C853 1.428 . S
C859 N858 1.351 . S
C859 C860 1.434 . S
C860 C851 1.429 . S
C860 N857 1.350 . S
C860 C859 1.434 . S
C861 C862 1.369 . S
C861 C863 1.419 . S
C861 H865 0.930 . S
C862 C861 1.369 . S
C862 C871 1.429 . S
C863 C861 1.419 . S
C863 C864 1.363 . S
C863 H866 0.929 . S
C864 C863 1.363 . S
C864 C870 1.428 . S
H865 C861 0.930 . S
H866 C863 0.929 . S
S867 N868 1.613 . S
S867 N869 1.610 . S
N868 S867 1.613 . S
N868 C871 1.350 . S
N869 S867 1.610 . S
N869 C870 1.351 . S
C870 C864 1.428 . S
C870 N869 1.351 . S
C870 C871 1.434 . S
C871 C862 1.429 . S
C871 N868 1.350 . S
C871 C870 1.434 . S
C872 C873 1.369 . S
C872 C874 1.419 . S
C872 H876 0.930 . S
C873 C872 1.369 . S
C873 C882 1.429 . S
C874 C872 1.419 . S
C874 C875 1.363 . S
C874 H877 0.929 . S
C875 C874 1.363 . S
C875 C881 1.428 . S
H876 C872 0.930 . S
H877 C874 0.929 . S
S878 N879 1.613 . S
S878 N880 1.610 . S
N879 S878 1.613 . S
N879 C882 1.350 . S
N880 S878 1.610 . S
N880 C881 1.351 . S
C881 C875 1.428 . S
C881 N880 1.351 . S
C881 C882 1.434 . S
C882 C873 1.429 . S
C882 N879 1.350 . S
C882 C881 1.434 . S
C883 C884 1.369 . S
C883 C885 1.419 . S
C883 H887 0.930 . S
C884 C883 1.369 . S
C884 C893 1.429 . S
C885 C883 1.419 . S
C885 C886 1.363 . S
C885 H888 0.929 . S
C886 C885 1.363 . S
C886 C892 1.428 . S
H887 C883 0.930 . S
H888 C885 0.929 . S
S889 N890 1.613 . S
S889 N891 1.610 . S
N890 S889 1.613 . S
N890 C893 1.350 . S
N891 S889 1.610 . S
N891 C892 1.351 . S
C892 C886 1.428 . S
C892 N891 1.351 . S
C892 C893 1.434 . S
C893 C884 1.429 . S
C893 N890 1.350 . S
C893 C892 1.434 . S
C894 C895 1.369 . S
C894 C896 1.419 1_655 S
C894 H898 0.930 . S
C895 C894 1.369 . S
C895 C904 1.429 . S
C896 C894 1.419 1_455 S
C896 C897 1.363 . S
C896 H899 0.929 . S
C897 C896 1.363 . S
C897 C903 1.428 1_455 S
H898 C894 0.930 . S
H899 C896 0.929 . S
S900 N901 1.613 . S
S900 N902 1.610 . S
N901 S900 1.613 . S
N901 C904 1.350 . S
N902 S900 1.610 . S
N902 C903 1.351 . S
C903 C897 1.428 1_655 S
C903 N902 1.351 . S
C903 C904 1.434 . S
C904 C895 1.429 . S
C904 N901 1.350 . S
C904 C903 1.434 . S
C905 C906 1.369 . S
C905 C907 1.419 . S
C905 H909 0.930 . S
C906 C905 1.369 . S
C906 C915 1.429 . S
C907 C905 1.419 . S
C907 C908 1.363 . S
C907 H910 0.929 . S
C908 C907 1.363 . S
C908 C914 1.428 . S
H909 C905 0.930 . S
H910 C907 0.929 . S
S911 N912 1.613 . S
S911 N913 1.610 . S
N912 S911 1.613 . S
N912 C915 1.350 . S
N913 S911 1.610 . S
N913 C914 1.351 . S
C914 C908 1.428 . S
C914 N913 1.351 . S
C914 C915 1.434 . S
C915 C906 1.429 . S
C915 N912 1.350 . S
C915 C914 1.434 . S
C916 C917 1.369 . S
C916 C918 1.419 . S
C916 H920 0.930 . S
C917 C916 1.369 . S
C917 C926 1.429 . S
C918 C916 1.419 . S
C918 C919 1.363 . S
C918 H921 0.929 . S
C919 C918 1.363 . S
C919 C925 1.428 . S
H920 C916 0.930 . S
H921 C918 0.929 . S
S922 N923 1.613 . S
S922 N924 1.610 . S
N923 S922 1.613 . S
N923 C926 1.350 . S
N924 S922 1.610 . S
N924 C925 1.351 . S
C925 C919 1.428 . S
C925 N924 1.351 . S
C925 C926 1.434 . S
C926 C917 1.429 . S
C926 N923 1.350 . S
C926 C925 1.434 . S
C927 C928 1.369 . S
C927 C929 1.419 . S
C927 H931 0.930 . S
C928 C927 1.369 . S
C928 C937 1.429 . S
C929 C927 1.419 . S
C929 C930 1.363 . S
C929 H932 0.929 . S
C930 C929 1.363 . S
C930 C936 1.428 . S
H931 C927 0.930 . S
H932 C929 0.929 . S
S933 N934 1.613 . S
S933 N935 1.610 . S
N934 S933 1.613 . S
N934 C937 1.350 . S
N935 S933 1.610 . S
N935 C936 1.351 . S
C936 C930 1.428 . S
C936 N935 1.351 . S
C936 C937 1.434 . S
C937 C928 1.429 . S
C937 N934 1.350 . S
C937 C936 1.434 . S
C938 C939 1.369 . S
C938 C940 1.419 . S
C938 H942 0.930 . S
C939 C938 1.369 . S
C939 C948 1.429 . S
C940 C938 1.419 . S
C940 C941 1.363 . S
C940 H943 0.929 . S
C941 C940 1.363 . S
C941 C947 1.428 . S
H942 C938 0.930 . S
H943 C940 0.929 . S
S944 N945 1.613 . S
S944 N946 1.587 1_655 S
N945 S944 1.613 . S
N945 C948 1.350 . S
N946 S944 1.587 1_455 S
N946 C947 1.314 1_455 S
C947 C941 1.428 . S
C947 N946 1.314 1_655 S
C947 C948 1.434 . S
C948 C939 1.429 . S
C948 N945 1.350 . S
C948 C947 1.434 . S
C949 C950 1.369 . S
C949 C951 1.419 . S
C949 H953 0.930 . S
C950 C949 1.369 . S
C950 C959 1.429 . S
C951 C949 1.419 . S
C951 C952 1.363 . S
C951 H954 0.929 . S
C952 C951 1.363 . S
C952 C958 1.428 . S
H953 C949 0.930 . S
H954 C951 0.929 . S
S955 N956 1.613 . S
S955 N957 1.610 . S
N956 S955 1.613 . S
N956 C959 1.350 . S
N957 S955 1.610 . S
N957 C958 1.351 . S
C958 C952 1.428 . S
C958 N957 1.351 . S
C958 C959 1.434 . S
C959 C950 1.429 . S
C959 N956 1.350 . S
C959 C958 1.434 . S
C960 C961 1.369 . S
C960 C962 1.419 . S
C960 H964 0.930 . S
C961 C960 1.369 . S
C961 C970 1.429 . S
C962 C960 1.419 . S
C962 C963 1.363 . S
C962 H965 0.929 . S
C963 C962 1.363 . S
C963 C969 1.428 . S
H964 C960 0.930 . S
H965 C962 0.929 . S
S966 N967 1.613 . S
S966 N968 1.610 . S
N967 S966 1.613 . S
N967 C970 1.350 . S
N968 S966 1.610 . S
N968 C969 1.351 . S
C969 C963 1.428 . S
C969 N968 1.351 . S
C969 C970 1.434 . S
C970 C961 1.429 . S
C970 N967 1.350 . S
C970 C969 1.434 . S
C971 C972 1.369 . S
C971 C973 1.419 . S
C971 H975 0.930 . S
C972 C971 1.369 . S
C972 C981 1.429 . S
C973 C971 1.419 . S
C973 C974 1.363 . S
C973 H976 0.929 . S
C974 C973 1.363 . S
C974 C980 1.428 . S
H975 C971 0.930 . S
H976 C973 0.929 . S
S977 N978 1.613 . S
S977 N979 1.610 . S
N978 S977 1.613 . S
N978 C981 1.350 . S
N979 S977 1.610 . S
N979 C980 1.351 . S
C980 C974 1.428 . S
C980 N979 1.351 . S
C980 C981 1.434 . S
C981 C972 1.429 . S
C981 N978 1.350 . S
C981 C980 1.434 . S
C982 C983 1.369 . S
C982 C984 1.419 . S
C982 H986 0.930 . S
C983 C982 1.369 . S
C983 C992 1.429 . S
C984 C982 1.419 . S
C984 C985 1.363 . S
C984 H987 0.929 . S
C985 C984 1.363 . S
C985 C991 1.428 . S
H986 C982 0.930 . S
H987 C984 0.929 . S
S988 N989 1.613 . S
S988 N990 1.610 . S
N989 S988 1.613 . S
N989 C992 1.350 . S
N990 S988 1.610 . S
N990 C991 1.351 . S
C991 C985 1.428 . S
C991 N990 1.351 . S
C991 C992 1.434 . S
C992 C983 1.429 . S
C992 N989 1.350 . S
C992 C991 1.434 . S
C993 C994 1.369 . S
C993 C995 1.419 . S
C993 H997 0.930 . S
C994 C993 1.369 . S
C994 C1003 1.429 . S
C995 C993 1.419 . S
C995 C996 1.363 . S
C995 H998 0.929 . S
C996 C995 1.363 . S
C996 C1002 1.428 . S
H997 C993 0.930 . S
H998 C995 0.929 . S
S999 N1000 1.613 . S
S999 N1001 1.610 . S
N1000 S999 1.613 . S
N1000 C1003 1.350 . S
N1001 S999 1.610 . S
N1001 C1002 1.351 . S
C1002 C996 1.428 . S
C1002 N1001 1.351 . S
C1002 C1003 1.434 . S
C1003 C994 1.429 . S
C1003 N1000 1.350 . S
C1003 C1002 1.434 . S
C1004 C1005 1.369 . S
C1004 C1006 1.419 . S
C1004 H1008 0.930 . S
C1005 C1004 1.369 . S
C1005 C1014 1.429 . S
C1006 C1004 1.419 . S
C1006 C1007 1.363 . S
C1006 H1009 0.929 . S
C1007 C1006 1.363 . S
C1007 C1013 1.428 . S
H1008 C1004 0.930 . S
H1009 C1006 0.929 . S
S1010 N1011 1.613 . S
S1010 N1012 1.610 . S
N1011 S1010 1.613 . S
N1011 C1014 1.350 . S
N1012 S1010 1.610 . S
N1012 C1013 1.351 . S
C1013 C1007 1.428 . S
C1013 N1012 1.351 . S
C1013 C1014 1.434 . S
C1014 C1005 1.429 . S
C1014 N1011 1.350 . S
C1014 C1013 1.434 . S
C1015 C1016 1.369 . S
C1015 C1017 1.419 . S
C1015 H1019 0.930 . S
C1016 C1015 1.369 . S
C1016 C1025 1.429 . S
C1017 C1015 1.419 . S
C1017 C1018 1.363 . S
C1017 H1020 0.929 . S
C1018 C1017 1.363 . S
C1018 C1024 1.428 . S
H1019 C1015 0.930 . S
H1020 C1017 0.929 . S
S1021 N1022 1.613 . S
S1021 N1023 1.610 . S
N1022 S1021 1.613 . S
N1022 C1025 1.350 . S
N1023 S1021 1.610 . S
N1023 C1024 1.351 . S
C1024 C1018 1.428 . S
C1024 N1023 1.351 . S
C1024 C1025 1.434 . S
C1025 C1016 1.429 . S
C1025 N1022 1.350 . S
C1025 C1024 1.434 . S
C1026 C1027 1.369 . S
C1026 C1028 1.419 . S
C1026 H1030 0.930 . S
C1027 C1026 1.369 . S
C1027 C1036 1.429 . S
C1028 C1026 1.419 . S
C1028 C1029 1.363 . S
C1028 H1031 0.929 . S
C1029 C1028 1.363 . S
C1029 C1035 1.428 . S
H1030 C1026 0.930 . S
H1031 C1028 0.929 . S
S1032 N1033 1.613 . S
S1032 N1034 1.610 . S
N1033 S1032 1.613 . S
N1033 C1036 1.350 . S
N1034 S1032 1.610 . S
N1034 C1035 1.351 . S
C1035 C1029 1.428 . S
C1035 N1034 1.351 . S
C1035 C1036 1.434 . S
C1036 C1027 1.429 . S
C1036 N1033 1.350 . S
C1036 C1035 1.434 . S
C1037 C1038 1.369 . S
C1037 C1039 1.419 . S
C1037 H1041 0.930 . S
C1038 C1037 1.369 . S
C1038 C1047 1.429 . S
C1039 C1037 1.419 . S
C1039 C1040 1.363 . S
C1039 H1042 0.929 . S
C1040 C1039 1.363 . S
C1040 C1046 1.428 . S
H1041 C1037 0.930 . S
H1042 C1039 0.929 . S
S1043 N1044 1.613 . S
S1043 N1045 1.610 . S
N1044 S1043 1.613 . S
N1044 C1047 1.350 . S
N1045 S1043 1.610 . S
N1045 C1046 1.351 . S
C1046 C1040 1.428 . S
C1046 N1045 1.351 . S
C1046 C1047 1.434 . S
C1047 C1038 1.429 . S
C1047 N1044 1.350 . S
C1047 C1046 1.434 . S
C1048 C1049 1.369 . S
C1048 C1050 1.419 . S
C1048 H1052 0.930 . S
C1049 C1048 1.369 . S
C1049 C1058 1.429 . S
C1050 C1048 1.419 . S
C1050 C1051 1.363 . S
C1050 H1053 0.929 . S
C1051 C1050 1.363 . S
C1051 C1057 1.428 . S
H1052 C1048 0.930 . S
H1053 C1050 0.929 . S
S1054 N1055 1.613 . S
S1054 N1056 1.610 . S
N1055 S1054 1.613 . S
N1055 C1058 1.350 . S
N1056 S1054 1.610 . S
N1056 C1057 1.351 . S
C1057 C1051 1.428 . S
C1057 N1056 1.351 . S
C1057 C1058 1.434 . S
C1058 C1049 1.429 . S
C1058 N1055 1.350 . S
C1058 C1057 1.434 . S
C1059 C1060 1.369 . S
C1059 C1061 1.419 . S
C1059 H1063 0.930 . S
C1060 C1059 1.369 . S
C1060 C1069 1.429 . S
C1061 C1059 1.419 . S
C1061 C1062 1.363 . S
C1061 H1064 0.929 . S
C1062 C1061 1.363 . S
C1062 C1068 1.428 . S
H1063 C1059 0.930 . S
H1064 C1061 0.929 . S
S1065 N1066 1.613 . S
S1065 N1067 1.610 . S
N1066 S1065 1.613 . S
N1066 C1069 1.350 . S
N1067 S1065 1.610 . S
N1067 C1068 1.351 . S
C1068 C1062 1.428 . S
C1068 N1067 1.351 . S
C1068 C1069 1.434 . S
C1069 C1060 1.429 . S
C1069 N1066 1.350 . S
C1069 C1068 1.434 . S
C1070 C1071 1.369 . S
C1070 C1072 1.419 . S
C1070 H1074 0.930 . S
C1071 C1070 1.369 . S
C1071 C1080 1.429 . S
C1072 C1070 1.419 . S
C1072 C1073 1.363 . S
C1072 H1075 0.929 . S
C1073 C1072 1.363 . S
C1073 C1079 1.428 . S
H1074 C1070 0.930 . S
H1075 C1072 0.929 . S
S1076 N1077 1.613 . S
S1076 N1078 1.610 . S
N1077 S1076 1.613 . S
N1077 C1080 1.350 . S
N1078 S1076 1.610 . S
N1078 C1079 1.351 . S
C1079 C1073 1.428 . S
C1079 N1078 1.351 . S
C1079 C1080 1.434 . S
C1080 C1071 1.429 . S
C1080 N1077 1.350 . S
C1080 C1079 1.434 . S
C1081 C1082 1.369 . S
C1081 C1083 1.419 . S
C1081 H1085 0.930 . S
C1082 C1081 1.369 . S
C1082 C1091 1.429 . S
C1083 C1081 1.419 . S
C1083 C1084 1.363 . S
C1083 H1086 0.929 . S
C1084 C1083 1.363 . S
C1084 C1090 1.428 . S
H1085 C1081 0.930 . S
H1086 C1083 0.929 . S
S1087 N1088 1.613 . S
S1087 N1089 1.610 . S
N1088 S1087 1.613 . S
N1088 C1091 1.350 . S
N1089 S1087 1.610 . S
N1089 C1090 1.351 . S
C1090 C1084 1.428 . S
C1090 N1089 1.351 . S
C1090 C1091 1.434 . S
C1091 C1082 1.429 . S
C1091 N1088 1.350 . S
C1091 C1090 1.434 . S
C1092 C1093 1.369 . S
C1092 C1094 1.419 . S
C1092 H1096 0.930 . S
C1093 C1092 1.369 . S
C1093 C1102 1.429 . S
C1094 C1092 1.419 . S
C1094 C1095 1.363 . S
C1094 H1097 0.929 . S
C1095 C1094 1.363 . S
C1095 C1101 1.428 . S
H1096 C1092 0.930 . S
H1097 C1094 0.929 . S
S1098 N1099 1.613 . S
S1098 N1100 1.610 . S
N1099 S1098 1.613 . S
N1099 C1102 1.350 . S
N1100 S1098 1.610 . S
N1100 C1101 1.351 . S
C1101 C1095 1.428 . S
C1101 N1100 1.351 . S
C1101 C1102 1.434 . S
C1102 C1093 1.429 . S
C1102 N1099 1.350 . S
C1102 C1101 1.434 . S
C1103 C1104 1.369 . S
C1103 C1105 1.419 . S
C1103 H1107 0.930 . S
C1104 C1103 1.369 . S
C1104 C1113 1.429 . S
C1105 C1103 1.419 . S
C1105 C1106 1.363 . S
C1105 H1108 0.929 . S
C1106 C1105 1.363 . S
C1106 C1112 1.428 . S
H1107 C1103 0.930 . S
H1108 C1105 0.929 . S
S1109 N1110 1.613 . S
S1109 N1111 1.610 . S
N1110 S1109 1.613 . S
N1110 C1113 1.350 . S
N1111 S1109 1.610 . S
N1111 C1112 1.351 . S
C1112 C1106 1.428 . S
C1112 N1111 1.351 . S
C1112 C1113 1.434 . S
C1113 C1104 1.429 . S
C1113 N1110 1.350 . S
C1113 C1112 1.434 . S
C1114 C1115 1.369 . S
C1114 C1116 1.419 . S
C1114 H1118 0.930 . S
C1115 C1114 1.369 . S
C1115 C1124 1.429 . S
C1116 C1114 1.419 . S
C1116 C1117 1.363 . S
C1116 H1119 0.929 . S
C1117 C1116 1.363 . S
C1117 C1123 1.428 . S
H1118 C1114 0.930 . S
H1119 C1116 0.929 . S
S1120 N1121 1.613 . S
S1120 N1122 1.610 . S
N1121 S1120 1.613 . S
N1121 C1124 1.350 . S
N1122 S1120 1.610 . S
N1122 C1123 1.351 . S
C1123 C1117 1.428 . S
C1123 N1122 1.351 . S
C1123 C1124 1.434 . S
C1124 C1115 1.429 . S
C1124 N1121 1.350 . S
C1124 C1123 1.434 . S
C1125 C1126 1.369 . S
C1125 C1127 1.419 . S
C1125 H1129 0.930 . S
C1126 C1125 1.369 . S
C1126 C1135 1.429 . S
C1127 C1125 1.419 . S
C1127 C1128 1.363 . S
C1127 H1130 0.929 . S
C1128 C1127 1.363 . S
C1128 C1134 1.428 . S
H1129 C1125 0.930 . S
H1130 C1127 0.929 . S
S1131 N1132 1.613 . S
S1131 N1133 1.610 . S
N1132 S1131 1.613 . S
N1132 C1135 1.350 . S
N1133 S1131 1.610 . S
N1133 C1134 1.351 . S
C1134 C1128 1.428 . S
C1134 N1133 1.351 . S
C1134 C1135 1.434 . S
C1135 C1126 1.429 . S
C1135 N1132 1.350 . S
C1135 C1134 1.434 . S
C1136 C1137 1.369 . S
C1136 C1138 1.419 . S
C1136 H1140 0.930 . S
C1137 C1136 1.369 . S
C1137 C1146 1.429 . S
C1138 C1136 1.419 . S
C1138 C1139 1.363 . S
C1138 H1141 0.929 . S
C1139 C1138 1.363 . S
C1139 C1145 1.428 . S
H1140 C1136 0.930 . S
H1141 C1138 0.929 . S
S1142 N1143 1.613 . S
S1142 N1144 1.610 . S
N1143 S1142 1.613 . S
N1143 C1146 1.350 . S
N1144 S1142 1.610 . S
N1144 C1145 1.351 . S
C1145 C1139 1.428 . S
C1145 N1144 1.351 . S
C1145 C1146 1.434 . S
C1146 C1137 1.429 . S
C1146 N1143 1.350 . S
C1146 C1145 1.434 . S
C1147 C1148 1.369 . S
C1147 C1149 1.419 . S
C1147 H1151 0.930 . S
C1148 C1147 1.369 . S
C1148 C1157 1.429 . S
C1149 C1147 1.419 . S
C1149 C1150 1.363 . S
C1149 H1152 0.929 . S
C1150 C1149 1.363 . S
C1150 C1156 1.428 . S
H1151 C1147 0.930 . S
H1152 C1149 0.929 . S
S1153 N1154 1.613 . S
S1153 N1155 1.610 . S
N1154 S1153 1.613 . S
N1154 C1157 1.350 . S
N1155 S1153 1.610 . S
N1155 C1156 1.351 . S
C1156 C1150 1.428 . S
C1156 N1155 1.351 . S
C1156 C1157 1.434 . S
C1157 C1148 1.429 . S
C1157 N1154 1.350 . S
C1157 C1156 1.434 . S
C1158 C1159 1.369 . S
C1158 C1160 1.419 . S
C1158 H1162 0.930 . S
C1159 C1158 1.369 . S
C1159 C1168 1.429 . S
C1160 C1158 1.419 . S
C1160 C1161 1.363 1_655 S
C1160 H1163 0.930 . S
C1161 C1160 1.363 1_455 S
C1161 C1167 1.428 1_455 S
H1162 C1158 0.930 . S
H1163 C1160 0.930 . S
S1164 N1165 1.613 . S
S1164 N1166 1.610 . S
N1165 S1164 1.613 . S
N1165 C1168 1.350 . S
N1166 S1164 1.610 . S
N1166 C1167 1.351 . S
C1167 C1161 1.428 1_655 S
C1167 N1166 1.351 . S
C1167 C1168 1.434 . S
C1168 C1159 1.429 . S
C1168 N1165 1.350 . S
C1168 C1167 1.434 . S
C1169 C1170 1.369 . S
C1169 C1171 1.419 . S
C1169 H1173 0.930 . S
C1170 C1169 1.369 . S
C1170 C1179 1.429 . S
C1171 C1169 1.419 . S
C1171 C1172 1.363 . S
C1171 H1174 0.929 . S
C1172 C1171 1.363 . S
C1172 C1178 1.428 . S
H1173 C1169 0.930 . S
H1174 C1171 0.929 . S
S1175 N1176 1.613 . S
S1175 N1177 1.610 . S
N1176 S1175 1.613 . S
N1176 C1179 1.350 . S
N1177 S1175 1.610 . S
N1177 C1178 1.351 . S
C1178 C1172 1.428 . S
C1178 N1177 1.351 . S
C1178 C1179 1.434 . S
C1179 C1170 1.429 . S
C1179 N1176 1.350 . S
C1179 C1178 1.434 . S
C1180 C1181 1.369 . S
C1180 C1182 1.419 . S
C1180 H1184 0.930 . S
C1181 C1180 1.369 . S
C1181 C1190 1.429 . S
C1182 C1180 1.419 . S
C1182 C1183 1.363 . S
C1182 H1185 0.929 . S
C1183 C1182 1.363 . S
C1183 C1189 1.428 . S
H1184 C1180 0.930 . S
H1185 C1182 0.929 . S
S1186 N1187 1.613 . S
S1186 N1188 1.610 . S
N1187 S1186 1.613 . S
N1187 C1190 1.350 . S
N1188 S1186 1.610 . S
N1188 C1189 1.351 . S
C1189 C1183 1.428 . S
C1189 N1188 1.351 . S
C1189 C1190 1.434 . S
C1190 C1181 1.429 . S
C1190 N1187 1.350 . S
C1190 C1189 1.434 . S
C1191 C1192 1.369 . S
C1191 C1193 1.419 . S
C1191 H1195 0.930 . S
C1192 C1191 1.369 . S
C1192 C1201 1.429 . S
C1193 C1191 1.419 . S
C1193 C1194 1.363 . S
C1193 H1196 0.929 . S
C1194 C1193 1.363 . S
C1194 C1200 1.428 . S
H1195 C1191 0.930 . S
H1196 C1193 0.929 . S
S1197 N1198 1.613 . S
S1197 N1199 1.610 . S
N1198 S1197 1.613 . S
N1198 C1201 1.350 . S
N1199 S1197 1.610 . S
N1199 C1200 1.351 . S
C1200 C1194 1.428 . S
C1200 N1199 1.351 . S
C1200 C1201 1.434 . S
C1201 C1192 1.429 . S
C1201 N1198 1.350 . S
C1201 C1200 1.434 . S
C1202 C1203 1.369 . S
C1202 C1204 1.419 . S
C1202 H1206 0.930 . S
C1203 C1202 1.369 . S
C1203 C1212 1.429 . S
C1204 C1202 1.419 . S
C1204 C1205 1.363 . S
C1204 H1207 0.929 . S
C1205 C1204 1.363 . S
C1205 C1211 1.428 . S
H1206 C1202 0.930 . S
H1207 C1204 0.929 . S
S1208 N1209 1.613 . S
S1208 N1210 1.610 1_655 S
N1209 S1208 1.613 . S
N1209 C1212 1.350 . S
N1210 S1208 1.610 1_455 S
N1210 C1211 1.351 1_455 S
C1211 C1205 1.428 . S
C1211 N1210 1.351 1_655 S
C1211 C1212 1.434 . S
C1212 C1203 1.429 . S
C1212 N1209 1.350 . S
C1212 C1211 1.434 . S
C1213 C1214 1.369 . S
C1213 C1215 1.419 . S
C1213 H1217 0.930 . S
C1214 C1213 1.369 . S
C1214 C1223 1.429 . S
C1215 C1213 1.419 . S
C1215 C1216 1.363 . S
C1215 H1218 0.929 . S
C1216 C1215 1.363 . S
C1216 C1222 1.428 . S
H1217 C1213 0.930 . S
H1218 C1215 0.929 . S
S1219 N1220 1.613 . S
S1219 N1221 1.610 . S
N1220 S1219 1.613 . S
N1220 C1223 1.350 . S
N1221 S1219 1.610 . S
N1221 C1222 1.351 . S
C1222 C1216 1.428 . S
C1222 N1221 1.351 . S
C1222 C1223 1.434 . S
C1223 C1214 1.429 . S
C1223 N1220 1.350 . S
C1223 C1222 1.434 . S
C1224 C1225 1.369 . S
C1224 C1226 1.419 . S
C1224 H1228 0.930 . S
C1225 C1224 1.369 . S
C1225 C1234 1.429 . S
C1226 C1224 1.419 . S
C1226 C1227 1.363 . S
C1226 H1229 0.929 . S
C1227 C1226 1.363 . S
C1227 C1233 1.428 . S
H1228 C1224 0.930 . S
H1229 C1226 0.929 . S
S1230 N1231 1.613 . S
S1230 N1232 1.610 . S
N1231 S1230 1.613 . S
N1231 C1234 1.350 . S
N1232 S1230 1.610 . S
N1232 C1233 1.351 . S
C1233 C1227 1.428 . S
C1233 N1232 1.351 . S
C1233 C1234 1.434 . S
C1234 C1225 1.429 . S
C1234 N1231 1.350 . S
C1234 C1233 1.434 . S
C1235 C1236 1.369 . S
C1235 C1237 1.419 . S
C1235 H1239 0.930 . S
C1236 C1235 1.369 . S
C1236 C1245 1.429 . S
C1237 C1235 1.419 . S
C1237 C1238 1.363 . S
C1237 H1240 0.929 . S
C1238 C1237 1.363 . S
C1238 C1244 1.428 . S
H1239 C1235 0.930 . S
H1240 C1237 0.929 . S
S1241 N1242 1.613 . S
S1241 N1243 1.610 . S
N1242 S1241 1.613 . S
N1242 C1245 1.350 . S
N1243 S1241 1.610 . S
N1243 C1244 1.351 . S
C1244 C1238 1.428 . S
C1244 N1243 1.351 . S
C1244 C1245 1.434 . S
C1245 C1236 1.429 . S
C1245 N1242 1.350 . S
C1245 C1244 1.434 . S
C1246 C1247 1.369 . S
C1246 C1248 1.419 . S
C1246 H1250 0.930 . S
C1247 C1246 1.369 . S
C1247 C1256 1.429 . S
C1248 C1246 1.419 . S
C1248 C1249 1.363 . S
C1248 H1251 0.929 . S
C1249 C1248 1.363 . S
C1249 C1255 1.428 . S
H1250 C1246 0.930 . S
H1251 C1248 0.929 . S
S1252 N1253 1.613 . S
S1252 N1254 1.610 . S
N1253 S1252 1.613 . S
N1253 C1256 1.350 . S
N1254 S1252 1.610 . S
N1254 C1255 1.351 . S
C1255 C1249 1.428 . S
C1255 N1254 1.351 . S
C1255 C1256 1.434 . S
C1256 C1247 1.429 . S
C1256 N1253 1.350 . S
C1256 C1255 1.434 . S
C1257 C1258 1.369 . S
C1257 C1259 1.419 . S
C1257 H1261 0.930 . S
C1258 C1257 1.369 . S
C1258 C1267 1.429 . S
C1259 C1257 1.419 . S
C1259 C1260 1.363 . S
C1259 H1262 0.929 . S
C1260 C1259 1.363 . S
C1260 C1266 1.428 . S
H1261 C1257 0.930 . S
H1262 C1259 0.929 . S
S1263 N1264 1.613 . S
S1263 N1265 1.610 . S
N1264 S1263 1.613 . S
N1264 C1267 1.350 . S
N1265 S1263 1.610 . S
N1265 C1266 1.351 . S
C1266 C1260 1.428 . S
C1266 N1265 1.351 . S
C1266 C1267 1.434 . S
C1267 C1258 1.429 . S
C1267 N1264 1.350 . S
C1267 C1266 1.434 . S
C1268 C1269 1.369 . S
C1268 C1270 1.419 . S
C1268 H1272 0.930 . S
C1269 C1268 1.369 . S
C1269 C1278 1.429 . S
C1270 C1268 1.419 . S
C1270 C1271 1.363 . S
C1270 H1273 0.929 . S
C1271 C1270 1.363 . S
C1271 C1277 1.428 . S
H1272 C1268 0.930 . S
H1273 C1270 0.929 . S
S1274 N1275 1.613 . S
S1274 N1276 1.610 . S
N1275 S1274 1.613 . S
N1275 C1278 1.350 . S
N1276 S1274 1.610 . S
N1276 C1277 1.351 . S
C1277 C1271 1.428 . S
C1277 N1276 1.351 . S
C1277 C1278 1.434 . S
C1278 C1269 1.429 . S
C1278 N1275 1.350 . S
C1278 C1277 1.434 . S
C1279 C1280 1.369 . S
C1279 C1281 1.419 . S
C1279 H1283 0.930 . S
C1280 C1279 1.369 . S
C1280 C1289 1.429 . S
C1281 C1279 1.419 . S
C1281 C1282 1.363 . S
C1281 H1284 0.929 . S
C1282 C1281 1.363 . S
C1282 C1288 1.428 . S
H1283 C1279 0.930 . S
H1284 C1281 0.929 . S
S1285 N1286 1.613 . S
S1285 N1287 1.610 . S
N1286 S1285 1.613 . S
N1286 C1289 1.350 . S
N1287 S1285 1.610 . S
N1287 C1288 1.351 . S
C1288 C1282 1.428 . S
C1288 N1287 1.351 . S
C1288 C1289 1.434 . S
C1289 C1280 1.429 . S
C1289 N1286 1.350 . S
C1289 C1288 1.434 . S
C1290 C1291 1.369 . S
C1290 C1292 1.419 . S
C1290 H1294 0.930 . S
C1291 C1290 1.369 . S
C1291 C1300 1.429 . S
C1292 C1290 1.419 . S
C1292 C1293 1.363 . S
C1292 H1295 0.929 . S
C1293 C1292 1.363 . S
C1293 C1299 1.428 . S
H1294 C1290 0.930 . S
H1295 C1292 0.929 . S
S1296 N1297 1.613 . S
S1296 N1298 1.610 . S
N1297 S1296 1.613 . S
N1297 C1300 1.350 . S
N1298 S1296 1.610 . S
N1298 C1299 1.351 . S
C1299 C1293 1.428 . S
C1299 N1298 1.351 . S
C1299 C1300 1.434 . S
C1300 C1291 1.429 . S
C1300 N1297 1.350 . S
C1300 C1299 1.434 . S
C1301 C1302 1.369 . S
C1301 C1303 1.419 . S
C1301 H1305 0.930 . S
C1302 C1301 1.369 . S
C1302 C1311 1.429 . S
C1303 C1301 1.419 . S
C1303 C1304 1.363 . S
C1303 H1306 0.929 . S
C1304 C1303 1.363 . S
C1304 C1310 1.428 . S
H1305 C1301 0.930 . S
H1306 C1303 0.929 . S
S1307 N1308 1.613 . S
S1307 N1309 1.610 . S
N1308 S1307 1.613 . S
N1308 C1311 1.350 . S
N1309 S1307 1.610 . S
N1309 C1310 1.351 . S
C1310 C1304 1.428 . S
C1310 N1309 1.351 . S
C1310 C1311 1.434 . S
C1311 C1302 1.429 . S
C1311 N1308 1.350 . S
C1311 C1310 1.434 . S
C1312 C1313 1.369 . S
C1312 C1314 1.419 . S
C1312 H1316 0.930 . S
C1313 C1312 1.369 . S
C1313 C1322 1.429 . S
C1314 C1312 1.419 . S
C1314 C1315 1.363 . S
C1314 H1317 0.929 . S
C1315 C1314 1.363 . S
C1315 C1321 1.428 . S
H1316 C1312 0.930 . S
H1317 C1314 0.929 . S
S1318 N1319 1.613 . S
S1318 N1320 1.610 . S
N1319 S1318 1.613 . S
N1319 C1322 1.350 . S
N1320 S1318 1.610 . S
N1320 C1321 1.351 . S
C1321 C1315 1.428 . S
C1321 N1320 1.351 . S
C1321 C1322 1.434 . S
C1322 C1313 1.429 . S
C1322 N1319 1.350 . S
C1322 C1321 1.434 . S
C1323 C1324 1.369 . S
C1323 C1325 1.419 . S
C1323 H1327 0.930 . S
C1324 C1323 1.369 . S
C1324 C1333 1.429 . S
C1325 C1323 1.419 . S
C1325 C1326 1.363 . S
C1325 H1328 0.929 . S
C1326 C1325 1.363 . S
C1326 C1332 1.428 . S
H1327 C1323 0.930 . S
H1328 C1325 0.929 . S
S1329 N1330 1.613 . S
S1329 N1331 1.610 . S
N1330 S1329 1.613 . S
N1330 C1333 1.350 . S
N1331 S1329 1.610 . S
N1331 C1332 1.351 . S
C1332 C1326 1.428 . S
C1332 N1331 1.351 . S
C1332 C1333 1.434 . S
C1333 C1324 1.429 . S
C1333 N1330 1.350 . S
C1333 C1332 1.434 . S
C1334 C1335 1.369 . S
C1334 C1336 1.419 . S
C1334 H1338 0.930 . S
C1335 C1334 1.369 . S
C1335 C1344 1.429 . S
C1336 C1334 1.419 . S
C1336 C1337 1.363 . S
C1336 H1339 0.929 . S
C1337 C1336 1.363 . S
C1337 C1343 1.428 . S
H1338 C1334 0.930 . S
H1339 C1336 0.929 . S
S1340 N1341 1.613 . S
S1340 N1342 1.610 . S
N1341 S1340 1.613 . S
N1341 C1344 1.350 . S
N1342 S1340 1.610 . S
N1342 C1343 1.351 . S
C1343 C1337 1.428 . S
C1343 N1342 1.351 . S
C1343 C1344 1.434 . S
C1344 C1335 1.429 . S
C1344 N1341 1.350 . S
C1344 C1343 1.434 . S
C1345 C1346 1.369 . S
C1345 C1347 1.419 . S
C1345 H1349 0.930 . S
C1346 C1345 1.369 . S
C1346 C1355 1.429 . S
C1347 C1345 1.419 . S
C1347 C1348 1.363 . S
C1347 H1350 0.929 . S
C1348 C1347 1.363 . S
C1348 C1354 1.428 . S
H1349 C1345 0.930 . S
H1350 C1347 0.929 . S
S1351 N1352 1.613 . S
S1351 N1353 1.610 . S
N1352 S1351 1.613 . S
N1352 C1355 1.350 . S
N1353 S1351 1.610 . S
N1353 C1354 1.351 . S
C1354 C1348 1.428 . S
C1354 N1353 1.351 . S
C1354 C1355 1.434 . S
C1355 C1346 1.429 . S
C1355 N1352 1.350 . S
C1355 C1354 1.434 . S
C1356 C1357 1.369 . S
C1356 C1358 1.419 . S
C1356 H1360 0.930 . S
C1357 C1356 1.369 . S
C1357 C1366 1.429 . S
C1358 C1356 1.419 . S
C1358 C1359 1.363 . S
C1358 H1361 0.929 . S
C1359 C1358 1.363 . S
C1359 C1365 1.428 . S
H1360 C1356 0.930 . S
H1361 C1358 0.929 . S
S1362 N1363 1.613 . S
S1362 N1364 1.610 . S
N1363 S1362 1.613 . S
N1363 C1366 1.350 . S
N1364 S1362 1.610 . S
N1364 C1365 1.351 . S
C1365 C1359 1.428 . S
C1365 N1364 1.351 . S
C1365 C1366 1.434 . S
C1366 C1357 1.429 . S
C1366 N1363 1.350 . S
C1366 C1365 1.434 . S
C1367 C1368 1.369 . S
C1367 C1369 1.419 . S
C1367 H1371 0.930 . S
C1368 C1367 1.369 . S
C1368 C1377 1.429 . S
C1369 C1367 1.419 . S
C1369 C1370 1.363 . S
C1369 H1372 0.929 . S
C1370 C1369 1.363 . S
C1370 C1376 1.428 . S
H1371 C1367 0.930 . S
H1372 C1369 0.929 . S
S1373 N1374 1.613 . S
S1373 N1375 1.610 . S
N1374 S1373 1.613 . S
N1374 C1377 1.350 . S
N1375 S1373 1.610 . S
N1375 C1376 1.351 . S
C1376 C1370 1.428 . S
C1376 N1375 1.351 . S
C1376 C1377 1.434 . S
C1377 C1368 1.429 . S
C1377 N1374 1.350 . S
C1377 C1376 1.434 . S
C1378 C1379 1.369 . S
C1378 C1380 1.419 . S
C1378 H1382 0.930 . S
C1379 C1378 1.369 . S
C1379 C1388 1.429 . S
C1380 C1378 1.419 . S
C1380 C1381 1.363 . S
C1380 H1383 0.929 . S
C1381 C1380 1.363 . S
C1381 C1387 1.428 . S
H1382 C1378 0.930 . S
H1383 C1380 0.929 . S
S1384 N1385 1.613 . S
S1384 N1386 1.610 . S
N1385 S1384 1.613 . S
N1385 C1388 1.350 . S
N1386 S1384 1.610 . S
N1386 C1387 1.351 . S
C1387 C1381 1.428 . S
C1387 N1386 1.351 . S
C1387 C1388 1.434 . S
C1388 C1379 1.429 . S
C1388 N1385 1.350 . S
C1388 C1387 1.434 . S
C1389 C1390 1.369 . S
C1389 C1391 1.419 . S
C1389 H1393 0.930 . S
C1390 C1389 1.369 . S
C1390 C1399 1.429 . S
C1391 C1389 1.419 . S
C1391 C1392 1.363 . S
C1391 H1394 0.929 . S
C1392 C1391 1.363 . S
C1392 C1398 1.428 . S
H1393 C1389 0.930 . S
H1394 C1391 0.929 . S
S1395 N1396 1.613 . S
S1395 N1397 1.610 . S
N1396 S1395 1.613 . S
N1396 C1399 1.350 . S
N1397 S1395 1.610 . S
N1397 C1398 1.351 . S
C1398 C1392 1.428 . S
C1398 N1397 1.351 . S
C1398 C1399 1.434 . S
C1399 C1390 1.429 . S
C1399 N1396 1.350 . S
C1399 C1398 1.434 . S
C1400 C1401 1.369 . S
C1400 C1402 1.419 . S
C1400 H1404 0.930 . S
C1401 C1400 1.369 . S
C1401 C1410 1.429 . S
C1402 C1400 1.419 . S
C1402 C1403 1.363 . S
C1402 H1405 0.929 . S
C1403 C1402 1.363 . S
C1403 C1409 1.428 . S
H1404 C1400 0.930 . S
H1405 C1402 0.929 . S
S1406 N1407 1.613 . S
S1406 N1408 1.610 . S
N1407 S1406 1.613 . S
N1407 C1410 1.350 . S
N1408 S1406 1.610 . S
N1408 C1409 1.351 . S
C1409 C1403 1.428 . S
C1409 N1408 1.351 . S
C1409 C1410 1.434 . S
C1410 C1401 1.429 . S
C1410 N1407 1.350 . S
C1410 C1409 1.434 . S
C1411 C1412 1.369 . S
C1411 C1413 1.419 . S
C1411 H1415 0.930 . S
C1412 C1411 1.369 . S
C1412 C1421 1.429 . S
C1413 C1411 1.419 . S
C1413 C1414 1.363 . S
C1413 H1416 0.929 . S
C1414 C1413 1.363 . S
C1414 C1420 1.428 . S
H1415 C1411 0.930 . S
H1416 C1413 0.929 . S
S1417 N1418 1.613 . S
S1417 N1419 1.610 . S
N1418 S1417 1.613 . S
N1418 C1421 1.350 . S
N1419 S1417 1.610 . S
N1419 C1420 1.351 . S
C1420 C1414 1.428 . S
C1420 N1419 1.351 . S
C1420 C1421 1.434 . S
C1421 C1412 1.429 . S
C1421 N1418 1.350 . S
C1421 C1420 1.434 . S
C1422 C1423 1.369 . S
C1422 C1424 1.419 . S
C1422 H1426 0.930 . S
C1423 C1422 1.369 . S
C1423 C1432 1.429 . S
C1424 C1422 1.419 . S
C1424 C1425 1.363 . S
C1424 H1427 0.929 . S
C1425 C1424 1.363 . S
C1425 C1431 1.428 . S
H1426 C1422 0.930 . S
H1427 C1424 0.929 . S
S1428 N1429 1.613 . S
S1428 N1430 1.610 . S
N1429 S1428 1.613 . S
N1429 C1432 1.350 . S
N1430 S1428 1.610 . S
N1430 C1431 1.351 . S
C1431 C1425 1.428 . S
C1431 N1430 1.351 . S
C1431 C1432 1.434 . S
C1432 C1423 1.429 . S
C1432 N1429 1.350 . S
C1432 C1431 1.434 . S
C1433 C1434 1.369 . S
C1433 C1435 1.419 . S
C1433 H1437 0.930 . S
C1434 C1433 1.369 . S
C1434 C1443 1.429 . S
C1435 C1433 1.419 . S
C1435 C1436 1.363 . S
C1435 H1438 0.929 . S
C1436 C1435 1.363 . S
C1436 C1442 1.428 . S
H1437 C1433 0.930 . S
H1438 C1435 0.929 . S
S1439 N1440 1.613 . S
S1439 N1441 1.610 . S
N1440 S1439 1.613 . S
N1440 C1443 1.350 . S
N1441 S1439 1.610 . S
N1441 C1442 1.351 . S
C1442 C1436 1.428 . S
C1442 N1441 1.351 . S
C1442 C1443 1.434 . S
C1443 C1434 1.429 . S
C1443 N1440 1.350 . S
C1443 C1442 1.434 . S
C1444 C1445 1.369 . S
C1444 C1446 1.419 . S
C1444 H1448 0.930 . S
C1445 C1444 1.369 . S
C1445 C1454 1.429 . S
C1446 C1444 1.419 . S
C1446 C1447 1.363 . S
C1446 H1449 0.929 . S
C1447 C1446 1.363 . S
C1447 C1453 1.428 . S
H1448 C1444 0.930 . S
H1449 C1446 0.929 . S
S1450 N1451 1.613 . S
S1450 N1452 1.610 . S
N1451 S1450 1.613 . S
N1451 C1454 1.350 . S
N1452 S1450 1.610 . S
N1452 C1453 1.351 . S
C1453 C1447 1.428 . S
C1453 N1452 1.351 . S
C1453 C1454 1.434 . S
C1454 C1445 1.429 . S
C1454 N1451 1.350 . S
C1454 C1453 1.434 . S
C1455 C1456 1.369 . S
C1455 C1457 1.419 . S
C1455 H1459 0.930 . S
C1456 C1455 1.369 . S
C1456 C1465 1.429 . S
C1457 C1455 1.419 . S
C1457 C1458 1.363 . S
C1457 H1460 0.929 . S
C1458 C1457 1.363 . S
C1458 C1464 1.428 . S
H1459 C1455 0.930 . S
H1460 C1457 0.929 . S
S1461 N1462 1.613 . S
S1461 N1463 1.610 . S
N1462 S1461 1.613 . S
N1462 C1465 1.350 . S
N1463 S1461 1.610 . S
N1463 C1464 1.351 . S
C1464 C1458 1.428 . S
C1464 N1463 1.351 . S
C1464 C1465 1.434 . S
C1465 C1456 1.429 . S
C1465 N1462 1.350 . S
C1465 C1464 1.434 . S
C1466 C1467 1.369 . S
C1466 C1468 1.419 . S
C1466 H1470 0.930 . S
C1467 C1466 1.369 . S
C1467 C1476 1.429 . S
C1468 C1466 1.419 . S
C1468 C1469 1.363 . S
C1468 H1471 0.929 . S
C1469 C1468 1.363 . S
C1469 C1475 1.428 . S
H1470 C1466 0.930 . S
H1471 C1468 0.929 . S
S1472 N1473 1.613 . S
S1472 N1474 1.610 . S
N1473 S1472 1.613 . S
N1473 C1476 1.350 . S
N1474 S1472 1.610 . S
N1474 C1475 1.351 . S
C1475 C1469 1.428 . S
C1475 N1474 1.351 . S
C1475 C1476 1.434 . S
C1476 C1467 1.429 . S
C1476 N1473 1.350 . S
C1476 C1475 1.434 . S
C1477 C1478 1.369 . S
C1477 C1479 1.419 . S
C1477 H1481 0.930 . S
C1478 C1477 1.369 . S
C1478 C1487 1.429 . S
C1479 C1477 1.419 . S
C1479 C1480 1.363 . S
C1479 H1482 0.929 . S
C1480 C1479 1.363 . S
C1480 C1486 1.428 . S
H1481 C1477 0.930 . S
H1482 C1479 0.929 . S
S1483 N1484 1.613 . S
S1483 N1485 1.610 . S
N1484 S1483 1.613 . S
N1484 C1487 1.350 . S
N1485 S1483 1.610 . S
N1485 C1486 1.351 . S
C1486 C1480 1.428 . S
C1486 N1485 1.351 . S
C1486 C1487 1.434 . S
C1487 C1478 1.429 . S
C1487 N1484 1.350 . S
C1487 C1486 1.434 . S
C1488 C1489 1.369 . S
C1488 C1490 1.419 . S
C1488 H1492 0.930 . S
C1489 C1488 1.369 . S
C1489 C1498 1.429 . S
C1490 C1488 1.419 . S
C1490 C1491 1.363 . S
C1490 H1493 0.929 . S
C1491 C1490 1.363 . S
C1491 C1497 1.428 . S
H1492 C1488 0.930 . S
H1493 C1490 0.929 . S
S1494 N1495 1.613 . S
S1494 N1496 1.610 . S
N1495 S1494 1.613 . S
N1495 C1498 1.350 . S
N1496 S1494 1.610 . S
N1496 C1497 1.351 . S
C1497 C1491 1.428 . S
C1497 N1496 1.351 . S
C1497 C1498 1.434 . S
C1498 C1489 1.429 . S
C1498 N1495 1.350 . S
C1498 C1497 1.434 . S
C1499 C1500 1.369 . S
C1499 C1501 1.419 . S
C1499 H1503 0.930 . S
C1500 C1499 1.369 . S
C1500 C1509 1.429 . S
C1501 C1499 1.419 . S
C1501 C1502 1.363 . S
C1501 H1504 0.929 . S
C1502 C1501 1.363 . S
C1502 C1508 1.428 . S
H1503 C1499 0.930 . S
H1504 C1501 0.929 . S
S1505 N1506 1.613 . S
S1505 N1507 1.610 . S
N1506 S1505 1.613 . S
N1506 C1509 1.350 . S
N1507 S1505 1.610 . S
N1507 C1508 1.351 . S
C1508 C1502 1.428 . S
C1508 N1507 1.351 . S
C1508 C1509 1.434 . S
C1509 C1500 1.429 . S
C1509 N1506 1.350 . S
C1509 C1508 1.434 . S
C1510 C1511 1.369 . S
C1510 C1512 1.419 . S
C1510 H1514 0.930 . S
C1511 C1510 1.369 . S
C1511 C1520 1.429 . S
C1512 C1510 1.419 . S
C1512 C1513 1.363 . S
C1512 H1515 0.929 . S
C1513 C1512 1.363 . S
C1513 C1519 1.428 . S
H1514 C1510 0.930 . S
H1515 C1512 0.929 . S
S1516 N1517 1.613 . S
S1516 N1518 1.610 . S
N1517 S1516 1.613 . S
N1517 C1520 1.350 . S
N1518 S1516 1.610 . S
N1518 C1519 1.351 . S
C1519 C1513 1.428 . S
C1519 N1518 1.351 . S
C1519 C1520 1.434 . S
C1520 C1511 1.429 . S
C1520 N1517 1.350 . S
C1520 C1519 1.434 . S
C1521 C1522 1.369 . S
C1521 C1523 1.419 . S
C1521 H1525 0.930 . S
C1522 C1521 1.369 . S
C1522 C1531 1.429 . S
C1523 C1521 1.419 . S
C1523 C1524 1.363 . S
C1523 H1526 0.929 . S
C1524 C1523 1.363 . S
C1524 C1530 1.428 . S
H1525 C1521 0.930 . S
H1526 C1523 0.929 . S
S1527 N1528 1.613 . S
S1527 N1529 1.610 . S
N1528 S1527 1.613 . S
N1528 C1531 1.350 . S
N1529 S1527 1.610 . S
N1529 C1530 1.351 . S
C1530 C1524 1.428 . S
C1530 N1529 1.351 . S
C1530 C1531 1.434 . S
C1531 C1522 1.429 . S
C1531 N1528 1.350 . S
C1531 C1530 1.434 . S
C1532 C1533 1.369 . S
C1532 C1534 1.419 . S
C1532 H1536 0.930 . S
C1533 C1532 1.369 . S
C1533 C1542 1.429 . S
C1534 C1532 1.419 . S
C1534 C1535 1.363 . S
C1534 H1537 0.929 . S
C1535 C1534 1.363 . S
C1535 C1541 1.428 . S
H1536 C1532 0.930 . S
H1537 C1534 0.929 . S
S1538 N1539 1.613 . S
S1538 N1540 1.610 . S
N1539 S1538 1.613 . S
N1539 C1542 1.350 . S
N1540 S1538 1.610 . S
N1540 C1541 1.351 . S
C1541 C1535 1.428 . S
C1541 N1540 1.351 . S
C1541 C1542 1.434 . S
C1542 C1533 1.429 . S
C1542 N1539 1.350 . S
C1542 C1541 1.434 . S
C1543 C1544 1.369 . S
C1543 C1545 1.419 . S
C1543 H1547 0.930 . S
C1544 C1543 1.369 . S
C1544 C1553 1.429 . S
C1545 C1543 1.419 . S
C1545 C1546 1.363 . S
C1545 H1548 0.929 . S
C1546 C1545 1.363 . S
C1546 C1552 1.428 . S
H1547 C1543 0.930 . S
H1548 C1545 0.929 . S
S1549 N1550 1.613 . S
S1549 N1551 1.610 . S
N1550 S1549 1.613 . S
N1550 C1553 1.350 . S
N1551 S1549 1.610 . S
N1551 C1552 1.351 . S
C1552 C1546 1.428 . S
C1552 N1551 1.351 . S
C1552 C1553 1.434 . S
C1553 C1544 1.429 . S
C1553 N1550 1.350 . S
C1553 C1552 1.434 . S
C1554 C1555 1.369 . S
C1554 C1556 1.419 . S
C1554 H1558 0.930 . S
C1555 C1554 1.369 . S
C1555 C1564 1.429 . S
C1556 C1554 1.419 . S
C1556 C1557 1.363 . S
C1556 H1559 0.929 . S
C1557 C1556 1.363 . S
C1557 C1563 1.428 . S
H1558 C1554 0.930 . S
H1559 C1556 0.929 . S
S1560 N1561 1.613 . S
S1560 N1562 1.610 . S
N1561 S1560 1.613 . S
N1561 C1564 1.350 . S
N1562 S1560 1.610 . S
N1562 C1563 1.351 . S
C1563 C1557 1.428 . S
C1563 N1562 1.351 . S
C1563 C1564 1.434 . S
C1564 C1555 1.429 . S
C1564 N1561 1.350 . S
C1564 C1563 1.434 . S
C1565 C1566 1.369 . S
C1565 C1567 1.419 . S
C1565 H1569 0.930 . S
C1566 C1565 1.369 . S
C1566 C1575 1.429 . S
C1567 C1565 1.419 . S
C1567 C1568 1.363 . S
C1567 H1570 0.929 . S
C1568 C1567 1.363 . S
C1568 C1574 1.428 . S
H1569 C1565 0.930 . S
H1570 C1567 0.929 . S
S1571 N1572 1.613 . S
S1571 N1573 1.610 . S
N1572 S1571 1.613 . S
N1572 C1575 1.350 . S
N1573 S1571 1.610 . S
N1573 C1574 1.351 . S
C1574 C1568 1.428 . S
C1574 N1573 1.351 . S
C1574 C1575 1.434 . S
C1575 C1566 1.429 . S
C1575 N1572 1.350 . S
C1575 C1574 1.434 . S
C1576 C1577 1.369 . S
C1576 C1578 1.419 . S
C1576 H1580 0.930 . S
C1577 C1576 1.369 . S
C1577 C1586 1.429 . S
C1578 C1576 1.419 . S
C1578 C1579 1.363 . S
C1578 H1581 0.929 . S
C1579 C1578 1.363 . S
C1579 C1585 1.428 . S
H1580 C1576 0.930 . S
H1581 C1578 0.929 . S
S1582 N1583 1.613 . S
S1582 N1584 1.610 . S
N1583 S1582 1.613 . S
N1583 C1586 1.350 . S
N1584 S1582 1.610 . S
N1584 C1585 1.351 . S
C1585 C1579 1.428 . S
C1585 N1584 1.351 . S
C1585 C1586 1.434 . S
C1586 C1577 1.429 . S
C1586 N1583 1.350 . S
C1586 C1585 1.434 . S
C1587 C1588 1.369 . S
C1587 C1589 1.419 . S
C1587 H1591 0.930 . S
C1588 C1587 1.369 . S
C1588 C1597 1.429 . S
C1589 C1587 1.419 . S
C1589 C1590 1.363 . S
C1589 H1592 0.929 . S
C1590 C1589 1.363 . S
C1590 C1596 1.428 . S
H1591 C1587 0.930 . S
H1592 C1589 0.929 . S
S1593 N1594 1.613 . S
S1593 N1595 1.610 . S
N1594 S1593 1.613 . S
N1594 C1597 1.350 . S
N1595 S1593 1.610 . S
N1595 C1596 1.351 . S
C1596 C1590 1.428 . S
C1596 N1595 1.351 . S
C1596 C1597 1.434 . S
C1597 C1588 1.429 . S
C1597 N1594 1.350 . S
C1597 C1596 1.434 . S
C1598 C1599 1.369 . S
C1598 C1600 1.419 . S
C1598 H1602 0.930 . S
C1599 C1598 1.369 . S
C1599 C1608 1.429 . S
C1600 C1598 1.419 . S
C1600 C1601 1.363 . S
C1600 H1603 0.929 . S
C1601 C1600 1.363 . S
C1601 C1607 1.428 . S
H1602 C1598 0.930 . S
H1603 C1600 0.929 . S
S1604 N1605 1.613 . S
S1604 N1606 1.610 . S
N1605 S1604 1.613 . S
N1605 C1608 1.350 . S
N1606 S1604 1.610 . S
N1606 C1607 1.351 . S
C1607 C1601 1.428 . S
C1607 N1606 1.351 . S
C1607 C1608 1.434 . S
C1608 C1599 1.429 . S
C1608 N1605 1.350 . S
C1608 C1607 1.434 . S
C1609 C1610 1.369 . S
C1609 C1611 1.419 . S
C1609 H1613 0.930 . S
C1610 C1609 1.369 . S
C1610 C1619 1.429 . S
C1611 C1609 1.419 . S
C1611 C1612 1.363 . S
C1611 H1614 0.929 . S
C1612 C1611 1.363 . S
C1612 C1618 1.428 . S
H1613 C1609 0.930 . S
H1614 C1611 0.929 . S
S1615 N1616 1.613 . S
S1615 N1617 1.610 . S
N1616 S1615 1.613 . S
N1616 C1619 1.350 . S
N1617 S1615 1.610 . S
N1617 C1618 1.351 . S
C1618 C1612 1.428 . S
C1618 N1617 1.351 . S
C1618 C1619 1.434 . S
C1619 C1610 1.429 . S
C1619 N1616 1.350 . S
C1619 C1618 1.434 . S
C1620 C1621 1.369 . S
C1620 C1622 1.419 . S
C1620 H1624 0.930 . S
C1621 C1620 1.369 . S
C1621 C1630 1.429 . S
C1622 C1620 1.419 . S
C1622 C1623 1.363 . S
C1622 H1625 0.929 . S
C1623 C1622 1.363 . S
C1623 C1629 1.428 . S
H1624 C1620 0.930 . S
H1625 C1622 0.929 . S
S1626 N1627 1.613 . S
S1626 N1628 1.610 . S
N1627 S1626 1.613 . S
N1627 C1630 1.350 . S
N1628 S1626 1.610 . S
N1628 C1629 1.351 . S
C1629 C1623 1.428 . S
C1629 N1628 1.351 . S
C1629 C1630 1.434 . S
C1630 C1621 1.429 . S
C1630 N1627 1.350 . S
C1630 C1629 1.434 . S
C1631 C1632 1.369 . S
C1631 C1633 1.419 . S
C1631 H1635 0.930 . S
C1632 C1631 1.369 . S
C1632 C1641 1.429 . S
C1633 C1631 1.419 . S
C1633 C1634 1.363 . S
C1633 H1636 0.929 . S
C1634 C1633 1.363 . S
C1634 C1640 1.428 . S
H1635 C1631 0.930 . S
H1636 C1633 0.929 . S
S1637 N1638 1.613 . S
S1637 N1639 1.610 . S
N1638 S1637 1.613 . S
N1638 C1641 1.350 . S
N1639 S1637 1.610 . S
N1639 C1640 1.351 . S
C1640 C1634 1.428 . S
C1640 N1639 1.351 . S
C1640 C1641 1.434 . S
C1641 C1632 1.429 . S
C1641 N1638 1.350 . S
C1641 C1640 1.434 . S
C1642 C1643 1.369 . S
C1642 C1644 1.419 . S
C1642 H1646 0.930 . S
C1643 C1642 1.369 . S
C1643 C1652 1.429 . S
C1644 C1642 1.419 . S
C1644 C1645 1.363 . S
C1644 H1647 0.929 . S
C1645 C1644 1.363 . S
C1645 C1651 1.428 . S
H1646 C1642 0.930 . S
H1647 C1644 0.929 . S
S1648 N1649 1.613 . S
S1648 N1650 1.610 . S
N1649 S1648 1.613 . S
N1649 C1652 1.350 . S
N1650 S1648 1.610 . S
N1650 C1651 1.351 . S
C1651 C1645 1.428 . S
C1651 N1650 1.351 . S
C1651 C1652 1.434 . S
C1652 C1643 1.429 . S
C1652 N1649 1.350 . S
C1652 C1651 1.434 . S
C1653 C1654 1.369 . S
C1653 C1655 1.419 . S
C1653 H1657 0.930 . S
C1654 C1653 1.369 . S
C1654 C1663 1.429 . S
C1655 C1653 1.419 . S
C1655 C1656 1.363 . S
C1655 H1658 0.929 . S
C1656 C1655 1.363 . S
C1656 C1662 1.428 . S
H1657 C1653 0.930 . S
H1658 C1655 0.929 . S
S1659 N1660 1.613 . S
S1659 N1661 1.610 . S
N1660 S1659 1.613 . S
N1660 C1663 1.350 . S
N1661 S1659 1.610 . S
N1661 C1662 1.351 . S
C1662 C1656 1.428 . S
C1662 N1661 1.351 . S
C1662 C1663 1.434 . S
C1663 C1654 1.429 . S
C1663 N1660 1.350 . S
C1663 C1662 1.434 . S
C1664 C1665 1.369 . S
C1664 C1666 1.419 . S
C1664 H1668 0.930 . S
C1665 C1664 1.369 . S
C1665 C1674 1.429 . S
C1666 C1664 1.419 . S
C1666 C1667 1.363 . S
C1666 H1669 0.929 . S
C1667 C1666 1.363 . S
C1667 C1673 1.428 . S
H1668 C1664 0.930 . S
H1669 C1666 0.929 . S
S1670 N1671 1.613 . S
S1670 N1672 1.610 . S
N1671 S1670 1.613 . S
N1671 C1674 1.350 . S
N1672 S1670 1.610 . S
N1672 C1673 1.351 . S
C1673 C1667 1.428 . S
C1673 N1672 1.351 . S
C1673 C1674 1.434 . S
C1674 C1665 1.429 . S
C1674 N1671 1.350 . S
C1674 C1673 1.434 . S
C1675 C1676 1.369 . S
C1675 C1677 1.419 . S
C1675 H1679 0.930 . S
C1676 C1675 1.369 . S
C1676 C1685 1.429 . S
C1677 C1675 1.419 . S
C1677 C1678 1.363 . S
C1677 H1680 0.929 . S
C1678 C1677 1.363 . S
C1678 C1684 1.428 . S
H1679 C1675 0.930 . S
H1680 C1677 0.929 . S
S1681 N1682 1.613 . S
S1681 N1683 1.610 . S
N1682 S1681 1.613 . S
N1682 C1685 1.350 . S
N1683 S1681 1.610 . S
N1683 C1684 1.351 . S
C1684 C1678 1.428 . S
C1684 N1683 1.351 . S
C1684 C1685 1.434 . S
C1685 C1676 1.429 . S
C1685 N1682 1.350 . S
C1685 C1684 1.434 . S
C1686 C1687 1.369 . S
C1686 C1688 1.419 . S
C1686 H1690 0.930 . S
C1687 C1686 1.369 . S
C1687 C1696 1.429 . S
C1688 C1686 1.419 . S
C1688 C1689 1.363 . S
C1688 H1691 0.929 . S
C1689 C1688 1.363 . S
C1689 C1695 1.428 . S
H1690 C1686 0.930 . S
H1691 C1688 0.929 . S
S1692 N1693 1.613 . S
S1692 N1694 1.610 . S
N1693 S1692 1.613 . S
N1693 C1696 1.350 . S
N1694 S1692 1.610 . S
N1694 C1695 1.351 . S
C1695 C1689 1.428 . S
C1695 N1694 1.351 . S
C1695 C1696 1.434 . S
C1696 C1687 1.429 . S
C1696 N1693 1.350 . S
C1696 C1695 1.434 . S
C1697 C1698 1.369 . S
C1697 C1699 1.419 . S
C1697 H1701 0.930 . S
C1698 C1697 1.369 . S
C1698 C1707 1.429 . S
C1699 C1697 1.419 . S
C1699 C1700 1.363 . S
C1699 H1702 0.929 . S
C1700 C1699 1.363 . S
C1700 C1706 1.428 . S
H1701 C1697 0.930 . S
H1702 C1699 0.929 . S
S1703 N1704 1.613 . S
S1703 N1705 1.610 . S
N1704 S1703 1.613 . S
N1704 C1707 1.350 . S
N1705 S1703 1.610 . S
N1705 C1706 1.351 . S
C1706 C1700 1.428 . S
C1706 N1705 1.351 . S
C1706 C1707 1.434 . S
C1707 C1698 1.429 . S
C1707 N1704 1.350 . S
C1707 C1706 1.434 . S
C1708 C1709 1.369 . S
C1708 C1710 1.419 . S
C1708 H1712 0.930 . S
C1709 C1708 1.369 . S
C1709 C1718 1.429 . S
C1710 C1708 1.419 . S
C1710 C1711 1.363 . S
C1710 H1713 0.929 . S
C1711 C1710 1.363 . S
C1711 C1717 1.428 . S
H1712 C1708 0.930 . S
H1713 C1710 0.929 . S
S1714 N1715 1.613 . S
S1714 N1716 1.610 . S
N1715 S1714 1.613 . S
N1715 C1718 1.350 . S
N1716 S1714 1.610 . S
N1716 C1717 1.351 . S
C1717 C1711 1.428 . S
C1717 N1716 1.351 . S
C1717 C1718 1.434 . S
C1718 C1709 1.429 . S
C1718 N1715 1.350 . S
C1718 C1717 1.434 . S
C1719 C1720 1.369 . S
C1719 C1721 1.419 . S
C1719 H1723 0.930 . S
C1720 C1719 1.369 . S
C1720 C1729 1.429 . S
C1721 C1719 1.419 . S
C1721 C1722 1.363 . S
C1721 H1724 0.929 . S
C1722 C1721 1.363 . S
C1722 C1728 1.428 . S
H1723 C1719 0.930 . S
H1724 C1721 0.929 . S
S1725 N1726 1.613 . S
S1725 N1727 1.610 . S
N1726 S1725 1.613 . S
N1726 C1729 1.350 . S
N1727 S1725 1.610 . S
N1727 C1728 1.351 . S
C1728 C1722 1.428 . S
C1728 N1727 1.351 . S
C1728 C1729 1.434 . S
C1729 C1720 1.429 . S
C1729 N1726 1.350 . S
C1729 C1728 1.434 . S
C1730 C1731 1.369 . S
C1730 C1732 1.419 . S
C1730 H1734 0.930 . S
C1731 C1730 1.369 . S
C1731 C1740 1.429 . S
C1732 C1730 1.419 . S
C1732 C1733 1.363 . S
C1732 H1735 0.929 . S
C1733 C1732 1.363 . S
C1733 C1739 1.428 . S
H1734 C1730 0.930 . S
H1735 C1732 0.929 . S
S1736 N1737 1.613 . S
S1736 N1738 1.610 . S
N1737 S1736 1.613 . S
N1737 C1740 1.350 . S
N1738 S1736 1.610 . S
N1738 C1739 1.351 . S
C1739 C1733 1.428 . S
C1739 N1738 1.351 . S
C1739 C1740 1.434 . S
C1740 C1731 1.429 . S
C1740 N1737 1.350 . S
C1740 C1739 1.434 . S
C1741 C1742 1.369 . S
C1741 C1743 1.419 . S
C1741 H1745 0.930 . S
C1742 C1741 1.369 . S
C1742 C1751 1.429 . S
C1743 C1741 1.419 . S
C1743 C1744 1.363 . S
C1743 H1746 0.929 . S
C1744 C1743 1.363 . S
C1744 C1750 1.428 . S
H1745 C1741 0.930 . S
H1746 C1743 0.929 . S
S1747 N1748 1.613 . S
S1747 N1749 1.610 . S
N1748 S1747 1.613 . S
N1748 C1751 1.350 . S
N1749 S1747 1.610 . S
N1749 C1750 1.351 . S
C1750 C1744 1.428 . S
C1750 N1749 1.351 . S
C1750 C1751 1.434 . S
C1751 C1742 1.429 . S
C1751 N1748 1.350 . S
C1751 C1750 1.434 . S
C1752 C1753 1.369 . S
C1752 C1754 1.419 . S
C1752 H1756 0.930 . S
C1753 C1752 1.369 . S
C1753 C1762 1.429 . S
C1754 C1752 1.419 . S
C1754 C1755 1.363 . S
C1754 H1757 0.929 . S
C1755 C1754 1.363 . S
C1755 C1761 1.428 . S
H1756 C1752 0.930 . S
H1757 C1754 0.929 . S
S1758 N1759 1.613 . S
S1758 N1760 1.610 . S
N1759 S1758 1.613 . S
N1759 C1762 1.350 . S
N1760 S1758 1.610 . S
N1760 C1761 1.351 . S
C1761 C1755 1.428 . S
C1761 N1760 1.351 . S
C1761 C1762 1.434 . S
C1762 C1753 1.429 . S
C1762 N1759 1.350 . S
C1762 C1761 1.434 . S
C1763 C1764 1.369 . S
C1763 C1765 1.419 . S
C1763 H1767 0.930 . S
C1764 C1763 1.369 . S
C1764 C1773 1.429 . S
C1765 C1763 1.419 . S
C1765 C1766 1.363 . S
C1765 H1768 0.929 . S
C1766 C1765 1.363 . S
C1766 C1772 1.428 . S
H1767 C1763 0.930 . S
H1768 C1765 0.929 . S
S1769 N1770 1.613 . S
S1769 N1771 1.610 . S
N1770 S1769 1.613 . S
N1770 C1773 1.350 . S
N1771 S1769 1.610 . S
N1771 C1772 1.351 . S
C1772 C1766 1.428 . S
C1772 N1771 1.351 . S
C1772 C1773 1.434 . S
C1773 C1764 1.429 . S
C1773 N1770 1.350 . S
C1773 C1772 1.434 . S
C1774 C1775 1.369 . S
C1774 C1776 1.419 . S
C1774 H1778 0.930 . S
C1775 C1774 1.369 . S
C1775 C1784 1.429 . S
C1776 C1774 1.419 . S
C1776 C1777 1.363 . S
C1776 H1779 0.929 . S
C1777 C1776 1.363 . S
C1777 C1783 1.428 . S
H1778 C1774 0.930 . S
H1779 C1776 0.929 . S
S1780 N1781 1.613 . S
S1780 N1782 1.610 . S
N1781 S1780 1.613 . S
N1781 C1784 1.350 . S
N1782 S1780 1.610 . S
N1782 C1783 1.351 . S
C1783 C1777 1.428 . S
C1783 N1782 1.351 . S
C1783 C1784 1.434 . S
C1784 C1775 1.429 . S
C1784 N1781 1.350 . S
C1784 C1783 1.434 . S
C1785 C1786 1.369 . S
C1785 C1787 1.419 . S
C1785 H1789 0.930 . S
C1786 C1785 1.369 . S
C1786 C1795 1.429 . S
C1787 C1785 1.419 . S
C1787 C1788 1.363 . S
C1787 H1790 0.929 . S
C1788 C1787 1.363 . S
C1788 C1794 1.428 . S
H1789 C1785 0.930 . S
H1790 C1787 0.929 . S
S1791 N1792 1.613 . S
S1791 N1793 1.610 . S
N1792 S1791 1.613 . S
N1792 C1795 1.350 . S
N1793 S1791 1.610 . S
N1793 C1794 1.351 . S
C1794 C1788 1.428 . S
C1794 N1793 1.351 . S
C1794 C1795 1.434 . S
C1795 C1786 1.429 . S
C1795 N1792 1.350 . S
C1795 C1794 1.434 . S
C1796 C1797 1.369 . S
C1796 C1798 1.419 . S
C1796 H1800 0.930 . S
C1797 C1796 1.369 . S
C1797 C1806 1.429 . S
C1798 C1796 1.419 . S
C1798 C1799 1.363 . S
C1798 H1801 0.929 . S
C1799 C1798 1.363 . S
C1799 C1805 1.428 . S
H1800 C1796 0.930 . S
H1801 C1798 0.929 . S
S1802 N1803 1.613 . S
S1802 N1804 1.610 . S
N1803 S1802 1.613 . S
N1803 C1806 1.350 . S
N1804 S1802 1.610 . S
N1804 C1805 1.351 . S
C1805 C1799 1.428 . S
C1805 N1804 1.351 . S
C1805 C1806 1.434 . S
C1806 C1797 1.429 . S
C1806 N1803 1.350 . S
C1806 C1805 1.434 . S
C1807 C1808 1.369 . S
C1807 C1809 1.419 . S
C1807 H1811 0.930 . S
C1808 C1807 1.369 . S
C1808 C1817 1.429 . S
C1809 C1807 1.419 . S
C1809 C1810 1.363 . S
C1809 H1812 0.929 . S
C1810 C1809 1.363 . S
C1810 C1816 1.428 . S
H1811 C1807 0.930 . S
H1812 C1809 0.929 . S
S1813 N1814 1.613 . S
S1813 N1815 1.610 . S
N1814 S1813 1.613 . S
N1814 C1817 1.350 . S
N1815 S1813 1.610 . S
N1815 C1816 1.351 . S
C1816 C1810 1.428 . S
C1816 N1815 1.351 . S
C1816 C1817 1.434 . S
C1817 C1808 1.429 . S
C1817 N1814 1.350 . S
C1817 C1816 1.434 . S
C1818 C1819 1.369 . S
C1818 C1820 1.419 . S
C1818 H1822 0.930 . S
C1819 C1818 1.369 . S
C1819 C1828 1.429 . S
C1820 C1818 1.419 . S
C1820 C1821 1.363 . S
C1820 H1823 0.929 . S
C1821 C1820 1.363 . S
C1821 C1827 1.428 . S
H1822 C1818 0.930 . S
H1823 C1820 0.929 . S
S1824 N1825 1.613 . S
S1824 N1826 1.610 . S
N1825 S1824 1.613 . S
N1825 C1828 1.350 . S
N1826 S1824 1.610 . S
N1826 C1827 1.351 . S
C1827 C1821 1.428 . S
C1827 N1826 1.351 . S
C1827 C1828 1.434 . S
C1828 C1819 1.429 . S
C1828 N1825 1.350 . S
C1828 C1827 1.434 . S
C1829 C1830 1.369 . S
C1829 C1831 1.419 . S
C1829 H1833 0.930 . S
C1830 C1829 1.369 . S
C1830 C1839 1.429 . S
C1831 C1829 1.419 . S
C1831 C1832 1.363 . S
C1831 H1834 0.929 . S
C1832 C1831 1.363 . S
C1832 C1838 1.428 . S
H1833 C1829 0.930 . S
H1834 C1831 0.929 . S
S1835 N1836 1.613 . S
S1835 N1837 1.610 . S
N1836 S1835 1.613 . S
N1836 C1839 1.350 . S
N1837 S1835 1.610 . S
N1837 C1838 1.351 . S
C1838 C1832 1.428 . S
C1838 N1837 1.351 . S
C1838 C1839 1.434 . S
C1839 C1830 1.429 . S
C1839 N1836 1.350 . S
C1839 C1838 1.434 . S
C787 C366 1.838 . S
C785 C7 1.773 . S
C798 C378 1.303 . S
C796 C19 1.372 . S
C807 C29 1.706 . S
C809 C402 1.702 . S
C820 C413 1.350 . S
C818 C41 1.468 . S
C829 C52 1.445 . S
C831 C420 1.423 . S
C840 C62 1.531 . S
C842 C359 1.533 . S
C851 C73 1.245 . S
C853 C386 1.310 . S
C864 C395 1.636 . S
C862 C82 1.531 . S
C875 C432 1.664 . S
C873 C5 1.550 . S
C884 C16 1.313 . S
C886 C458 1.508 . S
C895 C30 1.741 . S
C897 C474 1.634 . S
C908 C494 1.311 . S
C906 C40 1.505 . S
C917 C49 1.205 . S
C919 C503 1.376 . S
C930 C528 1.469 . S
C928 C63 1.537 . S
C939 C74 1.335 . S
C941 C548 1.303 1_655 S
C952 C564 1.500 . S
C950 C85 1.564 . S
C961 C8 1.584 . S
C963 C486 1.520 . S
C972 C51 1.515 . S
C974 C521 1.526 . S
C985 C540 1.707 . S
C983 C60 1.521 . S
C994 C71 1.161 . S
C996 C557 1.434 . S
C1007 C510 1.873 . S
C1005 C84 1.816 . S
C1018 C450 1.471 . S
C1016 C27 1.302 . S
C1027 C38 1.395 . S
C1029 C467 1.392 . S
C1040 C440 1.596 . S
C1038 C18 1.537 . S
C1051 C584 1.843 . S
C1049 C95 1.780 . S
C1060 C107 1.370 . S
C1062 C594 1.309 . S
C1071 C117 1.709 . S
C1073 C618 1.705 . S
C1084 C630 1.352 . S
C1082 C129 1.468 . S
C1093 C140 1.444 . S
C1095 C638 1.418 . S
C1104 C150 1.530 . S
C1106 C576 1.538 . S
C1115 C161 1.253 . S
C1117 C602 1.305 . S
C1126 C170 1.525 . S
C1128 C611 1.634 . S
C1139 C504 1.669 . S
C1137 C93 1.559 . S
C1148 C104 1.328 . S
C1150 C654 1.507 . S
C1161 C546 1.630 . S
C1159 C118 1.751 . S
C1170 C128 1.503 . S
C1172 C674 1.317 . S
C1181 C137 1.212 . S
C1183 C431 1.368 . S
C1194 C692 1.439 . S
C1192 C151 1.533 . S
C1203 C162 1.336 . S
C1205 C476 1.299 1_655 S
C1216 C708 1.502 . S
C1214 C173 1.565 . S
C1225 C96 1.582 . S
C1227 C666 1.517 . S
C1238 C684 1.534 . S
C1236 C139 1.511 . S
C1247 C148 1.511 . S
C1249 C468 1.706 . S
C1260 C701 1.440 . S
C1258 C159 1.148 . S
C1269 C172 1.820 . S
C1271 C438 1.872 . S
C1280 C115 1.309 . S
C1282 C647 1.456 . S
C1291 C126 1.400 . S
C1293 C539 1.395 . S
C1302 C106 1.544 . S
C1304 C512 1.593 . S
C1313 C183 1.774 . S
C1315 C620 1.843 . S
C1326 C629 1.302 . S
C1324 C195 1.372 . S
C1335 C205 1.701 . S
C1337 C582 1.702 . S
C1346 C217 1.464 . S
C1348 C593 1.356 . S
C1357 C228 1.444 . S
C1359 C600 1.420 . S
C1368 C238 1.531 . S
C1370 C612 1.544 . S
C1381 C636 1.306 . S
C1379 C249 1.259 . S
C1390 C258 1.527 . S
C1392 C575 1.632 . S
C1403 C726 1.662 . S
C1401 C181 1.551 . S
C1412 C192 1.316 . S
C1414 C530 1.512 . S
C1425 C744 1.636 . S
C1423 C206 1.740 . S
C1434 C216 1.501 . S
C1436 C566 1.322 . S
C1445 C225 1.220 . S
C1447 C764 1.370 . S
C1456 C239 1.541 . S
C1458 C456 1.458 . S
C1469 C780 1.273 . S
C1467 C250 1.339 . S
C1478 C261 1.561 . S
C1480 C492 1.495 . S
C1491 C558 1.522 . S
C1489 C184 1.587 . S
C1502 C449 1.523 . S
C1500 C227 1.513 . S
C1511 C236 1.519 . S
C1513 C773 1.696 . S
C1522 C247 1.148 . S
C1524 C485 1.439 . S
C1535 C756 1.874 . S
C1533 C260 1.813 . S
C1546 C522 1.470 . S
C1544 C203 1.305 . S
C1557 C737 1.392 . S
C1555 C214 1.390 . S
C1568 C719 1.601 . S
C1566 C194 1.545 . S
C1577 C271 1.782 . S
C1579 C404 1.845 . S
C1588 C283 1.375 . S
C1590 C414 1.305 . S
C1601 C368 1.703 . S
C1599 C293 1.707 . S
C1612 C377 1.358 . S
C1610 C305 1.465 . S
C1623 C384 1.412 . S
C1621 C316 1.447 . S
C1634 C396 1.537 . S
C1632 C326 1.530 . S
C1645 C422 1.305 . S
C1643 C337 1.254 . S
C1654 C346 1.516 . S
C1656 C360 1.634 . S
C1665 C269 1.559 . S
C1667 C762 1.669 . S
C1678 C690 1.515 . S
C1676 C280 1.319 . S
C1689 C782 1.598 . S
C1687 C294 1.744 . S
C1700 C710 1.310 . S
C1698 C304 1.505 . S
C1709 C313 1.214 . S
C1711 C728 1.369 . S
C1722 C656 1.431 . S
C1720 C327 1.537 . S
C1733 C746 1.292 . S
C1731 C338 1.346 . S
C1742 C349 1.560 . S
C1744 C672 1.495 . S
C1755 C702 1.522 . S
C1753 C272 1.586 . S
C1766 C648 1.534 . S
C1764 C315 1.515 . S
C1777 C738 1.707 . S
C1775 C324 1.509 . S
C1786 C335 1.156 . S
C1788 C665 1.436 . S
C1797 C348 1.810 . S
C1799 C720 1.869 . S
C1808 C291 1.291 . S
C1810 C683 1.461 . S
C1819 C302 1.393 . S
C1821 C774 1.391 . S
C1832 C755 1.601 . S
C1830 C282 1.539 . S
