# Generated by pormake.
# Topology tsx, (6,3)-cn, num edge types: 1
# Building blocks:
#     Node 0, Type 0, BuildingBlock: JUFBIX_clean_sbu_0, # of connection points: 6
#     Node 1, Type 0, BuildingBlock: JUFBIX_clean_sbu_0, # of connection points: 6
#     Node 2, Type 1, BuildingBlock: QEWDON_clean_linker_0, # of connection points: 3
#     Node 3, Type 1, BuildingBlock: QEWDON_clean_linker_0, # of connection points: 3
#     Node 4, Type 1, BuildingBlock: QEWDON_clean_linker_0, # of connection points: 3
#     Node 5, Type 1, BuildingBlock: QEWDON_clean_linker_0, # of connection points: 3
#     Edge 6, Type (0, 1), BuildingBlock: AJUNOK_clean_linker_0, # of connection points: 2
#     Edge 7, Type (0, 1), BuildingBlock: AJUNOK_clean_linker_0, # of connection points: 2
#     Edge 8, Type (0, 1), BuildingBlock: AJUNOK_clean_linker_0, # of connection points: 2
#     Edge 9, Type (0, 1), BuildingBlock: AJUNOK_clean_linker_0, # of connection points: 2
#     Edge 10, Type (0, 1), BuildingBlock: AJUNOK_clean_linker_0, # of connection points: 2
#     Edge 11, Type (0, 1), BuildingBlock: AJUNOK_clean_linker_0, # of connection points: 2
#     Edge 12, Type (0, 1), BuildingBlock: AJUNOK_clean_linker_0, # of connection points: 2
#     Edge 13, Type (0, 1), BuildingBlock: AJUNOK_clean_linker_0, # of connection points: 2
#     Edge 14, Type (0, 1), BuildingBlock: AJUNOK_clean_linker_0, # of connection points: 2
#     Edge 15, Type (0, 1), BuildingBlock: AJUNOK_clean_linker_0, # of connection points: 2
#     Edge 16, Type (0, 1), BuildingBlock: AJUNOK_clean_linker_0, # of connection points: 2
#     Edge 17, Type (0, 1), BuildingBlock: AJUNOK_clean_linker_0, # of connection points: 2
# Relax obj value: 0.109
# Max RMSD: 0.166
# Mean RMSD: 0.145
data_MOF--net-tsx--node1-JUFBIX_clean_sbu_0--node2-QEWDON_clean_linker_0--edge1-AJUNOK_clean_linker_0
_symmetry_space_group_name_H-M    P1
_symmetry_Int_Tables_number       1
_symmetry_cell_setting            triclinic
loop_
_symmetry_equiv_pos_as_xyz
'x, y, z'
_cell_length_a     14.721995
_cell_length_b     18.820092
_cell_length_c     20.709641
_cell_angle_alpha  90.769574
_cell_angle_beta   101.27863
_cell_angle_gamma 102.09611
loop_
_atom_site_label
_atom_site_type_symbol
_atom_site_fract_x
_atom_site_fract_y
_atom_site_fract_z
_atom_type_partial_charge
Co0 Co 0.22841 0.98617 0.06064 0.0
C1 C 0.14152 1.02149 0.93442 0.0
Co2 Co 0.12729 0.05719 0.06274 0.0
C3 C 0.40271 0.92939 0.09938 0.0
C4 C 0.30227 0.86582 1.01976 0.0
N5 N 0.31722 0.92694 0.05867 0.0
N6 N 0.44042 0.87192 0.0874 0.0
C7 C 0.37735 0.83202 1.03737 0.0
H8 H 0.43495 0.97096 0.13855 0.0
H9 H 0.23915 0.84574 0.98233 0.0
C10 C 0.21713 0.024 0.18947 0.0
N11 N 1.03824 0.10937 0.07378 0.0
C12 C 1.02357 0.17537 0.05641 0.0
C13 C 0.97595 0.0862 0.11333 0.0
N14 N 0.95434 0.19288 0.08355 0.0
C15 C 0.92409 0.13693 0.11888 0.0
C16 C 1.03828 0.91075 1.04925 0.0
O17 O 0.25747 0.98686 0.15682 0.0
O18 O 0.15765 0.05712 0.15768 0.0
O19 O 1.03265 0.97559 0.05724 0.0
O20 O 0.12135 0.89775 0.05325 0.0
O21 O 0.09832 0.0573 0.96685 0.0
H22 H 0.97051 0.0362 0.13887 0.0
H23 H 1.06305 0.20985 1.02534 0.0
O24 O 0.20042 0.98711 0.96638 0.0
O25 O 0.32741 0.07594 0.06239 0.0
O26 O 0.21985 0.14111 0.06458 0.0
C27 C 0.3036 0.13786 0.06027 0.0
H28 H 0.38445 0.78119 1.01586 0.0
H29 H 0.86974 0.13398 0.14785 0.0
Co30 Co 0.58379 0.45652 0.53394 0.0
C31 C 0.51142 0.51554 0.41529 0.0
Co32 Co 0.48496 0.52909 0.54439 0.0
C33 C 0.75353 0.39179 0.56509 0.0
C34 C 0.65746 0.34402 0.47656 0.0
N35 N 0.66915 0.39528 0.52526 0.0
N36 N 0.79445 0.34015 0.54317 0.0
C37 C 0.73335 0.3103 0.48738 0.0
H38 H 0.78303 0.42535 0.6102 0.0
H39 H 0.59715 0.33159 0.43579 0.0
C40 C 0.56226 0.4741 0.66419 0.0
N41 N 0.40423 0.58953 0.55899 0.0
C42 C 0.41569 0.66244 0.55554 0.0
C43 C 0.32997 0.5699 0.58917 0.0
N44 N 0.35295 0.68897 0.58354 0.0
C45 C 0.29804 0.63056 0.60378 0.0
C46 C 0.38857 0.38695 0.51082 0.0
O47 O 0.59997 0.43939 0.6273 0.0
O48 O 0.50948 0.51572 0.63787 0.0
O49 O 0.3821 0.44974 0.5292 0.0
O50 O 0.47128 0.37453 0.51145 0.0
O51 O 0.46347 0.54298 0.45042 0.0
H52 H 0.30395 0.51548 0.60336 0.0
H53 H 0.47044 0.69552 0.53426 0.0
O54 O 0.56781 0.47631 0.44224 0.0
O55 O 0.68939 0.53979 0.55215 0.0
O56 O 0.58715 0.60838 0.55706 0.0
C57 C 0.67143 0.60284 0.55714 0.0
H58 H 0.74279 0.26688 0.45621 0.0
H59 H 0.24166 0.63198 0.63009 0.0
H60 H 0.27008 0.16368 0.50036 0.0
C61 C 0.28198 0.11361 0.52085 0.0
C62 C 0.29419 0.05719 0.479 0.0
C63 C 0.27912 0.10341 0.58863 0.0
H64 H 0.32269 0.95034 0.47552 0.0
C65 C 0.31311 0.99379 0.50689 0.0
C66 C 0.31441 0.98311 0.57349 0.0
C67 C 0.29585 0.0367 0.61399 0.0
C68 C 0.25188 0.15819 0.63229 0.0
H69 H 0.29209 0.02523 0.66458 0.0
C70 C 0.18039 0.19688 0.60822 0.0
C71 C 0.14107 0.23684 0.65013 0.0
C72 C 0.28971 0.16623 0.70055 0.0
H73 H 0.34552 0.13914 0.72206 0.0
C74 C 0.25508 0.20842 0.74242 0.0
H75 H 0.15022 0.19163 0.5575 0.0
C76 C 0.18109 0.243 0.71766 0.0
H77 H 0.15311 0.27257 0.75163 0.0
H78 H 0.28399 0.21259 0.79489 0.0
H79 H 1.0559 0.08315 0.61147 0.0
C80 C 1.02314 0.02749 0.59755 0.0
C81 C 1.02747 0.97678 0.64688 0.0
C82 C 0.97308 1.0067 0.53199 0.0
H83 H 0.98188 0.86516 0.66809 0.0
C84 C 0.98285 0.90393 0.6298 0.0
C85 C 0.9319 0.88165 0.56572 0.0
C86 C 0.92679 0.93328 0.51706 0.0
C87 C 0.96153 0.06251 0.48122 0.0
H88 H 0.88504 0.91655 0.468 0.0
C89 C 1.0408 0.11005 0.46575 0.0
C90 C 1.03287 0.1731 0.43012 0.0
C91 C 0.8711 0.07298 0.45237 0.0
H92 H 0.80813 0.03724 0.46242 0.0
C93 C 0.86134 0.13209 0.413 0.0
H94 H 0.1088 0.0998 0.48581 0.0
C95 C 0.94145 0.18302 0.40365 0.0
H96 H 0.93206 0.23134 0.37763 0.0
H97 H 0.7912 0.14058 0.39248 0.0
H98 H 0.70258 0.60405 0.97179 0.0
C99 C 0.72219 0.55816 0.99338 0.0
C100 C 0.70466 0.49457 0.95164 0.0
C101 C 0.77085 0.56337 0.06037 0.0
H102 H 0.73068 0.38715 0.94666 0.0
C103 C 0.73833 0.43543 0.97819 0.0
C104 C 0.78946 0.43973 1.04321 0.0
C105 C 0.80486 0.50277 0.08435 0.0
C106 C 0.80001 0.63409 0.10222 0.0
H107 H 0.84601 0.50537 0.13418 0.0
C108 C 0.73435 0.66773 0.12577 0.0
C109 C 0.76032 0.7402 0.1546 0.0
C110 C 0.89618 0.66897 0.11869 0.0
H111 H 0.9494 0.64409 0.10375 0.0
C112 C 0.92452 0.73735 0.15264 0.0
H113 H 0.66234 0.63895 0.11795 0.0
C114 C 0.85724 0.7736 0.16858 0.0
H115 H 0.88091 0.82857 0.19056 0.0
H116 H 0.99888 0.76404 0.16376 0.0
H117 H 0.49993 0.64141 0.10082 0.0
C118 C 0.48957 0.58487 0.08512 0.0
C119 C 0.4743 0.53049 0.13123 0.0
C120 C 0.49711 0.566 1.01974 0.0
H121 H 0.44594 0.41673 0.14631 0.0
C122 C 0.45973 0.45776 0.11095 0.0
C123 C 0.46571 0.43629 1.04773 0.0
C124 C 0.48298 0.49008 1.00188 0.0
C125 C 0.52865 0.62295 0.97151 0.0
H126 H 0.48885 0.47248 0.95332 0.0
C127 C 0.59975 0.68823 0.99139 0.0
C128 C 0.65912 0.72079 0.9478 0.0
C129 C 0.5004 0.60553 0.90313 0.0
H130 H 0.4431 0.55952 0.88406 0.0
C131 C 0.54817 0.64498 0.85833 0.0
H132 H 0.61459 0.70967 1.0411 0.0
C133 C 0.62974 0.69933 0.88064 0.0
H134 H 0.67122 0.72349 0.84555 0.0
H135 H 0.52601 0.62947 0.80618 0.0
C136 C 0.32351 0.24796 0.99485 0.0
C137 C 0.36463 0.20586 1.04366 0.0
C138 C 0.36481 0.32149 0.98926 0.0
C139 C 0.44851 0.35606 1.03277 0.0
H140 H 0.25475 0.22532 0.9639 0.0
H141 H 0.32564 0.35318 0.95553 0.0
S142 S 0.59252 0.26731 0.16186 0.0
N143 N 0.5002 0.20164 0.13009 0.0
N144 N 0.57834 0.33978 0.12009 0.0
C145 C 0.49588 0.31226 0.0767 0.0
C146 C 0.45368 0.23723 0.08226 0.0
C147 C 0.61474 0.88383 0.10641 0.0
C148 C 0.52673 0.85246 0.12136 0.0
C149 C 0.69429 0.85275 0.12694 0.0
C150 C 0.68686 0.78553 0.15719 0.0
H151 H 0.62118 0.93077 0.07662 0.0
H152 H 0.76093 0.87978 0.116 0.0
S153 S 0.4893 0.71055 0.24007 0.0
N154 N 0.44845 0.77094 0.19222 0.0
N155 N 0.59613 0.70963 0.22637 0.0
C156 C 0.60387 0.76156 0.18194 0.0
C157 C 0.524 0.79522 0.16399 0.0
C158 C 0.85938 0.8826 1.02299 0.0
C159 C 0.94472 0.8576 1.02615 0.0
C160 C 0.769 0.83895 0.99655 0.0
C161 C 0.7579 0.76737 0.97261 0.0
H162 H 0.86155 0.93742 1.04076 0.0
H163 H 0.70693 0.86176 0.99469 0.0
S164 S 0.95827 0.68097 0.95289 0.0
N165 N 1.01163 0.75983 0.99251 0.0
N166 N 0.84364 0.67899 0.9413 0.0
C167 C 0.84298 0.74358 0.97028 0.0
C168 C 0.93546 0.78796 0.99783 0.0
C169 C 0.81712 0.24846 0.06493 0.0
C170 C 0.91592 0.25634 0.07634 0.0
C171 C 0.77669 0.30899 0.05834 0.0
C172 C 0.83397 0.37925 0.06415 0.0
H173 H 0.77087 0.19484 0.05918 0.0
H174 H 0.70013 0.30079 1.04586 0.0
S175 S 0.09667 0.42879 0.0973 0.0
N176 N 1.07054 0.33891 0.09597 0.0
N177 N 0.99398 0.45416 0.08338 0.0
C178 C 0.93304 0.38821 0.07763 0.0
C179 C 0.9743 0.3262 0.08356 0.0
C180 C 0.71049 0.73311 0.53236 0.0
C181 C 0.74286 0.67071 0.55518 0.0
C182 C 0.77313 0.79983 0.53172 0.0
C183 C 0.87101 0.80734 0.55421 0.0
H184 H 0.63551 0.73096 0.51546 0.0
H185 H 0.74403 0.84673 0.51654 0.0
S186 S 0.99392 0.66008 0.61355 0.0
N187 N 0.88026 0.61962 0.59637 0.0
N188 N 0.99891 0.74606 0.59597 0.0
C189 C 0.90527 0.74495 0.57461 0.0
C190 C 0.84107 0.67638 0.57472 0.0
C191 C 0.88566 0.24291 0.56642 0.0
C192 C 0.88102 0.31664 0.57313 0.0
C193 C 0.96884 0.21829 0.59163 0.0
C194 C 1.05281 0.26567 0.62481 0.0
H195 H 0.82381 0.20327 0.54163 0.0
H196 H 0.96626 0.16119 0.58518 0.0
S197 S 1.08125 0.46486 0.65486 0.0
N198 N 0.96989 0.43767 0.61527 0.0
N199 N 0.12575 0.39103 0.66293 0.0
C200 C 1.04928 0.33961 0.63291 0.0
C201 C 0.96401 0.36507 0.60701 0.0
C202 C 0.21516 0.33983 0.50727 0.0
C203 C 0.29756 0.33327 0.48453 0.0
C204 C 0.12655 0.29378 0.4818 0.0
C205 C 0.11722 0.23569 0.43601 0.0
H206 H 0.21908 0.3805 0.54582 0.0
H207 H 1.06603 0.30024 0.50159 0.0
S208 S 0.29573 0.22175 0.33539 0.0
N209 N 0.35384 0.28324 0.39501 0.0
N210 N 0.18762 0.19426 0.34994 0.0
C211 C 0.1945 0.23596 0.40523 0.0
C212 C 0.28488 0.28461 0.42965 0.0
C213 C 0.25714 0.78142 0.58827 0.0
C214 C 0.34647 0.76384 0.59235 0.0
C215 C 0.24783 0.85405 0.58992 0.0
C216 C 0.32769 0.9115 0.59637 0.0
H217 H 0.19344 0.7388 0.57977 0.0
H218 H 0.17731 0.8653 0.58125 0.0
S219 S 0.57824 0.8956 0.61844 0.0
N220 N 0.51728 0.81057 0.61135 0.0
N221 N 0.499 0.94696 0.61246 0.0
C222 C 0.4177 0.89496 0.60498 0.0
C223 C 0.42736 0.82113 0.60339 0.0
C224 C 0.16546 0.0278 0.29827 0.0
C225 C 0.23928 0.03116 0.26337 0.0
C226 C 0.18403 0.03825 0.36763 0.0
C227 C 0.27737 0.0569 0.4051 0.0
H228 H 0.09236 1.01571 0.27179 0.0
H229 H 0.12453 0.03071 0.39204 0.0
S230 S 0.49624 0.07002 0.33834 0.0
N231 N 0.40977 0.05085 0.27234 0.0
N232 N 0.44445 0.07364 0.40193 0.0
C233 C 0.3518 0.05912 0.37092 0.0
C234 C 0.33287 0.04619 0.30041 0.0
C235 C 1.05896 0.05564 0.82307 0.0
C236 C 0.12194 1.01699 0.86012 0.0
C237 C 1.03391 0.04683 0.75347 0.0
C238 C 1.07013 0.99854 0.71805 0.0
H239 H 1.02653 0.09149 0.84804 0.0
H240 H 0.98205 0.07515 0.72752 0.0
S241 S 0.24531 0.89056 0.78918 0.0
N242 N 0.22653 0.93338 0.85379 0.0
N243 N 0.17775 0.9164 0.72445 0.0
C244 C 0.13658 0.9626 0.75394 0.0
C245 C 0.16284 0.97189 0.82439 0.0
C246 C 0.66366 0.53743 0.76846 0.0
C247 C 0.59374 0.47772 0.73736 0.0
C248 C 0.69706 0.54316 0.83725 0.0
C249 C 0.6609 0.49056 0.8788 0.0
H250 H 0.69432 0.57964 0.7391 0.0
H251 H 0.75385 0.58822 0.85724 0.0
S252 S 0.47488 0.32346 0.82141 0.0
N253 N 0.48856 0.36442 0.75275 0.0
N254 N 0.54946 0.37579 0.88208 0.0
C255 C 0.5899 0.43055 0.84791 0.0
C256 C 0.55662 0.4242 0.77747 0.0
C257 C 0.41602 0.53136 0.3026 0.0
C258 C 0.50392 0.52949 0.34372 0.0
C259 C 0.40715 0.53682 0.2337 0.0
C260 C 0.4867 0.54428 0.20381 0.0
H261 H 0.35284 0.52487 0.32329 0.0
H262 H 0.33731 0.53312 0.20334 0.0
S263 S 0.73244 0.54309 0.28922 0.0
N264 N 0.67186 0.53593 0.34893 0.0
N265 N 0.65515 0.54734 0.2207 0.0
C266 C 0.57488 0.54387 0.2447 0.0
C267 C 0.58363 0.53679 0.31423 0.0
loop_
_geom_bond_atom_site_label_1
_geom_bond_atom_site_label_2
_geom_bond_distance
_geom_bond_site_symmetry_2
_ccdc_geom_bond_type
Co0 N5 2.057 . S
Co0 O17 2.021 . S
Co0 O20 2.062 1_455 S
Co0 O24 2.117 1_554 S
Co0 O25 2.020 1_565 S
C1 O21 1.259 1_455 S
C1 O24 1.258 1_545 S
Co2 N11 2.057 1_556 S
Co2 O18 2.117 1_656 S
Co2 O19 2.020 1_545 S
Co2 O21 2.021 . S
Co2 O26 2.062 1_656 S
C3 N5 1.316 . S
C3 N6 1.347 . S
C3 H8 0.931 . S
C4 N5 1.375 1_556 S
C4 C7 1.350 . S
C4 H9 0.930 . S
N5 Co0 2.057 . S
N5 C3 1.316 . S
N5 C4 1.375 1_554 S
N6 C3 1.347 . S
N6 C7 1.373 1_554 S
C7 C4 1.350 . S
C7 N6 1.373 1_556 S
C7 H28 0.931 . S
H8 C3 0.931 . S
H9 C4 0.930 . S
C10 O17 1.259 1_545 S
C10 O18 1.258 . S
N11 Co2 2.057 1_554 S
N11 C12 1.316 1_554 S
N11 C13 1.375 . S
C12 N11 1.316 1_556 S
C12 N14 1.347 . S
C12 H23 0.931 . S
C13 N11 1.375 . S
C13 C15 1.350 . S
C13 H22 0.930 . S
N14 C12 1.347 . S
N14 C15 1.373 1_556 S
C15 C13 1.350 . S
C15 N14 1.373 1_554 S
C15 H29 0.931 . S
C16 O19 1.256 . S
C16 O20 1.255 1_556 S
O17 Co0 2.021 . S
O17 C10 1.259 1_565 S
O18 Co2 2.117 1_454 S
O18 C10 1.258 . S
O19 Co2 2.020 1_565 S
O19 C16 1.256 . S
O20 Co0 2.062 1_655 S
O20 C16 1.255 1_554 S
O21 C1 1.259 1_655 S
O21 Co2 2.021 . S
H22 C13 0.930 . S
H23 C12 0.931 . S
O24 Co0 2.117 1_556 S
O24 C1 1.258 1_565 S
O25 Co0 2.020 1_545 S
O25 C27 1.256 . S
O26 Co2 2.062 1_454 S
O26 C27 1.255 . S
C27 O25 1.256 . S
C27 O26 1.255 . S
H28 C7 0.931 . S
H29 C15 0.931 . S
Co30 N35 2.057 . S
Co30 O47 2.021 . S
Co30 O50 2.062 . S
Co30 O54 2.117 . S
Co30 O55 2.020 . S
C31 O51 1.259 . S
C31 O54 1.258 . S
Co32 N41 2.057 . S
Co32 O48 2.117 . S
Co32 O49 2.020 . S
Co32 O51 2.021 . S
Co32 O56 2.062 . S
C33 N35 1.316 . S
C33 N36 1.347 . S
C33 H38 0.931 . S
C34 N35 1.375 . S
C34 C37 1.350 . S
C34 H39 0.930 . S
N35 Co30 2.057 . S
N35 C33 1.316 . S
N35 C34 1.375 . S
N36 C33 1.347 . S
N36 C37 1.373 . S
C37 C34 1.350 . S
C37 N36 1.373 . S
C37 H58 0.931 . S
H38 C33 0.931 . S
H39 C34 0.930 . S
C40 O47 1.259 . S
C40 O48 1.258 . S
N41 Co32 2.057 . S
N41 C42 1.316 . S
N41 C43 1.375 . S
C42 N41 1.316 . S
C42 N44 1.347 . S
C42 H53 0.931 . S
C43 N41 1.375 . S
C43 C45 1.350 . S
C43 H52 0.930 . S
N44 C42 1.347 . S
N44 C45 1.373 . S
C45 C43 1.350 . S
C45 N44 1.373 . S
C45 H59 0.931 . S
C46 O49 1.256 . S
C46 O50 1.255 . S
O47 Co30 2.021 . S
O47 C40 1.259 . S
O48 Co32 2.117 . S
O48 C40 1.258 . S
O49 Co32 2.020 . S
O49 C46 1.256 . S
O50 Co30 2.062 . S
O50 C46 1.255 . S
O51 C31 1.259 . S
O51 Co32 2.021 . S
H52 C43 0.930 . S
H53 C42 0.931 . S
O54 Co30 2.117 . S
O54 C31 1.258 . S
O55 Co30 2.020 . S
O55 C57 1.256 . S
O56 Co32 2.062 . S
O56 C57 1.255 . S
C57 O55 1.256 . S
C57 O56 1.255 . S
H58 C37 0.931 . S
H59 C45 0.931 . S
H60 C61 0.949 . S
C61 H60 0.949 . S
C61 C62 1.395 1_545 S
C61 C63 1.391 . S
C62 C61 1.395 1_565 S
C62 C65 1.390 . S
C63 C61 1.391 . S
C63 C67 1.387 1_545 S
C63 C68 1.491 . S
H64 C65 0.950 . S
C65 C62 1.390 . S
C65 H64 0.950 . S
C65 C66 1.378 . S
C66 C65 1.378 . S
C66 C67 1.409 . S
C67 C63 1.387 1_565 S
C67 C66 1.409 . S
C67 H69 0.951 . S
C68 C63 1.491 . S
C68 C70 1.382 1_455 S
C68 C72 1.404 . S
H69 C67 0.951 . S
C70 C68 1.382 1_655 S
C70 C71 1.390 . S
C70 H75 0.949 . S
C71 C70 1.390 . S
C71 C76 1.399 1_655 S
C72 C68 1.404 . S
C72 H73 0.950 . S
C72 C74 1.375 . S
H73 C72 0.950 . S
C74 C72 1.375 . S
C74 C76 1.382 . S
C74 H78 0.950 . S
H75 C70 0.949 . S
C76 C71 1.399 1_455 S
C76 C74 1.382 . S
C76 H77 0.952 . S
H77 C76 0.952 . S
H78 C74 0.950 . S
H79 C80 0.949 . S
C80 H79 0.949 . S
C80 C81 1.395 1_445 S
C80 C82 1.391 1_455 S
C81 C80 1.395 1_665 S
C81 C84 1.390 . S
C82 C80 1.391 1_655 S
C82 C86 1.387 1_545 S
C82 C87 1.491 1_655 S
H83 C84 0.950 . S
C84 C81 1.390 . S
C84 H83 0.950 . S
C84 C85 1.378 . S
C85 C84 1.378 . S
C85 C86 1.409 . S
C86 C82 1.387 1_565 S
C86 C85 1.409 . S
C86 H88 0.951 . S
C87 C82 1.491 1_455 S
C87 C89 1.382 . S
C87 C91 1.404 1_455 S
H88 C86 0.951 . S
C89 C87 1.382 . S
C89 C90 1.390 . S
C89 H94 0.949 . S
C90 C89 1.390 . S
C90 C95 1.399 . S
C91 C87 1.404 1_655 S
C91 H92 0.950 . S
C91 C93 1.375 . S
H92 C91 0.950 . S
C93 C91 1.375 . S
C93 C95 1.382 1_655 S
C93 H97 0.950 . S
H94 C89 0.949 . S
C95 C90 1.399 . S
C95 C93 1.382 1_455 S
C95 H96 0.952 . S
H96 C95 0.952 . S
H97 C93 0.950 . S
H98 C99 0.949 . S
C99 H98 0.949 . S
C99 C100 1.395 . S
C99 C101 1.391 . S
C100 C99 1.395 . S
C100 C103 1.390 . S
C101 C99 1.391 . S
C101 C105 1.387 1_556 S
C101 C106 1.491 1_556 S
H102 C103 0.950 . S
C103 C100 1.390 . S
C103 H102 0.950 . S
C103 C104 1.378 . S
C104 C103 1.378 . S
C104 C105 1.409 1_556 S
C105 C101 1.387 1_554 S
C105 C104 1.409 1_554 S
C105 H107 0.951 . S
C106 C101 1.491 1_554 S
C106 C108 1.383 . S
C106 C110 1.404 . S
H107 C105 0.951 . S
C108 C106 1.383 . S
C108 C109 1.399 . S
C108 H113 0.938 1_554 S
C109 C108 1.399 . S
C109 C114 1.399 . S
C110 C106 1.404 . S
C110 H111 0.950 . S
C110 C112 1.375 . S
H111 C110 0.950 . S
C112 C110 1.375 . S
C112 C114 1.382 . S
C112 H116 0.950 . S
H113 C108 0.938 1_556 S
C114 C109 1.399 . S
C114 C112 1.382 . S
C114 H115 0.952 . S
H115 C114 0.952 . S
H116 C112 0.950 . S
H117 C118 0.949 . S
C118 H117 0.949 . S
C118 C119 1.395 . S
C118 C120 1.391 . S
C119 C118 1.395 . S
C119 C122 1.390 . S
C120 C118 1.391 . S
C120 C124 1.387 . S
C120 C125 1.491 1_554 S
H121 C122 0.950 . S
C122 C119 1.390 . S
C122 H121 0.950 . S
C122 C123 1.378 . S
C123 C122 1.378 . S
C123 C124 1.409 . S
C124 C120 1.387 . S
C124 C123 1.409 . S
C124 H126 0.951 1_554 S
C125 C120 1.491 1_556 S
C125 C127 1.382 1_556 S
C125 C129 1.404 . S
H126 C124 0.951 1_556 S
C127 C125 1.382 1_554 S
C127 C128 1.390 1_554 S
C127 H132 0.949 . S
C128 C127 1.390 1_556 S
C128 C133 1.399 . S
C129 C125 1.404 . S
C129 H130 0.950 . S
C129 C131 1.375 . S
H130 C129 0.950 . S
C131 C129 1.375 . S
C131 C133 1.382 . S
C131 H135 0.950 . S
H132 C127 0.949 . S
C133 C128 1.399 . S
C133 C131 1.382 . S
C133 H134 0.952 . S
H134 C133 0.952 . S
H135 C131 0.950 . S
C136 C137 1.369 1_556 S
C136 C138 1.419 . S
C136 H140 0.930 . S
C137 C136 1.369 1_554 S
C137 C146 1.429 . S
C138 C136 1.419 . S
C138 C139 1.363 1_556 S
C138 H141 0.929 . S
C139 C138 1.363 1_554 S
C139 C145 1.428 . S
H140 C136 0.930 . S
H141 C138 0.929 . S
S142 N143 1.613 . S
S142 N144 1.610 . S
N143 S142 1.613 . S
N143 C146 1.350 . S
N144 S142 1.610 . S
N144 C145 1.351 . S
C145 C139 1.428 . S
C145 N144 1.351 . S
C145 C146 1.434 . S
C146 C137 1.429 . S
C146 N143 1.350 . S
C146 C145 1.434 . S
C147 C148 1.369 . S
C147 C149 1.419 . S
C147 H151 0.930 . S
C148 C147 1.369 . S
C148 C157 1.429 . S
C149 C147 1.419 . S
C149 C150 1.363 . S
C149 H152 0.929 . S
C150 C149 1.363 . S
C150 C156 1.431 . S
H151 C147 0.930 . S
H152 C149 0.929 . S
S153 N154 1.613 . S
S153 N155 1.610 . S
N154 S153 1.613 . S
N154 C157 1.350 1_556 S
N155 S153 1.610 . S
N155 C156 1.346 1_556 S
C156 C150 1.431 . S
C156 N155 1.346 1_554 S
C156 C157 1.437 . S
C157 C148 1.429 . S
C157 N154 1.350 1_554 S
C157 C156 1.437 . S
C158 C159 1.369 . S
C158 C160 1.419 . S
C158 H162 0.930 . S
C159 C158 1.369 . S
C159 C168 1.429 . S
C160 C158 1.419 . S
C160 C161 1.363 . S
C160 H163 0.929 . S
C161 C160 1.363 . S
C161 C167 1.428 . S
H162 C158 0.930 . S
H163 C160 0.929 . S
S164 N165 1.613 . S
S164 N166 1.610 . S
N165 S164 1.613 . S
N165 C168 1.350 1_554 S
N166 S164 1.610 . S
N166 C167 1.351 1_554 S
C167 C161 1.428 . S
C167 N166 1.351 1_556 S
C167 C168 1.434 . S
C168 C159 1.429 . S
C168 N165 1.350 1_556 S
C168 C167 1.434 . S
C169 C170 1.369 . S
C169 C171 1.419 . S
C169 H173 0.930 . S
C170 C169 1.369 . S
C170 C179 1.429 1_556 S
C171 C169 1.419 . S
C171 C172 1.363 . S
C171 H174 0.929 . S
C172 C171 1.363 . S
C172 C178 1.428 1_556 S
H173 C169 0.930 . S
H174 C171 0.929 . S
S175 N176 1.613 . S
S175 N177 1.610 . S
N176 S175 1.613 . S
N176 C179 1.350 . S
N177 S175 1.610 . S
N177 C178 1.351 . S
C178 C172 1.428 1_554 S
C178 N177 1.351 . S
C178 C179 1.434 . S
C179 C170 1.429 1_554 S
C179 N176 1.350 . S
C179 C178 1.434 . S
C180 C181 1.369 . S
C180 C182 1.419 . S
C180 H184 0.930 . S
C181 C180 1.369 . S
C181 C190 1.429 . S
C182 C180 1.419 . S
C182 C183 1.363 . S
C182 H185 0.929 . S
C183 C182 1.363 . S
C183 C189 1.428 . S
H184 C180 0.930 . S
H185 C182 0.929 . S
S186 N187 1.613 . S
S186 N188 1.610 . S
N187 S186 1.613 . S
N187 C190 1.350 . S
N188 S186 1.610 . S
N188 C189 1.351 . S
C189 C183 1.428 . S
C189 N188 1.351 . S
C189 C190 1.434 . S
C190 C181 1.429 . S
C190 N187 1.350 . S
C190 C189 1.434 . S
C191 C192 1.369 . S
C191 C193 1.419 . S
C191 H195 0.930 . S
C192 C191 1.369 . S
C192 C201 1.429 . S
C193 C191 1.419 . S
C193 C194 1.363 . S
C193 H196 0.929 . S
C194 C193 1.363 . S
C194 C200 1.428 . S
H195 C191 0.930 . S
H196 C193 0.929 . S
S197 N198 1.613 . S
S197 N199 1.610 . S
N198 S197 1.613 . S
N198 C201 1.350 . S
N199 S197 1.610 . S
N199 C200 1.351 . S
C200 C194 1.428 . S
C200 N199 1.351 . S
C200 C201 1.434 . S
C201 C192 1.429 . S
C201 N198 1.350 . S
C201 C200 1.434 . S
C202 C203 1.369 . S
C202 C204 1.419 . S
C202 H206 0.930 . S
C203 C202 1.369 . S
C203 C212 1.429 . S
C204 C202 1.419 . S
C204 C205 1.363 . S
C204 H207 0.929 . S
C205 C204 1.363 . S
C205 C211 1.428 . S
H206 C202 0.930 . S
H207 C204 0.929 . S
S208 N209 1.613 . S
S208 N210 1.610 . S
N209 S208 1.613 . S
N209 C212 1.350 . S
N210 S208 1.610 . S
N210 C211 1.351 . S
C211 C205 1.428 . S
C211 N210 1.351 . S
C211 C212 1.434 . S
C212 C203 1.429 . S
C212 N209 1.350 . S
C212 C211 1.434 . S
C213 C214 1.369 . S
C213 C215 1.419 . S
C213 H217 0.930 . S
C214 C213 1.369 . S
C214 C223 1.429 . S
C215 C213 1.419 . S
C215 C216 1.363 . S
C215 H218 0.929 . S
C216 C215 1.363 . S
C216 C222 1.428 . S
H217 C213 0.930 . S
H218 C215 0.929 . S
S219 N220 1.613 . S
S219 N221 1.610 . S
N220 S219 1.613 . S
N220 C223 1.350 . S
N221 S219 1.610 . S
N221 C222 1.351 . S
C222 C216 1.428 . S
C222 N221 1.351 . S
C222 C223 1.434 . S
C223 C214 1.429 . S
C223 N220 1.350 . S
C223 C222 1.434 . S
C224 C225 1.369 1_565 S
C224 C226 1.419 . S
C224 H228 0.930 . S
C225 C224 1.369 1_545 S
C225 C234 1.429 . S
C226 C224 1.419 . S
C226 C227 1.363 . S
C226 H229 0.929 . S
C227 C226 1.363 . S
C227 C233 1.428 1_565 S
H228 C224 0.930 . S
H229 C226 0.929 . S
S230 N231 1.613 . S
S230 N232 1.610 . S
N231 S230 1.613 . S
N231 C234 1.350 . S
N232 S230 1.610 . S
N232 C233 1.351 . S
C233 C227 1.428 1_545 S
C233 N232 1.351 . S
C233 C234 1.434 . S
C234 C225 1.429 . S
C234 N231 1.350 . S
C234 C233 1.434 . S
C235 C236 1.369 1_665 S
C235 C237 1.419 . S
C235 H239 0.930 . S
C236 C235 1.369 1_445 S
C236 C245 1.429 . S
C237 C235 1.419 . S
C237 C238 1.363 . S
C237 H240 0.929 . S
C238 C237 1.363 . S
C238 C244 1.428 1_665 S
H239 C235 0.930 . S
H240 C237 0.929 . S
S241 N242 1.613 . S
S241 N243 1.610 . S
N242 S241 1.613 . S
N242 C245 1.350 . S
N243 S241 1.610 . S
N243 C244 1.351 . S
C244 C238 1.428 1_445 S
C244 N243 1.351 . S
C244 C245 1.434 . S
C245 C236 1.429 . S
C245 N242 1.350 . S
C245 C244 1.434 . S
C246 C247 1.369 . S
C246 C248 1.419 . S
C246 H250 0.930 . S
C247 C246 1.369 . S
C247 C256 1.429 . S
C248 C246 1.419 . S
C248 C249 1.363 . S
C248 H251 0.929 . S
C249 C248 1.363 . S
C249 C255 1.428 . S
H250 C246 0.930 . S
H251 C248 0.929 . S
S252 N253 1.613 . S
S252 N254 1.610 . S
N253 S252 1.613 . S
N253 C256 1.350 . S
N254 S252 1.610 . S
N254 C255 1.351 . S
C255 C249 1.428 . S
C255 N254 1.351 . S
C255 C256 1.434 . S
C256 C247 1.429 . S
C256 N253 1.350 . S
C256 C255 1.434 . S
C257 C258 1.369 . S
C257 C259 1.419 . S
C257 H261 0.930 . S
C258 C257 1.369 . S
C258 C267 1.429 . S
C259 C257 1.419 . S
C259 C260 1.363 . S
C259 H262 0.929 . S
C260 C259 1.363 . S
C260 C266 1.428 . S
H261 C257 0.930 . S
H262 C259 0.929 . S
S263 N264 1.613 . S
S263 N265 1.610 . S
N264 S263 1.613 . S
N264 C267 1.350 . S
N265 S263 1.610 . S
N265 C266 1.351 . S
C266 C260 1.428 . S
C266 N265 1.351 . S
C266 C267 1.434 . S
C267 C258 1.429 . S
C267 N264 1.350 . S
C267 C266 1.434 . S
C139 C123 1.515 . S
C137 C27 1.546 . S
C148 N6 1.435 . S
C150 C109 1.453 . S
C159 C16 1.505 . S
C161 C128 1.477 . S
C170 N14 1.491 . S
C172 C104 1.506 . S
C181 C57 1.546 . S
C183 C85 1.515 . S
C192 N36 1.429 . S
C194 C71 1.452 . S
C205 C90 1.474 . S
C203 C46 1.503 . S
C216 C66 1.504 . S
C214 N44 1.495 . S
C225 C10 1.530 . S
C227 C62 1.528 . S
C236 C1 1.571 . S
C238 C81 1.566 . S
C249 C100 1.527 . S
C247 C40 1.529 . S
C258 C31 1.571 . S
C260 C119 1.566 . S
