# Generated by pormake.
# Topology rtl, (3,6)-cn, num edge types: 1
# Building blocks:
#     Node 0, Type 0, BuildingBlock: ESEHIV_clean_linker_0, # of connection points: 3
#     Node 1, Type 0, BuildingBlock: ESEHIV_clean_linker_0, # of connection points: 3
#     Node 2, Type 0, BuildingBlock: ESEHIV_clean_linker_0, # of connection points: 3
#     Node 3, Type 0, BuildingBlock: ESEHIV_clean_linker_0, # of connection points: 3
#     Node 4, Type 1, BuildingBlock: KUMJIN_clean_sbu_1, # of connection points: 6
#     Node 5, Type 1, BuildingBlock: KUMJIN_clean_sbu_1, # of connection points: 6
#     Edge 6, Type (0, 1), BuildingBlock: ZUJKAS_clean_linker_0, # of connection points: 2
#     Edge 7, Type (0, 1), BuildingBlock: ZUJKAS_clean_linker_0, # of connection points: 2
#     Edge 8, Type (0, 1), BuildingBlock: ZUJKAS_clean_linker_0, # of connection points: 2
#     Edge 9, Type (0, 1), BuildingBlock: ZUJKAS_clean_linker_0, # of connection points: 2
#     Edge 10, Type (0, 1), BuildingBlock: ZUJKAS_clean_linker_0, # of connection points: 2
#     Edge 11, Type (0, 1), BuildingBlock: ZUJKAS_clean_linker_0, # of connection points: 2
#     Edge 12, Type (0, 1), BuildingBlock: ZUJKAS_clean_linker_0, # of connection points: 2
#     Edge 13, Type (0, 1), BuildingBlock: ZUJKAS_clean_linker_0, # of connection points: 2
#     Edge 14, Type (0, 1), BuildingBlock: ZUJKAS_clean_linker_0, # of connection points: 2
#     Edge 15, Type (0, 1), BuildingBlock: ZUJKAS_clean_linker_0, # of connection points: 2
#     Edge 16, Type (0, 1), BuildingBlock: ZUJKAS_clean_linker_0, # of connection points: 2
#     Edge 17, Type (0, 1), BuildingBlock: ZUJKAS_clean_linker_0, # of connection points: 2
# Relax obj value: 0.017
# Max RMSD: 0.099
# Mean RMSD: 0.059
data_MOF--net-rtl--node1-KUMJIN_clean_sbu_1--node2-ESEHIV_clean_linker_0--edge1-ZUJKAS_clean_linker_0
_symmetry_space_group_name_H-M    P1
_symmetry_Int_Tables_number       1
_symmetry_cell_setting            triclinic
loop_
_symmetry_equiv_pos_as_xyz
'x, y, z'
_cell_length_a     40.298622
_cell_length_b     40.899896
_cell_length_c     35.581286
_cell_angle_alpha  80.202239
_cell_angle_beta   99.65599
_cell_angle_gamma 90.647617
loop_
_atom_site_label
_atom_site_type_symbol
_atom_site_fract_x
_atom_site_fract_y
_atom_site_fract_z
_atom_type_partial_charge
H0 H 0.18216 0.89501 0.01691 0.0
H1 H 0.25838 0.83046 0.09186 0.0
H2 H 0.2451 0.83521 0.9686 0.0
C3 C 0.20305 0.87761 0.02087 0.0
C4 C 0.21228 0.86731 0.98834 0.0
C5 C 0.21933 0.86435 0.05846 0.0
C6 C 0.24532 0.84055 0.06312 0.0
C7 C 0.25479 0.82988 0.03084 0.0
C8 C 0.2382 0.84353 0.99362 0.0
H9 H 0.64578 0.64415 0.61468 0.0
H10 H 0.70333 0.71217 0.54654 0.0
H11 H 0.71079 0.71323 0.66844 0.0
C12 C 0.66353 0.6642 0.6125 0.0
C13 C 0.67657 0.67767 0.64567 0.0
C14 C 0.67333 0.6762 0.57668 0.0
C15 C 0.69645 0.70212 0.57432 0.0
C16 C 0.71033 0.71564 0.60718 0.0
C17 C 0.69993 0.70345 0.64274 0.0
H18 H 0.8426 0.11399 0.04807 0.0
H19 H 0.7871 0.17703 0.10138 0.0
H20 H 0.77149 0.18647 0.9775 0.0
C21 C 0.82404 0.13357 0.04548 0.0
C22 C 0.80757 0.14866 0.00867 0.0
C23 C 0.81701 0.14401 0.07898 0.0
C24 C 0.79305 0.16946 0.07548 0.0
C25 C 0.77622 0.18469 0.03904 0.0
C26 C 0.78358 0.17408 0.00578 0.0
H27 H 0.37831 0.35653 0.45744 0.0
H28 H 0.30977 0.29568 0.5178 0.0
H29 H 0.31562 0.28744 0.40027 0.0
C30 C 0.35949 0.33742 0.45795 0.0
C31 C 0.34886 0.3232 0.42464 0.0
C32 C 0.34569 0.32753 0.4918 0.0
C33 C 0.32085 0.30318 0.492 0.0
C34 C 0.30975 0.28868 0.45915 0.0
C35 C 0.32407 0.29861 0.42565 0.0
Eu36 Eu 0.03568 0.96511 0.51904 0.0
C37 C 0.95702 0.10046 0.48441 0.0
N38 N 0.98518 0.09238 0.51131 0.0
C39 C 0.00926 0.14481 0.49058 0.0
C40 C 0.95423 0.13108 0.4589 0.0
C41 C 0.01094 0.1141 0.51515 0.0
C42 C 0.98085 0.15329 0.46221 0.0
C43 C 0.90183 0.08524 0.45404 0.0
C44 C 0.9312 0.07763 0.4819 0.0
C45 C 0.89911 0.11559 0.42834 0.0
C46 C 0.92522 0.13844 0.43078 0.0
Eu47 Eu 0.98686 0.03934 0.54994 0.0
N48 N 0.9349 0.04798 0.50654 0.0
C49 C 0.87593 0.06218 0.45297 0.0
C50 C 0.90882 0.02644 0.50714 0.0
C51 C 0.87926 0.0329 0.48003 0.0
H52 H 0.03264 0.10786 0.53747 0.0
H53 H 0.85889 0.01543 0.4803 0.0
H54 H 0.99464 0.89546 0.54348 0.0
H55 H 0.16529 0.99876 0.57276 0.0
H56 H 0.91013 0.00461 0.5289 0.0
H57 H 0.85298 0.06709 0.432 0.0
H58 H 0.11189 0.00346 0.5275 0.0
H59 H 0.02984 0.16191 0.49355 0.0
H60 H 0.87683 0.12171 0.40658 0.0
H61 H 0.92271 0.16177 0.41078 0.0
H62 H 0.00299 0.84392 0.59196 0.0
H63 H 0.97967 0.17705 0.44311 0.0
H64 H 0.17588 0.95129 0.62671 0.0
N65 N 0.04238 0.91461 0.56291 0.0
C66 C 0.07217 0.90952 0.58765 0.0
C67 C 0.02259 0.86221 0.59115 0.0
C68 C 0.07801 0.88055 0.61586 0.0
C69 C 0.01782 0.89144 0.5639 0.0
C70 C 0.05275 0.85679 0.61736 0.0
N71 N 0.08989 0.96188 0.55826 0.0
C72 C 0.11493 0.98393 0.55223 0.0
C73 C 0.12732 0.92954 0.61138 0.0
C74 C 0.09639 0.93399 0.5856 0.0
C75 C 0.15184 0.95377 0.60746 0.0
C76 C 0.14585 0.98073 0.57725 0.0
H77 H 0.05627 0.83422 0.63863 0.0
H78 H 0.11333 0.85447 0.66402 0.0
H79 H 0.15659 0.89718 0.65991 0.0
O80 O 0.06568 0.96501 0.47321 0.0
O81 O 0.02912 0.96228 0.58176 0.0
O82 O 0.03334 0.01643 0.59009 0.0
O83 O 0.03566 0.92264 0.48921 0.0
O84 O 0.05334 0.01828 0.50339 0.0
O85 O 0.04316 0.04462 0.55293 0.0
O86 O 0.9563 0.0355 0.59573 0.0
O87 O 0.99092 0.04163 0.4866 0.0
O88 O 0.98904 0.98728 0.47841 0.0
O89 O 0.9859 0.07916 0.58364 0.0
O90 O 0.96651 0.98691 0.56292 0.0
O91 O 0.97961 0.95788 0.51654 0.0
C92 C 0.03791 0.98468 0.60366 0.0
C93 C 0.03997 0.93771 0.42327 0.0
C94 C 0.04877 0.93731 0.35717 0.0
C95 C 0.01414 0.94351 0.34412 0.0
C96 C 0.00537 0.94317 0.40975 0.0
C97 C 0.9926 0.94622 0.37035 0.0
C98 C 0.06156 0.93449 0.39694 0.0
C99 C 0.05916 0.04225 0.52412 0.0
C100 C 0.05379 0.93706 0.4644 0.0
C101 C 0.1085 0.87645 0.64199 0.0
C102 C 0.13307 0.90086 0.63976 0.0
C103 C 0.98291 0.01886 0.46501 0.0
C104 C 0.93511 0.08589 0.60657 0.0
C105 C 0.89832 0.1049 0.64678 0.0
C106 C 0.8804 0.12483 0.61358 0.0
C107 C 0.91694 0.10595 0.57388 0.0
C108 C 0.92572 0.08539 0.6429 0.0
C109 C 0.8897 0.12528 0.57742 0.0
C110 C 0.96163 0.96222 0.5431 0.0
C111 C 0.96362 0.06504 0.60333 0.0
H112 H 0.00362 0.94559 0.3137 0.0
H113 H 0.98827 0.94515 0.42967 0.0
H114 H 0.96592 0.95062 0.36012 0.0
H115 H 0.08831 0.93034 0.40729 0.0
H116 H 0.85951 0.1405 0.61561 0.0
H117 H 0.92382 0.10679 0.54571 0.0
H118 H 0.93958 0.06953 0.66803 0.0
H119 H 0.87585 0.1408 0.55208 0.0
Eu120 Eu 0.46994 0.48505 0.99351 0.0
C121 C 0.61428 0.53005 0.03518 0.0
N122 N 0.59912 0.50459 0.05522 0.0
C123 C 0.64633 0.46876 0.05723 0.0
C124 C 0.64543 0.52534 0.0236 0.0
C125 C 0.61569 0.47489 0.06851 0.0
C126 C 0.66093 0.4939 0.03392 0.0
C127 C 0.61601 0.58906 0.01085 0.0
C128 C 0.59985 0.56146 0.02884 0.0
C129 C 0.64607 0.58423 0.99729 0.0
C130 C 0.66072 0.55241 0.00357 0.0
Eu131 Eu 0.54547 0.51652 0.06925 0.0
N132 N 0.57046 0.5652 0.04159 0.0
C133 C 0.60179 0.62071 0.00778 0.0
C134 C 0.55734 0.59603 0.04059 0.0
C135 C 0.57261 0.62424 0.02328 0.0
H136 H 0.60549 0.45593 0.08816 0.0
H137 H 0.56177 0.64863 0.02169 0.0
H138 H 0.40078 0.51921 0.01113 0.0
H139 H 0.4975 0.35328 0.99804 0.0
H140 H 0.53463 0.59861 0.05234 0.0
H141 H 0.61346 0.64256 0.99419 0.0
H142 H 0.50117 0.41339 0.97557 0.0
H143 H 0.65889 0.44484 0.06703 0.0
H144 H 0.65862 0.60504 0.98282 0.0
H145 H 0.68443 0.54919 0.994 0.0
H146 H 0.352 0.50233 0.04388 0.0
H147 H 0.68485 0.48922 0.02558 0.0
H148 H 0.45642 0.33205 0.04039 0.0
N149 N 0.42186 0.4705 0.02203 0.0
C150 C 0.41804 0.43785 0.03553 0.0
C151 C 0.37051 0.48399 0.04194 0.0
C152 C 0.39099 0.4271 0.05474 0.0
C153 C 0.39797 0.49347 0.0234 0.0
C154 C 0.3673 0.45073 0.05825 0.0
N155 N 0.46526 0.42648 0.00831 0.0
C156 C 0.48421 0.40463 0.99541 0.0
C157 C 0.43698 0.38095 0.04154 0.0
C158 C 0.44079 0.4152 0.02904 0.0
C159 C 0.45849 0.35856 0.03135 0.0
C160 C 0.48174 0.37044 0.0075 0.0
H161 H 0.34613 0.44347 0.0728 0.0
H162 H 0.36785 0.38444 0.08446 0.0
H163 H 0.40813 0.34398 0.07287 0.0
O164 O 0.44443 0.46665 0.94118 0.0
O165 O 0.46464 0.48607 0.05611 0.0
O166 O 0.51706 0.47039 0.08891 0.0
O167 O 0.44187 0.51923 0.94555 0.0
O168 O 0.52259 0.4632 0.99848 0.0
O169 O 0.54526 0.46202 0.06265 0.0
O170 O 0.53571 0.53899 0.11782 0.0
O171 O 0.53213 0.54331 0.00676 0.0
O172 O 0.51857 0.50121 0.9726 0.0
O173 O 0.58359 0.5149 0.12122 0.0
O174 O 0.49505 0.54284 0.06262 0.0
O175 O 0.46572 0.53881 1.00138 0.0
C176 C 0.48429 0.47006 0.08665 0.0
C177 C 0.41148 0.50402 0.88663 0.0
C178 C 0.39317 0.49363 0.82067 0.0
C179 C 0.37125 0.52137 0.81362 0.0
C180 C 0.38958 0.53171 0.87867 0.0
C181 C 0.36947 0.54015 0.84245 0.0
C182 C 0.41297 0.48476 0.85765 0.0
C183 C 0.54308 0.45011 0.0302 0.0
C184 C 0.43313 0.49623 0.92488 0.0
C185 C 0.38816 0.39319 0.06909 0.0
C186 C 0.41115 0.37016 0.06256 0.0
C187 C 0.5328 0.52978 0.976 0.0
C188 C 0.56197 0.51284 0.17921 0.0
C189 C 0.56625 0.51593 0.24776 0.0
C190 C 0.55428 0.48335 0.25429 0.0
C191 C 0.55048 0.48025 0.18635 0.0
C192 C 0.56998 0.53053 0.20994 0.0
C193 C 0.54655 0.46565 0.22373 0.0
C194 C 0.4718 0.5533 0.03224 0.0
C195 C 0.56421 0.52914 0.13965 0.0
H196 H 0.35521 0.52843 0.7858 0.0
H197 H 0.38789 0.54682 0.90054 0.0
H198 H 0.35251 0.56143 0.83666 0.0
H199 H 0.4302 0.46365 0.86346 0.0
H200 H 0.55138 0.47138 0.28311 0.0
H201 H 0.54444 0.46623 0.16301 0.0
H202 H 0.57851 0.55585 0.20424 0.0
H203 H 0.53752 0.44053 0.22903 0.0
H204 H 0.25073 0.29179 0.48648 0.0
H205 H 0.20844 0.24876 0.49311 0.0
H206 H 0.26521 0.18575 0.44051 0.0
H207 H 0.30801 0.22868 0.43423 0.0
H208 H 0.16908 0.21604 0.43501 0.0
H209 H 0.25389 0.12978 0.54729 0.0
H210 H 0.26282 0.17326 0.53472 0.0
H211 H 0.26959 0.14496 0.50323 0.0
C212 C 0.25424 0.26876 0.47635 0.0
C213 C 0.28288 0.26347 0.4602 0.0
C214 C 0.22997 0.24429 0.47996 0.0
C215 C 0.23391 0.21394 0.46776 0.0
C216 C 0.26193 0.20888 0.45054 0.0
H217 H 0.08309 0.05874 0.45605 0.0
H218 H 0.12557 0.10003 0.44087 0.0
C219 C 0.28619 0.23348 0.4467 0.0
C220 C 0.20901 0.18745 0.47413 0.0
H221 H 0.19905 0.11138 0.52763 0.0
C222 C 0.17563 0.19305 0.45503 0.0
C223 C 0.21761 0.15769 0.50068 0.0
C224 C 0.25283 0.15097 0.52297 0.0
C225 C 0.15059 0.16962 0.46178 0.0
C226 C 0.15925 0.13982 0.48816 0.0
C227 C 0.1926 0.1342 0.50725 0.0
C228 C 0.13375 0.11464 0.49729 0.0
C229 C 0.11486 0.17718 0.44145 0.0
C230 C 0.12469 0.10888 0.53421 0.0
C231 C 0.10042 0.08539 0.54295 0.0
C232 C 0.08498 0.06704 0.51498 0.0
C233 C 0.09451 0.07252 0.47819 0.0
C234 C 0.11862 0.09618 0.46939 0.0
H235 H 0.11121 0.20357 0.42727 0.0
H236 H 0.1085 0.16137 0.41889 0.0
H237 H 0.09699 0.17145 0.46219 0.0
H238 H 0.13622 0.12279 0.55617 0.0
H239 H 0.09387 0.08149 0.57167 0.0
H240 H 0.30497 0.82709 0.98821 0.0
H241 H 0.34329 0.78049 0.99109 0.0
H242 H 0.30275 0.72654 0.0878 0.0
H243 H 0.26336 0.77252 0.08414 0.0
H244 H 0.39251 0.74856 0.04843 0.0
H245 H 0.28923 0.66301 0.00988 0.0
H246 H 0.28245 0.70713 0.00548 0.0
H247 H 0.28606 0.6808 0.05196 0.0
C248 C 0.30413 0.80527 0.01004 0.0
C249 C 0.28079 0.80333 0.03562 0.0
C250 C 0.32619 0.77877 0.0118 0.0
C251 C 0.32537 0.74983 0.03914 0.0
C252 C 0.30328 0.7484 0.06595 0.0
H253 H 0.47357 0.58841 0.09155 0.0
H254 H 0.43868 0.63626 0.09341 0.0
C255 C 0.28109 0.77487 0.06412 0.0
C256 C 0.34702 0.72089 0.03875 0.0
H257 H 0.34439 0.63986 0.02645 0.0
C258 C 0.38204 0.72477 0.04367 0.0
C259 C 0.3332 0.69007 0.03183 0.0
C260 C 0.29567 0.68496 0.02411 0.0
C261 C 0.40369 0.69852 0.04223 0.0
C262 C 0.38992 0.66743 0.03644 0.0
C263 C 0.35488 0.66365 0.03119 0.0
C264 C 0.41133 0.63855 0.03521 0.0
C265 C 0.44103 0.70456 0.04602 0.0
C266 C 0.40695 0.62341 1.00221 0.0
C267 C 0.42664 0.5958 1.00112 0.0
C268 C 0.45105 0.58273 0.03313 0.0
C269 C 0.45521 0.5979 0.06625 0.0
C270 C 0.43542 0.62543 0.06732 0.0
H271 H 0.44648 0.73144 0.0397 0.0
H272 H 0.4533 0.69486 0.07612 0.0
H273 H 0.4525 0.6916 0.02621 0.0
H274 H 0.38834 0.63307 0.97719 0.0
H275 H 0.42265 0.58473 0.97519 0.0
H276 H 0.76179 0.71987 0.56528 0.0
H277 H 0.80236 0.76423 0.55727 0.0
H278 H 0.75916 0.81498 0.63469 0.0
H279 H 0.71754 0.77109 0.64207 0.0
H280 H 0.78208 0.83815 0.53184 0.0
H281 H 0.86648 0.80504 0.67427 0.0
H282 H 0.84052 0.77461 0.65257 0.0
H283 H 0.82157 0.80534 0.67299 0.0
C284 C 0.7606 0.74057 0.58039 0.0
C285 C 0.73611 0.74199 0.60407 0.0
C286 C 0.78399 0.76578 0.57595 0.0
C287 C 0.78375 0.79276 0.59544 0.0
C288 C 0.75985 0.79417 0.61964 0.0
H289 H 0.92404 0.95724 0.60125 0.0
H290 H 0.87923 0.9181 0.6137 0.0
C291 C 0.7362 0.769 0.62393 0.0
C292 C 0.80807 0.81976 0.58937 0.0
H293 H 0.88151 0.85078 0.63107 0.0
C294 C 0.80376 0.84109 0.55355 0.0
C295 C 0.83608 0.82357 0.6179 0.0
C296 C 0.84178 0.80095 0.65665 0.0
C297 C 0.82693 0.8661 0.54534 0.0
C298 C 0.8557 0.86921 0.57335 0.0
C299 C 0.85956 0.84829 0.60955 0.0
C300 C 0.88251 0.89338 0.56529 0.0
C301 C 0.82011 0.88918 0.5069 0.0
C302 C 0.8995 0.89233 0.53413 0.0
C303 C 0.92492 0.91485 0.52669 0.0
C304 C 0.9343 0.93859 0.55067 0.0
C305 C 0.91743 0.93938 0.5821 0.0
C306 C 0.89185 0.91696 0.58936 0.0
H307 H 0.79287 0.89042 0.49442 0.0
H308 H 0.82875 0.91466 0.5097 0.0
H309 H 0.83381 0.87981 0.4862 0.0
H310 H 0.89332 0.87387 0.51568 0.0
H311 H 0.93729 0.91351 0.50221 0.0
H312 H 0.78151 0.23649 0.07905 0.0
H313 H 0.74 0.28055 0.07527 0.0
H314 H 0.6739 0.23972 0.98715 0.0
H315 H 0.7149 0.19488 0.99157 0.0
H316 H 0.71281 0.32802 0.01164 0.0
H317 H 0.61384 0.2476 0.068 0.0
H318 H 0.65684 0.23345 0.07263 0.0
H319 H 0.62874 0.23567 0.02735 0.0
C320 C 0.75798 0.23664 0.05916 0.0
C321 C 0.75136 0.212 0.03585 0.0
C322 C 0.73441 0.26197 0.05685 0.0
C323 C 0.70372 0.26311 0.03133 0.0
C324 C 0.69722 0.23894 0.0075 0.0
H325 H 0.56606 0.43429 0.96761 0.0
H326 H 0.60418 0.38839 0.96637 0.0
C327 C 0.7208 0.21356 0.00978 0.0
C328 C 0.67875 0.28985 0.02958 0.0
H329 H 0.59948 0.30437 0.04573 0.0
C330 C 0.68799 0.32289 0.019 0.0
C331 C 0.64658 0.28302 0.03966 0.0
C332 C 0.63588 0.24805 0.05289 0.0
C333 C 0.66585 0.34936 0.0181 0.0
C334 C 0.63346 0.34249 0.02749 0.0
C335 C 0.62425 0.30947 0.03821 0.0
C336 C 0.60921 0.36935 0.02768 0.0
C337 C 0.67761 0.38444 0.00804 0.0
C338 C 0.59861 0.37315 0.06231 0.0
C339 C 0.57666 0.39912 0.06303 0.0
C340 C 0.56491 0.42168 0.02908 0.0
C341 C 0.57481 0.41729 0.99421 0.0
C342 C 0.59676 0.39129 0.99352 0.0
H343 H 0.70544 0.38554 0.01052 0.0
H344 H 0.66637 0.39477 0.97775 0.0
H345 H 0.66946 0.40049 0.02714 0.0
H346 H 0.60779 0.35632 0.08893 0.0
H347 H 0.56909 0.40173 0.0902 0.0
H348 H 0.19972 0.92628 0.06718 0.0
H349 H 0.17552 0.94119 0.12075 0.0
H350 H 0.18947 0.84036 0.18107 0.0
H351 H 0.21259 0.8248 0.12715 0.0
H352 H 0.11521 0.90166 0.14854 0.0
H353 H 0.22883 0.90665 0.26054 0.0
H354 H 0.23066 0.91457 0.20936 0.0
H355 H 0.22573 0.87303 0.23336 0.0
C356 C 0.19767 0.90722 0.09181 0.0
C357 C 0.20793 0.87426 0.09268 0.0
C358 C 0.18409 0.91588 0.12249 0.0
C359 C 0.18098 0.8919 0.15482 0.0
C360 C 0.19212 0.85926 0.15649 0.0
H361 H 0.09544 0.88805 0.36299 0.0
H362 H 0.12859 0.87843 0.31398 0.0
C363 C 0.20545 0.85048 0.12568 0.0
C364 C 0.16348 0.90031 0.1853 0.0
H365 H 0.17592 0.91327 0.27883 0.0
C366 C 0.1284 0.90441 0.17699 0.0
C367 C 0.1809 0.90343 0.22235 0.0
C368 C 0.21866 0.89937 0.2322 0.0
C369 C 0.11004 0.91106 0.20509 0.0
C370 C 0.12744 0.91475 0.24215 0.0
C371 C 0.16265 0.91065 0.25038 0.0
C372 C 0.10936 0.92207 0.2729 0.0
C373 C 0.07211 0.91295 0.19512 0.0
C374 C 0.08835 0.95032 0.26657 0.0
C375 C 0.06916 0.95563 0.29429 0.0
C376 C 0.07116 0.93315 0.3292 0.0
C377 C 0.0935 0.90581 0.33637 0.0
C378 C 0.11238 0.90028 0.30839 0.0
H379 H 0.06262 0.90026 0.17029 0.0
H380 H 0.06031 0.90159 0.22018 0.0
H381 H 0.06385 0.93936 0.18685 0.0
H382 H 0.08638 0.968 0.23989 0.0
H383 H 0.05255 0.97721 0.28834 0.0
H384 H 0.65838 0.71252 0.6986 0.0
H385 H 0.63774 0.6903 0.75882 0.0
H386 H 0.64901 0.59077 0.73721 0.0
H387 H 0.67018 0.61268 0.6776 0.0
H388 H 0.58023 0.65054 0.76486 0.0
H389 H 0.69551 0.58516 0.85021 0.0
H390 H 0.69636 0.61646 0.80793 0.0
H391 H 0.68413 0.57484 0.80269 0.0
C392 C 0.65697 0.68589 0.70705 0.0
C393 C 0.66586 0.66436 0.6833 0.0
C394 C 0.64503 0.67325 0.74133 0.0
C395 C 0.64221 0.63887 0.75272 0.0
C396 C 0.6515 0.61735 0.72933 0.0
H397 H 0.56134 0.502 0.92453 0.0
H398 H 0.58834 0.53046 0.87159 0.0
C399 C 0.66326 0.62993 0.69505 0.0
C400 C 0.62778 0.6254 0.78782 0.0
H401 H 0.64411 0.57177 0.87378 0.0
C402 C 0.59428 0.63363 0.78892 0.0
C403 C 0.64616 0.60327 0.81909 0.0
C404 C 0.68264 0.5946 0.82023 0.0
C405 C 0.57823 0.61934 0.81976 0.0
C406 C 0.59643 0.5967 0.8507 0.0
C407 C 0.63017 0.58904 0.84999 0.0
C408 C 0.58053 0.57975 0.88334 0.0
C409 C 0.54156 0.6276 0.81819 0.0
C410 C 0.56743 0.59798 0.90775 0.0
C411 C 0.55171 0.58177 0.93775 0.0
C412 C 0.54929 0.54704 0.94427 0.0
C413 C 0.5627 0.52882 0.92006 0.0
C414 C 0.57831 0.54502 0.88999 0.0
H415 H 0.52928 0.63894 0.78857 0.0
H416 H 0.52757 0.60506 0.82793 0.0
H417 H 0.53949 0.64563 0.83775 0.0
H418 H 0.56931 0.62474 0.90356 0.0
H419 H 0.5411 0.59644 0.95556 0.0
H420 H 0.82679 0.07798 0.10914 0.0
H421 H 0.85341 0.05341 0.17499 0.0
H422 H 0.87478 0.15138 0.20144 0.0
H423 H 0.84762 0.17593 0.13622 0.0
H424 H 0.91649 0.05658 0.21462 0.0
H425 H 0.82657 0.11228 0.28845 0.0
H426 H 0.81904 0.11281 0.23691 0.0
H427 H 0.84584 0.14314 0.25732 0.0
C428 C 0.8373 0.09418 0.12906 0.0
C429 C 0.83482 0.12883 0.11783 0.0
C430 C 0.85239 0.08017 0.16663 0.0
C431 C 0.86531 0.10059 0.19343 0.0
C432 C 0.864 0.13516 0.18168 0.0
H433 H 0.98485 0.07922 0.41939 0.0
H434 H 0.95487 0.09703 0.35341 0.0
C435 C 0.84864 0.14915 0.14438 0.0
C436 C 0.88052 0.08595 0.23361 0.0
H437 H 0.87783 0.0897 0.32827 0.0
C438 C 0.90778 0.0635 0.23947 0.0
C439 C 0.86892 0.09477 0.26605 0.0
C440 C 0.83826 0.11679 0.26192 0.0
C441 C 0.92457 0.0507 0.27688 0.0
C442 C 0.91379 0.06069 0.30902 0.0
C443 C 0.8861 0.08242 0.30334 0.0
C444 C 0.93163 0.04964 0.34882 0.0
C445 C 0.95428 0.02728 0.28198 0.0
C446 C 0.92795 0.01727 0.36805 0.0
C447 C 0.94463 0.00718 0.40594 0.0
C448 C 0.96543 0.02925 0.42493 0.0
C449 C 0.9689 0.06171 0.40553 0.0
C450 C 0.95195 0.07188 0.36785 0.0
H451 H 0.96164 0.0246 0.25393 0.0
H452 H 0.97622 0.03619 0.30064 0.0
H453 H 0.94788 0.00243 0.29671 0.0
H454 H 0.91195 0.99996 0.35386 0.0
H455 H 0.9408 0.98231 0.42055 0.0
H456 H 0.35799 0.29751 0.56794 0.0
H457 H 0.37021 0.32421 0.6252 0.0
H458 H 0.37038 0.41967 0.55189 0.0
H459 H 0.35699 0.39338 0.49451 0.0
H460 H 0.42311 0.36492 0.651 0.0
H461 H 0.29985 0.43179 0.61913 0.0
H462 H 0.30853 0.3983 0.5949 0.0
H463 H 0.32362 0.43925 0.58021 0.0
C464 C 0.36048 0.32422 0.56398 0.0
C465 C 0.35612 0.34335 0.52659 0.0
C466 C 0.36772 0.33939 0.59675 0.0
C467 C 0.37063 0.37396 0.5928 0.0
C468 C 0.36765 0.39299 0.55558 0.0
H469 H 0.39597 0.51824 0.74508 0.0
H470 H 0.39322 0.48757 0.69148 0.0
C471 C 0.36035 0.37787 0.5228 0.0
C472 C 0.3757 0.39024 0.62751 0.0
H473 H 0.33982 0.44629 0.67023 0.0
C474 C 0.40488 0.38262 0.65536 0.0
C475 C 0.35171 0.4131 0.63326 0.0
C476 C 0.31901 0.42092 0.60552 0.0
C477 C 0.41116 0.39804 0.68825 0.0
C478 C 0.38743 0.42134 0.69355 0.0
C479 C 0.35808 0.42857 0.66596 0.0
C480 C 0.39254 0.43917 0.72702 0.0
C481 C 0.44348 0.38997 0.71654 0.0
C482 C 0.3935 0.42209 0.76497 0.0
C483 C 0.39496 0.43963 0.79579 0.0
C484 C 0.39514 0.47453 0.78905 0.0
C485 C 0.39528 0.49139 0.75115 0.0
C486 C 0.39387 0.47391 0.7205 0.0
H487 H 0.46224 0.37734 0.70407 0.0
H488 H 0.45474 0.41284 0.72575 0.0
H489 H 0.43803 0.3732 0.74267 0.0
H490 H 0.39193 0.3953 0.77056 0.0
H491 H 0.39454 0.42596 0.82458 0.0
H492 H 0.60894 0.65589 0.5538 0.0
H493 H 0.58786 0.62998 0.49743 0.0
H494 H 0.68593 0.63757 0.46386 0.0
H495 H 0.70756 0.66258 0.52061 0.0
H496 H 0.62607 0.66077 0.4026 0.0
H497 H 0.61614 0.53338 0.48481 0.0
H498 H 0.59807 0.56705 0.50171 0.0
H499 H 0.64282 0.56431 0.50447 0.0
C500 C 0.62615 0.65175 0.53469 0.0
C501 C 0.66001 0.66126 0.54188 0.0
C502 C 0.614 0.63708 0.50241 0.0
C503 C 0.63543 0.63172 0.47672 0.0
C504 C 0.66902 0.64158 0.48339 0.0
H505 H 0.62202 0.55299 0.26393 0.0
H506 H 0.63715 0.58236 0.3186 0.0
C507 C 0.68126 0.65604 0.51574 0.0
C508 C 0.62296 0.61567 0.44289 0.0
H509 H 0.59864 0.54119 0.41734 0.0
C510 C 0.61998 0.63464 0.40571 0.0
C511 C 0.61488 0.58168 0.44722 0.0
C512 C 0.61825 0.5602 0.48663 0.0
C513 C 0.60897 0.6205 0.37256 0.0
C514 C 0.6017 0.58623 0.37679 0.0
C515 C 0.60427 0.56741 0.4141 0.0
C516 C 0.59208 0.56918 0.34297 0.0
C517 C 0.60472 0.64255 0.33344 0.0
C518 C 0.56216 0.55121 0.33898 0.0
C519 C 0.55366 0.53406 0.30799 0.0
C520 C 0.57493 0.53457 0.28035 0.0
C521 C 0.60486 0.5526 0.28439 0.0
C522 C 0.61347 0.5695 0.31556 0.0
H523 H 0.6009 0.66896 0.33573 0.0
H524 H 0.62783 0.64086 0.3207 0.0
H525 H 0.58302 0.63489 0.31338 0.0
H526 H 0.54533 0.55048 0.35987 0.0
H527 H 0.53031 0.5206 0.30549 0.0
H528 H 0.87025 0.13751 0.99293 0.0
H529 H 0.88466 0.12591 0.93228 0.0
H530 H 0.77921 0.12658 0.88332 0.0
H531 H 0.76459 0.1382 0.94385 0.0
H532 H 0.86672 0.0743 0.88994 0.0
H533 H 0.81818 0.19663 0.80679 0.0
H534 H 0.825 0.18762 0.85897 0.0
H535 H 0.78809 0.17285 0.8314 0.0
C536 C 0.85012 0.13474 0.96943 0.0
C537 C 0.81628 0.13904 0.97305 0.0
C538 C 0.8584 0.12824 0.93476 0.0
C539 C 0.83303 0.126 0.90311 0.0
C540 C 0.7992 0.12898 0.90712 0.0
H541 H 0.83484 0.10464 0.66481 0.0
H542 H 0.81903 0.10747 0.72765 0.0
C543 C 0.79089 0.13559 0.9417 0.0
C544 C 0.84201 0.12138 0.86562 0.0
H545 H 0.83586 0.15826 0.77107 0.0
C546 C 0.86004 0.09264 0.86393 0.0
C547 C 0.83332 0.14543 0.83179 0.0
C548 C 0.81535 0.17752 0.83222 0.0
C549 C 0.86919 0.08708 0.82911 0.0
C550 C 0.86046 0.11114 0.79532 0.0
C551 C 0.84237 0.13981 0.79701 0.0
C552 C 0.87027 0.10748 0.75792 0.0
C553 C 0.88762 0.0553 0.8286 0.0
C554 C 0.90434 0.10668 0.75412 0.0
C555 C 0.91347 0.10529 0.7182 0.0
C556 C 0.88867 0.10488 0.68534 0.0
C557 C 0.85455 0.10536 0.68941 0.0
C558 C 0.84547 0.10677 0.72532 0.0
H559 H 0.88479 0.03601 0.85386 0.0
H560 H 0.87836 0.04535 0.80165 0.0
H561 H 0.91484 0.06034 0.8297 0.0
H562 H 0.92387 0.10795 0.77874 0.0
H563 H 0.93994 0.10549 0.71596 0.0
H564 H 0.41444 0.33783 0.41786 0.0
H565 H 0.43676 0.36095 0.35931 0.0
H566 H 0.33806 0.3579 0.29114 0.0
H567 H 0.31531 0.33526 0.34966 0.0
H568 H 0.39227 0.33454 0.25817 0.0
H569 H 0.41708 0.45775 0.30213 0.0
H570 H 0.43505 0.42294 0.33729 0.0
H571 H 0.39009 0.42783 0.32483 0.0
C572 C 0.39739 0.34222 0.39047 0.0
C573 C 0.36297 0.33494 0.3886 0.0
C574 C 0.41023 0.35537 0.35702 0.0
C575 C 0.38897 0.36159 0.32097 0.0
C576 C 0.35488 0.35336 0.31871 0.0
H577 H 0.42611 0.48624 0.10922 0.0
H578 H 0.40194 0.45856 0.16485 0.0
C579 C 0.34196 0.34026 0.35219 0.0
C580 C 0.40219 0.37738 0.28582 0.0
H581 H 0.43716 0.44867 0.24582 0.0
C582 C 0.40206 0.35949 0.25542 0.0
C583 C 0.41457 0.41009 0.28211 0.0
C584 C 0.41402 0.43098 0.31313 0.0
C585 C 0.4146 0.37328 0.2217 0.0
C586 C 0.42769 0.40566 0.21848 0.0
C587 C 0.42731 0.42374 0.24856 0.0
C588 C 0.44171 0.4214 0.18397 0.0
C589 C 0.41346 0.35338 0.1895 0.0
C590 C 0.47211 0.4097 0.1764 0.0
C591 C 0.48592 0.42546 0.14463 0.0
C592 C 0.46952 0.45313 0.11991 0.0
C593 C 0.43904 0.4647 0.12749 0.0
C594 C 0.42532 0.44904 0.15934 0.0
H595 H 0.39716 0.33139 0.19339 0.0
H596 H 0.40405 0.36904 0.16107 0.0
H597 H 0.43928 0.34461 0.18885 0.0
H598 H 0.48535 0.38864 0.19535 0.0
H599 H 0.50941 0.41598 0.13937 0.0
H600 H 0.19343 0.93171 0.9575 0.0
H601 H 0.1634 0.95313 0.89213 0.0
H602 H 0.1605 0.85437 0.86475 0.0
H603 H 0.18991 0.8326 0.93006 0.0
H604 H 0.18786 0.92644 0.81152 0.0
H605 H 0.05817 0.91185 0.84676 0.0
H606 H 0.09252 0.92342 0.88132 0.0
H607 H 0.09119 0.88222 0.87044 0.0
C608 C 0.18619 0.91454 0.93763 0.0
C609 C 0.19413 0.88049 0.94887 0.0
C610 C 0.16926 0.92683 0.90035 0.0
C611 C 0.15994 0.90525 0.87389 0.0
C612 C 0.16771 0.87132 0.8849 0.0
H613 H 0.03492 0.9243 0.64903 0.0
H614 H 0.06587 0.90544 0.71431 0.0
C615 C 0.18463 0.85901 0.9221 0.0
C616 C 0.14189 0.91799 0.83463 0.0
H617 H 0.06302 0.93191 0.78188 0.0
C618 C 0.16059 0.92785 0.80491 0.0
C619 C 0.10641 0.91937 0.82642 0.0
C620 C 0.08562 0.90871 0.85775 0.0
C621 C 0.14451 0.93898 0.76676 0.0
C622 C 0.10892 0.94067 0.75853 0.0
C623 C 0.0903 0.9307 0.78838 0.0
C624 C 0.09049 0.95222 0.71898 0.0
C625 C 0.16567 0.94811 0.73545 0.0
C626 C 0.09385 0.98486 0.70023 0.0
C627 C 0.07641 0.99561 0.66284 0.0
C628 C 0.0553 0.97386 0.64369 0.0
C629 C 0.05147 0.9414 0.66286 0.0
C630 C 0.06895 0.93067 0.70019 0.0
H631 H 0.19167 0.93765 0.74456 0.0
H632 H 0.15415 0.93922 0.7085 0.0
H633 H 0.16735 0.97553 0.72874 0.0
H634 H 0.10992 0.00203 0.71456 0.0
H635 H 0.07981 0.02077 0.64876 0.0
loop_
_geom_bond_atom_site_label_1
_geom_bond_atom_site_label_2
_geom_bond_distance
_geom_bond_site_symmetry_2
_ccdc_geom_bond_type
H0 C3 0.931 . S
H1 C6 0.928 . S
H2 C8 0.930 . S
C3 H0 0.931 . S
C3 C4 1.413 1_554 S
C3 C5 1.360 . S
C4 C3 1.413 1_556 S
C4 C8 1.429 . S
C5 C3 1.360 . S
C5 C6 1.372 . S
C6 H1 0.928 . S
C6 C5 1.372 . S
C6 C7 1.404 . S
C7 C6 1.404 . S
C7 C8 1.391 1_554 S
C8 H2 0.930 . S
C8 C4 1.429 . S
C8 C7 1.391 1_556 S
H9 C12 0.931 . S
H10 C15 0.928 . S
H11 C17 0.930 . S
C12 H9 0.931 . S
C12 C13 1.413 . S
C12 C14 1.360 . S
C13 C12 1.413 . S
C13 C17 1.429 . S
C14 C12 1.360 . S
C14 C15 1.372 . S
C15 H10 0.928 . S
C15 C14 1.372 . S
C15 C16 1.404 . S
C16 C15 1.404 . S
C16 C17 1.391 . S
C17 H11 0.930 . S
C17 C13 1.429 . S
C17 C16 1.391 . S
H18 C21 0.931 . S
H19 C24 0.928 . S
H20 C26 0.930 1_556 S
C21 H18 0.931 . S
C21 C22 1.413 . S
C21 C23 1.360 . S
C22 C21 1.413 . S
C22 C26 1.429 . S
C23 C21 1.360 . S
C23 C24 1.372 . S
C24 H19 0.928 . S
C24 C23 1.372 . S
C24 C25 1.404 . S
C25 C24 1.404 . S
C25 C26 1.391 . S
C26 H20 0.930 1_554 S
C26 C22 1.429 . S
C26 C25 1.391 . S
H27 C30 0.931 . S
H28 C33 0.928 . S
H29 C35 0.930 . S
C30 H27 0.931 . S
C30 C31 1.413 . S
C30 C32 1.360 . S
C31 C30 1.413 . S
C31 C35 1.429 . S
C32 C30 1.360 . S
C32 C33 1.372 . S
C33 H28 0.928 . S
C33 C32 1.372 . S
C33 C34 1.404 . S
C34 C33 1.404 . S
C34 C35 1.391 . S
C35 H29 0.930 . S
C35 C31 1.429 . S
C35 C34 1.391 . S
Eu36 N65 2.600 . S
Eu36 N71 2.562 . S
Eu36 O80 2.462 . S
Eu36 O81 2.373 . S
Eu36 O83 2.432 . S
Eu36 O84 2.291 1_565 S
Eu36 O88 2.335 1_455 S
Eu36 O91 2.372 1_455 S
Eu36 C100 2.787 . S
C37 N38 1.365 . S
C37 C40 1.405 . S
C37 C44 1.448 . S
N38 C37 1.365 . S
N38 C41 1.296 1_655 S
N38 Eu47 2.600 . S
C39 C41 1.398 1_655 S
C39 C42 1.367 . S
C39 H59 0.931 1_655 S
C40 C37 1.405 . S
C40 C42 1.403 . S
C40 C46 1.439 . S
C41 N38 1.296 1_455 S
C41 C39 1.398 1_455 S
C41 H52 0.953 . S
C42 C39 1.367 . S
C42 C40 1.403 . S
C42 H63 0.929 . S
C43 C44 1.430 . S
C43 C45 1.387 . S
C43 C49 1.404 . S
C44 C37 1.448 . S
C44 C43 1.430 . S
C44 N48 1.351 . S
C45 C43 1.387 . S
C45 C46 1.374 . S
C45 H60 0.931 . S
C46 C40 1.439 . S
C46 C45 1.374 . S
C46 H61 0.931 . S
Eu47 N38 2.600 . S
Eu47 N48 2.562 . S
Eu47 O82 2.335 1_655 S
Eu47 O85 2.372 1_655 S
Eu47 O86 2.462 . S
Eu47 O87 2.373 . S
Eu47 O89 2.432 . S
Eu47 O90 2.291 1_545 S
Eu47 C111 2.787 . S
N48 C44 1.351 . S
N48 Eu47 2.562 . S
N48 C50 1.325 . S
C49 C43 1.404 . S
C49 C51 1.366 . S
C49 H57 0.930 . S
C50 N48 1.325 . S
C50 C51 1.416 . S
C50 H56 0.929 . S
C51 C49 1.366 . S
C51 C50 1.416 . S
C51 H53 0.930 . S
H52 C41 0.953 . S
H53 C51 0.930 . S
H54 C69 0.930 1_655 S
H55 C76 0.930 . S
H56 C50 0.929 . S
H57 C49 0.930 . S
H58 C72 0.929 . S
H59 C39 0.931 1_455 S
H60 C45 0.931 . S
H61 C46 0.931 . S
H62 C67 0.931 1_655 S
H63 C42 0.929 . S
H64 C75 0.930 . S
N65 Eu36 2.600 . S
N65 C66 1.365 . S
N65 C69 1.319 . S
C66 N65 1.365 . S
C66 C68 1.405 . S
C66 C74 1.448 . S
C67 H62 0.931 1_455 S
C67 C69 1.397 . S
C67 C70 1.367 . S
C68 C66 1.405 . S
C68 C70 1.403 . S
C68 C101 1.439 . S
C69 H54 0.930 1_455 S
C69 N65 1.319 . S
C69 C67 1.397 . S
C70 C67 1.367 . S
C70 C68 1.403 . S
C70 H77 0.929 . S
N71 Eu36 2.562 . S
N71 C72 1.325 . S
N71 C74 1.351 . S
C72 H58 0.929 . S
C72 N71 1.325 . S
C72 C76 1.416 . S
C73 C74 1.430 . S
C73 C75 1.404 . S
C73 C102 1.387 . S
C74 C66 1.448 . S
C74 N71 1.351 . S
C74 C73 1.430 . S
C75 H64 0.930 . S
C75 C73 1.404 . S
C75 C76 1.366 . S
C76 H55 0.930 . S
C76 C72 1.416 . S
C76 C75 1.366 . S
H77 C70 0.929 . S
H78 C101 0.931 . S
H79 C102 0.931 . S
O80 Eu36 2.462 . S
O80 C100 1.252 . S
O81 Eu36 2.373 . S
O81 C92 1.249 . S
O82 Eu47 2.335 1_455 S
O82 C92 1.264 1_545 S
O83 Eu36 2.432 . S
O83 C100 1.268 . S
O84 Eu36 2.291 1_545 S
O84 C99 1.255 . S
O85 Eu47 2.372 1_455 S
O85 C99 1.257 . S
O86 Eu47 2.462 . S
O86 C111 1.252 . S
O87 Eu47 2.373 . S
O87 C103 1.249 . S
O88 Eu36 2.335 1_655 S
O88 C103 1.264 1_565 S
O89 Eu47 2.432 . S
O89 C111 1.268 . S
O90 Eu47 2.291 1_565 S
O90 C110 1.255 . S
O91 Eu36 2.372 1_655 S
O91 C110 1.257 . S
C92 O81 1.249 . S
C92 O82 1.264 1_565 S
C93 C96 1.382 . S
C93 C98 1.390 . S
C93 C100 1.506 . S
C94 C95 1.398 . S
C94 C98 1.392 . S
C95 C94 1.398 . S
C95 C97 1.372 . S
C95 H112 0.931 . S
C96 C93 1.382 . S
C96 C97 1.390 . S
C96 H113 0.931 . S
C97 C95 1.372 . S
C97 C96 1.390 . S
C97 H114 0.929 . S
C98 C93 1.390 . S
C98 C94 1.392 . S
C98 H115 0.930 . S
C99 O84 1.255 . S
C99 O85 1.257 . S
C100 Eu36 2.787 . S
C100 O80 1.252 . S
C100 O83 1.268 . S
C100 C93 1.506 . S
C101 C68 1.439 . S
C101 H78 0.931 . S
C101 C102 1.374 . S
C102 C73 1.387 . S
C102 H79 0.931 . S
C102 C101 1.374 . S
C103 O87 1.249 . S
C103 O88 1.264 1_545 S
C104 C107 1.382 . S
C104 C108 1.390 . S
C104 C111 1.506 . S
C105 C106 1.398 . S
C105 C108 1.392 . S
C106 C105 1.398 . S
C106 C109 1.372 . S
C106 H116 0.931 . S
C107 C104 1.382 . S
C107 C109 1.390 . S
C107 H117 0.931 . S
C108 C104 1.390 . S
C108 C105 1.392 . S
C108 H118 0.930 . S
C109 C106 1.372 . S
C109 C107 1.390 . S
C109 H119 0.929 . S
C110 O90 1.255 . S
C110 O91 1.257 . S
C111 Eu47 2.787 . S
C111 O86 1.252 . S
C111 O89 1.268 . S
C111 C104 1.506 . S
H112 C95 0.931 . S
H113 C96 0.931 . S
H114 C97 0.929 . S
H115 C98 0.930 . S
H116 C106 0.931 . S
H117 C107 0.931 . S
H118 C108 0.930 . S
H119 C109 0.929 . S
Eu120 N149 2.600 . S
Eu120 N155 2.562 1_556 S
Eu120 O164 2.462 . S
Eu120 O165 2.373 1_556 S
Eu120 O167 2.432 . S
Eu120 O168 2.291 1_556 S
Eu120 O172 2.335 . S
Eu120 O175 2.380 . S
Eu120 C184 2.787 . S
C121 N122 1.365 . S
C121 C124 1.405 . S
C121 C128 1.448 . S
N122 C121 1.365 . S
N122 C125 1.319 . S
N122 Eu131 2.600 . S
C123 C125 1.397 . S
C123 C126 1.367 . S
C123 H143 0.931 . S
C124 C121 1.405 . S
C124 C126 1.403 . S
C124 C130 1.439 . S
C125 N122 1.319 . S
C125 C123 1.397 . S
C125 H136 0.930 . S
C126 C123 1.367 . S
C126 C124 1.403 . S
C126 H147 0.929 . S
C127 C128 1.430 . S
C127 C129 1.387 . S
C127 C133 1.404 . S
C128 C121 1.448 . S
C128 C127 1.430 . S
C128 N132 1.351 . S
C129 C127 1.387 . S
C129 C130 1.374 . S
C129 H144 0.931 . S
C130 C124 1.439 . S
C130 C129 1.374 . S
C130 H145 0.931 . S
Eu131 N122 2.600 . S
Eu131 N132 2.562 . S
Eu131 O166 2.335 . S
Eu131 O169 2.372 . S
Eu131 O170 2.462 . S
Eu131 O171 2.373 1_554 S
Eu131 O173 2.432 . S
Eu131 O174 2.291 . S
Eu131 C195 2.787 . S
N132 C128 1.351 . S
N132 Eu131 2.562 . S
N132 C134 1.325 . S
C133 C127 1.404 . S
C133 C135 1.366 . S
C133 H141 0.930 . S
C134 N132 1.325 . S
C134 C135 1.416 . S
C134 H140 0.929 . S
C135 C133 1.366 . S
C135 C134 1.416 . S
C135 H137 0.930 . S
H136 C125 0.930 . S
H137 C135 0.930 . S
H138 C153 0.930 . S
H139 C160 0.930 . S
H140 C134 0.929 . S
H141 C133 0.930 . S
H142 C156 0.929 . S
H143 C123 0.931 . S
H144 C129 0.931 . S
H145 C130 0.931 . S
H146 C151 0.931 . S
H147 C126 0.929 . S
H148 C159 0.930 . S
N149 Eu120 2.600 . S
N149 C150 1.365 1_556 S
N149 C153 1.319 . S
C150 N149 1.365 1_554 S
C150 C152 1.405 . S
C150 C158 1.448 . S
C151 H146 0.931 . S
C151 C153 1.397 . S
C151 C154 1.367 1_556 S
C152 C150 1.405 . S
C152 C154 1.403 . S
C152 C185 1.439 . S
C153 H138 0.930 . S
C153 N149 1.319 . S
C153 C151 1.397 . S
C154 C151 1.367 1_554 S
C154 C152 1.403 . S
C154 H161 0.929 . S
N155 Eu120 2.562 1_554 S
N155 C156 1.325 . S
N155 C158 1.351 . S
C156 H142 0.929 . S
C156 N155 1.325 . S
C156 C160 1.416 . S
C157 C158 1.430 . S
C157 C159 1.404 . S
C157 C186 1.387 . S
C158 C150 1.448 . S
C158 N155 1.351 . S
C158 C157 1.430 . S
C159 H148 0.930 . S
C159 C157 1.404 . S
C159 C160 1.366 . S
C160 H139 0.930 . S
C160 C156 1.416 . S
C160 C159 1.366 . S
H161 C154 0.929 . S
H162 C185 0.931 . S
H163 C186 0.931 . S
O164 Eu120 2.462 . S
O164 C184 1.252 . S
O165 Eu120 2.373 1_554 S
O165 C176 1.249 . S
O166 Eu131 2.335 . S
O166 C176 1.264 . S
O167 Eu120 2.432 . S
O167 C184 1.268 . S
O168 Eu120 2.291 1_554 S
O168 C183 1.255 . S
O169 Eu131 2.372 . S
O169 C183 1.257 . S
O170 Eu131 2.462 . S
O170 C195 1.252 . S
O171 Eu131 2.373 1_556 S
O171 C187 1.249 . S
O172 Eu120 2.335 . S
O172 C187 1.264 . S
O173 Eu131 2.432 . S
O173 C195 1.268 . S
O174 Eu131 2.291 . S
O174 C194 1.255 . S
O175 Eu120 2.380 . S
O175 C194 1.239 1_556 S
C176 O165 1.249 . S
C176 O166 1.264 . S
C177 C180 1.382 . S
C177 C182 1.390 . S
C177 C184 1.506 . S
C178 C179 1.398 . S
C178 C182 1.392 . S
C179 C178 1.398 . S
C179 C181 1.372 . S
C179 H196 0.931 . S
C180 C177 1.382 . S
C180 C181 1.390 . S
C180 H197 0.931 . S
C181 C179 1.372 . S
C181 C180 1.390 . S
C181 H198 0.929 . S
C182 C177 1.390 . S
C182 C178 1.392 . S
C182 H199 0.930 . S
C183 O168 1.255 . S
C183 O169 1.257 . S
C184 Eu120 2.787 . S
C184 O164 1.252 . S
C184 O167 1.268 . S
C184 C177 1.506 . S
C185 C152 1.439 . S
C185 H162 0.931 . S
C185 C186 1.374 . S
C186 C157 1.387 . S
C186 H163 0.931 . S
C186 C185 1.374 . S
C187 O171 1.249 . S
C187 O172 1.264 . S
C188 C191 1.382 . S
C188 C192 1.390 . S
C188 C195 1.506 . S
C189 C190 1.398 . S
C189 C192 1.392 . S
C190 C189 1.398 . S
C190 C193 1.372 . S
C190 H200 0.931 . S
C191 C188 1.382 . S
C191 C193 1.390 . S
C191 H201 0.931 . S
C192 C188 1.390 . S
C192 C189 1.392 . S
C192 H202 0.930 . S
C193 C190 1.372 . S
C193 C191 1.390 . S
C193 H203 0.929 . S
C194 O174 1.255 . S
C194 O175 1.239 1_554 S
C195 Eu131 2.787 . S
C195 O170 1.252 . S
C195 O173 1.268 . S
C195 C188 1.506 . S
H196 C179 0.931 . S
H197 C180 0.931 . S
H198 C181 0.929 . S
H199 C182 0.930 . S
H200 C190 0.931 . S
H201 C191 0.931 . S
H202 C192 0.930 . S
H203 C193 0.929 . S
H204 C212 0.929 . S
H205 C214 0.930 . S
H206 C216 0.930 . S
H207 C219 0.929 . S
H208 C222 0.930 . S
H209 C224 0.960 . S
H210 C224 0.960 . S
H211 C224 0.960 . S
C212 H204 0.929 . S
C212 C213 1.377 . S
C212 C214 1.384 . S
C213 C212 1.377 . S
C213 C219 1.390 . S
C214 H205 0.930 . S
C214 C212 1.384 . S
C214 C215 1.372 . S
C215 C214 1.372 . S
C215 C216 1.400 . S
C215 C220 1.490 . S
C216 H206 0.930 . S
C216 C215 1.400 . S
C216 C219 1.386 . S
H217 C233 0.930 . S
H218 C234 0.931 . S
C219 H207 0.929 . S
C219 C213 1.390 . S
C219 C216 1.386 . S
C220 C215 1.490 . S
C220 C222 1.395 . S
C220 C223 1.403 . S
H221 C227 0.930 . S
C222 H208 0.930 . S
C222 C220 1.395 . S
C222 C225 1.403 . S
C223 C220 1.403 . S
C223 C224 1.524 . S
C223 C227 1.400 . S
C224 H209 0.960 . S
C224 H210 0.960 . S
C224 H211 0.960 . S
C224 C223 1.524 . S
C225 C222 1.403 . S
C225 C226 1.392 . S
C225 C229 1.495 . S
C226 C225 1.392 . S
C226 C227 1.385 . S
C226 C228 1.478 . S
C227 H221 0.930 . S
C227 C223 1.400 . S
C227 C226 1.385 . S
C228 C226 1.478 . S
C228 C230 1.381 . S
C228 C234 1.383 . S
C229 C225 1.495 . S
C229 H235 0.959 . S
C229 H236 0.961 . S
C229 H237 0.960 . S
C230 C228 1.381 . S
C230 C231 1.394 . S
C230 H238 0.930 . S
C231 C230 1.394 . S
C231 C232 1.383 . S
C231 H239 0.929 . S
C232 C231 1.383 . S
C232 C233 1.377 . S
C233 H217 0.930 . S
C233 C232 1.377 . S
C233 C234 1.379 . S
C234 H218 0.931 . S
C234 C228 1.383 . S
C234 C233 1.379 . S
H235 C229 0.959 . S
H236 C229 0.961 . S
H237 C229 0.960 . S
H238 C230 0.930 . S
H239 C231 0.929 . S
H240 C248 0.929 1_556 S
H241 C250 0.930 1_556 S
H242 C252 0.930 . S
H243 C255 0.929 . S
H244 C258 0.930 . S
H245 C260 0.960 . S
H246 C260 0.960 . S
H247 C260 0.960 1_554 S
C248 H240 0.929 1_554 S
C248 C249 1.377 . S
C248 C250 1.384 . S
C249 C248 1.377 . S
C249 C255 1.390 . S
C250 H241 0.930 1_554 S
C250 C248 1.384 . S
C250 C251 1.372 . S
C251 C250 1.372 . S
C251 C252 1.400 . S
C251 C256 1.490 . S
C252 H242 0.930 . S
C252 C251 1.400 . S
C252 C255 1.386 . S
H253 C269 0.930 . S
H254 C270 0.931 . S
C255 H243 0.929 . S
C255 C249 1.390 . S
C255 C252 1.386 . S
C256 C251 1.490 . S
C256 C258 1.395 . S
C256 C259 1.403 . S
H257 C263 0.930 . S
C258 H244 0.930 . S
C258 C256 1.395 . S
C258 C261 1.403 . S
C259 C256 1.403 . S
C259 C260 1.524 1_554 S
C259 C263 1.400 . S
C260 H245 0.960 . S
C260 H246 0.960 . S
C260 H247 0.960 1_556 S
C260 C259 1.524 1_556 S
C261 C258 1.403 . S
C261 C262 1.392 . S
C261 C265 1.495 . S
C262 C261 1.392 . S
C262 C263 1.385 . S
C262 C264 1.478 . S
C263 H257 0.930 . S
C263 C259 1.400 . S
C263 C262 1.385 . S
C264 C262 1.478 . S
C264 C266 1.381 . S
C264 C270 1.383 . S
C265 C261 1.495 . S
C265 H271 0.959 . S
C265 H272 0.961 . S
C265 H273 0.960 . S
C266 C264 1.381 . S
C266 C267 1.394 . S
C266 H274 0.930 1_554 S
C267 C266 1.394 . S
C267 C268 1.383 . S
C267 H275 0.929 1_554 S
C268 C267 1.383 . S
C268 C269 1.377 . S
C269 H253 0.930 . S
C269 C268 1.377 . S
C269 C270 1.379 . S
C270 H254 0.931 . S
C270 C264 1.383 . S
C270 C269 1.379 . S
H271 C265 0.959 . S
H272 C265 0.961 . S
H273 C265 0.960 . S
H274 C266 0.930 1_556 S
H275 C267 0.929 1_556 S
H276 C284 0.929 . S
H277 C286 0.930 . S
H278 C288 0.930 . S
H279 C291 0.929 . S
H280 C294 0.930 . S
H281 C296 0.960 . S
H282 C296 0.960 . S
H283 C296 0.960 . S
C284 H276 0.929 . S
C284 C285 1.377 . S
C284 C286 1.384 . S
C285 C284 1.377 . S
C285 C291 1.390 . S
C286 H277 0.930 . S
C286 C284 1.384 . S
C286 C287 1.372 . S
C287 C286 1.372 . S
C287 C288 1.400 . S
C287 C292 1.490 . S
C288 H278 0.930 . S
C288 C287 1.400 . S
C288 C291 1.386 . S
H289 C305 0.930 . S
H290 C306 0.931 . S
C291 H279 0.929 . S
C291 C285 1.390 . S
C291 C288 1.386 . S
C292 C287 1.490 . S
C292 C294 1.395 . S
C292 C295 1.403 . S
H293 C299 0.930 . S
C294 H280 0.930 . S
C294 C292 1.395 . S
C294 C297 1.403 . S
C295 C292 1.403 . S
C295 C296 1.524 . S
C295 C299 1.400 . S
C296 H281 0.960 . S
C296 H282 0.960 . S
C296 H283 0.960 . S
C296 C295 1.524 . S
C297 C294 1.403 . S
C297 C298 1.392 . S
C297 C301 1.495 . S
C298 C297 1.392 . S
C298 C299 1.385 . S
C298 C300 1.478 . S
C299 H293 0.930 . S
C299 C295 1.400 . S
C299 C298 1.385 . S
C300 C298 1.478 . S
C300 C302 1.381 . S
C300 C306 1.383 . S
C301 C297 1.495 . S
C301 H307 0.959 . S
C301 H308 0.961 . S
C301 H309 0.960 . S
C302 C300 1.381 . S
C302 C303 1.394 . S
C302 H310 0.930 . S
C303 C302 1.394 . S
C303 C304 1.383 . S
C303 H311 0.929 . S
C304 C303 1.383 . S
C304 C305 1.377 . S
C305 H289 0.930 . S
C305 C304 1.377 . S
C305 C306 1.379 . S
C306 H290 0.931 . S
C306 C300 1.383 . S
C306 C305 1.379 . S
H307 C301 0.959 . S
H308 C301 0.961 . S
H309 C301 0.960 . S
H310 C302 0.930 . S
H311 C303 0.929 . S
H312 C320 0.929 . S
H313 C322 0.930 . S
H314 C324 0.930 1_556 S
H315 C327 0.929 1_556 S
H316 C330 0.930 . S
H317 C332 0.960 . S
H318 C332 0.960 . S
H319 C332 0.960 . S
C320 H312 0.929 . S
C320 C321 1.377 . S
C320 C322 1.384 . S
C321 C320 1.377 . S
C321 C327 1.390 . S
C322 H313 0.930 . S
C322 C320 1.384 . S
C322 C323 1.372 . S
C323 C322 1.372 . S
C323 C324 1.400 . S
C323 C328 1.490 . S
C324 H314 0.930 1_554 S
C324 C323 1.400 . S
C324 C327 1.386 . S
H325 C341 0.940 . S
H326 C342 0.948 . S
C327 H315 0.929 1_554 S
C327 C321 1.390 . S
C327 C324 1.386 . S
C328 C323 1.490 . S
C328 C330 1.395 . S
C328 C331 1.403 . S
H329 C335 0.930 . S
C330 H316 0.930 . S
C330 C328 1.395 . S
C330 C333 1.403 . S
C331 C328 1.403 . S
C331 C332 1.524 . S
C331 C335 1.400 . S
C332 H317 0.960 . S
C332 H318 0.960 . S
C332 H319 0.960 . S
C332 C331 1.524 . S
C333 C330 1.403 . S
C333 C334 1.392 . S
C333 C337 1.495 . S
C334 C333 1.392 . S
C334 C335 1.385 . S
C334 C336 1.478 . S
C335 H329 0.930 . S
C335 C331 1.400 . S
C335 C334 1.385 . S
C336 C334 1.478 . S
C336 C338 1.381 . S
C336 C342 1.371 1_554 S
C337 C333 1.495 . S
C337 H343 0.959 . S
C337 H344 0.961 1_554 S
C337 H345 0.960 . S
C338 C336 1.381 . S
C338 C339 1.394 . S
C338 H346 0.930 . S
C339 C338 1.394 . S
C339 C340 1.383 . S
C339 H347 0.929 . S
C340 C339 1.383 . S
C340 C341 1.361 1_554 S
C341 H325 0.940 . S
C341 C340 1.361 1_556 S
C341 C342 1.379 . S
C342 H326 0.948 . S
C342 C336 1.371 1_556 S
C342 C341 1.379 . S
H343 C337 0.959 . S
H344 C337 0.961 1_556 S
H345 C337 0.960 . S
H346 C338 0.930 . S
H347 C339 0.929 . S
H348 C356 0.929 . S
H349 C358 0.930 . S
H350 C360 0.930 . S
H351 C363 0.929 . S
H352 C366 0.930 . S
H353 C368 0.960 . S
H354 C368 0.960 . S
H355 C368 0.960 . S
C356 H348 0.929 . S
C356 C357 1.377 . S
C356 C358 1.384 . S
C357 C356 1.377 . S
C357 C363 1.390 . S
C358 H349 0.930 . S
C358 C356 1.384 . S
C358 C359 1.372 . S
C359 C358 1.372 . S
C359 C360 1.400 . S
C359 C364 1.490 . S
C360 H350 0.930 . S
C360 C359 1.400 . S
C360 C363 1.386 . S
H361 C377 0.930 . S
H362 C378 0.931 . S
C363 H351 0.929 . S
C363 C357 1.390 . S
C363 C360 1.386 . S
C364 C359 1.490 . S
C364 C366 1.395 . S
C364 C367 1.403 . S
H365 C371 0.930 . S
C366 H352 0.930 . S
C366 C364 1.395 . S
C366 C369 1.403 . S
C367 C364 1.403 . S
C367 C368 1.524 . S
C367 C371 1.400 . S
C368 H353 0.960 . S
C368 H354 0.960 . S
C368 H355 0.960 . S
C368 C367 1.524 . S
C369 C366 1.403 . S
C369 C370 1.392 . S
C369 C373 1.495 . S
C370 C369 1.392 . S
C370 C371 1.385 . S
C370 C372 1.478 . S
C371 H365 0.930 . S
C371 C367 1.400 . S
C371 C370 1.385 . S
C372 C370 1.478 . S
C372 C374 1.381 . S
C372 C378 1.383 . S
C373 C369 1.495 . S
C373 H379 0.959 . S
C373 H380 0.961 . S
C373 H381 0.960 . S
C374 C372 1.381 . S
C374 C375 1.394 . S
C374 H382 0.930 . S
C375 C374 1.394 . S
C375 C376 1.383 . S
C375 H383 0.914 1_565 S
C376 C375 1.383 . S
C376 C377 1.377 . S
C377 H361 0.930 . S
C377 C376 1.377 . S
C377 C378 1.379 . S
C378 H362 0.931 . S
C378 C372 1.383 . S
C378 C377 1.379 . S
H379 C373 0.959 . S
H380 C373 0.961 . S
H381 C373 0.960 . S
H382 C374 0.930 . S
H383 C375 0.914 1_545 S
H384 C392 0.929 . S
H385 C394 0.930 . S
H386 C396 0.930 . S
H387 C399 0.929 . S
H388 C402 0.930 . S
H389 C404 0.960 . S
H390 C404 0.960 . S
H391 C404 0.960 . S
C392 H384 0.929 . S
C392 C393 1.377 . S
C392 C394 1.384 . S
C393 C392 1.377 . S
C393 C399 1.390 . S
C394 H385 0.930 . S
C394 C392 1.384 . S
C394 C395 1.372 . S
C395 C394 1.372 . S
C395 C396 1.400 . S
C395 C400 1.490 . S
C396 H386 0.930 . S
C396 C395 1.400 . S
C396 C399 1.386 . S
H397 C413 0.930 . S
H398 C414 0.931 . S
C399 H387 0.929 . S
C399 C393 1.390 . S
C399 C396 1.386 . S
C400 C395 1.490 . S
C400 C402 1.395 . S
C400 C403 1.403 . S
H401 C407 0.930 . S
C402 H388 0.930 . S
C402 C400 1.395 . S
C402 C405 1.403 . S
C403 C400 1.403 . S
C403 C404 1.524 . S
C403 C407 1.400 . S
C404 H389 0.960 . S
C404 H390 0.960 . S
C404 H391 0.960 . S
C404 C403 1.524 . S
C405 C402 1.403 . S
C405 C406 1.392 . S
C405 C409 1.495 . S
C406 C405 1.392 . S
C406 C407 1.385 . S
C406 C408 1.478 . S
C407 H401 0.930 . S
C407 C403 1.400 . S
C407 C406 1.385 . S
C408 C406 1.478 . S
C408 C410 1.381 . S
C408 C414 1.383 . S
C409 C405 1.495 . S
C409 H415 0.959 . S
C409 H416 0.961 . S
C409 H417 0.960 . S
C410 C408 1.381 . S
C410 C411 1.394 . S
C410 H418 0.930 . S
C411 C410 1.394 . S
C411 C412 1.383 . S
C411 H419 0.929 . S
C412 C411 1.383 . S
C412 C413 1.377 . S
C413 H397 0.930 . S
C413 C412 1.377 . S
C413 C414 1.379 . S
C414 H398 0.931 . S
C414 C408 1.383 . S
C414 C413 1.379 . S
H415 C409 0.959 . S
H416 C409 0.961 . S
H417 C409 0.960 . S
H418 C410 0.930 . S
H419 C411 0.929 . S
H420 C428 0.929 . S
H421 C430 0.930 . S
H422 C432 0.930 . S
H423 C435 0.929 . S
H424 C438 0.930 . S
H425 C440 0.960 . S
H426 C440 0.960 . S
H427 C440 0.960 . S
C428 H420 0.929 . S
C428 C429 1.377 . S
C428 C430 1.384 . S
C429 C428 1.377 . S
C429 C435 1.390 . S
C430 H421 0.930 . S
C430 C428 1.384 . S
C430 C431 1.372 . S
C431 C430 1.372 . S
C431 C432 1.400 . S
C431 C436 1.490 . S
C432 H422 0.930 . S
C432 C431 1.400 . S
C432 C435 1.386 . S
H433 C449 0.930 . S
H434 C450 0.931 . S
C435 H423 0.929 . S
C435 C429 1.390 . S
C435 C432 1.386 . S
C436 C431 1.490 . S
C436 C438 1.395 . S
C436 C439 1.403 . S
H437 C443 0.930 . S
C438 H424 0.930 . S
C438 C436 1.395 . S
C438 C441 1.403 . S
C439 C436 1.403 . S
C439 C440 1.524 . S
C439 C443 1.400 . S
C440 H425 0.960 . S
C440 H426 0.960 . S
C440 H427 0.960 . S
C440 C439 1.524 . S
C441 C438 1.403 . S
C441 C442 1.392 . S
C441 C445 1.495 . S
C442 C441 1.392 . S
C442 C443 1.385 . S
C442 C444 1.478 . S
C443 H437 0.930 . S
C443 C439 1.400 . S
C443 C442 1.385 . S
C444 C442 1.478 . S
C444 C446 1.381 . S
C444 C450 1.383 . S
C445 C441 1.495 . S
C445 H451 0.959 . S
C445 H452 0.961 . S
C445 H453 0.960 . S
C446 C444 1.381 . S
C446 C447 1.394 . S
C446 H454 0.949 . S
C447 C446 1.394 . S
C447 C448 1.383 . S
C447 H455 0.929 1_545 S
C448 C447 1.383 . S
C448 C449 1.377 . S
C449 H433 0.930 . S
C449 C448 1.377 . S
C449 C450 1.379 . S
C450 H434 0.931 . S
C450 C444 1.383 . S
C450 C449 1.379 . S
H451 C445 0.959 . S
H452 C445 0.961 . S
H453 C445 0.960 . S
H454 C446 0.949 . S
H455 C447 0.929 1_565 S
H456 C464 0.929 . S
H457 C466 0.930 . S
H458 C468 0.930 . S
H459 C471 0.929 . S
H460 C474 0.930 . S
H461 C476 0.960 . S
H462 C476 0.960 . S
H463 C476 0.960 . S
C464 H456 0.929 . S
C464 C465 1.377 . S
C464 C466 1.384 . S
C465 C464 1.377 . S
C465 C471 1.390 . S
C466 H457 0.930 . S
C466 C464 1.384 . S
C466 C467 1.372 . S
C467 C466 1.372 . S
C467 C468 1.400 . S
C467 C472 1.490 . S
C468 H458 0.930 . S
C468 C467 1.400 . S
C468 C471 1.386 . S
H469 C485 0.930 . S
H470 C486 0.931 . S
C471 H459 0.929 . S
C471 C465 1.390 . S
C471 C468 1.386 . S
C472 C467 1.490 . S
C472 C474 1.395 . S
C472 C475 1.403 . S
H473 C479 0.930 . S
C474 H460 0.930 . S
C474 C472 1.395 . S
C474 C477 1.403 . S
C475 C472 1.403 . S
C475 C476 1.524 . S
C475 C479 1.400 . S
C476 H461 0.960 . S
C476 H462 0.960 . S
C476 H463 0.960 . S
C476 C475 1.524 . S
C477 C474 1.403 . S
C477 C478 1.392 . S
C477 C481 1.495 . S
C478 C477 1.392 . S
C478 C479 1.385 . S
C478 C480 1.478 . S
C479 H473 0.930 . S
C479 C475 1.400 . S
C479 C478 1.385 . S
C480 C478 1.478 . S
C480 C482 1.381 . S
C480 C486 1.383 . S
C481 C477 1.495 . S
C481 H487 0.959 . S
C481 H488 0.961 . S
C481 H489 0.960 . S
C482 C480 1.381 . S
C482 C483 1.394 . S
C482 H490 0.930 . S
C483 C482 1.394 . S
C483 C484 1.383 . S
C483 H491 0.929 . S
C484 C483 1.383 . S
C484 C485 1.377 . S
C485 H469 0.930 . S
C485 C484 1.377 . S
C485 C486 1.379 . S
C486 H470 0.931 . S
C486 C480 1.383 . S
C486 C485 1.379 . S
H487 C481 0.959 . S
H488 C481 0.961 . S
H489 C481 0.960 . S
H490 C482 0.930 . S
H491 C483 0.929 . S
H492 C500 0.929 . S
H493 C502 0.930 . S
H494 C504 0.930 . S
H495 C507 0.929 . S
H496 C510 0.930 . S
H497 C512 0.960 . S
H498 C512 0.960 . S
H499 C512 0.960 . S
C500 H492 0.929 . S
C500 C501 1.377 . S
C500 C502 1.384 . S
C501 C500 1.377 . S
C501 C507 1.390 . S
C502 H493 0.930 . S
C502 C500 1.384 . S
C502 C503 1.372 . S
C503 C502 1.372 . S
C503 C504 1.400 . S
C503 C508 1.490 . S
C504 H494 0.930 . S
C504 C503 1.400 . S
C504 C507 1.386 . S
H505 C521 0.930 . S
H506 C522 0.931 . S
C507 H495 0.929 . S
C507 C501 1.390 . S
C507 C504 1.386 . S
C508 C503 1.490 . S
C508 C510 1.395 . S
C508 C511 1.403 . S
H509 C515 0.930 . S
C510 H496 0.930 . S
C510 C508 1.395 . S
C510 C513 1.403 . S
C511 C508 1.403 . S
C511 C512 1.524 . S
C511 C515 1.400 . S
C512 H497 0.960 . S
C512 H498 0.960 . S
C512 H499 0.960 . S
C512 C511 1.524 . S
C513 C510 1.403 . S
C513 C514 1.392 . S
C513 C517 1.495 . S
C514 C513 1.392 . S
C514 C515 1.385 . S
C514 C516 1.478 . S
C515 H509 0.930 . S
C515 C511 1.400 . S
C515 C514 1.385 . S
C516 C514 1.478 . S
C516 C518 1.381 . S
C516 C522 1.383 . S
C517 C513 1.495 . S
C517 H523 0.959 . S
C517 H524 0.961 . S
C517 H525 0.960 . S
C518 C516 1.381 . S
C518 C519 1.394 . S
C518 H526 0.930 . S
C519 C518 1.394 . S
C519 C520 1.383 . S
C519 H527 0.929 . S
C520 C519 1.383 . S
C520 C521 1.377 . S
C521 H505 0.930 . S
C521 C520 1.377 . S
C521 C522 1.379 . S
C522 H506 0.931 . S
C522 C516 1.383 . S
C522 C521 1.379 . S
H523 C517 0.959 . S
H524 C517 0.961 . S
H525 C517 0.960 . S
H526 C518 0.930 . S
H527 C519 0.929 . S
H528 C536 0.929 . S
H529 C538 0.930 . S
H530 C540 0.930 . S
H531 C543 0.929 . S
H532 C546 0.930 . S
H533 C548 0.960 . S
H534 C548 0.960 . S
H535 C548 0.960 . S
C536 H528 0.929 . S
C536 C537 1.377 . S
C536 C538 1.384 . S
C537 C536 1.377 . S
C537 C543 1.390 . S
C538 H529 0.930 . S
C538 C536 1.384 . S
C538 C539 1.372 . S
C539 C538 1.372 . S
C539 C540 1.400 . S
C539 C544 1.490 . S
C540 H530 0.930 . S
C540 C539 1.400 . S
C540 C543 1.386 . S
H541 C557 0.930 . S
H542 C558 0.931 . S
C543 H531 0.929 . S
C543 C537 1.390 . S
C543 C540 1.386 . S
C544 C539 1.490 . S
C544 C546 1.395 . S
C544 C547 1.403 . S
H545 C551 0.930 . S
C546 H532 0.930 . S
C546 C544 1.395 . S
C546 C549 1.403 . S
C547 C544 1.403 . S
C547 C548 1.524 . S
C547 C551 1.400 . S
C548 H533 0.960 . S
C548 H534 0.960 . S
C548 H535 0.960 . S
C548 C547 1.524 . S
C549 C546 1.403 . S
C549 C550 1.392 . S
C549 C553 1.495 . S
C550 C549 1.392 . S
C550 C551 1.385 . S
C550 C552 1.478 . S
C551 H545 0.930 . S
C551 C547 1.400 . S
C551 C550 1.385 . S
C552 C550 1.478 . S
C552 C554 1.381 . S
C552 C558 1.383 . S
C553 C549 1.495 . S
C553 H559 0.959 . S
C553 H560 0.961 . S
C553 H561 0.960 . S
C554 C552 1.381 . S
C554 C555 1.394 . S
C554 H562 0.930 . S
C555 C554 1.394 . S
C555 C556 1.383 . S
C555 H563 0.929 . S
C556 C555 1.383 . S
C556 C557 1.377 . S
C557 H541 0.930 . S
C557 C556 1.377 . S
C557 C558 1.379 . S
C558 H542 0.931 . S
C558 C552 1.383 . S
C558 C557 1.379 . S
H559 C553 0.959 . S
H560 C553 0.961 . S
H561 C553 0.960 . S
H562 C554 0.930 . S
H563 C555 0.929 . S
H564 C572 0.929 . S
H565 C574 0.930 . S
H566 C576 0.930 . S
H567 C579 0.929 . S
H568 C582 0.930 . S
H569 C584 0.960 . S
H570 C584 0.960 . S
H571 C584 0.960 . S
C572 H564 0.929 . S
C572 C573 1.377 . S
C572 C574 1.384 . S
C573 C572 1.377 . S
C573 C579 1.390 . S
C574 H565 0.930 . S
C574 C572 1.384 . S
C574 C575 1.372 . S
C575 C574 1.372 . S
C575 C576 1.400 . S
C575 C580 1.490 . S
C576 H566 0.930 . S
C576 C575 1.400 . S
C576 C579 1.386 . S
H577 C593 0.930 . S
H578 C594 0.931 . S
C579 H567 0.929 . S
C579 C573 1.390 . S
C579 C576 1.386 . S
C580 C575 1.490 . S
C580 C582 1.395 . S
C580 C583 1.403 . S
H581 C587 0.930 . S
C582 H568 0.930 . S
C582 C580 1.395 . S
C582 C585 1.403 . S
C583 C580 1.403 . S
C583 C584 1.524 . S
C583 C587 1.400 . S
C584 H569 0.960 . S
C584 H570 0.960 . S
C584 H571 0.960 . S
C584 C583 1.524 . S
C585 C582 1.403 . S
C585 C586 1.392 . S
C585 C589 1.495 . S
C586 C585 1.392 . S
C586 C587 1.385 . S
C586 C588 1.478 . S
C587 H581 0.930 . S
C587 C583 1.400 . S
C587 C586 1.385 . S
C588 C586 1.478 . S
C588 C590 1.381 . S
C588 C594 1.383 . S
C589 C585 1.495 . S
C589 H595 0.959 . S
C589 H596 0.961 . S
C589 H597 0.960 . S
C590 C588 1.381 . S
C590 C591 1.394 . S
C590 H598 0.930 . S
C591 C590 1.394 . S
C591 C592 1.383 . S
C591 H599 0.929 . S
C592 C591 1.383 . S
C592 C593 1.377 . S
C593 H577 0.930 . S
C593 C592 1.377 . S
C593 C594 1.379 . S
C594 H578 0.931 . S
C594 C588 1.383 . S
C594 C593 1.379 . S
H595 C589 0.959 . S
H596 C589 0.961 . S
H597 C589 0.960 . S
H598 C590 0.930 . S
H599 C591 0.929 . S
H600 C608 0.929 . S
H601 C610 0.930 . S
H602 C612 0.930 . S
H603 C615 0.929 . S
H604 C618 0.930 . S
H605 C620 0.960 . S
H606 C620 0.960 . S
H607 C620 0.960 . S
C608 H600 0.929 . S
C608 C609 1.377 . S
C608 C610 1.384 . S
C609 C608 1.377 . S
C609 C615 1.390 . S
C610 H601 0.930 . S
C610 C608 1.384 . S
C610 C611 1.372 . S
C611 C610 1.372 . S
C611 C612 1.400 . S
C611 C616 1.490 . S
C612 H602 0.930 . S
C612 C611 1.400 . S
C612 C615 1.386 . S
H613 C629 0.930 . S
H614 C630 0.931 . S
C615 H603 0.929 . S
C615 C609 1.390 . S
C615 C612 1.386 . S
C616 C611 1.490 . S
C616 C618 1.395 . S
C616 C619 1.403 . S
H617 C623 0.930 . S
C618 H604 0.930 . S
C618 C616 1.395 . S
C618 C621 1.403 . S
C619 C616 1.403 . S
C619 C620 1.524 . S
C619 C623 1.400 . S
C620 H605 0.960 . S
C620 H606 0.960 . S
C620 H607 0.960 . S
C620 C619 1.524 . S
C621 C618 1.403 . S
C621 C622 1.392 . S
C621 C625 1.495 . S
C622 C621 1.392 . S
C622 C623 1.385 . S
C622 C624 1.478 . S
C623 H617 0.930 . S
C623 C619 1.400 . S
C623 C622 1.385 . S
C624 C622 1.478 . S
C624 C626 1.381 . S
C624 C630 1.383 . S
C625 C621 1.495 . S
C625 H631 0.959 . S
C625 H632 0.961 . S
C625 H633 0.960 1_565 S
C626 C624 1.381 . S
C626 C627 1.394 . S
C626 H634 0.930 1_565 S
C627 C626 1.394 . S
C627 C628 1.383 . S
C627 H635 0.929 1_565 S
C628 C627 1.383 . S
C628 C629 1.377 . S
C629 H613 0.930 . S
C629 C628 1.377 . S
C629 C630 1.379 . S
C630 H614 0.931 . S
C630 C624 1.383 . S
C630 C629 1.379 . S
H631 C625 0.959 . S
H632 C625 0.961 . S
H633 C625 0.960 1_545 S
H634 C626 0.930 1_545 S
H635 C627 0.929 1_545 S
C232 C99 1.562 . S
C213 C34 1.568 . S
C249 C7 1.553 . S
C268 C194 1.542 . S
C285 C16 1.566 . S
C304 C110 1.538 . S
C321 C25 1.551 . S
C340 C183 1.540 . S
C376 C94 1.347 . S
C357 C5 1.533 . S
C412 C187 1.570 . S
C393 C13 1.564 . S
C429 C23 1.543 . S
C448 C103 1.540 . S
C465 C32 1.524 . S
C484 C178 1.414 . S
C520 C189 1.391 . S
C501 C14 1.523 . S
C556 C105 1.376 . S
C537 C22 1.529 1_556 S
C592 C176 1.567 . S
C573 C31 1.562 . S
C609 C4 1.538 . S
C628 C92 1.545 . S
