# Generated by pormake.
# Topology pyr, (3,6)-cn, num edge types: 1
# Building blocks:
#     Node 0, Type 0, BuildingBlock: BETDAH_clean_linker_0, # of connection points: 3
#     Node 1, Type 0, BuildingBlock: BETDAH_clean_linker_0, # of connection points: 3
#     Node 2, Type 0, BuildingBlock: BETDAH_clean_linker_0, # of connection points: 3
#     Node 3, Type 0, BuildingBlock: BETDAH_clean_linker_0, # of connection points: 3
#     Node 4, Type 0, BuildingBlock: BETDAH_clean_linker_0, # of connection points: 3
#     Node 5, Type 0, BuildingBlock: BETDAH_clean_linker_0, # of connection points: 3
#     Node 6, Type 0, BuildingBlock: BETDAH_clean_linker_0, # of connection points: 3
#     Node 7, Type 0, BuildingBlock: BETDAH_clean_linker_0, # of connection points: 3
#     Node 8, Type 1, BuildingBlock: BETDIP_clean_sbu_0, # of connection points: 6
#     Node 9, Type 1, BuildingBlock: BETDIP_clean_sbu_0, # of connection points: 6
#     Node 10, Type 1, BuildingBlock: BETDIP_clean_sbu_0, # of connection points: 6
#     Node 11, Type 1, BuildingBlock: BETDIP_clean_sbu_0, # of connection points: 6
#     Edge 12, Type (0, 1), BuildingBlock: AJUNOK_clean_linker_0, # of connection points: 2
#     Edge 13, Type (0, 1), BuildingBlock: AJUNOK_clean_linker_0, # of connection points: 2
#     Edge 14, Type (0, 1), BuildingBlock: AJUNOK_clean_linker_0, # of connection points: 2
#     Edge 15, Type (0, 1), BuildingBlock: AJUNOK_clean_linker_0, # of connection points: 2
#     Edge 16, Type (0, 1), BuildingBlock: AJUNOK_clean_linker_0, # of connection points: 2
#     Edge 17, Type (0, 1), BuildingBlock: AJUNOK_clean_linker_0, # of connection points: 2
#     Edge 18, Type (0, 1), BuildingBlock: AJUNOK_clean_linker_0, # of connection points: 2
#     Edge 19, Type (0, 1), BuildingBlock: AJUNOK_clean_linker_0, # of connection points: 2
#     Edge 20, Type (0, 1), BuildingBlock: AJUNOK_clean_linker_0, # of connection points: 2
#     Edge 21, Type (0, 1), BuildingBlock: AJUNOK_clean_linker_0, # of connection points: 2
#     Edge 22, Type (0, 1), BuildingBlock: AJUNOK_clean_linker_0, # of connection points: 2
#     Edge 23, Type (0, 1), BuildingBlock: AJUNOK_clean_linker_0, # of connection points: 2
#     Edge 24, Type (0, 1), BuildingBlock: AJUNOK_clean_linker_0, # of connection points: 2
#     Edge 25, Type (0, 1), BuildingBlock: AJUNOK_clean_linker_0, # of connection points: 2
#     Edge 26, Type (0, 1), BuildingBlock: AJUNOK_clean_linker_0, # of connection points: 2
#     Edge 27, Type (0, 1), BuildingBlock: AJUNOK_clean_linker_0, # of connection points: 2
#     Edge 28, Type (0, 1), BuildingBlock: AJUNOK_clean_linker_0, # of connection points: 2
#     Edge 29, Type (0, 1), BuildingBlock: AJUNOK_clean_linker_0, # of connection points: 2
#     Edge 30, Type (0, 1), BuildingBlock: AJUNOK_clean_linker_0, # of connection points: 2
#     Edge 31, Type (0, 1), BuildingBlock: AJUNOK_clean_linker_0, # of connection points: 2
#     Edge 32, Type (0, 1), BuildingBlock: AJUNOK_clean_linker_0, # of connection points: 2
#     Edge 33, Type (0, 1), BuildingBlock: AJUNOK_clean_linker_0, # of connection points: 2
#     Edge 34, Type (0, 1), BuildingBlock: AJUNOK_clean_linker_0, # of connection points: 2
#     Edge 35, Type (0, 1), BuildingBlock: AJUNOK_clean_linker_0, # of connection points: 2
# Relax obj value: 0.211
# Max RMSD: 0.234
# Mean RMSD: 0.136
data_MOF--net-pyr--node1-BETDIP_clean_sbu_0--node2-BETDAH_clean_linker_0--edge1-AJUNOK_clean_linker_0
_symmetry_space_group_name_H-M    P1
_symmetry_Int_Tables_number       1
_symmetry_cell_setting            triclinic
loop_
_symmetry_equiv_pos_as_xyz
'x, y, z'
_cell_length_a     25.57234
_cell_length_b     29.38241
_cell_length_c     29.32675
_cell_angle_alpha  88.283376
_cell_angle_beta   94.197042
_cell_angle_gamma 111.09832
loop_
_atom_site_label
_atom_site_type_symbol
_atom_site_fract_x
_atom_site_fract_y
_atom_site_fract_z
_atom_type_partial_charge
H0 H 0.44823 0.23423 0.32047 0.0
H1 H 0.52076 0.34336 0.21907 0.0
H2 H 0.42148 0.37042 0.31986 0.0
C3 C 0.45578 0.2703 0.30606 0.0
C4 C 0.43159 0.30076 0.3248 0.0
C5 C 0.48773 0.28504 0.26779 0.0
C6 C 0.49773 0.332 0.24955 0.0
C7 C 0.47363 0.36281 0.2679 0.0
C8 C 0.44092 0.34715 0.30586 0.0
N9 N 0.47928 0.40775 0.24569 0.0
C10 C 0.43569 0.42565 0.24287 0.0
H11 H 0.24368 0.78505 0.82632 0.0
H12 H 0.09766 0.82464 0.80673 0.0
H13 H 0.14195 0.75204 0.69926 0.0
C14 C 0.20612 0.7836 0.80573 0.0
C15 C 0.19711 0.76528 0.76098 0.0
C16 C 0.17004 0.8045 0.82257 0.0
C17 C 0.12447 0.80694 0.79443 0.0
C18 C 0.11444 0.78817 0.74994 0.0
C19 C 0.14965 0.76596 0.73387 0.0
N20 N 0.07239 0.79545 0.71965 0.0
C21 C 0.06352 0.83946 0.71891 0.0
H22 H 0.73629 0.37436 1.00817 0.0
H23 H 0.74134 0.48723 0.90773 0.0
H24 H 0.60753 0.34626 0.90001 0.0
C25 C 0.71871 0.38708 0.97785 0.0
C26 C 0.66891 0.35485 0.95642 0.0
C27 C 0.74531 0.43545 0.96185 0.0
C28 C 0.72195 0.45059 0.92084 0.0
C29 C 0.67214 0.41797 0.8978 0.0
C30 C 0.64613 0.3709 0.91674 0.0
N31 N 0.64471 0.4289 0.85633 0.0
C32 C 0.65537 0.47 0.82718 0.0
H33 H 0.85121 0.80919 0.49761 0.0
H34 H 0.98134 0.83795 0.40488 0.0
H35 H 0.84349 0.6991 0.39939 0.0
C36 C 0.86817 0.79777 0.46908 0.0
C37 C 0.83967 0.75068 0.45026 0.0
C38 C 0.9191 0.82988 0.45348 0.0
C39 C 0.94214 0.81364 0.41746 0.0
C40 C 0.91585 0.76684 0.39682 0.0
C41 C 0.86426 0.73507 0.41398 0.0
N42 N 0.94537 0.75532 0.36067 0.0
C43 C 0.93476 0.71714 0.32836 0.0
H44 H 0.72156 0.77888 0.86494 0.0
H45 H 0.62061 0.74789 0.98099 0.0
H46 H 0.58937 0.83607 0.87022 0.0
C47 C 0.68564 0.78046 0.88147 0.0
C48 C 0.6554 0.80825 0.86167 0.0
C49 C 0.67386 0.75913 0.92469 0.0
C50 C 0.62928 0.76346 0.94716 0.0
C51 C 0.59836 0.79079 0.92744 0.0
C52 C 0.61194 0.81361 0.88489 0.0
N53 N 0.55615 0.79751 0.95214 0.0
C54 C 0.55212 0.84315 0.95582 0.0
H55 H 0.97331 0.27285 0.37572 0.0
H56 H 1.002 0.36149 0.49527 0.0
H57 H 0.92473 0.3988 0.37187 0.0
C58 C 0.97376 0.30593 0.39151 0.0
C59 C 0.94968 0.33628 0.36736 0.0
C60 C 0.99209 0.31444 0.4376 0.0
C61 C 0.98924 0.35538 0.45921 0.0
C62 C 0.96488 0.38577 0.43566 0.0
C63 C 0.94491 0.37607 0.38975 0.0
N64 N 0.95715 0.42372 0.45967 0.0
C65 C 0.90564 0.42991 0.45778 0.0
H66 H 0.35775 0.80575 0.18747 0.0
H67 H 0.36193 0.69723 0.28896 0.0
H68 H 0.49221 0.84005 0.2922 0.0
C69 C 0.37896 0.79479 0.21666 0.0
C70 C 0.42935 0.82889 0.23607 0.0
C71 C 0.35446 0.74688 0.23414 0.0
C72 C 0.37985 0.73364 0.27492 0.0
C73 C 0.42955 0.7677 0.29661 0.0
C74 C 0.45352 0.81462 0.27639 0.0
N75 N 0.45887 0.75785 0.33763 0.0
C76 C 0.44824 0.71736 0.36772 0.0
H77 H 0.22106 0.37463 0.69363 0.0
H78 H 0.24098 0.48039 0.80016 0.0
H79 H 0.10596 0.33977 0.79917 0.0
C80 C 0.20807 0.38514 0.72477 0.0
C81 C 0.16083 0.35141 0.74423 0.0
C82 C 0.23893 0.43159 0.74428 0.0
C83 C 0.21853 0.44531 0.78436 0.0
C84 C 0.16967 0.41221 0.80458 0.0
C85 C 0.14261 0.36543 0.7841 0.0
N86 N 0.14541 0.42116 0.84542 0.0
C87 C 0.1534 0.46095 0.87526 0.0
Tb88 Tb 0.97744 0.07583 0.61148 0.0
Tb89 Tb 0.09287 0.10102 0.59753 0.0
C90 C 0.87467 0.03543 0.6254 0.0
C91 C 0.84087 0.99735 0.6559 0.0
C92 C 0.78591 0.96783 0.64124 0.0
C93 C 0.75173 0.93407 0.67123 0.0
C94 C 0.77215 0.92995 0.71628 0.0
C95 C 0.8277 0.95847 0.73044 0.0
C96 C 0.862 0.99168 0.70038 0.0
C97 C 0.04238 0.16055 0.65095 0.0
C98 C 0.04825 1.0247 0.67166 0.0
C99 C 0.19592 0.14445 0.58568 0.0
C100 C 0.22809 0.17452 0.54925 0.0
C101 C 0.2868 0.19451 0.55494 0.0
C102 C 0.31816 0.21919 0.51878 0.0
C103 C 0.29107 0.22402 0.47645 0.0
C104 C 0.23207 0.20588 0.47163 0.0
C105 C 0.20082 0.18097 0.50766 0.0
C106 C 0.03029 1.01685 0.55609 0.0
C107 C 0.01923 0.14886 0.53482 0.0
O108 O 0.89907 1.02128 0.59404 0.0
O109 O 0.90805 0.07562 0.64515 0.0
O110 O 0.0531 0.12138 0.65127 0.0
O111 O 0.99429 0.15207 0.62884 0.0
O112 O 0.99857 1.02146 0.65318 0.0
O113 O 0.09335 0.06155 0.66107 0.0
O114 O 0.16605 0.1633 0.60761 0.0
O115 O 0.16783 0.09906 0.57493 0.0
O116 O 1.01745 0.05502 0.55746 0.0
O117 O 0.07958 1.027 0.57647 0.0
O118 O 0.06988 0.15211 0.55117 0.0
O119 O 0.97446 0.11381 0.54827 0.0
H120 H 0.76906 0.97167 0.60696 0.0
H121 H 0.70892 0.9124 0.6598 0.0
H122 H 0.84429 0.95545 0.76501 0.0
H123 H 0.90452 1.01373 0.71225 0.0
H124 H 0.30842 0.18974 0.58687 0.0
H125 H 0.3636 0.23276 0.52329 0.0
H126 H 0.21015 0.20991 0.43962 0.0
H127 H 0.15554 0.16553 0.50257 0.0
Tb128 Tb 0.60194 0.09903 0.10355 0.0
Tb129 Tb 0.485 0.07765 0.07436 0.0
C130 C 0.70743 0.13198 0.11271 0.0
C131 C 0.74765 0.1632 0.14723 0.0
C132 C 0.7959 0.20057 0.13327 0.0
C133 C 0.83117 0.23446 0.16493 0.0
C134 C 0.81873 0.23117 0.21106 0.0
C135 C 0.77054 0.19337 0.22489 0.0
C136 C 0.7351 0.15987 0.19323 0.0
C137 C 0.531 1.02565 0.15111 0.0
C138 C 0.53449 0.14412 0.15853 0.0
C139 C 0.38101 0.04403 1.0546 0.0
C140 C 0.33874 0.99948 1.03551 0.0
C141 C 0.35255 0.9586 1.02718 0.0
C142 C 0.31485 0.91992 1.00138 0.0
C143 C 0.26314 0.92189 0.9835 0.0
C144 C 0.24776 0.96111 0.99547 0.0
C145 C 0.28547 0.99975 1.02117 0.0
C146 C 0.55266 0.16586 1.04704 0.0
C147 C 0.55099 1.02397 1.0231 0.0
O148 O 0.67789 0.15367 0.08908 0.0
O149 O 0.6766 0.08799 0.1255 0.0
O150 O 0.52763 0.03452 0.10882 0.0
O151 O 0.57606 0.05928 0.16849 0.0
O152 O 0.58401 0.15246 0.14293 0.0
O153 O 0.49023 0.10775 0.1421 0.0
O154 O 0.40392 0.04028 0.0953 0.0
O155 O 0.4179 0.06979 1.02628 0.0
O156 O 0.56229 0.12643 1.0476 0.0
O157 O 0.50317 0.15574 0.06129 0.0
O158 O 0.50187 1.02797 1.02834 0.0
O159 O 0.59671 0.05051 1.04754 0.0
H160 H 0.80541 0.20432 0.09763 0.0
H161 H 0.86738 0.26375 0.15315 0.0
H162 H 0.76016 0.18975 0.26031 0.0
H163 H 0.69739 0.13197 0.20456 0.0
H164 H 0.39352 0.95784 1.03839 0.0
H165 H 0.32799 0.89032 0.99269 0.0
H166 H 0.20791 0.96327 0.98261 0.0
H167 H 0.27416 0.03101 1.02772 0.0
Tb168 Tb 0.5523 0.6372 0.62636 0.0
Tb169 Tb 0.53802 0.54388 0.5785 0.0
C170 C 0.53791 0.70846 0.66164 0.0
C171 C 0.48719 0.71719 0.67304 0.0
C172 C 0.43886 0.70363 0.64283 0.0
C173 C 0.39014 0.7099 0.65511 0.0
C174 C 0.3886 0.729 0.69807 0.0
C175 C 0.43678 0.74225 0.72837 0.0
C176 C 0.48581 0.73665 0.71581 0.0
C177 C 0.6038 0.5821 0.67026 0.0
C178 C 0.44008 0.5417 0.64009 0.0
C179 C 0.56367 0.47113 0.56321 0.0
C180 C 0.60961 0.46607 0.53833 0.0
C181 C 0.6641 0.50134 0.54369 0.0
C182 C 0.70865 0.49546 0.52312 0.0
C183 C 0.70007 0.45411 0.49663 0.0
C184 C 0.64547 0.41895 0.49065 0.0
C185 C 0.6005 0.42503 0.51119 0.0
C186 C 0.49745 0.59749 0.51963 0.0
C187 C 0.64133 0.64219 0.55544 0.0
O188 O 0.54487 0.70576 0.61825 0.0
O189 O 0.54882 0.67436 0.68552 0.0
O190 O 0.55621 0.56834 0.64822 0.0
O191 O 0.62484 0.62934 0.66696 0.0
O192 O 0.46534 0.59006 0.64261 0.0
O193 O 0.46186 0.51514 0.61704 0.0
O194 O 0.58024 0.49743 0.60035 0.0
O195 O 0.52372 0.4809 0.53908 0.0
O196 O 0.51859 0.60801 0.56048 0.0
O197 O 0.49583 0.55361 0.51245 0.0
O198 O 0.6207 0.59377 0.5566 0.0
O199 O 0.61862 0.66777 0.57848 0.0
H200 H 0.43833 0.68745 0.61003 0.0
H201 H 0.35323 0.69877 0.63148 0.0
H202 H 0.43657 0.75724 0.76163 0.0
H203 H 0.52248 0.74693 0.73973 0.0
H204 H 0.67296 0.5329 0.56514 0.0
H205 H 0.75037 0.52245 0.5296 0.0
H206 H 0.63778 0.38651 0.47064 0.0
H207 H 0.55899 0.39721 0.50675 0.0
Tb208 Tb 0.05114 0.63407 0.07375 0.0
Tb209 Tb 0.04615 0.54603 0.13288 0.0
C210 C 0.02219 0.69464 1.02635 0.0
C211 C 0.96807 0.7016 1.01874 0.0
C212 C 0.91735 0.6622 1.02355 0.0
C213 C 0.86589 0.66794 1.013 0.0
C214 C 0.86439 0.71331 0.99806 0.0
C215 C 0.91515 0.75308 0.99487 0.0
C216 C 0.96665 0.74718 1.00493 0.0
C217 C 0.14885 0.64212 0.11946 0.0
C218 C 0.99883 0.62182 0.17446 0.0
C219 C 0.07727 0.49106 0.18683 0.0
C220 C 0.13117 0.48518 0.19887 0.0
C221 C 0.18086 0.51737 0.18149 0.0
C222 C 0.23157 0.50998 0.19127 0.0
C223 C 0.23327 0.4703 0.21859 0.0
C224 C 0.18341 0.43859 0.23638 0.0
C225 C 0.13277 0.44602 0.22661 0.0
C226 C 0.94921 0.52596 0.08096 0.0
C227 C 0.09119 0.55493 1.03127 0.0
O228 O 0.02298 0.65387 1.0103 0.0
O229 O 0.04706 0.70432 0.0674 0.0
O230 O 0.0998 0.62171 0.13257 0.0
O231 O 0.14365 0.66185 0.07995 0.0
O232 O 1.00669 0.64457 0.13384 0.0
O233 O 1.01175 0.58205 0.18184 0.0
O234 O 0.07366 0.53216 0.19914 0.0
O235 O 0.0565 0.47901 0.14498 0.0
O236 O 0.99236 0.56403 0.08301 0.0
O237 O 0.95863 0.49737 0.11237 0.0
O238 O 0.09508 0.53974 0.07438 0.0
O239 O 0.06889 0.58892 1.02222 0.0
H240 H 0.91758 0.62676 1.03465 0.0
H241 H 0.82732 0.63691 1.01618 0.0
H242 H 0.91496 0.78838 0.98325 0.0
H243 H 1.00532 0.77795 1.00112 0.0
H244 H 0.18017 0.54762 0.1597 0.0
H245 H 0.26906 0.53442 0.17635 0.0
H246 H 0.18356 0.40779 0.25757 0.0
H247 H 0.09471 0.4208 0.24019 0.0
C248 C 0.40354 0.30836 0.40346 0.0
C249 C 0.39352 0.28244 0.36224 0.0
C250 C 0.36975 0.28964 0.44021 0.0
C251 C 0.32444 0.24478 0.4366 0.0
H252 H 0.43854 0.34266 0.40767 0.0
H253 H 0.37926 0.31023 0.47171 0.0
S254 S 0.27966 0.16404 0.33509 0.0
N255 N 0.33408 0.21085 0.31919 0.0
N256 N 0.27117 0.17529 0.38832 0.0
C257 C 0.31339 0.21914 0.39515 0.0
C258 C 0.3478 0.23807 0.35795 0.0
C259 C 0.19274 0.88073 0.86662 0.0
C260 C 0.18556 0.83107 0.86637 0.0
C261 C 0.21502 0.90901 0.90565 0.0
C262 C 0.2307 0.88868 0.94605 0.0
H263 H 0.18384 0.89851 0.83568 0.0
H264 H 0.22284 0.94774 0.90323 0.0
S265 S 0.21264 0.75862 0.96473 0.0
N266 N 0.19066 0.7614 0.91067 0.0
N267 N 0.23189 0.81464 0.98482 0.0
C268 C 0.22072 0.83837 0.94704 0.0
C269 C 0.19831 0.80955 0.907 0.0
C270 C 0.59484 0.48107 0.76009 0.0
C271 C 0.64547 0.4996 0.78774 0.0
C272 C 0.5825 0.50715 0.72193 0.0
C273 C 0.62006 0.55351 0.70933 0.0
H274 H 0.56401 0.44583 0.76814 0.0
H275 H 0.54257 0.49101 0.70255 0.0
S276 S 0.75996 0.61792 0.76898 0.0
N277 N 0.73455 0.56671 0.79846 0.0
N278 N 0.71151 0.61603 0.72779 0.0
C279 C 0.67132 0.57224 0.73646 0.0
C280 C 0.68398 0.54536 0.77524 0.0
C281 C 0.94904 0.7087 0.24445 0.0
C282 C 0.94352 0.68895 0.28927 0.0
C283 C 0.96514 0.68648 0.2079 0.0
C284 C 0.97723 0.64305 0.2137 0.0
H285 H 0.94226 0.74266 0.23764 0.0
H286 H 0.96932 0.70438 0.17484 0.0
S287 S 0.96878 0.57572 0.32448 0.0
N288 N 0.95134 0.62266 0.3369 0.0
N289 N 0.98093 0.58112 0.26964 0.0
C290 C 0.97091 0.62256 0.25846 0.0
C291 C 0.95447 0.64531 0.2956 0.0
C292 C 0.46162 0.20307 0.23256 0.0
C293 C 0.50322 0.24866 0.24342 0.0
C294 C 0.47296 0.16887 0.2068 0.0
C295 C 0.52649 0.17874 0.19072 0.0
H296 H 0.4192 0.19426 0.24282 0.0
H297 H 0.43885 0.13493 0.19845 0.0
S298 S 0.65164 0.29125 0.21358 0.0
N299 N 0.601 0.30085 0.239 0.0
N300 N 0.62282 0.2366 0.1903 0.0
C301 C 0.56924 0.22354 0.20289 0.0
C302 C 0.55747 0.25857 0.22911 0.0
C303 C 1.00807 0.89284 0.709 0.0
C304 C 0.06027 0.88746 0.71572 0.0
C305 C 1.00469 0.93871 0.69902 0.0
C306 C 0.05351 0.98065 0.69481 0.0
H307 H 0.96965 0.86117 0.70947 0.0
H308 H 0.96334 0.94058 0.69187 0.0
S309 S 0.20042 0.98532 0.71586 0.0
N310 N 0.16153 0.92726 0.72273 0.0
N311 N 0.15585 1.01369 0.70353 0.0
C312 C 0.10603 0.97584 0.70494 0.0
C313 C 0.10923 0.92906 0.71531 0.0
C314 C 0.79585 0.4655 1.03874 0.0
C315 C 0.79611 0.46837 0.99049 0.0
C316 C 0.84493 0.48659 0.06739 0.0
C317 C 0.89681 0.51343 1.04971 0.0
H318 H 0.75756 0.44465 1.05478 0.0
H319 H 0.84248 0.48045 0.10392 0.0
S320 S 0.92098 0.53765 0.92666 0.0
N321 N 0.85347 0.50378 0.92673 0.0
N322 N 0.94494 0.54523 0.98086 0.0
C323 C 0.89735 0.52017 1.0019 0.0
C324 C 0.84729 0.49752 0.97233 0.0
C325 C 0.77617 0.67249 0.489 0.0
C326 C 0.78489 0.71959 0.47089 0.0
C327 C 0.72973 0.64744 0.51557 0.0
C328 C 0.69004 0.66843 0.52598 0.0
H329 H 0.80662 0.65557 0.48416 0.0
H330 H 0.72599 0.61188 0.52923 0.0
S331 S 0.6887 0.78778 0.48149 0.0
N332 N 0.74536 0.78342 0.46141 0.0
N333 N 0.66041 0.73758 0.51156 0.0
C334 C 0.6971 0.71451 0.50638 0.0
C335 C 0.7436 0.73957 0.47892 0.0
C336 C 0.33453 0.40206 0.22414 0.0
C337 C 0.38596 0.43814 0.23806 0.0
C338 C 0.28533 0.41279 0.21839 0.0
C339 C 0.28602 0.46004 0.22631 0.0
H340 H 0.33234 0.36533 0.21738 0.0
H341 H 0.2466 0.38403 0.20692 0.0
S342 S 0.41055 0.56661 0.26564 0.0
N343 N 0.43527 0.52225 0.26106 0.0
N344 N 0.34264 0.54272 0.2506 0.0
C345 C 0.33745 0.49633 0.24082 0.0
C346 C 0.38754 0.48525 0.24671 0.0
C347 C 0.58917 0.29614 0.99911 0.0
C348 C 0.63936 0.30544 0.97744 0.0
C349 C 0.56235 0.25132 1.0215 0.0
C350 C 0.5838 0.2131 1.02291 0.0
H351 H 0.57094 0.32416 0.99949 0.0
H352 H 0.52421 0.2467 1.03798 0.0
S353 S 0.71303 0.21807 0.96948 0.0
N354 N 0.70926 0.27233 0.95836 0.0
N355 N 0.65791 0.18777 0.99852 0.0
C356 C 0.63355 0.22169 1.00062 0.0
C357 C 0.66146 0.26779 0.97848 0.0
C358 C 0.91951 0.91091 0.48538 0.0
C359 C 0.94864 0.87936 0.47672 0.0
C360 C 0.94573 0.95573 0.50953 0.0
C361 C 1.00222 0.97094 0.52724 0.0
H362 H 0.87575 0.90079 0.47342 0.0
H363 H 0.9211 0.97802 0.51519 0.0
S364 S 0.09719 0.90151 0.51549 0.0
N365 N 0.03752 0.86735 0.48869 0.0
N366 N 0.08605 0.94952 0.53399 0.0
C367 C 0.03162 0.9396 0.51872 0.0
C368 C 1.00524 0.89464 0.49362 0.0
C369 C 0.26651 0.72267 0.76731 0.0
C370 C 0.24136 0.75146 0.7415 0.0
C371 C 0.31353 0.71483 0.75264 0.0
C372 C 0.33683 0.73514 0.71146 0.0
H373 H 0.25044 0.70697 0.79962 0.0
H374 H 0.33217 0.69312 0.77388 0.0
S375 S 0.28787 0.81386 0.63163 0.0
N376 N 0.24421 0.80094 0.67297 0.0
N377 N 0.33168 0.78504 0.64504 0.0
C378 C 0.31142 0.7629 0.68474 0.0
C379 C 0.26387 0.7713 0.69982 0.0
C380 C 0.69648 0.88907 0.82442 0.0
C381 C 0.676 0.838 0.82079 0.0
C382 C 0.72599 0.91858 0.78956 0.0
C383 C 0.73527 0.89799 0.74971 0.0
H384 H 0.69227 0.90624 0.85544 0.0
H385 H 0.74307 0.95776 0.79431 0.0
S386 S 0.68574 0.76641 0.72199 0.0
N387 N 0.66385 0.76805 0.77335 0.0
N388 N 0.71866 0.82384 0.70714 0.0
C389 C 0.71239 0.84713 0.74453 0.0
C390 C 0.68296 0.817 0.78035 0.0
C391 C 0.86337 0.31292 0.31487 0.0
C392 C 0.92083 0.32047 0.32185 0.0
C393 C 0.83129 0.28641 0.27725 0.0
C394 C 0.85553 0.26646 0.24537 0.0
H395 H 0.84215 0.32459 0.34024 0.0
H396 H 0.78662 0.27957 0.27423 0.0
S397 S 1.00623 0.28261 0.24479 0.0
N398 N 1.00228 0.31166 0.291 0.0
N399 N 0.9417 0.26054 0.22073 0.0
C400 C 0.91385 0.27712 0.25002 0.0
C401 C 0.94656 0.3044 0.28823 0.0
C402 C 0.45215 0.63783 0.40078 0.0
C403 C 0.45463 0.68593 0.40702 0.0
C404 C 0.46476 0.60996 0.43754 0.0
C405 C 0.48121 0.62864 0.48258 0.0
H406 H 0.4415 0.62181 0.36701 0.0
H407 H 0.46267 0.57342 0.43016 0.0
S408 S 0.4938 0.75284 0.51723 0.0
N409 N 0.47425 0.75089 0.46214 0.0
N410 N 0.498 0.69911 0.5302 0.0
C411 C 0.48315 0.67657 0.48913 0.0
C412 C 0.46998 0.70489 0.45176 0.0
C413 C 0.1166 0.5227 0.90787 0.0
C414 C 0.14448 0.48898 0.91446 0.0
C415 C 0.10097 0.54426 0.94522 0.0
C416 C 0.1115 0.5331 0.99174 0.0
H417 H 0.10544 0.53178 0.87337 0.0
H418 H 0.07909 0.56924 0.9373 0.0
S419 S 0.1837 0.44696 1.02828 0.0
N420 N 0.18207 0.4459 0.97188 0.0
N421 N 0.15323 0.48548 1.04097 0.0
C422 C 0.13997 0.49972 0.99859 0.0
C423 C 0.15608 0.47803 0.96055 0.0
C424 C 0.60095 0.92415 0.98873 0.0
C425 C 0.55329 0.89138 0.9653 0.0
C426 C 0.60116 0.96883 1.00416 0.0
C427 C 0.55334 0.98212 0.99711 0.0
H428 H 0.63764 0.9144 0.99681 0.0
H429 H 0.63823 0.99175 1.02397 0.0
S430 S 0.42104 0.91105 0.93061 0.0
N431 N 0.45959 0.87641 0.93082 0.0
N432 N 0.45933 0.96059 0.95971 0.0
C433 C 0.50664 0.95067 0.97078 0.0
C434 C 0.50671 0.90511 0.95499 0.0
C435 C 0.04637 0.2593 0.45634 0.0
C436 C 1.00191 0.27476 0.46468 0.0
C437 C 0.05192 0.21817 0.47888 0.0
C438 C 1.01189 0.19032 0.50895 0.0
H439 H 0.07681 0.27903 0.43222 0.0
H440 H 0.08718 0.20775 0.47226 0.0
S441 S 0.88797 0.21639 0.54205 0.0
N442 N 0.918 0.25996 0.50528 0.0
N443 N 0.92707 0.18219 0.54654 0.0
C444 C 0.96717 0.20559 0.51723 0.0
C445 C 0.96252 0.24794 0.49534 0.0
C446 C 0.30262 0.71123 0.15905 0.0
C447 C 0.30325 0.71221 0.2073 0.0
C448 C 0.25334 0.68677 0.13155 0.0
C449 C 0.20174 0.66144 0.15058 0.0
H450 H 0.34049 0.73113 0.14205 0.0
H451 H 0.25544 0.68907 0.09475 0.0
S452 S 0.18031 0.64826 0.27499 0.0
N453 N 0.24749 0.68239 0.27287 0.0
N454 N 0.15532 0.63593 0.2214 0.0
C455 C 0.20214 0.6595 0.19884 0.0
C456 C 0.2526 0.68479 0.22703 0.0
C457 C 0.3273 0.44025 0.70379 0.0
C458 C 0.29255 0.4629 0.72144 0.0
C459 C 0.37326 0.46563 0.6774 0.0
C460 C 0.38867 0.51584 0.66733 0.0
H461 H 0.31877 0.40184 0.71016 0.0
H462 H 0.3974 0.44538 0.66517 0.0
S463 S 0.31451 0.59442 0.70643 0.0
N464 N 0.27867 0.54 0.72702 0.0
N465 N 0.36572 0.58793 0.67919 0.0
C466 C 0.35569 0.53969 0.68592 0.0
C467 C 0.308 0.51344 0.71247 0.0
C468 C 0.74962 0.76694 0.98539 0.0
C469 C 0.7147 0.74023 0.94871 0.0
C470 C 0.79693 0.75678 1.00244 0.0
C471 C 0.81036 0.71914 0.98378 0.0
H472 H 0.74216 0.79769 0.99919 0.0
H473 H 0.82418 0.77947 1.02945 0.0
S474 S 0.7294 0.63622 0.88984 0.0
N475 N 0.69467 0.67318 0.89589 0.0
N476 N 0.78302 0.65323 0.92852 0.0
C477 C 0.77396 0.69048 0.94877 0.0
C478 C 0.72628 0.70131 0.93101 0.0
C479 C 0.48174 0.9218 0.2404 0.0
C480 C 0.45615 0.87902 0.21384 0.0
C481 C 0.50544 0.9687 0.22018 0.0
C482 C 0.50431 0.97558 0.17229 0.0
H483 H 0.4829 0.91926 0.27734 0.0
H484 H 0.52446 0.99998 0.24238 0.0
S485 S 0.44777 0.87628 0.0864 0.0
N486 N 0.43619 0.84757 0.13601 0.0
N487 N 0.47775 0.93475 0.09886 0.0
C488 C 0.47951 0.93328 0.14529 0.0
C489 C 0.45633 0.88554 0.16573 0.0
C490 C 0.13297 0.25813 0.73977 0.0
C491 C 0.13001 0.30228 0.72116 0.0
C492 C 0.10679 0.21261 0.71669 0.0
C493 C 0.0755 0.20895 0.67426 0.0
H494 H 0.15624 0.25884 0.77228 0.0
H495 H 0.11001 0.17996 0.73273 0.0
S496 S 0.05627 0.31347 0.60994 0.0
N497 N 0.09475 0.33877 0.65659 0.0
N498 N 0.04479 0.25456 0.61452 0.0
C499 C 0.07265 0.25293 0.65545 0.0
C500 C 0.1 0.29903 0.67839 0.0
C501 C 0.80837 0.39634 0.48054 0.0
C502 C 0.85167 0.43443 0.46104 0.0
C503 C 0.75786 0.40196 0.48947 0.0
C504 C 0.74931 0.44603 0.47941 0.0
H505 H 0.81432 0.36261 0.49047 0.0
H506 H 0.72654 0.37253 0.50652 0.0
S507 S 0.84842 0.55482 0.4235 0.0
N508 N 0.88196 0.51603 0.42875 0.0
N509 N 0.78695 0.52683 0.44506 0.0
C510 C 0.79158 0.48349 0.45772 0.0
C511 C 0.84289 0.47764 0.44865 0.0
loop_
_geom_bond_atom_site_label_1
_geom_bond_atom_site_label_2
_geom_bond_distance
_geom_bond_site_symmetry_2
_ccdc_geom_bond_type
H0 C3 0.929 . S
H1 C6 0.929 . S
H2 C8 0.930 . S
C3 H0 0.929 . S
C3 C4 1.398 . S
C3 C5 1.396 . S
C4 C3 1.398 . S
C4 C8 1.407 . S
C5 C3 1.396 . S
C5 C6 1.394 . S
C6 H1 0.929 . S
C6 C5 1.394 . S
C6 C7 1.382 . S
C7 C6 1.382 . S
C7 C8 1.392 . S
C7 N9 1.420 . S
C8 H2 0.930 . S
C8 C4 1.407 . S
C8 C7 1.392 . S
N9 C7 1.420 . S
N9 C10 1.244 . S
C10 N9 1.244 . S
H11 C14 0.929 . S
H12 C17 0.929 . S
H13 C19 0.930 . S
C14 H11 0.929 . S
C14 C15 1.398 . S
C14 C16 1.396 . S
C15 C14 1.398 . S
C15 C19 1.407 . S
C16 C14 1.396 . S
C16 C17 1.394 . S
C17 H12 0.929 . S
C17 C16 1.394 . S
C17 C18 1.382 . S
C18 C17 1.382 . S
C18 C19 1.392 . S
C18 N20 1.420 . S
C19 H13 0.930 . S
C19 C15 1.407 . S
C19 C18 1.392 . S
N20 C18 1.420 . S
N20 C21 1.227 1_455 S
C21 N20 1.227 1_655 S
H22 C25 0.929 . S
H23 C28 0.929 . S
H24 C30 0.930 . S
C25 H22 0.929 . S
C25 C26 1.398 . S
C25 C27 1.396 . S
C26 C25 1.398 . S
C26 C30 1.407 . S
C27 C25 1.396 . S
C27 C28 1.394 . S
C28 H23 0.929 . S
C28 C27 1.394 . S
C28 C29 1.382 . S
C29 C28 1.382 . S
C29 C30 1.392 . S
C29 N31 1.420 . S
C30 H24 0.930 . S
C30 C26 1.407 . S
C30 C29 1.392 . S
N31 C29 1.420 . S
N31 C32 1.244 . S
C32 N31 1.244 . S
H33 C36 0.929 . S
H34 C39 0.929 . S
H35 C41 0.930 . S
C36 H33 0.929 . S
C36 C37 1.398 . S
C36 C38 1.396 . S
C37 C36 1.398 . S
C37 C41 1.407 . S
C38 C36 1.396 . S
C38 C39 1.394 . S
C39 H34 0.929 . S
C39 C38 1.394 . S
C39 C40 1.382 . S
C40 C39 1.382 . S
C40 C41 1.392 . S
C40 N42 1.420 . S
C41 H35 0.930 . S
C41 C37 1.407 . S
C41 C40 1.392 . S
N42 C40 1.420 . S
N42 C43 1.244 . S
C43 N42 1.244 . S
H44 C47 0.929 . S
H45 C50 0.929 . S
H46 C52 0.930 . S
C47 H44 0.929 . S
C47 C48 1.398 . S
C47 C49 1.396 . S
C48 C47 1.398 . S
C48 C52 1.407 . S
C49 C47 1.396 . S
C49 C50 1.394 . S
C50 H45 0.929 . S
C50 C49 1.394 . S
C50 C51 1.382 . S
C51 C50 1.382 . S
C51 C52 1.392 . S
C51 N53 1.420 . S
C52 H46 0.930 . S
C52 C48 1.407 . S
C52 C51 1.392 . S
N53 C51 1.420 . S
N53 C54 1.244 . S
C54 N53 1.244 . S
H55 C58 0.929 . S
H56 C61 0.929 . S
H57 C63 0.930 . S
C58 H55 0.929 . S
C58 C59 1.398 . S
C58 C60 1.396 . S
C59 C58 1.398 . S
C59 C63 1.407 . S
C60 C58 1.396 . S
C60 C61 1.394 . S
C61 H56 0.929 . S
C61 C60 1.394 . S
C61 C62 1.382 . S
C62 C61 1.382 . S
C62 C63 1.392 . S
C62 N64 1.420 . S
C63 H57 0.930 . S
C63 C59 1.407 . S
C63 C62 1.392 . S
N64 C62 1.420 . S
N64 C65 1.244 . S
C65 N64 1.244 . S
H66 C69 0.929 . S
H67 C72 0.929 . S
H68 C74 0.930 . S
C69 H66 0.929 . S
C69 C70 1.398 . S
C69 C71 1.396 . S
C70 C69 1.398 . S
C70 C74 1.407 . S
C71 C69 1.396 . S
C71 C72 1.394 . S
C72 H67 0.929 . S
C72 C71 1.394 . S
C72 C73 1.382 . S
C73 C72 1.382 . S
C73 C74 1.392 . S
C73 N75 1.420 . S
C74 H68 0.930 . S
C74 C70 1.407 . S
C74 C73 1.392 . S
N75 C73 1.420 . S
N75 C76 1.244 . S
C76 N75 1.244 . S
H77 C80 0.929 . S
H78 C83 0.929 . S
H79 C85 0.930 . S
C80 H77 0.929 . S
C80 C81 1.398 . S
C80 C82 1.396 . S
C81 C80 1.398 . S
C81 C85 1.407 . S
C82 C80 1.396 . S
C82 C83 1.394 . S
C83 H78 0.929 . S
C83 C82 1.394 . S
C83 C84 1.382 . S
C84 C83 1.382 . S
C84 C85 1.392 . S
C84 N86 1.420 . S
C85 H79 0.930 . S
C85 C81 1.407 . S
C85 C84 1.392 . S
N86 C84 1.420 . S
N86 C87 1.244 . S
C87 N86 1.244 . S
Tb88 C90 2.809 1_545 S
Tb88 O108 2.484 1_545 S
Tb88 O109 2.440 . S
Tb88 O110 2.658 1_655 S
Tb88 O111 2.409 1_655 S
Tb88 O112 2.378 1_645 S
Tb88 O116 2.325 1_545 S
Tb88 O119 2.341 . S
Tb89 C99 2.809 . S
Tb89 O110 2.325 . S
Tb89 O113 2.341 1_545 S
Tb89 O114 2.484 . S
Tb89 O115 2.440 . S
Tb89 O116 2.658 1_445 S
Tb89 O117 2.409 1_545 S
Tb89 O118 2.378 . S
C90 Tb88 2.809 1_565 S
C90 C91 1.514 . S
C90 O108 1.248 . S
C90 O109 1.266 1_565 S
C91 C90 1.514 . S
C91 C92 1.359 . S
C91 C96 1.348 . S
C92 C91 1.359 . S
C92 C93 1.380 . S
C92 H120 0.929 . S
C93 C92 1.380 . S
C93 C94 1.347 . S
C93 H121 0.931 . S
C94 C93 1.347 . S
C94 C95 1.369 . S
C95 C94 1.369 . S
C95 C96 1.408 . S
C95 H122 0.930 . S
C96 C91 1.348 . S
C96 C95 1.408 . S
C96 H123 0.930 . S
C97 O110 1.281 . S
C97 O111 1.254 . S
C98 O112 1.236 . S
C98 O113 1.266 . S
C99 Tb89 2.809 . S
C99 C100 1.514 . S
C99 O114 1.248 . S
C99 O115 1.266 . S
C100 C99 1.514 . S
C100 C101 1.359 . S
C100 C105 1.348 . S
C101 C100 1.359 . S
C101 C102 1.380 . S
C101 H124 0.929 . S
C102 C101 1.380 . S
C102 C103 1.347 . S
C102 H125 0.931 . S
C103 C102 1.347 . S
C103 C104 1.369 . S
C104 C103 1.369 . S
C104 C105 1.408 . S
C104 H126 0.930 . S
C105 C100 1.348 . S
C105 C104 1.408 . S
C105 H127 0.930 . S
C106 O116 1.281 . S
C106 O117 1.254 1_655 S
C107 O118 1.236 1_655 S
C107 O119 1.266 . S
O108 Tb88 2.484 1_565 S
O108 C90 1.248 . S
O109 Tb88 2.440 . S
O109 C90 1.266 1_545 S
O110 Tb88 2.658 1_455 S
O110 Tb89 2.325 . S
O110 C97 1.281 . S
O111 Tb88 2.409 1_455 S
O111 C97 1.254 . S
O112 Tb88 2.378 1_465 S
O112 C98 1.236 . S
O113 Tb89 2.341 1_565 S
O113 C98 1.266 . S
O114 Tb89 2.484 . S
O114 C99 1.248 . S
O115 Tb89 2.440 . S
O115 C99 1.266 . S
O116 Tb88 2.325 1_565 S
O116 Tb89 2.658 1_665 S
O116 C106 1.281 . S
O117 Tb89 2.409 1_565 S
O117 C106 1.254 1_455 S
O118 Tb89 2.378 . S
O118 C107 1.236 1_455 S
O119 Tb88 2.341 . S
O119 C107 1.266 . S
H120 C92 0.929 . S
H121 C93 0.931 . S
H122 C95 0.930 . S
H123 C96 0.930 . S
H124 C101 0.929 . S
H125 C102 0.931 . S
H126 C104 0.930 . S
H127 C105 0.930 . S
Tb128 C130 2.809 . S
Tb128 O148 2.484 . S
Tb128 O149 2.440 . S
Tb128 O150 2.658 1_545 S
Tb128 O151 2.409 1_545 S
Tb128 O152 2.378 . S
Tb128 O156 2.325 . S
Tb128 O159 2.341 1_545 S
Tb129 C139 2.809 1_544 S
Tb129 O150 2.325 1_545 S
Tb129 O153 2.341 . S
Tb129 O154 2.484 1_544 S
Tb129 O155 2.440 1_544 S
Tb129 O156 2.658 . S
Tb129 O157 2.409 1_554 S
Tb129 O158 2.378 1_544 S
C130 Tb128 2.809 . S
C130 C131 1.514 . S
C130 O148 1.248 . S
C130 O149 1.266 . S
C131 C130 1.514 . S
C131 C132 1.359 . S
C131 C136 1.348 . S
C132 C131 1.359 . S
C132 C133 1.380 . S
C132 H160 0.929 . S
C133 C132 1.380 . S
C133 C134 1.347 . S
C133 H161 0.931 . S
C134 C133 1.347 . S
C134 C135 1.369 . S
C135 C134 1.369 . S
C135 C136 1.408 . S
C135 H162 0.930 . S
C136 C131 1.348 . S
C136 C135 1.408 . S
C136 H163 0.930 . S
C137 O150 1.281 . S
C137 O151 1.254 . S
C138 O152 1.236 . S
C138 O153 1.266 . S
C139 Tb129 2.809 1_566 S
C139 C140 1.514 . S
C139 O154 1.248 . S
C139 O155 1.266 . S
C140 C139 1.514 . S
C140 C141 1.359 . S
C140 C145 1.348 . S
C141 C140 1.359 . S
C141 C142 1.380 . S
C141 H164 0.929 . S
C142 C141 1.380 . S
C142 C143 1.347 . S
C142 H165 0.931 . S
C143 C142 1.347 . S
C143 C144 1.369 . S
C144 C143 1.369 . S
C144 C145 1.408 . S
C144 H166 0.930 . S
C145 C140 1.348 . S
C145 C144 1.408 . S
C145 H167 0.930 . S
C146 O156 1.281 . S
C146 O157 1.254 1_554 S
C147 O158 1.236 1_554 S
C147 O159 1.266 . S
O148 Tb128 2.484 . S
O148 C130 1.248 . S
O149 Tb128 2.440 . S
O149 C130 1.266 . S
O150 Tb128 2.658 1_565 S
O150 Tb129 2.325 1_565 S
O150 C137 1.281 . S
O151 Tb128 2.409 1_565 S
O151 C137 1.254 . S
O152 Tb128 2.378 . S
O152 C138 1.236 . S
O153 Tb129 2.341 . S
O153 C138 1.266 . S
O154 Tb129 2.484 1_566 S
O154 C139 1.248 . S
O155 Tb129 2.440 1_566 S
O155 C139 1.266 . S
O156 Tb128 2.325 . S
O156 Tb129 2.658 . S
O156 C146 1.281 . S
O157 Tb129 2.409 1_556 S
O157 C146 1.254 1_556 S
O158 Tb129 2.378 1_566 S
O158 C147 1.236 1_556 S
O159 Tb128 2.341 1_565 S
O159 C147 1.266 . S
H160 C132 0.929 . S
H161 C133 0.931 . S
H162 C135 0.930 . S
H163 C136 0.930 . S
H164 C141 0.929 . S
H165 C142 0.931 . S
H166 C144 0.930 . S
H167 C145 0.930 . S
Tb168 C170 2.809 . S
Tb168 O188 2.484 . S
Tb168 O189 2.440 . S
Tb168 O190 2.658 . S
Tb168 O191 2.409 . S
Tb168 O192 2.378 . S
Tb168 O196 2.325 . S
Tb168 O199 2.341 . S
Tb169 C179 2.809 . S
Tb169 O190 2.325 . S
Tb169 O193 2.341 . S
Tb169 O194 2.484 . S
Tb169 O195 2.440 . S
Tb169 O196 2.658 . S
Tb169 O197 2.409 . S
Tb169 O198 2.378 . S
C170 Tb168 2.809 . S
C170 C171 1.514 . S
C170 O188 1.248 . S
C170 O189 1.266 . S
C171 C170 1.514 . S
C171 C172 1.359 . S
C171 C176 1.348 . S
C172 C171 1.359 . S
C172 C173 1.380 . S
C172 H200 0.929 . S
C173 C172 1.380 . S
C173 C174 1.347 . S
C173 H201 0.931 . S
C174 C173 1.347 . S
C174 C175 1.369 . S
C175 C174 1.369 . S
C175 C176 1.408 . S
C175 H202 0.930 . S
C176 C171 1.348 . S
C176 C175 1.408 . S
C176 H203 0.930 . S
C177 O190 1.281 . S
C177 O191 1.254 . S
C178 O192 1.236 . S
C178 O193 1.266 . S
C179 Tb169 2.809 . S
C179 C180 1.514 . S
C179 O194 1.248 . S
C179 O195 1.266 . S
C180 C179 1.514 . S
C180 C181 1.359 . S
C180 C185 1.348 . S
C181 C180 1.359 . S
C181 C182 1.380 . S
C181 H204 0.929 . S
C182 C181 1.380 . S
C182 C183 1.347 . S
C182 H205 0.931 . S
C183 C182 1.347 . S
C183 C184 1.369 . S
C184 C183 1.369 . S
C184 C185 1.408 . S
C184 H206 0.930 . S
C185 C180 1.348 . S
C185 C184 1.408 . S
C185 H207 0.930 . S
C186 O196 1.281 . S
C186 O197 1.254 . S
C187 O198 1.236 . S
C187 O199 1.266 . S
O188 Tb168 2.484 . S
O188 C170 1.248 . S
O189 Tb168 2.440 . S
O189 C170 1.266 . S
O190 Tb168 2.658 . S
O190 Tb169 2.325 . S
O190 C177 1.281 . S
O191 Tb168 2.409 . S
O191 C177 1.254 . S
O192 Tb168 2.378 . S
O192 C178 1.236 . S
O193 Tb169 2.341 . S
O193 C178 1.266 . S
O194 Tb169 2.484 . S
O194 C179 1.248 . S
O195 Tb169 2.440 . S
O195 C179 1.266 . S
O196 Tb168 2.325 . S
O196 Tb169 2.658 . S
O196 C186 1.281 . S
O197 Tb169 2.409 . S
O197 C186 1.254 . S
O198 Tb169 2.378 . S
O198 C187 1.236 . S
O199 Tb168 2.341 . S
O199 C187 1.266 . S
H200 C172 0.929 . S
H201 C173 0.931 . S
H202 C175 0.930 . S
H203 C176 0.930 . S
H204 C181 0.929 . S
H205 C182 0.931 . S
H206 C184 0.930 . S
H207 C185 0.930 . S
Tb208 C210 2.809 1_455 S
Tb208 O228 2.484 1_455 S
Tb208 O229 2.440 . S
Tb208 O230 2.658 1_556 S
Tb208 O231 2.409 1_556 S
Tb208 O232 2.378 1_556 S
Tb208 O236 2.325 1_455 S
Tb208 O239 2.341 . S
Tb209 C219 2.809 . S
Tb209 O230 2.325 . S
Tb209 O233 2.340 . S
Tb209 O234 2.484 . S
Tb209 O235 2.440 . S
Tb209 O236 2.658 1_454 S
Tb209 O237 2.409 1_455 S
Tb209 O238 2.378 1_554 S
C210 Tb208 2.809 1_655 S
C210 C211 1.514 . S
C210 O228 1.248 . S
C210 O229 1.266 1_655 S
C211 C210 1.514 . S
C211 C212 1.359 . S
C211 C216 1.348 . S
C212 C211 1.359 . S
C212 C213 1.380 . S
C212 H240 0.929 . S
C213 C212 1.380 . S
C213 C214 1.347 . S
C213 H241 0.931 . S
C214 C213 1.347 . S
C214 C215 1.369 . S
C215 C214 1.369 . S
C215 C216 1.408 . S
C215 H242 0.930 . S
C216 C211 1.348 . S
C216 C215 1.408 . S
C216 H243 0.930 1_655 S
C217 O230 1.281 . S
C217 O231 1.254 . S
C218 O232 1.236 1_655 S
C218 O233 1.266 1_655 S
C219 Tb209 2.809 . S
C219 C220 1.514 . S
C219 O234 1.248 . S
C219 O235 1.266 . S
C220 C219 1.514 . S
C220 C221 1.359 . S
C220 C225 1.348 . S
C221 C220 1.359 . S
C221 C222 1.380 . S
C221 H244 0.929 . S
C222 C221 1.380 . S
C222 C223 1.347 . S
C222 H245 0.931 . S
C223 C222 1.347 . S
C223 C224 1.369 . S
C224 C223 1.369 . S
C224 C225 1.408 . S
C224 H246 0.930 . S
C225 C220 1.348 . S
C225 C224 1.408 . S
C225 H247 0.930 . S
C226 O236 1.281 . S
C226 O237 1.254 1_556 S
C227 O238 1.236 . S
C227 O239 1.266 . S
O228 Tb208 2.484 1_655 S
O228 C210 1.248 . S
O229 Tb208 2.440 . S
O229 C210 1.266 1_455 S
O230 Tb208 2.658 1_554 S
O230 Tb209 2.325 . S
O230 C217 1.281 . S
O231 Tb208 2.409 1_554 S
O231 C217 1.254 . S
O232 Tb208 2.378 1_554 S
O232 C218 1.236 1_455 S
O233 Tb209 2.340 . S
O233 C218 1.266 1_455 S
O234 Tb209 2.484 . S
O234 C219 1.248 . S
O235 Tb209 2.440 . S
O235 C219 1.266 . S
O236 Tb208 2.325 1_655 S
O236 Tb209 2.658 1_656 S
O236 C226 1.281 . S
O237 Tb209 2.409 1_655 S
O237 C226 1.254 1_554 S
O238 Tb209 2.378 1_556 S
O238 C227 1.236 . S
O239 Tb208 2.341 . S
O239 C227 1.266 . S
H240 C212 0.929 . S
H241 C213 0.931 . S
H242 C215 0.930 . S
H243 C216 0.930 1_455 S
H244 C221 0.929 . S
H245 C222 0.931 . S
H246 C224 0.930 . S
H247 C225 0.930 . S
C248 C249 1.369 . S
C248 C250 1.419 . S
C248 H252 0.930 . S
C249 C248 1.369 . S
C249 C258 1.429 . S
C250 C248 1.419 . S
C250 C251 1.363 . S
C250 H253 0.929 . S
C251 C250 1.363 . S
C251 C257 1.428 . S
H252 C248 0.930 . S
H253 C250 0.929 . S
S254 N255 1.613 . S
S254 N256 1.610 . S
N255 S254 1.613 . S
N255 C258 1.350 . S
N256 S254 1.610 . S
N256 C257 1.351 . S
C257 C251 1.428 . S
C257 N256 1.351 . S
C257 C258 1.434 . S
C258 C249 1.429 . S
C258 N255 1.350 . S
C258 C257 1.434 . S
C259 C260 1.369 . S
C259 C261 1.419 . S
C259 H263 0.930 . S
C260 C259 1.369 . S
C260 C269 1.429 . S
C261 C259 1.419 . S
C261 C262 1.363 . S
C261 H264 0.929 . S
C262 C261 1.363 . S
C262 C268 1.428 . S
H263 C259 0.930 . S
H264 C261 0.929 . S
S265 N266 1.613 . S
S265 N267 1.610 . S
N266 S265 1.613 . S
N266 C269 1.350 . S
N267 S265 1.610 . S
N267 C268 1.351 . S
C268 C262 1.428 . S
C268 N267 1.351 . S
C268 C269 1.434 . S
C269 C260 1.429 . S
C269 N266 1.350 . S
C269 C268 1.434 . S
C270 C271 1.369 . S
C270 C272 1.419 . S
C270 H274 0.930 . S
C271 C270 1.369 . S
C271 C280 1.429 . S
C272 C270 1.419 . S
C272 C273 1.363 . S
C272 H275 0.929 . S
C273 C272 1.363 . S
C273 C279 1.428 . S
H274 C270 0.930 . S
H275 C272 0.929 . S
S276 N277 1.613 . S
S276 N278 1.610 . S
N277 S276 1.613 . S
N277 C280 1.350 . S
N278 S276 1.610 . S
N278 C279 1.351 . S
C279 C273 1.428 . S
C279 N278 1.351 . S
C279 C280 1.434 . S
C280 C271 1.429 . S
C280 N277 1.350 . S
C280 C279 1.434 . S
C281 C282 1.369 . S
C281 C283 1.419 . S
C281 H285 0.930 . S
C282 C281 1.369 . S
C282 C291 1.429 . S
C283 C281 1.419 . S
C283 C284 1.363 . S
C283 H286 0.929 . S
C284 C283 1.363 . S
C284 C290 1.428 . S
H285 C281 0.930 . S
H286 C283 0.929 . S
S287 N288 1.613 . S
S287 N289 1.610 . S
N288 S287 1.613 . S
N288 C291 1.350 1_455 S
N289 S287 1.610 . S
N289 C290 1.351 1_455 S
C290 C284 1.428 . S
C290 N289 1.351 1_655 S
C290 C291 1.434 . S
C291 C282 1.429 . S
C291 N288 1.350 1_655 S
C291 C290 1.434 . S
C292 C293 1.369 . S
C292 C294 1.419 . S
C292 H296 0.930 . S
C293 C292 1.369 . S
C293 C302 1.429 . S
C294 C292 1.419 . S
C294 C295 1.363 . S
C294 H297 0.929 . S
C295 C294 1.363 . S
C295 C301 1.428 . S
H296 C292 0.930 . S
H297 C294 0.929 . S
S298 N299 1.613 . S
S298 N300 1.610 . S
N299 S298 1.613 . S
N299 C302 1.350 . S
N300 S298 1.610 . S
N300 C301 1.351 . S
C301 C295 1.428 . S
C301 N300 1.351 . S
C301 C302 1.434 . S
C302 C293 1.429 . S
C302 N299 1.350 . S
C302 C301 1.434 . S
C303 C304 1.369 . S
C303 C305 1.419 . S
C303 H307 0.930 . S
C304 C303 1.369 . S
C304 C313 1.429 1_655 S
C305 C303 1.419 . S
C305 C306 1.363 1_655 S
C305 H308 0.929 . S
C306 C305 1.363 1_455 S
C306 C312 1.428 . S
H307 C303 0.930 . S
H308 C305 0.929 . S
S309 N310 1.613 . S
S309 N311 1.610 . S
N310 S309 1.613 . S
N310 C313 1.350 . S
N311 S309 1.610 . S
N311 C312 1.351 . S
C312 C306 1.428 . S
C312 N311 1.351 . S
C312 C313 1.434 . S
C313 C304 1.429 1_455 S
C313 N310 1.350 . S
C313 C312 1.434 . S
C314 C315 1.369 . S
C314 C316 1.419 . S
C314 H318 0.930 . S
C315 C314 1.369 . S
C315 C324 1.429 . S
C316 C314 1.419 . S
C316 C317 1.363 . S
C316 H319 0.929 . S
C317 C316 1.363 . S
C317 C323 1.428 . S
H318 C314 0.930 . S
H319 C316 0.929 . S
S320 N321 1.613 . S
S320 N322 1.610 . S
N321 S320 1.613 . S
N321 C324 1.350 . S
N322 S320 1.610 . S
N322 C323 1.351 . S
C323 C317 1.428 . S
C323 N322 1.351 . S
C323 C324 1.434 . S
C324 C315 1.429 . S
C324 N321 1.350 . S
C324 C323 1.434 . S
C325 C326 1.369 . S
C325 C327 1.419 . S
C325 H329 0.930 . S
C326 C325 1.369 . S
C326 C335 1.429 . S
C327 C325 1.419 . S
C327 C328 1.363 . S
C327 H330 0.929 . S
C328 C327 1.363 . S
C328 C334 1.428 . S
H329 C325 0.930 . S
H330 C327 0.929 . S
S331 N332 1.613 . S
S331 N333 1.610 . S
N332 S331 1.613 . S
N332 C335 1.350 . S
N333 S331 1.610 . S
N333 C334 1.351 . S
C334 C328 1.428 . S
C334 N333 1.351 . S
C334 C335 1.434 . S
C335 C326 1.429 . S
C335 N332 1.350 . S
C335 C334 1.434 . S
C336 C337 1.369 . S
C336 C338 1.419 . S
C336 H340 0.930 . S
C337 C336 1.369 . S
C337 C346 1.429 . S
C338 C336 1.419 . S
C338 C339 1.363 . S
C338 H341 0.929 . S
C339 C338 1.363 . S
C339 C345 1.428 . S
H340 C336 0.930 . S
H341 C338 0.929 . S
S342 N343 1.613 . S
S342 N344 1.610 . S
N343 S342 1.613 . S
N343 C346 1.350 . S
N344 S342 1.610 . S
N344 C345 1.351 . S
C345 C339 1.428 . S
C345 N344 1.351 . S
C345 C346 1.434 . S
C346 C337 1.429 . S
C346 N343 1.350 . S
C346 C345 1.434 . S
C347 C348 1.369 . S
C347 C349 1.419 . S
C347 H351 0.930 . S
C348 C347 1.369 . S
C348 C357 1.429 . S
C349 C347 1.419 . S
C349 C350 1.363 . S
C349 H352 0.929 1_556 S
C350 C349 1.363 . S
C350 C356 1.428 . S
H351 C347 0.930 . S
H352 C349 0.929 1_554 S
S353 N354 1.613 . S
S353 N355 1.610 . S
N354 S353 1.613 . S
N354 C357 1.350 . S
N355 S353 1.610 . S
N355 C356 1.351 . S
C356 C350 1.428 . S
C356 N355 1.351 . S
C356 C357 1.434 . S
C357 C348 1.429 . S
C357 N354 1.350 . S
C357 C356 1.434 . S
C358 C359 1.369 . S
C358 C360 1.419 . S
C358 H362 0.930 . S
C359 C358 1.369 . S
C359 C368 1.429 . S
C360 C358 1.419 . S
C360 C361 1.363 . S
C360 H363 0.929 . S
C361 C360 1.363 . S
C361 C367 1.428 . S
H362 C358 0.930 . S
H363 C360 0.929 . S
S364 N365 1.613 1_455 S
S364 N366 1.610 . S
N365 S364 1.613 1_655 S
N365 C368 1.350 . S
N366 S364 1.610 . S
N366 C367 1.351 1_455 S
C367 C361 1.428 . S
C367 N366 1.351 1_655 S
C367 C368 1.434 . S
C368 C359 1.429 . S
C368 N365 1.350 . S
C368 C367 1.434 . S
C369 C370 1.369 . S
C369 C371 1.419 . S
C369 H373 0.930 . S
C370 C369 1.369 . S
C370 C379 1.429 . S
C371 C369 1.419 . S
C371 C372 1.363 . S
C371 H374 0.929 . S
C372 C371 1.363 . S
C372 C378 1.428 . S
H373 C369 0.930 . S
H374 C371 0.929 . S
S375 N376 1.613 . S
S375 N377 1.610 . S
N376 S375 1.613 . S
N376 C379 1.350 . S
N377 S375 1.610 . S
N377 C378 1.351 . S
C378 C372 1.428 . S
C378 N377 1.351 . S
C378 C379 1.434 . S
C379 C370 1.429 . S
C379 N376 1.350 . S
C379 C378 1.434 . S
C380 C381 1.369 . S
C380 C382 1.419 . S
C380 H384 0.930 . S
C381 C380 1.369 . S
C381 C390 1.429 . S
C382 C380 1.419 . S
C382 C383 1.363 . S
C382 H385 0.929 . S
C383 C382 1.363 . S
C383 C389 1.428 . S
H384 C380 0.930 . S
H385 C382 0.929 . S
S386 N387 1.613 . S
S386 N388 1.610 . S
N387 S386 1.613 . S
N387 C390 1.350 . S
N388 S386 1.610 . S
N388 C389 1.351 . S
C389 C383 1.428 . S
C389 N388 1.351 . S
C389 C390 1.434 . S
C390 C381 1.429 . S
C390 N387 1.350 . S
C390 C389 1.434 . S
C391 C392 1.369 . S
C391 C393 1.419 . S
C391 H395 0.930 . S
C392 C391 1.369 . S
C392 C401 1.429 . S
C393 C391 1.419 . S
C393 C394 1.363 . S
C393 H396 0.929 . S
C394 C393 1.363 . S
C394 C400 1.428 . S
H395 C391 0.930 . S
H396 C393 0.929 . S
S397 N398 1.613 . S
S397 N399 1.610 . S
N398 S397 1.613 . S
N398 C401 1.350 . S
N399 S397 1.610 . S
N399 C400 1.351 . S
C400 C394 1.428 . S
C400 N399 1.351 . S
C400 C401 1.434 . S
C401 C392 1.429 . S
C401 N398 1.350 . S
C401 C400 1.434 . S
C402 C403 1.369 . S
C402 C404 1.419 . S
C402 H406 0.930 . S
C403 C402 1.369 . S
C403 C412 1.429 . S
C404 C402 1.419 . S
C404 C405 1.363 . S
C404 H407 0.929 . S
C405 C404 1.363 . S
C405 C411 1.428 . S
H406 C402 0.930 . S
H407 C404 0.929 . S
S408 N409 1.613 . S
S408 N410 1.610 . S
N409 S408 1.613 . S
N409 C412 1.350 . S
N410 S408 1.610 . S
N410 C411 1.351 . S
C411 C405 1.428 . S
C411 N410 1.351 . S
C411 C412 1.434 . S
C412 C403 1.429 . S
C412 N409 1.350 . S
C412 C411 1.434 . S
C413 C414 1.369 . S
C413 C415 1.419 . S
C413 H417 0.930 . S
C414 C413 1.369 . S
C414 C423 1.429 . S
C415 C413 1.419 . S
C415 C416 1.363 . S
C415 H418 0.929 . S
C416 C415 1.363 . S
C416 C422 1.428 . S
H417 C413 0.930 . S
H418 C415 0.929 . S
S419 N420 1.613 . S
S419 N421 1.610 . S
N420 S419 1.613 . S
N420 C423 1.350 . S
N421 S419 1.610 . S
N421 C422 1.351 . S
C422 C416 1.428 . S
C422 N421 1.351 . S
C422 C423 1.434 . S
C423 C414 1.429 . S
C423 N420 1.350 . S
C423 C422 1.434 . S
C424 C425 1.369 . S
C424 C426 1.409 1_556 S
C424 H428 0.930 . S
C425 C424 1.369 . S
C425 C434 1.429 . S
C426 C424 1.409 1_554 S
C426 C427 1.355 1_554 S
C426 H429 0.947 . S
C427 C426 1.355 1_556 S
C427 C433 1.428 . S
H428 C424 0.930 . S
H429 C426 0.947 . S
S430 N431 1.613 . S
S430 N432 1.610 . S
N431 S430 1.613 . S
N431 C434 1.350 . S
N432 S430 1.610 . S
N432 C433 1.351 . S
C433 C427 1.428 . S
C433 N432 1.351 . S
C433 C434 1.434 . S
C434 C425 1.429 . S
C434 N431 1.350 . S
C434 C433 1.434 . S
C435 C436 1.369 . S
C435 C437 1.419 . S
C435 H439 0.930 . S
C436 C435 1.369 . S
C436 C445 1.429 1_655 S
C437 C435 1.419 . S
C437 C438 1.363 . S
C437 H440 0.929 . S
C438 C437 1.363 . S
C438 C444 1.426 . S
H439 C435 0.930 . S
H440 C437 0.929 . S
S441 N442 1.613 . S
S441 N443 1.610 . S
N442 S441 1.613 . S
N442 C445 1.350 . S
N443 S441 1.610 . S
N443 C444 1.350 1_455 S
C444 C438 1.426 . S
C444 N443 1.350 1_655 S
C444 C445 1.437 1_655 S
C445 C436 1.429 1_455 S
C445 N442 1.350 . S
C445 C444 1.437 1_455 S
C446 C447 1.369 . S
C446 C448 1.419 . S
C446 H450 0.930 . S
C447 C446 1.369 . S
C447 C456 1.429 . S
C448 C446 1.419 . S
C448 C449 1.363 . S
C448 H451 0.929 . S
C449 C448 1.363 . S
C449 C455 1.428 . S
H450 C446 0.930 . S
H451 C448 0.929 . S
S452 N453 1.613 . S
S452 N454 1.610 . S
N453 S452 1.613 . S
N453 C456 1.350 . S
N454 S452 1.610 . S
N454 C455 1.351 . S
C455 C449 1.428 . S
C455 N454 1.351 . S
C455 C456 1.434 . S
C456 C447 1.429 . S
C456 N453 1.350 . S
C456 C455 1.434 . S
C457 C458 1.369 . S
C457 C459 1.419 . S
C457 H461 0.930 . S
C458 C457 1.369 . S
C458 C467 1.429 . S
C459 C457 1.419 . S
C459 C460 1.363 . S
C459 H462 0.929 . S
C460 C459 1.363 . S
C460 C466 1.428 . S
H461 C457 0.930 . S
H462 C459 0.929 . S
S463 N464 1.613 . S
S463 N465 1.610 . S
N464 S463 1.613 . S
N464 C467 1.350 . S
N465 S463 1.610 . S
N465 C466 1.351 . S
C466 C460 1.428 . S
C466 N465 1.351 . S
C466 C467 1.434 . S
C467 C458 1.429 . S
C467 N464 1.350 . S
C467 C466 1.434 . S
C468 C469 1.369 . S
C468 C470 1.419 . S
C468 H472 0.930 . S
C469 C468 1.369 . S
C469 C478 1.429 . S
C470 C468 1.419 . S
C470 C471 1.363 . S
C470 H473 0.929 . S
C471 C470 1.363 . S
C471 C477 1.428 . S
H472 C468 0.930 . S
H473 C470 0.929 . S
S474 N475 1.613 . S
S474 N476 1.610 . S
N475 S474 1.613 . S
N475 C478 1.350 . S
N476 S474 1.610 . S
N476 C477 1.351 . S
C477 C471 1.428 . S
C477 N476 1.351 . S
C477 C478 1.434 . S
C478 C469 1.429 . S
C478 N475 1.350 . S
C478 C477 1.434 . S
C479 C480 1.369 . S
C479 C481 1.419 . S
C479 H483 0.930 . S
C480 C479 1.369 . S
C480 C489 1.429 . S
C481 C479 1.419 . S
C481 C482 1.363 . S
C481 H484 0.929 . S
C482 C481 1.363 . S
C482 C488 1.428 . S
H483 C479 0.930 . S
H484 C481 0.929 . S
S485 N486 1.613 . S
S485 N487 1.610 . S
N486 S485 1.613 . S
N486 C489 1.350 . S
N487 S485 1.610 . S
N487 C488 1.351 . S
C488 C482 1.428 . S
C488 N487 1.351 . S
C488 C489 1.434 . S
C489 C480 1.429 . S
C489 N486 1.350 . S
C489 C488 1.434 . S
C490 C491 1.369 . S
C490 C492 1.419 . S
C490 H494 0.930 . S
C491 C490 1.369 . S
C491 C500 1.429 . S
C492 C490 1.419 . S
C492 C493 1.363 . S
C492 H495 0.929 . S
C493 C492 1.363 . S
C493 C499 1.428 . S
H494 C490 0.930 . S
H495 C492 0.929 . S
S496 N497 1.613 . S
S496 N498 1.610 . S
N497 S496 1.613 . S
N497 C500 1.350 . S
N498 S496 1.610 . S
N498 C499 1.351 . S
C499 C493 1.428 . S
C499 N498 1.351 . S
C499 C500 1.434 . S
C500 C491 1.429 . S
C500 N497 1.350 . S
C500 C499 1.434 . S
C501 C502 1.369 . S
C501 C503 1.419 . S
C501 H505 0.930 . S
C502 C501 1.369 . S
C502 C511 1.429 . S
C503 C501 1.419 . S
C503 C504 1.363 . S
C503 H506 0.929 . S
C504 C503 1.363 . S
C504 C510 1.428 . S
H505 C501 0.930 . S
H506 C503 0.929 . S
S507 N508 1.613 . S
S507 N509 1.610 . S
N508 S507 1.613 . S
N508 C511 1.350 . S
N509 S507 1.610 . S
N509 C510 1.351 . S
C510 C504 1.428 . S
C510 N509 1.351 . S
C510 C511 1.434 . S
C511 C502 1.429 . S
C511 N508 1.350 . S
C511 C510 1.434 . S
C249 C4 1.309 . S
C251 C103 1.326 . S
C260 C16 1.171 . S
C262 C143 1.227 . S
C273 C177 2.155 . S
C271 C32 2.091 . S
C282 C43 2.573 . S
C284 C218 2.510 . S
C295 C138 1.879 . S
C293 C5 1.776 . S
C306 C98 1.854 . S
C304 C21 1.648 . S
C317 C226 1.645 . S
C315 C27 1.701 . S
C328 C187 1.834 . S
C326 C37 1.927 . S
C337 C10 1.413 . S
C339 C223 1.423 . S
C350 C146 2.246 1_556 S
C348 C26 2.325 . S
C359 C38 2.127 . S
C361 C106 2.065 . S
C370 C15 1.790 . S
C372 C174 1.879 . S
C383 C94 1.364 . S
C381 C48 1.347 . S
C392 C59 1.054 . S
C394 C134 1.071 . S
C403 C76 2.296 . S
C405 C186 2.255 . S
C414 C87 2.398 . S
C416 C227 2.323 . S
C425 C54 1.290 . S
C427 C147 1.400 1_556 S
C438 C107 2.321 . S
C436 C60 2.171 . S
C449 C217 1.804 . S
C447 C71 1.705 . S
C460 C178 1.791 . S
C458 C82 1.839 . S
C469 C49 1.882 . S
C471 C214 1.944 . S
C482 C137 1.770 . S
C480 C70 1.819 . S
C493 C97 2.431 . S
C491 C81 2.537 . S
C502 C65 1.482 . S
C504 C183 1.522 . S
