# Generated by pormake.
# Topology dag, (6,3)-cn, num edge types: 1
# Building blocks:
#     Node 0, Type 0, BuildingBlock: OJICUG_clean_sbu_0, # of connection points: 6
#     Node 1, Type 0, BuildingBlock: OJICUG_clean_sbu_0, # of connection points: 6
#     Node 2, Type 0, BuildingBlock: OJICUG_clean_sbu_0, # of connection points: 6
#     Node 3, Type 0, BuildingBlock: OJICUG_clean_sbu_0, # of connection points: 6
#     Node 4, Type 1, BuildingBlock: VETTIZ_charged_linker_0, # of connection points: 3
#     Node 5, Type 1, BuildingBlock: VETTIZ_charged_linker_0, # of connection points: 3
#     Node 6, Type 1, BuildingBlock: VETTIZ_charged_linker_0, # of connection points: 3
#     Node 7, Type 1, BuildingBlock: VETTIZ_charged_linker_0, # of connection points: 3
#     Node 8, Type 1, BuildingBlock: VETTIZ_charged_linker_0, # of connection points: 3
#     Node 9, Type 1, BuildingBlock: VETTIZ_charged_linker_0, # of connection points: 3
#     Node 10, Type 1, BuildingBlock: VETTIZ_charged_linker_0, # of connection points: 3
#     Node 11, Type 1, BuildingBlock: VETTIZ_charged_linker_0, # of connection points: 3
#     Edge 12, Type (0, 1), BuildingBlock: ZUJKAS_clean_linker_0, # of connection points: 2
#     Edge 13, Type (0, 1), BuildingBlock: ZUJKAS_clean_linker_0, # of connection points: 2
#     Edge 14, Type (0, 1), BuildingBlock: ZUJKAS_clean_linker_0, # of connection points: 2
#     Edge 15, Type (0, 1), BuildingBlock: ZUJKAS_clean_linker_0, # of connection points: 2
#     Edge 16, Type (0, 1), BuildingBlock: ZUJKAS_clean_linker_0, # of connection points: 2
#     Edge 17, Type (0, 1), BuildingBlock: ZUJKAS_clean_linker_0, # of connection points: 2
#     Edge 18, Type (0, 1), BuildingBlock: ZUJKAS_clean_linker_0, # of connection points: 2
#     Edge 19, Type (0, 1), BuildingBlock: ZUJKAS_clean_linker_0, # of connection points: 2
#     Edge 20, Type (0, 1), BuildingBlock: ZUJKAS_clean_linker_0, # of connection points: 2
#     Edge 21, Type (0, 1), BuildingBlock: ZUJKAS_clean_linker_0, # of connection points: 2
#     Edge 22, Type (0, 1), BuildingBlock: ZUJKAS_clean_linker_0, # of connection points: 2
#     Edge 23, Type (0, 1), BuildingBlock: ZUJKAS_clean_linker_0, # of connection points: 2
#     Edge 24, Type (0, 1), BuildingBlock: ZUJKAS_clean_linker_0, # of connection points: 2
#     Edge 25, Type (0, 1), BuildingBlock: ZUJKAS_clean_linker_0, # of connection points: 2
#     Edge 26, Type (0, 1), BuildingBlock: ZUJKAS_clean_linker_0, # of connection points: 2
#     Edge 27, Type (0, 1), BuildingBlock: ZUJKAS_clean_linker_0, # of connection points: 2
#     Edge 28, Type (0, 1), BuildingBlock: ZUJKAS_clean_linker_0, # of connection points: 2
#     Edge 29, Type (0, 1), BuildingBlock: ZUJKAS_clean_linker_0, # of connection points: 2
#     Edge 30, Type (0, 1), BuildingBlock: ZUJKAS_clean_linker_0, # of connection points: 2
#     Edge 31, Type (0, 1), BuildingBlock: ZUJKAS_clean_linker_0, # of connection points: 2
#     Edge 32, Type (0, 1), BuildingBlock: ZUJKAS_clean_linker_0, # of connection points: 2
#     Edge 33, Type (0, 1), BuildingBlock: ZUJKAS_clean_linker_0, # of connection points: 2
#     Edge 34, Type (0, 1), BuildingBlock: ZUJKAS_clean_linker_0, # of connection points: 2
#     Edge 35, Type (0, 1), BuildingBlock: ZUJKAS_clean_linker_0, # of connection points: 2
# Relax obj value: 0.268
# Max RMSD: 0.196
# Mean RMSD: 0.162
data_MOF--net-dag--node1-OJICUG_clean_sbu_0--node2-VETTIZ_charged_linker_0--edge1-ZUJKAS_clean_linker_0
_symmetry_space_group_name_H-M    P1
_symmetry_Int_Tables_number       1
_symmetry_cell_setting            triclinic
loop_
_symmetry_equiv_pos_as_xyz
'x, y, z'
_cell_length_a     56.40876
_cell_length_b     56.41104
_cell_length_c     59.030163
_cell_angle_alpha  89.958491
_cell_angle_beta   90.045446
_cell_angle_gamma 89.984175
loop_
_atom_site_label
_atom_site_type_symbol
_atom_site_fract_x
_atom_site_fract_y
_atom_site_fract_z
_atom_type_partial_charge
Sc0 Sc 0.16747 0.82171 0.00231 0.0
Sc1 Sc 0.17969 0.76167 0.99168 0.0
Sc2 Sc 0.22609 0.80406 0.99117 0.0
O3 O 0.19109 0.79581 0.99503 0.0
C4 C 0.20126 0.84797 0.96685 0.0
C5 C 0.13811 0.79018 0.96718 0.0
C6 C 0.21766 0.76621 0.95189 0.0
C7 C 0.14827 0.77938 0.03314 0.0
C8 C 0.21165 0.8371 0.03274 0.0
C9 C 0.22811 0.75564 0.01914 0.0
O10 O 0.18174 0.84534 0.97728 0.0
O11 O 0.15004 0.77136 0.9705 0.0
O12 O 0.22909 0.78319 0.96085 0.0
O13 O 0.15056 0.80119 0.02827 0.0
O14 O 0.22709 0.82627 0.02094 0.0
O15 O 0.20778 0.74841 0.01289 0.0
O16 O 0.18967 0.8367 0.02807 0.0
O17 O 0.15767 0.76293 0.02149 0.0
O18 O 0.23703 0.77508 0.01237 0.0
O19 O 0.14253 0.80955 0.97732 0.0
O20 O 0.21894 0.83433 0.96986 0.0
O21 O 0.19979 0.75659 0.96118 0.0
Sc22 Sc 0.7256 0.69391 0.49248 0.0
Sc23 Sc 0.68176 0.73898 0.49032 0.0
Sc24 Sc 0.66537 0.67952 0.49868 0.0
O25 O 0.69093 0.70417 0.4939 0.0
C26 C 0.70029 0.65256 0.46486 0.0
C27 C 0.72164 0.73227 0.45276 0.0
C28 C 0.63992 0.71366 0.46316 0.0
C29 C 0.729 0.74214 0.52018 0.0
C30 C 0.70601 0.6605 0.53174 0.0
C31 C 0.6472 0.72227 0.52976 0.0
O32 O 0.71845 0.66475 0.46999 0.0
O33 O 0.70333 0.74254 0.46057 0.0
O34 O 0.64307 0.69363 0.4725 0.0
O35 O 0.7366 0.72168 0.51494 0.0
O36 O 0.68457 0.66237 0.5254 0.0
O37 O 0.65862 0.73846 0.51945 0.0
O38 O 0.72301 0.67083 0.5216 0.0
O39 O 0.70994 0.75081 0.51221 0.0
O40 O 0.648 0.70056 0.52402 0.0
O41 O 0.73197 0.71525 0.46289 0.0
O42 O 0.68006 0.65599 0.47375 0.0
O43 O 0.65227 0.73177 0.46807 0.0
Sc44 Sc 0.82188 0.21623 0.99377 0.0
Sc45 Sc 0.77323 0.17691 -0.00241 0.0
Sc46 Sc 0.8303 0.15529 0.98549 0.0
O47 O 0.80845 0.18282 0.99224 0.0
C48 C 0.85104 0.19505 0.95237 0.0
C49 C 0.77301 0.22302 0.96674 0.0
C50 C 0.78455 0.13929 0.95849 0.0
C51 C 0.78457 0.21738 0.0338 0.0
C52 C 0.86226 0.18631 0.01862 0.0
C53 C 0.79646 0.13418 0.02433 0.0
O54 O 0.842 0.21241 0.96301 0.0
O55 O 0.76369 0.20362 0.97322 0.0
O56 O 0.80691 0.14073 0.96051 0.0
O57 O 0.80399 0.2237 0.02487 0.0
O58 O 0.85613 0.16669 0.00985 0.0
O59 O 0.78007 0.14955 0.02225 0.0
O60 O 0.85189 0.20577 0.0141 0.0
O61 O 0.77101 0.20186 0.02515 0.0
O62 O 0.8147 0.13379 0.01167 0.0
O63 O 0.79319 0.23017 0.97361 0.0
O64 O 0.84843 0.17366 0.95867 0.0
O65 O 0.77028 0.15053 0.97122 0.0
Sc66 Sc 0.33817 0.33118 0.48964 0.0
Sc67 Sc 0.27776 0.31594 0.49187 0.0
Sc68 Sc 0.32168 0.2711 0.48965 0.0
O69 O 0.31251 0.30608 0.4904 0.0
C70 C 0.35826 0.29345 0.45436 0.0
C71 C 0.29855 0.35576 0.45903 0.0
C72 C 0.27724 0.27359 0.45618 0.0
C73 C 0.302 0.35224 0.52611 0.0
C74 C 0.36137 0.29208 0.52214 0.0
C75 C 0.27879 0.27084 0.52465 0.0
O76 O 0.35648 0.31447 0.46193 0.0
O77 O 0.2815 0.34363 0.46697 0.0
O78 O 0.29582 0.26372 0.46391 0.0
O79 O 0.32241 0.35035 0.51717 0.0
O80 O 0.34882 0.27487 0.51516 0.0
O81 O 0.26949 0.28986 0.5173 0.0
O82 O 0.35949 0.31294 0.51422 0.0
O83 O 0.28395 0.34092 0.51897 0.0
O84 O 0.29758 0.26206 0.51633 0.0
O85 O 0.31988 0.35284 0.46533 0.0
O86 O 0.34713 0.27603 0.46292 0.0
O87 O 0.26851 0.29245 0.46452 0.0
C88 C 0.2092 0.0631 0.15239 0.0
C89 C 0.19818 0.04685 0.13773 0.0
C90 C 0.17496 0.05158 0.13004 0.0
C91 C 0.17414 0.08809 0.15151 0.0
C92 C 0.19687 0.08348 0.15907 0.0
C93 C 0.20573 0.10222 0.17506 0.0
H94 H 0.1826 0.1994 0.23785 0.0
C95 C 0.16616 0.11048 0.16192 0.0
C96 C 0.1846 0.11887 0.17573 0.0
H97 H 0.24716 0.158 0.23592 0.0
H98 H 0.23093 0.13388 0.20599 0.0
H99 H 0.17716 0.20296 0.18372 0.0
H100 H 0.14653 0.15708 0.23397 0.0
H101 H 0.12375 0.16589 0.21539 0.0
H102 H 0.13943 0.188 0.23143 0.0
H103 H 0.15249 0.21212 0.20073 0.0
H104 H 0.14837 0.19664 0.17423 0.0
C105 C 0.22778 0.11414 0.16432 0.0
C106 C 0.21036 0.09031 0.19832 0.0
C107 C 0.08417 0.14287 0.1443 0.0
C108 C 0.07216 0.16356 0.15097 0.0
C109 C 0.0832 0.17924 0.16624 0.0
C110 C 0.10593 0.17444 0.17467 0.0
C111 C 0.11778 0.15378 0.16769 0.0
C112 C 0.1069 0.13842 0.15274 0.0
C113 C 0.12243 0.11767 0.14674 0.0
C114 C 0.14454 0.12328 0.16036 0.0
C115 C 0.14161 0.14431 0.17272 0.0
C116 C 0.12717 0.11837 0.12089 0.0
C117 C 0.11005 0.09478 0.15518 0.0
C118 C 0.19346 0.18545 0.23071 0.0
C119 C 0.21608 0.18042 0.2395 0.0
C120 C 0.22949 0.16193 0.22978 0.0
C121 C 0.22004 0.14795 0.21239 0.0
C122 C 0.19692 0.15245 0.20464 0.0
C123 C 0.1843 0.17133 0.21336 0.0
C124 C 0.16017 0.17374 0.20281 0.0
C125 C 0.16007 0.15263 0.18693 0.0
C126 C 0.18156 0.14015 0.18819 0.0
C127 C 0.15926 0.19762 0.18979 0.0
C128 C 0.14134 0.17122 0.22178 0.0
H129 H 0.1453 0.07457 0.13041 0.0
H130 H 0.22706 0.06012 0.1585 0.0
H131 H 0.19666 0.07665 0.20199 0.0
H132 H 0.20933 0.10276 0.21268 0.0
H133 H 0.22792 0.08139 0.19861 0.0
H134 H 0.22617 0.11488 0.14554 0.0
H135 H 0.24422 0.10416 0.16841 0.0
H136 H 0.22997 0.13281 0.16958 0.0
H137 H 0.0763 0.13068 0.13227 0.0
H138 H 0.07422 0.19522 0.17171 0.0
H139 H 0.11338 0.18704 0.18626 0.0
H140 H 0.12889 0.13697 0.11482 0.0
H141 H 0.11243 0.11 0.11132 0.0
H142 H 0.14401 0.10978 0.11607 0.0
H143 H 0.10028 0.09807 0.17125 0.0
H144 H 0.12266 0.08044 0.15933 0.0
H145 H 0.09705 0.08818 0.14253 0.0
H146 H 0.16583 0.03917 0.11909 0.0
C147 C 0.16294 0.07209 0.13679 0.0
C148 C 0.31574 0.58485 0.64653 0.0
C149 C 0.32919 0.57041 0.63203 0.0
C150 C 0.35027 0.57953 0.62257 0.0
C151 C 0.34443 0.61664 0.64243 0.0
C152 C 0.32363 0.60778 0.65143 0.0
C153 C 0.3116 0.62518 0.66685 0.0
H154 H 0.31367 0.72991 0.7218 0.0
C155 C 0.34779 0.64089 0.65132 0.0
C156 C 0.32851 0.64602 0.66549 0.0
H157 H 0.26287 0.67278 0.72815 0.0
H158 H 0.28209 0.65167 0.69803 0.0
H159 H 0.35736 0.69742 0.72089 0.0
H160 H 0.31809 0.72854 0.66588 0.0
H161 H 0.34829 0.73049 0.65884 0.0
H162 H 0.33742 0.74553 0.68375 0.0
H163 H 0.35955 0.72829 0.71385 0.0
H164 H 0.37819 0.70637 0.7006 0.0
C165 C 0.31075 0.61421 0.69096 0.0
C166 C 0.28701 0.63122 0.65661 0.0
C167 C 0.42255 0.687 0.63239 0.0
C168 C 0.43104 0.70941 0.63901 0.0
C169 C 0.41658 0.72395 0.65264 0.0
C170 C 0.39431 0.71609 0.65997 0.0
C171 C 0.38642 0.69337 0.65376 0.0
C172 C 0.40034 0.67935 0.63996 0.0
C173 C 0.38905 0.65575 0.63502 0.0
C174 C 0.36617 0.65781 0.64838 0.0
C175 C 0.36482 0.67983 0.65939 0.0
C176 C 0.40547 0.63609 0.64453 0.0
C177 C 0.38443 0.65413 0.60919 0.0
C178 C 0.30658 0.71292 0.71662 0.0
C179 C 0.28676 0.70302 0.72755 0.0
C180 C 0.27792 0.68103 0.71994 0.0
C181 C 0.28933 0.66859 0.7026 0.0
C182 C 0.30999 0.67803 0.69289 0.0
C183 C 0.31802 0.70005 0.6996 0.0
C184 C 0.34083 0.70681 0.68814 0.0
C185 C 0.34532 0.68503 0.67371 0.0
C186 C 0.3272 0.66826 0.67659 0.0
C187 C 0.36008 0.7101 0.70667 0.0
C188 C 0.33615 0.7291 0.67346 0.0
H189 H 0.37411 0.60844 0.61996 0.0
H190 H 0.2996 0.57832 0.65427 0.0
H191 H 0.28789 0.6319 0.63779 0.0
H192 H 0.28049 0.6489 0.6617 0.0
H193 H 0.27361 0.61766 0.6613 0.0
H194 H 0.32639 0.60262 0.69409 0.0
H195 H 0.29461 0.60321 0.69329 0.0
H196 H 0.31158 0.62762 0.70455 0.0
H197 H 0.43299 0.67556 0.62155 0.0
H198 H 0.42272 0.74122 0.6581 0.0
H199 H 0.38428 0.72787 0.67052 0.0
H200 H 0.41329 0.64158 0.66102 0.0
H201 H 0.42032 0.63235 0.63271 0.0
H202 H 0.39606 0.61938 0.64819 0.0
H203 H 0.38002 0.67183 0.602 0.0
H204 H 0.36901 0.64288 0.60497 0.0
H205 H 0.40029 0.64739 0.60009 0.0
H206 H 0.36076 0.56892 0.61104 0.0
C207 C 0.35793 0.60255 0.62766 0.0
C208 C 0.78813 0.79224 0.21792 0.0
C209 C 0.79458 0.7694 0.22526 0.0
C210 C 0.81348 0.75768 0.21435 0.0
C211 C 0.82128 0.79271 0.19187 0.0
C212 C 0.80162 0.80348 0.20124 0.0
C213 C 0.79805 0.82829 0.19258 0.0
H214 H 0.83911 0.92107 0.13184 0.0
C215 C 0.83313 0.8102 0.17716 0.0
C216 C 0.81942 0.83096 0.17723 0.0
H217 H 0.77314 0.91598 0.16882 0.0
H218 H 0.78248 0.87568 0.17934 0.0
H219 H 0.87112 0.89396 0.17005 0.0
H220 H 0.83654 0.87097 0.10885 0.0
H221 H 0.8639 0.85616 0.11021 0.0
H222 H 0.86334 0.8881 0.1084 0.0
H223 H 0.88133 0.90222 0.14236 0.0
H224 H 0.89078 0.87508 0.15572 0.0
C225 C 0.7991 0.84552 0.21301 0.0
C226 C 0.77443 0.82902 0.17913 0.0
C227 C 0.91488 0.79195 0.14592 0.0
C228 C 0.93118 0.80528 0.13321 0.0
C229 C 0.92465 0.82815 0.12575 0.0
C230 C 0.90252 0.83776 0.13131 0.0
C231 C 0.88669 0.82444 0.14452 0.0
C232 C 0.89284 0.80182 0.15132 0.0
C233 C 0.87377 0.79022 0.16519 0.0
C234 C 0.85525 0.80973 0.16578 0.0
C235 C 0.86299 0.82979 0.15382 0.0
C236 C 0.88417 0.78501 0.18899 0.0
C237 C 0.86484 0.76799 0.1523 0.0
C238 C 0.82682 0.9114 0.14249 0.0
C239 C 0.80542 0.92178 0.14964 0.0
C240 C 0.78967 0.90834 0.16299 0.0
C241 C 0.79514 0.88496 0.1691 0.0
C242 C 0.81662 0.87488 0.16182 0.0
C243 C 0.83201 0.88805 0.1487 0.0
C244 C 0.85386 0.87435 0.14225 0.0
C245 C 0.84888 0.85064 0.1534 0.0
C246 C 0.82717 0.85115 0.16499 0.0
C247 C 0.87554 0.88699 0.15294 0.0
C248 C 0.85472 0.87233 0.11608 0.0
H249 H 0.84144 0.75965 0.19051 0.0
H250 H 0.77381 0.80187 0.22593 0.0
H251 H 0.77035 0.81149 0.17141 0.0
H252 H 0.77506 0.84142 0.16462 0.0
H253 H 0.75932 0.83381 0.19028 0.0
H254 H 0.81328 0.8401 0.22506 0.0
H255 H 0.78204 0.84563 0.22241 0.0
H256 H 0.80349 0.86388 0.20817 0.0
H257 H 0.91934 0.7744 0.15202 0.0
H258 H 0.93666 0.83861 0.11551 0.0
H259 H 0.89868 0.85527 0.12522 0.0
H260 H 0.89496 0.80025 0.19505 0.0
H261 H 0.89585 0.76915 0.18861 0.0
H262 H 0.87055 0.78231 0.2021 0.0
H263 H 0.86716 0.76999 0.13368 0.0
H264 H 0.84561 0.76497 0.15458 0.0
H265 H 0.87469 0.75185 0.15759 0.0
H266 H 0.81846 0.73986 0.21927 0.0
C267 C 0.82683 0.76921 0.19767 0.0
C268 C 0.66843 0.32752 0.75533 0.0
C269 C 0.68744 0.3378 0.76717 0.0
C270 C 0.69928 0.35742 0.75766 0.0
C271 C 0.67286 0.35655 0.72531 0.0
C272 C 0.6615 0.33711 0.73451 0.0
C273 C 0.6416 0.32833 0.71982 0.0
H274 H 0.57244 0.34318 0.62744 0.0
C275 C 0.66098 0.3624 0.70374 0.0
C276 C 0.64275 0.34585 0.70035 0.0
H277 H 0.56752 0.28871 0.67882 0.0
H278 H 0.60248 0.30414 0.69717 0.0
H279 H 0.58356 0.3855 0.66117 0.0
H280 H 0.62951 0.34068 0.62176 0.0
H281 H 0.64108 0.36955 0.62037 0.0
H282 H 0.61189 0.36368 0.60917 0.0
H283 H 0.58592 0.38795 0.63093 0.0
H284 H 0.60577 0.40361 0.6496 0.0
C285 C 0.61822 0.33063 0.73343 0.0
C286 C 0.64756 0.30275 0.71209 0.0
C287 C 0.68646 0.43535 0.65968 0.0
C288 C 0.67776 0.44623 0.63994 0.0
C289 C 0.65916 0.43527 0.62788 0.0
C290 C 0.64904 0.4141 0.63563 0.0
C291 C 0.65747 0.4038 0.65576 0.0
C292 C 0.67604 0.41429 0.66729 0.0
C293 C 0.68244 0.40106 0.68853 0.0
C294 C 0.66458 0.38096 0.68789 0.0
C295 C 0.64997 0.38268 0.66871 0.0
C296 C 0.67832 0.41782 0.70897 0.0
C297 C 0.70823 0.39193 0.6861 0.0
C298 C 0.57887 0.33462 0.64269 0.0
C299 C 0.5671 0.31482 0.65181 0.0
C300 C 0.57633 0.3039 0.6714 0.0
C301 C 0.59653 0.31302 0.68213 0.0
C302 C 0.60762 0.3333 0.67322 0.0
C303 C 0.59898 0.34353 0.65362 0.0
C304 C 0.61308 0.36492 0.64654 0.0
C305 C 0.63148 0.36598 0.66526 0.0
C306 C 0.62807 0.34753 0.6809 0.0
C307 C 0.59635 0.38672 0.64687 0.0
C308 C 0.62443 0.35969 0.62317 0.0
H309 H 0.70172 0.38187 0.73053 0.0
H310 H 0.65925 0.31217 0.76202 0.0
H311 H 0.66704 0.30027 0.71024 0.0
H312 H 0.64025 0.29849 0.6952 0.0
H313 H 0.64116 0.28947 0.72456 0.0
H314 H 0.61815 0.3472 0.74364 0.0
H315 H 0.616 0.3155 0.7453 0.0
H316 H 0.60234 0.3319 0.72258 0.0
H317 H 0.70056 0.44346 0.66944 0.0
H318 H 0.65237 0.44317 0.61245 0.0
H319 H 0.63483 0.40675 0.6258 0.0
H320 H 0.66259 0.42934 0.70606 0.0
H321 H 0.69384 0.42957 0.71174 0.0
H322 H 0.67436 0.40828 0.72485 0.0
H323 H 0.7122 0.38714 0.66821 0.0
H324 H 0.71156 0.37551 0.69581 0.0
H325 H 0.72121 0.40567 0.69136 0.0
H326 H 0.7139 0.36571 0.76654 0.0
C327 C 0.6921 0.36683 0.7368 0.0
C328 C 0.69053 0.4173 0.34502 0.0
C329 C 0.67747 0.4298 0.3614 0.0
C330 C 0.6568 0.41941 0.37045 0.0
C331 C 0.66149 0.38556 0.34571 0.0
C332 C 0.68227 0.39527 0.33752 0.0
C333 C 0.69357 0.38 0.31968 0.0
H334 H 0.68784 0.28409 0.25145 0.0
C335 C 0.65713 0.3632 0.33346 0.0
C336 C 0.676 0.35968 0.3184 0.0
H337 H 0.74098 0.33914 0.25258 0.0
H338 H 0.72185 0.3574 0.28477 0.0
H339 H 0.68164 0.27818 0.30784 0.0
H340 H 0.64589 0.31803 0.25578 0.0
H341 H 0.62405 0.30863 0.27485 0.0
H342 H 0.64106 0.28684 0.25953 0.0
H343 H 0.66351 0.26462 0.28645 0.0
H344 H 0.65089 0.27576 0.31241 0.0
C345 C 0.71805 0.37176 0.32865 0.0
C346 C 0.69453 0.39442 0.2973 0.0
C347 C 0.57946 0.31975 0.34479 0.0
C348 C 0.56932 0.29967 0.33455 0.0
C349 C 0.58292 0.28642 0.31905 0.0
C350 C 0.60598 0.29356 0.31331 0.0
C351 C 0.61548 0.31423 0.32308 0.0
C352 C 0.60234 0.32673 0.33876 0.0
C353 C 0.61503 0.34835 0.34732 0.0
C354 C 0.63787 0.34704 0.33388 0.0
C355 C 0.63803 0.32708 0.31968 0.0
C356 C 0.6194 0.34531 0.3731 0.0
C357 C 0.60001 0.37038 0.34087 0.0
C358 C 0.69558 0.29975 0.25909 0.0
C359 C 0.71596 0.31019 0.24985 0.0
C360 C 0.7253 0.33089 0.25965 0.0
C361 C 0.71411 0.34145 0.27822 0.0
C362 C 0.6931 0.33143 0.28673 0.0
C363 C 0.68429 0.31079 0.27733 0.0
C364 C 0.66095 0.30361 0.28754 0.0
C365 C 0.65733 0.32324 0.30473 0.0
C366 C 0.67622 0.33944 0.30417 0.0
C367 C 0.66419 0.27919 0.29909 0.0
C368 C 0.6419 0.30408 0.26856 0.0
H369 H 0.63278 0.39059 0.37009 0.0
H370 H 0.70642 0.42479 0.33764 0.0
H371 H 0.67915 0.40669 0.29592 0.0
H372 H 0.69331 0.38319 0.28203 0.0
H373 H 0.71092 0.40528 0.29634 0.0
H374 H 0.71732 0.36824 0.34719 0.0
H375 H 0.7318 0.38551 0.32574 0.0
H376 H 0.72399 0.35488 0.32109 0.0
H377 H 0.56972 0.33 0.3572 0.0
H378 H 0.57553 0.27087 0.31094 0.0
H379 H 0.61536 0.28295 0.30118 0.0
H380 H 0.62131 0.32628 0.37774 0.0
H381 H 0.60445 0.35264 0.38314 0.0
H382 H 0.63614 0.35361 0.37877 0.0
H383 H 0.5924 0.36837 0.32358 0.0
H384 H 0.61035 0.38693 0.34021 0.0
H385 H 0.58503 0.37281 0.35285 0.0
H386 H 0.64671 0.4284 0.38348 0.0
C387 C 0.64878 0.39738 0.36273 0.0
C388 C 0.18175 0.19039 0.74928 0.0
C389 C 0.20273 0.18155 0.73965 0.0
C390 C 0.21593 0.16434 0.75155 0.0
C391 C 0.18633 0.16379 0.78125 0.0
C392 C 0.17391 0.18129 0.76996 0.0
C393 C 0.15139 0.188 0.78192 0.0
H394 H 0.07171 0.16532 0.86428 0.0
C395 C 0.17255 0.15711 0.80151 0.0
C396 C 0.15215 0.17136 0.80209 0.0
H397 H 0.06779 0.21844 0.81155 0.0
H398 H 0.10709 0.20792 0.79896 0.0
H399 H 0.09315 0.12501 0.83367 0.0
H400 H 0.12644 0.17543 0.87814 0.0
H401 H 0.14154 0.14843 0.88161 0.0
H402 H 0.11043 0.15022 0.8886 0.0
H403 H 0.09133 0.12287 0.86396 0.0
H404 H 0.11551 0.10984 0.84841 0.0
C405 C 0.13035 0.18243 0.76585 0.0
C406 C 0.15324 0.21433 0.78919 0.0
C407 C 0.1985 0.08663 0.84896 0.0
C408 C 0.18796 0.07464 0.86726 0.0
C409 C 0.16723 0.08417 0.87707 0.0
C410 C 0.15674 0.10472 0.86831 0.0
C411 C 0.16685 0.11579 0.84934 0.0
C412 C 0.18764 0.10701 0.84026 0.0
C413 C 0.19557 0.12083 0.81985 0.0
C414 C 0.17596 0.13917 0.81806 0.0
C415 C 0.15912 0.13603 0.83529 0.0
C416 C 0.19584 0.10376 0.79926 0.0
C417 C 0.21983 0.13235 0.82533 0.0
C418 C 0.07929 0.17463 0.84997 0.0
C419 C 0.06652 0.19254 0.83872 0.0
C420 C 0.07728 0.20462 0.82052 0.0
C421 C 0.10004 0.19836 0.81314 0.0
C422 C 0.11215 0.17974 0.82398 0.0
C423 C 0.10195 0.16855 0.84235 0.0
C424 C 0.1174 0.14918 0.8518 0.0
C425 C 0.13848 0.15043 0.8359 0.0
C426 C 0.13519 0.1682 0.81954 0.0
C427 C 0.10376 0.12542 0.84957 0.0
C428 C 0.12428 0.15591 0.87638 0.0
H429 H 0.21848 0.14212 0.78039 0.0
H430 H 0.17146 0.20395 0.74076 0.0
H431 H 0.1719 0.21923 0.79316 0.0
H432 H 0.14333 0.21816 0.80492 0.0
H433 H 0.14697 0.22634 0.77553 0.0
H434 H 0.1336 0.16571 0.75634 0.0
H435 H 0.12781 0.19684 0.75324 0.0
H436 H 0.11348 0.17945 0.77482 0.0
H437 H 0.21458 0.08001 0.8412 0.0
H438 H 0.15849 0.07523 0.89098 0.0
H439 H 0.14075 0.11077 0.87626 0.0
H440 H 0.18086 0.09096 0.80021 0.0
H441 H 0.21255 0.09335 0.79872 0.0
H442 H 0.19345 0.11286 0.78288 0.0
H443 H 0.22092 0.13745 0.84351 0.0
H444 H 0.22281 0.14904 0.81594 0.0
H445 H 0.23466 0.11993 0.82181 0.0
H446 H 0.23212 0.1572 0.74444 0.0
C447 C 0.20788 0.15548 0.77233 0.0
C448 C 0.29701 0.67866 0.25232 0.0
C449 C 0.30886 0.69583 0.23932 0.0
C450 C 0.32762 0.70872 0.24917 0.0
C451 C 0.32373 0.68592 0.28376 0.0
C452 C 0.30471 0.67401 0.2744 0.0
C453 C 0.29478 0.6555 0.29006 0.0
H454 H 0.31027 0.58681 0.38191 0.0
C455 C 0.32835 0.67562 0.30633 0.0
C456 C 0.31129 0.65796 0.31023 0.0
H457 H 0.25347 0.58377 0.33264 0.0
H458 H 0.26791 0.61963 0.31522 0.0
H459 H 0.35145 0.60113 0.34877 0.0
H460 H 0.30533 0.64318 0.39056 0.0
H461 H 0.33266 0.65806 0.39005 0.0
H462 H 0.33092 0.6286 0.40202 0.0
H463 H 0.35238 0.60101 0.37919 0.0
H464 H 0.36881 0.62235 0.36298 0.0
C465 C 0.29733 0.6311 0.27824 0.0
C466 C 0.26893 0.66239 0.29608 0.0
C467 C 0.40255 0.69945 0.34943 0.0
C468 C 0.41289 0.69112 0.36959 0.0
C469 C 0.40046 0.67444 0.38284 0.0
C470 C 0.37859 0.66544 0.37565 0.0
C471 C 0.36907 0.67301 0.35488 0.0
C472 C 0.38072 0.69017 0.34243 0.0
C473 C 0.36796 0.69601 0.32076 0.0
C474 C 0.34681 0.67943 0.32225 0.0
C475 C 0.34775 0.6658 0.34213 0.0
C476 C 0.38459 0.68965 0.30076 0.0
C477 C 0.36035 0.72239 0.32162 0.0
C478 C 0.30056 0.59403 0.36767 0.0
C479 C 0.28092 0.58203 0.35841 0.0
C480 C 0.26902 0.59221 0.33976 0.0
C481 C 0.2774 0.61308 0.32968 0.0
C482 C 0.29798 0.62389 0.33822 0.0
C483 C 0.30865 0.61489 0.35744 0.0
C484 C 0.32989 0.62917 0.36458 0.0
C485 C 0.33068 0.64775 0.34598 0.0
C486 C 0.31222 0.64426 0.33038 0.0
C487 C 0.35188 0.61269 0.36404 0.0
C488 C 0.32466 0.64027 0.38808 0.0
H489 H 0.3497 0.714 0.27776 0.0
H490 H 0.28221 0.66883 0.24537 0.0
H491 H 0.26627 0.68192 0.29522 0.0
H492 H 0.26418 0.65757 0.31367 0.0
H493 H 0.25609 0.65409 0.28422 0.0
H494 H 0.31502 0.6295 0.27004 0.0
H495 H 0.28364 0.62884 0.26488 0.0
H496 H 0.29619 0.61595 0.28996 0.0
H497 H 0.4117 0.71215 0.3388 0.0
H498 H 0.40784 0.66808 0.39866 0.0
H499 H 0.37023 0.65247 0.38627 0.0
H500 H 0.39481 0.67323 0.3045 0.0
H501 H 0.39756 0.70408 0.29752 0.0
H502 H 0.37504 0.68574 0.2849 0.0
H503 H 0.35602 0.72787 0.33925 0.0
H504 H 0.34399 0.72593 0.31186 0.0
H505 H 0.37472 0.73418 0.31542 0.0
H506 H 0.33704 0.72202 0.23948 0.0
C507 C 0.33505 0.70391 0.27135 0.0
C508 C 0.77552 0.90138 0.85197 0.0
C509 C 0.78066 0.91045 0.87357 0.0
C510 C 0.79812 0.89915 0.88688 0.0
C511 C 0.80725 0.87259 0.85585 0.0
C512 C 0.78907 0.88265 0.84343 0.0
C513 C 0.78751 0.87273 0.81988 0.0
H514 H 0.83716 0.80894 0.73596 0.0
C515 C 0.81979 0.8556 0.84104 0.0
C516 C 0.80816 0.85549 0.82001 0.0
H517 H 0.77189 0.84926 0.73447 0.0
H518 H 0.7761 0.85813 0.77408 0.0
H519 H 0.86671 0.84503 0.7677 0.0
H520 H 0.82582 0.78246 0.78213 0.0
H521 H 0.84961 0.7824 0.80132 0.0
H522 H 0.85546 0.78068 0.77127 0.0
H523 H 0.87547 0.81577 0.75916 0.0
H524 H 0.88308 0.82732 0.7866 0.0
C525 C 0.79139 0.89342 0.80293 0.0
C526 C 0.76339 0.85982 0.81739 0.0
C527 C 0.89727 0.81851 0.86708 0.0
C528 C 0.91403 0.80401 0.85616 0.0
C529 C 0.90891 0.79526 0.83434 0.0
C530 C 0.88793 0.80167 0.82319 0.0
C531 C 0.87194 0.81713 0.83389 0.0
C532 C 0.87644 0.82482 0.85568 0.0
C533 C 0.85743 0.84119 0.86435 0.0
C534 C 0.8409 0.84222 0.84406 0.0
C535 C 0.84969 0.82833 0.82619 0.0
C536 C 0.86904 0.86553 0.86939 0.0
C537 C 0.84548 0.82935 0.88508 0.0
C538 C 0.82371 0.81958 0.74419 0.0
C539 C 0.8044 0.82877 0.73191 0.0
C540 C 0.78728 0.84249 0.74335 0.0
C541 C 0.78964 0.84747 0.76643 0.0
C542 C 0.80938 0.83876 0.7783 0.0
C543 C 0.82577 0.8247 0.7673 0.0
C544 C 0.84525 0.81651 0.78286 0.0
C545 C 0.83796 0.82828 0.80492 0.0
C546 C 0.81713 0.84152 0.802 0.0
C547 C 0.86899 0.82646 0.77369 0.0
C548 C 0.84424 0.78909 0.78447 0.0
H549 H 0.8249 0.87285 0.88883 0.0
H550 H 0.76198 0.90944 0.84146 0.0
H551 H 0.75721 0.85261 0.83392 0.0
H552 H 0.76445 0.84416 0.80616 0.0
H553 H 0.74943 0.87202 0.81102 0.0
H554 H 0.80523 0.90581 0.80929 0.0
H555 H 0.77483 0.90376 0.80048 0.0
H556 H 0.79789 0.88761 0.78623 0.0
H557 H 0.90051 0.82522 0.88399 0.0
H558 H 0.92155 0.78417 0.82549 0.0
H559 H 0.8853 0.79485 0.80643 0.0
H560 H 0.88265 0.86988 0.85639 0.0
H561 H 0.87795 0.86546 0.88617 0.0
H562 H 0.85643 0.88044 0.86879 0.0
H563 H 0.84467 0.80977 0.88299 0.0
H564 H 0.82684 0.83491 0.88731 0.0
H565 H 0.85549 0.83308 0.90089 0.0
H566 H 0.80255 0.90584 0.90355 0.0
C567 C 0.81133 0.88019 0.87818 0.0
H568 H 0.25718 0.84963 0.04453 0.0
H569 H 0.26894 0.88048 0.07147 0.0
H570 H 0.19555 0.89104 0.08942 0.0
H571 H 0.18382 0.86006 0.06338 0.0
H572 H 0.25778 0.9249 0.06679 0.0
H573 H 0.22459 0.89824 0.15019 0.0
H574 H 0.22791 0.87714 0.12739 0.0
H575 H 0.20096 0.89418 0.13033 0.0
C576 C 0.24363 0.85805 0.05473 0.0
C577 C 0.21951 0.85254 0.05159 0.0
C578 C 0.2504 0.87567 0.07013 0.0
C579 C 0.23319 0.88791 0.08273 0.0
C580 C 0.20928 0.88146 0.08045 0.0
H581 H 0.19797 0.02604 0.096 0.0
H582 H 0.21427 0.98771 0.08552 0.0
C583 C 0.20254 0.86388 0.06523 0.0
C584 C 0.23919 0.90984 0.09532 0.0
H585 H 0.22067 0.94126 0.14127 0.0
C586 C 0.25037 0.92827 0.08343 0.0
C587 C 0.23029 0.91425 0.11731 0.0
C588 C 0.22055 0.89473 0.13207 0.0
C589 C 0.25023 0.95153 0.09176 0.0
C590 C 0.23798 0.95651 0.1121 0.0
C591 C 0.22946 0.93764 0.12531 0.0
C592 C 0.23061 0.98093 0.11814 0.0
C593 C 0.26223 0.97067 0.07809 0.0
C594 C 0.23385 0.98977 0.14014 0.0
C595 C 0.22393 0.01154 0.14639 0.0
C596 C 0.2105 0.02477 0.13074 0.0
C597 C 0.20793 0.01617 0.10855 0.0
C598 C 0.21766 0.99441 0.1024 0.0
H599 H 0.27833 0.96362 0.06959 0.0
H600 H 0.24999 0.97691 0.06462 0.0
H601 H 0.26739 0.98601 0.08879 0.0
H602 H 0.24352 0.97954 0.15265 0.0
H603 H 0.22602 0.01754 0.1637 0.0
H604 H 0.62682 0.76563 0.53754 0.0
H605 H 0.59347 0.77402 0.56289 0.0
H606 H 0.59604 0.70213 0.58771 0.0
H607 H 0.62925 0.69366 0.56269 0.0
H608 H 0.55149 0.74917 0.55753 0.0
H609 H 0.58348 0.73958 0.64551 0.0
H610 H 0.60323 0.74506 0.62199 0.0
H611 H 0.59306 0.71546 0.62798 0.0
C612 C 0.62075 0.75184 0.54892 0.0
C613 C 0.6305 0.72891 0.54797 0.0
C614 C 0.60169 0.75666 0.56336 0.0
C615 C 0.59244 0.73877 0.57732 0.0
C616 C 0.60318 0.71635 0.57743 0.0
H617 H 0.4716 0.68308 0.63765 0.0
H618 H 0.51067 0.69531 0.62432 0.0
C619 C 0.62204 0.71146 0.56293 0.0
C620 C 0.56946 0.74195 0.58897 0.0
H621 H 0.54172 0.73117 0.63925 0.0
C622 C 0.54932 0.74591 0.57553 0.0
C623 C 0.56677 0.73761 0.61241 0.0
C624 C 0.58784 0.73443 0.62784 0.0
C625 C 0.52643 0.74373 0.58452 0.0
C626 C 0.52371 0.73791 0.60769 0.0
C627 C 0.54388 0.73551 0.62146 0.0
C628 C 0.50033 0.73151 0.61722 0.0
C629 C 0.50541 0.74595 0.56881 0.0
C630 C 0.48167 0.74793 0.61793 0.0
C631 C 0.45916 0.74088 0.62522 0.0
C632 C 0.45504 0.71733 0.63205 0.0
C633 C 0.47404 0.7012 0.63203 0.0
C634 C 0.49645 0.70823 0.62468 0.0
H635 H 0.51078 0.74639 0.55071 0.0
H636 H 0.49294 0.73094 0.57131 0.0
H637 H 0.49576 0.76262 0.5726 0.0
H638 H 0.48441 0.76607 0.61252 0.0
H639 H 0.44488 0.75372 0.625 0.0
H640 H 0.75913 0.12604 0.05336 0.0
H641 H 0.75443 0.0926 0.07961 0.0
H642 H 0.82322 0.06616 0.06039 0.0
H643 H 0.82821 0.0992 0.0343 0.0
H644 H 0.78056 0.03371 0.05662 0.0
H645 H 0.794 0.07685 0.14061 0.0
H646 H 0.77547 0.09097 0.11963 0.0
H647 H 0.8068 0.08901 0.11507 0.0
C648 C 0.77338 0.11325 0.0549 0.0
C649 C 0.79399 0.11525 0.04158 0.0
C650 C 0.77065 0.09424 0.06993 0.0
C651 C 0.78851 0.07707 0.07186 0.0
C652 C 0.80927 0.07933 0.05908 0.0
H653 H 0.83449 0.96047 0.14844 0.0
H654 H 0.82594 -0.00075 0.13183 0.0
C655 C 0.81206 0.09824 0.04415 0.0
C656 C 0.78528 0.05575 0.08598 0.0
H657 H 0.7905 0.03522 0.14013 0.0
C658 C 0.78228 0.03398 0.07492 0.0
C659 C 0.78771 0.05639 0.10976 0.0
C660 C 0.79124 0.07949 0.12215 0.0
C661 C 0.78264 0.0126 0.08697 0.0
C662 C 0.78576 0.01312 0.11075 0.0
C663 C 0.78792 0.03498 0.12192 0.0
C664 C 0.78945 0.99102 0.12373 0.0
C665 C 0.78102 0.98957 0.07402 0.0
C666 C 0.77152 0.97387 0.12525 0.0
C667 C 0.77643 0.9516 0.13451 0.0
C668 C 0.79933 0.94621 0.14243 0.0
C669 C 0.81682 0.96396 0.14207 0.0
C670 C 0.8119 0.98618 0.13281 0.0
H671 H 0.78268 0.99226 0.05544 0.0
H672 H 0.79509 0.97709 0.07961 0.0
H673 H 0.76361 0.98115 0.0774 0.0
H674 H 0.75402 0.97742 0.1185 0.0
H675 H 0.76261 0.93828 0.13449 0.0
H676 H 0.38083 0.2497 0.53569 0.0
H677 H 0.41309 0.24387 0.56311 0.0
H678 H 0.41484 0.31914 0.57573 0.0
H679 H 0.38286 0.32513 0.54866 0.0
H680 H 0.45855 0.26535 0.55897 0.0
H681 H 0.41577 0.29029 0.63972 0.0
H682 H 0.39904 0.28159 0.61494 0.0
H683 H 0.40995 0.31144 0.61769 0.0
C684 C 0.38785 0.26494 0.5446 0.0
C685 C 0.37937 0.28789 0.53993 0.0
C686 C 0.40625 0.26157 0.56022 0.0
C687 C 0.41606 0.28104 0.57165 0.0
C688 C 0.40718 0.30382 0.56742 0.0
H689 H 0.5302 0.34158 0.63668 0.0
H690 H 0.49347 0.32802 0.6191 0.0
C691 C 0.38904 0.30723 0.55176 0.0
C692 C 0.43706 0.27834 0.5864 0.0
H693 H 0.4584 0.29568 0.63784 0.0
C694 C 0.45851 0.2713 0.57644 0.0
C695 C 0.43683 0.28604 0.60917 0.0
C696 C 0.41409 0.29254 0.62108 0.0
C697 C 0.48008 0.27377 0.58806 0.0
C698 C 0.48 0.28324 0.61023 0.0
C699 C 0.45837 0.28858 0.62076 0.0
C700 C 0.50214 0.29074 0.62152 0.0
C701 C 0.50293 0.26792 0.57601 0.0
C702 C 0.51908 0.27419 0.6288 0.0
C703 C 0.54024 0.28192 0.63874 0.0
C704 C 0.54471 0.3063 0.64147 0.0
C705 C 0.52748 0.32272 0.63442 0.0
C706 C 0.5064 0.315 0.62458 0.0
H707 H 0.50001 0.26318 0.55795 0.0
H708 H 0.51528 0.28322 0.5768 0.0
H709 H 0.51163 0.2527 0.58455 0.0
H710 H 0.51596 0.25537 0.62672 0.0
H711 H 0.55323 0.26888 0.64397 0.0
H712 H 0.74133 0.63127 0.45065 0.0
H713 H 0.74501 0.59582 0.42695 0.0
H714 H 0.66903 0.59357 0.41912 0.0
H715 H 0.66512 0.62884 0.44267 0.0
H716 H 0.72288 0.55205 0.43905 0.0
H717 H 0.69437 0.58268 0.35416 0.0
H718 H 0.70485 0.60272 0.37586 0.0
H719 H 0.67484 0.59197 0.37646 0.0
C720 C 0.72544 0.62348 0.44353 0.0
C721 C 0.70291 0.63278 0.44865 0.0
C722 C 0.72759 0.60326 0.43002 0.0
C723 C 0.70732 0.59232 0.42111 0.0
C724 C 0.68492 0.60204 0.42551 0.0
H725 H 0.64905 0.46814 0.36854 0.0
H726 H 0.66067 0.50757 0.38127 0.0
C727 C 0.68271 0.62208 0.43915 0.0
C728 C 0.70901 0.56931 0.40934 0.0
H729 H 0.69113 0.54078 0.36141 0.0
C730 C 0.71649 0.54955 0.42188 0.0
C731 C 0.70066 0.56627 0.38698 0.0
C732 C 0.69343 0.58708 0.37248 0.0
C733 C 0.71414 0.52652 0.41324 0.0
C734 C 0.70452 0.52338 0.39131 0.0
C735 C 0.69841 0.54328 0.37826 0.0
C736 C 0.69818 0.49964 0.38266 0.0
C737 C 0.72048 0.50574 0.42819 0.0
C738 C 0.71549 0.48219 0.37902 0.0
C739 C 0.70885 0.45945 0.37206 0.0
C740 C 0.68481 0.4539 0.36851 0.0
C741 C 0.66765 0.47167 0.37162 0.0
C742 C 0.67428 0.49429 0.37864 0.0
H743 H 0.72364 0.51118 0.44603 0.0
H744 H 0.70616 0.49224 0.42794 0.0
H745 H 0.73691 0.49729 0.42176 0.0
H746 H 0.73407 0.48611 0.38172 0.0
H747 H 0.72248 0.44614 0.36984 0.0
H748 H 0.86665 0.23828 0.93708 0.0
H749 H 0.89846 0.24562 0.90986 0.0
H750 H 0.90444 0.17049 0.89767 0.0
H751 H 0.87257 0.16297 0.92445 0.0
H752 H 0.94291 0.22892 0.91716 0.0
H753 H 0.9113 0.19666 0.83423 0.0
H754 H 0.89133 0.20329 0.85729 0.0
H755 H 0.90625 0.17508 0.85601 0.0
C756 C 0.87429 0.22335 0.92817 0.0
C757 C 0.8672 0.19999 0.93315 0.0
C758 C 0.89247 0.22761 0.91261 0.0
C759 C 0.90366 0.20864 0.90158 0.0
C760 C 0.89572 0.18545 0.90559 0.0
H761 H 0.03169 0.16094 0.84903 0.0
H762 H 0.99139 0.16936 0.86169 0.0
C763 C 0.8776 0.18116 0.92112 0.0
C764 C 0.92577 0.21245 0.88861 0.0
H765 H 0.95402 0.19588 0.84006 0.0
C766 C 0.94524 0.22231 0.90006 0.0
C767 C 0.92872 0.20381 0.86632 0.0
C768 C 0.90819 0.19435 0.85268 0.0
C769 C 0.96798 0.22205 0.8905 0.0
C770 C 0.97119 0.21196 0.8688 0.0
C771 C 0.95148 0.20348 0.85676 0.0
C772 C 0.99512 0.20746 0.85961 0.0
C773 C 0.98864 0.23105 0.9043 0.0
C774 C 0.01044 0.22615 0.854 0.0
C775 C 0.03363 0.22139 0.84695 0.0
C776 C 0.04178 0.19787 0.84544 0.0
C777 C 0.0261 0.17925 0.85048 0.0
C778 C 0.003 0.18401 0.85747 0.0
H779 H 0.98355 0.23513 0.92205 0.0
H780 H 0.00318 0.21776 0.90455 0.0
H781 H 0.99564 0.24749 0.89646 0.0
H782 H 0.00455 0.24437 0.85535 0.0
H783 H 0.04533 0.2361 0.84319 0.0
H784 H 0.32874 0.39037 0.44449 0.0
H785 H 0.31884 0.42605 0.42338 0.0
H786 H 0.24656 0.40213 0.4166 0.0
H787 H 0.25613 0.36647 0.43845 0.0
H788 H 0.30194 0.43442 0.38166 0.0
H789 H 0.23765 0.4661 0.44632 0.0
H790 H 0.25702 0.44118 0.45122 0.0
H791 H 0.23094 0.43778 0.43401 0.0
C792 C 0.31075 0.39248 0.43837 0.0
C793 C 0.29315 0.37565 0.44345 0.0
C794 C 0.30513 0.41295 0.42627 0.0
C795 C 0.28185 0.417 0.41884 0.0
C796 C 0.26449 0.39964 0.42271 0.0
H797 H 0.26554 0.54374 0.33381 0.0
H798 H 0.26044 0.5031 0.34698 0.0
C799 C 0.27005 0.37919 0.43505 0.0
C800 C 0.27598 0.43987 0.40782 0.0
H801 H 0.24453 0.49104 0.41511 0.0
C802 C 0.2892 0.44673 0.3888 0.0
C803 C 0.25951 0.45596 0.41737 0.0
C804 C 0.24558 0.45005 0.43846 0.0
C805 C 0.28717 0.46955 0.37958 0.0
C806 C 0.27079 0.48571 0.38919 0.0
C807 C 0.2569 0.47854 0.40769 0.0
C808 C 0.26966 0.51079 0.38179 0.0
C809 C 0.30361 0.47651 0.36052 0.0
C810 C 0.27481 0.5289 0.39731 0.0
C811 C 0.27704 0.55233 0.38999 0.0
C812 C 0.27439 0.55808 0.36693 0.0
C813 C 0.26765 0.54008 0.3517 0.0
C814 C 0.26508 0.51671 0.35912 0.0
H815 H 0.31875 0.46403 0.35884 0.0
H816 H 0.29367 0.47636 0.3443 0.0
H817 H 0.31081 0.49462 0.36318 0.0
H818 H 0.27813 0.52478 0.41496 0.0
H819 H 0.2816 0.56579 0.40231 0.0
H820 H 0.11925 0.75142 0.94553 0.0
H821 H 0.0831 0.74993 0.92259 0.0
H822 H 0.0736 0.82519 0.93154 0.0
H823 H 0.10967 0.827 0.95414 0.0
H824 H 0.03789 0.7625 0.93738 0.0
H825 H 0.06416 0.81693 0.8635 0.0
H826 H 0.08552 0.80452 0.88301 0.0
H827 H 0.07002 0.83145 0.88995 0.0
C828 C 0.10968 0.76773 0.94234 0.0
C829 C 0.1174 0.78934 0.95172 0.0
C830 C 0.08901 0.76681 0.92926 0.0
C831 C 0.07588 0.78749 0.92514 0.0
C832 C 0.08375 0.80911 0.93412 0.0
H833 H 0.94218 0.83553 0.8785 0.0
H834 H 0.98153 0.82871 0.8945 0.0
C835 C 0.10433 0.81006 0.94719 0.0
C836 C 0.053 0.78644 0.9129 0.0
H837 H 0.0223 0.81196 0.86945 0.0
C838 C 0.03454 0.77295 0.92228 0.0
C839 C 0.04877 0.80008 0.89321 0.0
C840 C 0.06824 0.81387 0.88169 0.0
C841 C 0.01155 0.77378 0.91318 0.0
C842 C 0.00712 0.78827 0.8941 0.0
C843 C 0.02579 0.80099 0.88419 0.0
C844 C 0.98294 0.79171 0.88501 0.0
C845 C 0.99195 0.76008 0.92462 0.0
C846 C 0.97073 0.77309 0.87446 0.0
C847 C 0.94812 0.77689 0.8654 0.0
C848 C 0.93742 0.79938 0.86678 0.0
C849 C 0.94973 0.8179 0.87752 0.0
C850 C 0.97229 0.81411 0.88649 0.0
H851 H 0.99754 0.75284 0.94129 0.0
H852 H 0.97617 0.77155 0.92714 0.0
H853 H 0.98659 0.74504 0.91365 0.0
H854 H 0.97881 0.75574 0.87296 0.0
H855 H 0.93903 0.76226 0.8573 0.0
H856 H 0.80658 0.11954 0.92202 0.0
H857 H 0.79622 0.08208 0.90392 0.0
H858 H 0.73167 0.07896 0.94289 0.0
H859 H 0.74171 0.11668 0.9609 0.0
H860 H 0.79247 0.04351 0.93431 0.0
H861 H 0.71233 0.05175 0.87982 0.0
H862 H 0.73113 0.07674 0.8865 0.0
H863 H 0.71101 0.06538 0.90736 0.0
C864 C 0.78978 0.11132 0.92618 0.0
C865 C 0.77514 0.12088 0.94313 0.0
C866 C 0.78387 0.08994 0.9158 0.0
C867 C 0.76326 0.07774 0.92217 0.0
C868 C 0.74752 0.08826 0.93755 0.0
H869 H 0.76462 0.92303 0.91584 0.0
H870 H 0.75502 0.96316 0.9289 0.0
C871 C 0.75333 0.10981 0.94785 0.0
C872 C 0.76073 0.0525 0.91595 0.0
H873 H 0.72731 0.013 0.88597 0.0
C874 C 0.77818 0.03681 0.92379 0.0
C875 C 0.74198 0.04392 0.90238 0.0
C876 C 0.72306 0.06027 0.89334 0.0
C877 C 0.7778 0.01279 0.91797 0.0
C878 C 0.75912 0.0041 0.90431 0.0
C879 C 0.74139 0.01971 0.89671 0.0
C880 C 0.75942 0.97942 0.89595 0.0
C881 C 0.79797 0.99713 0.92575 0.0
C882 C 0.76378 0.97521 0.87295 0.0
C883 C 0.76924 0.95241 0.86548 0.0
C884 C 0.77038 0.93341 0.8809 0.0
C885 C 0.76424 0.93739 0.90365 0.0
C886 C 0.75867 0.96024 0.91111 0.0
H887 H 0.81315 0.00759 0.9324 0.0
H888 H 0.79165 0.98531 0.93951 0.0
H889 H 0.80443 0.98584 0.91164 0.0
H890 H 0.76453 0.98981 0.86103 0.0
H891 H 0.77411 0.95004 0.84788 0.0
H892 H 0.38053 0.32599 0.42741 0.0
H893 H 0.41155 0.31859 0.39954 0.0
H894 H 0.40534 0.24335 0.41096 0.0
H895 H 0.37422 0.2505 0.43897 0.0
H896 H 0.45127 0.26226 0.41704 0.0
H897 H 0.41301 0.29045 0.33495 0.0
H898 H 0.40812 0.31146 0.3573 0.0
H899 H 0.39494 0.28249 0.35908 0.0
C900 C 0.38543 0.30783 0.42376 0.0
C901 C 0.37501 0.28886 0.43558 0.0
C902 C 0.40302 0.30363 0.40765 0.0
C903 C 0.41049 0.28042 0.40302 0.0
C904 C 0.3996 0.26137 0.41417 0.0
H905 H 0.55102 0.2552 0.34202 0.0
H906 H 0.51078 0.24532 0.35462 0.0
C907 C 0.38186 0.26553 0.43019 0.0
C908 C 0.43171 0.27654 0.38886 0.0
H909 H 0.4557 0.29061 0.3376 0.0
C910 C 0.4522 0.26788 0.39948 0.0
C911 C 0.43272 0.28391 0.36602 0.0
C912 C 0.41096 0.29239 0.35358 0.0
C913 C 0.47418 0.26817 0.38842 0.0
C914 C 0.47548 0.27681 0.36593 0.0
C915 C 0.45465 0.28401 0.35483 0.0
C916 C 0.49855 0.2817 0.35498 0.0
C917 C 0.49603 0.26092 0.40151 0.0
C918 C 0.50454 0.30522 0.34989 0.0
C919 C 0.52725 0.31084 0.34241 0.0
C920 C 0.54453 0.29305 0.33998 0.0
C921 C 0.53812 0.26929 0.34382 0.0
C922 C 0.51523 0.26365 0.3512 0.0
H923 H 0.4924 0.25875 0.41989 0.0
H924 H 0.50263 0.24372 0.39494 0.0
H925 H 0.51034 0.27426 0.39944 0.0
H926 H 0.49189 0.3194 0.35255 0.0
H927 H 0.53145 0.32923 0.339 0.0
H928 H 0.24038 0.86179 0.94231 0.0
H929 H 0.24502 0.8982 0.92009 0.0
H930 H 0.17286 0.91772 0.93536 0.0
H931 H 0.16784 0.88143 0.95704 0.0
H932 H 0.18467 0.92561 0.89083 0.0
H933 H 0.25222 0.96362 0.94926 0.0
H934 H 0.25915 0.93535 0.9369 0.0
H935 H 0.23494 0.9378 0.95649 0.0
C936 C 0.22543 0.87373 0.94076 0.0
C937 C 0.2038 0.86875 0.95167 0.0
C938 C 0.22818 0.89459 0.92818 0.0
C939 C 0.20941 0.91082 0.92644 0.0
C940 C 0.1876 0.90546 0.93657 0.0
H941 H 0.19079 0.05771 0.91073 0.0
H942 H 0.20005 0.01729 0.9226 0.0
C943 C 0.18479 0.88467 0.94902 0.0
C944 C 0.21225 0.93385 0.91474 0.0
H945 H 0.23883 0.98798 0.91963 0.0
C946 C 0.19674 0.93918 0.89686 0.0
C947 C 0.22792 0.95149 0.92285 0.0
C948 C 0.24442 0.94697 0.94253 0.0
C949 C 0.19564 0.96201 0.88755 0.0
C950 C 0.21098 0.97982 0.89596 0.0
C951 C 0.22723 0.97422 0.91316 0.0
C952 C 0.20852 0.00488 0.88887 0.0
C953 C 0.17707 0.96718 0.86977 0.0
C954 C 0.21104 0.01151 0.8661 0.0
C955 C 0.20528 0.0345 0.85919 0.0
C956 C 0.19725 0.05135 0.87501 0.0
C957 C 0.19637 0.04504 0.89804 0.0
C958 C 0.2019 0.022 0.90489 0.0
H959 H 0.16353 0.95291 0.86873 0.0
H960 H 0.1679 0.98418 0.87337 0.0
H961 H 0.18572 0.96866 0.85296 0.0
H962 H 0.2166 -0.00132 0.85355 0.0
H963 H 0.20607 0.03867 0.8413 0.0
H964 H 0.6141 0.67823 0.4437 0.0
H965 H 0.57825 0.68207 0.42107 0.0
H966 H 0.58433 0.75824 0.42326 0.0
H967 H 0.62033 0.75462 0.44629 0.0
H968 H 0.54057 0.74174 0.43704 0.0
H969 H 0.56502 0.70024 0.35566 0.0
H970 H 0.57322 0.68184 0.37918 0.0
H971 H 0.58691 0.71047 0.37577 0.0
C972 C 0.6081 0.69584 0.43911 0.0
C973 C 0.62003 0.71613 0.44695 0.0
C974 C 0.58769 0.69798 0.42595 0.0
C975 C 0.57882 0.72042 0.42022 0.0
C976 C 0.59105 0.74075 0.42735 0.0
H977 H 0.43227 0.73577 0.36814 0.0
H978 H 0.47305 0.74718 0.37789 0.0
C979 C 0.61161 0.73863 0.44048 0.0
C980 C 0.5554 0.72229 0.40905 0.0
H981 H 0.52319 0.69911 0.36547 0.0
C982 C 0.53681 0.733 0.42108 0.0
C983 C 0.55062 0.71095 0.3882 0.0
C984 C 0.57008 0.70045 0.37385 0.0
C985 C 0.51324 0.73099 0.41369 0.0
C986 C 0.50833 0.71813 0.39371 0.0
C987 C 0.52706 0.7088 0.3809 0.0
C988 C 0.48385 0.71172 0.38732 0.0
C989 C 0.49362 0.7412 0.42805 0.0
C990 C 0.47664 0.68804 0.38923 0.0
C991 C 0.45353 0.68149 0.3837 0.0
C992 C 0.43718 0.69852 0.37605 0.0
C993 C 0.44451 0.72227 0.37396 0.0
C994 C 0.4677 0.72883 0.3796 0.0
H995 H 0.50031 0.7486 0.44428 0.0
H996 H 0.48459 0.7556 0.41856 0.0
H997 H 0.48021 0.72736 0.43185 0.0
H998 H 0.48891 0.6746 0.39512 0.0
H999 H 0.44859 0.663 0.38507 0.0
H1000 H 0.26059 0.37109 0.54271 0.0
H1001 H 0.25673 0.40498 0.56843 0.0
H1002 H 0.33271 0.4073 0.5762 0.0
H1003 H 0.33678 0.37347 0.55092 0.0
H1004 H 0.30623 0.41689 0.61704 0.0
H1005 H 0.27692 0.4704 0.54259 0.0
H1006 H 0.26014 0.44425 0.54938 0.0
H1007 H 0.29005 0.44144 0.5394 0.0
C1008 C 0.27643 0.3785 0.55028 0.0
C1009 C 0.29903 0.36986 0.54444 0.0
C1010 C 0.27418 0.3979 0.56489 0.0
C1011 C 0.29447 0.40882 0.57385 0.0
C1012 C 0.31685 0.39915 0.56936 0.0
H1013 H 0.35642 0.53045 0.62918 0.0
H1014 H 0.34379 0.49063 0.61848 0.0
C1015 C 0.31913 0.37988 0.55478 0.0
C1016 C 0.29304 0.43173 0.58587 0.0
H1017 H 0.28601 0.49086 0.57583 0.0
C1018 C 0.30138 0.43306 0.60823 0.0
C1019 C 0.28665 0.45275 0.57428 0.0
C1020 C 0.27805 0.45235 0.55005 0.0
C1021 C 0.30448 0.455 0.619 0.0
C1022 C 0.29956 0.47607 0.60687 0.0
C1023 C 0.28984 0.47466 0.58504 0.0
C1024 C 0.30662 0.4997 0.61541 0.0
C1025 C 0.31349 0.45543 0.64306 0.0
C1026 C 0.29 0.51815 0.61676 0.0
C1027 C 0.29725 0.54106 0.62248 0.0
C1028 C 0.3213 0.54594 0.62678 0.0
C1029 C 0.33782 0.52733 0.62572 0.0
C1030 C 0.33056 0.50446 0.61999 0.0
H1031 H 0.30851 0.43898 0.65226 0.0
H1032 H 0.33314 0.45651 0.64289 0.0
H1033 H 0.30649 0.47095 0.65248 0.0
H1034 H 0.27148 0.51489 0.61298 0.0
H1035 H 0.28413 0.55507 0.62291 0.0
H1036 H 0.13231 0.80802 0.067 0.0
H1037 H 0.09866 0.80077 0.09178 0.0
H1038 H 0.09271 0.72952 0.06592 0.0
H1039 H 0.12641 0.73672 0.04074 0.0
H1040 H 0.05285 0.75609 0.05943 0.0
H1041 H 0.08109 0.76432 0.14858 0.0
H1042 H 0.09262 0.78814 0.13175 0.0
H1043 H 0.10173 0.75814 0.12592 0.0
C1044 C 0.1243 0.79057 0.067 0.0
C1045 C 0.1318 0.77307 0.05165 0.0
C1046 C 0.1052 0.78635 0.0814 0.0
C1047 C 0.09329 0.76454 0.08082 0.0
C1048 C 0.1018 0.74641 0.06673 0.0
H1049 H 0.94282 0.75982 0.12099 0.0
H1050 H 0.98213 0.74445 0.11134 0.0
C1051 C 0.12106 0.75057 0.05236 0.0
C1052 C 0.0697 0.76262 0.09157 0.0
H1053 H 0.04023 0.77579 0.14039 0.0
C1054 C 0.05003 0.75968 0.07728 0.0
C1055 C 0.06612 0.76738 0.11481 0.0
C1056 C 0.08656 0.76943 0.13117 0.0
C1057 C 0.02691 0.76343 0.08517 0.0
C1058 C 0.02343 0.76977 0.1081 0.0
C1059 C 0.04299 0.77105 0.12278 0.0
C1060 C 8e-05 0.77792 0.11636 0.0
C1061 C 0.00661 0.76233 0.0685 0.0
C1062 C 0.99736 0.80159 0.12312 0.0
C1063 C 0.97506 0.81035 0.12889 0.0
C1064 C 0.955 0.79559 0.12797 0.0
C1065 C 0.95792 0.77164 0.12191 0.0
C1066 C 0.98031 0.76285 0.11624 0.0
H1067 H 0.01285 0.76124 0.05069 0.0
H1068 H 0.99571 0.74639 0.07204 0.0
H1069 H 0.99505 0.77817 0.07021 0.0
H1070 H 0.01245 0.81348 0.12338 0.0
H1071 H 0.97352 0.82872 0.13398 0.0
H1072 H 0.67506 0.64303 0.56289 0.0
H1073 H 0.68125 0.60972 0.58829 0.0
H1074 H 0.7547 0.6061 0.56827 0.0
H1075 H 0.74852 0.63946 0.54229 0.0
H1076 H 0.73196 0.56451 0.56227 0.0
H1077 H 0.71232 0.59666 0.64831 0.0
H1078 H 0.68939 0.60578 0.62918 0.0
H1079 H 0.71919 0.6166 0.62526 0.0
C1080 C 0.69271 0.63557 0.56423 0.0
C1081 C 0.71124 0.64374 0.55037 0.0
C1082 C 0.69629 0.61664 0.579 0.0
C1083 C 0.71851 0.60557 0.58041 0.0
C1084 C 0.73746 0.61453 0.56758 0.0
H1085 H 0.72425 0.46024 0.63747 0.0
H1086 H 0.73948 0.49904 0.62534 0.0
C1087 C 0.7339 0.63361 0.55278 0.0
C1088 C 0.72053 0.58263 0.59248 0.0
H1089 H 0.70251 0.55495 0.6409 0.0
C1090 C 0.72629 0.56243 0.57971 0.0
C1091 C 0.7132 0.57995 0.61525 0.0
C1092 C 0.70844 0.60098 0.63032 0.0
C1093 C 0.72282 0.53957 0.58846 0.0
C1094 C 0.71347 0.53697 0.6105 0.0
C1095 C 0.70947 0.55709 0.62389 0.0
C1096 C 0.7048 0.51383 0.61867 0.0
C1097 C 0.72743 0.51835 0.57356 0.0
C1098 C 0.68034 0.50954 0.61899 0.0
C1099 C 0.67163 0.48753 0.62577 0.0
C1100 C 0.68726 0.46944 0.6325 0.0
C1101 C 0.71181 0.4739 0.63244 0.0
C1102 C 0.72053 0.49596 0.62549 0.0
H1103 H 0.73385 0.52347 0.55646 0.0
H1104 H 0.74094 0.50677 0.58163 0.0
H1105 H 0.71094 0.50778 0.57168 0.0
H1106 H 0.66797 0.5232 0.61376 0.0
H1107 H 0.65263 0.48476 0.626 0.0
H1108 H 0.89273 0.14993 0.02784 0.0
H1109 H 0.92676 0.15022 0.05336 0.0
H1110 H 0.91202 0.22283 0.07112 0.0
H1111 H 0.87779 0.22289 0.04549 0.0
H1112 H 0.96627 0.18737 0.0499 0.0
H1113 H 0.91919 0.18162 0.13276 0.0
H1114 H 0.90605 0.17075 0.10684 0.0
H1115 H 0.90848 0.20202 0.11155 0.0
C1116 C 0.89656 0.16597 0.03721 0.0
C1117 C 0.88253 0.18642 0.03456 0.0
C1118 C 0.91603 0.16607 0.05177 0.0
C1119 C 0.9217 0.18648 0.06411 0.0
C1120 C 0.90771 0.20687 0.06179 0.0
H1121 H 0.05689 0.20599 0.1341 0.0
H1122 H 0.01934 0.21417 0.11469 0.0
C1123 C 0.88826 0.20687 0.04708 0.0
C1124 C 0.94291 0.18649 0.07868 0.0
H1125 H 0.961 0.18148 0.13365 0.0
C1126 C 0.9652 0.18636 0.06822 0.0
C1127 C 0.94123 0.18502 0.1025 0.0
C1128 C 0.91751 0.18476 0.11425 0.0
C1129 C 0.98602 0.18437 0.08104 0.0
C1130 C 0.98437 0.18258 0.10486 0.0
C1131 C 0.96208 0.18304 0.11537 0.0
C1132 C 0.00566 0.17862 0.11885 0.0
C1133 C 0.0096 0.18338 0.06902 0.0
C1134 C 0.00996 0.15612 0.12804 0.0
C1135 C 0.03133 0.15138 0.13908 0.0
C1136 C 0.04863 0.16917 0.14122 0.0
C1137 C 0.04381 0.192 0.13283 0.0
C1138 C 0.02247 0.19668 0.12167 0.0
H1139 H 0.00756 0.18179 0.05036 0.0
H1140 H 0.01973 0.1998 0.07269 0.0
H1141 H 0.02021 0.16813 0.07527 0.0
H1142 H 0.99711 0.142 0.12598 0.0
H1143 H 0.03448 0.13372 0.14563 0.0
H1144 H 0.21242 0.71683 0.04274 0.0
H1145 H 0.22878 0.70139 0.07812 0.0
H1146 H 0.28772 0.74968 0.07282 0.0
H1147 H 0.27173 0.7652 0.03736 0.0
H1148 H 0.29859 0.70208 0.09097 0.0
H1149 H 0.22343 0.74849 0.13305 0.0
H1150 H 0.21567 0.72784 0.11107 0.0
H1151 H 0.23176 0.75429 0.10405 0.0
C1152 C 0.22917 0.7238 0.04874 0.0
C1153 C 0.24051 0.7426 0.03741 0.0
C1154 C 0.23844 0.71497 0.069 0.0
C1155 C 0.25915 0.72476 0.07818 0.0
C1156 C 0.27161 0.74203 0.06598 0.0
H1157 H 0.30365 0.73803 0.21705 0.0
H1158 H 0.29271 0.74407 0.17729 0.0
C1159 C 0.26238 0.7509 0.04574 0.0
C1160 C 0.26634 0.71915 0.10159 0.0
H1161 H 0.25002 0.72782 0.1566 0.0
C1162 C 0.28796 0.70753 0.10536 0.0
C1163 C 0.25254 0.72673 0.12022 0.0
C1164 C 0.22963 0.7402 0.11704 0.0
C1165 C 0.29612 0.70315 0.12744 0.0
C1166 C 0.28216 0.7105 0.14604 0.0
C1167 C 0.26058 0.72216 0.14223 0.0
C1168 C 0.28972 0.70667 0.16969 0.0
C1169 C 0.31981 0.69122 0.13076 0.0
C1170 C 0.29145 0.68366 0.17848 0.0
C1171 C 0.29768 0.68017 0.20112 0.0
C1172 C 0.30221 0.69966 0.21533 0.0
C1173 C 0.30048 0.7227 0.20643 0.0
C1174 C 0.29417 0.72617 0.1838 0.0
H1175 H 0.33053 0.69126 0.11497 0.0
H1176 H 0.33007 0.70012 0.14438 0.0
H1177 H 0.31693 0.67253 0.13591 0.0
H1178 H 0.28772 0.66843 0.1679 0.0
H1179 H 0.29913 0.6622 0.20746 0.0
H1180 H 0.76266 0.72567 0.54947 0.0
H1181 H 0.77985 0.7465 0.58169 0.0
H1182 H 0.74259 0.81021 0.56247 0.0
H1183 H 0.72463 0.78928 0.53049 0.0
H1184 H 0.80695 0.78629 0.58783 0.0
H1185 H 0.71726 0.79774 0.62549 0.0
H1186 H 0.72247 0.77924 0.60112 0.0
H1187 H 0.72093 0.81093 0.59804 0.0
C1188 C 0.75831 0.7442 0.55188 0.0
C1189 C 0.74195 0.75571 0.53764 0.0
C1190 C 0.7682 0.75609 0.5703 0.0
C1191 C 0.76206 0.77972 0.57471 0.0
C1192 C 0.74705 0.79178 0.55965 0.0
H1193 H 0.78963 0.8593 0.69875 0.0
H1194 H 0.78194 0.85017 0.65891 0.0
C1195 C 0.73689 0.77981 0.54136 0.0
C1196 C 0.77001 0.79094 0.59602 0.0
H1197 H 0.74951 0.81234 0.64637 0.0
C1198 C 0.79442 0.7922 0.60057 0.0
C1199 C 0.75357 0.79847 0.61263 0.0
C1200 C 0.7271 0.79637 0.60924 0.0
C1201 C 0.80281 0.80044 0.6215 0.0
C1202 C 0.78634 0.80749 0.63818 0.0
C1203 C 0.76202 0.807 0.63338 0.0
C1204 C 0.79367 0.81377 0.66137 0.0
C1205 C 0.82915 0.80129 0.6258 0.0
C1206 C 0.80282 0.79626 0.6758 0.0
C1207 C 0.80686 0.80127 0.69863 0.0
C1208 C 0.80178 0.82389 0.70737 0.0
C1209 C 0.79332 0.84159 0.69262 0.0
C1210 C 0.78914 0.83651 0.66984 0.0
H1211 H 0.83943 0.80069 0.60976 0.0
H1212 H 0.83402 0.81758 0.63527 0.0
H1213 H 0.83435 0.78577 0.63625 0.0
H1214 H 0.80595 0.77846 0.6696 0.0
H1215 H 0.81309 0.78717 0.70958 0.0
H1216 H 0.74016 0.22635 0.04991 0.0
H1217 H 0.7297 0.24339 0.08673 0.0
H1218 H 0.80388 0.24684 0.10452 0.0
H1219 H 0.8144 0.2312 0.06733 0.0
H1220 H 0.73549 0.2277 0.12735 0.0
H1221 H 0.78489 0.31208 0.1208 0.0
H1222 H 0.78107 0.29255 0.09694 0.0
H1223 H 0.8042 0.28713 0.11739 0.0
C1224 C 0.75419 0.23103 0.06164 0.0
C1225 C 0.77806 0.22779 0.05575 0.0
C1226 C 0.74823 0.24071 0.08264 0.0
C1227 C 0.76603 0.24688 0.09821 0.0
C1228 C 0.78987 0.24306 0.09251 0.0
H1229 H 0.73403 0.2662 0.24188 0.0
H1230 H 0.74785 0.25041 0.20546 0.0
C1231 C 0.79586 0.23397 0.07132 0.0
C1232 C 0.75961 0.25649 0.12073 0.0
H1233 H 0.77117 0.30147 0.15768 0.0
C1234 C 0.74314 0.24395 0.13391 0.0
C1235 C 0.76938 0.27784 0.12917 0.0
C1236 C 0.78565 0.29329 0.11521 0.0
C1237 C 0.73618 0.25211 0.15531 0.0
C1238 C 0.74683 0.27283 0.1642 0.0
C1239 C 0.76327 0.28539 0.151 0.0
C1240 C 0.74028 0.28256 0.18664 0.0
C1241 C 0.71692 0.23882 0.16773 0.0
C1242 C 0.73277 0.30622 0.18838 0.0
C1243 C 0.72573 0.3154 0.20922 0.0
C1244 C 0.7258 0.30099 0.22857 0.0
C1245 C 0.73377 0.2775 0.22704 0.0
C1246 C 0.74138 0.26846 0.20625 0.0
H1247 H 0.70585 0.22819 0.15592 0.0
H1248 H 0.72515 0.22637 0.17998 0.0
H1249 H 0.70514 0.2511 0.17715 0.0
H1250 H 0.73184 0.31745 0.17351 0.0
H1251 H 0.71944 0.33353 0.21009 0.0
H1252 H 0.24051 0.2855 0.54957 0.0
H1253 H 0.22617 0.26865 0.58516 0.0
H1254 H 0.27906 0.21362 0.58123 0.0
H1255 H 0.29344 0.23006 0.54555 0.0
H1256 H 0.23319 0.19785 0.59502 0.0
H1257 H 0.26538 0.27545 0.64426 0.0
H1258 H 0.24601 0.28244 0.62101 0.0
H1259 H 0.27462 0.26971 0.6155 0.0
C1260 C 0.24896 0.26965 0.5561 0.0
C1261 C 0.26831 0.25929 0.5448 0.0
C1262 C 0.2408 0.26015 0.57649 0.0
C1263 C 0.25188 0.2402 0.58592 0.0
C1264 C 0.27041 0.22914 0.57422 0.0
H1265 H 0.2475 0.19299 0.72555 0.0
H1266 H 0.25967 0.20604 0.6877 0.0
C1267 C 0.27861 0.2386 0.55384 0.0
C1268 C 0.24481 0.23137 0.60844 0.0
H1269 H 0.24349 0.24651 0.66435 0.0
C1270 C 0.2354 0.20844 0.61021 0.0
C1271 C 0.24816 0.24517 0.62817 0.0
C1272 C 0.25928 0.26949 0.62729 0.0
C1273 C 0.22885 0.19904 0.63128 0.0
C1274 C 0.23158 0.2131 0.65093 0.0
C1275 C 0.24132 0.23589 0.64918 0.0
C1276 C 0.22431 0.20457 0.67351 0.0
C1277 C 0.21941 0.17404 0.63241 0.0
C1278 C 0.20042 0.19968 0.67798 0.0
C1279 C 0.19346 0.19217 0.69947 0.0
C1280 C 0.21028 0.18959 0.71691 0.0
C1281 C 0.23421 0.19459 0.71238 0.0
C1282 C 0.24116 0.20213 0.69085 0.0
H1283 H 0.22401 0.16373 0.617 0.0
H1284 H 0.22645 0.16459 0.64749 0.0
H1285 H 0.1998 0.1746 0.6338 0.0
H1286 H 0.18713 0.20184 0.66488 0.0
H1287 H 0.17493 0.18819 0.70239 0.0
H1288 H 0.76305 0.71942 0.43202 0.0
H1289 H 0.7736 0.72511 0.39226 0.0
H1290 H 0.7085 0.7636 0.38129 0.0
H1291 H 0.69806 0.75857 0.42105 0.0
H1292 H 0.74849 0.70823 0.35622 0.0
H1293 H 0.75634 0.80615 0.35076 0.0
H1294 H 0.75558 0.79059 0.37747 0.0
H1295 H 0.72857 0.79632 0.3622 0.0
C1296 C 0.75119 0.72951 0.42127 0.0
C1297 C 0.72973 0.73857 0.42973 0.0
C1298 C 0.75721 0.73266 0.39855 0.0
C1299 C 0.74189 0.74489 0.38391 0.0
C1300 C 0.72079 0.75452 0.39241 0.0
H1301 H 0.74801 0.77164 0.23881 0.0
H1302 H 0.73262 0.76275 0.27664 0.0
C1303 C 0.71484 0.75158 0.41517 0.0
C1304 C 0.74733 0.74628 0.35947 0.0
H1305 H 0.75655 0.78503 0.31601 0.0
C1306 C 0.75031 0.72502 0.34743 0.0
C1307 C 0.74953 0.76822 0.34806 0.0
C1308 C 0.74756 0.79162 0.36031 0.0
C1309 C 0.75555 0.72513 0.32423 0.0
C1310 C 0.75785 0.74703 0.31292 0.0
C1311 C 0.75449 0.76827 0.32482 0.0
C1312 C 0.76572 0.74854 0.28919 0.0
C1313 C 0.75864 0.70191 0.31193 0.0
C1314 C 0.78922 0.74295 0.28376 0.0
C1315 C 0.79818 0.74833 0.26237 0.0
C1316 C 0.78372 0.75937 0.24603 0.0
C1317 C 0.7597 0.76349 0.25112 0.0
C1318 C 0.75083 0.75831 0.27264 0.0
H1319 H 0.75122 0.6868 0.32171 0.0
H1320 H 0.74994 0.70255 0.29505 0.0
H1321 H 0.77782 0.69858 0.30924 0.0
H1322 H 0.80104 0.73574 0.2965 0.0
H1323 H 0.81684 0.74526 0.25924 0.0
H1324 H 0.73276 0.21136 0.94322 0.0
H1325 H 0.71537 0.23269 0.9112 0.0
H1326 H 0.76787 0.2877 0.91826 0.0
H1327 H 0.78542 0.26669 0.95034 0.0
H1328 H 0.71874 0.3034 0.9094 0.0
H1329 H 0.75289 0.23512 0.84967 0.0
H1330 H 0.73572 0.2244 0.87321 0.0
H1331 H 0.76395 0.23811 0.87824 0.0
C1332 C 0.74046 0.22815 0.9382 0.0
C1333 C 0.76068 0.23717 0.94921 0.0
C1334 C 0.73051 0.24025 0.91987 0.0
C1335 C 0.74058 0.26153 0.9123 0.0
C1336 C 0.75996 0.27122 0.92389 0.0
H1337 H 0.73256 0.32924 0.78176 0.0
H1338 H 0.74484 0.3119 0.81794 0.0
C1339 C 0.76997 0.25913 0.94217 0.0
C1340 C 0.73193 0.27296 0.89142 0.0
H1341 H 0.73009 0.26611 0.83405 0.0
C1342 C 0.72109 0.29528 0.89291 0.0
C1343 C 0.73541 0.26234 0.87 0.0
C1344 C 0.74778 0.23875 0.86751 0.0
C1345 C 0.71343 0.30724 0.87339 0.0
C1346 C 0.71665 0.29646 0.85201 0.0
C1347 C 0.7276 0.27421 0.85054 0.0
C1348 C 0.70914 0.30809 0.8308 0.0
C1349 C 0.70238 0.33148 0.87567 0.0
C1350 C 0.68502 0.31158 0.82617 0.0
C1351 C 0.67796 0.32147 0.80557 0.0
C1352 C 0.69495 0.32799 0.78929 0.0
C1353 C 0.71911 0.32464 0.79409 0.0
C1354 C 0.72614 0.31466 0.81466 0.0
H1355 H 0.70557 0.33928 0.89269 0.0
H1356 H 0.70948 0.34374 0.86261 0.0
H1357 H 0.68295 0.33004 0.87309 0.0
H1358 H 0.67166 0.3063 0.83835 0.0
H1359 H 0.65922 0.32404 0.80237 0.0
H1360 H 0.28556 0.2304 0.43693 0.0
H1361 H 0.27415 0.21747 0.39904 0.0
H1362 H 0.23529 0.28249 0.38905 0.0
H1363 H 0.24629 0.29552 0.42716 0.0
H1364 H 0.21211 0.24237 0.37218 0.0
H1365 H 0.30536 0.24643 0.34285 0.0
H1366 H 0.3015 0.22806 0.3674 0.0
H1367 H 0.29574 0.25938 0.36925 0.0
C1368 C 0.27433 0.24185 0.42683 0.0
C1369 C 0.26707 0.26412 0.43497 0.0
C1370 C 0.26798 0.2345 0.40513 0.0
C1371 C 0.25449 0.24936 0.3911 0.0
C1372 C 0.24596 0.27093 0.3996 0.0
H1373 H 0.21162 0.22768 0.24976 0.0
H1374 H 0.22129 0.24699 0.28578 0.0
C1375 C 0.25219 0.27827 0.4214 0.0
C1376 C 0.24993 0.24256 0.36736 0.0
H1377 H 0.27792 0.22665 0.31844 0.0
C1378 C 0.22643 0.23921 0.36031 0.0
C1379 C 0.26873 0.23875 0.35192 0.0
C1380 C 0.29424 0.24357 0.35813 0.0
C1381 C 0.22128 0.231 0.33844 0.0
C1382 C 0.24014 0.22622 0.32339 0.0
C1383 C 0.26358 0.23029 0.33017 0.0
C1384 C 0.23591 0.21536 0.30109 0.0
C1385 C 0.19583 0.22659 0.33179 0.0
C1386 C 0.24157 0.19145 0.29777 0.0
C1387 C 0.23592 0.18034 0.2774 0.0
C1388 C 0.22466 0.19304 0.25993 0.0
C1389 C 0.21995 0.21734 0.26302 0.0
C1390 C 0.2255 0.2284 0.2835 0.0
H1391 H 0.18348 0.22871 0.3463 0.0
H1392 H 0.19061 0.23931 0.31833 0.0
H1393 H 0.19383 0.20843 0.3248 0.0
H1394 H 0.24963 0.18119 0.31126 0.0
H1395 H 0.23947 0.16155 0.27574 0.0
H1396 H 0.19139 0.7398 0.92234 0.0
H1397 H 0.20077 0.7304 0.88304 0.0
H1398 H 0.26822 0.76572 0.88983 0.0
H1399 H 0.25873 0.77582 0.92904 0.0
H1400 H 0.24465 0.77933 0.85186 0.0
H1401 H 0.24552 0.68114 0.85823 0.0
H1402 H 0.21844 0.69431 0.86799 0.0
H1403 H 0.24569 0.70005 0.88286 0.0
C1404 C 0.20838 0.74528 0.91561 0.0
C1405 C 0.22437 0.75849 0.92886 0.0
C1406 C 0.21373 0.73983 0.89314 0.0
C1407 C 0.23531 0.7471 0.88364 0.0
C1408 C 0.25147 0.75993 0.8969 0.0
H1409 H 0.31137 0.72512 0.76134 0.0
H1410 H 0.29633 0.73876 0.7977 0.0
C1411 C 0.24605 0.76561 0.91931 0.0
C1412 C 0.24067 0.74219 0.8596 0.0
H1413 H 0.24769 0.6975 0.82127 0.0
C1414 C 0.24533 0.76144 0.84517 0.0
C1415 C 0.24146 0.71882 0.85094 0.0
C1416 C 0.23773 0.69738 0.86584 0.0
C1417 C 0.25092 0.75791 0.8223 0.0
C1418 C 0.25179 0.7346 0.81375 0.0
C1419 C 0.24672 0.71537 0.82798 0.0
C1420 C 0.2599 0.72954 0.79056 0.0
C1421 C 0.25598 0.77903 0.80739 0.0
C1422 C 0.24421 0.72021 0.77446 0.0
C1423 C 0.25267 0.71273 0.75341 0.0
C1424 C 0.27701 0.71411 0.74835 0.0
C1425 C 0.29247 0.72422 0.76439 0.0
C1426 C 0.28396 0.73191 0.78527 0.0
H1427 H 0.25019 0.79591 0.81534 0.0
H1428 H 0.27534 0.78011 0.80421 0.0
H1429 H 0.24698 0.77708 0.79075 0.0
H1430 H 0.22556 0.71823 0.7784 0.0
H1431 H 0.24024 0.70533 0.74135 0.0
loop_
_geom_bond_atom_site_label_1
_geom_bond_atom_site_label_2
_geom_bond_distance
_geom_bond_site_symmetry_2
_ccdc_geom_bond_type
Sc0 O3 2.025 . S
Sc0 O10 2.105 1_554 S
Sc0 O13 2.105 . S
Sc0 O16 2.105 . S
Sc0 O19 2.105 1_554 S
Sc1 O3 2.025 . S
Sc1 O11 2.105 1_554 S
Sc1 O15 2.105 . S
Sc1 O17 2.105 . S
Sc1 O21 2.105 1_554 S
Sc2 O3 2.025 . S
Sc2 O12 2.105 1_554 S
Sc2 O14 2.105 . S
Sc2 O18 2.105 . S
Sc2 O20 2.105 1_554 S
O3 Sc0 2.025 . S
O3 Sc1 2.025 . S
O3 Sc2 2.025 . S
C4 O10 1.268 . S
C4 O20 1.268 . S
C5 O11 1.268 . S
C5 O19 1.268 . S
C6 O12 1.268 . S
C6 O21 1.268 . S
C7 O13 1.268 . S
C7 O17 1.268 . S
C8 O14 1.268 . S
C8 O16 1.268 . S
C9 O15 1.268 . S
C9 O18 1.268 . S
O10 Sc0 2.105 1_556 S
O10 C4 1.268 . S
O11 Sc1 2.105 1_556 S
O11 C5 1.268 . S
O12 Sc2 2.105 1_556 S
O12 C6 1.268 . S
O13 Sc0 2.105 . S
O13 C7 1.268 . S
O14 Sc2 2.105 . S
O14 C8 1.268 . S
O15 Sc1 2.105 . S
O15 C9 1.268 . S
O16 Sc0 2.105 . S
O16 C8 1.268 . S
O17 Sc1 2.105 . S
O17 C7 1.268 . S
O18 Sc2 2.105 . S
O18 C9 1.268 . S
O19 Sc0 2.105 1_556 S
O19 C5 1.268 . S
O20 Sc2 2.105 1_556 S
O20 C4 1.268 . S
O21 Sc1 2.105 1_556 S
O21 C6 1.268 . S
Sc22 O25 2.025 . S
Sc22 O32 2.105 . S
Sc22 O35 2.105 . S
Sc22 O38 2.105 . S
Sc22 O41 2.105 . S
Sc23 O25 2.025 . S
Sc23 O33 2.105 . S
Sc23 O37 2.105 . S
Sc23 O39 2.105 . S
Sc23 O43 2.105 . S
Sc24 O25 2.025 . S
Sc24 O34 2.105 . S
Sc24 O36 2.105 . S
Sc24 O40 2.105 . S
Sc24 O42 2.105 . S
O25 Sc22 2.025 . S
O25 Sc23 2.025 . S
O25 Sc24 2.025 . S
C26 O32 1.268 . S
C26 O42 1.268 . S
C27 O33 1.268 . S
C27 O41 1.268 . S
C28 O34 1.268 . S
C28 O43 1.268 . S
C29 O35 1.268 . S
C29 O39 1.268 . S
C30 O36 1.268 . S
C30 O38 1.268 . S
C31 O37 1.268 . S
C31 O40 1.268 . S
O32 Sc22 2.105 . S
O32 C26 1.268 . S
O33 Sc23 2.105 . S
O33 C27 1.268 . S
O34 Sc24 2.105 . S
O34 C28 1.268 . S
O35 Sc22 2.105 . S
O35 C29 1.268 . S
O36 Sc24 2.105 . S
O36 C30 1.268 . S
O37 Sc23 2.105 . S
O37 C31 1.268 . S
O38 Sc22 2.105 . S
O38 C30 1.268 . S
O39 Sc23 2.105 . S
O39 C29 1.268 . S
O40 Sc24 2.105 . S
O40 C31 1.268 . S
O41 Sc22 2.105 . S
O41 C27 1.268 . S
O42 Sc24 2.105 . S
O42 C26 1.268 . S
O43 Sc23 2.105 . S
O43 C28 1.268 . S
Sc44 O47 2.025 . S
Sc44 O54 2.105 1_554 S
Sc44 O57 2.105 . S
Sc44 O60 2.105 . S
Sc44 O63 2.105 1_554 S
Sc45 O47 2.025 . S
Sc45 O55 2.105 1_554 S
Sc45 O59 2.105 . S
Sc45 O61 2.105 . S
Sc45 O65 2.105 1_554 S
Sc46 O47 2.025 . S
Sc46 O56 2.105 1_554 S
Sc46 O58 2.105 . S
Sc46 O62 2.105 . S
Sc46 O64 2.105 1_554 S
O47 Sc44 2.025 . S
O47 Sc45 2.025 . S
O47 Sc46 2.025 . S
C48 O54 1.268 . S
C48 O64 1.268 . S
C49 O55 1.268 . S
C49 O63 1.268 . S
C50 O56 1.268 . S
C50 O65 1.268 . S
C51 O57 1.268 . S
C51 O61 1.268 . S
C52 O58 1.268 . S
C52 O60 1.268 . S
C53 O59 1.268 . S
C53 O62 1.268 . S
O54 Sc44 2.105 1_556 S
O54 C48 1.268 . S
O55 Sc45 2.105 1_556 S
O55 C49 1.268 . S
O56 Sc46 2.105 1_556 S
O56 C50 1.268 . S
O57 Sc44 2.105 . S
O57 C51 1.268 . S
O58 Sc46 2.105 . S
O58 C52 1.268 . S
O59 Sc45 2.105 . S
O59 C53 1.268 . S
O60 Sc44 2.105 . S
O60 C52 1.268 . S
O61 Sc45 2.105 . S
O61 C51 1.268 . S
O62 Sc46 2.105 . S
O62 C53 1.268 . S
O63 Sc44 2.105 1_556 S
O63 C49 1.268 . S
O64 Sc46 2.105 1_556 S
O64 C48 1.268 . S
O65 Sc45 2.105 1_556 S
O65 C50 1.268 . S
Sc66 O69 2.025 . S
Sc66 O76 2.105 . S
Sc66 O79 2.105 . S
Sc66 O82 2.105 . S
Sc66 O85 2.105 . S
Sc67 O69 2.025 . S
Sc67 O77 2.105 . S
Sc67 O81 2.105 . S
Sc67 O83 2.105 . S
Sc67 O87 2.105 . S
Sc68 O69 2.025 . S
Sc68 O78 2.105 . S
Sc68 O80 2.105 . S
Sc68 O84 2.105 . S
Sc68 O86 2.105 . S
O69 Sc66 2.025 . S
O69 Sc67 2.025 . S
O69 Sc68 2.025 . S
C70 O76 1.268 . S
C70 O86 1.268 . S
C71 O77 1.268 . S
C71 O85 1.268 . S
C72 O78 1.268 . S
C72 O87 1.268 . S
C73 O79 1.268 . S
C73 O83 1.268 . S
C74 O80 1.268 . S
C74 O82 1.268 . S
C75 O81 1.268 . S
C75 O84 1.268 . S
O76 Sc66 2.105 . S
O76 C70 1.268 . S
O77 Sc67 2.105 . S
O77 C71 1.268 . S
O78 Sc68 2.105 . S
O78 C72 1.268 . S
O79 Sc66 2.105 . S
O79 C73 1.268 . S
O80 Sc68 2.105 . S
O80 C74 1.268 . S
O81 Sc67 2.105 . S
O81 C75 1.268 . S
O82 Sc66 2.105 . S
O82 C74 1.268 . S
O83 Sc67 2.105 . S
O83 C73 1.268 . S
O84 Sc68 2.105 . S
O84 C75 1.268 . S
O85 Sc66 2.105 . S
O85 C71 1.268 . S
O86 Sc68 2.105 . S
O86 C70 1.268 . S
O87 Sc67 2.105 . S
O87 C72 1.268 . S
C88 C89 1.391 . S
C88 C92 1.391 . S
C88 H130 0.948 . S
C89 C88 1.391 . S
C89 C90 1.391 . S
C90 C89 1.391 . S
C90 H146 0.947 . S
C90 C147 1.392 . S
C91 C92 1.391 . S
C91 C95 1.397 . S
C91 C147 1.419 . S
C92 C88 1.391 . S
C92 C91 1.391 . S
C92 C93 1.399 . S
C93 C92 1.399 . S
C93 C96 1.396 . S
C93 C105 1.453 . S
C93 C106 1.684 . S
H94 C118 0.948 . S
C95 C91 1.397 . S
C95 C96 1.394 . S
C95 C114 1.723 . S
C96 C93 1.396 . S
C96 C95 1.394 . S
C96 C126 1.723 . S
H97 C120 0.947 . S
H98 C121 0.948 . S
H99 C127 0.982 . S
H100 C128 0.979 . S
H101 C128 0.980 . S
H102 C128 0.983 . S
H103 C127 0.979 . S
H104 C127 0.977 . S
C105 C93 1.453 . S
C105 H134 0.982 . S
C105 H135 0.979 . S
C105 H136 0.977 . S
C106 C93 1.684 . S
C106 H131 0.979 . S
C106 H132 0.980 . S
C106 H133 0.983 . S
C107 C108 1.391 . S
C107 C112 1.391 . S
C107 H137 0.948 . S
C108 C107 1.391 . S
C108 C109 1.391 . S
C109 C108 1.391 . S
C109 C110 1.392 . S
C109 H138 0.947 . S
C110 C109 1.392 . S
C110 C111 1.419 . S
C110 H139 0.948 . S
C111 C110 1.419 . S
C111 C112 1.391 . S
C111 C115 1.397 . S
C112 C107 1.391 . S
C112 C111 1.391 . S
C112 C113 1.399 . S
C113 C112 1.399 . S
C113 C114 1.396 . S
C113 C116 1.453 . S
C113 C117 1.684 . S
C114 C95 1.723 . S
C114 C113 1.396 . S
C114 C115 1.394 . S
C115 C111 1.397 . S
C115 C114 1.394 . S
C115 C125 1.723 . S
C116 C113 1.453 . S
C116 H140 0.982 . S
C116 H141 0.979 . S
C116 H142 0.977 . S
C117 C113 1.684 . S
C117 H143 0.979 . S
C117 H144 0.980 . S
C117 H145 0.983 . S
C118 H94 0.948 . S
C118 C119 1.391 . S
C118 C123 1.391 . S
C119 C118 1.391 . S
C119 C120 1.391 . S
C120 H97 0.947 . S
C120 C119 1.391 . S
C120 C121 1.392 . S
C121 H98 0.948 . S
C121 C120 1.392 . S
C121 C122 1.419 . S
C122 C121 1.419 . S
C122 C123 1.391 . S
C122 C126 1.397 . S
C123 C118 1.391 . S
C123 C122 1.391 . S
C123 C124 1.399 . S
C124 C123 1.399 . S
C124 C125 1.396 . S
C124 C127 1.453 . S
C124 C128 1.684 . S
C125 C115 1.723 . S
C125 C124 1.396 . S
C125 C126 1.394 . S
C126 C96 1.723 . S
C126 C122 1.397 . S
C126 C125 1.394 . S
C127 H99 0.982 . S
C127 H103 0.979 . S
C127 H104 0.977 . S
C127 C124 1.453 . S
C128 H100 0.979 . S
C128 H101 0.980 . S
C128 H102 0.983 . S
C128 C124 1.684 . S
H129 C147 0.948 . S
H130 C88 0.948 . S
H131 C106 0.979 . S
H132 C106 0.980 . S
H133 C106 0.983 . S
H134 C105 0.982 . S
H135 C105 0.979 . S
H136 C105 0.977 . S
H137 C107 0.948 . S
H138 C109 0.947 . S
H139 C110 0.948 . S
H140 C116 0.982 . S
H141 C116 0.979 . S
H142 C116 0.977 . S
H143 C117 0.979 . S
H144 C117 0.980 . S
H145 C117 0.983 . S
H146 C90 0.947 . S
C147 C90 1.392 . S
C147 C91 1.419 . S
C147 H129 0.948 . S
C148 C149 1.391 . S
C148 C152 1.391 . S
C148 H190 0.948 . S
C149 C148 1.391 . S
C149 C150 1.391 . S
C150 C149 1.391 . S
C150 H206 0.947 . S
C150 C207 1.392 . S
C151 C152 1.391 . S
C151 C155 1.397 . S
C151 C207 1.419 . S
C152 C148 1.391 . S
C152 C151 1.391 . S
C152 C153 1.399 . S
C153 C152 1.399 . S
C153 C156 1.396 . S
C153 C165 1.453 . S
C153 C166 1.684 . S
H154 C178 0.948 . S
C155 C151 1.397 . S
C155 C156 1.394 . S
C155 C174 1.723 . S
C156 C153 1.396 . S
C156 C155 1.394 . S
C156 C186 1.723 . S
H157 C180 0.947 . S
H158 C181 0.948 . S
H159 C187 0.982 . S
H160 C188 0.979 . S
H161 C188 0.980 . S
H162 C188 0.983 . S
H163 C187 0.979 . S
H164 C187 0.977 . S
C165 C153 1.453 . S
C165 H194 0.982 . S
C165 H195 0.979 . S
C165 H196 0.977 . S
C166 C153 1.684 . S
C166 H191 0.979 . S
C166 H192 0.980 . S
C166 H193 0.983 . S
C167 C168 1.391 . S
C167 C172 1.391 . S
C167 H197 0.948 . S
C168 C167 1.391 . S
C168 C169 1.391 . S
C169 C168 1.391 . S
C169 C170 1.392 . S
C169 H198 0.947 . S
C170 C169 1.392 . S
C170 C171 1.419 . S
C170 H199 0.948 . S
C171 C170 1.419 . S
C171 C172 1.391 . S
C171 C175 1.397 . S
C172 C167 1.391 . S
C172 C171 1.391 . S
C172 C173 1.399 . S
C173 C172 1.399 . S
C173 C174 1.396 . S
C173 C176 1.453 . S
C173 C177 1.684 . S
C174 C155 1.723 . S
C174 C173 1.396 . S
C174 C175 1.394 . S
C175 C171 1.397 . S
C175 C174 1.394 . S
C175 C185 1.723 . S
C176 C173 1.453 . S
C176 H200 0.982 . S
C176 H201 0.979 . S
C176 H202 0.977 . S
C177 C173 1.684 . S
C177 H203 0.979 . S
C177 H204 0.980 . S
C177 H205 0.983 . S
C178 H154 0.948 . S
C178 C179 1.391 . S
C178 C183 1.391 . S
C179 C178 1.391 . S
C179 C180 1.391 . S
C180 H157 0.947 . S
C180 C179 1.391 . S
C180 C181 1.392 . S
C181 H158 0.948 . S
C181 C180 1.392 . S
C181 C182 1.419 . S
C182 C181 1.419 . S
C182 C183 1.391 . S
C182 C186 1.397 . S
C183 C178 1.391 . S
C183 C182 1.391 . S
C183 C184 1.399 . S
C184 C183 1.399 . S
C184 C185 1.396 . S
C184 C187 1.453 . S
C184 C188 1.684 . S
C185 C175 1.723 . S
C185 C184 1.396 . S
C185 C186 1.394 . S
C186 C156 1.723 . S
C186 C182 1.397 . S
C186 C185 1.394 . S
C187 H159 0.982 . S
C187 H163 0.979 . S
C187 H164 0.977 . S
C187 C184 1.453 . S
C188 H160 0.979 . S
C188 H161 0.980 . S
C188 H162 0.983 . S
C188 C184 1.684 . S
H189 C207 0.948 . S
H190 C148 0.948 . S
H191 C166 0.979 . S
H192 C166 0.980 . S
H193 C166 0.983 . S
H194 C165 0.982 . S
H195 C165 0.979 . S
H196 C165 0.977 . S
H197 C167 0.948 . S
H198 C169 0.947 . S
H199 C170 0.948 . S
H200 C176 0.982 . S
H201 C176 0.979 . S
H202 C176 0.977 . S
H203 C177 0.979 . S
H204 C177 0.980 . S
H205 C177 0.983 . S
H206 C150 0.947 . S
C207 C150 1.392 . S
C207 C151 1.419 . S
C207 H189 0.948 . S
C208 C209 1.391 . S
C208 C212 1.391 . S
C208 H250 0.948 . S
C209 C208 1.391 . S
C209 C210 1.391 . S
C210 C209 1.391 . S
C210 H266 0.947 . S
C210 C267 1.392 . S
C211 C212 1.391 . S
C211 C215 1.397 . S
C211 C267 1.419 . S
C212 C208 1.391 . S
C212 C211 1.391 . S
C212 C213 1.399 . S
C213 C212 1.399 . S
C213 C216 1.396 . S
C213 C225 1.453 . S
C213 C226 1.684 . S
H214 C238 0.948 . S
C215 C211 1.397 . S
C215 C216 1.394 . S
C215 C234 1.723 . S
C216 C213 1.396 . S
C216 C215 1.394 . S
C216 C246 1.723 . S
H217 C240 0.947 . S
H218 C241 0.948 . S
H219 C247 0.982 . S
H220 C248 0.979 . S
H221 C248 0.980 . S
H222 C248 0.983 . S
H223 C247 0.979 . S
H224 C247 0.977 . S
C225 C213 1.453 . S
C225 H254 0.982 . S
C225 H255 0.979 . S
C225 H256 0.977 . S
C226 C213 1.684 . S
C226 H251 0.979 . S
C226 H252 0.980 . S
C226 H253 0.983 . S
C227 C228 1.391 . S
C227 C232 1.391 . S
C227 H257 0.948 . S
C228 C227 1.391 . S
C228 C229 1.391 . S
C229 C228 1.391 . S
C229 C230 1.392 . S
C229 H258 0.947 . S
C230 C229 1.392 . S
C230 C231 1.419 . S
C230 H259 0.948 . S
C231 C230 1.419 . S
C231 C232 1.391 . S
C231 C235 1.397 . S
C232 C227 1.391 . S
C232 C231 1.391 . S
C232 C233 1.399 . S
C233 C232 1.399 . S
C233 C234 1.396 . S
C233 C236 1.453 . S
C233 C237 1.684 . S
C234 C215 1.723 . S
C234 C233 1.396 . S
C234 C235 1.394 . S
C235 C231 1.397 . S
C235 C234 1.394 . S
C235 C245 1.723 . S
C236 C233 1.453 . S
C236 H260 0.982 . S
C236 H261 0.979 . S
C236 H262 0.977 . S
C237 C233 1.684 . S
C237 H263 0.979 . S
C237 H264 0.980 . S
C237 H265 0.983 . S
C238 H214 0.948 . S
C238 C239 1.391 . S
C238 C243 1.391 . S
C239 C238 1.391 . S
C239 C240 1.391 . S
C240 H217 0.947 . S
C240 C239 1.391 . S
C240 C241 1.392 . S
C241 H218 0.948 . S
C241 C240 1.392 . S
C241 C242 1.419 . S
C242 C241 1.419 . S
C242 C243 1.391 . S
C242 C246 1.397 . S
C243 C238 1.391 . S
C243 C242 1.391 . S
C243 C244 1.399 . S
C244 C243 1.399 . S
C244 C245 1.396 . S
C244 C247 1.453 . S
C244 C248 1.684 . S
C245 C235 1.723 . S
C245 C244 1.396 . S
C245 C246 1.394 . S
C246 C216 1.723 . S
C246 C242 1.397 . S
C246 C245 1.394 . S
C247 H219 0.982 . S
C247 H223 0.979 . S
C247 H224 0.977 . S
C247 C244 1.453 . S
C248 H220 0.979 . S
C248 H221 0.980 . S
C248 H222 0.983 . S
C248 C244 1.684 . S
H249 C267 0.948 . S
H250 C208 0.948 . S
H251 C226 0.979 . S
H252 C226 0.980 . S
H253 C226 0.983 . S
H254 C225 0.982 . S
H255 C225 0.979 . S
H256 C225 0.977 . S
H257 C227 0.948 . S
H258 C229 0.947 . S
H259 C230 0.948 . S
H260 C236 0.982 . S
H261 C236 0.979 . S
H262 C236 0.977 . S
H263 C237 0.979 . S
H264 C237 0.980 . S
H265 C237 0.983 . S
H266 C210 0.947 . S
C267 C210 1.392 . S
C267 C211 1.419 . S
C267 H249 0.948 . S
C268 C269 1.391 . S
C268 C272 1.391 . S
C268 H310 0.948 . S
C269 C268 1.391 . S
C269 C270 1.391 . S
C270 C269 1.391 . S
C270 H326 0.947 . S
C270 C327 1.392 . S
C271 C272 1.391 . S
C271 C275 1.397 . S
C271 C327 1.419 . S
C272 C268 1.391 . S
C272 C271 1.391 . S
C272 C273 1.399 . S
C273 C272 1.399 . S
C273 C276 1.396 . S
C273 C285 1.453 . S
C273 C286 1.684 . S
H274 C298 0.948 . S
C275 C271 1.397 . S
C275 C276 1.394 . S
C275 C294 1.723 . S
C276 C273 1.396 . S
C276 C275 1.394 . S
C276 C306 1.723 . S
H277 C300 0.947 . S
H278 C301 0.948 . S
H279 C307 0.982 . S
H280 C308 0.979 . S
H281 C308 0.980 . S
H282 C308 0.983 . S
H283 C307 0.979 . S
H284 C307 0.977 . S
C285 C273 1.453 . S
C285 H314 0.982 . S
C285 H315 0.979 . S
C285 H316 0.977 . S
C286 C273 1.684 . S
C286 H311 0.979 . S
C286 H312 0.980 . S
C286 H313 0.983 . S
C287 C288 1.391 . S
C287 C292 1.391 . S
C287 H317 0.948 . S
C288 C287 1.391 . S
C288 C289 1.391 . S
C289 C288 1.391 . S
C289 C290 1.392 . S
C289 H318 0.947 . S
C290 C289 1.392 . S
C290 C291 1.419 . S
C290 H319 0.948 . S
C291 C290 1.419 . S
C291 C292 1.391 . S
C291 C295 1.397 . S
C292 C287 1.391 . S
C292 C291 1.391 . S
C292 C293 1.399 . S
C293 C292 1.399 . S
C293 C294 1.396 . S
C293 C296 1.453 . S
C293 C297 1.684 . S
C294 C275 1.723 . S
C294 C293 1.396 . S
C294 C295 1.394 . S
C295 C291 1.397 . S
C295 C294 1.394 . S
C295 C305 1.723 . S
C296 C293 1.453 . S
C296 H320 0.982 . S
C296 H321 0.979 . S
C296 H322 0.977 . S
C297 C293 1.684 . S
C297 H323 0.979 . S
C297 H324 0.980 . S
C297 H325 0.983 . S
C298 H274 0.948 . S
C298 C299 1.391 . S
C298 C303 1.391 . S
C299 C298 1.391 . S
C299 C300 1.391 . S
C300 H277 0.947 . S
C300 C299 1.391 . S
C300 C301 1.392 . S
C301 H278 0.948 . S
C301 C300 1.392 . S
C301 C302 1.419 . S
C302 C301 1.419 . S
C302 C303 1.391 . S
C302 C306 1.397 . S
C303 C298 1.391 . S
C303 C302 1.391 . S
C303 C304 1.399 . S
C304 C303 1.399 . S
C304 C305 1.396 . S
C304 C307 1.453 . S
C304 C308 1.684 . S
C305 C295 1.723 . S
C305 C304 1.396 . S
C305 C306 1.394 . S
C306 C276 1.723 . S
C306 C302 1.397 . S
C306 C305 1.394 . S
C307 H279 0.982 . S
C307 H283 0.979 . S
C307 H284 0.977 . S
C307 C304 1.453 . S
C308 H280 0.979 . S
C308 H281 0.980 . S
C308 H282 0.983 . S
C308 C304 1.684 . S
H309 C327 0.948 . S
H310 C268 0.948 . S
H311 C286 0.979 . S
H312 C286 0.980 . S
H313 C286 0.983 . S
H314 C285 0.982 . S
H315 C285 0.979 . S
H316 C285 0.977 . S
H317 C287 0.948 . S
H318 C289 0.947 . S
H319 C290 0.948 . S
H320 C296 0.982 . S
H321 C296 0.979 . S
H322 C296 0.977 . S
H323 C297 0.979 . S
H324 C297 0.980 . S
H325 C297 0.983 . S
H326 C270 0.947 . S
C327 C270 1.392 . S
C327 C271 1.419 . S
C327 H309 0.948 . S
C328 C329 1.391 . S
C328 C332 1.391 . S
C328 H370 0.948 . S
C329 C328 1.391 . S
C329 C330 1.391 . S
C330 C329 1.391 . S
C330 H386 0.947 . S
C330 C387 1.392 . S
C331 C332 1.391 . S
C331 C335 1.397 . S
C331 C387 1.419 . S
C332 C328 1.391 . S
C332 C331 1.391 . S
C332 C333 1.399 . S
C333 C332 1.399 . S
C333 C336 1.396 . S
C333 C345 1.453 . S
C333 C346 1.684 . S
H334 C358 0.948 . S
C335 C331 1.397 . S
C335 C336 1.394 . S
C335 C354 1.723 . S
C336 C333 1.396 . S
C336 C335 1.394 . S
C336 C366 1.723 . S
H337 C360 0.947 . S
H338 C361 0.948 . S
H339 C367 0.982 . S
H340 C368 0.979 . S
H341 C368 0.980 . S
H342 C368 0.983 . S
H343 C367 0.979 . S
H344 C367 0.977 . S
C345 C333 1.453 . S
C345 H374 0.982 . S
C345 H375 0.979 . S
C345 H376 0.977 . S
C346 C333 1.684 . S
C346 H371 0.979 . S
C346 H372 0.980 . S
C346 H373 0.983 . S
C347 C348 1.391 . S
C347 C352 1.391 . S
C347 H377 0.948 . S
C348 C347 1.391 . S
C348 C349 1.391 . S
C349 C348 1.391 . S
C349 C350 1.392 . S
C349 H378 0.947 . S
C350 C349 1.392 . S
C350 C351 1.419 . S
C350 H379 0.948 . S
C351 C350 1.419 . S
C351 C352 1.391 . S
C351 C355 1.397 . S
C352 C347 1.391 . S
C352 C351 1.391 . S
C352 C353 1.399 . S
C353 C352 1.399 . S
C353 C354 1.396 . S
C353 C356 1.453 . S
C353 C357 1.684 . S
C354 C335 1.723 . S
C354 C353 1.396 . S
C354 C355 1.394 . S
C355 C351 1.397 . S
C355 C354 1.394 . S
C355 C365 1.723 . S
C356 C353 1.453 . S
C356 H380 0.982 . S
C356 H381 0.979 . S
C356 H382 0.977 . S
C357 C353 1.684 . S
C357 H383 0.979 . S
C357 H384 0.980 . S
C357 H385 0.983 . S
C358 H334 0.948 . S
C358 C359 1.391 . S
C358 C363 1.391 . S
C359 C358 1.391 . S
C359 C360 1.391 . S
C360 H337 0.947 . S
C360 C359 1.391 . S
C360 C361 1.392 . S
C361 H338 0.948 . S
C361 C360 1.392 . S
C361 C362 1.419 . S
C362 C361 1.419 . S
C362 C363 1.391 . S
C362 C366 1.397 . S
C363 C358 1.391 . S
C363 C362 1.391 . S
C363 C364 1.399 . S
C364 C363 1.399 . S
C364 C365 1.396 . S
C364 C367 1.453 . S
C364 C368 1.684 . S
C365 C355 1.723 . S
C365 C364 1.396 . S
C365 C366 1.394 . S
C366 C336 1.723 . S
C366 C362 1.397 . S
C366 C365 1.394 . S
C367 H339 0.982 . S
C367 H343 0.979 . S
C367 H344 0.977 . S
C367 C364 1.453 . S
C368 H340 0.979 . S
C368 H341 0.980 . S
C368 H342 0.983 . S
C368 C364 1.684 . S
H369 C387 0.948 . S
H370 C328 0.948 . S
H371 C346 0.979 . S
H372 C346 0.980 . S
H373 C346 0.983 . S
H374 C345 0.982 . S
H375 C345 0.979 . S
H376 C345 0.977 . S
H377 C347 0.948 . S
H378 C349 0.947 . S
H379 C350 0.948 . S
H380 C356 0.982 . S
H381 C356 0.979 . S
H382 C356 0.977 . S
H383 C357 0.979 . S
H384 C357 0.980 . S
H385 C357 0.983 . S
H386 C330 0.947 . S
C387 C330 1.392 . S
C387 C331 1.419 . S
C387 H369 0.948 . S
C388 C389 1.391 . S
C388 C392 1.391 . S
C388 H430 0.948 . S
C389 C388 1.391 . S
C389 C390 1.391 . S
C390 C389 1.391 . S
C390 H446 0.947 . S
C390 C447 1.392 . S
C391 C392 1.391 . S
C391 C395 1.397 . S
C391 C447 1.419 . S
C392 C388 1.391 . S
C392 C391 1.391 . S
C392 C393 1.399 . S
C393 C392 1.399 . S
C393 C396 1.396 . S
C393 C405 1.453 . S
C393 C406 1.684 . S
H394 C418 0.948 . S
C395 C391 1.397 . S
C395 C396 1.394 . S
C395 C414 1.723 . S
C396 C393 1.396 . S
C396 C395 1.394 . S
C396 C426 1.723 . S
H397 C420 0.947 . S
H398 C421 0.948 . S
H399 C427 0.982 . S
H400 C428 0.979 . S
H401 C428 0.980 . S
H402 C428 0.983 . S
H403 C427 0.979 . S
H404 C427 0.977 . S
C405 C393 1.453 . S
C405 H434 0.982 . S
C405 H435 0.979 . S
C405 H436 0.977 . S
C406 C393 1.684 . S
C406 H431 0.979 . S
C406 H432 0.980 . S
C406 H433 0.983 . S
C407 C408 1.391 . S
C407 C412 1.391 . S
C407 H437 0.948 . S
C408 C407 1.391 . S
C408 C409 1.391 . S
C409 C408 1.391 . S
C409 C410 1.392 . S
C409 H438 0.947 . S
C410 C409 1.392 . S
C410 C411 1.419 . S
C410 H439 0.948 . S
C411 C410 1.419 . S
C411 C412 1.391 . S
C411 C415 1.397 . S
C412 C407 1.391 . S
C412 C411 1.391 . S
C412 C413 1.399 . S
C413 C412 1.399 . S
C413 C414 1.396 . S
C413 C416 1.453 . S
C413 C417 1.684 . S
C414 C395 1.723 . S
C414 C413 1.396 . S
C414 C415 1.394 . S
C415 C411 1.397 . S
C415 C414 1.394 . S
C415 C425 1.723 . S
C416 C413 1.453 . S
C416 H440 0.982 . S
C416 H441 0.979 . S
C416 H442 0.977 . S
C417 C413 1.684 . S
C417 H443 0.979 . S
C417 H444 0.980 . S
C417 H445 0.983 . S
C418 H394 0.948 . S
C418 C419 1.391 . S
C418 C423 1.391 . S
C419 C418 1.391 . S
C419 C420 1.391 . S
C420 H397 0.947 . S
C420 C419 1.391 . S
C420 C421 1.392 . S
C421 H398 0.948 . S
C421 C420 1.392 . S
C421 C422 1.419 . S
C422 C421 1.419 . S
C422 C423 1.391 . S
C422 C426 1.397 . S
C423 C418 1.391 . S
C423 C422 1.391 . S
C423 C424 1.399 . S
C424 C423 1.399 . S
C424 C425 1.396 . S
C424 C427 1.453 . S
C424 C428 1.684 . S
C425 C415 1.723 . S
C425 C424 1.396 . S
C425 C426 1.394 . S
C426 C396 1.723 . S
C426 C422 1.397 . S
C426 C425 1.394 . S
C427 H399 0.982 . S
C427 H403 0.979 . S
C427 H404 0.977 . S
C427 C424 1.453 . S
C428 H400 0.979 . S
C428 H401 0.980 . S
C428 H402 0.983 . S
C428 C424 1.684 . S
H429 C447 0.948 . S
H430 C388 0.948 . S
H431 C406 0.979 . S
H432 C406 0.980 . S
H433 C406 0.983 . S
H434 C405 0.982 . S
H435 C405 0.979 . S
H436 C405 0.977 . S
H437 C407 0.948 . S
H438 C409 0.947 . S
H439 C410 0.948 . S
H440 C416 0.982 . S
H441 C416 0.979 . S
H442 C416 0.977 . S
H443 C417 0.979 . S
H444 C417 0.980 . S
H445 C417 0.983 . S
H446 C390 0.947 . S
C447 C390 1.392 . S
C447 C391 1.419 . S
C447 H429 0.948 . S
C448 C449 1.391 . S
C448 C452 1.391 . S
C448 H490 0.948 . S
C449 C448 1.391 . S
C449 C450 1.391 . S
C450 C449 1.391 . S
C450 H506 0.947 . S
C450 C507 1.392 . S
C451 C452 1.391 . S
C451 C455 1.397 . S
C451 C507 1.419 . S
C452 C448 1.391 . S
C452 C451 1.391 . S
C452 C453 1.399 . S
C453 C452 1.399 . S
C453 C456 1.396 . S
C453 C465 1.453 . S
C453 C466 1.684 . S
H454 C478 0.948 . S
C455 C451 1.397 . S
C455 C456 1.394 . S
C455 C474 1.723 . S
C456 C453 1.396 . S
C456 C455 1.394 . S
C456 C486 1.723 . S
H457 C480 0.947 . S
H458 C481 0.948 . S
H459 C487 0.982 . S
H460 C488 0.979 . S
H461 C488 0.980 . S
H462 C488 0.983 . S
H463 C487 0.979 . S
H464 C487 0.977 . S
C465 C453 1.453 . S
C465 H494 0.982 . S
C465 H495 0.979 . S
C465 H496 0.977 . S
C466 C453 1.684 . S
C466 H491 0.979 . S
C466 H492 0.980 . S
C466 H493 0.983 . S
C467 C468 1.391 . S
C467 C472 1.391 . S
C467 H497 0.948 . S
C468 C467 1.391 . S
C468 C469 1.391 . S
C469 C468 1.391 . S
C469 C470 1.392 . S
C469 H498 0.947 . S
C470 C469 1.392 . S
C470 C471 1.419 . S
C470 H499 0.948 . S
C471 C470 1.419 . S
C471 C472 1.391 . S
C471 C475 1.397 . S
C472 C467 1.391 . S
C472 C471 1.391 . S
C472 C473 1.399 . S
C473 C472 1.399 . S
C473 C474 1.396 . S
C473 C476 1.453 . S
C473 C477 1.684 . S
C474 C455 1.723 . S
C474 C473 1.396 . S
C474 C475 1.394 . S
C475 C471 1.397 . S
C475 C474 1.394 . S
C475 C485 1.723 . S
C476 C473 1.453 . S
C476 H500 0.982 . S
C476 H501 0.979 . S
C476 H502 0.977 . S
C477 C473 1.684 . S
C477 H503 0.979 . S
C477 H504 0.980 . S
C477 H505 0.983 . S
C478 H454 0.948 . S
C478 C479 1.391 . S
C478 C483 1.391 . S
C479 C478 1.391 . S
C479 C480 1.391 . S
C480 H457 0.947 . S
C480 C479 1.391 . S
C480 C481 1.392 . S
C481 H458 0.948 . S
C481 C480 1.392 . S
C481 C482 1.419 . S
C482 C481 1.419 . S
C482 C483 1.391 . S
C482 C486 1.397 . S
C483 C478 1.391 . S
C483 C482 1.391 . S
C483 C484 1.399 . S
C484 C483 1.399 . S
C484 C485 1.396 . S
C484 C487 1.453 . S
C484 C488 1.684 . S
C485 C475 1.723 . S
C485 C484 1.396 . S
C485 C486 1.394 . S
C486 C456 1.723 . S
C486 C482 1.397 . S
C486 C485 1.394 . S
C487 H459 0.982 . S
C487 H463 0.979 . S
C487 H464 0.977 . S
C487 C484 1.453 . S
C488 H460 0.979 . S
C488 H461 0.980 . S
C488 H462 0.983 . S
C488 C484 1.684 . S
H489 C507 0.948 . S
H490 C448 0.948 . S
H491 C466 0.979 . S
H492 C466 0.980 . S
H493 C466 0.983 . S
H494 C465 0.982 . S
H495 C465 0.979 . S
H496 C465 0.977 . S
H497 C467 0.948 . S
H498 C469 0.947 . S
H499 C470 0.948 . S
H500 C476 0.982 . S
H501 C476 0.979 . S
H502 C476 0.977 . S
H503 C477 0.979 . S
H504 C477 0.980 . S
H505 C477 0.983 . S
H506 C450 0.947 . S
C507 C450 1.392 . S
C507 C451 1.419 . S
C507 H489 0.948 . S
C508 C509 1.391 . S
C508 C512 1.391 . S
C508 H550 0.948 . S
C509 C508 1.391 . S
C509 C510 1.391 . S
C510 C509 1.391 . S
C510 H566 0.947 . S
C510 C567 1.392 . S
C511 C512 1.391 . S
C511 C515 1.397 . S
C511 C567 1.419 . S
C512 C508 1.391 . S
C512 C511 1.391 . S
C512 C513 1.399 . S
C513 C512 1.399 . S
C513 C516 1.396 . S
C513 C525 1.453 . S
C513 C526 1.684 . S
H514 C538 0.948 . S
C515 C511 1.397 . S
C515 C516 1.394 . S
C515 C534 1.723 . S
C516 C513 1.396 . S
C516 C515 1.394 . S
C516 C546 1.723 . S
H517 C540 0.947 . S
H518 C541 0.948 . S
H519 C547 0.982 . S
H520 C548 0.979 . S
H521 C548 0.980 . S
H522 C548 0.983 . S
H523 C547 0.979 . S
H524 C547 0.977 . S
C525 C513 1.453 . S
C525 H554 0.982 . S
C525 H555 0.979 . S
C525 H556 0.977 . S
C526 C513 1.684 . S
C526 H551 0.979 . S
C526 H552 0.980 . S
C526 H553 0.983 . S
C527 C528 1.391 . S
C527 C532 1.391 . S
C527 H557 0.948 . S
C528 C527 1.391 . S
C528 C529 1.391 . S
C529 C528 1.391 . S
C529 C530 1.392 . S
C529 H558 0.947 . S
C530 C529 1.392 . S
C530 C531 1.419 . S
C530 H559 0.948 . S
C531 C530 1.419 . S
C531 C532 1.391 . S
C531 C535 1.397 . S
C532 C527 1.391 . S
C532 C531 1.391 . S
C532 C533 1.399 . S
C533 C532 1.399 . S
C533 C534 1.396 . S
C533 C536 1.453 . S
C533 C537 1.684 . S
C534 C515 1.723 . S
C534 C533 1.396 . S
C534 C535 1.394 . S
C535 C531 1.397 . S
C535 C534 1.394 . S
C535 C545 1.723 . S
C536 C533 1.453 . S
C536 H560 0.982 . S
C536 H561 0.979 . S
C536 H562 0.977 . S
C537 C533 1.684 . S
C537 H563 0.979 . S
C537 H564 0.980 . S
C537 H565 0.983 . S
C538 H514 0.948 . S
C538 C539 1.391 . S
C538 C543 1.391 . S
C539 C538 1.391 . S
C539 C540 1.391 . S
C540 H517 0.947 . S
C540 C539 1.391 . S
C540 C541 1.392 . S
C541 H518 0.948 . S
C541 C540 1.392 . S
C541 C542 1.419 . S
C542 C541 1.419 . S
C542 C543 1.391 . S
C542 C546 1.397 . S
C543 C538 1.391 . S
C543 C542 1.391 . S
C543 C544 1.399 . S
C544 C543 1.399 . S
C544 C545 1.396 . S
C544 C547 1.453 . S
C544 C548 1.684 . S
C545 C535 1.723 . S
C545 C544 1.396 . S
C545 C546 1.394 . S
C546 C516 1.723 . S
C546 C542 1.397 . S
C546 C545 1.394 . S
C547 H519 0.982 . S
C547 H523 0.979 . S
C547 H524 0.977 . S
C547 C544 1.453 . S
C548 H520 0.979 . S
C548 H521 0.980 . S
C548 H522 0.983 . S
C548 C544 1.684 . S
H549 C567 0.948 . S
H550 C508 0.948 . S
H551 C526 0.979 . S
H552 C526 0.980 . S
H553 C526 0.983 . S
H554 C525 0.982 . S
H555 C525 0.979 . S
H556 C525 0.977 . S
H557 C527 0.948 . S
H558 C529 0.947 . S
H559 C530 0.948 . S
H560 C536 0.982 . S
H561 C536 0.979 . S
H562 C536 0.977 . S
H563 C537 0.979 . S
H564 C537 0.980 . S
H565 C537 0.983 . S
H566 C510 0.947 . S
C567 C510 1.392 . S
C567 C511 1.419 . S
C567 H549 0.948 . S
H568 C576 0.929 . S
H569 C578 0.930 . S
H570 C580 0.930 . S
H571 C583 0.929 . S
H572 C586 0.930 . S
H573 C588 0.960 . S
H574 C588 0.960 . S
H575 C588 0.960 . S
C576 H568 0.929 . S
C576 C577 1.377 . S
C576 C578 1.384 . S
C577 C576 1.377 . S
C577 C583 1.390 . S
C578 H569 0.930 . S
C578 C576 1.384 . S
C578 C579 1.372 . S
C579 C578 1.372 . S
C579 C580 1.400 . S
C579 C584 1.490 . S
C580 H570 0.930 . S
C580 C579 1.400 . S
C580 C583 1.386 . S
H581 C597 0.930 . S
H582 C598 0.931 . S
C583 H571 0.929 . S
C583 C577 1.390 . S
C583 C580 1.386 . S
C584 C579 1.490 . S
C584 C586 1.395 . S
C584 C587 1.403 . S
H585 C591 0.930 . S
C586 H572 0.930 . S
C586 C584 1.395 . S
C586 C589 1.403 . S
C587 C584 1.403 . S
C587 C588 1.524 . S
C587 C591 1.400 . S
C588 H573 0.960 . S
C588 H574 0.960 . S
C588 H575 0.960 . S
C588 C587 1.524 . S
C589 C586 1.403 . S
C589 C590 1.392 . S
C589 C593 1.495 . S
C590 C589 1.392 . S
C590 C591 1.385 . S
C590 C592 1.478 1_565 S
C591 H585 0.930 . S
C591 C587 1.400 . S
C591 C590 1.385 . S
C592 C590 1.478 1_545 S
C592 C594 1.381 . S
C592 C598 1.383 . S
C593 C589 1.495 . S
C593 H599 0.959 . S
C593 H600 0.961 1_565 S
C593 H601 0.961 . S
C594 C592 1.381 . S
C594 C595 1.394 . S
C594 H602 0.930 1_545 S
C595 C594 1.394 . S
C595 C596 1.383 . S
C595 H603 0.929 . S
C596 C595 1.383 . S
C596 C597 1.377 . S
C597 H581 0.930 . S
C597 C596 1.377 . S
C597 C598 1.379 . S
C598 H582 0.931 . S
C598 C592 1.383 . S
C598 C597 1.379 . S
H599 C593 0.959 . S
H600 C593 0.961 1_545 S
H601 C593 0.961 . S
H602 C594 0.930 1_565 S
H603 C595 0.929 . S
H604 C612 0.929 . S
H605 C614 0.930 . S
H606 C616 0.930 . S
H607 C619 0.929 . S
H608 C622 0.930 . S
H609 C624 0.960 . S
H610 C624 0.960 . S
H611 C624 0.960 . S
C612 H604 0.929 . S
C612 C613 1.377 . S
C612 C614 1.384 . S
C613 C612 1.377 . S
C613 C619 1.390 . S
C614 H605 0.930 . S
C614 C612 1.384 . S
C614 C615 1.372 . S
C615 C614 1.372 . S
C615 C616 1.400 . S
C615 C620 1.490 . S
C616 H606 0.930 . S
C616 C615 1.400 . S
C616 C619 1.386 . S
H617 C633 0.930 . S
H618 C634 0.931 . S
C619 H607 0.929 . S
C619 C613 1.390 . S
C619 C616 1.386 . S
C620 C615 1.490 . S
C620 C622 1.395 . S
C620 C623 1.403 . S
H621 C627 0.930 . S
C622 H608 0.930 . S
C622 C620 1.395 . S
C622 C625 1.403 . S
C623 C620 1.403 . S
C623 C624 1.524 . S
C623 C627 1.400 . S
C624 H609 0.960 . S
C624 H610 0.960 . S
C624 H611 0.960 . S
C624 C623 1.524 . S
C625 C622 1.403 . S
C625 C626 1.392 . S
C625 C629 1.495 . S
C626 C625 1.392 . S
C626 C627 1.385 . S
C626 C628 1.478 . S
C627 H621 0.930 . S
C627 C623 1.400 . S
C627 C626 1.385 . S
C628 C626 1.478 . S
C628 C630 1.381 . S
C628 C634 1.383 . S
C629 C625 1.495 . S
C629 H635 0.959 . S
C629 H636 0.961 . S
C629 H637 0.960 . S
C630 C628 1.381 . S
C630 C631 1.394 . S
C630 H638 0.930 . S
C631 C630 1.394 . S
C631 C632 1.383 . S
C631 H639 0.929 . S
C632 C631 1.383 . S
C632 C633 1.377 . S
C633 H617 0.930 . S
C633 C632 1.377 . S
C633 C634 1.379 . S
C634 H618 0.931 . S
C634 C628 1.383 . S
C634 C633 1.379 . S
H635 C629 0.959 . S
H636 C629 0.961 . S
H637 C629 0.960 . S
H638 C630 0.930 . S
H639 C631 0.929 . S
H640 C648 0.929 . S
H641 C650 0.930 . S
H642 C652 0.930 . S
H643 C655 0.929 . S
H644 C658 0.930 . S
H645 C660 0.960 . S
H646 C660 0.960 . S
H647 C660 0.960 . S
C648 H640 0.929 . S
C648 C649 1.377 . S
C648 C650 1.384 . S
C649 C648 1.377 . S
C649 C655 1.390 . S
C650 H641 0.930 . S
C650 C648 1.384 . S
C650 C651 1.372 . S
C651 C650 1.372 . S
C651 C652 1.400 . S
C651 C656 1.490 . S
C652 H642 0.930 . S
C652 C651 1.400 . S
C652 C655 1.386 . S
H653 C669 0.930 . S
H654 C670 0.931 . S
C655 H643 0.929 . S
C655 C649 1.390 . S
C655 C652 1.386 . S
C656 C651 1.490 . S
C656 C658 1.395 . S
C656 C659 1.403 . S
H657 C663 0.930 . S
C658 H644 0.930 . S
C658 C656 1.395 . S
C658 C661 1.403 . S
C659 C656 1.403 . S
C659 C660 1.524 . S
C659 C663 1.400 . S
C660 H645 0.960 . S
C660 H646 0.960 . S
C660 H647 0.960 . S
C660 C659 1.524 . S
C661 C658 1.403 . S
C661 C662 1.392 . S
C661 C665 1.495 1_545 S
C662 C661 1.392 . S
C662 C663 1.385 . S
C662 C664 1.478 1_545 S
C663 H657 0.930 . S
C663 C659 1.400 . S
C663 C662 1.385 . S
C664 C662 1.478 1_565 S
C664 C666 1.381 . S
C664 C670 1.383 . S
C665 C661 1.495 1_565 S
C665 H671 0.959 . S
C665 H672 0.961 . S
C665 H673 0.960 . S
C666 C664 1.381 . S
C666 C667 1.394 . S
C666 H674 0.930 . S
C667 C666 1.394 . S
C667 C668 1.383 . S
C667 H675 0.929 . S
C668 C667 1.383 . S
C668 C669 1.377 . S
C669 H653 0.930 . S
C669 C668 1.377 . S
C669 C670 1.379 . S
C670 H654 0.931 . S
C670 C664 1.383 . S
C670 C669 1.379 . S
H671 C665 0.959 . S
H672 C665 0.961 . S
H673 C665 0.960 . S
H674 C666 0.930 . S
H675 C667 0.929 . S
H676 C684 0.929 . S
H677 C686 0.930 . S
H678 C688 0.930 . S
H679 C691 0.929 . S
H680 C694 0.930 . S
H681 C696 0.960 . S
H682 C696 0.960 . S
H683 C696 0.960 . S
C684 H676 0.929 . S
C684 C685 1.377 . S
C684 C686 1.384 . S
C685 C684 1.377 . S
C685 C691 1.390 . S
C686 H677 0.930 . S
C686 C684 1.384 . S
C686 C687 1.372 . S
C687 C686 1.372 . S
C687 C688 1.400 . S
C687 C692 1.490 . S
C688 H678 0.930 . S
C688 C687 1.400 . S
C688 C691 1.386 . S
H689 C705 0.930 . S
H690 C706 0.931 . S
C691 H679 0.929 . S
C691 C685 1.390 . S
C691 C688 1.386 . S
C692 C687 1.490 . S
C692 C694 1.395 . S
C692 C695 1.403 . S
H693 C699 0.930 . S
C694 H680 0.930 . S
C694 C692 1.395 . S
C694 C697 1.403 . S
C695 C692 1.403 . S
C695 C696 1.524 . S
C695 C699 1.400 . S
C696 H681 0.960 . S
C696 H682 0.960 . S
C696 H683 0.960 . S
C696 C695 1.524 . S
C697 C694 1.403 . S
C697 C698 1.392 . S
C697 C701 1.495 . S
C698 C697 1.392 . S
C698 C699 1.385 . S
C698 C700 1.478 . S
C699 H693 0.930 . S
C699 C695 1.400 . S
C699 C698 1.385 . S
C700 C698 1.478 . S
C700 C702 1.381 . S
C700 C706 1.383 . S
C701 C697 1.495 . S
C701 H707 0.959 . S
C701 H708 0.961 . S
C701 H709 0.960 . S
C702 C700 1.381 . S
C702 C703 1.394 . S
C702 H710 0.930 . S
C703 C702 1.394 . S
C703 C704 1.383 . S
C703 H711 0.929 . S
C704 C703 1.383 . S
C704 C705 1.377 . S
C705 H689 0.930 . S
C705 C704 1.377 . S
C705 C706 1.379 . S
C706 H690 0.931 . S
C706 C700 1.383 . S
C706 C705 1.379 . S
H707 C701 0.959 . S
H708 C701 0.961 . S
H709 C701 0.960 . S
H710 C702 0.930 . S
H711 C703 0.929 . S
H712 C720 0.929 . S
H713 C722 0.930 . S
H714 C724 0.930 . S
H715 C727 0.929 . S
H716 C730 0.930 . S
H717 C732 0.960 . S
H718 C732 0.960 . S
H719 C732 0.960 . S
C720 H712 0.929 . S
C720 C721 1.377 . S
C720 C722 1.384 . S
C721 C720 1.377 . S
C721 C727 1.390 . S
C722 H713 0.930 . S
C722 C720 1.384 . S
C722 C723 1.372 . S
C723 C722 1.372 . S
C723 C724 1.400 . S
C723 C728 1.490 . S
C724 H714 0.930 . S
C724 C723 1.400 . S
C724 C727 1.386 . S
H725 C741 0.930 . S
H726 C742 0.931 . S
C727 H715 0.929 . S
C727 C721 1.390 . S
C727 C724 1.386 . S
C728 C723 1.490 . S
C728 C730 1.395 . S
C728 C731 1.403 . S
H729 C735 0.930 . S
C730 H716 0.930 . S
C730 C728 1.395 . S
C730 C733 1.403 . S
C731 C728 1.403 . S
C731 C732 1.524 . S
C731 C735 1.400 . S
C732 H717 0.960 . S
C732 H718 0.960 . S
C732 H719 0.960 . S
C732 C731 1.524 . S
C733 C730 1.403 . S
C733 C734 1.392 . S
C733 C737 1.495 . S
C734 C733 1.392 . S
C734 C735 1.385 . S
C734 C736 1.478 . S
C735 H729 0.930 . S
C735 C731 1.400 . S
C735 C734 1.385 . S
C736 C734 1.478 . S
C736 C738 1.381 . S
C736 C742 1.383 . S
C737 C733 1.495 . S
C737 H743 0.959 . S
C737 H744 0.961 . S
C737 H745 0.960 . S
C738 C736 1.381 . S
C738 C739 1.394 . S
C738 H746 0.930 . S
C739 C738 1.394 . S
C739 C740 1.383 . S
C739 H747 0.929 . S
C740 C739 1.383 . S
C740 C741 1.377 . S
C741 H725 0.930 . S
C741 C740 1.377 . S
C741 C742 1.379 . S
C742 H726 0.931 . S
C742 C736 1.383 . S
C742 C741 1.379 . S
H743 C737 0.959 . S
H744 C737 0.961 . S
H745 C737 0.960 . S
H746 C738 0.930 . S
H747 C739 0.929 . S
H748 C756 0.929 . S
H749 C758 0.930 . S
H750 C760 0.930 . S
H751 C763 0.929 . S
H752 C766 0.930 . S
H753 C768 0.960 . S
H754 C768 0.960 . S
H755 C768 0.960 . S
C756 H748 0.929 . S
C756 C757 1.377 . S
C756 C758 1.384 . S
C757 C756 1.377 . S
C757 C763 1.390 . S
C758 H749 0.930 . S
C758 C756 1.384 . S
C758 C759 1.372 . S
C759 C758 1.372 . S
C759 C760 1.400 . S
C759 C764 1.490 . S
C760 H750 0.930 . S
C760 C759 1.400 . S
C760 C763 1.386 . S
H761 C777 0.930 . S
H762 C778 0.931 . S
C763 H751 0.929 . S
C763 C757 1.390 . S
C763 C760 1.386 . S
C764 C759 1.490 . S
C764 C766 1.395 . S
C764 C767 1.403 . S
H765 C771 0.930 . S
C766 H752 0.930 . S
C766 C764 1.395 . S
C766 C769 1.403 . S
C767 C764 1.403 . S
C767 C768 1.524 . S
C767 C771 1.400 . S
C768 H753 0.960 . S
C768 H754 0.960 . S
C768 H755 0.960 . S
C768 C767 1.524 . S
C769 C766 1.403 . S
C769 C770 1.392 . S
C769 C773 1.495 1_655 S
C770 C769 1.392 . S
C770 C771 1.385 . S
C770 C772 1.478 1_655 S
C771 H765 0.930 . S
C771 C767 1.400 . S
C771 C770 1.385 . S
C772 C770 1.478 1_455 S
C772 C774 1.381 . S
C772 C778 1.383 . S
C773 C769 1.495 1_455 S
C773 H779 0.959 1_455 S
C773 H780 0.961 . S
C773 H781 0.960 . S
C774 C772 1.381 . S
C774 C775 1.394 . S
C774 H782 0.930 . S
C775 C774 1.394 . S
C775 C776 1.383 . S
C775 H783 0.929 . S
C776 C775 1.383 . S
C776 C777 1.377 . S
C777 H761 0.930 . S
C777 C776 1.377 . S
C777 C778 1.379 . S
C778 H762 0.931 . S
C778 C772 1.383 . S
C778 C777 1.379 . S
H779 C773 0.959 1_655 S
H780 C773 0.961 . S
H781 C773 0.960 . S
H782 C774 0.930 . S
H783 C775 0.929 . S
H784 C792 0.929 . S
H785 C794 0.930 . S
H786 C796 0.930 . S
H787 C799 0.929 . S
H788 C802 0.930 . S
H789 C804 0.960 . S
H790 C804 0.960 . S
H791 C804 0.960 . S
C792 H784 0.929 . S
C792 C793 1.377 . S
C792 C794 1.384 . S
C793 C792 1.377 . S
C793 C799 1.390 . S
C794 H785 0.930 . S
C794 C792 1.384 . S
C794 C795 1.372 . S
C795 C794 1.372 . S
C795 C796 1.400 . S
C795 C800 1.490 . S
C796 H786 0.930 . S
C796 C795 1.400 . S
C796 C799 1.386 . S
H797 C813 0.930 . S
H798 C814 0.931 . S
C799 H787 0.929 . S
C799 C793 1.390 . S
C799 C796 1.386 . S
C800 C795 1.490 . S
C800 C802 1.395 . S
C800 C803 1.403 . S
H801 C807 0.930 . S
C802 H788 0.930 . S
C802 C800 1.395 . S
C802 C805 1.403 . S
C803 C800 1.403 . S
C803 C804 1.524 . S
C803 C807 1.400 . S
C804 H789 0.960 . S
C804 H790 0.960 . S
C804 H791 0.960 . S
C804 C803 1.524 . S
C805 C802 1.403 . S
C805 C806 1.392 . S
C805 C809 1.495 . S
C806 C805 1.392 . S
C806 C807 1.385 . S
C806 C808 1.478 . S
C807 H801 0.930 . S
C807 C803 1.400 . S
C807 C806 1.385 . S
C808 C806 1.478 . S
C808 C810 1.381 . S
C808 C814 1.383 . S
C809 C805 1.495 . S
C809 H815 0.959 . S
C809 H816 0.961 . S
C809 H817 0.960 . S
C810 C808 1.381 . S
C810 C811 1.394 . S
C810 H818 0.930 . S
C811 C810 1.394 . S
C811 C812 1.383 . S
C811 H819 0.929 . S
C812 C811 1.383 . S
C812 C813 1.377 . S
C813 H797 0.930 . S
C813 C812 1.377 . S
C813 C814 1.379 . S
C814 H798 0.931 . S
C814 C808 1.383 . S
C814 C813 1.379 . S
H815 C809 0.959 . S
H816 C809 0.961 . S
H817 C809 0.960 . S
H818 C810 0.930 . S
H819 C811 0.929 . S
H820 C828 0.929 . S
H821 C830 0.930 . S
H822 C832 0.930 . S
H823 C835 0.929 . S
H824 C838 0.930 . S
H825 C840 0.960 . S
H826 C840 0.960 . S
H827 C840 0.960 . S
C828 H820 0.929 . S
C828 C829 1.377 . S
C828 C830 1.384 . S
C829 C828 1.377 . S
C829 C835 1.390 . S
C830 H821 0.930 . S
C830 C828 1.384 . S
C830 C831 1.372 . S
C831 C830 1.372 . S
C831 C832 1.400 . S
C831 C836 1.490 . S
C832 H822 0.930 . S
C832 C831 1.400 . S
C832 C835 1.386 . S
H833 C849 0.930 . S
H834 C850 0.931 . S
C835 H823 0.929 . S
C835 C829 1.390 . S
C835 C832 1.386 . S
C836 C831 1.490 . S
C836 C838 1.395 . S
C836 C839 1.403 . S
H837 C843 0.930 . S
C838 H824 0.930 . S
C838 C836 1.395 . S
C838 C841 1.403 . S
C839 C836 1.403 . S
C839 C840 1.524 . S
C839 C843 1.400 . S
C840 H825 0.960 . S
C840 H826 0.960 . S
C840 H827 0.960 . S
C840 C839 1.524 . S
C841 C838 1.403 . S
C841 C842 1.392 . S
C841 C845 1.481 1_455 S
C842 C841 1.392 . S
C842 C843 1.385 . S
C842 C844 1.478 1_455 S
C843 H837 0.930 . S
C843 C839 1.400 . S
C843 C842 1.385 . S
C844 C842 1.478 1_655 S
C844 C846 1.381 . S
C844 C850 1.383 . S
C845 C841 1.481 1_655 S
C845 H851 0.952 1_655 S
C845 H852 0.982 . S
C845 H853 0.962 . S
C846 C844 1.381 . S
C846 C847 1.394 . S
C846 H854 0.933 1_655 S
C847 C846 1.394 . S
C847 C848 1.383 . S
C847 H855 0.929 . S
C848 C847 1.383 . S
C848 C849 1.377 . S
C849 H833 0.930 . S
C849 C848 1.377 . S
C849 C850 1.379 . S
C850 H834 0.931 . S
C850 C844 1.383 . S
C850 C849 1.379 . S
H851 C845 0.952 1_455 S
H852 C845 0.982 . S
H853 C845 0.962 . S
H854 C846 0.933 1_455 S
H855 C847 0.929 . S
H856 C864 0.929 . S
H857 C866 0.930 . S
H858 C868 0.930 . S
H859 C871 0.929 . S
H860 C874 0.930 . S
H861 C876 0.960 . S
H862 C876 0.960 . S
H863 C876 0.960 . S
C864 H856 0.929 . S
C864 C865 1.377 . S
C864 C866 1.384 . S
C865 C864 1.377 . S
C865 C871 1.390 . S
C866 H857 0.930 . S
C866 C864 1.384 . S
C866 C867 1.372 . S
C867 C866 1.372 . S
C867 C868 1.400 . S
C867 C872 1.490 . S
C868 H858 0.930 . S
C868 C867 1.400 . S
C868 C871 1.386 . S
H869 C885 0.930 . S
H870 C886 0.931 . S
C871 H859 0.929 . S
C871 C865 1.390 . S
C871 C868 1.386 . S
C872 C867 1.490 . S
C872 C874 1.395 . S
C872 C875 1.403 . S
H873 C879 0.930 . S
C874 H860 0.930 . S
C874 C872 1.395 . S
C874 C877 1.403 . S
C875 C872 1.403 . S
C875 C876 1.524 . S
C875 C879 1.400 . S
C876 H861 0.960 . S
C876 H862 0.960 . S
C876 H863 0.960 . S
C876 C875 1.524 . S
C877 C874 1.403 . S
C877 C878 1.392 . S
C877 C881 1.495 . S
C878 C877 1.392 . S
C878 C879 1.385 . S
C878 C880 1.478 1_545 S
C879 H873 0.930 . S
C879 C875 1.400 . S
C879 C878 1.385 . S
C880 C878 1.478 1_565 S
C880 C882 1.381 . S
C880 C886 1.383 . S
C881 C877 1.495 . S
C881 H887 0.959 . S
C881 H888 0.961 . S
C881 H889 0.960 . S
C882 C880 1.381 . S
C882 C883 1.394 . S
C882 H890 0.930 1_565 S
C883 C882 1.394 . S
C883 C884 1.383 . S
C883 H891 0.929 . S
C884 C883 1.383 . S
C884 C885 1.377 . S
C885 H869 0.930 . S
C885 C884 1.377 . S
C885 C886 1.379 . S
C886 H870 0.931 . S
C886 C880 1.383 . S
C886 C885 1.379 . S
H887 C881 0.959 . S
H888 C881 0.961 . S
H889 C881 0.960 . S
H890 C882 0.930 1_545 S
H891 C883 0.929 . S
H892 C900 0.929 . S
H893 C902 0.930 . S
H894 C904 0.930 . S
H895 C907 0.929 . S
H896 C910 0.930 . S
H897 C912 0.960 . S
H898 C912 0.960 . S
H899 C912 0.960 . S
C900 H892 0.929 . S
C900 C901 1.377 . S
C900 C902 1.384 . S
C901 C900 1.377 . S
C901 C907 1.390 . S
C902 H893 0.930 . S
C902 C900 1.384 . S
C902 C903 1.372 . S
C903 C902 1.372 . S
C903 C904 1.400 . S
C903 C908 1.490 . S
C904 H894 0.930 . S
C904 C903 1.400 . S
C904 C907 1.386 . S
H905 C921 0.930 . S
H906 C922 0.931 . S
C907 H895 0.929 . S
C907 C901 1.390 . S
C907 C904 1.386 . S
C908 C903 1.490 . S
C908 C910 1.395 . S
C908 C911 1.403 . S
H909 C915 0.930 . S
C910 H896 0.930 . S
C910 C908 1.395 . S
C910 C913 1.403 . S
C911 C908 1.403 . S
C911 C912 1.524 . S
C911 C915 1.400 . S
C912 H897 0.960 . S
C912 H898 0.960 . S
C912 H899 0.960 . S
C912 C911 1.524 . S
C913 C910 1.403 . S
C913 C914 1.392 . S
C913 C917 1.495 . S
C914 C913 1.392 . S
C914 C915 1.385 . S
C914 C916 1.478 . S
C915 H909 0.930 . S
C915 C911 1.400 . S
C915 C914 1.385 . S
C916 C914 1.478 . S
C916 C918 1.381 . S
C916 C922 1.383 . S
C917 C913 1.495 . S
C917 H923 0.959 . S
C917 H924 0.961 . S
C917 H925 0.960 . S
C918 C916 1.381 . S
C918 C919 1.394 . S
C918 H926 0.930 . S
C919 C918 1.394 . S
C919 C920 1.383 . S
C919 H927 0.929 . S
C920 C919 1.383 . S
C920 C921 1.377 . S
C921 H905 0.930 . S
C921 C920 1.377 . S
C921 C922 1.379 . S
C922 H906 0.931 . S
C922 C916 1.383 . S
C922 C921 1.379 . S
H923 C917 0.959 . S
H924 C917 0.961 . S
H925 C917 0.960 . S
H926 C918 0.930 . S
H927 C919 0.929 . S
H928 C936 0.929 . S
H929 C938 0.930 . S
H930 C940 0.930 . S
H931 C943 0.929 . S
H932 C946 0.930 . S
H933 C948 0.960 . S
H934 C948 0.960 . S
H935 C948 0.960 . S
C936 H928 0.929 . S
C936 C937 1.377 . S
C936 C938 1.384 . S
C937 C936 1.377 . S
C937 C943 1.390 . S
C938 H929 0.930 . S
C938 C936 1.384 . S
C938 C939 1.372 . S
C939 C938 1.372 . S
C939 C940 1.400 . S
C939 C944 1.490 . S
C940 H930 0.930 . S
C940 C939 1.400 . S
C940 C943 1.386 . S
H941 C957 0.930 . S
H942 C958 0.931 . S
C943 H931 0.929 . S
C943 C937 1.390 . S
C943 C940 1.386 . S
C944 C939 1.490 . S
C944 C946 1.395 . S
C944 C947 1.403 . S
H945 C951 0.930 . S
C946 H932 0.930 . S
C946 C944 1.395 . S
C946 C949 1.403 . S
C947 C944 1.403 . S
C947 C948 1.524 . S
C947 C951 1.400 . S
C948 H933 0.960 . S
C948 H934 0.960 . S
C948 H935 0.960 . S
C948 C947 1.524 . S
C949 C946 1.403 . S
C949 C950 1.392 . S
C949 C953 1.495 . S
C950 C949 1.392 . S
C950 C951 1.385 . S
C950 C952 1.478 1_565 S
C951 H945 0.930 . S
C951 C947 1.400 . S
C951 C950 1.385 . S
C952 C950 1.478 1_545 S
C952 C954 1.381 . S
C952 C958 1.383 . S
C953 C949 1.495 . S
C953 H959 0.959 . S
C953 H960 0.961 . S
C953 H961 0.960 . S
C954 C952 1.381 . S
C954 C955 1.394 . S
C954 H962 0.930 1_545 S
C955 C954 1.394 . S
C955 C956 1.383 . S
C955 H963 0.929 . S
C956 C955 1.383 . S
C956 C957 1.377 . S
C957 H941 0.930 . S
C957 C956 1.377 . S
C957 C958 1.379 . S
C958 H942 0.931 . S
C958 C952 1.383 . S
C958 C957 1.379 . S
H959 C953 0.959 . S
H960 C953 0.961 . S
H961 C953 0.960 . S
H962 C954 0.930 1_565 S
H963 C955 0.929 . S
H964 C972 0.929 . S
H965 C974 0.930 . S
H966 C976 0.930 . S
H967 C979 0.929 . S
H968 C982 0.930 . S
H969 C984 0.960 . S
H970 C984 0.960 . S
H971 C984 0.960 . S
C972 H964 0.929 . S
C972 C973 1.377 . S
C972 C974 1.384 . S
C973 C972 1.377 . S
C973 C979 1.390 . S
C974 H965 0.930 . S
C974 C972 1.384 . S
C974 C975 1.372 . S
C975 C974 1.372 . S
C975 C976 1.400 . S
C975 C980 1.490 . S
C976 H966 0.930 . S
C976 C975 1.400 . S
C976 C979 1.386 . S
H977 C993 0.930 . S
H978 C994 0.931 . S
C979 H967 0.929 . S
C979 C973 1.390 . S
C979 C976 1.386 . S
C980 C975 1.490 . S
C980 C982 1.395 . S
C980 C983 1.403 . S
H981 C987 0.930 . S
C982 H968 0.930 . S
C982 C980 1.395 . S
C982 C985 1.403 . S
C983 C980 1.403 . S
C983 C984 1.524 . S
C983 C987 1.400 . S
C984 H969 0.960 . S
C984 H970 0.960 . S
C984 H971 0.960 . S
C984 C983 1.524 . S
C985 C982 1.403 . S
C985 C986 1.392 . S
C985 C989 1.495 . S
C986 C985 1.392 . S
C986 C987 1.385 . S
C986 C988 1.478 . S
C987 H981 0.930 . S
C987 C983 1.400 . S
C987 C986 1.385 . S
C988 C986 1.478 . S
C988 C990 1.381 . S
C988 C994 1.383 . S
C989 C985 1.495 . S
C989 H995 0.959 . S
C989 H996 0.961 . S
C989 H997 0.960 . S
C990 C988 1.381 . S
C990 C991 1.394 . S
C990 H998 0.930 . S
C991 C990 1.394 . S
C991 C992 1.383 . S
C991 H999 0.929 . S
C992 C991 1.383 . S
C992 C993 1.377 . S
C993 H977 0.930 . S
C993 C992 1.377 . S
C993 C994 1.379 . S
C994 H978 0.931 . S
C994 C988 1.383 . S
C994 C993 1.379 . S
H995 C989 0.959 . S
H996 C989 0.961 . S
H997 C989 0.960 . S
H998 C990 0.930 . S
H999 C991 0.929 . S
H1000 C1008 0.929 . S
H1001 C1010 0.930 . S
H1002 C1012 0.930 . S
H1003 C1015 0.929 . S
H1004 C1018 0.930 . S
H1005 C1020 0.960 . S
H1006 C1020 0.960 . S
H1007 C1020 0.960 . S
C1008 H1000 0.929 . S
C1008 C1009 1.377 . S
C1008 C1010 1.384 . S
C1009 C1008 1.377 . S
C1009 C1015 1.390 . S
C1010 H1001 0.930 . S
C1010 C1008 1.384 . S
C1010 C1011 1.372 . S
C1011 C1010 1.372 . S
C1011 C1012 1.400 . S
C1011 C1016 1.490 . S
C1012 H1002 0.930 . S
C1012 C1011 1.400 . S
C1012 C1015 1.386 . S
H1013 C1029 0.930 . S
H1014 C1030 0.931 . S
C1015 H1003 0.929 . S
C1015 C1009 1.390 . S
C1015 C1012 1.386 . S
C1016 C1011 1.490 . S
C1016 C1018 1.395 . S
C1016 C1019 1.403 . S
H1017 C1023 0.930 . S
C1018 H1004 0.930 . S
C1018 C1016 1.395 . S
C1018 C1021 1.403 . S
C1019 C1016 1.403 . S
C1019 C1020 1.524 . S
C1019 C1023 1.400 . S
C1020 H1005 0.960 . S
C1020 H1006 0.960 . S
C1020 H1007 0.960 . S
C1020 C1019 1.524 . S
C1021 C1018 1.403 . S
C1021 C1022 1.392 . S
C1021 C1025 1.495 . S
C1022 C1021 1.392 . S
C1022 C1023 1.385 . S
C1022 C1024 1.478 . S
C1023 H1017 0.930 . S
C1023 C1019 1.400 . S
C1023 C1022 1.385 . S
C1024 C1022 1.478 . S
C1024 C1026 1.381 . S
C1024 C1030 1.383 . S
C1025 C1021 1.495 . S
C1025 H1031 0.959 . S
C1025 H1032 0.961 . S
C1025 H1033 0.960 . S
C1026 C1024 1.381 . S
C1026 C1027 1.394 . S
C1026 H1034 0.930 . S
C1027 C1026 1.394 . S
C1027 C1028 1.383 . S
C1027 H1035 0.929 . S
C1028 C1027 1.383 . S
C1028 C1029 1.377 . S
C1029 H1013 0.930 . S
C1029 C1028 1.377 . S
C1029 C1030 1.379 . S
C1030 H1014 0.931 . S
C1030 C1024 1.383 . S
C1030 C1029 1.379 . S
H1031 C1025 0.959 . S
H1032 C1025 0.961 . S
H1033 C1025 0.960 . S
H1034 C1026 0.930 . S
H1035 C1027 0.929 . S
H1036 C1044 0.929 . S
H1037 C1046 0.930 . S
H1038 C1048 0.930 . S
H1039 C1051 0.929 . S
H1040 C1054 0.930 . S
H1041 C1056 0.960 . S
H1042 C1056 0.960 . S
H1043 C1056 0.960 . S
C1044 H1036 0.929 . S
C1044 C1045 1.377 . S
C1044 C1046 1.384 . S
C1045 C1044 1.377 . S
C1045 C1051 1.390 . S
C1046 H1037 0.930 . S
C1046 C1044 1.384 . S
C1046 C1047 1.372 . S
C1047 C1046 1.372 . S
C1047 C1048 1.400 . S
C1047 C1052 1.490 . S
C1048 H1038 0.930 . S
C1048 C1047 1.400 . S
C1048 C1051 1.386 . S
H1049 C1065 0.930 . S
H1050 C1066 0.931 . S
C1051 H1039 0.929 . S
C1051 C1045 1.390 . S
C1051 C1048 1.386 . S
C1052 C1047 1.490 . S
C1052 C1054 1.395 . S
C1052 C1055 1.403 . S
H1053 C1059 0.930 . S
C1054 H1040 0.930 . S
C1054 C1052 1.395 . S
C1054 C1057 1.403 . S
C1055 C1052 1.403 . S
C1055 C1056 1.524 . S
C1055 C1059 1.400 . S
C1056 H1041 0.960 . S
C1056 H1042 0.960 . S
C1056 H1043 0.960 . S
C1056 C1055 1.524 . S
C1057 C1054 1.403 . S
C1057 C1058 1.392 . S
C1057 C1061 1.495 1_455 S
C1058 C1057 1.392 . S
C1058 C1059 1.385 . S
C1058 C1060 1.478 1_455 S
C1059 H1053 0.930 . S
C1059 C1055 1.400 . S
C1059 C1058 1.385 . S
C1060 C1058 1.478 1_655 S
C1060 C1062 1.381 . S
C1060 C1066 1.383 . S
C1061 C1057 1.495 1_655 S
C1061 H1067 0.959 . S
C1061 H1068 0.961 . S
C1061 H1069 0.960 . S
C1062 C1060 1.381 . S
C1062 C1063 1.394 . S
C1062 H1070 0.930 . S
C1063 C1062 1.394 . S
C1063 C1064 1.383 . S
C1063 H1071 0.929 . S
C1064 C1063 1.383 . S
C1064 C1065 1.377 . S
C1065 H1049 0.930 . S
C1065 C1064 1.377 . S
C1065 C1066 1.379 . S
C1066 H1050 0.931 . S
C1066 C1060 1.383 . S
C1066 C1065 1.379 . S
H1067 C1061 0.959 . S
H1068 C1061 0.961 . S
H1069 C1061 0.960 . S
H1070 C1062 0.930 . S
H1071 C1063 0.929 . S
H1072 C1080 0.929 . S
H1073 C1082 0.930 . S
H1074 C1084 0.930 . S
H1075 C1087 0.929 . S
H1076 C1090 0.930 . S
H1077 C1092 0.960 . S
H1078 C1092 0.960 . S
H1079 C1092 0.960 . S
C1080 H1072 0.929 . S
C1080 C1081 1.377 . S
C1080 C1082 1.384 . S
C1081 C1080 1.377 . S
C1081 C1087 1.390 . S
C1082 H1073 0.930 . S
C1082 C1080 1.384 . S
C1082 C1083 1.372 . S
C1083 C1082 1.372 . S
C1083 C1084 1.400 . S
C1083 C1088 1.490 . S
C1084 H1074 0.930 . S
C1084 C1083 1.400 . S
C1084 C1087 1.386 . S
H1085 C1101 0.930 . S
H1086 C1102 0.931 . S
C1087 H1075 0.929 . S
C1087 C1081 1.390 . S
C1087 C1084 1.386 . S
C1088 C1083 1.490 . S
C1088 C1090 1.395 . S
C1088 C1091 1.403 . S
H1089 C1095 0.930 . S
C1090 H1076 0.930 . S
C1090 C1088 1.395 . S
C1090 C1093 1.403 . S
C1091 C1088 1.403 . S
C1091 C1092 1.524 . S
C1091 C1095 1.400 . S
C1092 H1077 0.960 . S
C1092 H1078 0.960 . S
C1092 H1079 0.960 . S
C1092 C1091 1.524 . S
C1093 C1090 1.403 . S
C1093 C1094 1.392 . S
C1093 C1097 1.495 . S
C1094 C1093 1.392 . S
C1094 C1095 1.385 . S
C1094 C1096 1.478 . S
C1095 H1089 0.930 . S
C1095 C1091 1.400 . S
C1095 C1094 1.385 . S
C1096 C1094 1.478 . S
C1096 C1098 1.381 . S
C1096 C1102 1.383 . S
C1097 C1093 1.495 . S
C1097 H1103 0.959 . S
C1097 H1104 0.961 . S
C1097 H1105 0.960 . S
C1098 C1096 1.381 . S
C1098 C1099 1.394 . S
C1098 H1106 0.930 . S
C1099 C1098 1.394 . S
C1099 C1100 1.383 . S
C1099 H1107 0.929 . S
C1100 C1099 1.383 . S
C1100 C1101 1.377 . S
C1101 H1085 0.930 . S
C1101 C1100 1.377 . S
C1101 C1102 1.379 . S
C1102 H1086 0.931 . S
C1102 C1096 1.383 . S
C1102 C1101 1.379 . S
H1103 C1097 0.959 . S
H1104 C1097 0.961 . S
H1105 C1097 0.960 . S
H1106 C1098 0.930 . S
H1107 C1099 0.929 . S
H1108 C1116 0.929 . S
H1109 C1118 0.930 . S
H1110 C1120 0.930 . S
H1111 C1123 0.929 . S
H1112 C1126 0.930 . S
H1113 C1128 0.960 . S
H1114 C1128 0.960 . S
H1115 C1128 0.960 . S
C1116 H1108 0.929 . S
C1116 C1117 1.377 . S
C1116 C1118 1.384 . S
C1117 C1116 1.377 . S
C1117 C1123 1.390 . S
C1118 H1109 0.930 . S
C1118 C1116 1.384 . S
C1118 C1119 1.372 . S
C1119 C1118 1.372 . S
C1119 C1120 1.400 . S
C1119 C1124 1.490 . S
C1120 H1110 0.930 . S
C1120 C1119 1.400 . S
C1120 C1123 1.386 . S
H1121 C1137 0.930 . S
H1122 C1138 0.931 . S
C1123 H1111 0.929 . S
C1123 C1117 1.390 . S
C1123 C1120 1.386 . S
C1124 C1119 1.490 . S
C1124 C1126 1.395 . S
C1124 C1127 1.403 . S
H1125 C1131 0.930 . S
C1126 H1112 0.930 . S
C1126 C1124 1.395 . S
C1126 C1129 1.403 . S
C1127 C1124 1.403 . S
C1127 C1128 1.524 . S
C1127 C1131 1.400 . S
C1128 H1113 0.960 . S
C1128 H1114 0.960 . S
C1128 H1115 0.960 . S
C1128 C1127 1.524 . S
C1129 C1126 1.403 . S
C1129 C1130 1.392 . S
C1129 C1133 1.495 . S
C1130 C1129 1.392 . S
C1130 C1131 1.385 . S
C1130 C1132 1.478 1_655 S
C1131 H1125 0.930 . S
C1131 C1127 1.400 . S
C1131 C1130 1.385 . S
C1132 C1130 1.478 1_455 S
C1132 C1134 1.381 . S
C1132 C1138 1.383 . S
C1133 C1129 1.495 . S
C1133 H1139 0.959 . S
C1133 H1140 0.961 1_655 S
C1133 H1141 0.960 . S
C1134 C1132 1.381 . S
C1134 C1135 1.394 . S
C1134 H1142 0.930 1_455 S
C1135 C1134 1.394 . S
C1135 C1136 1.383 . S
C1135 H1143 0.929 . S
C1136 C1135 1.383 . S
C1136 C1137 1.377 . S
C1137 H1121 0.930 . S
C1137 C1136 1.377 . S
C1137 C1138 1.379 . S
C1138 H1122 0.931 . S
C1138 C1132 1.383 . S
C1138 C1137 1.379 . S
H1139 C1133 0.959 . S
H1140 C1133 0.961 1_455 S
H1141 C1133 0.960 . S
H1142 C1134 0.930 1_655 S
H1143 C1135 0.929 . S
H1144 C1152 0.929 . S
H1145 C1154 0.930 . S
H1146 C1156 0.930 . S
H1147 C1159 0.929 . S
H1148 C1162 0.930 . S
H1149 C1164 0.960 . S
H1150 C1164 0.960 . S
H1151 C1164 0.960 . S
C1152 H1144 0.929 . S
C1152 C1153 1.377 . S
C1152 C1154 1.384 . S
C1153 C1152 1.377 . S
C1153 C1159 1.390 . S
C1154 H1145 0.930 . S
C1154 C1152 1.384 . S
C1154 C1155 1.372 . S
C1155 C1154 1.372 . S
C1155 C1156 1.400 . S
C1155 C1160 1.490 . S
C1156 H1146 0.930 . S
C1156 C1155 1.400 . S
C1156 C1159 1.386 . S
H1157 C1173 0.930 . S
H1158 C1174 0.931 . S
C1159 H1147 0.929 . S
C1159 C1153 1.390 . S
C1159 C1156 1.386 . S
C1160 C1155 1.490 . S
C1160 C1162 1.395 . S
C1160 C1163 1.403 . S
H1161 C1167 0.930 . S
C1162 H1148 0.930 . S
C1162 C1160 1.395 . S
C1162 C1165 1.403 . S
C1163 C1160 1.403 . S
C1163 C1164 1.524 . S
C1163 C1167 1.400 . S
C1164 H1149 0.960 . S
C1164 H1150 0.960 . S
C1164 H1151 0.960 . S
C1164 C1163 1.524 . S
C1165 C1162 1.403 . S
C1165 C1166 1.392 . S
C1165 C1169 1.495 . S
C1166 C1165 1.392 . S
C1166 C1167 1.385 . S
C1166 C1168 1.478 . S
C1167 H1161 0.930 . S
C1167 C1163 1.400 . S
C1167 C1166 1.385 . S
C1168 C1166 1.478 . S
C1168 C1170 1.381 . S
C1168 C1174 1.383 . S
C1169 C1165 1.495 . S
C1169 H1175 0.959 . S
C1169 H1176 0.961 . S
C1169 H1177 0.960 . S
C1170 C1168 1.381 . S
C1170 C1171 1.394 . S
C1170 H1178 0.930 . S
C1171 C1170 1.394 . S
C1171 C1172 1.383 . S
C1171 H1179 0.929 . S
C1172 C1171 1.383 . S
C1172 C1173 1.377 . S
C1173 H1157 0.930 . S
C1173 C1172 1.377 . S
C1173 C1174 1.379 . S
C1174 H1158 0.931 . S
C1174 C1168 1.383 . S
C1174 C1173 1.379 . S
H1175 C1169 0.959 . S
H1176 C1169 0.961 . S
H1177 C1169 0.960 . S
H1178 C1170 0.930 . S
H1179 C1171 0.929 . S
H1180 C1188 0.929 . S
H1181 C1190 0.930 . S
H1182 C1192 0.930 . S
H1183 C1195 0.929 . S
H1184 C1198 0.930 . S
H1185 C1200 0.960 . S
H1186 C1200 0.960 . S
H1187 C1200 0.960 . S
C1188 H1180 0.929 . S
C1188 C1189 1.377 . S
C1188 C1190 1.384 . S
C1189 C1188 1.377 . S
C1189 C1195 1.390 . S
C1190 H1181 0.930 . S
C1190 C1188 1.384 . S
C1190 C1191 1.372 . S
C1191 C1190 1.372 . S
C1191 C1192 1.400 . S
C1191 C1196 1.490 . S
C1192 H1182 0.930 . S
C1192 C1191 1.400 . S
C1192 C1195 1.386 . S
H1193 C1209 0.930 . S
H1194 C1210 0.931 . S
C1195 H1183 0.929 . S
C1195 C1189 1.390 . S
C1195 C1192 1.386 . S
C1196 C1191 1.490 . S
C1196 C1198 1.395 . S
C1196 C1199 1.403 . S
H1197 C1203 0.930 . S
C1198 H1184 0.930 . S
C1198 C1196 1.395 . S
C1198 C1201 1.403 . S
C1199 C1196 1.403 . S
C1199 C1200 1.524 . S
C1199 C1203 1.400 . S
C1200 H1185 0.960 . S
C1200 H1186 0.960 . S
C1200 H1187 0.960 . S
C1200 C1199 1.524 . S
C1201 C1198 1.403 . S
C1201 C1202 1.392 . S
C1201 C1205 1.495 . S
C1202 C1201 1.392 . S
C1202 C1203 1.385 . S
C1202 C1204 1.478 . S
C1203 H1197 0.930 . S
C1203 C1199 1.400 . S
C1203 C1202 1.385 . S
C1204 C1202 1.478 . S
C1204 C1206 1.381 . S
C1204 C1210 1.383 . S
C1205 C1201 1.495 . S
C1205 H1211 0.959 . S
C1205 H1212 0.961 . S
C1205 H1213 0.960 . S
C1206 C1204 1.381 . S
C1206 C1207 1.394 . S
C1206 H1214 0.930 . S
C1207 C1206 1.394 . S
C1207 C1208 1.383 . S
C1207 H1215 0.929 . S
C1208 C1207 1.383 . S
C1208 C1209 1.377 . S
C1209 H1193 0.930 . S
C1209 C1208 1.377 . S
C1209 C1210 1.379 . S
C1210 H1194 0.931 . S
C1210 C1204 1.383 . S
C1210 C1209 1.379 . S
H1211 C1205 0.959 . S
H1212 C1205 0.961 . S
H1213 C1205 0.960 . S
H1214 C1206 0.930 . S
H1215 C1207 0.929 . S
H1216 C1224 0.929 . S
H1217 C1226 0.930 . S
H1218 C1228 0.930 . S
H1219 C1231 0.929 . S
H1220 C1234 0.930 . S
H1221 C1236 0.960 . S
H1222 C1236 0.960 . S
H1223 C1236 0.960 . S
C1224 H1216 0.929 . S
C1224 C1225 1.377 . S
C1224 C1226 1.384 . S
C1225 C1224 1.377 . S
C1225 C1231 1.390 . S
C1226 H1217 0.930 . S
C1226 C1224 1.384 . S
C1226 C1227 1.372 . S
C1227 C1226 1.372 . S
C1227 C1228 1.400 . S
C1227 C1232 1.490 . S
C1228 H1218 0.930 . S
C1228 C1227 1.400 . S
C1228 C1231 1.386 . S
H1229 C1245 0.930 . S
H1230 C1246 0.931 . S
C1231 H1219 0.929 . S
C1231 C1225 1.390 . S
C1231 C1228 1.386 . S
C1232 C1227 1.490 . S
C1232 C1234 1.395 . S
C1232 C1235 1.403 . S
H1233 C1239 0.930 . S
C1234 H1220 0.930 . S
C1234 C1232 1.395 . S
C1234 C1237 1.403 . S
C1235 C1232 1.403 . S
C1235 C1236 1.524 . S
C1235 C1239 1.400 . S
C1236 H1221 0.960 . S
C1236 H1222 0.960 . S
C1236 H1223 0.960 . S
C1236 C1235 1.524 . S
C1237 C1234 1.403 . S
C1237 C1238 1.392 . S
C1237 C1241 1.495 . S
C1238 C1237 1.392 . S
C1238 C1239 1.385 . S
C1238 C1240 1.478 . S
C1239 H1233 0.930 . S
C1239 C1235 1.400 . S
C1239 C1238 1.385 . S
C1240 C1238 1.478 . S
C1240 C1242 1.381 . S
C1240 C1246 1.383 . S
C1241 C1237 1.495 . S
C1241 H1247 0.959 . S
C1241 H1248 0.961 . S
C1241 H1249 0.960 . S
C1242 C1240 1.381 . S
C1242 C1243 1.394 . S
C1242 H1250 0.930 . S
C1243 C1242 1.394 . S
C1243 C1244 1.383 . S
C1243 H1251 0.929 . S
C1244 C1243 1.383 . S
C1244 C1245 1.377 . S
C1245 H1229 0.930 . S
C1245 C1244 1.377 . S
C1245 C1246 1.379 . S
C1246 H1230 0.931 . S
C1246 C1240 1.383 . S
C1246 C1245 1.379 . S
H1247 C1241 0.959 . S
H1248 C1241 0.961 . S
H1249 C1241 0.960 . S
H1250 C1242 0.930 . S
H1251 C1243 0.929 . S
H1252 C1260 0.929 . S
H1253 C1262 0.930 . S
H1254 C1264 0.930 . S
H1255 C1267 0.929 . S
H1256 C1270 0.930 . S
H1257 C1272 0.960 . S
H1258 C1272 0.960 . S
H1259 C1272 0.960 . S
C1260 H1252 0.929 . S
C1260 C1261 1.377 . S
C1260 C1262 1.384 . S
C1261 C1260 1.377 . S
C1261 C1267 1.390 . S
C1262 H1253 0.930 . S
C1262 C1260 1.384 . S
C1262 C1263 1.372 . S
C1263 C1262 1.372 . S
C1263 C1264 1.400 . S
C1263 C1268 1.490 . S
C1264 H1254 0.930 . S
C1264 C1263 1.400 . S
C1264 C1267 1.386 . S
H1265 C1281 0.930 . S
H1266 C1282 0.931 . S
C1267 H1255 0.929 . S
C1267 C1261 1.390 . S
C1267 C1264 1.386 . S
C1268 C1263 1.490 . S
C1268 C1270 1.395 . S
C1268 C1271 1.403 . S
H1269 C1275 0.930 . S
C1270 H1256 0.930 . S
C1270 C1268 1.395 . S
C1270 C1273 1.403 . S
C1271 C1268 1.403 . S
C1271 C1272 1.524 . S
C1271 C1275 1.400 . S
C1272 H1257 0.960 . S
C1272 H1258 0.960 . S
C1272 H1259 0.960 . S
C1272 C1271 1.524 . S
C1273 C1270 1.403 . S
C1273 C1274 1.392 . S
C1273 C1277 1.495 . S
C1274 C1273 1.392 . S
C1274 C1275 1.385 . S
C1274 C1276 1.478 . S
C1275 H1269 0.930 . S
C1275 C1271 1.400 . S
C1275 C1274 1.385 . S
C1276 C1274 1.478 . S
C1276 C1278 1.381 . S
C1276 C1282 1.383 . S
C1277 C1273 1.495 . S
C1277 H1283 0.959 . S
C1277 H1284 0.961 . S
C1277 H1285 0.960 . S
C1278 C1276 1.381 . S
C1278 C1279 1.394 . S
C1278 H1286 0.930 . S
C1279 C1278 1.394 . S
C1279 C1280 1.383 . S
C1279 H1287 0.929 . S
C1280 C1279 1.383 . S
C1280 C1281 1.377 . S
C1281 H1265 0.930 . S
C1281 C1280 1.377 . S
C1281 C1282 1.379 . S
C1282 H1266 0.931 . S
C1282 C1276 1.383 . S
C1282 C1281 1.379 . S
H1283 C1277 0.959 . S
H1284 C1277 0.961 . S
H1285 C1277 0.960 . S
H1286 C1278 0.930 . S
H1287 C1279 0.929 . S
H1288 C1296 0.929 . S
H1289 C1298 0.930 . S
H1290 C1300 0.930 . S
H1291 C1303 0.929 . S
H1292 C1306 0.930 . S
H1293 C1308 0.960 . S
H1294 C1308 0.960 . S
H1295 C1308 0.960 . S
C1296 H1288 0.929 . S
C1296 C1297 1.377 . S
C1296 C1298 1.384 . S
C1297 C1296 1.377 . S
C1297 C1303 1.390 . S
C1298 H1289 0.930 . S
C1298 C1296 1.384 . S
C1298 C1299 1.372 . S
C1299 C1298 1.372 . S
C1299 C1300 1.400 . S
C1299 C1304 1.490 . S
C1300 H1290 0.930 . S
C1300 C1299 1.400 . S
C1300 C1303 1.386 . S
H1301 C1317 0.930 . S
H1302 C1318 0.931 . S
C1303 H1291 0.929 . S
C1303 C1297 1.390 . S
C1303 C1300 1.386 . S
C1304 C1299 1.490 . S
C1304 C1306 1.395 . S
C1304 C1307 1.403 . S
H1305 C1311 0.930 . S
C1306 H1292 0.930 . S
C1306 C1304 1.395 . S
C1306 C1309 1.403 . S
C1307 C1304 1.403 . S
C1307 C1308 1.524 . S
C1307 C1311 1.400 . S
C1308 H1293 0.960 . S
C1308 H1294 0.960 . S
C1308 H1295 0.960 . S
C1308 C1307 1.524 . S
C1309 C1306 1.403 . S
C1309 C1310 1.392 . S
C1309 C1313 1.495 . S
C1310 C1309 1.392 . S
C1310 C1311 1.385 . S
C1310 C1312 1.478 . S
C1311 H1305 0.930 . S
C1311 C1307 1.400 . S
C1311 C1310 1.385 . S
C1312 C1310 1.478 . S
C1312 C1314 1.381 . S
C1312 C1318 1.383 . S
C1313 C1309 1.495 . S
C1313 H1319 0.959 . S
C1313 H1320 0.961 . S
C1313 H1321 0.960 . S
C1314 C1312 1.381 . S
C1314 C1315 1.394 . S
C1314 H1322 0.930 . S
C1315 C1314 1.394 . S
C1315 C1316 1.383 . S
C1315 H1323 0.929 . S
C1316 C1315 1.383 . S
C1316 C1317 1.377 . S
C1317 H1301 0.930 . S
C1317 C1316 1.377 . S
C1317 C1318 1.379 . S
C1318 H1302 0.931 . S
C1318 C1312 1.383 . S
C1318 C1317 1.379 . S
H1319 C1313 0.959 . S
H1320 C1313 0.961 . S
H1321 C1313 0.960 . S
H1322 C1314 0.930 . S
H1323 C1315 0.929 . S
H1324 C1332 0.929 . S
H1325 C1334 0.930 . S
H1326 C1336 0.930 . S
H1327 C1339 0.929 . S
H1328 C1342 0.930 . S
H1329 C1344 0.960 . S
H1330 C1344 0.960 . S
H1331 C1344 0.960 . S
C1332 H1324 0.929 . S
C1332 C1333 1.377 . S
C1332 C1334 1.384 . S
C1333 C1332 1.377 . S
C1333 C1339 1.390 . S
C1334 H1325 0.930 . S
C1334 C1332 1.384 . S
C1334 C1335 1.372 . S
C1335 C1334 1.372 . S
C1335 C1336 1.400 . S
C1335 C1340 1.490 . S
C1336 H1326 0.930 . S
C1336 C1335 1.400 . S
C1336 C1339 1.386 . S
H1337 C1353 0.930 . S
H1338 C1354 0.931 . S
C1339 H1327 0.929 . S
C1339 C1333 1.390 . S
C1339 C1336 1.386 . S
C1340 C1335 1.490 . S
C1340 C1342 1.395 . S
C1340 C1343 1.403 . S
H1341 C1347 0.930 . S
C1342 H1328 0.930 . S
C1342 C1340 1.395 . S
C1342 C1345 1.403 . S
C1343 C1340 1.403 . S
C1343 C1344 1.524 . S
C1343 C1347 1.400 . S
C1344 H1329 0.960 . S
C1344 H1330 0.960 . S
C1344 H1331 0.960 . S
C1344 C1343 1.524 . S
C1345 C1342 1.403 . S
C1345 C1346 1.392 . S
C1345 C1349 1.495 . S
C1346 C1345 1.392 . S
C1346 C1347 1.385 . S
C1346 C1348 1.478 . S
C1347 H1341 0.930 . S
C1347 C1343 1.400 . S
C1347 C1346 1.385 . S
C1348 C1346 1.478 . S
C1348 C1350 1.381 . S
C1348 C1354 1.383 . S
C1349 C1345 1.495 . S
C1349 H1355 0.959 . S
C1349 H1356 0.961 . S
C1349 H1357 0.960 . S
C1350 C1348 1.381 . S
C1350 C1351 1.394 . S
C1350 H1358 0.930 . S
C1351 C1350 1.394 . S
C1351 C1352 1.383 . S
C1351 H1359 0.929 . S
C1352 C1351 1.383 . S
C1352 C1353 1.377 . S
C1353 H1337 0.930 . S
C1353 C1352 1.377 . S
C1353 C1354 1.379 . S
C1354 H1338 0.931 . S
C1354 C1348 1.383 . S
C1354 C1353 1.379 . S
H1355 C1349 0.959 . S
H1356 C1349 0.961 . S
H1357 C1349 0.960 . S
H1358 C1350 0.930 . S
H1359 C1351 0.929 . S
H1360 C1368 0.929 . S
H1361 C1370 0.930 . S
H1362 C1372 0.930 . S
H1363 C1375 0.929 . S
H1364 C1378 0.930 . S
H1365 C1380 0.960 . S
H1366 C1380 0.960 . S
H1367 C1380 0.960 . S
C1368 H1360 0.929 . S
C1368 C1369 1.377 . S
C1368 C1370 1.384 . S
C1369 C1368 1.377 . S
C1369 C1375 1.390 . S
C1370 H1361 0.930 . S
C1370 C1368 1.384 . S
C1370 C1371 1.372 . S
C1371 C1370 1.372 . S
C1371 C1372 1.400 . S
C1371 C1376 1.490 . S
C1372 H1362 0.930 . S
C1372 C1371 1.400 . S
C1372 C1375 1.386 . S
H1373 C1389 0.930 . S
H1374 C1390 0.931 . S
C1375 H1363 0.929 . S
C1375 C1369 1.390 . S
C1375 C1372 1.386 . S
C1376 C1371 1.490 . S
C1376 C1378 1.395 . S
C1376 C1379 1.403 . S
H1377 C1383 0.930 . S
C1378 H1364 0.930 . S
C1378 C1376 1.395 . S
C1378 C1381 1.403 . S
C1379 C1376 1.403 . S
C1379 C1380 1.524 . S
C1379 C1383 1.400 . S
C1380 H1365 0.960 . S
C1380 H1366 0.960 . S
C1380 H1367 0.960 . S
C1380 C1379 1.524 . S
C1381 C1378 1.403 . S
C1381 C1382 1.392 . S
C1381 C1385 1.495 . S
C1382 C1381 1.392 . S
C1382 C1383 1.385 . S
C1382 C1384 1.478 . S
C1383 H1377 0.930 . S
C1383 C1379 1.400 . S
C1383 C1382 1.385 . S
C1384 C1382 1.478 . S
C1384 C1386 1.381 . S
C1384 C1390 1.383 . S
C1385 C1381 1.495 . S
C1385 H1391 0.959 . S
C1385 H1392 0.961 . S
C1385 H1393 0.960 . S
C1386 C1384 1.381 . S
C1386 C1387 1.394 . S
C1386 H1394 0.930 . S
C1387 C1386 1.394 . S
C1387 C1388 1.383 . S
C1387 H1395 0.929 . S
C1388 C1387 1.383 . S
C1388 C1389 1.377 . S
C1389 H1373 0.930 . S
C1389 C1388 1.377 . S
C1389 C1390 1.379 . S
C1390 H1374 0.931 . S
C1390 C1384 1.383 . S
C1390 C1389 1.379 . S
H1391 C1385 0.959 . S
H1392 C1385 0.961 . S
H1393 C1385 0.960 . S
H1394 C1386 0.930 . S
H1395 C1387 0.929 . S
H1396 C1404 0.929 . S
H1397 C1406 0.930 . S
H1398 C1408 0.930 . S
H1399 C1411 0.929 . S
H1400 C1414 0.930 . S
H1401 C1416 0.960 . S
H1402 C1416 0.960 . S
H1403 C1416 0.960 . S
C1404 H1396 0.929 . S
C1404 C1405 1.377 . S
C1404 C1406 1.384 . S
C1405 C1404 1.377 . S
C1405 C1411 1.390 . S
C1406 H1397 0.930 . S
C1406 C1404 1.384 . S
C1406 C1407 1.372 . S
C1407 C1406 1.372 . S
C1407 C1408 1.400 . S
C1407 C1412 1.490 . S
C1408 H1398 0.930 . S
C1408 C1407 1.400 . S
C1408 C1411 1.386 . S
H1409 C1425 0.930 . S
H1410 C1426 0.931 . S
C1411 H1399 0.929 . S
C1411 C1405 1.390 . S
C1411 C1408 1.386 . S
C1412 C1407 1.490 . S
C1412 C1414 1.395 . S
C1412 C1415 1.403 . S
H1413 C1419 0.930 . S
C1414 H1400 0.930 . S
C1414 C1412 1.395 . S
C1414 C1417 1.403 . S
C1415 C1412 1.403 . S
C1415 C1416 1.524 . S
C1415 C1419 1.400 . S
C1416 H1401 0.960 . S
C1416 H1402 0.960 . S
C1416 H1403 0.960 . S
C1416 C1415 1.524 . S
C1417 C1414 1.403 . S
C1417 C1418 1.392 . S
C1417 C1421 1.495 . S
C1418 C1417 1.392 . S
C1418 C1419 1.385 . S
C1418 C1420 1.478 . S
C1419 H1413 0.930 . S
C1419 C1415 1.400 . S
C1419 C1418 1.385 . S
C1420 C1418 1.478 . S
C1420 C1422 1.381 . S
C1420 C1426 1.383 . S
C1421 C1417 1.495 . S
C1421 H1427 0.959 . S
C1421 H1428 0.961 . S
C1421 H1429 0.960 . S
C1422 C1420 1.381 . S
C1422 C1423 1.394 . S
C1422 H1430 0.930 . S
C1423 C1422 1.394 . S
C1423 C1424 1.383 . S
C1423 H1431 0.929 . S
C1424 C1423 1.383 . S
C1424 C1425 1.377 . S
C1425 H1409 0.930 . S
C1425 C1424 1.377 . S
C1425 C1426 1.379 . S
C1426 H1410 0.931 . S
C1426 C1420 1.383 . S
C1426 C1425 1.379 . S
H1427 C1421 0.959 . S
H1428 C1421 0.961 . S
H1429 C1421 0.960 . S
H1430 C1422 0.930 . S
H1431 C1423 0.929 . S
C577 C8 1.227 . S
C596 C89 1.176 . S
C613 C31 1.225 . S
C632 C168 1.221 . S
C649 C53 1.227 . S
C668 C239 1.220 . S
C704 C299 1.221 . S
C685 C74 1.225 . S
C740 C329 1.126 . S
C721 C26 1.225 . S
C757 C48 1.227 . S
C776 C419 1.230 . S
C793 C71 1.217 . S
C812 C479 1.236 . S
C829 C5 1.227 . S
C848 C528 1.232 . S
C865 C50 1.227 . S
C884 C509 1.124 . S
C920 C348 1.241 . S
C901 C70 1.222 . S
C956 C408 1.140 . S
C937 C4 1.230 . S
C973 C28 1.225 . S
C992 C468 1.105 . S
C1028 C149 1.174 . S
C1009 C73 1.222 . S
C1045 C7 1.226 . S
C1064 C228 1.101 . S
C1100 C288 1.114 . S
C1081 C30 1.223 . S
C1136 C108 1.223 . S
C1117 C52 1.222 . S
C1172 C449 0.906 . S
C1153 C9 0.905 . S
C1208 C539 0.929 . S
C1189 C29 0.912 . S
C1225 C51 0.908 . S
C1244 C359 0.914 . S
C1280 C389 0.916 . S
C1261 C75 0.911 . S
C1316 C209 0.881 . S
C1297 C27 0.907 . S
C1333 C49 0.911 . S
C1352 C269 0.920 . S
C1388 C119 0.875 . S
C1369 C72 0.911 . S
C1424 C179 0.905 . S
C1405 C6 0.914 . S
