# Generated by pormake.
# Topology rtl, (3,6)-cn, num edge types: 1
# Building blocks:
#     Node 0, Type 0, BuildingBlock: KAKCAD_clean_linker_0, # of connection points: 3
#     Node 1, Type 0, BuildingBlock: KAKCAD_clean_linker_0, # of connection points: 3
#     Node 2, Type 0, BuildingBlock: KAKCAD_clean_linker_0, # of connection points: 3
#     Node 3, Type 0, BuildingBlock: KAKCAD_clean_linker_0, # of connection points: 3
#     Node 4, Type 1, BuildingBlock: FUNLAD_clean_sbu_0, # of connection points: 6
#     Node 5, Type 1, BuildingBlock: FUNLAD_clean_sbu_0, # of connection points: 6
#     Edge 6, Type (0, 1), BuildingBlock: EZIPEK_clean_linker_0, # of connection points: 2
#     Edge 7, Type (0, 1), BuildingBlock: EZIPEK_clean_linker_0, # of connection points: 2
#     Edge 8, Type (0, 1), BuildingBlock: EZIPEK_clean_linker_0, # of connection points: 2
#     Edge 9, Type (0, 1), BuildingBlock: EZIPEK_clean_linker_0, # of connection points: 2
#     Edge 10, Type (0, 1), BuildingBlock: EZIPEK_clean_linker_0, # of connection points: 2
#     Edge 11, Type (0, 1), BuildingBlock: EZIPEK_clean_linker_0, # of connection points: 2
#     Edge 12, Type (0, 1), BuildingBlock: EZIPEK_clean_linker_0, # of connection points: 2
#     Edge 13, Type (0, 1), BuildingBlock: EZIPEK_clean_linker_0, # of connection points: 2
#     Edge 14, Type (0, 1), BuildingBlock: EZIPEK_clean_linker_0, # of connection points: 2
#     Edge 15, Type (0, 1), BuildingBlock: EZIPEK_clean_linker_0, # of connection points: 2
#     Edge 16, Type (0, 1), BuildingBlock: EZIPEK_clean_linker_0, # of connection points: 2
#     Edge 17, Type (0, 1), BuildingBlock: EZIPEK_clean_linker_0, # of connection points: 2
# Relax obj value: 0.025
# Max RMSD: 0.105
# Mean RMSD: 0.087
data_MOF--net-rtl--node1-FUNLAD_clean_sbu_0--node2-KAKCAD_clean_linker_0--edge1-EZIPEK_clean_linker_0
_symmetry_space_group_name_H-M    P1
_symmetry_Int_Tables_number       1
_symmetry_cell_setting            triclinic
loop_
_symmetry_equiv_pos_as_xyz
'x, y, z'
_cell_length_a     39.688585
_cell_length_b     31.921146
_cell_length_c     22.0513
_cell_angle_alpha  89.685989
_cell_angle_beta   90.916867
_cell_angle_gamma 90.512155
loop_
_atom_site_label
_atom_site_type_symbol
_atom_site_fract_x
_atom_site_fract_y
_atom_site_fract_z
_atom_type_partial_charge
C0 C 0.07566 0.80593 0.79231 0.0
C1 C 0.0761 0.84969 0.78534 0.0
C2 C 0.09028 0.78744 0.84394 0.0
C3 C 0.10487 0.81265 0.88941 0.0
C4 C 0.1059 0.85632 0.88154 0.0
C5 C 0.09178 0.87468 0.82977 0.0
C6 C 0.11694 0.79427 0.9472 0.0
C7 C 0.14219 0.76389 0.94873 0.0
C8 C 0.15515 0.74914 0.00459 0.0
C9 C 0.14193 0.76448 0.05894 0.0
C10 C 0.11661 0.79497 0.05766 0.0
C11 C 0.10408 0.80922 0.00155 0.0
C12 C 0.10418 0.81393 0.11421 0.0
C13 C 0.09647 0.78906 0.16508 0.0
C14 C 0.09906 0.85744 0.11676 0.0
C15 C 0.08566 0.87557 0.16822 0.0
C16 C 0.07741 0.85065 0.21829 0.0
C17 C 0.18425 0.72034 0.00626 0.0
C18 C 0.2122 0.72831 0.96942 0.0
C19 C 0.18498 0.68583 0.04619 0.0
C20 C 0.21325 0.66 0.04945 0.0
C21 C 0.24131 0.66866 0.01339 0.0
C22 C 0.24051 0.70276 0.9731 0.0
C23 C 0.08312 0.80736 0.2169 0.0
H24 H 0.06352 0.78629 0.75837 0.0
H25 H 0.08909 0.75372 0.84944 0.0
H26 H 0.11718 0.87628 0.91603 0.0
H27 H 0.09232 0.90848 0.82497 0.0
H28 H 0.15234 0.75265 0.90653 0.0
H29 H 0.08422 0.83235 -5e-05 0.0
H30 H 0.15253 0.75432 0.10212 0.0
H31 H 0.10004 0.75547 0.16426 0.0
H32 H 0.1054 0.87757 0.07884 0.0
H33 H 0.08165 0.9091 0.16902 0.0
H34 H 0.21254 0.75499 0.93885 0.0
H35 H 0.16371 0.67887 0.07483 0.0
H36 H 0.07692 0.78784 0.25554 0.0
H37 H 0.26199 0.70986 0.94502 0.0
H38 H 0.21348 0.63365 0.08061 0.0
C39 C 0.57266 0.71423 0.7329 0.0
C40 C 0.56822 0.67056 0.7363 0.0
C41 C 0.5854 0.73272 0.68007 0.0
C42 C 0.59325 0.70766 0.63012 0.0
C43 C 0.58927 0.66396 0.63452 0.0
C44 C 0.57688 0.64563 0.68706 0.0
C45 C 0.60519 0.72599 0.57249 0.0
C46 C 0.63329 0.75287 0.57114 0.0
C47 C 0.64804 0.76356 0.51554 0.0
C48 C 0.63443 0.74692 0.46139 0.0
C49 C 0.60581 0.72063 0.46201 0.0
C50 C 0.5907 0.71196 0.51788 0.0
C51 C 0.59333 0.69922 0.40579 0.0
C52 C 0.59708 0.71765 0.348 0.0
C53 C 0.5786 0.65895 0.40949 0.0
C54 C 0.56752 0.63813 0.35753 0.0
C55 C 0.57216 0.65607 0.30016 0.0
C56 C 0.67913 0.78962 0.51418 0.0
C57 C 0.68172 0.82673 0.54807 0.0
C58 C 0.70651 0.77735 0.4789 0.0
C59 C 0.73585 0.8017 0.47741 0.0
C60 C 0.73829 0.83876 0.51102 0.0
C61 C 0.71106 0.85126 0.54625 0.0
C62 C 0.58713 0.69594 0.29563 0.0
H63 H 0.56598 0.73382 0.77072 0.0
H64 H 0.58833 0.76645 0.67765 0.0
H65 H 0.59569 0.64387 0.59704 0.0
H66 H 0.5737 0.6119 0.68912 0.0
H67 H 0.64485 0.76334 0.61335 0.0
H68 H 0.56809 0.69277 0.51968 0.0
H69 H 0.64684 0.75371 0.41906 0.0
H70 H 0.60775 0.74875 0.34291 0.0
H71 H 0.57625 0.64264 0.45236 0.0
H72 H 0.55622 0.60725 0.36197 0.0
H73 H 0.66092 0.83698 0.57535 0.0
H74 H 0.70543 0.7486 0.45306 0.0
H75 H 0.591 0.71025 0.25161 0.0
H76 H 0.71263 0.87986 0.57239 0.0
H77 H 0.75674 0.79159 0.45022 0.0
C78 C 0.90179 0.17318 0.20865 0.0
C79 C 0.9365 0.16645 0.21497 0.0
C80 C 0.88889 0.19344 0.15708 0.0
C81 C 0.91057 0.20728 0.11105 0.0
C82 C 0.94554 0.20214 0.11914 0.0
C83 C 0.95839 0.18179 0.17064 0.0
C84 C 0.89654 0.2234 0.05264 0.0
C85 C 0.86853 0.25005 0.05127 0.0
C86 C 0.85309 0.26153 0.99585 0.0
C87 C 0.86608 0.24622 0.94143 0.0
C88 C 0.89434 0.22019 0.9421 0.0
C89 C 0.90955 0.20918 0.99765 0.0
C90 C 0.90676 0.20187 0.88532 0.0
C91 C 0.88467 0.17928 0.84704 0.0
C92 C 0.94112 0.20436 0.87127 0.0
C93 C 0.95332 0.18386 0.82041 0.0
C94 C 0.93145 0.15983 0.78366 0.0
C95 C 0.82251 0.28795 0.99499 0.0
C96 C 0.82073 0.32365 0.03187 0.0
C97 C 0.7946 0.27709 0.95804 0.0
C98 C 0.76539 0.30113 0.95849 0.0
C99 C 0.76364 0.3365 0.99565 0.0
C100 C 0.79154 0.34785 0.03201 0.0
C101 C 0.89698 0.15811 0.79686 0.0
H102 H 0.88461 0.16126 0.24245 0.0
H103 H 0.86183 0.19641 0.15194 0.0
H104 H 0.9629 0.21291 0.08489 0.0
H105 H 0.98528 0.17679 0.17504 0.0
H106 H 0.85818 0.26099 0.09347 0.0
H107 H 0.93046 0.18753 -0.00195 0.0
H108 H 0.85434 0.25471 0.89841 0.0
H109 H 0.85813 0.17665 0.85733 0.0
H110 H 0.95856 0.22172 0.90014 0.0
H111 H 0.97997 0.1856 0.81074 0.0
H112 H 0.84195 0.33296 0.06036 0.0
H113 H 0.79509 0.24949 0.92973 0.0
H114 H 0.87978 0.13965 0.76901 0.0
H115 H 0.79055 0.37516 0.06084 0.0
H116 H 0.744 0.29194 0.93031 0.0
C117 C 0.40781 0.32303 0.28941 0.0
C118 C 0.44232 0.3322 0.28606 0.0
C119 C 0.39498 0.30282 0.34054 0.0
C120 C 0.41653 0.29139 0.38907 0.0
C121 C 0.45142 0.29851 0.3837 0.0
C122 C 0.46418 0.31893 0.33268 0.0
C123 C 0.4023 0.27636 0.4473 0.0
C124 C 0.37434 0.24898 0.44814 0.0
C125 C 0.35842 0.23906 0.50294 0.0
C126 C 0.37111 0.25614 0.55732 0.0
C127 C 0.39912 0.28318 0.55733 0.0
C128 C 0.4147 0.29289 0.50232 0.0
C129 C 0.41058 0.30398 0.61394 0.0
C130 C 0.38715 0.32356 0.65136 0.0
C131 C 0.44505 0.30637 0.62923 0.0
C132 C 0.45593 0.32854 0.68046 0.0
C133 C 0.43253 0.34905 0.71666 0.0
C134 C 0.32724 0.21313 0.50315 0.0
C135 C 0.32469 0.17624 0.46873 0.0
C136 C 0.29949 0.22571 0.53728 0.0
C137 C 0.26978 0.20205 0.53684 0.0
C138 C 0.2673 0.16538 0.5024 0.0
C139 C 0.29493 0.15242 0.46856 0.0
C140 C 0.39807 0.34612 0.70216 0.0
H141 H 0.39063 0.33341 0.25385 0.0
H142 H 0.36797 0.29834 0.34344 0.0
H143 H 0.46871 0.28956 0.41988 0.0
H144 H 0.49091 0.32588 0.33063 0.0
H145 H 0.36426 0.23652 0.40593 0.0
H146 H 0.43531 0.3154 0.5021 0.0
H147 H 0.35906 0.24855 0.59983 0.0
H148 H 0.36047 0.3226 0.64019 0.0
H149 H 0.46357 0.29136 0.60127 0.0
H150 H 0.48263 0.33053 0.69118 0.0
H151 H 0.34575 0.16569 0.44236 0.0
H152 H 0.30053 0.2543 0.56351 0.0
H153 H 0.37974 0.36193 0.72958 0.0
H154 H 0.29334 0.12408 0.44184 0.0
H155 H 0.24859 0.21248 0.56301 0.0
C156 C 0.02376 0.94933 0.41252 0.0
N157 N 0.07414 0.04536 0.50628 0.0
C158 C 0.1016 0.02008 0.50676 0.0
C159 C 0.13401 0.03737 0.50661 0.0
C160 C 0.13801 0.081 0.50641 0.0
C161 C 0.10944 0.10643 0.50698 0.0
C162 C 0.0775 0.08783 0.50686 0.0
Zn163 Zn 0.02705 0.01929 0.50184 0.0
C164 C 0.98361 0.06037 0.41097 0.0
N165 N 0.92968 0.96212 0.49414 0.0
C166 C 0.92646 0.91964 0.49465 0.0
C167 C 0.90217 0.98731 0.49383 0.0
C168 C 0.86981 0.96985 0.49539 0.0
C169 C 0.86597 0.9262 0.49694 0.0
C170 C 0.89461 0.9009 0.49597 0.0
Zn171 Zn 0.9767 0.98826 0.49854 0.0
O172 O 0.04252 0.97906 0.43168 0.0
C173 C 0.01985 0.94731 0.58958 0.0
O174 O 0.99447 0.94477 0.43422 0.0
H175 H 0.90534 0.021 0.49351 0.0
H176 H 0.09837 0.98647 0.5067 0.0
H177 H 0.94866 0.90024 0.49519 0.0
O178 O 0.04096 0.97372 0.56878 0.0
O179 O 0.98992 0.9464 0.56869 0.0
H180 H 0.05535 0.10733 0.50658 0.0
O181 O 0.96017 0.03128 0.56444 0.0
O182 O 0.01076 0.05965 0.57102 0.0
O183 O 0.96375 0.03104 0.42724 0.0
O184 O 0.01257 0.06379 0.43569 0.0
C185 C 0.98041 0.05773 0.58828 0.0
H186 H 0.15571 0.01704 0.50622 0.0
H187 H 0.11189 0.14026 0.50686 0.0
H188 H 0.84804 0.99007 0.49623 0.0
H189 H 0.89229 0.86707 0.49726 0.0
C190 C 0.47865 0.45142 0.91699 0.0
N191 N 0.57412 0.46163 -0.00116 0.0
C192 C 0.57621 0.41915 0.99596 0.0
C193 C 0.60756 0.39983 0.99454 0.0
C194 C 0.63691 0.42451 0.99635 0.0
C195 C 0.63422 0.4682 -0.00117 0.0
C196 C 0.60231 0.48628 -0.00012 0.0
Zn197 Zn 0.52765 0.48807 0.00447 0.0
C198 C 0.51996 0.56202 0.92442 0.0
N199 N 0.43036 0.54284 0.01855 0.0
C200 C 0.40239 0.51782 0.01881 0.0
C201 C 0.42792 0.58531 0.0206 0.0
C202 C 0.3964 0.60424 0.02194 0.0
C203 C 0.36725 0.57915 0.02158 0.0
C204 C 0.37034 0.53546 0.02065 0.0
Zn205 Zn 0.47688 0.51654 0.01265 0.0
O206 O 0.5089 0.44804 0.93582 0.0
C207 C 0.4848 0.44317 0.09393 0.0
O208 O 0.45934 0.47812 0.94051 0.0
H209 H 0.45045 0.6046 0.02054 0.0
H210 H 0.55351 0.40016 0.99544 0.0
H211 H 0.40492 0.48415 0.01696 0.0
O212 O 0.51419 0.44347 0.07196 0.0
O213 O 0.46339 0.4701 0.07628 0.0
H214 H 0.60006 0.51997 0.00221 0.0
O215 O 0.49508 0.5543 0.08445 0.0
O216 O 0.54579 0.52897 0.07237 0.0
O217 O 0.49139 0.56318 0.94943 0.0
O218 O 0.54044 0.53298 0.93813 0.0
C219 C 0.52611 0.55351 0.09949 0.0
H220 H 0.60897 0.36598 0.99275 0.0
H221 H 0.65655 0.48796 0.00041 0.0
H222 H 0.39472 0.63808 0.02279 0.0
H223 H 0.3482 0.51537 0.02046 0.0
C224 C 0.22614 0.11751 0.55364 0.0
C225 C 0.23534 0.14099 0.50158 0.0
C226 C 0.18306 0.11934 0.44974 0.0
C227 C 0.1721 0.10023 0.50429 0.0
N228 N 0.18102 0.08527 0.61067 0.0
N229 N 0.22105 0.16919 0.40279 0.0
C230 C 0.1931 0.10025 0.55695 0.0
C231 C 0.21346 0.14313 0.45016 0.0
N232 N 0.24925 0.11098 0.59927 0.0
N233 N 0.1648 0.1139 0.39722 0.0
H234 H 0.24315 0.18706 0.40121 0.0
H235 H 0.20426 0.1757 0.36728 0.0
H236 H 0.14239 0.09659 0.39514 0.0
H237 H 0.17333 0.12329 0.3548 0.0
H238 H 0.24522 0.09057 0.63548 0.0
H239 H 0.27374 0.12312 0.59822 0.0
H240 H 0.19375 0.08872 0.65202 0.0
H241 H 0.15696 0.07227 0.61489 0.0
C242 C 0.29353 0.64559 0.06992 0.0
C243 C 0.27202 0.64255 0.01804 0.0
C244 C 0.31308 0.59813 0.96798 0.0
C245 C 0.33357 0.59897 0.02133 0.0
N246 N 0.34007 0.61568 0.1274 0.0
N247 N 0.2576 0.60892 0.92339 0.0
C248 C 0.32276 0.62031 0.07371 0.0
C249 C 0.28066 0.61658 0.96879 0.0
N250 N 0.28691 0.67397 0.11429 0.0
N251 N 0.32515 0.58144 0.91573 0.0
H252 H 0.2335 0.62171 0.92279 0.0
H253 H 0.26119 0.58688 0.88949 0.0
H254 H 0.34889 0.56791 0.91298 0.0
H255 H 0.31285 0.58419 0.87384 0.0
H256 H 0.30372 0.68088 0.14967 0.0
H257 H 0.26587 0.69331 0.11316 0.0
H258 H 0.33145 0.62697 0.16852 0.0
H259 H 0.36149 0.59714 0.13191 0.0
C260 C 0.79243 0.86367 0.55966 0.0
C261 C 0.76974 0.86415 0.50929 0.0
C262 C 0.81023 0.90518 0.45025 0.0
C263 C 0.83208 0.9067 0.50175 0.0
N264 N 0.84125 0.89539 0.60895 0.0
N265 N 0.75365 0.89208 0.41134 0.0
C266 C 0.82231 0.88837 0.5576 0.0
C267 C 0.77762 0.88701 0.45594 0.0
N268 N 0.78615 0.83825 0.60838 0.0
N269 N 0.82113 0.91961 0.39539 0.0
H270 H 0.72944 0.8793 0.41417 0.0
H271 H 0.7567 0.91196 0.3742 0.0
H272 H 0.84481 0.93335 0.38948 0.0
H273 H 0.80783 0.91506 0.35485 0.0
H274 H 0.80362 0.83296 0.64327 0.0
H275 H 0.76451 0.81967 0.61175 0.0
H276 H 0.83357 0.88657 0.65215 0.0
H277 H 0.8633 0.91343 0.60919 0.0
C278 C 0.71089 0.35789 0.04822 0.0
C279 C 0.73213 0.36112 0.99721 0.0
C280 C 0.69054 0.40518 0.94465 0.0
C281 C 0.67041 0.40425 0.99725 0.0
N282 N 0.66433 0.38712 0.10319 0.0
N283 N 0.74559 0.39396 0.90179 0.0
C284 C 0.68149 0.38281 0.05034 0.0
C285 C 0.72297 0.38665 0.94682 0.0
N286 N 0.71808 0.32977 0.09351 0.0
N287 N 0.67817 0.42235 0.892 0.0
H288 H 0.76962 0.38094 0.90199 0.0
H289 H 0.74174 0.41574 0.8671 0.0
H290 H 0.65456 0.43636 0.88865 0.0
H291 H 0.69008 0.41979 0.85046 0.0
H292 H 0.70155 0.32264 0.12836 0.0
H293 H 0.73935 0.31083 0.09368 0.0
H294 H 0.67317 0.37588 0.14487 0.0
H295 H 0.64272 0.40528 0.10655 0.0
C296 C 0.02798 0.87995 0.2718 0.0
C297 C 0.06277 0.8707 0.27201 0.0
C298 C 0.07004 0.90523 0.37003 0.0
C299 C 0.03634 0.92019 0.36559 0.0
N300 N 0.98451 0.9261 0.30613 0.0
N301 N 0.11811 0.8778 0.31741 0.0
C302 C 0.01543 0.90835 0.3152 0.0
C303 C 0.08413 0.88412 0.32013 0.0
N304 N 0.00688 0.86148 0.23003 0.0
N305 N 0.08829 0.90957 0.42273 0.0
H306 H 0.1293 0.8611 0.28265 0.0
H307 H 0.13544 0.89167 0.34725 0.0
H308 H 0.07897 0.92378 0.46118 0.0
H309 H 0.11143 0.89521 0.43057 0.0
H310 H 0.98072 0.8633 0.23172 0.0
H311 H 0.01538 0.84101 0.19697 0.0
H312 H 0.97031 0.92235 0.26637 0.0
H313 H 0.97407 0.94785 0.33509 0.0
C314 C 0.52046 0.63278 0.785 0.0
C315 C 0.55344 0.64992 0.79012 0.0
C316 C 0.5602 0.6177 0.89043 0.0
C317 C 0.52983 0.59477 0.88037 0.0
N318 N 0.48218 0.5774 0.81521 0.0
N319 N 0.6061 0.65681 0.84543 0.0
C320 C 0.50993 0.60185 0.82728 0.0
C321 C 0.57363 0.64225 0.84253 0.0
N322 N 0.49926 0.64625 0.73964 0.0
N323 N 0.57567 0.61688 0.94627 0.0
H324 H 0.61665 0.67561 0.81175 0.0
H325 H 0.62327 0.64792 0.87922 0.0
H326 H 0.56598 0.60015 0.98297 0.0
H327 H 0.5961 0.63605 0.95796 0.0
H328 H 0.47384 0.63797 0.73692 0.0
H329 H 0.50632 0.66902 0.70804 0.0
H330 H 0.46916 0.57792 0.77383 0.0
H331 H 0.47366 0.55393 0.84434 0.0
C332 C 0.95691 0.15801 0.32282 0.0
C333 C 0.94969 0.14003 0.26531 0.0
C334 C 0.97039 0.07219 0.30135 0.0
C335 C 0.97382 0.08873 0.3606 0.0
N336 N 0.96966 0.14663 0.42973 0.0
N337 N 0.94548 0.07919 0.20097 0.0
C338 C 0.9671 0.13157 0.3719 0.0
C339 C 0.95529 0.09686 0.25487 0.0
N340 N 0.95471 0.20042 0.32995 0.0
N341 N 0.98319 0.03363 0.28888 0.0
H342 H 0.93488 0.09632 0.16516 0.0
H343 H 0.94536 0.04701 0.19342 0.0
H344 H 0.99605 0.01578 0.32137 0.0
H345 H 0.98441 0.02136 0.24532 0.0
H346 H 0.96294 0.21617 0.3687 0.0
H347 H 0.94671 0.22046 0.29518 0.0
H348 H 0.96126 0.17603 0.4425 0.0
H349 H 0.97871 0.12875 0.46608 0.0
C350 C 0.46151 0.41357 0.75667 0.0
C351 C 0.44424 0.37529 0.7683 0.0
C352 C 0.44623 0.38957 0.8774 0.0
C353 C 0.46645 0.42549 0.86598 0.0
N354 N 0.49746 0.46909 0.79622 0.0
N355 N 0.42462 0.32326 0.83953 0.0
C356 C 0.47541 0.43666 0.80602 0.0
C357 C 0.43773 0.36229 0.82868 0.0
N358 N 0.46338 0.42874 0.69868 0.0
N359 N 0.43487 0.3818 0.93462 0.0
H360 H 0.41837 0.30226 0.80496 0.0
H361 H 0.42262 0.31026 0.88274 0.0
H362 H 0.44109 0.40076 0.97159 0.0
H363 H 0.41719 0.35859 0.94463 0.0
H364 H 0.4724 0.45858 0.68811 0.0
H365 H 0.45307 0.41309 0.66127 0.0
H366 H 0.50787 0.47568 0.75415 0.0
H367 H 0.50739 0.48765 0.83104 0.0
C368 C 0.53752 0.64698 0.20393 0.0
C369 C 0.56236 0.63177 0.24527 0.0
C370 C 0.56124 0.56408 0.19404 0.0
C371 C 0.53923 0.58071 0.14879 0.0
N372 N 0.51441 0.64215 0.10215 0.0
N373 N 0.60485 0.58002 0.26814 0.0
C374 C 0.52968 0.62345 0.15109 0.0
C375 C 0.5765 0.59163 0.2366 0.0
N376 N 0.52033 0.68278 0.21606 0.0
N377 N 0.56619 0.52186 0.19898 0.0
H378 H 0.61757 0.60004 0.29813 0.0
H379 H 0.6177 0.55242 0.25934 0.0
H380 H 0.55373 0.49994 0.17166 0.0
H381 H 0.57965 0.50835 0.23492 0.0
H382 H 0.49972 0.69267 0.19001 0.0
H383 H 0.5244 0.7003 0.25528 0.0
H384 H 0.50966 0.67419 0.10006 0.0
H385 H 0.51014 0.6268 0.06108 0.0
C386 C 0.96654 0.10051 0.74613 0.0
C387 C 0.94486 0.13465 0.73311 0.0
C388 C 0.94462 0.11651 0.62522 0.0
C389 C 0.96887 0.08504 0.63763 0.0
N390 N 0.00739 0.05168 0.70852 0.0
N391 N 0.91845 0.18033 0.65936 0.0
C392 C 0.9814 0.07867 0.6976 0.0
C393 C 0.93532 0.14413 0.67232 0.0
N394 N 0.9715 0.08742 0.80474 0.0
N395 N 0.93022 0.11984 0.56869 0.0
H396 H 0.91173 0.20168 0.69261 0.0
H397 H 0.9139 0.19113 0.61537 0.0
H398 H 0.93697 0.10107 0.53242 0.0
H399 H 0.90976 0.13908 0.55887 0.0
H400 H 0.98398 0.05988 0.81636 0.0
H401 H 0.96033 0.10172 0.84166 0.0
H402 H 0.01999 0.04956 0.75022 0.0
H403 H 0.01818 0.03354 0.67497 0.0
C404 C 0.45578 0.40392 0.24692 0.0
C405 C 0.4549 0.36001 0.23726 0.0
C406 C 0.47416 0.37021 0.13304 0.0
C407 C 0.47625 0.41399 0.14367 0.0
N408 N 0.47659 0.4717 0.21387 0.0
N409 N 0.46771 0.3003 0.17576 0.0
C410 C 0.46917 0.43064 0.20154 0.0
C411 C 0.4655 0.3428 0.18163 0.0
N412 N 0.44304 0.4202 0.29896 0.0
N413 N 0.47919 0.35509 0.07602 0.0
H414 H 0.46077 0.27944 0.21005 0.0
H415 H 0.47858 0.28571 0.13889 0.0
H416 H 0.48639 0.37408 0.03978 0.0
H417 H 0.47424 0.32424 0.06346 0.0
H418 H 0.43914 0.45207 0.30534 0.0
H419 H 0.434 0.40171 0.3344 0.0
H420 H 0.47556 0.48455 0.25708 0.0
H421 H 0.48691 0.4922 0.18205 0.0
C422 C 0.02933 0.89388 0.74345 0.0
C423 C 0.05876 0.87011 0.73319 0.0
C424 C 0.05551 0.88797 0.62543 0.0
C425 C 0.03032 0.91766 0.63783 0.0
N426 N 0.99309 0.95012 0.70883 0.0
N427 N 0.10203 0.84732 0.66532 0.0
C428 C 0.01685 0.9207 0.6968 0.0
C429 C 0.07238 0.86763 0.6743 0.0
N430 N 0.01296 0.89004 0.79732 0.0
N431 N 0.06211 0.87787 0.56679 0.0
H432 H 0.11529 0.83207 0.70004 0.0
H433 H 0.11482 0.8485 0.62444 0.0
H434 H 0.04786 0.88985 0.53065 0.0
H435 H 0.07841 0.85402 0.55471 0.0
H436 H 0.98962 0.90339 0.80537 0.0
H437 H 0.02119 0.87018 0.83215 0.0
H438 H 0.9855 0.9574 0.75249 0.0
H439 H 0.98237 0.9693 0.67548 0.0
loop_
_geom_bond_atom_site_label_1
_geom_bond_atom_site_label_2
_geom_bond_distance
_geom_bond_site_symmetry_2
_ccdc_geom_bond_type
C0 C1 1.386 . S
C0 C2 1.397 . S
C0 H24 0.931 . S
C1 C0 1.386 . S
C1 C5 1.397 . S
C2 C0 1.397 . S
C2 C3 1.384 . S
C2 H25 0.930 . S
C3 C2 1.384 . S
C3 C4 1.377 . S
C3 C6 1.481 . S
C4 C3 1.377 . S
C4 C5 1.389 . S
C4 H26 0.929 . S
C5 C1 1.397 . S
C5 C4 1.389 . S
C5 H27 0.931 . S
C6 C3 1.481 . S
C6 C7 1.387 . S
C6 C11 1.390 1_556 S
C7 C6 1.387 . S
C7 C8 1.401 1_556 S
C7 H28 0.930 . S
C8 C7 1.401 1_554 S
C8 C9 1.376 . S
C8 C17 1.511 . S
C9 C8 1.376 . S
C9 C10 1.392 . S
C9 H30 0.931 . S
C10 C9 1.392 . S
C10 C11 1.361 . S
C10 C12 1.500 . S
C11 C6 1.390 1_554 S
C11 C10 1.361 . S
C11 H29 0.931 . S
C12 C10 1.500 . S
C12 C13 1.371 . S
C12 C14 1.365 . S
C13 C12 1.371 . S
C13 C23 1.386 . S
C13 H31 0.931 . S
C14 C12 1.365 . S
C14 C15 1.409 . S
C14 H32 0.929 . S
C15 C14 1.409 . S
C15 C16 1.380 . S
C15 H33 0.930 . S
C16 C15 1.380 . S
C16 C23 1.357 . S
C17 C8 1.511 . S
C17 C18 1.341 1_554 S
C17 C19 1.371 . S
C18 C17 1.341 1_556 S
C18 C22 1.394 . S
C18 H34 0.930 . S
C19 C17 1.371 . S
C19 C20 1.392 . S
C19 H35 0.931 . S
C20 C19 1.392 . S
C20 C21 1.331 . S
C20 H38 0.932 . S
C21 C20 1.331 . S
C21 C22 1.336 1_554 S
C22 C18 1.394 . S
C22 C21 1.336 1_556 S
C22 H37 0.929 . S
C23 C13 1.386 . S
C23 C16 1.357 . S
C23 H36 0.928 . S
H24 C0 0.931 . S
H25 C2 0.930 . S
H26 C4 0.929 . S
H27 C5 0.931 . S
H28 C7 0.930 . S
H29 C11 0.931 . S
H30 C9 0.931 . S
H31 C13 0.931 . S
H32 C14 0.929 . S
H33 C15 0.930 . S
H34 C18 0.930 . S
H35 C19 0.931 . S
H36 C23 0.928 . S
H37 C22 0.929 . S
H38 C20 0.932 . S
C39 C40 1.386 . S
C39 C41 1.397 . S
C39 H63 0.931 . S
C40 C39 1.386 . S
C40 C44 1.397 . S
C41 C39 1.397 . S
C41 C42 1.384 . S
C41 H64 0.930 . S
C42 C41 1.384 . S
C42 C43 1.377 . S
C42 C45 1.481 . S
C43 C42 1.377 . S
C43 C44 1.389 . S
C43 H65 0.929 . S
C44 C40 1.397 . S
C44 C43 1.389 . S
C44 H66 0.931 . S
C45 C42 1.481 . S
C45 C46 1.387 . S
C45 C50 1.390 . S
C46 C45 1.387 . S
C46 C47 1.401 . S
C46 H67 0.930 . S
C47 C46 1.401 . S
C47 C48 1.376 . S
C47 C56 1.511 . S
C48 C47 1.376 . S
C48 C49 1.392 . S
C48 H69 0.931 . S
C49 C48 1.392 . S
C49 C50 1.361 . S
C49 C51 1.500 . S
C50 C45 1.390 . S
C50 C49 1.361 . S
C50 H68 0.931 . S
C51 C49 1.500 . S
C51 C52 1.371 . S
C51 C53 1.365 . S
C52 C51 1.371 . S
C52 C62 1.386 . S
C52 H70 0.931 . S
C53 C51 1.365 . S
C53 C54 1.409 . S
C53 H71 0.929 . S
C54 C53 1.409 . S
C54 C55 1.380 . S
C54 H72 0.930 . S
C55 C54 1.380 . S
C55 C62 1.357 . S
C56 C47 1.511 . S
C56 C57 1.341 . S
C56 C58 1.371 . S
C57 C56 1.341 . S
C57 C61 1.394 . S
C57 H73 0.930 . S
C58 C56 1.371 . S
C58 C59 1.392 . S
C58 H74 0.931 . S
C59 C58 1.392 . S
C59 C60 1.331 . S
C59 H77 0.932 . S
C60 C59 1.331 . S
C60 C61 1.336 . S
C61 C57 1.394 . S
C61 C60 1.336 . S
C61 H76 0.929 . S
C62 C52 1.386 . S
C62 C55 1.357 . S
C62 H75 0.928 . S
H63 C39 0.931 . S
H64 C41 0.930 . S
H65 C43 0.929 . S
H66 C44 0.931 . S
H67 C46 0.930 . S
H68 C50 0.931 . S
H69 C48 0.931 . S
H70 C52 0.931 . S
H71 C53 0.929 . S
H72 C54 0.930 . S
H73 C57 0.930 . S
H74 C58 0.931 . S
H75 C62 0.928 . S
H76 C61 0.929 . S
H77 C59 0.932 . S
C78 C79 1.386 . S
C78 C80 1.397 . S
C78 H102 0.931 . S
C79 C78 1.386 . S
C79 C83 1.397 . S
C80 C78 1.397 . S
C80 C81 1.384 . S
C80 H103 0.930 . S
C81 C80 1.384 . S
C81 C82 1.377 . S
C81 C84 1.481 . S
C82 C81 1.377 . S
C82 C83 1.389 . S
C82 H104 0.929 . S
C83 C79 1.397 . S
C83 C82 1.389 . S
C83 H105 0.931 . S
C84 C81 1.481 . S
C84 C85 1.387 . S
C84 C89 1.390 . S
C85 C84 1.387 . S
C85 C86 1.401 . S
C85 H106 0.930 . S
C86 C85 1.401 . S
C86 C87 1.376 1_554 S
C86 C95 1.511 . S
C87 C86 1.376 1_556 S
C87 C88 1.392 . S
C87 H108 0.931 . S
C88 C87 1.392 . S
C88 C89 1.361 1_556 S
C88 C90 1.500 . S
C89 C84 1.390 . S
C89 C88 1.361 1_554 S
C89 H107 0.931 . S
C90 C88 1.500 . S
C90 C91 1.371 . S
C90 C92 1.365 . S
C91 C90 1.371 . S
C91 C101 1.386 . S
C91 H109 0.931 . S
C92 C90 1.365 . S
C92 C93 1.409 . S
C92 H110 0.929 . S
C93 C92 1.409 . S
C93 C94 1.380 . S
C93 H111 0.930 . S
C94 C93 1.380 . S
C94 C101 1.357 . S
C95 C86 1.511 . S
C95 C96 1.341 . S
C95 C97 1.371 1_554 S
C96 C95 1.341 . S
C96 C100 1.394 . S
C96 H112 0.930 . S
C97 C95 1.371 1_556 S
C97 C98 1.392 . S
C97 H113 0.931 . S
C98 C97 1.392 . S
C98 C99 1.331 1_556 S
C98 H116 0.932 . S
C99 C98 1.331 1_554 S
C99 C100 1.336 . S
C100 C96 1.394 . S
C100 C99 1.336 . S
C100 H115 0.929 . S
C101 C91 1.386 . S
C101 C94 1.357 . S
C101 H114 0.928 . S
H102 C78 0.931 . S
H103 C80 0.930 . S
H104 C82 0.929 . S
H105 C83 0.931 . S
H106 C85 0.930 . S
H107 C89 0.931 . S
H108 C87 0.931 . S
H109 C91 0.931 . S
H110 C92 0.929 . S
H111 C93 0.930 . S
H112 C96 0.930 . S
H113 C97 0.931 . S
H114 C101 0.928 . S
H115 C100 0.929 . S
H116 C98 0.932 . S
C117 C118 1.386 . S
C117 C119 1.397 . S
C117 H141 0.931 . S
C118 C117 1.386 . S
C118 C122 1.397 . S
C119 C117 1.397 . S
C119 C120 1.384 . S
C119 H142 0.930 . S
C120 C119 1.384 . S
C120 C121 1.377 . S
C120 C123 1.481 . S
C121 C120 1.377 . S
C121 C122 1.389 . S
C121 H143 0.929 . S
C122 C118 1.397 . S
C122 C121 1.389 . S
C122 H144 0.931 . S
C123 C120 1.481 . S
C123 C124 1.387 . S
C123 C128 1.390 . S
C124 C123 1.387 . S
C124 C125 1.401 . S
C124 H145 0.930 . S
C125 C124 1.401 . S
C125 C126 1.376 . S
C125 C134 1.511 . S
C126 C125 1.376 . S
C126 C127 1.392 . S
C126 H147 0.931 . S
C127 C126 1.392 . S
C127 C128 1.361 . S
C127 C129 1.500 . S
C128 C123 1.390 . S
C128 C127 1.361 . S
C128 H146 0.931 . S
C129 C127 1.500 . S
C129 C130 1.371 . S
C129 C131 1.365 . S
C130 C129 1.371 . S
C130 C140 1.386 . S
C130 H148 0.931 . S
C131 C129 1.365 . S
C131 C132 1.409 . S
C131 H149 0.929 . S
C132 C131 1.409 . S
C132 C133 1.380 . S
C132 H150 0.930 . S
C133 C132 1.380 . S
C133 C140 1.357 . S
C134 C125 1.511 . S
C134 C135 1.341 . S
C134 C136 1.371 . S
C135 C134 1.341 . S
C135 C139 1.394 . S
C135 H151 0.930 . S
C136 C134 1.371 . S
C136 C137 1.392 . S
C136 H152 0.931 . S
C137 C136 1.392 . S
C137 C138 1.331 . S
C137 H155 0.932 . S
C138 C137 1.331 . S
C138 C139 1.336 . S
C139 C135 1.394 . S
C139 C138 1.336 . S
C139 H154 0.929 . S
C140 C130 1.386 . S
C140 C133 1.357 . S
C140 H153 0.928 . S
H141 C117 0.931 . S
H142 C119 0.930 . S
H143 C121 0.929 . S
H144 C122 0.931 . S
H145 C124 0.930 . S
H146 C128 0.931 . S
H147 C126 0.931 . S
H148 C130 0.931 . S
H149 C131 0.929 . S
H150 C132 0.930 . S
H151 C135 0.930 . S
H152 C136 0.931 . S
H153 C140 0.928 . S
H154 C139 0.929 . S
H155 C137 0.932 . S
C156 O172 1.251 . S
C156 O174 1.254 1_455 S
N157 C158 1.333 . S
N157 C162 1.307 . S
N157 Zn163 2.020 . S
C158 N157 1.333 . S
C158 C159 1.379 . S
C158 H176 0.952 . S
C159 C158 1.379 . S
C159 C160 1.390 . S
C159 H186 0.949 . S
C160 C159 1.390 . S
C160 C161 1.357 . S
C161 C160 1.357 . S
C161 C162 1.370 . S
C161 H187 0.950 . S
C162 N157 1.307 . S
C162 C161 1.370 . S
C162 H180 0.948 . S
Zn163 N157 2.020 . S
Zn163 O172 2.039 1_545 S
Zn163 O178 2.034 1_545 S
Zn163 O182 2.025 . S
Zn163 O184 2.024 . S
C164 O183 1.246 . S
C164 O184 1.249 1_655 S
N165 C166 1.307 . S
N165 C167 1.333 . S
N165 Zn171 2.020 . S
C166 N165 1.307 . S
C166 C170 1.370 . S
C166 H177 0.948 . S
C167 N165 1.333 . S
C167 C168 1.379 . S
C167 H175 0.951 . S
C168 C167 1.379 . S
C168 C169 1.390 . S
C168 H188 0.949 . S
C169 C168 1.390 . S
C169 C170 1.357 . S
C170 C166 1.370 . S
C170 C169 1.357 . S
C170 H189 0.950 . S
Zn171 N165 2.020 . S
Zn171 O174 2.025 . S
Zn171 O179 2.024 . S
Zn171 O181 2.039 1_565 S
Zn171 O183 2.034 1_565 S
O172 C156 1.251 . S
O172 Zn163 2.039 1_565 S
C173 O178 1.246 . S
C173 O179 1.249 1_455 S
O174 C156 1.254 1_655 S
O174 Zn171 2.025 . S
H175 C167 0.951 . S
H176 C158 0.952 . S
H177 C166 0.948 . S
O178 Zn163 2.034 1_565 S
O178 C173 1.246 . S
O179 Zn171 2.024 . S
O179 C173 1.249 1_655 S
H180 C162 0.948 . S
O181 Zn171 2.039 1_545 S
O181 C185 1.251 . S
O182 Zn163 2.025 . S
O182 C185 1.254 1_455 S
O183 C164 1.246 . S
O183 Zn171 2.034 1_545 S
O184 Zn163 2.024 . S
O184 C164 1.249 1_455 S
C185 O181 1.251 . S
C185 O182 1.254 1_655 S
H186 C159 0.949 . S
H187 C161 0.950 . S
H188 C168 0.949 . S
H189 C170 0.950 . S
C190 O206 1.251 . S
C190 O208 1.254 . S
N191 C192 1.333 1_554 S
N191 C196 1.307 . S
N191 Zn197 2.020 . S
C192 N191 1.333 1_556 S
C192 C193 1.379 . S
C192 H210 0.952 . S
C193 C192 1.379 . S
C193 C194 1.390 1_556 S
C193 H220 0.949 . S
C194 C193 1.390 1_554 S
C194 C195 1.357 . S
C195 C194 1.357 . S
C195 C196 1.370 . S
C195 H221 0.950 . S
C196 N191 1.307 . S
C196 C195 1.370 . S
C196 H214 0.948 . S
Zn197 N191 2.020 . S
Zn197 O206 2.039 1_554 S
Zn197 O212 2.034 . S
Zn197 O216 2.025 . S
Zn197 O218 2.024 1_554 S
C198 O217 1.246 . S
C198 O218 1.249 . S
N199 C200 1.307 1_554 S
N199 C201 1.333 . S
N199 Zn205 2.020 . S
C200 N199 1.307 1_556 S
C200 C204 1.370 . S
C200 H211 0.948 . S
C201 N199 1.333 . S
C201 C202 1.379 . S
C201 H209 0.952 . S
C202 C201 1.379 . S
C202 C203 1.390 . S
C202 H222 0.949 . S
C203 C202 1.390 . S
C203 C204 1.357 1_554 S
C204 C200 1.370 . S
C204 C203 1.357 1_556 S
C204 H223 0.950 . S
Zn205 N199 2.020 . S
Zn205 O208 2.025 1_554 S
Zn205 O213 2.024 . S
Zn205 O215 2.039 . S
Zn205 O217 2.034 1_554 S
O206 C190 1.251 . S
O206 Zn197 2.039 1_556 S
C207 O212 1.246 . S
C207 O213 1.249 . S
O208 C190 1.254 . S
O208 Zn205 2.025 1_556 S
H209 C201 0.952 . S
H210 C192 0.952 . S
H211 C200 0.948 . S
O212 Zn197 2.034 . S
O212 C207 1.246 . S
O213 Zn205 2.024 . S
O213 C207 1.249 . S
H214 C196 0.948 . S
O215 Zn205 2.039 . S
O215 C219 1.251 . S
O216 Zn197 2.025 . S
O216 C219 1.254 . S
O217 C198 1.246 . S
O217 Zn205 2.034 1_556 S
O218 Zn197 2.024 1_556 S
O218 C198 1.249 . S
C219 O215 1.251 . S
C219 O216 1.254 . S
H220 C193 0.949 . S
H221 C195 0.950 . S
H222 C202 0.949 . S
H223 C204 0.950 . S
C224 C225 1.363 . S
C224 C230 1.379 . S
C224 N232 1.356 . S
C225 C224 1.363 . S
C225 C231 1.363 . S
C226 C227 1.363 . S
C226 C231 1.379 . S
C226 N233 1.356 . S
C227 C226 1.363 . S
C227 C230 1.363 . S
N228 C230 1.356 . S
N228 H240 0.984 . S
N228 H241 0.985 . S
N229 C231 1.356 . S
N229 H234 0.984 . S
N229 H235 0.985 . S
C230 C224 1.379 . S
C230 C227 1.363 . S
C230 N228 1.356 . S
C231 C225 1.363 . S
C231 C226 1.379 . S
C231 N229 1.356 . S
N232 C224 1.356 . S
N232 H238 0.984 . S
N232 H239 0.984 . S
N233 C226 1.356 . S
N233 H236 0.984 . S
N233 H237 0.985 . S
H234 N229 0.984 . S
H235 N229 0.985 . S
H236 N233 0.984 . S
H237 N233 0.985 . S
H238 N232 0.984 . S
H239 N232 0.984 . S
H240 N228 0.984 . S
H241 N228 0.985 . S
C242 C243 1.363 . S
C242 C248 1.379 . S
C242 N250 1.356 . S
C243 C242 1.363 . S
C243 C249 1.363 1_554 S
C244 C245 1.363 1_556 S
C244 C249 1.379 . S
C244 N251 1.356 . S
C245 C244 1.363 1_554 S
C245 C248 1.363 . S
N246 C248 1.356 . S
N246 H258 0.984 . S
N246 H259 0.985 . S
N247 C249 1.356 . S
N247 H252 0.984 . S
N247 H253 0.985 . S
C248 C242 1.379 . S
C248 C245 1.363 . S
C248 N246 1.356 . S
C249 C243 1.363 1_556 S
C249 C244 1.379 . S
C249 N247 1.356 . S
N250 C242 1.356 . S
N250 H256 0.984 . S
N250 H257 0.984 . S
N251 C244 1.356 . S
N251 H254 0.984 . S
N251 H255 0.985 . S
H252 N247 0.984 . S
H253 N247 0.985 . S
H254 N251 0.984 . S
H255 N251 0.985 . S
H256 N250 0.984 . S
H257 N250 0.984 . S
H258 N246 0.984 . S
H259 N246 0.985 . S
C260 C261 1.363 . S
C260 C266 1.379 . S
C260 N268 1.356 . S
C261 C260 1.363 . S
C261 C267 1.363 . S
C262 C263 1.363 . S
C262 C267 1.379 . S
C262 N269 1.356 . S
C263 C262 1.363 . S
C263 C266 1.363 . S
N264 C266 1.356 . S
N264 H276 0.984 . S
N264 H277 0.985 . S
N265 C267 1.356 . S
N265 H270 0.984 . S
N265 H271 0.985 . S
C266 C260 1.379 . S
C266 C263 1.363 . S
C266 N264 1.356 . S
C267 C261 1.363 . S
C267 C262 1.379 . S
C267 N265 1.356 . S
N268 C260 1.356 . S
N268 H274 0.984 . S
N268 H275 0.984 . S
N269 C262 1.356 . S
N269 H272 0.984 . S
N269 H273 0.985 . S
H270 N265 0.984 . S
H271 N265 0.985 . S
H272 N269 0.984 . S
H273 N269 0.985 . S
H274 N268 0.984 . S
H275 N268 0.984 . S
H276 N264 0.984 . S
H277 N264 0.985 . S
C278 C279 1.363 . S
C278 C284 1.379 . S
C278 N286 1.356 . S
C279 C278 1.363 . S
C279 C285 1.363 1_554 S
C280 C281 1.363 1_556 S
C280 C285 1.379 . S
C280 N287 1.356 . S
C281 C280 1.363 1_554 S
C281 C284 1.363 . S
N282 C284 1.356 . S
N282 H294 0.984 . S
N282 H295 0.985 . S
N283 C285 1.356 . S
N283 H288 0.984 . S
N283 H289 0.985 . S
C284 C278 1.379 . S
C284 C281 1.363 . S
C284 N282 1.356 . S
C285 C279 1.363 1_556 S
C285 C280 1.379 . S
C285 N283 1.356 . S
N286 C278 1.356 . S
N286 H292 0.984 . S
N286 H293 0.984 . S
N287 C280 1.356 . S
N287 H290 0.984 . S
N287 H291 0.985 . S
H288 N283 0.984 . S
H289 N283 0.985 . S
H290 N287 0.984 . S
H291 N287 0.985 . S
H292 N286 0.984 . S
H293 N286 0.984 . S
H294 N282 0.984 . S
H295 N282 0.985 . S
C296 C297 1.363 . S
C296 C302 1.379 . S
C296 N304 1.356 1_455 S
C297 C296 1.363 . S
C297 C303 1.363 . S
C298 C299 1.363 . S
C298 C303 1.379 . S
C298 N305 1.356 . S
C299 C298 1.363 . S
C299 C302 1.363 . S
N300 C302 1.356 1_655 S
N300 H312 0.984 . S
N300 H313 0.985 . S
N301 C303 1.356 . S
N301 H306 0.984 . S
N301 H307 0.985 . S
C302 C296 1.379 . S
C302 C299 1.363 . S
C302 N300 1.356 1_455 S
C303 C297 1.363 . S
C303 C298 1.379 . S
C303 N301 1.356 . S
N304 C296 1.356 1_655 S
N304 H310 0.984 . S
N304 H311 0.984 1_655 S
N305 C298 1.356 . S
N305 H308 0.984 . S
N305 H309 0.985 . S
H306 N301 0.984 . S
H307 N301 0.985 . S
H308 N305 0.984 . S
H309 N305 0.985 . S
H310 N304 0.984 . S
H311 N304 0.984 1_455 S
H312 N300 0.984 . S
H313 N300 0.985 . S
C314 C315 1.363 . S
C314 C320 1.379 . S
C314 N322 1.356 . S
C315 C314 1.363 . S
C315 C321 1.363 . S
C316 C317 1.363 . S
C316 C321 1.379 . S
C316 N323 1.356 . S
C317 C316 1.363 . S
C317 C320 1.363 . S
N318 C320 1.356 . S
N318 H330 0.984 . S
N318 H331 0.985 . S
N319 C321 1.356 . S
N319 H324 0.984 . S
N319 H325 0.985 . S
C320 C314 1.379 . S
C320 C317 1.363 . S
C320 N318 1.356 . S
C321 C315 1.363 . S
C321 C316 1.379 . S
C321 N319 1.356 . S
N322 C314 1.356 . S
N322 H328 0.984 . S
N322 H329 0.984 . S
N323 C316 1.356 . S
N323 H326 0.984 . S
N323 H327 0.985 . S
H324 N319 0.984 . S
H325 N319 0.985 . S
H326 N323 0.984 . S
H327 N323 0.985 . S
H328 N322 0.984 . S
H329 N322 0.984 . S
H330 N318 0.984 . S
H331 N318 0.985 . S
C332 C333 1.363 . S
C332 C338 1.379 . S
C332 N340 1.356 . S
C333 C332 1.363 . S
C333 C339 1.363 . S
C334 C335 1.363 . S
C334 C339 1.379 . S
C334 N341 1.356 . S
C335 C334 1.363 . S
C335 C338 1.363 . S
N336 C338 1.356 1_455 S
N336 H348 0.984 . S
N336 H349 0.985 . S
N337 C339 1.356 . S
N337 H342 0.984 . S
N337 H343 0.985 . S
C338 C332 1.379 . S
C338 C335 1.363 . S
C338 N336 1.356 1_655 S
C339 C333 1.363 . S
C339 C334 1.379 . S
C339 N337 1.356 . S
N340 C332 1.356 . S
N340 H346 0.984 1_655 S
N340 H347 0.984 . S
N341 C334 1.356 . S
N341 H344 0.984 . S
N341 H345 0.985 . S
H342 N337 0.984 . S
H343 N337 0.985 . S
H344 N341 0.984 . S
H345 N341 0.985 . S
H346 N340 0.984 1_455 S
H347 N340 0.984 . S
H348 N336 0.984 . S
H349 N336 0.985 . S
C350 C351 1.363 . S
C350 C356 1.379 . S
C350 N358 1.356 . S
C351 C350 1.363 . S
C351 C357 1.363 . S
C352 C353 1.363 . S
C352 C357 1.379 . S
C352 N359 1.356 . S
C353 C352 1.363 . S
C353 C356 1.363 . S
N354 C356 1.356 . S
N354 H366 0.984 . S
N354 H367 0.985 . S
N355 C357 1.356 . S
N355 H360 0.984 . S
N355 H361 0.985 . S
C356 C350 1.379 . S
C356 C353 1.363 . S
C356 N354 1.356 . S
C357 C351 1.363 . S
C357 C352 1.379 . S
C357 N355 1.356 . S
N358 C350 1.356 . S
N358 H364 0.984 . S
N358 H365 0.984 . S
N359 C352 1.356 . S
N359 H362 0.984 . S
N359 H363 0.985 . S
H360 N355 0.984 . S
H361 N355 0.985 . S
H362 N359 0.984 . S
H363 N359 0.985 . S
H364 N358 0.984 . S
H365 N358 0.984 . S
H366 N354 0.984 . S
H367 N354 0.985 . S
C368 C369 1.363 . S
C368 C374 1.379 . S
C368 N376 1.356 . S
C369 C368 1.363 . S
C369 C375 1.363 . S
C370 C371 1.363 . S
C370 C375 1.379 . S
C370 N377 1.356 . S
C371 C370 1.363 . S
C371 C374 1.363 . S
N372 C374 1.356 . S
N372 H384 0.984 . S
N372 H385 0.985 . S
N373 C375 1.356 . S
N373 H378 0.984 . S
N373 H379 0.985 . S
C374 C368 1.379 . S
C374 C371 1.363 . S
C374 N372 1.356 . S
C375 C369 1.363 . S
C375 C370 1.379 . S
C375 N373 1.356 . S
N376 C368 1.356 . S
N376 H382 0.984 . S
N376 H383 0.984 . S
N377 C370 1.356 . S
N377 H380 0.984 . S
N377 H381 0.985 . S
H378 N373 0.984 . S
H379 N373 0.985 . S
H380 N377 0.984 . S
H381 N377 0.985 . S
H382 N376 0.984 . S
H383 N376 0.984 . S
H384 N372 0.984 . S
H385 N372 0.985 . S
C386 C387 1.363 . S
C386 C392 1.379 . S
C386 N394 1.356 . S
C387 C386 1.363 . S
C387 C393 1.363 . S
C388 C389 1.363 . S
C388 C393 1.379 . S
C388 N395 1.356 . S
C389 C388 1.363 . S
C389 C392 1.363 . S
N390 C392 1.359 . S
N390 H402 0.981 1_655 S
N390 H403 0.985 . S
N391 C393 1.356 . S
N391 H396 0.984 . S
N391 H397 0.985 . S
C392 C386 1.379 . S
C392 C389 1.363 . S
C392 N390 1.359 . S
C393 C387 1.363 . S
C393 C388 1.379 . S
C393 N391 1.356 . S
N394 C386 1.356 . S
N394 H400 0.973 1_655 S
N394 H401 0.984 . S
N395 C388 1.356 . S
N395 H398 0.984 . S
N395 H399 0.985 . S
H396 N391 0.984 . S
H397 N391 0.985 . S
H398 N395 0.984 . S
H399 N395 0.985 . S
H400 N394 0.973 1_455 S
H401 N394 0.984 . S
H402 N390 0.981 1_455 S
H403 N390 0.985 . S
C404 C405 1.363 . S
C404 C410 1.379 . S
C404 N412 1.356 . S
C405 C404 1.363 . S
C405 C411 1.363 . S
C406 C407 1.363 . S
C406 C411 1.379 . S
C406 N413 1.356 . S
C407 C406 1.363 . S
C407 C410 1.363 . S
N408 C410 1.356 . S
N408 H420 0.984 . S
N408 H421 0.985 . S
N409 C411 1.356 . S
N409 H414 0.984 . S
N409 H415 0.985 . S
C410 C404 1.379 . S
C410 C407 1.363 . S
C410 N408 1.356 . S
C411 C405 1.363 . S
C411 C406 1.379 . S
C411 N409 1.356 . S
N412 C404 1.356 . S
N412 H418 0.984 . S
N412 H419 0.984 . S
N413 C406 1.356 . S
N413 H416 0.984 . S
N413 H417 0.985 . S
H414 N409 0.984 . S
H415 N409 0.985 . S
H416 N413 0.984 . S
H417 N413 0.985 . S
H418 N412 0.984 . S
H419 N412 0.984 . S
H420 N408 0.984 . S
H421 N408 0.985 . S
C422 C423 1.363 . S
C422 C428 1.379 . S
C422 N430 1.356 . S
C423 C422 1.363 . S
C423 C429 1.363 . S
C424 C425 1.363 . S
C424 C429 1.379 . S
C424 N431 1.356 . S
C425 C424 1.363 . S
C425 C428 1.363 . S
N426 C428 1.356 1_655 S
N426 H438 0.984 . S
N426 H439 0.984 1_655 S
N427 C429 1.356 . S
N427 H432 0.984 . S
N427 H433 0.985 . S
C428 C422 1.379 . S
C428 C425 1.363 . S
C428 N426 1.356 1_455 S
C429 C423 1.363 . S
C429 C424 1.379 . S
C429 N427 1.356 . S
N430 C422 1.356 . S
N430 H436 0.984 1_455 S
N430 H437 0.984 . S
N431 C424 1.356 . S
N431 H434 0.984 . S
N431 H435 0.985 . S
H432 N427 0.984 . S
H433 N427 0.985 . S
H434 N431 0.984 . S
H435 N431 0.985 . S
H436 N430 0.984 1_655 S
H437 N430 0.984 . S
H438 N426 0.984 . S
H439 N426 0.984 1_455 S
C227 C160 1.680 . S
C225 C138 1.627 . S
C243 C21 1.584 . S
C245 C203 1.594 . S
C261 C60 1.644 . S
C263 C169 1.679 . S
C279 C99 1.571 . S
C281 C194 1.594 . S
C299 C156 1.683 . S
C297 C16 1.634 . S
C317 C198 1.786 . S
C315 C40 1.728 . S
C333 C79 1.626 . S
C335 C164 1.664 . S
C351 C133 1.717 . S
C353 C190 1.780 . S
C371 C219 1.780 . S
C369 C55 1.711 . S
C389 C185 1.683 . S
C387 C94 1.639 . S
C407 C207 1.786 . S
C405 C118 1.718 . S
C423 C1 1.634 . S
C425 C173 1.664 . S
