# Generated by pormake.
# Topology rtl, (3,6)-cn, num edge types: 1
# Building blocks:
#     Node 0, Type 0, BuildingBlock: VETTIZ_charged_linker_0, # of connection points: 3
#     Node 1, Type 0, BuildingBlock: VETTIZ_charged_linker_0, # of connection points: 3
#     Node 2, Type 0, BuildingBlock: VETTIZ_charged_linker_0, # of connection points: 3
#     Node 3, Type 0, BuildingBlock: VETTIZ_charged_linker_0, # of connection points: 3
#     Node 4, Type 1, BuildingBlock: FUNLAD_clean_sbu_0, # of connection points: 6
#     Node 5, Type 1, BuildingBlock: FUNLAD_clean_sbu_0, # of connection points: 6
#     Edge 6, Type (0, 1), BuildingBlock: CIFDUS_clean_linker_0, # of connection points: 2
#     Edge 7, Type (0, 1), BuildingBlock: CIFDUS_clean_linker_0, # of connection points: 2
#     Edge 8, Type (0, 1), BuildingBlock: CIFDUS_clean_linker_0, # of connection points: 2
#     Edge 9, Type (0, 1), BuildingBlock: CIFDUS_clean_linker_0, # of connection points: 2
#     Edge 10, Type (0, 1), BuildingBlock: CIFDUS_clean_linker_0, # of connection points: 2
#     Edge 11, Type (0, 1), BuildingBlock: CIFDUS_clean_linker_0, # of connection points: 2
#     Edge 12, Type (0, 1), BuildingBlock: CIFDUS_clean_linker_0, # of connection points: 2
#     Edge 13, Type (0, 1), BuildingBlock: CIFDUS_clean_linker_0, # of connection points: 2
#     Edge 14, Type (0, 1), BuildingBlock: CIFDUS_clean_linker_0, # of connection points: 2
#     Edge 15, Type (0, 1), BuildingBlock: CIFDUS_clean_linker_0, # of connection points: 2
#     Edge 16, Type (0, 1), BuildingBlock: CIFDUS_clean_linker_0, # of connection points: 2
#     Edge 17, Type (0, 1), BuildingBlock: CIFDUS_clean_linker_0, # of connection points: 2
# Relax obj value: 0.028
# Max RMSD: 0.101
# Mean RMSD: 0.085
data_MOF--net-rtl--node1-FUNLAD_clean_sbu_0--node2-VETTIZ_charged_linker_0--edge1-CIFDUS_clean_linker_0
_symmetry_space_group_name_H-M    P1
_symmetry_Int_Tables_number       1
_symmetry_cell_setting            triclinic
loop_
_symmetry_equiv_pos_as_xyz
'x, y, z'
_cell_length_a     44.436451
_cell_length_b     35.739529
_cell_length_c     25.40808
_cell_angle_alpha  89.849065
_cell_angle_beta   90.582259
_cell_angle_gamma 90.391767
loop_
_atom_site_label
_atom_site_type_symbol
_atom_site_fract_x
_atom_site_fract_y
_atom_site_fract_z
_atom_type_partial_charge
C0 C 0.11204 0.80871 0.84488 0.0
C1 C 0.08708 0.83254 0.84055 0.0
C2 C 0.06896 0.83833 0.88493 0.0
C3 C 0.10182 0.79916 0.93762 0.0
C4 C 0.11888 0.79224 0.89361 0.0
C5 C 0.14482 0.7666 0.90545 0.0
H6 H 0.23119 0.67572 0.0848 0.0
C7 C 0.1162 0.78016 0.98288 0.0
C8 C 0.14129 0.76084 0.96438 0.0
H9 H 0.23847 0.67566 0.91521 0.0
H10 H 0.1945 0.71431 0.9077 0.0
H11 H 0.21425 0.76288 0.09632 0.0
H12 H 0.15732 0.66478 0.08591 0.0
H13 H 0.14448 0.69359 0.13707 0.0
H14 H 0.1816 0.67388 0.14143 0.0
H15 H 0.2108 0.73042 0.14999 0.0
H16 H 0.18456 0.76823 0.14073 0.0
C17 C 0.17436 0.78772 0.89225 0.0
C18 C 0.1399 0.72975 0.87423 0.0
C19 C 0.07624 0.80353 0.1656 0.0
C20 C 0.08722 0.79548 0.21628 0.0
C21 C 0.11324 0.77342 0.22195 0.0
C22 C 0.12827 0.75992 0.1775 0.0
C23 C 0.11743 0.76915 0.1269 0.0
C24 C 0.09177 0.79059 0.1218 0.0
C25 C 0.08466 0.80035 0.0656 0.0
C26 C 0.11 0.78083 0.0375 0.0
C27 C 0.12907 0.76231 0.07336 0.0
C28 C 0.08651 0.84359 0.0597 0.0
C29 C 0.0536 0.78302 0.05125 0.0
C30 C 0.22327 0.68422 0.04615 0.0
C31 C 0.23828 0.67267 0.0005 0.0
C32 C 0.22712 0.68389 0.95087 0.0
C33 C 0.20165 0.70649 0.94657 0.0
C34 C 0.18701 0.71808 0.99236 0.0
C35 C 0.19752 0.70655 0.04112 0.0
C36 C 0.17824 0.72076 0.08518 0.0
C37 C 0.15437 0.74233 0.05463 0.0
C38 C 0.16004 0.74113 0.00036 0.0
C39 C 0.19783 0.74677 0.12036 0.0
C40 C 0.16472 0.68664 0.11442 0.0
H41 H 0.06178 0.82782 0.96582 0.0
H42 H 0.12604 0.80323 0.81115 0.0
H43 H 0.11572 0.72503 0.86435 0.0
H44 H 0.14648 0.70471 0.89726 0.0
H45 H 0.15244 0.73016 0.83663 0.0
H46 H 0.17361 0.81696 0.90708 0.0
H47 H 0.17782 0.78895 0.84904 0.0
H48 H 0.19447 0.77522 0.91078 0.0
H49 H 0.0568 0.8213 0.16002 0.0
H50 H 0.12214 0.76706 0.26078 0.0
H51 H 0.14809 0.74352 0.18421 0.0
H52 H 0.10292 0.85595 0.08823 0.0
H53 H 0.06435 0.85672 0.06688 0.0
H54 H 0.0948 0.85269 0.02087 0.0
H55 H 0.05073 0.75515 0.07025 0.0
H56 H 0.05081 0.7777 0.00865 0.0
H57 H 0.03498 0.80112 0.0647 0.0
H58 H 0.04969 0.8567 0.8826 0.0
C59 C 0.07616 0.82175 0.93334 0.0
C60 C 0.58733 0.71479 0.69411 0.0
C61 C 0.56063 0.69368 0.69879 0.0
C62 C 0.54208 0.68843 0.65412 0.0
C63 C 0.5782 0.72142 0.60023 0.0
C64 C 0.59547 0.72878 0.64458 0.0
C65 C 0.62299 0.75187 0.63198 0.0
H66 H 0.71296 0.82921 0.44647 0.0
C67 C 0.59404 0.7368 0.55422 0.0
C68 C 0.62004 0.7554 0.5725 0.0
H69 H 0.72416 0.83449 0.61549 0.0
H70 H 0.67786 0.79942 0.62679 0.0
H71 H 0.69629 0.74755 0.44159 0.0
H72 H 0.63981 0.84443 0.44363 0.0
H73 H 0.62565 0.81383 0.39492 0.0
H74 H 0.66345 0.83194 0.38961 0.0
H75 H 0.68753 0.77287 0.3825 0.0
H76 H 0.66418 0.7347 0.40524 0.0
C77 C 0.65118 0.72932 0.64851 0.0
C78 C 0.62019 0.79021 0.65973 0.0
C79 C 0.56011 0.69808 0.37096 0.0
C80 C 0.57333 0.70247 0.32135 0.0
C81 C 0.5985 0.72626 0.31601 0.0
C82 C 0.61105 0.74434 0.35993 0.0
C83 C 0.59862 0.73803 0.40987 0.0
C84 C 0.57327 0.71572 0.41465 0.0
C85 C 0.56412 0.71058 0.47103 0.0
C86 C 0.58859 0.73282 0.49937 0.0
C87 C 0.60863 0.74883 0.46333 0.0
C88 C 0.56565 0.6682 0.48402 0.0
C89 C 0.5326 0.72812 0.47816 0.0
C90 C 0.7052 0.82344 0.48597 0.0
C91 C 0.72212 0.83483 0.53012 0.0
C92 C 0.71159 0.82581 0.58082 0.0
C93 C 0.68465 0.80561 0.58729 0.0
C94 C 0.66819 0.79405 0.54259 0.0
C95 C 0.67852 0.80322 0.49304 0.0
C96 C 0.65879 0.78779 0.44988 0.0
C97 C 0.63435 0.76877 0.4816 0.0
C98 C 0.64 0.77224 0.53588 0.0
C99 C 0.6775 0.75943 0.41773 0.0
C100 C 0.6463 0.82104 0.41733 0.0
H101 H 0.53595 0.69658 0.57223 0.0
H102 H 0.60169 0.71984 0.7281 0.0
H103 H 0.59624 0.79882 0.66239 0.0
H104 H 0.63129 0.81313 0.63786 0.0
H105 H 0.62954 0.78911 0.70041 0.0
H106 H 0.6486 0.69946 0.63687 0.0
H107 H 0.6547 0.73022 0.69184 0.0
H108 H 0.67192 0.73918 0.62931 0.0
H109 H 0.54096 0.67955 0.37616 0.0
H110 H 0.60884 0.73018 0.27794 0.0
H111 H 0.63048 0.76165 0.35349 0.0
H112 H 0.58629 0.6557 0.46715 0.0
H113 H 0.54591 0.65302 0.46722 0.0
H114 H 0.56694 0.66208 0.52646 0.0
H115 H 0.52841 0.75081 0.44897 0.0
H116 H 0.53022 0.74181 0.51692 0.0
H117 H 0.51445 0.70688 0.47309 0.0
H118 H 0.52144 0.67226 0.65681 0.0
C119 C 0.55068 0.70227 0.60496 0.0
C120 C 0.91167 0.17183 0.16505 0.0
C121 C 0.9353 0.14598 0.16939 0.0
C122 C 0.95299 0.13857 0.12497 0.0
C123 C 0.92246 0.18052 0.07233 0.0
C124 C 0.90581 0.18892 0.11632 0.0
C125 C 0.88156 0.21702 0.10446 0.0
H126 H 0.80168 0.31593 0.92434 0.0
C127 C 0.90941 0.20097 0.02711 0.0
C128 C 0.8856 0.22266 0.04559 0.0
H129 H 0.79331 0.31624 0.09388 0.0
H130 H 0.835 0.27398 0.10191 0.0
H131 H 0.87702 0.32009 0.92483 0.0
H132 H 0.8125 0.22976 0.91227 0.0
H133 H 0.84244 0.21936 0.87036 0.0
H134 H 0.82007 0.26049 0.85795 0.0
H135 H 0.85187 0.31451 0.86955 0.0
H136 H 0.88729 0.29044 0.87272 0.0
C137 C 0.88863 0.2532 0.13602 0.0
C138 C 0.85079 0.19873 0.11724 0.0
C139 C 0.9479 0.17402 0.84433 0.0
C140 C 0.93739 0.18315 0.79373 0.0
C141 C 0.9128 0.20756 0.78809 0.0
C142 C 0.89874 0.22251 0.83259 0.0
C143 C 0.90907 0.2123 0.88315 0.0
C144 C 0.93326 0.18839 0.88819 0.0
C145 C 0.93971 0.17789 0.94438 0.0
C146 C 0.91568 0.19981 0.97253 0.0
C147 C 0.89795 0.22026 0.9367 0.0
C148 C 0.97175 0.19212 0.95883 0.0
C149 C 0.93512 0.13494 0.95009 0.0
C150 C 0.80909 0.30728 0.96322 0.0
C151 C 0.79388 0.31919 0.0085 0.0
C152 C 0.80416 0.30694 0.0583 0.0
C153 C 0.82852 0.28251 0.06296 0.0
C154 C 0.84292 0.27005 0.01741 0.0
C155 C 0.83353 0.28288 0.96861 0.0
C156 C 0.85192 0.26682 0.9247 0.0
C157 C 0.87407 0.24274 0.95538 0.0
C158 C 0.86833 0.24437 0.00961 0.0
C159 C 0.86784 0.29951 0.89596 0.0
C160 C 0.8308 0.24302 0.88901 0.0
H161 H 0.96075 0.1484 0.04412 0.0
H162 H 0.89806 0.17854 0.19882 0.0
H163 H 0.84976 0.16956 0.10209 0.0
H164 H 0.83157 0.21324 0.09874 0.0
H165 H 0.84718 0.19763 0.16042 0.0
H166 H 0.91307 0.25582 0.14543 0.0
H167 H 0.87635 0.25357 0.17387 0.0
H168 H 0.88327 0.27888 0.11345 0.0
H169 H 0.96623 0.1545 0.84975 0.0
H170 H 0.90429 0.2147 0.74927 0.0
H171 H 0.88001 0.24078 0.82594 0.0
H172 H 0.97646 0.21954 0.93966 0.0
H173 H 0.98916 0.17215 0.94565 0.0
H174 H 0.97478 0.19734 0.00141 0.0
H175 H 0.91785 0.12433 0.92173 0.0
H176 H 0.92647 0.12657 0.98899 0.0
H177 H 0.95632 0.11967 0.94251 0.0
H178 H 0.97123 0.11864 0.12732 0.0
C179 C 0.94674 0.1557 0.07658 0.0
C180 C 0.40477 0.32453 0.34367 0.0
C181 C 0.42989 0.34846 0.33942 0.0
C182 C 0.44659 0.35761 0.38509 0.0
C183 C 0.41184 0.32192 0.43849 0.0
C184 C 0.39631 0.31138 0.39345 0.0
C185 C 0.37009 0.28594 0.40541 0.0
H186 H 0.27855 0.20803 0.58746 0.0
C187 C 0.39606 0.3059 0.48421 0.0
C188 C 0.37177 0.28434 0.46515 0.0
H189 H 0.27346 0.19562 0.41846 0.0
H190 H 0.31894 0.23265 0.40908 0.0
H191 H 0.35041 0.19554 0.59699 0.0
H192 H 0.29448 0.29302 0.588 0.0
H193 H 0.32365 0.30403 0.63235 0.0
H194 H 0.29826 0.26591 0.64717 0.0
H195 H 0.32754 0.21069 0.65058 0.0
H196 H 0.36538 0.22814 0.64197 0.0
C197 C 0.37603 0.24727 0.38023 0.0
C198 C 0.34096 0.30512 0.38553 0.0
C199 C 0.42644 0.34655 0.66881 0.0
C200 C 0.41356 0.34028 0.71837 0.0
C201 C 0.38893 0.31548 0.72262 0.0
C202 C 0.37684 0.29786 0.67796 0.0
C203 C 0.38924 0.30546 0.62835 0.0
C204 C 0.41384 0.32911 0.62445 0.0
C205 C 0.42332 0.33497 0.56834 0.0
C206 C 0.40023 0.31105 0.53921 0.0
C207 C 0.38036 0.29395 0.57459 0.0
C208 C 0.45565 0.31968 0.56226 0.0
C209 C 0.41996 0.37715 0.55529 0.0
C210 C 0.28721 0.21338 0.54842 0.0
C211 C 0.27234 0.19928 0.50361 0.0
C212 C 0.28462 0.20619 0.45355 0.0
C213 C 0.3109 0.22781 0.4482 0.0
C214 C 0.32507 0.24257 0.49341 0.0
C215 C 0.31343 0.23467 0.54247 0.0
C216 C 0.33156 0.25206 0.58626 0.0
C217 C 0.35608 0.27172 0.55551 0.0
C218 C 0.35201 0.26651 0.50113 0.0
C219 C 0.34433 0.22019 0.62125 0.0
C220 C 0.3111 0.28007 0.61546 0.0
H221 H 0.45106 0.35296 0.46784 0.0
H222 H 0.39185 0.31652 0.30907 0.0
H223 H 0.34117 0.3353 0.39617 0.0
H224 H 0.32038 0.2934 0.40314 0.0
H225 H 0.33885 0.30315 0.34202 0.0
H226 H 0.40057 0.24148 0.3782 0.0
H227 H 0.36678 0.24586 0.3395 0.0
H228 H 0.36671 0.22387 0.40363 0.0
H229 H 0.44515 0.36584 0.66432 0.0
H230 H 0.37886 0.31001 0.76055 0.0
H231 H 0.3579 0.27959 0.68373 0.0
H232 H 0.45978 0.29574 0.58942 0.0
H233 H 0.47279 0.34157 0.57129 0.0
H234 H 0.45974 0.3083 0.52256 0.0
H235 H 0.39927 0.3886 0.57338 0.0
H236 H 0.4174 0.38295 0.51288 0.0
H237 H 0.43946 0.39351 0.57073 0.0
H238 H 0.46596 0.37609 0.38282 0.0
C239 C 0.43775 0.34441 0.4345 0.0
C240 C 0.0343 0.93435 0.44027 0.0
N241 N 0.07266 0.02858 0.51203 0.0
C242 C 0.09847 0.00846 0.51624 0.0
C243 C 0.12644 0.0264 0.51365 0.0
C244 C 0.1278 0.06539 0.50701 0.0
C245 C 0.1008 0.08548 0.50388 0.0
C246 C 0.07337 0.06643 0.50637 0.0
Zn247 Zn 0.03194 0.00198 0.50919 0.0
C248 C 0.99495 0.03087 0.41824 0.0
N249 N 0.94647 0.94752 0.49828 0.0
C250 C 0.94504 0.90981 0.50535 0.0
C251 C 0.92105 0.96842 0.4949 0.0
C252 C 0.89282 0.95166 0.5008 0.0
C253 C 0.89068 0.91295 0.51004 0.0
C254 C 0.91727 0.89187 0.51118 0.0
Zn255 Zn 0.9874 0.9738 0.50058 0.0
O256 O 0.05005 0.96077 0.45976 0.0
C257 C 0.02453 0.94501 0.59148 0.0
O258 O 0.00632 0.9326 0.45025 0.0
H259 H 0.92269 0.99839 0.48949 0.0
H260 H 0.09737 0.97838 0.52072 0.0
H261 H 0.96553 0.89374 0.50806 0.0
O262 O 0.04342 0.96921 0.57542 0.0
O263 O -0.00057 0.9414 0.56757 0.0
H264 H 0.0526 0.08185 0.50262 0.0
O265 O 0.96931 0.01524 0.55046 0.0
O266 O 0.0132 0.04299 0.55926 0.0
O267 O 0.97588 0.00682 0.43416 0.0
O268 O 0.02002 0.03424 0.4423 0.0
C269 C 0.98531 0.04151 0.56972 0.0
H270 H 0.14677 0.00996 0.51676 0.0
H271 H 0.10084 0.11552 0.49811 0.0
H272 H 0.87299 0.96911 0.50013 0.0
H273 H 0.91668 0.86188 0.51726 0.0
C274 C 0.49791 0.45774 0.94216 0.0
N275 N 0.58252 0.46496 0.01577 0.0
C276 C 0.58139 0.42692 0.01688 0.0
C277 C 0.60777 0.40614 0.01874 0.0
C278 C 0.63576 0.42454 0.01942 0.0
C279 C 0.63641 0.46383 0.01689 0.0
C280 C 0.60933 0.48363 0.01526 0.0
Zn281 Zn 0.54229 0.49249 0.01721 0.0
C282 C 0.53855 0.55473 0.94082 0.0
N283 N 0.45647 0.54575 0.0218 0.0
C284 C 0.43063 0.52509 0.02281 0.0
C285 C 0.4558 0.58377 0.02395 0.0
C286 C 0.42841 0.60246 0.02769 0.0
C287 C 0.40139 0.58186 0.02901 0.0
C288 C 0.40273 0.54266 0.02629 0.0
Zn289 Zn 0.49713 0.51923 0.01928 0.0
O290 O 0.52495 0.45577 0.95863 0.0
C291 C 0.50108 0.45734 0.09632 0.0
O292 O 0.4806 0.4823 0.96113 0.0
H293 H 0.47658 0.59968 0.02299 0.0
H294 H 0.5599 0.41256 0.017 0.0
H295 H 0.43166 0.49489 0.02136 0.0
O296 O 0.52745 0.45579 0.07764 0.0
O297 O 0.48288 0.48168 0.07863 0.0
H298 H 0.60971 0.5139 0.0144 0.0
O299 O 0.51433 0.55573 0.07754 0.0
O300 O 0.55898 0.52992 0.07499 0.0
O301 O 0.51216 0.55653 0.9596 0.0
O302 O 0.5565 0.52976 0.95773 0.0
C303 C 0.54146 0.5544 0.09368 0.0
H304 H 0.60625 0.37588 0.01978 0.0
H305 H 0.65756 0.47907 0.01762 0.0
H306 H 0.42838 0.63275 0.02894 0.0
H307 H 0.38247 0.52569 0.02767 0.0
H308 H 0.25627 0.13325 0.45785 0.0
H309 H 0.2243 0.21864 0.5627 0.0
H310 H 0.1771 0.18434 0.57397 0.0
H311 H 0.14486 0.13032 0.55389 0.0
H312 H 0.17639 0.04466 0.44906 0.0
H313 H 0.22394 0.07856 0.43833 0.0
C314 C 0.23884 0.14437 0.48285 0.0
C315 C 0.24369 0.17836 0.50939 0.0
C316 C 0.21181 0.12437 0.48941 0.0
C317 C 0.22115 0.19232 0.54225 0.0
C318 C 0.19415 0.17281 0.54859 0.0
C319 C 0.16209 0.11918 0.52848 0.0
C320 C 0.1571 0.08513 0.5022 0.0
C321 C 0.18924 0.13884 0.52237 0.0
C322 C 0.17982 0.07067 0.47013 0.0
C323 C 0.20692 0.09015 0.46369 0.0
H324 H 0.28746 0.68387 0.06315 0.0
H325 H 0.25084 0.6099 0.94459 0.0
H326 H 0.2977 0.5745 0.94421 0.0
H327 H 0.34988 0.56648 0.97434 0.0
H328 H 0.387 0.6409 0.09199 0.0
H329 H 0.33926 0.67431 0.09581 0.0
C330 C 0.28966 0.65968 0.03783 0.0
C331 C 0.26581 0.64953 0.00388 0.0
C332 C 0.31683 0.63978 0.03727 0.0
C333 C 0.26903 0.61842 0.97073 0.0
C334 C 0.29578 0.59817 0.97053 0.0
C335 C 0.3474 0.58971 0.00131 0.0
C336 C 0.372 0.60123 0.0327 0.0
C337 C 0.31996 0.60889 0.00312 0.0
C338 C 0.36854 0.63177 0.06688 0.0
C339 C 0.3412 0.65077 0.0693 0.0
H340 H 0.77527 0.82217 0.58081 0.0
H341 H 0.73406 0.89214 0.46211 0.0
H342 H 0.78254 0.92212 0.44493 0.0
H343 H 0.83683 0.92722 0.46188 0.0
H344 H 0.87784 0.85841 0.5823 0.0
H345 H 0.82931 0.82898 0.6001 0.0
C346 C 0.77683 0.84436 0.55175 0.0
C347 C 0.75113 0.85487 0.52275 0.0
C348 C 0.8048 0.86139 0.54191 0.0
C349 C 0.7536 0.88328 0.4846 0.0
C350 C 0.78128 0.90048 0.47481 0.0
C351 C 0.83513 0.90606 0.49239 0.0
C352 C 0.86105 0.89495 0.52043 0.0
C353 C 0.80708 0.88953 0.50292 0.0
C354 C 0.85843 0.86705 0.55934 0.0
C355 C 0.83061 0.85041 0.56992 0.0
H356 H 0.74206 0.31242 0.06316 0.0
H357 H 0.78471 0.37977 0.94373 0.0
H358 H 0.73979 0.41885 0.93696 0.0
H359 H 0.68805 0.43351 0.96489 0.0
H360 H 0.64648 0.36609 0.08552 0.0
H361 H 0.69149 0.32773 0.09234 0.0
C362 C 0.74174 0.33594 0.0361 0.0
C363 C 0.76679 0.34324 0.00421 0.0
C364 C 0.71599 0.35829 0.03263 0.0
C365 C 0.76565 0.37332 0.96845 0.0
C366 C 0.74003 0.3958 0.96478 0.0
C367 C 0.68901 0.41063 0.99297 0.0
C368 C 0.66387 0.40253 0.02439 0.0
C369 C 0.71504 0.38853 0.99668 0.0
C370 C 0.66533 0.37257 0.06029 0.0
C371 C 0.6911 0.3507 0.06439 0.0
H372 H 0.11481 0.83616 0.29244 0.0
H373 H 0.02765 0.79614 0.24119 0.0
H374 H 0.00339 0.83379 0.30883 0.0
H375 H 0.00686 0.88212 0.3776 0.0
H376 H 0.09425 0.92425 0.42522 0.0
H377 H 0.11846 0.8817 0.3643 0.0
C378 C 0.09056 0.83507 0.29696 0.0
C379 C 0.07301 0.81339 0.26218 0.0
C380 C 0.07678 0.85757 0.33485 0.0
C381 C 0.04157 0.81272 0.26765 0.0
C382 C 0.02772 0.83431 0.30613 0.0
C383 C 0.0312 0.88173 0.37498 0.0
C384 C 0.04866 0.90657 0.40563 0.0
C385 C 0.04505 0.85754 0.33915 0.0
C386 C 0.08021 0.9057 0.40174 0.0
C387 C 0.09413 0.8813 0.36696 0.0
H388 H 0.59699 0.65016 0.75864 0.0
H389 H 0.50679 0.69353 0.74939 0.0
H390 H 0.49231 0.65553 0.82541 0.0
H391 H 0.50451 0.60706 0.89063 0.0
H392 H 0.59433 0.56183 0.89753 0.0
H393 H 0.60978 0.60358 0.82645 0.0
C394 C 0.57434 0.65178 0.774 0.0
C395 C 0.55298 0.67459 0.7487 0.0
C396 C 0.56604 0.62923 0.81685 0.0
C397 C 0.52355 0.67602 0.76826 0.0
C398 C 0.51528 0.65428 0.81158 0.0
C399 C 0.52751 0.60645 0.87682 0.0
C400 C 0.54815 0.58115 0.89918 0.0
C401 C 0.53618 0.63024 0.83553 0.0
C402 C 0.5779 0.58082 0.88082 0.0
C403 C 0.58679 0.60474 0.8402 0.0
H404 H 0.98905 0.1355 0.2183 0.0
H405 H 0.89435 0.11068 0.23184 0.0
H406 H 0.9043 0.07278 0.3104 0.0
H407 H 0.94029 0.04479 0.37321 0.0
H408 H 0.03491 0.07103 0.36017 0.0
H409 H 0.02465 0.10998 0.28319 0.0
C410 C 0.97062 0.12179 0.23855 0.0
C411 C 0.94107 0.12565 0.21929 0.0
C412 C 0.97652 0.10009 0.28349 0.0
C413 C 0.91729 0.10828 0.24624 0.0
C414 C 0.92298 0.08642 0.29088 0.0
C415 C 0.95864 0.05901 0.35344 0.0
C416 C 0.98833 0.05477 0.3721 0.0
C417 C 0.95256 0.08179 0.30951 0.0
C418 C 0.01185 0.07377 0.34654 0.0
C419 C 0.00603 0.09605 0.3025 0.0
H420 H 0.47149 0.34971 0.75097 0.0
H421 H 0.38017 0.37822 0.78938 0.0
H422 H 0.39817 0.4165 0.86291 0.0
H423 H 0.4399 0.4438 0.91397 0.0
H424 H 0.53132 0.4144 0.87692 0.0
H425 H 0.51326 0.37458 0.8051 0.0
C426 C 0.4556 0.36429 0.77559 0.0
C427 C 0.42461 0.36129 0.76484 0.0
C428 C 0.4661 0.38617 0.81781 0.0
C429 C 0.40414 0.37989 0.79727 0.0
C430 C 0.41441 0.40194 0.83907 0.0
C431 C 0.45587 0.42863 0.89024 0.0
C432 C 0.48689 0.43228 0.90045 0.0
C433 C 0.44535 0.40557 0.84935 0.0
C434 C 0.5073 0.41209 0.8698 0.0
C435 C 0.49701 0.38937 0.82867 0.0
H436 H 0.60704 0.6587 0.25926 0.0
H437 H 0.51575 0.69376 0.28503 0.0
H438 H 0.49786 0.65149 0.21554 0.0
H439 H 0.50816 0.60317 0.14994 0.0
H440 H 0.5994 0.56621 0.12686 0.0
H441 H 0.61741 0.61076 0.19296 0.0
C442 C 0.5833 0.65744 0.24899 0.0
C443 C 0.56271 0.6794 0.27666 0.0
C444 C 0.5732 0.63258 0.20996 0.0
C445 C 0.53193 0.67705 0.26402 0.0
C446 C 0.52174 0.65291 0.22446 0.0
C447 C 0.532 0.6049 0.15924 0.0
C448 C 0.5524 0.58135 0.13359 0.0
C449 C 0.54216 0.63026 0.1976 0.0
C450 C 0.58321 0.58389 0.14622 0.0
C451 C 0.59354 0.60941 0.1839 0.0
H452 H 0.90806 0.14234 0.71975 0.0
H453 H 0.99646 0.18052 0.76684 0.0
H454 H 0.0192 0.14177 0.69877 0.0
H455 H 0.01405 0.09333 0.63079 0.0
H456 H 0.92559 0.05241 0.58748 0.0
H457 H 0.90276 0.09594 0.64892 0.0
C458 C 0.93224 0.14271 0.7142 0.0
C459 C 0.95062 0.16429 0.74779 0.0
C460 C 0.94514 0.11951 0.67618 0.0
C461 C 0.98196 0.16409 0.74117 0.0
C462 C 0.99492 0.14186 0.70248 0.0
C463 C 0.98977 0.09415 0.63446 0.0
C464 C 0.9716 0.06947 0.60482 0.0
C465 C 0.97677 0.11882 0.67055 0.0
C466 C 0.94015 0.07088 0.61013 0.0
C467 C 0.92704 0.09582 0.64519 0.0
H468 H 0.48525 0.35388 0.29564 0.0
H469 H 0.39219 0.3825 0.26932 0.0
H470 H 0.40577 0.41753 0.19015 0.0
H471 H 0.44457 0.44356 0.132 0.0
H472 H 0.53765 0.41425 0.15793 0.0
H473 H 0.52361 0.37605 0.23368 0.0
C474 C 0.46797 0.36764 0.27232 0.0
C475 C 0.43782 0.36585 0.28837 0.0
C476 C 0.47597 0.38783 0.22707 0.0
C477 C 0.41554 0.38329 0.2575 0.0
C478 C 0.42332 0.40355 0.21249 0.0
C479 C 0.46176 0.42866 0.15408 0.0
C480 C 0.49214 0.43208 0.13969 0.0
C481 C 0.45353 0.40657 0.19746 0.0
C482 C 0.51411 0.41221 0.16827 0.0
C483 C 0.50611 0.3904 0.21167 0.0
H484 H 0.03299 0.84033 0.79128 0.0
H485 H 0.12681 0.87041 0.77884 0.0
H486 H 0.11584 0.90771 0.70027 0.0
H487 H 0.07927 0.9336 0.6371 0.0
H488 H 0.98549 0.90262 0.6488 0.0
H489 H 0.99672 0.8641 0.72592 0.0
C490 C 0.05099 0.85507 0.77128 0.0
C491 C 0.08061 0.85277 0.79083 0.0
C492 C 0.04451 0.87648 0.72627 0.0
C493 C 0.10385 0.87151 0.76421 0.0
C494 C 0.09757 0.89304 0.71954 0.0
C495 C 0.06129 0.91845 0.65657 0.0
C496 C 0.03157 0.92121 0.63753 0.0
C497 C 0.06793 0.89603 0.70056 0.0
C498 C 0.00857 0.90102 0.66275 0.0
C499 C 0.01495 0.879 0.70686 0.0
loop_
_geom_bond_atom_site_label_1
_geom_bond_atom_site_label_2
_geom_bond_distance
_geom_bond_site_symmetry_2
_ccdc_geom_bond_type
C0 C1 1.391 . S
C0 C4 1.391 . S
C0 H42 0.948 . S
C1 C0 1.391 . S
C1 C2 1.391 . S
C2 C1 1.391 . S
C2 H58 0.947 . S
C2 C59 1.392 . S
C3 C4 1.391 . S
C3 C7 1.397 . S
C3 C59 1.419 . S
C4 C0 1.391 . S
C4 C3 1.391 . S
C4 C5 1.399 . S
C5 C4 1.399 . S
C5 C8 1.396 . S
C5 C17 1.453 . S
C5 C18 1.684 . S
H6 C30 0.948 . S
C7 C3 1.397 . S
C7 C8 1.394 . S
C7 C26 1.723 1_556 S
C8 C5 1.396 . S
C8 C7 1.394 . S
C8 C38 1.723 1_556 S
H9 C32 0.947 . S
H10 C33 0.948 . S
H11 C39 0.982 . S
H12 C40 0.979 . S
H13 C40 0.980 . S
H14 C40 0.983 . S
H15 C39 0.979 . S
H16 C39 0.977 . S
C17 C5 1.453 . S
C17 H46 0.982 . S
C17 H47 0.979 . S
C17 H48 0.977 . S
C18 C5 1.684 . S
C18 H43 0.979 . S
C18 H44 0.980 . S
C18 H45 0.983 . S
C19 C20 1.391 . S
C19 C24 1.391 . S
C19 H49 0.948 . S
C20 C19 1.391 . S
C20 C21 1.391 . S
C21 C20 1.391 . S
C21 C22 1.392 . S
C21 H50 0.947 . S
C22 C21 1.392 . S
C22 C23 1.419 . S
C22 H51 0.948 . S
C23 C22 1.419 . S
C23 C24 1.391 . S
C23 C27 1.397 . S
C24 C19 1.391 . S
C24 C23 1.391 . S
C24 C25 1.399 . S
C25 C24 1.399 . S
C25 C26 1.396 . S
C25 C28 1.453 . S
C25 C29 1.684 . S
C26 C7 1.723 1_554 S
C26 C25 1.396 . S
C26 C27 1.394 . S
C27 C23 1.397 . S
C27 C26 1.394 . S
C27 C37 1.723 . S
C28 C25 1.453 . S
C28 H52 0.982 . S
C28 H53 0.979 . S
C28 H54 0.977 . S
C29 C25 1.684 . S
C29 H55 0.979 . S
C29 H56 0.980 . S
C29 H57 0.983 . S
C30 H6 0.948 . S
C30 C31 1.391 . S
C30 C35 1.391 . S
C31 C30 1.391 . S
C31 C32 1.391 1_554 S
C32 H9 0.947 . S
C32 C31 1.391 1_556 S
C32 C33 1.392 . S
C33 H10 0.948 . S
C33 C32 1.392 . S
C33 C34 1.419 1_556 S
C34 C33 1.419 1_554 S
C34 C35 1.391 . S
C34 C38 1.397 . S
C35 C30 1.391 . S
C35 C34 1.391 . S
C35 C36 1.399 . S
C36 C35 1.399 . S
C36 C37 1.396 . S
C36 C39 1.453 . S
C36 C40 1.684 . S
C37 C27 1.723 . S
C37 C36 1.396 . S
C37 C38 1.394 . S
C38 C8 1.723 1_554 S
C38 C34 1.397 . S
C38 C37 1.394 . S
C39 H11 0.982 . S
C39 H15 0.979 . S
C39 H16 0.977 . S
C39 C36 1.453 . S
C40 H12 0.979 . S
C40 H13 0.980 . S
C40 H14 0.983 . S
C40 C36 1.684 . S
H41 C59 0.948 . S
H42 C0 0.948 . S
H43 C18 0.979 . S
H44 C18 0.980 . S
H45 C18 0.983 . S
H46 C17 0.982 . S
H47 C17 0.979 . S
H48 C17 0.977 . S
H49 C19 0.948 . S
H50 C21 0.947 . S
H51 C22 0.948 . S
H52 C28 0.982 . S
H53 C28 0.979 . S
H54 C28 0.977 . S
H55 C29 0.979 . S
H56 C29 0.980 . S
H57 C29 0.983 . S
H58 C2 0.947 . S
C59 C2 1.392 . S
C59 C3 1.419 . S
C59 H41 0.948 . S
C60 C61 1.391 . S
C60 C64 1.391 . S
C60 H102 0.948 . S
C61 C60 1.391 . S
C61 C62 1.391 . S
C62 C61 1.391 . S
C62 H118 0.947 . S
C62 C119 1.392 . S
C63 C64 1.391 . S
C63 C67 1.397 . S
C63 C119 1.419 . S
C64 C60 1.391 . S
C64 C63 1.391 . S
C64 C65 1.399 . S
C65 C64 1.399 . S
C65 C68 1.396 . S
C65 C77 1.453 . S
C65 C78 1.684 . S
H66 C90 0.948 . S
C67 C63 1.397 . S
C67 C68 1.394 . S
C67 C86 1.723 . S
C68 C65 1.396 . S
C68 C67 1.394 . S
C68 C98 1.723 . S
H69 C92 0.947 . S
H70 C93 0.948 . S
H71 C99 0.982 . S
H72 C100 0.979 . S
H73 C100 0.980 . S
H74 C100 0.983 . S
H75 C99 0.979 . S
H76 C99 0.977 . S
C77 C65 1.453 . S
C77 H106 0.982 . S
C77 H107 0.979 . S
C77 H108 0.977 . S
C78 C65 1.684 . S
C78 H103 0.979 . S
C78 H104 0.980 . S
C78 H105 0.983 . S
C79 C80 1.391 . S
C79 C84 1.391 . S
C79 H109 0.948 . S
C80 C79 1.391 . S
C80 C81 1.391 . S
C81 C80 1.391 . S
C81 C82 1.392 . S
C81 H110 0.947 . S
C82 C81 1.392 . S
C82 C83 1.419 . S
C82 H111 0.948 . S
C83 C82 1.419 . S
C83 C84 1.391 . S
C83 C87 1.397 . S
C84 C79 1.391 . S
C84 C83 1.391 . S
C84 C85 1.399 . S
C85 C84 1.399 . S
C85 C86 1.396 . S
C85 C88 1.453 . S
C85 C89 1.684 . S
C86 C67 1.723 . S
C86 C85 1.396 . S
C86 C87 1.394 . S
C87 C83 1.397 . S
C87 C86 1.394 . S
C87 C97 1.723 . S
C88 C85 1.453 . S
C88 H112 0.982 . S
C88 H113 0.979 . S
C88 H114 0.977 . S
C89 C85 1.684 . S
C89 H115 0.979 . S
C89 H116 0.980 . S
C89 H117 0.983 . S
C90 H66 0.948 . S
C90 C91 1.391 . S
C90 C95 1.391 . S
C91 C90 1.391 . S
C91 C92 1.391 . S
C92 H69 0.947 . S
C92 C91 1.391 . S
C92 C93 1.392 . S
C93 H70 0.948 . S
C93 C92 1.392 . S
C93 C94 1.419 . S
C94 C93 1.419 . S
C94 C95 1.391 . S
C94 C98 1.397 . S
C95 C90 1.391 . S
C95 C94 1.391 . S
C95 C96 1.399 . S
C96 C95 1.399 . S
C96 C97 1.396 . S
C96 C99 1.453 . S
C96 C100 1.684 . S
C97 C87 1.723 . S
C97 C96 1.396 . S
C97 C98 1.394 . S
C98 C68 1.723 . S
C98 C94 1.397 . S
C98 C97 1.394 . S
C99 H71 0.982 . S
C99 H75 0.979 . S
C99 H76 0.977 . S
C99 C96 1.453 . S
C100 H72 0.979 . S
C100 H73 0.980 . S
C100 H74 0.983 . S
C100 C96 1.684 . S
H101 C119 0.948 . S
H102 C60 0.948 . S
H103 C78 0.979 . S
H104 C78 0.980 . S
H105 C78 0.983 . S
H106 C77 0.982 . S
H107 C77 0.979 . S
H108 C77 0.977 . S
H109 C79 0.948 . S
H110 C81 0.947 . S
H111 C82 0.948 . S
H112 C88 0.982 . S
H113 C88 0.979 . S
H114 C88 0.977 . S
H115 C89 0.979 . S
H116 C89 0.980 . S
H117 C89 0.983 . S
H118 C62 0.947 . S
C119 C62 1.392 . S
C119 C63 1.419 . S
C119 H101 0.948 . S
C120 C121 1.391 . S
C120 C124 1.391 . S
C120 H162 0.948 . S
C121 C120 1.391 . S
C121 C122 1.391 . S
C122 C121 1.391 . S
C122 H178 0.947 . S
C122 C179 1.392 . S
C123 C124 1.391 . S
C123 C127 1.397 . S
C123 C179 1.419 . S
C124 C120 1.391 . S
C124 C123 1.391 . S
C124 C125 1.399 . S
C125 C124 1.399 . S
C125 C128 1.396 . S
C125 C137 1.453 . S
C125 C138 1.684 . S
H126 C150 0.948 . S
C127 C123 1.397 . S
C127 C128 1.394 . S
C127 C146 1.723 1_554 S
C128 C125 1.396 . S
C128 C127 1.394 . S
C128 C158 1.723 . S
H129 C152 0.947 . S
H130 C153 0.948 . S
H131 C159 0.982 . S
H132 C160 0.979 . S
H133 C160 0.980 . S
H134 C160 0.983 . S
H135 C159 0.979 . S
H136 C159 0.977 . S
C137 C125 1.453 . S
C137 H166 0.982 . S
C137 H167 0.979 . S
C137 H168 0.977 . S
C138 C125 1.684 . S
C138 H163 0.979 . S
C138 H164 0.980 . S
C138 H165 0.983 . S
C139 C140 1.391 . S
C139 C144 1.391 . S
C139 H169 0.948 . S
C140 C139 1.391 . S
C140 C141 1.391 . S
C141 C140 1.391 . S
C141 C142 1.392 . S
C141 H170 0.947 . S
C142 C141 1.392 . S
C142 C143 1.419 . S
C142 H171 0.948 . S
C143 C142 1.419 . S
C143 C144 1.391 . S
C143 C147 1.397 . S
C144 C139 1.391 . S
C144 C143 1.391 . S
C144 C145 1.399 . S
C145 C144 1.399 . S
C145 C146 1.396 . S
C145 C148 1.453 . S
C145 C149 1.684 . S
C146 C127 1.723 1_556 S
C146 C145 1.396 . S
C146 C147 1.394 . S
C147 C143 1.397 . S
C147 C146 1.394 . S
C147 C157 1.723 . S
C148 C145 1.453 . S
C148 H172 0.982 . S
C148 H173 0.979 . S
C148 H174 0.977 1_556 S
C149 C145 1.684 . S
C149 H175 0.979 . S
C149 H176 0.980 1_556 S
C149 H177 0.983 . S
C150 H126 0.948 . S
C150 C151 1.391 1_556 S
C150 C155 1.391 . S
C151 C150 1.391 1_554 S
C151 C152 1.391 . S
C152 H129 0.947 . S
C152 C151 1.391 . S
C152 C153 1.392 . S
C153 H130 0.948 . S
C153 C152 1.392 . S
C153 C154 1.419 . S
C154 C153 1.419 . S
C154 C155 1.391 1_554 S
C154 C158 1.397 . S
C155 C150 1.391 . S
C155 C154 1.391 1_556 S
C155 C156 1.399 . S
C156 C155 1.399 . S
C156 C157 1.396 . S
C156 C159 1.453 . S
C156 C160 1.684 . S
C157 C147 1.723 . S
C157 C156 1.396 . S
C157 C158 1.394 1_556 S
C158 C128 1.723 . S
C158 C154 1.397 . S
C158 C157 1.394 1_554 S
C159 H131 0.982 . S
C159 H135 0.979 . S
C159 H136 0.977 . S
C159 C156 1.453 . S
C160 H132 0.979 . S
C160 H133 0.980 . S
C160 H134 0.983 . S
C160 C156 1.684 . S
H161 C179 0.948 . S
H162 C120 0.948 . S
H163 C138 0.979 . S
H164 C138 0.980 . S
H165 C138 0.983 . S
H166 C137 0.982 . S
H167 C137 0.979 . S
H168 C137 0.977 . S
H169 C139 0.948 . S
H170 C141 0.947 . S
H171 C142 0.948 . S
H172 C148 0.982 . S
H173 C148 0.979 . S
H174 C148 0.977 1_554 S
H175 C149 0.979 . S
H176 C149 0.980 1_554 S
H177 C149 0.983 . S
H178 C122 0.947 . S
C179 C122 1.392 . S
C179 C123 1.419 . S
C179 H161 0.948 . S
C180 C181 1.391 . S
C180 C184 1.391 . S
C180 H222 0.948 . S
C181 C180 1.391 . S
C181 C182 1.391 . S
C182 C181 1.391 . S
C182 H238 0.947 . S
C182 C239 1.392 . S
C183 C184 1.391 . S
C183 C187 1.397 . S
C183 C239 1.419 . S
C184 C180 1.391 . S
C184 C183 1.391 . S
C184 C185 1.399 . S
C185 C184 1.399 . S
C185 C188 1.396 . S
C185 C197 1.453 . S
C185 C198 1.684 . S
H186 C210 0.948 . S
C187 C183 1.397 . S
C187 C188 1.394 . S
C187 C206 1.723 . S
C188 C185 1.396 . S
C188 C187 1.394 . S
C188 C218 1.723 . S
H189 C212 0.947 . S
H190 C213 0.948 . S
H191 C219 0.982 . S
H192 C220 0.979 . S
H193 C220 0.980 . S
H194 C220 0.983 . S
H195 C219 0.979 . S
H196 C219 0.977 . S
C197 C185 1.453 . S
C197 H226 0.982 . S
C197 H227 0.979 . S
C197 H228 0.977 . S
C198 C185 1.684 . S
C198 H223 0.979 . S
C198 H224 0.980 . S
C198 H225 0.983 . S
C199 C200 1.391 . S
C199 C204 1.391 . S
C199 H229 0.948 . S
C200 C199 1.391 . S
C200 C201 1.391 . S
C201 C200 1.391 . S
C201 C202 1.392 . S
C201 H230 0.947 . S
C202 C201 1.392 . S
C202 C203 1.419 . S
C202 H231 0.948 . S
C203 C202 1.419 . S
C203 C204 1.391 . S
C203 C207 1.397 . S
C204 C199 1.391 . S
C204 C203 1.391 . S
C204 C205 1.399 . S
C205 C204 1.399 . S
C205 C206 1.396 . S
C205 C208 1.453 . S
C205 C209 1.684 . S
C206 C187 1.723 . S
C206 C205 1.396 . S
C206 C207 1.394 . S
C207 C203 1.397 . S
C207 C206 1.394 . S
C207 C217 1.723 . S
C208 C205 1.453 . S
C208 H232 0.982 . S
C208 H233 0.979 . S
C208 H234 0.977 . S
C209 C205 1.684 . S
C209 H235 0.979 . S
C209 H236 0.980 . S
C209 H237 0.983 . S
C210 H186 0.948 . S
C210 C211 1.391 . S
C210 C215 1.391 . S
C211 C210 1.391 . S
C211 C212 1.391 . S
C212 H189 0.947 . S
C212 C211 1.391 . S
C212 C213 1.392 . S
C213 H190 0.948 . S
C213 C212 1.392 . S
C213 C214 1.419 . S
C214 C213 1.419 . S
C214 C215 1.391 . S
C214 C218 1.397 . S
C215 C210 1.391 . S
C215 C214 1.391 . S
C215 C216 1.399 . S
C216 C215 1.399 . S
C216 C217 1.396 . S
C216 C219 1.453 . S
C216 C220 1.684 . S
C217 C207 1.723 . S
C217 C216 1.396 . S
C217 C218 1.394 . S
C218 C188 1.723 . S
C218 C214 1.397 . S
C218 C217 1.394 . S
C219 H191 0.982 . S
C219 H195 0.979 . S
C219 H196 0.977 . S
C219 C216 1.453 . S
C220 H192 0.979 . S
C220 H193 0.980 . S
C220 H194 0.983 . S
C220 C216 1.684 . S
H221 C239 0.948 . S
H222 C180 0.948 . S
H223 C198 0.979 . S
H224 C198 0.980 . S
H225 C198 0.983 . S
H226 C197 0.982 . S
H227 C197 0.979 . S
H228 C197 0.977 . S
H229 C199 0.948 . S
H230 C201 0.947 . S
H231 C202 0.948 . S
H232 C208 0.982 . S
H233 C208 0.979 . S
H234 C208 0.977 . S
H235 C209 0.979 . S
H236 C209 0.980 . S
H237 C209 0.983 . S
H238 C182 0.947 . S
C239 C182 1.392 . S
C239 C183 1.419 . S
C239 H221 0.948 . S
C240 O256 1.251 . S
C240 O258 1.254 . S
N241 C242 1.333 . S
N241 C246 1.307 . S
N241 Zn247 2.020 . S
C242 N241 1.333 . S
C242 C243 1.379 . S
C242 H260 0.952 . S
C243 C242 1.379 . S
C243 C244 1.390 . S
C243 H270 0.949 . S
C244 C243 1.390 . S
C244 C245 1.357 . S
C245 C244 1.357 . S
C245 C246 1.370 . S
C245 H271 0.950 . S
C246 N241 1.307 . S
C246 C245 1.370 . S
C246 H264 0.948 . S
Zn247 N241 2.020 . S
Zn247 O256 2.039 1_545 S
Zn247 O262 2.034 1_545 S
Zn247 O266 2.025 . S
Zn247 O268 2.024 . S
C248 O267 1.246 . S
C248 O268 1.249 1_655 S
N249 C250 1.307 . S
N249 C251 1.333 . S
N249 Zn255 2.020 . S
C250 N249 1.307 . S
C250 C254 1.370 . S
C250 H261 0.948 . S
C251 N249 1.333 . S
C251 C252 1.379 . S
C251 H259 0.970 . S
C252 C251 1.379 . S
C252 C253 1.390 . S
C252 H272 0.949 . S
C253 C252 1.390 . S
C253 C254 1.357 . S
C254 C250 1.370 . S
C254 C253 1.357 . S
C254 H273 0.950 . S
Zn255 N249 2.020 . S
Zn255 O258 2.025 1_655 S
Zn255 O263 2.024 1_655 S
Zn255 O265 2.039 1_565 S
Zn255 O267 2.034 1_565 S
O256 C240 1.251 . S
O256 Zn247 2.039 1_565 S
C257 O262 1.246 . S
C257 O263 1.249 . S
O258 C240 1.254 . S
O258 Zn255 2.025 1_455 S
H259 C251 0.970 . S
H260 C242 0.952 . S
H261 C250 0.948 . S
O262 Zn247 2.034 1_565 S
O262 C257 1.246 . S
O263 Zn255 2.024 1_455 S
O263 C257 1.249 . S
H264 C246 0.948 . S
O265 Zn255 2.039 1_545 S
O265 C269 1.251 . S
O266 Zn247 2.025 . S
O266 C269 1.254 1_455 S
O267 C248 1.246 . S
O267 Zn255 2.034 1_545 S
O268 Zn247 2.024 . S
O268 C248 1.249 1_455 S
C269 O265 1.251 . S
C269 O266 1.254 1_655 S
H270 C243 0.949 . S
H271 C245 0.950 . S
H272 C252 0.949 . S
H273 C254 0.950 . S
C274 O290 1.251 . S
C274 O292 1.254 . S
N275 C276 1.332 1_554 S
N275 C280 1.307 . S
N275 Zn281 2.020 . S
C276 N275 1.332 1_556 S
C276 C277 1.380 . S
C276 H294 0.952 . S
C277 C276 1.380 . S
C277 C278 1.390 1_556 S
C277 H304 0.949 . S
C278 C277 1.390 1_554 S
C278 C279 1.357 . S
C279 C278 1.357 . S
C279 C280 1.370 . S
C279 H305 0.950 . S
C280 N275 1.307 . S
C280 C279 1.370 . S
C280 H298 0.948 . S
Zn281 N275 2.020 . S
Zn281 O290 2.039 1_554 S
Zn281 O296 2.034 . S
Zn281 O300 2.025 . S
Zn281 O302 2.024 1_554 S
C282 O301 1.246 . S
C282 O302 1.249 . S
N283 C284 1.307 . S
N283 C285 1.333 . S
N283 Zn289 2.020 . S
C284 N283 1.307 . S
C284 C288 1.370 . S
C284 H295 0.948 1_554 S
C285 N283 1.333 . S
C285 C286 1.379 . S
C285 H293 0.952 . S
C286 C285 1.379 . S
C286 C287 1.390 . S
C286 H306 0.949 . S
C287 C286 1.390 . S
C287 C288 1.357 . S
C288 C284 1.370 . S
C288 C287 1.357 . S
C288 H307 0.950 1_554 S
Zn289 N283 2.020 . S
Zn289 O292 2.025 1_554 S
Zn289 O297 2.024 . S
Zn289 O299 2.039 . S
Zn289 O301 2.034 1_554 S
O290 C274 1.251 . S
O290 Zn281 2.039 1_556 S
C291 O296 1.246 . S
C291 O297 1.249 . S
O292 C274 1.254 . S
O292 Zn289 2.025 1_556 S
H293 C285 0.952 . S
H294 C276 0.952 . S
H295 C284 0.948 1_556 S
O296 Zn281 2.034 . S
O296 C291 1.246 . S
O297 Zn289 2.024 . S
O297 C291 1.249 . S
H298 C280 0.948 . S
O299 Zn289 2.039 . S
O299 C303 1.251 . S
O300 Zn281 2.025 . S
O300 C303 1.254 . S
O301 C282 1.246 . S
O301 Zn289 2.034 1_556 S
O302 Zn281 2.024 1_556 S
O302 C282 1.249 . S
C303 O299 1.251 . S
C303 O300 1.254 . S
H304 C277 0.949 . S
H305 C279 0.950 . S
H306 C286 0.949 . S
H307 C288 0.950 1_556 S
H308 C314 0.930 . S
H309 C317 0.930 . S
H310 C318 0.930 . S
H311 C319 0.930 . S
H312 C322 0.930 . S
H313 C323 0.930 . S
C314 H308 0.930 . S
C314 C315 1.355 . S
C314 C316 1.415 . S
C315 C314 1.355 . S
C315 C317 1.419 . S
C316 C314 1.415 . S
C316 C321 1.425 . S
C316 C323 1.409 . S
C317 H309 0.930 . S
C317 C315 1.419 . S
C317 C318 1.362 . S
C318 H310 0.930 . S
C318 C317 1.362 . S
C318 C321 1.409 . S
C319 H311 0.930 . S
C319 C320 1.355 . S
C319 C321 1.415 . S
C320 C319 1.355 . S
C320 C322 1.419 . S
C321 C316 1.425 . S
C321 C318 1.409 . S
C321 C319 1.415 . S
C322 H312 0.930 . S
C322 C320 1.419 . S
C322 C323 1.362 . S
C323 H313 0.930 . S
C323 C316 1.409 . S
C323 C322 1.362 . S
H324 C330 0.930 . S
H325 C333 0.930 . S
H326 C334 0.930 . S
H327 C335 0.930 1_556 S
H328 C338 0.930 . S
H329 C339 0.930 . S
C330 H324 0.930 . S
C330 C331 1.355 . S
C330 C332 1.415 . S
C331 C330 1.355 . S
C331 C333 1.419 1_554 S
C332 C330 1.415 . S
C332 C337 1.425 . S
C332 C339 1.409 . S
C333 H325 0.930 . S
C333 C331 1.419 1_556 S
C333 C334 1.362 . S
C334 H326 0.930 . S
C334 C333 1.362 . S
C334 C337 1.409 1_556 S
C335 H327 0.930 1_554 S
C335 C336 1.355 . S
C335 C337 1.415 . S
C336 C335 1.355 . S
C336 C338 1.419 . S
C337 C332 1.425 . S
C337 C334 1.409 1_554 S
C337 C335 1.415 . S
C338 H328 0.930 . S
C338 C336 1.419 . S
C338 C339 1.362 . S
C339 H329 0.930 . S
C339 C332 1.409 . S
C339 C338 1.362 . S
H340 C346 0.930 . S
H341 C349 0.930 . S
H342 C350 0.930 . S
H343 C351 0.930 . S
H344 C354 0.930 . S
H345 C355 0.930 . S
C346 H340 0.930 . S
C346 C347 1.355 . S
C346 C348 1.415 . S
C347 C346 1.355 . S
C347 C349 1.419 . S
C348 C346 1.415 . S
C348 C353 1.425 . S
C348 C355 1.409 . S
C349 H341 0.930 . S
C349 C347 1.419 . S
C349 C350 1.362 . S
C350 H342 0.930 . S
C350 C349 1.362 . S
C350 C353 1.409 . S
C351 H343 0.930 . S
C351 C352 1.355 . S
C351 C353 1.415 . S
C352 C351 1.355 . S
C352 C354 1.419 . S
C353 C348 1.425 . S
C353 C350 1.409 . S
C353 C351 1.415 . S
C354 H344 0.930 . S
C354 C352 1.419 . S
C354 C355 1.362 . S
C355 H345 0.930 . S
C355 C348 1.409 . S
C355 C354 1.362 . S
H356 C362 0.930 . S
H357 C365 0.930 . S
H358 C366 0.930 . S
H359 C367 0.930 1_556 S
H360 C370 0.930 . S
H361 C371 0.930 . S
C362 H356 0.930 . S
C362 C363 1.355 . S
C362 C364 1.415 . S
C363 C362 1.355 . S
C363 C365 1.419 1_554 S
C364 C362 1.415 . S
C364 C369 1.425 . S
C364 C371 1.409 . S
C365 H357 0.930 . S
C365 C363 1.419 1_556 S
C365 C366 1.362 . S
C366 H358 0.930 . S
C366 C365 1.362 . S
C366 C369 1.409 1_556 S
C367 H359 0.930 1_554 S
C367 C368 1.355 . S
C367 C369 1.415 . S
C368 C367 1.355 . S
C368 C370 1.419 . S
C369 C364 1.425 . S
C369 C366 1.409 1_554 S
C369 C367 1.415 . S
C370 H360 0.930 . S
C370 C368 1.419 . S
C370 C371 1.362 . S
C371 H361 0.930 . S
C371 C364 1.409 . S
C371 C370 1.362 . S
H372 C378 0.930 . S
H373 C381 0.930 . S
H374 C382 0.930 . S
H375 C383 0.930 . S
H376 C386 0.930 . S
H377 C387 0.930 . S
C378 H372 0.930 . S
C378 C379 1.355 . S
C378 C380 1.415 . S
C379 C378 1.355 . S
C379 C381 1.419 . S
C380 C378 1.415 . S
C380 C385 1.425 . S
C380 C387 1.409 . S
C381 H373 0.930 . S
C381 C379 1.419 . S
C381 C382 1.362 . S
C382 H374 0.930 . S
C382 C381 1.362 . S
C382 C385 1.409 . S
C383 H375 0.930 . S
C383 C384 1.355 . S
C383 C385 1.415 . S
C384 C383 1.355 . S
C384 C386 1.419 . S
C385 C380 1.425 . S
C385 C382 1.409 . S
C385 C383 1.415 . S
C386 H376 0.930 . S
C386 C384 1.419 . S
C386 C387 1.362 . S
C387 H377 0.930 . S
C387 C380 1.409 . S
C387 C386 1.362 . S
H388 C394 0.930 . S
H389 C397 0.930 . S
H390 C398 0.930 . S
H391 C399 0.930 . S
H392 C402 0.930 . S
H393 C403 0.930 . S
C394 H388 0.930 . S
C394 C395 1.355 . S
C394 C396 1.415 . S
C395 C394 1.355 . S
C395 C397 1.419 . S
C396 C394 1.415 . S
C396 C401 1.425 . S
C396 C403 1.409 . S
C397 H389 0.930 . S
C397 C395 1.419 . S
C397 C398 1.362 . S
C398 H390 0.930 . S
C398 C397 1.362 . S
C398 C401 1.409 . S
C399 H391 0.930 . S
C399 C400 1.355 . S
C399 C401 1.415 . S
C400 C399 1.355 . S
C400 C402 1.419 . S
C401 C396 1.425 . S
C401 C398 1.409 . S
C401 C399 1.415 . S
C402 H392 0.930 . S
C402 C400 1.419 . S
C402 C403 1.362 . S
C403 H393 0.930 . S
C403 C396 1.409 . S
C403 C402 1.362 . S
H404 C410 0.930 . S
H405 C413 0.930 . S
H406 C414 0.951 . S
H407 C415 0.930 . S
H408 C418 0.930 . S
H409 C419 0.930 . S
C410 H404 0.930 . S
C410 C411 1.355 . S
C410 C412 1.415 . S
C411 C410 1.355 . S
C411 C413 1.419 . S
C412 C410 1.415 . S
C412 C417 1.425 . S
C412 C419 1.409 . S
C413 H405 0.930 . S
C413 C411 1.419 . S
C413 C414 1.362 . S
C414 H406 0.951 . S
C414 C413 1.362 . S
C414 C417 1.409 . S
C415 H407 0.930 . S
C415 C416 1.355 . S
C415 C417 1.415 . S
C416 C415 1.355 . S
C416 C418 1.419 . S
C417 C412 1.425 . S
C417 C414 1.409 . S
C417 C415 1.415 . S
C418 H408 0.930 . S
C418 C416 1.419 . S
C418 C419 1.362 . S
C419 H409 0.930 . S
C419 C412 1.409 . S
C419 C418 1.362 . S
H420 C426 0.930 . S
H421 C429 0.930 . S
H422 C430 0.930 . S
H423 C431 0.930 . S
H424 C434 0.930 . S
H425 C435 0.930 . S
C426 H420 0.930 . S
C426 C427 1.355 . S
C426 C428 1.415 . S
C427 C426 1.355 . S
C427 C429 1.419 . S
C428 C426 1.415 . S
C428 C433 1.425 . S
C428 C435 1.409 . S
C429 H421 0.930 . S
C429 C427 1.419 . S
C429 C430 1.362 . S
C430 H422 0.930 . S
C430 C429 1.362 . S
C430 C433 1.409 . S
C431 H423 0.930 . S
C431 C432 1.355 . S
C431 C433 1.415 . S
C432 C431 1.355 . S
C432 C434 1.419 . S
C433 C428 1.425 . S
C433 C430 1.409 . S
C433 C431 1.415 . S
C434 H424 0.930 . S
C434 C432 1.419 . S
C434 C435 1.362 . S
C435 H425 0.930 . S
C435 C428 1.409 . S
C435 C434 1.362 . S
H436 C442 0.930 . S
H437 C445 0.930 . S
H438 C446 0.930 . S
H439 C447 0.930 . S
H440 C450 0.930 . S
H441 C451 0.930 . S
C442 H436 0.930 . S
C442 C443 1.355 . S
C442 C444 1.415 . S
C443 C442 1.355 . S
C443 C445 1.419 . S
C444 C442 1.415 . S
C444 C449 1.425 . S
C444 C451 1.409 . S
C445 H437 0.930 . S
C445 C443 1.419 . S
C445 C446 1.362 . S
C446 H438 0.930 . S
C446 C445 1.362 . S
C446 C449 1.409 . S
C447 H439 0.930 . S
C447 C448 1.355 . S
C447 C449 1.415 . S
C448 C447 1.355 . S
C448 C450 1.419 . S
C449 C444 1.425 . S
C449 C446 1.409 . S
C449 C447 1.415 . S
C450 H440 0.930 . S
C450 C448 1.419 . S
C450 C451 1.362 . S
C451 H441 0.930 . S
C451 C444 1.409 . S
C451 C450 1.362 . S
H452 C458 0.930 . S
H453 C461 0.930 1_455 S
H454 C462 0.930 . S
H455 C463 0.930 1_455 S
H456 C466 0.930 . S
H457 C467 0.930 . S
C458 H452 0.930 . S
C458 C459 1.355 . S
C458 C460 1.415 . S
C459 C458 1.355 . S
C459 C461 1.419 . S
C460 C458 1.415 . S
C460 C465 1.425 . S
C460 C467 1.409 . S
C461 H453 0.930 1_655 S
C461 C459 1.419 . S
C461 C462 1.362 1_655 S
C462 H454 0.930 . S
C462 C461 1.362 1_455 S
C462 C465 1.409 1_455 S
C463 H455 0.930 1_655 S
C463 C464 1.355 . S
C463 C465 1.415 . S
C464 C463 1.355 . S
C464 C466 1.419 . S
C465 C460 1.425 . S
C465 C462 1.409 1_655 S
C465 C463 1.415 . S
C466 H456 0.930 . S
C466 C464 1.419 . S
C466 C467 1.362 . S
C467 H457 0.930 . S
C467 C460 1.409 . S
C467 C466 1.362 . S
H468 C474 0.930 . S
H469 C477 0.930 . S
H470 C478 0.930 . S
H471 C479 0.930 . S
H472 C482 0.930 . S
H473 C483 0.930 . S
C474 H468 0.930 . S
C474 C475 1.355 . S
C474 C476 1.415 . S
C475 C474 1.355 . S
C475 C477 1.419 . S
C476 C474 1.415 . S
C476 C481 1.425 . S
C476 C483 1.409 . S
C477 H469 0.930 . S
C477 C475 1.419 . S
C477 C478 1.362 . S
C478 H470 0.930 . S
C478 C477 1.362 . S
C478 C481 1.409 . S
C479 H471 0.930 . S
C479 C480 1.355 . S
C479 C481 1.415 . S
C480 C479 1.355 . S
C480 C482 1.419 . S
C481 C476 1.425 . S
C481 C478 1.409 . S
C481 C479 1.415 . S
C482 H472 0.930 . S
C482 C480 1.419 . S
C482 C483 1.362 . S
C483 H473 0.930 . S
C483 C476 1.409 . S
C483 C482 1.362 . S
H484 C490 0.930 . S
H485 C493 0.930 . S
H486 C494 0.930 . S
H487 C495 0.930 . S
H488 C498 0.930 1_655 S
H489 C499 0.930 1_655 S
C490 H484 0.930 . S
C490 C491 1.355 . S
C490 C492 1.415 . S
C491 C490 1.355 . S
C491 C493 1.419 . S
C492 C490 1.415 . S
C492 C497 1.425 . S
C492 C499 1.409 . S
C493 H485 0.930 . S
C493 C491 1.419 . S
C493 C494 1.362 . S
C494 H486 0.930 . S
C494 C493 1.362 . S
C494 C497 1.409 . S
C495 H487 0.930 . S
C495 C496 1.355 . S
C495 C497 1.415 . S
C496 C495 1.355 . S
C496 C498 1.419 . S
C497 C492 1.425 . S
C497 C494 1.409 . S
C497 C495 1.415 . S
C498 H488 0.930 1_455 S
C498 C496 1.419 . S
C498 C499 1.362 . S
C499 H489 0.930 1_455 S
C499 C492 1.409 . S
C499 C498 1.362 . S
C320 C244 1.648 . S
C315 C211 1.539 . S
C331 C31 1.554 . S
C336 C287 1.590 . S
C347 C91 1.645 . S
C352 C253 1.663 . S
C363 C151 1.549 . S
C368 C278 1.585 . S
C384 C240 1.657 . S
C379 C20 1.644 . S
C400 C282 1.748 . S
C395 C61 1.679 . S
C411 C121 1.511 . S
C416 C248 1.635 . S
C427 C200 1.604 . S
C432 C274 1.729 . S
C448 C303 1.745 . S
C443 C80 1.716 . S
C464 C269 1.660 . S
C459 C140 1.613 . S
C480 C291 1.741 . S
C475 C181 1.595 . S
C491 C1 1.613 . S
C496 C257 1.632 . S
