# Generated by pormake.
# Topology csq, (4,8)-cn, num edge types: 1
# Building blocks:
#     Node 0, Type 0, BuildingBlock: NAHDIM_clean_linker_0, # of connection points: 4
#     Node 1, Type 0, BuildingBlock: NAHDIM_clean_linker_0, # of connection points: 4
#     Node 2, Type 0, BuildingBlock: NAHDIM_clean_linker_0, # of connection points: 4
#     Node 3, Type 0, BuildingBlock: NAHDIM_clean_linker_0, # of connection points: 4
#     Node 4, Type 0, BuildingBlock: NAHDIM_clean_linker_0, # of connection points: 4
#     Node 5, Type 0, BuildingBlock: NAHDIM_clean_linker_0, # of connection points: 4
#     Node 6, Type 1, BuildingBlock: TAGTUT_clean_sbu_1, # of connection points: 8
#     Node 7, Type 1, BuildingBlock: TAGTUT_clean_sbu_1, # of connection points: 8
#     Node 8, Type 1, BuildingBlock: TAGTUT_clean_sbu_1, # of connection points: 8
#     Edge 9, Type (0, 1), BuildingBlock: TEMPAE_clean_linker_10, # of connection points: 2
#     Edge 10, Type (0, 1), BuildingBlock: TEMPAE_clean_linker_10, # of connection points: 2
#     Edge 11, Type (0, 1), BuildingBlock: TEMPAE_clean_linker_10, # of connection points: 2
#     Edge 12, Type (0, 1), BuildingBlock: TEMPAE_clean_linker_10, # of connection points: 2
#     Edge 13, Type (0, 1), BuildingBlock: TEMPAE_clean_linker_10, # of connection points: 2
#     Edge 14, Type (0, 1), BuildingBlock: TEMPAE_clean_linker_10, # of connection points: 2
#     Edge 15, Type (0, 1), BuildingBlock: TEMPAE_clean_linker_10, # of connection points: 2
#     Edge 16, Type (0, 1), BuildingBlock: TEMPAE_clean_linker_10, # of connection points: 2
#     Edge 17, Type (0, 1), BuildingBlock: TEMPAE_clean_linker_10, # of connection points: 2
#     Edge 18, Type (0, 1), BuildingBlock: TEMPAE_clean_linker_10, # of connection points: 2
#     Edge 19, Type (0, 1), BuildingBlock: TEMPAE_clean_linker_10, # of connection points: 2
#     Edge 20, Type (0, 1), BuildingBlock: TEMPAE_clean_linker_10, # of connection points: 2
#     Edge 21, Type (0, 1), BuildingBlock: TEMPAE_clean_linker_10, # of connection points: 2
#     Edge 22, Type (0, 1), BuildingBlock: TEMPAE_clean_linker_10, # of connection points: 2
#     Edge 23, Type (0, 1), BuildingBlock: TEMPAE_clean_linker_10, # of connection points: 2
#     Edge 24, Type (0, 1), BuildingBlock: TEMPAE_clean_linker_10, # of connection points: 2
#     Edge 25, Type (0, 1), BuildingBlock: TEMPAE_clean_linker_10, # of connection points: 2
#     Edge 26, Type (0, 1), BuildingBlock: TEMPAE_clean_linker_10, # of connection points: 2
#     Edge 27, Type (0, 1), BuildingBlock: TEMPAE_clean_linker_10, # of connection points: 2
#     Edge 28, Type (0, 1), BuildingBlock: TEMPAE_clean_linker_10, # of connection points: 2
#     Edge 29, Type (0, 1), BuildingBlock: TEMPAE_clean_linker_10, # of connection points: 2
#     Edge 30, Type (0, 1), BuildingBlock: TEMPAE_clean_linker_10, # of connection points: 2
#     Edge 31, Type (0, 1), BuildingBlock: TEMPAE_clean_linker_10, # of connection points: 2
#     Edge 32, Type (0, 1), BuildingBlock: TEMPAE_clean_linker_10, # of connection points: 2
# Relax obj value: 0.050
# Max RMSD: 0.134
# Mean RMSD: 0.089
data_MOF--net-csq--node1-TAGTUT_clean_sbu_1--node2-NAHDIM_clean_linker_0--edge1-TEMPAE_clean_linker_10
_symmetry_space_group_name_H-M    P1
_symmetry_Int_Tables_number       1
_symmetry_cell_setting            triclinic
loop_
_symmetry_equiv_pos_as_xyz
'x, y, z'
_cell_length_a     68.474755
_cell_length_b     67.233018
_cell_length_c     27.103317
_cell_angle_alpha  92.253681
_cell_angle_beta   92.200897
_cell_angle_gamma 119.88185
loop_
_atom_site_label
_atom_site_type_symbol
_atom_site_fract_x
_atom_site_fract_y
_atom_site_fract_z
_atom_type_partial_charge
C0 C 0.3171 0.5185 0.51375 0.0
C1 C 0.32075 0.50453 0.47302 0.0
C2 C 0.3084 0.50567 0.38789 0.0
C3 C 0.2986 0.48236 0.372 0.0
C4 C 0.28235 0.47291 0.33185 0.0
C5 C 0.27575 0.48706 0.30733 0.0
C6 C 0.28659 0.51084 0.3216 0.0
C7 C 0.30306 0.5199 0.36131 0.0
C8 C 0.27159 0.4476 0.31686 0.0
C9 C 0.27993 0.52645 0.29662 0.0
C10 C 0.14783 0.41281 0.48034 0.0
C11 C 0.15033 0.43028 0.4429 0.0
C12 C 0.15965 0.4283 0.35825 0.0
C13 C 0.17009 0.45162 0.34882 0.0
C14 C 0.18665 0.46069 0.31434 0.0
C15 C 0.19313 0.44616 0.28953 0.0
C16 C 0.1816 0.42233 0.29691 0.0
C17 C 0.16463 0.41363 0.3306 0.0
C18 C 0.19807 0.48605 0.3065 0.0
C19 C 0.18822 0.40632 0.2718 0.0
C20 C 0.16179 0.42528 0.94424 0.0
C21 C 0.16816 0.44648 0.96921 0.0
C22 C 0.18587 0.45603 0.00639 0.0
C23 C 0.19691 0.44372 0.01957 0.0
C24 C 0.18996 0.42197 0.99514 0.0
C25 C 0.17276 0.41326 0.95706 0.0
C26 C 0.19332 0.4796 0.03019 0.0
C27 C 0.20106 0.40814 0.00832 0.0
C28 C 0.36657 0.49826 0.00166 0.0
C29 C 0.34932 0.48519 0.95793 0.0
C30 C 0.31666 0.48831 0.98248 0.0
C31 C 0.30744 0.50275 0.98198 0.0
C32 C 0.28914 0.49861 0.01015 0.0
C33 C 0.27934 0.47904 0.03835 0.0
C34 C 0.28843 0.46418 0.03869 0.0
C35 C 0.30726 0.46924 0.01171 0.0
C36 C 0.2801 0.51498 0.00907 0.0
C37 C 0.27791 0.44252 0.0664 0.0
C38 C 0.25541 0.47645 0.2722 0.0
C39 C 0.2345 0.46661 0.29282 0.0
C40 C 0.21432 0.4565 0.26329 0.0
C41 C 0.21485 0.45624 0.21116 0.0
C42 C 0.19491 0.44652 0.18018 0.0
C43 C 0.19565 0.4459 0.12885 0.0
C44 C 0.21636 0.45525 0.10661 0.0
C45 C 0.21734 0.45455 0.05453 0.0
C46 C 0.23822 0.46332 0.03395 0.0
C47 C 0.25834 0.47284 0.0636 0.0
C48 C 0.25781 0.47444 0.11569 0.0
C49 C 0.27778 0.48466 0.1467 0.0
C50 C 0.27707 0.48538 0.198 0.0
C51 C 0.25636 0.47605 0.22016 0.0
C52 C 0.23598 0.46594 0.18955 0.0
C53 C 0.23672 0.46534 0.13724 0.0
C54 C 0.108 0.38613 0.90581 0.0
C55 C 0.12386 0.41219 0.9095 0.0
O56 O 0.32292 0.51492 0.42871 0.0
O57 O 0.33423 0.49323 0.95377 0.0
O58 O 0.14578 0.4166 0.90619 0.0
O59 O 0.14558 0.41983 0.39543 0.0
H60 H 0.30558 0.487 0.4706 0.0
H61 H 0.3014 0.51896 0.50428 0.0
H62 H 0.33147 0.53646 0.51789 0.0
H63 H 0.31531 0.5105 0.54964 0.0
H64 H 0.30346 0.4715 0.39123 0.0
H65 H 0.31107 0.53797 0.37335 0.0
H66 H 0.25405 0.43852 0.32869 0.0
H67 H 0.28097 0.4398 0.33393 0.0
H68 H 0.27073 0.44485 0.27597 0.0
H69 H 0.29012 0.5446 0.3118 0.0
H70 H 0.26182 0.52044 0.30136 0.0
H71 H 0.28205 0.52578 0.25631 0.0
H72 H 0.16834 0.44429 0.44785 0.0
H73 H 0.15098 0.42072 0.5187 0.0
H74 H 0.16035 0.4072 0.47423 0.0
H75 H 0.1307 0.39737 0.47629 0.0
H76 H 0.1657 0.46283 0.36934 0.0
H77 H 0.15622 0.39557 0.33788 0.0
H78 H 0.20063 0.48902 0.26665 0.0
H79 H 0.21493 0.49493 0.32691 0.0
H80 H 0.18817 0.49389 0.32012 0.0
H81 H 0.17792 0.38835 0.2824 0.0
H82 H 0.20629 0.41232 0.28163 0.0
H83 H 0.18617 0.40648 0.23105 0.0
H84 H 0.12196 0.41901 0.94611 0.0
H85 H 0.1598 0.45586 0.95833 0.0
H86 H 0.1677 0.39693 0.93723 0.0
H87 H 0.19055 0.47839 0.07028 0.0
H88 H 0.184 0.48753 0.01345 0.0
H89 H 0.21167 0.4911 0.02655 0.0
H90 H 0.19099 0.39001 0.99301 0.0
H91 H 0.20351 0.40834 0.04912 0.0
H92 H 0.21794 0.41595 0.99306 0.0
H93 H 0.34021 0.46655 0.96394 0.0
H94 H 0.37862 0.49181 0.00596 0.0
H95 H 0.35783 0.49575 0.03649 0.0
H96 H 0.37615 0.51695 0.99599 0.0
H97 H 0.31475 0.51744 0.95951 0.0
H98 H 0.31398 0.45775 0.01295 0.0
H99 H 0.27677 0.51889 0.047 0.0
H100 H 0.26386 0.50682 0.98626 0.0
H101 H 0.29194 0.53136 0.99302 0.0
H102 H 0.28454 0.43095 0.05614 0.0
H103 H 0.25929 0.4329 0.05904 0.0
H104 H 0.2816 0.44714 0.10676 0.0
H105 H 0.23393 0.4668 0.33282 0.0
H106 H 0.17852 0.43914 0.19538 0.0
H107 H 0.17977 0.43796 0.10676 0.0
H108 H 0.23877 0.46207 0.99401 0.0
H109 H 0.29419 0.49213 0.13157 0.0
H110 H 0.29293 0.49325 0.22014 0.0
H111 H 0.0903 0.38187 0.91022 0.0
H112 H 0.11294 0.37829 0.93561 0.0
H113 H 0.10893 0.3785 0.86945 0.0
C114 C 0.81948 0.38564 0.36028 0.0
C115 C 0.82728 0.36797 0.35576 0.0
C116 C 0.81443 0.33587 0.29494 0.0
C117 C 0.82466 0.32402 0.31439 0.0
C118 C 0.81639 0.30075 0.29981 0.0
C119 C 0.79701 0.28901 0.26642 0.0
C120 C 0.78636 0.30094 0.24793 0.0
C121 C 0.79566 0.32441 0.26138 0.0
C122 C 0.82859 0.28892 0.31951 0.0
C123 C 0.76513 0.28903 0.21395 0.0
C124 C 0.76516 0.18392 0.52394 0.0
C125 C 0.74808 0.18265 0.48411 0.0
C126 C 0.75345 0.18478 0.39549 0.0
C127 C 0.73935 0.1935 0.38176 0.0
C128 C 0.74213 0.20467 0.33764 0.0
C129 C 0.75976 0.20772 0.30747 0.0
C130 C 0.77333 0.19797 0.32047 0.0
C131 C 0.76952 0.18611 0.3637 0.0
C132 C 0.7267 0.21393 0.32438 0.0
C133 C 0.79277 0.20118 0.2906 0.0
C134 C 0.72226 0.13327 0.9847 0.0
C135 C 0.71397 0.1481 0.99648 0.0
C136 C 0.72751 0.16897 0.02455 0.0
C137 C 0.74976 0.17506 0.04135 0.0
C138 C 0.75806 0.16002 0.02982 0.0
C139 C 0.74425 0.13944 0.00108 0.0
C140 C 0.71831 0.18488 0.0347 0.0
C141 C 0.78167 0.16591 0.04694 0.0
C142 C 0.89261 0.33129 0.02558 0.0
C143 C 0.88865 0.31878 0.97441 0.0
C144 C 0.8488 0.28909 0.97793 0.0
C145 C 0.82675 0.28443 0.96699 0.0
C146 C 0.80847 0.26687 0.98935 0.0
C147 C 0.81248 0.25353 0.02289 0.0
C148 C 0.83455 0.25712 0.03154 0.0
C149 C 0.8525 0.27492 0.00917 0.0
C150 C 0.7851 0.26328 0.9791 0.0
C151 C 0.83932 0.24275 0.06615 0.0
C152 C 0.78807 0.26449 0.24958 0.0
C153 C 0.77704 0.2476 0.28283 0.0
C154 C 0.76658 0.22416 0.26776 0.0
C155 C 0.76539 0.2174 0.21704 0.0
C156 C 0.7525 0.19426 0.19882 0.0
C157 C 0.75192 0.18794 0.14877 0.0
C158 C 0.76491 0.20444 0.11569 0.0
C159 C 0.76518 0.19838 0.0651 0.0
C160 C 0.78024 0.21492 0.035 0.0
C161 C 0.79436 0.23761 0.05339 0.0
C162 C 0.79259 0.24449 0.10207 0.0
C163 C 0.80515 0.26766 0.12008 0.0
C164 C 0.80352 0.27428 0.1682 0.0
C165 C 0.78983 0.2579 0.20059 0.0
C166 C 0.77772 0.23435 0.18376 0.0
C167 C 0.7783 0.22775 0.13374 0.0
C168 C 0.68159 0.07464 0.96787 0.0
C169 C 0.68654 0.0989 0.95773 0.0
O170 O 0.82246 0.35843 0.30758 0.0
O171 O 0.86594 0.30766 0.95864 0.0
O172 O 0.70967 0.11318 0.95688 0.0
O173 O 0.75222 0.17524 0.43928 0.0
H174 H 0.81743 0.35436 0.38137 0.0
H175 H 0.80108 0.37718 0.35016 0.0
H176 H 0.82853 0.39965 0.33518 0.0
H177 H 0.82266 0.3932 0.39897 0.0
H178 H 0.83942 0.33309 0.33999 0.0
H179 H 0.78792 0.33381 0.24674 0.0
H180 H 0.81832 0.27674 0.34692 0.0
H181 H 0.84537 0.30133 0.33796 0.0
H182 H 0.83093 0.27888 0.28913 0.0
H183 H 0.75618 0.29899 0.21283 0.0
H184 H 0.75339 0.27159 0.22577 0.0
H185 H 0.76959 0.28712 0.17581 0.0
H186 H 0.75073 0.20036 0.48215 0.0
H187 H 0.76271 0.19041 0.56017 0.0
H188 H 0.78258 0.19588 0.51368 0.0
H189 H 0.76332 0.16668 0.5278 0.0
H190 H 0.72633 0.19174 0.40564 0.0
H191 H 0.78003 0.17894 0.37445 0.0
H192 H 0.7229 0.21224 0.28372 0.0
H193 H 0.73515 0.23245 0.33671 0.0
H194 H 0.71058 0.20489 0.34279 0.0
H195 H 0.8036 0.19553 0.30987 0.0
H196 H 0.80346 0.21951 0.28274 0.0
H197 H 0.78611 0.19095 0.25468 0.0
H198 H 0.67991 0.10442 0.98914 0.0
H199 H 0.69717 0.14374 0.98256 0.0
H200 H 0.75055 0.12795 0.99148 0.0
H201 H 0.71819 0.18783 0.07524 0.0
H202 H 0.70089 0.1779 0.01791 0.0
H203 H 0.72941 0.20182 0.01987 0.0
H204 H 0.78418 0.15085 0.04256 0.0
H205 H 0.78544 0.17251 0.08638 0.0
H206 H 0.79397 0.17969 0.02481 0.0
H207 H 0.89446 0.30604 0.97629 0.0
H208 H 0.91091 0.34076 0.03733 0.0
H209 H 0.88369 0.31883 0.05367 0.0
H210 H 0.88634 0.34367 0.02479 0.0
H211 H 0.82401 0.29524 0.94232 0.0
H212 H 0.86935 0.27786 0.01718 0.0
H213 H 0.77907 0.26711 0.01372 0.0
H214 H 0.77322 0.24502 0.96674 0.0
H215 H 0.7846 0.27439 0.95038 0.0
H216 H 0.85669 0.24562 0.06387 0.0
H217 H 0.82706 0.2242 0.05758 0.0
H218 H 0.83731 0.24719 0.1048 0.0
H219 H 0.77703 0.25277 0.32124 0.0
H220 H 0.74255 0.18092 0.22308 0.0
H221 H 0.74162 0.16995 0.13646 0.0
H222 H 0.78122 0.21 0.99696 0.0
H223 H 0.81615 0.28101 0.09697 0.0
H224 H 0.81348 0.29237 0.17998 0.0
H225 H 0.6631 0.06279 0.96831 0.0
H226 H 0.68959 0.07495 0.00456 0.0
H227 H 0.68842 0.06792 0.93928 0.0
C228 C 0.5873 0.897 0.26824 0.0
C229 C 0.57099 0.89676 0.22721 0.0
C230 C 0.55187 0.85614 0.19567 0.0
C231 C 0.57083 0.85704 0.17523 0.0
C232 C 0.56994 0.83712 0.15478 0.0
C233 C 0.54926 0.81599 0.15194 0.0
C234 C 0.52995 0.81509 0.17127 0.0
C235 C 0.53162 0.83517 0.19343 0.0
C236 C 0.59123 0.83888 0.1361 0.0
C237 C 0.50753 0.79301 0.1682 0.0
C238 C 0.51102 0.67936 0.30946 0.0
C239 C 0.51686 0.66861 0.26544 0.0
C240 C 0.5387 0.7032 0.22007 0.0
C241 C 0.5202 0.70405 0.19822 0.0
C242 C 0.52345 0.72268 0.17114 0.0
C243 C 0.5456 0.74096 0.16629 0.0
C244 C 0.56425 0.74045 0.18914 0.0
C245 C 0.56053 0.72137 0.21518 0.0
C246 C 0.50318 0.72268 0.14709 0.0
C247 C 0.58806 0.75989 0.18545 0.0
C248 C 0.59639 0.71773 0.89623 0.0
C249 C 0.5729 0.70817 0.89391 0.0
C250 C 0.56332 0.7222 0.90137 0.0
C251 C 0.57763 0.74606 0.91351 0.0
C252 C 0.60134 0.75582 0.91293 0.0
C253 C 0.61038 0.7415 0.90325 0.0
C254 C 0.53797 0.71135 0.8988 0.0
C255 C 0.61723 0.78121 0.92465 0.0
C256 C 0.55697 0.88358 0.9304 0.0
C257 C 0.5634 0.88585 0.87643 0.0
C258 C 0.5576 0.84705 0.86017 0.0
C259 C 0.54018 0.82447 0.849 0.0
C260 C 0.542 0.80582 0.86493 0.0
C261 C 0.56194 0.81 0.8918 0.0
C262 C 0.58062 0.83263 0.89794 0.0
C263 C 0.57821 0.85099 0.88243 0.0
C264 C 0.52194 0.78186 0.85686 0.0
C265 C 0.60246 0.83765 0.92484 0.0
C266 C 0.54792 0.79523 0.12703 0.0
C267 C 0.54719 0.77817 0.1561 0.0
C268 C 0.54908 0.75992 0.13505 0.0
C269 C 0.55325 0.75938 0.08448 0.0
C270 C 0.55769 0.74275 0.06332 0.0
C271 C 0.56296 0.7432 0.0142 0.0
C272 C 0.56267 0.75944 0.98337 0.0
C273 C 0.56825 0.76025 0.93338 0.0
C274 C 0.5673 0.77639 0.90367 0.0
C275 C 0.56143 0.79216 0.92308 0.0
C276 C 0.55643 0.79197 0.97327 0.0
C277 C 0.55103 0.808 0.99425 0.0
C278 C 0.54789 0.80889 0.0444 0.0
C279 C 0.54952 0.79346 0.0754 0.0
C280 C 0.55317 0.77607 0.05441 0.0
C281 C 0.55718 0.77566 0.00349 0.0
C282 C 0.62164 0.68689 0.94134 0.0
C283 C 0.60005 0.68493 0.91763 0.0
O284 O 0.5524 0.87487 0.21831 0.0
O285 O 0.55353 0.86442 0.85087 0.0
O286 O 0.60605 0.70445 0.89218 0.0
O287 O 0.53634 0.68534 0.24614 0.0
H288 H 0.5799 0.90247 0.19259 0.0
H289 H 0.59425 0.88584 0.2573 0.0
H290 H 0.57853 0.89081 0.30278 0.0
H291 H 0.60177 0.91473 0.27619 0.0
H292 H 0.58653 0.87315 0.17532 0.0
H293 H 0.51702 0.83461 0.20899 0.0
H294 H 0.59268 0.82368 0.14514 0.0
H295 H 0.60659 0.85462 0.15209 0.0
H296 H 0.59079 0.8396 0.09527 0.0
H297 H 0.49356 0.79584 0.17892 0.0
H298 H 0.50852 0.78086 0.19332 0.0
H299 H 0.50348 0.78478 0.13003 0.0
H300 H 0.50265 0.6611 0.23657 0.0
H301 H 0.49507 0.66651 0.32472 0.0
H302 H 0.50864 0.69369 0.29773 0.0
H303 H 0.52484 0.68624 0.33922 0.0
H304 H 0.50317 0.69019 0.20154 0.0
H305 H 0.5747 0.72062 0.23229 0.0
H306 H 0.50483 0.72403 0.10659 0.0
H307 H 0.50243 0.7379 0.16192 0.0
H308 H 0.48706 0.70694 0.1535 0.0
H309 H 0.60046 0.75802 0.20955 0.0
H310 H 0.58919 0.77659 0.19588 0.0
H311 H 0.59277 0.76039 0.1466 0.0
H312 H 0.5892 0.68398 0.94816 0.0
H313 H 0.56212 0.68976 0.88674 0.0
H314 H 0.6285 0.74865 0.9038 0.0
H315 H 0.53209 0.70884 0.93684 0.0
H316 H 0.52955 0.69432 0.87775 0.0
H317 H 0.53265 0.72269 0.88119 0.0
H318 H 0.63523 0.78577 0.92598 0.0
H319 H 0.61375 0.78673 0.96084 0.0
H320 H 0.61447 0.79103 0.89592 0.0
H321 H 0.58207 0.8943 0.87594 0.0
H322 H 0.56405 0.90087 0.94985 0.0
H323 H 0.56392 0.8741 0.95028 0.0
H324 H 0.53833 0.87414 0.9322 0.0
H325 H 0.52453 0.82158 0.83073 0.0
H326 H 0.5922 0.86833 0.88948 0.0
H327 H 0.51441 0.77598 0.89273 0.0
H328 H 0.52738 0.76977 0.84278 0.0
H329 H 0.50876 0.78108 0.83034 0.0
H330 H 0.61657 0.85495 0.91786 0.0
H331 H 0.60702 0.82453 0.91343 0.0
H332 H 0.60034 0.83696 0.96526 0.0
H333 H 0.54532 0.77918 0.19553 0.0
H334 H 0.55787 0.72962 0.08487 0.0
H335 H 0.56716 0.73051 0.00087 0.0
H336 H 0.57186 0.77717 0.86562 0.0
H337 H 0.54959 0.82042 0.97249 0.0
H338 H 0.54423 0.82187 0.05863 0.0
H339 H 0.63283 0.68719 0.91238 0.0
H340 H 0.61766 0.67227 0.96461 0.0
H341 H 0.63089 0.70305 0.96544 0.0
C342 C 0.85326 0.57612 0.43847 0.0
C343 C 0.85372 0.55924 0.39968 0.0
C344 C 0.84671 0.56279 0.31222 0.0
C345 C 0.83272 0.53946 0.29704 0.0
C346 C 0.81802 0.53282 0.25439 0.0
C347 C 0.81729 0.54987 0.22663 0.0
C348 C 0.83248 0.57341 0.24018 0.0
C349 C 0.84725 0.57953 0.28251 0.0
C350 C 0.80258 0.50757 0.24028 0.0
C351 C 0.83222 0.59211 0.21162 0.0
C352 C 0.64758 0.47238 0.25044 0.0
C353 C 0.66488 0.48896 0.29125 0.0
C354 C 0.69826 0.5144 0.24655 0.0
C355 C 0.71189 0.53697 0.23354 0.0
C356 C 0.73153 0.54335 0.20844 0.0
C357 C 0.73744 0.52656 0.19529 0.0
C358 C 0.72343 0.50355 0.20716 0.0
C359 C 0.70412 0.49772 0.23301 0.0
C360 C 0.74624 0.56811 0.19699 0.0
C361 C 0.72918 0.48517 0.19348 0.0
C362 C 0.72028 0.53082 0.85736 0.0
C363 C 0.7387 0.55246 0.87345 0.0
C364 C 0.75471 0.55453 0.91023 0.0
C365 C 0.75274 0.53451 0.93015 0.0
C366 C 0.73478 0.51263 0.91249 0.0
C367 C 0.71866 0.51112 0.87661 0.0
C368 C 0.77383 0.57815 0.92761 0.0
C369 C 0.73269 0.49086 0.93127 0.0
C370 C 0.88637 0.58455 0.81227 0.0
C371 C 0.89482 0.57152 0.84405 0.0
C372 C 0.86261 0.55063 0.89604 0.0
C373 C 0.86426 0.56995 0.92225 0.0
C374 C 0.84722 0.56762 0.95289 0.0
C375 C 0.82873 0.54547 0.95901 0.0
C376 C 0.82814 0.5259 0.93606 0.0
C377 C 0.84498 0.52879 0.90451 0.0
C378 C 0.84835 0.5889 0.97652 0.0
C379 C 0.80905 0.50195 0.94265 0.0
C380 C 0.7985 0.5433 0.1887 0.0
C381 C 0.77767 0.5383 0.20595 0.0
C382 C 0.75929 0.53331 0.17341 0.0
C383 C 0.76185 0.5341 0.12189 0.0
C384 C 0.74411 0.53051 0.08815 0.0
C385 C 0.74693 0.53167 0.03754 0.0
C386 C 0.76734 0.53567 0.01865 0.0
C387 C 0.77028 0.53654 0.96726 0.0
C388 C 0.79056 0.53999 0.94981 0.0
C389 C 0.80832 0.54287 0.98206 0.0
C390 C 0.806 0.54267 0.03372 0.0
C391 C 0.82362 0.54594 0.06748 0.0
C392 C 0.82128 0.54627 0.11835 0.0
C393 C 0.80105 0.5428 0.1372 0.0
C394 C 0.78275 0.53863 0.10372 0.0
C395 C 0.78537 0.53898 0.052 0.0
C396 C 0.69267 0.55564 0.84981 0.0
C397 C 0.69964 0.54512 0.80726 0.0
O398 O 0.85971 0.56977 0.35537 0.0
O399 O 0.87696 0.55207 0.8612 0.0
O400 O 0.70366 0.52813 0.82388 0.0
O401 O 0.67981 0.50962 0.27206 0.0
H402 H 0.83638 0.54401 0.39576 0.0
H403 H 0.84065 0.58099 0.42603 0.0
H404 H 0.87006 0.59198 0.44409 0.0
H405 H 0.84841 0.56807 0.47434 0.0
H406 H 0.83306 0.52644 0.31877 0.0
H407 H 0.8585 0.59749 0.29409 0.0
H408 H 0.78537 0.50243 0.25155 0.0
H409 H 0.80836 0.49676 0.25873 0.0
H410 H 0.80147 0.50408 0.19957 0.0
H411 H 0.84491 0.60959 0.22744 0.0
H412 H 0.81523 0.59041 0.21155 0.0
H413 H 0.83571 0.59031 0.17256 0.0
H414 H 0.67436 0.48102 0.30734 0.0
H415 H 0.63554 0.45593 0.26596 0.0
H416 H 0.65606 0.46846 0.22066 0.0
H417 H 0.63798 0.48001 0.23363 0.0
H418 H 0.70727 0.54974 0.24398 0.0
H419 H 0.69387 0.48016 0.24261 0.0
H420 H 0.74825 0.5692 0.15657 0.0
H421 H 0.76331 0.57508 0.21569 0.0
H422 H 0.73915 0.57906 0.20912 0.0
H423 H 0.71544 0.46769 0.20068 0.0
H424 H 0.74475 0.48868 0.2153 0.0
H425 H 0.7326 0.48545 0.15372 0.0
H426 H 0.71515 0.55876 0.7918 0.0
H427 H 0.74069 0.56785 0.85775 0.0
H428 H 0.7046 0.49447 0.86351 0.0
H429 H 0.7754 0.58021 0.96868 0.0
H430 H 0.77144 0.59207 0.91303 0.0
H431 H 0.78994 0.58021 0.91509 0.0
H432 H 0.71888 0.47519 0.91075 0.0
H433 H 0.72928 0.49005 0.97105 0.0
H434 H 0.74881 0.49086 0.92797 0.0
H435 H 0.90569 0.58325 0.87603 0.0
H436 H 0.90059 0.59827 0.79359 0.0
H437 H 0.87915 0.59293 0.83535 0.0
H438 H 0.87305 0.57275 0.78382 0.0
H439 H 0.87833 0.58692 0.91785 0.0
H440 H 0.84406 0.51394 0.88496 0.0
H441 H 0.84809 0.58797 0.01729 0.0
H442 H 0.83331 0.58991 0.96343 0.0
H443 H 0.86377 0.6049 0.96789 0.0
H444 H 0.81319 0.48858 0.93044 0.0
H445 H 0.79377 0.49897 0.92037 0.0
H446 H 0.8049 0.49995 0.98202 0.0
H447 H 0.77572 0.53827 0.24552 0.0
H448 H 0.72795 0.52709 0.10062 0.0
H449 H 0.73283 0.52916 0.01332 0.0
H450 H 0.79255 0.54041 0.91024 0.0
H451 H 0.8395 0.54856 0.05489 0.0
H452 H 0.83545 0.54912 0.1428 0.0
H453 H 0.68873 0.56868 0.83598 0.0
H454 H 0.70636 0.56438 0.87948 0.0
H455 H 0.67751 0.54206 0.86635 0.0
C456 C 0.34649 0.85302 0.84429 0.0
C457 C 0.32797 0.85265 0.80949 0.0
C458 C 0.29756 0.84176 0.8667 0.0
C459 C 0.28509 0.84947 0.89273 0.0
C460 C 0.26927 0.83559 0.92572 0.0
C461 C 0.26663 0.81377 0.93459 0.0
C462 C 0.27905 0.80576 0.90792 0.0
C463 C 0.29381 0.81952 0.8733 0.0
C464 C 0.25541 0.84432 0.95075 0.0
C465 C 0.27672 0.78255 0.91548 0.0
C466 C 0.10469 0.67362 0.97288 0.0
C467 C 0.11409 0.67316 0.92258 0.0
C468 C 0.15512 0.6998 0.93527 0.0
C469 C 0.17603 0.70093 0.93991 0.0
C470 C 0.19599 0.72194 0.95086 0.0
C471 C 0.19495 0.74235 0.95731 0.0
C472 C 0.17401 0.74157 0.94989 0.0
C473 C 0.15426 0.72029 0.93909 0.0
C474 C 0.21804 0.72214 0.95841 0.0
C475 C 0.17237 0.76307 0.95633 0.0
C476 C 0.18024 0.72937 0.27669 0.0
C477 C 0.20031 0.72937 0.26931 0.0
C478 C 0.21699 0.74594 0.24173 0.0
C479 C 0.21357 0.76317 0.22174 0.0
C480 C 0.19371 0.76388 0.23071 0.0
C481 C 0.17711 0.74682 0.25756 0.0
C482 C 0.23798 0.74469 0.23284 0.0
C483 C 0.18976 0.78233 0.21079 0.0
C484 C 0.34684 0.92574 0.27617 0.0
C485 C 0.34034 0.90785 0.31502 0.0
C486 C 0.32067 0.87107 0.26413 0.0
C487 C 0.32239 0.85222 0.24663 0.0
C488 C 0.30478 0.83405 0.21709 0.0
C489 C 0.28502 0.83493 0.20438 0.0
C490 C 0.28335 0.85423 0.22084 0.0
C491 C 0.30112 0.87206 0.25079 0.0
C492 C 0.30701 0.81361 0.20068 0.0
C493 C 0.26249 0.85569 0.20784 0.0
C494 C 0.25018 0.79876 0.96974 0.0
C495 C 0.23041 0.77928 0.94967 0.0
C496 C 0.21486 0.76354 0.98011 0.0
C497 C 0.21863 0.76744 0.03205 0.0
C498 C 0.20321 0.7518 0.06348 0.0
C499 C 0.20696 0.75557 0.11445 0.0
C500 C 0.22618 0.77523 0.13619 0.0
C501 C 0.22987 0.77928 0.18811 0.0
C502 C 0.24916 0.79885 0.20876 0.0
C503 C 0.26513 0.8146 0.17886 0.0
C504 C 0.26181 0.81082 0.12666 0.0
C505 C 0.27764 0.82604 0.09529 0.0
C506 C 0.27409 0.822 0.04392 0.0
C507 C 0.25432 0.80289 0.02193 0.0
C508 C 0.23831 0.78723 0.05304 0.0
C509 C 0.24211 0.79113 0.10532 0.0
C510 C 0.14306 0.72313 0.35332 0.0
C511 C 0.14278 0.70765 0.30981 0.0
O512 O 0.31302 0.85634 0.83621 0.0
O513 O 0.33817 0.88766 0.29384 0.0
O514 O 0.16452 0.71227 0.3023 0.0
O515 O 0.1364 0.67859 0.92868 0.0
H516 H 0.31855 0.83571 0.78805 0.0
H517 H 0.33947 0.83877 0.86929 0.0
H518 H 0.35548 0.86943 0.86763 0.0
H519 H 0.35895 0.85116 0.82237 0.0
H520 H 0.2877 0.86646 0.88686 0.0
H521 H 0.30245 0.81272 0.85198 0.0
H522 H 0.23759 0.83037 0.95179 0.0
H523 H 0.25572 0.8588 0.93173 0.0
H524 H 0.26234 0.85054 0.98946 0.0
H525 H 0.29114 0.7813 0.90155 0.0
H526 H 0.26104 0.76904 0.8949 0.0
H527 H 0.27552 0.77894 0.95522 0.0
H528 H 0.11269 0.68594 0.90009 0.0
H529 H 0.08626 0.66714 0.96817 0.0
H530 H 0.11299 0.69149 0.98972 0.0
H531 H 0.1078 0.66304 0.99902 0.0
H532 H 0.17656 0.68509 0.93649 0.0
H533 H 0.13829 0.71988 0.93533 0.0
H534 H 0.22419 0.72669 0.99799 0.0
H535 H 0.23099 0.73541 0.93644 0.0
H536 H 0.21635 0.70521 0.94762 0.0
H537 H 0.15547 0.76013 0.94354 0.0
H538 H 0.18539 0.77695 0.93554 0.0
H539 H 0.17567 0.76916 0.99606 0.0
H540 H 0.13529 0.71068 0.27576 0.0
H541 H 0.20266 0.71597 0.28445 0.0
H542 H 0.16178 0.74726 0.26305 0.0
H543 H 0.23952 0.74303 0.19244 0.0
H544 H 0.2379 0.72997 0.25024 0.0
H545 H 0.25311 0.76084 0.248 0.0
H546 H 0.17509 0.78244 0.22668 0.0
H547 H 0.18654 0.77941 0.16998 0.0
H548 H 0.20499 0.79952 0.21893 0.0
H549 H 0.32414 0.90431 0.33028 0.0
H550 H 0.34848 0.9419 0.2929 0.0
H551 H 0.36314 0.92961 0.26107 0.0
H552 H 0.33377 0.91935 0.245 0.0
H553 H 0.33753 0.85162 0.25698 0.0
H554 H 0.29942 0.88648 0.2639 0.0
H555 H 0.30454 0.81078 0.15974 0.0
H556 H 0.29365 0.79791 0.21633 0.0
H557 H 0.32373 0.81583 0.21252 0.0
H558 H 0.26472 0.87282 0.21893 0.0
H559 H 0.24807 0.84243 0.22683 0.0
H560 H 0.25806 0.8521 0.16739 0.0
H561 H 0.22732 0.77605 0.90981 0.0
H562 H 0.188 0.73638 0.04919 0.0
H563 H 0.1945 0.74283 0.13655 0.0
H564 H 0.2518 0.80187 0.24873 0.0
H565 H 0.293 0.84117 0.11019 0.0
H566 H 0.287 0.83412 0.02167 0.0
H567 H 0.15045 0.72033 0.38776 0.0
H568 H 0.12562 0.71935 0.35941 0.0
H569 H 0.15326 0.74153 0.34583 0.0
C570 C 0.41058 0.28744 0.43495 0.0
C571 C 0.43429 0.29813 0.41629 0.0
C572 C 0.44686 0.28357 0.34864 0.0
C573 C 0.47033 0.29698 0.35803 0.0
C574 C 0.48477 0.29037 0.33665 0.0
C575 C 0.4754 0.26956 0.30659 0.0
C576 C 0.45162 0.25574 0.29836 0.0
C577 C 0.43773 0.26332 0.31842 0.0
C578 C 0.50997 0.3058 0.34547 0.0
C579 C 0.44076 0.23298 0.26827 0.0
C580 C 0.59429 0.23216 0.47393 0.0
C581 C 0.57 0.21892 0.45118 0.0
C582 C 0.55637 0.2279 0.37621 0.0
C583 C 0.53287 0.21432 0.37689 0.0
C584 C 0.51858 0.21953 0.34851 0.0
C585 C 0.52813 0.23915 0.32032 0.0
C586 C 0.55194 0.25332 0.32137 0.0
C587 C 0.56572 0.24706 0.34817 0.0
C588 C 0.49337 0.20382 0.34788 0.0
C589 C 0.56301 0.27506 0.29404 0.0
C590 C 0.54375 0.19969 0.0295 0.0
C591 C 0.52048 0.18874 0.03566 0.0
C592 C 0.5101 0.20162 0.04748 0.0
C593 C 0.52334 0.22588 0.05375 0.0
C594 C 0.54639 0.23698 0.04344 0.0
C595 C 0.55625 0.22366 0.03084 0.0
C596 C 0.48528 0.18925 0.05636 0.0
C597 C 0.5609 0.26281 0.04888 0.0
C598 C 0.4637 0.34139 0.0627 0.0
C599 C 0.47828 0.34472 0.01873 0.0
C600 C 0.47877 0.30883 0.00761 0.0
C601 C 0.46292 0.28542 0.00754 0.0
C602 C 0.46898 0.26987 0.02609 0.0
C603 C 0.49148 0.27805 0.04458 0.0
C604 C 0.50795 0.30139 0.04078 0.0
C605 C 0.50145 0.31651 0.02201 0.0
C606 C 0.45111 0.24502 0.02873 0.0
C607 C 0.53225 0.31057 0.05881 0.0
C608 C 0.49021 0.2625 0.282 0.0
C609 C 0.50148 0.25393 0.31057 0.0
C610 C 0.51357 0.24467 0.28831 0.0
C611 C 0.51314 0.2425 0.23609 0.0
C612 C 0.52284 0.23092 0.21223 0.0
C613 C 0.52299 0.22956 0.16095 0.0
C614 C 0.51372 0.24001 0.13147 0.0
C615 C 0.51416 0.23909 0.07927 0.0
C616 C 0.50617 0.25098 0.05136 0.0
C617 C 0.4972 0.26338 0.0744 0.0
C618 C 0.49529 0.2632 0.12622 0.0
C619 C 0.48534 0.27454 0.15027 0.0
C620 C 0.48355 0.27425 0.20119 0.0
C621 C 0.49215 0.26313 0.23026 0.0
C622 C 0.503 0.2524 0.20708 0.0
C623 C 0.5039 0.25177 0.15484 0.0
C624 C 0.57075 0.16871 0.06733 0.0
C625 C 0.54923 0.16721 0.04458 0.0
O626 O 0.4326 0.28982 0.36788 0.0
O627 O 0.47163 0.32357 0.99427 0.0
O628 O 0.55476 0.18773 0.02369 0.0
O629 O 0.57042 0.22251 0.40121 0.0
H630 H 0.44406 0.29253 0.44021 0.0
H631 H 0.40249 0.2684 0.43212 0.0
H632 H 0.39994 0.2924 0.41252 0.0
H633 H 0.41136 0.29317 0.47437 0.0
H634 H 0.47736 0.31286 0.38104 0.0
H635 H 0.41956 0.25313 0.31158 0.0
H636 H 0.51684 0.29743 0.36952 0.0
H637 H 0.51452 0.32278 0.36373 0.0
H638 H 0.51823 0.30857 0.30992 0.0
H639 H 0.42264 0.22213 0.27525 0.0
H640 H 0.44956 0.22328 0.27672 0.0
H641 H 0.44188 0.23608 0.22831 0.0
H642 H 0.56035 0.22605 0.46984 0.0
H643 H 0.59475 0.23084 0.51463 0.0
H644 H 0.60197 0.25064 0.46671 0.0
H645 H 0.6046 0.22536 0.45745 0.0
H646 H 0.52577 0.19932 0.39843 0.0
H647 H 0.58393 0.2574 0.34815 0.0
H648 H 0.48584 0.19939 0.30922 0.0
H649 H 0.48576 0.21279 0.36767 0.0
H650 H 0.48881 0.18767 0.36603 0.0
H651 H 0.58074 0.28675 0.3085 0.0
H652 H 0.55354 0.28446 0.29689 0.0
H653 H 0.56319 0.27057 0.2543 0.0
H654 H 0.53814 0.16449 0.07568 0.0
H655 H 0.51052 0.17014 0.03248 0.0
H656 H 0.5741 0.23192 0.02485 0.0
H657 H 0.48324 0.18947 0.09678 0.0
H658 H 0.47658 0.17106 0.04125 0.0
H659 H 0.47694 0.1981 0.0393 0.0
H660 H 0.57836 0.26884 0.03804 0.0
H661 H 0.56169 0.26899 0.08792 0.0
H662 H 0.55325 0.2707 0.02558 0.0
H663 H 0.49593 0.35284 0.03497 0.0
H664 H 0.46708 0.35827 0.07932 0.0
H665 H 0.46785 0.33255 0.09157 0.0
H666 H 0.44546 0.33053 0.05127 0.0
H667 H 0.44555 0.27954 0.99517 0.0
H668 H 0.5141 0.33435 0.01926 0.0
H669 H 0.44752 0.24137 0.06799 0.0
H670 H 0.45728 0.23362 0.01412 0.0
H671 H 0.43513 0.24076 0.00759 0.0
H672 H 0.54332 0.3287 0.04996 0.0
H673 H 0.53869 0.29984 0.04186 0.0
H674 H 0.53337 0.3096 0.09954 0.0
H675 H 0.50096 0.2546 0.35052 0.0
H676 H 0.53031 0.22265 0.23297 0.0
H677 H 0.53079 0.22047 0.14488 0.0
H678 H 0.50731 0.25091 0.01156 0.0
H679 H 0.47858 0.28357 0.13002 0.0
H680 H 0.47563 0.28316 0.21759 0.0
H681 H 0.58311 0.1721 0.03889 0.0
H682 H 0.56673 0.15242 0.08427 0.0
H683 H 0.57866 0.18294 0.09673 0.0
C684 C 0.98113 0.43376 0.72998 0.0
C685 C 0.04651 0.46329 0.67479 0.0
C686 C 0.04104 0.54207 0.67889 0.0
Mg687 Mg 0.99889 0.44482 0.62517 0.0
O688 O 9e-05 0.47259 0.64412 0.0
Mg689 Mg 0.01694 0.48926 0.70814 0.0
Mg690 Mg 0.01338 0.49857 0.60025 0.0
O691 O 0.02638 0.5244 0.55564 0.0
Mg692 Mg 0.023 0.54949 0.57457 0.0
Mg693 Mg 0.00984 0.50727 0.49102 0.0
C694 C 0.98045 0.45374 0.52298 0.0
C695 C 0.04527 0.49045 0.52488 0.0
O696 O 0.99385 0.45511 0.7444 0.0
O697 O 0.97974 0.42614 0.68509 0.0
O698 O 0.04322 0.47759 0.70056 0.0
O699 O 0.03224 0.44978 0.64025 0.0
O700 O 0.98259 0.43964 0.55044 0.0
O701 O 0.98946 0.47523 0.53629 0.0
C702 C 0.98261 0.50743 0.67761 0.0
O703 O 0.98823 0.50855 0.63261 0.0
O704 O 0.99074 0.50028 0.71134 0.0
O705 O 0.03246 0.54241 0.45528 0.0
O706 O 0.04119 0.56987 0.51636 0.0
O707 O 0.98178 0.51653 0.49532 0.0
C708 C 0.04237 0.5637 0.47172 0.0
O709 O 0.98846 0.54079 0.56027 0.0
O710 O 0.03678 0.5546 0.6508 0.0
C711 C 0.97583 0.52807 0.52311 0.0
O712 O 0.03707 0.52184 0.66471 0.0
O713 O 0.03892 0.48927 0.56922 0.0
O714 O 0.03709 0.4971 0.49007 0.0
C715 C 0.49399 0.04176 0.7743 0.0
C716 C 0.45529 0.98186 0.67039 0.0
C717 C 0.53374 0.98302 0.65356 0.0
Mg718 Mg 0.48571 0.03341 0.65957 0.0
O719 O 0.51187 0.03095 0.67049 0.0
Mg720 Mg 0.50996 0.00727 0.71578 0.0
Mg721 Mg 0.52355 0.02216 0.61276 0.0
O722 O 0.53503 0.01351 0.5541 0.0
Mg723 Mg 0.56166 0.0127 0.56597 0.0
Mg724 Mg 0.53686 0.03734 0.50896 0.0
C725 C 0.51424 0.06208 0.57108 0.0
C726 C 0.48399 0.00099 0.52344 0.0
O727 O 0.50167 0.02774 0.77469 0.0
O728 O 0.48702 0.04647 0.7342 0.0
O729 O 0.47232 0.98334 0.69492 0.0
O730 O 0.45658 0.99903 0.64899 0.0
O731 O 0.49772 0.05678 0.5989 0.0
O732 O 0.52667 0.0528 0.57418 0.0
C733 C 0.56298 0.04211 0.70266 0.0
O734 O 0.55882 0.04267 0.65622 0.0
O735 O 0.5473 0.03061 0.73132 0.0
O736 O 0.54655 0.01811 0.44888 0.0
O737 O 0.56308 0.00179 0.49196 0.0
O738 O 0.5746 0.06241 0.52956 0.0
C739 C 0.55623 0.00588 0.45098 0.0
O740 O 0.58925 0.04726 0.58031 0.0
O741 O 0.54994 0.98901 0.62464 0.0
C742 C 0.59104 0.06415 0.55705 0.0
O743 O 0.52042 0.99136 0.6518 0.0
O744 O 0.48869 0.00144 0.56996 0.0
O745 O 0.49924 0.01265 0.49385 0.0
C746 C 0.53341 0.55245 0.45458 0.0
C747 C 0.56092 0.51042 0.50829 0.0
C748 C 0.47596 0.45096 0.54775 0.0
Mg749 Mg 0.54876 0.54431 0.55745 0.0
O750 O 0.51797 0.52211 0.55284 0.0
Mg751 Mg 0.50657 0.49878 0.49487 0.0
Mg752 Mg 0.5064 0.50125 0.60728 0.0
O753 O 0.49485 0.48037 0.66202 0.0
Mg754 Mg 0.46409 0.45811 0.65805 0.0
Mg755 Mg 0.506 0.50388 0.71951 0.0
C756 C 0.53719 0.55095 0.66783 0.0
C757 C 0.54962 0.50564 0.67153 0.0
O758 O 0.5194 0.53073 0.44678 0.0
O759 O 0.54601 0.56123 0.49469 0.0
O760 O 0.54055 0.49957 0.48963 0.0
O761 O 0.56781 0.52777 0.53916 0.0
O762 O 0.55092 0.55819 0.63311 0.0
O763 O 0.51829 0.53195 0.66298 0.0
C764 C 0.46349 0.49812 0.54354 0.0
O765 O 0.47237 0.49932 0.58695 0.0
O766 O 0.47328 0.49784 0.50437 0.0
O767 O 0.49315 0.4724 0.76872 0.0
O768 O 0.46644 0.44145 0.72227 0.0
O769 O 0.47207 0.50279 0.72448 0.0
C770 C 0.47896 0.45067 0.76237 0.0
O771 O 0.44479 0.47462 0.67507 0.0
O772 O 0.4626 0.44386 0.58323 0.0
C773 C 0.4517 0.49195 0.70604 0.0
O774 O 0.4944 0.47047 0.55144 0.0
O775 O 0.54073 0.50375 0.62776 0.0
O776 O 0.53941 0.50547 0.71031 0.0
C777 C 0.14423 0.46356 0.46505 0.0
C778 C 0.13498 0.43998 0.45285 0.0
C779 C 0.13038 0.47279 0.4762 0.0
C780 C 0.10674 0.45801 0.47585 0.0
C781 C 0.09728 0.43421 0.46325 0.0
C782 C 0.11149 0.42552 0.45119 0.0
C783 C 0.14106 0.49827 0.48925 0.0
C784 C 0.07219 0.41786 0.46342 0.0
C785 C 0.07229 0.47708 0.55015 0.0
C786 C 0.06195 0.4833 0.51289 0.0
C787 C 0.08715 0.46912 0.53883 0.0
C788 C 0.09189 0.46742 0.48893 0.0
C789 C 0.08212 0.47436 0.45129 0.0
C790 C 0.06722 0.48212 0.46367 0.0
C791 C 0.09706 0.46182 0.58031 0.0
C792 C 0.08719 0.47332 0.39781 0.0
H793 H 0.16237 0.47481 0.46614 0.0
H794 H 0.10427 0.40733 0.44126 0.0
H795 H 0.13341 0.50579 0.46482 0.0
H796 H 0.13776 0.5012 0.52786 0.0
H797 H 0.1596 0.50756 0.48579 0.0
H798 H 0.06751 0.39982 0.45281 0.0
H799 H 0.06646 0.41854 0.50089 0.0
H800 H 0.06295 0.42312 0.43741 0.0
H801 H 0.0687 0.47831 0.58827 0.0
H802 H 0.05949 0.48701 0.43452 0.0
H803 H 0.11458 0.46599 0.57417 0.0
H804 H 0.08666 0.44292 0.58239 0.0
H805 H 0.09717 0.47016 0.61657 0.0
H806 H 0.10569 0.48314 0.39421 0.0
H807 H 0.07905 0.48035 0.3733 0.0
H808 H 0.08119 0.45524 0.38462 0.0
C809 C 0.71295 0.14317 0.48221 0.0
C810 C 0.72429 0.16655 0.49824 0.0
C811 C 0.69124 0.12815 0.49674 0.0
C812 C 0.68087 0.13656 0.52921 0.0
C813 C 0.69249 0.15997 0.54675 0.0
C814 C 0.71404 0.17471 0.53085 0.0
C815 C 0.6793 0.10331 0.47689 0.0
C816 C 0.68214 0.16942 0.58215 0.0
C817 C 0.61719 0.1007 0.5198 0.0
C818 C 0.61335 0.08526 0.55658 0.0
C819 C 0.63903 0.11835 0.51228 0.0
C820 C 0.65746 0.12086 0.54278 0.0
C821 C 0.6535 0.10661 0.58269 0.0
C822 C 0.63147 0.08882 0.58891 0.0
C823 C 0.64249 0.13316 0.46929 0.0
C824 C 0.67264 0.10926 0.61705 0.0
H825 H 0.721 0.13659 0.45811 0.0
H826 H 0.72304 0.19267 0.54419 0.0
H827 H 0.67499 0.09188 0.50795 0.0
H828 H 0.66323 0.099 0.45618 0.0
H829 H 0.6897 0.09953 0.45189 0.0
H830 H 0.69389 0.18775 0.59434 0.0
H831 H 0.66659 0.16794 0.56425 0.0
H832 H 0.67715 0.15923 0.61528 0.0
H833 H 0.6033 0.09819 0.49477 0.0
H834 H 0.62859 0.07719 0.61793 0.0
H835 H 0.65089 0.12868 0.4402 0.0
H836 H 0.65366 0.1516 0.4811 0.0
H837 H 0.6263 0.13078 0.45275 0.0
H838 H 0.68273 0.10316 0.59713 0.0
H839 H 0.66646 0.09925 0.65024 0.0
H840 H 0.68409 0.12761 0.6293 0.0
C841 C 0.5012 0.62916 0.29714 0.0
C842 C 0.51994 0.64897 0.28208 0.0
C843 C 0.50366 0.61191 0.31893 0.0
C844 C 0.5253 0.61411 0.32414 0.0
C845 C 0.54399 0.63309 0.30528 0.0
C846 C 0.54121 0.65053 0.28532 0.0
C847 C 0.48338 0.59225 0.3397 0.0
C848 C 0.5672 0.63563 0.30867 0.0
C849 C 0.53724 0.59013 0.43783 0.0
C850 C 0.53304 0.56849 0.4194 0.0
C851 C 0.53492 0.60511 0.40699 0.0
C852 C 0.52893 0.59861 0.35598 0.0
C853 C 0.52556 0.57716 0.33658 0.0
C854 C 0.52724 0.56209 0.36882 0.0
C855 C 0.5381 0.62755 0.42949 0.0
C856 C 0.51994 0.57006 0.28207 0.0
H857 H 0.48471 0.62772 0.29405 0.0
H858 H 0.55587 0.66556 0.27341 0.0
H859 H 0.48173 0.57555 0.32717 0.0
H860 H 0.48564 0.59386 0.38072 0.0
H861 H 0.46743 0.59195 0.32874 0.0
H862 H 0.57882 0.64879 0.28438 0.0
H863 H 0.57454 0.64086 0.34735 0.0
H864 H 0.56622 0.619 0.29834 0.0
H865 H 0.54144 0.59505 0.47704 0.0
H866 H 0.52406 0.54538 0.35452 0.0
H867 H 0.52243 0.62835 0.42259 0.0
H868 H 0.55181 0.64223 0.41194 0.0
H869 H 0.54235 0.6298 0.47005 0.0
H870 H 0.50291 0.56725 0.27139 0.0
H871 H 0.52021 0.55401 0.27217 0.0
H872 H 0.53211 0.58394 0.25996 0.0
C873 C 0.86302 0.53161 0.44083 0.0
C874 C 0.87043 0.55207 0.41694 0.0
C875 C 0.87845 0.5254 0.45991 0.0
C876 C 0.90181 0.5401 0.45518 0.0
C877 C 0.90938 0.56078 0.43114 0.0
C878 C 0.89361 0.56659 0.41263 0.0
C879 C 0.8698 0.50328 0.48552 0.0
C880 C 0.93417 0.57691 0.42538 0.0
C881 C 0.94683 0.53944 0.53996 0.0
C882 C 0.95487 0.52836 0.50879 0.0
C883 C 0.92879 0.54244 0.52382 0.0
C884 C 0.91856 0.5341 0.47544 0.0
C885 C 0.92576 0.52179 0.44486 0.0
C886 C 0.94388 0.51915 0.46182 0.0
C887 C 0.92134 0.55541 0.55768 0.0
C888 C 0.91516 0.51246 0.39318 0.0
H889 H 0.84514 0.52058 0.44499 0.0
H890 H 0.89942 0.58264 0.39514 0.0
H891 H 0.87561 0.49223 0.46746 0.0
H892 H 0.87675 0.50707 0.52456 0.0
H893 H 0.85108 0.49349 0.48502 0.0
H894 H 0.93723 0.59215 0.40514 0.0
H895 H 0.9434 0.58294 0.46233 0.0
H896 H 0.94143 0.56772 0.40507 0.0
H897 H 0.95507 0.5464 0.57643 0.0
H898 H 0.94998 0.51062 0.43732 0.0
H899 H 0.90294 0.54502 0.56193 0.0
H900 H 0.92453 0.57154 0.54127 0.0
H901 H 0.93033 0.55986 0.59489 0.0
H902 H 0.8965 0.50259 0.39351 0.0
H903 H 0.92096 0.50113 0.37632 0.0
H904 H 0.91958 0.52697 0.36931 0.0
C905 C 0.37719 0.91419 0.35589 0.0
C906 C 0.35848 0.91742 0.35722 0.0
C907 C 0.39556 0.92573 0.39096 0.0
C908 C 0.39558 0.94143 0.42739 0.0
C909 C 0.37634 0.94397 0.43042 0.0
C910 C 0.35802 0.93193 0.39525 0.0
C911 C 0.41565 0.92232 0.38679 0.0
C912 C 0.37577 0.96071 0.46831 0.0
C913 C 0.44466 0.96734 0.52545 0.0
C914 C 0.46046 0.98673 0.50245 0.0
C915 C 0.42302 0.95266 0.50246 0.0
C916 C 0.41708 0.95783 0.45597 0.0
C917 C 0.43258 0.97809 0.43416 0.0
C918 C 0.45408 0.99216 0.45747 0.0
C919 C 0.40686 0.93127 0.52695 0.0
C920 C 0.42682 0.98452 0.38511 0.0
H921 H 0.37791 0.90331 0.3263 0.0
H922 H 0.34372 0.93469 0.39603 0.0
H923 H 0.42978 0.93782 0.37236 0.0
H924 H 0.42154 0.92001 0.4237 0.0
H925 H 0.41171 0.90719 0.3615 0.0
H926 H 0.35843 0.95784 0.47133 0.0
H927 H 0.38242 0.95939 0.50526 0.0
H928 H 0.38674 0.97851 0.45747 0.0
H929 H 0.4495 0.96314 0.56036 0.0
H930 H 0.46607 0.00737 0.43997 0.0
H931 H 0.40194 0.91581 0.50194 0.0
H932 H 0.39121 0.93166 0.53414 0.0
H933 H 0.41425 0.92947 0.56256 0.0
H934 H 0.42478 0.9717 0.35533 0.0
H935 H 0.44005 0.00179 0.37529 0.0
H936 H 0.41057 0.98439 0.38603 0.0
C937 C 0.4434 0.33646 0.38228 0.0
C938 C 0.44547 0.3241 0.42078 0.0
C939 C 0.45105 0.36009 0.38966 0.0
C940 C 0.46014 0.37131 0.43709 0.0
C941 C 0.46323 0.35911 0.47525 0.0
C942 C 0.45596 0.33573 0.46648 0.0
C943 C 0.44814 0.37259 0.34752 0.0
C944 C 0.47267 0.37029 0.52661 0.0
C945 C 0.48861 0.4341 0.48077 0.0
C946 C 0.47105 0.43429 0.50536 0.0
C947 C 0.48482 0.41428 0.45278 0.0
C948 C 0.4631 0.39439 0.45006 0.0
C949 C 0.44483 0.39568 0.46942 0.0
C950 C 0.44902 0.4157 0.49653 0.0
C951 C 0.50451 0.41394 0.43052 0.0
C952 C 0.4213 0.37503 0.46686 0.0
H953 H 0.43516 0.32755 0.34687 0.0
H954 H 0.45742 0.32616 0.4963 0.0
H955 H 0.43201 0.37258 0.35003 0.0
H956 H 0.46201 0.39074 0.34899 0.0
H957 H 0.44754 0.36402 0.31113 0.0
H958 H 0.47523 0.35881 0.55113 0.0
H959 H 0.48906 0.38635 0.52477 0.0
H960 H 0.4609 0.37496 0.54375 0.0
H961 H 0.50565 0.44856 0.48688 0.0
H962 H 0.43529 0.41602 0.51449 0.0
H963 H 0.49915 0.40341 0.39483 0.0
H964 H 0.51146 0.40618 0.45613 0.0
H965 H 0.51822 0.43158 0.42438 0.0
H966 H 0.4162 0.36687 0.42872 0.0
H967 H 0.4086 0.37962 0.4787 0.0
H968 H 0.42102 0.36206 0.49138 0.0
C969 C 0.57131 0.92328 0.84176 0.0
C970 C 0.55563 0.90059 0.8511 0.0
C971 C 0.56467 0.93666 0.81527 0.0
C972 C 0.54178 0.92713 0.79801 0.0
C973 C 0.5256 0.90483 0.8104 0.0
C974 C 0.53272 0.89179 0.83685 0.0
C975 C 0.58243 0.96047 0.80312 0.0
C976 C 0.501 0.89425 0.79334 0.0
C977 C 0.52753 0.96921 0.73936 0.0
C978 C 0.53143 0.96641 0.68992 0.0
C979 C 0.52964 0.95568 0.77517 0.0
C980 C 0.53569 0.93907 0.76073 0.0
C981 C 0.5381 0.93522 0.71022 0.0
C982 C 0.53601 0.94899 0.67556 0.0
C983 C 0.52683 0.96018 0.82865 0.0
C984 C 0.54431 0.91755 0.69304 0.0
H985 H 0.58893 0.93032 0.8538 0.0
H986 H 0.52049 0.87443 0.84512 0.0
H987 H 0.58498 0.96055 0.76292 0.0
H988 H 0.57683 0.97306 0.81165 0.0
H989 H 0.59889 0.9663 0.82385 0.0
H990 H 0.49016 0.8784 0.81228 0.0
H991 H 0.49506 0.90669 0.80008 0.0
H992 H 0.49882 0.88977 0.7529 0.0
H993 H 0.52416 0.98278 0.7506 0.0
H994 H 0.5388 0.94668 0.63714 0.0
H995 H 0.54371 0.9703 0.84859 0.0
H996 H 0.51742 0.94384 0.84695 0.0
H997 H 0.51785 0.97005 0.83246 0.0
H998 H 0.56159 0.92274 0.70827 0.0
H999 H 0.54386 0.91553 0.65206 0.0
H1000 H 0.53263 0.90058 0.70691 0.0
C1001 C 0.67954 0.54931 0.73196 0.0
C1002 C 0.68063 0.53502 0.76699 0.0
C1003 C 0.65944 0.54273 0.70351 0.0
C1004 C 0.63999 0.52142 0.71059 0.0
C1005 C 0.64177 0.50584 0.74154 0.0
C1006 C 0.66198 0.51293 0.76991 0.0
C1007 C 0.65835 0.55982 0.6707 0.0
C1008 C 0.62156 0.48276 0.74944 0.0
C1009 C 0.58545 0.52171 0.72309 0.0
C1010 C 0.57297 0.51004 0.67885 0.0
C1011 C 0.60743 0.52601 0.73275 0.0
C1012 C 0.61725 0.51818 0.69751 0.0
C1013 C 0.60499 0.50676 0.65213 0.0
C1014 C 0.58297 0.50303 0.64303 0.0
C1015 C 0.61995 0.53865 0.78132 0.0
C1016 C 0.61499 0.49827 0.61367 0.0
H1017 H 0.69388 0.56642 0.72972 0.0
H1018 H 0.66258 0.50179 0.79704 0.0
H1019 H 0.64755 0.55108 0.63636 0.0
H1020 H 0.65079 0.5688 0.69066 0.0
H1021 H 0.6754 0.57294 0.66056 0.0
H1022 H 0.62665 0.47094 0.76555 0.0
H1023 H 0.61063 0.48518 0.77533 0.0
H1024 H 0.61137 0.47455 0.71412 0.0
H1025 H 0.57805 0.52767 0.75044 0.0
H1026 H 0.57342 0.49419 0.60857 0.0
H1027 H 0.63633 0.55394 0.7745 0.0
H1028 H 0.62363 0.52729 0.80369 0.0
H1029 H 0.6102 0.54448 0.80355 0.0
H1030 H 0.6296 0.51313 0.59875 0.0
H1031 H 0.60256 0.48794 0.58239 0.0
H1032 H 0.62135 0.48765 0.6306 0.0
C1033 C 0.09336 0.64814 0.84535 0.0
C1034 C 0.10086 0.64975 0.89494 0.0
C1035 C 0.08279 0.62705 0.81739 0.0
C1036 C 0.07943 0.60695 0.83967 0.0
C1037 C 0.0866 0.60831 0.88992 0.0
C1038 C 0.09762 0.62979 0.91675 0.0
C1039 C 0.07567 0.6264 0.76359 0.0
C1040 C 0.08294 0.58718 0.91504 0.0
C1041 C 0.03584 0.55542 0.76051 0.0
C1042 C 0.04966 0.55154 0.72955 0.0
C1043 C 0.04525 0.57174 0.80086 0.0
C1044 C 0.06903 0.58485 0.80911 0.0
C1045 C 0.08285 0.57929 0.78078 0.0
C1046 C 0.0729 0.5625 0.74126 0.0
C1047 C 0.02985 0.57667 0.83091 0.0
C1048 C 0.10827 0.59296 0.78803 0.0
H1049 H 0.0962 0.66354 0.82802 0.0
H1050 H 0.10394 0.63097 0.95462 0.0
H1051 H 0.08423 0.6197 0.73979 0.0
H1052 H 0.05722 0.6146 0.75692 0.0
H1053 H 0.07974 0.64363 0.75185 0.0
H1054 H 0.08764 0.59081 0.95541 0.0
H1055 H 0.06499 0.57343 0.90936 0.0
H1056 H 0.0932 0.58042 0.89837 0.0
H1057 H 0.01786 0.54709 0.75078 0.0
H1058 H 0.08351 0.55969 0.71654 0.0
H1059 H 0.02975 0.59201 0.81755 0.0
H1060 H 0.03587 0.58045 0.87059 0.0
H1061 H 0.01222 0.56203 0.82742 0.0
H1062 H 0.11445 0.60993 0.77234 0.0
H1063 H 0.11626 0.5841 0.7693 0.0
H1064 H 0.11388 0.59617 0.82789 0.0
C1065 C 0.54711 0.14859 0.96025 0.0
C1066 C 0.53773 0.14731 0.00587 0.0
C1067 C 0.53754 0.12974 0.92527 0.0
C1068 C 0.51808 0.10911 0.93617 0.0
C1069 C 0.50833 0.10781 0.98189 0.0
C1070 C 0.51837 0.12691 0.01636 0.0
C1071 C 0.5485 0.1318 0.87697 0.0
C1072 C 0.48754 0.08615 0.99463 0.0
C1073 C 0.48686 0.06989 0.822 0.0
C1074 C 0.49629 0.05553 0.82051 0.0
C1075 C 0.49268 0.08651 0.86124 0.0
C1076 C 0.50839 0.08889 0.89974 0.0
C1077 C 0.51669 0.07336 0.90032 0.0
C1078 C 0.51045 0.05679 0.8608 0.0
C1079 C 0.4832 0.10252 0.85969 0.0
C1080 C 0.53346 0.07532 0.94081 0.0
H1081 H 0.5622 0.16428 0.95231 0.0
H1082 H 0.51121 0.12585 0.0518 0.0
H1083 H 0.55402 0.11888 0.87335 0.0
H1084 H 0.53613 0.12818 0.84542 0.0
H1085 H 0.56337 0.14915 0.874 0.0
H1086 H 0.48145 0.08829 0.03078 0.0
H1087 H 0.47375 0.08095 0.96546 0.0
H1088 H 0.49125 0.07189 0.99614 0.0
H1089 H 0.4757 0.0689 0.79134 0.0
H1090 H 0.51781 0.04577 0.86014 0.0
H1091 H 0.49668 0.11989 0.85124 0.0
H1092 H 0.4772 0.10424 0.89619 0.0
H1093 H 0.46901 0.09652 0.8311 0.0
H1094 H 0.54989 0.09116 0.93732 0.0
H1095 H 0.53621 0.06037 0.93906 0.0
H1096 H 0.52766 0.07676 0.97774 0.0
C1097 C 0.36424 0.50438 0.87729 0.0
C1098 C 0.36139 0.48782 0.91075 0.0
C1099 C 0.37674 0.50731 0.83544 0.0
C1100 C 0.3873 0.494 0.82804 0.0
C1101 C 0.38427 0.47715 0.86147 0.0
C1102 C 0.37128 0.47422 0.90207 0.0
C1103 C 0.37919 0.52513 0.80023 0.0
C1104 C 0.39546 0.46276 0.85551 0.0
C1105 C 0.41199 0.48376 0.71419 0.0
C1106 C 0.43514 0.49725 0.72794 0.0
C1107 C 0.39589 0.48449 0.74369 0.0
C1108 C 0.40317 0.49863 0.78832 0.0
C1109 C 0.42647 0.51416 0.79917 0.0
C1110 C 0.44216 0.51347 0.76851 0.0
C1111 C 0.37115 0.4686 0.72942 0.0
C1112 C 0.43504 0.52969 0.8461 0.0
H1113 H 0.35693 0.51521 0.88397 0.0
H1114 H 0.36932 0.4616 0.92811 0.0
H1115 H 0.39567 0.54105 0.80881 0.0
H1116 H 0.37878 0.51908 0.76132 0.0
H1117 H 0.36567 0.52957 0.80358 0.0
H1118 H 0.39107 0.45017 0.88434 0.0
H1119 H 0.39036 0.45322 0.81867 0.0
H1120 H 0.41408 0.47409 0.85763 0.0
H1121 H 0.40636 0.4716 0.68215 0.0
H1122 H 0.46001 0.52439 0.77891 0.0
H1123 H 0.36124 0.47714 0.7378 0.0
H1124 H 0.36477 0.45317 0.75117 0.0
H1125 H 0.36818 0.46286 0.68946 0.0
H1126 H 0.42528 0.5386 0.85175 0.0
H1127 H 0.45321 0.54283 0.84577 0.0
H1128 H 0.43281 0.51918 0.87823 0.0
C1129 C 0.89426 0.3494 0.91595 0.0
C1130 C 0.90224 0.33598 0.93769 0.0
C1131 C 0.90701 0.36573 0.88265 0.0
C1132 C 0.92838 0.36895 0.87157 0.0
C1133 C 0.93677 0.35586 0.89431 0.0
C1134 C 0.9236 0.33956 0.92723 0.0
C1135 C 0.89755 0.3794 0.85909 0.0
C1136 C 0.9596 0.35901 0.8837 0.0
C1137 C 0.95211 0.3943 0.7508 0.0
C1138 C 0.96754 0.41729 0.76636 0.0
C1139 C 0.93918 0.37844 0.78467 0.0
C1140 C 0.9418 0.38569 0.83537 0.0
C1141 C 0.95729 0.40884 0.85144 0.0
C1142 C 0.96996 0.42439 0.81671 0.0
C1143 C 0.92273 0.35389 0.76619 0.0
C1144 C 0.96056 0.41712 0.90534 0.0
H1145 H 0.87799 0.34707 0.92495 0.0
H1146 H 0.93 0.32956 0.94489 0.0
H1147 H 0.90925 0.39806 0.86759 0.0
H1148 H 0.89594 0.37624 0.81825 0.0
H1149 H 0.88073 0.37495 0.87202 0.0
H1150 H 0.96386 0.34782 0.9053 0.0
H1151 H 0.95996 0.35505 0.84374 0.0
H1152 H 0.9729 0.37718 0.89255 0.0
H1153 H 0.95004 0.38863 0.712 0.0
H1154 H 0.98185 0.44209 0.82915 0.0
H1155 H 0.90543 0.34918 0.776 0.0
H1156 H 0.92718 0.34205 0.7844 0.0
H1157 H 0.92254 0.35108 0.72547 0.0
H1158 H 0.94431 0.41415 0.91897 0.0
H1159 H 0.97323 0.4357 0.91175 0.0
H1160 H 0.96615 0.4072 0.92781 0.0
C1161 C 0.89864 0.54967 0.77015 0.0
C1162 C 0.9084 0.56387 0.81384 0.0
C1163 C 0.91051 0.54141 0.74317 0.0
C1164 C 0.93236 0.54678 0.76116 0.0
C1165 C 0.94241 0.5612 0.805 0.0
C1166 C 0.93033 0.56965 0.8307 0.0
C1167 C 0.89941 0.52643 0.6961 0.0
C1168 C 0.9656 0.56706 0.82565 0.0
C1169 C 0.9523 0.50475 0.72892 0.0
C1170 C 0.96765 0.51605 0.69317 0.0
C1171 C 0.94035 0.51435 0.75046 0.0
C1172 C 0.944 0.53591 0.73617 0.0
C1173 C 0.95913 0.54719 0.69922 0.0
C1174 C 0.97083 0.53709 0.67816 0.0
C1175 C 0.92444 0.50182 0.78985 0.0
C1176 C 0.96388 0.57044 0.68384 0.0
H1177 H 0.88154 0.54471 0.75739 0.0
H1178 H 0.93786 0.58037 0.86468 0.0
H1179 H 0.91102 0.53276 0.66573 0.0
H1180 H 0.89561 0.50863 0.70174 0.0
H1181 H 0.88344 0.52592 0.68429 0.0
H1182 H 0.97146 0.57935 0.85879 0.0
H1183 H 0.9654 0.55115 0.83602 0.0
H1184 H 0.97804 0.57463 0.79716 0.0
H1185 H 0.95006 0.48858 0.74093 0.0
H1186 H 0.98338 0.5463 0.65211 0.0
H1187 H 0.90735 0.49896 0.77952 0.0
H1188 H 0.9304 0.51245 0.82541 0.0
H1189 H 0.92307 0.48492 0.79576 0.0
H1190 H 0.94805 0.57109 0.67918 0.0
H1191 H 0.97263 0.57489 0.64887 0.0
H1192 H 0.97486 0.58378 0.71322 0.0
C1193 C 0.343 0.866 0.72588 0.0
C1194 C 0.33925 0.87141 0.77387 0.0
C1195 C 0.35804 0.88327 0.69674 0.0
C1196 C 0.37008 0.90632 0.71673 0.0
C1197 C 0.36477 0.91209 0.76323 0.0
C1198 C 0.34934 0.89457 0.79112 0.0
C1199 C 0.36252 0.87653 0.64649 0.0
C1200 C 0.37712 0.93646 0.78594 0.0
C1201 C 0.4323 0.94248 0.69898 0.0
C1202 C 0.43325 0.96042 0.67247 0.0
C1203 C 0.4117 0.92413 0.71111 0.0
C1204 C 0.39133 0.92325 0.69529 0.0
C1205 C 0.39198 0.94001 0.6642 0.0
C1206 C 0.413 0.95861 0.65355 0.0
C1207 C 0.41193 0.9066 0.74409 0.0
C1208 C 0.37065 0.93913 0.64452 0.0
H1209 H 0.33519 0.84814 0.71221 0.0
H1210 H 0.34648 0.89883 0.82815 0.0
H1211 H 0.36542 0.88975 0.61995 0.0
H1212 H 0.37795 0.87506 0.64965 0.0
H1213 H 0.34829 0.85969 0.63129 0.0
H1214 H 0.36918 0.93854 0.81926 0.0
H1215 H 0.39483 0.94138 0.79688 0.0
H1216 H 0.37761 0.94855 0.75869 0.0
H1217 H 0.44779 0.94338 0.71295 0.0
H1218 H 0.41351 0.97214 0.63221 0.0
H1219 H 0.40094 0.88896 0.72694 0.0
H1220 H 0.40518 0.90767 0.78007 0.0
H1221 H 0.42917 0.90923 0.75144 0.0
H1222 H 0.35684 0.92114 0.63607 0.0
H1223 H 0.37346 0.94869 0.61054 0.0
H1224 H 0.36504 0.9472 0.67289 0.0
C1225 C 0.49671 0.37417 0.95621 0.0
C1226 C 0.47752 0.36087 0.98207 0.0
C1227 C 0.49684 0.38908 0.92129 0.0
C1228 C 0.47728 0.3908 0.91197 0.0
C1229 C 0.45772 0.37725 0.9374 0.0
C1230 C 0.45791 0.36211 0.9714 0.0
C1231 C 0.51784 0.40279 0.89393 0.0
C1232 C 0.43657 0.37871 0.92858 0.0
C1233 C 0.48509 0.444 0.85064 0.0
C1234 C 0.47781 0.43539 0.80139 0.0
C1235 C 0.48455 0.42956 0.88733 0.0
C1236 C 0.47703 0.40613 0.87416 0.0
C1237 C 0.46968 0.39738 0.82451 0.0
C1238 C 0.46994 0.41205 0.78887 0.0
C1239 C 0.4921 0.43937 0.94012 0.0
C1240 C 0.46197 0.37262 0.80877 0.0
H1241 H 0.51168 0.37281 0.96327 0.0
H1242 H 0.44269 0.35142 0.9897 0.0
H1243 H 0.51385 0.39845 0.85353 0.0
H1244 H 0.52401 0.42143 0.9004 0.0
H1245 H 0.53164 0.39948 0.90553 0.0
H1246 H 0.42319 0.36795 0.95326 0.0
H1247 H 0.44053 0.3968 0.93463 0.0
H1248 H 0.4298 0.37302 0.88962 0.0
H1249 H 0.49107 0.46199 0.86056 0.0
H1250 H 0.46449 0.40531 0.75079 0.0
H1251 H 0.50702 0.43804 0.95247 0.0
H1252 H 0.47851 0.42929 0.9649 0.0
H1253 H 0.49658 0.45769 0.94465 0.0
H1254 H 0.4758 0.36892 0.81709 0.0
H1255 H 0.45679 0.36853 0.76863 0.0
H1256 H 0.44752 0.36095 0.82993 0.0
C1257 C 0.1284 0.42927 0.82501 0.0
C1258 C 0.11717 0.42307 0.86903 0.0
C1259 C 0.12091 0.43796 0.7868 0.0
C1260 C 0.10132 0.43972 0.79206 0.0
C1261 C 0.08996 0.43345 0.83633 0.0
C1262 C 0.09814 0.42544 0.87429 0.0
C1263 C 0.13373 0.44493 0.74062 0.0
C1264 C 0.06878 0.43468 0.84328 0.0
C1265 C 0.08301 0.47612 0.72352 0.0
C1266 C 0.0649 0.45929 0.6926 0.0
C1267 C 0.09678 0.47051 0.75251 0.0
C1268 C 0.09198 0.44743 0.75128 0.0
C1269 C 0.07525 0.43094 0.71633 0.0
C1270 C 0.06206 0.43715 0.68697 0.0
C1271 C 0.11504 0.48881 0.78785 0.0
C1272 C 0.06949 0.40612 0.71379 0.0
H1273 H 0.14294 0.42722 0.82019 0.0
H1274 H 0.0893 0.42042 0.90795 0.0
H1275 H 0.12332 0.4329 0.7088 0.0
H1276 H 0.13733 0.46235 0.73166 0.0
H1277 H 0.14993 0.4449 0.74448 0.0
H1278 H 0.06179 0.42882 0.87964 0.0
H1279 H 0.07239 0.4526 0.8405 0.0
H1280 H 0.05566 0.42385 0.81358 0.0
H1281 H 0.08552 0.49337 0.72745 0.0
H1282 H 0.04816 0.42404 0.66302 0.0
H1283 H 0.13038 0.48716 0.78908 0.0
H1284 H 0.10896 0.48674 0.8257 0.0
H1285 H 0.11968 0.50638 0.77742 0.0
H1286 H 0.08498 0.40477 0.71509 0.0
H1287 H 0.0589 0.39645 0.67968 0.0
H1288 H 0.06001 0.39777 0.74629 0.0
C1289 C 0.68031 0.09262 0.86399 0.0
C1290 C 0.67453 0.09855 0.90919 0.0
C1291 C 0.66625 0.08741 0.82059 0.0
C1292 C 0.646 0.08818 0.8226 0.0
C1293 C 0.64142 0.09653 0.86693 0.0
C1294 C 0.65565 0.10145 0.90973 0.0
C1295 C 0.672 0.07902 0.77395 0.0
C1296 C 0.62025 0.09807 0.87057 0.0
C1297 C 0.60275 0.07553 0.71558 0.0
C1298 C 0.58632 0.05311 0.72479 0.0
C1299 C 0.62334 0.08697 0.74478 0.0
C1300 C 0.62732 0.07555 0.78353 0.0
C1301 C 0.61153 0.05217 0.78942 0.0
C1302 C 0.59127 0.04133 0.76013 0.0
C1303 C 0.63999 0.11166 0.73628 0.0
C1304 C 0.61518 0.03898 0.82922 0.0
H1305 H 0.69507 0.09063 0.86328 0.0
H1306 H 0.65125 0.10631 0.94439 0.0
H1307 H 0.66232 0.05995 0.77042 0.0
H1308 H 0.66734 0.08526 0.74072 0.0
H1309 H 0.69027 0.08464 0.77457 0.0
H1310 H 0.62087 0.10809 0.90478 0.0
H1311 H 0.6176 0.10618 0.83807 0.0
H1312 H 0.60544 0.08049 0.87085 0.0
H1313 H 0.599 0.08454 0.6878 0.0
H1314 H 0.57875 0.02375 0.76636 0.0
H1315 H 0.65763 0.11543 0.7429 0.0
H1316 H 0.6374 0.12309 0.76253 0.0
H1317 H 0.63765 0.11586 0.69804 0.0
H1318 H 0.63211 0.04071 0.82774 0.0
H1319 H 0.6023 0.02039 0.82569 0.0
H1320 H 0.61437 0.04615 0.86618 0.0
C1321 C 0.57742 0.64172 0.90459 0.0
C1322 C 0.58743 0.66314 0.88381 0.0
C1323 C 0.56737 0.62112 0.87462 0.0
C1324 C 0.56678 0.62198 0.82257 0.0
C1325 C 0.57594 0.64349 0.80133 0.0
C1326 C 0.58647 0.66381 0.83212 0.0
C1327 C 0.55826 0.59855 0.89859 0.0
C1328 C 0.57518 0.64509 0.74591 0.0
C1329 C 0.56593 0.57691 0.73339 0.0
C1330 C 0.54348 0.56554 0.71403 0.0
C1331 C 0.57332 0.59415 0.77174 0.0
C1332 C 0.55802 0.60064 0.78984 0.0
C1333 C 0.53498 0.58822 0.77236 0.0
C1334 C 0.5279 0.57052 0.73495 0.0
C1335 C 0.59782 0.60637 0.79066 0.0
C1336 C 0.51821 0.59479 0.79015 0.0
H1337 H 0.57808 0.64113 0.9445 0.0
H1338 H 0.59412 0.68018 0.81544 0.0
H1339 H 0.54064 0.58647 0.8842 0.0
H1340 H 0.56846 0.59046 0.88917 0.0
H1341 H 0.55866 0.60075 0.93952 0.0
H1342 H 0.5811 0.66293 0.73548 0.0
H1343 H 0.58599 0.63902 0.72926 0.0
H1344 H 0.55771 0.63382 0.72954 0.0
H1345 H 0.57787 0.57279 0.7174 0.0
H1346 H 0.51055 0.56173 0.71963 0.0
H1347 H 0.59935 0.60835 0.83169 0.0
H1348 H 0.60666 0.62386 0.77689 0.0
H1349 H 0.60656 0.59705 0.77828 0.0
H1350 H 0.5199 0.59771 0.83102 0.0
H1351 H 0.50053 0.58145 0.77866 0.0
H1352 H 0.52167 0.61115 0.77446 0.0
C1353 C 0.55398 0.18686 0.50851 0.0
C1354 C 0.55939 0.19358 0.46034 0.0
C1355 C 0.54587 0.16405 0.52008 0.0
C1356 C 0.54242 0.1473 0.48219 0.0
C1357 C 0.54708 0.15373 0.43304 0.0
C1358 C 0.55591 0.17689 0.4228 0.0
C1359 C 0.54156 0.15804 0.57321 0.0
C1360 C 0.54297 0.1362 0.39146 0.0
C1361 C 0.54351 0.0958 0.53062 0.0
C1362 C 0.5207 0.08136 0.53895 0.0
C1363 C 0.55075 0.11686 0.50945 0.0
C1364 C 0.53467 0.1233 0.49506 0.0
C1365 C 0.51141 0.10783 0.4993 0.0
C1366 C 0.50471 0.08717 0.52195 0.0
C1367 C 0.57575 0.133 0.50639 0.0
C1368 C 0.4937 0.11372 0.48278 0.0
H1369 H 0.55669 0.19971 0.53755 0.0
H1370 H 0.56011 0.18186 0.38544 0.0
H1371 H 0.52362 0.14481 0.57604 0.0
H1372 H 0.55199 0.15065 0.58629 0.0
H1373 H 0.5455 0.17321 0.59836 0.0
H1374 H 0.54529 0.14352 0.35467 0.0
H1375 H 0.55479 0.12958 0.3969 0.0
H1376 H 0.52559 0.12131 0.39149 0.0
H1377 H 0.55596 0.09146 0.54396 0.0
H1378 H 0.48703 0.07591 0.52786 0.0
H1379 H 0.5814 0.14816 0.53287 0.0
H1380 H 0.5794 0.13941 0.46888 0.0
H1381 H 0.58586 0.12468 0.51528 0.0
H1382 H 0.49416 0.12692 0.50942 0.0
H1383 H 0.47644 0.09846 0.48062 0.0
H1384 H 0.49713 0.12105 0.44603 0.0
C1385 C 0.3397 0.48313 0.50548 0.0
C1386 C 0.34167 0.50308 0.48634 0.0
C1387 C 0.35892 0.48166 0.519 0.0
C1388 C 0.38063 0.50068 0.51352 0.0
C1389 C 0.38272 0.52111 0.49557 0.0
C1390 C 0.36322 0.52208 0.4823 0.0
C1391 C 0.35602 0.45963 0.5382 0.0
C1392 C 0.40558 0.54184 0.48968 0.0
C1393 C 0.43299 0.50424 0.57703 0.0
C1394 C 0.44155 0.49744 0.53763 0.0
C1395 C 0.41296 0.5051 0.57012 0.0
C1396 C 0.40113 0.4987 0.52289 0.0
C1397 C 0.40935 0.49117 0.48351 0.0
C1398 C 0.42946 0.49072 0.4913 0.0
C1399 C 0.40467 0.51316 0.61309 0.0
C1400 C 0.39715 0.48402 0.43271 0.0
H1401 H 0.32306 0.46858 0.50957 0.0
H1402 H 0.36479 0.5377 0.46853 0.0
H1403 H 0.36324 0.45205 0.5127 0.0
H1404 H 0.36537 0.46323 0.5748 0.0
H1405 H 0.33802 0.44673 0.54197 0.0
H1406 H 0.40433 0.55682 0.47785 0.0
H1407 H 0.41605 0.54688 0.52513 0.0
H1408 H 0.41454 0.53751 0.46174 0.0
H1409 H 0.44225 0.5095 0.61288 0.0
H1410 H 0.43579 0.48521 0.46075 0.0
H1411 H 0.38874 0.49859 0.6245 0.0
H1412 H 0.40094 0.5267 0.60209 0.0
H1413 H 0.41715 0.52007 0.64556 0.0
H1414 H 0.37939 0.47027 0.43531 0.0
H1415 H 0.40527 0.47766 0.40664 0.0
H1416 H 0.3968 0.49884 0.41701 0.0
C1417 C 0.86865 0.39138 0.33721 0.0
C1418 C 0.85225 0.3793 0.3707 0.0
C1419 C 0.89172 0.4037 0.35278 0.0
C1420 C 0.89841 0.40435 0.40316 0.0
C1421 C 0.88191 0.39188 0.43684 0.0
C1422 C 0.85908 0.37952 0.42016 0.0
C1423 C 0.90879 0.41656 0.31571 0.0
C1424 C 0.88826 0.39241 0.4911 0.0
C1425 C 0.95676 0.42211 0.45864 0.0
C1426 C 0.96327 0.44391 0.48083 0.0
C1427 C 0.93655 0.40978 0.42885 0.0
C1428 C 0.92232 0.41928 0.42226 0.0
C1429 C 0.92972 0.44202 0.44121 0.0
C1430 C 0.9503 0.4542 0.46965 0.0
C1431 C 0.92954 0.38584 0.40804 0.0
C1432 C 0.91501 0.45275 0.43515 0.0
H1433 H 0.86339 0.39156 0.29908 0.0
H1434 H 0.84641 0.3705 0.4462 0.0
H1435 H 0.91526 0.43526 0.32222 0.0
H1436 H 0.92343 0.41379 0.32008 0.0
H1437 H 0.90138 0.41123 0.27702 0.0
H1438 H 0.87345 0.38124 0.51207 0.0
H1439 H 0.90086 0.38671 0.49557 0.0
H1440 H 0.89614 0.41028 0.50781 0.0
H1441 H 0.96681 0.41414 0.46686 0.0
H1442 H 0.95512 0.47096 0.48688 0.0
H1443 H 0.92214 0.38295 0.36949 0.0
H1444 H 0.91639 0.37306 0.43048 0.0
H1445 H 0.94398 0.38265 0.40851 0.0
H1446 H 0.91228 0.45453 0.39536 0.0
H1447 H 0.92254 0.46994 0.45513 0.0
H1448 H 0.8982 0.44158 0.44934 0.0
C1449 C 0.54762 0.90753 0.27992 0.0
C1450 C 0.56332 0.9134 0.24368 0.0
C1451 C 0.54429 0.92427 0.30423 0.0
C1452 C 0.55703 0.94746 0.29206 0.0
C1453 C 0.57127 0.95308 0.25229 0.0
C1454 C 0.57445 0.936 0.22888 0.0
C1455 C 0.5289 0.91751 0.34641 0.0
C1456 C 0.58475 0.97748 0.23746 0.0
C1457 C 0.54354 0.98844 0.36378 0.0
C1458 C 0.55872 0.99474 0.40543 0.0
C1459 C 0.54356 0.97408 0.32455 0.0
C1460 C 0.55904 0.96592 0.3275 0.0
C1461 C 0.57541 0.97366 0.36785 0.0
C1462 C 0.57507 0.988 0.4061 0.0
C1463 C 0.52616 0.96656 0.28163 0.0
C1464 C 0.5924 0.96558 0.37242 0.0
H1465 H 0.53909 0.89012 0.29169 0.0
H1466 H 0.58665 0.94063 0.20096 0.0
H1467 H 0.53925 0.92385 0.38207 0.0
H1468 H 0.5181 0.92546 0.34437 0.0
H1469 H 0.51788 0.89856 0.34654 0.0
H1470 H 0.59086 0.97817 0.19983 0.0
H1471 H 0.57454 0.98612 0.23839 0.0
H1472 H 0.59964 0.98733 0.26404 0.0
H1473 H 0.5309 0.99366 0.36302 0.0
H1474 H 0.58713 0.99317 0.4378 0.0
H1475 H 0.5123 0.94883 0.28621 0.0
H1476 H 0.53361 0.96632 0.24612 0.0
H1477 H 0.51878 0.97797 0.27944 0.0
H1478 H 0.58349 0.94677 0.37662 0.0
H1479 H 0.60478 0.97428 0.40468 0.0
H1480 H 0.60179 0.96878 0.33847 0.0
C1481 C 0.64804 0.48112 0.37484 0.0
C1482 C 0.65259 0.49333 0.33192 0.0
C1483 C 0.63473 0.48327 0.41056 0.0
C1484 C 0.62548 0.49768 0.40275 0.0
C1485 C 0.63045 0.51044 0.36006 0.0
C1486 C 0.64386 0.50806 0.32515 0.0
C1487 C 0.62986 0.46943 0.4556 0.0
C1488 C 0.62087 0.52597 0.35025 0.0
C1489 C 0.57016 0.4862 0.45247 0.0
C1490 C 0.57739 0.50439 0.4887 0.0
C1491 C 0.58572 0.48295 0.42629 0.0
C1492 C 0.60913 0.49818 0.43673 0.0
C1493 C 0.61656 0.51537 0.47604 0.0
C1494 C 0.60059 0.5183 0.50158 0.0
C1495 C 0.57705 0.4642 0.38507 0.0
C1496 C 0.64137 0.5316 0.48907 0.0
H1497 H 0.65449 0.46949 0.37991 0.0
H1498 H 0.64705 0.51725 0.29173 0.0
H1499 H 0.6324 0.48036 0.48968 0.0
H1500 H 0.61195 0.45547 0.45266 0.0
H1501 H 0.64071 0.46155 0.4596 0.0
H1502 H 0.62739 0.53569 0.31683 0.0
H1503 H 0.60219 0.51555 0.34502 0.0
H1504 H 0.62503 0.53842 0.38248 0.0
H1505 H 0.55228 0.47512 0.44269 0.0
H1506 H 0.60637 0.53219 0.53002 0.0
H1507 H 0.58567 0.454 0.38824 0.0
H1508 H 0.58082 0.47206 0.34888 0.0
H1509 H 0.55855 0.45237 0.38506 0.0
H1510 H 0.65051 0.52191 0.49237 0.0
H1511 H 0.64437 0.54203 0.5243 0.0
H1512 H 0.6487 0.54344 0.45907 0.0
C1513 C 0.10558 0.67028 0.30351 0.0
C1514 C 0.12834 0.68271 0.32102 0.0
C1515 C 0.09103 0.64841 0.31966 0.0
C1516 C 0.09941 0.63894 0.35465 0.0
C1517 C 0.12266 0.65082 0.37019 0.0
C1518 C 0.13681 0.67263 0.35344 0.0
C1519 C 0.06636 0.63629 0.30216 0.0
C1520 C 0.13226 0.64136 0.40759 0.0
C1521 C 0.0613 0.60488 0.45325 0.0
C1522 C 0.05567 0.58226 0.43888 0.0
C1523 C 0.07502 0.62324 0.42535 0.0
C1524 C 0.08343 0.61902 0.38173 0.0
C1525 C 0.07732 0.59619 0.36594 0.0
C1526 C 0.06342 0.57799 0.39473 0.0
C1527 C 0.08096 0.6473 0.44343 0.0
C1528 C 0.08596 0.59112 0.31948 0.0
H1529 H 0.09893 0.67809 0.27877 0.0
H1530 H 0.15433 0.68227 0.36751 0.0
H1531 H 0.05992 0.61773 0.29319 0.0
H1532 H 0.05646 0.63771 0.33217 0.0
H1533 H 0.06331 0.64385 0.26905 0.0
H1534 H 0.15101 0.65093 0.41025 0.0
H1535 H 0.12639 0.64261 0.44458 0.0
H1536 H 0.12622 0.62294 0.3979 0.0
H1537 H 0.05514 0.60837 0.48687 0.0
H1538 H 0.05911 0.56056 0.38336 0.0
H1539 H 0.07619 0.65548 0.41418 0.0
H1540 H 0.09946 0.65801 0.45182 0.0
H1541 H 0.07238 0.64751 0.47725 0.0
H1542 H 0.08247 0.59911 0.28782 0.0
H1543 H 0.07821 0.57236 0.31009 0.0
H1544 H 0.10453 0.59874 0.32438 0.0
loop_
_geom_bond_atom_site_label_1
_geom_bond_atom_site_label_2
_geom_bond_distance
_geom_bond_site_symmetry_2
_ccdc_geom_bond_type
C0 C1 1.560 . S
C0 H61 0.959 . S
C0 H62 0.959 . S
C0 H63 0.960 . S
C1 C0 1.560 . S
C1 O56 1.426 . S
C1 H60 0.980 . S
C2 C3 1.407 . S
C2 C7 1.418 . S
C2 O56 1.334 . S
C3 C2 1.407 . S
C3 C4 1.360 . S
C3 H64 0.929 . S
C4 C3 1.360 . S
C4 C5 1.401 . S
C4 C8 1.527 . S
C5 C4 1.401 . S
C5 C6 1.405 . S
C5 C38 1.587 . S
C6 C5 1.405 . S
C6 C7 1.332 . S
C6 C9 1.496 . S
C7 C2 1.418 . S
C7 C6 1.332 . S
C7 H65 0.929 . S
C8 C4 1.527 . S
C8 H66 0.959 . S
C8 H67 0.961 . S
C8 H68 0.961 . S
C9 C6 1.496 . S
C9 H69 0.960 . S
C9 H70 0.960 . S
C9 H71 0.961 . S
C10 C11 1.517 . S
C10 H73 0.961 . S
C10 H74 0.960 . S
C10 H75 0.959 . S
C11 C10 1.517 . S
C11 O59 1.468 . S
C11 H72 0.980 . S
C12 C13 1.349 . S
C12 C17 1.367 . S
C12 O59 1.408 . S
C13 C12 1.349 . S
C13 C14 1.407 . S
C13 H76 0.930 . S
C14 C13 1.407 . S
C14 C15 1.449 . S
C14 C18 1.535 . S
C15 C14 1.449 . S
C15 C16 1.384 . S
C15 C40 1.553 . S
C16 C15 1.384 . S
C16 C17 1.364 . S
C16 C19 1.450 . S
C17 C12 1.367 . S
C17 C16 1.364 . S
C17 H77 0.931 . S
C18 C14 1.535 . S
C18 H78 0.959 . S
C18 H79 0.961 . S
C18 H80 0.959 . S
C19 C16 1.450 . S
C19 H81 0.960 . S
C19 H82 0.960 . S
C19 H83 0.960 . S
C20 C21 1.309 1_556 S
C20 C25 1.304 . S
C20 O58 1.435 . S
C21 C20 1.309 1_554 S
C21 C22 1.476 . S
C21 H85 0.930 . S
C22 C21 1.476 . S
C22 C23 1.400 . S
C22 C26 1.567 . S
C23 C22 1.400 . S
C23 C24 1.373 . S
C23 C45 1.432 . S
C24 C23 1.373 . S
C24 C25 1.339 1_554 S
C24 C27 1.530 . S
C25 C20 1.304 . S
C25 C24 1.339 1_556 S
C25 H86 0.930 . S
C26 C22 1.567 . S
C26 H87 0.961 . S
C26 H88 0.960 . S
C26 H89 0.958 . S
C27 C24 1.530 . S
C27 H90 0.961 . S
C27 H91 0.960 . S
C27 H92 0.960 . S
C28 C29 1.530 . S
C28 H94 0.961 . S
C28 H95 0.961 . S
C28 H96 0.959 . S
C29 C28 1.530 . S
C29 O57 1.412 . S
C29 H93 0.980 . S
C30 C31 1.288 1_556 S
C30 C35 1.377 . S
C30 O57 1.393 . S
C31 C30 1.288 1_554 S
C31 C32 1.369 . S
C31 H97 0.926 1_554 S
C32 C31 1.369 . S
C32 C33 1.398 . S
C32 C36 1.527 . S
C33 C32 1.398 . S
C33 C34 1.380 . S
C33 C47 1.497 . S
C34 C33 1.380 . S
C34 C35 1.383 1_554 S
C34 C37 1.603 . S
C35 C30 1.377 . S
C35 C34 1.383 1_556 S
C35 H98 0.929 . S
C36 C32 1.527 . S
C36 H99 0.961 . S
C36 H100 0.959 . S
C36 H101 0.959 . S
C37 C34 1.603 . S
C37 H102 0.960 . S
C37 H103 0.962 . S
C37 H104 0.961 . S
C38 C5 1.587 . S
C38 C39 1.360 . S
C38 C51 1.412 . S
C39 C38 1.360 . S
C39 C40 1.365 . S
C39 H105 0.929 . S
C40 C15 1.553 . S
C40 C39 1.365 . S
C40 C41 1.404 . S
C41 C40 1.404 . S
C41 C42 1.395 . S
C41 C52 1.451 . S
C42 C41 1.395 . S
C42 C43 1.322 . S
C42 H106 0.930 . S
C43 C42 1.322 . S
C43 C44 1.459 . S
C43 H107 0.929 . S
C44 C43 1.459 . S
C44 C45 1.445 . S
C44 C53 1.395 . S
C45 C23 1.432 . S
C45 C44 1.445 . S
C45 C46 1.370 . S
C46 C45 1.370 . S
C46 C47 1.438 . S
C46 H108 0.930 . S
C47 C33 1.497 . S
C47 C46 1.438 . S
C47 C48 1.360 . S
C48 C47 1.360 . S
C48 C49 1.401 . S
C48 C53 1.446 . S
C49 C48 1.401 . S
C49 C50 1.347 . S
C49 H109 0.929 . S
C50 C49 1.347 . S
C50 C51 1.455 . S
C50 H110 0.930 . S
C51 C38 1.412 . S
C51 C50 1.455 . S
C51 C52 1.331 . S
C52 C41 1.451 . S
C52 C51 1.331 . S
C52 C53 1.497 . S
C53 C44 1.395 . S
C53 C48 1.446 . S
C53 C52 1.497 . S
C54 C55 1.582 . S
C54 H111 0.962 . S
C54 H112 0.959 . S
C54 H113 0.958 . S
C55 C54 1.582 . S
C55 O58 1.458 . S
C55 H84 0.980 . S
O56 C1 1.426 . S
O56 C2 1.334 . S
O57 C29 1.412 . S
O57 C30 1.393 . S
O58 C20 1.435 . S
O58 C55 1.458 . S
O59 C11 1.468 . S
O59 C12 1.408 . S
H60 C1 0.980 . S
H61 C0 0.959 . S
H62 C0 0.959 . S
H63 C0 0.960 . S
H64 C3 0.929 . S
H65 C7 0.929 . S
H66 C8 0.959 . S
H67 C8 0.961 . S
H68 C8 0.961 . S
H69 C9 0.960 . S
H70 C9 0.960 . S
H71 C9 0.961 . S
H72 C11 0.980 . S
H73 C10 0.961 . S
H74 C10 0.960 . S
H75 C10 0.959 . S
H76 C13 0.930 . S
H77 C17 0.931 . S
H78 C18 0.959 . S
H79 C18 0.961 . S
H80 C18 0.959 . S
H81 C19 0.960 . S
H82 C19 0.960 . S
H83 C19 0.960 . S
H84 C55 0.980 . S
H85 C21 0.930 . S
H86 C25 0.930 . S
H87 C26 0.961 . S
H88 C26 0.960 . S
H89 C26 0.958 . S
H90 C27 0.961 . S
H91 C27 0.960 . S
H92 C27 0.960 . S
H93 C29 0.980 . S
H94 C28 0.961 . S
H95 C28 0.961 . S
H96 C28 0.959 . S
H97 C31 0.926 1_556 S
H98 C35 0.929 . S
H99 C36 0.961 . S
H100 C36 0.959 . S
H101 C36 0.959 . S
H102 C37 0.960 . S
H103 C37 0.962 . S
H104 C37 0.961 . S
H105 C39 0.929 . S
H106 C42 0.930 . S
H107 C43 0.929 . S
H108 C46 0.930 . S
H109 C49 0.929 . S
H110 C50 0.930 . S
H111 C54 0.962 . S
H112 C54 0.959 . S
H113 C54 0.958 . S
C114 C115 1.560 . S
C114 H175 0.959 . S
C114 H176 0.959 . S
C114 H177 0.960 . S
C115 C114 1.560 . S
C115 O170 1.426 . S
C115 H174 0.980 . S
C116 C117 1.407 . S
C116 C121 1.418 . S
C116 O170 1.334 . S
C117 C116 1.407 . S
C117 C118 1.360 . S
C117 H178 0.929 . S
C118 C117 1.360 . S
C118 C119 1.401 . S
C118 C122 1.527 . S
C119 C118 1.401 . S
C119 C120 1.405 . S
C119 C152 1.587 . S
C120 C119 1.405 . S
C120 C121 1.332 . S
C120 C123 1.496 . S
C121 C116 1.418 . S
C121 C120 1.332 . S
C121 H179 0.929 . S
C122 C118 1.527 . S
C122 H180 0.959 . S
C122 H181 0.961 . S
C122 H182 0.961 . S
C123 C120 1.496 . S
C123 H183 0.960 . S
C123 H184 0.960 . S
C123 H185 0.961 . S
C124 C125 1.517 . S
C124 H187 0.961 . S
C124 H188 0.960 . S
C124 H189 0.959 . S
C125 C124 1.517 . S
C125 O173 1.468 . S
C125 H186 0.980 . S
C126 C127 1.349 . S
C126 C131 1.367 . S
C126 O173 1.408 . S
C127 C126 1.349 . S
C127 C128 1.407 . S
C127 H190 0.930 . S
C128 C127 1.407 . S
C128 C129 1.449 . S
C128 C132 1.535 . S
C129 C128 1.449 . S
C129 C130 1.384 . S
C129 C154 1.553 . S
C130 C129 1.384 . S
C130 C131 1.364 . S
C130 C133 1.450 . S
C131 C126 1.367 . S
C131 C130 1.364 . S
C131 H191 0.931 . S
C132 C128 1.535 . S
C132 H192 0.959 . S
C132 H193 0.961 . S
C132 H194 0.959 . S
C133 C130 1.450 . S
C133 H195 0.960 . S
C133 H196 0.960 . S
C133 H197 0.960 . S
C134 C135 1.309 . S
C134 C139 1.304 . S
C134 O172 1.435 . S
C135 C134 1.309 . S
C135 C136 1.476 1_556 S
C135 H199 0.930 . S
C136 C135 1.476 1_554 S
C136 C137 1.400 . S
C136 C140 1.567 . S
C137 C136 1.400 . S
C137 C138 1.373 1_554 S
C137 C159 1.432 . S
C138 C137 1.373 1_556 S
C138 C139 1.339 . S
C138 C141 1.530 1_556 S
C139 C134 1.304 . S
C139 C138 1.339 . S
C139 H200 0.930 . S
C140 C136 1.567 . S
C140 H201 0.961 . S
C140 H202 0.960 . S
C140 H203 0.958 . S
C141 C138 1.530 1_554 S
C141 H204 0.961 1_554 S
C141 H205 0.960 . S
C141 H206 0.960 1_554 S
C142 C143 1.530 . S
C142 H208 0.961 . S
C142 H209 0.961 . S
C142 H210 0.959 . S
C143 C142 1.530 . S
C143 O171 1.412 . S
C143 H207 0.980 . S
C144 C145 1.288 . S
C144 C149 1.377 . S
C144 O171 1.393 . S
C145 C144 1.288 . S
C145 C146 1.369 1_556 S
C145 H211 0.932 . S
C146 C145 1.369 1_554 S
C146 C147 1.398 . S
C146 C150 1.527 . S
C147 C146 1.398 . S
C147 C148 1.380 . S
C147 C161 1.497 . S
C148 C147 1.380 . S
C148 C149 1.383 1_554 S
C148 C151 1.603 . S
C149 C144 1.377 . S
C149 C148 1.383 1_556 S
C149 H212 0.929 . S
C150 C146 1.527 . S
C150 H213 0.961 . S
C150 H214 0.962 . S
C150 H215 0.959 . S
C151 C148 1.603 . S
C151 H216 0.960 1_554 S
C151 H217 0.962 . S
C151 H218 0.961 . S
C152 C119 1.587 . S
C152 C153 1.360 . S
C152 C165 1.412 . S
C153 C152 1.360 . S
C153 C154 1.365 . S
C153 H219 0.929 . S
C154 C129 1.553 . S
C154 C153 1.365 . S
C154 C155 1.404 . S
C155 C154 1.404 . S
C155 C156 1.395 . S
C155 C166 1.451 . S
C156 C155 1.395 . S
C156 C157 1.322 . S
C156 H220 0.930 . S
C157 C156 1.322 . S
C157 C158 1.459 . S
C157 H221 0.929 . S
C158 C157 1.459 . S
C158 C159 1.445 . S
C158 C167 1.395 . S
C159 C137 1.432 . S
C159 C158 1.445 . S
C159 C160 1.370 . S
C160 C159 1.370 . S
C160 C161 1.438 . S
C160 H222 0.930 1_554 S
C161 C147 1.497 . S
C161 C160 1.438 . S
C161 C162 1.360 . S
C162 C161 1.360 . S
C162 C163 1.401 . S
C162 C167 1.446 . S
C163 C162 1.401 . S
C163 C164 1.347 . S
C163 H223 0.929 . S
C164 C163 1.347 . S
C164 C165 1.455 . S
C164 H224 0.930 . S
C165 C152 1.412 . S
C165 C164 1.455 . S
C165 C166 1.331 . S
C166 C155 1.451 . S
C166 C165 1.331 . S
C166 C167 1.497 . S
C167 C158 1.395 . S
C167 C162 1.446 . S
C167 C166 1.497 . S
C168 C169 1.582 . S
C168 H225 0.962 . S
C168 H226 0.959 . S
C168 H227 0.958 . S
C169 C168 1.582 . S
C169 O172 1.458 . S
C169 H198 0.980 . S
O170 C115 1.426 . S
O170 C116 1.334 . S
O171 C143 1.412 . S
O171 C144 1.393 . S
O172 C134 1.435 . S
O172 C169 1.458 . S
O173 C125 1.468 . S
O173 C126 1.408 . S
H174 C115 0.980 . S
H175 C114 0.959 . S
H176 C114 0.959 . S
H177 C114 0.960 . S
H178 C117 0.929 . S
H179 C121 0.929 . S
H180 C122 0.959 . S
H181 C122 0.961 . S
H182 C122 0.961 . S
H183 C123 0.960 . S
H184 C123 0.960 . S
H185 C123 0.961 . S
H186 C125 0.980 . S
H187 C124 0.961 . S
H188 C124 0.960 . S
H189 C124 0.959 . S
H190 C127 0.930 . S
H191 C131 0.931 . S
H192 C132 0.959 . S
H193 C132 0.961 . S
H194 C132 0.959 . S
H195 C133 0.960 . S
H196 C133 0.960 . S
H197 C133 0.960 . S
H198 C169 0.980 . S
H199 C135 0.930 . S
H200 C139 0.930 . S
H201 C140 0.961 . S
H202 C140 0.960 . S
H203 C140 0.958 . S
H204 C141 0.961 1_556 S
H205 C141 0.960 . S
H206 C141 0.960 1_556 S
H207 C143 0.980 . S
H208 C142 0.961 . S
H209 C142 0.961 . S
H210 C142 0.959 . S
H211 C145 0.932 . S
H212 C149 0.929 . S
H213 C150 0.961 . S
H214 C150 0.962 . S
H215 C150 0.959 . S
H216 C151 0.960 1_556 S
H217 C151 0.962 . S
H218 C151 0.961 . S
H219 C153 0.929 . S
H220 C156 0.930 . S
H221 C157 0.929 . S
H222 C160 0.930 1_556 S
H223 C163 0.929 . S
H224 C164 0.930 . S
H225 C168 0.962 . S
H226 C168 0.959 . S
H227 C168 0.958 . S
C228 C229 1.560 . S
C228 H289 0.959 . S
C228 H290 0.959 . S
C228 H291 0.960 . S
C229 C228 1.560 . S
C229 O284 1.426 . S
C229 H288 0.980 . S
C230 C231 1.407 . S
C230 C235 1.418 . S
C230 O284 1.334 . S
C231 C230 1.407 . S
C231 C232 1.360 . S
C231 H292 0.929 . S
C232 C231 1.360 . S
C232 C233 1.401 . S
C232 C236 1.527 . S
C233 C232 1.401 . S
C233 C234 1.405 . S
C233 C266 1.587 . S
C234 C233 1.405 . S
C234 C235 1.332 . S
C234 C237 1.496 . S
C235 C230 1.418 . S
C235 C234 1.332 . S
C235 H293 0.929 . S
C236 C232 1.527 . S
C236 H294 0.959 . S
C236 H295 0.961 . S
C236 H296 0.961 . S
C237 C234 1.496 . S
C237 H297 0.960 . S
C237 H298 0.960 . S
C237 H299 0.961 . S
C238 C239 1.517 . S
C238 H301 0.961 . S
C238 H302 0.960 . S
C238 H303 0.959 . S
C239 C238 1.517 . S
C239 O287 1.468 . S
C239 H300 0.980 . S
C240 C241 1.349 . S
C240 C245 1.367 . S
C240 O287 1.408 . S
C241 C240 1.349 . S
C241 C242 1.407 . S
C241 H304 0.930 . S
C242 C241 1.407 . S
C242 C243 1.449 . S
C242 C246 1.535 . S
C243 C242 1.449 . S
C243 C244 1.384 . S
C243 C268 1.553 . S
C244 C243 1.384 . S
C244 C245 1.364 . S
C244 C247 1.450 . S
C245 C240 1.367 . S
C245 C244 1.364 . S
C245 H305 0.931 . S
C246 C242 1.535 . S
C246 H306 0.959 . S
C246 H307 0.961 . S
C246 H308 0.959 . S
C247 C244 1.450 . S
C247 H309 0.960 . S
C247 H310 0.960 . S
C247 H311 0.960 . S
C248 C249 1.309 . S
C248 C253 1.304 . S
C248 O286 1.435 . S
C249 C248 1.309 . S
C249 C250 1.476 . S
C249 H313 0.930 . S
C250 C249 1.476 . S
C250 C251 1.400 . S
C250 C254 1.567 . S
C251 C250 1.400 . S
C251 C252 1.373 . S
C251 C273 1.432 . S
C252 C251 1.373 . S
C252 C253 1.339 . S
C252 C255 1.530 . S
C253 C248 1.304 . S
C253 C252 1.339 . S
C253 H314 0.930 . S
C254 C250 1.567 . S
C254 H315 0.961 . S
C254 H316 0.960 . S
C254 H317 0.958 . S
C255 C252 1.530 . S
C255 H318 0.961 . S
C255 H319 0.960 . S
C255 H320 0.960 . S
C256 C257 1.530 . S
C256 H322 0.961 . S
C256 H323 0.961 . S
C256 H324 0.959 . S
C257 C256 1.530 . S
C257 O285 1.412 . S
C257 H321 0.980 . S
C258 C259 1.288 . S
C258 C263 1.377 . S
C258 O285 1.393 . S
C259 C258 1.288 . S
C259 C260 1.369 . S
C259 H325 0.932 . S
C260 C259 1.369 . S
C260 C261 1.398 . S
C260 C264 1.527 . S
C261 C260 1.398 . S
C261 C262 1.380 . S
C261 C275 1.497 . S
C262 C261 1.380 . S
C262 C263 1.383 . S
C262 C265 1.603 . S
C263 C258 1.377 . S
C263 C262 1.383 . S
C263 H326 0.929 . S
C264 C260 1.527 . S
C264 H327 0.961 . S
C264 H328 0.959 . S
C264 H329 0.959 . S
C265 C262 1.603 . S
C265 H330 0.960 . S
C265 H331 0.962 . S
C265 H332 0.961 . S
C266 C233 1.587 . S
C266 C267 1.360 . S
C266 C279 1.412 . S
C267 C266 1.360 . S
C267 C268 1.365 . S
C267 H333 0.929 . S
C268 C243 1.553 . S
C268 C267 1.365 . S
C268 C269 1.404 . S
C269 C268 1.404 . S
C269 C270 1.395 . S
C269 C280 1.451 . S
C270 C269 1.395 . S
C270 C271 1.322 . S
C270 H334 0.930 . S
C271 C270 1.322 . S
C271 C272 1.459 1_554 S
C271 H335 0.929 . S
C272 C271 1.459 1_556 S
C272 C273 1.445 . S
C272 C281 1.395 1_556 S
C273 C251 1.432 . S
C273 C272 1.445 . S
C273 C274 1.370 . S
C274 C273 1.370 . S
C274 C275 1.438 . S
C274 H336 0.930 . S
C275 C261 1.497 . S
C275 C274 1.438 . S
C275 C276 1.360 . S
C276 C275 1.360 . S
C276 C277 1.401 1_556 S
C276 C281 1.446 1_556 S
C277 C276 1.401 1_554 S
C277 C278 1.347 . S
C277 H337 0.929 1_554 S
C278 C277 1.347 . S
C278 C279 1.455 . S
C278 H338 0.930 . S
C279 C266 1.412 . S
C279 C278 1.455 . S
C279 C280 1.331 . S
C280 C269 1.451 . S
C280 C279 1.331 . S
C280 C281 1.497 . S
C281 C272 1.395 1_554 S
C281 C276 1.446 1_554 S
C281 C280 1.497 . S
C282 C283 1.582 . S
C282 H339 0.962 . S
C282 H340 0.959 . S
C282 H341 0.958 . S
C283 C282 1.582 . S
C283 O286 1.458 . S
C283 H312 0.980 . S
O284 C229 1.426 . S
O284 C230 1.334 . S
O285 C257 1.412 . S
O285 C258 1.393 . S
O286 C248 1.435 . S
O286 C283 1.458 . S
O287 C239 1.468 . S
O287 C240 1.408 . S
H288 C229 0.980 . S
H289 C228 0.959 . S
H290 C228 0.959 . S
H291 C228 0.960 . S
H292 C231 0.929 . S
H293 C235 0.929 . S
H294 C236 0.959 . S
H295 C236 0.961 . S
H296 C236 0.961 . S
H297 C237 0.960 . S
H298 C237 0.960 . S
H299 C237 0.961 . S
H300 C239 0.980 . S
H301 C238 0.961 . S
H302 C238 0.960 . S
H303 C238 0.959 . S
H304 C241 0.930 . S
H305 C245 0.931 . S
H306 C246 0.959 . S
H307 C246 0.961 . S
H308 C246 0.959 . S
H309 C247 0.960 . S
H310 C247 0.960 . S
H311 C247 0.960 . S
H312 C283 0.980 . S
H313 C249 0.930 . S
H314 C253 0.930 . S
H315 C254 0.961 . S
H316 C254 0.960 . S
H317 C254 0.958 . S
H318 C255 0.961 . S
H319 C255 0.960 . S
H320 C255 0.960 . S
H321 C257 0.980 . S
H322 C256 0.961 . S
H323 C256 0.961 . S
H324 C256 0.959 . S
H325 C259 0.932 . S
H326 C263 0.929 . S
H327 C264 0.961 . S
H328 C264 0.959 . S
H329 C264 0.959 . S
H330 C265 0.960 . S
H331 C265 0.962 . S
H332 C265 0.961 . S
H333 C267 0.929 . S
H334 C270 0.930 . S
H335 C271 0.929 . S
H336 C274 0.930 . S
H337 C277 0.929 1_556 S
H338 C278 0.930 . S
H339 C282 0.962 . S
H340 C282 0.959 . S
H341 C282 0.958 . S
C342 C343 1.560 . S
C342 H403 0.959 . S
C342 H404 0.959 . S
C342 H405 0.960 . S
C343 C342 1.560 . S
C343 O398 1.426 . S
C343 H402 0.980 . S
C344 C345 1.407 . S
C344 C349 1.418 . S
C344 O398 1.334 . S
C345 C344 1.407 . S
C345 C346 1.360 . S
C345 H406 0.929 . S
C346 C345 1.360 . S
C346 C347 1.401 . S
C346 C350 1.527 . S
C347 C346 1.401 . S
C347 C348 1.405 . S
C347 C380 1.587 . S
C348 C347 1.405 . S
C348 C349 1.332 . S
C348 C351 1.496 . S
C349 C344 1.418 . S
C349 C348 1.332 . S
C349 H407 0.929 . S
C350 C346 1.527 . S
C350 H408 0.959 . S
C350 H409 0.961 . S
C350 H410 0.961 . S
C351 C348 1.496 . S
C351 H411 0.960 . S
C351 H412 0.960 . S
C351 H413 0.961 . S
C352 C353 1.517 . S
C352 H415 0.961 . S
C352 H416 0.960 . S
C352 H417 0.959 . S
C353 C352 1.517 . S
C353 O401 1.468 . S
C353 H414 0.980 . S
C354 C355 1.349 . S
C354 C359 1.367 . S
C354 O401 1.408 . S
C355 C354 1.349 . S
C355 C356 1.407 . S
C355 H418 0.930 . S
C356 C355 1.407 . S
C356 C357 1.449 . S
C356 C360 1.535 . S
C357 C356 1.449 . S
C357 C358 1.384 . S
C357 C382 1.553 . S
C358 C357 1.384 . S
C358 C359 1.364 . S
C358 C361 1.450 . S
C359 C354 1.367 . S
C359 C358 1.364 . S
C359 H419 0.931 . S
C360 C356 1.535 . S
C360 H420 0.959 . S
C360 H421 0.961 . S
C360 H422 0.959 . S
C361 C358 1.450 . S
C361 H423 0.960 . S
C361 H424 0.960 . S
C361 H425 0.960 . S
C362 C363 1.309 . S
C362 C367 1.304 . S
C362 O400 1.435 . S
C363 C362 1.309 . S
C363 C364 1.476 . S
C363 H427 0.930 . S
C364 C363 1.476 . S
C364 C365 1.400 . S
C364 C368 1.567 . S
C365 C364 1.400 . S
C365 C366 1.373 . S
C365 C387 1.432 . S
C366 C365 1.373 . S
C366 C367 1.339 . S
C366 C369 1.530 . S
C367 C362 1.304 . S
C367 C366 1.339 . S
C367 H428 0.930 . S
C368 C364 1.567 . S
C368 H429 0.957 1_556 S
C368 H430 0.960 . S
C368 H431 0.958 . S
C369 C366 1.530 . S
C369 H432 0.961 . S
C369 H433 0.960 . S
C369 H434 0.960 . S
C370 C371 1.530 . S
C370 H436 0.961 . S
C370 H437 0.961 . S
C370 H438 0.959 . S
C371 C370 1.530 . S
C371 O399 1.412 . S
C371 H435 0.980 . S
C372 C373 1.288 . S
C372 C377 1.377 . S
C372 O399 1.393 . S
C373 C372 1.288 . S
C373 C374 1.369 . S
C373 H439 0.932 . S
C374 C373 1.369 . S
C374 C375 1.398 . S
C374 C378 1.527 . S
C375 C374 1.398 . S
C375 C376 1.380 . S
C375 C389 1.497 . S
C376 C375 1.380 . S
C376 C377 1.383 . S
C376 C379 1.603 . S
C377 C372 1.377 . S
C377 C376 1.383 . S
C377 H440 0.929 . S
C378 C374 1.527 . S
C378 H441 0.961 . S
C378 H442 0.959 . S
C378 H443 0.959 . S
C379 C376 1.603 . S
C379 H444 0.960 . S
C379 H445 0.962 . S
C379 H446 0.961 . S
C380 C347 1.587 . S
C380 C381 1.360 . S
C380 C393 1.412 . S
C381 C380 1.360 . S
C381 C382 1.365 . S
C381 H447 0.929 . S
C382 C357 1.553 . S
C382 C381 1.365 . S
C382 C383 1.404 . S
C383 C382 1.404 . S
C383 C384 1.395 . S
C383 C394 1.451 . S
C384 C383 1.395 . S
C384 C385 1.322 . S
C384 H448 0.930 . S
C385 C384 1.322 . S
C385 C386 1.459 . S
C385 H449 0.929 . S
C386 C385 1.459 . S
C386 C387 1.445 1_554 S
C386 C395 1.395 . S
C387 C365 1.432 . S
C387 C386 1.445 1_556 S
C387 C388 1.370 . S
C388 C387 1.370 . S
C388 C389 1.438 . S
C388 H450 0.930 . S
C389 C375 1.497 . S
C389 C388 1.438 . S
C389 C390 1.360 1_556 S
C390 C389 1.360 1_554 S
C390 C391 1.401 . S
C390 C395 1.446 . S
C391 C390 1.401 . S
C391 C392 1.347 . S
C391 H451 0.929 . S
C392 C391 1.347 . S
C392 C393 1.455 . S
C392 H452 0.930 . S
C393 C380 1.412 . S
C393 C392 1.455 . S
C393 C394 1.331 . S
C394 C383 1.451 . S
C394 C393 1.331 . S
C394 C395 1.497 . S
C395 C386 1.395 . S
C395 C390 1.446 . S
C395 C394 1.497 . S
C396 C397 1.582 . S
C396 H453 0.962 . S
C396 H454 0.959 . S
C396 H455 0.958 . S
C397 C396 1.582 . S
C397 O400 1.458 . S
C397 H426 0.980 . S
O398 C343 1.426 . S
O398 C344 1.334 . S
O399 C371 1.412 . S
O399 C372 1.393 . S
O400 C362 1.435 . S
O400 C397 1.458 . S
O401 C353 1.468 . S
O401 C354 1.408 . S
H402 C343 0.980 . S
H403 C342 0.959 . S
H404 C342 0.959 . S
H405 C342 0.960 . S
H406 C345 0.929 . S
H407 C349 0.929 . S
H408 C350 0.959 . S
H409 C350 0.961 . S
H410 C350 0.961 . S
H411 C351 0.960 . S
H412 C351 0.960 . S
H413 C351 0.961 . S
H414 C353 0.980 . S
H415 C352 0.961 . S
H416 C352 0.960 . S
H417 C352 0.959 . S
H418 C355 0.930 . S
H419 C359 0.931 . S
H420 C360 0.959 . S
H421 C360 0.961 . S
H422 C360 0.959 . S
H423 C361 0.960 . S
H424 C361 0.960 . S
H425 C361 0.960 . S
H426 C397 0.980 . S
H427 C363 0.930 . S
H428 C367 0.930 . S
H429 C368 0.957 1_554 S
H430 C368 0.960 . S
H431 C368 0.958 . S
H432 C369 0.961 . S
H433 C369 0.960 . S
H434 C369 0.960 . S
H435 C371 0.980 . S
H436 C370 0.961 . S
H437 C370 0.961 . S
H438 C370 0.959 . S
H439 C373 0.932 . S
H440 C377 0.929 . S
H441 C378 0.961 . S
H442 C378 0.959 . S
H443 C378 0.959 . S
H444 C379 0.960 . S
H445 C379 0.962 . S
H446 C379 0.961 . S
H447 C381 0.929 . S
H448 C384 0.930 . S
H449 C385 0.929 . S
H450 C388 0.930 . S
H451 C391 0.929 . S
H452 C392 0.930 . S
H453 C396 0.962 . S
H454 C396 0.959 . S
H455 C396 0.958 . S
C456 C457 1.560 . S
C456 H517 0.959 . S
C456 H518 0.959 . S
C456 H519 0.960 . S
C457 C456 1.560 . S
C457 O512 1.426 . S
C457 H516 0.980 . S
C458 C459 1.407 . S
C458 C463 1.418 . S
C458 O512 1.334 . S
C459 C458 1.407 . S
C459 C460 1.360 . S
C459 H520 0.929 . S
C460 C459 1.360 . S
C460 C461 1.401 . S
C460 C464 1.527 . S
C461 C460 1.401 . S
C461 C462 1.405 . S
C461 C494 1.587 . S
C462 C461 1.405 . S
C462 C463 1.332 . S
C462 C465 1.496 . S
C463 C458 1.418 . S
C463 C462 1.332 . S
C463 H521 0.929 . S
C464 C460 1.527 . S
C464 H522 0.959 . S
C464 H523 0.961 . S
C464 H524 0.961 . S
C465 C462 1.496 . S
C465 H525 0.960 . S
C465 H526 0.960 . S
C465 H527 0.961 1_556 S
C466 C467 1.517 . S
C466 H529 0.961 . S
C466 H530 0.960 . S
C466 H531 0.959 . S
C467 C466 1.517 . S
C467 O515 1.468 . S
C467 H528 0.980 . S
C468 C469 1.349 . S
C468 C473 1.367 . S
C468 O515 1.408 . S
C469 C468 1.349 . S
C469 C470 1.407 . S
C469 H532 0.930 . S
C470 C469 1.407 . S
C470 C471 1.449 . S
C470 C474 1.535 . S
C471 C470 1.449 . S
C471 C472 1.384 . S
C471 C496 1.553 . S
C472 C471 1.384 . S
C472 C473 1.364 . S
C472 C475 1.450 . S
C473 C468 1.367 . S
C473 C472 1.364 . S
C473 H533 0.931 . S
C474 C470 1.535 . S
C474 H534 0.959 . S
C474 H535 0.961 . S
C474 H536 0.959 . S
C475 C472 1.450 . S
C475 H537 0.960 . S
C475 H538 0.960 . S
C475 H539 0.960 1_556 S
C476 C477 1.309 . S
C476 C481 1.304 . S
C476 O514 1.435 . S
C477 C476 1.309 . S
C477 C478 1.476 . S
C477 H541 0.930 . S
C478 C477 1.476 . S
C478 C479 1.400 . S
C478 C482 1.567 . S
C479 C478 1.400 . S
C479 C480 1.373 . S
C479 C501 1.432 . S
C480 C479 1.373 . S
C480 C481 1.339 . S
C480 C483 1.530 . S
C481 C476 1.304 . S
C481 C480 1.339 . S
C481 H542 0.930 . S
C482 C478 1.567 . S
C482 H543 0.961 . S
C482 H544 0.960 . S
C482 H545 0.958 . S
C483 C480 1.530 . S
C483 H546 0.961 . S
C483 H547 0.960 . S
C483 H548 0.960 . S
C484 C485 1.530 . S
C484 H550 0.961 . S
C484 H551 0.961 . S
C484 H552 0.959 . S
C485 C484 1.530 . S
C485 O513 1.412 . S
C485 H549 0.980 . S
C486 C487 1.288 . S
C486 C491 1.377 . S
C486 O513 1.393 . S
C487 C486 1.288 . S
C487 C488 1.369 . S
C487 H553 0.932 . S
C488 C487 1.369 . S
C488 C489 1.398 . S
C488 C492 1.527 . S
C489 C488 1.398 . S
C489 C490 1.380 . S
C489 C503 1.497 . S
C490 C489 1.380 . S
C490 C491 1.383 . S
C490 C493 1.603 . S
C491 C486 1.377 . S
C491 C490 1.383 . S
C491 H554 0.929 . S
C492 C488 1.527 . S
C492 H555 0.961 . S
C492 H556 0.959 . S
C492 H557 0.959 . S
C493 C490 1.603 . S
C493 H558 0.960 . S
C493 H559 0.962 . S
C493 H560 0.961 . S
C494 C461 1.587 . S
C494 C495 1.360 . S
C494 C507 1.412 1_556 S
C495 C494 1.360 . S
C495 C496 1.365 . S
C495 H561 0.929 . S
C496 C471 1.553 . S
C496 C495 1.365 . S
C496 C497 1.404 1_556 S
C497 C496 1.404 1_554 S
C497 C498 1.395 . S
C497 C508 1.451 . S
C498 C497 1.395 . S
C498 C499 1.322 . S
C498 H562 0.930 . S
C499 C498 1.322 . S
C499 C500 1.459 . S
C499 H563 0.929 . S
C500 C499 1.459 . S
C500 C501 1.445 . S
C500 C509 1.395 . S
C501 C479 1.432 . S
C501 C500 1.445 . S
C501 C502 1.370 . S
C502 C501 1.370 . S
C502 C503 1.438 . S
C502 H564 0.930 . S
C503 C489 1.497 . S
C503 C502 1.438 . S
C503 C504 1.360 . S
C504 C503 1.360 . S
C504 C505 1.401 . S
C504 C509 1.446 . S
C505 C504 1.401 . S
C505 C506 1.347 . S
C505 H565 0.929 . S
C506 C505 1.347 . S
C506 C507 1.455 . S
C506 H566 0.930 . S
C507 C494 1.412 1_554 S
C507 C506 1.455 . S
C507 C508 1.331 . S
C508 C497 1.451 . S
C508 C507 1.331 . S
C508 C509 1.497 . S
C509 C500 1.395 . S
C509 C504 1.446 . S
C509 C508 1.497 . S
C510 C511 1.582 . S
C510 H567 0.962 . S
C510 H568 0.959 . S
C510 H569 0.958 . S
C511 C510 1.582 . S
C511 O514 1.458 . S
C511 H540 0.980 . S
O512 C457 1.426 . S
O512 C458 1.334 . S
O513 C485 1.412 . S
O513 C486 1.393 . S
O514 C476 1.435 . S
O514 C511 1.458 . S
O515 C467 1.468 . S
O515 C468 1.408 . S
H516 C457 0.980 . S
H517 C456 0.959 . S
H518 C456 0.959 . S
H519 C456 0.960 . S
H520 C459 0.929 . S
H521 C463 0.929 . S
H522 C464 0.959 . S
H523 C464 0.961 . S
H524 C464 0.961 . S
H525 C465 0.960 . S
H526 C465 0.960 . S
H527 C465 0.961 1_554 S
H528 C467 0.980 . S
H529 C466 0.961 . S
H530 C466 0.960 . S
H531 C466 0.959 . S
H532 C469 0.930 . S
H533 C473 0.931 . S
H534 C474 0.959 . S
H535 C474 0.961 . S
H536 C474 0.959 . S
H537 C475 0.960 . S
H538 C475 0.960 . S
H539 C475 0.960 1_554 S
H540 C511 0.980 . S
H541 C477 0.930 . S
H542 C481 0.930 . S
H543 C482 0.961 . S
H544 C482 0.960 . S
H545 C482 0.958 . S
H546 C483 0.961 . S
H547 C483 0.960 . S
H548 C483 0.960 . S
H549 C485 0.980 . S
H550 C484 0.961 . S
H551 C484 0.961 . S
H552 C484 0.959 . S
H553 C487 0.932 . S
H554 C491 0.929 . S
H555 C492 0.961 . S
H556 C492 0.959 . S
H557 C492 0.959 . S
H558 C493 0.960 . S
H559 C493 0.962 . S
H560 C493 0.961 . S
H561 C495 0.929 . S
H562 C498 0.930 . S
H563 C499 0.929 . S
H564 C502 0.930 . S
H565 C505 0.929 . S
H566 C506 0.930 . S
H567 C510 0.962 . S
H568 C510 0.959 . S
H569 C510 0.958 . S
C570 C571 1.560 . S
C570 H631 0.959 . S
C570 H632 0.959 . S
C570 H633 0.960 . S
C571 C570 1.560 . S
C571 O626 1.426 . S
C571 H630 0.980 . S
C572 C573 1.407 . S
C572 C577 1.418 . S
C572 O626 1.334 . S
C573 C572 1.407 . S
C573 C574 1.360 . S
C573 H634 0.929 . S
C574 C573 1.360 . S
C574 C575 1.401 . S
C574 C578 1.527 . S
C575 C574 1.401 . S
C575 C576 1.405 . S
C575 C608 1.587 . S
C576 C575 1.405 . S
C576 C577 1.332 . S
C576 C579 1.496 . S
C577 C572 1.418 . S
C577 C576 1.332 . S
C577 H635 0.929 . S
C578 C574 1.527 . S
C578 H636 0.959 . S
C578 H637 0.961 . S
C578 H638 0.961 . S
C579 C576 1.496 . S
C579 H639 0.960 . S
C579 H640 0.960 . S
C579 H641 0.961 . S
C580 C581 1.517 . S
C580 H643 0.961 . S
C580 H644 0.960 . S
C580 H645 0.959 . S
C581 C580 1.517 . S
C581 O629 1.468 . S
C581 H642 0.980 . S
C582 C583 1.349 . S
C582 C587 1.367 . S
C582 O629 1.408 . S
C583 C582 1.349 . S
C583 C584 1.407 . S
C583 H646 0.930 . S
C584 C583 1.407 . S
C584 C585 1.449 . S
C584 C588 1.535 . S
C585 C584 1.449 . S
C585 C586 1.384 . S
C585 C610 1.553 . S
C586 C585 1.384 . S
C586 C587 1.364 . S
C586 C589 1.450 . S
C587 C582 1.367 . S
C587 C586 1.364 . S
C587 H647 0.931 . S
C588 C584 1.535 . S
C588 H648 0.959 . S
C588 H649 0.961 . S
C588 H650 0.959 . S
C589 C586 1.450 . S
C589 H651 0.960 . S
C589 H652 0.960 . S
C589 H653 0.960 . S
C590 C591 1.309 . S
C590 C595 1.304 . S
C590 O628 1.435 . S
C591 C590 1.309 . S
C591 C592 1.476 . S
C591 H655 0.930 . S
C592 C591 1.476 . S
C592 C593 1.400 . S
C592 C596 1.567 . S
C593 C592 1.400 . S
C593 C594 1.373 . S
C593 C615 1.432 . S
C594 C593 1.373 . S
C594 C595 1.339 . S
C594 C597 1.530 . S
C595 C590 1.304 . S
C595 C594 1.339 . S
C595 H656 0.930 . S
C596 C592 1.567 . S
C596 H657 0.961 . S
C596 H658 0.960 . S
C596 H659 0.958 . S
C597 C594 1.530 . S
C597 H660 0.961 . S
C597 H661 0.960 . S
C597 H662 0.960 . S
C598 C599 1.530 . S
C598 H664 0.961 . S
C598 H665 0.957 1_556 S
C598 H666 0.959 . S
C599 C598 1.530 . S
C599 O627 1.412 . S
C599 H663 0.980 1_556 S
C600 C601 1.288 . S
C600 C605 1.377 . S
C600 O627 1.393 1_554 S
C601 C600 1.288 . S
C601 C602 1.369 . S
C601 H667 0.932 . S
C602 C601 1.369 . S
C602 C603 1.398 . S
C602 C606 1.527 . S
C603 C602 1.398 . S
C603 C604 1.380 . S
C603 C617 1.497 . S
C604 C603 1.380 . S
C604 C605 1.383 . S
C604 C607 1.603 . S
C605 C600 1.377 . S
C605 C604 1.383 . S
C605 H668 0.929 . S
C606 C602 1.527 . S
C606 H669 0.961 . S
C606 H670 0.959 . S
C606 H671 0.959 . S
C607 C604 1.603 . S
C607 H672 0.960 . S
C607 H673 0.962 . S
C607 H674 0.961 . S
C608 C575 1.587 . S
C608 C609 1.360 . S
C608 C621 1.412 . S
C609 C608 1.360 . S
C609 C610 1.365 . S
C609 H675 0.929 . S
C610 C585 1.553 . S
C610 C609 1.365 . S
C610 C611 1.404 . S
C611 C610 1.404 . S
C611 C612 1.395 . S
C611 C622 1.451 . S
C612 C611 1.395 . S
C612 C613 1.322 . S
C612 H676 0.930 . S
C613 C612 1.322 . S
C613 C614 1.459 . S
C613 H677 0.929 . S
C614 C613 1.459 . S
C614 C615 1.445 . S
C614 C623 1.395 . S
C615 C593 1.432 . S
C615 C614 1.445 . S
C615 C616 1.370 . S
C616 C615 1.370 . S
C616 C617 1.438 . S
C616 H678 0.930 . S
C617 C603 1.497 . S
C617 C616 1.438 . S
C617 C618 1.360 . S
C618 C617 1.360 . S
C618 C619 1.401 . S
C618 C623 1.446 . S
C619 C618 1.401 . S
C619 C620 1.347 . S
C619 H679 0.929 . S
C620 C619 1.347 . S
C620 C621 1.455 . S
C620 H680 0.930 . S
C621 C608 1.412 . S
C621 C620 1.455 . S
C621 C622 1.331 . S
C622 C611 1.451 . S
C622 C621 1.331 . S
C622 C623 1.497 . S
C623 C614 1.395 . S
C623 C618 1.446 . S
C623 C622 1.497 . S
C624 C625 1.582 . S
C624 H681 0.962 . S
C624 H682 0.959 . S
C624 H683 0.958 . S
C625 C624 1.582 . S
C625 O628 1.458 1_556 S
C625 H654 0.980 1_556 S
O626 C571 1.426 . S
O626 C572 1.334 . S
O627 C599 1.412 . S
O627 C600 1.393 1_556 S
O628 C590 1.435 . S
O628 C625 1.458 1_554 S
O629 C581 1.468 . S
O629 C582 1.408 . S
H630 C571 0.980 . S
H631 C570 0.959 . S
H632 C570 0.959 . S
H633 C570 0.960 . S
H634 C573 0.929 . S
H635 C577 0.929 . S
H636 C578 0.959 . S
H637 C578 0.961 . S
H638 C578 0.961 . S
H639 C579 0.960 . S
H640 C579 0.960 . S
H641 C579 0.961 . S
H642 C581 0.980 . S
H643 C580 0.961 . S
H644 C580 0.960 . S
H645 C580 0.959 . S
H646 C583 0.930 . S
H647 C587 0.931 . S
H648 C588 0.959 . S
H649 C588 0.961 . S
H650 C588 0.959 . S
H651 C589 0.960 . S
H652 C589 0.960 . S
H653 C589 0.960 . S
H654 C625 0.980 1_554 S
H655 C591 0.930 . S
H656 C595 0.930 . S
H657 C596 0.961 . S
H658 C596 0.960 . S
H659 C596 0.958 . S
H660 C597 0.961 . S
H661 C597 0.960 . S
H662 C597 0.960 . S
H663 C599 0.980 1_554 S
H664 C598 0.961 . S
H665 C598 0.957 1_554 S
H666 C598 0.959 . S
H667 C601 0.932 . S
H668 C605 0.929 . S
H669 C606 0.961 . S
H670 C606 0.959 . S
H671 C606 0.959 . S
H672 C607 0.960 . S
H673 C607 0.962 . S
H674 C607 0.961 . S
H675 C609 0.929 . S
H676 C612 0.930 . S
H677 C613 0.929 . S
H678 C616 0.930 . S
H679 C619 0.929 . S
H680 C620 0.930 . S
H681 C624 0.962 . S
H682 C624 0.959 . S
H683 C624 0.958 . S
C684 O696 1.241 . S
C684 O697 1.280 . S
C685 O698 1.277 . S
C685 O699 1.245 . S
C686 O710 1.247 . S
C686 O712 1.289 . S
Mg687 O688 1.926 . S
Mg687 O697 1.984 1_455 S
Mg687 O699 1.988 . S
Mg687 O700 2.061 1_455 S
O688 Mg687 1.926 . S
O688 Mg689 1.986 . S
O688 Mg690 1.917 . S
Mg689 O688 1.986 . S
Mg689 O696 2.042 1_455 S
Mg689 O698 2.041 . S
Mg689 O704 2.038 1_455 S
Mg689 O712 2.238 . S
Mg690 O688 1.917 . S
Mg690 O691 1.917 . S
Mg690 O701 2.106 1_455 S
Mg690 O703 2.079 1_455 S
Mg690 O712 2.106 . S
Mg690 O713 2.079 . S
O691 Mg690 1.917 . S
O691 Mg692 1.926 . S
O691 Mg693 1.986 . S
Mg692 O691 1.926 . S
Mg692 O706 1.984 . S
Mg692 O709 1.988 1_455 S
Mg692 O710 2.061 . S
Mg693 O691 1.986 . S
Mg693 O701 2.238 1_455 S
Mg693 O705 2.042 . S
Mg693 O707 2.041 1_455 S
Mg693 O714 2.038 . S
C694 O700 1.247 . S
C694 O701 1.289 . S
C695 O713 1.245 . S
C695 O714 1.274 . S
O696 C684 1.241 . S
O696 Mg689 2.042 1_655 S
O697 C684 1.280 . S
O697 Mg687 1.984 1_655 S
O698 C685 1.277 . S
O698 Mg689 2.041 . S
O699 C685 1.245 . S
O699 Mg687 1.988 . S
O700 Mg687 2.061 1_655 S
O700 C694 1.247 . S
O701 Mg690 2.106 1_655 S
O701 Mg693 2.238 1_655 S
O701 C694 1.289 . S
C702 O703 1.245 . S
C702 O704 1.274 . S
O703 Mg690 2.079 1_655 S
O703 C702 1.245 . S
O704 Mg689 2.038 1_655 S
O704 C702 1.274 . S
O705 Mg693 2.042 . S
O705 C708 1.241 . S
O706 Mg692 1.984 . S
O706 C708 1.280 . S
O707 Mg693 2.041 1_655 S
O707 C711 1.277 . S
C708 O705 1.241 . S
C708 O706 1.280 . S
O709 Mg692 1.988 1_655 S
O709 C711 1.245 . S
O710 C686 1.247 . S
O710 Mg692 2.061 . S
C711 O707 1.277 . S
C711 O709 1.245 . S
O712 C686 1.289 . S
O712 Mg689 2.238 . S
O712 Mg690 2.106 . S
O713 Mg690 2.079 . S
O713 C695 1.245 . S
O714 Mg693 2.038 . S
O714 C695 1.274 . S
C715 O727 1.241 . S
C715 O728 1.280 . S
C716 O729 1.277 . S
C716 O730 1.245 . S
C717 O741 1.247 . S
C717 O743 1.289 . S
Mg718 O719 1.926 . S
Mg718 O728 1.984 . S
Mg718 O730 1.988 1_545 S
Mg718 O731 2.061 . S
O719 Mg718 1.926 . S
O719 Mg720 1.986 . S
O719 Mg721 1.917 . S
Mg720 O719 1.986 . S
Mg720 O727 2.042 . S
Mg720 O729 2.041 1_545 S
Mg720 O735 2.038 . S
Mg720 O743 2.238 1_545 S
Mg721 O719 1.917 . S
Mg721 O722 1.917 . S
Mg721 O732 2.106 . S
Mg721 O734 2.079 . S
Mg721 O743 2.106 1_545 S
Mg721 O744 2.079 1_545 S
O722 Mg721 1.917 . S
O722 Mg723 1.926 1_545 S
O722 Mg724 1.986 . S
Mg723 O722 1.926 1_565 S
Mg723 O737 1.984 . S
Mg723 O740 1.988 1_565 S
Mg723 O741 2.061 . S
Mg724 O722 1.986 . S
Mg724 O732 2.238 . S
Mg724 O736 2.042 1_545 S
Mg724 O738 2.041 . S
Mg724 O745 2.038 1_545 S
C725 O731 1.247 . S
C725 O732 1.289 . S
C726 O744 1.245 . S
C726 O745 1.274 . S
O727 C715 1.241 . S
O727 Mg720 2.042 . S
O728 C715 1.280 . S
O728 Mg718 1.984 . S
O729 C716 1.277 . S
O729 Mg720 2.041 1_565 S
O730 C716 1.245 . S
O730 Mg718 1.988 1_565 S
O731 Mg718 2.061 . S
O731 C725 1.247 . S
O732 Mg721 2.106 . S
O732 Mg724 2.238 . S
O732 C725 1.289 . S
C733 O734 1.245 . S
C733 O735 1.274 . S
O734 Mg721 2.079 . S
O734 C733 1.245 . S
O735 Mg720 2.038 . S
O735 C733 1.274 . S
O736 Mg724 2.042 1_565 S
O736 C739 1.241 . S
O737 Mg723 1.984 . S
O737 C739 1.280 . S
O738 Mg724 2.041 . S
O738 C742 1.277 . S
C739 O736 1.241 . S
C739 O737 1.280 . S
O740 Mg723 1.988 1_545 S
O740 C742 1.245 . S
O741 C717 1.247 . S
O741 Mg723 2.061 . S
C742 O738 1.277 . S
C742 O740 1.245 . S
O743 C717 1.289 . S
O743 Mg720 2.238 1_565 S
O743 Mg721 2.106 1_565 S
O744 Mg721 2.079 1_565 S
O744 C726 1.245 . S
O745 Mg724 2.038 1_565 S
O745 C726 1.274 . S
C746 O758 1.241 . S
C746 O759 1.280 . S
C747 O760 1.277 . S
C747 O761 1.245 . S
C748 O772 1.247 . S
C748 O774 1.289 . S
Mg749 O750 1.926 . S
Mg749 O759 1.984 . S
Mg749 O761 1.988 . S
Mg749 O762 2.061 . S
O750 Mg749 1.926 . S
O750 Mg751 1.986 . S
O750 Mg752 1.917 . S
Mg751 O750 1.986 . S
Mg751 O758 2.042 . S
Mg751 O760 2.041 . S
Mg751 O766 2.038 . S
Mg751 O774 2.238 . S
Mg752 O750 1.917 . S
Mg752 O753 1.917 . S
Mg752 O763 2.106 . S
Mg752 O765 2.079 . S
Mg752 O774 2.106 . S
Mg752 O775 2.079 . S
O753 Mg752 1.917 . S
O753 Mg754 1.926 . S
O753 Mg755 1.986 . S
Mg754 O753 1.926 . S
Mg754 O768 1.984 . S
Mg754 O771 1.988 . S
Mg754 O772 2.061 . S
Mg755 O753 1.986 . S
Mg755 O763 2.238 . S
Mg755 O767 2.042 . S
Mg755 O769 2.041 . S
Mg755 O776 2.038 . S
C756 O762 1.247 . S
C756 O763 1.289 . S
C757 O775 1.245 . S
C757 O776 1.274 . S
O758 C746 1.241 . S
O758 Mg751 2.042 . S
O759 C746 1.280 . S
O759 Mg749 1.984 . S
O760 C747 1.277 . S
O760 Mg751 2.041 . S
O761 C747 1.245 . S
O761 Mg749 1.988 . S
O762 Mg749 2.061 . S
O762 C756 1.247 . S
O763 Mg752 2.106 . S
O763 Mg755 2.238 . S
O763 C756 1.289 . S
C764 O765 1.245 . S
C764 O766 1.274 . S
O765 Mg752 2.079 . S
O765 C764 1.245 . S
O766 Mg751 2.038 . S
O766 C764 1.274 . S
O767 Mg755 2.042 . S
O767 C770 1.241 . S
O768 Mg754 1.984 . S
O768 C770 1.280 . S
O769 Mg755 2.041 . S
O769 C773 1.277 . S
C770 O767 1.241 . S
C770 O768 1.280 . S
O771 Mg754 1.988 . S
O771 C773 1.245 . S
O772 C748 1.247 . S
O772 Mg754 2.061 . S
C773 O769 1.277 . S
C773 O771 1.245 . S
O774 C748 1.289 . S
O774 Mg751 2.238 . S
O774 Mg752 2.106 . S
O775 Mg752 2.079 . S
O775 C757 1.245 . S
O776 Mg755 2.038 . S
O776 C757 1.274 . S
C777 C778 1.391 . S
C777 C779 1.394 . S
C777 H793 0.931 . S
C778 C777 1.391 . S
C778 C782 1.376 . S
C779 C777 1.394 . S
C779 C780 1.369 . S
C779 C783 1.531 . S
C780 C779 1.369 . S
C780 C781 1.410 . S
C780 C788 1.503 . S
C781 C780 1.410 . S
C781 C782 1.392 . S
C781 C784 1.511 . S
C782 C778 1.376 . S
C782 C781 1.392 . S
C782 H794 0.929 . S
C783 C779 1.531 . S
C783 H795 0.960 . S
C783 H796 0.962 . S
C783 H797 0.960 . S
C784 C781 1.511 . S
C784 H798 0.961 . S
C784 H799 0.961 . S
C784 H800 0.961 . S
C785 C786 1.370 . S
C785 C787 1.363 . S
C785 H801 0.931 . S
C786 C785 1.370 . S
C786 C790 1.408 . S
C787 C785 1.363 . S
C787 C788 1.370 . S
C787 C791 1.524 . S
C788 C780 1.503 . S
C788 C787 1.370 . S
C788 C789 1.403 . S
C789 C788 1.403 . S
C789 C790 1.404 . S
C789 C792 1.539 . S
C790 C786 1.408 . S
C790 C789 1.404 . S
C790 H802 0.930 . S
C791 C787 1.524 . S
C791 H803 0.956 . S
C791 H804 0.961 . S
C791 H805 0.961 . S
C792 C789 1.539 . S
C792 H806 0.958 . S
C792 H807 0.961 . S
C792 H808 0.960 . S
H793 C777 0.931 . S
H794 C782 0.929 . S
H795 C783 0.960 . S
H796 C783 0.962 . S
H797 C783 0.960 . S
H798 C784 0.961 . S
H799 C784 0.961 . S
H800 C784 0.961 . S
H801 C785 0.931 . S
H802 C790 0.930 . S
H803 C791 0.956 . S
H804 C791 0.961 . S
H805 C791 0.961 . S
H806 C792 0.958 . S
H807 C792 0.961 . S
H808 C792 0.960 . S
C809 C810 1.391 . S
C809 C811 1.394 . S
C809 H825 0.931 . S
C810 C809 1.391 . S
C810 C814 1.376 . S
C811 C809 1.394 . S
C811 C812 1.369 . S
C811 C815 1.531 . S
C812 C811 1.369 . S
C812 C813 1.410 . S
C812 C820 1.503 . S
C813 C812 1.410 . S
C813 C814 1.392 . S
C813 C816 1.511 . S
C814 C810 1.376 . S
C814 C813 1.392 . S
C814 H826 0.929 . S
C815 C811 1.531 . S
C815 H827 0.960 . S
C815 H828 0.962 . S
C815 H829 0.960 . S
C816 C813 1.511 . S
C816 H830 0.961 . S
C816 H831 0.961 . S
C816 H832 0.961 . S
C817 C818 1.370 . S
C817 C819 1.363 . S
C817 H833 0.931 . S
C818 C817 1.370 . S
C818 C822 1.408 . S
C819 C817 1.363 . S
C819 C820 1.370 . S
C819 C823 1.524 . S
C820 C812 1.503 . S
C820 C819 1.370 . S
C820 C821 1.403 . S
C821 C820 1.403 . S
C821 C822 1.404 . S
C821 C824 1.539 . S
C822 C818 1.408 . S
C822 C821 1.404 . S
C822 H834 0.930 . S
C823 C819 1.524 . S
C823 H835 0.956 . S
C823 H836 0.961 . S
C823 H837 0.961 . S
C824 C821 1.539 . S
C824 H838 0.958 . S
C824 H839 0.961 . S
C824 H840 0.960 . S
H825 C809 0.931 . S
H826 C814 0.929 . S
H827 C815 0.960 . S
H828 C815 0.962 . S
H829 C815 0.960 . S
H830 C816 0.961 . S
H831 C816 0.961 . S
H832 C816 0.961 . S
H833 C817 0.931 . S
H834 C822 0.930 . S
H835 C823 0.956 . S
H836 C823 0.961 . S
H837 C823 0.961 . S
H838 C824 0.958 . S
H839 C824 0.961 . S
H840 C824 0.960 . S
C841 C842 1.391 . S
C841 C843 1.394 . S
C841 H857 0.931 . S
C842 C841 1.391 . S
C842 C846 1.376 . S
C843 C841 1.394 . S
C843 C844 1.369 . S
C843 C847 1.531 . S
C844 C843 1.369 . S
C844 C845 1.410 . S
C844 C852 1.503 . S
C845 C844 1.410 . S
C845 C846 1.392 . S
C845 C848 1.511 . S
C846 C842 1.376 . S
C846 C845 1.392 . S
C846 H858 0.929 . S
C847 C843 1.531 . S
C847 H859 0.960 . S
C847 H860 0.962 . S
C847 H861 0.960 . S
C848 C845 1.511 . S
C848 H862 0.961 . S
C848 H863 0.961 . S
C848 H864 0.961 . S
C849 C850 1.370 . S
C849 C851 1.363 . S
C849 H865 0.931 . S
C850 C849 1.370 . S
C850 C854 1.408 . S
C851 C849 1.363 . S
C851 C852 1.370 . S
C851 C855 1.524 . S
C852 C844 1.503 . S
C852 C851 1.370 . S
C852 C853 1.403 . S
C853 C852 1.403 . S
C853 C854 1.404 . S
C853 C856 1.539 . S
C854 C850 1.408 . S
C854 C853 1.404 . S
C854 H866 0.930 . S
C855 C851 1.524 . S
C855 H867 0.956 . S
C855 H868 0.961 . S
C855 H869 0.961 . S
C856 C853 1.539 . S
C856 H870 0.958 . S
C856 H871 0.961 . S
C856 H872 0.960 . S
H857 C841 0.931 . S
H858 C846 0.929 . S
H859 C847 0.960 . S
H860 C847 0.962 . S
H861 C847 0.960 . S
H862 C848 0.961 . S
H863 C848 0.961 . S
H864 C848 0.961 . S
H865 C849 0.931 . S
H866 C854 0.930 . S
H867 C855 0.956 . S
H868 C855 0.961 . S
H869 C855 0.961 . S
H870 C856 0.958 . S
H871 C856 0.961 . S
H872 C856 0.960 . S
C873 C874 1.391 . S
C873 C875 1.394 . S
C873 H889 0.931 . S
C874 C873 1.391 . S
C874 C878 1.376 . S
C875 C873 1.394 . S
C875 C876 1.369 . S
C875 C879 1.531 . S
C876 C875 1.369 . S
C876 C877 1.410 . S
C876 C884 1.503 . S
C877 C876 1.410 . S
C877 C878 1.392 . S
C877 C880 1.511 . S
C878 C874 1.376 . S
C878 C877 1.392 . S
C878 H890 0.929 . S
C879 C875 1.531 . S
C879 H891 0.960 . S
C879 H892 0.962 . S
C879 H893 0.960 . S
C880 C877 1.511 . S
C880 H894 0.961 . S
C880 H895 0.961 . S
C880 H896 0.961 . S
C881 C882 1.370 . S
C881 C883 1.363 . S
C881 H897 0.931 . S
C882 C881 1.370 . S
C882 C886 1.408 . S
C883 C881 1.363 . S
C883 C884 1.370 . S
C883 C887 1.524 . S
C884 C876 1.503 . S
C884 C883 1.370 . S
C884 C885 1.403 . S
C885 C884 1.403 . S
C885 C886 1.404 . S
C885 C888 1.539 . S
C886 C882 1.408 . S
C886 C885 1.404 . S
C886 H898 0.930 . S
C887 C883 1.524 . S
C887 H899 0.956 . S
C887 H900 0.961 . S
C887 H901 0.961 . S
C888 C885 1.539 . S
C888 H902 0.958 . S
C888 H903 0.961 . S
C888 H904 0.960 . S
H889 C873 0.931 . S
H890 C878 0.929 . S
H891 C879 0.960 . S
H892 C879 0.962 . S
H893 C879 0.960 . S
H894 C880 0.961 . S
H895 C880 0.961 . S
H896 C880 0.961 . S
H897 C881 0.931 . S
H898 C886 0.930 . S
H899 C887 0.956 . S
H900 C887 0.961 . S
H901 C887 0.961 . S
H902 C888 0.958 . S
H903 C888 0.961 . S
H904 C888 0.960 . S
C905 C906 1.391 . S
C905 C907 1.394 . S
C905 H921 0.931 . S
C906 C905 1.391 . S
C906 C910 1.376 . S
C907 C905 1.394 . S
C907 C908 1.369 . S
C907 C911 1.531 . S
C908 C907 1.369 . S
C908 C909 1.410 . S
C908 C916 1.503 . S
C909 C908 1.410 . S
C909 C910 1.392 . S
C909 C912 1.511 . S
C910 C906 1.376 . S
C910 C909 1.392 . S
C910 H922 0.929 . S
C911 C907 1.531 . S
C911 H923 0.960 . S
C911 H924 0.962 . S
C911 H925 0.960 . S
C912 C909 1.511 . S
C912 H926 0.961 . S
C912 H927 0.961 . S
C912 H928 0.961 . S
C913 C914 1.370 . S
C913 C915 1.363 . S
C913 H929 0.931 . S
C914 C913 1.370 . S
C914 C918 1.408 . S
C915 C913 1.363 . S
C915 C916 1.370 . S
C915 C919 1.524 . S
C916 C908 1.503 . S
C916 C915 1.370 . S
C916 C917 1.403 . S
C917 C916 1.403 . S
C917 C918 1.404 . S
C917 C920 1.539 . S
C918 C914 1.408 . S
C918 C917 1.404 . S
C918 H930 0.930 . S
C919 C915 1.524 . S
C919 H931 0.956 . S
C919 H932 0.961 . S
C919 H933 0.961 . S
C920 C917 1.539 . S
C920 H934 0.958 . S
C920 H935 0.961 . S
C920 H936 0.960 . S
H921 C905 0.931 . S
H922 C910 0.929 . S
H923 C911 0.960 . S
H924 C911 0.962 . S
H925 C911 0.960 . S
H926 C912 0.961 . S
H927 C912 0.961 . S
H928 C912 0.961 . S
H929 C913 0.931 . S
H930 C918 0.930 . S
H931 C919 0.956 . S
H932 C919 0.961 . S
H933 C919 0.961 . S
H934 C920 0.958 . S
H935 C920 0.961 . S
H936 C920 0.960 . S
C937 C938 1.391 . S
C937 C939 1.394 . S
C937 H953 0.931 . S
C938 C937 1.391 . S
C938 C942 1.376 . S
C939 C937 1.394 . S
C939 C940 1.369 . S
C939 C943 1.531 . S
C940 C939 1.369 . S
C940 C941 1.410 . S
C940 C948 1.503 . S
C941 C940 1.410 . S
C941 C942 1.392 . S
C941 C944 1.511 . S
C942 C938 1.376 . S
C942 C941 1.392 . S
C942 H954 0.929 . S
C943 C939 1.531 . S
C943 H955 0.960 . S
C943 H956 0.962 . S
C943 H957 0.960 . S
C944 C941 1.511 . S
C944 H958 0.961 . S
C944 H959 0.961 . S
C944 H960 0.961 . S
C945 C946 1.370 . S
C945 C947 1.363 . S
C945 H961 0.931 . S
C946 C945 1.370 . S
C946 C950 1.408 . S
C947 C945 1.363 . S
C947 C948 1.370 . S
C947 C951 1.524 . S
C948 C940 1.503 . S
C948 C947 1.370 . S
C948 C949 1.403 . S
C949 C948 1.403 . S
C949 C950 1.404 . S
C949 C952 1.539 . S
C950 C946 1.408 . S
C950 C949 1.404 . S
C950 H962 0.930 . S
C951 C947 1.524 . S
C951 H963 0.956 . S
C951 H964 0.961 . S
C951 H965 0.961 . S
C952 C949 1.539 . S
C952 H966 0.958 . S
C952 H967 0.961 . S
C952 H968 0.960 . S
H953 C937 0.931 . S
H954 C942 0.929 . S
H955 C943 0.960 . S
H956 C943 0.962 . S
H957 C943 0.960 . S
H958 C944 0.961 . S
H959 C944 0.961 . S
H960 C944 0.961 . S
H961 C945 0.931 . S
H962 C950 0.930 . S
H963 C951 0.956 . S
H964 C951 0.961 . S
H965 C951 0.961 . S
H966 C952 0.958 . S
H967 C952 0.961 . S
H968 C952 0.960 . S
C969 C970 1.391 . S
C969 C971 1.394 . S
C969 H985 0.931 . S
C970 C969 1.391 . S
C970 C974 1.376 . S
C971 C969 1.394 . S
C971 C972 1.369 . S
C971 C975 1.531 . S
C972 C971 1.369 . S
C972 C973 1.410 . S
C972 C980 1.503 . S
C973 C972 1.410 . S
C973 C974 1.392 . S
C973 C976 1.511 . S
C974 C970 1.376 . S
C974 C973 1.392 . S
C974 H986 0.929 . S
C975 C971 1.531 . S
C975 H987 0.960 . S
C975 H988 0.962 . S
C975 H989 0.960 . S
C976 C973 1.511 . S
C976 H990 0.961 . S
C976 H991 0.961 . S
C976 H992 0.961 . S
C977 C978 1.370 . S
C977 C979 1.363 . S
C977 H993 0.931 . S
C978 C977 1.370 . S
C978 C982 1.408 . S
C979 C977 1.363 . S
C979 C980 1.370 . S
C979 C983 1.524 . S
C980 C972 1.503 . S
C980 C979 1.370 . S
C980 C981 1.403 . S
C981 C980 1.403 . S
C981 C982 1.404 . S
C981 C984 1.539 . S
C982 C978 1.408 . S
C982 C981 1.404 . S
C982 H994 0.930 . S
C983 C979 1.524 . S
C983 H995 0.956 . S
C983 H996 0.961 . S
C983 H997 0.961 . S
C984 C981 1.539 . S
C984 H998 0.958 . S
C984 H999 0.961 . S
C984 H1000 0.960 . S
H985 C969 0.931 . S
H986 C974 0.929 . S
H987 C975 0.960 . S
H988 C975 0.962 . S
H989 C975 0.960 . S
H990 C976 0.961 . S
H991 C976 0.961 . S
H992 C976 0.961 . S
H993 C977 0.931 . S
H994 C982 0.930 . S
H995 C983 0.956 . S
H996 C983 0.961 . S
H997 C983 0.961 . S
H998 C984 0.958 . S
H999 C984 0.961 . S
H1000 C984 0.960 . S
C1001 C1002 1.391 . S
C1001 C1003 1.394 . S
C1001 H1017 0.931 . S
C1002 C1001 1.391 . S
C1002 C1006 1.376 . S
C1003 C1001 1.394 . S
C1003 C1004 1.369 . S
C1003 C1007 1.531 . S
C1004 C1003 1.369 . S
C1004 C1005 1.410 . S
C1004 C1012 1.503 . S
C1005 C1004 1.410 . S
C1005 C1006 1.392 . S
C1005 C1008 1.511 . S
C1006 C1002 1.376 . S
C1006 C1005 1.392 . S
C1006 H1018 0.929 . S
C1007 C1003 1.531 . S
C1007 H1019 0.960 . S
C1007 H1020 0.962 . S
C1007 H1021 0.960 . S
C1008 C1005 1.511 . S
C1008 H1022 0.961 . S
C1008 H1023 0.961 . S
C1008 H1024 0.961 . S
C1009 C1010 1.370 . S
C1009 C1011 1.363 . S
C1009 H1025 0.931 . S
C1010 C1009 1.370 . S
C1010 C1014 1.408 . S
C1011 C1009 1.363 . S
C1011 C1012 1.370 . S
C1011 C1015 1.524 . S
C1012 C1004 1.503 . S
C1012 C1011 1.370 . S
C1012 C1013 1.403 . S
C1013 C1012 1.403 . S
C1013 C1014 1.404 . S
C1013 C1016 1.539 . S
C1014 C1010 1.408 . S
C1014 C1013 1.404 . S
C1014 H1026 0.930 . S
C1015 C1011 1.524 . S
C1015 H1027 0.956 . S
C1015 H1028 0.961 . S
C1015 H1029 0.961 . S
C1016 C1013 1.539 . S
C1016 H1030 0.958 . S
C1016 H1031 0.961 . S
C1016 H1032 0.960 . S
H1017 C1001 0.931 . S
H1018 C1006 0.929 . S
H1019 C1007 0.960 . S
H1020 C1007 0.962 . S
H1021 C1007 0.960 . S
H1022 C1008 0.961 . S
H1023 C1008 0.961 . S
H1024 C1008 0.961 . S
H1025 C1009 0.931 . S
H1026 C1014 0.930 . S
H1027 C1015 0.956 . S
H1028 C1015 0.961 . S
H1029 C1015 0.961 . S
H1030 C1016 0.958 . S
H1031 C1016 0.961 . S
H1032 C1016 0.960 . S
C1033 C1034 1.391 . S
C1033 C1035 1.394 . S
C1033 H1049 0.931 . S
C1034 C1033 1.391 . S
C1034 C1038 1.376 . S
C1035 C1033 1.394 . S
C1035 C1036 1.369 . S
C1035 C1039 1.531 . S
C1036 C1035 1.369 . S
C1036 C1037 1.410 . S
C1036 C1044 1.503 . S
C1037 C1036 1.410 . S
C1037 C1038 1.392 . S
C1037 C1040 1.511 . S
C1038 C1034 1.376 . S
C1038 C1037 1.392 . S
C1038 H1050 0.929 . S
C1039 C1035 1.531 . S
C1039 H1051 0.960 . S
C1039 H1052 0.962 . S
C1039 H1053 0.960 . S
C1040 C1037 1.511 . S
C1040 H1054 0.961 . S
C1040 H1055 0.961 . S
C1040 H1056 0.961 . S
C1041 C1042 1.370 . S
C1041 C1043 1.363 . S
C1041 H1057 0.931 . S
C1042 C1041 1.370 . S
C1042 C1046 1.408 . S
C1043 C1041 1.363 . S
C1043 C1044 1.370 . S
C1043 C1047 1.524 . S
C1044 C1036 1.503 . S
C1044 C1043 1.370 . S
C1044 C1045 1.403 . S
C1045 C1044 1.403 . S
C1045 C1046 1.404 . S
C1045 C1048 1.539 . S
C1046 C1042 1.408 . S
C1046 C1045 1.404 . S
C1046 H1058 0.930 . S
C1047 C1043 1.524 . S
C1047 H1059 0.956 . S
C1047 H1060 0.961 . S
C1047 H1061 0.961 . S
C1048 C1045 1.539 . S
C1048 H1062 0.958 . S
C1048 H1063 0.961 . S
C1048 H1064 0.960 . S
H1049 C1033 0.931 . S
H1050 C1038 0.929 . S
H1051 C1039 0.960 . S
H1052 C1039 0.962 . S
H1053 C1039 0.960 . S
H1054 C1040 0.961 . S
H1055 C1040 0.961 . S
H1056 C1040 0.961 . S
H1057 C1041 0.931 . S
H1058 C1046 0.930 . S
H1059 C1047 0.956 . S
H1060 C1047 0.961 . S
H1061 C1047 0.961 . S
H1062 C1048 0.958 . S
H1063 C1048 0.961 . S
H1064 C1048 0.960 . S
C1065 C1066 1.391 . S
C1065 C1067 1.394 . S
C1065 H1081 0.931 . S
C1066 C1065 1.391 . S
C1066 C1070 1.376 . S
C1067 C1065 1.394 . S
C1067 C1068 1.369 . S
C1067 C1071 1.531 . S
C1068 C1067 1.369 . S
C1068 C1069 1.410 . S
C1068 C1076 1.503 . S
C1069 C1068 1.410 . S
C1069 C1070 1.392 . S
C1069 C1072 1.511 . S
C1070 C1066 1.376 . S
C1070 C1069 1.392 . S
C1070 H1082 0.929 1_556 S
C1071 C1067 1.531 . S
C1071 H1083 0.960 . S
C1071 H1084 0.962 . S
C1071 H1085 0.960 . S
C1072 C1069 1.511 . S
C1072 H1086 0.961 . S
C1072 H1087 0.961 . S
C1072 H1088 0.961 . S
C1073 C1074 1.370 . S
C1073 C1075 1.363 . S
C1073 H1089 0.931 . S
C1074 C1073 1.370 . S
C1074 C1078 1.408 . S
C1075 C1073 1.363 . S
C1075 C1076 1.370 . S
C1075 C1079 1.524 . S
C1076 C1068 1.503 . S
C1076 C1075 1.370 . S
C1076 C1077 1.403 . S
C1077 C1076 1.403 . S
C1077 C1078 1.404 . S
C1077 C1080 1.539 . S
C1078 C1074 1.408 . S
C1078 C1077 1.404 . S
C1078 H1090 0.930 . S
C1079 C1075 1.524 . S
C1079 H1091 0.956 . S
C1079 H1092 0.961 . S
C1079 H1093 0.961 . S
C1080 C1077 1.539 . S
C1080 H1094 0.958 . S
C1080 H1095 0.961 . S
C1080 H1096 0.960 . S
H1081 C1065 0.931 . S
H1082 C1070 0.929 1_554 S
H1083 C1071 0.960 . S
H1084 C1071 0.962 . S
H1085 C1071 0.960 . S
H1086 C1072 0.961 . S
H1087 C1072 0.961 . S
H1088 C1072 0.961 . S
H1089 C1073 0.931 . S
H1090 C1078 0.930 . S
H1091 C1079 0.956 . S
H1092 C1079 0.961 . S
H1093 C1079 0.961 . S
H1094 C1080 0.958 . S
H1095 C1080 0.961 . S
H1096 C1080 0.960 . S
C1097 C1098 1.391 . S
C1097 C1099 1.394 . S
C1097 H1113 0.931 . S
C1098 C1097 1.391 . S
C1098 C1102 1.376 . S
C1099 C1097 1.394 . S
C1099 C1100 1.369 . S
C1099 C1103 1.531 . S
C1100 C1099 1.369 . S
C1100 C1101 1.410 . S
C1100 C1108 1.503 . S
C1101 C1100 1.410 . S
C1101 C1102 1.392 . S
C1101 C1104 1.511 . S
C1102 C1098 1.376 . S
C1102 C1101 1.392 . S
C1102 H1114 0.929 . S
C1103 C1099 1.531 . S
C1103 H1115 0.960 . S
C1103 H1116 0.962 . S
C1103 H1117 0.960 . S
C1104 C1101 1.511 . S
C1104 H1118 0.961 . S
C1104 H1119 0.961 . S
C1104 H1120 0.961 . S
C1105 C1106 1.370 . S
C1105 C1107 1.363 . S
C1105 H1121 0.931 . S
C1106 C1105 1.370 . S
C1106 C1110 1.408 . S
C1107 C1105 1.363 . S
C1107 C1108 1.370 . S
C1107 C1111 1.524 . S
C1108 C1100 1.503 . S
C1108 C1107 1.370 . S
C1108 C1109 1.403 . S
C1109 C1108 1.403 . S
C1109 C1110 1.404 . S
C1109 C1112 1.539 . S
C1110 C1106 1.408 . S
C1110 C1109 1.404 . S
C1110 H1122 0.930 . S
C1111 C1107 1.524 . S
C1111 H1123 0.956 . S
C1111 H1124 0.961 . S
C1111 H1125 0.961 . S
C1112 C1109 1.539 . S
C1112 H1126 0.958 . S
C1112 H1127 0.961 . S
C1112 H1128 0.960 . S
H1113 C1097 0.931 . S
H1114 C1102 0.929 . S
H1115 C1103 0.960 . S
H1116 C1103 0.962 . S
H1117 C1103 0.960 . S
H1118 C1104 0.961 . S
H1119 C1104 0.961 . S
H1120 C1104 0.961 . S
H1121 C1105 0.931 . S
H1122 C1110 0.930 . S
H1123 C1111 0.956 . S
H1124 C1111 0.961 . S
H1125 C1111 0.961 . S
H1126 C1112 0.958 . S
H1127 C1112 0.961 . S
H1128 C1112 0.960 . S
C1129 C1130 1.391 . S
C1129 C1131 1.394 . S
C1129 H1145 0.931 . S
C1130 C1129 1.391 . S
C1130 C1134 1.376 . S
C1131 C1129 1.394 . S
C1131 C1132 1.369 . S
C1131 C1135 1.531 . S
C1132 C1131 1.369 . S
C1132 C1133 1.410 . S
C1132 C1140 1.503 . S
C1133 C1132 1.410 . S
C1133 C1134 1.392 . S
C1133 C1136 1.511 . S
C1134 C1130 1.376 . S
C1134 C1133 1.392 . S
C1134 H1146 0.929 . S
C1135 C1131 1.531 . S
C1135 H1147 0.960 . S
C1135 H1148 0.962 . S
C1135 H1149 0.960 . S
C1136 C1133 1.511 . S
C1136 H1150 0.961 . S
C1136 H1151 0.961 . S
C1136 H1152 0.961 . S
C1137 C1138 1.370 . S
C1137 C1139 1.363 . S
C1137 H1153 0.931 . S
C1138 C1137 1.370 . S
C1138 C1142 1.408 . S
C1139 C1137 1.363 . S
C1139 C1140 1.370 . S
C1139 C1143 1.524 . S
C1140 C1132 1.503 . S
C1140 C1139 1.370 . S
C1140 C1141 1.403 . S
C1141 C1140 1.403 . S
C1141 C1142 1.404 . S
C1141 C1144 1.539 . S
C1142 C1138 1.408 . S
C1142 C1141 1.404 . S
C1142 H1154 0.930 . S
C1143 C1139 1.524 . S
C1143 H1155 0.956 . S
C1143 H1156 0.961 . S
C1143 H1157 0.961 . S
C1144 C1141 1.539 . S
C1144 H1158 0.958 . S
C1144 H1159 0.961 . S
C1144 H1160 0.960 . S
H1145 C1129 0.931 . S
H1146 C1134 0.929 . S
H1147 C1135 0.960 . S
H1148 C1135 0.962 . S
H1149 C1135 0.960 . S
H1150 C1136 0.961 . S
H1151 C1136 0.961 . S
H1152 C1136 0.961 . S
H1153 C1137 0.931 . S
H1154 C1142 0.930 . S
H1155 C1143 0.956 . S
H1156 C1143 0.961 . S
H1157 C1143 0.961 . S
H1158 C1144 0.958 . S
H1159 C1144 0.961 . S
H1160 C1144 0.960 . S
C1161 C1162 1.391 . S
C1161 C1163 1.394 . S
C1161 H1177 0.931 . S
C1162 C1161 1.391 . S
C1162 C1166 1.376 . S
C1163 C1161 1.394 . S
C1163 C1164 1.369 . S
C1163 C1167 1.531 . S
C1164 C1163 1.369 . S
C1164 C1165 1.410 . S
C1164 C1172 1.503 . S
C1165 C1164 1.410 . S
C1165 C1166 1.392 . S
C1165 C1168 1.511 . S
C1166 C1162 1.376 . S
C1166 C1165 1.392 . S
C1166 H1178 0.929 . S
C1167 C1163 1.531 . S
C1167 H1179 0.960 . S
C1167 H1180 0.962 . S
C1167 H1181 0.960 . S
C1168 C1165 1.511 . S
C1168 H1182 0.961 . S
C1168 H1183 0.961 . S
C1168 H1184 0.961 . S
C1169 C1170 1.370 . S
C1169 C1171 1.363 . S
C1169 H1185 0.931 . S
C1170 C1169 1.370 . S
C1170 C1174 1.408 . S
C1171 C1169 1.363 . S
C1171 C1172 1.370 . S
C1171 C1175 1.524 . S
C1172 C1164 1.503 . S
C1172 C1171 1.370 . S
C1172 C1173 1.403 . S
C1173 C1172 1.403 . S
C1173 C1174 1.404 . S
C1173 C1176 1.539 . S
C1174 C1170 1.408 . S
C1174 C1173 1.404 . S
C1174 H1186 0.930 . S
C1175 C1171 1.524 . S
C1175 H1187 0.956 . S
C1175 H1188 0.961 . S
C1175 H1189 0.961 . S
C1176 C1173 1.539 . S
C1176 H1190 0.958 . S
C1176 H1191 0.961 . S
C1176 H1192 0.960 . S
H1177 C1161 0.931 . S
H1178 C1166 0.929 . S
H1179 C1167 0.960 . S
H1180 C1167 0.962 . S
H1181 C1167 0.960 . S
H1182 C1168 0.961 . S
H1183 C1168 0.961 . S
H1184 C1168 0.961 . S
H1185 C1169 0.931 . S
H1186 C1174 0.930 . S
H1187 C1175 0.956 . S
H1188 C1175 0.961 . S
H1189 C1175 0.961 . S
H1190 C1176 0.958 . S
H1191 C1176 0.961 . S
H1192 C1176 0.960 . S
C1193 C1194 1.391 . S
C1193 C1195 1.394 . S
C1193 H1209 0.931 . S
C1194 C1193 1.391 . S
C1194 C1198 1.376 . S
C1195 C1193 1.394 . S
C1195 C1196 1.369 . S
C1195 C1199 1.531 . S
C1196 C1195 1.369 . S
C1196 C1197 1.410 . S
C1196 C1204 1.503 . S
C1197 C1196 1.410 . S
C1197 C1198 1.392 . S
C1197 C1200 1.511 . S
C1198 C1194 1.376 . S
C1198 C1197 1.392 . S
C1198 H1210 0.929 . S
C1199 C1195 1.531 . S
C1199 H1211 0.960 . S
C1199 H1212 0.962 . S
C1199 H1213 0.960 . S
C1200 C1197 1.511 . S
C1200 H1214 0.961 . S
C1200 H1215 0.961 . S
C1200 H1216 0.961 . S
C1201 C1202 1.370 . S
C1201 C1203 1.363 . S
C1201 H1217 0.931 . S
C1202 C1201 1.370 . S
C1202 C1206 1.408 . S
C1203 C1201 1.363 . S
C1203 C1204 1.370 . S
C1203 C1207 1.524 . S
C1204 C1196 1.503 . S
C1204 C1203 1.370 . S
C1204 C1205 1.403 . S
C1205 C1204 1.403 . S
C1205 C1206 1.404 . S
C1205 C1208 1.539 . S
C1206 C1202 1.408 . S
C1206 C1205 1.404 . S
C1206 H1218 0.930 . S
C1207 C1203 1.524 . S
C1207 H1219 0.956 . S
C1207 H1220 0.961 . S
C1207 H1221 0.961 . S
C1208 C1205 1.539 . S
C1208 H1222 0.958 . S
C1208 H1223 0.961 . S
C1208 H1224 0.960 . S
H1209 C1193 0.931 . S
H1210 C1198 0.929 . S
H1211 C1199 0.960 . S
H1212 C1199 0.962 . S
H1213 C1199 0.960 . S
H1214 C1200 0.961 . S
H1215 C1200 0.961 . S
H1216 C1200 0.961 . S
H1217 C1201 0.931 . S
H1218 C1206 0.930 . S
H1219 C1207 0.956 . S
H1220 C1207 0.961 . S
H1221 C1207 0.961 . S
H1222 C1208 0.958 . S
H1223 C1208 0.961 . S
H1224 C1208 0.960 . S
C1225 C1226 1.391 . S
C1225 C1227 1.394 . S
C1225 H1241 0.931 . S
C1226 C1225 1.391 . S
C1226 C1230 1.376 . S
C1227 C1225 1.394 . S
C1227 C1228 1.369 . S
C1227 C1231 1.531 . S
C1228 C1227 1.369 . S
C1228 C1229 1.410 . S
C1228 C1236 1.503 . S
C1229 C1228 1.410 . S
C1229 C1230 1.392 . S
C1229 C1232 1.511 . S
C1230 C1226 1.376 . S
C1230 C1229 1.392 . S
C1230 H1242 0.929 . S
C1231 C1227 1.531 . S
C1231 H1243 0.960 . S
C1231 H1244 0.962 . S
C1231 H1245 0.960 . S
C1232 C1229 1.511 . S
C1232 H1246 0.961 . S
C1232 H1247 0.961 . S
C1232 H1248 0.961 . S
C1233 C1234 1.370 . S
C1233 C1235 1.363 . S
C1233 H1249 0.931 . S
C1234 C1233 1.370 . S
C1234 C1238 1.408 . S
C1235 C1233 1.363 . S
C1235 C1236 1.370 . S
C1235 C1239 1.524 . S
C1236 C1228 1.503 . S
C1236 C1235 1.370 . S
C1236 C1237 1.403 . S
C1237 C1236 1.403 . S
C1237 C1238 1.404 . S
C1237 C1240 1.539 . S
C1238 C1234 1.408 . S
C1238 C1237 1.404 . S
C1238 H1250 0.930 . S
C1239 C1235 1.524 . S
C1239 H1251 0.956 . S
C1239 H1252 0.961 . S
C1239 H1253 0.961 . S
C1240 C1237 1.539 . S
C1240 H1254 0.958 . S
C1240 H1255 0.961 . S
C1240 H1256 0.960 . S
H1241 C1225 0.931 . S
H1242 C1230 0.929 . S
H1243 C1231 0.960 . S
H1244 C1231 0.962 . S
H1245 C1231 0.960 . S
H1246 C1232 0.961 . S
H1247 C1232 0.961 . S
H1248 C1232 0.961 . S
H1249 C1233 0.931 . S
H1250 C1238 0.930 . S
H1251 C1239 0.956 . S
H1252 C1239 0.961 . S
H1253 C1239 0.961 . S
H1254 C1240 0.958 . S
H1255 C1240 0.961 . S
H1256 C1240 0.960 . S
C1257 C1258 1.391 . S
C1257 C1259 1.394 . S
C1257 H1273 0.931 . S
C1258 C1257 1.391 . S
C1258 C1262 1.376 . S
C1259 C1257 1.394 . S
C1259 C1260 1.369 . S
C1259 C1263 1.531 . S
C1260 C1259 1.369 . S
C1260 C1261 1.410 . S
C1260 C1268 1.503 . S
C1261 C1260 1.410 . S
C1261 C1262 1.392 . S
C1261 C1264 1.511 . S
C1262 C1258 1.376 . S
C1262 C1261 1.392 . S
C1262 H1274 0.929 . S
C1263 C1259 1.531 . S
C1263 H1275 0.960 . S
C1263 H1276 0.962 . S
C1263 H1277 0.960 . S
C1264 C1261 1.511 . S
C1264 H1278 0.961 . S
C1264 H1279 0.961 . S
C1264 H1280 0.961 . S
C1265 C1266 1.370 . S
C1265 C1267 1.363 . S
C1265 H1281 0.931 . S
C1266 C1265 1.370 . S
C1266 C1270 1.408 . S
C1267 C1265 1.363 . S
C1267 C1268 1.370 . S
C1267 C1271 1.524 . S
C1268 C1260 1.503 . S
C1268 C1267 1.370 . S
C1268 C1269 1.403 . S
C1269 C1268 1.403 . S
C1269 C1270 1.404 . S
C1269 C1272 1.539 . S
C1270 C1266 1.408 . S
C1270 C1269 1.404 . S
C1270 H1282 0.930 . S
C1271 C1267 1.524 . S
C1271 H1283 0.956 . S
C1271 H1284 0.961 . S
C1271 H1285 0.961 . S
C1272 C1269 1.539 . S
C1272 H1286 0.958 . S
C1272 H1287 0.961 . S
C1272 H1288 0.960 . S
H1273 C1257 0.931 . S
H1274 C1262 0.929 . S
H1275 C1263 0.960 . S
H1276 C1263 0.962 . S
H1277 C1263 0.960 . S
H1278 C1264 0.961 . S
H1279 C1264 0.961 . S
H1280 C1264 0.961 . S
H1281 C1265 0.931 . S
H1282 C1270 0.930 . S
H1283 C1271 0.956 . S
H1284 C1271 0.961 . S
H1285 C1271 0.961 . S
H1286 C1272 0.958 . S
H1287 C1272 0.961 . S
H1288 C1272 0.960 . S
C1289 C1290 1.391 . S
C1289 C1291 1.394 . S
C1289 H1305 0.931 . S
C1290 C1289 1.391 . S
C1290 C1294 1.376 . S
C1291 C1289 1.394 . S
C1291 C1292 1.369 . S
C1291 C1295 1.531 . S
C1292 C1291 1.369 . S
C1292 C1293 1.410 . S
C1292 C1300 1.503 . S
C1293 C1292 1.410 . S
C1293 C1294 1.392 . S
C1293 C1296 1.511 . S
C1294 C1290 1.376 . S
C1294 C1293 1.392 . S
C1294 H1306 0.929 . S
C1295 C1291 1.531 . S
C1295 H1307 0.960 . S
C1295 H1308 0.962 . S
C1295 H1309 0.960 . S
C1296 C1293 1.511 . S
C1296 H1310 0.961 . S
C1296 H1311 0.961 . S
C1296 H1312 0.961 . S
C1297 C1298 1.370 . S
C1297 C1299 1.363 . S
C1297 H1313 0.931 . S
C1298 C1297 1.370 . S
C1298 C1302 1.408 . S
C1299 C1297 1.363 . S
C1299 C1300 1.370 . S
C1299 C1303 1.524 . S
C1300 C1292 1.503 . S
C1300 C1299 1.370 . S
C1300 C1301 1.403 . S
C1301 C1300 1.403 . S
C1301 C1302 1.404 . S
C1301 C1304 1.539 . S
C1302 C1298 1.408 . S
C1302 C1301 1.404 . S
C1302 H1314 0.930 . S
C1303 C1299 1.524 . S
C1303 H1315 0.956 . S
C1303 H1316 0.961 . S
C1303 H1317 0.961 . S
C1304 C1301 1.539 . S
C1304 H1318 0.958 . S
C1304 H1319 0.961 . S
C1304 H1320 0.960 . S
H1305 C1289 0.931 . S
H1306 C1294 0.929 . S
H1307 C1295 0.960 . S
H1308 C1295 0.962 . S
H1309 C1295 0.960 . S
H1310 C1296 0.961 . S
H1311 C1296 0.961 . S
H1312 C1296 0.961 . S
H1313 C1297 0.931 . S
H1314 C1302 0.930 . S
H1315 C1303 0.956 . S
H1316 C1303 0.961 . S
H1317 C1303 0.961 . S
H1318 C1304 0.958 . S
H1319 C1304 0.961 . S
H1320 C1304 0.960 . S
C1321 C1322 1.391 . S
C1321 C1323 1.394 . S
C1321 H1337 0.931 . S
C1322 C1321 1.391 . S
C1322 C1326 1.376 . S
C1323 C1321 1.394 . S
C1323 C1324 1.369 . S
C1323 C1327 1.531 . S
C1324 C1323 1.369 . S
C1324 C1325 1.410 . S
C1324 C1332 1.503 . S
C1325 C1324 1.410 . S
C1325 C1326 1.392 . S
C1325 C1328 1.511 . S
C1326 C1322 1.376 . S
C1326 C1325 1.392 . S
C1326 H1338 0.929 . S
C1327 C1323 1.531 . S
C1327 H1339 0.960 . S
C1327 H1340 0.962 . S
C1327 H1341 0.960 . S
C1328 C1325 1.511 . S
C1328 H1342 0.961 . S
C1328 H1343 0.961 . S
C1328 H1344 0.961 . S
C1329 C1330 1.370 . S
C1329 C1331 1.363 . S
C1329 H1345 0.931 . S
C1330 C1329 1.370 . S
C1330 C1334 1.408 . S
C1331 C1329 1.363 . S
C1331 C1332 1.370 . S
C1331 C1335 1.524 . S
C1332 C1324 1.503 . S
C1332 C1331 1.370 . S
C1332 C1333 1.403 . S
C1333 C1332 1.403 . S
C1333 C1334 1.404 . S
C1333 C1336 1.539 . S
C1334 C1330 1.408 . S
C1334 C1333 1.404 . S
C1334 H1346 0.930 . S
C1335 C1331 1.524 . S
C1335 H1347 0.956 . S
C1335 H1348 0.961 . S
C1335 H1349 0.961 . S
C1336 C1333 1.539 . S
C1336 H1350 0.958 . S
C1336 H1351 0.961 . S
C1336 H1352 0.960 . S
H1337 C1321 0.931 . S
H1338 C1326 0.929 . S
H1339 C1327 0.960 . S
H1340 C1327 0.962 . S
H1341 C1327 0.960 . S
H1342 C1328 0.961 . S
H1343 C1328 0.961 . S
H1344 C1328 0.961 . S
H1345 C1329 0.931 . S
H1346 C1334 0.930 . S
H1347 C1335 0.956 . S
H1348 C1335 0.961 . S
H1349 C1335 0.961 . S
H1350 C1336 0.958 . S
H1351 C1336 0.961 . S
H1352 C1336 0.960 . S
C1353 C1354 1.391 . S
C1353 C1355 1.394 . S
C1353 H1369 0.931 . S
C1354 C1353 1.391 . S
C1354 C1358 1.376 . S
C1355 C1353 1.394 . S
C1355 C1356 1.369 . S
C1355 C1359 1.531 . S
C1356 C1355 1.369 . S
C1356 C1357 1.410 . S
C1356 C1364 1.503 . S
C1357 C1356 1.410 . S
C1357 C1358 1.392 . S
C1357 C1360 1.511 . S
C1358 C1354 1.376 . S
C1358 C1357 1.392 . S
C1358 H1370 0.929 . S
C1359 C1355 1.531 . S
C1359 H1371 0.960 . S
C1359 H1372 0.962 . S
C1359 H1373 0.960 . S
C1360 C1357 1.511 . S
C1360 H1374 0.961 . S
C1360 H1375 0.961 . S
C1360 H1376 0.961 . S
C1361 C1362 1.370 . S
C1361 C1363 1.363 . S
C1361 H1377 0.931 . S
C1362 C1361 1.370 . S
C1362 C1366 1.408 . S
C1363 C1361 1.363 . S
C1363 C1364 1.370 . S
C1363 C1367 1.524 . S
C1364 C1356 1.503 . S
C1364 C1363 1.370 . S
C1364 C1365 1.403 . S
C1365 C1364 1.403 . S
C1365 C1366 1.404 . S
C1365 C1368 1.539 . S
C1366 C1362 1.408 . S
C1366 C1365 1.404 . S
C1366 H1378 0.930 . S
C1367 C1363 1.524 . S
C1367 H1379 0.956 . S
C1367 H1380 0.961 . S
C1367 H1381 0.961 . S
C1368 C1365 1.539 . S
C1368 H1382 0.958 . S
C1368 H1383 0.961 . S
C1368 H1384 0.960 . S
H1369 C1353 0.931 . S
H1370 C1358 0.929 . S
H1371 C1359 0.960 . S
H1372 C1359 0.962 . S
H1373 C1359 0.960 . S
H1374 C1360 0.961 . S
H1375 C1360 0.961 . S
H1376 C1360 0.961 . S
H1377 C1361 0.931 . S
H1378 C1366 0.930 . S
H1379 C1367 0.956 . S
H1380 C1367 0.961 . S
H1381 C1367 0.961 . S
H1382 C1368 0.958 . S
H1383 C1368 0.961 . S
H1384 C1368 0.960 . S
C1385 C1386 1.391 . S
C1385 C1387 1.394 . S
C1385 H1401 0.931 . S
C1386 C1385 1.391 . S
C1386 C1390 1.376 . S
C1387 C1385 1.394 . S
C1387 C1388 1.369 . S
C1387 C1391 1.531 . S
C1388 C1387 1.369 . S
C1388 C1389 1.410 . S
C1388 C1396 1.503 . S
C1389 C1388 1.410 . S
C1389 C1390 1.392 . S
C1389 C1392 1.511 . S
C1390 C1386 1.376 . S
C1390 C1389 1.392 . S
C1390 H1402 0.929 . S
C1391 C1387 1.531 . S
C1391 H1403 0.960 . S
C1391 H1404 0.962 . S
C1391 H1405 0.960 . S
C1392 C1389 1.511 . S
C1392 H1406 0.961 . S
C1392 H1407 0.961 . S
C1392 H1408 0.961 . S
C1393 C1394 1.370 . S
C1393 C1395 1.363 . S
C1393 H1409 0.931 . S
C1394 C1393 1.370 . S
C1394 C1398 1.408 . S
C1395 C1393 1.363 . S
C1395 C1396 1.370 . S
C1395 C1399 1.524 . S
C1396 C1388 1.503 . S
C1396 C1395 1.370 . S
C1396 C1397 1.403 . S
C1397 C1396 1.403 . S
C1397 C1398 1.404 . S
C1397 C1400 1.539 . S
C1398 C1394 1.408 . S
C1398 C1397 1.404 . S
C1398 H1410 0.930 . S
C1399 C1395 1.524 . S
C1399 H1411 0.956 . S
C1399 H1412 0.961 . S
C1399 H1413 0.961 . S
C1400 C1397 1.539 . S
C1400 H1414 0.958 . S
C1400 H1415 0.961 . S
C1400 H1416 0.960 . S
H1401 C1385 0.931 . S
H1402 C1390 0.929 . S
H1403 C1391 0.960 . S
H1404 C1391 0.962 . S
H1405 C1391 0.960 . S
H1406 C1392 0.961 . S
H1407 C1392 0.961 . S
H1408 C1392 0.961 . S
H1409 C1393 0.931 . S
H1410 C1398 0.930 . S
H1411 C1399 0.956 . S
H1412 C1399 0.961 . S
H1413 C1399 0.961 . S
H1414 C1400 0.958 . S
H1415 C1400 0.961 . S
H1416 C1400 0.960 . S
C1417 C1418 1.391 . S
C1417 C1419 1.394 . S
C1417 H1433 0.931 . S
C1418 C1417 1.391 . S
C1418 C1422 1.376 . S
C1419 C1417 1.394 . S
C1419 C1420 1.369 . S
C1419 C1423 1.531 . S
C1420 C1419 1.369 . S
C1420 C1421 1.410 . S
C1420 C1428 1.503 . S
C1421 C1420 1.410 . S
C1421 C1422 1.392 . S
C1421 C1424 1.511 . S
C1422 C1418 1.376 . S
C1422 C1421 1.392 . S
C1422 H1434 0.929 . S
C1423 C1419 1.531 . S
C1423 H1435 0.960 . S
C1423 H1436 0.962 . S
C1423 H1437 0.960 . S
C1424 C1421 1.511 . S
C1424 H1438 0.961 . S
C1424 H1439 0.961 . S
C1424 H1440 0.961 . S
C1425 C1426 1.370 . S
C1425 C1427 1.363 . S
C1425 H1441 0.931 . S
C1426 C1425 1.370 . S
C1426 C1430 1.408 . S
C1427 C1425 1.363 . S
C1427 C1428 1.370 . S
C1427 C1431 1.524 . S
C1428 C1420 1.503 . S
C1428 C1427 1.370 . S
C1428 C1429 1.403 . S
C1429 C1428 1.403 . S
C1429 C1430 1.404 . S
C1429 C1432 1.539 . S
C1430 C1426 1.408 . S
C1430 C1429 1.404 . S
C1430 H1442 0.930 . S
C1431 C1427 1.524 . S
C1431 H1443 0.956 . S
C1431 H1444 0.961 . S
C1431 H1445 0.961 . S
C1432 C1429 1.539 . S
C1432 H1446 0.958 . S
C1432 H1447 0.961 . S
C1432 H1448 0.960 . S
H1433 C1417 0.931 . S
H1434 C1422 0.929 . S
H1435 C1423 0.960 . S
H1436 C1423 0.962 . S
H1437 C1423 0.960 . S
H1438 C1424 0.961 . S
H1439 C1424 0.961 . S
H1440 C1424 0.961 . S
H1441 C1425 0.931 . S
H1442 C1430 0.930 . S
H1443 C1431 0.956 . S
H1444 C1431 0.961 . S
H1445 C1431 0.961 . S
H1446 C1432 0.958 . S
H1447 C1432 0.961 . S
H1448 C1432 0.960 . S
C1449 C1450 1.391 . S
C1449 C1451 1.394 . S
C1449 H1465 0.931 . S
C1450 C1449 1.391 . S
C1450 C1454 1.376 . S
C1451 C1449 1.394 . S
C1451 C1452 1.369 . S
C1451 C1455 1.531 . S
C1452 C1451 1.369 . S
C1452 C1453 1.410 . S
C1452 C1460 1.503 . S
C1453 C1452 1.410 . S
C1453 C1454 1.392 . S
C1453 C1456 1.511 . S
C1454 C1450 1.376 . S
C1454 C1453 1.392 . S
C1454 H1466 0.929 . S
C1455 C1451 1.531 . S
C1455 H1467 0.960 . S
C1455 H1468 0.962 . S
C1455 H1469 0.960 . S
C1456 C1453 1.511 . S
C1456 H1470 0.961 . S
C1456 H1471 0.961 . S
C1456 H1472 0.961 . S
C1457 C1458 1.370 . S
C1457 C1459 1.363 . S
C1457 H1473 0.931 . S
C1458 C1457 1.370 . S
C1458 C1462 1.408 . S
C1459 C1457 1.363 . S
C1459 C1460 1.370 . S
C1459 C1463 1.524 . S
C1460 C1452 1.503 . S
C1460 C1459 1.370 . S
C1460 C1461 1.403 . S
C1461 C1460 1.403 . S
C1461 C1462 1.404 . S
C1461 C1464 1.539 . S
C1462 C1458 1.408 . S
C1462 C1461 1.404 . S
C1462 H1474 0.930 . S
C1463 C1459 1.524 . S
C1463 H1475 0.956 . S
C1463 H1476 0.961 . S
C1463 H1477 0.961 . S
C1464 C1461 1.539 . S
C1464 H1478 0.958 . S
C1464 H1479 0.961 . S
C1464 H1480 0.960 . S
H1465 C1449 0.931 . S
H1466 C1454 0.929 . S
H1467 C1455 0.960 . S
H1468 C1455 0.962 . S
H1469 C1455 0.960 . S
H1470 C1456 0.961 . S
H1471 C1456 0.961 . S
H1472 C1456 0.961 . S
H1473 C1457 0.931 . S
H1474 C1462 0.930 . S
H1475 C1463 0.956 . S
H1476 C1463 0.961 . S
H1477 C1463 0.961 . S
H1478 C1464 0.958 . S
H1479 C1464 0.961 . S
H1480 C1464 0.960 . S
C1481 C1482 1.391 . S
C1481 C1483 1.394 . S
C1481 H1497 0.931 . S
C1482 C1481 1.391 . S
C1482 C1486 1.376 . S
C1483 C1481 1.394 . S
C1483 C1484 1.369 . S
C1483 C1487 1.531 . S
C1484 C1483 1.369 . S
C1484 C1485 1.410 . S
C1484 C1492 1.503 . S
C1485 C1484 1.410 . S
C1485 C1486 1.392 . S
C1485 C1488 1.511 . S
C1486 C1482 1.376 . S
C1486 C1485 1.392 . S
C1486 H1498 0.929 . S
C1487 C1483 1.531 . S
C1487 H1499 0.960 . S
C1487 H1500 0.962 . S
C1487 H1501 0.960 . S
C1488 C1485 1.511 . S
C1488 H1502 0.961 . S
C1488 H1503 0.961 . S
C1488 H1504 0.961 . S
C1489 C1490 1.370 . S
C1489 C1491 1.363 . S
C1489 H1505 0.931 . S
C1490 C1489 1.370 . S
C1490 C1494 1.408 . S
C1491 C1489 1.363 . S
C1491 C1492 1.370 . S
C1491 C1495 1.524 . S
C1492 C1484 1.503 . S
C1492 C1491 1.370 . S
C1492 C1493 1.403 . S
C1493 C1492 1.403 . S
C1493 C1494 1.404 . S
C1493 C1496 1.539 . S
C1494 C1490 1.408 . S
C1494 C1493 1.404 . S
C1494 H1506 0.930 . S
C1495 C1491 1.524 . S
C1495 H1507 0.956 . S
C1495 H1508 0.961 . S
C1495 H1509 0.961 . S
C1496 C1493 1.539 . S
C1496 H1510 0.958 . S
C1496 H1511 0.961 . S
C1496 H1512 0.960 . S
H1497 C1481 0.931 . S
H1498 C1486 0.929 . S
H1499 C1487 0.960 . S
H1500 C1487 0.962 . S
H1501 C1487 0.960 . S
H1502 C1488 0.961 . S
H1503 C1488 0.961 . S
H1504 C1488 0.961 . S
H1505 C1489 0.931 . S
H1506 C1494 0.930 . S
H1507 C1495 0.956 . S
H1508 C1495 0.961 . S
H1509 C1495 0.961 . S
H1510 C1496 0.958 . S
H1511 C1496 0.961 . S
H1512 C1496 0.960 . S
C1513 C1514 1.391 . S
C1513 C1515 1.394 . S
C1513 H1529 0.931 . S
C1514 C1513 1.391 . S
C1514 C1518 1.376 . S
C1515 C1513 1.394 . S
C1515 C1516 1.369 . S
C1515 C1519 1.531 . S
C1516 C1515 1.369 . S
C1516 C1517 1.410 . S
C1516 C1524 1.503 . S
C1517 C1516 1.410 . S
C1517 C1518 1.392 . S
C1517 C1520 1.511 . S
C1518 C1514 1.376 . S
C1518 C1517 1.392 . S
C1518 H1530 0.929 . S
C1519 C1515 1.531 . S
C1519 H1531 0.960 . S
C1519 H1532 0.962 . S
C1519 H1533 0.960 . S
C1520 C1517 1.511 . S
C1520 H1534 0.961 . S
C1520 H1535 0.961 . S
C1520 H1536 0.961 . S
C1521 C1522 1.370 . S
C1521 C1523 1.363 . S
C1521 H1537 0.931 . S
C1522 C1521 1.370 . S
C1522 C1526 1.408 . S
C1523 C1521 1.363 . S
C1523 C1524 1.370 . S
C1523 C1527 1.524 . S
C1524 C1516 1.503 . S
C1524 C1523 1.370 . S
C1524 C1525 1.403 . S
C1525 C1524 1.403 . S
C1525 C1526 1.404 . S
C1525 C1528 1.539 . S
C1526 C1522 1.408 . S
C1526 C1525 1.404 . S
C1526 H1538 0.930 . S
C1527 C1523 1.524 . S
C1527 H1539 0.956 . S
C1527 H1540 0.961 . S
C1527 H1541 0.961 . S
C1528 C1525 1.539 . S
C1528 H1542 0.958 . S
C1528 H1543 0.961 . S
C1528 H1544 0.960 . S
H1529 C1513 0.931 . S
H1530 C1518 0.929 . S
H1531 C1519 0.960 . S
H1532 C1519 0.962 . S
H1533 C1519 0.960 . S
H1534 C1520 0.961 . S
H1535 C1520 0.961 . S
H1536 C1520 0.961 . S
H1537 C1521 0.931 . S
H1538 C1526 0.930 . S
H1539 C1527 0.956 . S
H1540 C1527 0.961 . S
H1541 C1527 0.961 . S
H1542 C1528 0.958 . S
H1543 C1528 0.961 . S
H1544 C1528 0.960 . S
C778 C11 1.597 . S
C786 C695 1.926 . S
C810 C125 1.170 . S
C818 C742 1.680 . S
C850 C746 1.941 . S
C842 C239 1.431 . S
C882 C711 1.430 . S
C874 C343 1.294 . S
C906 C485 1.401 . S
C914 C726 1.825 . S
C946 C748 0.827 . S
C938 C571 0.786 . S
C978 C717 1.442 . S
C970 C257 1.068 . S
C1002 C397 0.981 . S
C1010 C757 1.519 . S
C1042 C686 1.419 . S
C1034 C467 1.059 . S
C1066 C625 1.011 . S
C1074 C715 1.541 . S
C1098 C29 1.552 . S
C1106 C773 2.010 . S
C1138 C684 1.561 . S
C1130 C143 1.072 . S
C1170 C702 1.838 . S
C1162 C371 1.600 . S
C1202 C716 1.438 . S
C1194 C457 1.178 . S
C1234 C770 1.805 . S
C1226 C599 1.611 . S
C1266 C685 1.556 . S
C1258 C55 1.228 . S
C1298 C733 1.791 . S
C1290 C169 1.550 . S
C1322 C283 0.847 . S
C1330 C756 0.950 . S
C1362 C725 1.330 . S
C1354 C581 0.974 . S
C1394 C764 1.198 . S
C1386 C1 1.054 . S
C1426 C694 1.161 . S
C1418 C115 0.862 . S
C1458 C739 1.242 . S
C1450 C229 0.898 . S
C1482 C353 1.266 . S
C1490 C747 1.977 . S
C1514 C511 1.223 . S
C1522 C708 1.530 . S
