# Generated by pormake.
# Topology ptr, (4,4)-cn, num edge types: 1
# Building blocks:
#     Node 0, Type 0, BuildingBlock: GALJAG_clean_sbu_0, # of connection points: 4
#     Node 1, Type 0, BuildingBlock: GALJAG_clean_sbu_0, # of connection points: 4
#     Node 2, Type 0, BuildingBlock: GALJAG_clean_sbu_0, # of connection points: 4
#     Node 3, Type 0, BuildingBlock: GALJAG_clean_sbu_0, # of connection points: 4
#     Node 4, Type 0, BuildingBlock: GALJAG_clean_sbu_0, # of connection points: 4
#     Node 5, Type 0, BuildingBlock: GALJAG_clean_sbu_0, # of connection points: 4
#     Node 6, Type 0, BuildingBlock: GALJAG_clean_sbu_0, # of connection points: 4
#     Node 7, Type 0, BuildingBlock: GALJAG_clean_sbu_0, # of connection points: 4
#     Node 8, Type 0, BuildingBlock: GALJAG_clean_sbu_0, # of connection points: 4
#     Node 9, Type 0, BuildingBlock: GALJAG_clean_sbu_0, # of connection points: 4
#     Node 10, Type 0, BuildingBlock: GALJAG_clean_sbu_0, # of connection points: 4
#     Node 11, Type 0, BuildingBlock: GALJAG_clean_sbu_0, # of connection points: 4
#     Node 12, Type 0, BuildingBlock: GALJAG_clean_sbu_0, # of connection points: 4
#     Node 13, Type 0, BuildingBlock: GALJAG_clean_sbu_0, # of connection points: 4
#     Node 14, Type 0, BuildingBlock: GALJAG_clean_sbu_0, # of connection points: 4
#     Node 15, Type 0, BuildingBlock: GALJAG_clean_sbu_0, # of connection points: 4
#     Node 16, Type 0, BuildingBlock: GALJAG_clean_sbu_0, # of connection points: 4
#     Node 17, Type 0, BuildingBlock: GALJAG_clean_sbu_0, # of connection points: 4
#     Node 18, Type 1, BuildingBlock: GIZVER_clean_linker_0, # of connection points: 4
#     Node 19, Type 1, BuildingBlock: GIZVER_clean_linker_0, # of connection points: 4
#     Node 20, Type 1, BuildingBlock: GIZVER_clean_linker_0, # of connection points: 4
#     Node 21, Type 1, BuildingBlock: GIZVER_clean_linker_0, # of connection points: 4
#     Node 22, Type 1, BuildingBlock: GIZVER_clean_linker_0, # of connection points: 4
#     Node 23, Type 1, BuildingBlock: GIZVER_clean_linker_0, # of connection points: 4
#     Node 24, Type 1, BuildingBlock: GIZVER_clean_linker_0, # of connection points: 4
#     Node 25, Type 1, BuildingBlock: GIZVER_clean_linker_0, # of connection points: 4
#     Node 26, Type 1, BuildingBlock: GIZVER_clean_linker_0, # of connection points: 4
#     Node 27, Type 1, BuildingBlock: GIZVER_clean_linker_0, # of connection points: 4
#     Node 28, Type 1, BuildingBlock: GIZVER_clean_linker_0, # of connection points: 4
#     Node 29, Type 1, BuildingBlock: GIZVER_clean_linker_0, # of connection points: 4
#     Node 30, Type 1, BuildingBlock: GIZVER_clean_linker_0, # of connection points: 4
#     Node 31, Type 1, BuildingBlock: GIZVER_clean_linker_0, # of connection points: 4
#     Node 32, Type 1, BuildingBlock: GIZVER_clean_linker_0, # of connection points: 4
#     Node 33, Type 1, BuildingBlock: GIZVER_clean_linker_0, # of connection points: 4
#     Node 34, Type 1, BuildingBlock: GIZVER_clean_linker_0, # of connection points: 4
#     Node 35, Type 1, BuildingBlock: GIZVER_clean_linker_0, # of connection points: 4
#     Edge 36, Type (0, 1), BuildingBlock: OJICUG_clean_linker_0, # of connection points: 2
#     Edge 37, Type (0, 1), BuildingBlock: OJICUG_clean_linker_0, # of connection points: 2
#     Edge 38, Type (0, 1), BuildingBlock: OJICUG_clean_linker_0, # of connection points: 2
#     Edge 39, Type (0, 1), BuildingBlock: OJICUG_clean_linker_0, # of connection points: 2
#     Edge 40, Type (0, 1), BuildingBlock: OJICUG_clean_linker_0, # of connection points: 2
#     Edge 41, Type (0, 1), BuildingBlock: OJICUG_clean_linker_0, # of connection points: 2
#     Edge 42, Type (0, 1), BuildingBlock: OJICUG_clean_linker_0, # of connection points: 2
#     Edge 43, Type (0, 1), BuildingBlock: OJICUG_clean_linker_0, # of connection points: 2
#     Edge 44, Type (0, 1), BuildingBlock: OJICUG_clean_linker_0, # of connection points: 2
#     Edge 45, Type (0, 1), BuildingBlock: OJICUG_clean_linker_0, # of connection points: 2
#     Edge 46, Type (0, 1), BuildingBlock: OJICUG_clean_linker_0, # of connection points: 2
#     Edge 47, Type (0, 1), BuildingBlock: OJICUG_clean_linker_0, # of connection points: 2
#     Edge 48, Type (0, 1), BuildingBlock: OJICUG_clean_linker_0, # of connection points: 2
#     Edge 49, Type (0, 1), BuildingBlock: OJICUG_clean_linker_0, # of connection points: 2
#     Edge 50, Type (0, 1), BuildingBlock: OJICUG_clean_linker_0, # of connection points: 2
#     Edge 51, Type (0, 1), BuildingBlock: OJICUG_clean_linker_0, # of connection points: 2
#     Edge 52, Type (0, 1), BuildingBlock: OJICUG_clean_linker_0, # of connection points: 2
#     Edge 53, Type (0, 1), BuildingBlock: OJICUG_clean_linker_0, # of connection points: 2
#     Edge 54, Type (0, 1), BuildingBlock: OJICUG_clean_linker_0, # of connection points: 2
#     Edge 55, Type (0, 1), BuildingBlock: OJICUG_clean_linker_0, # of connection points: 2
#     Edge 56, Type (0, 1), BuildingBlock: OJICUG_clean_linker_0, # of connection points: 2
#     Edge 57, Type (0, 1), BuildingBlock: OJICUG_clean_linker_0, # of connection points: 2
#     Edge 58, Type (0, 1), BuildingBlock: OJICUG_clean_linker_0, # of connection points: 2
#     Edge 59, Type (0, 1), BuildingBlock: OJICUG_clean_linker_0, # of connection points: 2
#     Edge 60, Type (0, 1), BuildingBlock: OJICUG_clean_linker_0, # of connection points: 2
#     Edge 61, Type (0, 1), BuildingBlock: OJICUG_clean_linker_0, # of connection points: 2
#     Edge 62, Type (0, 1), BuildingBlock: OJICUG_clean_linker_0, # of connection points: 2
#     Edge 63, Type (0, 1), BuildingBlock: OJICUG_clean_linker_0, # of connection points: 2
#     Edge 64, Type (0, 1), BuildingBlock: OJICUG_clean_linker_0, # of connection points: 2
#     Edge 65, Type (0, 1), BuildingBlock: OJICUG_clean_linker_0, # of connection points: 2
#     Edge 66, Type (0, 1), BuildingBlock: OJICUG_clean_linker_0, # of connection points: 2
#     Edge 67, Type (0, 1), BuildingBlock: OJICUG_clean_linker_0, # of connection points: 2
#     Edge 68, Type (0, 1), BuildingBlock: OJICUG_clean_linker_0, # of connection points: 2
#     Edge 69, Type (0, 1), BuildingBlock: OJICUG_clean_linker_0, # of connection points: 2
#     Edge 70, Type (0, 1), BuildingBlock: OJICUG_clean_linker_0, # of connection points: 2
#     Edge 71, Type (0, 1), BuildingBlock: OJICUG_clean_linker_0, # of connection points: 2
#     Edge 72, Type (0, 1), BuildingBlock: OJICUG_clean_linker_0, # of connection points: 2
#     Edge 73, Type (0, 1), BuildingBlock: OJICUG_clean_linker_0, # of connection points: 2
#     Edge 74, Type (0, 1), BuildingBlock: OJICUG_clean_linker_0, # of connection points: 2
#     Edge 75, Type (0, 1), BuildingBlock: OJICUG_clean_linker_0, # of connection points: 2
#     Edge 76, Type (0, 1), BuildingBlock: OJICUG_clean_linker_0, # of connection points: 2
#     Edge 77, Type (0, 1), BuildingBlock: OJICUG_clean_linker_0, # of connection points: 2
#     Edge 78, Type (0, 1), BuildingBlock: OJICUG_clean_linker_0, # of connection points: 2
#     Edge 79, Type (0, 1), BuildingBlock: OJICUG_clean_linker_0, # of connection points: 2
#     Edge 80, Type (0, 1), BuildingBlock: OJICUG_clean_linker_0, # of connection points: 2
#     Edge 81, Type (0, 1), BuildingBlock: OJICUG_clean_linker_0, # of connection points: 2
#     Edge 82, Type (0, 1), BuildingBlock: OJICUG_clean_linker_0, # of connection points: 2
#     Edge 83, Type (0, 1), BuildingBlock: OJICUG_clean_linker_0, # of connection points: 2
#     Edge 84, Type (0, 1), BuildingBlock: OJICUG_clean_linker_0, # of connection points: 2
#     Edge 85, Type (0, 1), BuildingBlock: OJICUG_clean_linker_0, # of connection points: 2
#     Edge 86, Type (0, 1), BuildingBlock: OJICUG_clean_linker_0, # of connection points: 2
#     Edge 87, Type (0, 1), BuildingBlock: OJICUG_clean_linker_0, # of connection points: 2
#     Edge 88, Type (0, 1), BuildingBlock: OJICUG_clean_linker_0, # of connection points: 2
#     Edge 89, Type (0, 1), BuildingBlock: OJICUG_clean_linker_0, # of connection points: 2
#     Edge 90, Type (0, 1), BuildingBlock: OJICUG_clean_linker_0, # of connection points: 2
#     Edge 91, Type (0, 1), BuildingBlock: OJICUG_clean_linker_0, # of connection points: 2
#     Edge 92, Type (0, 1), BuildingBlock: OJICUG_clean_linker_0, # of connection points: 2
#     Edge 93, Type (0, 1), BuildingBlock: OJICUG_clean_linker_0, # of connection points: 2
#     Edge 94, Type (0, 1), BuildingBlock: OJICUG_clean_linker_0, # of connection points: 2
#     Edge 95, Type (0, 1), BuildingBlock: OJICUG_clean_linker_0, # of connection points: 2
#     Edge 96, Type (0, 1), BuildingBlock: OJICUG_clean_linker_0, # of connection points: 2
#     Edge 97, Type (0, 1), BuildingBlock: OJICUG_clean_linker_0, # of connection points: 2
#     Edge 98, Type (0, 1), BuildingBlock: OJICUG_clean_linker_0, # of connection points: 2
#     Edge 99, Type (0, 1), BuildingBlock: OJICUG_clean_linker_0, # of connection points: 2
#     Edge 100, Type (0, 1), BuildingBlock: OJICUG_clean_linker_0, # of connection points: 2
#     Edge 101, Type (0, 1), BuildingBlock: OJICUG_clean_linker_0, # of connection points: 2
#     Edge 102, Type (0, 1), BuildingBlock: OJICUG_clean_linker_0, # of connection points: 2
#     Edge 103, Type (0, 1), BuildingBlock: OJICUG_clean_linker_0, # of connection points: 2
#     Edge 104, Type (0, 1), BuildingBlock: OJICUG_clean_linker_0, # of connection points: 2
#     Edge 105, Type (0, 1), BuildingBlock: OJICUG_clean_linker_0, # of connection points: 2
#     Edge 106, Type (0, 1), BuildingBlock: OJICUG_clean_linker_0, # of connection points: 2
#     Edge 107, Type (0, 1), BuildingBlock: OJICUG_clean_linker_0, # of connection points: 2
# Relax obj value: 0.069
# Max RMSD: 0.094
# Mean RMSD: 0.093
data_MOF--net-ptr--node1-GALJAG_clean_sbu_0--node2-GIZVER_clean_linker_0--edge1-OJICUG_clean_linker_0
_symmetry_space_group_name_H-M    P1
_symmetry_Int_Tables_number       1
_symmetry_cell_setting            triclinic
loop_
_symmetry_equiv_pos_as_xyz
'x, y, z'
_cell_length_a     58.202544
_cell_length_b     58.255046
_cell_length_c     37.871854
_cell_angle_alpha  90.503717
_cell_angle_beta   90.369948
_cell_angle_gamma 120.09865
loop_
_atom_site_label
_atom_site_type_symbol
_atom_site_fract_x
_atom_site_fract_y
_atom_site_fract_z
_atom_type_partial_charge
In0 In 0.0208 0.39453 0.00981 0.0
O1 O 1.00295 0.39683 0.0625 0.0
O2 O 0.03549 0.43218 0.04296 0.0
C3 C 0.97435 0.34763 0.00389 0.0
C4 C 0.06423 0.38976 0.02248 0.0
C5 C 0.02607 0.42008 0.94845 0.0
O6 O 0.97778 0.36891 0.99069 0.0
O7 O 0.99414 0.35007 0.02106 0.0
O8 O 0.0343 0.40393 0.95241 0.0
O9 O 0.0154 0.42337 0.97534 0.0
C10 C 0.01889 0.42133 0.06721 0.0
O11 O 0.062 0.40898 0.03353 0.0
O12 O 0.04472 0.37298 0.00414 0.0
In13 In 0.63333 0.63169 0.01434 0.0
O14 O 0.62739 0.60817 0.06498 0.0
O15 O 0.59767 0.61734 0.05051 0.0
C16 C 0.68256 0.64069 -0.00038 0.0
C17 C 0.64282 0.68121 0.0286 0.0
C18 C 0.60602 0.6023 0.957 0.0
O19 O 0.66737 0.62267 0.02041 0.0
O20 O 0.67288 0.65386 0.98643 0.0
O21 O 0.61245 0.6263 0.96092 0.0
O22 O 0.61328 0.59316 0.98191 0.0
C23 C 0.60534 0.60622 0.07212 0.0
O24 O 0.6224 0.66439 0.01166 0.0
O25 O 0.65806 0.67293 0.0387 0.0
In26 In 0.37967 0.00254 0.00463 0.0
O27 O 0.39075 0.04584 0.01441 0.0
O28 O 0.3571 0.02154 0.98168 0.0
C29 C 0.40418 0.99688 0.06235 0.0
C30 C 0.40934 0.00751 0.94699 0.0
C31 C 0.32941 0.96231 0.01447 0.0
O32 O 0.39858 0.01508 0.05991 0.0
O33 O 0.39756 0.98169 0.03576 0.0
O34 O 0.34576 0.95945 0.99587 0.0
O35 O 0.33847 0.98513 0.02798 0.0
C36 C 0.37158 0.04395 0.99623 0.0
O37 O 0.38644 0.98783 0.95128 0.0
O38 O 0.41705 0.02474 0.97133 0.0
In39 In 0.99956 0.61574 0.01943 0.0
O40 O 0.02091 0.60558 0.97642 0.0
O41 O 0.97884 0.58511 0.97537 0.0
C42 C 0.04307 0.66132 0.04179 0.0
C43 C 0.96284 0.63004 0.00472 0.0
C44 C 0.99254 0.58357 0.07419 0.0
O45 O 0.03828 0.65539 0.00935 0.0
O46 O 0.02605 0.64452 0.06222 0.0
O47 O 0.97976 0.59569 0.07091 0.0
O48 O 0.00835 0.58719 0.04938 0.0
C49 C 0.99977 0.58833 0.9613 0.0
O50 O 0.95689 0.6081 0.01836 0.0
O51 O 0.98727 0.64487 -0.00096 0.0
In52 In 0.38751 0.39065 0.00818 0.0
O53 O 0.38751 0.40723 0.95299 0.0
O54 O 0.42408 0.41429 0.97467 0.0
C55 C 0.34148 0.39038 0.02061 0.0
C56 C 0.38146 0.34156 -0.00178 0.0
C57 C 0.41369 0.41135 0.06988 0.0
O58 O 0.36376 0.40847 0.03198 0.0
O59 O 0.34253 0.373 0.00168 0.0
O60 O 0.39841 0.38673 0.065 0.0
O61 O 0.41572 0.42544 0.0437 0.0
C62 C 0.41221 0.41743 0.94899 0.0
O63 O 0.36226 0.34539 0.00321 0.0
O64 O 0.40387 0.36243 -0.00104 0.0
In65 In 0.63756 0.01202 0.01192 0.0
O66 O 0.62928 0.0252 0.06536 0.0
O67 O 0.59787 0.99132 0.03996 0.0
C68 C 0.68713 0.05281 0.00085 0.0
C69 C 0.64774 0.97269 0.02693 0.0
C70 C 0.61286 0.01528 0.95309 0.0
O71 O 0.67025 0.05579 0.01806 0.0
O72 O 0.67889 0.0296 0.98908 0.0
O73 O 0.61528 0.99535 0.95939 0.0
O74 O 0.62317 0.03354 0.97606 0.0
C75 C 0.60537 0.00679 0.0663 0.0
O76 O 0.63051 0.96974 0.00408 0.0
O77 O 0.65948 0.99517 0.04203 0.0
In78 In 0.68038 0.72044 0.34362 0.0
O79 O 0.66643 0.72694 0.39743 0.0
O80 O 0.70048 0.75928 0.37541 0.0
C81 C 0.63817 0.672 0.32882 0.0
C82 C 0.7188 0.70855 0.35762 0.0
C83 C 0.67962 0.74638 0.28519 0.0
O84 O 0.63577 0.68978 0.34485 0.0
O85 O 0.66158 0.67876 0.32002 0.0
O86 O 0.69886 0.74302 0.29278 0.0
O87 O 0.66079 0.73642 0.30671 0.0
C88 C 0.68453 0.75085 0.40067 0.0
O89 O 0.72286 0.72768 0.33814 0.0
O90 O 0.69576 0.69591 0.37023 0.0
In91 In 0.30053 0.96227 0.3449 0.0
O92 O 0.29614 0.93746 0.39385 0.0
O93 O 0.2692 0.95157 0.38726 0.0
C94 C 0.34768 0.96453 0.33554 0.0
C95 C 0.30875 0.01196 0.35438 0.0
C96 C 0.27555 0.93798 0.28347 0.0
O97 O 0.32632 0.94286 0.33978 0.0
O98 O 0.34527 0.98484 0.33736 0.0
O99 O 0.29625 0.96044 0.28498 0.0
O100 O 0.2665 0.92807 0.31309 0.0
C101 C 0.27649 0.93848 0.40577 0.0
O102 O 0.28757 0.9936 0.34055 0.0
O103 O 0.32541 0.0052 0.3633 0.0
In104 In 0.05194 0.33942 0.34393 0.0
O105 O 0.06136 0.38249 0.34955 0.0
O106 O 0.02877 0.35615 0.31653 0.0
C107 C 0.07852 0.33824 0.40226 0.0
C108 C 0.08059 0.34174 0.28652 0.0
C109 C 1.00271 0.2988 0.3579 0.0
O110 O 0.07156 0.35535 0.39818 0.0
O111 O 0.07228 0.32199 0.37693 0.0
O112 O 0.01131 0.32221 0.36898 0.0
O113 O 0.01898 0.2956 0.33963 0.0
C114 C 0.04242 0.37923 0.32962 0.0
O115 O 0.05799 0.32209 0.29254 0.0
O116 O 0.08857 0.36023 0.30915 0.0
In117 In 0.67253 0.96194 0.3466 0.0
O118 O 0.6918 0.9558 0.29785 0.0
O119 O 0.65194 0.92656 0.3083 0.0
C120 C 0.71254 0.01263 0.35504 0.0
C121 C 0.62993 0.96684 0.33089 0.0
C122 C 0.6766 0.93869 0.40641 0.0
O123 O 0.68968 0.00426 0.36748 0.0
O124 O 0.71545 0.99537 0.33854 0.0
O125 O 0.66139 0.94816 0.40396 0.0
O126 O 0.68928 0.94062 0.3788 0.0
C127 C 0.6717 0.9342 0.28849 0.0
O128 O 0.62782 0.94715 0.34751 0.0
O129 O 0.6533 0.98368 0.32224 0.0
In130 In 0.05618 0.73182 0.34364 0.0
O131 O 0.05812 0.75231 0.29161 0.0
O132 O 0.09448 0.7605 0.31587 0.0
C133 C 0.00543 0.71986 0.35545 0.0
C134 C 0.05336 0.68593 0.32251 0.0
C135 C 0.08324 0.75628 0.40372 0.0
O136 O 0.02375 0.74301 0.34863 0.0
O137 O 0.01253 0.70267 0.35556 0.0
O138 O 0.08631 0.73886 0.38794 0.0
O139 O 0.06654 0.76105 0.3894 0.0
C140 C 0.08314 0.76432 0.28996 0.0
O141 O 0.05274 0.69128 0.35481 0.0
O142 O 0.05506 0.70341 0.30156 0.0
In143 In 0.30161 0.34247 0.35013 0.0
O144 O 0.29043 0.2987 0.34462 0.0
O145 O 0.32505 0.32485 0.37448 0.0
C146 C 0.27661 0.34467 0.29074 0.0
C147 C 0.27325 0.34054 0.40789 0.0
C148 C 0.35107 0.38255 0.33636 0.0
O149 O 0.27852 0.32465 0.29835 0.0
O150 O 0.28733 0.36349 0.31289 0.0
O151 O 0.3342 0.38651 0.35195 0.0
O152 O 0.34288 0.3587 0.32762 0.0
C153 C 0.3101 0.30165 0.3626 0.0
O154 O 0.29774 0.3569 0.40538 0.0
O155 O 0.2632 0.3255 0.38137 0.0
In156 In 0.34947 0.05581 0.67573 0.0
O157 O 0.39188 0.07499 0.69714 0.0
O158 O 0.37783 0.03983 0.66614 0.0
C159 C 0.34781 0.07985 0.61551 0.0
C160 C 0.3461 0.07799 0.73694 0.0
C161 C 0.30872 0.00501 0.67013 0.0
O162 O 0.36923 0.08283 0.62814 0.0
O163 O 0.32757 0.06482 0.63299 0.0
O164 O 0.30519 0.02428 0.67664 0.0
O165 O 0.33273 0.01126 0.66729 0.0
C166 C 0.39655 0.05761 0.68466 0.0
O167 O 0.34384 0.05533 0.73498 0.0
O168 O 0.34902 0.08926 0.70771 0.0
In169 In 0.96368 0.29715 0.68011 0.0
O170 O 0.97957 0.34108 0.66812 0.0
O171 O 0.94778 0.32253 0.70409 0.0
C172 C 0.93553 0.26864 0.62252 0.0
C173 C 0.94357 0.27337 0.74217 0.0
C174 C 0.01345 0.30493 0.67088 0.0
O175 O 0.9411 0.29227 0.62784 0.0
O176 O 0.94406 0.25964 0.64603 0.0
O177 O 0.99366 0.28245 0.67683 0.0
O178 O 0.00827 0.32349 0.67054 0.0
C179 C 0.964 0.3436 0.68874 0.0
O180 O 0.968 0.28963 0.73815 0.0
O181 O 0.92935 0.26922 0.71495 0.0
In182 In 0.71649 0.67474 0.67509 0.0
O183 O 0.69481 0.69524 0.65396 0.0
O184 O 0.73297 0.71985 0.6769 0.0
C185 C 0.74226 0.67169 0.73281 0.0
C186 C 0.74144 0.6723 0.61636 0.0
C187 C 0.66719 0.63486 0.6902 0.0
O188 O 0.73721 0.6902 0.72872 0.0
O189 O 0.73417 0.65479 0.70802 0.0
O190 O 0.67645 0.65828 0.70179 0.0
O191 O 0.68286 0.63136 0.67103 0.0
C192 C 0.71273 0.71844 0.66229 0.0
O193 O 0.7165 0.66044 0.61881 0.0
O194 O 0.75384 0.68573 0.64331 0.0
In195 In 0.3363 0.28643 0.68101 0.0
O196 O 0.35716 0.27847 0.63513 0.0
O197 O 0.31523 0.25618 0.6364 0.0
C198 C 0.38168 0.33289 0.6944 0.0
C199 C 0.29678 0.29797 0.67467 0.0
C200 C 0.3319 0.25695 0.73789 0.0
O201 O 0.36684 0.32977 0.66818 0.0
O202 O 0.37375 0.3127 0.7134 0.0
O203 O 0.32161 0.27155 0.73666 0.0
O204 O 0.34378 0.25682 0.71022 0.0
C205 C 0.33604 0.26073 0.6207 0.0
O206 O 0.29241 0.27504 0.68203 0.0
O207 O 0.32101 0.31508 0.67164 0.0
In208 In 0.72616 0.06039 0.68318 0.0
O209 O 0.72282 0.06426 0.62376 0.0
O210 O 0.75934 0.09132 0.64874 0.0
C211 C 0.67912 0.05908 0.69311 0.0
C212 C 0.72552 0.01367 0.6755 0.0
C213 C 0.7539 0.08313 0.74342 0.0
O214 O 0.70128 0.07906 0.70083 0.0
O215 O 0.68069 0.0401 0.67965 0.0
O216 O 0.73878 0.05836 0.73984 0.0
O217 O 0.75507 0.09634 0.71663 0.0
C218 C 0.74623 0.08317 0.62033 0.0
O219 O 0.70584 0.01517 0.68625 0.0
O220 O 0.74602 0.03584 0.67026 0.0
In221 In 0.97265 0.68252 0.68181 0.0
O222 O 0.96956 0.64184 0.67336 0.0
O223 O 0.99106 0.66539 0.7181 0.0
C224 C 0.94605 0.68254 0.62294 0.0
C225 C 0.94202 0.68055 0.73665 0.0
C226 C 0.02238 0.72199 0.6676 0.0
O227 O 0.94599 0.662 0.63341 0.0
O228 O 0.95965 0.70294 0.64188 0.0
O229 O 0.00565 0.72637 0.68275 0.0
O230 O 0.01394 0.69801 0.6594 0.0
C231 C 0.98315 0.64409 0.70072 0.0
O232 O 0.96597 0.69859 0.734 0.0
O233 O 0.93355 0.66397 0.71148 0.0
H234 H 0.15261 0.32707 0.16482 0.0
H235 H 0.15376 0.35207 0.05757 0.0
H236 H 0.11495 0.3718 0.13869 0.0
H237 H 0.16196 0.30554 0.11118 0.0
H238 H 0.1699 0.32225 0.06997 0.0
H239 H 0.19242 0.32848 0.1651 0.0
H240 H 0.27476 0.3749 0.13981 0.0
H241 H 0.21557 0.3532 0.05787 0.0
C242 C 0.14837 0.3381 0.14556 0.0
C243 C 0.13391 0.3503 0.15589 0.0
C244 C 0.1567 0.33958 0.11035 0.0
C245 C 0.14881 0.35205 0.08511 0.0
C246 C 0.13376 0.36375 0.09526 0.0
C247 C 0.12716 0.36343 0.13083 0.0
C248 C 0.17149 0.32552 0.09909 0.0
C249 C 0.20046 0.34047 0.11052 0.0
C250 C 0.20757 0.33968 0.14592 0.0
C251 C 0.23431 0.35266 0.15659 0.0
C252 C 0.25411 0.36607 0.13165 0.0
C253 C 0.24765 0.366 0.09588 0.0
C254 C 0.22072 0.3535 0.08549 0.0
H255 H 0.69749 0.83333 0.16413 0.0
H256 H 0.6769 0.81033 0.05479 0.0
H257 H 0.65434 0.75119 0.13473 0.0
H258 H 0.72009 0.865 0.11237 0.0
H259 H 0.70464 0.85637 0.06972 0.0
H260 H 0.69082 0.86706 0.16485 0.0
H261 H 0.6525 0.9102 0.13455 0.0
H262 H 0.68065 0.87798 0.05452 0.0
C263 C 0.68683 0.81829 0.14405 0.0
C264 C 0.67443 0.79157 0.15355 0.0
C265 C 0.68634 0.82544 0.10868 0.0
C266 C 0.67543 0.80523 0.08246 0.0
C267 C 0.66405 0.77845 0.09192 0.0
C268 C 0.66258 0.77183 0.12752 0.0
C269 C 0.7005 0.85446 0.09851 0.0
C270 C 0.6852 0.86835 0.10839 0.0
C271 C 0.68239 0.87329 0.14417 0.0
C272 C 0.66992 0.88766 0.15361 0.0
C273 C 0.66073 0.89775 0.12723 0.0
C274 C 0.665 0.89478 0.09161 0.0
C275 C 0.67676 0.87965 0.08209 0.0
H276 H 0.17142 0.81934 0.16474 0.0
H277 H 0.15853 0.77039 0.07214 0.0
H278 H 0.09385 0.75476 0.14019 0.0
H279 H 0.20641 0.80337 0.13059 0.0
H280 H 0.20235 0.80488 0.0845 0.0
H281 H 0.21557 0.84217 0.17055 0.0
H282 H 0.25664 0.91811 0.12129 0.0
H283 H 0.22043 0.84723 0.05722 0.0
C284 C 0.15837 0.80384 0.14657 0.0
C285 C 0.13147 0.7884 0.15538 0.0
C286 C 0.16846 0.79809 0.11607 0.0
C287 C 0.1509 0.77627 0.09435 0.0
C288 C 0.12398 0.76053 0.10318 0.0
C289 C 0.11442 0.76741 0.1329 0.0
C290 C 0.19828 0.81121 0.11039 0.0
C291 C 0.21353 0.84132 0.11343 0.0
C292 C 0.22075 0.85399 0.14692 0.0
C293 C 0.23611 0.88176 0.15 0.0
C294 C 0.24454 0.89671 0.11915 0.0
C295 C 0.24002 0.88452 0.0858 0.0
C296 C 0.22386 0.8568 0.08292 0.0
H297 H 0.36434 0.19874 0.85814 0.0
H298 H 0.38945 0.23328 0.96224 0.0
H299 H 0.34583 0.25721 0.89524 0.0
H300 H 0.40953 0.20761 0.89492 0.0
H301 H 0.40462 0.20492 0.94123 0.0
H302 H 0.37913 0.17031 0.85373 0.0
H303 H 0.34139 0.09293 0.89894 0.0
H304 H 0.37937 0.16186 0.96653 0.0
C305 C 0.36437 0.2113 0.87923 0.0
C306 C 0.35274 0.22703 0.87306 0.0
C307 C 0.37737 0.21297 0.91147 0.0
C308 C 0.37846 0.23073 0.93792 0.0
C309 C 0.36644 0.24619 0.93238 0.0
C310 C 0.35344 0.24393 0.90017 0.0
C311 C 0.39387 0.19954 0.91537 0.0
C312 C 0.37813 0.16957 0.91086 0.0
C313 C 0.37207 0.15787 0.87675 0.0
C314 C 0.35884 0.13017 0.87228 0.0
C315 C 0.3515 0.1143 0.90228 0.0
C316 C 0.35993 0.1254 0.9361 0.0
C317 C 0.37261 0.15311 0.94046 0.0
H318 H 0.87755 0.19358 0.86995 0.0
H319 H 0.87721 0.21941 0.97706 0.0
H320 H 0.91921 0.27637 0.89646 0.0
H321 H 0.86951 0.16426 0.92455 0.0
H322 H 0.86086 0.17341 0.96506 0.0
H323 H 0.8385 0.15602 0.86906 0.0
H324 H 0.75687 0.10817 0.89745 0.0
H325 H 0.81509 0.15259 0.9778 0.0
C326 C 0.88212 0.20922 0.88907 0.0
C327 C 0.89862 0.23565 0.87908 0.0
C328 C 0.87349 0.203 0.92422 0.0
C329 C 0.88227 0.22385 0.94951 0.0
C330 C 0.89864 0.25041 0.93946 0.0
C331 C 0.90611 0.25598 0.90415 0.0
C332 C 0.85919 0.17428 0.93588 0.0
C333 C 0.83018 0.15839 0.92436 0.0
C334 C 0.82328 0.15004 0.88877 0.0
C335 C 0.79686 0.13186 0.87905 0.0
C336 C 0.77722 0.12262 0.90475 0.0
C337 C 0.78363 0.12985 0.94021 0.0
C338 C 0.81004 0.14792 0.95007 0.0
H339 H 0.84542 0.64472 0.84813 0.0
H340 H 0.85255 0.62892 0.95731 0.0
H341 H 0.92182 0.66827 0.89266 0.0
H342 H 0.80805 0.60468 0.88494 0.0
H343 H 0.8097 0.60899 0.93155 0.0
H344 H 0.80556 0.63912 0.84572 0.0
H345 H 0.75688 0.66756 0.88939 0.0
H346 H 0.78956 0.6321 0.95725 0.0
C347 C 0.85749 0.64708 0.8711 0.0
C348 C 0.88512 0.65923 0.8672 0.0
C349 C 0.84545 0.63667 0.90377 0.0
C350 C 0.86162 0.63803 0.93254 0.0
C351 C 0.88928 0.64956 0.92881 0.0
C352 C 0.90076 0.66064 0.89631 0.0
C353 C 0.81541 0.62004 0.90631 0.0
C354 C 0.80115 0.6357 0.90241 0.0
C355 C 0.79758 0.64359 0.86872 0.0
C356 C 0.78238 0.65593 0.86413 0.0
C357 C 0.77014 0.65977 0.89342 0.0
C358 C 0.77226 0.651 0.927 0.0
C359 C 0.78821 0.63936 0.93153 0.0
H360 H 0.81596 0.65726 0.49924 0.0
H361 H 0.81397 0.67433 0.38883 0.0
H362 H 0.76977 0.69152 0.46423 0.0
H363 H 0.826 0.63367 0.44915 0.0
H364 H 0.83252 0.64744 0.40611 0.0
H365 H 0.85715 0.66104 0.50079 0.0
H366 H 0.93877 0.70612 0.47058 0.0
H367 H 0.87738 0.67794 0.39101 0.0
C368 C 0.81028 0.66604 0.47834 0.0
C369 C 0.79259 0.67511 0.48579 0.0
C370 C 0.81879 0.66627 0.44343 0.0
C371 C 0.80902 0.67554 0.41606 0.0
C372 C 0.79139 0.6847 0.42373 0.0
C373 C 0.78393 0.68505 0.45858 0.0
C374 C 0.83455 0.65272 0.43472 0.0
C375 C 0.86366 0.66924 0.44494 0.0
C376 C 0.87175 0.67102 0.48051 0.0
C377 C 0.89881 0.68473 0.4899 0.0
C378 C 0.91784 0.6966 0.46357 0.0
C379 C 0.91028 0.69389 0.42794 0.0
C380 C 0.88318 0.6805 0.41866 0.0
H381 H 0.36338 0.1629 0.49196 0.0
H382 H 0.34197 0.14069 0.38261 0.0
H383 H 0.32066 0.0809 0.46134 0.0
H384 H 0.38552 0.19505 0.44067 0.0
H385 H 0.36981 0.18672 0.39819 0.0
H386 H 0.35682 0.19674 0.494 0.0
H387 H 0.31606 0.23798 0.46569 0.0
H388 H 0.34452 0.20722 0.38423 0.0
C389 C 0.35284 0.14795 0.47175 0.0
C390 C 0.34076 0.12115 0.48089 0.0
C391 C 0.35202 0.15534 0.43663 0.0
C392 C 0.34091 0.13535 0.41014 0.0
C393 C 0.32967 0.10848 0.41911 0.0
C394 C 0.32876 0.1016 0.45456 0.0
C395 C 0.36585 0.18447 0.42702 0.0
C396 C 0.35035 0.19799 0.43777 0.0
C397 C 0.3479 0.20278 0.47375 0.0
C398 C 0.33493 0.21655 0.48392 0.0
C399 C 0.3248 0.22607 0.45796 0.0
C400 C 0.32861 0.22321 0.42215 0.0
C401 C 0.34104 0.20884 0.41197 0.0
H402 H 0.83609 0.13461 0.50484 0.0
H403 H 0.82904 0.12157 0.39245 0.0
H404 H 0.75926 0.09505 0.45514 0.0
H405 H 0.87327 0.1372 0.46656 0.0
H406 H 0.87157 0.13987 0.41991 0.0
H407 H 0.8722 0.17414 0.50573 0.0
H408 H 0.92496 0.25132 0.46581 0.0
H409 H 0.89523 0.18332 0.39654 0.0
C410 C 0.82399 0.12866 0.48109 0.0
C411 C 0.79619 0.11515 0.484 0.0
C412 C 0.83614 0.13255 0.44787 0.0
C413 C 0.81999 0.12083 0.41765 0.0
C414 C 0.79218 0.1066 0.42036 0.0
C415 C 0.78068 0.1056 0.45313 0.0
C416 C 0.86608 0.1453 0.44545 0.0
C417 C 0.8805 0.17525 0.45003 0.0
C418 C 0.88206 0.18665 0.48354 0.0
C419 C 0.89758 0.21415 0.48919 0.0
C420 C 0.91163 0.23031 0.46094 0.0
C421 C 0.9111 0.21948 0.42753 0.0
C422 C 0.89526 0.19189 0.42207 0.0
H423 H 0.01906 0.5257 0.20346 0.0
H424 H 0.05887 0.57637 0.29397 0.0
H425 H 0.01053 0.59296 0.225 0.0
H426 H 0.0749 0.54602 0.24068 0.0
H427 H 0.06413 0.53872 0.28467 0.0
H428 H 0.04651 0.51143 0.191 0.0
H429 H 0.01789 0.43159 0.22349 0.0
H430 H 0.0441 0.49379 0.30166 0.0
C431 C 0.02318 0.54206 0.22076 0.0
C432 C 0.01284 0.55831 0.21101 0.0
C433 C 0.03988 0.54813 0.25078 0.0
C434 C 0.045 0.57041 0.27191 0.0
C435 C 0.03421 0.58644 0.26279 0.0
C436 C 0.01774 0.57982 0.23287 0.0
C437 C 0.05675 0.53514 0.25685 0.0
C438 C 0.04414 0.50576 0.24759 0.0
C439 C 0.04051 0.49712 0.21199 0.0
C440 C 0.0293 0.47009 0.20334 0.0
C441 C 0.02437 0.45207 0.23038 0.0
C442 C 0.03029 0.46045 0.26568 0.0
C443 C 0.03947 0.48722 0.27436 0.0
H444 H 0.53452 0.5203 0.19318 0.0
H445 H 0.54196 0.5444 0.30256 0.0
H446 H 0.57416 0.60278 0.22124 0.0
H447 H 0.53183 0.49081 0.24638 0.0
H448 H 0.52434 0.49868 0.28869 0.0
H449 H 0.49852 0.48009 0.19476 0.0
H450 H 0.41769 0.43415 0.22761 0.0
H451 H 0.47875 0.47922 0.30463 0.0
C452 C 0.53968 0.53553 0.21315 0.0
C453 C 0.55356 0.5622 0.20311 0.0
C454 C 0.53398 0.52871 0.24894 0.0
C455 C 0.54405 0.54921 0.27476 0.0
C456 C 0.55846 0.57595 0.26473 0.0
C457 C 0.56209 0.58219 0.22889 0.0
C458 C 0.52137 0.49993 0.25987 0.0
C459 C 0.49204 0.48347 0.25041 0.0
C460 C 0.48394 0.4746 0.21529 0.0
C461 C 0.45716 0.45682 0.20697 0.0
C462 C 0.43836 0.44824 0.23378 0.0
C463 C 0.44598 0.45609 0.26887 0.0
C464 C 0.47277 0.47389 0.27724 0.0
H465 H 0.50456 0.96362 0.17289 0.0
H466 H 0.51158 0.94948 0.28288 0.0
H467 H 0.58135 0.99379 0.22059 0.0
H468 H 0.46787 0.92389 0.20786 0.0
H469 H 0.46902 0.92619 0.25482 0.0
H470 H 0.46438 0.95911 0.17205 0.0
H471 H 0.41617 0.98649 0.22108 0.0
H472 H 0.44889 0.94838 0.28356 0.0
C473 C 0.51661 0.96702 0.19629 0.0
C474 C 0.54438 0.98131 0.19342 0.0
C475 C 0.50447 0.95605 0.2287 0.0
C476 C 0.52063 0.95891 0.25825 0.0
C477 C 0.54845 0.97283 0.25553 0.0
C478 C 0.55998 0.98433 0.22328 0.0
C479 C 0.47459 0.93824 0.23043 0.0
C480 C 0.45979 0.95344 0.22841 0.0
C481 C 0.45614 0.96253 0.19566 0.0
C482 C 0.44091 0.97502 0.19286 0.0
C483 C 0.42916 0.97821 0.22327 0.0
C484 C 0.43174 0.9685 0.2559 0.0
C485 C 0.44729 0.95635 0.2585 0.0
H486 H 0.48657 0.99854 0.8278 0.0
H487 H 0.49046 0.02635 0.72154 0.0
H488 H 0.44795 0.04231 0.80144 0.0
H489 H 0.49789 0.97886 0.77415 0.0
H490 H 0.50621 0.99623 0.73347 0.0
H491 H 0.52749 1.00217 0.82929 0.0
H492 H 0.6102 0.04686 0.80543 0.0
H493 H 0.5522 0.02569 0.7221 0.0
C494 C 0.48267 0.00996 0.80876 0.0
C495 C 0.4673 0.02126 0.81881 0.0
C496 C 0.49219 0.01265 0.77398 0.0
C497 C 0.48466 0.0255 0.74885 0.0
C498 C 0.4687 0.03628 0.75863 0.0
C499 C 0.4609 0.03475 0.79388 0.0
C500 C 0.50743 0.99904 0.76265 0.0
C501 C 0.53629 0.01391 0.77469 0.0
C502 C 0.54291 0.01311 0.81033 0.0
C503 C 0.56953 0.02549 0.82143 0.0
C504 C 0.58967 0.0385 0.79686 0.0
C505 C 0.58372 0.03831 0.76093 0.0
C506 C 0.55693 0.02626 0.74993 0.0
H507 H 0.03693 0.49986 0.82074 0.0
H508 H 0.99757 0.47187 0.7195 0.0
H509 H 0.99341 0.41656 0.7971 0.0
H510 H 0.04908 0.52961 0.76758 0.0
H511 H 0.02835 0.51847 0.72901 0.0
H512 H 0.01608 0.52282 0.82798 0.0
H513 H 0.98643 0.57561 0.81038 0.0
H514 H 0.01204 0.54784 0.7221 0.0
C515 C 0.02385 0.48376 0.8031 0.0
C516 C 0.01512 0.45759 0.81316 0.0
C517 C 0.01677 0.48923 0.76985 0.0
C518 C 1.00195 0.46796 0.74589 0.0
C519 C 0.99359 0.4417 0.75569 0.0
C520 C 0.99981 0.4368 0.78951 0.0
C521 C 0.02808 0.51778 0.75836 0.0
C522 C 0.01351 0.5314 0.77275 0.0
C523 C 0.01005 0.53282 0.80948 0.0
C524 C 0.99973 0.54826 0.82291 0.0
C525 C 0.99333 0.56278 0.79978 0.0
C526 C 0.99818 0.56315 0.76364 0.0
C527 C 0.00763 0.54696 0.74998 0.0
H528 H 0.50232 0.48044 0.831 0.0
H529 H 0.49735 0.44482 0.72895 0.0
H530 H 0.42773 0.41791 0.79152 0.0
H531 H 0.54058 0.47146 0.79722 0.0
H532 H 0.5398 0.47555 0.75104 0.0
H533 H 0.54447 0.50744 0.83961 0.0
H534 H 0.59215 0.58585 0.80028 0.0
H535 H 0.55912 0.51936 0.72806 0.0
C536 C 0.49083 0.46736 0.80958 0.0
C537 C 0.46352 0.45009 0.81466 0.0
C538 C 0.50343 0.46616 0.7785 0.0
C539 C 0.48792 0.44745 0.752 0.0
C540 C 0.46054 0.43056 0.75648 0.0
C541 C 0.44849 0.43235 0.7874 0.0
C542 C 0.53359 0.48013 0.77664 0.0
C543 C 0.54792 0.50997 0.78274 0.0
C544 C 0.55199 0.52056 0.81733 0.0
C545 C 0.56685 0.54804 0.82355 0.0
C546 C 0.57894 0.56487 0.79508 0.0
C547 C 0.57679 0.5548 0.76071 0.0
C548 C 0.56065 0.52733 0.75449 0.0
H549 H 0.71389 0.88153 0.52032 0.0
H550 H 0.73601 0.90774 0.62825 0.0
H551 H 0.69426 0.93683 0.5664 0.0
H552 H 0.7562 0.88524 0.55543 0.0
H553 H 0.75264 0.88202 0.60194 0.0
H554 H 0.72158 0.84877 0.51467 0.0
H555 H 0.69025 0.77087 0.55633 0.0
H556 H 0.72842 0.83854 0.62615 0.0
C557 C 0.71322 0.89228 0.54319 0.0
C558 C 0.70179 0.90846 0.53971 0.0
C559 C 0.7251 0.89122 0.5752 0.0
C560 C 0.72567 0.90706 0.60401 0.0
C561 C 0.71405 0.9231 0.601 0.0
C562 C 0.70183 0.92329 0.56909 0.0
C563 C 0.74117 0.87718 0.57668 0.0
C564 C 0.72487 0.84725 0.5715 0.0
C565 C 0.71665 0.83607 0.53732 0.0
C566 C 0.70325 0.80845 0.53189 0.0
C567 C 0.6989 0.79205 0.56079 0.0
C568 C 0.70821 0.80263 0.59466 0.0
C569 C 0.7208 0.83025 0.6001 0.0
H570 H 0.21184 0.85433 0.52946 0.0
H571 H 0.2154 0.87583 0.6395 0.0
H572 H 0.25186 0.93618 0.56109 0.0
H573 H 0.20345 0.82192 0.58016 0.0
H574 H 0.19713 0.8299 0.62327 0.0
H575 H 0.17167 0.81861 0.52851 0.0
H576 H 0.09022 0.78023 0.5594 0.0
H577 H 0.15173 0.81194 0.63893 0.0
C578 C 0.21693 0.86916 0.55001 0.0
C579 C 0.23143 0.89604 0.54113 0.0
C580 C 0.20972 0.86152 0.58527 0.0
C581 C 0.21914 0.88134 0.612 0.0
C582 C 0.23439 0.90828 0.60323 0.0
C583 C 0.23958 0.91541 0.56776 0.0
C584 C 0.1947 0.83235 0.59463 0.0
C585 C 0.1654 0.81892 0.58483 0.0
C586 C 0.15719 0.81333 0.54913 0.0
C587 C 0.13014 0.79999 0.53984 0.0
C588 C 0.11116 0.79172 0.56641 0.0
C589 C 0.11876 0.79554 0.60203 0.0
C590 C 0.14589 0.80945 0.6113 0.0
H591 H 0.17766 0.30762 0.51957 0.0
H592 H 0.18414 0.29485 0.63012 0.0
H593 H 0.25379 0.33213 0.56609 0.0
H594 H 0.13972 0.26994 0.55665 0.0
H595 H 0.14146 0.27402 0.60332 0.0
H596 H 0.13999 0.30684 0.51843 0.0
H597 H 0.08928 0.33326 0.56135 0.0
H598 H 0.12008 0.29579 0.62864 0.0
C599 C 0.18965 0.31066 0.54287 0.0
C600 C 0.21731 0.32247 0.53931 0.0
C601 C 0.17741 0.30137 0.57577 0.0
C602 C 0.19334 0.30332 0.60514 0.0
C603 C 0.22097 0.31462 0.60181 0.0
C604 C 0.23272 0.32471 0.56911 0.0
C605 C 0.14734 0.28519 0.57818 0.0
C606 C 0.13356 0.30134 0.57455 0.0
C607 C 0.13107 0.31038 0.54116 0.0
C608 C 0.11562 0.32245 0.5363 0.0
C609 C 0.10255 0.32547 0.56534 0.0
C610 C 0.10383 0.31576 0.59861 0.0
C611 C 0.11964 0.30398 0.60323 0.0
C612 C 0.99941 0.42364 0.12472 0.0
C613 C 0.01963 0.43574 0.09983 0.0
H614 H 0.98621 0.42564 0.17659 0.0
C615 C 0.04152 0.46099 0.10748 0.0
H616 H 0.98216 0.40436 0.11935 0.0
C617 C 0.04403 0.47309 0.14046 0.0
C618 C 0.02458 0.46018 0.16622 0.0
H619 H 0.05738 0.47084 0.08865 0.0
H620 H 0.06189 0.49175 0.14644 0.0
C621 C 1.00178 0.43583 0.15747 0.0
C622 C 0.59529 0.57496 0.12215 0.0
C623 C 0.59 0.59265 0.10371 0.0
H624 H 0.58699 0.55067 0.16789 0.0
C625 C 0.57044 0.59793 0.11632 0.0
H626 H 0.61016 0.57043 0.11286 0.0
C627 C 0.55743 0.58685 0.14787 0.0
C628 C 0.56329 0.56979 0.1668 0.0
H629 H 0.56597 0.61149 0.10258 0.0
H630 H 0.54341 0.59225 0.15811 0.0
C631 C 0.58186 0.56344 0.15332 0.0
C632 C 0.41889 0.9702 0.09727 0.0
C633 C 0.41622 0.99278 0.0944 0.0
H634 H 0.42858 0.94675 0.13063 0.0
C635 C 0.42399 0.0107 0.12304 0.0
H636 H 0.41307 0.95604 0.07559 0.0
C637 C 0.43325 0.00558 0.15444 0.0
C638 C 0.43477 0.98235 0.15796 0.0
H639 H 0.42237 0.02839 0.12147 0.0
H640 H 0.43866 0.01954 0.17629 0.0
C641 C 0.428 0.96499 0.12874 0.0
C642 C 0.4473 0.03544 0.90736 0.0
C643 C 0.42571 0.01046 0.91576 0.0
H644 H 0.47748 0.05837 0.86975 0.0
C645 C 0.41963 0.98859 0.89363 0.0
H646 H 0.45246 0.05266 0.92391 0.0
C647 C 0.43443 0.99179 0.86319 0.0
C648 C 0.45526 0.01697 0.85412 0.0
H649 H 0.40319 0.96909 0.89957 0.0
H650 H 0.42883 0.97485 0.84586 0.0
C651 C 0.46173 0.03872 0.87658 0.0
C652 C 0.0184 0.45129 0.912 0.0
C653 C 0.02684 0.43255 0.9144 0.0
H654 H 0.00845 0.47428 0.87777 0.0
C655 C 0.03421 0.42447 0.88357 0.0
H656 H 0.01273 0.45798 0.93541 0.0
C657 C 0.03167 0.43373 0.85073 0.0
C658 C 0.02192 0.45138 0.84815 0.0
H659 H 0.04091 0.41018 0.88463 0.0
H660 H 0.03654 0.42643 0.82718 0.0
C661 C 0.01609 0.46074 0.87912 0.0
C662 C 0.58337 0.59716 0.89885 0.0
C663 C 0.59261 0.58665 0.92485 0.0
H664 H 0.56706 0.59263 0.84678 0.0
C665 C 0.59035 0.56174 0.91893 0.0
H666 H 0.58458 0.61617 0.90287 0.0
C667 C 0.58053 0.54834 0.88667 0.0
C668 C 0.57265 0.55956 0.85986 0.0
H669 H 0.59725 0.55313 0.93861 0.0
H670 H 0.58049 0.52995 0.8821 0.0
C671 C 0.57336 0.58368 0.86676 0.0
C672 C 0.02288 0.57714 0.91422 0.0
C673 C 0.99932 0.57422 0.92842 0.0
H674 H 0.04125 0.57026 0.8695 0.0
C675 C 0.9753 0.559 0.90969 0.0
H676 H 0.04164 0.58862 0.92818 0.0
C677 C 0.97513 0.54859 0.87627 0.0
C678 C 0.99888 0.55283 0.8612 0.0
H679 H 0.9568 0.55627 0.92002 0.0
H680 H 0.95665 0.53842 0.86136 0.0
C681 C 0.02264 0.5664 0.88089 0.0
C682 C 0.41216 0.43157 0.88655 0.0
C683 C 0.42605 0.42993 0.91596 0.0
H684 H 0.41339 0.44022 0.83148 0.0
C685 C 0.45319 0.43846 0.91283 0.0
H686 H 0.39127 0.42536 0.8883 0.0
C687 C 0.46577 0.44668 0.88039 0.0
C688 C 0.45156 0.4468 0.85027 0.0
H689 H 0.46449 0.43755 0.93508 0.0
H690 H 0.48621 0.45131 0.87859 0.0
C691 C 0.42483 0.44002 0.85403 0.0
C692 C 0.604 0.04237 0.91031 0.0
C693 C 0.59956 0.01745 0.92104 0.0
H694 H 0.59779 0.06439 0.86996 0.0
C695 C 0.58289 0.99486 0.90043 0.0
H696 H 0.61676 0.06011 0.92572 0.0
C697 C 0.57151 0.99728 0.86906 0.0
C698 C 0.577 0.02236 0.8576 0.0
H699 H 0.57901 0.9754 0.90824 0.0
H700 H 0.55951 0.97976 0.85287 0.0
C701 C 0.59307 0.04484 0.87862 0.0
C702 C 0.59687 0.02023 0.12553 0.0
C703 C 0.58802 1.00234 0.09682 0.0
H704 H 0.58944 0.02804 0.1783 0.0
C705 C 0.56305 0.97914 0.09845 0.0
H706 H 0.6159 0.03841 0.12484 0.0
C707 C 0.54799 0.97307 0.12912 0.0
C708 C 0.55756 0.99018 0.15871 0.0
H709 H 0.55565 0.96502 0.07663 0.0
H710 H 0.52964 0.95424 0.13031 0.0
C711 C 0.58172 0.01427 0.15611 0.0
C712 C 0.01079 0.56136 0.11188 0.0
C713 C 0.99246 0.57008 0.10708 0.0
H714 H 0.03149 0.55051 0.14878 0.0
C715 C 0.97686 0.5693 0.1357 0.0
H716 H 0.02295 0.56154 0.09024 0.0
C717 C 0.98149 0.56259 0.1693 0.0
C718 C 1.00192 0.55675 0.17489 0.0
H719 H 0.96232 0.57558 0.13268 0.0
H720 H 0.97039 0.56385 0.19136 0.0
C721 C 0.01551 0.55479 0.14548 0.0
C722 C 0.42163 0.4066 0.13352 0.0
C723 C 0.42697 0.42293 0.10412 0.0
H724 H 0.42736 0.40462 0.189 0.0
C725 C 0.44412 0.45047 0.10818 0.0
H726 H 0.40866 0.38532 0.13119 0.0
C727 C 0.45495 0.46155 0.14137 0.0
C728 C 0.44856 0.44527 0.17101 0.0
H729 H 0.44869 0.46353 0.08588 0.0
H730 H 0.46745 0.48287 0.14412 0.0
C731 C 0.43228 0.41766 0.16661 0.0
C732 C 0.71072 0.79222 0.4371 0.0
C733 C 0.68769 0.76731 0.43224 0.0
H734 H 0.73375 0.82486 0.47251 0.0
C735 C 0.66837 0.75774 0.4586 0.0
H736 H 0.72591 0.80016 0.41711 0.0
C737 C 0.67264 0.77212 0.49003 0.0
C738 C 0.69645 0.79623 0.49594 0.0
H739 H 0.65027 0.73878 0.45538 0.0
H740 H 0.65772 0.76385 0.51035 0.0
C741 C 0.7151 0.80652 0.4687 0.0
C742 C 0.24644 0.93337 0.45553 0.0
C743 C 0.26338 0.92597 0.43912 0.0
H744 H 0.22301 0.92956 0.50092 0.0
C745 C 0.26807 0.90704 0.45526 0.0
H746 H 0.24245 0.94789 0.44367 0.0
C747 C 0.25647 0.89617 0.48766 0.0
C748 C 0.24039 0.90439 0.50465 0.0
H749 H 0.28094 0.9009 0.44307 0.0
H750 H 0.26094 0.88216 0.50014 0.0
C751 C 0.23527 0.92287 0.48817 0.0
C752 C 0.09506 0.31441 0.43981 0.0
C753 C 0.09122 0.33614 0.43499 0.0
H754 H 0.10552 0.2929 0.47559 0.0
C755 C 0.09812 0.35485 0.46251 0.0
H756 H 0.08994 0.29968 0.41903 0.0
C757 C 0.1075 0.35121 0.49484 0.0
C758 C 0.10998 0.32868 0.50037 0.0
H759 H 0.09559 0.37192 0.45942 0.0
H760 H 0.11208 0.36564 0.51588 0.0
C761 C 0.10424 0.31066 0.47218 0.0
C762 C 0.11698 0.36812 0.24413 0.0
C763 C 0.09612 0.34343 0.25494 0.0
H764 H 0.14538 0.38956 0.20393 0.0
C765 C 0.0897 0.32063 0.23462 0.0
H766 H 0.12235 0.38601 0.25927 0.0
C767 C 0.10335 0.32263 0.20346 0.0
C768 C 0.12331 0.34749 0.1919 0.0
H769 H 0.0738 0.30135 0.24245 0.0
H770 H 0.09745 0.30497 0.18751 0.0
C771 C 0.13024 0.37017 0.21265 0.0
C772 C 0.65446 0.75679 0.24075 0.0
C773 C 0.67879 0.76022 0.25324 0.0
H774 H 0.63411 0.76424 0.19891 0.0
C775 C 0.70206 0.7763 0.23438 0.0
H776 H 0.63623 0.74449 0.25479 0.0
C777 C 0.70087 0.7881 0.20295 0.0
C778 C 0.67637 0.78363 0.18975 0.0
H779 H 0.72107 0.77937 0.24357 0.0
H780 H 0.71887 0.79965 0.18809 0.0
C781 C 0.65322 0.76816 0.209 0.0
C782 C 0.23898 0.90128 0.24712 0.0
C783 C 0.26468 0.92353 0.24972 0.0
H784 H 0.20945 0.87076 0.21331 0.0
C785 C 0.28091 0.93133 0.21995 0.0
H786 H 0.22616 0.89472 0.26987 0.0
C787 C 0.27176 0.9173 0.1882 0.0
C788 C 0.24579 0.89548 0.18491 0.0
H789 H 0.30102 0.948 0.22135 0.0
H790 H 0.28532 0.92354 0.16623 0.0
C791 C 0.22953 0.88745 0.21488 0.0
C792 C 0.69481 0.92457 0.24025 0.0
C793 C 0.67103 0.91972 0.25602 0.0
H794 H 0.71289 0.91737 0.19559 0.0
C795 C 0.6467 0.90199 0.23951 0.0
H796 H 0.71382 0.93806 0.25254 0.0
C797 C 0.64621 0.89047 0.20677 0.0
C798 C 0.67003 0.89597 0.19056 0.0
H799 H 0.62809 0.89796 0.25111 0.0
H800 H 0.62732 0.87789 0.19359 0.0
C801 C 0.69429 0.91258 0.20792 0.0
C802 C 0.08377 0.7793 0.22814 0.0
C803 C 0.09758 0.77766 0.25765 0.0
H804 H 0.08417 0.78514 0.17236 0.0
C805 C 0.12449 0.78521 0.25428 0.0
H806 H 0.06311 0.77392 0.23005 0.0
C807 C 0.13648 0.79141 0.22122 0.0
C808 C 0.12181 0.79029 0.19095 0.0
H809 H 0.13572 0.78434 0.27664 0.0
H810 H 0.15647 0.79473 0.21903 0.0
C811 C 0.09583 0.78569 0.19511 0.0
C812 C 0.24667 0.32344 0.23823 0.0
C813 C 0.26376 0.34641 0.25793 0.0
H814 H 0.22329 0.30748 0.19082 0.0
C815 C 0.26923 0.37127 0.24541 0.0
H816 H 0.24205 0.30404 0.24737 0.0
C817 C 0.25879 0.37322 0.21298 0.0
C818 C 0.24221 0.35032 0.19294 0.0
H819 H 0.28235 0.3893 0.26005 0.0
H820 H 0.26412 0.39266 0.20314 0.0
C821 C 0.23578 0.32537 0.20611 0.0
C822 C 0.23184 0.31644 0.44321 0.0
C823 C 0.25785 0.33788 0.44003 0.0
H824 H 0.19874 0.29459 0.47698 0.0
C825 C 0.26937 0.35577 0.46852 0.0
H826 H 0.2224 0.30231 0.42166 0.0
C827 C 0.25559 0.35163 0.50012 0.0
C828 C 0.23008 0.32935 0.50402 0.0
H829 H 0.2893 0.37262 0.46672 0.0
H830 H 0.26522 0.36548 0.52188 0.0
C831 C 0.21814 0.31215 0.47487 0.0
C832 C 0.70167 0.92244 0.44204 0.0
C833 C 0.68087 0.928 0.4395 0.0
H834 H 0.72486 0.91241 0.4755 0.0
C835 C 0.66539 0.92473 0.46935 0.0
H836 H 0.714 0.92483 0.41949 0.0
C837 C 0.67126 0.91702 0.50149 0.0
C838 C 0.69295 0.91272 0.50455 0.0
H839 H 0.64909 0.92868 0.46807 0.0
H840 H 0.65919 0.91503 0.52417 0.0
C841 C 0.70774 0.91505 0.47419 0.0
C842 C 0.08978 0.78558 0.45575 0.0
C843 C 0.09728 0.76954 0.43691 0.0
H844 H 0.09461 0.80804 0.50309 0.0
C845 C 0.11759 0.76573 0.45067 0.0
H846 H 0.07427 0.78898 0.44575 0.0
C847 C 0.1295 0.77701 0.48333 0.0
C848 C 0.12106 0.792 0.50286 0.0
H849 H 0.12386 0.75358 0.4366 0.0
H850 H 0.14439 0.77297 0.49408 0.0
C851 C 0.10144 0.79656 0.48849 0.0
C852 C 0.3451 0.1136 0.77392 0.0
C853 C 0.34837 0.09131 0.77111 0.0
H854 H 0.3453 0.14323 0.8084 0.0
C855 C 0.35556 0.08246 0.80119 0.0
H856 H 0.33981 0.12096 0.75091 0.0
C857 C 0.35949 0.09554 0.83344 0.0
C858 C 0.3555 0.11738 0.83692 0.0
H859 H 0.35888 0.06577 0.79967 0.0
H860 H 0.36601 0.08858 0.85565 0.0
C861 C 0.34845 0.12645 0.80668 0.0
C862 C 0.9486 0.26885 0.80675 0.0
C863 C 0.93224 0.26139 0.77653 0.0
H864 H 0.95067 0.26614 0.86284 0.0
C865 C 0.90487 0.24342 0.77982 0.0
H866 H 0.96976 0.28248 0.80504 0.0
C867 C 0.89391 0.23393 0.81302 0.0
C868 C 0.91016 0.24251 0.84337 0.0
H869 H 0.89181 0.23721 0.75688 0.0
H870 H 0.87267 0.22083 0.81514 0.0
C871 C 0.93766 0.25954 0.83982 0.0
C872 C 0.76474 0.68878 0.79143 0.0
C873 C 0.75553 0.66924 0.7647 0.0
H874 H 0.7813 0.70024 0.84357 0.0
C875 C 0.75803 0.64668 0.76936 0.0
H876 H 0.76332 0.7065 0.78839 0.0
C877 C 0.76821 0.64303 0.80097 0.0
C878 C 0.77616 0.66192 0.82848 0.0
H879 H 0.7512 0.63133 0.7491 0.0
H880 H 0.76852 0.62475 0.80452 0.0
C881 C 0.77503 0.68519 0.82297 0.0
C882 C 0.78287 0.68441 0.58246 0.0
C883 C 0.75495 0.67104 0.58415 0.0
H884 H 0.8169 0.69583 0.54968 0.0
C885 C 0.73988 0.65699 0.55432 0.0
H886 H 0.79498 0.69525 0.60521 0.0
C887 C 0.75238 0.65732 0.52293 0.0
C888 C 0.7802 0.67161 0.52072 0.0
H889 H 0.71838 0.64633 0.55488 0.0
H890 H 0.74025 0.64704 0.49992 0.0
C891 C 0.79543 0.68461 0.55092 0.0
C892 C 0.32127 0.0837 0.56643 0.0
C893 C 0.34614 0.09216 0.58244 0.0
H894 H 0.30016 0.08646 0.52162 0.0
C895 C 0.36916 0.11185 0.56612 0.0
H896 H 0.30318 0.0686 0.57844 0.0
C897 C 0.36733 0.12238 0.53384 0.0
C898 C 0.34251 0.11309 0.51724 0.0
H899 H 0.38856 0.11881 0.57801 0.0
H900 H 0.38537 0.13695 0.52116 0.0
C901 C 0.3195 0.09392 0.534 0.0
C902 C 0.91451 0.26452 0.56315 0.0
C903 C 0.92194 0.25321 0.59029 0.0
H904 H 0.90013 0.26058 0.50997 0.0
C905 C 0.91797 0.22752 0.58545 0.0
H906 H 0.91712 0.28419 0.5663 0.0
C907 C 0.90838 0.21407 0.55326 0.0
C908 C 0.9025 0.22602 0.52527 0.0
H909 H 0.92338 0.21823 0.60601 0.0
H910 H 0.90713 0.19501 0.5497 0.0
C911 C 0.90482 0.25101 0.53095 0.0
C912 C 0.35907 0.25011 0.57309 0.0
C913 C 0.3355 0.24702 0.58747 0.0
H914 H 0.3772 0.24223 0.52904 0.0
C915 C 0.31139 0.23146 0.56913 0.0
H916 H 0.37791 0.26187 0.58678 0.0
C917 C 0.31103 0.22035 0.53617 0.0
C918 C 0.3347 0.22425 0.52118 0.0
H919 H 0.2929 0.22865 0.57965 0.0
H920 H 0.29235 0.20936 0.52186 0.0
C921 C 0.35864 0.23867 0.54028 0.0
C922 C 0.78156 0.11728 0.58172 0.0
C923 C 0.75824 0.09264 0.58549 0.0
H924 H 0.81147 0.14425 0.54648 0.0
C925 C 0.74735 0.07586 0.55594 0.0
H926 H 0.79042 0.13051 0.60427 0.0
C927 C 0.75979 0.08319 0.5234 0.0
C928 C 0.78304 0.10796 0.51911 0.0
H929 H 0.72971 0.05651 0.55824 0.0
H930 H 0.75139 0.06892 0.50186 0.0
C931 C 0.79372 0.12501 0.54873 0.0
C932 C 0.93816 0.70735 0.5754 0.0
C933 C 0.93198 0.68301 0.59058 0.0
H934 H 0.93231 0.7269 0.53144 0.0
C935 C 0.91287 0.65929 0.57401 0.0
H936 H 0.95277 0.72595 0.58762 0.0
C937 C 0.90076 0.6599 0.54226 0.0
C938 C 0.90787 0.68422 0.52632 0.0
H939 H 0.90763 0.64027 0.58525 0.0
H940 H 0.88678 0.64135 0.52931 0.0
C941 C 0.92641 0.70793 0.54339 0.0
C942 C 0.90021 0.65535 0.7709 0.0
C943 C 0.92588 0.67746 0.76815 0.0
H944 H 0.86721 0.63222 0.80433 0.0
C945 C 0.93667 0.69526 0.79687 0.0
H946 H 0.89133 0.6413 0.74916 0.0
C947 C 0.92268 0.69021 0.82844 0.0
C948 C 0.89767 0.66721 0.83195 0.0
H949 H 0.95633 0.71256 0.79545 0.0
H950 H 0.93187 0.70381 0.85056 0.0
C951 C 0.88626 0.65026 0.80247 0.0
C952 C 0.3526 0.23652 0.77423 0.0
C953 C 0.3334 0.24422 0.77066 0.0
H954 H 0.37416 0.22556 0.80931 0.0
C955 C 0.31785 0.24235 0.79984 0.0
H956 H 0.3649 0.23777 0.75215 0.0
C957 C 0.32264 0.23458 0.83261 0.0
C958 C 0.34349 0.22913 0.83704 0.0
H959 H 0.30268 0.24786 0.79768 0.0
H960 H 0.31079 0.23403 0.85486 0.0
C961 C 0.35776 0.22927 0.8071 0.0
C962 C 0.76426 0.08016 0.80666 0.0
C963 C 0.7678 0.09579 0.777 0.0
H964 H 0.77119 0.0795 0.86206 0.0
C965 C 0.78349 0.1236 0.78034 0.0
H966 H 0.7525 0.05872 0.8049 0.0
C967 C 0.79434 0.13555 0.81321 0.0
C968 C 0.78946 0.11984 0.84317 0.0
H969 H 0.78668 0.13615 0.75782 0.0
H970 H 0.80543 0.15699 0.81553 0.0
C971 C 0.77496 0.09205 0.83937 0.0
C972 C 0.08596 0.36191 0.02635 0.0
C973 C 0.08621 0.38567 0.03426 0.0
H974 H 0.10161 0.33654 0.03925 0.0
C975 C 0.10596 0.40426 0.05728 0.0
H976 H 0.07104 0.34726 0.0086 0.0
C977 C 0.12342 0.39815 0.07464 0.0
C978 C 0.12161 0.37342 0.06916 0.0
H979 H 0.10685 0.42285 0.06368 0.0
H980 H 0.13714 0.412 0.09422 0.0
C981 C 0.10359 0.35585 0.04364 0.0
C982 C 0.62717 0.71303 0.04373 0.0
C983 C 0.64814 0.70815 0.03752 0.0
H984 H 0.61589 0.73993 0.06617 0.0
C985 C 0.67439 0.7287 0.04306 0.0
H986 H 0.60675 0.69742 0.03974 0.0
C987 C 0.67957 0.75318 0.0568 0.0
C988 C 0.65859 0.75732 0.0659 0.0
H989 H 0.69089 0.72546 0.03825 0.0
H990 H 0.6999 0.76809 0.06317 0.0
C991 C 0.63236 0.73736 0.05844 0.0
C992 C 0.28344 0.94615 0.03556 0.0
C993 C 0.30264 0.94036 0.02303 0.0
H994 H 0.24714 0.93211 0.06367 0.0
C995 C 0.29719 0.91398 0.02339 0.0
H996 H 0.28693 0.96625 0.03501 0.0
C997 C 0.27442 0.89441 0.04012 0.0
C998 C 0.25675 0.90097 0.05636 0.0
H999 H 0.31162 0.90898 0.01367 0.0
H1000 H 0.27214 0.87493 0.04349 0.0
C1001 C 0.26054 0.92656 0.05169 0.0
C1002 C 0.34184 0.06154 0.97996 0.0
C1003 C 0.3671 0.06643 0.99039 0.0
H1004 H 0.31923 0.07738 0.9567 0.0
C1005 C 0.38835 0.09269 0.99157 0.0
H1006 H 0.32498 0.04153 0.97957 0.0
C1007 C 0.3851 0.11325 0.97815 0.0
C1008 C 0.36048 0.10777 0.96377 0.0
H1009 H 0.40797 0.097 -0.00011 0.0
H1010 H 0.40247 0.13275 0.97559 0.0
C1011 C 0.33847 0.08211 0.96729 0.0
C1012 C 0.94984 0.29776 0.00442 0.0
C1013 C 0.95059 0.32153 0.99551 0.0
H1014 H 0.93185 0.2559 0.99401 0.0
C1015 C 0.93004 0.32021 0.97433 0.0
H1016 H 0.96532 0.29811 0.02083 0.0
C1017 C 0.9108 0.29606 0.95933 0.0
C1018 C 0.91168 0.27273 0.96526 0.0
H1019 H 0.92989 0.33811 0.96725 0.0
H1020 H 0.89659 0.29599 0.94065 0.0
C1021 C 0.9305 0.27352 0.98939 0.0
C1022 C 0.72758 0.66956 0.97519 0.0
C1023 C 0.70882 0.64503 0.98909 0.0
H1024 H 0.76352 0.69117 0.94629 0.0
C1025 C 0.71429 0.62412 0.98905 0.0
H1026 H 0.72408 0.68616 0.97545 0.0
C1027 C 0.7368 0.62687 0.97185 0.0
C1028 C 0.75424 0.65069 0.95489 0.0
H1029 H 0.70017 0.60502 -0.00022 0.0
H1030 H 0.73924 0.60969 0.96922 0.0
C1031 C 0.75023 0.67246 0.95866 0.0
C1032 C 0.9158 0.61679 0.98946 0.0
C1033 C 0.94267 0.63661 0.99241 0.0
H1034 H 0.87763 0.6054 0.967 0.0
C1035 C 0.95055 0.66208 0.97986 0.0
H1036 H 0.90914 0.59699 -0.00096 0.0
C1037 C 0.9324 0.66705 0.96211 0.0
C1038 C 0.90608 0.64655 0.95608 0.0
H1039 H 0.97105 0.67786 0.98221 0.0
H1040 H 0.93938 0.68654 0.95115 0.0
C1041 C 0.89767 0.62169 0.97135 0.0
C1042 C 0.35198 0.29358 0.98257 0.0
C1043 C 0.3777 0.31521 0.9883 0.0
H1044 H 0.32827 0.25436 0.96079 0.0
C1045 C 0.39962 0.31205 0.98096 0.0
H1046 H 0.33468 0.29532 0.98813 0.0
C1047 C 0.39589 0.28839 0.9657 0.0
C1048 C 0.3702 0.26762 0.95732 0.0
H1049 H 0.41969 0.32833 0.98525 0.0
H1050 H 0.41313 0.28712 0.95805 0.0
C1051 C 0.34828 0.27008 0.96708 0.0
C1052 C 0.71903 0.10075 0.98849 0.0
C1053 C 0.7141 0.07476 0.99325 0.0
H1054 H 0.74578 0.13932 0.9677 0.0
C1055 C 0.73455 0.06917 0.98704 0.0
H1056 H 0.70351 0.10549 0.99298 0.0
C1057 C 0.75886 0.08866 0.97388 0.0
C1058 C 0.763 0.11395 0.96609 0.0
H1059 H 0.73129 0.04933 0.99072 0.0
H1060 H 0.77359 0.08329 0.96686 0.0
C1061 C 0.74324 0.12016 0.97443 0.0
C1062 C 0.67834 0.95831 0.05073 0.0
C1063 C 0.6533 0.95147 0.0367 0.0
H1064 H 0.70181 0.94497 0.07782 0.0
C1065 C 0.63324 0.92462 0.03543 0.0
H1066 H 0.69417 0.97883 0.05184 0.0
C1067 C 0.63757 0.90523 0.05074 0.0
C1068 C 0.66223 0.91245 0.06646 0.0
H1069 H 0.61373 0.9189 0.02487 0.0
H1070 H 0.62127 0.88499 0.05222 0.0
C1071 C 0.68282 0.93894 0.0652 0.0
C1072 C 0.07255 0.68813 0.09165 0.0
C1073 C 0.06617 0.68611 0.05555 0.0
H1074 H 0.09632 0.71293 0.13444 0.0
C1075 C 0.08105 0.70821 0.03398 0.0
H1076 H 0.06179 0.67139 0.1089 0.0
C1077 C 0.10095 0.73237 0.04885 0.0
C1078 C 0.10617 0.7346 0.0854 0.0
H1079 H 0.07661 0.70714 0.006 0.0
H1080 H 0.11137 0.74951 0.03217 0.0
C1081 C 0.09236 0.71196 0.1063 0.0
C1082 C 0.3163 0.40559 0.05809 0.0
C1083 C 0.31611 0.38746 0.0332 0.0
H1084 H 0.29434 0.41326 0.097 0.0
C1085 C 0.29178 0.36469 0.02435 0.0
H1086 H 0.33467 0.42342 0.06529 0.0
C1087 C 0.26862 0.35894 0.04246 0.0
C1088 C 0.26943 0.37582 0.06979 0.0
H1089 H 0.29097 0.3504 0.00516 0.0
H1090 H 0.25065 0.34022 0.03709 0.0
C1091 C 0.2932 0.39981 0.07623 0.0
C1092 C 0.73172 0.67548 0.37489 0.0
C1093 C 0.73937 0.70174 0.36644 0.0
H1094 H 0.74323 0.64936 0.39815 0.0
C1095 C 0.76621 0.72153 0.37015 0.0
H1096 H 0.71119 0.65985 0.37201 0.0
C1097 C 0.78454 0.71552 0.3855 0.0
C1098 C 0.77633 0.68954 0.39623 0.0
H1099 H 0.77253 0.74194 0.36387 0.0
H1100 H 0.8045 0.73144 0.39147 0.0
C1101 C 0.7501 0.6694 0.38933 0.0
C1102 C 0.29202 0.04232 0.3727 0.0
C1103 C 0.31319 0.03872 0.36257 0.0
H1104 H 0.28074 0.068 0.39892 0.0
C1105 C 0.33923 0.06034 0.36476 0.0
H1106 H 0.27178 0.02589 0.37146 0.0
C1107 C 0.34422 0.08458 0.37923 0.0
C1108 C 0.32331 0.08743 0.39245 0.0
H1109 H 0.35588 0.05807 0.35703 0.0
H1110 H 0.36462 0.1003 0.38306 0.0
C1111 C 0.29709 0.06642 0.3881 0.0
C1112 C 0.95715 0.28253 0.38059 0.0
C1113 C 0.97641 0.27683 0.36811 0.0
H1114 H 0.92043 0.26823 0.4077 0.0
C1115 C 0.97126 0.25055 0.36906 0.0
H1116 H 0.9604 0.30253 0.37964 0.0
C1117 C 0.9484 0.23088 0.38551 0.0
C1118 C 0.9303 0.23721 0.4009 0.0
H1119 H 0.98578 0.24563 0.35944 0.0
H1120 H 0.94603 0.21135 0.3887 0.0
C1121 C 0.93421 0.26287 0.3965 0.0
C1122 C 0.01296 0.39488 0.30492 0.0
C1123 C 0.03731 0.40089 0.32054 0.0
H1124 H 0.99107 0.40955 0.27685 0.0
C1125 C 0.05726 0.42762 0.32464 0.0
H1126 H 0.99704 0.37449 0.30204 0.0
C1127 C 0.05387 0.44776 0.31002 0.0
C1128 C 0.03041 0.44142 0.2914 0.0
H1129 H 0.07615 0.4328 0.33689 0.0
H1130 H 0.07044 0.46793 0.31063 0.0
C1131 C 0.00945 0.41496 0.29079 0.0
C1132 C 0.61929 0.62384 0.31566 0.0
C1133 C 0.61545 0.64567 0.31936 0.0
H1134 H 0.60322 0.58382 0.29685 0.0
C1135 C 0.59054 0.64261 0.31071 0.0
H1136 H 0.63829 0.62568 0.32231 0.0
C1137 C 0.5706 0.61875 0.29561 0.0
C1138 C 0.57504 0.5974 0.29018 0.0
H1139 H 0.58716 0.65922 0.3132 0.0
H1140 H 0.55238 0.61749 0.28622 0.0
C1141 C 0.59915 0.59981 0.30157 0.0
C1142 C 0.37351 0.9427 0.31683 0.0
C1143 C 0.37253 0.96595 0.32363 0.0
H1144 H 0.39385 0.92544 0.29038 0.0
C1145 C 0.39422 0.99053 0.31409 0.0
H1146 H 0.35713 0.92349 0.324 0.0
C1147 C 0.41513 0.9916 0.29488 0.0
C1148 C 0.41488 0.96816 0.28522 0.0
H1149 H 0.39417 0.00882 0.31918 0.0
H1150 H 0.43054 0.01059 0.28536 0.0
C1151 C 0.39461 0.94381 0.29783 0.0
C1152 C 0.58154 0.94664 0.31584 0.0
C1153 C 0.60692 0.96919 0.31946 0.0
H1154 H 0.54262 0.93016 0.29265 0.0
C1155 C 0.61088 0.99381 0.3083 0.0
H1156 H 0.57795 0.92743 0.3244 0.0
C1157 C 0.59058 0.99548 0.29092 0.0
C1158 C 0.56606 0.97248 0.28378 0.0
H1159 H 0.63013 0.0116 0.31132 0.0
H1160 H 0.59472 0.01447 0.28066 0.0
C1161 C 0.56124 0.94824 0.29796 0.0
C1162 C 0.04294 0.63867 0.33098 0.0
C1163 C 0.05149 0.66101 0.3094 0.0
H1164 H 0.03078 0.59713 0.3331 0.0
C1165 C 0.0571 0.65914 0.27386 0.0
H1166 H 0.0386 0.63962 0.35855 0.0
C1167 C 0.05294 0.63522 0.25964 0.0
C1168 C 0.04282 0.61241 0.28045 0.0
H1169 H 0.0641 0.67605 0.25664 0.0
H1170 H 0.05675 0.63429 0.23184 0.0
C1171 C 0.0386 0.61445 0.31655 0.0
C1172 C 0.39817 0.39811 0.32138 0.0
C1173 C 0.37783 0.40401 0.32686 0.0
H1174 H 0.43667 0.41105 0.29998 0.0
C1175 C 0.38258 0.42961 0.31942 0.0
H1176 H 0.39506 0.37856 0.32707 0.0
C1177 C 0.40638 0.44815 0.30357 0.0
C1178 C 0.42595 0.44152 0.29601 0.0
H1179 H 0.36716 0.43459 0.32329 0.0
H1180 H 0.40872 0.46687 0.29493 0.0
C1181 C 0.42209 0.41678 0.30635 0.0
C1182 C 0.341 0.28527 0.37792 0.0
C1183 C 0.31501 0.27971 0.37064 0.0
H1184 H 0.36564 0.27078 0.3985 0.0
C1185 C 0.29382 0.25364 0.37434 0.0
H1186 H 0.35768 0.30519 0.37507 0.0
C1187 C 0.29839 0.23402 0.3882 0.0
C1188 C 0.32427 0.24007 0.39734 0.0
H1189 H 0.27359 0.24891 0.369 0.0
H1190 H 0.28162 0.21466 0.39389 0.0
C1191 C 0.3456 0.26554 0.39083 0.0
C1192 C 0.72905 0.05976 0.37239 0.0
C1193 C 0.73456 0.03981 0.36228 0.0
H1194 H 0.74385 0.09796 0.39674 0.0
C1195 C 0.76096 0.04528 0.36324 0.0
H1196 H 0.70893 0.05625 0.37119 0.0
C1197 C 0.78094 0.06906 0.37832 0.0
C1198 C 0.7748 0.08778 0.39228 0.0
H1199 H 0.76576 0.03028 0.35526 0.0
H1200 H 0.8005 0.0715 0.38227 0.0
C1201 C 0.74908 0.08371 0.38677 0.0
C1202 C 0.95775 0.68755 0.36777 0.0
C1203 C 0.97879 0.71391 0.36691 0.0
H1204 H 0.91877 0.66072 0.38694 0.0
C1205 C 0.97503 0.73416 0.38107 0.0
H1206 H 0.9601 0.67157 0.35699 0.0
C1207 C 0.95152 0.72788 0.39857 0.0
C1208 C 0.93117 0.70136 0.40129 0.0
H1209 H 0.99095 0.75464 0.38089 0.0
H1210 H 0.94986 0.74354 0.41181 0.0
C1211 C 0.93403 0.68135 0.38457 0.0
C1212 C 0.43818 0.07439 0.72061 0.0
C1213 C 0.41995 0.05577 0.69614 0.0
H1214 H 0.4686 0.083 0.75925 0.0
C1215 C 0.42206 0.03342 0.68721 0.0
H1216 H 0.43723 0.09191 0.72786 0.0
C1217 C 0.44026 0.02845 0.70506 0.0
C1218 C 0.45651 0.0457 0.73217 0.0
H1219 H 0.40836 0.01877 0.66836 0.0
H1220 H 0.43991 0.00996 0.69986 0.0
C1221 C 0.45623 0.06935 0.73852 0.0
C1222 C 0.9889 0.39334 0.68613 0.0
C1223 C 0.96722 0.36975 0.69852 0.0
H1224 H 0.01397 0.43533 0.69434 0.0
C1225 C 0.95088 0.37143 0.72435 0.0
H1226 H 1.00177 0.39269 0.66609 0.0
C1227 C 0.95777 0.39582 0.74024 0.0
C1228 C 0.98105 0.41899 0.73051 0.0
H1229 H 0.9339 0.35366 0.73423 0.0
H1230 H 0.9462 0.39623 0.76227 0.0
C1231 C 0.99576 0.41781 0.70202 0.0
C1232 C 0.63496 0.58653 0.69922 0.0
C1233 C 0.64088 0.61307 0.70078 0.0
H1234 H 0.60945 0.54684 0.71696 0.0
C1235 C 0.62241 0.61894 0.71577 0.0
H1236 H 0.6488 0.58144 0.68758 0.0
C1237 C 0.59961 0.59908 0.73174 0.0
C1238 C 0.59509 0.57304 0.73368 0.0
H1239 H 0.62623 0.63916 0.71675 0.0
H1240 H 0.58653 0.60451 0.74497 0.0
C1241 C 0.61227 0.56666 0.71571 0.0
C1242 C 0.6862 0.73869 0.64165 0.0
C1243 C 0.7107 0.74197 0.65297 0.0
H1244 H 0.66601 0.75608 0.61558 0.0
C1245 C 0.7334 0.76736 0.65191 0.0
H1246 H 0.66828 0.71946 0.6427 0.0
C1247 C 0.73207 0.78842 0.63635 0.0
C1248 C 0.70799 0.78435 0.62186 0.0
H1249 H 0.75252 0.77049 0.66072 0.0
H1250 H 0.75026 0.80713 0.63284 0.0
C1251 C 0.68483 0.75971 0.62644 0.0
C1252 C 0.26206 0.97424 0.6496 0.0
C1253 C 0.28668 0.97802 0.66144 0.0
H1254 H 0.22565 0.94851 0.62168 0.0
C1255 C 0.29118 0.95648 0.66027 0.0
H1256 H 0.25807 0.99052 0.65007 0.0
C1257 C 0.2723 0.93226 0.64495 0.0
C1258 C 0.24881 0.92935 0.6301 0.0
H1259 H 0.30995 0.95882 0.6693 0.0
H1260 H 0.27709 0.91663 0.64188 0.0
C1261 C 0.24341 0.95019 0.6336 0.0
C1262 C 0.05988 0.33389 0.65 0.0
C1263 C 0.03958 0.30873 0.66029 0.0
H1264 H 0.09676 0.35596 0.62298 0.0
C1265 C 0.04339 0.28685 0.65621 0.0
H1266 H 0.05766 0.35117 0.65307 0.0
C1267 C 0.06596 0.28967 0.63921 0.0
C1268 C 0.08501 0.31439 0.62592 0.0
H1269 H 0.02816 0.26724 0.66405 0.0
H1270 H 0.06736 0.27212 0.63387 0.0
C1271 C 0.08234 0.33667 0.63292 0.0
C1272 C 0.24906 0.28274 0.6607 0.0
C1273 C 0.27543 0.30354 0.66483 0.0
H1274 H 0.21073 0.27014 0.63773 0.0
C1275 C 0.2819 0.32921 0.65461 0.0
H1276 H 0.24345 0.26277 0.6685 0.0
C1277 C 0.26312 0.33345 0.63727 0.0
C1278 C 0.23752 0.31211 0.6298 0.0
H1279 H 0.30197 0.34571 0.6578 0.0
H1280 H 0.26919 0.35304 0.62734 0.0
C1281 C 0.23024 0.287 0.64332 0.0
C1282 C 0.6982 0.96533 0.66037 0.0
C1283 C 0.72335 0.9882 0.66433 0.0
H1284 H 0.67557 0.92641 0.63714 0.0
C1285 C 0.74583 0.98732 0.65282 0.0
H1286 H 0.68049 0.96536 0.66892 0.0
C1287 C 0.74299 0.96475 0.63526 0.0
C1288 C 0.71762 0.94285 0.62856 0.0
H1289 H 0.76547 0.00462 0.65554 0.0
H1290 H 0.76042 0.96526 0.62442 0.0
C1291 C 0.69535 0.94297 0.64233 0.0
C1292 C 0.05421 0.76879 0.65019 0.0
C1293 C 0.04926 0.74318 0.658 0.0
H1294 H 0.08079 0.80601 0.62602 0.0
C1295 C 0.06955 0.73712 0.65314 0.0
H1296 H 0.03883 0.7739 0.65358 0.0
C1297 C 0.09375 0.75573 0.63859 0.0
C1298 C 0.09787 0.78052 0.62804 0.0
H1299 H 0.06627 0.71755 0.65912 0.0
H1300 H 0.10839 0.74996 0.63289 0.0
C1301 C 0.07823 0.78721 0.63476 0.0
C1302 C 0.00845 0.62993 0.73903 0.0
C1303 C 0.98911 0.62348 0.71255 0.0
H1304 H 0.02682 0.61581 0.77502 0.0
C1305 C 0.97489 0.5972 0.69951 0.0
H1306 H 0.02 0.65004 0.7493 0.0
C1307 C 0.97884 0.57741 0.71444 0.0
C1308 C 0.99713 0.58382 0.74238 0.0
H1309 H 0.95993 0.59173 0.67897 0.0
H1310 H 0.96671 0.55701 0.7055 0.0
C1311 C 0.01246 0.61037 0.75365 0.0
C1312 C 0.40744 0.38264 0.69338 0.0
C1313 C 0.40518 0.35859 0.7043 0.0
H1314 H 0.42725 0.42494 0.70168 0.0
C1315 C 0.42414 0.35923 0.72803 0.0
H1316 H 0.39298 0.38267 0.67525 0.0
C1317 C 0.44398 0.38331 0.7423 0.0
C1318 C 0.44503 0.40714 0.73342 0.0
H1319 H 0.42291 0.341 0.73681 0.0
H1320 H 0.45737 0.38316 0.7622 0.0
C1321 C 0.42706 0.40678 0.70825 0.0
C1322 C 0.62935 0.03339 0.69533 0.0
C1323 C 0.65346 0.05665 0.70341 0.0
H1324 H 0.58787 0.00965 0.70672 0.0
C1325 C 0.65304 0.07613 0.72511 0.0
H1326 H 0.62901 0.01808 0.67849 0.0
C1327 C 0.62946 0.07129 0.74115 0.0
C1328 C 0.60582 0.04701 0.73558 0.0
H1329 H 0.67122 0.09432 0.73166 0.0
H1330 H 0.63009 0.08575 0.75993 0.0
C1331 C 0.60571 0.02865 0.71118 0.0
loop_
_geom_bond_atom_site_label_1
_geom_bond_atom_site_label_2
_geom_bond_distance
_geom_bond_site_symmetry_2
_ccdc_geom_bond_type
In0 O1 2.294 1_455 S
In0 O2 2.326 . S
In0 O6 2.266 1_455 S
In0 O7 2.326 1_454 S
In0 O8 2.266 1_554 S
In0 O9 2.326 1_454 S
In0 O11 2.294 . S
In0 O12 2.326 . S
O1 In0 2.294 1_655 S
O1 C10 1.240 1_655 S
O2 In0 2.326 . S
O2 C10 1.252 . S
C3 O6 1.252 1_556 S
C3 O7 1.260 . S
C4 O11 1.240 . S
C4 O12 1.252 . S
C5 O8 1.252 . S
C5 O9 1.260 1_455 S
O6 In0 2.266 1_655 S
O6 C3 1.252 1_554 S
O7 In0 2.326 1_656 S
O7 C3 1.260 . S
O8 In0 2.266 1_556 S
O8 C5 1.252 . S
O9 In0 2.326 1_656 S
O9 C5 1.260 1_655 S
C10 O1 1.240 1_455 S
C10 O2 1.252 . S
O11 In0 2.294 . S
O11 C4 1.240 . S
O12 In0 2.326 . S
O12 C4 1.252 . S
In13 O14 2.294 . S
In13 O15 2.326 . S
In13 O19 2.266 . S
In13 O20 2.326 1_554 S
In13 O21 2.266 1_554 S
In13 O22 2.326 1_554 S
In13 O24 2.294 . S
In13 O25 2.326 . S
O14 In13 2.294 . S
O14 C23 1.240 . S
O15 In13 2.326 . S
O15 C23 1.252 . S
C16 O19 1.252 1_556 S
C16 O20 1.260 . S
C17 O24 1.240 . S
C17 O25 1.252 . S
C18 O21 1.252 . S
C18 O22 1.260 . S
O19 In13 2.266 . S
O19 C16 1.252 1_554 S
O20 In13 2.326 1_556 S
O20 C16 1.260 . S
O21 In13 2.266 1_556 S
O21 C18 1.252 . S
O22 In13 2.326 1_556 S
O22 C18 1.260 . S
C23 O14 1.240 . S
C23 O15 1.252 . S
O24 In13 2.294 . S
O24 C17 1.240 . S
O25 In13 2.326 . S
O25 C17 1.252 . S
In26 O27 2.294 . S
In26 O28 2.326 1_554 S
In26 O32 2.266 . S
In26 O33 2.326 1_545 S
In26 O34 2.266 1_545 S
In26 O35 2.326 1_545 S
In26 O37 2.294 1_544 S
In26 O38 2.326 1_554 S
O27 In26 2.294 . S
O27 C36 1.240 1_554 S
O28 In26 2.326 1_556 S
O28 C36 1.252 . S
C29 O32 1.252 . S
C29 O33 1.260 1_545 S
C30 O37 1.240 1_545 S
C30 O38 1.252 . S
C31 O34 1.252 . S
C31 O35 1.260 . S
O32 In26 2.266 . S
O32 C29 1.252 . S
O33 In26 2.326 1_565 S
O33 C29 1.260 1_565 S
O34 In26 2.266 1_565 S
O34 C31 1.252 . S
O35 In26 2.326 1_565 S
O35 C31 1.260 . S
C36 O27 1.240 1_556 S
C36 O28 1.252 . S
O37 In26 2.294 1_566 S
O37 C30 1.240 1_565 S
O38 In26 2.326 1_556 S
O38 C30 1.252 . S
In39 O40 2.294 1_554 S
In39 O41 2.326 1_454 S
In39 O45 2.266 . S
In39 O46 2.326 . S
In39 O47 2.266 1_455 S
In39 O48 2.326 . S
In39 O50 2.294 1_455 S
In39 O51 2.326 1_454 S
O40 In39 2.294 1_556 S
O40 C49 1.240 . S
O41 In39 2.326 1_656 S
O41 C49 1.252 1_655 S
C42 O45 1.252 . S
C42 O46 1.260 . S
C43 O50 1.240 1_556 S
C43 O51 1.252 . S
C44 O47 1.252 1_455 S
C44 O48 1.260 . S
O45 In39 2.266 . S
O45 C42 1.252 . S
O46 In39 2.326 . S
O46 C42 1.260 . S
O47 In39 2.266 1_655 S
O47 C44 1.252 1_655 S
O48 In39 2.326 . S
O48 C44 1.260 . S
C49 O40 1.240 . S
C49 O41 1.252 1_455 S
O50 In39 2.294 1_655 S
O50 C43 1.240 1_554 S
O51 In39 2.326 1_656 S
O51 C43 1.252 . S
In52 O53 2.294 1_554 S
In52 O54 2.326 1_554 S
In52 O58 2.266 . S
In52 O59 2.326 . S
In52 O60 2.266 . S
In52 O61 2.326 . S
In52 O63 2.294 . S
In52 O64 2.326 1_554 S
O53 In52 2.294 1_556 S
O53 C62 1.240 . S
O54 In52 2.326 1_556 S
O54 C62 1.252 . S
C55 O58 1.252 . S
C55 O59 1.260 . S
C56 O63 1.240 1_556 S
C56 O64 1.252 . S
C57 O60 1.252 . S
C57 O61 1.260 . S
O58 In52 2.266 . S
O58 C55 1.252 . S
O59 In52 2.326 . S
O59 C55 1.260 . S
O60 In52 2.266 . S
O60 C57 1.252 . S
O61 In52 2.326 . S
O61 C57 1.260 . S
C62 O53 1.240 . S
C62 O54 1.252 . S
O63 In52 2.294 . S
O63 C56 1.240 1_554 S
O64 In52 2.326 1_556 S
O64 C56 1.252 . S
In65 O66 2.294 . S
In65 O67 2.326 1_545 S
In65 O71 2.266 . S
In65 O72 2.326 1_554 S
In65 O73 2.266 1_544 S
In65 O74 2.326 1_554 S
In65 O76 2.294 1_545 S
In65 O77 2.326 1_545 S
O66 In65 2.294 . S
O66 C75 1.240 . S
O67 In65 2.326 1_565 S
O67 C75 1.252 1_565 S
C68 O71 1.252 1_556 S
C68 O72 1.260 . S
C69 O76 1.240 . S
C69 O77 1.252 . S
C70 O73 1.252 1_545 S
C70 O74 1.260 . S
O71 In65 2.266 . S
O71 C68 1.252 1_554 S
O72 In65 2.326 1_556 S
O72 C68 1.260 . S
O73 In65 2.266 1_566 S
O73 C70 1.252 1_565 S
O74 In65 2.326 1_556 S
O74 C70 1.260 . S
C75 O66 1.240 . S
C75 O67 1.252 1_545 S
O76 In65 2.294 1_565 S
O76 C69 1.240 . S
O77 In65 2.326 1_565 S
O77 C69 1.252 . S
In78 O79 2.294 . S
In78 O80 2.326 . S
In78 O84 2.266 . S
In78 O85 2.326 . S
In78 O86 2.266 . S
In78 O87 2.326 . S
In78 O89 2.294 . S
In78 O90 2.326 . S
O79 In78 2.294 . S
O79 C88 1.240 . S
O80 In78 2.326 . S
O80 C88 1.252 . S
C81 O84 1.252 . S
C81 O85 1.260 . S
C82 O89 1.240 . S
C82 O90 1.252 . S
C83 O86 1.252 . S
C83 O87 1.260 . S
O84 In78 2.266 . S
O84 C81 1.252 . S
O85 In78 2.326 . S
O85 C81 1.260 . S
O86 In78 2.266 . S
O86 C83 1.252 . S
O87 In78 2.326 . S
O87 C83 1.260 . S
C88 O79 1.240 . S
C88 O80 1.252 . S
O89 In78 2.294 . S
O89 C82 1.240 . S
O90 In78 2.326 . S
O90 C82 1.252 . S
In91 O92 2.294 . S
In91 O93 2.326 . S
In91 O97 2.266 . S
In91 O98 2.326 1_565 S
In91 O99 2.266 . S
In91 O100 2.326 . S
In91 O102 2.294 1_565 S
In91 O103 2.326 1_565 S
O92 In91 2.294 . S
O92 C101 1.240 . S
O93 In91 2.326 . S
O93 C101 1.252 . S
C94 O97 1.252 . S
C94 O98 1.260 1_565 S
C95 O102 1.240 . S
C95 O103 1.252 . S
C96 O99 1.252 . S
C96 O100 1.260 . S
O97 In91 2.266 . S
O97 C94 1.252 . S
O98 In91 2.326 1_545 S
O98 C94 1.260 1_545 S
O99 In91 2.266 . S
O99 C96 1.252 . S
O100 In91 2.326 . S
O100 C96 1.260 . S
C101 O92 1.240 . S
C101 O93 1.252 . S
O102 In91 2.294 1_545 S
O102 C95 1.240 . S
O103 In91 2.326 1_545 S
O103 C95 1.252 . S
In104 O105 2.294 . S
In104 O106 2.326 . S
In104 O110 2.266 . S
In104 O111 2.326 . S
In104 O112 2.266 1_455 S
In104 O113 2.326 1_455 S
In104 O115 2.294 . S
In104 O116 2.326 . S
O105 In104 2.294 . S
O105 C114 1.240 . S
O106 In104 2.326 . S
O106 C114 1.252 . S
C107 O110 1.252 . S
C107 O111 1.260 . S
C108 O115 1.240 . S
C108 O116 1.252 . S
C109 O112 1.252 . S
C109 O113 1.260 . S
O110 In104 2.266 . S
O110 C107 1.252 . S
O111 In104 2.326 . S
O111 C107 1.260 . S
O112 In104 2.266 1_655 S
O112 C109 1.252 . S
O113 In104 2.326 1_655 S
O113 C109 1.260 . S
C114 O105 1.240 . S
C114 O106 1.252 . S
O115 In104 2.294 . S
O115 C108 1.240 . S
O116 In104 2.326 . S
O116 C108 1.252 . S
In117 O118 2.294 . S
In117 O119 2.326 . S
In117 O123 2.266 1_565 S
In117 O124 2.326 1_565 S
In117 O125 2.266 . S
In117 O126 2.326 . S
In117 O128 2.294 . S
In117 O129 2.326 1_565 S
O118 In117 2.294 . S
O118 C127 1.240 . S
O119 In117 2.326 . S
O119 C127 1.252 . S
C120 O123 1.252 . S
C120 O124 1.260 . S
C121 O128 1.240 . S
C121 O129 1.252 1_565 S
C122 O125 1.252 . S
C122 O126 1.260 . S
O123 In117 2.266 1_545 S
O123 C120 1.252 . S
O124 In117 2.326 1_545 S
O124 C120 1.260 . S
O125 In117 2.266 . S
O125 C122 1.252 . S
O126 In117 2.326 . S
O126 C122 1.260 . S
C127 O118 1.240 . S
C127 O119 1.252 . S
O128 In117 2.294 . S
O128 C121 1.240 . S
O129 In117 2.326 1_545 S
O129 C121 1.252 1_545 S
In130 O131 2.294 . S
In130 O132 2.326 . S
In130 O136 2.266 1_455 S
In130 O137 2.326 1_455 S
In130 O138 2.266 . S
In130 O139 2.326 . S
In130 O141 2.294 . S
In130 O142 2.326 . S
O131 In130 2.294 . S
O131 C140 1.240 . S
O132 In130 2.326 . S
O132 C140 1.252 . S
C133 O136 1.252 . S
C133 O137 1.260 . S
C134 O141 1.240 . S
C134 O142 1.252 . S
C135 O138 1.252 . S
C135 O139 1.260 . S
O136 In130 2.266 1_655 S
O136 C133 1.252 . S
O137 In130 2.326 1_655 S
O137 C133 1.260 . S
O138 In130 2.266 . S
O138 C135 1.252 . S
O139 In130 2.326 . S
O139 C135 1.260 . S
C140 O131 1.240 . S
C140 O132 1.252 . S
O141 In130 2.294 . S
O141 C134 1.240 . S
O142 In130 2.326 . S
O142 C134 1.252 . S
In143 O144 2.294 . S
In143 O145 2.326 . S
In143 O149 2.266 . S
In143 O150 2.326 . S
In143 O151 2.266 . S
In143 O152 2.326 . S
In143 O154 2.294 . S
In143 O155 2.326 . S
O144 In143 2.294 . S
O144 C153 1.240 . S
O145 In143 2.326 . S
O145 C153 1.252 . S
C146 O149 1.252 . S
C146 O150 1.260 . S
C147 O154 1.240 . S
C147 O155 1.252 . S
C148 O151 1.252 . S
C148 O152 1.260 . S
O149 In143 2.266 . S
O149 C146 1.252 . S
O150 In143 2.326 . S
O150 C146 1.260 . S
O151 In143 2.266 . S
O151 C148 1.252 . S
O152 In143 2.326 . S
O152 C148 1.260 . S
C153 O144 1.240 . S
C153 O145 1.252 . S
O154 In143 2.294 . S
O154 C147 1.240 . S
O155 In143 2.326 . S
O155 C147 1.252 . S
In156 O157 2.294 . S
In156 O158 2.326 . S
In156 O162 2.266 . S
In156 O163 2.326 . S
In156 O164 2.266 1_545 S
In156 O165 2.326 1_545 S
In156 O167 2.294 . S
In156 O168 2.326 . S
O157 In156 2.294 . S
O157 C166 1.240 . S
O158 In156 2.326 . S
O158 C166 1.252 . S
C159 O162 1.252 . S
C159 O163 1.260 . S
C160 O167 1.240 . S
C160 O168 1.252 . S
C161 O164 1.252 . S
C161 O165 1.260 . S
O162 In156 2.266 . S
O162 C159 1.252 . S
O163 In156 2.326 . S
O163 C159 1.260 . S
O164 In156 2.266 1_565 S
O164 C161 1.252 . S
O165 In156 2.326 1_565 S
O165 C161 1.260 . S
C166 O157 1.240 . S
C166 O158 1.252 . S
O167 In156 2.294 . S
O167 C160 1.240 . S
O168 In156 2.326 . S
O168 C160 1.252 . S
In169 O170 2.294 . S
In169 O171 2.326 1_655 S
In169 O175 2.266 . S
In169 O176 2.326 . S
In169 O177 2.266 1_655 S
In169 O178 2.326 1_655 S
In169 O180 2.294 . S
In169 O181 2.326 . S
O170 In169 2.294 . S
O170 C179 1.240 . S
O171 In169 2.326 1_455 S
O171 C179 1.252 1_455 S
C172 O175 1.252 . S
C172 O176 1.260 . S
C173 O180 1.240 . S
C173 O181 1.252 . S
C174 O177 1.252 . S
C174 O178 1.260 . S
O175 In169 2.266 . S
O175 C172 1.252 . S
O176 In169 2.326 . S
O176 C172 1.260 . S
O177 In169 2.266 1_455 S
O177 C174 1.252 . S
O178 In169 2.326 1_455 S
O178 C174 1.260 . S
C179 O170 1.240 . S
C179 O171 1.252 1_655 S
O180 In169 2.294 . S
O180 C173 1.240 . S
O181 In169 2.326 . S
O181 C173 1.252 . S
In182 O183 2.294 . S
In182 O184 2.326 . S
In182 O188 2.266 . S
In182 O189 2.326 . S
In182 O190 2.266 . S
In182 O191 2.326 . S
In182 O193 2.294 . S
In182 O194 2.326 . S
O183 In182 2.294 . S
O183 C192 1.240 . S
O184 In182 2.326 . S
O184 C192 1.252 . S
C185 O188 1.252 . S
C185 O189 1.260 . S
C186 O193 1.240 . S
C186 O194 1.252 . S
C187 O190 1.252 . S
C187 O191 1.260 . S
O188 In182 2.266 . S
O188 C185 1.252 . S
O189 In182 2.326 . S
O189 C185 1.260 . S
O190 In182 2.266 . S
O190 C187 1.252 . S
O191 In182 2.326 . S
O191 C187 1.260 . S
C192 O183 1.240 . S
C192 O184 1.252 . S
O193 In182 2.294 . S
O193 C186 1.240 . S
O194 In182 2.326 . S
O194 C186 1.252 . S
In195 O196 2.294 . S
In195 O197 2.326 . S
In195 O201 2.266 . S
In195 O202 2.326 . S
In195 O203 2.266 . S
In195 O204 2.326 . S
In195 O206 2.294 . S
In195 O207 2.326 . S
O196 In195 2.294 . S
O196 C205 1.240 . S
O197 In195 2.326 . S
O197 C205 1.252 . S
C198 O201 1.252 . S
C198 O202 1.260 . S
C199 O206 1.240 . S
C199 O207 1.252 . S
C200 O203 1.252 . S
C200 O204 1.260 . S
O201 In195 2.266 . S
O201 C198 1.252 . S
O202 In195 2.326 . S
O202 C198 1.260 . S
O203 In195 2.266 . S
O203 C200 1.252 . S
O204 In195 2.326 . S
O204 C200 1.260 . S
C205 O196 1.240 . S
C205 O197 1.252 . S
O206 In195 2.294 . S
O206 C199 1.240 . S
O207 In195 2.326 . S
O207 C199 1.252 . S
In208 O209 2.294 . S
In208 O210 2.326 . S
In208 O214 2.266 . S
In208 O215 2.326 . S
In208 O216 2.266 . S
In208 O217 2.326 . S
In208 O219 2.294 1_545 S
In208 O220 2.326 1_545 S
O209 In208 2.294 . S
O209 C218 1.240 . S
O210 In208 2.326 . S
O210 C218 1.252 . S
C211 O214 1.252 . S
C211 O215 1.260 . S
C212 O219 1.240 . S
C212 O220 1.252 . S
C213 O216 1.252 . S
C213 O217 1.260 . S
O214 In208 2.266 . S
O214 C211 1.252 . S
O215 In208 2.326 . S
O215 C211 1.260 . S
O216 In208 2.266 . S
O216 C213 1.252 . S
O217 In208 2.326 . S
O217 C213 1.260 . S
C218 O209 1.240 . S
C218 O210 1.252 . S
O219 In208 2.294 1_565 S
O219 C212 1.240 . S
O220 In208 2.326 1_565 S
O220 C212 1.252 . S
In221 O222 2.294 . S
In221 O223 2.326 1_655 S
In221 O227 2.266 . S
In221 O228 2.326 . S
In221 O229 2.266 1_655 S
In221 O230 2.326 1_655 S
In221 O232 2.294 . S
In221 O233 2.326 . S
O222 In221 2.294 . S
O222 C231 1.240 . S
O223 In221 2.326 1_455 S
O223 C231 1.252 1_455 S
C224 O227 1.252 . S
C224 O228 1.260 . S
C225 O232 1.240 . S
C225 O233 1.252 . S
C226 O229 1.252 . S
C226 O230 1.260 . S
O227 In221 2.266 . S
O227 C224 1.252 . S
O228 In221 2.326 . S
O228 C224 1.260 . S
O229 In221 2.266 1_455 S
O229 C226 1.252 . S
O230 In221 2.326 1_455 S
O230 C226 1.260 . S
C231 O222 1.240 . S
C231 O223 1.252 1_655 S
O232 In221 2.294 . S
O232 C225 1.240 . S
O233 In221 2.326 . S
O233 C225 1.252 . S
H234 C242 0.930 . S
H235 C245 0.930 . S
H236 C247 0.930 . S
H237 C248 0.970 . S
H238 C248 0.970 . S
H239 C250 0.930 . S
H240 C252 0.930 . S
H241 C254 0.930 . S
C242 H234 0.930 . S
C242 C243 1.382 . S
C242 C244 1.426 . S
C243 C242 1.382 . S
C243 C247 1.389 . S
C244 C242 1.426 . S
C244 C245 1.375 . S
C244 C248 1.532 . S
C245 H235 0.930 . S
C245 C244 1.375 . S
C245 C246 1.416 . S
C246 C245 1.416 . S
C246 C247 1.371 . S
C247 H236 0.930 . S
C247 C243 1.389 . S
C247 C246 1.371 . S
C248 H237 0.970 . S
C248 H238 0.970 . S
C248 C244 1.532 . S
C248 C249 1.499 . S
C249 C248 1.499 . S
C249 C250 1.370 . S
C249 C254 1.415 . S
C250 H239 0.930 . S
C250 C249 1.370 . S
C250 C251 1.407 . S
C251 C250 1.407 . S
C251 C252 1.365 . S
C252 H240 0.930 . S
C252 C251 1.365 . S
C252 C253 1.393 . S
C253 C252 1.393 . S
C253 C254 1.387 . S
C254 H241 0.930 . S
C254 C249 1.415 . S
C254 C253 1.387 . S
H255 C263 0.930 . S
H256 C266 0.930 . S
H257 C268 0.930 . S
H258 C269 0.970 . S
H259 C269 0.970 . S
H260 C271 0.930 . S
H261 C273 0.930 . S
H262 C275 0.930 . S
C263 H255 0.930 . S
C263 C264 1.382 . S
C263 C265 1.426 . S
C264 C263 1.382 . S
C264 C268 1.389 . S
C265 C263 1.426 . S
C265 C266 1.375 . S
C265 C269 1.532 . S
C266 H256 0.930 . S
C266 C265 1.375 . S
C266 C267 1.416 . S
C267 C266 1.416 . S
C267 C268 1.371 . S
C268 H257 0.930 . S
C268 C264 1.389 . S
C268 C267 1.371 . S
C269 H258 0.970 . S
C269 H259 0.970 . S
C269 C265 1.532 . S
C269 C270 1.499 . S
C270 C269 1.499 . S
C270 C271 1.370 . S
C270 C275 1.415 . S
C271 H260 0.930 . S
C271 C270 1.370 . S
C271 C272 1.407 . S
C272 C271 1.407 . S
C272 C273 1.365 . S
C273 H261 0.930 . S
C273 C272 1.365 . S
C273 C274 1.393 . S
C274 C273 1.393 . S
C274 C275 1.387 . S
C275 H262 0.930 . S
C275 C270 1.415 . S
C275 C274 1.387 . S
H276 C284 0.930 . S
H277 C287 0.930 . S
H278 C289 0.930 . S
H279 C290 0.970 . S
H280 C290 0.970 . S
H281 C292 0.930 . S
H282 C294 0.930 . S
H283 C296 0.930 . S
C284 H276 0.930 . S
C284 C285 1.382 . S
C284 C286 1.426 . S
C285 C284 1.382 . S
C285 C289 1.389 . S
C286 C284 1.426 . S
C286 C287 1.375 . S
C286 C290 1.532 . S
C287 H277 0.930 . S
C287 C286 1.375 . S
C287 C288 1.416 . S
C288 C287 1.416 . S
C288 C289 1.371 . S
C289 H278 0.930 . S
C289 C285 1.389 . S
C289 C288 1.371 . S
C290 H279 0.970 . S
C290 H280 0.970 . S
C290 C286 1.532 . S
C290 C291 1.499 . S
C291 C290 1.499 . S
C291 C292 1.370 . S
C291 C296 1.415 . S
C292 H281 0.930 . S
C292 C291 1.370 . S
C292 C293 1.407 . S
C293 C292 1.407 . S
C293 C294 1.365 . S
C294 H282 0.930 . S
C294 C293 1.365 . S
C294 C295 1.393 . S
C295 C294 1.393 . S
C295 C296 1.387 . S
C296 H283 0.930 . S
C296 C291 1.415 . S
C296 C295 1.387 . S
H297 C305 0.930 . S
H298 C308 0.930 . S
H299 C310 0.930 . S
H300 C311 0.970 . S
H301 C311 0.970 . S
H302 C313 0.930 . S
H303 C315 0.930 . S
H304 C317 0.930 . S
C305 H297 0.930 . S
C305 C306 1.382 . S
C305 C307 1.426 . S
C306 C305 1.382 . S
C306 C310 1.389 . S
C307 C305 1.426 . S
C307 C308 1.375 . S
C307 C311 1.532 . S
C308 H298 0.930 . S
C308 C307 1.375 . S
C308 C309 1.416 . S
C309 C308 1.416 . S
C309 C310 1.371 . S
C310 H299 0.930 . S
C310 C306 1.389 . S
C310 C309 1.371 . S
C311 H300 0.970 . S
C311 H301 0.970 . S
C311 C307 1.532 . S
C311 C312 1.499 . S
C312 C311 1.499 . S
C312 C313 1.370 . S
C312 C317 1.415 . S
C313 H302 0.930 . S
C313 C312 1.370 . S
C313 C314 1.407 . S
C314 C313 1.407 . S
C314 C315 1.365 . S
C315 H303 0.930 . S
C315 C314 1.365 . S
C315 C316 1.393 . S
C316 C315 1.393 . S
C316 C317 1.387 . S
C317 H304 0.930 . S
C317 C312 1.415 . S
C317 C316 1.387 . S
H318 C326 0.930 . S
H319 C329 0.930 . S
H320 C331 0.930 . S
H321 C332 0.970 . S
H322 C332 0.970 . S
H323 C334 0.930 . S
H324 C336 0.930 . S
H325 C338 0.930 . S
C326 H318 0.930 . S
C326 C327 1.382 . S
C326 C328 1.426 . S
C327 C326 1.382 . S
C327 C331 1.389 . S
C328 C326 1.426 . S
C328 C329 1.375 . S
C328 C332 1.532 . S
C329 H319 0.930 . S
C329 C328 1.375 . S
C329 C330 1.416 . S
C330 C329 1.416 . S
C330 C331 1.371 . S
C331 H320 0.930 . S
C331 C327 1.389 . S
C331 C330 1.371 . S
C332 H321 0.970 . S
C332 H322 0.970 . S
C332 C328 1.532 . S
C332 C333 1.499 . S
C333 C332 1.499 . S
C333 C334 1.370 . S
C333 C338 1.415 . S
C334 H323 0.930 . S
C334 C333 1.370 . S
C334 C335 1.407 . S
C335 C334 1.407 . S
C335 C336 1.365 . S
C336 H324 0.930 . S
C336 C335 1.365 . S
C336 C337 1.393 . S
C337 C336 1.393 . S
C337 C338 1.387 . S
C338 H325 0.930 . S
C338 C333 1.415 . S
C338 C337 1.387 . S
H339 C347 0.930 . S
H340 C350 0.930 . S
H341 C352 0.930 . S
H342 C353 0.970 . S
H343 C353 0.970 . S
H344 C355 0.930 . S
H345 C357 0.930 . S
H346 C359 0.930 . S
C347 H339 0.930 . S
C347 C348 1.382 . S
C347 C349 1.426 . S
C348 C347 1.382 . S
C348 C352 1.389 . S
C349 C347 1.426 . S
C349 C350 1.375 . S
C349 C353 1.532 . S
C350 H340 0.930 . S
C350 C349 1.375 . S
C350 C351 1.416 . S
C351 C350 1.416 . S
C351 C352 1.371 . S
C352 H341 0.930 . S
C352 C348 1.389 . S
C352 C351 1.371 . S
C353 H342 0.970 . S
C353 H343 0.970 . S
C353 C349 1.532 . S
C353 C354 1.499 . S
C354 C353 1.499 . S
C354 C355 1.370 . S
C354 C359 1.415 . S
C355 H344 0.930 . S
C355 C354 1.370 . S
C355 C356 1.407 . S
C356 C355 1.407 . S
C356 C357 1.365 . S
C357 H345 0.930 . S
C357 C356 1.365 . S
C357 C358 1.393 . S
C358 C357 1.393 . S
C358 C359 1.387 . S
C359 H346 0.930 . S
C359 C354 1.415 . S
C359 C358 1.387 . S
H360 C368 0.930 . S
H361 C371 0.930 . S
H362 C373 0.930 . S
H363 C374 0.970 . S
H364 C374 0.970 . S
H365 C376 0.930 . S
H366 C378 0.930 . S
H367 C380 0.930 . S
C368 H360 0.930 . S
C368 C369 1.382 . S
C368 C370 1.426 . S
C369 C368 1.382 . S
C369 C373 1.389 . S
C370 C368 1.426 . S
C370 C371 1.375 . S
C370 C374 1.532 . S
C371 H361 0.930 . S
C371 C370 1.375 . S
C371 C372 1.416 . S
C372 C371 1.416 . S
C372 C373 1.371 . S
C373 H362 0.930 . S
C373 C369 1.389 . S
C373 C372 1.371 . S
C374 H363 0.970 . S
C374 H364 0.970 . S
C374 C370 1.532 . S
C374 C375 1.499 . S
C375 C374 1.499 . S
C375 C376 1.370 . S
C375 C380 1.415 . S
C376 H365 0.930 . S
C376 C375 1.370 . S
C376 C377 1.407 . S
C377 C376 1.407 . S
C377 C378 1.365 . S
C378 H366 0.930 . S
C378 C377 1.365 . S
C378 C379 1.393 . S
C379 C378 1.393 . S
C379 C380 1.387 . S
C380 H367 0.930 . S
C380 C375 1.415 . S
C380 C379 1.387 . S
H381 C389 0.930 . S
H382 C392 0.930 . S
H383 C394 0.930 . S
H384 C395 0.970 . S
H385 C395 0.970 . S
H386 C397 0.930 . S
H387 C399 0.930 . S
H388 C401 0.930 . S
C389 H381 0.930 . S
C389 C390 1.382 . S
C389 C391 1.426 . S
C390 C389 1.382 . S
C390 C394 1.389 . S
C391 C389 1.426 . S
C391 C392 1.375 . S
C391 C395 1.532 . S
C392 H382 0.930 . S
C392 C391 1.375 . S
C392 C393 1.416 . S
C393 C392 1.416 . S
C393 C394 1.371 . S
C394 H383 0.930 . S
C394 C390 1.389 . S
C394 C393 1.371 . S
C395 H384 0.970 . S
C395 H385 0.970 . S
C395 C391 1.532 . S
C395 C396 1.499 . S
C396 C395 1.499 . S
C396 C397 1.370 . S
C396 C401 1.415 . S
C397 H386 0.930 . S
C397 C396 1.370 . S
C397 C398 1.407 . S
C398 C397 1.407 . S
C398 C399 1.365 . S
C399 H387 0.930 . S
C399 C398 1.365 . S
C399 C400 1.393 . S
C400 C399 1.393 . S
C400 C401 1.387 . S
C401 H388 0.930 . S
C401 C396 1.415 . S
C401 C400 1.387 . S
H402 C410 0.930 . S
H403 C413 0.930 . S
H404 C415 0.930 . S
H405 C416 0.970 . S
H406 C416 0.970 . S
H407 C418 0.930 . S
H408 C420 0.930 . S
H409 C422 0.930 . S
C410 H402 0.930 . S
C410 C411 1.382 . S
C410 C412 1.426 . S
C411 C410 1.382 . S
C411 C415 1.389 . S
C412 C410 1.426 . S
C412 C413 1.375 . S
C412 C416 1.532 . S
C413 H403 0.930 . S
C413 C412 1.375 . S
C413 C414 1.416 . S
C414 C413 1.416 . S
C414 C415 1.371 . S
C415 H404 0.930 . S
C415 C411 1.389 . S
C415 C414 1.371 . S
C416 H405 0.970 . S
C416 H406 0.970 . S
C416 C412 1.532 . S
C416 C417 1.499 . S
C417 C416 1.499 . S
C417 C418 1.370 . S
C417 C422 1.415 . S
C418 H407 0.930 . S
C418 C417 1.370 . S
C418 C419 1.407 . S
C419 C418 1.407 . S
C419 C420 1.365 . S
C420 H408 0.930 . S
C420 C419 1.365 . S
C420 C421 1.393 . S
C421 C420 1.393 . S
C421 C422 1.387 . S
C422 H409 0.930 . S
C422 C417 1.415 . S
C422 C421 1.387 . S
H423 C431 0.930 . S
H424 C434 0.930 . S
H425 C436 0.929 . S
H426 C437 0.970 . S
H427 C437 0.970 . S
H428 C439 0.930 . S
H429 C441 0.930 1_655 S
H430 C443 0.930 . S
C431 H423 0.930 . S
C431 C432 1.382 . S
C431 C433 1.426 . S
C432 C431 1.382 . S
C432 C436 1.389 . S
C433 C431 1.426 . S
C433 C434 1.375 . S
C433 C437 1.532 . S
C434 H424 0.930 . S
C434 C433 1.375 . S
C434 C435 1.416 . S
C435 C434 1.416 . S
C435 C436 1.371 . S
C436 H425 0.929 . S
C436 C432 1.389 . S
C436 C435 1.371 . S
C437 H426 0.970 . S
C437 H427 0.970 . S
C437 C433 1.532 . S
C437 C438 1.499 . S
C438 C437 1.499 . S
C438 C439 1.370 . S
C438 C443 1.415 . S
C439 H428 0.930 . S
C439 C438 1.370 . S
C439 C440 1.407 . S
C440 C439 1.407 . S
C440 C441 1.365 . S
C441 H429 0.930 1_455 S
C441 C440 1.365 . S
C441 C442 1.393 . S
C442 C441 1.393 . S
C442 C443 1.387 . S
C443 H430 0.930 . S
C443 C438 1.415 . S
C443 C442 1.387 . S
H444 C452 0.930 . S
H445 C455 0.930 . S
H446 C457 0.930 . S
H447 C458 0.970 . S
H448 C458 0.970 . S
H449 C460 0.930 . S
H450 C462 0.930 . S
H451 C464 0.930 . S
C452 H444 0.930 . S
C452 C453 1.382 . S
C452 C454 1.426 . S
C453 C452 1.382 . S
C453 C457 1.389 . S
C454 C452 1.426 . S
C454 C455 1.375 . S
C454 C458 1.532 . S
C455 H445 0.930 . S
C455 C454 1.375 . S
C455 C456 1.416 . S
C456 C455 1.416 . S
C456 C457 1.371 . S
C457 H446 0.930 . S
C457 C453 1.389 . S
C457 C456 1.371 . S
C458 H447 0.970 . S
C458 H448 0.970 . S
C458 C454 1.532 . S
C458 C459 1.499 . S
C459 C458 1.499 . S
C459 C460 1.370 . S
C459 C464 1.415 . S
C460 H449 0.930 . S
C460 C459 1.370 . S
C460 C461 1.407 . S
C461 C460 1.407 . S
C461 C462 1.365 . S
C462 H450 0.930 . S
C462 C461 1.365 . S
C462 C463 1.393 . S
C463 C462 1.393 . S
C463 C464 1.387 . S
C464 H451 0.930 . S
C464 C459 1.415 . S
C464 C463 1.387 . S
H465 C473 0.930 . S
H466 C476 0.930 . S
H467 C478 0.930 . S
H468 C479 0.970 . S
H469 C479 0.970 . S
H470 C481 0.930 . S
H471 C483 0.930 . S
H472 C485 0.930 . S
C473 H465 0.930 . S
C473 C474 1.382 . S
C473 C475 1.426 . S
C474 C473 1.382 . S
C474 C478 1.389 1_565 S
C475 C473 1.426 . S
C475 C476 1.375 . S
C475 C479 1.532 . S
C476 H466 0.930 . S
C476 C475 1.375 . S
C476 C477 1.416 . S
C477 C476 1.416 . S
C477 C478 1.371 1_565 S
C478 H467 0.930 . S
C478 C474 1.389 1_545 S
C478 C477 1.371 1_545 S
C479 H468 0.970 . S
C479 H469 0.970 . S
C479 C475 1.532 . S
C479 C480 1.499 . S
C480 C479 1.499 . S
C480 C481 1.370 . S
C480 C485 1.415 . S
C481 H470 0.930 . S
C481 C480 1.370 . S
C481 C482 1.444 . S
C482 C481 1.444 . S
C482 C483 1.350 1_565 S
C483 H471 0.930 . S
C483 C482 1.350 1_545 S
C483 C484 1.393 1_545 S
C484 C483 1.393 1_565 S
C484 C485 1.387 . S
C485 H472 0.930 . S
C485 C480 1.415 . S
C485 C484 1.387 . S
H486 C494 0.930 . S
H487 C497 0.930 . S
H488 C499 0.930 . S
H489 C500 0.970 . S
H490 C500 0.970 . S
H491 C502 0.930 . S
H492 C504 0.930 . S
H493 C506 0.930 . S
C494 H486 0.930 . S
C494 C495 1.382 1_565 S
C494 C496 1.426 . S
C495 C494 1.382 1_545 S
C495 C499 1.389 . S
C496 C494 1.426 . S
C496 C497 1.375 . S
C496 C500 1.532 . S
C497 H487 0.930 . S
C497 C496 1.375 . S
C497 C498 1.416 1_565 S
C498 C497 1.416 1_545 S
C498 C499 1.371 . S
C499 H488 0.930 . S
C499 C495 1.389 . S
C499 C498 1.371 . S
C500 H489 0.970 . S
C500 H490 0.970 . S
C500 C496 1.532 . S
C500 C501 1.499 . S
C501 C500 1.499 . S
C501 C502 1.370 . S
C501 C506 1.415 . S
C502 H491 0.930 . S
C502 C501 1.370 . S
C502 C503 1.407 1_565 S
C503 C502 1.407 1_545 S
C503 C504 1.365 . S
C504 H492 0.930 . S
C504 C503 1.365 . S
C504 C505 1.393 . S
C505 C504 1.393 . S
C505 C506 1.387 1_545 S
C506 H493 0.930 . S
C506 C501 1.415 . S
C506 C505 1.387 1_565 S
H507 C515 0.930 . S
H508 C518 0.930 . S
H509 C520 0.930 . S
H510 C521 0.970 . S
H511 C521 0.970 . S
H512 C523 0.930 . S
H513 C525 0.930 . S
H514 C527 0.930 . S
C515 H507 0.930 . S
C515 C516 1.382 . S
C515 C517 1.426 . S
C516 C515 1.382 . S
C516 C520 1.389 1_455 S
C517 C515 1.426 . S
C517 C518 1.375 . S
C517 C521 1.532 . S
C518 H508 0.930 . S
C518 C517 1.375 . S
C518 C519 1.416 . S
C519 C518 1.416 . S
C519 C520 1.371 1_455 S
C520 H509 0.930 . S
C520 C516 1.389 1_655 S
C520 C519 1.371 1_655 S
C521 H510 0.970 . S
C521 H511 0.970 . S
C521 C517 1.532 . S
C521 C522 1.499 . S
C522 C521 1.499 . S
C522 C523 1.370 . S
C522 C527 1.415 . S
C523 H512 0.930 . S
C523 C522 1.370 . S
C523 C524 1.407 . S
C524 C523 1.407 . S
C524 C525 1.365 1_455 S
C525 H513 0.930 . S
C525 C524 1.365 1_655 S
C525 C526 1.393 1_655 S
C526 C525 1.393 1_455 S
C526 C527 1.387 . S
C527 H514 0.930 . S
C527 C522 1.415 . S
C527 C526 1.387 . S
H528 C536 0.930 . S
H529 C539 0.930 . S
H530 C541 0.930 . S
H531 C542 0.970 . S
H532 C542 0.970 . S
H533 C544 0.930 . S
H534 C546 0.930 . S
H535 C548 0.930 . S
C536 H528 0.930 . S
C536 C537 1.382 . S
C536 C538 1.426 . S
C537 C536 1.382 . S
C537 C541 1.389 . S
C538 C536 1.426 . S
C538 C539 1.375 . S
C538 C542 1.532 . S
C539 H529 0.930 . S
C539 C538 1.375 . S
C539 C540 1.416 . S
C540 C539 1.416 . S
C540 C541 1.371 . S
C541 H530 0.930 . S
C541 C537 1.389 . S
C541 C540 1.371 . S
C542 H531 0.970 . S
C542 H532 0.970 . S
C542 C538 1.532 . S
C542 C543 1.499 . S
C543 C542 1.499 . S
C543 C544 1.370 . S
C543 C548 1.415 . S
C544 H533 0.930 . S
C544 C543 1.370 . S
C544 C545 1.407 . S
C545 C544 1.407 . S
C545 C546 1.365 . S
C546 H534 0.930 . S
C546 C545 1.365 . S
C546 C547 1.393 . S
C547 C546 1.393 . S
C547 C548 1.387 . S
C548 H535 0.930 . S
C548 C543 1.415 . S
C548 C547 1.387 . S
H549 C557 0.930 . S
H550 C560 0.930 . S
H551 C562 0.930 . S
H552 C563 0.970 . S
H553 C563 0.970 . S
H554 C565 0.930 . S
H555 C567 0.930 . S
H556 C569 0.930 . S
C557 H549 0.930 . S
C557 C558 1.382 . S
C557 C559 1.426 . S
C558 C557 1.382 . S
C558 C562 1.389 . S
C559 C557 1.426 . S
C559 C560 1.375 . S
C559 C563 1.532 . S
C560 H550 0.930 . S
C560 C559 1.375 . S
C560 C561 1.416 . S
C561 C560 1.416 . S
C561 C562 1.371 . S
C562 H551 0.930 . S
C562 C558 1.389 . S
C562 C561 1.371 . S
C563 H552 0.970 . S
C563 H553 0.970 . S
C563 C559 1.532 . S
C563 C564 1.499 . S
C564 C563 1.499 . S
C564 C565 1.370 . S
C564 C569 1.415 . S
C565 H554 0.930 . S
C565 C564 1.370 . S
C565 C566 1.407 . S
C566 C565 1.407 . S
C566 C567 1.365 . S
C567 H555 0.930 . S
C567 C566 1.365 . S
C567 C568 1.393 . S
C568 C567 1.393 . S
C568 C569 1.387 . S
C569 H556 0.930 . S
C569 C564 1.415 . S
C569 C568 1.387 . S
H570 C578 0.930 . S
H571 C581 0.930 . S
H572 C583 0.930 . S
H573 C584 0.970 . S
H574 C584 0.970 . S
H575 C586 0.930 . S
H576 C588 0.930 . S
H577 C590 0.930 . S
C578 H570 0.930 . S
C578 C579 1.382 . S
C578 C580 1.426 . S
C579 C578 1.382 . S
C579 C583 1.389 . S
C580 C578 1.426 . S
C580 C581 1.375 . S
C580 C584 1.532 . S
C581 H571 0.930 . S
C581 C580 1.375 . S
C581 C582 1.416 . S
C582 C581 1.416 . S
C582 C583 1.371 . S
C583 H572 0.930 . S
C583 C579 1.389 . S
C583 C582 1.371 . S
C584 H573 0.970 . S
C584 H574 0.970 . S
C584 C580 1.532 . S
C584 C585 1.499 . S
C585 C584 1.499 . S
C585 C586 1.370 . S
C585 C590 1.415 . S
C586 H575 0.930 . S
C586 C585 1.370 . S
C586 C587 1.407 . S
C587 C586 1.407 . S
C587 C588 1.365 . S
C588 H576 0.930 . S
C588 C587 1.365 . S
C588 C589 1.393 . S
C589 C588 1.393 . S
C589 C590 1.387 . S
C590 H577 0.930 . S
C590 C585 1.415 . S
C590 C589 1.387 . S
H591 C599 0.930 . S
H592 C602 0.930 . S
H593 C604 0.930 . S
H594 C605 0.970 . S
H595 C605 0.970 . S
H596 C607 0.930 . S
H597 C609 0.930 . S
H598 C611 0.930 . S
C599 H591 0.930 . S
C599 C600 1.382 . S
C599 C601 1.426 . S
C600 C599 1.382 . S
C600 C604 1.389 . S
C601 C599 1.426 . S
C601 C602 1.375 . S
C601 C605 1.532 . S
C602 H592 0.930 . S
C602 C601 1.375 . S
C602 C603 1.416 . S
C603 C602 1.416 . S
C603 C604 1.371 . S
C604 H593 0.930 . S
C604 C600 1.389 . S
C604 C603 1.371 . S
C605 H594 0.970 . S
C605 H595 0.970 . S
C605 C601 1.532 . S
C605 C606 1.499 . S
C606 C605 1.499 . S
C606 C607 1.370 . S
C606 C611 1.415 . S
C607 H596 0.930 . S
C607 C606 1.370 . S
C607 C608 1.407 . S
C608 C607 1.407 . S
C608 C609 1.365 . S
C609 H597 0.930 . S
C609 C608 1.365 . S
C609 C610 1.393 . S
C610 C609 1.393 . S
C610 C611 1.387 . S
C611 H598 0.930 . S
C611 C606 1.415 . S
C611 C610 1.387 . S
C612 C613 1.387 1_655 S
C612 H616 0.950 . S
C612 C621 1.390 . S
C613 C612 1.387 1_455 S
C613 C615 1.387 . S
H614 C621 0.950 . S
C615 C613 1.387 . S
C615 C617 1.390 . S
C615 H619 0.950 . S
H616 C612 0.950 . S
C617 C615 1.390 . S
C617 C618 1.387 . S
C617 H620 0.950 . S
C618 C617 1.387 . S
C618 C621 1.387 1_455 S
H619 C615 0.950 . S
H620 C617 0.950 . S
C621 C612 1.390 . S
C621 H614 0.950 . S
C621 C618 1.387 1_655 S
C622 C623 1.387 . S
C622 H626 0.950 . S
C622 C631 1.390 . S
C623 C622 1.387 . S
C623 C625 1.387 . S
H624 C631 0.950 . S
C625 C623 1.387 . S
C625 C627 1.390 . S
C625 H629 0.950 . S
H626 C622 0.950 . S
C627 C625 1.390 . S
C627 C628 1.387 . S
C627 H630 0.950 . S
C628 C627 1.387 . S
C628 C631 1.387 . S
H629 C625 0.950 . S
H630 C627 0.950 . S
C631 C622 1.390 . S
C631 H624 0.950 . S
C631 C628 1.387 . S
C632 C633 1.387 1_565 S
C632 H636 0.950 . S
C632 C641 1.390 . S
C633 C632 1.387 1_545 S
C633 C635 1.387 . S
H634 C641 0.950 . S
C635 C633 1.387 . S
C635 C637 1.390 . S
C635 H639 0.950 . S
H636 C632 0.950 . S
C637 C635 1.390 . S
C637 C638 1.387 . S
C637 H640 0.950 . S
C638 C637 1.387 . S
C638 C641 1.387 1_545 S
H639 C635 0.950 . S
H640 C637 0.950 . S
C641 C632 1.390 . S
C641 H634 0.950 . S
C641 C638 1.387 1_565 S
C642 C643 1.387 . S
C642 H646 0.950 . S
C642 C651 1.390 . S
C643 C642 1.387 . S
C643 C645 1.387 1_545 S
H644 C651 0.950 . S
C645 C643 1.387 1_565 S
C645 C647 1.390 . S
C645 H649 0.950 . S
H646 C642 0.950 . S
C647 C645 1.390 . S
C647 C648 1.387 1_565 S
C647 H650 0.950 . S
C648 C647 1.387 1_545 S
C648 C651 1.387 . S
H649 C645 0.950 . S
H650 C647 0.950 . S
C651 C642 1.390 . S
C651 H644 0.950 . S
C651 C648 1.387 . S
C652 C653 1.387 1_655 S
C652 H656 0.950 . S
C652 C661 1.390 . S
C653 C652 1.387 1_455 S
C653 C655 1.387 . S
H654 C661 0.950 . S
C655 C653 1.387 . S
C655 C657 1.390 . S
C655 H659 0.950 . S
H656 C652 0.950 . S
C657 C655 1.390 . S
C657 C658 1.387 . S
C657 H660 0.950 . S
C658 C657 1.387 . S
C658 C661 1.387 1_455 S
H659 C655 0.950 . S
H660 C657 0.950 . S
C661 C652 1.390 . S
C661 H654 0.950 . S
C661 C658 1.387 1_655 S
C662 C663 1.387 . S
C662 H666 0.950 . S
C662 C671 1.390 . S
C663 C662 1.387 . S
C663 C665 1.387 . S
H664 C671 0.950 . S
C665 C663 1.387 . S
C665 C667 1.390 . S
C665 H669 0.950 . S
H666 C662 0.950 . S
C667 C665 1.390 . S
C667 C668 1.387 . S
C667 H670 0.950 . S
C668 C667 1.387 . S
C668 C671 1.387 . S
H669 C665 0.950 . S
H670 C667 0.950 . S
C671 C662 1.390 . S
C671 H664 0.950 . S
C671 C668 1.387 . S
C672 C673 1.387 . S
C672 H676 0.950 . S
C672 C681 1.390 . S
C673 C672 1.387 . S
C673 C675 1.387 1_455 S
H674 C681 0.950 . S
C675 C673 1.387 1_655 S
C675 C677 1.390 . S
C675 H679 0.950 . S
H676 C672 0.950 . S
C677 C675 1.390 . S
C677 C678 1.387 1_655 S
C677 H680 0.950 . S
C678 C677 1.387 1_455 S
C678 C681 1.387 . S
H679 C675 0.950 . S
H680 C677 0.950 . S
C681 C672 1.390 . S
C681 H674 0.950 . S
C681 C678 1.387 . S
C682 C683 1.387 . S
C682 H686 0.950 . S
C682 C691 1.390 . S
C683 C682 1.387 . S
C683 C685 1.387 . S
H684 C691 0.950 . S
C685 C683 1.387 . S
C685 C687 1.390 . S
C685 H689 0.950 . S
H686 C682 0.950 . S
C687 C685 1.390 . S
C687 C688 1.387 . S
C687 H690 0.950 . S
C688 C687 1.387 . S
C688 C691 1.387 . S
H689 C685 0.950 . S
H690 C687 0.950 . S
C691 C682 1.390 . S
C691 H684 0.950 . S
C691 C688 1.387 . S
C692 C693 1.387 . S
C692 H696 0.950 . S
C692 C701 1.390 . S
C693 C692 1.387 . S
C693 C695 1.387 1_545 S
H694 C701 0.950 . S
C695 C693 1.387 1_565 S
C695 C697 1.390 . S
C695 H699 0.950 . S
H696 C692 0.950 . S
C697 C695 1.390 . S
C697 C698 1.387 1_565 S
C697 H700 0.950 . S
C698 C697 1.387 1_545 S
C698 C701 1.387 . S
H699 C695 0.950 . S
H700 C697 0.950 . S
C701 C692 1.390 . S
C701 H694 0.950 . S
C701 C698 1.387 . S
C702 C703 1.387 . S
C702 H706 0.950 . S
C702 C711 1.390 . S
C703 C702 1.387 . S
C703 C705 1.387 1_545 S
H704 C711 0.950 . S
C705 C703 1.387 1_565 S
C705 C707 1.390 . S
C705 H709 0.950 . S
H706 C702 0.950 . S
C707 C705 1.390 . S
C707 C708 1.387 1_565 S
C707 H710 0.950 . S
C708 C707 1.387 1_545 S
C708 C711 1.387 . S
H709 C705 0.950 . S
H710 C707 0.950 . S
C711 C702 1.390 . S
C711 H704 0.950 . S
C711 C708 1.387 . S
C712 C713 1.387 . S
C712 H716 0.950 . S
C712 C721 1.390 . S
C713 C712 1.387 . S
C713 C715 1.387 1_455 S
H714 C721 0.950 . S
C715 C713 1.387 1_655 S
C715 C717 1.390 . S
C715 H719 0.950 . S
H716 C712 0.950 . S
C717 C715 1.390 . S
C717 C718 1.387 1_655 S
C717 H720 0.950 . S
C718 C717 1.387 1_455 S
C718 C721 1.387 . S
H719 C715 0.950 . S
H720 C717 0.950 . S
C721 C712 1.390 . S
C721 H714 0.950 . S
C721 C718 1.387 . S
C722 C723 1.387 . S
C722 H726 0.950 . S
C722 C731 1.390 . S
C723 C722 1.387 . S
C723 C725 1.387 . S
H724 C731 0.950 . S
C725 C723 1.387 . S
C725 C727 1.390 . S
C725 H729 0.950 . S
H726 C722 0.950 . S
C727 C725 1.390 . S
C727 C728 1.387 . S
C727 H730 0.950 . S
C728 C727 1.387 . S
C728 C731 1.387 . S
H729 C725 0.950 . S
H730 C727 0.950 . S
C731 C722 1.390 . S
C731 H724 0.950 . S
C731 C728 1.387 . S
C732 C733 1.387 . S
C732 H736 0.950 . S
C732 C741 1.390 . S
C733 C732 1.387 . S
C733 C735 1.387 . S
H734 C741 0.950 . S
C735 C733 1.387 . S
C735 C737 1.390 . S
C735 H739 0.950 . S
H736 C732 0.950 . S
C737 C735 1.390 . S
C737 C738 1.387 . S
C737 H740 0.950 . S
C738 C737 1.387 . S
C738 C741 1.387 . S
H739 C735 0.950 . S
H740 C737 0.950 . S
C741 C732 1.390 . S
C741 H734 0.950 . S
C741 C738 1.387 . S
C742 C743 1.387 . S
C742 H746 0.950 . S
C742 C751 1.390 . S
C743 C742 1.387 . S
C743 C745 1.387 . S
H744 C751 0.950 . S
C745 C743 1.387 . S
C745 C747 1.390 . S
C745 H749 0.950 . S
H746 C742 0.950 . S
C747 C745 1.390 . S
C747 C748 1.387 . S
C747 H750 0.950 . S
C748 C747 1.387 . S
C748 C751 1.387 . S
H749 C745 0.950 . S
H750 C747 0.950 . S
C751 C742 1.390 . S
C751 H744 0.950 . S
C751 C748 1.387 . S
C752 C753 1.387 . S
C752 H756 0.950 . S
C752 C761 1.390 . S
C753 C752 1.387 . S
C753 C755 1.387 . S
H754 C761 0.950 . S
C755 C753 1.387 . S
C755 C757 1.390 . S
C755 H759 0.950 . S
H756 C752 0.950 . S
C757 C755 1.390 . S
C757 C758 1.387 . S
C757 H760 0.950 . S
C758 C757 1.387 . S
C758 C761 1.387 . S
H759 C755 0.950 . S
H760 C757 0.950 . S
C761 C752 1.390 . S
C761 H754 0.950 . S
C761 C758 1.387 . S
C762 C763 1.387 . S
C762 H766 0.950 . S
C762 C771 1.390 . S
C763 C762 1.387 . S
C763 C765 1.387 . S
H764 C771 0.950 . S
C765 C763 1.387 . S
C765 C767 1.390 . S
C765 H769 0.950 . S
H766 C762 0.950 . S
C767 C765 1.390 . S
C767 C768 1.387 . S
C767 H770 0.950 . S
C768 C767 1.387 . S
C768 C771 1.387 . S
H769 C765 0.950 . S
H770 C767 0.950 . S
C771 C762 1.390 . S
C771 H764 0.950 . S
C771 C768 1.387 . S
C772 C773 1.387 . S
C772 H776 0.950 . S
C772 C781 1.390 . S
C773 C772 1.387 . S
C773 C775 1.387 . S
H774 C781 0.950 . S
C775 C773 1.387 . S
C775 C777 1.390 . S
C775 H779 0.950 . S
H776 C772 0.950 . S
C777 C775 1.390 . S
C777 C778 1.387 . S
C777 H780 0.950 . S
C778 C777 1.387 . S
C778 C781 1.387 . S
H779 C775 0.950 . S
H780 C777 0.950 . S
C781 C772 1.390 . S
C781 H774 0.950 . S
C781 C778 1.387 . S
C782 C783 1.387 . S
C782 H786 0.950 . S
C782 C791 1.390 . S
C783 C782 1.387 . S
C783 C785 1.387 . S
H784 C791 0.950 . S
C785 C783 1.387 . S
C785 C787 1.390 . S
C785 H789 0.950 . S
H786 C782 0.950 . S
C787 C785 1.390 . S
C787 C788 1.387 . S
C787 H790 0.950 . S
C788 C787 1.387 . S
C788 C791 1.387 . S
H789 C785 0.950 . S
H790 C787 0.950 . S
C791 C782 1.390 . S
C791 H784 0.950 . S
C791 C788 1.387 . S
C792 C793 1.387 . S
C792 H796 0.950 . S
C792 C801 1.390 . S
C793 C792 1.387 . S
C793 C795 1.387 . S
H794 C801 0.950 . S
C795 C793 1.387 . S
C795 C797 1.390 . S
C795 H799 0.950 . S
H796 C792 0.950 . S
C797 C795 1.390 . S
C797 C798 1.387 . S
C797 H800 0.950 . S
C798 C797 1.387 . S
C798 C801 1.387 . S
H799 C795 0.950 . S
H800 C797 0.950 . S
C801 C792 1.390 . S
C801 H794 0.950 . S
C801 C798 1.387 . S
C802 C803 1.387 . S
C802 H806 0.950 . S
C802 C811 1.390 . S
C803 C802 1.387 . S
C803 C805 1.387 . S
H804 C811 0.950 . S
C805 C803 1.387 . S
C805 C807 1.390 . S
C805 H809 0.950 . S
H806 C802 0.950 . S
C807 C805 1.390 . S
C807 C808 1.387 . S
C807 H810 0.950 . S
C808 C807 1.387 . S
C808 C811 1.387 . S
H809 C805 0.950 . S
H810 C807 0.950 . S
C811 C802 1.390 . S
C811 H804 0.950 . S
C811 C808 1.387 . S
C812 C813 1.387 . S
C812 H816 0.950 . S
C812 C821 1.390 . S
C813 C812 1.387 . S
C813 C815 1.387 . S
H814 C821 0.950 . S
C815 C813 1.387 . S
C815 C817 1.390 . S
C815 H819 0.950 . S
H816 C812 0.950 . S
C817 C815 1.390 . S
C817 C818 1.387 . S
C817 H820 0.950 . S
C818 C817 1.387 . S
C818 C821 1.387 . S
H819 C815 0.950 . S
H820 C817 0.950 . S
C821 C812 1.390 . S
C821 H814 0.950 . S
C821 C818 1.387 . S
C822 C823 1.387 . S
C822 H826 0.950 . S
C822 C831 1.390 . S
C823 C822 1.387 . S
C823 C825 1.387 . S
H824 C831 0.950 . S
C825 C823 1.387 . S
C825 C827 1.390 . S
C825 H829 0.950 . S
H826 C822 0.950 . S
C827 C825 1.390 . S
C827 C828 1.387 . S
C827 H830 0.950 . S
C828 C827 1.387 . S
C828 C831 1.387 . S
H829 C825 0.950 . S
H830 C827 0.950 . S
C831 C822 1.390 . S
C831 H824 0.950 . S
C831 C828 1.387 . S
C832 C833 1.387 . S
C832 H836 0.950 . S
C832 C841 1.390 . S
C833 C832 1.387 . S
C833 C835 1.387 . S
H834 C841 0.950 . S
C835 C833 1.387 . S
C835 C837 1.390 . S
C835 H839 0.950 . S
H836 C832 0.950 . S
C837 C835 1.390 . S
C837 C838 1.387 . S
C837 H840 0.950 . S
C838 C837 1.387 . S
C838 C841 1.387 . S
H839 C835 0.950 . S
H840 C837 0.950 . S
C841 C832 1.390 . S
C841 H834 0.950 . S
C841 C838 1.387 . S
C842 C843 1.387 . S
C842 H846 0.950 . S
C842 C851 1.390 . S
C843 C842 1.387 . S
C843 C845 1.387 . S
H844 C851 0.950 . S
C845 C843 1.387 . S
C845 C847 1.390 . S
C845 H849 0.950 . S
H846 C842 0.950 . S
C847 C845 1.390 . S
C847 C848 1.387 . S
C847 H850 0.950 . S
C848 C847 1.387 . S
C848 C851 1.387 . S
H849 C845 0.950 . S
H850 C847 0.950 . S
C851 C842 1.390 . S
C851 H844 0.950 . S
C851 C848 1.387 . S
C852 C853 1.387 . S
C852 H856 0.950 . S
C852 C861 1.390 . S
C853 C852 1.387 . S
C853 C855 1.387 . S
H854 C861 0.950 . S
C855 C853 1.387 . S
C855 C857 1.390 . S
C855 H859 0.950 . S
H856 C852 0.950 . S
C857 C855 1.390 . S
C857 C858 1.387 . S
C857 H860 0.950 . S
C858 C857 1.387 . S
C858 C861 1.387 . S
H859 C855 0.950 . S
H860 C857 0.950 . S
C861 C852 1.390 . S
C861 H854 0.950 . S
C861 C858 1.387 . S
C862 C863 1.387 . S
C862 H866 0.950 . S
C862 C871 1.390 . S
C863 C862 1.387 . S
C863 C865 1.387 . S
H864 C871 0.950 . S
C865 C863 1.387 . S
C865 C867 1.390 . S
C865 H869 0.950 . S
H866 C862 0.950 . S
C867 C865 1.390 . S
C867 C868 1.387 . S
C867 H870 0.950 . S
C868 C867 1.387 . S
C868 C871 1.387 . S
H869 C865 0.950 . S
H870 C867 0.950 . S
C871 C862 1.390 . S
C871 H864 0.950 . S
C871 C868 1.387 . S
C872 C873 1.387 . S
C872 H876 0.950 . S
C872 C881 1.390 . S
C873 C872 1.387 . S
C873 C875 1.387 . S
H874 C881 0.950 . S
C875 C873 1.387 . S
C875 C877 1.390 . S
C875 H879 0.950 . S
H876 C872 0.950 . S
C877 C875 1.390 . S
C877 C878 1.387 . S
C877 H880 0.950 . S
C878 C877 1.387 . S
C878 C881 1.387 . S
H879 C875 0.950 . S
H880 C877 0.950 . S
C881 C872 1.390 . S
C881 H874 0.950 . S
C881 C878 1.387 . S
C882 C883 1.387 . S
C882 H886 0.950 . S
C882 C891 1.390 . S
C883 C882 1.387 . S
C883 C885 1.387 . S
H884 C891 0.950 . S
C885 C883 1.387 . S
C885 C887 1.390 . S
C885 H889 0.950 . S
H886 C882 0.950 . S
C887 C885 1.390 . S
C887 C888 1.387 . S
C887 H890 0.950 . S
C888 C887 1.387 . S
C888 C891 1.387 . S
H889 C885 0.950 . S
H890 C887 0.950 . S
C891 C882 1.390 . S
C891 H884 0.950 . S
C891 C888 1.387 . S
C892 C893 1.387 . S
C892 H896 0.950 . S
C892 C901 1.390 . S
C893 C892 1.387 . S
C893 C895 1.387 . S
H894 C901 0.950 . S
C895 C893 1.387 . S
C895 C897 1.390 . S
C895 H899 0.950 . S
H896 C892 0.950 . S
C897 C895 1.390 . S
C897 C898 1.387 . S
C897 H900 0.950 . S
C898 C897 1.387 . S
C898 C901 1.387 . S
H899 C895 0.950 . S
H900 C897 0.950 . S
C901 C892 1.390 . S
C901 H894 0.950 . S
C901 C898 1.387 . S
C902 C903 1.387 . S
C902 H906 0.950 . S
C902 C911 1.390 . S
C903 C902 1.387 . S
C903 C905 1.387 . S
H904 C911 0.950 . S
C905 C903 1.387 . S
C905 C907 1.390 . S
C905 H909 0.950 . S
H906 C902 0.950 . S
C907 C905 1.390 . S
C907 C908 1.387 . S
C907 H910 0.950 . S
C908 C907 1.387 . S
C908 C911 1.387 . S
H909 C905 0.950 . S
H910 C907 0.950 . S
C911 C902 1.390 . S
C911 H904 0.950 . S
C911 C908 1.387 . S
C912 C913 1.387 . S
C912 H916 0.950 . S
C912 C921 1.390 . S
C913 C912 1.387 . S
C913 C915 1.387 . S
H914 C921 0.950 . S
C915 C913 1.387 . S
C915 C917 1.390 . S
C915 H919 0.950 . S
H916 C912 0.950 . S
C917 C915 1.390 . S
C917 C918 1.387 . S
C917 H920 0.950 . S
C918 C917 1.387 . S
C918 C921 1.387 . S
H919 C915 0.950 . S
H920 C917 0.950 . S
C921 C912 1.390 . S
C921 H914 0.950 . S
C921 C918 1.387 . S
C922 C923 1.387 . S
C922 H926 0.950 . S
C922 C931 1.390 . S
C923 C922 1.387 . S
C923 C925 1.387 . S
H924 C931 0.950 . S
C925 C923 1.387 . S
C925 C927 1.390 . S
C925 H929 0.950 . S
H926 C922 0.950 . S
C927 C925 1.390 . S
C927 C928 1.387 . S
C927 H930 0.950 . S
C928 C927 1.387 . S
C928 C931 1.387 . S
H929 C925 0.950 . S
H930 C927 0.950 . S
C931 C922 1.390 . S
C931 H924 0.950 . S
C931 C928 1.387 . S
C932 C933 1.387 . S
C932 H936 0.950 . S
C932 C941 1.390 . S
C933 C932 1.387 . S
C933 C935 1.387 . S
H934 C941 0.950 . S
C935 C933 1.387 . S
C935 C937 1.390 . S
C935 H939 0.950 . S
H936 C932 0.950 . S
C937 C935 1.390 . S
C937 C938 1.387 . S
C937 H940 0.950 . S
C938 C937 1.387 . S
C938 C941 1.387 . S
H939 C935 0.950 . S
H940 C937 0.950 . S
C941 C932 1.390 . S
C941 H934 0.950 . S
C941 C938 1.387 . S
C942 C943 1.387 . S
C942 H946 0.950 . S
C942 C951 1.390 . S
C943 C942 1.387 . S
C943 C945 1.387 . S
H944 C951 0.950 . S
C945 C943 1.387 . S
C945 C947 1.390 . S
C945 H949 0.950 . S
H946 C942 0.950 . S
C947 C945 1.390 . S
C947 C948 1.387 . S
C947 H950 0.950 . S
C948 C947 1.387 . S
C948 C951 1.387 . S
H949 C945 0.950 . S
H950 C947 0.950 . S
C951 C942 1.390 . S
C951 H944 0.950 . S
C951 C948 1.387 . S
C952 C953 1.387 . S
C952 H956 0.950 . S
C952 C961 1.390 . S
C953 C952 1.387 . S
C953 C955 1.387 . S
H954 C961 0.950 . S
C955 C953 1.387 . S
C955 C957 1.390 . S
C955 H959 0.950 . S
H956 C952 0.950 . S
C957 C955 1.390 . S
C957 C958 1.387 . S
C957 H960 0.950 . S
C958 C957 1.387 . S
C958 C961 1.387 . S
H959 C955 0.950 . S
H960 C957 0.950 . S
C961 C952 1.390 . S
C961 H954 0.950 . S
C961 C958 1.387 . S
C962 C963 1.387 . S
C962 H966 0.950 . S
C962 C971 1.390 . S
C963 C962 1.387 . S
C963 C965 1.387 . S
H964 C971 0.950 . S
C965 C963 1.387 . S
C965 C967 1.390 . S
C965 H969 0.950 . S
H966 C962 0.950 . S
C967 C965 1.390 . S
C967 C968 1.387 . S
C967 H970 0.950 . S
C968 C967 1.387 . S
C968 C971 1.387 . S
H969 C965 0.950 . S
H970 C967 0.950 . S
C971 C962 1.390 . S
C971 H964 0.950 . S
C971 C968 1.387 . S
C972 C973 1.387 . S
C972 H976 0.950 . S
C972 C981 1.390 . S
C973 C972 1.387 . S
C973 C975 1.387 . S
H974 C981 0.950 . S
C975 C973 1.387 . S
C975 C977 1.390 . S
C975 H979 0.950 . S
H976 C972 0.950 . S
C977 C975 1.390 . S
C977 C978 1.387 . S
C977 H980 0.950 . S
C978 C977 1.387 . S
C978 C981 1.387 . S
H979 C975 0.950 . S
H980 C977 0.950 . S
C981 C972 1.390 . S
C981 H974 0.950 . S
C981 C978 1.387 . S
C982 C983 1.387 . S
C982 H986 0.950 . S
C982 C991 1.390 . S
C983 C982 1.387 . S
C983 C985 1.387 . S
H984 C991 0.950 . S
C985 C983 1.387 . S
C985 C987 1.390 . S
C985 H989 0.950 . S
H986 C982 0.950 . S
C987 C985 1.390 . S
C987 C988 1.387 . S
C987 H990 0.950 . S
C988 C987 1.387 . S
C988 C991 1.387 . S
H989 C985 0.950 . S
H990 C987 0.950 . S
C991 C982 1.390 . S
C991 H984 0.950 . S
C991 C988 1.387 . S
C992 C993 1.387 . S
C992 H996 0.950 . S
C992 C1001 1.390 . S
C993 C992 1.387 . S
C993 C995 1.387 . S
H994 C1001 0.950 . S
C995 C993 1.387 . S
C995 C997 1.390 . S
C995 H999 0.950 . S
H996 C992 0.950 . S
C997 C995 1.390 . S
C997 C998 1.387 . S
C997 H1000 0.950 . S
C998 C997 1.387 . S
C998 C1001 1.387 . S
H999 C995 0.950 . S
H1000 C997 0.950 . S
C1001 C992 1.390 . S
C1001 H994 0.950 . S
C1001 C998 1.387 . S
C1002 C1003 1.387 . S
C1002 H1006 0.950 . S
C1002 C1011 1.390 . S
C1003 C1002 1.387 . S
C1003 C1005 1.387 . S
H1004 C1011 0.950 . S
C1005 C1003 1.387 . S
C1005 C1007 1.390 . S
C1005 H1009 0.950 1_556 S
H1006 C1002 0.950 . S
C1007 C1005 1.390 . S
C1007 C1008 1.387 . S
C1007 H1010 0.950 . S
C1008 C1007 1.387 . S
C1008 C1011 1.387 . S
H1009 C1005 0.950 1_554 S
H1010 C1007 0.950 . S
C1011 C1002 1.390 . S
C1011 H1004 0.950 . S
C1011 C1008 1.387 . S
C1012 C1013 1.387 . S
C1012 H1016 0.950 . S
C1012 C1021 1.390 . S
C1013 C1012 1.387 . S
C1013 C1015 1.387 . S
H1014 C1021 0.950 . S
C1015 C1013 1.387 . S
C1015 C1017 1.390 . S
C1015 H1019 0.950 1_556 S
H1016 C1012 0.950 . S
C1017 C1015 1.390 . S
C1017 C1018 1.387 . S
C1017 H1020 0.950 . S
C1018 C1017 1.387 . S
C1018 C1021 1.387 . S
H1019 C1015 0.950 1_554 S
H1020 C1017 0.950 . S
C1021 C1012 1.390 . S
C1021 H1014 0.950 . S
C1021 C1018 1.387 . S
C1022 C1023 1.387 . S
C1022 H1026 0.950 . S
C1022 C1031 1.390 . S
C1023 C1022 1.387 . S
C1023 C1025 1.387 . S
H1024 C1031 0.950 . S
C1025 C1023 1.387 . S
C1025 C1027 1.390 . S
C1025 H1029 0.950 . S
H1026 C1022 0.950 . S
C1027 C1025 1.390 . S
C1027 C1028 1.387 . S
C1027 H1030 0.950 . S
C1028 C1027 1.387 . S
C1028 C1031 1.387 . S
H1029 C1025 0.950 . S
H1030 C1027 0.950 . S
C1031 C1022 1.390 . S
C1031 H1024 0.950 . S
C1031 C1028 1.387 . S
C1032 C1033 1.387 . S
C1032 H1036 0.950 . S
C1032 C1041 1.390 . S
C1033 C1032 1.387 . S
C1033 C1035 1.387 . S
H1034 C1041 0.950 . S
C1035 C1033 1.387 . S
C1035 C1037 1.390 . S
C1035 H1039 0.950 . S
H1036 C1032 0.950 . S
C1037 C1035 1.390 . S
C1037 C1038 1.387 . S
C1037 H1040 0.950 . S
C1038 C1037 1.387 . S
C1038 C1041 1.387 . S
H1039 C1035 0.950 . S
H1040 C1037 0.950 . S
C1041 C1032 1.390 . S
C1041 H1034 0.950 . S
C1041 C1038 1.387 . S
C1042 C1043 1.387 . S
C1042 H1046 0.950 1_556 S
C1042 C1051 1.390 . S
C1043 C1042 1.387 . S
C1043 C1045 1.387 . S
H1044 C1051 0.950 . S
C1045 C1043 1.387 . S
C1045 C1047 1.390 . S
C1045 H1049 0.950 . S
H1046 C1042 0.950 1_554 S
C1047 C1045 1.390 . S
C1047 C1048 1.387 . S
C1047 H1050 0.950 . S
C1048 C1047 1.387 . S
C1048 C1051 1.387 . S
H1049 C1045 0.950 . S
H1050 C1047 0.950 . S
C1051 C1042 1.390 . S
C1051 H1044 0.950 . S
C1051 C1048 1.387 . S
C1052 C1053 1.387 . S
C1052 H1056 0.950 . S
C1052 C1061 1.390 . S
C1053 C1052 1.387 . S
C1053 C1055 1.387 . S
H1054 C1061 0.950 . S
C1055 C1053 1.387 . S
C1055 C1057 1.390 . S
C1055 H1059 0.950 . S
H1056 C1052 0.950 . S
C1057 C1055 1.390 . S
C1057 C1058 1.387 . S
C1057 H1060 0.950 . S
C1058 C1057 1.387 . S
C1058 C1061 1.387 . S
H1059 C1055 0.950 . S
H1060 C1057 0.950 . S
C1061 C1052 1.390 . S
C1061 H1054 0.950 . S
C1061 C1058 1.387 . S
C1062 C1063 1.387 . S
C1062 H1066 0.950 . S
C1062 C1071 1.390 . S
C1063 C1062 1.387 . S
C1063 C1065 1.387 . S
H1064 C1071 0.950 . S
C1065 C1063 1.387 . S
C1065 C1067 1.390 . S
C1065 H1069 0.950 . S
H1066 C1062 0.950 . S
C1067 C1065 1.390 . S
C1067 C1068 1.387 . S
C1067 H1070 0.950 . S
C1068 C1067 1.387 . S
C1068 C1071 1.387 . S
H1069 C1065 0.950 . S
H1070 C1067 0.950 . S
C1071 C1062 1.390 . S
C1071 H1064 0.950 . S
C1071 C1068 1.387 . S
C1072 C1073 1.387 . S
C1072 H1076 0.950 . S
C1072 C1081 1.390 . S
C1073 C1072 1.387 . S
C1073 C1075 1.387 . S
H1074 C1081 0.950 . S
C1075 C1073 1.387 . S
C1075 C1077 1.390 . S
C1075 H1079 0.950 . S
H1076 C1072 0.950 . S
C1077 C1075 1.390 . S
C1077 C1078 1.387 . S
C1077 H1080 0.950 . S
C1078 C1077 1.387 . S
C1078 C1081 1.387 . S
H1079 C1075 0.950 . S
H1080 C1077 0.950 . S
C1081 C1072 1.390 . S
C1081 H1074 0.950 . S
C1081 C1078 1.387 . S
C1082 C1083 1.387 . S
C1082 H1086 0.950 . S
C1082 C1091 1.390 . S
C1083 C1082 1.387 . S
C1083 C1085 1.387 . S
H1084 C1091 0.950 . S
C1085 C1083 1.387 . S
C1085 C1087 1.390 . S
C1085 H1089 0.950 . S
H1086 C1082 0.950 . S
C1087 C1085 1.390 . S
C1087 C1088 1.387 . S
C1087 H1090 0.950 . S
C1088 C1087 1.387 . S
C1088 C1091 1.387 . S
H1089 C1085 0.950 . S
H1090 C1087 0.950 . S
C1091 C1082 1.390 . S
C1091 H1084 0.950 . S
C1091 C1088 1.387 . S
C1092 C1093 1.387 . S
C1092 H1096 0.950 . S
C1092 C1101 1.390 . S
C1093 C1092 1.387 . S
C1093 C1095 1.387 . S
H1094 C1101 0.950 . S
C1095 C1093 1.387 . S
C1095 C1097 1.390 . S
C1095 H1099 0.950 . S
H1096 C1092 0.950 . S
C1097 C1095 1.390 . S
C1097 C1098 1.387 . S
C1097 H1100 0.950 . S
C1098 C1097 1.387 . S
C1098 C1101 1.387 . S
H1099 C1095 0.950 . S
H1100 C1097 0.950 . S
C1101 C1092 1.390 . S
C1101 H1094 0.950 . S
C1101 C1098 1.387 . S
C1102 C1103 1.387 . S
C1102 H1106 0.950 . S
C1102 C1111 1.390 . S
C1103 C1102 1.387 . S
C1103 C1105 1.387 . S
H1104 C1111 0.950 . S
C1105 C1103 1.387 . S
C1105 C1107 1.390 . S
C1105 H1109 0.950 . S
H1106 C1102 0.950 . S
C1107 C1105 1.390 . S
C1107 C1108 1.387 . S
C1107 H1110 0.950 . S
C1108 C1107 1.387 . S
C1108 C1111 1.387 . S
H1109 C1105 0.950 . S
H1110 C1107 0.950 . S
C1111 C1102 1.390 . S
C1111 H1104 0.950 . S
C1111 C1108 1.387 . S
C1112 C1113 1.387 . S
C1112 H1116 0.950 . S
C1112 C1121 1.390 . S
C1113 C1112 1.387 . S
C1113 C1115 1.387 . S
H1114 C1121 0.950 . S
C1115 C1113 1.387 . S
C1115 C1117 1.390 . S
C1115 H1119 0.950 . S
H1116 C1112 0.950 . S
C1117 C1115 1.390 . S
C1117 C1118 1.387 . S
C1117 H1120 0.950 . S
C1118 C1117 1.387 . S
C1118 C1121 1.387 . S
H1119 C1115 0.950 . S
H1120 C1117 0.950 . S
C1121 C1112 1.390 . S
C1121 H1114 0.950 . S
C1121 C1118 1.387 . S
C1122 C1123 1.387 . S
C1122 H1126 0.950 1_455 S
C1122 C1131 1.390 . S
C1123 C1122 1.387 . S
C1123 C1125 1.387 . S
H1124 C1131 0.950 1_655 S
C1125 C1123 1.387 . S
C1125 C1127 1.390 . S
C1125 H1129 0.950 . S
H1126 C1122 0.950 1_655 S
C1127 C1125 1.390 . S
C1127 C1128 1.387 . S
C1127 H1130 0.950 . S
C1128 C1127 1.387 . S
C1128 C1131 1.387 . S
H1129 C1125 0.950 . S
H1130 C1127 0.950 . S
C1131 C1122 1.390 . S
C1131 H1124 0.950 1_455 S
C1131 C1128 1.387 . S
C1132 C1133 1.387 . S
C1132 H1136 0.950 . S
C1132 C1141 1.390 . S
C1133 C1132 1.387 . S
C1133 C1135 1.387 . S
H1134 C1141 0.950 . S
C1135 C1133 1.387 . S
C1135 C1137 1.390 . S
C1135 H1139 0.950 . S
H1136 C1132 0.950 . S
C1137 C1135 1.390 . S
C1137 C1138 1.387 . S
C1137 H1140 0.950 . S
C1138 C1137 1.387 . S
C1138 C1141 1.387 . S
H1139 C1135 0.950 . S
H1140 C1137 0.950 . S
C1141 C1132 1.390 . S
C1141 H1134 0.950 . S
C1141 C1138 1.387 . S
C1142 C1143 1.387 . S
C1142 H1146 0.950 . S
C1142 C1151 1.390 . S
C1143 C1142 1.387 . S
C1143 C1145 1.387 1_565 S
H1144 C1151 0.950 . S
C1145 C1143 1.387 1_545 S
C1145 C1147 1.390 . S
C1145 H1149 0.950 . S
H1146 C1142 0.950 . S
C1147 C1145 1.390 . S
C1147 C1148 1.387 1_545 S
C1147 H1150 0.950 . S
C1148 C1147 1.387 1_565 S
C1148 C1151 1.387 . S
H1149 C1145 0.950 . S
H1150 C1147 0.950 . S
C1151 C1142 1.390 . S
C1151 H1144 0.950 . S
C1151 C1148 1.387 . S
C1152 C1153 1.387 . S
C1152 H1156 0.950 . S
C1152 C1161 1.390 . S
C1153 C1152 1.387 . S
C1153 C1155 1.387 1_565 S
H1154 C1161 0.950 . S
C1155 C1153 1.387 1_545 S
C1155 C1157 1.390 . S
C1155 H1159 0.950 . S
H1156 C1152 0.950 . S
C1157 C1155 1.390 . S
C1157 C1158 1.387 1_545 S
C1157 H1160 0.950 . S
C1158 C1157 1.387 1_565 S
C1158 C1161 1.387 . S
H1159 C1155 0.950 . S
H1160 C1157 0.950 . S
C1161 C1152 1.390 . S
C1161 H1154 0.950 . S
C1161 C1158 1.387 . S
C1162 C1163 1.387 . S
C1162 H1166 0.935 1_455 S
C1162 C1171 1.390 . S
C1163 C1162 1.387 . S
C1163 C1165 1.387 . S
H1164 C1171 0.950 1_655 S
C1165 C1163 1.387 . S
C1165 C1167 1.390 . S
C1165 H1169 0.950 . S
H1166 C1162 0.935 1_655 S
C1167 C1165 1.390 . S
C1167 C1168 1.387 . S
C1167 H1170 0.950 . S
C1168 C1167 1.387 . S
C1168 C1171 1.387 . S
H1169 C1165 0.950 . S
H1170 C1167 0.950 . S
C1171 C1162 1.390 . S
C1171 H1164 0.950 1_455 S
C1171 C1168 1.387 . S
C1172 C1173 1.387 . S
C1172 H1176 0.950 . S
C1172 C1181 1.390 . S
C1173 C1172 1.387 . S
C1173 C1175 1.387 . S
H1174 C1181 0.950 . S
C1175 C1173 1.387 . S
C1175 C1177 1.390 . S
C1175 H1179 0.950 . S
H1176 C1172 0.950 . S
C1177 C1175 1.390 . S
C1177 C1178 1.387 . S
C1177 H1180 0.950 . S
C1178 C1177 1.387 . S
C1178 C1181 1.387 . S
H1179 C1175 0.950 . S
H1180 C1177 0.950 . S
C1181 C1172 1.390 . S
C1181 H1174 0.950 . S
C1181 C1178 1.387 . S
C1182 C1183 1.387 . S
C1182 H1186 0.950 . S
C1182 C1191 1.390 . S
C1183 C1182 1.387 . S
C1183 C1185 1.387 . S
H1184 C1191 0.950 . S
C1185 C1183 1.387 . S
C1185 C1187 1.390 . S
C1185 H1189 0.950 . S
H1186 C1182 0.950 . S
C1187 C1185 1.390 . S
C1187 C1188 1.387 . S
C1187 H1190 0.950 . S
C1188 C1187 1.387 . S
C1188 C1191 1.387 . S
H1189 C1185 0.950 . S
H1190 C1187 0.950 . S
C1191 C1182 1.390 . S
C1191 H1184 0.950 . S
C1191 C1188 1.387 . S
C1192 C1193 1.387 . S
C1192 H1196 0.950 . S
C1192 C1201 1.390 . S
C1193 C1192 1.387 . S
C1193 C1195 1.387 . S
H1194 C1201 0.950 . S
C1195 C1193 1.387 . S
C1195 C1197 1.390 . S
C1195 H1199 0.950 . S
H1196 C1192 0.950 . S
C1197 C1195 1.390 . S
C1197 C1198 1.387 . S
C1197 H1200 0.950 . S
C1198 C1197 1.387 . S
C1198 C1201 1.387 . S
H1199 C1195 0.950 . S
H1200 C1197 0.950 . S
C1201 C1192 1.390 . S
C1201 H1194 0.950 . S
C1201 C1198 1.387 . S
C1202 C1203 1.387 . S
C1202 H1206 0.950 . S
C1202 C1211 1.390 . S
C1203 C1202 1.387 . S
C1203 C1205 1.387 . S
H1204 C1211 0.950 . S
C1205 C1203 1.387 . S
C1205 C1207 1.390 . S
C1205 H1209 0.950 . S
H1206 C1202 0.950 . S
C1207 C1205 1.390 . S
C1207 C1208 1.387 . S
C1207 H1210 0.950 . S
C1208 C1207 1.387 . S
C1208 C1211 1.387 . S
H1209 C1205 0.950 . S
H1210 C1207 0.950 . S
C1211 C1202 1.390 . S
C1211 H1204 0.950 . S
C1211 C1208 1.387 . S
C1212 C1213 1.387 . S
C1212 H1216 0.950 . S
C1212 C1221 1.390 . S
C1213 C1212 1.387 . S
C1213 C1215 1.387 1_545 S
H1214 C1221 0.950 . S
C1215 C1213 1.387 1_565 S
C1215 C1217 1.390 . S
C1215 H1219 0.950 . S
H1216 C1212 0.950 . S
C1217 C1215 1.390 . S
C1217 C1218 1.387 1_565 S
C1217 H1220 0.950 . S
C1218 C1217 1.387 1_545 S
C1218 C1221 1.387 . S
H1219 C1215 0.950 . S
H1220 C1217 0.950 . S
C1221 C1212 1.390 . S
C1221 H1214 0.950 . S
C1221 C1218 1.387 . S
C1222 C1223 1.387 1_455 S
C1222 H1226 0.950 . S
C1222 C1231 1.390 . S
C1223 C1222 1.387 1_655 S
C1223 C1225 1.387 . S
H1224 C1231 0.950 . S
C1225 C1223 1.387 . S
C1225 C1227 1.390 . S
C1225 H1229 0.950 . S
H1226 C1222 0.950 . S
C1227 C1225 1.390 . S
C1227 C1228 1.387 . S
C1227 H1230 0.950 . S
C1228 C1227 1.387 . S
C1228 C1231 1.387 1_655 S
H1229 C1225 0.950 . S
H1230 C1227 0.950 . S
C1231 C1222 1.390 . S
C1231 H1224 0.950 . S
C1231 C1228 1.387 1_455 S
C1232 C1233 1.387 . S
C1232 H1236 0.950 . S
C1232 C1241 1.390 . S
C1233 C1232 1.387 . S
C1233 C1235 1.387 . S
H1234 C1241 0.950 . S
C1235 C1233 1.387 . S
C1235 C1237 1.390 . S
C1235 H1239 0.950 . S
H1236 C1232 0.950 . S
C1237 C1235 1.390 . S
C1237 C1238 1.387 . S
C1237 H1240 0.950 . S
C1238 C1237 1.387 . S
C1238 C1241 1.387 . S
H1239 C1235 0.950 . S
H1240 C1237 0.950 . S
C1241 C1232 1.390 . S
C1241 H1234 0.950 . S
C1241 C1238 1.387 . S
C1242 C1243 1.387 . S
C1242 H1246 0.950 . S
C1242 C1251 1.390 . S
C1243 C1242 1.387 . S
C1243 C1245 1.387 . S
H1244 C1251 0.950 . S
C1245 C1243 1.387 . S
C1245 C1247 1.390 . S
C1245 H1249 0.950 . S
H1246 C1242 0.950 . S
C1247 C1245 1.390 . S
C1247 C1248 1.387 . S
C1247 H1250 0.950 . S
C1248 C1247 1.387 . S
C1248 C1251 1.387 . S
H1249 C1245 0.950 . S
H1250 C1247 0.950 . S
C1251 C1242 1.390 . S
C1251 H1244 0.950 . S
C1251 C1248 1.387 . S
C1252 C1253 1.387 . S
C1252 H1256 0.950 . S
C1252 C1261 1.390 . S
C1253 C1252 1.387 . S
C1253 C1255 1.387 . S
H1254 C1261 0.950 . S
C1255 C1253 1.387 . S
C1255 C1257 1.390 . S
C1255 H1259 0.950 . S
H1256 C1252 0.950 . S
C1257 C1255 1.390 . S
C1257 C1258 1.387 . S
C1257 H1260 0.950 . S
C1258 C1257 1.387 . S
C1258 C1261 1.387 . S
H1259 C1255 0.950 . S
H1260 C1257 0.950 . S
C1261 C1252 1.390 . S
C1261 H1254 0.950 . S
C1261 C1258 1.387 . S
C1262 C1263 1.387 . S
C1262 H1266 0.950 . S
C1262 C1271 1.390 . S
C1263 C1262 1.387 . S
C1263 C1265 1.387 . S
H1264 C1271 0.950 . S
C1265 C1263 1.387 . S
C1265 C1267 1.390 . S
C1265 H1269 0.950 . S
H1266 C1262 0.950 . S
C1267 C1265 1.390 . S
C1267 C1268 1.387 . S
C1267 H1270 0.950 . S
C1268 C1267 1.387 . S
C1268 C1271 1.387 . S
H1269 C1265 0.950 . S
H1270 C1267 0.950 . S
C1271 C1262 1.390 . S
C1271 H1264 0.950 . S
C1271 C1268 1.387 . S
C1272 C1273 1.387 . S
C1272 H1276 0.950 . S
C1272 C1281 1.390 . S
C1273 C1272 1.387 . S
C1273 C1275 1.387 . S
H1274 C1281 0.950 . S
C1275 C1273 1.387 . S
C1275 C1277 1.390 . S
C1275 H1279 0.950 . S
H1276 C1272 0.950 . S
C1277 C1275 1.390 . S
C1277 C1278 1.387 . S
C1277 H1280 0.950 . S
C1278 C1277 1.387 . S
C1278 C1281 1.387 . S
H1279 C1275 0.950 . S
H1280 C1277 0.950 . S
C1281 C1272 1.390 . S
C1281 H1274 0.950 . S
C1281 C1278 1.387 . S
C1282 C1283 1.387 . S
C1282 H1286 0.950 . S
C1282 C1291 1.390 . S
C1283 C1282 1.387 . S
C1283 C1285 1.387 . S
H1284 C1291 0.950 . S
C1285 C1283 1.387 . S
C1285 C1287 1.390 . S
C1285 H1289 0.950 . S
H1286 C1282 0.950 . S
C1287 C1285 1.390 . S
C1287 C1288 1.387 . S
C1287 H1290 0.950 . S
C1288 C1287 1.387 . S
C1288 C1291 1.387 . S
H1289 C1285 0.950 . S
H1290 C1287 0.950 . S
C1291 C1282 1.390 . S
C1291 H1284 0.950 . S
C1291 C1288 1.387 . S
C1292 C1293 1.387 . S
C1292 H1296 0.950 . S
C1292 C1301 1.390 . S
C1293 C1292 1.387 . S
C1293 C1295 1.387 . S
H1294 C1301 0.950 . S
C1295 C1293 1.387 . S
C1295 C1297 1.390 . S
C1295 H1299 0.950 . S
H1296 C1292 0.950 . S
C1297 C1295 1.390 . S
C1297 C1298 1.387 . S
C1297 H1300 0.950 . S
C1298 C1297 1.387 . S
C1298 C1301 1.387 . S
H1299 C1295 0.950 . S
H1300 C1297 0.950 . S
C1301 C1292 1.390 . S
C1301 H1294 0.950 . S
C1301 C1298 1.387 . S
C1302 C1303 1.387 . S
C1302 H1306 0.950 . S
C1302 C1311 1.390 . S
C1303 C1302 1.387 . S
C1303 C1305 1.387 1_655 S
H1304 C1311 0.950 . S
C1305 C1303 1.387 1_455 S
C1305 C1307 1.390 . S
C1305 H1309 0.950 . S
H1306 C1302 0.950 . S
C1307 C1305 1.390 . S
C1307 C1308 1.387 1_455 S
C1307 H1310 0.950 . S
C1308 C1307 1.387 1_655 S
C1308 C1311 1.387 . S
H1309 C1305 0.950 . S
H1310 C1307 0.950 . S
C1311 C1302 1.390 . S
C1311 H1304 0.950 . S
C1311 C1308 1.387 . S
C1312 C1313 1.387 . S
C1312 H1316 0.950 . S
C1312 C1321 1.390 . S
C1313 C1312 1.387 . S
C1313 C1315 1.387 . S
H1314 C1321 0.950 . S
C1315 C1313 1.387 . S
C1315 C1317 1.390 . S
C1315 H1319 0.950 . S
H1316 C1312 0.950 . S
C1317 C1315 1.390 . S
C1317 C1318 1.387 . S
C1317 H1320 0.950 . S
C1318 C1317 1.387 . S
C1318 C1321 1.387 . S
H1319 C1315 0.950 . S
H1320 C1317 0.950 . S
C1321 C1312 1.390 . S
C1321 H1314 0.950 . S
C1321 C1318 1.387 . S
C1322 C1323 1.387 1_565 S
C1322 H1326 0.950 . S
C1322 C1331 1.390 . S
C1323 C1322 1.387 1_545 S
C1323 C1325 1.387 . S
H1324 C1331 0.950 . S
C1325 C1323 1.387 . S
C1325 C1327 1.390 . S
C1325 H1329 0.950 . S
H1326 C1322 0.950 . S
C1327 C1325 1.390 . S
C1327 C1328 1.387 . S
C1327 H1330 0.950 . S
C1328 C1327 1.387 . S
C1328 C1331 1.387 1_545 S
H1329 C1325 0.950 . S
H1330 C1327 0.950 . S
C1331 C1322 1.390 . S
C1331 H1324 0.950 . S
C1331 C1328 1.387 1_565 S
C613 C10 1.629 . S
C618 C440 1.562 . S
C623 C23 1.617 . S
C628 C453 1.582 . S
C638 C482 1.538 1_545 S
C633 C29 1.619 . S
C643 C30 1.617 . S
C648 C495 1.584 . S
C653 C5 1.630 . S
C658 C516 1.601 . S
C663 C18 1.618 . S
C668 C545 1.556 . S
C673 C49 1.624 . S
C678 C524 1.574 . S
C688 C537 1.566 . S
C683 C62 1.612 . S
C698 C503 1.564 . S
C693 C70 1.610 . S
C703 C75 1.611 . S
C708 C474 1.565 1_545 S
C718 C432 1.576 . S
C713 C44 1.622 . S
C723 C57 1.613 . S
C728 C461 1.566 . S
C733 C88 1.630 . S
C738 C566 1.565 . S
C743 C101 1.617 . S
C748 C579 1.584 . S
C758 C608 1.556 . S
C753 C107 1.617 . S
C763 C108 1.617 . S
C768 C243 1.584 . S
C773 C83 1.630 . S
C778 C264 1.600 . S
C783 C96 1.619 . S
C788 C293 1.559 . S
C793 C127 1.624 . S
C798 C272 1.576 . S
C803 C140 1.612 . S
C808 C285 1.566 . S
C818 C251 1.566 . S
C813 C146 1.611 . S
C828 C600 1.563 . S
C823 C147 1.610 . S
C838 C558 1.577 . S
C833 C122 1.622 . S
C848 C587 1.566 . S
C843 C135 1.613 . S
C853 C160 1.630 . S
C858 C314 1.565 . S
C863 C173 1.617 . S
C868 C327 1.582 . S
C873 C185 1.616 . S
C878 C356 1.554 . S
C883 C186 1.617 . S
C888 C369 1.584 . S
C898 C390 1.600 . S
C893 C159 1.629 . S
C908 C419 1.556 . S
C903 C172 1.618 . S
C918 C398 1.575 . S
C913 C205 1.624 . S
C928 C411 1.564 . S
C923 C218 1.611 . S
C933 C224 1.610 . S
C938 C377 1.564 . S
C948 C348 1.563 . S
C943 C225 1.610 . S
C953 C200 1.622 . S
C958 C306 1.576 . S
C968 C335 1.566 . S
C963 C213 1.613 . S
C978 C246 1.380 . S
C973 C4 1.519 . S
C983 C17 1.505 . S
C988 C267 1.365 . S
C998 C295 1.420 . S
C993 C31 1.512 . S
C1008 C316 1.412 . S
C1003 C36 1.500 . S
C1018 C330 1.375 . S
C1013 C3 1.521 . S
C1028 C358 1.422 . S
C1023 C16 1.514 . S
C1033 C43 1.519 . S
C1038 C351 1.388 . S
C1043 C56 1.505 . S
C1048 C309 1.376 . S
C1053 C68 1.512 . S
C1058 C337 1.411 . S
C1063 C69 1.501 . S
C1068 C274 1.401 . S
C1078 C288 1.385 . S
C1073 C42 1.521 . S
C1083 C55 1.514 . S
C1088 C253 1.413 . S
C1098 C372 1.380 . S
C1093 C82 1.519 . S
C1103 C95 1.506 . S
C1108 C393 1.369 . S
C1113 C109 1.513 . S
C1118 C421 1.417 . S
C1128 C442 1.412 . S
C1123 C114 1.500 . S
C1133 C81 1.521 . S
C1138 C456 1.379 . S
C1143 C94 1.514 . S
C1148 C484 1.421 . S
C1153 C121 1.519 . S
C1158 C477 1.386 . S
C1163 C134 1.505 . S
C1168 C435 1.375 . S
C1178 C463 1.409 . S
C1173 C148 1.512 . S
C1183 C153 1.502 . S
C1188 C400 1.403 . S
C1193 C120 1.520 . S
C1198 C414 1.387 . S
C1208 C379 1.410 . S
C1203 C133 1.514 . S
C1218 C498 1.376 . S
C1213 C166 1.519 . S
C1223 C179 1.506 . S
C1228 C519 1.370 1_655 S
C1233 C187 1.512 . S
C1238 C547 1.420 . S
C1248 C568 1.409 . S
C1243 C192 1.501 . S
C1258 C582 1.378 . S
C1253 C161 1.522 . S
C1263 C174 1.514 . S
C1268 C610 1.422 . S
C1273 C199 1.519 . S
C1278 C603 1.388 . S
C1283 C212 1.505 . S
C1288 C561 1.376 . S
C1298 C589 1.408 . S
C1293 C226 1.511 . S
C1308 C526 1.404 1_655 S
C1303 C231 1.499 . S
C1318 C540 1.387 . S
C1313 C198 1.520 . S
C1323 C211 1.514 . S
C1328 C505 1.410 . S
