# Generated by pormake.
# Topology the, (3,8)-cn, num edge types: 1
# Building blocks:
#     Node 0, Type 0, BuildingBlock: ESEHIV_clean_linker_0, # of connection points: 3
#     Node 1, Type 0, BuildingBlock: ESEHIV_clean_linker_0, # of connection points: 3
#     Node 2, Type 0, BuildingBlock: ESEHIV_clean_linker_0, # of connection points: 3
#     Node 3, Type 0, BuildingBlock: ESEHIV_clean_linker_0, # of connection points: 3
#     Node 4, Type 0, BuildingBlock: ESEHIV_clean_linker_0, # of connection points: 3
#     Node 5, Type 0, BuildingBlock: ESEHIV_clean_linker_0, # of connection points: 3
#     Node 6, Type 0, BuildingBlock: ESEHIV_clean_linker_0, # of connection points: 3
#     Node 7, Type 0, BuildingBlock: ESEHIV_clean_linker_0, # of connection points: 3
#     Node 8, Type 1, BuildingBlock: GIZVER_clean_sbu_0, # of connection points: 8
#     Node 9, Type 1, BuildingBlock: GIZVER_clean_sbu_0, # of connection points: 8
#     Node 10, Type 1, BuildingBlock: GIZVER_clean_sbu_0, # of connection points: 8
#     Edge 11, Type (0, 1), BuildingBlock: AJUNOK_clean_linker_0, # of connection points: 2
#     Edge 12, Type (0, 1), BuildingBlock: AJUNOK_clean_linker_0, # of connection points: 2
#     Edge 13, Type (0, 1), BuildingBlock: AJUNOK_clean_linker_0, # of connection points: 2
#     Edge 14, Type (0, 1), BuildingBlock: AJUNOK_clean_linker_0, # of connection points: 2
#     Edge 15, Type (0, 1), BuildingBlock: AJUNOK_clean_linker_0, # of connection points: 2
#     Edge 16, Type (0, 1), BuildingBlock: AJUNOK_clean_linker_0, # of connection points: 2
#     Edge 17, Type (0, 1), BuildingBlock: AJUNOK_clean_linker_0, # of connection points: 2
#     Edge 18, Type (0, 1), BuildingBlock: AJUNOK_clean_linker_0, # of connection points: 2
#     Edge 19, Type (0, 1), BuildingBlock: AJUNOK_clean_linker_0, # of connection points: 2
#     Edge 20, Type (0, 1), BuildingBlock: AJUNOK_clean_linker_0, # of connection points: 2
#     Edge 21, Type (0, 1), BuildingBlock: AJUNOK_clean_linker_0, # of connection points: 2
#     Edge 22, Type (0, 1), BuildingBlock: AJUNOK_clean_linker_0, # of connection points: 2
#     Edge 23, Type (0, 1), BuildingBlock: AJUNOK_clean_linker_0, # of connection points: 2
#     Edge 24, Type (0, 1), BuildingBlock: AJUNOK_clean_linker_0, # of connection points: 2
#     Edge 25, Type (0, 1), BuildingBlock: AJUNOK_clean_linker_0, # of connection points: 2
#     Edge 26, Type (0, 1), BuildingBlock: AJUNOK_clean_linker_0, # of connection points: 2
#     Edge 27, Type (0, 1), BuildingBlock: AJUNOK_clean_linker_0, # of connection points: 2
#     Edge 28, Type (0, 1), BuildingBlock: AJUNOK_clean_linker_0, # of connection points: 2
#     Edge 29, Type (0, 1), BuildingBlock: AJUNOK_clean_linker_0, # of connection points: 2
#     Edge 30, Type (0, 1), BuildingBlock: AJUNOK_clean_linker_0, # of connection points: 2
#     Edge 31, Type (0, 1), BuildingBlock: AJUNOK_clean_linker_0, # of connection points: 2
#     Edge 32, Type (0, 1), BuildingBlock: AJUNOK_clean_linker_0, # of connection points: 2
#     Edge 33, Type (0, 1), BuildingBlock: AJUNOK_clean_linker_0, # of connection points: 2
#     Edge 34, Type (0, 1), BuildingBlock: AJUNOK_clean_linker_0, # of connection points: 2
# Relax obj value: 0.055
# Max RMSD: 0.137
# Mean RMSD: 0.083
data_MOF--net-the--node1-GIZVER_clean_sbu_0--node2-ESEHIV_clean_linker_0--edge1-AJUNOK_clean_linker_0
_symmetry_space_group_name_H-M    P1
_symmetry_Int_Tables_number       1
_symmetry_cell_setting            triclinic
loop_
_symmetry_equiv_pos_as_xyz
'x, y, z'
_cell_length_a     28.903047
_cell_length_b     27.061819
_cell_length_c     24.923313
_cell_angle_alpha  86.160706
_cell_angle_beta   98.521439
_cell_angle_gamma 109.55627
loop_
_atom_site_label
_atom_site_type_symbol
_atom_site_fract_x
_atom_site_fract_y
_atom_site_fract_z
_atom_type_partial_charge
H0 H 0.29814 0.40865 0.3644 0.0
H1 H 0.39587 0.31844 0.37203 0.0
H2 H 0.2946 0.29035 0.48992 0.0
C3 C 0.31226 0.37866 0.38424 0.0
C4 C 0.29309 0.35188 0.43041 0.0
C5 C 0.34928 0.36671 0.36329 0.0
C6 C 0.36749 0.3282 0.38876 0.0
C7 C 0.34768 0.30043 0.43416 0.0
C8 C 0.31 0.31181 0.4548 0.0
H9 H 0.75197 0.2934 0.38638 0.0
H10 H 0.76027 0.42883 0.28298 0.0
H11 H 0.62297 0.301 0.28053 0.0
C12 C 0.73417 0.31355 0.35537 0.0
C13 C 0.68445 0.28901 0.33325 0.0
C14 C 0.76124 0.36474 0.33923 0.0
C15 C 0.7391 0.3902 0.29672 0.0
C16 C 0.68927 0.36629 0.27348 0.0
C17 C 0.6623 0.31693 0.29407 0.0
H18 H 0.68669 0.80188 0.27555 0.0
H19 H 0.77641 0.70395 0.27176 0.0
H20 H 0.79558 0.79698 0.41135 0.0
C21 C 0.71778 0.78944 0.29295 0.0
C22 C 0.74122 0.80574 0.34536 0.0
C23 C 0.72972 0.75223 0.26589 0.0
C24 C 0.7686 0.73487 0.29036 0.0
C25 C 0.79314 0.75151 0.34234 0.0
C26 C 0.77963 0.78739 0.36962 0.0
H27 H 0.29081 0.73736 0.39905 0.0
H28 H 0.40817 0.74942 0.30624 0.0
H29 H 0.26769 0.62909 0.2703 0.0
C30 C 0.30329 0.72413 0.3655 0.0
C31 C 0.27315 0.67788 0.33794 0.0
C32 C 0.35132 0.75149 0.35252 0.0
C33 C 0.36995 0.73098 0.31323 0.0
C34 C 0.34049 0.68537 0.28511 0.0
C35 C 0.29121 0.66185 0.29496 0.0
H36 H 0.34136 0.7628 0.66559 0.0
H37 H 0.3265 0.62581 0.76957 0.0
H38 H 0.45766 0.76071 0.79408 0.0
C39 C 0.3554 0.74337 0.70048 0.0
C40 C 0.40356 0.76771 0.72714 0.0
C41 C 0.32615 0.69285 0.7167 0.0
C42 C 0.34661 0.66616 0.75957 0.0
C43 C 0.39474 0.69038 0.78658 0.0
C44 C 0.42118 0.74196 0.77216 0.0
H45 H 0.30025 0.35439 0.77552 0.0
H46 H 0.40786 0.27553 0.78522 0.0
H47 H 0.29884 0.25932 0.64383 0.0
C48 C 0.31378 0.32624 0.75955 0.0
C49 C 0.29311 0.30585 0.70791 0.0
C50 C 0.35569 0.31636 0.78749 0.0
C51 C 0.37448 0.28201 0.76488 0.0
C52 C 0.35372 0.26043 0.71332 0.0
C53 C 0.3127 0.27235 0.68512 0.0
H54 H 0.68025 0.29602 0.75275 0.0
H55 H 0.79788 0.32022 0.6569 0.0
H56 H 0.81113 0.43138 0.77921 0.0
C57 C 0.71736 0.31838 0.74432 0.0
C58 C 0.74325 0.36607 0.77085 0.0
C59 C 0.7374 0.30105 0.70417 0.0
C60 C 0.78403 0.33201 0.6903 0.0
C61 C 0.81121 0.37952 0.71688 0.0
C62 C 0.79092 0.39506 0.75841 0.0
H63 H 0.68571 0.72311 0.68471 0.0
H64 H 0.78825 0.64095 0.67785 0.0
H65 H 0.78805 0.76999 0.56688 0.0
C66 C 0.71455 0.71701 0.66533 0.0
C67 C 0.7339 0.75043 0.62277 0.0
C68 C 0.73422 0.67772 0.6852 0.0
C69 C 0.77251 0.671 0.66181 0.0
C70 C 0.79152 0.70388 0.61877 0.0
C71 C 0.77272 0.74406 0.5996 0.0
Co72 Co 0.13268 0.47444 0.5684 0.0
Co73 Co 0.0741 0.44778 0.47412 0.0
Co74 Co 0.04319 0.52943 0.52852 0.0
O75 O 0.06434 0.46622 0.54248 0.0
H76 H 0.04092 0.43746 0.55957 0.0
O77 O 1.02217 0.59264 0.51372 0.0
Co78 Co 0.9541 0.58362 0.48546 0.0
Co79 Co 1.0109 0.61202 0.58026 0.0
H80 H 0.04578 0.62133 0.49676 0.0
O81 O 0.08775 0.38591 0.4618 0.0
O82 O 0.14107 0.46132 0.49526 0.0
O83 O 0.07342 0.49763 0.41436 0.0
O84 O 0.09007 0.56111 0.47273 0.0
O85 O 0.98899 0.48948 0.47012 0.0
O86 O 0.89377 0.58086 0.45853 0.0
O87 O 0.96309 0.65084 0.46062 0.0
O88 O 0.93451 0.51252 0.50537 0.0
O89 O 0.99617 0.49791 0.58465 0.0
O90 O 1.00849 0.56269 0.64055 0.0
O91 O 0.9447 0.6011 0.55667 0.0
O92 O 1.00041 0.67571 0.58979 0.0
C93 C 0.17163 0.42609 0.60197 0.0
C94 C 0.14274 0.575 0.58379 0.0
C95 C 0.09446 0.54531 0.4272 0.0
C96 C 0.13292 0.4153 0.47702 0.0
C97 C 0.91516 0.62999 0.44705 0.0
C98 C 0.94376 0.48365 0.47349 0.0
C99 C 0.9892 0.51462 0.62862 0.0
C100 C 0.95492 0.64846 0.57277 0.0
O101 O 0.19341 0.47579 0.5932 0.0
O102 O 0.12355 0.40623 0.58919 0.0
O103 O 0.09746 0.56931 0.58694 0.0
O104 O 0.15226 0.54636 0.55191 0.0
Co105 Co 0.59214 0.93832 0.49523 0.0
Co106 Co 0.62489 0.98283 0.59157 0.0
Co107 Co 0.54285 0.02709 0.53001 0.0
O108 O 0.60129 1.00538 0.52332 0.0
H109 H 0.62759 0.03307 0.50882 0.0
O110 O 0.48483 0.04975 0.53616 0.0
Co111 Co 0.49643 0.11718 0.5661 0.0
Co112 Co 0.46333 0.07579 0.46826 0.0
H113 H 0.45799 1.02222 0.55 0.0
O114 O 0.68583 0.96896 0.6068 0.0
O115 O 0.61332 0.91601 0.56769 0.0
O116 O 0.58209 0.97086 0.64712 0.0
O117 O 0.51707 0.97206 0.5877 0.0
O118 O 0.58699 0.07934 0.58669 0.0
O119 O 0.50223 0.17681 0.59535 0.0
O120 O 0.43607 0.10333 0.58908 0.0
O121 O 0.56038 0.14127 0.54754 0.0
O122 O 0.56915 0.08163 0.47257 0.0
O123 O 0.50758 0.09163 0.41294 0.0
O124 O 0.47309 0.14114 0.49507 0.0
O125 O 0.40167 0.08748 0.45404 0.0
C126 C 0.63456 0.90502 0.45967 0.0
C127 C 0.49479 0.92603 0.47869 0.0
C128 C 0.53558 0.95674 0.63292 0.0
C129 C 0.65872 0.92335 0.58792 0.0
C130 C 0.45738 0.15174 0.60528 0.0
C131 C 0.59284 0.12817 0.57921 0.0
C132 C 0.55349 0.10022 0.4278 0.0
C133 C 0.42722 0.13245 0.47551 0.0
O134 O 0.5894 0.87864 0.46778 0.0
O135 O 0.6538 0.9537 0.47532 0.0
O136 O 0.49882 0.97465 0.47327 0.0
O137 O 0.52709 0.91327 0.5111 0.0
Co138 Co 0.48804 0.55929 0.12759 0.0
Co139 Co 0.4701 0.46208 0.10319 0.0
Co140 Co 0.54478 0.53058 0.0282 0.0
O141 O 0.48508 0.52379 0.06296 0.0
H142 H 0.45685 0.5237 0.03674 0.0
O143 O 0.60404 0.53608 0.99251 0.0
Co144 Co 0.59592 0.49631 0.92856 0.0
Co145 Co 0.62061 0.59539 0.9488 0.0
H146 H 0.63232 0.53524 1.01819 0.0
O147 O 0.40773 0.42951 0.12131 0.0
O148 O 0.47131 0.49129 0.16848 0.0
O149 O 0.51757 0.42443 0.11521 0.0
O150 O 0.57689 0.49403 0.08925 0.0
O151 O 0.5057 0.46233 0.99109 0.0
O152 O 0.59336 0.45917 0.87155 0.0
O153 O 0.65824 0.49177 0.93575 0.0
O154 O 0.52991 0.49392 0.91252 0.0
O155 O 0.51295 0.56833 0.9675 0.0
O156 O 0.57293 0.6314 0.93241 0.0
O157 O 0.61595 0.56142 0.88527 0.0
O158 O 0.68275 0.62315 0.92629 0.0
C159 C 0.44038 0.58527 0.16279 0.0
C160 C 0.58633 0.60244 0.1173 0.0
C161 C 0.56307 0.45012 0.1147 0.0
C162 C 0.42807 0.45486 0.16587 0.0
C163 C 0.6388 0.46432 0.89179 0.0
C164 C 0.49908 0.46097 0.93941 0.0
C165 C 0.52742 0.60871 0.93657 0.0
C166 C 0.66037 0.59434 0.88442 0.0
O167 O 0.48548 0.59281 0.18567 0.0
O168 O 0.42367 0.55768 0.1187 0.0
O169 O 0.58332 0.59851 0.06595 0.0
O170 O 0.5559 0.56836 0.14405 0.0
C171 C 0.20711 0.32951 0.45186 0.0
C172 C 0.25478 0.36614 0.45172 0.0
C173 C 0.16779 0.34533 0.46175 0.0
C174 C 0.17531 0.3981 0.47207 0.0
H175 H 0.19971 0.28909 0.44149 0.0
H176 H 0.13112 0.31637 0.45975 0.0
S177 S 0.29522 0.5078 0.48062 0.0
N178 N 0.30871 0.45592 0.46644 0.0
N179 N 0.23533 0.48626 0.48508 0.0
C180 C 0.22375 0.43441 0.47506 0.0
C181 C 0.26343 0.41823 0.46483 0.0
C182 C 0.66229 0.22287 0.40966 0.0
C183 C 0.65423 0.23641 0.35428 0.0
C184 C 0.63163 0.17661 0.4317 0.0
C185 C 0.59002 0.14279 0.4002 0.0
H186 H 0.69128 0.24904 0.43715 0.0
H187 H 0.63925 0.1688 0.47465 0.0
S188 S 0.55685 0.15391 0.25163 0.0
N189 N 0.60601 0.20619 0.26655 0.0
N190 N 0.54548 0.12227 0.30977 0.0
C191 C 0.5826 0.15406 0.34447 0.0
C192 C 0.61524 0.20007 0.32122 0.0
C193 C 0.87518 0.7458 0.38789 0.0
C194 C 0.82412 0.72192 0.37195 0.0
C195 C 0.90471 0.71604 0.41227 0.0
C196 C 0.88397 0.66156 0.4216 0.0
H197 H 0.89247 0.78737 0.38046 0.0
H198 H 0.94398 0.73579 0.42352 0.0
S199 S 0.75057 0.58208 0.39054 0.0
N200 N 0.75343 0.64205 0.3698 0.0
N201 N 0.80792 0.586 0.41491 0.0
C202 C 0.8324 0.63789 0.40698 0.0
C203 C 0.80275 0.66811 0.38238 0.0
C204 C 0.42706 0.79112 0.41799 0.0
C205 C 0.38524 0.79682 0.38533 0.0
C206 C 0.46116 0.83294 0.44801 0.0
C207 C 0.45581 0.88315 0.44622 0.0
H208 H 0.43351 0.75377 0.42042 0.0
H209 H 0.49242 0.82551 0.47253 0.0
S210 S 0.3517 0.91831 0.36688 0.0
N211 N 0.33917 0.85582 0.35332 0.0
N212 N 0.40412 0.93533 0.40895 0.0
C213 C 0.41379 0.88936 0.41376 0.0
C214 C 0.37835 0.84606 0.38363 0.0
C215 C 0.27385 0.66418 0.62716 0.0
C216 C 0.27711 0.66596 0.68397 0.0
C217 C 0.22932 0.63714 0.59517 0.0
C218 C 0.18559 0.61137 0.6182 0.0
H219 H 0.30652 0.68231 0.60728 0.0
H220 H 0.22948 0.63518 0.5519 0.0
S221 S 0.1732 0.60589 0.76459 0.0
N222 N 0.23197 0.64075 0.76183 0.0
N223 N 0.14802 0.59048 0.70135 0.0
C224 C 0.18766 0.61425 0.67468 0.0
C225 C 0.23344 0.6412 0.70759 0.0
C226 C 0.35527 0.18257 0.66407 0.0
C227 C 0.37998 0.23286 0.68553 0.0
C228 C 0.38038 0.15626 0.63843 0.0
C229 C 0.43099 0.17955 0.63282 0.0
H230 H 0.31642 0.16324 0.66771 0.0
H231 H 0.35992 0.11751 0.62279 0.0
S232 S 0.51122 0.31298 0.67848 0.0
N233 N 0.45679 0.30626 0.69662 0.0
N234 N 0.50411 0.25749 0.64932 0.0
C235 C 0.45565 0.23051 0.6532 0.0
C236 C 0.43015 0.25696 0.67928 0.0
C237 C 0.89337 0.39425 0.68282 0.0
C238 C 0.85846 0.41498 0.69799 0.0
C239 C 0.93651 0.42668 0.66214 0.0
C240 C 0.94728 0.48136 0.65713 0.0
H241 H 0.88708 0.35248 0.68637 0.0
H242 H 0.9614 0.40876 0.64948 0.0
S243 S 0.86683 0.55544 0.68697 0.0
N244 N 0.83648 0.49392 0.70206 0.0
N245 N 0.91863 0.55463 0.66741 0.0
C246 C 0.91315 0.50271 0.67282 0.0
C247 C 0.8686 0.46968 0.69218 0.0
C248 C 0.74751 0.84591 0.6112 0.0
C249 C 0.71531 0.794 0.6057 0.0
C250 C 0.72908 0.88791 0.60415 0.0
C251 C 0.67799 0.8791 0.59108 0.0
H252 H 0.78685 0.85391 0.62347 0.0
H253 H 0.7549 0.92734 0.61019 0.0
S254 S 0.57927 0.74959 0.56748 0.0
N255 N 0.63112 0.73567 0.58275 0.0
N256 N 0.59584 0.81407 0.56956 0.0
C257 C 0.64577 0.82713 0.58288 0.0
C258 C 0.66463 0.78465 0.59019 0.0
C259 C 0.33494 0.20569 0.44989 0.0
C260 C 0.36563 0.25794 0.45728 0.0
C261 C 0.35481 0.16476 0.45825 0.0
C262 C 0.40589 0.1751 0.47413 0.0
H263 H 0.29605 0.19675 0.43426 0.0
H264 H 0.33032 0.1251 0.44999 0.0
S265 S 0.50017 0.30603 0.50502 0.0
N266 N 0.44772 0.3181 0.48641 0.0
N267 N 0.48585 0.24187 0.5015 0.0
C268 C 0.43622 0.22731 0.48518 0.0
C269 C 0.41582 0.26864 0.47688 0.0
C270 C 0.81305 0.3942 0.42853 0.0
C271 C 0.81014 0.39276 0.37169 0.0
C272 C 0.85719 0.42156 0.46091 0.0
C273 C 0.90097 0.448 0.43829 0.0
H274 H 0.78037 0.37524 0.44817 0.0
H275 H 0.85676 0.42296 0.50419 0.0
S276 S 0.91421 0.45525 0.29197 0.0
N277 N 0.85558 0.41953 0.2942 0.0
N278 N 0.93894 0.47035 0.35541 0.0
C279 C 0.89923 0.44578 0.38173 0.0
C280 C 0.85376 0.41852 0.34839 0.0
C281 C 0.73692 0.88378 0.39209 0.0
C282 C 0.71678 0.83052 0.37859 0.0
C283 C 0.71071 0.90761 0.41937 0.0
C284 C 0.66353 0.87891 0.43392 0.0
H285 H 0.77243 0.90736 0.38029 0.0
H286 H 0.7271 0.949 0.42805 0.0
S287 S 0.59736 0.73656 0.41123 0.0
N288 N 0.64908 0.74899 0.38448 0.0
N289 N 0.59975 0.79286 0.43518 0.0
C290 C 0.64415 0.82497 0.42206 0.0
C291 C 0.67079 0.80104 0.39455 0.0
C292 C 0.19387 0.6655 0.37801 0.0
C293 C 0.22518 0.64356 0.3568 0.0
C294 C 0.15048 0.63367 0.39872 0.0
C295 C 0.13566 0.57853 0.39765 0.0
H296 H 0.20313 0.70765 0.3793 0.0
H297 H 0.12869 0.65241 0.41638 0.0
S298 S 0.20441 0.50042 0.34857 0.0
N299 N 0.2387 0.56196 0.33983 0.0
N300 N 0.15571 0.50326 0.37358 0.0
C301 C 0.16569 0.55601 0.37532 0.0
C302 C 0.21069 0.58814 0.35627 0.0
C303 C 0.42156 0.85961 0.6864 0.0
C304 C 0.43786 0.81707 0.70504 0.0
C305 C 0.45364 0.9056 0.66463 0.0
C306 C 0.50347 0.91123 0.66177 0.0
H307 H 0.38373 0.8573 0.68845 0.0
H308 H 0.43928 0.93684 0.64961 0.0
S309 S 0.56333 0.80962 0.69954 0.0
N310 N 0.50628 0.78227 0.71392 0.0
N311 N 0.56667 0.86911 0.6765 0.0
C312 C 0.52014 0.86902 0.68014 0.0
C313 C 0.48736 0.82192 0.70082 0.0
C314 C 0.20948 0.31166 0.66903 0.0
C315 C 0.26142 0.33187 0.67363 0.0
C316 C 0.18026 0.34156 0.64412 0.0
C317 C 0.20225 0.39289 0.62415 0.0
H318 H 0.19153 0.27343 0.68633 0.0
H319 H 0.14038 0.32507 0.64229 0.0
S320 S 0.3375 0.46161 0.6248 0.0
N321 N 0.33365 0.40421 0.65423 0.0
N322 N 0.27982 0.46095 0.6089 0.0
C323 C 0.25438 0.41244 0.62733 0.0
C324 C 0.28367 0.38178 0.65175 0.0
C325 C 0.69339 0.20387 0.69025 0.0
C326 C 0.70539 0.25595 0.67017 0.0
C327 C 0.65899 0.16187 0.65959 0.0
C328 C 0.63452 0.17084 0.60849 0.0
H329 H 0.71 0.19574 0.73026 0.0
H330 H 0.64994 0.12259 0.67703 0.0
S331 S 0.65391 0.30081 0.53839 0.0
N332 N 0.69156 0.31406 0.59605 0.0
N333 N 0.62613 0.23671 0.53937 0.0
C334 C 0.64717 0.22304 0.58802 0.0
C335 C 0.68271 0.26516 0.61863 0.0
C336 C 0.82481 0.64755 0.57382 0.0
C337 C 0.83221 0.69622 0.59584 0.0
C338 C 0.86488 0.63388 0.56354 0.0
C339 C 0.91377 0.66838 0.57529 0.0
H340 H 0.78801 0.61875 0.5674 0.0
H341 H 0.85731 0.5947 0.54921 0.0
S342 S 0.9512 0.80368 0.62637 0.0
N343 N 0.8903 0.78129 0.62395 0.0
N344 N 0.96657 0.75588 0.60421 0.0
C345 C 0.92121 0.71892 0.59339 0.0
C346 C 0.88007 0.73283 0.60374 0.0
C347 C 0.41803 0.42161 0.31409 0.0
C348 C 0.36764 0.39267 0.31336 0.0
C349 C 0.43689 0.44353 0.26624 0.0
C350 C 0.40603 0.43627 0.21608 0.0
H351 H 0.44306 0.42673 0.35179 0.0
H352 H 0.47622 0.46474 0.26842 0.0
S353 S 0.27063 0.36588 0.19388 0.0
N354 N 0.28666 0.35975 0.25975 0.0
N355 N 0.32213 0.40032 0.16921 0.0
C356 C 0.35526 0.40831 0.21519 0.0
C357 C 0.33602 0.38669 0.26408 0.0
C358 C 0.41385 0.6472 0.8768 0.0
C359 C 0.42266 0.66086 0.8228 0.0
C360 C 0.44693 0.62869 0.91354 0.0
C361 C 0.49036 0.62459 0.89764 0.0
H362 H 0.38244 0.65281 0.89121 0.0
H363 H 0.43959 0.61964 0.95507 0.0
S364 S 0.52653 0.64923 0.75893 0.0
N365 N 0.47491 0.66368 0.7541 0.0
N366 N 0.53725 0.6307 0.8227 0.0
C367 C 0.498 0.63584 0.84308 0.0
C368 C 0.46413 0.65351 0.80583 0.0
C369 C 0.39827 0.40595 0.82441 0.0
C370 C 0.38607 0.35131 0.83251 0.0
C371 C 0.43245 0.44099 0.86154 0.0
C372 C 0.45559 0.42303 0.90869 0.0
H373 H 0.3834 0.42198 0.78748 0.0
H374 H 0.44248 0.48263 0.85208 0.0
S375 S 0.4342 0.28428 0.95142 0.0
N376 N 0.39783 0.28093 0.893 0.0
N377 N 0.46226 0.3474 0.96336 0.0
C378 C 0.44202 0.36874 0.91906 0.0
C379 C 0.4074 0.33274 0.8807 0.0
C380 C 0.66961 0.3903 0.78504 0.0
C381 C 0.71751 0.3894 0.80484 0.0
C382 C 0.6451 0.41464 0.8135 0.0
C383 C 0.6672 0.43949 0.8633 0.0
H384 H 0.6511 0.37301 0.74637 0.0
H385 H 0.60843 0.4142 0.79569 0.0
S386 S 0.79171 0.44691 0.93409 0.0
N387 N 0.78584 0.41439 0.87832 0.0
N388 N 0.73992 0.46072 0.93172 0.0
C389 C 0.71507 0.43874 0.88391 0.0
C390 C 0.74014 0.4137 0.85476 0.0
C391 C 0.74862 0.66 0.78377 0.0
C392 C 0.71793 0.64772 0.73405 0.0
C393 C 0.7306 0.63967 0.83247 0.0
C394 C 0.68142 0.60622 0.83275 0.0
H395 H 0.78582 0.68781 0.78517 0.0
H396 H 0.75468 0.65225 0.87017 0.0
S397 S 0.58926 0.5564 0.7113 0.0
N398 N 0.63856 0.59656 0.68655 0.0
N399 N 0.60439 0.55679 0.77785 0.0
C400 C 0.65177 0.59036 0.78257 0.0
C401 C 0.67007 0.61174 0.73316 0.0
C402 C 0.6433 0.70393 0.22576 0.0
C403 C 0.69406 0.72188 0.22048 0.0
C404 C 0.60894 0.66755 0.19018 0.0
C405 C 0.62335 0.64719 0.14748 0.0
H406 H 0.62999 0.71557 0.25965 0.0
H407 H 0.57082 0.65406 0.19755 0.0
S408 S 0.7508 0.68439 0.11217 0.0
N409 N 0.75669 0.71937 0.16619 0.0
N410 N 0.69129 0.65003 0.09925 0.0
C411 C 0.6734 0.66664 0.13947 0.0
C412 C 0.7089 0.70397 0.17611 0.0
C413 C 0.39203 0.68658 0.21095 0.0
C414 C 0.36248 0.65851 0.25035 0.0
C415 C 0.41512 0.66182 0.18051 0.0
C416 C 0.40915 0.60812 0.18804 0.0
H417 H 0.39791 0.72806 0.20416 0.0
H418 H 0.43887 0.68515 0.15188 0.0
S419 S 0.33898 0.51792 0.28836 0.0
N420 N 0.33131 0.57446 0.29699 0.0
N421 N 0.3733 0.52838 0.23872 0.0
C422 C 0.3797 0.57971 0.22687 0.0
C423 C 0.35666 0.60476 0.2582 0.0
C424 C 0.62862 0.35964 0.18822 0.0
C425 C 0.6631 0.39152 0.2288 0.0
C426 C 0.59739 0.37915 0.1507 0.0
C427 C 0.6004 0.43197 0.15044 0.0
H428 H 0.62454 0.3185 0.18635 0.0
H429 H 0.57018 0.35244 0.12201 0.0
S430 S 0.68574 0.53373 0.24451 0.0
N431 N 0.69862 0.47982 0.26474 0.0
N432 N 0.64212 0.51693 0.1918 0.0
C433 C 0.63648 0.46529 0.18829 0.0
C434 C 0.66742 0.44509 0.22783 0.0
loop_
_geom_bond_atom_site_label_1
_geom_bond_atom_site_label_2
_geom_bond_distance
_geom_bond_site_symmetry_2
_ccdc_geom_bond_type
H0 C3 0.931 . S
H1 C6 0.928 . S
H2 C8 0.930 . S
C3 H0 0.931 . S
C3 C4 1.413 . S
C3 C5 1.360 . S
C4 C3 1.413 . S
C4 C8 1.429 . S
C5 C3 1.360 . S
C5 C6 1.372 . S
C6 H1 0.928 . S
C6 C5 1.372 . S
C6 C7 1.404 . S
C7 C6 1.404 . S
C7 C8 1.391 . S
C8 H2 0.930 . S
C8 C4 1.429 . S
C8 C7 1.391 . S
H9 C12 0.931 . S
H10 C15 0.928 . S
H11 C17 0.930 . S
C12 H9 0.931 . S
C12 C13 1.413 . S
C12 C14 1.360 . S
C13 C12 1.413 . S
C13 C17 1.429 . S
C14 C12 1.360 . S
C14 C15 1.372 . S
C15 H10 0.928 . S
C15 C14 1.372 . S
C15 C16 1.404 . S
C16 C15 1.404 . S
C16 C17 1.391 . S
C17 H11 0.930 . S
C17 C13 1.429 . S
C17 C16 1.391 . S
H18 C21 0.931 . S
H19 C24 0.928 . S
H20 C26 0.930 . S
C21 H18 0.931 . S
C21 C22 1.413 . S
C21 C23 1.360 . S
C22 C21 1.413 . S
C22 C26 1.429 . S
C23 C21 1.360 . S
C23 C24 1.372 . S
C24 H19 0.928 . S
C24 C23 1.372 . S
C24 C25 1.404 . S
C25 C24 1.404 . S
C25 C26 1.391 . S
C26 H20 0.930 . S
C26 C22 1.429 . S
C26 C25 1.391 . S
H27 C30 0.931 . S
H28 C33 0.928 . S
H29 C35 0.930 . S
C30 H27 0.931 . S
C30 C31 1.413 . S
C30 C32 1.360 . S
C31 C30 1.413 . S
C31 C35 1.429 . S
C32 C30 1.360 . S
C32 C33 1.372 . S
C33 H28 0.928 . S
C33 C32 1.372 . S
C33 C34 1.404 . S
C34 C33 1.404 . S
C34 C35 1.391 . S
C35 H29 0.930 . S
C35 C31 1.429 . S
C35 C34 1.391 . S
H36 C39 0.931 . S
H37 C42 0.928 . S
H38 C44 0.930 . S
C39 H36 0.931 . S
C39 C40 1.413 . S
C39 C41 1.360 . S
C40 C39 1.413 . S
C40 C44 1.429 . S
C41 C39 1.360 . S
C41 C42 1.372 . S
C42 H37 0.928 . S
C42 C41 1.372 . S
C42 C43 1.404 . S
C43 C42 1.404 . S
C43 C44 1.391 . S
C44 H38 0.930 . S
C44 C40 1.429 . S
C44 C43 1.391 . S
H45 C48 0.931 . S
H46 C51 0.928 . S
H47 C53 0.930 . S
C48 H45 0.931 . S
C48 C49 1.413 . S
C48 C50 1.360 . S
C49 C48 1.413 . S
C49 C53 1.429 . S
C50 C48 1.360 . S
C50 C51 1.372 . S
C51 H46 0.928 . S
C51 C50 1.372 . S
C51 C52 1.404 . S
C52 C51 1.404 . S
C52 C53 1.391 . S
C53 H47 0.930 . S
C53 C49 1.429 . S
C53 C52 1.391 . S
H54 C57 0.931 . S
H55 C60 0.928 . S
H56 C62 0.930 . S
C57 H54 0.931 . S
C57 C58 1.413 . S
C57 C59 1.360 . S
C58 C57 1.413 . S
C58 C62 1.429 . S
C59 C57 1.360 . S
C59 C60 1.372 . S
C60 H55 0.928 . S
C60 C59 1.372 . S
C60 C61 1.404 . S
C61 C60 1.404 . S
C61 C62 1.391 . S
C62 H56 0.930 . S
C62 C58 1.429 . S
C62 C61 1.391 . S
H63 C66 0.931 . S
H64 C69 0.928 . S
H65 C71 0.930 . S
C66 H63 0.931 . S
C66 C67 1.413 . S
C66 C68 1.360 . S
C67 C66 1.413 . S
C67 C71 1.429 . S
C68 C66 1.360 . S
C68 C69 1.372 . S
C69 H64 0.928 . S
C69 C68 1.372 . S
C69 C70 1.404 . S
C70 C69 1.404 . S
C70 C71 1.391 . S
C71 H65 0.930 . S
C71 C67 1.429 . S
C71 C70 1.391 . S
Co72 O75 2.042 . S
Co72 O82 2.264 . S
Co72 O101 2.286 . S
Co72 O102 2.069 . S
Co72 O104 2.015 . S
Co73 O75 2.122 . S
Co73 O81 2.073 . S
Co73 O82 2.327 . S
Co73 O83 1.976 . S
Co74 O75 2.087 . S
Co74 O77 2.087 1_455 S
Co74 O84 2.111 . S
Co74 O85 2.143 1_455 S
Co74 O89 2.111 1_455 S
Co74 O103 2.143 . S
O75 Co72 2.042 . S
O75 Co73 2.122 . S
O75 Co74 2.087 . S
O75 H76 0.980 . S
H76 O75 0.980 . S
O77 Co74 2.087 1_655 S
O77 Co78 2.042 . S
O77 Co79 2.122 . S
O77 H80 0.980 1_655 S
Co78 O77 2.042 . S
Co78 O86 2.286 . S
Co78 O87 2.069 . S
Co78 O88 2.015 . S
Co78 O91 2.264 . S
Co79 O77 2.122 . S
Co79 O90 1.976 . S
Co79 O91 2.327 . S
Co79 O92 2.073 . S
H80 O77 0.980 1_455 S
O81 Co73 2.073 . S
O81 C96 1.245 . S
O82 Co72 2.264 . S
O82 Co73 2.327 . S
O82 C96 1.257 . S
O83 Co73 1.976 . S
O83 C95 1.251 . S
O84 Co74 2.111 . S
O84 C95 1.274 . S
O85 Co74 2.143 1_655 S
O85 C98 1.246 . S
O86 Co78 2.286 . S
O86 C97 1.259 . S
O87 Co78 2.069 . S
O87 C97 1.289 . S
O88 Co78 2.015 . S
O88 C98 1.257 . S
O89 Co74 2.111 1_655 S
O89 C99 1.274 . S
O90 Co79 1.976 . S
O90 C99 1.251 . S
O91 Co78 2.264 . S
O91 Co79 2.327 . S
O91 C100 1.257 . S
O92 Co79 2.073 . S
O92 C100 1.245 . S
C93 O101 1.259 . S
C93 O102 1.289 . S
C94 O103 1.246 . S
C94 O104 1.257 . S
C95 O83 1.251 . S
C95 O84 1.274 . S
C96 O81 1.245 . S
C96 O82 1.257 . S
C97 O86 1.259 . S
C97 O87 1.289 . S
C98 O85 1.246 . S
C98 O88 1.257 . S
C99 O89 1.274 . S
C99 O90 1.251 . S
C100 O91 1.257 . S
C100 O92 1.245 . S
O101 Co72 2.286 . S
O101 C93 1.259 . S
O102 Co72 2.069 . S
O102 C93 1.289 . S
O103 Co74 2.143 . S
O103 C94 1.246 . S
O104 Co72 2.015 . S
O104 C94 1.257 . S
Co105 O108 2.042 . S
Co105 O115 2.264 . S
Co105 O134 2.286 . S
Co105 O135 2.069 . S
Co105 O137 2.015 . S
Co106 O108 2.122 . S
Co106 O114 2.073 . S
Co106 O115 2.327 . S
Co106 O116 1.976 . S
Co107 O108 2.087 1_545 S
Co107 O110 2.087 . S
Co107 O117 2.111 1_545 S
Co107 O118 2.143 . S
Co107 O122 2.111 . S
Co107 O136 2.143 1_545 S
O108 Co105 2.042 . S
O108 Co106 2.122 . S
O108 Co107 2.087 1_565 S
O108 H109 0.980 . S
H109 O108 0.980 . S
O110 Co107 2.087 . S
O110 Co111 2.042 . S
O110 Co112 2.122 . S
O110 H113 0.980 . S
Co111 O110 2.042 . S
Co111 O119 2.286 . S
Co111 O120 2.069 . S
Co111 O121 2.015 . S
Co111 O124 2.264 . S
Co112 O110 2.122 . S
Co112 O123 1.976 . S
Co112 O124 2.327 . S
Co112 O125 2.073 . S
H113 O110 0.980 . S
O114 Co106 2.073 . S
O114 C129 1.245 . S
O115 Co105 2.264 . S
O115 Co106 2.327 . S
O115 C129 1.257 . S
O116 Co106 1.976 . S
O116 C128 1.251 . S
O117 Co107 2.111 1_565 S
O117 C128 1.274 . S
O118 Co107 2.143 . S
O118 C131 1.246 . S
O119 Co111 2.286 . S
O119 C130 1.259 . S
O120 Co111 2.069 . S
O120 C130 1.289 . S
O121 Co111 2.015 . S
O121 C131 1.257 . S
O122 Co107 2.111 . S
O122 C132 1.274 . S
O123 Co112 1.976 . S
O123 C132 1.251 . S
O124 Co111 2.264 . S
O124 Co112 2.327 . S
O124 C133 1.257 . S
O125 Co112 2.073 . S
O125 C133 1.245 . S
C126 O134 1.259 . S
C126 O135 1.289 . S
C127 O136 1.246 . S
C127 O137 1.257 . S
C128 O116 1.251 . S
C128 O117 1.274 . S
C129 O114 1.245 . S
C129 O115 1.257 . S
C130 O119 1.259 . S
C130 O120 1.289 . S
C131 O118 1.246 . S
C131 O121 1.257 . S
C132 O122 1.274 . S
C132 O123 1.251 . S
C133 O124 1.257 . S
C133 O125 1.245 . S
O134 Co105 2.286 . S
O134 C126 1.259 . S
O135 Co105 2.069 . S
O135 C126 1.289 . S
O136 Co107 2.143 1_565 S
O136 C127 1.246 . S
O137 Co105 2.015 . S
O137 C127 1.257 . S
Co138 O141 2.042 . S
Co138 O148 2.264 . S
Co138 O167 2.286 . S
Co138 O168 2.069 . S
Co138 O170 2.015 . S
Co139 O141 2.122 . S
Co139 O147 2.073 . S
Co139 O148 2.327 . S
Co139 O149 1.976 . S
Co140 O141 2.087 . S
Co140 O143 2.087 1_554 S
Co140 O150 2.111 . S
Co140 O151 2.143 1_554 S
Co140 O155 2.111 1_554 S
Co140 O169 2.143 . S
O141 Co138 2.042 . S
O141 Co139 2.122 . S
O141 Co140 2.087 . S
O141 H142 0.980 . S
H142 O141 0.980 . S
O143 Co140 2.087 1_556 S
O143 Co144 2.042 . S
O143 Co145 2.122 . S
O143 H146 0.980 . S
Co144 O143 2.042 . S
Co144 O152 2.286 . S
Co144 O153 2.069 . S
Co144 O154 2.015 . S
Co144 O157 2.264 . S
Co145 O143 2.122 . S
Co145 O156 1.976 . S
Co145 O157 2.327 . S
Co145 O158 2.073 . S
H146 O143 0.980 . S
O147 Co139 2.073 . S
O147 C162 1.245 . S
O148 Co138 2.264 . S
O148 Co139 2.327 . S
O148 C162 1.257 . S
O149 Co139 1.976 . S
O149 C161 1.251 . S
O150 Co140 2.111 . S
O150 C161 1.274 . S
O151 Co140 2.143 1_556 S
O151 C164 1.246 . S
O152 Co144 2.286 . S
O152 C163 1.259 . S
O153 Co144 2.069 . S
O153 C163 1.289 . S
O154 Co144 2.015 . S
O154 C164 1.257 . S
O155 Co140 2.111 1_556 S
O155 C165 1.274 . S
O156 Co145 1.976 . S
O156 C165 1.251 . S
O157 Co144 2.264 . S
O157 Co145 2.327 . S
O157 C166 1.257 . S
O158 Co145 2.073 . S
O158 C166 1.245 . S
C159 O167 1.259 . S
C159 O168 1.289 . S
C160 O169 1.246 . S
C160 O170 1.257 . S
C161 O149 1.251 . S
C161 O150 1.274 . S
C162 O147 1.245 . S
C162 O148 1.257 . S
C163 O152 1.259 . S
C163 O153 1.289 . S
C164 O151 1.246 . S
C164 O154 1.257 . S
C165 O155 1.274 . S
C165 O156 1.251 . S
C166 O157 1.257 . S
C166 O158 1.245 . S
O167 Co138 2.286 . S
O167 C159 1.259 . S
O168 Co138 2.069 . S
O168 C159 1.289 . S
O169 Co140 2.143 . S
O169 C160 1.246 . S
O170 Co138 2.015 . S
O170 C160 1.257 . S
C171 C172 1.369 . S
C171 C173 1.419 . S
C171 H175 0.930 . S
C172 C171 1.369 . S
C172 C181 1.429 . S
C173 C171 1.419 . S
C173 C174 1.363 . S
C173 H176 0.929 . S
C174 C173 1.363 . S
C174 C180 1.428 . S
H175 C171 0.930 . S
H176 C173 0.929 . S
S177 N178 1.613 . S
S177 N179 1.610 . S
N178 S177 1.613 . S
N178 C181 1.350 . S
N179 S177 1.610 . S
N179 C180 1.351 . S
C180 C174 1.428 . S
C180 N179 1.351 . S
C180 C181 1.434 . S
C181 C172 1.429 . S
C181 N178 1.350 . S
C181 C180 1.434 . S
C182 C183 1.369 . S
C182 C184 1.419 . S
C182 H186 0.930 . S
C183 C182 1.369 . S
C183 C192 1.429 . S
C184 C182 1.419 . S
C184 C185 1.363 . S
C184 H187 0.929 . S
C185 C184 1.363 . S
C185 C191 1.428 . S
H186 C182 0.930 . S
H187 C184 0.929 . S
S188 N189 1.613 . S
S188 N190 1.610 . S
N189 S188 1.613 . S
N189 C192 1.350 . S
N190 S188 1.610 . S
N190 C191 1.351 . S
C191 C185 1.428 . S
C191 N190 1.351 . S
C191 C192 1.434 . S
C192 C183 1.429 . S
C192 N189 1.350 . S
C192 C191 1.434 . S
C193 C194 1.369 . S
C193 C195 1.419 . S
C193 H197 0.930 . S
C194 C193 1.369 . S
C194 C203 1.429 . S
C195 C193 1.419 . S
C195 C196 1.363 . S
C195 H198 0.929 . S
C196 C195 1.363 . S
C196 C202 1.428 . S
H197 C193 0.930 . S
H198 C195 0.929 . S
S199 N200 1.613 . S
S199 N201 1.610 . S
N200 S199 1.613 . S
N200 C203 1.350 . S
N201 S199 1.610 . S
N201 C202 1.351 . S
C202 C196 1.428 . S
C202 N201 1.351 . S
C202 C203 1.434 . S
C203 C194 1.429 . S
C203 N200 1.350 . S
C203 C202 1.434 . S
C204 C205 1.369 . S
C204 C206 1.419 . S
C204 H208 0.930 . S
C205 C204 1.369 . S
C205 C214 1.429 . S
C206 C204 1.419 . S
C206 C207 1.363 . S
C206 H209 0.929 . S
C207 C206 1.363 . S
C207 C213 1.428 . S
H208 C204 0.930 . S
H209 C206 0.929 . S
S210 N211 1.613 . S
S210 N212 1.610 . S
N211 S210 1.613 . S
N211 C214 1.350 . S
N212 S210 1.610 . S
N212 C213 1.351 . S
C213 C207 1.428 . S
C213 N212 1.351 . S
C213 C214 1.434 . S
C214 C205 1.429 . S
C214 N211 1.350 . S
C214 C213 1.434 . S
C215 C216 1.369 . S
C215 C217 1.419 . S
C215 H219 0.930 . S
C216 C215 1.369 . S
C216 C225 1.429 . S
C217 C215 1.419 . S
C217 C218 1.363 . S
C217 H220 0.929 . S
C218 C217 1.363 . S
C218 C224 1.428 . S
H219 C215 0.930 . S
H220 C217 0.929 . S
S221 N222 1.613 . S
S221 N223 1.610 . S
N222 S221 1.613 . S
N222 C225 1.350 . S
N223 S221 1.610 . S
N223 C224 1.351 . S
C224 C218 1.428 . S
C224 N223 1.351 . S
C224 C225 1.434 . S
C225 C216 1.429 . S
C225 N222 1.350 . S
C225 C224 1.434 . S
C226 C227 1.369 . S
C226 C228 1.419 . S
C226 H230 0.930 . S
C227 C226 1.369 . S
C227 C236 1.429 . S
C228 C226 1.419 . S
C228 C229 1.363 . S
C228 H231 0.929 . S
C229 C228 1.363 . S
C229 C235 1.428 . S
H230 C226 0.930 . S
H231 C228 0.929 . S
S232 N233 1.613 . S
S232 N234 1.610 . S
N233 S232 1.613 . S
N233 C236 1.350 . S
N234 S232 1.610 . S
N234 C235 1.351 . S
C235 C229 1.428 . S
C235 N234 1.351 . S
C235 C236 1.434 . S
C236 C227 1.429 . S
C236 N233 1.350 . S
C236 C235 1.434 . S
C237 C238 1.369 . S
C237 C239 1.419 . S
C237 H241 0.930 . S
C238 C237 1.369 . S
C238 C247 1.429 . S
C239 C237 1.419 . S
C239 C240 1.363 . S
C239 H242 0.929 . S
C240 C239 1.363 . S
C240 C246 1.428 . S
H241 C237 0.930 . S
H242 C239 0.929 . S
S243 N244 1.613 . S
S243 N245 1.610 . S
N244 S243 1.613 . S
N244 C247 1.350 . S
N245 S243 1.610 . S
N245 C246 1.351 . S
C246 C240 1.428 . S
C246 N245 1.351 . S
C246 C247 1.434 . S
C247 C238 1.429 . S
C247 N244 1.350 . S
C247 C246 1.434 . S
C248 C249 1.369 . S
C248 C250 1.419 . S
C248 H252 0.930 . S
C249 C248 1.369 . S
C249 C258 1.429 . S
C250 C248 1.419 . S
C250 C251 1.363 . S
C250 H253 0.929 . S
C251 C250 1.363 . S
C251 C257 1.428 . S
H252 C248 0.930 . S
H253 C250 0.929 . S
S254 N255 1.613 . S
S254 N256 1.610 . S
N255 S254 1.613 . S
N255 C258 1.350 . S
N256 S254 1.610 . S
N256 C257 1.351 . S
C257 C251 1.428 . S
C257 N256 1.351 . S
C257 C258 1.434 . S
C258 C249 1.429 . S
C258 N255 1.350 . S
C258 C257 1.434 . S
C259 C260 1.369 . S
C259 C261 1.419 . S
C259 H263 0.930 . S
C260 C259 1.369 . S
C260 C269 1.429 . S
C261 C259 1.419 . S
C261 C262 1.363 . S
C261 H264 0.929 . S
C262 C261 1.363 . S
C262 C268 1.428 . S
H263 C259 0.930 . S
H264 C261 0.929 . S
S265 N266 1.613 . S
S265 N267 1.610 . S
N266 S265 1.613 . S
N266 C269 1.350 . S
N267 S265 1.610 . S
N267 C268 1.351 . S
C268 C262 1.428 . S
C268 N267 1.351 . S
C268 C269 1.434 . S
C269 C260 1.429 . S
C269 N266 1.350 . S
C269 C268 1.434 . S
C270 C271 1.369 . S
C270 C272 1.419 . S
C270 H274 0.930 . S
C271 C270 1.369 . S
C271 C280 1.429 . S
C272 C270 1.419 . S
C272 C273 1.363 . S
C272 H275 0.929 . S
C273 C272 1.363 . S
C273 C279 1.428 . S
H274 C270 0.930 . S
H275 C272 0.929 . S
S276 N277 1.613 . S
S276 N278 1.610 . S
N277 S276 1.613 . S
N277 C280 1.350 . S
N278 S276 1.610 . S
N278 C279 1.351 . S
C279 C273 1.428 . S
C279 N278 1.351 . S
C279 C280 1.434 . S
C280 C271 1.429 . S
C280 N277 1.350 . S
C280 C279 1.434 . S
C281 C282 1.369 . S
C281 C283 1.419 . S
C281 H285 0.930 . S
C282 C281 1.369 . S
C282 C291 1.429 . S
C283 C281 1.419 . S
C283 C284 1.363 . S
C283 H286 0.929 . S
C284 C283 1.363 . S
C284 C290 1.428 . S
H285 C281 0.930 . S
H286 C283 0.929 . S
S287 N288 1.613 . S
S287 N289 1.610 . S
N288 S287 1.613 . S
N288 C291 1.350 . S
N289 S287 1.610 . S
N289 C290 1.351 . S
C290 C284 1.428 . S
C290 N289 1.351 . S
C290 C291 1.434 . S
C291 C282 1.429 . S
C291 N288 1.350 . S
C291 C290 1.434 . S
C292 C293 1.369 . S
C292 C294 1.419 . S
C292 H296 0.930 . S
C293 C292 1.369 . S
C293 C302 1.429 . S
C294 C292 1.419 . S
C294 C295 1.363 . S
C294 H297 0.929 . S
C295 C294 1.363 . S
C295 C301 1.428 . S
H296 C292 0.930 . S
H297 C294 0.929 . S
S298 N299 1.613 . S
S298 N300 1.610 . S
N299 S298 1.613 . S
N299 C302 1.350 . S
N300 S298 1.610 . S
N300 C301 1.351 . S
C301 C295 1.428 . S
C301 N300 1.351 . S
C301 C302 1.434 . S
C302 C293 1.429 . S
C302 N299 1.350 . S
C302 C301 1.434 . S
C303 C304 1.369 . S
C303 C305 1.419 . S
C303 H307 0.930 . S
C304 C303 1.369 . S
C304 C313 1.429 . S
C305 C303 1.419 . S
C305 C306 1.363 . S
C305 H308 0.929 . S
C306 C305 1.363 . S
C306 C312 1.428 . S
H307 C303 0.930 . S
H308 C305 0.929 . S
S309 N310 1.613 . S
S309 N311 1.610 . S
N310 S309 1.613 . S
N310 C313 1.350 . S
N311 S309 1.610 . S
N311 C312 1.351 . S
C312 C306 1.428 . S
C312 N311 1.351 . S
C312 C313 1.434 . S
C313 C304 1.429 . S
C313 N310 1.350 . S
C313 C312 1.434 . S
C314 C315 1.369 . S
C314 C316 1.419 . S
C314 H318 0.930 . S
C315 C314 1.369 . S
C315 C324 1.429 . S
C316 C314 1.419 . S
C316 C317 1.363 . S
C316 H319 0.929 . S
C317 C316 1.363 . S
C317 C323 1.428 . S
H318 C314 0.930 . S
H319 C316 0.929 . S
S320 N321 1.613 . S
S320 N322 1.610 . S
N321 S320 1.613 . S
N321 C324 1.350 . S
N322 S320 1.610 . S
N322 C323 1.351 . S
C323 C317 1.428 . S
C323 N322 1.351 . S
C323 C324 1.434 . S
C324 C315 1.429 . S
C324 N321 1.350 . S
C324 C323 1.434 . S
C325 C326 1.369 . S
C325 C327 1.419 . S
C325 H329 0.930 . S
C326 C325 1.369 . S
C326 C335 1.429 . S
C327 C325 1.419 . S
C327 C328 1.363 . S
C327 H330 0.929 . S
C328 C327 1.363 . S
C328 C334 1.428 . S
H329 C325 0.930 . S
H330 C327 0.929 . S
S331 N332 1.613 . S
S331 N333 1.610 . S
N332 S331 1.613 . S
N332 C335 1.350 . S
N333 S331 1.610 . S
N333 C334 1.351 . S
C334 C328 1.428 . S
C334 N333 1.351 . S
C334 C335 1.434 . S
C335 C326 1.429 . S
C335 N332 1.350 . S
C335 C334 1.434 . S
C336 C337 1.369 . S
C336 C338 1.419 . S
C336 H340 0.930 . S
C337 C336 1.369 . S
C337 C346 1.429 . S
C338 C336 1.419 . S
C338 C339 1.363 . S
C338 H341 0.929 . S
C339 C338 1.363 . S
C339 C345 1.428 . S
H340 C336 0.930 . S
H341 C338 0.929 . S
S342 N343 1.613 . S
S342 N344 1.610 . S
N343 S342 1.613 . S
N343 C346 1.350 . S
N344 S342 1.610 . S
N344 C345 1.351 . S
C345 C339 1.428 . S
C345 N344 1.351 . S
C345 C346 1.434 . S
C346 C337 1.429 . S
C346 N343 1.350 . S
C346 C345 1.434 . S
C347 C348 1.369 . S
C347 C349 1.419 . S
C347 H351 0.930 . S
C348 C347 1.369 . S
C348 C357 1.429 . S
C349 C347 1.419 . S
C349 C350 1.363 . S
C349 H352 0.929 . S
C350 C349 1.363 . S
C350 C356 1.428 . S
H351 C347 0.930 . S
H352 C349 0.929 . S
S353 N354 1.613 . S
S353 N355 1.610 . S
N354 S353 1.613 . S
N354 C357 1.350 . S
N355 S353 1.610 . S
N355 C356 1.351 . S
C356 C350 1.428 . S
C356 N355 1.351 . S
C356 C357 1.434 . S
C357 C348 1.429 . S
C357 N354 1.350 . S
C357 C356 1.434 . S
C358 C359 1.369 . S
C358 C360 1.419 . S
C358 H362 0.930 . S
C359 C358 1.369 . S
C359 C368 1.429 . S
C360 C358 1.419 . S
C360 C361 1.363 . S
C360 H363 0.929 . S
C361 C360 1.363 . S
C361 C367 1.428 . S
H362 C358 0.930 . S
H363 C360 0.929 . S
S364 N365 1.613 . S
S364 N366 1.610 . S
N365 S364 1.613 . S
N365 C368 1.350 . S
N366 S364 1.610 . S
N366 C367 1.351 . S
C367 C361 1.428 . S
C367 N366 1.351 . S
C367 C368 1.434 . S
C368 C359 1.429 . S
C368 N365 1.350 . S
C368 C367 1.434 . S
C369 C370 1.369 . S
C369 C371 1.419 . S
C369 H373 0.930 . S
C370 C369 1.369 . S
C370 C379 1.429 . S
C371 C369 1.419 . S
C371 C372 1.363 . S
C371 H374 0.929 . S
C372 C371 1.363 . S
C372 C378 1.428 . S
H373 C369 0.930 . S
H374 C371 0.929 . S
S375 N376 1.613 . S
S375 N377 1.610 . S
N376 S375 1.613 . S
N376 C379 1.350 . S
N377 S375 1.610 . S
N377 C378 1.351 . S
C378 C372 1.428 . S
C378 N377 1.351 . S
C378 C379 1.434 . S
C379 C370 1.429 . S
C379 N376 1.350 . S
C379 C378 1.434 . S
C380 C381 1.369 . S
C380 C382 1.419 . S
C380 H384 0.930 . S
C381 C380 1.369 . S
C381 C390 1.429 . S
C382 C380 1.419 . S
C382 C383 1.363 . S
C382 H385 0.929 . S
C383 C382 1.363 . S
C383 C389 1.428 . S
H384 C380 0.930 . S
H385 C382 0.929 . S
S386 N387 1.613 . S
S386 N388 1.610 . S
N387 S386 1.613 . S
N387 C390 1.350 . S
N388 S386 1.610 . S
N388 C389 1.351 . S
C389 C383 1.428 . S
C389 N388 1.351 . S
C389 C390 1.434 . S
C390 C381 1.429 . S
C390 N387 1.350 . S
C390 C389 1.434 . S
C391 C392 1.369 . S
C391 C393 1.419 . S
C391 H395 0.930 . S
C392 C391 1.369 . S
C392 C401 1.429 . S
C393 C391 1.419 . S
C393 C394 1.363 . S
C393 H396 0.929 . S
C394 C393 1.363 . S
C394 C400 1.428 . S
H395 C391 0.930 . S
H396 C393 0.929 . S
S397 N398 1.613 . S
S397 N399 1.610 . S
N398 S397 1.613 . S
N398 C401 1.350 . S
N399 S397 1.610 . S
N399 C400 1.351 . S
C400 C394 1.428 . S
C400 N399 1.351 . S
C400 C401 1.434 . S
C401 C392 1.429 . S
C401 N398 1.350 . S
C401 C400 1.434 . S
C402 C403 1.369 . S
C402 C404 1.419 . S
C402 H406 0.930 . S
C403 C402 1.369 . S
C403 C412 1.429 . S
C404 C402 1.419 . S
C404 C405 1.363 . S
C404 H407 0.929 . S
C405 C404 1.363 . S
C405 C411 1.428 . S
H406 C402 0.930 . S
H407 C404 0.929 . S
S408 N409 1.613 . S
S408 N410 1.610 . S
N409 S408 1.613 . S
N409 C412 1.350 . S
N410 S408 1.610 . S
N410 C411 1.351 . S
C411 C405 1.428 . S
C411 N410 1.351 . S
C411 C412 1.434 . S
C412 C403 1.429 . S
C412 N409 1.350 . S
C412 C411 1.434 . S
C413 C414 1.369 . S
C413 C415 1.419 . S
C413 H417 0.930 . S
C414 C413 1.369 . S
C414 C423 1.429 . S
C415 C413 1.419 . S
C415 C416 1.363 . S
C415 H418 0.929 . S
C416 C415 1.363 . S
C416 C422 1.428 . S
H417 C413 0.930 . S
H418 C415 0.929 . S
S419 N420 1.613 . S
S419 N421 1.610 . S
N420 S419 1.613 . S
N420 C423 1.350 . S
N421 S419 1.610 . S
N421 C422 1.351 . S
C422 C416 1.428 . S
C422 N421 1.351 . S
C422 C423 1.434 . S
C423 C414 1.429 . S
C423 N420 1.350 . S
C423 C422 1.434 . S
C424 C425 1.369 . S
C424 C426 1.419 . S
C424 H428 0.930 . S
C425 C424 1.369 . S
C425 C434 1.429 . S
C426 C424 1.419 . S
C426 C427 1.363 . S
C426 H429 0.929 . S
C427 C426 1.363 . S
C427 C433 1.428 . S
H428 C424 0.930 . S
H429 C426 0.929 . S
S430 N431 1.613 . S
S430 N432 1.610 . S
N431 S430 1.613 . S
N431 C434 1.350 . S
N432 S430 1.610 . S
N432 C433 1.351 . S
C433 C427 1.428 . S
C433 N432 1.351 . S
C433 C434 1.434 . S
C434 C425 1.429 . S
C434 N431 1.350 . S
C434 C433 1.434 . S
C174 C96 1.245 . S
C172 C4 1.330 . S
C185 C132 1.603 . S
C183 C13 1.727 . S
C196 C97 1.339 . S
C194 C25 1.354 . S
C207 C127 1.461 . S
C205 C32 1.511 . S
C218 C94 1.440 . S
C216 C41 1.525 . S
C227 C52 1.554 . S
C229 C130 1.569 . S
C238 C61 1.332 . S
C240 C99 1.197 . S
C251 C129 1.379 . S
C249 C67 1.421 . S
C262 C133 1.380 . S
C260 C7 1.416 . S
C273 C98 1.456 . S
C271 C14 1.537 . S
C284 C126 1.584 . S
C282 C22 1.569 . S
C295 C95 1.185 . S
C293 C31 1.330 . S
C306 C128 1.590 . S
C304 C40 1.715 . S
C315 C49 1.361 . S
C317 C93 1.343 . S
C326 C59 1.516 . S
C328 C131 1.463 . S
C339 C100 1.244 . S
C337 C70 1.327 . S
C350 C162 1.501 . S
C348 C5 1.636 . S
C359 C43 1.943 . S
C361 C165 1.788 . S
C372 C164 1.549 . S
C370 C50 1.596 . S
C381 C58 1.860 . S
C383 C163 1.845 . S
C394 C166 1.499 . S
C392 C68 1.632 . S
C403 C23 1.598 . S
C405 C160 1.558 . S
C416 C159 1.825 . S
C414 C34 1.839 . S
C425 C16 1.954 . S
C427 C161 1.810 . S
