# Generated by pormake.
# Topology rtl, (3,6)-cn, num edge types: 1
# Building blocks:
#     Node 0, Type 0, BuildingBlock: KAKCAD_clean_linker_0, # of connection points: 3
#     Node 1, Type 0, BuildingBlock: KAKCAD_clean_linker_0, # of connection points: 3
#     Node 2, Type 0, BuildingBlock: KAKCAD_clean_linker_0, # of connection points: 3
#     Node 3, Type 0, BuildingBlock: KAKCAD_clean_linker_0, # of connection points: 3
#     Node 4, Type 1, BuildingBlock: LEVNOQ01_clean_sbu_1, # of connection points: 6
#     Node 5, Type 1, BuildingBlock: LEVNOQ01_clean_sbu_1, # of connection points: 6
#     Edge 6, Type (0, 1), BuildingBlock: FUNLAD_clean_linker_0, # of connection points: 2
#     Edge 7, Type (0, 1), BuildingBlock: FUNLAD_clean_linker_0, # of connection points: 2
#     Edge 8, Type (0, 1), BuildingBlock: FUNLAD_clean_linker_0, # of connection points: 2
#     Edge 9, Type (0, 1), BuildingBlock: FUNLAD_clean_linker_0, # of connection points: 2
#     Edge 10, Type (0, 1), BuildingBlock: FUNLAD_clean_linker_0, # of connection points: 2
#     Edge 11, Type (0, 1), BuildingBlock: FUNLAD_clean_linker_0, # of connection points: 2
#     Edge 12, Type (0, 1), BuildingBlock: FUNLAD_clean_linker_0, # of connection points: 2
#     Edge 13, Type (0, 1), BuildingBlock: FUNLAD_clean_linker_0, # of connection points: 2
#     Edge 14, Type (0, 1), BuildingBlock: FUNLAD_clean_linker_0, # of connection points: 2
#     Edge 15, Type (0, 1), BuildingBlock: FUNLAD_clean_linker_0, # of connection points: 2
#     Edge 16, Type (0, 1), BuildingBlock: FUNLAD_clean_linker_0, # of connection points: 2
#     Edge 17, Type (0, 1), BuildingBlock: FUNLAD_clean_linker_0, # of connection points: 2
# Relax obj value: 0.026
# Max RMSD: 0.060
# Mean RMSD: 0.046
data_MOF--net-rtl--node1-LEVNOQ01_clean_sbu_1--node2-KAKCAD_clean_linker_0--edge1-FUNLAD_clean_linker_0
_symmetry_space_group_name_H-M    P1
_symmetry_Int_Tables_number       1
_symmetry_cell_setting            triclinic
loop_
_symmetry_equiv_pos_as_xyz
'x, y, z'
_cell_length_a     42.511827
_cell_length_b     48.327574
_cell_length_c     33.840313
_cell_angle_alpha  89.865034
_cell_angle_beta   97.640261
_cell_angle_gamma 89.858511
loop_
_atom_site_label
_atom_site_type_symbol
_atom_site_fract_x
_atom_site_fract_y
_atom_site_fract_z
_atom_type_partial_charge
C0 C 0.22197 0.89648 0.94338 0.0
C1 C 0.21535 0.92452 0.93485 0.0
C2 C 0.23727 0.88842 0.98074 0.0
C3 C 0.24637 0.90821 0.01048 0.0
C4 C 0.24063 0.93633 0.00157 0.0
C5 C 0.22536 0.9444 0.96415 0.0
C6 C 0.26033 0.89926 0.05113 0.0
C7 C 0.2824 0.87751 0.05602 0.0
C8 C 0.29301 0.86646 0.09396 0.0
C9 C 0.28232 0.87852 0.1276 0.0
C10 C 0.26084 0.90091 0.12342 0.0
C11 C 0.24994 0.91103 0.08502 0.0
C12 C 0.24824 0.9128 0.15873 0.0
C13 C 0.23938 0.89548 0.18878 0.0
C14 C 0.24382 0.94153 0.16188 0.0
C15 C 0.23045 0.95262 0.19397 0.0
C16 C 0.22121 0.93527 0.22376 0.0
C17 C 0.31366 0.84135 0.09769 0.0
C18 C 0.30885 0.8205 0.0686 0.0
C19 C 0.33803 0.83778 0.12987 0.0
C20 C 0.35737 0.8141 0.13239 0.0
C21 C 0.35293 0.79385 0.10249 0.0
C22 C 0.32837 0.79722 0.07081 0.0
C23 C 0.22604 0.90657 0.22089 0.0
H24 H 0.21421 0.8806 0.92176 0.0
H25 H 0.24091 0.86655 0.9868 0.0
H26 H 0.24777 0.95209 0.02363 0.0
H27 H 0.22111 0.96622 0.9583 0.0
H28 H 0.29111 0.86897 0.02994 0.0
H29 H 0.23215 0.92726 0.08138 0.0
H30 H 0.29019 0.87014 0.15697 0.0
H31 H 0.24192 0.87323 0.18695 0.0
H32 H 0.25076 0.95549 0.1395 0.0
H33 H 0.2275 0.97484 0.19556 0.0
H34 H 0.28975 0.82196 0.04409 0.0
H35 H 0.34253 0.85345 0.15272 0.0
H36 H 0.21873 0.89255 0.24294 0.0
H37 H 0.32402 0.78162 0.0478 0.0
H38 H 0.37618 0.81189 0.15714 0.0
C39 C 0.70856 0.63086 0.71705 0.0
C40 C 0.7029 0.60254 0.72224 0.0
C41 C 0.72269 0.64015 0.68461 0.0
C42 C 0.73166 0.62135 0.65649 0.0
C43 C 0.72683 0.59289 0.6622 0.0
C44 C 0.71271 0.58356 0.69491 0.0
C45 C 0.74445 0.63187 0.6205 0.0
C46 C 0.76562 0.65428 0.62359 0.0
C47 C 0.77486 0.66673 0.5894 0.0
C48 C 0.76316 0.65606 0.55169 0.0
C49 C 0.74256 0.63328 0.54806 0.0
C50 C 0.73346 0.62119 0.5826 0.0
C51 C 0.72907 0.62299 0.50814 0.0
C52 C 0.71541 0.64142 0.47849 0.0
C53 C 0.72873 0.59455 0.49996 0.0
C54 C 0.71442 0.58464 0.4632 0.0
C55 C 0.69963 0.60292 0.43392 0.0
C56 C 0.7953 0.69176 0.59294 0.0
C57 C 0.79041 0.71281 0.62017 0.0
C58 C 0.81907 0.69529 0.56822 0.0
C59 C 0.83688 0.71962 0.56986 0.0
C60 C 0.8314 0.74092 0.59636 0.0
C61 C 0.80834 0.73708 0.62194 0.0
C62 C 0.70072 0.63149 0.44183 0.0
H63 H 0.70162 0.64598 0.73788 0.0
H64 H 0.72565 0.66222 0.68091 0.0
H65 H 0.73371 0.57788 0.6412 0.0
H66 H 0.70855 0.56161 0.69812 0.0
H67 H 0.77476 0.66222 0.65278 0.0
H68 H 0.71646 0.6044 0.57976 0.0
H69 H 0.7696 0.66578 0.52501 0.0
H70 H 0.71513 0.66347 0.48417 0.0
H71 H 0.73949 0.57993 0.5221 0.0
H72 H 0.7148 0.56257 0.45787 0.0
H73 H 0.77198 0.71095 0.63925 0.0
H74 H 0.82382 0.6793 0.54742 0.0
H75 H 0.68931 0.64617 0.42027 0.0
H76 H 0.80332 0.75326 0.64231 0.0
H77 H 0.85484 0.72184 0.55018 0.0
C78 C 0.77637 0.11395 0.14237 0.0
C79 C 0.80889 0.10738 0.14719 0.0
C80 C 0.76106 0.12296 0.10526 0.0
C81 C 0.77813 0.1256 0.07257 0.0
C82 C 0.81092 0.12019 0.07818 0.0
C83 C 0.82606 0.11109 0.11493 0.0
C84 C 0.76223 0.13339 0.03227 0.0
C85 C 0.74022 0.15524 0.02688 0.0
C86 C 0.72796 0.16429 0.98828 0.0
C87 C 0.73782 0.15101 0.95501 0.0
C88 C 0.75975 0.12909 0.95995 0.0
C89 C 0.77107 0.12001 0.99863 0.0
C90 C 0.77334 0.1174 0.92525 0.0
C91 C 0.75434 0.11254 0.88862 0.0
C92 C 0.80613 0.1122 0.92828 0.0
C93 C 0.81973 0.10303 0.89541 0.0
C94 C 0.80099 0.099 0.85847 0.0
C95 C 0.70653 0.18875 0.98273 0.0
C96 C 0.68176 0.19205 0.006 0.0
C97 C 0.71113 0.20929 0.95455 0.0
C98 C 0.69153 0.23264 0.94988 0.0
C99 C 0.66683 0.23602 0.97324 0.0
C100 C 0.6621 0.2154 0.00126 0.0
C101 C 0.76804 0.10333 0.85554 0.0
H102 H 0.76262 0.11124 0.16684 0.0
H103 H 0.73578 0.12702 0.10184 0.0
H104 H 0.82498 0.12283 0.05399 0.0
H105 H 0.85129 0.10675 0.11806 0.0
H106 H 0.73392 0.16614 0.05268 0.0
H107 H 0.78747 0.10271 0.00263 0.0
H108 H 0.72915 0.15832 0.92525 0.0
H109 H 0.72897 0.11612 0.88543 0.0
H110 H 0.8216 0.11606 0.95581 0.0
H111 H 0.84513 0.09956 0.89875 0.0
H112 H 0.67752 0.17653 0.02781 0.0
H113 H 0.73027 0.20758 0.93653 0.0
H114 H 0.75303 0.10053 0.82739 0.0
H115 H 0.64353 0.21751 0.02009 0.0
H116 H 0.69566 0.24802 0.92783 0.0
C117 C 0.23953 0.42734 0.34872 0.0
C118 C 0.27181 0.43348 0.34846 0.0
C119 C 0.22843 0.4187 0.38382 0.0
C120 C 0.24938 0.41586 0.41946 0.0
C121 C 0.28153 0.42265 0.41936 0.0
C122 C 0.29258 0.4314 0.38431 0.0
C123 C 0.23814 0.40456 0.45608 0.0
C124 C 0.21686 0.38217 0.45339 0.0
C125 C 0.20774 0.36998 0.48785 0.0
C126 C 0.21953 0.38088 0.52533 0.0
C127 C 0.24102 0.40299 0.52865 0.0
C128 C 0.25012 0.41481 0.49398 0.0
C129 C 0.2559 0.41206 0.56856 0.0
C130 C 0.23725 0.41831 0.59861 0.0
C131 C 0.28907 0.41277 0.57749 0.0
C132 C 0.30338 0.41878 0.61608 0.0
C133 C 0.28484 0.42473 0.64657 0.0
C134 C 0.18823 0.3444 0.48483 0.0
C135 C 0.16189 0.34163 0.45524 0.0
C136 C 0.19683 0.322 0.5106 0.0
C137 C 0.17988 0.29725 0.50648 0.0
C138 C 0.15387 0.29427 0.4765 0.0
C139 C 0.14479 0.31685 0.45122 0.0
C140 C 0.25154 0.42486 0.63708 0.0
H141 H 0.22286 0.42908 0.32169 0.0
H142 H 0.20344 0.41407 0.38298 0.0
H143 H 0.29846 0.42027 0.44604 0.0
H144 H 0.31767 0.43556 0.38501 0.0
H145 H 0.20876 0.37318 0.42453 0.0
H146 H 0.26664 0.43196 0.49665 0.0
H147 H 0.21289 0.37148 0.55214 0.0
H148 H 0.21159 0.41807 0.59233 0.0
H149 H 0.30397 0.40764 0.55493 0.0
H150 H 0.32901 0.41793 0.62214 0.0
H151 H 0.15458 0.3586 0.4351 0.0
H152 H 0.21722 0.32331 0.5334 0.0
H153 H 0.23639 0.42997 0.65933 0.0
H154 H 0.1249 0.31516 0.42778 0.0
H155 H 0.18717 0.2804 0.52683 0.0
O156 O 0.98119 0.06189 0.61333 0.0
Mg157 Mg 0.02909 0.05786 0.60622 0.0
O158 O 0.96862 0.02362 0.57884 0.0
Mg159 Mg 0.00943 0.01339 0.53982 0.0
O160 O 0.03382 0.05608 0.54717 0.0
O161 O 0.05187 0.09133 0.5863 0.0
O162 O 0.05247 0.00648 0.50088 0.0
O163 O 0.97698 0.03299 0.48664 0.0
Mg164 Mg 0.00637 0.97601 0.48864 0.0
O165 O 0.98101 0.97012 0.53514 0.0
O166 O 0.05324 0.96162 0.4959 0.0
O167 O 0.99022 0.00419 0.44179 0.0
O168 O 0.97726 0.94351 0.48019 0.0
C169 C 0.05649 0.00135 0.62726 0.0
C170 C 0.96144 0.04313 0.60153 0.0
C171 C 0.04751 0.08005 0.55151 0.0
C172 C 0.06693 0.9844 0.49294 0.0
C173 C 0.97595 0.02594 0.45033 0.0
C174 C 0.96916 0.94884 0.51472 0.0
O175 O 0.05504 0.02619 0.6388 0.0
O176 O 0.04207 0.99337 0.59371 0.0
O177 O 0.53836 0.48653 0.13611 0.0
Mg178 Mg 0.5118 0.45954 0.09621 0.0
O179 O 0.52879 0.52305 0.09672 0.0
Mg180 Mg 0.4954 0.5076 0.04004 0.0
O181 O 0.5195 0.46414 0.03827 0.0
O182 O 0.53434 0.4267 0.07575 0.0
O183 O 0.46183 0.49074 0.98378 0.0
O184 O 0.53624 0.52041 0.00237 0.0
Mg185 Mg 0.47512 0.55115 0.98352 0.0
O186 O 0.47128 0.55186 0.04321 0.0
O187 O 0.44282 0.52658 0.94781 0.0
O188 O 0.52023 0.55768 0.96769 0.0
O189 O 0.45471 0.58582 -0.00053 0.0
C190 C 0.44608 0.47374 0.09696 0.0
C191 C 0.54165 0.51207 0.12932 0.0
C192 C 0.53239 0.43965 0.04212 0.0
C193 C 0.44363 0.50085 0.95417 0.0
C194 C 0.54152 0.54002 0.97879 0.0
C195 C 0.45827 0.57611 0.03533 0.0
O196 O 0.46455 0.45329 0.10394 0.0
O197 O 0.45455 0.49476 0.07795 0.0
C198 C 0.15344 0.2424 0.4746 0.0
C199 C 0.13659 0.26754 0.47168 0.0
C200 C 0.1374 0.21715 0.47253 0.0
C201 C 0.10399 0.21643 0.46729 0.0
C202 C 0.08718 0.24159 0.46361 0.0
C203 C 0.10327 0.26687 0.46552 0.0
C204 C 0.08604 0.19022 0.46997 0.0
C205 C 0.09803 0.16481 0.4646 0.0
C206 C 0.08298 0.13917 0.47746 0.0
C207 C 0.1027 0.11747 0.49366 0.0
C208 C 0.09032 0.09587 0.51434 0.0
C209 C 0.05792 0.09533 0.51821 0.0
H210 H 0.03395 0.15292 0.46466 0.0
C211 C 0.03762 0.11534 0.4985 0.0
C212 C 0.05001 0.13708 0.47805 0.0
H213 H 0.01259 0.11544 0.50167 0.0
H214 H 0.17915 0.24223 0.479 0.0
H215 H 0.15142 0.19843 0.4767 0.0
H216 H 0.06147 0.2417 0.46008 0.0
H217 H 0.0896 0.28589 0.46354 0.0
H218 H 0.06275 0.19211 0.47956 0.0
H219 H 0.12133 0.16274 0.45518 0.0
H220 H 0.12813 0.11843 0.49331 0.0
H221 H 0.10642 0.08088 0.53002 0.0
C222 C 0.37727 0.7511 0.13648 0.0
C223 C 0.37352 0.76904 0.10343 0.0
C224 C 0.39208 0.72528 0.13408 0.0
C225 C 0.40353 0.71726 0.09861 0.0
C226 C 0.40155 0.73612 0.06676 0.0
C227 C 0.38673 0.76168 0.0691 0.0
C228 C 0.41386 0.6886 0.09113 0.0
C229 C 0.42238 0.66904 0.119 0.0
C230 C 0.42879 0.64056 0.10588 0.0
C231 C 0.45802 0.62748 0.11826 0.0
C232 C 0.46681 0.60385 0.09815 0.0
C233 C 0.44624 0.59322 0.06587 0.0
H234 H 0.38411 0.63734 0.06711 0.0
C235 C 0.41576 0.60457 0.0567 0.0
C236 C 0.40704 0.62793 0.07661 0.0
H237 H 0.39955 0.5967 0.03185 0.0
H238 H 0.3671 0.75632 0.16321 0.0
H239 H 0.39283 0.71119 0.15907 0.0
H240 H 0.41027 0.73059 0.03914 0.0
H241 H 0.38446 0.7753 0.04338 0.0
H242 H 0.41376 0.68297 0.05997 0.0
H243 H 0.42567 0.67392 0.15055 0.0
H244 H 0.47502 0.63682 0.14099 0.0
H245 H 0.49059 0.59555 0.10534 0.0
C246 C 0.85166 0.78023 0.55894 0.0
C247 C 0.84835 0.76768 0.5956 0.0
C248 C 0.86658 0.80581 0.55769 0.0
C249 C 0.8785 0.81955 0.59314 0.0
C250 C 0.87591 0.80677 0.62984 0.0
C251 C 0.86064 0.78118 0.6311 0.0
C252 C 0.89506 0.84651 0.59189 0.0
C253 C 0.88603 0.86524 0.56307 0.0
C254 C 0.90557 0.88919 0.55379 0.0
C255 C 0.90207 0.89842 0.51416 0.0
C256 C 0.92215 0.91855 0.50218 0.0
C257 C 0.94579 0.93046 0.52973 0.0
H258 H 0.93109 0.89584 0.61306 0.0
C259 C 0.94812 0.92275 0.57006 0.0
C260 C 0.92828 0.902 0.58203 0.0
H261 H 0.96613 0.93177 0.59184 0.0
H262 H 0.84231 0.77044 0.53109 0.0
H263 H 0.86915 0.81456 0.52882 0.0
H264 H 0.88538 0.81673 0.65751 0.0
H265 H 0.8587 0.77183 0.6598 0.0
H266 H 0.91573 0.85014 0.61374 0.0
H267 H 0.86478 0.86119 0.54226 0.0
H268 H 0.88464 0.88913 0.49186 0.0
H269 H 0.9196 0.92437 0.47096 0.0
C270 C 0.65986 0.28749 0.96484 0.0
C271 C 0.64648 0.26123 0.96902 0.0
C272 C 0.64102 0.31135 0.96297 0.0
C273 C 0.60821 0.30947 0.96503 0.0
C274 C 0.59483 0.28314 0.96834 0.0
C275 C 0.61367 0.25932 0.97025 0.0
C276 C 0.58754 0.33419 0.96758 0.0
C277 C 0.59554 0.36047 0.9597 0.0
C278 C 0.57668 0.38453 0.97085 0.0
C279 C 0.59267 0.4087 0.985 0.0
C280 C 0.57695 0.42905 0.0044 0.0
C281 C 0.54495 0.42562 0.00922 0.0
H282 H 0.53035 0.36499 0.95976 0.0
C283 C 0.52811 0.40304 0.99127 0.0
C284 C 0.54374 0.38276 0.97184 0.0
H285 H 0.50345 0.39994 0.99506 0.0
H286 H 0.68516 0.28971 0.96439 0.0
H287 H 0.65264 0.3311 0.96141 0.0
H288 H 0.5697 0.28097 0.97015 0.0
H289 H 0.60252 0.23939 0.97291 0.0
H290 H 0.56526 0.33044 0.97906 0.0
H291 H 0.61797 0.36483 0.94907 0.0
H292 H 0.61794 0.41076 0.98416 0.0
H293 H 0.59046 0.44611 0.01868 0.0
C294 C 0.21345 0.93645 0.29614 0.0
C295 C 0.20595 0.94692 0.25724 0.0
C296 C 0.19818 0.94656 0.32731 0.0
C297 C 0.17506 0.96761 0.32041 0.0
C298 C 0.16784 0.97821 0.28154 0.0
C299 C 0.18311 0.96808 0.25038 0.0
C300 C 0.15638 0.97775 0.3519 0.0
C301 C 0.16379 0.97245 0.3912 0.0
C302 C 0.14181 0.97866 0.42071 0.0
C303 C 0.14013 0.95984 0.45197 0.0
C304 C 0.1169 0.96275 0.47722 0.0
C305 C 0.09546 0.98501 0.47244 0.0
H306 H 0.12286 0.01721 0.39421 0.0
C307 C 0.09872 0.00517 0.44328 0.0
C308 C 0.12158 0.00191 0.41735 0.0
H309 H 0.08234 0.02245 0.43886 0.0
H310 H 0.2311 0.92028 0.30253 0.0
H311 H 0.20419 0.93715 0.35632 0.0
H312 H 0.14993 0.99417 0.27508 0.0
H313 H 0.1764 0.97635 0.22067 0.0
H314 H 0.13464 0.98904 0.3418 0.0
H315 H 0.18508 0.96088 0.40203 0.0
H316 H 0.15566 0.94193 0.45548 0.0
H317 H 0.11487 0.94694 0.4995 0.0
C318 C 0.69542 0.57061 0.77939 0.0
C319 C 0.68529 0.59339 0.75498 0.0
C320 C 0.67921 0.56322 0.81136 0.0
C321 C 0.65235 0.5784 0.81912 0.0
C322 C 0.64202 0.6007 0.79398 0.0
C323 C 0.65819 0.60808 0.7624 0.0
C324 C 0.6345 0.57277 0.85325 0.0
C325 C 0.63911 0.55126 0.87891 0.0
C326 C 0.61878 0.54784 0.91117 0.0
C327 C 0.60899 0.52134 0.92159 0.0
C328 C 0.58545 0.51833 0.94674 0.0
C329 C 0.57151 0.54186 0.96156 0.0
H330 H 0.6153 0.59171 0.92395 0.0
C331 C 0.58348 0.5681 0.95412 0.0
C332 C 0.60715 0.57106 0.92968 0.0
H333 H 0.57348 0.58653 0.96581 0.0
H334 H 0.71634 0.55897 0.77438 0.0
H335 H 0.68816 0.546 0.83002 0.0
H336 H 0.62136 0.61273 0.79893 0.0
H337 H 0.64942 0.62541 0.7437 0.0
H338 H 0.61548 0.58726 0.85674 0.0
H339 H 0.65604 0.53505 0.87477 0.0
H340 H 0.61803 0.50309 0.90832 0.0
H341 H 0.57658 0.49785 0.95212 0.0
C342 C 0.8226 0.108 0.2219 0.0
C343 C 0.82511 0.09557 0.18494 0.0
C344 C 0.84018 0.0977 0.25686 0.0
C345 C 0.86029 0.07461 0.2553 0.0
C346 C 0.8616 0.06164 0.21852 0.0
C347 C 0.8444 0.07206 0.18375 0.0
C348 C 0.88057 0.06321 0.29073 0.0
C349 C 0.8908 0.07765 0.32398 0.0
C350 C 0.91412 0.06577 0.35623 0.0
C351 C 0.91318 0.07347 0.39605 0.0
C352 C 0.93402 0.06132 0.42686 0.0
C353 C 0.9563 0.0414 0.41821 0.0
H354 H 0.94011 0.04153 0.31717 0.0
C355 C 0.95826 0.03486 0.3782 0.0
C356 C 0.93759 0.04699 0.3476 0.0
H357 H 0.97552 0.01999 0.37043 0.0
H358 H 0.80775 0.12609 0.22358 0.0
H359 H 0.83788 0.10781 0.28481 0.0
H360 H 0.8766 0.04368 0.21645 0.0
H361 H 0.84638 0.0618 0.15575 0.0
H362 H 0.88887 0.04208 0.2882 0.0
H363 H 0.88226 0.09852 0.32785 0.0
H364 H 0.8957 0.08828 0.40342 0.0
H365 H 0.93202 0.06689 0.45741 0.0
C366 C 0.32983 0.44349 0.6952 0.0
C367 C 0.30021 0.43013 0.68813 0.0
C368 C 0.34459 0.44791 0.73407 0.0
C369 C 0.3299 0.43946 0.76689 0.0
C370 C 0.30013 0.42666 0.76009 0.0
C371 C 0.28563 0.42168 0.7212 0.0
C372 C 0.34408 0.44582 0.80826 0.0
C373 C 0.37563 0.44532 0.81995 0.0
C374 C 0.39042 0.45633 0.85896 0.0
C375 C 0.42036 0.4465 0.87598 0.0
C376 C 0.4369 0.45953 0.90942 0.0
C377 C 0.42402 0.48306 0.92552 0.0
H378 H 0.35418 0.48744 0.86413 0.0
C379 C 0.39357 0.49215 0.90958 0.0
C380 C 0.37683 0.47885 0.87685 0.0
H381 H 0.38327 0.51037 0.92142 0.0
H382 H 0.34148 0.45101 0.67074 0.0
H383 H 0.36707 0.45872 0.73837 0.0
H384 H 0.2882 0.42024 0.78494 0.0
H385 H 0.26313 0.41093 0.71721 0.0
H386 H 0.32802 0.45115 0.82951 0.0
H387 H 0.39133 0.43736 0.79976 0.0
H388 H 0.43144 0.42934 0.86253 0.0
H389 H 0.46054 0.4524 0.92092 0.0
C390 C 0.68171 0.606 0.35965 0.0
C391 C 0.68189 0.59198 0.39626 0.0
C392 C 0.66465 0.59548 0.32459 0.0
C393 C 0.64758 0.57064 0.32554 0.0
C394 C 0.64789 0.55672 0.362 0.0
C395 C 0.66452 0.56732 0.3969 0.0
C396 C 0.62968 0.55782 0.28959 0.0
C397 C 0.61715 0.57159 0.25643 0.0
C398 C 0.59638 0.55743 0.22368 0.0
C399 C 0.59463 0.56696 0.18411 0.0
C400 C 0.57616 0.55285 0.15299 0.0
C401 C 0.55936 0.52895 0.16116 0.0
H402 H 0.57692 0.52742 0.26188 0.0
C403 C 0.56 0.52033 0.20088 0.0
C404 C 0.57786 0.53453 0.23172 0.0
H405 H 0.54653 0.50248 0.20829 0.0
H406 H 0.69515 0.62487 0.35793 0.0
H407 H 0.66548 0.60649 0.29688 0.0
H408 H 0.63484 0.5376 0.36365 0.0
H409 H 0.66337 0.55625 0.42452 0.0
H410 H 0.62557 0.53572 0.29161 0.0
H411 H 0.62177 0.5935 0.25319 0.0
H412 H 0.60812 0.5849 0.17717 0.0
H413 H 0.5758 0.56008 0.12262 0.0
C414 C 0.80378 0.07214 0.7951 0.0
C415 C 0.8164 0.0922 0.82281 0.0
C416 C 0.8189 0.06606 0.76172 0.0
C417 C 0.8468 0.08013 0.75547 0.0
C418 C 0.859 0.10033 0.783 0.0
C419 C 0.84411 0.10624 0.81624 0.0
C420 C 0.86367 0.07545 0.72034 0.0
C421 C 0.86132 0.05261 0.69728 0.0
C422 C 0.88199 0.04902 0.66543 0.0
C423 C 0.89459 0.02281 0.65845 0.0
C424 C 0.91885 0.02017 0.6343 0.0
C425 C 0.93069 0.04376 0.61705 0.0
H426 H 0.8813 0.09225 0.64752 0.0
C427 C 0.91595 0.06942 0.62094 0.0
C428 C 0.89155 0.07197 0.64438 0.0
H429 H 0.92441 0.08784 0.60741 0.0
H430 H 0.78241 0.06102 0.79943 0.0
H431 H 0.80841 0.05075 0.74074 0.0
H432 H 0.88028 0.11168 0.77884 0.0
H433 H 0.85411 0.12218 0.83656 0.0
H434 H 0.88081 0.0912 0.71493 0.0
H435 H 0.84677 0.03533 0.70433 0.0
H436 H 0.88726 0.00473 0.6738 0.0
H437 H 0.92995 0.00017 0.63175 0.0
C438 C 0.30723 0.46126 0.30959 0.0
C439 C 0.28419 0.44054 0.31062 0.0
C440 C 0.32085 0.4662 0.27481 0.0
C441 C 0.31164 0.45051 0.24018 0.0
C442 C 0.2881 0.43027 0.24105 0.0
C443 C 0.27441 0.42542 0.27574 0.0
C444 C 0.32837 0.45245 0.20433 0.0
C445 C 0.34584 0.47438 0.19572 0.0
C446 C 0.36755 0.47372 0.1646 0.0
C447 C 0.37814 0.49873 0.14967 0.0
C448 C 0.40219 0.49885 0.12504 0.0
C449 C 0.41642 0.47391 0.11546 0.0
H450 H 0.37397 0.429 0.1645 0.0
C451 C 0.4047 0.44886 0.12873 0.0
C452 C 0.38068 0.44873 0.15304 0.0
H453 H 0.41518 0.42928 0.1219 0.0
H454 H 0.31515 0.47335 0.33593 0.0
H455 H 0.33946 0.4815 0.27588 0.0
H456 H 0.28082 0.41763 0.21504 0.0
H457 H 0.25705 0.40904 0.27567 0.0
H458 H 0.32669 0.43459 0.18477 0.0
H459 H 0.34516 0.49331 0.2128 0.0
H460 H 0.36861 0.51829 0.15828 0.0
H461 H 0.41087 0.51849 0.11552 0.0
C462 C 0.20078 0.91993 0.86043 0.0
C463 C 0.19633 0.9328 0.89655 0.0
C464 C 0.18156 0.92689 0.82489 0.0
C465 C 0.15743 0.94693 0.82479 0.0
C466 C 0.15337 0.95992 0.86087 0.0
C467 C 0.17246 0.95296 0.89623 0.0
C468 C 0.13556 0.95508 0.78853 0.0
C469 C 0.13552 0.9446 0.75157 0.0
C470 C 0.1128 0.95485 0.7174 0.0
C471 C 0.12234 0.95698 0.67927 0.0
C472 C 0.10284 0.97036 0.64828 0.0
C473 C 0.0736 0.98155 0.65519 0.0
H474 H 0.07344 0.96153 0.7513 0.0
C475 C 0.06305 0.97754 0.69225 0.0
C476 C 0.08223 0.96397 0.7229 0.0
H477 H 0.04044 0.98594 0.698 0.0
H478 H 0.21918 0.90448 0.85962 0.0
H479 H 0.18578 0.91636 0.79796 0.0
H480 H 0.13499 0.97538 0.86191 0.0
H481 H 0.16794 0.96294 0.92355 0.0
H482 H 0.11858 0.97131 0.79271 0.0
H483 H 0.1533 0.9297 0.74538 0.0
H484 H 0.14558 0.94974 0.67411 0.0
H485 H 0.11143 0.97349 0.61986 0.0
loop_
_geom_bond_atom_site_label_1
_geom_bond_atom_site_label_2
_geom_bond_distance
_geom_bond_site_symmetry_2
_ccdc_geom_bond_type
C0 C1 1.386 . S
C0 C2 1.397 . S
C0 H24 0.931 . S
C1 C0 1.386 . S
C1 C5 1.397 . S
C2 C0 1.397 . S
C2 C3 1.384 1_556 S
C2 H25 0.930 . S
C3 C2 1.384 1_554 S
C3 C4 1.377 . S
C3 C6 1.481 . S
C4 C3 1.377 . S
C4 C5 1.389 1_554 S
C4 H26 0.929 . S
C5 C1 1.397 . S
C5 C4 1.389 1_556 S
C5 H27 0.931 . S
C6 C3 1.481 . S
C6 C7 1.387 . S
C6 C11 1.390 . S
C7 C6 1.387 . S
C7 C8 1.401 . S
C7 H28 0.930 . S
C8 C7 1.401 . S
C8 C9 1.376 . S
C8 C17 1.511 . S
C9 C8 1.376 . S
C9 C10 1.392 . S
C9 H30 0.931 . S
C10 C9 1.392 . S
C10 C11 1.361 . S
C10 C12 1.500 . S
C11 C6 1.390 . S
C11 C10 1.361 . S
C11 H29 0.931 . S
C12 C10 1.500 . S
C12 C13 1.371 . S
C12 C14 1.365 . S
C13 C12 1.371 . S
C13 C23 1.386 . S
C13 H31 0.931 . S
C14 C12 1.365 . S
C14 C15 1.409 . S
C14 H32 0.929 . S
C15 C14 1.409 . S
C15 C16 1.380 . S
C15 H33 0.930 . S
C16 C15 1.380 . S
C16 C23 1.357 . S
C17 C8 1.511 . S
C17 C18 1.341 . S
C17 C19 1.371 . S
C18 C17 1.341 . S
C18 C22 1.394 . S
C18 H34 0.930 . S
C19 C17 1.371 . S
C19 C20 1.392 . S
C19 H35 0.931 . S
C20 C19 1.392 . S
C20 C21 1.331 . S
C20 H38 0.932 . S
C21 C20 1.331 . S
C21 C22 1.336 . S
C22 C18 1.394 . S
C22 C21 1.336 . S
C22 H37 0.929 . S
C23 C13 1.386 . S
C23 C16 1.357 . S
C23 H36 0.928 . S
H24 C0 0.931 . S
H25 C2 0.930 . S
H26 C4 0.929 . S
H27 C5 0.931 . S
H28 C7 0.930 . S
H29 C11 0.931 . S
H30 C9 0.931 . S
H31 C13 0.931 . S
H32 C14 0.929 . S
H33 C15 0.930 . S
H34 C18 0.930 . S
H35 C19 0.931 . S
H36 C23 0.928 . S
H37 C22 0.929 . S
H38 C20 0.932 . S
C39 C40 1.386 . S
C39 C41 1.397 . S
C39 H63 0.931 . S
C40 C39 1.386 . S
C40 C44 1.397 . S
C41 C39 1.397 . S
C41 C42 1.384 . S
C41 H64 0.930 . S
C42 C41 1.384 . S
C42 C43 1.377 . S
C42 C45 1.481 . S
C43 C42 1.377 . S
C43 C44 1.389 . S
C43 H65 0.929 . S
C44 C40 1.397 . S
C44 C43 1.389 . S
C44 H66 0.931 . S
C45 C42 1.481 . S
C45 C46 1.387 . S
C45 C50 1.390 . S
C46 C45 1.387 . S
C46 C47 1.401 . S
C46 H67 0.930 . S
C47 C46 1.401 . S
C47 C48 1.376 . S
C47 C56 1.511 . S
C48 C47 1.376 . S
C48 C49 1.392 . S
C48 H69 0.931 . S
C49 C48 1.392 . S
C49 C50 1.361 . S
C49 C51 1.500 . S
C50 C45 1.390 . S
C50 C49 1.361 . S
C50 H68 0.931 . S
C51 C49 1.500 . S
C51 C52 1.371 . S
C51 C53 1.365 . S
C52 C51 1.371 . S
C52 C62 1.386 . S
C52 H70 0.931 . S
C53 C51 1.365 . S
C53 C54 1.409 . S
C53 H71 0.929 . S
C54 C53 1.409 . S
C54 C55 1.380 . S
C54 H72 0.930 . S
C55 C54 1.380 . S
C55 C62 1.357 . S
C56 C47 1.511 . S
C56 C57 1.341 . S
C56 C58 1.371 . S
C57 C56 1.341 . S
C57 C61 1.394 . S
C57 H73 0.930 . S
C58 C56 1.371 . S
C58 C59 1.392 . S
C58 H74 0.931 . S
C59 C58 1.392 . S
C59 C60 1.331 . S
C59 H77 0.932 . S
C60 C59 1.331 . S
C60 C61 1.336 . S
C61 C57 1.394 . S
C61 C60 1.336 . S
C61 H76 0.929 . S
C62 C52 1.386 . S
C62 C55 1.357 . S
C62 H75 0.928 . S
H63 C39 0.931 . S
H64 C41 0.930 . S
H65 C43 0.929 . S
H66 C44 0.931 . S
H67 C46 0.930 . S
H68 C50 0.931 . S
H69 C48 0.931 . S
H70 C52 0.931 . S
H71 C53 0.929 . S
H72 C54 0.930 . S
H73 C57 0.930 . S
H74 C58 0.931 . S
H75 C62 0.928 . S
H76 C61 0.929 . S
H77 C59 0.932 . S
C78 C79 1.386 . S
C78 C80 1.397 . S
C78 H102 0.931 . S
C79 C78 1.386 . S
C79 C83 1.397 . S
C80 C78 1.397 . S
C80 C81 1.384 . S
C80 H103 0.930 . S
C81 C80 1.384 . S
C81 C82 1.377 . S
C81 C84 1.481 . S
C82 C81 1.377 . S
C82 C83 1.389 . S
C82 H104 0.929 . S
C83 C79 1.397 . S
C83 C82 1.389 . S
C83 H105 0.931 . S
C84 C81 1.481 . S
C84 C85 1.387 . S
C84 C89 1.390 . S
C85 C84 1.387 . S
C85 C86 1.401 1_554 S
C85 H106 0.930 . S
C86 C85 1.401 1_556 S
C86 C87 1.376 . S
C86 C95 1.511 . S
C87 C86 1.376 . S
C87 C88 1.392 . S
C87 H108 0.931 . S
C88 C87 1.392 . S
C88 C89 1.361 1_556 S
C88 C90 1.500 . S
C89 C84 1.390 . S
C89 C88 1.361 1_554 S
C89 H107 0.931 . S
C90 C88 1.500 . S
C90 C91 1.371 . S
C90 C92 1.365 . S
C91 C90 1.371 . S
C91 C101 1.386 . S
C91 H109 0.931 . S
C92 C90 1.365 . S
C92 C93 1.409 . S
C92 H110 0.929 . S
C93 C92 1.409 . S
C93 C94 1.380 . S
C93 H111 0.930 . S
C94 C93 1.380 . S
C94 C101 1.357 . S
C95 C86 1.511 . S
C95 C96 1.341 1_556 S
C95 C97 1.371 . S
C96 C95 1.341 1_554 S
C96 C100 1.394 . S
C96 H112 0.930 . S
C97 C95 1.371 . S
C97 C98 1.392 . S
C97 H113 0.931 . S
C98 C97 1.392 . S
C98 C99 1.331 . S
C98 H116 0.932 . S
C99 C98 1.331 . S
C99 C100 1.336 1_556 S
C100 C96 1.394 . S
C100 C99 1.336 1_554 S
C100 H115 0.929 . S
C101 C91 1.386 . S
C101 C94 1.357 . S
C101 H114 0.928 . S
H102 C78 0.931 . S
H103 C80 0.930 . S
H104 C82 0.929 . S
H105 C83 0.931 . S
H106 C85 0.930 . S
H107 C89 0.931 . S
H108 C87 0.931 . S
H109 C91 0.931 . S
H110 C92 0.929 . S
H111 C93 0.930 . S
H112 C96 0.930 . S
H113 C97 0.931 . S
H114 C101 0.928 . S
H115 C100 0.929 . S
H116 C98 0.932 . S
C117 C118 1.386 . S
C117 C119 1.397 . S
C117 H141 0.931 . S
C118 C117 1.386 . S
C118 C122 1.397 . S
C119 C117 1.397 . S
C119 C120 1.384 . S
C119 H142 0.930 . S
C120 C119 1.384 . S
C120 C121 1.377 . S
C120 C123 1.481 . S
C121 C120 1.377 . S
C121 C122 1.389 . S
C121 H143 0.929 . S
C122 C118 1.397 . S
C122 C121 1.389 . S
C122 H144 0.931 . S
C123 C120 1.481 . S
C123 C124 1.387 . S
C123 C128 1.390 . S
C124 C123 1.387 . S
C124 C125 1.401 . S
C124 H145 0.930 . S
C125 C124 1.401 . S
C125 C126 1.376 . S
C125 C134 1.511 . S
C126 C125 1.376 . S
C126 C127 1.392 . S
C126 H147 0.931 . S
C127 C126 1.392 . S
C127 C128 1.361 . S
C127 C129 1.500 . S
C128 C123 1.390 . S
C128 C127 1.361 . S
C128 H146 0.931 . S
C129 C127 1.500 . S
C129 C130 1.371 . S
C129 C131 1.365 . S
C130 C129 1.371 . S
C130 C140 1.386 . S
C130 H148 0.931 . S
C131 C129 1.365 . S
C131 C132 1.409 . S
C131 H149 0.929 . S
C132 C131 1.409 . S
C132 C133 1.380 . S
C132 H150 0.930 . S
C133 C132 1.380 . S
C133 C140 1.357 . S
C134 C125 1.511 . S
C134 C135 1.341 . S
C134 C136 1.371 . S
C135 C134 1.341 . S
C135 C139 1.394 . S
C135 H151 0.930 . S
C136 C134 1.371 . S
C136 C137 1.392 . S
C136 H152 0.931 . S
C137 C136 1.392 . S
C137 C138 1.331 . S
C137 H155 0.932 . S
C138 C137 1.331 . S
C138 C139 1.336 . S
C139 C135 1.394 . S
C139 C138 1.336 . S
C139 H154 0.929 . S
C140 C130 1.386 . S
C140 C133 1.357 . S
C140 H153 0.928 . S
H141 C117 0.931 . S
H142 C119 0.930 . S
H143 C121 0.929 . S
H144 C122 0.931 . S
H145 C124 0.930 . S
H146 C128 0.931 . S
H147 C126 0.931 . S
H148 C130 0.931 . S
H149 C131 0.929 . S
H150 C132 0.930 . S
H151 C135 0.930 . S
H152 C136 0.931 . S
H153 C140 0.928 . S
H154 C139 0.929 . S
H155 C137 0.932 . S
O156 Mg157 1.990 1_655 S
O156 C170 1.253 . S
Mg157 O156 1.990 1_455 S
Mg157 O160 2.180 . S
Mg157 O161 2.117 . S
Mg157 O175 2.030 . S
O158 Mg159 2.072 1_655 S
O158 C170 1.260 . S
Mg159 O158 2.072 1_455 S
Mg159 O160 2.099 . S
Mg159 O162 2.079 1_545 S
Mg159 O163 2.072 1_455 S
Mg159 O165 2.099 1_445 S
Mg159 O176 2.079 1_545 S
O160 Mg157 2.180 . S
O160 Mg159 2.099 . S
O160 C171 1.279 . S
O161 Mg157 2.117 . S
O161 C171 1.250 . S
O162 Mg159 2.079 1_565 S
O162 C172 1.264 . S
O163 Mg159 2.072 1_655 S
O163 C173 1.260 . S
Mg164 O165 2.180 . S
Mg164 O166 2.030 1_655 S
Mg164 O167 1.990 1_565 S
Mg164 O168 2.117 . S
O165 Mg159 2.099 1_665 S
O165 Mg164 2.180 . S
O165 C174 1.279 . S
O166 Mg164 2.030 1_455 S
O166 C172 1.248 . S
O167 Mg164 1.990 1_545 S
O167 C173 1.253 . S
O168 Mg164 2.117 . S
O168 C174 1.250 . S
C169 O175 1.248 1_565 S
C169 O176 1.264 . S
C170 O156 1.253 . S
C170 O158 1.260 . S
C171 O160 1.279 . S
C171 O161 1.250 . S
C172 O162 1.264 . S
C172 O166 1.248 . S
C173 O163 1.260 . S
C173 O167 1.253 . S
C174 O165 1.279 . S
C174 O168 1.250 . S
O175 Mg157 2.030 . S
O175 C169 1.248 1_545 S
O176 Mg159 2.079 1_565 S
O176 C169 1.264 . S
O177 Mg178 1.990 . S
O177 C191 1.253 . S
Mg178 O177 1.990 . S
Mg178 O181 2.180 . S
Mg178 O182 2.117 . S
Mg178 O196 2.030 . S
O179 Mg180 2.072 . S
O179 C191 1.260 . S
Mg180 O179 2.072 . S
Mg180 O181 2.099 . S
Mg180 O183 2.079 1_554 S
Mg180 O184 2.074 1_554 S
Mg180 O186 2.099 . S
Mg180 O197 2.079 . S
O181 Mg178 2.180 . S
O181 Mg180 2.099 . S
O181 C192 1.279 . S
O182 Mg178 2.117 . S
O182 C192 1.250 . S
O183 Mg180 2.079 1_556 S
O183 C193 1.264 . S
O184 Mg180 2.074 1_556 S
O184 C194 1.258 . S
Mg185 O186 2.180 1_556 S
Mg185 O187 2.030 . S
Mg185 O188 1.990 . S
Mg185 O189 2.117 1_556 S
O186 Mg180 2.099 . S
O186 Mg185 2.180 1_554 S
O186 C195 1.279 . S
O187 Mg185 2.030 . S
O187 C193 1.248 . S
O188 Mg185 1.990 . S
O188 C194 1.253 . S
O189 Mg185 2.117 1_554 S
O189 C195 1.250 . S
C190 O196 1.248 . S
C190 O197 1.264 . S
C191 O177 1.253 . S
C191 O179 1.260 . S
C192 O181 1.279 . S
C192 O182 1.250 . S
C193 O183 1.264 . S
C193 O187 1.248 . S
C194 O184 1.258 . S
C194 O188 1.253 . S
C195 O186 1.279 . S
C195 O189 1.250 . S
O196 Mg178 2.030 . S
O196 C190 1.248 . S
O197 Mg180 2.079 . S
O197 C190 1.264 . S
C198 C199 1.386 . S
C198 C200 1.383 . S
C198 H214 0.951 . S
C199 C198 1.386 . S
C199 C203 1.383 . S
C200 C198 1.383 . S
C200 C201 1.402 . S
C200 H215 0.951 . S
C201 C200 1.402 . S
C201 C202 1.375 . S
C201 C204 1.481 . S
C202 C201 1.375 . S
C202 C203 1.367 . S
C202 H216 0.951 . S
C203 C199 1.383 . S
C203 C202 1.367 . S
C203 H217 0.950 . S
C204 C201 1.481 . S
C204 C205 1.297 . S
C204 H218 0.950 . S
C205 C204 1.297 . S
C205 C206 1.479 . S
C205 H219 0.950 . S
C206 C205 1.479 . S
C206 C207 1.375 . S
C206 C212 1.404 . S
C207 C206 1.375 . S
C207 C208 1.369 . S
C207 H220 0.950 . S
C208 C207 1.369 . S
C208 C209 1.392 . S
C208 H221 0.951 . S
C209 C208 1.392 . S
C209 C211 1.384 . S
H210 C212 0.949 . S
C211 C209 1.384 . S
C211 C212 1.385 . S
C211 H213 0.950 . S
C212 C206 1.404 . S
C212 H210 0.949 . S
C212 C211 1.385 . S
H213 C211 0.950 . S
H214 C198 0.951 . S
H215 C200 0.951 . S
H216 C202 0.951 . S
H217 C203 0.950 . S
H218 C204 0.950 . S
H219 C205 0.950 . S
H220 C207 0.950 . S
H221 C208 0.951 . S
C222 C223 1.386 . S
C222 C224 1.383 . S
C222 H238 0.951 . S
C223 C222 1.386 . S
C223 C227 1.383 . S
C224 C222 1.383 . S
C224 C225 1.402 . S
C224 H239 0.951 . S
C225 C224 1.402 . S
C225 C226 1.375 . S
C225 C228 1.481 . S
C226 C225 1.375 . S
C226 C227 1.367 . S
C226 H240 0.951 . S
C227 C223 1.383 . S
C227 C226 1.367 . S
C227 H241 0.950 . S
C228 C225 1.481 . S
C228 C229 1.297 . S
C228 H242 0.950 . S
C229 C228 1.297 . S
C229 C230 1.479 . S
C229 H243 0.950 . S
C230 C229 1.479 . S
C230 C231 1.375 . S
C230 C236 1.404 . S
C231 C230 1.375 . S
C231 C232 1.369 . S
C231 H244 0.950 . S
C232 C231 1.369 . S
C232 C233 1.392 . S
C232 H245 0.951 . S
C233 C232 1.392 . S
C233 C235 1.384 . S
H234 C236 0.949 . S
C235 C233 1.384 . S
C235 C236 1.385 . S
C235 H237 0.950 1_554 S
C236 C230 1.404 . S
C236 H234 0.949 . S
C236 C235 1.385 . S
H237 C235 0.950 1_556 S
H238 C222 0.951 . S
H239 C224 0.951 . S
H240 C226 0.951 . S
H241 C227 0.950 . S
H242 C228 0.950 . S
H243 C229 0.950 . S
H244 C231 0.950 . S
H245 C232 0.951 . S
C246 C247 1.386 . S
C246 C248 1.383 . S
C246 H262 0.951 . S
C247 C246 1.386 . S
C247 C251 1.383 . S
C248 C246 1.383 . S
C248 C249 1.402 . S
C248 H263 0.951 . S
C249 C248 1.402 . S
C249 C250 1.375 . S
C249 C252 1.481 . S
C250 C249 1.375 . S
C250 C251 1.367 . S
C250 H264 0.951 . S
C251 C247 1.383 . S
C251 C250 1.367 . S
C251 H265 0.950 . S
C252 C249 1.481 . S
C252 C253 1.297 . S
C252 H266 0.950 . S
C253 C252 1.297 . S
C253 C254 1.479 . S
C253 H267 0.950 . S
C254 C253 1.479 . S
C254 C255 1.375 . S
C254 C260 1.404 . S
C255 C254 1.375 . S
C255 C256 1.369 . S
C255 H268 0.950 . S
C256 C255 1.369 . S
C256 C257 1.392 . S
C256 H269 0.951 . S
C257 C256 1.392 . S
C257 C259 1.384 . S
H258 C260 0.949 . S
C259 C257 1.384 . S
C259 C260 1.385 . S
C259 H261 0.950 . S
C260 C254 1.404 . S
C260 H258 0.949 . S
C260 C259 1.385 . S
H261 C259 0.950 . S
H262 C246 0.951 . S
H263 C248 0.951 . S
H264 C250 0.951 . S
H265 C251 0.950 . S
H266 C252 0.950 . S
H267 C253 0.950 . S
H268 C255 0.950 . S
H269 C256 0.951 . S
C270 C271 1.386 1_554 S
C270 C272 1.383 . S
C270 H286 0.951 . S
C271 C270 1.386 1_556 S
C271 C275 1.383 . S
C272 C270 1.383 . S
C272 C273 1.402 1_554 S
C272 H287 0.951 . S
C273 C272 1.402 1_556 S
C273 C274 1.375 . S
C273 C276 1.481 . S
C274 C273 1.375 . S
C274 C275 1.367 . S
C274 H288 0.951 . S
C275 C271 1.383 . S
C275 C274 1.367 . S
C275 H289 0.950 . S
C276 C273 1.481 . S
C276 C277 1.297 . S
C276 H290 0.950 . S
C277 C276 1.297 . S
C277 C278 1.479 1_556 S
C277 H291 0.950 1_556 S
C278 C277 1.479 1_554 S
C278 C279 1.375 . S
C278 C284 1.404 1_554 S
C279 C278 1.375 . S
C279 C280 1.369 . S
C279 H292 0.950 . S
C280 C279 1.369 . S
C280 C281 1.392 . S
C280 H293 0.951 . S
C281 C280 1.392 . S
C281 C283 1.384 1_554 S
H282 C284 0.949 . S
C283 C281 1.384 1_556 S
C283 C284 1.385 . S
C283 H285 0.950 . S
C284 C278 1.404 1_556 S
C284 H282 0.949 . S
C284 C283 1.385 . S
H285 C283 0.950 . S
H286 C270 0.951 . S
H287 C272 0.951 . S
H288 C274 0.951 . S
H289 C275 0.950 . S
H290 C276 0.950 . S
H291 C277 0.950 1_554 S
H292 C279 0.950 . S
H293 C280 0.951 . S
C294 C295 1.386 . S
C294 C296 1.383 . S
C294 H310 0.951 . S
C295 C294 1.386 . S
C295 C299 1.383 . S
C296 C294 1.383 . S
C296 C297 1.402 . S
C296 H311 0.951 . S
C297 C296 1.402 . S
C297 C298 1.375 . S
C297 C300 1.481 . S
C298 C297 1.375 . S
C298 C299 1.367 . S
C298 H312 0.951 . S
C299 C295 1.383 . S
C299 C298 1.367 . S
C299 H313 0.950 . S
C300 C297 1.481 . S
C300 C301 1.297 . S
C300 H314 0.950 . S
C301 C300 1.297 . S
C301 C302 1.479 . S
C301 H315 0.950 . S
C302 C301 1.479 . S
C302 C303 1.375 . S
C302 C308 1.404 . S
C303 C302 1.375 . S
C303 C304 1.369 . S
C303 H316 0.950 . S
C304 C303 1.369 . S
C304 C305 1.392 . S
C304 H317 0.951 . S
C305 C304 1.392 . S
C305 C307 1.384 . S
H306 C308 0.949 . S
C307 C305 1.384 . S
C307 C308 1.385 . S
C307 H309 0.950 . S
C308 C302 1.404 . S
C308 H306 0.949 . S
C308 C307 1.385 . S
H309 C307 0.950 . S
H310 C294 0.951 . S
H311 C296 0.951 . S
H312 C298 0.951 . S
H313 C299 0.950 . S
H314 C300 0.950 . S
H315 C301 0.950 . S
H316 C303 0.950 . S
H317 C304 0.951 . S
C318 C319 1.386 . S
C318 C320 1.383 . S
C318 H334 0.951 . S
C319 C318 1.386 . S
C319 C323 1.383 . S
C320 C318 1.383 . S
C320 C321 1.402 . S
C320 H335 0.951 . S
C321 C320 1.402 . S
C321 C322 1.375 . S
C321 C324 1.481 . S
C322 C321 1.375 . S
C322 C323 1.367 . S
C322 H336 0.951 . S
C323 C319 1.383 . S
C323 C322 1.367 . S
C323 H337 0.950 . S
C324 C321 1.481 . S
C324 C325 1.297 . S
C324 H338 0.950 . S
C325 C324 1.297 . S
C325 C326 1.479 . S
C325 H339 0.950 . S
C326 C325 1.479 . S
C326 C327 1.375 . S
C326 C332 1.404 . S
C327 C326 1.375 . S
C327 C328 1.369 . S
C327 H340 0.950 . S
C328 C327 1.369 . S
C328 C329 1.392 . S
C328 H341 0.951 . S
C329 C328 1.392 . S
C329 C331 1.384 . S
H330 C332 0.949 . S
C331 C329 1.384 . S
C331 C332 1.385 . S
C331 H333 0.950 . S
C332 C326 1.404 . S
C332 H330 0.949 . S
C332 C331 1.385 . S
H333 C331 0.950 . S
H334 C318 0.951 . S
H335 C320 0.951 . S
H336 C322 0.951 . S
H337 C323 0.950 . S
H338 C324 0.950 . S
H339 C325 0.950 . S
H340 C327 0.950 . S
H341 C328 0.951 . S
C342 C343 1.386 . S
C342 C344 1.383 . S
C342 H358 0.951 . S
C343 C342 1.386 . S
C343 C347 1.383 . S
C344 C342 1.383 . S
C344 C345 1.402 . S
C344 H359 0.951 . S
C345 C344 1.402 . S
C345 C346 1.375 . S
C345 C348 1.481 . S
C346 C345 1.375 . S
C346 C347 1.367 . S
C346 H360 0.951 . S
C347 C343 1.383 . S
C347 C346 1.367 . S
C347 H361 0.950 . S
C348 C345 1.481 . S
C348 C349 1.297 . S
C348 H362 0.950 . S
C349 C348 1.297 . S
C349 C350 1.479 . S
C349 H363 0.950 . S
C350 C349 1.479 . S
C350 C351 1.375 . S
C350 C356 1.404 . S
C351 C350 1.375 . S
C351 C352 1.369 . S
C351 H364 0.950 . S
C352 C351 1.369 . S
C352 C353 1.392 . S
C352 H365 0.951 . S
C353 C352 1.392 . S
C353 C355 1.384 . S
H354 C356 0.949 . S
C355 C353 1.384 . S
C355 C356 1.385 . S
C355 H357 0.950 . S
C356 C350 1.404 . S
C356 H354 0.949 . S
C356 C355 1.385 . S
H357 C355 0.950 . S
H358 C342 0.951 . S
H359 C344 0.951 . S
H360 C346 0.951 . S
H361 C347 0.950 . S
H362 C348 0.950 . S
H363 C349 0.950 . S
H364 C351 0.950 . S
H365 C352 0.951 . S
C366 C367 1.386 . S
C366 C368 1.383 . S
C366 H382 0.951 . S
C367 C366 1.386 . S
C367 C371 1.383 . S
C368 C366 1.383 . S
C368 C369 1.402 . S
C368 H383 0.951 . S
C369 C368 1.402 . S
C369 C370 1.375 . S
C369 C372 1.481 . S
C370 C369 1.375 . S
C370 C371 1.367 . S
C370 H384 0.951 . S
C371 C367 1.383 . S
C371 C370 1.367 . S
C371 H385 0.950 . S
C372 C369 1.481 . S
C372 C373 1.297 . S
C372 H386 0.950 . S
C373 C372 1.297 . S
C373 C374 1.479 . S
C373 H387 0.950 . S
C374 C373 1.479 . S
C374 C375 1.375 . S
C374 C380 1.404 . S
C375 C374 1.375 . S
C375 C376 1.369 . S
C375 H388 0.950 . S
C376 C375 1.369 . S
C376 C377 1.392 . S
C376 H389 0.951 . S
C377 C376 1.392 . S
C377 C379 1.384 . S
H378 C380 0.949 . S
C379 C377 1.384 . S
C379 C380 1.385 . S
C379 H381 0.950 . S
C380 C374 1.404 . S
C380 H378 0.949 . S
C380 C379 1.385 . S
H381 C379 0.950 . S
H382 C366 0.951 . S
H383 C368 0.951 . S
H384 C370 0.951 . S
H385 C371 0.950 . S
H386 C372 0.950 . S
H387 C373 0.950 . S
H388 C375 0.950 . S
H389 C376 0.951 . S
C390 C391 1.386 . S
C390 C392 1.383 . S
C390 H406 0.951 . S
C391 C390 1.386 . S
C391 C395 1.383 . S
C392 C390 1.383 . S
C392 C393 1.402 . S
C392 H407 0.951 . S
C393 C392 1.402 . S
C393 C394 1.375 . S
C393 C396 1.481 . S
C394 C393 1.375 . S
C394 C395 1.367 . S
C394 H408 0.951 . S
C395 C391 1.383 . S
C395 C394 1.367 . S
C395 H409 0.950 . S
C396 C393 1.481 . S
C396 C397 1.297 . S
C396 H410 0.950 . S
C397 C396 1.297 . S
C397 C398 1.479 . S
C397 H411 0.950 . S
C398 C397 1.479 . S
C398 C399 1.375 . S
C398 C404 1.404 . S
C399 C398 1.375 . S
C399 C400 1.369 . S
C399 H412 0.950 . S
C400 C399 1.369 . S
C400 C401 1.392 . S
C400 H413 0.951 . S
C401 C400 1.392 . S
C401 C403 1.384 . S
H402 C404 0.949 . S
C403 C401 1.384 . S
C403 C404 1.385 . S
C403 H405 0.950 . S
C404 C398 1.404 . S
C404 H402 0.949 . S
C404 C403 1.385 . S
H405 C403 0.950 . S
H406 C390 0.951 . S
H407 C392 0.951 . S
H408 C394 0.951 . S
H409 C395 0.950 . S
H410 C396 0.950 . S
H411 C397 0.950 . S
H412 C399 0.950 . S
H413 C400 0.951 . S
C414 C415 1.386 . S
C414 C416 1.383 . S
C414 H430 0.951 . S
C415 C414 1.386 . S
C415 C419 1.383 . S
C416 C414 1.383 . S
C416 C417 1.402 . S
C416 H431 0.951 . S
C417 C416 1.402 . S
C417 C418 1.375 . S
C417 C420 1.481 . S
C418 C417 1.375 . S
C418 C419 1.367 . S
C418 H432 0.951 . S
C419 C415 1.383 . S
C419 C418 1.367 . S
C419 H433 0.950 . S
C420 C417 1.481 . S
C420 C421 1.297 . S
C420 H434 0.950 . S
C421 C420 1.297 . S
C421 C422 1.479 . S
C421 H435 0.950 . S
C422 C421 1.479 . S
C422 C423 1.375 . S
C422 C428 1.404 . S
C423 C422 1.375 . S
C423 C424 1.369 . S
C423 H436 0.950 . S
C424 C423 1.369 . S
C424 C425 1.392 . S
C424 H437 0.951 . S
C425 C424 1.392 . S
C425 C427 1.384 . S
H426 C428 0.949 . S
C427 C425 1.384 . S
C427 C428 1.385 . S
C427 H429 0.950 . S
C428 C422 1.404 . S
C428 H426 0.949 . S
C428 C427 1.385 . S
H429 C427 0.950 . S
H430 C414 0.951 . S
H431 C416 0.951 . S
H432 C418 0.951 . S
H433 C419 0.950 . S
H434 C420 0.950 . S
H435 C421 0.950 . S
H436 C423 0.950 . S
H437 C424 0.951 . S
C438 C439 1.386 . S
C438 C440 1.383 . S
C438 H454 0.951 . S
C439 C438 1.386 . S
C439 C443 1.383 . S
C440 C438 1.383 . S
C440 C441 1.402 . S
C440 H455 0.951 . S
C441 C440 1.402 . S
C441 C442 1.375 . S
C441 C444 1.481 . S
C442 C441 1.375 . S
C442 C443 1.367 . S
C442 H456 0.951 . S
C443 C439 1.383 . S
C443 C442 1.367 . S
C443 H457 0.950 . S
C444 C441 1.481 . S
C444 C445 1.297 . S
C444 H458 0.950 . S
C445 C444 1.297 . S
C445 C446 1.479 . S
C445 H459 0.950 . S
C446 C445 1.479 . S
C446 C447 1.375 . S
C446 C452 1.404 . S
C447 C446 1.375 . S
C447 C448 1.369 . S
C447 H460 0.950 . S
C448 C447 1.369 . S
C448 C449 1.392 . S
C448 H461 0.951 . S
C449 C448 1.392 . S
C449 C451 1.384 . S
H450 C452 0.949 . S
C451 C449 1.384 . S
C451 C452 1.385 . S
C451 H453 0.950 . S
C452 C446 1.404 . S
C452 H450 0.949 . S
C452 C451 1.385 . S
H453 C451 0.950 . S
H454 C438 0.951 . S
H455 C440 0.951 . S
H456 C442 0.951 . S
H457 C443 0.950 . S
H458 C444 0.950 . S
H459 C445 0.950 . S
H460 C447 0.950 . S
H461 C448 0.951 . S
C462 C463 1.386 . S
C462 C464 1.383 . S
C462 H478 0.951 . S
C463 C462 1.386 . S
C463 C467 1.383 . S
C464 C462 1.383 . S
C464 C465 1.402 . S
C464 H479 0.951 . S
C465 C464 1.402 . S
C465 C466 1.375 . S
C465 C468 1.481 . S
C466 C465 1.375 . S
C466 C467 1.367 . S
C466 H480 0.951 . S
C467 C463 1.383 . S
C467 C466 1.367 . S
C467 H481 0.950 . S
C468 C465 1.481 . S
C468 C469 1.297 . S
C468 H482 0.950 . S
C469 C468 1.297 . S
C469 C470 1.479 . S
C469 H483 0.950 . S
C470 C469 1.479 . S
C470 C471 1.375 . S
C470 C476 1.404 . S
C471 C470 1.375 . S
C471 C472 1.369 . S
C471 H484 0.950 . S
C472 C471 1.369 . S
C472 C473 1.392 . S
C472 H485 0.951 . S
C473 C472 1.392 . S
C473 C475 1.384 . S
H474 C476 0.949 . S
C475 C473 1.384 . S
C475 C476 1.385 . S
C475 H477 0.950 . S
C476 C470 1.404 . S
C476 H474 0.949 . S
C476 C475 1.385 . S
H477 C475 0.950 . S
H478 C462 0.951 . S
H479 C464 0.951 . S
H480 C466 0.951 . S
H481 C467 0.950 . S
H482 C468 0.950 . S
H483 C469 0.950 . S
H484 C471 0.950 . S
H485 C472 0.951 . S
C209 C171 1.238 . S
C199 C138 1.514 . S
C223 C21 1.487 . S
C233 C195 1.313 . S
C247 C60 1.648 . S
C257 C174 1.425 . S
C271 C99 1.678 . S
C281 C192 1.532 . S
C305 C172 1.605 . S
C295 C16 1.593 . S
C329 C194 1.574 . S
C319 C40 1.600 . S
C343 C79 1.578 . S
C353 C173 1.447 . S
C367 C133 1.601 . S
C377 C193 1.463 . S
C401 C191 1.473 . S
C391 C55 1.590 . S
C425 C170 1.537 . S
C415 C94 1.589 . S
C449 C190 1.557 . S
C439 C118 1.589 . S
C463 C1 1.565 . S
C473 C169 1.572 . S
