# Generated by pormake.
# Topology ctn, (3,4)-cn, num edge types: 1
# Building blocks:
#     Node 0, Type 0, BuildingBlock: BETDAH_clean_linker_0, # of connection points: 3
#     Node 1, Type 0, BuildingBlock: BETDAH_clean_linker_0, # of connection points: 3
#     Node 2, Type 0, BuildingBlock: BETDAH_clean_linker_0, # of connection points: 3
#     Node 3, Type 0, BuildingBlock: BETDAH_clean_linker_0, # of connection points: 3
#     Node 4, Type 0, BuildingBlock: BETDAH_clean_linker_0, # of connection points: 3
#     Node 5, Type 0, BuildingBlock: BETDAH_clean_linker_0, # of connection points: 3
#     Node 6, Type 0, BuildingBlock: BETDAH_clean_linker_0, # of connection points: 3
#     Node 7, Type 0, BuildingBlock: BETDAH_clean_linker_0, # of connection points: 3
#     Node 8, Type 0, BuildingBlock: BETDAH_clean_linker_0, # of connection points: 3
#     Node 9, Type 0, BuildingBlock: BETDAH_clean_linker_0, # of connection points: 3
#     Node 10, Type 0, BuildingBlock: BETDAH_clean_linker_0, # of connection points: 3
#     Node 11, Type 0, BuildingBlock: BETDAH_clean_linker_0, # of connection points: 3
#     Node 12, Type 0, BuildingBlock: BETDAH_clean_linker_0, # of connection points: 3
#     Node 13, Type 0, BuildingBlock: BETDAH_clean_linker_0, # of connection points: 3
#     Node 14, Type 0, BuildingBlock: BETDAH_clean_linker_0, # of connection points: 3
#     Node 15, Type 0, BuildingBlock: BETDAH_clean_linker_0, # of connection points: 3
#     Node 16, Type 1, BuildingBlock: NAHDIM_clean_sbu_0, # of connection points: 4
#     Node 17, Type 1, BuildingBlock: NAHDIM_clean_sbu_0, # of connection points: 4
#     Node 18, Type 1, BuildingBlock: NAHDIM_clean_sbu_0, # of connection points: 4
#     Node 19, Type 1, BuildingBlock: NAHDIM_clean_sbu_0, # of connection points: 4
#     Node 20, Type 1, BuildingBlock: NAHDIM_clean_sbu_0, # of connection points: 4
#     Node 21, Type 1, BuildingBlock: NAHDIM_clean_sbu_0, # of connection points: 4
#     Node 22, Type 1, BuildingBlock: NAHDIM_clean_sbu_0, # of connection points: 4
#     Node 23, Type 1, BuildingBlock: NAHDIM_clean_sbu_0, # of connection points: 4
#     Node 24, Type 1, BuildingBlock: NAHDIM_clean_sbu_0, # of connection points: 4
#     Node 25, Type 1, BuildingBlock: NAHDIM_clean_sbu_0, # of connection points: 4
#     Node 26, Type 1, BuildingBlock: NAHDIM_clean_sbu_0, # of connection points: 4
#     Node 27, Type 1, BuildingBlock: NAHDIM_clean_sbu_0, # of connection points: 4
#     Edge 28, Type (0, 1), BuildingBlock: OJICUG_clean_linker_0, # of connection points: 2
#     Edge 29, Type (0, 1), BuildingBlock: OJICUG_clean_linker_0, # of connection points: 2
#     Edge 30, Type (0, 1), BuildingBlock: OJICUG_clean_linker_0, # of connection points: 2
#     Edge 31, Type (0, 1), BuildingBlock: OJICUG_clean_linker_0, # of connection points: 2
#     Edge 32, Type (0, 1), BuildingBlock: OJICUG_clean_linker_0, # of connection points: 2
#     Edge 33, Type (0, 1), BuildingBlock: OJICUG_clean_linker_0, # of connection points: 2
#     Edge 34, Type (0, 1), BuildingBlock: OJICUG_clean_linker_0, # of connection points: 2
#     Edge 35, Type (0, 1), BuildingBlock: OJICUG_clean_linker_0, # of connection points: 2
#     Edge 36, Type (0, 1), BuildingBlock: OJICUG_clean_linker_0, # of connection points: 2
#     Edge 37, Type (0, 1), BuildingBlock: OJICUG_clean_linker_0, # of connection points: 2
#     Edge 38, Type (0, 1), BuildingBlock: OJICUG_clean_linker_0, # of connection points: 2
#     Edge 39, Type (0, 1), BuildingBlock: OJICUG_clean_linker_0, # of connection points: 2
#     Edge 40, Type (0, 1), BuildingBlock: OJICUG_clean_linker_0, # of connection points: 2
#     Edge 41, Type (0, 1), BuildingBlock: OJICUG_clean_linker_0, # of connection points: 2
#     Edge 42, Type (0, 1), BuildingBlock: OJICUG_clean_linker_0, # of connection points: 2
#     Edge 43, Type (0, 1), BuildingBlock: OJICUG_clean_linker_0, # of connection points: 2
#     Edge 44, Type (0, 1), BuildingBlock: OJICUG_clean_linker_0, # of connection points: 2
#     Edge 45, Type (0, 1), BuildingBlock: OJICUG_clean_linker_0, # of connection points: 2
#     Edge 46, Type (0, 1), BuildingBlock: OJICUG_clean_linker_0, # of connection points: 2
#     Edge 47, Type (0, 1), BuildingBlock: OJICUG_clean_linker_0, # of connection points: 2
#     Edge 48, Type (0, 1), BuildingBlock: OJICUG_clean_linker_0, # of connection points: 2
#     Edge 49, Type (0, 1), BuildingBlock: OJICUG_clean_linker_0, # of connection points: 2
#     Edge 50, Type (0, 1), BuildingBlock: OJICUG_clean_linker_0, # of connection points: 2
#     Edge 51, Type (0, 1), BuildingBlock: OJICUG_clean_linker_0, # of connection points: 2
#     Edge 52, Type (0, 1), BuildingBlock: OJICUG_clean_linker_0, # of connection points: 2
#     Edge 53, Type (0, 1), BuildingBlock: OJICUG_clean_linker_0, # of connection points: 2
#     Edge 54, Type (0, 1), BuildingBlock: OJICUG_clean_linker_0, # of connection points: 2
#     Edge 55, Type (0, 1), BuildingBlock: OJICUG_clean_linker_0, # of connection points: 2
#     Edge 56, Type (0, 1), BuildingBlock: OJICUG_clean_linker_0, # of connection points: 2
#     Edge 57, Type (0, 1), BuildingBlock: OJICUG_clean_linker_0, # of connection points: 2
#     Edge 58, Type (0, 1), BuildingBlock: OJICUG_clean_linker_0, # of connection points: 2
#     Edge 59, Type (0, 1), BuildingBlock: OJICUG_clean_linker_0, # of connection points: 2
#     Edge 60, Type (0, 1), BuildingBlock: OJICUG_clean_linker_0, # of connection points: 2
#     Edge 61, Type (0, 1), BuildingBlock: OJICUG_clean_linker_0, # of connection points: 2
#     Edge 62, Type (0, 1), BuildingBlock: OJICUG_clean_linker_0, # of connection points: 2
#     Edge 63, Type (0, 1), BuildingBlock: OJICUG_clean_linker_0, # of connection points: 2
#     Edge 64, Type (0, 1), BuildingBlock: OJICUG_clean_linker_0, # of connection points: 2
#     Edge 65, Type (0, 1), BuildingBlock: OJICUG_clean_linker_0, # of connection points: 2
#     Edge 66, Type (0, 1), BuildingBlock: OJICUG_clean_linker_0, # of connection points: 2
#     Edge 67, Type (0, 1), BuildingBlock: OJICUG_clean_linker_0, # of connection points: 2
#     Edge 68, Type (0, 1), BuildingBlock: OJICUG_clean_linker_0, # of connection points: 2
#     Edge 69, Type (0, 1), BuildingBlock: OJICUG_clean_linker_0, # of connection points: 2
#     Edge 70, Type (0, 1), BuildingBlock: OJICUG_clean_linker_0, # of connection points: 2
#     Edge 71, Type (0, 1), BuildingBlock: OJICUG_clean_linker_0, # of connection points: 2
#     Edge 72, Type (0, 1), BuildingBlock: OJICUG_clean_linker_0, # of connection points: 2
#     Edge 73, Type (0, 1), BuildingBlock: OJICUG_clean_linker_0, # of connection points: 2
#     Edge 74, Type (0, 1), BuildingBlock: OJICUG_clean_linker_0, # of connection points: 2
#     Edge 75, Type (0, 1), BuildingBlock: OJICUG_clean_linker_0, # of connection points: 2
# Relax obj value: 0.050
# Max RMSD: 0.157
# Mean RMSD: 0.098
data_MOF--net-ctn--node1-NAHDIM_clean_sbu_0--node2-BETDAH_clean_linker_0--edge1-OJICUG_clean_linker_0
_symmetry_space_group_name_H-M    P1
_symmetry_Int_Tables_number       1
_symmetry_cell_setting            triclinic
loop_
_symmetry_equiv_pos_as_xyz
'x, y, z'
_cell_length_a     38.946011
_cell_length_b     39.150003
_cell_length_c     39.261527
_cell_angle_alpha  101.20781
_cell_angle_beta   90.567832
_cell_angle_gamma 97.570223
loop_
_atom_site_label
_atom_site_type_symbol
_atom_site_fract_x
_atom_site_fract_y
_atom_site_fract_z
_atom_type_partial_charge
H0 H 0.09094 0.00797 0.09933 0.0
H1 H 0.08647 0.02879 0.9955 0.0
H2 H 0.00652 0.05551 0.06595 0.0
C3 C 0.07867 0.01866 0.07963 0.0
C4 C 0.04779 0.0331 0.08713 0.0
C5 C 0.09308 0.01675 0.04666 0.0
C6 C 0.07625 0.03024 0.02122 0.0
C7 C 0.04525 0.04443 0.02839 0.0
C8 C 0.03115 0.04573 0.06117 0.0
N9 N 0.02549 0.0527 1.00144 0.0
C10 C 0.03377 0.08311 0.98832 0.0
H11 H 0.33555 0.65648 0.25119 0.0
H12 H 0.34155 0.75195 0.21069 0.0
H13 H 0.24971 0.67587 0.19187 0.0
C14 C 0.32429 0.67306 0.23626 0.0
C15 C 0.29088 0.66211 0.22143 0.0
C16 C 0.34306 0.70527 0.23238 0.0
C17 C 0.3276 0.7269 0.21353 0.0
C18 C 0.29377 0.71611 0.19887 0.0
C19 C 0.27584 0.68383 0.20291 0.0
N20 N 0.27595 0.73721 0.18112 0.0
C21 C 0.29075 0.76522 0.16678 0.0
H22 H 0.04164 0.43324 0.07212 0.0
H23 H 0.03247 0.5437 0.09516 0.0
H24 H 0.99153 0.48129 0.99849 0.0
C25 C 0.03271 0.45595 0.06488 0.0
C26 C 0.01531 0.45251 0.03236 0.0
C27 C 0.03956 0.4888 0.08775 0.0
C28 C 0.02797 0.51815 0.07803 0.0
C29 C 0.01009 0.51513 0.04643 0.0
C30 C 0.0038 0.48253 0.02365 0.0
N31 N 1.00138 0.54595 0.03676 0.0
C32 C 0.96772 0.54981 0.02791 0.0
H33 H 0.81037 0.84531 0.17148 0.0
H34 H 0.74172 0.77498 0.22002 0.0
H35 H 0.79121 0.87251 0.28056 0.0
C36 C 0.79708 0.83941 0.1942 0.0
C37 C 0.80321 0.86314 0.22613 0.0
C38 C 0.77526 0.80731 0.1918 0.0
C39 C 0.7587 0.79955 0.2216 0.0
C40 C 0.76464 0.82318 0.25358 0.0
C41 C 0.78711 0.85446 0.25572 0.0
N42 N 0.74902 0.81601 0.28432 0.0
C43 C 0.71638 0.79701 0.28461 0.0
H44 H 0.09557 0.04206 0.44635 0.0
H45 H 0.09221 0.98937 0.53351 0.0
H46 H 0.00419 0.97396 0.46295 0.0
C47 C 0.08203 0.02447 0.46147 0.0
C48 C 0.0484 0.0082 0.45066 0.0
C49 C 0.09831 0.01789 0.49135 0.0
C50 C 0.08005 0.99495 0.51065 0.0
C51 C 0.04595 0.97932 0.50038 0.0
C52 C 0.03046 0.98618 0.47065 0.0
N53 N 0.02593 0.95693 0.5193 0.0
C54 C 0.03889 0.94 0.5436 0.0
H55 H 0.30827 0.72466 0.87005 0.0
H56 H 0.21849 0.75748 0.82765 0.0
H57 H 0.25678 0.66332 0.77636 0.0
C58 C 0.28768 0.72046 0.85029 0.0
C59 C 0.28551 0.6911 0.82307 0.0
C60 C 0.26374 0.74464 0.85209 0.0
C61 C 0.23691 0.73887 0.82647 0.0
C62 C 0.2346 0.70952 0.79896 0.0
C63 C 0.25893 0.68599 0.79748 0.0
N64 N 0.20852 0.70265 0.77206 0.0
C65 C 0.18237 0.72307 0.76941 0.0
H66 H 0.94207 0.58533 0.56113 0.0
H67 H 0.03682 0.58285 0.50497 0.0
H68 H 0.96305 0.48967 0.4955 0.0
C69 C 0.95868 0.57137 0.54304 0.0
C70 C 0.94812 0.53582 0.52844 0.0
C71 C 0.99071 0.58877 0.53498 0.0
C72 C 0.01206 0.57002 0.51142 0.0
C73 C 1.00182 0.53422 0.4972 0.0
C74 C 0.97024 0.51745 0.50608 0.0
N75 N 0.02342 0.51333 0.47581 0.0
C76 C 0.04614 0.52473 0.45202 0.0
H77 H 0.85885 0.73637 0.82183 0.0
H78 H 0.8215 0.82138 0.7837 0.0
H79 H 0.77278 0.78317 0.86918 0.0
C80 C 0.84055 0.7551 0.82282 0.0
C81 C 0.81553 0.75676 0.84837 0.0
C82 C 0.84303 0.77828 0.79935 0.0
C83 C 0.81989 0.80346 0.80163 0.0
C84 C 0.79453 0.80507 0.82702 0.0
C85 C 0.79268 0.78183 0.85004 0.0
N86 N 0.77037 0.82962 0.8309 0.0
C87 C 0.76536 0.85269 0.80909 0.0
H88 H 0.36626 0.22778 0.33215 0.0
H89 H 0.32116 0.28477 0.26326 0.0
H90 H 0.2582 0.23996 0.3366 0.0
C91 C 0.34425 0.23826 0.32303 0.0
C92 C 0.31199 0.23208 0.33802 0.0
C93 C 0.34793 0.25681 0.29555 0.0
C94 C 0.31914 0.27091 0.28465 0.0
C95 C 0.28685 0.26474 0.29958 0.0
C96 C 0.28336 0.24487 0.32558 0.0
N97 N 0.25674 0.27576 0.28715 0.0
C98 C 0.25547 0.3093 0.28094 0.0
H99 H 0.55624 0.91016 0.54811 0.0
H100 H 0.49976 0.99957 0.56345 0.0
H101 H 0.48589 0.92338 0.46831 0.0
C102 C 0.53767 0.92501 0.53909 0.0
C103 C 0.52111 0.91234 0.50627 0.0
C104 C 0.53038 0.95662 0.56017 0.0
C105 C 0.50612 0.9755 0.54762 0.0
C106 C 0.49026 0.96335 0.51436 0.0
C107 C 0.49806 0.93217 0.49403 0.0
N108 N 0.46688 0.98181 0.49966 0.0
C109 C 0.44962 0.00818 0.51763 0.0
H110 H 0.30478 0.32851 0.68193 0.0
H111 H 0.23805 0.25728 0.73123 0.0
H112 H 0.28217 0.35792 0.78994 0.0
C113 C 0.29144 0.32274 0.70468 0.0
C114 C 0.29547 0.34767 0.73589 0.0
C115 C 0.27095 0.29 0.70276 0.0
C116 C 0.25348 0.28263 0.73225 0.0
C117 C 0.25805 0.30714 0.76377 0.0
C118 C 0.27915 0.33923 0.76546 0.0
N119 N 0.24382 0.2994 0.79487 0.0
C120 C 0.21007 0.28366 0.79707 0.0
H121 H 0.82317 0.17834 0.76892 0.0
H122 H 0.82764 0.28877 0.76932 0.0
H123 H 0.74252 0.21637 0.71671 0.0
C124 C 0.81259 0.1997 0.76044 0.0
C125 C 0.78097 0.19289 0.74118 0.0
C126 C 0.82964 0.23413 0.77063 0.0
C127 C 0.8153 0.26194 0.76067 0.0
C128 C 0.78451 0.25537 0.74032 0.0
C129 C 0.76738 0.22092 0.73065 0.0
N130 N 0.76816 0.2839 0.73418 0.0
C131 C 0.77246 0.29714 0.70393 0.0
H132 H 0.5769 0.49996 0.59925 0.0
H133 H 0.57106 0.52794 0.49848 0.0
H134 H 0.4899 0.54634 0.57013 0.0
C135 C 0.56379 0.51121 0.58051 0.0
C136 C 0.53234 0.524 0.58907 0.0
C137 C 0.57811 0.51229 0.54784 0.0
C138 C 0.56052 0.52689 0.52375 0.0
C139 C 0.52867 0.53919 0.53199 0.0
C140 C 0.51476 0.53737 0.56435 0.0
N141 N 0.50881 0.55173 0.5078 0.0
C142 C 0.5226 0.57063 0.48349 0.0
H143 H 0.58632 0.53917 0.94691 0.0
H144 H 0.58687 0.49246 0.03787 0.0
H145 H 0.49624 0.4731 0.97021 0.0
C146 C 0.57355 0.52267 0.96349 0.0
C147 C 0.53964 0.50606 0.95456 0.0
C148 C 0.59101 0.518 0.99353 0.0
C149 C 0.5738 0.49646 0.01477 0.0
C150 C 0.53948 0.48044 0.00633 0.0
C151 C 0.52271 0.48552 0.97647 0.0
N152 N 0.52048 0.45973 0.0275 0.0
C153 C 0.53494 0.44263 0.05079 0.0
H154 H 0.81402 0.22746 0.37716 0.0
H155 H 0.72428 0.25936 0.33354 0.0
H156 H 0.76852 0.17033 0.279 0.0
C157 C 0.79432 0.2238 0.3566 0.0
C158 C 0.79456 0.19634 0.32776 0.0
C159 C 0.76915 0.24682 0.35892 0.0
C160 C 0.74358 0.24163 0.33212 0.0
C161 C 0.74348 0.21398 0.30321 0.0
C162 C 0.76893 0.19166 0.30128 0.0
N163 N 0.71848 0.20767 0.27537 0.0
C164 C 0.69288 0.22852 0.27207 0.0
H165 H 0.45662 0.07724 0.05537 0.0
H166 H 0.51145 0.12063 0.97539 0.0
H167 H 0.43857 0.02665 0.94798 0.0
C168 C 0.46287 0.07538 0.02828 0.0
C169 C 0.44518 0.04816 0.0031 0.0
C170 C 0.48667 0.10176 0.01864 0.0
C171 C 0.49366 0.10013 0.98328 0.0
C172 C 0.47646 0.07272 0.95794 0.0
C173 C 0.45211 0.04724 0.96791 0.0
N174 N 0.4802 0.07247 0.92207 0.0
C175 C 0.51131 0.06934 0.90552 0.0
C176 C 0.20878 0.9373 0.01794 0.0
O177 O 0.21521 0.92301 0.98593 0.0
O178 O 0.25853 0.86768 0.99011 0.0
Zn179 Zn 0.26843 0.90539 0.03376 0.0
O180 O 0.3095 0.93975 0.02582 0.0
C181 C 0.29893 0.86011 0.07269 0.0
O182 O 0.31763 0.85443 0.04501 0.0
O183 O 0.22769 0.93271 0.04285 0.0
C184 C 0.33722 0.94931 0.0445 0.0
O185 O 0.34087 0.93672 0.07279 0.0
C186 C 0.2827 0.86137 0.96922 0.0
O187 O 0.31358 0.87963 0.97637 0.0
O188 O 0.27693 0.88167 0.07419 0.0
C189 C 0.21261 0.44326 0.2794 0.0
O190 O 0.22961 0.47229 0.29784 0.0
O191 O 0.13733 0.49642 0.31615 0.0
Zn192 Zn 0.16082 0.48847 0.27002 0.0
O193 O 0.19691 0.52981 0.26733 0.0
C194 C 0.11893 0.50798 0.21758 0.0
O195 O 0.13325 0.53969 0.23255 0.0
O196 O 0.18333 0.44427 0.26528 0.0
C197 C 0.21027 0.53202 0.23828 0.0
O198 O 0.20133 0.50658 0.2113 0.0
C199 C 0.12351 0.5237 0.32852 0.0
O200 O 0.12403 0.5489 0.31072 0.0
O201 O 0.12569 0.48178 0.22991 0.0
C202 C 0.83554 0.59282 0.00512 0.0
O203 O 0.81155 0.57262 0.98391 0.0
O204 O 0.79367 0.67433 0.97738 0.0
Zn205 Zn 0.78701 0.64562 0.01492 0.0
O206 O 0.74436 0.60943 0.00385 0.0
C207 C 0.77034 0.70812 0.06126 0.0
O208 O 0.76186 0.71704 0.03204 0.0
O209 O 0.83 0.62331 0.02019 0.0
C210 C 0.72585 0.60045 0.028 0.0
O211 O 0.73543 0.61419 0.06048 0.0
C212 C 0.80172 0.66276 0.94637 0.0
O213 O 0.80589 0.62954 0.93691 0.0
O214 O 0.78126 0.67874 0.06027 0.0
C215 C 0.89635 0.09968 0.31459 0.0
O216 O 0.89996 0.08129 0.33875 0.0
O217 O 0.97295 0.05381 0.3196 0.0
Zn218 Zn 0.94203 0.05392 0.27762 0.0
O219 O 0.90962 0.00842 0.26825 0.0
C220 C 0.98214 0.03069 0.21854 0.0
O221 O 0.97723 1.00123 0.23019 0.0
O222 O 0.91274 0.09327 0.28673 0.0
C223 C 0.89082 0.99698 0.24074 0.0
O224 O 0.89137 0.01588 0.21648 0.0
C225 C 0.97932 0.02407 0.32462 0.0
O226 O 0.96689 0.99567 0.30202 0.0
O227 O 0.97 0.05746 0.23508 0.0
C228 C 0.34401 0.09696 0.54362 0.0
O229 O 0.32232 0.09531 0.56884 0.0
O230 O 0.30477 0.16752 0.47966 0.0
Zn231 Zn 0.29729 0.14084 0.51895 0.0
O232 O 0.25269 0.10691 0.50937 0.0
C233 C 0.2679 0.18773 0.57451 0.0
O234 O 0.23917 0.17787 0.5553 0.0
O235 O 0.3381 0.11438 0.52054 0.0
C236 C 0.23467 0.09478 0.5323 0.0
O237 O 0.24529 0.1038 0.56507 0.0
C238 C 0.29021 0.15543 0.44982 0.0
O239 O 0.26941 0.12549 0.44475 0.0
O240 O 0.29543 0.17537 0.56412 0.0
C241 C 0.38326 0.5906 0.81505 0.0
O242 O 0.38758 0.5748 0.84109 0.0
O243 O 0.4597 0.54489 0.82246 0.0
Zn244 Zn 0.42849 0.54263 0.78019 0.0
O245 O 0.39678 0.4968 0.77286 0.0
C246 C 0.46918 0.51853 0.72108 0.0
O247 O 0.46511 0.48906 0.73275 0.0
O248 O 0.39886 0.58172 0.78711 0.0
C249 C 0.37824 0.48357 0.74552 0.0
O250 O 0.37855 0.50075 0.71989 0.0
C251 C 0.46708 0.51577 0.82827 0.0
O252 O 0.4554 0.48667 0.80626 0.0
O253 O 0.45635 0.54492 0.73752 0.0
C254 C 0.697 0.4382 0.51829 0.0
O255 O 0.70199 0.42097 0.48693 0.0
O256 O 0.74977 0.36816 0.49562 0.0
Zn257 Zn 0.75625 0.40664 0.53896 0.0
O258 O 0.80045 0.43852 0.5349 0.0
C259 C 0.77993 0.3637 0.58547 0.0
O260 O 0.80279 0.35665 0.56165 0.0
O261 O 0.7166 0.43559 0.54351 0.0
C262 C 0.81808 0.45967 0.55946 0.0
O263 O 0.80745 0.46237 0.5914 0.0
C264 C 0.77657 0.35993 0.47942 0.0
O265 O 0.80714 0.37649 0.49137 0.0
O266 O 0.75837 0.38448 0.58138 0.0
C267 C 0.70963 0.96389 0.76151 0.0
O268 O 0.72923 0.99347 0.75986 0.0
O269 O 0.61906 0.013 0.79018 0.0
Zn270 Zn 0.65147 0.00222 0.75035 0.0
O271 O 0.68562 0.04582 0.74947 0.0
C272 C 0.6065 0.00768 0.69217 0.0
O273 O 0.60888 0.04084 0.70774 0.0
O274 O 0.67685 0.96203 0.75803 0.0
C275 C 0.69604 0.05717 0.7226 0.0
O276 O 0.68504 0.03942 0.69166 0.0
C277 C 0.6162 0.0442 0.80563 0.0
O278 O 0.63489 0.07073 0.79568 0.0
O279 O 0.62255 0.98686 0.70544 0.0
C280 C 0.04263 0.20824 0.93114 0.0
O281 O 0.06873 0.23357 0.93959 0.0
O282 O 0.97639 0.24921 0.85766 0.0
Zn283 Zn 0.01789 0.25606 0.89101 0.0
O284 O 0.01702 0.29844 0.93004 0.0
C285 C 0.07713 0.24145 0.84758 0.0
O286 O 0.06491 0.20822 0.84587 0.0
O287 O 0.01833 0.2122 0.91096 0.0
C288 C 0.00391 0.32554 0.92597 0.0
O289 O 0.98982 0.32636 0.89566 0.0
C290 C 0.94624 0.25432 0.8678 0.0
O291 O 0.94138 0.26405 0.90116 0.0
O292 O 0.06132 0.26516 0.86491 0.0
C293 C 0.54679 0.67471 0.39925 0.0
O294 O 0.5759 0.69646 0.40265 0.0
O295 O 0.48646 0.71565 0.32142 0.0
Zn296 Zn 0.52505 0.72273 0.35827 0.0
O297 O 0.51962 0.76532 0.39502 0.0
C298 C 0.57736 0.74854 0.3144 0.0
O299 O 0.55155 0.76206 0.30273 0.0
O300 O 0.52172 0.68042 0.38105 0.0
C301 C 0.54493 0.78432 0.41315 0.0
O302 O 0.57639 0.77612 0.40824 0.0
C303 C 0.4699 0.74038 0.31658 0.0
O304 O 0.47841 0.77199 0.33556 0.0
O305 O 0.57182 0.73007 0.33755 0.0
C306 C 0.04914 0.83684 0.62662 0.0
O307 O 0.07128 0.81406 0.61962 0.0
O308 O 0.97747 0.79357 0.70181 0.0
Zn309 Zn 0.01841 0.78922 0.67009 0.0
O310 O 0.008 0.74525 0.63241 0.0
C311 C 0.06098 0.77106 0.72337 0.0
O312 O 0.03072 0.75967 0.73447 0.0
O313 O 0.02521 0.83171 0.6476 0.0
C314 C 0.03128 0.72657 0.62067 0.0
O315 O 0.06341 0.73636 0.63267 0.0
C316 C 0.95534 0.76706 0.70364 0.0
O317 O 0.95952 0.73621 0.68512 0.0
O318 O 0.06201 0.78572 0.69711 0.0
C319 C 0.55212 0.33826 0.13044 0.0
O320 O 0.572 0.31399 0.11958 0.0
O321 O 0.48487 0.2888 0.20479 0.0
Zn322 Zn 0.52575 0.28905 0.17295 0.0
O323 O 0.51636 0.24821 0.13187 0.0
C324 C 0.57393 0.28311 0.22945 0.0
O325 O 0.54749 0.28685 0.24972 0.0
O326 O 0.53084 0.33376 0.15406 0.0
C327 C 0.52817 0.21931 0.13132 0.0
O328 O 0.54642 0.2155 0.15832 0.0
C329 C 0.47222 0.26108 0.21511 0.0
O330 O 0.4865 0.23229 0.20553 0.0
O331 O 0.57034 0.28445 0.19752 0.0
C332 C 0.2392 0.7856 0.90034 0.0
C333 C 0.26758 0.77605 0.8806 0.0
H334 H 0.22168 0.81999 0.94416 0.0
C335 C 0.30037 0.79579 0.88923 0.0
H336 H 0.21367 0.77072 0.89431 0.0
C337 C 0.30497 0.82385 0.91755 0.0
C338 C 0.27692 0.83279 0.93808 0.0
H339 H 0.32262 0.78933 0.87418 0.0
H340 H 0.33075 0.83814 0.92367 0.0
C341 C 0.24386 0.81364 0.92895 0.0
C342 C 0.06674 0.55372 0.40382 0.0
C343 C 0.06862 0.5277 0.42346 0.0
H344 H 0.08298 0.57308 0.35822 0.0
C345 C 0.0898 0.5016 0.41293 0.0
H346 H 0.05014 0.57385 0.41143 0.0
C347 C 0.10823 0.50081 0.38252 0.0
C348 C 0.10582 0.5262 0.36204 0.0
H349 H 0.09126 0.48108 0.42767 0.0
H350 H 0.12382 0.47985 0.37471 0.0
C351 C 0.08539 0.55311 0.37337 0.0
C352 C 0.80677 0.74525 0.90863 0.0
C353 C 0.8132 0.73266 0.87355 0.0
H354 H 0.79812 0.73325 0.95893 0.0
C355 C 0.81661 0.69688 0.86274 0.0
H356 H 0.80461 0.77276 0.918 0.0
C357 C 0.81313 0.67415 0.88636 0.0
C358 C 0.80615 0.68672 0.9213 0.0
H359 H 0.82125 0.68626 0.83585 0.0
H360 H 0.81555 0.64668 0.87714 0.0
C361 C 0.80322 0.72258 0.93216 0.0
C362 C 0.01643 0.98332 0.39406 0.0
C363 C 0.03213 0.0129 0.41787 0.0
H364 H 0.9879 0.96369 0.34605 0.0
C365 C 0.03151 0.04648 0.41032 0.0
H366 H 0.01691 0.9571 0.399 0.0
C367 C 0.01461 0.05037 0.37987 0.0
C368 C 0.99849 0.02069 0.3563 0.0
H369 H 0.04337 0.06971 0.42832 0.0
H370 H 0.01398 0.07656 0.37493 0.0
C371 C 0.99996 0.98715 0.36361 0.0
C372 C 0.23803 0.24552 0.65481 0.0
C373 C 0.26976 0.26302 0.67044 0.0
H374 H 0.21251 0.2082 0.61182 0.0
C375 C 0.30075 0.25506 0.65473 0.0
H376 H 0.2138 0.25128 0.66642 0.0
C377 C 0.3001 0.23029 0.62385 0.0
C378 C 0.2684 0.21325 0.60773 0.0
H379 H 0.32558 0.26794 0.66647 0.0
H380 H 0.32447 0.22486 0.61237 0.0
C381 C 0.23734 0.22105 0.62354 0.0
C382 C 0.5166 0.49278 0.63809 0.0
C383 C 0.51742 0.52296 0.62357 0.0
H384 H 0.50068 0.46765 0.68023 0.0
C385 C 0.50328 0.55206 0.64193 0.0
H386 H 0.52702 0.46983 0.6244 0.0
C387 C 0.48819 0.55085 0.67387 0.0
C388 C 0.48676 0.52043 0.68811 0.0
H389 H 0.50394 0.57586 0.6316 0.0
H390 H 0.47727 0.57365 0.68718 0.0
C391 C 0.50136 0.49149 0.66999 0.0
C392 C 0.75154 0.33718 0.66993 0.0
C393 C 0.77464 0.31361 0.67404 0.0
H394 H 0.73511 0.37165 0.63878 0.0
C395 C 0.79981 0.30668 0.64935 0.0
H396 H 0.73199 0.34289 0.68889 0.0
C397 C 0.80173 0.32313 0.62061 0.0
C398 C 0.77848 0.34677 0.61623 0.0
H399 H 0.81793 0.28859 0.65225 0.0
H400 H 0.82135 0.31722 0.60182 0.0
C401 C 0.75341 0.35364 0.6413 0.0
C402 C 0.5587 0.00619 0.60707 0.0
C403 C 0.54859 0.96994 0.59483 0.0
H404 H 0.5847 0.0465 0.64736 0.0
C405 C 0.55699 0.94642 0.61557 0.0
H406 H 0.55324 0.02514 0.59171 0.0
C407 C 0.57574 0.95868 0.64711 0.0
C408 C 0.58606 0.99482 0.65907 0.0
H409 H 0.54902 0.91841 0.60756 0.0
H410 H 0.58198 0.93979 0.66223 0.0
C411 C 0.57698 0.01848 0.63892 0.0
C412 C 0.86035 0.26355 0.82693 0.0
C413 C 0.86056 0.24107 0.7944 0.0
H414 H 0.88714 0.2849 0.87589 0.0
C415 C 0.88945 0.22355 0.78577 0.0
H416 H 0.83818 0.27704 0.83426 0.0
C417 C 0.91768 0.22841 0.80934 0.0
C418 C 0.91709 0.25017 0.84228 0.0
H419 H 0.89008 0.206 0.76084 0.0
H420 H 0.9396 0.21449 0.8021 0.0
C421 C 0.8882 0.26779 0.85079 0.0
C422 C 0.49954 0.85524 0.46644 0.0
C423 C 0.52744 0.87843 0.48435 0.0
H424 H 0.48311 0.80754 0.43009 0.0
C425 C 0.56116 0.86958 0.47995 0.0
H426 H 0.47318 0.86099 0.46974 0.0
C427 C 0.56688 0.8387 0.45725 0.0
C428 C 0.53899 0.81607 0.43858 0.0
H429 H 0.5832 0.88702 0.49322 0.0
H430 H 0.59322 0.83292 0.45387 0.0
C431 C 0.50523 0.82449 0.4438 0.0
C432 C 0.15356 0.29721 0.81798 0.0
C433 C 0.17512 0.27204 0.80542 0.0
H434 H 0.10552 0.30727 0.84106 0.0
C435 C 0.16377 0.23642 0.80466 0.0
H436 H 0.16213 0.32488 0.81895 0.0
C437 C 0.13131 0.22617 0.81734 0.0
C438 C 0.11005 0.25153 0.83122 0.0
H439 H 0.18036 0.21671 0.79528 0.0
H440 H 0.12339 0.19858 0.81728 0.0
C441 C 0.12129 0.28709 0.83078 0.0
C442 C 0.56238 0.61618 0.46287 0.0
C443 C 0.531 0.59359 0.45934 0.0
H444 H 0.59222 0.6596 0.44625 0.0
C445 C 0.50578 0.59613 0.43462 0.0
H446 H 0.58197 0.61473 0.48214 0.0
C447 C 0.51136 0.62181 0.4143 0.0
C448 C 0.54231 0.64544 0.41844 0.0
H449 H 0.48124 0.57903 0.43184 0.0
H450 H 0.49103 0.62371 0.39601 0.0
C451 C 0.56809 0.64186 0.44243 0.0
C452 C 0.87645 0.74309 0.75435 0.0
C453 C 0.87028 0.77603 0.77301 0.0
H454 H 0.90783 0.71446 0.71792 0.0
C455 C 0.89156 0.80632 0.76773 0.0
H456 H 0.86027 0.71929 0.75758 0.0
C457 C 0.91908 0.80357 0.74503 0.0
C458 C 0.92566 0.77048 0.72693 0.0
H459 H 0.8876 0.83205 0.78193 0.0
H460 H 0.9354 0.82733 0.74195 0.0
C461 C 0.9037 0.74035 0.73154 0.0
C462 C 0.0246 0.9167 0.59606 0.0
C463 C 0.04577 0.91799 0.56761 0.0
H464 H 0.00921 0.89012 0.63731 0.0
C465 C 0.07007 0.89446 0.56015 0.0
H466 H 0.00543 0.93451 0.60193 0.0
C467 C 0.07229 0.86891 0.5803 0.0
C468 C 0.04993 0.8664 0.60794 0.0
H469 H 0.08635 0.89491 0.53797 0.0
H470 H 0.09053 0.85031 0.57333 0.0
C471 C 0.02667 0.89116 0.61612 0.0
C472 C 0.12175 0.7333 0.77766 0.0
C473 C 0.15329 0.73997 0.7618 0.0
H474 H 0.06767 0.73831 0.77818 0.0
C475 C 0.15521 0.75947 0.73535 0.0
H476 H 0.11982 0.718 0.79796 0.0
C477 C 0.12547 0.77104 0.72386 0.0
C478 C 0.0933 0.76304 0.73855 0.0
H479 H 0.17939 0.76455 0.72262 0.0
H480 H 0.12745 0.78502 0.70256 0.0
C481 C 0.09196 0.74483 0.76621 0.0
C482 C 0.97845 0.65001 0.56008 0.0
C483 C 0.00232 0.62569 0.55314 0.0
H484 H 0.96875 0.70076 0.58676 0.0
C485 C 0.03658 0.63605 0.56641 0.0
H486 H 0.95202 0.64319 0.54974 0.0
C487 C 0.04628 0.66926 0.58738 0.0
C488 C 0.0219 0.69283 0.59572 0.0
H489 H 0.05557 0.61794 0.56191 0.0
H490 H 0.0726 0.67594 0.59803 0.0
C491 C 0.98807 0.6831 0.58122 0.0
C492 C 0.82521 0.91755 0.20351 0.0
C493 C 0.82654 0.89686 0.22892 0.0
H494 H 0.84435 0.96554 0.18734 0.0
C495 C 0.84973 0.90905 0.25767 0.0
H496 H 0.80739 0.909 0.18121 0.0
C497 C 0.87061 0.94144 0.26133 0.0
C498 C 0.86892 0.96242 0.23625 0.0
H499 H 0.85185 0.89348 0.27739 0.0
H500 H 0.88806 0.95002 0.28392 0.0
C501 C 0.84621 0.95002 0.20714 0.0
C502 C 0.83852 0.16403 0.29362 0.0
C503 C 0.82166 0.17267 0.32498 0.0
H504 H 0.87555 0.13462 0.26585 0.0
C505 C 0.83051 0.15815 0.35338 0.0
H506 H 0.83255 0.17517 0.27143 0.0
C507 C 0.85514 0.13482 0.3502 0.0
C508 C 0.87165 0.1258 0.31865 0.0
H509 H 0.8178 0.16418 0.37781 0.0
H510 H 0.86097 0.12361 0.37238 0.0
C511 C 0.86332 0.14097 0.29052 0.0
C512 C 0.38652 0.01188 0.994 0.0
C513 C 0.41796 0.02212 0.01343 0.0
H514 H 0.33653 0.9811 0.98856 0.0
C515 C 0.42272 0.00804 0.04323 0.0
H516 H 0.38171 0.02267 0.97129 0.0
C517 C 0.39658 0.98437 0.05339 0.0
C518 C 0.36512 0.97427 0.03397 0.0
H519 H 0.44677 0.01516 0.05859 0.0
H520 H 0.40105 0.97399 0.07645 0.0
C521 C 0.36047 0.98823 0.00411 0.0
C522 C 0.21919 0.3458 0.25641 0.0
C523 C 0.24799 0.34342 0.27699 0.0
H524 H 0.18545 0.37934 0.24084 0.0
C525 C 0.26664 0.37403 0.29669 0.0
H526 H 0.20432 0.3223 0.24129 0.0
C527 C 0.25589 0.40678 0.29659 0.0
C528 C 0.22613 0.40922 0.277 0.0
H529 H 0.28877 0.37251 0.31301 0.0
H530 H 0.27021 0.42997 0.31272 0.0
C531 C 0.20834 0.37842 0.25635 0.0
C532 C 0.14355 0.04838 0.53755 0.0
C533 C 0.13417 0.03533 0.50225 0.0
H534 H 0.18266 0.07723 0.57476 0.0
C535 C 0.15897 0.04032 0.47722 0.0
H536 H 0.12506 0.04535 0.55752 0.0
C537 C 0.19176 0.05904 0.48706 0.0
C538 C 0.20078 0.07288 0.52223 0.0
H539 H 0.153 0.02994 0.44987 0.0
H540 H 0.20996 0.0629 0.46702 0.0
C541 C 0.17654 0.06683 0.54743 0.0
C542 C 0.75599 0.13946 0.76323 0.0
C543 C 0.76053 0.15733 0.73548 0.0
H544 H 0.73213 0.09403 0.78095 0.0
C545 C 0.74442 0.14155 0.70302 0.0
H546 H 0.76766 0.15116 0.78869 0.0
C547 C 0.7241 0.10857 0.6985 0.0
C548 C 0.7191 0.09105 0.72651 0.0
H549 H 0.74756 0.15471 0.68118 0.0
H550 H 0.71178 0.09716 0.67328 0.0
C551 C 0.73543 0.1068 0.75885 0.0
C552 C 0.4028 0.0295 0.55435 0.0
C553 C 0.42696 0.03408 0.52888 0.0
H554 H 0.35747 0.04623 0.57936 0.0
C555 C 0.42553 0.061 0.51033 0.0
H556 H 0.40333 0.00843 0.56855 0.0
C557 C 0.39924 0.08228 0.51607 0.0
C558 C 0.37393 0.07694 0.54052 0.0
H559 H 0.4438 0.06458 0.49026 0.0
H560 H 0.39817 0.1022 0.50057 0.0
C561 C 0.37654 0.05098 0.56033 0.0
C562 C 0.63726 0.5 0.56394 0.0
C563 C 0.61035 0.49638 0.53879 0.0
H564 H 0.68549 0.48451 0.57728 0.0
C565 C 0.6134 0.47522 0.50592 0.0
H566 H 0.63615 0.51664 0.58929 0.0
C567 C 0.64199 0.45704 0.49888 0.0
C568 C 0.66804 0.45945 0.52464 0.0
H569 H 0.59304 0.47155 0.48604 0.0
H570 H 0.64311 0.44024 0.47362 0.0
C571 C 0.66564 0.48163 0.55702 0.0
C572 C 0.80231 0.29642 0.4015 0.0
C573 C 0.77038 0.27663 0.38904 0.0
H574 H 0.82924 0.33803 0.4395 0.0
C575 C 0.74006 0.28514 0.40595 0.0
H576 H 0.82607 0.29098 0.38869 0.0
C577 C 0.74183 0.31241 0.43518 0.0
C578 C 0.77395 0.33171 0.44796 0.0
H579 H 0.71508 0.27024 0.39706 0.0
H580 H 0.71813 0.31809 0.44796 0.0
C581 C 0.80408 0.32356 0.43058 0.0
C582 C 0.56101 0.09152 0.87373 0.0
C583 C 0.54023 0.06329 0.8835 0.0
H584 H 0.60157 0.10765 0.84147 0.0
C585 C 0.54541 0.02881 0.86896 0.0
H586 H 0.5571 0.11833 0.88449 0.0
C587 C 0.57063 0.02254 0.84421 0.0
C588 C 0.59102 0.05073 0.83352 0.0
H589 H 0.5293 0.00668 0.87603 0.0
H590 H 0.57361 0.99561 0.83294 0.0
C591 C 0.5863 0.08532 0.84901 0.0
C592 C 0.32974 0.22033 0.39588 0.0
C593 C 0.30759 0.2116 0.36611 0.0
H594 H 0.34133 0.20977 0.44603 0.0
C595 C 0.28022 0.18394 0.36385 0.0
H596 H 0.35091 0.24168 0.39833 0.0
C597 C 0.27487 0.16555 0.39088 0.0
C598 C 0.29651 0.17469 0.42103 0.0
H599 H 0.26291 0.17652 0.34107 0.0
H600 H 0.25344 0.14445 0.38832 0.0
C601 C 0.32408 0.20223 0.42322 0.0
C602 C 0.50575 0.47871 0.89958 0.0
C603 C 0.52204 0.5091 0.92186 0.0
H604 H 0.47606 0.45701 0.8526 0.0
C605 C 0.52099 0.54198 0.9128 0.0
H606 H 0.50651 0.45301 0.90574 0.0
C607 C 0.50326 0.54439 0.88229 0.0
C608 C 0.48674 0.51389 0.86015 0.0
H609 H 0.53327 0.56582 0.92963 0.0
H610 H 0.50242 0.57006 0.87612 0.0
C611 C 0.48847 0.48105 0.86903 0.0
C612 C 0.76571 0.79202 0.12703 0.0
C613 C 0.77132 0.78134 0.15855 0.0
H614 H 0.76058 0.77719 0.07162 0.0
C615 C 0.77496 0.74599 0.15795 0.0
H616 H 0.76254 0.81904 0.12677 0.0
C617 C 0.77407 0.72204 0.12639 0.0
C618 C 0.76919 0.73288 0.09479 0.0
H619 H 0.77962 0.73709 0.18183 0.0
H620 H 0.77768 0.69515 0.12675 0.0
C621 C 0.76445 0.768 0.09549 0.0
C622 C 0.01777 0.06257 0.1389 0.0
C623 C 0.03185 0.03305 0.12135 0.0
H624 H 0.99134 0.08519 0.18354 0.0
C625 C 0.03008 0.00313 0.13642 0.0
H626 H 0.019 0.0861 0.12806 0.0
C627 C 0.01432 0.00259 0.16814 0.0
C628 C 1.00003 0.032 0.18561 0.0
H629 H 0.04023 0.97978 0.12332 0.0
H630 H 0.01308 0.97894 0.17878 0.0
C631 C 0.00212 0.0621 0.17076 0.0
C632 C 0.32034 0.78883 0.11937 0.0
C633 C 0.29809 0.7928 0.14722 0.0
H634 H 0.33843 0.80737 0.07402 0.0
C635 C 0.2785 0.82082 0.15242 0.0
H636 H 0.33529 0.76701 0.11471 0.0
C637 C 0.27993 0.84377 0.12907 0.0
C638 C 0.30091 0.83893 0.10002 0.0
H639 H 0.26079 0.82397 0.17358 0.0
H640 H 0.26354 0.86441 0.13304 0.0
C641 C 0.3219 0.81183 0.09602 0.0
C642 C 0.05636 0.46689 0.14133 0.0
C643 C 0.05988 0.49314 0.12114 0.0
H644 H 0.07229 0.45091 0.18769 0.0
C645 C 0.08304 0.52404 0.13321 0.0
H646 H 0.03854 0.44293 0.13316 0.0
C647 C 0.10155 0.52893 0.16477 0.0
C648 C 0.09806 0.50277 0.18484 0.0
H649 H 0.08734 0.54446 0.11807 0.0
H650 H 0.1192 0.55303 0.17306 0.0
C651 C 0.07548 0.47156 0.17273 0.0
C652 C 0.40116 0.69146 0.24938 0.0
C653 C 0.378 0.71624 0.24973 0.0
H654 H 0.44819 0.67958 0.27008 0.0
C655 C 0.38704 0.7502 0.26973 0.0
H656 H 0.39523 0.66524 0.23375 0.0
C657 C 0.41761 0.75851 0.2905 0.0
C658 C 0.43968 0.733 0.2917 0.0
H659 H 0.36968 0.7698 0.27072 0.0
H660 H 0.42321 0.78452 0.30662 0.0
C661 C 0.43155 0.69969 0.27019 0.0
C662 C 0.03619 0.39534 0.00467 0.0
C663 C 0.01101 0.4184 0.00667 0.0
H664 H 0.05334 0.34772 0.97804 0.0
C665 C 0.98255 0.4093 0.98269 0.0
H666 H 0.05891 0.40149 0.02197 0.0
C667 C 0.98015 0.37901 0.95668 0.0
C668 C 0.00556 0.35648 0.95459 0.0
H669 H 0.96209 0.42566 0.98374 0.0
H670 H 0.9583 0.37317 0.93822 0.0
C671 C 0.03323 0.36454 0.97924 0.0
C672 C 0.6538 0.79174 0.27216 0.0
C673 C 0.68158 0.78102 0.28832 0.0
H674 H 0.59872 0.78955 0.26752 0.0
C675 C 0.6752 0.75761 0.31101 0.0
H676 H 0.65845 0.81006 0.25472 0.0
C677 C 0.64117 0.74589 0.31847 0.0
C678 C 0.61308 0.75765 0.30345 0.0
H679 H 0.6965 0.74933 0.32387 0.0
H680 H 0.63695 0.72857 0.33689 0.0
C681 C 0.61974 0.78008 0.2796 0.0
C682 C 0.01174 0.11773 0.94926 0.0
C683 C 0.03724 0.11409 0.9732 0.0
H684 H 0.99341 0.1503 0.91712 0.0
C685 C 0.06496 0.14105 0.98299 0.0
H686 H 0.99008 0.09713 0.94151 0.0
C687 C 0.06698 0.1716 0.96908 0.0
C688 C 0.0412 0.1756 0.94528 0.0
H689 H 0.08481 0.13864 1.00158 0.0
H690 H 0.08854 0.19219 0.97724 0.0
C691 C 0.01367 0.14818 0.9354 0.0
C692 C 0.39836 0.22932 0.26839 0.0
C693 C 0.38084 0.25892 0.27653 0.0
H694 H 0.44064 0.20678 0.24278 0.0
C695 C 0.39422 0.2897 0.265 0.0
H696 H 0.38851 0.20497 0.27628 0.0
C697 C 0.42418 0.29068 0.24552 0.0
C698 C 0.44132 0.26085 0.23697 0.0
H699 H 0.38152 0.31304 0.27102 0.0
H700 H 0.43365 0.31471 0.23682 0.0
C701 C 0.42817 0.23027 0.24889 0.0
C702 C 0.56726 0.39636 0.06369 0.0
C703 C 0.5439 0.42041 0.07381 0.0
H704 H 0.58857 0.35153 0.07401 0.0
C705 C 0.52556 0.41945 0.10418 0.0
H706 H 0.58134 0.39657 0.04004 0.0
C707 C 0.52941 0.39367 0.12354 0.0
C708 C 0.55158 0.36833 0.11268 0.0
H709 H 0.50714 0.43769 0.11214 0.0
H710 H 0.51401 0.39282 0.14626 0.0
C711 C 0.57122 0.37057 0.08307 0.0
C712 C 0.66356 0.25585 0.23104 0.0
C713 C 0.66506 0.24666 0.26367 0.0
H714 H 0.63363 0.27498 0.19467 0.0
C715 C 0.63785 0.25201 0.2863 0.0
H716 H 0.68436 0.25167 0.2132 0.0
C717 C 0.6087 0.26536 0.2758 0.0
C718 C 0.60637 0.27325 0.24242 0.0
H719 H 0.63861 0.2448 0.31156 0.0
H720 H 0.58752 0.26826 0.29334 0.0
C721 C 0.63449 0.26907 0.22047 0.0
C722 C 0.51599 0.12715 0.07676 0.0
C723 C 0.50138 0.13235 0.04563 0.0
H724 H 0.53621 0.15056 0.12807 0.0
C725 C 0.49744 0.16665 0.04207 0.0
H726 H 0.51928 0.10094 0.08014 0.0
C727 C 0.5066 0.19506 0.06972 0.0
C728 C 0.5203 0.18973 0.10126 0.0
H729 H 0.48587 0.17131 0.01848 0.0
H730 H 0.50243 0.2211 0.06656 0.0
C731 C 0.52562 0.15557 0.10418 0.0
C732 C 0.31534 0.4012 0.71105 0.0
C733 C 0.31711 0.38225 0.73787 0.0
H734 H 0.33313 0.44816 0.69244 0.0
C735 C 0.33936 0.3968 0.76691 0.0
H736 H 0.29817 0.39085 0.6885 0.0
C737 C 0.35911 0.42965 0.7693 0.0
C738 C 0.35718 0.44874 0.74265 0.0
H739 H 0.34178 0.38264 0.78774 0.0
H740 H 0.376 0.44 0.79208 0.0
C741 C 0.3352 0.43412 0.71341 0.0
C742 C 0.32641 0.65382 0.78971 0.0
C743 C 0.3111 0.66589 0.82125 0.0
H744 H 0.36143 0.62097 0.76308 0.0
C745 C 0.3203 0.65361 0.85097 0.0
H746 H 0.32013 0.66313 0.76647 0.0
C747 C 0.34393 0.62937 0.84907 0.0
C748 C 0.3591 0.61715 0.81746 0.0
H749 H 0.30872 0.66226 0.87559 0.0
H750 H 0.35018 0.62012 0.87234 0.0
C751 C 0.35025 0.62984 0.78786 0.0
C752 C 0.89341 0.49467 0.51005 0.0
C753 C 0.91421 0.5175 0.53662 0.0
H754 H 0.84694 0.45876 0.49635 0.0
C755 C 0.9027 0.52197 0.57084 0.0
H756 H 0.9013 0.49105 0.48335 0.0
C757 C 0.87132 0.50347 0.57837 0.0
C758 C 0.85082 0.48024 0.55179 0.0
H759 H 0.9183 0.53915 0.59193 0.0
H760 H 0.86335 0.50712 0.60503 0.0
C761 C 0.86213 0.47629 0.51752 0.0
C762 C 0.71857 0.87405 0.7805 0.0
C763 C 0.75337 0.87849 0.79183 0.0
H764 H 0.67738 0.89753 0.76187 0.0
C765 C 0.77455 0.91009 0.7909 0.0
H766 H 0.70174 0.84992 0.78147 0.0
C767 C 0.76067 0.93749 0.77974 0.0
C768 C 0.72531 0.93376 0.76978 0.0
H769 H 0.8014 0.9141 0.80003 0.0
H770 H 0.77735 0.96201 0.78019 0.0
C771 C 0.70462 0.90141 0.76954 0.0
C772 C 0.63647 0.55232 0.0375 0.0
C773 C 0.62675 0.53649 0.00286 0.0
H774 H 0.67536 0.58479 0.07261 0.0
C775 C 0.65088 0.54008 0.9769 0.0
H776 H 0.61846 0.55041 0.0581 0.0
C777 C 0.68334 0.56017 0.98515 0.0
C778 C 0.69259 0.57693 0.01961 0.0
H779 H 0.64455 0.52764 0.95005 0.0
H780 H 0.701 0.56294 0.96442 0.0
C781 C 0.66906 0.57223 0.04579 0.0
C782 C 0.26756 0.62001 0.2589 0.0
C783 C 0.27137 0.6282 0.22574 0.0
H784 H 0.24496 0.58317 0.28894 0.0
C785 C 0.25602 0.60404 0.1967 0.0
H786 H 0.27904 0.63833 0.2817 0.0
C787 C 0.23699 0.57233 0.20074 0.0
C788 C 0.23246 0.56445 0.23398 0.0
H789 H 0.2588 0.60969 0.17085 0.0
H790 H 0.22517 0.55438 0.17787 0.0
C791 C 0.24801 0.58855 0.26302 0.0
C792 C 0.90923 0.5373 0.99923 0.0
C793 C 0.93406 0.55952 0.02221 0.0
H794 H 0.85816 0.53039 0.97572 0.0
C795 C 0.92643 0.59213 0.03979 0.0
H796 H 0.91484 0.51197 0.98546 0.0
C797 C 0.89434 0.60272 0.03436 0.0
C798 C 0.86922 0.58082 0.01116 0.0
H799 H 0.94541 0.60957 0.05766 0.0
H800 H 0.88934 0.6282 0.04827 0.0
C801 C 0.87693 0.54787 0.99373 0.0
C802 C 0.12652 0.97647 0.00579 0.0
C803 C 0.1241 0.99835 0.03843 0.0
H804 H 0.15504 0.94013 0.97377 0.0
C805 C 0.15055 1.00074 0.06385 0.0
H806 H 0.10646 0.97342 0.98573 0.0
C807 C 0.17798 0.98094 0.05723 0.0
C808 C 0.18 0.95868 0.02483 0.0
H809 H 0.15001 0.0178 0.08905 0.0
H810 H 0.19768 0.98316 0.07752 0.0
C811 C 0.15425 0.95706 0.99902 0.0
loop_
_geom_bond_atom_site_label_1
_geom_bond_atom_site_label_2
_geom_bond_distance
_geom_bond_site_symmetry_2
_ccdc_geom_bond_type
H0 C3 0.929 . S
H1 C6 0.929 . S
H2 C8 0.930 . S
C3 H0 0.929 . S
C3 C4 1.398 . S
C3 C5 1.396 . S
C4 C3 1.398 . S
C4 C8 1.407 . S
C5 C3 1.396 . S
C5 C6 1.394 . S
C6 H1 0.929 . S
C6 C5 1.394 . S
C6 C7 1.382 . S
C7 C6 1.382 . S
C7 C8 1.392 . S
C7 N9 1.420 . S
C8 H2 0.930 . S
C8 C4 1.407 . S
C8 C7 1.392 . S
N9 C7 1.420 . S
N9 C10 1.244 . S
C10 N9 1.244 . S
H11 C14 0.929 . S
H12 C17 0.929 . S
H13 C19 0.930 . S
C14 H11 0.929 . S
C14 C15 1.398 . S
C14 C16 1.396 . S
C15 C14 1.398 . S
C15 C19 1.407 . S
C16 C14 1.396 . S
C16 C17 1.394 . S
C17 H12 0.929 . S
C17 C16 1.394 . S
C17 C18 1.382 . S
C18 C17 1.382 . S
C18 C19 1.392 . S
C18 N20 1.420 . S
C19 H13 0.930 . S
C19 C15 1.407 . S
C19 C18 1.392 . S
N20 C18 1.420 . S
N20 C21 1.244 . S
C21 N20 1.244 . S
H22 C25 0.929 . S
H23 C28 0.929 . S
H24 C30 0.930 1_556 S
C25 H22 0.929 . S
C25 C26 1.398 . S
C25 C27 1.396 . S
C26 C25 1.398 . S
C26 C30 1.407 1_455 S
C27 C25 1.396 . S
C27 C28 1.394 . S
C28 H23 0.929 . S
C28 C27 1.394 . S
C28 C29 1.382 1_455 S
C29 C28 1.382 1_655 S
C29 C30 1.392 . S
C29 N31 1.420 . S
C30 H24 0.930 1_554 S
C30 C26 1.407 1_655 S
C30 C29 1.392 . S
N31 C29 1.420 . S
N31 C32 1.244 . S
C32 N31 1.244 . S
H33 C36 0.929 . S
H34 C39 0.929 . S
H35 C41 0.930 . S
C36 H33 0.929 . S
C36 C37 1.398 . S
C36 C38 1.396 . S
C37 C36 1.398 . S
C37 C41 1.407 . S
C38 C36 1.396 . S
C38 C39 1.394 . S
C39 H34 0.929 . S
C39 C38 1.394 . S
C39 C40 1.382 . S
C40 C39 1.382 . S
C40 C41 1.392 . S
C40 N42 1.420 . S
C41 H35 0.930 . S
C41 C37 1.407 . S
C41 C40 1.392 . S
N42 C40 1.420 . S
N42 C43 1.244 . S
C43 N42 1.244 . S
H44 C47 0.929 . S
H45 C50 0.929 . S
H46 C52 0.930 . S
C47 H44 0.929 . S
C47 C48 1.398 1_545 S
C47 C49 1.396 . S
C48 C47 1.398 1_565 S
C48 C52 1.407 . S
C49 C47 1.396 . S
C49 C50 1.394 1_545 S
C50 H45 0.929 . S
C50 C49 1.394 1_565 S
C50 C51 1.382 . S
C51 C50 1.382 . S
C51 C52 1.392 . S
C51 N53 1.420 . S
C52 H46 0.930 . S
C52 C48 1.407 . S
C52 C51 1.392 . S
N53 C51 1.420 . S
N53 C54 1.244 . S
C54 N53 1.244 . S
H55 C58 0.929 . S
H56 C61 0.929 . S
H57 C63 0.930 . S
C58 H55 0.929 . S
C58 C59 1.398 . S
C58 C60 1.396 . S
C59 C58 1.398 . S
C59 C63 1.407 . S
C60 C58 1.396 . S
C60 C61 1.394 . S
C61 H56 0.929 . S
C61 C60 1.394 . S
C61 C62 1.382 . S
C62 C61 1.382 . S
C62 C63 1.392 . S
C62 N64 1.420 . S
C63 H57 0.930 . S
C63 C59 1.407 . S
C63 C62 1.392 . S
N64 C62 1.420 . S
N64 C65 1.244 . S
C65 N64 1.244 . S
H66 C69 0.929 . S
H67 C72 0.929 . S
H68 C74 0.930 . S
C69 H66 0.929 . S
C69 C70 1.398 . S
C69 C71 1.396 . S
C70 C69 1.398 . S
C70 C74 1.407 . S
C71 C69 1.396 . S
C71 C72 1.394 1_655 S
C72 H67 0.929 . S
C72 C71 1.394 1_455 S
C72 C73 1.382 1_455 S
C73 C72 1.382 1_655 S
C73 C74 1.392 . S
C73 N75 1.420 1_655 S
C74 H68 0.930 . S
C74 C70 1.407 . S
C74 C73 1.392 . S
N75 C73 1.420 1_455 S
N75 C76 1.244 . S
C76 N75 1.244 . S
H77 C80 0.929 . S
H78 C83 0.929 . S
H79 C85 0.930 . S
C80 H77 0.929 . S
C80 C81 1.398 . S
C80 C82 1.396 . S
C81 C80 1.398 . S
C81 C85 1.407 . S
C82 C80 1.396 . S
C82 C83 1.394 . S
C83 H78 0.929 . S
C83 C82 1.394 . S
C83 C84 1.382 . S
C84 C83 1.382 . S
C84 C85 1.392 . S
C84 N86 1.420 . S
C85 H79 0.930 . S
C85 C81 1.407 . S
C85 C84 1.392 . S
N86 C84 1.420 . S
N86 C87 1.244 . S
C87 N86 1.244 . S
H88 C91 0.929 . S
H89 C94 0.929 . S
H90 C96 0.930 . S
C91 H88 0.929 . S
C91 C92 1.398 . S
C91 C93 1.396 . S
C92 C91 1.398 . S
C92 C96 1.407 . S
C93 C91 1.396 . S
C93 C94 1.394 . S
C94 H89 0.929 . S
C94 C93 1.394 . S
C94 C95 1.382 . S
C95 C94 1.382 . S
C95 C96 1.392 . S
C95 N97 1.420 . S
C96 H90 0.930 . S
C96 C92 1.407 . S
C96 C95 1.392 . S
N97 C95 1.420 . S
N97 C98 1.244 . S
C98 N97 1.244 . S
H99 C102 0.929 . S
H100 C105 0.953 . S
H101 C107 0.930 . S
C102 H99 0.929 . S
C102 C103 1.398 . S
C102 C104 1.396 . S
C103 C102 1.398 . S
C103 C107 1.407 . S
C104 C102 1.396 . S
C104 C105 1.371 1_565 S
C105 H100 0.953 . S
C105 C104 1.371 1_545 S
C105 C106 1.381 1_545 S
C106 C105 1.381 1_565 S
C106 C107 1.392 . S
C106 N108 1.420 1_565 S
C107 H101 0.930 . S
C107 C103 1.407 . S
C107 C106 1.392 . S
N108 C106 1.420 1_545 S
N108 C109 1.244 . S
C109 N108 1.244 . S
H110 C113 0.929 . S
H111 C116 0.929 . S
H112 C118 0.930 . S
C113 H110 0.929 . S
C113 C114 1.398 . S
C113 C115 1.396 . S
C114 C113 1.398 . S
C114 C118 1.407 . S
C115 C113 1.396 . S
C115 C116 1.394 . S
C116 H111 0.929 . S
C116 C115 1.394 . S
C116 C117 1.382 . S
C117 C116 1.382 . S
C117 C118 1.392 . S
C117 N119 1.420 . S
C118 H112 0.930 . S
C118 C114 1.407 . S
C118 C117 1.392 . S
N119 C117 1.420 . S
N119 C120 1.244 . S
C120 N119 1.244 . S
H121 C124 0.929 . S
H122 C127 0.929 . S
H123 C129 0.930 . S
C124 H121 0.929 . S
C124 C125 1.398 . S
C124 C126 1.396 . S
C125 C124 1.398 . S
C125 C129 1.407 . S
C126 C124 1.396 . S
C126 C127 1.394 . S
C127 H122 0.929 . S
C127 C126 1.394 . S
C127 C128 1.382 . S
C128 C127 1.382 . S
C128 C129 1.392 . S
C128 N130 1.420 . S
C129 H123 0.930 . S
C129 C125 1.407 . S
C129 C128 1.392 . S
N130 C128 1.420 . S
N130 C131 1.244 . S
C131 N130 1.244 . S
H132 C135 0.929 . S
H133 C138 0.929 . S
H134 C140 0.930 . S
C135 H132 0.929 . S
C135 C136 1.398 . S
C135 C137 1.396 . S
C136 C135 1.398 . S
C136 C140 1.407 . S
C137 C135 1.396 . S
C137 C138 1.394 . S
C138 H133 0.929 . S
C138 C137 1.394 . S
C138 C139 1.382 . S
C139 C138 1.382 . S
C139 C140 1.392 . S
C139 N141 1.420 . S
C140 H134 0.930 . S
C140 C136 1.407 . S
C140 C139 1.392 . S
N141 C139 1.420 . S
N141 C142 1.244 . S
C142 N141 1.244 . S
H143 C146 0.929 . S
H144 C149 0.929 . S
H145 C151 0.930 . S
C146 H143 0.929 . S
C146 C147 1.398 . S
C146 C148 1.396 . S
C147 C146 1.398 . S
C147 C151 1.407 . S
C148 C146 1.396 . S
C148 C149 1.394 1_556 S
C149 H144 0.929 . S
C149 C148 1.394 1_554 S
C149 C150 1.383 . S
C150 C149 1.383 . S
C150 C151 1.384 1_554 S
C150 N152 1.427 . S
C151 H145 0.930 . S
C151 C147 1.407 . S
C151 C150 1.384 1_556 S
N152 C150 1.427 . S
N152 C153 1.244 . S
C153 N152 1.244 . S
H154 C157 0.929 . S
H155 C160 0.929 . S
H156 C162 0.930 . S
C157 H154 0.929 . S
C157 C158 1.398 . S
C157 C159 1.396 . S
C158 C157 1.398 . S
C158 C162 1.407 . S
C159 C157 1.396 . S
C159 C160 1.394 . S
C160 H155 0.929 . S
C160 C159 1.394 . S
C160 C161 1.382 . S
C161 C160 1.382 . S
C161 C162 1.392 . S
C161 N163 1.420 . S
C162 H156 0.930 . S
C162 C158 1.407 . S
C162 C161 1.392 . S
N163 C161 1.420 . S
N163 C164 1.244 . S
C164 N163 1.244 . S
H165 C168 0.929 . S
H166 C171 0.929 . S
H167 C173 0.930 1_565 S
C168 H165 0.929 . S
C168 C169 1.398 1_554 S
C168 C170 1.396 . S
C169 C168 1.398 1_556 S
C169 C173 1.407 . S
C170 C168 1.396 . S
C170 C171 1.394 1_554 S
C171 H166 0.929 . S
C171 C170 1.394 1_556 S
C171 C172 1.382 . S
C172 C171 1.382 . S
C172 C173 1.392 . S
C172 N174 1.420 . S
C173 H167 0.930 1_545 S
C173 C169 1.407 . S
C173 C172 1.392 . S
N174 C172 1.420 . S
N174 C175 1.244 . S
C175 N174 1.244 . S
C176 O177 1.160 . S
C176 O183 1.185 . S
O177 C176 1.160 . S
O178 Zn179 1.899 . S
O178 C186 1.284 1_554 S
Zn179 O178 1.899 . S
Zn179 O180 2.032 . S
Zn179 O183 2.086 . S
Zn179 O188 1.977 . S
O180 Zn179 2.032 . S
O180 C184 1.278 . S
C181 O182 1.203 . S
C181 O188 1.267 . S
O182 C181 1.203 . S
O183 C176 1.185 . S
O183 Zn179 2.086 . S
C184 O180 1.278 . S
C184 O185 1.211 . S
O185 C184 1.211 . S
C186 O178 1.284 1_556 S
C186 O187 1.273 . S
O187 C186 1.273 . S
O188 Zn179 1.977 . S
O188 C181 1.267 . S
C189 O190 1.160 . S
C189 O196 1.185 . S
O190 C189 1.160 . S
O191 Zn192 1.899 . S
O191 C199 1.284 . S
Zn192 O191 1.899 . S
Zn192 O193 2.032 . S
Zn192 O196 2.086 . S
Zn192 O201 1.977 . S
O193 Zn192 2.032 . S
O193 C197 1.278 . S
C194 O195 1.203 . S
C194 O201 1.267 . S
O195 C194 1.203 . S
O196 C189 1.185 . S
O196 Zn192 2.086 . S
C197 O193 1.278 . S
C197 O198 1.211 . S
O198 C197 1.211 . S
C199 O191 1.284 . S
C199 O200 1.273 . S
O200 C199 1.273 . S
O201 Zn192 1.977 . S
O201 C194 1.267 . S
C202 O203 1.186 . S
C202 O209 1.169 1_556 S
O203 C202 1.186 . S
O204 Zn205 1.899 1_556 S
O204 C212 1.284 . S
Zn205 O204 1.899 1_554 S
Zn205 O206 2.032 1_554 S
Zn205 O209 2.086 . S
Zn205 O214 1.977 . S
O206 Zn205 2.032 1_556 S
O206 C210 1.278 . S
C207 O208 1.203 . S
C207 O214 1.267 . S
O208 C207 1.203 . S
O209 C202 1.169 1_554 S
O209 Zn205 2.086 . S
C210 O206 1.278 . S
C210 O211 1.211 1_556 S
O211 C210 1.211 1_554 S
C212 O204 1.284 . S
C212 O213 1.273 . S
O213 C212 1.273 . S
O214 Zn205 1.977 . S
O214 C207 1.267 . S
C215 O216 1.160 . S
C215 O222 1.185 . S
O216 C215 1.160 . S
O217 Zn218 1.899 . S
O217 C225 1.284 . S
Zn218 O217 1.899 . S
Zn218 O219 2.032 . S
Zn218 O222 2.086 . S
Zn218 O227 1.977 . S
O219 Zn218 2.032 . S
O219 C223 1.278 1_545 S
C220 O221 1.203 . S
C220 O227 1.267 . S
O221 C220 1.203 . S
O222 C215 1.185 . S
O222 Zn218 2.086 . S
C223 O219 1.278 1_565 S
C223 O224 1.211 . S
O224 C223 1.211 . S
C225 O217 1.284 . S
C225 O226 1.273 1_545 S
O226 C225 1.273 1_565 S
O227 Zn218 1.977 . S
O227 C220 1.267 . S
C228 O229 1.160 . S
C228 O235 1.185 . S
O229 C228 1.160 . S
O230 Zn231 1.899 . S
O230 C238 1.284 . S
Zn231 O230 1.899 . S
Zn231 O232 2.032 . S
Zn231 O235 2.086 . S
Zn231 O240 1.977 . S
O232 Zn231 2.032 . S
O232 C236 1.278 . S
C233 O234 1.203 . S
C233 O240 1.267 . S
O234 C233 1.203 . S
O235 C228 1.185 . S
O235 Zn231 2.086 . S
C236 O232 1.278 . S
C236 O237 1.211 . S
O237 C236 1.211 . S
C238 O230 1.284 . S
C238 O239 1.273 . S
O239 C238 1.273 . S
O240 Zn231 1.977 . S
O240 C233 1.267 . S
C241 O242 1.160 . S
C241 O248 1.185 . S
O242 C241 1.160 . S
O243 Zn244 1.899 . S
O243 C251 1.284 . S
Zn244 O243 1.899 . S
Zn244 O245 2.032 . S
Zn244 O248 2.086 . S
Zn244 O253 1.977 . S
O245 Zn244 2.032 . S
O245 C249 1.278 . S
C246 O247 1.203 . S
C246 O253 1.267 . S
O247 C246 1.203 . S
O248 C241 1.185 . S
O248 Zn244 2.086 . S
C249 O245 1.278 . S
C249 O250 1.211 . S
O250 C249 1.211 . S
C251 O243 1.284 . S
C251 O252 1.273 . S
O252 C251 1.273 . S
O253 Zn244 1.977 . S
O253 C246 1.267 . S
C254 O255 1.160 . S
C254 O261 1.185 . S
O255 C254 1.160 . S
O256 Zn257 1.899 . S
O256 C264 1.284 . S
Zn257 O256 1.899 . S
Zn257 O258 2.032 . S
Zn257 O261 2.086 . S
Zn257 O266 1.977 . S
O258 Zn257 2.032 . S
O258 C262 1.278 . S
C259 O260 1.203 . S
C259 O266 1.267 . S
O260 C259 1.203 . S
O261 C254 1.185 . S
O261 Zn257 2.086 . S
C262 O258 1.278 . S
C262 O263 1.211 . S
O263 C262 1.211 . S
C264 O256 1.284 . S
C264 O265 1.273 . S
O265 C264 1.273 . S
O266 Zn257 1.977 . S
O266 C259 1.267 . S
C267 O268 1.160 . S
C267 O274 1.185 . S
O268 C267 1.160 . S
O269 Zn270 1.899 . S
O269 C277 1.284 1_565 S
Zn270 O269 1.899 . S
Zn270 O271 2.032 1_565 S
Zn270 O274 2.086 . S
Zn270 O279 1.977 . S
O271 Zn270 2.032 1_545 S
O271 C275 1.278 . S
C272 O273 1.203 1_565 S
C272 O279 1.267 . S
O273 C272 1.203 1_545 S
O274 C267 1.185 . S
O274 Zn270 2.086 . S
C275 O271 1.278 . S
C275 O276 1.211 . S
O276 C275 1.211 . S
C277 O269 1.284 1_545 S
C277 O278 1.273 . S
O278 C277 1.273 . S
O279 Zn270 1.977 . S
O279 C272 1.267 . S
C280 O281 1.160 1_455 S
C280 O287 1.185 . S
O281 C280 1.160 1_655 S
O282 Zn283 1.899 1_655 S
O282 C290 1.284 . S
Zn283 O282 1.899 1_455 S
Zn283 O284 2.032 . S
Zn283 O287 2.086 . S
Zn283 O292 1.977 . S
O284 Zn283 2.032 . S
O284 C288 1.278 . S
C285 O286 1.203 . S
C285 O292 1.267 . S
O286 C285 1.203 . S
O287 C280 1.185 . S
O287 Zn283 2.086 . S
C288 O284 1.278 . S
C288 O289 1.211 . S
O289 C288 1.211 . S
C290 O282 1.284 . S
C290 O291 1.273 . S
O291 C290 1.273 . S
O292 Zn283 1.977 . S
O292 C285 1.267 . S
C293 O294 1.160 . S
C293 O300 1.185 . S
O294 C293 1.160 . S
O295 Zn296 1.899 . S
O295 C303 1.284 . S
Zn296 O295 1.899 . S
Zn296 O297 2.032 . S
Zn296 O300 2.086 . S
Zn296 O305 1.977 . S
O297 Zn296 2.032 . S
O297 C301 1.278 . S
C298 O299 1.203 . S
C298 O305 1.267 . S
O299 C298 1.203 . S
O300 C293 1.185 . S
O300 Zn296 2.086 . S
C301 O297 1.278 . S
C301 O302 1.211 . S
O302 C301 1.211 . S
C303 O295 1.284 . S
C303 O304 1.273 . S
O304 C303 1.273 . S
O305 Zn296 1.977 . S
O305 C298 1.267 . S
C306 O307 1.160 1_455 S
C306 O313 1.185 . S
O307 C306 1.160 1_655 S
O308 Zn309 1.899 1_655 S
O308 C316 1.284 . S
Zn309 O308 1.899 1_455 S
Zn309 O310 2.032 . S
Zn309 O313 2.086 . S
Zn309 O318 1.977 . S
O310 Zn309 2.032 . S
O310 C314 1.278 . S
C311 O312 1.203 . S
C311 O318 1.267 . S
O312 C311 1.203 . S
O313 C306 1.185 . S
O313 Zn309 2.086 . S
C314 O310 1.278 . S
C314 O315 1.211 . S
O315 C314 1.211 . S
C316 O308 1.284 . S
C316 O317 1.273 . S
O317 C316 1.273 . S
O318 Zn309 1.977 . S
O318 C311 1.267 . S
C319 O320 1.160 . S
C319 O326 1.185 . S
O320 C319 1.160 . S
O321 Zn322 1.899 . S
O321 C329 1.284 . S
Zn322 O321 1.899 . S
Zn322 O323 2.032 . S
Zn322 O326 2.086 . S
Zn322 O331 1.977 . S
O323 Zn322 2.032 . S
O323 C327 1.278 . S
C324 O325 1.203 . S
C324 O331 1.267 . S
O325 C324 1.203 . S
O326 C319 1.185 . S
O326 Zn322 2.086 . S
C327 O323 1.278 . S
C327 O328 1.211 . S
O328 C327 1.211 . S
C329 O321 1.284 . S
C329 O330 1.273 . S
O330 C329 1.273 . S
O331 Zn322 1.977 . S
O331 C324 1.267 . S
C332 C333 1.387 . S
C332 H336 0.950 . S
C332 C341 1.390 . S
C333 C332 1.387 . S
C333 C335 1.387 . S
H334 C341 0.950 . S
C335 C333 1.387 . S
C335 C337 1.390 . S
C335 H339 0.950 . S
H336 C332 0.950 . S
C337 C335 1.390 . S
C337 C338 1.387 . S
C337 H340 0.950 . S
C338 C337 1.387 . S
C338 C341 1.387 . S
H339 C335 0.950 . S
H340 C337 0.950 . S
C341 C332 1.390 . S
C341 H334 0.950 . S
C341 C338 1.387 . S
C342 C343 1.387 . S
C342 H346 0.950 . S
C342 C351 1.390 . S
C343 C342 1.387 . S
C343 C345 1.387 . S
H344 C351 0.950 . S
C345 C343 1.387 . S
C345 C347 1.390 . S
C345 H349 0.950 . S
H346 C342 0.950 . S
C347 C345 1.390 . S
C347 C348 1.387 . S
C347 H350 0.950 . S
C348 C347 1.387 . S
C348 C351 1.387 . S
H349 C345 0.950 . S
H350 C347 0.950 . S
C351 C342 1.390 . S
C351 H344 0.950 . S
C351 C348 1.387 . S
C352 C353 1.387 . S
C352 H356 0.950 . S
C352 C361 1.390 . S
C353 C352 1.387 . S
C353 C355 1.387 . S
H354 C361 0.950 . S
C355 C353 1.387 . S
C355 C357 1.390 . S
C355 H359 0.950 . S
H356 C352 0.950 . S
C357 C355 1.390 . S
C357 C358 1.387 . S
C357 H360 0.950 . S
C358 C357 1.387 . S
C358 C361 1.387 . S
H359 C355 0.950 . S
H360 C357 0.950 . S
C361 C352 1.390 . S
C361 H354 0.950 . S
C361 C358 1.387 . S
C362 C363 1.387 1_565 S
C362 H366 0.950 . S
C362 C371 1.390 1_455 S
C363 C362 1.387 1_545 S
C363 C365 1.387 . S
H364 C371 0.950 . S
C365 C363 1.387 . S
C365 C367 1.390 . S
C365 H369 0.950 . S
H366 C362 0.950 . S
C367 C365 1.390 . S
C367 C368 1.387 1_455 S
C367 H370 0.950 . S
C368 C367 1.387 1_655 S
C368 C371 1.387 1_545 S
H369 C365 0.950 . S
H370 C367 0.950 . S
C371 C362 1.390 1_655 S
C371 H364 0.950 . S
C371 C368 1.387 1_565 S
C372 C373 1.387 . S
C372 H376 0.950 . S
C372 C381 1.390 . S
C373 C372 1.387 . S
C373 C375 1.387 . S
H374 C381 0.950 . S
C375 C373 1.387 . S
C375 C377 1.390 . S
C375 H379 0.950 . S
H376 C372 0.950 . S
C377 C375 1.390 . S
C377 C378 1.387 . S
C377 H380 0.950 . S
C378 C377 1.387 . S
C378 C381 1.387 . S
H379 C375 0.950 . S
H380 C377 0.950 . S
C381 C372 1.390 . S
C381 H374 0.950 . S
C381 C378 1.387 . S
C382 C383 1.387 . S
C382 H386 0.950 . S
C382 C391 1.390 . S
C383 C382 1.387 . S
C383 C385 1.387 . S
H384 C391 0.950 . S
C385 C383 1.387 . S
C385 C387 1.390 . S
C385 H389 0.950 . S
H386 C382 0.950 . S
C387 C385 1.390 . S
C387 C388 1.387 . S
C387 H390 0.950 . S
C388 C387 1.387 . S
C388 C391 1.387 . S
H389 C385 0.950 . S
H390 C387 0.950 . S
C391 C382 1.390 . S
C391 H384 0.950 . S
C391 C388 1.387 . S
C392 C393 1.387 . S
C392 H396 0.950 . S
C392 C401 1.390 . S
C393 C392 1.387 . S
C393 C395 1.387 . S
H394 C401 0.950 . S
C395 C393 1.387 . S
C395 C397 1.390 . S
C395 H399 0.950 . S
H396 C392 0.950 . S
C397 C395 1.390 . S
C397 C398 1.387 . S
C397 H400 0.950 . S
C398 C397 1.387 . S
C398 C401 1.387 . S
H399 C395 0.950 . S
H400 C397 0.950 . S
C401 C392 1.390 . S
C401 H394 0.950 . S
C401 C398 1.387 . S
C402 C403 1.387 1_545 S
C402 H406 0.950 . S
C402 C411 1.390 . S
C403 C402 1.387 1_565 S
C403 C405 1.387 . S
H404 C411 0.950 . S
C405 C403 1.387 . S
C405 C407 1.390 . S
C405 H409 0.950 . S
H406 C402 0.950 . S
C407 C405 1.390 . S
C407 C408 1.387 . S
C407 H410 0.950 . S
C408 C407 1.387 . S
C408 C411 1.387 1_565 S
H409 C405 0.950 . S
H410 C407 0.950 . S
C411 C402 1.390 . S
C411 H404 0.950 . S
C411 C408 1.387 1_545 S
C412 C413 1.387 . S
C412 H416 0.950 . S
C412 C421 1.390 . S
C413 C412 1.387 . S
C413 C415 1.387 . S
H414 C421 0.950 . S
C415 C413 1.387 . S
C415 C417 1.390 . S
C415 H419 0.950 . S
H416 C412 0.950 . S
C417 C415 1.390 . S
C417 C418 1.387 . S
C417 H420 0.950 . S
C418 C417 1.387 . S
C418 C421 1.387 . S
H419 C415 0.950 . S
H420 C417 0.950 . S
C421 C412 1.390 . S
C421 H414 0.950 . S
C421 C418 1.387 . S
C422 C423 1.387 . S
C422 H426 0.950 . S
C422 C431 1.390 . S
C423 C422 1.387 . S
C423 C425 1.387 . S
H424 C431 0.950 . S
C425 C423 1.387 . S
C425 C427 1.390 . S
C425 H429 0.950 . S
H426 C422 0.950 . S
C427 C425 1.390 . S
C427 C428 1.387 . S
C427 H430 0.950 . S
C428 C427 1.387 . S
C428 C431 1.387 . S
H429 C425 0.950 . S
H430 C427 0.950 . S
C431 C422 1.390 . S
C431 H424 0.950 . S
C431 C428 1.387 . S
C432 C433 1.387 . S
C432 H436 0.950 . S
C432 C441 1.390 . S
C433 C432 1.387 . S
C433 C435 1.387 . S
H434 C441 0.950 . S
C435 C433 1.387 . S
C435 C437 1.390 . S
C435 H439 0.950 . S
H436 C432 0.950 . S
C437 C435 1.390 . S
C437 C438 1.387 . S
C437 H440 0.950 . S
C438 C437 1.387 . S
C438 C441 1.387 . S
H439 C435 0.950 . S
H440 C437 0.950 . S
C441 C432 1.390 . S
C441 H434 0.950 . S
C441 C438 1.387 . S
C442 C443 1.387 . S
C442 H446 0.950 . S
C442 C451 1.390 . S
C443 C442 1.387 . S
C443 C445 1.387 . S
H444 C451 0.950 . S
C445 C443 1.387 . S
C445 C447 1.390 . S
C445 H449 0.950 . S
H446 C442 0.950 . S
C447 C445 1.390 . S
C447 C448 1.387 . S
C447 H450 0.950 . S
C448 C447 1.387 . S
C448 C451 1.387 . S
H449 C445 0.950 . S
H450 C447 0.950 . S
C451 C442 1.390 . S
C451 H444 0.950 . S
C451 C448 1.387 . S
C452 C453 1.387 . S
C452 H456 0.950 . S
C452 C461 1.390 . S
C453 C452 1.387 . S
C453 C455 1.387 . S
H454 C461 0.950 . S
C455 C453 1.387 . S
C455 C457 1.390 . S
C455 H459 0.950 . S
H456 C452 0.950 . S
C457 C455 1.390 . S
C457 C458 1.387 . S
C457 H460 0.950 . S
C458 C457 1.387 . S
C458 C461 1.387 . S
H459 C455 0.950 . S
H460 C457 0.950 . S
C461 C452 1.390 . S
C461 H454 0.950 . S
C461 C458 1.387 . S
C462 C463 1.387 . S
C462 H466 0.950 . S
C462 C471 1.390 . S
C463 C462 1.387 . S
C463 C465 1.387 . S
H464 C471 0.950 . S
C465 C463 1.387 . S
C465 C467 1.390 . S
C465 H469 0.950 . S
H466 C462 0.950 . S
C467 C465 1.390 . S
C467 C468 1.387 . S
C467 H470 0.950 1_455 S
C468 C467 1.387 . S
C468 C471 1.387 . S
H469 C465 0.950 . S
H470 C467 0.950 1_655 S
C471 C462 1.390 . S
C471 H464 0.950 . S
C471 C468 1.387 . S
C472 C473 1.387 . S
C472 H476 0.950 . S
C472 C481 1.390 . S
C473 C472 1.387 . S
C473 C475 1.387 . S
H474 C481 0.950 . S
C475 C473 1.387 . S
C475 C477 1.390 . S
C475 H479 0.950 . S
H476 C472 0.950 . S
C477 C475 1.390 . S
C477 C478 1.387 . S
C477 H480 0.950 . S
C478 C477 1.387 . S
C478 C481 1.387 . S
H479 C475 0.950 . S
H480 C477 0.950 . S
C481 C472 1.390 . S
C481 H474 0.950 . S
C481 C478 1.387 . S
C482 C483 1.387 . S
C482 H486 0.950 . S
C482 C491 1.390 . S
C483 C482 1.387 . S
C483 C485 1.387 1_655 S
H484 C491 0.950 . S
C485 C483 1.387 1_455 S
C485 C487 1.390 . S
C485 H489 0.950 . S
H486 C482 0.950 . S
C487 C485 1.390 . S
C487 C488 1.376 1_455 S
C487 H490 0.950 . S
C488 C487 1.376 1_655 S
C488 C491 1.398 . S
H489 C485 0.950 . S
H490 C487 0.950 . S
C491 C482 1.390 . S
C491 H484 0.950 . S
C491 C488 1.398 . S
C492 C493 1.387 . S
C492 H496 0.950 . S
C492 C501 1.390 . S
C493 C492 1.387 . S
C493 C495 1.387 . S
H494 C501 0.950 . S
C495 C493 1.387 . S
C495 C497 1.390 . S
C495 H499 0.950 . S
H496 C492 0.950 . S
C497 C495 1.390 . S
C497 C498 1.387 . S
C497 H500 0.950 . S
C498 C497 1.387 . S
C498 C501 1.387 . S
H499 C495 0.950 . S
H500 C497 0.950 . S
C501 C492 1.390 . S
C501 H494 0.950 . S
C501 C498 1.387 . S
C502 C503 1.387 . S
C502 H506 0.950 . S
C502 C511 1.390 . S
C503 C502 1.387 . S
C503 C505 1.387 . S
H504 C511 0.950 . S
C505 C503 1.387 . S
C505 C507 1.390 . S
C505 H509 0.950 . S
H506 C502 0.950 . S
C507 C505 1.390 . S
C507 C508 1.387 . S
C507 H510 0.950 . S
C508 C507 1.387 . S
C508 C511 1.387 . S
H509 C505 0.950 . S
H510 C507 0.950 . S
C511 C502 1.390 . S
C511 H504 0.950 . S
C511 C508 1.387 . S
C512 C513 1.404 1_556 S
C512 H516 0.950 . S
C512 C521 1.390 . S
C513 C512 1.404 1_554 S
C513 C515 1.387 1_565 S
H514 C521 0.950 . S
C515 C513 1.387 1_545 S
C515 C517 1.390 1_545 S
C515 H519 0.950 . S
H516 C512 0.950 . S
C517 C515 1.390 1_565 S
C517 C518 1.387 . S
C517 H520 0.950 . S
C518 C517 1.387 . S
C518 C521 1.387 1_554 S
H519 C515 0.950 . S
H520 C517 0.950 . S
C521 C512 1.390 . S
C521 H514 0.950 . S
C521 C518 1.387 1_556 S
C522 C523 1.387 . S
C522 H526 0.950 . S
C522 C531 1.390 . S
C523 C522 1.387 . S
C523 C525 1.387 . S
H524 C531 0.950 . S
C525 C523 1.387 . S
C525 C527 1.390 . S
C525 H529 0.950 . S
H526 C522 0.950 . S
C527 C525 1.390 . S
C527 C528 1.387 . S
C527 H530 0.950 . S
C528 C527 1.387 . S
C528 C531 1.387 . S
H529 C525 0.950 . S
H530 C527 0.950 . S
C531 C522 1.390 . S
C531 H524 0.950 . S
C531 C528 1.387 . S
C532 C533 1.387 . S
C532 H536 0.950 . S
C532 C541 1.390 . S
C533 C532 1.387 . S
C533 C535 1.387 . S
H534 C541 0.950 . S
C535 C533 1.387 . S
C535 C537 1.390 . S
C535 H539 0.950 . S
H536 C532 0.950 . S
C537 C535 1.390 . S
C537 C538 1.387 . S
C537 H540 0.950 . S
C538 C537 1.387 . S
C538 C541 1.387 . S
H539 C535 0.950 . S
H540 C537 0.950 . S
C541 C532 1.390 . S
C541 H534 0.950 . S
C541 C538 1.387 . S
C542 C543 1.387 . S
C542 H546 0.950 . S
C542 C551 1.390 . S
C543 C542 1.387 . S
C543 C545 1.387 . S
H544 C551 0.950 . S
C545 C543 1.387 . S
C545 C547 1.390 . S
C545 H549 0.950 . S
H546 C542 0.950 . S
C547 C545 1.390 . S
C547 C548 1.387 . S
C547 H550 0.950 . S
C548 C547 1.387 . S
C548 C551 1.387 . S
H549 C545 0.950 . S
H550 C547 0.950 . S
C551 C542 1.390 . S
C551 H544 0.950 . S
C551 C548 1.387 . S
C552 C553 1.387 . S
C552 H556 0.950 . S
C552 C561 1.390 . S
C553 C552 1.387 . S
C553 C555 1.387 . S
H554 C561 0.950 . S
C555 C553 1.387 . S
C555 C557 1.390 . S
C555 H559 0.950 . S
H556 C552 0.950 . S
C557 C555 1.390 . S
C557 C558 1.387 . S
C557 H560 0.950 . S
C558 C557 1.387 . S
C558 C561 1.387 . S
H559 C555 0.950 . S
H560 C557 0.950 . S
C561 C552 1.390 . S
C561 H554 0.950 . S
C561 C558 1.387 . S
C562 C563 1.387 . S
C562 H566 0.950 . S
C562 C571 1.390 . S
C563 C562 1.387 . S
C563 C565 1.387 . S
H564 C571 0.950 . S
C565 C563 1.387 . S
C565 C567 1.390 . S
C565 H569 0.950 . S
H566 C562 0.950 . S
C567 C565 1.390 . S
C567 C568 1.387 . S
C567 H570 0.950 . S
C568 C567 1.387 . S
C568 C571 1.387 . S
H569 C565 0.950 . S
H570 C567 0.950 . S
C571 C562 1.390 . S
C571 H564 0.950 . S
C571 C568 1.387 . S
C572 C573 1.387 . S
C572 H576 0.950 . S
C572 C581 1.390 . S
C573 C572 1.387 . S
C573 C575 1.387 . S
H574 C581 0.950 . S
C575 C573 1.387 . S
C575 C577 1.390 . S
C575 H579 0.950 . S
H576 C572 0.950 . S
C577 C575 1.390 . S
C577 C578 1.387 . S
C577 H580 0.950 . S
C578 C577 1.387 . S
C578 C581 1.387 . S
H579 C575 0.950 . S
H580 C577 0.950 . S
C581 C572 1.390 . S
C581 H574 0.950 . S
C581 C578 1.387 . S
C582 C583 1.387 . S
C582 H586 0.950 . S
C582 C591 1.390 . S
C583 C582 1.387 . S
C583 C585 1.387 1_545 S
H584 C591 0.950 . S
C585 C583 1.387 1_565 S
C585 C587 1.390 . S
C585 H589 0.950 . S
H586 C582 0.950 . S
C587 C585 1.390 . S
C587 C588 1.387 1_565 S
C587 H590 0.950 . S
C588 C587 1.387 1_545 S
C588 C591 1.387 . S
H589 C585 0.950 . S
H590 C587 0.950 . S
C591 C582 1.390 . S
C591 H584 0.950 . S
C591 C588 1.387 . S
C592 C593 1.387 . S
C592 H596 0.950 . S
C592 C601 1.390 . S
C593 C592 1.387 . S
C593 C595 1.387 . S
H594 C601 0.950 . S
C595 C593 1.387 . S
C595 C597 1.390 . S
C595 H599 0.950 . S
H596 C592 0.950 . S
C597 C595 1.390 . S
C597 C598 1.387 . S
C597 H600 0.950 . S
C598 C597 1.387 . S
C598 C601 1.387 . S
H599 C595 0.950 . S
H600 C597 0.950 . S
C601 C592 1.390 . S
C601 H594 0.950 . S
C601 C598 1.387 . S
C602 C603 1.387 . S
C602 H606 0.950 . S
C602 C611 1.390 . S
C603 C602 1.387 . S
C603 C605 1.387 . S
H604 C611 0.950 . S
C605 C603 1.387 . S
C605 C607 1.390 . S
C605 H609 0.950 . S
H606 C602 0.950 . S
C607 C605 1.390 . S
C607 C608 1.387 . S
C607 H610 0.950 . S
C608 C607 1.387 . S
C608 C611 1.387 . S
H609 C605 0.950 . S
H610 C607 0.950 . S
C611 C602 1.390 . S
C611 H604 0.950 . S
C611 C608 1.387 . S
C612 C613 1.387 . S
C612 H616 0.950 . S
C612 C621 1.390 . S
C613 C612 1.387 . S
C613 C615 1.387 . S
H614 C621 0.950 . S
C615 C613 1.387 . S
C615 C617 1.390 . S
C615 H619 0.950 . S
H616 C612 0.950 . S
C617 C615 1.390 . S
C617 C618 1.387 . S
C617 H620 0.950 . S
C618 C617 1.387 . S
C618 C621 1.387 . S
H619 C615 0.950 . S
H620 C617 0.950 . S
C621 C612 1.390 . S
C621 H614 0.950 . S
C621 C618 1.387 . S
C622 C623 1.387 . S
C622 H626 0.950 . S
C622 C631 1.390 . S
C623 C622 1.387 . S
C623 C625 1.387 . S
H624 C631 0.950 . S
C625 C623 1.387 . S
C625 C627 1.390 . S
C625 H629 0.950 1_545 S
H626 C622 0.950 . S
C627 C625 1.390 . S
C627 C628 1.387 1_455 S
C627 H630 0.950 1_445 S
C628 C627 1.387 1_655 S
C628 C631 1.387 1_655 S
H629 C625 0.950 1_565 S
H630 C627 0.950 1_665 S
C631 C622 1.390 . S
C631 H624 0.950 . S
C631 C628 1.387 1_455 S
C632 C633 1.387 . S
C632 H636 0.950 . S
C632 C641 1.390 . S
C633 C632 1.387 . S
C633 C635 1.387 . S
H634 C641 0.950 . S
C635 C633 1.387 . S
C635 C637 1.390 . S
C635 H639 0.950 . S
H636 C632 0.950 . S
C637 C635 1.390 . S
C637 C638 1.387 . S
C637 H640 0.950 . S
C638 C637 1.387 . S
C638 C641 1.387 . S
H639 C635 0.950 . S
H640 C637 0.950 . S
C641 C632 1.390 . S
C641 H634 0.950 . S
C641 C638 1.387 . S
C642 C643 1.387 . S
C642 H646 0.950 . S
C642 C651 1.390 . S
C643 C642 1.387 . S
C643 C645 1.387 . S
H644 C651 0.950 . S
C645 C643 1.387 . S
C645 C647 1.390 . S
C645 H649 0.950 . S
H646 C642 0.950 . S
C647 C645 1.390 . S
C647 C648 1.387 . S
C647 H650 0.950 . S
C648 C647 1.387 . S
C648 C651 1.387 . S
H649 C645 0.950 . S
H650 C647 0.950 . S
C651 C642 1.390 . S
C651 H644 0.950 . S
C651 C648 1.387 . S
C652 C653 1.387 . S
C652 H656 0.950 . S
C652 C661 1.390 . S
C653 C652 1.387 . S
C653 C655 1.387 . S
H654 C661 0.950 . S
C655 C653 1.387 . S
C655 C657 1.390 . S
C655 H659 0.950 . S
H656 C652 0.950 . S
C657 C655 1.390 . S
C657 C658 1.387 . S
C657 H660 0.950 . S
C658 C657 1.387 . S
C658 C661 1.387 . S
H659 C655 0.950 . S
H660 C657 0.950 . S
C661 C652 1.390 . S
C661 H654 0.950 . S
C661 C658 1.387 . S
C662 C663 1.387 1_554 S
C662 H666 0.950 . S
C662 C671 1.390 1_554 S
C663 C662 1.387 1_556 S
C663 C665 1.387 1_455 S
H664 C671 0.950 . S
C665 C663 1.387 1_655 S
C665 C667 1.390 . S
C665 H669 0.950 . S
H666 C662 0.950 . S
C667 C665 1.390 . S
C667 C668 1.387 1_655 S
C667 H670 0.950 . S
C668 C667 1.387 1_455 S
C668 C671 1.387 . S
H669 C665 0.950 . S
H670 C667 0.950 . S
C671 C662 1.390 1_556 S
C671 H664 0.950 . S
C671 C668 1.387 . S
C672 C673 1.387 . S
C672 H676 0.950 . S
C672 C681 1.390 . S
C673 C672 1.387 . S
C673 C675 1.387 . S
H674 C681 0.950 . S
C675 C673 1.387 . S
C675 C677 1.390 . S
C675 H679 0.950 . S
H676 C672 0.950 . S
C677 C675 1.390 . S
C677 C678 1.387 . S
C677 H680 0.950 . S
C678 C677 1.387 . S
C678 C681 1.387 . S
H679 C675 0.950 . S
H680 C677 0.950 . S
C681 C672 1.390 . S
C681 H674 0.950 . S
C681 C678 1.387 . S
C682 C683 1.387 . S
C682 H686 0.950 . S
C682 C691 1.390 . S
C683 C682 1.387 . S
C683 C685 1.387 1_556 S
H684 C691 0.950 . S
C685 C683 1.387 1_554 S
C685 C687 1.390 1_554 S
C685 H689 0.950 . S
H686 C682 0.950 . S
C687 C685 1.390 1_556 S
C687 C688 1.387 . S
C687 H690 0.950 . S
C688 C687 1.387 . S
C688 C691 1.387 . S
H689 C685 0.950 . S
H690 C687 0.950 . S
C691 C682 1.390 . S
C691 H684 0.950 . S
C691 C688 1.387 . S
C692 C693 1.387 . S
C692 H696 0.950 . S
C692 C701 1.390 . S
C693 C692 1.387 . S
C693 C695 1.387 . S
H694 C701 0.950 . S
C695 C693 1.387 . S
C695 C697 1.390 . S
C695 H699 0.950 . S
H696 C692 0.950 . S
C697 C695 1.390 . S
C697 C698 1.387 . S
C697 H700 0.950 . S
C698 C697 1.387 . S
C698 C701 1.387 . S
H699 C695 0.950 . S
H700 C697 0.950 . S
C701 C692 1.390 . S
C701 H694 0.950 . S
C701 C698 1.387 . S
C702 C703 1.387 . S
C702 H706 0.950 . S
C702 C711 1.390 . S
C703 C702 1.387 . S
C703 C705 1.387 . S
H704 C711 0.950 . S
C705 C703 1.387 . S
C705 C707 1.390 . S
C705 H709 0.950 . S
H706 C702 0.950 . S
C707 C705 1.390 . S
C707 C708 1.387 . S
C707 H710 0.950 . S
C708 C707 1.387 . S
C708 C711 1.387 . S
H709 C705 0.950 . S
H710 C707 0.950 . S
C711 C702 1.390 . S
C711 H704 0.950 . S
C711 C708 1.387 . S
C712 C713 1.387 . S
C712 H716 0.950 . S
C712 C721 1.390 . S
C713 C712 1.387 . S
C713 C715 1.387 . S
H714 C721 0.950 . S
C715 C713 1.387 . S
C715 C717 1.390 . S
C715 H719 0.950 . S
H716 C712 0.950 . S
C717 C715 1.390 . S
C717 C718 1.387 . S
C717 H720 0.950 . S
C718 C717 1.387 . S
C718 C721 1.387 . S
H719 C715 0.950 . S
H720 C717 0.950 . S
C721 C712 1.390 . S
C721 H714 0.950 . S
C721 C718 1.387 . S
C722 C723 1.387 . S
C722 H726 0.950 . S
C722 C731 1.390 . S
C723 C722 1.387 . S
C723 C725 1.387 . S
H724 C731 0.950 . S
C725 C723 1.387 . S
C725 C727 1.390 . S
C725 H729 0.950 1_554 S
H726 C722 0.950 . S
C727 C725 1.390 . S
C727 C728 1.387 . S
C727 H730 0.950 . S
C728 C727 1.387 . S
C728 C731 1.387 . S
H729 C725 0.950 1_556 S
H730 C727 0.950 . S
C731 C722 1.390 . S
C731 H724 0.950 . S
C731 C728 1.387 . S
C732 C733 1.387 . S
C732 H736 0.950 . S
C732 C741 1.390 . S
C733 C732 1.387 . S
C733 C735 1.387 . S
H734 C741 0.950 . S
C735 C733 1.387 . S
C735 C737 1.390 . S
C735 H739 0.950 . S
H736 C732 0.950 . S
C737 C735 1.390 . S
C737 C738 1.387 . S
C737 H740 0.950 . S
C738 C737 1.387 . S
C738 C741 1.387 . S
H739 C735 0.950 . S
H740 C737 0.950 . S
C741 C732 1.390 . S
C741 H734 0.950 . S
C741 C738 1.387 . S
C742 C743 1.387 . S
C742 H746 0.950 . S
C742 C751 1.390 . S
C743 C742 1.387 . S
C743 C745 1.387 . S
H744 C751 0.950 . S
C745 C743 1.387 . S
C745 C747 1.390 . S
C745 H749 0.950 . S
H746 C742 0.950 . S
C747 C745 1.390 . S
C747 C748 1.387 . S
C747 H750 0.950 . S
C748 C747 1.387 . S
C748 C751 1.387 . S
H749 C745 0.950 . S
H750 C747 0.950 . S
C751 C742 1.390 . S
C751 H744 0.950 . S
C751 C748 1.387 . S
C752 C753 1.387 . S
C752 H756 0.950 . S
C752 C761 1.390 . S
C753 C752 1.387 . S
C753 C755 1.387 . S
H754 C761 0.950 . S
C755 C753 1.387 . S
C755 C757 1.390 . S
C755 H759 0.950 . S
H756 C752 0.950 . S
C757 C755 1.390 . S
C757 C758 1.387 . S
C757 H760 0.950 . S
C758 C757 1.387 . S
C758 C761 1.387 . S
H759 C755 0.950 . S
H760 C757 0.950 . S
C761 C752 1.390 . S
C761 H754 0.950 . S
C761 C758 1.387 . S
C762 C763 1.387 . S
C762 H766 0.950 . S
C762 C771 1.390 . S
C763 C762 1.387 . S
C763 C765 1.387 . S
H764 C771 0.950 . S
C765 C763 1.387 . S
C765 C767 1.390 . S
C765 H769 0.950 . S
H766 C762 0.950 . S
C767 C765 1.390 . S
C767 C768 1.387 . S
C767 H770 0.950 . S
C768 C767 1.387 . S
C768 C771 1.387 . S
H769 C765 0.950 . S
H770 C767 0.950 . S
C771 C762 1.390 . S
C771 H764 0.950 . S
C771 C768 1.387 . S
C772 C773 1.387 1_554 S
C772 H776 0.950 . S
C772 C781 1.390 . S
C773 C772 1.387 1_556 S
C773 C775 1.387 . S
H774 C781 0.950 . S
C775 C773 1.387 . S
C775 C777 1.390 . S
C775 H779 0.950 . S
H776 C772 0.950 . S
C777 C775 1.390 . S
C777 C778 1.387 . S
C777 H780 0.950 . S
C778 C777 1.387 . S
C778 C781 1.387 1_556 S
H779 C775 0.950 . S
H780 C777 0.950 . S
C781 C772 1.390 . S
C781 H774 0.950 . S
C781 C778 1.387 1_554 S
C782 C783 1.387 . S
C782 H786 0.950 . S
C782 C791 1.390 . S
C783 C782 1.387 . S
C783 C785 1.387 . S
H784 C791 0.950 . S
C785 C783 1.387 . S
C785 C787 1.390 . S
C785 H789 0.950 . S
H786 C782 0.950 . S
C787 C785 1.390 . S
C787 C788 1.387 . S
C787 H790 0.950 . S
C788 C787 1.387 . S
C788 C791 1.387 . S
H789 C785 0.950 . S
H790 C787 0.950 . S
C791 C782 1.390 . S
C791 H784 0.950 . S
C791 C788 1.387 . S
C792 C793 1.387 1_556 S
C792 H796 0.950 . S
C792 C801 1.390 . S
C793 C792 1.387 1_554 S
C793 C795 1.387 . S
H794 C801 0.950 . S
C795 C793 1.387 . S
C795 C797 1.390 . S
C795 H799 0.950 . S
H796 C792 0.950 . S
C797 C795 1.390 . S
C797 C798 1.387 . S
C797 H800 0.950 . S
C798 C797 1.387 . S
C798 C801 1.387 1_554 S
H799 C795 0.950 . S
H800 C797 0.950 . S
C801 C792 1.390 . S
C801 H794 0.950 . S
C801 C798 1.387 1_556 S
C802 C803 1.387 1_565 S
C802 H806 0.943 1_565 S
C802 C811 1.390 . S
C803 C802 1.387 1_545 S
C803 C805 1.387 . S
H804 C811 0.950 . S
C805 C803 1.387 . S
C805 C807 1.390 1_545 S
C805 H809 0.950 . S
H806 C802 0.943 1_545 S
C807 C805 1.390 1_565 S
C807 C808 1.387 . S
C807 H810 0.950 . S
C808 C807 1.387 . S
C808 C811 1.387 . S
H809 C805 0.950 . S
H810 C807 0.950 . S
C811 C802 1.390 . S
C811 H804 0.950 . S
C811 C808 1.387 . S
C338 C186 1.518 . S
C333 C60 1.540 . S
C348 C199 1.434 . S
C343 C76 1.437 . S
C353 C81 1.621 . S
C358 C212 1.597 . S
C368 C225 1.551 . S
C363 C48 1.586 1_545 S
C378 C233 1.482 . S
C373 C115 1.495 . S
C388 C246 1.527 . S
C383 C136 1.549 . S
C393 C131 1.436 . S
C398 C259 1.384 . S
C408 C272 1.493 . S
C403 C104 1.511 . S
C413 C126 1.478 . S
C418 C290 1.444 . S
C428 C301 1.424 . S
C423 C103 1.470 . S
C433 C120 1.405 . S
C438 C285 1.372 . S
C448 C293 1.453 . S
C443 C142 1.461 . S
C453 C82 1.509 . S
C458 C316 1.496 . S
C463 C54 1.697 . S
C468 C306 1.671 . S
C473 C65 1.457 . S
C478 C311 1.441 . S
C483 C71 1.374 . S
C488 C314 1.356 1_655 S
C493 C37 1.532 . S
C498 C223 1.513 . S
C503 C158 1.798 . S
C508 C215 1.793 . S
C518 C184 1.466 . S
C513 C169 1.461 1_564 S
C528 C189 1.309 . S
C523 C98 1.339 . S
C533 C49 1.694 . S
C538 C236 1.658 . S
C548 C275 1.473 . S
C543 C125 1.501 . S
C558 C228 1.431 . S
C553 C109 1.436 . S
C568 C254 1.640 . S
C563 C137 1.694 . S
C578 C264 1.518 . S
C573 C159 1.540 . S
C583 C175 1.437 . S
C588 C277 1.434 . S
C593 C92 1.621 . S
C598 C238 1.598 . S
C608 C251 1.550 . S
C603 C147 1.586 . S
C613 C38 1.495 . S
C618 C207 1.484 . S
C628 C220 1.528 . S
C623 C4 1.550 . S
C638 C181 1.381 . S
C633 C21 1.435 . S
C648 C194 1.494 . S
C643 C27 1.512 . S
C653 C16 1.477 . S
C658 C303 1.444 . S
C663 C26 1.471 1_556 S
C668 C288 1.427 . S
C673 C43 1.405 . S
C678 C298 1.372 . S
C683 C10 1.461 1_556 S
C688 C280 1.453 . S
C698 C329 1.496 . S
C693 C93 1.509 . S
C708 C319 1.673 . S
C703 C153 1.697 . S
C718 C324 1.441 . S
C713 C164 1.457 . S
C723 C170 1.373 . S
C728 C327 1.357 . S
C733 C114 1.533 . S
C738 C249 1.513 . S
C748 C241 1.793 . S
C743 C59 1.798 . S
C758 C262 1.466 . S
C753 C70 1.476 . S
C768 C267 1.309 . S
C763 C87 1.339 . S
C773 C148 1.694 . S
C778 C210 1.658 . S
C788 C197 1.473 . S
C783 C15 1.501 . S
C793 C32 1.436 . S
C798 C202 1.421 1_554 S
C808 C176 1.642 . S
C803 C5 1.694 . S
