# Generated by pormake.
# Topology zzz, (3,6)-cn, num edge types: 1
# Building blocks:
#     Node 0, Type 0, BuildingBlock: MIDCAF_clean_linker_0, # of connection points: 3
#     Node 1, Type 0, BuildingBlock: MIDCAF_clean_linker_0, # of connection points: 3
#     Node 2, Type 0, BuildingBlock: MIDCAF_clean_linker_0, # of connection points: 3
#     Node 3, Type 0, BuildingBlock: MIDCAF_clean_linker_0, # of connection points: 3
#     Node 4, Type 0, BuildingBlock: MIDCAF_clean_linker_0, # of connection points: 3
#     Node 5, Type 0, BuildingBlock: MIDCAF_clean_linker_0, # of connection points: 3
#     Node 6, Type 0, BuildingBlock: MIDCAF_clean_linker_0, # of connection points: 3
#     Node 7, Type 0, BuildingBlock: MIDCAF_clean_linker_0, # of connection points: 3
#     Node 8, Type 1, BuildingBlock: KUMBUR_clean_sbu_1, # of connection points: 6
#     Node 9, Type 1, BuildingBlock: KUMBUR_clean_sbu_1, # of connection points: 6
#     Node 10, Type 1, BuildingBlock: KUMBUR_clean_sbu_1, # of connection points: 6
#     Node 11, Type 1, BuildingBlock: KUMBUR_clean_sbu_1, # of connection points: 6
#     Edge 12, Type (0, 1), BuildingBlock: EZIPEK_clean_linker_0, # of connection points: 2
#     Edge 13, Type (0, 1), BuildingBlock: EZIPEK_clean_linker_0, # of connection points: 2
#     Edge 14, Type (0, 1), BuildingBlock: EZIPEK_clean_linker_0, # of connection points: 2
#     Edge 15, Type (0, 1), BuildingBlock: EZIPEK_clean_linker_0, # of connection points: 2
#     Edge 16, Type (0, 1), BuildingBlock: EZIPEK_clean_linker_0, # of connection points: 2
#     Edge 17, Type (0, 1), BuildingBlock: EZIPEK_clean_linker_0, # of connection points: 2
#     Edge 18, Type (0, 1), BuildingBlock: EZIPEK_clean_linker_0, # of connection points: 2
#     Edge 19, Type (0, 1), BuildingBlock: EZIPEK_clean_linker_0, # of connection points: 2
#     Edge 20, Type (0, 1), BuildingBlock: EZIPEK_clean_linker_0, # of connection points: 2
#     Edge 21, Type (0, 1), BuildingBlock: EZIPEK_clean_linker_0, # of connection points: 2
#     Edge 22, Type (0, 1), BuildingBlock: EZIPEK_clean_linker_0, # of connection points: 2
#     Edge 23, Type (0, 1), BuildingBlock: EZIPEK_clean_linker_0, # of connection points: 2
#     Edge 24, Type (0, 1), BuildingBlock: EZIPEK_clean_linker_0, # of connection points: 2
#     Edge 25, Type (0, 1), BuildingBlock: EZIPEK_clean_linker_0, # of connection points: 2
#     Edge 26, Type (0, 1), BuildingBlock: EZIPEK_clean_linker_0, # of connection points: 2
#     Edge 27, Type (0, 1), BuildingBlock: EZIPEK_clean_linker_0, # of connection points: 2
#     Edge 28, Type (0, 1), BuildingBlock: EZIPEK_clean_linker_0, # of connection points: 2
#     Edge 29, Type (0, 1), BuildingBlock: EZIPEK_clean_linker_0, # of connection points: 2
#     Edge 30, Type (0, 1), BuildingBlock: EZIPEK_clean_linker_0, # of connection points: 2
#     Edge 31, Type (0, 1), BuildingBlock: EZIPEK_clean_linker_0, # of connection points: 2
#     Edge 32, Type (0, 1), BuildingBlock: EZIPEK_clean_linker_0, # of connection points: 2
#     Edge 33, Type (0, 1), BuildingBlock: EZIPEK_clean_linker_0, # of connection points: 2
#     Edge 34, Type (0, 1), BuildingBlock: EZIPEK_clean_linker_0, # of connection points: 2
#     Edge 35, Type (0, 1), BuildingBlock: EZIPEK_clean_linker_0, # of connection points: 2
# Relax obj value: 0.357
# Max RMSD: 0.207
# Mean RMSD: 0.185
data_MOF--net-zzz--node1-KUMBUR_clean_sbu_1--node2-MIDCAF_clean_linker_0--edge1-EZIPEK_clean_linker_0
_symmetry_space_group_name_H-M    P1
_symmetry_Int_Tables_number       1
_symmetry_cell_setting            triclinic
loop_
_symmetry_equiv_pos_as_xyz
'x, y, z'
_cell_length_a     43.283155
_cell_length_b     43.292392
_cell_length_c     16.41892
_cell_angle_alpha  89.988866
_cell_angle_beta   90.043647
_cell_angle_gamma 90.245451
loop_
_atom_site_label
_atom_site_type_symbol
_atom_site_fract_x
_atom_site_fract_y
_atom_site_fract_z
_atom_type_partial_charge
C0 C 0.839 0.57644 0.42251 0.0
C1 C 0.84645 0.54937 0.46594 0.0
C2 C 0.82652 0.52381 0.45859 0.0
C3 C 0.80108 0.52451 0.40516 0.0
H4 H 0.67611 0.54915 0.2559 0.0
H5 H 0.62724 0.55425 0.17957 0.0
H6 H 0.67721 0.59154 0.97492 0.0
H7 H 0.7254 0.58751 0.05142 0.0
H8 H 0.75081 0.49932 1.01204 0.0
H9 H 0.77717 0.47188 0.90238 0.0
H10 H 0.86267 0.47642 0.03673 0.0
H11 H 0.83662 0.50374 0.14746 0.0
H12 H 0.80998 0.59734 0.3311 0.0
H13 H 0.85412 0.59639 0.42605 0.0
H14 H 0.83176 0.50255 0.49048 0.0
H15 H 0.78784 0.50349 0.39614 0.0
N16 N 0.74864 0.56025 0.26325 0.0
N17 N 0.74906 0.53627 0.13437 0.0
N18 N 0.79004 0.52812 0.22375 0.0
C19 C 0.73477 0.55481 0.18883 0.0
C20 C 0.77641 0.52284 0.15097 0.0
C21 C 0.77671 0.54657 0.28038 0.0
C22 C 0.7048 0.56835 0.16057 0.0
C23 C 0.67643 0.55999 0.19647 0.0
C24 C 0.64847 0.56247 0.15208 0.0
C25 C 0.64836 0.57278 0.07027 0.0
C26 C 0.67637 0.5834 0.03728 0.0
C27 C 0.70402 0.58133 0.08172 0.0
C28 C 0.7917 0.50391 0.08825 0.0
C29 C 0.77517 0.49429 0.01879 0.0
C30 C 0.79007 0.47857 0.95619 0.0
C31 C 0.82171 0.47244 0.96193 0.0
C32 C 0.83816 0.48108 0.03187 0.0
C33 C 0.82323 0.49663 0.09489 0.0
C34 C 0.79456 0.55085 0.35772 0.0
C35 C 0.81342 0.57713 0.36887 0.0
C36 C 0.97195 0.86265 0.39571 0.0
C37 C 0.99066 0.85584 0.463 0.0
C38 C 1.00233 0.82538 0.46928 0.0
C39 C 0.99611 0.8028 0.40849 0.0
H40 H 0.93384 0.6926 0.18207 0.0
H41 H 0.94142 0.64778 0.09304 0.0
H42 H 0.03818 0.66981 0.07475 0.0
H43 H 0.03055 0.71487 0.16354 0.0
H44 H 0.95863 0.8483 0.09771 0.0
H45 H 0.9869 0.87124 0.98479 0.0
H46 H 0.99013 0.78287 0.86445 0.0
H47 H 0.96097 0.7598 0.97524 0.0
H48 H 0.95122 0.84728 0.28525 0.0
H49 H 0.96245 0.88562 0.38871 0.0
H50 H 0.01679 0.81914 0.52033 0.0
H51 H 1.0062 0.78007 0.41425 0.0
N52 N 0.97927 0.75716 0.26708 0.0
N53 N 0.96478 0.75516 0.12863 0.0
N54 N 0.96402 0.80215 0.19685 0.0
C55 C 0.97427 0.74037 0.19645 0.0
C56 C 0.95988 0.78585 0.1274 0.0
C57 C 0.97316 0.78857 0.26752 0.0
C58 C 0.98175 0.707 0.18321 0.0
C59 C 0.95713 0.68685 0.16347 0.0
C60 C 0.96133 0.66143 0.11085 0.0
C61 C 0.99036 0.65526 0.07606 0.0
C62 C 1.01555 0.67377 0.10072 0.0
C63 C 1.01128 0.69929 0.15326 0.0
C64 C 0.95949 0.80184 0.04785 0.0
C65 C 0.96365 0.83405 0.04517 0.0
C66 C 0.97977 0.84729 0.98039 0.0
C67 C 0.99154 0.82836 0.91845 0.0
C68 C 0.98166 0.79763 0.91274 0.0
C69 C 0.96507 0.7845 0.97673 0.0
C70 C 0.97796 0.81005 0.33976 0.0
C71 C 0.96561 0.84032 0.33593 0.0
C72 C 0.71212 0.96541 0.49704 0.0
C73 C 0.70376 0.99658 0.50601 0.0
C74 C 0.72321 0.01896 0.46915 0.0
C75 C 0.74844 1.01023 0.41909 0.0
H76 H 0.85314 1.01481 0.24551 0.0
H77 H 0.89867 0.02472 0.15819 0.0
H78 H 0.88794 0.9347 0.04972 0.0
H79 H 0.84444 0.92417 0.13869 0.0
H80 H 0.76756 0.95083 0.03775 0.0
H81 H 0.72375 0.97126 0.96168 0.0
H82 H 0.6621 0.94076 0.15178 0.0
H83 H 0.70544 0.91953 0.22677 0.0
H84 H 0.74138 0.93238 0.43828 0.0
H85 H 0.69791 0.94748 0.52402 0.0
H86 H 0.71762 0.04323 0.4747 0.0
H87 H 0.76075 0.02792 0.38546 0.0
N88 N 0.80161 0.97488 0.30682 0.0
N89 N 0.79267 0.94906 0.18204 0.0
N90 N 0.75308 0.9527 0.27689 0.0
C91 C 0.81249 0.96407 0.23268 0.0
C92 C 0.76313 0.94328 0.20329 0.0
C93 C 0.77143 0.96833 0.32935 0.0
C94 C 0.84471 0.96873 0.19946 0.0
C95 C 0.86129 0.99671 0.20557 0.0
C96 C 0.88722 1.00247 0.15468 0.0
C97 C 0.89683 0.98066 0.09547 0.0
C98 C 0.8814 0.95211 0.09379 0.0
C99 C 0.85623 0.94616 0.14523 0.0
C100 C 0.7399 0.93567 0.14079 0.0
C101 C 0.7445 0.94657 0.06086 0.0
C102 C 0.71949 0.95847 0.01729 0.0
C103 C 0.69029 0.95915 0.05418 0.0
C104 C 0.68484 0.94142 0.12415 0.0
C105 C 0.70967 0.92917 0.16686 0.0
C106 C 0.7554 0.97885 0.40583 0.0
C107 C 0.73746 0.95679 0.44841 0.0
C108 C 0.55754 0.75849 0.8925 0.0
C109 C 0.54875 0.72742 0.8976 0.0
C110 C 0.56158 0.70866 0.95854 0.0
C111 C 0.57714 0.7223 0.02382 0.0
H112 H 0.50073 0.83424 0.13636 0.0
H113 H 0.49058 0.87912 0.04871 0.0
H114 H 0.58436 0.91005 0.08308 0.0
H115 H 0.59441 0.8654 0.17047 0.0
H116 H 0.5309 0.77555 0.39466 0.0
H117 H 0.5211 0.73714 0.50275 0.0
H118 H 0.56973 0.66828 0.3645 0.0
H119 H 0.58006 0.70583 0.25857 0.0
H120 H 0.57666 0.79686 0.95612 0.0
H121 H 0.54835 0.77314 0.84482 0.0
H122 H 0.55549 0.68439 0.9621 0.0
H123 H 0.58268 0.70805 0.07602 0.0
N124 N 0.57014 0.8005 0.10918 0.0
N125 N 0.55318 0.79675 0.24521 0.0
N126 N 0.57281 0.75331 0.17612 0.0
C127 C 0.55835 0.81416 0.17611 0.0
C128 C 0.56138 0.76593 0.24568 0.0
C129 C 0.57718 0.77022 0.10773 0.0
C130 C 0.54812 0.84662 0.16328 0.0
C131 C 0.51857 0.85168 0.1297 0.0
C132 C 0.51292 0.8771 0.07798 0.0
C133 C 0.53671 0.89807 0.05836 0.0
C134 C 0.56547 0.89446 0.09716 0.0
C135 C 0.57107 0.86912 0.14873 0.0
C136 C 0.55618 0.74423 0.31668 0.0
C137 C 0.53973 0.75235 0.38755 0.0
C138 C 0.534 0.73023 0.44949 0.0
C139 C 0.54447 0.69946 0.44196 0.0
C140 C 0.56124 0.69161 0.37214 0.0
C141 C 0.56708 0.71348 0.3111 0.0
C142 C 0.57966 0.75467 0.02777 0.0
C143 C 0.57366 0.77201 0.95684 0.0
C144 C 0.18876 0.52284 0.02469 0.0
C145 C 0.19061 0.52445 0.93927 0.0
C146 C 0.22013 0.52161 0.90328 0.0
C147 C 0.24661 0.51537 0.95113 0.0
H148 H 0.37114 0.50781 0.12186 0.0
H149 H 0.41658 0.51636 0.2105 0.0
H150 H 0.35782 0.51292 0.42193 0.0
H151 H 0.31274 0.50459 0.33416 0.0
H152 H 0.29107 0.42609 0.31488 0.0
H153 H 0.24876 0.42206 0.41136 0.0
H154 H 0.18423 0.41446 0.21235 0.0
H155 H 0.22642 0.41666 0.11621 0.0
H156 H 0.21228 0.51383 0.13732 0.0
H157 H 0.16656 0.52483 0.05459 0.0
H158 H 0.22243 0.52274 0.83768 0.0
H159 H 0.26839 0.51092 0.92102 0.0
N160 N 0.29422 0.50917 0.11827 0.0
N161 N 0.3026 0.46405 0.19598 0.0
N162 N 0.26029 0.46672 0.10861 0.0
C163 C 0.31194 0.49275 0.17298 0.0
C164 C 0.27698 0.45071 0.16401 0.0
C165 C 0.26832 0.49557 0.08475 0.0
C166 C 0.3381 0.50643 0.22065 0.0
C167 C 0.36781 0.51014 0.18694 0.0
C168 C 0.39387 0.51459 0.23779 0.0
C169 C 0.39077 0.51519 0.32337 0.0
C170 C 0.36097 0.51262 0.35648 0.0
C171 C 0.33511 0.50822 0.306 0.0
C172 C 0.26137 0.42519 0.20823 0.0
C173 C 0.26817 0.42118 0.29146 0.0
C174 C 0.24383 0.41885 0.34721 0.0
C175 C 0.2133 0.42089 0.31851 0.0
C176 C 0.20762 0.41459 0.23596 0.0
C177 C 0.23197 0.41601 0.18056 0.0
C178 C 0.24438 0.51246 0.03636 0.0
C179 C 0.21514 0.51695 0.07224 0.0
C180 C 0.07294 0.19602 0.97869 0.0
C181 C 0.04233 0.18869 0.95816 0.0
C182 C 0.01901 0.20969 0.98172 0.0
C183 C 0.02623 0.23688 0.0265 0.0
H184 H 1.01311 0.31869 0.29224 0.0
H185 H 1.00374 0.36212 0.38509 0.0
H186 H 0.06147 0.42041 0.23623 0.0
H187 H 0.07106 0.37694 0.14413 0.0
H188 H 0.10666 0.30769 0.37035 0.0
H189 H 0.07776 0.27599 0.46544 0.0
H190 H 0.10408 0.19447 0.33183 0.0
H191 H 0.1307 0.22677 0.23267 0.0
H192 H 0.10415 0.2271 0.03763 0.0
H193 H 0.09146 0.18061 0.96132 0.0
H194 H 0.99513 0.20477 0.96666 0.0
H195 H 1.00768 0.25181 0.04619 0.0
N196 N 0.04909 0.29566 0.12203 0.0
N197 N 0.08437 0.30953 0.22546 0.0
N198 N 0.09096 0.2634 0.15551 0.0
C199 C 0.05928 0.31649 0.18008 0.0
C200 C 0.09996 0.28284 0.21574 0.0
C201 C 0.066 0.26917 0.1077 0.0
C202 C 0.04202 0.34435 0.20855 0.0
C203 C 0.02231 0.34123 0.2765 0.0
C204 C 0.01743 0.36603 0.33085 0.0
C205 C 0.0323 0.39474 0.31933 0.0
C206 C 0.04982 0.39866 0.24766 0.0
C207 C 0.05482 0.37381 0.19366 0.0
C208 C 0.11606 0.26973 0.28785 0.0
C209 C 0.10779 0.28283 0.36328 0.0
C210 C 0.09096 0.26472 0.418 0.0
C211 C 0.08687 0.23315 0.4018 0.0
C212 C 0.10575 0.21909 0.34294 0.0
C213 C 0.12144 0.23768 0.28674 0.0
C214 C 0.05701 0.24376 0.04868 0.0
C215 C 0.08012 0.22296 0.0225 0.0
C216 C 0.34328 0.01844 0.99039 0.0
C217 C 0.34588 0.02939 0.90971 0.0
C218 C 0.31928 0.04247 0.87413 0.0
C219 C 0.29203 0.04693 0.91988 0.0
H220 H 0.23232 0.05008 0.32438 0.0
H221 H 0.18949 0.04249 0.41965 0.0
H222 H 0.12678 0.03078 0.2181 0.0
H223 H 0.17004 0.03843 0.12172 0.0
H224 H 0.26884 0.1117 0.30383 0.0
H225 H 0.32087 0.10932 0.35885 0.0
H226 H 0.35782 0.13638 0.12584 0.0
H227 H 0.30574 0.13894 0.07054 0.0
H228 H 0.31552 1.01548 0.09887 0.0
H229 H 0.36315 1.00831 0.02018 0.0
H230 H 0.32024 0.05108 0.81225 0.0
H231 H 0.27329 0.05989 0.89279 0.0
N232 N 0.24443 0.04054 0.10058 0.0
N233 N 0.24071 0.08547 0.18161 0.0
N234 N 0.27764 0.08288 0.07879 0.0
C235 C 0.22973 0.05706 0.16111 0.0
C236 C 0.26453 0.09864 0.14083 0.0
C237 C 0.26841 0.05409 0.05807 0.0
C238 C 0.20491 0.04409 0.21509 0.0
C239 C 0.2096 0.04487 0.30008 0.0
C240 C 0.18499 0.04086 0.35487 0.0
C241 C 0.15469 0.03617 0.32675 0.0
C242 C 0.1499 0.03423 0.24175 0.0
C243 C 0.17474 0.03818 0.18651 0.0
C244 C 0.28378 0.1225 0.18088 0.0
C245 C 0.28773 0.11948 0.26563 0.0
C246 C 0.31764 0.11782 0.29737 0.0
C247 C 0.34297 0.12091 0.24476 0.0
C248 C 0.3384 0.13302 0.16654 0.0
C249 C 0.30846 0.13479 0.13524 0.0
C250 C 0.28995 0.03744 1.00185 0.0
C251 C 0.31571 0.02215 0.0353 0.0
C252 C 0.47011 0.3488 0.46071 0.0
C253 C 0.47877 0.32726 0.52022 0.0
C254 C 0.46753 0.29695 0.51548 0.0
C255 C 0.45399 0.28677 0.44304 0.0
H256 H 0.48388 0.19884 0.16924 0.0
H257 H 0.49395 0.1503 0.24213 0.0
H258 H 0.54801 0.19983 0.41971 0.0
H259 H 0.53955 0.24787 0.34459 0.0
H260 H 0.52835 0.30517 0.03789 0.0
H261 H 0.53794 0.34716 0.93962 0.0
H262 H 0.46759 0.40216 0.05401 0.0
H263 H 0.45777 0.36098 0.151 0.0
H264 H 0.45501 0.35483 0.3383 0.0
H265 H 0.4779 0.37258 0.4649 0.0
H266 H 0.47341 0.28021 0.56198 0.0
H267 H 0.44981 0.26222 0.43599 0.0
N268 N 0.47607 0.26589 0.29446 0.0
N269 N 0.50051 0.27645 0.16942 0.0
N270 N 0.46818 0.31328 0.2316 0.0
C271 C 0.49468 0.25662 0.23334 0.0
C272 C 0.48635 0.30497 0.16769 0.0
C273 C 0.46292 0.29405 0.29518 0.0
C274 C 0.51147 0.22728 0.24968 0.0
C275 C 0.49944 0.19909 0.22094 0.0
C276 C 0.50448 0.1714 0.26427 0.0
C277 C 0.52069 0.17146 0.33885 0.0
C278 C 0.53507 0.19904 0.36339 0.0
C279 C 0.53065 0.2265 0.31923 0.0
C280 C 0.49215 0.32914 0.10294 0.0
C281 C 0.5147 0.32602 0.04171 0.0
C282 C 0.52022 0.35016 0.98537 0.0
C283 C 0.50323 0.37796 0.98842 0.0
C284 C 0.48094 0.38111 0.04963 0.0
C285 C 0.47538 0.35717 0.10535 0.0
C286 C 0.45329 0.30665 0.37495 0.0
C287 C 0.45684 0.33855 0.38817 0.0
Tb288 Tb 0.98886 0.03536 0.64019 0.0
C289 C 0.08973 0.06044 0.87956 0.0
N290 N 0.08987 0.04985 0.80176 0.0
C291 C 0.12753 0.08821 0.76516 0.0
C292 C 0.1069 0.08682 0.90199 0.0
C293 C 0.11015 0.06185 0.74616 0.0
C294 C 0.12539 0.10116 0.84297 0.0
C295 C 0.07287 0.05379 0.01896 0.0
C296 C 0.07291 0.04416 0.93687 0.0
C297 C 0.08873 0.08091 0.0412 0.0
C298 C 0.10568 0.09743 0.98276 0.0
Tb299 Tb 0.05947 1.00768 0.77543 0.0
N300 N 0.05781 0.01812 0.91281 0.0
C301 C 0.05741 0.03555 0.07638 0.0
C302 C 0.04466 0.99911 0.96991 0.0
C303 C 0.04366 1.00784 0.05189 0.0
H304 H 0.11214 0.0515 0.68659 0.0
H305 H 0.03261 0.99298 0.09629 0.0
H306 H 0.92262 0.03576 0.7467 0.0
H307 H 1.00955 0.99404 0.33509 0.0
H308 H 0.03519 0.97691 0.9528 0.0
H309 H 0.05679 0.04215 0.14002 0.0
H310 H 0.01794 0.02766 0.45471 0.0
H311 H 0.14264 0.09841 0.72 0.0
H312 H 0.0886 0.08891 0.10373 0.0
H313 H 0.11836 0.11793 1.00107 0.0
H314 H 0.87485 1.00474 0.75204 0.0
H315 H 0.1389 0.12153 0.85765 0.0
H316 H 0.96614 0.95655 0.33428 0.0
N317 N 0.9414 1.01135 0.64568 0.0
C318 C 0.93528 0.99098 0.58486 0.0
C319 C 0.89187 1.00028 0.70527 0.0
C320 C 0.90781 0.97336 0.58373 0.0
C321 C 0.91931 1.01745 0.70297 0.0
C322 C 0.88634 0.97769 0.64626 0.0
N323 N 0.98097 1.008 0.52279 0.0
C324 C 0.99924 1.01112 0.45541 0.0
C325 C 0.94972 0.96999 0.45364 0.0
C326 C 0.95573 0.98937 0.52076 0.0
C327 C 0.9699 0.97109 0.38711 0.0
C328 C 0.99441 0.99223 0.38734 0.0
H329 H 0.86496 0.96459 0.6478 0.0
H330 H 0.88164 0.93858 0.51783 0.0
H331 H 0.91847 0.93558 0.40376 0.0
O332 O 0.99926 0.07793 0.58918 0.0
O333 O 1.00982 0.99011 0.61298 0.0
O334 O 0.02829 0.9699 0.73337 0.0
O335 O 0.95125 0.0626 0.59659 0.0
O336 O 0.036 0.0458 0.59236 0.0
O337 O 0.06777 1.00773 0.64309 0.0
O338 O 0.0879 0.97916 0.84706 0.0
O339 O 0.04885 0.05683 0.75058 0.0
O340 O 0.99712 0.06179 0.75311 0.0
O341 O 0.09935 0.98867 0.72282 0.0
O342 O 1.01373 0.99355 0.82597 0.0
O343 O 0.97669 0.0254 0.76829 0.0
C344 C 1.01548 0.96636 0.66065 0.0
C345 C 0.96168 0.11414 0.53984 0.0
C346 C 0.9776 0.16487 0.4921 0.0
C347 C 0.94654 0.17314 0.48174 0.0
C348 C 0.93062 0.12236 0.52879 0.0
C349 C 0.92314 0.15181 0.49975 0.0
C350 C 0.98497 0.13551 0.52089 0.0
C351 C 0.06112 0.02856 0.58748 0.0
C352 C 0.9704 0.08457 0.57684 0.0
C353 C 0.90237 0.95269 0.51918 0.0
C354 C 0.92333 0.95098 0.45422 0.0
C355 C 0.02435 0.07116 0.77825 0.0
C356 C 0.11239 0.93986 0.77165 0.0
C357 C 0.0961 0.88621 0.77648 0.0
C358 C 0.124 0.87722 0.7405 0.0
C359 C 0.14019 0.93088 0.73487 0.0
C360 C 0.09025 0.91745 0.79115 0.0
C361 C 0.14589 0.89964 0.7191 0.0
C362 C 0.98591 1.00647 0.82659 0.0
C363 C 0.1062 0.97263 0.78689 0.0
H364 H 0.94054 0.19583 0.45898 0.0
H365 H 0.91222 0.10629 0.54372 0.0
H366 H 0.89918 0.15815 0.49154 0.0
H367 H 1.0091 0.12951 0.52876 0.0
H368 H 0.12887 0.85303 0.72997 0.0
H369 H 0.15742 0.94799 0.71838 0.0
H370 H 0.06859 0.92415 0.81913 0.0
H371 H 0.16743 0.89279 0.69109 0.0
Tb372 Tb 0.53623 0.0644 0.7536 0.0
C373 C 0.55227 0.93538 0.57799 0.0
N374 N 0.55032 0.96432 0.54742 0.0
C375 C 0.5937 0.95402 0.46027 0.0
C376 C 0.57584 0.91495 0.55419 0.0
C377 C 0.56947 0.97314 0.48522 0.0
C378 C 0.59731 0.925 0.4962 0.0
C379 C 0.52751 0.8947 0.65496 0.0
C380 C 0.52867 0.92543 0.62704 0.0
C381 C 0.55203 0.87467 0.63664 0.0
C382 C 0.57621 0.88481 0.58617 0.0
Tb383 Tb 0.51286 0.99567 0.60263 0.0
N384 N 0.50545 0.94542 0.64166 0.0
C385 C 0.50122 0.88485 0.6974 0.0
C386 C 0.47856 0.93521 0.67612 0.0
C387 C 0.47632 0.90504 0.70644 0.0
H388 H 0.56672 0.99535 0.45637 0.0
H389 H 0.45537 0.89737 0.73634 0.0
H390 H 0.47925 0.11336 0.76679 0.0
H391 H 0.65727 0.08947 0.69048 0.0
H392 H 0.45914 0.95062 0.6819 0.0
H393 H 0.4994 0.86144 0.72029 0.0
H394 H 0.61453 0.06321 0.76096 0.0
H395 H 0.60946 0.96165 0.41317 0.0
H396 H 0.55191 0.85106 0.65853 0.0
H397 H 0.59436 0.86884 0.56969 0.0
H398 H 0.46591 0.16517 0.71316 0.0
H399 H 0.61587 0.9101 0.47627 0.0
H400 H 0.64673 0.1341 0.60076 0.0
N401 N 0.52243 0.11175 0.70591 0.0
C402 C 0.54409 0.12775 0.66367 0.0
C403 C 0.48783 0.15474 0.69783 0.0
C404 C 0.53783 0.15739 0.63254 0.0
C405 C 0.4952 0.12534 0.72722 0.0
C406 C 0.50907 0.17066 0.64917 0.0
N407 N 0.5792 0.08905 0.7008 0.0
C408 C 0.60921 0.08137 0.71804 0.0
C409 C 0.59736 0.1325 0.62141 0.0
C410 C 0.57341 0.11552 0.65904 0.0
C411 C 0.62767 0.12183 0.62896 0.0
C412 C 0.63371 0.09669 0.67962 0.0
H413 H 0.50343 0.19352 0.62689 0.0
H414 H 0.55651 0.19603 0.56449 0.0
H415 H 0.60863 0.17391 0.55306 0.0
O416 O 0.55682 0.09504 0.83691 0.0
O417 O 0.50861 0.07237 0.64118 0.0
O418 O 0.53154 0.03936 0.55577 0.0
O419 O 0.51713 0.06869 0.87097 0.0
O420 O 0.57321 0.03063 0.72183 0.0
O421 O 0.55852 1.01809 0.5931 0.0
O422 O 0.47351 1.01495 0.54768 0.0
O423 O 0.51445 0.9827 0.73229 0.0
O424 O 0.54547 1.01772 0.80338 0.0
O425 O 0.49506 0.97443 0.49742 0.0
O426 O 0.47542 1.00779 0.68989 0.0
O427 O 0.4869 0.05223 0.76562 0.0
C428 C 0.51803 0.06595 0.5668 0.0
C429 C 0.55405 0.07835 0.97162 0.0
C430 C 0.59403 0.04925 0.04027 0.0
C431 C 0.58394 0.06079 0.11555 0.0
C432 C 0.54389 0.08981 0.0468 0.0
C433 C 0.55884 0.08099 0.11865 0.0
C434 C 0.57902 0.05799 0.96866 0.0
C435 C 0.58028 0.02016 0.6486 0.0
C436 C 0.53862 0.08729 0.89612 0.0
C437 C 0.56094 0.17334 0.58956 0.0
C438 C 0.59062 0.16074 0.58319 0.0
C439 C 0.53014 0.99124 0.79748 0.0
C440 C 0.47523 1.01149 0.40488 0.0
C441 C 0.45111 0.0473 0.31023 0.0
C442 C 0.47504 0.04237 0.25425 0.0
C443 C 0.49904 1.00652 0.34805 0.0
C444 C 0.45136 0.03198 0.38538 0.0
C445 C 0.49897 0.02207 0.27338 0.0
C446 C 0.46801 0.02964 0.74319 0.0
C447 C 0.47513 0.9964 0.48544 0.0
H448 H 0.59527 0.05393 0.17153 0.0
H449 H 0.52446 0.10546 0.04986 0.0
H450 H 0.55091 0.08973 0.17672 0.0
H451 H 0.58677 0.04881 0.91071 0.0
H452 H 0.47496 0.05395 0.19576 0.0
H453 H 0.51786 0.99093 0.36147 0.0
H454 H 0.43274 0.03582 0.42836 0.0
H455 H 0.51743 0.01827 0.23011 0.0
Tb456 Tb 0.55715 0.5232 0.64418 0.0
C457 C 0.44981 0.49622 0.86404 0.0
N458 N 0.45089 0.50671 0.78616 0.0
C459 C 0.41052 0.47143 0.74804 0.0
C460 C 0.43018 0.47156 0.88605 0.0
C461 C 0.43076 0.49563 0.72885 0.0
C462 C 0.41047 0.4591 0.82675 0.0
C463 C 0.46698 0.50106 1.00378 0.0
C464 C 0.46776 0.51104 0.92197 0.0
C465 C 0.44894 0.47524 0.02526 0.0
C466 C 0.43041 0.46065 0.96661 0.0
Tb467 Tb 0.4819 0.54838 0.76262 0.0
N468 N 0.48407 0.53658 0.89929 0.0
C469 C 0.48317 0.51817 0.0622 0.0
C470 C 0.49722 0.55498 0.95782 0.0
C471 C 0.49784 0.54558 0.03932 0.0
H472 H 0.43062 0.50532 0.6682 0.0
H473 H 0.50908 0.55985 0.08475 0.0
H474 H 0.61559 0.52619 0.77854 0.0
H475 H 0.55109 0.56449 0.33466 0.0
H476 H 0.50691 0.57729 0.94291 0.0
H477 H 0.4832 0.51126 0.12564 0.0
H478 H 0.53643 0.53156 0.45172 0.0
H479 H 0.39502 0.46228 0.70217 0.0
H480 H 0.44829 0.46709 0.08764 0.0
H481 H 0.41589 0.44137 0.98452 0.0
H482 H 0.66207 0.55802 0.80033 0.0
H483 H 0.39484 0.44029 0.84138 0.0
H484 H 0.59458 0.60153 0.34767 0.0
N485 N 0.60279 0.54891 0.66816 0.0
C486 C 0.6122 0.56859 0.60867 0.0
C487 C 0.64804 0.56153 0.74655 0.0
C488 C 0.63928 0.58651 0.61712 0.0
C489 C 0.62123 0.54393 0.73462 0.0
C490 C 0.65686 0.58328 0.68813 0.0
N491 N 0.57013 0.55109 0.53103 0.0
C492 C 0.55526 0.54783 0.45799 0.0
C493 C 0.60478 0.58863 0.47226 0.0
C494 C 0.59532 0.56965 0.53741 0.0
C495 C 0.58811 0.58727 0.39921 0.0
C496 C 0.56356 0.56638 0.39162 0.0
H497 H 0.67776 0.59671 0.69719 0.0
H498 H 0.66871 0.6208 0.55958 0.0
H499 H 0.63842 0.62266 0.43257 0.0
O500 O 0.55204 0.47983 0.58878 0.0
O501 O 0.53567 0.56706 0.60625 0.0
O502 O 0.51091 0.58743 0.71867 0.0
O503 O 0.5972 0.49833 0.61353 0.0
O504 O 0.51276 0.5107 0.58361 0.0
O505 O 0.47647 0.54572 0.62979 0.0
O506 O 0.45172 0.57545 0.83299 0.0
O507 O 0.49355 0.4985 0.74413 0.0
O508 O 0.54504 0.49939 0.75719 0.0
O509 O 0.44202 0.56642 0.70744 0.0
O510 O 0.52543 0.56894 0.81083 0.0
O511 O 0.56088 0.53173 0.77685 0.0
C512 C 0.52499 0.59074 0.64764 0.0
C513 C 0.58991 0.44443 0.63228 0.0
C514 C 0.57741 0.3905 0.65929 0.0
C515 C 0.60396 0.38773 0.70748 0.0
C516 C 0.61672 0.44142 0.68019 0.0
C517 C 0.6235 0.41324 0.71803 0.0
C518 C 0.5705 0.41876 0.62223 0.0
C519 C 0.48615 0.52548 0.57589 0.0
C520 C 0.58147 0.47395 0.5929 0.0
C521 C 0.64819 0.60654 0.55386 0.0
C522 C 0.63095 0.60762 0.48154 0.0
C523 C 0.51908 0.48447 0.76733 0.0
C524 C 0.42738 0.6146 0.75698 0.0
C525 C 0.44348 0.66831 0.76135 0.0
C526 C 0.41518 0.67722 0.72729 0.0
C527 C 0.39919 0.62349 0.72201 0.0
C528 C 0.44959 0.63708 0.77528 0.0
C529 C 0.3932 0.65473 0.70697 0.0
C530 C 0.55248 0.5555 0.82195 0.0
C531 C 0.43398 0.58188 0.77147 0.0
H532 H 0.60973 0.36585 0.73554 0.0
H533 H 0.63225 0.4608 0.68919 0.0
H534 H 0.64407 0.41113 0.75508 0.0
H535 H 0.55005 0.42052 0.58424 0.0
H536 H 0.41009 0.70141 0.71742 0.0
H537 H 0.38191 0.60631 0.7064 0.0
H538 H 0.47153 0.63042 0.80194 0.0
H539 H 0.37137 0.66152 0.68042 0.0
Tb540 Tb 0.03441 0.56536 0.6149 0.0
C541 C 0.02349 0.47145 0.92489 0.0
N542 N 0.03594 0.46966 0.84932 0.0
C543 C 0.07937 0.44205 0.90388 0.0
C544 C 0.03897 0.45961 0.99368 0.0
C545 C 0.0629 0.45387 0.83753 0.0
C546 C 0.06758 0.44532 0.98253 0.0
C547 C 0.97933 0.48416 1.00848 0.0
C548 C 0.99423 0.48345 0.93221 0.0
C549 C 0.99514 0.47385 0.07804 0.0
C550 C 0.02495 0.4616 0.07069 0.0
Tb551 Tb 1.00874 0.49325 0.74656 0.0
N552 N 0.9798 0.49301 0.86354 0.0
C553 C 0.94873 0.49438 1.01206 0.0
C554 C 0.94942 0.50167 0.86615 0.0
C555 C 0.93356 0.50272 0.94031 0.0
H556 H 0.07223 0.45096 0.7771 0.0
H557 H 0.90965 0.5099 0.94202 0.0
H558 H 0.07168 0.61485 0.73357 0.0
H559 H 0.96201 0.58866 0.35351 0.0
H560 H 0.93726 0.50801 0.81129 0.0
H561 H 0.9364 0.49517 0.06943 0.0
H562 H 0.99857 0.55848 0.43657 0.0
H563 H 0.10113 0.43037 0.89422 0.0
H564 H 0.98421 0.47455 0.13729 0.0
H565 H 0.0366 0.45302 0.12448 0.0
H566 H 0.06599 0.66909 0.7779 0.0
H567 H 0.08025 0.43596 0.03378 0.0
H568 H 0.94714 0.64136 0.39665 0.0
N569 N 0.03352 0.61644 0.65186 0.0
C570 C 1.01242 0.63458 0.61472 0.0
C571 C 0.0506 0.65963 0.73222 0.0
C572 C 1.00861 0.66579 0.63666 0.0
C573 C 0.05374 0.62891 0.70702 0.0
C574 C 0.02756 0.67804 0.69786 0.0
N575 N 1.00326 0.59296 0.52815 0.0
C576 C 0.99214 0.58133 0.45634 0.0
C577 C 0.97615 0.64066 0.50418 0.0
C578 C 0.99653 0.62228 0.55012 0.0
C579 C 0.96296 0.62805 0.43375 0.0
C580 C 0.97139 0.59838 0.40905 0.0
H581 H 0.02532 0.70188 0.71691 0.0
H582 H 0.98333 0.70784 0.61107 0.0
H583 H 0.95485 0.68578 0.49446 0.0
O584 O 0.07821 0.54694 0.59088 0.0
O585 O 0.99084 0.54199 0.58337 0.0
O586 O 0.97115 0.52395 0.70328 0.0
O587 O 0.06239 0.58743 0.52755 0.0
O588 O 0.02203 0.5211 0.55531 0.0
O589 O 0.0436 0.49098 0.64798 0.0
O590 O 0.98496 0.47238 0.64971 0.0
O591 O 0.05846 0.50479 0.74396 0.0
O592 O 0.06168 0.55727 0.72695 0.0
O593 O 0.99686 0.44605 0.75583 0.0
O594 O 0.99893 0.5367 0.81271 0.0
O595 O 0.01925 0.57835 0.73912 0.0
C596 C 0.96703 0.53597 0.63031 0.0
C597 C 0.09333 0.55175 0.45406 0.0
C598 C 0.12163 0.51113 0.38418 0.0
C599 C 0.11051 0.52197 0.30921 0.0
C600 C 0.08285 0.56279 0.37829 0.0
C601 C 0.09121 0.54771 0.30642 0.0
C602 C 0.11296 0.52599 0.45628 0.0
C603 C 0.0355 0.49465 0.57152 0.0
C604 C 0.08344 0.56605 0.53129 0.0
C605 C 0.98692 0.68388 0.59464 0.0
C606 C 0.9707 0.67132 0.52831 0.0
C607 C 0.07241 0.53138 0.75825 0.0
C608 C 0.95425 0.42935 0.67653 0.0
C609 C 0.90071 0.4233 0.71604 0.0
C610 C 0.89574 0.40314 0.65045 0.0
C611 C 0.94938 0.40909 0.61103 0.0
C612 C 0.93003 0.43594 0.72946 0.0
C613 C 0.92022 0.39583 0.5985 0.0
C614 C 1.00602 0.56636 0.80481 0.0
C615 C 0.98379 0.4455 0.68435 0.0
H616 H 0.11729 0.51086 0.2529 0.0
H617 H 0.06772 0.5826 0.37455 0.0
H618 H 0.08281 0.55608 0.24839 0.0
H619 H 0.12176 0.51757 0.51401 0.0
H620 H 0.87303 0.39341 0.63933 0.0
H621 H 0.96795 0.40399 0.56893 0.0
H622 H 0.93365 0.45162 0.77973 0.0
H623 H 0.91647 0.38036 0.54763 0.0
C624 C 0.11857 0.06206 0.42817 0.0
C625 C 0.12823 0.0348 0.38717 0.0
C626 C 0.08915 1.00537 0.46495 0.0
C627 C 0.08266 0.0316 0.51454 0.0
N628 N 0.0943 0.08468 0.54709 0.0
N629 N 0.12479 0.97953 0.3736 0.0
C630 C 0.09802 0.05998 0.49651 0.0
C631 C 0.11398 1.00621 0.40737 0.0
N632 N 0.12864 0.09016 0.40077 0.0
N633 N 0.07052 0.97997 0.46975 0.0
H634 H 0.14246 0.97917 0.33046 0.0
H635 H 0.11792 0.95765 0.39308 0.0
H636 H 0.0515 0.97904 0.50825 0.0
H637 H 0.07179 0.96141 0.42954 0.0
H638 H 0.12 0.11109 0.42193 0.0
H639 H 0.14359 0.09255 0.35132 0.0
H640 H 0.10739 0.10486 0.54319 0.0
H641 H 0.08009 0.08386 0.59798 0.0
C642 C 0.5405 0.11892 0.38435 0.0
C643 C 0.5197 0.14377 0.39508 0.0
C644 C 0.49335 0.11384 0.50326 0.0
C645 C 0.51606 0.09023 0.49866 0.0
N646 N 0.55022 0.06462 0.40287 0.0
N647 N 0.4774 0.16611 0.4697 0.0
C648 C 0.53675 0.09106 0.43049 0.0
C649 C 0.49658 0.1416 0.45642 0.0
N650 N 0.56454 0.12215 0.33106 0.0
N651 N 0.46666 0.10801 0.54487 0.0
H652 H 0.47807 0.18622 0.4348 0.0
H653 H 0.46214 0.16737 0.51854 0.0
H654 H 0.46171 0.08621 0.56853 0.0
H655 H 0.44778 0.1228 0.54573 0.0
H656 H 0.58286 0.10666 0.32803 0.0
H657 H 0.56759 0.14176 0.29494 0.0
H658 H 0.56303 0.06347 0.34929 0.0
H659 H 0.54477 0.04285 0.42468 0.0
C660 C 0.43013 0.48971 0.4168 0.0
C661 C 0.41848 0.51697 0.37944 0.0
C662 C 0.45805 0.54728 0.45273 0.0
C663 C 0.46631 0.52107 0.50023 0.0
N664 N 0.46094 0.46645 0.52421 0.0
N665 N 0.4202 0.57232 0.36609 0.0
C666 C 0.45279 0.49194 0.48054 0.0
C667 C 0.43229 0.54589 0.39824 0.0
N668 N 0.41995 0.46156 0.38993 0.0
N669 N 0.47604 0.57317 0.45631 0.0
H670 H 0.40196 0.57224 0.32452 0.0
H671 H 0.42676 0.59435 0.38511 0.0
H672 H 0.49587 0.57425 0.49201 0.0
H673 H 0.47342 0.59199 0.41741 0.0
H674 H 0.42954 0.44064 0.40794 0.0
H675 H 0.40337 0.45915 0.3442 0.0
H676 H 0.44905 0.44552 0.52217 0.0
H677 H 0.47941 0.46658 0.56458 0.0
C678 C 0.02056 0.44935 0.36969 0.0
C679 C 0.03221 0.41947 0.38538 0.0
C680 C 0.04396 0.43653 0.52637 0.0
C681 C 0.03595 0.46812 0.50768 0.0
N682 N 0.02843 0.50344 0.39386 0.0
N683 N 0.06333 0.3879 0.47376 0.0
C684 C 0.02734 0.47419 0.42449 0.0
C685 C 0.04624 0.41403 0.46229 0.0
N686 N 1.0031 0.45442 0.3018 0.0
N687 N 0.04873 0.42678 0.60441 0.0
H688 H 0.06643 0.37126 0.42866 0.0
H689 H 0.07727 0.38452 0.52478 0.0
H690 H 0.04799 0.44051 0.6556 0.0
H691 H 0.05047 0.40347 0.61961 0.0
H692 H 0.99155 0.47517 0.29173 0.0
H693 H 0.99765 0.43691 0.26047 0.0
H694 H 0.02446 0.50845 0.33262 0.0
H695 H 0.03844 0.52174 0.42493 0.0
C696 C 0.94621 0.96825 1.01491 0.0
C697 C 0.92074 0.98815 0.03012 0.0
C698 C 0.94057 0.02233 0.92183 0.0
C699 C 0.96346 1.00015 0.89748 0.0
N700 N 0.97943 0.94672 0.91137 0.0
N701 N 0.88922 0.02926 0.97639 0.0
C702 C 0.96397 0.97163 0.94159 0.0
C703 C 0.91662 1.01371 0.97725 0.0
N704 N 0.95385 0.94619 0.07067 0.0
N705 N 0.94177 0.05229 0.89612 0.0
H706 H 0.87035 0.02301 1.01226 0.0
H707 H 0.8841 0.04602 0.93281 0.0
H708 H 0.959 0.06135 0.85966 0.0
H709 H 0.92731 0.06931 0.91958 0.0
H710 H 0.97377 0.93285 0.06576 0.0
H711 H 0.94213 0.94364 0.1258 0.0
H712 H 0.97826 0.92495 0.93828 0.0
H713 H 0.98975 0.94647 0.85418 0.0
C714 C 0.54713 0.91598 0.91379 0.0
C715 C 0.53296 0.92148 0.99059 0.0
C716 C 0.51527 0.97228 0.93974 0.0
C717 C 0.53209 0.96796 0.86597 0.0
N718 N 0.56787 0.93736 0.78852 0.0
N719 N 0.50594 0.95616 0.07987 0.0
C720 C 0.54895 0.94018 0.85461 0.0
C721 C 0.51736 0.94989 1.0041 0.0
N722 N 0.55815 0.88719 0.89635 0.0
N723 N 0.49683 0.99761 0.94792 0.0
H724 H 0.50666 0.94025 0.12755 0.0
H725 H 0.49775 0.97773 0.09737 0.0
H726 H 0.49523 1.01458 0.90325 0.0
H727 H 0.48134 1.00067 0.99565 0.0
H728 H 0.56553 0.88059 0.83858 0.0
H729 H 0.55723 0.8689 0.93769 0.0
H730 H 0.58366 0.9195 0.78131 0.0
H731 H 0.56953 0.95426 0.74353 0.0
C732 C 0.60653 0.59606 0.97837 0.0
C733 C 0.62015 0.56965 1.01574 0.0
C734 C 0.58113 0.53726 0.94718 0.0
C735 C 0.57177 0.56232 0.89729 0.0
N736 N 0.57431 0.61695 0.86993 0.0
N737 N 0.62254 0.5139 0.02351 0.0
C738 C 0.58389 0.59224 0.91476 0.0
C739 C 0.60784 0.53995 0.99734 0.0
N740 N 0.6146 0.62483 1.00543 0.0
N741 N 0.5635 0.51113 0.94987 0.0
H742 H 0.64291 0.51433 0.05735 0.0
H743 H 0.61613 0.49182 1.00432 0.0
H744 H 0.54283 0.5091 0.91772 0.0
H745 H 0.56729 0.49347 0.99183 0.0
H746 H 0.60368 0.645 0.98679 0.0
H747 H 0.6305 0.62827 0.05238 0.0
H748 H 0.58508 0.63849 0.87143 0.0
H749 H 0.55599 0.61562 0.82899 0.0
C750 C 0.98637 0.64037 0.92607 0.0
C751 C 0.99357 0.63184 1.00761 0.0
C752 C 1.00981 0.58046 0.95717 0.0
C753 C 1.00018 0.58811 0.87621 0.0
N754 N 0.97253 0.62366 0.78977 0.0
N755 N 1.00702 0.59173 0.10235 0.0
C756 C 0.98663 0.61765 0.86252 0.0
C757 C 1.0036 0.6012 0.0235 0.0
N758 N 0.97988 0.67052 0.90857 0.0
N759 N 0.02677 0.55439 0.97058 0.0
H760 H 1.00355 0.60642 0.15186 0.0
H761 H 1.01071 0.5688 0.11878 0.0
H762 H 0.03366 0.53955 0.92425 0.0
H763 H 0.03703 0.54917 0.02625 0.0
H764 H 0.97822 0.67899 0.84934 0.0
H765 H 0.97873 0.68769 0.95302 0.0
H766 H 0.95949 0.6434 0.77888 0.0
H767 H 0.97114 0.60758 0.74273 0.0
C768 C 0.03552 0.20999 0.36636 0.0
C769 C 0.0577 0.21775 0.42711 0.0
C770 C 0.02221 0.19879 0.53198 0.0
C771 C 1.00316 0.18601 0.46993 0.0
N772 N 0.99411 0.17563 0.32726 0.0
N773 N 0.07273 0.21946 0.56814 0.0
C774 C 1.01041 0.1906 0.38684 0.0
C775 C 0.0511 0.21236 0.51037 0.0
N776 N 0.03744 0.22245 0.29003 0.0
N777 N 1.01242 0.19817 0.61105 0.0
H778 H 0.09445 0.22846 0.55381 0.0
H779 H 0.07001 0.21496 0.62979 0.0
H780 H 0.99145 0.18819 0.62845 0.0
H781 H 0.02348 0.21004 0.6579 0.0
H782 H 0.0203 0.21962 0.246 0.0
H783 H 0.05404 0.23877 0.274 0.0
H784 H 1.00097 0.17551 0.2664 0.0
H785 H 0.97531 0.16119 0.3392 0.0
C786 C 0.37139 0.07069 0.23978 0.0
C787 C 0.37114 0.10264 0.26072 0.0
C788 C 0.42492 0.09899 0.30537 0.0
C789 C 0.42435 0.06684 0.28878 0.0
N790 N 0.39755 0.02189 0.2371 0.0
N791 N 0.39601 0.1467 0.32161 0.0
C792 C 0.39777 0.05274 0.25529 0.0
C793 C 0.39753 0.11673 0.29563 0.0
N794 N 0.34658 0.05631 0.20526 0.0
N795 N 0.45201 0.11269 0.32746 0.0
H796 H 0.37644 0.16034 0.31342 0.0
H797 H 0.4131 0.15746 0.35619 0.0
H798 H 0.47252 0.1004 0.33419 0.0
H799 H 0.45461 0.13646 0.33219 0.0
H800 H 0.3258 0.06706 0.19082 0.0
H801 H 0.3258 0.06706 0.19082 0.0
H802 H 0.37828 1.0107 0.21242 0.0
H803 H 0.41657 1.00756 0.24606 0.0
C804 C 0.50438 0.34499 0.64937 0.0
C805 C 0.50674 0.33397 0.56875 0.0
C806 C 0.561 0.34966 0.56211 0.0
C807 C 0.55756 0.36371 0.63927 0.0
N808 N 0.53145 0.3648 0.76776 0.0
N809 N 0.53919 0.31594 0.45906 0.0
C810 C 0.531 0.35796 0.68691 0.0
C811 C 0.53586 0.3328 0.52892 0.0
N812 N 0.47646 0.34454 0.68799 0.0
N813 N 0.58764 0.35411 0.51897 0.0
H814 H 0.52112 0.30346 0.43276 0.0
H815 H 0.56037 0.31202 0.43099 0.0
H816 H 0.60698 0.36505 0.54399 0.0
H817 H 0.59029 0.34806 0.45804 0.0
H818 H 0.4725 0.3552 0.74372 0.0
H819 H 0.45685 0.33437 0.66225 0.0
H820 H 0.51428 0.35728 0.80741 0.0
H821 H 0.55072 0.37472 0.79587 0.0
C822 C 0.15951 0.43184 0.368 0.0
C823 C 0.19073 0.44127 0.36074 0.0
C824 C 0.17602 0.49442 0.39446 0.0
C825 C 0.14478 0.48602 0.38606 0.0
N826 N 0.1057 0.44721 0.3654 0.0
N827 N 0.22884 0.48137 0.35817 0.0
C828 C 0.13613 0.45474 0.37401 0.0
C829 C 0.19916 0.47265 0.37408 0.0
N830 N 0.15253 0.40105 0.36825 0.0
N831 N 0.18256 0.52358 0.4207 0.0
H832 H 0.23686 0.5041 0.35685 0.0
H833 H 0.23686 0.5041 0.35685 0.0
H834 H 0.20462 0.53168 0.43497 0.0
H835 H 0.20462 0.53168 0.43497 0.0
H836 H 0.13051 0.39226 0.37947 0.0
H837 H 0.16965 0.3842 0.36431 0.0
H838 H 0.09812 0.42536 0.34818 0.0
H839 H 0.08817 0.46347 0.37135 0.0
C840 C 0.04771 0.8406 0.92433 0.0
C841 C 0.02034 0.83777 0.87696 0.0
C842 C 0.0489 0.854 0.75616 0.0
C843 C 0.07354 0.86343 0.80703 0.0
N844 N 0.09756 0.86542 0.93938 0.0
N845 N 0.99454 0.84051 0.74713 0.0
C846 C 0.07348 0.85625 0.89102 0.0
C847 C 0.02091 0.84361 0.79219 0.0
N848 N 0.04927 0.82764 1.00022 0.0
N849 N 0.05253 0.85473 0.67378 0.0
H850 H 0.97363 0.83309 0.77208 0.0
H851 H 0.99295 0.8469 0.68621 0.0
H852 H 0.07289 0.86239 0.64624 0.0
H853 H 0.0368 0.8447 0.63385 0.0
H854 H 0.06956 0.82656 0.03422 0.0
H855 H 0.03115 0.81506 0.02593 0.0
H856 H 0.09692 0.86455 1.00276 0.0
H857 H 0.11769 0.87538 0.91607 0.0
C858 C 0.63792 0.97463 1.00862 0.0
C859 C 0.66779 0.98353 0.03395 0.0
C860 C 0.65044 0.03712 0.04719 0.0
C861 C 0.61969 0.02697 0.03569 0.0
N862 N 0.58356 0.98505 0.02003 0.0
N863 N 0.70146 0.02288 0.0919 0.0
C864 C 0.61324 0.99552 0.01939 0.0
C865 C 0.67403 1.01479 0.05626 0.0
N866 N 0.63313 0.94614 0.97508 0.0
N867 N 0.65711 0.06798 0.04955 0.0
H868 H 0.71927 1.00741 0.10325 0.0
H869 H 0.70547 0.04457 0.11736 0.0
H870 H 0.6402 0.08496 0.04395 0.0
H871 H 0.67963 0.07659 0.04946 0.0
H872 H 0.6122 0.93952 0.94879 0.0
H873 H 0.65104 0.9304 0.96646 0.0
H874 H 0.57852 0.96161 0.02106 0.0
H875 H 0.5646 0.9994 0.02937 0.0
C876 C 0.49295 0.71378 0.90729 0.0
C877 C 0.51972 0.71742 0.858 0.0
C878 C 0.49005 0.70132 0.73874 0.0
C879 C 0.46618 0.69114 0.79112 0.0
N880 N 0.44378 0.68795 0.92519 0.0
N881 N 0.54397 0.7162 0.7261 0.0
C882 C 0.46711 0.69782 0.87536 0.0
C883 C 0.51824 0.71212 0.77305 0.0
N884 N 0.49195 0.72637 0.98366 0.0
N885 N 0.4855 0.70088 0.65664 0.0
H886 H 0.56501 0.72386 0.74983 0.0
H887 H 0.54495 0.7105 0.66466 0.0
H888 H 0.46506 0.6928 0.63033 0.0
H889 H 0.5005 0.71149 0.61584 0.0
H890 H 0.47202 0.72688 0.01912 0.0
H891 H 0.51004 0.73927 1.00846 0.0
H892 H 0.44518 0.68842 0.98852 0.0
H893 H 0.42354 0.67779 0.90308 0.0
C894 C 0.84582 0.42648 0.89555 0.0
C895 C 0.83815 0.45827 0.8929 0.0
C896 C 0.8644 0.46399 0.76244 0.0
C897 C 0.87525 0.43323 0.7694 0.0
N898 N 0.87827 0.38534 0.84399 0.0
N899 N 0.83916 0.5075 0.82304 0.0
C900 C 0.86612 0.41428 0.83576 0.0
C901 C 0.84694 0.47695 0.82594 0.0
N902 N 0.83328 0.40801 0.95456 0.0
N903 N 0.87119 0.48196 0.69658 0.0
H904 H 0.82678 0.51857 0.86894 0.0
H905 H 0.8456 0.52185 0.77481 0.0
H906 H 0.88359 0.47438 0.64591 0.0
H907 H 0.88359 0.47438 0.64591 0.0
H908 H 0.83539 0.38407 0.95535 0.0
H909 H 0.81855 0.41641 0.99963 0.0
H910 H 0.87564 0.3718 0.89592 0.0
H911 H 0.89261 0.37537 0.80036 0.0
C912 C 0.04359 0.15665 0.82827 0.0
C913 C 0.03545 0.15902 0.91175 0.0
C914 C 0.01958 0.10371 0.90866 0.0
C915 C 0.02758 0.10158 0.82441 0.0
N916 N 0.04512 0.1287 0.70353 0.0
N917 N 0.01945 0.13364 0.03499 0.0
C918 C 0.03909 0.12853 0.78476 0.0
C919 C 0.0241 0.13223 0.95269 0.0
N920 N 0.05605 0.1815 0.78891 0.0
N921 N 1.00781 0.07826 0.94689 0.0
H922 H 0.02229 0.15392 0.06849 0.0
H923 H 1.01448 0.11465 0.07154 0.0
H924 H 1.00698 0.05666 0.91921 0.0
H925 H 0.99804 0.07836 1.00471 0.0
H926 H 0.0644 0.17996 0.72958 0.0
H927 H 0.05846 0.20325 0.81557 0.0
H928 H 0.04127 0.10992 0.66523 0.0
H929 H 0.04127 0.10992 0.66523 0.0
C930 C 0.3928 1.00087 0.85076 0.0
C931 C 0.37677 0.02901 0.86477 0.0
C932 C 0.41764 0.05605 0.7865 0.0
C933 C 0.43592 0.02878 0.78248 0.0
N934 N 0.44218 0.97622 0.82942 0.0
N935 N 0.3789 0.08475 0.86091 0.0
C936 C 0.42377 1.0014 0.81945 0.0
C937 C 0.39061 0.05698 0.83676 0.0
N938 N 0.37823 0.97336 0.86507 0.0
N939 N 0.42516 0.08086 0.73924 0.0
H940 H 0.36019 0.0867 0.9005 0.0
H941 H 0.3899 0.10572 0.84884 0.0
H942 H 0.44348 0.08044 0.69832 0.0
H943 H 0.41115 0.10028 0.73381 0.0
H944 H 0.38756 0.95216 0.84823 0.0
H945 H 0.35551 0.97191 0.88587 0.0
H946 H 0.43568 0.95695 0.86349 0.0
H947 H 0.46516 0.97593 0.81153 0.0
C948 C 0.5361 0.42151 0.92966 0.0
C949 C 0.50844 0.40381 0.92769 0.0
C950 C 0.49183 0.43371 0.80704 0.0
C951 C 0.51795 0.45368 0.81421 0.0
N952 N 0.57207 0.45304 0.85437 0.0
N953 N 0.45887 0.39399 0.86582 0.0
C954 C 0.54225 0.44386 0.86747 0.0
C955 C 0.48598 0.4103 0.86683 0.0
N956 N 0.55624 0.41788 0.99304 0.0
N957 N 0.47474 0.43454 0.73733 0.0
H958 H 0.45459 0.37513 0.90369 0.0
H959 H 0.44005 0.39986 0.82964 0.0
H960 H 0.48071 0.44875 0.68888 0.0
H961 H 0.45757 0.41856 0.72285 0.0
H962 H 0.5748 0.43279 1.00347 0.0
H963 H 0.55274 0.40189 0.03969 0.0
H964 H 0.59073 0.4442 0.88685 0.0
H965 H 0.57926 0.46541 0.80375 0.0
C966 C 0.15192 0.5035 0.8347 0.0
C967 C 0.16137 0.52751 0.8885 0.0
C968 C 0.11209 0.55429 0.85937 0.0
C969 C 0.10384 0.53143 0.80028 0.0
N970 N 0.12253 0.49022 0.71426 0.0
N971 N 0.15307 0.57935 0.93663 0.0
C972 C 0.12566 0.50772 0.783 0.0
C973 C 0.14219 0.55397 0.89613 0.0
N974 N 0.16721 0.47597 0.8347 0.0
N975 N 0.09095 0.57572 0.88359 0.0
H976 H 0.17501 0.5802 0.96292 0.0
H977 H 0.14169 0.6005 0.93695 0.0
H978 H 0.06887 0.57723 0.85923 0.0
H979 H 0.09438 0.59034 0.93319 0.0
H980 H 0.15922 0.45665 0.80303 0.0
H981 H 0.18597 0.47144 0.87267 0.0
H982 H 0.1392 0.47449 0.69527 0.0
H983 H 0.10549 0.49424 0.67072 0.0
C984 C 0.97475 0.89357 0.57584 0.0
C985 C 0.99826 0.88127 0.52422 0.0
C986 C 0.03489 0.91984 0.58074 0.0
C987 C 1.01072 0.9344 0.62454 0.0
N988 N 0.95942 0.9315 0.6787 0.0
N989 N 0.04998 0.88564 0.47081 0.0
C990 C 0.98108 0.92015 0.6262 0.0
C991 C 0.02819 0.89507 0.52551 0.0
N992 N 0.94619 0.87995 0.57545 0.0
N993 N 0.06466 0.92894 0.59438 0.0
H994 H 0.0463 0.86766 0.42966 0.0
H995 H 0.07085 0.8972 0.46175 0.0
H996 H 0.07021 0.94681 0.63419 0.0
H997 H 0.08381 0.91713 0.57224 0.0
H998 H 0.92688 0.88869 0.60494 0.0
H999 H 0.94151 0.85955 0.54394 0.0
H1000 H 0.93773 0.92183 0.68826 0.0
H1001 H 0.96381 0.95035 0.71662 0.0
C1002 C 0.66723 0.99688 0.63019 0.0
C1003 C 0.67335 1.00512 0.54746 0.0
C1004 C 0.62255 0.03078 0.54406 0.0
C1005 C 0.61388 1.01768 0.62031 0.0
N1006 N 0.62917 0.98718 0.73646 0.0
N1007 N 0.6525 0.02476 0.42112 0.0
C1008 C 0.63667 1.00058 0.66385 0.0
C1009 C 0.64982 0.02072 0.50332 0.0
N1010 N 0.69091 0.98651 0.67774 0.0
N1011 N 0.60566 0.05437 0.51204 0.0
H1012 H 0.67114 1.01656 0.38743 0.0
H1013 H 0.6345 0.03324 0.38538 0.0
H1014 H 0.58721 0.06425 0.54306 0.0
H1015 H 0.61265 0.06674 0.46071 0.0
H1016 H 0.68896 0.98304 0.74029 0.0
H1017 H 0.71342 0.98424 0.65598 0.0
H1018 H 0.64321 0.97121 0.76595 0.0
H1019 H 0.60812 0.99074 0.76542 0.0
C1020 C 0.56225 0.66382 0.55615 0.0
C1021 C 0.53795 0.67483 0.50535 0.0
C1022 C 0.50311 0.63535 0.56458 0.0
C1023 C 0.52812 0.62228 0.60857 0.0
N1024 N 0.57914 0.62863 0.66304 0.0
N1025 N 0.48591 0.66899 0.45532 0.0
C1026 C 0.55707 0.63788 0.60895 0.0
C1027 C 0.50847 0.6602 0.50871 0.0
N1028 N 0.59064 0.6777 0.55185 0.0
N1029 N 0.47388 0.62463 0.57822 0.0
H1030 H 0.48858 0.6873 0.41462 0.0
H1031 H 0.46532 0.65684 0.44719 0.0
H1032 H 0.46935 0.60635 0.61755 0.0
H1033 H 0.45406 0.63533 0.55623 0.0
H1034 H 0.61052 0.66901 0.57884 0.0
H1035 H 0.59466 0.69779 0.51835 0.0
H1036 H 0.59955 0.64061 0.67449 0.0
H1037 H 0.57609 0.60954 0.70086 0.0
C1038 C 0.90228 0.53197 0.46971 0.0
C1039 C 0.87702 0.5461 0.5101 0.0
C1040 C 0.91024 0.55339 0.63182 0.0
C1041 C 0.93494 0.53741 0.59283 0.0
N1042 N 0.95023 0.50395 0.48235 0.0
N1043 N 0.85546 0.56651 0.63363 0.0
C1044 C 0.92975 0.52468 0.51383 0.0
C1045 C 0.8806 0.55566 0.59249 0.0
N1046 N 0.90036 0.52594 0.38812 0.0
N1047 N 0.91533 0.56748 0.70507 0.0
H1048 H 0.83388 0.56912 0.6062 0.0
H1049 H 0.85536 0.57098 0.6959 0.0
H1050 H 0.93607 0.56575 0.73677 0.0
H1051 H 0.89975 0.58254 0.73223 0.0
H1052 H 0.91927 0.51925 0.35319 0.0
H1053 H 0.8806 0.53029 0.35364 0.0
H1054 H 0.94627 0.49154 0.42897 0.0
H1055 H 0.96943 0.49621 0.51432 0.0
loop_
_geom_bond_atom_site_label_1
_geom_bond_atom_site_label_2
_geom_bond_distance
_geom_bond_site_symmetry_2
_ccdc_geom_bond_type
C0 C1 1.384 . S
C0 H13 0.947 . S
C0 C35 1.382 . S
C1 C0 1.384 . S
C1 C2 1.378 . S
C2 C1 1.378 . S
C2 C3 1.378 . S
C2 H14 0.952 . S
C3 C2 1.378 . S
C3 H15 0.950 . S
C3 C34 1.383 . S
H4 C23 0.947 . S
H5 C24 0.946 . S
H6 C26 0.953 . S
H7 C27 0.945 . S
H8 C29 0.952 . S
H9 C30 0.949 1_556 S
H10 C32 0.950 . S
H11 C33 0.948 . S
H12 C35 0.951 . S
H13 C0 0.947 . S
H14 C2 0.952 . S
H15 C3 0.950 . S
N16 C19 1.382 . S
N16 C21 1.363 . S
N17 C19 1.371 . S
N17 C20 1.372 . S
N18 C20 1.361 . S
N18 C21 1.377 . S
C19 N16 1.382 . S
C19 N17 1.371 . S
C19 C22 1.480 . S
C20 N17 1.372 . S
C20 N18 1.361 . S
C20 C28 1.457 . S
C21 N16 1.363 . S
C21 N18 1.377 . S
C21 C34 1.479 . S
C22 C19 1.480 . S
C22 C23 1.383 . S
C22 C27 1.385 . S
C23 H4 0.947 . S
C23 C22 1.383 . S
C23 C24 1.388 . S
C24 H5 0.946 . S
C24 C23 1.388 . S
C24 C25 1.384 . S
C25 C24 1.384 . S
C25 C26 1.377 . S
C26 H6 0.953 . S
C26 C25 1.377 . S
C26 C27 1.369 . S
C27 H7 0.945 . S
C27 C22 1.385 . S
C27 C26 1.369 . S
C28 C20 1.457 . S
C28 C29 1.372 . S
C28 C33 1.364 . S
C29 H8 0.952 . S
C29 C28 1.372 . S
C29 C30 1.389 . S
C30 H9 0.949 1_554 S
C30 C29 1.389 . S
C30 C31 1.387 . S
C31 C30 1.387 . S
C31 C32 1.372 . S
C32 H10 0.950 . S
C32 C31 1.372 . S
C32 C33 1.379 . S
C33 H11 0.948 . S
C33 C28 1.364 . S
C33 C32 1.379 . S
C34 C3 1.383 . S
C34 C21 1.479 . S
C34 C35 1.398 . S
C35 C0 1.382 . S
C35 H12 0.951 . S
C35 C34 1.398 . S
C36 C37 1.384 . S
C36 H49 0.947 . S
C36 C71 1.382 . S
C37 C36 1.384 . S
C37 C38 1.378 . S
C38 C37 1.378 . S
C38 C39 1.378 . S
C38 H50 0.952 . S
C39 C38 1.378 . S
C39 H51 0.950 . S
C39 C70 1.383 . S
H40 C59 0.947 . S
H41 C60 0.946 . S
H42 C62 0.953 . S
H43 C63 0.945 . S
H44 C65 0.952 . S
H45 C66 0.949 1_556 S
H46 C68 0.950 . S
H47 C69 0.948 . S
H48 C71 0.951 . S
H49 C36 0.947 . S
H50 C38 0.952 . S
H51 C39 0.950 . S
N52 C55 1.382 . S
N52 C57 1.363 . S
N53 C55 1.371 . S
N53 C56 1.372 . S
N54 C56 1.361 . S
N54 C57 1.377 . S
C55 N52 1.382 . S
C55 N53 1.371 . S
C55 C58 1.480 . S
C56 N53 1.372 . S
C56 N54 1.361 . S
C56 C64 1.457 . S
C57 N52 1.363 . S
C57 N54 1.377 . S
C57 C70 1.479 . S
C58 C55 1.480 . S
C58 C59 1.383 . S
C58 C63 1.385 . S
C59 H40 0.947 . S
C59 C58 1.383 . S
C59 C60 1.388 . S
C60 H41 0.946 . S
C60 C59 1.388 . S
C60 C61 1.384 . S
C61 C60 1.384 . S
C61 C62 1.377 . S
C62 H42 0.953 . S
C62 C61 1.377 . S
C62 C63 1.369 . S
C63 H43 0.945 . S
C63 C58 1.385 . S
C63 C62 1.369 . S
C64 C56 1.457 . S
C64 C65 1.372 . S
C64 C69 1.364 . S
C65 H44 0.952 . S
C65 C64 1.372 . S
C65 C66 1.389 . S
C66 H45 0.949 1_554 S
C66 C65 1.389 . S
C66 C67 1.387 . S
C67 C66 1.387 . S
C67 C68 1.372 . S
C68 H46 0.950 . S
C68 C67 1.372 . S
C68 C69 1.379 . S
C69 H47 0.948 . S
C69 C64 1.364 . S
C69 C68 1.379 . S
C70 C39 1.383 . S
C70 C57 1.479 . S
C70 C71 1.398 . S
C71 C36 1.382 . S
C71 H48 0.951 . S
C71 C70 1.398 . S
C72 C73 1.384 . S
C72 H85 0.947 . S
C72 C107 1.382 . S
C73 C72 1.384 . S
C73 C74 1.378 . S
C74 C73 1.378 . S
C74 C75 1.378 . S
C74 H86 0.952 . S
C75 C74 1.378 . S
C75 H87 0.950 . S
C75 C106 1.383 . S
H76 C95 0.947 . S
H77 C96 0.946 . S
H78 C98 0.953 . S
H79 C99 0.945 . S
H80 C101 0.952 . S
H81 C102 0.949 1_556 S
H82 C104 0.950 . S
H83 C105 0.948 . S
H84 C107 0.951 . S
H85 C72 0.947 . S
H86 C74 0.952 . S
H87 C75 0.950 . S
N88 C91 1.382 . S
N88 C93 1.363 . S
N89 C91 1.371 . S
N89 C92 1.372 . S
N90 C92 1.361 . S
N90 C93 1.377 . S
C91 N88 1.382 . S
C91 N89 1.371 . S
C91 C94 1.480 . S
C92 N89 1.372 . S
C92 N90 1.361 . S
C92 C100 1.457 . S
C93 N88 1.363 . S
C93 N90 1.377 . S
C93 C106 1.479 . S
C94 C91 1.480 . S
C94 C95 1.383 . S
C94 C99 1.385 . S
C95 H76 0.947 . S
C95 C94 1.383 . S
C95 C96 1.388 . S
C96 H77 0.946 . S
C96 C95 1.388 . S
C96 C97 1.384 . S
C97 C96 1.384 . S
C97 C98 1.377 . S
C98 H78 0.953 . S
C98 C97 1.377 . S
C98 C99 1.369 . S
C99 H79 0.945 . S
C99 C94 1.385 . S
C99 C98 1.369 . S
C100 C92 1.457 . S
C100 C101 1.372 . S
C100 C105 1.364 . S
C101 H80 0.952 . S
C101 C100 1.372 . S
C101 C102 1.389 . S
C102 H81 0.949 1_554 S
C102 C101 1.389 . S
C102 C103 1.387 . S
C103 C102 1.387 . S
C103 C104 1.372 . S
C104 H82 0.950 . S
C104 C103 1.372 . S
C104 C105 1.379 . S
C105 H83 0.948 . S
C105 C100 1.364 . S
C105 C104 1.379 . S
C106 C75 1.383 . S
C106 C93 1.479 . S
C106 C107 1.398 . S
C107 C72 1.382 . S
C107 H84 0.951 . S
C107 C106 1.398 . S
C108 C109 1.384 . S
C108 H121 0.947 . S
C108 C143 1.382 . S
C109 C108 1.384 . S
C109 C110 1.378 . S
C110 C109 1.378 . S
C110 C111 1.378 . S
C110 H122 0.952 1_554 S
C111 C110 1.378 . S
C111 H123 0.950 . S
C111 C142 1.383 . S
H112 C131 0.947 . S
H113 C132 0.946 . S
H114 C134 0.953 . S
H115 C135 0.945 . S
H116 C137 0.952 . S
H117 C138 0.949 . S
H118 C140 0.950 . S
H119 C141 0.948 . S
H120 C143 0.951 . S
H121 C108 0.947 . S
H122 C110 0.952 1_556 S
H123 C111 0.950 . S
N124 C127 1.382 . S
N124 C129 1.363 . S
N125 C127 1.371 . S
N125 C128 1.372 . S
N126 C128 1.361 . S
N126 C129 1.377 . S
C127 N124 1.382 . S
C127 N125 1.371 . S
C127 C130 1.480 . S
C128 N125 1.372 . S
C128 N126 1.361 . S
C128 C136 1.457 . S
C129 N124 1.363 . S
C129 N126 1.377 . S
C129 C142 1.479 . S
C130 C127 1.480 . S
C130 C131 1.383 . S
C130 C135 1.385 . S
C131 H112 0.947 . S
C131 C130 1.383 . S
C131 C132 1.388 . S
C132 H113 0.946 . S
C132 C131 1.388 . S
C132 C133 1.384 . S
C133 C132 1.384 . S
C133 C134 1.377 . S
C134 H114 0.953 . S
C134 C133 1.377 . S
C134 C135 1.369 . S
C135 H115 0.945 . S
C135 C130 1.385 . S
C135 C134 1.369 . S
C136 C128 1.457 . S
C136 C137 1.372 . S
C136 C141 1.364 . S
C137 H116 0.952 . S
C137 C136 1.372 . S
C137 C138 1.389 . S
C138 H117 0.949 . S
C138 C137 1.389 . S
C138 C139 1.387 . S
C139 C138 1.387 . S
C139 C140 1.372 . S
C140 H118 0.950 . S
C140 C139 1.372 . S
C140 C141 1.379 . S
C141 H119 0.948 . S
C141 C136 1.364 . S
C141 C140 1.379 . S
C142 C111 1.383 . S
C142 C129 1.479 . S
C142 C143 1.398 . S
C143 C108 1.382 . S
C143 H120 0.951 . S
C143 C142 1.398 . S
C144 C145 1.384 . S
C144 H157 0.947 . S
C144 C179 1.382 . S
C145 C144 1.384 . S
C145 C146 1.378 . S
C146 C145 1.378 . S
C146 C147 1.378 . S
C146 H158 0.952 . S
C147 C146 1.378 . S
C147 H159 0.950 . S
C147 C178 1.383 . S
H148 C167 0.947 1_556 S
H149 C168 0.946 . S
H150 C170 0.953 . S
H151 C171 0.945 . S
H152 C173 0.952 . S
H153 C174 0.949 . S
H154 C176 0.950 . S
H155 C177 0.948 . S
H156 C179 0.951 . S
H157 C144 0.947 . S
H158 C146 0.952 . S
H159 C147 0.950 . S
N160 C163 1.382 1_556 S
N160 C165 1.363 . S
N161 C163 1.371 . S
N161 C164 1.372 . S
N162 C164 1.361 . S
N162 C165 1.377 1_554 S
C163 N160 1.382 1_554 S
C163 N161 1.371 . S
C163 C166 1.480 . S
C164 N161 1.372 . S
C164 N162 1.361 . S
C164 C172 1.457 . S
C165 N160 1.363 . S
C165 N162 1.377 1_556 S
C165 C178 1.479 . S
C166 C163 1.480 . S
C166 C167 1.383 . S
C166 C171 1.385 . S
C167 H148 0.947 1_554 S
C167 C166 1.383 . S
C167 C168 1.388 . S
C168 H149 0.946 . S
C168 C167 1.388 . S
C168 C169 1.384 . S
C169 C168 1.384 . S
C169 C170 1.377 . S
C170 H150 0.953 . S
C170 C169 1.377 . S
C170 C171 1.369 . S
C171 H151 0.945 . S
C171 C166 1.385 . S
C171 C170 1.369 . S
C172 C164 1.457 . S
C172 C173 1.372 . S
C172 C177 1.364 . S
C173 H152 0.952 . S
C173 C172 1.372 . S
C173 C174 1.389 . S
C174 H153 0.949 . S
C174 C173 1.389 . S
C174 C175 1.387 . S
C175 C174 1.387 . S
C175 C176 1.372 . S
C176 H154 0.950 . S
C176 C175 1.372 . S
C176 C177 1.379 . S
C177 H155 0.948 . S
C177 C172 1.364 . S
C177 C176 1.379 . S
C178 C147 1.383 . S
C178 C165 1.479 . S
C178 C179 1.398 . S
C179 C144 1.382 . S
C179 H156 0.951 . S
C179 C178 1.398 . S
C180 C181 1.384 . S
C180 H193 0.947 . S
C180 C215 1.382 . S
C181 C180 1.384 . S
C181 C182 1.378 . S
C182 C181 1.378 . S
C182 C183 1.378 . S
C182 H194 0.952 . S
C183 C182 1.378 . S
C183 H195 0.950 . S
C183 C214 1.383 . S
H184 C203 0.947 1_556 S
H185 C204 0.946 . S
H186 C206 0.953 . S
H187 C207 0.945 . S
H188 C209 0.952 . S
H189 C210 0.949 . S
H190 C212 0.950 . S
H191 C213 0.948 . S
H192 C215 0.951 . S
H193 C180 0.947 . S
H194 C182 0.952 . S
H195 C183 0.950 . S
N196 C199 1.382 1_556 S
N196 C201 1.363 . S
N197 C199 1.371 . S
N197 C200 1.372 . S
N198 C200 1.361 . S
N198 C201 1.377 1_554 S
C199 N196 1.382 1_554 S
C199 N197 1.371 . S
C199 C202 1.480 . S
C200 N197 1.372 . S
C200 N198 1.361 . S
C200 C208 1.457 . S
C201 N196 1.363 . S
C201 N198 1.377 1_556 S
C201 C214 1.479 . S
C202 C199 1.480 . S
C202 C203 1.383 . S
C202 C207 1.385 . S
C203 H184 0.947 1_554 S
C203 C202 1.383 . S
C203 C204 1.388 . S
C204 H185 0.946 . S
C204 C203 1.388 . S
C204 C205 1.384 . S
C205 C204 1.384 . S
C205 C206 1.377 . S
C206 H186 0.953 . S
C206 C205 1.377 . S
C206 C207 1.369 . S
C207 H187 0.945 . S
C207 C202 1.385 . S
C207 C206 1.369 . S
C208 C200 1.457 . S
C208 C209 1.372 . S
C208 C213 1.364 . S
C209 H188 0.952 . S
C209 C208 1.372 . S
C209 C210 1.389 . S
C210 H189 0.949 . S
C210 C209 1.389 . S
C210 C211 1.387 . S
C211 C210 1.387 . S
C211 C212 1.372 . S
C212 H190 0.950 . S
C212 C211 1.372 . S
C212 C213 1.379 . S
C213 H191 0.948 . S
C213 C208 1.364 . S
C213 C212 1.379 . S
C214 C183 1.383 . S
C214 C201 1.479 . S
C214 C215 1.398 . S
C215 C180 1.382 . S
C215 H192 0.951 . S
C215 C214 1.398 . S
C216 C217 1.384 . S
C216 H229 0.947 . S
C216 C251 1.382 . S
C217 C216 1.384 . S
C217 C218 1.378 . S
C218 C217 1.378 . S
C218 C219 1.378 . S
C218 H230 0.952 . S
C219 C218 1.378 . S
C219 H231 0.950 . S
C219 C250 1.383 . S
H220 C239 0.947 1_556 S
H221 C240 0.946 . S
H222 C242 0.953 . S
H223 C243 0.945 . S
H224 C245 0.952 . S
H225 C246 0.949 . S
H226 C248 0.950 . S
H227 C249 0.948 . S
H228 C251 0.951 . S
H229 C216 0.947 . S
H230 C218 0.952 . S
H231 C219 0.950 . S
N232 C235 1.382 1_556 S
N232 C237 1.363 . S
N233 C235 1.371 . S
N233 C236 1.372 . S
N234 C236 1.361 . S
N234 C237 1.377 1_554 S
C235 N232 1.382 1_554 S
C235 N233 1.371 . S
C235 C238 1.480 . S
C236 N233 1.372 . S
C236 N234 1.361 . S
C236 C244 1.457 . S
C237 N232 1.363 . S
C237 N234 1.377 1_556 S
C237 C250 1.479 . S
C238 C235 1.480 . S
C238 C239 1.383 . S
C238 C243 1.385 . S
C239 H220 0.947 1_554 S
C239 C238 1.383 . S
C239 C240 1.388 . S
C240 H221 0.946 . S
C240 C239 1.388 . S
C240 C241 1.384 . S
C241 C240 1.384 . S
C241 C242 1.377 . S
C242 H222 0.953 . S
C242 C241 1.377 . S
C242 C243 1.369 . S
C243 H223 0.945 . S
C243 C238 1.385 . S
C243 C242 1.369 . S
C244 C236 1.457 . S
C244 C245 1.372 . S
C244 C249 1.364 . S
C245 H224 0.952 . S
C245 C244 1.372 . S
C245 C246 1.389 . S
C246 H225 0.949 . S
C246 C245 1.389 . S
C246 C247 1.387 . S
C247 C246 1.387 . S
C247 C248 1.372 . S
C248 H226 0.950 . S
C248 C247 1.372 . S
C248 C249 1.379 . S
C249 H227 0.948 . S
C249 C244 1.364 . S
C249 C248 1.379 . S
C250 C219 1.383 . S
C250 C237 1.479 . S
C250 C251 1.398 . S
C251 C216 1.382 . S
C251 H228 0.951 . S
C251 C250 1.398 . S
C252 C253 1.384 . S
C252 H265 0.947 . S
C252 C287 1.382 . S
C253 C252 1.384 . S
C253 C254 1.378 . S
C254 C253 1.378 . S
C254 C255 1.378 . S
C254 H266 0.952 . S
C255 C254 1.378 . S
C255 H267 0.950 . S
C255 C286 1.383 . S
H256 C275 0.947 . S
H257 C276 0.946 . S
H258 C278 0.953 1_556 S
H259 C279 0.945 1_556 S
H260 C281 0.952 . S
H261 C282 0.949 . S
H262 C284 0.950 . S
H263 C285 0.948 . S
H264 C287 0.951 . S
H265 C252 0.947 . S
H266 C254 0.952 . S
H267 C255 0.950 . S
N268 C271 1.382 . S
N268 C273 1.363 . S
N269 C271 1.371 1_556 S
N269 C272 1.372 . S
N270 C272 1.361 1_554 S
N270 C273 1.377 . S
C271 N268 1.382 . S
C271 N269 1.371 1_554 S
C271 C274 1.480 . S
C272 N269 1.372 . S
C272 N270 1.361 1_556 S
C272 C280 1.457 . S
C273 N268 1.363 . S
C273 N270 1.377 . S
C273 C286 1.479 . S
C274 C271 1.480 . S
C274 C275 1.383 . S
C274 C279 1.385 . S
C275 H256 0.947 . S
C275 C274 1.383 . S
C275 C276 1.388 . S
C276 H257 0.946 . S
C276 C275 1.388 . S
C276 C277 1.384 . S
C277 C276 1.384 . S
C277 C278 1.377 . S
C278 H258 0.953 1_554 S
C278 C277 1.377 . S
C278 C279 1.369 . S
C279 H259 0.945 1_554 S
C279 C274 1.385 . S
C279 C278 1.369 . S
C280 C272 1.457 . S
C280 C281 1.372 . S
C280 C285 1.364 . S
C281 H260 0.952 . S
C281 C280 1.372 . S
C281 C282 1.389 . S
C282 H261 0.949 . S
C282 C281 1.389 . S
C282 C283 1.387 . S
C283 C282 1.387 . S
C283 C284 1.372 . S
C284 H262 0.950 . S
C284 C283 1.372 . S
C284 C285 1.379 . S
C285 H263 0.948 . S
C285 C280 1.364 . S
C285 C284 1.379 . S
C286 C255 1.383 . S
C286 C273 1.479 . S
C286 C287 1.398 . S
C287 C252 1.382 . S
C287 H264 0.951 . S
C287 C286 1.398 . S
Tb288 N317 2.617 . S
Tb288 N323 2.572 . S
Tb288 O332 2.465 . S
Tb288 O333 2.387 1_545 S
Tb288 O335 2.428 . S
Tb288 O336 2.308 1_655 S
Tb288 O340 2.349 1_655 S
Tb288 O343 2.393 . S
Tb288 C352 2.802 . S
C289 N290 1.397 . S
C289 C292 1.416 . S
C289 C296 1.424 . S
N290 C289 1.397 . S
N290 C293 1.331 1_545 S
N290 Tb299 2.608 1_545 S
C291 C293 1.390 1_545 S
C291 C294 1.339 . S
C291 H311 0.930 . S
C292 C289 1.416 . S
C292 C294 1.416 . S
C292 C298 1.448 . S
C293 N290 1.331 1_565 S
C293 C291 1.390 1_565 S
C293 H304 0.930 . S
C294 C291 1.339 . S
C294 C292 1.416 . S
C294 H315 0.930 . S
C295 C296 1.413 . S
C295 C297 1.427 1_556 S
C295 C301 1.416 1_556 S
C296 C289 1.424 . S
C296 C295 1.413 . S
C296 N300 1.361 . S
C297 C295 1.427 1_554 S
C297 C298 1.328 1_554 S
C297 H312 0.929 . S
C298 C292 1.448 . S
C298 C297 1.328 1_556 S
C298 H313 0.930 . S
Tb299 N290 2.608 1_565 S
Tb299 N300 2.572 1_565 S
Tb299 O334 2.349 . S
Tb299 O337 2.393 . S
Tb299 O338 2.465 . S
Tb299 O339 2.387 1_565 S
Tb299 O341 2.428 . S
Tb299 O342 2.307 1_465 S
Tb299 C363 2.802 . S
N300 C296 1.361 . S
N300 Tb299 2.572 1_545 S
N300 C302 1.340 . S
C301 C295 1.416 1_554 S
C301 C303 1.332 . S
C301 H309 0.931 . S
C302 N300 1.340 . S
C302 C303 1.407 1_556 S
C302 H308 0.930 . S
C303 C301 1.332 . S
C303 C302 1.407 1_554 S
C303 H305 0.929 . S
H304 C293 0.930 . S
H305 C303 0.929 . S
H306 C321 0.930 . S
H307 C328 0.929 1_455 S
H308 C302 0.930 . S
H309 C301 0.931 . S
H310 C324 0.930 1_455 S
H311 C291 0.930 . S
H312 C297 0.929 . S
H313 C298 0.930 . S
H314 C319 0.930 . S
H315 C294 0.930 . S
H316 C327 0.931 . S
N317 Tb288 2.617 . S
N317 C318 1.368 1_545 S
N317 C321 1.334 . S
C318 N317 1.368 1_565 S
C318 C320 1.425 . S
C318 C326 1.426 . S
C319 H314 0.930 . S
C319 C321 1.390 . S
C319 C322 1.339 1_545 S
C320 C318 1.425 . S
C320 C322 1.416 . S
C320 C353 1.448 . S
C321 H306 0.930 . S
C321 N317 1.334 . S
C321 C319 1.390 . S
C322 C319 1.339 1_565 S
C322 C320 1.416 . S
C322 H329 0.930 . S
N323 Tb288 2.572 . S
N323 C324 1.340 . S
N323 C326 1.361 1_545 S
C324 H310 0.930 1_655 S
C324 N323 1.340 . S
C324 C328 1.407 1_545 S
C325 C326 1.413 . S
C325 C327 1.416 . S
C325 C354 1.427 . S
C326 C318 1.426 . S
C326 N323 1.361 1_565 S
C326 C325 1.413 . S
C327 H316 0.931 . S
C327 C325 1.416 . S
C327 C328 1.332 . S
C328 H307 0.929 1_655 S
C328 C324 1.407 1_565 S
C328 C327 1.332 . S
H329 C322 0.930 . S
H330 C353 0.930 . S
H331 C354 0.929 . S
O332 Tb288 2.465 . S
O332 C352 1.264 . S
O333 Tb288 2.387 1_565 S
O333 C344 1.264 . S
O334 Tb299 2.349 . S
O334 C344 1.243 1_455 S
O335 Tb288 2.428 . S
O335 C352 1.256 . S
O336 Tb288 2.308 1_455 S
O336 C351 1.266 . S
O337 Tb299 2.393 . S
O337 C351 1.248 1_565 S
O338 Tb299 2.465 . S
O338 C363 1.264 . S
O339 Tb299 2.387 1_545 S
O339 C355 1.264 . S
O340 Tb288 2.349 1_455 S
O340 C355 1.243 . S
O341 Tb299 2.428 . S
O341 C363 1.256 . S
O342 Tb299 2.307 1_645 S
O342 C362 1.267 . S
O343 Tb288 2.393 . S
O343 C362 1.248 . S
C344 O333 1.264 . S
C344 O334 1.243 1_655 S
C345 C348 1.399 . S
C345 C350 1.383 . S
C345 C352 1.496 . S
C346 C347 1.399 . S
C346 C350 1.389 . S
C347 C346 1.399 . S
C347 C349 1.380 . S
C347 H364 0.929 . S
C348 C345 1.399 . S
C348 C349 1.392 . S
C348 H365 0.929 . S
C349 C347 1.380 . S
C349 C348 1.392 . S
C349 H366 0.929 . S
C350 C345 1.383 . S
C350 C346 1.389 . S
C350 H367 0.931 1_655 S
C351 O336 1.266 . S
C351 O337 1.248 1_545 S
C352 Tb288 2.802 . S
C352 O332 1.264 . S
C352 O335 1.256 . S
C352 C345 1.496 . S
C353 C320 1.448 . S
C353 H330 0.930 . S
C353 C354 1.328 . S
C354 C325 1.427 . S
C354 H331 0.929 . S
C354 C353 1.328 . S
C355 O339 1.264 . S
C355 O340 1.243 . S
C356 C359 1.399 . S
C356 C360 1.383 . S
C356 C363 1.496 . S
C357 C358 1.399 . S
C357 C360 1.389 . S
C358 C357 1.399 . S
C358 C361 1.380 . S
C358 H368 0.929 . S
C359 C356 1.399 . S
C359 C361 1.392 . S
C359 H369 0.929 . S
C360 C356 1.383 . S
C360 C357 1.389 . S
C360 H370 0.931 . S
C361 C358 1.380 . S
C361 C359 1.392 . S
C361 H371 0.929 . S
C362 O342 1.267 . S
C362 O343 1.248 . S
C363 Tb299 2.802 . S
C363 O338 1.264 . S
C363 O341 1.256 . S
C363 C356 1.496 . S
H364 C347 0.929 . S
H365 C348 0.929 . S
H366 C349 0.929 . S
H367 C350 0.931 1_455 S
H368 C358 0.929 . S
H369 C359 0.929 . S
H370 C360 0.931 . S
H371 C361 0.929 . S
Tb372 N401 2.617 . S
Tb372 N407 2.572 . S
Tb372 O416 2.465 . S
Tb372 O417 2.387 . S
Tb372 O419 2.428 . S
Tb372 O420 2.308 . S
Tb372 O424 2.349 1_545 S
Tb372 O427 2.393 . S
Tb372 C436 2.802 . S
C373 N374 1.379 . S
C373 C376 1.416 . S
C373 C380 1.424 . S
N374 C373 1.379 . S
N374 C377 1.334 . S
N374 Tb383 2.617 . S
C375 C377 1.390 . S
C375 C378 1.339 . S
C375 H395 0.930 . S
C376 C373 1.416 . S
C376 C378 1.416 . S
C376 C382 1.448 . S
C377 N374 1.334 . S
C377 C375 1.390 . S
C377 H388 0.930 . S
C378 C375 1.339 . S
C378 C376 1.416 . S
C378 H399 0.930 . S
C379 C380 1.413 . S
C379 C381 1.427 . S
C379 C385 1.416 . S
C380 C373 1.424 . S
C380 C379 1.413 . S
C380 N384 1.361 . S
C381 C379 1.427 . S
C381 C382 1.328 . S
C381 H396 0.929 . S
C382 C376 1.448 . S
C382 C381 1.328 . S
C382 H397 0.930 . S
Tb383 N374 2.617 . S
Tb383 N384 2.572 . S
Tb383 O418 2.349 1_565 S
Tb383 O421 2.393 . S
Tb383 O422 2.465 . S
Tb383 O423 2.387 . S
Tb383 O425 2.428 . S
Tb383 O426 2.308 1_565 S
Tb383 C447 2.802 . S
N384 C380 1.361 . S
N384 Tb383 2.572 . S
N384 C386 1.340 . S
C385 C379 1.416 . S
C385 C387 1.332 . S
C385 H393 0.931 . S
C386 N384 1.340 . S
C386 C387 1.407 . S
C386 H392 0.930 . S
C387 C385 1.332 . S
C387 C386 1.407 . S
C387 H389 0.929 . S
H388 C377 0.930 . S
H389 C387 0.929 . S
H390 C405 0.930 . S
H391 C412 0.929 . S
H392 C386 0.930 . S
H393 C385 0.931 . S
H394 C408 0.930 . S
H395 C375 0.930 . S
H396 C381 0.929 . S
H397 C382 0.930 . S
H398 C403 0.930 . S
H399 C378 0.930 . S
H400 C411 0.931 . S
N401 Tb372 2.617 . S
N401 C402 1.379 . S
N401 C405 1.334 . S
C402 N401 1.379 . S
C402 C404 1.416 . S
C402 C410 1.424 . S
C403 H398 0.930 . S
C403 C405 1.390 . S
C403 C406 1.339 . S
C404 C402 1.416 . S
C404 C406 1.416 . S
C404 C437 1.448 . S
C405 H390 0.930 . S
C405 N401 1.334 . S
C405 C403 1.390 . S
C406 C403 1.339 . S
C406 C404 1.416 . S
C406 H413 0.930 . S
N407 Tb372 2.572 . S
N407 C408 1.340 . S
N407 C410 1.361 . S
C408 H394 0.930 . S
C408 N407 1.340 . S
C408 C412 1.407 . S
C409 C410 1.413 . S
C409 C411 1.416 . S
C409 C438 1.427 . S
C410 C402 1.424 . S
C410 N407 1.361 . S
C410 C409 1.413 . S
C411 H400 0.931 . S
C411 C409 1.416 . S
C411 C412 1.332 . S
C412 H391 0.929 . S
C412 C408 1.407 . S
C412 C411 1.332 . S
H413 C406 0.930 . S
H414 C437 0.930 . S
H415 C438 0.929 . S
O416 Tb372 2.465 . S
O416 C436 1.264 . S
O417 Tb372 2.387 . S
O417 C428 1.264 . S
O418 Tb383 2.349 1_545 S
O418 C428 1.243 . S
O419 Tb372 2.428 . S
O419 C436 1.256 . S
O420 Tb372 2.308 . S
O420 C435 1.266 1_545 S
O421 Tb383 2.393 . S
O421 C435 1.248 . S
O422 Tb383 2.465 . S
O422 C447 1.264 . S
O423 Tb383 2.387 . S
O423 C439 1.264 . S
O424 Tb372 2.349 1_565 S
O424 C439 1.243 . S
O425 Tb383 2.428 . S
O425 C447 1.256 . S
O426 Tb383 2.308 1_545 S
O426 C446 1.266 . S
O427 Tb372 2.393 . S
O427 C446 1.248 . S
C428 O417 1.264 . S
C428 O418 1.243 . S
C429 C432 1.399 1_556 S
C429 C434 1.383 . S
C429 C436 1.496 . S
C430 C431 1.399 1_556 S
C430 C434 1.389 . S
C431 C430 1.399 1_554 S
C431 C433 1.380 . S
C431 H448 0.929 . S
C432 C429 1.399 1_554 S
C432 C433 1.392 . S
C432 H449 0.929 . S
C433 C431 1.380 . S
C433 C432 1.392 . S
C433 H450 0.929 . S
C434 C429 1.383 . S
C434 C430 1.389 . S
C434 H451 0.931 . S
C435 O420 1.266 1_565 S
C435 O421 1.248 . S
C436 Tb372 2.802 . S
C436 O416 1.264 . S
C436 O419 1.256 . S
C436 C429 1.496 . S
C437 C404 1.448 . S
C437 H414 0.930 . S
C437 C438 1.328 . S
C438 C409 1.427 . S
C438 H415 0.929 . S
C438 C437 1.328 . S
C439 O423 1.264 . S
C439 O424 1.243 . S
C440 C443 1.399 . S
C440 C444 1.383 . S
C440 C447 1.496 . S
C441 C442 1.399 . S
C441 C444 1.389 . S
C442 C441 1.399 . S
C442 C445 1.380 . S
C442 H452 0.929 . S
C443 C440 1.399 . S
C443 C445 1.392 . S
C443 H453 0.929 . S
C444 C440 1.383 . S
C444 C441 1.389 . S
C444 H454 0.931 . S
C445 C442 1.380 . S
C445 C443 1.392 . S
C445 H455 0.929 . S
C446 O426 1.266 . S
C446 O427 1.248 . S
C447 Tb383 2.802 . S
C447 O422 1.264 . S
C447 O425 1.256 . S
C447 C440 1.496 . S
H448 C431 0.929 . S
H449 C432 0.929 . S
H450 C433 0.929 . S
H451 C434 0.931 . S
H452 C442 0.929 . S
H453 C443 0.929 . S
H454 C444 0.931 . S
H455 C445 0.929 . S
Tb456 N485 2.617 . S
Tb456 N491 2.572 . S
Tb456 O500 2.465 . S
Tb456 O501 2.387 . S
Tb456 O503 2.428 . S
Tb456 O504 2.308 . S
Tb456 O508 2.349 . S
Tb456 O511 2.393 . S
Tb456 C520 2.802 . S
C457 N458 1.379 . S
C457 C460 1.416 . S
C457 C464 1.424 . S
N458 C457 1.379 . S
N458 C461 1.334 . S
N458 Tb467 2.617 . S
C459 C461 1.390 . S
C459 C462 1.339 . S
C459 H479 0.930 . S
C460 C457 1.416 . S
C460 C462 1.416 . S
C460 C466 1.448 . S
C461 N458 1.334 . S
C461 C459 1.390 . S
C461 H472 0.930 . S
C462 C459 1.339 . S
C462 C460 1.416 . S
C462 H483 0.930 . S
C463 C464 1.413 . S
C463 C465 1.427 1_556 S
C463 C469 1.416 1_556 S
C464 C457 1.424 . S
C464 C463 1.413 . S
C464 N468 1.361 . S
C465 C463 1.427 1_554 S
C465 C466 1.328 1_554 S
C465 H480 0.929 . S
C466 C460 1.448 . S
C466 C465 1.328 1_556 S
C466 H481 0.930 . S
Tb467 N458 2.617 . S
Tb467 N468 2.572 . S
Tb467 O502 2.349 . S
Tb467 O505 2.393 . S
Tb467 O506 2.465 . S
Tb467 O507 2.387 . S
Tb467 O509 2.428 . S
Tb467 O510 2.308 . S
Tb467 C531 2.802 . S
N468 C464 1.361 . S
N468 Tb467 2.572 . S
N468 C470 1.340 . S
C469 C463 1.416 1_554 S
C469 C471 1.332 . S
C469 H477 0.931 . S
C470 N468 1.340 . S
C470 C471 1.407 1_556 S
C470 H476 0.930 . S
C471 C469 1.332 . S
C471 C470 1.407 1_554 S
C471 H473 0.929 . S
H472 C461 0.930 . S
H473 C471 0.929 . S
H474 C489 0.930 . S
H475 C496 0.929 . S
H476 C470 0.930 . S
H477 C469 0.931 . S
H478 C492 0.930 . S
H479 C459 0.930 . S
H480 C465 0.929 . S
H481 C466 0.930 . S
H482 C487 0.930 . S
H483 C462 0.930 . S
H484 C495 0.931 . S
N485 Tb456 2.617 . S
N485 C486 1.379 . S
N485 C489 1.334 . S
C486 N485 1.379 . S
C486 C488 1.416 . S
C486 C494 1.424 . S
C487 H482 0.930 . S
C487 C489 1.390 . S
C487 C490 1.339 . S
C488 C486 1.416 . S
C488 C490 1.416 . S
C488 C521 1.448 . S
C489 H474 0.930 . S
C489 N485 1.334 . S
C489 C487 1.390 . S
C490 C487 1.339 . S
C490 C488 1.416 . S
C490 H497 0.930 . S
N491 Tb456 2.572 . S
N491 C492 1.340 . S
N491 C494 1.361 . S
C492 H478 0.930 . S
C492 N491 1.340 . S
C492 C496 1.407 . S
C493 C494 1.413 . S
C493 C495 1.416 . S
C493 C522 1.427 . S
C494 C486 1.424 . S
C494 N491 1.361 . S
C494 C493 1.413 . S
C495 H484 0.931 . S
C495 C493 1.416 . S
C495 C496 1.332 . S
C496 H475 0.929 . S
C496 C492 1.407 . S
C496 C495 1.332 . S
H497 C490 0.930 . S
H498 C521 0.930 . S
H499 C522 0.929 . S
O500 Tb456 2.465 . S
O500 C520 1.264 . S
O501 Tb456 2.387 . S
O501 C512 1.264 . S
O502 Tb467 2.349 . S
O502 C512 1.243 . S
O503 Tb456 2.428 . S
O503 C520 1.256 . S
O504 Tb456 2.308 . S
O504 C519 1.266 . S
O505 Tb467 2.393 . S
O505 C519 1.248 . S
O506 Tb467 2.465 . S
O506 C531 1.264 . S
O507 Tb467 2.387 . S
O507 C523 1.264 . S
O508 Tb456 2.349 . S
O508 C523 1.243 . S
O509 Tb467 2.428 . S
O509 C531 1.256 . S
O510 Tb467 2.308 . S
O510 C530 1.266 . S
O511 Tb456 2.393 . S
O511 C530 1.248 . S
C512 O501 1.264 . S
C512 O502 1.243 . S
C513 C516 1.399 . S
C513 C518 1.383 . S
C513 C520 1.496 . S
C514 C515 1.399 . S
C514 C518 1.389 . S
C515 C514 1.399 . S
C515 C517 1.380 . S
C515 H532 0.929 . S
C516 C513 1.399 . S
C516 C517 1.392 . S
C516 H533 0.929 . S
C517 C515 1.380 . S
C517 C516 1.392 . S
C517 H534 0.929 . S
C518 C513 1.383 . S
C518 C514 1.389 . S
C518 H535 0.931 . S
C519 O504 1.266 . S
C519 O505 1.248 . S
C520 Tb456 2.802 . S
C520 O500 1.264 . S
C520 O503 1.256 . S
C520 C513 1.496 . S
C521 C488 1.448 . S
C521 H498 0.930 . S
C521 C522 1.328 . S
C522 C493 1.427 . S
C522 H499 0.929 . S
C522 C521 1.328 . S
C523 O507 1.264 . S
C523 O508 1.243 . S
C524 C527 1.399 . S
C524 C528 1.383 . S
C524 C531 1.496 . S
C525 C526 1.399 . S
C525 C528 1.389 . S
C526 C525 1.399 . S
C526 C529 1.380 . S
C526 H536 0.929 . S
C527 C524 1.399 . S
C527 C529 1.392 . S
C527 H537 0.929 . S
C528 C524 1.383 . S
C528 C525 1.389 . S
C528 H538 0.931 . S
C529 C526 1.380 . S
C529 C527 1.392 . S
C529 H539 0.929 . S
C530 O510 1.266 . S
C530 O511 1.248 . S
C531 Tb467 2.802 . S
C531 O506 1.264 . S
C531 O509 1.256 . S
C531 C524 1.496 . S
H532 C515 0.929 . S
H533 C516 0.929 . S
H534 C517 0.929 . S
H535 C518 0.931 . S
H536 C526 0.929 . S
H537 C527 0.929 . S
H538 C528 0.931 . S
H539 C529 0.929 . S
Tb540 N569 2.617 . S
Tb540 N575 2.572 . S
Tb540 O584 2.465 . S
Tb540 O585 2.387 1_455 S
Tb540 O587 2.428 . S
Tb540 O588 2.308 . S
Tb540 O592 2.349 . S
Tb540 O595 2.393 . S
Tb540 C604 2.802 . S
C541 N542 1.379 1_455 S
C541 C544 1.416 . S
C541 C548 1.424 . S
N542 C541 1.379 1_655 S
N542 C545 1.334 . S
N542 Tb551 2.617 . S
C543 C545 1.390 1_455 S
C543 C546 1.339 . S
C543 H563 0.930 . S
C544 C541 1.416 . S
C544 C546 1.416 . S
C544 C550 1.448 . S
C545 N542 1.334 . S
C545 C543 1.390 1_655 S
C545 H556 0.930 . S
C546 C543 1.339 . S
C546 C544 1.416 . S
C546 H567 0.930 . S
C547 C548 1.413 . S
C547 C549 1.427 1_556 S
C547 C553 1.416 1_556 S
C548 C541 1.424 . S
C548 C547 1.413 . S
C548 N552 1.361 . S
C549 C547 1.427 1_554 S
C549 C550 1.328 1_554 S
C549 H564 0.929 . S
C550 C544 1.448 . S
C550 C549 1.328 1_556 S
C550 H565 0.930 . S
Tb551 N542 2.617 . S
Tb551 N552 2.572 1_655 S
Tb551 O586 2.349 . S
Tb551 O589 2.393 . S
Tb551 O590 2.465 . S
Tb551 O591 2.387 1_655 S
Tb551 O593 2.428 . S
Tb551 O594 2.308 . S
Tb551 C615 2.802 . S
N552 C548 1.361 . S
N552 Tb551 2.572 1_455 S
N552 C554 1.340 . S
C553 C547 1.416 1_554 S
C553 C555 1.332 . S
C553 H561 0.931 . S
C554 N552 1.340 . S
C554 C555 1.407 1_556 S
C554 H560 0.927 1_455 S
C555 C553 1.332 . S
C555 C554 1.407 1_554 S
C555 H557 0.929 . S
H556 C545 0.930 . S
H557 C555 0.929 . S
H558 C573 0.930 . S
H559 C580 0.929 . S
H560 C554 0.927 1_655 S
H561 C553 0.931 . S
H562 C576 0.930 . S
H563 C543 0.930 . S
H564 C549 0.929 . S
H565 C550 0.930 . S
H566 C571 0.930 . S
H567 C546 0.930 . S
H568 C579 0.931 . S
N569 Tb540 2.617 . S
N569 C570 1.366 1_455 S
N569 C573 1.334 . S
C570 N569 1.366 1_655 S
C570 C572 1.426 . S
C570 C578 1.427 . S
C571 H566 0.930 . S
C571 C573 1.390 . S
C571 C574 1.339 1_455 S
C572 C570 1.426 . S
C572 C574 1.416 . S
C572 C605 1.448 . S
C573 H558 0.930 . S
C573 N569 1.334 . S
C573 C571 1.390 . S
C574 C571 1.339 1_655 S
C574 C572 1.416 . S
C574 H581 0.930 . S
N575 Tb540 2.572 . S
N575 C576 1.340 . S
N575 C578 1.361 1_455 S
C576 H562 0.930 . S
C576 N575 1.340 . S
C576 C580 1.407 1_455 S
C577 C578 1.413 . S
C577 C579 1.416 . S
C577 C606 1.427 . S
C578 C570 1.427 . S
C578 N575 1.361 1_655 S
C578 C577 1.413 . S
C579 H568 0.931 . S
C579 C577 1.416 . S
C579 C580 1.332 . S
C580 H559 0.929 . S
C580 C576 1.407 1_655 S
C580 C579 1.332 . S
H581 C574 0.930 . S
H582 C605 0.930 . S
H583 C606 0.929 . S
O584 Tb540 2.465 . S
O584 C604 1.264 . S
O585 Tb540 2.387 1_655 S
O585 C596 1.264 . S
O586 Tb551 2.349 . S
O586 C596 1.243 . S
O587 Tb540 2.428 . S
O587 C604 1.256 . S
O588 Tb540 2.308 . S
O588 C603 1.266 . S
O589 Tb551 2.393 . S
O589 C603 1.248 1_655 S
O590 Tb551 2.465 . S
O590 C615 1.264 . S
O591 Tb551 2.387 1_455 S
O591 C607 1.264 . S
O592 Tb540 2.349 . S
O592 C607 1.243 . S
O593 Tb551 2.428 . S
O593 C615 1.256 . S
O594 Tb551 2.308 . S
O594 C614 1.266 1_655 S
O595 Tb540 2.393 . S
O595 C614 1.248 . S
C596 O585 1.264 . S
C596 O586 1.243 . S
C597 C600 1.399 . S
C597 C602 1.383 . S
C597 C604 1.496 . S
C598 C599 1.399 . S
C598 C602 1.389 . S
C599 C598 1.399 . S
C599 C601 1.380 . S
C599 H616 0.929 . S
C600 C597 1.399 . S
C600 C601 1.392 . S
C600 H617 0.929 . S
C601 C599 1.380 . S
C601 C600 1.392 . S
C601 H618 0.929 . S
C602 C597 1.383 . S
C602 C598 1.389 . S
C602 H619 0.931 . S
C603 O588 1.266 . S
C603 O589 1.248 1_455 S
C604 Tb540 2.802 . S
C604 O584 1.264 . S
C604 O587 1.256 . S
C604 C597 1.496 . S
C605 C572 1.448 . S
C605 H582 0.930 . S
C605 C606 1.328 . S
C606 C577 1.427 . S
C606 H583 0.929 . S
C606 C605 1.328 . S
C607 O591 1.264 . S
C607 O592 1.243 . S
C608 C611 1.399 . S
C608 C612 1.383 . S
C608 C615 1.496 . S
C609 C610 1.399 . S
C609 C612 1.389 . S
C610 C609 1.399 . S
C610 C613 1.380 . S
C610 H620 0.929 . S
C611 C608 1.399 . S
C611 C613 1.392 . S
C611 H621 0.929 . S
C612 C608 1.383 . S
C612 C609 1.389 . S
C612 H622 0.931 . S
C613 C610 1.380 . S
C613 C611 1.392 . S
C613 H623 0.929 . S
C614 O594 1.266 1_455 S
C614 O595 1.248 . S
C615 Tb551 2.802 . S
C615 O590 1.264 . S
C615 O593 1.256 . S
C615 C608 1.496 . S
H616 C599 0.929 . S
H617 C600 0.929 . S
H618 C601 0.929 . S
H619 C602 0.931 . S
H620 C610 0.929 . S
H621 C611 0.929 . S
H622 C612 0.931 . S
H623 C613 0.929 . S
C624 C625 1.363 . S
C624 C630 1.379 . S
C624 N632 1.356 . S
C625 C624 1.363 . S
C625 C631 1.363 . S
C626 C627 1.363 . S
C626 C631 1.379 . S
C626 N633 1.356 1_545 S
C627 C626 1.363 . S
C627 C630 1.363 . S
N628 C630 1.356 . S
N628 H640 0.984 . S
N628 H641 0.985 . S
N629 C631 1.356 1_565 S
N629 H634 0.984 1_565 S
N629 H635 0.985 . S
C630 C624 1.379 . S
C630 C627 1.363 . S
C630 N628 1.356 . S
C631 C625 1.363 . S
C631 C626 1.379 . S
C631 N629 1.356 1_545 S
N632 C624 1.356 . S
N632 H638 0.984 . S
N632 H639 0.984 . S
N633 C626 1.356 1_565 S
N633 H636 0.984 . S
N633 H637 0.985 . S
H634 N629 0.984 1_545 S
H635 N629 0.985 . S
H636 N633 0.984 . S
H637 N633 0.985 . S
H638 N632 0.984 . S
H639 N632 0.984 . S
H640 N628 0.984 . S
H641 N628 0.985 . S
C642 C643 1.363 . S
C642 C648 1.379 . S
C642 N650 1.356 . S
C643 C642 1.363 . S
C643 C649 1.363 . S
C644 C645 1.363 . S
C644 C649 1.379 . S
C644 N651 1.356 . S
C645 C644 1.363 . S
C645 C648 1.363 . S
N646 C648 1.356 . S
N646 H658 0.984 . S
N646 H659 0.985 . S
N647 C649 1.356 . S
N647 H652 0.984 . S
N647 H653 0.985 . S
C648 C642 1.379 . S
C648 C645 1.363 . S
C648 N646 1.356 . S
C649 C643 1.363 . S
C649 C644 1.379 . S
C649 N647 1.356 . S
N650 C642 1.356 . S
N650 H656 0.984 . S
N650 H657 0.984 . S
N651 C644 1.356 . S
N651 H654 0.984 . S
N651 H655 0.985 . S
H652 N647 0.984 . S
H653 N647 0.985 . S
H654 N651 0.984 . S
H655 N651 0.985 . S
H656 N650 0.984 . S
H657 N650 0.984 . S
H658 N646 0.984 . S
H659 N646 0.985 . S
C660 C661 1.363 . S
C660 C666 1.379 . S
C660 N668 1.356 . S
C661 C660 1.363 . S
C661 C667 1.363 . S
C662 C663 1.363 . S
C662 C667 1.379 . S
C662 N669 1.356 . S
C663 C662 1.363 . S
C663 C666 1.363 . S
N664 C666 1.356 . S
N664 H676 0.984 . S
N664 H677 0.985 . S
N665 C667 1.356 . S
N665 H670 0.984 . S
N665 H671 0.985 . S
C666 C660 1.379 . S
C666 C663 1.363 . S
C666 N664 1.356 . S
C667 C661 1.363 . S
C667 C662 1.379 . S
C667 N665 1.356 . S
N668 C660 1.356 . S
N668 H674 0.984 . S
N668 H675 0.984 . S
N669 C662 1.356 . S
N669 H672 0.984 . S
N669 H673 0.985 . S
H670 N665 0.984 . S
H671 N665 0.985 . S
H672 N669 0.984 . S
H673 N669 0.985 . S
H674 N668 0.984 . S
H675 N668 0.984 . S
H676 N664 0.984 . S
H677 N664 0.985 . S
C678 C679 1.363 . S
C678 C684 1.379 . S
C678 N686 1.356 . S
C679 C678 1.363 . S
C679 C685 1.363 . S
C680 C681 1.363 . S
C680 C685 1.379 . S
C680 N687 1.356 1_455 S
C681 C680 1.363 . S
C681 C684 1.363 . S
N682 C684 1.356 . S
N682 H694 0.984 . S
N682 H695 0.985 . S
N683 C685 1.356 . S
N683 H688 0.984 . S
N683 H689 0.985 1_455 S
C684 C678 1.379 . S
C684 C681 1.363 . S
C684 N682 1.356 . S
C685 C679 1.363 . S
C685 C680 1.379 . S
C685 N683 1.356 . S
N686 C678 1.356 . S
N686 H692 0.984 . S
N686 H693 0.984 . S
N687 C680 1.356 1_655 S
N687 H690 0.984 . S
N687 H691 0.985 . S
H688 N683 0.984 . S
H689 N683 0.985 1_655 S
H690 N687 0.984 . S
H691 N687 0.985 . S
H692 N686 0.984 . S
H693 N686 0.984 . S
H694 N682 0.984 . S
H695 N682 0.985 . S
C696 C697 1.363 . S
C696 C702 1.379 1_554 S
C696 N704 1.356 . S
C697 C696 1.363 . S
C697 C703 1.363 1_565 S
C698 C699 1.363 1_545 S
C698 C703 1.379 1_556 S
C698 N705 1.356 . S
C699 C698 1.363 1_565 S
C699 C702 1.363 . S
N700 C702 1.356 . S
N700 H712 0.984 . S
N700 H713 0.985 . S
N701 C703 1.356 . S
N701 H706 0.984 . S
N701 H707 0.985 . S
C702 C696 1.379 1_556 S
C702 C699 1.363 . S
C702 N700 1.356 . S
C703 C697 1.363 1_545 S
C703 C698 1.379 1_554 S
C703 N701 1.356 . S
N704 C696 1.356 . S
N704 H710 0.984 . S
N704 H711 0.984 . S
N705 C698 1.356 . S
N705 H708 0.984 . S
N705 H709 0.985 . S
H706 N701 0.984 . S
H707 N701 0.985 . S
H708 N705 0.984 . S
H709 N705 0.985 . S
H710 N704 0.984 . S
H711 N704 0.984 . S
H712 N700 0.984 . S
H713 N700 0.985 . S
C714 C715 1.363 . S
C714 C720 1.379 1_554 S
C714 N722 1.356 . S
C715 C714 1.363 . S
C715 C721 1.363 . S
C716 C717 1.363 . S
C716 C721 1.379 1_556 S
C716 N723 1.356 . S
C717 C716 1.363 . S
C717 C720 1.363 . S
N718 C720 1.356 . S
N718 H730 0.984 . S
N718 H731 0.985 . S
N719 C721 1.356 . S
N719 H724 0.984 . S
N719 H725 0.985 . S
C720 C714 1.379 1_556 S
C720 C717 1.363 . S
C720 N718 1.356 . S
C721 C715 1.363 . S
C721 C716 1.379 1_554 S
C721 N719 1.356 . S
N722 C714 1.356 . S
N722 H728 0.984 . S
N722 H729 0.984 . S
N723 C716 1.356 . S
N723 H726 0.984 . S
N723 H727 0.985 . S
H724 N719 0.984 . S
H725 N719 0.985 . S
H726 N723 0.984 . S
H727 N723 0.985 . S
H728 N722 0.984 . S
H729 N722 0.984 . S
H730 N718 0.984 . S
H731 N718 0.985 . S
C732 C733 1.363 . S
C732 C738 1.379 1_554 S
C732 N740 1.356 . S
C733 C732 1.363 . S
C733 C739 1.363 . S
C734 C735 1.363 . S
C734 C739 1.379 1_556 S
C734 N741 1.356 . S
C735 C734 1.363 . S
C735 C738 1.363 . S
N736 C738 1.356 . S
N736 H748 0.984 . S
N736 H749 0.985 . S
N737 C739 1.356 . S
N737 H742 0.984 . S
N737 H743 0.985 . S
C738 C732 1.379 1_556 S
C738 C735 1.363 . S
C738 N736 1.356 . S
C739 C733 1.363 . S
C739 C734 1.379 1_554 S
C739 N737 1.356 . S
N740 C732 1.356 . S
N740 H746 0.984 . S
N740 H747 0.984 . S
N741 C734 1.356 . S
N741 H744 0.984 . S
N741 H745 0.985 . S
H742 N737 0.984 . S
H743 N737 0.985 . S
H744 N741 0.984 . S
H745 N741 0.985 . S
H746 N740 0.984 . S
H747 N740 0.984 . S
H748 N736 0.984 . S
H749 N736 0.985 . S
C750 C751 1.363 . S
C750 C756 1.379 1_554 S
C750 N758 1.356 . S
C751 C750 1.363 . S
C751 C757 1.363 . S
C752 C753 1.363 1_455 S
C752 C757 1.379 1_456 S
C752 N759 1.356 . S
C753 C752 1.363 1_655 S
C753 C756 1.363 . S
N754 C756 1.356 . S
N754 H766 0.984 . S
N754 H767 0.985 . S
N755 C757 1.356 1_455 S
N755 H760 0.984 1_455 S
N755 H761 0.985 . S
C756 C750 1.379 1_556 S
C756 C753 1.363 . S
C756 N754 1.356 . S
C757 C751 1.363 . S
C757 C752 1.379 1_654 S
C757 N755 1.356 1_655 S
N758 C750 1.356 . S
N758 H764 0.984 . S
N758 H765 0.984 . S
N759 C752 1.356 . S
N759 H762 0.984 . S
N759 H763 0.985 . S
H760 N755 0.984 1_655 S
H761 N755 0.985 . S
H762 N759 0.984 . S
H763 N759 0.985 . S
H764 N758 0.984 . S
H765 N758 0.984 . S
H766 N754 0.984 . S
H767 N754 0.985 . S
C768 C769 1.363 . S
C768 C774 1.379 1_455 S
C768 N776 1.356 . S
C769 C768 1.363 . S
C769 C775 1.363 . S
C770 C771 1.363 1_455 S
C770 C775 1.379 . S
C770 N777 1.356 . S
C771 C770 1.363 1_655 S
C771 C774 1.363 . S
N772 C774 1.356 . S
N772 H784 0.984 . S
N772 H785 0.985 . S
N773 C775 1.356 . S
N773 H778 0.984 . S
N773 H779 0.985 . S
C774 C768 1.379 1_655 S
C774 C771 1.363 . S
C774 N772 1.356 . S
C775 C769 1.363 . S
C775 C770 1.379 . S
C775 N773 1.356 . S
N776 C768 1.356 . S
N776 H782 1.011 . S
N776 H783 0.984 . S
N777 C770 1.356 . S
N777 H780 0.984 1_455 S
N777 H781 0.985 . S
H778 N773 0.984 . S
H779 N773 0.985 . S
H780 N777 0.984 1_655 S
H781 N777 0.985 . S
H782 N776 1.011 . S
H783 N776 0.984 . S
H784 N772 0.984 . S
H785 N772 0.985 . S
C786 C787 1.363 . S
C786 C792 1.379 1_545 S
C786 N794 1.356 . S
C787 C786 1.363 . S
C787 C793 1.363 . S
C788 C789 1.363 1_545 S
C788 C793 1.379 . S
C788 N795 1.356 . S
C789 C788 1.363 1_565 S
C789 C792 1.363 . S
N790 C792 1.356 . S
N790 H802 0.984 . S
N790 H803 0.985 . S
N791 C793 1.356 . S
N791 H796 0.984 . S
N791 H797 0.985 . S
C792 C786 1.379 1_565 S
C792 C789 1.363 . S
C792 N790 1.356 . S
C793 C787 1.363 . S
C793 C788 1.379 . S
C793 N791 1.356 . S
N794 C786 1.356 . S
N794 H800 0.984 1_545 S
N794 H801 0.984 . S
N795 C788 1.356 . S
N795 H798 0.984 . S
N795 H799 0.985 . S
H796 N791 0.984 . S
H797 N791 0.985 . S
H798 N795 0.984 . S
H799 N795 0.985 . S
H800 N794 0.984 1_565 S
H801 N794 0.984 . S
H802 N790 0.984 . S
H803 N790 0.985 . S
C804 C805 1.363 . S
C804 C810 1.379 . S
C804 N812 1.356 . S
C805 C804 1.363 . S
C805 C811 1.363 . S
C806 C807 1.363 . S
C806 C811 1.379 . S
C806 N813 1.356 . S
C807 C806 1.363 . S
C807 C810 1.363 . S
N808 C810 1.356 . S
N808 H820 0.984 . S
N808 H821 0.985 . S
N809 C811 1.356 . S
N809 H814 0.984 . S
N809 H815 0.985 . S
C810 C804 1.379 . S
C810 C807 1.363 . S
C810 N808 1.356 . S
C811 C805 1.363 . S
C811 C806 1.379 . S
C811 N809 1.356 . S
N812 C804 1.356 . S
N812 H818 0.984 . S
N812 H819 0.984 . S
N813 C806 1.356 . S
N813 H816 0.984 . S
N813 H817 0.985 . S
H814 N809 0.984 . S
H815 N809 0.985 . S
H816 N813 0.984 . S
H817 N813 0.985 . S
H818 N812 0.984 . S
H819 N812 0.984 . S
H820 N808 0.984 . S
H821 N808 0.985 . S
C822 C823 1.363 . S
C822 C828 1.379 . S
C822 N830 1.356 . S
C823 C822 1.363 . S
C823 C829 1.363 . S
C824 C825 1.363 . S
C824 C829 1.379 . S
C824 N831 1.356 . S
C825 C824 1.363 . S
C825 C828 1.363 . S
N826 C828 1.356 . S
N826 H838 0.984 . S
N826 H839 0.985 . S
N827 C829 1.356 . S
N827 H832 0.984 . S
N827 H833 0.985 . S
C828 C822 1.379 . S
C828 C825 1.363 . S
C828 N826 1.356 . S
C829 C823 1.363 . S
C829 C824 1.379 . S
C829 N827 1.356 . S
N830 C822 1.356 . S
N830 H836 0.984 . S
N830 H837 0.984 . S
N831 C824 1.356 . S
N831 H834 0.984 . S
N831 H835 0.985 . S
H832 N827 0.984 . S
H833 N827 0.985 . S
H834 N831 0.984 . S
H835 N831 0.985 . S
H836 N830 0.984 . S
H837 N830 0.984 . S
H838 N826 0.984 . S
H839 N826 0.985 . S
C840 C841 1.363 . S
C840 C846 1.365 1_655 S
C840 N848 1.356 . S
C841 C840 1.363 . S
C841 C847 1.363 1_554 S
C842 C843 1.363 . S
C842 C847 1.379 1_455 S
C842 N849 1.356 . S
C843 C842 1.363 . S
C843 C846 1.374 1_556 S
N844 C846 1.363 . S
N844 H856 0.984 . S
N844 H857 0.985 . S
N845 C847 1.356 . S
N845 H850 0.984 . S
N845 H851 0.985 . S
C846 C840 1.365 1_455 S
C846 C843 1.374 1_554 S
C846 N844 1.363 . S
C847 C841 1.363 1_556 S
C847 C842 1.379 1_655 S
C847 N845 1.356 . S
N848 C840 1.356 . S
N848 H854 0.984 . S
N848 H855 0.984 . S
N849 C842 1.356 . S
N849 H852 0.984 . S
N849 H853 0.985 . S
H850 N845 0.984 . S
H851 N845 0.985 . S
H852 N849 0.984 . S
H853 N849 0.985 . S
H854 N848 0.984 . S
H855 N848 0.984 . S
H856 N844 0.984 . S
H857 N844 0.985 . S
C858 C859 1.363 . S
C858 C864 1.379 . S
C858 N866 1.356 . S
C859 C858 1.363 . S
C859 C865 1.364 1_565 S
C860 C861 1.363 . S
C860 C865 1.378 1_556 S
C860 N867 1.356 . S
C861 C860 1.363 . S
C861 C864 1.363 1_546 S
N862 C864 1.356 . S
N862 H874 0.984 . S
N862 H875 0.985 1_565 S
N863 C865 1.356 1_565 S
N863 H868 0.984 . S
N863 H869 0.985 1_564 S
C864 C858 1.379 . S
C864 C861 1.363 1_564 S
C864 N862 1.356 . S
C865 C859 1.364 1_545 S
C865 C860 1.378 1_554 S
C865 N863 1.356 1_545 S
N866 C858 1.356 . S
N866 H872 0.984 . S
N866 H873 0.984 . S
N867 C860 1.356 . S
N867 H870 0.984 . S
N867 H871 0.985 . S
H868 N863 0.984 . S
H869 N863 0.985 1_546 S
H870 N867 0.984 . S
H871 N867 0.985 . S
H872 N866 0.984 . S
H873 N866 0.984 . S
H874 N862 0.984 . S
H875 N862 0.985 1_545 S
C876 C877 1.363 . S
C876 C882 1.379 . S
C876 N884 1.356 . S
C877 C876 1.363 . S
C877 C883 1.363 1_554 S
C878 C879 1.363 . S
C878 C883 1.379 . S
C878 N885 1.356 . S
C879 C878 1.363 . S
C879 C882 1.363 1_556 S
N880 C882 1.356 . S
N880 H892 0.984 . S
N880 H893 0.985 . S
N881 C883 1.356 . S
N881 H886 0.984 1_556 S
N881 H887 0.985 . S
C882 C876 1.379 . S
C882 C879 1.363 1_554 S
C882 N880 1.356 . S
C883 C877 1.363 1_556 S
C883 C878 1.379 . S
C883 N881 1.356 . S
N884 C876 1.356 . S
N884 H890 0.984 . S
N884 H891 0.984 . S
N885 C878 1.356 . S
N885 H888 0.984 . S
N885 H889 0.985 . S
H886 N881 0.984 1_554 S
H887 N881 0.985 . S
H888 N885 0.984 . S
H889 N885 0.985 . S
H890 N884 0.984 . S
H891 N884 0.984 . S
H892 N880 0.984 . S
H893 N880 0.985 . S
C894 C895 1.363 . S
C894 C900 1.379 . S
C894 N902 1.356 . S
C895 C894 1.363 . S
C895 C901 1.363 1_554 S
C896 C897 1.363 . S
C896 C901 1.379 . S
C896 N903 1.356 . S
C897 C896 1.363 . S
C897 C900 1.363 1_556 S
N898 C900 1.356 . S
N898 H910 0.984 . S
N898 H911 0.985 . S
N899 C901 1.356 . S
N899 H904 0.984 . S
N899 H905 0.985 . S
C900 C894 1.379 . S
C900 C897 1.363 1_554 S
C900 N898 1.356 . S
C901 C895 1.363 1_556 S
C901 C896 1.379 . S
C901 N899 1.356 . S
N902 C894 1.356 . S
N902 H908 0.984 . S
N902 H909 0.984 . S
N903 C896 1.356 . S
N903 H906 0.984 . S
N903 H907 0.985 . S
H904 N899 0.984 . S
H905 N899 0.985 . S
H906 N903 0.984 . S
H907 N903 0.985 . S
H908 N902 0.984 . S
H909 N902 0.984 . S
H910 N898 0.984 . S
H911 N898 0.985 . S
C912 C913 1.363 . S
C912 C918 1.379 . S
C912 N920 1.356 . S
C913 C912 1.363 . S
C913 C919 1.363 . S
C914 C915 1.363 . S
C914 C919 1.379 . S
C914 N921 1.356 . S
C915 C914 1.363 . S
C915 C918 1.363 . S
N916 C918 1.356 . S
N916 H928 0.984 . S
N916 H929 0.985 . S
N917 C919 1.356 . S
N917 H922 0.984 . S
N917 H923 0.985 . S
C918 C912 1.379 . S
C918 C915 1.363 . S
C918 N916 1.356 . S
C919 C913 1.363 . S
C919 C914 1.379 . S
C919 N917 1.356 . S
N920 C912 1.356 . S
N920 H926 0.984 . S
N920 H927 0.984 . S
N921 C914 1.356 . S
N921 H924 0.984 . S
N921 H925 0.985 . S
H922 N917 0.984 . S
H923 N917 0.985 . S
H924 N921 0.984 . S
H925 N921 0.985 . S
H926 N920 0.984 . S
H927 N920 0.984 . S
H928 N916 0.984 . S
H929 N916 0.985 . S
C930 C931 1.363 . S
C930 C936 1.379 . S
C930 N938 1.356 1_545 S
C931 C930 1.363 . S
C931 C937 1.363 . S
C932 C933 1.363 . S
C932 C937 1.379 . S
C932 N939 1.356 . S
C933 C932 1.363 . S
C933 C936 1.363 . S
N934 C936 1.356 1_565 S
N934 H946 0.984 . S
N934 H947 0.985 . S
N935 C937 1.356 . S
N935 H940 0.984 . S
N935 H941 0.985 . S
C936 C930 1.379 . S
C936 C933 1.363 . S
C936 N934 1.356 1_545 S
C937 C931 1.363 . S
C937 C932 1.379 . S
C937 N935 1.356 . S
N938 C930 1.356 1_565 S
N938 H944 0.984 . S
N938 H945 0.984 1_565 S
N939 C932 1.356 . S
N939 H942 0.984 . S
N939 H943 0.985 . S
H940 N935 0.984 . S
H941 N935 0.985 . S
H942 N939 0.984 . S
H943 N939 0.985 . S
H944 N938 0.984 . S
H945 N938 0.984 1_545 S
H946 N934 0.984 . S
H947 N934 0.985 . S
C948 C949 1.363 . S
C948 C954 1.379 . S
C948 N956 1.356 . S
C949 C948 1.363 . S
C949 C955 1.363 . S
C950 C951 1.363 . S
C950 C955 1.379 . S
C950 N957 1.356 . S
C951 C950 1.363 . S
C951 C954 1.363 . S
N952 C954 1.356 . S
N952 H964 0.984 . S
N952 H965 0.985 . S
N953 C955 1.356 . S
N953 H958 0.984 . S
N953 H959 0.985 . S
C954 C948 1.379 . S
C954 C951 1.363 . S
C954 N952 1.356 . S
C955 C949 1.363 . S
C955 C950 1.379 . S
C955 N953 1.356 . S
N956 C948 1.356 . S
N956 H962 0.984 . S
N956 H963 0.984 . S
N957 C950 1.356 . S
N957 H960 0.984 . S
N957 H961 0.985 . S
H958 N953 0.984 . S
H959 N953 0.985 . S
H960 N957 0.984 . S
H961 N957 0.985 . S
H962 N956 0.984 . S
H963 N956 0.984 . S
H964 N952 0.984 . S
H965 N952 0.985 . S
C966 C967 1.363 . S
C966 C972 1.379 . S
C966 N974 1.356 . S
C967 C966 1.363 . S
C967 C973 1.363 . S
C968 C969 1.363 . S
C968 C973 1.379 . S
C968 N975 1.356 . S
C969 C968 1.363 . S
C969 C972 1.363 . S
N970 C972 1.356 . S
N970 H982 0.984 . S
N970 H983 0.985 . S
N971 C973 1.356 . S
N971 H976 0.984 . S
N971 H977 0.985 . S
C972 C966 1.379 . S
C972 C969 1.363 . S
C972 N970 1.356 . S
C973 C967 1.363 . S
C973 C968 1.379 . S
C973 N971 1.356 . S
N974 C966 1.356 . S
N974 H980 0.984 . S
N974 H981 0.984 . S
N975 C968 1.356 . S
N975 H978 0.984 . S
N975 H979 0.985 . S
H976 N971 0.984 . S
H977 N971 0.985 . S
H978 N975 0.984 . S
H979 N975 0.985 . S
H980 N974 0.984 . S
H981 N974 0.984 . S
H982 N970 0.984 . S
H983 N970 0.985 . S
C984 C985 1.363 . S
C984 C990 1.379 . S
C984 N992 1.356 . S
C985 C984 1.363 . S
C985 C991 1.363 . S
C986 C987 1.378 . S
C986 C991 1.381 . S
C986 N993 1.343 1_655 S
C987 C986 1.378 . S
C987 C990 1.363 . S
N988 C990 1.356 . S
N988 H1000 0.984 . S
N988 H1001 0.985 . S
N989 C991 1.356 1_455 S
N989 H994 0.984 . S
N989 H995 0.985 . S
C990 C984 1.379 . S
C990 C987 1.363 . S
C990 N988 1.356 . S
C991 C985 1.363 . S
C991 C986 1.381 . S
C991 N989 1.356 1_655 S
N992 C984 1.356 . S
N992 H998 0.984 . S
N992 H999 0.984 . S
N993 C986 1.343 1_455 S
N993 H996 0.984 . S
N993 H997 0.985 . S
H994 N989 0.984 . S
H995 N989 0.985 . S
H996 N993 0.984 . S
H997 N993 0.985 . S
H998 N992 0.984 . S
H999 N992 0.984 . S
H1000 N988 0.984 . S
H1001 N988 0.985 . S
C1002 C1003 1.363 . S
C1002 C1008 1.379 . S
C1002 N1010 1.356 . S
C1003 C1002 1.363 . S
C1003 C1009 1.363 . S
C1004 C1005 1.363 . S
C1004 C1009 1.379 . S
C1004 N1011 1.356 . S
C1005 C1004 1.363 . S
C1005 C1008 1.363 . S
N1006 C1008 1.356 . S
N1006 H1018 0.984 . S
N1006 H1019 0.985 . S
N1007 C1009 1.356 . S
N1007 H1012 0.984 . S
N1007 H1013 0.985 . S
C1008 C1002 1.379 . S
C1008 C1005 1.363 . S
C1008 N1006 1.356 . S
C1009 C1003 1.363 . S
C1009 C1004 1.379 . S
C1009 N1007 1.356 . S
N1010 C1002 1.356 . S
N1010 H1016 0.984 . S
N1010 H1017 0.984 . S
N1011 C1004 1.356 . S
N1011 H1014 0.984 . S
N1011 H1015 0.985 . S
H1012 N1007 0.984 . S
H1013 N1007 0.985 . S
H1014 N1011 0.984 . S
H1015 N1011 0.985 . S
H1016 N1010 0.984 . S
H1017 N1010 0.984 . S
H1018 N1006 0.984 . S
H1019 N1006 0.985 . S
C1020 C1021 1.363 . S
C1020 C1026 1.379 . S
C1020 N1028 1.356 . S
C1021 C1020 1.363 . S
C1021 C1027 1.363 . S
C1022 C1023 1.363 . S
C1022 C1027 1.379 . S
C1022 N1029 1.356 . S
C1023 C1022 1.363 . S
C1023 C1026 1.363 . S
N1024 C1026 1.356 . S
N1024 H1036 0.984 . S
N1024 H1037 0.985 . S
N1025 C1027 1.356 . S
N1025 H1030 0.984 . S
N1025 H1031 0.985 . S
C1026 C1020 1.379 . S
C1026 C1023 1.363 . S
C1026 N1024 1.356 . S
C1027 C1021 1.363 . S
C1027 C1022 1.379 . S
C1027 N1025 1.356 . S
N1028 C1020 1.356 . S
N1028 H1034 0.984 . S
N1028 H1035 0.984 . S
N1029 C1022 1.356 . S
N1029 H1032 0.984 . S
N1029 H1033 0.985 . S
H1030 N1025 0.984 . S
H1031 N1025 0.985 . S
H1032 N1029 0.984 . S
H1033 N1029 0.985 . S
H1034 N1028 0.984 . S
H1035 N1028 0.984 . S
H1036 N1024 0.984 . S
H1037 N1024 0.985 . S
C1038 C1039 1.363 . S
C1038 C1044 1.379 . S
C1038 N1046 1.356 . S
C1039 C1038 1.363 . S
C1039 C1045 1.363 . S
C1040 C1041 1.363 . S
C1040 C1045 1.379 . S
C1040 N1047 1.356 . S
C1041 C1040 1.363 . S
C1041 C1044 1.363 . S
N1042 C1044 1.356 . S
N1042 H1054 0.984 . S
N1042 H1055 0.985 . S
N1043 C1045 1.356 . S
N1043 H1048 0.984 . S
N1043 H1049 0.985 . S
C1044 C1038 1.379 . S
C1044 C1041 1.363 . S
C1044 N1042 1.356 . S
C1045 C1039 1.363 . S
C1045 C1040 1.379 . S
C1045 N1043 1.356 . S
N1046 C1038 1.356 . S
N1046 H1052 0.984 . S
N1046 H1053 0.984 . S
N1047 C1040 1.356 . S
N1047 H1050 0.984 . S
N1047 H1051 0.985 . S
H1048 N1043 0.984 . S
H1049 N1043 0.985 . S
H1050 N1047 0.984 . S
H1051 N1047 0.985 . S
H1052 N1046 0.984 . S
H1053 N1046 0.984 . S
H1054 N1042 0.984 . S
H1055 N1042 0.985 . S
C625 C241 2.524 . S
C627 C351 2.825 . S
C645 C428 2.838 . S
C643 C277 2.605 . S
C663 C519 2.831 . S
C661 C169 2.528 . S
C681 C603 2.816 . S
C679 C205 2.516 . S
C699 C362 2.825 1_565 S
C697 C97 2.495 . S
C715 C133 2.633 . S
C717 C439 2.838 . S
C733 C25 2.500 . S
C735 C530 2.831 . S
C751 C61 2.489 . S
C753 C614 2.816 1_655 S
C771 C346 0.770 . S
C769 C211 0.766 . S
C789 C441 0.764 . S
C787 C247 0.763 . S
C807 C514 0.783 . S
C805 C253 0.772 . S
C823 C175 0.763 . S
C825 C598 0.766 . S
C841 C67 0.762 . S
C843 C357 0.770 . S
C861 C430 0.765 . S
C859 C103 0.760 . S
C879 C525 0.783 . S
C877 C109 0.777 . S
C895 C31 0.760 . S
C897 C609 0.766 . S
C913 C181 2.928 . S
C915 C355 3.288 . S
C931 C217 2.922 . S
C933 C446 3.383 . S
C951 C523 3.311 . S
C949 C283 2.852 . S
C969 C607 3.301 . S
C967 C145 2.941 . S
C985 C37 2.916 . S
C987 C344 3.288 . S
C1005 C435 3.383 . S
C1003 C73 2.909 . S
C1023 C512 3.310 . S
C1021 C139 2.868 . S
C1039 C1 2.929 . S
C1041 C596 3.301 . S
