# Generated by pormake.
# Topology zzz, (3,6)-cn, num edge types: 1
# Building blocks:
#     Node 0, Type 0, BuildingBlock: CUQRIR_clean_linker_1, # of connection points: 3
#     Node 1, Type 0, BuildingBlock: CUQRIR_clean_linker_1, # of connection points: 3
#     Node 2, Type 0, BuildingBlock: CUQRIR_clean_linker_1, # of connection points: 3
#     Node 3, Type 0, BuildingBlock: CUQRIR_clean_linker_1, # of connection points: 3
#     Node 4, Type 0, BuildingBlock: CUQRIR_clean_linker_1, # of connection points: 3
#     Node 5, Type 0, BuildingBlock: CUQRIR_clean_linker_1, # of connection points: 3
#     Node 6, Type 0, BuildingBlock: CUQRIR_clean_linker_1, # of connection points: 3
#     Node 7, Type 0, BuildingBlock: CUQRIR_clean_linker_1, # of connection points: 3
#     Node 8, Type 1, BuildingBlock: INOVEN_clean_sbu_0, # of connection points: 6
#     Node 9, Type 1, BuildingBlock: INOVEN_clean_sbu_0, # of connection points: 6
#     Node 10, Type 1, BuildingBlock: INOVEN_clean_sbu_0, # of connection points: 6
#     Node 11, Type 1, BuildingBlock: INOVEN_clean_sbu_0, # of connection points: 6
#     Edge 12, Type (0, 1), BuildingBlock: CIFDUS_clean_linker_0, # of connection points: 2
#     Edge 13, Type (0, 1), BuildingBlock: CIFDUS_clean_linker_0, # of connection points: 2
#     Edge 14, Type (0, 1), BuildingBlock: CIFDUS_clean_linker_0, # of connection points: 2
#     Edge 15, Type (0, 1), BuildingBlock: CIFDUS_clean_linker_0, # of connection points: 2
#     Edge 16, Type (0, 1), BuildingBlock: CIFDUS_clean_linker_0, # of connection points: 2
#     Edge 17, Type (0, 1), BuildingBlock: CIFDUS_clean_linker_0, # of connection points: 2
#     Edge 18, Type (0, 1), BuildingBlock: CIFDUS_clean_linker_0, # of connection points: 2
#     Edge 19, Type (0, 1), BuildingBlock: CIFDUS_clean_linker_0, # of connection points: 2
#     Edge 20, Type (0, 1), BuildingBlock: CIFDUS_clean_linker_0, # of connection points: 2
#     Edge 21, Type (0, 1), BuildingBlock: CIFDUS_clean_linker_0, # of connection points: 2
#     Edge 22, Type (0, 1), BuildingBlock: CIFDUS_clean_linker_0, # of connection points: 2
#     Edge 23, Type (0, 1), BuildingBlock: CIFDUS_clean_linker_0, # of connection points: 2
#     Edge 24, Type (0, 1), BuildingBlock: CIFDUS_clean_linker_0, # of connection points: 2
#     Edge 25, Type (0, 1), BuildingBlock: CIFDUS_clean_linker_0, # of connection points: 2
#     Edge 26, Type (0, 1), BuildingBlock: CIFDUS_clean_linker_0, # of connection points: 2
#     Edge 27, Type (0, 1), BuildingBlock: CIFDUS_clean_linker_0, # of connection points: 2
#     Edge 28, Type (0, 1), BuildingBlock: CIFDUS_clean_linker_0, # of connection points: 2
#     Edge 29, Type (0, 1), BuildingBlock: CIFDUS_clean_linker_0, # of connection points: 2
#     Edge 30, Type (0, 1), BuildingBlock: CIFDUS_clean_linker_0, # of connection points: 2
#     Edge 31, Type (0, 1), BuildingBlock: CIFDUS_clean_linker_0, # of connection points: 2
#     Edge 32, Type (0, 1), BuildingBlock: CIFDUS_clean_linker_0, # of connection points: 2
#     Edge 33, Type (0, 1), BuildingBlock: CIFDUS_clean_linker_0, # of connection points: 2
#     Edge 34, Type (0, 1), BuildingBlock: CIFDUS_clean_linker_0, # of connection points: 2
#     Edge 35, Type (0, 1), BuildingBlock: CIFDUS_clean_linker_0, # of connection points: 2
# Relax obj value: 0.345
# Max RMSD: 0.201
# Mean RMSD: 0.156
data_MOF--net-zzz--node1-INOVEN_clean_sbu_0--node2-CUQRIR_clean_linker_1--edge1-CIFDUS_clean_linker_0
_symmetry_space_group_name_H-M    P1
_symmetry_Int_Tables_number       1
_symmetry_cell_setting            triclinic
loop_
_symmetry_equiv_pos_as_xyz
'x, y, z'
_cell_length_a     42.314491
_cell_length_b     42.345883
_cell_length_c     10.714229
_cell_angle_alpha  90.073627
_cell_angle_beta   90.155679
_cell_angle_gamma 90.132845
loop_
_atom_site_label
_atom_site_type_symbol
_atom_site_fract_x
_atom_site_fract_y
_atom_site_fract_z
_atom_type_partial_charge
C0 C 0.74939 0.52048 0.38653 0.0
N1 N 0.77395 0.50093 0.41651 0.0
N2 N 0.72608 0.50465 0.32297 0.0
C3 C 0.74895 0.55519 0.41336 0.0
C4 C 0.73751 0.47482 0.31637 0.0
N5 N 0.76651 0.47264 0.37028 0.0
C6 C 0.7209 0.44802 0.25012 0.0
H7 H 0.7593 0.56 0.50675 0.0
H8 H 0.72451 0.56457 0.40862 0.0
H9 H 0.76365 0.56751 0.3429 0.0
H10 H 0.71752 0.45417 0.1503 0.0
H11 H 0.69721 0.44425 0.29142 0.0
H12 H 0.734 0.42547 0.25781 0.0
C13 C 1.01492 0.75171 0.38478 0.0
N14 N 0.03336 0.77549 0.43275 0.0
N15 N 0.0329 0.72782 0.33536 0.0
C16 C 0.97964 0.75348 0.37488 0.0
C17 C 0.06283 0.73834 0.35484 0.0
N18 N 0.06317 0.76687 0.41266 0.0
C19 C 0.09212 0.72132 0.31302 0.0
H20 H 0.96896 0.72967 0.36578 0.0
H21 H 0.97336 0.76742 0.2908 0.0
H22 H 0.96978 0.76576 0.45762 0.0
H23 H 0.09814 0.7288 0.2168 0.0
H24 H 0.08822 0.69547 0.3122 0.0
H25 H 0.11237 0.72714 0.37502 0.0
C26 C 0.77377 1.00381 0.36847 0.0
N27 N 0.75255 0.02242 0.43042 0.0
N28 N 0.80022 0.02044 0.33378 0.0
C29 C 0.76809 0.96969 0.33839 0.0
C30 C 0.7937 0.05003 0.37561 0.0
N31 N 0.76497 0.05139 0.43206 0.0
C32 C 0.81378 0.07861 0.34754 0.0
H33 H 0.79079 0.95706 0.32511 0.0
H34 H 0.75409 0.96803 0.25091 0.0
H35 H 0.75428 0.95828 0.41394 0.0
H36 H 0.81945 0.07936 0.24649 0.0
H37 H 0.83632 0.07698 0.39999 0.0
H38 H 0.80217 0.10097 0.37532 0.0
C39 C 0.51508 0.77399 0.38947 0.0
N40 N 0.4951 0.75175 0.43728 0.0
N41 N 0.49888 0.79933 0.34285 0.0
C42 C 0.55021 0.77007 0.38189 0.0
C43 C 0.46828 0.79117 0.36288 0.0
N44 N 0.46587 0.76219 0.41659 0.0
C45 C 0.44046 0.81 0.31622 0.0
H46 H 0.56214 0.79334 0.37357 0.0
H47 H 0.55594 0.75564 0.29849 0.0
H48 H 0.55911 0.7574 0.46547 0.0
H49 H 0.44239 0.81336 0.21379 0.0
H50 H 0.44057 0.83367 0.3604 0.0
H51 H 0.4176 0.7985 0.33859 0.0
C52 C 0.2849 0.52039 0.19161 0.0
N53 N 0.25986 0.53954 0.16283 0.0
N54 N 0.30709 0.53604 0.26191 0.0
C55 C 0.28673 0.48606 0.15838 0.0
C56 C 0.29485 0.56544 0.27161 0.0
N57 N 0.2663 0.56751 0.21443 0.0
C58 C 0.31155 0.59282 0.3334 0.0
H59 H 0.3 0.47281 0.23074 0.0
H60 H 0.29949 0.48365 0.06856 0.0
H61 H 0.26274 0.47581 0.14692 0.0
H62 H 0.30356 0.6156 0.29325 0.0
H63 H 0.33747 0.59066 0.32219 0.0
H64 H 0.30642 0.59288 0.43481 0.0
C65 C 1.01413 0.28391 0.20087 0.0
N66 N 0.02935 0.25666 0.16763 0.0
N67 N 0.03315 0.30338 0.27056 0.0
C68 C 0.97986 0.29017 0.17607 0.0
C69 C 0.06008 0.28629 0.28103 0.0
N70 N 0.05778 0.25796 0.22175 0.0
C71 C 0.08769 0.29614 0.36096 0.0
H72 H 0.97524 0.31597 0.17417 0.0
H73 H 0.96565 0.27956 0.2522 0.0
H74 H 0.97246 0.27921 0.08647 0.0
H75 H 0.08175 0.29243 0.46068 0.0
H76 H 0.09255 0.32169 0.34793 0.0
H77 H 0.10912 0.28229 0.33774 0.0
C78 C 0.24209 1.01773 0.18722 0.0
N79 N 0.27113 0.03133 0.16943 0.0
N80 N 0.22403 0.03451 0.27075 0.0
C81 C 0.23172 0.98788 0.12365 0.0
C82 C 0.2438 0.05859 0.30375 0.0
N83 N 0.27204 0.05652 0.24402 0.0
C84 C 0.23641 0.08317 0.40164 0.0
H85 H 0.20559 0.98691 0.11523 0.0
H86 H 0.23988 0.96737 0.17931 0.0
H87 H 0.24256 0.98615 0.02966 0.0
H88 H 0.22541 0.07196 0.48446 0.0
H89 H 0.2196 0.10055 0.36229 0.0
H90 H 0.25748 0.09678 0.43148 0.0
C91 C 0.50025 0.24945 0.25519 0.0
N92 N 0.51976 0.27042 0.19655 0.0
N93 N 0.51637 0.22329 0.29528 0.0
C94 C 0.46565 0.25497 0.2752 0.0
C95 C 0.54655 0.22964 0.25946 0.0
N96 N 0.54868 0.25808 0.20148 0.0
C97 C 0.57478 0.20947 0.2923 0.0
H98 H 0.46244 0.26879 0.36227 0.0
H99 H 0.45276 0.23223 0.28404 0.0
H100 H 0.45563 0.26886 0.19681 0.0
H101 H 0.57504 0.18832 0.23127 0.0
H102 H 0.57332 0.2015 0.39075 0.0
H103 H 0.59752 0.2219 0.2776 0.0
Gd104 Gd 0.03121 1.01422 0.90536 0.0
Gd105 Gd 0.99463 0.02202 0.69697 0.0
C106 C 1.01712 0.95098 0.73353 0.0
C107 C 0.05815 1.00072 0.11604 0.0
C108 C 0.08156 0.97861 0.16604 0.0
C109 C 0.10819 0.96964 0.09673 0.0
C110 C 0.07546 0.96401 0.28042 0.0
C111 C 0.11799 0.92675 0.24243 0.0
C112 C 0.09352 0.93834 0.31865 0.0
C113 C 0.12652 0.94405 0.13554 0.0
C114 C 0.06842 0.02949 0.70336 0.0
C115 C 1.01181 0.08432 0.85736 0.0
C116 C 0.97522 0.03995 0.4809 0.0
C117 C 0.99586 0.05239 0.38284 0.0
C118 C 0.98779 0.08098 0.32686 0.0
C119 C 0.027 0.04092 0.37132 0.0
C120 C 0.0427 0.08925 0.26915 0.0
C121 C 0.0503 0.05923 0.31361 0.0
C122 C 1.01122 0.09948 0.27293 0.0
C123 C 0.95608 1.00949 0.8991 0.0
O124 O 0.02567 0.96174 0.84544 0.0
O125 O 1.00659 0.97133 0.65091 0.0
O126 O 0.06848 0.02245 0.04017 0.0
O127 O 0.03133 0.9883 0.07974 0.0
O128 O 0.07096 0.04183 0.81323 0.0
O129 O 0.04586 1.00981 0.70384 0.0
O130 O 1.01125 0.07298 0.74198 0.0
O131 O 1.01334 0.0636 0.94846 0.0
O132 O 0.97356 0.05794 0.57951 0.0
O133 O 0.97898 1.0103 0.50921 0.0
O134 O 0.9516 0.99895 0.7871 0.0
O135 O 0.98029 0.0271 0.89806 0.0
H136 H 0.1136 0.98099 0.00877 0.0
H137 H 0.05518 0.97079 0.33564 0.0
H138 H 0.08595 0.92572 0.40121 0.0
H139 H 0.14561 0.93611 0.07617 0.0
H140 H 0.96427 0.09067 0.33767 0.0
H141 H 0.03403 1.01925 0.41699 0.0
H142 H 0.07453 0.05111 0.31306 0.0
H143 H 1.00547 0.12331 0.24673 0.0
Gd144 Gd 0.51498 0.02569 0.90926 0.0
Gd145 Gd 0.50402 0.99033 0.69655 0.0
C146 C 0.57616 1.01019 0.72824 0.0
C147 C 0.53416 0.04751 0.121 0.0
C148 C 0.55974 0.0678 0.16633 0.0
C149 C 0.56742 0.0964 0.10708 0.0
C150 C 0.57717 0.05794 0.27015 0.0
C151 C 0.61139 0.10386 0.2505 0.0
C152 C 0.60264 0.07585 0.31233 0.0
C153 C 0.59303 0.11439 0.14933 0.0
C154 C 0.50259 0.06556 0.7131 0.0
C155 C 0.44317 1.0116 0.85838 0.0
C156 C 0.48512 0.96999 0.48215 0.0
C157 C 0.47468 0.98971 0.37779 0.0
C158 C 0.44534 0.98314 0.32394 0.0
C159 C 0.48848 1.01968 0.36044 0.0
C160 C 0.44022 0.0383 0.26574 0.0
C161 C 0.47111 0.0441 0.30581 0.0
C162 C 0.42815 1.00742 0.2696 0.0
C163 C 0.51512 0.95165 0.8991 0.0
O164 O 0.56654 1.01744 0.84284 0.0
O165 O 0.55467 1.00206 0.64522 0.0
O166 O 0.51209 0.06097 0.05442 0.0
O167 O 0.5428 0.02001 0.07742 0.0
O168 O 0.49225 0.06942 0.82558 0.0
O169 O 0.51926 0.04069 0.70943 0.0
O170 O 0.45426 1.00989 0.74276 0.0
O171 O 0.46397 1.01232 0.94999 0.0
O172 O 0.46669 0.97154 0.57932 0.0
O173 O 0.5149 0.97196 0.51217 0.0
O174 O 0.52574 0.94668 0.78791 0.0
O175 O 0.49844 0.97627 0.89653 0.0
H176 H 0.55419 0.10446 0.02656 0.0
H177 H 0.57149 0.03599 0.31705 0.0
H178 H 0.61667 0.06655 0.38848 0.0
H179 H 0.59938 0.13572 0.09953 0.0
H180 H 0.43403 0.96044 0.33819 0.0
H181 H 0.51127 0.02504 0.40091 0.0
H182 H 0.48054 0.06788 0.30563 0.0
H183 H 0.40375 1.00303 0.24608 0.0
Gd184 Gd 0.49274 0.5176 0.93463 0.0
Gd185 Gd 0.52667 0.50695 0.71804 0.0
C186 C 0.50705 0.57873 0.75451 0.0
C187 C 0.47135 0.53213 0.15346 0.0
C188 C 0.44998 0.55298 0.22161 0.0
C189 C 0.42203 0.56435 0.16773 0.0
C190 C 0.45813 0.5619 0.3432 0.0
C191 C 0.41368 0.59813 0.34875 0.0
C192 C 0.44013 0.58419 0.40656 0.0
C193 C 0.40376 0.58647 0.23168 0.0
C194 C 0.45225 0.50572 0.73629 0.0
C195 C 0.51163 0.44574 0.89589 0.0
C196 C 0.54884 0.48804 0.50672 0.0
C197 C 0.56908 0.46249 0.46199 0.0
C198 C 0.59776 0.45498 0.52145 0.0
C199 C 0.55891 0.4447 0.35944 0.0
C200 C 0.60472 0.41056 0.38061 0.0
C201 C 0.57659 0.41908 0.31868 0.0
C202 C 0.61552 0.4292 0.48064 0.0
C203 C 0.56675 0.5189 0.91568 0.0
O204 O 0.50092 0.56928 0.87046 0.0
O205 O 0.51385 0.55723 0.67001 0.0
O206 O 0.45832 0.51109 0.08059 0.0
O207 O 0.49671 0.54497 0.1055 0.0
O208 O 0.44955 0.49466 0.84823 0.0
O209 O 0.47676 0.52292 0.73463 0.0
O210 O 0.51715 0.45539 0.78008 0.0
O211 O 0.50604 0.46726 0.98141 0.0
O212 O 0.56231 0.50992 0.57453 0.0
O213 O 0.52124 0.47936 0.5492 0.0
O214 O 0.57009 0.53042 0.80476 0.0
O215 O 0.54233 0.50156 0.91642 0.0
H216 H 0.41499 0.55708 0.07471 0.0
H217 H 0.47932 0.55273 0.38706 0.0
H218 H 0.44878 0.59244 0.49603 0.0
H219 H 0.38324 0.59622 0.18516 0.0
H220 H 0.60601 0.46842 0.60124 0.0
H221 H 0.53686 0.45019 0.31258 0.0
H222 H 0.56707 0.40478 0.24354 0.0
H223 H 0.63688 0.42295 0.5307 0.0
Gd224 Gd 1.00882 0.50115 0.88683 0.0
Gd225 Gd 0.02593 0.53683 0.6821 0.0
C226 C 0.95294 0.51564 0.68916 0.0
C227 C 0.99237 0.47761 0.0997 0.0
C228 C 0.97405 0.45373 0.16612 0.0
C229 C 0.96709 0.45917 0.29158 0.0
C230 C 0.9629 0.42631 0.10739 0.0
C231 C 0.93098 0.41459 0.2905 0.0
C232 C 0.94182 0.40648 0.17025 0.0
C233 C 0.94591 0.43966 0.35395 0.0
C234 C 0.02525 0.46165 0.69097 0.0
C235 C 0.08208 0.52239 0.87914 0.0
C236 C 0.04115 0.56181 0.47025 0.0
C237 C 0.05879 0.58651 0.40597 0.0
C238 C 0.07062 0.61297 0.46906 0.0
C239 C 0.0647 0.58276 0.27868 0.0
C240 C 0.10188 0.62649 0.28603 0.0
C241 C 0.08603 0.60262 0.21866 0.0
C242 C 0.09161 0.63327 0.40845 0.0
C243 C 1.00974 0.57625 0.88021 0.0
O244 O 0.9583 0.51076 0.80973 0.0
O245 O 0.97767 0.52048 0.61718 0.0
O246 O 1.01636 0.46758 0.03495 0.0
O247 O 0.97689 0.50058 0.04536 0.0
O248 O 0.03147 0.45673 0.8073 0.0
O249 O 1.00951 0.48695 0.68349 0.0
O250 O 0.07663 0.52795 0.75899 0.0
O251 O 0.05749 0.51652 0.95079 0.0
O252 O 1.01725 0.57102 0.53729 0.0
O253 O 0.05727 0.53888 0.5219 0.0
O254 O 1.0013 0.57946 0.76504 0.0
O255 O 0.02604 0.5512 0.88507 0.0
H256 H 0.97676 0.47959 0.33936 0.0
H257 H 0.96902 0.42124 0.01132 0.0
H258 H 0.93156 0.38671 0.12017 0.0
H259 H 0.93876 0.44655 0.44698 0.0
H260 H 0.06518 0.61684 0.56663 0.0
H261 H 0.05438 0.56318 0.22759 0.0
H262 H 0.09248 0.59678 0.12376 0.0
H263 H 0.10222 0.65229 0.4618 0.0
H264 H 0.17472 0.07425 0.32244 0.0
H265 H 0.20307 0.97697 0.35494 0.0
H266 H 0.15519 0.96552 0.47484 0.0
H267 H 0.10758 0.98443 0.59342 0.0
H268 H 0.08666 0.08393 0.59402 0.0
H269 H 0.12961 0.09348 0.44613 0.0
C270 C 0.17107 0.05063 0.35774 0.0
C271 C 0.19344 0.02676 0.32928 0.0
C272 C 0.14462 0.04469 0.43587 0.0
C273 C 0.18662 0.99597 0.37207 0.0
C274 C 0.15925 0.98947 0.44307 0.0
C275 C 0.11218 1.00812 0.55971 0.0
C276 C 0.09327 0.03343 0.60375 0.0
C277 C 0.13836 1.01377 0.47858 0.0
C278 C 0.1004 0.06402 0.56136 0.0
C279 C 0.12513 0.0695 0.47666 0.0
H280 H 0.52973 0.16106 0.26761 0.0
H281 H 0.48045 0.22581 0.50763 0.0
H282 H 0.46913 0.18261 0.65378 0.0
H283 H 0.477 0.12619 0.722 0.0
H284 H 0.53603 0.06611 0.49687 0.0
H285 H 0.54078 0.10809 0.34214 0.0
C286 C 0.51691 0.16603 0.35264 0.0
C287 C 0.50619 0.19708 0.37526 0.0
C288 C 0.51241 0.14157 0.44083 0.0
C289 C 0.4886 0.2023 0.48503 0.0
C290 C 0.48251 0.17754 0.57009 0.0
C291 C 0.4907 0.12206 0.63825 0.0
C292 C 0.50506 0.09209 0.61958 0.0
C293 C 0.49481 0.14701 0.55024 0.0
C294 C 0.52344 0.08795 0.51193 0.0
C295 C 0.5265 0.11205 0.42332 0.0
H296 H 0.31726 0.5395 0.50988 0.0
H297 H 0.35982 0.50739 0.16886 0.0
H298 H 0.40902 0.49514 0.28274 0.0
H299 H 0.44142 0.49669 0.48106 0.0
H300 H 0.39685 0.52909 0.81914 0.0
H301 H 0.34796 0.53922 0.70507 0.0
C302 C 0.33732 0.52979 0.46034 0.0
C303 C 0.3347 0.52448 0.33043 0.0
C304 C 0.3657 0.52359 0.52614 0.0
C305 C 0.36089 0.51141 0.26858 0.0
C306 C 0.38921 0.50478 0.33387 0.0
C307 C 0.421 0.50603 0.52941 0.0
C308 C 0.42312 0.51227 0.65936 0.0
C309 C 0.39222 0.51134 0.46265 0.0
C310 C 0.39615 0.52406 0.71996 0.0
C311 C 0.36803 0.52984 0.65456 0.0
H312 H 0.03682 0.3669 0.22411 0.0
H313 H 1.01276 0.29908 0.50694 0.0
H314 H 1.00821 0.34149 0.66202 0.0
H315 H 1.01434 0.39788 0.72208 0.0
H316 H 0.03556 0.46668 0.43876 0.0
H317 H 0.03805 0.42457 0.28099 0.0
C318 C 0.0298 0.36157 0.31897 0.0
C319 C 0.02463 0.32961 0.35304 0.0
C320 C 0.02726 0.38644 0.4087 0.0
C321 C 1.01624 0.32329 0.47747 0.0
C322 C 1.01397 0.34762 0.56659 0.0
C323 C 1.01939 0.40374 0.62569 0.0
C324 C 0.02509 0.43571 0.59344 0.0
C325 C 1.01998 0.37928 0.53426 0.0
C326 C 0.03118 0.44252 0.46721 0.0
C327 C 0.03262 0.4183 0.37658 0.0
H328 H 0.86365 0.03039 0.36468 0.0
H329 H 0.79551 0.99201 0.10645 0.0
H330 H 0.83742 0.9835 0.95258 0.0
H331 H 0.89343 0.99008 0.88429 0.0
H332 H 0.96063 0.03228 0.13777 0.0
H333 H 0.91948 0.03689 0.2972 0.0
C334 C 0.85786 0.02027 0.27463 0.0
C335 C 0.82602 1.01182 0.24864 0.0
C336 C 0.88216 1.01648 0.1841 0.0
C337 C 0.81954 0.99817 0.13133 0.0
C338 C 0.84362 0.99368 0.04221 0.0
C339 C 0.89919 1.00013 0.97465 0.0
C340 C 0.9305 1.01083 0.99784 0.0
C341 C 0.87501 1.00314 0.06645 0.0
C342 C 0.93705 0.02388 0.11612 0.0
C343 C 0.91339 0.02649 0.20786 0.0
H344 H 0.48808 0.86231 0.36653 0.0
H345 H 0.53267 0.79364 0.12928 0.0
H346 H 0.54343 0.83469 0.97351 0.0
H347 H 0.53648 0.88982 0.89633 0.0
H348 H 0.48913 0.95759 0.13037 0.0
H349 H 0.48256 0.91749 0.2928 0.0
C350 C 0.50026 0.85636 0.28092 0.0
C351 C 0.5096 0.8247 0.2605 0.0
C352 C 0.50547 0.88007 0.18961 0.0
C353 C 0.52571 0.81771 0.14915 0.0
C354 C 0.53151 0.84122 0.05909 0.0
C355 C 0.52494 0.89592 0.98326 0.0
C356 C 0.5132 0.92695 1.00011 0.0
C357 C 0.52098 0.87244 0.07693 0.0
C358 C 0.4983 0.9341 0.11395 0.0
C359 C 0.49457 0.91111 0.20731 0.0
H360 H 0.66503 0.48685 0.34944 0.0
H361 H 0.72544 0.54757 0.13448 0.0
H362 H 0.68142 0.55901 0.99071 0.0
H363 H 0.62604 0.54786 0.91564 0.0
H364 H 0.56756 0.48459 0.13029 0.0
H365 H 0.61091 0.47735 0.27893 0.0
C366 C 0.66851 0.50282 0.2717 0.0
C367 C 0.69868 0.51635 0.25358 0.0
C368 C 0.64333 0.50842 0.18697 0.0
C369 C 0.70249 0.5372 0.15241 0.0
C370 C 0.67732 0.5434 0.06906 0.0
C371 C 0.62253 0.53275 0.99599 0.0
C372 C 0.59315 0.5168 0.01061 0.0
C373 C 0.64765 0.52859 0.08367 0.0
C374 C 0.58948 0.49729 0.11568 0.0
C375 C 0.61419 0.49316 0.20169 0.0
H376 H 0.04906 0.71127 0.09904 0.0
H377 H 0.99755 0.67838 0.41901 0.0
H378 H 0.98662 0.62801 0.31202 0.0
H379 H 0.99193 0.59253 0.12394 0.0
H380 H 0.04437 0.62664 0.80707 0.0
H381 H 0.05511 0.67627 0.91567 0.0
C382 C 0.03524 0.69317 0.14516 0.0
C383 C 0.0237 0.69914 0.26689 0.0
C384 C 0.02944 0.66399 0.0832 0.0
C385 C 1.00606 0.67503 0.32474 0.0
C386 C 1.00008 0.64598 0.26359 0.0
C387 C 1.00581 0.61078 0.079 0.0
C388 C 1.0173 0.6055 0.95631 0.0
C389 C 1.01166 0.64002 0.1424 0.0
C390 C 0.03515 0.62975 0.90052 0.0
C391 C 0.04126 0.65835 0.96278 0.0
H392 H 0.08823 0.21572 0.07547 0.0
H393 H 0.0641 0.23673 0.45643 0.0
H394 H 0.07125 0.18177 0.51373 0.0
H395 H 0.06494 0.12772 0.44225 0.0
H396 H 0.07205 0.10605 0.0512 0.0
H397 H 0.09102 0.15979 0.00901 0.0
C398 C 0.08505 0.20809 0.17101 0.0
C399 C 0.07443 0.2299 0.26038 0.0
C400 C 0.0853 0.17573 0.19995 0.0
C401 C 0.07212 0.22038 0.38563 0.0
C402 C 0.07563 0.18876 0.41799 0.0
C403 C 0.07219 0.1345 0.34885 0.0
C404 C 0.06709 0.11346 0.24976 0.0
C405 C 0.07938 0.16608 0.32408 0.0
C406 C 0.07598 0.12209 0.12857 0.0
C407 C 0.08627 0.15294 0.10453 0.0
H408 H 0.31355 0.08914 0.10419 0.0
H409 H 0.29621 0.05508 0.47598 0.0
H410 H 0.35169 0.06189 0.52933 0.0
H411 H 0.40507 0.05888 0.45024 0.0
H412 H 0.42248 0.07212 0.05858 0.0
H413 H 0.36872 0.09262 0.03029 0.0
C414 C 0.32213 0.08369 0.19698 0.0
C415 C 0.30117 0.07092 0.28494 0.0
C416 C 0.35471 0.08335 0.22131 0.0
C417 C 0.31193 0.06507 0.40684 0.0
C418 C 0.34377 0.06847 0.43663 0.0
C419 C 0.39736 0.06775 0.36006 0.0
C420 C 0.41711 0.06394 0.25644 0.0
C421 C 0.36553 0.07494 0.34179 0.0
C422 C 0.4074 0.07501 0.13933 0.0
C423 C 0.37652 0.0861 0.12312 0.0
H424 H 0.58398 0.27291 0.39768 0.0
H425 H 0.5755 0.28691 1.00186 0.0
H426 H 0.60475 0.3368 0.01862 0.0
H427 H 0.61634 0.38195 0.15725 0.0
H428 H 0.62128 0.36713 0.5551 0.0
H429 H 0.61286 0.31097 0.52574 0.0
C430 C 0.59027 0.28595 0.31424 0.0
C431 C 0.57664 0.2774 0.19969 0.0
C432 C 0.60656 0.31448 0.32559 0.0
C433 C 0.58489 0.29406 0.09161 0.0
C434 C 0.60159 0.32247 0.1014 0.0
C435 C 0.61707 0.3661 0.23671 0.0
C436 C 0.61773 0.37872 0.35823 0.0
C437 C 0.61009 0.33404 0.21968 0.0
C438 C 0.62002 0.35811 0.46056 0.0
C439 C 0.61465 0.32595 0.44406 0.0
H440 H 0.22918 0.59809 0.04782 0.0
H441 H 0.2508 0.58977 0.43976 0.0
H442 H 0.205 0.62106 0.49267 0.0
H443 H 0.15289 0.63637 0.43367 0.0
H444 H 0.12469 0.63686 0.04615 0.0
H445 H 0.17871 0.62363 0.985 0.0
C446 C 0.22403 0.60386 0.14423 0.0
C447 C 0.24321 0.59157 0.23978 0.0
C448 C 0.19601 0.61984 0.17486 0.0
C449 C 0.23675 0.5994 0.36449 0.0
C450 C 0.21025 0.61697 0.39497 0.0
C451 C 0.15844 0.63508 0.33515 0.0
C452 C 0.1342 0.63587 0.24526 0.0
C453 C 0.18875 0.62545 0.30166 0.0
C454 C 0.14261 0.63493 0.11809 0.0
C455 C 0.17348 0.6271 0.08302 0.0
H456 H 0.09141 0.78719 0.20723 0.0
H457 H 0.092 0.79638 0.60663 0.0
H458 H 0.1194 0.84733 0.59007 0.0
H459 H 0.12997 0.89381 0.45761 0.0
H460 H 0.12629 0.88357 0.05658 0.0
H461 H 0.11625 0.82761 0.07785 0.0
C462 C 0.09909 0.79959 0.29059 0.0
C463 C 0.0889 0.78903 0.40757 0.0
C464 C 0.11442 0.82871 0.27964 0.0
C465 C 0.09879 0.805 0.51552 0.0
C466 C 0.11447 0.83398 0.50585 0.0
C467 C 0.12806 0.87907 0.375 0.0
C468 C 0.12752 0.8932 0.25609 0.0
C469 C 0.12037 0.847 0.38772 0.0
C470 C 0.12637 0.87367 0.1497 0.0
C471 C 0.12006 0.84154 0.16155 0.0
H472 H 0.75027 0.08713 0.23783 0.0
H473 H 0.7356 0.07736 0.63251 0.0
H474 H 0.68494 0.10501 0.61514 0.0
H475 H 0.63967 0.11529 0.47539 0.0
H476 H 0.65511 0.12125 0.07818 0.0
H477 H 0.71146 0.11463 0.10928 0.0
C478 C 0.73685 0.0928 0.32097 0.0
C479 C 0.74546 0.07911 0.43511 0.0
C480 C 0.70778 0.10802 0.30909 0.0
C481 C 0.7284 0.08671 0.54294 0.0
C482 C 0.69952 0.10246 0.53276 0.0
C483 C 0.65564 0.11657 0.39645 0.0
C484 C 0.6432 0.11712 0.27452 0.0
C485 C 0.68789 0.11068 0.41437 0.0
C486 C 0.66396 0.1201 0.173 0.0
C487 C 0.69627 0.1158 0.19048 0.0
H488 H 0.43618 0.72641 0.58896 0.0
H489 H 0.43764 0.74975 0.19802 0.0
H490 H 0.40795 0.70229 0.14847 0.0
H491 H 0.39848 0.64839 0.20634 0.0
H492 H 0.40599 0.61944 0.5913 0.0
H493 H 0.41531 0.67423 0.65367 0.0
C494 C 0.42929 0.72121 0.49369 0.0
C495 C 0.43967 0.74099 0.39704 0.0
C496 C 0.41469 0.6923 0.4646 0.0
C497 C 0.42982 0.73487 0.27405 0.0
C498 C 0.41322 0.70746 0.24547 0.0
C499 C 0.40054 0.65395 0.30481 0.0
C500 C 0.40303 0.6296 0.39325 0.0
C501 C 0.40786 0.68497 0.33858 0.0
C502 C 0.40518 0.63768 0.52057 0.0
C503 C 0.41073 0.669 0.55623 0.0
H504 H 0.80392 0.44153 0.5332 0.0
H505 H 0.78139 0.45141 0.14281 0.0
H506 H 0.82764 0.42095 0.08615 0.0
H507 H 0.8801 0.40559 0.14315 0.0
H508 H 0.90869 0.40386 0.52996 0.0
H509 H 0.85463 0.41632 0.59313 0.0
C510 C 0.80895 0.4362 0.4363 0.0
C511 C 0.78946 0.44867 0.34225 0.0
C512 C 0.83704 0.42063 0.40386 0.0
C513 C 0.79585 0.44165 0.21672 0.0
C514 C 0.8225 0.42451 0.18424 0.0
C515 C 0.8745 0.40636 0.24179 0.0
C516 C 0.89878 0.40513 0.33133 0.0
C517 C 0.84418 0.4157 0.27647 0.0
C518 C 0.89059 0.40574 0.45868 0.0
C519 C 0.85974 0.41321 0.49482 0.0
H520 H 0.04429 0.23088 0.94157 0.0
H521 H 0.98543 0.21674 0.26321 0.0
H522 H 0.97129 0.1638 0.18765 0.0
H523 H 0.98218 0.11774 0.04559 0.0
H524 H 0.04355 0.13103 0.73047 0.0
H525 H 0.05084 0.18669 0.78806 0.0
C526 C 0.02812 0.21624 0.99446 0.0
C527 C 1.01614 0.22801 0.10923 0.0
C528 C 0.02158 0.18478 0.95352 0.0
C529 C 0.99501 0.20863 0.17527 0.0
C530 C 0.98742 0.17797 0.13275 0.0
C531 C 0.99737 0.13279 0.99021 0.0
C532 C 1.013 0.11953 0.88543 0.0
C533 C 1.00169 0.16511 0.02511 0.0
C534 C 0.03137 0.14005 0.81181 0.0
C535 C 0.03563 0.17208 0.84523 0.0
H536 H 0.29791 0.04919 0.94755 0.0
H537 H 0.30896 0.98466 0.25392 0.0
H538 H 0.36164 0.97014 0.17803 0.0
H539 H 0.40819 0.98112 0.03981 0.0
H540 H 0.39804 0.04725 0.7381 0.0
H541 H 0.34267 0.05614 0.79635 0.0
C542 C 0.3117 0.03155 0.99644 0.0
C543 C 0.29912 1.01802 0.10719 0.0
C544 C 0.343 0.02445 0.95496 0.0
C545 C 0.31763 0.9953 0.16875 0.0
C546 C 0.34814 0.98743 0.12611 0.0
C547 C 0.39391 0.99768 0.98745 0.0
C548 C 0.40799 1.01413 0.88639 0.0
C549 C 0.36173 1.00278 0.02237 0.0
C550 C 0.38838 0.03438 0.8166 0.0
C551 C 0.35651 0.03954 0.8504 0.0
H552 H 0.51831 0.29494 0.96171 0.0
H553 H 0.50814 0.32019 0.34822 0.0
H554 H 0.5046 0.3763 0.29092 0.0
H555 H 0.50627 0.41879 0.13066 0.0
H556 H 0.51913 0.39362 0.74393 0.0
H557 H 0.52014 0.33762 0.80086 0.0
C558 C 0.51484 0.31275 0.03305 0.0
C559 C 0.51301 0.30311 0.15954 0.0
C560 C 0.51373 0.34527 0.99906 0.0
C561 C 0.50897 0.32669 0.25058 0.0
C562 C 0.50729 0.35888 0.21754 0.0
C563 C 0.50922 0.40115 0.05827 0.0
C564 C 0.51252 0.41103 0.93211 0.0
C565 C 0.50995 0.3686 0.0921 0.0
C566 C 0.5165 0.38728 0.84125 0.0
C567 C 0.517 0.35502 0.87399 0.0
H568 H 0.19991 0.53669 0.25265 0.0
H569 H 0.25367 0.52685 0.91541 0.0
H570 H 0.20446 0.52171 0.79336 0.0
H571 H 0.14468 0.52161 0.7815 0.0
H572 H 0.09285 0.53007 0.12632 0.0
H573 H 0.14166 0.53497 0.24266 0.0
C574 C 0.20087 0.53295 0.15263 0.0
C575 C 0.23074 0.53189 0.09394 0.0
C576 C 0.17231 0.53039 0.08278 0.0
C577 C 0.23124 0.52732 0.96368 0.0
C578 C 0.20292 0.52471 0.89358 0.0
C579 C 0.14403 0.52456 0.88191 0.0
C580 C 0.11424 0.52574 0.94313 0.0
C581 C 0.17305 0.52652 0.95156 0.0
C582 C 0.1147 0.52927 0.07434 0.0
C583 C 0.14293 0.53192 0.14233 0.0
H584 H 0.03639 0.80088 0.66714 0.0
H585 H 1.01139 0.8231 0.2882 0.0
H586 H 1.00392 0.87878 0.34622 0.0
H587 H 1.00671 0.92218 0.50352 0.0
H588 H 0.03424 0.90031 0.88148 0.0
H589 H 0.03892 0.8444 0.8254 0.0
C590 C 0.02885 0.81786 0.5977 0.0
C591 C 0.02399 0.80738 0.47307 0.0
C592 C 0.02549 0.85033 0.63168 0.0
C593 C 1.01463 0.83006 0.38466 0.0
C594 C 1.01073 0.86211 0.41796 0.0
C595 C 1.0136 0.90528 0.57437 0.0
C596 C 1.01993 0.91615 0.69787 0.0
C597 C 1.01642 0.87272 0.54096 0.0
C598 C 0.02909 0.89329 0.78634 0.0
C599 C 0.03173 0.86103 0.75406 0.0
H600 H 0.72726 0.02071 0.66451 0.0
H601 H 0.70291 1.00939 0.27724 0.0
H602 H 0.64676 1.0043 0.33304 0.0
H603 H 0.60369 1.00483 0.49269 0.0
H604 H 0.6282 1.01956 0.87943 0.0
H605 H 0.68422 0.02196 0.82373 0.0
C606 C 0.70967 1.01676 0.59246 0.0
C607 C 0.71972 1.01504 0.46624 0.0
C608 C 0.67704 1.01483 0.62554 0.0
C609 C 0.69627 1.0102 0.3747 0.0
C610 C 0.66398 1.00762 0.40693 0.0
C611 C 0.62119 1.00847 0.56534 0.0
C612 C 0.611 1.01184 0.69135 0.0
C613 C 0.65389 1.01016 0.53209 0.0
C614 C 0.63465 1.01681 0.78228 0.0
C615 C 0.66698 1.01813 0.75023 0.0
H616 H 0.49282 0.72848 0.67358 0.0
H617 H 0.51227 0.70206 0.29404 0.0
H618 H 0.51771 0.64653 0.35738 0.0
H619 H 0.51528 0.60489 0.52023 0.0
H620 H 0.49402 0.63102 0.90005 0.0
H621 H 0.4907 0.68658 0.83776 0.0
C622 C 0.49882 0.71057 0.60537 0.0
C623 C 0.50269 0.71967 0.47901 0.0
C624 C 0.5012 0.67837 0.6427 0.0
C625 C 0.50982 0.69597 0.39165 0.0
C626 C 0.51259 0.66411 0.42805 0.0
C627 C 0.51005 0.62265 0.59009 0.0
C628 C 0.50507 0.6132 0.71585 0.0
C629 C 0.50809 0.65489 0.55321 0.0
C630 C 0.49808 0.63706 0.80322 0.0
C631 C 0.49621 0.66906 0.76739 0.0
H632 H 0.83321 0.50676 0.32159 0.0
H633 H 0.78142 0.50905 0.66561 0.0
H634 H 0.83121 0.51275 0.78445 0.0
H635 H 0.89091 0.51368 0.79115 0.0
H636 H 0.9409 0.51404 0.44057 0.0
H637 H 0.89156 0.51031 0.32708 0.0
C638 C 0.83282 0.50875 0.42245 0.0
C639 C 0.80333 0.50822 0.48404 0.0
C640 C 0.86175 0.51067 0.4904 0.0
C641 C 0.80356 0.51009 0.61533 0.0
C642 C 0.8322 0.51185 0.68349 0.0
C643 C 0.89107 0.51295 0.69007 0.0
C644 C 0.92052 0.51359 0.62634 0.0
C645 C 0.86171 0.51186 0.62247 0.0
C646 C 0.91937 0.51305 0.49446 0.0
C647 C 0.89081 0.51115 0.42815 0.0
loop_
_geom_bond_atom_site_label_1
_geom_bond_atom_site_label_2
_geom_bond_distance
_geom_bond_site_symmetry_2
_ccdc_geom_bond_type
C0 N1 1.317 . S
C0 N2 1.348 . S
C0 C3 1.485 . S
N1 C0 1.317 . S
N1 N5 1.370 . S
N2 C0 1.348 . S
N2 C4 1.346 . S
C3 C0 1.485 . S
C3 H7 0.960 . S
C3 H8 0.961 . S
C3 H9 0.960 . S
C4 N2 1.346 . S
C4 N5 1.307 . S
C4 C6 1.486 . S
N5 N1 1.370 . S
N5 C4 1.307 . S
C6 C4 1.486 . S
C6 H10 0.960 . S
C6 H11 0.960 . S
C6 H12 0.959 . S
H7 C3 0.960 . S
H8 C3 0.961 . S
H9 C3 0.960 . S
H10 C6 0.960 . S
H11 C6 0.960 . S
H12 C6 0.959 . S
C13 N14 1.317 . S
C13 N15 1.350 . S
C13 C16 1.485 . S
N14 C13 1.317 . S
N14 N18 1.371 . S
N15 C13 1.350 . S
N15 C17 1.345 1_655 S
C16 C13 1.485 . S
C16 H20 0.960 1_655 S
C16 H21 0.961 . S
C16 H22 0.960 . S
C17 N15 1.345 1_455 S
C17 N18 1.307 1_455 S
C17 C19 1.486 . S
N18 N14 1.371 . S
N18 C17 1.307 1_655 S
C19 C17 1.486 . S
C19 H23 0.960 1_455 S
C19 H24 0.960 . S
C19 H25 0.959 . S
H20 C16 0.960 1_455 S
H21 C16 0.961 . S
H22 C16 0.960 . S
H23 C19 0.960 1_655 S
H24 C19 0.960 . S
H25 C19 0.959 . S
C26 N27 1.317 . S
C26 N28 1.350 . S
C26 C29 1.485 . S
N27 C26 1.317 . S
N27 N31 1.371 . S
N28 C26 1.350 . S
N28 C30 1.345 1_565 S
C29 C26 1.485 . S
C29 H33 0.960 1_565 S
C29 H34 0.961 . S
C29 H35 0.960 . S
C30 N28 1.345 1_545 S
C30 N31 1.307 1_545 S
C30 C32 1.486 . S
N31 N27 1.371 . S
N31 C30 1.307 1_565 S
C32 C30 1.486 . S
C32 H36 0.960 1_545 S
C32 H37 0.960 . S
C32 H38 0.959 . S
H33 C29 0.960 1_545 S
H34 C29 0.961 . S
H35 C29 0.960 . S
H36 C32 0.960 1_565 S
H37 C32 0.960 . S
H38 C32 0.959 . S
C39 N40 1.317 . S
C39 N41 1.348 . S
C39 C42 1.485 . S
N40 C39 1.317 . S
N40 N44 1.370 . S
N41 C39 1.348 . S
N41 C43 1.346 . S
C42 C39 1.485 . S
C42 H46 0.960 . S
C42 H47 0.961 . S
C42 H48 0.960 . S
C43 N41 1.346 . S
C43 N44 1.307 . S
C43 C45 1.486 . S
N44 N40 1.370 . S
N44 C43 1.307 . S
C45 C43 1.486 . S
C45 H49 0.960 . S
C45 H50 0.960 . S
C45 H51 0.959 . S
H46 C42 0.960 . S
H47 C42 0.961 . S
H48 C42 0.960 . S
H49 C45 0.960 . S
H50 C45 0.960 . S
H51 C45 0.959 . S
C52 N53 1.317 . S
C52 N54 1.348 1_556 S
C52 C55 1.485 . S
N53 C52 1.317 . S
N53 N57 1.370 1_556 S
N54 C52 1.348 1_554 S
N54 C56 1.346 . S
C55 C52 1.485 . S
C55 H59 0.960 . S
C55 H60 0.961 . S
C55 H61 0.960 . S
C56 N54 1.346 . S
C56 N57 1.307 . S
C56 C58 1.486 . S
N57 N53 1.370 1_554 S
N57 C56 1.307 . S
C58 C56 1.486 . S
C58 H62 0.960 . S
C58 H63 0.960 . S
C58 H64 0.959 . S
H59 C55 0.960 . S
H60 C55 0.961 . S
H61 C55 0.960 . S
H62 C58 0.960 . S
H63 C58 0.960 . S
H64 C58 0.959 . S
C65 N66 1.317 . S
C65 N67 1.350 1_556 S
C65 C68 1.485 . S
N66 C65 1.317 . S
N66 N70 1.370 1_556 S
N67 C65 1.350 1_554 S
N67 C69 1.345 1_655 S
C68 C65 1.485 . S
C68 H72 0.960 1_655 S
C68 H73 0.961 . S
C68 H74 0.960 . S
C69 N67 1.345 1_455 S
C69 N70 1.307 1_455 S
C69 C71 1.486 . S
N70 N66 1.370 1_554 S
N70 C69 1.307 1_655 S
C71 C69 1.486 . S
C71 H75 0.960 1_455 S
C71 H76 0.960 . S
C71 H77 0.959 . S
H72 C68 0.960 1_455 S
H73 C68 0.961 . S
H74 C68 0.960 . S
H75 C71 0.960 1_655 S
H76 C71 0.960 . S
H77 C71 0.959 . S
C78 N79 1.317 . S
C78 N80 1.350 1_556 S
C78 C81 1.485 . S
N79 C78 1.317 . S
N79 N83 1.370 1_556 S
N80 C78 1.350 1_554 S
N80 C82 1.345 1_565 S
C81 C78 1.485 . S
C81 H85 0.960 1_565 S
C81 H86 0.961 . S
C81 H87 0.960 . S
C82 N80 1.345 1_545 S
C82 N83 1.307 1_545 S
C82 C84 1.486 . S
N83 N79 1.370 1_554 S
N83 C82 1.307 1_565 S
C84 C82 1.486 . S
C84 H88 0.960 1_545 S
C84 H89 0.960 . S
C84 H90 0.959 . S
H85 C81 0.960 1_545 S
H86 C81 0.961 . S
H87 C81 0.960 . S
H88 C84 0.960 1_565 S
H89 C84 0.960 . S
H90 C84 0.959 . S
C91 N92 1.317 . S
C91 N93 1.348 1_556 S
C91 C94 1.485 . S
N92 C91 1.317 . S
N92 N96 1.370 1_556 S
N93 C91 1.348 1_554 S
N93 C95 1.346 . S
C94 C91 1.485 . S
C94 H98 0.960 . S
C94 H99 0.961 . S
C94 H100 0.960 . S
C95 N93 1.346 . S
C95 N96 1.307 . S
C95 C97 1.486 . S
N96 N92 1.370 1_554 S
N96 C95 1.307 . S
C97 C95 1.486 . S
C97 H101 0.960 . S
C97 H102 0.960 . S
C97 H103 0.959 . S
H98 C94 0.960 . S
H99 C94 0.961 . S
H100 C94 0.960 . S
H101 C97 0.960 . S
H102 C97 0.960 . S
H103 C97 0.959 . S
Gd104 C107 2.818 1_556 S
Gd104 O124 2.377 . S
Gd104 O126 2.448 1_556 S
Gd104 O127 2.506 1_556 S
Gd104 O128 2.435 . S
Gd104 O129 2.717 1_565 S
Gd104 O131 2.395 1_565 S
Gd104 O135 2.327 1_455 S
Gd105 C116 2.818 . S
Gd105 O125 2.395 1_545 S
Gd105 O129 2.327 1_655 S
Gd105 O130 2.377 . S
Gd105 O132 2.448 . S
Gd105 O133 2.506 . S
Gd105 O134 2.435 . S
Gd105 O135 2.717 1_545 S
C106 O124 1.240 1_655 S
C106 O125 1.240 . S
C107 Gd104 2.818 1_554 S
C107 C108 1.510 . S
C107 O126 1.249 . S
C107 O127 1.252 . S
C108 C107 1.510 . S
C108 C109 1.404 . S
C108 C110 1.352 . S
C109 C108 1.404 . S
C109 C113 1.389 . S
C109 H136 0.930 . S
C110 C108 1.352 . S
C110 C112 1.374 . S
C110 H137 0.931 1_455 S
C111 C112 1.359 . S
C111 C113 1.364 . S
C112 C110 1.374 . S
C112 C111 1.359 . S
C112 H138 0.931 1_455 S
C113 C109 1.389 . S
C113 C111 1.364 . S
C113 H139 0.931 . S
C114 O128 1.256 . S
C114 O129 1.257 1_565 S
C115 O130 1.240 1_455 S
C115 O131 1.240 . S
C116 Gd105 2.818 . S
C116 C117 1.510 . S
C116 O132 1.249 . S
C116 O133 1.252 . S
C117 C116 1.510 . S
C117 C118 1.404 . S
C117 C119 1.352 . S
C118 C117 1.404 . S
C118 C122 1.389 . S
C118 H140 0.930 . S
C119 C117 1.352 . S
C119 C121 1.374 . S
C119 H141 0.931 1_655 S
C120 C121 1.359 . S
C120 C122 1.364 . S
C121 C119 1.374 . S
C121 C120 1.359 . S
C121 H142 0.931 1_655 S
C122 C118 1.389 . S
C122 C120 1.364 . S
C122 H143 0.931 . S
C123 O134 1.256 . S
C123 O135 1.257 1_545 S
O124 Gd104 2.377 . S
O124 C106 1.240 1_455 S
O125 Gd105 2.395 1_565 S
O125 C106 1.240 . S
O126 Gd104 2.448 1_554 S
O126 C107 1.249 . S
O127 Gd104 2.506 1_554 S
O127 C107 1.252 . S
O128 Gd104 2.435 . S
O128 C114 1.256 . S
O129 Gd104 2.717 1_545 S
O129 Gd105 2.327 1_455 S
O129 C114 1.257 1_545 S
O130 Gd105 2.377 . S
O130 C115 1.240 1_655 S
O131 Gd104 2.395 1_545 S
O131 C115 1.240 . S
O132 Gd105 2.448 . S
O132 C116 1.249 . S
O133 Gd105 2.506 . S
O133 C116 1.252 . S
O134 Gd105 2.435 . S
O134 C123 1.256 . S
O135 Gd104 2.327 1_655 S
O135 Gd105 2.717 1_565 S
O135 C123 1.257 1_565 S
H136 C109 0.930 . S
H137 C110 0.931 1_655 S
H138 C112 0.931 1_655 S
H139 C113 0.931 . S
H140 C118 0.930 . S
H141 C119 0.931 1_455 S
H142 C121 0.931 1_455 S
H143 C122 0.931 . S
Gd144 C147 2.818 1_556 S
Gd144 O164 2.377 . S
Gd144 O166 2.448 1_556 S
Gd144 O167 2.506 1_556 S
Gd144 O168 2.435 . S
Gd144 O169 2.717 . S
Gd144 O171 2.395 . S
Gd144 O175 2.327 1_545 S
Gd145 C156 2.818 . S
Gd145 O165 2.395 . S
Gd145 O169 2.327 1_565 S
Gd145 O170 2.377 . S
Gd145 O172 2.448 . S
Gd145 O173 2.506 . S
Gd145 O174 2.435 . S
Gd145 O175 2.717 . S
C146 O164 1.240 1_565 S
C146 O165 1.240 . S
C147 Gd144 2.818 1_554 S
C147 C148 1.510 . S
C147 O166 1.249 . S
C147 O167 1.252 . S
C148 C147 1.510 . S
C148 C149 1.404 . S
C148 C150 1.352 . S
C149 C148 1.404 . S
C149 C153 1.389 . S
C149 H176 0.930 . S
C150 C148 1.352 . S
C150 C152 1.374 . S
C150 H177 0.931 1_545 S
C151 C152 1.359 . S
C151 C153 1.364 . S
C152 C150 1.374 . S
C152 C151 1.359 . S
C152 H178 0.931 1_545 S
C153 C149 1.389 . S
C153 C151 1.364 . S
C153 H179 0.931 . S
C154 O168 1.256 . S
C154 O169 1.257 . S
C155 O170 1.240 1_545 S
C155 O171 1.240 . S
C156 Gd145 2.818 . S
C156 C157 1.510 . S
C156 O172 1.249 . S
C156 O173 1.252 . S
C157 C156 1.510 . S
C157 C158 1.404 . S
C157 C159 1.352 . S
C158 C157 1.404 . S
C158 C162 1.389 . S
C158 H180 0.930 . S
C159 C157 1.352 . S
C159 C161 1.374 . S
C159 H181 0.931 1_565 S
C160 C161 1.359 . S
C160 C162 1.364 . S
C161 C159 1.374 . S
C161 C160 1.359 . S
C161 H182 0.931 1_565 S
C162 C158 1.389 . S
C162 C160 1.364 . S
C162 H183 0.931 . S
C163 O174 1.256 . S
C163 O175 1.257 . S
O164 Gd144 2.377 . S
O164 C146 1.240 1_545 S
O165 Gd145 2.395 . S
O165 C146 1.240 . S
O166 Gd144 2.448 1_554 S
O166 C147 1.249 . S
O167 Gd144 2.506 1_554 S
O167 C147 1.252 . S
O168 Gd144 2.435 . S
O168 C154 1.256 . S
O169 Gd144 2.717 . S
O169 Gd145 2.327 1_545 S
O169 C154 1.257 . S
O170 Gd145 2.377 . S
O170 C155 1.240 1_565 S
O171 Gd144 2.395 . S
O171 C155 1.240 . S
O172 Gd145 2.448 . S
O172 C156 1.249 . S
O173 Gd145 2.506 . S
O173 C156 1.252 . S
O174 Gd145 2.435 . S
O174 C163 1.256 . S
O175 Gd144 2.327 1_565 S
O175 Gd145 2.717 . S
O175 C163 1.257 . S
H176 C149 0.930 . S
H177 C150 0.931 1_565 S
H178 C152 0.931 1_565 S
H179 C153 0.931 . S
H180 C158 0.930 . S
H181 C159 0.931 1_545 S
H182 C161 0.931 1_545 S
H183 C162 0.931 . S
Gd184 C187 2.818 1_556 S
Gd184 O204 2.377 . S
Gd184 O206 2.448 1_556 S
Gd184 O207 2.506 1_556 S
Gd184 O208 2.435 . S
Gd184 O209 2.717 . S
Gd184 O211 2.395 . S
Gd184 O215 2.327 . S
Gd185 C196 2.818 . S
Gd185 O205 2.395 . S
Gd185 O209 2.327 . S
Gd185 O210 2.377 . S
Gd185 O212 2.448 . S
Gd185 O213 2.506 . S
Gd185 O214 2.435 . S
Gd185 O215 2.717 . S
C186 O204 1.240 . S
C186 O205 1.240 . S
C187 Gd184 2.818 1_554 S
C187 C188 1.510 . S
C187 O206 1.249 . S
C187 O207 1.252 . S
C188 C187 1.510 . S
C188 C189 1.404 . S
C188 C190 1.352 . S
C189 C188 1.404 . S
C189 C193 1.389 . S
C189 H216 0.930 . S
C190 C188 1.352 . S
C190 C192 1.374 . S
C190 H217 0.931 . S
C191 C192 1.359 . S
C191 C193 1.364 . S
C192 C190 1.374 . S
C192 C191 1.359 . S
C192 H218 0.931 . S
C193 C189 1.389 . S
C193 C191 1.364 . S
C193 H219 0.931 . S
C194 O208 1.256 . S
C194 O209 1.257 . S
C195 O210 1.240 . S
C195 O211 1.240 . S
C196 Gd185 2.818 . S
C196 C197 1.510 . S
C196 O212 1.249 . S
C196 O213 1.252 . S
C197 C196 1.510 . S
C197 C198 1.404 . S
C197 C199 1.352 . S
C198 C197 1.404 . S
C198 C202 1.389 . S
C198 H220 0.930 . S
C199 C197 1.352 . S
C199 C201 1.374 . S
C199 H221 0.931 . S
C200 C201 1.359 . S
C200 C202 1.364 . S
C201 C199 1.374 . S
C201 C200 1.359 . S
C201 H222 0.931 . S
C202 C198 1.389 . S
C202 C200 1.364 . S
C202 H223 0.931 . S
C203 O214 1.256 . S
C203 O215 1.257 . S
O204 Gd184 2.377 . S
O204 C186 1.240 . S
O205 Gd185 2.395 . S
O205 C186 1.240 . S
O206 Gd184 2.448 1_554 S
O206 C187 1.249 . S
O207 Gd184 2.506 1_554 S
O207 C187 1.252 . S
O208 Gd184 2.435 . S
O208 C194 1.256 . S
O209 Gd184 2.717 . S
O209 Gd185 2.327 . S
O209 C194 1.257 . S
O210 Gd185 2.377 . S
O210 C195 1.240 . S
O211 Gd184 2.395 . S
O211 C195 1.240 . S
O212 Gd185 2.448 . S
O212 C196 1.249 . S
O213 Gd185 2.506 . S
O213 C196 1.252 . S
O214 Gd185 2.435 . S
O214 C203 1.256 . S
O215 Gd184 2.327 . S
O215 Gd185 2.717 . S
O215 C203 1.257 . S
H216 C189 0.930 . S
H217 C190 0.931 . S
H218 C192 0.931 . S
H219 C193 0.931 . S
H220 C198 0.930 . S
H221 C199 0.931 . S
H222 C201 0.931 . S
H223 C202 0.931 . S
Gd224 C227 2.818 1_556 S
Gd224 O244 2.377 . S
Gd224 O246 2.448 1_556 S
Gd224 O247 2.506 1_556 S
Gd224 O248 2.435 . S
Gd224 O249 2.717 1_655 S
Gd224 O251 2.395 1_655 S
Gd224 O255 2.327 . S
Gd225 C236 2.818 . S
Gd225 O245 2.395 1_455 S
Gd225 O249 2.327 . S
Gd225 O250 2.377 . S
Gd225 O252 2.448 . S
Gd225 O253 2.506 . S
Gd225 O254 2.435 . S
Gd225 O255 2.717 1_455 S
C226 O244 1.240 . S
C226 O245 1.240 . S
C227 Gd224 2.818 1_554 S
C227 C228 1.510 . S
C227 O246 1.249 . S
C227 O247 1.252 . S
C228 C227 1.510 . S
C228 C229 1.404 . S
C228 C230 1.352 . S
C229 C228 1.404 . S
C229 C233 1.389 . S
C229 H256 0.930 . S
C230 C228 1.352 . S
C230 C232 1.374 . S
C230 H257 0.931 . S
C231 C232 1.359 . S
C231 C233 1.364 . S
C232 C230 1.374 . S
C232 C231 1.359 . S
C232 H258 0.931 . S
C233 C229 1.389 . S
C233 C231 1.364 . S
C233 H259 0.931 . S
C234 O248 1.273 . S
C234 O249 1.248 1_655 S
C235 O250 1.240 . S
C235 O251 1.240 . S
C236 Gd225 2.818 . S
C236 C237 1.510 . S
C236 O252 1.249 . S
C236 O253 1.252 . S
C237 C236 1.510 . S
C237 C238 1.404 . S
C237 C239 1.352 . S
C238 C237 1.404 . S
C238 C242 1.389 . S
C238 H260 0.930 . S
C239 C237 1.352 . S
C239 C241 1.374 . S
C239 H261 0.931 . S
C240 C241 1.359 . S
C240 C242 1.364 . S
C241 C239 1.374 . S
C241 C240 1.359 . S
C241 H262 0.931 . S
C242 C238 1.389 . S
C242 C240 1.364 . S
C242 H263 0.931 . S
C243 O254 1.256 . S
C243 O255 1.257 1_455 S
O244 Gd224 2.377 . S
O244 C226 1.240 . S
O245 Gd225 2.395 1_655 S
O245 C226 1.240 . S
O246 Gd224 2.448 1_554 S
O246 C227 1.249 . S
O247 Gd224 2.506 1_554 S
O247 C227 1.252 . S
O248 Gd224 2.435 . S
O248 C234 1.273 . S
O249 Gd224 2.717 1_455 S
O249 Gd225 2.327 . S
O249 C234 1.248 1_455 S
O250 Gd225 2.377 . S
O250 C235 1.240 . S
O251 Gd224 2.395 1_455 S
O251 C235 1.240 . S
O252 Gd225 2.448 . S
O252 C236 1.249 . S
O253 Gd225 2.506 . S
O253 C236 1.252 . S
O254 Gd225 2.435 . S
O254 C243 1.256 . S
O255 Gd224 2.327 . S
O255 Gd225 2.717 1_655 S
O255 C243 1.257 1_655 S
H256 C229 0.930 . S
H257 C230 0.931 . S
H258 C232 0.931 . S
H259 C233 0.931 . S
H260 C238 0.930 . S
H261 C239 0.931 . S
H262 C241 0.931 . S
H263 C242 0.931 . S
H264 C270 0.930 . S
H265 C273 0.931 . S
H266 C274 0.931 . S
H267 C275 0.933 . S
H268 C278 0.930 . S
H269 C279 0.930 . S
C270 H264 0.930 . S
C270 C271 1.355 . S
C270 C272 1.415 . S
C271 C270 1.355 . S
C271 C273 1.418 1_545 S
C272 C270 1.415 . S
C272 C277 1.425 . S
C272 C279 1.409 . S
C273 H265 0.931 . S
C273 C271 1.418 1_565 S
C273 C274 1.362 . S
C274 H266 0.931 . S
C274 C273 1.362 . S
C274 C277 1.409 1_565 S
C275 H267 0.933 . S
C275 C276 1.352 1_565 S
C275 C277 1.414 1_565 S
C276 C275 1.352 1_545 S
C276 C278 1.422 . S
C277 C272 1.425 . S
C277 C274 1.409 1_545 S
C277 C275 1.414 1_545 S
C278 H268 0.930 . S
C278 C276 1.422 . S
C278 C279 1.362 . S
C279 H269 0.930 . S
C279 C272 1.409 . S
C279 C278 1.362 . S
H280 C286 0.930 . S
H281 C289 0.930 . S
H282 C290 0.930 . S
H283 C291 0.930 . S
H284 C294 0.930 . S
H285 C295 0.930 . S
C286 H280 0.930 . S
C286 C287 1.355 . S
C286 C288 1.415 . S
C287 C286 1.355 . S
C287 C289 1.419 . S
C288 C286 1.415 . S
C288 C293 1.425 . S
C288 C295 1.409 . S
C289 H281 0.930 . S
C289 C287 1.419 . S
C289 C290 1.362 . S
C290 H282 0.930 . S
C290 C289 1.362 . S
C290 C293 1.409 . S
C291 H283 0.930 . S
C291 C292 1.355 . S
C291 C293 1.415 . S
C292 C291 1.355 . S
C292 C294 1.419 . S
C293 C288 1.425 . S
C293 C290 1.409 . S
C293 C291 1.415 . S
C294 H284 0.930 . S
C294 C292 1.419 . S
C294 C295 1.362 . S
C295 H285 0.930 . S
C295 C288 1.409 . S
C295 C294 1.362 . S
H296 C302 0.930 . S
H297 C305 0.930 . S
H298 C306 0.930 . S
H299 C307 0.930 . S
H300 C310 0.930 . S
H301 C311 0.930 . S
C302 H296 0.930 . S
C302 C303 1.355 . S
C302 C304 1.415 . S
C303 C302 1.355 . S
C303 C305 1.419 . S
C304 C302 1.415 . S
C304 C309 1.425 . S
C304 C311 1.409 . S
C305 H297 0.930 . S
C305 C303 1.419 . S
C305 C306 1.362 . S
C306 H298 0.930 . S
C306 C305 1.362 . S
C306 C309 1.409 . S
C307 H299 0.930 . S
C307 C308 1.355 . S
C307 C309 1.415 . S
C308 C307 1.355 . S
C308 C310 1.419 . S
C309 C304 1.425 . S
C309 C306 1.409 . S
C309 C307 1.415 . S
C310 H300 0.930 . S
C310 C308 1.419 . S
C310 C311 1.362 . S
C311 H301 0.930 . S
C311 C304 1.409 . S
C311 C310 1.362 . S
H312 C318 0.930 . S
H313 C321 0.930 . S
H314 C322 0.930 . S
H315 C323 0.930 . S
H316 C326 0.930 . S
H317 C327 0.930 . S
C318 H312 0.930 . S
C318 C319 1.355 1_455 S
C318 C320 1.415 . S
C319 C318 1.355 1_655 S
C319 C321 1.419 . S
C320 C318 1.415 . S
C320 C325 1.425 1_455 S
C320 C327 1.409 . S
C321 H313 0.930 . S
C321 C319 1.419 . S
C321 C322 1.362 . S
C322 H314 0.930 . S
C322 C321 1.362 . S
C322 C325 1.409 . S
C323 H315 0.930 . S
C323 C324 1.355 1_655 S
C323 C325 1.415 . S
C324 C323 1.355 1_455 S
C324 C326 1.419 . S
C325 C320 1.425 1_655 S
C325 C322 1.409 . S
C325 C323 1.415 . S
C326 H316 0.930 . S
C326 C324 1.419 . S
C326 C327 1.362 . S
C327 H317 0.930 . S
C327 C320 1.409 . S
C327 C326 1.362 . S
H328 C334 0.930 . S
H329 C337 0.930 . S
H330 C338 0.930 . S
H331 C339 0.930 . S
H332 C342 0.927 1_556 S
H333 C343 0.930 . S
C334 H328 0.930 . S
C334 C335 1.355 1_545 S
C334 C336 1.415 . S
C335 C334 1.355 1_565 S
C335 C337 1.419 . S
C336 C334 1.415 . S
C336 C341 1.425 1_545 S
C336 C343 1.409 . S
C337 H329 0.930 . S
C337 C335 1.419 . S
C337 C338 1.362 . S
C338 H330 0.930 . S
C338 C337 1.362 . S
C338 C341 1.409 . S
C339 H331 0.930 . S
C339 C340 1.355 1_565 S
C339 C341 1.415 . S
C340 C339 1.355 1_545 S
C340 C342 1.419 . S
C341 C336 1.425 1_565 S
C341 C338 1.409 . S
C341 C339 1.415 . S
C342 H332 0.927 1_554 S
C342 C340 1.419 . S
C342 C343 1.362 . S
C343 H333 0.930 . S
C343 C336 1.409 . S
C343 C342 1.362 . S
H344 C350 0.930 . S
H345 C353 0.930 . S
H346 C354 0.930 . S
H347 C355 0.930 . S
H348 C358 0.930 . S
H349 C359 0.930 . S
C350 H344 0.930 . S
C350 C351 1.355 . S
C350 C352 1.415 . S
C351 C350 1.355 . S
C351 C353 1.419 . S
C352 C350 1.415 . S
C352 C357 1.425 . S
C352 C359 1.409 . S
C353 H345 0.930 . S
C353 C351 1.419 . S
C353 C354 1.362 . S
C354 H346 0.930 . S
C354 C353 1.362 . S
C354 C357 1.409 . S
C355 H347 0.930 . S
C355 C356 1.355 . S
C355 C357 1.415 . S
C356 C355 1.355 . S
C356 C358 1.419 . S
C357 C352 1.425 . S
C357 C354 1.409 . S
C357 C355 1.415 . S
C358 H348 0.930 . S
C358 C356 1.419 . S
C358 C359 1.362 . S
C359 H349 0.930 . S
C359 C352 1.409 . S
C359 C358 1.362 . S
H360 C366 0.930 . S
H361 C369 0.930 . S
H362 C370 0.930 . S
H363 C371 0.930 1_556 S
H364 C374 0.930 . S
H365 C375 0.930 . S
C366 H360 0.930 . S
C366 C367 1.355 . S
C366 C368 1.415 . S
C367 C366 1.355 . S
C367 C369 1.419 . S
C368 C366 1.415 . S
C368 C373 1.425 . S
C368 C375 1.409 . S
C369 H361 0.930 . S
C369 C367 1.419 . S
C369 C370 1.362 . S
C370 H362 0.930 . S
C370 C369 1.362 . S
C370 C373 1.409 . S
C371 H363 0.930 1_554 S
C371 C372 1.355 . S
C371 C373 1.415 . S
C372 C371 1.355 . S
C372 C374 1.419 . S
C373 C368 1.425 . S
C373 C370 1.409 . S
C373 C371 1.415 . S
C374 H364 0.930 . S
C374 C372 1.419 . S
C374 C375 1.362 . S
C375 H365 0.930 . S
C375 C368 1.409 . S
C375 C374 1.362 . S
H376 C382 0.930 . S
H377 C385 0.930 . S
H378 C386 0.930 . S
H379 C387 0.930 . S
H380 C390 0.930 1_556 S
H381 C391 0.930 . S
C382 H376 0.930 . S
C382 C383 1.351 1_655 S
C382 C384 1.415 . S
C383 C382 1.351 1_455 S
C383 C385 1.423 . S
C384 C382 1.415 . S
C384 C389 1.425 1_655 S
C384 C391 1.409 . S
C385 H377 0.930 . S
C385 C383 1.423 . S
C385 C386 1.362 . S
C386 H378 0.930 . S
C386 C385 1.362 . S
C386 C389 1.409 . S
C387 H379 0.930 . S
C387 C388 1.355 1_455 S
C387 C389 1.415 . S
C388 C387 1.355 1_655 S
C388 C390 1.419 . S
C389 C384 1.425 1_455 S
C389 C386 1.409 . S
C389 C387 1.415 . S
C390 H380 0.930 1_554 S
C390 C388 1.419 . S
C390 C391 1.362 . S
C391 H381 0.930 . S
C391 C384 1.409 . S
C391 C390 1.362 . S
H392 C398 0.930 . S
H393 C401 0.930 . S
H394 C402 0.930 . S
H395 C403 0.930 . S
H396 C406 0.930 . S
H397 C407 0.930 . S
C398 H392 0.930 . S
C398 C399 1.345 1_455 S
C398 C400 1.415 1_455 S
C399 C398 1.345 1_655 S
C399 C401 1.447 . S
C400 C398 1.415 1_655 S
C400 C405 1.425 . S
C400 C407 1.409 1_655 S
C401 H393 0.930 . S
C401 C399 1.447 . S
C401 C402 1.362 . S
C402 H394 0.930 . S
C402 C401 1.362 . S
C402 C405 1.409 . S
C403 H395 0.930 . S
C403 C404 1.355 . S
C403 C405 1.415 . S
C404 C403 1.355 . S
C404 C406 1.419 . S
C405 C400 1.425 . S
C405 C402 1.409 . S
C405 C403 1.415 . S
C406 H396 0.930 . S
C406 C404 1.419 . S
C406 C407 1.362 1_655 S
C407 H397 0.930 . S
C407 C400 1.409 1_455 S
C407 C406 1.362 1_455 S
H408 C414 0.930 . S
H409 C417 0.930 . S
H410 C418 0.930 . S
H411 C419 0.930 . S
H412 C422 0.930 . S
H413 C423 0.930 1_545 S
C414 H408 0.930 . S
C414 C415 1.354 1_545 S
C414 C416 1.415 1_545 S
C415 C414 1.354 1_565 S
C415 C417 1.422 . S
C416 C414 1.415 1_565 S
C416 C421 1.425 . S
C416 C423 1.409 . S
C417 H409 0.930 . S
C417 C415 1.422 . S
C417 C418 1.362 . S
C418 H410 0.930 . S
C418 C417 1.362 . S
C418 C421 1.409 . S
C419 H411 0.930 . S
C419 C420 1.355 . S
C419 C421 1.415 . S
C420 C419 1.355 . S
C420 C422 1.419 . S
C421 C416 1.425 . S
C421 C418 1.409 . S
C421 C419 1.415 . S
C422 H412 0.930 . S
C422 C420 1.419 . S
C422 C423 1.362 . S
C423 H413 0.930 1_565 S
C423 C416 1.409 . S
C423 C422 1.362 . S
H424 C430 0.930 . S
H425 C433 0.930 1_556 S
H426 C434 0.930 . S
H427 C435 0.930 . S
H428 C438 0.930 . S
H429 C439 0.930 . S
C430 H424 0.930 . S
C430 C431 1.355 . S
C430 C432 1.415 . S
C431 C430 1.355 . S
C431 C433 1.419 . S
C432 C430 1.415 . S
C432 C437 1.425 . S
C432 C439 1.409 . S
C433 H425 0.930 1_554 S
C433 C431 1.419 . S
C433 C434 1.362 . S
C434 H426 0.930 . S
C434 C433 1.362 . S
C434 C437 1.409 . S
C435 H427 0.930 . S
C435 C436 1.355 . S
C435 C437 1.415 . S
C436 C435 1.355 . S
C436 C438 1.419 . S
C437 C432 1.425 . S
C437 C434 1.409 . S
C437 C435 1.415 . S
C438 H428 0.930 . S
C438 C436 1.419 . S
C438 C439 1.362 . S
C439 H429 0.930 . S
C439 C432 1.409 . S
C439 C438 1.362 . S
H440 C446 0.930 . S
H441 C449 0.930 . S
H442 C450 0.930 . S
H443 C451 0.930 . S
H444 C454 0.930 . S
H445 C455 0.930 . S
C446 H440 0.930 . S
C446 C447 1.355 . S
C446 C448 1.415 . S
C447 C446 1.355 . S
C447 C449 1.419 . S
C448 C446 1.415 . S
C448 C453 1.425 . S
C448 C455 1.409 . S
C449 H441 0.930 . S
C449 C447 1.419 . S
C449 C450 1.362 . S
C450 H442 0.930 . S
C450 C449 1.362 . S
C450 C453 1.409 . S
C451 H443 0.930 . S
C451 C452 1.355 . S
C451 C453 1.415 . S
C452 C451 1.355 . S
C452 C454 1.419 . S
C453 C448 1.425 . S
C453 C450 1.409 . S
C453 C451 1.415 . S
C454 H444 0.930 . S
C454 C452 1.419 . S
C454 C455 1.362 . S
C455 H445 0.930 . S
C455 C448 1.409 . S
C455 C454 1.362 . S
H456 C462 0.930 . S
H457 C465 0.930 . S
H458 C466 0.930 . S
H459 C467 0.930 . S
H460 C470 0.930 . S
H461 C471 0.930 . S
C462 H456 0.930 . S
C462 C463 1.345 1_655 S
C462 C464 1.415 1_655 S
C463 C462 1.345 1_455 S
C463 C465 1.446 . S
C464 C462 1.415 1_455 S
C464 C469 1.425 . S
C464 C471 1.409 1_455 S
C465 H457 0.930 . S
C465 C463 1.446 . S
C465 C466 1.362 . S
C466 H458 0.930 . S
C466 C465 1.362 . S
C466 C469 1.409 . S
C467 H459 0.930 . S
C467 C468 1.355 . S
C467 C469 1.415 . S
C468 C467 1.355 . S
C468 C470 1.419 . S
C469 C464 1.425 . S
C469 C466 1.409 . S
C469 C467 1.415 . S
C470 H460 0.930 . S
C470 C468 1.419 . S
C470 C471 1.362 1_455 S
C471 H461 0.930 . S
C471 C464 1.409 1_655 S
C471 C470 1.362 1_655 S
H472 C478 0.930 . S
H473 C481 0.930 . S
H474 C482 0.930 . S
H475 C483 0.930 . S
H476 C486 0.930 . S
H477 C487 0.930 1_565 S
C478 H472 0.930 . S
C478 C479 1.351 1_565 S
C478 C480 1.415 1_565 S
C479 C478 1.351 1_545 S
C479 C481 1.435 . S
C480 C478 1.415 1_545 S
C480 C485 1.425 . S
C480 C487 1.409 . S
C481 H473 0.930 . S
C481 C479 1.435 . S
C481 C482 1.362 . S
C482 H474 0.930 . S
C482 C481 1.362 . S
C482 C485 1.409 . S
C483 H475 0.930 . S
C483 C484 1.355 . S
C483 C485 1.415 . S
C484 C483 1.355 . S
C484 C486 1.419 . S
C485 C480 1.425 . S
C485 C482 1.409 . S
C485 C483 1.415 . S
C486 H476 0.930 . S
C486 C484 1.419 . S
C486 C487 1.362 . S
C487 H477 0.930 1_545 S
C487 C480 1.409 . S
C487 C486 1.362 . S
H488 C494 0.930 . S
H489 C497 0.930 . S
H490 C498 0.930 . S
H491 C499 0.930 . S
H492 C502 0.930 . S
H493 C503 0.930 . S
C494 H488 0.930 . S
C494 C495 1.355 . S
C494 C496 1.415 . S
C495 C494 1.355 . S
C495 C497 1.419 . S
C496 C494 1.415 . S
C496 C501 1.425 . S
C496 C503 1.409 . S
C497 H489 0.930 . S
C497 C495 1.419 . S
C497 C498 1.362 . S
C498 H490 0.930 . S
C498 C497 1.362 . S
C498 C501 1.409 . S
C499 H491 0.930 . S
C499 C500 1.355 . S
C499 C501 1.415 . S
C500 C499 1.355 . S
C500 C502 1.419 . S
C501 C496 1.425 . S
C501 C498 1.409 . S
C501 C499 1.415 . S
C502 H492 0.930 . S
C502 C500 1.419 . S
C502 C503 1.362 . S
C503 H493 0.930 . S
C503 C496 1.409 . S
C503 C502 1.362 . S
H504 C510 0.930 . S
H505 C513 0.930 . S
H506 C514 0.930 . S
H507 C515 0.930 . S
H508 C518 0.930 . S
H509 C519 0.930 . S
C510 H504 0.930 . S
C510 C511 1.355 . S
C510 C512 1.415 . S
C511 C510 1.355 . S
C511 C513 1.419 . S
C512 C510 1.415 . S
C512 C517 1.425 . S
C512 C519 1.409 . S
C513 H505 0.930 . S
C513 C511 1.419 . S
C513 C514 1.362 . S
C514 H506 0.930 . S
C514 C513 1.362 . S
C514 C517 1.409 . S
C515 H507 0.930 . S
C515 C516 1.355 . S
C515 C517 1.415 . S
C516 C515 1.355 . S
C516 C518 1.419 . S
C517 C512 1.425 . S
C517 C514 1.409 . S
C517 C515 1.415 . S
C518 H508 0.930 . S
C518 C516 1.419 . S
C518 C519 1.362 . S
C519 H509 0.930 . S
C519 C512 1.409 . S
C519 C518 1.362 . S
H520 C526 0.930 . S
H521 C529 0.937 . S
H522 C530 0.927 1_655 S
H523 C531 0.930 1_554 S
H524 C534 0.930 . S
H525 C535 0.930 . S
C526 H520 0.930 . S
C526 C527 1.355 . S
C526 C528 1.415 . S
C527 C526 1.355 . S
C527 C529 1.416 1_456 S
C528 C526 1.415 . S
C528 C533 1.425 . S
C528 C535 1.409 . S
C529 H521 0.937 . S
C529 C527 1.416 1_654 S
C529 C530 1.360 1_655 S
C530 H522 0.927 1_455 S
C530 C529 1.360 1_455 S
C530 C533 1.416 1_554 S
C531 H523 0.930 1_556 S
C531 C532 1.355 . S
C531 C533 1.415 . S
C532 C531 1.355 . S
C532 C534 1.419 . S
C533 C528 1.425 . S
C533 C530 1.416 1_556 S
C533 C531 1.415 . S
C534 H524 0.930 . S
C534 C532 1.419 . S
C534 C535 1.362 . S
C535 H525 0.930 . S
C535 C528 1.409 . S
C535 C534 1.362 . S
H536 C542 0.930 1_554 S
H537 C545 0.930 . S
H538 C546 0.930 . S
H539 C547 0.916 1_565 S
H540 C550 0.930 1_554 S
H541 C551 0.930 . S
C542 H536 0.930 1_556 S
C542 C543 1.355 . S
C542 C544 1.415 . S
C543 C542 1.355 . S
C543 C545 1.419 1_545 S
C544 C542 1.415 . S
C544 C549 1.425 . S
C544 C551 1.409 1_556 S
C545 H537 0.930 . S
C545 C543 1.419 1_565 S
C545 C546 1.362 . S
C546 H538 0.930 . S
C546 C545 1.362 . S
C546 C549 1.409 1_565 S
C547 H539 0.916 1_545 S
C547 C548 1.368 . S
C547 C549 1.416 . S
C548 C547 1.368 . S
C548 C550 1.419 . S
C549 C544 1.425 . S
C549 C546 1.409 1_545 S
C549 C547 1.416 . S
C550 H540 0.930 1_556 S
C550 C548 1.419 . S
C550 C551 1.362 1_556 S
C551 H541 0.930 . S
C551 C544 1.409 1_554 S
C551 C550 1.362 1_554 S
H552 C558 0.930 . S
H553 C561 0.930 . S
H554 C562 0.930 . S
H555 C563 0.930 . S
H556 C566 0.930 . S
H557 C567 0.930 1_554 S
C558 H552 0.930 . S
C558 C559 1.355 . S
C558 C560 1.415 . S
C559 C558 1.355 . S
C559 C561 1.419 . S
C560 C558 1.415 . S
C560 C565 1.425 . S
C560 C567 1.409 . S
C561 H553 0.930 . S
C561 C559 1.419 . S
C561 C562 1.362 . S
C562 H554 0.930 . S
C562 C561 1.362 . S
C562 C565 1.409 . S
C563 H555 0.930 . S
C563 C564 1.355 . S
C563 C565 1.415 . S
C564 C563 1.355 . S
C564 C566 1.419 . S
C565 C560 1.425 . S
C565 C562 1.409 . S
C565 C563 1.415 . S
C566 H556 0.930 . S
C566 C564 1.419 . S
C566 C567 1.362 . S
C567 H557 0.930 1_556 S
C567 C560 1.409 . S
C567 C566 1.362 . S
H568 C574 0.930 . S
H569 C577 0.930 . S
H570 C578 0.930 . S
H571 C579 0.930 . S
H572 C582 0.930 . S
H573 C583 0.930 . S
C574 H568 0.930 . S
C574 C575 1.355 . S
C574 C576 1.415 . S
C575 C574 1.355 . S
C575 C577 1.419 . S
C576 C574 1.415 . S
C576 C581 1.425 . S
C576 C583 1.409 . S
C577 H569 0.930 . S
C577 C575 1.419 . S
C577 C578 1.362 . S
C578 H570 0.930 . S
C578 C577 1.362 . S
C578 C581 1.409 . S
C579 H571 0.930 . S
C579 C580 1.355 . S
C579 C581 1.415 . S
C580 C579 1.355 . S
C580 C582 1.419 . S
C581 C576 1.425 . S
C581 C578 1.409 . S
C581 C579 1.415 . S
C582 H572 0.930 . S
C582 C580 1.419 . S
C582 C583 1.362 . S
C583 H573 0.930 . S
C583 C576 1.409 . S
C583 C582 1.362 . S
H584 C590 0.930 . S
H585 C593 0.930 . S
H586 C594 0.930 . S
H587 C595 0.930 . S
H588 C598 0.930 . S
H589 C599 0.930 . S
C590 H584 0.930 . S
C590 C591 1.355 1_455 S
C590 C592 1.415 . S
C591 C590 1.355 1_655 S
C591 C593 1.419 . S
C592 C590 1.415 . S
C592 C597 1.425 1_455 S
C592 C599 1.409 . S
C593 H585 0.930 . S
C593 C591 1.419 . S
C593 C594 1.362 . S
C594 H586 0.930 . S
C594 C593 1.362 . S
C594 C597 1.409 . S
C595 H587 0.930 . S
C595 C596 1.355 . S
C595 C597 1.415 . S
C596 C595 1.355 . S
C596 C598 1.419 1_655 S
C597 C592 1.425 1_655 S
C597 C594 1.409 . S
C597 C595 1.415 . S
C598 H588 0.930 . S
C598 C596 1.419 1_455 S
C598 C599 1.362 . S
C599 H589 0.930 . S
C599 C592 1.409 . S
C599 C598 1.362 . S
H600 C606 0.930 . S
H601 C609 0.930 . S
H602 C610 0.930 . S
H603 C611 0.930 . S
H604 C614 0.930 . S
H605 C615 0.930 . S
C606 H600 0.930 . S
C606 C607 1.355 1_545 S
C606 C608 1.415 . S
C607 C606 1.355 1_565 S
C607 C609 1.419 . S
C608 C606 1.415 . S
C608 C613 1.425 1_545 S
C608 C615 1.409 . S
C609 H601 0.930 . S
C609 C607 1.419 . S
C609 C610 1.362 . S
C610 H602 0.930 . S
C610 C609 1.362 . S
C610 C613 1.409 . S
C611 H603 0.930 . S
C611 C612 1.355 . S
C611 C613 1.415 . S
C612 C611 1.355 . S
C612 C614 1.419 1_565 S
C613 C608 1.425 1_565 S
C613 C610 1.409 . S
C613 C611 1.415 . S
C614 H604 0.930 . S
C614 C612 1.419 1_545 S
C614 C615 1.362 . S
C615 H605 0.930 . S
C615 C608 1.409 . S
C615 C614 1.362 . S
H616 C622 0.930 . S
H617 C625 0.930 . S
H618 C626 0.930 . S
H619 C627 0.930 . S
H620 C630 0.930 . S
H621 C631 0.930 . S
C622 H616 0.930 . S
C622 C623 1.355 . S
C622 C624 1.415 . S
C623 C622 1.355 . S
C623 C625 1.419 . S
C624 C622 1.415 . S
C624 C629 1.425 . S
C624 C631 1.409 . S
C625 H617 0.930 . S
C625 C623 1.419 . S
C625 C626 1.362 . S
C626 H618 0.930 . S
C626 C625 1.362 . S
C626 C629 1.409 . S
C627 H619 0.930 . S
C627 C628 1.355 . S
C627 C629 1.415 . S
C628 C627 1.355 . S
C628 C630 1.419 . S
C629 C624 1.425 . S
C629 C626 1.409 . S
C629 C627 1.415 . S
C630 H620 0.930 . S
C630 C628 1.419 . S
C630 C631 1.362 . S
C631 H621 0.930 . S
C631 C624 1.409 . S
C631 C630 1.362 . S
H632 C638 0.930 . S
H633 C641 0.930 . S
H634 C642 0.930 . S
H635 C643 0.930 . S
H636 C646 0.930 . S
H637 C647 0.930 . S
C638 H632 0.930 . S
C638 C639 1.355 . S
C638 C640 1.415 . S
C639 C638 1.355 . S
C639 C641 1.419 . S
C640 C638 1.415 . S
C640 C645 1.425 . S
C640 C647 1.409 . S
C641 H633 0.930 . S
C641 C639 1.419 . S
C641 C642 1.362 . S
C642 H634 0.930 . S
C642 C641 1.362 . S
C642 C645 1.409 . S
C643 H635 0.930 . S
C643 C644 1.355 . S
C643 C645 1.415 . S
C644 C643 1.355 . S
C644 C646 1.419 . S
C645 C640 1.425 . S
C645 C642 1.409 . S
C645 C643 1.415 . S
C646 H636 0.930 . S
C646 C644 1.419 . S
C646 C647 1.362 . S
C647 H637 0.930 . S
C647 C640 1.409 . S
C647 C646 1.362 . S
C271 N80 1.900 1_545 S
C276 C114 2.037 1_545 S
C292 C154 2.044 . S
C287 N93 1.907 . S
C308 C194 2.064 . S
C303 N54 1.941 . S
C324 C234 2.053 1_455 S
C319 N67 1.922 . S
C340 C123 2.031 1_554 S
C335 N28 1.935 . S
C351 N41 1.910 . S
C356 C163 2.044 1_554 S
C367 N2 1.910 . S
C372 C203 2.054 1_554 S
C383 N15 1.972 1_455 S
C388 C243 2.047 1_654 S
C404 C120 0.519 . S
C399 N70 0.516 . S
C420 C160 0.554 . S
C415 N83 0.539 . S
C436 C200 0.569 . S
C431 N96 0.574 . S
C447 N57 0.662 . S
C452 C240 0.714 . S
C463 N18 0.523 1_455 S
C468 C111 0.519 . S
C484 C151 0.536 . S
C479 N31 0.545 1_545 S
C500 C191 0.707 . S
C495 N44 0.662 . S
C511 N5 0.637 . S
C516 C231 0.670 . S
C527 N66 2.218 1_455 S
C532 C115 2.354 . S
C543 N79 2.261 1_545 S
C548 C155 2.339 . S
C564 C195 2.312 . S
C559 N92 2.233 . S
C580 C235 2.362 . S
C575 N53 2.237 . S
C591 N14 2.233 . S
C596 C106 2.341 . S
C612 C146 2.325 . S
C607 N27 2.239 . S
C628 C186 2.313 . S
C623 N40 2.217 . S
C639 N1 2.256 . S
C644 C226 2.361 . S
