# Generated by pormake.
# Topology pyr, (3,6)-cn, num edge types: 1
# Building blocks:
#     Node 0, Type 0, BuildingBlock: KAKCAD_clean_linker_0, # of connection points: 3
#     Node 1, Type 0, BuildingBlock: KAKCAD_clean_linker_0, # of connection points: 3
#     Node 2, Type 0, BuildingBlock: KAKCAD_clean_linker_0, # of connection points: 3
#     Node 3, Type 0, BuildingBlock: KAKCAD_clean_linker_0, # of connection points: 3
#     Node 4, Type 0, BuildingBlock: KAKCAD_clean_linker_0, # of connection points: 3
#     Node 5, Type 0, BuildingBlock: KAKCAD_clean_linker_0, # of connection points: 3
#     Node 6, Type 0, BuildingBlock: KAKCAD_clean_linker_0, # of connection points: 3
#     Node 7, Type 0, BuildingBlock: KAKCAD_clean_linker_0, # of connection points: 3
#     Node 8, Type 1, BuildingBlock: BETDIP_clean_sbu_0, # of connection points: 6
#     Node 9, Type 1, BuildingBlock: BETDIP_clean_sbu_0, # of connection points: 6
#     Node 10, Type 1, BuildingBlock: BETDIP_clean_sbu_0, # of connection points: 6
#     Node 11, Type 1, BuildingBlock: BETDIP_clean_sbu_0, # of connection points: 6
#     Edge 12, Type (0, 1), BuildingBlock: OJICUG_clean_linker_0, # of connection points: 2
#     Edge 13, Type (0, 1), BuildingBlock: OJICUG_clean_linker_0, # of connection points: 2
#     Edge 14, Type (0, 1), BuildingBlock: OJICUG_clean_linker_0, # of connection points: 2
#     Edge 15, Type (0, 1), BuildingBlock: OJICUG_clean_linker_0, # of connection points: 2
#     Edge 16, Type (0, 1), BuildingBlock: OJICUG_clean_linker_0, # of connection points: 2
#     Edge 17, Type (0, 1), BuildingBlock: OJICUG_clean_linker_0, # of connection points: 2
#     Edge 18, Type (0, 1), BuildingBlock: OJICUG_clean_linker_0, # of connection points: 2
#     Edge 19, Type (0, 1), BuildingBlock: OJICUG_clean_linker_0, # of connection points: 2
#     Edge 20, Type (0, 1), BuildingBlock: OJICUG_clean_linker_0, # of connection points: 2
#     Edge 21, Type (0, 1), BuildingBlock: OJICUG_clean_linker_0, # of connection points: 2
#     Edge 22, Type (0, 1), BuildingBlock: OJICUG_clean_linker_0, # of connection points: 2
#     Edge 23, Type (0, 1), BuildingBlock: OJICUG_clean_linker_0, # of connection points: 2
#     Edge 24, Type (0, 1), BuildingBlock: OJICUG_clean_linker_0, # of connection points: 2
#     Edge 25, Type (0, 1), BuildingBlock: OJICUG_clean_linker_0, # of connection points: 2
#     Edge 26, Type (0, 1), BuildingBlock: OJICUG_clean_linker_0, # of connection points: 2
#     Edge 27, Type (0, 1), BuildingBlock: OJICUG_clean_linker_0, # of connection points: 2
#     Edge 28, Type (0, 1), BuildingBlock: OJICUG_clean_linker_0, # of connection points: 2
#     Edge 29, Type (0, 1), BuildingBlock: OJICUG_clean_linker_0, # of connection points: 2
#     Edge 30, Type (0, 1), BuildingBlock: OJICUG_clean_linker_0, # of connection points: 2
#     Edge 31, Type (0, 1), BuildingBlock: OJICUG_clean_linker_0, # of connection points: 2
#     Edge 32, Type (0, 1), BuildingBlock: OJICUG_clean_linker_0, # of connection points: 2
#     Edge 33, Type (0, 1), BuildingBlock: OJICUG_clean_linker_0, # of connection points: 2
#     Edge 34, Type (0, 1), BuildingBlock: OJICUG_clean_linker_0, # of connection points: 2
#     Edge 35, Type (0, 1), BuildingBlock: OJICUG_clean_linker_0, # of connection points: 2
# Relax obj value: 0.154
# Max RMSD: 0.204
# Mean RMSD: 0.092
data_MOF--net-pyr--node1-BETDIP_clean_sbu_0--node2-KAKCAD_clean_linker_0--edge1-OJICUG_clean_linker_0
_symmetry_space_group_name_H-M    P1
_symmetry_Int_Tables_number       1
_symmetry_cell_setting            triclinic
loop_
_symmetry_equiv_pos_as_xyz
'x, y, z'
_cell_length_a     33.798301
_cell_length_b     37.555062
_cell_length_c     36.624815
_cell_angle_alpha  88.710252
_cell_angle_beta   92.857345
_cell_angle_gamma 103.90875
loop_
_atom_site_label
_atom_site_type_symbol
_atom_site_fract_x
_atom_site_fract_y
_atom_site_fract_z
_atom_type_partial_charge
C0 C 0.30549 0.27097 0.3665 0.0
C1 C 0.32839 0.26156 0.39664 0.0
C2 C 0.32441 0.28566 0.33485 0.0
C3 C 0.36689 0.2916 0.33233 0.0
C4 C 0.39019 0.28347 0.36286 0.0
C5 C 0.37111 0.26863 0.39478 0.0
C6 C 0.38528 0.30261 0.29654 0.0
C7 C 0.36963 0.3269 0.27365 0.0
C8 C 0.3768 0.32937 0.23628 0.0
C9 C 0.4032 0.31016 0.2222 0.0
C10 C 0.42022 0.2864 0.24484 0.0
C11 C 0.41167 0.28324 0.28216 0.0
C12 C 0.43923 0.25932 0.22824 0.0
C13 C 0.41967 0.23956 0.19762 0.0
C14 C 0.47448 0.25064 0.24429 0.0
C15 C 0.48949 0.22234 0.23014 0.0
C16 C 0.46896 0.20195 0.20024 0.0
C17 C 0.3483 0.34341 0.21138 0.0
C18 C 0.30662 0.3263 0.21208 0.0
C19 C 0.36158 0.37282 0.18712 0.0
C20 C 0.33301 0.38584 0.16482 0.0
C21 C 0.29111 0.36894 0.16604 0.0
C22 C 0.27838 0.33884 0.18964 0.0
C23 C 0.43435 0.21124 0.18382 0.0
H24 H 0.27251 0.26502 0.36642 0.0
H25 H 0.30521 0.29046 0.31159 0.0
H26 H 0.42297 0.2878 0.36176 0.0
H27 H 0.38965 0.26188 0.41763 0.0
H28 H 0.34836 0.34126 0.2841 0.0
H29 H 0.42195 0.26278 0.29895 0.0
H30 H 0.40742 0.31108 0.193 0.0
H31 H 0.39203 0.24505 0.18503 0.0
H32 H 0.49001 0.2654 0.268 0.0
H33 H 0.5163 0.21566 0.2432 0.0
H34 H 0.29581 0.30325 0.23031 0.0
H35 H 0.39371 0.38611 0.18606 0.0
H36 H 0.41826 0.19625 0.16044 0.0
H37 H 0.24631 0.32565 0.19169 0.0
H38 H 0.34352 0.40914 0.14685 0.0
C39 C 0.17053 0.83311 0.87641 0.0
C40 C 0.21305 0.84024 0.88271 0.0
C41 C 0.15137 0.81014 0.84781 0.0
C42 C 0.17449 0.79406 0.82502 0.0
C43 C 0.21662 0.79936 0.83334 0.0
C44 C 0.23548 0.82184 0.86193 0.0
C45 C 0.15702 0.77677 0.78968 0.0
C46 C 0.13054 0.79261 0.76765 0.0
C47 C 0.1238 0.78456 0.73022 0.0
C48 C 0.14433 0.76048 0.71468 0.0
C49 C 0.17046 0.744 0.73661 0.0
C50 C 0.17396 0.75022 0.77441 0.0
C51 C 0.20024 0.72644 0.72007 0.0
C52 C 0.1891 0.70127 0.69133 0.0
C53 C 0.2413 0.73624 0.73288 0.0
C54 C 0.27023 0.72056 0.71833 0.0
C55 C 0.2592 0.69475 0.69029 0.0
C56 C 0.10196 0.80725 0.70702 0.0
C57 C 0.06535 0.81431 0.71817 0.0
C58 C 0.121 0.8267 0.67692 0.0
C59 C 0.10545 0.8545 0.6601 0.0
C60 C 0.07045 0.86327 0.67288 0.0
C61 C 0.04959 0.84198 0.7011 0.0
C62 C 0.21841 0.68552 0.67652 0.0
H63 H 0.15244 0.84678 0.89224 0.0
H64 H 0.11881 0.80628 0.84257 0.0
H65 H 0.23592 0.7882 0.81638 0.0
H66 H 0.26817 0.82611 0.86673 0.0
H67 H 0.11846 0.81419 0.77857 0.0
H68 H 0.19357 0.73705 0.79142 0.0
H69 H 0.14208 0.75657 0.68536 0.0
H70 H 0.15779 0.69347 0.68068 0.0
H71 H 0.25138 0.7566 0.75399 0.0
H72 H 0.30159 0.72918 0.72876 0.0
H73 H 0.05006 0.79963 0.7413 0.0
H74 H 0.14945 0.82221 0.66794 0.0
H75 H 0.20912 0.6658 0.65474 0.0
H76 H 0.02253 0.84816 0.71141 0.0
H77 H 0.12179 0.87022 0.63801 0.0
C78 C 0.77808 0.46331 0.93643 0.0
C79 C 0.80284 0.44352 0.95603 0.0
C80 C 0.74301 0.44497 0.91582 0.0
C81 C 0.73204 0.40629 0.91369 0.0
C82 C 0.75801 0.38685 0.93233 0.0
C83 C 0.7924 0.40508 0.95341 0.0
C84 C 0.69353 0.38595 0.89309 0.0
C85 C 0.67792 0.40077 0.8613 0.0
C86 C 0.64188 0.38177 0.84192 0.0
C87 C 0.62221 0.34592 0.85464 0.0
C88 C 0.63759 0.33001 0.88639 0.0
C89 C 0.67232 0.35113 0.90548 0.0
C90 C 0.6188 0.29163 0.90088 0.0
C91 C 0.57626 0.2772 0.90197 0.0
C92 C 0.64416 0.26988 0.91666 0.0
C93 C 0.628 0.23628 0.93439 0.0
C94 C 0.58564 0.22239 0.93674 0.0
C95 C 0.62597 0.40023 0.80861 0.0
C96 C 0.62949 0.4385 0.80801 0.0
C97 C 0.60904 0.38089 0.77664 0.0
C98 C 0.59752 0.39935 0.74507 0.0
C99 C 0.6025 0.43788 0.74423 0.0
C100 C 0.61813 0.45683 0.77667 0.0
C101 C 0.55997 0.24312 0.9195 0.0
H102 H 0.78516 0.49295 0.93791 0.0
H103 H 0.72401 0.46121 0.90234 0.0
H104 H 0.75197 0.35728 0.93069 0.0
H105 H 0.81115 0.38898 0.96757 0.0
H106 H 0.69455 0.42707 0.85101 0.0
H107 H 0.68264 0.34041 0.93093 0.0
H108 H 0.59511 0.33053 0.83998 0.0
H109 H 0.55549 0.29281 0.89043 0.0
H110 H 0.67701 0.27905 0.91571 0.0
H111 H 0.64899 0.22105 0.94626 0.0
H112 H 0.64117 0.45465 0.83203 0.0
H113 H 0.6058 0.35154 0.77552 0.0
H114 H 0.52717 0.23359 0.92056 0.0
H115 H 0.62149 0.48617 0.77813 0.0
H116 H 0.58577 0.38341 0.72095 0.0
C117 C 0.91906 0.62356 0.27212 0.0
C118 C 0.93398 0.64392 0.24068 0.0
C119 C 0.90667 0.64027 0.30231 0.0
C120 C 0.90834 0.67825 0.30271 0.0
C121 C 0.92364 0.69882 0.27148 0.0
C122 C 0.93604 0.68202 0.24112 0.0
C123 C 0.89294 0.69552 0.33496 0.0
C124 C 0.85895 0.67519 0.35401 0.0
C125 C 0.84397 0.68978 0.3843 0.0
C126 C 0.863 0.72587 0.39498 0.0
C127 C 0.89665 0.74747 0.3771 0.0
C128 C 0.91163 0.73184 0.34715 0.0
C129 C 0.91552 0.78582 0.39136 0.0
C130 C 0.89049 0.80824 0.40298 0.0
C131 C 0.958 0.79907 0.39718 0.0
C132 C 0.97457 0.83255 0.41547 0.0
C133 C 0.94933 0.85419 0.42854 0.0
C134 C 0.80849 0.66789 0.40532 0.0
C135 C 0.77452 0.64408 0.38772 0.0
C136 C 0.80763 0.67187 0.4435 0.0
C137 C 0.77361 0.65408 0.46305 0.0
C138 C 0.73925 0.63112 0.44538 0.0
C139 C 0.74052 0.62588 0.40747 0.0
C140 C 0.90697 0.84157 0.42118 0.0
H141 H 0.91622 0.59424 0.27341 0.0
H142 H 0.89589 0.62309 0.32562 0.0
H143 H 0.92539 0.72797 0.27009 0.0
H144 H 0.94767 0.69919 0.21804 0.0
H145 H 0.84403 0.64768 0.34534 0.0
H146 H 0.93777 0.74792 0.33343 0.0
H147 H 0.85149 0.73743 0.41786 0.0
H148 H 0.85767 0.79956 0.39872 0.0
H149 H 0.97846 0.78287 0.38889 0.0
H150 H 1.00738 0.84125 0.41964 0.0
H151 H 0.77355 0.64031 0.35845 0.0
H152 H 0.83339 0.68891 0.45855 0.0
H153 H 0.88606 0.85675 0.43064 0.0
H154 H 0.71465 0.60857 0.39278 0.0
H155 H 0.77435 0.65825 0.49227 0.0
C156 C 0.69905 0.79054 0.72052 0.0
C157 C 0.70273 0.82685 0.70851 0.0
C158 C 0.67938 0.77812 0.75278 0.0
C159 C 0.66431 0.8022 0.77429 0.0
C160 C 0.66653 0.83809 0.76097 0.0
C161 C 0.68509 0.85007 0.72833 0.0
C162 C 0.65134 0.79197 0.8123 0.0
C163 C 0.6713 0.76984 0.83417 0.0
C164 C 0.66537 0.76556 0.87185 0.0
C165 C 0.63957 0.7843 0.88802 0.0
C166 C 0.61921 0.80658 0.86667 0.0
C167 C 0.62376 0.80871 0.82867 0.0
C168 C 0.59844 0.83189 0.88446 0.0
C169 C 0.57511 0.82094 0.9153 0.0
C170 C 0.60501 0.86856 0.8723 0.0
C171 C 0.59009 0.89395 0.89125 0.0
C172 C 0.56844 0.88347 0.92301 0.0
C173 C 0.69059 0.74524 0.89433 0.0
C174 C 0.69618 0.71172 0.88201 0.0
C175 C 0.71322 0.76129 0.92554 0.0
C176 C 0.74295 0.74542 0.94247 0.0
C177 C 0.75057 0.71333 0.92839 0.0
C178 C 0.72585 0.69593 0.89886 0.0
C179 C 0.56014 0.84649 0.93436 0.0
H180 H 0.71236 0.77214 0.70549 0.0
H181 H 0.67745 0.75005 0.76152 0.0
H182 H 0.65635 0.85795 0.77673 0.0
H183 H 0.6881 0.8784 0.71986 0.0
H184 H 0.69407 0.75806 0.82258 0.0
H185 H 0.6073 0.82515 0.81213 0.0
H186 H 0.63699 0.7829 0.91742 0.0
H187 H 0.56927 0.79285 0.9252 0.0
H188 H 0.62334 0.87822 0.84902 0.0
H189 H 0.59655 0.92215 0.88159 0.0
H190 H 0.67876 0.69851 0.85832 0.0
H191 H 0.70984 0.7873 0.93545 0.0
H192 H 0.54366 0.83765 0.95885 0.0
H193 H 0.73055 0.67079 0.88787 0.0
H194 H 0.76168 0.75952 0.96508 0.0
C195 C 0.85803 0.26419 0.20949 0.0
C196 C 0.83578 0.28676 0.19122 0.0
C197 C 0.87513 0.27292 0.24452 0.0
C198 C 0.87118 0.30497 0.26181 0.0
C199 C 0.85303 0.32968 0.24144 0.0
C200 C 0.83474 0.32029 0.20675 0.0
C201 C 0.8797 0.30914 0.30217 0.0
C202 C 0.90826 0.29247 0.32041 0.0
C203 C 0.90866 0.2874 0.35856 0.0
C204 C 0.88296 0.30282 0.37908 0.0
C205 C 0.85595 0.32167 0.36158 0.0
C206 C 0.85429 0.32429 0.32326 0.0
C207 C 0.82593 0.33518 0.38239 0.0
C208 C 0.80313 0.31291 0.40906 0.0
C209 C 0.81731 0.3692 0.37335 0.0
C210 C 0.78573 0.38017 0.38965 0.0
C211 C 0.76195 0.35736 0.41538 0.0
C212 C 0.93119 0.26144 0.37598 0.0
C213 C 0.93025 0.22813 0.35869 0.0
C214 C 0.95082 0.26797 0.4108 0.0
C215 C 0.96786 0.24124 0.42837 0.0
C216 C 0.96527 0.20739 0.41155 0.0
C217 C 0.94712 0.20154 0.37621 0.0
C218 C 0.77145 0.32387 0.42534 0.0
H219 H 0.85877 0.23792 0.19824 0.0
H220 H 0.88819 0.2527 0.25892 0.0
H221 H 0.85058 0.35524 0.25313 0.0
H222 H 0.81775 0.33813 0.193 0.0
H223 H 0.92884 0.28144 0.30477 0.0
H224 H 0.83076 0.33575 0.30995 0.0
H225 H 0.88261 0.29876 0.40845 0.0
H226 H 0.8087 0.28638 0.41634 0.0
H227 H 0.8345 0.38702 0.35302 0.0
H228 H 0.7791 0.40601 0.38114 0.0
H229 H 0.91485 0.2218 0.33214 0.0
H230 H 0.95226 0.2934 0.42476 0.0
H231 H 0.75408 0.30589 0.44545 0.0
H232 H 0.94497 0.17587 0.36242 0.0
H233 H 0.98145 0.24643 0.45574 0.0
C234 C 0.2413 0.63321 0.19785 0.0
C235 C 0.24286 0.63033 0.15953 0.0
C236 C 0.27643 0.64925 0.21959 0.0
C237 C 0.31413 0.66344 0.20371 0.0
C238 C 0.31602 0.65985 0.16571 0.0
C239 C 0.28121 0.64332 0.1441 0.0
C240 C 0.35085 0.68407 0.22589 0.0
C241 C 0.36468 0.6695 0.25858 0.0
C242 C 0.39953 0.68892 0.27943 0.0
C243 C 0.42054 0.7241 0.26591 0.0
C244 C 0.40732 0.73924 0.23271 0.0
C245 C 0.37222 0.71873 0.21366 0.0
C246 C 0.42885 0.77628 0.2169 0.0
C247 C 0.44529 0.80711 0.23898 0.0
C248 C 0.43052 0.78169 0.1786 0.0
C249 C 0.44611 0.81652 0.16298 0.0
C250 C 0.46147 0.84754 0.18488 0.0
C251 C 0.41355 0.67159 0.31454 0.0
C252 C 0.38532 0.64638 0.33555 0.0
C253 C 0.45504 0.67848 0.32695 0.0
C254 C 0.46763 0.66009 0.3581 0.0
C255 C 0.43936 0.63372 0.37779 0.0
C256 C 0.39796 0.62765 0.36608 0.0
C257 C 0.46143 0.84208 0.22324 0.0
H258 H 0.21267 0.62416 0.21115 0.0
H259 H 0.27373 0.6518 0.24871 0.0
H260 H 0.34463 0.67003 0.15256 0.0
H261 H 0.28462 0.64087 0.11512 0.0
H262 H 0.34865 0.64226 0.26699 0.0
H263 H 0.36056 0.73018 0.18916 0.0
H264 H 0.44716 0.73967 0.28104 0.0
H265 H 0.44456 0.80453 0.26845 0.0
H266 H 0.41948 0.75884 0.1603 0.0
H267 H 0.44647 0.81899 0.13348 0.0
H268 H 0.35297 0.64079 0.32852 0.0
H269 H 0.4782 0.69726 0.312 0.0
H270 H 0.47292 0.86511 0.24125 0.0
H271 H 0.37499 0.60819 0.38066 0.0
H272 H 0.49982 0.66558 0.36595 0.0
C273 C 0.12574 0.23807 0.69291 0.0
C274 C 0.08374 0.22676 0.68325 0.0
C275 C 0.14208 0.27078 0.71212 0.0
C276 C 0.11735 0.29401 0.72246 0.0
C277 C 0.07509 0.28212 0.71433 0.0
C278 C 0.05861 0.24917 0.69504 0.0
C279 C 0.13689 0.33181 0.73775 0.0
C280 C 0.17247 0.35222 0.72175 0.0
C281 C 0.19361 0.38694 0.7345 0.0
C282 C 0.17841 0.40194 0.76433 0.0
C283 C 0.14258 0.38278 0.78152 0.0
C284 C 0.1216 0.34776 0.76738 0.0
C285 C 0.12836 0.39957 0.81455 0.0
C286 C 0.15645 0.41597 0.84277 0.0
C287 C 0.08731 0.40101 0.81773 0.0
C288 C 0.07516 0.41897 0.84738 0.0
C289 C 0.10337 0.43548 0.87555 0.0
C290 C 0.23175 0.40664 0.71608 0.0
C291 C 0.26095 0.38742 0.70724 0.0
C292 C 0.23808 0.44357 0.70471 0.0
C293 C 0.2718 0.46026 0.68392 0.0
C294 C 0.3004 0.4406 0.67409 0.0
C295 C 0.29465 0.40408 0.68682 0.0
C296 C 0.14418 0.43318 0.87275 0.0
H297 H 0.14662 0.22235 0.68451 0.0
H298 H 0.1747 0.2784 0.71814 0.0
H299 H 0.05488 0.29898 0.7216 0.0
H300 H 0.02601 0.2415 0.68912 0.0
H301 H 0.18361 0.34118 0.6983 0.0
H302 H 0.09439 0.33247 0.78019 0.0
H303 H 0.19473 0.42864 0.77432 0.0
H304 H 0.18828 0.41545 0.84175 0.0
H305 H 0.06463 0.38903 0.79673 0.0
H306 H 0.0434 0.41969 0.84836 0.0
H307 H 0.25757 0.35914 0.71597 0.0
H308 H 0.21615 0.45918 0.71072 0.0
H309 H 0.16709 0.44552 0.89342 0.0
H310 H 0.31628 0.38809 0.68107 0.0
H311 H 0.27468 0.4883 0.67466 0.0
Tb312 Tb 0.97493 1.03407 0.56007 0.0
Tb313 Tb 0.0605 0.04908 0.54794 0.0
C314 C 0.89986 1.0096 0.56933 0.0
C315 C 0.87061 0.9775 0.58338 0.0
C316 C 0.87941 0.94288 0.58689 0.0
C317 C 0.85084 0.91329 0.60157 0.0
C318 C 0.81322 0.91804 0.61295 0.0
C319 C 0.80477 0.95286 0.6089 0.0
C320 C 0.83312 0.98217 0.59418 0.0
C321 C 0.01717 0.09656 0.59107 0.0
C322 C 0.02985 0.99144 0.60691 0.0
C323 C 0.13573 0.07373 0.53939 0.0
C324 C 0.16532 0.10449 0.52303 0.0
C325 C 0.16887 0.14115 0.53276 0.0
C326 C 0.19863 0.1693 0.51744 0.0
C327 C 0.22523 0.16122 0.49217 0.0
C328 C 0.22133 0.12444 0.48261 0.0
C329 C 0.19188 0.09646 0.49801 0.0
C330 C 0.01827 0.98649 0.51701 0.0
C331 C 1.00545 0.09039 0.49954 0.0
O332 O 0.91743 1.00548 0.53926 0.0
O333 O 0.92525 1.02902 0.59349 0.0
O334 O 0.02803 0.06649 0.59043 0.0
O335 O 0.98158 0.09158 0.57468 0.0
O336 O 0.9932 0.98986 0.59177 0.0
O337 O 0.06112 1.01793 0.59801 0.0
O338 O 0.1172 0.08018 0.56813 0.0
O339 O 0.11132 0.05153 0.5166 0.0
O340 O 1.00739 1.01656 0.51765 0.0
O341 O 0.05406 0.99164 0.53306 0.0
O342 O 0.04223 0.09223 0.51452 0.0
O343 O 0.97388 0.06486 0.50972 0.0
H344 H 0.90837 0.93887 0.57866 0.0
H345 H 0.85827 0.88684 0.6042 0.0
H346 H 0.77673 0.95793 0.61821 0.0
H347 H 0.82599 1.0088 0.59182 0.0
H348 H 0.14885 0.14808 0.5522 0.0
H349 H 0.20093 0.19731 0.52552 0.0
H350 H 0.24051 0.1172 0.4626 0.0
H351 H 0.18979 0.06836 0.49024 0.0
Tb352 Tb 0.56911 0.0516 0.07835 0.0
Tb353 Tb 0.47643 1.03091 0.05823 0.0
C354 C 0.64383 0.08169 0.07777 0.0
C355 C 0.67031 0.11862 0.08198 0.0
C356 C 0.65429 0.14859 0.08972 0.0
C357 C 0.68039 0.18269 0.09778 0.0
C358 C 0.72306 0.18701 0.09992 0.0
C359 C 0.73873 0.15692 0.09081 0.0
C360 C 0.71257 0.12322 0.08165 0.0
C361 C 0.53203 0.9895 0.11386 0.0
C362 C 0.5122 0.08664 0.12296 0.0
C363 C 0.40002 1.00925 0.05797 0.0
C364 C 0.36706 0.98873 1.03327 0.0
C365 C 0.34338 0.95474 1.04488 0.0
C366 C 0.31418 0.93326 1.02107 0.0
C367 C 0.30789 0.94553 0.9852 0.0
C368 C 0.33023 0.98045 0.97425 0.0
C369 C 0.35967 1.00179 0.99797 0.0
C370 C 0.5209 0.08387 1.01693 0.0
C371 C 0.53242 0.99212 1.01708 0.0
O372 O 0.61999 0.07562 1.04802 0.0
O373 O 0.62518 0.06773 0.10722 0.0
O374 O 0.51764 1.00958 0.09151 0.0
O375 O 0.57047 1.00541 0.11751 0.0
O376 O 0.54974 0.09033 0.11225 0.0
O377 O 0.48075 0.06214 0.10849 0.0
O378 O 0.42501 0.99041 0.07218 0.0
O379 O 0.41913 0.04231 1.04771 0.0
O380 O 0.52613 0.07863 1.05105 0.0
O381 O 0.48859 0.05959 1.00553 0.0
O382 O 0.49474 0.98972 1.02699 0.0
O383 O 0.56428 1.0172 1.03026 0.0
H384 H 0.62169 0.1453 0.09102 0.0
H385 H 0.66693 0.20516 0.10382 0.0
H386 H 0.77113 0.15846 0.09281 0.0
H387 H 0.72542 0.10019 0.07612 0.0
H388 H 0.34837 0.94424 0.07209 0.0
H389 H 0.29785 0.90639 1.03029 0.0
H390 H 0.32559 0.99099 0.94701 0.0
H391 H 0.37718 1.02807 0.98834 0.0
Tb392 Tb 0.52391 0.57003 0.57882 0.0
Tb393 Tb 0.5181 0.496 0.54262 0.0
C394 C 0.50718 0.62779 0.59932 0.0
C395 C 0.46926 0.63635 0.61044 0.0
C396 C 0.43125 0.61952 0.59359 0.0
C397 C 0.39535 0.62672 0.60565 0.0
C398 C 0.39685 0.65053 0.635 0.0
C399 C 0.43499 0.66744 0.65161 0.0
C400 C 0.47084 0.66043 0.6394 0.0
C401 C 0.55944 0.52388 0.61709 0.0
C402 C 0.44393 0.50361 0.58872 0.0
C403 C 0.53535 0.43544 0.5343 0.0
C404 C 0.56223 0.42146 0.51106 0.0
C405 C 0.57046 0.3873 0.51934 0.0
C406 C 0.6009 0.376 0.50152 0.0
C407 C 0.62383 0.39885 0.47525 0.0
C408 C 0.61436 0.43257 0.46608 0.0
C409 C 0.5838 0.44377 0.48387 0.0
C410 C 0.4912 0.54112 0.49454 0.0
C411 C 0.59389 0.56479 0.52713 0.0
O412 O 0.50832 0.61946 0.56492 0.0
O413 O 0.52204 0.60594 0.62146 0.0
O414 O 0.52637 0.51597 0.59775 0.0
O415 O 0.57338 0.55933 0.6155 0.0
O416 O 0.46186 0.53909 0.59201 0.0
O417 O 0.46114 0.48088 0.57151 0.0
O418 O 0.55474 0.46022 0.55773 0.0
O419 O 0.50317 0.44402 0.51829 0.0
O420 O 0.50499 0.54687 0.5272 0.0
O421 O 0.49097 0.50712 0.48833 0.0
O422 O 0.57821 0.52874 0.52597 0.0
O423 O 0.57645 0.58698 0.54478 0.0
H424 H 0.42922 0.6005 0.57138 0.0
H425 H 0.3664 0.61311 0.59255 0.0
H426 H 0.43712 0.68629 0.67399 0.0
H427 H 0.49982 0.67356 0.6528 0.0
H428 H 0.55444 0.36997 0.54063 0.0
H429 H 0.60767 0.35009 0.50953 0.0
H430 H 0.63104 0.45057 0.44562 0.0
H431 H 0.57792 0.47035 0.4773 0.0
Tb432 Tb 0.02069 0.57447 1.03449 0.0
Tb433 Tb 0.02128 0.5105 0.07983 0.0
C434 C 1.00255 0.62628 0.99764 0.0
C435 C 0.96725 0.6425 0.99321 0.0
C436 C 0.93159 0.62811 1.012 0.0
C437 C 0.89657 0.64108 1.00411 0.0
C438 C 0.89674 0.66827 0.97705 0.0
C439 C 0.93305 0.68346 0.95936 0.0
C440 C 0.96801 0.67066 0.9674 0.0
C441 C 0.09343 0.5766 0.06784 0.0
C442 C 0.98723 0.57123 0.11552 0.0
C443 C 0.0427 0.45945 0.11481 0.0
C444 C 0.07959 0.44553 0.11396 0.0
C445 C 0.11523 0.46726 0.0994 0.0
C446 C 0.15112 0.45498 0.10081 0.0
C447 C 0.15182 0.42069 0.1166 0.0
C448 C 0.11562 0.39854 0.13004 0.0
C449 C 0.07978 0.41093 0.12875 0.0
C450 C 0.94836 0.50792 1.04699 0.0
C451 C 0.05316 0.51289 0.99854 0.0
O452 O 0.99629 0.59273 0.98604 0.0
O453 O 0.02281 0.63077 1.02916 0.0
O454 O 0.0588 0.56487 0.08074 0.0
O455 O 0.08785 0.58955 1.03544 0.0
O456 O 0.98472 0.5837 0.08139 0.0
O457 O 1.00416 0.54333 0.12236 0.0
O458 O 0.04854 0.49277 0.12707 0.0
O459 O 0.01877 0.45417 0.08531 0.0
O460 O 0.98285 0.51994 1.03372 0.0
O461 O 0.95443 0.49499 0.07934 0.0
O462 O 0.05697 0.50138 1.03279 0.0
O463 O 0.03562 0.54038 0.99172 0.0
H464 H 0.93044 0.60606 1.03179 0.0
H465 H 0.86893 0.62874 1.01796 0.0
H466 H 0.93415 0.70476 0.93872 0.0
H467 H 0.9953 0.68197 0.95263 0.0
H468 H 0.11552 0.49407 0.08768 0.0
H469 H 0.17844 0.47249 0.09004 0.0
H470 H 0.11535 0.37222 0.14287 0.0
H471 H 0.05251 0.39386 0.14007 0.0
C472 C 0.31885 0.20971 0.44215 0.0
C473 C 0.30673 0.24057 0.42761 0.0
H474 H 0.30314 0.16095 0.47485 0.0
C475 C 0.27045 0.24796 0.43918 0.0
H476 H 0.34652 0.20309 0.43384 0.0
C477 C 0.24497 0.22323 0.46194 0.0
C478 C 0.25548 0.19078 0.47397 0.0
H479 H 0.26065 0.27194 0.42909 0.0
H480 H 0.21594 0.22852 0.46817 0.0
C481 C 0.2936 0.1852 0.46522 0.0
C482 C 0.27102 0.89342 0.89815 0.0
C483 C 0.23501 0.86878 0.90864 0.0
H484 H 0.32227 0.93634 0.91403 0.0
C485 C 0.22126 0.87127 0.94383 0.0
H486 H 0.28196 0.8927 0.87094 0.0
C487 C 0.24419 0.89696 0.96856 0.0
C488 C 0.28107 0.92068 0.95839 0.0
H489 H 0.19352 0.8527 0.95256 0.0
H490 H 0.23332 0.89796 0.99575 0.0
C491 C 0.29383 0.9189 0.92272 0.0
C492 C 0.55892 0.44384 0.68554 0.0
C493 C 0.59219 0.45865 0.7101 0.0
H494 H 0.5224 0.45221 0.63742 0.0
C495 C 0.61542 0.49433 0.70205 0.0
H496 H 0.53993 0.4167 0.69043 0.0
C497 C 0.60531 0.51464 0.67161 0.0
C498 C 0.57153 0.50029 0.64772 0.0
H499 H 0.6418 0.50683 0.71932 0.0
H500 H 0.62387 0.54205 0.66708 0.0
C501 C 0.54872 0.46433 0.65498 0.0
C502 C 0.96443 0.59466 0.21318 0.0
C503 C 0.94734 0.62539 0.20815 0.0
H504 H 0.98982 0.55396 0.18908 0.0
C505 C 0.94305 0.63775 0.17168 0.0
H506 H 0.96926 0.58424 0.2404 0.0
C507 C 0.95525 0.62017 0.14178 0.0
C508 C 0.97231 0.58948 0.14704 0.0
H509 H 0.92973 0.66088 0.16599 0.0
H510 H 0.95141 0.63081 0.11444 0.0
C511 C 0.97657 0.57715 0.18339 0.0
C512 C 0.45353 0.13728 0.17926 0.0
C513 C 0.48241 0.17041 0.18609 0.0
H514 H 0.4405 0.08455 0.1547 0.0
C515 C 0.52284 0.17398 0.17631 0.0
H516 H 0.42232 0.13362 0.18715 0.0
C517 C 0.53341 0.14576 0.15754 0.0
C518 C 0.50368 0.11357 0.14847 0.0
H519 H 0.54564 0.1993 0.18134 0.0
H520 H 0.56427 0.14999 0.14856 0.0
C521 C 0.46404 0.10915 0.16074 0.0
C522 C 0.08807 0.92978 0.65673 0.0
C523 C 0.05834 0.89663 0.65895 0.0
H524 H 0.10214 0.98587 0.6397 0.0
C525 C 0.01779 0.89585 0.64766 0.0
H526 H 0.11937 0.93138 0.66607 0.0
C527 C 1.00773 0.92729 0.63239 0.0
C528 C 0.03804 0.96004 0.62861 0.0
H529 H 0.99426 0.87064 0.64936 0.0
H530 H 0.97664 0.92553 0.62233 0.0
C531 C 0.07804 0.96112 0.64191 0.0
C532 C 0.844 0.44977 1.01588 0.0
C533 C 0.83894 0.46232 0.97985 0.0
H534 H 0.88153 0.45478 0.06532 0.0
C535 C 0.8693 0.49176 0.96672 0.0
H536 H 0.82111 0.42743 1.02703 0.0
C537 C 0.90453 0.50718 0.98861 0.0
C538 C 0.90981 0.49405 1.02441 0.0
H539 H 0.86644 0.50206 0.9391 0.0
H540 H 0.9279 0.52904 0.97735 0.0
C541 C 0.87865 0.46563 1.03792 0.0
C542 C 0.68073 0.57692 0.46076 0.0
C543 C 0.70215 0.61365 0.46646 0.0
H544 H 0.63071 0.53259 0.47555 0.0
C545 C 0.68781 0.63376 0.49274 0.0
H546 H 0.69089 0.5604 0.44103 0.0
C547 C 0.65311 0.6179 0.5124 0.0
C548 C 0.63175 0.58117 0.50685 0.0
H549 H 0.70306 0.66218 0.49774 0.0
H550 H 0.64303 0.6346 0.53202 0.0
C551 C 0.64627 0.56086 0.48083 0.0
C552 C 0.26027 0.42123 0.14776 0.0
C553 C 0.25976 0.38386 0.14551 0.0
H554 H 0.22611 0.46221 0.14053 0.0
C555 C 0.2258 0.35988 0.12846 0.0
H556 H 0.28594 0.44024 0.16101 0.0
C557 C 0.19154 0.37237 0.11683 0.0
C558 C 0.19064 0.40909 0.12197 0.0
H559 H 0.22492 0.33101 0.12587 0.0
H560 H 0.16507 0.35293 0.1053 0.0
C561 C 0.22596 0.43376 0.1361 0.0
C562 C 0.58803 0.17812 0.99047 0.0
C563 C 0.56889 0.18678 0.95735 0.0
H564 H 0.58804 0.1396 1.03494 0.0
C565 C 0.53402 0.16077 0.9441 0.0
H566 H 0.61468 0.19728 1.00204 0.0
C567 C 0.51915 0.12739 0.96303 0.0
C568 C 0.53813 0.11899 0.99625 0.0
H569 H 0.51846 0.16591 0.91868 0.0
H570 H 0.49234 0.10824 0.95171 0.0
C571 C 0.57273 0.14497 1.00962 0.0
C572 C 0.94837 0.91898 0.44969 0.0
C573 C 0.96672 0.88873 0.45082 0.0
H574 H 0.94959 0.97317 0.46923 0.0
C575 C 1.00152 0.89144 0.47449 0.0
H576 H 0.92182 0.9186 0.43179 0.0
C577 C 0.01743 0.92286 0.49577 0.0
C578 C 0.99933 0.95304 0.49445 0.0
H579 H 1.01634 0.86892 0.47722 0.0
H580 H 0.04419 0.92342 0.51351 0.0
C581 C 0.96439 0.95057 0.47114 0.0
C582 C 0.29506 0.67643 0.63773 0.0
C583 C 0.29106 0.67857 0.67558 0.0
H584 H 0.33207 0.66611 0.59509 0.0
C585 C 0.3201 0.66819 0.69969 0.0
H586 H 0.27328 0.68443 0.61852 0.0
C587 C 0.3537 0.65805 0.68639 0.0
C588 C 0.35896 0.65779 0.64863 0.0
H589 H 0.31738 0.66879 0.72901 0.0
H590 H 0.37597 0.65096 0.70572 0.0
C591 C 0.32875 0.66607 0.62436 0.0
C592 C 0.71454 0.86276 0.6503 0.0
C593 C 0.72908 0.84254 0.67832 0.0
H594 H 0.72964 0.90127 0.60637 0.0
C595 C 0.77072 0.84274 0.68089 0.0
H596 H 0.68247 0.8628 0.64773 0.0
C597 C 0.79798 0.86548 0.65788 0.0
C598 C 0.78392 0.88811 0.6317 0.0
H599 H 0.78264 0.82759 0.70256 0.0
H600 H 0.83029 0.86725 0.66247 0.0
C601 C 0.74164 0.88501 0.62694 0.0
C602 C 0.76499 0.26404 0.1665 0.0
C603 C 0.80689 0.27099 0.16095 0.0
H604 H 0.70579 0.23153 0.15249 0.0
C605 C 0.82025 0.25552 0.1308 0.0
H606 H 0.75404 0.27533 0.1899 0.0
C607 C 0.79231 0.23097 0.10835 0.0
C608 C 0.75074 0.22043 0.11652 0.0
H609 H 0.85252 0.26063 0.12602 0.0
H610 H 0.80381 0.21859 0.08603 0.0
C611 C 0.73723 0.23879 0.14479 0.0
C612 C 0.48085 0.62669 0.43747 0.0
C613 C 0.45252 0.61105 0.40901 0.0
H614 H 0.51452 0.61763 0.48731 0.0
C615 C 0.43648 0.57279 0.41044 0.0
H616 H 0.49392 0.65599 0.43758 0.0
C617 C 0.44869 0.55093 0.43851 0.0
C618 C 0.47671 0.56634 0.467 0.0
H619 H 0.41499 0.55942 0.38915 0.0
H620 H 0.43613 0.52155 0.43776 0.0
C621 C 0.49239 0.60472 0.46628 0.0
C622 C 0.06378 0.47874 0.90157 0.0
C623 C 0.09064 0.45536 0.90726 0.0
H624 H 0.03188 0.51535 0.92485 0.0
C625 C 0.10553 0.45164 0.94359 0.0
H626 H 0.05178 0.48284 0.87425 0.0
C627 C 0.0936 0.47008 0.97297 0.0
C628 C 0.06702 0.49369 0.96715 0.0
H629 H 0.12601 0.43387 0.94951 0.0
H630 H 0.10543 0.46589 1.00035 0.0
C631 C 0.05255 0.49775 0.93079 0.0
C632 C 0.51946 0.90581 0.96118 0.0
C633 C 0.55774 0.91174 0.94568 0.0
H634 H 0.48104 0.92687 0.99557 0.0
C635 C 0.58679 0.94477 0.9528 0.0
H636 H 0.49643 0.88068 0.95599 0.0
C637 C 0.57811 0.97106 0.97532 0.0
C638 C 0.54007 0.96509 0.99122 0.0
H639 H 0.61679 0.94995 0.9417 0.0
H640 H 0.60153 0.99593 0.98057 0.0
C641 C 0.51059 0.93236 0.98359 0.0
C642 C 0.95183 0.14168 0.4314 0.0
C643 C 0.97795 0.17698 0.43183 0.0
H644 H 0.94027 0.0867 0.45214 0.0
C645 C 1.01491 0.18299 0.45281 0.0
H646 H 0.92293 0.13624 0.41587 0.0
C647 C 0.02505 0.15434 0.47352 0.0
C648 C 0.99808 0.1194 0.47402 0.0
H649 H 0.03571 0.20988 0.45346 0.0
H650 H 0.0532 0.15991 0.49019 0.0
C651 C 0.96169 0.11329 0.45233 0.0
C652 C 0.20113 0.62768 0.09926 0.0
C653 C 0.20485 0.61507 0.13562 0.0
H654 H 0.16405 0.62524 1.04962 0.0
C655 C 0.17152 0.58834 0.14879 0.0
H656 H 0.22521 0.64871 0.08787 0.0
C657 C 0.13574 0.57542 0.12675 0.0
C658 C 0.13225 0.5884 0.09067 0.0
H659 H 0.17292 0.57716 0.17618 0.0
H660 H 0.11067 0.55537 0.13809 0.0
C661 C 0.16566 0.61436 0.07715 0.0
C662 C 0.35569 0.4951 0.65281 0.0
C663 C 0.33582 0.45755 0.65057 0.0
H664 H 0.40457 0.53902 0.63524 0.0
C665 C 0.35068 0.43603 0.6259 0.0
H666 H 0.34575 0.51276 0.67149 0.0
C667 C 0.38483 0.45109 0.60527 0.0
C668 C 0.40527 0.48834 0.60823 0.0
H669 H 0.33592 0.40728 0.6224 0.0
H670 H 0.3955 0.43327 0.58725 0.0
C671 C 0.38976 0.51023 0.63196 0.0
C672 C 0.81261 0.69135 0.91619 0.0
C673 C 0.78685 0.70026 0.94164 0.0
H674 H 0.86727 0.67426 0.90754 0.0
C675 C 0.79718 0.69821 0.97916 0.0
H676 H 0.80583 0.6932 0.88709 0.0
C677 C 0.83266 0.68739 0.99093 0.0
C678 C 0.85865 0.67908 0.96531 0.0
H679 H 0.77783 0.7049 0.99935 0.0
H680 H 0.84017 0.68618 1.01996 0.0
C681 C 0.8481 0.68096 0.92788 0.0
C682 C 0.5136 0.90904 0.18196 0.0
C683 C 0.47791 0.88498 0.16755 0.0
H684 H 0.55828 0.96007 0.17635 0.0
C685 C 0.45893 0.89666 0.13566 0.0
H686 H 0.52955 0.90124 0.20607 0.0
C687 C 0.47533 0.9309 0.1187 0.0
C688 C 0.51148 0.95442 0.13284 0.0
H689 H 0.43129 0.87925 0.12366 0.0
H690 H 0.46044 0.93833 0.09386 0.0
C691 C 0.53023 0.9429 0.16473 0.0
C692 C 0.08447 0.16208 0.66156 0.0
C693 C 0.06681 0.19277 0.66 0.0
H694 H 0.08341 0.10816 0.64145 0.0
C695 C 0.0333 0.19101 0.63496 0.0
H696 H 0.10995 0.16163 0.68051 0.0
C697 C 0.018 0.1601 0.61279 0.0
C698 C 0.0355 0.12955 0.61448 0.0
H699 H 0.01905 0.21387 0.63186 0.0
H700 H 0.99221 0.16024 0.59405 0.0
C701 C 0.06915 0.13108 0.63915 0.0
C702 C 0.68954 0.34181 0.43507 0.0
C703 C 0.72658 0.36798 0.4308 0.0
H704 H 0.62789 0.33111 0.45165 0.0
C705 C 0.72926 0.40448 0.44064 0.0
H706 H 0.68619 0.31361 0.42712 0.0
C707 C 0.69578 0.41454 0.45456 0.0
C708 C 0.6588 0.38835 0.45898 0.0
H709 H 0.75746 0.42523 0.43812 0.0
H710 H 0.69919 0.44273 0.46262 0.0
C711 C 0.65607 0.35187 0.44901 0.0
loop_
_geom_bond_atom_site_label_1
_geom_bond_atom_site_label_2
_geom_bond_distance
_geom_bond_site_symmetry_2
_ccdc_geom_bond_type
C0 C1 1.386 . S
C0 C2 1.397 . S
C0 H24 0.931 . S
C1 C0 1.386 . S
C1 C5 1.397 . S
C2 C0 1.397 . S
C2 C3 1.384 . S
C2 H25 0.930 . S
C3 C2 1.384 . S
C3 C4 1.377 . S
C3 C6 1.481 . S
C4 C3 1.377 . S
C4 C5 1.389 . S
C4 H26 0.929 . S
C5 C1 1.397 . S
C5 C4 1.389 . S
C5 H27 0.931 . S
C6 C3 1.481 . S
C6 C7 1.387 . S
C6 C11 1.390 . S
C7 C6 1.387 . S
C7 C8 1.401 . S
C7 H28 0.930 . S
C8 C7 1.401 . S
C8 C9 1.376 . S
C8 C17 1.511 . S
C9 C8 1.376 . S
C9 C10 1.392 . S
C9 H30 0.931 . S
C10 C9 1.392 . S
C10 C11 1.361 . S
C10 C12 1.500 . S
C11 C6 1.390 . S
C11 C10 1.361 . S
C11 H29 0.931 . S
C12 C10 1.500 . S
C12 C13 1.371 . S
C12 C14 1.365 . S
C13 C12 1.371 . S
C13 C23 1.386 . S
C13 H31 0.931 . S
C14 C12 1.365 . S
C14 C15 1.409 . S
C14 H32 0.929 . S
C15 C14 1.409 . S
C15 C16 1.380 . S
C15 H33 0.930 . S
C16 C15 1.380 . S
C16 C23 1.357 . S
C17 C8 1.511 . S
C17 C18 1.341 . S
C17 C19 1.371 . S
C18 C17 1.341 . S
C18 C22 1.394 . S
C18 H34 0.930 . S
C19 C17 1.371 . S
C19 C20 1.392 . S
C19 H35 0.931 . S
C20 C19 1.392 . S
C20 C21 1.331 . S
C20 H38 0.932 . S
C21 C20 1.331 . S
C21 C22 1.336 . S
C22 C18 1.394 . S
C22 C21 1.336 . S
C22 H37 0.929 . S
C23 C13 1.386 . S
C23 C16 1.357 . S
C23 H36 0.928 . S
H24 C0 0.931 . S
H25 C2 0.930 . S
H26 C4 0.929 . S
H27 C5 0.931 . S
H28 C7 0.930 . S
H29 C11 0.931 . S
H30 C9 0.931 . S
H31 C13 0.931 . S
H32 C14 0.929 . S
H33 C15 0.930 . S
H34 C18 0.930 . S
H35 C19 0.931 . S
H36 C23 0.928 . S
H37 C22 0.929 . S
H38 C20 0.932 . S
C39 C40 1.386 . S
C39 C41 1.397 . S
C39 H63 0.931 . S
C40 C39 1.386 . S
C40 C44 1.397 . S
C41 C39 1.397 . S
C41 C42 1.384 . S
C41 H64 0.930 . S
C42 C41 1.384 . S
C42 C43 1.377 . S
C42 C45 1.481 . S
C43 C42 1.377 . S
C43 C44 1.389 . S
C43 H65 0.929 . S
C44 C40 1.397 . S
C44 C43 1.389 . S
C44 H66 0.931 . S
C45 C42 1.481 . S
C45 C46 1.387 . S
C45 C50 1.390 . S
C46 C45 1.387 . S
C46 C47 1.401 . S
C46 H67 0.930 . S
C47 C46 1.401 . S
C47 C48 1.376 . S
C47 C56 1.511 . S
C48 C47 1.376 . S
C48 C49 1.392 . S
C48 H69 0.931 . S
C49 C48 1.392 . S
C49 C50 1.361 . S
C49 C51 1.500 . S
C50 C45 1.390 . S
C50 C49 1.361 . S
C50 H68 0.931 . S
C51 C49 1.500 . S
C51 C52 1.371 . S
C51 C53 1.365 . S
C52 C51 1.371 . S
C52 C62 1.386 . S
C52 H70 0.931 . S
C53 C51 1.365 . S
C53 C54 1.409 . S
C53 H71 0.929 . S
C54 C53 1.409 . S
C54 C55 1.380 . S
C54 H72 0.930 . S
C55 C54 1.380 . S
C55 C62 1.357 . S
C56 C47 1.511 . S
C56 C57 1.341 . S
C56 C58 1.371 . S
C57 C56 1.341 . S
C57 C61 1.394 . S
C57 H73 0.930 . S
C58 C56 1.371 . S
C58 C59 1.392 . S
C58 H74 0.931 . S
C59 C58 1.392 . S
C59 C60 1.331 . S
C59 H77 0.932 . S
C60 C59 1.331 . S
C60 C61 1.336 . S
C61 C57 1.394 . S
C61 C60 1.336 . S
C61 H76 0.929 . S
C62 C52 1.386 . S
C62 C55 1.357 . S
C62 H75 0.928 . S
H63 C39 0.931 . S
H64 C41 0.930 . S
H65 C43 0.929 . S
H66 C44 0.931 . S
H67 C46 0.930 . S
H68 C50 0.931 . S
H69 C48 0.931 . S
H70 C52 0.931 . S
H71 C53 0.929 . S
H72 C54 0.930 . S
H73 C57 0.930 . S
H74 C58 0.931 . S
H75 C62 0.928 . S
H76 C61 0.929 . S
H77 C59 0.932 . S
C78 C79 1.386 . S
C78 C80 1.397 . S
C78 H102 0.931 . S
C79 C78 1.386 . S
C79 C83 1.397 . S
C80 C78 1.397 . S
C80 C81 1.384 . S
C80 H103 0.930 . S
C81 C80 1.384 . S
C81 C82 1.377 . S
C81 C84 1.481 . S
C82 C81 1.377 . S
C82 C83 1.389 . S
C82 H104 0.929 . S
C83 C79 1.397 . S
C83 C82 1.389 . S
C83 H105 0.931 . S
C84 C81 1.481 . S
C84 C85 1.387 . S
C84 C89 1.390 . S
C85 C84 1.387 . S
C85 C86 1.401 . S
C85 H106 0.930 . S
C86 C85 1.401 . S
C86 C87 1.376 . S
C86 C95 1.511 . S
C87 C86 1.376 . S
C87 C88 1.392 . S
C87 H108 0.931 . S
C88 C87 1.392 . S
C88 C89 1.361 . S
C88 C90 1.500 . S
C89 C84 1.390 . S
C89 C88 1.361 . S
C89 H107 0.931 . S
C90 C88 1.500 . S
C90 C91 1.371 . S
C90 C92 1.365 . S
C91 C90 1.371 . S
C91 C101 1.386 . S
C91 H109 0.931 . S
C92 C90 1.365 . S
C92 C93 1.409 . S
C92 H110 0.929 . S
C93 C92 1.409 . S
C93 C94 1.380 . S
C93 H111 0.930 . S
C94 C93 1.380 . S
C94 C101 1.357 . S
C95 C86 1.511 . S
C95 C96 1.341 . S
C95 C97 1.371 . S
C96 C95 1.341 . S
C96 C100 1.394 . S
C96 H112 0.930 . S
C97 C95 1.371 . S
C97 C98 1.392 . S
C97 H113 0.931 . S
C98 C97 1.392 . S
C98 C99 1.331 . S
C98 H116 0.932 . S
C99 C98 1.331 . S
C99 C100 1.336 . S
C100 C96 1.394 . S
C100 C99 1.336 . S
C100 H115 0.929 . S
C101 C91 1.386 . S
C101 C94 1.357 . S
C101 H114 0.928 . S
H102 C78 0.931 . S
H103 C80 0.930 . S
H104 C82 0.929 . S
H105 C83 0.931 . S
H106 C85 0.930 . S
H107 C89 0.931 . S
H108 C87 0.931 . S
H109 C91 0.931 . S
H110 C92 0.929 . S
H111 C93 0.930 . S
H112 C96 0.930 . S
H113 C97 0.931 . S
H114 C101 0.928 . S
H115 C100 0.929 . S
H116 C98 0.932 . S
C117 C118 1.386 . S
C117 C119 1.397 . S
C117 H141 0.931 . S
C118 C117 1.386 . S
C118 C122 1.397 . S
C119 C117 1.397 . S
C119 C120 1.384 . S
C119 H142 0.930 . S
C120 C119 1.384 . S
C120 C121 1.377 . S
C120 C123 1.481 . S
C121 C120 1.377 . S
C121 C122 1.389 . S
C121 H143 0.929 . S
C122 C118 1.397 . S
C122 C121 1.389 . S
C122 H144 0.931 . S
C123 C120 1.481 . S
C123 C124 1.387 . S
C123 C128 1.390 . S
C124 C123 1.387 . S
C124 C125 1.401 . S
C124 H145 0.930 . S
C125 C124 1.401 . S
C125 C126 1.376 . S
C125 C134 1.511 . S
C126 C125 1.376 . S
C126 C127 1.392 . S
C126 H147 0.931 . S
C127 C126 1.392 . S
C127 C128 1.361 . S
C127 C129 1.500 . S
C128 C123 1.390 . S
C128 C127 1.361 . S
C128 H146 0.931 . S
C129 C127 1.500 . S
C129 C130 1.371 . S
C129 C131 1.365 . S
C130 C129 1.371 . S
C130 C140 1.386 . S
C130 H148 0.931 . S
C131 C129 1.365 . S
C131 C132 1.409 . S
C131 H149 0.929 . S
C132 C131 1.409 . S
C132 C133 1.380 . S
C132 H150 0.930 . S
C133 C132 1.380 . S
C133 C140 1.357 . S
C134 C125 1.511 . S
C134 C135 1.341 . S
C134 C136 1.371 . S
C135 C134 1.341 . S
C135 C139 1.394 . S
C135 H151 0.930 . S
C136 C134 1.371 . S
C136 C137 1.392 . S
C136 H152 0.931 . S
C137 C136 1.392 . S
C137 C138 1.331 . S
C137 H155 0.932 . S
C138 C137 1.331 . S
C138 C139 1.336 . S
C139 C135 1.394 . S
C139 C138 1.336 . S
C139 H154 0.929 . S
C140 C130 1.386 . S
C140 C133 1.357 . S
C140 H153 0.928 . S
H141 C117 0.931 . S
H142 C119 0.930 . S
H143 C121 0.929 . S
H144 C122 0.931 . S
H145 C124 0.930 . S
H146 C128 0.931 . S
H147 C126 0.931 . S
H148 C130 0.931 . S
H149 C131 0.929 . S
H150 C132 0.930 . S
H151 C135 0.930 . S
H152 C136 0.931 . S
H153 C140 0.928 . S
H154 C139 0.929 . S
H155 C137 0.932 . S
C156 C157 1.386 . S
C156 C158 1.397 . S
C156 H180 0.931 . S
C157 C156 1.386 . S
C157 C161 1.397 . S
C158 C156 1.397 . S
C158 C159 1.384 . S
C158 H181 0.930 . S
C159 C158 1.384 . S
C159 C160 1.377 . S
C159 C162 1.481 . S
C160 C159 1.377 . S
C160 C161 1.389 . S
C160 H182 0.929 . S
C161 C157 1.397 . S
C161 C160 1.389 . S
C161 H183 0.931 . S
C162 C159 1.481 . S
C162 C163 1.387 . S
C162 C167 1.390 . S
C163 C162 1.387 . S
C163 C164 1.401 . S
C163 H184 0.930 . S
C164 C163 1.401 . S
C164 C165 1.376 . S
C164 C173 1.511 . S
C165 C164 1.376 . S
C165 C166 1.392 . S
C165 H186 0.931 . S
C166 C165 1.392 . S
C166 C167 1.361 . S
C166 C168 1.500 . S
C167 C162 1.390 . S
C167 C166 1.361 . S
C167 H185 0.931 . S
C168 C166 1.500 . S
C168 C169 1.371 . S
C168 C170 1.365 . S
C169 C168 1.371 . S
C169 C179 1.386 . S
C169 H187 0.931 . S
C170 C168 1.365 . S
C170 C171 1.409 . S
C170 H188 0.929 . S
C171 C170 1.409 . S
C171 C172 1.380 . S
C171 H189 0.930 . S
C172 C171 1.380 . S
C172 C179 1.357 . S
C173 C164 1.511 . S
C173 C174 1.341 . S
C173 C175 1.371 . S
C174 C173 1.341 . S
C174 C178 1.394 . S
C174 H190 0.930 . S
C175 C173 1.371 . S
C175 C176 1.392 . S
C175 H191 0.931 . S
C176 C175 1.392 . S
C176 C177 1.331 . S
C176 H194 0.932 . S
C177 C176 1.331 . S
C177 C178 1.336 . S
C178 C174 1.394 . S
C178 C177 1.336 . S
C178 H193 0.929 . S
C179 C169 1.386 . S
C179 C172 1.357 . S
C179 H192 0.928 . S
H180 C156 0.931 . S
H181 C158 0.930 . S
H182 C160 0.929 . S
H183 C161 0.931 . S
H184 C163 0.930 . S
H185 C167 0.931 . S
H186 C165 0.931 . S
H187 C169 0.931 . S
H188 C170 0.929 . S
H189 C171 0.930 . S
H190 C174 0.930 . S
H191 C175 0.931 . S
H192 C179 0.928 . S
H193 C178 0.929 . S
H194 C176 0.932 . S
C195 C196 1.386 . S
C195 C197 1.397 . S
C195 H219 0.931 . S
C196 C195 1.386 . S
C196 C200 1.397 . S
C197 C195 1.397 . S
C197 C198 1.384 . S
C197 H220 0.930 . S
C198 C197 1.384 . S
C198 C199 1.377 . S
C198 C201 1.481 . S
C199 C198 1.377 . S
C199 C200 1.389 . S
C199 H221 0.929 . S
C200 C196 1.397 . S
C200 C199 1.389 . S
C200 H222 0.931 . S
C201 C198 1.481 . S
C201 C202 1.387 . S
C201 C206 1.390 . S
C202 C201 1.387 . S
C202 C203 1.401 . S
C202 H223 0.930 . S
C203 C202 1.401 . S
C203 C204 1.376 . S
C203 C212 1.511 . S
C204 C203 1.376 . S
C204 C205 1.392 . S
C204 H225 0.931 . S
C205 C204 1.392 . S
C205 C206 1.361 . S
C205 C207 1.500 . S
C206 C201 1.390 . S
C206 C205 1.361 . S
C206 H224 0.931 . S
C207 C205 1.500 . S
C207 C208 1.371 . S
C207 C209 1.365 . S
C208 C207 1.371 . S
C208 C218 1.386 . S
C208 H226 0.931 . S
C209 C207 1.365 . S
C209 C210 1.409 . S
C209 H227 0.929 . S
C210 C209 1.409 . S
C210 C211 1.380 . S
C210 H228 0.930 . S
C211 C210 1.380 . S
C211 C218 1.357 . S
C212 C203 1.511 . S
C212 C213 1.341 . S
C212 C214 1.371 . S
C213 C212 1.341 . S
C213 C217 1.394 . S
C213 H229 0.930 . S
C214 C212 1.371 . S
C214 C215 1.392 . S
C214 H230 0.931 . S
C215 C214 1.392 . S
C215 C216 1.331 . S
C215 H233 0.932 1_655 S
C216 C215 1.331 . S
C216 C217 1.336 . S
C217 C213 1.394 . S
C217 C216 1.336 . S
C217 H232 0.929 . S
C218 C208 1.386 . S
C218 C211 1.357 . S
C218 H231 0.928 . S
H219 C195 0.931 . S
H220 C197 0.930 . S
H221 C199 0.929 . S
H222 C200 0.931 . S
H223 C202 0.930 . S
H224 C206 0.931 . S
H225 C204 0.931 . S
H226 C208 0.931 . S
H227 C209 0.929 . S
H228 C210 0.930 . S
H229 C213 0.930 . S
H230 C214 0.931 . S
H231 C218 0.928 . S
H232 C217 0.929 . S
H233 C215 0.932 1_455 S
C234 C235 1.386 . S
C234 C236 1.397 . S
C234 H258 0.931 . S
C235 C234 1.386 . S
C235 C239 1.397 . S
C236 C234 1.397 . S
C236 C237 1.384 . S
C236 H259 0.930 . S
C237 C236 1.384 . S
C237 C238 1.377 . S
C237 C240 1.481 . S
C238 C237 1.377 . S
C238 C239 1.389 . S
C238 H260 0.929 . S
C239 C235 1.397 . S
C239 C238 1.389 . S
C239 H261 0.931 . S
C240 C237 1.481 . S
C240 C241 1.387 . S
C240 C245 1.390 . S
C241 C240 1.387 . S
C241 C242 1.401 . S
C241 H262 0.930 . S
C242 C241 1.401 . S
C242 C243 1.376 . S
C242 C251 1.511 . S
C243 C242 1.376 . S
C243 C244 1.392 . S
C243 H264 0.931 . S
C244 C243 1.392 . S
C244 C245 1.361 . S
C244 C246 1.500 . S
C245 C240 1.390 . S
C245 C244 1.361 . S
C245 H263 0.931 . S
C246 C244 1.500 . S
C246 C247 1.371 . S
C246 C248 1.365 . S
C247 C246 1.371 . S
C247 C257 1.386 . S
C247 H265 0.931 . S
C248 C246 1.365 . S
C248 C249 1.409 . S
C248 H266 0.929 . S
C249 C248 1.409 . S
C249 C250 1.380 . S
C249 H267 0.930 . S
C250 C249 1.380 . S
C250 C257 1.357 . S
C251 C242 1.511 . S
C251 C252 1.341 . S
C251 C253 1.371 . S
C252 C251 1.341 . S
C252 C256 1.394 . S
C252 H268 0.930 . S
C253 C251 1.371 . S
C253 C254 1.392 . S
C253 H269 0.931 . S
C254 C253 1.392 . S
C254 C255 1.331 . S
C254 H272 0.932 . S
C255 C254 1.331 . S
C255 C256 1.336 . S
C256 C252 1.394 . S
C256 C255 1.336 . S
C256 H271 0.929 . S
C257 C247 1.386 . S
C257 C250 1.357 . S
C257 H270 0.928 . S
H258 C234 0.931 . S
H259 C236 0.930 . S
H260 C238 0.929 . S
H261 C239 0.931 . S
H262 C241 0.930 . S
H263 C245 0.931 . S
H264 C243 0.931 . S
H265 C247 0.931 . S
H266 C248 0.929 . S
H267 C249 0.930 . S
H268 C252 0.930 . S
H269 C253 0.931 . S
H270 C257 0.928 . S
H271 C256 0.929 . S
H272 C254 0.932 . S
C273 C274 1.386 . S
C273 C275 1.397 . S
C273 H297 0.931 . S
C274 C273 1.386 . S
C274 C278 1.397 . S
C275 C273 1.397 . S
C275 C276 1.384 . S
C275 H298 0.930 . S
C276 C275 1.384 . S
C276 C277 1.377 . S
C276 C279 1.481 . S
C277 C276 1.377 . S
C277 C278 1.389 . S
C277 H299 0.929 . S
C278 C274 1.397 . S
C278 C277 1.389 . S
C278 H300 0.931 . S
C279 C276 1.481 . S
C279 C280 1.387 . S
C279 C284 1.390 . S
C280 C279 1.387 . S
C280 C281 1.401 . S
C280 H301 0.930 . S
C281 C280 1.401 . S
C281 C282 1.376 . S
C281 C290 1.511 . S
C282 C281 1.376 . S
C282 C283 1.392 . S
C282 H303 0.931 . S
C283 C282 1.392 . S
C283 C284 1.361 . S
C283 C285 1.500 . S
C284 C279 1.390 . S
C284 C283 1.361 . S
C284 H302 0.931 . S
C285 C283 1.500 . S
C285 C286 1.371 . S
C285 C287 1.365 . S
C286 C285 1.371 . S
C286 C296 1.386 . S
C286 H304 0.931 . S
C287 C285 1.365 . S
C287 C288 1.409 . S
C287 H305 0.929 . S
C288 C287 1.409 . S
C288 C289 1.380 . S
C288 H306 0.930 . S
C289 C288 1.380 . S
C289 C296 1.357 . S
C290 C281 1.511 . S
C290 C291 1.341 . S
C290 C292 1.371 . S
C291 C290 1.341 . S
C291 C295 1.394 . S
C291 H307 0.930 . S
C292 C290 1.371 . S
C292 C293 1.392 . S
C292 H308 0.931 . S
C293 C292 1.392 . S
C293 C294 1.331 . S
C293 H311 0.932 . S
C294 C293 1.331 . S
C294 C295 1.336 . S
C295 C291 1.394 . S
C295 C294 1.336 . S
C295 H310 0.929 . S
C296 C286 1.386 . S
C296 C289 1.357 . S
C296 H309 0.928 . S
H297 C273 0.931 . S
H298 C275 0.930 . S
H299 C277 0.929 . S
H300 C278 0.931 . S
H301 C280 0.930 . S
H302 C284 0.931 . S
H303 C282 0.931 . S
H304 C286 0.931 . S
H305 C287 0.929 . S
H306 C288 0.930 . S
H307 C291 0.930 . S
H308 C292 0.931 . S
H309 C296 0.928 . S
H310 C295 0.929 . S
H311 C293 0.932 . S
Tb312 C314 2.809 1_545 S
Tb312 O332 2.484 1_545 S
Tb312 O333 2.440 1_545 S
Tb312 O334 2.658 1_655 S
Tb312 O335 2.409 . S
Tb312 O336 2.378 1_645 S
Tb312 O340 2.325 1_545 S
Tb312 O343 2.341 . S
Tb313 C323 2.809 . S
Tb313 O334 2.325 . S
Tb313 O337 2.341 1_545 S
Tb313 O338 2.484 . S
Tb313 O339 2.440 . S
Tb313 O340 2.658 1_445 S
Tb313 O341 2.409 1_545 S
Tb313 O342 2.378 . S
C314 Tb312 2.809 1_565 S
C314 C315 1.514 . S
C314 O332 1.248 . S
C314 O333 1.266 . S
C315 C314 1.514 . S
C315 C316 1.359 . S
C315 C320 1.348 . S
C316 C315 1.359 . S
C316 C317 1.380 . S
C316 H344 0.929 . S
C317 C316 1.380 . S
C317 C318 1.347 . S
C317 H345 0.931 . S
C318 C317 1.347 . S
C318 C319 1.369 . S
C319 C318 1.369 . S
C319 C320 1.408 . S
C319 H346 0.930 . S
C320 C315 1.348 . S
C320 C319 1.408 . S
C320 H347 0.930 . S
C321 O334 1.281 . S
C321 O335 1.254 1_455 S
C322 O336 1.236 . S
C322 O337 1.266 . S
C323 Tb313 2.809 . S
C323 C324 1.514 . S
C323 O338 1.248 . S
C323 O339 1.266 . S
C324 C323 1.514 . S
C324 C325 1.359 . S
C324 C329 1.348 . S
C325 C324 1.359 . S
C325 C326 1.380 . S
C325 H348 0.929 . S
C326 C325 1.380 . S
C326 C327 1.347 . S
C326 H349 0.931 . S
C327 C326 1.347 . S
C327 C328 1.369 . S
C328 C327 1.369 . S
C328 C329 1.408 . S
C328 H350 0.930 . S
C329 C324 1.348 . S
C329 C328 1.408 . S
C329 H351 0.930 . S
C330 O340 1.281 . S
C330 O341 1.254 1_655 S
C331 O342 1.236 1_655 S
C331 O343 1.266 . S
O332 Tb312 2.484 1_565 S
O332 C314 1.248 . S
O333 Tb312 2.440 1_565 S
O333 C314 1.266 . S
O334 Tb312 2.658 1_455 S
O334 Tb313 2.325 . S
O334 C321 1.281 . S
O335 Tb312 2.409 . S
O335 C321 1.254 1_655 S
O336 Tb312 2.378 1_465 S
O336 C322 1.236 . S
O337 Tb313 2.341 1_565 S
O337 C322 1.266 . S
O338 Tb313 2.484 . S
O338 C323 1.248 . S
O339 Tb313 2.440 . S
O339 C323 1.266 . S
O340 Tb312 2.325 1_565 S
O340 Tb313 2.658 1_665 S
O340 C330 1.281 . S
O341 Tb313 2.409 1_565 S
O341 C330 1.254 1_455 S
O342 Tb313 2.378 . S
O342 C331 1.236 1_455 S
O343 Tb312 2.341 . S
O343 C331 1.266 . S
H344 C316 0.929 . S
H345 C317 0.931 . S
H346 C319 0.930 . S
H347 C320 0.930 . S
H348 C325 0.929 . S
H349 C326 0.931 . S
H350 C328 0.930 . S
H351 C329 0.930 . S
Tb352 C354 2.809 . S
Tb352 O372 2.484 . S
Tb352 O373 2.440 . S
Tb352 O374 2.658 1_545 S
Tb352 O375 2.409 1_545 S
Tb352 O376 2.378 . S
Tb352 O380 2.325 1_554 S
Tb352 O383 2.341 1_544 S
Tb353 C363 2.813 . S
Tb353 O374 2.329 1_556 S
Tb353 O377 2.337 1_566 S
Tb353 O378 2.491 . S
Tb353 O379 2.442 . S
Tb353 O380 2.655 1_565 S
Tb353 O381 2.404 1_565 S
Tb353 O382 2.382 . S
C354 Tb352 2.809 . S
C354 C355 1.514 . S
C354 O372 1.248 . S
C354 O373 1.266 . S
C355 C354 1.514 . S
C355 C356 1.359 . S
C355 C360 1.348 . S
C356 C355 1.359 . S
C356 C357 1.380 . S
C356 H384 0.929 . S
C357 C356 1.380 . S
C357 C358 1.347 . S
C357 H385 0.931 . S
C358 C357 1.347 . S
C358 C359 1.369 . S
C359 C358 1.369 . S
C359 C360 1.408 . S
C359 H386 0.930 . S
C360 C355 1.348 . S
C360 C359 1.408 . S
C360 H387 0.930 . S
C361 O374 1.281 . S
C361 O375 1.254 . S
C362 O376 1.236 . S
C362 O377 1.266 . S
C363 Tb353 2.813 . S
C363 C364 1.514 . S
C363 O378 1.248 . S
C363 O379 1.266 . S
C364 C363 1.514 . S
C364 C365 1.359 . S
C364 C369 1.348 . S
C365 C364 1.359 . S
C365 C366 1.380 . S
C365 H388 0.929 . S
C366 C365 1.380 . S
C366 C367 1.347 . S
C366 H389 0.931 . S
C367 C366 1.347 . S
C367 C368 1.369 . S
C368 C367 1.369 . S
C368 C369 1.408 . S
C368 H390 0.930 . S
C369 C364 1.348 . S
C369 C368 1.408 . S
C369 H391 0.930 . S
C370 O380 1.281 . S
C370 O381 1.254 . S
C371 O382 1.236 . S
C371 O383 1.266 . S
O372 Tb352 2.484 . S
O372 C354 1.248 . S
O373 Tb352 2.440 . S
O373 C354 1.266 . S
O374 Tb352 2.658 1_565 S
O374 Tb353 2.329 1_554 S
O374 C361 1.281 . S
O375 Tb352 2.409 1_565 S
O375 C361 1.254 . S
O376 Tb352 2.378 . S
O376 C362 1.236 . S
O377 Tb353 2.337 1_544 S
O377 C362 1.266 . S
O378 Tb353 2.491 . S
O378 C363 1.248 . S
O379 Tb353 2.442 . S
O379 C363 1.266 . S
O380 Tb352 2.325 1_556 S
O380 Tb353 2.655 1_545 S
O380 C370 1.281 . S
O381 Tb353 2.404 1_545 S
O381 C370 1.254 . S
O382 Tb353 2.382 . S
O382 C371 1.236 . S
O383 Tb352 2.341 1_566 S
O383 C371 1.266 . S
H384 C356 0.929 . S
H385 C357 0.931 . S
H386 C359 0.930 . S
H387 C360 0.930 . S
H388 C365 0.929 . S
H389 C366 0.931 . S
H390 C368 0.930 . S
H391 C369 0.930 . S
Tb392 C394 2.809 . S
Tb392 O412 2.484 . S
Tb392 O413 2.440 . S
Tb392 O414 2.658 . S
Tb392 O415 2.409 . S
Tb392 O416 2.378 . S
Tb392 O420 2.325 . S
Tb392 O423 2.341 . S
Tb393 C403 2.809 . S
Tb393 O414 2.325 . S
Tb393 O417 2.341 . S
Tb393 O418 2.484 . S
Tb393 O419 2.440 . S
Tb393 O420 2.658 . S
Tb393 O421 2.409 . S
Tb393 O422 2.378 . S
C394 Tb392 2.809 . S
C394 C395 1.514 . S
C394 O412 1.248 . S
C394 O413 1.266 . S
C395 C394 1.514 . S
C395 C396 1.359 . S
C395 C400 1.348 . S
C396 C395 1.359 . S
C396 C397 1.380 . S
C396 H424 0.929 . S
C397 C396 1.380 . S
C397 C398 1.347 . S
C397 H425 0.931 . S
C398 C397 1.347 . S
C398 C399 1.369 . S
C399 C398 1.369 . S
C399 C400 1.408 . S
C399 H426 0.930 . S
C400 C395 1.348 . S
C400 C399 1.408 . S
C400 H427 0.930 . S
C401 O414 1.281 . S
C401 O415 1.254 . S
C402 O416 1.236 . S
C402 O417 1.266 . S
C403 Tb393 2.809 . S
C403 C404 1.514 . S
C403 O418 1.248 . S
C403 O419 1.266 . S
C404 C403 1.514 . S
C404 C405 1.359 . S
C404 C409 1.348 . S
C405 C404 1.359 . S
C405 C406 1.380 . S
C405 H428 0.929 . S
C406 C405 1.380 . S
C406 C407 1.347 . S
C406 H429 0.931 . S
C407 C406 1.347 . S
C407 C408 1.369 . S
C408 C407 1.369 . S
C408 C409 1.408 . S
C408 H430 0.930 . S
C409 C404 1.348 . S
C409 C408 1.408 . S
C409 H431 0.930 . S
C410 O420 1.281 . S
C410 O421 1.254 . S
C411 O422 1.236 . S
C411 O423 1.266 . S
O412 Tb392 2.484 . S
O412 C394 1.248 . S
O413 Tb392 2.440 . S
O413 C394 1.266 . S
O414 Tb392 2.658 . S
O414 Tb393 2.325 . S
O414 C401 1.281 . S
O415 Tb392 2.409 . S
O415 C401 1.254 . S
O416 Tb392 2.378 . S
O416 C402 1.236 . S
O417 Tb393 2.341 . S
O417 C402 1.266 . S
O418 Tb393 2.484 . S
O418 C403 1.248 . S
O419 Tb393 2.440 . S
O419 C403 1.266 . S
O420 Tb392 2.325 . S
O420 Tb393 2.658 . S
O420 C410 1.281 . S
O421 Tb393 2.409 . S
O421 C410 1.254 . S
O422 Tb393 2.378 . S
O422 C411 1.236 . S
O423 Tb392 2.341 . S
O423 C411 1.266 . S
H424 C396 0.929 . S
H425 C397 0.931 . S
H426 C399 0.930 . S
H427 C400 0.930 . S
H428 C405 0.929 . S
H429 C406 0.931 . S
H430 C408 0.930 . S
H431 C409 0.930 . S
Tb432 C434 2.811 . S
Tb432 O452 2.488 . S
Tb432 O453 2.442 . S
Tb432 O454 2.656 1_656 S
Tb432 O455 2.406 1_656 S
Tb432 O456 2.379 1_556 S
Tb432 O460 2.326 . S
Tb432 O463 2.339 1_655 S
Tb433 C443 2.809 . S
Tb433 O454 2.325 . S
Tb433 O457 2.341 1_455 S
Tb433 O458 2.484 . S
Tb433 O459 2.440 . S
Tb433 O460 2.658 1_454 S
Tb433 O461 2.420 1_455 S
Tb433 O462 2.378 1_554 S
C434 Tb432 2.811 . S
C434 C435 1.514 . S
C434 O452 1.248 . S
C434 O453 1.266 . S
C435 C434 1.514 . S
C435 C436 1.359 . S
C435 C440 1.348 . S
C436 C435 1.359 . S
C436 C437 1.380 . S
C436 H464 0.929 . S
C437 C436 1.380 . S
C437 C438 1.347 . S
C437 H465 0.931 . S
C438 C437 1.347 . S
C438 C439 1.369 . S
C439 C438 1.369 . S
C439 C440 1.408 . S
C439 H466 0.930 . S
C440 C435 1.348 . S
C440 C439 1.408 . S
C440 H467 0.930 . S
C441 O454 1.281 . S
C441 O455 1.254 . S
C442 O456 1.236 . S
C442 O457 1.266 . S
C443 Tb433 2.809 . S
C443 C444 1.514 . S
C443 O458 1.248 . S
C443 O459 1.266 . S
C444 C443 1.514 . S
C444 C445 1.359 . S
C444 C449 1.348 . S
C445 C444 1.359 . S
C445 C446 1.380 . S
C445 H468 0.929 . S
C446 C445 1.380 . S
C446 C447 1.347 . S
C446 H469 0.931 . S
C447 C446 1.347 . S
C447 C448 1.369 . S
C448 C447 1.369 . S
C448 C449 1.408 . S
C448 H470 0.930 . S
C449 C444 1.348 . S
C449 C448 1.408 . S
C449 H471 0.930 . S
C450 O460 1.281 . S
C450 O461 1.241 1_556 S
C451 O462 1.236 . S
C451 O463 1.266 . S
O452 Tb432 2.488 . S
O452 C434 1.248 . S
O453 Tb432 2.442 . S
O453 C434 1.266 . S
O454 Tb432 2.656 1_454 S
O454 Tb433 2.325 . S
O454 C441 1.281 . S
O455 Tb432 2.406 1_454 S
O455 C441 1.254 . S
O456 Tb432 2.379 1_554 S
O456 C442 1.236 . S
O457 Tb433 2.341 1_655 S
O457 C442 1.266 . S
O458 Tb433 2.484 . S
O458 C443 1.248 . S
O459 Tb433 2.440 . S
O459 C443 1.266 . S
O460 Tb432 2.326 . S
O460 Tb433 2.658 1_656 S
O460 C450 1.281 . S
O461 Tb433 2.420 1_655 S
O461 C450 1.241 1_554 S
O462 Tb433 2.378 1_556 S
O462 C451 1.236 . S
O463 Tb432 2.339 1_455 S
O463 C451 1.266 . S
H464 C436 0.929 . S
H465 C437 0.931 . S
H466 C439 0.930 . S
H467 C440 0.930 . S
H468 C445 0.929 . S
H469 C446 0.931 . S
H470 C448 0.930 . S
H471 C449 0.930 . S
C472 C473 1.387 . S
C472 H476 0.950 . S
C472 C481 1.390 . S
C473 C472 1.387 . S
C473 C475 1.387 . S
H474 C481 0.950 . S
C475 C473 1.387 . S
C475 C477 1.390 . S
C475 H479 0.950 . S
H476 C472 0.950 . S
C477 C475 1.390 . S
C477 C478 1.387 . S
C477 H480 0.950 . S
C478 C477 1.387 . S
C478 C481 1.387 . S
H479 C475 0.950 . S
H480 C477 0.950 . S
C481 C472 1.390 . S
C481 H474 0.950 . S
C481 C478 1.387 . S
C482 C483 1.387 . S
C482 H486 0.950 . S
C482 C491 1.390 . S
C483 C482 1.387 . S
C483 C485 1.387 . S
H484 C491 0.950 . S
C485 C483 1.387 . S
C485 C487 1.390 . S
C485 H489 0.950 . S
H486 C482 0.950 . S
C487 C485 1.390 . S
C487 C488 1.387 . S
C487 H490 0.950 . S
C488 C487 1.387 . S
C488 C491 1.387 . S
H489 C485 0.950 . S
H490 C487 0.950 . S
C491 C482 1.390 . S
C491 H484 0.950 . S
C491 C488 1.387 . S
C492 C493 1.387 . S
C492 H496 0.950 . S
C492 C501 1.390 . S
C493 C492 1.387 . S
C493 C495 1.387 . S
H494 C501 0.950 . S
C495 C493 1.387 . S
C495 C497 1.390 . S
C495 H499 0.950 . S
H496 C492 0.950 . S
C497 C495 1.390 . S
C497 C498 1.387 . S
C497 H500 0.950 . S
C498 C497 1.387 . S
C498 C501 1.387 . S
H499 C495 0.950 . S
H500 C497 0.950 . S
C501 C492 1.390 . S
C501 H494 0.950 . S
C501 C498 1.387 . S
C502 C503 1.387 . S
C502 H506 0.950 . S
C502 C511 1.390 . S
C503 C502 1.387 . S
C503 C505 1.387 . S
H504 C511 0.950 . S
C505 C503 1.387 . S
C505 C507 1.390 . S
C505 H509 0.950 . S
H506 C502 0.950 . S
C507 C505 1.390 . S
C507 C508 1.387 . S
C507 H510 0.950 . S
C508 C507 1.387 . S
C508 C511 1.387 . S
H509 C505 0.950 . S
H510 C507 0.950 . S
C511 C502 1.390 . S
C511 H504 0.950 . S
C511 C508 1.387 . S
C512 C513 1.387 . S
C512 H516 0.950 . S
C512 C521 1.390 . S
C513 C512 1.387 . S
C513 C515 1.387 . S
H514 C521 0.950 . S
C515 C513 1.387 . S
C515 C517 1.390 . S
C515 H519 0.950 . S
H516 C512 0.950 . S
C517 C515 1.390 . S
C517 C518 1.387 . S
C517 H520 0.950 . S
C518 C517 1.387 . S
C518 C521 1.387 . S
H519 C515 0.950 . S
H520 C517 0.950 . S
C521 C512 1.390 . S
C521 H514 0.950 . S
C521 C518 1.387 . S
C522 C523 1.387 . S
C522 H526 0.950 . S
C522 C531 1.390 . S
C523 C522 1.387 . S
C523 C525 1.387 1_455 S
H524 C531 0.950 . S
C525 C523 1.387 1_655 S
C525 C527 1.390 1_655 S
C525 H529 0.950 . S
H526 C522 0.950 . S
C527 C525 1.390 1_455 S
C527 C528 1.397 . S
C527 H530 0.941 1_455 S
C528 C527 1.397 . S
C528 C531 1.387 . S
H529 C525 0.950 . S
H530 C527 0.941 1_655 S
C531 C522 1.390 . S
C531 H524 0.950 . S
C531 C528 1.387 . S
C532 C533 1.387 . S
C532 H536 0.950 . S
C532 C541 1.390 . S
C533 C532 1.387 . S
C533 C535 1.387 . S
H534 C541 0.950 . S
C535 C533 1.387 . S
C535 C537 1.390 . S
C535 H539 0.950 . S
H536 C532 0.950 . S
C537 C535 1.390 . S
C537 C538 1.387 . S
C537 H540 0.950 . S
C538 C537 1.387 . S
C538 C541 1.387 . S
H539 C535 0.950 . S
H540 C537 0.950 . S
C541 C532 1.390 . S
C541 H534 0.950 . S
C541 C538 1.387 . S
C542 C543 1.387 . S
C542 H546 0.950 . S
C542 C551 1.390 . S
C543 C542 1.387 . S
C543 C545 1.387 . S
H544 C551 0.950 . S
C545 C543 1.387 . S
C545 C547 1.390 . S
C545 H549 0.950 . S
H546 C542 0.950 . S
C547 C545 1.390 . S
C547 C548 1.387 . S
C547 H550 0.950 . S
C548 C547 1.387 . S
C548 C551 1.387 . S
H549 C545 0.950 . S
H550 C547 0.950 . S
C551 C542 1.390 . S
C551 H544 0.950 . S
C551 C548 1.387 . S
C552 C553 1.387 . S
C552 H556 0.950 . S
C552 C561 1.390 . S
C553 C552 1.387 . S
C553 C555 1.387 . S
H554 C561 0.950 . S
C555 C553 1.387 . S
C555 C557 1.390 . S
C555 H559 0.950 . S
H556 C552 0.950 . S
C557 C555 1.390 . S
C557 C558 1.387 . S
C557 H560 0.950 . S
C558 C557 1.387 . S
C558 C561 1.387 . S
H559 C555 0.950 . S
H560 C557 0.950 . S
C561 C552 1.390 . S
C561 H554 0.950 . S
C561 C558 1.387 . S
C562 C563 1.387 . S
C562 H566 0.950 . S
C562 C571 1.390 . S
C563 C562 1.387 . S
C563 C565 1.387 . S
H564 C571 0.950 . S
C565 C563 1.387 . S
C565 C567 1.390 . S
C565 H569 0.950 . S
H566 C562 0.950 . S
C567 C565 1.390 . S
C567 C568 1.387 . S
C567 H570 0.950 . S
C568 C567 1.387 . S
C568 C571 1.387 . S
H569 C565 0.950 . S
H570 C567 0.950 . S
C571 C562 1.390 . S
C571 H564 0.950 . S
C571 C568 1.387 . S
C572 C573 1.387 . S
C572 H576 0.950 . S
C572 C581 1.390 . S
C573 C572 1.387 . S
C573 C575 1.387 . S
H574 C581 0.950 . S
C575 C573 1.387 . S
C575 C577 1.390 . S
C575 H579 0.950 . S
H576 C572 0.950 . S
C577 C575 1.390 . S
C577 C578 1.387 . S
C577 H580 0.950 1_655 S
C578 C577 1.387 . S
C578 C581 1.387 . S
H579 C575 0.950 . S
H580 C577 0.950 1_455 S
C581 C572 1.390 . S
C581 H574 0.950 . S
C581 C578 1.387 . S
C582 C583 1.387 . S
C582 H586 0.950 . S
C582 C591 1.390 . S
C583 C582 1.387 . S
C583 C585 1.387 . S
H584 C591 0.950 . S
C585 C583 1.387 . S
C585 C587 1.390 . S
C585 H589 0.950 . S
H586 C582 0.950 . S
C587 C585 1.390 . S
C587 C588 1.387 . S
C587 H590 0.950 . S
C588 C587 1.387 . S
C588 C591 1.387 . S
H589 C585 0.950 . S
H590 C587 0.950 . S
C591 C582 1.390 . S
C591 H584 0.950 . S
C591 C588 1.387 . S
C592 C593 1.387 . S
C592 H596 0.950 . S
C592 C601 1.390 . S
C593 C592 1.387 . S
C593 C595 1.387 . S
H594 C601 0.950 . S
C595 C593 1.387 . S
C595 C597 1.390 . S
C595 H599 0.950 . S
H596 C592 0.950 . S
C597 C595 1.390 . S
C597 C598 1.387 . S
C597 H600 0.950 . S
C598 C597 1.387 . S
C598 C601 1.387 . S
H599 C595 0.950 . S
H600 C597 0.950 . S
C601 C592 1.390 . S
C601 H594 0.950 . S
C601 C598 1.387 . S
C602 C603 1.387 . S
C602 H606 0.950 . S
C602 C611 1.390 . S
C603 C602 1.387 . S
C603 C605 1.387 . S
H604 C611 0.950 . S
C605 C603 1.387 . S
C605 C607 1.390 . S
C605 H609 0.950 . S
H606 C602 0.950 . S
C607 C605 1.390 . S
C607 C608 1.387 . S
C607 H610 0.950 . S
C608 C607 1.387 . S
C608 C611 1.387 . S
H609 C605 0.950 . S
H610 C607 0.950 . S
C611 C602 1.390 . S
C611 H604 0.950 . S
C611 C608 1.387 . S
C612 C613 1.387 . S
C612 H616 0.950 . S
C612 C621 1.390 . S
C613 C612 1.387 . S
C613 C615 1.387 . S
H614 C621 0.950 . S
C615 C613 1.387 . S
C615 C617 1.390 . S
C615 H619 0.950 . S
H616 C612 0.950 . S
C617 C615 1.390 . S
C617 C618 1.387 . S
C617 H620 0.950 . S
C618 C617 1.387 . S
C618 C621 1.387 . S
H619 C615 0.950 . S
H620 C617 0.950 . S
C621 C612 1.390 . S
C621 H614 0.950 . S
C621 C618 1.387 . S
C622 C623 1.387 . S
C622 H626 0.950 . S
C622 C631 1.390 . S
C623 C622 1.387 . S
C623 C625 1.387 . S
H624 C631 0.950 . S
C625 C623 1.387 . S
C625 C627 1.390 . S
C625 H629 0.950 . S
H626 C622 0.950 . S
C627 C625 1.390 . S
C627 C628 1.387 . S
C627 H630 0.950 . S
C628 C627 1.387 . S
C628 C631 1.387 . S
H629 C625 0.950 . S
H630 C627 0.950 . S
C631 C622 1.390 . S
C631 H624 0.950 . S
C631 C628 1.387 . S
C632 C633 1.387 . S
C632 H636 0.950 . S
C632 C641 1.390 . S
C633 C632 1.387 . S
C633 C635 1.387 . S
H634 C641 0.950 . S
C635 C633 1.387 . S
C635 C637 1.390 . S
C635 H639 0.950 . S
H636 C632 0.950 . S
C637 C635 1.390 . S
C637 C638 1.387 . S
C637 H640 0.950 . S
C638 C637 1.387 . S
C638 C641 1.387 . S
H639 C635 0.950 . S
H640 C637 0.950 . S
C641 C632 1.390 . S
C641 H634 0.950 . S
C641 C638 1.387 . S
C642 C643 1.399 . S
C642 H646 0.950 . S
C642 C651 1.390 . S
C643 C642 1.399 . S
C643 C645 1.377 1_655 S
H644 C651 0.950 . S
C645 C643 1.377 1_455 S
C645 C647 1.390 . S
C645 H649 0.950 . S
H646 C642 0.950 . S
C647 C645 1.390 . S
C647 C648 1.387 1_455 S
C647 H650 0.950 . S
C648 C647 1.387 1_655 S
C648 C651 1.387 . S
H649 C645 0.950 . S
H650 C647 0.950 . S
C651 C642 1.390 . S
C651 H644 0.950 . S
C651 C648 1.387 . S
C652 C653 1.387 . S
C652 H656 0.950 . S
C652 C661 1.390 . S
C653 C652 1.387 . S
C653 C655 1.387 . S
H654 C661 0.950 . S
C655 C653 1.387 . S
C655 C657 1.390 . S
C655 H659 0.950 . S
H656 C652 0.950 . S
C657 C655 1.390 . S
C657 C658 1.387 . S
C657 H660 0.950 . S
C658 C657 1.387 . S
C658 C661 1.387 . S
H659 C655 0.950 . S
H660 C657 0.950 . S
C661 C652 1.390 . S
C661 H654 0.950 . S
C661 C658 1.387 . S
C662 C663 1.387 . S
C662 H666 0.950 . S
C662 C671 1.390 . S
C663 C662 1.387 . S
C663 C665 1.387 . S
H664 C671 0.950 . S
C665 C663 1.387 . S
C665 C667 1.390 . S
C665 H669 0.950 . S
H666 C662 0.950 . S
C667 C665 1.390 . S
C667 C668 1.387 . S
C667 H670 0.950 . S
C668 C667 1.387 . S
C668 C671 1.387 . S
H669 C665 0.950 . S
H670 C667 0.950 . S
C671 C662 1.390 . S
C671 H664 0.950 . S
C671 C668 1.387 . S
C672 C673 1.387 . S
C672 H676 0.950 . S
C672 C681 1.390 . S
C673 C672 1.387 . S
C673 C675 1.387 . S
H674 C681 0.950 . S
C675 C673 1.387 . S
C675 C677 1.390 . S
C675 H679 0.950 . S
H676 C672 0.950 . S
C677 C675 1.390 . S
C677 C678 1.387 . S
C677 H680 0.950 . S
C678 C677 1.387 . S
C678 C681 1.387 . S
H679 C675 0.950 . S
H680 C677 0.950 . S
C681 C672 1.390 . S
C681 H674 0.950 . S
C681 C678 1.387 . S
C682 C683 1.387 . S
C682 H686 0.950 . S
C682 C691 1.390 . S
C683 C682 1.387 . S
C683 C685 1.387 . S
H684 C691 0.950 . S
C685 C683 1.387 . S
C685 C687 1.390 . S
C685 H689 0.950 . S
H686 C682 0.950 . S
C687 C685 1.390 . S
C687 C688 1.387 . S
C687 H690 0.950 . S
C688 C687 1.387 . S
C688 C691 1.387 . S
H689 C685 0.950 . S
H690 C687 0.950 . S
C691 C682 1.390 . S
C691 H684 0.950 . S
C691 C688 1.387 . S
C692 C693 1.387 . S
C692 H696 0.950 . S
C692 C701 1.390 . S
C693 C692 1.387 . S
C693 C695 1.387 . S
H694 C701 0.950 . S
C695 C693 1.387 . S
C695 C697 1.390 . S
C695 H699 0.950 . S
H696 C692 0.950 . S
C697 C695 1.390 . S
C697 C698 1.387 . S
C697 H700 0.950 . S
C698 C697 1.387 . S
C698 C701 1.387 . S
H699 C695 0.950 . S
H700 C697 0.950 . S
C701 C692 1.390 . S
C701 H694 0.950 . S
C701 C698 1.387 . S
C702 C703 1.387 . S
C702 H706 0.950 . S
C702 C711 1.390 . S
C703 C702 1.387 . S
C703 C705 1.387 . S
H704 C711 0.950 . S
C705 C703 1.387 . S
C705 C707 1.390 . S
C705 H709 0.950 . S
H706 C702 0.950 . S
C707 C705 1.390 . S
C707 C708 1.387 . S
C707 H710 0.950 . S
C708 C707 1.387 . S
C708 C711 1.387 . S
H709 C705 0.950 . S
H710 C707 0.950 . S
C711 C702 1.390 . S
C711 H704 0.950 . S
C711 C708 1.387 . S
C473 C1 1.400 . S
C478 C327 1.452 . S
C483 C40 1.457 . S
C488 C367 1.534 . S
C498 C401 2.382 . S
C493 C99 2.383 . S
C503 C118 2.661 . S
C508 C442 2.598 . S
C518 C362 1.644 . S
C513 C16 1.515 . S
C528 C322 2.393 . S
C523 C60 2.185 . S
C538 C450 1.724 . S
C533 C79 1.709 . S
C548 C411 1.885 . S
C543 C138 1.964 . S
C553 C21 1.683 . S
C558 C447 1.755 . S
C568 C370 2.071 . S
C563 C94 2.134 . S
C573 C133 2.471 . S
C578 C330 2.387 . S
C583 C55 1.710 . S
C588 C398 1.819 . S
C598 C318 1.458 . S
C593 C157 1.416 . S
C603 C196 1.442 . S
C608 C358 1.537 . S
C613 C255 2.389 . S
C618 C410 2.383 . S
C623 C289 2.656 . S
C628 C451 2.593 . S
C633 C172 1.505 . S
C638 C371 1.641 . S
C648 C331 2.393 . S
C643 C216 2.153 . S
C658 C441 1.724 . S
C653 C235 1.714 . S
C668 C402 1.878 . S
C663 C294 1.969 . S
C673 C177 1.715 . S
C678 C438 1.752 . S
C688 C361 2.074 . S
C683 C250 2.135 . S
C698 C321 2.389 . S
C693 C274 2.473 . S
C703 C211 1.714 . S
C708 C407 1.817 . S
