# Generated by pormake.
# Topology ssb, (4,4)-cn, num edge types: 1
# Building blocks:
#     Node 0, Type 0, BuildingBlock: NAWXER_clean_linker_0, # of connection points: 4
#     Node 1, Type 0, BuildingBlock: NAWXER_clean_linker_0, # of connection points: 4
#     Node 2, Type 0, BuildingBlock: NAWXER_clean_linker_0, # of connection points: 4
#     Node 3, Type 0, BuildingBlock: NAWXER_clean_linker_0, # of connection points: 4
#     Node 4, Type 0, BuildingBlock: NAWXER_clean_linker_0, # of connection points: 4
#     Node 5, Type 0, BuildingBlock: NAWXER_clean_linker_0, # of connection points: 4
#     Node 6, Type 0, BuildingBlock: NAWXER_clean_linker_0, # of connection points: 4
#     Node 7, Type 0, BuildingBlock: NAWXER_clean_linker_0, # of connection points: 4
#     Node 8, Type 1, BuildingBlock: NAWXER_clean_sbu_0, # of connection points: 4
#     Node 9, Type 1, BuildingBlock: NAWXER_clean_sbu_0, # of connection points: 4
#     Node 10, Type 1, BuildingBlock: NAWXER_clean_sbu_0, # of connection points: 4
#     Node 11, Type 1, BuildingBlock: NAWXER_clean_sbu_0, # of connection points: 4
#     Node 12, Type 1, BuildingBlock: NAWXER_clean_sbu_0, # of connection points: 4
#     Node 13, Type 1, BuildingBlock: NAWXER_clean_sbu_0, # of connection points: 4
#     Node 14, Type 1, BuildingBlock: NAWXER_clean_sbu_0, # of connection points: 4
#     Node 15, Type 1, BuildingBlock: NAWXER_clean_sbu_0, # of connection points: 4
#     Edge 16, Type (0, 1), None
#     Edge 17, Type (0, 1), None
#     Edge 18, Type (0, 1), None
#     Edge 19, Type (0, 1), None
#     Edge 20, Type (0, 1), None
#     Edge 21, Type (0, 1), None
#     Edge 22, Type (0, 1), None
#     Edge 23, Type (0, 1), None
#     Edge 24, Type (0, 1), None
#     Edge 25, Type (0, 1), None
#     Edge 26, Type (0, 1), None
#     Edge 27, Type (0, 1), None
#     Edge 28, Type (0, 1), None
#     Edge 29, Type (0, 1), None
#     Edge 30, Type (0, 1), None
#     Edge 31, Type (0, 1), None
#     Edge 32, Type (0, 1), None
#     Edge 33, Type (0, 1), None
#     Edge 34, Type (0, 1), None
#     Edge 35, Type (0, 1), None
#     Edge 36, Type (0, 1), None
#     Edge 37, Type (0, 1), None
#     Edge 38, Type (0, 1), None
#     Edge 39, Type (0, 1), None
#     Edge 40, Type (0, 1), None
#     Edge 41, Type (0, 1), None
#     Edge 42, Type (0, 1), None
#     Edge 43, Type (0, 1), None
#     Edge 44, Type (0, 1), None
#     Edge 45, Type (0, 1), None
#     Edge 46, Type (0, 1), None
#     Edge 47, Type (0, 1), None
# Relax obj value: 0.000
# Max RMSD: 0.001
# Mean RMSD: 0.001
data_MOF--net-ssb--node1-NAWXER_clean_sbu_0--node2-NAWXER_clean_linker_0--edge1-none
_symmetry_space_group_name_H-M    P1
_symmetry_Int_Tables_number       1
_symmetry_cell_setting            triclinic
loop_
_symmetry_equiv_pos_as_xyz
'x, y, z'
_cell_length_a     28.556579
_cell_length_b     28.492596
_cell_length_c     24.966118
_cell_angle_alpha  90.213755
_cell_angle_beta   90.060418
_cell_angle_gamma 90.196111
loop_
_atom_site_label
_atom_site_type_symbol
_atom_site_fract_x
_atom_site_fract_y
_atom_site_fract_z
_atom_type_partial_charge
C0 C 0.36035 0.30791 0.09808 0.0
C1 C 0.4066 0.31071 0.11672 0.0
C2 C 0.32367 0.29875 0.13366 0.0
C3 C 0.33262 0.29261 0.18864 0.0
C4 C 0.41554 0.30586 0.17168 0.0
C5 C 0.37883 0.29696 0.20738 0.0
C6 C 0.29475 0.27781 0.22581 0.0
C7 C 0.26577 0.41839 0.16421 0.0
C8 C 0.22973 0.41847 0.12585 0.0
C9 C 0.27048 0.38111 0.19965 0.0
C10 C 0.23989 0.34261 0.19664 0.0
C11 C 0.19638 0.38213 0.12612 0.0
C12 C 0.20148 0.34428 0.16143 0.0
C13 C 0.25025 0.29955 0.22732 0.0
C14 C 0.15869 0.21336 0.41925 0.0
C15 C 0.11244 0.21056 0.40061 0.0
C16 C 0.19537 0.22251 0.38367 0.0
C17 C 0.18642 0.22866 0.32869 0.0
C18 C 0.1035 0.21542 0.34565 0.0
C19 C 0.14021 0.22432 0.30995 0.0
C20 C 0.22429 0.24347 0.29153 0.0
C21 C 0.25327 0.10288 0.35312 0.0
C22 C 0.2893 0.1028 0.39148 0.0
C23 C 0.24856 0.14016 0.31769 0.0
C24 C 0.27916 0.17866 0.3207 0.0
C25 C 0.32265 0.13914 0.39123 0.0
C26 C 0.31755 0.17699 0.35592 0.0
C27 C 0.26879 0.22173 0.29003 0.0
H28 H 0.35297 0.30958 0.05554 0.0
H29 H 0.28868 0.2941 0.11771 0.0
H30 H 0.45121 0.30612 0.18652 0.0
H31 H 0.38673 0.29187 0.24941 0.0
H32 H 0.29152 0.44641 0.16543 0.0
H33 H 0.29951 0.38125 0.22763 0.0
H34 H 0.1683 0.38146 0.09692 0.0
H35 H 0.17713 0.31511 0.15903 0.0
H36 H 0.16607 0.21168 0.4618 0.0
H37 H 0.23036 0.22716 0.39963 0.0
H38 H 0.06783 0.21517 0.33081 0.0
H39 H 0.13232 0.22941 0.26792 0.0
H40 H 0.22752 0.07486 0.35189 0.0
H41 H 0.21954 0.14002 0.28969 0.0
H42 H 0.35073 0.13981 0.42043 0.0
H43 H 0.34191 0.20616 0.35832 0.0
N44 N 0.30239 0.23983 0.25751 0.0
N45 N 0.21666 0.28144 0.25984 0.0
C46 C 0.59763 0.26402 0.17255 0.0
C47 C 0.59561 0.22669 0.13564 0.0
C48 C 0.63665 0.27024 0.20537 0.0
C49 C 0.67488 0.23971 0.20127 0.0
C50 C 0.6318 0.19346 0.13514 0.0
C51 C 0.67128 0.19993 0.16795 0.0
C52 C 0.71924 0.2509 0.22943 0.0
C53 C 0.7075 0.36054 0.09925 0.0
C54 C 0.70912 0.40725 0.11706 0.0
C55 C 0.71584 0.32379 0.13502 0.0
C56 C 0.72539 0.33319 0.18937 0.0
C57 C 0.71709 0.41666 0.17148 0.0
C58 C 0.72496 0.37996 0.20737 0.0
C59 C 0.74115 0.29547 0.22615 0.0
C60 C 0.92139 0.2572 0.34478 0.0
C61 C 0.92341 0.29454 0.38168 0.0
C62 C 0.88237 0.25099 0.31196 0.0
C63 C 0.84415 0.28152 0.31604 0.0
C64 C 0.88722 0.32778 0.38217 0.0
C65 C 0.84774 0.3213 0.34936 0.0
C66 C 0.79979 0.27033 0.28788 0.0
C67 C 0.81151 0.16069 0.41808 0.0
C68 C 0.80989 0.11399 0.40027 0.0
C69 C 0.80317 0.19745 0.3823 0.0
C70 C 0.79363 0.18804 0.32795 0.0
C71 C 0.80193 0.10457 0.34585 0.0
C72 C 0.79406 0.14127 0.30995 0.0
C73 C 0.77787 0.22576 0.29116 0.0
H74 H 0.56993 0.28991 0.17411 0.0
H75 H 0.63795 0.30029 0.23205 0.0
H76 H 0.63118 0.16458 0.10681 0.0
H77 H 0.70017 0.17554 0.16485 0.0
H78 H 0.70333 0.35268 0.057 0.0
H79 H 0.71759 0.28833 0.11943 0.0
H80 H 0.72007 0.45256 0.18561 0.0
H81 H 0.73273 0.38824 0.24884 0.0
H82 H 0.94909 0.23132 0.34323 0.0
H83 H 0.88107 0.22093 0.28528 0.0
H84 H 0.88784 0.35666 0.41049 0.0
H85 H 0.81885 0.3457 0.35245 0.0
H86 H 0.81568 0.16856 0.46033 0.0
H87 H 0.80142 0.2329 0.39789 0.0
H88 H 0.79895 0.06866 0.33172 0.0
H89 H 0.78629 0.13298 0.26849 0.0
N90 N 0.73858 0.21778 0.26154 0.0
N91 N 0.78045 0.30345 0.25578 0.0
C92 C 0.65875 0.70756 0.09956 0.0
C93 C 0.61228 0.70809 0.11761 0.0
C94 C 0.69555 0.71691 0.1351 0.0
C95 C 0.68647 0.72632 0.18951 0.0
C96 C 0.60319 0.71611 0.17207 0.0
C97 C 0.63998 0.72495 0.20777 0.0
C98 C 0.72437 0.74223 0.22624 0.0
C99 C 0.75384 0.59921 0.17002 0.0
C100 C 0.79147 0.59734 0.13389 0.0
C101 C 0.74814 0.63781 0.20374 0.0
C102 C 0.77931 0.67586 0.20097 0.0
C103 C 0.82529 0.6332 0.13481 0.0
C104 C 0.81919 0.67237 0.16825 0.0
C105 C 0.76862 0.72016 0.22953 0.0
C106 C 0.86023 0.81371 0.41778 0.0
C107 C 0.90669 0.81317 0.39972 0.0
C108 C 0.82342 0.80435 0.38224 0.0
C109 C 0.8325 0.79494 0.32784 0.0
C110 C 0.91578 0.80514 0.34527 0.0
C111 C 0.87898 0.79629 0.30958 0.0
C112 C 0.7946 0.77902 0.29111 0.0
C113 C 0.76514 0.92204 0.34732 0.0
C114 C 0.72751 0.92391 0.38345 0.0
C115 C 0.77082 0.88345 0.31359 0.0
C116 C 0.73966 0.84539 0.31637 0.0
C117 C 0.69368 0.88805 0.38254 0.0
C118 C 0.69978 0.84889 0.34911 0.0
C119 C 0.75034 0.80109 0.28782 0.0
H120 H 0.66633 0.70348 0.05727 0.0
H121 H 0.73078 0.71934 0.11936 0.0
H122 H 0.56745 0.71839 0.18636 0.0
H123 H 0.63197 0.73262 0.24929 0.0
H124 H 0.72761 0.57163 0.17058 0.0
H125 H 0.71802 0.63898 0.23005 0.0
H126 H 0.85454 0.63253 0.10722 0.0
H127 H 0.84407 0.70109 0.16618 0.0
H128 H 0.85265 0.81779 0.46007 0.0
H129 H 0.78819 0.80192 0.39798 0.0
H130 H 0.95152 0.80286 0.33098 0.0
H131 H 0.88699 0.78863 0.26805 0.0
H132 H 0.79136 0.94962 0.34675 0.0
H133 H 0.80094 0.88227 0.28728 0.0
H134 H 0.66445 0.88872 0.41014 0.0
H135 H 0.67491 0.82016 0.35118 0.0
N136 N 0.7169 0.78171 0.25582 0.0
N137 N 0.80206 0.73954 0.26153 0.0
C138 C 0.41899 0.75076 0.16742 0.0
C139 C 0.42223 0.78928 0.1326 0.0
C140 C 0.38039 0.74545 0.20093 0.0
C141 C 0.34365 0.77794 0.19932 0.0
C142 C 0.38765 0.82414 0.13452 0.0
C143 C 0.34849 0.81846 0.16778 0.0
C144 C 0.29957 0.76853 0.2286 0.0
C145 C 0.30678 0.65836 0.09825 0.0
C146 C 0.30462 0.61184 0.11613 0.0
C147 C 0.29862 0.69545 0.13386 0.0
C148 C 0.28898 0.68655 0.18819 0.0
C149 C 0.29556 0.6028 0.17029 0.0
C150 C 0.28804 0.63987 0.20609 0.0
C151 C 0.27553 0.72503 0.22539 0.0
C152 C 0.1 0.77053 0.34993 0.0
C153 C 0.09675 0.73201 0.38474 0.0
C154 C 0.1386 0.77585 0.31642 0.0
C155 C 0.17534 0.74336 0.31802 0.0
C156 C 0.13134 0.69715 0.38281 0.0
C157 C 0.1705 0.70283 0.34955 0.0
C158 C 0.21942 0.75277 0.28874 0.0
C159 C 0.21222 0.86293 0.4191 0.0
C160 C 0.21438 0.90946 0.40121 0.0
C161 C 0.22038 0.82585 0.38348 0.0
C162 C 0.23001 0.83474 0.32915 0.0
C163 C 0.22342 0.91849 0.34705 0.0
C164 C 0.23094 0.88143 0.31124 0.0
C165 C 0.24345 0.79626 0.29195 0.0
H166 H 0.44558 0.72371 0.16728 0.0
H167 H 0.37828 0.7148 0.22638 0.0
H168 H 0.38936 0.85409 0.108 0.0
H169 H 0.32084 0.84438 0.16667 0.0
H170 H 0.31194 0.66588 0.05614 0.0
H171 H 0.29778 0.73086 0.11833 0.0
H172 H 0.2923 0.56701 0.1844 0.0
H173 H 0.28007 0.632 0.24753 0.0
H174 H 0.07341 0.79758 0.35006 0.0
H175 H 0.14071 0.8065 0.29097 0.0
H176 H 0.12963 0.66719 0.40933 0.0
H177 H 0.19815 0.67691 0.35066 0.0
H178 H 0.20707 0.85541 0.46121 0.0
H179 H 0.22122 0.79043 0.39901 0.0
H180 H 0.22668 0.95428 0.33294 0.0
H181 H 0.2389 0.88929 0.26981 0.0
N182 N 0.28243 0.80246 0.26145 0.0
N183 N 0.23656 0.71883 0.25588 0.0
C184 C 0.12893 0.82652 0.63625 0.0
C185 C 0.10943 0.7867 0.61114 0.0
C186 C 0.16668 0.82176 0.67204 0.0
C187 C 0.1859 0.77721 0.68251 0.0
C188 C 0.12865 0.74237 0.62242 0.0
C189 C 0.16615 0.73774 0.6576 0.0
C190 C 0.22471 0.76997 0.72121 0.0
C191 C 0.27793 0.86382 0.59188 0.0
C192 C 0.29362 0.90769 0.61038 0.0
C193 C 0.27091 0.82693 0.62763 0.0
C194 C 0.27778 0.83391 0.68281 0.0
C195 C 0.30376 0.91388 0.66485 0.0
C196 C 0.29605 0.8771 0.70086 0.0
C197 C 0.26676 0.79642 0.72185 0.0
C198 C 0.39003 0.69476 0.8811 0.0
C199 C 0.40954 0.73457 0.90621 0.0
C200 C 0.35228 0.69952 0.84531 0.0
C201 C 0.33307 0.74407 0.83484 0.0
C202 C 0.39032 0.77891 0.89493 0.0
C203 C 0.35282 0.78354 0.85975 0.0
C204 C 0.29425 0.75132 0.79614 0.0
C205 C 0.24103 0.65747 0.92548 0.0
C206 C 0.22535 0.61359 0.90698 0.0
C207 C 0.24805 0.69435 0.88972 0.0
C208 C 0.24118 0.68738 0.83455 0.0
C209 C 0.21521 0.6074 0.8525 0.0
C210 C 0.22292 0.64419 0.8165 0.0
C211 C 0.2522 0.72487 0.7955 0.0
H212 H 0.11487 0.8611 0.62861 0.0
H213 H 0.1805 0.85273 0.69183 0.0
H214 H 0.11481 0.71077 0.60396 0.0
H215 H 0.17997 0.70301 0.66517 0.0
H216 H 0.26953 0.85861 0.54992 0.0
H217 H 0.25879 0.79343 0.61229 0.0
H218 H 0.31508 0.94778 0.67991 0.0
H219 H 0.30245 0.88302 0.74313 0.0
H220 H 0.40409 0.66017 0.88873 0.0
H221 H 0.33846 0.66855 0.82552 0.0
H222 H 0.40416 0.8105 0.91339 0.0
H223 H 0.339 0.81827 0.85218 0.0
H224 H 0.24944 0.66268 0.96743 0.0
H225 H 0.26018 0.72786 0.90507 0.0
H226 H 0.2039 0.5735 0.83745 0.0
H227 H 0.21652 0.63826 0.77422 0.0
N228 N 0.21947 0.73507 0.75779 0.0
N229 N 0.29949 0.78622 0.75956 0.0
C230 C 0.41358 0.26728 0.86154 0.0
C231 C 0.41341 0.23027 0.89867 0.0
C232 C 0.37672 0.2729 0.82561 0.0
C233 C 0.33837 0.24209 0.82649 0.0
C234 C 0.37691 0.19711 0.89674 0.0
C235 C 0.33958 0.20298 0.86071 0.0
C236 C 0.29663 0.25194 0.79309 0.0
C237 C 0.29829 0.36371 0.92157 0.0
C238 C 0.30168 0.40991 0.90281 0.0
C239 C 0.29081 0.32655 0.88576 0.0
C240 C 0.28689 0.33496 0.83042 0.0
C241 C 0.29845 0.41846 0.84765 0.0
C242 C 0.29112 0.38126 0.81173 0.0
C243 C 0.27455 0.29641 0.79257 0.0
C244 C 0.10544 0.25403 0.65579 0.0
C245 C 0.10561 0.29103 0.61865 0.0
C246 C 0.14231 0.24841 0.69172 0.0
C247 C 0.18065 0.27922 0.69082 0.0
C248 C 0.14212 0.32419 0.62056 0.0
C249 C 0.17945 0.31832 0.6566 0.0
C250 C 0.2224 0.26937 0.72422 0.0
C251 C 0.22072 0.15759 0.59575 0.0
C252 C 0.21733 0.11139 0.61452 0.0
C253 C 0.2282 0.19475 0.63156 0.0
C254 C 0.23214 0.18634 0.6869 0.0
C255 C 0.22058 0.10285 0.66967 0.0
C256 C 0.22791 0.14004 0.70559 0.0
C257 C 0.24448 0.2249 0.72474 0.0
H258 H 0.44162 0.29301 0.86143 0.0
H259 H 0.37737 0.30241 0.79838 0.0
H260 H 0.3759 0.1683 0.9249 0.0
H261 H 0.3106 0.17836 0.86141 0.0
H262 H 0.29912 0.35663 0.96419 0.0
H263 H 0.28612 0.29154 0.90163 0.0
H264 H 0.29955 0.45407 0.83262 0.0
H265 H 0.28764 0.38878 0.76941 0.0
H266 H 0.0774 0.2283 0.6559 0.0
H267 H 0.14165 0.2189 0.71896 0.0
H268 H 0.14313 0.35298 0.59239 0.0
H269 H 0.20843 0.34294 0.65588 0.0
H270 H 0.21988 0.16467 0.55314 0.0
H271 H 0.23288 0.22976 0.61568 0.0
H272 H 0.21948 0.06724 0.68471 0.0
H273 H 0.2314 0.13253 0.74792 0.0
N274 N 0.28061 0.2179 0.75939 0.0
N275 N 0.23842 0.30341 0.75793 0.0
C276 C 0.88449 0.1949 0.62932 0.0
C277 C 0.90356 0.23467 0.60414 0.0
C278 C 0.8478 0.19981 0.66638 0.0
C279 C 0.82932 0.24447 0.67814 0.0
C280 C 0.8846 0.27906 0.61607 0.0
C281 C 0.84821 0.28385 0.65264 0.0
C282 C 0.7924 0.25179 0.71901 0.0
C283 C 0.73268 0.16232 0.58871 0.0
C284 C 0.71968 0.11739 0.60613 0.0
C285 C 0.74075 0.1983 0.62577 0.0
C286 C 0.73723 0.18946 0.68095 0.0
C287 C 0.71317 0.10923 0.66094 0.0
C288 C 0.72152 0.1452 0.69813 0.0
C289 C 0.75011 0.22587 0.72093 0.0
C290 C 0.63455 0.32636 0.88802 0.0
C291 C 0.61548 0.28659 0.9132 0.0
C292 C 0.67124 0.32145 0.85096 0.0
C293 C 0.68972 0.27678 0.8392 0.0
C294 C 0.63443 0.2422 0.90127 0.0
C295 C 0.67083 0.23741 0.8647 0.0
C296 C 0.72665 0.26947 0.79833 0.0
C297 C 0.78636 0.35893 0.92863 0.0
C298 C 0.79935 0.40387 0.91121 0.0
C299 C 0.77829 0.32295 0.89157 0.0
C300 C 0.78181 0.33179 0.83639 0.0
C301 C 0.80586 0.41203 0.8564 0.0
C302 C 0.79751 0.37606 0.81921 0.0
C303 C 0.76893 0.29539 0.79641 0.0
H304 H 0.89841 0.1603 0.62118 0.0
H305 H 0.8345 0.16891 0.68648 0.0
H306 H 0.89808 0.31059 0.59741 0.0
H307 H 0.83477 0.31863 0.6611 0.0
H308 H 0.73865 0.16899 0.54655 0.0
H309 H 0.75129 0.23255 0.61137 0.0
H310 H 0.70415 0.07446 0.67512 0.0
H311 H 0.71795 0.13778 0.74047 0.0
H312 H 0.62063 0.36097 0.89616 0.0
H313 H 0.68454 0.35235 0.83086 0.0
H314 H 0.62096 0.21067 0.91993 0.0
H315 H 0.68427 0.20263 0.85624 0.0
H316 H 0.78039 0.35226 0.97079 0.0
H317 H 0.76776 0.2887 0.90597 0.0
H318 H 0.81487 0.4468 0.84222 0.0
H319 H 0.80109 0.38348 0.77688 0.0
N320 N 0.79984 0.28576 0.75656 0.0
N321 N 0.7192 0.23549 0.76078 0.0
C322 C 0.85762 0.73985 0.58778 0.0
C323 C 0.90174 0.72426 0.60477 0.0
C324 C 0.82187 0.74756 0.62491 0.0
C325 C 0.83022 0.74132 0.6799 0.0
C326 C 0.9093 0.71502 0.65916 0.0
C327 C 0.87364 0.72323 0.69647 0.0
C328 C 0.79398 0.75283 0.72036 0.0
C329 C 0.8232 0.8905 0.63368 0.0
C330 C 0.78311 0.91015 0.60998 0.0
C331 C 0.81893 0.85271 0.66945 0.0
C332 C 0.77457 0.83363 0.68138 0.0
C333 C 0.73897 0.89102 0.62262 0.0
C334 C 0.73481 0.85349 0.65785 0.0
C335 C 0.76795 0.79503 0.7205 0.0
C336 C 0.66136 0.78139 0.92955 0.0
C337 C 0.61725 0.79699 0.91256 0.0
C338 C 0.69711 0.77368 0.89242 0.0
C339 C 0.68876 0.77992 0.83743 0.0
C340 C 0.60969 0.80622 0.85817 0.0
C341 C 0.64534 0.79801 0.82086 0.0
C342 C 0.72501 0.76841 0.79697 0.0
C343 C 0.69579 0.63073 0.88365 0.0
C344 C 0.73589 0.61109 0.90736 0.0
C345 C 0.70005 0.66852 0.84789 0.0
C346 C 0.74441 0.68761 0.83595 0.0
C347 C 0.78002 0.63023 0.89472 0.0
C348 C 0.78418 0.66776 0.85949 0.0
C349 C 0.75103 0.72621 0.79683 0.0
H350 H 0.85141 0.74782 0.54596 0.0
H351 H 0.78818 0.75969 0.61074 0.0
H352 H 0.94344 0.70394 0.6731 0.0
H353 H 0.88068 0.71739 0.73857 0.0
H354 H 0.85766 0.90448 0.62498 0.0
H355 H 0.85015 0.83884 0.68817 0.0
H356 H 0.70718 0.905 0.60527 0.0
H357 H 0.70022 0.83978 0.66661 0.0
H358 H 0.66757 0.77342 0.97138 0.0
H359 H 0.7308 0.76155 0.90659 0.0
H360 H 0.57554 0.81731 0.84423 0.0
H361 H 0.63831 0.80385 0.77876 0.0
H362 H 0.66134 0.61675 0.89236 0.0
H363 H 0.66884 0.6824 0.82917 0.0
H364 H 0.81181 0.61624 0.91207 0.0
H365 H 0.81877 0.68147 0.85073 0.0
N366 N 0.78466 0.72047 0.7588 0.0
N367 N 0.73432 0.80077 0.75853 0.0
C368 C 0.94363 0.23177 0.56647 0.0
C369 C 0.07394 0.21677 0.43878 0.0
O370 O 0.96193 0.27025 0.55034 0.0
Zn371 Zn 0.01499 0.29626 0.49942 0.0
O372 O 0.96005 0.19282 0.54975 0.0
Zn373 Zn 1.00906 0.21952 0.50346 0.0
O374 O 0.05453 0.25033 0.56027 0.0
O375 O 0.05805 0.32724 0.55013 0.0
O376 O 0.05264 0.18226 0.4602 0.0
O377 O 0.06255 0.25889 0.45056 0.0
O378 O 0.97662 0.32919 0.44609 0.0
O379 O 0.9686 0.25198 0.44335 0.0
C380 C 0.07078 0.29029 0.57477 0.0
C381 C 0.95847 0.29255 0.42502 0.0
C382 C 0.72364 0.07787 0.56873 0.0
C383 C 0.72853 0.95936 0.42653 0.0
O384 O 0.76479 0.06327 0.55762 0.0
Zn385 Zn 0.79822 0.0142 0.50656 0.0
O386 O 0.68809 0.06042 0.54509 0.0
Zn387 Zn 0.72234 0.01709 0.49889 0.0
O388 O 0.74733 0.96633 0.55319 0.0
O389 O 0.8244 0.96776 0.55657 0.0
O390 O 0.6913 0.977 0.44603 0.0
O391 O 0.76853 0.97085 0.44586 0.0
O392 O 0.8367 0.05667 0.46357 0.0
O393 O 0.76048 0.06425 0.44927 0.0
C394 C 0.78567 0.95007 0.57191 0.0
C395 C 0.80277 0.07632 0.4393 0.0
C396 C 0.94145 0.72794 0.56786 0.0
C397 C 0.06104 0.73277 0.42733 0.0
O398 O 0.95642 0.7691 0.55681 0.0
Zn399 Zn 1.00608 0.80248 0.50676 0.0
O400 O 0.95898 0.69215 0.54484 0.0
Zn401 Zn 1.00279 0.72621 0.49892 0.0
O402 O 0.05316 0.75133 0.55371 0.0
O403 O 0.05234 0.82856 0.55772 0.0
O404 O 0.04309 0.69536 0.44631 0.0
O405 O 0.04958 0.77276 0.44674 0.0
O406 O 0.96413 0.84073 0.46302 0.0
O407 O 0.9563 0.76424 0.44891 0.0
C408 C 0.06962 0.78964 0.57292 0.0
C409 C 0.94451 0.80652 0.43865 0.0
C410 C 0.22048 0.07226 0.57625 0.0
C411 C 0.21813 0.94771 0.44038 0.0
O412 O 0.26118 0.05942 0.56094 0.0
Zn413 Zn 0.29199 0.01057 0.50738 0.0
O414 O 0.18417 0.05261 0.55683 0.0
Zn415 Zn 0.21614 1.00914 0.50841 0.0
O416 O 0.24879 0.96063 0.5603 0.0
O417 O 0.32577 0.96858 0.55543 0.0
O418 O 0.1821 0.96574 0.46221 0.0
O419 O 0.25927 0.96152 0.45369 0.0
O420 O 0.32416 0.05247 0.45763 0.0
O421 O 0.24695 0.0544 0.45085 0.0
C422 C 0.28986 0.9482 0.57469 0.0
C423 C 0.28738 0.06806 0.43503 0.0
C424 C 0.45795 0.78851 0.09001 0.0
C425 C 0.57753 0.79331 0.94947 0.0
O426 O 0.4759 0.82591 0.07102 0.0
Zn427 Zn 0.5162 0.79506 0.01841 0.0
O428 O 0.4694 0.74852 0.0706 0.0
Zn429 Zn 0.51289 0.71879 0.01057 0.0
O430 O 0.55483 0.68053 0.05432 0.0
O431 O 0.56268 0.75703 0.06842 0.0
O432 O 0.56256 0.75215 0.96053 0.0
O433 O 0.56 0.82911 0.97249 0.0
O434 O 0.46582 0.76995 0.96362 0.0
O435 O 0.46663 0.69271 0.95962 0.0
C436 C 0.57446 0.71474 0.07869 0.0
C437 C 0.44935 0.73163 0.94442 0.0
C438 C 0.30086 0.57358 0.07696 0.0
C439 C 0.29853 0.44904 0.94108 0.0
O440 O 0.3369 0.55556 0.05512 0.0
Zn441 Zn 0.30286 0.51216 0.00892 0.0
O442 O 0.25973 0.55976 0.06366 0.0
Zn443 Zn 0.22701 0.5107 0.00997 0.0
O444 O 0.19486 0.4688 0.05972 0.0
O445 O 0.27207 0.46688 0.06649 0.0
O446 O 0.25783 0.46187 0.9564 0.0
O447 O 0.33484 0.4687 0.96049 0.0
O448 O 0.2702 0.56066 0.95705 0.0
O449 O 0.19322 0.55269 0.96193 0.0
C450 C 0.23164 0.45321 0.08232 0.0
C451 C 0.22913 0.57308 0.94266 0.0
C452 C 0.5754 0.28949 0.95086 0.0
C453 C 0.44509 0.30449 0.07855 0.0
O454 O 0.55899 0.32844 0.96759 0.0
Zn455 Zn 0.50997 0.30174 0.01388 0.0
O456 O 0.5571 0.25101 0.96699 0.0
Zn457 Zn 0.50404 0.22501 0.01789 0.0
O458 O 0.46097 0.19404 0.96718 0.0
O459 O 0.4645 0.27095 0.95705 0.0
O460 O 0.45648 0.26238 0.06676 0.0
O461 O 0.46641 0.33901 0.05714 0.0
O462 O 0.55043 0.26927 0.07398 0.0
O463 O 0.5424 0.19206 0.07122 0.0
C464 C 0.44824 0.23099 0.94255 0.0
C465 C 0.56055 0.22869 0.09231 0.0
C466 C 0.79045 0.56189 0.09082 0.0
C467 C 0.79539 0.44338 0.94861 0.0
O468 O 0.82769 0.54426 0.07132 0.0
Zn469 Zn 0.79666 0.50416 0.01845 0.0
O470 O 0.75046 0.5504 0.07148 0.0
Zn471 Zn 0.72078 0.50704 0.01077 0.0
O472 O 0.68231 0.46456 0.05376 0.0
O473 O 0.75852 0.457 0.06807 0.0
O474 O 0.75423 0.45798 0.95972 0.0
O475 O 0.83093 0.46084 0.97226 0.0
O476 O 0.77167 0.55492 0.96415 0.0
O477 O 0.6946 0.55347 0.96077 0.0
C478 C 0.71624 0.44492 0.07803 0.0
C479 C 0.73333 0.57117 0.94542 0.0
loop_
_geom_bond_atom_site_label_1
_geom_bond_atom_site_label_2
_geom_bond_distance
_geom_bond_site_symmetry_2
_ccdc_geom_bond_type
C0 C1 1.384 . S
C0 C2 1.384 . S
C0 H28 0.931 . S
C1 C0 1.384 . S
C1 C4 1.382 . S
C2 C0 1.384 . S
C2 C3 1.381 . S
C2 H29 0.930 . S
C3 C2 1.381 . S
C3 C5 1.381 . S
C3 C6 1.487 . S
C4 C1 1.382 . S
C4 C5 1.387 . S
C4 H30 0.930 . S
C5 C3 1.381 . S
C5 C4 1.387 . S
C5 H31 0.931 . S
C6 C3 1.487 . S
C6 C13 1.399 . S
C6 N44 1.343 . S
C7 C8 1.384 . S
C7 C9 1.384 . S
C7 H32 0.931 . S
C8 C7 1.384 . S
C8 C11 1.382 . S
C9 C7 1.384 . S
C9 C10 1.381 . S
C9 H33 0.930 . S
C10 C9 1.381 . S
C10 C12 1.381 . S
C10 C13 1.487 . S
C11 C8 1.382 . S
C11 C12 1.387 . S
C11 H34 0.930 . S
C12 C10 1.381 . S
C12 C11 1.387 . S
C12 H35 0.931 . S
C13 C6 1.399 . S
C13 C10 1.487 . S
C13 N45 1.343 . S
C14 C15 1.384 . S
C14 C16 1.384 . S
C14 H36 0.931 . S
C15 C14 1.384 . S
C15 C18 1.382 . S
C16 C14 1.384 . S
C16 C17 1.381 . S
C16 H37 0.930 . S
C17 C16 1.381 . S
C17 C19 1.381 . S
C17 C20 1.487 . S
C18 C15 1.382 . S
C18 C19 1.387 . S
C18 H38 0.930 . S
C19 C17 1.381 . S
C19 C18 1.387 . S
C19 H39 0.931 . S
C20 C17 1.487 . S
C20 C27 1.399 . S
C20 N45 1.343 . S
C21 C22 1.384 . S
C21 C23 1.384 . S
C21 H40 0.931 . S
C22 C21 1.384 . S
C22 C25 1.382 . S
C23 C21 1.384 . S
C23 C24 1.381 . S
C23 H41 0.930 . S
C24 C23 1.381 . S
C24 C26 1.381 . S
C24 C27 1.487 . S
C25 C22 1.382 . S
C25 C26 1.387 . S
C25 H42 0.930 . S
C26 C24 1.381 . S
C26 C25 1.387 . S
C26 H43 0.931 . S
C27 C20 1.399 . S
C27 C24 1.487 . S
C27 N44 1.343 . S
H28 C0 0.931 . S
H29 C2 0.930 . S
H30 C4 0.930 . S
H31 C5 0.931 . S
H32 C7 0.931 . S
H33 C9 0.930 . S
H34 C11 0.930 . S
H35 C12 0.931 . S
H36 C14 0.931 . S
H37 C16 0.930 . S
H38 C18 0.930 . S
H39 C19 0.931 . S
H40 C21 0.931 . S
H41 C23 0.930 . S
H42 C25 0.930 . S
H43 C26 0.931 . S
N44 C6 1.343 . S
N44 C27 1.343 . S
N45 C13 1.343 . S
N45 C20 1.343 . S
C46 C47 1.384 . S
C46 C48 1.384 . S
C46 H74 0.931 . S
C47 C46 1.384 . S
C47 C50 1.382 . S
C48 C46 1.384 . S
C48 C49 1.381 . S
C48 H75 0.930 . S
C49 C48 1.381 . S
C49 C51 1.381 . S
C49 C52 1.487 . S
C50 C47 1.382 . S
C50 C51 1.387 . S
C50 H76 0.930 . S
C51 C49 1.381 . S
C51 C50 1.387 . S
C51 H77 0.931 . S
C52 C49 1.487 . S
C52 C59 1.399 . S
C52 N90 1.343 . S
C53 C54 1.384 . S
C53 C55 1.384 . S
C53 H78 0.931 . S
C54 C53 1.384 . S
C54 C57 1.382 . S
C55 C53 1.384 . S
C55 C56 1.381 . S
C55 H79 0.930 . S
C56 C55 1.381 . S
C56 C58 1.381 . S
C56 C59 1.487 . S
C57 C54 1.382 . S
C57 C58 1.387 . S
C57 H80 0.930 . S
C58 C56 1.381 . S
C58 C57 1.387 . S
C58 H81 0.931 . S
C59 C52 1.399 . S
C59 C56 1.487 . S
C59 N91 1.343 . S
C60 C61 1.384 . S
C60 C62 1.384 . S
C60 H82 0.931 . S
C61 C60 1.384 . S
C61 C64 1.382 . S
C62 C60 1.384 . S
C62 C63 1.381 . S
C62 H83 0.930 . S
C63 C62 1.381 . S
C63 C65 1.381 . S
C63 C66 1.487 . S
C64 C61 1.382 . S
C64 C65 1.387 . S
C64 H84 0.930 . S
C65 C63 1.381 . S
C65 C64 1.387 . S
C65 H85 0.931 . S
C66 C63 1.487 . S
C66 C73 1.399 . S
C66 N91 1.343 . S
C67 C68 1.384 . S
C67 C69 1.384 . S
C67 H86 0.931 . S
C68 C67 1.384 . S
C68 C71 1.382 . S
C69 C67 1.384 . S
C69 C70 1.381 . S
C69 H87 0.930 . S
C70 C69 1.381 . S
C70 C72 1.381 . S
C70 C73 1.487 . S
C71 C68 1.382 . S
C71 C72 1.387 . S
C71 H88 0.930 . S
C72 C70 1.381 . S
C72 C71 1.387 . S
C72 H89 0.931 . S
C73 C66 1.399 . S
C73 C70 1.487 . S
C73 N90 1.343 . S
H74 C46 0.931 . S
H75 C48 0.930 . S
H76 C50 0.930 . S
H77 C51 0.931 . S
H78 C53 0.931 . S
H79 C55 0.930 . S
H80 C57 0.930 . S
H81 C58 0.931 . S
H82 C60 0.931 . S
H83 C62 0.930 . S
H84 C64 0.930 . S
H85 C65 0.931 . S
H86 C67 0.931 . S
H87 C69 0.930 . S
H88 C71 0.930 . S
H89 C72 0.931 . S
N90 C52 1.343 . S
N90 C73 1.343 . S
N91 C59 1.343 . S
N91 C66 1.343 . S
C92 C93 1.384 . S
C92 C94 1.384 . S
C92 H120 0.931 . S
C93 C92 1.384 . S
C93 C96 1.382 . S
C94 C92 1.384 . S
C94 C95 1.381 . S
C94 H121 0.930 . S
C95 C94 1.381 . S
C95 C97 1.381 . S
C95 C98 1.487 . S
C96 C93 1.382 . S
C96 C97 1.387 . S
C96 H122 0.930 . S
C97 C95 1.381 . S
C97 C96 1.387 . S
C97 H123 0.931 . S
C98 C95 1.487 . S
C98 C105 1.399 . S
C98 N136 1.343 . S
C99 C100 1.384 . S
C99 C101 1.384 . S
C99 H124 0.931 . S
C100 C99 1.384 . S
C100 C103 1.382 . S
C101 C99 1.384 . S
C101 C102 1.381 . S
C101 H125 0.930 . S
C102 C101 1.381 . S
C102 C104 1.381 . S
C102 C105 1.487 . S
C103 C100 1.382 . S
C103 C104 1.387 . S
C103 H126 0.930 . S
C104 C102 1.381 . S
C104 C103 1.387 . S
C104 H127 0.931 . S
C105 C98 1.399 . S
C105 C102 1.487 . S
C105 N137 1.343 . S
C106 C107 1.384 . S
C106 C108 1.384 . S
C106 H128 0.931 . S
C107 C106 1.384 . S
C107 C110 1.382 . S
C108 C106 1.384 . S
C108 C109 1.381 . S
C108 H129 0.930 . S
C109 C108 1.381 . S
C109 C111 1.381 . S
C109 C112 1.487 . S
C110 C107 1.382 . S
C110 C111 1.387 . S
C110 H130 0.930 . S
C111 C109 1.381 . S
C111 C110 1.387 . S
C111 H131 0.931 . S
C112 C109 1.487 . S
C112 C119 1.399 . S
C112 N137 1.343 . S
C113 C114 1.384 . S
C113 C115 1.384 . S
C113 H132 0.931 . S
C114 C113 1.384 . S
C114 C117 1.382 . S
C115 C113 1.384 . S
C115 C116 1.381 . S
C115 H133 0.930 . S
C116 C115 1.381 . S
C116 C118 1.381 . S
C116 C119 1.487 . S
C117 C114 1.382 . S
C117 C118 1.387 . S
C117 H134 0.930 . S
C118 C116 1.381 . S
C118 C117 1.387 . S
C118 H135 0.931 . S
C119 C112 1.399 . S
C119 C116 1.487 . S
C119 N136 1.343 . S
H120 C92 0.931 . S
H121 C94 0.930 . S
H122 C96 0.930 . S
H123 C97 0.931 . S
H124 C99 0.931 . S
H125 C101 0.930 . S
H126 C103 0.930 . S
H127 C104 0.931 . S
H128 C106 0.931 . S
H129 C108 0.930 . S
H130 C110 0.930 . S
H131 C111 0.931 . S
H132 C113 0.931 . S
H133 C115 0.930 . S
H134 C117 0.930 . S
H135 C118 0.931 . S
N136 C98 1.343 . S
N136 C119 1.343 . S
N137 C105 1.343 . S
N137 C112 1.343 . S
C138 C139 1.384 . S
C138 C140 1.384 . S
C138 H166 0.931 . S
C139 C138 1.384 . S
C139 C142 1.382 . S
C140 C138 1.384 . S
C140 C141 1.381 . S
C140 H167 0.930 . S
C141 C140 1.381 . S
C141 C143 1.381 . S
C141 C144 1.487 . S
C142 C139 1.382 . S
C142 C143 1.387 . S
C142 H168 0.930 . S
C143 C141 1.381 . S
C143 C142 1.387 . S
C143 H169 0.931 . S
C144 C141 1.487 . S
C144 C151 1.399 . S
C144 N182 1.343 . S
C145 C146 1.384 . S
C145 C147 1.384 . S
C145 H170 0.931 . S
C146 C145 1.384 . S
C146 C149 1.382 . S
C147 C145 1.384 . S
C147 C148 1.381 . S
C147 H171 0.930 . S
C148 C147 1.381 . S
C148 C150 1.381 . S
C148 C151 1.487 . S
C149 C146 1.382 . S
C149 C150 1.387 . S
C149 H172 0.930 . S
C150 C148 1.381 . S
C150 C149 1.387 . S
C150 H173 0.931 . S
C151 C144 1.399 . S
C151 C148 1.487 . S
C151 N183 1.343 . S
C152 C153 1.384 . S
C152 C154 1.384 . S
C152 H174 0.931 . S
C153 C152 1.384 . S
C153 C156 1.382 . S
C154 C152 1.384 . S
C154 C155 1.381 . S
C154 H175 0.930 . S
C155 C154 1.381 . S
C155 C157 1.381 . S
C155 C158 1.487 . S
C156 C153 1.382 . S
C156 C157 1.387 . S
C156 H176 0.930 . S
C157 C155 1.381 . S
C157 C156 1.387 . S
C157 H177 0.931 . S
C158 C155 1.487 . S
C158 C165 1.399 . S
C158 N183 1.343 . S
C159 C160 1.384 . S
C159 C161 1.384 . S
C159 H178 0.931 . S
C160 C159 1.384 . S
C160 C163 1.382 . S
C161 C159 1.384 . S
C161 C162 1.381 . S
C161 H179 0.930 . S
C162 C161 1.381 . S
C162 C164 1.381 . S
C162 C165 1.487 . S
C163 C160 1.382 . S
C163 C164 1.387 . S
C163 H180 0.930 . S
C164 C162 1.381 . S
C164 C163 1.387 . S
C164 H181 0.931 . S
C165 C158 1.399 . S
C165 C162 1.487 . S
C165 N182 1.343 . S
H166 C138 0.931 . S
H167 C140 0.930 . S
H168 C142 0.930 . S
H169 C143 0.931 . S
H170 C145 0.931 . S
H171 C147 0.930 . S
H172 C149 0.930 . S
H173 C150 0.931 . S
H174 C152 0.931 . S
H175 C154 0.930 . S
H176 C156 0.930 . S
H177 C157 0.931 . S
H178 C159 0.931 . S
H179 C161 0.930 . S
H180 C163 0.930 . S
H181 C164 0.931 . S
N182 C144 1.343 . S
N182 C165 1.343 . S
N183 C151 1.343 . S
N183 C158 1.343 . S
C184 C185 1.384 . S
C184 C186 1.384 . S
C184 H212 0.931 . S
C185 C184 1.384 . S
C185 C188 1.382 . S
C186 C184 1.384 . S
C186 C187 1.381 . S
C186 H213 0.930 . S
C187 C186 1.381 . S
C187 C189 1.381 . S
C187 C190 1.487 . S
C188 C185 1.382 . S
C188 C189 1.387 . S
C188 H214 0.930 . S
C189 C187 1.381 . S
C189 C188 1.387 . S
C189 H215 0.931 . S
C190 C187 1.487 . S
C190 C197 1.399 . S
C190 N228 1.343 . S
C191 C192 1.384 . S
C191 C193 1.384 . S
C191 H216 0.931 . S
C192 C191 1.384 . S
C192 C195 1.382 . S
C193 C191 1.384 . S
C193 C194 1.381 . S
C193 H217 0.930 . S
C194 C193 1.381 . S
C194 C196 1.381 . S
C194 C197 1.487 . S
C195 C192 1.382 . S
C195 C196 1.387 . S
C195 H218 0.930 . S
C196 C194 1.381 . S
C196 C195 1.387 . S
C196 H219 0.931 . S
C197 C190 1.399 . S
C197 C194 1.487 . S
C197 N229 1.343 . S
C198 C199 1.384 . S
C198 C200 1.384 . S
C198 H220 0.931 . S
C199 C198 1.384 . S
C199 C202 1.382 . S
C200 C198 1.384 . S
C200 C201 1.381 . S
C200 H221 0.930 . S
C201 C200 1.381 . S
C201 C203 1.381 . S
C201 C204 1.487 . S
C202 C199 1.382 . S
C202 C203 1.387 . S
C202 H222 0.930 . S
C203 C201 1.381 . S
C203 C202 1.387 . S
C203 H223 0.931 . S
C204 C201 1.487 . S
C204 C211 1.399 . S
C204 N229 1.343 . S
C205 C206 1.384 . S
C205 C207 1.384 . S
C205 H224 0.931 . S
C206 C205 1.384 . S
C206 C209 1.382 . S
C207 C205 1.384 . S
C207 C208 1.381 . S
C207 H225 0.930 . S
C208 C207 1.381 . S
C208 C210 1.381 . S
C208 C211 1.487 . S
C209 C206 1.382 . S
C209 C210 1.387 . S
C209 H226 0.930 . S
C210 C208 1.381 . S
C210 C209 1.387 . S
C210 H227 0.931 . S
C211 C204 1.399 . S
C211 C208 1.487 . S
C211 N228 1.343 . S
H212 C184 0.931 . S
H213 C186 0.930 . S
H214 C188 0.930 . S
H215 C189 0.931 . S
H216 C191 0.931 . S
H217 C193 0.930 . S
H218 C195 0.930 . S
H219 C196 0.931 . S
H220 C198 0.931 . S
H221 C200 0.930 . S
H222 C202 0.930 . S
H223 C203 0.931 . S
H224 C205 0.931 . S
H225 C207 0.930 . S
H226 C209 0.930 . S
H227 C210 0.931 . S
N228 C190 1.343 . S
N228 C211 1.343 . S
N229 C197 1.343 . S
N229 C204 1.343 . S
C230 C231 1.384 . S
C230 C232 1.384 . S
C230 H258 0.931 . S
C231 C230 1.384 . S
C231 C234 1.382 . S
C232 C230 1.384 . S
C232 C233 1.381 . S
C232 H259 0.930 . S
C233 C232 1.381 . S
C233 C235 1.381 . S
C233 C236 1.487 . S
C234 C231 1.382 . S
C234 C235 1.387 . S
C234 H260 0.930 . S
C235 C233 1.381 . S
C235 C234 1.387 . S
C235 H261 0.931 . S
C236 C233 1.487 . S
C236 C243 1.399 . S
C236 N274 1.343 . S
C237 C238 1.384 . S
C237 C239 1.384 . S
C237 H262 0.931 . S
C238 C237 1.384 . S
C238 C241 1.382 . S
C239 C237 1.384 . S
C239 C240 1.381 . S
C239 H263 0.930 . S
C240 C239 1.381 . S
C240 C242 1.381 . S
C240 C243 1.487 . S
C241 C238 1.382 . S
C241 C242 1.387 . S
C241 H264 0.930 . S
C242 C240 1.381 . S
C242 C241 1.387 . S
C242 H265 0.931 . S
C243 C236 1.399 . S
C243 C240 1.487 . S
C243 N275 1.343 . S
C244 C245 1.384 . S
C244 C246 1.384 . S
C244 H266 0.931 . S
C245 C244 1.384 . S
C245 C248 1.382 . S
C246 C244 1.384 . S
C246 C247 1.381 . S
C246 H267 0.930 . S
C247 C246 1.381 . S
C247 C249 1.381 . S
C247 C250 1.487 . S
C248 C245 1.382 . S
C248 C249 1.387 . S
C248 H268 0.930 . S
C249 C247 1.381 . S
C249 C248 1.387 . S
C249 H269 0.931 . S
C250 C247 1.487 . S
C250 C257 1.399 . S
C250 N275 1.343 . S
C251 C252 1.384 . S
C251 C253 1.384 . S
C251 H270 0.931 . S
C252 C251 1.384 . S
C252 C255 1.382 . S
C253 C251 1.384 . S
C253 C254 1.381 . S
C253 H271 0.930 . S
C254 C253 1.381 . S
C254 C256 1.381 . S
C254 C257 1.487 . S
C255 C252 1.382 . S
C255 C256 1.387 . S
C255 H272 0.930 . S
C256 C254 1.381 . S
C256 C255 1.387 . S
C256 H273 0.931 . S
C257 C250 1.399 . S
C257 C254 1.487 . S
C257 N274 1.343 . S
H258 C230 0.931 . S
H259 C232 0.930 . S
H260 C234 0.930 . S
H261 C235 0.931 . S
H262 C237 0.931 . S
H263 C239 0.930 . S
H264 C241 0.930 . S
H265 C242 0.931 . S
H266 C244 0.931 . S
H267 C246 0.930 . S
H268 C248 0.930 . S
H269 C249 0.931 . S
H270 C251 0.931 . S
H271 C253 0.930 . S
H272 C255 0.930 . S
H273 C256 0.931 . S
N274 C236 1.343 . S
N274 C257 1.343 . S
N275 C243 1.343 . S
N275 C250 1.343 . S
C276 C277 1.384 . S
C276 C278 1.384 . S
C276 H304 0.931 . S
C277 C276 1.384 . S
C277 C280 1.382 . S
C278 C276 1.384 . S
C278 C279 1.381 . S
C278 H305 0.930 . S
C279 C278 1.381 . S
C279 C281 1.381 . S
C279 C282 1.487 . S
C280 C277 1.382 . S
C280 C281 1.387 . S
C280 H306 0.930 . S
C281 C279 1.381 . S
C281 C280 1.387 . S
C281 H307 0.931 . S
C282 C279 1.487 . S
C282 C289 1.399 . S
C282 N320 1.343 . S
C283 C284 1.384 . S
C283 C285 1.384 . S
C283 H308 0.931 . S
C284 C283 1.384 . S
C284 C287 1.382 . S
C285 C283 1.384 . S
C285 C286 1.381 . S
C285 H309 0.930 . S
C286 C285 1.381 . S
C286 C288 1.381 . S
C286 C289 1.487 . S
C287 C284 1.382 . S
C287 C288 1.387 . S
C287 H310 0.930 . S
C288 C286 1.381 . S
C288 C287 1.387 . S
C288 H311 0.931 . S
C289 C282 1.399 . S
C289 C286 1.487 . S
C289 N321 1.343 . S
C290 C291 1.384 . S
C290 C292 1.384 . S
C290 H312 0.931 . S
C291 C290 1.384 . S
C291 C294 1.382 . S
C292 C290 1.384 . S
C292 C293 1.381 . S
C292 H313 0.930 . S
C293 C292 1.381 . S
C293 C295 1.381 . S
C293 C296 1.487 . S
C294 C291 1.382 . S
C294 C295 1.387 . S
C294 H314 0.930 . S
C295 C293 1.381 . S
C295 C294 1.387 . S
C295 H315 0.931 . S
C296 C293 1.487 . S
C296 C303 1.399 . S
C296 N321 1.343 . S
C297 C298 1.384 . S
C297 C299 1.384 . S
C297 H316 0.931 . S
C298 C297 1.384 . S
C298 C301 1.382 . S
C299 C297 1.384 . S
C299 C300 1.381 . S
C299 H317 0.930 . S
C300 C299 1.381 . S
C300 C302 1.381 . S
C300 C303 1.487 . S
C301 C298 1.382 . S
C301 C302 1.387 . S
C301 H318 0.930 . S
C302 C300 1.381 . S
C302 C301 1.387 . S
C302 H319 0.931 . S
C303 C296 1.399 . S
C303 C300 1.487 . S
C303 N320 1.343 . S
H304 C276 0.931 . S
H305 C278 0.930 . S
H306 C280 0.930 . S
H307 C281 0.931 . S
H308 C283 0.931 . S
H309 C285 0.930 . S
H310 C287 0.930 . S
H311 C288 0.931 . S
H312 C290 0.931 . S
H313 C292 0.930 . S
H314 C294 0.930 . S
H315 C295 0.931 . S
H316 C297 0.931 . S
H317 C299 0.930 . S
H318 C301 0.930 . S
H319 C302 0.931 . S
N320 C282 1.343 . S
N320 C303 1.343 . S
N321 C289 1.343 . S
N321 C296 1.343 . S
C322 C323 1.384 . S
C322 C324 1.384 . S
C322 H350 0.931 . S
C323 C322 1.384 . S
C323 C326 1.382 . S
C324 C322 1.384 . S
C324 C325 1.381 . S
C324 H351 0.930 . S
C325 C324 1.381 . S
C325 C327 1.381 . S
C325 C328 1.487 . S
C326 C323 1.382 . S
C326 C327 1.387 . S
C326 H352 0.930 . S
C327 C325 1.381 . S
C327 C326 1.387 . S
C327 H353 0.931 . S
C328 C325 1.487 . S
C328 C335 1.399 . S
C328 N366 1.343 . S
C329 C330 1.384 . S
C329 C331 1.384 . S
C329 H354 0.931 . S
C330 C329 1.384 . S
C330 C333 1.382 . S
C331 C329 1.384 . S
C331 C332 1.381 . S
C331 H355 0.930 . S
C332 C331 1.381 . S
C332 C334 1.381 . S
C332 C335 1.487 . S
C333 C330 1.382 . S
C333 C334 1.387 . S
C333 H356 0.930 . S
C334 C332 1.381 . S
C334 C333 1.387 . S
C334 H357 0.931 . S
C335 C328 1.399 . S
C335 C332 1.487 . S
C335 N367 1.343 . S
C336 C337 1.384 . S
C336 C338 1.384 . S
C336 H358 0.931 . S
C337 C336 1.384 . S
C337 C340 1.382 . S
C338 C336 1.384 . S
C338 C339 1.381 . S
C338 H359 0.930 . S
C339 C338 1.381 . S
C339 C341 1.381 . S
C339 C342 1.487 . S
C340 C337 1.382 . S
C340 C341 1.387 . S
C340 H360 0.930 . S
C341 C339 1.381 . S
C341 C340 1.387 . S
C341 H361 0.931 . S
C342 C339 1.487 . S
C342 C349 1.399 . S
C342 N367 1.343 . S
C343 C344 1.384 . S
C343 C345 1.384 . S
C343 H362 0.931 . S
C344 C343 1.384 . S
C344 C347 1.382 . S
C345 C343 1.384 . S
C345 C346 1.381 . S
C345 H363 0.930 . S
C346 C345 1.381 . S
C346 C348 1.381 . S
C346 C349 1.487 . S
C347 C344 1.382 . S
C347 C348 1.387 . S
C347 H364 0.930 . S
C348 C346 1.381 . S
C348 C347 1.387 . S
C348 H365 0.931 . S
C349 C342 1.399 . S
C349 C346 1.487 . S
C349 N366 1.343 . S
H350 C322 0.931 . S
H351 C324 0.930 . S
H352 C326 0.930 . S
H353 C327 0.931 . S
H354 C329 0.931 . S
H355 C331 0.930 . S
H356 C333 0.930 . S
H357 C334 0.931 . S
H358 C336 0.931 . S
H359 C338 0.930 . S
H360 C340 0.930 . S
H361 C341 0.931 . S
H362 C343 0.931 . S
H363 C345 0.930 . S
H364 C347 0.930 . S
H365 C348 0.931 . S
N366 C328 1.343 . S
N366 C349 1.343 . S
N367 C335 1.343 . S
N367 C342 1.343 . S
C368 O370 1.247 . S
C368 O372 1.258 . S
C369 O376 1.247 . S
C369 O377 1.258 . S
O370 C368 1.247 . S
O370 Zn371 2.031 . S
Zn371 O370 2.031 . S
Zn371 O375 2.032 1_655 S
Zn371 O377 2.032 1_655 S
Zn371 O378 2.031 . S
O372 C368 1.258 . S
O372 Zn373 2.028 1_655 S
Zn373 O372 2.028 1_455 S
Zn373 O374 2.035 . S
Zn373 O376 2.035 . S
Zn373 O379 2.028 1_455 S
O374 Zn373 2.035 . S
O374 C380 1.247 . S
O375 Zn371 2.032 1_455 S
O375 C380 1.258 . S
O376 C369 1.247 . S
O376 Zn373 2.035 . S
O377 C369 1.258 . S
O377 Zn371 2.032 1_455 S
O378 Zn371 2.031 . S
O378 C381 1.247 . S
O379 Zn373 2.028 1_655 S
O379 C381 1.258 . S
C380 O374 1.247 . S
C380 O375 1.258 . S
C381 O378 1.247 . S
C381 O379 1.258 . S
C382 O384 1.247 . S
C382 O386 1.258 . S
C383 O390 1.247 . S
C383 O391 1.258 . S
O384 C382 1.247 . S
O384 Zn385 2.035 . S
Zn385 O384 2.035 . S
Zn385 O389 2.028 1_545 S
Zn385 O391 2.028 1_545 S
Zn385 O392 2.035 . S
O386 C382 1.258 . S
O386 Zn387 2.032 1_545 S
Zn387 O386 2.032 1_565 S
Zn387 O388 2.031 . S
Zn387 O390 2.031 . S
Zn387 O393 2.032 1_565 S
O388 Zn387 2.031 . S
O388 C394 1.247 . S
O389 Zn385 2.028 1_565 S
O389 C394 1.258 . S
O390 C383 1.247 . S
O390 Zn387 2.031 . S
O391 C383 1.258 . S
O391 Zn385 2.028 1_565 S
O392 Zn385 2.035 . S
O392 C395 1.247 . S
O393 Zn387 2.032 1_545 S
O393 C395 1.258 . S
C394 O388 1.247 . S
C394 O389 1.258 . S
C395 O392 1.247 . S
C395 O393 1.258 . S
C396 O398 1.247 . S
C396 O400 1.258 . S
C397 O404 1.247 . S
C397 O405 1.258 . S
O398 C396 1.247 . S
O398 Zn399 2.031 . S
Zn399 O398 2.031 . S
Zn399 O403 2.032 1_655 S
Zn399 O405 2.032 1_655 S
Zn399 O406 2.031 . S
O400 C396 1.258 . S
O400 Zn401 2.028 1_655 S
Zn401 O400 2.028 1_455 S
Zn401 O402 2.035 . S
Zn401 O404 2.035 . S
Zn401 O407 2.028 1_455 S
O402 Zn401 2.035 . S
O402 C408 1.247 . S
O403 Zn399 2.032 1_455 S
O403 C408 1.258 . S
O404 C397 1.247 . S
O404 Zn401 2.035 . S
O405 C397 1.258 . S
O405 Zn399 2.032 1_455 S
O406 Zn399 2.031 . S
O406 C409 1.247 . S
O407 Zn401 2.028 1_655 S
O407 C409 1.258 . S
C408 O402 1.247 . S
C408 O403 1.258 . S
C409 O406 1.247 . S
C409 O407 1.258 . S
C410 O412 1.247 . S
C410 O414 1.258 . S
C411 O418 1.247 . S
C411 O419 1.258 . S
O412 C410 1.247 . S
O412 Zn413 2.035 . S
Zn413 O412 2.035 . S
Zn413 O417 2.028 1_545 S
Zn413 O419 2.028 1_545 S
Zn413 O420 2.035 . S
O414 C410 1.258 . S
O414 Zn415 2.032 1_545 S
Zn415 O414 2.032 1_565 S
Zn415 O416 2.031 . S
Zn415 O418 2.031 . S
Zn415 O421 2.032 1_565 S
O416 Zn415 2.031 . S
O416 C422 1.247 . S
O417 Zn413 2.028 1_565 S
O417 C422 1.258 . S
O418 C411 1.247 . S
O418 Zn415 2.031 . S
O419 C411 1.258 . S
O419 Zn413 2.028 1_565 S
O420 Zn413 2.035 . S
O420 C423 1.247 . S
O421 Zn415 2.032 1_545 S
O421 C423 1.258 . S
C422 O416 1.247 . S
C422 O417 1.258 . S
C423 O420 1.247 . S
C423 O421 1.258 . S
C424 O426 1.247 . S
C424 O428 1.258 . S
C425 O432 1.247 . S
C425 O433 1.258 . S
O426 C424 1.247 . S
O426 Zn427 2.028 . S
Zn427 O426 2.028 . S
Zn427 O431 2.035 . S
Zn427 O433 2.035 1_554 S
Zn427 O434 2.028 1_554 S
O428 C424 1.258 . S
O428 Zn429 2.035 . S
Zn429 O428 2.035 . S
Zn429 O430 2.028 . S
Zn429 O432 2.028 1_554 S
Zn429 O435 2.035 1_554 S
O430 Zn429 2.028 . S
O430 C436 1.247 . S
O431 Zn427 2.035 . S
O431 C436 1.258 . S
O432 C425 1.247 . S
O432 Zn429 2.028 1_556 S
O433 C425 1.258 . S
O433 Zn427 2.035 1_556 S
O434 Zn427 2.028 1_556 S
O434 C437 1.247 . S
O435 Zn429 2.035 1_556 S
O435 C437 1.258 . S
C436 O430 1.247 . S
C436 O431 1.258 . S
C437 O434 1.247 . S
C437 O435 1.258 . S
C438 O440 1.247 . S
C438 O442 1.258 . S
C439 O446 1.247 . S
C439 O447 1.258 . S
O440 C438 1.247 . S
O440 Zn441 2.028 . S
Zn441 O440 2.028 . S
Zn441 O445 2.035 . S
Zn441 O447 2.035 1_554 S
Zn441 O448 2.028 1_554 S
O442 C438 1.258 . S
O442 Zn443 2.035 . S
Zn443 O442 2.035 . S
Zn443 O444 2.028 . S
Zn443 O446 2.028 1_554 S
Zn443 O449 2.035 1_554 S
O444 Zn443 2.028 . S
O444 C450 1.247 . S
O445 Zn441 2.035 . S
O445 C450 1.258 . S
O446 C439 1.247 . S
O446 Zn443 2.028 1_556 S
O447 C439 1.258 . S
O447 Zn441 2.035 1_556 S
O448 Zn441 2.028 1_556 S
O448 C451 1.247 . S
O449 Zn443 2.035 1_556 S
O449 C451 1.258 . S
C450 O444 1.247 . S
C450 O445 1.258 . S
C451 O448 1.247 . S
C451 O449 1.258 . S
C452 O454 1.247 . S
C452 O456 1.258 . S
C453 O460 1.247 . S
C453 O461 1.258 . S
O454 C452 1.247 . S
O454 Zn455 2.028 1_556 S
Zn455 O454 2.028 1_554 S
Zn455 O459 2.035 1_554 S
Zn455 O461 2.035 . S
Zn455 O462 2.028 . S
O456 C452 1.258 . S
O456 Zn457 2.035 1_556 S
Zn457 O456 2.035 1_554 S
Zn457 O458 2.028 1_554 S
Zn457 O460 2.028 . S
Zn457 O463 2.035 . S
O458 Zn457 2.028 1_556 S
O458 C464 1.247 . S
O459 Zn455 2.035 1_556 S
O459 C464 1.258 . S
O460 C453 1.247 . S
O460 Zn457 2.028 . S
O461 C453 1.258 . S
O461 Zn455 2.035 . S
O462 Zn455 2.028 . S
O462 C465 1.247 . S
O463 Zn457 2.035 . S
O463 C465 1.258 . S
C464 O458 1.247 . S
C464 O459 1.258 . S
C465 O462 1.247 . S
C465 O463 1.258 . S
C466 O468 1.247 . S
C466 O470 1.258 . S
C467 O474 1.247 . S
C467 O475 1.258 . S
O468 C466 1.247 . S
O468 Zn469 2.028 . S
Zn469 O468 2.028 . S
Zn469 O473 2.035 . S
Zn469 O475 2.035 1_554 S
Zn469 O476 2.028 1_554 S
O470 C466 1.258 . S
O470 Zn471 2.035 . S
Zn471 O470 2.035 . S
Zn471 O472 2.028 . S
Zn471 O474 2.028 1_554 S
Zn471 O477 2.035 1_554 S
O472 Zn471 2.028 . S
O472 C478 1.247 . S
O473 Zn469 2.035 . S
O473 C478 1.258 . S
O474 C467 1.247 . S
O474 Zn471 2.028 1_556 S
O475 C467 1.258 . S
O475 Zn469 2.035 1_556 S
O476 Zn469 2.028 1_556 S
O476 C479 1.247 . S
O477 Zn471 2.035 1_556 S
O477 C479 1.258 . S
C478 O472 1.247 . S
C478 O473 1.258 . S
C479 O476 1.247 . S
C479 O477 1.258 . S
C369 C15 1.537 . S
C395 C68 1.537 . S
C409 C107 1.538 . S
C411 C160 1.538 . S
C185 C408 1.536 . S
C410 C252 1.540 . S
C368 C277 1.537 . S
C394 C330 1.538 . S
C396 C323 1.538 . S
C422 C192 1.538 . S
C380 C245 1.534 . S
C382 C284 1.537 . S
C381 C61 1.537 . S
C383 C114 1.538 . S
C397 C153 1.536 . S
C423 C22 1.537 . S
C425 C337 1.539 . S
C206 C451 1.539 . S
C231 C464 1.538 . S
C298 C467 1.539 . S
C47 C465 1.533 . S
C100 C466 1.535 . S
C139 C424 1.535 . S
C450 C8 1.536 . S
C453 C1 1.539 . S
C54 C478 1.536 . S
C93 C436 1.536 . S
C146 C438 1.536 . S
C437 C199 1.538 . S
C439 C238 1.542 . S
C291 C452 1.536 . S
C479 C344 1.538 . S
