# Generated by pormake.
# Topology pto, (3,4)-cn, num edge types: 1
# Building blocks:
#     Node 0, Type 0, BuildingBlock: WUSLED_clean_sbu_0, # of connection points: 3
#     Node 1, Type 0, BuildingBlock: WUSLED_clean_sbu_0, # of connection points: 3
#     Node 2, Type 0, BuildingBlock: WUSLED_clean_sbu_0, # of connection points: 3
#     Node 3, Type 0, BuildingBlock: WUSLED_clean_sbu_0, # of connection points: 3
#     Node 4, Type 0, BuildingBlock: WUSLED_clean_sbu_0, # of connection points: 3
#     Node 5, Type 0, BuildingBlock: WUSLED_clean_sbu_0, # of connection points: 3
#     Node 6, Type 0, BuildingBlock: WUSLED_clean_sbu_0, # of connection points: 3
#     Node 7, Type 0, BuildingBlock: WUSLED_clean_sbu_0, # of connection points: 3
#     Node 8, Type 1, BuildingBlock: MIFKUJ_clean_linker_1, # of connection points: 4
#     Node 9, Type 1, BuildingBlock: MIFKUJ_clean_linker_1, # of connection points: 4
#     Node 10, Type 1, BuildingBlock: MIFKUJ_clean_linker_1, # of connection points: 4
#     Node 11, Type 1, BuildingBlock: MIFKUJ_clean_linker_1, # of connection points: 4
#     Node 12, Type 1, BuildingBlock: MIFKUJ_clean_linker_1, # of connection points: 4
#     Node 13, Type 1, BuildingBlock: MIFKUJ_clean_linker_1, # of connection points: 4
#     Edge 14, Type (0, 1), BuildingBlock: EZIPEK_clean_linker_0, # of connection points: 2
#     Edge 15, Type (0, 1), BuildingBlock: EZIPEK_clean_linker_0, # of connection points: 2
#     Edge 16, Type (0, 1), BuildingBlock: EZIPEK_clean_linker_0, # of connection points: 2
#     Edge 17, Type (0, 1), BuildingBlock: EZIPEK_clean_linker_0, # of connection points: 2
#     Edge 18, Type (0, 1), BuildingBlock: EZIPEK_clean_linker_0, # of connection points: 2
#     Edge 19, Type (0, 1), BuildingBlock: EZIPEK_clean_linker_0, # of connection points: 2
#     Edge 20, Type (0, 1), BuildingBlock: EZIPEK_clean_linker_0, # of connection points: 2
#     Edge 21, Type (0, 1), BuildingBlock: EZIPEK_clean_linker_0, # of connection points: 2
#     Edge 22, Type (0, 1), BuildingBlock: EZIPEK_clean_linker_0, # of connection points: 2
#     Edge 23, Type (0, 1), BuildingBlock: EZIPEK_clean_linker_0, # of connection points: 2
#     Edge 24, Type (0, 1), BuildingBlock: EZIPEK_clean_linker_0, # of connection points: 2
#     Edge 25, Type (0, 1), BuildingBlock: EZIPEK_clean_linker_0, # of connection points: 2
#     Edge 26, Type (0, 1), BuildingBlock: EZIPEK_clean_linker_0, # of connection points: 2
#     Edge 27, Type (0, 1), BuildingBlock: EZIPEK_clean_linker_0, # of connection points: 2
#     Edge 28, Type (0, 1), BuildingBlock: EZIPEK_clean_linker_0, # of connection points: 2
#     Edge 29, Type (0, 1), BuildingBlock: EZIPEK_clean_linker_0, # of connection points: 2
#     Edge 30, Type (0, 1), BuildingBlock: EZIPEK_clean_linker_0, # of connection points: 2
#     Edge 31, Type (0, 1), BuildingBlock: EZIPEK_clean_linker_0, # of connection points: 2
#     Edge 32, Type (0, 1), BuildingBlock: EZIPEK_clean_linker_0, # of connection points: 2
#     Edge 33, Type (0, 1), BuildingBlock: EZIPEK_clean_linker_0, # of connection points: 2
#     Edge 34, Type (0, 1), BuildingBlock: EZIPEK_clean_linker_0, # of connection points: 2
#     Edge 35, Type (0, 1), BuildingBlock: EZIPEK_clean_linker_0, # of connection points: 2
#     Edge 36, Type (0, 1), BuildingBlock: EZIPEK_clean_linker_0, # of connection points: 2
#     Edge 37, Type (0, 1), BuildingBlock: EZIPEK_clean_linker_0, # of connection points: 2
# Relax obj value: 0.001
# Max RMSD: 0.012
# Mean RMSD: 0.005
data_MOF--net-pto--node1-WUSLED_clean_sbu_0--node2-MIFKUJ_clean_linker_1--edge1-EZIPEK_clean_linker_0
_symmetry_space_group_name_H-M    P1
_symmetry_Int_Tables_number       1
_symmetry_cell_setting            triclinic
loop_
_symmetry_equiv_pos_as_xyz
'x, y, z'
_cell_length_a     39.810073
_cell_length_b     59.093215
_cell_length_c     49.523784
_cell_angle_alpha  89.482458
_cell_angle_beta   90.875006
_cell_angle_gamma 90.574975
loop_
_atom_site_label
_atom_site_type_symbol
_atom_site_fract_x
_atom_site_fract_y
_atom_site_fract_z
_atom_type_partial_charge
C0 C 0.24223 0.23349 0.37182 0.0
C1 C 0.26034 0.21539 0.36131 0.0
C2 C 0.24546 0.19205 0.40005 0.0
C3 C 0.26193 0.19477 0.37535 0.0
C4 C 0.22763 0.21022 0.41066 0.0
C5 C 0.22602 0.23083 0.3966 0.0
U6 U 0.26454 0.27058 0.31151 0.0
O7 O 0.23245 0.29239 0.286 0.0
O8 O 0.27521 0.30709 0.30844 0.0
C9 C 0.24845 0.31096 0.29326 0.0
C10 C 0.23947 0.25497 0.3568 0.0
C11 C 0.22702 0.32963 0.3018 0.0
C12 C 0.19503 0.34893 0.33596 0.0
C13 C 0.21527 0.33089 0.32835 0.0
C14 C 0.19775 0.36437 0.2905 0.0
C15 C 0.18617 0.36578 0.31704 0.0
C16 C 0.21804 0.34642 0.28295 0.0
C17 C 0.32296 0.24651 0.25777 0.0
C18 C 0.3649 0.26354 0.22829 0.0
C19 C 0.3333 0.23049 0.21364 0.0
C20 C 0.31613 0.23013 0.23802 0.0
C21 C 0.35788 0.24711 0.20866 0.0
C22 C 0.3475 0.26329 0.25268 0.0
C23 C 0.30483 0.24517 0.28361 0.0
O24 O 0.26711 0.2673 0.35582 0.0
O25 O 0.22366 0.25361 0.33338 0.0
O26 O 0.27191 0.24387 0.28156 0.0
O27 O 0.3154 0.2585 0.30318 0.0
H28 H 0.27298 0.21718 0.34217 0.0
H29 H 0.27578 0.18089 0.36691 0.0
H30 H 0.21478 0.20836 0.42968 0.0
H31 H 0.21192 0.24463 0.40496 0.0
H32 H 0.18634 0.34982 0.35654 0.0
H33 H 0.22185 0.31799 0.34314 0.0
H34 H 0.19119 0.37725 0.27568 0.0
H35 H 0.22681 0.34566 0.26237 0.0
H36 H 0.38379 0.27649 0.22471 0.0
H37 H 0.32759 0.21769 0.19868 0.0
H38 H 0.29753 0.21695 0.2415 0.0
H39 H 0.35338 0.27614 0.26752 0.0
C40 C 0.23791 0.81465 0.66611 0.0
C41 C 0.25766 0.83263 0.67609 0.0
C42 C 0.24188 0.8557 0.63716 0.0
C43 C 0.25959 0.85308 0.66169 0.0
C44 C 0.22239 0.83766 0.62709 0.0
C45 C 0.22041 0.81724 0.64151 0.0
U46 U 0.26471 0.77639 0.7246 0.0
O47 O 0.2342 0.75491 0.75149 0.0
O48 O 0.27276 0.73967 0.72637 0.0
C49 C 0.24775 0.73614 0.74298 0.0
C50 C 0.23512 0.79326 0.6813 0.0
C51 C 0.22398 0.718 0.73543 0.0
C52 C 0.18905 0.69842 0.70219 0.0
C53 C 0.21074 0.71634 0.70905 0.0
C54 C 0.19305 0.68403 0.74814 0.0
C55 C 0.18025 0.6821 0.7217 0.0
C56 C 0.21479 0.70186 0.75494 0.0
C57 C 0.33255 0.79599 0.77429 0.0
C58 C 0.35556 0.77082 0.80882 0.0
C59 C 0.36929 0.81089 0.8096 0.0
C60 C 0.34951 0.81426 0.78636 0.0
C61 C 0.37237 0.78916 0.821 0.0
C62 C 0.33564 0.77422 0.78564 0.0
C63 C 0.31138 0.79988 0.75015 0.0
O64 O 0.26147 0.78008 0.68037 0.0
O65 O 0.22286 0.79497 0.70568 0.0
O66 O 0.27914 0.80204 0.7547 0.0
O67 O 0.31757 0.78689 0.72944 0.0
H68 H 0.27138 0.83088 0.69504 0.0
H69 H 0.27473 0.86687 0.6697 0.0
H70 H 0.20858 0.83946 0.60819 0.0
H71 H 0.20509 0.80351 0.63354 0.0
H72 H 0.17944 0.69711 0.68168 0.0
H73 H 0.21746 0.72873 0.69375 0.0
H74 H 0.18655 0.67155 0.76339 0.0
H75 H 0.22472 0.70292 0.77538 0.0
H76 H 0.35765 0.75396 0.81741 0.0
H77 H 0.38205 0.82521 0.81879 0.0
H78 H 0.3473 0.83116 0.77789 0.0
H79 H 0.32257 0.75993 0.77663 0.0
C80 C 0.7225 0.79842 0.26215 0.0
C81 C 0.71904 0.77676 0.25091 0.0
C82 C 0.68341 0.79202 0.21502 0.0
C83 C 0.69952 0.77358 0.22748 0.0
C84 C 0.687 0.81366 0.2262 0.0
C85 C 0.70641 0.81683 0.24965 0.0
U86 U 0.78672 0.77816 0.31462 0.0
O87 O 0.82875 0.7962 0.33437 0.0
O88 O 0.78773 0.7823 0.35882 0.0
C89 C 0.81482 0.7952 0.35828 0.0
C90 C 0.74283 0.80207 0.28677 0.0
C91 C 0.81287 0.81671 0.37314 0.0
C92 C 0.81505 0.85787 0.37458 0.0
C93 C 0.8162 0.83778 0.35992 0.0
C94 C 0.80649 0.83625 0.41576 0.0
C95 C 0.81022 0.85724 0.4026 0.0
C96 C 0.80795 0.81615 0.40115 0.0
C97 C 0.82469 0.7192 0.30717 0.0
C98 C 0.85782 0.69996 0.34189 0.0
C99 C 0.85509 0.68511 0.29641 0.0
C100 C 0.83407 0.70283 0.28849 0.0
C101 C 0.86694 0.6835 0.32316 0.0
C102 C 0.83685 0.71778 0.33391 0.0
C103 C 0.80222 0.73749 0.29827 0.0
O104 O 0.73478 0.78932 0.30762 0.0
O105 O 0.77541 0.80366 0.28318 0.0
O106 O 0.8172 0.75599 0.28948 0.0
O107 O 0.77666 0.74152 0.31397 0.0
H108 H 0.73141 0.76238 0.26026 0.0
H109 H 0.69704 0.75679 0.21902 0.0
H110 H 0.67477 0.82805 0.21675 0.0
H111 H 0.7089 0.83364 0.25804 0.0
H112 H 0.81793 0.87393 0.36411 0.0
H113 H 0.81982 0.83876 0.33831 0.0
H114 H 0.80269 0.83546 0.43737 0.0
H115 H 0.80533 0.80012 0.41175 0.0
H116 H 0.86683 0.69893 0.36261 0.0
H117 H 0.86193 0.67253 0.28175 0.0
H118 H 0.825 0.70371 0.26776 0.0
H119 H 0.83 0.73036 0.34857 0.0
C120 C 0.76621 0.21018 0.69913 0.0
C121 C 0.78756 0.21495 0.67744 0.0
C122 C 0.77978 0.17658 0.66111 0.0
C123 C 0.7943 0.19822 0.65849 0.0
C124 C 0.7585 0.17185 0.68281 0.0
C125 C 0.75174 0.18856 0.7017 0.0
U126 U 0.78147 0.26857 0.72905 0.0
O127 O 0.74569 0.29296 0.74528 0.0
O128 O 0.78579 0.27924 0.77136 0.0
C129 C 0.75848 0.29154 0.76985 0.0
C130 C 0.7591 0.22747 0.71933 0.0
C131 C 0.73419 0.28771 0.79151 0.0
C132 C 0.69993 0.26255 0.81907 0.0
C133 C 0.72206 0.26588 0.79765 0.0
C134 C 0.70133 0.30285 0.82796 0.0
C135 C 0.68962 0.28102 0.83444 0.0
C136 C 0.72349 0.30615 0.80664 0.0
C137 C 0.84552 0.3087 0.69762 0.0
C138 C 0.86507 0.34287 0.72012 0.0
C139 C 0.87848 0.33672 0.67316 0.0
C140 C 0.86105 0.31606 0.67384 0.0
C141 C 0.88067 0.35022 0.69632 0.0
C142 C 0.84747 0.32227 0.72074 0.0
C143 C 0.82734 0.28693 0.69804 0.0
O144 O 0.78382 0.23185 0.73645 0.0
O145 O 0.7443 0.24578 0.70997 0.0
O146 O 0.79498 0.28801 0.69258 0.0
O147 O 0.83449 0.27354 0.71863 0.0
H148 H 0.79902 0.23156 0.67524 0.0
H149 H 0.81086 0.20208 0.64189 0.0
H150 H 0.7472 0.1552 0.68511 0.0
H151 H 0.73529 0.18461 0.71836 0.0
H152 H 0.69116 0.2456 0.82387 0.0
H153 H 0.73002 0.25146 0.7861 0.0
H154 H 0.69364 0.31725 0.83966 0.0
H155 H 0.73258 0.32309 0.80214 0.0
H156 H 0.86646 0.35312 0.73813 0.0
H157 H 0.8903 0.34219 0.65462 0.0
H158 H 0.85968 0.30582 0.65581 0.0
H159 H 0.83544 0.31691 0.73924 0.0
C160 C 0.82034 0.71342 0.7363 0.0
C161 C 0.84483 0.7176 0.7167 0.0
C162 C 0.86319 0.67859 0.72044 0.0
C163 C 0.86619 0.70026 0.70883 0.0
C164 C 0.83854 0.67442 0.73986 0.0
C165 C 0.81727 0.69174 0.74776 0.0
U166 U 0.78423 0.77269 0.72841 0.0
O167 O 0.73247 0.78454 0.73319 0.0
O168 O 0.7729 0.79797 0.75925 0.0
C169 C 0.74041 0.797 0.75425 0.0
C170 C 0.79791 0.73145 0.74504 0.0
C171 C 0.71927 0.7937 0.77809 0.0
C172 C 0.69453 0.76938 0.81247 0.0
C173 C 0.71417 0.77208 0.78942 0.0
C174 C 0.68503 0.80984 0.81308 0.0
C175 C 0.67996 0.78827 0.82446 0.0
C176 C 0.70454 0.81252 0.79002 0.0
C177 C 0.81428 0.81136 0.6712 0.0
C178 C 0.78581 0.8457 0.65672 0.0
C179 C 0.84265 0.83866 0.64225 0.0
C180 C 0.84265 0.8182 0.65666 0.0
C181 C 0.8142 0.85247 0.64214 0.0
C182 C 0.78589 0.82529 0.67128 0.0
C183 C 0.81484 0.78975 0.68618 0.0
O184 O 0.81296 0.74959 0.7548 0.0
O185 O 0.7729 0.73616 0.72837 0.0
O186 O 0.78734 0.7773 0.68444 0.0
O187 O 0.8275 0.79069 0.71081 0.0
H188 H 0.84744 0.73426 0.70758 0.0
H189 H 0.88506 0.7037 0.69376 0.0
H190 H 0.83591 0.65776 0.74896 0.0
H191 H 0.79846 0.68824 0.76286 0.0
H192 H 0.69093 0.75264 0.8211 0.0
H193 H 0.72553 0.75737 0.78055 0.0
H194 H 0.67403 0.82458 0.82217 0.0
H195 H 0.70833 0.82932 0.78159 0.0
H196 H 0.76372 0.85625 0.65688 0.0
H197 H 0.86476 0.84371 0.63113 0.0
H198 H 0.8648 0.8077 0.65646 0.0
H199 H 0.76382 0.82038 0.68254 0.0
C200 C 0.7174 0.24692 0.26764 0.0
C201 C 0.71269 0.26871 0.25675 0.0
C202 C 0.67812 0.25303 0.22045 0.0
C203 C 0.69304 0.27176 0.23334 0.0
C204 C 0.68307 0.23126 0.23126 0.0
C205 C 0.70255 0.22824 0.25473 0.0
U206 U 0.78413 0.26632 0.31887 0.0
O207 O 0.78454 0.26399 0.36322 0.0
O208 O 0.82328 0.24679 0.34024 0.0
C209 C 0.80962 0.2497 0.36396 0.0
C210 C 0.7376 0.24337 0.29242 0.0
C211 C 0.80353 0.22899 0.37993 0.0
C212 C 0.77829 0.19165 0.38486 0.0
C213 C 0.78559 0.21072 0.36897 0.0
C214 C 0.80821 0.20841 0.42239 0.0
C215 C 0.78678 0.19082 0.41279 0.0
C216 C 0.81566 0.22743 0.40646 0.0
C217 C 0.82747 0.32402 0.3081 0.0
C218 C 0.87442 0.33815 0.33529 0.0
C219 C 0.84701 0.36281 0.30254 0.0
C220 C 0.82499 0.34524 0.29539 0.0
C221 C 0.87188 0.35937 0.32247 0.0
C222 C 0.85226 0.32054 0.32817 0.0
C223 C 0.80381 0.30593 0.30016 0.0
O224 O 0.76992 0.2405 0.28886 0.0
O225 O 0.73107 0.25693 0.31253 0.0
O226 O 0.77768 0.30319 0.3158 0.0
O227 O 0.81728 0.28673 0.29294 0.0
H228 H 0.72412 0.28333 0.26638 0.0
H229 H 0.6895 0.28867 0.22523 0.0
H230 H 0.67178 0.21663 0.22153 0.0
H231 H 0.70598 0.21131 0.26283 0.0
H232 H 0.76661 0.17763 0.3745 0.0
H233 H 0.77735 0.21112 0.34801 0.0
H234 H 0.8201 0.2077 0.44209 0.0
H235 H 0.83101 0.24094 0.41492 0.0
H236 H 0.89344 0.33529 0.35079 0.0
H237 H 0.84469 0.37911 0.29252 0.0
H238 H 0.80595 0.34822 0.27992 0.0
H239 H 0.85442 0.30427 0.33827 0.0
C240 C 0.24362 0.23098 0.66496 0.0
C241 C 0.23983 0.20994 0.67817 0.0
C242 C 0.24663 0.19039 0.63565 0.0
C243 C 0.24117 0.18982 0.66358 0.0
C244 C 0.25088 0.21134 0.6225 0.0
C245 C 0.24922 0.23147 0.63704 0.0
U246 U 0.26897 0.27012 0.72324 0.0
O247 O 0.27812 0.30693 0.72332 0.0
O248 O 0.23813 0.29216 0.74812 0.0
C249 C 0.25251 0.31078 0.73902 0.0
C250 C 0.24132 0.25254 0.6797 0.0
C251 C 0.22943 0.32855 0.72967 0.0
C252 C 0.18321 0.3415 0.70101 0.0
C253 C 0.20547 0.32444 0.70913 0.0
C254 C 0.20897 0.36691 0.73366 0.0
C255 C 0.18479 0.3628 0.71335 0.0
C256 C 0.23112 0.34988 0.74178 0.0
C257 C 0.33351 0.25045 0.77602 0.0
C258 C 0.35604 0.27521 0.81097 0.0
C259 C 0.3687 0.23515 0.81214 0.0
C260 C 0.34957 0.23204 0.78853 0.0
C261 C 0.37205 0.25674 0.82348 0.0
C262 C 0.33679 0.27208 0.78737 0.0
C263 C 0.31328 0.24675 0.75135 0.0
O264 O 0.22735 0.25157 0.7036 0.0
O265 O 0.26818 0.26564 0.67909 0.0
O266 O 0.32116 0.25958 0.73051 0.0
O267 O 0.28072 0.24489 0.75488 0.0
H268 H 0.23565 0.209 0.69971 0.0
H269 H 0.2379 0.17379 0.67404 0.0
H270 H 0.25517 0.21207 0.60096 0.0
H271 H 0.2522 0.24747 0.62644 0.0
H272 H 0.16472 0.33811 0.68525 0.0
H273 H 0.20389 0.30805 0.69954 0.0
H274 H 0.21052 0.38328 0.74331 0.0
H275 H 0.24948 0.35332 0.75763 0.0
H276 H 0.35831 0.29196 0.81956 0.0
H277 H 0.38083 0.22074 0.82162 0.0
H278 H 0.34722 0.21524 0.78007 0.0
H279 H 0.32442 0.28646 0.77802 0.0
C280 C 0.20482 0.7349 0.34456 0.0
C281 C 0.22067 0.71452 0.35202 0.0
C282 C 0.16855 0.69358 0.34456 0.0
C283 C 0.20268 0.69407 0.35201 0.0
C284 C 0.15258 0.71382 0.33719 0.0
C285 C 0.17051 0.73431 0.33732 0.0
U286 U 0.26815 0.77703 0.31442 0.0
O287 O 0.26659 0.81421 0.31121 0.0
O288 O 0.30752 0.79777 0.33389 0.0
C289 C 0.29319 0.81694 0.32694 0.0
C290 C 0.2234 0.75681 0.34494 0.0
C291 C 0.29018 0.83344 0.34878 0.0
C292 C 0.26775 0.84511 0.39175 0.0
C293 C 0.2684 0.8298 0.37032 0.0
C294 C 0.30904 0.8684 0.36946 0.0
C295 C 0.29038 0.86381 0.39309 0.0
C296 C 0.30961 0.85319 0.34807 0.0
C297 C 0.31347 0.76127 0.24905 0.0
C298 C 0.37042 0.76028 0.23169 0.0
C299 C 0.32423 0.77106 0.20205 0.0
C300 C 0.30185 0.76813 0.22332 0.0
C301 C 0.35861 0.76697 0.20605 0.0
C302 C 0.34808 0.75744 0.25301 0.0
C303 C 0.28917 0.75674 0.27093 0.0
O304 O 0.25595 0.7559 0.34976 0.0
O305 O 0.2154 0.77143 0.32576 0.0
O306 O 0.26228 0.76949 0.27112 0.0
O307 O 0.30183 0.75294 0.29522 0.0
H308 H 0.24696 0.71431 0.35794 0.0
H309 H 0.21535 0.6786 0.35782 0.0
H310 H 0.12621 0.71374 0.33145 0.0
H311 H 0.1575 0.74973 0.33179 0.0
H312 H 0.24874 0.84206 0.40659 0.0
H313 H 0.25182 0.81514 0.37052 0.0
H314 H 0.32329 0.8839 0.36694 0.0
H315 H 0.3254 0.85689 0.33091 0.0
H316 H 0.39687 0.75695 0.23506 0.0
H317 H 0.31469 0.77611 0.18232 0.0
H318 H 0.27533 0.77091 0.2195 0.0
H319 H 0.35791 0.75189 0.27244 0.0
H320 H 0.96263 0.48907 0.30666 0.0
H321 H 0.93176 0.45295 0.30392 0.0
H322 H 0.98043 0.4302 0.37749 0.0
H323 H 1.01133 0.4664 0.38039 0.0
H324 H 0.96273 0.52174 0.34422 0.0
H325 H 0.0436 0.47354 0.30454 0.0
H326 H 0.07806 0.43963 0.29991 0.0
H327 H 0.12448 0.45248 0.37758 0.0
H328 H 0.09006 0.48657 0.38222 0.0
H329 H 0.08936 0.5598 0.38326 0.0
H330 H 0.12007 0.5961 0.38219 0.0
H331 H 0.06754 0.61463 0.30862 0.0
H332 H 0.03741 0.57819 0.30924 0.0
H333 H 0.0873 0.52493 0.34833 0.0
H334 H 1.00727 0.57854 0.38225 0.0
H335 H 0.9745 0.6136 0.37976 0.0
H336 H 0.92556 0.5902 0.3068 0.0
H337 H 0.95859 0.55539 0.30889 0.0
C338 C 0.9894 0.4804 0.34365 0.0
C339 C 0.96662 0.47637 0.32225 0.0
C340 C 0.94916 0.45579 0.32061 0.0
C341 C 0.954 0.43901 0.34045 0.0
C342 C 0.97655 0.44299 0.36197 0.0
C343 C 0.99415 0.46356 0.36356 0.0
C344 C 1.00813 0.50223 0.34503 0.0
C345 C 0.98997 0.52247 0.34495 0.0
C346 C 0.04363 0.50315 0.34632 0.0
C347 C 0.06415 0.48248 0.34381 0.0
C348 C 0.06101 0.469 0.32067 0.0
C349 C 0.08064 0.44972 0.318 0.0
C350 C 0.10372 0.44361 0.33841 0.0
C351 C 0.10676 0.45697 0.36165 0.0
C352 C 0.08727 0.47638 0.36424 0.0
C353 C 0.06077 0.56637 0.34653 0.0
C354 C 0.08456 0.5716 0.36682 0.0
C355 C 0.10196 0.59228 0.36628 0.0
C356 C 0.09589 0.60799 0.34539 0.0
C357 C 0.07242 0.60272 0.32493 0.0
C358 C 0.05517 0.582 0.32539 0.0
C359 C 0.04191 0.54454 0.34738 0.0
C360 C 0.06005 0.52425 0.34797 0.0
C361 C 1.00633 0.54362 0.34609 0.0
C362 C 0.98562 0.56441 0.3456 0.0
C363 C 0.98958 0.58097 0.36566 0.0
C364 C 0.97089 0.60089 0.36432 0.0
C365 C 0.94782 0.6044 0.34304 0.0
C366 C 0.94333 0.58772 0.32332 0.0
C367 C 0.96205 0.56787 0.3246 0.0
H368 H 0.08384 0.5603 0.65617 0.0
H369 H 0.11694 0.59537 0.66156 0.0
H370 H 0.0706 0.60669 0.73836 0.0
H371 H 0.03739 0.57172 0.73296 0.0
H372 H 0.08484 0.52243 0.69082 0.0
H373 H 1.00325 0.57758 0.65723 0.0
H374 H 0.97041 0.61239 0.66168 0.0
H375 H 0.92542 0.58538 0.7339 0.0
H376 H 0.95817 0.55066 0.72961 0.0
H377 H 1.00859 0.46735 0.72997 0.0
H378 H 0.97831 0.43093 0.73151 0.0
H379 H 0.93112 0.44625 0.65462 0.0
H380 H 0.96124 0.48277 0.65312 0.0
H381 H 0.96023 0.51886 0.69073 0.0
H382 H 0.0879 0.48843 0.728 0.0
H383 H 0.12086 0.45357 0.73027 0.0
H384 H 0.07402 0.43087 0.65615 0.0
H385 H 0.04096 0.46585 0.65372 0.0
C386 C 0.05807 0.5635 0.6941 0.0
C387 C 0.08065 0.57041 0.67407 0.0
C388 C 0.0994 0.59038 0.67708 0.0
C389 C 0.09614 0.60353 0.70035 0.0
C390 C 0.07332 0.59677 0.72025 0.0
C391 C 0.05441 0.57689 0.71714 0.0
C392 C 0.03931 0.54183 0.69142 0.0
C393 C 0.05759 0.52166 0.69053 0.0
C394 C 1.00379 0.54084 0.69138 0.0
C395 C 0.98324 0.56157 0.69317 0.0
C396 C 0.98633 0.57915 0.67402 0.0
C397 C 0.96764 0.59893 0.67649 0.0
C398 C 0.94569 0.60135 0.69815 0.0
C399 C 0.94232 0.58374 0.7171 0.0
C400 C 0.96085 0.56396 0.71457 0.0
C401 C 0.98727 0.47765 0.69134 0.0
C402 C 0.99179 0.46285 0.71342 0.0
C403 C 0.97454 0.44215 0.71433 0.0
C404 C 0.95262 0.43596 0.69314 0.0
C405 C 0.94799 0.45078 0.67111 0.0
C406 C 0.96504 0.47156 0.6703 0.0
C407 C 1.00578 0.4995 0.69022 0.0
C408 C 0.98746 0.51967 0.69052 0.0
C409 C 0.04129 0.50049 0.69016 0.0
C410 C 0.0619 0.4797 0.69075 0.0
C411 C 0.08485 0.47605 0.71213 0.0
C412 C 0.10349 0.45618 0.71351 0.0
C413 C 0.09968 0.43974 0.69344 0.0
C414 C 0.07713 0.44341 0.67182 0.0
C415 C 0.05832 0.46329 0.6705 0.0
H416 H 0.20665 0.96797 0.52619 0.0
H417 H 0.20437 0.93222 0.5519 0.0
H418 H 0.28915 0.95407 0.60055 0.0
H419 H 0.29157 0.98986 0.57488 0.0
H420 H 0.24761 0.02366 0.5676 0.0
H421 H 0.22122 0.98619 0.45976 0.0
H422 H 0.23178 0.95091 0.43536 0.0
H423 H 0.31314 0.93562 0.49078 0.0
H424 H 0.3036 0.97109 0.51451 0.0
H425 H 0.29708 0.05965 0.46626 0.0
H426 H 0.29542 0.09555 0.4408 0.0
H427 H 0.20122 0.11168 0.47749 0.0
H428 H 0.20259 0.07574 0.50278 0.0
H429 H 0.25707 0.02302 0.46779 0.0
H430 H 0.29505 0.07943 0.52852 0.0
H431 H 0.29405 0.1152 0.55324 0.0
H432 H 0.2053 0.09263 0.59487 0.0
H433 H 0.20552 0.0571 0.5695 0.0
C434 C 0.24941 0.98152 0.54854 0.0
C435 C 0.22476 0.96509 0.54238 0.0
C436 C 0.22339 0.94477 0.55701 0.0
C437 C 0.24666 0.94062 0.57797 0.0
C438 C 0.27106 0.95707 0.58438 0.0
C439 C 0.27232 0.97745 0.56985 0.0
C440 C 0.25161 1.00277 0.53242 0.0
C441 C 0.24953 0.02354 0.54577 0.0
C442 C 0.25529 1.00255 0.50401 0.0
C443 C 0.26133 0.9812 0.48921 0.0
C444 C 0.24143 0.97531 0.46659 0.0
C445 C 0.24729 0.95518 0.45277 0.0
C446 C 0.2731 0.9407 0.46142 0.0
C447 C 0.29299 0.94656 0.48395 0.0
C448 C 0.2874 0.96673 0.49754 0.0
C449 C 0.25009 0.06509 0.48656 0.0
C450 C 0.27592 0.0708 0.46865 0.0
C451 C 0.27508 0.09126 0.45425 0.0
C452 C 0.24827 0.10618 0.45743 0.0
C453 C 0.22212 0.10034 0.4749 0.0
C454 C 0.22297 0.07991 0.48931 0.0
C455 C 0.25184 0.04391 0.50289 0.0
C456 C 0.25482 0.02314 0.48959 0.0
C457 C 0.25016 0.04416 0.53145 0.0
C458 C 0.25006 0.06566 0.54685 0.0
C459 C 0.27512 0.08223 0.54271 0.0
C460 C 0.27471 0.10256 0.5569 0.0
C461 C 0.24959 0.10649 0.57581 0.0
C462 C 0.22485 0.08985 0.58031 0.0
C463 C 0.22507 0.0696 0.56594 0.0
H464 H 0.46326 0.8109 0.97737 0.0
H465 H 0.43095 0.8119 0.93475 0.0
H466 H 0.47649 0.74947 0.91072 0.0
H467 H 0.50891 0.74841 0.95338 0.0
H468 H 0.46376 0.77943 0.01814 0.0
H469 H 0.54191 0.81106 0.95479 0.0
H470 H 0.57449 0.81243 0.91309 0.0
H471 H 0.6236 0.7504 0.93636 0.0
H472 H 0.59072 0.74878 0.97798 0.0
H473 H 0.593 0.74983 0.0616 0.0
H474 H 0.62689 0.75238 0.10339 0.0
H475 H 0.57329 0.81224 0.12573 0.0
H476 H 0.5397 0.80998 0.08383 0.0
H477 H 0.58833 0.77813 0.01986 0.0
H478 H 0.51239 0.74774 0.08485 0.0
H479 H 0.47772 0.74538 0.12538 0.0
H480 H 0.42309 0.80432 0.09871 0.0
H481 H 0.45821 0.8071 0.05847 0.0
C482 C 0.48863 0.77966 0.96846 0.0
C483 C 0.46625 0.79739 0.96298 0.0
C484 C 0.44794 0.79802 0.9387 0.0
C485 C 0.45152 0.78082 0.91964 0.0
C486 C 0.47359 0.76293 0.92518 0.0
C487 C 0.49205 0.76237 0.94942 0.0
C488 C 0.50834 0.77936 0.99412 0.0
C489 C 0.49101 0.77943 0.01859 0.0
C490 C 0.54386 0.7787 0.99457 0.0
C491 C 0.56363 0.77968 0.96939 0.0
C492 C 0.55943 0.79762 0.95084 0.0
C493 C 0.57803 0.79846 0.92714 0.0
C494 C 0.60128 0.78147 0.92172 0.0
C495 C 0.60567 0.7636 0.94024 0.0
C496 C 0.58705 0.76275 0.96395 0.0
C497 C 0.56359 0.77958 0.06968 0.0
C498 C 0.58851 0.7635 0.07547 0.0
C499 C 0.60774 0.76489 0.09927 0.0
C500 C 0.60243 0.78245 0.11754 0.0
C501 C 0.57756 0.79853 0.11186 0.0
C502 C 0.55836 0.79716 0.08805 0.0
C503 C 0.54376 0.7784 0.04405 0.0
C504 C 0.56107 0.77805 0.01953 0.0
C505 C 0.50817 0.77879 0.04358 0.0
C506 C 0.48813 0.77773 0.06867 0.0
C507 C 0.49336 0.7604 0.08789 0.0
C508 C 0.47353 0.75897 0.11092 0.0
C509 C 0.44793 0.77468 0.11494 0.0
C510 C 0.44278 0.79208 0.09592 0.0
C511 C 0.46271 0.79359 0.07296 0.0
H512 H 0.7652 0.98472 0.57775 0.0
H513 H 0.76804 0.94864 0.60261 0.0
H514 H 0.85719 0.93112 0.55944 0.0
H515 H 0.85488 0.96742 0.53486 0.0
H516 H 0.80658 0.01992 0.57565 0.0
H517 H 0.76273 0.96582 0.51289 0.0
H518 H 0.76368 0.93074 0.48678 0.0
H519 H 0.84999 0.95558 0.44365 0.0
H520 H 0.84974 0.99047 0.47028 0.0
H521 H 0.84364 0.06243 0.4743 0.0
H522 H 0.83561 0.09908 0.45108 0.0
H523 H 0.7431 0.10828 0.49356 0.0
H524 H 0.75078 0.0717 0.51649 0.0
H525 H 0.80432 0.02343 0.47548 0.0
H526 H 0.84589 0.07864 0.53988 0.0
H527 H 0.84254 0.11289 0.56758 0.0
H528 H 0.75508 0.08539 0.60686 0.0
H529 H 0.7582 0.05122 0.5792 0.0
C530 C 0.80967 0.97872 0.55427 0.0
C531 C 0.78551 0.97322 0.57372 0.0
C532 C 0.78701 0.95266 0.58781 0.0
C533 C 0.81273 0.93731 0.58271 0.0
C534 C 0.83711 0.9428 0.56351 0.0
C535 C 0.8357 0.96342 0.54947 0.0
C536 C 0.80744 1.00048 0.53908 0.0
C537 C 0.8058 0.02064 0.55375 0.0
C538 C 0.80698 1.00147 0.51047 0.0
C539 C 0.8065 0.98065 0.49383 0.0
C540 C 0.78204 0.96369 0.49797 0.0
C541 C 0.78244 0.94375 0.48303 0.0
C542 C 0.80696 0.94062 0.46341 0.0
C543 C 0.83094 0.95773 0.45877 0.0
C544 C 0.8307 0.97762 0.47387 0.0
C545 C 0.798 0.06447 0.49735 0.0
C546 C 0.82155 0.07228 0.47848 0.0
C547 C 0.81707 0.09315 0.46535 0.0
C548 C 0.78888 0.10631 0.4708 0.0
C549 C 0.76506 0.09834 0.48925 0.0
C550 C 0.76952 0.07755 0.50235 0.0
C551 C 0.80318 0.04277 0.51212 0.0
C552 C 0.8054 0.02266 0.49737 0.0
C553 C 0.80373 0.04175 0.54068 0.0
C554 C 0.80218 0.06242 0.55741 0.0
C555 C 0.8259 0.08002 0.55435 0.0
C556 C 0.82407 0.09948 0.57012 0.0
C557 C 0.79852 0.10155 0.58911 0.0
C558 C 0.77489 0.08401 0.59222 0.0
C559 C 0.77678 0.06455 0.57656 0.0
H560 H 0.45923 0.29573 0.97952 0.0
H561 H 0.42657 0.29449 0.937 0.0
H562 H 0.48006 0.23492 0.91348 0.0
H563 H 0.51242 0.23589 0.95605 0.0
H564 H 0.46204 0.2653 0.02003 0.0
H565 H 0.54186 0.29908 0.95934 0.0
H566 H 0.5767 0.30186 0.9189 0.0
H567 H 0.62559 0.23956 0.94143 0.0
H568 H 0.59074 0.23667 0.98187 0.0
H569 H 0.58827 0.23281 0.06291 0.0
H570 H 0.62076 0.23132 0.1054 0.0
H571 H 0.56989 0.29064 0.13311 0.0
H572 H 0.53729 0.29222 0.09056 0.0
H573 H 0.58653 0.26458 0.02442 0.0
H574 H 0.5095 0.23101 0.08558 0.0
H575 H 0.47322 0.22514 0.12322 0.0
H576 H 0.41789 0.28503 0.10042 0.0
H577 H 0.45551 0.29125 0.06335 0.0
C578 C 0.48851 0.26604 0.97087 0.0
C579 C 0.464 0.28243 0.9652 0.0
C580 C 0.44547 0.28178 0.94099 0.0
C581 C 0.45107 0.26465 0.9222 0.0
C582 C 0.47559 0.24831 0.92774 0.0
C583 C 0.49409 0.24894 0.95194 0.0
C584 C 0.50741 0.26632 0.99698 0.0
C585 C 0.48928 0.26562 0.02107 0.0
C586 C 0.54293 0.26595 0.99822 0.0
C587 C 0.5636 0.2676 0.97356 0.0
C588 C 0.55986 0.28591 0.95549 0.0
C589 C 0.57971 0.28754 0.93249 0.0
C590 C 0.60358 0.27089 0.92725 0.0
C591 C 0.60723 0.25253 0.94518 0.0
C592 C 0.5875 0.25095 0.96824 0.0
C593 C 0.56019 0.26254 0.07361 0.0
C594 C 0.58406 0.24551 0.0781 0.0
C595 C 0.60252 0.24461 0.1023 0.0
C596 C 0.59761 0.26084 0.12232 0.0
C597 C 0.57387 0.27793 0.11789 0.0
C598 C 0.55525 0.27877 0.09371 0.0
C599 C 0.54115 0.26356 0.04761 0.0
C600 C 0.55928 0.26451 0.02349 0.0
C601 C 0.50558 0.26398 0.04639 0.0
C602 C 0.48446 0.26105 0.07073 0.0
C603 C 0.48899 0.24263 0.08834 0.0
C604 C 0.4667 0.23865 0.10945 0.0
C605 C 0.43753 0.25191 0.11245 0.0
C606 C 0.43613 0.27207 0.09676 0.0
C607 C 0.45854 0.2762 0.07578 0.0
C608 C 0.13019 0.38252 0.32839 0.0
C609 C 0.16533 0.38533 0.32492 0.0
C610 C 0.16004 0.42638 0.32984 0.0
C611 C 0.12527 0.42346 0.33498 0.0
N612 N 0.07837 0.39862 0.34436 0.0
N613 N 0.21485 0.40903 0.32803 0.0
C614 C 0.11067 0.40145 0.33584 0.0
C615 C 0.18061 0.40701 0.32742 0.0
N616 N 0.11528 0.36199 0.32352 0.0
N617 N 0.17315 0.44762 0.32601 0.0
H618 H 0.23073 0.39519 0.32639 0.0
H619 H 0.2275 0.42405 0.33265 0.0
H620 H 0.15893 0.46228 0.32735 0.0
H621 H 0.19742 0.45066 0.3192 0.0
H622 H 0.08935 0.35951 0.3227 0.0
H623 H 0.12875 0.34769 0.31821 0.0
H624 H 0.0674 0.38285 0.34804 0.0
H625 H 0.06339 0.4121 0.35007 0.0
C626 C 0.17356 0.64067 0.71247 0.0
C627 C 0.15874 0.66232 0.71438 0.0
C628 C 0.1035 0.64578 0.70332 0.0
C629 C 0.11779 0.62387 0.70452 0.0
N630 N 0.16537 0.60006 0.71463 0.0
N631 N 0.10918 0.68543 0.71502 0.0
C632 C 0.15259 0.62119 0.71021 0.0
C633 C 0.12356 0.6649 0.71064 0.0
N634 N 0.20777 0.6388 0.71217 0.0
N635 N 0.07101 0.64834 0.69456 0.0
H636 H 0.12309 0.69984 0.72019 0.0
H637 H 0.08332 0.68781 0.71558 0.0
H638 H 0.0556 0.63471 0.68902 0.0
H639 H 0.06018 0.66401 0.69059 0.0
H640 H 0.21998 0.62377 0.70791 0.0
H641 H 0.22399 0.65272 0.71367 0.0
H642 H 0.18972 0.59725 0.7218 0.0
H643 H 0.15083 0.58532 0.7135 0.0
C644 C 0.87366 0.64438 0.34258 0.0
C645 C 0.88853 0.66421 0.3314 0.0
C646 C 0.943 0.6453 0.32935 0.0
C647 C 0.92826 0.62562 0.34102 0.0
N648 N 0.88197 0.6076 0.36377 0.0
N649 N 0.93801 0.68538 0.31894 0.0
C650 C 0.89428 0.62555 0.34923 0.0
C651 C 0.92349 0.66523 0.32633 0.0
N652 N 0.83964 0.64326 0.34589 0.0
N653 N 0.97521 0.64461 0.32017 0.0
H654 H 0.92432 0.70021 0.31623 0.0
H655 H 0.96385 0.6879 0.3176 0.0
H656 H 0.99052 0.63049 0.32256 0.0
H657 H 0.98617 0.65744 0.30867 0.0
H658 H 0.8267 0.62845 0.35085 0.0
H659 H 0.82383 0.65692 0.34197 0.0
H660 H 0.85851 0.60744 0.37277 0.0
H661 H 0.89638 0.59349 0.3688 0.0
C662 C 0.8811 0.39274 0.69607 0.0
C663 C 0.89918 0.37218 0.69559 0.0
C664 C 0.95205 0.39346 0.69107 0.0
C665 C 0.93426 0.41396 0.6941 0.0
N666 N 0.88282 0.43305 0.70455 0.0
N667 N 0.95218 0.35274 0.6974 0.0
C668 C 0.89902 0.41359 0.69803 0.0
C669 C 0.93479 0.37246 0.69443 0.0
N670 N 0.84683 0.3924 0.69377 0.0
N671 N 0.98516 0.39405 0.68409 0.0
H672 H 0.94043 0.33703 0.7 0.0
H673 H 0.97821 0.35215 0.69966 0.0
H674 H 0.99863 0.40909 0.68125 0.0
H675 H 0.99852 0.37973 0.67884 0.0
H676 H 0.83254 0.40694 0.69103 0.0
H677 H 0.83277 0.37747 0.69216 0.0
H678 H 0.85785 0.43338 0.7105 0.0
H679 H 0.89511 0.44864 0.70644 0.0
C680 C 0.2681 0.16723 0.43742 0.0
C681 C 0.2464 0.16998 0.41465 0.0
C682 C 0.22811 0.13032 0.41861 0.0
C683 C 0.24773 0.12814 0.44262 0.0
N684 N 0.28257 0.14507 0.47735 0.0
N685 N 0.20204 0.15553 0.38572 0.0
C686 C 0.26669 0.14676 0.45273 0.0
C687 C 0.22537 0.15188 0.4058 0.0
N688 N 0.29073 0.18394 0.44392 0.0
N689 N 0.21278 0.11164 0.40769 0.0
H690 H 0.19947 0.17103 0.3757 0.0
H691 H 0.18345 0.14381 0.38039 0.0
H692 H 0.2138 0.09565 0.41673 0.0
H693 H 0.20124 0.11156 0.38868 0.0
H694 H 0.30973 0.18202 0.45841 0.0
H695 H 0.29228 0.19924 0.4333 0.0
H696 H 0.29365 0.15877 0.48724 0.0
H697 H 0.28246 0.13026 0.48898 0.0
C698 C 0.42844 0.78707 0.8449 0.0
C699 C 0.39286 0.78577 0.84603 0.0
C700 C 0.39646 0.77755 0.89459 0.0
C701 C 0.43165 0.78153 0.89401 0.0
N702 N 0.48097 0.79292 0.8694 0.0
N703 N 0.34247 0.78298 0.87239 0.0
C704 C 0.44767 0.78698 0.86934 0.0
C705 C 0.37669 0.7818 0.871 0.0
N706 N 0.44384 0.78781 0.82041 0.0
N707 N 0.38208 0.76912 0.91752 0.0
H708 H 0.32704 0.78609 0.85558 0.0
H709 H 0.32954 0.78278 0.89051 0.0
H710 H 0.39581 0.76564 0.93515 0.0
H711 H 0.35718 0.76361 0.91833 0.0
H712 H 0.46969 0.78636 0.81816 0.0
H713 H 0.43053 0.78788 0.8021 0.0
H714 H 0.49318 0.79944 0.85254 0.0
H715 H 0.49595 0.79304 0.88686 0.0
C716 C 0.8361 0.88406 0.43636 0.0
C717 C 0.80932 0.87861 0.41822 0.0
C718 C 0.78266 0.91485 0.42783 0.0
C719 C 0.80772 0.91924 0.44784 0.0
N720 N 0.85481 0.90621 0.47478 0.0
N721 N 0.75406 0.8868 0.4002 0.0
C722 C 0.83349 0.90332 0.45315 0.0
C723 C 0.78171 0.89346 0.41492 0.0
N724 N 0.86456 0.87129 0.43687 0.0
N725 N 0.76041 0.93137 0.42056 0.0
H726 H 0.75227 0.87117 0.39064 0.0
H727 H 0.73176 0.89585 0.39947 0.0
H728 H 0.76037 0.94729 0.42951 0.0
H729 H 0.74394 0.93004 0.4041 0.0
H730 H 0.88629 0.87585 0.44755 0.0
H731 H 0.86761 0.85718 0.42468 0.0
H732 H 0.87171 0.89394 0.48138 0.0
H733 H 0.85357 0.92004 0.48767 0.0
C734 C 0.63266 0.27333 0.85422 0.0
C735 C 0.66756 0.27754 0.85811 0.0
C736 C 0.65995 0.27904 0.90708 0.0
C737 C 0.62558 0.27305 0.90337 0.0
N738 N 0.58014 0.26089 0.87401 0.0
N739 N 0.71569 0.2802 0.88813 0.0
C740 C 0.61216 0.26916 0.87707 0.0
C741 C 0.68158 0.27916 0.88454 0.0
N742 N 0.61894 0.27406 0.82875 0.0
N743 N 0.67165 0.28545 0.932 0.0
H744 H 0.7324 0.28029 0.87211 0.0
H745 H 0.72755 0.27893 0.90696 0.0
H746 H 0.65657 0.28572 0.94903 0.0
H747 H 0.69547 0.29241 0.93535 0.0
H748 H 0.59318 0.27364 0.82481 0.0
H749 H 0.63321 0.27687 0.81153 0.0
H750 H 0.57009 0.25544 0.85562 0.0
H751 H 0.56437 0.25769 0.89027 0.0
C752 C 0.26503 0.87994 0.59976 0.0
C753 C 0.24333 0.87754 0.6221 0.0
C754 C 0.22573 0.91702 0.6167 0.0
C755 C 0.24555 0.91889 0.5932 0.0
N756 N 0.28077 0.90177 0.56007 0.0
N757 N 0.19963 0.89233 0.6499 0.0
C758 C 0.26428 0.90022 0.58406 0.0
C759 C 0.22276 0.8957 0.63009 0.0
N760 N 0.28704 0.86308 0.59408 0.0
N761 N 0.21028 0.93575 0.62649 0.0
H762 H 0.19705 0.87705 0.66042 0.0
H763 H 0.18129 0.90402 0.65462 0.0
H764 H 0.21103 0.95147 0.61676 0.0
H765 H 0.19869 0.93619 0.64517 0.0
H766 H 0.30606 0.86471 0.57999 0.0
H767 H 0.28799 0.84788 0.60495 0.0
H768 H 0.29167 0.88802 0.55069 0.0
H769 H 0.2816 0.91656 0.54842 0.0
C770 C 0.67723 0.79392 0.16456 0.0
C771 C 0.66294 0.78881 0.18999 0.0
C772 C 0.61013 0.77728 0.16765 0.0
C773 C 0.62344 0.78432 0.14248 0.0
N774 N 0.6677 0.8022 0.11702 0.0
N775 N 0.61491 0.77825 0.21654 0.0
C776 C 0.65652 0.79338 0.14092 0.0
C777 C 0.62913 0.78116 0.19177 0.0
N778 N 0.7108 0.79879 0.16298 0.0
N779 N 0.5797 0.76636 0.16837 0.0
H780 H 0.62824 0.7805 0.23463 0.0
H781 H 0.58939 0.77521 0.21927 0.0
H782 H 0.56495 0.76344 0.15113 0.0
H783 H 0.57018 0.75862 0.18564 0.0
H784 H 0.72354 0.8002 0.14483 0.0
H785 H 0.72666 0.79965 0.17991 0.0
H786 H 0.69005 0.81134 0.11522 0.0
H787 H 0.65339 0.80193 0.0992 0.0
C788 C 0.76921 0.15782 0.61635 0.0
C789 C 0.78709 0.15858 0.64136 0.0
C790 C 0.81377 0.1224 0.63154 0.0
C791 C 0.79656 0.12194 0.60625 0.0
N792 N 0.76312 0.14078 0.57207 0.0
N793 N 0.83103 0.14433 0.67067 0.0
C794 C 0.77593 0.1402 0.59785 0.0
C795 C 0.81084 0.14167 0.64831 0.0
N796 N 0.74488 0.17343 0.6108 0.0
N797 N 0.83208 0.10409 0.63987 0.0
H798 H 0.82937 0.15817 0.68349 0.0
H799 H 0.85122 0.13388 0.67537 0.0
H800 H 0.8358 0.09001 0.62774 0.0
H801 H 0.84191 0.10215 0.65934 0.0
H802 H 0.72828 0.17233 0.59441 0.0
H803 H 0.73968 0.18681 0.62363 0.0
H804 H 0.75086 0.15472 0.56371 0.0
H805 H 0.76709 0.12795 0.55817 0.0
C806 C 0.36592 0.26155 0.16121 0.0
C807 C 0.3761 0.24699 0.1827 0.0
C808 C 0.41422 0.22814 0.15208 0.0
C809 C 0.41075 0.24632 0.13337 0.0
N810 N 0.3648 0.26662 0.11278 0.0
N811 N 0.41074 0.2161 0.19862 0.0
C812 C 0.38124 0.25945 0.13562 0.0
C813 C 0.40044 0.23014 0.17814 0.0
N814 N 0.34175 0.27737 0.16511 0.0
N815 N 0.42454 0.20754 0.14347 0.0
H816 H 0.40132 0.21697 0.21813 0.0
H817 H 0.43063 0.20492 0.19654 0.0
H818 H 0.42749 0.20425 0.12296 0.0
H819 H 0.42473 0.19315 0.15582 0.0
H820 H 0.33618 0.28996 0.1509 0.0
H821 H 0.32886 0.27882 0.18318 0.0
H822 H 0.34147 0.27445 0.11291 0.0
H823 H 0.37242 0.26172 0.09363 0.0
C824 C 0.91824 0.65831 0.72462 0.0
C825 C 0.88585 0.66007 0.71244 0.0
C826 C 0.8934 0.62386 0.68959 0.0
C827 C 0.92606 0.62235 0.70129 0.0
N828 N 0.97235 0.63966 0.72559 0.0
N829 N 0.84487 0.64723 0.67958 0.0
C830 C 0.93938 0.64012 0.71742 0.0
C831 C 0.87413 0.64365 0.69373 0.0
N832 N 0.92822 0.67351 0.74387 0.0
N833 N 0.88045 0.60607 0.6752 0.0
H834 H 0.83003 0.66146 0.68231 0.0
H835 H 0.83658 0.63715 0.66365 0.0
H836 H 0.89429 0.59167 0.67091 0.0
H837 H 0.85546 0.60488 0.66886 0.0
H838 H 0.9498 0.6717 0.75579 0.0
H839 H 0.91373 0.68731 0.74927 0.0
H840 H 0.98465 0.65318 0.73492 0.0
H841 H 0.98834 0.62637 0.72112 0.0
C842 C 0.92684 0.38027 0.31764 0.0
C843 C 0.89492 0.37833 0.32989 0.0
C844 C 0.9027 0.41559 0.35063 0.0
C845 C 0.9348 0.41739 0.33868 0.0
N846 N 0.98048 0.40012 0.31538 0.0
N847 N 0.85507 0.39157 0.36211 0.0
C848 C 0.94787 0.39924 0.32365 0.0
C849 C 0.88369 0.39523 0.3477 0.0
N850 N 0.93643 0.36442 0.29941 0.0
N851 N 0.88998 0.43366 0.36403 0.0
H852 H 0.84044 0.37691 0.36025 0.0
H853 H 0.84723 0.4021 0.37747 0.0
H854 H 0.90367 0.44854 0.36745 0.0
H855 H 0.86524 0.43453 0.37041 0.0
H856 H 0.95752 0.36615 0.28738 0.0
H857 H 0.92208 0.35001 0.29503 0.0
H858 H 0.99272 0.38652 0.30683 0.0
H859 H 0.99634 0.41396 0.31902 0.0
C860 C 0.12857 0.38154 0.71651 0.0
C861 C 0.16114 0.38102 0.70525 0.0
C862 C 0.15234 0.41829 0.68426 0.0
C863 C 0.11967 0.4187 0.6953 0.0
N864 N 0.07385 0.39934 0.71715 0.0
N865 N 0.20166 0.39622 0.67417 0.0
C866 C 0.10685 0.39981 0.70987 0.0
C867 C 0.17226 0.3986 0.68775 0.0
N868 N 0.11901 0.36508 0.73448 0.0
N869 N 0.16465 0.43702 0.67119 0.0
H870 H 0.2169 0.38205 0.67642 0.0
H871 H 0.20965 0.40729 0.65906 0.0
H872 H 0.15029 0.45139 0.6673 0.0
H873 H 0.1896 0.43891 0.66551 0.0
H874 H 0.09728 0.36584 0.74585 0.0
H875 H 0.13393 0.35119 0.7394 0.0
H876 H 0.06193 0.38512 0.72525 0.0
H877 H 0.05747 0.41266 0.71311 0.0
C878 C 0.15575 0.65552 0.32433 0.0
C879 C 0.14951 0.67178 0.34452 0.0
C880 C 0.10555 0.64719 0.36338 0.0
C881 C 0.1142 0.63004 0.34493 0.0
N882 N 0.15096 0.61634 0.31057 0.0
N883 N 0.12244 0.6818 0.38594 0.0
C884 C 0.14026 0.63378 0.32612 0.0
C885 C 0.12545 0.66728 0.3648 0.0
N886 N 0.17565 0.6611 0.30297 0.0
N887 N 0.0777 0.64456 0.37897 0.0
H888 H 0.13664 0.69665 0.38776 0.0
H889 H 0.10801 0.67819 0.40284 0.0
H890 H 0.06247 0.6301 0.37846 0.0
H891 H 0.06802 0.65746 0.39064 0.0
H892 H 0.17823 0.65085 0.28615 0.0
H893 H 0.18733 0.67689 0.30089 0.0
H894 H 0.17227 0.61733 0.29867 0.0
H895 H 0.14022 0.60017 0.31128 0.0
C896 C 0.82572 0.89426 0.6395 0.0
C897 C 0.81422 0.87415 0.62675 0.0
C898 C 0.80063 0.89558 0.58539 0.0
C899 C 0.81399 0.91542 0.59761 0.0
N900 N 0.84369 0.93343 0.63447 0.0
N901 N 0.79488 0.85464 0.58682 0.0
C902 C 0.82779 0.9147 0.62419 0.0
C903 C 0.80288 0.87452 0.59943 0.0
N904 N 0.83394 0.89387 0.66642 0.0
N905 N 0.78489 0.89704 0.56069 0.0
H906 H 0.79524 0.83898 0.5967 0.0
H907 H 0.79011 0.85338 0.56616 0.0
H908 H 0.78336 0.91208 0.54956 0.0
H909 H 0.77131 0.88379 0.55195 0.0
H910 H 0.83878 0.90835 0.6777 0.0
H911 H 0.83369 0.87909 0.67809 0.0
H912 H 0.85749 0.93339 0.65249 0.0
H913 H 0.84534 0.94876 0.62394 0.0
C914 C 0.67283 0.26169 0.17073 0.0
C915 C 0.65725 0.25612 0.19554 0.0
C916 C 0.60263 0.25279 0.1722 0.0
C917 C 0.61782 0.25998 0.1478 0.0
N918 N 0.66585 0.27557 0.1248 0.0
N919 N 0.60666 0.25063 0.22105 0.0
C920 C 0.65251 0.26572 0.14735 0.0
C921 C 0.6219 0.25292 0.19662 0.0
N922 N 0.7071 0.26229 0.16924 0.0
N923 N 0.57015 0.24502 0.17188 0.0
H924 H 0.61995 0.25075 0.23937 0.0
H925 H 0.5807 0.25065 0.22334 0.0
H926 H 0.55518 0.24466 0.15441 0.0
H927 H 0.5589 0.23721 0.18841 0.0
H928 H 0.71991 0.26375 0.15112 0.0
H929 H 0.72289 0.25939 0.18588 0.0
H930 H 0.69009 0.28233 0.12421 0.0
H931 H 0.6517 0.27888 0.10732 0.0
C932 C 0.22117 0.16363 0.60161 0.0
C933 C 0.24762 0.16898 0.62009 0.0
C934 C 0.27385 0.13246 0.61122 0.0
C935 C 0.24913 0.12811 0.59092 0.0
N936 N 0.20297 0.14138 0.56312 0.0
N937 N 0.30238 0.16051 0.63889 0.0
C938 C 0.22382 0.14423 0.58505 0.0
C939 C 0.27492 0.15395 0.62389 0.0
N940 N 0.19294 0.17662 0.60056 0.0
N941 N 0.29559 0.1158 0.61905 0.0
H942 H 0.30425 0.17621 0.64829 0.0
H943 H 0.32452 0.15129 0.64 0.0
H944 H 0.29549 0.09979 0.61036 0.0
H945 H 0.31172 0.11715 0.63573 0.0
H946 H 0.17137 0.17215 0.5896 0.0
H947 H 0.18984 0.19083 0.61257 0.0
H948 H 0.18645 0.15375 0.55615 0.0
H949 H 0.2043 0.12747 0.55036 0.0
C950 C 0.38111 0.75202 0.16267 0.0
C951 C 0.38205 0.76879 0.18301 0.0
C952 C 0.42891 0.78792 0.1603 0.0
C953 C 0.4256 0.77248 0.13862 0.0
N954 N 0.39503 0.74206 0.11687 0.0
N955 N 0.4033 0.80454 0.19948 0.0
C956 C 0.40073 0.75511 0.13918 0.0
C957 C 0.40503 0.78726 0.18139 0.0
N958 N 0.36225 0.73278 0.1662 0.0
N959 N 0.45545 0.80279 0.1611 0.0
H960 H 0.38618 0.80462 0.21522 0.0
H961 H 0.41686 0.81961 0.19762 0.0
H962 H 0.47341 0.80373 0.146 0.0
H963 H 0.46128 0.81282 0.17773 0.0
H964 H 0.36343 0.71887 0.15351 0.0
H965 H 0.34762 0.72983 0.18319 0.0
H966 H 0.37477 0.73087 0.11498 0.0
H967 H 0.40882 0.74378 0.09922 0.0
C968 C 0.75978 0.15146 0.42069 0.0
C969 C 0.77703 0.17078 0.43088 0.0
C970 C 0.79309 0.14875 0.47113 0.0
C971 C 0.784 0.1286 0.45736 0.0
N972 N 0.75675 0.11064 0.41912 0.0
N973 N 0.7828 0.18883 0.47409 0.0
C974 C 0.76668 0.12989 0.43217 0.0
C975 C 0.78612 0.16998 0.45871 0.0
N976 N 0.73263 0.15416 0.40391 0.0
N977 N 0.80886 0.14771 0.4958 0.0
H978 H 0.77216 0.2036 0.46615 0.0
H979 H 0.78602 0.18881 0.49501 0.0
H980 H 0.8139 0.13248 0.50582 0.0
H981 H 0.81896 0.16196 0.50531 0.0
H982 H 0.71722 0.14075 0.39772 0.0
H983 H 0.72279 0.17017 0.39979 0.0
H984 H 0.74695 0.11088 0.39947 0.0
H985 H 0.7604 0.09447 0.42721 0.0
C986 C 0.37697 0.25464 0.87398 0.0
C987 C 0.39194 0.25981 0.84882 0.0
C988 C 0.44455 0.27053 0.87208 0.0
C989 C 0.43051 0.26339 0.89695 0.0
N990 N 0.38526 0.24573 0.92149 0.0
N991 N 0.44074 0.2702 0.82311 0.0
C992 C 0.39717 0.25471 0.8979 0.0
C993 C 0.42596 0.26713 0.84764 0.0
N994 N 0.34325 0.25014 0.87502 0.0
N995 N 0.4753 0.28107 0.87195 0.0
H996 H 0.4277 0.26836 0.80482 0.0
H997 H 0.46639 0.27301 0.82075 0.0
H998 H 0.48973 0.28364 0.88944 0.0
H999 H 0.48545 0.28883 0.85493 0.0
H1000 H 0.33008 0.24873 0.89297 0.0
H1001 H 0.32774 0.24962 0.85786 0.0
H1002 H 0.36265 0.23681 0.92281 0.0
H1003 H 0.39919 0.24558 0.93949 0.0
C1004 C 0.31694 0.89749 0.4181 0.0
C1005 C 0.29235 0.87997 0.41702 0.0
C1006 C 0.26031 0.89979 0.45124 0.0
C1007 C 0.28012 0.91953 0.44666 0.0
N1008 N 0.32829 0.93716 0.42566 0.0
N1009 N 0.26095 0.85905 0.4502 0.0
C1010 C 0.30899 0.91833 0.43031 0.0
C1011 C 0.26912 0.87928 0.43848 0.0
N1012 N 0.34914 0.89311 0.41087 0.0
N1013 N 0.23335 0.90046 0.46792 0.0
H1014 H 0.27371 0.84429 0.44542 0.0
H1015 H 0.24629 0.85759 0.4674 0.0
H1016 H 0.227 0.91484 0.47871 0.0
H1017 H 0.21626 0.88706 0.46962 0.0
H1018 H 0.36891 0.9046 0.41361 0.0
H1019 H 0.3565 0.87686 0.40551 0.0
H1020 H 0.34761 0.93747 0.41167 0.0
H1021 H 0.32329 0.95287 0.43407 0.0
C1022 C 0.62532 0.7799 0.84752 0.0
C1023 C 0.65997 0.78566 0.8494 0.0
C1024 C 0.65564 0.7899 0.89844 0.0
C1025 C 0.62157 0.78267 0.8968 0.0
N1026 N 0.57494 0.76763 0.87077 0.0
N1027 N 0.70965 0.79271 0.87658 0.0
C1028 C 0.60665 0.77677 0.87158 0.0
C1029 C 0.67559 0.78965 0.87488 0.0
N1030 N 0.6101 0.77802 0.82268 0.0
N1031 N 0.66856 0.79782 0.92234 0.0
H1032 H 0.72502 0.79301 0.85971 0.0
H1033 H 0.72308 0.79317 0.89478 0.0
H1034 H 0.6548 0.79818 0.94009 0.0
H1035 H 0.69196 0.80572 0.92419 0.0
H1036 H 0.58424 0.77641 0.81981 0.0
H1037 H 0.62316 0.77966 0.80465 0.0
H1038 H 0.56389 0.76077 0.85347 0.0
H1039 H 0.56043 0.7653 0.88795 0.0
loop_
_geom_bond_atom_site_label_1
_geom_bond_atom_site_label_2
_geom_bond_distance
_geom_bond_site_symmetry_2
_ccdc_geom_bond_type
C0 C1 1.264 . S
C0 C5 1.479 . S
C0 C10 1.465 . S
C1 C0 1.264 . S
C1 C3 1.339 . S
C1 H28 0.931 . S
C2 C3 1.395 . S
C2 C4 1.320 . S
C3 C1 1.339 . S
C3 C2 1.395 . S
C3 H29 0.929 . S
C4 C2 1.320 . S
C4 C5 1.405 . S
C4 H30 0.930 . S
C5 C0 1.479 . S
C5 C4 1.405 . S
C5 H31 0.931 . S
U6 O7 2.454 . S
U6 O8 2.458 . S
U6 C9 2.984 . S
U6 C10 2.847 . S
U6 C23 2.882 . S
U6 O24 2.441 . S
U6 O25 2.420 . S
U6 O26 2.455 . S
U6 O27 2.449 . S
O7 U6 2.454 . S
O7 C9 1.353 . S
O8 U6 2.458 . S
O8 C9 1.286 . S
C9 U6 2.984 . S
C9 O7 1.353 . S
C9 O8 1.286 . S
C9 C11 1.363 . S
C10 C0 1.465 . S
C10 U6 2.847 . S
C10 O24 1.249 . S
C10 O25 1.202 . S
C11 C9 1.363 . S
C11 C13 1.408 . S
C11 C16 1.342 . S
C12 C13 1.310 . S
C12 C15 1.461 . S
C12 H32 0.932 . S
C13 C11 1.408 . S
C13 C12 1.310 . S
C13 H33 0.930 . S
C14 C15 1.474 . S
C14 C16 1.285 . S
C14 H34 0.929 . S
C15 C12 1.461 . S
C15 C14 1.474 . S
C16 C11 1.342 . S
C16 C14 1.285 . S
C16 H35 0.930 . S
C17 C20 1.424 . S
C17 C22 1.245 . S
C17 C23 1.428 . S
C18 C21 1.260 . S
C18 C22 1.477 . S
C18 H36 0.932 . S
C19 C20 1.384 . S
C19 C21 1.479 . S
C19 H37 0.929 . S
C20 C17 1.424 . S
C20 C19 1.384 . S
C20 H38 0.928 . S
C21 C18 1.260 . S
C21 C19 1.479 . S
C22 C17 1.245 . S
C22 C18 1.477 . S
C22 H39 0.932 . S
C23 U6 2.882 . S
C23 C17 1.428 . S
C23 O26 1.301 . S
C23 O27 1.282 . S
O24 U6 2.441 . S
O24 C10 1.249 . S
O25 U6 2.420 . S
O25 C10 1.202 . S
O26 U6 2.455 . S
O26 C23 1.301 . S
O27 U6 2.449 . S
O27 C23 1.282 . S
H28 C1 0.931 . S
H29 C3 0.929 . S
H30 C4 0.930 . S
H31 C5 0.931 . S
H32 C12 0.932 . S
H33 C13 0.930 . S
H34 C14 0.929 . S
H35 C16 0.930 . S
H36 C18 0.932 . S
H37 C19 0.929 . S
H38 C20 0.928 . S
H39 C22 0.932 . S
C40 C41 1.264 . S
C40 C45 1.479 . S
C40 C50 1.465 . S
C41 C40 1.264 . S
C41 C43 1.339 . S
C41 H68 0.931 . S
C42 C43 1.395 . S
C42 C44 1.320 . S
C43 C41 1.339 . S
C43 C42 1.395 . S
C43 H69 0.929 . S
C44 C42 1.320 . S
C44 C45 1.405 . S
C44 H70 0.930 . S
C45 C40 1.479 . S
C45 C44 1.405 . S
C45 H71 0.931 . S
U46 O47 2.454 . S
U46 O48 2.458 . S
U46 C49 2.984 . S
U46 C50 2.847 . S
U46 C63 2.882 . S
U46 O64 2.441 . S
U46 O65 2.420 . S
U46 O66 2.455 . S
U46 O67 2.449 . S
O47 U46 2.454 . S
O47 C49 1.353 . S
O48 U46 2.458 . S
O48 C49 1.286 . S
C49 U46 2.984 . S
C49 O47 1.353 . S
C49 O48 1.286 . S
C49 C51 1.363 . S
C50 C40 1.465 . S
C50 U46 2.847 . S
C50 O64 1.249 . S
C50 O65 1.202 . S
C51 C49 1.363 . S
C51 C53 1.408 . S
C51 C56 1.342 . S
C52 C53 1.310 . S
C52 C55 1.461 . S
C52 H72 0.932 . S
C53 C51 1.408 . S
C53 C52 1.310 . S
C53 H73 0.930 . S
C54 C55 1.474 . S
C54 C56 1.285 . S
C54 H74 0.929 . S
C55 C52 1.461 . S
C55 C54 1.474 . S
C56 C51 1.342 . S
C56 C54 1.285 . S
C56 H75 0.930 . S
C57 C60 1.424 . S
C57 C62 1.245 . S
C57 C63 1.428 . S
C58 C61 1.260 . S
C58 C62 1.477 . S
C58 H76 0.932 . S
C59 C60 1.384 . S
C59 C61 1.479 . S
C59 H77 0.929 . S
C60 C57 1.424 . S
C60 C59 1.384 . S
C60 H78 0.928 . S
C61 C58 1.260 . S
C61 C59 1.479 . S
C62 C57 1.245 . S
C62 C58 1.477 . S
C62 H79 0.932 . S
C63 U46 2.882 . S
C63 C57 1.428 . S
C63 O66 1.301 . S
C63 O67 1.282 . S
O64 U46 2.441 . S
O64 C50 1.249 . S
O65 U46 2.420 . S
O65 C50 1.202 . S
O66 U46 2.455 . S
O66 C63 1.301 . S
O67 U46 2.449 . S
O67 C63 1.282 . S
H68 C41 0.931 . S
H69 C43 0.929 . S
H70 C44 0.930 . S
H71 C45 0.931 . S
H72 C52 0.932 . S
H73 C53 0.930 . S
H74 C54 0.929 . S
H75 C56 0.930 . S
H76 C58 0.932 . S
H77 C59 0.929 . S
H78 C60 0.928 . S
H79 C62 0.932 . S
C80 C81 1.264 . S
C80 C85 1.479 . S
C80 C90 1.465 . S
C81 C80 1.264 . S
C81 C83 1.339 . S
C81 H108 0.931 . S
C82 C83 1.395 . S
C82 C84 1.320 . S
C83 C81 1.339 . S
C83 C82 1.395 . S
C83 H109 0.929 . S
C84 C82 1.320 . S
C84 C85 1.405 . S
C84 H110 0.930 . S
C85 C80 1.479 . S
C85 C84 1.405 . S
C85 H111 0.931 . S
U86 O87 2.454 . S
U86 O88 2.458 . S
U86 C89 2.984 . S
U86 C90 2.847 . S
U86 C103 2.882 . S
U86 O104 2.441 . S
U86 O105 2.420 . S
U86 O106 2.455 . S
U86 O107 2.449 . S
O87 U86 2.454 . S
O87 C89 1.353 . S
O88 U86 2.458 . S
O88 C89 1.286 . S
C89 U86 2.984 . S
C89 O87 1.353 . S
C89 O88 1.286 . S
C89 C91 1.363 . S
C90 C80 1.465 . S
C90 U86 2.847 . S
C90 O104 1.249 . S
C90 O105 1.202 . S
C91 C89 1.363 . S
C91 C93 1.408 . S
C91 C96 1.342 . S
C92 C93 1.310 . S
C92 C95 1.461 . S
C92 H112 0.932 . S
C93 C91 1.408 . S
C93 C92 1.310 . S
C93 H113 0.930 . S
C94 C95 1.474 . S
C94 C96 1.285 . S
C94 H114 0.929 . S
C95 C92 1.461 . S
C95 C94 1.474 . S
C96 C91 1.342 . S
C96 C94 1.285 . S
C96 H115 0.930 . S
C97 C100 1.424 . S
C97 C102 1.245 . S
C97 C103 1.428 . S
C98 C101 1.260 . S
C98 C102 1.477 . S
C98 H116 0.932 . S
C99 C100 1.384 . S
C99 C101 1.479 . S
C99 H117 0.929 . S
C100 C97 1.424 . S
C100 C99 1.384 . S
C100 H118 0.928 . S
C101 C98 1.260 . S
C101 C99 1.479 . S
C102 C97 1.245 . S
C102 C98 1.477 . S
C102 H119 0.932 . S
C103 U86 2.882 . S
C103 C97 1.428 . S
C103 O106 1.301 . S
C103 O107 1.282 . S
O104 U86 2.441 . S
O104 C90 1.249 . S
O105 U86 2.420 . S
O105 C90 1.202 . S
O106 U86 2.455 . S
O106 C103 1.301 . S
O107 U86 2.449 . S
O107 C103 1.282 . S
H108 C81 0.931 . S
H109 C83 0.929 . S
H110 C84 0.930 . S
H111 C85 0.931 . S
H112 C92 0.932 . S
H113 C93 0.930 . S
H114 C94 0.929 . S
H115 C96 0.930 . S
H116 C98 0.932 . S
H117 C99 0.929 . S
H118 C100 0.928 . S
H119 C102 0.932 . S
C120 C121 1.264 . S
C120 C125 1.479 . S
C120 C130 1.465 . S
C121 C120 1.264 . S
C121 C123 1.339 . S
C121 H148 0.931 . S
C122 C123 1.395 . S
C122 C124 1.320 . S
C123 C121 1.339 . S
C123 C122 1.395 . S
C123 H149 0.929 . S
C124 C122 1.320 . S
C124 C125 1.405 . S
C124 H150 0.930 . S
C125 C120 1.479 . S
C125 C124 1.405 . S
C125 H151 0.931 . S
U126 O127 2.454 . S
U126 O128 2.458 . S
U126 C129 2.984 . S
U126 C130 2.847 . S
U126 C143 2.882 . S
U126 O144 2.441 . S
U126 O145 2.420 . S
U126 O146 2.455 . S
U126 O147 2.449 . S
O127 U126 2.454 . S
O127 C129 1.353 . S
O128 U126 2.458 . S
O128 C129 1.286 . S
C129 U126 2.984 . S
C129 O127 1.353 . S
C129 O128 1.286 . S
C129 C131 1.363 . S
C130 C120 1.465 . S
C130 U126 2.847 . S
C130 O144 1.249 . S
C130 O145 1.202 . S
C131 C129 1.363 . S
C131 C133 1.408 . S
C131 C136 1.342 . S
C132 C133 1.310 . S
C132 C135 1.461 . S
C132 H152 0.932 . S
C133 C131 1.408 . S
C133 C132 1.310 . S
C133 H153 0.930 . S
C134 C135 1.474 . S
C134 C136 1.285 . S
C134 H154 0.929 . S
C135 C132 1.461 . S
C135 C134 1.474 . S
C136 C131 1.342 . S
C136 C134 1.285 . S
C136 H155 0.930 . S
C137 C140 1.424 . S
C137 C142 1.245 . S
C137 C143 1.428 . S
C138 C141 1.260 . S
C138 C142 1.477 . S
C138 H156 0.932 . S
C139 C140 1.384 . S
C139 C141 1.479 . S
C139 H157 0.929 . S
C140 C137 1.424 . S
C140 C139 1.384 . S
C140 H158 0.928 . S
C141 C138 1.260 . S
C141 C139 1.479 . S
C142 C137 1.245 . S
C142 C138 1.477 . S
C142 H159 0.932 . S
C143 U126 2.882 . S
C143 C137 1.428 . S
C143 O146 1.301 . S
C143 O147 1.282 . S
O144 U126 2.441 . S
O144 C130 1.249 . S
O145 U126 2.420 . S
O145 C130 1.202 . S
O146 U126 2.455 . S
O146 C143 1.301 . S
O147 U126 2.449 . S
O147 C143 1.282 . S
H148 C121 0.931 . S
H149 C123 0.929 . S
H150 C124 0.930 . S
H151 C125 0.931 . S
H152 C132 0.932 . S
H153 C133 0.930 . S
H154 C134 0.929 . S
H155 C136 0.930 . S
H156 C138 0.932 . S
H157 C139 0.929 . S
H158 C140 0.928 . S
H159 C142 0.932 . S
C160 C161 1.264 . S
C160 C165 1.479 . S
C160 C170 1.465 . S
C161 C160 1.264 . S
C161 C163 1.339 . S
C161 H188 0.931 . S
C162 C163 1.395 . S
C162 C164 1.320 . S
C163 C161 1.339 . S
C163 C162 1.395 . S
C163 H189 0.929 . S
C164 C162 1.320 . S
C164 C165 1.405 . S
C164 H190 0.930 . S
C165 C160 1.479 . S
C165 C164 1.405 . S
C165 H191 0.931 . S
U166 O167 2.454 . S
U166 O168 2.458 . S
U166 C169 2.984 . S
U166 C170 2.847 . S
U166 C183 2.882 . S
U166 O184 2.441 . S
U166 O185 2.420 . S
U166 O186 2.455 . S
U166 O187 2.449 . S
O167 U166 2.454 . S
O167 C169 1.353 . S
O168 U166 2.458 . S
O168 C169 1.286 . S
C169 U166 2.984 . S
C169 O167 1.353 . S
C169 O168 1.286 . S
C169 C171 1.363 . S
C170 C160 1.465 . S
C170 U166 2.847 . S
C170 O184 1.249 . S
C170 O185 1.202 . S
C171 C169 1.363 . S
C171 C173 1.408 . S
C171 C176 1.342 . S
C172 C173 1.310 . S
C172 C175 1.461 . S
C172 H192 0.932 . S
C173 C171 1.408 . S
C173 C172 1.310 . S
C173 H193 0.930 . S
C174 C175 1.474 . S
C174 C176 1.285 . S
C174 H194 0.929 . S
C175 C172 1.461 . S
C175 C174 1.474 . S
C176 C171 1.342 . S
C176 C174 1.285 . S
C176 H195 0.930 . S
C177 C180 1.424 . S
C177 C182 1.245 . S
C177 C183 1.428 . S
C178 C181 1.260 . S
C178 C182 1.477 . S
C178 H196 0.932 . S
C179 C180 1.384 . S
C179 C181 1.479 . S
C179 H197 0.929 . S
C180 C177 1.424 . S
C180 C179 1.384 . S
C180 H198 0.928 . S
C181 C178 1.260 . S
C181 C179 1.479 . S
C182 C177 1.245 . S
C182 C178 1.477 . S
C182 H199 0.932 . S
C183 U166 2.882 . S
C183 C177 1.428 . S
C183 O186 1.301 . S
C183 O187 1.282 . S
O184 U166 2.441 . S
O184 C170 1.249 . S
O185 U166 2.420 . S
O185 C170 1.202 . S
O186 U166 2.455 . S
O186 C183 1.301 . S
O187 U166 2.449 . S
O187 C183 1.282 . S
H188 C161 0.931 . S
H189 C163 0.929 . S
H190 C164 0.930 . S
H191 C165 0.931 . S
H192 C172 0.932 . S
H193 C173 0.930 . S
H194 C174 0.929 . S
H195 C176 0.930 . S
H196 C178 0.932 . S
H197 C179 0.929 . S
H198 C180 0.928 . S
H199 C182 0.932 . S
C200 C201 1.264 . S
C200 C205 1.479 . S
C200 C210 1.465 . S
C201 C200 1.264 . S
C201 C203 1.339 . S
C201 H228 0.931 . S
C202 C203 1.395 . S
C202 C204 1.320 . S
C203 C201 1.339 . S
C203 C202 1.395 . S
C203 H229 0.929 . S
C204 C202 1.320 . S
C204 C205 1.405 . S
C204 H230 0.930 . S
C205 C200 1.479 . S
C205 C204 1.405 . S
C205 H231 0.931 . S
U206 O207 2.454 . S
U206 O208 2.458 . S
U206 C209 2.984 . S
U206 C210 2.847 . S
U206 C223 2.882 . S
U206 O224 2.441 . S
U206 O225 2.420 . S
U206 O226 2.455 . S
U206 O227 2.449 . S
O207 U206 2.454 . S
O207 C209 1.353 . S
O208 U206 2.458 . S
O208 C209 1.286 . S
C209 U206 2.984 . S
C209 O207 1.353 . S
C209 O208 1.286 . S
C209 C211 1.363 . S
C210 C200 1.465 . S
C210 U206 2.847 . S
C210 O224 1.249 . S
C210 O225 1.202 . S
C211 C209 1.363 . S
C211 C213 1.408 . S
C211 C216 1.342 . S
C212 C213 1.310 . S
C212 C215 1.461 . S
C212 H232 0.932 . S
C213 C211 1.408 . S
C213 C212 1.310 . S
C213 H233 0.930 . S
C214 C215 1.474 . S
C214 C216 1.285 . S
C214 H234 0.929 . S
C215 C212 1.461 . S
C215 C214 1.474 . S
C216 C211 1.342 . S
C216 C214 1.285 . S
C216 H235 0.930 . S
C217 C220 1.424 . S
C217 C222 1.245 . S
C217 C223 1.428 . S
C218 C221 1.260 . S
C218 C222 1.477 . S
C218 H236 0.932 . S
C219 C220 1.384 . S
C219 C221 1.479 . S
C219 H237 0.929 . S
C220 C217 1.424 . S
C220 C219 1.384 . S
C220 H238 0.928 . S
C221 C218 1.260 . S
C221 C219 1.479 . S
C222 C217 1.245 . S
C222 C218 1.477 . S
C222 H239 0.932 . S
C223 U206 2.882 . S
C223 C217 1.428 . S
C223 O226 1.301 . S
C223 O227 1.282 . S
O224 U206 2.441 . S
O224 C210 1.249 . S
O225 U206 2.420 . S
O225 C210 1.202 . S
O226 U206 2.455 . S
O226 C223 1.301 . S
O227 U206 2.449 . S
O227 C223 1.282 . S
H228 C201 0.931 . S
H229 C203 0.929 . S
H230 C204 0.930 . S
H231 C205 0.931 . S
H232 C212 0.932 . S
H233 C213 0.930 . S
H234 C214 0.929 . S
H235 C216 0.930 . S
H236 C218 0.932 . S
H237 C219 0.929 . S
H238 C220 0.928 . S
H239 C222 0.932 . S
C240 C241 1.264 . S
C240 C245 1.479 . S
C240 C250 1.465 . S
C241 C240 1.264 . S
C241 C243 1.339 . S
C241 H268 0.931 . S
C242 C243 1.395 . S
C242 C244 1.320 . S
C243 C241 1.339 . S
C243 C242 1.395 . S
C243 H269 0.929 . S
C244 C242 1.320 . S
C244 C245 1.405 . S
C244 H270 0.930 . S
C245 C240 1.479 . S
C245 C244 1.405 . S
C245 H271 0.931 . S
U246 O247 2.454 . S
U246 O248 2.458 . S
U246 C249 2.984 . S
U246 C250 2.847 . S
U246 C263 2.882 . S
U246 O264 2.441 . S
U246 O265 2.420 . S
U246 O266 2.455 . S
U246 O267 2.449 . S
O247 U246 2.454 . S
O247 C249 1.353 . S
O248 U246 2.458 . S
O248 C249 1.286 . S
C249 U246 2.984 . S
C249 O247 1.353 . S
C249 O248 1.286 . S
C249 C251 1.363 . S
C250 C240 1.465 . S
C250 U246 2.847 . S
C250 O264 1.249 . S
C250 O265 1.202 . S
C251 C249 1.363 . S
C251 C253 1.408 . S
C251 C256 1.342 . S
C252 C253 1.310 . S
C252 C255 1.461 . S
C252 H272 0.932 . S
C253 C251 1.408 . S
C253 C252 1.310 . S
C253 H273 0.930 . S
C254 C255 1.474 . S
C254 C256 1.285 . S
C254 H274 0.929 . S
C255 C252 1.461 . S
C255 C254 1.474 . S
C256 C251 1.342 . S
C256 C254 1.285 . S
C256 H275 0.930 . S
C257 C260 1.424 . S
C257 C262 1.245 . S
C257 C263 1.428 . S
C258 C261 1.260 . S
C258 C262 1.477 . S
C258 H276 0.932 . S
C259 C260 1.384 . S
C259 C261 1.479 . S
C259 H277 0.929 . S
C260 C257 1.424 . S
C260 C259 1.384 . S
C260 H278 0.928 . S
C261 C258 1.260 . S
C261 C259 1.479 . S
C262 C257 1.245 . S
C262 C258 1.477 . S
C262 H279 0.932 . S
C263 U246 2.882 . S
C263 C257 1.428 . S
C263 O266 1.301 . S
C263 O267 1.282 . S
O264 U246 2.441 . S
O264 C250 1.249 . S
O265 U246 2.420 . S
O265 C250 1.202 . S
O266 U246 2.455 . S
O266 C263 1.301 . S
O267 U246 2.449 . S
O267 C263 1.282 . S
H268 C241 0.931 . S
H269 C243 0.929 . S
H270 C244 0.930 . S
H271 C245 0.931 . S
H272 C252 0.932 . S
H273 C253 0.930 . S
H274 C254 0.929 . S
H275 C256 0.930 . S
H276 C258 0.932 . S
H277 C259 0.929 . S
H278 C260 0.928 . S
H279 C262 0.932 . S
C280 C281 1.264 . S
C280 C285 1.479 . S
C280 C290 1.465 . S
C281 C280 1.264 . S
C281 C283 1.339 . S
C281 H308 0.931 . S
C282 C283 1.395 . S
C282 C284 1.320 . S
C283 C281 1.339 . S
C283 C282 1.395 . S
C283 H309 0.929 . S
C284 C282 1.320 . S
C284 C285 1.405 . S
C284 H310 0.930 . S
C285 C280 1.479 . S
C285 C284 1.405 . S
C285 H311 0.931 . S
U286 O287 2.454 . S
U286 O288 2.458 . S
U286 C289 2.984 . S
U286 C290 2.847 . S
U286 C303 2.882 . S
U286 O304 2.441 . S
U286 O305 2.420 . S
U286 O306 2.455 . S
U286 O307 2.449 . S
O287 U286 2.454 . S
O287 C289 1.353 . S
O288 U286 2.458 . S
O288 C289 1.286 . S
C289 U286 2.984 . S
C289 O287 1.353 . S
C289 O288 1.286 . S
C289 C291 1.363 . S
C290 C280 1.465 . S
C290 U286 2.847 . S
C290 O304 1.249 . S
C290 O305 1.202 . S
C291 C289 1.363 . S
C291 C293 1.408 . S
C291 C296 1.342 . S
C292 C293 1.310 . S
C292 C295 1.461 . S
C292 H312 0.932 . S
C293 C291 1.408 . S
C293 C292 1.310 . S
C293 H313 0.930 . S
C294 C295 1.474 . S
C294 C296 1.285 . S
C294 H314 0.929 . S
C295 C292 1.461 . S
C295 C294 1.474 . S
C296 C291 1.342 . S
C296 C294 1.285 . S
C296 H315 0.930 . S
C297 C300 1.424 . S
C297 C302 1.245 . S
C297 C303 1.428 . S
C298 C301 1.260 . S
C298 C302 1.477 . S
C298 H316 0.932 . S
C299 C300 1.384 . S
C299 C301 1.479 . S
C299 H317 0.929 . S
C300 C297 1.424 . S
C300 C299 1.384 . S
C300 H318 0.928 . S
C301 C298 1.260 . S
C301 C299 1.479 . S
C302 C297 1.245 . S
C302 C298 1.477 . S
C302 H319 0.932 . S
C303 U286 2.882 . S
C303 C297 1.428 . S
C303 O306 1.301 . S
C303 O307 1.282 . S
O304 U286 2.441 . S
O304 C290 1.249 . S
O305 U286 2.420 . S
O305 C290 1.202 . S
O306 U286 2.455 . S
O306 C303 1.301 . S
O307 U286 2.449 . S
O307 C303 1.282 . S
H308 C281 0.931 . S
H309 C283 0.929 . S
H310 C284 0.930 . S
H311 C285 0.931 . S
H312 C292 0.932 . S
H313 C293 0.930 . S
H314 C294 0.929 . S
H315 C296 0.930 . S
H316 C298 0.932 . S
H317 C299 0.929 . S
H318 C300 0.928 . S
H319 C302 0.932 . S
H320 C339 0.949 . S
H321 C340 0.950 . S
H322 C342 0.950 . S
H323 C343 0.950 . S
H324 C345 0.950 . S
H325 C348 0.950 . S
H326 C349 0.950 . S
H327 C351 0.951 . S
H328 C352 0.949 . S
H329 C354 0.949 . S
H330 C355 0.950 . S
H331 C357 0.950 . S
H332 C358 0.950 . S
H333 C360 0.950 . S
H334 C363 0.950 . S
H335 C364 0.950 . S
H336 C366 0.951 . S
H337 C367 0.949 . S
C338 C339 1.376 . S
C338 C343 1.386 . S
C338 C344 1.483 . S
C339 H320 0.949 . S
C339 C338 1.376 . S
C339 C340 1.397 . S
C340 H321 0.950 . S
C340 C339 1.397 . S
C340 C341 1.391 . S
C341 C340 1.391 . S
C341 C342 1.405 . S
C342 H322 0.950 . S
C342 C341 1.405 . S
C342 C343 1.367 . S
C343 H323 0.950 . S
C343 C338 1.386 . S
C343 C342 1.367 . S
C344 C338 1.483 . S
C344 C345 1.382 . S
C344 C346 1.403 1_655 S
C345 H324 0.950 . S
C345 C344 1.382 . S
C345 C361 1.411 . S
C346 C344 1.403 1_455 S
C346 C347 1.489 . S
C346 C360 1.411 . S
C347 C346 1.489 . S
C347 C348 1.383 . S
C347 C352 1.382 . S
C348 H325 0.950 . S
C348 C347 1.383 . S
C348 C349 1.395 . S
C349 H326 0.950 . S
C349 C348 1.395 . S
C349 C350 1.288 . S
C350 C349 1.288 . S
C350 C351 1.392 . S
C351 H327 0.951 . S
C351 C350 1.392 . S
C351 C352 1.392 . S
C352 H328 0.949 . S
C352 C347 1.382 . S
C352 C351 1.392 . S
C353 C354 1.376 . S
C353 C358 1.386 . S
C353 C359 1.483 . S
C354 H329 0.949 . S
C354 C353 1.376 . S
C354 C355 1.397 . S
C355 H330 0.950 . S
C355 C354 1.397 . S
C355 C356 1.391 . S
C356 C355 1.391 . S
C356 C357 1.405 . S
C357 H331 0.950 . S
C357 C356 1.405 . S
C357 C358 1.367 . S
C358 H332 0.950 . S
C358 C353 1.386 . S
C358 C357 1.367 . S
C359 C353 1.483 . S
C359 C360 1.382 . S
C359 C361 1.403 1_455 S
C360 H333 0.950 . S
C360 C346 1.411 . S
C360 C359 1.382 . S
C361 C345 1.411 . S
C361 C359 1.403 1_655 S
C361 C362 1.489 . S
C362 C361 1.489 . S
C362 C363 1.383 . S
C362 C367 1.382 . S
C363 H334 0.950 . S
C363 C362 1.383 . S
C363 C364 1.395 . S
C364 H335 0.950 . S
C364 C363 1.395 . S
C364 C365 1.288 . S
C365 C364 1.288 . S
C365 C366 1.392 . S
C366 H336 0.951 . S
C366 C365 1.392 . S
C366 C367 1.392 . S
C367 H337 0.949 . S
C367 C362 1.382 . S
C367 C366 1.392 . S
H368 C387 0.949 . S
H369 C388 0.950 . S
H370 C390 0.950 . S
H371 C391 0.950 . S
H372 C393 0.950 . S
H373 C396 0.950 . S
H374 C397 0.950 . S
H375 C399 0.951 . S
H376 C400 0.949 . S
H377 C402 0.949 . S
H378 C403 0.950 . S
H379 C405 0.950 . S
H380 C406 0.950 . S
H381 C408 0.950 . S
H382 C411 0.950 . S
H383 C412 0.950 . S
H384 C414 0.951 . S
H385 C415 0.949 . S
C386 C387 1.376 . S
C386 C391 1.386 . S
C386 C392 1.483 . S
C387 H368 0.949 . S
C387 C386 1.376 . S
C387 C388 1.397 . S
C388 H369 0.950 . S
C388 C387 1.397 . S
C388 C389 1.391 . S
C389 C388 1.391 . S
C389 C390 1.405 . S
C390 H370 0.950 . S
C390 C389 1.405 . S
C390 C391 1.367 . S
C391 H371 0.950 . S
C391 C386 1.386 . S
C391 C390 1.367 . S
C392 C386 1.483 . S
C392 C393 1.382 . S
C392 C394 1.403 1_455 S
C393 H372 0.950 . S
C393 C392 1.382 . S
C393 C409 1.411 . S
C394 C392 1.403 1_655 S
C394 C395 1.489 . S
C394 C408 1.411 . S
C395 C394 1.489 . S
C395 C396 1.383 . S
C395 C400 1.382 . S
C396 H373 0.950 . S
C396 C395 1.383 . S
C396 C397 1.395 . S
C397 H374 0.950 . S
C397 C396 1.395 . S
C397 C398 1.288 . S
C398 C397 1.288 . S
C398 C399 1.392 . S
C399 H375 0.951 . S
C399 C398 1.392 . S
C399 C400 1.392 . S
C400 H376 0.949 . S
C400 C395 1.382 . S
C400 C399 1.392 . S
C401 C402 1.376 . S
C401 C406 1.386 . S
C401 C407 1.483 . S
C402 H377 0.949 . S
C402 C401 1.376 . S
C402 C403 1.397 . S
C403 H378 0.950 . S
C403 C402 1.397 . S
C403 C404 1.391 . S
C404 C403 1.391 . S
C404 C405 1.405 . S
C405 H379 0.950 . S
C405 C404 1.405 . S
C405 C406 1.367 . S
C406 H380 0.950 . S
C406 C401 1.386 . S
C406 C405 1.367 . S
C407 C401 1.483 . S
C407 C408 1.382 . S
C407 C409 1.403 1_655 S
C408 H381 0.950 . S
C408 C394 1.411 . S
C408 C407 1.382 . S
C409 C393 1.411 . S
C409 C407 1.403 1_455 S
C409 C410 1.489 . S
C410 C409 1.489 . S
C410 C411 1.383 . S
C410 C415 1.382 . S
C411 H382 0.950 . S
C411 C410 1.383 . S
C411 C412 1.395 . S
C412 H383 0.950 . S
C412 C411 1.395 . S
C412 C413 1.288 . S
C413 C412 1.288 . S
C413 C414 1.392 . S
C414 H384 0.951 . S
C414 C413 1.392 . S
C414 C415 1.392 . S
C415 H385 0.949 . S
C415 C410 1.382 . S
C415 C414 1.392 . S
H416 C435 0.949 . S
H417 C436 0.950 . S
H418 C438 0.950 . S
H419 C439 0.950 . S
H420 C441 0.950 . S
H421 C444 0.950 . S
H422 C445 0.950 . S
H423 C447 0.951 . S
H424 C448 0.949 . S
H425 C450 0.949 . S
H426 C451 0.950 . S
H427 C453 0.950 . S
H428 C454 0.950 . S
H429 C456 0.950 . S
H430 C459 0.950 . S
H431 C460 0.950 . S
H432 C462 0.951 . S
H433 C463 0.949 . S
C434 C435 1.376 . S
C434 C439 1.386 . S
C434 C440 1.483 . S
C435 H416 0.949 . S
C435 C434 1.376 . S
C435 C436 1.397 . S
C436 H417 0.950 . S
C436 C435 1.397 . S
C436 C437 1.391 . S
C437 C436 1.391 . S
C437 C438 1.405 . S
C438 H418 0.950 . S
C438 C437 1.405 . S
C438 C439 1.367 . S
C439 H419 0.950 . S
C439 C434 1.386 . S
C439 C438 1.367 . S
C440 C434 1.483 . S
C440 C441 1.382 1_565 S
C440 C442 1.403 . S
C441 H420 0.950 . S
C441 C440 1.382 1_545 S
C441 C457 1.411 . S
C442 C440 1.403 . S
C442 C443 1.489 . S
C442 C456 1.411 1_565 S
C443 C442 1.489 . S
C443 C444 1.383 . S
C443 C448 1.382 . S
C444 H421 0.950 . S
C444 C443 1.383 . S
C444 C445 1.395 . S
C445 H422 0.950 . S
C445 C444 1.395 . S
C445 C446 1.288 . S
C446 C445 1.288 . S
C446 C447 1.392 . S
C447 H423 0.951 . S
C447 C446 1.392 . S
C447 C448 1.392 . S
C448 H424 0.949 . S
C448 C443 1.382 . S
C448 C447 1.392 . S
C449 C450 1.376 . S
C449 C454 1.386 . S
C449 C455 1.483 . S
C450 H425 0.949 . S
C450 C449 1.376 . S
C450 C451 1.397 . S
C451 H426 0.950 . S
C451 C450 1.397 . S
C451 C452 1.391 . S
C452 C451 1.391 . S
C452 C453 1.405 . S
C453 H427 0.950 . S
C453 C452 1.405 . S
C453 C454 1.367 . S
C454 H428 0.950 . S
C454 C449 1.386 . S
C454 C453 1.367 . S
C455 C449 1.483 . S
C455 C456 1.382 . S
C455 C457 1.403 . S
C456 H429 0.950 . S
C456 C442 1.411 1_545 S
C456 C455 1.382 . S
C457 C441 1.411 . S
C457 C455 1.403 . S
C457 C458 1.489 . S
C458 C457 1.489 . S
C458 C459 1.383 . S
C458 C463 1.382 . S
C459 H430 0.950 . S
C459 C458 1.383 . S
C459 C460 1.395 . S
C460 H431 0.950 . S
C460 C459 1.395 . S
C460 C461 1.288 . S
C461 C460 1.288 . S
C461 C462 1.392 . S
C462 H432 0.951 . S
C462 C461 1.392 . S
C462 C463 1.392 . S
C463 H433 0.949 . S
C463 C458 1.382 . S
C463 C462 1.392 . S
H464 C483 0.949 . S
H465 C484 0.950 . S
H466 C486 0.950 . S
H467 C487 0.950 . S
H468 C489 0.950 . S
H469 C492 0.950 . S
H470 C493 0.950 . S
H471 C495 0.951 . S
H472 C496 0.949 . S
H473 C498 0.949 . S
H474 C499 0.950 . S
H475 C501 0.950 . S
H476 C502 0.950 . S
H477 C504 0.950 . S
H478 C507 0.950 . S
H479 C508 0.950 . S
H480 C510 0.951 . S
H481 C511 0.949 . S
C482 C483 1.376 . S
C482 C487 1.386 . S
C482 C488 1.483 . S
C483 H464 0.949 . S
C483 C482 1.376 . S
C483 C484 1.397 . S
C484 H465 0.950 . S
C484 C483 1.397 . S
C484 C485 1.391 . S
C485 C484 1.391 . S
C485 C486 1.405 . S
C486 H466 0.950 . S
C486 C485 1.405 . S
C486 C487 1.367 . S
C487 H467 0.950 . S
C487 C482 1.386 . S
C487 C486 1.367 . S
C488 C482 1.483 . S
C488 C489 1.382 1_556 S
C488 C490 1.403 . S
C489 H468 0.950 . S
C489 C488 1.382 1_554 S
C489 C505 1.411 . S
C490 C488 1.403 . S
C490 C491 1.489 . S
C490 C504 1.411 1_556 S
C491 C490 1.489 . S
C491 C492 1.383 . S
C491 C496 1.382 . S
C492 H469 0.950 . S
C492 C491 1.383 . S
C492 C493 1.395 . S
C493 H470 0.950 . S
C493 C492 1.395 . S
C493 C494 1.288 . S
C494 C493 1.288 . S
C494 C495 1.392 . S
C495 H471 0.951 . S
C495 C494 1.392 . S
C495 C496 1.392 . S
C496 H472 0.949 . S
C496 C491 1.382 . S
C496 C495 1.392 . S
C497 C498 1.376 . S
C497 C502 1.386 . S
C497 C503 1.483 . S
C498 H473 0.949 . S
C498 C497 1.376 . S
C498 C499 1.397 . S
C499 H474 0.950 . S
C499 C498 1.397 . S
C499 C500 1.391 . S
C500 C499 1.391 . S
C500 C501 1.405 . S
C501 H475 0.950 . S
C501 C500 1.405 . S
C501 C502 1.367 . S
C502 H476 0.950 . S
C502 C497 1.386 . S
C502 C501 1.367 . S
C503 C497 1.483 . S
C503 C504 1.382 . S
C503 C505 1.403 . S
C504 H477 0.950 . S
C504 C490 1.411 1_554 S
C504 C503 1.382 . S
C505 C489 1.411 . S
C505 C503 1.403 . S
C505 C506 1.489 . S
C506 C505 1.489 . S
C506 C507 1.383 . S
C506 C511 1.382 . S
C507 H478 0.950 . S
C507 C506 1.383 . S
C507 C508 1.395 . S
C508 H479 0.950 . S
C508 C507 1.395 . S
C508 C509 1.288 . S
C509 C508 1.288 . S
C509 C510 1.392 . S
C510 H480 0.951 . S
C510 C509 1.392 . S
C510 C511 1.392 . S
C511 H481 0.949 . S
C511 C506 1.382 . S
C511 C510 1.392 . S
H512 C531 0.949 . S
H513 C532 0.950 . S
H514 C534 0.950 . S
H515 C535 0.950 . S
H516 C537 0.950 . S
H517 C540 0.950 . S
H518 C541 0.950 . S
H519 C543 0.951 . S
H520 C544 0.949 . S
H521 C546 0.949 . S
H522 C547 0.950 . S
H523 C549 0.950 . S
H524 C550 0.950 . S
H525 C552 0.950 . S
H526 C555 0.950 . S
H527 C556 0.950 . S
H528 C558 0.951 . S
H529 C559 0.949 . S
C530 C531 1.376 . S
C530 C535 1.386 . S
C530 C536 1.483 . S
C531 H512 0.949 . S
C531 C530 1.376 . S
C531 C532 1.397 . S
C532 H513 0.950 . S
C532 C531 1.397 . S
C532 C533 1.391 . S
C533 C532 1.391 . S
C533 C534 1.405 . S
C534 H514 0.950 . S
C534 C533 1.405 . S
C534 C535 1.367 . S
C535 H515 0.950 . S
C535 C530 1.386 . S
C535 C534 1.367 . S
C536 C530 1.483 . S
C536 C537 1.382 1_565 S
C536 C538 1.403 . S
C537 H516 0.950 . S
C537 C536 1.382 1_545 S
C537 C553 1.411 . S
C538 C536 1.403 . S
C538 C539 1.489 . S
C538 C552 1.411 1_565 S
C539 C538 1.489 . S
C539 C540 1.383 . S
C539 C544 1.382 . S
C540 H517 0.950 . S
C540 C539 1.383 . S
C540 C541 1.395 . S
C541 H518 0.950 . S
C541 C540 1.395 . S
C541 C542 1.288 . S
C542 C541 1.288 . S
C542 C543 1.392 . S
C543 H519 0.951 . S
C543 C542 1.392 . S
C543 C544 1.392 . S
C544 H520 0.949 . S
C544 C539 1.382 . S
C544 C543 1.392 . S
C545 C546 1.376 . S
C545 C550 1.386 . S
C545 C551 1.483 . S
C546 H521 0.949 . S
C546 C545 1.376 . S
C546 C547 1.397 . S
C547 H522 0.950 . S
C547 C546 1.397 . S
C547 C548 1.391 . S
C548 C547 1.391 . S
C548 C549 1.405 . S
C549 H523 0.950 . S
C549 C548 1.405 . S
C549 C550 1.367 . S
C550 H524 0.950 . S
C550 C545 1.386 . S
C550 C549 1.367 . S
C551 C545 1.483 . S
C551 C552 1.382 . S
C551 C553 1.403 . S
C552 H525 0.950 . S
C552 C538 1.411 1_545 S
C552 C551 1.382 . S
C553 C537 1.411 . S
C553 C551 1.403 . S
C553 C554 1.489 . S
C554 C553 1.489 . S
C554 C555 1.383 . S
C554 C559 1.382 . S
C555 H526 0.950 . S
C555 C554 1.383 . S
C555 C556 1.395 . S
C556 H527 0.950 . S
C556 C555 1.395 . S
C556 C557 1.288 . S
C557 C556 1.288 . S
C557 C558 1.392 . S
C558 H528 0.951 . S
C558 C557 1.392 . S
C558 C559 1.392 . S
C559 H529 0.949 . S
C559 C554 1.382 . S
C559 C558 1.392 . S
H560 C579 0.949 . S
H561 C580 0.950 . S
H562 C582 0.950 . S
H563 C583 0.950 . S
H564 C585 0.950 . S
H565 C588 0.950 . S
H566 C589 0.950 . S
H567 C591 0.951 . S
H568 C592 0.949 . S
H569 C594 0.949 . S
H570 C595 0.950 . S
H571 C597 0.950 . S
H572 C598 0.950 . S
H573 C600 0.950 . S
H574 C603 0.950 . S
H575 C604 0.950 . S
H576 C606 0.951 . S
H577 C607 0.949 . S
C578 C579 1.376 . S
C578 C583 1.386 . S
C578 C584 1.483 . S
C579 H560 0.949 . S
C579 C578 1.376 . S
C579 C580 1.397 . S
C580 H561 0.950 . S
C580 C579 1.397 . S
C580 C581 1.391 . S
C581 C580 1.391 . S
C581 C582 1.405 . S
C582 H562 0.950 . S
C582 C581 1.405 . S
C582 C583 1.367 . S
C583 H563 0.950 . S
C583 C578 1.386 . S
C583 C582 1.367 . S
C584 C578 1.483 . S
C584 C585 1.382 1_556 S
C584 C586 1.403 . S
C585 H564 0.950 . S
C585 C584 1.382 1_554 S
C585 C601 1.411 . S
C586 C584 1.403 . S
C586 C587 1.489 . S
C586 C600 1.411 1_556 S
C587 C586 1.489 . S
C587 C588 1.383 . S
C587 C592 1.382 . S
C588 H565 0.950 . S
C588 C587 1.383 . S
C588 C589 1.395 . S
C589 H566 0.950 . S
C589 C588 1.395 . S
C589 C590 1.288 . S
C590 C589 1.288 . S
C590 C591 1.392 . S
C591 H567 0.951 . S
C591 C590 1.392 . S
C591 C592 1.392 . S
C592 H568 0.949 . S
C592 C587 1.382 . S
C592 C591 1.392 . S
C593 C594 1.376 . S
C593 C598 1.386 . S
C593 C599 1.483 . S
C594 H569 0.949 . S
C594 C593 1.376 . S
C594 C595 1.397 . S
C595 H570 0.950 . S
C595 C594 1.397 . S
C595 C596 1.391 . S
C596 C595 1.391 . S
C596 C597 1.405 . S
C597 H571 0.950 . S
C597 C596 1.405 . S
C597 C598 1.367 . S
C598 H572 0.950 . S
C598 C593 1.386 . S
C598 C597 1.367 . S
C599 C593 1.483 . S
C599 C600 1.382 . S
C599 C601 1.403 . S
C600 H573 0.950 . S
C600 C586 1.411 1_554 S
C600 C599 1.382 . S
C601 C585 1.411 . S
C601 C599 1.403 . S
C601 C602 1.489 . S
C602 C601 1.489 . S
C602 C603 1.383 . S
C602 C607 1.382 . S
C603 H574 0.950 . S
C603 C602 1.383 . S
C603 C604 1.395 . S
C604 H575 0.950 . S
C604 C603 1.395 . S
C604 C605 1.288 . S
C605 C604 1.288 . S
C605 C606 1.392 . S
C606 H576 0.951 . S
C606 C605 1.392 . S
C606 C607 1.392 . S
C607 H577 0.949 . S
C607 C602 1.382 . S
C607 C606 1.392 . S
C608 C609 1.363 . S
C608 C614 1.379 . S
C608 N616 1.356 . S
C609 C608 1.363 . S
C609 C615 1.363 . S
C610 C611 1.363 . S
C610 C615 1.379 . S
C610 N617 1.356 . S
C611 C610 1.363 . S
C611 C614 1.363 . S
N612 C614 1.356 . S
N612 H624 0.984 . S
N612 H625 0.985 . S
N613 C615 1.356 . S
N613 H618 0.984 . S
N613 H619 0.985 . S
C614 C608 1.379 . S
C614 C611 1.363 . S
C614 N612 1.356 . S
C615 C609 1.363 . S
C615 C610 1.379 . S
C615 N613 1.356 . S
N616 C608 1.356 . S
N616 H622 0.984 . S
N616 H623 0.984 . S
N617 C610 1.356 . S
N617 H620 0.984 . S
N617 H621 0.985 . S
H618 N613 0.984 . S
H619 N613 0.985 . S
H620 N617 0.984 . S
H621 N617 0.985 . S
H622 N616 0.984 . S
H623 N616 0.984 . S
H624 N612 0.984 . S
H625 N612 0.985 . S
C626 C627 1.363 . S
C626 C632 1.379 . S
C626 N634 1.356 . S
C627 C626 1.363 . S
C627 C633 1.363 . S
C628 C629 1.363 . S
C628 C633 1.379 . S
C628 N635 1.356 . S
C629 C628 1.363 . S
C629 C632 1.363 . S
N630 C632 1.356 . S
N630 H642 0.984 . S
N630 H643 0.985 . S
N631 C633 1.356 . S
N631 H636 0.984 . S
N631 H637 0.985 . S
C632 C626 1.379 . S
C632 C629 1.363 . S
C632 N630 1.356 . S
C633 C627 1.363 . S
C633 C628 1.379 . S
C633 N631 1.356 . S
N634 C626 1.356 . S
N634 H640 0.984 . S
N634 H641 0.984 . S
N635 C628 1.356 . S
N635 H638 0.984 . S
N635 H639 0.985 . S
H636 N631 0.984 . S
H637 N631 0.985 . S
H638 N635 0.984 . S
H639 N635 0.985 . S
H640 N634 0.984 . S
H641 N634 0.984 . S
H642 N630 0.984 . S
H643 N630 0.985 . S
C644 C645 1.363 . S
C644 C650 1.379 . S
C644 N652 1.356 . S
C645 C644 1.363 . S
C645 C651 1.363 . S
C646 C647 1.363 . S
C646 C651 1.379 . S
C646 N653 1.356 . S
C647 C646 1.363 . S
C647 C650 1.363 . S
N648 C650 1.356 . S
N648 H660 0.984 . S
N648 H661 0.985 . S
N649 C651 1.356 . S
N649 H654 0.984 . S
N649 H655 0.985 . S
C650 C644 1.379 . S
C650 C647 1.363 . S
C650 N648 1.356 . S
C651 C645 1.363 . S
C651 C646 1.379 . S
C651 N649 1.356 . S
N652 C644 1.356 . S
N652 H658 0.984 . S
N652 H659 0.984 . S
N653 C646 1.356 . S
N653 H656 0.984 . S
N653 H657 0.985 . S
H654 N649 0.984 . S
H655 N649 0.985 . S
H656 N653 0.984 . S
H657 N653 0.985 . S
H658 N652 0.984 . S
H659 N652 0.984 . S
H660 N648 0.984 . S
H661 N648 0.985 . S
C662 C663 1.363 . S
C662 C668 1.379 . S
C662 N670 1.356 . S
C663 C662 1.363 . S
C663 C669 1.363 . S
C664 C665 1.363 . S
C664 C669 1.379 . S
C664 N671 1.356 . S
C665 C664 1.363 . S
C665 C668 1.363 . S
N666 C668 1.356 . S
N666 H678 0.984 . S
N666 H679 0.985 . S
N667 C669 1.356 . S
N667 H672 0.984 . S
N667 H673 0.985 . S
C668 C662 1.379 . S
C668 C665 1.363 . S
C668 N666 1.356 . S
C669 C663 1.363 . S
C669 C664 1.379 . S
C669 N667 1.356 . S
N670 C662 1.356 . S
N670 H676 0.984 . S
N670 H677 0.984 . S
N671 C664 1.356 . S
N671 H674 0.984 . S
N671 H675 0.985 . S
H672 N667 0.984 . S
H673 N667 0.985 . S
H674 N671 0.984 . S
H675 N671 0.985 . S
H676 N670 0.984 . S
H677 N670 0.984 . S
H678 N666 0.984 . S
H679 N666 0.985 . S
C680 C681 1.363 . S
C680 C686 1.379 . S
C680 N688 1.356 . S
C681 C680 1.363 . S
C681 C687 1.363 . S
C682 C683 1.363 . S
C682 C687 1.379 . S
C682 N689 1.356 . S
C683 C682 1.363 . S
C683 C686 1.363 . S
N684 C686 1.356 . S
N684 H696 0.984 . S
N684 H697 0.985 . S
N685 C687 1.356 . S
N685 H690 0.984 . S
N685 H691 0.985 . S
C686 C680 1.379 . S
C686 C683 1.363 . S
C686 N684 1.356 . S
C687 C681 1.363 . S
C687 C682 1.379 . S
C687 N685 1.356 . S
N688 C680 1.356 . S
N688 H694 0.984 . S
N688 H695 0.984 . S
N689 C682 1.356 . S
N689 H692 0.984 . S
N689 H693 0.985 . S
H690 N685 0.984 . S
H691 N685 0.985 . S
H692 N689 0.984 . S
H693 N689 0.985 . S
H694 N688 0.984 . S
H695 N688 0.984 . S
H696 N684 0.984 . S
H697 N684 0.985 . S
C698 C699 1.363 . S
C698 C704 1.379 . S
C698 N706 1.356 . S
C699 C698 1.363 . S
C699 C705 1.363 . S
C700 C701 1.363 . S
C700 C705 1.379 . S
C700 N707 1.356 . S
C701 C700 1.363 . S
C701 C704 1.363 . S
N702 C704 1.356 . S
N702 H714 0.984 . S
N702 H715 0.985 . S
N703 C705 1.356 . S
N703 H708 0.984 . S
N703 H709 0.985 . S
C704 C698 1.379 . S
C704 C701 1.363 . S
C704 N702 1.356 . S
C705 C699 1.363 . S
C705 C700 1.379 . S
C705 N703 1.356 . S
N706 C698 1.356 . S
N706 H712 0.984 . S
N706 H713 0.984 . S
N707 C700 1.356 . S
N707 H710 0.984 . S
N707 H711 0.985 . S
H708 N703 0.984 . S
H709 N703 0.985 . S
H710 N707 0.984 . S
H711 N707 0.985 . S
H712 N706 0.984 . S
H713 N706 0.984 . S
H714 N702 0.984 . S
H715 N702 0.985 . S
C716 C717 1.363 . S
C716 C722 1.379 . S
C716 N724 1.356 . S
C717 C716 1.363 . S
C717 C723 1.363 . S
C718 C719 1.363 . S
C718 C723 1.379 . S
C718 N725 1.356 . S
C719 C718 1.363 . S
C719 C722 1.363 . S
N720 C722 1.356 . S
N720 H732 0.984 . S
N720 H733 0.985 . S
N721 C723 1.356 . S
N721 H726 0.984 . S
N721 H727 0.985 . S
C722 C716 1.379 . S
C722 C719 1.363 . S
C722 N720 1.356 . S
C723 C717 1.363 . S
C723 C718 1.379 . S
C723 N721 1.356 . S
N724 C716 1.356 . S
N724 H730 0.984 . S
N724 H731 0.984 . S
N725 C718 1.356 . S
N725 H728 0.984 . S
N725 H729 0.985 . S
H726 N721 0.984 . S
H727 N721 0.985 . S
H728 N725 0.984 . S
H729 N725 0.985 . S
H730 N724 0.984 . S
H731 N724 0.984 . S
H732 N720 0.984 . S
H733 N720 0.985 . S
C734 C735 1.363 . S
C734 C740 1.379 . S
C734 N742 1.356 . S
C735 C734 1.363 . S
C735 C741 1.363 . S
C736 C737 1.363 . S
C736 C741 1.379 . S
C736 N743 1.356 . S
C737 C736 1.363 . S
C737 C740 1.363 . S
N738 C740 1.356 . S
N738 H750 0.984 . S
N738 H751 0.985 . S
N739 C741 1.356 . S
N739 H744 0.984 . S
N739 H745 0.985 . S
C740 C734 1.379 . S
C740 C737 1.363 . S
C740 N738 1.356 . S
C741 C735 1.363 . S
C741 C736 1.379 . S
C741 N739 1.356 . S
N742 C734 1.356 . S
N742 H748 0.984 . S
N742 H749 0.984 . S
N743 C736 1.356 . S
N743 H746 0.984 . S
N743 H747 0.985 . S
H744 N739 0.984 . S
H745 N739 0.985 . S
H746 N743 0.984 . S
H747 N743 0.985 . S
H748 N742 0.984 . S
H749 N742 0.984 . S
H750 N738 0.984 . S
H751 N738 0.985 . S
C752 C753 1.363 . S
C752 C758 1.379 . S
C752 N760 1.356 . S
C753 C752 1.363 . S
C753 C759 1.363 . S
C754 C755 1.363 . S
C754 C759 1.379 . S
C754 N761 1.356 . S
C755 C754 1.363 . S
C755 C758 1.363 . S
N756 C758 1.356 . S
N756 H768 0.984 . S
N756 H769 0.985 . S
N757 C759 1.356 . S
N757 H762 0.984 . S
N757 H763 0.985 . S
C758 C752 1.379 . S
C758 C755 1.363 . S
C758 N756 1.356 . S
C759 C753 1.363 . S
C759 C754 1.379 . S
C759 N757 1.356 . S
N760 C752 1.356 . S
N760 H766 0.984 . S
N760 H767 0.984 . S
N761 C754 1.356 . S
N761 H764 0.984 . S
N761 H765 0.985 . S
H762 N757 0.984 . S
H763 N757 0.985 . S
H764 N761 0.984 . S
H765 N761 0.985 . S
H766 N760 0.984 . S
H767 N760 0.984 . S
H768 N756 0.984 . S
H769 N756 0.985 . S
C770 C771 1.363 . S
C770 C776 1.379 . S
C770 N778 1.356 . S
C771 C770 1.363 . S
C771 C777 1.363 . S
C772 C773 1.363 . S
C772 C777 1.379 . S
C772 N779 1.356 . S
C773 C772 1.363 . S
C773 C776 1.363 . S
N774 C776 1.356 . S
N774 H786 0.984 . S
N774 H787 0.985 . S
N775 C777 1.356 . S
N775 H780 0.984 . S
N775 H781 0.985 . S
C776 C770 1.379 . S
C776 C773 1.363 . S
C776 N774 1.356 . S
C777 C771 1.363 . S
C777 C772 1.379 . S
C777 N775 1.356 . S
N778 C770 1.356 . S
N778 H784 0.984 . S
N778 H785 0.984 . S
N779 C772 1.356 . S
N779 H782 0.984 . S
N779 H783 0.985 . S
H780 N775 0.984 . S
H781 N775 0.985 . S
H782 N779 0.984 . S
H783 N779 0.985 . S
H784 N778 0.984 . S
H785 N778 0.984 . S
H786 N774 0.984 . S
H787 N774 0.985 . S
C788 C789 1.363 . S
C788 C794 1.379 . S
C788 N796 1.356 . S
C789 C788 1.363 . S
C789 C795 1.363 . S
C790 C791 1.363 . S
C790 C795 1.379 . S
C790 N797 1.356 . S
C791 C790 1.363 . S
C791 C794 1.363 . S
N792 C794 1.356 . S
N792 H804 0.984 . S
N792 H805 0.985 . S
N793 C795 1.356 . S
N793 H798 0.984 . S
N793 H799 0.985 . S
C794 C788 1.379 . S
C794 C791 1.363 . S
C794 N792 1.356 . S
C795 C789 1.363 . S
C795 C790 1.379 . S
C795 N793 1.356 . S
N796 C788 1.356 . S
N796 H802 0.984 . S
N796 H803 0.984 . S
N797 C790 1.356 . S
N797 H800 0.984 . S
N797 H801 0.985 . S
H798 N793 0.984 . S
H799 N793 0.985 . S
H800 N797 0.984 . S
H801 N797 0.985 . S
H802 N796 0.984 . S
H803 N796 0.984 . S
H804 N792 0.984 . S
H805 N792 0.985 . S
C806 C807 1.363 . S
C806 C812 1.379 . S
C806 N814 1.356 . S
C807 C806 1.363 . S
C807 C813 1.363 . S
C808 C809 1.363 . S
C808 C813 1.379 . S
C808 N815 1.356 . S
C809 C808 1.363 . S
C809 C812 1.363 . S
N810 C812 1.356 . S
N810 H822 0.984 . S
N810 H823 0.985 . S
N811 C813 1.356 . S
N811 H816 0.984 . S
N811 H817 0.985 . S
C812 C806 1.379 . S
C812 C809 1.363 . S
C812 N810 1.356 . S
C813 C807 1.363 . S
C813 C808 1.379 . S
C813 N811 1.356 . S
N814 C806 1.356 . S
N814 H820 0.984 . S
N814 H821 0.984 . S
N815 C808 1.356 . S
N815 H818 0.984 . S
N815 H819 0.985 . S
H816 N811 0.984 . S
H817 N811 0.985 . S
H818 N815 0.984 . S
H819 N815 0.985 . S
H820 N814 0.984 . S
H821 N814 0.984 . S
H822 N810 0.984 . S
H823 N810 0.985 . S
C824 C825 1.363 . S
C824 C830 1.379 . S
C824 N832 1.356 . S
C825 C824 1.363 . S
C825 C831 1.363 . S
C826 C827 1.363 . S
C826 C831 1.379 . S
C826 N833 1.356 . S
C827 C826 1.363 . S
C827 C830 1.363 . S
N828 C830 1.356 . S
N828 H840 0.984 . S
N828 H841 0.985 . S
N829 C831 1.356 . S
N829 H834 0.984 . S
N829 H835 0.985 . S
C830 C824 1.379 . S
C830 C827 1.363 . S
C830 N828 1.356 . S
C831 C825 1.363 . S
C831 C826 1.379 . S
C831 N829 1.356 . S
N832 C824 1.356 . S
N832 H838 0.984 . S
N832 H839 0.984 . S
N833 C826 1.356 . S
N833 H836 0.984 . S
N833 H837 0.985 . S
H834 N829 0.984 . S
H835 N829 0.985 . S
H836 N833 0.984 . S
H837 N833 0.985 . S
H838 N832 0.984 . S
H839 N832 0.984 . S
H840 N828 0.984 . S
H841 N828 0.985 . S
C842 C843 1.363 . S
C842 C848 1.379 . S
C842 N850 1.356 . S
C843 C842 1.363 . S
C843 C849 1.363 . S
C844 C845 1.363 . S
C844 C849 1.379 . S
C844 N851 1.356 . S
C845 C844 1.363 . S
C845 C848 1.363 . S
N846 C848 1.356 . S
N846 H858 0.984 . S
N846 H859 0.985 . S
N847 C849 1.356 . S
N847 H852 0.984 . S
N847 H853 0.985 . S
C848 C842 1.379 . S
C848 C845 1.363 . S
C848 N846 1.356 . S
C849 C843 1.363 . S
C849 C844 1.379 . S
C849 N847 1.356 . S
N850 C842 1.356 . S
N850 H856 0.984 . S
N850 H857 0.984 . S
N851 C844 1.356 . S
N851 H854 0.984 . S
N851 H855 0.985 . S
H852 N847 0.984 . S
H853 N847 0.985 . S
H854 N851 0.984 . S
H855 N851 0.985 . S
H856 N850 0.984 . S
H857 N850 0.984 . S
H858 N846 0.984 . S
H859 N846 0.985 . S
C860 C861 1.363 . S
C860 C866 1.379 . S
C860 N868 1.356 . S
C861 C860 1.363 . S
C861 C867 1.363 . S
C862 C863 1.363 . S
C862 C867 1.379 . S
C862 N869 1.356 . S
C863 C862 1.363 . S
C863 C866 1.363 . S
N864 C866 1.356 . S
N864 H876 0.984 . S
N864 H877 0.985 . S
N865 C867 1.356 . S
N865 H870 0.984 . S
N865 H871 0.985 . S
C866 C860 1.379 . S
C866 C863 1.363 . S
C866 N864 1.356 . S
C867 C861 1.363 . S
C867 C862 1.379 . S
C867 N865 1.356 . S
N868 C860 1.356 . S
N868 H874 0.984 . S
N868 H875 0.984 . S
N869 C862 1.356 . S
N869 H872 0.984 . S
N869 H873 0.985 . S
H870 N865 0.984 . S
H871 N865 0.985 . S
H872 N869 0.984 . S
H873 N869 0.985 . S
H874 N868 0.984 . S
H875 N868 0.984 . S
H876 N864 0.984 . S
H877 N864 0.985 . S
C878 C879 1.363 . S
C878 C884 1.379 . S
C878 N886 1.356 . S
C879 C878 1.363 . S
C879 C885 1.363 . S
C880 C881 1.363 . S
C880 C885 1.379 . S
C880 N887 1.356 . S
C881 C880 1.363 . S
C881 C884 1.363 . S
N882 C884 1.356 . S
N882 H894 0.984 . S
N882 H895 0.985 . S
N883 C885 1.356 . S
N883 H888 0.984 . S
N883 H889 0.985 . S
C884 C878 1.379 . S
C884 C881 1.363 . S
C884 N882 1.356 . S
C885 C879 1.363 . S
C885 C880 1.379 . S
C885 N883 1.356 . S
N886 C878 1.356 . S
N886 H892 0.984 . S
N886 H893 0.984 . S
N887 C880 1.356 . S
N887 H890 0.984 . S
N887 H891 0.985 . S
H888 N883 0.984 . S
H889 N883 0.985 . S
H890 N887 0.984 . S
H891 N887 0.985 . S
H892 N886 0.984 . S
H893 N886 0.984 . S
H894 N882 0.984 . S
H895 N882 0.985 . S
C896 C897 1.363 . S
C896 C902 1.379 . S
C896 N904 1.356 . S
C897 C896 1.363 . S
C897 C903 1.363 . S
C898 C899 1.363 . S
C898 C903 1.379 . S
C898 N905 1.356 . S
C899 C898 1.363 . S
C899 C902 1.363 . S
N900 C902 1.356 . S
N900 H912 0.984 . S
N900 H913 0.985 . S
N901 C903 1.356 . S
N901 H906 0.984 . S
N901 H907 0.985 . S
C902 C896 1.379 . S
C902 C899 1.363 . S
C902 N900 1.356 . S
C903 C897 1.363 . S
C903 C898 1.379 . S
C903 N901 1.356 . S
N904 C896 1.356 . S
N904 H910 0.984 . S
N904 H911 0.984 . S
N905 C898 1.356 . S
N905 H908 0.984 . S
N905 H909 0.985 . S
H906 N901 0.984 . S
H907 N901 0.985 . S
H908 N905 0.984 . S
H909 N905 0.985 . S
H910 N904 0.984 . S
H911 N904 0.984 . S
H912 N900 0.984 . S
H913 N900 0.985 . S
C914 C915 1.363 . S
C914 C920 1.379 . S
C914 N922 1.356 . S
C915 C914 1.363 . S
C915 C921 1.363 . S
C916 C917 1.363 . S
C916 C921 1.379 . S
C916 N923 1.356 . S
C917 C916 1.363 . S
C917 C920 1.363 . S
N918 C920 1.356 . S
N918 H930 0.984 . S
N918 H931 0.985 . S
N919 C921 1.356 . S
N919 H924 0.984 . S
N919 H925 0.985 . S
C920 C914 1.379 . S
C920 C917 1.363 . S
C920 N918 1.356 . S
C921 C915 1.363 . S
C921 C916 1.379 . S
C921 N919 1.356 . S
N922 C914 1.356 . S
N922 H928 0.984 . S
N922 H929 0.984 . S
N923 C916 1.356 . S
N923 H926 0.984 . S
N923 H927 0.985 . S
H924 N919 0.984 . S
H925 N919 0.985 . S
H926 N923 0.984 . S
H927 N923 0.985 . S
H928 N922 0.984 . S
H929 N922 0.984 . S
H930 N918 0.984 . S
H931 N918 0.985 . S
C932 C933 1.363 . S
C932 C938 1.379 . S
C932 N940 1.356 . S
C933 C932 1.363 . S
C933 C939 1.363 . S
C934 C935 1.363 . S
C934 C939 1.379 . S
C934 N941 1.356 . S
C935 C934 1.363 . S
C935 C938 1.363 . S
N936 C938 1.356 . S
N936 H948 0.984 . S
N936 H949 0.985 . S
N937 C939 1.356 . S
N937 H942 0.984 . S
N937 H943 0.985 . S
C938 C932 1.379 . S
C938 C935 1.363 . S
C938 N936 1.356 . S
C939 C933 1.363 . S
C939 C934 1.379 . S
C939 N937 1.356 . S
N940 C932 1.356 . S
N940 H946 0.984 . S
N940 H947 0.984 . S
N941 C934 1.356 . S
N941 H944 0.984 . S
N941 H945 0.985 . S
H942 N937 0.984 . S
H943 N937 0.985 . S
H944 N941 0.984 . S
H945 N941 0.985 . S
H946 N940 0.984 . S
H947 N940 0.984 . S
H948 N936 0.984 . S
H949 N936 0.985 . S
C950 C951 1.363 . S
C950 C956 1.379 . S
C950 N958 1.356 . S
C951 C950 1.363 . S
C951 C957 1.363 . S
C952 C953 1.363 . S
C952 C957 1.379 . S
C952 N959 1.356 . S
C953 C952 1.363 . S
C953 C956 1.363 . S
N954 C956 1.356 . S
N954 H966 0.984 . S
N954 H967 0.985 . S
N955 C957 1.356 . S
N955 H960 0.984 . S
N955 H961 0.985 . S
C956 C950 1.379 . S
C956 C953 1.363 . S
C956 N954 1.356 . S
C957 C951 1.363 . S
C957 C952 1.379 . S
C957 N955 1.356 . S
N958 C950 1.356 . S
N958 H964 0.984 . S
N958 H965 0.984 . S
N959 C952 1.356 . S
N959 H962 0.984 . S
N959 H963 0.985 . S
H960 N955 0.984 . S
H961 N955 0.985 . S
H962 N959 0.984 . S
H963 N959 0.985 . S
H964 N958 0.984 . S
H965 N958 0.984 . S
H966 N954 0.984 . S
H967 N954 0.985 . S
C968 C969 1.363 . S
C968 C974 1.379 . S
C968 N976 1.356 . S
C969 C968 1.363 . S
C969 C975 1.363 . S
C970 C971 1.363 . S
C970 C975 1.379 . S
C970 N977 1.356 . S
C971 C970 1.363 . S
C971 C974 1.363 . S
N972 C974 1.356 . S
N972 H984 0.984 . S
N972 H985 0.985 . S
N973 C975 1.356 . S
N973 H978 0.984 . S
N973 H979 0.985 . S
C974 C968 1.379 . S
C974 C971 1.363 . S
C974 N972 1.356 . S
C975 C969 1.363 . S
C975 C970 1.379 . S
C975 N973 1.356 . S
N976 C968 1.356 . S
N976 H982 0.984 . S
N976 H983 0.984 . S
N977 C970 1.356 . S
N977 H980 0.984 . S
N977 H981 0.985 . S
H978 N973 0.984 . S
H979 N973 0.985 . S
H980 N977 0.984 . S
H981 N977 0.985 . S
H982 N976 0.984 . S
H983 N976 0.984 . S
H984 N972 0.984 . S
H985 N972 0.985 . S
C986 C987 1.363 . S
C986 C992 1.379 . S
C986 N994 1.356 . S
C987 C986 1.363 . S
C987 C993 1.363 . S
C988 C989 1.363 . S
C988 C993 1.379 . S
C988 N995 1.356 . S
C989 C988 1.363 . S
C989 C992 1.363 . S
N990 C992 1.356 . S
N990 H1002 0.984 . S
N990 H1003 0.985 . S
N991 C993 1.356 . S
N991 H996 0.984 . S
N991 H997 0.985 . S
C992 C986 1.379 . S
C992 C989 1.363 . S
C992 N990 1.356 . S
C993 C987 1.363 . S
C993 C988 1.379 . S
C993 N991 1.356 . S
N994 C986 1.356 . S
N994 H1000 0.984 . S
N994 H1001 0.984 . S
N995 C988 1.356 . S
N995 H998 0.984 . S
N995 H999 0.985 . S
H996 N991 0.984 . S
H997 N991 0.985 . S
H998 N995 0.984 . S
H999 N995 0.985 . S
H1000 N994 0.984 . S
H1001 N994 0.984 . S
H1002 N990 0.984 . S
H1003 N990 0.985 . S
C1004 C1005 1.363 . S
C1004 C1010 1.379 . S
C1004 N1012 1.356 . S
C1005 C1004 1.363 . S
C1005 C1011 1.363 . S
C1006 C1007 1.363 . S
C1006 C1011 1.379 . S
C1006 N1013 1.356 . S
C1007 C1006 1.363 . S
C1007 C1010 1.363 . S
N1008 C1010 1.356 . S
N1008 H1020 0.984 . S
N1008 H1021 0.985 . S
N1009 C1011 1.356 . S
N1009 H1014 0.984 . S
N1009 H1015 0.985 . S
C1010 C1004 1.379 . S
C1010 C1007 1.363 . S
C1010 N1008 1.356 . S
C1011 C1005 1.363 . S
C1011 C1006 1.379 . S
C1011 N1009 1.356 . S
N1012 C1004 1.356 . S
N1012 H1018 0.984 . S
N1012 H1019 0.984 . S
N1013 C1006 1.356 . S
N1013 H1016 0.984 . S
N1013 H1017 0.985 . S
H1014 N1009 0.984 . S
H1015 N1009 0.985 . S
H1016 N1013 0.984 . S
H1017 N1013 0.985 . S
H1018 N1012 0.984 . S
H1019 N1012 0.984 . S
H1020 N1008 0.984 . S
H1021 N1008 0.985 . S
C1022 C1023 1.363 . S
C1022 C1028 1.379 . S
C1022 N1030 1.356 . S
C1023 C1022 1.363 . S
C1023 C1029 1.363 . S
C1024 C1025 1.363 . S
C1024 C1029 1.379 . S
C1024 N1031 1.356 . S
C1025 C1024 1.363 . S
C1025 C1028 1.363 . S
N1026 C1028 1.356 . S
N1026 H1038 0.984 . S
N1026 H1039 0.985 . S
N1027 C1029 1.356 . S
N1027 H1032 0.984 . S
N1027 H1033 0.985 . S
C1028 C1022 1.379 . S
C1028 C1025 1.363 . S
C1028 N1026 1.356 . S
C1029 C1023 1.363 . S
C1029 C1024 1.379 . S
C1029 N1027 1.356 . S
N1030 C1022 1.356 . S
N1030 H1036 0.984 . S
N1030 H1037 0.984 . S
N1031 C1024 1.356 . S
N1031 H1034 0.984 . S
N1031 H1035 0.985 . S
H1032 N1027 0.984 . S
H1033 N1027 0.985 . S
H1034 N1031 0.984 . S
H1035 N1031 0.985 . S
H1036 N1030 0.984 . S
H1037 N1030 0.984 . S
H1038 N1026 0.984 . S
H1039 N1026 0.985 . S
C611 C350 1.582 . S
C609 C15 1.581 . S
C629 C389 1.598 . S
C627 C55 1.607 . S
C647 C365 1.588 . S
C645 C101 1.601 . S
C665 C404 1.628 . S
C663 C141 1.640 . S
C683 C452 1.556 . S
C681 C2 1.531 . S
C701 C485 1.541 . S
C699 C61 1.512 . S
C717 C95 1.693 . S
C719 C542 1.706 . S
C737 C590 1.543 . S
C735 C135 1.538 . S
C755 C437 1.565 . S
C753 C42 1.525 . S
C771 C82 1.521 . S
C773 C500 1.552 . S
C791 C557 1.641 . S
C789 C122 1.718 . S
C809 C605 1.535 . S
C807 C21 1.519 . S
C825 C162 1.641 . S
C827 C398 1.603 . S
C845 C341 1.601 . S
C843 C221 1.612 . S
C861 C255 1.607 . S
C863 C413 1.605 . S
C879 C282 1.557 . S
C881 C356 1.577 . S
C899 C533 1.675 . S
C897 C181 1.731 . S
C917 C596 1.554 . S
C915 C202 1.554 . S
C935 C461 1.581 . S
C933 C242 1.576 . S
C951 C301 1.521 . S
C953 C509 1.554 . S
C971 C548 1.687 . S
C969 C215 1.701 . S
C989 C581 1.537 . S
C987 C261 1.550 . S
C1007 C446 1.537 . S
C1005 C295 1.564 . S
C1023 C175 1.543 . S
C1025 C494 1.529 . S
