# Generated by pormake.
# Topology rtl, (3,6)-cn, num edge types: 1
# Building blocks:
#     Node 0, Type 0, BuildingBlock: ESEHIV_clean_linker_0, # of connection points: 3
#     Node 1, Type 0, BuildingBlock: ESEHIV_clean_linker_0, # of connection points: 3
#     Node 2, Type 0, BuildingBlock: ESEHIV_clean_linker_0, # of connection points: 3
#     Node 3, Type 0, BuildingBlock: ESEHIV_clean_linker_0, # of connection points: 3
#     Node 4, Type 1, BuildingBlock: VOLQOD_clean_sbu_1, # of connection points: 6
#     Node 5, Type 1, BuildingBlock: VOLQOD_clean_sbu_1, # of connection points: 6
#     Edge 6, Type (0, 1), BuildingBlock: XUDNAN_clean_linker_2, # of connection points: 2
#     Edge 7, Type (0, 1), BuildingBlock: XUDNAN_clean_linker_2, # of connection points: 2
#     Edge 8, Type (0, 1), BuildingBlock: XUDNAN_clean_linker_2, # of connection points: 2
#     Edge 9, Type (0, 1), BuildingBlock: XUDNAN_clean_linker_2, # of connection points: 2
#     Edge 10, Type (0, 1), BuildingBlock: XUDNAN_clean_linker_2, # of connection points: 2
#     Edge 11, Type (0, 1), BuildingBlock: XUDNAN_clean_linker_2, # of connection points: 2
#     Edge 12, Type (0, 1), BuildingBlock: XUDNAN_clean_linker_2, # of connection points: 2
#     Edge 13, Type (0, 1), BuildingBlock: XUDNAN_clean_linker_2, # of connection points: 2
#     Edge 14, Type (0, 1), BuildingBlock: XUDNAN_clean_linker_2, # of connection points: 2
#     Edge 15, Type (0, 1), BuildingBlock: XUDNAN_clean_linker_2, # of connection points: 2
#     Edge 16, Type (0, 1), BuildingBlock: XUDNAN_clean_linker_2, # of connection points: 2
#     Edge 17, Type (0, 1), BuildingBlock: XUDNAN_clean_linker_2, # of connection points: 2
# Relax obj value: 0.079
# Max RMSD: 0.156
# Mean RMSD: 0.088
data_MOF--net-rtl--node1-VOLQOD_clean_sbu_1--node2-ESEHIV_clean_linker_0--edge1-XUDNAN_clean_linker_2
_symmetry_space_group_name_H-M    P1
_symmetry_Int_Tables_number       1
_symmetry_cell_setting            triclinic
loop_
_symmetry_equiv_pos_as_xyz
'x, y, z'
_cell_length_a     34.71722
_cell_length_b     30.181295
_cell_length_c     22.693346
_cell_angle_alpha  90.079984
_cell_angle_beta   90.154301
_cell_angle_gamma 89.785298
loop_
_atom_site_label
_atom_site_type_symbol
_atom_site_fract_x
_atom_site_fract_y
_atom_site_fract_z
_atom_type_partial_charge
H0 H 0.06839 0.78607 0.02177 0.0
H1 H 0.15247 0.70777 0.11343 0.0
H2 H 0.13269 0.68721 0.92757 0.0
C3 C 0.08878 0.75873 0.02171 0.0
C4 C 0.09718 0.73663 0.96887 0.0
C5 C 0.10868 0.74843 0.0736 0.0
C6 C 0.13643 0.71459 0.07341 0.0
C7 C 0.14499 0.69151 0.02096 0.0
C8 C 0.12477 0.70255 0.96903 0.0
H9 H 0.57783 0.72871 0.49834 0.0
H10 H 0.66355 0.81317 0.42144 0.0
H11 H 0.64642 0.81412 0.6083 0.0
C12 C 0.59974 0.75387 0.50307 0.0
C13 C 0.60869 0.77037 0.5595 0.0
C14 C 0.61984 0.76833 0.45298 0.0
C15 C 0.64831 0.80091 0.45968 0.0
C16 C 0.65777 0.81765 0.51546 0.0
C17 C 0.63781 0.80245 0.56508 0.0
H18 H 0.94928 0.26176 0.05721 0.0
H19 H 0.84038 0.31162 0.11624 0.0
H20 H 0.85953 0.29008 0.93188 0.0
C21 C 0.92003 0.27171 0.04727 0.0
C22 C 0.90653 0.26966 0.989 0.0
C23 C 0.89521 0.28195 0.09405 0.0
C24 C 0.85943 0.30152 0.08097 0.0
C25 C 0.84803 0.3077 0.02194 0.0
C26 C 0.87071 0.28958 0.9764 0.0
H27 H 0.4342 0.28607 0.50759 0.0
H28 H 0.3725 0.18672 0.60392 0.0
H29 H 0.35306 0.20345 0.41746 0.0
C30 C 0.4146 0.25817 0.50832 0.0
C31 C 0.3952 0.24628 0.45665 0.0
C32 C 0.4067 0.23663 0.56165 0.0
C33 C 0.38012 0.2017 0.5622 0.0
C34 C 0.36048 0.1892 0.51042 0.0
C35 C 0.36857 0.21159 0.45753 0.0
O36 O 0.91297 0.01356 0.54319 0.0
Zn37 Zn 0.9614 0.05 0.54343 0.0
O38 O 0.00589 0.01157 0.52848 0.0
Zn39 Zn 0.03949 0.01254 0.59663 0.0
Zn40 Zn 0.98967 0.95008 0.51261 0.0
Zn41 Zn 0.0345 0.03485 0.46217 0.0
O42 O 0.09382 0.02808 0.5756 0.0
O43 O 0.08772 0.05536 0.48532 0.0
O44 O 0.96589 0.08233 0.62085 0.0
O45 O 0.02117 0.0565 0.65644 0.0
O46 O 0.04008 0.95401 0.63622 0.0
O47 O 0.00684 0.90858 0.57861 0.0
O48 O 0.01254 0.92706 0.43557 0.0
O49 O 0.9555 0.09677 0.48089 0.0
O50 O 0.043 0.98679 0.40313 0.0
O51 O 0.00583 0.0846 0.42274 0.0
C52 C 0.90509 0.97416 0.52694 0.0
C53 C 0.1081 0.04708 0.53074 0.0
C54 C 0.02647 0.91585 0.62517 0.0
C55 C 0.99173 0.08151 0.6607 0.0
C56 C 0.03358 0.9463 0.3974 0.0
C57 C 0.97532 0.10607 0.43553 0.0
O58 O 0.93139 0.94716 0.51062 0.0
O59 O 0.59219 0.50121 0.98659 0.0
Zn60 Zn 0.54686 0.5418 -0.0024 0.0
O61 O 0.49985 0.50877 0.00668 0.0
Zn62 Zn 0.46928 0.51523 0.93529 0.0
Zn63 Zn 0.51312 0.44632 0.02004 0.0
Zn64 Zn 0.47116 0.53328 0.073 0.0
O65 O 0.41492 0.53303 0.95552 0.0
O66 O 0.41964 0.55831 0.04733 0.0
O67 O 0.54331 0.58398 0.92999 0.0
O68 O 0.49088 0.56249 0.88142 0.0
O69 O 0.46729 0.45777 0.89141 0.0
O70 O 0.49368 0.40869 0.95238 0.0
O71 O 0.48894 0.42386 0.09541 0.0
O72 O 0.55711 0.57847 0.06882 0.0
O73 O 0.45853 0.48391 0.12849 0.0
O74 O 0.50222 0.57886 0.11867 0.0
C75 C 0.59817 0.46116 0.00181 0.0
C76 C 0.40017 0.5519 0.0004 0.0
C77 C 0.47712 0.41816 0.90378 0.0
C78 C 0.52002 0.58767 0.88697 0.0
C79 C 0.46721 0.443 0.13291 0.0
C80 C 0.53689 0.59173 0.11207 0.0
O81 O 0.57102 0.43692 0.02126 0.0
H82 H 0.29059 0.19373 0.45375 0.0
H83 H 0.35668 0.11266 0.5758 0.0
H84 H 0.29985 0.06504 0.5908 0.0
H85 H 0.20431 0.1925 0.5286 0.0
H86 H 0.17391 0.18877 0.46427 0.0
H87 H 0.22054 0.21421 0.45901 0.0
H88 H 0.23964 0.15981 0.37551 0.0
H89 H 0.1928 0.1345 0.3799 0.0
H90 H 0.2356 0.10097 0.38743 0.0
H91 H 0.23401 0.03165 0.60064 0.0
H92 H 0.16527 0.01089 0.59843 0.0
H93 H 0.14371 0.111 0.46512 0.0
C94 C 0.2937 0.16516 0.48217 0.0
C95 C 0.32824 0.15699 0.51357 0.0
C96 C 0.33043 0.11991 0.55173 0.0
C97 C 0.29839 0.09253 0.56029 0.0
C98 C 0.26457 0.10226 0.52969 0.0
C99 C 0.26222 0.13724 0.49065 0.0
C100 C 0.22212 0.14167 0.4649 0.0
C101 C 0.20418 0.18697 0.48014 0.0
C102 C 0.22258 0.13375 0.39796 0.0
C103 C 0.20196 0.10444 0.49678 0.0
C104 C 0.22693 0.08211 0.53397 0.0
C105 C 0.21434 0.04837 0.57094 0.0
C106 C 0.17523 0.03702 0.56964 0.0
C107 C 0.14927 0.05915 0.53132 0.0
C108 C 0.163 0.09306 0.49419 0.0
H109 H 0.21535 0.69829 0.07654 0.0
H110 H 0.15022 0.61422 0.95726 0.0
H111 H 0.20811 0.56812 0.94129 0.0
H112 H 0.30147 0.69813 -0.00038 0.0
H113 H 0.33245 0.69556 0.0634 0.0
H114 H 0.28534 0.72022 0.06922 0.0
H115 H 0.26801 0.66634 0.15379 0.0
H116 H 0.31533 0.64188 0.14889 0.0
H117 H 0.27319 0.60747 0.14261 0.0
H118 H 0.27452 0.53633 0.93 0.0
H119 H 0.34345 0.51593 0.93226 0.0
H120 H 0.3642 0.61736 0.06422 0.0
C121 C 0.21276 0.66942 0.04848 0.0
C122 C 0.17809 0.66005 0.01802 0.0
C123 C 0.17652 0.6225 0.98049 0.0
C124 C 0.2092 0.59597 0.97133 0.0
C125 C 0.24311 0.60695 0.00075 0.0
C126 C 0.24495 0.64226 0.03942 0.0
C127 C 0.28521 0.64763 0.06434 0.0
C128 C 0.30209 0.69308 0.04815 0.0
C129 C 0.28544 0.64039 0.13139 0.0
C130 C 0.30593 0.61044 0.03257 0.0
C131 C 0.28115 0.5875 0.99591 0.0
C132 C 0.29408 0.55354 0.95927 0.0
C133 C 0.33331 0.54242 0.96056 0.0
C134 C 0.35908 0.56489 -0.00133 0.0
C135 C 0.34506 0.59922 0.03524 0.0
H136 H 0.73007 0.80882 0.47007 0.0
H137 H 0.65913 0.89579 0.57695 0.0
H138 H 0.7143 0.94695 0.58892 0.0
H139 H 0.81601 0.82145 0.55453 0.0
H140 H 0.84756 0.81951 0.49162 0.0
H141 H 0.80204 0.79117 0.4894 0.0
H142 H 0.78318 0.83428 0.39484 0.0
H143 H 0.82867 0.86276 0.39675 0.0
H144 H 0.78432 0.89399 0.3953 0.0
H145 H 0.77728 0.98833 0.58867 0.0
H146 H 0.84422 0.01494 0.58153 0.0
H147 H 0.87427 0.89911 0.47733 0.0
C148 C 0.72606 0.83893 0.49539 0.0
C149 C 0.69036 0.84876 0.52216 0.0
C150 C 0.68634 0.88785 0.55613 0.0
C151 C 0.7174 0.91708 0.56292 0.0
C152 C 0.75225 0.9064 0.53586 0.0
C153 C 0.7568 0.86812 0.50311 0.0
C154 C 0.7976 0.86334 0.48061 0.0
C155 C 0.81693 0.82139 0.50555 0.0
C156 C 0.79848 0.86362 0.41285 0.0
C157 C 0.81542 0.9049 0.5059 0.0
C158 C 0.78872 0.92951 0.53716 0.0
C159 C 0.79844 0.96932 0.56437 0.0
C160 C 0.83654 0.98419 0.55992 0.0
C161 C 0.86458 0.95908 0.52898 0.0
C162 C 0.85363 0.919 0.50149 0.0
H163 H 0.77599 0.30004 0.07187 0.0
H164 H 0.84028 0.37279 0.94014 0.0
H165 H 0.78288 0.41874 0.91923 0.0
H166 H 0.68452 0.30011 0.99207 0.0
H167 H 0.65611 0.30665 0.0579 0.0
H168 H 0.70192 0.27849 0.06126 0.0
H169 H 0.72466 0.33286 0.14258 0.0
H170 H 0.679 0.36127 0.13933 0.0
H171 H 0.72305 0.39166 0.12883 0.0
H172 H 0.72052 0.45998 0.91748 0.0
H173 H 0.65509 0.49068 0.92945 0.0
H174 H 0.62987 0.38957 0.05956 0.0
C175 C 0.77787 0.32557 0.03852 0.0
C176 C 0.81254 0.33296 0.00757 0.0
C177 C 0.81386 0.36636 0.96388 0.0
C178 C 0.7815 0.39274 0.95192 0.0
C179 C 0.74792 0.38497 0.98362 0.0
C180 C 0.74566 0.35192 0.02554 0.0
C181 C 0.70601 0.35065 0.05331 0.0
C182 C 0.68596 0.30634 0.04034 0.0
C183 C 0.70834 0.35965 0.11996 0.0
C184 C 0.68657 0.38859 0.02104 0.0
C185 C 0.71138 0.40802 0.98128 0.0
C186 C 0.70067 0.44479 0.94801 0.0
C187 C 0.6635 0.4621 0.95534 0.0
C188 C 0.63733 0.4424 0.99521 0.0
C189 C 0.64909 0.40502 0.02826 0.0
H190 H 0.06264 0.74294 0.17208 0.0
H191 H 0.14723 0.82476 0.08447 0.0
H192 H 0.13808 0.88323 0.15948 0.0
H193 H 0.99829 0.82893 0.21008 0.0
H194 H 0.98569 0.80755 0.28159 0.0
H195 H 0.00078 0.7702 0.22411 0.0
H196 H 0.05482 0.73927 0.29154 0.0
H197 H 0.03961 0.77619 0.34955 0.0
H198 H 0.08884 0.7769 0.32456 0.0
H199 H 0.11652 0.93446 0.23713 0.0
H200 H 0.08726 0.9752 0.31923 0.0
H201 H 0.01675 0.86068 0.36075 0.0
C202 C 0.07973 0.77283 0.16988 0.0
C203 C 0.106 0.77956 0.1234 0.0
C204 C 0.12742 0.81918 0.12051 0.0
C205 C 0.1223 0.85248 0.16266 0.0
C206 C 0.09575 0.84542 0.2075 0.0
C207 C 0.07511 0.80649 0.21207 0.0
C208 C 0.04768 0.80835 0.26407 0.0
C209 C 0.00562 0.80348 0.24372 0.0
C210 C 0.05839 0.77308 0.31017 0.0
C211 C 0.05559 0.85475 0.28696 0.0
C212 C 0.08346 0.8753 0.25347 0.0
C213 C 0.09497 0.91862 0.26419 0.0
C214 C 0.07794 0.94156 0.31091 0.0
C215 C 0.04967 0.92122 0.34679 0.0
C216 C 0.03836 0.87713 0.33442 0.0
H217 H 0.58532 0.68436 0.57909 0.0
H218 H 0.58917 0.8143 0.66175 0.0
H219 H 0.56323 0.78218 0.75313 0.0
H220 H 0.49363 0.65058 0.64852 0.0
H221 H 0.50909 0.5937 0.65479 0.0
H222 H 0.52633 0.62745 0.59501 0.0
H223 H 0.59671 0.60983 0.62552 0.0
H224 H 0.57977 0.57636 0.68557 0.0
H225 H 0.61231 0.62157 0.69975 0.0
H226 H 0.54433 0.73442 0.8385 0.0
H227 H 0.52807 0.67518 0.90951 0.0
H228 H 0.52933 0.57848 0.76828 0.0
C229 C 0.57972 0.70657 0.61556 0.0
C230 C 0.58961 0.752 0.6129 0.0
C231 C 0.58265 0.77926 0.66275 0.0
C232 C 0.56754 0.76142 0.71477 0.0
C233 C 0.55872 0.71646 0.71593 0.0
C234 C 0.5639 0.68956 0.66733 0.0
C235 C 0.55288 0.64208 0.68047 0.0
C236 C 0.51843 0.62761 0.64244 0.0
C237 C 0.58748 0.61063 0.67236 0.0
C238 C 0.54176 0.64621 0.74466 0.0
C239 C 0.54549 0.6894 0.76433 0.0
C240 C 0.54036 0.70073 0.82334 0.0
C241 C 0.53128 0.667 0.86327 0.0
C242 C 0.5268 0.62283 0.84372 0.0
C243 C 0.5316 0.61236 0.78368 0.0
H244 H 0.93626 0.20761 0.12206 0.0
H245 H 0.87558 0.3179 0.20362 0.0
H246 H 0.88995 0.28583 0.30184 0.0
H247 H 0.90881 0.12448 0.21721 0.0
H248 H 0.95485 0.0967 0.21652 0.0
H249 H 0.93973 0.12875 0.15379 0.0
H250 H 0.00192 0.17581 0.1606 0.0
H251 H 0.01753 0.14362 0.22307 0.0
H252 H 0.0139 0.20305 0.22894 0.0
H253 H 0.90825 0.23691 0.39131 0.0
H254 H 0.93241 0.18029 0.46173 0.0
H255 H 0.98625 0.10918 0.31752 0.0
C256 C 0.92689 0.22639 0.16007 0.0
C257 C 0.90525 0.26598 0.15444 0.0
C258 C 0.89212 0.28751 0.2063 0.0
C259 C 0.90033 0.26965 0.26234 0.0
C260 C 0.92209 0.23068 0.26563 0.0
C261 C 0.93557 0.20988 0.21557 0.0
C262 C 0.95836 0.16856 0.22961 0.0
C263 C 0.93928 0.12721 0.2027 0.0
C264 C 1.00042 0.17306 0.20937 0.0
C265 C 0.95536 0.16871 0.29576 0.0
C266 C 0.93405 0.2044 0.31611 0.0
C267 C 0.92549 0.20934 0.37579 0.0
C268 C 0.93918 0.17704 0.41536 0.0
C269 C 0.96162 0.14084 0.39495 0.0
C270 C 0.9699 0.13702 0.33451 0.0
H271 H 0.40829 0.32326 0.59467 0.0
H272 H 0.43755 0.19126 0.6559 0.0
H273 H 0.45952 0.22294 0.75115 0.0
H274 H 0.48811 0.38055 0.66222 0.0
H275 H 0.45953 0.42878 0.67963 0.0
H276 H 0.44748 0.39528 0.61655 0.0
H277 H 0.37826 0.38531 0.657 0.0
H278 H 0.39016 0.41851 0.72039 0.0
H279 H 0.3716 0.36331 0.73008 0.0
H280 H 0.47774 0.27027 0.84025 0.0
H281 H 0.48992 0.32837 0.91503 0.0
H282 H 0.44758 0.42808 0.79291 0.0
C283 C 0.42002 0.30101 0.62762 0.0
C284 C 0.42181 0.25489 0.61773 0.0
C285 C 0.43613 0.22676 0.66269 0.0
C286 C 0.44869 0.24445 0.71673 0.0
C287 C 0.44644 0.29021 0.72496 0.0
C288 C 0.43241 0.318 0.68151 0.0
C289 C 0.43187 0.36577 0.70135 0.0
C290 C 0.45833 0.39426 0.66264 0.0
C291 C 0.39051 0.38429 0.70227 0.0
C292 C 0.44787 0.36073 0.76289 0.0
C293 C 0.45622 0.31701 0.7759 0.0
C294 C 0.47131 0.3046 0.83046 0.0
C295 C 0.47811 0.33783 0.87264 0.0
C296 C 0.46966 0.38282 0.85995 0.0
C297 C 0.4543 0.39407 0.80427 0.0
H298 H 0.55127 0.7382 0.40513 0.0
H299 H 0.67391 0.74825 0.36922 0.0
H300 H 0.66442 0.70952 0.27516 0.0
H301 H 0.54246 0.62803 0.35313 0.0
H302 H 0.49503 0.6356 0.32215 0.0
H303 H 0.51022 0.66892 0.38377 0.0
H304 H 0.49521 0.74029 0.32452 0.0
H305 H 0.4799 0.70717 0.26267 0.0
H306 H 0.51703 0.74813 0.25331 0.0
H307 H 0.64317 0.66642 0.1884 0.0
H308 H 0.61166 0.61914 0.11465 0.0
H309 H 0.50318 0.63216 0.20849 0.0
C310 C 0.57617 0.73244 0.37752 0.0
C311 C 0.6133 0.74703 0.3946 0.0
C312 C 0.64497 0.73876 0.35672 0.0
C313 C 0.63997 0.71641 0.30324 0.0
C314 C 0.60319 0.7021 0.28828 0.0
C315 C 0.57182 0.70957 0.32425 0.0
C316 C 0.53589 0.68798 0.29939 0.0
C317 C 0.51998 0.65306 0.34215 0.0
C318 C 0.5052 0.72299 0.28406 0.0
C319 C 0.55222 0.66664 0.24433 0.0
C320 C 0.591 0.67575 0.23859 0.0
C321 C 0.61277 0.65918 0.19216 0.0
C322 C 0.59452 0.63228 0.15049 0.0
C323 C 0.55487 0.62181 0.15567 0.0
C324 C 0.53347 0.63955 0.20318 0.0
H325 H 0.90379 0.27239 0.86521 0.0
H326 H 0.95567 0.19941 0.01121 0.0
H327 H 0.98833 0.15137 0.94203 0.0
H328 H 0.88061 0.17479 0.78718 0.0
H329 H 0.88851 0.19777 0.71496 0.0
H330 H 0.87426 0.23337 0.77483 0.0
H331 H 0.93415 0.2825 0.75717 0.0
H332 H 0.94858 0.24703 0.69711 0.0
H333 H 0.98141 0.25753 0.75714 0.0
H334 H 0.01314 0.10751 0.85997 0.0
H335 H 0.0233 0.06562 0.76821 0.0
H336 H 0.94914 0.15808 0.67446 0.0
C337 C 0.92218 0.24675 0.88314 0.0
C338 C 0.92789 0.2419 0.94478 0.0
C339 C 0.95207 0.20675 0.96495 0.0
C340 C 0.97065 0.17833 0.92573 0.0
C341 C 0.96416 0.18402 0.86599 0.0
C342 C 0.94008 0.21675 0.8445 0.0
C343 C 0.93458 0.21175 0.77842 0.0
C344 C 0.89196 0.20395 0.76297 0.0
C345 C 0.95065 0.25211 0.74552 0.0
C346 C 0.95876 0.17063 0.76693 0.0
C347 C 0.97623 0.156 0.81805 0.0
C348 C 0.99976 0.11859 0.81945 0.0
C349 C 0.00537 0.09506 0.76711 0.0
C350 C 0.98692 0.10852 0.71437 0.0
C351 C 0.96345 0.14697 0.71427 0.0
H352 H 0.44846 0.24608 0.36744 0.0
H353 H 0.34738 0.31422 0.43368 0.0
H354 H 0.35373 0.3708 0.35561 0.0
H355 H 0.50242 0.3406 0.33182 0.0
H356 H 0.52279 0.31879 0.26475 0.0
H357 H 0.50895 0.28168 0.32293 0.0
H358 H 0.46486 0.23874 0.25061 0.0
H359 H 0.47886 0.27549 0.19196 0.0
H360 H 0.42862 0.26839 0.20929 0.0
H361 H 0.37414 0.42284 0.27774 0.0
H362 H 0.40421 0.46533 0.19781 0.0
H363 H 0.49107 0.36245 0.17762 0.0
C364 C 0.42736 0.2725 0.36437 0.0
C365 C 0.3972 0.27602 0.4056 0.0
C366 C 0.37031 0.31111 0.4016 0.0
C367 C 0.37377 0.3433 0.3577 0.0
C368 C 0.40411 0.33948 0.31799 0.0
C369 C 0.43015 0.30472 0.32019 0.0
C370 C 0.4605 0.30925 0.27266 0.0
C371 C 0.50106 0.3128 0.29968 0.0
C372 C 0.45805 0.27067 0.22851 0.0
C373 C 0.448 0.35256 0.2446 0.0
C374 C 0.41542 0.36931 0.27161 0.0
C375 C 0.39935 0.40984 0.25563 0.0
C376 C 0.41682 0.43384 0.2104 0.0
C377 C 0.44992 0.41715 0.18131 0.0
C378 C 0.46558 0.37584 0.19864 0.0
H379 H 0.09489 0.8226 0.93436 0.0
H380 H 0.06657 0.68998 0.87525 0.0
H381 H 0.04387 0.72071 0.77967 0.0
H382 H 0.01466 0.87934 0.86674 0.0
H383 H 0.04305 0.92729 0.84866 0.0
H384 H 0.05533 0.89428 0.91205 0.0
H385 H 0.12453 0.88363 0.87141 0.0
H386 H 0.1124 0.91637 0.80775 0.0
H387 H 0.13111 0.86101 0.79854 0.0
H388 H 0.02445 0.76795 0.68959 0.0
H389 H 0.01234 0.82598 0.61426 0.0
H390 H 0.05537 0.92549 0.73582 0.0
C391 C 0.08321 0.8 0.90183 0.0
C392 C 0.0818 0.75403 0.91244 0.0
C393 C 0.06761 0.7254 0.86793 0.0
C394 C 0.05463 0.74257 0.81372 0.0
C395 C 0.05642 0.78828 0.80483 0.0
C396 C 0.0705 0.81643 0.84785 0.0
C397 C 0.07087 0.86397 0.82752 0.0
C398 C 0.04439 0.89291 0.86602 0.0
C399 C 0.11218 0.88229 0.82622 0.0
C400 C 0.05477 0.85846 0.76618 0.0
C401 C 0.04635 0.81475 0.75358 0.0
C402 C 0.031 0.80226 0.69911 0.0
C403 C 0.02421 0.83538 0.65663 0.0
C404 C 0.03308 0.88026 0.66894 0.0
C405 C 0.04848 0.89153 0.72458 0.0
loop_
_geom_bond_atom_site_label_1
_geom_bond_atom_site_label_2
_geom_bond_distance
_geom_bond_site_symmetry_2
_ccdc_geom_bond_type
H0 C3 0.931 . S
H1 C6 0.928 . S
H2 C8 0.930 . S
C3 H0 0.931 . S
C3 C4 1.413 1_554 S
C3 C5 1.360 . S
C4 C3 1.413 1_556 S
C4 C8 1.429 . S
C5 C3 1.360 . S
C5 C6 1.372 . S
C6 H1 0.928 . S
C6 C5 1.372 . S
C6 C7 1.404 . S
C7 C6 1.404 . S
C7 C8 1.391 1_554 S
C8 H2 0.930 . S
C8 C4 1.429 . S
C8 C7 1.391 1_556 S
H9 C12 0.931 . S
H10 C15 0.928 . S
H11 C17 0.930 . S
C12 H9 0.931 . S
C12 C13 1.413 . S
C12 C14 1.360 . S
C13 C12 1.413 . S
C13 C17 1.429 . S
C14 C12 1.360 . S
C14 C15 1.372 . S
C15 H10 0.928 . S
C15 C14 1.372 . S
C15 C16 1.404 . S
C16 C15 1.404 . S
C16 C17 1.391 . S
C17 H11 0.930 . S
C17 C13 1.429 . S
C17 C16 1.391 . S
H18 C21 0.931 . S
H19 C24 0.928 . S
H20 C26 0.930 . S
C21 H18 0.931 . S
C21 C22 1.413 1_554 S
C21 C23 1.360 . S
C22 C21 1.413 1_556 S
C22 C26 1.429 . S
C23 C21 1.360 . S
C23 C24 1.372 . S
C24 H19 0.928 . S
C24 C23 1.372 . S
C24 C25 1.404 . S
C25 C24 1.404 . S
C25 C26 1.391 1_554 S
C26 H20 0.930 . S
C26 C22 1.429 . S
C26 C25 1.391 1_556 S
H27 C30 0.931 . S
H28 C33 0.928 . S
H29 C35 0.930 . S
C30 H27 0.931 . S
C30 C31 1.413 . S
C30 C32 1.360 . S
C31 C30 1.413 . S
C31 C35 1.429 . S
C32 C30 1.360 . S
C32 C33 1.372 . S
C33 H28 0.928 . S
C33 C32 1.372 . S
C33 C34 1.404 . S
C34 C33 1.404 . S
C34 C35 1.391 . S
C35 H29 0.930 . S
C35 C31 1.429 . S
C35 C34 1.391 . S
O36 Zn37 1.953 1_565 S
O36 C52 1.225 . S
Zn37 O36 1.953 1_545 S
Zn37 O38 1.949 1_655 S
Zn37 O44 1.919 . S
Zn37 O49 1.924 . S
O38 Zn37 1.949 1_455 S
O38 Zn39 1.923 . S
O38 Zn40 1.950 1_445 S
O38 Zn41 1.945 . S
Zn39 O38 1.923 . S
Zn39 O42 1.933 . S
Zn39 O45 1.941 . S
Zn39 O46 1.965 1_545 S
Zn40 O38 1.950 1_665 S
Zn40 O47 1.938 1_655 S
Zn40 O48 1.906 1_655 S
Zn40 O58 1.953 . S
Zn41 O38 1.945 . S
Zn41 O43 1.932 . S
Zn41 O50 1.977 1_545 S
Zn41 O51 1.910 1_455 S
O42 Zn39 1.933 . S
O42 C53 1.226 . S
O43 Zn41 1.932 . S
O43 C53 1.307 . S
O44 Zn37 1.919 . S
O44 C55 1.253 . S
O45 Zn39 1.941 . S
O45 C55 1.283 1_455 S
O46 Zn39 1.965 1_565 S
O46 C54 1.303 . S
O47 Zn40 1.938 1_455 S
O47 C54 1.247 . S
O48 Zn40 1.906 1_455 S
O48 C56 1.304 . S
O49 Zn37 1.924 . S
O49 C57 1.311 . S
O50 Zn41 1.977 1_565 S
O50 C56 1.272 . S
O51 Zn41 1.910 1_655 S
O51 C57 1.231 . S
C52 O36 1.225 . S
C52 O58 1.298 . S
C53 O42 1.226 . S
C53 O43 1.307 . S
C54 O46 1.303 . S
C54 O47 1.247 . S
C55 O44 1.253 . S
C55 O45 1.283 1_655 S
C56 O48 1.304 . S
C56 O50 1.272 . S
C57 O49 1.311 . S
C57 O51 1.231 . S
O58 Zn40 1.953 . S
O58 C52 1.298 . S
O59 Zn60 1.953 . S
O59 C75 1.225 . S
Zn60 O59 1.953 . S
Zn60 O61 1.949 . S
Zn60 O67 1.919 1_554 S
Zn60 O72 1.924 . S
O61 Zn60 1.949 . S
O61 Zn62 1.923 1_554 S
O61 Zn63 1.950 . S
O61 Zn64 1.945 . S
Zn62 O61 1.923 1_556 S
Zn62 O65 1.933 . S
Zn62 O68 1.941 . S
Zn62 O69 1.965 . S
Zn63 O61 1.950 . S
Zn63 O70 1.938 1_554 S
Zn63 O71 1.906 . S
Zn63 O81 1.953 . S
Zn64 O61 1.945 . S
Zn64 O66 1.932 . S
Zn64 O73 1.977 . S
Zn64 O74 1.910 . S
O65 Zn62 1.933 . S
O65 C76 1.226 1_556 S
O66 Zn64 1.932 . S
O66 C76 1.307 . S
O67 Zn60 1.919 1_556 S
O67 C78 1.253 . S
O68 Zn62 1.941 . S
O68 C78 1.283 . S
O69 Zn62 1.965 . S
O69 C77 1.303 . S
O70 Zn63 1.938 1_556 S
O70 C77 1.247 . S
O71 Zn63 1.906 . S
O71 C79 1.304 . S
O72 Zn60 1.924 . S
O72 C80 1.311 . S
O73 Zn64 1.977 . S
O73 C79 1.272 . S
O74 Zn64 1.910 . S
O74 C80 1.231 . S
C75 O59 1.225 . S
C75 O81 1.298 . S
C76 O65 1.226 1_554 S
C76 O66 1.307 . S
C77 O69 1.303 . S
C77 O70 1.247 . S
C78 O67 1.253 . S
C78 O68 1.283 . S
C79 O71 1.304 . S
C79 O73 1.272 . S
C80 O72 1.311 . S
C80 O74 1.231 . S
O81 Zn63 1.953 . S
O81 C75 1.298 . S
H82 C94 0.930 . S
H83 C96 0.930 . S
H84 C97 0.930 . S
H85 C101 0.959 . S
H86 C101 0.959 . S
H87 C101 0.961 . S
H88 C102 0.960 . S
H89 C102 0.961 . S
H90 C102 0.959 . S
H91 C105 0.929 . S
H92 C106 0.931 . S
H93 C108 0.930 . S
C94 H82 0.930 . S
C94 C95 1.399 . S
C94 C99 1.399 . S
C95 C94 1.399 . S
C95 C96 1.376 . S
C96 H83 0.930 . S
C96 C95 1.376 . S
C96 C97 1.388 . S
C97 H84 0.930 . S
C97 C96 1.388 . S
C97 C98 1.390 . S
C98 C97 1.390 . S
C98 C99 1.394 . S
C98 C104 1.465 . S
C99 C94 1.399 . S
C99 C98 1.394 . S
C99 C100 1.516 . S
C100 C99 1.516 . S
C100 C101 1.502 . S
C100 C102 1.561 . S
C100 C103 1.526 . S
C101 H85 0.959 . S
C101 H86 0.959 . S
C101 H87 0.961 . S
C101 C100 1.502 . S
C102 H88 0.960 . S
C102 H89 0.961 . S
C102 H90 0.959 . S
C102 C100 1.561 . S
C103 C100 1.526 . S
C103 C104 1.396 . S
C103 C108 1.390 . S
C104 C98 1.465 . S
C104 C103 1.396 . S
C104 C105 1.399 . S
C105 H91 0.929 . S
C105 C104 1.399 . S
C105 C106 1.385 . S
C106 H92 0.931 . S
C106 C105 1.385 . S
C106 C107 1.389 . S
C107 C106 1.389 . S
C107 C108 1.387 . S
C108 H93 0.930 . S
C108 C103 1.390 . S
C108 C107 1.387 . S
H109 C121 0.930 . S
H110 C123 0.930 . S
H111 C124 0.930 . S
H112 C128 0.959 . S
H113 C128 0.959 . S
H114 C128 0.961 . S
H115 C129 0.960 . S
H116 C129 0.961 . S
H117 C129 0.959 . S
H118 C132 0.929 . S
H119 C133 0.931 . S
H120 C135 0.930 . S
C121 H109 0.930 . S
C121 C122 1.399 . S
C121 C126 1.399 . S
C122 C121 1.399 . S
C122 C123 1.376 1_554 S
C123 H110 0.930 . S
C123 C122 1.376 1_556 S
C123 C124 1.388 . S
C124 H111 0.930 . S
C124 C123 1.388 . S
C124 C125 1.390 1_556 S
C125 C124 1.390 1_554 S
C125 C126 1.394 . S
C125 C131 1.465 . S
C126 C121 1.399 . S
C126 C125 1.394 . S
C126 C127 1.516 . S
C127 C126 1.516 . S
C127 C128 1.502 . S
C127 C129 1.561 . S
C127 C130 1.526 . S
C128 H112 0.959 . S
C128 H113 0.959 . S
C128 H114 0.961 . S
C128 C127 1.502 . S
C129 H115 0.960 . S
C129 H116 0.961 . S
C129 H117 0.959 . S
C129 C127 1.561 . S
C130 C127 1.526 . S
C130 C131 1.396 . S
C130 C135 1.390 . S
C131 C125 1.465 . S
C131 C130 1.396 . S
C131 C132 1.399 1_554 S
C132 H118 0.929 . S
C132 C131 1.399 1_556 S
C132 C133 1.385 . S
C133 H119 0.931 . S
C133 C132 1.385 . S
C133 C134 1.389 1_556 S
C134 C133 1.389 1_554 S
C134 C135 1.387 . S
C135 H120 0.930 . S
C135 C130 1.390 . S
C135 C134 1.387 . S
H136 C148 0.930 . S
H137 C150 0.930 . S
H138 C151 0.930 . S
H139 C155 0.959 . S
H140 C155 0.959 . S
H141 C155 0.961 . S
H142 C156 0.960 . S
H143 C156 0.961 . S
H144 C156 0.959 . S
H145 C159 0.929 . S
H146 C160 0.931 . S
H147 C162 0.930 . S
C148 H136 0.930 . S
C148 C149 1.399 . S
C148 C153 1.399 . S
C149 C148 1.399 . S
C149 C150 1.376 . S
C150 H137 0.930 . S
C150 C149 1.376 . S
C150 C151 1.388 . S
C151 H138 0.930 . S
C151 C150 1.388 . S
C151 C152 1.390 . S
C152 C151 1.390 . S
C152 C153 1.394 . S
C152 C158 1.465 . S
C153 C148 1.399 . S
C153 C152 1.394 . S
C153 C154 1.516 . S
C154 C153 1.516 . S
C154 C155 1.502 . S
C154 C156 1.561 . S
C154 C157 1.526 . S
C155 H139 0.959 . S
C155 H140 0.959 . S
C155 H141 0.961 . S
C155 C154 1.502 . S
C156 H142 0.960 . S
C156 H143 0.961 . S
C156 H144 0.959 . S
C156 C154 1.561 . S
C157 C154 1.526 . S
C157 C158 1.396 . S
C157 C162 1.390 . S
C158 C152 1.465 . S
C158 C157 1.396 . S
C158 C159 1.399 . S
C159 H145 0.929 . S
C159 C158 1.399 . S
C159 C160 1.385 . S
C160 H146 0.931 . S
C160 C159 1.385 . S
C160 C161 1.389 . S
C161 C160 1.389 . S
C161 C162 1.387 . S
C162 H147 0.930 . S
C162 C157 1.390 . S
C162 C161 1.387 . S
H163 C175 0.930 . S
H164 C177 0.930 . S
H165 C178 0.930 . S
H166 C182 0.959 . S
H167 C182 0.959 . S
H168 C182 0.961 . S
H169 C183 0.960 . S
H170 C183 0.961 . S
H171 C183 0.959 . S
H172 C186 0.929 . S
H173 C187 0.931 . S
H174 C189 0.930 . S
C175 H163 0.930 . S
C175 C176 1.399 . S
C175 C180 1.399 . S
C176 C175 1.399 . S
C176 C177 1.376 1_554 S
C177 H164 0.930 . S
C177 C176 1.376 1_556 S
C177 C178 1.388 . S
C178 H165 0.930 . S
C178 C177 1.388 . S
C178 C179 1.390 . S
C179 C178 1.390 . S
C179 C180 1.394 1_556 S
C179 C185 1.465 . S
C180 C175 1.399 . S
C180 C179 1.394 1_554 S
C180 C181 1.516 . S
C181 C180 1.516 . S
C181 C182 1.502 . S
C181 C183 1.561 . S
C181 C184 1.526 . S
C182 H166 0.959 . S
C182 H167 0.959 . S
C182 H168 0.961 . S
C182 C181 1.502 . S
C183 H169 0.960 . S
C183 H170 0.961 . S
C183 H171 0.959 . S
C183 C181 1.561 . S
C184 C181 1.526 . S
C184 C185 1.396 1_554 S
C184 C189 1.390 . S
C185 C179 1.465 . S
C185 C184 1.396 1_556 S
C185 C186 1.399 . S
C186 H172 0.929 . S
C186 C185 1.399 . S
C186 C187 1.385 . S
C187 H173 0.931 . S
C187 C186 1.385 . S
C187 C188 1.389 1_556 S
C188 C187 1.389 1_554 S
C188 C189 1.387 . S
C189 H174 0.930 . S
C189 C184 1.390 . S
C189 C188 1.387 . S
H190 C202 0.930 . S
H191 C204 0.930 . S
H192 C205 0.930 . S
H193 C209 0.959 . S
H194 C209 0.959 . S
H195 C209 0.961 . S
H196 C210 0.960 . S
H197 C210 0.961 . S
H198 C210 0.959 . S
H199 C213 0.929 . S
H200 C214 0.931 . S
H201 C216 0.930 . S
C202 H190 0.930 . S
C202 C203 1.399 . S
C202 C207 1.399 . S
C203 C202 1.399 . S
C203 C204 1.376 . S
C204 H191 0.930 . S
C204 C203 1.376 . S
C204 C205 1.388 . S
C205 H192 0.930 . S
C205 C204 1.388 . S
C205 C206 1.390 . S
C206 C205 1.390 . S
C206 C207 1.394 . S
C206 C212 1.465 . S
C207 C202 1.399 . S
C207 C206 1.394 . S
C207 C208 1.516 . S
C208 C207 1.516 . S
C208 C209 1.502 . S
C208 C210 1.561 . S
C208 C211 1.526 . S
C209 H193 0.959 . S
C209 H194 0.959 . S
C209 H195 0.961 . S
C209 C208 1.502 . S
C210 H196 0.960 . S
C210 H197 0.961 . S
C210 H198 0.959 . S
C210 C208 1.561 . S
C211 C208 1.526 . S
C211 C212 1.396 . S
C211 C216 1.390 . S
C212 C206 1.465 . S
C212 C211 1.396 . S
C212 C213 1.399 . S
C213 H199 0.929 . S
C213 C212 1.399 . S
C213 C214 1.385 . S
C214 H200 0.931 . S
C214 C213 1.385 . S
C214 C215 1.389 . S
C215 C214 1.389 . S
C215 C216 1.387 . S
C216 H201 0.930 . S
C216 C211 1.390 . S
C216 C215 1.387 . S
H217 C229 0.930 . S
H218 C231 0.930 . S
H219 C232 0.930 . S
H220 C236 0.959 . S
H221 C236 0.959 . S
H222 C236 0.961 . S
H223 C237 0.960 . S
H224 C237 0.961 . S
H225 C237 0.959 . S
H226 C240 0.929 . S
H227 C241 0.931 . S
H228 C243 0.930 . S
C229 H217 0.930 . S
C229 C230 1.399 . S
C229 C234 1.399 . S
C230 C229 1.399 . S
C230 C231 1.376 . S
C231 H218 0.930 . S
C231 C230 1.376 . S
C231 C232 1.388 . S
C232 H219 0.930 . S
C232 C231 1.388 . S
C232 C233 1.390 . S
C233 C232 1.390 . S
C233 C234 1.394 . S
C233 C239 1.465 . S
C234 C229 1.399 . S
C234 C233 1.394 . S
C234 C235 1.516 . S
C235 C234 1.516 . S
C235 C236 1.502 . S
C235 C237 1.561 . S
C235 C238 1.526 . S
C236 H220 0.959 . S
C236 H221 0.959 . S
C236 H222 0.961 . S
C236 C235 1.502 . S
C237 H223 0.960 . S
C237 H224 0.961 . S
C237 H225 0.959 . S
C237 C235 1.561 . S
C238 C235 1.526 . S
C238 C239 1.396 . S
C238 C243 1.390 . S
C239 C233 1.465 . S
C239 C238 1.396 . S
C239 C240 1.399 . S
C240 H226 0.929 . S
C240 C239 1.399 . S
C240 C241 1.385 . S
C241 H227 0.931 . S
C241 C240 1.385 . S
C241 C242 1.389 . S
C242 C241 1.389 . S
C242 C243 1.387 . S
C243 H228 0.930 . S
C243 C238 1.390 . S
C243 C242 1.387 . S
H244 C256 0.930 . S
H245 C258 0.930 . S
H246 C259 0.930 . S
H247 C263 0.959 . S
H248 C263 0.959 . S
H249 C263 0.961 . S
H250 C264 0.960 . S
H251 C264 0.961 . S
H252 C264 0.959 . S
H253 C267 0.929 . S
H254 C268 0.931 . S
H255 C270 0.930 . S
C256 H244 0.930 . S
C256 C257 1.399 . S
C256 C261 1.399 . S
C257 C256 1.399 . S
C257 C258 1.376 . S
C258 H245 0.930 . S
C258 C257 1.376 . S
C258 C259 1.388 . S
C259 H246 0.930 . S
C259 C258 1.388 . S
C259 C260 1.390 . S
C260 C259 1.390 . S
C260 C261 1.394 . S
C260 C266 1.465 . S
C261 C256 1.399 . S
C261 C260 1.394 . S
C261 C262 1.516 . S
C262 C261 1.516 . S
C262 C263 1.502 . S
C262 C264 1.561 . S
C262 C265 1.526 . S
C263 H247 0.959 . S
C263 H248 0.959 . S
C263 H249 0.961 . S
C263 C262 1.502 . S
C264 H250 0.960 . S
C264 H251 0.961 . S
C264 H252 0.959 . S
C264 C262 1.561 . S
C265 C262 1.526 . S
C265 C266 1.396 . S
C265 C270 1.390 . S
C266 C260 1.465 . S
C266 C265 1.396 . S
C266 C267 1.399 . S
C267 H253 0.929 . S
C267 C266 1.399 . S
C267 C268 1.385 . S
C268 H254 0.931 . S
C268 C267 1.385 . S
C268 C269 1.389 . S
C269 C268 1.389 . S
C269 C270 1.387 . S
C270 H255 0.930 . S
C270 C265 1.390 . S
C270 C269 1.387 . S
H271 C283 0.930 . S
H272 C285 0.930 . S
H273 C286 0.930 . S
H274 C290 0.959 . S
H275 C290 0.959 . S
H276 C290 0.961 . S
H277 C291 0.960 . S
H278 C291 0.961 . S
H279 C291 0.959 . S
H280 C294 0.929 . S
H281 C295 0.931 . S
H282 C297 0.930 . S
C283 H271 0.930 . S
C283 C284 1.399 . S
C283 C288 1.399 . S
C284 C283 1.399 . S
C284 C285 1.376 . S
C285 H272 0.930 . S
C285 C284 1.376 . S
C285 C286 1.388 . S
C286 H273 0.930 . S
C286 C285 1.388 . S
C286 C287 1.390 . S
C287 C286 1.390 . S
C287 C288 1.394 . S
C287 C293 1.465 . S
C288 C283 1.399 . S
C288 C287 1.394 . S
C288 C289 1.516 . S
C289 C288 1.516 . S
C289 C290 1.502 . S
C289 C291 1.561 . S
C289 C292 1.526 . S
C290 H274 0.959 . S
C290 H275 0.959 . S
C290 H276 0.961 . S
C290 C289 1.502 . S
C291 H277 0.960 . S
C291 H278 0.961 . S
C291 H279 0.959 . S
C291 C289 1.561 . S
C292 C289 1.526 . S
C292 C293 1.396 . S
C292 C297 1.390 . S
C293 C287 1.465 . S
C293 C292 1.396 . S
C293 C294 1.399 . S
C294 H280 0.929 . S
C294 C293 1.399 . S
C294 C295 1.385 . S
C295 H281 0.931 . S
C295 C294 1.385 . S
C295 C296 1.389 . S
C296 C295 1.389 . S
C296 C297 1.387 . S
C297 H282 0.930 . S
C297 C292 1.390 . S
C297 C296 1.387 . S
H298 C310 0.930 . S
H299 C312 0.930 . S
H300 C313 0.930 . S
H301 C317 0.959 . S
H302 C317 0.959 . S
H303 C317 0.961 . S
H304 C318 0.960 . S
H305 C318 0.961 . S
H306 C318 0.959 . S
H307 C321 0.929 . S
H308 C322 0.931 . S
H309 C324 0.930 . S
C310 H298 0.930 . S
C310 C311 1.399 . S
C310 C315 1.399 . S
C311 C310 1.399 . S
C311 C312 1.376 . S
C312 H299 0.930 . S
C312 C311 1.376 . S
C312 C313 1.388 . S
C313 H300 0.930 . S
C313 C312 1.388 . S
C313 C314 1.390 . S
C314 C313 1.390 . S
C314 C315 1.394 . S
C314 C320 1.465 . S
C315 C310 1.399 . S
C315 C314 1.394 . S
C315 C316 1.516 . S
C316 C315 1.516 . S
C316 C317 1.502 . S
C316 C318 1.561 . S
C316 C319 1.526 . S
C317 H301 0.959 . S
C317 H302 0.959 . S
C317 H303 0.961 . S
C317 C316 1.502 . S
C318 H304 0.960 . S
C318 H305 0.961 . S
C318 H306 0.959 . S
C318 C316 1.561 . S
C319 C316 1.526 . S
C319 C320 1.396 . S
C319 C324 1.390 . S
C320 C314 1.465 . S
C320 C319 1.396 . S
C320 C321 1.399 . S
C321 H307 0.929 . S
C321 C320 1.399 . S
C321 C322 1.385 . S
C322 H308 0.931 . S
C322 C321 1.385 . S
C322 C323 1.389 . S
C323 C322 1.389 . S
C323 C324 1.387 . S
C324 H309 0.930 . S
C324 C319 1.390 . S
C324 C323 1.387 . S
H325 C337 0.930 . S
H326 C339 0.930 . S
H327 C340 0.930 . S
H328 C344 0.959 . S
H329 C344 0.959 . S
H330 C344 0.961 . S
H331 C345 0.960 . S
H332 C345 0.961 . S
H333 C345 0.959 . S
H334 C348 0.929 1_455 S
H335 C349 0.931 1_455 S
H336 C351 0.930 . S
C337 H325 0.930 . S
C337 C338 1.399 . S
C337 C342 1.399 . S
C338 C337 1.399 . S
C338 C339 1.376 . S
C339 H326 0.930 . S
C339 C338 1.376 . S
C339 C340 1.388 . S
C340 H327 0.930 . S
C340 C339 1.388 . S
C340 C341 1.390 . S
C341 C340 1.390 . S
C341 C342 1.394 . S
C341 C347 1.465 . S
C342 C337 1.399 . S
C342 C341 1.394 . S
C342 C343 1.516 . S
C343 C342 1.516 . S
C343 C344 1.502 . S
C343 C345 1.561 . S
C343 C346 1.526 . S
C344 H328 0.959 . S
C344 H329 0.959 . S
C344 H330 0.961 . S
C344 C343 1.502 . S
C345 H331 0.960 . S
C345 H332 0.961 . S
C345 H333 0.959 . S
C345 C343 1.561 . S
C346 C343 1.526 . S
C346 C347 1.396 . S
C346 C351 1.390 . S
C347 C341 1.465 . S
C347 C346 1.396 . S
C347 C348 1.399 . S
C348 H334 0.929 1_655 S
C348 C347 1.399 . S
C348 C349 1.385 . S
C349 H335 0.931 1_655 S
C349 C348 1.385 . S
C349 C350 1.389 . S
C350 C349 1.389 . S
C350 C351 1.387 . S
C351 H336 0.930 . S
C351 C346 1.390 . S
C351 C350 1.387 . S
H352 C364 0.930 . S
H353 C366 0.930 . S
H354 C367 0.930 . S
H355 C371 0.959 . S
H356 C371 0.959 . S
H357 C371 0.961 . S
H358 C372 0.960 . S
H359 C372 0.961 . S
H360 C372 0.959 . S
H361 C375 0.929 . S
H362 C376 0.931 . S
H363 C378 0.930 . S
C364 H352 0.930 . S
C364 C365 1.399 . S
C364 C369 1.399 . S
C365 C364 1.399 . S
C365 C366 1.376 . S
C366 H353 0.930 . S
C366 C365 1.376 . S
C366 C367 1.388 . S
C367 H354 0.930 . S
C367 C366 1.388 . S
C367 C368 1.390 . S
C368 C367 1.390 . S
C368 C369 1.394 . S
C368 C374 1.465 . S
C369 C364 1.399 . S
C369 C368 1.394 . S
C369 C370 1.516 . S
C370 C369 1.516 . S
C370 C371 1.502 . S
C370 C372 1.561 . S
C370 C373 1.526 . S
C371 H355 0.959 . S
C371 H356 0.959 . S
C371 H357 0.961 . S
C371 C370 1.502 . S
C372 H358 0.960 . S
C372 H359 0.961 . S
C372 H360 0.959 . S
C372 C370 1.561 . S
C373 C370 1.526 . S
C373 C374 1.396 . S
C373 C378 1.390 . S
C374 C368 1.465 . S
C374 C373 1.396 . S
C374 C375 1.399 . S
C375 H361 0.929 . S
C375 C374 1.399 . S
C375 C376 1.385 . S
C376 H362 0.931 . S
C376 C375 1.385 . S
C376 C377 1.389 . S
C377 C376 1.389 . S
C377 C378 1.387 . S
C378 H363 0.930 . S
C378 C373 1.390 . S
C378 C377 1.387 . S
H379 C391 0.930 . S
H380 C393 0.930 . S
H381 C394 0.930 . S
H382 C398 0.959 1_655 S
H383 C398 0.959 1_655 S
H384 C398 0.961 . S
H385 C399 0.960 . S
H386 C399 0.961 . S
H387 C399 0.959 . S
H388 C402 0.929 . S
H389 C403 0.931 . S
H390 C405 0.930 . S
C391 H379 0.930 . S
C391 C392 1.399 . S
C391 C396 1.399 . S
C392 C391 1.399 . S
C392 C393 1.376 . S
C393 H380 0.930 . S
C393 C392 1.376 . S
C393 C394 1.388 . S
C394 H381 0.930 . S
C394 C393 1.388 . S
C394 C395 1.390 . S
C395 C394 1.390 . S
C395 C396 1.394 . S
C395 C401 1.465 . S
C396 C391 1.399 . S
C396 C395 1.394 . S
C396 C397 1.516 . S
C397 C396 1.516 . S
C397 C398 1.502 . S
C397 C399 1.561 . S
C397 C400 1.526 . S
C398 H382 0.959 1_455 S
C398 H383 0.959 1_455 S
C398 H384 0.961 . S
C398 C397 1.502 . S
C399 H385 0.960 . S
C399 H386 0.961 . S
C399 H387 0.959 . S
C399 C397 1.561 . S
C400 C397 1.526 . S
C400 C401 1.396 . S
C400 C405 1.390 . S
C401 C395 1.465 . S
C401 C400 1.396 . S
C401 C402 1.399 . S
C402 H388 0.929 . S
C402 C401 1.399 . S
C402 C403 1.385 . S
C403 H389 0.931 . S
C403 C402 1.385 . S
C403 C404 1.389 . S
C404 C403 1.389 . S
C404 C405 1.387 . S
C405 H390 0.930 . S
C405 C400 1.390 . S
C405 C404 1.387 . S
C107 C53 1.518 . S
C95 C34 1.523 . S
C122 C7 1.529 . S
C134 C76 1.513 . S
C149 C16 1.535 . S
C161 C52 1.536 . S
C176 C25 1.539 . S
C188 C75 1.535 . S
C215 C56 1.465 . S
C203 C5 1.488 . S
C242 C78 1.503 . S
C230 C13 1.545 . S
C257 C23 1.552 . S
C269 C57 1.463 . S
C284 C32 1.545 . S
C296 C77 1.492 . S
C323 C80 1.512 . S
C311 C14 1.525 . S
C350 C55 1.498 . S
C338 C22 1.537 . S
C377 C79 1.489 . S
C365 C31 1.489 . S
C392 C4 1.530 . S
C404 C54 1.471 . S
