# Generated by pormake.
# Topology anh, (6,3)-cn, num edge types: 1
# Building blocks:
#     Node 0, Type 0, BuildingBlock: BETFAJ_clean_sbu_0, # of connection points: 6
#     Node 1, Type 0, BuildingBlock: BETFAJ_clean_sbu_0, # of connection points: 6
#     Node 2, Type 0, BuildingBlock: BETFAJ_clean_sbu_0, # of connection points: 6
#     Node 3, Type 1, BuildingBlock: VETTIZ_charged_linker_0, # of connection points: 3
#     Node 4, Type 1, BuildingBlock: VETTIZ_charged_linker_0, # of connection points: 3
#     Node 5, Type 1, BuildingBlock: VETTIZ_charged_linker_0, # of connection points: 3
#     Node 6, Type 1, BuildingBlock: VETTIZ_charged_linker_0, # of connection points: 3
#     Node 7, Type 1, BuildingBlock: VETTIZ_charged_linker_0, # of connection points: 3
#     Node 8, Type 1, BuildingBlock: VETTIZ_charged_linker_0, # of connection points: 3
#     Edge 9, Type (0, 1), BuildingBlock: MIFKUJ_clean_linker_0, # of connection points: 2
#     Edge 10, Type (0, 1), BuildingBlock: MIFKUJ_clean_linker_0, # of connection points: 2
#     Edge 11, Type (0, 1), BuildingBlock: MIFKUJ_clean_linker_0, # of connection points: 2
#     Edge 12, Type (0, 1), BuildingBlock: MIFKUJ_clean_linker_0, # of connection points: 2
#     Edge 13, Type (0, 1), BuildingBlock: MIFKUJ_clean_linker_0, # of connection points: 2
#     Edge 14, Type (0, 1), BuildingBlock: MIFKUJ_clean_linker_0, # of connection points: 2
#     Edge 15, Type (0, 1), BuildingBlock: MIFKUJ_clean_linker_0, # of connection points: 2
#     Edge 16, Type (0, 1), BuildingBlock: MIFKUJ_clean_linker_0, # of connection points: 2
#     Edge 17, Type (0, 1), BuildingBlock: MIFKUJ_clean_linker_0, # of connection points: 2
#     Edge 18, Type (0, 1), BuildingBlock: MIFKUJ_clean_linker_0, # of connection points: 2
#     Edge 19, Type (0, 1), BuildingBlock: MIFKUJ_clean_linker_0, # of connection points: 2
#     Edge 20, Type (0, 1), BuildingBlock: MIFKUJ_clean_linker_0, # of connection points: 2
#     Edge 21, Type (0, 1), BuildingBlock: MIFKUJ_clean_linker_0, # of connection points: 2
#     Edge 22, Type (0, 1), BuildingBlock: MIFKUJ_clean_linker_0, # of connection points: 2
#     Edge 23, Type (0, 1), BuildingBlock: MIFKUJ_clean_linker_0, # of connection points: 2
#     Edge 24, Type (0, 1), BuildingBlock: MIFKUJ_clean_linker_0, # of connection points: 2
#     Edge 25, Type (0, 1), BuildingBlock: MIFKUJ_clean_linker_0, # of connection points: 2
#     Edge 26, Type (0, 1), BuildingBlock: MIFKUJ_clean_linker_0, # of connection points: 2
# Relax obj value: 0.168
# Max RMSD: 0.200
# Mean RMSD: 0.153
data_MOF--net-anh--node1-BETFAJ_clean_sbu_0--node2-VETTIZ_charged_linker_0--edge1-MIFKUJ_clean_linker_0
_symmetry_space_group_name_H-M    P1
_symmetry_Int_Tables_number       1
_symmetry_cell_setting            triclinic
loop_
_symmetry_equiv_pos_as_xyz
'x, y, z'
_cell_length_a     46.282619
_cell_length_b     52.424498
_cell_length_c     82.862444
_cell_angle_alpha  92.352364
_cell_angle_beta   89.477573
_cell_angle_gamma 127.47599
loop_
_atom_site_label
_atom_site_type_symbol
_atom_site_fract_x
_atom_site_fract_y
_atom_site_fract_z
_atom_type_partial_charge
Sm0 Sm 0.05659 0.49801 0.14497 0.0
Sm1 Sm 1.01625 0.52717 0.15898 0.0
C2 C 0.09248 0.48401 0.12697 0.0
C3 C 0.12862 0.49208 0.13007 0.0
C4 C 0.1604 0.52408 0.12974 0.0
C5 C 0.1933 0.53263 0.13592 0.0
C6 C 0.19509 0.50943 0.14264 0.0
C7 C 0.16374 0.47715 0.14215 0.0
C8 C 0.13095 0.46855 0.13581 0.0
C9 C 0.05996 0.50313 0.17847 0.0
C10 C 0.10409 0.57641 0.15477 0.0
C11 C 0.97763 0.54028 0.17584 0.0
C12 C 0.94416 0.52071 0.18512 0.0
C13 C 0.93616 0.53478 0.1973 0.0
C14 C 0.90322 0.51588 0.20548 0.0
C15 C 0.87801 0.48267 0.20158 0.0
C16 C 0.88718 0.46868 0.18983 0.0
C17 C 0.91985 0.48754 0.18173 0.0
C18 C 1.02848 0.53 0.12636 0.0
C19 C 0.96993 0.44751 0.15203 0.0
O20 O 0.09187 0.50813 0.12408 0.0
O21 O 0.06691 0.46355 0.1368 0.0
O22 O 0.04639 0.51105 0.16882 0.0
O23 O 0.07339 0.49116 0.17016 0.0
O24 O 0.10168 0.55348 0.14587 0.0
O25 O 0.07605 0.57116 0.16269 0.0
O26 O 1.00588 0.54368 0.18187 0.0
O27 O 0.97376 0.53431 0.16016 0.0
O28 O 1.01849 0.50679 0.13498 0.0
O29 O 1.03065 0.55267 0.13477 0.0
O30 O 0.97207 0.47149 0.15962 0.0
O31 O 0.99738 0.45221 0.14385 0.0
H32 H 0.15967 0.54285 0.12533 0.0
H33 H 0.21719 0.55755 0.13568 0.0
H34 H 0.16407 0.45865 0.14726 0.0
H35 H 0.10692 0.44371 0.13621 0.0
H36 H 0.95493 0.56039 0.2002 0.0
H37 H 0.89705 0.52737 0.21451 0.0
H38 H 0.8683 0.44341 0.18618 0.0
H39 H 0.92563 0.47642 0.17238 0.0
Sm40 Sm 0.5787 0.01528 0.48822 0.0
Sm41 Sm 0.53364 0.03708 0.47872 0.0
C42 C 0.60448 0.98853 0.5027 0.0
C43 C 0.59681 0.95698 0.50396 0.0
C44 C 0.60325 0.94902 0.51873 0.0
C45 C 0.59787 0.91993 0.52012 0.0
C46 C 0.5861 0.89819 0.50671 0.0
C47 C 0.57879 0.90594 0.49198 0.0
C48 C 0.58403 0.93504 0.49062 0.0
C49 C 0.57627 0.02152 0.45565 0.0
C50 C 0.49029 0.96049 0.47977 0.0
C51 C 0.5077 0.06576 0.46673 0.0
C52 C 0.51291 0.09601 0.47062 0.0
C53 C 0.50811 0.1112 0.45858 0.0
C54 C 0.51322 0.14005 0.46219 0.0
C55 C 0.52316 0.15422 0.47795 0.0
C56 C 0.52805 0.13883 0.48996 0.0
C57 C 0.52317 0.11015 0.48631 0.0
C58 C 0.53835 0.03244 0.51143 0.0
C59 C 0.6233 0.0914 0.48426 0.0
O60 O 0.58132 0.99199 0.50943 0.0
O61 O 0.61612 1.00225 0.48883 0.0
O62 O 0.54967 0.0099 0.46495 0.0
O63 O 0.60445 0.02746 0.46311 0.0
O64 O 0.51913 0.96795 0.48797 0.0
O65 O 0.491 0.98288 0.47253 0.0
O66 O 0.53581 0.06868 0.46079 0.0
O67 O 0.49079 0.04376 0.47749 0.0
O68 O 0.5641 0.04383 0.50172 0.0
O69 O 0.50928 0.02496 0.5042 0.0
O70 O 0.59313 0.08351 0.47723 0.0
O71 O 0.6238 0.06985 0.49171 0.0
H72 H 0.61283 0.96552 0.5292 0.0
H73 H 0.60301 0.91452 0.53174 0.0
H74 H 0.56994 0.88993 0.48137 0.0
H75 H 0.57863 0.9406 0.47911 0.0
H76 H 0.50052 0.10079 0.44636 0.0
H77 H 0.50977 0.15142 0.45257 0.0
H78 H 0.53516 0.14867 0.50228 0.0
H79 H 0.52725 0.09891 0.49578 0.0
Sm80 Sm 0.59588 0.5567 0.83812 0.0
Sm81 Sm 0.54723 0.48727 0.84493 0.0
C82 C 0.62763 0.61467 0.82669 0.0
C83 C 0.62188 0.63917 0.8249 0.0
C84 C 0.58715 0.63162 0.8259 0.0
C85 C 0.58269 0.65554 0.82401 0.0
C86 C 0.61288 0.6874 0.82109 0.0
C87 C 0.64759 0.69471 0.82029 0.0
C88 C 0.65198 0.67086 0.82215 0.0
C89 C 0.59214 0.54422 0.8702 0.0
C90 C 0.50616 0.52061 0.84394 0.0
C91 C 0.51857 0.42876 0.8545 0.0
C92 C 0.5252 0.40494 0.85047 0.0
C93 C 0.52689 0.38823 0.86276 0.0
C94 C 0.53311 0.3656 0.85906 0.0
C95 C 0.53747 0.35908 0.84295 0.0
C96 C 0.53633 0.37624 0.83069 0.0
C97 C 0.53047 0.39904 0.83441 0.0
C98 C 0.55274 0.49961 0.81269 0.0
C99 C 0.63769 0.52406 0.84088 0.0
O100 O 0.60692 0.5879 0.81788 0.0
O101 O 0.6332 0.61007 0.84136 0.0
O102 O 0.56526 0.53055 0.86055 0.0
O103 O 0.62221 0.5661 0.86324 0.0
O104 O 0.5369 0.54404 0.83699 0.0
O105 O 0.50468 0.49705 0.85044 0.0
O106 O 0.54452 0.45493 0.86261 0.0
O107 O 0.50411 0.43444 0.84306 0.0
O108 O 0.57897 0.51337 0.82268 0.0
O109 O 0.52239 0.47778 0.81942 0.0
O110 O 0.60585 0.49963 0.84658 0.0
O111 O 0.64025 0.54847 0.83483 0.0
H112 H 0.56353 0.60727 0.82804 0.0
H113 H 0.55553 0.64894 0.82457 0.0
H114 H 0.67155 0.71902 0.81836 0.0
H115 H 0.67902 0.6772 0.82144 0.0
H116 H 0.52319 0.39254 0.87524 0.0
H117 H 0.53364 0.35266 0.86876 0.0
H118 H 0.54013 0.37213 0.8182 0.0
H119 H 0.52995 0.41196 0.82469 0.0
C120 C 0.62784 0.09836 0.17865 0.0
C121 C 0.65583 0.12825 0.18629 0.0
C122 C 0.65862 0.13099 0.20324 0.0
C123 C 0.60619 0.07513 0.20496 0.0
C124 C 0.60305 0.07207 0.18829 0.0
C125 C 0.57046 0.03853 0.18265 0.0
H126 H 0.42289 0.88904 0.20423 0.0
C127 C 0.57642 0.04412 0.21164 0.0
C128 C 0.55496 0.02226 0.19868 0.0
H129 H 0.45364 0.92131 0.15561 0.0
H130 H 0.50696 0.97338 0.16614 0.0
H131 H 0.50169 0.9182 0.21693 0.0
H132 H 0.4365 0.95112 0.21897 0.0
H133 H 0.45915 0.96247 0.23776 0.0
H134 H 0.42845 0.9204 0.23153 0.0
H135 H 0.4644 0.90233 0.23044 0.0
H136 H 0.51 0.93694 0.23616 0.0
C137 C 0.58423 0.02275 0.17243 0.0
C138 C 0.54377 0.04133 0.17339 0.0
C139 C 0.5683 0.03384 0.27271 0.0
C140 C 0.54375 0.00829 0.28264 0.0
C141 C 0.51443 0.97873 0.27533 0.0
C142 C 0.50977 0.97456 0.25852 0.0
C143 C 0.53459 1.00022 0.24875 0.0
C144 C 0.56319 0.02924 0.25587 0.0
C145 C 0.58669 0.05378 0.24356 0.0
C146 C 0.56751 0.03459 0.22786 0.0
C147 C 0.53711 1.00334 0.23102 0.0
C148 C 0.62541 0.06304 0.2451 0.0
C149 C 0.58489 0.08225 0.24637 0.0
C150 C 0.44073 0.90731 0.19576 0.0
C151 C 0.43352 0.90106 0.17908 0.0
C152 C 0.4584 0.92543 0.16855 0.0
C153 C 0.48922 0.95571 0.17469 0.0
C154 C 0.49536 0.96169 0.19153 0.0
C155 C 0.47123 0.93731 0.20164 0.0
C156 C 0.48123 0.94688 0.21913 0.0
C157 C 0.51518 0.98121 0.21809 0.0
C158 C 0.5238 0.99025 0.20194 0.0
C159 C 0.48957 0.92495 0.22618 0.0
C160 C 0.44978 0.94499 0.22742 0.0
H161 H 0.63806 0.10867 0.22541 0.0
H162 H 0.62502 0.09575 0.16561 0.0
H163 H 0.54033 0.05817 0.18004 0.0
H164 H 0.51626 0.01825 0.17203 0.0
H165 H 0.55409 0.05066 0.1612 0.0
H166 H 0.60821 0.02686 0.17846 0.0
H167 H 0.59264 0.03311 0.16032 0.0
H168 H 0.56367 0.99644 0.17086 0.0
H169 H 0.5913 0.0568 0.27789 0.0
H170 H 0.49473 0.95881 0.28265 0.0
H171 H 0.48686 0.95146 0.25381 0.0
H172 H 0.62401 0.04171 0.24786 0.0
H173 H 0.64144 0.08156 0.25499 0.0
H174 H 0.64083 0.07175 0.23381 0.0
H175 H 0.55853 0.07414 0.2517 0.0
H176 H 0.58613 0.09325 0.23502 0.0
H177 H 0.60697 0.10114 0.25476 0.0
H178 H 0.67994 0.15372 0.2093 0.0
C179 C 0.63419 0.10473 0.21257 0.0
C180 C 0.56171 0.60073 0.54023 0.0
C181 C 0.56474 0.62624 0.54861 0.0
C182 C 0.56595 0.62778 0.56562 0.0
C183 C 0.5629 0.58005 0.56576 0.0
C184 C 0.56113 0.57806 0.54906 0.0
C185 C 0.55971 0.55012 0.54229 0.0
H186 H 0.56367 0.42535 0.5565 0.0
C187 C 0.56332 0.55391 0.57134 0.0
C188 C 0.56169 0.53627 0.55768 0.0
H189 H 0.55325 0.45459 0.51026 0.0
H190 H 0.55503 0.49757 0.52359 0.0
H191 H 0.62435 0.49476 0.57121 0.0
H192 H 0.50771 0.43312 0.57499 0.0
H193 H 0.52635 0.44997 0.59439 0.0
H194 H 0.5361 0.425 0.58425 0.0
H195 H 0.60089 0.4613 0.58413 0.0
H196 H 0.61514 0.50059 0.59103 0.0
C197 C 0.59348 0.56355 0.53171 0.0
C198 C 0.52289 0.52634 0.53313 0.0
C199 C 0.5698 0.54265 0.6316 0.0
C200 C 0.57316 0.52233 0.64051 0.0
C201 C 0.57533 0.49954 0.63224 0.0
C202 C 0.57351 0.49664 0.61532 0.0
C203 C 0.56981 0.51693 0.60653 0.0
C204 C 0.56856 0.53976 0.61469 0.0
C205 C 0.56657 0.56037 0.60338 0.0
C206 C 0.56579 0.54555 0.58708 0.0
C207 C 0.56735 0.51997 0.58901 0.0
C208 C 0.60155 0.59558 0.60599 0.0
C209 C 0.53056 0.55566 0.60647 0.0
C210 C 0.5622 0.44121 0.54919 0.0
C211 C 0.55866 0.4367 0.53228 0.0
C212 C 0.55588 0.45746 0.52331 0.0
C213 C 0.55705 0.48247 0.53107 0.0
C214 C 0.56084 0.48671 0.548 0.0
C215 C 0.56315 0.46607 0.55673 0.0
C216 C 0.56638 0.47348 0.57461 0.0
C217 C 0.56565 0.50201 0.57526 0.0
C218 C 0.56256 0.50988 0.55966 0.0
C219 C 0.60341 0.48283 0.58071 0.0
C220 C 0.53262 0.44392 0.58262 0.0
H221 H 0.56609 0.6076 0.58712 0.0
H222 H 0.56084 0.59901 0.52715 0.0
H223 H 0.50069 0.52489 0.53949 0.0
H224 H 0.51405 0.50145 0.53245 0.0
H225 H 0.52411 0.53413 0.52071 0.0
H226 H 0.61809 0.58576 0.53756 0.0
H227 H 0.58956 0.56978 0.51968 0.0
H228 H 0.60026 0.54679 0.52996 0.0
H229 H 0.56865 0.56071 0.63767 0.0
H230 H 0.57777 0.48357 0.6389 0.0
H231 H 0.57494 0.47861 0.60974 0.0
H232 H 0.62458 0.59654 0.61081 0.0
H233 H 0.59703 0.60944 0.61472 0.0
H234 H 0.61181 0.60841 0.59461 0.0
H235 H 0.50792 0.52995 0.60848 0.0
H236 H 0.52142 0.56189 0.59612 0.0
H237 H 0.53311 0.57003 0.61736 0.0
H238 H 0.56769 0.64686 0.57234 0.0
C239 C 0.56495 0.60488 0.5742 0.0
C240 C 0.15864 0.52304 0.8519 0.0
C241 C 0.18704 0.52495 0.86056 0.0
C242 C 0.18617 0.52638 0.87748 0.0
C243 C 0.13189 0.52419 0.87736 0.0
C244 C 0.1312 0.52294 0.86067 0.0
C245 C 0.09875 0.52211 0.8547 0.0
H246 H 0.94972 0.51887 0.88076 0.0
C247 C 0.10091 0.52333 0.88357 0.0
C248 C 0.08036 0.52213 0.87052 0.0
H249 H 0.9774 0.52247 0.83073 0.0
H250 H 1.02874 0.5218 0.83867 0.0
H251 H 0.9582 0.46701 0.88925 0.0
H252 H 1.027 0.5699 0.89394 0.0
H253 H 1.03434 0.55788 0.91184 0.0
H254 H 0.98921 0.54471 0.90684 0.0
H255 H 0.95271 0.48814 0.905 0.0
H256 H 0.98162 0.47621 0.90765 0.0
C257 C 0.07227 0.4913 0.84423 0.0
C258 C 0.11344 0.55231 0.84529 0.0
C259 C 0.08855 0.5247 0.94482 0.0
C260 C 0.06197 0.52146 0.95485 0.0
C261 C 1.03182 0.51738 0.94781 0.0
C262 C 1.02841 0.51705 0.93101 0.0
C263 C 0.05524 0.52042 0.92099 0.0
C264 C 0.08429 0.52364 0.92798 0.0
C265 C 0.10894 0.52504 0.91553 0.0
C266 C 0.09048 0.52299 0.89982 0.0
C267 C 0.05941 0.52075 0.90313 0.0
C268 C 0.10787 0.49506 0.91738 0.0
C269 C 0.14707 0.55808 0.91806 0.0
C270 C 0.96665 0.52005 0.87125 0.0
C271 C 0.95893 0.52147 0.8551 0.0
C272 C 0.98203 0.52159 0.84341 0.0
C273 C 1.01202 0.52137 0.84798 0.0
C274 C 1.0194 0.5207 0.86448 0.0
C275 C 0.99598 0.5198 0.87552 0.0
C276 C 1.00528 0.51873 0.89247 0.0
C277 C 0.03867 0.52007 0.89038 0.0
C278 C 0.0482 0.52096 0.87393 0.0
C279 C 0.97285 0.48605 0.89908 0.0
C280 C 1.01422 0.54912 0.9019 0.0
H281 H 0.16187 0.52739 0.89856 0.0
H282 H 0.15819 0.52219 0.83883 0.0
H283 H 0.13317 0.57438 0.85291 0.0
H284 H 0.0911 0.55313 0.84156 0.0
H285 H 0.12756 0.55271 0.83427 0.0
H286 H 0.06249 0.46971 0.85111 0.0
H287 H 0.08588 0.49091 0.83321 0.0
H288 H 0.04824 0.48963 0.84045 0.0
H289 H 0.1118 0.52748 0.94997 0.0
H290 H 1.0111 0.51494 0.95537 0.0
H291 H 1.00503 0.51442 0.92656 0.0
H292 H 0.08203 0.47496 0.92281 0.0
H293 H 0.13058 0.50081 0.92526 0.0
H294 H 0.10855 0.48459 0.90564 0.0
H295 H 0.14472 0.57703 0.92257 0.0
H296 H 0.16228 0.56736 0.90673 0.0
H297 H 0.16382 0.55685 0.92703 0.0
H298 H 0.20668 0.52777 0.88459 0.0
C299 C 0.1595 0.52603 0.88571 0.0
C300 C 0.96948 0.43656 0.45604 0.0
C301 C 0.939 0.40793 0.44848 0.0
C302 C 0.93601 0.40534 0.43152 0.0
C303 C 0.99245 0.45912 0.42969 0.0
C304 C 0.99578 0.46207 0.44637 0.0
C305 C 1.02927 0.49515 0.45198 0.0
H306 H 0.18201 0.64195 0.43056 0.0
C307 C 1.0234 0.48954 0.42299 0.0
C308 C 0.04532 0.51113 0.43594 0.0
H309 H 0.14741 0.61134 0.4791 0.0
H310 H 0.09348 0.55961 0.46848 0.0
H311 H 0.16214 0.57573 0.41545 0.0
H312 H 0.10683 0.61816 0.41774 0.0
H313 H 0.09337 0.59652 0.39911 0.0
H314 H 0.14089 0.62936 0.40303 0.0
H315 H 0.17563 0.60998 0.40433 0.0
H316 H 0.14256 0.56951 0.39624 0.0
C317 C 0.05485 0.49108 0.46131 0.0
C318 C 1.01677 0.51209 0.46212 0.0
C319 C 1.03403 0.49859 0.36187 0.0
C320 C 0.05874 0.52409 0.35198 0.0
C321 C 0.08757 0.55387 0.35925 0.0
C322 C 0.09198 0.55819 0.37607 0.0
C323 C 0.06714 0.53253 0.38584 0.0
C324 C 0.03857 0.50346 0.37872 0.0
C325 C 1.01403 0.47943 0.39105 0.0
C326 C 1.03291 0.49878 0.40675 0.0
C327 C 0.0641 0.52966 0.40358 0.0
C328 C 1.01498 0.45045 0.3888 0.0
C329 C 0.97568 0.47088 0.38896 0.0
C330 C 0.16302 0.62404 0.43894 0.0
C331 C 0.16924 0.6305 0.45564 0.0
C332 C 0.14326 0.60683 0.46614 0.0
C333 C 0.11208 0.57686 0.45996 0.0
C334 C 0.10655 0.57071 0.44309 0.0
C335 C 0.13184 0.59452 0.433 0.0
C336 C 0.12172 0.58517 0.4155 0.0
C337 C 0.08653 0.5515 0.41652 0.0
C338 C 0.07742 0.54264 0.43267 0.0
C339 C 0.15203 0.58523 0.4073 0.0
C340 C 0.11557 0.6085 0.40834 0.0
H341 H 0.95829 0.42678 0.40931 0.0
H342 H 0.97226 0.43923 0.46908 0.0
H343 H 0.99255 0.50797 0.45636 0.0
H344 H 1.03765 0.53843 0.46314 0.0
H345 H 1.00918 0.5027 0.47446 0.0
H346 H 0.0579 0.47412 0.45451 0.0
H347 H 0.04375 0.48125 0.47334 0.0
H348 H 0.08256 0.51381 0.46303 0.0
H349 H 1.01133 0.47555 0.35661 0.0
H350 H 0.10708 0.57376 0.35186 0.0
H351 H 0.11471 0.58137 0.38078 0.0
H352 H 0.04301 0.45878 0.38605 0.0
H353 H 0.99675 0.43397 0.37864 0.0
H354 H 1.00757 0.43658 0.39977 0.0
H355 H 0.97723 0.49077 0.38357 0.0
H356 H 0.96207 0.46732 0.40061 0.0
H357 H 0.9578 0.44905 0.38092 0.0
H358 H 0.91298 0.38351 0.42547 0.0
C359 C 0.96245 0.43056 0.42214 0.0
C360 C 0.58224 0.95518 0.78423 0.0
C361 C 0.5859 0.93339 0.77578 0.0
C362 C 0.58526 0.93238 0.75875 0.0
C363 C 0.57794 0.97435 0.75877 0.0
C364 C 0.57855 0.97559 0.77548 0.0
C365 C 0.57546 1.00103 0.78231 0.0
H366 H 0.5558 0.11691 0.76779 0.0
C367 C 0.57364 0.99832 0.75323 0.0
C368 C 0.57219 0.01421 0.76694 0.0
H369 H 0.56698 0.08916 0.81434 0.0
H370 H 0.57153 0.0495 0.80118 0.0
H371 H 0.6172 0.11638 0.75045 0.0
H372 H 0.50086 0.04707 0.75264 0.0
H373 H 0.51231 0.04284 0.73301 0.0
H374 H 0.52226 0.08064 0.73984 0.0
H375 H 0.58638 0.12057 0.74021 0.0
H376 H 0.60145 0.09895 0.73089 0.0
C377 C 0.61086 0.02668 0.79201 0.0
C378 C 0.54058 0.98434 0.7924 0.0
C379 C 0.56553 0.00887 0.69287 0.0
C380 C 0.55942 0.0276 0.68406 0.0
C381 C 0.55526 0.04906 0.69249 0.0
C382 C 0.55719 0.05189 0.70939 0.0
C383 C 0.56313 0.03293 0.71807 0.0
C384 C 0.56696 0.01173 0.70981 0.0
C385 C 0.57181 0.99277 0.7211 0.0
C386 C 0.57062 0.00633 0.73747 0.0
C387 C 0.56579 0.02997 0.73558 0.0
C388 C 0.60961 1.00085 0.71803 0.0
C389 C 0.53913 0.95668 0.71837 0.0
C390 C 0.55886 0.10214 0.77523 0.0
C391 C 0.56072 0.1061 0.79215 0.0
C392 C 0.56563 0.08676 0.80127 0.0
C393 C 0.56813 0.06366 0.79361 0.0
C394 C 0.56596 0.05995 0.77663 0.0
C395 C 0.56153 0.07922 0.7678 0.0
C396 C 0.56006 0.07258 0.74993 0.0
C397 C 0.56452 0.04624 0.74935 0.0
C398 C 0.56786 0.03865 0.76499 0.0
C399 C 0.59272 0.10365 0.74233 0.0
C400 C 0.52211 0.06035 0.74337 0.0
H401 H 0.58103 0.95046 0.73733 0.0
H402 H 0.58288 0.9567 0.79731 0.0
H403 H 0.51756 0.96187 0.78598 0.0
H404 H 0.53135 0.99924 0.79448 0.0
H405 H 0.54472 0.97779 0.80428 0.0
H406 H 0.63498 0.03127 0.78583 0.0
H407 H 0.61012 0.01862 0.8043 0.0
H408 H 0.61625 0.05028 0.79307 0.0
H409 H 0.56841 0.99191 0.68672 0.0
H410 H 0.55088 0.06396 0.68595 0.0
H411 H 0.55394 0.06877 0.71502 0.0
H412 H 0.62995 0.02655 0.71512 0.0
H413 H 0.60831 0.98595 0.70771 0.0
H414 H 0.62122 0.99791 0.72873 0.0
H415 H 0.514 0.95366 0.71491 0.0
H416 H 0.53178 0.9429 0.72939 0.0
H417 H 0.54456 0.94512 0.70855 0.0
H418 H 0.58746 0.91556 0.75194 0.0
C419 C 0.58131 0.95261 0.75026 0.0
C420 C 0.56432 0.41148 0.143 0.0
C421 C 0.58356 0.40032 0.13728 0.0
C422 C 0.58876 0.39948 0.12053 0.0
C423 C 0.55951 0.42446 0.11587 0.0
C424 C 0.55314 0.42379 0.13224 0.0
C425 C 0.53657 0.44014 0.13696 0.0
H426 H 0.48503 0.53009 0.11659 0.0
C427 C 0.54717 0.44156 0.10834 0.0
C428 C 0.53389 0.45082 0.12074 0.0
H429 H 0.48056 0.49479 0.16358 0.0
H430 H 0.5049 0.46841 0.15247 0.0
H431 H 0.56198 0.54521 0.10427 0.0
H432 H 0.44828 0.46643 0.09914 0.0
H433 H 0.46791 0.46205 0.08208 0.0
H434 H 0.4703 0.49768 0.08497 0.0
H435 H 0.52881 0.54596 0.09368 0.0
H436 H 0.55185 0.53211 0.08373 0.0
C437 C 0.56351 0.4691 0.14877 0.0
C438 C 0.49851 0.41476 0.14395 0.0
C439 C 0.5631 0.46352 0.04808 0.0
C440 C 0.55326 0.47863 0.03826 0.0
C441 C 0.53368 0.48882 0.04518 0.0
C442 C 0.52602 0.486 0.0616 0.0
C443 C 0.53747 0.47238 0.07136 0.0
C444 C 0.55458 0.4604 0.06458 0.0
C445 C 0.56241 0.44484 0.07695 0.0
C446 C 0.54769 0.45013 0.0922 0.0
C447 C 0.53393 0.46695 0.08877 0.0
C448 C 0.60409 0.46325 0.07809 0.0
C449 C 0.54068 0.40872 0.07199 0.0
C450 C 0.48926 0.51672 0.12456 0.0
C451 C 0.48095 0.51477 0.14105 0.0
C452 C 0.48732 0.49729 0.15091 0.0
C453 C 0.50101 0.48158 0.14438 0.0
C454 C 0.50825 0.48317 0.12777 0.0
C455 C 0.50209 0.50035 0.11818 0.0
C456 C 0.50881 0.49766 0.10064 0.0
C457 C 0.52149 0.47698 0.10137 0.0
C458 C 0.52129 0.46878 0.11726 0.0
C459 C 0.53933 0.53195 0.09515 0.0
C460 C 0.47214 0.48027 0.09112 0.0
H461 H 0.58237 0.41113 0.09719 0.0
H462 H 0.55967 0.4122 0.1558 0.0
H463 H 0.48508 0.39084 0.1376 0.0
H464 H 0.47943 0.42053 0.1423 0.0
H465 H 0.50057 0.4118 0.15699 0.0
H466 H 0.59225 0.47987 0.14583 0.0
H467 H 0.55915 0.46157 0.16145 0.0
H468 H 0.5619 0.48918 0.14806 0.0
H469 H 0.57774 0.455 0.04318 0.0
H470 H 0.52423 0.49919 0.0379 0.0
H471 H 0.51176 0.49489 0.06604 0.0
H472 H 0.6186 0.48963 0.07768 0.0
H473 H 0.61366 0.45593 0.06787 0.0
H474 H 0.61311 0.45987 0.08953 0.0
H475 H 0.51318 0.39886 0.06718 0.0
H476 H 0.53569 0.39382 0.08225 0.0
H477 H 0.55485 0.40495 0.06241 0.0
H478 H 0.60373 0.39111 0.11586 0.0
C479 C 0.57672 0.41145 0.10976 0.0
H480 H 0.24456 0.56382 0.16139 0.0
H481 H 0.30328 0.58079 0.17219 0.0
H482 H 0.28076 0.49273 0.15257 0.0
H483 H 0.22321 0.47628 0.14122 0.0
H484 H 0.31495 0.51192 0.18386 0.0
H485 H 0.32583 0.55547 0.1298 0.0
H486 H 0.32068 0.58908 0.1119 0.0
H487 H 0.38872 0.67091 0.14466 0.0
H488 H 0.3939 0.63758 0.16282 0.0
H489 H 0.43028 0.51611 0.12558 0.0
H490 H 0.39714 0.53492 0.13609 0.0
H491 H 0.45373 0.56084 0.18198 0.0
H492 H 0.48901 0.54329 0.1712 0.0
H493 H 0.41706 0.59414 0.15029 0.0
H494 H 0.38266 0.53528 0.20855 0.0
H495 H 0.38578 0.49689 0.22322 0.0
H496 H 0.36314 0.44145 0.17902 0.0
H497 H 0.35965 0.47943 0.16416 0.0
C498 C 0.25222 0.54814 0.15935 0.0
C499 C 0.22941 0.51887 0.15024 0.0
C500 C 0.28544 0.55766 0.16575 0.0
C501 C 0.29608 0.53786 0.16329 0.0
C502 C 0.27268 0.50808 0.15484 0.0
C503 C 0.2398 0.49874 0.1483 0.0
C504 C 0.33336 0.54937 0.16722 0.0
C505 C 0.3378 0.53076 0.17704 0.0
C506 C 0.36323 0.57415 0.15849 0.0
C507 C 0.35996 0.59407 0.14769 0.0
C508 C 0.33949 0.58059 0.1332 0.0
C509 C 0.33659 0.59957 0.12302 0.0
C510 C 0.35438 0.63211 0.12714 0.0
C511 C 0.375 0.64571 0.14148 0.0
C512 C 0.37788 0.62679 0.15174 0.0
C513 C 0.43693 0.52686 0.13772 0.0
C514 C 0.46268 0.52841 0.14747 0.0
C515 C 0.41778 0.53758 0.14373 0.0
C516 C 0.42333 0.54961 0.15973 0.0
C517 C 0.4494 0.55188 0.16954 0.0
C518 C 0.46914 0.54149 0.16341 0.0
C519 C 0.39784 0.55539 0.16613 0.0
C520 C 0.39543 0.5772 0.15823 0.0
C521 C 0.36977 0.5334 0.17651 0.0
C522 C 0.37118 0.51021 0.18529 0.0
C523 C 0.37829 0.51483 0.20201 0.0
C524 C 0.38012 0.49318 0.21034 0.0
C525 C 0.37474 0.46678 0.20205 0.0
C526 C 0.36737 0.46192 0.18542 0.0
C527 C 0.36544 0.48348 0.17704 0.0
H528 H 0.37623 0.45008 0.20851 0.0
H529 H 0.35222 0.64679 0.11921 0.0
H530 H 0.69283 0.11731 0.49494 0.0
H531 H 0.74849 0.17228 0.49193 0.0
H532 H 0.68603 0.19696 0.46869 0.0
H533 H 0.63068 0.14229 0.47143 0.0
H534 H 0.74462 0.21746 0.45193 0.0
H535 H 0.72059 0.22325 0.50814 0.0
H536 H 0.70952 0.20668 0.53635 0.0
H537 H 0.81345 0.22523 0.53895 0.0
H538 H 0.82493 0.24151 0.51067 0.0
H539 H 0.8679 0.38338 0.44854 0.0
H540 H 0.81658 0.33126 0.45809 0.0
H541 H 0.89116 0.31636 0.4775 0.0
H542 H 0.94288 0.3692 0.46818 0.0
H543 H 0.82991 0.29009 0.49664 0.0
H544 H 0.85469 0.28567 0.44083 0.0
H545 H 0.86626 0.30279 0.41273 0.0
H546 H 0.76069 0.28085 0.40931 0.0
H547 H 0.74873 0.26414 0.43751 0.0
C548 C 0.69089 0.13451 0.4893 0.0
C549 C 0.65713 0.12519 0.4834 0.0
C550 C 0.72279 0.16603 0.48763 0.0
C551 C 0.72161 0.18901 0.48014 0.0
C552 C 0.68784 0.17979 0.47447 0.0
C553 C 0.65607 0.1484 0.47609 0.0
C554 C 0.75545 0.22227 0.47754 0.0
C555 C 0.76295 0.23339 0.46178 0.0
C556 C 0.78026 0.24292 0.49023 0.0
C557 C 0.77345 0.23326 0.50724 0.0
C558 C 0.74096 0.22354 0.51469 0.0
C559 C 0.73463 0.21425 0.53069 0.0
C560 C 0.76072 0.21481 0.53942 0.0
C561 C 0.79324 0.22476 0.53217 0.0
C562 C 0.79968 0.23404 0.51616 0.0
C563 C 0.87336 0.36939 0.45527 0.0
C564 C 0.90933 0.38031 0.45764 0.0
C565 C 0.84402 0.33949 0.46062 0.0
C566 C 0.84987 0.31945 0.46821 0.0
C567 C 0.8859 0.33127 0.47163 0.0
C568 C 0.91544 0.3615 0.46637 0.0
C569 C 0.81839 0.28535 0.47112 0.0
C570 C 0.81152 0.27406 0.48684 0.0
C571 C 0.79408 0.26436 0.45839 0.0
C572 C 0.80094 0.2739 0.44133 0.0
C573 C 0.83403 0.28469 0.43412 0.0
C574 C 0.84065 0.29431 0.41817 0.0
C575 C 0.81425 0.29296 0.40925 0.0
C576 C 0.78113 0.28191 0.41625 0.0
C577 C 0.7744 0.27234 0.43221 0.0
H578 H 0.81943 0.30043 0.3969 0.0
H579 H 0.75577 0.20761 0.55181 0.0
H580 H 0.64755 0.73517 0.79939 0.0
H581 H 0.64199 0.77799 0.79584 0.0
H582 H 0.56191 0.7402 0.83316 0.0
H583 H 0.56834 0.69775 0.83724 0.0
H584 H 0.54212 0.75634 0.80551 0.0
H585 H 0.64323 0.80572 0.84213 0.0
H586 H 0.70206 0.82149 0.85247 0.0
H587 H 0.75517 0.87582 0.81042 0.0
H588 H 0.69653 0.85997 0.79969 0.0
H589 H 0.54698 0.89533 0.80121 0.0
H590 H 0.55044 0.85485 0.81285 0.0
H591 H 0.63776 0.88111 0.78082 0.0
H592 H 0.63483 0.9217 0.76943 0.0
H593 H 0.65112 0.87083 0.81024 0.0
H594 H 0.54947 0.816 0.77221 0.0
H595 H 0.49075 0.79954 0.76125 0.0
H596 H 0.43889 0.75514 0.80562 0.0
H597 H 0.49748 0.77175 0.81693 0.0
C598 C 0.62905 0.73609 0.80701 0.0
C599 C 0.60847 0.71296 0.81866 0.0
C600 C 0.62579 0.76057 0.80491 0.0
C601 C 0.60179 0.76253 0.81433 0.0
C602 C 0.58061 0.73917 0.82575 0.0
C603 C 0.58414 0.71479 0.82799 0.0
C604 C 0.59907 0.78905 0.81209 0.0
C605 C 0.56576 0.78141 0.80687 0.0
C606 C 0.63002 0.82175 0.81364 0.0
C607 C 0.6654 0.83143 0.82005 0.0
C608 C 0.6674 0.82081 0.83502 0.0
C609 C 0.70072 0.82981 0.84096 0.0
C610 C 0.73232 0.84959 0.8321 0.0
C611 C 0.73066 0.86047 0.81727 0.0
C612 C 0.69739 0.85152 0.81126 0.0
C613 C 0.56731 0.8928 0.79688 0.0
C614 C 0.59039 0.91149 0.78429 0.0
C615 C 0.56907 0.86949 0.80344 0.0
C616 C 0.59402 0.86456 0.79755 0.0
C617 C 0.61818 0.8843 0.78553 0.0
C618 C 0.61633 0.90739 0.77896 0.0
C619 C 0.59438 0.83815 0.80329 0.0
C620 C 0.6273 0.8458 0.80915 0.0
C621 C 0.5631 0.80547 0.80227 0.0
C622 C 0.52792 0.79548 0.79549 0.0
C623 C 0.5256 0.80298 0.77968 0.0
C624 C 0.49235 0.79358 0.77339 0.0
C625 C 0.46114 0.7764 0.78275 0.0
C626 C 0.46311 0.76851 0.7984 0.0
C627 C 0.49633 0.77791 0.80476 0.0
H628 H 0.43541 0.76913 0.77786 0.0
H629 H 0.7581 0.85654 0.83672 0.0
H630 H 0.83485 0.41969 0.20998 0.0
H631 H 0.76819 0.384 0.20888 0.0
H632 H 0.76901 0.46631 0.20591 0.0
H633 H 0.83511 0.50176 0.20624 0.0
H634 H 0.70204 0.40733 0.22014 0.0
H635 H 0.78173 0.44602 0.17061 0.0
H636 H 0.83222 0.45178 0.15619 0.0
H637 H 0.78062 0.35133 0.1611 0.0
H638 H 0.73001 0.34516 0.17568 0.0
H639 H 0.62288 0.43724 0.16372 0.0
H640 H 0.65616 0.42953 0.18265 0.0
H641 H 0.62025 0.34143 0.15665 0.0
H642 H 0.58689 0.34954 0.13719 0.0
H643 H 0.68933 0.37655 0.16171 0.0
H644 H 0.5938 0.34054 0.19718 0.0
H645 H 0.54491 0.33782 0.21125 0.0
H646 H 0.62388 0.43065 0.23437 0.0
H647 H 0.67324 0.43424 0.22027 0.0
C648 C 0.82073 0.43018 0.20965 0.0
C649 C 0.84019 0.46336 0.20757 0.0
C650 C 0.7827 0.40981 0.20924 0.0
C651 C 0.76387 0.42257 0.20704 0.0
C652 C 0.78315 0.45605 0.20763 0.0
C653 C 0.82112 0.47636 0.2078 0.0
C654 C 0.72711 0.40252 0.19953 0.0
C655 C 0.6986 0.39985 0.20747 0.0
C656 C 0.72245 0.39177 0.18317 0.0
C657 C 0.75222 0.39513 0.17413 0.0
C658 C 0.7812 0.42519 0.16855 0.0
C659 C 0.80981 0.42854 0.16039 0.0
C660 C 0.80955 0.40192 0.15767 0.0
C661 C 0.78074 0.37191 0.16317 0.0
C662 C 0.75208 0.36846 0.17137 0.0
C663 C 0.62123 0.41575 0.16221 0.0
C664 C 0.60192 0.39377 0.14908 0.0
C665 C 0.64009 0.4112 0.17317 0.0
C666 C 0.63984 0.38433 0.17144 0.0
C667 C 0.62033 0.36207 0.15838 0.0
C668 C 0.60153 0.3668 0.14724 0.0
C669 C 0.66433 0.38272 0.18204 0.0
C670 C 0.69101 0.38174 0.17462 0.0
C671 C 0.66682 0.38957 0.19894 0.0
C672 C 0.63732 0.38759 0.20766 0.0
C673 C 0.60078 0.36045 0.20522 0.0
C674 C 0.57296 0.35876 0.2132 0.0
C675 C 0.58129 0.38403 0.22371 0.0
C676 C 0.61748 0.41104 0.22626 0.0
C677 C 0.64542 0.41287 0.21831 0.0
H678 H 0.5597 0.38268 0.22987 0.0
H679 H 0.83167 0.4046 0.15127 0.0
H680 H 0.47694 0.90882 0.49495 0.0
H681 H 0.42319 0.85249 0.49223 0.0
H682 H 0.37473 0.87766 0.45852 0.0
H683 H 0.42854 0.9341 0.4611 0.0
H684 H 0.35348 0.82154 0.49893 0.0
H685 H 0.32332 0.81506 0.4302 0.0
H686 H 0.35578 0.83672 0.40466 0.0
H687 H 0.4526 0.85788 0.4262 0.0
H688 H 0.42063 0.83598 0.45179 0.0
H689 H 0.17569 0.67539 0.47698 0.0
H690 H 0.2305 0.73074 0.48291 0.0
H691 H 0.29357 0.71196 0.45343 0.0
H692 H 0.23887 0.65731 0.44718 0.0
H693 H 0.30859 0.76474 0.44518 0.0
H694 H 0.30204 0.7224 0.49617 0.0
H695 H 0.27383 0.69473 0.52142 0.0
H696 H 0.25879 0.76556 0.53569 0.0
H697 H 0.28651 0.79344 0.51041 0.0
C698 C 0.45489 0.90246 0.48694 0.0
C699 C 0.45725 0.92616 0.47822 0.0
C700 C 0.42402 0.87015 0.48545 0.0
C701 C 0.39482 0.86059 0.4751 0.0
C702 C 0.39697 0.88423 0.46646 0.0
C703 C 0.42778 0.9166 0.468 0.0
C704 C 0.3623 0.82594 0.4733 0.0
C705 C 0.3436 0.80916 0.48716 0.0
C706 C 0.34962 0.80935 0.45801 0.0
C707 C 0.36966 0.8242 0.44297 0.0
C708 C 0.35157 0.82443 0.4295 0.0
C709 C 0.36984 0.83663 0.415 0.0
C710 C 0.40616 0.84852 0.4138 0.0
C711 C 0.42444 0.84861 0.42715 0.0
C712 C 0.4063 0.83642 0.44167 0.0
C713 C 0.20146 0.68298 0.47207 0.0
C714 C 0.20299 0.66206 0.4616 0.0
C715 C 0.23283 0.71465 0.47544 0.0
C716 C 0.26645 0.72582 0.46861 0.0
C717 C 0.2681 0.70428 0.45875 0.0
C718 C 0.23682 0.67292 0.45524 0.0
C719 C 0.29947 0.76026 0.47079 0.0
C720 C 0.31822 0.7771 0.45697 0.0
C721 C 0.31274 0.77653 0.48613 0.0
C722 C 0.296 0.75981 0.50132 0.0
C723 C 0.29244 0.73193 0.50463 0.0
C724 C 0.2766 0.71623 0.51896 0.0
C725 C 0.26443 0.72832 0.53013 0.0
C726 C 0.26817 0.75619 0.52701 0.0
C727 C 0.28398 0.77196 0.51269 0.0
H728 H 0.25217 0.71615 0.54122 0.0
H729 H 0.42016 0.85773 0.40252 0.0
H730 H 0.58199 0.34852 0.8578 0.0
H731 H 0.5881 0.30595 0.85114 0.0
H732 H 0.50919 0.26988 0.81228 0.0
H733 H 0.50301 0.31225 0.81884 0.0
H734 H 0.49477 0.22184 0.83171 0.0
H735 H 0.59669 0.30894 0.80265 0.0
H736 H 0.654 0.36328 0.79925 0.0
H737 H 0.70645 0.34726 0.83549 0.0
H738 H 0.64943 0.29272 0.83904 0.0
H739 H 0.51368 0.11886 0.78411 0.0
H740 H 0.51157 0.16148 0.79516 0.0
H741 H 0.59771 0.19095 0.82923 0.0
H742 H 0.60077 0.1487 0.81779 0.0
H743 H 0.61036 0.2423 0.81539 0.0
H744 H 0.50973 0.15186 0.84162 0.0
H745 H 0.45289 0.09679 0.84377 0.0
H746 H 0.39721 0.11889 0.8131 0.0
H747 H 0.45386 0.17397 0.81057 0.0
C748 C 0.56591 0.33146 0.84786 0.0
C749 C 0.54202 0.33378 0.83884 0.0
C750 C 0.56963 0.3073 0.84399 0.0
C751 C 0.54917 0.28476 0.83117 0.0
C752 C 0.52527 0.28701 0.8222 0.0
C753 C 0.52193 0.31136 0.82591 0.0
C754 C 0.55167 0.25817 0.82732 0.0
C755 C 0.51997 0.2263 0.82802 0.0
C756 C 0.58477 0.26393 0.82301 0.0
C757 C 0.61876 0.29692 0.82121 0.0
C758 C 0.62039 0.3171 0.80996 0.0
C759 C 0.65287 0.34783 0.80792 0.0
C760 C 0.68386 0.35869 0.81712 0.0
C761 C 0.68244 0.3388 0.82835 0.0
C762 C 0.6501 0.30794 0.83034 0.0
C763 C 0.53225 0.13439 0.79395 0.0
C764 C 0.55754 0.13041 0.8 0.0
C765 C 0.53076 0.15861 0.80038 0.0
C766 C 0.55423 0.17933 0.81316 0.0
C767 C 0.57924 0.17523 0.8194 0.0
C768 C 0.58075 0.15089 0.81295 0.0
C769 C 0.55325 0.20585 0.81948 0.0
C770 C 0.58522 0.23773 0.81929 0.0
C771 C 0.52035 0.2001 0.82429 0.0
C772 C 0.48615 0.167 0.82582 0.0
C773 C 0.48544 0.14492 0.83524 0.0
C774 C 0.45324 0.1137 0.83654 0.0
C775 C 0.42148 0.10433 0.82856 0.0
C776 C 0.42184 0.12618 0.81928 0.0
C777 C 0.45398 0.15742 0.81792 0.0
H778 H 0.39658 0.08015 0.82958 0.0
H779 H 0.70892 0.38256 0.8156 0.0
H780 H 0.53355 0.83792 0.49301 0.0
H781 H 0.52831 0.78886 0.49536 0.0
H782 H 0.62449 0.84101 0.52612 0.0
H783 H 0.63086 0.89026 0.52323 0.0
H784 H 0.6265 0.80282 0.5052 0.0
H785 H 0.53614 0.79128 0.54108 0.0
H786 H 0.48216 0.78839 0.54769 0.0
H787 H 0.41711 0.70773 0.51398 0.0
H788 H 0.47085 0.71041 0.50702 0.0
H789 H 0.61418 0.69082 0.55417 0.0
H790 H 0.61574 0.73334 0.54215 0.0
H791 H 0.52321 0.66257 0.51159 0.0
H792 H 0.52139 0.61958 0.52378 0.0
H793 H 0.51489 0.70524 0.5272 0.0
H794 H 0.6043 0.71205 0.49473 0.0
H795 H 0.65845 0.71481 0.48891 0.0
H796 H 0.72563 0.80426 0.51662 0.0
H797 H 0.6718 0.80182 0.52282 0.0
C798 C 0.55382 0.83904 0.50013 0.0
C799 C 0.58248 0.86808 0.50804 0.0
C800 C 0.55059 0.81087 0.50158 0.0
C801 C 0.57576 0.8111 0.51108 0.0
C802 C 0.60466 0.84015 0.51875 0.0
C803 C 0.60802 0.86827 0.51725 0.0
C804 C 0.57209 0.78122 0.51333 0.0
C805 C 0.60215 0.78154 0.51009 0.0
C806 C 0.53988 0.75298 0.51916 0.0
C807 C 0.50758 0.75129 0.5234 0.0
C808 C 0.51038 0.77308 0.53499 0.0
C809 C 0.47982 0.77146 0.53882 0.0
C810 C 0.44625 0.74796 0.53122 0.0
C811 C 0.44314 0.72596 0.51983 0.0
C812 C 0.47363 0.72751 0.51594 0.0
C813 C 0.59432 0.68431 0.5448 0.0
C814 C 0.56755 0.65189 0.53996 0.0
C815 C 0.59539 0.70865 0.53786 0.0
C816 C 0.56975 0.70119 0.52589 0.0
C817 C 0.54333 0.66886 0.52077 0.0
C818 C 0.54244 0.64438 0.52765 0.0
C819 C 0.56972 0.72729 0.51956 0.0
C820 C 0.53899 0.72627 0.52202 0.0
C821 C 0.60136 0.75495 0.51307 0.0
C822 C 0.63392 0.75664 0.50931 0.0
C823 C 0.63057 0.7322 0.49968 0.0
C824 C 0.66122 0.73372 0.4963 0.0
C825 C 0.69545 0.75967 0.50241 0.0
C826 C 0.6991 0.78418 0.5119 0.0
C827 C 0.66852 0.78276 0.51532 0.0
H828 H 0.71915 0.7608 0.49978 0.0
H829 H 0.42263 0.74674 0.5342 0.0
H830 H 0.70597 0.5648 0.82668 0.0
H831 H 0.75824 0.56369 0.82751 0.0
H832 H 0.69874 0.48273 0.85809 0.0
H833 H 0.64612 0.48292 0.85662 0.0
H834 H 0.80594 0.57349 0.84644 0.0
H835 H 0.7303 0.43968 0.8589 0.0
H836 H 0.66909 0.3882 0.854 0.0
H837 H 0.65576 0.42434 0.81143 0.0
H838 H 0.71697 0.47587 0.81597 0.0
H839 H 0.93797 0.55412 0.87242 0.0
H840 H 0.88531 0.55335 0.86898 0.0
H841 H 0.85319 0.49239 0.82595 0.0
H842 H 0.90608 0.49235 0.82966 0.0
H843 H 0.79199 0.47196 0.84122 0.0
H844 H 0.89184 0.57711 0.82619 0.0
H845 H 0.95191 0.63026 0.82908 0.0
H846 H 0.91722 0.65253 0.87202 0.0
H847 H 0.85707 0.59933 0.86951 0.0
C848 C 0.70371 0.5465 0.8335 0.0
C849 C 0.67083 0.52377 0.84143 0.0
C850 C 0.73412 0.54592 0.83404 0.0
C851 C 0.73348 0.52268 0.8426 0.0
C852 C 0.7008 0.50045 0.85084 0.0
C853 C 0.67027 0.50075 0.85011 0.0
C854 C 0.76669 0.52209 0.84306 0.0
C855 C 0.80242 0.55107 0.84533 0.0
C856 C 0.76381 0.49334 0.84131 0.0
C857 C 0.72805 0.46174 0.83789 0.0
C858 C 0.71442 0.43654 0.84843 0.0
C859 C 0.67965 0.40743 0.84576 0.0
C860 C 0.65842 0.40319 0.83253 0.0
C861 C 0.67212 0.42779 0.82176 0.0
C862 C 0.70684 0.45693 0.82436 0.0
C863 C 0.91994 0.54032 0.86215 0.0
C864 C 0.92727 0.52315 0.85142 0.0
C865 C 0.88941 0.54018 0.86008 0.0
C866 C 0.86424 0.52308 0.84706 0.0
C867 C 0.87145 0.50597 0.83619 0.0
C868 C 0.90234 0.50622 0.83823 0.0
C869 C 0.83104 0.52332 0.84502 0.0
C870 C 0.79539 0.49432 0.8424 0.0
C871 C 0.83398 0.55211 0.84619 0.0
C872 C 0.87006 0.58412 0.84773 0.0
C873 C 0.89711 0.59326 0.83631 0.0
C874 C 0.93116 0.62341 0.83787 0.0
C875 C 0.93841 0.64473 0.85074 0.0
C876 C 0.91158 0.63597 0.86206 0.0
C877 C 0.87749 0.60584 0.86057 0.0
H878 H 0.96479 0.66806 0.85193 0.0
H879 H 0.63148 0.38072 0.83051 0.0
H880 H 0.16475 0.60117 0.13619 0.0
H881 H 0.22155 0.6562 0.13718 0.0
H882 H 0.18057 0.68146 0.17661 0.0
H883 H 0.12353 0.62696 0.17536 0.0
H884 H 0.21079 0.72664 0.15585 0.0
H885 H 0.24724 0.66707 0.18064 0.0
H886 H 0.25645 0.6254 0.18114 0.0
H887 H 0.32484 0.66482 0.13983 0.0
H888 H 0.31574 0.70638 0.13897 0.0
H889 H 0.36541 0.86833 0.1915 0.0
H890 H 0.31168 0.81406 0.18431 0.0
H891 H 0.37011 0.8069 0.14582 0.0
H892 H 0.42496 0.86135 0.15346 0.0
H893 H 0.3329 0.75304 0.16196 0.0
H894 H 0.30203 0.81432 0.13792 0.0
H895 H 0.29419 0.85662 0.13615 0.0
H896 H 0.21571 0.81437 0.17387 0.0
H897 H 0.22345 0.77205 0.17603 0.0
C898 C 0.16787 0.6184 0.14512 0.0
C899 C 0.13938 0.6095 0.15568 0.0
C900 C 0.20053 0.64992 0.14573 0.0
C901 C 0.20575 0.67316 0.15709 0.0
C902 C 0.17738 0.66417 0.16769 0.0
C903 C 0.14467 0.63285 0.16698 0.0
C904 C 0.24013 0.70706 0.15783 0.0
C905 C 0.23742 0.73232 0.15736 0.0
C906 C 0.27524 0.7148 0.15907 0.0
C907 C 0.28054 0.68966 0.15966 0.0
C908 C 0.26403 0.66669 0.1716 0.0
C909 C 0.26928 0.6431 0.17196 0.0
C910 C 0.29121 0.64242 0.16052 0.0
C911 C 0.30789 0.66531 0.14869 0.0
C912 C 0.30272 0.6889 0.14827 0.0
C913 C 0.36698 0.85532 0.18148 0.0
C914 C 0.39974 0.86925 0.17315 0.0
C915 C 0.33597 0.82426 0.17726 0.0
C916 C 0.33646 0.80624 0.16439 0.0
C917 C 0.3689 0.82024 0.15578 0.0
C918 C 0.40017 0.85151 0.16005 0.0
C919 C 0.30336 0.77251 0.16051 0.0
C920 C 0.30628 0.74733 0.16033 0.0
C921 C 0.26841 0.76478 0.1585 0.0
C922 C 0.26352 0.79011 0.15721 0.0
C923 C 0.28328 0.81416 0.14592 0.0
C924 C 0.27883 0.83813 0.14483 0.0
C925 C 0.25451 0.83821 0.15491 0.0
C926 C 0.23454 0.81428 0.16607 0.0
C927 C 0.23891 0.79026 0.16722 0.0
H928 H 0.25111 0.85679 0.15405 0.0
H929 H 0.29541 0.62428 0.16083 0.0
H930 H 0.48334 0.17308 0.46671 0.0
H931 H 0.4907 0.22245 0.47397 0.0
H932 H 0.58081 0.25348 0.50579 0.0
H933 H 0.57437 0.20469 0.49831 0.0
H934 H 0.53108 0.25877 0.52036 0.0
H935 H 0.59635 0.2883 0.47064 0.0
H936 H 0.60446 0.28204 0.44168 0.0
H937 H 0.51698 0.2856 0.42961 0.0
H938 H 0.50798 0.29142 0.45855 0.0
H939 H 0.60139 0.41863 0.53896 0.0
H940 H 0.5956 0.37179 0.52792 0.0
H941 H 0.5077 0.34761 0.49646 0.0
H942 H 0.51327 0.3946 0.50754 0.0
H943 H 0.55353 0.33785 0.48114 0.0
H944 H 0.48835 0.30885 0.53048 0.0
H945 H 0.47955 0.31498 0.55937 0.0
H946 H 0.56521 0.30933 0.57205 0.0
H947 H 0.57492 0.30369 0.5432 0.0
C948 C 0.50514 0.19061 0.47505 0.0
C949 C 0.52819 0.18474 0.48194 0.0
C950 C 0.50921 0.2188 0.47923 0.0
C951 C 0.53637 0.2417 0.49039 0.0
C952 C 0.55955 0.23606 0.49721 0.0
C953 C 0.55567 0.20802 0.49297 0.0
C954 C 0.53999 0.27109 0.4954 0.0
C955 C 0.53646 0.27626 0.51181 0.0
C956 C 0.54586 0.29341 0.48417 0.0
C957 C 0.55123 0.28993 0.46677 0.0
C958 C 0.57861 0.28745 0.46182 0.0
C959 C 0.58342 0.28404 0.44541 0.0
C960 C 0.56118 0.28332 0.43381 0.0
C961 C 0.53414 0.2861 0.43861 0.0
C962 C 0.5292 0.28948 0.45502 0.0
C963 C 0.58082 0.40339 0.52968 0.0
C964 C 0.55745 0.4101 0.52429 0.0
C965 C 0.5776 0.37665 0.52335 0.0
C966 C 0.55078 0.35585 0.51158 0.0
C967 C 0.52851 0.36328 0.50559 0.0
C968 C 0.53178 0.39016 0.5119 0.0
C969 C 0.54513 0.3257 0.50613 0.0
C970 C 0.5481 0.32032 0.48967 0.0
C971 C 0.53853 0.30302 0.51729 0.0
C972 C 0.53258 0.30615 0.53467 0.0
C973 C 0.5055 0.30916 0.53942 0.0
C974 C 0.50032 0.31252 0.55579 0.0
C975 C 0.52187 0.31263 0.56754 0.0
C976 C 0.54857 0.30929 0.56294 0.0
C977 C 0.55391 0.30599 0.54658 0.0
H978 H 0.51781 0.31522 0.58021 0.0
H979 H 0.56495 0.2807 0.42111 0.0
H980 H 0.48717 0.54904 0.82324 0.0
H981 H 0.43409 0.54863 0.82336 0.0
H982 H 0.39692 0.49467 0.86657 0.0
H983 H 0.44854 0.49272 0.86552 0.0
H984 H 0.34003 0.47528 0.85415 0.0
H985 H 0.44289 0.58801 0.86005 0.0
H986 H 0.50067 0.63896 0.85241 0.0
H987 H 0.45175 0.63441 0.80754 0.0
H988 H 0.39392 0.58328 0.8148 0.0
H989 H 0.26042 0.57377 0.86435 0.0
H990 H 0.31181 0.57237 0.86025 0.0
H991 H 0.23935 0.47722 0.83794 0.0
H992 H 0.18747 0.47838 0.84261 0.0
H993 H 0.35069 0.57145 0.83992 0.0
H994 H 0.2728 0.43404 0.84039 0.0
H995 H 0.21672 0.38624 0.85149 0.0
H996 H 0.21909 0.44542 0.88969 0.0
H997 H 0.27539 0.49348 0.87892 0.0
C998 C 0.46779 0.53704 0.83283 0.0
C999 C 0.4731 0.52105 0.84441 0.0
C1000 C 0.43707 0.53717 0.83306 0.0
C1001 C 0.41057 0.52257 0.84532 0.0
C1002 C 0.41594 0.50641 0.85685 0.0
C1003 C 0.44608 0.5054 0.85631 0.0
C1004 C 0.37754 0.52362 0.84608 0.0
C1005 C 0.34291 0.49655 0.85096 0.0
C1006 C 0.37943 0.55099 0.84224 0.0
C1007 C 0.41421 0.58169 0.83791 0.0
C1008 C 0.44455 0.59782 0.84853 0.0
C1009 C 0.4773 0.62672 0.84426 0.0
C1010 C 0.47985 0.63985 0.82949 0.0
C1011 C 0.44972 0.62417 0.81896 0.0
C1012 C 0.41698 0.59525 0.82314 0.0
C1013 C 0.25531 0.55276 0.85814 0.0
C1014 C 0.21909 0.52654 0.85351 0.0
C1015 C 0.28516 0.55183 0.85588 0.0
C1016 C 0.2807 0.52445 0.84901 0.0
C1017 C 0.24465 0.49865 0.84367 0.0
C1018 C 0.21459 0.49956 0.846 0.0
C1019 C 0.31342 0.52315 0.84788 0.0
C1020 C 0.34794 0.55019 0.84301 0.0
C1021 C 0.31167 0.4961 0.85212 0.0
C1022 C 0.27803 0.46736 0.85873 0.0
C1023 C 0.26138 0.43681 0.85118 0.0
C1024 C 0.22956 0.40969 0.85741 0.0
C1025 C 0.21428 0.41281 0.87125 0.0
C1026 C 0.23087 0.44305 0.87893 0.0
C1027 C 0.26271 0.47024 0.87277 0.0
H1028 H 0.18964 0.39179 0.87604 0.0
H1029 H 0.50511 0.66221 0.82619 0.0
H1030 H 0.90174 0.4273 0.16092 0.0
H1031 H 0.84719 0.37246 0.16419 0.0
H1032 H 0.90543 0.33598 0.14877 0.0
H1033 H 0.9603 0.39099 0.14541 0.0
H1034 H 0.83996 0.2985 0.13606 0.0
H1035 H 0.88694 0.34364 0.18953 0.0
H1036 H 0.90797 0.38233 0.21277 0.0
H1037 H 0.80285 0.3615 0.21504 0.0
H1038 H 0.78169 0.32381 0.19138 0.0
H1039 H 0.71461 0.14223 0.16946 0.0
H1040 H 0.76612 0.1954 0.16062 0.0
H1041 H 0.70917 0.23384 0.17496 0.0
H1042 H 0.65837 0.18099 0.18415 0.0
H1043 H 0.77407 0.26994 0.18768 0.0
H1044 H 0.72703 0.22522 0.13417 0.0
H1045 H 0.7054 0.18576 0.11125 0.0
H1046 H 0.80924 0.20398 0.10977 0.0
H1047 H 0.83135 0.24326 0.13283 0.0
C1048 C 0.90319 0.40778 0.15831 0.0
C1049 C 0.93582 0.41388 0.15314 0.0
C1050 C 0.87174 0.37623 0.16013 0.0
C1051 C 0.87203 0.34983 0.15698 0.0
C1052 C 0.90429 0.35577 0.15134 0.0
C1053 C 0.93576 0.38737 0.14944 0.0
C1054 C 0.83898 0.31621 0.15982 0.0
C1055 C 0.82583 0.29221 0.14743 0.0
C1056 C 0.81982 0.30785 0.17452 0.0
C1057 C 0.83284 0.3311 0.18856 0.0
C1058 C 0.86847 0.34766 0.19483 0.0
C1059 C 0.88045 0.3695 0.20806 0.0
C1060 C 0.85685 0.37458 0.2153 0.0
C1061 C 0.82123 0.35782 0.20932 0.0
C1062 C 0.80927 0.3363 0.19597 0.0
C1063 C 0.71272 0.16185 0.17018 0.0
C1064 C 0.68234 0.15746 0.17723 0.0
C1065 C 0.74221 0.1923 0.16519 0.0
C1066 C 0.74172 0.21888 0.16705 0.0
C1067 C 0.71044 0.21392 0.17339 0.0
C1068 C 0.68121 0.18364 0.17849 0.0
C1069 C 0.77475 0.25229 0.16387 0.0
C1070 C 0.78805 0.27624 0.17626 0.0
C1071 C 0.79395 0.26053 0.14921 0.0
C1072 C 0.78073 0.23695 0.13533 0.0
C1073 C 0.74516 0.22062 0.12904 0.0
C1074 C 0.73283 0.19833 0.116 0.0
C1075 C 0.75589 0.1923 0.10908 0.0
C1076 C 0.79138 0.20864 0.11516 0.0
C1077 C 0.80384 0.23094 0.1282 0.0
H1078 H 0.7463 0.17504 0.09899 0.0
H1079 H 0.86611 0.39139 0.22558 0.0
H1080 H 1.01025 0.48006 0.10604 0.0
H1081 H 1.02254 0.4813 0.07727 0.0
H1082 H 0.07989 0.58411 0.07904 0.0
H1083 H 0.06576 0.58253 0.10775 0.0
H1084 H 0.04157 0.56152 0.05341 0.0
H1085 H 0.12439 0.54765 0.07593 0.0
H1086 H 0.14483 0.52405 0.09322 0.0
H1087 H 0.07415 0.43326 0.06693 0.0
H1088 H 0.0529 0.45621 0.04958 0.0
H1089 H 0.11468 0.57166 0.97442 0.0
H1090 H 0.11608 0.57546 0.00415 0.0
H1091 H 1.01844 0.47747 0.00489 0.0
H1092 H 1.01629 0.474 0.9752 0.0
H1093 H 0.08504 0.50257 0.02908 0.0
H1094 H 0.99892 0.52059 0.00905 0.0
H1095 H 0.98417 0.54887 0.99199 0.0
H1096 H 0.07202 0.63947 0.01436 0.0
H1097 H 0.08764 0.61169 0.03137 0.0
C1098 C 1.02553 0.50292 0.10028 0.0
C1099 C 1.03703 0.5312 0.10908 0.0
C1100 C 1.03285 0.50369 0.08384 0.0
C1101 C 0.05283 0.53291 0.07595 0.0
C1102 C 0.06449 0.56125 0.0848 0.0
C1103 C 0.05648 0.56037 0.1012 0.0
C1104 C 0.06023 0.53355 0.05835 0.0
C1105 C 0.0517 0.54907 0.04822 0.0
C1106 C 0.07353 0.5174 0.05138 0.0
C1107 C 0.08684 0.50361 0.06151 0.0
C1108 C 0.11307 0.52261 0.07387 0.0
C1109 C 0.1248 0.50935 0.08369 0.0
C1110 C 0.11071 0.47715 0.08121 0.0
C1111 C 0.08501 0.4582 0.06884 0.0
C1112 C 0.07316 0.47134 0.05899 0.0
C1113 C 0.0939 0.55085 0.98099 0.0
C1114 C 0.06537 0.52255 0.97264 0.0
C1115 C 0.09472 0.55302 -0.0021 0.0
C1116 C 0.06742 0.5267 0.00666 0.0
C1117 C 0.03985 0.49794 -0.00168 0.0
C1118 C 0.03856 0.49601 0.98143 0.0
C1119 C 0.06569 0.52994 0.02441 0.0
C1120 C 0.07533 0.51524 0.03447 0.0
C1121 C 0.05441 0.54755 0.03138 0.0
C1122 C 0.0447 0.56413 0.02132 0.0
C1123 C 1.01529 0.54656 0.01021 0.0
C1124 C 1.00674 0.56249 0.00058 0.0
C1125 C 1.02722 0.59596 0.00205 0.0
C1126 C 0.05623 0.61355 0.01321 0.0
C1127 C 0.06493 0.59773 0.02285 0.0
H1128 H 1.02055 0.60825 0.99459 0.0
H1129 H 0.11975 0.46691 0.08887 0.0
H1130 H 0.52523 0.02077 0.43897 0.0
H1131 H 0.52148 0.0241 0.40977 0.0
H1132 H 0.618 0.02983 0.40366 0.0
H1133 H 0.62305 0.02856 0.4329 0.0
H1134 H 0.61976 0.06715 0.38358 0.0
H1135 H 0.52745 0.95764 0.39895 0.0
H1136 H 0.47489 0.91787 0.41519 0.0
H1137 H 0.41105 0.94245 0.39382 0.0
H1138 H 0.46366 0.98312 0.37781 0.0
H1139 H 0.53454 0.9649 0.30351 0.0
H1140 H 0.54055 0.97038 0.33293 0.0
H1141 H 0.56996 0.06572 0.33177 0.0
H1142 H 0.56359 0.06029 0.30227 0.0
H1143 H 0.50446 0.97907 0.35536 0.0
H1144 H 0.6316 0.1117 0.36308 0.0
H1145 H 0.68659 0.15204 0.34814 0.0
H1146 H 0.68288 0.07673 0.32308 0.0
H1147 H 0.62821 0.036 0.33803 0.0
C1148 C 0.54579 0.02305 0.43137 0.0
C1149 C 0.57424 0.02413 0.43812 0.0
C1150 C 0.54358 0.02483 0.41469 0.0
C1151 C 0.56903 0.02653 0.40443 0.0
C1152 C 0.598 0.02848 0.41127 0.0
C1153 C 0.60074 0.02753 0.42798 0.0
C1154 C 0.56468 0.02466 0.38655 0.0
C1155 C 0.59448 0.04797 0.37743 0.0
C1156 C 0.53182 0.99945 0.37845 0.0
C1157 C 0.49958 0.97362 0.38731 0.0
C1158 C 0.5022 0.95457 0.39773 0.0
C1159 C 0.47243 0.93194 0.40693 0.0
C1160 C 0.43965 0.92767 0.40556 0.0
C1161 C 0.43649 0.94584 0.39489 0.0
C1162 C 0.46629 0.96873 0.38577 0.0
C1163 C 0.542 0.98696 0.3095 0.0
C1164 C 0.54848 0.01213 0.30052 0.0
C1165 C 0.5455 0.99007 0.32632 0.0
C1166 C 0.55579 0.01847 0.33454 0.0
C1167 C 0.56238 0.04372 0.32565 0.0
C1168 C 0.55886 0.04062 0.30879 0.0
C1169 C 0.5596 0.02146 0.35242 0.0
C1170 C 0.52964 0.99837 0.36153 0.0
C1171 C 0.59248 0.04654 0.36048 0.0
C1172 C 0.62558 0.07082 0.35154 0.0
C1173 C 0.6426 0.10377 0.35441 0.0
C1174 C 0.6737 0.1267 0.34594 0.0
C1175 C 0.68814 0.11695 0.33462 0.0
C1176 C 0.67159 0.08425 0.3318 0.0
C1177 C 0.64051 0.06123 0.34025 0.0
H1178 H 0.7122 0.13473 0.32807 0.0
H1179 H 0.4167 0.91033 0.41278 0.0
H1180 H 0.61454 0.52999 0.79498 0.0
H1181 H 0.61955 0.53706 0.76582 0.0
H1182 H 0.50424 0.49064 0.76228 0.0
H1183 H 0.49895 0.48203 0.79126 0.0
H1184 H 0.51994 0.46854 0.73917 0.0
H1185 H 0.57316 0.57492 0.75972 0.0
H1186 H 0.61454 0.62444 0.77668 0.0
H1187 H 0.7069 0.63964 0.75346 0.0
H1188 H 0.66609 0.58987 0.73657 0.0
H1189 H 0.52458 0.52072 0.66009 0.0
H1190 H 0.52329 0.52074 0.68971 0.0
H1191 H 0.62183 0.52903 0.69078 0.0
H1192 H 0.62281 0.52831 0.66111 0.0
H1193 H 0.61487 0.57212 0.71464 0.0
H1194 H 0.55627 0.46133 0.69504 0.0
H1195 H 0.51146 0.41288 0.67806 0.0
H1196 H 0.42434 0.40901 0.69978 0.0
H1197 H 0.46874 0.45778 0.71671 0.0
C1198 C 0.59035 0.52141 0.78794 0.0
C1199 C 0.55634 0.50539 0.79529 0.0
C1200 C 0.59324 0.52565 0.77129 0.0
C1201 C 0.56235 0.51479 0.76181 0.0
C1202 C 0.52846 0.49916 0.76927 0.0
C1203 C 0.52546 0.49432 0.78584 0.0
C1204 C 0.56498 0.51856 0.74403 0.0
C1205 C 0.54044 0.49138 0.7339 0.0
C1206 C 0.59189 0.54823 0.73701 0.0
C1207 C 0.61655 0.57847 0.74697 0.0
C1208 C 0.6023 0.5887 0.7583 0.0
C1209 C 0.62565 0.61683 0.7679 0.0
C1210 C 0.66332 0.63514 0.76617 0.0
C1211 C 0.67771 0.62541 0.7548 0.0
C1212 C 0.65448 0.59724 0.7452 0.0
C1213 C 0.54614 0.52288 0.66667 0.0
C1214 C 0.57372 0.52439 0.65838 0.0
C1215 C 0.54537 0.52289 0.68354 0.0
C1216 C 0.57251 0.52495 0.69235 0.0
C1217 C 0.60078 0.52757 0.68414 0.0
C1218 C 0.60117 0.52693 0.66726 0.0
C1219 C 0.56997 0.52219 0.71008 0.0
C1220 C 0.59445 0.54947 0.72009 0.0
C1221 C 0.54251 0.49288 0.71705 0.0
C1222 C 0.51583 0.46339 0.707 0.0
C1223 C 0.52759 0.45032 0.69608 0.0
C1224 C 0.50226 0.42277 0.68649 0.0
C1225 C 0.46508 0.40793 0.6878 0.0
C1226 C 0.45315 0.42056 0.69875 0.0
C1227 C 0.47837 0.44814 0.70835 0.0
H1228 H 0.44551 0.3866 0.68037 0.0
H1229 H 0.68135 0.65689 0.77362 0.0
H1230 H 0.59639 0.04476 0.52832 0.0
H1231 H 0.60148 0.04226 0.55759 0.0
H1232 H 0.49359 0.01541 0.56336 0.0
H1233 H 0.48806 0.01722 0.53416 0.0
H1234 H 0.5476 0.06646 0.5848 0.0
H1235 H 0.50308 0.95969 0.56579 0.0
H1236 H 0.50515 0.921 0.54891 0.0
H1237 H 0.60947 0.95892 0.56974 0.0
H1238 H 0.60827 0.99821 0.5866 0.0
H1239 H 0.50754 0.02052 0.66471 0.0
H1240 H 0.50562 0.01974 0.63523 0.0
H1241 H 0.60461 0.02862 0.63344 0.0
H1242 H 0.60602 0.02852 0.66305 0.0
H1243 H 0.55987 0.98887 0.60967 0.0
H1244 H 0.60545 0.09429 0.62903 0.0
H1245 H 0.6066 0.13517 0.64549 0.0
H1246 H 0.50546 0.10348 0.62349 0.0
H1247 H 0.50343 0.06206 0.60706 0.0
C1248 C 0.57371 0.03814 0.53585 0.0
C1249 C 0.54178 0.03108 0.529 0.0
C1250 C 0.57664 0.0367 0.55253 0.0
C1251 C 0.54784 0.02854 0.5626 0.0
C1252 C 0.51609 0.02175 0.55578 0.0
C1253 C 0.51296 0.02275 0.53911 0.0
C1254 C 0.55087 0.02758 0.58031 0.0
C1255 C 0.54988 0.04929 0.59027 0.0
C1256 C 0.55514 0.00591 0.58734 0.0
C1257 C 0.55574 0.98209 0.57735 0.0
C1258 C 0.5266 0.95996 0.56668 0.0
C1259 C 0.52759 0.93789 0.55714 0.0
C1260 C 0.55744 0.93753 0.55825 0.0
C1261 C 0.58637 0.95924 0.56891 0.0
C1262 C 0.58554 0.9814 0.57847 0.0
C1263 C 0.52883 0.02222 0.65802 0.0
C1264 C 0.55716 0.02496 0.66615 0.0
C1265 C 0.52777 0.02184 0.64118 0.0
C1266 C 0.55544 0.02488 0.6321 0.0
C1267 C 0.58306 0.0264 0.64017 0.0
C1268 C 0.58386 0.02635 0.65707 0.0
C1269 C 0.55591 0.02743 0.61427 0.0
C1270 C 0.55773 0.00616 0.60425 0.0
C1271 C 0.55292 0.04987 0.60713 0.0
C1272 C 0.55414 0.07489 0.61691 0.0
C1273 C 0.58333 0.09589 0.62778 0.0
C1274 C 0.58415 0.11918 0.6371 0.0
C1275 C 0.55608 0.12188 0.63556 0.0
C1276 C 0.52717 0.10134 0.62468 0.0
C1277 C 0.52618 0.07797 0.61535 0.0
H1278 H 0.55677 0.13992 0.64278 0.0
H1279 H 0.55809 0.92036 0.55088 0.0
H1280 H 0.53244 0.51172 0.88915 0.0
H1281 H 0.52985 0.49836 0.91736 0.0
H1282 H 0.64409 0.54028 0.91659 0.0
H1283 H 0.64711 0.55531 0.88874 0.0
H1284 H 0.53824 0.46288 0.93321 0.0
H1285 H 0.68457 0.57303 0.95263 0.0
H1286 H 0.73079 0.6294 0.94543 0.0
H1287 H 0.64679 0.63271 0.92696 0.0
H1288 H 0.60008 0.57653 0.93423 0.0
H1289 H 0.55642 0.44019 0.01559 0.0
H1290 H 0.56898 0.44934 0.98676 0.0
H1291 H 0.58295 0.53846 0.99296 0.0
H1292 H 0.57403 0.53108 0.02168 0.0
H1293 H 0.62799 0.54806 0.97311 0.0
H1294 H 0.49974 0.46173 0.97828 0.0
H1295 H 0.44619 0.40841 0.98628 0.0
H1296 H 0.4814 0.36282 0.95701 0.0
H1297 H 0.53539 0.41594 0.94898 0.0
C1298 C 0.55697 0.51817 0.89508 0.0
C1299 C 0.5901 0.53502 0.88695 0.0
C1300 C 0.55546 0.51035 0.91115 0.0
C1301 C 0.58692 0.51877 0.91925 0.0
C1302 C 0.61966 0.5343 0.9108 0.0
C1303 C 0.62137 0.54283 0.89488 0.0
C1304 C 0.58568 0.51232 0.93666 0.0
C1305 C 0.55792 0.4815 0.94193 0.0
C1306 C 0.61103 0.53663 0.94813 0.0
C1307 C 0.63892 0.57047 0.94378 0.0
C1308 C 0.67599 0.58583 0.94706 0.0
C1309 C 0.70226 0.61773 0.94297 0.0
C1310 C 0.69175 0.63458 0.93569 0.0
C1311 C 0.65492 0.61959 0.93254 0.0
C1312 C 0.62854 0.58772 0.93662 0.0
C1313 C 0.56295 0.46205 0.01085 0.0
C1314 C 0.56337 0.48453 0.02096 0.0
C1315 C 0.56963 0.46705 0.9943 0.0
C1316 C 0.57604 0.49423 0.98753 0.0
C1317 C 0.5779 0.51719 -0.00224 0.0
C1318 C 0.57215 0.51263 0.01424 0.0
C1319 C 0.57986 0.49887 0.96981 0.0
C1320 C 0.60842 0.5293 0.96441 0.0
C1321 C 0.55415 0.47467 0.95837 0.0
C1322 C 0.52179 0.44278 0.9632 0.0
C1323 C 0.49617 0.44033 0.97364 0.0
C1324 C 0.46573 0.41016 0.97817 0.0
C1325 C 0.46046 0.38225 0.9722 0.0
C1326 C 0.48557 0.38446 0.96165 0.0
C1327 C 0.51608 0.41458 0.95711 0.0
H1328 H 0.43688 0.35892 0.97571 0.0
H1329 H 0.71213 0.65927 0.93252 0.0
H1330 H 0.05188 0.54211 0.19729 0.0
H1331 H 0.04873 0.54409 0.22682 0.0
H1332 H 0.06286 0.47021 0.22916 0.0
H1333 H 0.06558 0.46798 0.19959 0.0
H1334 H 1.0071 0.46017 0.24915 0.0
H1335 H 0.13298 0.54458 0.23752 0.0
H1336 H 0.18234 0.59328 0.224 0.0
H1337 H 0.14769 0.64627 0.24554 0.0
H1338 H 0.09776 0.59773 0.259 0.0
H1339 H 0.04992 0.47605 0.33288 0.0
H1340 H 0.04779 0.4713 0.30333 0.0
H1341 H 0.05591 0.55764 0.30141 0.0
H1342 H 0.05944 0.56303 0.33093 0.0
H1343 H 0.09922 0.56093 0.28078 0.0
H1344 H 0.97428 0.47892 0.29259 0.0
H1345 H 0.92237 0.43068 0.30543 0.0
H1346 H 0.95143 0.37385 0.28327 0.0
H1347 H 1.00383 0.42186 0.27046 0.0
C1348 C 0.05369 0.52598 0.20411 0.0
C1349 C 0.05845 0.50462 0.19622 0.0
C1350 C 0.05226 0.52732 0.22095 0.0
C1351 C 0.05559 0.5073 0.23015 0.0
C1352 C 0.0601 0.48576 0.22226 0.0
C1353 C 0.06185 0.48465 0.20542 0.0
C1354 C 0.05511 0.50928 0.24804 0.0
C1355 C 1.02744 0.48204 0.25613 0.0
C1356 C 0.08108 0.53812 0.25703 0.0
C1357 C 0.11144 0.56744 0.24914 0.0
C1358 C 0.13573 0.56656 0.23928 0.0
C1359 C 0.16384 0.59414 0.23164 0.0
C1360 C 0.16809 0.62283 0.23388 0.0
C1361 C 0.14433 0.62402 0.2438 0.0
C1362 C 0.11615 0.59649 0.25145 0.0
C1363 C 0.05086 0.49378 0.32611 0.0
C1364 C 0.05485 0.5199 0.33415 0.0
C1365 C 0.04952 0.49102 0.30922 0.0
C1366 C 0.05124 0.5139 0.30006 0.0
C1367 C 0.05464 0.53972 0.30815 0.0
C1368 C 0.0566 0.54277 0.32501 0.0
C1369 C 0.05102 0.51175 0.28208 0.0
C1370 C 0.07868 0.53899 0.27391 0.0
C1371 C 1.02469 0.483 0.27301 0.0
C1372 C 0.9932 0.45407 0.2807 0.0
C1373 C 0.96977 0.45619 0.29056 0.0
C1374 C 0.94023 0.42888 0.29781 0.0
C1375 C 0.93367 0.39924 0.2952 0.0
C1376 C 0.95658 0.39684 0.2853 0.0
C1377 C 0.98619 0.42409 0.27803 0.0
H1378 H 0.91078 0.37812 0.30083 0.0
H1379 H 0.18984 0.64415 0.22794 0.0
loop_
_geom_bond_atom_site_label_1
_geom_bond_atom_site_label_2
_geom_bond_distance
_geom_bond_site_symmetry_2
_ccdc_geom_bond_type
Sm0 C2 2.846 . S
Sm0 O20 2.543 . S
Sm0 O21 2.450 . S
Sm0 O22 2.681 . S
Sm0 O23 2.464 . S
Sm0 O24 2.396 . S
Sm0 O28 2.386 . S
Sm0 O31 2.408 1_455 S
Sm1 C11 2.846 . S
Sm1 O22 2.386 1_655 S
Sm1 O25 2.408 1_655 S
Sm1 O26 2.543 . S
Sm1 O27 2.450 . S
Sm1 O28 2.681 1_655 S
Sm1 O29 2.460 1_655 S
Sm1 O30 2.396 . S
C2 Sm0 2.846 . S
C2 C3 1.506 . S
C2 O20 1.261 . S
C2 O21 1.242 . S
C3 C2 1.506 . S
C3 C4 1.358 . S
C3 C8 1.382 . S
C4 C3 1.358 . S
C4 C5 1.385 . S
C4 H32 0.930 . S
C5 C4 1.385 . S
C5 C6 1.395 . S
C5 H33 0.929 . S
C6 C5 1.395 . S
C6 C7 1.335 . S
C7 C6 1.335 . S
C7 C8 1.398 . S
C7 H34 0.930 . S
C8 C3 1.382 . S
C8 C7 1.398 . S
C8 H35 0.929 . S
C9 O22 1.271 . S
C9 O23 1.251 . S
C10 O24 1.252 . S
C10 O25 1.272 . S
C11 Sm1 2.846 . S
C11 C12 1.506 . S
C11 O26 1.261 . S
C11 O27 1.242 . S
C12 C11 1.506 . S
C12 C13 1.358 . S
C12 C17 1.382 . S
C13 C12 1.358 . S
C13 C14 1.385 . S
C13 H36 0.930 . S
C14 C13 1.385 . S
C14 C15 1.395 . S
C14 H37 0.929 . S
C15 C14 1.395 . S
C15 C16 1.335 . S
C16 C15 1.335 . S
C16 C17 1.398 . S
C16 H38 0.930 . S
C17 C12 1.382 . S
C17 C16 1.398 . S
C17 H39 0.929 . S
C18 O28 1.271 . S
C18 O29 1.270 . S
C19 O30 1.252 . S
C19 O31 1.272 . S
O20 Sm0 2.543 . S
O20 C2 1.261 . S
O21 Sm0 2.450 . S
O21 C2 1.242 . S
O22 Sm0 2.681 . S
O22 Sm1 2.386 1_455 S
O22 C9 1.271 . S
O23 Sm0 2.464 . S
O23 C9 1.251 . S
O24 Sm0 2.396 . S
O24 C10 1.252 . S
O25 Sm1 2.408 1_455 S
O25 C10 1.272 . S
O26 Sm1 2.543 . S
O26 C11 1.261 . S
O27 Sm1 2.450 . S
O27 C11 1.242 . S
O28 Sm0 2.386 . S
O28 Sm1 2.681 1_455 S
O28 C18 1.271 . S
O29 Sm1 2.460 1_455 S
O29 C18 1.270 . S
O30 Sm1 2.396 . S
O30 C19 1.252 . S
O31 Sm0 2.408 1_655 S
O31 C19 1.272 . S
H32 C4 0.930 . S
H33 C5 0.929 . S
H34 C7 0.930 . S
H35 C8 0.929 . S
H36 C13 0.930 . S
H37 C14 0.929 . S
H38 C16 0.930 . S
H39 C17 0.929 . S
Sm40 C42 2.846 . S
Sm40 O60 2.543 . S
Sm40 O61 2.450 . S
Sm40 O62 2.681 1_565 S
Sm40 O63 2.464 . S
Sm40 O64 2.396 . S
Sm40 O68 2.377 1_565 S
Sm40 O71 2.408 1_565 S
Sm41 C51 2.846 . S
Sm41 O62 2.386 . S
Sm41 O65 2.408 1_545 S
Sm41 O66 2.543 . S
Sm41 O67 2.450 . S
Sm41 O68 2.696 . S
Sm41 O69 2.464 . S
Sm41 O70 2.396 . S
C42 Sm40 2.846 . S
C42 C43 1.506 . S
C42 O60 1.261 . S
C42 O61 1.242 . S
C43 C42 1.506 . S
C43 C44 1.358 . S
C43 C48 1.382 . S
C44 C43 1.358 . S
C44 C45 1.385 . S
C44 H72 0.930 . S
C45 C44 1.385 . S
C45 C46 1.395 . S
C45 H73 0.929 . S
C46 C45 1.395 . S
C46 C47 1.335 . S
C47 C46 1.335 . S
C47 C48 1.398 . S
C47 H74 0.930 . S
C48 C43 1.382 . S
C48 C47 1.398 . S
C48 H75 0.929 . S
C49 O62 1.271 . S
C49 O63 1.251 1_545 S
C50 O64 1.252 . S
C50 O65 1.272 . S
C51 Sm41 2.846 . S
C51 C52 1.506 . S
C51 O66 1.261 . S
C51 O67 1.242 . S
C52 C51 1.506 . S
C52 C53 1.358 . S
C52 C57 1.382 . S
C53 C52 1.358 . S
C53 C54 1.385 . S
C53 H76 0.930 . S
C54 C53 1.385 . S
C54 C55 1.395 . S
C54 H77 0.929 . S
C55 C54 1.395 . S
C55 C56 1.335 . S
C56 C55 1.335 . S
C56 C57 1.398 . S
C56 H78 0.930 . S
C57 C52 1.382 . S
C57 C56 1.398 . S
C57 H79 0.929 . S
C58 O68 1.280 . S
C58 O69 1.251 . S
C59 O70 1.252 . S
C59 O71 1.272 . S
O60 Sm40 2.543 . S
O60 C42 1.261 . S
O61 Sm40 2.450 . S
O61 C42 1.242 . S
O62 Sm40 2.681 1_545 S
O62 Sm41 2.386 . S
O62 C49 1.271 . S
O63 Sm40 2.464 . S
O63 C49 1.251 1_565 S
O64 Sm40 2.396 . S
O64 C50 1.252 . S
O65 Sm41 2.408 1_565 S
O65 C50 1.272 . S
O66 Sm41 2.543 . S
O66 C51 1.261 . S
O67 Sm41 2.450 . S
O67 C51 1.242 . S
O68 Sm40 2.377 1_545 S
O68 Sm41 2.696 . S
O68 C58 1.280 . S
O69 Sm41 2.464 . S
O69 C58 1.251 . S
O70 Sm41 2.396 . S
O70 C59 1.252 . S
O71 Sm40 2.408 1_545 S
O71 C59 1.272 . S
H72 C44 0.930 . S
H73 C45 0.929 . S
H74 C47 0.930 . S
H75 C48 0.929 . S
H76 C53 0.930 . S
H77 C54 0.929 . S
H78 C56 0.930 . S
H79 C57 0.929 . S
Sm80 C82 2.846 . S
Sm80 O100 2.543 . S
Sm80 O101 2.450 . S
Sm80 O102 2.681 . S
Sm80 O103 2.464 . S
Sm80 O104 2.396 . S
Sm80 O108 2.386 . S
Sm80 O111 2.408 . S
Sm81 C91 2.846 . S
Sm81 O102 2.386 . S
Sm81 O105 2.408 . S
Sm81 O106 2.543 . S
Sm81 O107 2.450 . S
Sm81 O108 2.681 . S
Sm81 O109 2.464 . S
Sm81 O110 2.396 . S
C82 Sm80 2.846 . S
C82 C83 1.506 . S
C82 O100 1.261 . S
C82 O101 1.242 . S
C83 C82 1.506 . S
C83 C84 1.358 . S
C83 C88 1.382 . S
C84 C83 1.358 . S
C84 C85 1.385 . S
C84 H112 0.930 . S
C85 C84 1.385 . S
C85 C86 1.395 . S
C85 H113 0.929 . S
C86 C85 1.395 . S
C86 C87 1.335 . S
C87 C86 1.335 . S
C87 C88 1.398 . S
C87 H114 0.930 . S
C88 C83 1.382 . S
C88 C87 1.398 . S
C88 H115 0.929 . S
C89 O102 1.271 . S
C89 O103 1.251 . S
C90 O104 1.252 . S
C90 O105 1.272 . S
C91 Sm81 2.846 . S
C91 C92 1.506 . S
C91 O106 1.261 . S
C91 O107 1.242 . S
C92 C91 1.506 . S
C92 C93 1.358 . S
C92 C97 1.382 . S
C93 C92 1.358 . S
C93 C94 1.385 . S
C93 H116 0.930 . S
C94 C93 1.385 . S
C94 C95 1.395 . S
C94 H117 0.929 . S
C95 C94 1.395 . S
C95 C96 1.335 . S
C96 C95 1.335 . S
C96 C97 1.398 . S
C96 H118 0.930 . S
C97 C92 1.382 . S
C97 C96 1.398 . S
C97 H119 0.929 . S
C98 O108 1.271 . S
C98 O109 1.251 . S
C99 O110 1.252 . S
C99 O111 1.272 . S
O100 Sm80 2.543 . S
O100 C82 1.261 . S
O101 Sm80 2.450 . S
O101 C82 1.242 . S
O102 Sm80 2.681 . S
O102 Sm81 2.386 . S
O102 C89 1.271 . S
O103 Sm80 2.464 . S
O103 C89 1.251 . S
O104 Sm80 2.396 . S
O104 C90 1.252 . S
O105 Sm81 2.408 . S
O105 C90 1.272 . S
O106 Sm81 2.543 . S
O106 C91 1.261 . S
O107 Sm81 2.450 . S
O107 C91 1.242 . S
O108 Sm80 2.386 . S
O108 Sm81 2.681 . S
O108 C98 1.271 . S
O109 Sm81 2.464 . S
O109 C98 1.251 . S
O110 Sm81 2.396 . S
O110 C99 1.252 . S
O111 Sm80 2.408 . S
O111 C99 1.272 . S
H112 C84 0.930 . S
H113 C85 0.929 . S
H114 C87 0.930 . S
H115 C88 0.929 . S
H116 C93 0.930 . S
H117 C94 0.929 . S
H118 C96 0.930 . S
H119 C97 0.929 . S
C120 C121 1.391 . S
C120 C124 1.391 . S
C120 H162 0.948 . S
C121 C120 1.391 . S
C121 C122 1.391 . S
C122 C121 1.391 . S
C122 H178 0.947 . S
C122 C179 1.392 . S
C123 C124 1.391 . S
C123 C127 1.397 . S
C123 C179 1.419 . S
C124 C120 1.391 . S
C124 C123 1.391 . S
C124 C125 1.399 . S
C125 C124 1.399 . S
C125 C128 1.396 . S
C125 C137 1.453 . S
C125 C138 1.684 . S
H126 C150 0.948 . S
C127 C123 1.397 . S
C127 C128 1.394 . S
C127 C146 1.723 . S
C128 C125 1.396 . S
C128 C127 1.394 . S
C128 C158 1.723 1_545 S
H129 C152 0.947 . S
H130 C153 0.948 . S
H131 C159 0.982 . S
H132 C160 0.979 . S
H133 C160 0.980 . S
H134 C160 0.983 . S
H135 C159 0.979 . S
H136 C159 0.977 . S
C137 C125 1.453 . S
C137 H166 0.982 . S
C137 H167 0.979 . S
C137 H168 0.960 1_545 S
C138 C125 1.684 . S
C138 H163 0.979 . S
C138 H164 0.980 . S
C138 H165 0.983 . S
C139 C140 1.391 . S
C139 C144 1.391 . S
C139 H169 0.948 . S
C140 C139 1.391 . S
C140 C141 1.391 1_545 S
C141 C140 1.391 1_565 S
C141 C142 1.392 . S
C141 H170 0.947 . S
C142 C141 1.392 . S
C142 C143 1.419 1_565 S
C142 H171 0.948 . S
C143 C142 1.419 1_545 S
C143 C144 1.391 . S
C143 C147 1.397 . S
C144 C139 1.391 . S
C144 C143 1.391 . S
C144 C145 1.399 . S
C145 C144 1.399 . S
C145 C146 1.396 . S
C145 C148 1.453 . S
C145 C149 1.684 . S
C146 C127 1.723 . S
C146 C145 1.396 . S
C146 C147 1.394 . S
C147 C143 1.397 . S
C147 C146 1.394 . S
C147 C157 1.723 1_545 S
C148 C145 1.453 . S
C148 H172 0.982 . S
C148 H173 0.979 . S
C148 H174 0.977 . S
C149 C145 1.684 . S
C149 H175 0.979 . S
C149 H176 0.980 . S
C149 H177 0.983 . S
C150 H126 0.948 . S
C150 C151 1.391 . S
C150 C155 1.391 . S
C151 C150 1.391 . S
C151 C152 1.391 . S
C152 H129 0.947 . S
C152 C151 1.391 . S
C152 C153 1.392 . S
C153 H130 0.948 . S
C153 C152 1.392 . S
C153 C154 1.419 . S
C154 C153 1.419 . S
C154 C155 1.391 . S
C154 C158 1.397 . S
C155 C150 1.391 . S
C155 C154 1.391 . S
C155 C156 1.399 . S
C156 C155 1.399 . S
C156 C157 1.396 . S
C156 C159 1.453 . S
C156 C160 1.684 . S
C157 C147 1.723 1_565 S
C157 C156 1.396 . S
C157 C158 1.394 . S
C158 C128 1.723 1_565 S
C158 C154 1.397 . S
C158 C157 1.394 . S
C159 H131 0.982 . S
C159 H135 0.979 . S
C159 H136 0.977 . S
C159 C156 1.453 . S
C160 H132 0.979 . S
C160 H133 0.980 . S
C160 H134 0.983 . S
C160 C156 1.684 . S
H161 C179 0.948 . S
H162 C120 0.948 . S
H163 C138 0.979 . S
H164 C138 0.980 . S
H165 C138 0.983 . S
H166 C137 0.982 . S
H167 C137 0.979 . S
H168 C137 0.960 1_565 S
H169 C139 0.948 . S
H170 C141 0.947 . S
H171 C142 0.948 . S
H172 C148 0.982 . S
H173 C148 0.979 . S
H174 C148 0.977 . S
H175 C149 0.979 . S
H176 C149 0.980 . S
H177 C149 0.983 . S
H178 C122 0.947 . S
C179 C122 1.392 . S
C179 C123 1.419 . S
C179 H161 0.948 . S
C180 C181 1.391 . S
C180 C184 1.391 . S
C180 H222 0.948 . S
C181 C180 1.391 . S
C181 C182 1.391 . S
C182 C181 1.391 . S
C182 H238 0.947 . S
C182 C239 1.392 . S
C183 C184 1.391 . S
C183 C187 1.397 . S
C183 C239 1.419 . S
C184 C180 1.391 . S
C184 C183 1.391 . S
C184 C185 1.399 . S
C185 C184 1.399 . S
C185 C188 1.396 . S
C185 C197 1.453 . S
C185 C198 1.684 . S
H186 C210 0.948 . S
C187 C183 1.397 . S
C187 C188 1.394 . S
C187 C206 1.723 . S
C188 C185 1.396 . S
C188 C187 1.394 . S
C188 C218 1.723 . S
H189 C212 0.947 . S
H190 C213 0.948 . S
H191 C219 0.982 . S
H192 C220 0.979 . S
H193 C220 0.980 . S
H194 C220 0.983 . S
H195 C219 0.979 . S
H196 C219 0.977 . S
C197 C185 1.453 . S
C197 H226 0.982 . S
C197 H227 0.979 . S
C197 H228 0.977 . S
C198 C185 1.684 . S
C198 H223 0.979 . S
C198 H224 0.980 . S
C198 H225 0.983 . S
C199 C200 1.391 . S
C199 C204 1.391 . S
C199 H229 0.948 . S
C200 C199 1.391 . S
C200 C201 1.391 . S
C201 C200 1.391 . S
C201 C202 1.392 . S
C201 H230 0.947 . S
C202 C201 1.392 . S
C202 C203 1.419 . S
C202 H231 0.948 . S
C203 C202 1.419 . S
C203 C204 1.391 . S
C203 C207 1.397 . S
C204 C199 1.391 . S
C204 C203 1.391 . S
C204 C205 1.399 . S
C205 C204 1.399 . S
C205 C206 1.396 . S
C205 C208 1.453 . S
C205 C209 1.684 . S
C206 C187 1.723 . S
C206 C205 1.396 . S
C206 C207 1.394 . S
C207 C203 1.397 . S
C207 C206 1.394 . S
C207 C217 1.723 . S
C208 C205 1.453 . S
C208 H232 0.982 . S
C208 H233 0.979 . S
C208 H234 0.977 . S
C209 C205 1.684 . S
C209 H235 0.979 . S
C209 H236 0.980 . S
C209 H237 0.983 . S
C210 H186 0.948 . S
C210 C211 1.391 . S
C210 C215 1.391 . S
C211 C210 1.391 . S
C211 C212 1.391 . S
C212 H189 0.947 . S
C212 C211 1.391 . S
C212 C213 1.392 . S
C213 H190 0.948 . S
C213 C212 1.392 . S
C213 C214 1.419 . S
C214 C213 1.419 . S
C214 C215 1.391 . S
C214 C218 1.397 . S
C215 C210 1.391 . S
C215 C214 1.391 . S
C215 C216 1.399 . S
C216 C215 1.399 . S
C216 C217 1.396 . S
C216 C219 1.453 . S
C216 C220 1.684 . S
C217 C207 1.723 . S
C217 C216 1.396 . S
C217 C218 1.394 . S
C218 C188 1.723 . S
C218 C214 1.397 . S
C218 C217 1.394 . S
C219 H191 0.982 . S
C219 H195 0.979 . S
C219 H196 0.977 . S
C219 C216 1.453 . S
C220 H192 0.979 . S
C220 H193 0.980 . S
C220 H194 0.983 . S
C220 C216 1.684 . S
H221 C239 0.948 . S
H222 C180 0.948 . S
H223 C198 0.979 . S
H224 C198 0.980 . S
H225 C198 0.983 . S
H226 C197 0.982 . S
H227 C197 0.979 . S
H228 C197 0.977 . S
H229 C199 0.948 . S
H230 C201 0.947 . S
H231 C202 0.948 . S
H232 C208 0.982 . S
H233 C208 0.979 . S
H234 C208 0.977 . S
H235 C209 0.979 . S
H236 C209 0.980 . S
H237 C209 0.983 . S
H238 C182 0.947 . S
C239 C182 1.392 . S
C239 C183 1.419 . S
C239 H221 0.948 . S
C240 C241 1.391 . S
C240 C244 1.391 . S
C240 H282 0.948 . S
C241 C240 1.391 . S
C241 C242 1.391 . S
C242 C241 1.391 . S
C242 H298 0.947 . S
C242 C299 1.392 . S
C243 C244 1.391 . S
C243 C247 1.397 . S
C243 C299 1.419 . S
C244 C240 1.391 . S
C244 C243 1.391 . S
C244 C245 1.399 . S
C245 C244 1.399 . S
C245 C248 1.396 . S
C245 C257 1.453 . S
C245 C258 1.684 . S
H246 C270 0.948 . S
C247 C243 1.397 . S
C247 C248 1.394 . S
C247 C266 1.723 . S
C248 C245 1.396 . S
C248 C247 1.394 . S
C248 C278 1.723 . S
H249 C272 0.947 . S
H250 C273 0.923 1_455 S
H251 C279 0.982 . S
H252 C280 0.973 1_455 S
H253 C280 0.980 . S
H254 C280 0.983 . S
H255 C279 0.979 . S
H256 C279 0.977 . S
C257 C245 1.453 . S
C257 H286 0.982 . S
C257 H287 0.979 . S
C257 H288 0.977 . S
C258 C245 1.684 . S
C258 H283 0.979 . S
C258 H284 0.980 . S
C258 H285 0.983 . S
C259 C260 1.391 . S
C259 C264 1.391 . S
C259 H289 0.948 . S
C260 C259 1.391 . S
C260 C261 1.391 . S
C261 C260 1.391 . S
C261 C262 1.392 . S
C261 H290 0.947 1_455 S
C262 C261 1.392 . S
C262 C263 1.419 . S
C262 H291 0.948 1_455 S
C263 C262 1.419 . S
C263 C264 1.391 . S
C263 C267 1.397 . S
C264 C259 1.391 . S
C264 C263 1.391 . S
C264 C265 1.399 . S
C265 C264 1.399 . S
C265 C266 1.396 . S
C265 C268 1.453 . S
C265 C269 1.684 . S
C266 C247 1.723 . S
C266 C265 1.396 . S
C266 C267 1.394 . S
C267 C263 1.397 . S
C267 C266 1.394 . S
C267 C277 1.723 . S
C268 C265 1.453 . S
C268 H292 0.982 . S
C268 H293 0.979 . S
C268 H294 0.977 . S
C269 C265 1.684 . S
C269 H295 0.979 . S
C269 H296 0.980 . S
C269 H297 0.983 . S
C270 H246 0.948 . S
C270 C271 1.391 . S
C270 C275 1.391 . S
C271 C270 1.391 . S
C271 C272 1.391 . S
C272 H249 0.947 . S
C272 C271 1.391 . S
C272 C273 1.419 . S
C273 H250 0.923 1_655 S
C273 C272 1.419 . S
C273 C274 1.417 . S
C274 C273 1.417 . S
C274 C275 1.391 . S
C274 C278 1.397 1_655 S
C275 C270 1.391 . S
C275 C274 1.391 . S
C275 C276 1.399 . S
C276 C275 1.399 . S
C276 C277 1.396 1_655 S
C276 C279 1.453 . S
C276 C280 1.684 . S
C277 C267 1.723 . S
C277 C276 1.396 1_455 S
C277 C278 1.394 . S
C278 C248 1.723 . S
C278 C274 1.397 1_455 S
C278 C277 1.394 . S
C279 H251 0.982 . S
C279 H255 0.979 . S
C279 H256 0.977 . S
C279 C276 1.453 . S
C280 H252 0.973 1_655 S
C280 H253 0.980 . S
C280 H254 0.983 . S
C280 C276 1.684 . S
H281 C299 0.948 . S
H282 C240 0.948 . S
H283 C258 0.979 . S
H284 C258 0.980 . S
H285 C258 0.983 . S
H286 C257 0.982 . S
H287 C257 0.979 . S
H288 C257 0.977 . S
H289 C259 0.948 . S
H290 C261 0.947 1_655 S
H291 C262 0.948 1_655 S
H292 C268 0.982 . S
H293 C268 0.979 . S
H294 C268 0.977 . S
H295 C269 0.979 . S
H296 C269 0.980 . S
H297 C269 0.983 . S
H298 C242 0.947 . S
C299 C242 1.392 . S
C299 C243 1.419 . S
C299 H281 0.948 . S
C300 C301 1.391 . S
C300 C304 1.391 . S
C300 H342 0.948 . S
C301 C300 1.391 . S
C301 C302 1.391 . S
C302 C301 1.391 . S
C302 H358 0.947 . S
C302 C359 1.392 . S
C303 C304 1.391 . S
C303 C307 1.397 . S
C303 C359 1.419 . S
C304 C300 1.391 . S
C304 C303 1.391 . S
C304 C305 1.399 . S
C305 C304 1.399 . S
C305 C308 1.396 . S
C305 C317 1.453 . S
C305 C318 1.684 . S
H306 C330 0.948 . S
C307 C303 1.397 . S
C307 C308 1.394 . S
C307 C326 1.723 . S
C308 C305 1.396 . S
C308 C307 1.394 . S
C308 C338 1.723 1_655 S
H309 C332 0.947 . S
H310 C333 0.948 . S
H311 C339 0.982 . S
H312 C340 0.979 . S
H313 C340 0.980 . S
H314 C340 0.983 . S
H315 C339 0.979 . S
H316 C339 0.977 . S
C317 C305 1.453 . S
C317 H346 0.982 1_655 S
C317 H347 0.979 . S
C317 H348 0.977 1_655 S
C318 C305 1.684 . S
C318 H343 0.979 . S
C318 H344 0.980 . S
C318 H345 0.983 . S
C319 C320 1.391 1_655 S
C319 C324 1.391 . S
C319 H349 0.948 . S
C320 C319 1.391 1_455 S
C320 C321 1.391 . S
C321 C320 1.391 . S
C321 C322 1.392 . S
C321 H350 0.947 . S
C322 C321 1.392 . S
C322 C323 1.419 . S
C322 H351 0.948 . S
C323 C322 1.419 . S
C323 C324 1.391 1_455 S
C323 C327 1.397 . S
C324 C319 1.391 . S
C324 C323 1.391 1_655 S
C324 C325 1.399 . S
C325 C324 1.399 . S
C325 C326 1.396 . S
C325 C328 1.453 . S
C325 C329 1.684 . S
C326 C307 1.723 . S
C326 C325 1.396 . S
C326 C327 1.394 1_655 S
C327 C323 1.397 . S
C327 C326 1.394 1_455 S
C327 C337 1.723 . S
C328 C325 1.453 . S
C328 H352 0.982 . S
C328 H353 0.979 . S
C328 H354 0.977 . S
C329 C325 1.684 . S
C329 H355 0.979 . S
C329 H356 0.980 . S
C329 H357 0.983 . S
C330 H306 0.948 . S
C330 C331 1.391 . S
C330 C335 1.391 . S
C331 C330 1.391 . S
C331 C332 1.391 . S
C332 H309 0.947 . S
C332 C331 1.391 . S
C332 C333 1.392 . S
C333 H310 0.948 . S
C333 C332 1.392 . S
C333 C334 1.419 . S
C334 C333 1.419 . S
C334 C335 1.391 . S
C334 C338 1.397 . S
C335 C330 1.391 . S
C335 C334 1.391 . S
C335 C336 1.399 . S
C336 C335 1.399 . S
C336 C337 1.396 . S
C336 C339 1.453 . S
C336 C340 1.684 . S
C337 C327 1.723 . S
C337 C336 1.396 . S
C337 C338 1.394 . S
C338 C308 1.723 1_455 S
C338 C334 1.397 . S
C338 C337 1.394 . S
C339 H311 0.982 . S
C339 H315 0.979 . S
C339 H316 0.977 . S
C339 C336 1.453 . S
C340 H312 0.979 . S
C340 H313 0.980 . S
C340 H314 0.983 . S
C340 C336 1.684 . S
H341 C359 0.948 . S
H342 C300 0.948 . S
H343 C318 0.979 . S
H344 C318 0.980 . S
H345 C318 0.983 . S
H346 C317 0.982 1_455 S
H347 C317 0.979 . S
H348 C317 0.977 1_455 S
H349 C319 0.948 . S
H350 C321 0.947 . S
H351 C322 0.948 . S
H352 C328 0.982 . S
H353 C328 0.979 . S
H354 C328 0.977 . S
H355 C329 0.979 . S
H356 C329 0.980 . S
H357 C329 0.983 . S
H358 C302 0.947 . S
C359 C302 1.392 . S
C359 C303 1.419 . S
C359 H341 0.948 . S
C360 C361 1.391 . S
C360 C364 1.391 . S
C360 H402 0.948 . S
C361 C360 1.391 . S
C361 C362 1.391 . S
C362 C361 1.391 . S
C362 H418 0.947 . S
C362 C419 1.392 . S
C363 C364 1.391 . S
C363 C367 1.397 . S
C363 C419 1.419 . S
C364 C360 1.391 . S
C364 C363 1.391 . S
C364 C365 1.399 . S
C365 C364 1.399 . S
C365 C368 1.396 . S
C365 C377 1.453 1_565 S
C365 C378 1.684 . S
H366 C390 0.948 . S
C367 C363 1.397 . S
C367 C368 1.394 . S
C367 C386 1.723 . S
C368 C365 1.396 . S
C368 C367 1.394 . S
C368 C398 1.723 1_565 S
H369 C392 0.947 . S
H370 C393 0.948 . S
H371 C399 0.982 . S
H372 C400 0.979 . S
H373 C400 0.980 . S
H374 C400 0.983 . S
H375 C399 0.979 . S
H376 C399 0.977 . S
C377 C365 1.453 1_545 S
C377 H406 0.982 . S
C377 H407 0.979 1_545 S
C377 H408 0.977 . S
C378 C365 1.684 . S
C378 H403 0.979 . S
C378 H404 0.980 . S
C378 H405 0.983 . S
C379 C380 1.379 1_565 S
C379 C384 1.391 . S
C379 H409 0.948 . S
C380 C379 1.379 1_545 S
C380 C381 1.404 . S
C381 C380 1.404 . S
C381 C382 1.392 . S
C381 H410 0.947 . S
C382 C381 1.392 . S
C382 C383 1.419 . S
C382 H411 0.948 . S
C383 C382 1.419 . S
C383 C384 1.391 1_545 S
C383 C387 1.397 . S
C384 C379 1.391 . S
C384 C383 1.391 1_565 S
C384 C385 1.399 . S
C385 C384 1.399 . S
C385 C386 1.396 . S
C385 C388 1.453 . S
C385 C389 1.684 . S
C386 C367 1.723 . S
C386 C385 1.396 . S
C386 C387 1.394 1_565 S
C387 C383 1.397 . S
C387 C386 1.394 1_545 S
C387 C397 1.723 . S
C388 C385 1.453 . S
C388 H412 0.982 . S
C388 H413 0.979 . S
C388 H414 0.977 . S
C389 C385 1.684 . S
C389 H415 0.979 . S
C389 H416 0.980 . S
C389 H417 0.983 . S
C390 H366 0.948 . S
C390 C391 1.391 . S
C390 C395 1.391 . S
C391 C390 1.391 . S
C391 C392 1.391 . S
C392 H369 0.947 . S
C392 C391 1.391 . S
C392 C393 1.392 . S
C393 H370 0.948 . S
C393 C392 1.392 . S
C393 C394 1.419 . S
C394 C393 1.419 . S
C394 C395 1.391 . S
C394 C398 1.397 . S
C395 C390 1.391 . S
C395 C394 1.391 . S
C395 C396 1.399 . S
C396 C395 1.399 . S
C396 C397 1.396 . S
C396 C399 1.453 . S
C396 C400 1.684 . S
C397 C387 1.723 . S
C397 C396 1.396 . S
C397 C398 1.394 . S
C398 C368 1.723 1_545 S
C398 C394 1.397 . S
C398 C397 1.394 . S
C399 H371 0.982 . S
C399 H375 0.979 . S
C399 H376 0.977 . S
C399 C396 1.453 . S
C400 H372 0.979 . S
C400 H373 0.980 . S
C400 H374 0.983 . S
C400 C396 1.684 . S
H401 C419 0.948 . S
H402 C360 0.948 . S
H403 C378 0.979 . S
H404 C378 0.980 . S
H405 C378 0.983 . S
H406 C377 0.982 . S
H407 C377 0.979 1_565 S
H408 C377 0.977 . S
H409 C379 0.948 . S
H410 C381 0.947 . S
H411 C382 0.948 . S
H412 C388 0.982 . S
H413 C388 0.979 . S
H414 C388 0.977 . S
H415 C389 0.979 . S
H416 C389 0.980 . S
H417 C389 0.983 . S
H418 C362 0.947 . S
C419 C362 1.392 . S
C419 C363 1.419 . S
C419 H401 0.948 . S
C420 C421 1.391 . S
C420 C424 1.391 . S
C420 H462 0.948 . S
C421 C420 1.391 . S
C421 C422 1.391 . S
C422 C421 1.391 . S
C422 H478 0.947 . S
C422 C479 1.392 . S
C423 C424 1.391 . S
C423 C427 1.397 . S
C423 C479 1.419 . S
C424 C420 1.391 . S
C424 C423 1.391 . S
C424 C425 1.399 . S
C425 C424 1.399 . S
C425 C428 1.396 . S
C425 C437 1.453 . S
C425 C438 1.684 . S
H426 C450 0.948 . S
C427 C423 1.397 . S
C427 C428 1.394 . S
C427 C446 1.723 . S
C428 C425 1.396 . S
C428 C427 1.394 . S
C428 C458 1.723 . S
H429 C452 0.947 . S
H430 C453 0.948 . S
H431 C459 0.982 . S
H432 C460 0.979 . S
H433 C460 0.980 . S
H434 C460 0.983 . S
H435 C459 0.979 . S
H436 C459 0.977 . S
C437 C425 1.453 . S
C437 H466 0.982 . S
C437 H467 0.979 . S
C437 H468 0.977 . S
C438 C425 1.684 . S
C438 H463 0.979 . S
C438 H464 0.980 . S
C438 H465 0.983 . S
C439 C440 1.391 . S
C439 C444 1.391 . S
C439 H469 0.948 . S
C440 C439 1.391 . S
C440 C441 1.391 . S
C441 C440 1.391 . S
C441 C442 1.392 . S
C441 H470 0.947 . S
C442 C441 1.392 . S
C442 C443 1.419 . S
C442 H471 0.948 . S
C443 C442 1.419 . S
C443 C444 1.391 . S
C443 C447 1.397 . S
C444 C439 1.391 . S
C444 C443 1.391 . S
C444 C445 1.399 . S
C445 C444 1.399 . S
C445 C446 1.396 . S
C445 C448 1.453 . S
C445 C449 1.684 . S
C446 C427 1.723 . S
C446 C445 1.396 . S
C446 C447 1.394 . S
C447 C443 1.397 . S
C447 C446 1.394 . S
C447 C457 1.723 . S
C448 C445 1.453 . S
C448 H472 0.982 . S
C448 H473 0.979 . S
C448 H474 0.977 . S
C449 C445 1.684 . S
C449 H475 0.979 . S
C449 H476 0.980 . S
C449 H477 0.983 . S
C450 H426 0.948 . S
C450 C451 1.391 . S
C450 C455 1.391 . S
C451 C450 1.391 . S
C451 C452 1.391 . S
C452 H429 0.947 . S
C452 C451 1.391 . S
C452 C453 1.392 . S
C453 H430 0.948 . S
C453 C452 1.392 . S
C453 C454 1.419 . S
C454 C453 1.419 . S
C454 C455 1.391 . S
C454 C458 1.397 . S
C455 C450 1.391 . S
C455 C454 1.391 . S
C455 C456 1.399 . S
C456 C455 1.399 . S
C456 C457 1.396 . S
C456 C459 1.453 . S
C456 C460 1.684 . S
C457 C447 1.723 . S
C457 C456 1.396 . S
C457 C458 1.394 . S
C458 C428 1.723 . S
C458 C454 1.397 . S
C458 C457 1.394 . S
C459 H431 0.982 . S
C459 H435 0.979 . S
C459 H436 0.977 . S
C459 C456 1.453 . S
C460 H432 0.979 . S
C460 H433 0.980 . S
C460 H434 0.983 . S
C460 C456 1.684 . S
H461 C479 0.948 . S
H462 C420 0.948 . S
H463 C438 0.979 . S
H464 C438 0.980 . S
H465 C438 0.983 . S
H466 C437 0.982 . S
H467 C437 0.979 . S
H468 C437 0.977 . S
H469 C439 0.948 . S
H470 C441 0.947 . S
H471 C442 0.948 . S
H472 C448 0.982 . S
H473 C448 0.979 . S
H474 C448 0.977 . S
H475 C449 0.979 . S
H476 C449 0.980 . S
H477 C449 0.983 . S
H478 C422 0.947 . S
C479 C422 1.392 . S
C479 C423 1.419 . S
C479 H461 0.948 . S
H480 C498 0.951 . S
H481 C500 0.951 . S
H482 C502 0.950 . S
H483 C503 0.950 . S
H484 C505 0.950 . S
H485 C508 0.950 . S
H486 C509 0.950 . S
H487 C511 0.950 . S
H488 C512 0.950 . S
H489 C513 0.951 . S
H490 C515 0.951 . S
H491 C517 0.950 . S
H492 C518 0.950 . S
H493 C520 0.950 . S
H494 C523 0.950 . S
H495 C524 0.950 . S
H496 C526 0.950 . S
H497 C527 0.950 . S
C498 H480 0.951 . S
C498 C499 1.366 . S
C498 C500 1.388 . S
C499 C498 1.366 . S
C499 C503 1.385 . S
C500 H481 0.951 . S
C500 C498 1.388 . S
C500 C501 1.366 . S
C501 C500 1.366 . S
C501 C502 1.414 . S
C501 C504 1.499 . S
C502 H482 0.950 . S
C502 C501 1.414 . S
C502 C503 1.374 . S
C503 H483 0.950 . S
C503 C499 1.385 . S
C503 C502 1.374 . S
C504 C501 1.499 . S
C504 C505 1.373 . S
C504 C506 1.389 . S
C505 H484 0.950 . S
C505 C504 1.373 . S
C505 C521 1.377 . S
C506 C504 1.389 . S
C506 C507 1.524 . S
C506 C520 1.377 . S
C507 C506 1.524 . S
C507 C508 1.397 . S
C507 C512 1.363 . S
C508 H485 0.950 . S
C508 C507 1.397 . S
C508 C509 1.334 . S
C509 H486 0.950 . S
C509 C508 1.334 . S
C509 C510 1.287 . S
C510 C509 1.287 . S
C510 C511 1.524 . S
C510 H529 0.913 . S
C511 H487 0.950 . S
C511 C510 1.524 . S
C511 C512 1.415 . S
C512 H488 0.950 . S
C512 C507 1.363 . S
C512 C511 1.415 . S
C513 H489 0.951 . S
C513 C514 1.366 . S
C513 C515 1.388 . S
C514 C513 1.366 . S
C514 C518 1.385 . S
C515 H490 0.951 . S
C515 C513 1.388 . S
C515 C516 1.366 . S
C516 C515 1.366 . S
C516 C517 1.414 . S
C516 C519 1.499 . S
C517 H491 0.950 . S
C517 C516 1.414 . S
C517 C518 1.374 . S
C518 H492 0.950 . S
C518 C514 1.385 . S
C518 C517 1.374 . S
C519 C516 1.499 . S
C519 C520 1.373 . S
C519 C521 1.389 . S
C520 H493 0.950 . S
C520 C506 1.377 . S
C520 C519 1.373 . S
C521 C505 1.377 . S
C521 C519 1.389 . S
C521 C522 1.524 . S
C522 C521 1.524 . S
C522 C523 1.397 . S
C522 C527 1.363 . S
C523 H494 0.950 . S
C523 C522 1.397 . S
C523 C524 1.334 . S
C524 H495 0.950 . S
C524 C523 1.334 . S
C524 C525 1.287 . S
C525 C524 1.287 . S
C525 C526 1.524 . S
C525 H528 0.999 . S
C526 H496 0.950 . S
C526 C525 1.524 . S
C526 C527 1.415 . S
C527 H497 0.950 . S
C527 C522 1.363 . S
C527 C526 1.415 . S
H528 C525 0.999 . S
H529 C510 0.913 . S
H530 C548 0.951 . S
H531 C550 0.951 . S
H532 C552 0.950 . S
H533 C553 0.950 . S
H534 C555 0.950 . S
H535 C558 0.950 . S
H536 C559 0.950 . S
H537 C561 0.950 . S
H538 C562 0.950 . S
H539 C563 0.951 . S
H540 C565 0.951 . S
H541 C567 0.950 . S
H542 C568 0.950 . S
H543 C570 0.950 . S
H544 C573 0.950 . S
H545 C574 0.950 . S
H546 C576 0.950 . S
H547 C577 0.950 . S
C548 H530 0.951 . S
C548 C549 1.366 . S
C548 C550 1.388 . S
C549 C548 1.366 . S
C549 C553 1.385 . S
C550 H531 0.951 . S
C550 C548 1.388 . S
C550 C551 1.366 . S
C551 C550 1.366 . S
C551 C552 1.414 . S
C551 C554 1.499 . S
C552 H532 0.950 . S
C552 C551 1.414 . S
C552 C553 1.374 . S
C553 H533 0.950 . S
C553 C549 1.385 . S
C553 C552 1.374 . S
C554 C551 1.499 . S
C554 C555 1.373 . S
C554 C556 1.389 . S
C555 H534 0.950 . S
C555 C554 1.373 . S
C555 C571 1.377 . S
C556 C554 1.389 . S
C556 C557 1.524 . S
C556 C570 1.377 . S
C557 C556 1.524 . S
C557 C558 1.397 . S
C557 C562 1.363 . S
C558 H535 0.950 . S
C558 C557 1.397 . S
C558 C559 1.334 . S
C559 H536 0.950 . S
C559 C558 1.334 . S
C559 C560 1.287 . S
C560 C559 1.287 . S
C560 C561 1.524 . S
C560 H579 0.913 . S
C561 H537 0.950 . S
C561 C560 1.524 . S
C561 C562 1.415 . S
C562 H538 0.950 . S
C562 C557 1.363 . S
C562 C561 1.415 . S
C563 H539 0.951 . S
C563 C564 1.366 . S
C563 C565 1.388 . S
C564 C563 1.366 . S
C564 C568 1.385 . S
C565 H540 0.951 . S
C565 C563 1.388 . S
C565 C566 1.366 . S
C566 C565 1.366 . S
C566 C567 1.414 . S
C566 C569 1.499 . S
C567 H541 0.950 . S
C567 C566 1.414 . S
C567 C568 1.374 . S
C568 H542 0.950 . S
C568 C564 1.385 . S
C568 C567 1.374 . S
C569 C566 1.499 . S
C569 C570 1.373 . S
C569 C571 1.389 . S
C570 H543 0.950 . S
C570 C556 1.377 . S
C570 C569 1.373 . S
C571 C555 1.377 . S
C571 C569 1.389 . S
C571 C572 1.524 . S
C572 C571 1.524 . S
C572 C573 1.397 . S
C572 C577 1.363 . S
C573 H544 0.950 . S
C573 C572 1.397 . S
C573 C574 1.334 . S
C574 H545 0.950 . S
C574 C573 1.334 . S
C574 C575 1.287 . S
C575 C574 1.287 . S
C575 C576 1.524 . S
C575 H578 0.999 . S
C576 H546 0.950 . S
C576 C575 1.524 . S
C576 C577 1.415 . S
C577 H547 0.950 . S
C577 C572 1.363 . S
C577 C576 1.415 . S
H578 C575 0.999 . S
H579 C560 0.913 . S
H580 C598 0.951 . S
H581 C600 0.951 . S
H582 C602 0.950 . S
H583 C603 0.950 . S
H584 C605 0.950 . S
H585 C608 0.950 . S
H586 C609 0.950 . S
H587 C611 0.950 . S
H588 C612 0.950 . S
H589 C613 0.951 . S
H590 C615 0.951 . S
H591 C617 0.950 . S
H592 C618 0.950 . S
H593 C620 0.950 . S
H594 C623 0.950 . S
H595 C624 0.950 . S
H596 C626 0.950 . S
H597 C627 0.950 . S
C598 H580 0.951 . S
C598 C599 1.366 . S
C598 C600 1.388 . S
C599 C598 1.366 . S
C599 C603 1.385 . S
C600 H581 0.951 . S
C600 C598 1.388 . S
C600 C601 1.366 . S
C601 C600 1.366 . S
C601 C602 1.414 . S
C601 C604 1.499 . S
C602 H582 0.950 . S
C602 C601 1.414 . S
C602 C603 1.374 . S
C603 H583 0.950 . S
C603 C599 1.385 . S
C603 C602 1.374 . S
C604 C601 1.499 . S
C604 C605 1.373 . S
C604 C606 1.389 . S
C605 H584 0.950 . S
C605 C604 1.373 . S
C605 C621 1.377 . S
C606 C604 1.389 . S
C606 C607 1.524 . S
C606 C620 1.377 . S
C607 C606 1.524 . S
C607 C608 1.397 . S
C607 C612 1.363 . S
C608 H585 0.950 . S
C608 C607 1.397 . S
C608 C609 1.334 . S
C609 H586 0.950 . S
C609 C608 1.334 . S
C609 C610 1.287 . S
C610 C609 1.287 . S
C610 C611 1.524 . S
C610 H629 0.913 . S
C611 H587 0.950 . S
C611 C610 1.524 . S
C611 C612 1.415 . S
C612 H588 0.950 . S
C612 C607 1.363 . S
C612 C611 1.415 . S
C613 H589 0.951 . S
C613 C614 1.366 . S
C613 C615 1.388 . S
C614 C613 1.366 . S
C614 C618 1.385 . S
C615 H590 0.951 . S
C615 C613 1.388 . S
C615 C616 1.366 . S
C616 C615 1.366 . S
C616 C617 1.414 . S
C616 C619 1.499 . S
C617 H591 0.950 . S
C617 C616 1.414 . S
C617 C618 1.374 . S
C618 H592 0.950 . S
C618 C614 1.385 . S
C618 C617 1.374 . S
C619 C616 1.499 . S
C619 C620 1.373 . S
C619 C621 1.389 . S
C620 H593 0.950 . S
C620 C606 1.377 . S
C620 C619 1.373 . S
C621 C605 1.377 . S
C621 C619 1.389 . S
C621 C622 1.524 . S
C622 C621 1.524 . S
C622 C623 1.397 . S
C622 C627 1.363 . S
C623 H594 0.950 . S
C623 C622 1.397 . S
C623 C624 1.334 . S
C624 H595 0.950 . S
C624 C623 1.334 . S
C624 C625 1.287 . S
C625 C624 1.287 . S
C625 C626 1.524 . S
C625 H628 0.999 . S
C626 H596 0.950 . S
C626 C625 1.524 . S
C626 C627 1.415 . S
C627 H597 0.950 . S
C627 C622 1.363 . S
C627 C626 1.415 . S
H628 C625 0.999 . S
H629 C610 0.913 . S
H630 C648 0.951 . S
H631 C650 0.951 . S
H632 C652 0.950 . S
H633 C653 0.950 . S
H634 C655 0.950 . S
H635 C658 0.950 . S
H636 C659 0.950 . S
H637 C661 0.950 . S
H638 C662 0.950 . S
H639 C663 0.951 . S
H640 C665 0.951 . S
H641 C667 0.950 . S
H642 C668 0.950 . S
H643 C670 0.950 . S
H644 C673 0.950 . S
H645 C674 0.950 . S
H646 C676 0.950 . S
H647 C677 0.950 . S
C648 H630 0.951 . S
C648 C649 1.366 . S
C648 C650 1.388 . S
C649 C648 1.366 . S
C649 C653 1.385 . S
C650 H631 0.951 . S
C650 C648 1.388 . S
C650 C651 1.366 . S
C651 C650 1.366 . S
C651 C652 1.414 . S
C651 C654 1.499 . S
C652 H632 0.950 . S
C652 C651 1.414 . S
C652 C653 1.374 . S
C653 H633 0.950 . S
C653 C649 1.385 . S
C653 C652 1.374 . S
C654 C651 1.499 . S
C654 C655 1.373 . S
C654 C656 1.389 . S
C655 H634 0.950 . S
C655 C654 1.373 . S
C655 C671 1.377 . S
C656 C654 1.389 . S
C656 C657 1.524 . S
C656 C670 1.377 . S
C657 C656 1.524 . S
C657 C658 1.397 . S
C657 C662 1.363 . S
C658 H635 0.950 . S
C658 C657 1.397 . S
C658 C659 1.334 . S
C659 H636 0.950 . S
C659 C658 1.334 . S
C659 C660 1.287 . S
C660 C659 1.287 . S
C660 C661 1.524 . S
C660 H679 0.913 . S
C661 H637 0.950 . S
C661 C660 1.524 . S
C661 C662 1.415 . S
C662 H638 0.950 . S
C662 C657 1.363 . S
C662 C661 1.415 . S
C663 H639 0.951 . S
C663 C664 1.366 . S
C663 C665 1.388 . S
C664 C663 1.366 . S
C664 C668 1.385 . S
C665 H640 0.951 . S
C665 C663 1.388 . S
C665 C666 1.366 . S
C666 C665 1.366 . S
C666 C667 1.414 . S
C666 C669 1.499 . S
C667 H641 0.950 . S
C667 C666 1.414 . S
C667 C668 1.374 . S
C668 H642 0.950 . S
C668 C664 1.385 . S
C668 C667 1.374 . S
C669 C666 1.499 . S
C669 C670 1.373 . S
C669 C671 1.389 . S
C670 H643 0.950 . S
C670 C656 1.377 . S
C670 C669 1.373 . S
C671 C655 1.377 . S
C671 C669 1.389 . S
C671 C672 1.524 . S
C672 C671 1.524 . S
C672 C673 1.397 . S
C672 C677 1.363 . S
C673 H644 0.950 . S
C673 C672 1.397 . S
C673 C674 1.334 . S
C674 H645 0.950 . S
C674 C673 1.334 . S
C674 C675 1.287 . S
C675 C674 1.287 . S
C675 C676 1.524 . S
C675 H678 0.999 . S
C676 H646 0.950 . S
C676 C675 1.524 . S
C676 C677 1.415 . S
C677 H647 0.950 . S
C677 C672 1.363 . S
C677 C676 1.415 . S
H678 C675 0.999 . S
H679 C660 0.913 . S
H680 C698 0.951 . S
H681 C700 0.951 . S
H682 C702 0.950 . S
H683 C703 0.950 . S
H684 C705 0.950 . S
H685 C708 0.950 . S
H686 C709 0.950 . S
H687 C711 0.950 . S
H688 C712 0.950 . S
H689 C713 0.951 . S
H690 C715 0.951 . S
H691 C717 0.950 . S
H692 C718 0.950 . S
H693 C720 0.950 . S
H694 C723 0.950 . S
H695 C724 0.950 . S
H696 C726 0.950 . S
H697 C727 0.950 . S
C698 H680 0.951 . S
C698 C699 1.366 . S
C698 C700 1.388 . S
C699 C698 1.366 . S
C699 C703 1.385 . S
C700 H681 0.951 . S
C700 C698 1.388 . S
C700 C701 1.366 . S
C701 C700 1.366 . S
C701 C702 1.414 . S
C701 C704 1.499 . S
C702 H682 0.950 . S
C702 C701 1.414 . S
C702 C703 1.374 . S
C703 H683 0.950 . S
C703 C699 1.385 . S
C703 C702 1.374 . S
C704 C701 1.499 . S
C704 C705 1.373 . S
C704 C706 1.389 . S
C705 H684 0.950 . S
C705 C704 1.373 . S
C705 C721 1.377 . S
C706 C704 1.389 . S
C706 C707 1.524 . S
C706 C720 1.377 . S
C707 C706 1.524 . S
C707 C708 1.397 . S
C707 C712 1.363 . S
C708 H685 0.950 . S
C708 C707 1.397 . S
C708 C709 1.334 . S
C709 H686 0.950 . S
C709 C708 1.334 . S
C709 C710 1.287 . S
C710 C709 1.287 . S
C710 C711 1.524 . S
C710 H729 0.913 . S
C711 H687 0.950 . S
C711 C710 1.524 . S
C711 C712 1.415 . S
C712 H688 0.950 . S
C712 C707 1.363 . S
C712 C711 1.415 . S
C713 H689 0.951 . S
C713 C714 1.366 . S
C713 C715 1.388 . S
C714 C713 1.366 . S
C714 C718 1.385 . S
C715 H690 0.951 . S
C715 C713 1.388 . S
C715 C716 1.366 . S
C716 C715 1.366 . S
C716 C717 1.414 . S
C716 C719 1.499 . S
C717 H691 0.950 . S
C717 C716 1.414 . S
C717 C718 1.374 . S
C718 H692 0.950 . S
C718 C714 1.385 . S
C718 C717 1.374 . S
C719 C716 1.499 . S
C719 C720 1.373 . S
C719 C721 1.389 . S
C720 H693 0.950 . S
C720 C706 1.377 . S
C720 C719 1.373 . S
C721 C705 1.377 . S
C721 C719 1.389 . S
C721 C722 1.524 . S
C722 C721 1.524 . S
C722 C723 1.397 . S
C722 C727 1.363 . S
C723 H694 0.950 . S
C723 C722 1.397 . S
C723 C724 1.334 . S
C724 H695 0.950 . S
C724 C723 1.334 . S
C724 C725 1.287 . S
C725 C724 1.287 . S
C725 C726 1.524 . S
C725 H728 0.999 . S
C726 H696 0.950 . S
C726 C725 1.524 . S
C726 C727 1.415 . S
C727 H697 0.950 . S
C727 C722 1.363 . S
C727 C726 1.415 . S
H728 C725 0.999 . S
H729 C710 0.913 . S
H730 C748 0.951 . S
H731 C750 0.951 . S
H732 C752 0.950 . S
H733 C753 0.950 . S
H734 C755 0.950 . S
H735 C758 0.950 . S
H736 C759 0.950 . S
H737 C761 0.950 . S
H738 C762 0.950 . S
H739 C763 0.951 . S
H740 C765 0.951 . S
H741 C767 0.950 . S
H742 C768 0.950 . S
H743 C770 0.950 . S
H744 C773 0.950 . S
H745 C774 0.950 . S
H746 C776 0.950 . S
H747 C777 0.950 . S
C748 H730 0.951 . S
C748 C749 1.366 . S
C748 C750 1.388 . S
C749 C748 1.366 . S
C749 C753 1.385 . S
C750 H731 0.951 . S
C750 C748 1.388 . S
C750 C751 1.366 . S
C751 C750 1.366 . S
C751 C752 1.414 . S
C751 C754 1.499 . S
C752 H732 0.950 . S
C752 C751 1.414 . S
C752 C753 1.374 . S
C753 H733 0.950 . S
C753 C749 1.385 . S
C753 C752 1.374 . S
C754 C751 1.499 . S
C754 C755 1.373 . S
C754 C756 1.389 . S
C755 H734 0.950 . S
C755 C754 1.373 . S
C755 C771 1.377 . S
C756 C754 1.389 . S
C756 C757 1.524 . S
C756 C770 1.377 . S
C757 C756 1.524 . S
C757 C758 1.397 . S
C757 C762 1.363 . S
C758 H735 0.950 . S
C758 C757 1.397 . S
C758 C759 1.334 . S
C759 H736 0.950 . S
C759 C758 1.334 . S
C759 C760 1.287 . S
C760 C759 1.287 . S
C760 C761 1.524 . S
C760 H779 0.913 . S
C761 H737 0.950 . S
C761 C760 1.524 . S
C761 C762 1.415 . S
C762 H738 0.950 . S
C762 C757 1.363 . S
C762 C761 1.415 . S
C763 H739 0.951 . S
C763 C764 1.366 . S
C763 C765 1.388 . S
C764 C763 1.366 . S
C764 C768 1.385 . S
C765 H740 0.951 . S
C765 C763 1.388 . S
C765 C766 1.366 . S
C766 C765 1.366 . S
C766 C767 1.414 . S
C766 C769 1.499 . S
C767 H741 0.950 . S
C767 C766 1.414 . S
C767 C768 1.374 . S
C768 H742 0.950 . S
C768 C764 1.385 . S
C768 C767 1.374 . S
C769 C766 1.499 . S
C769 C770 1.373 . S
C769 C771 1.389 . S
C770 H743 0.950 . S
C770 C756 1.377 . S
C770 C769 1.373 . S
C771 C755 1.377 . S
C771 C769 1.389 . S
C771 C772 1.524 . S
C772 C771 1.524 . S
C772 C773 1.397 . S
C772 C777 1.363 . S
C773 H744 0.950 . S
C773 C772 1.397 . S
C773 C774 1.334 . S
C774 H745 0.950 . S
C774 C773 1.334 . S
C774 C775 1.287 . S
C775 C774 1.287 . S
C775 C776 1.524 . S
C775 H778 0.999 . S
C776 H746 0.950 . S
C776 C775 1.524 . S
C776 C777 1.415 . S
C777 H747 0.950 . S
C777 C772 1.363 . S
C777 C776 1.415 . S
H778 C775 0.999 . S
H779 C760 0.913 . S
H780 C798 0.951 . S
H781 C800 0.951 . S
H782 C802 0.950 . S
H783 C803 0.950 . S
H784 C805 0.950 . S
H785 C808 0.950 . S
H786 C809 0.950 . S
H787 C811 0.950 . S
H788 C812 0.950 . S
H789 C813 0.951 . S
H790 C815 0.951 . S
H791 C817 0.950 . S
H792 C818 0.950 . S
H793 C820 0.950 . S
H794 C823 0.950 . S
H795 C824 0.950 . S
H796 C826 0.950 . S
H797 C827 0.950 . S
C798 H780 0.951 . S
C798 C799 1.366 . S
C798 C800 1.388 . S
C799 C798 1.366 . S
C799 C803 1.385 . S
C800 H781 0.951 . S
C800 C798 1.388 . S
C800 C801 1.366 . S
C801 C800 1.366 . S
C801 C802 1.414 . S
C801 C804 1.499 . S
C802 H782 0.950 . S
C802 C801 1.414 . S
C802 C803 1.374 . S
C803 H783 0.950 . S
C803 C799 1.385 . S
C803 C802 1.374 . S
C804 C801 1.499 . S
C804 C805 1.373 . S
C804 C806 1.389 . S
C805 H784 0.950 . S
C805 C804 1.373 . S
C805 C821 1.377 . S
C806 C804 1.389 . S
C806 C807 1.524 . S
C806 C820 1.377 . S
C807 C806 1.524 . S
C807 C808 1.397 . S
C807 C812 1.363 . S
C808 H785 0.950 . S
C808 C807 1.397 . S
C808 C809 1.334 . S
C809 H786 0.950 . S
C809 C808 1.334 . S
C809 C810 1.287 . S
C810 C809 1.287 . S
C810 C811 1.524 . S
C810 H829 0.913 . S
C811 H787 0.950 . S
C811 C810 1.524 . S
C811 C812 1.415 . S
C812 H788 0.950 . S
C812 C807 1.363 . S
C812 C811 1.415 . S
C813 H789 0.951 . S
C813 C814 1.366 . S
C813 C815 1.388 . S
C814 C813 1.366 . S
C814 C818 1.385 . S
C815 H790 0.951 . S
C815 C813 1.388 . S
C815 C816 1.366 . S
C816 C815 1.366 . S
C816 C817 1.414 . S
C816 C819 1.499 . S
C817 H791 0.950 . S
C817 C816 1.414 . S
C817 C818 1.374 . S
C818 H792 0.950 . S
C818 C814 1.385 . S
C818 C817 1.374 . S
C819 C816 1.499 . S
C819 C820 1.373 . S
C819 C821 1.389 . S
C820 H793 0.950 . S
C820 C806 1.377 . S
C820 C819 1.373 . S
C821 C805 1.377 . S
C821 C819 1.389 . S
C821 C822 1.524 . S
C822 C821 1.524 . S
C822 C823 1.397 . S
C822 C827 1.363 . S
C823 H794 0.950 . S
C823 C822 1.397 . S
C823 C824 1.334 . S
C824 H795 0.950 . S
C824 C823 1.334 . S
C824 C825 1.287 . S
C825 C824 1.287 . S
C825 C826 1.524 . S
C825 H828 0.999 . S
C826 H796 0.950 . S
C826 C825 1.524 . S
C826 C827 1.415 . S
C827 H797 0.950 . S
C827 C822 1.363 . S
C827 C826 1.415 . S
H828 C825 0.999 . S
H829 C810 0.913 . S
H830 C848 0.951 . S
H831 C850 0.951 . S
H832 C852 0.950 . S
H833 C853 0.950 . S
H834 C855 0.950 . S
H835 C858 0.950 . S
H836 C859 0.950 . S
H837 C861 0.950 . S
H838 C862 0.950 . S
H839 C863 0.951 . S
H840 C865 0.951 . S
H841 C867 0.950 . S
H842 C868 0.950 . S
H843 C870 0.950 . S
H844 C873 0.950 . S
H845 C874 0.950 . S
H846 C876 0.950 . S
H847 C877 0.950 . S
C848 H830 0.951 . S
C848 C849 1.366 . S
C848 C850 1.388 . S
C849 C848 1.366 . S
C849 C853 1.385 . S
C850 H831 0.951 . S
C850 C848 1.388 . S
C850 C851 1.366 . S
C851 C850 1.366 . S
C851 C852 1.414 . S
C851 C854 1.499 . S
C852 H832 0.950 . S
C852 C851 1.414 . S
C852 C853 1.374 . S
C853 H833 0.950 . S
C853 C849 1.385 . S
C853 C852 1.374 . S
C854 C851 1.499 . S
C854 C855 1.373 . S
C854 C856 1.389 . S
C855 H834 0.950 . S
C855 C854 1.373 . S
C855 C871 1.377 . S
C856 C854 1.389 . S
C856 C857 1.524 . S
C856 C870 1.377 . S
C857 C856 1.524 . S
C857 C858 1.397 . S
C857 C862 1.363 . S
C858 H835 0.950 . S
C858 C857 1.397 . S
C858 C859 1.334 . S
C859 H836 0.950 . S
C859 C858 1.334 . S
C859 C860 1.287 . S
C860 C859 1.287 . S
C860 C861 1.524 . S
C860 H879 0.913 . S
C861 H837 0.950 . S
C861 C860 1.524 . S
C861 C862 1.415 . S
C862 H838 0.950 . S
C862 C857 1.363 . S
C862 C861 1.415 . S
C863 H839 0.951 . S
C863 C864 1.366 . S
C863 C865 1.388 . S
C864 C863 1.366 . S
C864 C868 1.385 . S
C865 H840 0.951 . S
C865 C863 1.388 . S
C865 C866 1.366 . S
C866 C865 1.366 . S
C866 C867 1.414 . S
C866 C869 1.499 . S
C867 H841 0.950 . S
C867 C866 1.414 . S
C867 C868 1.374 . S
C868 H842 0.950 . S
C868 C864 1.385 . S
C868 C867 1.374 . S
C869 C866 1.499 . S
C869 C870 1.373 . S
C869 C871 1.389 . S
C870 H843 0.950 . S
C870 C856 1.377 . S
C870 C869 1.373 . S
C871 C855 1.377 . S
C871 C869 1.389 . S
C871 C872 1.524 . S
C872 C871 1.524 . S
C872 C873 1.397 . S
C872 C877 1.363 . S
C873 H844 0.950 . S
C873 C872 1.397 . S
C873 C874 1.334 . S
C874 H845 0.950 . S
C874 C873 1.334 . S
C874 C875 1.287 . S
C875 C874 1.287 . S
C875 C876 1.524 . S
C875 H878 0.999 . S
C876 H846 0.950 . S
C876 C875 1.524 . S
C876 C877 1.415 . S
C877 H847 0.950 . S
C877 C872 1.363 . S
C877 C876 1.415 . S
H878 C875 0.999 . S
H879 C860 0.913 . S
H880 C898 0.951 . S
H881 C900 0.951 . S
H882 C902 0.950 . S
H883 C903 0.950 . S
H884 C905 0.950 . S
H885 C908 0.950 . S
H886 C909 0.950 . S
H887 C911 0.950 . S
H888 C912 0.950 . S
H889 C913 0.951 . S
H890 C915 0.951 . S
H891 C917 0.950 . S
H892 C918 0.950 . S
H893 C920 0.950 . S
H894 C923 0.950 . S
H895 C924 0.950 . S
H896 C926 0.950 . S
H897 C927 0.950 . S
C898 H880 0.951 . S
C898 C899 1.366 . S
C898 C900 1.388 . S
C899 C898 1.366 . S
C899 C903 1.385 . S
C900 H881 0.951 . S
C900 C898 1.388 . S
C900 C901 1.366 . S
C901 C900 1.366 . S
C901 C902 1.414 . S
C901 C904 1.499 . S
C902 H882 0.950 . S
C902 C901 1.414 . S
C902 C903 1.374 . S
C903 H883 0.950 . S
C903 C899 1.385 . S
C903 C902 1.374 . S
C904 C901 1.499 . S
C904 C905 1.373 . S
C904 C906 1.389 . S
C905 H884 0.950 . S
C905 C904 1.373 . S
C905 C921 1.377 . S
C906 C904 1.389 . S
C906 C907 1.524 . S
C906 C920 1.377 . S
C907 C906 1.524 . S
C907 C908 1.397 . S
C907 C912 1.363 . S
C908 H885 0.950 . S
C908 C907 1.397 . S
C908 C909 1.334 . S
C909 H886 0.950 . S
C909 C908 1.334 . S
C909 C910 1.287 . S
C910 C909 1.287 . S
C910 C911 1.524 . S
C910 H929 0.913 . S
C911 H887 0.950 . S
C911 C910 1.524 . S
C911 C912 1.415 . S
C912 H888 0.950 . S
C912 C907 1.363 . S
C912 C911 1.415 . S
C913 H889 0.951 . S
C913 C914 1.366 . S
C913 C915 1.388 . S
C914 C913 1.366 . S
C914 C918 1.385 . S
C915 H890 0.951 . S
C915 C913 1.388 . S
C915 C916 1.366 . S
C916 C915 1.366 . S
C916 C917 1.414 . S
C916 C919 1.499 . S
C917 H891 0.950 . S
C917 C916 1.414 . S
C917 C918 1.374 . S
C918 H892 0.950 . S
C918 C914 1.385 . S
C918 C917 1.374 . S
C919 C916 1.499 . S
C919 C920 1.373 . S
C919 C921 1.389 . S
C920 H893 0.950 . S
C920 C906 1.377 . S
C920 C919 1.373 . S
C921 C905 1.377 . S
C921 C919 1.389 . S
C921 C922 1.524 . S
C922 C921 1.524 . S
C922 C923 1.397 . S
C922 C927 1.363 . S
C923 H894 0.950 . S
C923 C922 1.397 . S
C923 C924 1.334 . S
C924 H895 0.950 . S
C924 C923 1.334 . S
C924 C925 1.287 . S
C925 C924 1.287 . S
C925 C926 1.524 . S
C925 H928 0.999 . S
C926 H896 0.950 . S
C926 C925 1.524 . S
C926 C927 1.415 . S
C927 H897 0.950 . S
C927 C922 1.363 . S
C927 C926 1.415 . S
H928 C925 0.999 . S
H929 C910 0.913 . S
H930 C948 0.951 . S
H931 C950 0.951 . S
H932 C952 0.950 . S
H933 C953 0.950 . S
H934 C955 0.950 . S
H935 C958 0.950 . S
H936 C959 0.950 . S
H937 C961 0.950 . S
H938 C962 0.950 . S
H939 C963 0.951 . S
H940 C965 0.951 . S
H941 C967 0.950 . S
H942 C968 0.950 . S
H943 C970 0.950 . S
H944 C973 0.950 . S
H945 C974 0.950 . S
H946 C976 0.950 . S
H947 C977 0.950 . S
C948 H930 0.951 . S
C948 C949 1.366 . S
C948 C950 1.388 . S
C949 C948 1.366 . S
C949 C953 1.385 . S
C950 H931 0.951 . S
C950 C948 1.388 . S
C950 C951 1.366 . S
C951 C950 1.366 . S
C951 C952 1.414 . S
C951 C954 1.499 . S
C952 H932 0.950 . S
C952 C951 1.414 . S
C952 C953 1.374 . S
C953 H933 0.950 . S
C953 C949 1.385 . S
C953 C952 1.374 . S
C954 C951 1.499 . S
C954 C955 1.373 . S
C954 C956 1.389 . S
C955 H934 0.950 . S
C955 C954 1.373 . S
C955 C971 1.377 . S
C956 C954 1.389 . S
C956 C957 1.524 . S
C956 C970 1.377 . S
C957 C956 1.524 . S
C957 C958 1.397 . S
C957 C962 1.363 . S
C958 H935 0.950 . S
C958 C957 1.397 . S
C958 C959 1.334 . S
C959 H936 0.950 . S
C959 C958 1.334 . S
C959 C960 1.287 . S
C960 C959 1.287 . S
C960 C961 1.524 . S
C960 H979 0.913 . S
C961 H937 0.950 . S
C961 C960 1.524 . S
C961 C962 1.415 . S
C962 H938 0.950 . S
C962 C957 1.363 . S
C962 C961 1.415 . S
C963 H939 0.951 . S
C963 C964 1.366 . S
C963 C965 1.388 . S
C964 C963 1.366 . S
C964 C968 1.385 . S
C965 H940 0.951 . S
C965 C963 1.388 . S
C965 C966 1.366 . S
C966 C965 1.366 . S
C966 C967 1.414 . S
C966 C969 1.499 . S
C967 H941 0.950 . S
C967 C966 1.414 . S
C967 C968 1.374 . S
C968 H942 0.950 . S
C968 C964 1.385 . S
C968 C967 1.374 . S
C969 C966 1.499 . S
C969 C970 1.373 . S
C969 C971 1.389 . S
C970 H943 0.950 . S
C970 C956 1.377 . S
C970 C969 1.373 . S
C971 C955 1.377 . S
C971 C969 1.389 . S
C971 C972 1.524 . S
C972 C971 1.524 . S
C972 C973 1.397 . S
C972 C977 1.363 . S
C973 H944 0.950 . S
C973 C972 1.397 . S
C973 C974 1.334 . S
C974 H945 0.950 . S
C974 C973 1.334 . S
C974 C975 1.287 . S
C975 C974 1.287 . S
C975 C976 1.524 . S
C975 H978 0.999 . S
C976 H946 0.950 . S
C976 C975 1.524 . S
C976 C977 1.415 . S
C977 H947 0.950 . S
C977 C972 1.363 . S
C977 C976 1.415 . S
H978 C975 0.999 . S
H979 C960 0.913 . S
H980 C998 0.951 . S
H981 C1000 0.951 . S
H982 C1002 0.950 . S
H983 C1003 0.950 . S
H984 C1005 0.950 . S
H985 C1008 0.950 . S
H986 C1009 0.950 . S
H987 C1011 0.950 . S
H988 C1012 0.950 . S
H989 C1013 0.951 . S
H990 C1015 0.951 . S
H991 C1017 0.950 . S
H992 C1018 0.950 . S
H993 C1020 0.950 . S
H994 C1023 0.950 . S
H995 C1024 0.950 . S
H996 C1026 0.950 . S
H997 C1027 0.950 . S
C998 H980 0.951 . S
C998 C999 1.366 . S
C998 C1000 1.388 . S
C999 C998 1.366 . S
C999 C1003 1.385 . S
C1000 H981 0.951 . S
C1000 C998 1.388 . S
C1000 C1001 1.366 . S
C1001 C1000 1.366 . S
C1001 C1002 1.414 . S
C1001 C1004 1.499 . S
C1002 H982 0.950 . S
C1002 C1001 1.414 . S
C1002 C1003 1.374 . S
C1003 H983 0.950 . S
C1003 C999 1.385 . S
C1003 C1002 1.374 . S
C1004 C1001 1.499 . S
C1004 C1005 1.373 . S
C1004 C1006 1.389 . S
C1005 H984 0.950 . S
C1005 C1004 1.373 . S
C1005 C1021 1.377 . S
C1006 C1004 1.389 . S
C1006 C1007 1.524 . S
C1006 C1020 1.377 . S
C1007 C1006 1.524 . S
C1007 C1008 1.397 . S
C1007 C1012 1.363 . S
C1008 H985 0.950 . S
C1008 C1007 1.397 . S
C1008 C1009 1.334 . S
C1009 H986 0.950 . S
C1009 C1008 1.334 . S
C1009 C1010 1.287 . S
C1010 C1009 1.287 . S
C1010 C1011 1.524 . S
C1010 H1029 0.913 . S
C1011 H987 0.950 . S
C1011 C1010 1.524 . S
C1011 C1012 1.415 . S
C1012 H988 0.950 . S
C1012 C1007 1.363 . S
C1012 C1011 1.415 . S
C1013 H989 0.951 . S
C1013 C1014 1.366 . S
C1013 C1015 1.388 . S
C1014 C1013 1.366 . S
C1014 C1018 1.385 . S
C1015 H990 0.951 . S
C1015 C1013 1.388 . S
C1015 C1016 1.366 . S
C1016 C1015 1.366 . S
C1016 C1017 1.414 . S
C1016 C1019 1.499 . S
C1017 H991 0.950 . S
C1017 C1016 1.414 . S
C1017 C1018 1.374 . S
C1018 H992 0.950 . S
C1018 C1014 1.385 . S
C1018 C1017 1.374 . S
C1019 C1016 1.499 . S
C1019 C1020 1.373 . S
C1019 C1021 1.389 . S
C1020 H993 0.950 . S
C1020 C1006 1.377 . S
C1020 C1019 1.373 . S
C1021 C1005 1.377 . S
C1021 C1019 1.389 . S
C1021 C1022 1.524 . S
C1022 C1021 1.524 . S
C1022 C1023 1.397 . S
C1022 C1027 1.363 . S
C1023 H994 0.950 . S
C1023 C1022 1.397 . S
C1023 C1024 1.334 . S
C1024 H995 0.950 . S
C1024 C1023 1.334 . S
C1024 C1025 1.287 . S
C1025 C1024 1.287 . S
C1025 C1026 1.524 . S
C1025 H1028 0.999 . S
C1026 H996 0.950 . S
C1026 C1025 1.524 . S
C1026 C1027 1.415 . S
C1027 H997 0.950 . S
C1027 C1022 1.363 . S
C1027 C1026 1.415 . S
H1028 C1025 0.999 . S
H1029 C1010 0.913 . S
H1030 C1048 0.951 . S
H1031 C1050 0.951 . S
H1032 C1052 0.950 . S
H1033 C1053 0.950 . S
H1034 C1055 0.950 . S
H1035 C1058 0.950 . S
H1036 C1059 0.950 . S
H1037 C1061 0.950 . S
H1038 C1062 0.950 . S
H1039 C1063 0.951 . S
H1040 C1065 0.951 . S
H1041 C1067 0.950 . S
H1042 C1068 0.950 . S
H1043 C1070 0.950 . S
H1044 C1073 0.950 . S
H1045 C1074 0.950 . S
H1046 C1076 0.950 . S
H1047 C1077 0.950 . S
C1048 H1030 0.951 . S
C1048 C1049 1.366 . S
C1048 C1050 1.388 . S
C1049 C1048 1.366 . S
C1049 C1053 1.385 . S
C1050 H1031 0.951 . S
C1050 C1048 1.388 . S
C1050 C1051 1.366 . S
C1051 C1050 1.366 . S
C1051 C1052 1.414 . S
C1051 C1054 1.499 . S
C1052 H1032 0.950 . S
C1052 C1051 1.414 . S
C1052 C1053 1.374 . S
C1053 H1033 0.950 . S
C1053 C1049 1.385 . S
C1053 C1052 1.374 . S
C1054 C1051 1.499 . S
C1054 C1055 1.373 . S
C1054 C1056 1.389 . S
C1055 H1034 0.950 . S
C1055 C1054 1.373 . S
C1055 C1071 1.377 . S
C1056 C1054 1.389 . S
C1056 C1057 1.524 . S
C1056 C1070 1.377 . S
C1057 C1056 1.524 . S
C1057 C1058 1.397 . S
C1057 C1062 1.363 . S
C1058 H1035 0.950 . S
C1058 C1057 1.397 . S
C1058 C1059 1.334 . S
C1059 H1036 0.950 . S
C1059 C1058 1.334 . S
C1059 C1060 1.287 . S
C1060 C1059 1.287 . S
C1060 C1061 1.524 . S
C1060 H1079 0.913 . S
C1061 H1037 0.950 . S
C1061 C1060 1.524 . S
C1061 C1062 1.415 . S
C1062 H1038 0.950 . S
C1062 C1057 1.363 . S
C1062 C1061 1.415 . S
C1063 H1039 0.951 . S
C1063 C1064 1.366 . S
C1063 C1065 1.388 . S
C1064 C1063 1.366 . S
C1064 C1068 1.385 . S
C1065 H1040 0.951 . S
C1065 C1063 1.388 . S
C1065 C1066 1.366 . S
C1066 C1065 1.366 . S
C1066 C1067 1.414 . S
C1066 C1069 1.499 . S
C1067 H1041 0.950 . S
C1067 C1066 1.414 . S
C1067 C1068 1.374 . S
C1068 H1042 0.950 . S
C1068 C1064 1.385 . S
C1068 C1067 1.374 . S
C1069 C1066 1.499 . S
C1069 C1070 1.373 . S
C1069 C1071 1.389 . S
C1070 H1043 0.950 . S
C1070 C1056 1.377 . S
C1070 C1069 1.373 . S
C1071 C1055 1.377 . S
C1071 C1069 1.389 . S
C1071 C1072 1.524 . S
C1072 C1071 1.524 . S
C1072 C1073 1.397 . S
C1072 C1077 1.363 . S
C1073 H1044 0.950 . S
C1073 C1072 1.397 . S
C1073 C1074 1.334 . S
C1074 H1045 0.950 . S
C1074 C1073 1.334 . S
C1074 C1075 1.287 . S
C1075 C1074 1.287 . S
C1075 C1076 1.524 . S
C1075 H1078 0.999 . S
C1076 H1046 0.950 . S
C1076 C1075 1.524 . S
C1076 C1077 1.415 . S
C1077 H1047 0.950 . S
C1077 C1072 1.363 . S
C1077 C1076 1.415 . S
H1078 C1075 0.999 . S
H1079 C1060 0.913 . S
H1080 C1098 0.951 1_655 S
H1081 C1100 0.951 1_655 S
H1082 C1102 0.950 . S
H1083 C1103 0.950 . S
H1084 C1105 0.950 . S
H1085 C1108 0.950 . S
H1086 C1109 0.950 . S
H1087 C1111 0.950 1_655 S
H1088 C1112 0.950 1_655 S
H1089 C1113 0.951 . S
H1090 C1115 0.951 . S
H1091 C1117 0.950 1_655 S
H1092 C1118 0.950 1_655 S
H1093 C1120 0.950 . S
H1094 C1123 0.949 1_655 S
H1095 C1124 0.950 . S
H1096 C1126 0.950 . S
H1097 C1127 0.950 . S
C1098 H1080 0.951 1_455 S
C1098 C1099 1.366 . S
C1098 C1100 1.388 . S
C1099 C1098 1.366 . S
C1099 C1103 1.385 . S
C1100 H1081 0.951 1_455 S
C1100 C1098 1.388 . S
C1100 C1101 1.366 . S
C1101 C1100 1.366 . S
C1101 C1102 1.414 . S
C1101 C1104 1.499 . S
C1102 H1082 0.950 . S
C1102 C1101 1.414 . S
C1102 C1103 1.374 . S
C1103 H1083 0.950 . S
C1103 C1099 1.385 . S
C1103 C1102 1.374 . S
C1104 C1101 1.499 . S
C1104 C1105 1.373 . S
C1104 C1106 1.389 . S
C1105 H1084 0.950 . S
C1105 C1104 1.373 . S
C1105 C1121 1.377 . S
C1106 C1104 1.389 . S
C1106 C1107 1.524 . S
C1106 C1120 1.377 . S
C1107 C1106 1.524 . S
C1107 C1108 1.397 . S
C1107 C1112 1.363 . S
C1108 H1085 0.950 . S
C1108 C1107 1.397 . S
C1108 C1109 1.334 . S
C1109 H1086 0.950 . S
C1109 C1108 1.334 . S
C1109 C1110 1.287 . S
C1110 C1109 1.287 . S
C1110 C1111 1.524 . S
C1110 H1129 0.913 . S
C1111 H1087 0.950 1_455 S
C1111 C1110 1.524 . S
C1111 C1112 1.415 . S
C1112 H1088 0.950 1_455 S
C1112 C1107 1.363 . S
C1112 C1111 1.415 . S
C1113 H1089 0.951 . S
C1113 C1114 1.366 . S
C1113 C1115 1.388 1_556 S
C1114 C1113 1.366 . S
C1114 C1118 1.385 . S
C1115 H1090 0.951 . S
C1115 C1113 1.388 1_554 S
C1115 C1116 1.366 . S
C1116 C1115 1.366 . S
C1116 C1117 1.414 . S
C1116 C1119 1.499 . S
C1117 H1091 0.950 1_455 S
C1117 C1116 1.414 . S
C1117 C1118 1.374 1_554 S
C1118 H1092 0.950 1_455 S
C1118 C1114 1.385 . S
C1118 C1117 1.374 1_556 S
C1119 C1116 1.499 . S
C1119 C1120 1.373 . S
C1119 C1121 1.389 . S
C1120 H1093 0.950 . S
C1120 C1106 1.377 . S
C1120 C1119 1.373 . S
C1121 C1105 1.377 . S
C1121 C1119 1.389 . S
C1121 C1122 1.524 . S
C1122 C1121 1.524 . S
C1122 C1123 1.398 . S
C1122 C1127 1.363 . S
C1123 H1094 0.949 1_455 S
C1123 C1122 1.398 . S
C1123 C1124 1.333 1_455 S
C1124 H1095 0.950 . S
C1124 C1123 1.333 1_655 S
C1124 C1125 1.287 1_655 S
C1125 C1124 1.287 1_455 S
C1125 C1126 1.524 . S
C1125 H1128 0.999 . S
C1126 H1096 0.950 . S
C1126 C1125 1.524 . S
C1126 C1127 1.415 . S
C1127 H1097 0.950 . S
C1127 C1122 1.363 . S
C1127 C1126 1.415 . S
H1128 C1125 0.999 . S
H1129 C1110 0.913 . S
H1130 C1148 0.951 . S
H1131 C1150 0.951 . S
H1132 C1152 0.950 . S
H1133 C1153 0.950 . S
H1134 C1155 0.950 . S
H1135 C1158 0.950 . S
H1136 C1159 0.950 . S
H1137 C1161 0.950 . S
H1138 C1162 0.950 . S
H1139 C1163 0.934 1_565 S
H1140 C1165 0.944 1_565 S
H1141 C1167 0.950 . S
H1142 C1168 0.950 . S
H1143 C1170 0.950 . S
H1144 C1173 0.950 . S
H1145 C1174 0.950 . S
H1146 C1176 0.950 . S
H1147 C1177 0.950 1_565 S
C1148 H1130 0.951 . S
C1148 C1149 1.366 . S
C1148 C1150 1.388 . S
C1149 C1148 1.366 . S
C1149 C1153 1.385 1_545 S
C1150 H1131 0.951 . S
C1150 C1148 1.388 . S
C1150 C1151 1.366 . S
C1151 C1150 1.366 . S
C1151 C1152 1.414 1_545 S
C1151 C1154 1.499 . S
C1152 H1132 0.950 . S
C1152 C1151 1.414 1_565 S
C1152 C1153 1.374 . S
C1153 H1133 0.950 . S
C1153 C1149 1.385 1_565 S
C1153 C1152 1.374 . S
C1154 C1151 1.499 . S
C1154 C1155 1.373 . S
C1154 C1156 1.389 . S
C1155 H1134 0.950 . S
C1155 C1154 1.373 . S
C1155 C1171 1.377 . S
C1156 C1154 1.389 . S
C1156 C1157 1.524 1_545 S
C1156 C1170 1.377 . S
C1157 C1156 1.524 1_565 S
C1157 C1158 1.397 . S
C1157 C1162 1.363 1_565 S
C1158 H1135 0.950 . S
C1158 C1157 1.397 . S
C1158 C1159 1.334 . S
C1159 H1136 0.950 . S
C1159 C1158 1.334 . S
C1159 C1160 1.287 . S
C1160 C1159 1.287 . S
C1160 C1161 1.524 1_565 S
C1160 H1179 0.913 . S
C1161 H1137 0.950 . S
C1161 C1160 1.524 1_545 S
C1161 C1162 1.415 . S
C1162 H1138 0.950 . S
C1162 C1157 1.363 1_545 S
C1162 C1161 1.415 . S
C1163 H1139 0.934 1_545 S
C1163 C1164 1.384 . S
C1163 C1165 1.387 . S
C1164 C1163 1.384 . S
C1164 C1168 1.385 . S
C1165 H1140 0.944 1_545 S
C1165 C1163 1.387 . S
C1165 C1166 1.372 . S
C1166 C1165 1.372 . S
C1166 C1167 1.414 . S
C1166 C1169 1.499 . S
C1167 H1141 0.950 . S
C1167 C1166 1.414 . S
C1167 C1168 1.374 . S
C1168 H1142 0.950 . S
C1168 C1164 1.385 . S
C1168 C1167 1.374 . S
C1169 C1166 1.499 . S
C1169 C1170 1.373 . S
C1169 C1171 1.389 . S
C1170 H1143 0.950 . S
C1170 C1156 1.377 . S
C1170 C1169 1.373 . S
C1171 C1155 1.377 . S
C1171 C1169 1.389 . S
C1171 C1172 1.524 . S
C1172 C1171 1.524 . S
C1172 C1173 1.397 . S
C1172 C1177 1.363 . S
C1173 H1144 0.950 . S
C1173 C1172 1.397 . S
C1173 C1174 1.334 . S
C1174 H1145 0.950 . S
C1174 C1173 1.334 . S
C1174 C1175 1.287 . S
C1175 C1174 1.287 . S
C1175 C1176 1.524 . S
C1175 H1178 0.999 . S
C1176 H1146 0.950 . S
C1176 C1175 1.524 . S
C1176 C1177 1.415 . S
C1177 H1147 0.950 1_545 S
C1177 C1172 1.363 . S
C1177 C1176 1.415 . S
H1178 C1175 0.999 . S
H1179 C1160 0.913 . S
H1180 C1198 0.951 . S
H1181 C1200 0.951 . S
H1182 C1202 0.950 . S
H1183 C1203 0.950 . S
H1184 C1205 0.950 . S
H1185 C1208 0.950 . S
H1186 C1209 0.950 . S
H1187 C1211 0.950 . S
H1188 C1212 0.950 . S
H1189 C1213 0.951 . S
H1190 C1215 0.951 . S
H1191 C1217 0.950 . S
H1192 C1218 0.950 . S
H1193 C1220 0.950 . S
H1194 C1223 0.950 . S
H1195 C1224 0.950 . S
H1196 C1226 0.950 . S
H1197 C1227 0.950 . S
C1198 H1180 0.951 . S
C1198 C1199 1.366 . S
C1198 C1200 1.388 . S
C1199 C1198 1.366 . S
C1199 C1203 1.385 . S
C1200 H1181 0.951 . S
C1200 C1198 1.388 . S
C1200 C1201 1.366 . S
C1201 C1200 1.366 . S
C1201 C1202 1.414 . S
C1201 C1204 1.499 . S
C1202 H1182 0.950 . S
C1202 C1201 1.414 . S
C1202 C1203 1.374 . S
C1203 H1183 0.950 . S
C1203 C1199 1.385 . S
C1203 C1202 1.374 . S
C1204 C1201 1.499 . S
C1204 C1205 1.373 . S
C1204 C1206 1.389 . S
C1205 H1184 0.950 . S
C1205 C1204 1.373 . S
C1205 C1221 1.377 . S
C1206 C1204 1.389 . S
C1206 C1207 1.524 . S
C1206 C1220 1.377 . S
C1207 C1206 1.524 . S
C1207 C1208 1.397 . S
C1207 C1212 1.363 . S
C1208 H1185 0.950 . S
C1208 C1207 1.397 . S
C1208 C1209 1.334 . S
C1209 H1186 0.950 . S
C1209 C1208 1.334 . S
C1209 C1210 1.287 . S
C1210 C1209 1.287 . S
C1210 C1211 1.524 . S
C1210 H1229 0.913 . S
C1211 H1187 0.950 . S
C1211 C1210 1.524 . S
C1211 C1212 1.415 . S
C1212 H1188 0.950 . S
C1212 C1207 1.363 . S
C1212 C1211 1.415 . S
C1213 H1189 0.951 . S
C1213 C1214 1.366 . S
C1213 C1215 1.388 . S
C1214 C1213 1.366 . S
C1214 C1218 1.385 . S
C1215 H1190 0.951 . S
C1215 C1213 1.388 . S
C1215 C1216 1.366 . S
C1216 C1215 1.366 . S
C1216 C1217 1.414 . S
C1216 C1219 1.499 . S
C1217 H1191 0.950 . S
C1217 C1216 1.414 . S
C1217 C1218 1.374 . S
C1218 H1192 0.950 . S
C1218 C1214 1.385 . S
C1218 C1217 1.374 . S
C1219 C1216 1.499 . S
C1219 C1220 1.373 . S
C1219 C1221 1.389 . S
C1220 H1193 0.950 . S
C1220 C1206 1.377 . S
C1220 C1219 1.373 . S
C1221 C1205 1.377 . S
C1221 C1219 1.389 . S
C1221 C1222 1.524 . S
C1222 C1221 1.524 . S
C1222 C1223 1.397 . S
C1222 C1227 1.363 . S
C1223 H1194 0.950 . S
C1223 C1222 1.397 . S
C1223 C1224 1.334 . S
C1224 H1195 0.950 . S
C1224 C1223 1.334 . S
C1224 C1225 1.287 . S
C1225 C1224 1.287 . S
C1225 C1226 1.524 . S
C1225 H1228 0.999 . S
C1226 H1196 0.950 . S
C1226 C1225 1.524 . S
C1226 C1227 1.415 . S
C1227 H1197 0.950 . S
C1227 C1222 1.363 . S
C1227 C1226 1.415 . S
H1228 C1225 0.999 . S
H1229 C1210 0.913 . S
H1230 C1248 0.951 . S
H1231 C1250 0.951 . S
H1232 C1252 0.950 . S
H1233 C1253 0.950 . S
H1234 C1255 0.950 . S
H1235 C1258 0.950 . S
H1236 C1259 0.950 . S
H1237 C1261 0.950 . S
H1238 C1262 0.950 . S
H1239 C1263 0.951 . S
H1240 C1265 0.951 . S
H1241 C1267 0.950 . S
H1242 C1268 0.950 . S
H1243 C1270 0.950 . S
H1244 C1273 0.950 . S
H1245 C1274 0.950 . S
H1246 C1276 0.950 . S
H1247 C1277 0.950 . S
C1248 H1230 0.951 . S
C1248 C1249 1.366 1_565 S
C1248 C1250 1.388 . S
C1249 C1248 1.366 1_545 S
C1249 C1253 1.385 . S
C1250 H1231 0.951 . S
C1250 C1248 1.388 . S
C1250 C1251 1.366 1_565 S
C1251 C1250 1.366 1_545 S
C1251 C1252 1.414 . S
C1251 C1254 1.499 . S
C1252 H1232 0.950 . S
C1252 C1251 1.414 . S
C1252 C1253 1.374 . S
C1253 H1233 0.950 . S
C1253 C1249 1.385 . S
C1253 C1252 1.374 . S
C1254 C1251 1.499 . S
C1254 C1255 1.373 . S
C1254 C1256 1.389 1_545 S
C1255 H1234 0.950 . S
C1255 C1254 1.373 . S
C1255 C1271 1.377 . S
C1256 C1254 1.389 1_565 S
C1256 C1257 1.524 . S
C1256 C1270 1.377 . S
C1257 C1256 1.524 . S
C1257 C1258 1.397 . S
C1257 C1262 1.363 . S
C1258 H1235 0.950 . S
C1258 C1257 1.397 . S
C1258 C1259 1.334 . S
C1259 H1236 0.950 . S
C1259 C1258 1.334 . S
C1259 C1260 1.287 . S
C1260 C1259 1.287 . S
C1260 C1261 1.524 . S
C1260 H1279 0.913 . S
C1261 H1237 0.950 . S
C1261 C1260 1.524 . S
C1261 C1262 1.415 . S
C1262 H1238 0.950 . S
C1262 C1257 1.363 . S
C1262 C1261 1.415 . S
C1263 H1239 0.951 . S
C1263 C1264 1.366 1_545 S
C1263 C1265 1.388 . S
C1264 C1263 1.366 1_565 S
C1264 C1268 1.385 . S
C1265 H1240 0.951 . S
C1265 C1263 1.388 . S
C1265 C1266 1.366 . S
C1266 C1265 1.366 . S
C1266 C1267 1.414 1_545 S
C1266 C1269 1.499 . S
C1267 H1241 0.950 . S
C1267 C1266 1.414 1_565 S
C1267 C1268 1.374 . S
C1268 H1242 0.950 . S
C1268 C1264 1.385 . S
C1268 C1267 1.374 . S
C1269 C1266 1.499 . S
C1269 C1270 1.373 1_545 S
C1269 C1271 1.389 . S
C1270 H1243 0.950 . S
C1270 C1256 1.377 . S
C1270 C1269 1.373 1_565 S
C1271 C1255 1.377 . S
C1271 C1269 1.389 . S
C1271 C1272 1.524 . S
C1272 C1271 1.524 . S
C1272 C1273 1.397 . S
C1272 C1277 1.363 . S
C1273 H1244 0.950 . S
C1273 C1272 1.397 . S
C1273 C1274 1.334 . S
C1274 H1245 0.950 . S
C1274 C1273 1.334 . S
C1274 C1275 1.287 . S
C1275 C1274 1.287 . S
C1275 C1276 1.524 . S
C1275 H1278 0.999 . S
C1276 H1246 0.950 . S
C1276 C1275 1.524 . S
C1276 C1277 1.415 . S
C1277 H1247 0.950 . S
C1277 C1272 1.363 . S
C1277 C1276 1.415 . S
H1278 C1275 0.999 . S
H1279 C1260 0.913 . S
H1280 C1298 0.951 . S
H1281 C1300 0.951 . S
H1282 C1302 0.950 . S
H1283 C1303 0.950 . S
H1284 C1305 0.950 . S
H1285 C1308 0.950 . S
H1286 C1309 0.950 . S
H1287 C1311 0.950 . S
H1288 C1312 0.950 . S
H1289 C1313 0.951 . S
H1290 C1315 0.951 . S
H1291 C1317 0.950 . S
H1292 C1318 0.950 . S
H1293 C1320 0.950 . S
H1294 C1323 0.950 . S
H1295 C1324 0.950 . S
H1296 C1326 0.950 . S
H1297 C1327 0.950 . S
C1298 H1280 0.951 . S
C1298 C1299 1.366 . S
C1298 C1300 1.388 . S
C1299 C1298 1.366 . S
C1299 C1303 1.385 . S
C1300 H1281 0.951 . S
C1300 C1298 1.388 . S
C1300 C1301 1.366 . S
C1301 C1300 1.366 . S
C1301 C1302 1.414 . S
C1301 C1304 1.499 . S
C1302 H1282 0.950 . S
C1302 C1301 1.414 . S
C1302 C1303 1.374 . S
C1303 H1283 0.950 . S
C1303 C1299 1.385 . S
C1303 C1302 1.374 . S
C1304 C1301 1.499 . S
C1304 C1305 1.373 . S
C1304 C1306 1.389 . S
C1305 H1284 0.950 . S
C1305 C1304 1.373 . S
C1305 C1321 1.377 . S
C1306 C1304 1.389 . S
C1306 C1307 1.524 . S
C1306 C1320 1.377 . S
C1307 C1306 1.524 . S
C1307 C1308 1.397 . S
C1307 C1312 1.363 . S
C1308 H1285 0.950 . S
C1308 C1307 1.397 . S
C1308 C1309 1.334 . S
C1309 H1286 0.950 . S
C1309 C1308 1.334 . S
C1309 C1310 1.287 . S
C1310 C1309 1.287 . S
C1310 C1311 1.524 . S
C1310 H1329 0.913 . S
C1311 H1287 0.950 . S
C1311 C1310 1.524 . S
C1311 C1312 1.415 . S
C1312 H1288 0.950 . S
C1312 C1307 1.363 . S
C1312 C1311 1.415 . S
C1313 H1289 0.951 . S
C1313 C1314 1.366 . S
C1313 C1315 1.388 1_554 S
C1314 C1313 1.366 . S
C1314 C1318 1.385 . S
C1315 H1290 0.951 . S
C1315 C1313 1.388 1_556 S
C1315 C1316 1.366 . S
C1316 C1315 1.366 . S
C1316 C1317 1.414 . S
C1316 C1319 1.499 . S
C1317 H1291 0.950 . S
C1317 C1316 1.414 . S
C1317 C1318 1.374 1_556 S
C1318 H1292 0.950 . S
C1318 C1314 1.385 . S
C1318 C1317 1.374 1_554 S
C1319 C1316 1.499 . S
C1319 C1320 1.373 . S
C1319 C1321 1.389 . S
C1320 H1293 0.950 . S
C1320 C1306 1.377 . S
C1320 C1319 1.373 . S
C1321 C1305 1.377 . S
C1321 C1319 1.389 . S
C1321 C1322 1.524 . S
C1322 C1321 1.524 . S
C1322 C1323 1.397 . S
C1322 C1327 1.363 . S
C1323 H1294 0.950 . S
C1323 C1322 1.397 . S
C1323 C1324 1.334 . S
C1324 H1295 0.950 . S
C1324 C1323 1.334 . S
C1324 C1325 1.287 . S
C1325 C1324 1.287 . S
C1325 C1326 1.524 . S
C1325 H1328 0.999 . S
C1326 H1296 0.950 . S
C1326 C1325 1.524 . S
C1326 C1327 1.415 . S
C1327 H1297 0.950 . S
C1327 C1322 1.363 . S
C1327 C1326 1.415 . S
H1328 C1325 0.999 . S
H1329 C1310 0.913 . S
H1330 C1348 0.951 1_655 S
H1331 C1350 0.919 1_655 S
H1332 C1352 0.950 . S
H1333 C1353 0.950 . S
H1334 C1355 0.950 . S
H1335 C1358 0.950 . S
H1336 C1359 0.950 . S
H1337 C1361 0.950 . S
H1338 C1362 0.950 . S
H1339 C1363 0.951 . S
H1340 C1365 0.951 . S
H1341 C1367 0.950 . S
H1342 C1368 0.950 . S
H1343 C1370 0.950 . S
H1344 C1373 0.950 . S
H1345 C1374 0.950 . S
H1346 C1376 0.950 . S
H1347 C1377 0.950 . S
C1348 H1330 0.951 1_455 S
C1348 C1349 1.366 . S
C1348 C1350 1.390 . S
C1349 C1348 1.366 . S
C1349 C1353 1.385 . S
C1350 H1331 0.919 1_455 S
C1350 C1348 1.390 . S
C1350 C1351 1.395 . S
C1351 C1350 1.395 . S
C1351 C1352 1.414 . S
C1351 C1354 1.499 . S
C1352 H1332 0.950 . S
C1352 C1351 1.414 . S
C1352 C1353 1.374 . S
C1353 H1333 0.950 . S
C1353 C1349 1.385 . S
C1353 C1352 1.374 . S
C1354 C1351 1.499 . S
C1354 C1355 1.373 1_455 S
C1354 C1356 1.389 . S
C1355 H1334 0.950 . S
C1355 C1354 1.373 1_655 S
C1355 C1371 1.377 . S
C1356 C1354 1.389 . S
C1356 C1357 1.524 . S
C1356 C1370 1.377 . S
C1357 C1356 1.524 . S
C1357 C1358 1.397 . S
C1357 C1362 1.363 . S
C1358 H1335 0.950 . S
C1358 C1357 1.397 . S
C1358 C1359 1.334 . S
C1359 H1336 0.950 . S
C1359 C1358 1.334 . S
C1359 C1360 1.287 . S
C1360 C1359 1.287 . S
C1360 C1361 1.524 . S
C1360 H1379 0.913 . S
C1361 H1337 0.950 . S
C1361 C1360 1.524 . S
C1361 C1362 1.415 . S
C1362 H1338 0.950 . S
C1362 C1357 1.363 . S
C1362 C1361 1.415 . S
C1363 H1339 0.951 . S
C1363 C1364 1.348 1_455 S
C1363 C1365 1.388 . S
C1364 C1363 1.348 1_655 S
C1364 C1368 1.401 . S
C1365 H1340 0.951 . S
C1365 C1363 1.388 . S
C1365 C1366 1.366 . S
C1366 C1365 1.366 . S
C1366 C1367 1.414 1_455 S
C1366 C1369 1.499 . S
C1367 H1341 0.950 . S
C1367 C1366 1.414 1_655 S
C1367 C1368 1.374 . S
C1368 H1342 0.950 . S
C1368 C1364 1.401 . S
C1368 C1367 1.374 . S
C1369 C1366 1.499 . S
C1369 C1370 1.373 . S
C1369 C1371 1.389 1_455 S
C1370 H1343 0.950 . S
C1370 C1356 1.377 . S
C1370 C1369 1.373 . S
C1371 C1355 1.377 . S
C1371 C1369 1.389 1_655 S
C1371 C1372 1.524 . S
C1372 C1371 1.524 . S
C1372 C1373 1.397 . S
C1372 C1377 1.363 . S
C1373 H1344 0.950 . S
C1373 C1372 1.397 . S
C1373 C1374 1.334 . S
C1374 H1345 0.950 . S
C1374 C1373 1.334 . S
C1374 C1375 1.287 . S
C1375 C1374 1.287 . S
C1375 C1376 1.524 . S
C1375 H1378 0.999 . S
C1376 H1346 0.950 . S
C1376 C1375 1.524 . S
C1376 C1377 1.415 . S
C1377 H1347 0.950 . S
C1377 C1372 1.363 . S
C1377 C1376 1.415 . S
H1378 C1375 0.999 . S
H1379 C1360 0.913 . S
C499 C6 0.443 . S
C514 C451 0.386 . S
C549 C59 1.856 . S
C564 C301 1.739 . S
C599 C86 1.150 . S
C614 C361 1.118 . S
C649 C15 0.341 . S
C664 C421 0.410 . S
C714 C331 1.969 . S
C699 C50 1.953 . S
C764 C391 1.273 . S
C749 C95 1.262 . S
C799 C46 1.152 . S
C814 C181 1.112 . S
C849 C99 3.047 . S
C864 C271 3.042 . S
C899 C10 1.980 . S
C914 C151 2.005 . S
C964 C211 1.255 . S
C949 C55 1.240 . S
C1014 C241 2.799 . S
C999 C90 2.922 . S
C1049 C19 1.848 . S
C1064 C121 1.733 . S
C1114 C260 1.735 . S
C1099 C18 1.693 . S
C1149 C49 1.334 . S
C1164 C140 1.354 . S
C1199 C98 1.452 . S
C1214 C200 1.479 . S
C1264 C380 1.460 1_565 S
C1249 C58 1.442 . S
C1314 C440 1.099 . S
C1299 C89 1.089 . S
C1349 C9 1.331 . S
C1364 C320 1.348 1_655 S
