# Generated by pormake.
# Topology zzz, (3,6)-cn, num edge types: 1
# Building blocks:
#     Node 0, Type 0, BuildingBlock: CUQRIR_clean_linker_1, # of connection points: 3
#     Node 1, Type 0, BuildingBlock: CUQRIR_clean_linker_1, # of connection points: 3
#     Node 2, Type 0, BuildingBlock: CUQRIR_clean_linker_1, # of connection points: 3
#     Node 3, Type 0, BuildingBlock: CUQRIR_clean_linker_1, # of connection points: 3
#     Node 4, Type 0, BuildingBlock: CUQRIR_clean_linker_1, # of connection points: 3
#     Node 5, Type 0, BuildingBlock: CUQRIR_clean_linker_1, # of connection points: 3
#     Node 6, Type 0, BuildingBlock: CUQRIR_clean_linker_1, # of connection points: 3
#     Node 7, Type 0, BuildingBlock: CUQRIR_clean_linker_1, # of connection points: 3
#     Node 8, Type 1, BuildingBlock: BETGAK_clean_sbu_0, # of connection points: 6
#     Node 9, Type 1, BuildingBlock: BETGAK_clean_sbu_0, # of connection points: 6
#     Node 10, Type 1, BuildingBlock: BETGAK_clean_sbu_0, # of connection points: 6
#     Node 11, Type 1, BuildingBlock: BETGAK_clean_sbu_0, # of connection points: 6
#     Edge 12, Type (0, 1), BuildingBlock: CIFDUS_clean_linker_0, # of connection points: 2
#     Edge 13, Type (0, 1), BuildingBlock: CIFDUS_clean_linker_0, # of connection points: 2
#     Edge 14, Type (0, 1), BuildingBlock: CIFDUS_clean_linker_0, # of connection points: 2
#     Edge 15, Type (0, 1), BuildingBlock: CIFDUS_clean_linker_0, # of connection points: 2
#     Edge 16, Type (0, 1), BuildingBlock: CIFDUS_clean_linker_0, # of connection points: 2
#     Edge 17, Type (0, 1), BuildingBlock: CIFDUS_clean_linker_0, # of connection points: 2
#     Edge 18, Type (0, 1), BuildingBlock: CIFDUS_clean_linker_0, # of connection points: 2
#     Edge 19, Type (0, 1), BuildingBlock: CIFDUS_clean_linker_0, # of connection points: 2
#     Edge 20, Type (0, 1), BuildingBlock: CIFDUS_clean_linker_0, # of connection points: 2
#     Edge 21, Type (0, 1), BuildingBlock: CIFDUS_clean_linker_0, # of connection points: 2
#     Edge 22, Type (0, 1), BuildingBlock: CIFDUS_clean_linker_0, # of connection points: 2
#     Edge 23, Type (0, 1), BuildingBlock: CIFDUS_clean_linker_0, # of connection points: 2
#     Edge 24, Type (0, 1), BuildingBlock: CIFDUS_clean_linker_0, # of connection points: 2
#     Edge 25, Type (0, 1), BuildingBlock: CIFDUS_clean_linker_0, # of connection points: 2
#     Edge 26, Type (0, 1), BuildingBlock: CIFDUS_clean_linker_0, # of connection points: 2
#     Edge 27, Type (0, 1), BuildingBlock: CIFDUS_clean_linker_0, # of connection points: 2
#     Edge 28, Type (0, 1), BuildingBlock: CIFDUS_clean_linker_0, # of connection points: 2
#     Edge 29, Type (0, 1), BuildingBlock: CIFDUS_clean_linker_0, # of connection points: 2
#     Edge 30, Type (0, 1), BuildingBlock: CIFDUS_clean_linker_0, # of connection points: 2
#     Edge 31, Type (0, 1), BuildingBlock: CIFDUS_clean_linker_0, # of connection points: 2
#     Edge 32, Type (0, 1), BuildingBlock: CIFDUS_clean_linker_0, # of connection points: 2
#     Edge 33, Type (0, 1), BuildingBlock: CIFDUS_clean_linker_0, # of connection points: 2
#     Edge 34, Type (0, 1), BuildingBlock: CIFDUS_clean_linker_0, # of connection points: 2
#     Edge 35, Type (0, 1), BuildingBlock: CIFDUS_clean_linker_0, # of connection points: 2
# Relax obj value: 0.371
# Max RMSD: 0.210
# Mean RMSD: 0.158
data_MOF--net-zzz--node1-BETGAK_clean_sbu_0--node2-CUQRIR_clean_linker_1--edge1-CIFDUS_clean_linker_0
_symmetry_space_group_name_H-M    P1
_symmetry_Int_Tables_number       1
_symmetry_cell_setting            triclinic
loop_
_symmetry_equiv_pos_as_xyz
'x, y, z'
_cell_length_a     41.412891
_cell_length_b     41.462315
_cell_length_c     10.583126
_cell_angle_alpha  89.869296
_cell_angle_beta   90.029571
_cell_angle_gamma 90.199181
loop_
_atom_site_label
_atom_site_type_symbol
_atom_site_fract_x
_atom_site_fract_y
_atom_site_fract_z
_atom_type_partial_charge
C0 C 0.76031 0.54692 0.42195 0.0
N1 N 0.78104 0.52593 0.47881 0.0
N2 N 0.7346 0.53109 0.36991 0.0
C3 C 0.76625 0.58244 0.40987 0.0
C4 C 0.74089 0.49974 0.39618 0.0
N5 N 0.76914 0.49642 0.46005 0.0
C6 C 0.72089 0.47204 0.34738 0.0
H7 H 0.77772 0.59188 0.49716 0.0
H8 H 0.74337 0.59545 0.39082 0.0
H9 H 0.78309 0.58675 0.33004 0.0
H10 H 0.7242 0.46999 0.24367 0.0
H11 H 0.69498 0.47676 0.36461 0.0
H12 H 0.72767 0.44896 0.3934 0.0
C13 C 1.03173 0.76543 0.46065 0.0
N14 N 0.05026 0.79062 0.50179 0.0
N15 N 0.04984 0.74355 0.39531 0.0
C16 C 0.99582 0.76323 0.47645 0.0
C17 C 0.07998 0.75642 0.39959 0.0
N18 N 0.08027 0.78468 0.46369 0.0
C19 C 0.10945 0.74111 0.34256 0.0
H20 H 0.99041 0.74712 0.55762 0.0
H21 H 0.98458 0.75259 0.39087 0.0
H22 H 0.9852 0.78726 0.49545 0.0
H23 H 0.11235 0.74953 0.24369 0.0
H24 H 0.10688 0.71458 0.34058 0.0
H25 H 0.13148 0.74778 0.39639 0.0
C26 C 0.79996 1.03394 0.43687 0.0
N27 N 0.77574 1.01378 0.4745 0.0
N28 N 0.82562 1.01728 0.38889 0.0
C29 C 0.79763 0.07003 0.43975 0.0
C30 C 0.81569 0.98612 0.39883 0.0
N31 N 0.78525 0.98391 0.44651 0.0
C32 C 0.83448 0.95788 0.34832 0.0
H33 H 0.78296 0.07828 0.35815 0.0
H34 H 0.82193 0.08132 0.43432 0.0
H35 H 0.78521 0.07786 0.52733 0.0
H36 H 0.85839 0.95682 0.39515 0.0
H37 H 0.83861 0.96106 0.24541 0.0
H38 H 0.8219 0.93464 0.36584 0.0
C39 C 0.53339 0.79386 0.34169 0.0
N40 N 0.55073 0.77082 0.40431 0.0
N41 N 0.55281 0.81818 0.2986 0.0
C42 C 0.4981 0.79115 0.31199 0.0
C43 C 0.58257 0.8087 0.33622 0.0
N44 N 0.58172 0.77976 0.39677 0.0
C45 C 0.61305 0.82687 0.30466 0.0
H46 H 0.49512 0.77739 0.22292 0.0
H47 H 0.4874 0.81543 0.29862 0.0
H48 H 0.48523 0.77804 0.38847 0.0
H49 H 0.60923 0.85311 0.31867 0.0
H50 H 0.61917 0.82317 0.20371 0.0
H51 H 0.63351 0.81863 0.36419 0.0
C52 C 0.30388 0.53865 0.19137 0.0
N53 N 0.27845 0.55867 0.16709 0.0
N54 N 0.328 0.55449 0.25435 0.0
C55 C 0.3043 0.50348 0.15966 0.0
C56 C 0.31632 0.5847 0.26643 0.0
N57 N 0.28632 0.58724 0.21597 0.0
C58 C 0.33407 0.61156 0.33276 0.0
H59 H 0.32739 0.4921 0.18839 0.0
H60 H 0.3007 0.50045 0.05645 0.0
H61 H 0.28386 0.49125 0.20803 0.0
H62 H 0.323 0.63537 0.31301 0.0
H63 H 0.35966 0.61213 0.30204 0.0
H64 H 0.33384 0.60695 0.4361 0.0
C65 C 1.03427 0.30628 0.22468 0.0
N66 N 1.01359 0.28289 0.18379 0.0
N67 N 1.01815 0.33021 0.28623 0.0
C68 C 0.07027 0.30449 0.21336 0.0
C69 C 0.98702 0.32015 0.2818 0.0
N70 N 0.98417 0.29129 0.22217 0.0
C71 C 0.9596 0.33784 0.34375 0.0
H72 H 0.07964 0.28825 0.28826 0.0
H73 H 0.08138 0.3287 0.22507 0.0
H74 H 0.07709 0.29419 0.12046 0.0
H75 H 0.96106 0.3639 0.32013 0.0
H76 H 0.96178 0.33558 0.44791 0.0
H77 H 0.93584 0.32823 0.31295 0.0
C78 C 0.25638 1.03249 0.17893 0.0
N79 N 0.27963 0.05166 0.12703 0.0
N80 N 0.23158 0.05022 0.22806 0.0
C81 C 0.25854 0.99638 0.18392 0.0
C82 C 0.24096 0.08108 0.2032 0.0
N83 N 0.27004 0.08204 0.14359 0.0
C84 C 0.2235 0.11056 0.25029 0.0
H85 H 0.23429 0.9853 0.1958 0.0
H86 H 0.27414 0.98922 0.26443 0.0
H87 H 0.2699 0.98718 0.09617 0.0
H88 H 0.21844 0.10813 0.35286 0.0
H89 H 0.20014 0.11284 0.20003 0.0
H90 H 0.23731 0.13308 0.23289 0.0
C91 C 0.52382 0.2595 0.20232 0.0
N92 N 0.54378 0.28477 0.17282 0.0
N93 N 0.5403 0.23541 0.2626 0.0
C94 C 0.48827 0.25899 0.17674 0.0
C95 C 0.57083 0.24693 0.26742 0.0
N96 N 0.57298 0.2768 0.21551 0.0
C97 C 0.59852 0.22908 0.32756 0.0
H98 H 0.47789 0.23466 0.19386 0.0
H99 H 0.48365 0.26653 0.07768 0.0
H100 H 0.47627 0.27668 0.23949 0.0
H101 H 0.59853 0.20361 0.29574 0.0
H102 H 0.59533 0.22896 0.43168 0.0
H103 H 0.62211 0.24025 0.30346 0.0
La104 La 0.05194 1.0263 0.9385 0.0
La105 La 1.01299 0.04945 0.70914 0.0
C106 C 0.07693 1.01907 0.15326 0.0
C107 C 0.10161 0.99873 0.21223 0.0
C108 C 0.12987 0.99001 0.14781 0.0
C109 C 0.14936 0.96536 0.19528 0.0
C110 C 0.14009 0.94841 0.30494 0.0
C111 C 0.11428 0.9605 0.37738 0.0
C112 C 0.09524 0.98547 0.33103 0.0
C113 C 0.08606 1.03159 0.72561 0.0
C114 C 1.03141 0.97387 0.74575 0.0
C115 C 0.99707 0.06089 0.48369 0.0
C116 C 0.97163 0.07666 0.41059 0.0
C117 C 0.94303 0.08721 0.46742 0.0
C118 C 0.92278 0.1085 0.40251 0.0
C119 C 0.93175 0.12038 0.2825 0.0
C120 C 0.95779 0.10565 0.21981 0.0
C121 C 0.97765 0.08406 0.28398 0.0
C122 C 0.97282 0.03744 0.904 0.0
C123 C 1.02913 0.10137 0.91509 0.0
O124 O 0.08714 0.0401 0.06976 0.0
O125 O 0.05053 1.00408 0.11675 0.0
O126 O 0.09191 1.01137 0.81617 0.0
O127 O 0.06325 0.04982 0.76115 0.0
O128 O 0.03753 0.97844 0.86768 0.0
O129 O 1.02645 0.99887 0.66928 0.0
O130 O 0.98885 1.0347 0.5449 0.0
O131 O 1.0156 0.07995 0.55113 0.0
O132 O 0.96409 0.04943 0.79604 0.0
O133 O 1.00289 1.03346 0.8948 0.0
O134 O 1.01974 0.09738 0.79583 0.0
O135 O 0.03892 0.07652 0.98472 0.0
H136 H 0.13575 1.00066 0.0571 0.0
H137 H 0.16977 0.95748 0.13951 0.0
H138 H 0.10637 0.94859 0.46309 0.0
H139 H 0.07413 0.99287 0.38369 0.0
H140 H 0.93757 0.08088 0.56446 0.0
H141 H 0.90212 0.11833 0.45167 0.0
H142 H 0.96522 0.11338 0.12651 0.0
H143 H 0.99903 0.0749 0.23752 0.0
La144 La 0.53527 0.04503 0.93049 0.0
La145 La 0.52049 1.02048 0.67789 0.0
C146 C 0.55696 0.04622 0.15155 0.0
C147 C 0.57983 1.02349 0.21113 0.0
C148 C 0.61281 1.02518 0.18252 0.0
C149 C 0.6337 1.00138 0.22535 0.0
C150 C 0.62238 0.97571 0.3007 0.0
C151 C 0.58959 0.97421 0.33205 0.0
C152 C 0.56841 0.9976 0.28554 0.0
C153 C 0.52173 0.09197 0.76558 0.0
C154 C 0.59353 1.02548 0.7415 0.0
C155 C 0.49801 1.01927 0.45845 0.0
C156 C 0.47229 0.04014 0.40753 0.0
C157 C 0.44046 0.03616 0.4496 0.0
C158 C 0.41768 0.05996 0.42687 0.0
C159 C 0.42591 0.088 0.35922 0.0
C160 C 0.45707 0.09122 0.30943 0.0
C161 C 0.48023 0.06757 0.33463 0.0
C162 C 0.53205 0.97406 0.8488 0.0
C163 C 0.46214 0.03959 0.86649 0.0
O164 O 0.56816 0.06479 0.06111 0.0
O165 O 0.52907 1.03372 0.1217 0.0
O166 O 0.5162 0.09316 0.88627 0.0
O167 O 0.53726 0.06629 0.74449 0.0
O168 O 0.58327 1.02827 0.86022 0.0
O169 O 0.5725 1.02432 0.64805 0.0
O170 O 0.48972 0.99827 0.54551 0.0
O171 O 0.52448 1.03459 0.48867 0.0
O172 O 0.53885 0.97169 0.72915 0.0
O173 O 0.51731 1.0003 0.86336 0.0
O174 O 0.47237 0.03676 0.7478 0.0
O175 O 0.48321 0.04053 0.95997 0.0
H176 H 0.62252 0.04449 0.12465 0.0
H177 H 0.65906 1.00352 0.20149 0.0
H178 H 0.58033 0.95474 0.39018 0.0
H179 H 0.54297 0.99483 0.30469 0.0
H180 H 0.43334 1.01537 0.50532 0.0
H181 H 0.39337 0.05631 0.46217 0.0
H182 H 0.46372 0.11238 0.25497 0.0
H183 H 0.5047 0.07152 0.30244 0.0
La184 La 0.50907 0.54401 0.94753 0.0
La185 La 0.54142 0.52512 0.72193 0.0
C186 C 0.50038 0.56964 0.15903 0.0
C187 C 0.52438 0.58983 0.22548 0.0
C188 C 0.53661 0.61762 0.16699 0.0
C189 C 0.56377 0.63307 0.21493 0.0
C190 C 0.57968 0.62133 0.32356 0.0
C191 C 0.56698 0.59391 0.38394 0.0
C192 C 0.53953 0.57834 0.33552 0.0
C193 C 0.46696 0.5268 0.76778 0.0
C194 C 0.52807 0.5981 0.74951 0.0
C195 C 0.55919 0.50586 0.50793 0.0
C196 C 0.58186 0.48464 0.44405 0.0
C197 C 0.61089 0.47512 0.50079 0.0
C198 C 0.63181 0.45459 0.43635 0.0
C199 C 0.62369 0.44305 0.31523 0.0
C200 C 0.59589 0.45522 0.25541 0.0
C201 C 0.57511 0.47567 0.31984 0.0
C202 C 0.58239 0.54244 0.90764 0.0
C203 C 0.52352 0.46932 0.9247 0.0
O204 O 0.48809 0.58127 0.05446 0.0
O205 O 0.50919 0.53974 0.14522 0.0
O206 O 0.46307 0.52281 0.8883 0.0
O207 O 0.49301 0.54238 0.752 0.0
O208 O 0.52825 0.59045 0.87119 0.0
O209 O 0.52667 0.57427 0.66745 0.0
O210 O 0.5721 0.5301 0.56788 0.0
O211 O 0.53529 0.4926 0.57065 0.0
O212 O 0.58755 0.54682 0.78856 0.0
O213 O 0.55654 0.52663 0.91624 0.0
O214 O 0.5339 0.47588 0.80794 0.0
O215 O 0.51387 0.49314 0.99822 0.0
H216 H 0.52548 0.62737 0.08277 0.0
H217 H 0.57144 0.65505 0.16827 0.0
H218 H 0.57821 0.58473 0.46871 0.0
H219 H 0.53052 0.55685 0.38178 0.0
H220 H 0.61689 0.48278 0.59578 0.0
H221 H 0.65315 0.44594 0.48471 0.0
H222 H 0.58858 0.44695 0.16274 0.0
H223 H 0.55339 0.48408 0.2735 0.0
La224 La 1.02083 0.52234 0.92559 0.0
La225 La 0.03856 0.55863 0.71357 0.0
C226 C 0.99954 0.49901 0.12934 0.0
C227 C 0.97529 0.47582 0.17284 0.0
C228 C 0.96192 0.48021 0.29237 0.0
C229 C 0.93661 0.46074 0.33316 0.0
C230 C 0.92409 0.43631 0.25442 0.0
C231 C 0.93995 0.42986 0.13944 0.0
C232 C 0.96519 0.44975 0.09817 0.0
C233 C 0.03829 0.48457 0.73097 0.0
C234 C 0.96562 0.53857 0.7266 0.0
C235 C 0.05513 0.58171 0.50283 0.0
C236 C 0.07501 0.60592 0.44002 0.0
C237 C 0.08124 0.60216 0.31133 0.0
C238 C 0.10337 0.62223 0.25104 0.0
C239 C 0.1198 0.64633 0.3195 0.0
C240 C 0.10987 0.65274 0.44452 0.0
C241 C 0.08793 0.63231 0.50515 0.0
C242 C 1.02147 0.59692 0.90942 0.0
C243 C 0.0942 0.54269 0.91254 0.0
O244 O 1.02394 0.48719 0.06713 0.0
O245 O 0.98865 0.52563 0.07853 0.0
O246 O 0.04395 0.47866 0.84851 0.0
O247 O 1.02184 0.51004 0.72681 0.0
O248 O 0.9714 0.53274 0.84788 0.0
O249 O 0.99061 0.54307 0.65157 0.0
O250 O 1.03137 0.59264 0.57076 0.0
O251 O 0.06993 0.55746 0.55708 0.0
O252 O 1.01445 0.60105 0.79181 0.0
O253 O 0.03804 0.57141 0.91332 0.0
O254 O 0.08828 0.54951 0.7917 0.0
O255 O 0.06941 0.53638 0.98746 0.0
H256 H 0.97037 0.49956 0.35235 0.0
H257 H 0.92526 0.4669 0.42194 0.0
H258 H 0.93148 0.41085 0.07764 0.0
H259 H 0.97592 0.44556 1.00635 0.0
H260 H 0.07016 0.58263 0.25888 0.0
H261 H 0.10978 0.61652 0.15456 0.0
H262 H 0.12114 0.67177 0.49899 0.0
H263 H 0.0823 0.63615 0.60394 0.0
H264 H 0.16816 0.06873 0.23524 0.0
H265 H 0.23814 1.00959 0.42772 0.0
H266 H 0.19844 0.99639 0.58988 0.0
H267 H 0.1453 1.00497 0.6885 0.0
H268 H 0.07758 0.07008 0.51485 0.0
H269 H 0.11503 0.0787 0.33813 0.0
C270 C 0.17495 0.05332 0.3134 0.0
C271 C 0.20649 0.04013 0.31739 0.0
C272 C 0.15242 0.04743 0.41194 0.0
C273 C 0.21411 1.01943 0.41866 0.0
C274 C 0.19145 1.01228 0.51324 0.0
C275 C 0.13862 1.02106 0.612 0.0
C276 C 0.10844 0.03687 0.61575 0.0
C277 C 0.16075 1.0266 0.51239 0.0
C278 C 0.10049 0.05765 0.51535 0.0
C279 C 0.12202 0.06259 0.41403 0.0
H280 H 0.51603 0.23003 0.49845 0.0
H281 H 0.54374 0.17462 0.17401 0.0
H282 H 0.54008 0.1246 0.29828 0.0
H283 H 0.53413 0.09703 0.50735 0.0
H284 H 0.50478 0.15305 0.82988 0.0
H285 H 0.50412 0.20182 0.70056 0.0
C286 C 0.52006 0.20685 0.45412 0.0
C287 C 0.52938 0.20608 0.32586 0.0
C288 C 0.51841 0.17815 0.52747 0.0
C289 C 0.53567 0.17585 0.27118 0.0
C290 C 0.53404 0.14726 0.34311 0.0
C291 C 0.52716 0.11977 0.54901 0.0
C292 C 0.51976 0.12101 0.67959 0.0
C293 C 0.52625 0.1481 0.47259 0.0
C294 C 0.51082 0.15104 0.73065 0.0
C295 C 0.51036 0.17913 0.65632 0.0
H296 H 0.33141 0.52585 0.48263 0.0
H297 H 0.38959 0.56011 0.17425 0.0
H298 H 0.43868 0.55375 0.30258 0.0
H299 H 0.46475 0.54303 0.51198 0.0
H300 H 0.40537 0.50838 0.81878 0.0
H301 H 0.35778 0.51019 0.68369 0.0
C302 C 0.35499 0.53078 0.44243 0.0
C303 C 0.35686 0.54268 0.31771 0.0
C304 C 0.38308 0.52765 0.51824 0.0
C305 C 0.38756 0.5501 0.26851 0.0
C306 C 0.41561 0.54688 0.3428 0.0
C307 C 0.44146 0.53558 0.54884 0.0
C308 C 0.43892 0.52589 0.67691 0.0
C309 C 0.41369 0.53642 0.46928 0.0
C310 C 0.40835 0.51617 0.7217 0.0
C311 C 0.38091 0.51715 0.6441 0.0
H312 H 1.01995 0.39478 0.24848 0.0
H313 H 0.04128 0.32077 0.52067 0.0
H314 H 0.05104 0.36186 0.68337 0.0
H315 H 0.04913 0.41916 0.7527 0.0
H316 H 1.02819 0.49319 0.47825 0.0
H317 H 1.02516 0.45222 0.31194 0.0
C318 C 1.02769 0.38781 0.34252 0.0
C319 C 1.03042 0.35472 0.37198 0.0
C320 C 1.03308 0.41172 0.43599 0.0
C321 C 0.03967 0.34602 0.49518 0.0
C322 C 0.04489 0.36957 0.58849 0.0
C323 C 0.0438 0.42641 0.65646 0.0
C324 C 0.03842 0.45939 0.62905 0.0
C325 C 0.04094 0.40255 0.56095 0.0
C326 C 1.03187 0.46811 0.50316 0.0
C327 C 1.02974 0.44465 0.40789 0.0
H328 H 0.89026 1.00384 0.39757 0.0
H329 H 0.81841 0.0557 0.18493 0.0
H330 H 0.85834 0.06844 0.02248 0.0
H331 H 0.91209 0.06056 0.92929 0.0
H332 H 0.98407 1.00643 0.1321 0.0
H333 H 0.94589 0.99827 0.30751 0.0
C334 C 0.88341 1.01803 0.31589 0.0
C335 C 0.85108 1.02885 0.30445 0.0
C336 C 0.90651 1.02433 0.2195 0.0
C337 C 0.84299 0.04761 0.19828 0.0
C338 C 0.86582 0.05452 0.10413 0.0
C339 C 0.9196 0.04709 1.01215 0.0
C340 C 0.95104 1.03397 1.01663 0.0
C341 C 0.89739 0.04236 0.11201 0.0
C342 C 0.96017 1.01676 0.12545 0.0
C343 C 0.93821 1.01205 0.22582 0.0
H344 H 0.52769 0.87837 0.32466 0.0
H345 H 0.56598 0.81226 0.05123 0.0
H346 H 0.56385 0.85418 0.88732 0.0
H347 H 0.55299 0.91092 0.82228 0.0
H348 H 0.51151 0.97597 0.09366 0.0
H349 H 0.51339 0.93415 0.25585 0.0
C350 C 0.53491 0.87308 0.22853 0.0
C351 C 0.54657 0.84198 0.1999 0.0
C352 C 0.53366 0.89757 0.1342 0.0
C353 C 0.55647 0.83576 0.07517 0.0
C354 C 0.55549 0.85988 0.98164 0.0
C355 C 0.54434 0.91596 0.91684 0.0
C356 C 0.53289 0.94722 0.94547 0.0
C357 C 0.54449 0.8911 1.00996 0.0
C358 C 0.52136 0.95276 0.06872 0.0
C359 C 0.52208 0.92856 0.16187 0.0
H360 H 0.66996 0.53397 0.40062 0.0
H361 H 0.74564 0.55065 0.13041 0.0
H362 H 0.70538 0.55766 0.96175 0.0
H363 H 0.64817 0.55402 0.88744 0.0
H364 H 0.5731 0.53615 0.16034 0.0
H365 H 0.61301 0.53652 0.33078 0.0
C366 C 0.6775 0.54004 0.30538 0.0
C367 C 0.71081 0.5422 0.27848 0.0
C368 C 0.65412 0.54354 0.20853 0.0
C369 C 0.72023 0.54946 0.15399 0.0
C370 C 0.69714 0.55308 0.05729 0.0
C371 C 0.64051 0.55023 0.98428 0.0
C372 C 0.6074 0.54473 1.01034 0.0
C373 C 0.66394 0.54934 0.08258 0.0
C374 C 0.59819 0.54012 0.13685 0.0
C375 C 0.62109 0.54001 0.23457 0.0
H376 H 0.06005 0.73217 0.14818 0.0
H377 H 1.0178 0.69046 0.48181 0.0
H378 H 1.00555 0.64064 0.36433 0.0
H379 H 1.0082 0.60808 0.16391 0.0
H380 H 0.05124 0.65161 0.83369 0.0
H381 H 0.06251 0.7007 0.95207 0.0
C382 C 0.04815 0.71216 0.19517 0.0
C383 C 0.03982 0.71517 0.32382 0.0
C384 C 0.04164 0.68354 0.12725 0.0
C385 C 1.02408 0.68904 0.38271 0.0
C386 C 1.01733 0.66042 0.31547 0.0
C387 C 1.02006 0.62833 0.11827 0.0
C388 C 1.02879 0.62596 0.98925 0.0
C389 C 1.0262 0.65719 0.18744 0.0
C390 C 0.04409 0.65261 0.93209 0.0
C391 C 0.05056 0.68083 0.99991 0.0
H392 H 0.95371 0.25405 0.04934 0.0
H393 H 0.95874 0.27546 0.44702 0.0
H394 H 0.93016 0.22594 0.49657 0.0
H395 H 0.91969 0.17132 0.4338 0.0
H396 H 0.92308 0.14446 0.04015 0.0
H397 H 0.93265 0.20079 0.98185 0.0
C398 C 0.94783 0.24802 0.14627 0.0
C399 C 0.95877 0.2681 0.24436 0.0
C400 C 0.93381 0.21797 0.17497 0.0
C401 C 0.95033 0.26064 0.36962 0.0
C402 C 0.93442 0.23197 0.39823 0.0
C403 C 0.9209 0.17764 0.33448 0.0
C404 C 0.92187 0.15334 0.24202 0.0
C405 C 0.92821 0.20955 0.30256 0.0
C406 C 0.92326 0.16254 0.11389 0.0
C407 C 0.92894 0.19475 0.08049 0.0
H408 H 0.28759 0.11406 0.35096 0.0
H409 H 0.30399 0.10949 0.95093 0.0
H410 H 0.36117 0.12223 0.98278 0.0
H411 H 0.40612 0.11159 0.1326 0.0
H412 H 0.38806 0.11734 0.5329 0.0
H413 H 0.33145 0.12919 0.49328 0.0
C414 C 0.30308 0.11825 0.26995 0.0
C415 C 0.29268 0.10846 0.14987 0.0
C416 C 0.33574 0.12504 0.29003 0.0
C417 C 0.3124 0.11514 0.04519 0.0
C418 C 0.34511 0.12218 0.06362 0.0
C419 C 0.39023 0.11753 0.21059 0.0
C420 C 0.40043 0.11197 0.33531 0.0
C421 C 0.35745 0.12353 0.18699 0.0
C422 C 0.3801 0.12045 0.43605 0.0
C423 C 0.34769 0.12696 0.41347 0.0
H424 H 0.60405 0.31633 0.05246 0.0
H425 H 0.59711 0.28939 0.44499 0.0
H426 H 0.62804 0.33655 0.50579 0.0
H427 H 0.64036 0.39153 0.45518 0.0
H428 H 0.63683 0.42475 0.06904 0.0
H429 H 0.62756 0.36951 0.997 0.0
C430 C 0.60986 0.32074 0.1507 0.0
C431 C 0.59788 0.29988 0.24425 0.0
C432 C 0.62536 0.34947 0.18606 0.0
C433 C 0.60629 0.30502 0.37121 0.0
C434 C 0.62371 0.33222 0.4062 0.0
C435 C 0.63922 0.38673 0.35459 0.0
C436 C 0.63744 0.41238 0.26816 0.0
C437 C 0.63116 0.35564 0.31552 0.0
C438 C 0.63696 0.4054 0.13801 0.0
C439 C 0.63121 0.37388 0.09693 0.0
H440 H 0.24712 0.61975 0.05694 0.0
H441 H 0.27334 0.60858 0.44864 0.0
H442 H 0.22693 0.63991 0.5131 0.0
H443 H 0.17295 0.65558 0.46307 0.0
H444 H 0.14075 0.65947 0.07541 0.0
H445 H 0.19535 0.64669 1.00388 0.0
C446 C 0.24286 0.62501 0.15581 0.0
C447 C 0.26335 0.6118 0.24803 0.0
C448 C 0.21469 0.64117 0.19291 0.0
C449 C 0.25809 0.61886 0.37603 0.0
C450 C 0.23132 0.63649 0.41303 0.0
C451 C 0.17781 0.65521 0.36249 0.0
C452 C 0.1523 0.65665 0.27512 0.0
C453 C 0.20847 0.64583 0.32295 0.0
C454 C 0.15973 0.65697 0.1452 0.0
C455 C 0.1909 0.64937 0.1042 0.0
H456 H 0.11263 0.80653 0.26339 0.0
H457 H 0.10482 0.8159 0.66682 0.0
H458 H 0.13361 0.86763 0.65793 0.0
H459 H 0.1482 0.91477 0.52711 0.0
H460 H 0.15303 0.90399 0.1214 0.0
H461 H 0.14162 0.84712 0.14093 0.0
C462 C 0.11886 0.81892 0.35006 0.0
C463 C 0.10604 0.80807 0.46506 0.0
C464 C 0.13514 0.84846 0.34368 0.0
C465 C 0.11386 0.82451 0.57687 0.0
C466 C 0.1303 0.85398 0.57165 0.0
C467 C 0.14774 0.89976 0.44331 0.0
C468 C 0.1498 0.91418 0.32287 0.0
C469 C 0.13911 0.86711 0.45425 0.0
C470 C 0.1509 0.89408 0.21573 0.0
C471 C 0.14377 0.86138 0.2263 0.0
H472 H 0.7422 0.95422 0.6001 0.0
H473 H 0.77662 0.95739 0.21658 0.0
H474 H 0.72525 0.93759 0.14032 0.0
H475 H 0.66765 0.94301 0.17304 0.0
H476 H 0.63066 0.95796 0.54805 0.0
H477 H 0.6838 0.94652 0.63766 0.0
C478 C 0.73843 0.94973 0.50042 0.0
C479 C 0.76255 0.95876 0.41397 0.0
C480 C 0.70731 0.94264 0.45543 0.0
C481 C 0.75839 0.95106 0.28557 0.0
C482 C 0.72864 0.9403 0.24135 0.0
C483 C 0.67109 0.94231 0.27475 0.0
C484 C 0.64611 0.95286 0.35364 0.0
C485 C 0.70226 0.93956 0.32373 0.0
C486 C 0.64997 0.95074 0.48525 0.0
C487 C 0.68053 0.9447 0.53632 0.0
H488 H 0.60521 0.74215 0.58579 0.0
H489 H 0.61737 0.76495 0.19196 0.0
H490 H 0.63788 0.71146 0.15135 0.0
H491 H 0.62704 0.65556 0.20442 0.0
H492 H 0.59339 0.63154 0.57765 0.0
H493 H 0.60855 0.68493 0.65231 0.0
C494 C 0.61292 0.73532 0.49193 0.0
C495 C 0.60767 0.75663 0.39084 0.0
C496 C 0.62007 0.70297 0.46543 0.0
C497 C 0.62037 0.7488 0.27149 0.0
C498 C 0.63161 0.71782 0.24755 0.0
C499 C 0.62374 0.66186 0.30306 0.0
C500 C 0.60588 0.64111 0.38164 0.0
C501 C 0.62761 0.69398 0.33999 0.0
C502 C 0.60488 0.64794 0.51184 0.0
C503 C 0.6131 0.67882 0.55447 0.0
H504 H 0.78358 0.46321 0.25344 0.0
H505 H 0.80091 0.46732 0.65382 0.0
H506 H 0.85061 0.43609 0.6272 0.0
H507 H 0.89483 0.42227 0.48139 0.0
H508 H 0.877 0.4239 0.07912 0.0
H509 H 0.82052 0.43442 0.11607 0.0
C510 C 0.79713 0.45561 0.33586 0.0
C511 C 0.78938 0.4683 0.45477 0.0
C512 C 0.82568 0.43837 0.319 0.0
C513 C 0.80724 0.4586 0.56084 0.0
C514 C 0.83555 0.44073 0.54544 0.0
C515 C 0.87835 0.42395 0.40197 0.0
C516 C 0.89068 0.42444 0.2778 0.0
C517 C 0.84615 0.43274 0.42347 0.0
C518 C 0.86874 0.42442 0.17608 0.0
C519 C 0.83627 0.43106 0.1969 0.0
H520 H 1.02638 0.22388 0.2825 0.0
H521 H 1.01487 0.27477 0.93157 0.0
H522 H 1.01728 0.22367 0.81433 0.0
H523 H 1.02062 0.16332 0.81235 0.0
H524 H 0.03693 0.11396 0.16607 0.0
H525 H 1.03419 0.1646 0.27927 0.0
C526 C 1.02525 0.22375 0.18018 0.0
C527 C 1.021 0.25323 0.11571 0.0
C528 C 1.02678 0.19412 0.11329 0.0
C529 C 1.01882 0.25253 0.98308 0.0
C530 C 1.01982 0.22319 0.91621 0.0
C531 C 1.02361 0.16359 0.91407 0.0
C532 C 1.02817 0.13406 0.97942 0.0
C533 C 1.02342 0.1936 0.98015 0.0
C534 C 1.03262 0.13563 0.11166 0.0
C535 C 1.03133 0.16489 0.17748 0.0
H536 H 0.30788 0.05064 0.89497 0.0
H537 H 0.32657 1.03345 0.28896 0.0
H538 H 0.38434 1.02692 0.24375 0.0
H539 H 0.43074 1.03174 0.0959 0.0
H540 H 0.41212 0.05071 0.70188 0.0
H541 H 0.35412 0.05257 0.74399 0.0
C542 C 0.32465 0.04509 0.97053 0.0
C543 C 0.31275 0.04239 0.09548 0.0
C544 C 0.35829 0.04302 0.94455 0.0
C545 C 0.3349 0.03535 0.19226 0.0
C546 C 0.36809 1.03229 0.16662 0.0
C547 C 0.41407 0.03624 1.01885 0.0
C548 C 0.42634 0.04109 0.89502 0.0
C549 C 0.38031 0.03702 0.04382 0.0
C550 C 0.40386 0.04674 0.79756 0.0
C551 C 0.37046 0.04778 0.82178 0.0
H552 H 0.52772 0.3427 0.27571 0.0
H553 H 0.5452 0.29572 0.9212 0.0
H554 H 0.54165 0.34778 0.80992 0.0
H555 H 0.53542 0.40822 0.81411 0.0
H556 H 0.51298 0.45313 0.17083 0.0
H557 H 0.51692 0.4016 0.2777 0.0
C558 C 0.52997 0.3438 0.17377 0.0
C559 C 0.53619 0.31501 0.10695 0.0
C560 C 0.5276 0.37404 0.10994 0.0
C561 C 0.53975 0.31722 0.97484 0.0
C562 C 0.53804 0.3472 0.91127 0.0
C563 C 0.53122 0.40679 0.91501 0.0
C564 C 0.52452 0.43555 0.98301 0.0
C565 C 0.53226 0.37606 0.97763 0.0
C566 C 0.51879 0.43227 0.11416 0.0
C567 C 0.52084 0.40241 0.17649 0.0
H568 H 0.21861 0.55378 0.27053 0.0
H569 H 0.26914 0.5493 0.91668 0.0
H570 H 0.21746 0.54506 0.80257 0.0
H571 H 0.15656 0.54419 0.80296 0.0
H572 H 0.10774 0.5461 0.16301 0.0
H573 H 0.15896 0.55048 0.27217 0.0
C574 C 0.21829 0.55128 0.1686 0.0
C575 C 0.24794 0.5514 0.10266 0.0
C576 C 0.1883 0.54902 0.1035 0.0
C577 C 0.24686 0.54868 0.97014 0.0
C578 C 0.21716 0.5466 0.90474 0.0
C579 C 0.15709 0.54555 0.90517 0.0
C580 C 0.1275 0.54522 0.97308 0.0
C581 C 0.18747 0.54703 0.97002 0.0
C582 C 0.12944 0.54665 0.10625 0.0
C583 C 0.15905 0.54897 0.16993 0.0
H584 H 0.04561 0.84952 0.3945 0.0
H585 H 1.03488 0.79954 0.7479 0.0
H586 H 1.02866 0.85132 0.85886 0.0
H587 H 1.02914 0.91203 0.85614 0.0
H588 H 0.03702 0.96036 0.49581 0.0
H589 H 0.04199 0.90897 0.3891 0.0
C590 C 0.04106 0.85001 0.49534 0.0
C591 C 0.04016 0.82058 0.56241 0.0
C592 C 0.0377 0.87998 0.55835 0.0
C593 C 1.03497 0.82172 0.69368 0.0
C594 C 1.03183 0.85145 0.75726 0.0
C595 C 1.03181 0.91133 0.75433 0.0
C596 C 1.03315 0.94074 0.68553 0.0
C597 C 1.03364 0.88096 0.69104 0.0
C598 C 0.03626 0.93873 0.55296 0.0
C599 C 0.03895 0.90906 0.49083 0.0
H600 H 0.74738 1.00985 0.70576 0.0
H601 H 0.72905 0.03645 0.31959 0.0
H602 H 0.67157 0.04404 0.36835 0.0
H603 H 0.62509 0.03736 0.51536 0.0
H604 H 0.64342 1.01035 0.90259 0.0
H605 H 0.70131 1.00716 0.85784 0.0
C606 C 0.73076 1.01764 0.6328 0.0
C607 C 0.74267 1.02267 0.50884 0.0
C608 C 0.69727 1.02061 0.66066 0.0
C609 C 0.7207 1.03259 0.41538 0.0
C610 C 0.68766 0.03632 0.44298 0.0
C611 C 0.64168 1.03085 0.59041 0.0
C612 C 0.62934 1.02384 0.71265 0.0
C613 C 0.67539 1.02948 0.5643 0.0
C614 C 0.65172 1.01578 0.80784 0.0
C615 C 0.68505 1.014 0.78221 0.0
H616 H 0.54976 0.74933 0.64736 0.0
H617 H 0.52626 0.72089 0.26782 0.0
H618 H 0.51336 0.66614 0.34254 0.0
H619 H 0.51478 0.6242 0.51253 0.0
H620 H 0.54437 0.65184 0.88749 0.0
H621 H 0.54955 0.7079 0.81853 0.0
C622 C 0.54182 0.73108 0.58102 0.0
C623 C 0.53933 0.7394 0.45138 0.0
C624 C 0.53637 0.69891 0.62378 0.0
C625 C 0.52851 0.71541 0.36749 0.0
C626 C 0.52163 0.68385 0.41023 0.0
C627 C 0.52268 0.64234 0.57913 0.0
C628 C 0.52963 0.63305 0.70562 0.0
C629 C 0.52651 0.6749 0.53745 0.0
C630 C 0.53881 0.65764 0.79018 0.0
C631 C 0.54188 0.68997 0.75041 0.0
H632 H 0.84024 0.53323 0.37214 0.0
H633 H 0.7911 0.53169 0.7293 0.0
H634 H 0.84307 0.53432 0.84156 0.0
H635 H 0.90376 0.53523 0.83819 0.0
H636 H 0.95144 0.54119 0.47653 0.0
H637 H 0.89993 0.53822 0.36845 0.0
C638 C 0.84097 0.53424 0.47443 0.0
C639 C 0.81168 0.53279 0.54214 0.0
C640 C 0.87114 0.53586 0.53848 0.0
C641 C 0.81319 0.53339 0.67499 0.0
C642 C 0.84303 0.53457 0.73919 0.0
C643 C 0.90292 0.53589 0.73587 0.0
C644 C 0.93224 0.53755 0.66685 0.0
C645 C 0.87241 0.53548 0.67225 0.0
C646 C 0.92993 0.53899 0.53375 0.0
C647 C 0.90016 0.53764 0.47085 0.0
loop_
_geom_bond_atom_site_label_1
_geom_bond_atom_site_label_2
_geom_bond_distance
_geom_bond_site_symmetry_2
_ccdc_geom_bond_type
C0 N1 1.317 . S
C0 N2 1.348 . S
C0 C3 1.485 . S
N1 C0 1.317 . S
N1 N5 1.370 . S
N2 C0 1.348 . S
N2 C4 1.346 . S
C3 C0 1.485 . S
C3 H7 0.960 . S
C3 H8 0.961 . S
C3 H9 0.960 . S
C4 N2 1.346 . S
C4 N5 1.307 . S
C4 C6 1.486 . S
N5 N1 1.370 . S
N5 C4 1.307 . S
C6 C4 1.486 . S
C6 H10 0.960 . S
C6 H11 0.960 . S
C6 H12 0.959 . S
H7 C3 0.960 . S
H8 C3 0.961 . S
H9 C3 0.960 . S
H10 C6 0.960 . S
H11 C6 0.960 . S
H12 C6 0.959 . S
C13 N14 1.317 . S
C13 N15 1.350 . S
C13 C16 1.485 . S
N14 C13 1.317 . S
N14 N18 1.371 . S
N15 C13 1.350 . S
N15 C17 1.345 1_655 S
C16 C13 1.485 . S
C16 H20 0.960 1_655 S
C16 H21 0.961 . S
C16 H22 0.960 . S
C17 N15 1.345 1_455 S
C17 N18 1.307 1_455 S
C17 C19 1.486 . S
N18 N14 1.371 . S
N18 C17 1.307 1_655 S
C19 C17 1.486 . S
C19 H23 0.960 1_455 S
C19 H24 0.960 . S
C19 H25 0.959 . S
H20 C16 0.960 1_455 S
H21 C16 0.961 . S
H22 C16 0.960 . S
H23 C19 0.960 1_655 S
H24 C19 0.960 . S
H25 C19 0.959 . S
C26 N27 1.317 . S
C26 N28 1.350 . S
C26 C29 1.485 . S
N27 C26 1.317 . S
N27 N31 1.371 . S
N28 C26 1.350 . S
N28 C30 1.346 1_565 S
C29 C26 1.485 . S
C29 H33 0.960 1_565 S
C29 H34 0.961 . S
C29 H35 0.960 . S
C30 N28 1.346 1_545 S
C30 N31 1.307 1_545 S
C30 C32 1.486 . S
N31 N27 1.371 . S
N31 C30 1.307 1_565 S
C32 C30 1.486 . S
C32 H36 0.960 1_545 S
C32 H37 0.960 . S
C32 H38 0.959 . S
H33 C29 0.960 1_545 S
H34 C29 0.961 . S
H35 C29 0.960 . S
H36 C32 0.960 1_565 S
H37 C32 0.960 . S
H38 C32 0.959 . S
C39 N40 1.317 . S
C39 N41 1.348 . S
C39 C42 1.485 . S
N40 C39 1.317 . S
N40 N44 1.370 . S
N41 C39 1.348 . S
N41 C43 1.346 . S
C42 C39 1.485 . S
C42 H46 0.960 . S
C42 H47 0.961 . S
C42 H48 0.960 . S
C43 N41 1.346 . S
C43 N44 1.307 . S
C43 C45 1.486 . S
N44 N40 1.370 . S
N44 C43 1.307 . S
C45 C43 1.486 . S
C45 H49 0.960 . S
C45 H50 0.960 . S
C45 H51 0.959 . S
H46 C42 0.960 . S
H47 C42 0.961 . S
H48 C42 0.960 . S
H49 C45 0.960 . S
H50 C45 0.960 . S
H51 C45 0.959 . S
C52 N53 1.317 . S
C52 N54 1.348 1_556 S
C52 C55 1.485 . S
N53 C52 1.317 . S
N53 N57 1.370 1_556 S
N54 C52 1.348 1_554 S
N54 C56 1.346 . S
C55 C52 1.485 . S
C55 H59 0.960 . S
C55 H60 0.961 . S
C55 H61 0.960 . S
C56 N54 1.346 . S
C56 N57 1.307 . S
C56 C58 1.486 . S
N57 N53 1.370 1_554 S
N57 C56 1.307 . S
C58 C56 1.486 . S
C58 H62 0.960 . S
C58 H63 0.960 . S
C58 H64 0.959 . S
H59 C55 0.960 . S
H60 C55 0.961 . S
H61 C55 0.960 . S
H62 C58 0.960 . S
H63 C58 0.960 . S
H64 C58 0.959 . S
C65 N66 1.317 . S
C65 N67 1.350 1_556 S
C65 C68 1.485 . S
N66 C65 1.317 . S
N66 N70 1.370 1_556 S
N67 C65 1.350 1_554 S
N67 C69 1.345 1_655 S
C68 C65 1.485 . S
C68 H72 0.960 1_655 S
C68 H73 0.961 . S
C68 H74 0.960 . S
C69 N67 1.345 1_455 S
C69 N70 1.307 1_455 S
C69 C71 1.486 . S
N70 N66 1.370 1_554 S
N70 C69 1.307 1_655 S
C71 C69 1.486 . S
C71 H75 0.960 1_455 S
C71 H76 0.960 . S
C71 H77 0.959 . S
H72 C68 0.960 1_455 S
H73 C68 0.961 . S
H74 C68 0.960 . S
H75 C71 0.960 1_655 S
H76 C71 0.960 . S
H77 C71 0.959 . S
C78 N79 1.317 . S
C78 N80 1.350 1_556 S
C78 C81 1.485 . S
N79 C78 1.317 . S
N79 N83 1.371 1_556 S
N80 C78 1.350 1_554 S
N80 C82 1.345 1_565 S
C81 C78 1.485 . S
C81 H85 0.960 1_565 S
C81 H86 0.961 . S
C81 H87 0.960 . S
C82 N80 1.345 1_545 S
C82 N83 1.307 1_545 S
C82 C84 1.487 . S
N83 N79 1.371 1_554 S
N83 C82 1.307 1_565 S
C84 C82 1.487 . S
C84 H88 0.960 1_545 S
C84 H89 0.960 . S
C84 H90 0.959 . S
H85 C81 0.960 1_545 S
H86 C81 0.961 . S
H87 C81 0.960 . S
H88 C84 0.960 1_565 S
H89 C84 0.960 . S
H90 C84 0.959 . S
C91 N92 1.317 . S
C91 N93 1.348 1_556 S
C91 C94 1.485 . S
N92 C91 1.317 . S
N92 N96 1.370 1_556 S
N93 C91 1.348 1_554 S
N93 C95 1.346 . S
C94 C91 1.485 . S
C94 H98 0.960 . S
C94 H99 0.961 . S
C94 H100 0.960 . S
C95 N93 1.346 . S
C95 N96 1.307 . S
C95 C97 1.486 . S
N96 N92 1.370 1_554 S
N96 C95 1.307 . S
C97 C95 1.486 . S
C97 H101 0.960 . S
C97 H102 0.960 . S
C97 H103 0.959 . S
H98 C94 0.960 . S
H99 C94 0.961 . S
H100 C94 0.960 . S
H101 C97 0.960 . S
H102 C97 0.960 . S
H103 C97 0.959 . S
La104 C106 2.928 1_556 S
La104 O124 2.521 1_556 S
La104 O125 2.628 1_556 S
La104 O126 2.554 . S
La104 O127 2.757 1_565 S
La104 O128 2.470 . S
La104 O133 2.482 1_455 S
La104 O135 2.503 1_565 S
La105 C115 2.928 . S
La105 O127 2.482 1_655 S
La105 O129 2.503 1_545 S
La105 O130 2.521 . S
La105 O131 2.628 . S
La105 O132 2.554 . S
La105 O133 2.757 1_545 S
La105 O134 2.470 . S
C106 La104 2.928 1_554 S
C106 C107 1.503 . S
C106 O124 1.261 . S
C106 O125 1.243 . S
C107 C106 1.503 . S
C107 C108 1.394 . S
C107 C112 1.373 . S
C108 C107 1.394 . S
C108 C109 1.380 . S
C108 H136 0.930 . S
C109 C108 1.380 . S
C109 C110 1.376 . S
C109 H137 0.930 . S
C110 C109 1.376 . S
C110 C111 1.370 . S
C111 C110 1.370 . S
C111 C112 1.396 . S
C111 H138 0.959 . S
C112 C107 1.373 . S
C112 C111 1.396 . S
C112 H139 0.929 1_455 S
C113 O126 1.240 . S
C113 O127 1.289 1_565 S
C114 O128 1.258 1_655 S
C114 O129 1.256 . S
C115 La105 2.928 . S
C115 C116 1.503 . S
C115 O130 1.261 . S
C115 O131 1.243 . S
C116 C115 1.503 . S
C116 C117 1.394 . S
C116 C121 1.373 . S
C117 C116 1.394 . S
C117 C118 1.380 . S
C117 H140 0.930 . S
C118 C117 1.380 . S
C118 C119 1.376 . S
C118 H141 0.930 . S
C119 C118 1.376 . S
C119 C120 1.370 . S
C120 C119 1.370 . S
C120 C121 1.396 . S
C120 H142 0.952 . S
C121 C116 1.373 . S
C121 C120 1.396 . S
C121 H143 0.929 1_655 S
C122 O132 1.240 . S
C122 O133 1.289 1_545 S
C123 O134 1.258 1_455 S
C123 O135 1.256 . S
O124 La104 2.521 1_554 S
O124 C106 1.261 . S
O125 La104 2.628 1_554 S
O125 C106 1.243 . S
O126 La104 2.554 . S
O126 C113 1.240 . S
O127 La104 2.757 1_545 S
O127 La105 2.482 1_455 S
O127 C113 1.289 1_545 S
O128 La104 2.470 . S
O128 C114 1.258 1_455 S
O129 La105 2.503 1_565 S
O129 C114 1.256 . S
O130 La105 2.521 . S
O130 C115 1.261 . S
O131 La105 2.628 . S
O131 C115 1.243 . S
O132 La105 2.554 . S
O132 C122 1.240 . S
O133 La104 2.482 1_655 S
O133 La105 2.757 1_565 S
O133 C122 1.289 1_565 S
O134 La105 2.470 . S
O134 C123 1.258 1_655 S
O135 La104 2.503 1_545 S
O135 C123 1.256 . S
H136 C108 0.930 . S
H137 C109 0.930 . S
H138 C111 0.959 . S
H139 C112 0.929 1_655 S
H140 C117 0.930 . S
H141 C118 0.930 . S
H142 C120 0.952 . S
H143 C121 0.929 1_455 S
La144 C146 2.928 1_556 S
La144 O164 2.521 1_556 S
La144 O165 2.628 1_556 S
La144 O166 2.554 . S
La144 O167 2.757 . S
La144 O168 2.470 . S
La144 O173 2.482 1_545 S
La144 O175 2.503 . S
La145 C155 2.928 . S
La145 O167 2.482 1_565 S
La145 O169 2.503 . S
La145 O170 2.521 . S
La145 O171 2.628 . S
La145 O172 2.554 . S
La145 O173 2.757 . S
La145 O174 2.470 . S
C146 La144 2.928 1_554 S
C146 C147 1.503 . S
C146 O164 1.261 . S
C146 O165 1.243 . S
C147 C146 1.503 . S
C147 C148 1.394 . S
C147 C152 1.373 . S
C148 C147 1.394 . S
C148 C149 1.380 . S
C148 H176 0.930 . S
C149 C148 1.380 . S
C149 C150 1.376 . S
C149 H177 0.930 . S
C150 C149 1.376 . S
C150 C151 1.370 . S
C151 C150 1.370 . S
C151 C152 1.396 . S
C151 H178 0.914 1_545 S
C152 C147 1.373 . S
C152 C151 1.396 . S
C152 H179 0.929 1_545 S
C153 O166 1.240 . S
C153 O167 1.289 . S
C154 O168 1.258 1_565 S
C154 O169 1.256 . S
C155 La145 2.928 . S
C155 C156 1.503 . S
C155 O170 1.261 . S
C155 O171 1.243 . S
C156 C155 1.503 . S
C156 C157 1.394 . S
C156 C161 1.373 . S
C157 C156 1.394 . S
C157 C158 1.380 . S
C157 H180 0.930 . S
C158 C157 1.380 . S
C158 C159 1.376 . S
C158 H181 0.930 . S
C159 C158 1.376 . S
C159 C160 1.370 . S
C160 C159 1.370 . S
C160 C161 1.396 . S
C160 H182 0.907 1_565 S
C161 C156 1.373 . S
C161 C160 1.396 . S
C161 H183 0.929 1_565 S
C162 O172 1.240 . S
C162 O173 1.289 . S
C163 O174 1.258 1_545 S
C163 O175 1.256 . S
O164 La144 2.521 1_554 S
O164 C146 1.261 . S
O165 La144 2.628 1_554 S
O165 C146 1.243 . S
O166 La144 2.554 . S
O166 C153 1.240 . S
O167 La144 2.757 . S
O167 La145 2.482 1_545 S
O167 C153 1.289 . S
O168 La144 2.470 . S
O168 C154 1.258 1_545 S
O169 La145 2.503 . S
O169 C154 1.256 . S
O170 La145 2.521 . S
O170 C155 1.261 . S
O171 La145 2.628 . S
O171 C155 1.243 . S
O172 La145 2.554 . S
O172 C162 1.240 . S
O173 La144 2.482 1_565 S
O173 La145 2.757 . S
O173 C162 1.289 . S
O174 La145 2.470 . S
O174 C163 1.258 1_565 S
O175 La144 2.503 . S
O175 C163 1.256 . S
H176 C148 0.930 . S
H177 C149 0.930 . S
H178 C151 0.914 1_565 S
H179 C152 0.929 1_565 S
H180 C157 0.930 . S
H181 C158 0.930 . S
H182 C160 0.907 1_545 S
H183 C161 0.929 1_545 S
La184 C186 2.928 1_556 S
La184 O204 2.521 1_556 S
La184 O205 2.628 1_556 S
La184 O206 2.554 . S
La184 O207 2.757 . S
La184 O208 2.470 . S
La184 O213 2.482 . S
La184 O215 2.503 . S
La185 C195 2.928 . S
La185 O207 2.482 . S
La185 O209 2.503 . S
La185 O210 2.521 . S
La185 O211 2.628 . S
La185 O212 2.554 . S
La185 O213 2.757 . S
La185 O214 2.470 . S
C186 La184 2.928 1_554 S
C186 C187 1.503 . S
C186 O204 1.261 . S
C186 O205 1.243 . S
C187 C186 1.503 . S
C187 C188 1.394 . S
C187 C192 1.373 . S
C188 C187 1.394 . S
C188 C189 1.380 . S
C188 H216 0.930 . S
C189 C188 1.380 . S
C189 C190 1.376 . S
C189 H217 0.930 . S
C190 C189 1.376 . S
C190 C191 1.370 . S
C191 C190 1.370 . S
C191 C192 1.396 . S
C191 H218 0.929 . S
C192 C187 1.373 . S
C192 C191 1.396 . S
C192 H219 0.929 . S
C193 O206 1.240 . S
C193 O207 1.289 . S
C194 O208 1.258 . S
C194 O209 1.256 . S
C195 La185 2.928 . S
C195 C196 1.503 . S
C195 O210 1.261 . S
C195 O211 1.243 . S
C196 C195 1.503 . S
C196 C197 1.394 . S
C196 C201 1.373 . S
C197 C196 1.394 . S
C197 C198 1.380 . S
C197 H220 0.930 . S
C198 C197 1.380 . S
C198 C199 1.376 . S
C198 H221 0.930 . S
C199 C198 1.376 . S
C199 C200 1.370 . S
C200 C199 1.370 . S
C200 C201 1.396 . S
C200 H222 0.929 . S
C201 C196 1.373 . S
C201 C200 1.396 . S
C201 H223 0.929 . S
C202 O212 1.240 . S
C202 O213 1.289 . S
C203 O214 1.258 . S
C203 O215 1.256 . S
O204 La184 2.521 1_554 S
O204 C186 1.261 . S
O205 La184 2.628 1_554 S
O205 C186 1.243 . S
O206 La184 2.554 . S
O206 C193 1.240 . S
O207 La184 2.757 . S
O207 La185 2.482 . S
O207 C193 1.289 . S
O208 La184 2.470 . S
O208 C194 1.258 . S
O209 La185 2.503 . S
O209 C194 1.256 . S
O210 La185 2.521 . S
O210 C195 1.261 . S
O211 La185 2.628 . S
O211 C195 1.243 . S
O212 La185 2.554 . S
O212 C202 1.240 . S
O213 La184 2.482 . S
O213 La185 2.757 . S
O213 C202 1.289 . S
O214 La185 2.470 . S
O214 C203 1.258 . S
O215 La184 2.503 . S
O215 C203 1.256 . S
H216 C188 0.930 . S
H217 C189 0.930 . S
H218 C191 0.929 . S
H219 C192 0.929 . S
H220 C197 0.930 . S
H221 C198 0.930 . S
H222 C200 0.929 . S
H223 C201 0.929 . S
La224 C226 2.928 1_556 S
La224 O244 2.521 1_556 S
La224 O245 2.628 1_556 S
La224 O246 2.554 . S
La224 O247 2.757 1_655 S
La224 O248 2.470 . S
La224 O253 2.482 . S
La224 O255 2.503 1_655 S
La225 C235 2.928 . S
La225 O247 2.482 . S
La225 O249 2.503 1_455 S
La225 O250 2.521 . S
La225 O251 2.628 . S
La225 O252 2.554 . S
La225 O253 2.757 1_455 S
La225 O254 2.470 . S
C226 La224 2.928 1_554 S
C226 C227 1.503 . S
C226 O244 1.261 . S
C226 O245 1.243 . S
C227 C226 1.503 . S
C227 C228 1.394 . S
C227 C232 1.373 . S
C228 C227 1.394 . S
C228 C229 1.380 . S
C228 H256 0.930 . S
C229 C228 1.380 . S
C229 C230 1.376 . S
C229 H257 0.930 . S
C230 C229 1.376 . S
C230 C231 1.370 . S
C231 C230 1.370 . S
C231 C232 1.396 . S
C231 H258 0.929 . S
C232 C227 1.373 . S
C232 C231 1.396 . S
C232 H259 0.929 . S
C233 O246 1.251 . S
C233 O247 1.283 1_655 S
C234 O248 1.258 . S
C234 O249 1.256 . S
C235 La225 2.928 . S
C235 C236 1.503 . S
C235 O250 1.261 . S
C235 O251 1.243 . S
C236 C235 1.503 . S
C236 C237 1.394 . S
C236 C241 1.373 . S
C237 C236 1.394 . S
C237 C238 1.380 . S
C237 H260 0.930 . S
C238 C237 1.380 . S
C238 C239 1.376 . S
C238 H261 0.930 . S
C239 C238 1.376 . S
C239 C240 1.370 . S
C240 C239 1.370 . S
C240 C241 1.396 . S
C240 H262 0.929 . S
C241 C236 1.373 . S
C241 C240 1.396 . S
C241 H263 0.929 . S
C242 O252 1.255 . S
C242 O253 1.280 1_455 S
C243 O254 1.258 . S
C243 O255 1.256 . S
O244 La224 2.521 1_554 S
O244 C226 1.261 . S
O245 La224 2.628 1_554 S
O245 C226 1.243 . S
O246 La224 2.554 . S
O246 C233 1.251 . S
O247 La224 2.757 1_455 S
O247 La225 2.482 . S
O247 C233 1.283 1_455 S
O248 La224 2.470 . S
O248 C234 1.258 . S
O249 La225 2.503 1_655 S
O249 C234 1.256 . S
O250 La225 2.521 . S
O250 C235 1.261 . S
O251 La225 2.628 . S
O251 C235 1.243 . S
O252 La225 2.554 . S
O252 C242 1.255 . S
O253 La224 2.482 . S
O253 La225 2.757 1_655 S
O253 C242 1.280 1_655 S
O254 La225 2.470 . S
O254 C243 1.258 . S
O255 La224 2.503 1_455 S
O255 C243 1.256 . S
H256 C228 0.930 . S
H257 C229 0.930 . S
H258 C231 0.929 . S
H259 C232 0.929 . S
H260 C237 0.930 . S
H261 C238 0.930 . S
H262 C240 0.929 . S
H263 C241 0.929 . S
H264 C270 0.930 . S
H265 C273 0.930 . S
H266 C274 0.930 . S
H267 C275 0.930 . S
H268 C278 0.930 . S
H269 C279 0.930 . S
C270 H264 0.930 . S
C270 C271 1.351 1_545 S
C270 C272 1.415 . S
C271 C270 1.351 1_565 S
C271 C273 1.423 . S
C272 C270 1.415 . S
C272 C277 1.425 1_545 S
C272 C279 1.409 . S
C273 H265 0.930 . S
C273 C271 1.423 . S
C273 C274 1.362 . S
C274 H266 0.930 . S
C274 C273 1.362 . S
C274 C277 1.409 . S
C275 H267 0.930 . S
C275 C276 1.355 1_565 S
C275 C277 1.415 . S
C276 C275 1.355 1_545 S
C276 C278 1.419 . S
C277 C272 1.425 1_565 S
C277 C274 1.409 . S
C277 C275 1.415 . S
C278 H268 0.930 . S
C278 C276 1.419 . S
C278 C279 1.362 . S
C279 H269 0.930 . S
C279 C272 1.409 . S
C279 C278 1.362 . S
H280 C286 0.930 . S
H281 C289 0.930 . S
H282 C290 0.930 . S
H283 C291 0.930 . S
H284 C294 0.930 . S
H285 C295 0.930 . S
C286 H280 0.930 . S
C286 C287 1.355 . S
C286 C288 1.415 . S
C287 C286 1.355 . S
C287 C289 1.419 . S
C288 C286 1.415 . S
C288 C293 1.425 . S
C288 C295 1.409 . S
C289 H281 0.930 . S
C289 C287 1.419 . S
C289 C290 1.362 . S
C290 H282 0.930 . S
C290 C289 1.362 . S
C290 C293 1.409 . S
C291 H283 0.930 . S
C291 C292 1.355 . S
C291 C293 1.415 . S
C292 C291 1.355 . S
C292 C294 1.419 . S
C293 C288 1.425 . S
C293 C290 1.409 . S
C293 C291 1.415 . S
C294 H284 0.930 . S
C294 C292 1.419 . S
C294 C295 1.362 . S
C295 H285 0.930 . S
C295 C288 1.409 . S
C295 C294 1.362 . S
H296 C302 0.930 . S
H297 C305 0.930 . S
H298 C306 0.930 . S
H299 C307 0.930 . S
H300 C310 0.930 . S
H301 C311 0.930 . S
C302 H296 0.930 . S
C302 C303 1.355 . S
C302 C304 1.415 . S
C303 C302 1.355 . S
C303 C305 1.419 . S
C304 C302 1.415 . S
C304 C309 1.425 . S
C304 C311 1.409 . S
C305 H297 0.930 . S
C305 C303 1.419 . S
C305 C306 1.362 . S
C306 H298 0.930 . S
C306 C305 1.362 . S
C306 C309 1.409 . S
C307 H299 0.930 . S
C307 C308 1.355 . S
C307 C309 1.415 . S
C308 C307 1.355 . S
C308 C310 1.419 . S
C309 C304 1.425 . S
C309 C306 1.409 . S
C309 C307 1.415 . S
C310 H300 0.930 . S
C310 C308 1.419 . S
C310 C311 1.362 . S
C311 H301 0.930 . S
C311 C304 1.409 . S
C311 C310 1.362 . S
H312 C318 0.930 . S
H313 C321 0.930 . S
H314 C322 0.930 . S
H315 C323 0.930 . S
H316 C326 0.930 . S
H317 C327 0.930 . S
C318 H312 0.930 . S
C318 C319 1.355 1_655 S
C318 C320 1.415 . S
C319 C318 1.355 1_455 S
C319 C321 1.419 . S
C320 C318 1.415 . S
C320 C325 1.425 1_655 S
C320 C327 1.409 . S
C321 H313 0.930 . S
C321 C319 1.419 . S
C321 C322 1.362 . S
C322 H314 0.930 . S
C322 C321 1.362 . S
C322 C325 1.409 . S
C323 H315 0.930 . S
C323 C324 1.355 1_455 S
C323 C325 1.415 . S
C324 C323 1.355 1_655 S
C324 C326 1.419 . S
C325 C320 1.425 1_455 S
C325 C322 1.409 . S
C325 C323 1.415 . S
C326 H316 0.930 . S
C326 C324 1.419 . S
C326 C327 1.362 . S
C327 H317 0.930 . S
C327 C320 1.409 . S
C327 C326 1.362 . S
H328 C334 0.930 . S
H329 C337 0.930 . S
H330 C338 0.930 . S
H331 C339 0.930 . S
H332 C342 0.930 1_556 S
H333 C343 0.930 . S
C334 H328 0.930 . S
C334 C335 1.355 1_565 S
C334 C336 1.415 . S
C335 C334 1.355 1_545 S
C335 C337 1.419 . S
C336 C334 1.415 . S
C336 C341 1.425 1_565 S
C336 C343 1.409 . S
C337 H329 0.930 . S
C337 C335 1.419 . S
C337 C338 1.362 . S
C338 H330 0.930 . S
C338 C337 1.362 . S
C338 C341 1.409 . S
C339 H331 0.930 . S
C339 C340 1.355 1_545 S
C339 C341 1.415 . S
C340 C339 1.355 1_565 S
C340 C342 1.419 . S
C341 C336 1.425 1_545 S
C341 C338 1.409 . S
C341 C339 1.415 . S
C342 H332 0.930 1_554 S
C342 C340 1.419 . S
C342 C343 1.362 . S
C343 H333 0.930 . S
C343 C336 1.409 . S
C343 C342 1.362 . S
H344 C350 0.930 . S
H345 C353 0.930 . S
H346 C354 0.930 . S
H347 C355 0.930 . S
H348 C358 0.930 1_556 S
H349 C359 0.930 . S
C350 H344 0.930 . S
C350 C351 1.355 . S
C350 C352 1.415 . S
C351 C350 1.355 . S
C351 C353 1.419 . S
C352 C350 1.415 . S
C352 C357 1.425 . S
C352 C359 1.409 . S
C353 H345 0.930 . S
C353 C351 1.419 . S
C353 C354 1.362 . S
C354 H346 0.930 . S
C354 C353 1.362 . S
C354 C357 1.409 . S
C355 H347 0.930 . S
C355 C356 1.355 . S
C355 C357 1.415 . S
C356 C355 1.355 . S
C356 C358 1.419 . S
C357 C352 1.425 . S
C357 C354 1.409 . S
C357 C355 1.415 . S
C358 H348 0.930 1_554 S
C358 C356 1.419 . S
C358 C359 1.362 . S
C359 H349 0.930 . S
C359 C352 1.409 . S
C359 C358 1.362 . S
H360 C366 0.930 . S
H361 C369 0.930 . S
H362 C370 0.930 . S
H363 C371 0.930 . S
H364 C374 0.930 . S
H365 C375 0.930 . S
C366 H360 0.930 . S
C366 C367 1.355 . S
C366 C368 1.415 . S
C367 C366 1.355 . S
C367 C369 1.419 . S
C368 C366 1.415 . S
C368 C373 1.425 . S
C368 C375 1.409 . S
C369 H361 0.930 . S
C369 C367 1.419 . S
C369 C370 1.362 . S
C370 H362 0.930 . S
C370 C369 1.362 . S
C370 C373 1.409 . S
C371 H363 0.930 . S
C371 C372 1.355 . S
C371 C373 1.415 . S
C372 C371 1.355 . S
C372 C374 1.419 . S
C373 C368 1.425 . S
C373 C370 1.409 . S
C373 C371 1.415 . S
C374 H364 0.930 . S
C374 C372 1.419 . S
C374 C375 1.362 . S
C375 H365 0.930 . S
C375 C368 1.409 . S
C375 C374 1.362 . S
H376 C382 0.930 . S
H377 C385 0.930 . S
H378 C386 0.930 . S
H379 C387 0.930 . S
H380 C390 0.930 . S
H381 C391 0.930 . S
C382 H376 0.930 . S
C382 C383 1.355 1_655 S
C382 C384 1.415 . S
C383 C382 1.355 1_455 S
C383 C385 1.419 . S
C384 C382 1.415 . S
C384 C389 1.425 1_655 S
C384 C391 1.409 . S
C385 H377 0.930 . S
C385 C383 1.419 . S
C385 C386 1.362 . S
C386 H378 0.930 . S
C386 C385 1.362 . S
C386 C389 1.409 . S
C387 H379 0.930 . S
C387 C388 1.355 1_455 S
C387 C389 1.415 . S
C388 C387 1.355 1_655 S
C388 C390 1.419 . S
C389 C384 1.425 1_455 S
C389 C386 1.409 . S
C389 C387 1.415 . S
C390 H380 0.930 . S
C390 C388 1.419 . S
C390 C391 1.362 . S
C391 H381 0.930 . S
C391 C384 1.409 . S
C391 C390 1.362 . S
H392 C398 0.930 1_556 S
H393 C401 0.930 . S
H394 C402 0.930 . S
H395 C403 0.930 . S
H396 C406 0.930 . S
H397 C407 0.930 . S
C398 H392 0.930 1_554 S
C398 C399 1.355 1_655 S
C398 C400 1.415 . S
C399 C398 1.355 1_455 S
C399 C401 1.419 . S
C400 C398 1.415 . S
C400 C405 1.425 . S
C400 C407 1.409 . S
C401 H393 0.930 . S
C401 C399 1.419 . S
C401 C402 1.362 1_455 S
C402 H394 0.930 . S
C402 C401 1.362 1_655 S
C402 C405 1.409 . S
C403 H395 0.930 . S
C403 C404 1.355 . S
C403 C405 1.415 . S
C404 C403 1.355 . S
C404 C406 1.419 . S
C405 C400 1.425 . S
C405 C402 1.409 . S
C405 C403 1.415 . S
C406 H396 0.930 . S
C406 C404 1.419 . S
C406 C407 1.362 . S
C407 H397 0.930 . S
C407 C400 1.409 . S
C407 C406 1.362 . S
H408 C414 0.930 . S
H409 C417 0.930 1_556 S
H410 C418 0.937 . S
H411 C419 0.930 . S
H412 C422 0.930 . S
H413 C423 0.930 . S
C414 H408 0.930 . S
C414 C415 1.355 1_565 S
C414 C416 1.415 . S
C415 C414 1.355 1_545 S
C415 C417 1.419 . S
C416 C414 1.415 . S
C416 C421 1.425 . S
C416 C423 1.409 . S
C417 H409 0.930 1_554 S
C417 C415 1.419 . S
C417 C418 1.371 . S
C418 H410 0.937 . S
C418 C417 1.371 . S
C418 C421 1.395 1_545 S
C419 H411 0.930 . S
C419 C420 1.355 . S
C419 C421 1.415 . S
C420 C419 1.355 . S
C420 C422 1.419 . S
C421 C416 1.425 . S
C421 C418 1.395 1_565 S
C421 C419 1.415 . S
C422 H412 0.930 . S
C422 C420 1.419 . S
C422 C423 1.362 . S
C423 H413 0.930 . S
C423 C416 1.409 . S
C423 C422 1.362 . S
H424 C430 0.930 . S
H425 C433 0.930 1_556 S
H426 C434 0.930 . S
H427 C435 0.930 . S
H428 C438 0.930 . S
H429 C439 0.930 . S
C430 H424 0.930 . S
C430 C431 1.355 . S
C430 C432 1.415 . S
C431 C430 1.355 . S
C431 C433 1.419 . S
C432 C430 1.415 . S
C432 C437 1.425 . S
C432 C439 1.409 . S
C433 H425 0.930 1_554 S
C433 C431 1.419 . S
C433 C434 1.362 . S
C434 H426 0.930 . S
C434 C433 1.362 . S
C434 C437 1.409 . S
C435 H427 0.930 . S
C435 C436 1.355 . S
C435 C437 1.415 . S
C436 C435 1.355 . S
C436 C438 1.419 . S
C437 C432 1.425 . S
C437 C434 1.409 . S
C437 C435 1.415 . S
C438 H428 0.930 . S
C438 C436 1.419 . S
C438 C439 1.362 . S
C439 H429 0.930 . S
C439 C432 1.409 . S
C439 C438 1.362 . S
H440 C446 0.930 . S
H441 C449 0.930 1_556 S
H442 C450 0.930 1_556 S
H443 C451 0.930 . S
H444 C454 0.930 . S
H445 C455 0.930 . S
C446 H440 0.930 . S
C446 C447 1.355 . S
C446 C448 1.415 . S
C447 C446 1.355 . S
C447 C449 1.419 . S
C448 C446 1.415 . S
C448 C453 1.425 . S
C448 C455 1.409 . S
C449 H441 0.930 1_554 S
C449 C447 1.419 . S
C449 C450 1.362 . S
C450 H442 0.930 1_554 S
C450 C449 1.362 . S
C450 C453 1.409 . S
C451 H443 0.930 . S
C451 C452 1.355 . S
C451 C453 1.415 . S
C452 C451 1.355 . S
C452 C454 1.419 . S
C453 C448 1.425 . S
C453 C450 1.409 . S
C453 C451 1.415 . S
C454 H444 0.930 . S
C454 C452 1.419 . S
C454 C455 1.362 . S
C455 H445 0.930 . S
C455 C448 1.409 . S
C455 C454 1.362 . S
H456 C462 0.930 . S
H457 C465 0.930 . S
H458 C466 0.930 . S
H459 C467 0.930 . S
H460 C470 0.930 . S
H461 C471 0.918 1_655 S
C462 H456 0.930 . S
C462 C463 1.350 1_655 S
C462 C464 1.415 1_655 S
C463 C462 1.350 1_455 S
C463 C465 1.434 . S
C464 C462 1.415 1_455 S
C464 C469 1.425 . S
C464 C471 1.413 . S
C465 H457 0.930 . S
C465 C463 1.434 . S
C465 C466 1.362 . S
C466 H458 0.930 . S
C466 C465 1.362 . S
C466 C469 1.409 . S
C467 H459 0.930 . S
C467 C468 1.355 . S
C467 C469 1.415 . S
C468 C467 1.355 . S
C468 C470 1.419 . S
C469 C464 1.425 . S
C469 C466 1.409 . S
C469 C467 1.415 . S
C470 H460 0.930 . S
C470 C468 1.419 . S
C470 C471 1.370 . S
C471 H461 0.918 1_455 S
C471 C464 1.413 . S
C471 C470 1.370 . S
H472 C478 0.927 1_565 S
H473 C481 0.930 . S
H474 C482 0.930 . S
H475 C483 0.930 . S
H476 C486 0.930 . S
H477 C487 0.930 . S
C478 H472 0.927 1_545 S
C478 C479 1.354 1_545 S
C478 C480 1.418 . S
C479 C478 1.354 1_565 S
C479 C481 1.419 1_565 S
C480 C478 1.418 . S
C480 C485 1.425 . S
C480 C487 1.409 . S
C481 H473 0.930 . S
C481 C479 1.419 1_545 S
C481 C482 1.362 . S
C482 H474 0.930 . S
C482 C481 1.362 . S
C482 C485 1.409 . S
C483 H475 0.930 . S
C483 C484 1.355 . S
C483 C485 1.415 . S
C484 C483 1.355 . S
C484 C486 1.419 . S
C485 C480 1.425 . S
C485 C482 1.409 . S
C485 C483 1.415 . S
C486 H476 0.930 . S
C486 C484 1.419 . S
C486 C487 1.362 . S
C487 H477 0.930 . S
C487 C480 1.409 . S
C487 C486 1.362 . S
H488 C494 0.930 . S
H489 C497 0.930 . S
H490 C498 0.930 . S
H491 C499 0.930 . S
H492 C502 0.930 . S
H493 C503 0.930 . S
C494 H488 0.930 . S
C494 C495 1.355 . S
C494 C496 1.415 . S
C495 C494 1.355 . S
C495 C497 1.419 . S
C496 C494 1.415 . S
C496 C501 1.425 . S
C496 C503 1.409 . S
C497 H489 0.930 . S
C497 C495 1.419 . S
C497 C498 1.362 . S
C498 H490 0.930 . S
C498 C497 1.362 . S
C498 C501 1.409 . S
C499 H491 0.930 . S
C499 C500 1.355 . S
C499 C501 1.415 . S
C500 C499 1.355 . S
C500 C502 1.419 . S
C501 C496 1.425 . S
C501 C498 1.409 . S
C501 C499 1.415 . S
C502 H492 0.930 . S
C502 C500 1.419 . S
C502 C503 1.362 . S
C503 H493 0.930 . S
C503 C496 1.409 . S
C503 C502 1.362 . S
H504 C510 0.930 . S
H505 C513 0.930 . S
H506 C514 0.930 . S
H507 C515 0.930 . S
H508 C518 0.930 . S
H509 C519 0.930 . S
C510 H504 0.930 . S
C510 C511 1.355 . S
C510 C512 1.415 . S
C511 C510 1.355 . S
C511 C513 1.419 . S
C512 C510 1.415 . S
C512 C517 1.425 . S
C512 C519 1.409 . S
C513 H505 0.930 . S
C513 C511 1.419 . S
C513 C514 1.362 . S
C514 H506 0.930 . S
C514 C513 1.362 . S
C514 C517 1.409 . S
C515 H507 0.930 . S
C515 C516 1.355 . S
C515 C517 1.415 . S
C516 C515 1.355 . S
C516 C518 1.419 . S
C517 C512 1.425 . S
C517 C514 1.409 . S
C517 C515 1.415 . S
C518 H508 0.930 . S
C518 C516 1.419 . S
C518 C519 1.362 . S
C519 H509 0.930 . S
C519 C512 1.409 . S
C519 C518 1.362 . S
H520 C526 0.930 1_554 S
H521 C529 0.930 . S
H522 C530 0.930 . S
H523 C531 0.930 . S
H524 C534 0.930 . S
H525 C535 0.930 . S
C526 H520 0.930 1_556 S
C526 C527 1.355 1_655 S
C526 C528 1.415 1_655 S
C527 C526 1.355 1_455 S
C527 C529 1.419 . S
C528 C526 1.415 1_455 S
C528 C533 1.425 . S
C528 C535 1.409 1_456 S
C529 H521 0.930 . S
C529 C527 1.419 . S
C529 C530 1.362 . S
C530 H522 0.930 . S
C530 C529 1.362 . S
C530 C533 1.409 . S
C531 H523 0.930 . S
C531 C532 1.355 . S
C531 C533 1.415 . S
C532 C531 1.355 . S
C532 C534 1.419 1_456 S
C533 C528 1.425 . S
C533 C530 1.409 . S
C533 C531 1.415 . S
C534 H524 0.930 . S
C534 C532 1.419 1_654 S
C534 C535 1.362 . S
C535 H525 0.930 . S
C535 C528 1.409 1_654 S
C535 C534 1.362 . S
H536 C542 0.930 . S
H537 C545 0.930 . S
H538 C546 0.930 . S
H539 C547 0.942 1_554 S
H540 C550 0.930 . S
H541 C551 0.930 . S
C542 H536 0.930 . S
C542 C543 1.373 . S
C542 C544 1.415 . S
C543 C542 1.373 . S
C543 C545 1.401 1_546 S
C544 C542 1.415 . S
C544 C549 1.407 1_545 S
C544 C551 1.409 . S
C545 H537 0.930 . S
C545 C543 1.401 1_564 S
C545 C546 1.362 . S
C546 H538 0.930 . S
C546 C545 1.362 . S
C546 C549 1.427 1_554 S
C547 H539 0.942 1_556 S
C547 C548 1.343 1_565 S
C547 C549 1.415 . S
C548 C547 1.343 1_545 S
C548 C550 1.419 . S
C549 C544 1.407 1_565 S
C549 C546 1.427 1_556 S
C549 C547 1.415 . S
C550 H540 0.930 . S
C550 C548 1.419 . S
C550 C551 1.362 . S
C551 H541 0.930 . S
C551 C544 1.409 . S
C551 C550 1.362 . S
H552 C558 0.930 . S
H553 C561 0.930 . S
H554 C562 0.930 . S
H555 C563 0.930 . S
H556 C566 0.930 . S
H557 C567 0.930 . S
C558 H552 0.930 . S
C558 C559 1.355 . S
C558 C560 1.415 . S
C559 C558 1.355 . S
C559 C561 1.419 . S
C560 C558 1.415 . S
C560 C565 1.425 . S
C560 C567 1.409 . S
C561 H553 0.930 . S
C561 C559 1.419 . S
C561 C562 1.362 . S
C562 H554 0.930 . S
C562 C561 1.362 . S
C562 C565 1.409 . S
C563 H555 0.930 . S
C563 C564 1.355 . S
C563 C565 1.415 . S
C564 C563 1.355 . S
C564 C566 1.419 . S
C565 C560 1.425 . S
C565 C562 1.409 . S
C565 C563 1.415 . S
C566 H556 0.930 . S
C566 C564 1.419 . S
C566 C567 1.362 . S
C567 H557 0.930 . S
C567 C560 1.409 . S
C567 C566 1.362 . S
H568 C574 0.930 . S
H569 C577 0.930 . S
H570 C578 0.930 . S
H571 C579 0.930 . S
H572 C582 0.930 . S
H573 C583 0.930 1_554 S
C574 H568 0.930 . S
C574 C575 1.355 . S
C574 C576 1.415 . S
C575 C574 1.355 . S
C575 C577 1.419 . S
C576 C574 1.415 . S
C576 C581 1.425 . S
C576 C583 1.409 . S
C577 H569 0.930 . S
C577 C575 1.419 . S
C577 C578 1.362 . S
C578 H570 0.930 . S
C578 C577 1.362 . S
C578 C581 1.409 . S
C579 H571 0.930 . S
C579 C580 1.355 . S
C579 C581 1.415 . S
C580 C579 1.355 . S
C580 C582 1.419 . S
C581 C576 1.425 . S
C581 C578 1.409 . S
C581 C579 1.415 . S
C582 H572 0.930 . S
C582 C580 1.419 . S
C582 C583 1.362 . S
C583 H573 0.930 1_556 S
C583 C576 1.409 . S
C583 C582 1.362 . S
H584 C590 0.930 . S
H585 C593 0.930 . S
H586 C594 0.930 . S
H587 C595 0.930 . S
H588 C598 0.930 . S
H589 C599 0.930 . S
C590 H584 0.930 . S
C590 C591 1.363 . S
C590 C592 1.415 . S
C591 C590 1.363 . S
C591 C593 1.410 1_655 S
C592 C590 1.415 . S
C592 C597 1.425 1_655 S
C592 C599 1.409 . S
C593 H585 0.930 . S
C593 C591 1.410 1_455 S
C593 C594 1.362 . S
C594 H586 0.930 . S
C594 C593 1.362 . S
C594 C597 1.409 . S
C595 H587 0.930 . S
C595 C596 1.355 1_455 S
C595 C597 1.415 . S
C596 C595 1.355 1_655 S
C596 C598 1.419 . S
C597 C592 1.425 1_455 S
C597 C594 1.409 . S
C597 C595 1.415 . S
C598 H588 0.930 . S
C598 C596 1.419 . S
C598 C599 1.362 . S
C599 H589 0.930 . S
C599 C592 1.409 . S
C599 C598 1.362 . S
H600 C606 0.930 . S
H601 C609 0.930 . S
H602 C610 0.930 . S
H603 C611 0.930 . S
H604 C614 0.930 . S
H605 C615 0.930 . S
C606 H600 0.930 . S
C606 C607 1.362 . S
C606 C608 1.415 . S
C607 C606 1.362 . S
C607 C609 1.411 1_565 S
C608 C606 1.415 . S
C608 C613 1.425 1_565 S
C608 C615 1.409 . S
C609 H601 0.930 . S
C609 C607 1.411 1_545 S
C609 C610 1.362 . S
C610 H602 0.930 . S
C610 C609 1.362 . S
C610 C613 1.409 . S
C611 H603 0.930 . S
C611 C612 1.355 1_545 S
C611 C613 1.415 . S
C612 C611 1.355 1_565 S
C612 C614 1.419 . S
C613 C608 1.425 1_545 S
C613 C610 1.409 . S
C613 C611 1.415 . S
C614 H604 0.930 . S
C614 C612 1.419 . S
C614 C615 1.362 . S
C615 H605 0.930 . S
C615 C608 1.409 . S
C615 C614 1.362 . S
H616 C622 0.930 . S
H617 C625 0.930 . S
H618 C626 0.930 . S
H619 C627 0.930 . S
H620 C630 0.930 . S
H621 C631 0.930 . S
C622 H616 0.930 . S
C622 C623 1.355 . S
C622 C624 1.415 . S
C623 C622 1.355 . S
C623 C625 1.419 . S
C624 C622 1.415 . S
C624 C629 1.425 . S
C624 C631 1.409 . S
C625 H617 0.930 . S
C625 C623 1.419 . S
C625 C626 1.362 . S
C626 H618 0.930 . S
C626 C625 1.362 . S
C626 C629 1.409 . S
C627 H619 0.930 . S
C627 C628 1.355 . S
C627 C629 1.415 . S
C628 C627 1.355 . S
C628 C630 1.419 . S
C629 C624 1.425 . S
C629 C626 1.409 . S
C629 C627 1.415 . S
C630 H620 0.930 . S
C630 C628 1.419 . S
C630 C631 1.362 . S
C631 H621 0.930 . S
C631 C624 1.409 . S
C631 C630 1.362 . S
H632 C638 0.930 . S
H633 C641 0.930 . S
H634 C642 0.930 . S
H635 C643 0.930 . S
H636 C646 0.930 . S
H637 C647 0.930 . S
C638 H632 0.930 . S
C638 C639 1.355 . S
C638 C640 1.415 . S
C639 C638 1.355 . S
C639 C641 1.419 . S
C640 C638 1.415 . S
C640 C645 1.425 . S
C640 C647 1.409 . S
C641 H633 0.930 . S
C641 C639 1.419 . S
C641 C642 1.362 . S
C642 H634 0.930 . S
C642 C641 1.362 . S
C642 C645 1.409 . S
C643 H635 0.930 . S
C643 C644 1.355 . S
C643 C645 1.415 . S
C644 C643 1.355 . S
C644 C646 1.419 . S
C645 C640 1.425 . S
C645 C642 1.409 . S
C645 C643 1.415 . S
C646 H636 0.930 . S
C646 C644 1.419 . S
C646 C647 1.362 . S
C647 H637 0.930 . S
C647 C640 1.409 . S
C647 C646 1.362 . S
C271 N80 1.894 . S
C276 C113 2.044 1_545 S
C292 C153 2.065 . S
C287 N93 1.943 . S
C308 C193 2.077 . S
C303 N54 1.934 . S
C324 C233 2.045 . S
C319 N67 1.932 1_455 S
C340 C122 2.039 1_564 S
C335 N28 1.962 1_545 S
C351 N41 1.977 . S
C356 C162 2.056 1_554 S
C367 N2 1.922 . S
C372 C202 2.068 1_554 S
C383 N15 1.924 1_455 S
C388 C242 2.060 1_654 S
C404 C119 0.613 . S
C399 N70 0.569 1_455 S
C420 C159 0.687 . S
C415 N83 0.664 1_545 S
C436 C199 0.692 . S
C431 N96 0.663 . S
C447 N57 0.628 . S
C452 C239 0.639 . S
C463 N18 0.511 1_455 S
C468 C110 0.511 . S
C484 C150 0.638 . S
C479 N31 0.592 . S
C500 C190 0.572 . S
C495 N44 0.547 . S
C511 N5 0.553 . S
C516 C230 0.593 . S
C527 N66 2.315 1_455 S
C532 C123 2.357 . S
C543 N79 2.237 1_545 S
C548 C163 2.355 . S
C564 C203 2.340 . S
C559 N92 2.244 . S
C580 C243 2.371 . S
C575 N53 2.299 . S
C591 N14 2.291 . S
C596 C114 2.402 . S
C612 C154 2.357 . S
C607 N27 2.247 . S
C628 C194 2.332 . S
C623 N40 2.202 . S
C639 N1 2.245 . S
C644 C234 2.379 . S
