# Generated by pormake.
# Topology zzz, (3,6)-cn, num edge types: 1
# Building blocks:
#     Node 0, Type 0, BuildingBlock: KAKCAD_clean_linker_0, # of connection points: 3
#     Node 1, Type 0, BuildingBlock: KAKCAD_clean_linker_0, # of connection points: 3
#     Node 2, Type 0, BuildingBlock: KAKCAD_clean_linker_0, # of connection points: 3
#     Node 3, Type 0, BuildingBlock: KAKCAD_clean_linker_0, # of connection points: 3
#     Node 4, Type 0, BuildingBlock: KAKCAD_clean_linker_0, # of connection points: 3
#     Node 5, Type 0, BuildingBlock: KAKCAD_clean_linker_0, # of connection points: 3
#     Node 6, Type 0, BuildingBlock: KAKCAD_clean_linker_0, # of connection points: 3
#     Node 7, Type 0, BuildingBlock: KAKCAD_clean_linker_0, # of connection points: 3
#     Node 8, Type 1, BuildingBlock: PAMTOO_clean_sbu_0, # of connection points: 6
#     Node 9, Type 1, BuildingBlock: PAMTOO_clean_sbu_0, # of connection points: 6
#     Node 10, Type 1, BuildingBlock: PAMTOO_clean_sbu_0, # of connection points: 6
#     Node 11, Type 1, BuildingBlock: PAMTOO_clean_sbu_0, # of connection points: 6
#     Edge 12, Type (0, 1), BuildingBlock: KIFKEQ_clean_linker_1, # of connection points: 2
#     Edge 13, Type (0, 1), BuildingBlock: KIFKEQ_clean_linker_1, # of connection points: 2
#     Edge 14, Type (0, 1), BuildingBlock: KIFKEQ_clean_linker_1, # of connection points: 2
#     Edge 15, Type (0, 1), BuildingBlock: KIFKEQ_clean_linker_1, # of connection points: 2
#     Edge 16, Type (0, 1), BuildingBlock: KIFKEQ_clean_linker_1, # of connection points: 2
#     Edge 17, Type (0, 1), BuildingBlock: KIFKEQ_clean_linker_1, # of connection points: 2
#     Edge 18, Type (0, 1), BuildingBlock: KIFKEQ_clean_linker_1, # of connection points: 2
#     Edge 19, Type (0, 1), BuildingBlock: KIFKEQ_clean_linker_1, # of connection points: 2
#     Edge 20, Type (0, 1), BuildingBlock: KIFKEQ_clean_linker_1, # of connection points: 2
#     Edge 21, Type (0, 1), BuildingBlock: KIFKEQ_clean_linker_1, # of connection points: 2
#     Edge 22, Type (0, 1), BuildingBlock: KIFKEQ_clean_linker_1, # of connection points: 2
#     Edge 23, Type (0, 1), BuildingBlock: KIFKEQ_clean_linker_1, # of connection points: 2
#     Edge 24, Type (0, 1), BuildingBlock: KIFKEQ_clean_linker_1, # of connection points: 2
#     Edge 25, Type (0, 1), BuildingBlock: KIFKEQ_clean_linker_1, # of connection points: 2
#     Edge 26, Type (0, 1), BuildingBlock: KIFKEQ_clean_linker_1, # of connection points: 2
#     Edge 27, Type (0, 1), BuildingBlock: KIFKEQ_clean_linker_1, # of connection points: 2
#     Edge 28, Type (0, 1), BuildingBlock: KIFKEQ_clean_linker_1, # of connection points: 2
#     Edge 29, Type (0, 1), BuildingBlock: KIFKEQ_clean_linker_1, # of connection points: 2
#     Edge 30, Type (0, 1), BuildingBlock: KIFKEQ_clean_linker_1, # of connection points: 2
#     Edge 31, Type (0, 1), BuildingBlock: KIFKEQ_clean_linker_1, # of connection points: 2
#     Edge 32, Type (0, 1), BuildingBlock: KIFKEQ_clean_linker_1, # of connection points: 2
#     Edge 33, Type (0, 1), BuildingBlock: KIFKEQ_clean_linker_1, # of connection points: 2
#     Edge 34, Type (0, 1), BuildingBlock: KIFKEQ_clean_linker_1, # of connection points: 2
#     Edge 35, Type (0, 1), BuildingBlock: KIFKEQ_clean_linker_1, # of connection points: 2
# Relax obj value: 0.345
# Max RMSD: 0.275
# Mean RMSD: 0.218
data_MOF--net-zzz--node1-PAMTOO_clean_sbu_0--node2-KAKCAD_clean_linker_0--edge1-KIFKEQ_clean_linker_1
_symmetry_space_group_name_H-M    P1
_symmetry_Int_Tables_number       1
_symmetry_cell_setting            triclinic
loop_
_symmetry_equiv_pos_as_xyz
'x, y, z'
_cell_length_a     65.34653
_cell_length_b     56.989449
_cell_length_c     21.268309
_cell_angle_alpha  91.292247
_cell_angle_beta   81.711896
_cell_angle_gamma 84.795161
loop_
_atom_site_label
_atom_site_type_symbol
_atom_site_fract_x
_atom_site_fract_y
_atom_site_fract_z
_atom_type_partial_charge
C0 C 0.79927 0.5851 0.20377 0.0
C1 C 0.82084 0.58083 0.20194 0.0
C2 C 0.78575 0.57863 0.25643 0.0
C3 C 0.7936 0.56692 0.30699 0.0
C4 C 0.81526 0.56468 0.30679 0.0
C5 C 0.82861 0.57186 0.25557 0.0
C6 C 0.78003 0.554 0.35448 0.0
C7 C 0.76238 0.54444 0.3381 0.0
C8 C 0.75181 0.52853 0.37726 0.0
C9 C 0.75986 0.52083 0.43238 0.0
C10 C 0.77723 0.53091 0.45045 0.0
C11 C 0.78632 0.54821 0.41299 0.0
C12 C 0.78821 0.52261 0.5036 0.0
C13 C 0.79069 0.53891 0.55189 0.0
C14 C 0.80154 0.50163 0.49513 0.0
C15 C 0.81815 0.49806 0.53022 0.0
C16 C 0.82183 0.51548 0.57427 0.0
C17 C 0.73259 0.52058 0.35721 0.0
C18 C 0.71618 0.5377 0.35109 0.0
C19 C 0.7323 0.49785 0.33039 0.0
C20 C 0.71658 0.49288 0.29453 0.0
C21 C 0.70109 0.51068 0.28438 0.0
C22 C 0.70067 0.53283 0.31518 0.0
C23 C 0.80724 0.53538 0.58686 0.0
H24 H 0.79291 0.59209 0.16297 0.0
H25 H 0.76922 0.5816 0.25549 0.0
H26 H 0.82236 0.55547 0.3432 0.0
H27 H 0.84516 0.56793 0.25531 0.0
H28 H 0.7571 0.54846 0.29324 0.0
H29 H 0.79934 0.55611 0.4282 0.0
H30 H 0.75256 0.50759 0.46113 0.0
H31 H 0.78088 0.55541 0.5587 0.0
H32 H 0.80034 0.48906 0.45718 0.0
H33 H 0.82906 0.48256 0.51902 0.0
H34 H 0.71615 0.55543 0.37067 0.0
H35 H 0.74499 0.48448 0.33328 0.0
H36 H 0.8093 0.54894 0.62127 0.0
H37 H 0.68882 0.54682 0.30903 0.0
H38 H 0.71734 0.47566 0.27127 0.0
C39 C 0.06316 0.74511 0.07172 0.0
C40 C 0.07676 0.7619 0.08357 0.0
C41 C 0.05109 0.73518 0.12189 0.0
C42 C 0.05277 0.74119 0.1854 0.0
C43 C 0.06797 0.75605 0.19704 0.0
C44 C 0.07963 0.7665 0.14687 0.0
C45 C 0.03751 0.73377 0.2386 0.0
C46 C 0.02874 0.71237 0.23444 0.0
C47 C 0.01233 0.70669 0.27994 0.0
C48 C 1.00501 0.72231 0.33234 0.0
C49 C 0.01457 0.74325 0.33935 0.0
C50 C 0.03038 0.74896 0.29162 0.0
C51 C 1.00848 0.75997 0.395 0.0
C52 C 0.98795 0.7701 0.41159 0.0
C53 C 0.02408 0.76844 0.42596 0.0
C54 C 0.0196 0.78759 0.4693 0.0
C55 C 0.99932 0.79883 0.48336 0.0
C56 C 1.00282 0.68473 0.26787 0.0
C57 C 0.98375 0.68596 0.24432 0.0
C58 C 0.01546 0.66329 0.2618 0.0
C59 C 0.01028 0.64425 0.22677 0.0
C60 C 0.99233 0.64627 0.1973 0.0
C61 C 0.97849 0.66678 0.20938 0.0
C62 C 0.98341 0.7894 0.45531 0.0
H63 H 0.06097 0.74052 0.02363 0.0
H64 H 0.03961 0.72387 0.11043 0.0
H65 H 0.07028 0.76049 0.24512 0.0
H66 H 0.08988 0.77932 0.1584 0.0
H67 H 0.03429 0.70018 0.1945 0.0
H68 H 0.03659 0.76586 0.29508 0.0
H69 H 0.99238 0.71798 0.36772 0.0
H70 H 0.97564 0.76399 0.38821 0.0
H71 H 0.04005 0.76092 0.41418 0.0
H72 H 0.03238 0.79436 0.48895 0.0
H73 H 0.97395 0.70245 0.24743 0.0
H74 H 0.03033 0.66202 0.27898 0.0
H75 H 0.96755 0.79733 0.46569 0.0
H76 H 0.96459 0.66881 0.18699 0.0
H77 H 0.02111 0.62855 0.21869 0.0
C78 C 0.73032 0.06206 0.04568 0.0
C79 C 0.71072 0.07444 0.06557 0.0
C80 C 0.74163 0.05114 0.08972 0.0
C81 C 0.73403 0.05299 0.1552 0.0
C82 C 0.71534 0.06709 0.17539 0.0
C83 C 0.7037 0.07728 0.13134 0.0
C84 C 0.74485 0.0393 0.20186 0.0
C85 C 0.76649 0.03432 0.19202 0.0
C86 C 0.77667 0.02033 0.23379 0.0
C87 C 0.76492 0.01164 0.28803 0.0
C88 C 0.74317 0.01741 0.30001 0.0
C89 C 0.73342 0.0306 0.25589 0.0
C90 C 0.72973 0.01105 0.35864 0.0
C91 C 0.72488 0.98778 0.36833 0.0
C92 C 0.71815 0.02925 0.39766 0.0
C93 C 0.70132 0.02459 0.44263 0.0
C94 C 0.69549 0.00151 0.45018 0.0
C95 C 0.79961 0.01555 0.21784 0.0
C96 C 0.80861 0.99327 0.19335 0.0
C97 C 0.8118 0.03469 0.21202 0.0
C98 C 0.83194 0.03208 0.17829 0.0
C99 C 0.84045 0.01025 0.14928 0.0
C100 C 0.8289 0.99061 0.15956 0.0
C101 C 0.70797 0.98305 0.41372 0.0
H102 H 0.73674 0.06002 0.99585 0.0
H103 H 0.75592 0.04047 0.0718 0.0
H104 H 0.70926 0.06976 0.22539 0.0
H105 H 0.6887 0.08639 0.14948 0.0
H106 H 0.77565 0.04128 0.15133 0.0
H107 H 0.71663 0.03381 0.2639 0.0
H108 H 0.77264 0.00123 0.32125 0.0
H109 H 0.73332 0.97346 0.33822 0.0
H110 H 0.72134 0.04741 0.39048 0.0
H111 H 0.69213 0.03942 0.46861 0.0
H112 H 0.79942 0.97833 0.19603 0.0
H113 H 0.80517 0.05211 0.22987 0.0
H114 H 0.70428 0.96498 0.41868 0.0
H115 H 0.83494 0.97356 0.13775 0.0
H116 H 0.84051 0.04748 0.17236 0.0
C117 C 0.49611 0.70993 0.45889 0.0
C118 C 0.5132 0.69276 0.45433 0.0
C119 C 0.494 0.72537 0.40953 0.0
C120 C 0.50896 0.72394 0.35488 0.0
C121 C 0.52712 0.70861 0.35339 0.0
C122 C 0.5293 0.69321 0.40292 0.0
C123 C 0.50237 0.73115 0.29408 0.0
C124 C 0.50523 0.7533 0.26814 0.0
C125 C 0.49826 0.75881 0.20979 0.0
C126 C 0.48895 0.74163 0.17764 0.0
C127 C 0.48619 0.71949 0.2033 0.0
C128 C 0.49265 0.7147 0.26198 0.0
C129 C 0.47704 0.7009 0.16915 0.0
C130 C 0.46002 0.70629 0.13649 0.0
C131 C 0.48507 0.67722 0.17092 0.0
C132 C 0.47593 0.65934 0.14301 0.0
C133 C 0.45873 0.66461 0.11155 0.0
C134 C 0.50071 0.78217 0.1809 0.0
C135 C 0.48458 0.79328 0.15184 0.0
C136 C 0.51944 0.79277 0.17804 0.0
C137 C 0.52226 0.81338 0.14419 0.0
C138 C 0.50643 0.82374 0.11248 0.0
C139 C 0.48741 0.81372 0.11802 0.0
C140 C 0.45102 0.68826 0.10746 0.0
H141 H 0.48358 0.71019 0.49834 0.0
H142 H 0.47967 0.73669 0.41112 0.0
H143 H 0.53861 0.70681 0.31099 0.0
H144 H 0.5426 0.68015 0.39785 0.0
H145 H 0.5125 0.76617 0.29353 0.0
H146 H 0.4901 0.69791 0.28342 0.0
H147 H 0.48438 0.74528 0.13158 0.0
H148 H 0.45341 0.72433 0.13444 0.0
H149 H 0.49855 0.67243 0.19382 0.0
H150 H 0.48258 0.6413 0.14515 0.0
H151 H 0.46979 0.7859 0.15434 0.0
H152 H 0.5322 0.78461 0.19965 0.0
H153 H 0.43788 0.69273 0.08279 0.0
H154 H 0.47473 0.82157 0.09549 0.0
H155 H 0.53711 0.82066 0.14071 0.0
C156 C 0.21258 0.42367 0.29218 0.0
C157 C 0.19682 0.40989 0.279 0.0
C158 C 0.22784 0.4292 0.24356 0.0
C159 C 0.22772 0.42092 0.18089 0.0
C160 C 0.21409 0.40404 0.16997 0.0
C161 C 0.19872 0.39855 0.21875 0.0
C162 C 0.23826 0.43376 0.12739 0.0
C163 C 0.25731 0.44263 0.1314 0.0
C164 C 0.2648 0.4598 0.09007 0.0
C165 C 0.2531 0.46777 0.04216 0.0
C166 C 0.2345 0.45767 0.03489 0.0
C167 C 0.22734 0.4409 0.07798 0.0
C168 C 0.22106 0.46466 0.98601 0.0
C169 C 0.21047 0.48734 0.98773 0.0
C170 C 0.21495 0.44689 0.94769 0.0
C171 C 0.1977 0.45107 0.91603 0.0
C172 C 0.18608 0.4732 0.9214 0.0
C173 C 0.28407 0.46986 0.10312 0.0
C174 C 0.28298 0.49255 0.13126 0.0
C175 C 0.30222 0.45463 0.10349 0.0
C176 C 0.31829 0.46125 0.13509 0.0
C177 C 0.31664 0.4833 0.1676 0.0
C178 C 0.2991 0.49922 0.16312 0.0
C179 C 0.19319 0.49161 0.95542 0.0
H180 H 0.21173 0.43271 0.33795 0.0
H181 H 0.2381 0.44219 0.25407 0.0
H182 H 0.21406 0.39675 0.1225 0.0
H183 H 0.18711 0.38733 0.20762 0.0
H184 H 0.26588 0.43711 0.16945 0.0
H185 H 0.21231 0.4346 0.07536 0.0
H186 H 0.25849 0.48133 0.01072 0.0
H187 H 0.21455 0.50125 0.01777 0.0
H188 H 0.22271 0.4292 0.94577 0.0
H189 H 0.19292 0.43662 0.88938 0.0
H190 H 0.26902 0.50448 0.13282 0.0
H191 H 0.30329 0.43686 0.08328 0.0
H192 H 0.18459 0.50887 0.96055 0.0
H193 H 0.29738 0.5165 0.18653 0.0
H194 H 0.33133 0.44835 0.1377 0.0
C195 C 0.084 0.24066 0.32106 0.0
C196 C 0.08968 0.21651 0.3075 0.0
C197 C 0.08297 0.25626 0.27185 0.0
C198 C 0.08847 0.24823 0.20794 0.0
C199 C 0.09808 0.22513 0.19574 0.0
C200 C 0.09831 0.20928 0.24485 0.0
C201 C 0.08023 0.26188 0.15623 0.0
C202 C 0.07557 0.28638 0.16293 0.0
C203 C 0.06181 0.29831 0.12679 0.0
C204 C 0.05395 0.28578 0.07894 0.0
C205 C 0.06038 0.26161 0.06688 0.0
C206 C 0.07313 0.24991 0.10636 0.0
C207 C 0.05286 0.24707 0.01763 0.0
C208 C 0.03169 0.24362 0.02118 0.0
C209 C 0.06748 0.23249 0.97574 0.0
C210 C 0.06138 0.21353 0.94262 0.0
C211 C 0.04048 0.20877 0.9502 0.0
C212 C 0.05344 0.32261 0.14893 0.0
C213 C 0.03269 0.3267 0.17795 0.0
C214 C 0.06724 0.33955 0.15774 0.0
C215 C 0.06096 0.35893 0.19988 0.0
C216 C 0.04082 0.36161 0.23442 0.0
C217 C 0.02644 0.34598 0.22052 0.0
C218 C 0.02553 0.22461 0.98743 0.0
H219 H 0.07827 0.24713 0.36923 0.0
H220 H 0.07582 0.27392 0.28446 0.0
H221 H 0.10366 0.21856 0.14759 0.0
H222 H 0.10333 0.19094 0.23226 0.0
H223 H 0.0812 0.29605 0.20034 0.0
H224 H 0.07608 0.23092 0.10067 0.0
H225 H 0.04296 0.29469 0.05178 0.0
H226 H 0.02015 0.25441 0.05378 0.0
H227 H 0.08389 0.23475 0.97222 0.0
H228 H 0.0732 0.20179 0.91362 0.0
H229 H 0.02182 0.31377 0.17266 0.0
H230 H 0.08339 0.33664 0.13642 0.0
H231 H 1.00931 0.22131 0.99411 0.0
H232 H 0.01071 0.3478 0.24568 0.0
H233 H 0.07243 0.37059 0.2095 0.0
C234 C 0.28455 0.9444 0.40209 0.0
C235 C 0.29678 0.95878 0.43246 0.0
C236 C 0.27344 0.95357 0.35527 0.0
C237 C 0.27489 0.977 0.3374 0.0
C238 C 0.28673 0.99146 0.36866 0.0
C239 C 0.29746 0.98248 0.41618 0.0
C240 C 0.26476 0.98625 0.28449 0.0
C241 C 0.24325 0.98735 0.28796 0.0
C242 C 0.23328 0.99694 0.23888 0.0
C243 C 0.24544 0.005 0.18427 0.0
C244 C 0.26738 0.00349 0.18026 0.0
C245 C 0.27669 0.9944 0.2311 0.0
C246 C 0.28165 0.01021 0.12389 0.0
C247 C 0.28664 0.99471 0.07051 0.0
C248 C 0.29449 0.02833 0.13074 0.0
C249 C 0.3126 0.03004 0.08748 0.0
C250 C 0.31851 0.01347 0.03649 0.0
C251 C 0.21015 0.99881 0.24933 0.0
C252 C 0.20007 0.97858 0.26586 0.0
C253 C 0.19861 0.02093 0.25939 0.0
C254 C 0.17792 0.02284 0.29 0.0
C255 C 0.16836 0.00265 0.31162 0.0
C256 C 0.17955 0.98044 0.29668 0.0
C257 C 0.30485 0.99631 0.0273 0.0
H258 H 0.28394 0.92605 0.41371 0.0
H259 H 0.26434 0.94219 0.3314 0.0
H260 H 0.28794 0.0096 0.35554 0.0
H261 H 0.30707 0.9938 0.43817 0.0
H262 H 0.23415 0.98138 0.33035 0.0
H263 H 0.29347 0.99318 0.22853 0.0
H264 H 0.23799 0.01223 0.14571 0.0
H265 H 0.27731 0.98024 0.06483 0.0
H266 H 0.2913 0.04016 0.17233 0.0
H267 H 0.32269 0.04337 0.09671 0.0
H268 H 0.20866 0.9613 0.25946 0.0
H269 H 0.20605 0.03685 0.248 0.0
H270 H 0.30867 0.98345 0.98813 0.0
H271 H 0.17308 0.96442 0.3127 0.0
H272 H 0.16975 0.04024 0.2991 0.0
C273 C 0.47233 0.29531 0.07258 0.0
C274 C 0.48916 0.30246 0.03042 0.0
C275 C 0.47568 0.27873 0.11871 0.0
C276 C 0.49582 0.26863 0.12269 0.0
C277 C 0.5122 0.27369 0.07626 0.0
C278 C 0.50896 0.29045 0.0309 0.0
C279 C 0.50102 0.26041 0.1844 0.0
C280 C 0.49921 0.23728 0.20515 0.0
C281 C 0.50598 0.23066 0.26302 0.0
C282 C 0.51414 0.2475 0.29958 0.0
C283 C 0.51573 0.27058 0.27938 0.0
C284 C 0.50892 0.27681 0.22212 0.0
C285 C 0.52403 0.28856 0.31797 0.0
C286 C 0.51871 0.29014 0.38453 0.0
C287 C 0.53611 0.30547 0.2878 0.0
C288 C 0.54137 0.32446 0.32263 0.0
C289 C 0.53515 0.32656 0.38845 0.0
C290 C 0.50493 0.20641 0.28709 0.0
C291 C 0.48629 0.19553 0.29418 0.0
C292 C 0.52212 0.19536 0.31129 0.0
C293 C 0.5203 0.17507 0.34628 0.0
C294 C 0.5013 0.16511 0.3575 0.0
C295 C 0.48449 0.17495 0.32909 0.0
C296 C 0.52434 0.30896 0.41955 0.0
H297 H 0.45674 0.30357 0.07272 0.0
H298 H 0.46286 0.27543 0.15471 0.0
H299 H 0.52795 0.26653 0.07931 0.0
H300 H 0.52245 0.29538 1.00014 0.0
H301 H 0.49316 0.22451 0.176 0.0
H302 H 0.50963 0.29474 0.20645 0.0
H303 H 0.51931 0.24258 0.34404 0.0
H304 H 0.50929 0.27756 0.40926 0.0
H305 H 0.54098 0.30445 0.23685 0.0
H306 H 0.5498 0.33788 0.29797 0.0
H307 H 0.47277 0.20369 0.2762 0.0
H308 H 0.5368 0.20309 0.30566 0.0
H309 H 0.51926 0.31048 0.47039 0.0
H310 H 0.46968 0.16756 0.33698 0.0
H311 H 0.5336 0.16761 0.36665 0.0
Dy312 Dy 0.9916 0.01727 0.68522 0.0
Dy313 Dy 0.02054 0.99291 0.78211 0.0
C314 C 0.03953 0.00467 0.6436 0.0
O315 O 0.99471 0.97875 0.65769 0.0
O316 O 1.00694 0.962 0.74409 0.0
O317 O 0.98268 0.01718 0.59133 0.0
O318 O 0.97054 0.04571 0.65887 0.0
O319 O 0.98943 0.00434 0.84037 0.0
O320 O 0.96868 0.00457 0.76192 0.0
O321 O 0.02539 0.03127 0.785 0.0
O322 O 0.99474 0.04614 0.7553 0.0
O323 O 0.02502 0.97377 0.86605 0.0
O324 O 0.05123 0.98745 0.80915 0.0
C325 C 0.99924 0.96022 0.69063 0.0
O326 O 0.02481 0.02209 0.64931 0.0
O327 O 0.03805 0.98738 0.68318 0.0
C328 C 0.98451 0.056 0.5563 0.0
C329 C 1.00916 0.09052 0.50193 0.0
C330 C 0.01623 0.06652 0.49315 0.0
C331 C 1.00406 0.04945 0.51998 0.0
C332 C 0.97679 0.07986 0.56121 0.0
C333 C 0.98902 0.09699 0.53428 0.0
C334 C 0.97449 0.03897 0.59898 0.0
C335 C 0.97096 0.00403 0.82233 0.0
C336 C 0.01146 0.04903 0.78092 0.0
C337 C 0.05743 0.95128 0.85718 0.0
C338 C 0.0797 0.90722 0.86792 0.0
C339 C 0.06184 0.90891 0.8377 0.0
C340 C 0.05088 0.93075 0.83208 0.0
C341 C 0.07568 0.9499 0.8848 0.0
C342 C 0.08679 0.92806 0.88995 0.0
C343 C 0.04516 0.97409 0.85578 0.0
H344 H 0.03171 0.06095 0.46888 0.0
H345 H 0.01066 0.03125 0.5156 0.0
H346 H 0.96185 0.08537 0.58916 0.0
H347 H 0.983 0.11537 0.5407 0.0
H348 H 0.05569 0.89329 0.82102 0.0
H349 H 0.03693 0.9315 0.80985 0.0
H350 H 0.0811 0.96566 0.90359 0.0
H351 H 0.10065 0.92744 0.91257 0.0
Dy352 Dy 0.50335 0.97994 0.6992 0.0
Dy353 Dy 0.51454 0.0179 0.80255 0.0
C354 C 0.50333 0.03355 0.66908 0.0
O355 O 0.53589 0.98699 0.66096 0.0
O356 O 0.54557 0.00191 0.75242 0.0
O357 O 0.4983 0.96977 0.60452 0.0
O358 O 0.49503 0.945 0.68 0.0
O359 O 0.5086 0.98475 0.85356 0.0
O360 O 0.52054 0.96017 0.76799 0.0
O361 O 0.4796 0.02148 0.81715 0.0
O362 O 0.47469 0.98595 0.77169 0.0
O363 O 0.52871 0.02587 0.88489 0.0
O364 O 0.51336 0.05404 0.83704 0.0
C365 C 0.55026 0.99361 0.69322 0.0
O366 O 0.49189 0.01578 0.67006 0.0
O367 O 0.51704 0.03448 0.70811 0.0
C368 C 0.47015 0.9469 0.61196 0.0
C369 C 0.42887 0.94168 0.59551 0.0
C370 C 0.43343 0.95957 0.63641 0.0
C371 C 0.45385 0.9623 0.64389 0.0
C372 C 0.46583 0.92864 0.57221 0.0
C373 C 0.44526 0.92608 0.56378 0.0
C374 C 0.49137 0.94991 0.6229 0.0
C375 C 0.51585 0.96371 0.82972 0.0
C376 C 0.46751 0.00494 0.80709 0.0
C377 C 0.54442 0.06097 0.87462 0.0
C378 C 0.58338 0.07803 0.87486 0.0
C379 C 0.5794 0.06479 0.82222 0.0
C380 C 0.56001 0.05641 0.82199 0.0
C381 C 0.54787 0.07537 0.92551 0.0
C382 C 0.56724 0.08399 0.92549 0.0
C383 C 0.52561 0.0486 0.87889 0.0
H384 H 0.4212 0.97161 0.66254 0.0
H385 H 0.45693 0.97653 0.67465 0.0
H386 H 0.4783 0.91655 0.54748 0.0
H387 H 0.44226 0.91228 0.53145 0.0
H388 H 0.59159 0.06 0.78265 0.0
H389 H 0.55753 0.04539 0.78214 0.0
H390 H 0.53598 0.07898 0.96649 0.0
H391 H 0.57003 0.09394 0.96692 0.0
Dy392 Dy 0.52142 0.50351 0.78777 0.0
Dy393 Dy 0.47822 0.49682 0.71811 0.0
C394 C 0.49388 0.45922 0.81961 0.0
O395 O 0.5282 0.47243 0.72062 0.0
O396 O 0.50735 0.48691 0.65019 0.0
O397 O 0.55475 0.50616 0.78291 0.0
O398 O 0.53391 0.51228 0.87259 0.0
O399 O 0.48672 0.53326 0.69876 0.0
O400 O 0.52154 0.52916 0.70894 0.0
O401 O 0.46643 0.51031 0.81702 0.0
O402 O 0.49526 0.52875 0.8333 0.0
O403 O 0.44763 0.50916 0.69685 0.0
O404 O 0.46295 0.47576 0.65628 0.0
C405 C 0.52237 0.47194 0.66421 0.0
O406 O 0.50843 0.47212 0.8341 0.0
O407 O 0.48184 0.4649 0.77651 0.0
C408 C 0.57009 0.50501 0.88024 0.0
C409 C 0.59997 0.50027 0.96473 0.0
C410 C 0.58306 0.48639 0.971 0.0
C411 C 0.56814 0.48888 0.92943 0.0
C412 C 0.58759 0.51779 0.87189 0.0
C413 C 0.60229 0.51553 0.91366 0.0
C414 C 0.55296 0.51178 0.84354 0.0
C415 C 0.50527 0.54094 0.69057 0.0
C416 C 0.47556 0.52546 0.84811 0.0
C417 C 0.43671 0.49488 0.60113 0.0
C418 C 0.4141 0.49736 0.49616 0.0
C419 C 0.43445 0.48603 0.48951 0.0
C420 C 0.4456 0.48475 0.54136 0.0
C421 C 0.41668 0.50676 0.60731 0.0
C422 C 0.40555 0.50802 0.55569 0.0
C423 C 0.44665 0.49102 0.65926 0.0
H424 H 0.58081 0.47453 0.00995 0.0
H425 H 0.55468 0.47896 0.9373 0.0
H426 H 0.58938 0.53047 0.83473 0.0
H427 H 0.61525 0.52627 0.90703 0.0
H428 H 0.44173 0.4779 0.44435 0.0
H429 H 0.46096 0.47535 0.53493 0.0
H430 H 0.40928 0.51442 0.65296 0.0
H431 H 0.38987 0.51658 0.56337 0.0
Dy432 Dy 0.01244 0.51956 0.68794 0.0
Dy433 Dy 0.99911 0.47715 0.77966 0.0
C434 C 0.01648 0.46706 0.63377 0.0
O435 O 0.98026 0.51344 0.67027 0.0
O436 O 0.96897 0.49644 0.76382 0.0
O437 O 0.01411 0.53448 0.59514 0.0
O438 O 0.02788 0.55124 0.66882 0.0
O439 O 0.99744 0.5094 0.84321 0.0
O440 O 0.99383 0.53881 0.77254 0.0
O441 O 0.03402 0.47317 0.76455 0.0
O442 O 0.03783 0.512 0.74744 0.0
O443 O 1.00168 0.45783 0.86499 0.0
O444 O 0.98117 0.44748 0.8005 0.0
C445 C 0.96517 0.50628 0.71093 0.0
O446 O 0.02659 0.48576 0.63745 0.0
O447 O 1.0022 0.46239 0.68037 0.0
C448 C 0.04839 0.54326 0.56823 0.0
C449 C 0.08244 0.51473 0.50219 0.0
C450 C 0.08273 0.52256 0.56509 0.0
C451 C 0.06589 0.53675 0.59777 0.0
C452 C 0.0493 0.53796 0.50303 0.0
C453 C 0.06617 0.5237 0.47028 0.0
C454 C 0.0279 0.5484 0.6077 0.0
C455 C 0.99283 0.53162 0.83104 0.0
C456 C 0.04529 0.49117 0.76354 0.0
C457 C 0.96693 0.45335 0.90827 0.0
C458 C 0.93247 0.48228 0.97076 0.0
C459 C 0.95197 0.48249 0.99118 0.0
C460 C 0.96899 0.468 0.96069 0.0
C461 C 0.94689 0.45076 0.89389 0.0
C462 C 0.92981 0.4652 0.92466 0.0
C463 C 0.98515 0.44719 0.8589 0.0
H464 H 0.09504 0.51604 0.59102 0.0
H465 H 0.0658 0.54052 0.64797 0.0
H466 H 0.03605 0.54279 0.47909 0.0
H467 H 0.06583 0.51844 0.42121 0.0
H468 H 0.95461 0.49527 0.0269 0.0
H469 H 0.98413 0.47021 0.97388 0.0
H470 H 0.94471 0.43933 0.85448 0.0
H471 H 0.9148 0.464 0.90952 0.0
H472 H 0.13756 0.97211 0.31961 0.0
H473 H 0.15221 0.0374 0.40241 0.0
H474 H 0.10644 0.97276 0.39832 0.0
H475 H 0.12057 0.0384 0.47908 0.0
H476 H 0.05117 0.04133 0.56958 0.0
H477 H 0.08113 0.04171 0.48637 0.0
H478 H 0.09917 0.96873 0.51842 0.0
H479 H 0.06929 0.96835 0.60213 0.0
C480 C 0.13422 0.98667 0.35424 0.0
C481 C 0.14776 0.00459 0.35438 0.0
C482 C 0.11627 0.98703 0.39937 0.0
C483 C 0.11108 0.00552 0.44537 0.0
C484 C 0.12404 0.02396 0.44406 0.0
C485 C 0.14217 0.02343 0.39954 0.0
C486 C 0.06151 0.02534 0.55896 0.0
C487 C 0.05781 0.00481 0.59281 0.0
C488 C 0.07874 0.0256 0.51136 0.0
C489 C 0.09256 0.00525 0.4956 0.0
C490 C 0.08874 0.98465 0.52895 0.0
C491 C 0.07167 0.98448 0.57724 0.0
H492 H 0.51027 0.16555 0.47764 0.0
H493 H 0.48669 0.12178 0.34182 0.0
H494 H 0.5089 0.13403 0.55265 0.0
H495 H 0.48602 0.08945 0.41641 0.0
H496 H 0.47333 0.04249 0.59144 0.0
H497 H 0.47091 0.07434 0.51646 0.0
H498 H 0.52798 0.09791 0.56416 0.0
H499 H 0.52993 0.06701 0.63979 0.0
C500 C 0.50489 0.14903 0.46378 0.0
C501 C 0.49889 0.14598 0.40358 0.0
C502 C 0.5042 0.13086 0.50665 0.0
C503 C 0.49779 0.1089 0.49031 0.0
C504 C 0.49101 0.1061 0.43079 0.0
C505 C 0.49145 0.12455 0.38793 0.0
C506 C 0.48529 0.05456 0.58588 0.0
C507 C 0.50169 0.05233 0.62221 0.0
C508 C 0.48397 0.07275 0.54265 0.0
C509 C 0.49909 0.08899 0.53465 0.0
C510 C 0.5157 0.08626 0.5701 0.0
C511 C 0.5169 0.06835 0.61342 0.0
H512 H 0.30948 0.50662 0.28451 0.0
H513 H 0.35906 0.47142 0.14938 0.0
H514 H 0.33384 0.5115 0.35919 0.0
H515 H 0.3834 0.47611 0.22461 0.0
H516 H 0.41292 0.46167 0.40759 0.0
H517 H 0.39066 0.46033 0.3253 0.0
H518 H 0.36373 0.53103 0.38111 0.0
H519 H 0.38616 0.53251 0.46308 0.0
C520 C 0.32564 0.50032 0.26999 0.0
C521 C 0.33215 0.48855 0.21052 0.0
C522 C 0.33966 0.50307 0.31316 0.0
C523 C 0.36065 0.49406 0.2984 0.0
C524 C 0.36731 0.4829 0.23826 0.0
C525 C 0.3533 0.48023 0.19496 0.0
C526 C 0.40256 0.47714 0.40174 0.0
C527 C 0.40141 0.49717 0.4426 0.0
C528 C 0.38971 0.47635 0.35438 0.0
C529 C 0.37525 0.49553 0.34644 0.0
C530 C 0.37439 0.51575 0.38636 0.0
C531 C 0.38729 0.51658 0.43356 0.0
H532 H 0.0217 0.35271 0.35249 0.0
H533 H 0.04956 0.40782 0.24437 0.0
H534 H 0.01639 0.37801 0.44775 0.0
H535 H 0.04364 0.43372 0.33983 0.0
H536 H 0.0493 0.46525 0.53652 0.0
H537 H 0.05481 0.44033 0.43931 0.0
H538 H 0.99685 0.41075 0.49962 0.0
H539 H 0.99198 0.4346 0.59746 0.0
C540 C 0.02622 0.3705 0.34874 0.0
C541 C 0.03583 0.37832 0.29057 0.0
C542 C 0.02319 0.38509 0.40359 0.0
C543 C 0.02947 0.40808 0.40193 0.0
C544 C 0.03886 0.41604 0.34341 0.0
C545 C 0.04211 0.40129 0.28848 0.0
C546 C 0.03784 0.45327 0.52905 0.0
C547 C 0.02031 0.45174 0.57509 0.0
C548 C 0.04088 0.43915 0.47298 0.0
C549 C 0.0263 0.42343 0.46121 0.0
C550 C 1.00868 0.42219 0.50725 0.0
C551 C 1.00583 0.43599 0.56352 0.0
H552 H 0.87376 0.97611 0.13698 0.0
H553 H 0.85175 0.04086 0.05666 0.0
H554 H 0.90558 0.97382 0.05898 0.0
H555 H 0.88333 0.03864 0.97961 0.0
H556 H 0.93019 0.01243 0.80575 0.0
H557 H 0.89931 0.01307 0.88537 0.0
H558 H 0.9378 0.99589 0.02967 0.0
H559 H 0.9689 0.99531 0.94981 0.0
C560 C 0.87572 0.98986 0.10287 0.0
C561 C 0.86023 0.00876 0.10349 0.0
C562 C 0.89399 0.98862 0.05845 0.0
C563 C 0.897 0.00602 0.01287 0.0
C564 C 0.88148 0.02483 0.01358 0.0
C565 C 0.86344 0.02623 0.05831 0.0
C566 C 0.93216 0.00873 0.85436 0.0
C567 C 0.95212 0.00392 0.87121 0.0
C568 C 0.9144 0.00921 0.90015 0.0
C569 C 0.91604 0.00463 0.96405 0.0
C570 C 0.93597 0.99936 0.98084 0.0
C571 C 0.9538 0.99918 0.93508 0.0
H572 H 0.49581 0.82987 0.99425 0.0
H573 H 0.52482 0.86389 0.13711 0.0
H574 H 0.49997 0.86369 0.92738 0.0
H575 H 0.5294 0.89778 0.06917 0.0
H576 H 0.50774 0.96416 0.96002 0.0
H577 H 0.50736 0.93033 0.0286 0.0
H578 H 0.52711 0.88362 0.86412 0.0
H579 H 0.52729 0.91728 0.79554 0.0
C580 C 0.50309 0.84461 0.01141 0.0
C581 C 0.50982 0.84425 0.07129 0.0
C582 C 0.50569 0.86391 0.9727 0.0
C583 C 0.51507 0.88345 0.99279 0.0
C584 C 0.52199 0.88307 0.05249 0.0
C585 C 0.51951 0.8636 0.09117 0.0
C586 C 0.51219 0.94669 0.9385 0.0
C587 C 0.5174 0.94346 0.87214 0.0
C588 C 0.51207 0.92731 0.97791 0.0
C589 C 0.51704 0.90425 0.95183 0.0
C590 C 0.52288 0.90111 0.88568 0.0
C591 C 0.52309 0.92046 0.84636 0.0
H592 H 0.69375 0.53913 0.18793 0.0
H593 H 0.67621 0.47454 0.2728 0.0
H594 H 0.66999 0.53526 0.11144 0.0
H595 H 0.65142 0.47101 0.19748 0.0
H596 H 0.62065 0.46251 0.01557 0.0
H597 H 0.64536 0.46364 0.0919 0.0
H598 H 0.63514 0.53974 0.10264 0.0
H599 H 0.61144 0.53846 0.02496 0.0
C600 C 0.68455 0.52419 0.19069 0.0
C601 C 0.68667 0.50733 0.23709 0.0
C602 C 0.67075 0.522 0.14689 0.0
C603 C 0.65827 0.50305 0.14851 0.0
C604 C 0.66075 0.48581 0.19419 0.0
C605 C 0.67489 0.48785 0.23767 0.0
C606 C 0.62377 0.47942 0.03443 0.0
C607 C 0.61433 0.50041 0.01342 0.0
C608 C 0.63788 0.48011 0.07849 0.0
C609 C 0.64266 0.50181 0.10325 0.0
C610 C 0.63255 0.52268 0.0835 0.0
C611 C 0.61879 0.52198 0.03901 0.0
H612 H 0.02107 0.63203 0.09612 0.0
H613 H 0.95855 0.62215 0.18151 0.0
H614 H 0.01793 0.60518 0.00792 0.0
H615 H 0.95554 0.59461 0.09285 0.0
H616 H 0.97964 0.52403 0.95653 0.0
H617 H 0.97667 0.55231 0.04672 0.0
H618 H 0.99363 0.60696 0.91759 0.0
H619 H 0.99624 0.57898 0.82744 0.0
C620 C 1.00672 0.62387 0.09633 0.0
C621 C 0.99012 0.62898 0.14597 0.0
C622 C 1.00487 0.60868 0.04555 0.0
C623 C 0.98647 0.59795 0.04347 0.0
C624 C 0.96989 0.6027 0.09347 0.0
C625 C 0.97159 0.61839 0.14397 0.0
C626 C 0.98238 0.54218 0.94734 0.0
C627 C 0.98834 0.54923 0.88483 0.0
C628 C 0.98058 0.55835 0.99893 0.0
C629 C 0.98507 0.58173 0.98901 0.0
C630 C 0.99019 0.58899 0.92646 0.0
C631 C 0.99161 0.57297 0.87488 0.0
H632 H 0.0541 0.22058 0.39347 0.0
H633 H 0.10787 0.17182 0.32538 0.0
H634 H 0.03771 0.18957 0.45003 0.0
H635 H 0.09075 0.14025 0.3813 0.0
H636 H 0.03608 0.09103 0.39083 0.0
H637 H 0.0595 0.12086 0.3576 0.0
H638 H 0.03806 0.16052 0.53391 0.0
H639 H 0.01473 0.13061 0.56742 0.0
C640 C 0.06288 0.2035 0.39225 0.0
C641 C 0.08238 0.19882 0.35401 0.0
C642 C 0.05329 0.18558 0.42467 0.0
C643 C 0.06281 0.16243 0.41937 0.0
C644 C 0.08292 0.15793 0.38522 0.0
C645 C 0.09269 0.176 0.35319 0.0
C646 C 0.03654 0.10598 0.42279 0.0
C647 C 0.02333 0.10865 0.48131 0.0
C648 C 0.05008 0.12295 0.404 0.0
C649 C 0.05065 0.14296 0.4433 0.0
C650 C 0.03782 0.14535 0.50247 0.0
C651 C 0.02431 0.12837 0.52131 0.0
H652 H 0.32498 0.92041 0.40973 0.0
H653 H 0.30076 0.97549 0.55046 0.0
H654 H 0.3551 0.91189 0.46405 0.0
H655 H 0.33065 0.96667 0.60576 0.0
H656 H 0.40056 0.9784 0.58137 0.0
H657 H 0.36535 0.9772 0.55999 0.0
H658 H 0.3726 0.90108 0.55867 0.0
H659 H 0.40822 0.90225 0.58179 0.0
C660 C 0.32567 0.92995 0.45391 0.0
C661 C 0.31086 0.94888 0.47546 0.0
C662 C 0.34289 0.92506 0.48506 0.0
C663 C 0.34541 0.93901 0.53821 0.0
C664 C 0.32927 0.956 0.56403 0.0
C665 C 0.31217 0.96101 0.53264 0.0
C666 C 0.39458 0.96136 0.57824 0.0
C667 C 0.40718 0.94042 0.5838 0.0
C668 C 0.37431 0.96068 0.56616 0.0
C669 C 0.36609 0.93904 0.55874 0.0
C670 C 0.37856 0.91799 0.56449 0.0
C671 C 0.39894 0.91868 0.57719 0.0
H672 H 0.51741 0.36994 0.37117 0.0
H673 H 0.55819 0.33206 0.48413 0.0
H674 H 0.51825 0.40579 0.43415 0.0
H675 H 0.5605 0.3684 0.54512 0.0
H676 H 0.53461 0.4274 0.69405 0.0
H677 H 0.54112 0.39271 0.62343 0.0
H678 H 0.53526 0.43681 0.4626 0.0
H679 H 0.52712 0.47131 0.53473 0.0
C680 C 0.52699 0.36958 0.40877 0.0
C681 C 0.53769 0.34845 0.42326 0.0
C682 C 0.52769 0.39017 0.44463 0.0
C683 C 0.5395 0.39021 0.49504 0.0
C684 C 0.5509 0.36905 0.50765 0.0
C685 C 0.54976 0.34827 0.4726 0.0
C686 C 0.53509 0.42967 0.64342 0.0
C687 C 0.53021 0.45194 0.61973 0.0
C688 C 0.53894 0.40974 0.60264 0.0
C689 C 0.53847 0.41173 0.53698 0.0
C690 C 0.5351 0.4344 0.51299 0.0
C691 C 0.53067 0.45425 0.5541 0.0
H692 H 0.18892 0.41148 0.40986 0.0
H693 H 0.15857 0.41698 0.24242 0.0
H694 H 0.15831 0.43271 0.47261 0.0
H695 H 0.12828 0.4378 0.30469 0.0
H696 H 0.07477 0.47632 0.43366 0.0
H697 H 0.09918 0.44291 0.39094 0.0
H698 H 0.14861 0.47531 0.46432 0.0
H699 H 0.12419 0.50857 0.50722 0.0
C700 C 0.17548 0.41641 0.38693 0.0
C701 C 0.17644 0.41311 0.32081 0.0
C702 C 0.15802 0.42869 0.42274 0.0
C703 C 0.14121 0.43759 0.39304 0.0
C704 C 0.14101 0.43129 0.32897 0.0
C705 C 0.15845 0.41913 0.29319 0.0
C706 C 0.09088 0.47636 0.44023 0.0
C707 C 0.09761 0.49519 0.47323 0.0
C708 C 0.1048 0.45712 0.41636 0.0
C709 C 0.12576 0.45633 0.42491 0.0
C710 C 0.13244 0.47508 0.45837 0.0
C711 C 0.11852 0.49429 0.48231 0.0
H712 H 0.0585 0.77719 0.98196 0.0
H713 H 0.11411 0.78191 0.06842 0.0
H714 H 0.06795 0.80872 0.9133 0.0
H715 H 0.12299 0.81465 1.00067 0.0
H716 H 0.08576 0.86634 0.79362 0.0
H717 H 0.09284 0.82642 0.82971 0.0
H718 H 0.10244 0.85501 0.01172 0.0
H719 H 0.09484 0.89462 0.97688 0.0
C720 C 0.07317 0.78425 0.98499 0.0
C721 C 0.08532 0.77711 0.03197 0.0
C722 C 0.07857 0.8025 0.94532 0.0
C723 C 0.09609 0.81432 0.9521 0.0
C724 C 0.10927 0.80596 0.995 0.0
C725 C 0.10404 0.78736 0.03416 0.0
C726 C 0.08976 0.86411 0.84094 0.0
C727 C 0.08922 0.88369 0.88285 0.0
C728 C 0.09398 0.84127 0.86131 0.0
C729 C 0.09796 0.83764 0.92368 0.0
C730 C 0.09962 0.85725 0.96316 0.0
C731 C 0.09521 0.88004 0.94307 0.0
H732 H 0.70948 0.05474 0.94646 0.0
H733 H 0.67968 0.11137 0.07638 0.0
H734 H 0.68259 0.06153 0.88097 0.0
H735 H 0.65121 0.11573 0.01565 0.0
H736 H 0.59846 0.11939 0.90691 0.0
H737 H 0.63306 0.12409 0.93364 0.0
H738 H 0.65029 0.04961 0.89091 0.0
H739 H 0.61659 0.04566 0.86066 0.0
C740 C 0.69743 0.06887 0.96116 0.0
C741 C 0.6966 0.08188 0.01872 0.0
C742 C 0.6816 0.07243 0.92385 0.0
C743 C 0.66405 0.08837 0.94422 0.0
C744 C 0.66423 0.10303 0.99825 0.0
C745 C 0.68048 0.10011 0.03429 0.0
C746 C 0.60998 0.10429 0.90184 0.0
C747 C 0.60494 0.08219 0.8818 0.0
C748 C 0.62975 0.10687 0.9176 0.0
C749 C 0.64464 0.08722 0.91532 0.0
C750 C 0.63968 0.06539 0.89218 0.0
C751 C 0.62018 0.06299 0.87512 0.0
H752 H 0.45185 0.66066 0.98844 0.0
H753 H 0.44641 0.62441 0.16514 0.0
H754 H 0.44703 0.62426 0.93177 0.0
H755 H 0.44132 0.58808 0.10884 0.0
H756 H 0.48393 0.53259 0.96649 0.0
H757 H 0.47057 0.566 0.03831 0.0
H758 H 0.42761 0.58911 0.91059 0.0
H759 H 0.44103 0.55504 0.83868 0.0
C760 C 0.44875 0.64514 0.01542 0.0
C761 C 0.44992 0.64512 0.08078 0.0
C762 C 0.44591 0.6243 0.98308 0.0
C763 C 0.44416 0.60322 0.01581 0.0
C764 C 0.44296 0.60397 0.08231 0.0
C765 C 0.44589 0.62472 0.11447 0.0
C766 C 0.47104 0.54429 0.95519 0.0
C767 C 0.46339 0.54134 0.89764 0.0
C768 C 0.46331 0.5634 0.99631 0.0
C769 C 0.44805 0.58025 0.97999 0.0
C770 C 0.43937 0.57639 0.92425 0.0
C771 C 0.44689 0.55688 0.88349 0.0
H772 H 0.81616 0.55891 0.09116 0.0
H773 H 0.85852 0.59871 0.17788 0.0
H774 H 0.84508 0.53971 0.01765 0.0
H775 H 0.88757 0.57935 0.10426 0.0
H776 H 0.92204 0.50268 0.09015 0.0
H777 H 0.89614 0.53544 0.12454 0.0
H778 H 0.87874 0.53783 0.93635 0.0
H779 H 0.90536 0.50544 0.9007 0.0
C780 C 0.83148 0.56466 0.09198 0.0
C781 C 0.83524 0.57975 0.14137 0.0
C782 C 0.8481 0.55351 0.05003 0.0
C783 C 0.86855 0.55747 0.05708 0.0
C784 C 0.87192 0.57563 0.09907 0.0
C785 C 0.8553 0.58684 0.14079 0.0
C786 C 0.91298 0.51036 0.05569 0.0
C787 C 0.91574 0.5013 0.99281 0.0
C788 C 0.89823 0.52928 0.07526 0.0
C789 C 0.88574 0.53945 0.03266 0.0
C790 C 0.88831 0.53039 0.96987 0.0
C791 C 0.90332 0.51162 0.94994 0.0
H792 H 0.05791 0.16526 0.97073 0.0
H793 H 0.01053 0.20055 0.87556 0.0
H794 H 0.05002 0.12735 0.93125 0.0
H795 H 1.00314 0.16242 0.83261 0.0
H796 H 0.98298 0.08758 0.81123 0.0
H797 H 0.98902 0.12629 0.8526 0.0
H798 H 0.05442 0.10331 0.84084 0.0
H799 H 0.04811 0.06453 0.80297 0.0
C800 C 0.04594 0.16486 0.94046 0.0
C801 C 0.03501 0.18587 0.92558 0.0
C802 C 0.04147 0.14307 0.91733 0.0
C803 C 0.02615 0.14159 0.87753 0.0
C804 C 0.01493 0.1627 0.86342 0.0
C805 C 0.01921 0.1846 0.88767 0.0
C806 C 0.99862 0.09084 0.81774 0.0
C807 C 0.01502 0.07286 0.80446 0.0
C808 C 1.00214 0.11314 0.84108 0.0
C809 C 0.02221 0.1181 0.85089 0.0
C810 C 0.03864 0.10015 0.83589 0.0
C811 C 0.03506 0.07784 0.81366 0.0
H812 H 0.34537 0.97471 0.99374 0.0
H813 H 0.33994 0.05072 0.99132 0.0
H814 H 0.38057 0.97336 0.93731 0.0
H815 H 0.37523 0.04941 0.93397 0.0
H816 H 0.44695 0.03895 0.89379 0.0
H817 H 0.41093 0.04142 0.94582 0.0
H818 H 0.40134 0.97887 0.83952 0.0
H819 H 0.43735 0.97599 0.78939 0.0
C820 C 0.3515 0.99118 0.98008 0.0
C821 C 0.3396 0.01283 0.99712 0.0
C822 C 0.37183 0.99041 0.94759 0.0
C823 C 0.38099 0.01127 0.93073 0.0
C824 C 0.36898 0.03294 0.9469 0.0
C825 C 0.34863 0.03371 0.97968 0.0
C826 C 0.43715 0.02574 0.88141 0.0
C827 C 0.44524 0.00722 0.8374 0.0
C828 C 0.41637 0.02724 0.91105 0.0
C829 C 0.40302 0.0103 0.8974 0.0
C830 C 0.41109 0.99203 0.85249 0.0
C831 C 0.43184 0.99047 0.8232 0.0
H832 H 0.46253 0.34275 0.06117 0.0
H833 H 0.51082 0.31215 0.91373 0.0
H834 H 0.46224 0.38001 0.00733 0.0
H835 H 0.51128 0.35006 0.86276 0.0
H836 H 0.52404 0.43088 0.86455 0.0
H837 H 0.52118 0.39203 0.90995 0.0
H838 H 0.45615 0.39688 0.89061 0.0
H839 H 0.45906 0.43556 0.84337 0.0
C840 C 0.4728 0.34364 0.01677 0.0
C841 C 0.48683 0.32417 0.99244 0.0
C842 C 0.47273 0.36518 0.98629 0.0
C843 C 0.48692 0.36796 0.93148 0.0
C844 C 0.50038 0.34844 0.90557 0.0
C845 C 0.50015 0.32674 0.93515 0.0
C846 C 0.5091 0.42374 0.87025 0.0
C847 C 0.49175 0.43633 0.85061 0.0
C848 C 0.50752 0.40143 0.8957 0.0
C849 C 0.48847 0.39146 0.9034 0.0
C850 C 0.47101 0.4042 0.88506 0.0
C851 C 0.47269 0.42629 0.8581 0.0
H852 H 0.15497 0.44406 0.93558 0.0
H853 H 0.17101 0.50923 0.8511 0.0
H854 H 0.12169 0.44845 0.8969 0.0
H855 H 0.13796 0.51329 0.80935 0.0
H856 H 0.06877 0.52599 0.79434 0.0
H857 H 0.10237 0.52198 0.83134 0.0
H858 H 0.10394 0.44613 0.81149 0.0
H859 H 0.06975 0.45029 0.77776 0.0
C860 C 0.1515 0.4592 0.90772 0.0
C861 C 0.16578 0.47621 0.89614 0.0
C862 C 0.13234 0.4617 0.88505 0.0
C863 C 0.12686 0.48116 0.84912 0.0
C864 C 0.14125 0.4982 0.83749 0.0
C865 C 0.16034 0.49586 0.86116 0.0
C866 C 0.07628 0.50842 0.79783 0.0
C867 C 0.06639 0.48845 0.78333 0.0
C868 C 0.09576 0.50609 0.81873 0.0
C869 C 0.10619 0.48369 0.82497 0.0
C870 C 0.09641 0.46372 0.80902 0.0
C871 C 0.07676 0.46607 0.78905 0.0
H872 H 0.01696 0.81089 0.58806 0.0
H873 H 0.97319 0.8382 0.46747 0.0
H874 H 0.01524 0.84948 0.64014 0.0
H875 H 0.97029 0.87643 0.52282 0.0
H876 H 0.99208 0.94799 0.57107 0.0
H877 H 0.98973 0.90881 0.52686 0.0
H878 H 0.9969 0.87919 0.70867 0.0
H879 H 1.00019 0.91838 0.75201 0.0
C880 C 1.00673 0.82503 0.57312 0.0
C881 C 0.99548 0.82135 0.52264 0.0
C882 C 1.00552 0.84722 0.60376 0.0
C883 C 0.99279 0.86637 0.58548 0.0
C884 C 0.98064 0.86234 0.53741 0.0
C885 C 0.98202 0.8402 0.50627 0.0
C886 C 0.99304 0.93315 0.6018 0.0
C887 C 0.99643 0.93639 0.66507 0.0
C888 C 0.99152 0.91059 0.5765 0.0
C889 C 0.99311 0.89061 0.61395 0.0
C890 C 0.99597 0.89399 0.67783 0.0
C891 C 0.99774 0.91654 0.70291 0.0
H892 H 0.67779 0.02426 0.56377 0.0
H893 H 0.66758 0.96942 0.4314 0.0
H894 H 0.64351 0.0213 0.6229 0.0
H895 H 0.63391 0.96524 0.49324 0.0
H896 H 0.56508 0.98365 0.56734 0.0
H897 H 0.60036 0.98397 0.51298 0.0
H898 H 0.62099 0.00074 0.69145 0.0
H899 H 0.58538 0.00141 0.74539 0.0
C900 C 0.66837 0.01137 0.54742 0.0
C901 C 0.67561 0.99732 0.49188 0.0
C902 C 0.64867 0.00943 0.58213 0.0
C903 C 0.63557 0.99316 0.56298 0.0
C904 C 0.64319 0.97837 0.50906 0.0
C905 C 0.66282 0.98048 0.47398 0.0
C906 C 0.57712 0.98729 0.59522 0.0
C907 C 0.57224 0.99248 0.66097 0.0
C908 C 0.59754 0.9873 0.56393 0.0
C909 C 0.61384 0.9923 0.59739 0.0
C910 C 0.60897 0.99715 0.66349 0.0
C911 C 0.58847 0.99736 0.69471 0.0
H912 H 0.48077 0.66673 0.48558 0.0
H913 H 0.54425 0.67155 0.51491 0.0
H914 H 0.47976 0.63091 0.54437 0.0
H915 H 0.54309 0.63582 0.57683 0.0
H916 H 0.54005 0.55693 0.62273 0.0
H917 H 0.54254 0.59446 0.56977 0.0
H918 H 0.47808 0.6152 0.6436 0.0
H919 H 0.47545 0.57744 0.69288 0.0
C920 C 0.49437 0.66046 0.50626 0.0
C921 C 0.51249 0.67221 0.49633 0.0
C922 C 0.49381 0.63981 0.54023 0.0
C923 C 0.51127 0.63037 0.56626 0.0
C924 C 0.52939 0.64232 0.55702 0.0
C925 C 0.53004 0.66291 0.52201 0.0
C926 C 0.52647 0.56958 0.62744 0.0
C927 C 0.50748 0.56407 0.66103 0.0
C928 C 0.5279 0.5912 0.59749 0.0
C929 C 0.51044 0.60794 0.60147 0.0
C930 C 0.49172 0.60262 0.63751 0.0
C931 C 0.49021 0.58093 0.66619 0.0
H932 H 0.84325 0.4771 0.62044 0.0
H933 H 0.84627 0.55126 0.58737 0.0
H934 H 0.87729 0.4753 0.65677 0.0
H935 H 0.87992 0.54952 0.62436 0.0
H936 H 0.9504 0.52989 0.61338 0.0
H937 H 0.9155 0.53205 0.58473 0.0
H938 H 0.89572 0.4898 0.74414 0.0
H939 H 0.93075 0.48759 0.77304 0.0
C940 C 0.85106 0.49304 0.62134 0.0
C941 C 0.84187 0.51434 0.60119 0.0
C942 C 0.87052 0.49205 0.64258 0.0
C943 C 0.88143 0.51225 0.64332 0.0
C944 C 0.8721 0.53356 0.62393 0.0
C945 C 0.85262 0.53461 0.60339 0.0
C946 C 0.93863 0.52115 0.64267 0.0
C947 C 0.9435 0.50859 0.69561 0.0
C948 C 0.91854 0.52247 0.62633 0.0
C949 C 0.90273 0.51109 0.66205 0.0
C950 C 0.90754 0.49859 0.7152 0.0
C951 C 0.92762 0.49747 0.732 0.0
loop_
_geom_bond_atom_site_label_1
_geom_bond_atom_site_label_2
_geom_bond_distance
_geom_bond_site_symmetry_2
_ccdc_geom_bond_type
C0 C1 1.386 . S
C0 C2 1.397 . S
C0 H24 0.931 . S
C1 C0 1.386 . S
C1 C5 1.397 . S
C2 C0 1.397 . S
C2 C3 1.384 . S
C2 H25 0.930 . S
C3 C2 1.384 . S
C3 C4 1.377 . S
C3 C6 1.481 . S
C4 C3 1.377 . S
C4 C5 1.389 . S
C4 H26 0.929 . S
C5 C1 1.397 . S
C5 C4 1.389 . S
C5 H27 0.931 . S
C6 C3 1.481 . S
C6 C7 1.387 . S
C6 C11 1.390 . S
C7 C6 1.387 . S
C7 C8 1.401 . S
C7 H28 0.930 . S
C8 C7 1.401 . S
C8 C9 1.376 . S
C8 C17 1.511 . S
C9 C8 1.376 . S
C9 C10 1.392 . S
C9 H30 0.931 . S
C10 C9 1.392 . S
C10 C11 1.361 . S
C10 C12 1.500 . S
C11 C6 1.390 . S
C11 C10 1.361 . S
C11 H29 0.931 . S
C12 C10 1.500 . S
C12 C13 1.371 . S
C12 C14 1.365 . S
C13 C12 1.371 . S
C13 C23 1.386 . S
C13 H31 0.931 . S
C14 C12 1.365 . S
C14 C15 1.409 . S
C14 H32 0.929 . S
C15 C14 1.409 . S
C15 C16 1.380 . S
C15 H33 0.930 . S
C16 C15 1.380 . S
C16 C23 1.357 . S
C17 C8 1.511 . S
C17 C18 1.341 . S
C17 C19 1.371 . S
C18 C17 1.341 . S
C18 C22 1.394 . S
C18 H34 0.930 . S
C19 C17 1.371 . S
C19 C20 1.392 . S
C19 H35 0.931 . S
C20 C19 1.392 . S
C20 C21 1.331 . S
C20 H38 0.932 . S
C21 C20 1.331 . S
C21 C22 1.336 . S
C22 C18 1.394 . S
C22 C21 1.336 . S
C22 H37 0.929 . S
C23 C13 1.386 . S
C23 C16 1.357 . S
C23 H36 0.928 . S
H24 C0 0.931 . S
H25 C2 0.930 . S
H26 C4 0.929 . S
H27 C5 0.931 . S
H28 C7 0.930 . S
H29 C11 0.931 . S
H30 C9 0.931 . S
H31 C13 0.931 . S
H32 C14 0.929 . S
H33 C15 0.930 . S
H34 C18 0.930 . S
H35 C19 0.931 . S
H36 C23 0.928 . S
H37 C22 0.929 . S
H38 C20 0.932 . S
C39 C40 1.386 . S
C39 C41 1.397 . S
C39 H63 0.931 . S
C40 C39 1.386 . S
C40 C44 1.397 1_655 S
C41 C39 1.397 . S
C41 C42 1.384 . S
C41 H64 0.930 . S
C42 C41 1.384 . S
C42 C43 1.377 1_655 S
C42 C45 1.481 . S
C43 C42 1.377 1_455 S
C43 C44 1.389 . S
C43 H65 0.929 . S
C44 C40 1.397 1_455 S
C44 C43 1.389 . S
C44 H66 0.931 . S
C45 C42 1.481 . S
C45 C46 1.387 . S
C45 C50 1.390 . S
C46 C45 1.387 . S
C46 C47 1.401 . S
C46 H67 0.930 . S
C47 C46 1.401 . S
C47 C48 1.376 . S
C47 C56 1.511 . S
C48 C47 1.376 . S
C48 C49 1.392 . S
C48 H69 0.931 . S
C49 C48 1.392 . S
C49 C50 1.361 . S
C49 C51 1.500 . S
C50 C45 1.390 . S
C50 C49 1.361 . S
C50 H68 0.931 . S
C51 C49 1.500 . S
C51 C52 1.371 . S
C51 C53 1.365 1_655 S
C52 C51 1.371 . S
C52 C62 1.386 . S
C52 H70 0.931 . S
C53 C51 1.365 1_455 S
C53 C54 1.409 . S
C53 H71 0.929 . S
C54 C53 1.409 . S
C54 C55 1.380 1_455 S
C54 H72 0.930 . S
C55 C54 1.380 1_655 S
C55 C62 1.357 . S
C56 C47 1.511 . S
C56 C57 1.341 . S
C56 C58 1.371 . S
C57 C56 1.341 . S
C57 C61 1.394 . S
C57 H73 0.930 . S
C58 C56 1.371 . S
C58 C59 1.392 . S
C58 H74 0.931 1_655 S
C59 C58 1.392 . S
C59 C60 1.331 . S
C59 H77 0.932 1_655 S
C60 C59 1.331 . S
C60 C61 1.336 . S
C61 C57 1.394 . S
C61 C60 1.336 . S
C61 H76 0.929 . S
C62 C52 1.386 . S
C62 C55 1.357 . S
C62 H75 0.928 . S
H63 C39 0.931 . S
H64 C41 0.930 . S
H65 C43 0.929 . S
H66 C44 0.931 . S
H67 C46 0.930 . S
H68 C50 0.931 . S
H69 C48 0.931 . S
H70 C52 0.931 . S
H71 C53 0.929 . S
H72 C54 0.930 . S
H73 C57 0.930 . S
H74 C58 0.931 1_455 S
H75 C62 0.928 . S
H76 C61 0.929 . S
H77 C59 0.932 1_455 S
C78 C79 1.393 . S
C78 C80 1.397 . S
C78 H102 0.931 . S
C79 C78 1.393 . S
C79 C83 1.389 1_565 S
C80 C78 1.397 . S
C80 C81 1.388 . S
C80 H103 0.930 . S
C81 C80 1.388 . S
C81 C82 1.373 1_565 S
C81 C84 1.482 . S
C82 C81 1.373 1_545 S
C82 C83 1.389 . S
C82 H104 0.929 . S
C83 C79 1.389 1_545 S
C83 C82 1.389 . S
C83 H105 0.931 . S
C84 C81 1.482 . S
C84 C85 1.385 . S
C84 C89 1.391 . S
C85 C84 1.385 . S
C85 C86 1.404 . S
C85 H106 0.930 . S
C86 C85 1.404 . S
C86 C87 1.375 . S
C86 C95 1.509 . S
C87 C86 1.375 . S
C87 C88 1.396 . S
C87 H108 0.932 . S
C88 C87 1.396 . S
C88 C89 1.361 . S
C88 C90 1.501 1_565 S
C89 C84 1.391 . S
C89 C88 1.361 . S
C89 H107 0.932 . S
C90 C88 1.501 1_545 S
C90 C91 1.363 1_545 S
C90 C92 1.373 . S
C91 C90 1.363 1_565 S
C91 C101 1.386 . S
C91 H109 0.931 . S
C92 C90 1.373 . S
C92 C93 1.409 . S
C92 H110 0.929 . S
C93 C92 1.409 . S
C93 C94 1.379 . S
C93 H111 0.930 . S
C94 C93 1.379 . S
C94 C101 1.358 1_545 S
C95 C86 1.509 . S
C95 C96 1.341 . S
C95 C97 1.371 1_565 S
C96 C95 1.341 . S
C96 C100 1.394 . S
C96 H112 0.930 . S
C97 C95 1.371 1_545 S
C97 C98 1.392 . S
C97 H113 0.931 . S
C98 C97 1.392 . S
C98 C99 1.324 1_545 S
C98 H116 0.932 . S
C99 C98 1.324 1_565 S
C99 C100 1.346 . S
C100 C96 1.394 . S
C100 C99 1.346 . S
C100 H115 0.929 . S
C101 C91 1.386 . S
C101 C94 1.358 1_565 S
C101 H114 0.928 . S
H102 C78 0.931 . S
H103 C80 0.930 . S
H104 C82 0.929 . S
H105 C83 0.931 . S
H106 C85 0.930 . S
H107 C89 0.932 . S
H108 C87 0.932 . S
H109 C91 0.931 . S
H110 C92 0.929 . S
H111 C93 0.930 . S
H112 C96 0.930 . S
H113 C97 0.931 . S
H114 C101 0.928 . S
H115 C100 0.929 . S
H116 C98 0.932 . S
C117 C118 1.386 . S
C117 C119 1.397 . S
C117 H141 0.931 . S
C118 C117 1.386 . S
C118 C122 1.397 . S
C119 C117 1.397 . S
C119 C120 1.384 . S
C119 H142 0.930 . S
C120 C119 1.384 . S
C120 C121 1.377 . S
C120 C123 1.481 . S
C121 C120 1.377 . S
C121 C122 1.389 . S
C121 H143 0.929 . S
C122 C118 1.397 . S
C122 C121 1.389 . S
C122 H144 0.931 . S
C123 C120 1.481 . S
C123 C124 1.387 . S
C123 C128 1.390 . S
C124 C123 1.387 . S
C124 C125 1.401 . S
C124 H145 0.930 . S
C125 C124 1.401 . S
C125 C126 1.376 . S
C125 C134 1.511 . S
C126 C125 1.376 . S
C126 C127 1.392 . S
C126 H147 0.931 . S
C127 C126 1.392 . S
C127 C128 1.361 . S
C127 C129 1.500 . S
C128 C123 1.390 . S
C128 C127 1.361 . S
C128 H146 0.931 . S
C129 C127 1.500 . S
C129 C130 1.371 1_554 S
C129 C131 1.365 . S
C130 C129 1.371 1_556 S
C130 C140 1.386 . S
C130 H148 0.931 . S
C131 C129 1.365 . S
C131 C132 1.409 1_554 S
C131 H149 0.929 . S
C132 C131 1.409 1_556 S
C132 C133 1.380 . S
C132 H150 0.930 . S
C133 C132 1.380 . S
C133 C140 1.357 . S
C134 C125 1.511 . S
C134 C135 1.341 . S
C134 C136 1.371 . S
C135 C134 1.341 . S
C135 C139 1.394 . S
C135 H151 0.930 . S
C136 C134 1.371 . S
C136 C137 1.392 . S
C136 H152 0.931 1_554 S
C137 C136 1.392 . S
C137 C138 1.331 . S
C137 H155 0.932 1_554 S
C138 C137 1.331 . S
C138 C139 1.336 . S
C139 C135 1.394 . S
C139 C138 1.336 . S
C139 H154 0.929 . S
C140 C130 1.386 . S
C140 C133 1.357 . S
C140 H153 0.928 . S
H141 C117 0.931 . S
H142 C119 0.930 . S
H143 C121 0.929 . S
H144 C122 0.931 . S
H145 C124 0.930 . S
H146 C128 0.931 . S
H147 C126 0.931 . S
H148 C130 0.931 . S
H149 C131 0.929 . S
H150 C132 0.930 . S
H151 C135 0.930 . S
H152 C136 0.931 1_556 S
H153 C140 0.928 . S
H154 C139 0.929 . S
H155 C137 0.932 1_556 S
C156 C157 1.386 . S
C156 C158 1.397 . S
C156 H180 0.931 . S
C157 C156 1.386 . S
C157 C161 1.397 . S
C158 C156 1.397 . S
C158 C159 1.384 . S
C158 H181 0.930 . S
C159 C158 1.384 . S
C159 C160 1.377 . S
C159 C162 1.481 . S
C160 C159 1.377 . S
C160 C161 1.389 . S
C160 H182 0.929 . S
C161 C157 1.397 . S
C161 C160 1.389 . S
C161 H183 0.931 . S
C162 C159 1.481 . S
C162 C163 1.387 . S
C162 C167 1.390 1_554 S
C163 C162 1.387 . S
C163 C164 1.401 . S
C163 H184 0.930 . S
C164 C163 1.401 . S
C164 C165 1.376 1_554 S
C164 C173 1.511 . S
C165 C164 1.376 1_556 S
C165 C166 1.392 . S
C165 H186 0.931 . S
C166 C165 1.392 . S
C166 C167 1.361 . S
C166 C168 1.500 . S
C167 C162 1.390 1_556 S
C167 C166 1.361 . S
C167 H185 0.931 . S
C168 C166 1.500 . S
C168 C169 1.371 . S
C168 C170 1.365 . S
C169 C168 1.371 . S
C169 C179 1.386 . S
C169 H187 0.931 . S
C170 C168 1.365 . S
C170 C171 1.409 . S
C170 H188 0.929 . S
C171 C170 1.409 . S
C171 C172 1.380 . S
C171 H189 0.930 . S
C172 C171 1.380 . S
C172 C179 1.357 . S
C173 C164 1.511 . S
C173 C174 1.341 . S
C173 C175 1.371 1_554 S
C174 C173 1.341 . S
C174 C178 1.394 . S
C174 H190 0.930 . S
C175 C173 1.371 1_556 S
C175 C176 1.392 . S
C175 H191 0.931 . S
C176 C175 1.392 . S
C176 C177 1.331 1_556 S
C176 H194 0.932 . S
C177 C176 1.331 1_554 S
C177 C178 1.336 . S
C178 C174 1.394 . S
C178 C177 1.336 . S
C178 H193 0.929 . S
C179 C169 1.386 . S
C179 C172 1.357 . S
C179 H192 0.928 . S
H180 C156 0.931 . S
H181 C158 0.930 . S
H182 C160 0.929 . S
H183 C161 0.931 . S
H184 C163 0.930 . S
H185 C167 0.931 . S
H186 C165 0.931 . S
H187 C169 0.931 . S
H188 C170 0.929 . S
H189 C171 0.930 . S
H190 C174 0.930 . S
H191 C175 0.931 . S
H192 C179 0.928 . S
H193 C178 0.929 . S
H194 C176 0.932 . S
C195 C196 1.364 1_655 S
C195 C197 1.397 . S
C195 H219 0.952 . S
C196 C195 1.364 1_455 S
C196 C200 1.397 . S
C197 C195 1.397 . S
C197 C198 1.362 1_655 S
C197 H220 0.956 . S
C198 C197 1.362 1_455 S
C198 C199 1.377 . S
C198 C201 1.481 . S
C199 C198 1.377 . S
C199 C200 1.389 . S
C199 H221 0.929 . S
C200 C196 1.397 . S
C200 C199 1.389 . S
C200 H222 0.931 . S
C201 C198 1.481 . S
C201 C202 1.387 . S
C201 C206 1.390 . S
C202 C201 1.387 . S
C202 C203 1.401 . S
C202 H223 0.930 . S
C203 C202 1.401 . S
C203 C204 1.376 . S
C203 C212 1.511 . S
C204 C203 1.376 . S
C204 C205 1.392 . S
C204 H225 0.931 . S
C205 C204 1.392 . S
C205 C206 1.361 . S
C205 C207 1.500 1_554 S
C206 C201 1.390 . S
C206 C205 1.361 . S
C206 H224 0.931 . S
C207 C205 1.500 1_556 S
C207 C208 1.371 . S
C207 C209 1.365 . S
C208 C207 1.371 . S
C208 C218 1.386 . S
C208 H226 0.931 1_455 S
C209 C207 1.365 . S
C209 C210 1.409 . S
C209 H227 0.929 . S
C210 C209 1.409 . S
C210 C211 1.380 . S
C210 H228 0.930 . S
C211 C210 1.380 . S
C211 C218 1.357 . S
C212 C203 1.511 . S
C212 C213 1.341 . S
C212 C214 1.371 . S
C213 C212 1.341 . S
C213 C217 1.394 . S
C213 H229 0.935 . S
C214 C212 1.371 . S
C214 C215 1.392 . S
C214 H230 0.931 . S
C215 C214 1.392 . S
C215 C216 1.331 . S
C215 H233 0.932 . S
C216 C215 1.331 . S
C216 C217 1.336 . S
C217 C213 1.394 . S
C217 C216 1.336 . S
C217 H232 0.929 . S
C218 C208 1.386 . S
C218 C211 1.357 . S
C218 H231 0.928 1_455 S
H219 C195 0.952 . S
H220 C197 0.956 . S
H221 C199 0.929 . S
H222 C200 0.931 . S
H223 C202 0.930 . S
H224 C206 0.931 . S
H225 C204 0.931 . S
H226 C208 0.931 1_655 S
H227 C209 0.929 . S
H228 C210 0.930 . S
H229 C213 0.935 . S
H230 C214 0.931 . S
H231 C218 0.928 1_655 S
H232 C217 0.929 . S
H233 C215 0.932 . S
C234 C235 1.388 . S
C234 C236 1.397 . S
C234 H258 0.931 . S
C235 C234 1.388 . S
C235 C239 1.395 1_565 S
C236 C234 1.397 . S
C236 C237 1.382 . S
C236 H259 0.930 . S
C237 C236 1.382 . S
C237 C238 1.380 1_565 S
C237 C240 1.479 . S
C238 C237 1.380 1_545 S
C238 C239 1.389 . S
C238 H260 0.929 . S
C239 C235 1.395 1_545 S
C239 C238 1.389 . S
C239 H261 0.931 . S
C240 C237 1.479 . S
C240 C241 1.390 . S
C240 C245 1.389 . S
C241 C240 1.390 . S
C241 C242 1.401 . S
C241 H262 0.930 . S
C242 C241 1.401 . S
C242 C243 1.377 . S
C242 C251 1.514 . S
C243 C242 1.377 . S
C243 C244 1.388 1_565 S
C243 H264 0.935 . S
C244 C243 1.388 1_545 S
C244 C245 1.361 1_545 S
C244 C246 1.497 . S
C245 C240 1.389 . S
C245 C244 1.361 1_565 S
C245 H263 0.930 . S
C246 C244 1.497 . S
C246 C247 1.356 1_545 S
C246 C248 1.383 . S
C247 C246 1.356 1_565 S
C247 C257 1.386 1_554 S
C247 H265 0.931 . S
C248 C246 1.383 . S
C248 C249 1.409 1_554 S
C248 H266 0.929 . S
C249 C248 1.409 1_556 S
C249 C250 1.385 . S
C249 H267 0.930 . S
C250 C249 1.385 . S
C250 C257 1.353 1_545 S
C251 C242 1.514 . S
C251 C252 1.341 . S
C251 C253 1.371 1_565 S
C252 C251 1.341 . S
C252 C256 1.394 . S
C252 H268 0.930 . S
C253 C251 1.371 1_545 S
C253 C254 1.392 . S
C253 H269 0.931 . S
C254 C253 1.392 . S
C254 C255 1.325 1_545 S
C254 H272 0.932 . S
C255 C254 1.325 1_565 S
C255 C256 1.341 . S
C256 C252 1.394 . S
C256 C255 1.341 . S
C256 H271 0.929 . S
C257 C247 1.386 1_556 S
C257 C250 1.353 1_565 S
C257 H270 0.928 . S
H258 C234 0.931 . S
H259 C236 0.930 . S
H260 C238 0.929 . S
H261 C239 0.931 . S
H262 C241 0.930 . S
H263 C245 0.930 . S
H264 C243 0.935 . S
H265 C247 0.931 . S
H266 C248 0.929 . S
H267 C249 0.930 . S
H268 C252 0.930 . S
H269 C253 0.931 . S
H270 C257 0.928 . S
H271 C256 0.929 . S
H272 C254 0.932 . S
C273 C274 1.386 . S
C273 C275 1.397 . S
C273 H297 0.931 . S
C274 C273 1.386 . S
C274 C278 1.397 . S
C275 C273 1.397 . S
C275 C276 1.384 . S
C275 H298 0.930 . S
C276 C275 1.384 . S
C276 C277 1.377 . S
C276 C279 1.481 . S
C277 C276 1.377 . S
C277 C278 1.389 . S
C277 H299 0.929 . S
C278 C274 1.397 . S
C278 C277 1.389 . S
C278 H300 0.931 . S
C279 C276 1.481 . S
C279 C280 1.387 . S
C279 C284 1.390 . S
C280 C279 1.387 . S
C280 C281 1.401 . S
C280 H301 0.930 . S
C281 C280 1.401 . S
C281 C282 1.376 . S
C281 C290 1.511 . S
C282 C281 1.376 . S
C282 C283 1.392 . S
C282 H303 0.931 . S
C283 C282 1.392 . S
C283 C284 1.361 . S
C283 C285 1.500 . S
C284 C279 1.390 . S
C284 C283 1.361 . S
C284 H302 0.931 . S
C285 C283 1.500 . S
C285 C286 1.371 . S
C285 C287 1.365 . S
C286 C285 1.371 . S
C286 C296 1.386 . S
C286 H304 0.931 . S
C287 C285 1.365 . S
C287 C288 1.409 . S
C287 H305 0.929 . S
C288 C287 1.409 . S
C288 C289 1.380 . S
C288 H306 0.930 . S
C289 C288 1.380 . S
C289 C296 1.357 . S
C290 C281 1.511 . S
C290 C291 1.341 . S
C290 C292 1.371 . S
C291 C290 1.341 . S
C291 C295 1.394 . S
C291 H307 0.930 . S
C292 C290 1.371 . S
C292 C293 1.392 . S
C292 H308 0.931 . S
C293 C292 1.392 . S
C293 C294 1.331 . S
C293 H311 0.932 . S
C294 C293 1.331 . S
C294 C295 1.336 . S
C295 C291 1.394 . S
C295 C294 1.336 . S
C295 H310 0.929 . S
C296 C286 1.386 . S
C296 C289 1.357 . S
C296 H309 0.928 . S
H297 C273 0.931 . S
H298 C275 0.930 . S
H299 C277 0.929 . S
H300 C278 0.931 . S
H301 C280 0.930 . S
H302 C284 0.931 . S
H303 C282 0.931 . S
H304 C286 0.931 . S
H305 C287 0.929 . S
H306 C288 0.930 . S
H307 C291 0.930 . S
H308 C292 0.931 . S
H309 C296 0.928 . S
H310 C295 0.929 . S
H311 C293 0.932 . S
Dy312 O315 2.307 1_545 S
Dy312 O317 2.395 1_655 S
Dy312 O318 2.379 . S
Dy312 O320 2.339 . S
Dy312 O322 2.298 . S
Dy312 O326 2.275 1_655 S
Dy312 C334 2.738 . S
Dy313 O316 2.298 . S
Dy313 O319 2.275 1_455 S
Dy313 O321 2.307 1_565 S
Dy313 O323 2.383 1_455 S
Dy313 O324 2.379 . S
Dy313 O327 2.339 . S
Dy313 C343 2.738 . S
C314 O326 1.254 1_565 S
C314 O327 1.257 . S
O315 Dy312 2.307 1_565 S
O315 C325 1.266 . S
O316 Dy313 2.298 . S
O316 C325 1.236 1_455 S
O317 Dy312 2.395 1_455 S
O317 C334 1.255 1_455 S
O318 Dy312 2.379 . S
O318 C334 1.249 . S
O319 Dy313 2.275 1_655 S
O319 C335 1.254 1_565 S
O320 Dy312 2.339 . S
O320 C335 1.257 . S
O321 Dy313 2.307 1_545 S
O321 C336 1.266 . S
O322 Dy312 2.298 . S
O322 C336 1.236 1_655 S
O323 Dy313 2.383 1_655 S
O323 C343 1.232 1_655 S
O324 Dy313 2.379 . S
O324 C343 1.249 . S
C325 O315 1.266 . S
C325 O316 1.236 1_655 S
O326 Dy312 2.275 1_455 S
O326 C314 1.254 1_545 S
O327 Dy313 2.339 . S
O327 C314 1.257 . S
C328 C331 1.344 1_655 S
C328 C332 1.328 . S
C328 C334 1.516 . S
C329 C330 1.304 1_655 S
C329 C333 1.323 . S
C330 C329 1.304 1_455 S
C330 C331 1.371 . S
C330 H344 0.930 . S
C331 C328 1.344 1_455 S
C331 C330 1.371 . S
C331 H345 0.931 . S
C332 C328 1.328 . S
C332 C333 1.433 . S
C332 H346 0.931 . S
C333 C329 1.323 . S
C333 C332 1.433 . S
C333 H347 0.933 . S
C334 Dy312 2.738 . S
C334 O317 1.255 1_655 S
C334 O318 1.249 . S
C334 C328 1.516 . S
C335 O319 1.254 1_545 S
C335 O320 1.257 . S
C336 O321 1.266 . S
C336 O322 1.236 1_455 S
C337 C340 1.361 . S
C337 C341 1.328 . S
C337 C343 1.516 . S
C338 C339 1.304 . S
C338 C342 1.323 . S
C339 C338 1.304 . S
C339 C340 1.372 . S
C339 H348 0.930 1_455 S
C340 C337 1.361 . S
C340 C339 1.372 . S
C340 H349 0.913 1_455 S
C341 C337 1.328 . S
C341 C342 1.433 . S
C341 H350 0.931 . S
C342 C338 1.323 . S
C342 C341 1.433 . S
C342 H351 0.933 . S
C343 Dy313 2.738 . S
C343 O323 1.232 1_455 S
C343 O324 1.249 . S
C343 C337 1.516 . S
H344 C330 0.930 . S
H345 C331 0.931 . S
H346 C332 0.931 . S
H347 C333 0.933 . S
H348 C339 0.930 1_655 S
H349 C340 0.913 1_655 S
H350 C341 0.931 . S
H351 C342 0.933 . S
Dy352 O355 2.307 . S
Dy352 O357 2.395 1_565 S
Dy352 O358 2.379 . S
Dy352 O360 2.339 . S
Dy352 O362 2.298 . S
Dy352 O366 2.275 1_565 S
Dy352 C374 2.738 . S
Dy353 O356 2.298 . S
Dy353 O359 2.275 1_545 S
Dy353 O361 2.307 . S
Dy353 O363 2.395 1_545 S
Dy353 O364 2.379 . S
Dy353 O367 2.339 . S
Dy353 C383 2.738 . S
C354 O366 1.254 . S
C354 O367 1.257 . S
O355 Dy352 2.307 . S
O355 C365 1.266 . S
O356 Dy353 2.298 . S
O356 C365 1.236 1_545 S
O357 Dy352 2.395 1_545 S
O357 C374 1.255 1_545 S
O358 Dy352 2.379 . S
O358 C374 1.249 . S
O359 Dy353 2.275 1_565 S
O359 C375 1.254 . S
O360 Dy352 2.339 . S
O360 C375 1.257 . S
O361 Dy353 2.307 . S
O361 C376 1.266 . S
O362 Dy352 2.298 . S
O362 C376 1.236 1_565 S
O363 Dy353 2.395 1_565 S
O363 C383 1.255 1_565 S
O364 Dy353 2.379 . S
O364 C383 1.249 . S
C365 O355 1.266 . S
C365 O356 1.236 1_565 S
O366 Dy352 2.275 1_545 S
O366 C354 1.254 . S
O367 Dy353 2.339 . S
O367 C354 1.257 . S
C368 C371 1.324 1_565 S
C368 C372 1.328 . S
C368 C374 1.516 . S
C369 C370 1.348 . S
C369 C373 1.323 . S
C370 C369 1.348 . S
C370 C371 1.363 1_565 S
C370 H384 0.892 1_565 S
C371 C368 1.324 1_545 S
C371 C370 1.363 1_545 S
C371 H385 0.955 . S
C372 C368 1.328 . S
C372 C373 1.433 . S
C372 H386 0.931 . S
C373 C369 1.323 . S
C373 C372 1.433 . S
C373 H387 0.933 . S
C374 Dy352 2.738 . S
C374 O357 1.255 1_565 S
C374 O358 1.249 . S
C374 C368 1.516 . S
C375 O359 1.254 . S
C375 O360 1.257 . S
C376 O361 1.266 . S
C376 O362 1.236 1_545 S
C377 C380 1.333 1_545 S
C377 C381 1.328 . S
C377 C383 1.516 . S
C378 C379 1.304 . S
C378 C382 1.323 . S
C379 C378 1.304 . S
C379 C380 1.369 1_545 S
C379 H388 0.930 1_545 S
C380 C377 1.333 1_565 S
C380 C379 1.369 1_565 S
C380 H389 0.944 . S
C381 C377 1.328 . S
C381 C382 1.433 . S
C381 H390 0.931 . S
C382 C378 1.323 . S
C382 C381 1.433 . S
C382 H391 0.933 . S
C383 Dy353 2.738 . S
C383 O363 1.255 1_545 S
C383 O364 1.249 . S
C383 C377 1.516 . S
H384 C370 0.892 1_545 S
H385 C371 0.955 . S
H386 C372 0.931 . S
H387 C373 0.933 . S
H388 C379 0.930 1_565 S
H389 C380 0.944 . S
H390 C381 0.931 . S
H391 C382 0.933 . S
Dy392 O395 2.307 . S
Dy392 O397 2.395 . S
Dy392 O398 2.379 . S
Dy392 O400 2.339 . S
Dy392 O402 2.298 . S
Dy392 O406 2.275 . S
Dy392 C414 2.738 . S
Dy393 O396 2.298 . S
Dy393 O399 2.275 . S
Dy393 O401 2.307 . S
Dy393 O403 2.395 . S
Dy393 O404 2.379 . S
Dy393 O407 2.339 . S
Dy393 C423 2.738 . S
C394 O406 1.254 . S
C394 O407 1.257 . S
O395 Dy392 2.307 . S
O395 C405 1.266 . S
O396 Dy393 2.298 . S
O396 C405 1.236 . S
O397 Dy392 2.395 . S
O397 C414 1.255 . S
O398 Dy392 2.379 . S
O398 C414 1.249 . S
O399 Dy393 2.275 . S
O399 C415 1.254 . S
O400 Dy392 2.339 . S
O400 C415 1.257 . S
O401 Dy393 2.307 . S
O401 C416 1.266 . S
O402 Dy392 2.298 . S
O402 C416 1.236 . S
O403 Dy393 2.395 . S
O403 C423 1.255 . S
O404 Dy393 2.379 . S
O404 C423 1.249 . S
C405 O395 1.266 . S
C405 O396 1.236 . S
O406 Dy392 2.275 . S
O406 C394 1.254 . S
O407 Dy393 2.339 . S
O407 C394 1.257 . S
C408 C411 1.344 . S
C408 C412 1.328 . S
C408 C414 1.516 . S
C409 C410 1.304 . S
C409 C413 1.323 . S
C410 C409 1.304 . S
C410 C411 1.371 . S
C410 H424 0.930 . S
C411 C408 1.344 . S
C411 C410 1.371 . S
C411 H425 0.931 . S
C412 C408 1.328 . S
C412 C413 1.433 . S
C412 H426 0.931 . S
C413 C409 1.323 . S
C413 C412 1.433 . S
C413 H427 0.933 . S
C414 Dy392 2.738 . S
C414 O397 1.255 . S
C414 O398 1.249 . S
C414 C408 1.516 . S
C415 O399 1.254 . S
C415 O400 1.257 . S
C416 O401 1.266 . S
C416 O402 1.236 . S
C417 C420 1.344 . S
C417 C421 1.328 . S
C417 C423 1.516 . S
C418 C419 1.304 . S
C418 C422 1.323 . S
C419 C418 1.304 . S
C419 C420 1.371 . S
C419 H428 0.930 . S
C420 C417 1.344 . S
C420 C419 1.371 . S
C420 H429 0.931 . S
C421 C417 1.328 . S
C421 C422 1.433 . S
C421 H430 0.931 . S
C422 C418 1.323 . S
C422 C421 1.433 . S
C422 H431 0.933 . S
C423 Dy393 2.738 . S
C423 O403 1.255 . S
C423 O404 1.249 . S
C423 C417 1.516 . S
H424 C410 0.930 . S
H425 C411 0.931 . S
H426 C412 0.931 . S
H427 C413 0.933 . S
H428 C419 0.930 . S
H429 C420 0.931 . S
H430 C421 0.931 . S
H431 C422 0.933 . S
Dy432 O435 2.307 1_455 S
Dy432 O437 2.395 . S
Dy432 O438 2.379 . S
Dy432 O440 2.339 . S
Dy432 O442 2.298 . S
Dy432 O446 2.275 . S
Dy432 C454 2.738 . S
Dy433 O436 2.298 . S
Dy433 O439 2.275 . S
Dy433 O441 2.307 1_655 S
Dy433 O443 2.395 . S
Dy433 O444 2.379 . S
Dy433 O447 2.339 . S
Dy433 C463 2.738 . S
C434 O446 1.275 . S
C434 O447 1.232 1_455 S
O435 Dy432 2.307 1_655 S
O435 C445 1.266 . S
O436 Dy433 2.298 . S
O436 C445 1.236 . S
O437 Dy432 2.395 . S
O437 C454 1.255 . S
O438 Dy432 2.379 . S
O438 C454 1.249 . S
O439 Dy433 2.275 . S
O439 C455 1.254 1_655 S
O440 Dy432 2.339 . S
O440 C455 1.257 . S
O441 Dy433 2.307 1_455 S
O441 C456 1.266 . S
O442 Dy432 2.298 . S
O442 C456 1.236 . S
O443 Dy433 2.395 . S
O443 C463 1.255 . S
O444 Dy433 2.379 . S
O444 C463 1.249 . S
C445 O435 1.266 . S
C445 O436 1.236 . S
O446 Dy432 2.275 . S
O446 C434 1.275 . S
O447 Dy433 2.339 . S
O447 C434 1.232 1_655 S
C448 C451 1.344 . S
C448 C452 1.328 . S
C448 C454 1.516 . S
C449 C450 1.304 . S
C449 C453 1.323 . S
C450 C449 1.304 . S
C450 C451 1.371 . S
C450 H464 0.930 . S
C451 C448 1.344 . S
C451 C450 1.371 . S
C451 H465 0.931 . S
C452 C448 1.328 . S
C452 C453 1.433 . S
C452 H466 0.931 . S
C453 C449 1.323 . S
C453 C452 1.433 . S
C453 H467 0.933 . S
C454 Dy432 2.738 . S
C454 O437 1.255 . S
C454 O438 1.249 . S
C454 C448 1.516 . S
C455 O439 1.254 1_455 S
C455 O440 1.257 . S
C456 O441 1.266 . S
C456 O442 1.236 . S
C457 C460 1.344 . S
C457 C461 1.328 . S
C457 C463 1.516 . S
C458 C459 1.304 . S
C458 C462 1.323 . S
C459 C458 1.304 . S
C459 C460 1.371 . S
C459 H468 0.930 1_556 S
C460 C457 1.344 . S
C460 C459 1.371 . S
C460 H469 0.931 . S
C461 C457 1.328 . S
C461 C462 1.433 . S
C461 H470 0.931 . S
C462 C458 1.323 . S
C462 C461 1.433 . S
C462 H471 0.933 . S
C463 Dy433 2.738 . S
C463 O443 1.255 . S
C463 O444 1.249 . S
C463 C457 1.516 . S
H464 C450 0.930 . S
H465 C451 0.931 . S
H466 C452 0.931 . S
H467 C453 0.933 . S
H468 C459 0.930 1_554 S
H469 C460 0.931 . S
H470 C461 0.931 . S
H471 C462 0.933 . S
H472 C480 0.950 . S
H473 C485 0.950 . S
H474 C482 0.950 . S
H475 C484 0.950 . S
H476 C486 0.950 . S
H477 C488 0.950 . S
H478 C490 0.950 . S
H479 C491 0.950 . S
C480 H472 0.950 . S
C480 C481 1.375 1_565 S
C480 C482 1.391 . S
C481 C480 1.375 1_545 S
C481 C485 1.403 . S
C482 H474 0.950 . S
C482 C480 1.391 . S
C482 C483 1.388 1_565 S
C483 C482 1.388 1_545 S
C483 C484 1.412 . S
C483 C489 1.490 . S
C484 H475 0.950 . S
C484 C483 1.412 . S
C484 C485 1.391 . S
C485 H473 0.950 . S
C485 C481 1.403 . S
C485 C484 1.391 . S
C486 H476 0.950 . S
C486 C487 1.398 . S
C486 C488 1.391 . S
C487 C486 1.398 . S
C487 C491 1.381 1_545 S
C488 H477 0.950 . S
C488 C486 1.391 . S
C488 C489 1.410 . S
C489 C483 1.490 . S
C489 C488 1.410 . S
C489 C490 1.388 1_545 S
C490 H478 0.950 . S
C490 C489 1.388 1_565 S
C490 C491 1.391 . S
C491 H479 0.950 . S
C491 C487 1.381 1_565 S
C491 C490 1.391 . S
H492 C500 0.950 . S
H493 C505 0.950 . S
H494 C502 0.950 . S
H495 C504 0.950 . S
H496 C506 0.950 . S
H497 C508 0.950 . S
H498 C510 0.950 . S
H499 C511 0.950 . S
C500 H492 0.950 . S
C500 C501 1.386 . S
C500 C502 1.391 . S
C501 C500 1.386 . S
C501 C505 1.393 . S
C502 H494 0.950 . S
C502 C500 1.391 . S
C502 C503 1.400 . S
C503 C502 1.400 . S
C503 C504 1.398 . S
C503 C509 1.491 . S
C504 H495 0.950 . S
C504 C503 1.398 . S
C504 C505 1.391 . S
C505 H493 0.950 . S
C505 C501 1.393 . S
C505 C504 1.391 . S
C506 H496 0.950 . S
C506 C507 1.386 . S
C506 C508 1.391 . S
C507 C506 1.386 . S
C507 C511 1.393 . S
C508 H497 0.950 . S
C508 C506 1.391 . S
C508 C509 1.400 . S
C509 C503 1.491 . S
C509 C508 1.400 . S
C509 C510 1.398 . S
C510 H498 0.950 . S
C510 C509 1.398 . S
C510 C511 1.391 . S
C511 H499 0.950 . S
C511 C507 1.393 . S
C511 C510 1.391 . S
H512 C520 0.950 . S
H513 C525 0.950 . S
H514 C522 0.950 . S
H515 C524 0.950 . S
H516 C526 0.950 . S
H517 C528 0.950 . S
H518 C530 0.950 . S
H519 C531 0.950 . S
C520 H512 0.950 . S
C520 C521 1.386 . S
C520 C522 1.391 . S
C521 C520 1.386 . S
C521 C525 1.393 . S
C522 H514 0.950 . S
C522 C520 1.391 . S
C522 C523 1.400 . S
C523 C522 1.400 . S
C523 C524 1.398 . S
C523 C529 1.491 . S
C524 H515 0.950 . S
C524 C523 1.398 . S
C524 C525 1.391 . S
C525 H513 0.950 . S
C525 C521 1.393 . S
C525 C524 1.391 . S
C526 H516 0.950 . S
C526 C527 1.386 . S
C526 C528 1.391 . S
C527 C526 1.386 . S
C527 C531 1.393 . S
C528 H517 0.950 . S
C528 C526 1.391 . S
C528 C529 1.400 . S
C529 C523 1.491 . S
C529 C528 1.400 . S
C529 C530 1.398 . S
C530 H518 0.950 . S
C530 C529 1.398 . S
C530 C531 1.391 . S
C531 H519 0.950 . S
C531 C527 1.393 . S
C531 C530 1.391 . S
H532 C540 0.968 . S
H533 C545 0.950 . S
H534 C542 0.950 1_655 S
H535 C544 0.950 . S
H536 C546 0.950 . S
H537 C548 0.950 . S
H538 C550 0.955 . S
H539 C551 0.950 . S
C540 H532 0.968 . S
C540 C541 1.386 . S
C540 C542 1.391 . S
C541 C540 1.386 . S
C541 C545 1.393 . S
C542 H534 0.950 1_455 S
C542 C540 1.391 . S
C542 C543 1.400 . S
C543 C542 1.400 . S
C543 C544 1.398 . S
C543 C549 1.491 . S
C544 H535 0.950 . S
C544 C543 1.398 . S
C544 C545 1.391 . S
C545 H533 0.950 . S
C545 C541 1.393 . S
C545 C544 1.391 . S
C546 H536 0.950 . S
C546 C547 1.386 . S
C546 C548 1.391 . S
C547 C546 1.386 . S
C547 C551 1.393 1_455 S
C548 H537 0.950 . S
C548 C546 1.391 . S
C548 C549 1.400 . S
C549 C543 1.491 . S
C549 C548 1.400 . S
C549 C550 1.395 1_455 S
C550 H538 0.955 . S
C550 C549 1.395 1_655 S
C550 C551 1.389 . S
C551 H539 0.950 . S
C551 C547 1.393 1_655 S
C551 C550 1.389 . S
H552 C560 0.950 . S
H553 C565 0.950 . S
H554 C562 0.950 . S
H555 C564 0.950 1_556 S
H556 C566 0.950 . S
H557 C568 0.950 . S
H558 C570 0.950 1_554 S
H559 C571 0.950 . S
C560 H552 0.950 . S
C560 C561 1.397 . S
C560 C562 1.391 . S
C561 C560 1.397 . S
C561 C565 1.380 1_565 S
C562 H554 0.950 . S
C562 C560 1.391 . S
C562 C563 1.409 . S
C563 C562 1.409 . S
C563 C564 1.392 1_565 S
C563 C569 1.488 1_564 S
C564 H555 0.950 1_554 S
C564 C563 1.392 1_545 S
C564 C565 1.391 . S
C565 H553 0.950 . S
C565 C561 1.380 1_545 S
C565 C564 1.391 . S
C566 H556 0.950 . S
C566 C567 1.392 . S
C566 C568 1.391 . S
C567 C566 1.392 . S
C567 C571 1.385 1_545 S
C568 H557 0.950 . S
C568 C566 1.391 . S
C568 C569 1.403 . S
C569 C563 1.488 1_546 S
C569 C568 1.403 . S
C569 C570 1.396 1_545 S
C570 H558 0.950 1_556 S
C570 C569 1.396 1_565 S
C570 C571 1.391 . S
C571 H559 0.950 . S
C571 C567 1.385 1_565 S
C571 C570 1.391 . S
H572 C580 0.950 . S
H573 C585 0.950 . S
H574 C582 0.950 . S
H575 C584 0.950 . S
H576 C586 0.950 . S
H577 C588 0.950 . S
H578 C590 0.950 . S
H579 C591 0.950 . S
C580 H572 0.950 . S
C580 C581 1.386 1_556 S
C580 C582 1.391 . S
C581 C580 1.386 1_554 S
C581 C585 1.393 . S
C582 H574 0.950 . S
C582 C580 1.391 . S
C582 C583 1.400 . S
C583 C582 1.400 . S
C583 C584 1.398 . S
C583 C589 1.491 . S
C584 H575 0.950 . S
C584 C583 1.398 . S
C584 C585 1.391 1_556 S
C585 H573 0.950 . S
C585 C581 1.393 . S
C585 C584 1.391 1_554 S
C586 H576 0.950 . S
C586 C587 1.386 . S
C586 C588 1.391 . S
C587 C586 1.386 . S
C587 C591 1.393 . S
C588 H577 0.950 . S
C588 C586 1.391 . S
C588 C589 1.400 . S
C589 C583 1.491 . S
C589 C588 1.400 . S
C589 C590 1.398 . S
C590 H578 0.950 . S
C590 C589 1.398 . S
C590 C591 1.391 . S
C591 H579 0.950 . S
C591 C587 1.393 . S
C591 C590 1.391 . S
H592 C600 0.950 . S
H593 C605 0.950 . S
H594 C602 0.950 . S
H595 C604 0.950 . S
H596 C606 0.950 . S
H597 C608 0.950 . S
H598 C610 0.950 . S
H599 C611 0.950 1_556 S
C600 H592 0.950 . S
C600 C601 1.386 . S
C600 C602 1.391 . S
C601 C600 1.386 . S
C601 C605 1.393 . S
C602 H594 0.950 . S
C602 C600 1.391 . S
C602 C603 1.400 . S
C603 C602 1.400 . S
C603 C604 1.398 . S
C603 C609 1.491 . S
C604 H595 0.950 . S
C604 C603 1.398 . S
C604 C605 1.391 . S
C605 H593 0.950 . S
C605 C601 1.393 . S
C605 C604 1.391 . S
C606 H596 0.950 . S
C606 C607 1.386 . S
C606 C608 1.391 . S
C607 C606 1.386 . S
C607 C611 1.393 . S
C608 H597 0.950 . S
C608 C606 1.391 . S
C608 C609 1.400 . S
C609 C603 1.491 . S
C609 C608 1.400 . S
C609 C610 1.398 . S
C610 H598 0.950 . S
C610 C609 1.398 . S
C610 C611 1.391 . S
C611 H599 0.950 1_554 S
C611 C607 1.393 . S
C611 C610 1.391 . S
H612 C620 0.950 . S
H613 C625 0.950 . S
H614 C622 0.950 . S
H615 C624 0.950 . S
H616 C626 0.950 . S
H617 C628 0.950 1_554 S
H618 C630 0.950 . S
H619 C631 0.950 . S
C620 H612 0.950 . S
C620 C621 1.386 1_455 S
C620 C622 1.391 . S
C621 C620 1.386 1_655 S
C621 C625 1.393 . S
C622 H614 0.950 . S
C622 C620 1.391 . S
C622 C623 1.400 1_455 S
C623 C622 1.400 1_655 S
C623 C624 1.398 . S
C623 C629 1.491 . S
C624 H615 0.950 . S
C624 C623 1.398 . S
C624 C625 1.391 . S
C625 H613 0.950 . S
C625 C621 1.393 . S
C625 C624 1.391 . S
C626 H616 0.950 . S
C626 C627 1.386 . S
C626 C628 1.391 . S
C627 C626 1.386 . S
C627 C631 1.393 1_655 S
C628 H617 0.950 1_556 S
C628 C626 1.391 . S
C628 C629 1.400 1_556 S
C629 C623 1.491 . S
C629 C628 1.400 1_554 S
C629 C630 1.398 1_654 S
C630 H618 0.950 . S
C630 C629 1.398 1_456 S
C630 C631 1.391 . S
C631 H619 0.950 . S
C631 C627 1.393 1_455 S
C631 C630 1.391 . S
H632 C640 0.950 . S
H633 C645 0.950 . S
H634 C642 0.950 . S
H635 C644 0.950 . S
H636 C646 0.979 . S
H637 C648 0.950 . S
H638 C650 0.950 . S
H639 C651 0.950 . S
C640 H632 0.950 . S
C640 C641 1.386 1_655 S
C640 C642 1.391 . S
C641 C640 1.386 1_455 S
C641 C645 1.393 . S
C642 H634 0.950 . S
C642 C640 1.391 . S
C642 C643 1.368 1_655 S
C643 C642 1.368 1_455 S
C643 C644 1.448 . S
C643 C649 1.475 1_455 S
C644 H635 0.950 . S
C644 C643 1.448 . S
C644 C645 1.391 . S
C645 H633 0.950 . S
C645 C641 1.393 . S
C645 C644 1.391 . S
C646 H636 0.979 . S
C646 C647 1.342 1_455 S
C646 C648 1.406 . S
C647 C646 1.342 1_655 S
C647 C651 1.393 . S
C648 H637 0.950 . S
C648 C646 1.406 . S
C648 C649 1.400 1_455 S
C649 C643 1.475 1_655 S
C649 C648 1.400 1_655 S
C649 C650 1.398 . S
C650 H638 0.950 . S
C650 C649 1.398 . S
C650 C651 1.391 . S
C651 H639 0.950 . S
C651 C647 1.393 . S
C651 C650 1.391 . S
H652 C660 0.950 . S
H653 C665 0.950 . S
H654 C662 0.950 . S
H655 C664 0.950 . S
H656 C666 0.950 1_545 S
H657 C668 0.950 1_545 S
H658 C670 0.950 . S
H659 C671 0.950 . S
C660 H652 0.950 . S
C660 C661 1.372 1_565 S
C660 C662 1.391 . S
C661 C660 1.372 1_545 S
C661 C665 1.404 . S
C662 H654 0.950 . S
C662 C660 1.391 . S
C662 C663 1.400 . S
C663 C662 1.400 . S
C663 C664 1.398 1_565 S
C663 C669 1.491 . S
C664 H655 0.950 . S
C664 C663 1.398 1_545 S
C664 C665 1.391 . S
C665 H653 0.950 . S
C665 C661 1.404 . S
C665 C664 1.391 . S
C666 H656 0.950 1_565 S
C666 C667 1.386 . S
C666 C668 1.391 . S
C667 C666 1.386 . S
C667 C671 1.393 . S
C668 H657 0.950 1_565 S
C668 C666 1.391 . S
C668 C669 1.400 . S
C669 C663 1.491 . S
C669 C668 1.400 . S
C669 C670 1.398 . S
C670 H658 0.950 . S
C670 C669 1.398 . S
C670 C671 1.391 . S
C671 H659 0.950 . S
C671 C667 1.393 . S
C671 C670 1.391 . S
H672 C680 0.950 . S
H673 C685 0.950 . S
H674 C682 0.950 . S
H675 C684 0.950 . S
H676 C686 0.950 . S
H677 C688 0.950 . S
H678 C690 0.950 . S
H679 C691 0.950 . S
C680 H672 0.950 . S
C680 C681 1.386 . S
C680 C682 1.391 . S
C681 C680 1.386 . S
C681 C685 1.393 . S
C682 H674 0.950 . S
C682 C680 1.391 . S
C682 C683 1.400 . S
C683 C682 1.400 . S
C683 C684 1.398 . S
C683 C689 1.491 . S
C684 H675 0.950 . S
C684 C683 1.398 . S
C684 C685 1.391 . S
C685 H673 0.950 . S
C685 C681 1.393 . S
C685 C684 1.391 . S
C686 H676 0.950 . S
C686 C687 1.386 . S
C686 C688 1.391 . S
C687 C686 1.386 . S
C687 C691 1.393 . S
C688 H677 0.950 . S
C688 C686 1.391 . S
C688 C689 1.400 . S
C689 C683 1.491 . S
C689 C688 1.400 . S
C689 C690 1.398 . S
C690 H678 0.950 . S
C690 C689 1.398 . S
C690 C691 1.391 . S
C691 H679 0.950 . S
C691 C687 1.393 . S
C691 C690 1.391 . S
H692 C700 0.950 . S
H693 C705 0.950 . S
H694 C702 0.950 . S
H695 C704 0.950 . S
H696 C706 0.950 . S
H697 C708 0.950 . S
H698 C710 0.950 . S
H699 C711 0.950 . S
C700 H692 0.950 . S
C700 C701 1.386 . S
C700 C702 1.391 . S
C701 C700 1.386 . S
C701 C705 1.393 . S
C702 H694 0.950 . S
C702 C700 1.391 . S
C702 C703 1.400 . S
C703 C702 1.400 . S
C703 C704 1.398 . S
C703 C709 1.491 . S
C704 H695 0.950 . S
C704 C703 1.398 . S
C704 C705 1.391 . S
C705 H693 0.950 . S
C705 C701 1.393 . S
C705 C704 1.391 . S
C706 H696 0.950 . S
C706 C707 1.386 . S
C706 C708 1.391 . S
C707 C706 1.386 . S
C707 C711 1.393 . S
C708 H697 0.950 . S
C708 C706 1.391 . S
C708 C709 1.400 . S
C709 C703 1.491 . S
C709 C708 1.400 . S
C709 C710 1.398 . S
C710 H698 0.950 . S
C710 C709 1.398 . S
C710 C711 1.391 . S
C711 H699 0.950 . S
C711 C707 1.393 . S
C711 C710 1.391 . S
H712 C720 0.950 . S
H713 C725 0.950 1_455 S
H714 C722 0.950 . S
H715 C724 0.950 . S
H716 C726 0.950 . S
H717 C728 0.950 . S
H718 C730 0.949 1_655 S
H719 C731 0.950 . S
C720 H712 0.950 . S
C720 C721 1.386 . S
C720 C722 1.391 . S
C721 C720 1.386 . S
C721 C725 1.394 . S
C722 H714 0.950 . S
C722 C720 1.391 . S
C722 C723 1.400 1_655 S
C723 C722 1.400 1_455 S
C723 C724 1.398 . S
C723 C729 1.491 . S
C724 H715 0.950 . S
C724 C723 1.398 . S
C724 C725 1.390 1_455 S
C725 H713 0.950 1_655 S
C725 C721 1.394 . S
C725 C724 1.390 1_655 S
C726 H716 0.950 . S
C726 C727 1.386 . S
C726 C728 1.391 . S
C727 C726 1.386 . S
C727 C731 1.393 1_556 S
C728 H717 0.950 . S
C728 C726 1.391 . S
C728 C729 1.400 1_556 S
C729 C723 1.491 . S
C729 C728 1.400 1_554 S
C729 C730 1.398 . S
C730 H718 0.949 1_455 S
C730 C729 1.398 . S
C730 C731 1.391 . S
C731 H719 0.950 . S
C731 C727 1.393 1_554 S
C731 C730 1.391 . S
H732 C740 0.950 . S
H733 C745 0.950 1_556 S
H734 C742 0.940 1_565 S
H735 C744 0.950 . S
H736 C746 0.950 . S
H737 C748 0.950 . S
H738 C750 0.950 . S
H739 C751 0.950 . S
C740 H732 0.950 . S
C740 C741 1.386 1_565 S
C740 C742 1.387 1_565 S
C741 C740 1.386 1_545 S
C741 C745 1.392 . S
C742 H734 0.940 1_545 S
C742 C740 1.387 1_545 S
C742 C743 1.416 . S
C743 C742 1.416 . S
C743 C744 1.398 1_554 S
C743 C749 1.491 1_554 S
C744 H735 0.950 . S
C744 C743 1.398 1_556 S
C744 C745 1.391 1_556 S
C745 H733 0.950 1_554 S
C745 C741 1.392 . S
C745 C744 1.391 1_554 S
C746 H736 0.950 . S
C746 C747 1.386 . S
C746 C748 1.391 . S
C747 C746 1.386 . S
C747 C751 1.393 1_556 S
C748 H737 0.950 . S
C748 C746 1.391 . S
C748 C749 1.400 . S
C749 C743 1.491 1_556 S
C749 C748 1.400 . S
C749 C750 1.398 1_556 S
C750 H738 0.950 . S
C750 C749 1.398 1_554 S
C750 C751 1.391 . S
C751 H739 0.950 . S
C751 C747 1.393 1_554 S
C751 C750 1.391 . S
H752 C760 0.950 . S
H753 C765 0.950 . S
H754 C762 0.950 . S
H755 C764 0.950 . S
H756 C766 0.950 . S
H757 C768 0.950 . S
H758 C770 0.950 . S
H759 C771 0.950 . S
C760 H752 0.950 . S
C760 C761 1.386 . S
C760 C762 1.391 . S
C761 C760 1.386 . S
C761 C765 1.393 . S
C762 H754 0.950 . S
C762 C760 1.391 . S
C762 C763 1.400 . S
C763 C762 1.400 . S
C763 C764 1.398 . S
C763 C769 1.491 . S
C764 H755 0.950 . S
C764 C763 1.398 . S
C764 C765 1.391 . S
C765 H753 0.950 . S
C765 C761 1.393 . S
C765 C764 1.391 . S
C766 H756 0.950 . S
C766 C767 1.386 . S
C766 C768 1.391 . S
C767 C766 1.386 . S
C767 C771 1.393 . S
C768 H757 0.950 . S
C768 C766 1.391 . S
C768 C769 1.400 . S
C769 C763 1.491 . S
C769 C768 1.400 . S
C769 C770 1.398 . S
C770 H758 0.950 . S
C770 C769 1.398 . S
C770 C771 1.391 . S
C771 H759 0.950 . S
C771 C767 1.393 . S
C771 C770 1.391 . S
H772 C780 0.950 . S
H773 C785 0.950 . S
H774 C782 0.950 . S
H775 C784 0.950 . S
H776 C786 0.950 . S
H777 C788 0.950 . S
H778 C790 0.950 . S
H779 C791 0.950 . S
C780 H772 0.950 . S
C780 C781 1.386 . S
C780 C782 1.391 . S
C781 C780 1.386 . S
C781 C785 1.393 . S
C782 H774 0.950 . S
C782 C780 1.391 . S
C782 C783 1.400 . S
C783 C782 1.400 . S
C783 C784 1.398 . S
C783 C789 1.491 . S
C784 H775 0.950 . S
C784 C783 1.398 . S
C784 C785 1.391 . S
C785 H773 0.950 . S
C785 C781 1.393 . S
C785 C784 1.391 . S
C786 H776 0.950 . S
C786 C787 1.386 . S
C786 C788 1.391 . S
C787 C786 1.386 . S
C787 C791 1.393 . S
C788 H777 0.950 . S
C788 C786 1.391 . S
C788 C789 1.400 . S
C789 C783 1.491 . S
C789 C788 1.400 . S
C789 C790 1.398 . S
C790 H778 0.950 . S
C790 C789 1.398 . S
C790 C791 1.391 . S
C791 H779 0.950 . S
C791 C787 1.393 . S
C791 C790 1.391 . S
H792 C800 0.950 . S
H793 C805 0.950 1_655 S
H794 C802 0.950 . S
H795 C804 0.950 1_655 S
H796 C806 0.950 1_655 S
H797 C808 0.950 1_655 S
H798 C810 0.950 . S
H799 C811 0.950 . S
C800 H792 0.950 . S
C800 C801 1.386 . S
C800 C802 1.391 . S
C801 C800 1.386 . S
C801 C805 1.393 . S
C802 H794 0.950 . S
C802 C800 1.391 . S
C802 C803 1.400 . S
C803 C802 1.400 . S
C803 C804 1.398 . S
C803 C809 1.491 . S
C804 H795 0.950 1_455 S
C804 C803 1.398 . S
C804 C805 1.391 . S
C805 H793 0.950 1_455 S
C805 C801 1.393 . S
C805 C804 1.391 . S
C806 H796 0.950 1_455 S
C806 C807 1.386 . S
C806 C808 1.391 . S
C807 C806 1.386 . S
C807 C811 1.393 . S
C808 H797 0.950 1_455 S
C808 C806 1.391 . S
C808 C809 1.400 . S
C809 C803 1.491 . S
C809 C808 1.400 . S
C809 C810 1.398 . S
C810 H798 0.950 . S
C810 C809 1.398 . S
C810 C811 1.391 . S
C811 H799 0.950 . S
C811 C807 1.393 . S
C811 C810 1.391 . S
H812 C820 0.950 . S
H813 C825 0.950 . S
H814 C822 0.950 . S
H815 C824 0.950 . S
H816 C826 0.950 . S
H817 C828 0.950 . S
H818 C830 0.950 . S
H819 C831 0.950 . S
C820 H812 0.950 . S
C820 C821 1.386 1_565 S
C820 C822 1.391 . S
C821 C820 1.386 1_545 S
C821 C825 1.393 . S
C822 H814 0.950 . S
C822 C820 1.391 . S
C822 C823 1.400 1_565 S
C823 C822 1.400 1_545 S
C823 C824 1.398 . S
C823 C829 1.491 . S
C824 H815 0.950 . S
C824 C823 1.398 . S
C824 C825 1.391 . S
C825 H813 0.950 . S
C825 C821 1.393 . S
C825 C824 1.391 . S
C826 H816 0.950 . S
C826 C827 1.386 . S
C826 C828 1.391 . S
C827 C826 1.386 . S
C827 C831 1.393 1_545 S
C828 H817 0.950 . S
C828 C826 1.391 . S
C828 C829 1.400 . S
C829 C823 1.491 . S
C829 C828 1.400 . S
C829 C830 1.398 1_545 S
C830 H818 0.950 . S
C830 C829 1.398 1_565 S
C830 C831 1.391 . S
C831 H819 0.950 . S
C831 C827 1.393 1_565 S
C831 C830 1.391 . S
H832 C840 0.950 . S
H833 C845 0.950 . S
H834 C842 0.950 . S
H835 C844 0.950 . S
H836 C846 0.950 . S
H837 C848 0.950 . S
H838 C850 0.950 . S
H839 C851 0.950 . S
C840 H832 0.950 . S
C840 C841 1.386 . S
C840 C842 1.391 . S
C841 C840 1.386 . S
C841 C845 1.393 1_554 S
C842 H834 0.950 . S
C842 C840 1.391 . S
C842 C843 1.400 1_554 S
C843 C842 1.400 1_556 S
C843 C844 1.398 . S
C843 C849 1.491 . S
C844 H835 0.950 . S
C844 C843 1.398 . S
C844 C845 1.391 . S
C845 H833 0.950 . S
C845 C841 1.393 1_556 S
C845 C844 1.391 . S
C846 H836 0.950 . S
C846 C847 1.386 . S
C846 C848 1.391 . S
C847 C846 1.386 . S
C847 C851 1.393 . S
C848 H837 0.950 . S
C848 C846 1.391 . S
C848 C849 1.400 . S
C849 C843 1.491 . S
C849 C848 1.400 . S
C849 C850 1.398 . S
C850 H838 0.950 . S
C850 C849 1.398 . S
C850 C851 1.391 . S
C851 H839 0.950 . S
C851 C847 1.393 . S
C851 C850 1.391 . S
H852 C860 0.950 . S
H853 C865 0.950 . S
H854 C862 0.950 . S
H855 C864 0.950 . S
H856 C866 0.950 . S
H857 C868 0.950 . S
H858 C870 0.950 . S
H859 C871 0.950 . S
C860 H852 0.950 . S
C860 C861 1.386 . S
C860 C862 1.391 . S
C861 C860 1.386 . S
C861 C865 1.393 . S
C862 H854 0.950 . S
C862 C860 1.391 . S
C862 C863 1.400 . S
C863 C862 1.400 . S
C863 C864 1.398 . S
C863 C869 1.491 . S
C864 H855 0.950 . S
C864 C863 1.398 . S
C864 C865 1.391 . S
C865 H853 0.950 . S
C865 C861 1.393 . S
C865 C864 1.391 . S
C866 H856 0.950 . S
C866 C867 1.386 . S
C866 C868 1.391 . S
C867 C866 1.386 . S
C867 C871 1.393 . S
C868 H857 0.950 . S
C868 C866 1.391 . S
C868 C869 1.400 . S
C869 C863 1.491 . S
C869 C868 1.400 . S
C869 C870 1.398 . S
C870 H858 0.950 . S
C870 C869 1.398 . S
C870 C871 1.391 . S
C871 H859 0.950 . S
C871 C867 1.393 . S
C871 C870 1.391 . S
H872 C880 0.950 . S
H873 C885 0.950 . S
H874 C882 0.950 . S
H875 C884 0.950 . S
H876 C886 0.950 . S
H877 C888 0.950 . S
H878 C890 0.950 . S
H879 C891 0.950 . S
C880 H872 0.950 . S
C880 C881 1.386 1_455 S
C880 C882 1.391 . S
C881 C880 1.386 1_655 S
C881 C885 1.393 . S
C882 H874 0.950 . S
C882 C880 1.391 . S
C882 C883 1.400 1_455 S
C883 C882 1.400 1_655 S
C883 C884 1.398 . S
C883 C889 1.491 . S
C884 H875 0.950 . S
C884 C883 1.398 . S
C884 C885 1.391 . S
C885 H873 0.950 . S
C885 C881 1.393 . S
C885 C884 1.391 . S
C886 H876 0.950 . S
C886 C887 1.386 . S
C886 C888 1.391 . S
C887 C886 1.386 . S
C887 C891 1.393 1_655 S
C888 H877 0.950 . S
C888 C886 1.391 . S
C888 C889 1.400 . S
C889 C883 1.491 . S
C889 C888 1.400 . S
C889 C890 1.398 1_655 S
C890 H878 0.950 . S
C890 C889 1.398 1_455 S
C890 C891 1.391 . S
C891 H879 0.950 . S
C891 C887 1.393 1_455 S
C891 C890 1.391 . S
H892 C900 0.950 . S
H893 C905 0.950 . S
H894 C902 0.950 . S
H895 C904 0.950 . S
H896 C906 0.950 . S
H897 C908 0.950 . S
H898 C910 0.950 1_545 S
H899 C911 0.942 1_545 S
C900 H892 0.950 . S
C900 C901 1.380 1_545 S
C900 C902 1.391 . S
C901 C900 1.380 1_565 S
C901 C905 1.404 . S
C902 H894 0.950 . S
C902 C900 1.391 . S
C902 C903 1.400 1_545 S
C903 C902 1.400 1_565 S
C903 C904 1.398 . S
C903 C909 1.491 . S
C904 H895 0.950 . S
C904 C903 1.398 . S
C904 C905 1.391 . S
C905 H893 0.950 . S
C905 C901 1.404 . S
C905 C904 1.391 . S
C906 H896 0.950 . S
C906 C907 1.386 . S
C906 C908 1.391 . S
C907 C906 1.386 . S
C907 C911 1.410 . S
C908 H897 0.950 . S
C908 C906 1.391 . S
C908 C909 1.400 . S
C909 C903 1.491 . S
C909 C908 1.400 . S
C909 C910 1.398 . S
C910 H898 0.950 1_565 S
C910 C909 1.398 . S
C910 C911 1.385 . S
C911 H899 0.942 1_565 S
C911 C907 1.410 . S
C911 C910 1.385 . S
H912 C920 0.950 . S
H913 C925 0.950 . S
H914 C922 0.950 . S
H915 C924 0.950 . S
H916 C926 0.950 . S
H917 C928 0.950 . S
H918 C930 0.950 . S
H919 C931 0.950 . S
C920 H912 0.950 . S
C920 C921 1.386 . S
C920 C922 1.391 . S
C921 C920 1.386 . S
C921 C925 1.393 . S
C922 H914 0.950 . S
C922 C920 1.391 . S
C922 C923 1.400 . S
C923 C922 1.400 . S
C923 C924 1.398 . S
C923 C929 1.491 . S
C924 H915 0.950 . S
C924 C923 1.398 . S
C924 C925 1.391 . S
C925 H913 0.950 . S
C925 C921 1.393 . S
C925 C924 1.391 . S
C926 H916 0.950 . S
C926 C927 1.386 . S
C926 C928 1.391 . S
C927 C926 1.386 . S
C927 C931 1.393 . S
C928 H917 0.950 . S
C928 C926 1.391 . S
C928 C929 1.400 . S
C929 C923 1.491 . S
C929 C928 1.400 . S
C929 C930 1.398 . S
C930 H918 0.950 . S
C930 C929 1.398 . S
C930 C931 1.391 . S
C931 H919 0.950 . S
C931 C927 1.393 . S
C931 C930 1.391 . S
H932 C940 0.950 . S
H933 C945 0.950 . S
H934 C942 0.950 . S
H935 C944 0.950 . S
H936 C946 0.950 . S
H937 C948 0.950 . S
H938 C950 0.950 . S
H939 C951 0.950 . S
C940 H932 0.950 . S
C940 C941 1.386 . S
C940 C942 1.391 . S
C941 C940 1.386 . S
C941 C945 1.393 . S
C942 H934 0.950 . S
C942 C940 1.391 . S
C942 C943 1.400 . S
C943 C942 1.400 . S
C943 C944 1.398 . S
C943 C949 1.491 . S
C944 H935 0.950 . S
C944 C943 1.398 . S
C944 C945 1.391 . S
C945 H933 0.950 . S
C945 C941 1.393 . S
C945 C944 1.391 . S
C946 H936 0.950 . S
C946 C947 1.386 . S
C946 C948 1.391 . S
C947 C946 1.386 . S
C947 C951 1.393 . S
C948 H937 0.950 . S
C948 C946 1.391 . S
C948 C949 1.400 . S
C949 C943 1.491 . S
C949 C948 1.400 . S
C949 C950 1.398 . S
C950 H938 0.950 . S
C950 C949 1.398 . S
C950 C951 1.391 . S
C951 H939 0.950 . S
C951 C947 1.393 . S
C951 C950 1.391 . S
C481 C255 2.031 1_545 S
C487 C314 2.122 1_545 S
C507 C354 2.155 . S
C501 C294 2.094 . S
C527 C418 2.506 . S
C521 C177 2.412 . S
C547 C434 2.161 . S
C541 C216 1.966 . S
C567 C335 2.124 . S
C561 C99 2.032 . S
C581 C138 2.082 . S
C587 C375 2.164 . S
C601 C21 2.419 . S
C607 C409 2.501 1_554 S
C621 C60 1.979 . S
C627 C455 2.175 1_655 S
C647 C329 0.393 . S
C641 C196 0.287 . S
C667 C369 0.521 . S
C661 C235 0.512 1_545 S
C687 C405 0.547 . S
C681 C289 0.521 . S
C701 C157 0.611 . S
C707 C449 0.627 . S
C721 C40 0.255 . S
C727 C338 0.352 . S
C747 C378 0.518 . S
C741 C79 0.523 1_545 S
C767 C416 0.576 . S
C761 C133 0.544 . S
C781 C1 0.658 . S
C787 C458 0.691 1_554 S
C801 C211 2.593 . S
C807 C336 2.930 . S
C821 C250 2.436 . S
C827 C376 2.711 . S
C847 C394 1.946 . S
C841 C274 1.902 . S
C867 C456 3.339 . S
C861 C172 2.947 . S
C881 C55 2.584 . S
C887 C325 2.930 . S
C907 C365 2.712 . S
C901 C94 2.414 1_565 S
C927 C415 1.946 . S
C921 C118 1.895 . S
C941 C16 2.939 . S
C947 C445 3.338 . S
