# Generated by pormake.
# Topology zzz, (3,6)-cn, num edge types: 1
# Building blocks:
#     Node 0, Type 0, BuildingBlock: INOVEN_clean_linker_0, # of connection points: 3
#     Node 1, Type 0, BuildingBlock: INOVEN_clean_linker_0, # of connection points: 3
#     Node 2, Type 0, BuildingBlock: INOVEN_clean_linker_0, # of connection points: 3
#     Node 3, Type 0, BuildingBlock: INOVEN_clean_linker_0, # of connection points: 3
#     Node 4, Type 0, BuildingBlock: INOVEN_clean_linker_0, # of connection points: 3
#     Node 5, Type 0, BuildingBlock: INOVEN_clean_linker_0, # of connection points: 3
#     Node 6, Type 0, BuildingBlock: INOVEN_clean_linker_0, # of connection points: 3
#     Node 7, Type 0, BuildingBlock: INOVEN_clean_linker_0, # of connection points: 3
#     Node 8, Type 1, BuildingBlock: JUFBIX_clean_sbu_0, # of connection points: 6
#     Node 9, Type 1, BuildingBlock: JUFBIX_clean_sbu_0, # of connection points: 6
#     Node 10, Type 1, BuildingBlock: JUFBIX_clean_sbu_0, # of connection points: 6
#     Node 11, Type 1, BuildingBlock: JUFBIX_clean_sbu_0, # of connection points: 6
#     Edge 12, Type (0, 1), BuildingBlock: CIFDUS_clean_linker_0, # of connection points: 2
#     Edge 13, Type (0, 1), BuildingBlock: CIFDUS_clean_linker_0, # of connection points: 2
#     Edge 14, Type (0, 1), BuildingBlock: CIFDUS_clean_linker_0, # of connection points: 2
#     Edge 15, Type (0, 1), BuildingBlock: CIFDUS_clean_linker_0, # of connection points: 2
#     Edge 16, Type (0, 1), BuildingBlock: CIFDUS_clean_linker_0, # of connection points: 2
#     Edge 17, Type (0, 1), BuildingBlock: CIFDUS_clean_linker_0, # of connection points: 2
#     Edge 18, Type (0, 1), BuildingBlock: CIFDUS_clean_linker_0, # of connection points: 2
#     Edge 19, Type (0, 1), BuildingBlock: CIFDUS_clean_linker_0, # of connection points: 2
#     Edge 20, Type (0, 1), BuildingBlock: CIFDUS_clean_linker_0, # of connection points: 2
#     Edge 21, Type (0, 1), BuildingBlock: CIFDUS_clean_linker_0, # of connection points: 2
#     Edge 22, Type (0, 1), BuildingBlock: CIFDUS_clean_linker_0, # of connection points: 2
#     Edge 23, Type (0, 1), BuildingBlock: CIFDUS_clean_linker_0, # of connection points: 2
#     Edge 24, Type (0, 1), BuildingBlock: CIFDUS_clean_linker_0, # of connection points: 2
#     Edge 25, Type (0, 1), BuildingBlock: CIFDUS_clean_linker_0, # of connection points: 2
#     Edge 26, Type (0, 1), BuildingBlock: CIFDUS_clean_linker_0, # of connection points: 2
#     Edge 27, Type (0, 1), BuildingBlock: CIFDUS_clean_linker_0, # of connection points: 2
#     Edge 28, Type (0, 1), BuildingBlock: CIFDUS_clean_linker_0, # of connection points: 2
#     Edge 29, Type (0, 1), BuildingBlock: CIFDUS_clean_linker_0, # of connection points: 2
#     Edge 30, Type (0, 1), BuildingBlock: CIFDUS_clean_linker_0, # of connection points: 2
#     Edge 31, Type (0, 1), BuildingBlock: CIFDUS_clean_linker_0, # of connection points: 2
#     Edge 32, Type (0, 1), BuildingBlock: CIFDUS_clean_linker_0, # of connection points: 2
#     Edge 33, Type (0, 1), BuildingBlock: CIFDUS_clean_linker_0, # of connection points: 2
#     Edge 34, Type (0, 1), BuildingBlock: CIFDUS_clean_linker_0, # of connection points: 2
#     Edge 35, Type (0, 1), BuildingBlock: CIFDUS_clean_linker_0, # of connection points: 2
# Relax obj value: 0.117
# Max RMSD: 0.175
# Mean RMSD: 0.085
data_MOF--net-zzz--node1-JUFBIX_clean_sbu_0--node2-INOVEN_clean_linker_0--edge1-CIFDUS_clean_linker_0
_symmetry_space_group_name_H-M    P1
_symmetry_Int_Tables_number       1
_symmetry_cell_setting            triclinic
loop_
_symmetry_equiv_pos_as_xyz
'x, y, z'
_cell_length_a     45.240207
_cell_length_b     44.779929
_cell_length_c     15.672739
_cell_angle_alpha  80.410396
_cell_angle_beta   90.011141
_cell_angle_gamma 91.087624
loop_
_atom_site_label
_atom_site_type_symbol
_atom_site_fract_x
_atom_site_fract_y
_atom_site_fract_z
_atom_type_partial_charge
H0 H 0.79198 0.51107 0.42961 0.0
H1 H 0.88257 0.50528 0.35089 0.0
H2 H 0.8134 0.50461 0.16473 0.0
N3 N 0.76848 0.50867 0.2717 0.0
N4 N 0.76089 0.52098 0.19766 0.0
C5 C 0.80814 0.50917 0.37993 0.0
C6 C 0.83857 0.50874 0.39958 0.0
C7 C 0.79894 0.5081 0.29433 0.0
C8 C 0.82025 0.50564 0.23047 0.0
C9 C 0.85032 0.50467 0.2507 0.0
C10 C 0.85919 0.50609 0.33507 0.0
H11 H 0.03909 0.7584 0.42751 0.0
H12 H 0.07708 0.84814 0.35928 0.0
H13 H 0.05944 0.79488 0.16176 0.0
N14 N 0.04093 0.74492 0.2641 0.0
N15 N 0.03222 0.74601 0.18792 0.0
C16 C 0.04856 0.77623 0.37958 0.0
C17 C 0.05827 0.80387 0.4038 0.0
C18 C 0.05009 0.77248 0.29187 0.0
C19 C 0.06004 0.79696 0.22954 0.0
C20 C 0.06904 0.82453 0.25281 0.0
C21 C 0.06988 0.82693 0.34052 0.0
H22 H 0.78777 0.03196 0.32292 0.0
H23 H 0.69772 0.04559 0.24363 0.0
H24 H 0.76321 0.03117 0.05695 0.0
N25 N 0.81002 0.03094 0.16531 0.0
N26 N 0.818 0.0253 0.09341 0.0
C27 C 0.77125 0.03447 0.2723 0.0
C28 C 0.7415 0.03851 0.29268 0.0
C29 C 0.77953 0.03318 0.18615 0.0
C30 C 0.75735 0.03393 0.1221 0.0
C31 C 0.72753 0.03748 0.14294 0.0
C32 C 0.72045 0.04173 0.22698 0.0
H33 H 0.55338 0.73714 0.29604 0.0
H34 H 0.54436 0.64756 0.23216 0.0
H35 H 0.54449 0.72447 0.02941 0.0
N36 N 0.55009 0.7671 0.13194 0.0
N37 N 0.55533 0.77802 0.05456 0.0
C38 C 0.551 0.72243 0.24808 0.0
C39 C 0.54943 0.6907 0.27424 0.0
C40 C 0.54934 0.735 0.15922 0.0
C41 C 0.54606 0.71538 0.09776 0.0
C42 C 0.54373 0.68398 0.12429 0.0
C43 C 0.54563 0.67196 0.21198 0.0
H44 H 0.23874 0.49163 0.1785 0.0
H45 H 0.15079 0.50518 0.26787 0.0
H46 H 0.22276 0.4971 0.4471 0.0
N47 N 0.26531 0.49178 0.33238 0.0
N48 N 0.2744 0.4816 0.40661 0.0
C49 C 0.22367 0.49394 0.23063 0.0
C50 C 0.19331 0.49799 0.21391 0.0
C51 C 0.23445 0.49322 0.31537 0.0
C52 C 0.21465 0.4968 0.38217 0.0
C53 C 0.18467 0.50181 0.36468 0.0
C54 C 0.1742 0.50203 0.281 0.0
H55 H 0.02281 0.28383 0.1893 0.0
H56 H 1.00882 0.18846 0.27681 0.0
H57 H 0.99425 0.25098 0.45102 0.0
N58 N 0.01302 0.30026 0.34661 0.0
N59 N 0.02032 0.30174 0.42277 0.0
C60 C 0.01576 0.26538 0.2393 0.0
C61 C 0.01428 0.2354 0.22204 0.0
C62 C 1.0091 0.27097 0.32322 0.0
C63 C 1.00028 0.24657 0.38747 0.0
C64 C 1.00061 0.21665 0.37238 0.0
C65 C 1.00723 0.2115 0.28911 0.0
H66 H 0.27052 1.01227 0.30769 0.0
H67 H 0.36109 1.00398 0.38601 0.0
H68 H 0.29276 0.99522 0.57947 0.0
N69 N 0.24718 1.00483 0.46592 0.0
N70 N 0.23841 1.00797 0.53943 0.0
C71 C 0.28683 1.00813 0.3587 0.0
C72 C 0.31694 1.00752 0.33768 0.0
C73 C 0.27786 1.00388 0.44609 0.0
C74 C 0.29945 0.99878 0.51214 0.0
C75 C 0.32965 0.99794 0.49099 0.0
C76 C 0.33786 1.00277 0.4037 0.0
H77 H 0.53068 0.27805 0.24847 0.0
H78 H 0.52349 0.36643 0.31881 0.0
H79 H 0.52638 0.28842 0.51791 0.0
N80 N 0.53072 0.24693 0.41017 0.0
N81 N 0.52793 0.23445 0.48733 0.0
C82 C 0.52899 0.29227 0.29777 0.0
C83 C 0.52659 0.32387 0.27358 0.0
C84 C 0.52863 0.27903 0.38618 0.0
C85 C 0.52641 0.29797 0.44969 0.0
C86 C 0.52508 0.3295 0.42515 0.0
C87 C 0.52492 0.34203 0.33758 0.0
Co88 Co 0.0327 0.03398 0.84805 0.0
C89 C 0.9743 0.01561 0.86935 0.0
Co90 Co 0.02042 1.00038 0.76392 0.0
C91 C 0.02862 0.08946 0.91712 0.0
C92 C 0.06925 0.06725 0.95351 0.0
N93 N 0.04384 0.06425 0.91059 0.0
N94 N 0.04347 0.10822 0.96209 0.0
C95 C 0.06908 0.09419 0.98527 0.0
H96 H 1.0072 0.09418 0.88778 0.0
H97 H 0.08686 0.05102 0.96064 0.0
C98 C 0.07892 0.01851 0.74387 0.0
N99 N 1.00839 0.97061 0.69967 0.0
C100 C 0.01944 0.94294 0.69514 0.0
C101 C 0.98398 0.97237 0.65005 0.0
N102 N 1.00266 0.92737 0.64495 0.0
C103 C 0.98049 0.94616 0.6163 0.0
C104 C 1.01144 0.05892 0.68579 0.0
O105 O 0.07169 0.03429 0.8009 0.0
O106 O 0.05939 1.00172 0.71582 0.0
O107 O 1.00869 0.03178 0.67233 0.0
O108 O 0.02181 0.06388 0.75723 0.0
O109 O 0.98145 0.99946 0.81322 0.0
H110 H 0.96933 0.99145 0.63979 0.0
H111 H 0.03905 0.93421 0.72943 0.0
O112 O 0.99372 0.03304 0.89472 0.0
O113 O 0.04343 1.00378 0.93908 0.0
O114 O 0.03245 0.96992 0.85631 0.0
C115 C 0.04179 0.97639 0.92779 0.0
H116 H 0.08628 0.10246 0.02382 0.0
H117 H 0.96302 0.94161 0.57284 0.0
Co118 Co 0.51605 1.01392 0.86453 0.0
C119 C 0.53085 0.95376 0.88711 0.0
Co120 Co 0.5446 1.00432 0.75816 0.0
C121 C 0.4649 1.00923 0.97465 0.0
C122 C 0.49088 0.04897 0.98422 0.0
N123 N 0.49051 0.02376 0.94765 0.0
N124 N 0.44903 0.02457 0.02538 0.0
C125 C 0.46537 0.04956 0.03194 0.0
H126 H 0.45743 0.98841 0.95428 0.0
H127 H 0.5081 0.06631 0.9744 0.0
C128 C 0.53013 0.06466 0.73763 0.0
N129 N 0.57001 0.99423 0.67429 0.0
C130 C 0.59755 1.00522 0.65198 0.0
C131 C 0.56607 0.97089 0.63092 0.0
N132 N 0.61107 0.98929 0.59759 0.0
C133 C 0.59114 0.96783 0.58383 0.0
C134 C 0.48505 0.99806 0.72499 0.0
O135 O 0.51701 0.05513 0.80905 0.0
O136 O 0.54398 0.04584 0.70054 0.0
O137 O 0.51054 0.99514 0.69327 0.0
O138 O 0.48306 1.0065 0.7979 0.0
O139 O 0.54504 0.9629 0.81708 0.0
H140 H 0.54662 0.95627 0.63577 0.0
H141 H 0.60799 0.02365 0.67825 0.0
O142 O 0.51556 0.97264 0.91954 0.0
O143 O 0.54926 0.0211 0.93145 0.0
O144 O 0.57789 1.01338 0.82434 0.0
C145 C 0.57498 0.01956 0.90004 0.0
H146 H 0.4593 0.06702 0.06844 0.0
H147 H 0.59453 0.95085 0.54325 0.0
Co148 Co 0.54696 0.50791 0.78409 0.0
C149 C 0.51344 0.46143 0.89274 0.0
Co150 Co 0.49831 0.50711 0.76742 0.0
C151 C 0.60465 0.52221 0.85302 0.0
C152 C 0.60226 0.47854 0.81452 0.0
N153 N 0.58707 0.50437 0.81176 0.0
N154 N 0.62969 0.50813 0.88254 0.0
C155 C 0.62831 0.48075 0.85825 0.0
H156 H 0.59824 0.54399 0.86754 0.0
H157 H 0.5939 0.45835 0.79257 0.0
C158 C 0.53066 0.55373 0.65801 0.0
N159 N 0.45834 0.51042 0.73989 0.0
C160 C 0.43989 0.4908 0.70821 0.0
C161 C 0.44348 0.53664 0.7305 0.0
N162 N 0.41454 0.50408 0.67826 0.0
C163 C 0.41668 0.53284 0.69224 0.0
C164 C 0.51729 0.54402 0.88183 0.0
O165 O 0.55404 0.5432 0.69652 0.0
O166 O 0.5061 0.54019 0.67821 0.0
O167 O 0.49421 0.53478 0.84726 0.0
O168 O 0.54224 0.5338 0.86573 0.0
O169 O 0.49078 0.47419 0.85638 0.0
H170 H 0.45238 0.55782 0.74498 0.0
H171 H 0.4457 0.46796 0.70153 0.0
O172 O 0.53902 0.47265 0.87136 0.0
O173 O 0.55129 0.48226 0.7008 0.0
O174 O 0.50306 0.47923 0.68891 0.0
C175 C 0.5286 0.47112 0.66932 0.0
H176 H 0.64432 0.46307 0.8749 0.0
H177 H 0.40048 0.55014 0.67289 0.0
Co178 Co 0.01818 0.55407 0.78451 0.0
C179 C 0.06407 0.52547 0.88187 0.0
Co180 Co 0.01705 0.50412 0.79416 0.0
C181 C 0.01841 0.60877 0.85858 0.0
C182 C 0.01629 0.61845 0.72029 0.0
N183 N 0.01807 0.59542 0.78714 0.0
N184 N 0.01654 0.63923 0.83931 0.0
C185 C 0.01539 0.64533 0.75199 0.0
H186 H 0.01919 0.59619 0.92373 0.0
H187 H 0.0153 0.61583 0.65297 0.0
C188 C 0.97102 0.53323 0.69708 0.0
N189 N 0.01741 0.46264 0.79319 0.0
C190 C 0.01912 0.4482 0.72401 0.0
C191 C 0.01812 0.44044 0.86257 0.0
N192 N 0.02128 0.41788 0.74756 0.0
C193 C 0.02043 0.413 0.83488 0.0
C194 C 0.98488 0.52186 0.92161 0.0
O195 O 0.98363 0.55713 0.71458 0.0
O196 O 0.98254 0.50762 0.7234 0.0
O197 O 0.99236 0.49827 0.89269 0.0
O198 O 0.99406 0.54767 0.88434 0.0
O199 O 0.05182 0.50118 0.86568 0.0
H200 H 0.01768 0.44402 0.92912 0.0
H201 H 0.01988 0.45983 0.65772 0.0
O202 O 0.05231 0.55069 0.85361 0.0
O203 O 0.04287 0.55994 0.68419 0.0
O204 O 0.04169 0.51034 0.69685 0.0
C205 C 0.05137 0.5359 0.65916 0.0
H206 H 0.01399 0.66763 0.71324 0.0
H207 H 0.02163 0.39116 0.87626 0.0
H208 H 0.21708 0.02632 0.67752 0.0
H209 H 0.19119 0.99021 0.45023 0.0
H210 H 0.13913 0.98998 0.49401 0.0
H211 H 0.10086 0.99969 0.59882 0.0
H212 H 0.12734 0.03833 0.82233 0.0
H213 H 0.17897 0.03808 0.77834 0.0
C214 C 0.19991 0.01854 0.63773 0.0
C215 C 0.20787 1.00837 0.5612 0.0
C216 C 0.17008 0.01893 0.6627 0.0
C217 C 0.18559 0.99832 0.50941 0.0
C218 C 0.15583 0.99812 0.53457 0.0
C219 C 0.11794 1.00808 0.63775 0.0
C220 C 0.11014 0.01894 0.71397 0.0
C221 C 0.14778 1.00831 0.61132 0.0
C222 C 0.13259 0.02995 0.76327 0.0
C223 C 0.16221 0.02975 0.73831 0.0
H224 H 0.51694 0.20674 0.6448 0.0
H225 H 0.54408 0.19084 0.39344 0.0
H226 H 0.54805 0.13641 0.44927 0.0
H227 H 0.54344 0.09304 0.57144 0.0
H228 H 0.51455 0.11037 0.821 0.0
H229 H 0.5117 0.16416 0.76452 0.0
C230 C 0.52367 0.19121 0.60251 0.0
C231 C 0.53012 0.20265 0.51571 0.0
C232 C 0.52563 0.16012 0.63492 0.0
C233 C 0.53886 0.18254 0.46072 0.0
C234 C 0.54118 0.15143 0.49276 0.0
C235 C 0.53663 0.10864 0.61336 0.0
C236 C 0.52924 0.09749 0.70054 0.0
C237 C 0.53461 0.13989 0.57998 0.0
C238 C 0.52026 0.11809 0.75371 0.0
C239 C 0.51863 0.14898 0.72152 0.0
H240 H 0.29853 0.45007 0.54508 0.0
H241 H 0.31681 0.5201 0.32693 0.0
H242 H 0.36415 0.53174 0.39071 0.0
H243 H 0.39724 0.52607 0.51763 0.0
H244 H 0.3801 0.45516 0.73385 0.0
H245 H 0.33552 0.43929 0.66214 0.0
C246 C 0.31339 0.46725 0.51077 0.0
C247 C 0.30436 0.48414 0.43187 0.0
C248 C 0.34047 0.47384 0.54815 0.0
C249 C 0.32346 0.5066 0.38749 0.0
C250 C 0.35038 0.51344 0.42435 0.0
C251 C 0.3839 0.50683 0.54788 0.0
C252 C 0.39142 0.49189 0.63085 0.0
C253 C 0.35863 0.49786 0.5059 0.0
C254 C 0.37445 0.46683 0.66991 0.0
C255 C 0.34901 0.45794 0.62911 0.0
H256 H 0.04428 0.30466 0.57124 0.0
H257 H 0.99925 0.35823 0.3592 0.0
H258 H 0.99672 0.40052 0.44134 0.0
H259 H 1.00411 0.42024 0.5799 0.0
H260 H 0.04926 0.3648 0.79011 0.0
H261 H 0.0548 0.32524 0.70298 0.0
C262 C 0.03447 0.32592 0.54268 0.0
C263 C 0.02227 0.32856 0.45982 0.0
C264 C 0.03269 0.34954 0.59072 0.0
C265 C 1.00916 0.35587 0.4228 0.0
C266 C 1.00751 0.37988 0.47014 0.0
C267 C 0.01544 0.39966 0.60619 0.0
C268 C 0.02576 0.39542 0.69246 0.0
C269 C 0.01869 0.37672 0.55511 0.0
C270 C 0.04036 0.36849 0.72523 0.0
C271 C 0.0438 0.34587 0.67508 0.0
H272 H 0.83748 1.00431 0.95714 0.0
H273 H 0.86641 0.04489 0.17399 0.0
H274 H 0.91769 0.04557 0.12307 0.0
H275 H 0.95425 0.03555 0.01432 0.0
H276 H 0.9251 0.99297 0.80052 0.0
H277 H 0.87419 0.99204 0.85254 0.0
C278 C 0.85516 1.01306 0.99327 0.0
C279 C 0.84825 0.02441 0.06889 0.0
C280 C 0.88455 1.01311 0.96393 0.0
C281 C 0.87118 0.03582 0.11573 0.0
C282 C 0.90049 0.03631 0.08641 0.0
C283 C 0.93675 0.02604 0.9792 0.0
C284 C 0.94354 0.01448 0.90328 0.0
C285 C 0.90744 0.02518 0.01021 0.0
C286 C 0.92059 1.00199 0.85909 0.0
C287 C 0.89141 1.00148 0.88872 0.0
H288 H 0.52961 0.82352 0.12315 0.0
H289 H 0.57883 0.80283 0.90598 0.0
H290 H 0.57619 0.85558 0.83402 0.0
H291 H 0.55879 0.90723 0.83074 0.0
H292 H 0.5077 0.92821 0.04478 0.0
H293 H 0.51195 0.87599 0.11954 0.0
C294 C 0.54004 0.83075 0.06069 0.0
C295 C 0.55484 0.8095 0.01994 0.0
C296 C 0.53781 0.86113 0.0187 0.0
C297 C 0.56767 0.819 0.93837 0.0
C298 C 0.56604 0.84907 0.89719 0.0
C299 C 0.54856 0.90044 0.89375 0.0
C300 C 0.53292 0.92176 0.93175 0.0
C301 C 0.55095 0.87031 0.93629 0.0
C302 C 0.5198 0.91236 0.01356 0.0
C303 C 0.52229 0.88245 0.05664 0.0
H304 H 0.73888 0.55727 0.06455 0.0
H305 H 0.71886 0.47802 0.25302 0.0
H306 H 0.67428 0.46806 0.17269 0.0
H307 H 0.64438 0.47886 0.03924 0.0
H308 H 0.66316 0.55905 0.85339 0.0
H309 H 0.70476 0.57216 0.94201 0.0
C310 C 0.72418 0.53836 0.08891 0.0
C311 C 0.73194 0.51851 0.16424 0.0
C312 C 0.69873 0.53281 0.04213 0.0
C313 C 0.7131 0.49381 0.19561 0.0
C314 C 0.6878 0.48797 0.14919 0.0
C315 C 0.65744 0.49939 0.01923 0.0
C316 C 0.65125 0.51786 0.93983 0.0
C317 C 0.68094 0.5068 0.071 0.0
C318 C 0.6678 0.54462 0.91433 0.0
C319 C 0.69153 0.55197 0.96477 0.0
H320 H 1.00584 0.74886 0.03971 0.0
H321 H 0.0475 0.68684 0.24085 0.0
H322 H 0.04516 0.647 0.14995 0.0
H323 H 0.0351 0.63178 0.00709 0.0
H324 H 0.99335 0.69528 0.8075 0.0
H325 H 0.99222 0.73263 0.90322 0.0
C326 C 0.01372 0.72631 0.06409 0.0
C327 C 0.02644 0.72061 0.1465 0.0
C328 C 0.01286 0.70404 0.0109 0.0
C329 C 0.03716 0.6916 0.17787 0.0
C330 C 0.03609 0.66898 0.12545 0.0
C331 C 0.0254 0.6536 0.98474 0.0
C332 C 0.01477 0.66066 0.89895 0.0
C333 C 0.02459 0.6752 0.04087 0.0
C334 C 1.00242 0.68927 0.87176 0.0
C335 C 1.00149 0.71066 0.92691 0.0
H336 H 0.97777 0.15932 0.3709 0.0
H337 H 0.01955 0.21509 0.5389 0.0
H338 H 0.02318 0.17154 0.65205 0.0
H339 H 0.02026 0.11747 0.69789 0.0
H340 H 0.98457 0.05939 0.5276 0.0
H341 H 0.97389 0.1041 0.41921 0.0
C342 C 0.9878 0.16202 0.43202 0.0
C343 C 0.99844 0.19073 0.44533 0.0
C344 C 0.99158 0.13639 0.49575 0.0
C345 C 1.01053 0.19369 0.52635 0.0
C346 C 0.01312 0.16861 0.59112 0.0
C347 C 1.00999 0.11439 0.63731 0.0
C348 C 1.00347 0.08513 0.62038 0.0
C349 C 1.00457 0.13984 0.57546 0.0
C350 C 0.99004 0.0817 0.54172 0.0
C351 C 0.98389 0.10723 0.48003 0.0
H352 H 0.38041 0.96642 0.48849 0.0
H353 H 0.33302 0.02145 0.64211 0.0
H354 H 0.37669 0.024 0.73277 0.0
H355 H 0.42983 0.01599 0.75654 0.0
H356 H 0.47864 0.96656 0.59059 0.0
H357 H 0.43307 0.95753 0.51382 0.0
C358 C 0.37956 0.97907 0.54171 0.0
C359 C 0.35354 0.99424 0.55722 0.0
C360 C 0.40523 0.98209 0.58977 0.0
C361 C 0.3526 1.00949 0.62859 0.0
C362 C 0.37773 1.01132 0.67968 0.0
C363 C 0.43051 1.00309 0.70381 0.0
C364 C 0.45764 0.99211 0.67878 0.0
C365 C 0.40441 0.99862 0.65887 0.0
C366 C 0.45813 0.9755 0.61039 0.0
C367 C 0.43207 0.97021 0.56691 0.0
H368 H 0.56365 0.37472 0.43936 0.0
H369 H 0.48324 0.33164 0.54933 0.0
H370 H 0.47644 0.37277 0.63305 0.0
H371 H 0.49213 0.42258 0.66744 0.0
H372 H 0.57362 0.46435 0.56025 0.0
H373 H 0.58108 0.42238 0.48118 0.0
C374 C 0.54493 0.37416 0.48294 0.0
C375 C 0.52396 0.35037 0.48871 0.0
C376 C 0.54107 0.39794 0.52943 0.0
C377 C 0.49977 0.34966 0.54499 0.0
C378 C 0.49573 0.37332 0.5918 0.0
C379 C 0.51134 0.42255 0.62601 0.0
C380 C 0.53202 0.44671 0.61796 0.0
C381 C 0.5159 0.39791 0.58293 0.0
C382 C 0.55727 0.44612 0.56634 0.0
C383 C 0.56161 0.42209 0.52165 0.0
H384 H 0.14611 0.54762 0.36023 0.0
H385 H 0.17656 0.46647 0.52141 0.0
H386 H 0.13799 0.47073 0.62773 0.0
H387 H 0.09411 0.49547 0.66945 0.0
H388 H 0.06375 0.57756 0.51309 0.0
H389 H 0.10401 0.5751 0.409 0.0
C390 C 0.14433 0.53106 0.41908 0.0
C391 C 0.16382 0.50661 0.43318 0.0
C392 C 0.12212 0.53369 0.4796 0.0
C393 C 0.16179 0.48548 0.50979 0.0
C394 C 0.13967 0.4878 0.57004 0.0
C395 C 0.09625 0.51281 0.61236 0.0
C396 C 0.07578 0.5363 0.5973 0.0
C397 C 0.11945 0.51144 0.55462 0.0
C398 C 0.07919 0.55915 0.52497 0.0
C399 C 0.10212 0.55769 0.46583 0.0
H400 H 0.05178 0.88141 0.26465 0.0
H401 H 0.09257 0.82977 0.08818 0.0
H402 H 0.08785 0.8727 0.97075 0.0
H403 H 0.06825 0.92348 0.91656 0.0
H404 H 0.03193 0.97573 0.09786 0.0
H405 H 0.03973 0.9339 0.21656 0.0
C406 C 0.06079 0.87961 0.20169 0.0
C407 C 0.07223 0.85207 0.18558 0.0
C408 C 0.05858 0.90442 0.13522 0.0
C409 C 0.083 0.85039 0.10227 0.0
C410 C 0.08041 0.87496 0.03506 0.0
C411 C 0.06233 0.92564 0.98232 0.0
C412 C 0.04917 0.95221 -0.00104 0.0
C413 C 0.06745 0.90177 0.05041 0.0
C414 C 0.04202 0.95529 0.08407 0.0
C415 C 0.04641 0.93143 0.15171 0.0
H416 H 0.67406 1.01039 0.18067 0.0
H417 H 0.72561 0.05717 0.96563 0.0
H418 H 0.68311 0.05465 0.86959 0.0
H419 H 0.63015 0.04125 0.84948 0.0
H420 H 0.57839 1.00139 0.07234 0.0
H421 H 0.62196 1.00056 0.16397 0.0
C422 C 0.67604 0.02086 0.11331 0.0
C423 C 0.70294 0.03466 0.08121 0.0
C424 C 0.65128 0.02096 0.06025 0.0
C425 C 0.70525 0.04643 0.99242 0.0
C426 C 0.68085 0.04526 0.93766 0.0
C427 C 0.62853 0.03262 0.91825 0.0
C428 C 0.60118 0.02151 0.95449 0.0
C429 C 0.65359 0.03299 0.97127 0.0
C430 C 0.59915 1.01039 0.04343 0.0
C431 C 0.62406 1.00969 0.09565 0.0
H432 H 0.49984 0.64238 0.12118 0.0
H433 H 0.57985 0.67813 0.99 0.0
H434 H 0.5785 0.6375 0.90286 0.0
H435 H 0.5565 0.58999 0.87216 0.0
H436 H 0.47509 0.55526 -0.00302 0.0
H437 H 0.47495 0.59735 0.07953 0.0
C438 C 0.51666 0.64142 0.07242 0.0
C439 C 0.53998 0.66296 0.06175 0.0
C440 C 0.51569 0.61805 0.02294 0.0
C441 C 0.56164 0.66183 -0.00152 0.0
C442 C 0.561 0.6385 0.94946 0.0
C443 C 0.53878 0.59164 0.91771 0.0
C444 C 0.51619 0.56936 0.93046 0.0
C445 C 0.53852 0.61615 0.96266 0.0
C446 C 0.49284 0.57207 0.98731 0.0
C447 C 0.49277 0.59609 0.03414 0.0
H448 H 0.89837 0.54088 0.21854 0.0
H449 H 0.85275 0.46564 0.13411 0.0
H450 H 0.8921 0.46255 0.02838 0.0
H451 H 0.93923 0.482 0.95936 0.0
H452 H 0.98307 0.55879 0.04125 0.0
H453 H 0.945 0.56006 0.15088 0.0
C454 C 0.89718 0.5237 0.17725 0.0
C455 C 0.87297 0.50342 0.1839 0.0
C456 C 0.91968 0.52215 0.1173 0.0
C457 C 0.87123 0.48158 0.12932 0.0
C458 C 0.89376 0.47969 0.06958 0.0
C459 C 0.94058 0.49863 0.00235 0.0
C460 C 0.96387 0.5201 0.99336 0.0
C461 C 0.91812 0.49984 0.06319 0.0
C462 C 0.96528 0.54202 0.04768 0.0
C463 C 0.94351 0.54284 0.10989 0.0
H464 H 0.97945 0.20981 0.1146 0.0
H465 H 0.0694 0.2378 0.15128 0.0
H466 H 0.08697 0.20161 0.0623 0.0
H467 H 0.07695 0.15511 0.00047 0.0
H468 H 0.98663 0.12478 0.97671 0.0
H469 H 0.96903 0.16857 0.03349 0.0
C470 C 1.00278 0.20899 0.09927 0.0
C471 C 0.02311 0.22647 0.13898 0.0
C472 C 0.01271 0.1868 0.05299 0.0
C473 C 0.05334 0.22493 0.12026 0.0
C474 C 0.06339 0.20371 0.07103 0.0
C475 C 0.05342 0.15819 0.0071 0.0
C476 C 0.03323 0.13619 0.98563 0.0
C477 C 0.04336 0.1833 0.04161 0.0
C478 C 1.00276 0.14111 0.99256 0.0
C479 C 0.99262 0.1662 0.02542 0.0
H480 H 0.34263 0.96772 0.25215 0.0
H481 H 0.32022 0.06164 0.23012 0.0
H482 H 0.35896 0.07556 0.12077 0.0
H483 H 0.40526 0.0617 0.05474 0.0
H484 H 0.42899 0.96777 0.08425 0.0
H485 H 0.38382 0.95301 0.16709 0.0
C486 C 0.34533 0.99102 0.21995 0.0
C487 C 0.32861 1.01364 0.24838 0.0
C488 C 0.36863 0.9989 0.16093 0.0
C489 C 0.33253 0.04385 0.20796 0.0
C490 C 0.35512 0.05184 0.1469 0.0
C491 C 0.40034 0.03801 0.07872 0.0
C492 C 0.42072 0.01589 0.065 0.0
C493 C 0.37436 0.02972 0.12685 0.0
C494 C 0.41374 0.9852 0.09434 0.0
C495 C 0.38793 0.97676 0.14182 0.0
H496 H 0.48088 0.35306 0.19091 0.0
H497 H 0.57234 0.33256 0.15867 0.0
H498 H 0.57631 0.37342 0.03344 0.0
H499 H 0.55529 0.41934 0.9466 0.0
H500 H 0.46379 0.44005 0.98265 0.0
H501 H 0.45831 0.39501 0.09338 0.0
C502 C 0.50132 0.35684 0.15408 0.0
C503 C 0.52619 0.33967 0.18286 0.0
C504 C 0.50364 0.38105 0.08475 0.0
C505 C 0.55278 0.34508 0.13632 0.0
C506 C 0.55515 0.36881 0.06585 0.0
C507 C 0.53414 0.41391 0.97854 0.0
C508 C 0.51012 0.43337 0.95751 0.0
C509 C 0.53104 0.38773 0.04184 0.0
C510 C 0.4827 0.42568 -0.00182 0.0
C511 C 0.47951 0.39985 0.06134 0.0
H512 H 0.17393 0.54718 0.1109 0.0
H513 H 0.1799 0.4505 0.13174 0.0
H514 H 0.14058 0.45031 0.02382 0.0
H515 H 0.09921 0.47707 0.94189 0.0
H516 H 0.09229 0.57375 0.93136 0.0
H517 H 0.13686 0.57449 0.01718 0.0
C518 C 0.16745 0.52631 0.08867 0.0
C519 C 0.17992 0.49899 0.12774 0.0
C520 C 0.14386 0.52626 0.0308 0.0
C521 C 0.17098 0.47187 0.10076 0.0
C522 C 0.14809 0.47173 0.0405 0.0
C523 C 0.10759 0.49829 0.958 0.0
C524 C 0.09203 0.52519 0.93134 0.0
C525 C 0.13341 0.49864 0.00824 0.0
C526 C 0.10348 0.55258 0.95176 0.0
C527 C 0.12913 0.55313 0.00061 0.0
H528 H 1.00437 0.8129 0.46637 0.0
H529 H 0.09711 0.81892 0.52339 0.0
H530 H 0.08748 0.85706 0.61447 0.0
H531 H 0.05407 0.89632 0.65027 0.0
H532 H 0.96119 0.89013 0.59087 0.0
H533 H 0.96952 0.84494 0.52822 0.0
C534 C 0.02222 0.82133 0.50264 0.0
C535 C 0.05138 0.81303 0.48831 0.0
C536 C 0.01666 0.84438 0.5514 0.0
C537 C 0.07441 0.82466 0.53433 0.0
C538 C 0.06897 0.847 0.58491 0.0
C539 C 0.03551 0.88475 0.62558 0.0
C540 C 1.00721 0.89759 0.62261 0.0
C541 C 0.0404 0.85835 0.58959 0.0
C542 C 0.98347 0.88178 0.59099 0.0
C543 C 0.98812 0.85559 0.55575 0.0
H544 H 0.72907 0.98581 0.39436 0.0
H545 H 0.72376 0.08219 0.38244 0.0
H546 H 0.68334 0.07497 0.48836 0.0
H547 H 0.64299 0.04164 0.55911 0.0
H548 H 0.64653 0.94544 0.55967 0.0
H549 H 0.69368 0.95203 0.48317 0.0
C550 C 0.7201 1.00508 0.41874 0.0
C551 C 0.72965 0.03443 0.38191 0.0
C552 C 0.69556 1.00078 0.47478 0.0
C553 C 0.71722 0.05936 0.41156 0.0
C554 C 0.69364 0.05522 0.47059 0.0
C555 C 0.65443 0.0221 0.54416 0.0
C556 C 0.64082 0.99317 0.56328 0.0
C557 C 0.68153 0.02612 0.49872 0.0
C558 C 0.65601 0.96805 0.54347 0.0
C559 C 0.68315 0.97176 0.5003 0.0
H560 H 0.50375 0.66541 0.36884 0.0
H561 H 0.598 0.67852 0.37721 0.0
H562 H 0.60114 0.63731 0.50178 0.0
H563 H 0.57719 0.59278 0.59568 0.0
H564 H 0.48271 0.57936 0.575 0.0
H565 H 0.47969 0.6248 0.46836 0.0
C566 C 0.52479 0.66003 0.40046 0.0
C567 C 0.55048 0.67532 0.36543 0.0
C568 C 0.52652 0.63537 0.46831 0.0
C569 C 0.57782 0.66757 0.40478 0.0
C570 C 0.57964 0.64358 0.47483 0.0
C571 C 0.556 0.59989 0.56794 0.0
C572 C 0.53037 0.58213 0.59306 0.0
C573 C 0.55422 0.62645 0.50498 0.0
C574 C 0.503 0.59206 0.55681 0.0
C575 C 0.50109 0.61831 0.49577 0.0
H576 H 0.86293 0.55884 0.44432 0.0
H577 H 0.84511 0.4644 0.53872 0.0
H578 H 0.88472 0.46398 0.64554 0.0
H579 H 0.92973 0.4884 0.69339 0.0
H580 H 0.94854 0.58261 0.59388 0.0
H581 H 0.90352 0.58522 0.50702 0.0
C582 C 0.86681 0.53863 0.49141 0.0
C583 C 0.85091 0.51181 0.48492 0.0
C584 C 0.89061 0.53824 0.5491 0.0
C585 C 0.8566 0.48545 0.54417 0.0
C586 C 0.87971 0.48508 0.60379 0.0
C587 C 0.92387 0.50954 0.65303 0.0
C588 C 0.94281 0.5351 0.64856 0.0
C589 C 0.89781 0.51094 0.60362 0.0
C590 C 0.93456 0.56251 0.5976 0.0
C591 C 0.90876 0.56406 0.54817 0.0
loop_
_geom_bond_atom_site_label_1
_geom_bond_atom_site_label_2
_geom_bond_distance
_geom_bond_site_symmetry_2
_ccdc_geom_bond_type
H0 C5 0.929 . S
H1 C10 0.931 . S
H2 C8 0.930 . S
N3 N4 1.234 . S
N3 C7 1.453 . S
N4 N3 1.234 . S
C5 H0 0.929 . S
C5 C6 1.373 . S
C5 C7 1.368 . S
C6 C5 1.373 . S
C6 C10 1.397 . S
C7 N3 1.453 . S
C7 C5 1.368 . S
C7 C8 1.373 . S
C8 H2 0.930 . S
C8 C7 1.373 . S
C8 C9 1.371 . S
C9 C8 1.371 . S
C9 C10 1.383 . S
C10 H1 0.931 . S
C10 C6 1.397 . S
C10 C9 1.383 . S
H11 C16 0.929 . S
H12 C21 0.931 . S
H13 C19 0.918 1_556 S
N14 N15 1.234 . S
N14 C18 1.453 . S
N15 N14 1.234 . S
C16 H11 0.929 . S
C16 C17 1.373 . S
C16 C18 1.368 . S
C17 C16 1.373 . S
C17 C21 1.397 . S
C18 N14 1.453 . S
C18 C16 1.368 . S
C18 C19 1.373 . S
C19 H13 0.918 1_554 S
C19 C18 1.373 . S
C19 C20 1.371 . S
C20 C19 1.371 . S
C20 C21 1.383 . S
C21 H12 0.931 . S
C21 C17 1.397 . S
C21 C20 1.383 . S
H22 C27 0.929 . S
H23 C32 0.931 . S
H24 C30 0.930 1_556 S
N25 N26 1.219 1_545 S
N25 C29 1.453 . S
N26 N25 1.219 1_565 S
C27 H22 0.929 . S
C27 C28 1.373 . S
C27 C29 1.368 . S
C28 C27 1.373 . S
C28 C32 1.397 1_545 S
C29 N25 1.453 . S
C29 C27 1.368 . S
C29 C30 1.373 . S
C30 H24 0.930 1_554 S
C30 C29 1.373 . S
C30 C31 1.373 . S
C31 C30 1.373 . S
C31 C32 1.385 1_545 S
C32 H23 0.931 . S
C32 C28 1.397 1_565 S
C32 C31 1.385 1_565 S
H33 C38 0.929 . S
H34 C43 0.931 . S
H35 C41 0.930 . S
N36 N37 1.234 . S
N36 C40 1.453 . S
N37 N36 1.234 . S
C38 H33 0.929 . S
C38 C39 1.373 . S
C38 C40 1.368 . S
C39 C38 1.373 . S
C39 C43 1.397 . S
C40 N36 1.453 . S
C40 C38 1.368 . S
C40 C41 1.373 . S
C41 H35 0.930 . S
C41 C40 1.373 . S
C41 C42 1.371 . S
C42 C41 1.371 . S
C42 C43 1.383 . S
C43 H34 0.931 . S
C43 C39 1.397 . S
C43 C42 1.383 . S
H44 C49 0.929 . S
H45 C54 0.931 . S
H46 C52 0.930 . S
N47 N48 1.234 . S
N47 C51 1.453 . S
N48 N47 1.234 . S
C49 H44 0.929 . S
C49 C50 1.373 . S
C49 C51 1.368 . S
C50 C49 1.373 . S
C50 C54 1.397 . S
C51 N47 1.453 . S
C51 C49 1.368 . S
C51 C52 1.373 . S
C52 H46 0.930 . S
C52 C51 1.373 . S
C52 C53 1.371 . S
C53 C52 1.371 . S
C53 C54 1.383 . S
C54 H45 0.931 . S
C54 C50 1.397 . S
C54 C53 1.383 . S
H55 C60 0.929 . S
H56 C65 0.931 . S
H57 C63 0.930 . S
N58 N59 1.234 . S
N58 C62 1.453 . S
N59 N58 1.234 . S
C60 H55 0.929 . S
C60 C61 1.373 . S
C60 C62 1.368 . S
C61 C60 1.373 . S
C61 C65 1.397 . S
C62 N58 1.453 . S
C62 C60 1.368 . S
C62 C63 1.373 . S
C63 H57 0.930 . S
C63 C62 1.373 . S
C63 C64 1.371 . S
C64 C63 1.371 . S
C64 C65 1.383 . S
C65 H56 0.931 . S
C65 C61 1.397 . S
C65 C64 1.383 . S
H66 C71 0.929 . S
H67 C76 0.931 . S
H68 C74 0.930 . S
N69 N70 1.231 1_545 S
N69 C73 1.453 . S
N70 N69 1.231 1_565 S
C71 H66 0.929 . S
C71 C72 1.373 . S
C71 C73 1.368 . S
C72 C71 1.373 . S
C72 C76 1.397 1_545 S
C73 N69 1.453 . S
C73 C71 1.368 . S
C73 C74 1.373 . S
C74 H68 0.930 . S
C74 C73 1.373 . S
C74 C75 1.376 . S
C75 C74 1.376 . S
C75 C76 1.376 1_545 S
C76 H67 0.931 . S
C76 C72 1.397 1_565 S
C76 C75 1.376 1_565 S
H77 C82 0.929 . S
H78 C87 0.931 . S
H79 C85 0.930 . S
N80 N81 1.234 . S
N80 C84 1.453 . S
N81 N80 1.234 . S
C82 H77 0.929 . S
C82 C83 1.373 . S
C82 C84 1.368 . S
C83 C82 1.373 . S
C83 C87 1.397 . S
C84 N80 1.453 . S
C84 C82 1.368 . S
C84 C85 1.373 . S
C85 H79 0.930 . S
C85 C84 1.373 . S
C85 C86 1.371 . S
C86 C85 1.371 . S
C86 C87 1.383 . S
C87 H78 0.931 . S
C87 C83 1.397 . S
C87 C86 1.383 . S
Co88 N93 2.057 . S
Co88 O105 2.021 . S
Co88 O108 2.062 . S
Co88 O112 2.117 1_455 S
Co88 O113 2.020 1_545 S
C89 O109 1.259 1_545 S
C89 O112 1.258 . S
Co90 N99 2.057 . S
Co90 O106 2.117 . S
Co90 O107 2.020 1_565 S
Co90 O109 2.021 1_455 S
Co90 O114 2.062 . S
C91 N93 1.316 1_554 S
C91 N94 1.347 . S
C91 H96 0.931 . S
C92 N93 1.375 1_554 S
C92 C95 1.350 . S
C92 H97 0.930 1_455 S
N93 Co88 2.057 . S
N93 C91 1.316 1_556 S
N93 C92 1.375 1_556 S
N94 C91 1.347 . S
N94 C95 1.373 . S
C95 C92 1.350 . S
C95 N94 1.373 . S
C95 H116 0.931 1_455 S
H96 C91 0.931 . S
H97 C92 0.930 1_655 S
C98 O105 1.259 1_565 S
C98 O106 1.258 . S
N99 Co90 2.057 . S
N99 C100 1.316 1_455 S
N99 C101 1.375 . S
C100 N99 1.316 1_655 S
C100 N102 1.347 . S
C100 H111 0.931 . S
C101 N99 1.375 . S
C101 C103 1.350 . S
C101 H110 0.930 . S
N102 C100 1.347 . S
N102 C103 1.373 1_655 S
C103 C101 1.350 . S
C103 N102 1.373 1_455 S
C103 H117 0.931 . S
C104 O107 1.256 . S
C104 O108 1.255 . S
O105 Co88 2.021 . S
O105 C98 1.259 1_545 S
O106 Co90 2.117 . S
O106 C98 1.258 . S
O107 Co90 2.020 1_545 S
O107 C104 1.256 . S
O108 Co88 2.062 . S
O108 C104 1.255 . S
O109 C89 1.259 1_565 S
O109 Co90 2.021 1_655 S
H110 C101 0.930 . S
H111 C100 0.931 . S
O112 Co88 2.117 1_655 S
O112 C89 1.258 . S
O113 Co88 2.020 1_565 S
O113 C115 1.256 . S
O114 Co90 2.062 . S
O114 C115 1.255 . S
C115 O113 1.256 . S
C115 O114 1.255 . S
H116 C95 0.931 1_655 S
H117 C103 0.931 . S
Co118 N123 2.057 1_545 S
Co118 O135 2.021 . S
Co118 O138 2.068 . S
Co118 O142 2.117 1_545 S
Co118 O143 2.020 . S
C119 O139 1.259 . S
C119 O142 1.258 . S
Co120 N129 2.057 1_565 S
Co120 O136 2.117 1_565 S
Co120 O137 2.020 . S
Co120 O139 2.021 . S
Co120 O144 2.066 . S
C121 N123 1.316 1_544 S
C121 N124 1.347 . S
C121 H126 0.931 . S
C122 N123 1.375 1_554 S
C122 C125 1.350 . S
C122 H127 0.930 . S
N123 Co118 2.057 1_565 S
N123 C121 1.316 1_566 S
N123 C122 1.375 1_556 S
N124 C121 1.347 . S
N124 C125 1.373 1_545 S
C125 C122 1.350 . S
C125 N124 1.373 1_565 S
C125 H146 0.931 . S
H126 C121 0.931 . S
H127 C122 0.930 . S
C128 O135 1.259 . S
C128 O136 1.258 . S
N129 Co120 2.057 1_545 S
N129 C130 1.316 1_545 S
N129 C131 1.375 . S
C130 N129 1.316 1_565 S
C130 N132 1.347 . S
C130 H141 0.931 . S
C131 N129 1.375 . S
C131 C133 1.350 . S
C131 H140 0.930 . S
N132 C130 1.347 . S
N132 C133 1.373 1_565 S
C133 C131 1.350 . S
C133 N132 1.373 1_545 S
C133 H147 0.931 . S
C134 O137 1.256 . S
C134 O138 1.243 1_565 S
O135 Co118 2.021 . S
O135 C128 1.259 . S
O136 Co120 2.117 1_545 S
O136 C128 1.258 . S
O137 Co120 2.020 . S
O137 C134 1.256 . S
O138 Co118 2.068 . S
O138 C134 1.243 1_545 S
O139 C119 1.259 . S
O139 Co120 2.021 . S
H140 C131 0.930 . S
H141 C130 0.931 . S
O142 Co118 2.117 1_565 S
O142 C119 1.258 . S
O143 Co118 2.020 . S
O143 C145 1.256 . S
O144 Co120 2.066 . S
O144 C145 1.246 1_565 S
C145 O143 1.256 . S
C145 O144 1.246 1_545 S
H146 C125 0.931 . S
H147 C133 0.931 . S
Co148 N153 2.057 . S
Co148 O165 2.021 . S
Co148 O168 2.062 . S
Co148 O172 2.117 . S
Co148 O173 2.020 . S
C149 O169 1.259 . S
C149 O172 1.258 . S
Co150 N159 2.057 . S
Co150 O166 2.117 . S
Co150 O167 2.020 . S
Co150 O169 2.021 . S
Co150 O174 2.062 . S
C151 N153 1.316 . S
C151 N154 1.347 . S
C151 H156 0.931 . S
C152 N153 1.375 . S
C152 C155 1.350 . S
C152 H157 0.930 . S
N153 Co148 2.057 . S
N153 C151 1.316 . S
N153 C152 1.375 . S
N154 C151 1.347 . S
N154 C155 1.373 . S
C155 C152 1.350 . S
C155 N154 1.373 . S
C155 H176 0.931 1_556 S
H156 C151 0.931 . S
H157 C152 0.930 . S
C158 O165 1.259 . S
C158 O166 1.258 . S
N159 Co150 2.057 . S
N159 C160 1.316 . S
N159 C161 1.375 . S
C160 N159 1.316 . S
C160 N162 1.347 . S
C160 H171 0.931 . S
C161 N159 1.375 . S
C161 C163 1.350 . S
C161 H170 0.930 . S
N162 C160 1.347 . S
N162 C163 1.373 . S
C163 C161 1.350 . S
C163 N162 1.373 . S
C163 H177 0.931 . S
C164 O167 1.256 . S
C164 O168 1.255 . S
O165 Co148 2.021 . S
O165 C158 1.259 . S
O166 Co150 2.117 . S
O166 C158 1.258 . S
O167 Co150 2.020 . S
O167 C164 1.256 . S
O168 Co148 2.062 . S
O168 C164 1.255 . S
O169 C149 1.259 . S
O169 Co150 2.021 . S
H170 C161 0.930 . S
H171 C160 0.931 . S
O172 Co148 2.117 . S
O172 C149 1.258 . S
O173 Co148 2.020 . S
O173 C175 1.256 . S
O174 Co150 2.062 . S
O174 C175 1.255 . S
C175 O173 1.256 . S
C175 O174 1.255 . S
H176 C155 0.931 1_554 S
H177 C163 0.931 . S
Co178 N183 2.057 . S
Co178 O195 2.021 1_455 S
Co178 O198 2.062 1_455 S
Co178 O202 2.117 . S
Co178 O203 2.020 . S
C179 O199 1.259 . S
C179 O202 1.258 . S
Co180 N189 2.057 . S
Co180 O196 2.117 1_455 S
Co180 O197 2.020 1_455 S
Co180 O199 2.021 . S
Co180 O204 2.062 . S
C181 N183 1.316 . S
C181 N184 1.347 . S
C181 H186 0.931 1_455 S
C182 N183 1.375 . S
C182 C185 1.350 . S
C182 H187 0.930 . S
N183 Co178 2.057 . S
N183 C181 1.316 . S
N183 C182 1.375 . S
N184 C181 1.347 . S
N184 C185 1.373 . S
C185 C182 1.350 . S
C185 N184 1.373 . S
C185 H206 0.931 . S
H186 C181 0.931 1_655 S
H187 C182 0.930 . S
C188 O195 1.259 . S
C188 O196 1.258 . S
N189 Co180 2.057 . S
N189 C190 1.316 . S
N189 C191 1.375 1_455 S
C190 N189 1.316 . S
C190 N192 1.347 . S
C190 H201 0.931 . S
C191 N189 1.375 1_655 S
C191 C193 1.350 . S
C191 H200 0.930 . S
N192 C190 1.347 . S
N192 C193 1.374 1_455 S
C193 C191 1.350 . S
C193 N192 1.374 1_655 S
C193 H207 0.930 . S
C194 O197 1.256 . S
C194 O198 1.255 . S
O195 Co178 2.021 1_655 S
O195 C188 1.259 . S
O196 Co180 2.117 1_655 S
O196 C188 1.258 . S
O197 Co180 2.020 1_655 S
O197 C194 1.256 . S
O198 Co178 2.062 1_655 S
O198 C194 1.255 . S
O199 C179 1.259 . S
O199 Co180 2.021 . S
H200 C191 0.930 . S
H201 C190 0.931 . S
O202 Co178 2.117 . S
O202 C179 1.258 . S
O203 Co178 2.020 . S
O203 C205 1.256 . S
O204 Co180 2.062 . S
O204 C205 1.255 . S
C205 O203 1.256 . S
C205 O204 1.255 . S
H206 C185 0.931 . S
H207 C193 0.930 . S
H208 C214 0.929 . S
H209 C217 0.930 . S
H210 C218 0.930 . S
H211 C219 0.930 . S
H212 C222 0.928 1_545 S
H213 C223 0.930 . S
C214 H208 0.929 . S
C214 C215 1.355 1_545 S
C214 C216 1.415 1_545 S
C215 C214 1.355 1_565 S
C215 C217 1.419 . S
C216 C214 1.415 1_565 S
C216 C221 1.425 . S
C216 C223 1.409 1_565 S
C217 H209 0.930 . S
C217 C215 1.419 . S
C217 C218 1.362 . S
C218 H210 0.930 . S
C218 C217 1.362 . S
C218 C221 1.409 . S
C219 H211 0.930 . S
C219 C220 1.355 . S
C219 C221 1.415 . S
C220 C219 1.355 . S
C220 C222 1.421 . S
C221 C216 1.425 . S
C221 C218 1.409 . S
C221 C219 1.415 . S
C222 H212 0.928 1_565 S
C222 C220 1.421 . S
C222 C223 1.362 1_565 S
C223 H213 0.930 . S
C223 C216 1.409 1_545 S
C223 C222 1.362 1_545 S
H224 C230 0.930 . S
H225 C233 0.930 . S
H226 C234 0.930 . S
H227 C235 0.930 . S
H228 C238 0.930 . S
H229 C239 0.930 . S
C230 H224 0.930 . S
C230 C231 1.355 . S
C230 C232 1.415 . S
C231 C230 1.355 . S
C231 C233 1.419 . S
C232 C230 1.415 . S
C232 C237 1.425 . S
C232 C239 1.409 . S
C233 H225 0.930 . S
C233 C231 1.419 . S
C233 C234 1.362 . S
C234 H226 0.930 . S
C234 C233 1.362 . S
C234 C237 1.409 . S
C235 H227 0.930 . S
C235 C236 1.355 . S
C235 C237 1.415 . S
C236 C235 1.355 . S
C236 C238 1.419 . S
C237 C232 1.425 . S
C237 C234 1.409 . S
C237 C235 1.415 . S
C238 H228 0.930 . S
C238 C236 1.419 . S
C238 C239 1.362 . S
C239 H229 0.930 . S
C239 C232 1.409 . S
C239 C238 1.362 . S
H240 C246 0.930 . S
H241 C249 0.930 . S
H242 C250 0.930 . S
H243 C251 0.930 . S
H244 C254 0.930 . S
H245 C255 0.930 . S
C246 H240 0.930 . S
C246 C247 1.355 . S
C246 C248 1.415 . S
C247 C246 1.355 . S
C247 C249 1.419 . S
C248 C246 1.415 . S
C248 C253 1.425 . S
C248 C255 1.409 . S
C249 H241 0.930 . S
C249 C247 1.419 . S
C249 C250 1.362 . S
C250 H242 0.930 . S
C250 C249 1.362 . S
C250 C253 1.409 . S
C251 H243 0.930 . S
C251 C252 1.355 . S
C251 C253 1.415 . S
C252 C251 1.355 . S
C252 C254 1.419 . S
C253 C248 1.425 . S
C253 C250 1.409 . S
C253 C251 1.415 . S
C254 H244 0.930 . S
C254 C252 1.419 . S
C254 C255 1.362 . S
C255 H245 0.930 . S
C255 C248 1.409 . S
C255 C254 1.362 . S
H256 C262 0.930 . S
H257 C265 0.930 . S
H258 C266 0.930 . S
H259 C267 0.930 . S
H260 C270 0.930 1_655 S
H261 C271 0.930 1_655 S
C262 H256 0.930 . S
C262 C263 1.355 . S
C262 C264 1.415 . S
C263 C262 1.355 . S
C263 C265 1.419 . S
C264 C262 1.415 . S
C264 C269 1.425 . S
C264 C271 1.409 . S
C265 H257 0.930 . S
C265 C263 1.419 . S
C265 C266 1.362 . S
C266 H258 0.930 . S
C266 C265 1.362 . S
C266 C269 1.409 . S
C267 H259 0.930 . S
C267 C268 1.355 . S
C267 C269 1.415 . S
C268 C267 1.355 . S
C268 C270 1.419 . S
C269 C264 1.425 . S
C269 C266 1.409 . S
C269 C267 1.415 . S
C270 H260 0.930 1_455 S
C270 C268 1.419 . S
C270 C271 1.362 . S
C271 H261 0.930 1_455 S
C271 C264 1.409 . S
C271 C270 1.362 . S
H272 C278 0.930 . S
H273 C281 0.930 . S
H274 C282 0.930 . S
H275 C283 0.930 . S
H276 C286 0.930 . S
H277 C287 0.930 . S
C278 H272 0.930 . S
C278 C279 1.355 1_545 S
C278 C280 1.415 . S
C279 C278 1.355 1_565 S
C279 C281 1.419 1_556 S
C280 C278 1.415 . S
C280 C285 1.425 1_545 S
C280 C287 1.409 . S
C281 H273 0.930 . S
C281 C279 1.419 1_554 S
C281 C282 1.362 . S
C282 H274 0.930 . S
C282 C281 1.362 . S
C282 C285 1.409 1_554 S
C283 H275 0.930 . S
C283 C284 1.355 1_565 S
C283 C285 1.415 . S
C284 C283 1.355 1_545 S
C284 C286 1.419 . S
C285 C280 1.425 1_565 S
C285 C282 1.409 1_556 S
C285 C283 1.415 . S
C286 H276 0.930 . S
C286 C284 1.419 . S
C286 C287 1.362 . S
C287 H277 0.930 . S
C287 C280 1.409 . S
C287 C286 1.362 . S
H288 C294 0.930 . S
H289 C297 0.930 . S
H290 C298 0.930 . S
H291 C299 0.930 . S
H292 C302 0.930 . S
H293 C303 0.930 . S
C294 H288 0.930 . S
C294 C295 1.355 . S
C294 C296 1.415 1_554 S
C295 C294 1.355 . S
C295 C297 1.419 1_554 S
C296 C294 1.415 1_556 S
C296 C301 1.425 . S
C296 C303 1.409 1_556 S
C297 H289 0.930 . S
C297 C295 1.419 1_556 S
C297 C298 1.362 . S
C298 H290 0.930 . S
C298 C297 1.362 . S
C298 C301 1.409 . S
C299 H291 0.930 . S
C299 C300 1.355 . S
C299 C301 1.415 . S
C300 C299 1.355 . S
C300 C302 1.419 . S
C301 C296 1.425 . S
C301 C298 1.409 . S
C301 C299 1.415 . S
C302 H292 0.930 . S
C302 C300 1.419 . S
C302 C303 1.362 1_556 S
C303 H293 0.930 . S
C303 C296 1.409 1_554 S
C303 C302 1.362 1_554 S
H304 C310 0.930 . S
H305 C313 0.930 . S
H306 C314 0.930 . S
H307 C315 0.930 . S
H308 C318 0.930 . S
H309 C319 0.930 . S
C310 H304 0.930 . S
C310 C311 1.355 . S
C310 C312 1.415 . S
C311 C310 1.355 . S
C311 C313 1.419 . S
C312 C310 1.415 . S
C312 C317 1.425 1_554 S
C312 C319 1.409 . S
C313 H305 0.930 . S
C313 C311 1.419 . S
C313 C314 1.362 1_554 S
C314 H306 0.930 . S
C314 C313 1.362 1_556 S
C314 C317 1.409 . S
C315 H307 0.930 . S
C315 C316 1.355 . S
C315 C317 1.415 . S
C316 C315 1.355 . S
C316 C318 1.419 . S
C317 C312 1.425 1_556 S
C317 C314 1.409 . S
C317 C315 1.415 . S
C318 H308 0.930 . S
C318 C316 1.419 . S
C318 C319 1.362 1_556 S
C319 H309 0.930 . S
C319 C312 1.409 . S
C319 C318 1.362 1_554 S
H320 C326 0.930 . S
H321 C329 0.930 . S
H322 C330 0.930 . S
H323 C331 0.930 . S
H324 C334 0.930 . S
H325 C335 0.930 . S
C326 H320 0.930 . S
C326 C327 1.355 1_556 S
C326 C328 1.415 . S
C327 C326 1.355 1_554 S
C327 C329 1.419 . S
C328 C326 1.415 . S
C328 C333 1.425 . S
C328 C335 1.409 1_655 S
C329 H321 0.930 . S
C329 C327 1.419 . S
C329 C330 1.362 . S
C330 H322 0.930 . S
C330 C329 1.362 . S
C330 C333 1.409 1_554 S
C331 H323 0.930 . S
C331 C332 1.355 . S
C331 C333 1.415 . S
C332 C331 1.355 . S
C332 C334 1.419 1_655 S
C333 C328 1.425 . S
C333 C330 1.409 1_556 S
C333 C331 1.415 . S
C334 H324 0.930 . S
C334 C332 1.419 1_455 S
C334 C335 1.362 . S
C335 H325 0.930 . S
C335 C328 1.409 1_455 S
C335 C334 1.362 . S
H336 C342 0.930 . S
H337 C345 0.930 . S
H338 C346 0.930 . S
H339 C347 0.930 . S
H340 C350 0.930 . S
H341 C351 0.930 1_655 S
C342 H336 0.930 . S
C342 C343 1.355 . S
C342 C344 1.415 . S
C343 C342 1.355 . S
C343 C345 1.419 . S
C344 C342 1.415 . S
C344 C349 1.425 . S
C344 C351 1.409 . S
C345 H337 0.930 . S
C345 C343 1.419 . S
C345 C346 1.362 . S
C346 H338 0.930 . S
C346 C345 1.362 . S
C346 C349 1.409 . S
C347 H339 0.930 . S
C347 C348 1.355 . S
C347 C349 1.415 . S
C348 C347 1.355 . S
C348 C350 1.419 1_455 S
C349 C344 1.425 . S
C349 C346 1.409 . S
C349 C347 1.415 . S
C350 H340 0.930 . S
C350 C348 1.419 1_655 S
C350 C351 1.362 1_655 S
C351 H341 0.930 1_455 S
C351 C344 1.409 . S
C351 C350 1.362 1_455 S
H352 C358 0.930 . S
H353 C361 0.930 . S
H354 C362 0.930 . S
H355 C363 0.930 1_545 S
H356 C366 0.930 . S
H357 C367 0.930 . S
C358 H352 0.930 . S
C358 C359 1.355 1_565 S
C358 C360 1.415 . S
C359 C358 1.355 1_545 S
C359 C361 1.419 . S
C360 C358 1.415 . S
C360 C365 1.425 . S
C360 C367 1.409 . S
C361 H353 0.930 . S
C361 C359 1.419 . S
C361 C362 1.362 . S
C362 H354 0.930 . S
C362 C361 1.362 . S
C362 C365 1.409 1_545 S
C363 H355 0.930 1_565 S
C363 C364 1.355 . S
C363 C365 1.415 . S
C364 C363 1.355 . S
C364 C366 1.419 . S
C365 C360 1.425 . S
C365 C362 1.409 1_565 S
C365 C363 1.415 . S
C366 H356 0.930 . S
C366 C364 1.419 . S
C366 C367 1.362 . S
C367 H357 0.930 . S
C367 C360 1.409 . S
C367 C366 1.362 . S
H368 C374 0.930 . S
H369 C377 0.930 . S
H370 C378 0.930 . S
H371 C379 0.930 . S
H372 C382 0.930 . S
H373 C383 0.930 . S
C374 H368 0.930 . S
C374 C375 1.355 . S
C374 C376 1.415 . S
C375 C374 1.355 . S
C375 C377 1.419 . S
C376 C374 1.415 . S
C376 C381 1.425 . S
C376 C383 1.409 . S
C377 H369 0.930 . S
C377 C375 1.419 . S
C377 C378 1.362 . S
C378 H370 0.930 . S
C378 C377 1.362 . S
C378 C381 1.409 . S
C379 H371 0.930 . S
C379 C380 1.355 . S
C379 C381 1.415 . S
C380 C379 1.355 . S
C380 C382 1.419 . S
C381 C376 1.425 . S
C381 C378 1.409 . S
C381 C379 1.415 . S
C382 H372 0.930 . S
C382 C380 1.419 . S
C382 C383 1.362 . S
C383 H373 0.930 . S
C383 C376 1.409 . S
C383 C382 1.362 . S
H384 C390 0.930 . S
H385 C393 0.930 . S
H386 C394 0.930 . S
H387 C395 0.930 . S
H388 C398 0.930 . S
H389 C399 0.930 . S
C390 H384 0.930 . S
C390 C391 1.355 . S
C390 C392 1.415 . S
C391 C390 1.355 . S
C391 C393 1.419 . S
C392 C390 1.415 . S
C392 C397 1.425 . S
C392 C399 1.409 . S
C393 H385 0.930 . S
C393 C391 1.419 . S
C393 C394 1.362 . S
C394 H386 0.930 . S
C394 C393 1.362 . S
C394 C397 1.409 . S
C395 H387 0.930 . S
C395 C396 1.355 . S
C395 C397 1.415 . S
C396 C395 1.355 . S
C396 C398 1.419 . S
C397 C392 1.425 . S
C397 C394 1.409 . S
C397 C395 1.415 . S
C398 H388 0.930 . S
C398 C396 1.419 . S
C398 C399 1.362 . S
C399 H389 0.930 . S
C399 C392 1.409 . S
C399 C398 1.362 . S
H400 C406 0.930 . S
H401 C409 0.930 . S
H402 C410 0.930 1_455 S
H403 C411 0.930 . S
H404 C414 0.930 . S
H405 C415 0.930 . S
C406 H400 0.930 . S
C406 C407 1.355 . S
C406 C408 1.415 1_554 S
C407 C406 1.355 . S
C407 C409 1.419 1_554 S
C408 C406 1.415 1_556 S
C408 C413 1.425 . S
C408 C415 1.409 1_556 S
C409 H401 0.930 . S
C409 C407 1.419 1_556 S
C409 C410 1.362 . S
C410 H402 0.930 1_655 S
C410 C409 1.362 . S
C410 C413 1.409 . S
C411 H403 0.930 . S
C411 C412 1.355 . S
C411 C413 1.415 1_455 S
C412 C411 1.355 . S
C412 C414 1.419 1_455 S
C413 C408 1.425 . S
C413 C410 1.409 . S
C413 C411 1.415 1_655 S
C414 H404 0.930 . S
C414 C412 1.419 1_655 S
C414 C415 1.362 1_556 S
C415 H405 0.930 . S
C415 C408 1.409 1_554 S
C415 C414 1.362 1_554 S
H416 C422 0.930 . S
H417 C425 0.930 . S
H418 C426 0.930 . S
H419 C427 0.930 . S
H420 C430 0.930 1_554 S
H421 C431 0.930 . S
C422 H416 0.930 . S
C422 C423 1.355 1_564 S
C422 C424 1.417 1_554 S
C423 C422 1.355 1_546 S
C423 C425 1.419 . S
C424 C422 1.417 1_556 S
C424 C429 1.423 1_565 S
C424 C431 1.409 1_556 S
C425 H417 0.930 . S
C425 C423 1.419 . S
C425 C426 1.362 . S
C426 H418 0.930 . S
C426 C425 1.362 . S
C426 C429 1.409 . S
C427 H419 0.930 . S
C427 C428 1.355 . S
C427 C429 1.415 . S
C428 C427 1.355 . S
C428 C430 1.419 1_545 S
C429 C424 1.423 1_545 S
C429 C426 1.409 . S
C429 C427 1.415 . S
C430 H420 0.930 1_556 S
C430 C428 1.419 1_565 S
C430 C431 1.362 1_556 S
C431 H421 0.930 . S
C431 C424 1.409 1_554 S
C431 C430 1.362 1_554 S
H432 C438 0.930 . S
H433 C441 0.930 . S
H434 C442 0.930 . S
H435 C443 0.930 . S
H436 C446 0.930 . S
H437 C447 0.930 . S
C438 H432 0.930 . S
C438 C439 1.355 . S
C438 C440 1.415 . S
C439 C438 1.355 . S
C439 C441 1.419 1_554 S
C440 C438 1.415 . S
C440 C445 1.425 1_554 S
C440 C447 1.409 . S
C441 H433 0.930 . S
C441 C439 1.419 1_556 S
C441 C442 1.362 . S
C442 H434 0.930 . S
C442 C441 1.362 . S
C442 C445 1.409 . S
C443 H435 0.930 . S
C443 C444 1.355 . S
C443 C445 1.415 . S
C444 C443 1.355 . S
C444 C446 1.419 1_556 S
C445 C440 1.425 1_556 S
C445 C442 1.409 . S
C445 C443 1.415 . S
C446 H436 0.930 . S
C446 C444 1.419 1_554 S
C446 C447 1.362 . S
C447 H437 0.930 . S
C447 C440 1.409 . S
C447 C446 1.362 . S
H448 C454 0.930 1_556 S
H449 C457 0.930 . S
H450 C458 0.930 . S
H451 C459 0.930 . S
H452 C462 0.930 . S
H453 C463 0.930 . S
C454 H448 0.930 1_554 S
C454 C455 1.355 . S
C454 C456 1.415 1_554 S
C455 C454 1.355 . S
C455 C457 1.419 . S
C456 C454 1.415 1_556 S
C456 C461 1.425 1_556 S
C456 C463 1.409 . S
C457 H449 0.930 . S
C457 C455 1.419 . S
C457 C458 1.362 . S
C458 H450 0.930 . S
C458 C457 1.362 . S
C458 C461 1.409 . S
C459 H451 0.930 . S
C459 C460 1.355 1_554 S
C459 C461 1.415 . S
C460 C459 1.355 1_556 S
C460 C462 1.419 . S
C461 C456 1.425 1_554 S
C461 C458 1.409 . S
C461 C459 1.415 . S
C462 H452 0.930 . S
C462 C460 1.419 . S
C462 C463 1.362 . S
C463 H453 0.930 . S
C463 C456 1.409 . S
C463 C462 1.362 . S
H464 C470 0.930 . S
H465 C473 0.930 . S
H466 C474 0.930 . S
H467 C475 0.930 . S
H468 C478 0.930 . S
H469 C479 0.930 . S
C470 H464 0.930 . S
C470 C471 1.355 . S
C470 C472 1.415 . S
C471 C470 1.355 . S
C471 C473 1.419 . S
C472 C470 1.415 . S
C472 C477 1.425 . S
C472 C479 1.409 . S
C473 H465 0.930 . S
C473 C471 1.419 . S
C473 C474 1.362 . S
C474 H466 0.930 . S
C474 C473 1.362 . S
C474 C477 1.409 . S
C475 H467 0.930 . S
C475 C476 1.355 . S
C475 C477 1.415 . S
C476 C475 1.355 . S
C476 C478 1.419 . S
C477 C472 1.425 . S
C477 C474 1.409 . S
C477 C475 1.415 . S
C478 H468 0.930 . S
C478 C476 1.419 . S
C478 C479 1.362 . S
C479 H469 0.930 . S
C479 C472 1.409 . S
C479 C478 1.362 . S
H480 C486 0.924 1_565 S
H481 C489 0.930 . S
H482 C490 0.930 . S
H483 C491 0.930 . S
H484 C494 0.930 . S
H485 C495 0.930 . S
C486 H480 0.924 1_545 S
C486 C487 1.358 . S
C486 C488 1.415 . S
C487 C486 1.358 . S
C487 C489 1.421 . S
C488 C486 1.415 . S
C488 C493 1.425 . S
C488 C495 1.409 . S
C489 H481 0.930 . S
C489 C487 1.421 . S
C489 C490 1.362 . S
C490 H482 0.930 . S
C490 C489 1.362 . S
C490 C493 1.409 . S
C491 H483 0.930 . S
C491 C492 1.355 . S
C491 C493 1.415 . S
C492 C491 1.355 . S
C492 C494 1.419 . S
C493 C488 1.425 . S
C493 C490 1.409 . S
C493 C491 1.415 . S
C494 H484 0.930 . S
C494 C492 1.419 . S
C494 C495 1.362 . S
C495 H485 0.930 . S
C495 C488 1.409 . S
C495 C494 1.362 . S
H496 C502 0.930 . S
H497 C505 0.930 . S
H498 C506 0.930 . S
H499 C507 0.930 . S
H500 C510 0.930 1_556 S
H501 C511 0.930 . S
C502 H496 0.930 . S
C502 C503 1.355 . S
C502 C504 1.415 . S
C503 C502 1.355 . S
C503 C505 1.419 . S
C504 C502 1.415 . S
C504 C509 1.425 . S
C504 C511 1.409 . S
C505 H497 0.930 . S
C505 C503 1.419 . S
C505 C506 1.362 . S
C506 H498 0.930 . S
C506 C505 1.362 . S
C506 C509 1.409 . S
C507 H499 0.930 . S
C507 C508 1.355 . S
C507 C509 1.415 . S
C508 C507 1.355 . S
C508 C510 1.419 . S
C509 C504 1.425 . S
C509 C506 1.409 . S
C509 C507 1.415 . S
C510 H500 0.930 1_554 S
C510 C508 1.419 . S
C510 C511 1.362 . S
C511 H501 0.930 . S
C511 C504 1.409 . S
C511 C510 1.362 . S
H512 C518 0.930 . S
H513 C521 0.930 . S
H514 C522 0.930 . S
H515 C523 0.930 1_556 S
H516 C526 0.930 . S
H517 C527 0.930 . S
C518 H512 0.930 . S
C518 C519 1.355 . S
C518 C520 1.415 . S
C519 C518 1.355 . S
C519 C521 1.419 . S
C520 C518 1.415 . S
C520 C525 1.425 . S
C520 C527 1.409 . S
C521 H513 0.930 . S
C521 C519 1.419 . S
C521 C522 1.362 . S
C522 H514 0.930 . S
C522 C521 1.362 . S
C522 C525 1.409 . S
C523 H515 0.930 1_554 S
C523 C524 1.355 . S
C523 C525 1.415 . S
C524 C523 1.355 . S
C524 C526 1.419 . S
C525 C520 1.425 . S
C525 C522 1.409 . S
C525 C523 1.415 . S
C526 H516 0.930 . S
C526 C524 1.419 . S
C526 C527 1.362 . S
C527 H517 0.930 . S
C527 C520 1.409 . S
C527 C526 1.362 . S
H528 C534 0.930 . S
H529 C537 0.930 . S
H530 C538 0.930 1_455 S
H531 C539 0.930 1_455 S
H532 C542 0.930 . S
H533 C543 0.930 . S
C534 H528 0.930 . S
C534 C535 1.355 . S
C534 C536 1.415 . S
C535 C534 1.355 . S
C535 C537 1.419 . S
C536 C534 1.415 . S
C536 C541 1.425 . S
C536 C543 1.409 . S
C537 H529 0.930 . S
C537 C535 1.419 . S
C537 C538 1.362 . S
C538 H530 0.930 1_655 S
C538 C537 1.362 . S
C538 C541 1.409 . S
C539 H531 0.930 1_655 S
C539 C540 1.355 . S
C539 C541 1.415 . S
C540 C539 1.355 . S
C540 C542 1.419 . S
C541 C536 1.425 . S
C541 C538 1.409 . S
C541 C539 1.415 . S
C542 H532 0.930 . S
C542 C540 1.419 . S
C542 C543 1.362 . S
C543 H533 0.930 . S
C543 C536 1.409 . S
C543 C542 1.362 . S
H544 C550 0.930 . S
H545 C553 0.930 . S
H546 C554 0.930 . S
H547 C555 0.930 . S
H548 C558 0.930 . S
H549 C559 0.930 . S
C550 H544 0.930 . S
C550 C551 1.353 1_565 S
C550 C552 1.415 . S
C551 C550 1.353 1_545 S
C551 C553 1.422 . S
C552 C550 1.415 . S
C552 C557 1.425 . S
C552 C559 1.409 . S
C553 H545 0.930 . S
C553 C551 1.422 . S
C553 C554 1.362 . S
C554 H546 0.930 . S
C554 C553 1.362 . S
C554 C557 1.409 1_545 S
C555 H547 0.930 . S
C555 C556 1.355 . S
C555 C557 1.415 . S
C556 C555 1.355 . S
C556 C558 1.419 . S
C557 C552 1.425 . S
C557 C554 1.409 1_565 S
C557 C555 1.415 . S
C558 H548 0.930 . S
C558 C556 1.419 . S
C558 C559 1.362 . S
C559 H549 0.930 . S
C559 C552 1.409 . S
C559 C558 1.362 . S
H560 C566 0.930 . S
H561 C569 0.930 . S
H562 C570 0.930 . S
H563 C571 0.930 . S
H564 C574 0.930 . S
H565 C575 0.930 . S
C566 H560 0.930 . S
C566 C567 1.355 . S
C566 C568 1.415 . S
C567 C566 1.355 . S
C567 C569 1.419 . S
C568 C566 1.415 . S
C568 C573 1.425 . S
C568 C575 1.409 . S
C569 H561 0.930 . S
C569 C567 1.419 . S
C569 C570 1.362 . S
C570 H562 0.930 . S
C570 C569 1.362 . S
C570 C573 1.409 . S
C571 H563 0.930 . S
C571 C572 1.355 . S
C571 C573 1.415 . S
C572 C571 1.355 . S
C572 C574 1.419 . S
C573 C568 1.425 . S
C573 C570 1.409 . S
C573 C571 1.415 . S
C574 H564 0.930 . S
C574 C572 1.419 . S
C574 C575 1.362 . S
C575 H565 0.930 . S
C575 C568 1.409 . S
C575 C574 1.362 . S
H576 C582 0.930 . S
H577 C585 0.930 . S
H578 C586 0.930 . S
H579 C587 0.930 . S
H580 C590 0.930 . S
H581 C591 0.930 . S
C582 H576 0.930 . S
C582 C583 1.355 . S
C582 C584 1.415 . S
C583 C582 1.355 . S
C583 C585 1.419 . S
C584 C582 1.415 . S
C584 C589 1.425 . S
C584 C591 1.409 . S
C585 H577 0.930 . S
C585 C583 1.419 . S
C585 C586 1.362 . S
C586 H578 0.930 . S
C586 C585 1.362 . S
C586 C589 1.409 . S
C587 H579 0.930 . S
C587 C588 1.355 . S
C587 C589 1.415 . S
C588 C587 1.355 . S
C588 C590 1.419 . S
C589 C584 1.425 . S
C589 C586 1.409 . S
C589 C587 1.415 . S
C590 H580 0.930 . S
C590 C588 1.419 . S
C590 C591 1.362 . S
C591 H581 0.930 . S
C591 C584 1.409 . S
C591 C590 1.362 . S
C215 N70 1.682 . S
C220 C98 1.682 . S
C236 C128 1.789 . S
C231 N81 1.769 . S
C252 N162 1.398 . S
C247 N48 1.409 . S
C268 N192 1.435 . S
C263 N59 1.454 . S
C284 C89 1.693 . S
C279 N26 1.682 1_556 S
C295 N37 1.756 . S
C300 C119 1.790 . S
C311 N4 1.354 . S
C316 N154 1.366 . S
C327 N15 1.461 . S
C332 N184 1.437 1_655 S
C348 C104 0.639 . S
C343 C64 0.688 . S
C364 C134 0.903 . S
C359 C75 0.825 . S
C380 C175 1.194 . S
C375 C86 1.140 . S
C391 C53 0.753 . S
C396 C205 0.715 . S
C407 C20 0.676 . S
C412 C115 0.556 . S
C428 C145 0.942 . S
C423 C31 0.955 1_556 S
C444 C164 1.217 . S
C439 C42 1.198 . S
C455 C9 0.652 . S
C460 C194 0.686 . S
C471 C61 1.467 . S
C476 N94 1.435 . S
C487 C72 1.398 . S
C492 N124 1.434 . S
C508 C149 1.652 1_554 S
C503 C83 1.624 . S
C524 C179 1.587 1_554 S
C519 C50 1.566 . S
C535 C17 1.445 . S
C540 N102 1.502 . S
C556 N132 1.435 . S
C551 C28 1.454 . S
C572 C158 1.660 . S
C567 C39 1.645 . S
C583 C6 1.552 . S
C588 C188 1.587 . S
